# Generated by pormake.
# Topology ato, (4)-cn, num edge types: 1
# Building blocks:
#     Node 0, Type 0, BuildingBlock: KUFVIS_clean_sbu_0, # of connection points: 4
#     Node 1, Type 0, BuildingBlock: KUFVIS_clean_sbu_0, # of connection points: 4
#     Node 2, Type 0, BuildingBlock: KUFVIS_clean_sbu_0, # of connection points: 4
#     Node 3, Type 0, BuildingBlock: KUFVIS_clean_sbu_0, # of connection points: 4
#     Node 4, Type 0, BuildingBlock: KUFVIS_clean_sbu_0, # of connection points: 4
#     Node 5, Type 0, BuildingBlock: KUFVIS_clean_sbu_0, # of connection points: 4
#     Node 6, Type 0, BuildingBlock: KUFVIS_clean_sbu_0, # of connection points: 4
#     Node 7, Type 0, BuildingBlock: KUFVIS_clean_sbu_0, # of connection points: 4
#     Node 8, Type 0, BuildingBlock: KUFVIS_clean_sbu_0, # of connection points: 4
#     Node 9, Type 0, BuildingBlock: KUFVIS_clean_sbu_0, # of connection points: 4
#     Node 10, Type 0, BuildingBlock: KUFVIS_clean_sbu_0, # of connection points: 4
#     Node 11, Type 0, BuildingBlock: KUFVIS_clean_sbu_0, # of connection points: 4
#     Node 12, Type 0, BuildingBlock: KUFVIS_clean_sbu_0, # of connection points: 4
#     Node 13, Type 0, BuildingBlock: KUFVIS_clean_sbu_0, # of connection points: 4
#     Node 14, Type 0, BuildingBlock: KUFVIS_clean_sbu_0, # of connection points: 4
#     Node 15, Type 0, BuildingBlock: KUFVIS_clean_sbu_0, # of connection points: 4
#     Node 16, Type 0, BuildingBlock: KUFVIS_clean_sbu_0, # of connection points: 4
#     Node 17, Type 0, BuildingBlock: KUFVIS_clean_sbu_0, # of connection points: 4
#     Node 18, Type 0, BuildingBlock: KUFVIS_clean_sbu_0, # of connection points: 4
#     Node 19, Type 0, BuildingBlock: KUFVIS_clean_sbu_0, # of connection points: 4
#     Node 20, Type 0, BuildingBlock: KUFVIS_clean_sbu_0, # of connection points: 4
#     Node 21, Type 0, BuildingBlock: KUFVIS_clean_sbu_0, # of connection points: 4
#     Node 22, Type 0, BuildingBlock: KUFVIS_clean_sbu_0, # of connection points: 4
#     Node 23, Type 0, BuildingBlock: KUFVIS_clean_sbu_0, # of connection points: 4
#     Node 24, Type 0, BuildingBlock: KUFVIS_clean_sbu_0, # of connection points: 4
#     Node 25, Type 0, BuildingBlock: KUFVIS_clean_sbu_0, # of connection points: 4
#     Node 26, Type 0, BuildingBlock: KUFVIS_clean_sbu_0, # of connection points: 4
#     Node 27, Type 0, BuildingBlock: KUFVIS_clean_sbu_0, # of connection points: 4
#     Node 28, Type 0, BuildingBlock: KUFVIS_clean_sbu_0, # of connection points: 4
#     Node 29, Type 0, BuildingBlock: KUFVIS_clean_sbu_0, # of connection points: 4
#     Node 30, Type 0, BuildingBlock: KUFVIS_clean_sbu_0, # of connection points: 4
#     Node 31, Type 0, BuildingBlock: KUFVIS_clean_sbu_0, # of connection points: 4
#     Node 32, Type 0, BuildingBlock: KUFVIS_clean_sbu_0, # of connection points: 4
#     Node 33, Type 0, BuildingBlock: KUFVIS_clean_sbu_0, # of connection points: 4
#     Node 34, Type 0, BuildingBlock: KUFVIS_clean_sbu_0, # of connection points: 4
#     Node 35, Type 0, BuildingBlock: KUFVIS_clean_sbu_0, # of connection points: 4
#     Edge 36, Type (0, 0), BuildingBlock: UVAHIK_clean_linker_0, # of connection points: 2
#     Edge 37, Type (0, 0), BuildingBlock: UVAHIK_clean_linker_0, # of connection points: 2
#     Edge 38, Type (0, 0), BuildingBlock: UVAHIK_clean_linker_0, # of connection points: 2
#     Edge 39, Type (0, 0), BuildingBlock: UVAHIK_clean_linker_0, # of connection points: 2
#     Edge 40, Type (0, 0), BuildingBlock: UVAHIK_clean_linker_0, # of connection points: 2
#     Edge 41, Type (0, 0), BuildingBlock: UVAHIK_clean_linker_0, # of connection points: 2
#     Edge 42, Type (0, 0), BuildingBlock: UVAHIK_clean_linker_0, # of connection points: 2
#     Edge 43, Type (0, 0), BuildingBlock: UVAHIK_clean_linker_0, # of connection points: 2
#     Edge 44, Type (0, 0), BuildingBlock: UVAHIK_clean_linker_0, # of connection points: 2
#     Edge 45, Type (0, 0), BuildingBlock: UVAHIK_clean_linker_0, # of connection points: 2
#     Edge 46, Type (0, 0), BuildingBlock: UVAHIK_clean_linker_0, # of connection points: 2
#     Edge 47, Type (0, 0), BuildingBlock: UVAHIK_clean_linker_0, # of connection points: 2
#     Edge 48, Type (0, 0), BuildingBlock: UVAHIK_clean_linker_0, # of connection points: 2
#     Edge 49, Type (0, 0), BuildingBlock: UVAHIK_clean_linker_0, # of connection points: 2
#     Edge 50, Type (0, 0), BuildingBlock: UVAHIK_clean_linker_0, # of connection points: 2
#     Edge 51, Type (0, 0), BuildingBlock: UVAHIK_clean_linker_0, # of connection points: 2
#     Edge 52, Type (0, 0), BuildingBlock: UVAHIK_clean_linker_0, # of connection points: 2
#     Edge 53, Type (0, 0), BuildingBlock: UVAHIK_clean_linker_0, # of connection points: 2
#     Edge 54, Type (0, 0), BuildingBlock: UVAHIK_clean_linker_0, # of connection points: 2
#     Edge 55, Type (0, 0), BuildingBlock: UVAHIK_clean_linker_0, # of connection points: 2
#     Edge 56, Type (0, 0), BuildingBlock: UVAHIK_clean_linker_0, # of connection points: 2
#     Edge 57, Type (0, 0), BuildingBlock: UVAHIK_clean_linker_0, # of connection points: 2
#     Edge 58, Type (0, 0), BuildingBlock: UVAHIK_clean_linker_0, # of connection points: 2
#     Edge 59, Type (0, 0), BuildingBlock: UVAHIK_clean_linker_0, # of connection points: 2
#     Edge 60, Type (0, 0), BuildingBlock: UVAHIK_clean_linker_0, # of connection points: 2
#     Edge 61, Type (0, 0), BuildingBlock: UVAHIK_clean_linker_0, # of connection points: 2
#     Edge 62, Type (0, 0), BuildingBlock: UVAHIK_clean_linker_0, # of connection points: 2
#     Edge 63, Type (0, 0), BuildingBlock: UVAHIK_clean_linker_0, # of connection points: 2
#     Edge 64, Type (0, 0), BuildingBlock: UVAHIK_clean_linker_0, # of connection points: 2
#     Edge 65, Type (0, 0), BuildingBlock: UVAHIK_clean_linker_0, # of connection points: 2
#     Edge 66, Type (0, 0), BuildingBlock: UVAHIK_clean_linker_0, # of connection points: 2
#     Edge 67, Type (0, 0), BuildingBlock: UVAHIK_clean_linker_0, # of connection points: 2
#     Edge 68, Type (0, 0), BuildingBlock: UVAHIK_clean_linker_0, # of connection points: 2
#     Edge 69, Type (0, 0), BuildingBlock: UVAHIK_clean_linker_0, # of connection points: 2
#     Edge 70, Type (0, 0), BuildingBlock: UVAHIK_clean_linker_0, # of connection points: 2
#     Edge 71, Type (0, 0), BuildingBlock: UVAHIK_clean_linker_0, # of connection points: 2
#     Edge 72, Type (0, 0), BuildingBlock: UVAHIK_clean_linker_0, # of connection points: 2
#     Edge 73, Type (0, 0), BuildingBlock: UVAHIK_clean_linker_0, # of connection points: 2
#     Edge 74, Type (0, 0), BuildingBlock: UVAHIK_clean_linker_0, # of connection points: 2
#     Edge 75, Type (0, 0), BuildingBlock: UVAHIK_clean_linker_0, # of connection points: 2
#     Edge 76, Type (0, 0), BuildingBlock: UVAHIK_clean_linker_0, # of connection points: 2
#     Edge 77, Type (0, 0), BuildingBlock: UVAHIK_clean_linker_0, # of connection points: 2
#     Edge 78, Type (0, 0), BuildingBlock: UVAHIK_clean_linker_0, # of connection points: 2
#     Edge 79, Type (0, 0), BuildingBlock: UVAHIK_clean_linker_0, # of connection points: 2
#     Edge 80, Type (0, 0), BuildingBlock: UVAHIK_clean_linker_0, # of connection points: 2
#     Edge 81, Type (0, 0), BuildingBlock: UVAHIK_clean_linker_0, # of connection points: 2
#     Edge 82, Type (0, 0), BuildingBlock: UVAHIK_clean_linker_0, # of connection points: 2
#     Edge 83, Type (0, 0), BuildingBlock: UVAHIK_clean_linker_0, # of connection points: 2
#     Edge 84, Type (0, 0), BuildingBlock: UVAHIK_clean_linker_0, # of connection points: 2
#     Edge 85, Type (0, 0), BuildingBlock: UVAHIK_clean_linker_0, # of connection points: 2
#     Edge 86, Type (0, 0), BuildingBlock: UVAHIK_clean_linker_0, # of connection points: 2
#     Edge 87, Type (0, 0), BuildingBlock: UVAHIK_clean_linker_0, # of connection points: 2
#     Edge 88, Type (0, 0), BuildingBlock: UVAHIK_clean_linker_0, # of connection points: 2
#     Edge 89, Type (0, 0), BuildingBlock: UVAHIK_clean_linker_0, # of connection points: 2
#     Edge 90, Type (0, 0), BuildingBlock: UVAHIK_clean_linker_0, # of connection points: 2
#     Edge 91, Type (0, 0), BuildingBlock: UVAHIK_clean_linker_0, # of connection points: 2
#     Edge 92, Type (0, 0), BuildingBlock: UVAHIK_clean_linker_0, # of connection points: 2
#     Edge 93, Type (0, 0), BuildingBlock: UVAHIK_clean_linker_0, # of connection points: 2
#     Edge 94, Type (0, 0), BuildingBlock: UVAHIK_clean_linker_0, # of connection points: 2
#     Edge 95, Type (0, 0), BuildingBlock: UVAHIK_clean_linker_0, # of connection points: 2
#     Edge 96, Type (0, 0), BuildingBlock: UVAHIK_clean_linker_0, # of connection points: 2
#     Edge 97, Type (0, 0), BuildingBlock: UVAHIK_clean_linker_0, # of connection points: 2
#     Edge 98, Type (0, 0), BuildingBlock: UVAHIK_clean_linker_0, # of connection points: 2
#     Edge 99, Type (0, 0), BuildingBlock: UVAHIK_clean_linker_0, # of connection points: 2
#     Edge 100, Type (0, 0), BuildingBlock: UVAHIK_clean_linker_0, # of connection points: 2
#     Edge 101, Type (0, 0), BuildingBlock: UVAHIK_clean_linker_0, # of connection points: 2
#     Edge 102, Type (0, 0), BuildingBlock: UVAHIK_clean_linker_0, # of connection points: 2
#     Edge 103, Type (0, 0), BuildingBlock: UVAHIK_clean_linker_0, # of connection points: 2
#     Edge 104, Type (0, 0), BuildingBlock: UVAHIK_clean_linker_0, # of connection points: 2
#     Edge 105, Type (0, 0), BuildingBlock: UVAHIK_clean_linker_0, # of connection points: 2
#     Edge 106, Type (0, 0), BuildingBlock: UVAHIK_clean_linker_0, # of connection points: 2
#     Edge 107, Type (0, 0), BuildingBlock: UVAHIK_clean_linker_0, # of connection points: 2
# Relax obj value: 0.075
# Max RMSD: 0.072
# Mean RMSD: 0.072
data_MOF--net-ato--node1-KUFVIS_clean_sbu_0--edge1-UVAHIK_clean_linker_0
_symmetry_space_group_name_H-M    P1
_symmetry_Int_Tables_number       1
_symmetry_cell_setting            triclinic
loop_
_symmetry_equiv_pos_as_xyz
'x, y, z'
_cell_length_a     132.46473
_cell_length_b     132.46543
_cell_length_c     30.265315
_cell_angle_alpha  89.987715
_cell_angle_beta   90.010927
_cell_angle_gamma 120.00656
loop_
_atom_site_label
_atom_site_type_symbol
_atom_site_fract_x
_atom_site_fract_y
_atom_site_fract_z
_atom_type_partial_charge
Mn0 Mn 0.25887 0.06017 0.24821 0.0
Mn1 Mn 0.27544 0.04747 0.25925 0.0
C2 C 0.27784 0.06941 0.22148 0.0
C3 C 0.25231 0.07263 0.27341 0.0
C4 C 0.25653 0.04012 0.18974 0.0
O5 O 0.25004 0.04778 0.29583 0.0
O6 O 0.26213 0.04048 0.30116 0.0
C7 C 0.28449 0.05595 0.3492 0.0
N8 N 0.28648 0.05495 0.30572 0.0
C9 C 0.30724 0.06506 0.3173 0.0
C10 C 0.3054 0.06614 0.36227 0.0
C11 C 0.29398 0.06159 0.37824 0.0
C12 C 0.29744 0.05934 0.28995 0.0
H13 H 0.27572 0.05247 0.36158 0.0
C14 C 0.25297 0.04076 0.31278 0.0
O15 O 0.24643 0.06449 0.24464 0.0
O16 O 0.26159 0.07305 0.28942 0.0
N17 N 0.28869 0.05331 0.22097 0.0
C18 C 0.28897 0.05197 0.17642 0.0
C19 C 0.29976 0.05624 0.15505 0.0
C20 C 0.31013 0.06171 0.17973 0.0
C21 C 0.30961 0.06284 0.22561 0.0
C22 C 0.2986 0.05835 0.24513 0.0
H23 H 0.28103 0.04773 0.1573 0.0
O24 O 0.2703 0.07202 0.20606 0.0
O25 O 0.27412 0.06149 0.25224 0.0
O26 O 0.25336 0.04747 0.20011 0.0
O27 O 0.26459 0.03937 0.21008 0.0
C28 C 0.31959 0.06845 0.25263 0.0
C29 C 0.3184 0.06958 0.29842 0.0
H30 H 0.3127 0.07051 0.38476 0.0
H31 H 0.2925 0.06243 0.41287 0.0
H32 H 0.30009 0.05534 0.11963 0.0
H33 H 0.31844 0.06508 0.16309 0.0
H34 H 0.32822 0.07207 0.23842 0.0
H35 H 0.32614 0.07405 0.31874 0.0
Mn36 Mn 0.94637 0.19798 0.25307 0.0
Mn37 Mn 0.95938 0.22712 0.26743 0.0
C38 C 0.93796 0.20825 0.22375 0.0
C39 C 0.93324 0.17903 0.27726 0.0
C40 C 0.96789 0.21561 0.2017 0.0
O41 O 0.95805 0.20109 0.30313 0.0
O42 O 0.96447 0.2202 0.3146 0.0
C43 C 0.94807 0.22753 0.35125 0.0
N44 N 0.95073 0.23085 0.30828 0.0
C45 C 0.94089 0.24196 0.31142 0.0
C46 C 0.93821 0.23882 0.35593 0.0
C47 C 0.94177 0.23152 0.37585 0.0
C48 C 0.94724 0.23776 0.28864 0.0
H49 H 0.95066 0.22181 0.36651 0.0
C50 C 0.96403 0.21059 0.32473 0.0
O51 O 0.94158 0.18106 0.24975 0.0
O52 O 0.93295 0.18804 0.29232 0.0
N53 N 0.95514 0.23494 0.22434 0.0
C54 C 0.95773 0.2365 0.1804 0.0
C55 C 0.95436 0.24322 0.15512 0.0
C56 C 0.94846 0.24833 0.17531 0.0
C57 C 0.946 0.2467 0.22064 0.0
C58 C 0.94965 0.23999 0.24423 0.0
H59 H 0.96228 0.23262 0.16467 0.0
O60 O 0.93523 0.19807 0.20835 0.0
O61 O 0.94542 0.21206 0.25604 0.0
O62 O 0.95969 0.20513 0.20771 0.0
O63 O 0.96879 0.22425 0.22378 0.0
C64 C 0.93984 0.25125 0.24315 0.0
C65 C 0.93727 0.24887 0.28849 0.0
H66 H 0.93329 0.24182 0.37494 0.0
H67 H 0.93962 0.22895 0.41005 0.0
H68 H 0.95628 0.24443 0.12013 0.0
H69 H 0.94578 0.25342 0.15562 0.0
H70 H 0.93685 0.25642 0.22572 0.0
H71 H 0.93235 0.25224 0.30524 0.0
Mn72 Mn 0.80793 0.74857 0.25106 0.0
Mn73 Mn 0.7786 0.73209 0.26019 0.0
C74 C 0.79821 0.72969 0.22318 0.0
C75 C 0.82681 0.75489 0.27759 0.0
C76 C 0.79057 0.75141 0.19237 0.0
O77 O 0.8042 0.75725 0.29887 0.0
O78 O 0.78481 0.74505 0.30354 0.0
C79 C 0.77749 0.72228 0.34915 0.0
N80 N 0.77472 0.72066 0.30541 0.0
C81 C 0.76384 0.69982 0.31461 0.0
C82 C 0.76652 0.70128 0.35981 0.0
C83 C 0.7734 0.71255 0.37712 0.0
C84 C 0.76815 0.70984 0.28838 0.0
H85 H 0.78277 0.73094 0.36254 0.0
C86 C 0.79421 0.75417 0.31579 0.0
O87 O 0.82477 0.76092 0.24879 0.0
O88 O 0.81781 0.74558 0.29279 0.0
N89 N 0.77132 0.71915 0.22038 0.0
C90 C 0.76995 0.71924 0.17577 0.0
C91 C 0.76346 0.70864 0.15315 0.0
C92 C 0.75834 0.69808 0.17665 0.0
C93 C 0.75974 0.69822 0.2226 0.0
C94 C 0.76624 0.70906 0.2434 0.0
H95 H 0.77382 0.72733 0.15756 0.0
O96 O 0.80845 0.73723 0.20854 0.0
O97 O 0.79393 0.73336 0.25378 0.0
O98 O 0.80105 0.75436 0.2028 0.0
O99 O 0.78168 0.74335 0.21223 0.0
C100 C 0.75514 0.68802 0.24848 0.0
C101 C 0.75722 0.68882 0.29443 0.0
H102 H 0.76342 0.6938 0.38148 0.0
H103 H 0.77555 0.71374 0.41194 0.0
H104 H 0.76242 0.7086 0.11768 0.0
H105 H 0.75341 0.68992 0.15905 0.0
H106 H 0.75014 0.67952 0.23328 0.0
H107 H 0.75377 0.68092 0.31388 0.0
Mn108 Mn 0.05999 0.25629 0.75262 0.0
Mn109 Mn 0.04627 0.27187 0.74085 0.0
C110 C 0.06865 0.27537 0.77821 0.0
C111 C 0.07291 0.25027 0.72764 0.0
C112 C 0.03989 0.25353 0.81195 0.0
O113 O 0.04761 0.24687 0.70567 0.0
O114 O 0.03944 0.2582 0.70073 0.0
C115 C 0.05394 0.28022 0.64956 0.0
N116 N 0.05312 0.28253 0.69283 0.0
C117 C 0.0621 0.3031 0.67821 0.0
C118 C 0.06299 0.30093 0.63343 0.0
C119 C 0.05893 0.28944 0.61909 0.0
C120 C 0.0571 0.29356 0.70706 0.0
H121 H 0.05078 0.27139 0.63839 0.0
C122 C 0.04014 0.24926 0.68931 0.0
O123 O 0.06497 0.24434 0.75701 0.0
O124 O 0.0729 0.2593 0.7111 0.0
N125 N 0.05189 0.28543 0.77732 0.0
C126 C 0.05079 0.28607 0.82185 0.0
C127 C 0.0547 0.297 0.84169 0.0
C128 C 0.05949 0.3071 0.81548 0.0
C129 C 0.06033 0.30619 0.76963 0.0
C130 C 0.05634 0.29508 0.75175 0.0
H131 H 0.04701 0.27832 0.84209 0.0
O132 O 0.07168 0.26818 0.79399 0.0
O133 O 0.06068 0.27126 0.74762 0.0
O134 O 0.04738 0.25057 0.80116 0.0
O135 O 0.0388 0.26137 0.79148 0.0
C136 C 0.06506 0.31587 0.74102 0.0
C137 C 0.06604 0.31434 0.6954 0.0
H138 H 0.06681 0.30802 0.60982 0.0
H139 H 0.05962 0.2877 0.58462 0.0
H140 H 0.054 0.29762 0.87708 0.0
H141 H 0.06254 0.31551 0.83092 0.0
H142 H 0.06809 0.32456 0.75382 0.0
H143 H 0.06987 0.32188 0.67385 0.0
Mn144 Mn 0.7524 0.8072 0.7516 0.0
Mn145 Mn 0.73545 0.77804 0.73949 0.0
C146 C 0.73377 0.79756 0.78167 0.0
C147 C 0.75875 0.8262 0.72665 0.0
C148 C 0.75566 0.78934 0.80446 0.0
O149 O 0.76051 0.8035 0.70145 0.0
O150 O 0.74746 0.7844 0.69223 0.0
C151 C 0.72391 0.77762 0.65515 0.0
N152 N 0.72315 0.77452 0.69844 0.0
C153 C 0.70218 0.76398 0.69541 0.0
C154 C 0.70274 0.76692 0.65062 0.0
C155 C 0.71365 0.77381 0.63046 0.0
C156 C 0.7127 0.76798 0.71827 0.0
H157 H 0.73227 0.783 0.63967 0.0
C158 C 0.75672 0.79381 0.68096 0.0
O159 O 0.76495 0.82396 0.75393 0.0
O160 O 0.74924 0.81734 0.7121 0.0
N161 N 0.72335 0.77076 0.78276 0.0
C162 C 0.72431 0.76934 0.82687 0.0
C163 C 0.71417 0.763 0.85232 0.0
C164 C 0.70317 0.75811 0.83213 0.0
C165 C 0.7024 0.75959 0.78662 0.0
C166 C 0.7128 0.76592 0.76288 0.0
H167 H 0.73273 0.77305 0.8426 0.0
O168 O 0.74152 0.8077 0.79653 0.0
O169 O 0.73711 0.79341 0.74958 0.0
O170 O 0.75835 0.79989 0.79723 0.0
O171 O 0.7476 0.7807 0.78336 0.0
C172 C 0.69172 0.75525 0.76407 0.0
C173 C 0.69161 0.75746 0.71851 0.0
H174 H 0.69485 0.76406 0.63152 0.0
H175 H 0.71415 0.77621 0.59601 0.0
H176 H 0.71484 0.76191 0.88743 0.0
H177 H 0.69537 0.75332 0.85193 0.0
H178 H 0.68353 0.75038 0.78161 0.0
H179 H 0.68334 0.75426 0.7017 0.0
Mn180 Mn 0.20255 0.94643 0.74848 0.0
Mn181 Mn 0.23167 0.95972 0.73295 0.0
C182 C 0.21311 0.93815 0.77656 0.0
C183 C 0.18344 0.9333 0.72581 0.0
C184 C 0.22022 0.96796 0.79985 0.0
O185 O 0.20538 0.95807 0.69841 0.0
O186 O 0.22453 0.9648 0.68672 0.0
C187 C 0.23201 0.94871 0.64823 0.0
N188 N 0.23544 0.95131 0.69112 0.0
C189 C 0.24719 0.94218 0.68593 0.0
C190 C 0.24394 0.93957 0.64147 0.0
C191 C 0.23626 0.94279 0.62263 0.0
C192 C 0.24267 0.94808 0.70979 0.0
H193 H 0.22605 0.95109 0.63377 0.0
C194 C 0.21484 0.9642 0.67676 0.0
O195 O 0.1857 0.94171 0.75323 0.0
O196 O 0.19232 0.93289 0.70989 0.0
N197 N 0.23969 0.95549 0.7751 0.0
C198 C 0.24125 0.95786 0.8192 0.0
C199 C 0.24826 0.95468 0.84356 0.0
C200 C 0.2537 0.94925 0.82226 0.0
C201 C 0.25207 0.94702 0.77678 0.0
C202 C 0.24497 0.95036 0.75423 0.0
H203 H 0.23716 0.9621 0.83572 0.0
O204 O 0.20299 0.93536 0.79278 0.0
O205 O 0.21671 0.94561 0.74429 0.0
O206 O 0.20976 0.95975 0.79374 0.0
O207 O 0.22885 0.96896 0.77751 0.0
C208 C 0.25707 0.94147 0.75304 0.0
C209 C 0.25457 0.93897 0.70772 0.0
H210 H 0.24717 0.93498 0.62165 0.0
H211 H 0.23361 0.9407 0.58848 0.0
H212 H 0.24947 0.95642 0.87867 0.0
H213 H 0.25906 0.94677 0.8412 0.0
H214 H 0.26268 0.93887 0.76953 0.0
H215 H 0.25825 0.93446 0.69008 0.0
Mn216 Mn 0.75001 0.94491 0.7526 0.0
Mn217 Mn 0.7332 0.95734 0.7414 0.0
C218 C 0.73106 0.93552 0.77948 0.0
C219 C 0.75685 0.93268 0.72745 0.0
C220 C 0.75217 0.96493 0.81074 0.0
O221 O 0.75873 0.9573 0.7049 0.0
O222 O 0.74645 0.96437 0.6993 0.0
C223 C 0.7241 0.94866 0.65167 0.0
N224 N 0.72213 0.94971 0.69513 0.0
C225 C 0.70136 0.9395 0.6838 0.0
C226 C 0.70317 0.93836 0.63885 0.0
C227 C 0.71458 0.94293 0.62276 0.0
C228 C 0.71118 0.94529 0.711 0.0
H229 H 0.73286 0.95216 0.63921 0.0
C230 C 0.75568 0.9642 0.68776 0.0
O231 O 0.76262 0.94084 0.75623 0.0
O232 O 0.74747 0.93206 0.71151 0.0
N233 N 0.71998 0.95145 0.77984 0.0
C234 C 0.71972 0.95287 0.82436 0.0
C235 C 0.70894 0.94861 0.84582 0.0
C236 C 0.69856 0.94307 0.82127 0.0
C237 C 0.69905 0.94186 0.77542 0.0
C238 C 0.71005 0.94634 0.7558 0.0
H239 H 0.72768 0.95718 0.84337 0.0
O240 O 0.73868 0.93302 0.79487 0.0
O241 O 0.73469 0.94341 0.74863 0.0
O242 O 0.75541 0.95762 0.80054 0.0
O243 O 0.74407 0.96558 0.79036 0.0
C244 C 0.68905 0.93617 0.74854 0.0
C245 C 0.69021 0.93496 0.70278 0.0
H246 H 0.69585 0.93392 0.61646 0.0
H247 H 0.71604 0.94204 0.58815 0.0
H248 H 0.70864 0.94958 0.88121 0.0
H249 H 0.69026 0.93972 0.83798 0.0
H250 H 0.68043 0.93255 0.76283 0.0
H251 H 0.68245 0.93043 0.68256 0.0
Mn252 Mn 0.06226 0.80708 0.75222 0.0
Mn253 Mn 0.04958 0.77788 0.74016 0.0
C254 C 0.07103 0.79717 0.78184 0.0
C255 C 0.07512 0.82605 0.72741 0.0
C256 C 0.04106 0.78946 0.8054 0.0
O257 O 0.05043 0.80357 0.70221 0.0
O258 O 0.04403 0.78439 0.69312 0.0
C259 C 0.06043 0.77719 0.6555 0.0
N260 N 0.05812 0.77412 0.69883 0.0
C261 C 0.06817 0.76322 0.69538 0.0
C262 C 0.07052 0.76613 0.65054 0.0
C263 C 0.06667 0.77319 0.63058 0.0
C264 C 0.06187 0.76742 0.71847 0.0
H265 H 0.05758 0.7827 0.64016 0.0
C266 C 0.04436 0.79389 0.68183 0.0
O267 O 0.06672 0.82391 0.75478 0.0
O268 O 0.0756 0.81712 0.71265 0.0
N269 N 0.05428 0.77044 0.78323 0.0
C270 C 0.05201 0.76911 0.82743 0.0
C271 C 0.05569 0.76265 0.85271 0.0
C272 C 0.06158 0.75755 0.83229 0.0
C273 C 0.06372 0.75895 0.78671 0.0
C274 C 0.05977 0.76541 0.76314 0.0
H275 H 0.04747 0.77298 0.84333 0.0
O276 O 0.07359 0.80734 0.79689 0.0
O277 O 0.06347 0.79313 0.74993 0.0
O278 O 0.04903 0.79996 0.79803 0.0
O279 O 0.04029 0.78074 0.78431 0.0
C280 C 0.06984 0.75441 0.76392 0.0
C281 C 0.07209 0.75656 0.7183 0.0
H282 H 0.07539 0.76312 0.63127 0.0
H283 H 0.06854 0.77556 0.5961 0.0
H284 H 0.05402 0.76163 0.88789 0.0
H285 H 0.06449 0.75266 0.85197 0.0
H286 H 0.07306 0.74943 0.78132 0.0
H287 H 0.07699 0.7532 0.70131 0.0
Mn288 Mn 0.19956 0.25615 0.75419 0.0
Mn289 Mn 0.2289 0.27232 0.74411 0.0
C290 C 0.20954 0.27506 0.7814 0.0
C291 C 0.18067 0.25002 0.72829 0.0
C292 C 0.21698 0.25347 0.81346 0.0
O293 O 0.20296 0.24724 0.70643 0.0
O294 O 0.22247 0.25892 0.7027 0.0
C295 C 0.22965 0.28123 0.65373 0.0
N296 N 0.23263 0.28329 0.69722 0.0
C297 C 0.24344 0.30402 0.68504 0.0
C298 C 0.24055 0.30211 0.64006 0.0
C299 C 0.2336 0.29067 0.62438 0.0
C300 C 0.23926 0.29427 0.7127 0.0
H301 H 0.2243 0.27245 0.64158 0.0
C302 C 0.21295 0.24993 0.69052 0.0
O303 O 0.18267 0.24397 0.75719 0.0
O304 O 0.18971 0.25921 0.71268 0.0
N305 N 0.23645 0.28565 0.78198 0.0
C306 C 0.23815 0.286 0.8265 0.0
C307 C 0.2448 0.29682 0.84754 0.0
C308 C 0.24977 0.30714 0.82256 0.0
C309 C 0.24805 0.30654 0.7767 0.0
C310 C 0.2414 0.29551 0.75752 0.0
H311 H 0.23441 0.27809 0.84584 0.0
O312 O 0.19931 0.26763 0.79651 0.0
O313 O 0.21366 0.27127 0.75065 0.0
O314 O 0.2065 0.25035 0.80242 0.0
O315 O 0.22589 0.26153 0.79364 0.0
C316 C 0.25251 0.31647 0.74938 0.0
C317 C 0.25017 0.31521 0.70361 0.0
H318 H 0.24355 0.30937 0.61732 0.0
H319 H 0.23129 0.28914 0.58975 0.0
H320 H 0.2461 0.29721 0.88294 0.0
H321 H 0.25483 0.31547 0.83894 0.0
H322 H 0.25762 0.32512 0.76333 0.0
H323 H 0.25353 0.32292 0.68303 0.0
Mn324 Mn 0.94791 0.75011 0.25154 0.0
Mn325 Mn 0.96041 0.73331 0.25978 0.0
C326 C 0.93864 0.73137 0.22244 0.0
C327 C 0.93535 0.75636 0.27866 0.0
C328 C 0.96812 0.75293 0.19302 0.0
O329 O 0.96027 0.7585 0.29983 0.0
O330 O 0.96722 0.74609 0.30388 0.0
C331 C 0.95144 0.72322 0.34815 0.0
N332 N 0.95263 0.72173 0.30433 0.0
C333 C 0.94227 0.70085 0.31226 0.0
C334 C 0.94099 0.70216 0.35755 0.0
C335 C 0.94557 0.71339 0.37553 0.0
C336 C 0.94821 0.71096 0.28664 0.0
H337 H 0.95494 0.73183 0.36207 0.0
C338 C 0.96705 0.75524 0.31661 0.0
O339 O 0.94349 0.76253 0.25024 0.0
O340 O 0.93502 0.747 0.29324 0.0
N341 N 0.95467 0.72052 0.21923 0.0
C342 C 0.95624 0.72076 0.17466 0.0
C343 C 0.95198 0.71023 0.15141 0.0
C344 C 0.94628 0.69958 0.17425 0.0
C345 C 0.94491 0.69956 0.22019 0.0
C346 C 0.94941 0.71033 0.24163 0.0
H347 H 0.96066 0.72892 0.15694 0.0
O348 O 0.93609 0.73906 0.20832 0.0
O349 O 0.9465 0.73482 0.25329 0.0
O350 O 0.96069 0.75599 0.20356 0.0
O351 O 0.96879 0.74472 0.21249 0.0
C352 C 0.93907 0.68927 0.24544 0.0
C353 C 0.93772 0.68991 0.29142 0.0
H354 H 0.93644 0.69461 0.37876 0.0
H355 H 0.94458 0.71447 0.41042 0.0
H356 H 0.95308 0.71032 0.11595 0.0
H357 H 0.94293 0.69147 0.15617 0.0
H358 H 0.93543 0.68081 0.22973 0.0
H359 H 0.93308 0.68194 0.31039 0.0
Mn360 Mn 0.25732 0.19921 0.2511 0.0
Mn361 Mn 0.27243 0.22827 0.26862 0.0
C362 C 0.27619 0.21031 0.22365 0.0
C363 C 0.25177 0.18015 0.27309 0.0
C364 C 0.25272 0.21659 0.20169 0.0
O365 O 0.24817 0.20157 0.30107 0.0
O366 O 0.26046 0.22065 0.31561 0.0
C367 C 0.28446 0.22892 0.35198 0.0
N368 N 0.28493 0.23238 0.30932 0.0
C369 C 0.30577 0.24469 0.3131 0.0
C370 C 0.30548 0.24141 0.35734 0.0
C371 C 0.29478 0.23343 0.37677 0.0
C372 C 0.2952 0.23991 0.29008 0.0
H373 H 0.27627 0.22271 0.36679 0.0
C374 C 0.25138 0.2108 0.32406 0.0
O375 O 0.24554 0.18228 0.24557 0.0
O376 O 0.26091 0.18913 0.28939 0.0
N377 N 0.28439 0.23668 0.22575 0.0
C378 C 0.28328 0.23819 0.18182 0.0
C379 C 0.29326 0.24544 0.15684 0.0
C380 C 0.30424 0.25117 0.17733 0.0
C381 C 0.30515 0.24956 0.22263 0.0
C382 C 0.29491 0.24222 0.24584 0.0
H383 H 0.27487 0.23387 0.16589 0.0
O384 O 0.2691 0.20016 0.20698 0.0
O385 O 0.27207 0.2136 0.25605 0.0
O386 O 0.25101 0.20627 0.20614 0.0
O387 O 0.26003 0.22517 0.22517 0.0
C388 C 0.31584 0.25482 0.24554 0.0
C389 C 0.31616 0.25234 0.29069 0.0
H390 H 0.31343 0.24485 0.37652 0.0
H391 H 0.29449 0.23075 0.41075 0.0
H392 H 0.29249 0.24662 0.12187 0.0
H393 H 0.31193 0.25672 0.15791 0.0
H394 H 0.32389 0.26061 0.22852 0.0
H395 H 0.32446 0.25623 0.30767 0.0
Mn396 Mn 0.80567 0.05858 0.25247 0.0
Mn397 Mn 0.77652 0.04515 0.2671 0.0
C398 C 0.79511 0.06686 0.2244 0.0
C399 C 0.82465 0.07173 0.27622 0.0
C400 C 0.78821 0.03713 0.2003 0.0
O401 O 0.80277 0.04681 0.30207 0.0
O402 O 0.7836 0.04003 0.31346 0.0
C403 C 0.77589 0.05594 0.35197 0.0
N404 N 0.77259 0.05344 0.30891 0.0
C405 C 0.76084 0.06257 0.31378 0.0
C406 C 0.76396 0.06508 0.35839 0.0
C407 C 0.77158 0.06181 0.37748 0.0
C408 C 0.76542 0.0567 0.29003 0.0
H409 H 0.78181 0.05352 0.36663 0.0
C410 C 0.79329 0.04064 0.32351 0.0
O411 O 0.82258 0.06347 0.24832 0.0
O412 O 0.81566 0.07197 0.29189 0.0
N413 N 0.76857 0.04941 0.22476 0.0
C414 C 0.76713 0.04713 0.18058 0.0
C415 C 0.76021 0.05037 0.156 0.0
C416 C 0.75471 0.05577 0.17715 0.0
C417 C 0.75622 0.05791 0.22272 0.0
C418 C 0.76324 0.05451 0.24549 0.0
H419 H 0.77127 0.04292 0.16416 0.0
O420 O 0.80529 0.06975 0.20852 0.0
O421 O 0.79146 0.05931 0.25635 0.0
O422 O 0.79863 0.04539 0.20663 0.0
O423 O 0.77952 0.03604 0.22253 0.0
C424 C 0.75118 0.06344 0.24631 0.0
C425 C 0.75354 0.06584 0.29176 0.0
H426 H 0.76068 0.06964 0.37814 0.0
H427 H 0.77412 0.06382 0.41176 0.0
H428 H 0.75909 0.04869 0.12083 0.0
H429 H 0.74942 0.0583 0.15805 0.0
H430 H 0.74564 0.06609 0.22964 0.0
H431 H 0.74982 0.07033 0.30931 0.0
Mn432 Mn 0.92358 0.39369 0.58648 0.0
Mn433 Mn 0.94008 0.3811 0.6018 0.0
C434 C 0.94229 0.40229 0.55731 0.0
C435 C 0.91736 0.40658 0.60956 0.0
C436 C 0.92008 0.3722 0.53586 0.0
O437 O 0.91514 0.38208 0.63693 0.0
O438 O 0.928 0.3759 0.64874 0.0
C439 C 0.95161 0.39264 0.68561 0.0
N440 N 0.95237 0.38995 0.64278 0.0
C441 C 0.97333 0.40003 0.64637 0.0
C442 C 0.97276 0.40274 0.69075 0.0
C443 C 0.96185 0.39908 0.71038 0.0
C444 C 0.96282 0.39354 0.62342 0.0
H445 H 0.94325 0.38996 0.70064 0.0
C446 C 0.91876 0.37622 0.65873 0.0
O447 O 0.9112 0.39809 0.58245 0.0
O448 O 0.92678 0.40718 0.62494 0.0
N449 N 0.95222 0.38546 0.55901 0.0
C450 C 0.95129 0.38281 0.51514 0.0
C451 C 0.96143 0.38626 0.49015 0.0
C452 C 0.97241 0.3923 0.51054 0.0
C453 C 0.97315 0.39482 0.5558 0.0
C454 C 0.96274 0.39109 0.5791 0.0
H455 H 0.94288 0.37815 0.49926 0.0
O456 O 0.93472 0.4048 0.54151 0.0
O457 O 0.93874 0.39491 0.58988 0.0
O458 O 0.91761 0.38026 0.54168 0.0
O459 O 0.92792 0.37149 0.55805 0.0
C460 C 0.98382 0.40112 0.5785 0.0
C461 C 0.98391 0.40374 0.62373 0.0
H462 H 0.98064 0.40777 0.70989 0.0
H463 H 0.96134 0.40125 0.74447 0.0
H464 H 0.96079 0.38429 0.45521 0.0
H465 H 0.98022 0.39503 0.49107 0.0
H466 H 0.99201 0.40417 0.56128 0.0
H467 H 0.99217 0.40877 0.64062 0.0
Mn468 Mn 0.61338 0.53289 0.58664 0.0
Mn469 Mn 0.6275 0.56217 0.60004 0.0
C470 C 0.60504 0.54367 0.56173 0.0
C471 C 0.60018 0.5139 0.61055 0.0
C472 C 0.63363 0.55031 0.52782 0.0
O473 O 0.62564 0.53545 0.63364 0.0
O474 O 0.63418 0.55498 0.63913 0.0
C475 C 0.61994 0.56251 0.6918 0.0
N476 N 0.6208 0.56589 0.64881 0.0
C477 C 0.61213 0.57767 0.66511 0.0
C478 C 0.61121 0.57437 0.70961 0.0
C479 C 0.61508 0.56672 0.72297 0.0
C480 C 0.61698 0.57315 0.63553 0.0
H481 H 0.62295 0.55667 0.70222 0.0
C482 C 0.63328 0.54522 0.65012 0.0
O483 O 0.60813 0.51591 0.58124 0.0
O484 O 0.60034 0.52296 0.62766 0.0
N485 N 0.62208 0.57048 0.5647 0.0
C486 C 0.62323 0.57249 0.52032 0.0
C487 C 0.6195 0.57975 0.50142 0.0
C488 C 0.61486 0.58506 0.52842 0.0
C489 C 0.61399 0.58305 0.57412 0.0
C490 C 0.61779 0.57568 0.59104 0.0
H491 H 0.6269 0.56852 0.49947 0.0
O492 O 0.60188 0.53347 0.5454 0.0
O493 O 0.61294 0.5473 0.59254 0.0
O494 O 0.62609 0.53984 0.53834 0.0
O495 O 0.63481 0.55921 0.54872 0.0
C496 C 0.6094 0.58799 0.6035 0.0
C497 C 0.60838 0.58522 0.6489 0.0
H498 H 0.60749 0.57761 0.73377 0.0
H499 H 0.61436 0.5641 0.75723 0.0
H500 H 0.62024 0.58129 0.46614 0.0
H501 H 0.61196 0.59063 0.51372 0.0
H502 H 0.60652 0.59383 0.59146 0.0
H503 H 0.60467 0.58893 0.67103 0.0
Mn504 Mn 0.47485 0.08285 0.5841 0.0
Mn505 Mn 0.44561 0.06704 0.59742 0.0
C506 C 0.4645 0.06373 0.55906 0.0
C507 C 0.49397 0.08922 0.60785 0.0
C508 C 0.45713 0.08523 0.52558 0.0
O509 O 0.47195 0.09226 0.63125 0.0
O510 O 0.45247 0.08083 0.63699 0.0
C511 C 0.44543 0.05902 0.68888 0.0
N512 N 0.44212 0.05655 0.64582 0.0
C513 C 0.43082 0.03601 0.66136 0.0
C514 C 0.43406 0.03834 0.70594 0.0
C515 C 0.44143 0.04989 0.7197 0.0
C516 C 0.43513 0.04546 0.63213 0.0
H517 H 0.45106 0.06789 0.69961 0.0
C518 C 0.46211 0.08984 0.64796 0.0
O519 O 0.49168 0.09499 0.57871 0.0
O520 O 0.4851 0.08012 0.62489 0.0
N521 N 0.43763 0.05336 0.56161 0.0
C522 C 0.43563 0.05257 0.51722 0.0
C523 C 0.42862 0.04157 0.49794 0.0
C524 C 0.42354 0.03154 0.52458 0.0
C525 C 0.42553 0.0326 0.57029 0.0
C526 C 0.43265 0.04378 0.5876 0.0
H527 H 0.43942 0.06026 0.49666 0.0
O528 O 0.47464 0.07097 0.5427 0.0
O529 O 0.4607 0.06782 0.5899 0.0
O530 O 0.46764 0.08835 0.53602 0.0
O531 O 0.44831 0.07736 0.54643 0.0
C532 C 0.42081 0.023 0.59931 0.0
C533 C 0.42353 0.02469 0.64475 0.0
H534 H 0.43097 0.03132 0.72983 0.0
H535 H 0.444 0.05175 0.75402 0.0
H536 H 0.42709 0.04083 0.46266 0.0
H537 H 0.41817 0.02307 0.50958 0.0
H538 H 0.41517 0.01426 0.58695 0.0
H539 H 0.42 0.01722 0.66661 0.0
Mn540 Mn 0.72687 0.58878 0.08571 0.0
Mn541 Mn 0.7135 0.60448 0.06911 0.0
C542 C 0.73508 0.60766 0.11326 0.0
C543 C 0.74011 0.58293 0.06316 0.0
C544 C 0.70528 0.58489 0.13662 0.0
O545 O 0.71522 0.57981 0.03593 0.0
O546 O 0.70849 0.5922 0.02308 0.0
C547 C 0.72462 0.61577 0.98443 0.0
N548 N 0.72196 0.61664 0.0272 0.0
C549 C 0.73124 0.63752 0.02183 0.0
C550 C 0.73389 0.63684 0.97748 0.0
C551 C 0.73063 0.62592 0.95879 0.0
C552 C 0.72522 0.62711 0.04572 0.0
H553 H 0.72222 0.60741 0.97011 0.0
C554 C 0.7091 0.58307 0.01382 0.0
O555 O 0.73176 0.57677 0.09079 0.0
O556 O 0.74039 0.59214 0.04701 0.0
N557 N 0.71766 0.61677 0.11102 0.0
C558 C 0.71521 0.616 0.15505 0.0
C559 C 0.71842 0.6262 0.17927 0.0
C560 C 0.72397 0.63707 0.15792 0.0
C561 C 0.72628 0.63764 0.11251 0.0
C562 C 0.72289 0.62718 0.09008 0.0
H563 H 0.7109 0.60767 0.17163 0.0
O564 O 0.73793 0.60039 0.12973 0.0
O565 O 0.72762 0.60371 0.08101 0.0
O566 O 0.71356 0.58272 0.13103 0.0
O567 O 0.70425 0.59244 0.11378 0.0
C568 C 0.73197 0.64818 0.08875 0.0
C569 C 0.73451 0.64814 0.04351 0.0
H570 H 0.73857 0.64465 0.95764 0.0
H571 H 0.73276 0.62533 0.92472 0.0
H572 H 0.71661 0.62569 0.21432 0.0
H573 H 0.72648 0.64493 0.17675 0.0
H574 H 0.73463 0.65641 0.10517 0.0
H575 H 0.73912 0.65633 0.02584 0.0
Mn576 Mn 0.41873 0.14016 0.08371 0.0
Mn577 Mn 0.40302 0.11107 0.06721 0.0
C578 C 0.39988 0.12946 0.11158 0.0
C579 C 0.42457 0.15925 0.06133 0.0
C580 C 0.42268 0.12246 0.1344 0.0
O581 O 0.42764 0.13748 0.03366 0.0
O582 O 0.41524 0.11836 0.02099 0.0
C583 C 0.39162 0.11088 0.98277 0.0
N584 N 0.39082 0.10735 0.02552 0.0
C585 C 0.36994 0.0956 0.02038 0.0
C586 C 0.37056 0.09895 0.97606 0.0
C587 C 0.38145 0.10668 0.95727 0.0
C588 C 0.38037 0.10007 0.04415 0.0
H589 H 0.39996 0.1169 0.96838 0.0
C590 C 0.42435 0.1281 0.01154 0.0
O591 O 0.43075 0.15704 0.08878 0.0
O592 O 0.41534 0.15034 0.04525 0.0
N593 N 0.39079 0.10292 0.1093 0.0
C594 C 0.39162 0.10125 0.1533 0.0
C595 C 0.38145 0.09418 0.17762 0.0
C596 C 0.37056 0.08877 0.15638 0.0
C597 C 0.36994 0.09052 0.111 0.0
C598 C 0.38037 0.09767 0.08849 0.0
H599 H 0.39996 0.10531 0.16977 0.0
O600 O 0.40716 0.13958 0.128 0.0
O601 O 0.4038 0.12596 0.0792 0.0
O602 O 0.42484 0.13291 0.12882 0.0
O603 O 0.41511 0.11387 0.11163 0.0
C604 C 0.35938 0.08557 0.08735 0.0
C605 C 0.35936 0.08817 0.04214 0.0
H606 H 0.36273 0.09575 0.95631 0.0
H607 H 0.38199 0.10941 0.92323 0.0
H608 H 0.382 0.09288 0.21264 0.0
H609 H 0.36273 0.08337 0.17529 0.0
H610 H 0.35119 0.07993 0.10382 0.0
H611 H 0.35115 0.08452 0.02456 0.0
Mn612 Mn 0.86887 0.28015 0.08634 0.0
Mn613 Mn 0.89818 0.29389 0.07466 0.0
C614 C 0.87929 0.27146 0.11164 0.0
C615 C 0.84994 0.26728 0.06113 0.0
C616 C 0.88621 0.30018 0.14596 0.0
O617 O 0.87185 0.2926 0.03966 0.0
O618 O 0.89135 0.30075 0.03464 0.0
C619 C 0.89889 0.28631 0.98324 0.0
N620 N 0.90201 0.28708 0.02652 0.0
C621 C 0.91357 0.2781 0.01176 0.0
C622 C 0.91054 0.27726 0.96697 0.0
C623 C 0.90312 0.28134 0.9527 0.0
C624 C 0.90904 0.28308 0.04068 0.0
H625 H 0.89323 0.28949 0.97213 0.0
C626 C 0.88171 0.30007 0.02331 0.0
O627 O 0.85194 0.27516 0.09069 0.0
O628 O 0.85899 0.26731 0.04456 0.0
N629 N 0.9061 0.28823 0.11103 0.0
C630 C 0.90783 0.28928 0.15557 0.0
C631 C 0.91482 0.28533 0.17535 0.0
C632 C 0.92013 0.28055 0.14907 0.0
C633 C 0.9184 0.27977 0.10321 0.0
C634 C 0.91131 0.28379 0.08538 0.0
H635 H 0.90386 0.29304 0.17588 0.0
O636 O 0.86906 0.2684 0.12742 0.0
O637 O 0.88315 0.27946 0.08122 0.0
O638 O 0.87576 0.29269 0.13514 0.0
O639 O 0.89514 0.3013 0.12541 0.0
C640 C 0.92335 0.27505 0.07452 0.0
C641 C 0.92086 0.27412 0.02888 0.0
H642 H 0.9138 0.27345 0.9433 0.0
H643 H 0.90071 0.28069 0.91822 0.0
H644 H 0.91613 0.28599 0.21076 0.0
H645 H 0.92548 0.27748 0.16446 0.0
H646 H 0.92899 0.27199 0.08728 0.0
H647 H 0.92457 0.2703 0.00728 0.0
Mn648 Mn 0.41716 0.27935 0.08479 0.0
Mn649 Mn 0.40075 0.29205 0.06946 0.0
C650 C 0.39834 0.27068 0.11315 0.0
C651 C 0.42344 0.26649 0.06173 0.0
C652 C 0.42058 0.30072 0.13614 0.0
O653 O 0.42574 0.29107 0.03481 0.0
O654 O 0.41297 0.29737 0.02301 0.0
C655 C 0.38946 0.28083 0.98494 0.0
N656 N 0.38858 0.28338 0.02785 0.0
C657 C 0.36764 0.27343 0.02334 0.0
C658 C 0.36833 0.27086 0.97888 0.0
C659 C 0.37928 0.27453 0.95967 0.0
C660 C 0.37808 0.27979 0.0468 0.0
H661 H 0.39785 0.28351 0.97024 0.0
C662 C 0.42221 0.29703 0.01314 0.0
O663 O 0.42952 0.27493 0.08916 0.0
O664 O 0.41406 0.26592 0.04601 0.0
N665 N 0.3885 0.28758 0.1118 0.0
C666 C 0.3893 0.29002 0.15584 0.0
C667 C 0.37909 0.28649 0.18049 0.0
C668 C 0.36817 0.28059 0.15958 0.0
C669 C 0.36756 0.27828 0.11416 0.0
C670 C 0.37804 0.28208 0.09123 0.0
H671 H 0.39767 0.29457 0.17212 0.0
O672 O 0.40587 0.26812 0.12917 0.0
O673 O 0.40201 0.27816 0.0809 0.0
O674 O 0.42304 0.29266 0.13008 0.0
O675 O 0.4128 0.3015 0.11384 0.0
C676 C 0.35696 0.27212 0.09095 0.0
C677 C 0.357 0.26968 0.04559 0.0
H678 H 0.3605 0.26594 0.95935 0.0
H679 H 0.37988 0.27247 0.92551 0.0
H680 H 0.37963 0.28828 0.21556 0.0
H681 H 0.36031 0.27778 0.17879 0.0
H682 H 0.34872 0.26903 0.10786 0.0
H683 H 0.34879 0.26475 0.0283 0.0
Mn684 Mn 0.72854 0.14077 0.08135 0.0
Mn685 Mn 0.71554 0.11157 0.06848 0.0
C686 C 0.73706 0.13061 0.11086 0.0
C687 C 0.74161 0.15971 0.05674 0.0
C688 C 0.70717 0.12326 0.1339 0.0
O689 O 0.71677 0.13749 0.03133 0.0
O690 O 0.71026 0.11831 0.02133 0.0
C691 C 0.72654 0.11088 0.98422 0.0
N692 N 0.72404 0.10771 0.02739 0.0
C693 C 0.73379 0.09651 0.02411 0.0
C694 C 0.73631 0.09951 0.97941 0.0
C695 C 0.73271 0.10677 0.95945 0.0
C696 C 0.72757 0.10083 0.04705 0.0
H697 H 0.72389 0.11655 0.96891 0.0
C698 C 0.7107 0.12788 0.01045 0.0
O699 O 0.73328 0.15768 0.08422 0.0
O700 O 0.74192 0.15069 0.04181 0.0
N701 N 0.71995 0.10391 0.11162 0.0
C702 C 0.71757 0.10253 0.15573 0.0
C703 C 0.72102 0.09588 0.18105 0.0
C704 C 0.72679 0.09065 0.16074 0.0
C705 C 0.72905 0.0921 0.11524 0.0
C706 C 0.72534 0.09875 0.09163 0.0
H707 H 0.71311 0.1065 0.17154 0.0
O708 O 0.73976 0.14081 0.12599 0.0
O709 O 0.72953 0.1267 0.07883 0.0
O710 O 0.71529 0.13373 0.12708 0.0
O711 O 0.70627 0.11455 0.11237 0.0
C712 C 0.73508 0.08744 0.09258 0.0
C713 C 0.73747 0.08966 0.04706 0.0
H714 H 0.74113 0.09642 0.96026 0.0
H715 H 0.73472 0.10922 0.92509 0.0
H716 H 0.71926 0.09482 0.21616 0.0
H717 H 0.72953 0.08562 0.18045 0.0
H718 H 0.73812 0.08231 0.11001 0.0
H719 H 0.7423 0.0862 0.03019 0.0
Mn720 Mn 0.86769 0.59053 0.08436 0.0
Mn721 Mn 0.8969 0.60646 0.07028 0.0
C722 C 0.878 0.60966 0.1093 0.0
C723 C 0.84852 0.58409 0.06123 0.0
C724 C 0.8856 0.58834 0.14243 0.0
O725 O 0.87055 0.58114 0.03704 0.0
O726 O 0.89002 0.59261 0.03107 0.0
C727 C 0.89681 0.61429 0.97873 0.0
N728 N 0.90022 0.61686 0.02166 0.0
C729 C 0.91141 0.63737 0.00554 0.0
C730 C 0.90807 0.63495 0.96108 0.0
C731 C 0.9007 0.62336 0.94767 0.0
C732 C 0.9072 0.62798 0.03501 0.0
H733 H 0.89119 0.6054 0.96826 0.0
C734 C 0.88038 0.58358 0.02024 0.0
O735 O 0.85089 0.57835 0.0902 0.0
O736 O 0.85733 0.5932 0.04395 0.0
N737 N 0.90491 0.62021 0.1057 0.0
C738 C 0.90703 0.6211 0.15001 0.0
C739 C 0.91406 0.63214 0.16894 0.0
C740 C 0.91903 0.64212 0.14204 0.0
C741 C 0.91692 0.64096 0.09641 0.0
C742 C 0.90979 0.62974 0.07945 0.0
H743 H 0.90333 0.61344 0.17077 0.0
O744 O 0.86791 0.60239 0.12589 0.0
O745 O 0.88179 0.60561 0.07825 0.0
O746 O 0.87505 0.58512 0.13215 0.0
O747 O 0.89436 0.59624 0.12145 0.0
C748 C 0.92154 0.65051 0.06713 0.0
C749 C 0.9187 0.64873 0.02179 0.0
H750 H 0.91107 0.64191 0.93701 0.0
H751 H 0.89805 0.62143 0.91345 0.0
H752 H 0.91567 0.63295 0.20417 0.0
H753 H 0.92441 0.65063 0.15678 0.0
H754 H 0.92718 0.65928 0.0792 0.0
H755 H 0.92216 0.65616 0.99974 0.0
Mn756 Mn 0.61445 0.0835 0.58087 0.0
Mn757 Mn 0.62702 0.06679 0.59071 0.0
C758 C 0.6052 0.06464 0.55295 0.0
C759 C 0.60199 0.08999 0.60677 0.0
C760 C 0.6346 0.08604 0.52248 0.0
O761 O 0.6268 0.0921 0.62893 0.0
O762 O 0.63395 0.07987 0.63358 0.0
C763 C 0.61829 0.0573 0.67998 0.0
N764 N 0.61937 0.05552 0.63635 0.0
C765 C 0.60907 0.0347 0.64634 0.0
C766 C 0.6079 0.03632 0.69145 0.0
C767 C 0.6125 0.04766 0.7083 0.0
C768 C 0.61493 0.04464 0.61975 0.0
H769 H 0.6218 0.06601 0.69303 0.0
C770 C 0.63371 0.08902 0.64576 0.0
O771 O 0.61016 0.09598 0.57826 0.0
O772 O 0.60153 0.08063 0.62211 0.0
N773 N 0.62121 0.05373 0.55145 0.0
C774 C 0.6227 0.05367 0.50691 0.0
C775 C 0.61843 0.04298 0.48475 0.0
C776 C 0.6128 0.03249 0.50863 0.0
C777 C 0.61152 0.03278 0.55451 0.0
C778 C 0.61603 0.0437 0.57485 0.0
H779 H 0.62707 0.06171 0.4884 0.0
O780 O 0.60264 0.07226 0.53808 0.0
O781 O 0.61307 0.06822 0.58384 0.0
O782 O 0.62723 0.08918 0.533 0.0
O783 O 0.63528 0.07789 0.54234 0.0
C784 C 0.60576 0.02267 0.58076 0.0
C785 C 0.6045 0.02363 0.62662 0.0
H786 H 0.60341 0.02891 0.71338 0.0
H787 H 0.61158 0.04898 0.74303 0.0
H788 H 0.61946 0.04283 0.44933 0.0
H789 H 0.60945 0.02427 0.49138 0.0
H790 H 0.60212 0.01411 0.5659 0.0
H791 H 0.59992 0.01579 0.64635 0.0
Mn792 Mn 0.92429 0.53376 0.58479 0.0
Mn793 Mn 0.94027 0.56283 0.60126 0.0
C794 C 0.94321 0.54423 0.55754 0.0
C795 C 0.91811 0.51462 0.60738 0.0
C796 C 0.92076 0.55164 0.53344 0.0
O797 O 0.91538 0.5366 0.63434 0.0
O798 O 0.9279 0.55569 0.64702 0.0
C799 C 0.95133 0.56289 0.68638 0.0
N800 N 0.95231 0.5664 0.64353 0.0
C801 C 0.9732 0.57784 0.64943 0.0
C802 C 0.9724 0.5745 0.69384 0.0
C803 C 0.96142 0.56694 0.71231 0.0
C804 C 0.96285 0.57353 0.62524 0.0
H805 H 0.94292 0.557 0.70054 0.0
C806 C 0.9187 0.54601 0.65631 0.0
O807 O 0.91208 0.51695 0.57958 0.0
O808 O 0.92738 0.52345 0.62363 0.0
N809 N 0.95265 0.57084 0.55962 0.0
C810 C 0.95199 0.57252 0.51552 0.0
C811 C 0.96226 0.57944 0.49153 0.0
C812 C 0.97309 0.58468 0.51317 0.0
C813 C 0.97354 0.58292 0.55864 0.0
C814 C 0.96302 0.57593 0.58083 0.0
H815 H 0.94369 0.56858 0.49872 0.0
O816 O 0.93586 0.53415 0.54103 0.0
O817 O 0.93931 0.54784 0.58966 0.0
O818 O 0.91843 0.54115 0.53928 0.0
O819 O 0.92836 0.5602 0.55624 0.0
C820 C 0.98404 0.5877 0.5827 0.0
C821 C 0.98388 0.5851 0.628 0.0
H822 H 0.98016 0.57758 0.71392 0.0
H823 H 0.96073 0.56422 0.74643 0.0
H824 H 0.96183 0.58075 0.45643 0.0
H825 H 0.981 0.58996 0.49452 0.0
H826 H 0.99231 0.59321 0.56648 0.0
H827 H 0.99203 0.58862 0.6459 0.0
Mn828 Mn 0.47286 0.3931 0.58495 0.0
Mn829 Mn 0.44356 0.37948 0.59703 0.0
C830 C 0.46246 0.4018 0.5595 0.0
C831 C 0.49183 0.40603 0.6097 0.0
C832 C 0.45541 0.37299 0.52584 0.0
O833 O 0.46988 0.38072 0.63199 0.0
O834 O 0.45039 0.37264 0.63718 0.0
C835 C 0.44297 0.38722 0.68826 0.0
N836 N 0.43982 0.3864 0.645 0.0
C837 C 0.42836 0.39551 0.65954 0.0
C838 C 0.43144 0.39641 0.70431 0.0
C839 C 0.43881 0.39229 0.71868 0.0
C840 C 0.43283 0.39044 0.63075 0.0
H841 H 0.44861 0.38403 0.69945 0.0
C842 C 0.46002 0.37329 0.6485 0.0
O843 O 0.48979 0.39807 0.58041 0.0
O844 O 0.48281 0.40602 0.62637 0.0
N845 N 0.43565 0.38512 0.56053 0.0
C846 C 0.43388 0.384 0.51602 0.0
C847 C 0.42691 0.38796 0.49615 0.0
C848 C 0.42168 0.39284 0.52231 0.0
C849 C 0.42345 0.3937 0.56814 0.0
C850 C 0.43052 0.38965 0.58607 0.0
H851 H 0.43779 0.38016 0.49581 0.0
O852 O 0.47266 0.40479 0.54357 0.0
O853 O 0.45862 0.39385 0.59011 0.0
O854 O 0.46588 0.38046 0.53644 0.0
O855 O 0.44652 0.37194 0.54646 0.0
C856 C 0.41858 0.39852 0.59671 0.0
C857 C 0.42111 0.39951 0.64232 0.0
H858 H 0.42823 0.40029 0.72789 0.0
H859 H 0.44125 0.39299 0.75315 0.0
H860 H 0.42556 0.38724 0.46076 0.0
H861 H 0.41634 0.39592 0.50685 0.0
H862 H 0.41297 0.40161 0.58387 0.0
H863 H 0.41746 0.40341 0.66383 0.0
Mn864 Mn 0.59277 0.72715 0.91754 0.0
Mn865 Mn 0.60868 0.71381 0.9303 0.0
C866 C 0.61192 0.73605 0.89263 0.0
C867 C 0.58631 0.73979 0.94157 0.0
C868 C 0.59048 0.70717 0.85856 0.0
O869 O 0.58339 0.71474 0.96448 0.0
O870 O 0.59491 0.70679 0.96986 0.0
C871 C 0.6167 0.72151 0.02187 0.0
N872 N 0.61918 0.72075 0.97874 0.0
C873 C 0.6397 0.7299 0.9943 0.0
C874 C 0.63738 0.73073 0.03894 0.0
C875 C 0.62583 0.72656 0.05273 0.0
C876 C 0.63026 0.72485 0.96503 0.0
H877 H 0.60783 0.71826 0.03262 0.0
C878 C 0.58587 0.70735 0.98098 0.0
O879 O 0.58058 0.73176 0.91232 0.0
O880 O 0.59543 0.74006 0.95859 0.0
N881 N 0.62236 0.71961 0.89443 0.0
C882 C 0.62316 0.71855 0.84997 0.0
C883 C 0.63416 0.72256 0.83065 0.0
C884 C 0.64419 0.72742 0.85731 0.0
C885 C 0.64312 0.72821 0.90309 0.0
C886 C 0.63194 0.72413 0.92044 0.0
H887 H 0.61547 0.71471 0.82939 0.0
O888 O 0.60465 0.73892 0.87635 0.0
O889 O 0.60784 0.7281 0.92327 0.0
O890 O 0.58733 0.71452 0.8692 0.0
O891 O 0.59837 0.70623 0.87927 0.0
C892 C 0.65271 0.73298 0.93215 0.0
C893 C 0.65102 0.73393 0.97766 0.0
H894 H 0.64439 0.73459 0.06287 0.0
H895 H 0.62396 0.7272 0.0871 0.0
H896 H 0.63491 0.72189 0.7953 0.0
H897 H 0.65266 0.73054 0.84228 0.0
H898 H 0.66145 0.73608 0.91977 0.0
H899 H 0.65849 0.73779 0.99955 0.0
Mn900 Mn 0.28054 0.86512 0.92081 0.0
Mn901 Mn 0.2934 0.89432 0.93334 0.0
C902 C 0.27193 0.87518 0.8911 0.0
C903 C 0.26752 0.84618 0.94554 0.0
C904 C 0.30188 0.88267 0.86817 0.0
O905 O 0.29232 0.8685 0.97091 0.0
O906 O 0.29875 0.88767 0.9806 0.0
C907 C 0.2824 0.89503 0.01756 0.0
N908 N 0.28486 0.89815 0.97434 0.0
C909 C 0.27501 0.90925 0.97742 0.0
C910 C 0.27252 0.9063 0.02216 0.0
C911 C 0.27619 0.89911 0.04225 0.0
C912 C 0.28128 0.90497 0.95456 0.0
H913 H 0.2851 0.88941 0.03297 0.0
C914 C 0.29836 0.87814 0.99166 0.0
O915 O 0.27588 0.84823 0.91813 0.0
O916 O 0.26717 0.85518 0.96035 0.0
N917 N 0.28892 0.90189 0.89007 0.0
C918 C 0.29127 0.90323 0.84594 0.0
C919 C 0.28774 0.90979 0.82049 0.0
C920 C 0.28192 0.91498 0.8407 0.0
C921 C 0.27969 0.91358 0.88622 0.0
C922 C 0.28349 0.90701 0.90996 0.0
H923 H 0.29576 0.89929 0.8302 0.0
O924 O 0.26929 0.86499 0.87606 0.0
O925 O 0.27946 0.87915 0.92313 0.0
O926 O 0.2938 0.87219 0.87509 0.0
O927 O 0.30272 0.89138 0.88954 0.0
C928 C 0.27361 0.91821 0.90879 0.0
C929 C 0.27126 0.91603 0.95434 0.0
H930 H 0.26767 0.90936 0.04124 0.0
H931 H 0.2742 0.89669 0.07664 0.0
H932 H 0.28948 0.91082 0.78535 0.0
H933 H 0.27911 0.91994 0.82089 0.0
H934 H 0.27052 0.92327 0.89126 0.0
H935 H 0.26639 0.91946 0.97115 0.0
Mn936 Mn 0.1416 0.41579 0.92197 0.0
Mn937 Mn 0.11245 0.39954 0.93602 0.0
C938 C 0.13142 0.39712 0.89249 0.0
C939 C 0.16055 0.4217 0.94643 0.0
C940 C 0.12394 0.41961 0.87044 0.0
O941 O 0.13839 0.42429 0.97203 0.0
O942 O 0.11929 0.41153 0.98328 0.0
C943 C 0.11204 0.38781 0.01983 0.0
N944 N 0.10875 0.38715 0.97683 0.0
C945 C 0.09771 0.36619 0.97984 0.0
C946 C 0.10083 0.36666 0.02438 0.0
C947 C 0.10807 0.37751 0.04439 0.0
C948 C 0.10188 0.37675 0.95711 0.0
H949 H 0.11771 0.39612 0.03516 0.0
C950 C 0.12888 0.42073 0.99353 0.0
O951 O 0.1585 0.42799 0.91889 0.0
O952 O 0.15155 0.41235 0.96133 0.0
N953 N 0.1047 0.38749 0.89285 0.0
C954 C 0.10316 0.38852 0.8489 0.0
C955 C 0.09649 0.37844 0.82355 0.0
C956 C 0.09141 0.36742 0.84368 0.0
C957 C 0.09302 0.36658 0.88902 0.0
C958 C 0.09968 0.37694 0.91268 0.0
H959 H 0.10702 0.39697 0.83322 0.0
O960 O 0.1416 0.40462 0.87722 0.0
O961 O 0.12755 0.40072 0.92476 0.0
O962 O 0.13443 0.42193 0.87656 0.0
O963 O 0.1153 0.41182 0.89241 0.0
C964 C 0.0885 0.35586 0.91148 0.0
C965 C 0.09086 0.35567 0.95684 0.0
H966 H 0.09785 0.35873 0.04336 0.0
H967 H 0.11062 0.37793 0.07862 0.0
H968 H 0.0953 0.37916 0.78855 0.0
H969 H 0.08636 0.35966 0.82393 0.0
H970 H 0.08337 0.34771 0.89399 0.0
H971 H 0.08751 0.34737 0.97355 0.0
Mn972 Mn 0.39476 0.92287 0.42125 0.0
Mn973 Mn 0.38201 0.93943 0.41213 0.0
C974 C 0.40395 0.94172 0.44931 0.0
C975 C 0.40734 0.9166 0.39462 0.0
C976 C 0.37462 0.92013 0.48009 0.0
O977 O 0.38235 0.91422 0.3734 0.0
O978 O 0.37514 0.92641 0.36899 0.0
C979 C 0.39065 0.94908 0.32296 0.0
N980 N 0.38958 0.95079 0.36668 0.0
C981 C 0.39979 0.97161 0.35716 0.0
C982 C 0.40094 0.97008 0.31196 0.0
C983 C 0.39638 0.95877 0.29483 0.0
C984 C 0.39398 0.96163 0.38355 0.0
H985 H 0.38717 0.9404 0.3097 0.0
C986 C 0.37541 0.91728 0.35667 0.0
O987 O 0.39926 0.91053 0.42337 0.0
O988 O 0.40761 0.92589 0.37949 0.0
N989 N 0.38777 0.95242 0.45169 0.0
C990 C 0.38632 0.95241 0.49628 0.0
C991 C 0.39058 0.96306 0.51872 0.0
C992 C 0.39615 0.97358 0.49506 0.0
C993 C 0.39739 0.97337 0.44912 0.0
C994 C 0.39291 0.9625 0.42851 0.0
H995 H 0.38201 0.94434 0.51462 0.0
O996 O 0.4066 0.93414 0.46388 0.0
O997 O 0.39603 0.9381 0.41861 0.0
O998 O 0.38205 0.91708 0.46946 0.0
O999 O 0.37384 0.92824 0.46032 0.0
C1000 C 0.4031 0.98353 0.42309 0.0
C1001 C 0.40432 0.98265 0.37716 0.0
H1002 H 0.40539 0.97753 0.29018 0.0
H1003 H 0.39728 0.95752 0.26003 0.0
H1004 H 0.38958 0.96315 0.55418 0.0
H1005 H 0.3995 0.98178 0.51253 0.0
H1006 H 0.40672 0.99206 0.43816 0.0
H1007 H 0.40886 0.99053 0.35758 0.0
Mn1008 Mn 0.08332 0.47123 0.42132 0.0
Mn1009 Mn 0.06767 0.44192 0.41006 0.0
C1010 C 0.06423 0.46088 0.4468 0.0
C1011 C 0.08937 0.49014 0.39584 0.0
C1012 C 0.08605 0.45392 0.48102 0.0
O1013 O 0.09272 0.46817 0.37457 0.0
O1014 O 0.0813 0.44867 0.36977 0.0
C1015 C 0.05925 0.4411 0.31878 0.0
N1016 N 0.05696 0.43805 0.36214 0.0
C1017 C 0.03638 0.42649 0.34785 0.0
C1018 C 0.03851 0.42946 0.30298 0.0
C1019 C 0.04999 0.43683 0.28844 0.0
C1020 C 0.04595 0.43106 0.37656 0.0
H1021 H 0.06806 0.44672 0.30746 0.0
C1022 C 0.09027 0.45828 0.35828 0.0
O1023 O 0.09529 0.48817 0.42536 0.0
O1024 O 0.08034 0.48108 0.37944 0.0
N1025 N 0.05414 0.43408 0.44674 0.0
C1026 C 0.05353 0.43243 0.49133 0.0
C1027 C 0.04262 0.4255 0.51138 0.0
C1028 C 0.03249 0.42016 0.48532 0.0
C1029 C 0.03336 0.42181 0.43942 0.0
C1030 C 0.04446 0.42886 0.42132 0.0
H1031 H 0.0613 0.43643 0.51146 0.0
O1032 O 0.07143 0.47111 0.46248 0.0
O1033 O 0.06834 0.45697 0.41643 0.0
O1034 O 0.08902 0.46438 0.47015 0.0
O1035 O 0.07821 0.445 0.46059 0.0
C1036 C 0.02365 0.41683 0.41094 0.0
C1037 C 0.02514 0.41925 0.36524 0.0
H1038 H 0.0314 0.42617 0.27946 0.0
H1039 H 0.05171 0.43919 0.25389 0.0
H1040 H 0.04202 0.42425 0.54682 0.0
H1041 H 0.02408 0.41485 0.50091 0.0
H1042 H 0.01497 0.41124 0.42392 0.0
H1043 H 0.01758 0.41552 0.3438 0.0
Mn1044 Mn 0.53458 0.61364 0.41757 0.0
Mn1045 Mn 0.56367 0.62607 0.40292 0.0
C1046 C 0.54451 0.60487 0.44683 0.0
C1047 C 0.5155 0.60093 0.39373 0.0
C1048 C 0.55259 0.63498 0.46887 0.0
O1049 O 0.53791 0.62535 0.36746 0.0
O1050 O 0.55695 0.63145 0.35597 0.0
C1051 C 0.5637 0.61466 0.31883 0.0
N1052 N 0.56707 0.61722 0.3618 0.0
C1053 C 0.57776 0.60695 0.35822 0.0
C1054 C 0.57455 0.60436 0.31372 0.0
C1055 C 0.56745 0.60819 0.29401 0.0
C1056 C 0.57381 0.61348 0.38122 0.0
H1057 H 0.55815 0.61748 0.30372 0.0
C1058 C 0.54743 0.63121 0.34588 0.0
O1059 O 0.51782 0.60937 0.42111 0.0
O1060 O 0.52431 0.60027 0.37862 0.0
N1061 N 0.57131 0.62154 0.44573 0.0
C1062 C 0.57298 0.62411 0.48966 0.0
C1063 C 0.57954 0.62051 0.51471 0.0
C1064 C 0.5844 0.61439 0.4943 0.0
C1065 C 0.58266 0.61195 0.44897 0.0
C1066 C 0.57612 0.61584 0.42562 0.0
H1067 H 0.5693 0.62883 0.50556 0.0
O1068 O 0.53441 0.6024 0.46235 0.0
O1069 O 0.54845 0.6123 0.41443 0.0
O1070 O 0.54204 0.62697 0.46275 0.0
O1071 O 0.56115 0.63566 0.44681 0.0
C1072 C 0.58696 0.6056 0.42624 0.0
C1073 C 0.58449 0.60308 0.38091 0.0
H1074 H 0.57736 0.5993 0.29453 0.0
H1075 H 0.56484 0.60612 0.25981 0.0
H1076 H 0.58083 0.62241 0.5497 0.0
H1077 H 0.58936 0.61153 0.51381 0.0
H1078 H 0.59199 0.60242 0.44348 0.0
H1079 H 0.58766 0.59801 0.36398 0.0
Mn1080 Mn 0.0838 0.61114 0.41678 0.0
Mn1081 Mn 0.0673 0.62394 0.407 0.0
C1082 C 0.06506 0.6022 0.44599 0.0
C1083 C 0.08988 0.59834 0.39091 0.0
C1084 C 0.08707 0.63182 0.47324 0.0
O1085 O 0.09226 0.62326 0.36771 0.0
O1086 O 0.07988 0.63021 0.36209 0.0
C1087 C 0.05673 0.61445 0.3197 0.0
N1088 N 0.05548 0.616 0.36341 0.0
C1089 C 0.03458 0.60601 0.35675 0.0
C1090 C 0.03564 0.60436 0.31159 0.0
C1091 C 0.04676 0.60857 0.29303 0.0
C1092 C 0.04482 0.61195 0.38165 0.0
H1093 H 0.06526 0.61767 0.30534 0.0
C1094 C 0.08898 0.6299 0.34973 0.0
O1095 O 0.0961 0.60657 0.41887 0.0
O1096 O 0.08054 0.59802 0.37607 0.0
N1097 N 0.05472 0.61868 0.4483 0.0
C1098 C 0.05519 0.6205 0.49276 0.0
C1099 C 0.04479 0.6166 0.51658 0.0
C1100 C 0.03403 0.61098 0.49442 0.0
C1101 C 0.03378 0.60932 0.44859 0.0
C1102 C 0.04443 0.61347 0.42656 0.0
H1103 H 0.06343 0.62487 0.50995 0.0
O1104 O 0.07266 0.59957 0.46059 0.0
O1105 O 0.06861 0.60994 0.41469 0.0
O1106 O 0.08987 0.62413 0.46386 0.0
O1107 O 0.07897 0.63257 0.45328 0.0
C1108 C 0.02336 0.60352 0.42404 0.0
C1109 C 0.02376 0.60184 0.37817 0.0
H1110 H 0.02797 0.5998 0.29093 0.0
H1111 H 0.04764 0.60728 0.25824 0.0
H1112 H 0.04506 0.61791 0.55195 0.0
H1113 H 0.02603 0.6079 0.51295 0.0
H1114 H 0.01499 0.60015 0.44023 0.0
H1115 H 0.01569 0.59721 0.35977 0.0
Mn1116 Mn 0.39497 0.47474 0.41701 0.0
Mn1117 Mn 0.38206 0.44551 0.40519 0.0
C1118 C 0.40359 0.46474 0.44691 0.0
C1119 C 0.40778 0.4937 0.39222 0.0
C1120 C 0.37373 0.45727 0.47027 0.0
O1121 O 0.38316 0.47129 0.36711 0.0
O1122 O 0.37661 0.45208 0.35795 0.0
C1123 C 0.39295 0.44475 0.32075 0.0
N1124 N 0.39057 0.44167 0.36403 0.0
C1125 C 0.40052 0.43067 0.36088 0.0
C1126 C 0.40293 0.43358 0.31607 0.0
C1127 C 0.39917 0.44069 0.29599 0.0
C1128 C 0.39424 0.43492 0.38381 0.0
H1129 H 0.39019 0.45031 0.30534 0.0
C1130 C 0.37704 0.46162 0.34671 0.0
O1131 O 0.39938 0.49152 0.4196 0.0
O1132 O 0.40833 0.48479 0.37748 0.0
N1133 N 0.38664 0.438 0.4484 0.0
C1134 C 0.38428 0.43664 0.49254 0.0
C1135 C 0.38785 0.4301 0.51792 0.0
C1136 C 0.3937 0.42495 0.49765 0.0
C1137 C 0.39593 0.42638 0.45213 0.0
C1138 C 0.39209 0.43291 0.42845 0.0
H1139 H 0.37976 0.44055 0.50832 0.0
O1140 O 0.40625 0.47496 0.46173 0.0
O1141 O 0.39605 0.46071 0.41491 0.0
O1142 O 0.38179 0.46771 0.46272 0.0
O1143 O 0.37279 0.44847 0.44925 0.0
C1144 C 0.40202 0.42177 0.4295 0.0
C1145 C 0.40434 0.42394 0.38392 0.0
H1146 H 0.40778 0.43053 0.29692 0.0
H1147 H 0.4011 0.44307 0.26154 0.0
H1148 H 0.38611 0.42905 0.55305 0.0
H1149 H 0.39652 0.41999 0.51741 0.0
H1150 H 0.40515 0.41674 0.44699 0.0
H1151 H 0.40922 0.42053 0.36705 0.0
Mn1152 Mn 0.5345 0.92342 0.41993 0.0
Mn1153 Mn 0.56379 0.93909 0.40771 0.0
C1154 C 0.54489 0.94254 0.4451 0.0
C1155 C 0.51553 0.91729 0.39504 0.0
C1156 C 0.55196 0.92081 0.47913 0.0
O1157 O 0.53748 0.91398 0.37314 0.0
O1158 O 0.55696 0.9254 0.36765 0.0
C1159 C 0.56435 0.94739 0.31642 0.0
N1160 N 0.56751 0.94973 0.35967 0.0
C1161 C 0.57891 0.97031 0.34501 0.0
C1162 C 0.57583 0.96812 0.30026 0.0
C1163 C 0.56848 0.95661 0.28595 0.0
C1164 C 0.57447 0.96078 0.37387 0.0
H1165 H 0.55873 0.93855 0.30528 0.0
C1166 C 0.54733 0.91641 0.35652 0.0
O1167 O 0.51759 0.91143 0.42454 0.0
O1168 O 0.52454 0.92632 0.37834 0.0
N1169 N 0.5717 0.95267 0.44412 0.0
C1170 C 0.57351 0.95333 0.48861 0.0
C1171 C 0.58047 0.96427 0.50841 0.0
C1172 C 0.58566 0.97437 0.4822 0.0
C1173 C 0.58386 0.97344 0.43638 0.0
C1174 C 0.5768 0.96232 0.41853 0.0
H1175 H 0.56962 0.94558 0.50887 0.0
O1176 O 0.53469 0.93535 0.46106 0.0
O1177 O 0.54873 0.9384 0.4146 0.0
O1178 O 0.54149 0.91782 0.46857 0.0
O1179 O 0.56084 0.92862 0.45838 0.0
C1180 C 0.5887 0.98313 0.40776 0.0
C1181 C 0.58615 0.98158 0.36217 0.0
H1182 H 0.57902 0.9752 0.27664 0.0
H1183 H 0.56603 0.95485 0.25149 0.0
H1184 H 0.58185 0.96491 0.54378 0.0
H1185 H 0.59099 0.9828 0.4976 0.0
H1186 H 0.59429 0.99183 0.42056 0.0
H1187 H 0.58977 0.98912 0.34062 0.0
Mn1188 Mn 0.28133 0.41607 0.91675 0.0
Mn1189 Mn 0.29521 0.40057 0.9254 0.0
C1190 C 0.27269 0.39713 0.88982 0.0
C1191 C 0.26847 0.42194 0.94352 0.0
C1192 C 0.30146 0.4194 0.85652 0.0
O1193 O 0.29383 0.42526 0.96366 0.0
O1194 O 0.3019 0.41382 0.96749 0.0
C1195 C 0.28746 0.39126 0.01562 0.0
N1196 N 0.28831 0.3894 0.97187 0.0
C1197 C 0.27919 0.36868 0.98316 0.0
C1198 C 0.27826 0.37038 0.02839 0.0
C1199 C 0.28237 0.38171 0.04465 0.0
C1200 C 0.28429 0.37853 0.95582 0.0
H1201 H 0.29064 0.39996 0.02824 0.0
C1202 C 0.30122 0.42271 0.97977 0.0
O1203 O 0.27634 0.42801 0.91416 0.0
O1204 O 0.26852 0.41283 0.95909 0.0
N1205 N 0.28965 0.38741 0.88681 0.0
C1206 C 0.29079 0.38723 0.84211 0.0
C1207 C 0.28684 0.37653 0.82046 0.0
C1208 C 0.28194 0.36614 0.84504 0.0
C1209 C 0.28105 0.36656 0.89108 0.0
C1210 C 0.2851 0.37748 0.91082 0.0
H1211 H 0.29462 0.3952 0.82309 0.0
O1212 O 0.26955 0.40433 0.87513 0.0
O1213 O 0.28076 0.40116 0.92001 0.0
O1214 O 0.29378 0.42206 0.86778 0.0
O1215 O 0.30277 0.41161 0.87618 0.0
C1216 C 0.27619 0.35657 0.91812 0.0
C1217 C 0.27518 0.35762 0.96409 0.0
H1218 H 0.27436 0.36304 0.05089 0.0
H1219 H 0.28166 0.38308 0.07948 0.0
H1220 H 0.28758 0.37628 0.78492 0.0
H1221 H 0.27886 0.3579 0.82821 0.0
H1222 H 0.27307 0.34802 0.90383 0.0
H1223 H 0.27125 0.34985 0.98442 0.0
Mn1224 Mn 0.59044 0.86578 0.92048 0.0
Mn1225 Mn 0.60625 0.89488 0.93635 0.0
C1226 C 0.60924 0.87638 0.89212 0.0
C1227 C 0.58462 0.84672 0.94326 0.0
C1228 C 0.58647 0.88345 0.86967 0.0
O1229 O 0.58164 0.86857 0.97066 0.0
O1230 O 0.5941 0.8877 0.98286 0.0
C1231 C 0.61775 0.89516 0.02062 0.0
N1232 N 0.61851 0.89862 0.9778 0.0
C1233 C 0.63941 0.91025 0.98238 0.0
C1234 C 0.63884 0.90697 0.02677 0.0
C1235 C 0.62797 0.89934 0.04588 0.0
C1236 C 0.62894 0.90581 0.95887 0.0
H1237 H 0.60943 0.88922 0.03527 0.0
C1238 C 0.58498 0.87799 0.99258 0.0
O1239 O 0.57839 0.84889 0.91591 0.0
O1240 O 0.59388 0.85566 0.95903 0.0
N1241 N 0.61842 0.90293 0.89395 0.0
C1242 C 0.61753 0.90454 0.84994 0.0
C1243 C 0.62768 0.91151 0.82533 0.0
C1244 C 0.6386 0.91687 0.84628 0.0
C1245 C 0.63928 0.91519 0.89168 0.0
C1246 C 0.62888 0.90814 0.9145 0.0
H1247 H 0.60916 0.9005 0.83368 0.0
O1248 O 0.6019 0.86625 0.87596 0.0
O1249 O 0.6054 0.87995 0.92454 0.0
O1250 O 0.58427 0.873 0.8754 0.0
O1251 O 0.5941 0.89206 0.89217 0.0
C1252 C 0.64989 0.9201 0.91505 0.0
C1253 C 0.64996 0.91757 0.96031 0.0
H1254 H 0.6467 0.91014 0.04632 0.0
H1255 H 0.62746 0.89667 0.07998 0.0
H1256 H 0.62708 0.91276 0.79029 0.0
H1257 H 0.64641 0.9222 0.82715 0.0
H1258 H 0.65807 0.92565 0.89833 0.0
H1259 H 0.6582 0.92119 0.97767 0.0
Mn1260 Mn 0.14034 0.72539 0.91661 0.0
Mn1261 Mn 0.1111 0.712 0.92893 0.0
C1262 C 0.12998 0.73395 0.88894 0.0
C1263 C 0.15926 0.73844 0.94156 0.0
C1264 C 0.12303 0.70442 0.86153 0.0
O1265 O 0.1372 0.71335 0.96551 0.0
O1266 O 0.1179 0.7063 0.97417 0.0
C1267 C 0.11012 0.7218 0.0157 0.0
N1268 N 0.10709 0.71989 0.97224 0.0
C1269 C 0.09544 0.72909 0.97898 0.0
C1270 C 0.09832 0.73103 0.02395 0.0
C1271 C 0.10575 0.72743 0.04232 0.0
C1272 C 0.10007 0.72346 0.95409 0.0
H1273 H 0.11586 0.71908 0.02989 0.0
C1274 C 0.12751 0.70688 0.98534 0.0
O1275 O 0.15728 0.73029 0.91321 0.0
O1276 O 0.15021 0.73858 0.95709 0.0
N1277 N 0.1034 0.71681 0.88756 0.0
C1278 C 0.1021 0.71498 0.8431 0.0
C1279 C 0.09531 0.71853 0.81929 0.0
C1280 C 0.08981 0.72378 0.84148 0.0
C1281 C 0.09117 0.72545 0.88731 0.0
C1282 C 0.09807 0.72177 0.90927 0.0
H1283 H 0.10624 0.71087 0.82589 0.0
O1284 O 0.14019 0.73683 0.8734 0.0
O1285 O 0.12615 0.72619 0.92019 0.0
O1286 O 0.13347 0.71243 0.86962 0.0
O1287 O 0.11422 0.70335 0.88286 0.0
C1288 C 0.08608 0.73077 0.91198 0.0
C1289 C 0.08827 0.73266 0.95773 0.0
H1290 H 0.09498 0.73538 0.04458 0.0
H1291 H 0.10809 0.72898 0.07692 0.0
H1292 H 0.09431 0.71721 0.78391 0.0
H1293 H 0.08462 0.72656 0.82298 0.0
H1294 H 0.08063 0.73363 0.89594 0.0
H1295 H 0.0845 0.73698 0.97615 0.0
C1296 C 0.2075 0.97558 0.63308 0.0
C1297 C 0.2149 0.97085 0.6371 0.0
C1298 C 0.20847 0.98257 0.59644 0.0
C1299 C 0.2184 0.98815 0.48137 0.0
H1300 H 0.22787 0.02069 0.49923 0.0
C1301 C 0.24722 0.02284 0.35743 0.0
C1302 C 0.24557 0.03228 0.3474 0.0
C1303 C 0.24077 0.01491 0.39055 0.0
C1304 C 0.22497 0.01157 0.49352 0.0
H1305 H 0.22885 0.96951 0.60516 0.0
H1306 H 0.23021 0.9812 0.54141 0.0
H1307 H 0.22098 0.00718 0.56221 0.0
H1308 H 0.23566 0.0407 0.36468 0.0
H1309 H 0.22433 0.02674 0.42347 0.0
H1310 H 0.22271 0.99247 0.41332 0.0
C1311 C 0.22377 0.97966 0.56654 0.0
C1312 C 0.22103 0.00385 0.52958 0.0
C1313 C 0.223 0.97297 0.60327 0.0
C1314 C 0.23713 0.03351 0.37142 0.0
C1315 C 0.23069 0.02555 0.40519 0.0
C1316 C 0.22223 0.9958 0.44548 0.0
C1317 C 0.21661 0.98463 0.56279 0.0
C1318 C 0.21816 0.99217 0.52405 0.0
C1319 C 0.23243 0.01613 0.41499 0.0
C1320 C 0.22606 0.00771 0.45139 0.0
H1321 H 0.20123 0.97417 0.65875 0.0
H1322 H 0.20286 0.98633 0.59432 0.0
H1323 H 0.21611 0.97916 0.4761 0.0
H1324 H 0.25358 0.02153 0.33975 0.0
H1325 H 0.24253 0.00792 0.39766 0.0
C1326 C 0.02166 0.24239 0.64711 0.0
C1327 C 0.03165 0.24153 0.65536 0.0
C1328 C 0.01383 0.23586 0.61387 0.0
C1329 C 0.01156 0.22145 0.50809 0.0
H1330 H 0.97878 0.21107 0.52529 0.0
C1331 C 0.97574 0.20359 0.36794 0.0
C1332 C 0.97073 0.21075 0.36437 0.0
C1333 C 0.98276 0.20462 0.40452 0.0
C1334 C 0.98788 0.21378 0.52008 0.0
H1335 H 0.0411 0.23285 0.63512 0.0
H1336 H 0.02728 0.22134 0.57621 0.0
H1337 H 0.9919 0.21748 0.58863 0.0
H1338 H 0.96892 0.22435 0.39699 0.0
H1339 H 0.98066 0.22578 0.46084 0.0
H1340 H 0.00743 0.218 0.43901 0.0
C1341 C 0.02561 0.22717 0.59588 0.0
C1342 C 0.99542 0.21753 0.55628 0.0
C1343 C 0.03348 0.23371 0.62974 0.0
C1344 C 0.97261 0.21868 0.39858 0.0
C1345 C 0.97932 0.2195 0.43531 0.0
C1346 C 1.00394 0.21758 0.47175 0.0
C1347 C 0.01569 0.2282 0.58756 0.0
C1348 C 0.00745 0.22191 0.55055 0.0
C1349 C 0.98456 0.21258 0.43858 0.0
C1350 C 0.99212 0.21415 0.47727 0.0
H1351 H 0.01989 0.24826 0.66612 0.0
H1352 H 0.00646 0.23709 0.608 0.0
H1353 H 0.02077 0.2248 0.50245 0.0
H1354 H 0.97451 0.19745 0.34195 0.0
H1355 H 0.98673 0.1992 0.4063 0.0
C1356 C 0.78178 0.75907 0.36299 0.0
C1357 C 0.793 0.76136 0.35107 0.0
C1358 C 0.7802 0.76541 0.39624 0.0
C1359 C 0.79311 0.78249 0.49646 0.0
H1360 H 0.76823 0.78956 0.48058 0.0
C1361 C 0.77505 0.80059 0.6353 0.0
C1362 C 0.76298 0.79315 0.64127 0.0
C1363 C 0.78076 0.79922 0.59853 0.0
C1364 C 0.77528 0.78775 0.48543 0.0
H1365 H 0.81142 0.77225 0.36542 0.0
H1366 H 0.80861 0.78341 0.42443 0.0
H1367 H 0.7748 0.7828 0.41793 0.0
H1368 H 0.74748 0.77863 0.61264 0.0
H1369 H 0.7573 0.77653 0.54869 0.0
H1370 H 0.79325 0.78717 0.56465 0.0
C1371 C 0.80105 0.77662 0.40748 0.0
C1372 C 0.77902 0.78383 0.44961 0.0
C1373 C 0.80266 0.77027 0.3736 0.0
C1374 C 0.75676 0.78453 0.60927 0.0
C1375 C 0.76238 0.78334 0.57241 0.0
C1376 C 0.7894 0.78652 0.53246 0.0
C1377 C 0.78977 0.77429 0.41894 0.0
C1378 C 0.78763 0.78067 0.45502 0.0
C1379 C 0.77444 0.79059 0.56665 0.0
C1380 C 0.78013 0.78875 0.52757 0.0
H1381 H 0.77408 0.7523 0.34665 0.0
H1382 H 0.77138 0.76318 0.40471 0.0
H1383 H 0.79975 0.78012 0.50177 0.0
H1384 H 0.78009 0.80726 0.65949 0.0
H1385 H 0.79008 0.80492 0.59485 0.0
C1386 C 0.77157 0.97159 0.62936 0.0
C1387 C 0.76301 0.97268 0.65304 0.0
C1388 C 0.77798 0.97956 0.59558 0.0
C1389 C 0.78605 0.00917 0.55482 0.0
H1390 H 0.78761 0.99783 0.43835 0.0
C1391 C 0.78499 0.03165 0.39661 0.0
C1392 C 0.79322 0.03396 0.36309 0.0
C1393 C 0.78427 0.025 0.43337 0.0
C1394 C 0.78747 1.00115 0.47091 0.0
H1395 H 0.75471 0.98319 0.66005 0.0
H1396 H 0.7657 0.99682 0.60211 0.0
H1397 H 0.78083 0.98435 0.50145 0.0
H1398 H 0.80715 0.03099 0.342 0.0
H1399 H 0.80562 0.01888 0.40648 0.0
H1400 H 0.79197 0.02574 0.52401 0.0
C1401 C 0.76759 0.98993 0.60952 0.0
C1402 C 0.7836 0.99345 0.50703 0.0
C1403 C 0.76118 0.982 0.64264 0.0
C1404 C 0.80078 0.02943 0.36742 0.0
C1405 C 0.79987 0.02247 0.40408 0.0
C1406 C 0.78982 0.01679 0.51888 0.0
C1407 C 0.77607 0.98885 0.58543 0.0
C1408 C 0.7824 0.99729 0.54906 0.0
C1409 C 0.79162 0.02025 0.43745 0.0
C1410 C 0.79017 0.01278 0.47629 0.0
H1411 H 0.77319 0.96451 0.6364 0.0
H1412 H 0.78445 0.97849 0.57757 0.0
H1413 H 0.78549 0.01247 0.58691 0.0
H1414 H 0.77901 0.03496 0.39448 0.0
H1415 H 0.77775 0.02332 0.45829 0.0
C1416 C 0.03485 0.78461 0.61038 0.0
C1417 C 0.03745 0.79332 0.6422 0.0
C1418 C 0.02804 0.7835 0.57359 0.0
C1419 C 0.00452 0.78721 0.53352 0.0
H1420 H 0.01505 0.78292 0.41919 0.0
C1421 C 0.97495 0.77132 0.37453 0.0
C1422 C 0.97544 0.76224 0.35224 0.0
C1423 C 0.98295 0.77756 0.40849 0.0
C1424 C 0.01196 0.78412 0.45081 0.0
H1425 H 0.03482 0.80768 0.66015 0.0
H1426 H 0.02251 0.80549 0.5956 0.0
H1427 H 0.02844 0.78957 0.48167 0.0
H1428 H 0.98485 0.75272 0.34851 0.0
H1429 H 0.9985 0.7634 0.40668 0.0
H1430 H 0.9878 0.7811 0.50293 0.0
C1431 C 0.02595 0.79965 0.59939 0.0
C1432 C 0.01966 0.78797 0.48654 0.0
C1433 C 0.03304 0.80094 0.6361 0.0
C1434 C 0.98413 0.75963 0.36461 0.0
C1435 C 0.99209 0.76586 0.39793 0.0
C1436 C 0.99674 0.78325 0.49761 0.0
C1437 C 0.02345 0.79093 0.56769 0.0
C1438 C 0.01592 0.78917 0.52863 0.0
C1439 C 0.99167 0.77493 0.42029 0.0
C1440 C 1.00027 0.78123 0.45625 0.0
H1441 H 0.03806 0.77858 0.61384 0.0
H1442 H 0.02616 0.77662 0.55003 0.0
H1443 H 1.0014 0.78802 0.56567 0.0
H1444 H 0.96836 0.77355 0.36602 0.0
H1445 H 0.98239 0.78449 0.42518 0.0
C1446 C 0.2505 0.21435 0.40398 0.0
C1447 C 0.24464 0.21041 0.36357 0.0
C1448 C 0.24519 0.2165 0.43967 0.0
C1449 C 0.2178 0.21275 0.48726 0.0
H1450 H 0.23913 0.24258 0.5406 0.0
C1451 C 0.2055 0.23681 0.62326 0.0
C1452 C 0.21403 0.24255 0.65607 0.0
C1453 C 0.2077 0.23142 0.58735 0.0
C1454 C 0.23306 0.23417 0.52648 0.0
H1455 H 0.22839 0.20502 0.32928 0.0
H1456 H 0.21901 0.20891 0.39217 0.0
H1457 H 0.2456 0.23556 0.47904 0.0
H1458 H 0.23106 0.24627 0.67892 0.0
H1459 H 0.23474 0.23677 0.61765 0.0
H1460 H 0.20525 0.21147 0.53548 0.0
C1461 C 0.2277 0.21021 0.39621 0.0
C1462 C 0.23679 0.23014 0.4911 0.0
C1463 C 0.23304 0.20796 0.36031 0.0
C1464 C 0.2244 0.24213 0.65378 0.0
C1465 C 0.22654 0.23672 0.61847 0.0
C1466 C 0.21404 0.21681 0.52309 0.0
C1467 C 0.23392 0.21494 0.43575 0.0
C1468 C 0.22933 0.21927 0.4716 0.0
C1469 C 0.21843 0.23166 0.58394 0.0
C1470 C 0.22175 0.22747 0.54372 0.0
H1471 H 0.25938 0.21619 0.4076 0.0
H1472 H 0.25011 0.21983 0.46998 0.0
H1473 H 0.21182 0.20437 0.47275 0.0
H1474 H 0.19742 0.237 0.62417 0.0
H1475 H 0.20126 0.22757 0.56133 0.0
C1476 C 0.91839 0.36776 0.73273 0.0
C1477 C 0.91228 0.36953 0.69844 0.0
C1478 C 0.91254 0.36105 0.76952 0.0
C1479 C 0.88605 0.3363 0.80602 0.0
H1480 H 0.89811 0.34832 0.92281 0.0
C1481 C 0.87279 0.30675 0.96395 0.0
C1482 C 0.88245 0.30857 0.98943 0.0
C1483 C 0.8741 0.31463 0.93014 0.0
C1484 C 0.8946 0.3448 0.89049 0.0
H1485 H 0.89514 0.36555 0.67598 0.0
H1486 H 0.88476 0.35333 0.74044 0.0
H1487 H 0.90475 0.36146 0.85951 0.0
H1488 H 0.90097 0.32031 0.99998 0.0
H1489 H 0.90319 0.33376 0.94194 0.0
H1490 H 0.87648 0.31946 0.83671 0.0
C1491 C 0.89416 0.35739 0.73867 0.0
C1492 C 0.89836 0.35236 0.85431 0.0
C1493 C 0.90009 0.36441 0.70202 0.0
C1494 C 0.89331 0.31855 0.98108 0.0
C1495 C 0.89458 0.32638 0.94789 0.0
C1496 C 0.88235 0.32867 0.84235 0.0
C1497 C 0.90037 0.35569 0.77279 0.0
C1498 C 0.89445 0.34813 0.81152 0.0
C1499 C 0.88505 0.32454 0.92172 0.0
C1500 C 0.88695 0.33278 0.88476 0.0
H1501 H 0.92776 0.37154 0.73114 0.0
H1502 H 0.91754 0.35979 0.79507 0.0
H1503 H 0.88294 0.33281 0.7733 0.0
H1504 H 0.86431 0.29914 0.96941 0.0
H1505 H 0.86657 0.31296 0.91059 0.0
C1506 C 0.63945 0.53616 0.7107 0.0
C1507 C 0.64172 0.54573 0.68377 0.0
C1508 C 0.64724 0.53737 0.74471 0.0
C1509 C 0.67774 0.55718 0.78339 0.0
H1510 H 0.66544 0.54705 0.90143 0.0
C1511 C 0.70065 0.58216 0.93933 0.0
C1512 C 0.70243 0.5763 0.97452 0.0
C1513 C 0.69391 0.57605 0.90294 0.0
C1514 C 0.669 0.54971 0.86851 0.0
H1515 H 0.65419 0.56393 0.67059 0.0
H1516 H 0.66751 0.566 0.72895 0.0
H1517 H 0.65214 0.54042 0.83789 0.0
H1518 H 0.69845 0.55933 0.99906 0.0
H1519 H 0.68617 0.54848 0.9353 0.0
H1520 H 0.69445 0.56711 0.81425 0.0
C1521 C 0.65983 0.55753 0.72407 0.0
C1522 C 0.6614 0.54591 0.8321 0.0
C1523 C 0.65208 0.55636 0.6907 0.0
C1524 C 0.69731 0.56409 0.97228 0.0
C1525 C 0.69025 0.55789 0.93604 0.0
C1526 C 0.68527 0.56104 0.81965 0.0
C1527 C 0.65752 0.54812 0.75186 0.0
C1528 C 0.66564 0.54999 0.78927 0.0
C1529 C 0.68854 0.56386 0.90102 0.0
C1530 C 0.68094 0.55768 0.86269 0.0
H1531 H 0.63153 0.52786 0.70635 0.0
H1532 H 0.64521 0.52993 0.7655 0.0
H1533 H 0.68136 0.56027 0.75081 0.0
H1534 H 0.70442 0.59154 0.93991 0.0
H1535 H 0.69265 0.58086 0.87663 0.0
C1536 C 0.45058 0.09684 0.6899 0.0
C1537 C 0.46141 0.09762 0.68178 0.0
C1538 C 0.44933 0.10342 0.72305 0.0
C1539 C 0.46141 0.11772 0.82895 0.0
H1540 H 0.43933 0.12848 0.81116 0.0
C1541 C 0.44322 0.13534 0.96914 0.0
C1542 C 0.43103 0.12819 0.97198 0.0
C1543 C 0.44933 0.13445 0.93265 0.0
C1544 C 0.44563 0.12567 0.81654 0.0
H1545 H 0.47951 0.10619 0.70217 0.0
H1546 H 0.47729 0.11778 0.76097 0.0
H1547 H 0.44605 0.12202 0.74798 0.0
H1548 H 0.41572 0.11479 0.93815 0.0
H1549 H 0.42623 0.11362 0.87454 0.0
H1550 H 0.46062 0.12109 0.89805 0.0
C1551 C 0.46977 0.11198 0.74124 0.0
C1552 C 0.44944 0.1219 0.78043 0.0
C1553 C 0.47106 0.1054 0.70744 0.0
C1554 C 0.42509 0.12045 0.93712 0.0
C1555 C 0.43111 0.11978 0.90052 0.0
C1556 C 0.45766 0.12161 0.86522 0.0
C1557 C 0.45886 0.11104 0.74943 0.0
C1558 C 0.45696 0.11738 0.78637 0.0
C1559 C 0.44328 0.12666 0.89799 0.0
C1560 C 0.44937 0.12518 0.85948 0.0
H1561 H 0.44293 0.091 0.67083 0.0
H1562 H 0.44075 0.10227 0.72881 0.0
H1563 H 0.46718 0.11427 0.83475 0.0
H1564 H 0.44804 0.14132 0.99564 0.0
H1565 H 0.45873 0.13983 0.93146 0.0
C1566 C 0.44837 0.35481 0.69064 0.0
C1567 C 0.45924 0.3648 0.68252 0.0
C1568 C 0.44703 0.34699 0.72399 0.0
C1569 C 0.45904 0.34473 0.83016 0.0
H1570 H 0.43662 0.31194 0.81293 0.0
C1571 C 0.44097 0.30882 0.97022 0.0
C1572 C 0.42879 0.3038 0.97367 0.0
C1573 C 0.44698 0.31588 0.93375 0.0
C1574 C 0.44301 0.32104 0.81816 0.0
H1575 H 0.47733 0.37425 0.7031 0.0
H1576 H 0.47495 0.36044 0.76219 0.0
H1577 H 0.4434 0.32506 0.74958 0.0
H1578 H 0.41341 0.30204 0.94093 0.0
H1579 H 0.42377 0.31385 0.87729 0.0
H1580 H 0.45832 0.3406 0.89928 0.0
C1581 C 0.46747 0.35876 0.74235 0.0
C1582 C 0.44685 0.32859 0.78194 0.0
C1583 C 0.46885 0.36663 0.70837 0.0
C1584 C 0.42277 0.30573 0.93945 0.0
C1585 C 0.4287 0.31249 0.90283 0.0
C1586 C 0.45526 0.33711 0.86653 0.0
C1587 C 0.4565 0.34885 0.75055 0.0
C1588 C 0.45451 0.34062 0.78766 0.0
C1589 C 0.44086 0.31772 0.89967 0.0
C1590 C 0.44686 0.32528 0.86099 0.0
H1591 H 0.44075 0.35303 0.67145 0.0
H1592 H 0.43841 0.33961 0.72974 0.0
H1593 H 0.46491 0.35393 0.83581 0.0
H1594 H 0.44586 0.30757 0.9962 0.0
H1595 H 0.45638 0.31985 0.93205 0.0
C1596 C 0.6993 0.13496 0.96545 0.0
C1597 C 0.70393 0.1275 0.97069 0.0
C1598 C 0.69226 0.13376 0.92871 0.0
C1599 C 0.68636 0.12284 0.81483 0.0
H1600 H 0.65412 0.11462 0.83196 0.0
C1601 C 0.65126 0.09414 0.69202 0.0
C1602 C 0.64216 0.09624 0.68085 0.0
C1603 C 0.6592 0.1005 0.7252 0.0
C1604 C 0.66317 0.11716 0.82644 0.0
H1605 H 0.705 0.11317 0.94079 0.0
H1606 H 0.69319 0.11139 0.87688 0.0
H1607 H 0.66769 0.12161 0.89479 0.0
H1608 H 0.63437 0.10683 0.69635 0.0
H1609 H 0.64837 0.11802 0.75524 0.0
H1610 H 0.6819 0.1181 0.74716 0.0
C1611 C 0.69486 0.11807 0.90114 0.0
C1612 C 0.67092 0.12115 0.86241 0.0
C1613 C 0.70161 0.11908 0.93797 0.0
C1614 C 0.64128 0.105 0.70397 0.0
C1615 C 0.64926 0.11137 0.73778 0.0
C1616 C 0.67869 0.11895 0.77904 0.0
C1617 C 0.69002 0.12531 0.89614 0.0
C1618 C 0.68248 0.12359 0.85721 0.0
C1619 C 0.65836 0.10921 0.74857 0.0
C1620 C 0.66687 0.11558 0.78471 0.0
H1621 H 0.70086 0.14148 0.99023 0.0
H1622 H 0.68861 0.13945 0.92562 0.0
H1623 H 0.69526 0.1248 0.80977 0.0
H1624 H 0.65229 0.0875 0.67515 0.0
H1625 H 0.66592 0.09841 0.73312 0.0
C1626 C 0.91782 0.55384 0.73021 0.0
C1627 C 0.91196 0.54598 0.69557 0.0
C1628 C 0.91173 0.55445 0.76671 0.0
C1629 C 0.88513 0.55232 0.80224 0.0
H1630 H 0.89652 0.55151 0.91948 0.0
C1631 C 0.87148 0.56811 0.9604 0.0
C1632 C 0.88109 0.5758 0.98644 0.0
C1633 C 0.87281 0.56159 0.92646 0.0
C1634 C 0.89319 0.55175 0.88704 0.0
H1635 H 0.89502 0.53261 0.67213 0.0
H1636 H 0.88422 0.53401 0.73608 0.0
H1637 H 0.90339 0.54531 0.856 0.0
H1638 H 0.89952 0.58229 0.99801 0.0
H1639 H 0.90178 0.57114 0.93977 0.0
H1640 H 0.87555 0.55955 0.83302 0.0
C1641 C 0.89361 0.53952 0.73481 0.0
C1642 C 0.89708 0.54812 0.85076 0.0
C1643 C 0.89978 0.53869 0.69845 0.0
C1644 C 0.89191 0.57653 0.97862 0.0
C1645 C 0.89319 0.57 0.94532 0.0
C1646 C 0.88131 0.55609 0.83867 0.0
C1647 C 0.89958 0.5474 0.76931 0.0
C1648 C 0.89342 0.54876 0.80785 0.0
C1649 C 0.88372 0.56251 0.9185 0.0
C1650 C 0.88568 0.55628 0.88129 0.0
H1651 H 0.92717 0.5596 0.72917 0.0
H1652 H 0.91654 0.56068 0.79261 0.0
H1653 H 0.88223 0.55296 0.76942 0.0
H1654 H 0.86304 0.56737 0.96545 0.0
H1655 H 0.86533 0.55588 0.9064 0.0
C1656 C 0.55571 0.63993 0.27234 0.0
C1657 C 0.5477 0.63799 0.30634 0.0
C1658 C 0.55654 0.64664 0.23556 0.0
C1659 C 0.5544 0.67111 0.19857 0.0
H1660 H 0.55446 0.65904 0.08191 0.0
C1661 C 0.57027 0.70055 0.04038 0.0
C1662 C 0.57815 0.69881 0.0148 0.0
C1663 C 0.56378 0.69266 0.07425 0.0
C1664 C 0.55446 0.66257 0.11419 0.0
H1665 H 0.53431 0.64168 0.32833 0.0
H1666 H 0.53609 0.65388 0.26392 0.0
H1667 H 0.54818 0.64598 0.14542 0.0
H1668 H 0.58504 0.68718 0.00408 0.0
H1669 H 0.57396 0.67371 0.06224 0.0
H1670 H 0.56144 0.68789 0.16764 0.0
C1671 C 0.54155 0.64996 0.26591 0.0
C1672 C 0.5508 0.65506 0.1505 0.0
C1673 C 0.5405 0.64295 0.30253 0.0
C1674 C 0.57912 0.68888 0.02307 0.0
C1675 C 0.57264 0.68104 0.05633 0.0
C1676 C 0.55821 0.6787 0.16213 0.0
C1677 C 0.54957 0.65181 0.23204 0.0
C1678 C 0.55111 0.65931 0.19323 0.0
C1679 C 0.56493 0.68281 0.08264 0.0
C1680 C 0.55871 0.67458 0.11975 0.0
H1681 H 0.5614 0.63626 0.2741 0.0
H1682 H 0.56287 0.64801 0.21017 0.0
H1683 H 0.55477 0.67461 0.23125 0.0
H1684 H 0.56934 0.70813 0.03498 0.0
H1685 H 0.5579 0.69427 0.0939 0.0
C1686 C 0.35791 0.91222 0.31021 0.0
C1687 C 0.36698 0.91008 0.32151 0.0
C1688 C 0.34997 0.90587 0.27698 0.0
C1689 C 0.34597 0.88913 0.17587 0.0
H1690 H 0.31391 0.8816 0.19233 0.0
C1691 C 0.30982 0.87116 0.0369 0.0
C1692 C 0.30517 0.8786 0.03144 0.0
C1693 C 0.31688 0.87243 0.07366 0.0
C1694 C 0.3228 0.88353 0.18732 0.0
H1695 H 0.37473 0.89944 0.30614 0.0
H1696 H 0.36074 0.88828 0.24719 0.0
H1697 H 0.32726 0.88834 0.25495 0.0
H1698 H 0.30408 0.89296 0.06098 0.0
H1699 H 0.31593 0.89486 0.12491 0.0
H1700 H 0.34144 0.8846 0.10758 0.0
C1701 C 0.35986 0.89495 0.26458 0.0
C1702 C 0.33047 0.88745 0.22312 0.0
C1703 C 0.36784 0.9013 0.29844 0.0
C1704 C 0.30749 0.88707 0.06396 0.0
C1705 C 0.31426 0.88815 0.10081 0.0
C1706 C 0.33822 0.88511 0.1399 0.0
C1707 C 0.35079 0.89714 0.25368 0.0
C1708 C 0.34228 0.89077 0.21752 0.0
C1709 C 0.31912 0.88093 0.10603 0.0
C1710 C 0.32667 0.88271 0.14501 0.0
H1711 H 0.35689 0.91887 0.32702 0.0
H1712 H 0.34327 0.90798 0.26897 0.0
H1713 H 0.35501 0.89163 0.17041 0.0
H1714 H 0.30826 0.86461 0.01229 0.0
H1715 H 0.32054 0.86676 0.07692 0.0
C1716 C 0.10586 0.46709 0.29879 0.0
C1717 C 0.09797 0.45747 0.32433 0.0
C1718 C 0.11236 0.46571 0.26493 0.0
C1719 C 0.12175 0.44498 0.22521 0.0
H1720 H 0.12154 0.45674 0.10808 0.0
C1721 C 0.12067 0.42114 0.06721 0.0
C1722 C 0.12866 0.42722 0.03318 0.0
C1723 C 0.11983 0.42701 0.10398 0.0
C1724 C 0.12189 0.4536 0.14078 0.0
H1725 H 0.09107 0.43893 0.33494 0.0
H1726 H 0.10217 0.43658 0.27682 0.0
H1727 H 0.11478 0.46331 0.17152 0.0
H1728 H 0.14203 0.44431 0.01115 0.0
H1729 H 0.14024 0.45473 0.07556 0.0
H1730 H 0.1281 0.43471 0.19416 0.0
C1731 C 0.10349 0.44522 0.28275 0.0
C1732 C 0.11803 0.45736 0.17713 0.0
C1733 C 0.09699 0.44657 0.31599 0.0
C1734 C 0.13585 0.43939 0.03698 0.0
C1735 C 0.1348 0.44534 0.0736 0.0
C1736 C 0.12547 0.44116 0.189 0.0
C1737 C 0.11122 0.45472 0.25652 0.0
C1738 C 0.11748 0.45273 0.21953 0.0
C1739 C 0.12678 0.43917 0.10748 0.0
C1740 C 0.1252 0.44512 0.14623 0.0
H1741 H 0.10679 0.4756 0.30423 0.0
H1742 H 0.11825 0.47321 0.24534 0.0
H1743 H 0.12172 0.44145 0.25751 0.0
H1744 H 0.11498 0.41179 0.06545 0.0
H1745 H 0.1135 0.42205 0.12937 0.0
C1746 C 0.10592 0.63836 0.29527 0.0
C1747 C 0.0959 0.63797 0.31316 0.0
C1748 C 0.1123 0.64632 0.26139 0.0
C1749 C 0.11755 0.67436 0.2153 0.0
H1750 H 0.12394 0.6647 0.10278 0.0
C1751 C 0.11775 0.69624 0.05453 0.0
C1752 C 0.12704 0.69985 0.02451 0.0
C1753 C 0.11681 0.6895 0.09124 0.0
C1754 C 0.12245 0.66758 0.13436 0.0
H1755 H 0.08473 0.64562 0.30827 0.0
H1756 H 0.09573 0.65925 0.25051 0.0
H1757 H 0.11692 0.651 0.1654 0.0
H1758 H 0.14263 0.69903 0.00973 0.0
H1759 H 0.14078 0.68682 0.0743 0.0
H1760 H 0.12239 0.69064 0.184 0.0
C1761 C 0.09878 0.65356 0.26278 0.0
C1762 C 0.11844 0.65975 0.17014 0.0
C1763 C 0.09241 0.64563 0.29596 0.0
C1764 C 0.1354 0.69645 0.0323 0.0
C1765 C 0.13433 0.68943 0.06903 0.0
C1766 C 0.12149 0.68211 0.17977 0.0
C1767 C 0.10886 0.65413 0.24533 0.0
C1768 C 0.11547 0.66293 0.21041 0.0
C1769 C 0.12504 0.68599 0.099 0.0
C1770 C 0.12355 0.67867 0.13844 0.0
H1771 H 0.10884 0.63257 0.30751 0.0
H1772 H 0.12002 0.64654 0.24837 0.0
H1773 H 0.11555 0.67714 0.24613 0.0
H1774 H 0.11112 0.69865 0.04987 0.0
H1775 H 0.10949 0.68686 0.11341 0.0
C1776 C 0.36565 0.46869 0.30169 0.0
C1777 C 0.37021 0.46117 0.30705 0.0
C1778 C 0.35866 0.46754 0.26487 0.0
C1779 C 0.35322 0.45734 0.15082 0.0
H1780 H 0.32056 0.44764 0.16672 0.0
C1781 C 0.31925 0.42885 0.02418 0.0
C1782 C 0.30962 0.43022 0.01442 0.0
C1783 C 0.32705 0.43529 0.05764 0.0
C1784 C 0.32972 0.45061 0.16153 0.0
H1785 H 0.3712 0.44677 0.27736 0.0
H1786 H 0.35948 0.44511 0.21312 0.0
H1787 H 0.33381 0.45449 0.23047 0.0
H1788 H 0.30076 0.43965 0.03242 0.0
H1789 H 0.31453 0.451 0.09168 0.0
H1790 H 0.34923 0.45323 0.08248 0.0
C1791 C 0.36116 0.45177 0.23746 0.0
C1792 C 0.33728 0.45452 0.19804 0.0
C1793 C 0.36786 0.45272 0.27443 0.0
C1794 C 0.3081 0.4384 0.03895 0.0
C1795 C 0.31594 0.44485 0.073 0.0
C1796 C 0.34574 0.45357 0.11445 0.0
C1797 C 0.35642 0.45908 0.23235 0.0
C1798 C 0.349 0.45748 0.1932 0.0
C1799 C 0.32553 0.44335 0.08266 0.0
C1800 C 0.33378 0.44966 0.11961 0.0
H1801 H 0.36725 0.47524 0.32639 0.0
H1802 H 0.35507 0.47327 0.26164 0.0
H1803 H 0.36225 0.45969 0.14614 0.0
H1804 H 0.32079 0.42268 0.00613 0.0
H1805 H 0.33415 0.43369 0.06461 0.0
C1806 C 0.55891 0.9095 0.3144 0.0
C1807 C 0.54806 0.90865 0.32263 0.0
C1808 C 0.56018 0.90294 0.28122 0.0
C1809 C 0.54806 0.88854 0.17545 0.0
H1810 H 0.5703 0.87797 0.19308 0.0
C1811 C 0.56617 0.87082 0.03533 0.0
C1812 C 0.57836 0.87798 0.0322 0.0
C1813 C 0.56011 0.87176 0.07185 0.0
C1814 C 0.56396 0.88073 0.18774 0.0
H1815 H 0.52994 0.90001 0.30238 0.0
H1816 H 0.5322 0.88845 0.24353 0.0
H1817 H 0.56359 0.88443 0.25627 0.0
H1818 H 0.5937 0.89147 0.06555 0.0
H1819 H 0.58327 0.89274 0.12924 0.0
H1820 H 0.54879 0.88511 0.10637 0.0
C1821 C 0.53972 0.89428 0.2632 0.0
C1822 C 0.56015 0.8845 0.22386 0.0
C1823 C 0.53841 0.90084 0.29702 0.0
C1824 C 0.58434 0.8858 0.0668 0.0
C1825 C 0.57836 0.88652 0.10345 0.0
C1826 C 0.55181 0.88464 0.13917 0.0
C1827 C 0.55066 0.89528 0.25492 0.0
C1828 C 0.55257 0.88895 0.21798 0.0
C1829 C 0.5662 0.87962 0.10627 0.0
C1830 C 0.56015 0.88115 0.14485 0.0
H1831 H 0.56656 0.91536 0.33341 0.0
H1832 H 0.56878 0.90414 0.27539 0.0
H1833 H 0.54225 0.89194 0.16969 0.0
H1834 H 0.56132 0.86477 0.00903 0.0
H1835 H 0.55071 0.86636 0.07327 0.0
C1836 C 0.21438 0.97425 0.8694 0.0
C1837 C 0.22272 0.97639 0.83648 0.0
C1838 C 0.21727 0.98159 0.90632 0.0
C1839 C 0.22442 1.00131 0.97389 0.0
H1840 H 0.25521 0.01187 0.02227 0.0
C1841 C 0.24412 0.03418 0.12071 0.0
C1842 C 0.25109 0.03232 0.15101 0.0
C1843 C 0.23991 0.02735 0.08238 0.0
C1844 C 0.24654 0.00893 0.00951 0.0
H1845 H 0.24048 0.98835 0.81565 0.0
H1846 H 0.24539 1.00118 0.87913 0.0
H1847 H 0.24926 1.00024 0.95538 0.0
H1848 H 0.25858 0.02137 0.16549 0.0
H1849 H 0.25112 0.00945 0.09968 0.0
H1850 H 0.22166 0.00981 0.02912 0.0
C1851 C 0.2367 0.99367 0.87716 0.0
C1852 C 0.24318 1.00239 0.97063 0.0
C1853 C 0.23385 0.98633 0.8405 0.0
C1854 C 0.25337 0.02319 0.14278 0.0
C1855 C 0.24914 0.01637 0.10475 0.0
C1856 C 0.2278 0.00789 0.01299 0.0
C1857 C 0.22856 0.99126 0.91111 0.0
C1858 C 0.23207 0.99846 0.95223 0.0
C1859 C 0.24255 0.01849 0.07356 0.0
C1860 C 0.23889 0.01171 0.03146 0.0
H1861 H 0.20573 0.96667 0.86751 0.0
H1862 H 0.21079 0.97941 0.93191 0.0
H1863 H 0.21584 0.99852 0.96051 0.0
H1864 H 0.2422 0.04114 0.1259 0.0
H1865 H 0.2349 0.02927 0.05899 0.0
C1866 C 0.98647 0.22924 0.16239 0.0
C1867 C 0.97641 0.21817 0.16543 0.0
C1868 C 0.99388 0.23223 0.1259 0.0
C1869 C 1.00263 0.23925 0.03283 0.0
H1870 H 0.00992 0.21801 0.97134 0.0
C1871 C 0.02315 0.25025 0.8603 0.0
C1872 C 0.03227 0.24803 0.85108 0.0
C1873 C 0.01643 0.24587 0.89846 0.0
C1874 C 0.00803 0.22407 0.98833 0.0
H1875 H 0.96657 0.2014 0.13292 0.0
H1876 H 0.97944 0.2067 0.06878 0.0
H1877 H 0.9986 0.2118 0.0399 0.0
H1878 H 0.04119 0.23908 0.87462 0.0
H1879 H 0.02946 0.2315 0.94178 0.0
H1880 H 0.01216 0.25158 0.98205 0.0
C1881 C 0.98165 0.21303 0.095 0.0
C1882 C 1.00145 0.22047 0.02739 0.0
C1883 C 0.97424 0.20999 0.13177 0.0
C1884 C 0.03424 0.24097 0.88059 0.0
C1885 C 0.02749 0.23659 0.91905 0.0
C1886 C 0.00919 0.24283 0.99398 0.0
C1887 C 0.99142 0.22429 0.09114 0.0
C1888 C 0.99865 0.22803 0.05011 0.0
C1889 C 0.01863 0.23916 0.9288 0.0
C1890 C 0.0119 0.23528 0.97096 0.0
H1891 H 0.98852 0.23573 0.18785 0.0
H1892 H 1.00147 0.24088 0.12464 0.0
H1893 H 1.00053 0.24527 0.04891 0.0
H1894 H 0.02125 0.25553 0.83824 0.0
H1895 H 0.0095 0.2478 0.90429 0.0
C1896 C 0.76803 0.79509 0.87344 0.0
C1897 C 0.76154 0.78672 0.84095 0.0
C1898 C 0.77239 0.79209 0.91036 0.0
C1899 C 0.76655 0.76606 0.97548 0.0
H1900 H 0.79597 0.78692 0.03258 0.0
C1901 C 0.79723 0.76392 0.12359 0.0
C1902 C 0.78839 0.75714 0.15416 0.0
C1903 C 0.79472 0.76836 0.08564 0.0
C1904 C 0.78776 0.78096 0.01684 0.0
H1905 H 0.75516 0.76881 0.82079 0.0
H1906 H 0.76294 0.76371 0.88419 0.0
H1907 H 0.79061 0.79297 0.96419 0.0
H1908 H 0.77009 0.75027 0.16964 0.0
H1909 H 0.76583 0.75813 0.10451 0.0
H1910 H 0.76374 0.75398 0.02723 0.0
C1911 C 0.76439 0.7725 0.88195 0.0
C1912 C 0.78464 0.78447 0.97787 0.0
C1913 C 0.75999 0.77546 0.84532 0.0
C1914 C 0.77712 0.75531 0.14666 0.0
C1915 C 0.77463 0.75977 0.10904 0.0
C1916 C 0.76966 0.76257 0.01421 0.0
C1917 C 0.77041 0.78068 0.91554 0.0
C1918 C 0.77398 0.77705 0.95668 0.0
C1919 C 0.78332 0.76614 0.07749 0.0
C1920 C 0.78027 0.76998 0.03565 0.0
H1921 H 0.76937 0.80384 0.87126 0.0
H1922 H 0.77692 0.7986 0.93566 0.0
H1923 H 0.7582 0.76017 0.96061 0.0
H1924 H 0.80601 0.76549 0.12824 0.0
H1925 H 0.80162 0.77318 0.06196 0.0
C1926 C 0.75522 0.98185 0.85748 0.0
C1927 C 0.7576 0.97279 0.8493 0.0
C1928 C 0.75946 0.98873 0.89537 0.0
C1929 C 0.78095 0.99749 0.98669 0.0
H1930 H 0.75934 0.00483 0.04482 0.0
C1931 C 0.77474 0.01873 0.15963 0.0
C1932 C 0.7858 0.02876 0.16358 0.0
C1933 C 0.77194 0.01142 0.1229 0.0
C1934 C 0.76546 1.00277 0.02941 0.0
H1935 H 0.76668 0.96415 0.87433 0.0
H1936 H 0.77398 0.97611 0.94099 0.0
H1937 H 0.75341 0.99319 0.97794 0.0
H1938 H 0.80274 0.03869 0.13236 0.0
H1939 H 0.79778 0.02602 0.0678 0.0
H1940 H 0.79293 0.00695 0.03902 0.0
C1941 C 0.7689 0.97793 0.91767 0.0
C1942 C 0.76212 0.99622 0.99054 0.0
C1943 C 0.76467 0.97105 0.87949 0.0
C1944 C 0.79415 0.03104 0.13051 0.0
C1945 C 0.79131 0.02374 0.09351 0.0
C1946 C 0.78432 0.00407 0.02578 0.0
C1947 C 0.76615 0.98673 0.92645 0.0
C1948 C 0.76982 0.99355 0.96844 0.0
C1949 C 0.78008 0.01397 0.08879 0.0
C1950 C 0.7766 0.0068 0.04763 0.0
H1951 H 0.74992 0.98357 0.83485 0.0
H1952 H 0.7574 0.99559 0.90043 0.0
H1953 H 0.78713 0.99564 0.97043 0.0
H1954 H 0.76812 0.0166 0.18461 0.0
H1955 H 0.76331 0.00383 0.12098 0.0
C1956 C 0.02285 0.77579 0.84677 0.0
C1957 C 0.03261 0.78701 0.84195 0.0
C1958 C 0.0155 0.773 0.88336 0.0
C1959 C 0.00689 0.76694 0.97704 0.0
H1960 H 0.99847 0.7881 0.03233 0.0
C1961 C 0.9856 0.75685 0.1481 0.0
C1962 C 0.97612 0.75867 0.15505 0.0
C1963 C 0.99257 0.76122 0.11051 0.0
C1964 C 1.00068 0.78206 0.01711 0.0
H1965 H 0.042 0.80422 0.87145 0.0
H1966 H 0.02923 0.79928 0.93579 0.0
H1967 H 0.00989 0.79386 0.96396 0.0
H1968 H 0.96687 0.76694 0.12827 0.0
H1969 H 0.97902 0.77447 0.06204 0.0
H1970 H 0.99757 0.75506 0.02929 0.0
C1971 C 0.0272 0.79268 0.91086 0.0
C1972 C 0.00733 0.78541 0.97815 0.0
C1973 C 0.03456 0.7955 0.87398 0.0
C1974 C 0.97409 0.76538 0.12404 0.0
C1975 C 0.98108 0.76972 0.0861 0.0
C1976 C 1.00028 0.76361 0.01577 0.0
C1977 C 0.01772 0.78131 0.91648 0.0
C1978 C 0.01052 0.77787 0.9576 0.0
C1979 C 0.99026 0.76748 0.07845 0.0
C1980 C 0.99714 0.77114 0.03657 0.0
H1981 H 0.02097 0.76904 0.82261 0.0
H1982 H 0.00813 0.76424 0.88595 0.0
H1983 H 0.00931 0.76095 0.96268 0.0
H1984 H 0.98756 0.75187 0.17145 0.0
H1985 H 0.99974 0.75956 0.10637 0.0
C1986 C 0.24738 0.23002 0.16285 0.0
C1987 C 0.24662 0.21905 0.1656 0.0
C1988 C 0.24278 0.2329 0.12661 0.0
C1989 C 0.22326 0.22084 0.02864 0.0
H1990 H 0.2431 0.25201 0.98284 0.0
C1991 C 0.21023 0.24082 0.88196 0.0
C1992 C 0.21918 0.24792 0.85229 0.0
C1993 C 0.21272 0.23653 0.92039 0.0
C1994 C 0.23747 0.24324 0.99493 0.0
H1995 H 0.23995 0.20235 0.13278 0.0
H1996 H 0.23205 0.20745 0.06915 0.0
H1997 H 0.24874 0.24595 0.04957 0.0
H1998 H 0.2377 0.25557 0.83903 0.0
H1999 H 0.24194 0.24801 0.90502 0.0
H2000 H 0.21215 0.21811 0.97288 0.0
C2001 C 0.23612 0.21378 0.0954 0.0
C2002 C 0.24064 0.23981 0.03369 0.0
C2003 C 0.24069 0.21087 0.13188 0.0
C2004 C 0.23058 0.25026 0.86124 0.0
C2005 C 0.23305 0.24597 0.89936 0.0
C2006 C 0.22008 0.2243 0.98968 0.0
C2007 C 0.23734 0.22494 0.09184 0.0
C2008 C 0.23361 0.22855 0.05108 0.0
C2009 C 0.22422 0.23925 0.92994 0.0
C2010 C 0.22722 0.23552 0.97213 0.0
H2011 H 0.25176 0.23652 0.18833 0.0
H2012 H 0.24365 0.24147 0.12555 0.0
H2013 H 0.2176 0.21213 0.04125 0.0
H2014 H 0.20135 0.23885 0.87619 0.0
H2015 H 0.20572 0.2314 0.9433 0.0
C2016 C 0.91553 0.35373 0.49642 0.0
C2017 C 0.91422 0.36361 0.49965 0.0
C2018 C 0.91116 0.34628 0.46002 0.0
C2019 C 0.89149 0.33828 0.36226 0.0
H2020 H 0.91216 0.32803 0.31593 0.0
C2021 C 0.89964 0.31691 0.19437 0.0
C2022 C 0.88832 0.30774 0.18526 0.0
C2023 C 0.90198 0.3236 0.23265 0.0
C2024 C 0.9063 0.33087 0.32814 0.0
H2025 H 0.90685 0.37311 0.46753 0.0
H2026 H 0.89939 0.36018 0.40356 0.0
H2027 H 0.91747 0.33967 0.38276 0.0
H2028 H 0.87049 0.29866 0.20916 0.0
H2029 H 0.87463 0.3103 0.27654 0.0
H2030 H 0.88049 0.32969 0.30648 0.0
C2031 C 0.90368 0.35813 0.42957 0.0
C2032 C 0.90927 0.33743 0.36698 0.0
C2033 C 0.908 0.36557 0.46625 0.0
C2034 C 0.87931 0.30566 0.21503 0.0
C2035 C 0.88168 0.31236 0.25362 0.0
C2036 C 0.88851 0.3317 0.32319 0.0
C2037 C 0.90543 0.34852 0.42553 0.0
C2038 C 0.90194 0.34125 0.3846 0.0
C2039 C 0.8931 0.32129 0.26324 0.0
C2040 C 0.89594 0.32799 0.30545 0.0
H2041 H 0.92015 0.35185 0.52168 0.0
H2042 H 0.91243 0.33882 0.45864 0.0
H2043 H 0.88558 0.341 0.37503 0.0
H2044 H 0.9068 0.3189 0.17211 0.0
H2045 H 0.91082 0.33058 0.23836 0.0
C2046 C 0.68686 0.58018 0.17678 0.0
C2047 C 0.69682 0.57901 0.17321 0.0
C2048 C 0.67949 0.57576 0.2134 0.0
C2049 C 0.67179 0.55609 0.31096 0.0
H2050 H 0.66133 0.57651 0.35809 0.0
C2051 C 0.63914 0.54353 0.45845 0.0
C2052 C 0.6412 0.55248 0.48848 0.0
C2053 C 0.64584 0.54597 0.41982 0.0
C2054 C 0.66423 0.57072 0.34565 0.0
H2055 H 0.70654 0.57185 0.20501 0.0
H2056 H 0.69375 0.56428 0.26932 0.0
H2057 H 0.67293 0.58198 0.2911 0.0
H2058 H 0.65235 0.57095 0.502 0.0
H2059 H 0.66401 0.5751 0.43566 0.0
H2060 H 0.66328 0.54499 0.36661 0.0
C2061 C 0.69158 0.56852 0.24341 0.0
C2062 C 0.67076 0.57378 0.30673 0.0
C2063 C 0.69895 0.5729 0.20654 0.0
C2064 C 0.65037 0.56383 0.47956 0.0
C2065 C 0.65705 0.56625 0.44122 0.0
C2066 C 0.66522 0.55301 0.35008 0.0
C2067 C 0.68189 0.57012 0.24775 0.0
C2068 C 0.67466 0.56654 0.28882 0.0
C2069 C 0.65475 0.55742 0.41039 0.0
C2070 C 0.66144 0.56035 0.36811 0.0
H2071 H 0.68484 0.58472 0.15162 0.0
H2072 H 0.67196 0.57692 0.21503 0.0
H2073 H 0.67457 0.55025 0.29796 0.0
H2074 H 0.63215 0.53469 0.46417 0.0
H2075 H 0.6438 0.53897 0.39671 0.0
C2076 C 0.42749 0.1088 0.17435 0.0
C2077 C 0.42854 0.11988 0.17102 0.0
C2078 C 0.43185 0.10582 0.21108 0.0
C2079 C 0.43363 0.09889 0.30434 0.0
H2080 H 0.46211 0.12033 0.36574 0.0
C2081 C 0.44343 0.08812 0.47706 0.0
C2082 C 0.45484 0.09057 0.48633 0.0
C2083 C 0.44097 0.09238 0.43882 0.0
C2084 C 0.45418 0.11421 0.34879 0.0
H2085 H 0.43545 0.13667 0.20335 0.0
H2086 H 0.44291 0.1314 0.26785 0.0
H2087 H 0.45695 0.12641 0.29704 0.0
H2088 H 0.4727 0.09976 0.46272 0.0
H2089 H 0.46835 0.10712 0.39546 0.0
H2090 H 0.43091 0.08662 0.35529 0.0
C2091 C 0.43881 0.12505 0.24168 0.0
C2092 C 0.45116 0.11773 0.30963 0.0
C2093 C 0.4345 0.12807 0.20469 0.0
C2094 C 0.46381 0.0977 0.45674 0.0
C2095 C 0.46132 0.10196 0.41822 0.0
C2096 C 0.43665 0.09538 0.34329 0.0
C2097 C 0.43731 0.11379 0.24578 0.0
C2098 C 0.44082 0.11011 0.28693 0.0
C2099 C 0.44983 0.09919 0.40845 0.0
C2100 C 0.4469 0.103 0.36628 0.0
H2101 H 0.42307 0.10229 0.14892 0.0
H2102 H 0.43077 0.09717 0.21252 0.0
H2103 H 0.42553 0.09282 0.28827 0.0
H2104 H 0.43629 0.08276 0.49917 0.0
H2105 H 0.43206 0.09029 0.43298 0.0
C2106 C 0.43274 0.3073 0.20561 0.0
C2107 C 0.42641 0.30924 0.1726 0.0
C2108 C 0.43712 0.31472 0.24235 0.0
C2109 C 0.43163 0.33536 0.30599 0.0
H2110 H 0.46068 0.34328 0.36471 0.0
C2111 C 0.44186 0.35611 0.4782 0.0
C2112 C 0.4532 0.36534 0.48671 0.0
C2113 C 0.4394 0.34937 0.44004 0.0
C2114 C 0.45259 0.34122 0.34851 0.0
H2115 H 0.42033 0.32094 0.15139 0.0
H2116 H 0.42813 0.33392 0.21453 0.0
H2117 H 0.45536 0.33191 0.29628 0.0
H2118 H 0.47094 0.37444 0.46186 0.0
H2119 H 0.46659 0.36269 0.39467 0.0
H2120 H 0.42889 0.34477 0.35739 0.0
C2121 C 0.42945 0.3265 0.21279 0.0
C2122 C 0.44947 0.3346 0.30951 0.0
C2123 C 0.42503 0.31907 0.17633 0.0
C2124 C 0.46211 0.36741 0.45646 0.0
C2125 C 0.45962 0.36064 0.41798 0.0
C2126 C 0.43473 0.34195 0.34476 0.0
C2127 C 0.43531 0.32428 0.24685 0.0
C2128 C 0.43892 0.33156 0.28779 0.0
C2129 C 0.44818 0.35166 0.40895 0.0
C2130 C 0.44519 0.3449 0.36681 0.0
H2131 H 0.43396 0.29981 0.20394 0.0
H2132 H 0.44152 0.31269 0.26802 0.0
H2133 H 0.42336 0.33307 0.2907 0.0
H2134 H 0.43478 0.35414 0.50085 0.0
H2135 H 0.43055 0.34235 0.43481 0.0
C2136 C 0.70093 0.12911 0.20357 0.0
C2137 C 0.69873 0.12081 0.17043 0.0
C2138 C 0.6936 0.1262 0.24054 0.0
C2139 C 0.67386 0.11895 0.30838 0.0
H2140 H 0.6632 0.08801 0.35542 0.0
C2141 C 0.64071 0.09875 0.45423 0.0
C2142 C 0.6425 0.09165 0.48414 0.0
C2143 C 0.64765 0.10313 0.4162 0.0
C2144 C 0.66617 0.09672 0.34305 0.0
H2145 H 0.68666 0.10312 0.14916 0.0
H2146 H 0.67384 0.09818 0.21267 0.0
H2147 H 0.67489 0.09414 0.28868 0.0
H2148 H 0.65341 0.0841 0.49829 0.0
H2149 H 0.6655 0.09184 0.433 0.0
H2150 H 0.66532 0.12157 0.36384 0.0
C2151 C 0.6814 0.10684 0.21088 0.0
C2152 C 0.67275 0.10019 0.30425 0.0
C2153 C 0.68873 0.10972 0.17421 0.0
C2154 C 0.65165 0.08941 0.47586 0.0
C2155 C 0.65857 0.0938 0.43814 0.0
C2156 C 0.66725 0.11547 0.34741 0.0
C2157 C 0.68388 0.11493 0.24513 0.0
C2158 C 0.6767 0.11134 0.2863 0.0
C2159 C 0.65653 0.10052 0.40729 0.0
C2160 C 0.66338 0.10432 0.36538 0.0
H2161 H 0.70856 0.13773 0.20185 0.0
H2162 H 0.69582 0.13264 0.26634 0.0
H2163 H 0.67668 0.12758 0.29537 0.0
H2164 H 0.63375 0.10065 0.45947 0.0
H2165 H 0.64579 0.10823 0.39307 0.0
C2166 C 0.91625 0.56544 0.49282 0.0
C2167 C 0.91498 0.55428 0.49663 0.0
C2168 C 0.91187 0.5684 0.45608 0.0
C2169 C 0.90978 0.57508 0.36272 0.0
H2170 H 0.88098 0.55364 0.30321 0.0
C2171 C 0.89942 0.58549 0.19032 0.0
C2172 C 0.88799 0.58307 0.18162 0.0
C2173 C 0.90199 0.5813 0.22852 0.0
C2174 C 0.889 0.55976 0.31963 0.0
H2175 H 0.90773 0.53735 0.4651 0.0
H2176 H 0.90026 0.54259 0.40059 0.0
H2177 H 0.88632 0.5477 0.37182 0.0
H2178 H 0.87022 0.57402 0.2062 0.0
H2179 H 0.87477 0.56681 0.27339 0.0
H2180 H 0.91241 0.58721 0.31136 0.0
C2181 C 0.90452 0.54901 0.42639 0.0
C2182 C 0.89213 0.55632 0.35873 0.0
C2183 C 0.90884 0.54602 0.46339 0.0
C2184 C 0.87912 0.57605 0.21173 0.0
C2185 C 0.88172 0.57188 0.25022 0.0
C2186 C 0.90667 0.57851 0.32384 0.0
C2187 C 0.90618 0.56033 0.42185 0.0
C2188 C 0.90258 0.56394 0.38075 0.0
C2189 C 0.89324 0.57462 0.25942 0.0
C2190 C 0.89628 0.57089 0.30153 0.0
H2191 H 0.92081 0.57201 0.51791 0.0
H2192 H 0.91309 0.5771 0.4543 0.0
H2193 H 0.91798 0.58114 0.37826 0.0
H2194 H 0.90648 0.59075 0.16779 0.0
H2195 H 0.91091 0.58336 0.2339 0.0
C2196 C 0.5665 0.65339 0.50858 0.0
C2197 C 0.55531 0.64352 0.50523 0.0
C2198 C 0.56958 0.66081 0.54506 0.0
C2199 C 0.55783 0.66872 0.64281 0.0
H2200 H 0.58881 0.67917 0.68905 0.0
C2201 C 0.58744 0.69049 0.81034 0.0
C2202 C 0.58512 0.69955 0.81934 0.0
C2203 C 0.58313 0.68374 0.77218 0.0
C2204 C 0.58009 0.67627 0.67689 0.0
H2205 H 0.53844 0.63399 0.53724 0.0
H2206 H 0.54388 0.64685 0.60137 0.0
H2207 H 0.5825 0.66748 0.62233 0.0
H2208 H 0.57613 0.70838 0.79532 0.0
H2209 H 0.56871 0.69665 0.72817 0.0
H2210 H 0.55536 0.67728 0.69852 0.0
C2211 C 0.55024 0.64893 0.57538 0.0
C2212 C 0.57652 0.66969 0.6381 0.0
C2213 C 0.54713 0.64153 0.53861 0.0
C2214 C 0.57808 0.70147 0.78955 0.0
C2215 C 0.5738 0.69472 0.75109 0.0
C2216 C 0.56141 0.67532 0.68184 0.0
C2217 C 0.56159 0.65854 0.57952 0.0
C2218 C 0.56534 0.6658 0.62048 0.0
C2219 C 0.57643 0.68588 0.74161 0.0
C2220 C 0.57257 0.6791 0.69954 0.0
H2221 H 0.57301 0.6553 0.48333 0.0
H2222 H 0.5783 0.66828 0.54651 0.0
H2223 H 0.5492 0.66597 0.63005 0.0
H2224 H 0.59271 0.68864 0.83263 0.0
H2225 H 0.58512 0.67684 0.76659 0.0
C2226 C 0.30823 0.87683 0.79873 0.0
C2227 C 0.31036 0.88514 0.83174 0.0
C2228 C 0.3156 0.87975 0.76186 0.0
C2229 C 0.33543 0.88709 0.69428 0.0
H2230 H 0.34587 0.91794 0.6468 0.0
C2231 C 0.36862 0.90745 0.54847 0.0
C2232 C 0.36672 0.91445 0.51841 0.0
C2233 C 0.36169 0.90304 0.5865 0.0
C2234 C 0.34297 0.90926 0.6593 0.0
H2235 H 0.32233 0.90286 0.85289 0.0
H2236 H 0.33521 0.90783 0.78957 0.0
H2237 H 0.33416 0.91179 0.71345 0.0
H2238 H 0.35562 0.92177 0.50397 0.0
H2239 H 0.34355 0.91397 0.56924 0.0
H2240 H 0.34407 0.88452 0.63903 0.0
C2241 C 0.32768 0.89915 0.79137 0.0
C2242 C 0.33637 0.90578 0.69804 0.0
C2243 C 0.32031 0.89626 0.82794 0.0
C2244 C 0.35747 0.91654 0.52652 0.0
C2245 C 0.35056 0.91212 0.56423 0.0
C2246 C 0.34207 0.89059 0.65531 0.0
C2247 C 0.32528 0.89105 0.75725 0.0
C2248 C 0.33249 0.89465 0.71615 0.0
C2249 C 0.35271 0.90552 0.59525 0.0
C2250 C 0.34585 0.9017 0.63717 0.0
H2251 H 0.30064 0.86819 0.80047 0.0
H2252 H 0.31344 0.8733 0.73615 0.0
H2253 H 0.33266 0.87849 0.70742 0.0
H2254 H 0.37567 0.90567 0.54335 0.0
H2255 H 0.36362 0.89803 0.60976 0.0
C2256 C 0.12955 0.43165 0.80065 0.0
C2257 C 0.12137 0.42558 0.8342 0.0
C2258 C 0.12652 0.43604 0.76393 0.0
C2259 C 0.10029 0.4308 0.70166 0.0
H2260 H 0.12152 0.45943 0.64065 0.0
C2261 C 0.09857 0.46081 0.54979 0.0
C2262 C 0.09155 0.45181 0.52017 0.0
C2263 C 0.10294 0.45843 0.58824 0.0
C2264 C 0.11546 0.45146 0.6575 0.0
H2265 H 0.10377 0.42003 0.85649 0.0
H2266 H 0.09862 0.42786 0.7934 0.0
H2267 H 0.12772 0.45426 0.7091 0.0
H2268 H 0.0841 0.4333 0.50713 0.0
H2269 H 0.09181 0.42925 0.57314 0.0
H2270 H 0.08798 0.42803 0.65086 0.0
C2271 C 0.10728 0.42895 0.79468 0.0
C2272 C 0.11906 0.44843 0.69651 0.0
C2273 C 0.11028 0.42452 0.8311 0.0
C2274 C 0.08935 0.44046 0.52928 0.0
C2275 C 0.09372 0.4381 0.56742 0.0
C2276 C 0.09672 0.43381 0.66288 0.0
C2277 C 0.11524 0.43451 0.76002 0.0
C2278 C 0.11151 0.43804 0.71905 0.0
C2279 C 0.1004 0.44699 0.59788 0.0
C2280 C 0.10427 0.44412 0.64002 0.0
H2281 H 0.13816 0.43261 0.80184 0.0
H2282 H 0.13286 0.44021 0.73779 0.0
H2283 H 0.09429 0.42265 0.7176 0.0
H2284 H 0.10045 0.46965 0.54391 0.0
H2285 H 0.10801 0.46547 0.61106 0.0
C2286 C 0.12943 0.69834 0.79271 0.0
C2287 C 0.12074 0.69628 0.82403 0.0
C2288 C 0.12679 0.69123 0.75517 0.0
C2289 C 0.10147 0.67165 0.68586 0.0
H2290 H 0.12234 0.66238 0.63371 0.0
C2291 C 0.09944 0.63791 0.54238 0.0
C2292 C 0.09299 0.64003 0.51046 0.0
C2293 C 0.10388 0.64509 0.57977 0.0
C2294 C 0.11639 0.66485 0.64802 0.0
H2295 H 0.10259 0.68469 0.84124 0.0
H2296 H 0.0981 0.6723 0.77673 0.0
H2297 H 0.12792 0.67378 0.70218 0.0
H2298 H 0.08681 0.65183 0.49174 0.0
H2299 H 0.09469 0.66435 0.55592 0.0
H2300 H 0.08983 0.66259 0.63267 0.0
C2301 C 0.10689 0.67957 0.78045 0.0
C2302 C 0.11964 0.67148 0.68703 0.0
C2303 C 0.1095 0.68666 0.81772 0.0
C2304 C 0.09157 0.6498 0.51586 0.0
C2305 C 0.09605 0.65697 0.5529 0.0
C2306 C 0.09824 0.66507 0.64707 0.0
C2307 C 0.11541 0.68189 0.74815 0.0
C2308 C 0.11218 0.67491 0.70653 0.0
C2309 C 0.10201 0.65457 0.58595 0.0
C2310 C 0.10565 0.66159 0.62748 0.0
H2311 H 0.13818 0.70567 0.79641 0.0
H2312 H 0.13355 0.69331 0.73088 0.0
H2313 H 0.09556 0.67427 0.69944 0.0
H2314 H 0.10069 0.63046 0.53934 0.0
H2315 H 0.10839 0.64295 0.60463 0.0
C2316 C 0.30593 0.43103 0.7861 0.0
C2317 C 0.30906 0.42532 0.81786 0.0
C2318 C 0.31276 0.43587 0.74819 0.0
C2319 C 0.34224 0.44646 0.70284 0.0
H2320 H 0.32693 0.43841 0.5886 0.0
C2321 C 0.36787 0.46367 0.53924 0.0
C2322 C 0.36544 0.45507 0.50709 0.0
C2323 C 0.36065 0.46118 0.57622 0.0
C2324 C 0.33132 0.44076 0.62028 0.0
H2325 H 0.32202 0.42054 0.83512 0.0
H2326 H 0.33395 0.42909 0.76956 0.0
H2327 H 0.31521 0.43215 0.65617 0.0
H2328 H 0.35321 0.43723 0.48799 0.0
H2329 H 0.34059 0.43298 0.55215 0.0
H2330 H 0.35835 0.45487 0.66706 0.0
C2331 C 0.32622 0.42981 0.77388 0.0
C2332 C 0.32461 0.43726 0.65894 0.0
C2333 C 0.31933 0.42485 0.81136 0.0
C2334 C 0.35538 0.44407 0.51207 0.0
C2335 C 0.34809 0.44163 0.54875 0.0
C2336 C 0.34894 0.45007 0.66423 0.0
C2337 C 0.32296 0.43526 0.74161 0.0
C2338 C 0.33001 0.4399 0.70064 0.0
C2339 C 0.35075 0.45009 0.58164 0.0
C2340 C 0.34356 0.44711 0.62249 0.0
H2341 H 0.29806 0.43152 0.78996 0.0
H2342 H 0.31007 0.44008 0.72398 0.0
H2343 H 0.34665 0.44869 0.7345 0.0
H2344 H 0.37555 0.47222 0.5366 0.0
H2345 H 0.36287 0.4679 0.60084 0.0
C2346 C 0.57449 0.87781 0.79972 0.0
C2347 C 0.58054 0.88602 0.83323 0.0
C2348 C 0.57012 0.88082 0.76288 0.0
C2349 C 0.55772 0.88818 0.69525 0.0
H2350 H 0.57806 0.91922 0.6491 0.0
C2351 C 0.54518 0.90838 0.54813 0.0
C2352 C 0.55415 0.91539 0.51837 0.0
C2353 C 0.54762 0.90409 0.58666 0.0
C2354 C 0.5723 0.91048 0.66126 0.0
H2355 H 0.58609 0.90363 0.85526 0.0
H2356 H 0.5783 0.90874 0.79191 0.0
H2357 H 0.58347 0.91301 0.71604 0.0
H2358 H 0.57266 0.92293 0.50524 0.0
H2359 H 0.57681 0.91535 0.57143 0.0
H2360 H 0.5467 0.88563 0.63937 0.0
C2361 C 0.5772 0.90008 0.79336 0.0
C2362 C 0.57532 0.90697 0.70015 0.0
C2363 C 0.58161 0.89711 0.82993 0.0
C2364 C 0.56552 0.91768 0.52747 0.0
C2365 C 0.56794 0.91338 0.56572 0.0
C2366 C 0.55467 0.89172 0.65615 0.0
C2367 C 0.57165 0.89209 0.75878 0.0
C2368 C 0.56811 0.89577 0.71772 0.0
C2369 C 0.55908 0.90671 0.59628 0.0
C2370 C 0.56198 0.90289 0.63848 0.0
H2371 H 0.57352 0.8692 0.80106 0.0
H2372 H 0.56596 0.87446 0.7368 0.0
H2373 H 0.5519 0.87953 0.70798 0.0
H2374 H 0.53632 0.90645 0.54227 0.0
H2375 H 0.54059 0.89902 0.60957 0.0
C2376 C 0.3791 0.12106 0.08969 0.0
C2377 C 0.38742 0.12379 0.12305 0.0
C2378 C 0.36726 0.11591 0.10017 0.0
C2379 C 0.34693 0.11125 0.19222 0.0
H2380 H 0.32473 0.08572 0.11922 0.0
C2381 C 0.29866 0.0818 0.24326 0.0
C2382 C 0.29025 0.07666 0.20993 0.0
C2383 C 0.31049 0.08845 0.2325 0.0
C2384 C 0.33074 0.09297 0.13961 0.0
H2385 H 0.39012 0.12407 0.19358 0.0
H2386 H 0.36937 0.11483 0.21222 0.0
H2387 H 0.34527 0.09562 0.10041 0.0
H2388 H 0.28728 0.07549 0.13942 0.0
H2389 H 0.30791 0.08725 0.12018 0.0
H2390 H 0.33234 0.10885 0.23067 0.0
C2391 C 0.37194 0.11661 0.17786 0.0
C2392 C 0.34259 0.09859 0.12899 0.0
C2393 C 0.3838 0.12181 0.16729 0.0
C2394 C 0.2937 0.07905 0.16563 0.0
C2395 C 0.30552 0.08573 0.15475 0.0
C2396 C 0.33504 0.10574 0.20251 0.0
C2397 C 0.36351 0.11351 0.14437 0.0
C2398 C 0.35086 0.10773 0.15535 0.0
C2399 C 0.31412 0.09027 0.18804 0.0
C2400 C 0.32677 0.09647 0.17646 0.0
H2401 H 0.38176 0.12293 0.05543 0.0
H2402 H 0.36106 0.11388 0.0736 0.0
H2403 H 0.35303 0.11841 0.21279 0.0
H2404 H 0.29611 0.08044 0.27772 0.0
H2405 H 0.31678 0.09175 0.25915 0.0
C2406 C 0.88599 0.26199 0.16648 0.0
C2407 C 0.88489 0.26455 0.1224 0.0
C2408 C 0.89109 0.25523 0.17662 0.0
C2409 C 0.91049 0.24538 0.12976 0.0
H2410 H 0.89827 0.22272 0.22466 0.0
C2411 C 0.92965 0.21557 0.1664 0.0
C2412 C 0.9311 0.21375 0.21098 0.0
C2413 C 0.92324 0.22095 0.15461 0.0
C2414 C 0.90191 0.22912 0.19843 0.0
H2415 H 0.88715 0.26122 0.05421 0.0
H2416 H 0.8961 0.2494 0.07165 0.0
H2417 H 0.88875 0.23386 0.20642 0.0
H2418 H 0.92605 0.21484 0.27795 0.0
H2419 H 0.91514 0.22451 0.25788 0.0
H2420 H 0.92381 0.24089 0.12233 0.0
C2421 C 0.89344 0.25295 0.09855 0.0
C2422 C 0.89642 0.2355 0.18793 0.0
C2423 C 0.88836 0.25973 0.08851 0.0
C2424 C 0.92538 0.21659 0.24341 0.0
C2425 C 0.91898 0.22195 0.23176 0.0
C2426 C 0.91606 0.23911 0.14057 0.0
C2427 C 0.89497 0.25069 0.14277 0.0
C2428 C 0.90067 0.24374 0.15354 0.0
C2429 C 0.918 0.22442 0.18722 0.0
C2430 C 0.91186 0.23089 0.17507 0.0
H2431 H 0.88314 0.26544 0.1931 0.0
H2432 H 0.89219 0.25372 0.211 0.0
H2433 H 0.91402 0.25166 0.10322 0.0
H2434 H 0.93371 0.21311 0.14078 0.0
H2435 H 0.92242 0.2224 0.11992 0.0
C2436 C 0.74364 0.62381 0.16865 0.0
C2437 C 0.74192 0.62014 0.12448 0.0
C2438 C 0.7504 0.63567 0.17904 0.0
C2439 C 0.76205 0.66505 0.12995 0.0
H2440 H 0.78271 0.67508 0.23121 0.0
C2441 C 0.79196 0.71389 0.16691 0.0
C2442 C 0.79302 0.7173 0.21127 0.0
C2443 C 0.7867 0.70208 0.1558 0.0
C2444 C 0.77687 0.67245 0.20315 0.0
H2445 H 0.74667 0.62571 0.05674 0.0
H2446 H 0.75849 0.64642 0.07458 0.0
H2447 H 0.77131 0.6544 0.21342 0.0
H2448 H 0.79081 0.71133 0.27895 0.0
H2449 H 0.7813 0.69069 0.26001 0.0
H2450 H 0.76731 0.68298 0.12014 0.0
C2451 C 0.7543 0.64026 0.10125 0.0
C2452 C 0.77033 0.66056 0.19292 0.0
C2453 C 0.74752 0.62842 0.09097 0.0
C2454 C 0.78964 0.70883 0.24444 0.0
C2455 C 0.78437 0.69701 0.23346 0.0
C2456 C 0.76845 0.6769 0.14047 0.0
C2457 C 0.75577 0.64406 0.14541 0.0
C2458 C 0.76281 0.65671 0.15624 0.0
C2459 C 0.78255 0.69344 0.18894 0.0
C2460 C 0.77597 0.68079 0.17721 0.0
H2461 H 0.73958 0.61752 0.19506 0.0
H2462 H 0.75128 0.63829 0.21336 0.0
H2463 H 0.75634 0.66243 0.10152 0.0
H2464 H 0.79488 0.72035 0.14082 0.0
H2465 H 0.78582 0.69972 0.1212 0.0
C2466 C 0.07803 0.29147 0.83337 0.0
C2467 C 0.07553 0.28786 0.78921 0.0
C2468 C 0.08476 0.30332 0.84375 0.0
C2469 C 0.09459 0.33262 0.79738 0.0
H2470 H 0.11711 0.34299 0.89274 0.0
C2471 C 0.12421 0.38155 0.83492 0.0
C2472 C 0.12597 0.38478 0.87955 0.0
C2473 C 0.11888 0.36978 0.82295 0.0
C2474 C 0.11075 0.34025 0.86638 0.0
H2475 H 0.07895 0.29356 0.72114 0.0
H2476 H 0.09071 0.3143 0.739 0.0
H2477 H 0.10605 0.32235 0.87411 0.0
H2478 H 0.12483 0.37856 0.94644 0.0
H2479 H 0.11524 0.358 0.92607 0.0
H2480 H 0.09903 0.35041 0.7902 0.0
C2481 C 0.08714 0.30806 0.76577 0.0
C2482 C 0.10442 0.32839 0.85566 0.0
C2483 C 0.08039 0.29621 0.75549 0.0
C2484 C 0.12313 0.37619 0.91187 0.0
C2485 C 0.11781 0.36443 0.90003 0.0
C2486 C 0.10081 0.34444 0.80841 0.0
C2487 C 0.08932 0.31178 0.81007 0.0
C2488 C 0.09623 0.32442 0.82109 0.0
C2489 C 0.1154 0.36104 0.85544 0.0
C2490 C 0.10898 0.34844 0.84308 0.0
H2491 H 0.07455 0.28512 0.85987 0.0
H2492 H 0.08621 0.30587 0.87819 0.0
H2493 H 0.08835 0.32988 0.77071 0.0
H2494 H 0.12668 0.38811 0.80939 0.0
H2495 H 0.11748 0.36755 0.78822 0.0
C2496 C 0.71823 0.79107 0.83917 0.0
C2497 C 0.72147 0.79255 0.79455 0.0
C2498 C 0.70648 0.78608 0.85102 0.0
C2499 C 0.67707 0.7782 0.80657 0.0
H2500 H 0.66637 0.7562 0.90359 0.0
C2501 C 0.62817 0.74561 0.83815 0.0
C2502 C 0.62443 0.74309 0.88216 0.0
C2503 C 0.64005 0.75241 0.82831 0.0
C2504 C 0.66919 0.76233 0.87652 0.0
H2505 H 0.71533 0.79129 0.72746 0.0
H2506 H 0.6948 0.78226 0.74765 0.0
H2507 H 0.68692 0.76665 0.88468 0.0
H2508 H 0.6299 0.74655 0.95048 0.0
H2509 H 0.65068 0.75846 0.93357 0.0
H2510 H 0.65922 0.77358 0.79783 0.0
C2511 C 0.7012 0.7848 0.77379 0.0
C2512 C 0.68104 0.76843 0.86583 0.0
C2513 C 0.71293 0.7898 0.76207 0.0
C2514 C 0.63266 0.74802 0.91625 0.0
C2515 C 0.64453 0.75485 0.9065 0.0
C2516 C 0.66518 0.77198 0.81696 0.0
C2517 C 0.69776 0.78264 0.81841 0.0
C2518 C 0.68516 0.77644 0.83064 0.0
C2519 C 0.6484 0.75703 0.86238 0.0
C2520 C 0.66108 0.76391 0.85194 0.0
H2521 H 0.72475 0.79349 0.86479 0.0
H2522 H 0.70423 0.78487 0.88576 0.0
H2523 H 0.67991 0.78445 0.7798 0.0
H2524 H 0.62192 0.74208 0.81137 0.0
H2525 H 0.64271 0.75385 0.79399 0.0
C2526 C 0.22047 0.92947 0.83243 0.0
C2527 C 0.21871 0.93128 0.78813 0.0
C2528 C 0.22559 0.92274 0.84311 0.0
C2529 C 0.24387 0.9116 0.79546 0.0
H2530 H 0.23267 0.89038 0.895 0.0
C2531 C 0.26314 0.88201 0.83379 0.0
C2532 C 0.26491 0.88051 0.87837 0.0
C2533 C 0.25665 0.88731 0.82207 0.0
C2534 C 0.23605 0.8964 0.86749 0.0
H2535 H 0.21987 0.92672 0.72045 0.0
H2536 H 0.22884 0.91501 0.73882 0.0
H2537 H 0.22331 0.90167 0.87665 0.0
H2538 H 0.26029 0.88204 0.94554 0.0
H2539 H 0.24934 0.89166 0.92563 0.0
H2540 H 0.25684 0.9067 0.78695 0.0
C2541 C 0.22668 0.91908 0.76536 0.0
C2542 C 0.23065 0.90285 0.85691 0.0
C2543 C 0.22158 0.9258 0.75478 0.0
C2544 C 0.2594 0.88355 0.91095 0.0
C2545 C 0.25295 0.88888 0.89938 0.0
C2546 C 0.24941 0.90532 0.80645 0.0
C2547 C 0.22884 0.91753 0.80965 0.0
C2548 C 0.23451 0.91057 0.82081 0.0
C2549 C 0.25169 0.89108 0.85477 0.0
C2550 C 0.24558 0.89759 0.84259 0.0
H2551 H 0.2181 0.93344 0.8587 0.0
H2552 H 0.22719 0.92179 0.87753 0.0
H2553 H 0.24708 0.91743 0.76743 0.0
H2554 H 0.26702 0.87937 0.80808 0.0
H2555 H 0.25558 0.88849 0.78733 0.0
C2556 C 0.7102 0.92301 0.75835 0.0
C2557 C 0.71868 0.92824 0.79142 0.0
C2558 C 0.69839 0.9164 0.76947 0.0
C2559 C 0.67836 0.91229 0.8627 0.0
H2560 H 0.6558 0.88679 0.79045 0.0
C2561 C 0.63003 0.88469 0.91368 0.0
C2562 C 0.62168 0.88197 0.88045 0.0
C2563 C 0.64184 0.88973 0.90301 0.0
C2564 C 0.66198 0.89396 0.81076 0.0
H2565 H 0.72178 0.92959 0.86185 0.0
H2566 H 0.70119 0.9179 0.88171 0.0
H2567 H 0.67646 0.89611 0.77217 0.0
H2568 H 0.61889 0.8816 0.80995 0.0
H2569 H 0.63962 0.89062 0.79095 0.0
H2570 H 0.66395 0.9099 0.90201 0.0
C2571 C 0.70351 0.91932 0.84707 0.0
C2572 C 0.67385 0.89934 0.80025 0.0
C2573 C 0.71531 0.92595 0.83583 0.0
C2574 C 0.62524 0.88385 0.83614 0.0
C2575 C 0.63708 0.88893 0.82536 0.0
C2576 C 0.66653 0.9068 0.87353 0.0
C2577 C 0.69485 0.91471 0.81403 0.0
C2578 C 0.68221 0.90863 0.82595 0.0
C2579 C 0.64554 0.89201 0.85872 0.0
C2580 C 0.65817 0.89764 0.84751 0.0
H2581 H 0.71268 0.92429 0.72382 0.0
H2582 H 0.69205 0.91304 0.74299 0.0
H2583 H 0.68445 0.91956 0.88283 0.0
H2584 H 0.62741 0.88289 0.94801 0.0
H2585 H 0.64807 0.89174 0.92948 0.0
C2586 C 0.0801 0.79048 0.83859 0.0
C2587 C 0.07822 0.79199 0.79414 0.0
C2588 C 0.08671 0.78528 0.84984 0.0
C2589 C 0.10744 0.77652 0.80328 0.0
H2590 H 0.09639 0.75499 0.90185 0.0
C2591 C 0.12305 0.74331 0.83432 0.0
C2592 C 0.12455 0.74102 0.87831 0.0
C2593 C 0.11802 0.75018 0.82461 0.0
C2594 C 0.09962 0.76097 0.87425 0.0
H2595 H 0.08275 0.79058 0.72671 0.0
H2596 H 0.09394 0.78116 0.7458 0.0
H2597 H 0.08662 0.7658 0.88369 0.0
H2598 H 0.12305 0.7449 0.94661 0.0
H2599 H 0.1143 0.75691 0.92995 0.0
H2600 H 0.12023 0.77135 0.79321 0.0
C2601 C 0.09032 0.78385 0.77231 0.0
C2602 C 0.09407 0.76729 0.86403 0.0
C2603 C 0.08374 0.78906 0.76121 0.0
C2604 C 0.12155 0.74619 0.91242 0.0
C2605 C 0.11657 0.75308 0.90282 0.0
C2606 C 0.11287 0.77004 0.81312 0.0
C2607 C 0.09169 0.78163 0.81677 0.0
C2608 C 0.09788 0.77516 0.82838 0.0
C2609 C 0.11463 0.75508 0.85878 0.0
C2610 C 0.109 0.76214 0.84863 0.0
H2611 H 0.0762 0.79303 0.86456 0.0
H2612 H 0.08785 0.78406 0.88447 0.0
H2613 H 0.11081 0.78265 0.77613 0.0
H2614 H 0.12552 0.73958 0.80749 0.0
H2615 H 0.1166 0.75147 0.79034 0.0
C2616 C 0.21604 0.29089 0.83755 0.0
C2617 C 0.21486 0.28747 0.79317 0.0
C2618 C 0.22132 0.30271 0.84861 0.0
C2619 C 0.23045 0.33216 0.80221 0.0
H2620 H 0.25201 0.3425 0.9007 0.0
C2621 C 0.26317 0.38097 0.83489 0.0
C2622 C 0.26571 0.38464 0.87896 0.0
C2623 C 0.25637 0.36911 0.8248 0.0
C2624 C 0.246 0.33979 0.87323 0.0
H2625 H 0.21691 0.2934 0.72547 0.0
H2626 H 0.22639 0.31407 0.7444 0.0
H2627 H 0.24114 0.32193 0.88222 0.0
H2628 H 0.26232 0.37906 0.94717 0.0
H2629 H 0.25034 0.35834 0.92988 0.0
H2630 H 0.23549 0.3501 0.79289 0.0
C2631 C 0.22343 0.30774 0.77091 0.0
C2632 C 0.23968 0.32794 0.86276 0.0
C2633 C 0.21817 0.29592 0.75996 0.0
C2634 C 0.26083 0.37636 0.91288 0.0
C2635 C 0.25396 0.36451 0.9029 0.0
C2636 C 0.23685 0.34405 0.8125 0.0
C2637 C 0.22532 0.31132 0.81541 0.0
C2638 C 0.23182 0.32395 0.82709 0.0
C2639 C 0.25174 0.3607 0.8587 0.0
C2640 C 0.24475 0.34803 0.84806 0.0
H2641 H 0.21319 0.28444 0.86366 0.0
H2642 H 0.22232 0.30509 0.8832 0.0
H2643 H 0.22434 0.32941 0.77498 0.0
H2644 H 0.26668 0.38727 0.80826 0.0
H2645 H 0.25493 0.36651 0.79042 0.0
C2646 C 0.92906 0.71584 0.16527 0.0
C2647 C 0.9313 0.71905 0.20984 0.0
C2648 C 0.92226 0.70409 0.1535 0.0
C2649 C 0.90137 0.6746 0.19856 0.0
H2650 H 0.9121 0.66418 0.09884 0.0
C2651 C 0.88493 0.6258 0.16436 0.0
C2652 C 0.88353 0.62215 0.12019 0.0
C2653 C 0.89004 0.63765 0.17466 0.0
C2654 C 0.90893 0.66692 0.12663 0.0
H2655 H 0.92721 0.71286 0.27718 0.0
H2656 H 0.91561 0.69232 0.25703 0.0
H2657 H 0.92219 0.68471 0.11815 0.0
H2658 H 0.88524 0.62776 0.05213 0.0
H2659 H 0.89413 0.6485 0.06984 0.0
H2660 H 0.88826 0.65671 0.20747 0.0
C2661 C 0.91914 0.69875 0.23088 0.0
C2662 C 0.91469 0.67875 0.13759 0.0
C2663 C 0.92594 0.71049 0.24253 0.0
C2664 C 0.88667 0.63045 0.08645 0.0
C2665 C 0.89173 0.6423 0.09665 0.0
C2666 C 0.89569 0.66273 0.18781 0.0
C2667 C 0.91742 0.69535 0.18617 0.0
C2668 C 0.91101 0.68276 0.17377 0.0
C2669 C 0.89361 0.64607 0.14092 0.0
C2670 C 0.89943 0.65873 0.15182 0.0
H2671 H 0.93283 0.72239 0.13955 0.0
H2672 H 0.92086 0.70187 0.11877 0.0
H2673 H 0.89814 0.67736 0.22616 0.0
H2674 H 0.88233 0.61949 0.1909 0.0
H2675 H 0.89141 0.64023 0.20907 0.0
C2676 C 0.38251 0.26198 0.1697 0.0
C2677 C 0.38595 0.26367 0.12529 0.0
C2678 C 0.37069 0.25548 0.18088 0.0
C2679 C 0.34121 0.23463 0.1344 0.0
H2680 H 0.33072 0.24553 0.23337 0.0
C2681 C 0.29232 0.21829 0.16811 0.0
C2682 C 0.28868 0.21629 0.21232 0.0
C2683 C 0.3042 0.2237 0.15764 0.0
C2684 C 0.33348 0.24237 0.20563 0.0
H2685 H 0.38003 0.25888 0.05795 0.0
H2686 H 0.3594 0.24791 0.07686 0.0
H2687 H 0.35128 0.25552 0.21456 0.0
H2688 H 0.29436 0.21737 0.28004 0.0
H2689 H 0.31512 0.2269 0.26203 0.0
H2690 H 0.32327 0.2217 0.12481 0.0
C2691 C 0.36569 0.2516 0.10341 0.0
C2692 C 0.34534 0.24803 0.19505 0.0
C2693 C 0.3775 0.25806 0.09238 0.0
C2694 C 0.29703 0.21926 0.24578 0.0
C2695 C 0.30889 0.22467 0.23542 0.0
C2696 C 0.32931 0.2291 0.14454 0.0
C2697 C 0.36207 0.25041 0.1478 0.0
C2698 C 0.3494 0.24423 0.15936 0.0
C2699 C 0.31264 0.22703 0.19122 0.0
C2700 C 0.3253 0.23291 0.18029 0.0
H2701 H 0.38895 0.26594 0.1957 0.0
H2702 H 0.36833 0.25447 0.21549 0.0
H2703 H 0.34396 0.23127 0.10723 0.0
H2704 H 0.28599 0.21585 0.14174 0.0
H2705 H 0.30679 0.22543 0.12328 0.0
C2706 C 0.7495 0.12214 0.09094 0.0
C2707 C 0.744 0.1252 0.12354 0.0
C2708 C 0.75586 0.11672 0.10246 0.0
C2709 C 0.75907 0.09997 0.19489 0.0
H2710 H 0.78527 0.10365 0.12534 0.0
C2711 C 0.78659 0.07913 0.24642 0.0
C2712 C 0.78951 0.07373 0.21295 0.0
C2713 C 0.78153 0.08591 0.23596 0.0
C2714 C 0.77791 0.10245 0.14488 0.0
H2715 H 0.74183 0.12625 0.19384 0.0
H2716 H 0.75311 0.11695 0.21449 0.0
H2717 H 0.77609 0.11511 0.10718 0.0
H2718 H 0.79026 0.07174 0.14234 0.0
H2719 H 0.78125 0.08348 0.1237 0.0
H2720 H 0.76118 0.08765 0.23348 0.0
C2721 C 0.7521 0.11821 0.17978 0.0
C2722 C 0.7726 0.10901 0.13443 0.0
C2723 C 0.7457 0.1236 0.16811 0.0
C2724 C 0.78784 0.07565 0.16869 0.0
C2725 C 0.78277 0.08242 0.15812 0.0
C2726 C 0.7645 0.09357 0.20574 0.0
C2727 C 0.75705 0.11443 0.14703 0.0
C2728 C 0.76305 0.10781 0.1591 0.0
C2729 C 0.77948 0.08758 0.19168 0.0
C2730 C 0.7739 0.09463 0.18062 0.0
H2731 H 0.74866 0.12372 0.05637 0.0
H2732 H 0.75947 0.11395 0.07618 0.0
H2733 H 0.75161 0.09859 0.21421 0.0
H2734 H 0.78823 0.07813 0.28075 0.0
H2735 H 0.77934 0.08993 0.26258 0.0
C2736 C 0.04346 0.45189 0.42332 0.0
C2737 C 0.05171 0.45535 0.45736 0.0
C2738 C 0.03159 0.44687 0.43313 0.0
C2739 C 0.01109 0.44402 0.52198 0.0
H2740 H 0.9891 0.41664 0.45627 0.0
C2741 C 0.96316 0.41511 0.57698 0.0
C2742 C 0.95463 0.40927 0.54455 0.0
C2743 C 0.97494 0.42157 0.56538 0.0
C2744 C 0.99506 0.42439 0.47454 0.0
H2745 H 0.05427 0.45711 0.52811 0.0
H2746 H 0.03349 0.44816 0.54561 0.0
H2747 H 0.00967 0.42637 0.43751 0.0
H2748 H 0.95142 0.40653 0.47437 0.0
H2749 H 0.972 0.41793 0.4536 0.0
H2750 H 0.99644 0.44223 0.55836 0.0
C2751 C 0.03613 0.44923 0.51127 0.0
C2752 C 0.00691 0.42993 0.46394 0.0
C2753 C 0.048 0.45427 0.50137 0.0
C2754 C 0.95793 0.41068 0.5 0.0
C2755 C 0.96971 0.41716 0.48826 0.0
C2756 C 0.99921 0.43857 0.53226 0.0
C2757 C 0.02776 0.44538 0.47726 0.0
C2758 C 0.0151 0.43974 0.48778 0.0
C2759 C 0.97841 0.42249 0.5209 0.0
C2760 C 0.99103 0.42862 0.50887 0.0
H2761 H 0.04619 0.45308 0.38906 0.0
H2762 H 0.02542 0.44423 0.40611 0.0
H2763 H 0.01712 0.45168 0.54051 0.0
H2764 H 0.96074 0.41448 0.61148 0.0
H2765 H 0.98132 0.42548 0.59154 0.0
C2766 C 0.59606 0.55079 0.50647 0.0
C2767 C 0.5984 0.54953 0.55069 0.0
C2768 C 0.58955 0.55615 0.49598 0.0
C2769 C 0.58033 0.57609 0.542 0.0
H2770 H 0.55775 0.56431 0.4468 0.0
C2771 C 0.55153 0.59633 0.5044 0.0
C2772 C 0.54978 0.59782 0.45976 0.0
C2773 C 0.55666 0.58971 0.51637 0.0
C2774 C 0.56413 0.56782 0.47311 0.0
H2775 H 0.59493 0.55179 0.6187 0.0
H2776 H 0.58359 0.56122 0.60062 0.0
H2777 H 0.56841 0.55432 0.46557 0.0
H2778 H 0.55075 0.59262 0.3929 0.0
H2779 H 0.56 0.58133 0.4133 0.0
H2780 H 0.57632 0.58976 0.54898 0.0
C2781 C 0.5871 0.55847 0.57393 0.0
C2782 C 0.57023 0.56206 0.48392 0.0
C2783 C 0.59361 0.55312 0.58433 0.0
C2784 C 0.55244 0.59193 0.42747 0.0
C2785 C 0.55757 0.58531 0.43932 0.0
C2786 C 0.57435 0.58193 0.53088 0.0
C2787 C 0.58508 0.56015 0.5296 0.0
C2788 C 0.57843 0.56614 0.51845 0.0
C2789 C 0.55996 0.58428 0.48391 0.0
C2790 C 0.56615 0.57788 0.49629 0.0
H2791 H 0.59948 0.54785 0.48002 0.0
H2792 H 0.58821 0.55735 0.46153 0.0
H2793 H 0.58661 0.5795 0.56859 0.0
H2794 H 0.54919 0.60053 0.52991 0.0
H2795 H 0.55805 0.58886 0.5511 0.0
C2796 C 0.45576 0.04295 0.58221 0.0
C2797 C 0.45895 0.05122 0.54833 0.0
C2798 C 0.45068 0.03109 0.5722 0.0
C2799 C 0.44665 0.01052 0.48136 0.0
H2800 H 0.42027 0.98865 0.55176 0.0
C2801 C 0.41647 0.96258 0.42832 0.0
C2802 C 0.41122 0.95409 0.46136 0.0
C2803 C 0.42322 0.97436 0.4395 0.0
C2804 C 0.42774 0.99458 0.5321 0.0
H2805 H 0.46019 0.05381 0.47758 0.0
H2806 H 0.45105 0.03304 0.45974 0.0
H2807 H 0.43036 0.00921 0.57053 0.0
H2808 H 0.40984 0.95096 0.53178 0.0
H2809 H 0.42171 0.97155 0.55173 0.0
H2810 H 0.44417 0.99583 0.44335 0.0
C2811 C 0.45242 0.03566 0.49411 0.0
C2812 C 0.43349 0.00643 0.54275 0.0
C2813 C 0.45756 0.04753 0.50422 0.0
C2814 C 0.41352 0.95744 0.5058 0.0
C2815 C 0.42026 0.96923 0.51709 0.0
C2816 C 0.44097 0.99864 0.47091 0.0
C2817 C 0.44881 0.02727 0.528 0.0
C2818 C 0.44296 0.01459 0.51733 0.0
C2819 C 0.425 0.97788 0.48407 0.0
C2820 C 0.43138 0.9905 0.496 0.0
H2821 H 0.45718 0.04568 0.61649 0.0
H2822 H 0.44826 0.02493 0.59914 0.0
H2823 H 0.45405 0.01652 0.46151 0.0
H2824 H 0.41516 0.96011 0.39377 0.0
H2825 H 0.42667 0.98072 0.41309 0.0
C2826 C 0.59257 0.04381 0.57402 0.0
C2827 C 0.59789 0.05227 0.54094 0.0
C2828 C 0.58582 0.03202 0.56292 0.0
C2829 C 0.58149 0.01175 0.47074 0.0
H2830 H 0.55514 0.98982 0.54118 0.0
C2831 C 0.55369 0.96328 0.42147 0.0
C2832 C 0.55045 0.95506 0.45556 0.0
C2833 C 0.55874 0.97516 0.4312 0.0
C2834 C 0.56254 0.99581 0.52139 0.0
H2835 H 0.59937 0.05536 0.47049 0.0
H2836 H 0.5875 0.03476 0.45067 0.0
H2837 H 0.56491 0.01053 0.55895 0.0
H2838 H 0.54911 0.95257 0.52636 0.0
H2839 H 0.55821 0.97336 0.54372 0.0
H2840 H 0.57899 0.9971 0.43275 0.0
C2841 C 0.5889 0.03711 0.4853 0.0
C2842 C 0.56817 0.00771 0.5316 0.0
C2843 C 0.59564 0.0489 0.49652 0.0
C2844 C 0.55178 0.95882 0.49957 0.0
C2845 C 0.5569 0.9707 0.5094 0.0
C2846 C 0.5758 0.99989 0.46032 0.0
C2847 C 0.58411 0.02847 0.51838 0.0
C2848 C 0.57777 0.01584 0.50658 0.0
C2849 C 0.56054 0.97904 0.47532 0.0
C2850 C 0.56632 0.99174 0.48572 0.0
H2851 H 0.59384 0.0463 0.60855 0.0
H2852 H 0.58233 0.02568 0.58937 0.0
H2853 H 0.58897 0.01768 0.45114 0.0
H2854 H 0.55232 0.96051 0.38725 0.0
H2855 H 0.56119 0.98128 0.40411 0.0
C2856 C 0.96393 0.5524 0.58002 0.0
C2857 C 0.95569 0.54974 0.54642 0.0
C2858 C 0.97577 0.55734 0.56981 0.0
C2859 C 0.996 0.56117 0.47856 0.0
H2860 H 0.01857 0.58684 0.55007 0.0
C2861 C 0.04417 0.58975 0.42564 0.0
C2862 C 0.05271 0.59503 0.45845 0.0
C2863 C 0.03238 0.58327 0.43703 0.0
C2864 C 0.01245 0.57955 0.53011 0.0
H2865 H 0.9531 0.54937 0.47579 0.0
H2866 H 0.97385 0.5582 0.45762 0.0
H2867 H 0.99804 0.57741 0.56893 0.0
H2868 H 0.05592 0.59663 0.52881 0.0
H2869 H 0.03533 0.58515 0.5492 0.0
H2870 H 0.01045 0.56307 0.44047 0.0
C2871 C 0.97122 0.55655 0.49195 0.0
C2872 C 1.00061 0.5742 0.54076 0.0
C2873 C 0.95937 0.55158 0.50225 0.0
C2874 C 0.0494 0.59294 0.50297 0.0
C2875 C 0.03761 0.58643 0.5145 0.0
C2876 C 0.00787 0.56642 0.46824 0.0
C2877 C 0.97958 0.55956 0.52565 0.0
C2878 C 0.99222 0.56503 0.51487 0.0
C2879 C 0.0289 0.58175 0.48164 0.0
C2880 C 0.01627 0.57575 0.49368 0.0
H2881 H 0.96121 0.55063 0.61425 0.0
H2882 H 0.98192 0.55932 0.59654 0.0
H2883 H 0.9898 0.55398 0.45839 0.0
H2884 H 0.04659 0.5909 0.39104 0.0
H2885 H 0.026 0.57987 0.41068 0.0
C2886 C 0.4162 0.45644 0.42742 0.0
C2887 C 0.4106 0.45942 0.45985 0.0
C2888 C 0.4227 0.45117 0.4392 0.0
C2889 C 0.42596 0.43446 0.53115 0.0
H2890 H 0.45296 0.4393 0.46403 0.0
C2891 C 0.45355 0.41367 0.58267 0.0
C2892 C 0.45691 0.40875 0.54877 0.0
C2893 C 0.44852 0.4205 0.57267 0.0
C2894 C 0.44537 0.43777 0.48289 0.0
H2895 H 0.40829 0.46043 0.53008 0.0
H2896 H 0.41973 0.45131 0.55115 0.0
H2897 H 0.44344 0.45044 0.44571 0.0
H2898 H 0.45849 0.40772 0.47804 0.0
H2899 H 0.44949 0.41948 0.46019 0.0
H2900 H 0.42808 0.422 0.56888 0.0
C2901 C 0.41876 0.45258 0.51641 0.0
C2902 C 0.43989 0.44416 0.47235 0.0
C2903 C 0.41227 0.45785 0.50449 0.0
C2904 C 0.45572 0.41124 0.50468 0.0
C2905 C 0.45066 0.41804 0.49458 0.0
C2906 C 0.43153 0.42818 0.54197 0.0
C2907 C 0.42387 0.44895 0.48384 0.0
C2908 C 0.43005 0.44253 0.49614 0.0
C2909 C 0.4469 0.42268 0.52846 0.0
C2910 C 0.44123 0.42966 0.51773 0.0
H2911 H 0.41537 0.45798 0.3928 0.0
H2912 H 0.42643 0.44849 0.41311 0.0
H2913 H 0.4183 0.43278 0.54977 0.0
H2914 H 0.45482 0.41223 0.61697 0.0
H2915 H 0.44596 0.42412 0.59959 0.0
C2916 C 0.24019 0.08214 0.26155 0.0
C2917 C 0.24944 0.0819 0.28328 0.0
C2918 C 0.23857 0.09177 0.26586 0.0
C2919 C 0.24749 0.11881 0.33173 0.0
H2920 H 0.24137 0.13008 0.22248 0.0
C2921 C 0.25669 0.16611 0.30937 0.0
C2922 C 0.24926 0.16809 0.28205 0.0
C2923 C 0.2552 0.15492 0.31373 0.0
C2924 C 0.24288 0.12698 0.2535 0.0
H2925 H 0.26395 0.09139 0.32817 0.0
H2926 H 0.26119 0.10816 0.33544 0.0
H2927 H 0.24133 0.1117 0.22296 0.0
H2928 H 0.23413 0.15972 0.23929 0.0
H2929 H 0.23143 0.14018 0.2473 0.0
H2930 H 0.24929 0.13426 0.36199 0.0
C2931 C 0.2551 0.10089 0.31534 0.0
C2932 C 0.24285 0.1164 0.25379 0.0
C2933 C 0.25671 0.09127 0.31104 0.0
C2934 C 0.24003 0.15852 0.26051 0.0
C2935 C 0.23854 0.14732 0.26484 0.0
C2936 C 0.24752 0.12941 0.33143 0.0
C2937 C 0.24617 0.1014 0.292 0.0
C2938 C 0.24529 0.11222 0.29277 0.0
C2939 C 0.24624 0.1454 0.29085 0.0
C2940 C 0.24536 0.13371 0.29217 0.0
H2941 H 0.23441 0.07506 0.23999 0.0
H2942 H 0.23147 0.09176 0.24801 0.0
H2943 H 0.24923 0.1158 0.36251 0.0
H2944 H 0.26392 0.17328 0.32634 0.0
H2945 H 0.26137 0.15382 0.33369 0.0
C2946 C 0.83856 0.09001 0.31648 0.0
C2947 C 0.83669 0.08122 0.28607 0.0
C2948 C 0.84964 0.09982 0.32155 0.0
C2949 C 0.88121 0.11222 0.2956 0.0
H2950 H 0.88144 0.14157 0.30168 0.0
C2951 C 0.92248 0.15741 0.2631 0.0
C2952 C 0.92368 0.16704 0.28715 0.0
C2953 C 0.91247 0.14641 0.26785 0.0
C2954 C 0.88158 0.13347 0.30076 0.0
H2955 H 0.84512 0.07562 0.23851 0.0
H2956 H 0.86443 0.0928 0.24697 0.0
H2957 H 0.86298 0.12339 0.30141 0.0
H2958 H 0.91564 0.17248 0.33704 0.0
H2959 H 0.89839 0.15334 0.34595 0.0
H2960 H 0.89989 0.12242 0.29414 0.0
C2961 C 0.85736 0.09207 0.26727 0.0
C2962 C 0.87095 0.123 0.30062 0.0
C2963 C 0.84627 0.08222 0.26231 0.0
C2964 C 0.91496 0.16528 0.31773 0.0
C2965 C 0.90501 0.15431 0.32258 0.0
C2966 C 0.89188 0.12273 0.29572 0.0
C2967 C 0.85913 0.10114 0.29619 0.0
C2968 C 0.87059 0.11222 0.29797 0.0
C2969 C 0.90347 0.14479 0.29683 0.0
C2970 C 0.89221 0.1335 0.29824 0.0
H2971 H 0.8314 0.08949 0.33554 0.0
H2972 H 0.85071 0.10649 0.34484 0.0
H2973 H 0.88128 0.10409 0.29393 0.0
H2974 H 0.92901 0.15847 0.23915 0.0
H2975 H 0.91157 0.13932 0.24731 0.0
C2976 C 0.91727 0.75197 0.32042 0.0
C2977 C 0.92591 0.75891 0.28955 0.0
C2978 C 0.90734 0.753 0.32577 0.0
C2979 C 0.89411 0.77142 0.29922 0.0
H2980 H 0.86523 0.74185 0.30568 0.0
C2981 C 0.84848 0.7662 0.26491 0.0
C2982 C 0.83886 0.75759 0.28843 0.0
C2983 C 0.85959 0.7675 0.27037 0.0
C2984 C 0.87319 0.75022 0.30469 0.0
H2985 H 0.93113 0.7728 0.2416 0.0
H2986 H 0.91374 0.77455 0.25063 0.0
H2987 H 0.8837 0.74217 0.30596 0.0
H2988 H 0.83351 0.74406 0.33804 0.0
H2989 H 0.85284 0.74647 0.34824 0.0
H2990 H 0.88348 0.77944 0.29716 0.0
C2991 C 0.91468 0.76836 0.27104 0.0
C2992 C 0.88383 0.7504 0.30485 0.0
C2993 C 0.92466 0.76735 0.26579 0.0
C2994 C 0.84071 0.75073 0.31918 0.0
C2995 C 0.8518 0.75205 0.32475 0.0
C2996 C 0.88342 0.77124 0.29909 0.0
C2997 C 0.90573 0.76097 0.30023 0.0
C2998 C 0.89445 0.76099 0.30198 0.0
C2999 C 0.86133 0.76023 0.29955 0.0
C3000 C 0.87281 0.76062 0.30167 0.0
H3001 H 0.91798 0.74543 0.33949 0.0
H3002 H 0.90077 0.74735 0.34929 0.0
H3003 H 0.9021 0.77975 0.29739 0.0
H3004 H 0.84736 0.77161 0.24083 0.0
H3005 H 0.86668 0.77384 0.25018 0.0
C3006 C 0.08361 0.23936 0.74159 0.0
C3007 C 0.08241 0.24776 0.71738 0.0
C3008 C 0.09351 0.23821 0.73639 0.0
C3009 C 0.12431 0.25564 0.70138 0.0
H3010 H 0.12406 0.22633 0.71025 0.0
C3011 C 0.16691 0.25432 0.68657 0.0
C3012 C 0.16867 0.24748 0.7177 0.0
C3013 C 0.1559 0.2532 0.68116 0.0
C3014 C 0.12429 0.23459 0.70798 0.0
H3015 H 0.09037 0.26109 0.6669 0.0
H3016 H 0.10746 0.25894 0.65724 0.0
H3017 H 0.10564 0.2264 0.7102 0.0
H3018 H 0.16009 0.2337 0.76616 0.0
H3019 H 0.14091 0.23181 0.75706 0.0
H3020 H 0.14289 0.26388 0.69998 0.0
C3021 C 0.10091 0.25341 0.68102 0.0
C3022 C 0.11372 0.23464 0.70796 0.0
C3023 C 0.09104 0.25457 0.68629 0.0
C3024 C 0.15903 0.23908 0.74178 0.0
C3025 C 0.14801 0.23798 0.73647 0.0
C3026 C 0.13484 0.2556 0.70141 0.0
C3027 C 0.10244 0.24543 0.70681 0.0
C3028 C 0.11359 0.24518 0.70482 0.0
C3029 C 0.14636 0.24525 0.70689 0.0
C3030 C 0.13501 0.24509 0.70488 0.0
H3031 H 0.07714 0.23398 0.76592 0.0
H3032 H 0.0944 0.23202 0.75704 0.0
H3033 H 0.12461 0.26396 0.69992 0.0
H3034 H 0.17412 0.26083 0.66727 0.0
H3035 H 0.15493 0.25876 0.65737 0.0
C3036 C 0.77087 0.84787 0.73808 0.0
C3037 C 0.76158 0.83832 0.71668 0.0
C3038 C 0.77245 0.8591 0.73351 0.0
C3039 C 0.76338 0.87703 0.66719 0.0
H3040 H 0.76915 0.89441 0.77624 0.0
C3041 C 0.7529 0.91422 0.6894 0.0
C3042 C 0.76 0.92362 0.71731 0.0
C3043 C 0.75484 0.90481 0.68466 0.0
C3044 C 0.76775 0.88981 0.74526 0.0
H3045 H 0.74699 0.8332 0.67208 0.0
H3046 H 0.7497 0.85269 0.66431 0.0
H3047 H 0.76953 0.87625 0.77608 0.0
H3048 H 0.77508 0.93075 0.76045 0.0
H3049 H 0.77858 0.91443 0.7517 0.0
H3050 H 0.76134 0.8905 0.63662 0.0
C3051 C 0.75584 0.85157 0.68438 0.0
C3052 C 0.76797 0.87936 0.74517 0.0
C3053 C 0.75425 0.84035 0.68899 0.0
C3054 C 0.76942 0.92364 0.73878 0.0
C3055 C 0.77137 0.91422 0.73405 0.0
C3056 C 0.76317 0.8875 0.66727 0.0
C3057 C 0.7648 0.86106 0.70736 0.0
C3058 C 0.76562 0.87273 0.70629 0.0
C3059 C 0.76394 0.90456 0.7077 0.0
C3060 C 0.76518 0.89395 0.70647 0.0
H3061 H 0.77668 0.84661 0.75961 0.0
H3062 H 0.77955 0.86623 0.75115 0.0
H3063 H 0.76172 0.87226 0.63648 0.0
H3064 H 0.74554 0.9139 0.67245 0.0
H3065 H 0.74887 0.8975 0.66442 0.0
C3066 C 0.16181 0.92379 0.73801 0.0
C3067 C 0.1713 0.92389 0.71676 0.0
C3068 C 0.15054 0.91419 0.73383 0.0
C3069 C 0.13233 0.88717 0.66823 0.0
H3070 H 0.11456 0.87616 0.77679 0.0
C3071 C 0.09393 0.84008 0.69031 0.0
C3072 C 0.08453 0.83813 0.71757 0.0
C3073 C 0.10362 0.85126 0.68578 0.0
C3074 C 0.11928 0.8792 0.74594 0.0
H3075 H 0.17628 0.91415 0.67307 0.0
H3076 H 0.15669 0.89743 0.66599 0.0
H3077 H 0.13306 0.89439 0.77674 0.0
H3078 H 0.07773 0.84656 0.75986 0.0
H3079 H 0.09458 0.8661 0.7515 0.0
H3080 H 0.11862 0.87182 0.63768 0.0
C3081 C 0.1579 0.90479 0.68561 0.0
C3082 C 0.12993 0.88968 0.74591 0.0
C3083 C 0.16917 0.91438 0.68981 0.0
C3084 C 0.08483 0.84774 0.73867 0.0
C3085 C 0.09454 0.85894 0.73416 0.0
C3086 C 0.12166 0.87667 0.66825 0.0
C3087 C 0.14846 0.90446 0.70827 0.0
C3088 C 0.13668 0.89375 0.70721 0.0
C3089 C 0.10419 0.86081 0.70841 0.0
C3090 C 0.11506 0.87246 0.70725 0.0
H3091 H 0.16313 0.93098 0.75895 0.0
H3092 H 0.14346 0.91434 0.75118 0.0
H3093 H 0.13719 0.89011 0.63764 0.0
H3094 H 0.09401 0.83288 0.67366 0.0
H3095 H 0.1109 0.85231 0.66602 0.0
C3096 C 0.90533 0.41616 0.59676 0.0
C3097 C 0.91458 0.41594 0.61865 0.0
C3098 C 0.90372 0.4258 0.60077 0.0
C3099 C 0.91253 0.45279 0.66663 0.0
H3100 H 0.90681 0.46428 0.55713 0.0
C3101 C 0.92247 0.50028 0.64436 0.0
C3102 C 0.91527 0.50246 0.61658 0.0
C3103 C 0.92073 0.489 0.64882 0.0
C3104 C 0.9082 0.46112 0.58821 0.0
H3105 H 0.92909 0.4255 0.66344 0.0
H3106 H 0.92635 0.44228 0.67025 0.0
H3107 H 0.90662 0.44582 0.55766 0.0
H3108 H 0.90025 0.49438 0.57317 0.0
H3109 H 0.89711 0.47467 0.58136 0.0
H3110 H 0.91437 0.46824 0.69694 0.0
C3111 C 0.92025 0.43498 0.65023 0.0
C3112 C 0.90809 0.45049 0.58852 0.0
C3113 C 0.92186 0.42536 0.64617 0.0
C3114 C 0.90598 0.49301 0.59475 0.0
C3115 C 0.90424 0.48172 0.59918 0.0
C3116 C 0.91265 0.46342 0.66632 0.0
C3117 C 0.91131 0.43546 0.62685 0.0
C3118 C 0.91042 0.44626 0.62759 0.0
C3119 C 0.91173 0.4796 0.6256 0.0
C3120 C 0.91064 0.46781 0.62696 0.0
H3121 H 0.89954 0.40904 0.57534 0.0
H3122 H 0.89663 0.42578 0.58283 0.0
H3123 H 0.91418 0.44972 0.69747 0.0
H3124 H 0.92973 0.50736 0.66158 0.0
H3125 H 0.92676 0.48775 0.66909 0.0
C3126 C 0.50569 0.42422 0.65074 0.0
C3127 C 0.50385 0.41557 0.6197 0.0
C3128 C 0.51671 0.43412 0.65579 0.0
C3129 C 0.54828 0.44699 0.62835 0.0
H3130 H 0.5482 0.47614 0.63714 0.0
C3131 C 0.58923 0.49232 0.59564 0.0
C3132 C 0.59054 0.50192 0.62022 0.0
C3133 C 0.57924 0.48132 0.60044 0.0
C3134 C 0.54843 0.4681 0.63546 0.0
H3135 H 0.51233 0.41033 0.57094 0.0
H3136 H 0.53153 0.42764 0.57944 0.0
H3137 H 0.52984 0.45785 0.63707 0.0
H3138 H 0.58263 0.50729 0.67085 0.0
H3139 H 0.56538 0.48813 0.67982 0.0
H3140 H 0.56693 0.45735 0.62597 0.0
C3141 C 0.52448 0.42674 0.60024 0.0
C3142 C 0.53785 0.45756 0.63542 0.0
C3143 C 0.51344 0.41681 0.59527 0.0
C3144 C 0.58189 0.50012 0.6512 0.0
C3145 C 0.57193 0.48913 0.65607 0.0
C3146 C 0.55889 0.45757 0.62838 0.0
C3147 C 0.5262 0.43567 0.62981 0.0
C3148 C 0.5376 0.44684 0.63171 0.0
C3149 C 0.57032 0.47964 0.62999 0.0
C3150 C 0.55911 0.46828 0.63179 0.0
H3151 H 0.49852 0.42353 0.67029 0.0
H3152 H 0.51774 0.44068 0.67957 0.0
H3153 H 0.54844 0.43892 0.62591 0.0
H3154 H 0.59571 0.4934 0.57137 0.0
H3155 H 0.5783 0.47426 0.57957 0.0
C3156 C 0.59239 0.10205 0.59546 0.0
C3157 C 0.59271 0.09281 0.61703 0.0
C3158 C 0.58273 0.10362 0.6001 0.0
C3159 C 0.5558 0.09463 0.66669 0.0
H3160 H 0.54418 0.1004 0.55761 0.0
C3161 C 0.50828 0.08489 0.64539 0.0
C3162 C 0.50611 0.09207 0.61741 0.0
C3163 C 0.51955 0.08659 0.64981 0.0
C3164 C 0.54738 0.09899 0.5886 0.0
H3165 H 0.58334 0.07831 0.66204 0.0
H3166 H 0.56654 0.08099 0.66995 0.0
H3167 H 0.56264 0.10062 0.55767 0.0
H3168 H 0.51423 0.10704 0.57375 0.0
H3169 H 0.53391 0.11012 0.58196 0.0
H3170 H 0.54037 0.09276 0.69736 0.0
C3171 C 0.57376 0.0871 0.64968 0.0
C3172 C 0.558 0.09912 0.58863 0.0
C3173 C 0.5834 0.08553 0.645 0.0
C3174 C 0.51558 0.10132 0.59546 0.0
C3175 C 0.52686 0.10302 0.5999 0.0
C3176 C 0.54515 0.09451 0.66666 0.0
C3177 C 0.57316 0.09599 0.62647 0.0
C3178 C 0.5623 0.0968 0.62754 0.0
C3179 C 0.52896 0.09553 0.62638 0.0
C3180 C 0.54072 0.09655 0.62747 0.0
H3181 H 0.59941 0.10784 0.57372 0.0
H3182 H 0.58267 0.11068 0.58233 0.0
H3183 H 0.5589 0.09297 0.69741 0.0
H3184 H 0.50119 0.07766 0.66268 0.0
H3185 H 0.52078 0.08057 0.67017 0.0
C3186 C 0.75005 0.57124 0.07619 0.0
C3187 C 0.74962 0.58035 0.05407 0.0
C3188 C 0.75978 0.56978 0.07188 0.0
C3189 C 0.78657 0.57865 0.00465 0.0
H3190 H 0.79848 0.57316 0.11354 0.0
C3191 C 0.8341 0.58836 0.02415 0.0
C3192 C 0.83634 0.58123 0.05217 0.0
C3193 C 0.82283 0.58667 0.0202 0.0
C3194 C 0.7952 0.57449 0.08261 0.0
H3195 H 0.7589 0.59479 0.0087 0.0
H3196 H 0.77583 0.5923 1.00138 0.0
H3197 H 0.78002 0.57297 0.114 0.0
H3198 H 0.82834 0.56639 0.09645 0.0
H3199 H 0.80866 0.56334 0.08907 0.0
H3200 H 0.80189 0.5804 0.97348 0.0
C3201 C 0.76863 0.5862 0.02179 0.0
C3202 C 0.78458 0.57438 0.08288 0.0
C3203 C 0.75892 0.58766 0.02614 0.0
C3204 C 0.82694 0.57206 0.07467 0.0
C3205 C 0.81566 0.57037 0.07072 0.0
C3206 C 0.7972 0.57875 0.00437 0.0
C3207 C 0.76931 0.57739 0.0453 0.0
C3208 C 0.78018 0.5766 0.04404 0.0
C3209 C 0.81349 0.57782 0.04417 0.0
C3210 C 0.80174 0.57682 0.04348 0.0
H3211 H 0.74303 0.56544 0.09791 0.0
H3212 H 0.75991 0.56279 0.08993 0.0
H3213 H 0.78337 0.58022 0.97397 0.0
H3214 H 0.84114 0.59553 0.00644 0.0
H3215 H 0.82155 0.59265 0.99978 0.0
C3216 C 0.41979 0.17337 0.02495 0.0
C3217 C 0.42715 0.17135 0.05243 0.0
C3218 C 0.42128 0.18457 0.02082 0.0
C3219 C 0.43337 0.21235 0.08195 0.0
H3220 H 0.42698 0.22362 0.97321 0.0
C3221 C 0.43559 0.25703 0.07439 0.0
C3222 C 0.42628 0.25717 0.05259 0.0
C3223 C 0.43729 0.24745 0.07022 0.0
C3224 C 0.42874 0.22058 0.00392 0.0
H3225 H 0.44219 0.17963 0.0957 0.0
H3226 H 0.44489 0.19919 0.08809 0.0
H3227 H 0.42716 0.20528 0.97322 0.0
H3228 H 0.41177 0.24754 0.00788 0.0
H3229 H 0.41469 0.23087 1.0008 0.0
H3230 H 0.43471 0.2275 0.11289 0.0
C3231 C 0.43783 0.19208 0.07023 0.0
C3232 C 0.42884 0.21005 0.00393 0.0
C3233 C 0.43634 0.18088 0.07432 0.0
C3234 C 0.41904 0.24774 0.02507 0.0
C3235 C 0.42075 0.23817 0.02086 0.0
C3236 C 0.43327 0.22287 0.08194 0.0
C3237 C 0.43017 0.19404 0.0441 0.0
C3238 C 0.431 0.20571 0.04308 0.0
C3239 C 0.42975 0.23778 0.0441 0.0
C3240 C 0.4308 0.22706 0.04307 0.0
H3241 H 0.4126 0.16623 0.00769 0.0
H3242 H 0.41514 0.18568 1.00076 0.0
H3243 H 0.43488 0.20922 0.1129 0.0
H3244 H 0.44135 0.26416 0.0958 0.0
H3245 H 0.44443 0.24754 0.08804 0.0
C3246 C 0.75995 0.1735 0.01653 0.0
C3247 C 0.75118 0.17171 0.0469 0.0
C3248 C 0.76989 0.1845 0.0118 0.0
C3249 C 0.78285 0.21608 0.03919 0.0
H3250 H 0.81187 0.21566 0.03282 0.0
C3251 C 0.8283 0.25662 0.07457 0.0
C3252 C 0.83794 0.25781 0.05059 0.0
C3253 C 0.81725 0.24675 0.06906 0.0
C3254 C 0.80386 0.21599 0.03382 0.0
H3255 H 0.74575 0.18024 0.09473 0.0
H3256 H 0.76316 0.19941 0.08686 0.0
H3257 H 0.79348 0.19741 0.03209 0.0
H3258 H 0.84335 0.24987 1.00024 0.0
H3259 H 0.8241 0.23282 0.99009 0.0
H3260 H 0.79336 0.23472 0.04178 0.0
C3261 C 0.76231 0.19234 0.06631 0.0
C3262 C 0.79327 0.20548 0.0334 0.0
C3263 C 0.75233 0.18132 0.07092 0.0
C3264 C 0.83614 0.2492 0.01945 0.0
C3265 C 0.82511 0.23936 0.01389 0.0
C3266 C 0.79349 0.22663 0.03965 0.0
C3267 C 0.77137 0.194 0.03749 0.0
C3268 C 0.7826 0.20535 0.03619 0.0
C3269 C 0.81556 0.23785 0.03942 0.0
C3270 C 0.80415 0.22672 0.0371 0.0
H3271 H 0.75932 0.16632 0.99728 0.0
H3272 H 0.77653 0.18549 0.98854 0.0
H3273 H 0.77482 0.21633 0.04095 0.0
H3274 H 0.82938 0.26307 0.09893 0.0
H3275 H 0.81014 0.24586 0.08951 0.0
C3276 C 0.59058 0.75841 0.97921 0.0
C3277 C 0.58342 0.74905 0.95122 0.0
C3278 C 0.58884 0.76795 0.98367 0.0
C3279 C 0.57635 0.78331 0.92256 0.0
H3280 H 0.5823 0.80079 0.03149 0.0
C3281 C 0.57291 0.82508 0.93049 0.0
C3282 C 0.58208 0.83465 0.95232 0.0
C3283 C 0.5715 0.81391 0.93461 0.0
C3284 C 0.58066 0.79605 1.00073 0.0
H3285 H 0.56845 0.74217 0.90755 0.0
H3286 H 0.5653 0.75872 0.91583 0.0
H3287 H 0.58259 0.78251 0.03131 0.0
H3288 H 0.59665 0.83985 0.99705 0.0
H3289 H 0.59423 0.82044 0.00404 0.0
H3290 H 0.57465 0.79693 0.89176 0.0
C3291 C 0.57241 0.75879 0.93375 0.0
C3292 C 0.58084 0.78555 1.00062 0.0
C3293 C 0.57415 0.74924 0.92929 0.0
C3294 C 0.58948 0.83268 0.97983 0.0
C3295 C 0.58806 0.82151 0.98399 0.0
C3296 C 0.57617 0.79379 0.92268 0.0
C3297 C 0.57989 0.7684 0.96025 0.0
C3298 C 0.57882 0.77911 0.9614 0.0
C3299 C 0.5792 0.81201 0.96071 0.0
C3300 C 0.57847 0.80038 0.96163 0.0
H3301 H 0.59782 0.75857 0.99649 0.0
H3302 H 0.59485 0.77521 0.00404 0.0
H3303 H 0.57495 0.77872 0.89155 0.0
H3304 H 0.56704 0.82628 0.90909 0.0
H3305 H 0.56446 0.80677 0.91675 0.0
C3306 C 0.17301 0.75668 0.98245 0.0
C3307 C 0.17126 0.74795 0.95191 0.0
C3308 C 0.18404 0.76653 0.98786 0.0
C3309 C 0.2157 0.77921 0.96274 0.0
H3310 H 0.21567 0.80843 0.969 0.0
C3311 C 0.25688 0.82455 0.93152 0.0
C3312 C 0.25797 0.83416 0.95535 0.0
C3313 C 0.2469 0.81353 0.93605 0.0
C3314 C 0.21589 0.80037 0.96805 0.0
H3315 H 0.17986 0.74253 0.90445 0.0
H3316 H 0.1991 0.75978 0.91355 0.0
H3317 H 0.19729 0.79017 0.96824 0.0
H3318 H 0.24973 0.83955 0.00459 0.0
H3319 H 0.23252 0.82036 0.01317 0.0
H3320 H 0.23437 0.78953 0.9618 0.0
C3321 C 0.19197 0.75897 0.93368 0.0
C3322 C 0.2053 0.78985 0.96761 0.0
C3323 C 0.18092 0.74907 0.92836 0.0
C3324 C 0.24915 0.83236 0.98548 0.0
C3325 C 0.23921 0.82136 0.99012 0.0
C3326 C 0.22633 0.78978 0.96319 0.0
C3327 C 0.19362 0.76797 0.96272 0.0
C3328 C 0.20503 0.77911 0.96486 0.0
C3329 C 0.23779 0.81185 0.96459 0.0
C3330 C 0.22656 0.8005 0.96576 0.0
H3331 H 0.16579 0.75607 1.00134 0.0
H3332 H 0.18502 0.77315 0.01123 0.0
H3333 H 0.21584 0.77112 0.96102 0.0
H3334 H 0.26349 0.82564 0.9079 0.0
H3335 H 0.2461 0.80645 0.91565 0.0
C3336 C 0.18219 0.43277 0.93295 0.0
C3337 C 0.17256 0.42422 0.9566 0.0
C3338 C 0.19324 0.4339 0.93805 0.0
C3339 C 0.20649 0.41625 0.97126 0.0
H3340 H 0.23563 0.44558 0.96493 0.0
C3341 C 0.25033 0.41737 0.98539 0.0
C3342 C 0.25898 0.42438 0.95467 0.0
C3343 C 0.24045 0.41848 0.99121 0.0
C3344 C 0.22757 0.43731 0.96649 0.0
H3345 H 0.16713 0.41065 0.00611 0.0
H3346 H 0.18635 0.41277 0.01563 0.0
H3347 H 0.21715 0.44555 0.96509 0.0
H3348 H 0.26427 0.43846 0.90746 0.0
H3349 H 0.24699 0.44032 0.91726 0.0
H3350 H 0.2168 0.40796 0.97182 0.0
C3351 C 0.18536 0.41842 0.99232 0.0
C3352 C 0.21697 0.43729 0.96657 0.0
C3353 C 0.17434 0.41726 0.98711 0.0
C3354 C 0.25778 0.43293 0.93148 0.0
C3355 C 0.24787 0.43402 0.93721 0.0
C3356 C 0.21705 0.41626 0.97117 0.0
C3357 C 0.1949 0.42653 0.967 0.0
C3358 C 0.20628 0.42675 0.9688 0.0
C3359 C 0.23893 0.4266 0.96633 0.0
C3360 C 0.22774 0.42678 0.96861 0.0
H3361 H 0.18111 0.43825 0.90907 0.0
H3362 H 0.20035 0.4402 0.91781 0.0
H3363 H 0.19846 0.40794 0.972 0.0
H3364 H 0.251 0.41074 0.00399 0.0
H3365 H 0.23387 0.41278 0.01462 0.0
C3366 C 0.41801 0.90563 0.40798 0.0
C3367 C 0.41675 0.91401 0.38387 0.0
C3368 C 0.42795 0.90455 0.40274 0.0
C3369 C 0.45874 0.92225 0.36786 0.0
H3370 H 0.4589 0.89315 0.37735 0.0
C3371 C 0.50164 0.92145 0.35342 0.0
C3372 C 0.5035 0.91471 0.38471 0.0
C3373 C 0.49058 0.92022 0.34802 0.0
C3374 C 0.45901 0.90136 0.37491 0.0
H3375 H 0.42464 0.92734 0.33337 0.0
H3376 H 0.44179 0.9253 0.32355 0.0
H3377 H 0.44034 0.89297 0.37704 0.0
H3378 H 0.49504 0.90099 0.43351 0.0
H3379 H 0.47577 0.89891 0.42439 0.0
H3380 H 0.47734 0.93069 0.36652 0.0
C3381 C 0.43525 0.91974 0.34735 0.0
C3382 C 0.44836 0.90125 0.37473 0.0
C3383 C 0.42536 0.92085 0.3527 0.0
C3384 C 0.49391 0.90631 0.40902 0.0
C3385 C 0.48284 0.90509 0.40368 0.0
C3386 C 0.46935 0.92235 0.36802 0.0
C3387 C 0.43686 0.91182 0.37319 0.0
C3388 C 0.44809 0.91172 0.37137 0.0
C3389 C 0.48109 0.91224 0.37388 0.0
C3390 C 0.46966 0.91193 0.37172 0.0
H3391 H 0.41157 0.90025 0.4324 0.0
H3392 H 0.42889 0.8984 0.42341 0.0
H3393 H 0.45893 0.93051 0.36625 0.0
H3394 H 0.5088 0.92796 0.33396 0.0
H3395 H 0.48953 0.9257 0.32408 0.0
C3396 C 0.08539 0.58005 0.35044 0.0
C3397 C 0.09238 0.58883 0.38077 0.0
C3398 C 0.08647 0.57012 0.34567 0.0
C3399 C 0.10514 0.5572 0.37309 0.0
H3400 H 0.07572 0.52815 0.36699 0.0
C3401 C 0.10032 0.5118 0.40904 0.0
C3402 C 0.09189 0.50214 0.38518 0.0
C3403 C 0.10149 0.52285 0.40341 0.0
C3404 C 0.08405 0.53616 0.36792 0.0
H3405 H 0.10637 0.59428 0.42844 0.0
H3406 H 0.10818 0.57691 0.42049 0.0
H3407 H 0.07584 0.54653 0.366 0.0
H3408 H 0.07849 0.49666 0.33492 0.0
H3409 H 0.08064 0.51588 0.32455 0.0
H3410 H 0.1133 0.54671 0.37588 0.0
C3411 C 0.10193 0.57773 0.40001 0.0
C3412 C 0.08412 0.54675 0.36733 0.0
C3413 C 0.10088 0.5877 0.40465 0.0
C3414 C 0.08504 0.50389 0.35404 0.0
C3415 C 0.08621 0.51491 0.34836 0.0
C3416 C 0.10507 0.54657 0.37371 0.0
C3417 C 0.09452 0.56866 0.37128 0.0
C3418 C 0.09465 0.55743 0.37003 0.0
C3419 C 0.09424 0.52449 0.37377 0.0
C3420 C 0.09451 0.5359 0.37127 0.0
H3421 H 0.0788 0.58065 0.3313 0.0
H3422 H 0.0808 0.56345 0.32248 0.0
H3423 H 0.11342 0.56524 0.37478 0.0
H3424 H 0.10572 0.51076 0.43341 0.0
H3425 H 0.10771 0.52998 0.42376 0.0
C3426 C 0.50122 0.58228 0.35641 0.0
C3427 C 0.50335 0.59171 0.38386 0.0
C3428 C 0.48994 0.57277 0.35157 0.0
C3429 C 0.46192 0.55758 0.41117 0.0
H3430 H 0.4509 0.53982 0.30258 0.0
C3431 C 0.41716 0.51535 0.40295 0.0
C3432 C 0.41708 0.5058 0.38227 0.0
C3433 C 0.42675 0.52661 0.39844 0.0
C3434 C 0.45386 0.54465 0.33322 0.0
H3435 H 0.49518 0.59876 0.42617 0.0
H3436 H 0.47546 0.58224 0.41728 0.0
H3437 H 0.46935 0.55823 0.30296 0.0
H3438 H 0.42681 0.50071 0.33901 0.0
H3439 H 0.44352 0.52028 0.33131 0.0
H3440 H 0.44659 0.54391 0.44168 0.0
C3441 C 0.48255 0.58211 0.40003 0.0
C3442 C 0.46445 0.55522 0.33345 0.0
C3443 C 0.49385 0.59163 0.40486 0.0
C3444 C 0.42657 0.50786 0.35534 0.0
C3445 C 0.43615 0.51912 0.35078 0.0
C3446 C 0.45134 0.54703 0.41093 0.0
C3447 C 0.48048 0.57244 0.37406 0.0
C3448 C 0.46871 0.56174 0.3726 0.0
C3449 C 0.43649 0.5286 0.37307 0.0
C3450 C 0.44724 0.54033 0.37212 0.0
H3451 H 0.50834 0.58203 0.33981 0.0
H3452 H 0.48874 0.56546 0.33168 0.0
H3453 H 0.46499 0.56224 0.44211 0.0
H3454 H 0.40998 0.51408 0.42386 0.0
H3455 H 0.42663 0.53373 0.4155 0.0
loop_
_geom_bond_atom_site_label_1
_geom_bond_atom_site_label_2
_geom_bond_distance
_geom_bond_site_symmetry_2
_ccdc_geom_bond_type
Mn0 O5 2.095 . S
Mn0 O15 2.162 . S
Mn0 O16 2.297 . S
Mn0 O24 2.385 . S
Mn0 O25 2.209 . S
Mn0 O26 2.094 . S
Mn1 O6 2.121 . S
Mn1 N8 2.257 . S
Mn1 N17 2.282 . S
Mn1 O25 2.215 . S
Mn1 O27 2.117 . S
C2 O24 1.234 . S
C2 O25 1.283 . S
C3 O15 1.281 . S
C3 O16 1.236 . S
C4 O26 1.240 . S
C4 O27 1.264 . S
O5 Mn0 2.095 . S
O5 C14 1.250 . S
O6 Mn1 2.121 . S
O6 C14 1.258 . S
C7 N8 1.326 . S
C7 C11 1.460 . S
C7 H13 0.929 . S
N8 Mn1 2.257 . S
N8 C7 1.326 . S
N8 C12 1.362 . S
C9 C10 1.258 . S
C9 C12 1.431 . S
C9 C29 1.449 . S
C10 C9 1.258 . S
C10 C11 1.477 . S
C10 H30 0.931 . S
C11 C7 1.460 . S
C11 C10 1.477 . S
C11 H31 0.930 . S
C12 N8 1.362 . S
C12 C9 1.431 . S
C12 C22 1.476 . S
H13 C7 0.929 . S
C14 O5 1.250 . S
C14 O6 1.258 . S
O15 Mn0 2.162 . S
O15 C3 1.281 . S
O16 Mn0 2.297 . S
O16 C3 1.236 . S
N17 Mn1 2.282 . S
N17 C18 1.328 . S
N17 C22 1.318 . S
C18 N17 1.328 . S
C18 C19 1.457 . S
C18 H23 0.929 . S
C19 C18 1.457 . S
C19 C20 1.291 . S
C19 H32 0.931 . S
C20 C19 1.291 . S
C20 C21 1.373 . S
C20 H33 0.929 . S
C21 C20 1.373 . S
C21 C22 1.396 . S
C21 C28 1.403 . S
C22 C12 1.476 . S
C22 N17 1.318 . S
C22 C21 1.396 . S
H23 C18 0.929 . S
O24 Mn0 2.385 . S
O24 C2 1.234 . S
O25 Mn0 2.209 . S
O25 Mn1 2.215 . S
O25 C2 1.283 . S
O26 Mn0 2.094 . S
O26 C4 1.240 . S
O27 Mn1 2.117 . S
O27 C4 1.264 . S
C28 C21 1.403 . S
C28 C29 1.399 . S
C28 H34 0.929 . S
C29 C9 1.449 . S
C29 C28 1.399 . S
C29 H35 0.930 . S
H30 C10 0.931 . S
H31 C11 0.930 . S
H32 C19 0.931 . S
H33 C20 0.929 . S
H34 C28 0.929 . S
H35 C29 0.930 . S
Mn36 O41 2.095 . S
Mn36 O51 2.162 . S
Mn36 O52 2.297 . S
Mn36 O60 2.385 . S
Mn36 O61 2.209 . S
Mn36 O62 2.094 . S
Mn37 O42 2.121 . S
Mn37 N44 2.257 . S
Mn37 N53 2.282 . S
Mn37 O61 2.215 . S
Mn37 O63 2.117 . S
C38 O60 1.234 . S
C38 O61 1.283 . S
C39 O51 1.281 . S
C39 O52 1.236 . S
C40 O62 1.240 . S
C40 O63 1.264 . S
O41 Mn36 2.095 . S
O41 C50 1.250 . S
O42 Mn37 2.121 . S
O42 C50 1.258 . S
C43 N44 1.326 . S
C43 C47 1.460 . S
C43 H49 0.929 . S
N44 Mn37 2.257 . S
N44 C43 1.326 . S
N44 C48 1.362 . S
C45 C46 1.258 . S
C45 C48 1.431 . S
C45 C65 1.449 . S
C46 C45 1.258 . S
C46 C47 1.477 . S
C46 H66 0.931 . S
C47 C43 1.460 . S
C47 C46 1.477 . S
C47 H67 0.930 . S
C48 N44 1.362 . S
C48 C45 1.431 . S
C48 C58 1.476 . S
H49 C43 0.929 . S
C50 O41 1.250 . S
C50 O42 1.258 . S
O51 Mn36 2.162 . S
O51 C39 1.281 . S
O52 Mn36 2.297 . S
O52 C39 1.236 . S
N53 Mn37 2.282 . S
N53 C54 1.328 . S
N53 C58 1.318 . S
C54 N53 1.328 . S
C54 C55 1.457 . S
C54 H59 0.929 . S
C55 C54 1.457 . S
C55 C56 1.291 . S
C55 H68 0.931 . S
C56 C55 1.291 . S
C56 C57 1.373 . S
C56 H69 0.929 . S
C57 C56 1.373 . S
C57 C58 1.396 . S
C57 C64 1.403 . S
C58 C48 1.476 . S
C58 N53 1.318 . S
C58 C57 1.396 . S
H59 C54 0.929 . S
O60 Mn36 2.385 . S
O60 C38 1.234 . S
O61 Mn36 2.209 . S
O61 Mn37 2.215 . S
O61 C38 1.283 . S
O62 Mn36 2.094 . S
O62 C40 1.240 . S
O63 Mn37 2.117 . S
O63 C40 1.264 . S
C64 C57 1.403 . S
C64 C65 1.399 . S
C64 H70 0.929 . S
C65 C45 1.449 . S
C65 C64 1.399 . S
C65 H71 0.930 . S
H66 C46 0.931 . S
H67 C47 0.930 . S
H68 C55 0.931 . S
H69 C56 0.929 . S
H70 C64 0.929 . S
H71 C65 0.930 . S
Mn72 O77 2.095 . S
Mn72 O87 2.162 . S
Mn72 O88 2.297 . S
Mn72 O96 2.385 . S
Mn72 O97 2.209 . S
Mn72 O98 2.094 . S
Mn73 O78 2.121 . S
Mn73 N80 2.257 . S
Mn73 N89 2.282 . S
Mn73 O97 2.215 . S
Mn73 O99 2.117 . S
C74 O96 1.234 . S
C74 O97 1.283 . S
C75 O87 1.281 . S
C75 O88 1.236 . S
C76 O98 1.240 . S
C76 O99 1.264 . S
O77 Mn72 2.095 . S
O77 C86 1.250 . S
O78 Mn73 2.121 . S
O78 C86 1.258 . S
C79 N80 1.326 . S
C79 C83 1.460 . S
C79 H85 0.929 . S
N80 Mn73 2.257 . S
N80 C79 1.326 . S
N80 C84 1.362 . S
C81 C82 1.258 . S
C81 C84 1.431 . S
C81 C101 1.449 . S
C82 C81 1.258 . S
C82 C83 1.477 . S
C82 H102 0.931 . S
C83 C79 1.460 . S
C83 C82 1.477 . S
C83 H103 0.930 . S
C84 N80 1.362 . S
C84 C81 1.431 . S
C84 C94 1.476 . S
H85 C79 0.929 . S
C86 O77 1.250 . S
C86 O78 1.258 . S
O87 Mn72 2.162 . S
O87 C75 1.281 . S
O88 Mn72 2.297 . S
O88 C75 1.236 . S
N89 Mn73 2.282 . S
N89 C90 1.328 . S
N89 C94 1.318 . S
C90 N89 1.328 . S
C90 C91 1.457 . S
C90 H95 0.929 . S
C91 C90 1.457 . S
C91 C92 1.291 . S
C91 H104 0.931 . S
C92 C91 1.291 . S
C92 C93 1.373 . S
C92 H105 0.929 . S
C93 C92 1.373 . S
C93 C94 1.396 . S
C93 C100 1.403 . S
C94 C84 1.476 . S
C94 N89 1.318 . S
C94 C93 1.396 . S
H95 C90 0.929 . S
O96 Mn72 2.385 . S
O96 C74 1.234 . S
O97 Mn72 2.209 . S
O97 Mn73 2.215 . S
O97 C74 1.283 . S
O98 Mn72 2.094 . S
O98 C76 1.240 . S
O99 Mn73 2.117 . S
O99 C76 1.264 . S
C100 C93 1.403 . S
C100 C101 1.399 . S
C100 H106 0.929 . S
C101 C81 1.449 . S
C101 C100 1.399 . S
C101 H107 0.930 . S
H102 C82 0.931 . S
H103 C83 0.930 . S
H104 C91 0.931 . S
H105 C92 0.929 . S
H106 C100 0.929 . S
H107 C101 0.930 . S
Mn108 O113 2.095 . S
Mn108 O123 2.162 . S
Mn108 O124 2.297 . S
Mn108 O132 2.385 . S
Mn108 O133 2.209 . S
Mn108 O134 2.094 . S
Mn109 O114 2.121 . S
Mn109 N116 2.257 . S
Mn109 N125 2.282 . S
Mn109 O133 2.215 . S
Mn109 O135 2.117 . S
C110 O132 1.234 . S
C110 O133 1.283 . S
C111 O123 1.281 . S
C111 O124 1.236 . S
C112 O134 1.240 . S
C112 O135 1.264 . S
O113 Mn108 2.095 . S
O113 C122 1.250 . S
O114 Mn109 2.121 . S
O114 C122 1.258 . S
C115 N116 1.326 . S
C115 C119 1.460 . S
C115 H121 0.929 . S
N116 Mn109 2.257 . S
N116 C115 1.326 . S
N116 C120 1.362 . S
C117 C118 1.258 . S
C117 C120 1.431 . S
C117 C137 1.449 . S
C118 C117 1.258 . S
C118 C119 1.477 . S
C118 H138 0.931 . S
C119 C115 1.460 . S
C119 C118 1.477 . S
C119 H139 0.930 . S
C120 N116 1.362 . S
C120 C117 1.431 . S
C120 C130 1.476 . S
H121 C115 0.929 . S
C122 O113 1.250 . S
C122 O114 1.258 . S
O123 Mn108 2.162 . S
O123 C111 1.281 . S
O124 Mn108 2.297 . S
O124 C111 1.236 . S
N125 Mn109 2.282 . S
N125 C126 1.328 . S
N125 C130 1.318 . S
C126 N125 1.328 . S
C126 C127 1.457 . S
C126 H131 0.929 . S
C127 C126 1.457 . S
C127 C128 1.291 . S
C127 H140 0.931 . S
C128 C127 1.291 . S
C128 C129 1.373 . S
C128 H141 0.929 . S
C129 C128 1.373 . S
C129 C130 1.396 . S
C129 C136 1.403 . S
C130 C120 1.476 . S
C130 N125 1.318 . S
C130 C129 1.396 . S
H131 C126 0.929 . S
O132 Mn108 2.385 . S
O132 C110 1.234 . S
O133 Mn108 2.209 . S
O133 Mn109 2.215 . S
O133 C110 1.283 . S
O134 Mn108 2.094 . S
O134 C112 1.240 . S
O135 Mn109 2.117 . S
O135 C112 1.264 . S
C136 C129 1.403 . S
C136 C137 1.399 . S
C136 H142 0.929 . S
C137 C117 1.449 . S
C137 C136 1.399 . S
C137 H143 0.930 . S
H138 C118 0.931 . S
H139 C119 0.930 . S
H140 C127 0.931 . S
H141 C128 0.929 . S
H142 C136 0.929 . S
H143 C137 0.930 . S
Mn144 O149 2.095 . S
Mn144 O159 2.162 . S
Mn144 O160 2.297 . S
Mn144 O168 2.385 . S
Mn144 O169 2.209 . S
Mn144 O170 2.094 . S
Mn145 O150 2.121 . S
Mn145 N152 2.257 . S
Mn145 N161 2.282 . S
Mn145 O169 2.215 . S
Mn145 O171 2.117 . S
C146 O168 1.234 . S
C146 O169 1.283 . S
C147 O159 1.281 . S
C147 O160 1.236 . S
C148 O170 1.240 . S
C148 O171 1.264 . S
O149 Mn144 2.095 . S
O149 C158 1.250 . S
O150 Mn145 2.121 . S
O150 C158 1.258 . S
C151 N152 1.326 . S
C151 C155 1.460 . S
C151 H157 0.929 . S
N152 Mn145 2.257 . S
N152 C151 1.326 . S
N152 C156 1.362 . S
C153 C154 1.258 . S
C153 C156 1.431 . S
C153 C173 1.449 . S
C154 C153 1.258 . S
C154 C155 1.477 . S
C154 H174 0.931 . S
C155 C151 1.460 . S
C155 C154 1.477 . S
C155 H175 0.930 . S
C156 N152 1.362 . S
C156 C153 1.431 . S
C156 C166 1.476 . S
H157 C151 0.929 . S
C158 O149 1.250 . S
C158 O150 1.258 . S
O159 Mn144 2.162 . S
O159 C147 1.281 . S
O160 Mn144 2.297 . S
O160 C147 1.236 . S
N161 Mn145 2.282 . S
N161 C162 1.328 . S
N161 C166 1.318 . S
C162 N161 1.328 . S
C162 C163 1.457 . S
C162 H167 0.929 . S
C163 C162 1.457 . S
C163 C164 1.291 . S
C163 H176 0.931 . S
C164 C163 1.291 . S
C164 C165 1.373 . S
C164 H177 0.929 . S
C165 C164 1.373 . S
C165 C166 1.396 . S
C165 C172 1.403 . S
C166 C156 1.476 . S
C166 N161 1.318 . S
C166 C165 1.396 . S
H167 C162 0.929 . S
O168 Mn144 2.385 . S
O168 C146 1.234 . S
O169 Mn144 2.209 . S
O169 Mn145 2.215 . S
O169 C146 1.283 . S
O170 Mn144 2.094 . S
O170 C148 1.240 . S
O171 Mn145 2.117 . S
O171 C148 1.264 . S
C172 C165 1.403 . S
C172 C173 1.399 . S
C172 H178 0.929 . S
C173 C153 1.449 . S
C173 C172 1.399 . S
C173 H179 0.930 . S
H174 C154 0.931 . S
H175 C155 0.930 . S
H176 C163 0.931 . S
H177 C164 0.929 . S
H178 C172 0.929 . S
H179 C173 0.930 . S
Mn180 O185 2.095 . S
Mn180 O195 2.162 . S
Mn180 O196 2.297 . S
Mn180 O204 2.385 . S
Mn180 O205 2.209 . S
Mn180 O206 2.094 . S
Mn181 O186 2.121 . S
Mn181 N188 2.257 . S
Mn181 N197 2.282 . S
Mn181 O205 2.215 . S
Mn181 O207 2.117 . S
C182 O204 1.234 . S
C182 O205 1.283 . S
C183 O195 1.281 . S
C183 O196 1.236 . S
C184 O206 1.240 . S
C184 O207 1.264 . S
O185 Mn180 2.095 . S
O185 C194 1.250 . S
O186 Mn181 2.121 . S
O186 C194 1.258 . S
C187 N188 1.326 . S
C187 C191 1.460 . S
C187 H193 0.929 . S
N188 Mn181 2.257 . S
N188 C187 1.326 . S
N188 C192 1.362 . S
C189 C190 1.258 . S
C189 C192 1.431 . S
C189 C209 1.449 . S
C190 C189 1.258 . S
C190 C191 1.477 . S
C190 H210 0.931 . S
C191 C187 1.460 . S
C191 C190 1.477 . S
C191 H211 0.930 . S
C192 N188 1.362 . S
C192 C189 1.431 . S
C192 C202 1.476 . S
H193 C187 0.929 . S
C194 O185 1.250 . S
C194 O186 1.258 . S
O195 Mn180 2.162 . S
O195 C183 1.281 . S
O196 Mn180 2.297 . S
O196 C183 1.236 . S
N197 Mn181 2.282 . S
N197 C198 1.328 . S
N197 C202 1.318 . S
C198 N197 1.328 . S
C198 C199 1.457 . S
C198 H203 0.929 . S
C199 C198 1.457 . S
C199 C200 1.291 . S
C199 H212 0.931 . S
C200 C199 1.291 . S
C200 C201 1.373 . S
C200 H213 0.929 . S
C201 C200 1.373 . S
C201 C202 1.396 . S
C201 C208 1.403 . S
C202 C192 1.476 . S
C202 N197 1.318 . S
C202 C201 1.396 . S
H203 C198 0.929 . S
O204 Mn180 2.385 . S
O204 C182 1.234 . S
O205 Mn180 2.209 . S
O205 Mn181 2.215 . S
O205 C182 1.283 . S
O206 Mn180 2.094 . S
O206 C184 1.240 . S
O207 Mn181 2.117 . S
O207 C184 1.264 . S
C208 C201 1.403 . S
C208 C209 1.399 . S
C208 H214 0.929 . S
C209 C189 1.449 . S
C209 C208 1.399 . S
C209 H215 0.930 . S
H210 C190 0.931 . S
H211 C191 0.930 . S
H212 C199 0.931 . S
H213 C200 0.929 . S
H214 C208 0.929 . S
H215 C209 0.930 . S
Mn216 O221 2.095 . S
Mn216 O231 2.162 . S
Mn216 O232 2.297 . S
Mn216 O240 2.385 . S
Mn216 O241 2.209 . S
Mn216 O242 2.094 . S
Mn217 O222 2.121 . S
Mn217 N224 2.257 . S
Mn217 N233 2.282 . S
Mn217 O241 2.215 . S
Mn217 O243 2.117 . S
C218 O240 1.234 . S
C218 O241 1.283 . S
C219 O231 1.281 . S
C219 O232 1.236 . S
C220 O242 1.240 . S
C220 O243 1.264 . S
O221 Mn216 2.095 . S
O221 C230 1.250 . S
O222 Mn217 2.121 . S
O222 C230 1.258 . S
C223 N224 1.326 . S
C223 C227 1.460 . S
C223 H229 0.929 . S
N224 Mn217 2.257 . S
N224 C223 1.326 . S
N224 C228 1.362 . S
C225 C226 1.258 . S
C225 C228 1.431 . S
C225 C245 1.449 . S
C226 C225 1.258 . S
C226 C227 1.477 . S
C226 H246 0.931 . S
C227 C223 1.460 . S
C227 C226 1.477 . S
C227 H247 0.930 . S
C228 N224 1.362 . S
C228 C225 1.431 . S
C228 C238 1.476 . S
H229 C223 0.929 . S
C230 O221 1.250 . S
C230 O222 1.258 . S
O231 Mn216 2.162 . S
O231 C219 1.281 . S
O232 Mn216 2.297 . S
O232 C219 1.236 . S
N233 Mn217 2.282 . S
N233 C234 1.328 . S
N233 C238 1.318 . S
C234 N233 1.328 . S
C234 C235 1.457 . S
C234 H239 0.929 . S
C235 C234 1.457 . S
C235 C236 1.291 . S
C235 H248 0.931 . S
C236 C235 1.291 . S
C236 C237 1.373 . S
C236 H249 0.929 . S
C237 C236 1.373 . S
C237 C238 1.396 . S
C237 C244 1.403 . S
C238 C228 1.476 . S
C238 N233 1.318 . S
C238 C237 1.396 . S
H239 C234 0.929 . S
O240 Mn216 2.385 . S
O240 C218 1.234 . S
O241 Mn216 2.209 . S
O241 Mn217 2.215 . S
O241 C218 1.283 . S
O242 Mn216 2.094 . S
O242 C220 1.240 . S
O243 Mn217 2.117 . S
O243 C220 1.264 . S
C244 C237 1.403 . S
C244 C245 1.399 . S
C244 H250 0.929 . S
C245 C225 1.449 . S
C245 C244 1.399 . S
C245 H251 0.930 . S
H246 C226 0.931 . S
H247 C227 0.930 . S
H248 C235 0.931 . S
H249 C236 0.929 . S
H250 C244 0.929 . S
H251 C245 0.930 . S
Mn252 O257 2.095 . S
Mn252 O267 2.162 . S
Mn252 O268 2.297 . S
Mn252 O276 2.385 . S
Mn252 O277 2.209 . S
Mn252 O278 2.094 . S
Mn253 O258 2.121 . S
Mn253 N260 2.257 . S
Mn253 N269 2.282 . S
Mn253 O277 2.215 . S
Mn253 O279 2.117 . S
C254 O276 1.234 . S
C254 O277 1.283 . S
C255 O267 1.281 . S
C255 O268 1.236 . S
C256 O278 1.240 . S
C256 O279 1.264 . S
O257 Mn252 2.095 . S
O257 C266 1.250 . S
O258 Mn253 2.121 . S
O258 C266 1.258 . S
C259 N260 1.326 . S
C259 C263 1.460 . S
C259 H265 0.929 . S
N260 Mn253 2.257 . S
N260 C259 1.326 . S
N260 C264 1.362 . S
C261 C262 1.258 . S
C261 C264 1.431 . S
C261 C281 1.449 . S
C262 C261 1.258 . S
C262 C263 1.477 . S
C262 H282 0.931 . S
C263 C259 1.460 . S
C263 C262 1.477 . S
C263 H283 0.930 . S
C264 N260 1.362 . S
C264 C261 1.431 . S
C264 C274 1.476 . S
H265 C259 0.929 . S
C266 O257 1.250 . S
C266 O258 1.258 . S
O267 Mn252 2.162 . S
O267 C255 1.281 . S
O268 Mn252 2.297 . S
O268 C255 1.236 . S
N269 Mn253 2.282 . S
N269 C270 1.328 . S
N269 C274 1.318 . S
C270 N269 1.328 . S
C270 C271 1.457 . S
C270 H275 0.929 . S
C271 C270 1.457 . S
C271 C272 1.291 . S
C271 H284 0.931 . S
C272 C271 1.291 . S
C272 C273 1.373 . S
C272 H285 0.929 . S
C273 C272 1.373 . S
C273 C274 1.396 . S
C273 C280 1.403 . S
C274 C264 1.476 . S
C274 N269 1.318 . S
C274 C273 1.396 . S
H275 C270 0.929 . S
O276 Mn252 2.385 . S
O276 C254 1.234 . S
O277 Mn252 2.209 . S
O277 Mn253 2.215 . S
O277 C254 1.283 . S
O278 Mn252 2.094 . S
O278 C256 1.240 . S
O279 Mn253 2.117 . S
O279 C256 1.264 . S
C280 C273 1.403 . S
C280 C281 1.399 . S
C280 H286 0.929 . S
C281 C261 1.449 . S
C281 C280 1.399 . S
C281 H287 0.930 . S
H282 C262 0.931 . S
H283 C263 0.930 . S
H284 C271 0.931 . S
H285 C272 0.929 . S
H286 C280 0.929 . S
H287 C281 0.930 . S
Mn288 O293 2.095 . S
Mn288 O303 2.162 . S
Mn288 O304 2.297 . S
Mn288 O312 2.385 . S
Mn288 O313 2.209 . S
Mn288 O314 2.094 . S
Mn289 O294 2.121 . S
Mn289 N296 2.257 . S
Mn289 N305 2.282 . S
Mn289 O313 2.215 . S
Mn289 O315 2.117 . S
C290 O312 1.234 . S
C290 O313 1.283 . S
C291 O303 1.281 . S
C291 O304 1.236 . S
C292 O314 1.240 . S
C292 O315 1.264 . S
O293 Mn288 2.095 . S
O293 C302 1.250 . S
O294 Mn289 2.121 . S
O294 C302 1.258 . S
C295 N296 1.326 . S
C295 C299 1.460 . S
C295 H301 0.929 . S
N296 Mn289 2.257 . S
N296 C295 1.326 . S
N296 C300 1.362 . S
C297 C298 1.258 . S
C297 C300 1.431 . S
C297 C317 1.449 . S
C298 C297 1.258 . S
C298 C299 1.477 . S
C298 H318 0.931 . S
C299 C295 1.460 . S
C299 C298 1.477 . S
C299 H319 0.930 . S
C300 N296 1.362 . S
C300 C297 1.431 . S
C300 C310 1.476 . S
H301 C295 0.929 . S
C302 O293 1.250 . S
C302 O294 1.258 . S
O303 Mn288 2.162 . S
O303 C291 1.281 . S
O304 Mn288 2.297 . S
O304 C291 1.236 . S
N305 Mn289 2.282 . S
N305 C306 1.328 . S
N305 C310 1.318 . S
C306 N305 1.328 . S
C306 C307 1.457 . S
C306 H311 0.929 . S
C307 C306 1.457 . S
C307 C308 1.291 . S
C307 H320 0.931 . S
C308 C307 1.291 . S
C308 C309 1.373 . S
C308 H321 0.929 . S
C309 C308 1.373 . S
C309 C310 1.396 . S
C309 C316 1.403 . S
C310 C300 1.476 . S
C310 N305 1.318 . S
C310 C309 1.396 . S
H311 C306 0.929 . S
O312 Mn288 2.385 . S
O312 C290 1.234 . S
O313 Mn288 2.209 . S
O313 Mn289 2.215 . S
O313 C290 1.283 . S
O314 Mn288 2.094 . S
O314 C292 1.240 . S
O315 Mn289 2.117 . S
O315 C292 1.264 . S
C316 C309 1.403 . S
C316 C317 1.399 . S
C316 H322 0.929 . S
C317 C297 1.449 . S
C317 C316 1.399 . S
C317 H323 0.930 . S
H318 C298 0.931 . S
H319 C299 0.930 . S
H320 C307 0.931 . S
H321 C308 0.929 . S
H322 C316 0.929 . S
H323 C317 0.930 . S
Mn324 O329 2.095 . S
Mn324 O339 2.162 . S
Mn324 O340 2.297 . S
Mn324 O348 2.385 . S
Mn324 O349 2.209 . S
Mn324 O350 2.094 . S
Mn325 O330 2.121 . S
Mn325 N332 2.257 . S
Mn325 N341 2.282 . S
Mn325 O349 2.215 . S
Mn325 O351 2.117 . S
C326 O348 1.234 . S
C326 O349 1.283 . S
C327 O339 1.281 . S
C327 O340 1.236 . S
C328 O350 1.240 . S
C328 O351 1.264 . S
O329 Mn324 2.095 . S
O329 C338 1.250 . S
O330 Mn325 2.121 . S
O330 C338 1.258 . S
C331 N332 1.326 . S
C331 C335 1.460 . S
C331 H337 0.929 . S
N332 Mn325 2.257 . S
N332 C331 1.326 . S
N332 C336 1.362 . S
C333 C334 1.258 . S
C333 C336 1.431 . S
C333 C353 1.449 . S
C334 C333 1.258 . S
C334 C335 1.477 . S
C334 H354 0.931 . S
C335 C331 1.460 . S
C335 C334 1.477 . S
C335 H355 0.930 . S
C336 N332 1.362 . S
C336 C333 1.431 . S
C336 C346 1.476 . S
H337 C331 0.929 . S
C338 O329 1.250 . S
C338 O330 1.258 . S
O339 Mn324 2.162 . S
O339 C327 1.281 . S
O340 Mn324 2.297 . S
O340 C327 1.236 . S
N341 Mn325 2.282 . S
N341 C342 1.328 . S
N341 C346 1.318 . S
C342 N341 1.328 . S
C342 C343 1.457 . S
C342 H347 0.929 . S
C343 C342 1.457 . S
C343 C344 1.291 . S
C343 H356 0.931 . S
C344 C343 1.291 . S
C344 C345 1.373 . S
C344 H357 0.929 . S
C345 C344 1.373 . S
C345 C346 1.396 . S
C345 C352 1.403 . S
C346 C336 1.476 . S
C346 N341 1.318 . S
C346 C345 1.396 . S
H347 C342 0.929 . S
O348 Mn324 2.385 . S
O348 C326 1.234 . S
O349 Mn324 2.209 . S
O349 Mn325 2.215 . S
O349 C326 1.283 . S
O350 Mn324 2.094 . S
O350 C328 1.240 . S
O351 Mn325 2.117 . S
O351 C328 1.264 . S
C352 C345 1.403 . S
C352 C353 1.399 . S
C352 H358 0.929 . S
C353 C333 1.449 . S
C353 C352 1.399 . S
C353 H359 0.930 . S
H354 C334 0.931 . S
H355 C335 0.930 . S
H356 C343 0.931 . S
H357 C344 0.929 . S
H358 C352 0.929 . S
H359 C353 0.930 . S
Mn360 O365 2.095 . S
Mn360 O375 2.162 . S
Mn360 O376 2.297 . S
Mn360 O384 2.385 . S
Mn360 O385 2.209 . S
Mn360 O386 2.094 . S
Mn361 O366 2.121 . S
Mn361 N368 2.257 . S
Mn361 N377 2.282 . S
Mn361 O385 2.215 . S
Mn361 O387 2.117 . S
C362 O384 1.234 . S
C362 O385 1.283 . S
C363 O375 1.281 . S
C363 O376 1.236 . S
C364 O386 1.240 . S
C364 O387 1.264 . S
O365 Mn360 2.095 . S
O365 C374 1.250 . S
O366 Mn361 2.121 . S
O366 C374 1.258 . S
C367 N368 1.326 . S
C367 C371 1.460 . S
C367 H373 0.929 . S
N368 Mn361 2.257 . S
N368 C367 1.326 . S
N368 C372 1.362 . S
C369 C370 1.258 . S
C369 C372 1.431 . S
C369 C389 1.449 . S
C370 C369 1.258 . S
C370 C371 1.477 . S
C370 H390 0.931 . S
C371 C367 1.460 . S
C371 C370 1.477 . S
C371 H391 0.930 . S
C372 N368 1.362 . S
C372 C369 1.431 . S
C372 C382 1.476 . S
H373 C367 0.929 . S
C374 O365 1.250 . S
C374 O366 1.258 . S
O375 Mn360 2.162 . S
O375 C363 1.281 . S
O376 Mn360 2.297 . S
O376 C363 1.236 . S
N377 Mn361 2.282 . S
N377 C378 1.328 . S
N377 C382 1.318 . S
C378 N377 1.328 . S
C378 C379 1.457 . S
C378 H383 0.929 . S
C379 C378 1.457 . S
C379 C380 1.291 . S
C379 H392 0.931 . S
C380 C379 1.291 . S
C380 C381 1.373 . S
C380 H393 0.929 . S
C381 C380 1.373 . S
C381 C382 1.396 . S
C381 C388 1.403 . S
C382 C372 1.476 . S
C382 N377 1.318 . S
C382 C381 1.396 . S
H383 C378 0.929 . S
O384 Mn360 2.385 . S
O384 C362 1.234 . S
O385 Mn360 2.209 . S
O385 Mn361 2.215 . S
O385 C362 1.283 . S
O386 Mn360 2.094 . S
O386 C364 1.240 . S
O387 Mn361 2.117 . S
O387 C364 1.264 . S
C388 C381 1.403 . S
C388 C389 1.399 . S
C388 H394 0.929 . S
C389 C369 1.449 . S
C389 C388 1.399 . S
C389 H395 0.930 . S
H390 C370 0.931 . S
H391 C371 0.930 . S
H392 C379 0.931 . S
H393 C380 0.929 . S
H394 C388 0.929 . S
H395 C389 0.930 . S
Mn396 O401 2.095 . S
Mn396 O411 2.162 . S
Mn396 O412 2.297 . S
Mn396 O420 2.385 . S
Mn396 O421 2.209 . S
Mn396 O422 2.094 . S
Mn397 O402 2.121 . S
Mn397 N404 2.257 . S
Mn397 N413 2.282 . S
Mn397 O421 2.215 . S
Mn397 O423 2.117 . S
C398 O420 1.234 . S
C398 O421 1.283 . S
C399 O411 1.281 . S
C399 O412 1.236 . S
C400 O422 1.240 . S
C400 O423 1.264 . S
O401 Mn396 2.095 . S
O401 C410 1.250 . S
O402 Mn397 2.121 . S
O402 C410 1.258 . S
C403 N404 1.326 . S
C403 C407 1.460 . S
C403 H409 0.929 . S
N404 Mn397 2.257 . S
N404 C403 1.326 . S
N404 C408 1.362 . S
C405 C406 1.258 . S
C405 C408 1.431 . S
C405 C425 1.449 . S
C406 C405 1.258 . S
C406 C407 1.477 . S
C406 H426 0.931 . S
C407 C403 1.460 . S
C407 C406 1.477 . S
C407 H427 0.930 . S
C408 N404 1.362 . S
C408 C405 1.431 . S
C408 C418 1.476 . S
H409 C403 0.929 . S
C410 O401 1.250 . S
C410 O402 1.258 . S
O411 Mn396 2.162 . S
O411 C399 1.281 . S
O412 Mn396 2.297 . S
O412 C399 1.236 . S
N413 Mn397 2.282 . S
N413 C414 1.328 . S
N413 C418 1.318 . S
C414 N413 1.328 . S
C414 C415 1.457 . S
C414 H419 0.929 . S
C415 C414 1.457 . S
C415 C416 1.291 . S
C415 H428 0.931 . S
C416 C415 1.291 . S
C416 C417 1.373 . S
C416 H429 0.929 . S
C417 C416 1.373 . S
C417 C418 1.396 . S
C417 C424 1.403 . S
C418 C408 1.476 . S
C418 N413 1.318 . S
C418 C417 1.396 . S
H419 C414 0.929 . S
O420 Mn396 2.385 . S
O420 C398 1.234 . S
O421 Mn396 2.209 . S
O421 Mn397 2.215 . S
O421 C398 1.283 . S
O422 Mn396 2.094 . S
O422 C400 1.240 . S
O423 Mn397 2.117 . S
O423 C400 1.264 . S
C424 C417 1.403 . S
C424 C425 1.399 . S
C424 H430 0.929 . S
C425 C405 1.449 . S
C425 C424 1.399 . S
C425 H431 0.930 . S
H426 C406 0.931 . S
H427 C407 0.930 . S
H428 C415 0.931 . S
H429 C416 0.929 . S
H430 C424 0.929 . S
H431 C425 0.930 . S
Mn432 O437 2.095 . S
Mn432 O447 2.162 . S
Mn432 O448 2.297 . S
Mn432 O456 2.385 . S
Mn432 O457 2.209 . S
Mn432 O458 2.094 . S
Mn433 O438 2.121 . S
Mn433 N440 2.257 . S
Mn433 N449 2.282 . S
Mn433 O457 2.215 . S
Mn433 O459 2.117 . S
C434 O456 1.234 . S
C434 O457 1.283 . S
C435 O447 1.281 . S
C435 O448 1.236 . S
C436 O458 1.240 . S
C436 O459 1.264 . S
O437 Mn432 2.095 . S
O437 C446 1.250 . S
O438 Mn433 2.121 . S
O438 C446 1.258 . S
C439 N440 1.326 . S
C439 C443 1.460 . S
C439 H445 0.929 . S
N440 Mn433 2.257 . S
N440 C439 1.326 . S
N440 C444 1.362 . S
C441 C442 1.258 . S
C441 C444 1.431 . S
C441 C461 1.449 . S
C442 C441 1.258 . S
C442 C443 1.477 . S
C442 H462 0.931 . S
C443 C439 1.460 . S
C443 C442 1.477 . S
C443 H463 0.930 . S
C444 N440 1.362 . S
C444 C441 1.431 . S
C444 C454 1.476 . S
H445 C439 0.929 . S
C446 O437 1.250 . S
C446 O438 1.258 . S
O447 Mn432 2.162 . S
O447 C435 1.281 . S
O448 Mn432 2.297 . S
O448 C435 1.236 . S
N449 Mn433 2.282 . S
N449 C450 1.328 . S
N449 C454 1.318 . S
C450 N449 1.328 . S
C450 C451 1.457 . S
C450 H455 0.929 . S
C451 C450 1.457 . S
C451 C452 1.291 . S
C451 H464 0.931 . S
C452 C451 1.291 . S
C452 C453 1.373 . S
C452 H465 0.929 . S
C453 C452 1.373 . S
C453 C454 1.396 . S
C453 C460 1.403 . S
C454 C444 1.476 . S
C454 N449 1.318 . S
C454 C453 1.396 . S
H455 C450 0.929 . S
O456 Mn432 2.385 . S
O456 C434 1.234 . S
O457 Mn432 2.209 . S
O457 Mn433 2.215 . S
O457 C434 1.283 . S
O458 Mn432 2.094 . S
O458 C436 1.240 . S
O459 Mn433 2.117 . S
O459 C436 1.264 . S
C460 C453 1.403 . S
C460 C461 1.399 . S
C460 H466 0.929 . S
C461 C441 1.449 . S
C461 C460 1.399 . S
C461 H467 0.930 . S
H462 C442 0.931 . S
H463 C443 0.930 . S
H464 C451 0.931 . S
H465 C452 0.929 . S
H466 C460 0.929 . S
H467 C461 0.930 . S
Mn468 O473 2.095 . S
Mn468 O483 2.162 . S
Mn468 O484 2.297 . S
Mn468 O492 2.385 . S
Mn468 O493 2.209 . S
Mn468 O494 2.094 . S
Mn469 O474 2.121 . S
Mn469 N476 2.257 . S
Mn469 N485 2.282 . S
Mn469 O493 2.215 . S
Mn469 O495 2.117 . S
C470 O492 1.234 . S
C470 O493 1.283 . S
C471 O483 1.281 . S
C471 O484 1.236 . S
C472 O494 1.240 . S
C472 O495 1.264 . S
O473 Mn468 2.095 . S
O473 C482 1.250 . S
O474 Mn469 2.121 . S
O474 C482 1.258 . S
C475 N476 1.326 . S
C475 C479 1.460 . S
C475 H481 0.929 . S
N476 Mn469 2.257 . S
N476 C475 1.326 . S
N476 C480 1.362 . S
C477 C478 1.258 . S
C477 C480 1.431 . S
C477 C497 1.449 . S
C478 C477 1.258 . S
C478 C479 1.477 . S
C478 H498 0.931 . S
C479 C475 1.460 . S
C479 C478 1.477 . S
C479 H499 0.930 . S
C480 N476 1.362 . S
C480 C477 1.431 . S
C480 C490 1.476 . S
H481 C475 0.929 . S
C482 O473 1.250 . S
C482 O474 1.258 . S
O483 Mn468 2.162 . S
O483 C471 1.281 . S
O484 Mn468 2.297 . S
O484 C471 1.236 . S
N485 Mn469 2.282 . S
N485 C486 1.328 . S
N485 C490 1.318 . S
C486 N485 1.328 . S
C486 C487 1.457 . S
C486 H491 0.929 . S
C487 C486 1.457 . S
C487 C488 1.291 . S
C487 H500 0.931 . S
C488 C487 1.291 . S
C488 C489 1.373 . S
C488 H501 0.929 . S
C489 C488 1.373 . S
C489 C490 1.396 . S
C489 C496 1.403 . S
C490 C480 1.476 . S
C490 N485 1.318 . S
C490 C489 1.396 . S
H491 C486 0.929 . S
O492 Mn468 2.385 . S
O492 C470 1.234 . S
O493 Mn468 2.209 . S
O493 Mn469 2.215 . S
O493 C470 1.283 . S
O494 Mn468 2.094 . S
O494 C472 1.240 . S
O495 Mn469 2.117 . S
O495 C472 1.264 . S
C496 C489 1.403 . S
C496 C497 1.399 . S
C496 H502 0.929 . S
C497 C477 1.449 . S
C497 C496 1.399 . S
C497 H503 0.930 . S
H498 C478 0.931 . S
H499 C479 0.930 . S
H500 C487 0.931 . S
H501 C488 0.929 . S
H502 C496 0.929 . S
H503 C497 0.930 . S
Mn504 O509 2.095 . S
Mn504 O519 2.162 . S
Mn504 O520 2.297 . S
Mn504 O528 2.385 . S
Mn504 O529 2.209 . S
Mn504 O530 2.094 . S
Mn505 O510 2.121 . S
Mn505 N512 2.257 . S
Mn505 N521 2.282 . S
Mn505 O529 2.215 . S
Mn505 O531 2.117 . S
C506 O528 1.234 . S
C506 O529 1.283 . S
C507 O519 1.281 . S
C507 O520 1.236 . S
C508 O530 1.240 . S
C508 O531 1.264 . S
O509 Mn504 2.095 . S
O509 C518 1.250 . S
O510 Mn505 2.121 . S
O510 C518 1.258 . S
C511 N512 1.326 . S
C511 C515 1.460 . S
C511 H517 0.929 . S
N512 Mn505 2.257 . S
N512 C511 1.326 . S
N512 C516 1.362 . S
C513 C514 1.258 . S
C513 C516 1.431 . S
C513 C533 1.449 . S
C514 C513 1.258 . S
C514 C515 1.477 . S
C514 H534 0.931 . S
C515 C511 1.460 . S
C515 C514 1.477 . S
C515 H535 0.930 . S
C516 N512 1.362 . S
C516 C513 1.431 . S
C516 C526 1.476 . S
H517 C511 0.929 . S
C518 O509 1.250 . S
C518 O510 1.258 . S
O519 Mn504 2.162 . S
O519 C507 1.281 . S
O520 Mn504 2.297 . S
O520 C507 1.236 . S
N521 Mn505 2.282 . S
N521 C522 1.328 . S
N521 C526 1.318 . S
C522 N521 1.328 . S
C522 C523 1.457 . S
C522 H527 0.929 . S
C523 C522 1.457 . S
C523 C524 1.291 . S
C523 H536 0.931 . S
C524 C523 1.291 . S
C524 C525 1.373 . S
C524 H537 0.929 . S
C525 C524 1.373 . S
C525 C526 1.396 . S
C525 C532 1.403 . S
C526 C516 1.476 . S
C526 N521 1.318 . S
C526 C525 1.396 . S
H527 C522 0.929 . S
O528 Mn504 2.385 . S
O528 C506 1.234 . S
O529 Mn504 2.209 . S
O529 Mn505 2.215 . S
O529 C506 1.283 . S
O530 Mn504 2.094 . S
O530 C508 1.240 . S
O531 Mn505 2.117 . S
O531 C508 1.264 . S
C532 C525 1.403 . S
C532 C533 1.399 . S
C532 H538 0.929 . S
C533 C513 1.449 . S
C533 C532 1.399 . S
C533 H539 0.930 . S
H534 C514 0.931 . S
H535 C515 0.930 . S
H536 C523 0.931 . S
H537 C524 0.929 . S
H538 C532 0.929 . S
H539 C533 0.930 . S
Mn540 O545 2.095 . S
Mn540 O555 2.162 . S
Mn540 O556 2.297 . S
Mn540 O564 2.385 . S
Mn540 O565 2.209 . S
Mn540 O566 2.094 . S
Mn541 O546 2.121 . S
Mn541 N548 2.257 . S
Mn541 N557 2.282 . S
Mn541 O565 2.215 . S
Mn541 O567 2.117 . S
C542 O564 1.234 . S
C542 O565 1.283 . S
C543 O555 1.281 . S
C543 O556 1.236 . S
C544 O566 1.240 . S
C544 O567 1.264 . S
O545 Mn540 2.095 . S
O545 C554 1.250 . S
O546 Mn541 2.121 . S
O546 C554 1.258 . S
C547 N548 1.326 1_556 S
C547 C551 1.460 . S
C547 H553 0.929 . S
N548 Mn541 2.257 . S
N548 C547 1.326 1_554 S
N548 C552 1.362 . S
C549 C550 1.276 . S
C549 C552 1.431 . S
C549 C569 1.449 . S
C550 C549 1.276 . S
C550 C551 1.467 1_554 S
C550 H570 0.923 1_554 S
C551 C547 1.460 . S
C551 C550 1.467 1_556 S
C551 H571 0.930 . S
C552 N548 1.362 . S
C552 C549 1.431 . S
C552 C562 1.476 . S
H553 C547 0.929 . S
C554 O545 1.250 . S
C554 O546 1.258 . S
O555 Mn540 2.162 . S
O555 C543 1.281 . S
O556 Mn540 2.297 . S
O556 C543 1.236 . S
N557 Mn541 2.282 . S
N557 C558 1.328 . S
N557 C562 1.318 . S
C558 N557 1.328 . S
C558 C559 1.457 . S
C558 H563 0.929 . S
C559 C558 1.457 . S
C559 C560 1.291 . S
C559 H572 0.931 . S
C560 C559 1.291 . S
C560 C561 1.373 . S
C560 H573 0.929 . S
C561 C560 1.373 . S
C561 C562 1.396 . S
C561 C568 1.403 . S
C562 C552 1.476 . S
C562 N557 1.318 . S
C562 C561 1.396 . S
H563 C558 0.929 . S
O564 Mn540 2.385 . S
O564 C542 1.234 . S
O565 Mn540 2.209 . S
O565 Mn541 2.215 . S
O565 C542 1.283 . S
O566 Mn540 2.094 . S
O566 C544 1.240 . S
O567 Mn541 2.117 . S
O567 C544 1.264 . S
C568 C561 1.403 . S
C568 C569 1.399 . S
C568 H574 0.929 . S
C569 C549 1.449 . S
C569 C568 1.399 . S
C569 H575 0.930 . S
H570 C550 0.923 1_556 S
H571 C551 0.930 . S
H572 C559 0.931 . S
H573 C560 0.929 . S
H574 C568 0.929 . S
H575 C569 0.930 . S
Mn576 O581 2.095 . S
Mn576 O591 2.162 . S
Mn576 O592 2.297 . S
Mn576 O600 2.385 . S
Mn576 O601 2.209 . S
Mn576 O602 2.094 . S
Mn577 O582 2.121 . S
Mn577 N584 2.257 . S
Mn577 N593 2.282 . S
Mn577 O601 2.215 . S
Mn577 O603 2.117 . S
C578 O600 1.234 . S
C578 O601 1.283 . S
C579 O591 1.281 . S
C579 O592 1.236 . S
C580 O602 1.240 . S
C580 O603 1.264 . S
O581 Mn576 2.095 . S
O581 C590 1.250 . S
O582 Mn577 2.121 . S
O582 C590 1.258 . S
C583 N584 1.326 1_556 S
C583 C587 1.460 . S
C583 H589 0.929 . S
N584 Mn577 2.257 . S
N584 C583 1.326 1_554 S
N584 C588 1.362 . S
C585 C586 1.276 . S
C585 C588 1.431 . S
C585 C605 1.449 . S
C586 C585 1.276 . S
C586 C587 1.467 1_554 S
C586 H606 0.923 1_554 S
C587 C583 1.460 . S
C587 C586 1.467 1_556 S
C587 H607 0.930 . S
C588 N584 1.362 . S
C588 C585 1.431 . S
C588 C598 1.476 . S
H589 C583 0.929 . S
C590 O581 1.250 . S
C590 O582 1.258 . S
O591 Mn576 2.162 . S
O591 C579 1.281 . S
O592 Mn576 2.297 . S
O592 C579 1.236 . S
N593 Mn577 2.282 . S
N593 C594 1.328 . S
N593 C598 1.318 . S
C594 N593 1.328 . S
C594 C595 1.457 . S
C594 H599 0.929 . S
C595 C594 1.457 . S
C595 C596 1.291 . S
C595 H608 0.931 . S
C596 C595 1.291 . S
C596 C597 1.373 . S
C596 H609 0.929 . S
C597 C596 1.373 . S
C597 C598 1.396 . S
C597 C604 1.403 . S
C598 C588 1.476 . S
C598 N593 1.318 . S
C598 C597 1.396 . S
H599 C594 0.929 . S
O600 Mn576 2.385 . S
O600 C578 1.234 . S
O601 Mn576 2.209 . S
O601 Mn577 2.215 . S
O601 C578 1.283 . S
O602 Mn576 2.094 . S
O602 C580 1.240 . S
O603 Mn577 2.117 . S
O603 C580 1.264 . S
C604 C597 1.403 . S
C604 C605 1.399 . S
C604 H610 0.929 . S
C605 C585 1.449 . S
C605 C604 1.399 . S
C605 H611 0.930 . S
H606 C586 0.923 1_556 S
H607 C587 0.930 . S
H608 C595 0.931 . S
H609 C596 0.929 . S
H610 C604 0.929 . S
H611 C605 0.930 . S
Mn612 O617 2.095 . S
Mn612 O627 2.162 . S
Mn612 O628 2.297 . S
Mn612 O636 2.385 . S
Mn612 O637 2.209 . S
Mn612 O638 2.094 . S
Mn613 O618 2.121 . S
Mn613 N620 2.257 . S
Mn613 N629 2.282 . S
Mn613 O637 2.215 . S
Mn613 O639 2.117 . S
C614 O636 1.234 . S
C614 O637 1.283 . S
C615 O627 1.281 . S
C615 O628 1.236 . S
C616 O638 1.240 . S
C616 O639 1.264 . S
O617 Mn612 2.095 . S
O617 C626 1.250 . S
O618 Mn613 2.121 . S
O618 C626 1.258 . S
C619 N620 1.326 1_556 S
C619 C623 1.460 . S
C619 H625 0.929 . S
N620 Mn613 2.257 . S
N620 C619 1.326 1_554 S
N620 C624 1.362 . S
C621 C622 1.276 . S
C621 C624 1.431 . S
C621 C641 1.449 . S
C622 C621 1.276 . S
C622 C623 1.466 1_554 S
C622 H642 0.923 1_554 S
C623 C619 1.460 . S
C623 C622 1.466 1_556 S
C623 H643 0.930 . S
C624 N620 1.362 . S
C624 C621 1.431 . S
C624 C634 1.476 . S
H625 C619 0.929 . S
C626 O617 1.250 . S
C626 O618 1.258 . S
O627 Mn612 2.162 . S
O627 C615 1.281 . S
O628 Mn612 2.297 . S
O628 C615 1.236 . S
N629 Mn613 2.282 . S
N629 C630 1.328 . S
N629 C634 1.318 . S
C630 N629 1.328 . S
C630 C631 1.457 . S
C630 H635 0.929 . S
C631 C630 1.457 . S
C631 C632 1.291 . S
C631 H644 0.931 . S
C632 C631 1.291 . S
C632 C633 1.373 . S
C632 H645 0.929 . S
C633 C632 1.373 . S
C633 C634 1.396 . S
C633 C640 1.403 . S
C634 C624 1.476 . S
C634 N629 1.318 . S
C634 C633 1.396 . S
H635 C630 0.929 . S
O636 Mn612 2.385 . S
O636 C614 1.234 . S
O637 Mn612 2.209 . S
O637 Mn613 2.215 . S
O637 C614 1.283 . S
O638 Mn612 2.094 . S
O638 C616 1.240 . S
O639 Mn613 2.117 . S
O639 C616 1.264 . S
C640 C633 1.403 . S
C640 C641 1.399 . S
C640 H646 0.929 . S
C641 C621 1.449 . S
C641 C640 1.399 . S
C641 H647 0.930 . S
H642 C622 0.923 1_556 S
H643 C623 0.930 . S
H644 C631 0.931 . S
H645 C632 0.929 . S
H646 C640 0.929 . S
H647 C641 0.930 . S
Mn648 O653 2.095 . S
Mn648 O663 2.162 . S
Mn648 O664 2.297 . S
Mn648 O672 2.385 . S
Mn648 O673 2.209 . S
Mn648 O674 2.094 . S
Mn649 O654 2.121 . S
Mn649 N656 2.257 . S
Mn649 N665 2.282 . S
Mn649 O673 2.215 . S
Mn649 O675 2.117 . S
C650 O672 1.234 . S
C650 O673 1.283 . S
C651 O663 1.281 . S
C651 O664 1.236 . S
C652 O674 1.240 . S
C652 O675 1.264 . S
O653 Mn648 2.095 . S
O653 C662 1.250 . S
O654 Mn649 2.121 . S
O654 C662 1.258 . S
C655 N656 1.326 1_556 S
C655 C659 1.460 . S
C655 H661 0.929 . S
N656 Mn649 2.257 . S
N656 C655 1.326 1_554 S
N656 C660 1.362 . S
C657 C658 1.276 . S
C657 C660 1.431 . S
C657 C677 1.449 . S
C658 C657 1.276 . S
C658 C659 1.467 1_554 S
C658 H678 0.923 1_554 S
C659 C655 1.460 . S
C659 C658 1.467 1_556 S
C659 H679 0.930 . S
C660 N656 1.362 . S
C660 C657 1.431 . S
C660 C670 1.476 . S
H661 C655 0.929 . S
C662 O653 1.250 . S
C662 O654 1.258 . S
O663 Mn648 2.162 . S
O663 C651 1.281 . S
O664 Mn648 2.297 . S
O664 C651 1.236 . S
N665 Mn649 2.282 . S
N665 C666 1.328 . S
N665 C670 1.318 . S
C666 N665 1.328 . S
C666 C667 1.457 . S
C666 H671 0.929 . S
C667 C666 1.457 . S
C667 C668 1.291 . S
C667 H680 0.931 . S
C668 C667 1.291 . S
C668 C669 1.373 . S
C668 H681 0.929 . S
C669 C668 1.373 . S
C669 C670 1.396 . S
C669 C676 1.403 . S
C670 C660 1.476 . S
C670 N665 1.318 . S
C670 C669 1.396 . S
H671 C666 0.929 . S
O672 Mn648 2.385 . S
O672 C650 1.234 . S
O673 Mn648 2.209 . S
O673 Mn649 2.215 . S
O673 C650 1.283 . S
O674 Mn648 2.094 . S
O674 C652 1.240 . S
O675 Mn649 2.117 . S
O675 C652 1.264 . S
C676 C669 1.403 . S
C676 C677 1.399 . S
C676 H682 0.929 . S
C677 C657 1.449 . S
C677 C676 1.399 . S
C677 H683 0.930 . S
H678 C658 0.923 1_556 S
H679 C659 0.930 . S
H680 C667 0.931 . S
H681 C668 0.929 . S
H682 C676 0.929 . S
H683 C677 0.930 . S
Mn684 O689 2.095 . S
Mn684 O699 2.162 . S
Mn684 O700 2.297 . S
Mn684 O708 2.385 . S
Mn684 O709 2.209 . S
Mn684 O710 2.094 . S
Mn685 O690 2.121 . S
Mn685 N692 2.257 . S
Mn685 N701 2.282 . S
Mn685 O709 2.215 . S
Mn685 O711 2.117 . S
C686 O708 1.234 . S
C686 O709 1.283 . S
C687 O699 1.281 . S
C687 O700 1.236 . S
C688 O710 1.240 . S
C688 O711 1.264 . S
O689 Mn684 2.095 . S
O689 C698 1.250 . S
O690 Mn685 2.121 . S
O690 C698 1.258 . S
C691 N692 1.326 1_556 S
C691 C695 1.460 . S
C691 H697 0.929 . S
N692 Mn685 2.257 . S
N692 C691 1.326 1_554 S
N692 C696 1.362 . S
C693 C694 1.276 . S
C693 C696 1.431 . S
C693 C713 1.449 . S
C694 C693 1.276 . S
C694 C695 1.466 1_554 S
C694 H714 0.923 1_554 S
C695 C691 1.460 . S
C695 C694 1.466 1_556 S
C695 H715 0.930 . S
C696 N692 1.362 . S
C696 C693 1.431 . S
C696 C706 1.476 . S
H697 C691 0.929 . S
C698 O689 1.250 . S
C698 O690 1.258 . S
O699 Mn684 2.162 . S
O699 C687 1.281 . S
O700 Mn684 2.297 . S
O700 C687 1.236 . S
N701 Mn685 2.282 . S
N701 C702 1.328 . S
N701 C706 1.318 . S
C702 N701 1.328 . S
C702 C703 1.457 . S
C702 H707 0.929 . S
C703 C702 1.457 . S
C703 C704 1.291 . S
C703 H716 0.931 . S
C704 C703 1.291 . S
C704 C705 1.373 . S
C704 H717 0.929 . S
C705 C704 1.373 . S
C705 C706 1.396 . S
C705 C712 1.403 . S
C706 C696 1.476 . S
C706 N701 1.318 . S
C706 C705 1.396 . S
H707 C702 0.929 . S
O708 Mn684 2.385 . S
O708 C686 1.234 . S
O709 Mn684 2.209 . S
O709 Mn685 2.215 . S
O709 C686 1.283 . S
O710 Mn684 2.094 . S
O710 C688 1.240 . S
O711 Mn685 2.117 . S
O711 C688 1.264 . S
C712 C705 1.403 . S
C712 C713 1.399 . S
C712 H718 0.929 . S
C713 C693 1.449 . S
C713 C712 1.399 . S
C713 H719 0.930 . S
H714 C694 0.923 1_556 S
H715 C695 0.930 . S
H716 C703 0.931 . S
H717 C704 0.929 . S
H718 C712 0.929 . S
H719 C713 0.930 . S
Mn720 O725 2.095 . S
Mn720 O735 2.162 . S
Mn720 O736 2.297 . S
Mn720 O744 2.385 . S
Mn720 O745 2.209 . S
Mn720 O746 2.094 . S
Mn721 O726 2.121 . S
Mn721 N728 2.257 . S
Mn721 N737 2.282 . S
Mn721 O745 2.215 . S
Mn721 O747 2.117 . S
C722 O744 1.234 . S
C722 O745 1.283 . S
C723 O735 1.281 . S
C723 O736 1.236 . S
C724 O746 1.240 . S
C724 O747 1.264 . S
O725 Mn720 2.095 . S
O725 C734 1.250 . S
O726 Mn721 2.121 . S
O726 C734 1.258 . S
C727 N728 1.326 1_556 S
C727 C731 1.460 . S
C727 H733 0.929 . S
N728 Mn721 2.257 . S
N728 C727 1.326 1_554 S
N728 C732 1.362 . S
C729 C730 1.276 . S
C729 C732 1.431 . S
C729 C749 1.449 . S
C730 C729 1.276 . S
C730 C731 1.467 1_554 S
C730 H750 0.923 1_554 S
C731 C727 1.460 . S
C731 C730 1.467 1_556 S
C731 H751 0.930 . S
C732 N728 1.362 . S
C732 C729 1.431 . S
C732 C742 1.476 . S
H733 C727 0.929 . S
C734 O725 1.250 . S
C734 O726 1.258 . S
O735 Mn720 2.162 . S
O735 C723 1.281 . S
O736 Mn720 2.297 . S
O736 C723 1.236 . S
N737 Mn721 2.282 . S
N737 C738 1.328 . S
N737 C742 1.318 . S
C738 N737 1.328 . S
C738 C739 1.457 . S
C738 H743 0.929 . S
C739 C738 1.457 . S
C739 C740 1.291 . S
C739 H752 0.931 . S
C740 C739 1.291 . S
C740 C741 1.373 . S
C740 H753 0.929 . S
C741 C740 1.373 . S
C741 C742 1.396 . S
C741 C748 1.403 . S
C742 C732 1.476 . S
C742 N737 1.318 . S
C742 C741 1.396 . S
H743 C738 0.929 . S
O744 Mn720 2.385 . S
O744 C722 1.234 . S
O745 Mn720 2.209 . S
O745 Mn721 2.215 . S
O745 C722 1.283 . S
O746 Mn720 2.094 . S
O746 C724 1.240 . S
O747 Mn721 2.117 . S
O747 C724 1.264 . S
C748 C741 1.403 . S
C748 C749 1.399 . S
C748 H754 0.929 . S
C749 C729 1.449 . S
C749 C748 1.399 . S
C749 H755 0.930 . S
H750 C730 0.923 1_556 S
H751 C731 0.930 . S
H752 C739 0.931 . S
H753 C740 0.929 . S
H754 C748 0.929 . S
H755 C749 0.930 . S
Mn756 O761 2.095 . S
Mn756 O771 2.162 . S
Mn756 O772 2.297 . S
Mn756 O780 2.385 . S
Mn756 O781 2.209 . S
Mn756 O782 2.094 . S
Mn757 O762 2.121 . S
Mn757 N764 2.257 . S
Mn757 N773 2.282 . S
Mn757 O781 2.215 . S
Mn757 O783 2.117 . S
C758 O780 1.234 . S
C758 O781 1.283 . S
C759 O771 1.281 . S
C759 O772 1.236 . S
C760 O782 1.240 . S
C760 O783 1.264 . S
O761 Mn756 2.095 . S
O761 C770 1.250 . S
O762 Mn757 2.121 . S
O762 C770 1.258 . S
C763 N764 1.326 . S
C763 C767 1.460 . S
C763 H769 0.929 . S
N764 Mn757 2.257 . S
N764 C763 1.326 . S
N764 C768 1.362 . S
C765 C766 1.258 . S
C765 C768 1.431 . S
C765 C785 1.449 . S
C766 C765 1.258 . S
C766 C767 1.477 . S
C766 H786 0.931 . S
C767 C763 1.460 . S
C767 C766 1.477 . S
C767 H787 0.930 . S
C768 N764 1.362 . S
C768 C765 1.431 . S
C768 C778 1.476 . S
H769 C763 0.929 . S
C770 O761 1.250 . S
C770 O762 1.258 . S
O771 Mn756 2.162 . S
O771 C759 1.281 . S
O772 Mn756 2.297 . S
O772 C759 1.236 . S
N773 Mn757 2.282 . S
N773 C774 1.328 . S
N773 C778 1.318 . S
C774 N773 1.328 . S
C774 C775 1.457 . S
C774 H779 0.929 . S
C775 C774 1.457 . S
C775 C776 1.291 . S
C775 H788 0.931 . S
C776 C775 1.291 . S
C776 C777 1.373 . S
C776 H789 0.929 . S
C777 C776 1.373 . S
C777 C778 1.396 . S
C777 C784 1.403 . S
C778 C768 1.476 . S
C778 N773 1.318 . S
C778 C777 1.396 . S
H779 C774 0.929 . S
O780 Mn756 2.385 . S
O780 C758 1.234 . S
O781 Mn756 2.209 . S
O781 Mn757 2.215 . S
O781 C758 1.283 . S
O782 Mn756 2.094 . S
O782 C760 1.240 . S
O783 Mn757 2.117 . S
O783 C760 1.264 . S
C784 C777 1.403 . S
C784 C785 1.399 . S
C784 H790 0.929 . S
C785 C765 1.449 . S
C785 C784 1.399 . S
C785 H791 0.930 . S
H786 C766 0.931 . S
H787 C767 0.930 . S
H788 C775 0.931 . S
H789 C776 0.929 . S
H790 C784 0.929 . S
H791 C785 0.930 . S
Mn792 O797 2.095 . S
Mn792 O807 2.162 . S
Mn792 O808 2.297 . S
Mn792 O816 2.385 . S
Mn792 O817 2.209 . S
Mn792 O818 2.094 . S
Mn793 O798 2.121 . S
Mn793 N800 2.257 . S
Mn793 N809 2.282 . S
Mn793 O817 2.215 . S
Mn793 O819 2.117 . S
C794 O816 1.234 . S
C794 O817 1.283 . S
C795 O807 1.281 . S
C795 O808 1.236 . S
C796 O818 1.240 . S
C796 O819 1.264 . S
O797 Mn792 2.095 . S
O797 C806 1.250 . S
O798 Mn793 2.121 . S
O798 C806 1.258 . S
C799 N800 1.326 . S
C799 C803 1.460 . S
C799 H805 0.929 . S
N800 Mn793 2.257 . S
N800 C799 1.326 . S
N800 C804 1.362 . S
C801 C802 1.258 . S
C801 C804 1.431 . S
C801 C821 1.449 . S
C802 C801 1.258 . S
C802 C803 1.477 . S
C802 H822 0.931 . S
C803 C799 1.460 . S
C803 C802 1.477 . S
C803 H823 0.930 . S
C804 N800 1.362 . S
C804 C801 1.431 . S
C804 C814 1.476 . S
H805 C799 0.929 . S
C806 O797 1.250 . S
C806 O798 1.258 . S
O807 Mn792 2.162 . S
O807 C795 1.281 . S
O808 Mn792 2.297 . S
O808 C795 1.236 . S
N809 Mn793 2.282 . S
N809 C810 1.328 . S
N809 C814 1.318 . S
C810 N809 1.328 . S
C810 C811 1.457 . S
C810 H815 0.929 . S
C811 C810 1.457 . S
C811 C812 1.291 . S
C811 H824 0.931 . S
C812 C811 1.291 . S
C812 C813 1.373 . S
C812 H825 0.929 . S
C813 C812 1.373 . S
C813 C814 1.396 . S
C813 C820 1.403 . S
C814 C804 1.476 . S
C814 N809 1.318 . S
C814 C813 1.396 . S
H815 C810 0.929 . S
O816 Mn792 2.385 . S
O816 C794 1.234 . S
O817 Mn792 2.209 . S
O817 Mn793 2.215 . S
O817 C794 1.283 . S
O818 Mn792 2.094 . S
O818 C796 1.240 . S
O819 Mn793 2.117 . S
O819 C796 1.264 . S
C820 C813 1.403 . S
C820 C821 1.399 . S
C820 H826 0.929 . S
C821 C801 1.449 . S
C821 C820 1.399 . S
C821 H827 0.930 . S
H822 C802 0.931 . S
H823 C803 0.930 . S
H824 C811 0.931 . S
H825 C812 0.929 . S
H826 C820 0.929 . S
H827 C821 0.930 . S
Mn828 O833 2.095 . S
Mn828 O843 2.162 . S
Mn828 O844 2.297 . S
Mn828 O852 2.385 . S
Mn828 O853 2.209 . S
Mn828 O854 2.094 . S
Mn829 O834 2.121 . S
Mn829 N836 2.257 . S
Mn829 N845 2.282 . S
Mn829 O853 2.215 . S
Mn829 O855 2.117 . S
C830 O852 1.234 . S
C830 O853 1.283 . S
C831 O843 1.281 . S
C831 O844 1.236 . S
C832 O854 1.240 . S
C832 O855 1.264 . S
O833 Mn828 2.095 . S
O833 C842 1.250 . S
O834 Mn829 2.121 . S
O834 C842 1.258 . S
C835 N836 1.326 . S
C835 C839 1.460 . S
C835 H841 0.929 . S
N836 Mn829 2.257 . S
N836 C835 1.326 . S
N836 C840 1.362 . S
C837 C838 1.258 . S
C837 C840 1.431 . S
C837 C857 1.449 . S
C838 C837 1.258 . S
C838 C839 1.477 . S
C838 H858 0.931 . S
C839 C835 1.460 . S
C839 C838 1.477 . S
C839 H859 0.930 . S
C840 N836 1.362 . S
C840 C837 1.431 . S
C840 C850 1.476 . S
H841 C835 0.929 . S
C842 O833 1.250 . S
C842 O834 1.258 . S
O843 Mn828 2.162 . S
O843 C831 1.281 . S
O844 Mn828 2.297 . S
O844 C831 1.236 . S
N845 Mn829 2.282 . S
N845 C846 1.328 . S
N845 C850 1.318 . S
C846 N845 1.328 . S
C846 C847 1.457 . S
C846 H851 0.929 . S
C847 C846 1.457 . S
C847 C848 1.291 . S
C847 H860 0.931 . S
C848 C847 1.291 . S
C848 C849 1.373 . S
C848 H861 0.929 . S
C849 C848 1.373 . S
C849 C850 1.396 . S
C849 C856 1.403 . S
C850 C840 1.476 . S
C850 N845 1.318 . S
C850 C849 1.396 . S
H851 C846 0.929 . S
O852 Mn828 2.385 . S
O852 C830 1.234 . S
O853 Mn828 2.209 . S
O853 Mn829 2.215 . S
O853 C830 1.283 . S
O854 Mn828 2.094 . S
O854 C832 1.240 . S
O855 Mn829 2.117 . S
O855 C832 1.264 . S
C856 C849 1.403 . S
C856 C857 1.399 . S
C856 H862 0.929 . S
C857 C837 1.449 . S
C857 C856 1.399 . S
C857 H863 0.930 . S
H858 C838 0.931 . S
H859 C839 0.930 . S
H860 C847 0.931 . S
H861 C848 0.929 . S
H862 C856 0.929 . S
H863 C857 0.930 . S
Mn864 O869 2.095 . S
Mn864 O879 2.162 . S
Mn864 O880 2.297 . S
Mn864 O888 2.385 . S
Mn864 O889 2.209 . S
Mn864 O890 2.094 . S
Mn865 O870 2.121 . S
Mn865 N872 2.257 . S
Mn865 N881 2.282 . S
Mn865 O889 2.215 . S
Mn865 O891 2.117 . S
C866 O888 1.234 . S
C866 O889 1.283 . S
C867 O879 1.281 . S
C867 O880 1.236 . S
C868 O890 1.240 . S
C868 O891 1.264 . S
O869 Mn864 2.095 . S
O869 C878 1.250 . S
O870 Mn865 2.121 . S
O870 C878 1.258 . S
C871 N872 1.326 1_554 S
C871 C875 1.460 . S
C871 H877 0.929 . S
N872 Mn865 2.257 . S
N872 C871 1.326 1_556 S
N872 C876 1.362 . S
C873 C874 1.276 . S
C873 C876 1.431 . S
C873 C893 1.449 . S
C874 C873 1.276 . S
C874 C875 1.467 1_556 S
C874 H894 0.923 1_556 S
C875 C871 1.460 . S
C875 C874 1.467 1_554 S
C875 H895 0.930 . S
C876 N872 1.362 . S
C876 C873 1.431 . S
C876 C886 1.476 . S
H877 C871 0.929 . S
C878 O869 1.250 . S
C878 O870 1.258 . S
O879 Mn864 2.162 . S
O879 C867 1.281 . S
O880 Mn864 2.297 . S
O880 C867 1.236 . S
N881 Mn865 2.282 . S
N881 C882 1.328 . S
N881 C886 1.318 . S
C882 N881 1.328 . S
C882 C883 1.457 . S
C882 H887 0.929 . S
C883 C882 1.457 . S
C883 C884 1.291 . S
C883 H896 0.931 . S
C884 C883 1.291 . S
C884 C885 1.373 . S
C884 H897 0.929 . S
C885 C884 1.373 . S
C885 C886 1.396 . S
C885 C892 1.403 . S
C886 C876 1.476 . S
C886 N881 1.318 . S
C886 C885 1.396 . S
H887 C882 0.929 . S
O888 Mn864 2.385 . S
O888 C866 1.234 . S
O889 Mn864 2.209 . S
O889 Mn865 2.215 . S
O889 C866 1.283 . S
O890 Mn864 2.094 . S
O890 C868 1.240 . S
O891 Mn865 2.117 . S
O891 C868 1.264 . S
C892 C885 1.403 . S
C892 C893 1.399 . S
C892 H898 0.929 . S
C893 C873 1.449 . S
C893 C892 1.399 . S
C893 H899 0.930 . S
H894 C874 0.923 1_554 S
H895 C875 0.930 . S
H896 C883 0.931 . S
H897 C884 0.929 . S
H898 C892 0.929 . S
H899 C893 0.930 . S
Mn900 O905 2.095 . S
Mn900 O915 2.162 . S
Mn900 O916 2.297 . S
Mn900 O924 2.385 . S
Mn900 O925 2.209 . S
Mn900 O926 2.094 . S
Mn901 O906 2.121 . S
Mn901 N908 2.257 . S
Mn901 N917 2.282 . S
Mn901 O925 2.215 . S
Mn901 O927 2.117 . S
C902 O924 1.234 . S
C902 O925 1.283 . S
C903 O915 1.281 . S
C903 O916 1.236 . S
C904 O926 1.240 . S
C904 O927 1.264 . S
O905 Mn900 2.095 . S
O905 C914 1.250 . S
O906 Mn901 2.121 . S
O906 C914 1.258 . S
C907 N908 1.326 1_554 S
C907 C911 1.460 . S
C907 H913 0.929 . S
N908 Mn901 2.257 . S
N908 C907 1.326 1_556 S
N908 C912 1.362 . S
C909 C910 1.276 . S
C909 C912 1.431 . S
C909 C929 1.449 . S
C910 C909 1.276 . S
C910 C911 1.466 1_556 S
C910 H930 0.923 1_556 S
C911 C907 1.460 . S
C911 C910 1.466 1_554 S
C911 H931 0.930 . S
C912 N908 1.362 . S
C912 C909 1.431 . S
C912 C922 1.476 . S
H913 C907 0.929 . S
C914 O905 1.250 . S
C914 O906 1.258 . S
O915 Mn900 2.162 . S
O915 C903 1.281 . S
O916 Mn900 2.297 . S
O916 C903 1.236 . S
N917 Mn901 2.282 . S
N917 C918 1.328 . S
N917 C922 1.318 . S
C918 N917 1.328 . S
C918 C919 1.457 . S
C918 H923 0.929 . S
C919 C918 1.457 . S
C919 C920 1.291 . S
C919 H932 0.931 . S
C920 C919 1.291 . S
C920 C921 1.373 . S
C920 H933 0.929 . S
C921 C920 1.373 . S
C921 C922 1.396 . S
C921 C928 1.403 . S
C922 C912 1.476 . S
C922 N917 1.318 . S
C922 C921 1.396 . S
H923 C918 0.929 . S
O924 Mn900 2.385 . S
O924 C902 1.234 . S
O925 Mn900 2.209 . S
O925 Mn901 2.215 . S
O925 C902 1.283 . S
O926 Mn900 2.094 . S
O926 C904 1.240 . S
O927 Mn901 2.117 . S
O927 C904 1.264 . S
C928 C921 1.403 . S
C928 C929 1.399 . S
C928 H934 0.929 . S
C929 C909 1.449 . S
C929 C928 1.399 . S
C929 H935 0.930 . S
H930 C910 0.923 1_554 S
H931 C911 0.930 . S
H932 C919 0.931 . S
H933 C920 0.929 . S
H934 C928 0.929 . S
H935 C929 0.930 . S
Mn936 O941 2.095 . S
Mn936 O951 2.162 . S
Mn936 O952 2.297 . S
Mn936 O960 2.385 . S
Mn936 O961 2.209 . S
Mn936 O962 2.094 . S
Mn937 O942 2.121 . S
Mn937 N944 2.257 . S
Mn937 N953 2.282 . S
Mn937 O961 2.215 . S
Mn937 O963 2.117 . S
C938 O960 1.234 . S
C938 O961 1.283 . S
C939 O951 1.281 . S
C939 O952 1.236 . S
C940 O962 1.240 . S
C940 O963 1.264 . S
O941 Mn936 2.095 . S
O941 C950 1.250 . S
O942 Mn937 2.121 . S
O942 C950 1.258 . S
C943 N944 1.326 1_554 S
C943 C947 1.460 . S
C943 H949 0.929 . S
N944 Mn937 2.257 . S
N944 C943 1.326 1_556 S
N944 C948 1.362 . S
C945 C946 1.276 . S
C945 C948 1.431 . S
C945 C965 1.449 . S
C946 C945 1.276 . S
C946 C947 1.467 1_556 S
C946 H966 0.923 1_556 S
C947 C943 1.460 . S
C947 C946 1.467 1_554 S
C947 H967 0.930 . S
C948 N944 1.362 . S
C948 C945 1.431 . S
C948 C958 1.476 . S
H949 C943 0.929 . S
C950 O941 1.250 . S
C950 O942 1.258 . S
O951 Mn936 2.162 . S
O951 C939 1.281 . S
O952 Mn936 2.297 . S
O952 C939 1.236 . S
N953 Mn937 2.282 . S
N953 C954 1.328 . S
N953 C958 1.318 . S
C954 N953 1.328 . S
C954 C955 1.457 . S
C954 H959 0.929 . S
C955 C954 1.457 . S
C955 C956 1.291 . S
C955 H968 0.931 . S
C956 C955 1.291 . S
C956 C957 1.373 . S
C956 H969 0.929 . S
C957 C956 1.373 . S
C957 C958 1.396 . S
C957 C964 1.403 . S
C958 C948 1.476 . S
C958 N953 1.318 . S
C958 C957 1.396 . S
H959 C954 0.929 . S
O960 Mn936 2.385 . S
O960 C938 1.234 . S
O961 Mn936 2.209 . S
O961 Mn937 2.215 . S
O961 C938 1.283 . S
O962 Mn936 2.094 . S
O962 C940 1.240 . S
O963 Mn937 2.117 . S
O963 C940 1.264 . S
C964 C957 1.403 . S
C964 C965 1.399 . S
C964 H970 0.929 . S
C965 C945 1.449 . S
C965 C964 1.399 . S
C965 H971 0.930 . S
H966 C946 0.923 1_554 S
H967 C947 0.930 . S
H968 C955 0.931 . S
H969 C956 0.929 . S
H970 C964 0.929 . S
H971 C965 0.930 . S
Mn972 O977 2.095 . S
Mn972 O987 2.162 . S
Mn972 O988 2.297 . S
Mn972 O996 2.385 . S
Mn972 O997 2.209 . S
Mn972 O998 2.094 . S
Mn973 O978 2.121 . S
Mn973 N980 2.257 . S
Mn973 N989 2.282 . S
Mn973 O997 2.215 . S
Mn973 O999 2.117 . S
C974 O996 1.234 . S
C974 O997 1.283 . S
C975 O987 1.281 . S
C975 O988 1.236 . S
C976 O998 1.240 . S
C976 O999 1.264 . S
O977 Mn972 2.095 . S
O977 C986 1.250 . S
O978 Mn973 2.121 . S
O978 C986 1.258 . S
C979 N980 1.326 . S
C979 C983 1.460 . S
C979 H985 0.929 . S
N980 Mn973 2.257 . S
N980 C979 1.326 . S
N980 C984 1.362 . S
C981 C982 1.258 . S
C981 C984 1.431 . S
C981 C1001 1.449 . S
C982 C981 1.258 . S
C982 C983 1.477 . S
C982 H1002 0.931 . S
C983 C979 1.460 . S
C983 C982 1.477 . S
C983 H1003 0.930 . S
C984 N980 1.362 . S
C984 C981 1.431 . S
C984 C994 1.476 . S
H985 C979 0.929 . S
C986 O977 1.250 . S
C986 O978 1.258 . S
O987 Mn972 2.162 . S
O987 C975 1.281 . S
O988 Mn972 2.297 . S
O988 C975 1.236 . S
N989 Mn973 2.282 . S
N989 C990 1.328 . S
N989 C994 1.318 . S
C990 N989 1.328 . S
C990 C991 1.457 . S
C990 H995 0.929 . S
C991 C990 1.457 . S
C991 C992 1.291 . S
C991 H1004 0.931 . S
C992 C991 1.291 . S
C992 C993 1.373 . S
C992 H1005 0.929 . S
C993 C992 1.373 . S
C993 C994 1.396 . S
C993 C1000 1.403 . S
C994 C984 1.476 . S
C994 N989 1.318 . S
C994 C993 1.396 . S
H995 C990 0.929 . S
O996 Mn972 2.385 . S
O996 C974 1.234 . S
O997 Mn972 2.209 . S
O997 Mn973 2.215 . S
O997 C974 1.283 . S
O998 Mn972 2.094 . S
O998 C976 1.240 . S
O999 Mn973 2.117 . S
O999 C976 1.264 . S
C1000 C993 1.403 . S
C1000 C1001 1.399 . S
C1000 H1006 0.929 . S
C1001 C981 1.449 . S
C1001 C1000 1.399 . S
C1001 H1007 0.930 . S
H1002 C982 0.931 . S
H1003 C983 0.930 . S
H1004 C991 0.931 . S
H1005 C992 0.929 . S
H1006 C1000 0.929 . S
H1007 C1001 0.930 . S
Mn1008 O1013 2.095 . S
Mn1008 O1023 2.162 . S
Mn1008 O1024 2.297 . S
Mn1008 O1032 2.385 . S
Mn1008 O1033 2.209 . S
Mn1008 O1034 2.094 . S
Mn1009 O1014 2.121 . S
Mn1009 N1016 2.257 . S
Mn1009 N1025 2.282 . S
Mn1009 O1033 2.215 . S
Mn1009 O1035 2.117 . S
C1010 O1032 1.234 . S
C1010 O1033 1.283 . S
C1011 O1023 1.281 . S
C1011 O1024 1.236 . S
C1012 O1034 1.240 . S
C1012 O1035 1.264 . S
O1013 Mn1008 2.095 . S
O1013 C1022 1.250 . S
O1014 Mn1009 2.121 . S
O1014 C1022 1.258 . S
C1015 N1016 1.326 . S
C1015 C1019 1.460 . S
C1015 H1021 0.929 . S
N1016 Mn1009 2.257 . S
N1016 C1015 1.326 . S
N1016 C1020 1.362 . S
C1017 C1018 1.258 . S
C1017 C1020 1.431 . S
C1017 C1037 1.449 . S
C1018 C1017 1.258 . S
C1018 C1019 1.477 . S
C1018 H1038 0.931 . S
C1019 C1015 1.460 . S
C1019 C1018 1.477 . S
C1019 H1039 0.930 . S
C1020 N1016 1.362 . S
C1020 C1017 1.431 . S
C1020 C1030 1.476 . S
H1021 C1015 0.929 . S
C1022 O1013 1.250 . S
C1022 O1014 1.258 . S
O1023 Mn1008 2.162 . S
O1023 C1011 1.281 . S
O1024 Mn1008 2.297 . S
O1024 C1011 1.236 . S
N1025 Mn1009 2.282 . S
N1025 C1026 1.328 . S
N1025 C1030 1.318 . S
C1026 N1025 1.328 . S
C1026 C1027 1.457 . S
C1026 H1031 0.929 . S
C1027 C1026 1.457 . S
C1027 C1028 1.291 . S
C1027 H1040 0.931 . S
C1028 C1027 1.291 . S
C1028 C1029 1.373 . S
C1028 H1041 0.929 . S
C1029 C1028 1.373 . S
C1029 C1030 1.396 . S
C1029 C1036 1.403 . S
C1030 C1020 1.476 . S
C1030 N1025 1.318 . S
C1030 C1029 1.396 . S
H1031 C1026 0.929 . S
O1032 Mn1008 2.385 . S
O1032 C1010 1.234 . S
O1033 Mn1008 2.209 . S
O1033 Mn1009 2.215 . S
O1033 C1010 1.283 . S
O1034 Mn1008 2.094 . S
O1034 C1012 1.240 . S
O1035 Mn1009 2.117 . S
O1035 C1012 1.264 . S
C1036 C1029 1.403 . S
C1036 C1037 1.399 . S
C1036 H1042 0.929 . S
C1037 C1017 1.449 . S
C1037 C1036 1.399 . S
C1037 H1043 0.930 . S
H1038 C1018 0.931 . S
H1039 C1019 0.930 . S
H1040 C1027 0.931 . S
H1041 C1028 0.929 . S
H1042 C1036 0.929 . S
H1043 C1037 0.930 . S
Mn1044 O1049 2.095 . S
Mn1044 O1059 2.162 . S
Mn1044 O1060 2.297 . S
Mn1044 O1068 2.385 . S
Mn1044 O1069 2.209 . S
Mn1044 O1070 2.094 . S
Mn1045 O1050 2.121 . S
Mn1045 N1052 2.257 . S
Mn1045 N1061 2.282 . S
Mn1045 O1069 2.215 . S
Mn1045 O1071 2.117 . S
C1046 O1068 1.234 . S
C1046 O1069 1.283 . S
C1047 O1059 1.281 . S
C1047 O1060 1.236 . S
C1048 O1070 1.240 . S
C1048 O1071 1.264 . S
O1049 Mn1044 2.095 . S
O1049 C1058 1.250 . S
O1050 Mn1045 2.121 . S
O1050 C1058 1.258 . S
C1051 N1052 1.326 . S
C1051 C1055 1.460 . S
C1051 H1057 0.929 . S
N1052 Mn1045 2.257 . S
N1052 C1051 1.326 . S
N1052 C1056 1.362 . S
C1053 C1054 1.258 . S
C1053 C1056 1.431 . S
C1053 C1073 1.449 . S
C1054 C1053 1.258 . S
C1054 C1055 1.477 . S
C1054 H1074 0.931 . S
C1055 C1051 1.460 . S
C1055 C1054 1.477 . S
C1055 H1075 0.930 . S
C1056 N1052 1.362 . S
C1056 C1053 1.431 . S
C1056 C1066 1.476 . S
H1057 C1051 0.929 . S
C1058 O1049 1.250 . S
C1058 O1050 1.258 . S
O1059 Mn1044 2.162 . S
O1059 C1047 1.281 . S
O1060 Mn1044 2.297 . S
O1060 C1047 1.236 . S
N1061 Mn1045 2.282 . S
N1061 C1062 1.328 . S
N1061 C1066 1.318 . S
C1062 N1061 1.328 . S
C1062 C1063 1.457 . S
C1062 H1067 0.929 . S
C1063 C1062 1.457 . S
C1063 C1064 1.291 . S
C1063 H1076 0.931 . S
C1064 C1063 1.291 . S
C1064 C1065 1.373 . S
C1064 H1077 0.929 . S
C1065 C1064 1.373 . S
C1065 C1066 1.396 . S
C1065 C1072 1.403 . S
C1066 C1056 1.476 . S
C1066 N1061 1.318 . S
C1066 C1065 1.396 . S
H1067 C1062 0.929 . S
O1068 Mn1044 2.385 . S
O1068 C1046 1.234 . S
O1069 Mn1044 2.209 . S
O1069 Mn1045 2.215 . S
O1069 C1046 1.283 . S
O1070 Mn1044 2.094 . S
O1070 C1048 1.240 . S
O1071 Mn1045 2.117 . S
O1071 C1048 1.264 . S
C1072 C1065 1.403 . S
C1072 C1073 1.399 . S
C1072 H1078 0.929 . S
C1073 C1053 1.449 . S
C1073 C1072 1.399 . S
C1073 H1079 0.930 . S
H1074 C1054 0.931 . S
H1075 C1055 0.930 . S
H1076 C1063 0.931 . S
H1077 C1064 0.929 . S
H1078 C1072 0.929 . S
H1079 C1073 0.930 . S
Mn1080 O1085 2.095 . S
Mn1080 O1095 2.162 . S
Mn1080 O1096 2.297 . S
Mn1080 O1104 2.385 . S
Mn1080 O1105 2.209 . S
Mn1080 O1106 2.094 . S
Mn1081 O1086 2.121 . S
Mn1081 N1088 2.257 . S
Mn1081 N1097 2.282 . S
Mn1081 O1105 2.215 . S
Mn1081 O1107 2.117 . S
C1082 O1104 1.234 . S
C1082 O1105 1.283 . S
C1083 O1095 1.281 . S
C1083 O1096 1.236 . S
C1084 O1106 1.240 . S
C1084 O1107 1.264 . S
O1085 Mn1080 2.095 . S
O1085 C1094 1.250 . S
O1086 Mn1081 2.121 . S
O1086 C1094 1.258 . S
C1087 N1088 1.326 . S
C1087 C1091 1.460 . S
C1087 H1093 0.929 . S
N1088 Mn1081 2.257 . S
N1088 C1087 1.326 . S
N1088 C1092 1.362 . S
C1089 C1090 1.258 . S
C1089 C1092 1.431 . S
C1089 C1109 1.449 . S
C1090 C1089 1.258 . S
C1090 C1091 1.477 . S
C1090 H1110 0.931 . S
C1091 C1087 1.460 . S
C1091 C1090 1.477 . S
C1091 H1111 0.930 . S
C1092 N1088 1.362 . S
C1092 C1089 1.431 . S
C1092 C1102 1.476 . S
H1093 C1087 0.929 . S
C1094 O1085 1.250 . S
C1094 O1086 1.258 . S
O1095 Mn1080 2.162 . S
O1095 C1083 1.281 . S
O1096 Mn1080 2.297 . S
O1096 C1083 1.236 . S
N1097 Mn1081 2.282 . S
N1097 C1098 1.328 . S
N1097 C1102 1.318 . S
C1098 N1097 1.328 . S
C1098 C1099 1.457 . S
C1098 H1103 0.929 . S
C1099 C1098 1.457 . S
C1099 C1100 1.291 . S
C1099 H1112 0.931 . S
C1100 C1099 1.291 . S
C1100 C1101 1.373 . S
C1100 H1113 0.929 . S
C1101 C1100 1.373 . S
C1101 C1102 1.396 . S
C1101 C1108 1.403 . S
C1102 C1092 1.476 . S
C1102 N1097 1.318 . S
C1102 C1101 1.396 . S
H1103 C1098 0.929 . S
O1104 Mn1080 2.385 . S
O1104 C1082 1.234 . S
O1105 Mn1080 2.209 . S
O1105 Mn1081 2.215 . S
O1105 C1082 1.283 . S
O1106 Mn1080 2.094 . S
O1106 C1084 1.240 . S
O1107 Mn1081 2.117 . S
O1107 C1084 1.264 . S
C1108 C1101 1.403 . S
C1108 C1109 1.399 . S
C1108 H1114 0.929 . S
C1109 C1089 1.449 . S
C1109 C1108 1.399 . S
C1109 H1115 0.930 . S
H1110 C1090 0.931 . S
H1111 C1091 0.930 . S
H1112 C1099 0.931 . S
H1113 C1100 0.929 . S
H1114 C1108 0.929 . S
H1115 C1109 0.930 . S
Mn1116 O1121 2.095 . S
Mn1116 O1131 2.162 . S
Mn1116 O1132 2.297 . S
Mn1116 O1140 2.385 . S
Mn1116 O1141 2.209 . S
Mn1116 O1142 2.094 . S
Mn1117 O1122 2.121 . S
Mn1117 N1124 2.257 . S
Mn1117 N1133 2.282 . S
Mn1117 O1141 2.215 . S
Mn1117 O1143 2.117 . S
C1118 O1140 1.234 . S
C1118 O1141 1.283 . S
C1119 O1131 1.281 . S
C1119 O1132 1.236 . S
C1120 O1142 1.240 . S
C1120 O1143 1.264 . S
O1121 Mn1116 2.095 . S
O1121 C1130 1.250 . S
O1122 Mn1117 2.121 . S
O1122 C1130 1.258 . S
C1123 N1124 1.326 . S
C1123 C1127 1.460 . S
C1123 H1129 0.929 . S
N1124 Mn1117 2.257 . S
N1124 C1123 1.326 . S
N1124 C1128 1.362 . S
C1125 C1126 1.258 . S
C1125 C1128 1.431 . S
C1125 C1145 1.449 . S
C1126 C1125 1.258 . S
C1126 C1127 1.477 . S
C1126 H1146 0.931 . S
C1127 C1123 1.460 . S
C1127 C1126 1.477 . S
C1127 H1147 0.930 . S
C1128 N1124 1.362 . S
C1128 C1125 1.431 . S
C1128 C1138 1.476 . S
H1129 C1123 0.929 . S
C1130 O1121 1.250 . S
C1130 O1122 1.258 . S
O1131 Mn1116 2.162 . S
O1131 C1119 1.281 . S
O1132 Mn1116 2.297 . S
O1132 C1119 1.236 . S
N1133 Mn1117 2.282 . S
N1133 C1134 1.328 . S
N1133 C1138 1.318 . S
C1134 N1133 1.328 . S
C1134 C1135 1.457 . S
C1134 H1139 0.929 . S
C1135 C1134 1.457 . S
C1135 C1136 1.291 . S
C1135 H1148 0.931 . S
C1136 C1135 1.291 . S
C1136 C1137 1.373 . S
C1136 H1149 0.929 . S
C1137 C1136 1.373 . S
C1137 C1138 1.396 . S
C1137 C1144 1.403 . S
C1138 C1128 1.476 . S
C1138 N1133 1.318 . S
C1138 C1137 1.396 . S
H1139 C1134 0.929 . S
O1140 Mn1116 2.385 . S
O1140 C1118 1.234 . S
O1141 Mn1116 2.209 . S
O1141 Mn1117 2.215 . S
O1141 C1118 1.283 . S
O1142 Mn1116 2.094 . S
O1142 C1120 1.240 . S
O1143 Mn1117 2.117 . S
O1143 C1120 1.264 . S
C1144 C1137 1.403 . S
C1144 C1145 1.399 . S
C1144 H1150 0.929 . S
C1145 C1125 1.449 . S
C1145 C1144 1.399 . S
C1145 H1151 0.930 . S
H1146 C1126 0.931 . S
H1147 C1127 0.930 . S
H1148 C1135 0.931 . S
H1149 C1136 0.929 . S
H1150 C1144 0.929 . S
H1151 C1145 0.930 . S
Mn1152 O1157 2.095 . S
Mn1152 O1167 2.162 . S
Mn1152 O1168 2.297 . S
Mn1152 O1176 2.385 . S
Mn1152 O1177 2.209 . S
Mn1152 O1178 2.094 . S
Mn1153 O1158 2.121 . S
Mn1153 N1160 2.257 . S
Mn1153 N1169 2.282 . S
Mn1153 O1177 2.215 . S
Mn1153 O1179 2.117 . S
C1154 O1176 1.234 . S
C1154 O1177 1.283 . S
C1155 O1167 1.281 . S
C1155 O1168 1.236 . S
C1156 O1178 1.240 . S
C1156 O1179 1.264 . S
O1157 Mn1152 2.095 . S
O1157 C1166 1.250 . S
O1158 Mn1153 2.121 . S
O1158 C1166 1.258 . S
C1159 N1160 1.326 . S
C1159 C1163 1.460 . S
C1159 H1165 0.929 . S
N1160 Mn1153 2.257 . S
N1160 C1159 1.326 . S
N1160 C1164 1.362 . S
C1161 C1162 1.258 . S
C1161 C1164 1.431 . S
C1161 C1181 1.449 . S
C1162 C1161 1.258 . S
C1162 C1163 1.477 . S
C1162 H1182 0.931 . S
C1163 C1159 1.460 . S
C1163 C1162 1.477 . S
C1163 H1183 0.930 . S
C1164 N1160 1.362 . S
C1164 C1161 1.431 . S
C1164 C1174 1.476 . S
H1165 C1159 0.929 . S
C1166 O1157 1.250 . S
C1166 O1158 1.258 . S
O1167 Mn1152 2.162 . S
O1167 C1155 1.281 . S
O1168 Mn1152 2.297 . S
O1168 C1155 1.236 . S
N1169 Mn1153 2.282 . S
N1169 C1170 1.328 . S
N1169 C1174 1.318 . S
C1170 N1169 1.328 . S
C1170 C1171 1.457 . S
C1170 H1175 0.929 . S
C1171 C1170 1.457 . S
C1171 C1172 1.291 . S
C1171 H1184 0.931 . S
C1172 C1171 1.291 . S
C1172 C1173 1.373 . S
C1172 H1185 0.929 . S
C1173 C1172 1.373 . S
C1173 C1174 1.396 . S
C1173 C1180 1.403 . S
C1174 C1164 1.476 . S
C1174 N1169 1.318 . S
C1174 C1173 1.396 . S
H1175 C1170 0.929 . S
O1176 Mn1152 2.385 . S
O1176 C1154 1.234 . S
O1177 Mn1152 2.209 . S
O1177 Mn1153 2.215 . S
O1177 C1154 1.283 . S
O1178 Mn1152 2.094 . S
O1178 C1156 1.240 . S
O1179 Mn1153 2.117 . S
O1179 C1156 1.264 . S
C1180 C1173 1.403 . S
C1180 C1181 1.399 . S
C1180 H1186 0.929 . S
C1181 C1161 1.449 . S
C1181 C1180 1.399 . S
C1181 H1187 0.930 . S
H1182 C1162 0.931 . S
H1183 C1163 0.930 . S
H1184 C1171 0.931 . S
H1185 C1172 0.929 . S
H1186 C1180 0.929 . S
H1187 C1181 0.930 . S
Mn1188 O1193 2.095 . S
Mn1188 O1203 2.162 . S
Mn1188 O1204 2.297 . S
Mn1188 O1212 2.385 . S
Mn1188 O1213 2.209 . S
Mn1188 O1214 2.094 . S
Mn1189 O1194 2.121 . S
Mn1189 N1196 2.257 . S
Mn1189 N1205 2.282 . S
Mn1189 O1213 2.215 . S
Mn1189 O1215 2.117 . S
C1190 O1212 1.234 . S
C1190 O1213 1.283 . S
C1191 O1203 1.281 . S
C1191 O1204 1.236 . S
C1192 O1214 1.240 . S
C1192 O1215 1.264 . S
O1193 Mn1188 2.095 . S
O1193 C1202 1.250 . S
O1194 Mn1189 2.121 . S
O1194 C1202 1.258 . S
C1195 N1196 1.326 1_554 S
C1195 C1199 1.460 . S
C1195 H1201 0.929 . S
N1196 Mn1189 2.257 . S
N1196 C1195 1.326 1_556 S
N1196 C1200 1.362 . S
C1197 C1198 1.276 . S
C1197 C1200 1.431 . S
C1197 C1217 1.449 . S
C1198 C1197 1.276 . S
C1198 C1199 1.467 1_556 S
C1198 H1218 0.923 1_556 S
C1199 C1195 1.460 . S
C1199 C1198 1.467 1_554 S
C1199 H1219 0.930 . S
C1200 N1196 1.362 . S
C1200 C1197 1.431 . S
C1200 C1210 1.476 . S
H1201 C1195 0.929 . S
C1202 O1193 1.250 . S
C1202 O1194 1.258 . S
O1203 Mn1188 2.162 . S
O1203 C1191 1.281 . S
O1204 Mn1188 2.297 . S
O1204 C1191 1.236 . S
N1205 Mn1189 2.282 . S
N1205 C1206 1.328 . S
N1205 C1210 1.318 . S
C1206 N1205 1.328 . S
C1206 C1207 1.457 . S
C1206 H1211 0.929 . S
C1207 C1206 1.457 . S
C1207 C1208 1.291 . S
C1207 H1220 0.931 . S
C1208 C1207 1.291 . S
C1208 C1209 1.373 . S
C1208 H1221 0.929 . S
C1209 C1208 1.373 . S
C1209 C1210 1.396 . S
C1209 C1216 1.403 . S
C1210 C1200 1.476 . S
C1210 N1205 1.318 . S
C1210 C1209 1.396 . S
H1211 C1206 0.929 . S
O1212 Mn1188 2.385 . S
O1212 C1190 1.234 . S
O1213 Mn1188 2.209 . S
O1213 Mn1189 2.215 . S
O1213 C1190 1.283 . S
O1214 Mn1188 2.094 . S
O1214 C1192 1.240 . S
O1215 Mn1189 2.117 . S
O1215 C1192 1.264 . S
C1216 C1209 1.403 . S
C1216 C1217 1.399 . S
C1216 H1222 0.929 . S
C1217 C1197 1.449 . S
C1217 C1216 1.399 . S
C1217 H1223 0.930 . S
H1218 C1198 0.923 1_554 S
H1219 C1199 0.930 . S
H1220 C1207 0.931 . S
H1221 C1208 0.929 . S
H1222 C1216 0.929 . S
H1223 C1217 0.930 . S
Mn1224 O1229 2.095 . S
Mn1224 O1239 2.162 . S
Mn1224 O1240 2.297 . S
Mn1224 O1248 2.385 . S
Mn1224 O1249 2.209 . S
Mn1224 O1250 2.094 . S
Mn1225 O1230 2.121 . S
Mn1225 N1232 2.257 . S
Mn1225 N1241 2.282 . S
Mn1225 O1249 2.215 . S
Mn1225 O1251 2.117 . S
C1226 O1248 1.234 . S
C1226 O1249 1.283 . S
C1227 O1239 1.281 . S
C1227 O1240 1.236 . S
C1228 O1250 1.240 . S
C1228 O1251 1.264 . S
O1229 Mn1224 2.095 . S
O1229 C1238 1.250 . S
O1230 Mn1225 2.121 . S
O1230 C1238 1.258 . S
C1231 N1232 1.326 1_554 S
C1231 C1235 1.460 . S
C1231 H1237 0.929 . S
N1232 Mn1225 2.257 . S
N1232 C1231 1.326 1_556 S
N1232 C1236 1.362 . S
C1233 C1234 1.276 . S
C1233 C1236 1.431 . S
C1233 C1253 1.449 . S
C1234 C1233 1.276 . S
C1234 C1235 1.467 1_556 S
C1234 H1254 0.923 1_556 S
C1235 C1231 1.460 . S
C1235 C1234 1.467 1_554 S
C1235 H1255 0.930 . S
C1236 N1232 1.362 . S
C1236 C1233 1.431 . S
C1236 C1246 1.476 . S
H1237 C1231 0.929 . S
C1238 O1229 1.250 . S
C1238 O1230 1.258 . S
O1239 Mn1224 2.162 . S
O1239 C1227 1.281 . S
O1240 Mn1224 2.297 . S
O1240 C1227 1.236 . S
N1241 Mn1225 2.282 . S
N1241 C1242 1.328 . S
N1241 C1246 1.318 . S
C1242 N1241 1.328 . S
C1242 C1243 1.457 . S
C1242 H1247 0.929 . S
C1243 C1242 1.457 . S
C1243 C1244 1.291 . S
C1243 H1256 0.931 . S
C1244 C1243 1.291 . S
C1244 C1245 1.373 . S
C1244 H1257 0.929 . S
C1245 C1244 1.373 . S
C1245 C1246 1.396 . S
C1245 C1252 1.403 . S
C1246 C1236 1.476 . S
C1246 N1241 1.318 . S
C1246 C1245 1.396 . S
H1247 C1242 0.929 . S
O1248 Mn1224 2.385 . S
O1248 C1226 1.234 . S
O1249 Mn1224 2.209 . S
O1249 Mn1225 2.215 . S
O1249 C1226 1.283 . S
O1250 Mn1224 2.094 . S
O1250 C1228 1.240 . S
O1251 Mn1225 2.117 . S
O1251 C1228 1.264 . S
C1252 C1245 1.403 . S
C1252 C1253 1.399 . S
C1252 H1258 0.929 . S
C1253 C1233 1.449 . S
C1253 C1252 1.399 . S
C1253 H1259 0.930 . S
H1254 C1234 0.923 1_554 S
H1255 C1235 0.930 . S
H1256 C1243 0.931 . S
H1257 C1244 0.929 . S
H1258 C1252 0.929 . S
H1259 C1253 0.930 . S
Mn1260 O1265 2.095 . S
Mn1260 O1275 2.162 . S
Mn1260 O1276 2.297 . S
Mn1260 O1284 2.385 . S
Mn1260 O1285 2.209 . S
Mn1260 O1286 2.094 . S
Mn1261 O1266 2.121 . S
Mn1261 N1268 2.257 . S
Mn1261 N1277 2.282 . S
Mn1261 O1285 2.215 . S
Mn1261 O1287 2.117 . S
C1262 O1284 1.234 . S
C1262 O1285 1.283 . S
C1263 O1275 1.281 . S
C1263 O1276 1.236 . S
C1264 O1286 1.240 . S
C1264 O1287 1.264 . S
O1265 Mn1260 2.095 . S
O1265 C1274 1.250 . S
O1266 Mn1261 2.121 . S
O1266 C1274 1.258 . S
C1267 N1268 1.326 1_554 S
C1267 C1271 1.460 . S
C1267 H1273 0.929 . S
N1268 Mn1261 2.257 . S
N1268 C1267 1.326 1_556 S
N1268 C1272 1.362 . S
C1269 C1270 1.276 . S
C1269 C1272 1.431 . S
C1269 C1289 1.449 . S
C1270 C1269 1.276 . S
C1270 C1271 1.466 1_556 S
C1270 H1290 0.923 1_556 S
C1271 C1267 1.460 . S
C1271 C1270 1.466 1_554 S
C1271 H1291 0.930 . S
C1272 N1268 1.362 . S
C1272 C1269 1.431 . S
C1272 C1282 1.476 . S
H1273 C1267 0.929 . S
C1274 O1265 1.250 . S
C1274 O1266 1.258 . S
O1275 Mn1260 2.162 . S
O1275 C1263 1.281 . S
O1276 Mn1260 2.297 . S
O1276 C1263 1.236 . S
N1277 Mn1261 2.282 . S
N1277 C1278 1.328 . S
N1277 C1282 1.318 . S
C1278 N1277 1.328 . S
C1278 C1279 1.457 . S
C1278 H1283 0.929 . S
C1279 C1278 1.457 . S
C1279 C1280 1.291 . S
C1279 H1292 0.931 . S
C1280 C1279 1.291 . S
C1280 C1281 1.373 . S
C1280 H1293 0.929 . S
C1281 C1280 1.373 . S
C1281 C1282 1.396 . S
C1281 C1288 1.403 . S
C1282 C1272 1.476 . S
C1282 N1277 1.318 . S
C1282 C1281 1.396 . S
H1283 C1278 0.929 . S
O1284 Mn1260 2.385 . S
O1284 C1262 1.234 . S
O1285 Mn1260 2.209 . S
O1285 Mn1261 2.215 . S
O1285 C1262 1.283 . S
O1286 Mn1260 2.094 . S
O1286 C1264 1.240 . S
O1287 Mn1261 2.117 . S
O1287 C1264 1.264 . S
C1288 C1281 1.403 . S
C1288 C1289 1.399 . S
C1288 H1294 0.929 . S
C1289 C1269 1.449 . S
C1289 C1288 1.399 . S
C1289 H1295 0.930 . S
H1290 C1270 0.923 1_554 S
H1291 C1271 0.930 . S
H1292 C1279 0.931 . S
H1293 C1280 0.929 . S
H1294 C1288 0.929 . S
H1295 C1289 0.930 . S
C1296 C1297 1.349 . S
C1296 C1298 1.327 . S
C1296 H1321 0.950 . S
C1297 C1296 1.349 . S
C1297 C1313 1.349 . S
C1298 C1296 1.327 . S
C1298 C1317 1.429 . S
C1298 H1322 0.950 . S
C1299 C1316 1.574 . S
C1299 C1318 1.368 . S
C1299 H1323 0.949 . S
H1300 C1304 0.949 . S
C1301 C1302 1.349 . S
C1301 C1303 1.327 . S
C1301 H1324 0.950 . S
C1302 C1301 1.349 . S
C1302 C1314 1.349 . S
C1303 C1301 1.327 . S
C1303 C1319 1.429 . S
C1303 H1325 0.950 . S
C1304 H1300 0.949 . S
C1304 C1312 1.574 . S
C1304 C1320 1.368 . S
H1305 C1313 0.950 . S
H1306 C1311 0.950 . S
H1307 C1312 0.949 . S
H1308 C1314 0.950 . S
H1309 C1315 0.950 . S
H1310 C1316 0.949 . S
C1311 H1306 0.950 . S
C1311 C1313 1.327 . S
C1311 C1317 1.429 . S
C1312 C1304 1.574 . S
C1312 H1307 0.949 . S
C1312 C1318 1.368 1_545 S
C1313 C1297 1.349 . S
C1313 H1305 0.950 . S
C1313 C1311 1.327 . S
C1314 C1302 1.349 . S
C1314 H1308 0.950 . S
C1314 C1315 1.327 . S
C1315 H1309 0.950 . S
C1315 C1314 1.327 . S
C1315 C1319 1.429 . S
C1316 C1299 1.574 . S
C1316 H1310 0.949 . S
C1316 C1320 1.368 1_565 S
C1317 C1298 1.429 . S
C1317 C1311 1.429 . S
C1317 C1318 1.523 . S
C1318 C1299 1.368 . S
C1318 C1312 1.368 1_565 S
C1318 C1317 1.523 . S
C1319 C1303 1.429 . S
C1319 C1315 1.429 . S
C1319 C1320 1.523 . S
C1320 C1304 1.368 . S
C1320 C1316 1.368 1_545 S
C1320 C1319 1.523 . S
H1321 C1296 0.950 . S
H1322 C1298 0.950 . S
H1323 C1299 0.949 . S
H1324 C1301 0.950 . S
H1325 C1303 0.950 . S
C1326 C1327 1.349 . S
C1326 C1328 1.327 . S
C1326 H1351 0.950 . S
C1327 C1326 1.349 . S
C1327 C1343 1.349 . S
C1328 C1326 1.327 . S
C1328 C1347 1.429 . S
C1328 H1352 0.950 . S
C1329 C1346 1.574 . S
C1329 C1348 1.368 . S
C1329 H1353 0.949 . S
H1330 C1334 0.949 . S
C1331 C1332 1.349 . S
C1331 C1333 1.327 . S
C1331 H1354 0.950 . S
C1332 C1331 1.349 . S
C1332 C1344 1.349 . S
C1333 C1331 1.327 . S
C1333 C1349 1.429 . S
C1333 H1355 0.950 . S
C1334 H1330 0.949 . S
C1334 C1342 1.574 . S
C1334 C1350 1.368 . S
H1335 C1343 0.950 . S
H1336 C1341 0.950 . S
H1337 C1342 0.949 . S
H1338 C1344 0.950 . S
H1339 C1345 0.950 . S
H1340 C1346 0.949 . S
C1341 H1336 0.950 . S
C1341 C1343 1.327 . S
C1341 C1347 1.429 . S
C1342 C1334 1.574 . S
C1342 H1337 0.949 . S
C1342 C1348 1.368 1_655 S
C1343 C1327 1.349 . S
C1343 H1335 0.950 . S
C1343 C1341 1.327 . S
C1344 C1332 1.349 . S
C1344 H1338 0.950 . S
C1344 C1345 1.327 . S
C1345 H1339 0.950 . S
C1345 C1344 1.327 . S
C1345 C1349 1.429 . S
C1346 C1329 1.574 . S
C1346 H1340 0.949 . S
C1346 C1350 1.368 1_455 S
C1347 C1328 1.429 . S
C1347 C1341 1.429 . S
C1347 C1348 1.523 . S
C1348 C1329 1.368 . S
C1348 C1342 1.368 1_455 S
C1348 C1347 1.523 . S
C1349 C1333 1.429 . S
C1349 C1345 1.429 . S
C1349 C1350 1.523 . S
C1350 C1334 1.368 . S
C1350 C1346 1.368 1_655 S
C1350 C1349 1.523 . S
H1351 C1326 0.950 . S
H1352 C1328 0.950 . S
H1353 C1329 0.949 . S
H1354 C1331 0.950 . S
H1355 C1333 0.950 . S
C1356 C1357 1.349 . S
C1356 C1358 1.327 . S
C1356 H1381 0.950 . S
C1357 C1356 1.349 . S
C1357 C1373 1.349 . S
C1358 C1356 1.327 . S
C1358 C1377 1.429 . S
C1358 H1382 0.950 . S
C1359 C1376 1.574 . S
C1359 C1378 1.368 . S
C1359 H1383 0.949 . S
H1360 C1364 0.949 . S
C1361 C1362 1.349 . S
C1361 C1363 1.327 . S
C1361 H1384 0.950 . S
C1362 C1361 1.349 . S
C1362 C1374 1.349 . S
C1363 C1361 1.327 . S
C1363 C1379 1.429 . S
C1363 H1385 0.950 . S
C1364 H1360 0.949 . S
C1364 C1372 1.574 . S
C1364 C1380 1.368 . S
H1365 C1373 0.950 . S
H1366 C1371 0.950 . S
H1367 C1372 0.949 . S
H1368 C1374 0.950 . S
H1369 C1375 0.950 . S
H1370 C1376 0.949 . S
C1371 H1366 0.950 . S
C1371 C1373 1.327 . S
C1371 C1377 1.429 . S
C1372 C1364 1.574 . S
C1372 H1367 0.949 . S
C1372 C1378 1.368 . S
C1373 C1357 1.349 . S
C1373 H1365 0.950 . S
C1373 C1371 1.327 . S
C1374 C1362 1.349 . S
C1374 H1368 0.950 . S
C1374 C1375 1.327 . S
C1375 H1369 0.950 . S
C1375 C1374 1.327 . S
C1375 C1379 1.429 . S
C1376 C1359 1.574 . S
C1376 H1370 0.949 . S
C1376 C1380 1.368 . S
C1377 C1358 1.429 . S
C1377 C1371 1.429 . S
C1377 C1378 1.523 . S
C1378 C1359 1.368 . S
C1378 C1372 1.368 . S
C1378 C1377 1.523 . S
C1379 C1363 1.429 . S
C1379 C1375 1.429 . S
C1379 C1380 1.523 . S
C1380 C1364 1.368 . S
C1380 C1376 1.368 . S
C1380 C1379 1.523 . S
H1381 C1356 0.950 . S
H1382 C1358 0.950 . S
H1383 C1359 0.949 . S
H1384 C1361 0.950 . S
H1385 C1363 0.950 . S
C1386 C1387 1.349 . S
C1386 C1388 1.327 . S
C1386 H1411 0.950 . S
C1387 C1386 1.349 . S
C1387 C1403 1.349 . S
C1388 C1386 1.327 . S
C1388 C1407 1.429 . S
C1388 H1412 0.950 . S
C1389 C1406 1.574 1_565 S
C1389 C1408 1.368 . S
C1389 H1413 0.949 . S
H1390 C1394 0.949 . S
C1391 C1392 1.349 . S
C1391 C1393 1.327 . S
C1391 H1414 0.950 . S
C1392 C1391 1.349 . S
C1392 C1404 1.349 . S
C1393 C1391 1.327 . S
C1393 C1409 1.429 . S
C1393 H1415 0.950 . S
C1394 H1390 0.949 . S
C1394 C1402 1.574 1_545 S
C1394 C1410 1.368 . S
H1395 C1403 0.950 . S
H1396 C1401 0.950 . S
H1397 C1402 0.949 . S
H1398 C1404 0.950 . S
H1399 C1405 0.950 . S
H1400 C1406 0.949 . S
C1401 H1396 0.950 . S
C1401 C1403 1.327 . S
C1401 C1407 1.429 . S
C1402 C1394 1.574 1_565 S
C1402 H1397 0.949 . S
C1402 C1408 1.368 . S
C1403 C1387 1.349 . S
C1403 H1395 0.950 . S
C1403 C1401 1.327 . S
C1404 C1392 1.349 . S
C1404 H1398 0.950 . S
C1404 C1405 1.327 . S
C1405 H1399 0.950 . S
C1405 C1404 1.327 . S
C1405 C1409 1.429 . S
C1406 C1389 1.574 1_545 S
C1406 H1400 0.949 . S
C1406 C1410 1.368 . S
C1407 C1388 1.429 . S
C1407 C1401 1.429 . S
C1407 C1408 1.523 . S
C1408 C1389 1.368 . S
C1408 C1402 1.368 . S
C1408 C1407 1.523 . S
C1409 C1393 1.429 . S
C1409 C1405 1.429 . S
C1409 C1410 1.523 . S
C1410 C1394 1.368 . S
C1410 C1406 1.368 . S
C1410 C1409 1.523 . S
H1411 C1386 0.950 . S
H1412 C1388 0.950 . S
H1413 C1389 0.949 . S
H1414 C1391 0.950 . S
H1415 C1393 0.950 . S
C1416 C1417 1.349 . S
C1416 C1418 1.327 . S
C1416 H1441 0.950 . S
C1417 C1416 1.349 . S
C1417 C1433 1.349 . S
C1418 C1416 1.327 . S
C1418 C1437 1.429 . S
C1418 H1442 0.950 . S
C1419 C1436 1.635 . S
C1419 C1438 1.368 . S
C1419 H1443 0.949 . S
H1420 C1424 0.949 . S
C1421 C1422 1.349 . S
C1421 C1423 1.327 . S
C1421 H1444 0.950 . S
C1422 C1421 1.349 . S
C1422 C1434 1.349 . S
C1423 C1421 1.327 . S
C1423 C1439 1.429 . S
C1423 H1445 0.950 . S
C1424 H1420 0.949 . S
C1424 C1432 1.636 . S
C1424 C1440 1.368 . S
H1425 C1433 0.950 . S
H1426 C1431 0.950 . S
H1427 C1432 0.925 . S
H1428 C1434 0.950 . S
H1429 C1435 0.950 . S
H1430 C1436 0.925 . S
C1431 H1426 0.950 . S
C1431 C1433 1.327 . S
C1431 C1437 1.429 . S
C1432 C1424 1.636 . S
C1432 H1427 0.925 . S
C1432 C1438 1.345 1_655 S
C1433 C1417 1.349 . S
C1433 H1425 0.950 . S
C1433 C1431 1.327 . S
C1434 C1422 1.349 . S
C1434 H1428 0.950 . S
C1434 C1435 1.327 . S
C1435 H1429 0.950 . S
C1435 C1434 1.327 . S
C1435 C1439 1.429 . S
C1436 C1419 1.635 . S
C1436 H1430 0.925 . S
C1436 C1440 1.345 1_455 S
C1437 C1418 1.429 . S
C1437 C1431 1.429 . S
C1437 C1438 1.523 . S
C1438 C1419 1.368 . S
C1438 C1432 1.345 1_455 S
C1438 C1437 1.523 . S
C1439 C1423 1.429 . S
C1439 C1435 1.429 . S
C1439 C1440 1.523 . S
C1440 C1424 1.368 . S
C1440 C1436 1.345 1_655 S
C1440 C1439 1.523 . S
H1441 C1416 0.950 . S
H1442 C1418 0.950 . S
H1443 C1419 0.949 . S
H1444 C1421 0.950 . S
H1445 C1423 0.950 . S
C1446 C1447 1.349 . S
C1446 C1448 1.327 . S
C1446 H1471 0.950 . S
C1447 C1446 1.349 . S
C1447 C1463 1.349 . S
C1448 C1446 1.327 . S
C1448 C1467 1.429 . S
C1448 H1472 0.950 . S
C1449 C1466 1.574 . S
C1449 C1468 1.368 . S
C1449 H1473 0.949 . S
H1450 C1454 0.949 . S
C1451 C1452 1.349 . S
C1451 C1453 1.327 . S
C1451 H1474 0.950 . S
C1452 C1451 1.349 . S
C1452 C1464 1.349 . S
C1453 C1451 1.327 . S
C1453 C1469 1.429 . S
C1453 H1475 0.950 . S
C1454 H1450 0.949 . S
C1454 C1462 1.574 . S
C1454 C1470 1.368 . S
H1455 C1463 0.950 . S
H1456 C1461 0.950 . S
H1457 C1462 0.949 . S
H1458 C1464 0.950 . S
H1459 C1465 0.950 . S
H1460 C1466 0.949 . S
C1461 H1456 0.950 . S
C1461 C1463 1.327 . S
C1461 C1467 1.429 . S
C1462 C1454 1.574 . S
C1462 H1457 0.949 . S
C1462 C1468 1.368 . S
C1463 C1447 1.349 . S
C1463 H1455 0.950 . S
C1463 C1461 1.327 . S
C1464 C1452 1.349 . S
C1464 H1458 0.950 . S
C1464 C1465 1.327 . S
C1465 H1459 0.950 . S
C1465 C1464 1.327 . S
C1465 C1469 1.429 . S
C1466 C1449 1.574 . S
C1466 H1460 0.949 . S
C1466 C1470 1.368 . S
C1467 C1448 1.429 . S
C1467 C1461 1.429 . S
C1467 C1468 1.523 . S
C1468 C1449 1.368 . S
C1468 C1462 1.368 . S
C1468 C1467 1.523 . S
C1469 C1453 1.429 . S
C1469 C1465 1.429 . S
C1469 C1470 1.523 . S
C1470 C1454 1.368 . S
C1470 C1466 1.368 . S
C1470 C1469 1.523 . S
H1471 C1446 0.950 . S
H1472 C1448 0.950 . S
H1473 C1449 0.949 . S
H1474 C1451 0.950 . S
H1475 C1453 0.950 . S
C1476 C1477 1.349 . S
C1476 C1478 1.327 . S
C1476 H1501 0.950 . S
C1477 C1476 1.349 . S
C1477 C1493 1.349 . S
C1478 C1476 1.327 . S
C1478 C1497 1.429 . S
C1478 H1502 0.950 . S
C1479 C1496 1.574 . S
C1479 C1498 1.368 . S
C1479 H1503 0.949 . S
H1480 C1484 0.949 . S
C1481 C1482 1.349 . S
C1481 C1483 1.327 . S
C1481 H1504 0.950 . S
C1482 C1481 1.349 . S
C1482 C1494 1.349 . S
C1483 C1481 1.327 . S
C1483 C1499 1.429 . S
C1483 H1505 0.950 . S
C1484 H1480 0.949 . S
C1484 C1492 1.574 . S
C1484 C1500 1.368 . S
H1485 C1493 0.950 . S
H1486 C1491 0.950 . S
H1487 C1492 0.949 . S
H1488 C1494 0.950 1_554 S
H1489 C1495 0.950 . S
H1490 C1496 0.949 . S
C1491 H1486 0.950 . S
C1491 C1493 1.327 . S
C1491 C1497 1.429 . S
C1492 C1484 1.574 . S
C1492 H1487 0.949 . S
C1492 C1498 1.368 . S
C1493 C1477 1.349 . S
C1493 H1485 0.950 . S
C1493 C1491 1.327 . S
C1494 C1482 1.349 . S
C1494 H1488 0.950 1_556 S
C1494 C1495 1.327 . S
C1495 H1489 0.950 . S
C1495 C1494 1.327 . S
C1495 C1499 1.429 . S
C1496 C1479 1.574 . S
C1496 H1490 0.949 . S
C1496 C1500 1.368 . S
C1497 C1478 1.429 . S
C1497 C1491 1.429 . S
C1497 C1498 1.523 . S
C1498 C1479 1.368 . S
C1498 C1492 1.368 . S
C1498 C1497 1.523 . S
C1499 C1483 1.429 . S
C1499 C1495 1.429 . S
C1499 C1500 1.523 . S
C1500 C1484 1.368 . S
C1500 C1496 1.368 . S
C1500 C1499 1.523 . S
H1501 C1476 0.950 . S
H1502 C1478 0.950 . S
H1503 C1479 0.949 . S
H1504 C1481 0.950 . S
H1505 C1483 0.950 . S
C1506 C1507 1.349 . S
C1506 C1508 1.327 . S
C1506 H1531 0.950 . S
C1507 C1506 1.349 . S
C1507 C1523 1.349 . S
C1508 C1506 1.327 . S
C1508 C1527 1.429 . S
C1508 H1532 0.950 . S
C1509 C1526 1.574 . S
C1509 C1528 1.368 . S
C1509 H1533 0.949 . S
H1510 C1514 0.949 . S
C1511 C1512 1.349 . S
C1511 C1513 1.327 . S
C1511 H1534 0.950 . S
C1512 C1511 1.349 . S
C1512 C1524 1.349 . S
C1513 C1511 1.327 . S
C1513 C1529 1.429 . S
C1513 H1535 0.950 . S
C1514 H1510 0.949 . S
C1514 C1522 1.574 . S
C1514 C1530 1.368 . S
H1515 C1523 0.950 . S
H1516 C1521 0.950 . S
H1517 C1522 0.949 . S
H1518 C1524 0.950 . S
H1519 C1525 0.950 . S
H1520 C1526 0.949 . S
C1521 H1516 0.950 . S
C1521 C1523 1.327 . S
C1521 C1527 1.429 . S
C1522 C1514 1.574 . S
C1522 H1517 0.949 . S
C1522 C1528 1.368 . S
C1523 C1507 1.349 . S
C1523 H1515 0.950 . S
C1523 C1521 1.327 . S
C1524 C1512 1.349 . S
C1524 H1518 0.950 . S
C1524 C1525 1.327 . S
C1525 H1519 0.950 . S
C1525 C1524 1.327 . S
C1525 C1529 1.429 . S
C1526 C1509 1.574 . S
C1526 H1520 0.949 . S
C1526 C1530 1.368 . S
C1527 C1508 1.429 . S
C1527 C1521 1.429 . S
C1527 C1528 1.523 . S
C1528 C1509 1.368 . S
C1528 C1522 1.368 . S
C1528 C1527 1.523 . S
C1529 C1513 1.429 . S
C1529 C1525 1.429 . S
C1529 C1530 1.523 . S
C1530 C1514 1.368 . S
C1530 C1526 1.368 . S
C1530 C1529 1.523 . S
H1531 C1506 0.950 . S
H1532 C1508 0.950 . S
H1533 C1509 0.949 . S
H1534 C1511 0.950 . S
H1535 C1513 0.950 . S
C1536 C1537 1.349 . S
C1536 C1538 1.327 . S
C1536 H1561 0.950 . S
C1537 C1536 1.349 . S
C1537 C1553 1.349 . S
C1538 C1536 1.327 . S
C1538 C1557 1.429 . S
C1538 H1562 0.950 . S
C1539 C1556 1.574 . S
C1539 C1558 1.368 . S
C1539 H1563 0.949 . S
H1540 C1544 0.949 . S
C1541 C1542 1.349 . S
C1541 C1543 1.327 . S
C1541 H1564 0.950 1_556 S
C1542 C1541 1.349 . S
C1542 C1554 1.349 . S
C1543 C1541 1.327 . S
C1543 C1559 1.429 . S
C1543 H1565 0.950 . S
C1544 H1540 0.949 . S
C1544 C1552 1.574 . S
C1544 C1560 1.368 . S
H1545 C1553 0.950 . S
H1546 C1551 0.950 . S
H1547 C1552 0.949 . S
H1548 C1554 0.950 . S
H1549 C1555 0.950 . S
H1550 C1556 0.949 . S
C1551 H1546 0.950 . S
C1551 C1553 1.327 . S
C1551 C1557 1.429 . S
C1552 C1544 1.574 . S
C1552 H1547 0.949 . S
C1552 C1558 1.368 . S
C1553 C1537 1.349 . S
C1553 H1545 0.950 . S
C1553 C1551 1.327 . S
C1554 C1542 1.349 . S
C1554 H1548 0.950 . S
C1554 C1555 1.327 . S
C1555 H1549 0.950 . S
C1555 C1554 1.327 . S
C1555 C1559 1.429 . S
C1556 C1539 1.574 . S
C1556 H1550 0.949 . S
C1556 C1560 1.368 . S
C1557 C1538 1.429 . S
C1557 C1551 1.429 . S
C1557 C1558 1.523 . S
C1558 C1539 1.368 . S
C1558 C1552 1.368 . S
C1558 C1557 1.523 . S
C1559 C1543 1.429 . S
C1559 C1555 1.429 . S
C1559 C1560 1.523 . S
C1560 C1544 1.368 . S
C1560 C1556 1.368 . S
C1560 C1559 1.523 . S
H1561 C1536 0.950 . S
H1562 C1538 0.950 . S
H1563 C1539 0.949 . S
H1564 C1541 0.950 1_554 S
H1565 C1543 0.950 . S
C1566 C1567 1.349 . S
C1566 C1568 1.327 . S
C1566 H1591 0.950 . S
C1567 C1566 1.349 . S
C1567 C1583 1.349 . S
C1568 C1566 1.327 . S
C1568 C1587 1.429 . S
C1568 H1592 0.950 . S
C1569 C1586 1.574 . S
C1569 C1588 1.368 . S
C1569 H1593 0.949 . S
H1570 C1574 0.949 . S
C1571 C1572 1.349 . S
C1571 C1573 1.327 . S
C1571 H1594 0.950 1_556 S
C1572 C1571 1.349 . S
C1572 C1584 1.349 . S
C1573 C1571 1.327 . S
C1573 C1589 1.429 . S
C1573 H1595 0.950 . S
C1574 H1570 0.949 . S
C1574 C1582 1.574 . S
C1574 C1590 1.368 . S
H1575 C1583 0.950 . S
H1576 C1581 0.950 . S
H1577 C1582 0.949 . S
H1578 C1584 0.950 . S
H1579 C1585 0.950 . S
H1580 C1586 0.949 . S
C1581 H1576 0.950 . S
C1581 C1583 1.327 . S
C1581 C1587 1.429 . S
C1582 C1574 1.574 . S
C1582 H1577 0.949 . S
C1582 C1588 1.368 . S
C1583 C1567 1.349 . S
C1583 H1575 0.950 . S
C1583 C1581 1.327 . S
C1584 C1572 1.349 . S
C1584 H1578 0.950 . S
C1584 C1585 1.327 . S
C1585 H1579 0.950 . S
C1585 C1584 1.327 . S
C1585 C1589 1.429 . S
C1586 C1569 1.574 . S
C1586 H1580 0.949 . S
C1586 C1590 1.368 . S
C1587 C1568 1.429 . S
C1587 C1581 1.429 . S
C1587 C1588 1.523 . S
C1588 C1569 1.368 . S
C1588 C1582 1.368 . S
C1588 C1587 1.523 . S
C1589 C1573 1.429 . S
C1589 C1585 1.429 . S
C1589 C1590 1.523 . S
C1590 C1574 1.368 . S
C1590 C1586 1.368 . S
C1590 C1589 1.523 . S
H1591 C1566 0.950 . S
H1592 C1568 0.950 . S
H1593 C1569 0.949 . S
H1594 C1571 0.950 1_554 S
H1595 C1573 0.950 . S
C1596 C1597 1.349 . S
C1596 C1598 1.327 . S
C1596 H1621 0.950 1_556 S
C1597 C1596 1.349 . S
C1597 C1613 1.349 . S
C1598 C1596 1.327 . S
C1598 C1617 1.429 . S
C1598 H1622 0.950 . S
C1599 C1616 1.574 . S
C1599 C1618 1.368 . S
C1599 H1623 0.949 . S
H1600 C1604 0.949 . S
C1601 C1602 1.349 . S
C1601 C1603 1.327 . S
C1601 H1624 0.950 . S
C1602 C1601 1.349 . S
C1602 C1614 1.349 . S
C1603 C1601 1.327 . S
C1603 C1619 1.429 . S
C1603 H1625 0.950 . S
C1604 H1600 0.949 . S
C1604 C1612 1.574 . S
C1604 C1620 1.368 . S
H1605 C1613 0.950 . S
H1606 C1611 0.950 . S
H1607 C1612 0.949 . S
H1608 C1614 0.950 . S
H1609 C1615 0.950 . S
H1610 C1616 0.949 . S
C1611 H1606 0.950 . S
C1611 C1613 1.327 . S
C1611 C1617 1.429 . S
C1612 C1604 1.574 . S
C1612 H1607 0.949 . S
C1612 C1618 1.368 . S
C1613 C1597 1.349 . S
C1613 H1605 0.950 . S
C1613 C1611 1.327 . S
C1614 C1602 1.349 . S
C1614 H1608 0.950 . S
C1614 C1615 1.327 . S
C1615 H1609 0.950 . S
C1615 C1614 1.327 . S
C1615 C1619 1.429 . S
C1616 C1599 1.574 . S
C1616 H1610 0.949 . S
C1616 C1620 1.368 . S
C1617 C1598 1.429 . S
C1617 C1611 1.429 . S
C1617 C1618 1.523 . S
C1618 C1599 1.368 . S
C1618 C1612 1.368 . S
C1618 C1617 1.523 . S
C1619 C1603 1.429 . S
C1619 C1615 1.429 . S
C1619 C1620 1.523 . S
C1620 C1604 1.368 . S
C1620 C1616 1.368 . S
C1620 C1619 1.523 . S
H1621 C1596 0.950 1_554 S
H1622 C1598 0.950 . S
H1623 C1599 0.949 . S
H1624 C1601 0.950 . S
H1625 C1603 0.950 . S
C1626 C1627 1.349 . S
C1626 C1628 1.327 . S
C1626 H1651 0.950 . S
C1627 C1626 1.349 . S
C1627 C1643 1.349 . S
C1628 C1626 1.327 . S
C1628 C1647 1.429 . S
C1628 H1652 0.950 . S
C1629 C1646 1.574 . S
C1629 C1648 1.368 . S
C1629 H1653 0.949 . S
H1630 C1634 0.949 . S
C1631 C1632 1.349 . S
C1631 C1633 1.327 . S
C1631 H1654 0.950 . S
C1632 C1631 1.349 . S
C1632 C1644 1.349 . S
C1633 C1631 1.327 . S
C1633 C1649 1.429 . S
C1633 H1655 0.950 . S
C1634 H1630 0.949 . S
C1634 C1642 1.574 . S
C1634 C1650 1.368 . S
H1635 C1643 0.950 . S
H1636 C1641 0.950 . S
H1637 C1642 0.949 . S
H1638 C1644 0.950 . S
H1639 C1645 0.950 . S
H1640 C1646 0.949 . S
C1641 H1636 0.950 . S
C1641 C1643 1.327 . S
C1641 C1647 1.429 . S
C1642 C1634 1.574 . S
C1642 H1637 0.949 . S
C1642 C1648 1.368 . S
C1643 C1627 1.349 . S
C1643 H1635 0.950 . S
C1643 C1641 1.327 . S
C1644 C1632 1.349 . S
C1644 H1638 0.950 . S
C1644 C1645 1.327 . S
C1645 H1639 0.950 . S
C1645 C1644 1.327 . S
C1645 C1649 1.429 . S
C1646 C1629 1.574 . S
C1646 H1640 0.949 . S
C1646 C1650 1.368 . S
C1647 C1628 1.429 . S
C1647 C1641 1.429 . S
C1647 C1648 1.523 . S
C1648 C1629 1.368 . S
C1648 C1642 1.368 . S
C1648 C1647 1.523 . S
C1649 C1633 1.429 . S
C1649 C1645 1.429 . S
C1649 C1650 1.523 . S
C1650 C1634 1.368 . S
C1650 C1646 1.368 . S
C1650 C1649 1.523 . S
H1651 C1626 0.950 . S
H1652 C1628 0.950 . S
H1653 C1629 0.949 . S
H1654 C1631 0.950 . S
H1655 C1633 0.950 . S
C1656 C1657 1.349 . S
C1656 C1658 1.327 . S
C1656 H1681 0.950 . S
C1657 C1656 1.349 . S
C1657 C1673 1.349 . S
C1658 C1656 1.327 . S
C1658 C1677 1.429 . S
C1658 H1682 0.950 . S
C1659 C1676 1.574 . S
C1659 C1678 1.368 . S
C1659 H1683 0.949 . S
H1660 C1664 0.949 . S
C1661 C1662 1.349 . S
C1661 C1663 1.327 . S
C1661 H1684 0.950 . S
C1662 C1661 1.349 . S
C1662 C1674 1.349 . S
C1663 C1661 1.327 . S
C1663 C1679 1.429 . S
C1663 H1685 0.950 . S
C1664 H1660 0.949 . S
C1664 C1672 1.574 . S
C1664 C1680 1.368 . S
H1665 C1673 0.950 . S
H1666 C1671 0.950 . S
H1667 C1672 0.949 . S
H1668 C1674 0.950 1_556 S
H1669 C1675 0.950 . S
H1670 C1676 0.949 . S
C1671 H1666 0.950 . S
C1671 C1673 1.327 . S
C1671 C1677 1.429 . S
C1672 C1664 1.574 . S
C1672 H1667 0.949 . S
C1672 C1678 1.368 . S
C1673 C1657 1.349 . S
C1673 H1665 0.950 . S
C1673 C1671 1.327 . S
C1674 C1662 1.349 . S
C1674 H1668 0.950 1_554 S
C1674 C1675 1.327 . S
C1675 H1669 0.950 . S
C1675 C1674 1.327 . S
C1675 C1679 1.429 . S
C1676 C1659 1.574 . S
C1676 H1670 0.949 . S
C1676 C1680 1.368 . S
C1677 C1658 1.429 . S
C1677 C1671 1.429 . S
C1677 C1678 1.523 . S
C1678 C1659 1.368 . S
C1678 C1672 1.368 . S
C1678 C1677 1.523 . S
C1679 C1663 1.429 . S
C1679 C1675 1.429 . S
C1679 C1680 1.523 . S
C1680 C1664 1.368 . S
C1680 C1676 1.368 . S
C1680 C1679 1.523 . S
H1681 C1656 0.950 . S
H1682 C1658 0.950 . S
H1683 C1659 0.949 . S
H1684 C1661 0.950 . S
H1685 C1663 0.950 . S
C1686 C1687 1.349 . S
C1686 C1688 1.327 . S
C1686 H1711 0.950 . S
C1687 C1686 1.349 . S
C1687 C1703 1.349 . S
C1688 C1686 1.327 . S
C1688 C1707 1.429 . S
C1688 H1712 0.950 . S
C1689 C1706 1.574 . S
C1689 C1708 1.368 . S
C1689 H1713 0.949 . S
H1690 C1694 0.949 . S
C1691 C1692 1.349 . S
C1691 C1693 1.327 . S
C1691 H1714 0.950 1_554 S
C1692 C1691 1.349 . S
C1692 C1704 1.349 . S
C1693 C1691 1.327 . S
C1693 C1709 1.429 . S
C1693 H1715 0.950 . S
C1694 H1690 0.949 . S
C1694 C1702 1.574 . S
C1694 C1710 1.368 . S
H1695 C1703 0.950 . S
H1696 C1701 0.950 . S
H1697 C1702 0.949 . S
H1698 C1704 0.950 . S
H1699 C1705 0.950 . S
H1700 C1706 0.949 . S
C1701 H1696 0.950 . S
C1701 C1703 1.327 . S
C1701 C1707 1.429 . S
C1702 C1694 1.574 . S
C1702 H1697 0.949 . S
C1702 C1708 1.368 . S
C1703 C1687 1.349 . S
C1703 H1695 0.950 . S
C1703 C1701 1.327 . S
C1704 C1692 1.349 . S
C1704 H1698 0.950 . S
C1704 C1705 1.327 . S
C1705 H1699 0.950 . S
C1705 C1704 1.327 . S
C1705 C1709 1.429 . S
C1706 C1689 1.574 . S
C1706 H1700 0.949 . S
C1706 C1710 1.368 . S
C1707 C1688 1.429 . S
C1707 C1701 1.429 . S
C1707 C1708 1.523 . S
C1708 C1689 1.368 . S
C1708 C1702 1.368 . S
C1708 C1707 1.523 . S
C1709 C1693 1.429 . S
C1709 C1705 1.429 . S
C1709 C1710 1.523 . S
C1710 C1694 1.368 . S
C1710 C1706 1.368 . S
C1710 C1709 1.523 . S
H1711 C1686 0.950 . S
H1712 C1688 0.950 . S
H1713 C1689 0.949 . S
H1714 C1691 0.950 1_556 S
H1715 C1693 0.950 . S
C1716 C1717 1.349 . S
C1716 C1718 1.327 . S
C1716 H1741 0.950 . S
C1717 C1716 1.349 . S
C1717 C1733 1.349 . S
C1718 C1716 1.327 . S
C1718 C1737 1.429 . S
C1718 H1742 0.950 . S
C1719 C1736 1.574 . S
C1719 C1738 1.368 . S
C1719 H1743 0.949 . S
H1720 C1724 0.949 . S
C1721 C1722 1.349 . S
C1721 C1723 1.327 . S
C1721 H1744 0.950 . S
C1722 C1721 1.349 . S
C1722 C1734 1.349 . S
C1723 C1721 1.327 . S
C1723 C1739 1.429 . S
C1723 H1745 0.950 . S
C1724 H1720 0.949 . S
C1724 C1732 1.574 . S
C1724 C1740 1.368 . S
H1725 C1733 0.950 . S
H1726 C1731 0.950 . S
H1727 C1732 0.949 . S
H1728 C1734 0.950 . S
H1729 C1735 0.950 . S
H1730 C1736 0.949 . S
C1731 H1726 0.950 . S
C1731 C1733 1.327 . S
C1731 C1737 1.429 . S
C1732 C1724 1.574 . S
C1732 H1727 0.949 . S
C1732 C1738 1.368 . S
C1733 C1717 1.349 . S
C1733 H1725 0.950 . S
C1733 C1731 1.327 . S
C1734 C1722 1.349 . S
C1734 H1728 0.950 . S
C1734 C1735 1.327 . S
C1735 H1729 0.950 . S
C1735 C1734 1.327 . S
C1735 C1739 1.429 . S
C1736 C1719 1.574 . S
C1736 H1730 0.949 . S
C1736 C1740 1.368 . S
C1737 C1718 1.429 . S
C1737 C1731 1.429 . S
C1737 C1738 1.523 . S
C1738 C1719 1.368 . S
C1738 C1732 1.368 . S
C1738 C1737 1.523 . S
C1739 C1723 1.429 . S
C1739 C1735 1.429 . S
C1739 C1740 1.523 . S
C1740 C1724 1.368 . S
C1740 C1736 1.368 . S
C1740 C1739 1.523 . S
H1741 C1716 0.950 . S
H1742 C1718 0.950 . S
H1743 C1719 0.949 . S
H1744 C1721 0.950 . S
H1745 C1723 0.950 . S
C1746 C1747 1.349 . S
C1746 C1748 1.327 . S
C1746 H1771 0.950 . S
C1747 C1746 1.349 . S
C1747 C1763 1.349 . S
C1748 C1746 1.327 . S
C1748 C1767 1.429 . S
C1748 H1772 0.950 . S
C1749 C1766 1.574 . S
C1749 C1768 1.368 . S
C1749 H1773 0.949 . S
H1750 C1754 0.949 . S
C1751 C1752 1.349 . S
C1751 C1753 1.327 . S
C1751 H1774 0.950 . S
C1752 C1751 1.349 . S
C1752 C1764 1.349 . S
C1753 C1751 1.327 . S
C1753 C1769 1.429 . S
C1753 H1775 0.950 . S
C1754 H1750 0.949 . S
C1754 C1762 1.574 . S
C1754 C1770 1.368 . S
H1755 C1763 0.950 . S
H1756 C1761 0.950 . S
H1757 C1762 0.949 . S
H1758 C1764 0.950 . S
H1759 C1765 0.950 . S
H1760 C1766 0.949 . S
C1761 H1756 0.950 . S
C1761 C1763 1.327 . S
C1761 C1767 1.429 . S
C1762 C1754 1.574 . S
C1762 H1757 0.949 . S
C1762 C1768 1.368 . S
C1763 C1747 1.349 . S
C1763 H1755 0.950 . S
C1763 C1761 1.327 . S
C1764 C1752 1.349 . S
C1764 H1758 0.950 . S
C1764 C1765 1.327 . S
C1765 H1759 0.950 . S
C1765 C1764 1.327 . S
C1765 C1769 1.429 . S
C1766 C1749 1.574 . S
C1766 H1760 0.949 . S
C1766 C1770 1.368 . S
C1767 C1748 1.429 . S
C1767 C1761 1.429 . S
C1767 C1768 1.523 . S
C1768 C1749 1.368 . S
C1768 C1762 1.368 . S
C1768 C1767 1.523 . S
C1769 C1753 1.429 . S
C1769 C1765 1.429 . S
C1769 C1770 1.523 . S
C1770 C1754 1.368 . S
C1770 C1766 1.368 . S
C1770 C1769 1.523 . S
H1771 C1746 0.950 . S
H1772 C1748 0.950 . S
H1773 C1749 0.949 . S
H1774 C1751 0.950 . S
H1775 C1753 0.950 . S
C1776 C1777 1.349 . S
C1776 C1778 1.327 . S
C1776 H1801 0.950 . S
C1777 C1776 1.349 . S
C1777 C1793 1.349 . S
C1778 C1776 1.327 . S
C1778 C1797 1.429 . S
C1778 H1802 0.950 . S
C1779 C1796 1.574 . S
C1779 C1798 1.368 . S
C1779 H1803 0.949 . S
H1780 C1784 0.949 . S
C1781 C1782 1.349 . S
C1781 C1783 1.327 . S
C1781 H1804 0.950 1_554 S
C1782 C1781 1.349 . S
C1782 C1794 1.349 . S
C1783 C1781 1.327 . S
C1783 C1799 1.429 . S
C1783 H1805 0.950 . S
C1784 H1780 0.949 . S
C1784 C1792 1.574 . S
C1784 C1800 1.368 . S
H1785 C1793 0.950 . S
H1786 C1791 0.950 . S
H1787 C1792 0.949 . S
H1788 C1794 0.950 . S
H1789 C1795 0.950 . S
H1790 C1796 0.949 . S
C1791 H1786 0.950 . S
C1791 C1793 1.327 . S
C1791 C1797 1.429 . S
C1792 C1784 1.574 . S
C1792 H1787 0.949 . S
C1792 C1798 1.368 . S
C1793 C1777 1.349 . S
C1793 H1785 0.950 . S
C1793 C1791 1.327 . S
C1794 C1782 1.349 . S
C1794 H1788 0.950 . S
C1794 C1795 1.327 . S
C1795 H1789 0.950 . S
C1795 C1794 1.327 . S
C1795 C1799 1.429 . S
C1796 C1779 1.574 . S
C1796 H1790 0.949 . S
C1796 C1800 1.368 . S
C1797 C1778 1.429 . S
C1797 C1791 1.429 . S
C1797 C1798 1.523 . S
C1798 C1779 1.368 . S
C1798 C1792 1.368 . S
C1798 C1797 1.523 . S
C1799 C1783 1.429 . S
C1799 C1795 1.429 . S
C1799 C1800 1.523 . S
C1800 C1784 1.368 . S
C1800 C1796 1.368 . S
C1800 C1799 1.523 . S
H1801 C1776 0.950 . S
H1802 C1778 0.950 . S
H1803 C1779 0.949 . S
H1804 C1781 0.950 1_556 S
H1805 C1783 0.950 . S
C1806 C1807 1.349 . S
C1806 C1808 1.327 . S
C1806 H1831 0.950 . S
C1807 C1806 1.349 . S
C1807 C1823 1.349 . S
C1808 C1806 1.327 . S
C1808 C1827 1.429 . S
C1808 H1832 0.950 . S
C1809 C1826 1.574 . S
C1809 C1828 1.368 . S
C1809 H1833 0.949 . S
H1810 C1814 0.949 . S
C1811 C1812 1.349 . S
C1811 C1813 1.327 . S
C1811 H1834 0.950 . S
C1812 C1811 1.349 . S
C1812 C1824 1.349 . S
C1813 C1811 1.327 . S
C1813 C1829 1.429 . S
C1813 H1835 0.950 . S
C1814 H1810 0.949 . S
C1814 C1822 1.574 . S
C1814 C1830 1.368 . S
H1815 C1823 0.950 . S
H1816 C1821 0.950 . S
H1817 C1822 0.949 . S
H1818 C1824 0.950 . S
H1819 C1825 0.950 . S
H1820 C1826 0.949 . S
C1821 H1816 0.950 . S
C1821 C1823 1.327 . S
C1821 C1827 1.429 . S
C1822 C1814 1.574 . S
C1822 H1817 0.949 . S
C1822 C1828 1.368 . S
C1823 C1807 1.349 . S
C1823 H1815 0.950 . S
C1823 C1821 1.327 . S
C1824 C1812 1.349 . S
C1824 H1818 0.950 . S
C1824 C1825 1.327 . S
C1825 H1819 0.950 . S
C1825 C1824 1.327 . S
C1825 C1829 1.429 . S
C1826 C1809 1.574 . S
C1826 H1820 0.949 . S
C1826 C1830 1.368 . S
C1827 C1808 1.429 . S
C1827 C1821 1.429 . S
C1827 C1828 1.523 . S
C1828 C1809 1.368 . S
C1828 C1822 1.368 . S
C1828 C1827 1.523 . S
C1829 C1813 1.429 . S
C1829 C1825 1.429 . S
C1829 C1830 1.523 . S
C1830 C1814 1.368 . S
C1830 C1826 1.368 . S
C1830 C1829 1.523 . S
H1831 C1806 0.950 . S
H1832 C1808 0.950 . S
H1833 C1809 0.949 . S
H1834 C1811 0.950 . S
H1835 C1813 0.950 . S
C1836 C1837 1.349 . S
C1836 C1838 1.327 . S
C1836 H1861 0.950 . S
C1837 C1836 1.349 . S
C1837 C1853 1.349 . S
C1838 C1836 1.327 . S
C1838 C1857 1.429 . S
C1838 H1862 0.950 . S
C1839 C1856 1.574 1_556 S
C1839 C1858 1.368 1_545 S
C1839 H1863 0.949 . S
H1840 C1844 0.949 . S
C1841 C1842 1.349 . S
C1841 C1843 1.327 . S
C1841 H1864 0.950 . S
C1842 C1841 1.349 . S
C1842 C1854 1.349 . S
C1843 C1841 1.327 . S
C1843 C1859 1.429 . S
C1843 H1865 0.950 . S
C1844 H1840 0.949 . S
C1844 C1852 1.574 1_554 S
C1844 C1860 1.368 1_565 S
H1845 C1853 0.950 . S
H1846 C1851 0.950 . S
H1847 C1852 0.949 . S
H1848 C1854 0.950 . S
H1849 C1855 0.950 . S
H1850 C1856 0.949 . S
C1851 H1846 0.950 . S
C1851 C1853 1.327 . S
C1851 C1857 1.429 . S
C1852 C1844 1.574 1_556 S
C1852 H1847 0.949 . S
C1852 C1858 1.368 . S
C1853 C1837 1.349 . S
C1853 H1845 0.950 . S
C1853 C1851 1.327 . S
C1854 C1842 1.349 . S
C1854 H1848 0.950 . S
C1854 C1855 1.327 . S
C1855 H1849 0.950 . S
C1855 C1854 1.327 . S
C1855 C1859 1.429 . S
C1856 C1839 1.574 1_554 S
C1856 H1850 0.949 . S
C1856 C1860 1.368 . S
C1857 C1838 1.429 . S
C1857 C1851 1.429 . S
C1857 C1858 1.523 . S
C1858 C1839 1.368 1_565 S
C1858 C1852 1.368 . S
C1858 C1857 1.523 . S
C1859 C1843 1.429 . S
C1859 C1855 1.429 . S
C1859 C1860 1.523 . S
C1860 C1844 1.368 1_545 S
C1860 C1856 1.368 . S
C1860 C1859 1.523 . S
H1861 C1836 0.950 . S
H1862 C1838 0.950 . S
H1863 C1839 0.949 . S
H1864 C1841 0.950 . S
H1865 C1843 0.950 . S
C1866 C1867 1.349 . S
C1866 C1868 1.327 . S
C1866 H1891 0.950 . S
C1867 C1866 1.349 . S
C1867 C1883 1.349 . S
C1868 C1866 1.327 . S
C1868 C1887 1.429 . S
C1868 H1892 0.950 . S
C1869 C1886 1.574 . S
C1869 C1888 1.368 1_556 S
C1869 H1893 0.949 . S
H1870 C1874 0.949 . S
C1871 C1872 1.349 . S
C1871 C1873 1.327 . S
C1871 H1894 0.950 . S
C1872 C1871 1.349 . S
C1872 C1884 1.349 . S
C1873 C1871 1.327 . S
C1873 C1889 1.429 . S
C1873 H1895 0.950 . S
C1874 H1870 0.949 . S
C1874 C1882 1.574 . S
C1874 C1890 1.368 1_554 S
H1875 C1883 0.950 . S
H1876 C1881 0.950 . S
H1877 C1882 0.949 . S
H1878 C1884 0.950 . S
H1879 C1885 0.950 . S
H1880 C1886 0.949 . S
C1881 H1876 0.950 . S
C1881 C1883 1.327 . S
C1881 C1887 1.429 . S
C1882 C1874 1.574 . S
C1882 H1877 0.949 . S
C1882 C1888 1.368 1_455 S
C1883 C1867 1.349 . S
C1883 H1875 0.950 . S
C1883 C1881 1.327 . S
C1884 C1872 1.349 . S
C1884 H1878 0.950 . S
C1884 C1885 1.327 . S
C1885 H1879 0.950 . S
C1885 C1884 1.327 . S
C1885 C1889 1.429 . S
C1886 C1869 1.574 . S
C1886 H1880 0.949 . S
C1886 C1890 1.368 1_655 S
C1887 C1868 1.429 . S
C1887 C1881 1.429 . S
C1887 C1888 1.523 . S
C1888 C1869 1.368 1_554 S
C1888 C1882 1.368 1_655 S
C1888 C1887 1.523 . S
C1889 C1873 1.429 . S
C1889 C1885 1.429 . S
C1889 C1890 1.523 . S
C1890 C1874 1.368 1_556 S
C1890 C1886 1.368 1_455 S
C1890 C1889 1.523 . S
H1891 C1866 0.950 . S
H1892 C1868 0.950 . S
H1893 C1869 0.949 . S
H1894 C1871 0.950 . S
H1895 C1873 0.950 . S
C1896 C1897 1.349 . S
C1896 C1898 1.327 . S
C1896 H1921 0.950 . S
C1897 C1896 1.349 . S
C1897 C1913 1.349 . S
C1898 C1896 1.327 . S
C1898 C1917 1.429 . S
C1898 H1922 0.950 . S
C1899 C1916 1.574 1_556 S
C1899 C1918 1.368 . S
C1899 H1923 0.949 . S
H1900 C1904 0.949 . S
C1901 C1902 1.349 . S
C1901 C1903 1.327 . S
C1901 H1924 0.950 . S
C1902 C1901 1.349 . S
C1902 C1914 1.349 . S
C1903 C1901 1.327 . S
C1903 C1919 1.429 . S
C1903 H1925 0.950 . S
C1904 H1900 0.949 . S
C1904 C1912 1.574 1_554 S
C1904 C1920 1.368 . S
H1905 C1913 0.950 . S
H1906 C1911 0.950 . S
H1907 C1912 0.949 . S
H1908 C1914 0.950 . S
H1909 C1915 0.950 . S
H1910 C1916 0.949 . S
C1911 H1906 0.950 . S
C1911 C1913 1.327 . S
C1911 C1917 1.429 . S
C1912 C1904 1.574 1_556 S
C1912 H1907 0.949 . S
C1912 C1918 1.368 . S
C1913 C1897 1.349 . S
C1913 H1905 0.950 . S
C1913 C1911 1.327 . S
C1914 C1902 1.349 . S
C1914 H1908 0.950 . S
C1914 C1915 1.327 . S
C1915 H1909 0.950 . S
C1915 C1914 1.327 . S
C1915 C1919 1.429 . S
C1916 C1899 1.574 1_554 S
C1916 H1910 0.949 . S
C1916 C1920 1.368 . S
C1917 C1898 1.429 . S
C1917 C1911 1.429 . S
C1917 C1918 1.523 . S
C1918 C1899 1.368 . S
C1918 C1912 1.368 . S
C1918 C1917 1.523 . S
C1919 C1903 1.429 . S
C1919 C1915 1.429 . S
C1919 C1920 1.523 . S
C1920 C1904 1.368 . S
C1920 C1916 1.368 . S
C1920 C1919 1.523 . S
H1921 C1896 0.950 . S
H1922 C1898 0.950 . S
H1923 C1899 0.949 . S
H1924 C1901 0.950 . S
H1925 C1903 0.950 . S
C1926 C1927 1.349 . S
C1926 C1928 1.327 . S
C1926 H1951 0.950 . S
C1927 C1926 1.349 . S
C1927 C1943 1.349 . S
C1928 C1926 1.327 . S
C1928 C1947 1.429 . S
C1928 H1952 0.950 . S
C1929 C1946 1.574 1_556 S
C1929 C1948 1.368 . S
C1929 H1953 0.949 . S
H1930 C1934 0.949 . S
C1931 C1932 1.349 . S
C1931 C1933 1.327 . S
C1931 H1954 0.950 . S
C1932 C1931 1.349 . S
C1932 C1944 1.349 . S
C1933 C1931 1.327 . S
C1933 C1949 1.429 . S
C1933 H1955 0.950 . S
C1934 H1930 0.949 . S
C1934 C1942 1.574 1_554 S
C1934 C1950 1.368 . S
H1935 C1943 0.950 . S
H1936 C1941 0.950 . S
H1937 C1942 0.949 . S
H1938 C1944 0.950 . S
H1939 C1945 0.950 . S
H1940 C1946 0.949 . S
C1941 H1936 0.950 . S
C1941 C1943 1.327 . S
C1941 C1947 1.429 . S
C1942 C1934 1.574 1_556 S
C1942 H1937 0.949 . S
C1942 C1948 1.368 1_545 S
C1943 C1927 1.349 . S
C1943 H1935 0.950 . S
C1943 C1941 1.327 . S
C1944 C1932 1.349 . S
C1944 H1938 0.950 . S
C1944 C1945 1.327 . S
C1945 H1939 0.950 . S
C1945 C1944 1.327 . S
C1945 C1949 1.429 . S
C1946 C1929 1.574 1_554 S
C1946 H1940 0.949 . S
C1946 C1950 1.368 1_565 S
C1947 C1928 1.429 . S
C1947 C1941 1.429 . S
C1947 C1948 1.523 . S
C1948 C1929 1.368 . S
C1948 C1942 1.368 1_565 S
C1948 C1947 1.523 . S
C1949 C1933 1.429 . S
C1949 C1945 1.429 . S
C1949 C1950 1.523 . S
C1950 C1934 1.368 . S
C1950 C1946 1.368 1_545 S
C1950 C1949 1.523 . S
H1951 C1926 0.950 . S
H1952 C1928 0.950 . S
H1953 C1929 0.949 . S
H1954 C1931 0.950 . S
H1955 C1933 0.950 . S
C1956 C1957 1.349 . S
C1956 C1958 1.327 . S
C1956 H1981 0.950 . S
C1957 C1956 1.349 . S
C1957 C1973 1.349 . S
C1958 C1956 1.327 . S
C1958 C1977 1.429 . S
C1958 H1982 0.950 . S
C1959 C1976 1.574 . S
C1959 C1978 1.368 1_554 S
C1959 H1983 0.949 . S
H1960 C1964 0.949 . S
C1961 C1962 1.349 . S
C1961 C1963 1.327 . S
C1961 H1984 0.950 . S
C1962 C1961 1.349 . S
C1962 C1974 1.349 . S
C1963 C1961 1.327 . S
C1963 C1979 1.429 . S
C1963 H1985 0.950 . S
C1964 H1960 0.949 . S
C1964 C1972 1.574 . S
C1964 C1980 1.368 1_556 S
H1965 C1973 0.950 . S
H1966 C1971 0.950 . S
H1967 C1972 0.949 . S
H1968 C1974 0.950 . S
H1969 C1975 0.950 . S
H1970 C1976 0.949 . S
C1971 H1966 0.950 . S
C1971 C1973 1.327 . S
C1971 C1977 1.429 . S
C1972 C1964 1.574 . S
C1972 H1967 0.949 . S
C1972 C1978 1.368 1_655 S
C1973 C1957 1.349 . S
C1973 H1965 0.950 . S
C1973 C1971 1.327 . S
C1974 C1962 1.349 . S
C1974 H1968 0.950 . S
C1974 C1975 1.327 . S
C1975 H1969 0.950 . S
C1975 C1974 1.327 . S
C1975 C1979 1.429 . S
C1976 C1959 1.574 . S
C1976 H1970 0.949 . S
C1976 C1980 1.368 1_455 S
C1977 C1958 1.429 . S
C1977 C1971 1.429 . S
C1977 C1978 1.523 . S
C1978 C1959 1.368 1_556 S
C1978 C1972 1.368 1_455 S
C1978 C1977 1.523 . S
C1979 C1963 1.429 . S
C1979 C1975 1.429 . S
C1979 C1980 1.523 . S
C1980 C1964 1.368 1_554 S
C1980 C1976 1.368 1_655 S
C1980 C1979 1.523 . S
H1981 C1956 0.950 . S
H1982 C1958 0.950 . S
H1983 C1959 0.949 . S
H1984 C1961 0.950 . S
H1985 C1963 0.950 . S
C1986 C1987 1.349 . S
C1986 C1988 1.327 . S
C1986 H2011 0.950 . S
C1987 C1986 1.349 . S
C1987 C2003 1.349 . S
C1988 C1986 1.327 . S
C1988 C2007 1.429 . S
C1988 H2012 0.950 . S
C1989 C2006 1.574 1_554 S
C1989 C2008 1.368 . S
C1989 H2013 0.949 . S
H1990 C1994 0.949 . S
C1991 C1992 1.349 . S
C1991 C1993 1.327 . S
C1991 H2014 0.950 . S
C1992 C1991 1.349 . S
C1992 C2004 1.349 . S
C1993 C1991 1.327 . S
C1993 C2009 1.429 . S
C1993 H2015 0.950 . S
C1994 H1990 0.949 . S
C1994 C2002 1.574 1_556 S
C1994 C2010 1.368 . S
H1995 C2003 0.950 . S
H1996 C2001 0.950 . S
H1997 C2002 0.949 . S
H1998 C2004 0.950 . S
H1999 C2005 0.950 . S
H2000 C2006 0.949 . S
C2001 H1996 0.950 . S
C2001 C2003 1.327 . S
C2001 C2007 1.429 . S
C2002 C1994 1.574 1_554 S
C2002 H1997 0.949 . S
C2002 C2008 1.368 . S
C2003 C1987 1.349 . S
C2003 H1995 0.950 . S
C2003 C2001 1.327 . S
C2004 C1992 1.349 . S
C2004 H1998 0.950 . S
C2004 C2005 1.327 . S
C2005 H1999 0.950 . S
C2005 C2004 1.327 . S
C2005 C2009 1.429 . S
C2006 C1989 1.574 1_556 S
C2006 H2000 0.949 . S
C2006 C2010 1.368 . S
C2007 C1988 1.429 . S
C2007 C2001 1.429 . S
C2007 C2008 1.523 . S
C2008 C1989 1.368 . S
C2008 C2002 1.368 . S
C2008 C2007 1.523 . S
C2009 C1993 1.429 . S
C2009 C2005 1.429 . S
C2009 C2010 1.523 . S
C2010 C1994 1.368 . S
C2010 C2006 1.368 . S
C2010 C2009 1.523 . S
H2011 C1986 0.950 . S
H2012 C1988 0.950 . S
H2013 C1989 0.949 . S
H2014 C1991 0.950 . S
H2015 C1993 0.950 . S
C2016 C2017 1.349 . S
C2016 C2018 1.327 . S
C2016 H2041 0.950 . S
C2017 C2016 1.349 . S
C2017 C2033 1.349 . S
C2018 C2016 1.327 . S
C2018 C2037 1.429 . S
C2018 H2042 0.950 . S
C2019 C2036 1.574 . S
C2019 C2038 1.368 . S
C2019 H2043 0.949 . S
H2020 C2024 0.949 . S
C2021 C2022 1.349 . S
C2021 C2023 1.327 . S
C2021 H2044 0.950 . S
C2022 C2021 1.349 . S
C2022 C2034 1.349 . S
C2023 C2021 1.327 . S
C2023 C2039 1.429 . S
C2023 H2045 0.950 . S
C2024 H2020 0.949 . S
C2024 C2032 1.574 . S
C2024 C2040 1.368 . S
H2025 C2033 0.950 . S
H2026 C2031 0.950 . S
H2027 C2032 0.949 . S
H2028 C2034 0.950 . S
H2029 C2035 0.950 . S
H2030 C2036 0.949 . S
C2031 H2026 0.950 . S
C2031 C2033 1.327 . S
C2031 C2037 1.429 . S
C2032 C2024 1.574 . S
C2032 H2027 0.949 . S
C2032 C2038 1.368 . S
C2033 C2017 1.349 . S
C2033 H2025 0.950 . S
C2033 C2031 1.327 . S
C2034 C2022 1.349 . S
C2034 H2028 0.950 . S
C2034 C2035 1.327 . S
C2035 H2029 0.950 . S
C2035 C2034 1.327 . S
C2035 C2039 1.429 . S
C2036 C2019 1.574 . S
C2036 H2030 0.949 . S
C2036 C2040 1.368 . S
C2037 C2018 1.429 . S
C2037 C2031 1.429 . S
C2037 C2038 1.523 . S
C2038 C2019 1.368 . S
C2038 C2032 1.368 . S
C2038 C2037 1.523 . S
C2039 C2023 1.429 . S
C2039 C2035 1.429 . S
C2039 C2040 1.523 . S
C2040 C2024 1.368 . S
C2040 C2036 1.368 . S
C2040 C2039 1.523 . S
H2041 C2016 0.950 . S
H2042 C2018 0.950 . S
H2043 C2019 0.949 . S
H2044 C2021 0.950 . S
H2045 C2023 0.950 . S
C2046 C2047 1.349 . S
C2046 C2048 1.327 . S
C2046 H2071 0.950 . S
C2047 C2046 1.349 . S
C2047 C2063 1.349 . S
C2048 C2046 1.327 . S
C2048 C2067 1.429 . S
C2048 H2072 0.950 . S
C2049 C2066 1.574 . S
C2049 C2068 1.368 . S
C2049 H2073 0.949 . S
H2050 C2054 0.949 . S
C2051 C2052 1.349 . S
C2051 C2053 1.327 . S
C2051 H2074 0.950 . S
C2052 C2051 1.349 . S
C2052 C2064 1.349 . S
C2053 C2051 1.327 . S
C2053 C2069 1.429 . S
C2053 H2075 0.950 . S
C2054 H2050 0.949 . S
C2054 C2062 1.574 . S
C2054 C2070 1.368 . S
H2055 C2063 0.950 . S
H2056 C2061 0.950 . S
H2057 C2062 0.949 . S
H2058 C2064 0.950 . S
H2059 C2065 0.950 . S
H2060 C2066 0.949 . S
C2061 H2056 0.950 . S
C2061 C2063 1.327 . S
C2061 C2067 1.429 . S
C2062 C2054 1.574 . S
C2062 H2057 0.949 . S
C2062 C2068 1.368 . S
C2063 C2047 1.349 . S
C2063 H2055 0.950 . S
C2063 C2061 1.327 . S
C2064 C2052 1.349 . S
C2064 H2058 0.950 . S
C2064 C2065 1.327 . S
C2065 H2059 0.950 . S
C2065 C2064 1.327 . S
C2065 C2069 1.429 . S
C2066 C2049 1.574 . S
C2066 H2060 0.949 . S
C2066 C2070 1.368 . S
C2067 C2048 1.429 . S
C2067 C2061 1.429 . S
C2067 C2068 1.523 . S
C2068 C2049 1.368 . S
C2068 C2062 1.368 . S
C2068 C2067 1.523 . S
C2069 C2053 1.429 . S
C2069 C2065 1.429 . S
C2069 C2070 1.523 . S
C2070 C2054 1.368 . S
C2070 C2066 1.368 . S
C2070 C2069 1.523 . S
H2071 C2046 0.950 . S
H2072 C2048 0.950 . S
H2073 C2049 0.949 . S
H2074 C2051 0.950 . S
H2075 C2053 0.950 . S
C2076 C2077 1.349 . S
C2076 C2078 1.327 . S
C2076 H2101 0.950 . S
C2077 C2076 1.349 . S
C2077 C2093 1.349 . S
C2078 C2076 1.327 . S
C2078 C2097 1.429 . S
C2078 H2102 0.950 . S
C2079 C2096 1.574 . S
C2079 C2098 1.368 . S
C2079 H2103 0.949 . S
H2080 C2084 0.949 . S
C2081 C2082 1.349 . S
C2081 C2083 1.327 . S
C2081 H2104 0.950 . S
C2082 C2081 1.349 . S
C2082 C2094 1.349 . S
C2083 C2081 1.327 . S
C2083 C2099 1.429 . S
C2083 H2105 0.950 . S
C2084 H2080 0.949 . S
C2084 C2092 1.574 . S
C2084 C2100 1.368 . S
H2085 C2093 0.950 . S
H2086 C2091 0.950 . S
H2087 C2092 0.949 . S
H2088 C2094 0.950 . S
H2089 C2095 0.950 . S
H2090 C2096 0.949 . S
C2091 H2086 0.950 . S
C2091 C2093 1.327 . S
C2091 C2097 1.429 . S
C2092 C2084 1.574 . S
C2092 H2087 0.949 . S
C2092 C2098 1.368 . S
C2093 C2077 1.349 . S
C2093 H2085 0.950 . S
C2093 C2091 1.327 . S
C2094 C2082 1.349 . S
C2094 H2088 0.950 . S
C2094 C2095 1.327 . S
C2095 H2089 0.950 . S
C2095 C2094 1.327 . S
C2095 C2099 1.429 . S
C2096 C2079 1.574 . S
C2096 H2090 0.949 . S
C2096 C2100 1.368 . S
C2097 C2078 1.429 . S
C2097 C2091 1.429 . S
C2097 C2098 1.523 . S
C2098 C2079 1.368 . S
C2098 C2092 1.368 . S
C2098 C2097 1.523 . S
C2099 C2083 1.429 . S
C2099 C2095 1.429 . S
C2099 C2100 1.523 . S
C2100 C2084 1.368 . S
C2100 C2096 1.368 . S
C2100 C2099 1.523 . S
H2101 C2076 0.950 . S
H2102 C2078 0.950 . S
H2103 C2079 0.949 . S
H2104 C2081 0.950 . S
H2105 C2083 0.950 . S
C2106 C2107 1.349 . S
C2106 C2108 1.327 . S
C2106 H2131 0.950 . S
C2107 C2106 1.349 . S
C2107 C2123 1.349 . S
C2108 C2106 1.327 . S
C2108 C2127 1.429 . S
C2108 H2132 0.950 . S
C2109 C2126 1.574 . S
C2109 C2128 1.368 . S
C2109 H2133 0.949 . S
H2110 C2114 0.949 . S
C2111 C2112 1.349 . S
C2111 C2113 1.327 . S
C2111 H2134 0.950 . S
C2112 C2111 1.349 . S
C2112 C2124 1.349 . S
C2113 C2111 1.327 . S
C2113 C2129 1.429 . S
C2113 H2135 0.950 . S
C2114 H2110 0.949 . S
C2114 C2122 1.574 . S
C2114 C2130 1.368 . S
H2115 C2123 0.950 . S
H2116 C2121 0.950 . S
H2117 C2122 0.949 . S
H2118 C2124 0.950 . S
H2119 C2125 0.950 . S
H2120 C2126 0.949 . S
C2121 H2116 0.950 . S
C2121 C2123 1.327 . S
C2121 C2127 1.429 . S
C2122 C2114 1.574 . S
C2122 H2117 0.949 . S
C2122 C2128 1.368 . S
C2123 C2107 1.349 . S
C2123 H2115 0.950 . S
C2123 C2121 1.327 . S
C2124 C2112 1.349 . S
C2124 H2118 0.950 . S
C2124 C2125 1.327 . S
C2125 H2119 0.950 . S
C2125 C2124 1.327 . S
C2125 C2129 1.429 . S
C2126 C2109 1.574 . S
C2126 H2120 0.949 . S
C2126 C2130 1.368 . S
C2127 C2108 1.429 . S
C2127 C2121 1.429 . S
C2127 C2128 1.523 . S
C2128 C2109 1.368 . S
C2128 C2122 1.368 . S
C2128 C2127 1.523 . S
C2129 C2113 1.429 . S
C2129 C2125 1.429 . S
C2129 C2130 1.523 . S
C2130 C2114 1.368 . S
C2130 C2126 1.368 . S
C2130 C2129 1.523 . S
H2131 C2106 0.950 . S
H2132 C2108 0.950 . S
H2133 C2109 0.949 . S
H2134 C2111 0.950 . S
H2135 C2113 0.950 . S
C2136 C2137 1.349 . S
C2136 C2138 1.327 . S
C2136 H2161 0.950 . S
C2137 C2136 1.349 . S
C2137 C2153 1.349 . S
C2138 C2136 1.327 . S
C2138 C2157 1.429 . S
C2138 H2162 0.950 . S
C2139 C2156 1.574 . S
C2139 C2158 1.368 . S
C2139 H2163 0.949 . S
H2140 C2144 0.949 . S
C2141 C2142 1.349 . S
C2141 C2143 1.327 . S
C2141 H2164 0.950 . S
C2142 C2141 1.349 . S
C2142 C2154 1.349 . S
C2143 C2141 1.327 . S
C2143 C2159 1.429 . S
C2143 H2165 0.950 . S
C2144 H2140 0.949 . S
C2144 C2152 1.574 . S
C2144 C2160 1.368 . S
H2145 C2153 0.950 . S
H2146 C2151 0.950 . S
H2147 C2152 0.949 . S
H2148 C2154 0.950 . S
H2149 C2155 0.950 . S
H2150 C2156 0.949 . S
C2151 H2146 0.950 . S
C2151 C2153 1.327 . S
C2151 C2157 1.429 . S
C2152 C2144 1.574 . S
C2152 H2147 0.949 . S
C2152 C2158 1.368 . S
C2153 C2137 1.349 . S
C2153 H2145 0.950 . S
C2153 C2151 1.327 . S
C2154 C2142 1.349 . S
C2154 H2148 0.950 . S
C2154 C2155 1.327 . S
C2155 H2149 0.950 . S
C2155 C2154 1.327 . S
C2155 C2159 1.429 . S
C2156 C2139 1.574 . S
C2156 H2150 0.949 . S
C2156 C2160 1.368 . S
C2157 C2138 1.429 . S
C2157 C2151 1.429 . S
C2157 C2158 1.523 . S
C2158 C2139 1.368 . S
C2158 C2152 1.368 . S
C2158 C2157 1.523 . S
C2159 C2143 1.429 . S
C2159 C2155 1.429 . S
C2159 C2160 1.523 . S
C2160 C2144 1.368 . S
C2160 C2156 1.368 . S
C2160 C2159 1.523 . S
H2161 C2136 0.950 . S
H2162 C2138 0.950 . S
H2163 C2139 0.949 . S
H2164 C2141 0.950 . S
H2165 C2143 0.950 . S
C2166 C2167 1.349 . S
C2166 C2168 1.327 . S
C2166 H2191 0.950 . S
C2167 C2166 1.349 . S
C2167 C2183 1.349 . S
C2168 C2166 1.327 . S
C2168 C2187 1.429 . S
C2168 H2192 0.950 . S
C2169 C2186 1.574 . S
C2169 C2188 1.368 . S
C2169 H2193 0.949 . S
H2170 C2174 0.949 . S
C2171 C2172 1.349 . S
C2171 C2173 1.327 . S
C2171 H2194 0.950 . S
C2172 C2171 1.349 . S
C2172 C2184 1.349 . S
C2173 C2171 1.327 . S
C2173 C2189 1.429 . S
C2173 H2195 0.950 . S
C2174 H2170 0.949 . S
C2174 C2182 1.574 . S
C2174 C2190 1.368 . S
H2175 C2183 0.950 . S
H2176 C2181 0.950 . S
H2177 C2182 0.949 . S
H2178 C2184 0.950 . S
H2179 C2185 0.950 . S
H2180 C2186 0.949 . S
C2181 H2176 0.950 . S
C2181 C2183 1.327 . S
C2181 C2187 1.429 . S
C2182 C2174 1.574 . S
C2182 H2177 0.949 . S
C2182 C2188 1.368 . S
C2183 C2167 1.349 . S
C2183 H2175 0.950 . S
C2183 C2181 1.327 . S
C2184 C2172 1.349 . S
C2184 H2178 0.950 . S
C2184 C2185 1.327 . S
C2185 H2179 0.950 . S
C2185 C2184 1.327 . S
C2185 C2189 1.429 . S
C2186 C2169 1.574 . S
C2186 H2180 0.949 . S
C2186 C2190 1.368 . S
C2187 C2168 1.429 . S
C2187 C2181 1.429 . S
C2187 C2188 1.523 . S
C2188 C2169 1.368 . S
C2188 C2182 1.368 . S
C2188 C2187 1.523 . S
C2189 C2173 1.429 . S
C2189 C2185 1.429 . S
C2189 C2190 1.523 . S
C2190 C2174 1.368 . S
C2190 C2186 1.368 . S
C2190 C2189 1.523 . S
H2191 C2166 0.950 . S
H2192 C2168 0.950 . S
H2193 C2169 0.949 . S
H2194 C2171 0.950 . S
H2195 C2173 0.950 . S
C2196 C2197 1.349 . S
C2196 C2198 1.327 . S
C2196 H2221 0.950 . S
C2197 C2196 1.349 . S
C2197 C2213 1.349 . S
C2198 C2196 1.327 . S
C2198 C2217 1.429 . S
C2198 H2222 0.950 . S
C2199 C2216 1.574 . S
C2199 C2218 1.368 . S
C2199 H2223 0.949 . S
H2200 C2204 0.949 . S
C2201 C2202 1.349 . S
C2201 C2203 1.327 . S
C2201 H2224 0.950 . S
C2202 C2201 1.349 . S
C2202 C2214 1.349 . S
C2203 C2201 1.327 . S
C2203 C2219 1.429 . S
C2203 H2225 0.950 . S
C2204 H2200 0.949 . S
C2204 C2212 1.574 . S
C2204 C2220 1.368 . S
H2205 C2213 0.950 . S
H2206 C2211 0.950 . S
H2207 C2212 0.949 . S
H2208 C2214 0.950 . S
H2209 C2215 0.950 . S
H2210 C2216 0.949 . S
C2211 H2206 0.950 . S
C2211 C2213 1.327 . S
C2211 C2217 1.429 . S
C2212 C2204 1.574 . S
C2212 H2207 0.949 . S
C2212 C2218 1.368 . S
C2213 C2197 1.349 . S
C2213 H2205 0.950 . S
C2213 C2211 1.327 . S
C2214 C2202 1.349 . S
C2214 H2208 0.950 . S
C2214 C2215 1.327 . S
C2215 H2209 0.950 . S
C2215 C2214 1.327 . S
C2215 C2219 1.429 . S
C2216 C2199 1.574 . S
C2216 H2210 0.949 . S
C2216 C2220 1.368 . S
C2217 C2198 1.429 . S
C2217 C2211 1.429 . S
C2217 C2218 1.523 . S
C2218 C2199 1.368 . S
C2218 C2212 1.368 . S
C2218 C2217 1.523 . S
C2219 C2203 1.429 . S
C2219 C2215 1.429 . S
C2219 C2220 1.523 . S
C2220 C2204 1.368 . S
C2220 C2216 1.368 . S
C2220 C2219 1.523 . S
H2221 C2196 0.950 . S
H2222 C2198 0.950 . S
H2223 C2199 0.949 . S
H2224 C2201 0.950 . S
H2225 C2203 0.950 . S
C2226 C2227 1.349 . S
C2226 C2228 1.327 . S
C2226 H2251 0.950 . S
C2227 C2226 1.349 . S
C2227 C2243 1.349 . S
C2228 C2226 1.327 . S
C2228 C2247 1.429 . S
C2228 H2252 0.950 . S
C2229 C2246 1.574 . S
C2229 C2248 1.368 . S
C2229 H2253 0.949 . S
H2230 C2234 0.949 . S
C2231 C2232 1.349 . S
C2231 C2233 1.327 . S
C2231 H2254 0.950 . S
C2232 C2231 1.349 . S
C2232 C2244 1.349 . S
C2233 C2231 1.327 . S
C2233 C2249 1.429 . S
C2233 H2255 0.950 . S
C2234 H2230 0.949 . S
C2234 C2242 1.574 . S
C2234 C2250 1.368 . S
H2235 C2243 0.950 . S
H2236 C2241 0.950 . S
H2237 C2242 0.949 . S
H2238 C2244 0.950 . S
H2239 C2245 0.950 . S
H2240 C2246 0.949 . S
C2241 H2236 0.950 . S
C2241 C2243 1.327 . S
C2241 C2247 1.429 . S
C2242 C2234 1.574 . S
C2242 H2237 0.949 . S
C2242 C2248 1.368 . S
C2243 C2227 1.349 . S
C2243 H2235 0.950 . S
C2243 C2241 1.327 . S
C2244 C2232 1.349 . S
C2244 H2238 0.950 . S
C2244 C2245 1.327 . S
C2245 H2239 0.950 . S
C2245 C2244 1.327 . S
C2245 C2249 1.429 . S
C2246 C2229 1.574 . S
C2246 H2240 0.949 . S
C2246 C2250 1.368 . S
C2247 C2228 1.429 . S
C2247 C2241 1.429 . S
C2247 C2248 1.523 . S
C2248 C2229 1.368 . S
C2248 C2242 1.368 . S
C2248 C2247 1.523 . S
C2249 C2233 1.429 . S
C2249 C2245 1.429 . S
C2249 C2250 1.523 . S
C2250 C2234 1.368 . S
C2250 C2246 1.368 . S
C2250 C2249 1.523 . S
H2251 C2226 0.950 . S
H2252 C2228 0.950 . S
H2253 C2229 0.949 . S
H2254 C2231 0.950 . S
H2255 C2233 0.950 . S
C2256 C2257 1.349 . S
C2256 C2258 1.327 . S
C2256 H2281 0.950 . S
C2257 C2256 1.349 . S
C2257 C2273 1.349 . S
C2258 C2256 1.327 . S
C2258 C2277 1.429 . S
C2258 H2282 0.950 . S
C2259 C2276 1.574 . S
C2259 C2278 1.368 . S
C2259 H2283 0.949 . S
H2260 C2264 0.949 . S
C2261 C2262 1.349 . S
C2261 C2263 1.327 . S
C2261 H2284 0.950 . S
C2262 C2261 1.349 . S
C2262 C2274 1.349 . S
C2263 C2261 1.327 . S
C2263 C2279 1.429 . S
C2263 H2285 0.950 . S
C2264 H2260 0.949 . S
C2264 C2272 1.574 . S
C2264 C2280 1.368 . S
H2265 C2273 0.950 . S
H2266 C2271 0.950 . S
H2267 C2272 0.949 . S
H2268 C2274 0.950 . S
H2269 C2275 0.950 . S
H2270 C2276 0.949 . S
C2271 H2266 0.950 . S
C2271 C2273 1.327 . S
C2271 C2277 1.429 . S
C2272 C2264 1.574 . S
C2272 H2267 0.949 . S
C2272 C2278 1.368 . S
C2273 C2257 1.349 . S
C2273 H2265 0.950 . S
C2273 C2271 1.327 . S
C2274 C2262 1.349 . S
C2274 H2268 0.950 . S
C2274 C2275 1.327 . S
C2275 H2269 0.950 . S
C2275 C2274 1.327 . S
C2275 C2279 1.429 . S
C2276 C2259 1.574 . S
C2276 H2270 0.949 . S
C2276 C2280 1.368 . S
C2277 C2258 1.429 . S
C2277 C2271 1.429 . S
C2277 C2278 1.523 . S
C2278 C2259 1.368 . S
C2278 C2272 1.368 . S
C2278 C2277 1.523 . S
C2279 C2263 1.429 . S
C2279 C2275 1.429 . S
C2279 C2280 1.523 . S
C2280 C2264 1.368 . S
C2280 C2276 1.368 . S
C2280 C2279 1.523 . S
H2281 C2256 0.950 . S
H2282 C2258 0.950 . S
H2283 C2259 0.949 . S
H2284 C2261 0.950 . S
H2285 C2263 0.950 . S
C2286 C2287 1.349 . S
C2286 C2288 1.327 . S
C2286 H2311 0.950 . S
C2287 C2286 1.349 . S
C2287 C2303 1.349 . S
C2288 C2286 1.327 . S
C2288 C2307 1.429 . S
C2288 H2312 0.950 . S
C2289 C2306 1.574 . S
C2289 C2308 1.368 . S
C2289 H2313 0.949 . S
H2290 C2294 0.949 . S
C2291 C2292 1.349 . S
C2291 C2293 1.327 . S
C2291 H2314 0.950 . S
C2292 C2291 1.349 . S
C2292 C2304 1.349 . S
C2293 C2291 1.327 . S
C2293 C2309 1.429 . S
C2293 H2315 0.950 . S
C2294 H2290 0.949 . S
C2294 C2302 1.574 . S
C2294 C2310 1.368 . S
H2295 C2303 0.950 . S
H2296 C2301 0.950 . S
H2297 C2302 0.949 . S
H2298 C2304 0.950 . S
H2299 C2305 0.950 . S
H2300 C2306 0.949 . S
C2301 H2296 0.950 . S
C2301 C2303 1.327 . S
C2301 C2307 1.429 . S
C2302 C2294 1.574 . S
C2302 H2297 0.949 . S
C2302 C2308 1.368 . S
C2303 C2287 1.349 . S
C2303 H2295 0.950 . S
C2303 C2301 1.327 . S
C2304 C2292 1.349 . S
C2304 H2298 0.950 . S
C2304 C2305 1.327 . S
C2305 H2299 0.950 . S
C2305 C2304 1.327 . S
C2305 C2309 1.429 . S
C2306 C2289 1.574 . S
C2306 H2300 0.949 . S
C2306 C2310 1.368 . S
C2307 C2288 1.429 . S
C2307 C2301 1.429 . S
C2307 C2308 1.523 . S
C2308 C2289 1.368 . S
C2308 C2302 1.368 . S
C2308 C2307 1.523 . S
C2309 C2293 1.429 . S
C2309 C2305 1.429 . S
C2309 C2310 1.523 . S
C2310 C2294 1.368 . S
C2310 C2306 1.368 . S
C2310 C2309 1.523 . S
H2311 C2286 0.950 . S
H2312 C2288 0.950 . S
H2313 C2289 0.949 . S
H2314 C2291 0.950 . S
H2315 C2293 0.950 . S
C2316 C2317 1.349 . S
C2316 C2318 1.327 . S
C2316 H2341 0.950 . S
C2317 C2316 1.349 . S
C2317 C2333 1.349 . S
C2318 C2316 1.327 . S
C2318 C2337 1.429 . S
C2318 H2342 0.950 . S
C2319 C2336 1.574 . S
C2319 C2338 1.368 . S
C2319 H2343 0.949 . S
H2320 C2324 0.949 . S
C2321 C2322 1.349 . S
C2321 C2323 1.327 . S
C2321 H2344 0.950 . S
C2322 C2321 1.349 . S
C2322 C2334 1.349 . S
C2323 C2321 1.327 . S
C2323 C2339 1.429 . S
C2323 H2345 0.950 . S
C2324 H2320 0.949 . S
C2324 C2332 1.574 . S
C2324 C2340 1.368 . S
H2325 C2333 0.950 . S
H2326 C2331 0.950 . S
H2327 C2332 0.949 . S
H2328 C2334 0.950 . S
H2329 C2335 0.950 . S
H2330 C2336 0.949 . S
C2331 H2326 0.950 . S
C2331 C2333 1.327 . S
C2331 C2337 1.429 . S
C2332 C2324 1.574 . S
C2332 H2327 0.949 . S
C2332 C2338 1.368 . S
C2333 C2317 1.349 . S
C2333 H2325 0.950 . S
C2333 C2331 1.327 . S
C2334 C2322 1.349 . S
C2334 H2328 0.950 . S
C2334 C2335 1.327 . S
C2335 H2329 0.950 . S
C2335 C2334 1.327 . S
C2335 C2339 1.429 . S
C2336 C2319 1.574 . S
C2336 H2330 0.949 . S
C2336 C2340 1.368 . S
C2337 C2318 1.429 . S
C2337 C2331 1.429 . S
C2337 C2338 1.523 . S
C2338 C2319 1.368 . S
C2338 C2332 1.368 . S
C2338 C2337 1.523 . S
C2339 C2323 1.429 . S
C2339 C2335 1.429 . S
C2339 C2340 1.523 . S
C2340 C2324 1.368 . S
C2340 C2336 1.368 . S
C2340 C2339 1.523 . S
H2341 C2316 0.950 . S
H2342 C2318 0.950 . S
H2343 C2319 0.949 . S
H2344 C2321 0.950 . S
H2345 C2323 0.950 . S
C2346 C2347 1.349 . S
C2346 C2348 1.327 . S
C2346 H2371 0.950 . S
C2347 C2346 1.349 . S
C2347 C2363 1.349 . S
C2348 C2346 1.327 . S
C2348 C2367 1.429 . S
C2348 H2372 0.950 . S
C2349 C2366 1.574 . S
C2349 C2368 1.368 . S
C2349 H2373 0.949 . S
H2350 C2354 0.949 . S
C2351 C2352 1.349 . S
C2351 C2353 1.327 . S
C2351 H2374 0.950 . S
C2352 C2351 1.349 . S
C2352 C2364 1.349 . S
C2353 C2351 1.327 . S
C2353 C2369 1.429 . S
C2353 H2375 0.950 . S
C2354 H2350 0.949 . S
C2354 C2362 1.574 . S
C2354 C2370 1.368 . S
H2355 C2363 0.950 . S
H2356 C2361 0.950 . S
H2357 C2362 0.949 . S
H2358 C2364 0.950 . S
H2359 C2365 0.950 . S
H2360 C2366 0.949 . S
C2361 H2356 0.950 . S
C2361 C2363 1.327 . S
C2361 C2367 1.429 . S
C2362 C2354 1.574 . S
C2362 H2357 0.949 . S
C2362 C2368 1.368 . S
C2363 C2347 1.349 . S
C2363 H2355 0.950 . S
C2363 C2361 1.327 . S
C2364 C2352 1.349 . S
C2364 H2358 0.950 . S
C2364 C2365 1.327 . S
C2365 H2359 0.950 . S
C2365 C2364 1.327 . S
C2365 C2369 1.429 . S
C2366 C2349 1.574 . S
C2366 H2360 0.949 . S
C2366 C2370 1.368 . S
C2367 C2348 1.429 . S
C2367 C2361 1.429 . S
C2367 C2368 1.523 . S
C2368 C2349 1.368 . S
C2368 C2362 1.368 . S
C2368 C2367 1.523 . S
C2369 C2353 1.429 . S
C2369 C2365 1.429 . S
C2369 C2370 1.523 . S
C2370 C2354 1.368 . S
C2370 C2366 1.368 . S
C2370 C2369 1.523 . S
H2371 C2346 0.950 . S
H2372 C2348 0.950 . S
H2373 C2349 0.949 . S
H2374 C2351 0.950 . S
H2375 C2353 0.950 . S
C2376 C2377 1.349 . S
C2376 C2378 1.327 . S
C2376 H2401 0.950 . S
C2377 C2376 1.349 . S
C2377 C2393 1.349 . S
C2378 C2376 1.327 . S
C2378 C2397 1.429 . S
C2378 H2402 0.950 . S
C2379 C2396 1.574 . S
C2379 C2398 1.368 . S
C2379 H2403 0.949 . S
H2380 C2384 0.949 . S
C2381 C2382 1.349 . S
C2381 C2383 1.327 . S
C2381 H2404 0.950 . S
C2382 C2381 1.349 . S
C2382 C2394 1.349 . S
C2383 C2381 1.327 . S
C2383 C2399 1.429 . S
C2383 H2405 0.950 . S
C2384 H2380 0.949 . S
C2384 C2392 1.574 . S
C2384 C2400 1.368 . S
H2385 C2393 0.950 . S
H2386 C2391 0.950 . S
H2387 C2392 0.949 . S
H2388 C2394 0.950 . S
H2389 C2395 0.950 . S
H2390 C2396 0.949 . S
C2391 H2386 0.950 . S
C2391 C2393 1.327 . S
C2391 C2397 1.429 . S
C2392 C2384 1.574 . S
C2392 H2387 0.949 . S
C2392 C2398 1.368 . S
C2393 C2377 1.349 . S
C2393 H2385 0.950 . S
C2393 C2391 1.327 . S
C2394 C2382 1.349 . S
C2394 H2388 0.950 . S
C2394 C2395 1.327 . S
C2395 H2389 0.950 . S
C2395 C2394 1.327 . S
C2395 C2399 1.429 . S
C2396 C2379 1.574 . S
C2396 H2390 0.949 . S
C2396 C2400 1.368 . S
C2397 C2378 1.429 . S
C2397 C2391 1.429 . S
C2397 C2398 1.523 . S
C2398 C2379 1.368 . S
C2398 C2392 1.368 . S
C2398 C2397 1.523 . S
C2399 C2383 1.429 . S
C2399 C2395 1.429 . S
C2399 C2400 1.523 . S
C2400 C2384 1.368 . S
C2400 C2396 1.368 . S
C2400 C2399 1.523 . S
H2401 C2376 0.950 . S
H2402 C2378 0.950 . S
H2403 C2379 0.949 . S
H2404 C2381 0.950 . S
H2405 C2383 0.950 . S
C2406 C2407 1.349 . S
C2406 C2408 1.327 . S
C2406 H2431 0.950 . S
C2407 C2406 1.349 . S
C2407 C2423 1.349 . S
C2408 C2406 1.327 . S
C2408 C2427 1.429 . S
C2408 H2432 0.950 . S
C2409 C2426 1.574 . S
C2409 C2428 1.368 . S
C2409 H2433 0.949 . S
H2410 C2414 0.949 . S
C2411 C2412 1.349 . S
C2411 C2413 1.327 . S
C2411 H2434 0.950 . S
C2412 C2411 1.349 . S
C2412 C2424 1.349 . S
C2413 C2411 1.327 . S
C2413 C2429 1.429 . S
C2413 H2435 0.950 . S
C2414 H2410 0.949 . S
C2414 C2422 1.574 . S
C2414 C2430 1.368 . S
H2415 C2423 0.950 . S
H2416 C2421 0.950 . S
H2417 C2422 0.949 . S
H2418 C2424 0.950 . S
H2419 C2425 0.950 . S
H2420 C2426 0.949 . S
C2421 H2416 0.950 . S
C2421 C2423 1.327 . S
C2421 C2427 1.429 . S
C2422 C2414 1.574 . S
C2422 H2417 0.949 . S
C2422 C2428 1.368 . S
C2423 C2407 1.349 . S
C2423 H2415 0.950 . S
C2423 C2421 1.327 . S
C2424 C2412 1.349 . S
C2424 H2418 0.950 . S
C2424 C2425 1.327 . S
C2425 H2419 0.950 . S
C2425 C2424 1.327 . S
C2425 C2429 1.429 . S
C2426 C2409 1.574 . S
C2426 H2420 0.949 . S
C2426 C2430 1.368 . S
C2427 C2408 1.429 . S
C2427 C2421 1.429 . S
C2427 C2428 1.523 . S
C2428 C2409 1.368 . S
C2428 C2422 1.368 . S
C2428 C2427 1.523 . S
C2429 C2413 1.429 . S
C2429 C2425 1.429 . S
C2429 C2430 1.523 . S
C2430 C2414 1.368 . S
C2430 C2426 1.368 . S
C2430 C2429 1.523 . S
H2431 C2406 0.950 . S
H2432 C2408 0.950 . S
H2433 C2409 0.949 . S
H2434 C2411 0.950 . S
H2435 C2413 0.950 . S
C2436 C2437 1.349 . S
C2436 C2438 1.327 . S
C2436 H2461 0.950 . S
C2437 C2436 1.349 . S
C2437 C2453 1.349 . S
C2438 C2436 1.327 . S
C2438 C2457 1.429 . S
C2438 H2462 0.950 . S
C2439 C2456 1.574 . S
C2439 C2458 1.368 . S
C2439 H2463 0.949 . S
H2440 C2444 0.949 . S
C2441 C2442 1.349 . S
C2441 C2443 1.327 . S
C2441 H2464 0.950 . S
C2442 C2441 1.349 . S
C2442 C2454 1.349 . S
C2443 C2441 1.327 . S
C2443 C2459 1.429 . S
C2443 H2465 0.950 . S
C2444 H2440 0.949 . S
C2444 C2452 1.574 . S
C2444 C2460 1.368 . S
H2445 C2453 0.950 . S
H2446 C2451 0.950 . S
H2447 C2452 0.949 . S
H2448 C2454 0.950 . S
H2449 C2455 0.950 . S
H2450 C2456 0.949 . S
C2451 H2446 0.950 . S
C2451 C2453 1.327 . S
C2451 C2457 1.429 . S
C2452 C2444 1.574 . S
C2452 H2447 0.949 . S
C2452 C2458 1.368 . S
C2453 C2437 1.349 . S
C2453 H2445 0.950 . S
C2453 C2451 1.327 . S
C2454 C2442 1.349 . S
C2454 H2448 0.950 . S
C2454 C2455 1.327 . S
C2455 H2449 0.950 . S
C2455 C2454 1.327 . S
C2455 C2459 1.429 . S
C2456 C2439 1.574 . S
C2456 H2450 0.949 . S
C2456 C2460 1.368 . S
C2457 C2438 1.429 . S
C2457 C2451 1.429 . S
C2457 C2458 1.523 . S
C2458 C2439 1.368 . S
C2458 C2452 1.368 . S
C2458 C2457 1.523 . S
C2459 C2443 1.429 . S
C2459 C2455 1.429 . S
C2459 C2460 1.523 . S
C2460 C2444 1.368 . S
C2460 C2456 1.368 . S
C2460 C2459 1.523 . S
H2461 C2436 0.950 . S
H2462 C2438 0.950 . S
H2463 C2439 0.949 . S
H2464 C2441 0.950 . S
H2465 C2443 0.950 . S
C2466 C2467 1.349 . S
C2466 C2468 1.327 . S
C2466 H2491 0.950 . S
C2467 C2466 1.349 . S
C2467 C2483 1.349 . S
C2468 C2466 1.327 . S
C2468 C2487 1.429 . S
C2468 H2492 0.950 . S
C2469 C2486 1.574 . S
C2469 C2488 1.368 . S
C2469 H2493 0.949 . S
H2470 C2474 0.949 . S
C2471 C2472 1.349 . S
C2471 C2473 1.327 . S
C2471 H2494 0.950 . S
C2472 C2471 1.349 . S
C2472 C2484 1.349 . S
C2473 C2471 1.327 . S
C2473 C2489 1.429 . S
C2473 H2495 0.950 . S
C2474 H2470 0.949 . S
C2474 C2482 1.574 . S
C2474 C2490 1.368 . S
H2475 C2483 0.950 . S
H2476 C2481 0.950 . S
H2477 C2482 0.949 . S
H2478 C2484 0.950 . S
H2479 C2485 0.950 . S
H2480 C2486 0.949 . S
C2481 H2476 0.950 . S
C2481 C2483 1.327 . S
C2481 C2487 1.429 . S
C2482 C2474 1.574 . S
C2482 H2477 0.949 . S
C2482 C2488 1.368 . S
C2483 C2467 1.349 . S
C2483 H2475 0.950 . S
C2483 C2481 1.327 . S
C2484 C2472 1.349 . S
C2484 H2478 0.950 . S
C2484 C2485 1.327 . S
C2485 H2479 0.950 . S
C2485 C2484 1.327 . S
C2485 C2489 1.429 . S
C2486 C2469 1.574 . S
C2486 H2480 0.949 . S
C2486 C2490 1.368 . S
C2487 C2468 1.429 . S
C2487 C2481 1.429 . S
C2487 C2488 1.523 . S
C2488 C2469 1.368 . S
C2488 C2482 1.368 . S
C2488 C2487 1.523 . S
C2489 C2473 1.429 . S
C2489 C2485 1.429 . S
C2489 C2490 1.523 . S
C2490 C2474 1.368 . S
C2490 C2486 1.368 . S
C2490 C2489 1.523 . S
H2491 C2466 0.950 . S
H2492 C2468 0.950 . S
H2493 C2469 0.949 . S
H2494 C2471 0.950 . S
H2495 C2473 0.950 . S
C2496 C2497 1.349 . S
C2496 C2498 1.327 . S
C2496 H2521 0.950 . S
C2497 C2496 1.349 . S
C2497 C2513 1.349 . S
C2498 C2496 1.327 . S
C2498 C2517 1.429 . S
C2498 H2522 0.950 . S
C2499 C2516 1.574 . S
C2499 C2518 1.368 . S
C2499 H2523 0.949 . S
H2500 C2504 0.949 . S
C2501 C2502 1.349 . S
C2501 C2503 1.327 . S
C2501 H2524 0.950 . S
C2502 C2501 1.349 . S
C2502 C2514 1.349 . S
C2503 C2501 1.327 . S
C2503 C2519 1.429 . S
C2503 H2525 0.950 . S
C2504 H2500 0.949 . S
C2504 C2512 1.574 . S
C2504 C2520 1.368 . S
H2505 C2513 0.950 . S
H2506 C2511 0.950 . S
H2507 C2512 0.949 . S
H2508 C2514 0.950 . S
H2509 C2515 0.950 . S
H2510 C2516 0.949 . S
C2511 H2506 0.950 . S
C2511 C2513 1.327 . S
C2511 C2517 1.429 . S
C2512 C2504 1.574 . S
C2512 H2507 0.949 . S
C2512 C2518 1.368 . S
C2513 C2497 1.349 . S
C2513 H2505 0.950 . S
C2513 C2511 1.327 . S
C2514 C2502 1.349 . S
C2514 H2508 0.950 . S
C2514 C2515 1.327 . S
C2515 H2509 0.950 . S
C2515 C2514 1.327 . S
C2515 C2519 1.429 . S
C2516 C2499 1.574 . S
C2516 H2510 0.949 . S
C2516 C2520 1.368 . S
C2517 C2498 1.429 . S
C2517 C2511 1.429 . S
C2517 C2518 1.523 . S
C2518 C2499 1.368 . S
C2518 C2512 1.368 . S
C2518 C2517 1.523 . S
C2519 C2503 1.429 . S
C2519 C2515 1.429 . S
C2519 C2520 1.523 . S
C2520 C2504 1.368 . S
C2520 C2516 1.368 . S
C2520 C2519 1.523 . S
H2521 C2496 0.950 . S
H2522 C2498 0.950 . S
H2523 C2499 0.949 . S
H2524 C2501 0.950 . S
H2525 C2503 0.950 . S
C2526 C2527 1.349 . S
C2526 C2528 1.327 . S
C2526 H2551 0.950 . S
C2527 C2526 1.349 . S
C2527 C2543 1.349 . S
C2528 C2526 1.327 . S
C2528 C2547 1.429 . S
C2528 H2552 0.950 . S
C2529 C2546 1.574 . S
C2529 C2548 1.368 . S
C2529 H2553 0.949 . S
H2530 C2534 0.949 . S
C2531 C2532 1.349 . S
C2531 C2533 1.327 . S
C2531 H2554 0.950 . S
C2532 C2531 1.349 . S
C2532 C2544 1.349 . S
C2533 C2531 1.327 . S
C2533 C2549 1.429 . S
C2533 H2555 0.950 . S
C2534 H2530 0.949 . S
C2534 C2542 1.574 . S
C2534 C2550 1.368 . S
H2535 C2543 0.950 . S
H2536 C2541 0.950 . S
H2537 C2542 0.949 . S
H2538 C2544 0.950 . S
H2539 C2545 0.950 . S
H2540 C2546 0.949 . S
C2541 H2536 0.950 . S
C2541 C2543 1.327 . S
C2541 C2547 1.429 . S
C2542 C2534 1.574 . S
C2542 H2537 0.949 . S
C2542 C2548 1.368 . S
C2543 C2527 1.349 . S
C2543 H2535 0.950 . S
C2543 C2541 1.327 . S
C2544 C2532 1.349 . S
C2544 H2538 0.950 . S
C2544 C2545 1.327 . S
C2545 H2539 0.950 . S
C2545 C2544 1.327 . S
C2545 C2549 1.429 . S
C2546 C2529 1.574 . S
C2546 H2540 0.949 . S
C2546 C2550 1.368 . S
C2547 C2528 1.429 . S
C2547 C2541 1.429 . S
C2547 C2548 1.523 . S
C2548 C2529 1.368 . S
C2548 C2542 1.368 . S
C2548 C2547 1.523 . S
C2549 C2533 1.429 . S
C2549 C2545 1.429 . S
C2549 C2550 1.523 . S
C2550 C2534 1.368 . S
C2550 C2546 1.368 . S
C2550 C2549 1.523 . S
H2551 C2526 0.950 . S
H2552 C2528 0.950 . S
H2553 C2529 0.949 . S
H2554 C2531 0.950 . S
H2555 C2533 0.950 . S
C2556 C2557 1.349 . S
C2556 C2558 1.327 . S
C2556 H2581 0.950 . S
C2557 C2556 1.349 . S
C2557 C2573 1.349 . S
C2558 C2556 1.327 . S
C2558 C2577 1.429 . S
C2558 H2582 0.950 . S
C2559 C2576 1.574 . S
C2559 C2578 1.368 . S
C2559 H2583 0.949 . S
H2560 C2564 0.949 . S
C2561 C2562 1.349 . S
C2561 C2563 1.327 . S
C2561 H2584 0.950 . S
C2562 C2561 1.349 . S
C2562 C2574 1.349 . S
C2563 C2561 1.327 . S
C2563 C2579 1.429 . S
C2563 H2585 0.950 . S
C2564 H2560 0.949 . S
C2564 C2572 1.574 . S
C2564 C2580 1.368 . S
H2565 C2573 0.950 . S
H2566 C2571 0.950 . S
H2567 C2572 0.949 . S
H2568 C2574 0.950 . S
H2569 C2575 0.950 . S
H2570 C2576 0.949 . S
C2571 H2566 0.950 . S
C2571 C2573 1.327 . S
C2571 C2577 1.429 . S
C2572 C2564 1.574 . S
C2572 H2567 0.949 . S
C2572 C2578 1.368 . S
C2573 C2557 1.349 . S
C2573 H2565 0.950 . S
C2573 C2571 1.327 . S
C2574 C2562 1.349 . S
C2574 H2568 0.950 . S
C2574 C2575 1.327 . S
C2575 H2569 0.950 . S
C2575 C2574 1.327 . S
C2575 C2579 1.429 . S
C2576 C2559 1.574 . S
C2576 H2570 0.949 . S
C2576 C2580 1.368 . S
C2577 C2558 1.429 . S
C2577 C2571 1.429 . S
C2577 C2578 1.523 . S
C2578 C2559 1.368 . S
C2578 C2572 1.368 . S
C2578 C2577 1.523 . S
C2579 C2563 1.429 . S
C2579 C2575 1.429 . S
C2579 C2580 1.523 . S
C2580 C2564 1.368 . S
C2580 C2576 1.368 . S
C2580 C2579 1.523 . S
H2581 C2556 0.950 . S
H2582 C2558 0.950 . S
H2583 C2559 0.949 . S
H2584 C2561 0.950 . S
H2585 C2563 0.950 . S
C2586 C2587 1.349 . S
C2586 C2588 1.327 . S
C2586 H2611 0.950 . S
C2587 C2586 1.349 . S
C2587 C2603 1.349 . S
C2588 C2586 1.327 . S
C2588 C2607 1.429 . S
C2588 H2612 0.950 . S
C2589 C2606 1.574 . S
C2589 C2608 1.368 . S
C2589 H2613 0.949 . S
H2590 C2594 0.949 . S
C2591 C2592 1.349 . S
C2591 C2593 1.327 . S
C2591 H2614 0.950 . S
C2592 C2591 1.349 . S
C2592 C2604 1.349 . S
C2593 C2591 1.327 . S
C2593 C2609 1.429 . S
C2593 H2615 0.950 . S
C2594 H2590 0.949 . S
C2594 C2602 1.574 . S
C2594 C2610 1.368 . S
H2595 C2603 0.950 . S
H2596 C2601 0.950 . S
H2597 C2602 0.949 . S
H2598 C2604 0.950 . S
H2599 C2605 0.950 . S
H2600 C2606 0.949 . S
C2601 H2596 0.950 . S
C2601 C2603 1.327 . S
C2601 C2607 1.429 . S
C2602 C2594 1.574 . S
C2602 H2597 0.949 . S
C2602 C2608 1.368 . S
C2603 C2587 1.349 . S
C2603 H2595 0.950 . S
C2603 C2601 1.327 . S
C2604 C2592 1.349 . S
C2604 H2598 0.950 . S
C2604 C2605 1.327 . S
C2605 H2599 0.950 . S
C2605 C2604 1.327 . S
C2605 C2609 1.429 . S
C2606 C2589 1.574 . S
C2606 H2600 0.949 . S
C2606 C2610 1.368 . S
C2607 C2588 1.429 . S
C2607 C2601 1.429 . S
C2607 C2608 1.523 . S
C2608 C2589 1.368 . S
C2608 C2602 1.368 . S
C2608 C2607 1.523 . S
C2609 C2593 1.429 . S
C2609 C2605 1.429 . S
C2609 C2610 1.523 . S
C2610 C2594 1.368 . S
C2610 C2606 1.368 . S
C2610 C2609 1.523 . S
H2611 C2586 0.950 . S
H2612 C2588 0.950 . S
H2613 C2589 0.949 . S
H2614 C2591 0.950 . S
H2615 C2593 0.950 . S
C2616 C2617 1.349 . S
C2616 C2618 1.327 . S
C2616 H2641 0.950 . S
C2617 C2616 1.349 . S
C2617 C2633 1.349 . S
C2618 C2616 1.327 . S
C2618 C2637 1.429 . S
C2618 H2642 0.950 . S
C2619 C2636 1.574 . S
C2619 C2638 1.368 . S
C2619 H2643 0.949 . S
H2620 C2624 0.949 . S
C2621 C2622 1.349 . S
C2621 C2623 1.327 . S
C2621 H2644 0.950 . S
C2622 C2621 1.349 . S
C2622 C2634 1.349 . S
C2623 C2621 1.327 . S
C2623 C2639 1.429 . S
C2623 H2645 0.950 . S
C2624 H2620 0.949 . S
C2624 C2632 1.574 . S
C2624 C2640 1.368 . S
H2625 C2633 0.950 . S
H2626 C2631 0.950 . S
H2627 C2632 0.949 . S
H2628 C2634 0.950 . S
H2629 C2635 0.950 . S
H2630 C2636 0.949 . S
C2631 H2626 0.950 . S
C2631 C2633 1.327 . S
C2631 C2637 1.429 . S
C2632 C2624 1.574 . S
C2632 H2627 0.949 . S
C2632 C2638 1.368 . S
C2633 C2617 1.349 . S
C2633 H2625 0.950 . S
C2633 C2631 1.327 . S
C2634 C2622 1.349 . S
C2634 H2628 0.950 . S
C2634 C2635 1.327 . S
C2635 H2629 0.950 . S
C2635 C2634 1.327 . S
C2635 C2639 1.429 . S
C2636 C2619 1.574 . S
C2636 H2630 0.949 . S
C2636 C2640 1.368 . S
C2637 C2618 1.429 . S
C2637 C2631 1.429 . S
C2637 C2638 1.523 . S
C2638 C2619 1.368 . S
C2638 C2632 1.368 . S
C2638 C2637 1.523 . S
C2639 C2623 1.429 . S
C2639 C2635 1.429 . S
C2639 C2640 1.523 . S
C2640 C2624 1.368 . S
C2640 C2636 1.368 . S
C2640 C2639 1.523 . S
H2641 C2616 0.950 . S
H2642 C2618 0.950 . S
H2643 C2619 0.949 . S
H2644 C2621 0.950 . S
H2645 C2623 0.950 . S
C2646 C2647 1.349 . S
C2646 C2648 1.327 . S
C2646 H2671 0.950 . S
C2647 C2646 1.349 . S
C2647 C2663 1.349 . S
C2648 C2646 1.327 . S
C2648 C2667 1.429 . S
C2648 H2672 0.950 . S
C2649 C2666 1.574 . S
C2649 C2668 1.368 . S
C2649 H2673 0.949 . S
H2650 C2654 0.949 . S
C2651 C2652 1.349 . S
C2651 C2653 1.327 . S
C2651 H2674 0.950 . S
C2652 C2651 1.349 . S
C2652 C2664 1.349 . S
C2653 C2651 1.327 . S
C2653 C2669 1.429 . S
C2653 H2675 0.950 . S
C2654 H2650 0.949 . S
C2654 C2662 1.574 . S
C2654 C2670 1.368 . S
H2655 C2663 0.950 . S
H2656 C2661 0.950 . S
H2657 C2662 0.949 . S
H2658 C2664 0.950 . S
H2659 C2665 0.950 . S
H2660 C2666 0.949 . S
C2661 H2656 0.950 . S
C2661 C2663 1.327 . S
C2661 C2667 1.429 . S
C2662 C2654 1.574 . S
C2662 H2657 0.949 . S
C2662 C2668 1.368 . S
C2663 C2647 1.349 . S
C2663 H2655 0.950 . S
C2663 C2661 1.327 . S
C2664 C2652 1.349 . S
C2664 H2658 0.950 . S
C2664 C2665 1.327 . S
C2665 H2659 0.950 . S
C2665 C2664 1.327 . S
C2665 C2669 1.429 . S
C2666 C2649 1.574 . S
C2666 H2660 0.949 . S
C2666 C2670 1.368 . S
C2667 C2648 1.429 . S
C2667 C2661 1.429 . S
C2667 C2668 1.523 . S
C2668 C2649 1.368 . S
C2668 C2662 1.368 . S
C2668 C2667 1.523 . S
C2669 C2653 1.429 . S
C2669 C2665 1.429 . S
C2669 C2670 1.523 . S
C2670 C2654 1.368 . S
C2670 C2666 1.368 . S
C2670 C2669 1.523 . S
H2671 C2646 0.950 . S
H2672 C2648 0.950 . S
H2673 C2649 0.949 . S
H2674 C2651 0.950 . S
H2675 C2653 0.950 . S
C2676 C2677 1.349 . S
C2676 C2678 1.327 . S
C2676 H2701 0.950 . S
C2677 C2676 1.349 . S
C2677 C2693 1.349 . S
C2678 C2676 1.327 . S
C2678 C2697 1.429 . S
C2678 H2702 0.950 . S
C2679 C2696 1.574 . S
C2679 C2698 1.368 . S
C2679 H2703 0.949 . S
H2680 C2684 0.949 . S
C2681 C2682 1.349 . S
C2681 C2683 1.327 . S
C2681 H2704 0.950 . S
C2682 C2681 1.349 . S
C2682 C2694 1.349 . S
C2683 C2681 1.327 . S
C2683 C2699 1.429 . S
C2683 H2705 0.950 . S
C2684 H2680 0.949 . S
C2684 C2692 1.574 . S
C2684 C2700 1.368 . S
H2685 C2693 0.950 . S
H2686 C2691 0.950 . S
H2687 C2692 0.949 . S
H2688 C2694 0.950 . S
H2689 C2695 0.950 . S
H2690 C2696 0.949 . S
C2691 H2686 0.950 . S
C2691 C2693 1.327 . S
C2691 C2697 1.429 . S
C2692 C2684 1.574 . S
C2692 H2687 0.949 . S
C2692 C2698 1.368 . S
C2693 C2677 1.349 . S
C2693 H2685 0.950 . S
C2693 C2691 1.327 . S
C2694 C2682 1.349 . S
C2694 H2688 0.950 . S
C2694 C2695 1.327 . S
C2695 H2689 0.950 . S
C2695 C2694 1.327 . S
C2695 C2699 1.429 . S
C2696 C2679 1.574 . S
C2696 H2690 0.949 . S
C2696 C2700 1.368 . S
C2697 C2678 1.429 . S
C2697 C2691 1.429 . S
C2697 C2698 1.523 . S
C2698 C2679 1.368 . S
C2698 C2692 1.368 . S
C2698 C2697 1.523 . S
C2699 C2683 1.429 . S
C2699 C2695 1.429 . S
C2699 C2700 1.523 . S
C2700 C2684 1.368 . S
C2700 C2696 1.368 . S
C2700 C2699 1.523 . S
H2701 C2676 0.950 . S
H2702 C2678 0.950 . S
H2703 C2679 0.949 . S
H2704 C2681 0.950 . S
H2705 C2683 0.950 . S
C2706 C2707 1.349 . S
C2706 C2708 1.327 . S
C2706 H2731 0.950 . S
C2707 C2706 1.349 . S
C2707 C2723 1.349 . S
C2708 C2706 1.327 . S
C2708 C2727 1.429 . S
C2708 H2732 0.950 . S
C2709 C2726 1.574 . S
C2709 C2728 1.368 . S
C2709 H2733 0.949 . S
H2710 C2714 0.949 . S
C2711 C2712 1.349 . S
C2711 C2713 1.327 . S
C2711 H2734 0.950 . S
C2712 C2711 1.349 . S
C2712 C2724 1.349 . S
C2713 C2711 1.327 . S
C2713 C2729 1.429 . S
C2713 H2735 0.950 . S
C2714 H2710 0.949 . S
C2714 C2722 1.574 . S
C2714 C2730 1.368 . S
H2715 C2723 0.950 . S
H2716 C2721 0.950 . S
H2717 C2722 0.949 . S
H2718 C2724 0.950 . S
H2719 C2725 0.950 . S
H2720 C2726 0.949 . S
C2721 H2716 0.950 . S
C2721 C2723 1.327 . S
C2721 C2727 1.429 . S
C2722 C2714 1.574 . S
C2722 H2717 0.949 . S
C2722 C2728 1.368 . S
C2723 C2707 1.349 . S
C2723 H2715 0.950 . S
C2723 C2721 1.327 . S
C2724 C2712 1.349 . S
C2724 H2718 0.950 . S
C2724 C2725 1.327 . S
C2725 H2719 0.950 . S
C2725 C2724 1.327 . S
C2725 C2729 1.429 . S
C2726 C2709 1.574 . S
C2726 H2720 0.949 . S
C2726 C2730 1.368 . S
C2727 C2708 1.429 . S
C2727 C2721 1.429 . S
C2727 C2728 1.523 . S
C2728 C2709 1.368 . S
C2728 C2722 1.368 . S
C2728 C2727 1.523 . S
C2729 C2713 1.429 . S
C2729 C2725 1.429 . S
C2729 C2730 1.523 . S
C2730 C2714 1.368 . S
C2730 C2726 1.368 . S
C2730 C2729 1.523 . S
H2731 C2706 0.950 . S
H2732 C2708 0.950 . S
H2733 C2709 0.949 . S
H2734 C2711 0.950 . S
H2735 C2713 0.950 . S
C2736 C2737 1.349 . S
C2736 C2738 1.327 . S
C2736 H2761 0.950 . S
C2737 C2736 1.349 . S
C2737 C2753 1.349 . S
C2738 C2736 1.327 . S
C2738 C2757 1.429 . S
C2738 H2762 0.950 . S
C2739 C2756 1.574 1_455 S
C2739 C2758 1.368 . S
C2739 H2763 0.949 . S
H2740 C2744 0.949 . S
C2741 C2742 1.349 . S
C2741 C2743 1.327 . S
C2741 H2764 0.950 . S
C2742 C2741 1.349 . S
C2742 C2754 1.349 . S
C2743 C2741 1.327 . S
C2743 C2759 1.429 . S
C2743 H2765 0.950 . S
C2744 H2740 0.949 . S
C2744 C2752 1.574 1_655 S
C2744 C2760 1.368 . S
H2745 C2753 0.950 . S
H2746 C2751 0.950 . S
H2747 C2752 0.949 . S
H2748 C2754 0.950 . S
H2749 C2755 0.950 . S
H2750 C2756 0.949 . S
C2751 H2746 0.950 . S
C2751 C2753 1.327 . S
C2751 C2757 1.429 . S
C2752 C2744 1.574 1_455 S
C2752 H2747 0.949 . S
C2752 C2758 1.368 . S
C2753 C2737 1.349 . S
C2753 H2745 0.950 . S
C2753 C2751 1.327 . S
C2754 C2742 1.349 . S
C2754 H2748 0.950 . S
C2754 C2755 1.327 . S
C2755 H2749 0.950 . S
C2755 C2754 1.327 . S
C2755 C2759 1.429 . S
C2756 C2739 1.574 1_655 S
C2756 H2750 0.949 . S
C2756 C2760 1.368 . S
C2757 C2738 1.429 . S
C2757 C2751 1.429 . S
C2757 C2758 1.523 . S
C2758 C2739 1.368 . S
C2758 C2752 1.368 . S
C2758 C2757 1.523 . S
C2759 C2743 1.429 . S
C2759 C2755 1.429 . S
C2759 C2760 1.523 . S
C2760 C2744 1.368 . S
C2760 C2756 1.368 . S
C2760 C2759 1.523 . S
H2761 C2736 0.950 . S
H2762 C2738 0.950 . S
H2763 C2739 0.949 . S
H2764 C2741 0.950 . S
H2765 C2743 0.950 . S
C2766 C2767 1.349 . S
C2766 C2768 1.327 . S
C2766 H2791 0.950 . S
C2767 C2766 1.349 . S
C2767 C2783 1.349 . S
C2768 C2766 1.327 . S
C2768 C2787 1.429 . S
C2768 H2792 0.950 . S
C2769 C2786 1.574 . S
C2769 C2788 1.368 . S
C2769 H2793 0.949 . S
H2770 C2774 0.949 . S
C2771 C2772 1.349 . S
C2771 C2773 1.327 . S
C2771 H2794 0.950 . S
C2772 C2771 1.349 . S
C2772 C2784 1.349 . S
C2773 C2771 1.327 . S
C2773 C2789 1.429 . S
C2773 H2795 0.950 . S
C2774 H2770 0.949 . S
C2774 C2782 1.574 . S
C2774 C2790 1.368 . S
H2775 C2783 0.950 . S
H2776 C2781 0.950 . S
H2777 C2782 0.949 . S
H2778 C2784 0.950 . S
H2779 C2785 0.950 . S
H2780 C2786 0.949 . S
C2781 H2776 0.950 . S
C2781 C2783 1.327 . S
C2781 C2787 1.429 . S
C2782 C2774 1.574 . S
C2782 H2777 0.949 . S
C2782 C2788 1.368 . S
C2783 C2767 1.349 . S
C2783 H2775 0.950 . S
C2783 C2781 1.327 . S
C2784 C2772 1.349 . S
C2784 H2778 0.950 . S
C2784 C2785 1.327 . S
C2785 H2779 0.950 . S
C2785 C2784 1.327 . S
C2785 C2789 1.429 . S
C2786 C2769 1.574 . S
C2786 H2780 0.949 . S
C2786 C2790 1.368 . S
C2787 C2768 1.429 . S
C2787 C2781 1.429 . S
C2787 C2788 1.523 . S
C2788 C2769 1.368 . S
C2788 C2782 1.368 . S
C2788 C2787 1.523 . S
C2789 C2773 1.429 . S
C2789 C2785 1.429 . S
C2789 C2790 1.523 . S
C2790 C2774 1.368 . S
C2790 C2786 1.368 . S
C2790 C2789 1.523 . S
H2791 C2766 0.950 . S
H2792 C2768 0.950 . S
H2793 C2769 0.949 . S
H2794 C2771 0.950 . S
H2795 C2773 0.950 . S
C2796 C2797 1.349 . S
C2796 C2798 1.327 . S
C2796 H2821 0.950 . S
C2797 C2796 1.349 . S
C2797 C2813 1.349 . S
C2798 C2796 1.327 . S
C2798 C2817 1.429 . S
C2798 H2822 0.950 . S
C2799 C2816 1.574 1_545 S
C2799 C2818 1.368 . S
C2799 H2823 0.949 . S
H2800 C2804 0.949 . S
C2801 C2802 1.349 . S
C2801 C2803 1.327 . S
C2801 H2824 0.950 . S
C2802 C2801 1.349 . S
C2802 C2814 1.349 . S
C2803 C2801 1.327 . S
C2803 C2819 1.429 . S
C2803 H2825 0.950 . S
C2804 H2800 0.949 . S
C2804 C2812 1.574 1_565 S
C2804 C2820 1.368 . S
H2805 C2813 0.950 . S
H2806 C2811 0.950 . S
H2807 C2812 0.949 . S
H2808 C2814 0.950 . S
H2809 C2815 0.950 . S
H2810 C2816 0.949 . S
C2811 H2806 0.950 . S
C2811 C2813 1.327 . S
C2811 C2817 1.429 . S
C2812 C2804 1.574 1_545 S
C2812 H2807 0.949 . S
C2812 C2818 1.368 . S
C2813 C2797 1.349 . S
C2813 H2805 0.950 . S
C2813 C2811 1.327 . S
C2814 C2802 1.349 . S
C2814 H2808 0.950 . S
C2814 C2815 1.327 . S
C2815 H2809 0.950 . S
C2815 C2814 1.327 . S
C2815 C2819 1.429 . S
C2816 C2799 1.574 1_565 S
C2816 H2810 0.949 . S
C2816 C2820 1.368 . S
C2817 C2798 1.429 . S
C2817 C2811 1.429 . S
C2817 C2818 1.523 . S
C2818 C2799 1.368 . S
C2818 C2812 1.368 . S
C2818 C2817 1.523 . S
C2819 C2803 1.429 . S
C2819 C2815 1.429 . S
C2819 C2820 1.523 . S
C2820 C2804 1.368 . S
C2820 C2816 1.368 . S
C2820 C2819 1.523 . S
H2821 C2796 0.950 . S
H2822 C2798 0.950 . S
H2823 C2799 0.949 . S
H2824 C2801 0.950 . S
H2825 C2803 0.950 . S
C2826 C2827 1.349 . S
C2826 C2828 1.327 . S
C2826 H2851 0.950 . S
C2827 C2826 1.349 . S
C2827 C2843 1.349 . S
C2828 C2826 1.327 . S
C2828 C2847 1.429 . S
C2828 H2852 0.950 . S
C2829 C2846 1.574 1_545 S
C2829 C2848 1.368 . S
C2829 H2853 0.949 . S
H2830 C2834 0.949 . S
C2831 C2832 1.349 . S
C2831 C2833 1.327 . S
C2831 H2854 0.950 . S
C2832 C2831 1.349 . S
C2832 C2844 1.349 . S
C2833 C2831 1.327 . S
C2833 C2849 1.429 . S
C2833 H2855 0.950 . S
C2834 H2830 0.949 . S
C2834 C2842 1.574 1_565 S
C2834 C2850 1.368 . S
H2835 C2843 0.950 . S
H2836 C2841 0.950 . S
H2837 C2842 0.949 . S
H2838 C2844 0.950 . S
H2839 C2845 0.950 . S
H2840 C2846 0.949 . S
C2841 H2836 0.950 . S
C2841 C2843 1.327 . S
C2841 C2847 1.429 . S
C2842 C2834 1.574 1_545 S
C2842 H2837 0.949 . S
C2842 C2848 1.368 . S
C2843 C2827 1.349 . S
C2843 H2835 0.950 . S
C2843 C2841 1.327 . S
C2844 C2832 1.349 . S
C2844 H2838 0.950 . S
C2844 C2845 1.327 . S
C2845 H2839 0.950 . S
C2845 C2844 1.327 . S
C2845 C2849 1.429 . S
C2846 C2829 1.574 1_565 S
C2846 H2840 0.949 . S
C2846 C2850 1.368 . S
C2847 C2828 1.429 . S
C2847 C2841 1.429 . S
C2847 C2848 1.523 . S
C2848 C2829 1.368 . S
C2848 C2842 1.368 . S
C2848 C2847 1.523 . S
C2849 C2833 1.429 . S
C2849 C2845 1.429 . S
C2849 C2850 1.523 . S
C2850 C2834 1.368 . S
C2850 C2846 1.368 . S
C2850 C2849 1.523 . S
H2851 C2826 0.950 . S
H2852 C2828 0.950 . S
H2853 C2829 0.949 . S
H2854 C2831 0.950 . S
H2855 C2833 0.950 . S
C2856 C2857 1.349 . S
C2856 C2858 1.327 . S
C2856 H2881 0.950 . S
C2857 C2856 1.349 . S
C2857 C2873 1.349 . S
C2858 C2856 1.327 . S
C2858 C2877 1.429 . S
C2858 H2882 0.950 . S
C2859 C2876 1.574 1_655 S
C2859 C2878 1.368 . S
C2859 H2883 0.949 . S
H2860 C2864 0.949 . S
C2861 C2862 1.349 . S
C2861 C2863 1.327 . S
C2861 H2884 0.950 . S
C2862 C2861 1.349 . S
C2862 C2874 1.349 . S
C2863 C2861 1.327 . S
C2863 C2879 1.429 . S
C2863 H2885 0.950 . S
C2864 H2860 0.949 . S
C2864 C2872 1.574 1_455 S
C2864 C2880 1.368 . S
H2865 C2873 0.950 . S
H2866 C2871 0.950 . S
H2867 C2872 0.949 . S
H2868 C2874 0.950 . S
H2869 C2875 0.950 . S
H2870 C2876 0.949 . S
C2871 H2866 0.950 . S
C2871 C2873 1.327 . S
C2871 C2877 1.429 . S
C2872 C2864 1.574 1_655 S
C2872 H2867 0.949 . S
C2872 C2878 1.368 . S
C2873 C2857 1.349 . S
C2873 H2865 0.950 . S
C2873 C2871 1.327 . S
C2874 C2862 1.349 . S
C2874 H2868 0.950 . S
C2874 C2875 1.327 . S
C2875 H2869 0.950 . S
C2875 C2874 1.327 . S
C2875 C2879 1.429 . S
C2876 C2859 1.574 1_455 S
C2876 H2870 0.949 . S
C2876 C2880 1.368 . S
C2877 C2858 1.429 . S
C2877 C2871 1.429 . S
C2877 C2878 1.523 . S
C2878 C2859 1.368 . S
C2878 C2872 1.368 . S
C2878 C2877 1.523 . S
C2879 C2863 1.429 . S
C2879 C2875 1.429 . S
C2879 C2880 1.523 . S
C2880 C2864 1.368 . S
C2880 C2876 1.368 . S
C2880 C2879 1.523 . S
H2881 C2856 0.950 . S
H2882 C2858 0.950 . S
H2883 C2859 0.949 . S
H2884 C2861 0.950 . S
H2885 C2863 0.950 . S
C2886 C2887 1.349 . S
C2886 C2888 1.327 . S
C2886 H2911 0.950 . S
C2887 C2886 1.349 . S
C2887 C2903 1.349 . S
C2888 C2886 1.327 . S
C2888 C2907 1.429 . S
C2888 H2912 0.950 . S
C2889 C2906 1.574 . S
C2889 C2908 1.368 . S
C2889 H2913 0.949 . S
H2890 C2894 0.949 . S
C2891 C2892 1.349 . S
C2891 C2893 1.327 . S
C2891 H2914 0.950 . S
C2892 C2891 1.349 . S
C2892 C2904 1.349 . S
C2893 C2891 1.327 . S
C2893 C2909 1.429 . S
C2893 H2915 0.950 . S
C2894 H2890 0.949 . S
C2894 C2902 1.574 . S
C2894 C2910 1.368 . S
H2895 C2903 0.950 . S
H2896 C2901 0.950 . S
H2897 C2902 0.949 . S
H2898 C2904 0.950 . S
H2899 C2905 0.950 . S
H2900 C2906 0.949 . S
C2901 H2896 0.950 . S
C2901 C2903 1.327 . S
C2901 C2907 1.429 . S
C2902 C2894 1.574 . S
C2902 H2897 0.949 . S
C2902 C2908 1.368 . S
C2903 C2887 1.349 . S
C2903 H2895 0.950 . S
C2903 C2901 1.327 . S
C2904 C2892 1.349 . S
C2904 H2898 0.950 . S
C2904 C2905 1.327 . S
C2905 H2899 0.950 . S
C2905 C2904 1.327 . S
C2905 C2909 1.429 . S
C2906 C2889 1.574 . S
C2906 H2900 0.949 . S
C2906 C2910 1.368 . S
C2907 C2888 1.429 . S
C2907 C2901 1.429 . S
C2907 C2908 1.523 . S
C2908 C2889 1.368 . S
C2908 C2902 1.368 . S
C2908 C2907 1.523 . S
C2909 C2893 1.429 . S
C2909 C2905 1.429 . S
C2909 C2910 1.523 . S
C2910 C2894 1.368 . S
C2910 C2906 1.368 . S
C2910 C2909 1.523 . S
H2911 C2886 0.950 . S
H2912 C2888 0.950 . S
H2913 C2889 0.949 . S
H2914 C2891 0.950 . S
H2915 C2893 0.950 . S
C2916 C2917 1.349 . S
C2916 C2918 1.327 . S
C2916 H2941 0.950 . S
C2917 C2916 1.349 . S
C2917 C2933 1.349 . S
C2918 C2916 1.327 . S
C2918 C2937 1.429 . S
C2918 H2942 0.950 . S
C2919 C2936 1.574 . S
C2919 C2938 1.368 . S
C2919 H2943 0.949 . S
H2920 C2924 0.949 . S
C2921 C2922 1.349 . S
C2921 C2923 1.327 . S
C2921 H2944 0.950 . S
C2922 C2921 1.349 . S
C2922 C2934 1.349 . S
C2923 C2921 1.327 . S
C2923 C2939 1.429 . S
C2923 H2945 0.950 . S
C2924 H2920 0.949 . S
C2924 C2932 1.574 . S
C2924 C2940 1.368 . S
H2925 C2933 0.950 . S
H2926 C2931 0.950 . S
H2927 C2932 0.949 . S
H2928 C2934 0.950 . S
H2929 C2935 0.950 . S
H2930 C2936 0.949 . S
C2931 H2926 0.950 . S
C2931 C2933 1.327 . S
C2931 C2937 1.429 . S
C2932 C2924 1.574 . S
C2932 H2927 0.949 . S
C2932 C2938 1.368 . S
C2933 C2917 1.349 . S
C2933 H2925 0.950 . S
C2933 C2931 1.327 . S
C2934 C2922 1.349 . S
C2934 H2928 0.950 . S
C2934 C2935 1.327 . S
C2935 H2929 0.950 . S
C2935 C2934 1.327 . S
C2935 C2939 1.429 . S
C2936 C2919 1.574 . S
C2936 H2930 0.949 . S
C2936 C2940 1.368 . S
C2937 C2918 1.429 . S
C2937 C2931 1.429 . S
C2937 C2938 1.523 . S
C2938 C2919 1.368 . S
C2938 C2932 1.368 . S
C2938 C2937 1.523 . S
C2939 C2923 1.429 . S
C2939 C2935 1.429 . S
C2939 C2940 1.523 . S
C2940 C2924 1.368 . S
C2940 C2936 1.368 . S
C2940 C2939 1.523 . S
H2941 C2916 0.950 . S
H2942 C2918 0.950 . S
H2943 C2919 0.949 . S
H2944 C2921 0.950 . S
H2945 C2923 0.950 . S
C2946 C2947 1.349 . S
C2946 C2948 1.327 . S
C2946 H2971 0.950 . S
C2947 C2946 1.349 . S
C2947 C2963 1.349 . S
C2948 C2946 1.327 . S
C2948 C2967 1.429 . S
C2948 H2972 0.950 . S
C2949 C2966 1.574 . S
C2949 C2968 1.368 . S
C2949 H2973 0.949 . S
H2950 C2954 0.949 . S
C2951 C2952 1.349 . S
C2951 C2953 1.327 . S
C2951 H2974 0.950 . S
C2952 C2951 1.349 . S
C2952 C2964 1.349 . S
C2953 C2951 1.327 . S
C2953 C2969 1.429 . S
C2953 H2975 0.950 . S
C2954 H2950 0.949 . S
C2954 C2962 1.574 . S
C2954 C2970 1.368 . S
H2955 C2963 0.950 . S
H2956 C2961 0.950 . S
H2957 C2962 0.949 . S
H2958 C2964 0.950 . S
H2959 C2965 0.950 . S
H2960 C2966 0.949 . S
C2961 H2956 0.950 . S
C2961 C2963 1.327 . S
C2961 C2967 1.429 . S
C2962 C2954 1.574 . S
C2962 H2957 0.949 . S
C2962 C2968 1.368 . S
C2963 C2947 1.349 . S
C2963 H2955 0.950 . S
C2963 C2961 1.327 . S
C2964 C2952 1.349 . S
C2964 H2958 0.950 . S
C2964 C2965 1.327 . S
C2965 H2959 0.950 . S
C2965 C2964 1.327 . S
C2965 C2969 1.429 . S
C2966 C2949 1.574 . S
C2966 H2960 0.949 . S
C2966 C2970 1.368 . S
C2967 C2948 1.429 . S
C2967 C2961 1.429 . S
C2967 C2968 1.523 . S
C2968 C2949 1.368 . S
C2968 C2962 1.368 . S
C2968 C2967 1.523 . S
C2969 C2953 1.429 . S
C2969 C2965 1.429 . S
C2969 C2970 1.523 . S
C2970 C2954 1.368 . S
C2970 C2966 1.368 . S
C2970 C2969 1.523 . S
H2971 C2946 0.950 . S
H2972 C2948 0.950 . S
H2973 C2949 0.949 . S
H2974 C2951 0.950 . S
H2975 C2953 0.950 . S
C2976 C2977 1.349 . S
C2976 C2978 1.327 . S
C2976 H3001 0.950 . S
C2977 C2976 1.349 . S
C2977 C2993 1.349 . S
C2978 C2976 1.327 . S
C2978 C2997 1.429 . S
C2978 H3002 0.950 . S
C2979 C2996 1.574 . S
C2979 C2998 1.368 . S
C2979 H3003 0.949 . S
H2980 C2984 0.949 . S
C2981 C2982 1.349 . S
C2981 C2983 1.327 . S
C2981 H3004 0.950 . S
C2982 C2981 1.349 . S
C2982 C2994 1.349 . S
C2983 C2981 1.327 . S
C2983 C2999 1.429 . S
C2983 H3005 0.950 . S
C2984 H2980 0.949 . S
C2984 C2992 1.574 . S
C2984 C3000 1.368 . S
H2985 C2993 0.950 . S
H2986 C2991 0.950 . S
H2987 C2992 0.949 . S
H2988 C2994 0.950 . S
H2989 C2995 0.950 . S
H2990 C2996 0.949 . S
C2991 H2986 0.950 . S
C2991 C2993 1.327 . S
C2991 C2997 1.429 . S
C2992 C2984 1.574 . S
C2992 H2987 0.949 . S
C2992 C2998 1.368 . S
C2993 C2977 1.349 . S
C2993 H2985 0.950 . S
C2993 C2991 1.327 . S
C2994 C2982 1.349 . S
C2994 H2988 0.950 . S
C2994 C2995 1.327 . S
C2995 H2989 0.950 . S
C2995 C2994 1.327 . S
C2995 C2999 1.429 . S
C2996 C2979 1.574 . S
C2996 H2990 0.949 . S
C2996 C3000 1.368 . S
C2997 C2978 1.429 . S
C2997 C2991 1.429 . S
C2997 C2998 1.523 . S
C2998 C2979 1.368 . S
C2998 C2992 1.368 . S
C2998 C2997 1.523 . S
C2999 C2983 1.429 . S
C2999 C2995 1.429 . S
C2999 C3000 1.523 . S
C3000 C2984 1.368 . S
C3000 C2996 1.368 . S
C3000 C2999 1.523 . S
H3001 C2976 0.950 . S
H3002 C2978 0.950 . S
H3003 C2979 0.949 . S
H3004 C2981 0.950 . S
H3005 C2983 0.950 . S
C3006 C3007 1.349 . S
C3006 C3008 1.327 . S
C3006 H3031 0.950 . S
C3007 C3006 1.349 . S
C3007 C3023 1.349 . S
C3008 C3006 1.327 . S
C3008 C3027 1.429 . S
C3008 H3032 0.950 . S
C3009 C3026 1.574 . S
C3009 C3028 1.368 . S
C3009 H3033 0.949 . S
H3010 C3014 0.949 . S
C3011 C3012 1.349 . S
C3011 C3013 1.327 . S
C3011 H3034 0.950 . S
C3012 C3011 1.349 . S
C3012 C3024 1.349 . S
C3013 C3011 1.327 . S
C3013 C3029 1.429 . S
C3013 H3035 0.950 . S
C3014 H3010 0.949 . S
C3014 C3022 1.574 . S
C3014 C3030 1.368 . S
H3015 C3023 0.950 . S
H3016 C3021 0.950 . S
H3017 C3022 0.949 . S
H3018 C3024 0.950 . S
H3019 C3025 0.950 . S
H3020 C3026 0.949 . S
C3021 H3016 0.950 . S
C3021 C3023 1.327 . S
C3021 C3027 1.429 . S
C3022 C3014 1.574 . S
C3022 H3017 0.949 . S
C3022 C3028 1.368 . S
C3023 C3007 1.349 . S
C3023 H3015 0.950 . S
C3023 C3021 1.327 . S
C3024 C3012 1.349 . S
C3024 H3018 0.950 . S
C3024 C3025 1.327 . S
C3025 H3019 0.950 . S
C3025 C3024 1.327 . S
C3025 C3029 1.429 . S
C3026 C3009 1.574 . S
C3026 H3020 0.949 . S
C3026 C3030 1.368 . S
C3027 C3008 1.429 . S
C3027 C3021 1.429 . S
C3027 C3028 1.523 . S
C3028 C3009 1.368 . S
C3028 C3022 1.368 . S
C3028 C3027 1.523 . S
C3029 C3013 1.429 . S
C3029 C3025 1.429 . S
C3029 C3030 1.523 . S
C3030 C3014 1.368 . S
C3030 C3026 1.368 . S
C3030 C3029 1.523 . S
H3031 C3006 0.950 . S
H3032 C3008 0.950 . S
H3033 C3009 0.949 . S
H3034 C3011 0.950 . S
H3035 C3013 0.950 . S
C3036 C3037 1.349 . S
C3036 C3038 1.327 . S
C3036 H3061 0.950 . S
C3037 C3036 1.349 . S
C3037 C3053 1.349 . S
C3038 C3036 1.327 . S
C3038 C3057 1.429 . S
C3038 H3062 0.950 . S
C3039 C3056 1.574 . S
C3039 C3058 1.368 . S
C3039 H3063 0.949 . S
H3040 C3044 0.949 . S
C3041 C3042 1.349 . S
C3041 C3043 1.327 . S
C3041 H3064 0.950 . S
C3042 C3041 1.349 . S
C3042 C3054 1.349 . S
C3043 C3041 1.327 . S
C3043 C3059 1.429 . S
C3043 H3065 0.950 . S
C3044 H3040 0.949 . S
C3044 C3052 1.574 . S
C3044 C3060 1.368 . S
H3045 C3053 0.950 . S
H3046 C3051 0.950 . S
H3047 C3052 0.949 . S
H3048 C3054 0.950 . S
H3049 C3055 0.950 . S
H3050 C3056 0.949 . S
C3051 H3046 0.950 . S
C3051 C3053 1.327 . S
C3051 C3057 1.429 . S
C3052 C3044 1.574 . S
C3052 H3047 0.949 . S
C3052 C3058 1.368 . S
C3053 C3037 1.349 . S
C3053 H3045 0.950 . S
C3053 C3051 1.327 . S
C3054 C3042 1.349 . S
C3054 H3048 0.950 . S
C3054 C3055 1.327 . S
C3055 H3049 0.950 . S
C3055 C3054 1.327 . S
C3055 C3059 1.429 . S
C3056 C3039 1.574 . S
C3056 H3050 0.949 . S
C3056 C3060 1.368 . S
C3057 C3038 1.429 . S
C3057 C3051 1.429 . S
C3057 C3058 1.523 . S
C3058 C3039 1.368 . S
C3058 C3052 1.368 . S
C3058 C3057 1.523 . S
C3059 C3043 1.429 . S
C3059 C3055 1.429 . S
C3059 C3060 1.523 . S
C3060 C3044 1.368 . S
C3060 C3056 1.368 . S
C3060 C3059 1.523 . S
H3061 C3036 0.950 . S
H3062 C3038 0.950 . S
H3063 C3039 0.949 . S
H3064 C3041 0.950 . S
H3065 C3043 0.950 . S
C3066 C3067 1.349 . S
C3066 C3068 1.327 . S
C3066 H3091 0.950 . S
C3067 C3066 1.349 . S
C3067 C3083 1.349 . S
C3068 C3066 1.327 . S
C3068 C3087 1.429 . S
C3068 H3092 0.950 . S
C3069 C3086 1.574 . S
C3069 C3088 1.368 . S
C3069 H3093 0.949 . S
H3070 C3074 0.949 . S
C3071 C3072 1.349 . S
C3071 C3073 1.327 . S
C3071 H3094 0.950 . S
C3072 C3071 1.349 . S
C3072 C3084 1.349 . S
C3073 C3071 1.327 . S
C3073 C3089 1.429 . S
C3073 H3095 0.950 . S
C3074 H3070 0.949 . S
C3074 C3082 1.574 . S
C3074 C3090 1.368 . S
H3075 C3083 0.950 . S
H3076 C3081 0.950 . S
H3077 C3082 0.949 . S
H3078 C3084 0.950 . S
H3079 C3085 0.950 . S
H3080 C3086 0.949 . S
C3081 H3076 0.950 . S
C3081 C3083 1.327 . S
C3081 C3087 1.429 . S
C3082 C3074 1.574 . S
C3082 H3077 0.949 . S
C3082 C3088 1.368 . S
C3083 C3067 1.349 . S
C3083 H3075 0.950 . S
C3083 C3081 1.327 . S
C3084 C3072 1.349 . S
C3084 H3078 0.950 . S
C3084 C3085 1.327 . S
C3085 H3079 0.950 . S
C3085 C3084 1.327 . S
C3085 C3089 1.429 . S
C3086 C3069 1.574 . S
C3086 H3080 0.949 . S
C3086 C3090 1.368 . S
C3087 C3068 1.429 . S
C3087 C3081 1.429 . S
C3087 C3088 1.523 . S
C3088 C3069 1.368 . S
C3088 C3082 1.368 . S
C3088 C3087 1.523 . S
C3089 C3073 1.429 . S
C3089 C3085 1.429 . S
C3089 C3090 1.523 . S
C3090 C3074 1.368 . S
C3090 C3086 1.368 . S
C3090 C3089 1.523 . S
H3091 C3066 0.950 . S
H3092 C3068 0.950 . S
H3093 C3069 0.949 . S
H3094 C3071 0.950 . S
H3095 C3073 0.950 . S
C3096 C3097 1.349 . S
C3096 C3098 1.327 . S
C3096 H3121 0.950 . S
C3097 C3096 1.349 . S
C3097 C3113 1.349 . S
C3098 C3096 1.327 . S
C3098 C3117 1.429 . S
C3098 H3122 0.950 . S
C3099 C3116 1.574 . S
C3099 C3118 1.368 . S
C3099 H3123 0.949 . S
H3100 C3104 0.949 . S
C3101 C3102 1.349 . S
C3101 C3103 1.327 . S
C3101 H3124 0.950 . S
C3102 C3101 1.349 . S
C3102 C3114 1.349 . S
C3103 C3101 1.327 . S
C3103 C3119 1.429 . S
C3103 H3125 0.950 . S
C3104 H3100 0.949 . S
C3104 C3112 1.574 . S
C3104 C3120 1.368 . S
H3105 C3113 0.950 . S
H3106 C3111 0.950 . S
H3107 C3112 0.949 . S
H3108 C3114 0.950 . S
H3109 C3115 0.950 . S
H3110 C3116 0.949 . S
C3111 H3106 0.950 . S
C3111 C3113 1.327 . S
C3111 C3117 1.429 . S
C3112 C3104 1.574 . S
C3112 H3107 0.949 . S
C3112 C3118 1.368 . S
C3113 C3097 1.349 . S
C3113 H3105 0.950 . S
C3113 C3111 1.327 . S
C3114 C3102 1.349 . S
C3114 H3108 0.950 . S
C3114 C3115 1.327 . S
C3115 H3109 0.950 . S
C3115 C3114 1.327 . S
C3115 C3119 1.429 . S
C3116 C3099 1.574 . S
C3116 H3110 0.949 . S
C3116 C3120 1.368 . S
C3117 C3098 1.429 . S
C3117 C3111 1.429 . S
C3117 C3118 1.523 . S
C3118 C3099 1.368 . S
C3118 C3112 1.368 . S
C3118 C3117 1.523 . S
C3119 C3103 1.429 . S
C3119 C3115 1.429 . S
C3119 C3120 1.523 . S
C3120 C3104 1.368 . S
C3120 C3116 1.368 . S
C3120 C3119 1.523 . S
H3121 C3096 0.950 . S
H3122 C3098 0.950 . S
H3123 C3099 0.949 . S
H3124 C3101 0.950 . S
H3125 C3103 0.950 . S
C3126 C3127 1.349 . S
C3126 C3128 1.327 . S
C3126 H3151 0.950 . S
C3127 C3126 1.349 . S
C3127 C3143 1.349 . S
C3128 C3126 1.327 . S
C3128 C3147 1.429 . S
C3128 H3152 0.950 . S
C3129 C3146 1.574 . S
C3129 C3148 1.368 . S
C3129 H3153 0.949 . S
H3130 C3134 0.949 . S
C3131 C3132 1.349 . S
C3131 C3133 1.327 . S
C3131 H3154 0.950 . S
C3132 C3131 1.349 . S
C3132 C3144 1.349 . S
C3133 C3131 1.327 . S
C3133 C3149 1.429 . S
C3133 H3155 0.950 . S
C3134 H3130 0.949 . S
C3134 C3142 1.574 . S
C3134 C3150 1.368 . S
H3135 C3143 0.950 . S
H3136 C3141 0.950 . S
H3137 C3142 0.949 . S
H3138 C3144 0.950 . S
H3139 C3145 0.950 . S
H3140 C3146 0.949 . S
C3141 H3136 0.950 . S
C3141 C3143 1.327 . S
C3141 C3147 1.429 . S
C3142 C3134 1.574 . S
C3142 H3137 0.949 . S
C3142 C3148 1.368 . S
C3143 C3127 1.349 . S
C3143 H3135 0.950 . S
C3143 C3141 1.327 . S
C3144 C3132 1.349 . S
C3144 H3138 0.950 . S
C3144 C3145 1.327 . S
C3145 H3139 0.950 . S
C3145 C3144 1.327 . S
C3145 C3149 1.429 . S
C3146 C3129 1.574 . S
C3146 H3140 0.949 . S
C3146 C3150 1.368 . S
C3147 C3128 1.429 . S
C3147 C3141 1.429 . S
C3147 C3148 1.523 . S
C3148 C3129 1.368 . S
C3148 C3142 1.368 . S
C3148 C3147 1.523 . S
C3149 C3133 1.429 . S
C3149 C3145 1.429 . S
C3149 C3150 1.523 . S
C3150 C3134 1.368 . S
C3150 C3146 1.368 . S
C3150 C3149 1.523 . S
H3151 C3126 0.950 . S
H3152 C3128 0.950 . S
H3153 C3129 0.949 . S
H3154 C3131 0.950 . S
H3155 C3133 0.950 . S
C3156 C3157 1.349 . S
C3156 C3158 1.327 . S
C3156 H3181 0.950 . S
C3157 C3156 1.349 . S
C3157 C3173 1.349 . S
C3158 C3156 1.327 . S
C3158 C3177 1.429 . S
C3158 H3182 0.950 . S
C3159 C3176 1.574 . S
C3159 C3178 1.368 . S
C3159 H3183 0.949 . S
H3160 C3164 0.949 . S
C3161 C3162 1.349 . S
C3161 C3163 1.327 . S
C3161 H3184 0.950 . S
C3162 C3161 1.349 . S
C3162 C3174 1.349 . S
C3163 C3161 1.327 . S
C3163 C3179 1.429 . S
C3163 H3185 0.950 . S
C3164 H3160 0.949 . S
C3164 C3172 1.574 . S
C3164 C3180 1.368 . S
H3165 C3173 0.950 . S
H3166 C3171 0.950 . S
H3167 C3172 0.949 . S
H3168 C3174 0.950 . S
H3169 C3175 0.950 . S
H3170 C3176 0.949 . S
C3171 H3166 0.950 . S
C3171 C3173 1.327 . S
C3171 C3177 1.429 . S
C3172 C3164 1.574 . S
C3172 H3167 0.949 . S
C3172 C3178 1.368 . S
C3173 C3157 1.349 . S
C3173 H3165 0.950 . S
C3173 C3171 1.327 . S
C3174 C3162 1.349 . S
C3174 H3168 0.950 . S
C3174 C3175 1.327 . S
C3175 H3169 0.950 . S
C3175 C3174 1.327 . S
C3175 C3179 1.429 . S
C3176 C3159 1.574 . S
C3176 H3170 0.949 . S
C3176 C3180 1.368 . S
C3177 C3158 1.429 . S
C3177 C3171 1.429 . S
C3177 C3178 1.523 . S
C3178 C3159 1.368 . S
C3178 C3172 1.368 . S
C3178 C3177 1.523 . S
C3179 C3163 1.429 . S
C3179 C3175 1.429 . S
C3179 C3180 1.523 . S
C3180 C3164 1.368 . S
C3180 C3176 1.368 . S
C3180 C3179 1.523 . S
H3181 C3156 0.950 . S
H3182 C3158 0.950 . S
H3183 C3159 0.949 . S
H3184 C3161 0.950 . S
H3185 C3163 0.950 . S
C3186 C3187 1.349 . S
C3186 C3188 1.327 . S
C3186 H3211 0.950 . S
C3187 C3186 1.349 . S
C3187 C3203 1.349 . S
C3188 C3186 1.327 . S
C3188 C3207 1.429 . S
C3188 H3212 0.950 . S
C3189 C3206 1.574 . S
C3189 C3208 1.368 . S
C3189 H3213 0.949 . S
H3190 C3194 0.949 . S
C3191 C3192 1.349 . S
C3191 C3193 1.327 . S
C3191 H3214 0.950 . S
C3192 C3191 1.349 . S
C3192 C3204 1.349 . S
C3193 C3191 1.327 . S
C3193 C3209 1.429 . S
C3193 H3215 0.950 . S
C3194 H3190 0.949 . S
C3194 C3202 1.574 . S
C3194 C3210 1.368 . S
H3195 C3203 0.950 . S
H3196 C3201 0.950 . S
H3197 C3202 0.949 . S
H3198 C3204 0.950 . S
H3199 C3205 0.950 . S
H3200 C3206 0.949 . S
C3201 H3196 0.950 . S
C3201 C3203 1.327 . S
C3201 C3207 1.429 . S
C3202 C3194 1.574 . S
C3202 H3197 0.949 . S
C3202 C3208 1.368 . S
C3203 C3187 1.349 . S
C3203 H3195 0.950 . S
C3203 C3201 1.327 . S
C3204 C3192 1.349 . S
C3204 H3198 0.950 . S
C3204 C3205 1.327 . S
C3205 H3199 0.950 . S
C3205 C3204 1.327 . S
C3205 C3209 1.429 . S
C3206 C3189 1.574 . S
C3206 H3200 0.949 . S
C3206 C3210 1.368 . S
C3207 C3188 1.429 . S
C3207 C3201 1.429 . S
C3207 C3208 1.523 . S
C3208 C3189 1.368 . S
C3208 C3202 1.368 . S
C3208 C3207 1.523 . S
C3209 C3193 1.429 . S
C3209 C3205 1.429 . S
C3209 C3210 1.523 . S
C3210 C3194 1.368 . S
C3210 C3206 1.368 . S
C3210 C3209 1.523 . S
H3211 C3186 0.950 . S
H3212 C3188 0.950 . S
H3213 C3189 0.949 . S
H3214 C3191 0.950 . S
H3215 C3193 0.950 . S
C3216 C3217 1.349 . S
C3216 C3218 1.327 . S
C3216 H3241 0.950 . S
C3217 C3216 1.349 . S
C3217 C3233 1.349 . S
C3218 C3216 1.327 . S
C3218 C3237 1.429 . S
C3218 H3242 0.950 . S
C3219 C3236 1.574 . S
C3219 C3238 1.368 . S
C3219 H3243 0.949 . S
H3220 C3224 0.949 . S
C3221 C3222 1.349 . S
C3221 C3223 1.327 . S
C3221 H3244 0.950 . S
C3222 C3221 1.349 . S
C3222 C3234 1.349 . S
C3223 C3221 1.327 . S
C3223 C3239 1.429 . S
C3223 H3245 0.950 . S
C3224 H3220 0.949 . S
C3224 C3232 1.574 . S
C3224 C3240 1.368 . S
H3225 C3233 0.950 . S
H3226 C3231 0.950 . S
H3227 C3232 0.949 . S
H3228 C3234 0.950 . S
H3229 C3235 0.950 . S
H3230 C3236 0.949 . S
C3231 H3226 0.950 . S
C3231 C3233 1.327 . S
C3231 C3237 1.429 . S
C3232 C3224 1.574 . S
C3232 H3227 0.949 . S
C3232 C3238 1.368 . S
C3233 C3217 1.349 . S
C3233 H3225 0.950 . S
C3233 C3231 1.327 . S
C3234 C3222 1.349 . S
C3234 H3228 0.950 . S
C3234 C3235 1.327 . S
C3235 H3229 0.950 . S
C3235 C3234 1.327 . S
C3235 C3239 1.429 . S
C3236 C3219 1.574 . S
C3236 H3230 0.949 . S
C3236 C3240 1.368 . S
C3237 C3218 1.429 . S
C3237 C3231 1.429 . S
C3237 C3238 1.523 . S
C3238 C3219 1.368 . S
C3238 C3232 1.368 . S
C3238 C3237 1.523 . S
C3239 C3223 1.429 . S
C3239 C3235 1.429 . S
C3239 C3240 1.523 . S
C3240 C3224 1.368 . S
C3240 C3236 1.368 . S
C3240 C3239 1.523 . S
H3241 C3216 0.950 . S
H3242 C3218 0.950 . S
H3243 C3219 0.949 . S
H3244 C3221 0.950 . S
H3245 C3223 0.950 . S
C3246 C3247 1.349 . S
C3246 C3248 1.327 . S
C3246 H3271 0.950 . S
C3247 C3246 1.349 . S
C3247 C3263 1.349 . S
C3248 C3246 1.327 . S
C3248 C3267 1.429 . S
C3248 H3272 0.950 . S
C3249 C3266 1.574 . S
C3249 C3268 1.368 . S
C3249 H3273 0.949 . S
H3250 C3254 0.949 . S
C3251 C3252 1.349 . S
C3251 C3253 1.327 . S
C3251 H3274 0.950 . S
C3252 C3251 1.349 . S
C3252 C3264 1.349 . S
C3253 C3251 1.327 . S
C3253 C3269 1.429 . S
C3253 H3275 0.950 . S
C3254 H3250 0.949 . S
C3254 C3262 1.574 . S
C3254 C3270 1.368 . S
H3255 C3263 0.950 . S
H3256 C3261 0.950 . S
H3257 C3262 0.949 . S
H3258 C3264 0.950 . S
H3259 C3265 0.950 . S
H3260 C3266 0.949 . S
C3261 H3256 0.950 . S
C3261 C3263 1.327 . S
C3261 C3267 1.429 . S
C3262 C3254 1.574 . S
C3262 H3257 0.949 . S
C3262 C3268 1.368 . S
C3263 C3247 1.349 . S
C3263 H3255 0.950 . S
C3263 C3261 1.327 . S
C3264 C3252 1.349 . S
C3264 H3258 0.950 . S
C3264 C3265 1.327 . S
C3265 H3259 0.950 . S
C3265 C3264 1.327 . S
C3265 C3269 1.429 . S
C3266 C3249 1.574 . S
C3266 H3260 0.949 . S
C3266 C3270 1.368 . S
C3267 C3248 1.429 . S
C3267 C3261 1.429 . S
C3267 C3268 1.523 . S
C3268 C3249 1.368 . S
C3268 C3262 1.368 . S
C3268 C3267 1.523 . S
C3269 C3253 1.429 . S
C3269 C3265 1.429 . S
C3269 C3270 1.523 . S
C3270 C3254 1.368 . S
C3270 C3266 1.368 . S
C3270 C3269 1.523 . S
H3271 C3246 0.950 . S
H3272 C3248 0.950 . S
H3273 C3249 0.949 . S
H3274 C3251 0.950 . S
H3275 C3253 0.950 . S
C3276 C3277 1.349 . S
C3276 C3278 1.327 . S
C3276 H3301 0.950 . S
C3277 C3276 1.349 . S
C3277 C3293 1.349 . S
C3278 C3276 1.327 . S
C3278 C3297 1.429 . S
C3278 H3302 0.950 . S
C3279 C3296 1.574 . S
C3279 C3298 1.368 . S
C3279 H3303 0.949 . S
H3280 C3284 0.949 . S
C3281 C3282 1.349 . S
C3281 C3283 1.327 . S
C3281 H3304 0.950 . S
C3282 C3281 1.349 . S
C3282 C3294 1.349 . S
C3283 C3281 1.327 . S
C3283 C3299 1.429 . S
C3283 H3305 0.950 . S
C3284 H3280 0.949 . S
C3284 C3292 1.574 . S
C3284 C3300 1.368 . S
H3285 C3293 0.950 . S
H3286 C3291 0.950 . S
H3287 C3292 0.949 . S
H3288 C3294 0.950 . S
H3289 C3295 0.950 . S
H3290 C3296 0.949 . S
C3291 H3286 0.950 . S
C3291 C3293 1.327 . S
C3291 C3297 1.429 . S
C3292 C3284 1.574 . S
C3292 H3287 0.949 . S
C3292 C3298 1.368 . S
C3293 C3277 1.349 . S
C3293 H3285 0.950 . S
C3293 C3291 1.327 . S
C3294 C3282 1.349 . S
C3294 H3288 0.950 . S
C3294 C3295 1.327 . S
C3295 H3289 0.950 . S
C3295 C3294 1.327 . S
C3295 C3299 1.429 . S
C3296 C3279 1.574 . S
C3296 H3290 0.949 . S
C3296 C3300 1.368 . S
C3297 C3278 1.429 . S
C3297 C3291 1.429 . S
C3297 C3298 1.523 . S
C3298 C3279 1.368 . S
C3298 C3292 1.368 . S
C3298 C3297 1.523 . S
C3299 C3283 1.429 . S
C3299 C3295 1.429 . S
C3299 C3300 1.523 . S
C3300 C3284 1.368 . S
C3300 C3296 1.368 . S
C3300 C3299 1.523 . S
H3301 C3276 0.950 . S
H3302 C3278 0.950 . S
H3303 C3279 0.949 . S
H3304 C3281 0.950 . S
H3305 C3283 0.950 . S
C3306 C3307 1.349 . S
C3306 C3308 1.327 . S
C3306 H3331 0.950 . S
C3307 C3306 1.349 . S
C3307 C3323 1.349 . S
C3308 C3306 1.327 . S
C3308 C3327 1.429 . S
C3308 H3332 0.950 . S
C3309 C3326 1.574 . S
C3309 C3328 1.368 . S
C3309 H3333 0.949 . S
H3310 C3314 0.949 . S
C3311 C3312 1.349 . S
C3311 C3313 1.327 . S
C3311 H3334 0.950 . S
C3312 C3311 1.349 . S
C3312 C3324 1.349 . S
C3313 C3311 1.327 . S
C3313 C3329 1.429 . S
C3313 H3335 0.950 . S
C3314 H3310 0.949 . S
C3314 C3322 1.574 . S
C3314 C3330 1.368 . S
H3315 C3323 0.950 . S
H3316 C3321 0.950 . S
H3317 C3322 0.949 . S
H3318 C3324 0.950 . S
H3319 C3325 0.950 . S
H3320 C3326 0.949 . S
C3321 H3316 0.950 . S
C3321 C3323 1.327 . S
C3321 C3327 1.429 . S
C3322 C3314 1.574 . S
C3322 H3317 0.949 . S
C3322 C3328 1.368 . S
C3323 C3307 1.349 . S
C3323 H3315 0.950 . S
C3323 C3321 1.327 . S
C3324 C3312 1.349 . S
C3324 H3318 0.950 . S
C3324 C3325 1.327 . S
C3325 H3319 0.950 . S
C3325 C3324 1.327 . S
C3325 C3329 1.429 . S
C3326 C3309 1.574 . S
C3326 H3320 0.949 . S
C3326 C3330 1.368 . S
C3327 C3308 1.429 . S
C3327 C3321 1.429 . S
C3327 C3328 1.523 . S
C3328 C3309 1.368 . S
C3328 C3322 1.368 . S
C3328 C3327 1.523 . S
C3329 C3313 1.429 . S
C3329 C3325 1.429 . S
C3329 C3330 1.523 . S
C3330 C3314 1.368 . S
C3330 C3326 1.368 . S
C3330 C3329 1.523 . S
H3331 C3306 0.950 . S
H3332 C3308 0.950 . S
H3333 C3309 0.949 . S
H3334 C3311 0.950 . S
H3335 C3313 0.950 . S
C3336 C3337 1.349 . S
C3336 C3338 1.327 . S
C3336 H3361 0.950 . S
C3337 C3336 1.349 . S
C3337 C3353 1.349 . S
C3338 C3336 1.327 . S
C3338 C3357 1.429 . S
C3338 H3362 0.950 . S
C3339 C3356 1.574 . S
C3339 C3358 1.368 . S
C3339 H3363 0.949 . S
H3340 C3344 0.949 . S
C3341 C3342 1.349 . S
C3341 C3343 1.327 . S
C3341 H3364 0.950 . S
C3342 C3341 1.349 . S
C3342 C3354 1.349 . S
C3343 C3341 1.327 . S
C3343 C3359 1.429 . S
C3343 H3365 0.950 . S
C3344 H3340 0.949 . S
C3344 C3352 1.574 . S
C3344 C3360 1.368 . S
H3345 C3353 0.950 . S
H3346 C3351 0.950 . S
H3347 C3352 0.949 . S
H3348 C3354 0.950 . S
H3349 C3355 0.950 . S
H3350 C3356 0.949 . S
C3351 H3346 0.950 . S
C3351 C3353 1.327 . S
C3351 C3357 1.429 . S
C3352 C3344 1.574 . S
C3352 H3347 0.949 . S
C3352 C3358 1.368 . S
C3353 C3337 1.349 . S
C3353 H3345 0.950 . S
C3353 C3351 1.327 . S
C3354 C3342 1.349 . S
C3354 H3348 0.950 . S
C3354 C3355 1.327 . S
C3355 H3349 0.950 . S
C3355 C3354 1.327 . S
C3355 C3359 1.429 . S
C3356 C3339 1.574 . S
C3356 H3350 0.949 . S
C3356 C3360 1.368 . S
C3357 C3338 1.429 . S
C3357 C3351 1.429 . S
C3357 C3358 1.523 . S
C3358 C3339 1.368 . S
C3358 C3352 1.368 . S
C3358 C3357 1.523 . S
C3359 C3343 1.429 . S
C3359 C3355 1.429 . S
C3359 C3360 1.523 . S
C3360 C3344 1.368 . S
C3360 C3356 1.368 . S
C3360 C3359 1.523 . S
H3361 C3336 0.950 . S
H3362 C3338 0.950 . S
H3363 C3339 0.949 . S
H3364 C3341 0.950 . S
H3365 C3343 0.950 . S
C3366 C3367 1.349 . S
C3366 C3368 1.327 . S
C3366 H3391 0.950 . S
C3367 C3366 1.349 . S
C3367 C3383 1.349 . S
C3368 C3366 1.327 . S
C3368 C3387 1.429 . S
C3368 H3392 0.950 . S
C3369 C3386 1.574 . S
C3369 C3388 1.368 . S
C3369 H3393 0.949 . S
H3370 C3374 0.949 . S
C3371 C3372 1.349 . S
C3371 C3373 1.327 . S
C3371 H3394 0.950 . S
C3372 C3371 1.349 . S
C3372 C3384 1.349 . S
C3373 C3371 1.327 . S
C3373 C3389 1.429 . S
C3373 H3395 0.950 . S
C3374 H3370 0.949 . S
C3374 C3382 1.574 . S
C3374 C3390 1.368 . S
H3375 C3383 0.950 . S
H3376 C3381 0.950 . S
H3377 C3382 0.949 . S
H3378 C3384 0.950 . S
H3379 C3385 0.950 . S
H3380 C3386 0.949 . S
C3381 H3376 0.950 . S
C3381 C3383 1.327 . S
C3381 C3387 1.429 . S
C3382 C3374 1.574 . S
C3382 H3377 0.949 . S
C3382 C3388 1.368 . S
C3383 C3367 1.349 . S
C3383 H3375 0.950 . S
C3383 C3381 1.327 . S
C3384 C3372 1.349 . S
C3384 H3378 0.950 . S
C3384 C3385 1.327 . S
C3385 H3379 0.950 . S
C3385 C3384 1.327 . S
C3385 C3389 1.429 . S
C3386 C3369 1.574 . S
C3386 H3380 0.949 . S
C3386 C3390 1.368 . S
C3387 C3368 1.429 . S
C3387 C3381 1.429 . S
C3387 C3388 1.523 . S
C3388 C3369 1.368 . S
C3388 C3382 1.368 . S
C3388 C3387 1.523 . S
C3389 C3373 1.429 . S
C3389 C3385 1.429 . S
C3389 C3390 1.523 . S
C3390 C3374 1.368 . S
C3390 C3386 1.368 . S
C3390 C3389 1.523 . S
H3391 C3366 0.950 . S
H3392 C3368 0.950 . S
H3393 C3369 0.949 . S
H3394 C3371 0.950 . S
H3395 C3373 0.950 . S
C3396 C3397 1.349 . S
C3396 C3398 1.327 . S
C3396 H3421 0.950 . S
C3397 C3396 1.349 . S
C3397 C3413 1.349 . S
C3398 C3396 1.327 . S
C3398 C3417 1.429 . S
C3398 H3422 0.950 . S
C3399 C3416 1.574 . S
C3399 C3418 1.368 . S
C3399 H3423 0.949 . S
H3400 C3404 0.949 . S
C3401 C3402 1.349 . S
C3401 C3403 1.327 . S
C3401 H3424 0.950 . S
C3402 C3401 1.349 . S
C3402 C3414 1.349 . S
C3403 C3401 1.327 . S
C3403 C3419 1.429 . S
C3403 H3425 0.950 . S
C3404 H3400 0.949 . S
C3404 C3412 1.574 . S
C3404 C3420 1.368 . S
H3405 C3413 0.950 . S
H3406 C3411 0.950 . S
H3407 C3412 0.949 . S
H3408 C3414 0.950 . S
H3409 C3415 0.950 . S
H3410 C3416 0.949 . S
C3411 H3406 0.950 . S
C3411 C3413 1.327 . S
C3411 C3417 1.429 . S
C3412 C3404 1.574 . S
C3412 H3407 0.949 . S
C3412 C3418 1.368 . S
C3413 C3397 1.349 . S
C3413 H3405 0.950 . S
C3413 C3411 1.327 . S
C3414 C3402 1.349 . S
C3414 H3408 0.950 . S
C3414 C3415 1.327 . S
C3415 H3409 0.950 . S
C3415 C3414 1.327 . S
C3415 C3419 1.429 . S
C3416 C3399 1.574 . S
C3416 H3410 0.949 . S
C3416 C3420 1.368 . S
C3417 C3398 1.429 . S
C3417 C3411 1.429 . S
C3417 C3418 1.523 . S
C3418 C3399 1.368 . S
C3418 C3412 1.368 . S
C3418 C3417 1.523 . S
C3419 C3403 1.429 . S
C3419 C3415 1.429 . S
C3419 C3420 1.523 . S
C3420 C3404 1.368 . S
C3420 C3416 1.368 . S
C3420 C3419 1.523 . S
H3421 C3396 0.950 . S
H3422 C3398 0.950 . S
H3423 C3399 0.949 . S
H3424 C3401 0.950 . S
H3425 C3403 0.950 . S
C3426 C3427 1.349 . S
C3426 C3428 1.327 . S
C3426 H3451 0.950 . S
C3427 C3426 1.349 . S
C3427 C3443 1.349 . S
C3428 C3426 1.327 . S
C3428 C3447 1.429 . S
C3428 H3452 0.950 . S
C3429 C3446 1.574 . S
C3429 C3448 1.368 . S
C3429 H3453 0.949 . S
H3430 C3434 0.949 . S
C3431 C3432 1.349 . S
C3431 C3433 1.327 . S
C3431 H3454 0.950 . S
C3432 C3431 1.349 . S
C3432 C3444 1.349 . S
C3433 C3431 1.327 . S
C3433 C3449 1.429 . S
C3433 H3455 0.950 . S
C3434 H3430 0.949 . S
C3434 C3442 1.574 . S
C3434 C3450 1.368 . S
H3435 C3443 0.950 . S
H3436 C3441 0.950 . S
H3437 C3442 0.949 . S
H3438 C3444 0.950 . S
H3439 C3445 0.950 . S
H3440 C3446 0.949 . S
C3441 H3436 0.950 . S
C3441 C3443 1.327 . S
C3441 C3447 1.429 . S
C3442 C3434 1.574 . S
C3442 H3437 0.949 . S
C3442 C3448 1.368 . S
C3443 C3427 1.349 . S
C3443 H3435 0.950 . S
C3443 C3441 1.327 . S
C3444 C3432 1.349 . S
C3444 H3438 0.950 . S
C3444 C3445 1.327 . S
C3445 H3439 0.950 . S
C3445 C3444 1.327 . S
C3445 C3449 1.429 . S
C3446 C3429 1.574 . S
C3446 H3440 0.949 . S
C3446 C3450 1.368 . S
C3447 C3428 1.429 . S
C3447 C3441 1.429 . S
C3447 C3448 1.523 . S
C3448 C3429 1.368 . S
C3448 C3442 1.368 . S
C3448 C3447 1.523 . S
C3449 C3433 1.429 . S
C3449 C3445 1.429 . S
C3449 C3450 1.523 . S
C3450 C3434 1.368 . S
C3450 C3446 1.368 . S
C3450 C3449 1.523 . S
H3451 C3426 0.950 . S
H3452 C3428 0.950 . S
H3453 C3429 0.949 . S
H3454 C3431 0.950 . S
H3455 C3433 0.950 . S
C1297 C194 1.509 . S
C1302 C14 1.509 . S
C1327 C122 1.509 . S
C1332 C50 1.509 . S
C1357 C86 1.509 . S
C1362 C158 1.510 . S
C1387 C230 1.509 . S
C1392 C410 1.509 . S
C1417 C266 1.509 . S
C1422 C338 1.509 . S
C1447 C374 1.509 . S
C1452 C302 1.509 . S
C1477 C446 1.509 . S
C1482 C626 1.509 1_556 S
C1507 C482 1.509 . S
C1512 C554 1.509 1_556 S
C1537 C518 1.509 . S
C1542 C590 1.509 1_556 S
C1567 C842 1.509 . S
C1572 C662 1.509 1_556 S
C1597 C698 1.509 1_556 S
C1602 C770 1.509 . S
C1627 C806 1.509 . S
C1632 C734 1.509 1_556 S
C1657 C1058 1.509 . S
C1662 C878 1.509 1_554 S
C1687 C986 1.509 . S
C1692 C914 1.509 1_554 S
C1717 C1022 1.509 . S
C1722 C950 1.509 1_554 S
C1747 C1094 1.509 . S
C1752 C1274 1.509 1_554 S
C1777 C1130 1.509 . S
C1782 C1202 1.509 1_554 S
C1807 C1166 1.509 . S
C1812 C1238 1.509 1_554 S
C1837 C184 1.236 . S
C1842 C4 1.236 . S
C1867 C40 1.236 . S
C1872 C112 1.236 . S
C1897 C148 1.235 . S
C1902 C76 1.235 . S
C1927 C220 1.236 . S
C1932 C400 1.236 . S
C1957 C256 1.236 . S
C1962 C328 1.236 . S
C1987 C364 1.235 . S
C1992 C292 1.235 . S
C2017 C436 1.236 . S
C2022 C616 1.236 . S
C2047 C544 1.235 . S
C2052 C472 1.235 . S
C2077 C580 1.235 . S
C2082 C508 1.235 . S
C2107 C652 1.235 . S
C2112 C832 1.235 . S
C2137 C688 1.236 . S
C2142 C760 1.236 . S
C2167 C796 1.235 . S
C2172 C724 1.235 . S
C2197 C1048 1.235 . S
C2202 C868 1.235 . S
C2227 C904 1.236 . S
C2232 C976 1.236 . S
C2257 C940 1.235 . S
C2262 C1012 1.235 . S
C2287 C1264 1.236 . S
C2292 C1084 1.236 . S
C2317 C1192 1.235 . S
C2322 C1120 1.235 . S
C2347 C1228 1.235 . S
C2352 C1156 1.235 . S
C2377 C578 1.603 . S
C2382 C2 1.603 . S
C2407 C614 1.604 . S
C2412 C38 1.604 . S
C2437 C542 1.604 . S
C2442 C74 1.604 . S
C2467 C110 1.604 . S
C2472 C938 1.604 . S
C2497 C146 1.603 . S
C2502 C866 1.603 . S
C2527 C182 1.604 . S
C2532 C902 1.604 . S
C2557 C218 1.603 . S
C2562 C1226 1.604 . S
C2587 C254 1.604 . S
C2592 C1262 1.604 . S
C2617 C290 1.603 . S
C2622 C1190 1.603 . S
C2647 C326 1.604 . S
C2652 C722 1.604 . S
C2677 C650 1.604 . S
C2682 C362 1.604 . S
C2707 C686 1.604 . S
C2712 C398 1.604 . S
C2737 C1010 1.604 . S
C2742 C434 1.604 . S
C2767 C470 1.604 . S
C2772 C1046 1.604 . S
C2797 C506 1.604 . S
C2802 C974 1.604 . S
C2827 C758 1.603 . S
C2832 C1154 1.603 . S
C2857 C794 1.604 . S
C2862 C1082 1.604 . S
C2887 C1118 1.604 . S
C2892 C830 1.604 . S
C2917 C3 1.353 . S
C2922 C363 1.353 . S
C2947 C399 1.353 . S
C2952 C39 1.353 . S
C2977 C327 1.352 . S
C2982 C75 1.352 . S
C3007 C111 1.352 . S
C3012 C291 1.352 . S
C3037 C147 1.352 . S
C3042 C219 1.352 . S
C3067 C183 1.353 . S
C3072 C255 1.353 . S
C3097 C435 1.352 . S
C3102 C795 1.352 . S
C3127 C831 1.353 . S
C3132 C471 1.353 . S
C3157 C759 1.352 . S
C3162 C507 1.352 . S
C3187 C543 1.352 . S
C3192 C723 1.352 . S
C3217 C579 1.352 . S
C3222 C651 1.352 . S
C3247 C687 1.353 . S
C3252 C615 1.353 . S
C3277 C867 1.352 . S
C3282 C1227 1.352 . S
C3307 C1263 1.353 . S
C3312 C903 1.353 . S
C3337 C939 1.353 . S
C3342 C1191 1.353 . S
C3367 C975 1.352 . S
C3372 C1155 1.352 . S
C3397 C1083 1.353 . S
C3402 C1011 1.353 . S
C3427 C1047 1.353 . S
C3432 C1119 1.353 . S
