# Generated by pormake.
# Topology afw, (4)-cn, num edge types: 1
# Building blocks:
#     Node 0, Type 0, BuildingBlock: ESEHIV_clean_sbu_0, # of connection points: 4
#     Node 1, Type 0, BuildingBlock: ESEHIV_clean_sbu_0, # of connection points: 4
#     Node 2, Type 0, BuildingBlock: ESEHIV_clean_sbu_0, # of connection points: 4
#     Node 3, Type 0, BuildingBlock: ESEHIV_clean_sbu_0, # of connection points: 4
#     Node 4, Type 0, BuildingBlock: ESEHIV_clean_sbu_0, # of connection points: 4
#     Node 5, Type 0, BuildingBlock: ESEHIV_clean_sbu_0, # of connection points: 4
#     Node 6, Type 0, BuildingBlock: ESEHIV_clean_sbu_0, # of connection points: 4
#     Node 7, Type 0, BuildingBlock: ESEHIV_clean_sbu_0, # of connection points: 4
#     Node 8, Type 0, BuildingBlock: ESEHIV_clean_sbu_0, # of connection points: 4
#     Edge 9, Type (0, 0), BuildingBlock: AJUNOK_clean_linker_0, # of connection points: 2
#     Edge 10, Type (0, 0), BuildingBlock: AJUNOK_clean_linker_0, # of connection points: 2
#     Edge 11, Type (0, 0), BuildingBlock: AJUNOK_clean_linker_0, # of connection points: 2
#     Edge 12, Type (0, 0), BuildingBlock: AJUNOK_clean_linker_0, # of connection points: 2
#     Edge 13, Type (0, 0), BuildingBlock: AJUNOK_clean_linker_0, # of connection points: 2
#     Edge 14, Type (0, 0), BuildingBlock: AJUNOK_clean_linker_0, # of connection points: 2
#     Edge 15, Type (0, 0), BuildingBlock: AJUNOK_clean_linker_0, # of connection points: 2
#     Edge 16, Type (0, 0), BuildingBlock: AJUNOK_clean_linker_0, # of connection points: 2
#     Edge 17, Type (0, 0), BuildingBlock: AJUNOK_clean_linker_0, # of connection points: 2
#     Edge 18, Type (0, 0), BuildingBlock: AJUNOK_clean_linker_0, # of connection points: 2
#     Edge 19, Type (0, 0), BuildingBlock: AJUNOK_clean_linker_0, # of connection points: 2
#     Edge 20, Type (0, 0), BuildingBlock: AJUNOK_clean_linker_0, # of connection points: 2
#     Edge 21, Type (0, 0), BuildingBlock: AJUNOK_clean_linker_0, # of connection points: 2
#     Edge 22, Type (0, 0), BuildingBlock: AJUNOK_clean_linker_0, # of connection points: 2
#     Edge 23, Type (0, 0), BuildingBlock: AJUNOK_clean_linker_0, # of connection points: 2
#     Edge 24, Type (0, 0), BuildingBlock: AJUNOK_clean_linker_0, # of connection points: 2
#     Edge 25, Type (0, 0), BuildingBlock: AJUNOK_clean_linker_0, # of connection points: 2
#     Edge 26, Type (0, 0), BuildingBlock: AJUNOK_clean_linker_0, # of connection points: 2
# Relax obj value: 0.057
# Max RMSD: 0.176
# Mean RMSD: 0.160
data_MOF--net-afw--node1-ESEHIV_clean_sbu_0--edge1-AJUNOK_clean_linker_0
_symmetry_space_group_name_H-M    P1
_symmetry_Int_Tables_number       1
_symmetry_cell_setting            triclinic
loop_
_symmetry_equiv_pos_as_xyz
'x, y, z'
_cell_length_a     36.460521
_cell_length_b     41.191397
_cell_length_c     16.125411
_cell_angle_alpha  98.013166
_cell_angle_beta   92.489487
_cell_angle_gamma 117.6224
loop_
_atom_site_label
_atom_site_type_symbol
_atom_site_fract_x
_atom_site_fract_y
_atom_site_fract_z
_atom_type_partial_charge
Cu0 Cu 0.04919 0.20951 0.05136 0.0
N1 N 1.00675 0.16134 0.01043 0.0
N2 N 0.96893 0.10058 0.01277 0.0
C3 C 1.00619 0.13134 0.03556 0.0
C4 C 0.94486 0.11173 0.97195 0.0
C5 C 0.96829 0.14933 0.97072 0.0
O6 O 0.09774 0.20344 0.08171 0.0
C7 C 0.04433 0.26352 0.17416 0.0
O8 O 0.08043 0.28674 0.1536 0.0
H9 H 1.03151 0.13288 0.07634 0.0
H10 H 0.95709 0.167 0.94803 0.0
N11 N 0.06074 0.24182 0.97343 0.0
N12 N 0.09232 0.29644 0.92937 0.0
C13 C 0.09586 0.27457 0.98068 0.0
C14 C 1.03438 0.24256 0.9135 0.0
C15 C 0.05393 0.27615 0.88572 0.0
C16 C 0.11935 0.20117 0.02334 0.0
O17 O 0.11068 0.20659 0.94826 0.0
H18 H 0.12276 0.28291 0.02612 0.0
H19 H 1.00233 0.22138 0.89522 0.0
O20 O 1.02872 0.2289 0.14469 0.0
H21 H 0.91216 0.09439 0.94829 0.0
H22 H 0.04003 0.2859 0.84116 0.0
Cu23 Cu 0.90629 0.85964 0.08972 0.0
N24 N 0.90584 0.9039 0.13068 0.0
N25 N 0.91789 0.96212 0.12935 0.0
C26 C 0.92457 0.93401 0.09419 0.0
C27 C 0.89337 0.94898 0.19002 0.0
C28 C 0.88607 0.91291 0.19095 0.0
O29 O 0.96059 0.87487 0.05102 0.0
C30 C 0.82339 0.81802 0.02071 0.0
O31 O 0.81855 0.82252 0.10104 0.0
H32 H 0.94127 0.93455 0.04008 0.0
H33 H 0.86689 0.89433 0.23089 0.0
N34 N 0.89832 0.82859 0.1683 0.0
N35 N 0.87634 0.77457 0.21369 0.0
C36 C 0.88232 0.7915 0.14609 0.0
C37 C 0.90329 0.8357 0.2532 0.0
C38 C 0.88996 0.80226 0.28151 0.0
C39 C 0.99274 0.89443 0.10521 0.0
O40 O 0.98754 0.89951 0.18521 0.0
H41 H 0.87491 0.77724 0.08115 0.0
H42 H 0.91491 0.86302 0.29155 0.0
O43 O 0.86026 0.83229 -9e-05 0.0
H44 H 0.88124 0.96417 0.23002 0.0
H45 H 0.88917 0.79847 0.34663 0.0
Cu46 Cu 0.24088 0.03963 0.02766 0.0
N47 N 0.25129 1.01332 0.93576 0.0
N48 N 0.27482 0.9782 0.86262 0.0
C49 C 0.27549 0.99671 0.93888 0.0
C50 C 0.24918 0.98324 0.80921 0.0
C51 C 0.23488 1.00509 0.85442 0.0
O52 O 0.29104 0.06316 0.10797 0.0
C53 C 0.15678 0.99146 0.01537 0.0
O54 O 0.15967 1.00255 0.94233 0.0
H55 H 0.29218 0.997 -0.0039 0.0
H56 H 0.2135 1.01385 0.82981 0.0
N57 N 0.23316 0.07795 -0.00542 0.0
N58 N 0.21421 0.12238 -0.00696 0.0
C59 C 0.21406 0.09585 0.03413 0.0
C60 C 0.24577 0.09354 0.92626 0.0
C61 C 0.23379 0.12062 0.92461 0.0
C62 C 0.30601 0.04671 0.14837 0.0
O63 O 0.28335 1.01092 0.14829 0.0
H64 H 0.2003 0.08947 0.0918 0.0
H65 H 0.26209 0.08547 0.88023 0.0
O66 O 0.18982 1.00517 0.06761 0.0
H67 H 0.24115 0.9717 0.74243 0.0
H68 H 0.23795 0.13672 0.87495 0.0
Cu69 Cu 0.76448 0.53248 0.34146 0.0
N70 N 0.71871 0.48711 0.29234 0.0
N71 N 0.66799 0.42948 0.29515 0.0
C72 C 0.70933 0.45353 0.31154 0.0
C73 C 0.65115 0.44842 0.26093 0.0
C74 C 0.68236 0.48386 0.25975 0.0
O75 O 0.81018 0.52379 0.379 0.0
C76 C 0.75605 0.58341 0.47667 0.0
O77 O 0.79673 0.60433 0.4907 0.0
H78 H 0.7321 0.44767 0.34133 0.0
H79 H 0.67814 0.50684 0.24503 0.0
N80 N 0.78167 0.56467 0.2637 0.0
N81 N 0.80628 0.61762 0.21253 0.0
C82 C 0.80063 0.60212 0.28233 0.0
C83 C 0.77543 0.55608 0.17889 0.0
C84 C 0.79066 0.58876 0.14703 0.0
C85 C 0.8078 0.50392 0.43427 0.0
O86 O 0.77549 0.49262 0.47684 0.0
H87 H 0.80912 0.61786 0.34575 0.0
H88 H 0.76025 0.52804 0.14289 0.0
O89 O 0.74051 0.55247 0.42596 0.0
H90 H 0.61812 0.43863 0.24527 0.0
H91 H 0.7903 0.59105 0.08099 0.0
Cu92 Cu 0.54115 0.18568 0.41216 0.0
N93 N 0.54568 0.23315 0.4279 0.0
N94 N 0.56867 0.29163 0.40759 0.0
C95 C 0.57916 0.26502 0.41883 0.0
C96 C 0.5272 0.27617 0.41049 0.0
C97 C 0.51313 0.24013 0.42339 0.0
O98 O 0.5959 0.18986 0.4023 0.0
C99 C 0.48185 0.12265 0.28738 0.0
O100 O 0.49983 0.10345 0.30985 0.0
H101 H 0.60979 0.26767 0.41262 0.0
H102 H 0.48091 0.21939 0.42171 0.0
N103 N 0.52433 0.16316 0.50614 0.0
N104 N 0.50094 0.11343 0.56969 0.0
C105 C 0.49487 0.12765 0.50304 0.0
C106 C 0.54909 0.17229 0.57901 0.0
C107 C 0.53482 0.14173 0.6183 0.0
C108 C 0.6217 0.20628 0.35255 0.0
O109 O 0.60925 0.21679 0.28851 0.0
H110 H 0.47178 0.11134 0.44918 0.0
H111 H 0.57844 0.19761 0.5968 0.0
O112 O 0.49796 0.15718 0.31778 0.0
H113 H 0.50812 0.28922 0.3987 0.0
H114 H 0.55122 0.13933 0.67273 0.0
Cu115 Cu 0.91277 0.36074 0.43527 0.0
N116 N 0.95612 0.3853 0.52378 0.0
N117 N 1.02156 0.41529 0.58761 0.0
C118 C 0.99603 0.39322 0.51743 0.0
C119 C 0.99687 0.4214 0.64062 0.0
C120 C 0.95635 0.40274 0.60099 0.0
O121 O 0.9353 0.34146 0.34549 0.0
C122 C 0.91035 0.42941 0.42534 0.0
O123 O 0.95005 0.44728 0.45546 0.0
H124 H 1.00657 0.38459 0.46094 0.0
H125 H 0.9293 0.40303 0.62528 0.0
N126 N 0.86635 0.32086 0.46422 0.0
N127 N 0.79969 0.27727 0.45637 0.0
C128 C 0.82739 0.30658 0.42473 0.0
C129 C 0.86345 0.30008 0.52341 0.0
C130 C 0.82244 0.27293 0.51821 0.0
C131 C 0.94249 0.31511 0.35977 0.0
O132 O 0.9316 0.30147 0.42888 0.0
H133 H 0.81952 0.31789 0.37426 0.0
H134 H 0.88941 0.30402 0.56632 0.0
O135 O 0.89169 0.39398 0.40686 0.0
H136 H 1.0075 0.43865 0.70278 0.0
H137 H 0.81073 0.2513 0.55602 0.0
Cu138 Cu 0.41546 0.87493 0.70588 0.0
N139 N 0.37794 0.82507 0.66358 0.0
N140 N 0.33915 0.7657 0.67707 0.0
C141 C 0.35288 0.80173 0.71151 0.0
C142 C 0.35515 0.76647 0.60293 0.0
C143 C 0.37937 0.80318 0.59509 0.0
O144 O 0.46633 0.87469 0.74588 0.0
C145 C 0.35377 0.88921 0.7563 0.0
O146 O 0.33774 0.86867 0.68095 0.0
H147 H 0.34753 0.81128 0.77347 0.0
H148 H 0.39963 0.8131 0.54711 0.0
N149 N 0.42844 0.90536 0.62483 0.0
N150 N 0.4483 0.95929 0.57947 0.0
C151 C 0.42888 0.93853 0.63721 0.0
C152 C 0.4477 0.90464 0.55591 0.0
C153 C 0.4597 0.93781 0.52729 0.0
C154 C 0.46484 0.85135 0.79137 0.0
O155 O 0.43221 0.83605 0.83171 0.0
H156 H 0.41657 0.94774 0.68981 0.0
H157 H 0.45494 0.88271 0.53165 0.0
O158 O 0.38946 0.89462 0.78659 0.0
H159 H 0.35266 0.74238 0.56113 0.0
H160 H 0.47772 0.94639 0.47539 0.0
Cu161 Cu 0.26353 0.5312 0.79072 0.0
N162 N 0.26524 0.57655 0.82872 0.0
N163 N 0.27487 0.63365 0.82228 0.0
C164 C 0.27459 0.60284 0.78073 0.0
C165 C 0.26491 0.62636 0.89975 0.0
C166 C 0.25886 0.59088 0.90348 0.0
O167 O 0.32071 0.54308 0.77545 0.0
C168 C 0.1997 0.47535 0.66201 0.0
O169 O 0.21256 0.4518 0.67944 0.0
H170 H 0.28215 0.59976 0.71696 0.0
H171 H 0.25077 0.57671 0.95683 0.0
N172 N 0.24599 0.50015 0.87072 0.0
N173 N 0.20939 0.44877 0.92418 0.0
C174 C 0.20875 0.46971 0.86743 0.0
C175 C 0.27079 0.49886 0.93298 0.0
C176 C 0.24832 0.46718 0.96608 0.0
C177 C 0.33958 0.55747 0.71501 0.0
O178 O 0.31823 0.55985 0.65055 0.0
H179 H 0.18225 0.46194 0.82156 0.0
H180 H 0.30372 0.51814 0.94882 0.0
O181 O 0.22209 0.50982 0.69187 0.0
H182 H 0.26216 0.64518 0.94996 0.0
H183 H 0.26066 0.45701 0.01252 0.0
Cu184 Cu 0.59583 0.697 0.69652 0.0
N185 N 0.61694 0.67947 0.60788 0.0
N186 N 0.65053 0.65153 0.54373 0.0
C187 C 0.6466 0.66897 0.61719 0.0
C188 C 0.62242 0.65111 0.48573 0.0
C189 C 0.60164 0.66835 0.52562 0.0
O190 O 0.63919 0.71746 0.79214 0.0
C191 C 0.51964 0.6531 0.76528 0.0
O192 O 0.5347 0.67865 0.83405 0.0
H193 H 0.66315 0.67193 0.67749 0.0
H194 H 0.57581 0.6709 0.49762 0.0
N195 N 0.58473 0.73507 0.67388 0.0
N196 N 0.56011 0.77592 0.69129 0.0
C197 C 0.5678 0.75137 0.72607 0.0
C198 C 0.58865 0.75023 0.60394 0.0
C199 C 0.57358 0.77555 0.61463 0.0
C200 C 0.67358 0.74321 0.77659 0.0
O201 O 0.67475 0.75401 0.70339 0.0
H202 H 0.56112 0.74513 0.78832 0.0
H203 H 0.60068 0.74279 0.54845 0.0
O204 O 0.54242 0.65519 0.70666 0.0
H205 H 0.61645 0.63821 0.4199 0.0
H206 H 0.57125 0.7914 0.56837 0.0
C207 C 0.15748 0.13188 0.05205 0.0
C208 C 0.19441 0.14538 0.01326 0.0
C209 C 0.13483 0.15173 0.0619 0.0
C210 C 0.14815 0.18556 0.03258 0.0
H211 H 0.14474 0.10489 0.07084 0.0
H212 H 0.10536 0.13931 0.08745 0.0
S213 S 0.2461 0.23626 0.94084 0.0
N214 N 0.24622 0.19765 0.95754 0.0
N215 N 0.20251 0.23376 0.97224 0.0
C216 C 0.18615 0.20046 -0.00126 0.0
C217 C 0.20958 0.18069 -0.00995 0.0
C218 C 0.90453 1.01298 0.09744 0.0
C219 C 0.93151 0.99739 0.102 0.0
C220 C 0.91652 0.04623 0.06635 0.0
C221 C 0.95611 0.06529 0.03964 0.0
H222 H 0.87369 0.99903 0.11669 0.0
H223 H 0.89495 0.05745 0.06467 0.0
S224 S 0.03855 0.03639 0.04005 0.0
N225 N 0.99989 1.00393 0.07878 0.0
N226 N 1.02207 0.06591 0.01918 0.0
C227 C 0.98339 0.05002 0.04418 0.0
C228 C 0.97118 1.0162 0.07557 0.0
C229 C 0.07015 0.93472 0.14029 0.0
C230 C 1.03481 0.91576 0.07893 0.0
C231 C 0.10965 0.95835 0.11914 0.0
C232 C 0.11541 0.96429 0.03583 0.0
H233 H 0.06724 0.93188 0.20578 0.0
H234 H 0.1356 0.97278 0.16896 0.0
S235 S 1.03355 0.91972 0.85029 0.0
N236 N 1.00872 0.90338 0.93041 0.0
N237 N 0.08256 0.94762 0.89054 0.0
C238 C 0.08056 0.94465 0.97334 0.0
C239 C 0.04042 0.92042 -0.00515 0.0
C240 C 0.84371 0.43144 0.44366 0.0
C241 C 0.88538 0.44946 0.42649 0.0
C242 C 0.81958 0.44987 0.44941 0.0
C243 C 0.83574 0.48683 0.43629 0.0
H244 H 0.82968 0.40292 0.45397 0.0
H245 H 0.78759 0.43461 0.46199 0.0
S246 S 0.94294 0.54658 0.38938 0.0
N247 N 0.94201 0.5067 0.39791 0.0
N248 N 0.89604 0.54091 0.40544 0.0
C249 C 0.87728 0.5052 0.41875 0.0
C250 C 0.90225 0.48667 0.41484 0.0
C251 C 0.58064 0.33454 0.30726 0.0
C252 C 0.59448 0.32594 0.37963 0.0
C253 C 0.60548 0.36776 0.27877 0.0
C254 C 0.6449 0.39404 0.32225 0.0
H255 H 0.55052 0.3152 0.27197 0.0
H256 H 0.59357 0.37299 0.2223 0.0
S257 S 0.69395 0.38465 0.51866 0.0
N258 N 0.64935 0.34565 0.49465 0.0
N259 N 0.69552 0.40903 0.4446 0.0
C260 C 0.65894 0.38555 0.3953 0.0
C261 C 0.63383 0.3513 0.4231 0.0
C262 C 0.69595 0.23518 0.3206 0.0
C263 C 0.66701 0.22024 0.37765 0.0
C264 C 0.7391 0.25265 0.34612 0.0
C265 C 0.7552 0.25629 0.43 0.0
H266 H 0.68525 0.234 0.25598 0.0
H267 H 0.76003 0.26381 0.29982 0.0
S268 S 0.69275 0.22226 0.60477 0.0
N269 N 0.65777 0.20971 0.52212 0.0
N270 N 0.73846 0.24357 0.57015 0.0
C271 C 0.72661 0.24084 0.48733 0.0
C272 C 0.68269 0.22262 0.46117 0.0
C273 C 0.52741 0.85045 0.73411 0.0
C274 C 0.49278 0.83421 0.77866 0.0
C275 C 0.54991 0.83171 0.70789 0.0
C276 C 0.53881 0.79599 0.72515 0.0
H277 H 0.53646 0.87739 0.7168 0.0
H278 H 0.5758 0.84503 0.67249 0.0
S279 S 0.45091 0.7409 0.84002 0.0
N280 N 0.4493 0.78031 0.84066 0.0
N281 N 0.49087 0.74502 0.78971 0.0
C282 C 0.50507 0.77982 0.77175 0.0
C283 C 0.48231 0.79896 0.79897 0.0
C284 C 0.29208 0.69861 0.66882 0.0
C285 C 0.31946 0.73363 0.7175 0.0
C286 C 0.2761 0.6663 0.7045 0.0
C287 C 0.28696 0.66771 0.79027 0.0
H288 H 0.28357 0.69612 0.60218 0.0
H289 H 0.25575 0.63982 0.66423 0.0
S290 S 0.3579 0.75222 0.94543 0.0
N291 N 0.35663 0.76762 0.85676 0.0
N292 N 0.32668 0.70686 0.92307 0.0
C293 C 0.31337 0.70258 0.84033 0.0
C294 C 0.32964 0.73555 0.80413 0.0
C295 C 0.40828 0.59232 0.8071 0.0
C296 C 0.38597 0.57772 0.72547 0.0
C297 C 0.45162 0.61582 0.81944 0.0
C298 C 0.4746 0.62505 0.75071 0.0
H299 H 0.39195 0.58691 0.86225 0.0
H300 H 0.46708 0.62736 0.88345 0.0
S301 S 0.43146 0.59193 0.52394 0.0
N302 N 0.39042 0.57286 0.57484 0.0
N303 N 0.47181 0.61618 0.59752 0.0
C304 C 0.45291 0.60929 0.66862 0.0
C305 C 0.40866 0.5859 0.65617 0.0
C306 C 0.12755 0.34871 0.85328 0.0
C307 C 0.12099 0.33507 0.92946 0.0
C308 C 0.1558 0.38609 0.85202 0.0
C309 C 0.17835 0.41121 0.92707 0.0
H310 H 0.11138 0.33013 0.79413 0.0
H311 H 0.16083 0.39511 0.79167 0.0
S312 S 0.16815 0.39077 0.14393 0.0
N313 N 0.13648 0.35061 0.08245 0.0
N314 N 0.18943 0.42065 0.07981 0.0
C315 C 0.17098 0.39823 0.00376 0.0
C316 C 0.14233 0.36024 0.00507 0.0
C317 C 0.74619 0.77787 0.98225 0.0
C318 C 0.78604 0.79737 0.95648 0.0
C319 C 0.70999 0.75959 0.92378 0.0
C320 C 0.71215 0.76044 0.83731 0.0
H321 H 0.74276 0.7769 0.04838 0.0
H322 H 0.68006 0.74549 0.94679 0.0
S323 S 0.80892 0.80509 0.73589 0.0
N324 N 0.82544 0.81453 0.83759 0.0
N325 N 0.75767 0.78042 0.72793 0.0
C326 C 0.75186 0.77893 0.81033 0.0
C327 C 0.78871 0.7973 0.86977 0.0
C328 C 0.29162 0.899 0.76429 0.0
C329 C 0.33328 0.9103 0.79512 0.0
C330 C 0.2727 0.92108 0.7876 0.0
C331 C 0.29448 0.95524 0.84327 0.0
H332 H 0.27366 0.87325 0.71965 0.0
H333 H 0.24082 0.91148 0.76128 0.0
S334 S 0.40364 0.99737 0.94454 0.0
N335 N 0.39543 0.95772 0.88649 0.0
N336 N 0.3595 0.99918 0.93081 0.0
C337 C 0.3356 0.9664 0.87734 0.0
C338 C 0.35508 0.94392 0.85325 0.0
C339 C 0.41331 0.06473 0.24018 0.0
C340 C 0.43826 0.10334 0.24448 0.0
C341 C 0.37053 0.04681 0.21058 0.0
C342 C 0.35089 0.0667 0.18382 0.0
H343 H 0.4266 0.04827 0.26192 0.0
H344 H 0.35281 1.01706 0.2086 0.0
S345 S 0.40263 0.16817 0.17908 0.0
N346 N 0.44033 0.16068 0.21646 0.0
N347 N 0.36027 0.12726 0.16183 0.0
C348 C 0.37568 0.10525 0.18645 0.0
C349 C 0.41919 0.12344 0.21635 0.0
C350 C 0.98679 0.2539 0.26262 0.0
C351 C 1.01919 0.27771 0.2214 0.0
C352 C 0.9615 0.2661 0.3051 0.0
C353 C 0.96697 0.30233 0.30659 0.0
H354 H 0.98117 0.22568 0.26292 0.0
H355 H 0.9375 0.24695 0.33743 0.0
S356 S 0.04639 0.37533 0.20606 0.0
N357 N 0.05485 0.33922 0.18325 0.0
N358 N 1.0068 0.36185 0.26237 0.0
C359 C 0.99866 0.32627 0.26429 0.0
C360 C 1.02495 0.31406 0.22209 0.0
C361 C 0.85743 0.68304 0.27074 0.0
C362 C 0.8239 0.65686 0.21047 0.0
C363 C 0.87421 0.72144 0.27195 0.0
C364 C 0.85811 0.73508 0.21287 0.0
H365 H 0.87103 0.67371 0.31688 0.0
H366 H 0.90036 0.7406 0.3186 0.0
S367 S 0.76748 0.67849 0.04815 0.0
N368 N 0.77333 0.64752 0.09419 0.0
N369 N 0.80473 0.71958 0.09652 0.0
C370 C 0.82406 0.70927 0.15332 0.0
C371 C 0.80702 0.6702 0.15204 0.0
C372 C 0.12872 0.4231 0.60061 0.0
C373 C 0.15487 0.46138 0.63136 0.0
C374 C 0.08524 0.40832 0.58432 0.0
C375 C 0.06626 0.43111 0.60002 0.0
H376 H 0.14176 0.40418 0.59117 0.0
H377 H 0.06612 0.37867 0.56215 0.0
S378 S 0.11991 0.53331 0.67207 0.0
N379 N 0.15793 0.52216 0.66981 0.0
N380 N 0.0764 0.49382 0.64108 0.0
C381 C 0.09182 0.46943 0.62752 0.0
C382 C 0.13606 0.48471 0.64253 0.0
C383 C 0.74424 0.63568 0.54786 0.0
C384 C 0.72774 0.5988 0.50373 0.0
C385 C 0.71868 0.65253 0.56253 0.0
C386 C 0.67593 0.63337 0.53232 0.0
H387 H 0.77732 0.65209 0.56911 0.0
H388 H 0.73261 0.68114 0.59519 0.0
S389 S 0.61589 0.53526 0.42299 0.0
N390 N 0.66441 0.54263 0.43764 0.0
N391 N 0.61732 0.57492 0.46385 0.0
C392 C 0.65865 0.59621 0.49155 0.0
C393 C 0.6843 0.57876 0.47777 0.0
C394 C 0.46124 1.01036 0.50168 0.0
C395 C 0.45888 0.99768 0.57876 0.0
C396 C 0.47347 0.04783 0.49907 0.0
C397 C 0.48394 0.07432 0.57362 0.0
H398 H 0.45393 0.99118 0.44274 0.0
H399 H 0.47612 0.05621 0.43802 0.0
S400 S 0.48183 0.05562 0.79213 0.0
N401 N 0.46802 1.01492 0.73209 0.0
N402 N 0.48932 0.08491 0.72653 0.0
C403 C 0.48068 0.06189 0.6511 0.0
C404 C 0.46851 0.02374 0.65391 0.0
loop_
_geom_bond_atom_site_label_1
_geom_bond_atom_site_label_2
_geom_bond_distance
_geom_bond_site_symmetry_2
_ccdc_geom_bond_type
Cu0 N1 1.999 1_455 S
Cu0 O6 1.974 . S
Cu0 N11 1.985 . S
Cu0 O20 1.959 1_455 S
N1 Cu0 1.999 1_655 S
N1 C3 1.263 . S
N1 C5 1.389 . S
N2 C3 1.358 . S
N2 C4 1.400 . S
C3 N1 1.263 . S
C3 N2 1.358 . S
C3 H9 0.930 1_655 S
C4 N2 1.400 . S
C4 C5 1.351 . S
C4 H21 0.930 . S
C5 N1 1.389 . S
C5 C4 1.351 . S
C5 H10 0.930 . S
O6 Cu0 1.974 . S
O6 C16 1.282 . S
C7 O8 1.261 1_655 S
C7 O20 1.251 . S
O8 C7 1.261 1_455 S
H9 C3 0.930 1_455 S
H10 C5 0.930 . S
N11 Cu0 1.985 . S
N11 C13 1.335 . S
N11 C14 1.390 . S
N12 C13 1.345 . S
N12 C15 1.336 . S
C13 N11 1.335 . S
C13 N12 1.345 . S
C13 H18 0.929 1_554 S
C14 N11 1.390 . S
C14 C15 1.346 . S
C14 H19 0.930 . S
C15 N12 1.336 . S
C15 C14 1.346 . S
C15 H22 0.929 . S
C16 O6 1.282 . S
C16 O17 1.216 . S
O17 C16 1.216 . S
H18 C13 0.929 1_556 S
H19 C14 0.930 . S
O20 Cu0 1.959 1_655 S
O20 C7 1.251 . S
H21 C4 0.930 . S
H22 C15 0.929 . S
Cu23 N24 1.999 . S
Cu23 O29 1.974 . S
Cu23 N34 1.985 . S
Cu23 O43 1.959 . S
N24 Cu23 1.999 . S
N24 C26 1.263 . S
N24 C28 1.389 . S
N25 C26 1.358 . S
N25 C27 1.400 . S
C26 N24 1.263 . S
C26 N25 1.358 . S
C26 H32 0.930 . S
C27 N25 1.400 . S
C27 C28 1.351 . S
C27 H44 0.930 . S
C28 N24 1.389 . S
C28 C27 1.351 . S
C28 H33 0.930 . S
O29 Cu23 1.974 . S
O29 C39 1.282 . S
C30 O31 1.261 1_554 S
C30 O43 1.251 . S
O31 C30 1.261 1_556 S
H32 C26 0.930 . S
H33 C28 0.930 . S
N34 Cu23 1.985 . S
N34 C36 1.335 . S
N34 C37 1.390 . S
N35 C36 1.345 . S
N35 C38 1.336 . S
C36 N34 1.335 . S
C36 N35 1.345 . S
C36 H41 0.930 . S
C37 N34 1.390 . S
C37 C38 1.346 . S
C37 H42 0.930 . S
C38 N35 1.336 . S
C38 C37 1.346 . S
C38 H45 0.929 . S
C39 O29 1.282 . S
C39 O40 1.216 . S
O40 C39 1.216 . S
H41 C36 0.930 . S
H42 C37 0.930 . S
O43 Cu23 1.959 . S
O43 C30 1.251 . S
H44 C27 0.930 . S
H45 C38 0.929 . S
Cu46 N47 1.999 1_545 S
Cu46 O52 1.974 . S
Cu46 N57 1.985 . S
Cu46 O66 1.959 1_545 S
N47 Cu46 1.999 1_565 S
N47 C49 1.263 . S
N47 C51 1.389 1_554 S
N48 C49 1.358 1_556 S
N48 C50 1.400 . S
C49 N47 1.263 . S
C49 N48 1.358 1_554 S
C49 H55 0.930 . S
C50 N48 1.400 . S
C50 C51 1.351 . S
C50 H67 0.930 . S
C51 N47 1.389 1_556 S
C51 C50 1.351 . S
C51 H56 0.930 . S
O52 Cu46 1.974 . S
O52 C62 1.282 . S
C53 O54 1.261 . S
C53 O66 1.251 . S
O54 C53 1.261 . S
H55 C49 0.930 . S
H56 C51 0.930 . S
N57 Cu46 1.985 . S
N57 C59 1.335 . S
N57 C60 1.390 . S
N58 C59 1.345 . S
N58 C61 1.336 . S
C59 N57 1.335 . S
C59 N58 1.345 . S
C59 H64 0.930 . S
C60 N57 1.390 . S
C60 C61 1.346 . S
C60 H65 0.930 . S
C61 N58 1.336 . S
C61 C60 1.346 . S
C61 H68 0.929 . S
C62 O52 1.282 . S
C62 O63 1.216 . S
O63 C62 1.216 . S
H64 C59 0.930 . S
H65 C60 0.930 . S
O66 Cu46 1.959 1_565 S
O66 C53 1.251 . S
H67 C50 0.930 . S
H68 C61 0.929 . S
Cu69 N70 1.999 . S
Cu69 O75 1.974 . S
Cu69 N80 1.985 . S
Cu69 O89 1.959 . S
N70 Cu69 1.999 . S
N70 C72 1.263 . S
N70 C74 1.389 . S
N71 C72 1.358 . S
N71 C73 1.400 . S
C72 N70 1.263 . S
C72 N71 1.358 . S
C72 H78 0.930 . S
C73 N71 1.400 . S
C73 C74 1.351 . S
C73 H90 0.930 . S
C74 N70 1.389 . S
C74 C73 1.351 . S
C74 H79 0.930 . S
O75 Cu69 1.974 . S
O75 C85 1.282 . S
C76 O77 1.261 . S
C76 O89 1.251 . S
O77 C76 1.261 . S
H78 C72 0.930 . S
H79 C74 0.930 . S
N80 Cu69 1.985 . S
N80 C82 1.335 . S
N80 C83 1.390 . S
N81 C82 1.345 . S
N81 C84 1.336 . S
C82 N80 1.335 . S
C82 N81 1.345 . S
C82 H87 0.930 . S
C83 N80 1.390 . S
C83 C84 1.346 . S
C83 H88 0.930 . S
C84 N81 1.336 . S
C84 C83 1.346 . S
C84 H91 0.929 . S
C85 O75 1.282 . S
C85 O86 1.216 . S
O86 C85 1.216 . S
H87 C82 0.930 . S
H88 C83 0.930 . S
O89 Cu69 1.959 . S
O89 C76 1.251 . S
H90 C73 0.930 . S
H91 C84 0.929 . S
Cu92 N93 1.999 . S
Cu92 O98 1.974 . S
Cu92 N103 1.985 . S
Cu92 O112 1.959 . S
N93 Cu92 1.999 . S
N93 C95 1.263 . S
N93 C97 1.389 . S
N94 C95 1.358 . S
N94 C96 1.400 . S
C95 N93 1.263 . S
C95 N94 1.358 . S
C95 H101 0.930 . S
C96 N94 1.400 . S
C96 C97 1.351 . S
C96 H113 0.930 . S
C97 N93 1.389 . S
C97 C96 1.351 . S
C97 H102 0.930 . S
O98 Cu92 1.974 . S
O98 C108 1.282 . S
C99 O100 1.261 . S
C99 O112 1.251 . S
O100 C99 1.261 . S
H101 C95 0.930 . S
H102 C97 0.930 . S
N103 Cu92 1.985 . S
N103 C105 1.335 . S
N103 C106 1.390 . S
N104 C105 1.345 . S
N104 C107 1.336 . S
C105 N103 1.335 . S
C105 N104 1.345 . S
C105 H110 0.930 . S
C106 N103 1.390 . S
C106 C107 1.346 . S
C106 H111 0.930 . S
C107 N104 1.336 . S
C107 C106 1.346 . S
C107 H114 0.929 . S
C108 O98 1.282 . S
C108 O109 1.216 . S
O109 C108 1.216 . S
H110 C105 0.930 . S
H111 C106 0.930 . S
O112 Cu92 1.959 . S
O112 C99 1.251 . S
H113 C96 0.930 . S
H114 C107 0.929 . S
Cu115 N116 1.999 . S
Cu115 O121 1.974 . S
Cu115 N126 1.985 . S
Cu115 O135 1.959 . S
N116 Cu115 1.999 . S
N116 C118 1.263 . S
N116 C120 1.389 . S
N117 C118 1.358 . S
N117 C119 1.400 . S
C118 N116 1.263 . S
C118 N117 1.358 . S
C118 H124 0.930 . S
C119 N117 1.400 . S
C119 C120 1.351 . S
C119 H136 0.930 . S
C120 N116 1.389 . S
C120 C119 1.351 . S
C120 H125 0.930 . S
O121 Cu115 1.974 . S
O121 C131 1.282 . S
C122 O123 1.261 . S
C122 O135 1.251 . S
O123 C122 1.261 . S
H124 C118 0.930 . S
H125 C120 0.930 . S
N126 Cu115 1.985 . S
N126 C128 1.335 . S
N126 C129 1.390 . S
N127 C128 1.345 . S
N127 C130 1.336 . S
C128 N126 1.335 . S
C128 N127 1.345 . S
C128 H133 0.930 . S
C129 N126 1.390 . S
C129 C130 1.346 . S
C129 H134 0.930 . S
C130 N127 1.336 . S
C130 C129 1.346 . S
C130 H137 0.929 . S
C131 O121 1.282 . S
C131 O132 1.216 . S
O132 C131 1.216 . S
H133 C128 0.930 . S
H134 C129 0.930 . S
O135 Cu115 1.959 . S
O135 C122 1.251 . S
H136 C119 0.930 . S
H137 C130 0.929 . S
Cu138 N139 1.999 . S
Cu138 O144 1.974 . S
Cu138 N149 1.985 . S
Cu138 O158 1.959 . S
N139 Cu138 1.999 . S
N139 C141 1.263 . S
N139 C143 1.389 . S
N140 C141 1.358 . S
N140 C142 1.400 . S
C141 N139 1.263 . S
C141 N140 1.358 . S
C141 H147 0.930 . S
C142 N140 1.400 . S
C142 C143 1.351 . S
C142 H159 0.930 . S
C143 N139 1.389 . S
C143 C142 1.351 . S
C143 H148 0.930 . S
O144 Cu138 1.974 . S
O144 C154 1.282 . S
C145 O146 1.261 . S
C145 O158 1.251 . S
O146 C145 1.261 . S
H147 C141 0.930 . S
H148 C143 0.930 . S
N149 Cu138 1.985 . S
N149 C151 1.335 . S
N149 C152 1.390 . S
N150 C151 1.345 . S
N150 C153 1.336 . S
C151 N149 1.335 . S
C151 N150 1.345 . S
C151 H156 0.930 . S
C152 N149 1.390 . S
C152 C153 1.346 . S
C152 H157 0.930 . S
C153 N150 1.336 . S
C153 C152 1.346 . S
C153 H160 0.929 . S
C154 O144 1.282 . S
C154 O155 1.216 . S
O155 C154 1.216 . S
H156 C151 0.930 . S
H157 C152 0.930 . S
O158 Cu138 1.959 . S
O158 C145 1.251 . S
H159 C142 0.930 . S
H160 C153 0.929 . S
Cu161 N162 1.999 . S
Cu161 O167 1.974 . S
Cu161 N172 1.985 . S
Cu161 O181 1.959 . S
N162 Cu161 1.999 . S
N162 C164 1.263 . S
N162 C166 1.389 . S
N163 C164 1.358 . S
N163 C165 1.400 . S
C164 N162 1.263 . S
C164 N163 1.358 . S
C164 H170 0.930 . S
C165 N163 1.400 . S
C165 C166 1.351 . S
C165 H182 0.930 . S
C166 N162 1.389 . S
C166 C165 1.351 . S
C166 H171 0.930 . S
O167 Cu161 1.974 . S
O167 C177 1.282 . S
C168 O169 1.261 . S
C168 O181 1.251 . S
O169 C168 1.261 . S
H170 C164 0.930 . S
H171 C166 0.930 . S
N172 Cu161 1.985 . S
N172 C174 1.335 . S
N172 C175 1.390 . S
N173 C174 1.345 . S
N173 C176 1.336 . S
C174 N172 1.335 . S
C174 N173 1.345 . S
C174 H179 0.930 . S
C175 N172 1.390 . S
C175 C176 1.346 . S
C175 H180 0.930 . S
C176 N173 1.336 . S
C176 C175 1.346 . S
C176 H183 0.929 . S
C177 O167 1.282 . S
C177 O178 1.216 . S
O178 C177 1.216 . S
H179 C174 0.930 . S
H180 C175 0.930 . S
O181 Cu161 1.959 . S
O181 C168 1.251 . S
H182 C165 0.930 . S
H183 C176 0.929 . S
Cu184 N185 1.999 . S
Cu184 O190 1.974 . S
Cu184 N195 1.985 . S
Cu184 O204 1.959 . S
N185 Cu184 1.999 . S
N185 C187 1.263 . S
N185 C189 1.389 . S
N186 C187 1.358 . S
N186 C188 1.400 . S
C187 N185 1.263 . S
C187 N186 1.358 . S
C187 H193 0.930 . S
C188 N186 1.400 . S
C188 C189 1.351 . S
C188 H205 0.930 . S
C189 N185 1.389 . S
C189 C188 1.351 . S
C189 H194 0.930 . S
O190 Cu184 1.974 . S
O190 C200 1.282 . S
C191 O192 1.261 . S
C191 O204 1.251 . S
O192 C191 1.261 . S
H193 C187 0.930 . S
H194 C189 0.930 . S
N195 Cu184 1.985 . S
N195 C197 1.335 . S
N195 C198 1.390 . S
N196 C197 1.345 . S
N196 C199 1.336 . S
C197 N195 1.335 . S
C197 N196 1.345 . S
C197 H202 0.930 . S
C198 N195 1.390 . S
C198 C199 1.346 . S
C198 H203 0.930 . S
C199 N196 1.336 . S
C199 C198 1.346 . S
C199 H206 0.929 . S
C200 O190 1.282 . S
C200 O201 1.216 . S
O201 C200 1.216 . S
H202 C197 0.930 . S
H203 C198 0.930 . S
O204 Cu184 1.959 . S
O204 C191 1.251 . S
H205 C188 0.930 . S
H206 C199 0.929 . S
C207 C208 1.369 . S
C207 C209 1.419 . S
C207 H211 0.930 . S
C208 C207 1.369 . S
C208 C217 1.429 . S
C209 C207 1.419 . S
C209 C210 1.363 . S
C209 H212 0.929 . S
C210 C209 1.363 . S
C210 C216 1.428 . S
H211 C207 0.930 . S
H212 C209 0.929 . S
S213 N214 1.613 . S
S213 N215 1.610 . S
N214 S213 1.613 . S
N214 C217 1.350 . S
N215 S213 1.610 . S
N215 C216 1.351 . S
C216 C210 1.428 . S
C216 N215 1.351 . S
C216 C217 1.434 . S
C217 C208 1.429 . S
C217 N214 1.350 . S
C217 C216 1.434 . S
C218 C219 1.369 . S
C218 C220 1.419 1_565 S
C218 H222 0.930 1_554 S
C219 C218 1.369 . S
C219 C228 1.429 1_565 S
C220 C218 1.419 1_545 S
C220 C221 1.363 . S
C220 H223 0.929 . S
C221 C220 1.363 . S
C221 C227 1.428 . S
H222 C218 0.930 1_556 S
H223 C220 0.929 . S
S224 N225 1.613 1_445 S
S224 N226 1.610 1_455 S
N225 S224 1.613 1_665 S
N225 C228 1.350 1_565 S
N226 S224 1.610 1_655 S
N226 C227 1.351 . S
C227 C221 1.428 . S
C227 N226 1.351 . S
C227 C228 1.434 . S
C228 C219 1.429 1_545 S
C228 N225 1.350 1_545 S
C228 C227 1.434 . S
C229 C230 1.369 1_455 S
C229 C231 1.419 . S
C229 H233 0.930 . S
C230 C229 1.369 1_655 S
C230 C239 1.429 1_655 S
C231 C229 1.419 . S
C231 C232 1.363 . S
C231 H234 0.929 . S
C232 C231 1.363 . S
C232 C238 1.428 . S
H233 C229 0.930 . S
H234 C231 0.929 . S
S235 N236 1.613 1_455 S
S235 N237 1.610 . S
N236 S235 1.613 1_655 S
N236 C239 1.350 1_655 S
N237 S235 1.610 . S
N237 C238 1.351 . S
C238 C232 1.428 . S
C238 N237 1.351 . S
C238 C239 1.434 . S
C239 C230 1.429 1_455 S
C239 N236 1.350 1_455 S
C239 C238 1.434 . S
C240 C241 1.369 . S
C240 C242 1.419 . S
C240 H244 0.930 . S
C241 C240 1.369 . S
C241 C250 1.429 . S
C242 C240 1.419 . S
C242 C243 1.363 . S
C242 H245 0.929 . S
C243 C242 1.363 . S
C243 C249 1.428 . S
H244 C240 0.930 . S
H245 C242 0.929 . S
S246 N247 1.613 . S
S246 N248 1.610 . S
N247 S246 1.613 . S
N247 C250 1.350 . S
N248 S246 1.610 . S
N248 C249 1.351 . S
C249 C243 1.428 . S
C249 N248 1.351 . S
C249 C250 1.434 . S
C250 C241 1.429 . S
C250 N247 1.350 . S
C250 C249 1.434 . S
C251 C252 1.369 . S
C251 C253 1.419 . S
C251 H255 0.930 . S
C252 C251 1.369 . S
C252 C261 1.429 . S
C253 C251 1.419 . S
C253 C254 1.363 . S
C253 H256 0.929 . S
C254 C253 1.363 . S
C254 C260 1.428 . S
H255 C251 0.930 . S
H256 C253 0.929 . S
S257 N258 1.613 . S
S257 N259 1.610 . S
N258 S257 1.613 . S
N258 C261 1.350 . S
N259 S257 1.610 . S
N259 C260 1.351 . S
C260 C254 1.428 . S
C260 N259 1.351 . S
C260 C261 1.434 . S
C261 C252 1.429 . S
C261 N258 1.350 . S
C261 C260 1.434 . S
C262 C263 1.369 . S
C262 C264 1.419 . S
C262 H266 0.930 . S
C263 C262 1.369 . S
C263 C272 1.429 . S
C264 C262 1.419 . S
C264 C265 1.363 . S
C264 H267 0.929 . S
C265 C264 1.363 . S
C265 C271 1.428 . S
H266 C262 0.930 . S
H267 C264 0.929 . S
S268 N269 1.613 . S
S268 N270 1.610 . S
N269 S268 1.613 . S
N269 C272 1.350 . S
N270 S268 1.610 . S
N270 C271 1.351 . S
C271 C265 1.428 . S
C271 N270 1.351 . S
C271 C272 1.434 . S
C272 C263 1.429 . S
C272 N269 1.350 . S
C272 C271 1.434 . S
C273 C274 1.369 . S
C273 C275 1.419 . S
C273 H277 0.930 . S
C274 C273 1.369 . S
C274 C283 1.429 . S
C275 C273 1.419 . S
C275 C276 1.363 . S
C275 H278 0.929 . S
C276 C275 1.363 . S
C276 C282 1.428 . S
H277 C273 0.930 . S
H278 C275 0.929 . S
S279 N280 1.613 . S
S279 N281 1.610 . S
N280 S279 1.613 . S
N280 C283 1.350 . S
N281 S279 1.610 . S
N281 C282 1.351 . S
C282 C276 1.428 . S
C282 N281 1.351 . S
C282 C283 1.434 . S
C283 C274 1.429 . S
C283 N280 1.350 . S
C283 C282 1.434 . S
C284 C285 1.369 . S
C284 C286 1.419 . S
C284 H288 0.930 . S
C285 C284 1.369 . S
C285 C294 1.429 . S
C286 C284 1.419 . S
C286 C287 1.363 . S
C286 H289 0.929 . S
C287 C286 1.363 . S
C287 C293 1.428 . S
H288 C284 0.930 . S
H289 C286 0.929 . S
S290 N291 1.613 . S
S290 N292 1.610 . S
N291 S290 1.613 . S
N291 C294 1.350 . S
N292 S290 1.610 . S
N292 C293 1.351 . S
C293 C287 1.428 . S
C293 N292 1.351 . S
C293 C294 1.434 . S
C294 C285 1.429 . S
C294 N291 1.350 . S
C294 C293 1.434 . S
C295 C296 1.369 . S
C295 C297 1.419 . S
C295 H299 0.930 . S
C296 C295 1.369 . S
C296 C305 1.429 . S
C297 C295 1.419 . S
C297 C298 1.363 . S
C297 H300 0.929 . S
C298 C297 1.363 . S
C298 C304 1.428 . S
H299 C295 0.930 . S
H300 C297 0.929 . S
S301 N302 1.613 . S
S301 N303 1.610 . S
N302 S301 1.613 . S
N302 C305 1.350 . S
N303 S301 1.610 . S
N303 C304 1.351 . S
C304 C298 1.428 . S
C304 N303 1.351 . S
C304 C305 1.434 . S
C305 C296 1.429 . S
C305 N302 1.350 . S
C305 C304 1.434 . S
C306 C307 1.369 . S
C306 C308 1.419 . S
C306 H310 0.930 . S
C307 C306 1.369 . S
C307 C316 1.429 . S
C308 C306 1.419 . S
C308 C309 1.363 . S
C308 H311 0.929 . S
C309 C308 1.363 . S
C309 C315 1.428 . S
H310 C306 0.930 . S
H311 C308 0.929 . S
S312 N313 1.613 . S
S312 N314 1.610 1_554 S
N313 S312 1.613 . S
N313 C316 1.350 1_554 S
N314 S312 1.610 1_556 S
N314 C315 1.351 . S
C315 C309 1.428 . S
C315 N314 1.351 . S
C315 C316 1.434 . S
C316 C307 1.429 . S
C316 N313 1.350 1_556 S
C316 C315 1.434 . S
C317 C318 1.369 . S
C317 C319 1.419 . S
C317 H321 0.930 . S
C318 C317 1.369 . S
C318 C327 1.429 1_556 S
C319 C317 1.419 . S
C319 C320 1.363 . S
C319 H322 0.929 . S
C320 C319 1.363 . S
C320 C326 1.428 . S
H321 C317 0.930 . S
H322 C319 0.929 . S
S323 N324 1.613 . S
S323 N325 1.610 . S
N324 S323 1.613 . S
N324 C327 1.350 . S
N325 S323 1.610 . S
N325 C326 1.351 1_554 S
C326 C320 1.428 . S
C326 N325 1.351 1_556 S
C326 C327 1.434 1_556 S
C327 C318 1.429 1_554 S
C327 N324 1.350 . S
C327 C326 1.434 1_554 S
C328 C329 1.369 . S
C328 C330 1.419 . S
C328 H332 0.930 . S
C329 C328 1.369 . S
C329 C338 1.429 . S
C330 C328 1.419 . S
C330 C331 1.363 . S
C330 H333 0.929 1_556 S
C331 C330 1.363 . S
C331 C337 1.428 . S
H332 C328 0.930 . S
H333 C330 0.929 1_554 S
S334 N335 1.613 . S
S334 N336 1.610 . S
N335 S334 1.613 . S
N335 C338 1.350 . S
N336 S334 1.610 . S
N336 C337 1.351 . S
C337 C331 1.428 . S
C337 N336 1.351 . S
C337 C338 1.434 . S
C338 C329 1.429 . S
C338 N335 1.350 . S
C338 C337 1.434 . S
C339 C340 1.369 . S
C339 C341 1.419 . S
C339 H343 0.930 . S
C340 C339 1.369 . S
C340 C349 1.429 . S
C341 C339 1.419 . S
C341 C342 1.363 . S
C341 H344 0.929 . S
C342 C341 1.363 . S
C342 C348 1.428 . S
H343 C339 0.930 . S
H344 C341 0.929 . S
S345 N346 1.613 . S
S345 N347 1.610 . S
N346 S345 1.613 . S
N346 C349 1.350 . S
N347 S345 1.610 . S
N347 C348 1.351 . S
C348 C342 1.428 . S
C348 N347 1.351 . S
C348 C349 1.434 . S
C349 C340 1.429 . S
C349 N346 1.350 . S
C349 C348 1.434 . S
C350 C351 1.369 . S
C350 C352 1.419 . S
C350 H354 0.930 . S
C351 C350 1.369 . S
C351 C360 1.429 . S
C352 C350 1.419 . S
C352 C353 1.363 . S
C352 H355 0.929 . S
C353 C352 1.363 . S
C353 C359 1.428 . S
H354 C350 0.930 . S
H355 C352 0.929 . S
S356 N357 1.613 . S
S356 N358 1.610 1_455 S
N357 S356 1.613 . S
N357 C360 1.350 1_455 S
N358 S356 1.610 1_655 S
N358 C359 1.351 . S
C359 C353 1.428 . S
C359 N358 1.351 . S
C359 C360 1.434 . S
C360 C351 1.429 . S
C360 N357 1.350 1_655 S
C360 C359 1.434 . S
C361 C362 1.369 . S
C361 C363 1.419 . S
C361 H365 0.930 . S
C362 C361 1.369 . S
C362 C371 1.429 . S
C363 C361 1.419 . S
C363 C364 1.363 . S
C363 H366 0.929 . S
C364 C363 1.363 . S
C364 C370 1.428 . S
H365 C361 0.930 . S
H366 C363 0.929 . S
S367 N368 1.613 . S
S367 N369 1.610 . S
N368 S367 1.613 . S
N368 C371 1.350 . S
N369 S367 1.610 . S
N369 C370 1.351 . S
C370 C364 1.428 . S
C370 N369 1.351 . S
C370 C371 1.434 . S
C371 C362 1.429 . S
C371 N368 1.350 . S
C371 C370 1.434 . S
C372 C373 1.369 . S
C372 C374 1.419 . S
C372 H376 0.930 . S
C373 C372 1.369 . S
C373 C382 1.429 . S
C374 C372 1.419 . S
C374 C375 1.363 . S
C374 H377 0.929 . S
C375 C374 1.363 . S
C375 C381 1.428 . S
H376 C372 0.930 . S
H377 C374 0.929 . S
S378 N379 1.613 . S
S378 N380 1.610 . S
N379 S378 1.613 . S
N379 C382 1.350 . S
N380 S378 1.610 . S
N380 C381 1.351 . S
C381 C375 1.428 . S
C381 N380 1.351 . S
C381 C382 1.434 . S
C382 C373 1.429 . S
C382 N379 1.350 . S
C382 C381 1.434 . S
C383 C384 1.369 . S
C383 C385 1.419 . S
C383 H387 0.930 . S
C384 C383 1.369 . S
C384 C393 1.429 . S
C385 C383 1.419 . S
C385 C386 1.363 . S
C385 H388 0.929 . S
C386 C385 1.363 . S
C386 C392 1.428 . S
H387 C383 0.930 . S
H388 C385 0.929 . S
S389 N390 1.613 . S
S389 N391 1.610 . S
N390 S389 1.613 . S
N390 C393 1.350 . S
N391 S389 1.610 . S
N391 C392 1.351 . S
C392 C386 1.428 . S
C392 N391 1.351 . S
C392 C393 1.434 . S
C393 C384 1.429 . S
C393 N390 1.350 . S
C393 C392 1.434 . S
C394 C395 1.369 . S
C394 C396 1.419 1_565 S
C394 H398 0.930 . S
C395 C394 1.369 . S
C395 C404 1.429 1_565 S
C396 C394 1.419 1_545 S
C396 C397 1.363 . S
C396 H399 0.929 1_545 S
C397 C396 1.363 . S
C397 C403 1.428 . S
H398 C394 0.930 . S
H399 C396 0.929 1_565 S
S400 N401 1.613 . S
S400 N402 1.610 . S
N401 S400 1.613 . S
N401 C404 1.350 . S
N402 S400 1.610 . S
N402 C403 1.351 . S
C403 C397 1.428 . S
C403 N402 1.351 . S
C403 C404 1.434 . S
C404 C395 1.429 1_545 S
C404 N401 1.350 . S
C404 C403 1.434 . S
C208 N58 1.423 . S
C210 C16 1.395 . S
C219 N25 1.307 . S
C221 N2 1.341 . S
C230 C39 1.568 . S
C232 C53 1.601 . S
C241 C122 1.658 . S
C243 C85 1.619 . S
C252 N94 1.258 . S
C254 N71 1.240 . S
C263 C108 1.445 . S
C265 N127 1.474 . S
C274 C154 1.447 . S
C276 N196 1.499 . S
C285 N140 1.186 . S
C287 N163 1.150 . S
C296 C177 1.632 . S
C298 C191 1.686 . S
C307 N12 1.529 1_556 S
C309 N173 1.571 . S
C318 C30 1.583 1_556 S
C320 C200 1.538 . S
C329 C145 1.539 . S
C331 N48 1.441 . S
C340 C99 1.493 . S
C342 C62 1.463 . S
C351 C7 1.544 . S
C353 C131 1.522 . S
C362 N81 1.573 . S
C364 N35 1.562 . S
C373 C168 1.596 . S
C375 N117 1.481 1_455 S
C384 C76 1.608 . S
C386 N186 1.493 . S
C395 N150 1.515 . S
C397 N104 1.494 . S
