# Generated by pormake.
# Topology nbo, (4)-cn, num edge types: 1
# Building blocks:
#     Node 0, Type 0, BuildingBlock: ESEHIV_clean_sbu_0, # of connection points: 4
#     Node 1, Type 0, BuildingBlock: ESEHIV_clean_sbu_0, # of connection points: 4
#     Node 2, Type 0, BuildingBlock: ESEHIV_clean_sbu_0, # of connection points: 4
#     Node 3, Type 0, BuildingBlock: ESEHIV_clean_sbu_0, # of connection points: 4
#     Node 4, Type 0, BuildingBlock: ESEHIV_clean_sbu_0, # of connection points: 4
#     Node 5, Type 0, BuildingBlock: ESEHIV_clean_sbu_0, # of connection points: 4
#     Edge 6, Type (0, 0), BuildingBlock: XIVTED_clean_linker_0, # of connection points: 2
#     Edge 7, Type (0, 0), BuildingBlock: XIVTED_clean_linker_0, # of connection points: 2
#     Edge 8, Type (0, 0), BuildingBlock: XIVTED_clean_linker_0, # of connection points: 2
#     Edge 9, Type (0, 0), BuildingBlock: XIVTED_clean_linker_0, # of connection points: 2
#     Edge 10, Type (0, 0), BuildingBlock: XIVTED_clean_linker_0, # of connection points: 2
#     Edge 11, Type (0, 0), BuildingBlock: XIVTED_clean_linker_0, # of connection points: 2
#     Edge 12, Type (0, 0), BuildingBlock: XIVTED_clean_linker_0, # of connection points: 2
#     Edge 13, Type (0, 0), BuildingBlock: XIVTED_clean_linker_0, # of connection points: 2
#     Edge 14, Type (0, 0), BuildingBlock: XIVTED_clean_linker_0, # of connection points: 2
#     Edge 15, Type (0, 0), BuildingBlock: XIVTED_clean_linker_0, # of connection points: 2
#     Edge 16, Type (0, 0), BuildingBlock: XIVTED_clean_linker_0, # of connection points: 2
#     Edge 17, Type (0, 0), BuildingBlock: XIVTED_clean_linker_0, # of connection points: 2
# Relax obj value: 0.000
# Max RMSD: 0.094
# Mean RMSD: 0.094
data_MOF--net-nbo--node1-ESEHIV_clean_sbu_0--edge1-XIVTED_clean_linker_0
_symmetry_space_group_name_H-M    P1
_symmetry_Int_Tables_number       1
_symmetry_cell_setting            triclinic
loop_
_symmetry_equiv_pos_as_xyz
'x, y, z'
_cell_length_a     29.764254
_cell_length_b     34.226534
_cell_length_c     31.829809
_cell_angle_alpha  103.53437
_cell_angle_beta   103.93379
_cell_angle_gamma 103.89691
loop_
_atom_site_label
_atom_site_type_symbol
_atom_site_fract_x
_atom_site_fract_y
_atom_site_fract_z
_atom_type_partial_charge
Cu0 Cu 0.13382 0.10632 0.58294 0.0
N1 N 0.15213 0.16364 0.61744 0.0
N2 N 0.16108 0.23248 0.6276 0.0
C3 C 0.15393 0.19458 0.59778 0.0
C4 C 0.16404 0.2251 0.66789 0.0
C5 C 0.15855 0.18261 0.66155 0.0
O6 O 0.06446 0.09225 0.55123 0.0
C7 C 0.22228 0.12102 0.56865 0.0
O8 O 0.23417 0.14018 0.61251 0.0
H9 H 0.14736 0.18873 0.56157 0.0
H10 H 0.15693 0.16651 0.68684 0.0
N11 N 0.14102 0.06781 0.61562 0.0
N12 N 0.14105 1.00514 0.62621 0.0
C13 C 0.12713 1.02547 0.59611 0.0
C14 C 0.16461 0.07471 0.6597 0.0
C15 C 0.16454 0.03621 0.66635 0.0
C16 C 0.04028 0.09914 0.57876 0.0
O17 O 0.06307 0.11056 0.62266 0.0
H18 H 0.10914 1.01017 0.55997 0.0
H19 H 0.1822 0.10552 0.68492 0.0
O20 O 0.1772 0.10289 0.54591 0.0
H21 H 0.16872 0.24845 0.69946 0.0
H22 H 0.18132 0.03171 0.69826 0.0
Cu23 Cu 0.50701 0.06466 1.00056 0.0
N24 N 0.46624 1.0093 0.98687 0.0
N25 N 0.44687 0.94395 0.99309 0.0
C26 C 0.48127 0.98199 1.00661 0.0
C27 C 0.40857 0.9471 0.96262 0.0
C28 C 0.42066 0.98756 0.95883 0.0
O29 O 0.54824 0.07414 0.06233 0.0
C30 C 0.51085 0.06209 0.91453 0.0
O31 O 0.46611 0.06259 0.91095 0.0
H32 H 0.51744 0.98989 0.03012 0.0
H33 H 0.39791 1.00001 0.93711 0.0
N34 N 0.47391 0.10522 1.0024 0.0
N35 N 0.46118 0.16835 0.01498 0.0
C36 C 0.49469 0.14763 0.01615 0.0
C37 C 0.42564 0.09884 0.99235 0.0
C38 C 0.41768 0.13758 0.99993 0.0
C39 C 0.52325 0.07277 0.08971 0.0
O40 O 0.47844 0.07398 0.07605 0.0
H41 H 0.53367 0.16286 0.02669 0.0
H42 H 0.39813 0.06824 0.98109 0.0
O43 O 0.53836 0.06402 0.95302 0.0
H44 H 0.37419 0.9222 0.94471 0.0
H45 H 0.38254 0.14259 0.99569 0.0
Cu46 Cu 0.958 0.51172 0.96496 0.0
N47 N 0.94065 0.48228 0.9027 0.0
N48 N 0.94008 0.47782 0.83109 0.0
C49 C 0.94785 0.5036 0.87314 0.0
C50 C 0.92646 0.43823 0.83423 0.0
C51 C 0.92703 0.44107 0.87859 0.0
O52 O 0.02758 0.54147 0.98146 0.0
C53 C 0.86949 0.52485 0.9504 0.0
O54 O 0.85779 0.4846 0.9276 0.0
H55 H 0.96023 0.5378 0.88319 0.0
H56 H 0.92036 0.41516 0.89263 0.0
N57 N 0.95175 0.48037 1.00549 0.0
N58 N 0.95814 0.47316 0.07488 0.0
C59 C 0.97392 0.49806 0.05071 0.0
C60 C 0.92056 0.44266 1.00047 0.0
C61 C 0.92452 0.43807 0.04324 0.0
C62 C 0.0514 0.51618 0.97124 0.0
O63 O 0.02791 0.47539 0.9544 0.0
H64 H 0.99893 0.53001 0.06563 0.0
H65 H 0.89503 0.42106 0.96839 0.0
O66 O 0.91452 0.54582 0.97055 0.0
H67 H 0.91909 0.40937 0.80721 0.0
H68 H 0.9033 0.41146 0.05041 0.0
Cu69 Cu 0.50386 0.57832 0.04909 0.0
N70 N 0.51721 0.63521 0.08147 0.0
N71 N 0.51207 0.70056 0.08959 0.0
C72 C 0.50467 0.66243 0.06021 0.0
C73 C 0.53066 0.69732 0.13131 0.0
C74 C 0.53349 0.65676 0.12622 0.0
O75 O 0.43425 0.56055 0.0164 0.0
C76 C 0.5927 0.59697 0.03462 0.0
O77 O 0.60425 0.61904 0.0776 0.0
H78 H 0.48938 0.65383 0.02361 0.0
H79 H 0.54482 0.64363 0.15321 0.0
N80 N 0.51389 0.54236 0.08412 0.0
N81 N 0.51398 0.48025 0.09577 0.0
C82 C 0.49445 0.49991 0.06738 0.0
C83 C 0.54701 0.55008 0.12466 0.0
C84 C 0.54703 0.51183 0.13202 0.0
C85 C 0.40942 0.56749 0.04332 0.0
O86 O 0.43199 0.58095 0.0874 0.0
H87 H 0.46888 0.48376 0.03351 0.0
H88 H 0.57142 0.58101 0.14613 0.0
O89 O 0.54799 0.57611 0.01273 0.0
H90 H 0.53975 0.72184 0.16326 0.0
H91 H 0.5707 0.50766 0.16112 0.0
Cu92 Cu 0.06892 0.57137 0.50723 0.0
N93 N 0.11059 0.53843 0.51516 0.0
N94 N 0.13999 0.48759 0.53214 0.0
C95 C 0.10548 0.50687 0.5341 0.0
C96 C 0.16783 0.50797 0.51119 0.0
C97 C 0.1496 0.53913 0.50072 0.0
O98 O 0.02579 0.55827 0.54334 0.0
C99 C 0.0608 0.5701 0.41744 0.0
O100 O 0.10503 0.5967 0.43857 0.0
H101 H 0.07608 0.49739 0.54771 0.0
H102 H 0.16356 0.5605 0.48333 0.0
N103 N 0.10552 0.62959 0.53054 0.0
N104 N 0.12765 0.70064 0.55578 0.0
C105 C 0.09011 0.66405 0.53439 0.0
C106 C 0.15423 0.64505 0.54984 0.0
C107 C 0.1679 0.68851 0.56528 0.0
C108 C 0.04523 0.57395 0.58643 0.0
O109 O 0.09039 0.59941 0.60274 0.0
H110 H 0.05215 0.66228 0.52296 0.0
H111 H 0.17823 0.62599 0.55328 0.0
O112 O 0.03613 0.55556 0.44127 0.0
H113 H 0.1992 0.50093 0.50385 0.0
H114 H 0.20484 0.70957 0.58224 0.0
Cu115 Cu 0.5886 0.03628 0.50495 0.0
N116 N 0.57046 1.00223 0.44446 0.0
N117 N 0.56382 0.98852 0.37063 0.0
C118 C 0.5794 1.01838 0.41157 0.0
C119 C 0.54398 0.95189 0.37806 0.0
C120 C 0.54846 0.96041 0.42387 0.0
O121 O 0.65803 0.06606 0.52002 0.0
C122 C 0.49962 0.04897 0.4882 0.0
O123 O 0.48792 1.00792 0.46935 0.0
H124 H 0.59623 0.0518 0.41763 0.0
H125 H 0.53636 0.93789 0.44083 0.0
N126 N 0.58116 1.00757 0.54745 0.0
N127 N 0.57288 1.00033 0.61363 0.0
C128 C 0.57099 1.02425 0.5854 0.0
C129 C 0.5898 0.97158 0.55155 0.0
C130 C 0.58475 0.96704 0.59245 0.0
C131 C 0.6823 0.04154 0.50863 0.0
O132 O 0.65978 1.00061 0.49158 0.0
H133 H 0.56438 0.05448 0.59297 0.0
H134 H 0.60031 0.95075 0.52726 0.0
O135 O 0.5447 0.07051 0.50669 0.0
H136 H 0.52752 0.92118 0.35235 0.0
H137 H 0.58976 0.94144 0.60564 0.0
H138 H 0.1329 0.29677 0.67045 0.0
H139 H 0.18167 0.42945 0.49991 0.0
H140 H 0.18878 0.25708 0.56016 0.0
H141 H 0.10938 0.463 0.59883 0.0
H142 H 0.18939 0.36883 0.52536 0.0
H143 H 0.12917 0.36041 0.64882 0.0
C144 C 0.14481 0.30157 0.64197 0.0
C145 C 0.16101 0.27133 0.61699 0.0
C146 C 0.17187 0.38943 0.5416 0.0
C147 C 0.1565 0.34406 0.59181 0.0
C148 C 0.1677 0.42433 0.52723 0.0
C149 C 0.14487 0.45162 0.54723 0.0
C150 C 0.1533 0.38156 0.57647 0.0
C151 C 0.12679 0.44269 0.58206 0.0
C152 C 0.14234 0.3378 0.62943 0.0
C153 C 0.17542 0.27913 0.58003 0.0
N154 N 0.13146 0.40852 0.5956 0.0
N155 N 0.17282 0.3146 0.56862 0.0
H156 H 0.99221 0.13854 0.6281 0.0
H157 H 0.72957 1.00477 0.45643 0.0
H158 H 0.97018 0.05492 0.49519 0.0
H159 H 0.75384 0.11311 0.57047 0.0
H160 H 0.81706 1.0241 0.46842 0.0
H161 H 0.90564 0.13114 0.60665 0.0
C162 C 0.96911 0.11867 0.59421 0.0
C163 C 0.98837 0.09683 0.56353 0.0
C164 C 0.80338 0.04402 0.49053 0.0
C165 C 0.88874 0.08812 0.53882 0.0
C166 C 0.7534 0.03295 0.48385 0.0
C167 C 0.73451 0.05716 0.51289 0.0
C168 C 0.83505 0.0792 0.52709 0.0
C169 C 0.76695 0.09357 0.54741 0.0
C170 C 0.91965 0.1147 0.58194 0.0
C171 C 0.9568 0.07212 0.51993 0.0
N172 N 0.81582 0.10314 0.55404 0.0
N173 N 0.90833 0.06794 0.50907 0.0
H174 H 0.19031 0.76717 0.62755 0.0
H175 H 0.0736 0.93919 0.5553 0.0
H176 H 0.06199 0.73325 0.51187 0.0
H177 H 0.1962 0.96785 0.67495 0.0
H178 H 0.06741 0.86409 0.5386 0.0
H179 H 0.1914 0.8406 0.64525 0.0
C180 C 0.16235 0.77515 0.60568 0.0
C181 C 0.12629 0.7438 0.56779 0.0
C182 C 0.09551 0.88684 0.5686 0.0
C183 C 0.12713 0.82866 0.58823 0.0
C184 C 0.09929 0.92988 0.57808 0.0
C185 C 0.13561 0.96034 0.61664 0.0
C186 C 0.12843 0.87394 0.59772 0.0
C187 C 0.16729 0.94589 0.64514 0.0
C188 C 0.16284 0.81724 0.616 0.0
C189 C 0.09039 0.75622 0.54145 0.0
N190 N 0.16306 0.904 0.635 0.0
N191 N 0.09191 0.79769 0.55195 0.0
H192 H 0.40454 1.01576 0.43578 0.0
H193 H 0.3172 0.17038 0.60351 0.0
H194 H 0.50357 0.12333 0.54835 0.0
H195 H 0.21812 0.06473 0.48882 0.0
H196 H 0.38519 0.15946 0.57765 0.0
H197 H 0.33627 0.03896 0.44831 0.0
C198 C 0.41201 0.04466 0.46286 0.0
C199 C 0.45988 0.06741 0.49142 0.0
C200 C 0.34861 0.13892 0.55775 0.0
C201 C 0.38141 0.09397 0.50627 0.0
C202 C 0.30964 0.14509 0.5725 0.0
C203 C 0.26186 0.11805 0.54858 0.0
C204 C 0.34003 0.10515 0.51892 0.0
C205 C 0.25433 0.08621 0.50839 0.0
C206 C 0.37289 0.05787 0.46997 0.0
C207 C 0.46731 0.1048 0.52559 0.0
N208 N 0.29311 0.08028 0.49515 0.0
N209 N 0.42839 0.1166 0.53247 0.0
H210 H 0.63061 0.05017 0.35729 0.0
H211 H 0.46416 1.0094 0.10606 0.0
H212 H 0.50027 0.9435 0.28632 0.0
H213 H 0.61027 0.09704 0.16006 0.0
H214 H 0.47927 0.98385 0.17147 0.0
H215 H 0.6267 0.06698 0.28607 0.0
C216 C 0.6013 0.03013 0.32668 0.0
C217 C 0.56524 0.99569 0.32796 0.0
C218 C 0.50834 1.00846 0.16918 0.0
C219 C 0.56073 1.01473 0.2463 0.0
C220 C 0.49965 1.02328 0.13189 0.0
C221 C 0.53587 0.05579 0.12802 0.0
C222 C 0.55337 0.02684 0.20378 0.0
C223 C 0.5814 0.07202 0.16197 0.0
C224 C 0.59933 0.03961 0.28598 0.0
C225 C 0.5288 0.9703 0.28704 0.0
N226 N 0.58868 0.05782 0.19898 0.0
N227 N 0.52714 0.98066 0.2481 0.0
H228 H 0.90554 0.44225 0.12644 0.0
H229 H 0.105 0.59986 0.3606 0.0
H230 H 0.04193 0.52978 0.13679 0.0
H231 H 0.97576 0.50786 0.35795 0.0
H232 H 0.07946 0.57504 0.27807 0.0
H233 H 0.92829 0.46502 0.20992 0.0
C234 C 0.94035 0.46598 0.14606 0.0
C235 C 0.97164 0.48427 0.12413 0.0
C236 C 0.05644 0.56014 0.29526 0.0
C237 C 0.99763 0.51085 0.21994 0.0
C238 C 0.07101 0.57443 0.3427 0.0
C239 C 0.04262 0.55595 0.36664 0.0
C240 C 1.01291 0.52688 0.27082 0.0
C241 C 0.99882 0.52313 0.34105 0.0
C242 C 0.95317 0.47915 0.1938 0.0
C243 C 1.01609 0.51521 0.15172 0.0
N244 N 0.98535 0.50957 0.29454 0.0
N245 N 0.02755 0.52746 0.19783 0.0
H246 H 0.51635 0.04559 0.64135 0.0
H247 H 0.58587 0.03323 0.89679 0.0
H248 H 0.61259 0.97723 0.68706 0.0
H249 H 0.47016 0.0783 0.83722 0.0
H250 H 0.60341 1.01867 0.82382 0.0
H251 H 0.50579 0.06362 0.71623 0.0
C252 C 0.5355 0.0345 0.66722 0.0
C253 C 0.56549 1.00989 0.65773 0.0
C254 C 0.57438 0.03194 0.82696 0.0
C255 C 0.55332 0.03036 0.7442 0.0
C256 C 0.56461 0.04053 0.86865 0.0
C257 C 0.52637 0.05687 0.8731 0.0
C258 C 0.54603 0.04022 0.78979 0.0
C259 C 0.49976 0.06544 0.83539 0.0
C260 C 0.52927 0.04465 0.71006 0.0
C261 C 0.58875 0.99591 0.69266 0.0
N262 N 0.51005 0.05702 0.79557 0.0
N263 N 0.5823 1.00643 0.73439 0.0
H264 H 0.06325 0.6191 0.67401 0.0
H265 H 0.90482 0.43206 0.74042 0.0
H266 H 0.97303 0.49985 0.57348 0.0
H267 H 0.99916 0.55351 0.83445 0.0
H268 H 0.92416 0.45557 0.6776 0.0
H269 H 0.03335 0.59582 0.73143 0.0
C270 C 0.03663 0.58804 0.6639 0.0
C271 C 0.02076 0.56137 0.61887 0.0
C272 C 0.94021 0.47703 0.71205 0.0
C273 C 0.98666 0.53381 0.68518 0.0
C274 C 0.9294 0.46357 0.74799 0.0
C275 C 0.94999 0.49081 0.79312 0.0
C276 C 0.97192 0.51797 0.72132 0.0
C277 C 0.98139 0.53142 0.80057 0.0
C278 C 0.01959 0.57462 0.69684 0.0
C279 C 0.986 0.5215 0.60779 0.0
N280 N 0.9913 0.54354 0.76527 0.0
N281 N 0.97045 0.50868 0.64087 0.0
H282 H 0.12253 0.58876 0.03162 0.0
H283 H 0.34072 0.52115 0.95956 0.0
H284 H 0.10016 0.47599 0.92363 0.0
H285 H 0.35948 0.60685 0.09032 0.0
H286 H 0.25322 0.51387 0.93732 0.0
H287 H 0.21099 0.60591 0.04487 0.0
C288 C 0.13616 0.56802 1.01034 0.0
C289 C 0.10413 0.53068 0.97693 0.0
C290 C 0.27672 0.53447 0.97076 0.0
C291 C 0.20469 0.54998 0.9916 0.0
C292 C 0.32655 0.53864 0.98336 0.0
C293 C 0.35722 0.5641 0.02703 0.0
C294 C 0.25782 0.55646 1.00185 0.0
C295 C 0.33702 0.58627 0.05655 0.0
C296 C 0.18654 0.57763 0.01799 0.0
C297 C 0.12368 0.50481 0.95026 0.0
N298 N 0.28871 0.58189 0.04349 0.0
N299 N 0.17259 0.51483 0.95825 0.0
H300 H 0.43168 0.41711 0.04021 0.0
H301 H 0.54365 0.23098 0.07271 0.0
H302 H 0.576 0.43968 0.12936 0.0
H303 H 0.39819 0.20987 0.98671 0.0
H304 H 0.55655 0.30726 0.09403 0.0
H305 H 0.41885 0.34107 0.02099 0.0
C306 C 0.46075 0.40615 0.05575 0.0
C307 C 0.5051 0.4351 0.08634 0.0
C308 C 0.52178 0.2859 0.07053 0.0
C309 C 0.49053 0.34755 0.06452 0.0
C310 C 0.51447 0.24225 0.05808 0.0
C311 C 0.46969 0.21364 0.02778 0.0
C312 C 0.48414 0.30128 0.05251 0.0
C313 C 0.43308 0.23041 1.01056 0.0
C314 C 0.45332 0.3626 0.04486 0.0
C315 C 0.54108 0.41874 0.10594 0.0
N316 N 0.44115 0.27296 0.02308 0.0
N317 N 0.5331 0.37615 0.09454 0.0
H318 H 0.77406 0.49248 0.89869 0.0
H319 H 0.68799 0.64601 0.06952 0.0
H320 H 0.87383 0.59745 0.01375 0.0
H321 H 0.58866 0.53976 0.95554 0.0
H322 H 0.75585 0.6346 0.04369 0.0
H323 H 0.70619 0.51526 0.91297 0.0
C324 C 0.7818 0.52068 0.92676 0.0
C325 C 0.82977 0.54283 0.95543 0.0
C326 C 0.71923 0.61401 0.02399 0.0
C327 C 0.75171 0.56896 0.97221 0.0
C328 C 0.68032 0.62048 0.0387 0.0
C329 C 0.63248 0.59346 0.01493 0.0
C330 C 0.71051 0.58007 0.98528 0.0
C331 C 0.62489 0.56125 0.97502 0.0
C332 C 0.74288 0.53365 0.93487 0.0
C333 C 0.83748 0.57936 0.99089 0.0
N334 N 0.66357 0.55515 0.96174 0.0
N335 N 0.79876 0.59099 0.99862 0.0
H336 H 0.55243 0.78403 0.13878 0.0
H337 H 0.39835 0.8603 0.94809 0.0
H338 H 0.44344 0.69838 0.0143 0.0
H339 H 0.50623 0.94545 0.07348 0.0
H340 H 0.41116 0.80035 0.97335 0.0
H341 H 0.53308 0.84357 0.11711 0.0
C342 C 0.52428 0.77768 0.10706 0.0
C343 C 0.49999 0.73605 0.07818 0.0
C344 C 0.4319 0.83221 0.99538 0.0
C345 C 0.47775 0.80414 0.05288 0.0
C346 C 0.42438 0.86646 0.98103 0.0
C347 C 0.45155 0.90811 1.00839 0.0
C348 C 0.46675 0.83962 0.03746 0.0
C349 C 0.48507 0.91405 0.05073 0.0
C350 C 0.51335 0.81171 0.09456 0.0
C351 C 0.46397 0.72985 0.03726 0.0
N352 N 0.49182 0.88029 0.06382 0.0
N353 N 0.45409 0.76345 0.02582 0.0
loop_
_geom_bond_atom_site_label_1
_geom_bond_atom_site_label_2
_geom_bond_distance
_geom_bond_site_symmetry_2
_ccdc_geom_bond_type
Cu0 N1 1.999 . S
Cu0 O6 1.974 1_455 S
Cu0 N11 1.985 1_545 S
Cu0 O20 1.959 . S
N1 Cu0 1.999 . S
N1 C3 1.263 . S
N1 C5 1.389 . S
N2 C3 1.358 . S
N2 C4 1.400 . S
C3 N1 1.263 . S
C3 N2 1.358 . S
C3 H9 0.930 1_455 S
C4 N2 1.400 . S
C4 C5 1.351 . S
C4 H21 0.930 . S
C5 N1 1.389 . S
C5 C4 1.351 . S
C5 H10 0.930 . S
O6 Cu0 1.974 1_655 S
O6 C16 1.282 . S
C7 O8 1.261 . S
C7 O20 1.251 . S
O8 C7 1.261 . S
H9 C3 0.930 1_655 S
H10 C5 0.930 . S
N11 Cu0 1.985 1_565 S
N11 C13 1.335 . S
N11 C14 1.390 1_455 S
N12 C13 1.345 . S
N12 C15 1.336 1_455 S
C13 N11 1.335 . S
C13 N12 1.345 . S
C13 H18 0.930 . S
C14 N11 1.390 1_655 S
C14 C15 1.346 . S
C14 H19 0.930 . S
C15 N12 1.336 1_655 S
C15 C14 1.346 . S
C15 H22 0.929 . S
C16 O6 1.282 . S
C16 O17 1.216 . S
O17 C16 1.216 . S
H18 C13 0.930 . S
H19 C14 0.930 . S
O20 Cu0 1.959 . S
O20 C7 1.251 . S
H21 C4 0.930 . S
H22 C15 0.929 . S
Cu23 N24 1.999 1_545 S
Cu23 O29 1.974 . S
Cu23 N34 1.985 . S
Cu23 O43 1.959 1_554 S
N24 Cu23 1.999 1_565 S
N24 C26 1.263 . S
N24 C28 1.389 1_554 S
N25 C26 1.358 . S
N25 C27 1.400 1_554 S
C26 N24 1.263 . S
C26 N25 1.358 . S
C26 H32 0.930 . S
C27 N25 1.400 1_556 S
C27 C28 1.351 . S
C27 H44 0.930 . S
C28 N24 1.389 1_556 S
C28 C27 1.351 . S
C28 H33 0.930 . S
O29 Cu23 1.974 . S
O29 C39 1.282 . S
C30 O31 1.261 . S
C30 O43 1.251 . S
O31 C30 1.261 . S
H32 C26 0.930 . S
H33 C28 0.930 . S
N34 Cu23 1.985 . S
N34 C36 1.335 . S
N34 C37 1.390 . S
N35 C36 1.345 . S
N35 C38 1.336 . S
C36 N34 1.335 . S
C36 N35 1.345 . S
C36 H41 0.930 1_554 S
C37 N34 1.390 . S
C37 C38 1.346 . S
C37 H42 0.930 . S
C38 N35 1.336 . S
C38 C37 1.346 . S
C38 H45 0.929 . S
C39 O29 1.282 . S
C39 O40 1.216 . S
O40 C39 1.216 . S
H41 C36 0.930 1_556 S
H42 C37 0.930 . S
O43 Cu23 1.959 1_556 S
O43 C30 1.251 . S
H44 C27 0.930 . S
H45 C38 0.929 . S
Cu46 N47 1.999 1_554 S
Cu46 O52 1.974 . S
Cu46 N57 1.985 . S
Cu46 O66 1.959 1_455 S
N47 Cu46 1.999 1_556 S
N47 C49 1.263 . S
N47 C51 1.389 1_455 S
N48 C49 1.358 . S
N48 C50 1.400 1_455 S
C49 N47 1.263 . S
C49 N48 1.358 . S
C49 H55 0.930 . S
C50 N48 1.400 1_655 S
C50 C51 1.351 . S
C50 H67 0.930 . S
C51 N47 1.389 1_655 S
C51 C50 1.351 . S
C51 H56 0.930 . S
O52 Cu46 1.974 . S
O52 C62 1.282 . S
C53 O54 1.261 1_554 S
C53 O66 1.251 . S
O54 C53 1.261 1_556 S
H55 C49 0.930 . S
H56 C51 0.930 . S
N57 Cu46 1.985 . S
N57 C59 1.335 . S
N57 C60 1.390 . S
N58 C59 1.345 . S
N58 C61 1.336 . S
C59 N57 1.335 . S
C59 N58 1.345 . S
C59 H64 0.930 1_455 S
C60 N57 1.390 . S
C60 C61 1.346 . S
C60 H65 0.930 . S
C61 N58 1.336 . S
C61 C60 1.346 . S
C61 H68 0.929 . S
C62 O52 1.282 . S
C62 O63 1.216 1_554 S
O63 C62 1.216 1_556 S
H64 C59 0.930 1_655 S
H65 C60 0.930 . S
O66 Cu46 1.959 1_655 S
O66 C53 1.251 . S
H67 C50 0.930 . S
H68 C61 0.929 . S
Cu69 N70 1.999 . S
Cu69 O75 1.974 . S
Cu69 N80 1.985 . S
Cu69 O89 1.959 . S
N70 Cu69 1.999 . S
N70 C72 1.269 . S
N70 C74 1.389 . S
N71 C72 1.367 . S
N71 C73 1.400 . S
C72 N70 1.269 . S
C72 N71 1.367 . S
C72 H78 0.917 1_556 S
C73 N71 1.400 . S
C73 C74 1.351 . S
C73 H90 0.930 . S
C74 N70 1.389 . S
C74 C73 1.351 . S
C74 H79 0.930 . S
O75 Cu69 1.974 . S
O75 C85 1.282 1_556 S
C76 O77 1.261 . S
C76 O89 1.251 1_554 S
O77 C76 1.261 . S
H78 C72 0.917 1_554 S
H79 C74 0.930 . S
N80 Cu69 1.985 . S
N80 C82 1.335 . S
N80 C83 1.390 1_556 S
N81 C82 1.357 . S
N81 C84 1.325 1_556 S
C82 N80 1.335 . S
C82 N81 1.357 . S
C82 H87 0.930 . S
C83 N80 1.390 1_554 S
C83 C84 1.346 . S
C83 H88 0.930 . S
C84 N81 1.325 1_554 S
C84 C83 1.346 . S
C84 H91 0.929 . S
C85 O75 1.282 1_554 S
C85 O86 1.216 . S
O86 C85 1.216 . S
H87 C82 0.930 . S
H88 C83 0.930 . S
O89 Cu69 1.959 . S
O89 C76 1.251 1_556 S
H90 C73 0.930 . S
H91 C84 0.929 . S
Cu92 N93 1.999 . S
Cu92 O98 1.974 . S
Cu92 N103 1.985 . S
Cu92 O112 1.959 . S
N93 Cu92 1.999 . S
N93 C95 1.263 . S
N93 C97 1.389 . S
N94 C95 1.358 . S
N94 C96 1.400 . S
C95 N93 1.263 . S
C95 N94 1.358 . S
C95 H101 0.930 . S
C96 N94 1.400 . S
C96 C97 1.351 . S
C96 H113 0.930 . S
C97 N93 1.389 . S
C97 C96 1.351 . S
C97 H102 0.930 . S
O98 Cu92 1.974 . S
O98 C108 1.282 . S
C99 O100 1.261 1_455 S
C99 O112 1.251 . S
O100 C99 1.261 1_655 S
H101 C95 0.930 . S
H102 C97 0.930 . S
N103 Cu92 1.985 . S
N103 C105 1.335 . S
N103 C106 1.390 . S
N104 C105 1.345 . S
N104 C107 1.336 . S
C105 N103 1.335 . S
C105 N104 1.345 . S
C105 H110 0.930 . S
C106 N103 1.390 . S
C106 C107 1.346 . S
C106 H111 0.930 . S
C107 N104 1.336 . S
C107 C106 1.346 . S
C107 H114 0.929 . S
C108 O98 1.282 . S
C108 O109 1.216 1_455 S
O109 C108 1.216 1_655 S
H110 C105 0.930 . S
H111 C106 0.930 . S
O112 Cu92 1.959 . S
O112 C99 1.251 . S
H113 C96 0.930 . S
H114 C107 0.929 . S
Cu115 N116 1.999 . S
Cu115 O121 1.974 . S
Cu115 N126 1.985 . S
Cu115 O135 1.959 . S
N116 Cu115 1.999 . S
N116 C118 1.263 . S
N116 C120 1.389 . S
N117 C118 1.358 . S
N117 C119 1.400 . S
C118 N116 1.263 . S
C118 N117 1.358 . S
C118 H124 0.930 . S
C119 N117 1.400 . S
C119 C120 1.351 . S
C119 H136 0.930 . S
C120 N116 1.389 . S
C120 C119 1.351 . S
C120 H125 0.930 . S
O121 Cu115 1.974 . S
O121 C131 1.282 . S
C122 O123 1.261 1_545 S
C122 O135 1.251 . S
O123 C122 1.261 1_565 S
H124 C118 0.930 . S
H125 C120 0.930 . S
N126 Cu115 1.985 . S
N126 C128 1.335 . S
N126 C129 1.390 . S
N127 C128 1.345 . S
N127 C130 1.336 . S
C128 N126 1.335 . S
C128 N127 1.345 . S
C128 H133 0.930 . S
C129 N126 1.390 . S
C129 C130 1.346 . S
C129 H134 0.930 . S
C130 N127 1.336 . S
C130 C129 1.346 . S
C130 H137 0.929 . S
C131 O121 1.282 . S
C131 O132 1.216 1_545 S
O132 C131 1.216 1_565 S
H133 C128 0.930 . S
H134 C129 0.930 . S
O135 Cu115 1.959 . S
O135 C122 1.251 . S
H136 C119 0.930 . S
H137 C130 0.929 . S
H138 C144 0.930 . S
H139 C148 0.930 . S
H140 C153 0.929 . S
H141 C151 0.929 . S
H142 C146 0.929 . S
H143 C152 0.929 . S
C144 H138 0.930 . S
C144 C145 1.367 . S
C144 C152 1.378 . S
C145 C144 1.367 . S
C145 C153 1.433 . S
C146 H142 0.929 . S
C146 C148 1.378 . S
C146 C150 1.350 . S
C147 C150 1.463 . S
C147 C152 1.350 . S
C147 N155 1.427 . S
C148 H139 0.930 . S
C148 C146 1.378 . S
C148 C149 1.367 . S
C149 C148 1.367 . S
C149 C151 1.433 . S
C150 C146 1.350 . S
C150 C147 1.463 . S
C150 N154 1.427 . S
C151 H141 0.929 . S
C151 C149 1.433 . S
C151 N154 1.384 . S
C152 H143 0.929 . S
C152 C144 1.378 . S
C152 C147 1.350 . S
C153 H140 0.929 . S
C153 C145 1.433 . S
C153 N155 1.384 . S
N154 C150 1.427 . S
N154 C151 1.384 . S
N155 C147 1.427 . S
N155 C153 1.384 . S
H156 C162 0.930 . S
H157 C166 0.930 1_565 S
H158 C171 0.929 1_565 S
H159 C169 0.929 . S
H160 C164 0.929 1_565 S
H161 C170 0.929 . S
C162 H156 0.930 . S
C162 C163 1.367 . S
C162 C170 1.378 . S
C163 C162 1.367 . S
C163 C171 1.433 . S
C164 H160 0.929 1_545 S
C164 C166 1.378 . S
C164 C168 1.350 . S
C165 C168 1.463 . S
C165 C170 1.350 . S
C165 N173 1.427 . S
C166 H157 0.930 1_545 S
C166 C164 1.378 . S
C166 C167 1.367 . S
C167 C166 1.367 . S
C167 C169 1.433 . S
C168 C164 1.350 . S
C168 C165 1.463 . S
C168 N172 1.427 . S
C169 H159 0.929 . S
C169 C167 1.433 . S
C169 N172 1.384 . S
C170 H161 0.929 . S
C170 C162 1.378 . S
C170 C165 1.350 . S
C171 H158 0.929 1_545 S
C171 C163 1.433 . S
C171 N173 1.384 . S
N172 C168 1.427 . S
N172 C169 1.384 . S
N173 C165 1.427 . S
N173 C171 1.384 . S
H174 C180 0.930 . S
H175 C184 0.930 . S
H176 C189 0.929 . S
H177 C187 0.929 . S
H178 C182 0.929 . S
H179 C188 0.929 . S
C180 H174 0.930 . S
C180 C181 1.367 . S
C180 C188 1.378 . S
C181 C180 1.367 . S
C181 C189 1.433 1_455 S
C182 H178 0.929 . S
C182 C184 1.378 . S
C182 C186 1.350 1_655 S
C183 C186 1.463 . S
C183 C188 1.350 . S
C183 N191 1.427 1_455 S
C184 H175 0.930 . S
C184 C182 1.378 . S
C184 C185 1.367 1_655 S
C185 C184 1.367 1_455 S
C185 C187 1.433 . S
C186 C182 1.350 1_455 S
C186 C183 1.463 . S
C186 N190 1.427 . S
C187 H177 0.929 . S
C187 C185 1.433 . S
C187 N190 1.384 . S
C188 H179 0.929 . S
C188 C180 1.378 . S
C188 C183 1.350 . S
C189 H176 0.929 . S
C189 C181 1.433 1_655 S
C189 N191 1.384 . S
N190 C186 1.427 . S
N190 C187 1.384 . S
N191 C183 1.427 1_655 S
N191 C189 1.384 . S
H192 C198 0.930 . S
H193 C202 0.930 . S
H194 C207 0.929 . S
H195 C205 0.929 1_565 S
H196 C200 0.929 . S
H197 C206 0.929 1_565 S
C198 H192 0.930 . S
C198 C199 1.367 1_565 S
C198 C206 1.378 1_565 S
C199 C198 1.367 1_545 S
C199 C207 1.433 . S
C200 H196 0.929 . S
C200 C202 1.378 . S
C200 C204 1.350 . S
C201 C204 1.463 . S
C201 C206 1.350 . S
C201 N209 1.427 . S
C202 H193 0.930 . S
C202 C200 1.378 . S
C202 C203 1.367 . S
C203 C202 1.367 . S
C203 C205 1.433 . S
C204 C200 1.350 . S
C204 C201 1.463 . S
C204 N208 1.427 . S
C205 H195 0.929 1_545 S
C205 C203 1.433 . S
C205 N208 1.384 . S
C206 H197 0.929 1_545 S
C206 C198 1.378 1_545 S
C206 C201 1.350 . S
C207 H194 0.929 . S
C207 C199 1.433 . S
C207 N209 1.384 . S
N208 C204 1.427 . S
N208 C205 1.384 . S
N209 C201 1.427 . S
N209 C207 1.384 . S
H210 C216 0.930 . S
H211 C220 0.930 . S
H212 C225 0.929 . S
H213 C223 0.929 . S
H214 C218 0.929 . S
H215 C224 0.929 . S
C216 H210 0.930 . S
C216 C217 1.367 . S
C216 C224 1.378 . S
C217 C216 1.367 . S
C217 C225 1.433 . S
C218 H214 0.929 . S
C218 C220 1.378 . S
C218 C222 1.350 . S
C219 C222 1.463 . S
C219 C224 1.350 . S
C219 N227 1.427 . S
C220 H211 0.930 . S
C220 C218 1.378 . S
C220 C221 1.367 . S
C221 C220 1.367 . S
C221 C223 1.433 . S
C222 C218 1.350 . S
C222 C219 1.463 . S
C222 N226 1.427 . S
C223 H213 0.929 . S
C223 C221 1.433 . S
C223 N226 1.384 . S
C224 H215 0.929 . S
C224 C216 1.378 . S
C224 C219 1.350 . S
C225 H212 0.929 . S
C225 C217 1.433 . S
C225 N227 1.384 . S
N226 C222 1.427 . S
N226 C223 1.384 . S
N227 C219 1.427 . S
N227 C225 1.384 . S
H228 C234 0.930 . S
H229 C238 0.930 . S
H230 C243 0.929 . S
H231 C241 0.929 . S
H232 C236 0.929 . S
H233 C242 0.929 . S
C234 H228 0.930 . S
C234 C235 1.367 . S
C234 C242 1.378 . S
C235 C234 1.367 . S
C235 C243 1.433 1_455 S
C236 H232 0.929 . S
C236 C238 1.378 . S
C236 C240 1.350 1_655 S
C237 C240 1.463 . S
C237 C242 1.350 . S
C237 N245 1.427 1_455 S
C238 H229 0.930 . S
C238 C236 1.378 . S
C238 C239 1.367 1_655 S
C239 C238 1.367 1_455 S
C239 C241 1.433 . S
C240 C236 1.350 1_455 S
C240 C237 1.463 . S
C240 N244 1.427 . S
C241 H231 0.929 . S
C241 C239 1.433 . S
C241 N244 1.384 . S
C242 H233 0.929 . S
C242 C234 1.378 . S
C242 C237 1.350 . S
C243 H230 0.929 . S
C243 C235 1.433 1_655 S
C243 N245 1.384 . S
N244 C240 1.427 . S
N244 C241 1.384 . S
N245 C237 1.427 1_655 S
N245 C243 1.384 . S
H246 C252 0.930 . S
H247 C256 0.930 . S
H248 C261 0.929 . S
H249 C259 0.929 1_565 S
H250 C254 0.929 . S
H251 C260 0.918 1_565 S
C252 H246 0.930 . S
C252 C253 1.367 . S
C252 C260 1.378 . S
C253 C252 1.367 . S
C253 C261 1.433 . S
C254 H250 0.929 . S
C254 C256 1.378 . S
C254 C258 1.350 . S
C255 C258 1.463 . S
C255 C260 1.350 . S
C255 N263 1.427 . S
C256 H247 0.930 . S
C256 C254 1.378 . S
C256 C257 1.367 . S
C257 C256 1.367 . S
C257 C259 1.433 . S
C258 C254 1.350 . S
C258 C255 1.463 . S
C258 N262 1.427 . S
C259 H249 0.929 1_545 S
C259 C257 1.433 . S
C259 N262 1.384 . S
C260 H251 0.918 1_545 S
C260 C252 1.378 . S
C260 C255 1.350 . S
C261 H248 0.929 . S
C261 C253 1.433 . S
C261 N263 1.384 . S
N262 C258 1.427 . S
N262 C259 1.384 . S
N263 C255 1.427 . S
N263 C261 1.384 . S
H264 C270 0.930 . S
H265 C274 0.930 . S
H266 C279 0.929 . S
H267 C277 0.929 . S
H268 C272 0.929 . S
H269 C278 0.929 . S
C270 H264 0.930 . S
C270 C271 1.367 . S
C270 C278 1.378 . S
C271 C270 1.367 . S
C271 C279 1.433 1_455 S
C272 H268 0.929 . S
C272 C274 1.378 . S
C272 C276 1.350 1_655 S
C273 C276 1.463 . S
C273 C278 1.350 . S
C273 N281 1.427 1_455 S
C274 H265 0.930 . S
C274 C272 1.378 . S
C274 C275 1.367 1_655 S
C275 C274 1.367 1_455 S
C275 C277 1.433 . S
C276 C272 1.350 1_455 S
C276 C273 1.463 . S
C276 N280 1.427 . S
C277 H267 0.929 . S
C277 C275 1.433 . S
C277 N280 1.384 . S
C278 H269 0.929 . S
C278 C270 1.378 . S
C278 C273 1.350 . S
C279 H266 0.929 . S
C279 C271 1.433 1_655 S
C279 N281 1.384 . S
N280 C276 1.427 . S
N280 C277 1.384 . S
N281 C273 1.427 1_655 S
N281 C279 1.384 . S
H282 C288 0.930 . S
H283 C292 0.930 . S
H284 C297 0.929 . S
H285 C295 0.929 . S
H286 C290 0.929 . S
H287 C296 0.929 . S
C288 H282 0.930 . S
C288 C289 1.367 . S
C288 C296 1.378 . S
C289 C288 1.367 . S
C289 C297 1.433 1_554 S
C290 H286 0.929 . S
C290 C292 1.378 . S
C290 C294 1.350 1_556 S
C291 C294 1.463 . S
C291 C296 1.350 . S
C291 N299 1.427 1_554 S
C292 H283 0.930 . S
C292 C290 1.378 . S
C292 C293 1.367 1_556 S
C293 C292 1.367 1_554 S
C293 C295 1.433 . S
C294 C290 1.350 1_554 S
C294 C291 1.463 . S
C294 N298 1.427 . S
C295 H285 0.929 . S
C295 C293 1.433 . S
C295 N298 1.384 . S
C296 H287 0.929 . S
C296 C288 1.378 . S
C296 C291 1.350 . S
C297 H284 0.929 . S
C297 C289 1.433 1_556 S
C297 N299 1.384 . S
N298 C294 1.427 . S
N298 C295 1.384 . S
N299 C291 1.427 1_556 S
N299 C297 1.384 . S
H300 C306 0.930 . S
H301 C310 0.930 . S
H302 C315 0.929 . S
H303 C313 0.929 . S
H304 C308 0.929 . S
H305 C314 0.929 . S
C306 H300 0.930 . S
C306 C307 1.367 . S
C306 C314 1.378 . S
C307 C306 1.367 . S
C307 C315 1.433 1_556 S
C308 H304 0.929 . S
C308 C310 1.378 . S
C308 C312 1.350 . S
C309 C312 1.463 . S
C309 C314 1.350 1_554 S
C309 N317 1.427 . S
C310 H301 0.930 . S
C310 C308 1.378 . S
C310 C311 1.367 . S
C311 C310 1.367 . S
C311 C313 1.433 1_554 S
C312 C308 1.350 . S
C312 C309 1.463 . S
C312 N316 1.427 1_554 S
C313 H303 0.929 . S
C313 C311 1.433 1_556 S
C313 N316 1.384 . S
C314 H305 0.929 . S
C314 C306 1.378 . S
C314 C309 1.350 1_556 S
C315 H302 0.929 . S
C315 C307 1.433 1_554 S
C315 N317 1.384 . S
N316 C312 1.427 1_556 S
N316 C313 1.384 . S
N317 C309 1.427 . S
N317 C315 1.384 . S
H318 C324 0.930 . S
H319 C328 0.930 . S
H320 C333 0.929 . S
H321 C331 0.929 . S
H322 C326 0.929 . S
H323 C332 0.929 . S
C324 H318 0.930 . S
C324 C325 1.367 1_556 S
C324 C332 1.378 . S
C325 C324 1.367 1_554 S
C325 C333 1.433 . S
C326 H322 0.929 . S
C326 C328 1.378 . S
C326 C330 1.350 . S
C327 C330 1.463 . S
C327 C332 1.350 1_554 S
C327 N335 1.427 . S
C328 H319 0.930 . S
C328 C326 1.378 . S
C328 C329 1.367 . S
C329 C328 1.367 . S
C329 C331 1.433 1_554 S
C330 C326 1.350 . S
C330 C327 1.463 . S
C330 N334 1.427 1_554 S
C331 H321 0.929 . S
C331 C329 1.433 1_556 S
C331 N334 1.384 . S
C332 H323 0.929 . S
C332 C324 1.378 . S
C332 C327 1.350 1_556 S
C333 H320 0.929 . S
C333 C325 1.433 . S
C333 N335 1.384 . S
N334 C330 1.427 1_556 S
N334 C331 1.384 . S
N335 C327 1.427 . S
N335 C333 1.384 . S
H336 C342 0.930 . S
H337 C346 0.930 . S
H338 C351 0.929 . S
H339 C349 0.929 . S
H340 C344 0.929 . S
H341 C350 0.929 . S
C342 H336 0.930 . S
C342 C343 1.367 1_554 S
C342 C350 1.378 . S
C343 C342 1.367 1_556 S
C343 C351 1.433 . S
C344 H340 0.929 . S
C344 C346 1.378 . S
C344 C348 1.350 1_556 S
C345 C348 1.463 . S
C345 C350 1.350 . S
C345 N353 1.427 1_554 S
C346 H337 0.930 . S
C346 C344 1.378 . S
C346 C347 1.367 1_556 S
C347 C346 1.367 1_554 S
C347 C349 1.433 . S
C348 C344 1.350 1_554 S
C348 C345 1.463 . S
C348 N352 1.427 . S
C349 H339 0.929 . S
C349 C347 1.433 . S
C349 N352 1.384 . S
C350 H341 0.929 . S
C350 C342 1.378 . S
C350 C345 1.350 . S
C351 H338 0.929 . S
C351 C343 1.433 . S
C351 N353 1.384 . S
N352 C348 1.427 . S
N352 C349 1.384 . S
N353 C345 1.427 1_556 S
N353 C351 1.384 . S
C145 N2 1.500 . S
C149 N94 1.485 . S
C163 C16 1.466 . S
C167 C131 1.470 . S
C181 N104 1.459 . S
C185 N12 1.455 . S
C199 C122 1.521 . S
C203 C7 1.520 . S
C217 N117 1.471 . S
C221 C39 1.490 . S
C235 N58 1.464 . S
C239 C99 1.505 . S
C253 N127 1.472 . S
C257 C30 1.503 . S
C271 C108 1.495 . S
C275 N48 1.461 . S
C289 C62 1.471 . S
C293 C85 1.466 . S
C307 N81 1.452 . S
C311 N35 1.459 . S
C325 C53 1.519 . S
C329 C76 1.522 . S
C343 N71 1.498 . S
C347 N25 1.488 . S
