# Generated by pormake.
# Topology umf, (4)-cn, num edge types: 1
# Building blocks:
#     Node 0, Type 0, BuildingBlock: GALJAG_clean_sbu_0, # of connection points: 4
#     Node 1, Type 0, BuildingBlock: GALJAG_clean_sbu_0, # of connection points: 4
#     Node 2, Type 0, BuildingBlock: GALJAG_clean_sbu_0, # of connection points: 4
#     Node 3, Type 0, BuildingBlock: GALJAG_clean_sbu_0, # of connection points: 4
#     Node 4, Type 0, BuildingBlock: GALJAG_clean_sbu_0, # of connection points: 4
#     Node 5, Type 0, BuildingBlock: GALJAG_clean_sbu_0, # of connection points: 4
#     Node 6, Type 0, BuildingBlock: GALJAG_clean_sbu_0, # of connection points: 4
#     Node 7, Type 0, BuildingBlock: GALJAG_clean_sbu_0, # of connection points: 4
#     Edge 8, Type (0, 0), BuildingBlock: KIFKEQ_clean_linker_1, # of connection points: 2
#     Edge 9, Type (0, 0), BuildingBlock: KIFKEQ_clean_linker_1, # of connection points: 2
#     Edge 10, Type (0, 0), BuildingBlock: KIFKEQ_clean_linker_1, # of connection points: 2
#     Edge 11, Type (0, 0), BuildingBlock: KIFKEQ_clean_linker_1, # of connection points: 2
#     Edge 12, Type (0, 0), BuildingBlock: KIFKEQ_clean_linker_1, # of connection points: 2
#     Edge 13, Type (0, 0), BuildingBlock: KIFKEQ_clean_linker_1, # of connection points: 2
#     Edge 14, Type (0, 0), BuildingBlock: KIFKEQ_clean_linker_1, # of connection points: 2
#     Edge 15, Type (0, 0), BuildingBlock: KIFKEQ_clean_linker_1, # of connection points: 2
#     Edge 16, Type (0, 0), BuildingBlock: KIFKEQ_clean_linker_1, # of connection points: 2
#     Edge 17, Type (0, 0), BuildingBlock: KIFKEQ_clean_linker_1, # of connection points: 2
#     Edge 18, Type (0, 0), BuildingBlock: KIFKEQ_clean_linker_1, # of connection points: 2
#     Edge 19, Type (0, 0), BuildingBlock: KIFKEQ_clean_linker_1, # of connection points: 2
#     Edge 20, Type (0, 0), BuildingBlock: KIFKEQ_clean_linker_1, # of connection points: 2
#     Edge 21, Type (0, 0), BuildingBlock: KIFKEQ_clean_linker_1, # of connection points: 2
#     Edge 22, Type (0, 0), BuildingBlock: KIFKEQ_clean_linker_1, # of connection points: 2
#     Edge 23, Type (0, 0), BuildingBlock: KIFKEQ_clean_linker_1, # of connection points: 2
# Relax obj value: 0.108
# Max RMSD: 0.235
# Mean RMSD: 0.235
data_MOF--net-umf--node1-GALJAG_clean_sbu_0--edge1-KIFKEQ_clean_linker_1
_symmetry_space_group_name_H-M    P1
_symmetry_Int_Tables_number       1
_symmetry_cell_setting            triclinic
loop_
_symmetry_equiv_pos_as_xyz
'x, y, z'
_cell_length_a     29.371423
_cell_length_b     29.422607
_cell_length_c     53.757679
_cell_angle_alpha  90.003109
_cell_angle_beta   90.048628
_cell_angle_gamma 89.91722
loop_
_atom_site_label
_atom_site_type_symbol
_atom_site_fract_x
_atom_site_fract_y
_atom_site_fract_z
_atom_type_partial_charge
In0 In 0.05061 0.23264 0.14835 0.0
O1 O 0.07515 0.23184 0.10773 0.0
O2 O 0.00412 0.22437 0.11572 0.0
C3 C 0.1109 0.2385 0.18532 0.0
C4 C 0.02352 0.3182 0.15289 0.0
C5 C 0.02817 0.1475 0.15967 0.0
O6 O 0.124 0.2331 0.16293 0.0
O7 O 0.06827 0.24088 0.1884 0.0
O8 O 0.00199 0.18063 0.16475 0.0
O9 O 0.06508 0.15783 0.14895 0.0
C10 C 0.03494 0.22651 0.09939 0.0
O11 O -0.00305 0.28544 0.15786 0.0
O12 O 0.06293 0.30744 0.14547 0.0
In13 In 0.73649 0.05525 0.64752 0.0
O14 O 0.7394 0.07703 0.60656 0.0
O15 O 0.74517 0.00646 0.61593 0.0
C16 C 0.73061 0.11789 0.68327 0.0
C17 C 0.64997 0.03043 0.65128 0.0
C18 C 0.82101 0.03149 0.65988 0.0
O19 O 0.73806 0.12938 0.6608 0.0
O20 O 0.72588 0.07574 0.68697 0.0
O21 O 0.78734 0.00583 0.66457 0.0
O22 O 0.81149 0.06848 0.64902 0.0
C23 C 0.74422 0.03629 0.59902 0.0
O24 O 0.68195 0.00541 0.65946 0.0
O25 O 0.6622 0.06721 0.64108 0.0
In26 In 0.9169 0.73549 0.14661 0.0
O27 O 0.89423 0.73665 0.10566 0.0
O28 O 0.96494 0.74353 0.11472 0.0
C29 C 0.85568 0.73079 0.18308 0.0
C30 C 0.94228 0.64945 0.15128 0.0
C31 C 0.93989 0.82029 0.1583 0.0
O32 O 0.8432 0.73698 0.16063 0.0
O33 O 0.89814 0.72685 0.18643 0.0
O34 O 0.96562 0.78688 0.16356 0.0
O35 O 0.90322 0.81039 0.14718 0.0
C36 C 0.93488 0.74171 0.09794 0.0
O37 O 0.96911 0.68175 0.15676 0.0
O38 O 0.9034 0.6609 0.14327 0.0
In39 In 0.23324 0.91957 0.64862 0.0
O40 O 0.28715 0.97053 0.66022 0.0
O41 O 0.30751 0.90876 0.64202 0.0
C42 C 0.14825 0.94163 0.66086 0.0
C43 C 0.22548 0.93826 0.60011 0.0
C44 C 0.24122 0.8574 0.68448 0.0
O45 O 0.18146 0.96785 0.66567 0.0
O46 O 0.15845 0.90486 0.64996 0.0
O47 O 0.23392 0.84554 0.66204 0.0
O48 O 0.24452 0.89972 0.68812 0.0
C49 C 0.31935 0.94586 0.65201 0.0
O50 O 0.23097 0.89763 0.60768 0.0
O51 O 0.22364 0.96811 0.61698 0.0
In52 In 0.05672 0.73517 0.87003 0.0
O53 O 0.07716 0.73722 0.91119 0.0
O54 O 0.00674 0.74324 0.90114 0.0
C55 C 0.11973 0.72876 0.83452 0.0
C56 C 0.03194 0.64894 0.86585 0.0
C57 C 0.03443 0.82007 0.85808 0.0
O58 O 0.13113 0.73593 0.85705 0.0
O59 O 0.07746 0.72474 0.83064 0.0
O60 O 0.0084 0.78691 0.85293 0.0
O61 O 0.07106 0.80987 0.8692 0.0
C62 C 0.03609 0.74181 0.91833 0.0
O63 O 0.00699 0.68089 0.8576 0.0
O64 O 0.06858 0.66107 0.87634 0.0
In65 In 0.23797 0.0577 0.37188 0.0
O66 O 0.23517 0.0789 0.41294 0.0
O67 O 0.22926 0.00849 0.40326 0.0
C68 C 0.24342 0.12086 0.33639 0.0
C69 C 0.32456 0.03287 0.36799 0.0
C70 C 0.1535 0.03409 0.35944 0.0
O71 O 0.23567 0.132 0.35889 0.0
O72 O 0.24873 0.07881 0.33254 0.0
O73 O 0.18725 0.0085 0.35462 0.0
O74 O 0.16292 0.0709 0.37046 0.0
C75 C 0.23029 0.03807 0.42029 0.0
O76 O 0.29262 0.008 0.35971 0.0
O77 O 0.31227 0.06952 0.37836 0.0
In78 In 0.92396 0.23247 0.86963 0.0
O79 O 0.90172 0.23046 0.91051 0.0
O80 O 0.97257 0.22473 0.90149 0.0
C81 C 0.86185 0.23889 0.83356 0.0
C82 C 0.94919 0.31862 0.86555 0.0
C83 C 0.94683 0.14756 0.85799 0.0
O84 O 0.84987 0.23232 0.85604 0.0
O85 O 0.90425 0.24224 0.82998 0.0
O86 O 0.97294 0.18077 0.8531 0.0
O87 O 0.90983 0.15771 0.86872 0.0
C88 C 0.94246 0.22609 0.91825 0.0
O89 O 0.97437 0.28653 0.85768 0.0
O90 O 0.91213 0.30666 0.87559 0.0
In91 In 0.7416 0.92143 0.3701 0.0
O92 O 0.74368 0.89885 0.41094 0.0
O93 O 0.75099 0.96945 0.40199 0.0
C94 C 0.73445 0.85938 0.3341 0.0
C95 C 0.65537 0.94773 0.36666 0.0
C96 C 0.8265 0.94399 0.35804 0.0
O97 O 0.74175 0.84747 0.35653 0.0
O98 O 0.73064 0.90168 0.33053 0.0
O99 O 0.79314 0.97013 0.35327 0.0
O100 O 0.8165 0.90707 0.36881 0.0
C101 C 0.74911 0.93934 0.41872 0.0
O102 O 0.68754 0.97251 0.3586 0.0
O103 O 0.66729 0.91048 0.3765 0.0
H104 H 0.07711 0.3876 0.16759 0.0
H105 H 0.9405 0.35581 0.14391 0.0
H106 H 0.05729 0.46767 0.17026 0.0
H107 H 0.92112 0.43636 0.14444 0.0
H108 H 0.88646 0.58021 0.16371 0.0
H109 H 0.90553 0.50005 0.16724 0.0
H110 H 0.04463 0.5306 0.1464 0.0
H111 H 0.02576 0.61117 0.14499 0.0
C112 C 0.04281 0.39807 0.1628 0.0
C113 C 0.01022 0.36595 0.15555 0.0
C114 C 0.03149 0.44401 0.16406 0.0
C115 C -0.01232 0.45898 0.1573 0.0
C116 C 0.95495 0.42635 0.15027 0.0
C117 C 0.96598 0.38017 0.14977 0.0
C118 C 0.92118 0.56955 0.16015 0.0
C119 C 0.95475 0.60149 0.1541 0.0
C120 C 0.93211 0.52356 0.16193 0.0
C121 C 0.97661 0.50837 0.15691 0.0
C122 C 0.01021 0.54079 0.15094 0.0
C123 C -0.00052 0.58699 0.14992 0.0
H124 H 0.35515 0.0257 0.66923 0.0
H125 H 0.39245 0.89447 0.63933 0.0
H126 H 0.43575 0.04636 0.67156 0.0
H127 H 0.47246 0.9152 0.64143 0.0
H128 H 0.61372 0.95179 0.66962 0.0
H129 H 0.53307 0.93179 0.67234 0.0
H130 H 0.49688 0.06186 0.64063 0.0
H131 H 0.57709 0.082 0.63815 0.0
C132 C 0.38053 0.00132 0.66323 0.0
C133 C 0.36763 0.95862 0.65401 0.0
C134 C 0.42653 0.01314 0.6645 0.0
C135 C 0.46026 0.9823 0.65672 0.0
C136 C 0.44724 0.93939 0.64787 0.0
C137 C 0.4014 0.9277 0.64648 0.0
C138 C 0.58846 0.9761 0.66335 0.0
C139 C 0.60158 0.01828 0.65355 0.0
C140 C 0.54242 0.96465 0.66485 0.0
C141 C 0.50882 -0.00467 0.6567 0.0
C142 C 0.52202 0.03782 0.64734 0.0
C143 C 0.56795 0.04915 0.64573 0.0
H144 H 0.8969 0.3914 0.8776 0.0
H145 H 0.02874 0.35469 0.84806 0.0
H146 H 0.91701 0.47141 0.87511 0.0
H147 H 0.04876 0.43525 0.84532 0.0
H148 H 0.95339 0.61263 0.84717 0.0
H149 H 0.93361 0.53204 0.84427 0.0
H150 H 0.06381 0.49623 0.87627 0.0
H151 H 0.08371 0.5763 0.87892 0.0
C152 C 0.93012 0.40048 0.87043 0.0
C153 C 0.96143 0.36688 0.86316 0.0
C154 C 0.94144 0.44631 0.86881 0.0
C155 C 0.98437 0.45947 0.85998 0.0
C156 C 0.01553 0.42592 0.85237 0.0
C157 C 0.00408 0.37994 0.85388 0.0
C158 C 0.97777 0.58746 0.85345 0.0
C159 C 0.01991 0.60063 0.8634 0.0
C160 C 0.96646 0.54146 0.85184 0.0
C161 C -0.00275 0.50799 0.86003 0.0
C162 C 0.0397 0.52126 0.86952 0.0
C163 C 0.05088 0.56713 0.87123 0.0
H164 H 0.39742 0.08407 0.3814 0.0
H165 H 0.36091 0.95448 0.34925 0.0
H166 H 0.47766 0.06383 0.37879 0.0
H167 H 0.44157 0.93439 0.3464 0.0
H168 H 0.58234 0.89618 0.37902 0.0
H169 H 0.5023 0.91709 0.37711 0.0
H170 H 0.53878 0.04881 0.34778 0.0
H171 H 0.61942 0.02795 0.34992 0.0
C172 C 0.40659 0.05133 0.37364 0.0
C173 C 0.37298 0.02067 0.36566 0.0
C174 C 0.45254 0.03995 0.37196 0.0
C175 C 0.46578 -0.0024 0.36237 0.0
C176 C 0.4322 0.96713 0.35407 0.0
C177 C 0.38614 0.97863 0.35564 0.0
C178 C 0.57334 0.92957 0.37208 0.0
C179 C 0.60706 0.96058 0.36472 0.0
C180 C 0.52747 0.94137 0.3708 0.0
C181 C 0.51438 0.98448 0.36224 0.0
C182 C 0.54805 0.01542 0.35463 0.0
C183 C 0.59408 0.00349 0.35578 0.0
H184 H 0.8893 0.24425 0.95902 0.0
H185 H 0.02482 0.2031 0.93751 0.0
H186 H 0.91281 0.24424 1.00264 0.0
H187 H 0.04792 0.20138 0.98091 0.0
H188 H 0.08779 0.24916 0.05908 0.0
H189 H 0.06498 0.24897 0.01528 0.0
H190 H 0.93315 0.19581 0.03592 0.0
H191 H 0.95535 0.19771 0.0794 0.0
C192 C 0.92392 0.2347 0.96365 0.0
C193 C 0.95517 0.22377 0.94486 0.0
C194 C 0.93745 0.23449 0.98865 0.0
C195 C 0.98243 0.2229 0.99539 0.0
C196 C 0.01335 0.21134 0.97649 0.0
C197 C -6e-05 0.21196 0.95157 0.0
C198 C 0.05408 0.23729 0.05415 0.0
C199 C 0.02334 0.22369 0.07265 0.0
C200 C 0.04096 0.237 0.02906 0.0
C201 C -0.00302 0.22266 0.02199 0.0
C202 C 0.96682 0.20808 0.04061 0.0
C203 C 0.97974 0.20881 0.06558 0.0
H204 H 0.76927 0.95421 0.58051 0.0
H205 H 0.72669 0.08843 0.55773 0.0
H206 H 0.77276 0.93035 0.53731 0.0
H207 H 0.72847 0.0641 0.51426 0.0
H208 H 0.77688 0.01987 0.438 0.0
H209 H 0.77779 0.04347 0.4813 0.0
H210 H 0.72588 0.91185 0.50295 0.0
H211 H 0.7267 0.88771 0.45943 0.0
C212 C 0.76046 0.97864 0.56621 0.0
C213 C 0.74767 0.02325 0.57251 0.0
C214 C 0.76211 0.9648 0.5414 0.0
C215 C 0.75061 -0.00493 0.52218 0.0
C216 C 0.73816 0.03994 0.52851 0.0
C217 C 0.73693 0.05394 0.55342 0.0
C218 C 0.76591 -0.00417 0.45203 0.0
C219 C 0.75168 0.9519 0.44533 0.0
C220 C 0.76606 0.00954 0.47688 0.0
C221 C 0.75154 0.97982 0.49572 0.0
C222 C 0.73784 0.93554 0.48901 0.0
C223 C 0.73814 0.92166 0.46407 0.0
H224 H 0.01558 0.77007 0.07923 0.0
H225 H 0.88382 0.71963 0.0568 0.0
H226 H 0.03992 0.77197 0.03612 0.0
H227 H 0.90877 0.71984 0.01337 0.0
H228 H 0.95308 0.76562 0.93632 0.0
H229 H 0.9279 0.7675 0.97935 0.0
H230 H 0.06151 0.72339 1.00313 0.0
H231 H 0.08713 0.72321 0.95989 0.0
C232 C -0.00821 0.7592 0.06502 0.0
C233 C 0.94776 0.74459 0.0714 0.0
C234 C 0.00594 0.75993 0.04026 0.0
C235 C 0.9766 0.74563 0.02117 0.0
C236 C 0.93219 0.73158 0.02753 0.0
C237 C 0.91784 0.73129 0.05241 0.0
C238 C 0.97719 0.75652 0.95075 0.0
C239 C 0.02215 0.7443 0.94474 0.0
C240 C 0.96258 0.75723 0.97546 0.0
C241 C -0.00754 0.74535 0.99482 0.0
C242 C 0.03765 0.73338 0.98877 0.0
C243 C 0.05239 0.73308 0.96399 0.0
H244 H 0.20502 0.95585 0.43842 0.0
H245 H 0.24797 0.08947 0.46182 0.0
H246 H 0.2015 0.93133 0.48151 0.0
H247 H 0.24616 0.06446 0.50519 0.0
H248 H 0.19775 0.01922 0.58125 0.0
H249 H 0.1968 0.04353 0.53806 0.0
H250 H 0.24846 0.91204 0.51574 0.0
H251 H 0.2477 0.8872 0.55913 0.0
C252 C 0.2139 0.98001 0.45283 0.0
C253 C 0.22681 0.02464 0.44674 0.0
C254 C 0.21223 0.96578 0.47758 0.0
C255 C 0.22384 -0.00431 0.49693 0.0
C256 C 0.23639 0.04059 0.49082 0.0
C257 C 0.23764 0.05497 0.46598 0.0
C258 C 0.20865 -0.00464 0.56709 0.0
C259 C 0.22283 0.95126 0.57357 0.0
C260 C 0.20848 0.00948 0.54231 0.0
C261 C 0.22292 0.98001 0.52332 0.0
C262 C 0.23657 0.93556 0.5298 0.0
C263 C 0.23629 0.92127 0.55466 0.0
H264 H 0.08843 0.25586 0.2332 0.0
H265 H 0.20293 0.22074 0.18664 0.0
H266 H 0.13331 0.24114 0.26997 0.0
H267 H 0.24921 0.20761 0.22386 0.0
H268 H 0.26942 0.10431 0.289 0.0
H269 H 0.2486 0.1469 0.2523 0.0
H270 H 0.19254 0.25326 0.29867 0.0
H271 H 0.21195 0.20897 0.33575 0.0
C272 C 0.12373 0.24608 0.23083 0.0
C273 C 0.14185 0.23835 0.20702 0.0
C274 C 0.14982 0.23817 0.25204 0.0
C275 C 0.19489 0.22254 0.25003 0.0
C276 C 0.21429 0.21871 0.22612 0.0
C277 C 0.18793 0.22641 0.20477 0.0
C278 C 0.25351 0.13725 0.29144 0.0
C279 C 0.24121 0.15279 0.31522 0.0
C280 C 0.24196 0.16207 0.27028 0.0
C281 C 0.21799 0.20326 0.27238 0.0
C282 C 0.20999 0.22109 0.29635 0.0
C283 C 0.22137 0.19596 0.31762 0.0
H284 H 0.7706 0.21758 0.83301 0.0
H285 H 0.88173 0.25922 0.78571 0.0
H286 H 0.72388 0.2032 0.79611 0.0
H287 H 0.83658 0.24319 0.74925 0.0
H288 H 0.75835 0.20719 0.68392 0.0
H289 H 0.77644 0.25213 0.72094 0.0
H290 H 0.72668 0.14309 0.7675 0.0
H291 H 0.70701 0.09985 0.73089 0.0
C292 C 0.78471 0.22445 0.81479 0.0
C293 C 0.83009 0.23852 0.81223 0.0
C294 C 0.75812 0.21601 0.79362 0.0
C295 C 0.77663 0.22115 0.76957 0.0
C296 C 0.82075 0.23907 0.76728 0.0
C297 C 0.84702 0.24777 0.78832 0.0
C298 C 0.75004 0.19365 0.7021 0.0
C299 C 0.73229 0.14964 0.70455 0.0
C300 C 0.76067 0.21918 0.72333 0.0
C301 C 0.75405 0.20091 0.74733 0.0
C302 C 0.73218 0.15865 0.7495 0.0
C303 C 0.72133 0.13346 0.72839 0.0
H304 H 0.71207 0.87883 0.28644 0.0
H305 H 0.75785 0.76877 0.33339 0.0
H306 H 0.7286 0.83427 0.24983 0.0
H307 H 0.77278 0.72266 0.29637 0.0
H308 H 0.87578 0.70899 0.23072 0.0
H309 H 0.83267 0.72774 0.26754 0.0
H310 H 0.7209 0.77384 0.22152 0.0
H311 H 0.7656 0.75659 0.18427 0.0
C312 C 0.72452 0.84444 0.28895 0.0
C313 C 0.73479 0.82769 0.31278 0.0
C314 C 0.73352 0.81852 0.26783 0.0
C315 C 0.75281 0.77497 0.26999 0.0
C316 C 0.75891 0.7565 0.29399 0.0
C317 C 0.75014 0.78274 0.31522 0.0
C318 C 0.84165 0.72233 0.22839 0.0
C319 C 0.82451 0.73244 0.20462 0.0
C320 C 0.81654 0.73263 0.24963 0.0
C321 C 0.77344 0.75311 0.24765 0.0
C322 C 0.75444 0.75907 0.22375 0.0
C323 C 0.77985 0.74895 0.20239 0.0
H324 H 0.22 0.76629 0.68503 0.0
H325 H 0.2629 0.87706 0.7322 0.0
H326 H 0.20595 0.71974 0.72196 0.0
H327 H 0.24711 0.83212 0.76871 0.0
H328 H 0.20952 0.75542 0.83411 0.0
H329 H 0.25513 0.77239 0.79718 0.0
H330 H 0.14582 0.72316 0.75045 0.0
H331 H 0.10194 0.70458 0.78697 0.0
C332 C 0.22725 0.78035 0.70323 0.0
C333 C 0.24148 0.82561 0.70576 0.0
C334 C 0.21898 0.75385 0.72442 0.0
C335 C 0.22441 0.77237 0.74845 0.0
C336 C 0.24271 0.81629 0.75069 0.0
C337 C 0.25126 0.84245 0.72962 0.0
C338 C 0.19607 0.74698 0.81592 0.0
C339 C 0.1518 0.72974 0.81338 0.0
C340 C 0.22198 0.75695 0.79473 0.0
C341 C 0.20384 0.75019 0.7707 0.0
C342 C 0.1613 0.72876 0.76847 0.0
C343 C 0.13573 0.71855 0.78954 0.0
H344 H 0.08036 0.07284 0.15122 0.0
H345 H 0.94919 0.11441 0.17965 0.0
H346 H 0.05879 -0.00642 0.15568 0.0
H347 H 0.9278 0.03461 0.18463 0.0
H348 H 0.88811 0.89527 0.15005 0.0
H349 H 0.90978 0.97435 0.15519 0.0
H350 H 0.04032 0.93235 0.18446 0.0
H351 H 0.01881 0.85271 0.17879 0.0
C352 C 0.0471 0.065 0.15878 0.0
C353 C 0.01622 0.09978 0.16482 0.0
C354 C 0.03491 0.01952 0.16155 0.0
C355 C -0.00846 0.0078 0.17043 0.0
C356 C 0.96128 0.04264 0.17744 0.0
C357 C 0.97353 0.08826 0.17468 0.0
C358 C 0.9213 0.90285 0.15781 0.0
C359 C 0.95201 0.86786 0.16376 0.0
C360 C 0.93354 0.94822 0.16098 0.0
C361 C 0.9768 0.95963 0.17018 0.0
C362 C 0.00692 0.92456 0.17705 0.0
C363 C -0.0054 0.87903 0.17389 0.0
H364 H 0.1154 0.01999 0.68168 0.0
H365 H 0.07335 0.88988 0.65238 0.0
H366 H 0.03555 0.04151 0.68703 0.0
H367 H -0.00597 0.91163 0.65715 0.0
H368 H 0.85287 0.95193 0.67987 0.0
H369 H 0.9325 0.92977 0.68571 0.0
H370 H 0.97541 0.06068 0.65787 0.0
H371 H 0.89639 0.08298 0.6526 0.0
C372 C 0.08913 -0.00411 0.6766 0.0
C373 C 0.10053 0.9535 0.66637 0.0
C374 C 0.04347 0.00823 0.67958 0.0
C375 C 0.00847 0.97836 0.67238 0.0
C376 C 0.02008 0.93521 0.66317 0.0
C377 C 0.0656 0.92292 0.66022 0.0
C378 C 0.8794 0.97607 0.67535 0.0
C379 C 0.8685 0.01896 0.66557 0.0
C380 C 0.92493 0.96339 0.6786 0.0
C381 C 0.96026 -0.00658 0.67216 0.0
C382 C 0.9491 0.03696 0.66334 0.0
C383 C 0.90374 0.04958 0.66009 0.0
H384 H 0.02598 0.11462 0.83799 0.0
H385 H 0.89465 0.07291 0.86596 0.0
H386 H 0.04736 0.03485 0.83255 0.0
H387 H 0.9162 -0.0063 0.86107 0.0
H388 H 0.95582 0.85318 0.83747 0.0
H389 H 0.93463 0.933 0.83202 0.0
H390 H 0.06523 0.97387 0.86154 0.0
H391 H 0.0866 0.8946 0.86645 0.0
C392 C 0.0016 0.08845 0.84276 0.0
C393 C 0.95887 0.09991 0.85262 0.0
C394 C 0.01385 0.04284 0.83973 0.0
C395 C 0.98352 0.00797 0.84648 0.0
C396 C 0.94013 0.01967 0.85539 0.0
C397 C 0.92794 0.06512 0.85841 0.0
C398 C 0.98012 0.8793 0.84246 0.0
C399 C 0.02263 0.86774 0.85261 0.0
C400 C 0.96799 0.92493 0.83942 0.0
C401 C -0.00181 0.95974 0.84646 0.0
C402 C 0.0414 0.94795 0.85564 0.0
C403 C 0.05347 0.90247 0.85867 0.0
H404 H 0.85906 0.0228 0.33769 0.0
H405 H 0.90162 0.89223 0.36629 0.0
H406 H 0.93883 0.04452 0.33247 0.0
H407 H 0.98085 0.91414 0.36165 0.0
H408 H 0.12183 0.95484 0.33907 0.0
H409 H 0.04226 0.93278 0.33316 0.0
H410 H -0.001 0.06322 0.36167 0.0
H411 H 0.07797 0.08544 0.36701 0.0
C412 C 0.88542 -0.00135 0.34264 0.0
C413 C 0.87418 0.95606 0.35263 0.0
C414 C 0.93103 0.01109 0.33974 0.0
C415 C 0.96616 0.98113 0.34677 0.0
C416 C 0.95471 0.93781 0.35575 0.0
C417 C 0.90923 0.92542 0.35863 0.0
C418 C 0.09524 0.97891 0.34373 0.0
C419 C 0.10603 0.02164 0.35371 0.0
C420 C 0.04974 0.96628 0.34044 0.0
C421 C 0.01432 -0.0038 0.34705 0.0
C422 C 0.02538 0.03959 0.35608 0.0
C423 C 0.0707 0.05216 0.35936 0.0
loop_
_geom_bond_atom_site_label_1
_geom_bond_atom_site_label_2
_geom_bond_distance
_geom_bond_site_symmetry_2
_ccdc_geom_bond_type
In0 O1 2.294 . S
In0 O2 2.326 . S
In0 O6 2.266 . S
In0 O7 2.326 . S
In0 O8 2.266 . S
In0 O9 2.326 . S
In0 O11 2.294 . S
In0 O12 2.326 . S
O1 In0 2.294 . S
O1 C10 1.240 . S
O2 In0 2.326 . S
O2 C10 1.252 . S
C3 O6 1.252 . S
C3 O7 1.260 . S
C4 O11 1.240 . S
C4 O12 1.252 . S
C5 O8 1.252 . S
C5 O9 1.260 . S
O6 In0 2.266 . S
O6 C3 1.252 . S
O7 In0 2.326 . S
O7 C3 1.260 . S
O8 In0 2.266 . S
O8 C5 1.252 . S
O9 In0 2.326 . S
O9 C5 1.260 . S
C10 O1 1.240 . S
C10 O2 1.252 . S
O11 In0 2.294 . S
O11 C4 1.240 . S
O12 In0 2.326 . S
O12 C4 1.252 . S
In13 O14 2.294 . S
In13 O15 2.326 . S
In13 O19 2.266 . S
In13 O20 2.326 . S
In13 O21 2.266 . S
In13 O22 2.326 . S
In13 O24 2.294 . S
In13 O25 2.326 . S
O14 In13 2.294 . S
O14 C23 1.240 . S
O15 In13 2.326 . S
O15 C23 1.252 . S
C16 O19 1.252 . S
C16 O20 1.260 . S
C17 O24 1.240 . S
C17 O25 1.252 . S
C18 O21 1.252 . S
C18 O22 1.260 . S
O19 In13 2.266 . S
O19 C16 1.252 . S
O20 In13 2.326 . S
O20 C16 1.260 . S
O21 In13 2.266 . S
O21 C18 1.252 . S
O22 In13 2.326 . S
O22 C18 1.260 . S
C23 O14 1.240 . S
C23 O15 1.252 . S
O24 In13 2.294 . S
O24 C17 1.240 . S
O25 In13 2.326 . S
O25 C17 1.252 . S
In26 O27 2.294 . S
In26 O28 2.326 . S
In26 O32 2.266 . S
In26 O33 2.326 . S
In26 O34 2.266 . S
In26 O35 2.326 . S
In26 O37 2.294 . S
In26 O38 2.326 . S
O27 In26 2.294 . S
O27 C36 1.240 . S
O28 In26 2.326 . S
O28 C36 1.252 . S
C29 O32 1.252 . S
C29 O33 1.260 . S
C30 O37 1.240 . S
C30 O38 1.252 . S
C31 O34 1.252 . S
C31 O35 1.260 . S
O32 In26 2.266 . S
O32 C29 1.252 . S
O33 In26 2.326 . S
O33 C29 1.260 . S
O34 In26 2.266 . S
O34 C31 1.252 . S
O35 In26 2.326 . S
O35 C31 1.260 . S
C36 O27 1.240 . S
C36 O28 1.252 . S
O37 In26 2.294 . S
O37 C30 1.240 . S
O38 In26 2.326 . S
O38 C30 1.252 . S
In39 O40 2.294 . S
In39 O41 2.326 . S
In39 O45 2.266 . S
In39 O46 2.326 . S
In39 O47 2.266 . S
In39 O48 2.326 . S
In39 O50 2.294 . S
In39 O51 2.326 . S
O40 In39 2.294 . S
O40 C49 1.240 . S
O41 In39 2.326 . S
O41 C49 1.252 . S
C42 O45 1.252 . S
C42 O46 1.260 . S
C43 O50 1.240 . S
C43 O51 1.252 . S
C44 O47 1.252 . S
C44 O48 1.260 . S
O45 In39 2.266 . S
O45 C42 1.252 . S
O46 In39 2.326 . S
O46 C42 1.260 . S
O47 In39 2.266 . S
O47 C44 1.252 . S
O48 In39 2.326 . S
O48 C44 1.260 . S
C49 O40 1.240 . S
C49 O41 1.252 . S
O50 In39 2.294 . S
O50 C43 1.240 . S
O51 In39 2.326 . S
O51 C43 1.252 . S
In52 O53 2.294 . S
In52 O54 2.326 . S
In52 O58 2.266 . S
In52 O59 2.326 . S
In52 O60 2.266 . S
In52 O61 2.326 . S
In52 O63 2.294 . S
In52 O64 2.326 . S
O53 In52 2.294 . S
O53 C62 1.240 . S
O54 In52 2.326 . S
O54 C62 1.252 . S
C55 O58 1.252 . S
C55 O59 1.260 . S
C56 O63 1.240 . S
C56 O64 1.252 . S
C57 O60 1.252 . S
C57 O61 1.260 . S
O58 In52 2.266 . S
O58 C55 1.252 . S
O59 In52 2.326 . S
O59 C55 1.260 . S
O60 In52 2.266 . S
O60 C57 1.252 . S
O61 In52 2.326 . S
O61 C57 1.260 . S
C62 O53 1.240 . S
C62 O54 1.252 . S
O63 In52 2.294 . S
O63 C56 1.240 . S
O64 In52 2.326 . S
O64 C56 1.252 . S
In65 O66 2.294 . S
In65 O67 2.326 . S
In65 O71 2.266 . S
In65 O72 2.326 . S
In65 O73 2.266 . S
In65 O74 2.326 . S
In65 O76 2.294 . S
In65 O77 2.326 . S
O66 In65 2.294 . S
O66 C75 1.240 . S
O67 In65 2.326 . S
O67 C75 1.252 . S
C68 O71 1.252 . S
C68 O72 1.260 . S
C69 O76 1.240 . S
C69 O77 1.252 . S
C70 O73 1.252 . S
C70 O74 1.260 . S
O71 In65 2.266 . S
O71 C68 1.252 . S
O72 In65 2.326 . S
O72 C68 1.260 . S
O73 In65 2.266 . S
O73 C70 1.252 . S
O74 In65 2.326 . S
O74 C70 1.260 . S
C75 O66 1.240 . S
C75 O67 1.252 . S
O76 In65 2.294 . S
O76 C69 1.240 . S
O77 In65 2.326 . S
O77 C69 1.252 . S
In78 O79 2.294 . S
In78 O80 2.326 . S
In78 O84 2.266 . S
In78 O85 2.326 . S
In78 O86 2.266 . S
In78 O87 2.326 . S
In78 O89 2.294 . S
In78 O90 2.326 . S
O79 In78 2.294 . S
O79 C88 1.240 . S
O80 In78 2.326 . S
O80 C88 1.252 . S
C81 O84 1.252 . S
C81 O85 1.260 . S
C82 O89 1.240 . S
C82 O90 1.252 . S
C83 O86 1.252 . S
C83 O87 1.260 . S
O84 In78 2.266 . S
O84 C81 1.252 . S
O85 In78 2.326 . S
O85 C81 1.260 . S
O86 In78 2.266 . S
O86 C83 1.252 . S
O87 In78 2.326 . S
O87 C83 1.260 . S
C88 O79 1.240 . S
C88 O80 1.252 . S
O89 In78 2.294 . S
O89 C82 1.240 . S
O90 In78 2.326 . S
O90 C82 1.252 . S
In91 O92 2.294 . S
In91 O93 2.326 . S
In91 O97 2.266 . S
In91 O98 2.326 . S
In91 O99 2.266 . S
In91 O100 2.326 . S
In91 O102 2.294 . S
In91 O103 2.326 . S
O92 In91 2.294 . S
O92 C101 1.240 . S
O93 In91 2.326 . S
O93 C101 1.252 . S
C94 O97 1.252 . S
C94 O98 1.260 . S
C95 O102 1.240 . S
C95 O103 1.252 . S
C96 O99 1.252 . S
C96 O100 1.260 . S
O97 In91 2.266 . S
O97 C94 1.252 . S
O98 In91 2.326 . S
O98 C94 1.260 . S
O99 In91 2.266 . S
O99 C96 1.252 . S
O100 In91 2.326 . S
O100 C96 1.260 . S
C101 O92 1.240 . S
C101 O93 1.252 . S
O102 In91 2.294 . S
O102 C95 1.240 . S
O103 In91 2.326 . S
O103 C95 1.252 . S
H104 C112 0.950 . S
H105 C117 0.950 . S
H106 C114 0.950 . S
H107 C116 0.950 . S
H108 C118 0.950 . S
H109 C120 0.950 . S
H110 C122 0.950 . S
H111 C123 0.950 . S
C112 H104 0.950 . S
C112 C113 1.386 . S
C112 C114 1.391 . S
C113 C112 1.386 . S
C113 C117 1.393 1_455 S
C114 H106 0.950 . S
C114 C112 1.391 . S
C114 C115 1.400 . S
C115 C114 1.400 . S
C115 C116 1.398 1_455 S
C115 C121 1.491 1_455 S
C116 H107 0.950 . S
C116 C115 1.398 1_655 S
C116 C117 1.391 . S
C117 H105 0.950 . S
C117 C113 1.393 1_655 S
C117 C116 1.391 . S
C118 H108 0.950 . S
C118 C119 1.386 . S
C118 C120 1.391 . S
C119 C118 1.386 . S
C119 C123 1.393 1_655 S
C120 H109 0.950 . S
C120 C118 1.391 . S
C120 C121 1.400 . S
C121 C115 1.491 1_655 S
C121 C120 1.400 . S
C121 C122 1.398 1_655 S
C122 H110 0.950 . S
C122 C121 1.398 1_455 S
C122 C123 1.391 . S
C123 H111 0.950 . S
C123 C119 1.393 1_455 S
C123 C122 1.391 . S
H124 C132 0.950 . S
H125 C137 0.950 . S
H126 C134 0.950 . S
H127 C136 0.950 . S
H128 C138 0.950 . S
H129 C140 0.950 . S
H130 C142 0.950 . S
H131 C143 0.950 . S
C132 H124 0.950 . S
C132 C133 1.386 1_545 S
C132 C134 1.391 . S
C133 C132 1.386 1_565 S
C133 C137 1.393 . S
C134 H126 0.950 . S
C134 C132 1.391 . S
C134 C135 1.400 1_545 S
C135 C134 1.400 1_565 S
C135 C136 1.398 . S
C135 C141 1.491 1_565 S
C136 H127 0.950 . S
C136 C135 1.398 . S
C136 C137 1.391 . S
C137 H125 0.950 . S
C137 C133 1.393 . S
C137 C136 1.391 . S
C138 H128 0.950 . S
C138 C139 1.386 1_565 S
C138 C140 1.391 . S
C139 C138 1.386 1_545 S
C139 C143 1.393 . S
C140 H129 0.950 . S
C140 C138 1.391 . S
C140 C141 1.400 1_565 S
C141 C135 1.491 1_545 S
C141 C140 1.400 1_545 S
C141 C142 1.398 . S
C142 H130 0.950 . S
C142 C141 1.398 . S
C142 C143 1.391 . S
C143 H131 0.950 . S
C143 C139 1.393 . S
C143 C142 1.391 . S
H144 C152 0.950 . S
H145 C157 0.950 . S
H146 C154 0.950 . S
H147 C156 0.950 . S
H148 C158 0.950 . S
H149 C160 0.950 . S
H150 C162 0.950 . S
H151 C163 0.950 . S
C152 H144 0.950 . S
C152 C153 1.386 . S
C152 C154 1.391 . S
C153 C152 1.386 . S
C153 C157 1.393 . S
C154 H146 0.950 . S
C154 C152 1.391 . S
C154 C155 1.400 . S
C155 C154 1.400 . S
C155 C156 1.398 1_655 S
C155 C161 1.491 1_655 S
C156 H147 0.950 . S
C156 C155 1.398 1_455 S
C156 C157 1.391 1_455 S
C157 H145 0.950 . S
C157 C153 1.393 . S
C157 C156 1.391 1_655 S
C158 H148 0.950 . S
C158 C159 1.386 . S
C158 C160 1.391 . S
C159 C158 1.386 . S
C159 C163 1.393 . S
C160 H149 0.950 . S
C160 C158 1.391 . S
C160 C161 1.400 . S
C161 C155 1.491 1_455 S
C161 C160 1.400 . S
C161 C162 1.398 1_455 S
C162 H150 0.950 . S
C162 C161 1.398 1_655 S
C162 C163 1.391 1_655 S
C163 H151 0.950 . S
C163 C159 1.393 . S
C163 C162 1.391 1_455 S
H164 C172 0.950 . S
H165 C177 0.950 . S
H166 C174 0.950 . S
H167 C176 0.950 . S
H168 C178 0.950 . S
H169 C180 0.950 . S
H170 C182 0.950 . S
H171 C183 0.950 . S
C172 H164 0.950 . S
C172 C173 1.386 . S
C172 C174 1.391 . S
C173 C172 1.386 . S
C173 C177 1.393 1_545 S
C174 H166 0.950 . S
C174 C172 1.391 . S
C174 C175 1.400 . S
C175 C174 1.400 . S
C175 C176 1.398 1_545 S
C175 C181 1.491 1_545 S
C176 H167 0.950 . S
C176 C175 1.398 1_565 S
C176 C177 1.391 . S
C177 H165 0.950 . S
C177 C173 1.393 1_565 S
C177 C176 1.391 . S
C178 H168 0.950 . S
C178 C179 1.386 . S
C178 C180 1.391 . S
C179 C178 1.386 . S
C179 C183 1.393 1_565 S
C180 H169 0.950 . S
C180 C178 1.391 . S
C180 C181 1.400 . S
C181 C175 1.491 1_565 S
C181 C180 1.400 . S
C181 C182 1.398 1_565 S
C182 H170 0.950 . S
C182 C181 1.398 1_545 S
C182 C183 1.391 . S
C183 H171 0.950 . S
C183 C179 1.393 1_545 S
C183 C182 1.391 . S
H184 C192 0.950 . S
H185 C197 0.950 . S
H186 C194 0.950 . S
H187 C196 0.950 1_455 S
H188 C198 0.950 . S
H189 C200 0.950 . S
H190 C202 0.950 1_655 S
H191 C203 0.950 . S
C192 H184 0.950 . S
C192 C193 1.386 . S
C192 C194 1.391 . S
C193 C192 1.386 . S
C193 C197 1.393 . S
C194 H186 0.950 . S
C194 C192 1.391 . S
C194 C195 1.400 . S
C195 C194 1.400 . S
C195 C196 1.398 . S
C195 C201 1.491 1_656 S
C196 H187 0.950 1_655 S
C196 C195 1.398 . S
C196 C197 1.391 . S
C197 H185 0.950 . S
C197 C193 1.393 . S
C197 C196 1.391 . S
C198 H188 0.950 . S
C198 C199 1.386 . S
C198 C200 1.391 . S
C199 C198 1.386 . S
C199 C203 1.393 . S
C200 H189 0.950 . S
C200 C198 1.391 . S
C200 C201 1.400 . S
C201 C195 1.491 1_454 S
C201 C200 1.400 . S
C201 C202 1.398 . S
C202 H190 0.950 1_455 S
C202 C201 1.398 . S
C202 C203 1.391 . S
C203 H191 0.950 . S
C203 C199 1.393 . S
C203 C202 1.391 . S
H204 C212 0.950 . S
H205 C217 0.950 . S
H206 C214 0.950 . S
H207 C216 0.950 . S
H208 C218 0.950 . S
H209 C220 0.950 . S
H210 C222 0.950 . S
H211 C223 0.950 . S
C212 H204 0.950 . S
C212 C213 1.386 . S
C212 C214 1.391 1_545 S
C213 C212 1.386 . S
C213 C217 1.393 . S
C214 H206 0.950 . S
C214 C212 1.391 1_565 S
C214 C215 1.400 1_565 S
C215 C214 1.400 1_545 S
C215 C216 1.398 . S
C215 C221 1.491 1_545 S
C216 H207 0.950 . S
C216 C215 1.398 . S
C216 C217 1.391 . S
C217 H205 0.950 . S
C217 C213 1.393 . S
C217 C216 1.391 . S
C218 H208 0.950 . S
C218 C219 1.386 . S
C218 C220 1.391 1_565 S
C219 C218 1.386 . S
C219 C223 1.393 . S
C220 H209 0.950 . S
C220 C218 1.391 1_545 S
C220 C221 1.400 1_545 S
C221 C215 1.491 1_565 S
C221 C220 1.400 1_565 S
C221 C222 1.398 . S
C222 H210 0.950 . S
C222 C221 1.398 . S
C222 C223 1.391 . S
C223 H211 0.950 . S
C223 C219 1.393 . S
C223 C222 1.391 . S
H224 C232 0.950 . S
H225 C237 0.950 . S
H226 C234 0.950 . S
H227 C236 0.950 . S
H228 C238 0.950 . S
H229 C240 0.950 . S
H230 C242 0.950 . S
H231 C243 0.950 . S
C232 H224 0.950 . S
C232 C233 1.386 . S
C232 C234 1.391 . S
C233 C232 1.386 . S
C233 C237 1.393 . S
C234 H226 0.950 . S
C234 C232 1.391 . S
C234 C235 1.400 . S
C235 C234 1.400 . S
C235 C236 1.398 . S
C235 C241 1.491 1_654 S
C236 H227 0.950 . S
C236 C235 1.398 . S
C236 C237 1.391 . S
C237 H225 0.950 . S
C237 C233 1.393 . S
C237 C236 1.391 . S
C238 H228 0.950 . S
C238 C239 1.386 . S
C238 C240 1.391 . S
C239 C238 1.386 . S
C239 C243 1.393 . S
C240 H229 0.950 . S
C240 C238 1.391 . S
C240 C241 1.400 . S
C241 C235 1.491 1_456 S
C241 C240 1.400 . S
C241 C242 1.398 . S
C242 H230 0.950 . S
C242 C241 1.398 . S
C242 C243 1.391 . S
C243 H231 0.950 . S
C243 C239 1.393 . S
C243 C242 1.391 . S
H244 C252 0.950 . S
H245 C257 0.950 . S
H246 C254 0.950 . S
H247 C256 0.950 . S
H248 C258 0.950 . S
H249 C260 0.950 . S
H250 C262 0.950 . S
H251 C263 0.950 . S
C252 H244 0.950 . S
C252 C253 1.386 . S
C252 C254 1.391 1_545 S
C253 C252 1.386 . S
C253 C257 1.393 . S
C254 H246 0.950 . S
C254 C252 1.391 1_565 S
C254 C255 1.400 1_565 S
C255 C254 1.400 1_545 S
C255 C256 1.398 . S
C255 C261 1.491 1_545 S
C256 H247 0.950 . S
C256 C255 1.398 . S
C256 C257 1.391 . S
C257 H245 0.950 . S
C257 C253 1.393 . S
C257 C256 1.391 . S
C258 H248 0.950 . S
C258 C259 1.386 . S
C258 C260 1.391 1_565 S
C259 C258 1.386 . S
C259 C263 1.393 . S
C260 H249 0.950 . S
C260 C258 1.391 1_545 S
C260 C261 1.400 1_545 S
C261 C255 1.491 1_565 S
C261 C260 1.400 1_565 S
C261 C262 1.398 . S
C262 H250 0.950 . S
C262 C261 1.398 . S
C262 C263 1.391 . S
C263 H251 0.950 . S
C263 C259 1.393 . S
C263 C262 1.391 . S
H264 C272 0.950 . S
H265 C277 0.950 . S
H266 C274 0.950 . S
H267 C276 0.950 . S
H268 C278 0.950 . S
H269 C280 0.950 . S
H270 C282 0.950 . S
H271 C283 0.950 . S
C272 H264 0.950 . S
C272 C273 1.386 . S
C272 C274 1.391 . S
C273 C272 1.386 . S
C273 C277 1.393 . S
C274 H266 0.950 . S
C274 C272 1.391 . S
C274 C275 1.400 . S
C275 C274 1.400 . S
C275 C276 1.398 . S
C275 C281 1.491 . S
C276 H267 0.950 . S
C276 C275 1.398 . S
C276 C277 1.391 . S
C277 H265 0.950 . S
C277 C273 1.393 . S
C277 C276 1.391 . S
C278 H268 0.950 . S
C278 C279 1.386 . S
C278 C280 1.391 . S
C279 C278 1.386 . S
C279 C283 1.393 . S
C280 H269 0.950 . S
C280 C278 1.391 . S
C280 C281 1.400 . S
C281 C275 1.491 . S
C281 C280 1.400 . S
C281 C282 1.398 . S
C282 H270 0.950 . S
C282 C281 1.398 . S
C282 C283 1.391 . S
C283 H271 0.950 . S
C283 C279 1.393 . S
C283 C282 1.391 . S
H284 C292 0.950 . S
H285 C297 0.950 . S
H286 C294 0.950 . S
H287 C296 0.950 . S
H288 C298 0.950 . S
H289 C300 0.950 . S
H290 C302 0.950 . S
H291 C303 0.950 . S
C292 H284 0.950 . S
C292 C293 1.386 . S
C292 C294 1.391 . S
C293 C292 1.386 . S
C293 C297 1.393 . S
C294 H286 0.950 . S
C294 C292 1.391 . S
C294 C295 1.400 . S
C295 C294 1.400 . S
C295 C296 1.398 . S
C295 C301 1.491 . S
C296 H287 0.950 . S
C296 C295 1.398 . S
C296 C297 1.391 . S
C297 H285 0.950 . S
C297 C293 1.393 . S
C297 C296 1.391 . S
C298 H288 0.950 . S
C298 C299 1.386 . S
C298 C300 1.391 . S
C299 C298 1.386 . S
C299 C303 1.393 . S
C300 H289 0.950 . S
C300 C298 1.391 . S
C300 C301 1.400 . S
C301 C295 1.491 . S
C301 C300 1.400 . S
C301 C302 1.398 . S
C302 H290 0.950 . S
C302 C301 1.398 . S
C302 C303 1.391 . S
C303 H291 0.950 . S
C303 C299 1.393 . S
C303 C302 1.391 . S
H304 C312 0.950 . S
H305 C317 0.950 . S
H306 C314 0.950 . S
H307 C316 0.950 . S
H308 C318 0.950 . S
H309 C320 0.950 . S
H310 C322 0.950 . S
H311 C323 0.950 . S
C312 H304 0.950 . S
C312 C313 1.386 . S
C312 C314 1.391 . S
C313 C312 1.386 . S
C313 C317 1.393 . S
C314 H306 0.950 . S
C314 C312 1.391 . S
C314 C315 1.400 . S
C315 C314 1.400 . S
C315 C316 1.398 . S
C315 C321 1.491 . S
C316 H307 0.950 . S
C316 C315 1.398 . S
C316 C317 1.391 . S
C317 H305 0.950 . S
C317 C313 1.393 . S
C317 C316 1.391 . S
C318 H308 0.950 . S
C318 C319 1.386 . S
C318 C320 1.391 . S
C319 C318 1.386 . S
C319 C323 1.393 . S
C320 H309 0.950 . S
C320 C318 1.391 . S
C320 C321 1.400 . S
C321 C315 1.491 . S
C321 C320 1.400 . S
C321 C322 1.398 . S
C322 H310 0.950 . S
C322 C321 1.398 . S
C322 C323 1.391 . S
C323 H311 0.950 . S
C323 C319 1.393 . S
C323 C322 1.391 . S
H324 C332 0.950 . S
H325 C337 0.950 . S
H326 C334 0.950 . S
H327 C336 0.950 . S
H328 C338 0.950 . S
H329 C340 0.950 . S
H330 C342 0.950 . S
H331 C343 0.950 . S
C332 H324 0.950 . S
C332 C333 1.386 . S
C332 C334 1.391 . S
C333 C332 1.386 . S
C333 C337 1.393 . S
C334 H326 0.950 . S
C334 C332 1.391 . S
C334 C335 1.400 . S
C335 C334 1.400 . S
C335 C336 1.398 . S
C335 C341 1.491 . S
C336 H327 0.950 . S
C336 C335 1.398 . S
C336 C337 1.391 . S
C337 H325 0.950 . S
C337 C333 1.393 . S
C337 C336 1.391 . S
C338 H328 0.950 . S
C338 C339 1.386 . S
C338 C340 1.391 . S
C339 C338 1.386 . S
C339 C343 1.393 . S
C340 H329 0.950 . S
C340 C338 1.391 . S
C340 C341 1.400 . S
C341 C335 1.491 . S
C341 C340 1.400 . S
C341 C342 1.398 . S
C342 H330 0.950 . S
C342 C341 1.398 . S
C342 C343 1.391 . S
C343 H331 0.950 . S
C343 C339 1.393 . S
C343 C342 1.391 . S
H344 C352 0.950 . S
H345 C357 0.950 . S
H346 C354 0.950 . S
H347 C356 0.950 . S
H348 C358 0.950 . S
H349 C360 0.950 . S
H350 C362 0.950 . S
H351 C363 0.950 . S
C352 H344 0.950 . S
C352 C353 1.386 . S
C352 C354 1.391 . S
C353 C352 1.386 . S
C353 C357 1.393 1_455 S
C354 H346 0.950 . S
C354 C352 1.391 . S
C354 C355 1.400 . S
C355 C354 1.400 . S
C355 C356 1.398 1_455 S
C355 C361 1.491 1_445 S
C356 H347 0.950 . S
C356 C355 1.398 1_655 S
C356 C357 1.391 . S
C357 H345 0.950 . S
C357 C353 1.393 1_655 S
C357 C356 1.391 . S
C358 H348 0.950 . S
C358 C359 1.386 . S
C358 C360 1.391 . S
C359 C358 1.386 . S
C359 C363 1.393 1_655 S
C360 H349 0.950 . S
C360 C358 1.391 . S
C360 C361 1.400 . S
C361 C355 1.491 1_665 S
C361 C360 1.400 . S
C361 C362 1.398 1_655 S
C362 H350 0.950 . S
C362 C361 1.398 1_455 S
C362 C363 1.391 . S
C363 H351 0.950 . S
C363 C359 1.393 1_455 S
C363 C362 1.391 . S
H364 C372 0.950 . S
H365 C377 0.950 . S
H366 C374 0.950 . S
H367 C376 0.950 . S
H368 C378 0.950 . S
H369 C380 0.950 . S
H370 C382 0.950 . S
H371 C383 0.950 . S
C372 H364 0.950 . S
C372 C373 1.386 1_545 S
C372 C374 1.391 . S
C373 C372 1.386 1_565 S
C373 C377 1.393 . S
C374 H366 0.950 . S
C374 C372 1.391 . S
C374 C375 1.400 1_545 S
C375 C374 1.400 1_565 S
C375 C376 1.398 . S
C375 C381 1.491 1_465 S
C376 H367 0.950 . S
C376 C375 1.398 . S
C376 C377 1.391 . S
C377 H365 0.950 . S
C377 C373 1.393 . S
C377 C376 1.391 . S
C378 H368 0.950 . S
C378 C379 1.386 1_565 S
C378 C380 1.391 . S
C379 C378 1.386 1_545 S
C379 C383 1.393 . S
C380 H369 0.950 . S
C380 C378 1.391 . S
C380 C381 1.400 1_565 S
C381 C375 1.491 1_645 S
C381 C380 1.400 1_545 S
C381 C382 1.398 . S
C382 H370 0.950 . S
C382 C381 1.398 . S
C382 C383 1.391 . S
C383 H371 0.950 . S
C383 C379 1.393 . S
C383 C382 1.391 . S
H384 C392 0.950 . S
H385 C397 0.950 . S
H386 C394 0.950 . S
H387 C396 0.950 . S
H388 C398 0.950 . S
H389 C400 0.950 . S
H390 C402 0.950 . S
H391 C403 0.950 . S
C392 H384 0.950 . S
C392 C393 1.386 1_455 S
C392 C394 1.391 . S
C393 C392 1.386 1_655 S
C393 C397 1.393 . S
C394 H386 0.950 . S
C394 C392 1.391 . S
C394 C395 1.400 1_455 S
C395 C394 1.400 1_655 S
C395 C396 1.398 . S
C395 C401 1.491 1_645 S
C396 H387 0.950 . S
C396 C395 1.398 . S
C396 C397 1.391 . S
C397 H385 0.950 . S
C397 C393 1.393 . S
C397 C396 1.391 . S
C398 H388 0.950 . S
C398 C399 1.386 1_655 S
C398 C400 1.391 . S
C399 C398 1.386 1_455 S
C399 C403 1.393 . S
C400 H389 0.950 . S
C400 C398 1.391 . S
C400 C401 1.400 1_655 S
C401 C395 1.491 1_465 S
C401 C400 1.400 1_455 S
C401 C402 1.398 . S
C402 H390 0.950 . S
C402 C401 1.398 . S
C402 C403 1.391 . S
C403 H391 0.950 . S
C403 C399 1.393 . S
C403 C402 1.391 . S
H404 C412 0.950 . S
H405 C417 0.950 . S
H406 C414 0.950 . S
H407 C416 0.950 . S
H408 C418 0.950 . S
H409 C420 0.950 . S
H410 C422 0.950 . S
H411 C423 0.950 . S
C412 H404 0.950 . S
C412 C413 1.386 1_545 S
C412 C414 1.391 . S
C413 C412 1.386 1_565 S
C413 C417 1.393 . S
C414 H406 0.950 . S
C414 C412 1.391 . S
C414 C415 1.400 1_545 S
C415 C414 1.400 1_565 S
C415 C416 1.398 . S
C415 C421 1.491 1_665 S
C416 H407 0.950 . S
C416 C415 1.398 . S
C416 C417 1.391 . S
C417 H405 0.950 . S
C417 C413 1.393 . S
C417 C416 1.391 . S
C418 H408 0.950 . S
C418 C419 1.386 1_565 S
C418 C420 1.391 . S
C419 C418 1.386 1_545 S
C419 C423 1.393 . S
C420 H409 0.950 . S
C420 C418 1.391 . S
C420 C421 1.400 1_565 S
C421 C415 1.491 1_445 S
C421 C420 1.400 1_545 S
C421 C422 1.398 . S
C422 H410 0.950 . S
C422 C421 1.398 . S
C422 C423 1.391 . S
C423 H411 0.950 . S
C423 C419 1.393 . S
C423 C422 1.391 . S
C113 C4 1.322 . S
C119 C30 1.330 . S
C133 C49 1.328 . S
C139 C17 1.321 . S
C153 C82 1.329 . S
C159 C56 1.330 . S
C173 C69 1.328 . S
C179 C95 1.331 . S
C193 C88 1.539 . S
C199 C10 1.540 . S
C213 C23 1.563 . S
C219 C101 1.560 . S
C233 C36 1.540 . S
C239 C62 1.539 . S
C253 C75 1.564 . S
C259 C43 1.561 . S
C273 C3 1.369 . S
C279 C68 1.384 . S
C293 C81 1.368 . S
C299 C16 1.363 . S
C313 C94 1.377 . S
C319 C29 1.382 . S
C333 C44 1.370 . S
C339 C55 1.362 . S
C353 C5 1.145 . S
C359 C31 1.137 . S
C373 C42 1.135 . S
C379 C18 1.141 . S
C393 C83 1.150 . S
C399 C57 1.155 . S
C413 C96 1.135 . S
C419 C70 1.139 . S
