# Generated by pormake.
# Topology snp, (6)-cn, num edge types: 1
# Building blocks:
#     Node 0, Type 0, BuildingBlock: BETFAJ_clean_sbu_0, # of connection points: 6
#     Node 1, Type 0, BuildingBlock: BETFAJ_clean_sbu_0, # of connection points: 6
#     Node 2, Type 0, BuildingBlock: BETFAJ_clean_sbu_0, # of connection points: 6
#     Node 3, Type 0, BuildingBlock: BETFAJ_clean_sbu_0, # of connection points: 6
#     Edge 4, Type (0, 0), BuildingBlock: FUNLAD_clean_linker_1, # of connection points: 2
#     Edge 5, Type (0, 0), BuildingBlock: FUNLAD_clean_linker_1, # of connection points: 2
#     Edge 6, Type (0, 0), BuildingBlock: FUNLAD_clean_linker_1, # of connection points: 2
#     Edge 7, Type (0, 0), BuildingBlock: FUNLAD_clean_linker_1, # of connection points: 2
#     Edge 8, Type (0, 0), BuildingBlock: FUNLAD_clean_linker_1, # of connection points: 2
#     Edge 9, Type (0, 0), BuildingBlock: FUNLAD_clean_linker_1, # of connection points: 2
#     Edge 10, Type (0, 0), BuildingBlock: FUNLAD_clean_linker_1, # of connection points: 2
#     Edge 11, Type (0, 0), BuildingBlock: FUNLAD_clean_linker_1, # of connection points: 2
#     Edge 12, Type (0, 0), BuildingBlock: FUNLAD_clean_linker_1, # of connection points: 2
#     Edge 13, Type (0, 0), BuildingBlock: FUNLAD_clean_linker_1, # of connection points: 2
#     Edge 14, Type (0, 0), BuildingBlock: FUNLAD_clean_linker_1, # of connection points: 2
#     Edge 15, Type (0, 0), BuildingBlock: FUNLAD_clean_linker_1, # of connection points: 2
# Relax obj value: 0.207
# Max RMSD: 0.216
# Mean RMSD: 0.210
data_MOF--net-snp--node1-BETFAJ_clean_sbu_0--edge1-FUNLAD_clean_linker_1
_symmetry_space_group_name_H-M    P1
_symmetry_Int_Tables_number       1
_symmetry_cell_setting            triclinic
loop_
_symmetry_equiv_pos_as_xyz
'x, y, z'
_cell_length_a     26.725332
_cell_length_b     25.940063
_cell_length_c     37.429075
_cell_angle_alpha  84.522451
_cell_angle_beta   103.37951
_cell_angle_gamma 96.844052
loop_
_atom_site_label
_atom_site_type_symbol
_atom_site_fract_x
_atom_site_fract_y
_atom_site_fract_z
_atom_type_partial_charge
Sm0 Sm 0.24146 0.0943 0.12052 0.0
Sm1 Sm 0.24204 0.99296 0.07785 0.0
C2 C 0.21748 0.1604 0.16278 0.0
C3 C 0.20142 0.16078 0.19846 0.0
C4 C 0.15347 0.13618 0.20368 0.0
C5 C 0.13727 0.14065 0.23631 0.0
C6 C 0.16862 0.16923 0.26481 0.0
C7 C 0.21686 0.19337 0.25972 0.0
C8 C 0.23293 0.18915 0.22701 0.0
C9 C 0.33558 0.06044 0.12366 0.0
C10 C 0.2254 0.97483 0.16058 0.0
C11 C 0.26929 0.92355 0.04042 0.0
C12 C 0.26514 0.91419 1.00169 0.0
C13 C 0.29244 0.87609 0.9929 0.0
C14 C 0.28642 0.86464 0.95626 0.0
C15 C 0.25255 0.89105 0.92775 0.0
C16 C 0.22663 0.93042 0.93677 0.0
C17 C 0.23277 0.94186 0.97338 0.0
C18 C 0.14747 0.02467 0.07491 0.0
C19 C 0.24535 0.11234 0.0337 0.0
O20 O 0.18419 0.13894 0.1355 0.0
O21 O 0.2651 0.15149 0.16397 0.0
O22 O 0.29465 0.03204 0.12524 0.0
O23 O 0.32923 0.10968 0.12256 0.0
O24 O 0.21725 0.0245 0.15835 0.0
O25 O 0.24203 0.95378 0.13528 0.0
O26 O 0.30045 0.96397 0.05308 0.0
O27 O 0.22565 0.91825 0.05135 0.0
O28 O 0.18856 0.05307 0.0742 0.0
O29 O 0.15384 0.97596 0.07351 0.0
O30 O 0.25246 0.06228 0.03496 0.0
O31 O 0.23691 0.13429 0.06216 0.0
H32 H 0.12797 0.1142 0.18231 0.0
H33 H 0.09987 0.12198 0.23924 0.0
H34 H 0.24175 0.21689 0.28041 0.0
H35 H 0.26972 0.20915 0.22371 0.0
H36 H 0.31798 0.85473 1.01446 0.0
H37 H 0.30835 0.83513 0.95067 0.0
H38 H 0.20067 0.95176 0.91548 0.0
H39 H 0.21162 0.97169 0.97967 0.0
Sm40 Sm 0.96942 0.2282 0.72093 0.0
Sm41 Sm 0.05776 0.25818 0.68526 0.0
C42 C 0.90618 0.18821 0.76379 0.0
C43 C 0.90358 0.18666 0.80279 0.0
C44 C 0.94662 0.17709 0.83128 0.0
C45 C 0.94236 0.1732 0.86798 0.0
C46 C 0.89548 0.1799 0.87702 0.0
C47 C 0.85263 0.19029 0.84835 0.0
C48 C 0.85678 0.19363 0.81163 0.0
C49 C 0.98201 0.33236 0.70032 0.0
C50 C 0.0863 0.25726 0.77223 0.0
C51 C 0.11733 0.28593 0.63737 0.0
C52 C 0.11997 0.26705 0.60136 0.0
C53 C 0.1106 0.30005 0.56895 0.0
C54 C 0.11435 0.28327 0.53511 0.0
C55 C 0.12777 0.23291 0.53278 0.0
C56 C 0.13664 0.19984 0.56517 0.0
C57 C 0.13243 0.21642 0.59889 0.0
C58 C 0.04261 0.15307 0.70389 0.0
C59 C 0.94109 0.23021 0.63411 0.0
O60 O 0.94115 0.1626 0.75597 0.0
O61 O 0.9015 0.23312 0.74497 0.0
O62 O 0.01826 0.30535 0.71547 0.0
O63 O 0.93723 0.30547 0.6965 0.0
O64 O 0.04145 0.22845 0.76931 0.0
O65 O 0.09944 0.28281 0.74295 0.0
O66 O 0.07722 0.30996 0.63803 0.0
O67 O 0.13068 0.25499 0.6669 0.0
O68 O 0.00768 0.18171 0.68887 0.0
O69 O 0.08673 0.18074 0.71129 0.0
O70 O 0.98554 0.25934 0.63707 0.0
O71 O 0.9276 0.20534 0.66329 0.0
H72 H 0.98324 0.17153 0.82522 0.0
H73 H 0.97561 0.16395 0.88937 0.0
H74 H 0.81532 0.19413 0.85383 0.0
H75 H 0.82306 0.20077 0.79002 0.0
H76 H 0.10103 0.33925 0.56987 0.0
H77 H 0.10837 0.31059 0.51117 0.0
H78 H 0.14714 0.16093 0.56446 0.0
H79 H 0.13952 0.18957 0.62309 0.0
Sm80 Sm 0.79569 0.06846 0.21731 0.0
Sm81 Sm 0.81804 0.97615 0.17546 0.0
C82 C 0.75481 0.125 0.25585 0.0
C83 C 0.75708 0.12621 0.29552 0.0
C84 C 0.74899 0.08025 0.31749 0.0
C85 C 0.75599 0.08158 0.3556 0.0
C86 C 0.77182 0.12864 0.37246 0.0
C87 C 0.7783 0.17484 0.35027 0.0
C88 C 0.77107 0.17353 0.31217 0.0
C89 C 0.89723 0.05469 0.22581 0.0
C90 C 0.80766 0.94857 0.25967 0.0
C91 C 0.85592 0.91862 0.13489 0.0
C92 C 0.87162 0.92215 0.09911 0.0
C93 C 0.90628 0.9632 0.08914 0.0
C94 C 0.92239 0.96391 0.05595 0.0
C95 C 0.90399 0.92401 0.0318 0.0
C96 C 0.86913 0.88309 0.04191 0.0
C97 C 0.85317 0.88234 0.07509 0.0
C98 C 0.71662 0.99339 0.16736 0.0
C99 C 0.81848 0.0963 0.13683 0.0
O100 O 0.72944 0.08392 0.23965 0.0
O101 O 0.79825 0.14037 0.24562 0.0
O102 O 0.86045 0.01958 0.22434 0.0
O103 O 0.88174 0.10046 0.22557 0.0
O104 O 0.79077 -0.0049 0.25836 0.0
O105 O 0.82425 0.93296 0.23222 0.0
O106 O 0.88473 0.94636 0.16091 0.0
O107 O 0.80647 0.9171 0.1339 0.0
O108 O 0.75407 0.0273 0.16771 0.0
O109 O 0.73087 0.94673 0.16942 0.0
O110 O 0.83886 0.05141 0.14155 0.0
O111 O 0.79129 0.1092 0.15942 0.0
H112 H 0.73818 0.04314 0.30538 0.0
H113 H 0.75035 0.04555 0.37203 0.0
H114 H 0.78878 0.21211 0.36218 0.0
H115 H 0.77729 0.20944 0.29574 0.0
H116 H 0.92126 -0.00544 0.10704 0.0
H117 H 0.94937 -0.00419 0.04911 0.0
H118 H 0.85496 0.85069 1.02494 0.0
H119 H 0.8269 0.84999 0.0823 0.0
Sm120 Sm 0.01267 0.82819 0.61059 0.0
Sm121 Sm 0.08882 0.79007 0.57084 0.0
C122 C 0.95231 0.84277 0.65529 0.0
C123 C 0.95299 0.85747 0.69268 0.0
C124 C 0.98764 0.83863 0.72417 0.0
C125 C 0.9839 0.84963 0.75946 0.0
C126 C 0.94528 0.87966 0.76383 0.0
C127 C 0.91176 0.89938 0.7321 0.0
C128 C 0.9157 0.88861 0.69701 0.0
C129 C 0.07075 0.90416 0.57727 0.0
C130 C 0.12833 0.80066 0.65864 0.0
C131 C 0.15001 0.77621 0.52678 0.0
C132 C 0.15829 0.79301 0.48983 0.0
C133 C 0.13121 0.8321 0.4679 0.0
C134 C 0.14158 0.84914 0.43344 0.0
C135 C 0.17918 0.82707 0.42042 0.0
C136 C 0.20578 0.78774 0.4426 0.0
C137 C 0.19534 0.77077 0.47691 0.0
C138 C 0.03406 0.7125 0.60465 0.0
C139 C 0.97422 0.82192 0.52471 0.0
O140 O 0.96751 0.79752 0.65227 0.0
O141 O 0.9665 0.87928 0.632 0.0
O142 O 0.08662 0.86382 0.59525 0.0
O143 O 0.02368 0.90887 0.5793 0.0
O144 O 0.08057 0.80937 0.65847 0.0
O145 O 0.14348 0.79584 0.62803 0.0
O146 O 0.16064 0.81189 0.55063 0.0
O147 O 0.10787 0.7457 0.52862 0.0
O148 O 0.0151 0.75195 0.58655 0.0
O149 O 0.08213 0.71182 0.60349 0.0
O150 O 0.02389 0.82306 0.5245 0.0
O151 O 0.95779 0.81326 0.55549 0.0
H152 H 0.01675 0.8144 0.72158 0.0
H153 H 0.01003 0.83291 0.78305 0.0
H154 H 0.88166 0.92254 0.73446 0.0
H155 H 0.88856 0.90356 0.67317 0.0
H156 H 0.10273 0.84999 0.47768 0.0
H157 H 0.12105 0.88041 0.4178 0.0
H158 H 0.23508 0.77024 0.43346 0.0
H159 H 0.21674 0.74069 0.4936 0.0
H160 H 0.94753 0.006 0.21 0.0
C161 C 0.94491 0.04553 0.21623 0.0
H162 H 0.97586 0.1238 0.21379 0.0
H163 H 0.09408 0.93929 0.15553 0.0
H164 H 0.11175 0.90304 0.21877 0.0
H165 H 0.08977 0.94728 0.26767 0.0
H166 H 0.04666 0.02675 0.25294 0.0
C167 C 0.97956 0.08415 0.20858 0.0
C168 C 0.01367 0.07333 0.18465 0.0
C169 C 0.04194 0.02933 0.19374 0.0
C170 C 0.05683 0.00561 0.16578 0.0
C171 C 0.08241 0.95978 0.17557 0.0
C172 C 0.09313 0.93862 0.21188 0.0
C173 C 0.08043 0.96328 0.23941 0.0
C174 C 0.05536 0.00835 0.23062 0.0
H175 H 0.11181 0.08326 0.09508 0.0
C176 C 0.10713 0.04245 0.08949 0.0
H177 H 0.06755 0.96864 0.09741 0.0
H178 H 0.9766 0.16779 0.1611 0.0
H179 H 0.9633 0.2078 0.09902 0.0
H180 H 0.97924 0.162 0.04846 0.0
H181 H 0.01429 0.07823 0.06096 0.0
C182 C 0.07131 0.00981 0.10189 0.0
C183 C 0.04622 0.02821 0.12909 0.0
C184 C 0.02054 0.0742 0.12052 0.0
C185 C 0.00678 0.09824 0.14883 0.0
C186 C 0.98567 0.14659 0.14033 0.0
C187 C 0.97767 0.16999 0.1047 0.0
C188 C 0.98736 0.14453 0.07638 0.0
C189 C 0.00795 0.09682 0.08398 0.0
H190 H 0.12983 0.93134 0.54557 0.0
C191 C 0.10485 0.94406 0.56141 0.0
H192 H 0.13579 0.02134 0.55529 0.0
H193 H 0.98038 0.14336 0.605 0.0
H194 H 0.97724 0.17995 0.54283 0.0
H195 H 0.01714 0.13889 0.50107 0.0
H196 H 0.06376 0.06303 0.52235 0.0
C197 C 0.10974 -0.00551 0.56823 0.0
C198 C 0.08092 0.01563 0.59231 0.0
C199 C 0.05 0.05688 0.57821 0.0
C200 C 0.02362 0.07809 0.6014 0.0
C201 C -0.00101 0.12384 0.58826 0.0
C202 C 0.99699 0.14546 0.55249 0.0
C203 C 0.01952 0.12239 0.52901 0.0
C204 C 0.04607 0.07879 0.5416 0.0
H205 H 0.07918 0.08443 0.70075 0.0
C206 C 0.04212 0.10053 0.69285 0.0
H207 H 0.96978 0.09952 0.65567 0.0
H208 H 0.15023 0.95054 0.63351 0.0
H209 H 0.14714 0.90875 0.69381 0.0
H210 H 0.08064 0.92582 0.72601 0.0
H211 H 0.02094 0.99081 0.69963 0.0
C212 C 0.00624 0.08245 0.66416 0.0
C213 C 0.02376 0.05421 0.63727 0.0
C214 C 0.051 0.01012 0.6499 0.0
C215 C 0.08408 -0.0052 0.62918 0.0
C216 C 0.12048 0.95969 0.64648 0.0
C217 C 0.1193 0.93557 0.68119 0.0
C218 C 0.08217 0.94564 0.69943 0.0
C219 C 0.04837 0.98282 0.68413 0.0
H220 H 0.65935 0.04869 0.16149 0.0
C221 C 0.66404 0.00736 0.16325 0.0
H222 H 0.62563 0.93129 0.16131 0.0
H223 H 0.46841 0.09639 0.19526 0.0
H224 H 0.52711 0.10093 0.25518 0.0
H225 H 0.60552 0.05444 0.27025 0.0
H226 H 0.62556 0.00307 0.22547 0.0
C227 C 0.62236 0.97268 0.16102 0.0
C228 C 0.57058 0.99197 0.15469 0.0
C229 C 0.55863 0.02066 0.18154 0.0
C230 C 0.51311 0.04682 0.17302 0.0
C231 C 0.50249 0.07573 0.20021 0.0
C232 C 0.53581 0.0786 0.23477 0.0
C233 C 0.57998 0.05249 0.24325 0.0
C234 C 0.59127 0.02354 0.21715 0.0
H235 H 0.38411 -0.00347 0.12912 0.0
C236 C 0.38482 0.0387 0.12736 0.0
H237 H 0.4317 0.11026 0.13012 0.0
H238 H 0.58024 0.9369 0.09822 0.0
H239 H 0.52123 0.93152 0.03842 0.0
H240 H 0.44286 0.97806 1.02316 0.0
H241 H 0.42306 0.03021 0.06752 0.0
C242 C 0.42999 0.06818 0.13018 0.0
C243 C 0.47895 0.04312 0.13801 0.0
C244 C 0.49019 0.01325 0.11149 0.0
C245 C 0.53578 0.98712 0.12005 0.0
C246 C 0.54622 0.95769 0.0931 0.0
C247 C 0.51269 0.95427 0.05867 0.0
C248 C 0.46853 0.9804 0.05009 0.0
C249 C 0.45738 0.00985 0.07598 0.0
H250 H 0.02975 0.40491 0.69037 0.0
C251 C 0.99019 0.38753 0.68839 0.0
H252 H 0.91092 0.40002 0.67295 0.0
H253 H 0.98989 0.64382 0.68836 0.0
H254 H 0.95432 0.62481 0.74284 0.0
H255 H 0.92065 0.53527 0.75983 0.0
H256 H 0.92267 0.46408 0.7225 0.0
C257 C 0.9507 0.41619 0.67436 0.0
C258 C 0.96122 0.47091 0.66047 0.0
C259 C 0.95791 0.51212 0.68179 0.0
C260 C 0.97684 0.56376 0.6718 0.0
C261 C 0.97547 0.60398 0.69448 0.0
C262 C 0.95522 0.59357 0.72584 0.0
C263 C 0.9363 0.54314 0.73543 0.0
C264 C 0.93769 0.50267 0.71382 0.0
H265 H 0.96149 0.66563 0.61161 0.0
C266 C 0.00332 0.6665 0.61722 0.0
H267 H 0.0687 0.62536 0.63783 0.0
H268 H 0.96445 0.4017 0.61038 0.0
H269 H 0.99786 0.42088 0.55499 0.0
H270 H 0.03121 0.51041 0.53774 0.0
H271 H 0.03127 0.58125 0.57575 0.0
C272 C 0.02695 0.62467 0.63326 0.0
C273 C 0.99825 0.57374 0.64027 0.0
C274 C 0.99797 0.53307 0.61748 0.0
C275 C 0.97914 0.48155 0.6275 0.0
C276 C 0.97923 0.44147 0.60432 0.0
C277 C 0.99801 0.45199 0.57236 0.0
C278 C 0.01677 0.50239 0.56265 0.0
C279 C 0.01677 0.54263 0.58479 0.0
H280 H 0.16188 0.18414 0.50068 0.0
C281 C 0.13663 0.21488 0.49798 0.0
H282 H 0.08999 0.26492 0.46013 0.0
H283 H 0.20759 0.28239 0.33202 0.0
H284 H 0.22874 0.36856 0.35458 0.0
H285 H 0.20605 0.38814 0.41171 0.0
H286 H 0.16203 0.32176 0.44666 0.0
C287 C 0.11579 0.23463 0.46373 0.0
C288 C 0.13118 0.22083 0.42983 0.0
C289 C 0.15728 0.25993 0.40958 0.0
C290 C 0.17118 0.24839 0.37683 0.0
C291 C 0.1969 0.28861 0.35734 0.0
C292 C 0.20912 0.33838 0.36989 0.0
C293 C 0.19625 0.34942 0.40201 0.0
C294 C 0.17075 0.31089 0.42174 0.0
H295 H 0.10703 0.17134 0.29567 0.0
C296 C 0.14868 0.17536 0.29839 0.0
H297 H 0.22105 0.18885 0.3352 0.0
H298 H 0.07834 0.13734 0.45976 0.0
H299 H 0.05833 0.05079 0.43765 0.0
H300 H 0.08277 0.03077 0.38126 0.0
H301 H 0.12773 0.09707 0.34678 0.0
C302 C 0.17936 0.18533 0.33167 0.0
C303 C 0.15907 0.19769 0.36389 0.0
C304 C 0.1319 0.15876 0.38363 0.0
C305 C 0.11805 0.17029 0.41653 0.0
C306 C 0.09072 0.13061 0.43525 0.0
C307 C 0.0786 0.08081 0.42267 0.0
C308 C 0.09245 0.06951 0.39095 0.0
C309 C 0.11853 0.10792 0.37148 0.0
H310 H 0.92122 0.15043 0.93505 0.0
C311 C 0.89171 0.17133 0.91621 0.0
H312 H 0.82464 0.20972 0.91258 0.0
H313 H 0.81988 0.03414 0.05313 0.0
H314 H 0.79758 0.97161 1.00652 0.0
H315 H 0.79691 -0.00081 0.94154 0.0
H316 H 0.81923 0.08945 0.9229 0.0
C317 C 0.85323 0.18598 0.92943 0.0
C318 C 0.84893 0.17021 0.96796 0.0
C319 C 0.83532 0.1173 0.9783 0.0
C320 C 0.83507 0.10157 1.01566 0.0
C321 C 0.82141 0.04835 1.02523 0.0
C322 C 0.80814 0.01199 0.99869 0.0
C323 C 0.80778 0.02752 0.96213 0.0
C324 C 0.82109 0.07946 0.95187 0.0
H325 H 0.79248 0.15668 0.09259 0.0
C326 C 0.82078 0.12886 0.10258 0.0
H327 H 0.88101 0.09137 0.09205 0.0
H328 H 0.87201 0.2751 0.95647 0.0
H329 H 0.8897 0.3388 1.00245 0.0
H330 H 0.88782 0.31185 0.06718 0.0
H331 H 0.86863 0.22121 0.0864 0.0
C332 C 0.8535 0.12 0.08194 0.0
C333 C 0.84738 0.13889 0.04254 0.0
C334 C 0.85756 0.19233 0.03176 0.0
C335 C 0.85855 0.20793 0.99438 0.0
C336 C 0.87043 0.26125 0.98443 0.0
C337 C 0.88069 0.29818 1.01053 0.0
C338 C 0.87958 0.28301 0.04697 0.0
C339 C 0.86826 0.23079 0.05761 0.0
H340 H 0.89547 0.83025 0.49157 0.0
C341 C 0.93611 0.83471 0.49058 0.0
H342 H 0.99063 0.86302 0.45883 0.0
H343 H 0.77199 0.83695 0.33049 0.0
H344 H 0.77165 0.74402 0.3467 0.0
H345 H 0.83647 0.70993 0.39908 0.0
H346 H 0.90112 0.7685 0.43606 0.0
C347 C 0.94999 0.85533 0.45959 0.0
C348 C 0.91114 0.87507 0.42739 0.0
C349 C 0.87496 0.84008 0.40519 0.0
C350 C 0.83934 0.85954 0.37377 0.0
C351 C 0.80157 0.824 0.35346 0.0
C352 C 0.80065 0.77064 0.36268 0.0
C353 C 0.83701 0.75146 0.39225 0.0
C354 C 0.87382 0.78557 0.41336 0.0
H355 H 0.84258 0.88548 0.29678 0.0
C356 C 0.81974 0.91792 0.29536 0.0
H357 H 0.79033 0.96686 0.32551 0.0
H358 H 0.97047 0.9528 0.46692 0.0
H359 H 0.96946 0.04567 0.45153 0.0
H360 H 0.9117 0.07938 0.39502 0.0
H361 H 0.85391 0.02082 0.35405 0.0
C362 C 0.81214 0.9338 0.32672 0.0
C363 C 0.84188 0.91371 0.36333 0.0
C364 C 0.87635 0.9489 0.38665 0.0
C365 C 0.91073 0.92949 0.41879 0.0
C366 C 0.9442 0.96539 0.44185 0.0
C367 C 0.9441 0.01882 0.43334 0.0
C368 C 0.91144 0.03779 0.4016 0.0
C369 C 0.87817 0.00352 0.37833 0.0
H370 H 0.20483 0.78835 0.69552 0.0
C371 C 0.16604 0.79797 0.69448 0.0
H372 H 0.11378 0.81756 0.72428 0.0
H373 H 0.19652 0.75036 0.88498 0.0
H374 H 0.12919 0.67998 0.86822 0.0
H375 H 0.0888 0.66679 0.80303 0.0
H376 H 0.11553 0.72412 0.75419 0.0
C377 C 0.15297 0.80907 0.72537 0.0
C378 C 0.18802 0.80832 0.76261 0.0
C379 C 0.17337 0.77354 0.79085 0.0
C380 C 0.19718 0.7807 0.82838 0.0
C381 C 0.18021 0.74645 0.85598 0.0
C382 C 0.14152 0.70587 0.84675 0.0
C383 C 0.11873 0.69849 0.81006 0.0
C384 C 0.13426 0.73181 0.78233 0.0
H385 H 0.22052 0.90514 0.86806 0.0
C386 C 0.24222 0.87859 0.88849 0.0
H387 H 0.2733 0.80572 0.89619 0.0
H388 H 0.23003 0.87906 0.7153 0.0
H389 H 0.30027 0.94627 0.73205 0.0
H390 H 0.34356 0.95642 0.79711 0.0
H391 H 0.31594 0.89962 0.84587 0.0
C392 C 0.25446 0.83508 0.87688 0.0
C393 C 0.23578 0.82267 0.83763 0.0
C394 C 0.25378 0.85454 0.80931 0.0
C395 C 0.2296 0.84774 0.77171 0.0
C396 C 0.2469 0.8819 0.74423 0.0
C397 C 0.28746 0.9207 0.75348 0.0
C398 C 0.31178 0.92648 0.79011 0.0
C399 C 0.29537 0.89384 0.81781 0.0
H400 H 0.95906 0.94994 0.99579 0.0
C401 C 0.92365 0.92524 0.99732 0.0
H402 H 0.86419 0.87339 0.96826 0.0
H403 H 0.95979 0.98268 0.82807 0.0
H404 H 0.93014 0.0625 0.84034 0.0
H405 H 0.89607 0.06718 0.89572 0.0
H406 H 0.89271 0.99272 0.93951 0.0
C407 C 0.89988 0.898 0.96803 0.0
C408 C 0.92259 0.89672 0.9351 0.0
C409 C 0.92413 0.94066 0.90953 0.0
C410 C 0.94179 0.93723 0.87671 0.0
C411 C 0.94469 0.98236 0.85252 0.0
C412 C 0.92827 0.02865 0.85943 0.0
C413 C 0.90927 0.03137 0.89065 0.0
C414 C 0.90742 0.98818 0.91558 0.0
H415 H 0.89807 0.89969 0.80097 0.0
C416 C 0.93585 0.88846 0.80053 0.0
H417 H 0.00872 0.87275 0.83387 0.0
H418 H 0.92792 0.80627 0.97909 0.0
H419 H 0.95515 0.72556 0.96593 0.0
H420 H 0.98285 0.71869 0.90827 0.0
H421 H 0.98371 0.79242 0.86345 0.0
C422 C 0.97049 0.88372 0.8329 0.0
C423 C 0.95621 0.88932 0.86874 0.0
C424 C 0.956 0.84585 0.89481 0.0
C425 C 0.93927 0.84958 0.92791 0.0
C426 C 0.93954 0.80543 0.95332 0.0
C427 C 0.95523 0.75888 0.94618 0.0
C428 C 0.97089 0.75503 0.91373 0.0
C429 C 0.97128 0.79779 0.88825 0.0
H430 H 0.18449 0.91101 0.18875 0.0
C431 C 0.21542 0.94242 0.19293 0.0
H432 H 0.27222 0.98577 0.22945 0.0
H433 H 0.18313 0.96885 0.36979 0.0
H434 H 0.20933 0.06085 0.36038 0.0
H435 H 0.2368 0.09615 0.30378 0.0
H436 H 0.23983 0.04009 0.25672 0.0
C437 C 0.2408 0.95467 0.22691 0.0
C438 C 0.22345 0.93259 0.26098 0.0
C439 C 0.21682 0.96716 0.2865 0.0
C440 C 0.19863 0.94718 0.31845 0.0
C441 C 0.19568 0.98204 0.34467 0.0
C442 C 0.21018 0.03504 0.33952 0.0
C443 C 0.22581 0.0549 0.30768 0.0
C444 C 0.2282 0.02182 0.28108 0.0
H445 H 0.23058 0.83511 0.38121 0.0
C446 C 0.1939 0.84534 0.38499 0.0
H447 H 0.12798 0.88441 0.35956 0.0
H448 H 0.24576 0.8538 0.22471 0.0
H449 H 0.22062 0.76163 0.2346 0.0
H450 H 0.17566 0.72882 0.28411 0.0
H451 H 0.15753 0.78796 0.32489 0.0
C452 C 0.16485 0.87308 0.35737 0.0
C453 C 0.18455 0.89316 0.32403 0.0
C454 C 0.19114 0.8586 0.29871 0.0
C455 C 0.2131 0.87801 0.26826 0.0
C456 C 0.22513 0.84181 0.24624 0.0
C457 C 0.21165 0.78863 0.25201 0.0
C458 C 0.18663 0.77013 0.28001 0.0
C459 C 0.17663 0.80449 0.3033 0.0
H460 H 0.15463 0.28979 0.81291 0.0
C461 C 0.12198 0.26005 0.80902 0.0
H462 H 0.0814 0.1966 0.83305 0.0
H463 H 0.30125 0.19851 0.9582 0.0
H464 H 0.34497 0.19278 0.9088 0.0
H465 H 0.29767 0.19977 0.84387 0.0
H466 H 0.20716 0.21421 0.82787 0.0
C467 C 0.11459 0.22574 0.83726 0.0
C468 C 0.14646 0.22711 0.8758 0.0
C469 C 0.199 0.21645 0.8846 0.0
C470 C 0.22555 0.20896 0.92217 0.0
C471 C 0.27874 0.20166 0.9302 0.0
C472 C 0.30435 0.19872 0.90213 0.0
C473 C 0.27776 0.20289 0.86557 0.0
C474 C 0.22572 0.21151 0.85675 0.0
H475 H 0.23704 0.11757 0.9738 0.0
C476 C 0.23707 0.14034 0.99674 0.0
H477 H 0.22073 0.21125 1.01225 0.0
H478 H 0.04948 0.25602 0.86902 0.0
H479 H 0.00553 0.26031 0.91841 0.0
H480 H 0.04854 0.23914 0.98298 0.0
H481 H 0.136 0.21516 0.99876 0.0
C482 C 0.22219 0.18877 0.98955 0.0
C483 C 0.19867 0.20822 0.95088 0.0
C484 C 0.14705 0.22181 0.94213 0.0
C485 C 0.12142 0.23211 0.90469 0.0
C486 C 0.07026 0.24648 0.89687 0.0
C487 C 0.04464 0.24933 0.92495 0.0
C488 C 0.06889 0.23753 0.9613 0.0
C489 C 0.11937 0.22386 0.96996 0.0
H490 H 0.75918 0.09879 0.42754 0.0
C491 C 0.78084 0.12857 0.4131 0.0
H492 H 0.83931 0.19168 0.41895 0.0
H493 H 0.81446 0.26198 0.56839 0.0
H494 H 0.77309 0.32913 0.52588 0.0
H495 H 0.75384 0.32108 0.4588 0.0
H496 H 0.77569 0.24592 0.43383 0.0
C497 C 0.81639 0.16229 0.43266 0.0
C498 C 0.82346 0.16385 0.47314 0.0
C499 C 0.81028 0.20798 0.48722 0.0
C500 C 0.82186 0.21297 0.5258 0.0
C501 C 0.80773 0.25709 0.53921 0.0
C502 C 0.78361 0.29565 0.51515 0.0
C503 C 0.77273 0.29108 0.47739 0.0
C504 C 0.78566 0.24781 0.46342 0.0
H505 H 0.92168 0.24658 0.57427 0.0
C506 C 0.90953 0.2227 0.59686 0.0
H507 H 0.85966 0.15859 0.61127 0.0
H508 H 0.85432 0.07406 0.45554 0.0
H509 H 0.89174 0.00543 0.49839 0.0
H510 H 0.90701 0.01205 0.56541 0.0
H511 H 0.88563 0.08775 0.58998 0.0
C512 C 0.87053 0.18482 0.5893 0.0
C513 C 0.84712 0.17412 0.55023 0.0
C514 C 0.85619 0.1279 0.53639 0.0
C515 C 0.84573 0.12332 0.4977 0.0
C516 C 0.85969 0.07885 0.48458 0.0
C517 C 0.88149 0.03924 0.5089 0.0
C518 C 0.89006 0.04293 0.54664 0.0
C519 C 0.87766 0.08666 0.56038 0.0
loop_
_geom_bond_atom_site_label_1
_geom_bond_atom_site_label_2
_geom_bond_distance
_geom_bond_site_symmetry_2
_ccdc_geom_bond_type
Sm0 C2 2.846 . S
Sm0 O20 2.543 . S
Sm0 O21 2.450 . S
Sm0 O22 2.681 . S
Sm0 O23 2.464 . S
Sm0 O24 2.396 . S
Sm0 O28 2.386 . S
Sm0 O31 2.408 . S
Sm1 C11 2.824 1_544 S
Sm1 O22 2.386 . S
Sm1 O25 2.408 1_545 S
Sm1 O26 2.539 1_545 S
Sm1 O27 2.450 1_545 S
Sm1 O28 2.681 . S
Sm1 O29 2.464 . S
Sm1 O30 2.396 . S
C2 Sm0 2.846 . S
C2 C3 1.506 . S
C2 O20 1.261 . S
C2 O21 1.242 . S
C3 C2 1.506 . S
C3 C4 1.358 . S
C3 C8 1.382 . S
C4 C3 1.358 . S
C4 C5 1.385 . S
C4 H32 0.930 . S
C5 C4 1.385 . S
C5 C6 1.395 . S
C5 H33 0.929 . S
C6 C5 1.395 . S
C6 C7 1.335 . S
C7 C6 1.335 . S
C7 C8 1.398 . S
C7 H34 0.930 . S
C8 C3 1.382 . S
C8 C7 1.398 . S
C8 H35 0.929 . S
C9 O22 1.271 . S
C9 O23 1.251 . S
C10 O24 1.252 . S
C10 O25 1.272 1_545 S
C11 Sm1 2.824 1_566 S
C11 C12 1.528 . S
C11 O26 1.259 1_556 S
C11 O27 1.228 1_556 S
C12 C11 1.528 . S
C12 C13 1.358 . S
C12 C17 1.382 . S
C13 C12 1.358 . S
C13 C14 1.385 . S
C13 H36 0.930 . S
C14 C13 1.385 . S
C14 C15 1.395 . S
C14 H37 0.929 . S
C15 C14 1.395 . S
C15 C16 1.335 . S
C16 C15 1.335 . S
C16 C17 1.398 . S
C16 H38 0.930 . S
C17 C12 1.382 . S
C17 C16 1.398 . S
C17 H39 0.929 . S
C18 O28 1.271 . S
C18 O29 1.251 . S
C19 O30 1.252 . S
C19 O31 1.272 . S
O20 Sm0 2.543 . S
O20 C2 1.261 . S
O21 Sm0 2.450 . S
O21 C2 1.242 . S
O22 Sm0 2.681 . S
O22 Sm1 2.386 . S
O22 C9 1.271 . S
O23 Sm0 2.464 . S
O23 C9 1.251 . S
O24 Sm0 2.396 . S
O24 C10 1.252 . S
O25 Sm1 2.408 1_565 S
O25 C10 1.272 1_565 S
O26 Sm1 2.539 1_565 S
O26 C11 1.259 1_554 S
O27 Sm1 2.450 1_565 S
O27 C11 1.228 1_554 S
O28 Sm0 2.386 . S
O28 Sm1 2.681 . S
O28 C18 1.271 . S
O29 Sm1 2.464 . S
O29 C18 1.251 . S
O30 Sm1 2.396 . S
O30 C19 1.252 . S
O31 Sm0 2.408 . S
O31 C19 1.272 . S
H32 C4 0.930 . S
H33 C5 0.929 . S
H34 C7 0.930 . S
H35 C8 0.929 . S
H36 C13 0.930 . S
H37 C14 0.929 . S
H38 C16 0.930 . S
H39 C17 0.929 . S
Sm40 C42 2.846 . S
Sm40 O60 2.543 . S
Sm40 O61 2.450 . S
Sm40 O62 2.681 1_655 S
Sm40 O63 2.464 . S
Sm40 O64 2.396 1_655 S
Sm40 O68 2.386 1_655 S
Sm40 O71 2.408 . S
Sm41 C51 2.846 . S
Sm41 O62 2.386 . S
Sm41 O65 2.408 . S
Sm41 O66 2.543 . S
Sm41 O67 2.450 . S
Sm41 O68 2.681 . S
Sm41 O69 2.464 . S
Sm41 O70 2.396 . S
C42 Sm40 2.846 . S
C42 C43 1.506 . S
C42 O60 1.261 . S
C42 O61 1.242 . S
C43 C42 1.506 . S
C43 C44 1.358 . S
C43 C48 1.382 . S
C44 C43 1.358 . S
C44 C45 1.385 . S
C44 H72 0.930 . S
C45 C44 1.385 . S
C45 C46 1.395 . S
C45 H73 0.929 . S
C46 C45 1.395 . S
C46 C47 1.335 . S
C47 C46 1.335 . S
C47 C48 1.398 . S
C47 H74 0.930 . S
C48 C43 1.382 . S
C48 C47 1.398 . S
C48 H75 0.929 . S
C49 O62 1.271 . S
C49 O63 1.251 1_455 S
C50 O64 1.252 . S
C50 O65 1.272 . S
C51 Sm41 2.846 . S
C51 C52 1.506 . S
C51 O66 1.261 . S
C51 O67 1.242 . S
C52 C51 1.506 . S
C52 C53 1.358 . S
C52 C57 1.382 . S
C53 C52 1.358 . S
C53 C54 1.385 . S
C53 H76 0.930 . S
C54 C53 1.385 . S
C54 C55 1.395 . S
C54 H77 0.929 . S
C55 C54 1.395 . S
C55 C56 1.335 . S
C56 C55 1.335 . S
C56 C57 1.398 . S
C56 H78 0.930 . S
C57 C52 1.382 . S
C57 C56 1.398 . S
C57 H79 0.929 . S
C58 O68 1.271 . S
C58 O69 1.251 . S
C59 O70 1.252 1_655 S
C59 O71 1.272 . S
O60 Sm40 2.543 . S
O60 C42 1.261 . S
O61 Sm40 2.450 . S
O61 C42 1.242 . S
O62 Sm40 2.681 1_455 S
O62 Sm41 2.386 . S
O62 C49 1.271 . S
O63 Sm40 2.464 . S
O63 C49 1.251 1_655 S
O64 Sm40 2.396 1_455 S
O64 C50 1.252 . S
O65 Sm41 2.408 . S
O65 C50 1.272 . S
O66 Sm41 2.543 . S
O66 C51 1.261 . S
O67 Sm41 2.450 . S
O67 C51 1.242 . S
O68 Sm40 2.386 1_455 S
O68 Sm41 2.681 . S
O68 C58 1.271 . S
O69 Sm41 2.464 . S
O69 C58 1.251 . S
O70 Sm41 2.396 . S
O70 C59 1.252 1_455 S
O71 Sm40 2.408 . S
O71 C59 1.272 . S
H72 C44 0.930 . S
H73 C45 0.929 . S
H74 C47 0.930 . S
H75 C48 0.929 . S
H76 C53 0.930 . S
H77 C54 0.929 . S
H78 C56 0.930 . S
H79 C57 0.929 . S
Sm80 C82 2.846 . S
Sm80 O100 2.543 . S
Sm80 O101 2.450 . S
Sm80 O102 2.681 1_545 S
Sm80 O103 2.464 . S
Sm80 O104 2.396 1_545 S
Sm80 O108 2.386 . S
Sm80 O111 2.408 . S
Sm81 C91 2.846 . S
Sm81 O102 2.386 . S
Sm81 O105 2.408 . S
Sm81 O106 2.543 . S
Sm81 O107 2.450 . S
Sm81 O108 2.681 1_565 S
Sm81 O109 2.464 . S
Sm81 O110 2.396 1_565 S
C82 Sm80 2.846 . S
C82 C83 1.506 . S
C82 O100 1.261 . S
C82 O101 1.242 . S
C83 C82 1.506 . S
C83 C84 1.358 . S
C83 C88 1.382 . S
C84 C83 1.358 . S
C84 C85 1.385 . S
C84 H112 0.930 . S
C85 C84 1.385 . S
C85 C86 1.395 . S
C85 H113 0.929 . S
C86 C85 1.395 . S
C86 C87 1.335 . S
C87 C86 1.335 . S
C87 C88 1.398 . S
C87 H114 0.930 . S
C88 C83 1.382 . S
C88 C87 1.398 . S
C88 H115 0.929 . S
C89 O102 1.271 1_545 S
C89 O103 1.251 . S
C90 O104 1.252 . S
C90 O105 1.272 . S
C91 Sm81 2.846 . S
C91 C92 1.506 . S
C91 O106 1.261 . S
C91 O107 1.242 . S
C92 C91 1.506 . S
C92 C93 1.358 . S
C92 C97 1.382 . S
C93 C92 1.358 . S
C93 C94 1.385 1_554 S
C93 H116 0.930 . S
C94 C93 1.385 1_556 S
C94 C95 1.395 . S
C94 H117 0.929 . S
C95 C94 1.395 . S
C95 C96 1.335 . S
C96 C95 1.335 . S
C96 C97 1.398 1_556 S
C96 H118 0.930 . S
C97 C92 1.382 . S
C97 C96 1.398 1_554 S
C97 H119 0.929 . S
C98 O108 1.271 1_565 S
C98 O109 1.251 . S
C99 O110 1.252 . S
C99 O111 1.272 . S
O100 Sm80 2.543 . S
O100 C82 1.261 . S
O101 Sm80 2.450 . S
O101 C82 1.242 . S
O102 Sm80 2.681 1_565 S
O102 Sm81 2.386 . S
O102 C89 1.271 1_565 S
O103 Sm80 2.464 . S
O103 C89 1.251 . S
O104 Sm80 2.396 1_565 S
O104 C90 1.252 . S
O105 Sm81 2.408 . S
O105 C90 1.272 . S
O106 Sm81 2.543 . S
O106 C91 1.261 . S
O107 Sm81 2.450 . S
O107 C91 1.242 . S
O108 Sm80 2.386 . S
O108 Sm81 2.681 1_545 S
O108 C98 1.271 1_545 S
O109 Sm81 2.464 . S
O109 C98 1.251 . S
O110 Sm81 2.396 1_545 S
O110 C99 1.252 . S
O111 Sm80 2.408 . S
O111 C99 1.272 . S
H112 C84 0.930 . S
H113 C85 0.929 . S
H114 C87 0.930 . S
H115 C88 0.929 . S
H116 C93 0.930 . S
H117 C94 0.929 . S
H118 C96 0.930 . S
H119 C97 0.929 . S
Sm120 C122 2.846 . S
Sm120 O140 2.543 . S
Sm120 O141 2.450 . S
Sm120 O142 2.681 1_655 S
Sm120 O143 2.464 . S
Sm120 O144 2.396 1_655 S
Sm120 O148 2.386 1_655 S
Sm120 O151 2.408 . S
Sm121 C131 2.846 . S
Sm121 O142 2.386 . S
Sm121 O145 2.408 . S
Sm121 O146 2.543 . S
Sm121 O147 2.450 . S
Sm121 O148 2.681 . S
Sm121 O149 2.464 . S
Sm121 O150 2.396 . S
C122 Sm120 2.846 . S
C122 C123 1.506 . S
C122 O140 1.261 . S
C122 O141 1.242 . S
C123 C122 1.506 . S
C123 C124 1.358 . S
C123 C128 1.382 . S
C124 C123 1.358 . S
C124 C125 1.385 . S
C124 H152 0.930 . S
C125 C124 1.385 . S
C125 C126 1.395 . S
C125 H153 0.929 . S
C126 C125 1.395 . S
C126 C127 1.335 . S
C127 C126 1.335 . S
C127 C128 1.398 . S
C127 H154 0.930 . S
C128 C123 1.382 . S
C128 C127 1.398 . S
C128 H155 0.929 . S
C129 O142 1.271 . S
C129 O143 1.251 1_455 S
C130 O144 1.252 . S
C130 O145 1.272 . S
C131 Sm121 2.846 . S
C131 C132 1.506 . S
C131 O146 1.261 . S
C131 O147 1.242 . S
C132 C131 1.506 . S
C132 C133 1.358 . S
C132 C137 1.382 . S
C133 C132 1.358 . S
C133 C134 1.385 . S
C133 H156 0.930 . S
C134 C133 1.385 . S
C134 C135 1.395 . S
C134 H157 0.929 . S
C135 C134 1.395 . S
C135 C136 1.335 . S
C136 C135 1.335 . S
C136 C137 1.398 . S
C136 H158 0.930 . S
C137 C132 1.382 . S
C137 C136 1.398 . S
C137 H159 0.929 . S
C138 O148 1.271 . S
C138 O149 1.251 . S
C139 O150 1.252 1_655 S
C139 O151 1.272 . S
O140 Sm120 2.543 . S
O140 C122 1.261 . S
O141 Sm120 2.450 . S
O141 C122 1.242 . S
O142 Sm120 2.681 1_455 S
O142 Sm121 2.386 . S
O142 C129 1.271 . S
O143 Sm120 2.464 . S
O143 C129 1.251 1_655 S
O144 Sm120 2.396 1_455 S
O144 C130 1.252 . S
O145 Sm121 2.408 . S
O145 C130 1.272 . S
O146 Sm121 2.543 . S
O146 C131 1.261 . S
O147 Sm121 2.450 . S
O147 C131 1.242 . S
O148 Sm120 2.386 1_455 S
O148 Sm121 2.681 . S
O148 C138 1.271 . S
O149 Sm121 2.464 . S
O149 C138 1.251 . S
O150 Sm121 2.396 . S
O150 C139 1.252 1_455 S
O151 Sm120 2.408 . S
O151 C139 1.272 . S
H152 C124 0.930 . S
H153 C125 0.929 . S
H154 C127 0.930 . S
H155 C128 0.929 . S
H156 C133 0.930 . S
H157 C134 0.929 . S
H158 C136 0.930 . S
H159 C137 0.929 . S
H160 C161 0.958 . S
C161 H160 0.958 . S
C161 C167 1.262 1_545 S
H162 C167 0.950 . S
H163 C171 0.949 . S
H164 C172 0.950 . S
H165 C173 0.951 . S
H166 C174 0.951 1_655 S
C167 C161 1.262 1_565 S
C167 H162 0.950 . S
C167 C168 1.478 1_565 S
C168 C167 1.478 1_545 S
C168 C169 1.397 1_645 S
C168 C185 1.394 1_655 S
C169 C168 1.397 1_465 S
C169 C170 1.438 1_565 S
C169 C174 1.429 . S
C170 C169 1.438 1_545 S
C170 C171 1.428 1_545 S
C170 C183 1.394 . S
C171 H163 0.949 . S
C171 C170 1.428 1_565 S
C171 C172 1.345 . S
C172 H164 0.950 . S
C172 C171 1.345 . S
C172 C173 1.424 . S
C173 H165 0.951 . S
C173 C172 1.424 . S
C173 C174 1.347 . S
C174 H166 0.951 1_455 S
C174 C169 1.429 . S
C174 C173 1.347 . S
H175 C176 0.951 . S
C176 H175 0.951 . S
C176 C182 1.265 . S
H177 C182 0.950 . S
H178 C186 0.949 . S
H179 C187 0.950 . S
H180 C188 0.951 . S
H181 C189 0.951 . S
C182 C176 1.265 . S
C182 H177 0.950 . S
C182 C183 1.478 . S
C183 C170 1.394 . S
C183 C182 1.478 . S
C183 C184 1.397 . S
C184 C183 1.397 . S
C184 C185 1.438 . S
C184 C189 1.429 . S
C185 C168 1.394 1_455 S
C185 C184 1.438 . S
C185 C186 1.428 1_455 S
C186 H178 0.949 . S
C186 C185 1.428 1_655 S
C186 C187 1.345 . S
C187 H179 0.950 . S
C187 C186 1.345 . S
C187 C188 1.424 1_655 S
C188 H180 0.951 . S
C188 C187 1.424 1_455 S
C188 C189 1.347 . S
C189 H181 0.951 . S
C189 C184 1.429 . S
C189 C188 1.347 . S
H190 C191 0.951 1_655 S
C191 H190 0.951 1_455 S
C191 C197 1.265 . S
H192 C197 0.950 . S
H193 C201 0.949 . S
H194 C202 0.950 1_655 S
H195 C203 0.951 . S
H196 C204 0.951 . S
C197 C191 1.265 . S
C197 H192 0.950 . S
C197 C198 1.478 1_565 S
C198 C197 1.478 1_545 S
C198 C199 1.397 . S
C198 C215 1.394 1_545 S
C199 C198 1.397 . S
C199 C200 1.438 . S
C199 C204 1.429 . S
C200 C199 1.438 . S
C200 C201 1.428 . S
C200 C213 1.394 . S
C201 H193 0.949 . S
C201 C200 1.428 . S
C201 C202 1.345 . S
C202 H194 0.950 1_455 S
C202 C201 1.345 . S
C202 C203 1.424 . S
C203 H195 0.951 . S
C203 C202 1.424 . S
C203 C204 1.347 . S
C204 H196 0.951 . S
C204 C199 1.429 . S
C204 C203 1.347 . S
H205 C206 0.951 . S
C206 H205 0.951 . S
C206 C212 1.265 . S
H207 C212 0.950 1_655 S
H208 C216 0.949 . S
H209 C217 0.950 . S
H210 C218 0.951 . S
H211 C219 0.951 . S
C212 C206 1.265 . S
C212 H207 0.950 1_455 S
C212 C213 1.478 . S
C213 C200 1.394 . S
C213 C212 1.478 . S
C213 C214 1.397 . S
C214 C213 1.397 . S
C214 C215 1.438 1_545 S
C214 C219 1.429 . S
C215 C198 1.394 1_565 S
C215 C214 1.438 1_565 S
C215 C216 1.428 . S
C216 H208 0.949 . S
C216 C215 1.428 . S
C216 C217 1.345 . S
C217 H209 0.950 . S
C217 C216 1.345 . S
C217 C218 1.424 . S
C218 H210 0.951 . S
C218 C217 1.424 . S
C218 C219 1.347 1_565 S
C219 H211 0.951 . S
C219 C214 1.429 . S
C219 C218 1.347 1_545 S
H220 C221 0.951 . S
C221 H220 0.951 . S
C221 C227 1.265 1_545 S
H222 C227 0.950 . S
H223 C231 0.949 . S
H224 C232 0.950 . S
H225 C233 0.951 . S
H226 C234 0.951 1_565 S
C227 C221 1.265 1_565 S
C227 H222 0.950 . S
C227 C228 1.478 1_565 S
C228 C227 1.478 1_545 S
C228 C229 1.397 . S
C228 C245 1.394 . S
C229 C228 1.397 . S
C229 C230 1.438 . S
C229 C234 1.429 . S
C230 C229 1.438 . S
C230 C231 1.428 . S
C230 C243 1.394 . S
C231 H223 0.949 . S
C231 C230 1.428 . S
C231 C232 1.345 . S
C232 H224 0.950 . S
C232 C231 1.345 . S
C232 C233 1.424 . S
C233 H225 0.951 . S
C233 C232 1.424 . S
C233 C234 1.347 . S
C234 H226 0.951 1_545 S
C234 C229 1.429 . S
C234 C233 1.347 . S
H235 C236 0.951 . S
C236 H235 0.951 . S
C236 C242 1.265 . S
H237 C242 0.950 . S
H238 C246 0.949 . S
H239 C247 0.950 . S
H240 C248 0.951 . S
H241 C249 0.951 . S
C242 C236 1.265 . S
C242 H237 0.950 . S
C242 C243 1.478 . S
C243 C230 1.394 . S
C243 C242 1.478 . S
C243 C244 1.397 . S
C244 C243 1.397 . S
C244 C245 1.438 . S
C244 C249 1.429 . S
C245 C228 1.394 . S
C245 C244 1.438 . S
C245 C246 1.428 . S
C246 H238 0.949 . S
C246 C245 1.428 . S
C246 C247 1.345 . S
C247 H239 0.950 . S
C247 C246 1.345 . S
C247 C248 1.424 . S
C248 H240 0.951 . S
C248 C247 1.424 . S
C248 C249 1.347 . S
C249 H241 0.951 . S
C249 C244 1.429 . S
C249 C248 1.347 . S
H250 C251 0.951 . S
C251 H250 0.951 . S
C251 C257 1.265 . S
H252 C257 0.950 1_655 S
H253 C261 0.949 . S
H254 C262 0.950 . S
H255 C263 0.951 . S
H256 C264 0.951 1_655 S
C257 C251 1.265 . S
C257 H252 0.950 1_455 S
C257 C258 1.478 . S
C258 C257 1.478 . S
C258 C259 1.397 . S
C258 C275 1.394 . S
C259 C258 1.397 . S
C259 C260 1.438 . S
C259 C264 1.429 . S
C260 C259 1.438 . S
C260 C261 1.428 . S
C260 C273 1.394 . S
C261 H253 0.949 . S
C261 C260 1.428 . S
C261 C262 1.345 . S
C262 H254 0.950 . S
C262 C261 1.345 . S
C262 C263 1.424 1_455 S
C263 H255 0.951 . S
C263 C262 1.424 1_655 S
C263 C264 1.347 1_655 S
C264 H256 0.951 1_455 S
C264 C259 1.429 . S
C264 C263 1.347 1_455 S
H265 C266 0.951 1_655 S
C266 H265 0.951 1_455 S
C266 C272 1.265 . S
H267 C272 0.950 . S
H268 C276 0.949 . S
H269 C277 0.950 . S
H270 C278 0.951 . S
H271 C279 0.951 . S
C272 C266 1.265 . S
C272 H267 0.950 . S
C272 C273 1.478 . S
C273 C260 1.394 . S
C273 C272 1.478 . S
C273 C274 1.397 . S
C274 C273 1.397 . S
C274 C275 1.438 . S
C274 C279 1.429 . S
C275 C258 1.394 . S
C275 C274 1.438 . S
C275 C276 1.428 . S
C276 H268 0.949 . S
C276 C275 1.428 . S
C276 C277 1.345 . S
C277 H269 0.950 . S
C277 C276 1.345 . S
C277 C278 1.424 . S
C278 H270 0.951 . S
C278 C277 1.424 . S
C278 C279 1.347 . S
C279 H271 0.951 . S
C279 C274 1.429 . S
C279 C278 1.347 . S
H280 C281 0.951 . S
C281 H280 0.951 . S
C281 C287 1.265 . S
H282 C287 0.950 . S
H283 C291 0.949 . S
H284 C292 0.950 . S
H285 C293 0.951 . S
H286 C294 0.951 . S
C287 C281 1.265 . S
C287 H282 0.950 . S
C287 C288 1.478 . S
C288 C287 1.478 . S
C288 C289 1.397 . S
C288 C305 1.394 . S
C289 C288 1.397 . S
C289 C290 1.438 . S
C289 C294 1.429 . S
C290 C289 1.438 . S
C290 C291 1.428 . S
C290 C303 1.394 . S
C291 H283 0.949 . S
C291 C290 1.428 . S
C291 C292 1.345 . S
C292 H284 0.950 . S
C292 C291 1.345 . S
C292 C293 1.424 . S
C293 H285 0.951 . S
C293 C292 1.424 . S
C293 C294 1.347 . S
C294 H286 0.951 . S
C294 C289 1.429 . S
C294 C293 1.347 . S
H295 C296 0.951 . S
C296 H295 0.951 . S
C296 C302 1.265 . S
H297 C302 0.950 . S
H298 C306 0.949 . S
H299 C307 0.950 . S
H300 C308 0.951 . S
H301 C309 0.951 . S
C302 C296 1.265 . S
C302 H297 0.950 . S
C302 C303 1.478 . S
C303 C290 1.394 . S
C303 C302 1.478 . S
C303 C304 1.397 . S
C304 C303 1.397 . S
C304 C305 1.438 . S
C304 C309 1.429 . S
C305 C288 1.394 . S
C305 C304 1.438 . S
C305 C306 1.428 . S
C306 H298 0.949 . S
C306 C305 1.428 . S
C306 C307 1.345 . S
C307 H299 0.950 . S
C307 C306 1.345 . S
C307 C308 1.424 . S
C308 H300 0.951 . S
C308 C307 1.424 . S
C308 C309 1.347 . S
C309 H301 0.951 . S
C309 C304 1.429 . S
C309 C308 1.347 . S
H310 C311 0.951 . S
C311 H310 0.951 . S
C311 C317 1.265 . S
H312 C317 0.950 . S
H313 C321 0.949 . S
H314 C322 0.950 1_565 S
H315 C323 0.951 . S
H316 C324 0.951 . S
C317 C311 1.265 . S
C317 H312 0.950 . S
C317 C318 1.478 . S
C318 C317 1.478 . S
C318 C319 1.397 . S
C318 C335 1.394 . S
C319 C318 1.397 . S
C319 C320 1.438 . S
C319 C324 1.429 . S
C320 C319 1.438 . S
C320 C321 1.428 . S
C320 C333 1.394 . S
C321 H313 0.949 . S
C321 C320 1.428 . S
C321 C322 1.345 . S
C322 H314 0.950 1_545 S
C322 C321 1.345 . S
C322 C323 1.424 . S
C323 H315 0.951 . S
C323 C322 1.424 . S
C323 C324 1.347 . S
C324 H316 0.951 . S
C324 C319 1.429 . S
C324 C323 1.347 . S
H325 C326 0.951 . S
C326 H325 0.951 . S
C326 C332 1.265 . S
H327 C332 0.950 . S
H328 C336 0.949 . S
H329 C337 0.950 . S
H330 C338 0.951 . S
H331 C339 0.951 . S
C332 C326 1.265 . S
C332 H327 0.950 . S
C332 C333 1.478 1_554 S
C333 C320 1.394 . S
C333 C332 1.478 1_556 S
C333 C334 1.397 . S
C334 C333 1.397 . S
C334 C335 1.438 . S
C334 C339 1.429 1_556 S
C335 C318 1.394 . S
C335 C334 1.438 . S
C335 C336 1.428 . S
C336 H328 0.949 . S
C336 C335 1.428 . S
C336 C337 1.345 . S
C337 H329 0.950 . S
C337 C336 1.345 . S
C337 C338 1.424 1_556 S
C338 H330 0.951 . S
C338 C337 1.424 1_554 S
C338 C339 1.347 . S
C339 H331 0.951 . S
C339 C334 1.429 1_554 S
C339 C338 1.347 . S
H340 C341 0.951 . S
C341 H340 0.951 . S
C341 C347 1.265 . S
H342 C347 0.950 . S
H343 C351 0.949 . S
H344 C352 0.950 . S
H345 C353 0.951 . S
H346 C354 0.951 . S
C347 C341 1.265 . S
C347 H342 0.950 . S
C347 C348 1.478 . S
C348 C347 1.478 . S
C348 C349 1.397 . S
C348 C365 1.394 . S
C349 C348 1.397 . S
C349 C350 1.438 . S
C349 C354 1.429 . S
C350 C349 1.438 . S
C350 C351 1.428 . S
C350 C363 1.394 . S
C351 H343 0.949 . S
C351 C350 1.428 . S
C351 C352 1.345 . S
C352 H344 0.950 . S
C352 C351 1.345 . S
C352 C353 1.424 . S
C353 H345 0.951 . S
C353 C352 1.424 . S
C353 C354 1.347 . S
C354 H346 0.951 . S
C354 C349 1.429 . S
C354 C353 1.347 . S
H355 C356 0.951 . S
C356 H355 0.951 . S
C356 C362 1.265 . S
H357 C362 0.950 . S
H358 C366 0.949 . S
H359 C367 0.950 1_545 S
H360 C368 0.951 . S
H361 C369 0.951 . S
C362 C356 1.265 . S
C362 H357 0.950 . S
C362 C363 1.478 . S
C363 C350 1.394 . S
C363 C362 1.478 . S
C363 C364 1.397 . S
C364 C363 1.397 . S
C364 C365 1.438 . S
C364 C369 1.429 . S
C365 C348 1.394 . S
C365 C364 1.438 . S
C365 C366 1.428 . S
C366 H358 0.949 . S
C366 C365 1.428 . S
C366 C367 1.345 . S
C367 H359 0.950 1_565 S
C367 C366 1.345 . S
C367 C368 1.424 1_565 S
C368 H360 0.951 . S
C368 C367 1.424 1_545 S
C368 C369 1.347 1_545 S
C369 H361 0.951 . S
C369 C364 1.429 . S
C369 C368 1.347 1_565 S
H370 C371 0.951 . S
C371 H370 0.951 . S
C371 C377 1.265 . S
H372 C377 0.950 . S
H373 C381 0.949 . S
H374 C382 0.950 . S
H375 C383 0.951 . S
H376 C384 0.951 . S
C377 C371 1.265 . S
C377 H372 0.950 . S
C377 C378 1.478 . S
C378 C377 1.478 . S
C378 C379 1.397 . S
C378 C395 1.394 . S
C379 C378 1.397 . S
C379 C380 1.438 . S
C379 C384 1.429 . S
C380 C379 1.438 . S
C380 C381 1.428 . S
C380 C393 1.394 . S
C381 H373 0.949 . S
C381 C380 1.428 . S
C381 C382 1.345 . S
C382 H374 0.950 . S
C382 C381 1.345 . S
C382 C383 1.424 . S
C383 H375 0.951 . S
C383 C382 1.424 . S
C383 C384 1.347 . S
C384 H376 0.951 . S
C384 C379 1.429 . S
C384 C383 1.347 . S
H385 C386 0.951 . S
C386 H385 0.951 . S
C386 C392 1.265 . S
H387 C392 0.950 . S
H388 C396 0.949 . S
H389 C397 0.950 . S
H390 C398 0.951 1_545 S
H391 C399 0.951 . S
C392 C386 1.265 . S
C392 H387 0.950 . S
C392 C393 1.478 . S
C393 C380 1.394 . S
C393 C392 1.478 . S
C393 C394 1.397 . S
C394 C393 1.397 . S
C394 C395 1.438 . S
C394 C399 1.429 . S
C395 C378 1.394 . S
C395 C394 1.438 . S
C395 C396 1.428 . S
C396 H388 0.949 . S
C396 C395 1.428 . S
C396 C397 1.345 . S
C397 H389 0.950 . S
C397 C396 1.345 . S
C397 C398 1.424 . S
C398 H390 0.951 1_565 S
C398 C397 1.424 . S
C398 C399 1.347 . S
C399 H391 0.951 . S
C399 C394 1.429 . S
C399 C398 1.347 . S
H400 C401 0.951 . S
C401 H400 0.951 . S
C401 C407 1.265 . S
H402 C407 0.950 . S
H403 C411 0.949 . S
H404 C412 0.950 . S
H405 C413 0.951 . S
H406 C414 0.951 . S
C407 C401 1.265 . S
C407 H402 0.950 . S
C407 C408 1.478 . S
C408 C407 1.478 . S
C408 C409 1.397 . S
C408 C425 1.394 . S
C409 C408 1.397 . S
C409 C410 1.438 . S
C409 C414 1.429 . S
C410 C409 1.438 . S
C410 C411 1.428 . S
C410 C423 1.394 . S
C411 H403 0.949 . S
C411 C410 1.428 . S
C411 C412 1.345 . S
C412 H404 0.950 . S
C412 C411 1.345 . S
C412 C413 1.424 . S
C413 H405 0.951 . S
C413 C412 1.424 . S
C413 C414 1.347 . S
C414 H406 0.951 . S
C414 C409 1.429 . S
C414 C413 1.347 . S
H415 C416 0.951 . S
C416 H415 0.951 . S
C416 C422 1.265 . S
H417 C422 0.950 . S
H418 C426 0.949 . S
H419 C427 0.950 . S
H420 C428 0.951 . S
H421 C429 0.951 . S
C422 C416 1.265 . S
C422 H417 0.950 . S
C422 C423 1.478 . S
C423 C410 1.394 . S
C423 C422 1.478 . S
C423 C424 1.397 . S
C424 C423 1.397 . S
C424 C425 1.438 . S
C424 C429 1.429 . S
C425 C408 1.394 . S
C425 C424 1.438 . S
C425 C426 1.428 . S
C426 H418 0.949 . S
C426 C425 1.428 . S
C426 C427 1.345 . S
C427 H419 0.950 . S
C427 C426 1.345 . S
C427 C428 1.424 . S
C428 H420 0.951 . S
C428 C427 1.424 . S
C428 C429 1.347 . S
C429 H421 0.951 . S
C429 C424 1.429 . S
C429 C428 1.347 . S
H430 C431 0.951 . S
C431 H430 0.951 . S
C431 C437 1.265 1_545 S
H432 C437 0.950 . S
H433 C441 0.949 . S
H434 C442 0.950 . S
H435 C443 0.951 . S
H436 C444 0.951 . S
C437 C431 1.265 1_565 S
C437 H432 0.950 . S
C437 C438 1.478 . S
C438 C437 1.478 . S
C438 C439 1.397 . S
C438 C455 1.394 . S
C439 C438 1.397 . S
C439 C440 1.438 . S
C439 C444 1.429 . S
C440 C439 1.438 . S
C440 C441 1.428 . S
C440 C453 1.394 . S
C441 H433 0.949 . S
C441 C440 1.428 . S
C441 C442 1.345 . S
C442 H434 0.950 . S
C442 C441 1.345 . S
C442 C443 1.424 . S
C443 H435 0.951 . S
C443 C442 1.424 . S
C443 C444 1.347 . S
C444 H436 0.951 . S
C444 C439 1.429 . S
C444 C443 1.347 . S
H445 C446 0.951 . S
C446 H445 0.951 . S
C446 C452 1.265 . S
H447 C452 0.950 . S
H448 C456 0.949 . S
H449 C457 0.950 . S
H450 C458 0.951 . S
H451 C459 0.951 . S
C452 C446 1.265 . S
C452 H447 0.950 . S
C452 C453 1.478 . S
C453 C440 1.394 . S
C453 C452 1.478 . S
C453 C454 1.397 . S
C454 C453 1.397 . S
C454 C455 1.438 . S
C454 C459 1.429 . S
C455 C438 1.394 . S
C455 C454 1.438 . S
C455 C456 1.428 . S
C456 H448 0.949 . S
C456 C455 1.428 . S
C456 C457 1.345 . S
C457 H449 0.950 . S
C457 C456 1.345 . S
C457 C458 1.424 . S
C458 H450 0.951 . S
C458 C457 1.424 . S
C458 C459 1.347 . S
C459 H451 0.951 . S
C459 C454 1.429 . S
C459 C458 1.347 . S
H460 C461 0.951 . S
C461 H460 0.951 . S
C461 C467 1.265 . S
H462 C467 0.950 . S
H463 C471 0.949 . S
H464 C472 0.950 . S
H465 C473 0.951 . S
H466 C474 0.951 . S
C467 C461 1.265 . S
C467 H462 0.950 . S
C467 C468 1.478 . S
C468 C467 1.478 . S
C468 C469 1.397 . S
C468 C485 1.394 . S
C469 C468 1.397 . S
C469 C470 1.438 . S
C469 C474 1.429 . S
C470 C469 1.438 . S
C470 C471 1.428 . S
C470 C483 1.394 . S
C471 H463 0.949 . S
C471 C470 1.428 . S
C471 C472 1.345 . S
C472 H464 0.950 . S
C472 C471 1.345 . S
C472 C473 1.424 . S
C473 H465 0.951 . S
C473 C472 1.424 . S
C473 C474 1.347 . S
C474 H466 0.951 . S
C474 C469 1.429 . S
C474 C473 1.347 . S
H475 C476 0.951 . S
C476 H475 0.951 . S
C476 C482 1.265 . S
H477 C482 0.950 . S
H478 C486 0.949 . S
H479 C487 0.950 . S
H480 C488 0.951 . S
H481 C489 0.951 . S
C482 C476 1.265 . S
C482 H477 0.950 . S
C482 C483 1.478 . S
C483 C470 1.394 . S
C483 C482 1.478 . S
C483 C484 1.397 . S
C484 C483 1.397 . S
C484 C485 1.438 . S
C484 C489 1.429 . S
C485 C468 1.394 . S
C485 C484 1.438 . S
C485 C486 1.428 . S
C486 H478 0.949 . S
C486 C485 1.428 . S
C486 C487 1.345 . S
C487 H479 0.950 . S
C487 C486 1.345 . S
C487 C488 1.424 . S
C488 H480 0.951 . S
C488 C487 1.424 . S
C488 C489 1.347 . S
C489 H481 0.951 . S
C489 C484 1.429 . S
C489 C488 1.347 . S
H490 C491 0.951 . S
C491 H490 0.951 . S
C491 C497 1.265 . S
H492 C497 0.950 . S
H493 C501 0.949 . S
H494 C502 0.950 . S
H495 C503 0.951 . S
H496 C504 0.951 . S
C497 C491 1.265 . S
C497 H492 0.950 . S
C497 C498 1.478 . S
C498 C497 1.478 . S
C498 C499 1.397 . S
C498 C515 1.394 . S
C499 C498 1.397 . S
C499 C500 1.438 . S
C499 C504 1.429 . S
C500 C499 1.438 . S
C500 C501 1.428 . S
C500 C513 1.394 . S
C501 H493 0.949 . S
C501 C500 1.428 . S
C501 C502 1.345 . S
C502 H494 0.950 . S
C502 C501 1.345 . S
C502 C503 1.424 . S
C503 H495 0.951 . S
C503 C502 1.424 . S
C503 C504 1.347 . S
C504 H496 0.951 . S
C504 C499 1.429 . S
C504 C503 1.347 . S
H505 C506 0.951 . S
C506 H505 0.951 . S
C506 C512 1.265 . S
H507 C512 0.950 . S
H508 C516 0.949 . S
H509 C517 0.950 . S
H510 C518 0.951 . S
H511 C519 0.951 . S
C512 C506 1.265 . S
C512 H507 0.950 . S
C512 C513 1.478 . S
C513 C500 1.394 . S
C513 C512 1.478 . S
C513 C514 1.397 . S
C514 C513 1.397 . S
C514 C515 1.438 . S
C514 C519 1.429 . S
C515 C498 1.394 . S
C515 C514 1.438 . S
C515 C516 1.428 . S
C516 H508 0.949 . S
C516 C515 1.428 . S
C516 C517 1.345 . S
C517 H509 0.950 . S
C517 C516 1.345 . S
C517 C518 1.424 . S
C518 H510 0.951 . S
C518 C517 1.424 . S
C518 C519 1.347 . S
C519 H511 0.951 . S
C519 C514 1.429 . S
C519 C518 1.347 . S
C161 C89 0.392 . S
C176 C18 0.382 . S
C191 C129 0.532 . S
C206 C58 0.532 . S
C221 C98 1.072 1_545 S
C236 C9 1.070 . S
C251 C49 1.070 . S
C266 C138 1.070 . S
C281 C55 1.041 . S
C296 C6 0.991 . S
C311 C46 1.652 . S
C326 C99 1.686 . S
C341 C139 2.132 . S
C356 C90 2.031 . S
C371 C130 1.320 . S
C386 C15 1.369 . S
C401 C95 0.991 . S
C416 C126 1.042 . S
C431 C10 1.683 . S
C446 C135 1.689 . S
C461 C50 2.132 . S
C476 C19 2.086 1_556 S
C491 C86 1.410 . S
C506 C59 1.351 . S
