# Generated by pormake.
# Topology wjr, (5)-cn, num edge types: 1
# Building blocks:
#     Node 0, Type 0, BuildingBlock: XOMCOT_clean_sbu_0, # of connection points: 5
#     Node 1, Type 0, BuildingBlock: XOMCOT_clean_sbu_0, # of connection points: 5
#     Node 2, Type 0, BuildingBlock: XOMCOT_clean_sbu_0, # of connection points: 5
#     Node 3, Type 0, BuildingBlock: XOMCOT_clean_sbu_0, # of connection points: 5
#     Node 4, Type 0, BuildingBlock: XOMCOT_clean_sbu_0, # of connection points: 5
#     Node 5, Type 0, BuildingBlock: XOMCOT_clean_sbu_0, # of connection points: 5
#     Node 6, Type 0, BuildingBlock: XOMCOT_clean_sbu_0, # of connection points: 5
#     Node 7, Type 0, BuildingBlock: XOMCOT_clean_sbu_0, # of connection points: 5
#     Node 8, Type 0, BuildingBlock: XOMCOT_clean_sbu_0, # of connection points: 5
#     Node 9, Type 0, BuildingBlock: XOMCOT_clean_sbu_0, # of connection points: 5
#     Node 10, Type 0, BuildingBlock: XOMCOT_clean_sbu_0, # of connection points: 5
#     Node 11, Type 0, BuildingBlock: XOMCOT_clean_sbu_0, # of connection points: 5
#     Node 12, Type 0, BuildingBlock: XOMCOT_clean_sbu_0, # of connection points: 5
#     Node 13, Type 0, BuildingBlock: XOMCOT_clean_sbu_0, # of connection points: 5
#     Node 14, Type 0, BuildingBlock: XOMCOT_clean_sbu_0, # of connection points: 5
#     Node 15, Type 0, BuildingBlock: XOMCOT_clean_sbu_0, # of connection points: 5
#     Node 16, Type 0, BuildingBlock: XOMCOT_clean_sbu_0, # of connection points: 5
#     Node 17, Type 0, BuildingBlock: XOMCOT_clean_sbu_0, # of connection points: 5
#     Node 18, Type 0, BuildingBlock: XOMCOT_clean_sbu_0, # of connection points: 5
#     Node 19, Type 0, BuildingBlock: XOMCOT_clean_sbu_0, # of connection points: 5
#     Node 20, Type 0, BuildingBlock: XOMCOT_clean_sbu_0, # of connection points: 5
#     Node 21, Type 0, BuildingBlock: XOMCOT_clean_sbu_0, # of connection points: 5
#     Node 22, Type 0, BuildingBlock: XOMCOT_clean_sbu_0, # of connection points: 5
#     Node 23, Type 0, BuildingBlock: XOMCOT_clean_sbu_0, # of connection points: 5
#     Edge 24, Type (0, 0), None
#     Edge 25, Type (0, 0), None
#     Edge 26, Type (0, 0), None
#     Edge 27, Type (0, 0), None
#     Edge 28, Type (0, 0), None
#     Edge 29, Type (0, 0), None
#     Edge 30, Type (0, 0), None
#     Edge 31, Type (0, 0), None
#     Edge 32, Type (0, 0), None
#     Edge 33, Type (0, 0), None
#     Edge 34, Type (0, 0), None
#     Edge 35, Type (0, 0), None
#     Edge 36, Type (0, 0), None
#     Edge 37, Type (0, 0), None
#     Edge 38, Type (0, 0), None
#     Edge 39, Type (0, 0), None
#     Edge 40, Type (0, 0), None
#     Edge 41, Type (0, 0), None
#     Edge 42, Type (0, 0), None
#     Edge 43, Type (0, 0), None
#     Edge 44, Type (0, 0), None
#     Edge 45, Type (0, 0), None
#     Edge 46, Type (0, 0), None
#     Edge 47, Type (0, 0), None
#     Edge 48, Type (0, 0), None
#     Edge 49, Type (0, 0), None
#     Edge 50, Type (0, 0), None
#     Edge 51, Type (0, 0), None
#     Edge 52, Type (0, 0), None
#     Edge 53, Type (0, 0), None
#     Edge 54, Type (0, 0), None
#     Edge 55, Type (0, 0), None
#     Edge 56, Type (0, 0), None
#     Edge 57, Type (0, 0), None
#     Edge 58, Type (0, 0), None
#     Edge 59, Type (0, 0), None
#     Edge 60, Type (0, 0), None
#     Edge 61, Type (0, 0), None
#     Edge 62, Type (0, 0), None
#     Edge 63, Type (0, 0), None
#     Edge 64, Type (0, 0), None
#     Edge 65, Type (0, 0), None
#     Edge 66, Type (0, 0), None
#     Edge 67, Type (0, 0), None
#     Edge 68, Type (0, 0), None
#     Edge 69, Type (0, 0), None
#     Edge 70, Type (0, 0), None
#     Edge 71, Type (0, 0), None
#     Edge 72, Type (0, 0), None
#     Edge 73, Type (0, 0), None
#     Edge 74, Type (0, 0), None
#     Edge 75, Type (0, 0), None
#     Edge 76, Type (0, 0), None
#     Edge 77, Type (0, 0), None
#     Edge 78, Type (0, 0), None
#     Edge 79, Type (0, 0), None
#     Edge 80, Type (0, 0), None
#     Edge 81, Type (0, 0), None
#     Edge 82, Type (0, 0), None
#     Edge 83, Type (0, 0), None
# Relax obj value: 0.380
# Max RMSD: 0.219
# Mean RMSD: 0.219
data_MOF--net-wjr--node1-XOMCOT_clean_sbu_0--edge1-none
_symmetry_space_group_name_H-M    P1
_symmetry_Int_Tables_number       1
_symmetry_cell_setting            triclinic
loop_
_symmetry_equiv_pos_as_xyz
'x, y, z'
_cell_length_a     35.158334
_cell_length_b     35.224243
_cell_length_c     24.381135
_cell_angle_alpha  90.229773
_cell_angle_beta   89.821337
_cell_angle_gamma 120.17913
loop_
_atom_site_label
_atom_site_type_symbol
_atom_site_fract_x
_atom_site_fract_y
_atom_site_fract_z
_atom_type_partial_charge
Co0 Co 0.48179 0.11178 0.27185 0.0
C1 C 0.4512 0.17329 0.30021 0.0
C2 C 0.50498 0.18362 0.35146 0.0
C3 C 0.50079 0.22044 0.35422 0.0
N4 N 0.47485 0.15436 0.31602 0.0
N5 N 0.4675 0.214 0.32113 0.0
H6 H 0.42574 0.15992 0.26932 0.0
H7 H 0.53133 0.18088 0.37003 0.0
C8 C 0.4004 0.01842 0.29145 0.0
O9 O 0.40315 0.00391 0.24281 0.0
N10 N 0.49068 0.07367 0.22454 0.0
C11 C 0.50221 0.08122 0.17091 0.0
C12 C 0.50947 0.04899 0.15173 0.0
C13 C 0.49389 0.03878 0.23824 0.0
N14 N 0.50404 0.0228 0.19428 0.0
C15 C 0.48191 0.1648 0.18303 0.0
C16 C 0.41222 0.09793 0.12685 0.0
C17 C 0.44166 0.13594 0.09724 0.0
C18 C 0.4745 0.17108 0.12821 0.0
C19 C 0.41964 0.09381 0.18246 0.0
N20 N 0.45646 0.12537 0.20832 0.0
H21 H 0.51035 0.19051 0.20394 0.0
H22 H 0.3978 0.06356 0.20276 0.0
H23 H 0.50659 0.10891 0.14724 0.0
H24 H 0.48835 0.0254 0.27884 0.0
O25 O 0.54561 0.15351 0.2614 0.0
O26 O 0.51748 0.10568 0.3282 0.0
O27 O 0.42269 0.06026 0.30242 0.0
C28 C 0.55268 0.13516 0.30365 0.0
H29 H 0.5224 0.25056 0.37592 0.0
H30 H 0.51894 0.04556 0.11057 0.0
H31 H 0.38529 0.06979 0.10717 0.0
H32 H 0.49661 0.20256 0.11008 0.0
Co33 Co 0.36866 0.47694 0.26232 0.0
C34 C 0.27742 0.45395 0.28809 0.0
C35 C 0.32264 0.50146 0.34528 0.0
C36 C 0.28271 0.49975 0.35038 0.0
N37 N 0.31988 0.4735 0.30515 0.0
N38 N 0.25479 0.4703 0.31382 0.0
H39 H 0.26398 0.43087 0.25449 0.0
H40 H 0.35227 0.52427 0.36683 0.0
C41 C 0.37534 0.3943 0.28021 0.0
O42 O 0.3872 0.39224 0.22968 0.0
N43 N 0.41538 0.48188 0.21651 0.0
C44 C 0.41926 0.48718 0.1613 0.0
C45 C 0.4577 0.48999 0.14468 0.0
C46 C 0.45253 0.48389 0.23295 0.0
N47 N 0.47793 0.4877 0.18991 0.0
C48 C 0.32467 0.48589 0.16948 0.0
C49 C 0.30324 0.40729 0.11904 0.0
C50 C 0.30371 0.44066 0.08659 0.0
C51 C 0.31207 0.4794 0.11429 0.0
C52 C 0.31674 0.41546 0.17423 0.0
N53 N 0.33047 0.45569 0.19738 0.0
H54 H 0.33412 0.51725 0.1882 0.0
H55 H 0.31864 0.39031 0.19687 0.0
H56 H 0.39678 0.49001 0.13417 0.0
H57 H 0.4604 0.48244 0.2751 0.0
O58 O 0.39583 0.54149 0.25496 0.0
O59 O 0.41012 0.50844 0.32115 0.0
O60 O 0.35534 0.41603 0.29073 0.0
C61 C 0.41879 0.54515 0.29873 0.0
H62 H 0.27554 0.52004 0.37696 0.0
H63 H 0.47045 0.49478 0.10329 0.0
H64 H 0.29472 0.3757 0.10172 0.0
H65 H 0.31286 0.50667 0.09322 0.0
Co66 Co 0.89384 0.36613 0.26456 0.0
C67 C 0.82748 0.27461 0.29073 0.0
C68 C 0.82163 0.31933 0.34517 0.0
C69 C 0.78389 0.27884 0.34929 0.0
N70 N 0.84875 0.31723 0.30729 0.0
N71 N 0.78762 0.2512 0.31441 0.0
H72 H 0.83885 0.26165 0.25842 0.0
H73 H 0.82672 0.34881 0.36548 0.0
C74 C 0.98376 0.37511 0.28371 0.0
O75 O -0.00153 0.38603 0.23332 0.0
N76 N 0.93533 0.41287 0.21854 0.0
C77 C 0.93237 0.41672 0.16359 0.0
C78 C 0.96718 0.45547 0.14634 0.0
C79 C 0.9706 0.45042 0.23432 0.0
N80 N 0.99078 0.47604 0.19095 0.0
C81 C 0.83952 0.32086 0.17282 0.0
C82 C 0.89816 0.30306 0.1193 0.0
C83 C 0.86414 0.30263 0.08802 0.0
C84 C 0.833 0.30892 0.11734 0.0
C85 C 0.90387 0.31588 0.17483 0.0
N86 N 0.87658 0.32792 0.19951 0.0
H87 H 0.81701 0.32893 0.19279 0.0
H88 H 0.93194 0.31896 0.19644 0.0
H89 H 0.90618 0.39422 0.13722 0.0
H90 H 0.98073 0.45867 0.27624 0.0
O91 O 0.85603 0.39253 0.25739 0.0
O92 O 0.90395 0.40749 0.32352 0.0
O93 O 0.9417 0.35323 0.29252 0.0
C94 C 0.8756 0.41571 0.30106 0.0
H95 H 0.7552 0.27107 0.37384 0.0
H96 H 0.97354 0.46843 0.10506 0.0
H97 H 0.92189 0.29595 0.10091 0.0
H98 H 0.80548 0.30864 0.0975 0.0
Co99 Co 0.52231 0.8886 0.26135 0.0
C100 C 0.54194 0.81717 0.27948 0.0
C101 C 0.5176 0.83063 0.35347 0.0
C102 C 0.52185 0.79405 0.36169 0.0
N103 N 0.52977 0.84494 0.30151 0.0
N104 N 0.53675 0.78584 0.31472 0.0
H105 H 0.55358 0.81847 0.23826 0.0
H106 H 0.5044 0.84421 0.38264 0.0
C107 C 0.60475 0.97921 0.27804 0.0
O108 O 0.6052 0.99409 0.22861 0.0
N109 N 0.51371 0.92884 0.21767 0.0
C110 C 0.50354 0.92493 0.16352 0.0
C111 C 0.49967 0.95982 0.14752 0.0
C112 C 0.51337 0.96477 0.23448 0.0
N113 N 0.50609 0.98443 0.19222 0.0
C114 C 0.50974 0.83601 0.16631 0.0
C115 C 0.58679 0.89351 0.11302 0.0
C116 C 0.55236 0.86023 0.08152 0.0
C117 C 0.51451 0.82967 0.11062 0.0
C118 C 0.58034 0.8991 0.16878 0.0
N119 N 0.54096 0.87222 0.19364 0.0
H120 H 0.47898 0.81388 0.18628 0.0
H121 H 0.6061 0.9266 0.19065 0.0
H122 H 0.498 0.8984 0.13668 0.0
H123 H 0.51873 0.97614 0.27612 0.0
O124 O 0.45762 0.8496 0.25878 0.0
O125 O 0.49296 0.89797 0.32346 0.0
O126 O 0.58411 0.93725 0.28662 0.0
C127 C 0.45537 0.86904 0.30341 0.0
H128 H 0.51225 0.77368 0.39799 0.0
H129 H 0.49148 0.96599 0.10705 0.0
H130 H 0.61795 0.91676 0.09481 0.0
H131 H 0.48661 0.80277 0.0906 0.0
Co132 Co 0.63236 0.51891 0.26906 0.0
C133 C 0.70655 0.50948 0.30361 0.0
C134 C 0.71267 0.56918 0.33487 0.0
C135 C 0.75323 0.57203 0.33836 0.0
N136 N 0.68337 0.53014 0.31221 0.0
N137 N 0.74925 0.53482 0.31749 0.0
H138 H 0.69346 0.47817 0.28309 0.0
H139 H 0.70682 0.596 0.34274 0.0
C140 C 0.61663 0.59833 0.29033 0.0
O141 O 0.5968 0.59443 0.2434 0.0
N142 N 0.58404 0.50652 0.22228 0.0
C143 C 0.57985 0.49315 0.16935 0.0
C144 C 0.53986 0.48448 0.15008 0.0
C145 C 0.54571 0.50318 0.23559 0.0
N146 N 0.51906 0.49106 0.19196 0.0
C147 C 0.68634 0.52136 0.17869 0.0
C148 C 0.68243 0.58678 0.12172 0.0
C149 C 0.69291 0.55866 0.09217 0.0
C150 C 0.69869 0.52835 0.12334 0.0
C151 C 0.67273 0.58025 0.17813 0.0
N152 N 0.67094 0.54537 0.20484 0.0
H153 H 0.68423 0.49298 0.19799 0.0
H154 H 0.66207 0.60045 0.19829 0.0
H155 H 0.6035 0.48862 0.14634 0.0
H156 H 0.53802 0.50995 0.27569 0.0
O157 O 0.61294 0.45559 0.26019 0.0
O158 O 0.59224 0.48284 0.32686 0.0
O159 O 0.63684 0.57663 0.29917 0.0
C160 C 0.58772 0.44793 0.30311 0.0
H161 H 0.78389 0.60073 0.35021 0.0
H162 H 0.52669 0.47334 0.10938 0.0
H163 H 0.67811 0.61152 0.10136 0.0
H164 H 0.70917 0.50723 0.10476 0.0
Co165 Co 0.11045 0.63365 0.26766 0.0
C166 C 0.19403 0.70916 0.3015 0.0
C167 C 0.13998 0.71374 0.33457 0.0
C168 C 0.17767 0.75444 0.3391 0.0
N169 N 0.1501 0.68531 0.31035 0.0
N170 N 0.21119 0.7514 0.31719 0.0
H171 H 0.21258 0.69687 0.28008 0.0
H172 H 0.10705 0.70709 0.3433 0.0
C173 C 0.01441 0.61584 0.28678 0.0
O174 O -0.00067 0.59496 0.24012 0.0
N175 N 0.07478 0.58462 0.22127 0.0
C176 C 0.08336 0.58059 0.16801 0.0
C177 C 0.05327 0.53968 0.14961 0.0
C178 C 0.04134 0.5454 0.23548 0.0
N179 N 0.02729 0.51818 0.19226 0.0
C180 C 0.16144 0.68675 0.17637 0.0
C181 C 0.09187 0.68416 0.12109 0.0
C182 C 0.13028 0.69478 0.09083 0.0
C183 C 0.16652 0.69967 0.12129 0.0
C184 C 0.08896 0.67372 0.17715 0.0
N185 N 0.12219 0.67149 0.20302 0.0
H186 H 0.1878 0.68433 0.19511 0.0
H187 H 0.05823 0.66325 0.19772 0.0
H188 H 0.11043 0.60488 0.1441 0.0
H189 H 0.02765 0.53742 0.27594 0.0
O190 O 0.15515 0.61506 0.26018 0.0
O191 O 0.10682 0.59459 0.32636 0.0
O192 O 0.0564 0.63739 0.29642 0.0
C193 C 0.13778 0.59047 0.30351 0.0
H194 H 0.17945 0.78459 0.35263 0.0
H195 H 0.05118 0.52642 0.10891 0.0
H196 H 0.06268 0.68047 0.10156 0.0
H197 H 0.19807 0.71012 0.10241 0.0
Co198 Co 0.89271 0.52418 0.35249 0.0
C199 C 0.82394 0.54577 0.32638 0.0
C200 C 0.82118 0.49726 0.27068 0.0
C201 C 0.78238 0.49792 0.26652 0.0
N202 N 0.84704 0.52647 0.30942 0.0
N203 N 0.78418 0.52795 0.30227 0.0
H204 H 0.83402 0.56963 0.35914 0.0
H205 H 0.82791 0.47422 0.24973 0.0
C206 C 0.98207 0.60644 0.33278 0.0
O207 O 0.99665 0.61045 0.38321 0.0
N208 N 0.93468 0.52028 0.39878 0.0
C209 C 0.93209 0.51416 0.45387 0.0
C210 C 0.96735 0.51117 0.47116 0.0
C211 C 0.97019 0.51856 0.38302 0.0
N212 N 0.99085 0.51412 0.42645 0.0
C213 C 0.83822 0.51456 0.44433 0.0
C214 C 0.8959 0.59205 0.49681 0.0
C215 C 0.86236 0.55818 0.52851 0.0
C216 C 0.83164 0.52015 0.49974 0.0
C217 C 0.90167 0.58478 0.44133 0.0
N218 N 0.87492 0.545 0.41719 0.0
H219 H 0.81612 0.48358 0.4248 0.0
H220 H 0.92942 0.61005 0.41937 0.0
H221 H 0.90589 0.51028 0.48035 0.0
H222 H 0.98011 0.52006 0.34104 0.0
O223 O 0.8557 0.45977 0.36043 0.0
O224 O 0.9035 0.49302 0.29406 0.0
O225 O 0.94002 0.58524 0.32375 0.0
C226 C 0.87547 0.45633 0.31685 0.0
H227 H 0.75436 0.47648 0.24132 0.0
H228 H 0.97406 0.5052 0.51254 0.0
H229 H 0.91924 0.62325 0.51488 0.0
H230 H 0.80455 0.49264 0.52002 0.0
Co231 Co 0.36814 0.89332 0.35506 0.0
C232 C 0.2761 0.82502 0.3305 0.0
C233 C 0.32035 0.82525 0.2697 0.0
C234 C 0.28045 0.78689 0.26426 0.0
N235 N 0.31828 0.84897 0.31228 0.0
N236 N 0.25313 0.78683 0.30302 0.0
H237 H 0.26303 0.83327 0.36578 0.0
H238 H 0.34961 0.83314 0.24648 0.0
C239 C 0.37978 0.98507 0.33686 0.0
O240 O 0.39278 -0.00153 0.38725 0.0
N241 N 0.41581 0.93399 0.40069 0.0
C242 C 0.41887 0.93347 0.45611 0.0
C243 C 0.45848 0.96768 0.47234 0.0
C244 C 0.45444 0.96719 0.38388 0.0
N245 N 0.48019 0.98846 0.42677 0.0
C246 C 0.32259 0.84241 0.44892 0.0
C247 C 0.30295 0.90178 0.49655 0.0
C248 C 0.30161 0.86853 0.53012 0.0
C249 C 0.30921 0.83714 0.50384 0.0
C250 C 0.31713 0.9062 0.44164 0.0
N251 N 0.32984 0.87848 0.41985 0.0
H252 H 0.33129 0.81959 0.43136 0.0
H253 H 0.32033 0.93346 0.41814 0.0
H254 H 0.39499 0.90976 0.4838 0.0
H255 H 0.46319 0.97533 0.34158 0.0
O256 O 0.39212 0.85322 0.3632 0.0
O257 O 0.40921 0.90078 0.29658 0.0
O258 O 0.35861 0.94329 0.32578 0.0
C259 C 0.41569 0.87143 0.31935 0.0
H260 H 0.27287 0.76038 0.23578 0.0
H261 H 0.47088 0.97588 0.51381 0.0
H262 H 0.29524 0.92572 0.51281 0.0
H263 H 0.30874 0.81041 0.5259 0.0
Co264 Co 0.47334 0.36317 0.34491 0.0
C265 C 0.4836 0.29015 0.30975 0.0
C266 C 0.42033 0.27978 0.28714 0.0
C267 C 0.41846 0.23961 0.28711 0.0
N268 N 0.46109 0.31158 0.3023 0.0
N269 N 0.45803 0.2464 0.30274 0.0
H270 H 0.51639 0.30537 0.32663 0.0
H271 H 0.39208 0.28407 0.2838 0.0
C272 C 0.39621 0.3822 0.3257 0.0
O273 O 0.40106 0.40133 0.37351 0.0
N274 N 0.48684 0.41179 0.3916 0.0
C275 C 0.49932 0.41531 0.44473 0.0
C276 C 0.50983 0.45582 0.46393 0.0
C277 C 0.49254 0.45094 0.37809 0.0
N278 N 0.50531 0.47757 0.42182 0.0
C279 C 0.46822 0.30803 0.43444 0.0
C280 C 0.40283 0.31315 0.49097 0.0
C281 C 0.42998 0.30158 0.5204 0.0
C282 C 0.46005 0.29497 0.48937 0.0
C283 C 0.41038 0.3234 0.43489 0.0
N284 N 0.44548 0.32483 0.40867 0.0
H285 H 0.49634 0.30923 0.41507 0.0
H286 H 0.39061 0.33434 0.41463 0.0
H287 H 0.50196 0.39078 0.46799 0.0
H288 H 0.48673 0.45914 0.3379 0.0
O289 O 0.53637 0.38105 0.35429 0.0
O290 O 0.51062 0.40253 0.28722 0.0
O291 O 0.4165 0.36075 0.31495 0.0
C292 C 0.54501 0.40611 0.31125 0.0
H293 H 0.38921 0.20774 0.28217 0.0
H294 H 0.52057 0.46857 0.50491 0.0
H295 H 0.37817 0.31787 0.5113 0.0
H296 H 0.48016 0.28334 0.50794 0.0
Co297 Co 0.11124 0.47799 0.34902 0.0
C298 C 0.19503 0.48765 0.3142 0.0
C299 C 0.14134 0.4278 0.2829 0.0
C300 C 0.17933 0.42547 0.27866 0.0
N301 N 0.15104 0.46666 0.30591 0.0
N302 N 0.21261 0.46279 0.29954 0.0
H303 H 0.21326 0.5189 0.33491 0.0
H304 H 0.10855 0.40085 0.27508 0.0
C305 C 0.01564 0.39868 0.32979 0.0
O306 O 6e-05 0.40423 0.37622 0.0
N307 N 0.07534 0.49066 0.39576 0.0
C308 C 0.08403 0.50346 0.44892 0.0
C309 C 0.05373 0.51386 0.46753 0.0
C310 C 0.04165 0.49589 0.38178 0.0
N311 N 0.02753 0.50891 0.42506 0.0
C312 C 0.16275 0.47625 0.43966 0.0
C313 C 0.09337 0.40924 0.4957 0.0
C314 C 0.1319 0.43727 0.52554 0.0
C315 C 0.16804 0.46861 0.49472 0.0
C316 C 0.09024 0.41656 0.43964 0.0
N317 N 0.12338 0.45205 0.41341 0.0
H318 H 0.18906 0.50502 0.42059 0.0
H319 H 0.05939 0.39621 0.41942 0.0
H320 H 0.11133 0.5067 0.47258 0.0
H321 H 0.02787 0.48999 0.3414 0.0
O322 O 0.15549 0.54157 0.35652 0.0
O323 O 0.10712 0.51329 0.29053 0.0
O324 O 0.05765 0.4198 0.32032 0.0
C325 C 0.13791 0.54856 0.31334 0.0
H326 H 0.18148 0.39709 0.2662 0.0
H327 H 0.05168 0.52512 0.50819 0.0
H328 H 0.06424 0.38377 0.51563 0.0
H329 H 0.19964 0.48985 0.51337 0.0
Co330 Co 0.63735 0.10697 0.34697 0.0
C331 C 0.71079 0.19048 0.31061 0.0
C332 C 0.71956 0.13712 0.28526 0.0
C333 C 0.75971 0.17555 0.28189 0.0
N334 N 0.68883 0.14634 0.30402 0.0
N335 N 0.75401 0.20866 0.29912 0.0
H336 H 0.69655 0.20843 0.32901 0.0
H337 H 0.71483 0.10451 0.28069 0.0
C338 C 0.61776 0.01101 0.32543 0.0
O339 O 0.59833 0.99576 0.37282 0.0
N340 N 0.58859 0.07177 0.39389 0.0
C341 C 0.58497 0.08161 0.44673 0.0
C342 C 0.54438 0.05171 0.46619 0.0
C343 C 0.54929 0.03791 0.38077 0.0
N344 N 0.5226 0.02456 0.42453 0.0
C345 C 0.69254 0.15833 0.43653 0.0
C346 C 0.68444 0.08792 0.49538 0.0
C347 C 0.69606 0.12714 0.52417 0.0
C348 C 0.70408 0.16365 0.49214 0.0
C349 C 0.67555 0.08469 0.43876 0.0
N350 N 0.67563 0.11841 0.41116 0.0
H351 H 0.6923 0.18527 0.41625 0.0
H352 H 0.66376 0.05341 0.41913 0.0
H353 H 0.60933 0.10957 0.46946 0.0
H354 H 0.54076 0.02379 0.34056 0.0
O355 O 0.61931 0.15177 0.35569 0.0
O356 O 0.59796 0.10364 0.28898 0.0
O357 O 0.64031 0.053 0.31685 0.0
C358 C 0.59435 0.1346 0.31254 0.0
H359 H 0.79116 0.17823 0.27314 0.0
H360 H 0.53142 0.05078 0.50676 0.0
H361 H 0.67848 0.05851 0.51646 0.0
H362 H 0.71567 0.19566 0.51021 0.0
Co363 Co 0.52749 0.632 0.35556 0.0
C364 C 0.54377 0.72203 0.33763 0.0
C365 C 0.5259 0.68585 0.26208 0.0
C366 C 0.52792 0.72573 0.25365 0.0
N367 N 0.53537 0.68326 0.31516 0.0
N368 N 0.53875 0.74778 0.30163 0.0
H369 H 0.5524 0.73181 0.37966 0.0
H370 H 0.51574 0.65977 0.2322 0.0
C371 C 0.60719 0.6204 0.33733 0.0
O372 O 0.60876 0.60747 0.38729 0.0
N373 N 0.51849 0.5829 0.39939 0.0
C374 C 0.51167 0.57795 0.45439 0.0
C375 C 0.50695 0.53875 0.46997 0.0
C376 C 0.51551 0.54549 0.38199 0.0
N377 N 0.50965 0.519 0.4244 0.0
C378 C 0.51711 0.67218 0.45167 0.0
C379 C 0.59591 0.6937 0.50137 0.0
C380 C 0.56237 0.69316 0.53402 0.0
C381 C 0.52347 0.68449 0.50684 0.0
C382 C 0.58802 0.68076 0.44588 0.0
N383 N 0.54793 0.6676 0.42274 0.0
H384 H 0.48566 0.66274 0.43331 0.0
H385 H 0.61323 0.67884 0.42291 0.0
H386 H 0.50927 0.60019 0.48243 0.0
H387 H 0.51799 0.53833 0.33977 0.0
O388 O 0.46313 0.60781 0.3598 0.0
O389 O 0.4966 0.59322 0.29411 0.0
O390 O 0.58826 0.6433 0.32888 0.0
C391 C 0.4597 0.58592 0.31496 0.0
H392 H 0.51933 0.73631 0.21642 0.0
H393 H 0.50078 0.52527 0.51098 0.0
H394 H 0.62742 0.70196 0.51871 0.0
H395 H 0.49593 0.68319 0.52829 0.0
Co396 Co 0.51277 0.88493 0.84455 0.0
C397 C 0.54339 0.82343 0.81621 0.0
C398 C 0.48958 0.81306 0.76498 0.0
C399 C 0.49379 0.77625 0.76223 0.0
N400 N 0.51972 0.84234 0.80039 0.0
N401 N 0.52708 0.78271 0.79531 0.0
H402 H 0.56885 0.83682 0.84708 0.0
H403 H 0.46322 0.81579 0.74641 0.0
C404 C 0.59416 0.97828 0.82495 0.0
O405 O 0.59141 0.9928 0.87359 0.0
N406 N 0.50388 0.92303 0.89186 0.0
C407 C 0.49234 0.91548 0.94549 0.0
C408 C 0.48508 0.94771 0.96467 0.0
C409 C 0.50067 0.95792 0.87816 0.0
N410 N 0.49051 0.9739 0.92212 0.0
C411 C 0.51266 0.83191 0.93337 0.0
C412 C 0.58234 0.89878 0.98957 0.0
C413 C 0.55289 0.86076 1.01916 0.0
C414 C 0.52006 0.82562 0.98819 0.0
C415 C 0.57492 0.9029 0.93395 0.0
N416 N 0.5381 0.87134 0.90809 0.0
H417 H 0.48421 0.80619 0.91246 0.0
H418 H 0.59675 0.93315 0.91365 0.0
H419 H 0.48796 0.88779 0.96915 0.0
H420 H 0.50621 0.97131 0.83755 0.0
O421 O 0.44896 0.84319 0.855 0.0
O422 O 0.47709 0.89101 0.7882 0.0
O423 O 0.57187 0.93645 0.81399 0.0
C424 C 0.44188 0.86154 0.81274 0.0
H425 H 0.47217 0.74612 0.74056 0.0
H426 H 0.47561 0.95114 1.00582 0.0
H427 H 0.60926 0.92692 1.00924 0.0
H428 H 0.49795 0.79414 1.00632 0.0
Co429 Co 0.62594 0.51978 0.85419 0.0
C430 C 0.71718 0.54275 0.82842 0.0
C431 C 0.67195 0.49527 0.7712 0.0
C432 C 0.71187 0.49697 0.76609 0.0
N433 N 0.67471 0.52321 0.81136 0.0
N434 N 0.7398 0.5264 0.80266 0.0
H435 H 0.73062 0.56582 0.86203 0.0
H436 H 0.64232 0.47248 0.74964 0.0
C437 C 0.61926 0.60242 0.83629 0.0
O438 O 0.6074 0.60448 0.88683 0.0
N439 N 0.57922 0.51485 0.90001 0.0
C440 C 0.57534 0.50955 0.95522 0.0
C441 C 0.53691 0.50674 0.97183 0.0
C442 C 0.54207 0.51283 0.88356 0.0
N443 N 0.51667 0.50903 0.9266 0.0
C444 C 0.66993 0.51083 0.94703 0.0
C445 C 0.69136 0.58944 0.99747 0.0
C446 C 0.69088 0.55607 1.02992 0.0
C447 C 0.68253 0.51733 1.00223 0.0
C448 C 0.67786 0.58127 0.94227 0.0
N449 N 0.66413 0.54103 0.91913 0.0
H450 H 0.66047 0.47947 0.92832 0.0
H451 H 0.67597 0.60642 0.91962 0.0
H452 H 0.59783 0.50673 0.98235 0.0
H453 H 0.5342 0.51428 0.84141 0.0
O454 O 0.59877 0.45523 0.86155 0.0
O455 O 0.58448 0.48828 0.79537 0.0
O456 O 0.63926 0.58069 0.82578 0.0
C457 C 0.5758 0.45158 0.81779 0.0
H458 H 0.71904 0.4767 0.73948 0.0
H459 H 0.52416 0.50197 1.01322 0.0
H460 H 0.69989 0.62103 1.01478 0.0
H461 H 0.68174 0.49005 1.0233 0.0
Co462 Co 0.10073 0.63056 0.85187 0.0
C463 C 0.16709 0.72208 0.82569 0.0
C464 C 0.17295 0.67736 0.77125 0.0
C465 C 0.21068 0.71785 0.76712 0.0
N466 N 0.14582 0.67946 0.80914 0.0
N467 N 0.20695 0.74548 0.802 0.0
H468 H 0.15573 0.73504 0.858 0.0
H469 H 0.16785 0.64787 0.75095 0.0
C470 C 0.01082 0.62157 0.83272 0.0
O471 O 0.99611 0.61065 0.88311 0.0
N472 N 0.05925 0.58381 0.89789 0.0
C473 C 0.06221 0.57996 0.95283 0.0
C474 C 0.02741 0.54121 0.97009 0.0
C475 C 0.02398 0.54626 0.88211 0.0
N476 N 0.00381 0.52064 0.92548 0.0
C477 C 0.15506 0.67583 0.9436 0.0
C478 C 0.09641 0.69362 0.99713 0.0
C479 C 0.13043 0.69404 1.0284 0.0
C480 C 0.16158 0.68776 0.99909 0.0
C481 C 0.09071 0.6808 0.9416 0.0
N482 N 0.118 0.66876 0.91692 0.0
H483 H 0.17757 0.66776 0.92363 0.0
H484 H 0.06264 0.67772 0.91999 0.0
H485 H 0.0884 0.60246 0.9792 0.0
H486 H 0.01385 0.53801 0.84019 0.0
O487 O 0.13855 0.60416 0.85904 0.0
O488 O 0.09063 0.5892 0.79291 0.0
O489 O 0.05288 0.64346 0.82391 0.0
C490 C 0.11898 0.58098 0.81537 0.0
H491 H 0.23937 0.72562 0.74257 0.0
H492 H 0.02105 0.52825 1.01137 0.0
H493 H 0.07269 0.70073 1.01552 0.0
H494 H 0.1891 0.68805 1.01893 0.0
Co495 Co 0.47224 0.10811 0.85505 0.0
C496 C 0.45259 0.17951 0.83693 0.0
C497 C 0.47698 0.1661 0.76296 0.0
C498 C 0.47273 0.20269 0.75475 0.0
N499 N 0.46478 0.15176 0.8149 0.0
N500 N 0.45779 0.21086 0.80172 0.0
H501 H 0.44093 0.17819 0.87815 0.0
H502 H 0.49021 0.15255 0.73379 0.0
C503 C 0.38981 0.01749 0.83836 0.0
O504 O 0.38936 0.0026 0.88779 0.0
N505 N 0.48085 0.06787 0.89872 0.0
C506 C 0.49105 0.07179 0.95287 0.0
C507 C 0.49491 0.03689 0.96886 0.0
C508 C 0.48118 0.03193 0.88191 0.0
N509 N 0.48848 0.01227 0.92417 0.0
C510 C 0.48482 0.16069 0.95009 0.0
C511 C 0.40777 0.10317 1.00339 0.0
C512 C 0.4422 0.13646 1.03489 0.0
C513 C 0.48004 0.16703 1.00578 0.0
C514 C 0.41422 0.09759 0.94763 0.0
N515 N 0.45359 0.12448 0.92276 0.0
H516 H 0.51557 0.18282 0.93012 0.0
H517 H 0.38846 0.07009 0.92576 0.0
H518 H 0.4966 0.09832 0.9797 0.0
H519 H 0.47581 0.02055 0.84028 0.0
O520 O 0.53694 0.14711 0.85762 0.0
O521 O 0.5016 0.09874 0.79293 0.0
O522 O 0.41045 0.05945 0.82978 0.0
C523 C 0.53918 0.12767 0.81299 0.0
H524 H 0.48236 0.22308 0.71848 0.0
H525 H 0.50312 0.03073 1.00933 0.0
H526 H 0.37661 0.07993 1.0216 0.0
H527 H 0.50794 0.19393 1.0258 0.0
Co528 Co 0.36225 0.47783 0.84745 0.0
C529 C 0.28805 0.48724 0.8129 0.0
C530 C 0.28195 0.42756 0.7816 0.0
C531 C 0.24139 0.4247 0.77809 0.0
N532 N 0.31123 0.4666 0.80429 0.0
N533 N 0.24535 0.4619 0.79898 0.0
H534 H 0.30111 0.51855 0.83344 0.0
H535 H 0.28782 0.40075 0.77371 0.0
C536 C 0.37797 0.39841 0.82619 0.0
O537 O 0.3978 0.4023 0.87311 0.0
N538 N 0.41056 0.49021 0.89423 0.0
C539 C 0.41475 0.50359 0.94716 0.0
C540 C 0.45475 0.51225 0.96643 0.0
C541 C 0.4489 0.49355 0.88092 0.0
N542 N 0.47554 0.50567 0.92455 0.0
C543 C 0.30827 0.47538 0.93782 0.0
C544 C 0.31217 0.40996 0.99478 0.0
C545 C 0.30171 0.43809 1.02434 0.0
C546 C 0.29592 0.46839 0.99317 0.0
C547 C 0.32187 0.41648 0.93837 0.0
N548 N 0.32366 0.45137 0.91166 0.0
H549 H 0.31038 0.50377 0.91852 0.0
H550 H 0.33252 0.39628 0.91822 0.0
H551 H 0.39111 0.50812 0.97017 0.0
H552 H 0.45658 0.48678 0.84082 0.0
O553 O 0.38166 0.54114 0.85631 0.0
O554 O 0.40237 0.51389 0.78964 0.0
O555 O 0.35777 0.4201 0.81734 0.0
C556 C 0.40688 0.5488 0.81339 0.0
H557 H 0.21074 0.39601 0.76621 0.0
H558 H 0.46792 0.5234 1.00713 0.0
H559 H 0.31649 0.38521 1.01514 0.0
H560 H 0.28545 0.48951 1.01176 0.0
Co561 Co 0.88412 0.36303 0.84877 0.0
C562 C 0.80054 0.28753 0.81492 0.0
C563 C 0.85459 0.28294 0.78186 0.0
C564 C 0.8169 0.24224 0.77732 0.0
N565 N 0.84447 0.31137 0.80607 0.0
N566 N 0.78338 0.24529 0.79922 0.0
H567 H 0.782 0.29983 0.83634 0.0
H568 H 0.88752 0.28958 0.77314 0.0
C569 C 0.98017 0.38084 0.82965 0.0
O570 O 0.99524 0.40171 0.87632 0.0
N571 N 0.9198 0.41206 0.89516 0.0
C572 C 0.91122 0.41609 0.94842 0.0
C573 C 0.94132 0.457 0.96682 0.0
C574 C 0.95324 0.45128 0.88095 0.0
N575 N 0.96729 0.4785 0.92417 0.0
C576 C 0.83313 0.30993 0.94006 0.0
C577 C 0.90271 0.31252 0.99534 0.0
C578 C 0.8643 0.30191 1.0256 0.0
C579 C 0.82806 0.29701 0.99514 0.0
C580 C 0.90562 0.32296 0.93927 0.0
N581 N 0.87239 0.32519 0.91341 0.0
H582 H 0.80678 0.31234 0.92131 0.0
H583 H 0.93634 0.33342 0.9187 0.0
H584 H 0.88416 0.3918 0.97234 0.0
H585 H 0.96693 0.45926 0.84049 0.0
O586 O 0.83943 0.38163 0.85626 0.0
O587 O 0.88776 0.40209 0.79008 0.0
O588 O 0.93818 0.35929 0.82 0.0
C589 C 0.8568 0.40621 0.81292 0.0
H590 H 0.81511 0.21209 0.76379 0.0
H591 H 0.94341 0.47026 1.00753 0.0
H592 H 0.9319 0.31621 1.01487 0.0
H593 H 0.79651 0.28656 1.01402 0.0
Co594 Co 0.10187 0.4725 0.76395 0.0
C595 C 0.17066 0.45094 0.79005 0.0
C596 C 0.17338 0.49941 0.84579 0.0
C597 C 0.21218 0.49876 0.84996 0.0
N598 N 0.14754 0.47022 0.80702 0.0
N599 N 0.21041 0.46876 0.81419 0.0
H600 H 0.16059 0.4271 0.75728 0.0
H601 H 0.16662 0.52244 0.86675 0.0
C602 C 0.01251 0.39025 0.78365 0.0
O603 O -0.00207 0.38624 0.73322 0.0
N604 N 0.0599 0.4764 0.71766 0.0
C605 C 0.06248 0.48252 0.66256 0.0
C606 C 0.02723 0.48551 0.64527 0.0
C607 C 0.02439 0.47812 0.73341 0.0
N608 N 0.00373 0.48257 0.68998 0.0
C609 C 0.15635 0.48213 0.67211 0.0
C610 C 0.09868 0.40463 0.61963 0.0
C611 C 0.13222 0.4385 0.58792 0.0
C612 C 0.16293 0.47654 0.61669 0.0
C613 C 0.09291 0.4119 0.67511 0.0
N614 N 0.11966 0.45169 0.69924 0.0
H615 H 0.17845 0.51311 0.69163 0.0
H616 H 0.06516 0.38663 0.69707 0.0
H617 H 0.08868 0.48639 0.63607 0.0
H618 H 0.01447 0.47663 0.7754 0.0
O619 O 0.13888 0.53691 0.756 0.0
O620 O 0.09108 0.50366 0.82237 0.0
O621 O 0.05456 0.41145 0.79268 0.0
C622 C 0.11911 0.54035 0.79958 0.0
H623 H 0.24019 0.5202 0.87519 0.0
H624 H 0.02051 0.49147 0.60389 0.0
H625 H 0.07534 0.37343 0.60156 0.0
H626 H 0.19002 0.50404 0.59641 0.0
Co627 Co 0.62642 0.10339 0.76134 0.0
C628 C 0.71845 0.17168 0.7859 0.0
C629 C 0.67421 0.17145 0.84669 0.0
C630 C 0.71411 0.20981 0.85214 0.0
N631 N 0.67628 0.14773 0.80412 0.0
N632 N 0.74143 0.20987 0.81339 0.0
H633 H 0.73153 0.16343 0.75063 0.0
H634 H 0.64495 0.16357 0.86991 0.0
C635 C 0.61478 0.01163 0.77954 0.0
O636 O 0.60177 0.99824 0.72915 0.0
N637 N 0.57875 0.06272 0.71571 0.0
C638 C 0.57568 0.06323 0.66029 0.0
C639 C 0.53607 0.02902 0.64406 0.0
C640 C 0.54011 0.02952 0.73252 0.0
N641 N 0.51437 0.00824 0.68962 0.0
C642 C 0.67196 0.15429 0.66748 0.0
C643 C 0.69161 0.09492 0.61985 0.0
C644 C 0.69294 0.12817 0.58628 0.0
C645 C 0.68535 0.15956 0.61256 0.0
C646 C 0.67742 0.0905 0.67476 0.0
N647 N 0.66472 0.11822 0.69655 0.0
H648 H 0.66327 0.17711 0.68504 0.0
H649 H 0.67423 0.06324 0.69826 0.0
H650 H 0.59957 0.08694 0.63259 0.0
H651 H 0.53137 0.02137 0.77481 0.0
O652 O 0.60244 0.14349 0.7532 0.0
O653 O 0.58535 0.09593 0.81982 0.0
O654 O 0.63595 0.05341 0.79062 0.0
C655 C 0.57887 0.12528 0.79704 0.0
H656 H 0.7217 0.23632 0.88063 0.0
H657 H 0.52368 0.02082 0.60259 0.0
H658 H 0.69931 0.07098 0.60359 0.0
H659 H 0.68582 0.18629 0.59049 0.0
Co660 Co 0.52127 0.63356 0.77159 0.0
C661 C 0.511 0.70658 0.80676 0.0
C662 C 0.57428 0.71697 0.82933 0.0
C663 C 0.57615 0.75713 0.82933 0.0
N664 N 0.53352 0.68515 0.8142 0.0
N665 N 0.53657 0.75033 0.81372 0.0
H666 H 0.4782 0.69134 0.78989 0.0
H667 H 0.60253 0.71268 0.83265 0.0
C668 C 0.5984 0.61453 0.79081 0.0
O669 O 0.59354 0.5954 0.74299 0.0
N670 N 0.50776 0.58493 0.72491 0.0
C671 C 0.49529 0.58142 0.67178 0.0
C672 C 0.48478 0.54091 0.65258 0.0
C673 C 0.50206 0.54579 0.73842 0.0
N674 N 0.4893 0.51916 0.69469 0.0
C675 C 0.52639 0.6887 0.68207 0.0
C676 C 0.59177 0.68358 0.62553 0.0
C677 C 0.56462 0.69514 0.59611 0.0
C678 C 0.53456 0.70176 0.62714 0.0
C679 C 0.58423 0.67333 0.68162 0.0
N680 N 0.54913 0.6719 0.70784 0.0
H681 H 0.49827 0.68751 0.70144 0.0
H682 H 0.604 0.66239 0.70187 0.0
H683 H 0.49265 0.60595 0.64852 0.0
H684 H 0.50788 0.53759 0.77861 0.0
O685 O 0.45824 0.61568 0.76221 0.0
O686 O 0.48398 0.5942 0.82929 0.0
O687 O 0.57811 0.63598 0.80156 0.0
C688 C 0.44959 0.59063 0.80525 0.0
H689 H 0.6054 0.789 0.83424 0.0
H690 H 0.47405 0.52816 0.6116 0.0
H691 H 0.61644 0.67886 0.6052 0.0
H692 H 0.51446 0.7134 0.60858 0.0
Co693 Co 0.88334 0.51869 0.76742 0.0
C694 C 0.79955 0.50904 0.80224 0.0
C695 C 0.85324 0.56887 0.83357 0.0
C696 C 0.81526 0.57121 0.83783 0.0
N697 N 0.84353 0.53002 0.81053 0.0
N698 N 0.78198 0.5339 0.81693 0.0
H699 H 0.78132 0.4778 0.78152 0.0
H700 H 0.88604 0.59581 0.8414 0.0
C701 C 0.97894 0.59801 0.78664 0.0
O702 O 0.99451 0.59246 0.74021 0.0
N703 N 0.91923 0.50602 0.72068 0.0
C704 C 0.91054 0.49322 0.66751 0.0
C705 C 0.94084 0.48282 0.64891 0.0
C706 C 0.95293 0.50079 0.73465 0.0
N707 N 0.96704 0.48777 0.69138 0.0
C708 C 0.83182 0.52042 0.67678 0.0
C709 C 0.90121 0.58744 0.62073 0.0
C710 C 0.86268 0.5594 0.5909 0.0
C711 C 0.82654 0.52807 0.62171 0.0
C712 C 0.90433 0.58013 0.6768 0.0
N713 N 0.8712 0.54463 0.70303 0.0
H714 H 0.80552 0.49165 0.69584 0.0
H715 H 0.93518 0.60047 0.69702 0.0
H716 H 0.88324 0.48998 0.64385 0.0
H717 H 0.96671 0.5067 0.77503 0.0
O718 O 0.83908 0.45511 0.75992 0.0
O719 O 0.88746 0.4834 0.8259 0.0
O720 O 0.93692 0.57689 0.79611 0.0
C721 C 0.85667 0.44812 0.8031 0.0
H722 H 0.81311 0.59959 0.85032 0.0
H723 H 0.9429 0.47156 0.60824 0.0
H724 H 0.93034 0.61291 0.60081 0.0
H725 H 0.79493 0.50682 0.60307 0.0
Co726 Co 0.35721 0.88972 0.76943 0.0
C727 C 0.28378 0.80622 0.80579 0.0
C728 C 0.27501 0.85957 0.83114 0.0
C729 C 0.23486 0.82114 0.83451 0.0
N730 N 0.30573 0.85036 0.81238 0.0
N731 N 0.24056 0.78803 0.81729 0.0
H732 H 0.29802 0.78826 0.7874 0.0
H733 H 0.27973 0.89218 0.83571 0.0
C734 C 0.3768 0.98569 0.79097 0.0
O735 O 0.39623 0.00094 0.74358 0.0
N736 N 0.40597 0.92493 0.72251 0.0
C737 C 0.40959 0.91509 0.66966 0.0
C738 C 0.45017 0.94499 0.65021 0.0
C739 C 0.44527 0.95879 0.73562 0.0
N740 N 0.47196 0.97215 0.69187 0.0
C741 C 0.30202 0.83837 0.67987 0.0
C742 C 0.31012 0.90878 0.62103 0.0
C743 C 0.2985 0.86956 0.59224 0.0
C744 C 0.29048 0.83305 0.62426 0.0
C745 C 0.319 0.91201 0.67764 0.0
N746 N 0.31893 0.87829 0.70524 0.0
H747 H 0.30226 0.81142 0.70015 0.0
H748 H 0.33079 0.94329 0.69728 0.0
H749 H 0.38523 0.88714 0.64694 0.0
H750 H 0.4538 0.97291 0.77583 0.0
O751 O 0.37525 0.84493 0.7607 0.0
O752 O 0.3966 0.89306 0.82742 0.0
O753 O 0.35425 0.9437 0.79955 0.0
C754 C 0.40021 0.8621 0.80385 0.0
H755 H 0.2034 0.81845 0.84327 0.0
H756 H 0.46314 0.94593 0.60963 0.0
H757 H 0.31608 0.93819 0.59994 0.0
H758 H 0.27889 0.80104 0.60619 0.0
Co759 Co 0.4671 0.36473 0.76095 0.0
C760 C 0.45076 0.27467 0.77887 0.0
C761 C 0.46876 0.31088 0.8544 0.0
C762 C 0.46672 0.27099 0.86281 0.0
N763 N 0.45922 0.31346 0.80135 0.0
N764 N 0.45581 0.24893 0.81485 0.0
H765 H 0.44207 0.26488 0.73686 0.0
H766 H 0.47898 0.33698 0.88427 0.0
C767 C 0.38741 0.37633 0.77918 0.0
O768 O 0.38585 0.38927 0.72923 0.0
N769 N 0.47612 0.41383 0.71713 0.0
C770 C 0.48297 0.41879 0.66213 0.0
C771 C 0.48769 0.45799 0.64655 0.0
C772 C 0.47909 0.45123 0.73452 0.0
N773 N 0.48496 0.47773 0.69212 0.0
C774 C 0.47748 0.32453 0.66485 0.0
C775 C 0.39869 0.30305 0.61514 0.0
C776 C 0.43224 0.30358 0.58248 0.0
C777 C 0.47113 0.31223 0.60968 0.0
C778 C 0.40658 0.31599 0.67062 0.0
N779 N 0.44667 0.32913 0.69377 0.0
H780 H 0.50892 0.33395 0.68322 0.0
H781 H 0.38138 0.31791 0.69359 0.0
H782 H 0.48539 0.39656 0.63411 0.0
H783 H 0.47658 0.45839 0.77674 0.0
O784 O 0.53146 0.38891 0.75672 0.0
O785 O 0.498 0.4035 0.82241 0.0
O786 O 0.40634 0.35344 0.78763 0.0
C787 C 0.5349 0.4108 0.80156 0.0
H788 H 0.47536 0.26042 0.90001 0.0
H789 H 0.49388 0.47147 0.60554 0.0
H790 H 0.36719 0.29479 0.59779 0.0
H791 H 0.49866 0.31351 0.58823 0.0
loop_
_geom_bond_atom_site_label_1
_geom_bond_atom_site_label_2
_geom_bond_distance
_geom_bond_site_symmetry_2
_ccdc_geom_bond_type
Co0 N4 2.148 . S
Co0 N10 2.128 . S
Co0 N20 2.194 . S
Co0 O25 2.351 . S
Co0 O26 2.155 . S
Co0 O27 2.096 . S
C1 N4 1.301 . S
C1 N5 1.328 . S
C1 H6 0.930 . S
C2 C3 1.333 . S
C2 N4 1.317 . S
C2 H7 0.930 . S
C3 C2 1.333 . S
C3 N5 1.350 . S
C3 H29 0.931 . S
N4 Co0 2.148 . S
N4 C1 1.301 . S
N4 C2 1.317 . S
N5 C1 1.328 . S
N5 C3 1.350 . S
H6 C1 0.930 . S
H7 C2 0.930 . S
C8 O9 1.224 . S
C8 O27 1.247 . S
O9 C8 1.224 . S
N10 Co0 2.128 . S
N10 C11 1.355 . S
N10 C13 1.311 . S
C11 N10 1.355 . S
C11 C12 1.363 . S
C11 H23 0.929 . S
C12 C11 1.363 . S
C12 N14 1.375 1_545 S
C12 H30 0.931 . S
C13 N10 1.311 . S
C13 N14 1.347 1_545 S
C13 H24 0.929 . S
N14 C12 1.375 1_565 S
N14 C13 1.347 1_565 S
C15 C18 1.365 . S
C15 N20 1.328 . S
C15 H21 0.929 . S
C16 C17 1.362 . S
C16 C19 1.378 . S
C16 H31 0.929 . S
C17 C16 1.362 . S
C17 C18 1.366 . S
C18 C15 1.365 . S
C18 C17 1.366 . S
C18 H32 0.930 . S
C19 C16 1.378 . S
C19 N20 1.315 . S
C19 H22 0.930 . S
N20 Co0 2.194 . S
N20 C15 1.328 . S
N20 C19 1.315 . S
H21 C15 0.929 . S
H22 C19 0.930 . S
H23 C11 0.929 . S
H24 C13 0.929 . S
O25 Co0 2.351 . S
O25 C28 1.244 . S
O26 Co0 2.155 . S
O26 C28 1.240 . S
O27 Co0 2.096 . S
O27 C8 1.247 . S
C28 O25 1.244 . S
C28 O26 1.240 . S
H29 C3 0.931 . S
H30 C12 0.931 . S
H31 C16 0.929 . S
H32 C18 0.930 . S
Co33 N37 2.148 . S
Co33 N43 2.128 . S
Co33 N53 2.194 . S
Co33 O58 2.351 . S
Co33 O59 2.155 . S
Co33 O60 2.096 . S
C34 N37 1.301 . S
C34 N38 1.328 . S
C34 H39 0.930 . S
C35 C36 1.333 . S
C35 N37 1.317 . S
C35 H40 0.930 . S
C36 C35 1.333 . S
C36 N38 1.350 . S
C36 H62 0.931 . S
N37 Co33 2.148 . S
N37 C34 1.301 . S
N37 C35 1.317 . S
N38 C34 1.328 . S
N38 C36 1.350 . S
H39 C34 0.930 . S
H40 C35 0.930 . S
C41 O42 1.224 . S
C41 O60 1.247 . S
O42 C41 1.224 . S
N43 Co33 2.128 . S
N43 C44 1.355 . S
N43 C46 1.311 . S
C44 N43 1.355 . S
C44 C45 1.363 . S
C44 H56 0.929 . S
C45 C44 1.363 . S
C45 N47 1.375 . S
C45 H63 0.931 . S
C46 N43 1.311 . S
C46 N47 1.347 . S
C46 H57 0.929 . S
N47 C45 1.375 . S
N47 C46 1.347 . S
C48 C51 1.365 . S
C48 N53 1.328 . S
C48 H54 0.929 . S
C49 C50 1.362 . S
C49 C52 1.378 . S
C49 H64 0.929 . S
C50 C49 1.362 . S
C50 C51 1.366 . S
C51 C48 1.365 . S
C51 C50 1.366 . S
C51 H65 0.930 . S
C52 C49 1.378 . S
C52 N53 1.315 . S
C52 H55 0.930 . S
N53 Co33 2.194 . S
N53 C48 1.328 . S
N53 C52 1.315 . S
H54 C48 0.929 . S
H55 C52 0.930 . S
H56 C44 0.929 . S
H57 C46 0.929 . S
O58 Co33 2.351 . S
O58 C61 1.244 . S
O59 Co33 2.155 . S
O59 C61 1.240 . S
O60 Co33 2.096 . S
O60 C41 1.247 . S
C61 O58 1.244 . S
C61 O59 1.240 . S
H62 C36 0.931 . S
H63 C45 0.931 . S
H64 C49 0.929 . S
H65 C51 0.930 . S
Co66 N70 2.148 . S
Co66 N76 2.128 . S
Co66 N86 2.194 . S
Co66 O91 2.351 . S
Co66 O92 2.155 . S
Co66 O93 2.096 . S
C67 N70 1.301 . S
C67 N71 1.328 . S
C67 H72 0.930 . S
C68 C69 1.333 . S
C68 N70 1.317 . S
C68 H73 0.930 . S
C69 C68 1.333 . S
C69 N71 1.350 . S
C69 H95 0.931 . S
N70 Co66 2.148 . S
N70 C67 1.301 . S
N70 C68 1.317 . S
N71 C67 1.328 . S
N71 C69 1.350 . S
H72 C67 0.930 . S
H73 C68 0.930 . S
C74 O75 1.224 . S
C74 O93 1.247 . S
O75 C74 1.224 . S
N76 Co66 2.128 . S
N76 C77 1.355 . S
N76 C79 1.311 . S
C77 N76 1.355 . S
C77 C78 1.363 . S
C77 H89 0.929 . S
C78 C77 1.363 . S
C78 N80 1.375 1_655 S
C78 H96 0.931 . S
C79 N76 1.311 . S
C79 N80 1.347 1_655 S
C79 H90 0.929 . S
N80 C78 1.375 1_455 S
N80 C79 1.347 1_455 S
C81 C84 1.365 . S
C81 N86 1.328 . S
C81 H87 0.929 . S
C82 C83 1.362 . S
C82 C85 1.378 . S
C82 H97 0.929 . S
C83 C82 1.362 . S
C83 C84 1.366 . S
C84 C81 1.365 . S
C84 C83 1.366 . S
C84 H98 0.930 . S
C85 C82 1.378 . S
C85 N86 1.315 . S
C85 H88 0.930 . S
N86 Co66 2.194 . S
N86 C81 1.328 . S
N86 C85 1.315 . S
H87 C81 0.929 . S
H88 C85 0.930 . S
H89 C77 0.929 . S
H90 C79 0.929 . S
O91 Co66 2.351 . S
O91 C94 1.244 . S
O92 Co66 2.155 . S
O92 C94 1.240 . S
O93 Co66 2.096 . S
O93 C74 1.247 . S
C94 O91 1.244 . S
C94 O92 1.240 . S
H95 C69 0.931 . S
H96 C78 0.931 . S
H97 C82 0.929 . S
H98 C84 0.930 . S
Co99 N103 2.148 . S
Co99 N109 2.128 . S
Co99 N119 2.194 . S
Co99 O124 2.351 . S
Co99 O125 2.155 . S
Co99 O126 2.096 . S
C100 N103 1.301 . S
C100 N104 1.328 . S
C100 H105 0.930 . S
C101 C102 1.333 . S
C101 N103 1.317 . S
C101 H106 0.930 . S
C102 C101 1.333 . S
C102 N104 1.350 . S
C102 H128 0.931 . S
N103 Co99 2.148 . S
N103 C100 1.301 . S
N103 C101 1.317 . S
N104 C100 1.328 . S
N104 C102 1.350 . S
H105 C100 0.930 . S
H106 C101 0.930 . S
C107 O108 1.224 . S
C107 O126 1.247 . S
O108 C107 1.224 . S
N109 Co99 2.128 . S
N109 C110 1.355 . S
N109 C112 1.311 . S
C110 N109 1.355 . S
C110 C111 1.363 . S
C110 H122 0.929 . S
C111 C110 1.363 . S
C111 N113 1.375 1_565 S
C111 H129 0.931 . S
C112 N109 1.311 . S
C112 N113 1.347 1_565 S
C112 H123 0.929 . S
N113 C111 1.375 1_545 S
N113 C112 1.347 1_545 S
C114 C117 1.365 . S
C114 N119 1.328 . S
C114 H120 0.929 . S
C115 C116 1.362 . S
C115 C118 1.378 . S
C115 H130 0.929 . S
C116 C115 1.362 . S
C116 C117 1.366 . S
C117 C114 1.365 . S
C117 C116 1.366 . S
C117 H131 0.930 . S
C118 C115 1.378 . S
C118 N119 1.315 . S
C118 H121 0.930 . S
N119 Co99 2.194 . S
N119 C114 1.328 . S
N119 C118 1.315 . S
H120 C114 0.929 . S
H121 C118 0.930 . S
H122 C110 0.929 . S
H123 C112 0.929 . S
O124 Co99 2.351 . S
O124 C127 1.244 . S
O125 Co99 2.155 . S
O125 C127 1.240 . S
O126 Co99 2.096 . S
O126 C107 1.247 . S
C127 O124 1.244 . S
C127 O125 1.240 . S
H128 C102 0.931 . S
H129 C111 0.931 . S
H130 C115 0.929 . S
H131 C117 0.930 . S
Co132 N136 2.148 . S
Co132 N142 2.128 . S
Co132 N152 2.194 . S
Co132 O157 2.351 . S
Co132 O158 2.155 . S
Co132 O159 2.096 . S
C133 N136 1.301 . S
C133 N137 1.328 . S
C133 H138 0.930 . S
C134 C135 1.333 . S
C134 N136 1.317 . S
C134 H139 0.930 . S
C135 C134 1.333 . S
C135 N137 1.350 . S
C135 H161 0.931 . S
N136 Co132 2.148 . S
N136 C133 1.301 . S
N136 C134 1.317 . S
N137 C133 1.328 . S
N137 C135 1.350 . S
H138 C133 0.930 . S
H139 C134 0.930 . S
C140 O141 1.224 . S
C140 O159 1.247 . S
O141 C140 1.224 . S
N142 Co132 2.128 . S
N142 C143 1.355 . S
N142 C145 1.311 . S
C143 N142 1.355 . S
C143 C144 1.363 . S
C143 H155 0.929 . S
C144 C143 1.363 . S
C144 N146 1.375 . S
C144 H162 0.931 . S
C145 N142 1.311 . S
C145 N146 1.347 . S
C145 H156 0.929 . S
N146 C144 1.375 . S
N146 C145 1.347 . S
C147 C150 1.365 . S
C147 N152 1.328 . S
C147 H153 0.929 . S
C148 C149 1.362 . S
C148 C151 1.378 . S
C148 H163 0.929 . S
C149 C148 1.362 . S
C149 C150 1.366 . S
C150 C147 1.365 . S
C150 C149 1.366 . S
C150 H164 0.930 . S
C151 C148 1.378 . S
C151 N152 1.315 . S
C151 H154 0.930 . S
N152 Co132 2.194 . S
N152 C147 1.328 . S
N152 C151 1.315 . S
H153 C147 0.929 . S
H154 C151 0.930 . S
H155 C143 0.929 . S
H156 C145 0.929 . S
O157 Co132 2.351 . S
O157 C160 1.244 . S
O158 Co132 2.155 . S
O158 C160 1.240 . S
O159 Co132 2.096 . S
O159 C140 1.247 . S
C160 O157 1.244 . S
C160 O158 1.240 . S
H161 C135 0.931 . S
H162 C144 0.931 . S
H163 C148 0.929 . S
H164 C150 0.930 . S
Co165 N169 2.148 . S
Co165 N175 2.128 . S
Co165 N185 2.194 . S
Co165 O190 2.351 . S
Co165 O191 2.155 . S
Co165 O192 2.096 . S
C166 N169 1.301 . S
C166 N170 1.328 . S
C166 H171 0.930 . S
C167 C168 1.333 . S
C167 N169 1.317 . S
C167 H172 0.930 . S
C168 C167 1.333 . S
C168 N170 1.350 . S
C168 H194 0.931 . S
N169 Co165 2.148 . S
N169 C166 1.301 . S
N169 C167 1.317 . S
N170 C166 1.328 . S
N170 C168 1.350 . S
H171 C166 0.930 . S
H172 C167 0.930 . S
C173 O174 1.224 . S
C173 O192 1.247 . S
O174 C173 1.224 . S
N175 Co165 2.128 . S
N175 C176 1.355 . S
N175 C178 1.311 . S
C176 N175 1.355 . S
C176 C177 1.363 . S
C176 H188 0.929 . S
C177 C176 1.363 . S
C177 N179 1.375 1_455 S
C177 H195 0.931 . S
C178 N175 1.311 . S
C178 N179 1.347 1_455 S
C178 H189 0.929 . S
N179 C177 1.375 1_655 S
N179 C178 1.347 1_655 S
C180 C183 1.365 . S
C180 N185 1.328 . S
C180 H186 0.929 . S
C181 C182 1.362 . S
C181 C184 1.378 . S
C181 H196 0.929 . S
C182 C181 1.362 . S
C182 C183 1.366 . S
C183 C180 1.365 . S
C183 C182 1.366 . S
C183 H197 0.930 . S
C184 C181 1.378 . S
C184 N185 1.315 . S
C184 H187 0.930 . S
N185 Co165 2.194 . S
N185 C180 1.328 . S
N185 C184 1.315 . S
H186 C180 0.929 . S
H187 C184 0.930 . S
H188 C176 0.929 . S
H189 C178 0.929 . S
O190 Co165 2.351 . S
O190 C193 1.244 . S
O191 Co165 2.155 . S
O191 C193 1.240 . S
O192 Co165 2.096 . S
O192 C173 1.247 . S
C193 O190 1.244 . S
C193 O191 1.240 . S
H194 C168 0.931 . S
H195 C177 0.931 . S
H196 C181 0.929 . S
H197 C183 0.930 . S
Co198 N202 2.148 . S
Co198 N208 2.128 . S
Co198 N218 2.194 . S
Co198 O223 2.351 . S
Co198 O224 2.155 . S
Co198 O225 2.096 . S
C199 N202 1.301 . S
C199 N203 1.328 . S
C199 H204 0.930 . S
C200 C201 1.333 . S
C200 N202 1.317 . S
C200 H205 0.930 . S
C201 C200 1.333 . S
C201 N203 1.350 . S
C201 H227 0.931 . S
N202 Co198 2.148 . S
N202 C199 1.301 . S
N202 C200 1.317 . S
N203 C199 1.328 . S
N203 C201 1.350 . S
H204 C199 0.930 . S
H205 C200 0.930 . S
C206 O207 1.224 . S
C206 O225 1.247 . S
O207 C206 1.224 . S
N208 Co198 2.128 . S
N208 C209 1.355 . S
N208 C211 1.311 . S
C209 N208 1.355 . S
C209 C210 1.363 . S
C209 H221 0.929 . S
C210 C209 1.363 . S
C210 N212 1.375 1_655 S
C210 H228 0.931 . S
C211 N208 1.311 . S
C211 N212 1.347 1_655 S
C211 H222 0.929 . S
N212 C210 1.375 1_455 S
N212 C211 1.347 1_455 S
C213 C216 1.365 . S
C213 N218 1.328 . S
C213 H219 0.929 . S
C214 C215 1.362 . S
C214 C217 1.378 . S
C214 H229 0.929 . S
C215 C214 1.362 . S
C215 C216 1.366 . S
C216 C213 1.365 . S
C216 C215 1.366 . S
C216 H230 0.930 . S
C217 C214 1.378 . S
C217 N218 1.315 . S
C217 H220 0.930 . S
N218 Co198 2.194 . S
N218 C213 1.328 . S
N218 C217 1.315 . S
H219 C213 0.929 . S
H220 C217 0.930 . S
H221 C209 0.929 . S
H222 C211 0.929 . S
O223 Co198 2.351 . S
O223 C226 1.244 . S
O224 Co198 2.155 . S
O224 C226 1.240 . S
O225 Co198 2.096 . S
O225 C206 1.247 . S
C226 O223 1.244 . S
C226 O224 1.240 . S
H227 C201 0.931 . S
H228 C210 0.931 . S
H229 C214 0.929 . S
H230 C216 0.930 . S
Co231 N235 2.148 . S
Co231 N241 2.128 . S
Co231 N251 2.194 . S
Co231 O256 2.351 . S
Co231 O257 2.155 . S
Co231 O258 2.096 . S
C232 N235 1.301 . S
C232 N236 1.328 . S
C232 H237 0.930 . S
C233 C234 1.333 . S
C233 N235 1.317 . S
C233 H238 0.930 . S
C234 C233 1.333 . S
C234 N236 1.350 . S
C234 H260 0.931 . S
N235 Co231 2.148 . S
N235 C232 1.301 . S
N235 C233 1.317 . S
N236 C232 1.328 . S
N236 C234 1.350 . S
H237 C232 0.930 . S
H238 C233 0.930 . S
C239 O240 1.224 . S
C239 O258 1.247 . S
O240 C239 1.224 . S
N241 Co231 2.128 . S
N241 C242 1.355 . S
N241 C244 1.311 . S
C242 N241 1.355 . S
C242 C243 1.363 . S
C242 H254 0.929 . S
C243 C242 1.363 . S
C243 N245 1.375 1_565 S
C243 H261 0.931 . S
C244 N241 1.311 . S
C244 N245 1.347 1_565 S
C244 H255 0.929 . S
N245 C243 1.375 1_545 S
N245 C244 1.347 1_545 S
C246 C249 1.365 . S
C246 N251 1.328 . S
C246 H252 0.929 . S
C247 C248 1.362 . S
C247 C250 1.378 . S
C247 H262 0.929 . S
C248 C247 1.362 . S
C248 C249 1.366 . S
C249 C246 1.365 . S
C249 C248 1.366 . S
C249 H263 0.930 . S
C250 C247 1.378 . S
C250 N251 1.315 . S
C250 H253 0.930 . S
N251 Co231 2.194 . S
N251 C246 1.328 . S
N251 C250 1.315 . S
H252 C246 0.929 . S
H253 C250 0.930 . S
H254 C242 0.929 . S
H255 C244 0.929 . S
O256 Co231 2.351 . S
O256 C259 1.244 . S
O257 Co231 2.155 . S
O257 C259 1.240 . S
O258 Co231 2.096 . S
O258 C239 1.247 . S
C259 O256 1.244 . S
C259 O257 1.240 . S
H260 C234 0.931 . S
H261 C243 0.931 . S
H262 C247 0.929 . S
H263 C249 0.930 . S
Co264 N268 2.148 . S
Co264 N274 2.128 . S
Co264 N284 2.194 . S
Co264 O289 2.351 . S
Co264 O290 2.155 . S
Co264 O291 2.096 . S
C265 N268 1.301 . S
C265 N269 1.328 . S
C265 H270 0.930 . S
C266 C267 1.333 . S
C266 N268 1.317 . S
C266 H271 0.930 . S
C267 C266 1.333 . S
C267 N269 1.350 . S
C267 H293 0.931 . S
N268 Co264 2.148 . S
N268 C265 1.301 . S
N268 C266 1.317 . S
N269 C265 1.328 . S
N269 C267 1.350 . S
H270 C265 0.930 . S
H271 C266 0.930 . S
C272 O273 1.224 . S
C272 O291 1.247 . S
O273 C272 1.224 . S
N274 Co264 2.128 . S
N274 C275 1.355 . S
N274 C277 1.311 . S
C275 N274 1.355 . S
C275 C276 1.363 . S
C275 H287 0.929 . S
C276 C275 1.363 . S
C276 N278 1.375 . S
C276 H294 0.931 . S
C277 N274 1.311 . S
C277 N278 1.347 . S
C277 H288 0.929 . S
N278 C276 1.375 . S
N278 C277 1.347 . S
C279 C282 1.365 . S
C279 N284 1.328 . S
C279 H285 0.929 . S
C280 C281 1.362 . S
C280 C283 1.378 . S
C280 H295 0.929 . S
C281 C280 1.362 . S
C281 C282 1.366 . S
C282 C279 1.365 . S
C282 C281 1.366 . S
C282 H296 0.930 . S
C283 C280 1.378 . S
C283 N284 1.315 . S
C283 H286 0.930 . S
N284 Co264 2.194 . S
N284 C279 1.328 . S
N284 C283 1.315 . S
H285 C279 0.929 . S
H286 C283 0.930 . S
H287 C275 0.929 . S
H288 C277 0.929 . S
O289 Co264 2.351 . S
O289 C292 1.244 . S
O290 Co264 2.155 . S
O290 C292 1.240 . S
O291 Co264 2.096 . S
O291 C272 1.247 . S
C292 O289 1.244 . S
C292 O290 1.240 . S
H293 C267 0.931 . S
H294 C276 0.931 . S
H295 C280 0.929 . S
H296 C282 0.930 . S
Co297 N301 2.148 . S
Co297 N307 2.128 . S
Co297 N317 2.194 . S
Co297 O322 2.351 . S
Co297 O323 2.155 . S
Co297 O324 2.096 . S
C298 N301 1.301 . S
C298 N302 1.328 . S
C298 H303 0.930 . S
C299 C300 1.333 . S
C299 N301 1.317 . S
C299 H304 0.930 . S
C300 C299 1.333 . S
C300 N302 1.350 . S
C300 H326 0.931 . S
N301 Co297 2.148 . S
N301 C298 1.301 . S
N301 C299 1.317 . S
N302 C298 1.328 . S
N302 C300 1.350 . S
H303 C298 0.930 . S
H304 C299 0.930 . S
C305 O306 1.224 . S
C305 O324 1.247 . S
O306 C305 1.224 . S
N307 Co297 2.128 . S
N307 C308 1.355 . S
N307 C310 1.311 . S
C308 N307 1.355 . S
C308 C309 1.363 . S
C308 H320 0.929 . S
C309 C308 1.363 . S
C309 N311 1.375 1_455 S
C309 H327 0.931 . S
C310 N307 1.311 . S
C310 N311 1.347 1_455 S
C310 H321 0.929 . S
N311 C309 1.375 1_655 S
N311 C310 1.347 1_655 S
C312 C315 1.365 . S
C312 N317 1.328 . S
C312 H318 0.929 . S
C313 C314 1.362 . S
C313 C316 1.378 . S
C313 H328 0.929 . S
C314 C313 1.362 . S
C314 C315 1.366 . S
C315 C312 1.365 . S
C315 C314 1.366 . S
C315 H329 0.930 . S
C316 C313 1.378 . S
C316 N317 1.315 . S
C316 H319 0.930 . S
N317 Co297 2.194 . S
N317 C312 1.328 . S
N317 C316 1.315 . S
H318 C312 0.929 . S
H319 C316 0.930 . S
H320 C308 0.929 . S
H321 C310 0.929 . S
O322 Co297 2.351 . S
O322 C325 1.244 . S
O323 Co297 2.155 . S
O323 C325 1.240 . S
O324 Co297 2.096 . S
O324 C305 1.247 . S
C325 O322 1.244 . S
C325 O323 1.240 . S
H326 C300 0.931 . S
H327 C309 0.931 . S
H328 C313 0.929 . S
H329 C315 0.930 . S
Co330 N334 2.148 . S
Co330 N340 2.128 . S
Co330 N350 2.194 . S
Co330 O355 2.351 . S
Co330 O356 2.155 . S
Co330 O357 2.096 . S
C331 N334 1.301 . S
C331 N335 1.328 . S
C331 H336 0.930 . S
C332 C333 1.333 . S
C332 N334 1.317 . S
C332 H337 0.930 . S
C333 C332 1.333 . S
C333 N335 1.350 . S
C333 H359 0.931 . S
N334 Co330 2.148 . S
N334 C331 1.301 . S
N334 C332 1.317 . S
N335 C331 1.328 . S
N335 C333 1.350 . S
H336 C331 0.930 . S
H337 C332 0.930 . S
C338 O339 1.224 . S
C338 O357 1.247 . S
O339 C338 1.224 . S
N340 Co330 2.128 . S
N340 C341 1.355 . S
N340 C343 1.311 . S
C341 N340 1.355 . S
C341 C342 1.363 . S
C341 H353 0.929 . S
C342 C341 1.363 . S
C342 N344 1.375 1_545 S
C342 H360 0.931 . S
C343 N340 1.311 . S
C343 N344 1.347 1_545 S
C343 H354 0.929 . S
N344 C342 1.375 1_565 S
N344 C343 1.347 1_565 S
C345 C348 1.365 . S
C345 N350 1.328 . S
C345 H351 0.929 . S
C346 C347 1.362 . S
C346 C349 1.378 . S
C346 H361 0.929 . S
C347 C346 1.362 . S
C347 C348 1.366 . S
C348 C345 1.365 . S
C348 C347 1.366 . S
C348 H362 0.930 . S
C349 C346 1.378 . S
C349 N350 1.315 . S
C349 H352 0.930 . S
N350 Co330 2.194 . S
N350 C345 1.328 . S
N350 C349 1.315 . S
H351 C345 0.929 . S
H352 C349 0.930 . S
H353 C341 0.929 . S
H354 C343 0.929 . S
O355 Co330 2.351 . S
O355 C358 1.244 . S
O356 Co330 2.155 . S
O356 C358 1.240 . S
O357 Co330 2.096 . S
O357 C338 1.247 . S
C358 O355 1.244 . S
C358 O356 1.240 . S
H359 C333 0.931 . S
H360 C342 0.931 . S
H361 C346 0.929 . S
H362 C348 0.930 . S
Co363 N367 2.148 . S
Co363 N373 2.128 . S
Co363 N383 2.194 . S
Co363 O388 2.351 . S
Co363 O389 2.155 . S
Co363 O390 2.096 . S
C364 N367 1.301 . S
C364 N368 1.328 . S
C364 H369 0.930 . S
C365 C366 1.333 . S
C365 N367 1.317 . S
C365 H370 0.930 . S
C366 C365 1.333 . S
C366 N368 1.350 . S
C366 H392 0.931 . S
N367 Co363 2.148 . S
N367 C364 1.301 . S
N367 C365 1.317 . S
N368 C364 1.328 . S
N368 C366 1.350 . S
H369 C364 0.930 . S
H370 C365 0.930 . S
C371 O372 1.224 . S
C371 O390 1.247 . S
O372 C371 1.224 . S
N373 Co363 2.128 . S
N373 C374 1.355 . S
N373 C376 1.311 . S
C374 N373 1.355 . S
C374 C375 1.363 . S
C374 H386 0.929 . S
C375 C374 1.363 . S
C375 N377 1.375 . S
C375 H393 0.931 . S
C376 N373 1.311 . S
C376 N377 1.347 . S
C376 H387 0.929 . S
N377 C375 1.375 . S
N377 C376 1.347 . S
C378 C381 1.365 . S
C378 N383 1.328 . S
C378 H384 0.929 . S
C379 C380 1.362 . S
C379 C382 1.378 . S
C379 H394 0.929 . S
C380 C379 1.362 . S
C380 C381 1.366 . S
C381 C378 1.365 . S
C381 C380 1.366 . S
C381 H395 0.930 . S
C382 C379 1.378 . S
C382 N383 1.315 . S
C382 H385 0.930 . S
N383 Co363 2.194 . S
N383 C378 1.328 . S
N383 C382 1.315 . S
H384 C378 0.929 . S
H385 C382 0.930 . S
H386 C374 0.929 . S
H387 C376 0.929 . S
O388 Co363 2.351 . S
O388 C391 1.244 . S
O389 Co363 2.155 . S
O389 C391 1.240 . S
O390 Co363 2.096 . S
O390 C371 1.247 . S
C391 O388 1.244 . S
C391 O389 1.240 . S
H392 C366 0.931 . S
H393 C375 0.931 . S
H394 C379 0.929 . S
H395 C381 0.930 . S
Co396 N400 2.148 . S
Co396 N406 2.128 . S
Co396 N416 2.194 . S
Co396 O421 2.351 . S
Co396 O422 2.155 . S
Co396 O423 2.096 . S
C397 N400 1.301 . S
C397 N401 1.328 . S
C397 H402 0.930 . S
C398 C399 1.333 . S
C398 N400 1.317 . S
C398 H403 0.930 . S
C399 C398 1.333 . S
C399 N401 1.350 . S
C399 H425 0.931 . S
N400 Co396 2.148 . S
N400 C397 1.301 . S
N400 C398 1.317 . S
N401 C397 1.328 . S
N401 C399 1.350 . S
H402 C397 0.930 . S
H403 C398 0.930 . S
C404 O405 1.224 . S
C404 O423 1.247 . S
O405 C404 1.224 . S
N406 Co396 2.128 . S
N406 C407 1.355 . S
N406 C409 1.311 . S
C407 N406 1.355 . S
C407 C408 1.363 . S
C407 H419 0.929 . S
C408 C407 1.363 . S
C408 N410 1.375 1_565 S
C408 H426 0.931 . S
C409 N406 1.311 . S
C409 N410 1.347 1_565 S
C409 H420 0.929 . S
N410 C408 1.375 1_545 S
N410 C409 1.347 1_545 S
C411 C414 1.365 . S
C411 N416 1.328 . S
C411 H417 0.929 . S
C412 C413 1.362 . S
C412 C415 1.378 . S
C412 H427 0.929 . S
C413 C412 1.362 . S
C413 C414 1.366 . S
C414 C411 1.365 . S
C414 C413 1.366 . S
C414 H428 0.930 . S
C415 C412 1.378 . S
C415 N416 1.315 . S
C415 H418 0.930 . S
N416 Co396 2.194 . S
N416 C411 1.328 . S
N416 C415 1.315 . S
H417 C411 0.929 . S
H418 C415 0.930 . S
H419 C407 0.929 . S
H420 C409 0.929 . S
O421 Co396 2.351 . S
O421 C424 1.244 . S
O422 Co396 2.155 . S
O422 C424 1.240 . S
O423 Co396 2.096 . S
O423 C404 1.247 . S
C424 O421 1.244 . S
C424 O422 1.240 . S
H425 C399 0.931 . S
H426 C408 0.931 . S
H427 C412 0.929 . S
H428 C414 0.930 . S
Co429 N433 2.148 . S
Co429 N439 2.128 . S
Co429 N449 2.194 . S
Co429 O454 2.351 . S
Co429 O455 2.155 . S
Co429 O456 2.096 . S
C430 N433 1.301 . S
C430 N434 1.328 . S
C430 H435 0.930 . S
C431 C432 1.333 . S
C431 N433 1.317 . S
C431 H436 0.930 . S
C432 C431 1.333 . S
C432 N434 1.350 . S
C432 H458 0.931 . S
N433 Co429 2.148 . S
N433 C430 1.301 . S
N433 C431 1.317 . S
N434 C430 1.328 . S
N434 C432 1.350 . S
H435 C430 0.930 . S
H436 C431 0.930 . S
C437 O438 1.224 . S
C437 O456 1.247 . S
O438 C437 1.224 . S
N439 Co429 2.128 . S
N439 C440 1.355 . S
N439 C442 1.311 . S
C440 N439 1.355 . S
C440 C441 1.363 . S
C440 H452 0.929 . S
C441 C440 1.363 . S
C441 N443 1.375 . S
C441 H459 0.931 . S
C442 N439 1.311 . S
C442 N443 1.347 . S
C442 H453 0.929 . S
N443 C441 1.375 . S
N443 C442 1.347 . S
C444 C447 1.365 . S
C444 N449 1.328 . S
C444 H450 0.929 . S
C445 C446 1.362 . S
C445 C448 1.378 . S
C445 H460 0.929 . S
C446 C445 1.362 . S
C446 C447 1.366 . S
C447 C444 1.365 . S
C447 C446 1.366 . S
C447 H461 0.930 . S
C448 C445 1.378 . S
C448 N449 1.315 . S
C448 H451 0.930 . S
N449 Co429 2.194 . S
N449 C444 1.328 . S
N449 C448 1.315 . S
H450 C444 0.929 . S
H451 C448 0.930 . S
H452 C440 0.929 . S
H453 C442 0.929 . S
O454 Co429 2.351 . S
O454 C457 1.244 . S
O455 Co429 2.155 . S
O455 C457 1.240 . S
O456 Co429 2.096 . S
O456 C437 1.247 . S
C457 O454 1.244 . S
C457 O455 1.240 . S
H458 C432 0.931 . S
H459 C441 0.931 . S
H460 C445 0.929 . S
H461 C447 0.930 . S
Co462 N466 2.148 . S
Co462 N472 2.128 . S
Co462 N482 2.194 . S
Co462 O487 2.351 . S
Co462 O488 2.155 . S
Co462 O489 2.096 . S
C463 N466 1.301 . S
C463 N467 1.328 . S
C463 H468 0.930 . S
C464 C465 1.333 . S
C464 N466 1.317 . S
C464 H469 0.930 . S
C465 C464 1.333 . S
C465 N467 1.350 . S
C465 H491 0.931 . S
N466 Co462 2.148 . S
N466 C463 1.301 . S
N466 C464 1.317 . S
N467 C463 1.328 . S
N467 C465 1.350 . S
H468 C463 0.930 . S
H469 C464 0.930 . S
C470 O471 1.224 . S
C470 O489 1.247 . S
O471 C470 1.224 . S
N472 Co462 2.128 . S
N472 C473 1.355 . S
N472 C475 1.311 . S
C473 N472 1.355 . S
C473 C474 1.363 . S
C473 H485 0.929 . S
C474 C473 1.363 . S
C474 N476 1.375 1_455 S
C474 H492 0.931 . S
C475 N472 1.311 . S
C475 N476 1.347 1_455 S
C475 H486 0.929 . S
N476 C474 1.375 1_655 S
N476 C475 1.347 1_655 S
C477 C480 1.365 . S
C477 N482 1.328 . S
C477 H483 0.929 . S
C478 C479 1.362 . S
C478 C481 1.378 . S
C478 H493 0.929 . S
C479 C478 1.362 . S
C479 C480 1.366 . S
C480 C477 1.365 . S
C480 C479 1.366 . S
C480 H494 0.930 . S
C481 C478 1.378 . S
C481 N482 1.315 . S
C481 H484 0.930 . S
N482 Co462 2.194 . S
N482 C477 1.328 . S
N482 C481 1.315 . S
H483 C477 0.929 . S
H484 C481 0.930 . S
H485 C473 0.929 . S
H486 C475 0.929 . S
O487 Co462 2.351 . S
O487 C490 1.244 . S
O488 Co462 2.155 . S
O488 C490 1.240 . S
O489 Co462 2.096 . S
O489 C470 1.247 . S
C490 O487 1.244 . S
C490 O488 1.240 . S
H491 C465 0.931 . S
H492 C474 0.931 . S
H493 C478 0.929 . S
H494 C480 0.930 . S
Co495 N499 2.148 . S
Co495 N505 2.128 . S
Co495 N515 2.194 . S
Co495 O520 2.351 . S
Co495 O521 2.155 . S
Co495 O522 2.096 . S
C496 N499 1.301 . S
C496 N500 1.328 . S
C496 H501 0.930 . S
C497 C498 1.333 . S
C497 N499 1.317 . S
C497 H502 0.930 . S
C498 C497 1.333 . S
C498 N500 1.350 . S
C498 H524 0.931 . S
N499 Co495 2.148 . S
N499 C496 1.301 . S
N499 C497 1.317 . S
N500 C496 1.328 . S
N500 C498 1.350 . S
H501 C496 0.930 . S
H502 C497 0.930 . S
C503 O504 1.224 . S
C503 O522 1.247 . S
O504 C503 1.224 . S
N505 Co495 2.128 . S
N505 C506 1.355 . S
N505 C508 1.311 . S
C506 N505 1.355 . S
C506 C507 1.363 . S
C506 H518 0.929 . S
C507 C506 1.363 . S
C507 N509 1.375 1_545 S
C507 H525 0.931 . S
C508 N505 1.311 . S
C508 N509 1.347 1_545 S
C508 H519 0.929 . S
N509 C507 1.375 1_565 S
N509 C508 1.347 1_565 S
C510 C513 1.365 . S
C510 N515 1.328 . S
C510 H516 0.929 . S
C511 C512 1.362 . S
C511 C514 1.378 . S
C511 H526 0.929 . S
C512 C511 1.362 . S
C512 C513 1.366 . S
C513 C510 1.365 . S
C513 C512 1.366 . S
C513 H527 0.930 . S
C514 C511 1.378 . S
C514 N515 1.315 . S
C514 H517 0.930 . S
N515 Co495 2.194 . S
N515 C510 1.328 . S
N515 C514 1.315 . S
H516 C510 0.929 . S
H517 C514 0.930 . S
H518 C506 0.929 . S
H519 C508 0.929 . S
O520 Co495 2.351 . S
O520 C523 1.244 . S
O521 Co495 2.155 . S
O521 C523 1.240 . S
O522 Co495 2.096 . S
O522 C503 1.247 . S
C523 O520 1.244 . S
C523 O521 1.240 . S
H524 C498 0.931 . S
H525 C507 0.931 . S
H526 C511 0.929 . S
H527 C513 0.930 . S
Co528 N532 2.148 . S
Co528 N538 2.128 . S
Co528 N548 2.194 . S
Co528 O553 2.351 . S
Co528 O554 2.155 . S
Co528 O555 2.096 . S
C529 N532 1.301 . S
C529 N533 1.328 . S
C529 H534 0.930 . S
C530 C531 1.333 . S
C530 N532 1.317 . S
C530 H535 0.930 . S
C531 C530 1.333 . S
C531 N533 1.350 . S
C531 H557 0.931 . S
N532 Co528 2.148 . S
N532 C529 1.301 . S
N532 C530 1.317 . S
N533 C529 1.328 . S
N533 C531 1.350 . S
H534 C529 0.930 . S
H535 C530 0.930 . S
C536 O537 1.224 . S
C536 O555 1.247 . S
O537 C536 1.224 . S
N538 Co528 2.128 . S
N538 C539 1.355 . S
N538 C541 1.311 . S
C539 N538 1.355 . S
C539 C540 1.363 . S
C539 H551 0.929 . S
C540 C539 1.363 . S
C540 N542 1.375 . S
C540 H558 0.931 . S
C541 N538 1.311 . S
C541 N542 1.347 . S
C541 H552 0.929 . S
N542 C540 1.375 . S
N542 C541 1.347 . S
C543 C546 1.365 . S
C543 N548 1.328 . S
C543 H549 0.929 . S
C544 C545 1.362 . S
C544 C547 1.378 . S
C544 H559 0.929 . S
C545 C544 1.362 . S
C545 C546 1.366 . S
C546 C543 1.365 . S
C546 C545 1.366 . S
C546 H560 0.930 . S
C547 C544 1.378 . S
C547 N548 1.315 . S
C547 H550 0.930 . S
N548 Co528 2.194 . S
N548 C543 1.328 . S
N548 C547 1.315 . S
H549 C543 0.929 . S
H550 C547 0.930 . S
H551 C539 0.929 . S
H552 C541 0.929 . S
O553 Co528 2.351 . S
O553 C556 1.244 . S
O554 Co528 2.155 . S
O554 C556 1.240 . S
O555 Co528 2.096 . S
O555 C536 1.247 . S
C556 O553 1.244 . S
C556 O554 1.240 . S
H557 C531 0.931 . S
H558 C540 0.931 . S
H559 C544 0.929 . S
H560 C546 0.930 . S
Co561 N565 2.148 . S
Co561 N571 2.128 . S
Co561 N581 2.194 . S
Co561 O586 2.351 . S
Co561 O587 2.155 . S
Co561 O588 2.096 . S
C562 N565 1.301 . S
C562 N566 1.328 . S
C562 H567 0.930 . S
C563 C564 1.333 . S
C563 N565 1.317 . S
C563 H568 0.930 . S
C564 C563 1.333 . S
C564 N566 1.350 . S
C564 H590 0.931 . S
N565 Co561 2.148 . S
N565 C562 1.301 . S
N565 C563 1.317 . S
N566 C562 1.328 . S
N566 C564 1.350 . S
H567 C562 0.930 . S
H568 C563 0.930 . S
C569 O570 1.224 . S
C569 O588 1.247 . S
O570 C569 1.224 . S
N571 Co561 2.128 . S
N571 C572 1.355 . S
N571 C574 1.311 . S
C572 N571 1.355 . S
C572 C573 1.363 . S
C572 H584 0.929 . S
C573 C572 1.363 . S
C573 N575 1.375 1_655 S
C573 H591 0.931 . S
C574 N571 1.311 . S
C574 N575 1.347 1_655 S
C574 H585 0.929 . S
N575 C573 1.375 1_455 S
N575 C574 1.347 1_455 S
C576 C579 1.365 . S
C576 N581 1.328 . S
C576 H582 0.929 . S
C577 C578 1.362 . S
C577 C580 1.378 . S
C577 H592 0.929 . S
C578 C577 1.362 . S
C578 C579 1.366 . S
C579 C576 1.365 . S
C579 C578 1.366 . S
C579 H593 0.930 . S
C580 C577 1.378 . S
C580 N581 1.315 . S
C580 H583 0.930 . S
N581 Co561 2.194 . S
N581 C576 1.328 . S
N581 C580 1.315 . S
H582 C576 0.929 . S
H583 C580 0.930 . S
H584 C572 0.929 . S
H585 C574 0.929 . S
O586 Co561 2.351 . S
O586 C589 1.244 . S
O587 Co561 2.155 . S
O587 C589 1.240 . S
O588 Co561 2.096 . S
O588 C569 1.247 . S
C589 O586 1.244 . S
C589 O587 1.240 . S
H590 C564 0.931 . S
H591 C573 0.931 . S
H592 C577 0.929 . S
H593 C579 0.930 . S
Co594 N598 2.148 . S
Co594 N604 2.128 . S
Co594 N614 2.194 . S
Co594 O619 2.351 . S
Co594 O620 2.155 . S
Co594 O621 2.096 . S
C595 N598 1.301 . S
C595 N599 1.328 . S
C595 H600 0.930 . S
C596 C597 1.333 . S
C596 N598 1.317 . S
C596 H601 0.930 . S
C597 C596 1.333 . S
C597 N599 1.350 . S
C597 H623 0.931 . S
N598 Co594 2.148 . S
N598 C595 1.301 . S
N598 C596 1.317 . S
N599 C595 1.328 . S
N599 C597 1.350 . S
H600 C595 0.930 . S
H601 C596 0.930 . S
C602 O603 1.224 . S
C602 O621 1.247 . S
O603 C602 1.224 . S
N604 Co594 2.128 . S
N604 C605 1.355 . S
N604 C607 1.311 . S
C605 N604 1.355 . S
C605 C606 1.363 . S
C605 H617 0.929 . S
C606 C605 1.363 . S
C606 N608 1.375 1_455 S
C606 H624 0.931 . S
C607 N604 1.311 . S
C607 N608 1.347 1_455 S
C607 H618 0.929 . S
N608 C606 1.375 1_655 S
N608 C607 1.347 1_655 S
C609 C612 1.365 . S
C609 N614 1.328 . S
C609 H615 0.929 . S
C610 C611 1.362 . S
C610 C613 1.378 . S
C610 H625 0.929 . S
C611 C610 1.362 . S
C611 C612 1.366 . S
C612 C609 1.365 . S
C612 C611 1.366 . S
C612 H626 0.930 . S
C613 C610 1.378 . S
C613 N614 1.315 . S
C613 H616 0.930 . S
N614 Co594 2.194 . S
N614 C609 1.328 . S
N614 C613 1.315 . S
H615 C609 0.929 . S
H616 C613 0.930 . S
H617 C605 0.929 . S
H618 C607 0.929 . S
O619 Co594 2.351 . S
O619 C622 1.244 . S
O620 Co594 2.155 . S
O620 C622 1.240 . S
O621 Co594 2.096 . S
O621 C602 1.247 . S
C622 O619 1.244 . S
C622 O620 1.240 . S
H623 C597 0.931 . S
H624 C606 0.931 . S
H625 C610 0.929 . S
H626 C612 0.930 . S
Co627 N631 2.148 . S
Co627 N637 2.128 . S
Co627 N647 2.194 . S
Co627 O652 2.351 . S
Co627 O653 2.155 . S
Co627 O654 2.096 . S
C628 N631 1.301 . S
C628 N632 1.328 . S
C628 H633 0.930 . S
C629 C630 1.333 . S
C629 N631 1.317 . S
C629 H634 0.930 . S
C630 C629 1.333 . S
C630 N632 1.350 . S
C630 H656 0.931 . S
N631 Co627 2.148 . S
N631 C628 1.301 . S
N631 C629 1.317 . S
N632 C628 1.328 . S
N632 C630 1.350 . S
H633 C628 0.930 . S
H634 C629 0.930 . S
C635 O636 1.224 . S
C635 O654 1.247 . S
O636 C635 1.224 . S
N637 Co627 2.128 . S
N637 C638 1.355 . S
N637 C640 1.311 . S
C638 N637 1.355 . S
C638 C639 1.363 . S
C638 H650 0.929 . S
C639 C638 1.363 . S
C639 N641 1.375 1_545 S
C639 H657 0.931 . S
C640 N637 1.311 . S
C640 N641 1.347 1_545 S
C640 H651 0.929 . S
N641 C639 1.375 1_565 S
N641 C640 1.347 1_565 S
C642 C645 1.365 . S
C642 N647 1.328 . S
C642 H648 0.929 . S
C643 C644 1.362 . S
C643 C646 1.378 . S
C643 H658 0.929 . S
C644 C643 1.362 . S
C644 C645 1.366 . S
C645 C642 1.365 . S
C645 C644 1.366 . S
C645 H659 0.930 . S
C646 C643 1.378 . S
C646 N647 1.315 . S
C646 H649 0.930 . S
N647 Co627 2.194 . S
N647 C642 1.328 . S
N647 C646 1.315 . S
H648 C642 0.929 . S
H649 C646 0.930 . S
H650 C638 0.929 . S
H651 C640 0.929 . S
O652 Co627 2.351 . S
O652 C655 1.244 . S
O653 Co627 2.155 . S
O653 C655 1.240 . S
O654 Co627 2.096 . S
O654 C635 1.247 . S
C655 O652 1.244 . S
C655 O653 1.240 . S
H656 C630 0.931 . S
H657 C639 0.931 . S
H658 C643 0.929 . S
H659 C645 0.930 . S
Co660 N664 2.148 . S
Co660 N670 2.128 . S
Co660 N680 2.194 . S
Co660 O685 2.351 . S
Co660 O686 2.155 . S
Co660 O687 2.096 . S
C661 N664 1.301 . S
C661 N665 1.328 . S
C661 H666 0.930 . S
C662 C663 1.333 . S
C662 N664 1.317 . S
C662 H667 0.930 . S
C663 C662 1.333 . S
C663 N665 1.350 . S
C663 H689 0.931 . S
N664 Co660 2.148 . S
N664 C661 1.301 . S
N664 C662 1.317 . S
N665 C661 1.328 . S
N665 C663 1.350 . S
H666 C661 0.930 . S
H667 C662 0.930 . S
C668 O669 1.224 . S
C668 O687 1.247 . S
O669 C668 1.224 . S
N670 Co660 2.128 . S
N670 C671 1.355 . S
N670 C673 1.311 . S
C671 N670 1.355 . S
C671 C672 1.363 . S
C671 H683 0.929 . S
C672 C671 1.363 . S
C672 N674 1.375 . S
C672 H690 0.931 . S
C673 N670 1.311 . S
C673 N674 1.347 . S
C673 H684 0.929 . S
N674 C672 1.375 . S
N674 C673 1.347 . S
C675 C678 1.365 . S
C675 N680 1.328 . S
C675 H681 0.929 . S
C676 C677 1.362 . S
C676 C679 1.378 . S
C676 H691 0.929 . S
C677 C676 1.362 . S
C677 C678 1.366 . S
C678 C675 1.365 . S
C678 C677 1.366 . S
C678 H692 0.930 . S
C679 C676 1.378 . S
C679 N680 1.315 . S
C679 H682 0.930 . S
N680 Co660 2.194 . S
N680 C675 1.328 . S
N680 C679 1.315 . S
H681 C675 0.929 . S
H682 C679 0.930 . S
H683 C671 0.929 . S
H684 C673 0.929 . S
O685 Co660 2.351 . S
O685 C688 1.244 . S
O686 Co660 2.155 . S
O686 C688 1.240 . S
O687 Co660 2.096 . S
O687 C668 1.247 . S
C688 O685 1.244 . S
C688 O686 1.240 . S
H689 C663 0.931 . S
H690 C672 0.931 . S
H691 C676 0.929 . S
H692 C678 0.930 . S
Co693 N697 2.148 . S
Co693 N703 2.128 . S
Co693 N713 2.194 . S
Co693 O718 2.351 . S
Co693 O719 2.155 . S
Co693 O720 2.096 . S
C694 N697 1.301 . S
C694 N698 1.328 . S
C694 H699 0.930 . S
C695 C696 1.333 . S
C695 N697 1.317 . S
C695 H700 0.930 . S
C696 C695 1.333 . S
C696 N698 1.350 . S
C696 H722 0.931 . S
N697 Co693 2.148 . S
N697 C694 1.301 . S
N697 C695 1.317 . S
N698 C694 1.328 . S
N698 C696 1.350 . S
H699 C694 0.930 . S
H700 C695 0.930 . S
C701 O702 1.224 . S
C701 O720 1.247 . S
O702 C701 1.224 . S
N703 Co693 2.128 . S
N703 C704 1.355 . S
N703 C706 1.311 . S
C704 N703 1.355 . S
C704 C705 1.363 . S
C704 H716 0.929 . S
C705 C704 1.363 . S
C705 N707 1.375 1_655 S
C705 H723 0.931 . S
C706 N703 1.311 . S
C706 N707 1.347 1_655 S
C706 H717 0.929 . S
N707 C705 1.375 1_455 S
N707 C706 1.347 1_455 S
C708 C711 1.365 . S
C708 N713 1.328 . S
C708 H714 0.929 . S
C709 C710 1.362 . S
C709 C712 1.378 . S
C709 H724 0.929 . S
C710 C709 1.362 . S
C710 C711 1.366 . S
C711 C708 1.365 . S
C711 C710 1.366 . S
C711 H725 0.930 . S
C712 C709 1.378 . S
C712 N713 1.315 . S
C712 H715 0.930 . S
N713 Co693 2.194 . S
N713 C708 1.328 . S
N713 C712 1.315 . S
H714 C708 0.929 . S
H715 C712 0.930 . S
H716 C704 0.929 . S
H717 C706 0.929 . S
O718 Co693 2.351 . S
O718 C721 1.244 . S
O719 Co693 2.155 . S
O719 C721 1.240 . S
O720 Co693 2.096 . S
O720 C701 1.247 . S
C721 O718 1.244 . S
C721 O719 1.240 . S
H722 C696 0.931 . S
H723 C705 0.931 . S
H724 C709 0.929 . S
H725 C711 0.930 . S
Co726 N730 2.148 . S
Co726 N736 2.128 . S
Co726 N746 2.194 . S
Co726 O751 2.351 . S
Co726 O752 2.155 . S
Co726 O753 2.096 . S
C727 N730 1.301 . S
C727 N731 1.328 . S
C727 H732 0.930 . S
C728 C729 1.333 . S
C728 N730 1.317 . S
C728 H733 0.930 . S
C729 C728 1.333 . S
C729 N731 1.350 . S
C729 H755 0.931 . S
N730 Co726 2.148 . S
N730 C727 1.301 . S
N730 C728 1.317 . S
N731 C727 1.328 . S
N731 C729 1.350 . S
H732 C727 0.930 . S
H733 C728 0.930 . S
C734 O735 1.224 . S
C734 O753 1.247 . S
O735 C734 1.224 . S
N736 Co726 2.128 . S
N736 C737 1.355 . S
N736 C739 1.311 . S
C737 N736 1.355 . S
C737 C738 1.363 . S
C737 H749 0.929 . S
C738 C737 1.363 . S
C738 N740 1.375 1_565 S
C738 H756 0.931 . S
C739 N736 1.311 . S
C739 N740 1.347 1_565 S
C739 H750 0.929 . S
N740 C738 1.375 1_545 S
N740 C739 1.347 1_545 S
C741 C744 1.365 . S
C741 N746 1.328 . S
C741 H747 0.929 . S
C742 C743 1.362 . S
C742 C745 1.378 . S
C742 H757 0.929 . S
C743 C742 1.362 . S
C743 C744 1.366 . S
C744 C741 1.365 . S
C744 C743 1.366 . S
C744 H758 0.930 . S
C745 C742 1.378 . S
C745 N746 1.315 . S
C745 H748 0.930 . S
N746 Co726 2.194 . S
N746 C741 1.328 . S
N746 C745 1.315 . S
H747 C741 0.929 . S
H748 C745 0.930 . S
H749 C737 0.929 . S
H750 C739 0.929 . S
O751 Co726 2.351 . S
O751 C754 1.244 . S
O752 Co726 2.155 . S
O752 C754 1.240 . S
O753 Co726 2.096 . S
O753 C734 1.247 . S
C754 O751 1.244 . S
C754 O752 1.240 . S
H755 C729 0.931 . S
H756 C738 0.931 . S
H757 C742 0.929 . S
H758 C744 0.930 . S
Co759 N763 2.148 . S
Co759 N769 2.128 . S
Co759 N779 2.194 . S
Co759 O784 2.351 . S
Co759 O785 2.155 . S
Co759 O786 2.096 . S
C760 N763 1.301 . S
C760 N764 1.328 . S
C760 H765 0.930 . S
C761 C762 1.333 . S
C761 N763 1.317 . S
C761 H766 0.930 . S
C762 C761 1.333 . S
C762 N764 1.350 . S
C762 H788 0.931 . S
N763 Co759 2.148 . S
N763 C760 1.301 . S
N763 C761 1.317 . S
N764 C760 1.328 . S
N764 C762 1.350 . S
H765 C760 0.930 . S
H766 C761 0.930 . S
C767 O768 1.224 . S
C767 O786 1.247 . S
O768 C767 1.224 . S
N769 Co759 2.128 . S
N769 C770 1.355 . S
N769 C772 1.311 . S
C770 N769 1.355 . S
C770 C771 1.363 . S
C770 H782 0.929 . S
C771 C770 1.363 . S
C771 N773 1.375 . S
C771 H789 0.931 . S
C772 N769 1.311 . S
C772 N773 1.347 . S
C772 H783 0.929 . S
N773 C771 1.375 . S
N773 C772 1.347 . S
C774 C777 1.365 . S
C774 N779 1.328 . S
C774 H780 0.929 . S
C775 C776 1.362 . S
C775 C778 1.378 . S
C775 H790 0.929 . S
C776 C775 1.362 . S
C776 C777 1.366 . S
C777 C774 1.365 . S
C777 C776 1.366 . S
C777 H791 0.930 . S
C778 C775 1.378 . S
C778 N779 1.315 . S
C778 H781 0.930 . S
N779 Co759 2.194 . S
N779 C774 1.328 . S
N779 C778 1.315 . S
H780 C774 0.929 . S
H781 C778 0.930 . S
H782 C770 0.929 . S
H783 C772 0.929 . S
O784 Co759 2.351 . S
O784 C787 1.244 . S
O785 Co759 2.155 . S
O785 C787 1.240 . S
O786 Co759 2.096 . S
O786 C767 1.247 . S
C787 O784 1.244 . S
C787 O785 1.240 . S
H788 C762 0.931 . S
H789 C771 0.931 . S
H790 C775 0.929 . S
H791 C777 0.930 . S
N14 N113 0.181 1_565 S
N146 N47 0.181 . S
N179 N80 0.181 1_655 S
N311 N212 0.181 1_655 S
N245 N344 0.181 1_545 S
N278 N377 0.181 . S
N509 N410 0.181 1_565 S
N542 N443 0.181 . S
N575 N476 0.181 1_455 S
N707 N608 0.181 1_455 S
N641 N740 0.181 1_565 S
N773 N674 0.181 . S
N269 N5 1.290 . S
N38 N302 1.290 . S
N71 N335 1.290 . S
N104 N368 1.290 . S
N137 N203 1.290 . S
N236 N170 1.290 . S
N401 N665 1.290 . S
N698 N434 1.290 . S
N731 N467 1.290 . S
N500 N764 1.290 . S
N599 N533 1.290 . S
N632 N566 1.290 . S
C8 C239 2.290 1_545 S
C41 C272 2.290 . S
C305 C74 2.290 1_455 S
C107 C338 2.290 1_565 S
C371 C140 2.290 . S
C206 C173 2.290 1_655 S
C404 C635 2.290 1_565 S
C437 C668 2.290 . S
C470 C701 2.290 1_455 S
C503 C734 2.290 1_545 S
C536 C767 2.290 . S
C602 C569 2.290 1_455 S
C28 C358 1.406 . S
C391 C61 1.406 . S
C226 C94 1.406 . S
C259 C127 1.406 . S
C160 C292 1.406 . S
C193 C325 1.406 . S
C424 C754 1.406 . S
C787 C457 1.406 . S
C622 C490 1.406 . S
C523 C655 1.406 . S
C556 C688 1.406 . S
C721 C589 1.406 . S
C17 C512 1.648 1_554 S
C50 C545 1.648 1_554 S
C83 C578 1.648 1_554 S
C116 C413 1.648 1_554 S
C149 C446 1.648 1_554 S
C479 C182 1.648 1_556 S
C215 C710 1.648 . S
C248 C743 1.648 . S
C281 C776 1.648 . S
C314 C611 1.648 . S
C347 C644 1.648 . S
C677 C380 1.648 . S
