# Generated by pormake.
# Topology ubt, (5)-cn, num edge types: 1
# Building blocks:
#     Node 0, Type 0, BuildingBlock: XOMCOT_clean_sbu_0, # of connection points: 5
#     Node 1, Type 0, BuildingBlock: XOMCOT_clean_sbu_0, # of connection points: 5
#     Node 2, Type 0, BuildingBlock: XOMCOT_clean_sbu_0, # of connection points: 5
#     Node 3, Type 0, BuildingBlock: XOMCOT_clean_sbu_0, # of connection points: 5
#     Node 4, Type 0, BuildingBlock: XOMCOT_clean_sbu_0, # of connection points: 5
#     Node 5, Type 0, BuildingBlock: XOMCOT_clean_sbu_0, # of connection points: 5
#     Node 6, Type 0, BuildingBlock: XOMCOT_clean_sbu_0, # of connection points: 5
#     Node 7, Type 0, BuildingBlock: XOMCOT_clean_sbu_0, # of connection points: 5
#     Node 8, Type 0, BuildingBlock: XOMCOT_clean_sbu_0, # of connection points: 5
#     Node 9, Type 0, BuildingBlock: XOMCOT_clean_sbu_0, # of connection points: 5
#     Node 10, Type 0, BuildingBlock: XOMCOT_clean_sbu_0, # of connection points: 5
#     Node 11, Type 0, BuildingBlock: XOMCOT_clean_sbu_0, # of connection points: 5
#     Node 12, Type 0, BuildingBlock: XOMCOT_clean_sbu_0, # of connection points: 5
#     Node 13, Type 0, BuildingBlock: XOMCOT_clean_sbu_0, # of connection points: 5
#     Node 14, Type 0, BuildingBlock: XOMCOT_clean_sbu_0, # of connection points: 5
#     Node 15, Type 0, BuildingBlock: XOMCOT_clean_sbu_0, # of connection points: 5
#     Node 16, Type 0, BuildingBlock: XOMCOT_clean_sbu_0, # of connection points: 5
#     Node 17, Type 0, BuildingBlock: XOMCOT_clean_sbu_0, # of connection points: 5
#     Node 18, Type 0, BuildingBlock: XOMCOT_clean_sbu_0, # of connection points: 5
#     Node 19, Type 0, BuildingBlock: XOMCOT_clean_sbu_0, # of connection points: 5
#     Node 20, Type 0, BuildingBlock: XOMCOT_clean_sbu_0, # of connection points: 5
#     Node 21, Type 0, BuildingBlock: XOMCOT_clean_sbu_0, # of connection points: 5
#     Node 22, Type 0, BuildingBlock: XOMCOT_clean_sbu_0, # of connection points: 5
#     Node 23, Type 0, BuildingBlock: XOMCOT_clean_sbu_0, # of connection points: 5
#     Node 24, Type 0, BuildingBlock: XOMCOT_clean_sbu_0, # of connection points: 5
#     Node 25, Type 0, BuildingBlock: XOMCOT_clean_sbu_0, # of connection points: 5
#     Node 26, Type 0, BuildingBlock: XOMCOT_clean_sbu_0, # of connection points: 5
#     Node 27, Type 0, BuildingBlock: XOMCOT_clean_sbu_0, # of connection points: 5
#     Node 28, Type 0, BuildingBlock: XOMCOT_clean_sbu_0, # of connection points: 5
#     Node 29, Type 0, BuildingBlock: XOMCOT_clean_sbu_0, # of connection points: 5
#     Node 30, Type 0, BuildingBlock: XOMCOT_clean_sbu_0, # of connection points: 5
#     Node 31, Type 0, BuildingBlock: XOMCOT_clean_sbu_0, # of connection points: 5
#     Node 32, Type 0, BuildingBlock: XOMCOT_clean_sbu_0, # of connection points: 5
#     Node 33, Type 0, BuildingBlock: XOMCOT_clean_sbu_0, # of connection points: 5
#     Node 34, Type 0, BuildingBlock: XOMCOT_clean_sbu_0, # of connection points: 5
#     Node 35, Type 0, BuildingBlock: XOMCOT_clean_sbu_0, # of connection points: 5
#     Node 36, Type 0, BuildingBlock: XOMCOT_clean_sbu_0, # of connection points: 5
#     Node 37, Type 0, BuildingBlock: XOMCOT_clean_sbu_0, # of connection points: 5
#     Node 38, Type 0, BuildingBlock: XOMCOT_clean_sbu_0, # of connection points: 5
#     Node 39, Type 0, BuildingBlock: XOMCOT_clean_sbu_0, # of connection points: 5
#     Node 40, Type 0, BuildingBlock: XOMCOT_clean_sbu_0, # of connection points: 5
#     Node 41, Type 0, BuildingBlock: XOMCOT_clean_sbu_0, # of connection points: 5
#     Node 42, Type 0, BuildingBlock: XOMCOT_clean_sbu_0, # of connection points: 5
#     Node 43, Type 0, BuildingBlock: XOMCOT_clean_sbu_0, # of connection points: 5
#     Node 44, Type 0, BuildingBlock: XOMCOT_clean_sbu_0, # of connection points: 5
#     Node 45, Type 0, BuildingBlock: XOMCOT_clean_sbu_0, # of connection points: 5
#     Node 46, Type 0, BuildingBlock: XOMCOT_clean_sbu_0, # of connection points: 5
#     Node 47, Type 0, BuildingBlock: XOMCOT_clean_sbu_0, # of connection points: 5
#     Edge 48, Type (0, 0), None
#     Edge 49, Type (0, 0), None
#     Edge 50, Type (0, 0), None
#     Edge 51, Type (0, 0), None
#     Edge 52, Type (0, 0), None
#     Edge 53, Type (0, 0), None
#     Edge 54, Type (0, 0), None
#     Edge 55, Type (0, 0), None
#     Edge 56, Type (0, 0), None
#     Edge 57, Type (0, 0), None
#     Edge 58, Type (0, 0), None
#     Edge 59, Type (0, 0), None
#     Edge 60, Type (0, 0), None
#     Edge 61, Type (0, 0), None
#     Edge 62, Type (0, 0), None
#     Edge 63, Type (0, 0), None
#     Edge 64, Type (0, 0), None
#     Edge 65, Type (0, 0), None
#     Edge 66, Type (0, 0), None
#     Edge 67, Type (0, 0), None
#     Edge 68, Type (0, 0), None
#     Edge 69, Type (0, 0), None
#     Edge 70, Type (0, 0), None
#     Edge 71, Type (0, 0), None
#     Edge 72, Type (0, 0), None
#     Edge 73, Type (0, 0), None
#     Edge 74, Type (0, 0), None
#     Edge 75, Type (0, 0), None
#     Edge 76, Type (0, 0), None
#     Edge 77, Type (0, 0), None
#     Edge 78, Type (0, 0), None
#     Edge 79, Type (0, 0), None
#     Edge 80, Type (0, 0), None
#     Edge 81, Type (0, 0), None
#     Edge 82, Type (0, 0), None
#     Edge 83, Type (0, 0), None
#     Edge 84, Type (0, 0), None
#     Edge 85, Type (0, 0), None
#     Edge 86, Type (0, 0), None
#     Edge 87, Type (0, 0), None
#     Edge 88, Type (0, 0), None
#     Edge 89, Type (0, 0), None
#     Edge 90, Type (0, 0), None
#     Edge 91, Type (0, 0), None
#     Edge 92, Type (0, 0), None
#     Edge 93, Type (0, 0), None
#     Edge 94, Type (0, 0), None
#     Edge 95, Type (0, 0), None
#     Edge 96, Type (0, 0), None
#     Edge 97, Type (0, 0), None
#     Edge 98, Type (0, 0), None
#     Edge 99, Type (0, 0), None
#     Edge 100, Type (0, 0), None
#     Edge 101, Type (0, 0), None
#     Edge 102, Type (0, 0), None
#     Edge 103, Type (0, 0), None
#     Edge 104, Type (0, 0), None
#     Edge 105, Type (0, 0), None
#     Edge 106, Type (0, 0), None
#     Edge 107, Type (0, 0), None
#     Edge 108, Type (0, 0), None
#     Edge 109, Type (0, 0), None
#     Edge 110, Type (0, 0), None
#     Edge 111, Type (0, 0), None
#     Edge 112, Type (0, 0), None
#     Edge 113, Type (0, 0), None
#     Edge 114, Type (0, 0), None
#     Edge 115, Type (0, 0), None
#     Edge 116, Type (0, 0), None
#     Edge 117, Type (0, 0), None
#     Edge 118, Type (0, 0), None
#     Edge 119, Type (0, 0), None
#     Edge 120, Type (0, 0), None
#     Edge 121, Type (0, 0), None
#     Edge 122, Type (0, 0), None
#     Edge 123, Type (0, 0), None
#     Edge 124, Type (0, 0), None
#     Edge 125, Type (0, 0), None
#     Edge 126, Type (0, 0), None
#     Edge 127, Type (0, 0), None
#     Edge 128, Type (0, 0), None
#     Edge 129, Type (0, 0), None
#     Edge 130, Type (0, 0), None
#     Edge 131, Type (0, 0), None
#     Edge 132, Type (0, 0), None
#     Edge 133, Type (0, 0), None
#     Edge 134, Type (0, 0), None
#     Edge 135, Type (0, 0), None
#     Edge 136, Type (0, 0), None
#     Edge 137, Type (0, 0), None
#     Edge 138, Type (0, 0), None
#     Edge 139, Type (0, 0), None
#     Edge 140, Type (0, 0), None
#     Edge 141, Type (0, 0), None
#     Edge 142, Type (0, 0), None
#     Edge 143, Type (0, 0), None
#     Edge 144, Type (0, 0), None
#     Edge 145, Type (0, 0), None
#     Edge 146, Type (0, 0), None
#     Edge 147, Type (0, 0), None
#     Edge 148, Type (0, 0), None
#     Edge 149, Type (0, 0), None
#     Edge 150, Type (0, 0), None
#     Edge 151, Type (0, 0), None
#     Edge 152, Type (0, 0), None
#     Edge 153, Type (0, 0), None
#     Edge 154, Type (0, 0), None
#     Edge 155, Type (0, 0), None
#     Edge 156, Type (0, 0), None
#     Edge 157, Type (0, 0), None
#     Edge 158, Type (0, 0), None
#     Edge 159, Type (0, 0), None
#     Edge 160, Type (0, 0), None
#     Edge 161, Type (0, 0), None
#     Edge 162, Type (0, 0), None
#     Edge 163, Type (0, 0), None
#     Edge 164, Type (0, 0), None
#     Edge 165, Type (0, 0), None
#     Edge 166, Type (0, 0), None
#     Edge 167, Type (0, 0), None
# Relax obj value: 0.237
# Max RMSD: 0.208
# Mean RMSD: 0.204
data_MOF--net-ubt--node1-XOMCOT_clean_sbu_0--edge1-none
_symmetry_space_group_name_H-M    P1
_symmetry_Int_Tables_number       1
_symmetry_cell_setting            triclinic
loop_
_symmetry_equiv_pos_as_xyz
'x, y, z'
_cell_length_a     36.700287
_cell_length_b     36.29454
_cell_length_c     37.591408
_cell_angle_alpha  89.356534
_cell_angle_beta   89.247422
_cell_angle_gamma 88.741078
loop_
_atom_site_label
_atom_site_type_symbol
_atom_site_fract_x
_atom_site_fract_y
_atom_site_fract_z
_atom_type_partial_charge
Co0 Co 0.01396 0.15567 0.16055 0.0
C1 C 0.96664 0.17145 0.10022 0.0
C2 C 0.95292 0.20731 0.14385 0.0
C3 C 0.92939 0.21483 0.11647 0.0
N4 N 0.97671 0.18069 0.13333 0.0
N5 N 0.93769 0.19182 0.08944 0.0
H6 H 0.97942 0.14945 0.08497 0.0
H7 H 0.95164 0.21942 0.16998 0.0
C8 C 0.08132 0.18776 0.1274 0.0
O9 O 0.08924 0.19905 0.15935 0.0
N10 N 0.05292 0.12876 0.18558 0.0
C11 C 0.07514 0.14165 0.21082 0.0
C12 C 0.10667 0.1207 0.21151 0.0
C13 C 0.07147 0.09911 0.172 0.0
N14 N 0.10457 0.09409 0.18705 0.0
C15 C 1.00936 0.19747 0.22285 0.0
C16 C 0.02346 0.26698 0.1962 0.0
C17 C 0.0136 0.26303 0.23235 0.0
C18 C 1.00434 0.22768 0.24437 0.0
C19 C 0.02506 0.2356 0.17416 0.0
N20 N 0.02016 0.20086 0.18817 0.0
H21 H 1.00434 0.17084 0.23465 0.0
H22 H 0.02985 0.23936 0.14593 0.0
H23 H 0.07149 0.16686 0.22533 0.0
H24 H 0.06275 0.08422 0.14893 0.0
O25 O 0.97711 0.13621 0.19224 0.0
O26 O 0.99394 0.10847 0.14304 0.0
O27 O 0.05214 0.1694 0.1225 0.0
C28 C 0.97201 0.10966 0.17082 0.0
H29 H 0.90641 0.23406 0.11733 0.0
H30 H 0.13017 0.1258 0.22774 0.0
H31 H 0.02957 0.29376 0.18498 0.0
H32 H 0.99344 0.22258 0.2708 0.0
Co33 Co 0.86066 0.02201 0.13972 0.0
C34 C 0.92433 0.06747 0.15258 0.0
C35 C 0.89154 0.06591 0.20028 0.0
C36 C 0.92172 0.08687 0.20606 0.0
N37 N 0.89215 0.05478 0.16614 0.0
N38 N 0.94247 0.08775 0.17614 0.0
H39 H 0.93405 0.06265 0.12572 0.0
H40 H 0.87158 0.05897 0.22037 0.0
C41 C 0.89689 0.94753 0.15112 0.0
O42 O 0.87053 0.93115 0.13465 0.0
N43 N 0.83499 0.9894 0.10881 0.0
C44 C 0.80149 0.97521 0.11098 0.0
C45 C 0.79734 0.95234 0.08214 0.0
C46 C 0.84999 0.97641 0.07803 0.0
N47 N 0.82798 0.95299 0.06163 0.0
C48 C 0.81138 0.03936 0.19483 0.0
C49 C 0.79932 0.97127 0.22515 0.0
C50 C 0.7798 1.00218 0.23798 0.0
C51 C 0.78544 0.0361 0.22136 0.0
C52 C 0.82457 0.97554 0.19676 0.0
N53 N 0.83099 1.0097 0.1822 0.0
H54 H 0.81625 0.06694 0.18532 0.0
H55 H 0.83801 0.95122 0.18698 0.0
H56 H 0.78199 0.98017 0.13229 0.0
H57 H 0.8777 0.98169 0.0695 0.0
O58 O 0.82767 0.06057 0.12658 0.0
O59 O 0.87769 0.04771 0.09599 0.0
O60 O 0.8986 0.9827 0.15138 0.0
C61 C 0.8486 0.06883 0.10074 0.0
H62 H 0.92801 0.10041 0.23071 0.0
H63 H 0.77402 0.93538 0.07742 0.0
H64 H 0.79551 0.94433 0.23711 0.0
H65 H 0.77053 0.06077 0.22949 0.0
Co66 Co 0.99564 0.85361 0.14237 0.0
C67 C 0.92829 0.89038 0.16355 0.0
C68 C 0.97271 0.90798 0.19413 0.0
C69 C 0.94938 0.93775 0.18895 0.0
N70 N 0.9616 0.87916 0.17476 0.0
N71 N 0.92223 0.92659 0.16838 0.0
H72 H 0.91069 0.87383 0.14784 0.0
H73 H 0.99858 0.90907 0.20736 0.0
C74 C 0.0689 0.89223 0.15348 0.0
O75 O 0.08806 0.86732 0.1359 0.0
N76 N 0.02872 0.83194 0.10851 0.0
C77 C 0.0429 0.79761 0.10626 0.0
C78 C 0.06823 0.79749 0.07891 0.0
C79 C 0.04346 0.85148 0.08131 0.0
N80 N 0.06882 0.83156 0.06384 0.0
C81 C 0.98235 0.80257 0.19851 0.0
C82 C 0.05349 0.78466 0.21618 0.0
C83 C 0.02511 0.76767 0.23472 0.0
C84 C 0.98918 0.77681 0.22562 0.0
C85 C 0.04544 0.81048 0.18922 0.0
N86 N 1.01016 0.81959 0.18081 0.0
H87 H 0.95438 0.80905 0.19175 0.0
H88 H 0.06782 0.82204 0.17493 0.0
H89 H 0.03655 0.77491 0.12398 0.0
H90 H 0.03858 0.88074 0.07708 0.0
O91 O 0.95746 0.82405 0.12421 0.0
O92 O 0.97216 0.8783 0.1014 0.0
O93 O 0.03406 0.89057 0.15606 0.0
C94 C 0.9517 0.84928 0.10015 0.0
H95 H 0.95336 0.96574 0.19756 0.0
H96 H 0.08609 0.77451 0.07174 0.0
H97 H 0.08161 0.77854 0.22288 0.0
H98 H 0.96651 0.7646 0.23986 0.0
Co99 Co 0.16293 0.99795 0.15144 0.0
C100 C 0.1215 0.92961 0.16246 0.0
C101 C 0.09757 0.9751 0.19043 0.0
C102 C 0.07141 0.94901 0.18652 0.0
N103 N 0.12887 0.96386 0.17397 0.0
N104 N 0.08636 0.92089 0.16809 0.0
H105 H 0.14019 0.91252 0.1472 0.0
H106 H 0.09223 1.00212 0.20125 0.0
C107 C 0.13235 0.07025 0.17804 0.0
O108 O 0.1653 0.07697 0.18907 0.0
N109 N 0.19381 0.03409 0.12722 0.0
C110 C 0.22085 0.05409 0.14097 0.0
C111 C 0.22254 0.08729 0.12324 0.0
C112 C 0.18108 0.05519 0.09972 0.0
N113 N 0.1977 0.088 0.09726 0.0
C114 C 0.22407 0.9891 0.19687 0.0
C115 C 0.1956 0.01824 0.25905 0.0
C116 C 0.23305 1.0094 0.25708 0.0
C117 C 0.24646 0.99277 0.22609 0.0
C118 C 0.1736 1.01332 0.22888 0.0
N119 N 0.18881 1.00216 0.19709 0.0
H120 H 0.2366 0.97859 0.17286 0.0
H121 H 0.14497 0.02044 0.2308 0.0
H122 H 0.23506 0.04849 0.1653 0.0
H123 H 0.15611 0.04945 0.086 0.0
O124 O 0.19299 0.9575 0.13407 0.0
O125 O 0.14681 0.98098 0.10416 0.0
O126 O 0.12649 0.04044 0.16121 0.0
C127 C 0.17329 0.9563 0.10601 0.0
H128 H 0.043 0.95203 0.19411 0.0
H129 H 0.23881 0.11043 0.13081 0.0
H130 H 0.18381 0.03028 0.2829 0.0
H131 H 0.27493 0.98447 0.22364 0.0
Co132 Co 1.00777 0.87762 0.85341 0.0
C133 C 0.08071 0.90971 0.84078 0.0
C134 C 0.03824 0.94617 0.82291 0.0
C135 C 0.06918 0.96593 0.82554 0.0
N136 N 0.04464 0.91063 0.83308 0.0
N137 N 0.09561 0.94326 0.83758 0.0
H138 H 0.09497 0.88615 0.85223 0.0
H139 H 0.01252 0.95957 0.81819 0.0
C140 C 0.9555 0.9274 0.81341 0.0
O141 O 0.97009 0.91395 0.78412 0.0
N142 N 0.97069 0.849 0.87764 0.0
C143 C 0.96093 0.81368 0.87424 0.0
C144 C 0.93181 0.80742 0.897 0.0
C145 C 0.94938 0.86271 0.90439 0.0
N146 N 0.92508 0.83803 0.91641 0.0
C147 C 0.03265 0.84583 0.78863 0.0
C148 C 0.9695 0.81155 0.77006 0.0
C149 C 1.00229 0.80209 0.75234 0.0
C150 C 0.03362 0.82085 0.76079 0.0
C151 C 0.96937 0.83803 0.79713 0.0
N152 N 1.0012 0.85355 0.80739 0.0
H153 H 0.05834 0.85633 0.79692 0.0
H154 H 0.94414 0.8444 0.81114 0.0
H155 H 0.97339 0.7941 0.85607 0.0
H156 H 0.95027 0.89095 0.91329 0.0
O157 O 0.04381 0.84201 0.8675 0.0
O158 O 0.02675 0.88889 0.90122 0.0
O159 O 0.9681 0.91716 0.84394 0.0
C160 C 0.04708 0.85895 0.89709 0.0
H161 H 0.07104 0.99547 0.82203 0.0
H162 H 0.9168 0.78212 0.89925 0.0
H163 H 0.94467 0.79733 0.76424 0.0
H164 H 0.05953 0.81374 0.74821 0.0
Co165 Co 0.17512 0.02014 0.8685 0.0
C166 C 0.14079 0.09385 0.85716 0.0
C167 C 0.12518 0.0547 0.81867 0.0
C168 C 0.09734 0.08054 0.82204 0.0
N169 N 0.15135 0.06115 0.84277 0.0
N170 N 0.10741 0.10504 0.84626 0.0
H171 H 0.15477 0.10713 0.87843 0.0
H172 H 0.12415 0.03035 0.80246 0.0
C173 C 0.12814 0.95393 0.84993 0.0
O174 O 0.15276 0.929 0.85906 0.0
N175 N 0.19591 0.97908 0.89495 0.0
C176 C 0.22373 0.95636 0.88528 0.0
C177 C 0.22056 0.92389 0.90419 0.0
C178 C 0.17796 0.96138 0.92152 0.0
N179 N 0.19159 0.92704 0.92656 0.0
C180 C 0.23134 0.03539 0.82003 0.0
C181 C 0.22839 0.97553 0.77565 0.0
C182 C 0.25561 1.0016 0.76999 0.0
C183 C 0.25729 0.03106 0.79347 0.0
C184 C 0.20339 0.98009 0.80417 0.0
N185 N 0.20537 1.00975 0.82633 0.0
H186 H 0.23222 0.06028 0.83523 0.0
H187 H 0.18286 0.95983 0.80777 0.0
H188 H 0.2429 0.96134 0.86381 0.0
H189 H 0.15203 0.97093 0.93244 0.0
O190 O 0.20923 0.05107 0.891 0.0
O191 O 0.15436 0.04007 0.91306 0.0
O192 O 0.13401 0.98843 0.85256 0.0
C193 C 0.18545 0.05666 0.91593 0.0
H194 H 0.07166 0.08106 0.80816 0.0
H195 H 0.23689 0.89902 0.90016 0.0
H196 H 0.22579 0.95259 0.75776 0.0
H197 H 0.2779 0.05185 0.79056 0.0
Co198 Co 0.01729 0.17386 0.87562 0.0
C199 C 0.96621 0.11606 0.85863 0.0
C200 C 0.95907 0.16194 0.82241 0.0
C201 C 0.93239 0.1365 0.81646 0.0
N202 N 0.98046 0.14898 0.8487 0.0
N203 N 0.93652 0.10791 0.83963 0.0
H204 H 0.97614 0.09953 0.88077 0.0
H205 H 0.96137 0.18873 0.80979 0.0
C206 C 0.08751 0.13394 0.85917 0.0
O207 O 0.10452 0.16399 0.86744 0.0
N208 N 0.05346 0.19412 0.90711 0.0
C209 C 0.07198 0.22584 0.90648 0.0
C210 C 0.09646 0.22487 0.93372 0.0
C211 C 0.06671 0.17478 0.93559 0.0
N212 N 0.09348 0.1927 0.95182 0.0
C213 C 0.0271 0.23976 0.83583 0.0
C214 C 0.04287 0.20931 0.77058 0.0
C215 C 0.03627 0.24765 0.77279 0.0
C216 C 0.02935 0.26261 0.80619 0.0
C217 C 0.04129 0.18712 0.8016 0.0
N218 N 0.03307 0.20248 0.83388 0.0
H219 H 0.01844 0.2526 0.86028 0.0
H220 H 0.04402 0.15754 0.79918 0.0
H221 H 0.07044 0.24757 0.88693 0.0
H222 H 0.05885 0.14697 0.94241 0.0
O223 O 0.98254 0.21041 0.89012 0.0
O224 O 0.99148 0.15788 0.91923 0.0
O225 O 0.05269 0.13203 0.86293 0.0
C226 C 0.97444 0.18997 0.91678 0.0
H227 H 0.91027 0.13991 0.79783 0.0
H228 H 0.11641 0.24572 0.9387 0.0
H229 H 0.0478 0.19647 0.74505 0.0
H230 H 0.02284 0.29167 0.80929 0.0
Co231 Co 0.86637 0.03777 0.85392 0.0
C232 C 0.85149 0.10589 0.89461 0.0
C233 C 0.82641 0.05871 0.91812 0.0
C234 C 0.83017 0.08455 0.94405 0.0
N235 N 0.84162 0.07099 0.88731 0.0
N236 N 0.84631 0.11391 0.92926 0.0
H237 H 0.86631 0.1235 0.87642 0.0
H238 H 0.81651 0.03133 0.92304 0.0
C239 C 0.84329 0.96328 0.87996 0.0
O240 O 0.83689 0.95627 0.8464 0.0
N241 N 0.89295 1.00316 0.82363 0.0
C242 C 0.89454 0.99953 0.78797 0.0
C243 C 0.91764 0.97029 0.77989 0.0
C244 C 0.91594 0.97664 0.83653 0.0
N245 N 0.93088 0.95587 0.81047 0.0
C246 C 0.81934 0.04606 0.79429 0.0
C247 C 0.75863 1.01057 0.82013 0.0
C248 C 0.75999 0.02096 0.78401 0.0
C249 C 0.79012 0.04061 0.77197 0.0
C250 C 0.78884 0.01717 0.84206 0.0
N251 N 0.82023 0.03172 0.82805 0.0
H252 H 0.8418 0.0612 0.78342 0.0
H253 H 0.78724 1.00921 0.86976 0.0
H254 H 0.88089 0.01687 0.7687 0.0
H255 H 0.92174 0.97283 0.86451 0.0
O256 O 0.88349 0.07895 0.82549 0.0
O257 O 0.91426 0.05543 0.87038 0.0
O258 O 0.85672 0.9944 0.8882 0.0
C259 C 0.91236 0.07994 0.84458 0.0
H260 H 0.82306 0.08136 0.97197 0.0
H261 H 0.9246 0.96076 0.75341 0.0
H262 H 0.73526 0.99637 0.83094 0.0
H263 H 0.79171 0.05078 0.74478 0.0
Co264 Co 0.16432 0.16197 0.01379 0.0
C265 C 0.16831 0.10435 0.95849 0.0
C266 C 0.22152 0.12209 0.97256 0.0
C267 C 0.22547 0.09372 0.94914 0.0
N268 N 0.18566 0.13044 0.97714 0.0
N269 N 0.19212 0.08218 0.94086 0.0
H270 H 0.13907 0.10167 0.95738 0.0
H271 H 0.24375 0.1341 0.98659 0.0
C272 C 0.18474 0.11915 0.08089 0.0
O273 O 0.18258 0.14967 0.09915 0.0
N274 N 0.14058 0.18944 0.05185 0.0
C275 C 0.15096 0.21955 0.06937 0.0
C276 C 0.12934 0.22313 0.09955 0.0
C277 C 0.11135 0.17665 0.07028 0.0
N278 N 0.10445 0.1962 0.09996 0.0
C279 C 0.22199 0.2033 0.98552 0.0
C280 C 0.26049 0.22069 0.04493 0.0
C281 C 0.26919 0.23793 0.01236 0.0
C282 C 0.25036 0.22786 0.98238 0.0
C283 C 0.23201 0.19506 0.04685 0.0
N284 N 0.21167 0.18765 0.0175 0.0
H285 H 0.20777 0.19727 0.9614 0.0
H286 H 0.22576 0.18373 0.07238 0.0
H287 H 0.17353 0.23673 0.06196 0.0
H288 H 0.098 0.15124 0.06411 0.0
O289 O 0.14692 0.19838 0.98069 0.0
O290 O 0.11489 0.15022 0.9958 0.0
O291 O 0.17636 0.11911 0.04788 0.0
C292 C 0.11775 0.18043 0.97663 0.0
H293 H 0.25103 0.08147 0.93991 0.0
H294 H 0.13218 0.24359 0.12002 0.0
H295 H 0.27428 0.2283 0.06896 0.0
H296 H 0.25604 0.24066 0.95676 0.0
Co297 Co 0.14134 0.86048 0.00404 0.0
C298 C 0.15675 0.91791 0.05548 0.0
C299 C 0.19125 0.87016 0.06517 0.0
C300 C 0.19879 0.89684 0.0897 0.0
N301 N 0.16524 0.88358 0.04341 0.0
N302 N 0.1768 0.92668 0.08391 0.0
H303 H 0.13557 0.93555 0.04428 0.0
H304 H 0.20331 0.84275 0.0639 0.0
C305 C 0.17471 0.89865 0.94318 0.0
O306 O 0.17949 0.86536 0.93034 0.0
N307 N 0.11387 0.84243 0.96405 0.0
C308 C 0.11873 0.81325 0.94242 0.0
C309 C 0.09339 0.81561 0.91595 0.0
C310 C 0.08546 0.86211 0.94996 0.0
N311 N 0.0726 0.84637 0.92054 0.0
C312 C 0.1825 0.79353 0.99528 0.0
C313 C 0.25063 0.82264 0.98664 0.0
C314 C 0.24748 0.784 0.98879 0.0
C315 C 0.21263 0.76981 0.99292 0.0
C316 C 0.21955 0.8456 0.98989 0.0
N317 N 0.18557 0.831 0.99282 0.0
H318 H 0.15641 0.78114 0.99993 0.0
H319 H 0.22296 0.87507 0.991 0.0
H320 H 0.14007 0.79256 0.94354 0.0
H321 H 0.07576 0.88845 0.95999 0.0
O322 O 0.12251 0.82304 0.03446 0.0
O323 O 0.09426 0.87654 0.02564 0.0
O324 O 0.15673 0.90335 0.9724 0.0
C325 C 0.09471 0.84382 0.04087 0.0
H326 H 0.2178 0.89369 0.11138 0.0
H327 H 0.09144 0.79671 0.89398 0.0
H328 H 0.27694 0.83528 0.98365 0.0
H329 H 0.20846 0.74054 0.99628 0.0
Co330 Co 0.87602 0.17878 0.01638 0.0
C331 C 0.86086 0.11494 0.05616 0.0
C332 C 0.82161 0.15743 0.07121 0.0
C333 C 0.81617 0.12647 0.09191 0.0
N334 N 0.84957 0.14968 0.04901 0.0
N335 N 0.8415 0.1004 0.08267 0.0
H336 H 0.88402 0.10136 0.04337 0.0
H337 H 0.80745 0.1838 0.07319 0.0
C338 C 0.85926 0.14315 0.94685 0.0
O339 O 0.86479 0.1743 0.92973 0.0
N340 N 0.90633 0.20317 0.98248 0.0
C341 C 0.90433 0.2357 0.96497 0.0
C342 C 0.93097 0.23522 0.93882 0.0
C343 C 0.93415 0.18388 0.96739 0.0
N344 N 0.94907 0.20238 0.94034 0.0
C345 C 0.83083 0.24313 0.01411 0.0
C346 C 0.7674 0.21058 0.99301 0.0
C347 C 0.76617 0.24725 0.00427 0.0
C348 C 0.79837 0.26361 0.01439 0.0
C349 C 0.80063 0.19065 0.9937 0.0
N350 N 0.832 0.20706 0.00402 0.0
H351 H 0.85495 0.25624 0.02341 0.0
H352 H 0.80045 0.16157 0.98804 0.0
H353 H 0.88416 0.25732 0.96894 0.0
H354 H 0.9412 0.15557 0.97421 0.0
O355 O 0.89064 0.21049 0.05379 0.0
O356 O 0.92089 0.15958 0.03883 0.0
O357 O 0.86513 0.14017 0.98024 0.0
C358 C 0.91733 0.18778 0.05998 0.0
H359 H 0.79668 0.12419 0.11367 0.0
H360 H 0.93551 0.25671 0.91912 0.0
H361 H 0.74278 0.19716 0.98506 0.0
H362 H 0.79839 0.29205 0.02289 0.0
Co363 Co 0.8537 0.8811 0.9982 0.0
C364 C 0.91272 0.86771 0.05018 0.0
C365 C 0.86527 0.83646 0.0636 0.0
C366 C 0.89202 0.82777 0.0876 0.0
N367 N 0.87873 0.86012 0.03911 0.0
N368 N 0.92154 0.8479 0.0796 0.0
H369 H 0.93048 0.88714 0.03698 0.0
H370 H 0.83776 0.82638 0.06426 0.0
C371 C 0.89575 0.844 0.93845 0.0
O372 O 0.8658 0.82652 0.9317 0.0
N373 N 0.83123 0.90413 0.95613 0.0
C374 C 0.81232 0.88734 0.93049 0.0
C375 C 0.81375 0.90795 0.89967 0.0
C376 C 0.84351 0.93539 0.93996 0.0
N377 N 0.83356 0.93802 0.90542 0.0
C378 C 0.7914 0.83666 0.99579 0.0
C379 C 0.82597 0.76862 0.00354 0.0
C380 C 0.788 0.7713 0.00714 0.0
C381 C 0.77077 0.80566 1.00261 0.0
C382 C 0.84586 0.80063 0.99667 0.0
N383 N 0.82853 0.83435 0.99267 0.0
H384 H 0.77737 0.86308 0.99394 0.0
H385 H 0.87532 0.79866 0.99649 0.0
H386 H 0.80129 0.86011 0.93207 0.0
H387 H 0.86249 0.95377 0.952 0.0
O388 O 0.81649 0.90141 0.02947 0.0
O389 O 0.86714 0.9301 0.01604 0.0
O390 O 0.89666 0.86657 0.96481 0.0
C391 C 0.83669 0.92925 0.03469 0.0
H392 H 0.88911 0.80977 0.1106 0.0
H393 H 0.80249 0.90035 0.87436 0.0
H394 H 0.84007 0.74225 0.00637 0.0
H395 H 0.74136 0.80856 0.00457 0.0
Co396 Co 0.01409 0.65672 0.6668 0.0
C397 C 0.96822 0.67043 0.60531 0.0
C398 C 0.95073 0.70477 0.64901 0.0
C399 C 0.92876 0.71223 0.62046 0.0
N400 N 0.97605 0.67941 0.63909 0.0
N401 N 0.93948 0.69022 0.59333 0.0
H402 H 0.98293 0.64956 0.59017 0.0
H403 H 0.94792 0.71648 0.67525 0.0
C404 C 0.07956 0.68988 0.63067 0.0
O405 O 0.08745 0.70334 0.66182 0.0
N406 N 0.05392 0.63167 0.69187 0.0
C407 C 0.07716 0.64598 0.71538 0.0
C408 C 0.10867 0.62493 0.71589 0.0
C409 C 0.07191 0.6014 0.67894 0.0
N410 N 0.10557 0.59711 0.69279 0.0
C411 C 1.01087 0.7021 0.728 0.0
C412 C 0.0152 0.76985 0.69424 0.0
C413 C 1.00606 0.76844 0.73056 0.0
C414 C 1.00421 0.73409 0.7474 0.0
C415 C 0.02075 0.7369 0.67541 0.0
N416 N 0.01937 0.70329 0.69244 0.0
H417 H 1.00855 0.67597 0.74177 0.0
H418 H 0.02444 0.73842 0.64686 0.0
H419 H 0.07403 0.67206 0.72854 0.0
H420 H 0.0623 0.58542 0.65695 0.0
O421 O 0.9783 0.63783 0.69989 0.0
O422 O 0.99514 0.60877 0.65115 0.0
O423 O 0.05123 0.66986 0.62741 0.0
C424 C 0.97333 0.61065 0.67899 0.0
H425 H 0.90534 0.73093 0.62034 0.0
H426 H 0.1329 0.63092 0.73074 0.0
H427 H 0.01701 0.79609 0.6804 0.0
H428 H 0.99792 0.73196 0.77559 0.0
Co429 Co 0.86202 0.52564 0.64453 0.0
C430 C 0.92635 0.56828 0.66036 0.0
C431 C 0.89046 0.57 0.70593 0.0
C432 C 0.92086 0.59034 0.71273 0.0
N433 N 0.89319 0.557 0.67249 0.0
N434 N 0.94343 0.58927 0.68407 0.0
H435 H 0.93729 0.56228 0.63414 0.0
H436 H 0.86858 0.56528 0.72467 0.0
C437 C 0.8993 0.45005 0.65255 0.0
O438 O 0.87313 0.43397 0.63554 0.0
N439 N 0.83619 0.49426 0.61263 0.0
C440 C 0.80303 0.47938 0.61527 0.0
C441 C 0.79938 0.45551 0.58721 0.0
C442 C 0.8514 0.48085 0.58215 0.0
N443 N 0.83005 0.4561 0.56677 0.0
C444 C 0.81022 0.53996 0.69932 0.0
C445 C 0.8004 0.46985 0.72606 0.0
C446 C 0.77871 0.499 0.73915 0.0
C447 C 0.78394 0.53423 0.72545 0.0
C448 C 0.8266 0.47676 0.69921 0.0
N449 N 0.83162 0.51176 0.6861 0.0
H450 H 0.81383 0.56803 0.69059 0.0
H451 H 0.84174 0.45362 0.68917 0.0
H452 H 0.78361 0.48412 0.63669 0.0
H453 H 0.87912 0.48616 0.57366 0.0
O454 O 0.83016 0.56586 0.63169 0.0
O455 O 0.88025 0.55187 0.60158 0.0
O456 O 0.89973 0.48523 0.65526 0.0
C457 C 0.85155 0.57362 0.60584 0.0
H458 H 0.92572 0.60531 0.73692 0.0
H459 H 0.77658 0.43762 0.58323 0.0
H460 H 0.7974 0.44219 0.73666 0.0
H461 H 0.7683 0.55762 0.73562 0.0
Co462 Co 1.00025 0.35311 0.64482 0.0
C463 C 0.9322 0.39279 0.66195 0.0
C464 C 0.97553 0.40942 0.69455 0.0
C465 C 0.95198 0.43916 0.68999 0.0
N466 N 0.965 0.38098 0.67433 0.0
N467 N 0.92538 0.42868 0.66842 0.0
H468 H 0.91511 0.37689 0.64516 0.0
H469 H 1.00101 0.4104 0.70838 0.0
C470 C 0.07291 0.39137 0.65905 0.0
O471 O 0.09243 0.36177 0.6515 0.0
N472 N 0.0355 0.32835 0.61421 0.0
C473 C 0.05767 0.29903 0.6211 0.0
C474 C 0.0878 0.30121 0.59918 0.0
C475 C 0.05152 0.34641 0.58681 0.0
N476 N 0.08384 0.33098 0.5777 0.0
C477 C 1.00094 0.28605 0.68576 0.0
C478 C 0.04368 0.30847 0.74082 0.0
C479 C 0.03158 0.27198 0.74094 0.0
C480 C 1.01007 0.26093 0.71278 0.0
C481 C 0.03398 0.3328 0.71319 0.0
N482 N 0.01343 0.32137 0.68551 0.0
H483 H 0.98468 0.27627 0.66432 0.0
H484 H 0.04262 0.36083 0.71487 0.0
H485 H 0.05552 0.2803 0.64338 0.0
H486 H 0.04322 0.37399 0.57853 0.0
O487 O 0.96222 0.32311 0.6267 0.0
O488 O 0.97845 0.37565 0.60179 0.0
O489 O 0.03801 0.3915 0.65675 0.0
C490 C 0.95729 0.3472 0.60149 0.0
H491 H 0.95533 0.46673 0.70002 0.0
H492 H 0.1126 0.28468 0.60167 0.0
H493 H 0.05984 0.31848 0.76245 0.0
H494 H 0.9992 0.23344 0.71219 0.0
Co495 Co 0.16391 0.50193 0.65493 0.0
C496 C 0.12473 0.43149 0.66547 0.0
C497 C 0.09923 0.4767 0.69278 0.0
C498 C 0.07379 0.45009 0.6885 0.0
N499 N 0.13106 0.46615 0.67695 0.0
N500 N 0.08972 0.42175 0.67118 0.0
H501 H 0.14381 0.41525 0.64969 0.0
H502 H 0.09309 0.50349 0.70373 0.0
C503 C 0.13299 0.57302 0.68341 0.0
O504 O 0.16616 0.57964 0.69385 0.0
N505 N 0.193 0.53939 0.6305 0.0
C506 C 0.21976 0.5604 0.64319 0.0
C507 C 0.22068 0.59283 0.62398 0.0
C508 C 0.17958 0.55904 0.60233 0.0
N509 N 0.19563 0.59194 0.59814 0.0
C510 C 0.22583 0.49504 0.6992 0.0
C511 C 0.19648 0.51965 0.76288 0.0
C512 C 0.23418 0.5123 0.76037 0.0
C513 C 0.248 0.49764 0.72859 0.0
C514 C 0.17455 0.51521 0.73258 0.0
N515 N 0.19004 0.50626 0.70026 0.0
H516 H 0.2387 0.48642 0.67466 0.0
H517 H 0.14566 0.52099 0.73488 0.0
H518 H 0.23423 0.5559 0.66761 0.0
H519 H 0.15461 0.55225 0.58912 0.0
O520 O 0.1957 0.46341 0.63671 0.0
O521 O 0.14796 0.48539 0.60781 0.0
O522 O 0.1268 0.54347 0.66617 0.0
C523 C 0.1764 0.46295 0.60845 0.0
H524 H 0.04538 0.4523 0.69625 0.0
H525 H 0.2365 0.61664 0.63047 0.0
H526 H 0.1844 0.53011 0.78729 0.0
H527 H 0.27666 0.49028 0.72566 0.0
Co528 Co 0.01107 0.37597 0.35683 0.0
C529 C 0.08462 0.40758 0.34468 0.0
C530 C 0.04294 0.43536 0.31475 0.0
C531 C 0.07199 0.45825 0.31694 0.0
N532 N 0.04981 0.404 0.33352 0.0
N533 N 0.09803 0.44093 0.33602 0.0
H534 H 0.09848 0.3883 0.36225 0.0
H535 H 0.01724 0.4432 0.30295 0.0
C536 C 0.94706 0.41492 0.32202 0.0
O537 O 0.93965 0.38383 0.30648 0.0
N538 N 0.97062 0.35093 0.38115 0.0
C539 C 0.94671 0.3282 0.36605 0.0
C540 C 0.91695 0.32446 0.38779 0.0
C541 C 0.954 0.36108 0.41237 0.0
N542 N 0.92098 0.34538 0.41676 0.0
C543 C 0.01392 0.30925 0.32104 0.0
C544 C 1.00758 0.33139 0.25111 0.0
C545 C 0.01379 0.29362 0.25899 0.0
C546 C 0.01938 0.2839 0.29458 0.0
C547 C 1.00569 0.35732 0.27916 0.0
N548 N 1.00669 0.34566 0.31401 0.0
H549 H 0.0151 0.29868 0.3479 0.0
H550 H 1.00274 0.3863 0.27274 0.0
H551 H 0.94805 0.31772 0.33937 0.0
H552 H 0.96404 0.38218 0.42959 0.0
O553 O 0.04546 0.34217 0.37744 0.0
O554 O 0.02859 0.39404 0.4032 0.0
O555 O 0.9741 0.41639 0.34317 0.0
C556 C 0.04804 0.36334 0.40416 0.0
H557 H 0.07298 0.4862 0.30678 0.0
H558 H 0.89278 0.30939 0.38135 0.0
H559 H 1.00427 0.34083 0.22392 0.0
H560 H 0.02738 0.25628 0.30284 0.0
Co561 Co 0.17091 0.52575 0.36373 0.0
C562 C 0.14174 0.59781 0.34277 0.0
C563 C 0.12164 0.55489 0.31096 0.0
C564 C 0.09422 0.58088 0.31521 0.0
N565 N 0.15031 0.56329 0.3315 0.0
N566 N 0.10696 0.60753 0.33569 0.0
H567 H 0.1582 0.61317 0.36076 0.0
H568 H 0.1184 0.52909 0.29761 0.0
C569 C 0.12877 0.45623 0.34849 0.0
O570 O 0.15561 0.43495 0.35997 0.0
N571 N 0.18825 0.48903 0.39722 0.0
C572 C 0.22062 0.47093 0.39895 0.0
C573 C 0.21882 0.44556 0.426 0.0
C574 C 0.16766 0.4753 0.42424 0.0
N575 N 0.18551 0.44804 0.44156 0.0
C576 C 0.23994 0.51759 0.32896 0.0
C577 C 0.21775 0.48522 0.26712 0.0
C578 C 0.25421 0.49535 0.27032 0.0
C579 C 0.26527 0.51073 0.30203 0.0
C580 C 0.19306 0.49178 0.29544 0.0
N581 N 0.2042 0.50823 0.32596 0.0
H582 H 0.24967 0.53085 0.35236 0.0
H583 H 0.16489 0.48529 0.29173 0.0
H584 H 0.24368 0.47411 0.38139 0.0
H585 H 0.13929 0.48281 0.42887 0.0
O586 O 0.20348 0.55989 0.38414 0.0
O587 O 0.14731 0.55127 0.40419 0.0
O588 O 0.13093 0.49142 0.34923 0.0
C589 C 0.17865 0.5672 0.40778 0.0
H590 H 0.0667 0.57957 0.30529 0.0
H591 H 0.24001 0.42549 0.43269 0.0
H592 H 0.20802 0.47442 0.24232 0.0
H593 H 0.29302 0.51975 0.30509 0.0
Co594 Co 0.01826 0.67303 0.37142 0.0
C595 C 0.96902 0.61396 0.35537 0.0
C596 C 0.95934 0.65976 0.31949 0.0
C597 C 0.9339 0.63309 0.31367 0.0
N598 N 0.98147 0.6476 0.34549 0.0
N599 N 0.93964 0.60457 0.33665 0.0
H600 H 0.97996 0.59781 0.37731 0.0
H601 H 0.96038 0.68669 0.30694 0.0
C602 C 0.08762 0.6354 0.35106 0.0
O603 O 0.10426 0.66591 0.3586 0.0
N604 N 0.05473 0.69357 0.40218 0.0
C605 C 0.07204 0.72594 0.40218 0.0
C606 C 0.09441 0.72635 0.4312 0.0
C607 C 0.06669 0.67511 0.43169 0.0
N608 N 0.09099 0.69447 0.44979 0.0
C609 C 0.02616 0.73876 0.33034 0.0
C610 C 0.03979 0.70678 0.26517 0.0
C611 C 0.03208 0.74477 0.26678 0.0
C612 C 0.02624 0.76074 0.29987 0.0
C613 C 0.03981 0.68547 0.29674 0.0
N614 N 0.0326 0.70151 0.32899 0.0
H615 H 0.01834 0.75197 0.35488 0.0
H616 H 0.04262 0.65588 0.29477 0.0
H617 H 0.07044 0.74742 0.38232 0.0
H618 H 0.05912 0.64725 0.43862 0.0
O619 O 0.98365 0.70905 0.38698 0.0
O620 O 0.99407 0.65641 0.41563 0.0
O621 O 0.05348 0.63201 0.35784 0.0
C622 C 0.97715 0.68857 0.41414 0.0
H623 H 0.91139 0.63561 0.29539 0.0
H624 H 0.11293 0.74813 0.43742 0.0
H625 H 0.0436 0.69342 0.23973 0.0
H626 H 0.01955 0.78988 0.30202 0.0
Co627 Co 0.87004 0.53515 0.35434 0.0
C628 C 0.85916 0.60455 0.39512 0.0
C629 C 0.83205 0.55877 0.41904 0.0
C630 C 0.83634 0.58495 0.4446 0.0
N631 N 0.84795 0.56996 0.38817 0.0
N632 N 0.85369 0.61349 0.42958 0.0
H633 H 0.87458 0.62141 0.37677 0.0
H634 H 0.82098 0.53192 0.42421 0.0
C635 C 0.8444 0.4628 0.38438 0.0
O636 O 0.83464 0.45503 0.35188 0.0
N637 N 0.89388 0.49846 0.32356 0.0
C638 C 0.88127 0.48141 0.2945 0.0
C639 C 0.90053 0.44882 0.28967 0.0
C640 C 0.92164 0.47617 0.33506 0.0
N641 N 0.92566 0.44539 0.31534 0.0
C642 C 0.82148 0.54595 0.2967 0.0
C643 C 0.75999 0.51262 0.3235 0.0
C644 C 0.761 0.52359 0.28749 0.0
C645 C 0.79133 0.54276 0.27531 0.0
C646 C 0.79089 0.51794 0.34495 0.0
N647 N 0.82261 0.53106 0.33028 0.0
H648 H 0.84511 0.55778 0.2843 0.0
H649 H 0.78959 0.50977 0.3726 0.0
H650 H 0.85762 0.48934 0.27944 0.0
H651 H 0.93566 0.48031 0.35981 0.0
O652 O 0.88689 0.57499 0.32441 0.0
O653 O 0.91913 0.55198 0.3684 0.0
O654 O 0.86076 0.49303 0.39019 0.0
C655 C 0.91637 0.57609 0.34232 0.0
H656 H 0.82853 0.58259 0.47241 0.0
H657 H 0.89516 0.42833 0.2698 0.0
H658 H 0.73645 0.49886 0.3345 0.0
H659 H 0.79288 0.55314 0.24818 0.0
Co660 Co 0.15942 0.66446 0.51426 0.0
C661 C 0.1623 0.61162 0.45389 0.0
C662 C 0.21576 0.6242 0.47202 0.0
C663 C 0.21928 0.59952 0.44488 0.0
N664 N 0.18016 0.63363 0.47654 0.0
N665 N 0.18571 0.59119 0.43401 0.0
H666 H 0.13302 0.61045 0.45161 0.0
H667 H 0.23792 0.6335 0.48803 0.0
C668 C 0.18138 0.62228 0.58128 0.0
O669 O 0.1784 0.65298 0.59916 0.0
N670 N 0.1361 0.69157 0.5529 0.0
C671 C 0.14639 0.72219 0.56962 0.0
C672 C 0.1258 0.72572 0.60048 0.0
C673 C 0.10782 0.67836 0.57252 0.0
N674 N 0.10163 0.69814 0.60226 0.0
C675 C 0.21707 0.70447 0.48517 0.0
C676 C 0.25642 0.72237 0.54386 0.0
C677 C 0.26499 0.73862 0.51084 0.0
C678 C 0.2458 0.72826 0.48124 0.0
C679 C 0.22746 0.69747 0.54661 0.0
N680 N 0.20684 0.68969 0.51753 0.0
H681 H 0.20241 0.69847 0.4613 0.0
H682 H 0.22116 0.68708 0.57247 0.0
H683 H 0.16835 0.73973 0.56119 0.0
H684 H 0.09474 0.65263 0.56702 0.0
O685 O 0.14207 0.70159 0.48183 0.0
O686 O 0.10998 0.65324 0.49598 0.0
O687 O 0.17234 0.62145 0.54833 0.0
C688 C 0.11333 0.68341 0.47674 0.0
H689 H 0.24455 0.58706 0.43516 0.0
H690 H 0.12893 0.74661 0.62049 0.0
H691 H 0.27059 0.73035 0.56757 0.0
H692 H 0.25149 0.74035 0.4553 0.0
Co693 Co 0.1535 0.37532 0.49985 0.0
C694 C 0.0965 0.37619 0.44557 0.0
C695 C 0.11426 0.32085 0.45786 0.0
C696 C 0.08478 0.31956 0.43606 0.0
N697 N 0.12325 0.35638 0.46245 0.0
N698 N 0.07309 0.35427 0.42911 0.0
H699 H 0.09416 0.40592 0.4448 0.0
H700 H 0.12633 0.29717 0.47117 0.0
C701 C 0.11185 0.35049 0.56437 0.0
O702 O 0.13918 0.35756 0.58512 0.0
N703 N 0.17836 0.3981 0.53843 0.0
C704 C 0.2117 0.39261 0.55223 0.0
C705 C 0.21522 0.41672 0.58014 0.0
C706 C 0.16299 0.42658 0.5566 0.0
N707 N 0.18457 0.43802 0.58261 0.0
C708 C 0.19429 0.31425 0.47389 0.0
C709 C 0.21665 0.28196 0.53659 0.0
C710 C 0.23219 0.26972 0.50453 0.0
C711 C 0.21988 0.28536 0.47288 0.0
C712 C 0.19029 0.31054 0.53642 0.0
N713 N 0.17947 0.32714 0.50526 0.0
H714 H 0.18765 0.32761 0.44892 0.0
H715 H 0.1822 0.32083 0.56169 0.0
H716 H 0.23181 0.37256 0.54304 0.0
H717 H 0.13567 0.43731 0.55198 0.0
O718 O 0.19013 0.3921 0.46816 0.0
O719 O 0.14148 0.42584 0.48242 0.0
O720 O 0.11134 0.36169 0.53209 0.0
C721 C 0.17224 0.4225 0.46449 0.0
H722 H 0.07198 0.29482 0.42694 0.0
H723 H 0.23855 0.4184 0.59734 0.0
H724 H 0.2266 0.27122 0.56174 0.0
H725 H 0.23208 0.27738 0.44763 0.0
Co726 Co 0.88177 0.67979 0.51704 0.0
C727 C 0.86385 0.61715 0.55848 0.0
C728 C 0.8254 0.66102 0.57132 0.0
C729 C 0.81986 0.63147 0.59407 0.0
N730 N 0.85301 0.65163 0.54922 0.0
N731 N 0.84479 0.60454 0.58629 0.0
H732 H 0.88681 0.60254 0.54642 0.0
H733 H 0.81192 0.6878 0.5722 0.0
C734 C 0.86663 0.64304 0.44687 0.0
O735 O 0.87378 0.67341 0.42907 0.0
N736 N 0.9139 0.70332 0.48398 0.0
C737 C 0.91245 0.73614 0.46686 0.0
C738 C 0.93748 0.735 0.43945 0.0
C739 C 0.94043 0.6833 0.4676 0.0
N740 N 0.95424 0.7015 0.43967 0.0
C741 C 0.84041 0.74665 0.51378 0.0
C742 C 0.77956 0.7217 0.48048 0.0
C743 C 0.78011 0.75881 0.49128 0.0
C744 C 0.81128 0.77084 0.5081 0.0
C745 C 0.80946 0.69791 0.4873 0.0
N746 N 0.83993 0.71077 0.50306 0.0
H747 H 0.86372 0.75751 0.52687 0.0
H748 H 0.80737 0.66914 0.48092 0.0
H749 H 0.89351 0.75859 0.47173 0.0
H750 H 0.9466 0.65463 0.47376 0.0
O751 O 0.89606 0.71078 0.55486 0.0
O752 O 0.9253 0.65903 0.5411 0.0
O753 O 0.87058 0.6412 0.48066 0.0
C754 C 0.92147 0.6872 0.56232 0.0
H755 H 0.80069 0.6309 0.61623 0.0
H756 H 0.9416 0.75649 0.41966 0.0
H757 H 0.756 0.71075 0.46758 0.0
H758 H 0.81299 0.79852 0.51828 0.0
Co759 Co 0.85578 0.38339 0.50414 0.0
C760 C 0.91652 0.36781 0.55362 0.0
C761 C 0.86992 0.3351 0.56662 0.0
C762 C 0.89773 0.3251 0.58903 0.0
N763 N 0.88201 0.36093 0.54357 0.0
N764 N 0.92679 0.34604 0.58131 0.0
H765 H 0.93353 0.38836 0.54109 0.0
H766 H 0.84268 0.32436 0.56738 0.0
C767 C 0.89353 0.35222 0.44086 0.0
O768 O 0.86093 0.34062 0.4334 0.0
N769 N 0.83213 0.408 0.46342 0.0
C770 C 0.80672 0.39506 0.44128 0.0
C771 C 0.80803 0.41437 0.40963 0.0
C772 C 0.84743 0.4363 0.44484 0.0
N773 N 0.83367 0.44019 0.41172 0.0
C774 C 0.79367 0.33763 0.50482 0.0
C775 C 0.82926 0.26985 0.50232 0.0
C776 C 0.7917 0.27132 0.50979 0.0
C777 C 0.77399 0.30568 0.51048 0.0
C778 C 0.84828 0.30284 0.49697 0.0
N779 N 0.83039 0.33649 0.49787 0.0
H780 H 0.77907 0.36369 0.5067 0.0
H781 H 0.87761 0.30139 0.49399 0.0
H782 H 0.79087 0.37077 0.44533 0.0
H783 H 0.87088 0.45099 0.45388 0.0
O784 O 0.81951 0.40302 0.53664 0.0
O785 O 0.86971 0.43209 0.52222 0.0
O786 O 0.89814 0.36984 0.46993 0.0
C787 C 0.83942 0.43124 0.54106 0.0
H788 H 0.89588 0.30548 0.61088 0.0
H789 H 0.79215 0.40881 0.38628 0.0
H790 H 0.84379 0.24359 0.50113 0.0
H791 H 0.74486 0.30787 0.51544 0.0
Co792 Co 0.51396 0.15566 0.66056 0.0
C793 C 0.46664 0.17145 0.60023 0.0
C794 C 0.45292 0.20731 0.64385 0.0
C795 C 0.42939 0.21483 0.61648 0.0
N796 N 0.47671 0.18068 0.63333 0.0
N797 N 0.43769 0.19182 0.58945 0.0
H798 H 0.47941 0.14945 0.58498 0.0
H799 H 0.45164 0.21941 0.66999 0.0
C800 C 0.58132 0.18776 0.6274 0.0
O801 O 0.58924 0.19905 0.65935 0.0
N802 N 0.55292 0.12875 0.68558 0.0
C803 C 0.57515 0.14165 0.71082 0.0
C804 C 0.60668 0.12069 0.71151 0.0
C805 C 0.57147 0.09911 0.67199 0.0
N806 N 0.60457 0.09409 0.68704 0.0
C807 C 0.50937 0.19747 0.72285 0.0
C808 C 0.52347 0.26698 0.6962 0.0
C809 C 0.51361 0.26303 0.73236 0.0
C810 C 0.50435 0.22767 0.74438 0.0
C811 C 0.52507 0.2356 0.67416 0.0
N812 N 0.52016 0.20086 0.68818 0.0
H813 H 0.50435 0.17084 0.73466 0.0
H814 H 0.52985 0.23935 0.64593 0.0
H815 H 0.57149 0.16686 0.72533 0.0
H816 H 0.56276 0.08422 0.64892 0.0
O817 O 0.47711 0.1362 0.69225 0.0
O818 O 0.49395 0.10847 0.64304 0.0
O819 O 0.55214 0.16939 0.6225 0.0
C820 C 0.47201 0.10966 0.67082 0.0
H821 H 0.40641 0.23406 0.61734 0.0
H822 H 0.63018 0.12579 0.72774 0.0
H823 H 0.52958 0.29375 0.68498 0.0
H824 H 0.49345 0.22258 0.77081 0.0
Co825 Co 0.36067 0.022 0.63973 0.0
C826 C 0.42434 0.06747 0.65259 0.0
C827 C 0.39155 0.06589 0.70029 0.0
C828 C 0.42173 0.08686 0.70607 0.0
N829 N 0.39216 0.05477 0.66615 0.0
N830 N 0.44248 0.08774 0.67614 0.0
H831 H 0.43405 0.06265 0.62572 0.0
H832 H 0.37159 0.05895 0.72038 0.0
C833 C 0.3969 0.94752 0.65112 0.0
O834 O 0.37054 0.93115 0.63465 0.0
N835 N 0.33499 0.98939 0.60882 0.0
C836 C 0.3015 0.97521 0.61099 0.0
C837 C 0.29735 0.95234 0.58215 0.0
C838 C 0.34999 0.9764 0.57804 0.0
N839 N 0.32799 0.95299 0.56163 0.0
C840 C 0.31139 0.03935 0.69484 0.0
C841 C 0.29933 0.97125 0.72515 0.0
C842 C 0.27982 1.00217 0.738 0.0
C843 C 0.28546 0.03608 0.72138 0.0
C844 C 0.32458 0.97553 0.69677 0.0
N845 N 0.331 1.00969 0.6822 0.0
H846 H 0.31626 0.06693 0.68533 0.0
H847 H 0.33801 0.95121 0.68697 0.0
H848 H 0.28199 0.98016 0.63229 0.0
H849 H 0.3777 0.98169 0.5695 0.0
O850 O 0.32768 0.06057 0.62659 0.0
O851 O 0.3777 0.0477 0.596 0.0
O852 O 0.3986 0.98269 0.65138 0.0
C853 C 0.3486 0.06882 0.60075 0.0
H854 H 0.42802 0.10039 0.73072 0.0
H855 H 0.27402 0.93538 0.57743 0.0
H856 H 0.29551 0.94431 0.73711 0.0
H857 H 0.27055 0.06075 0.72952 0.0
Co858 Co 0.49565 0.8536 0.64237 0.0
C859 C 0.4283 0.89037 0.66355 0.0
C860 C 0.47272 0.90797 0.69413 0.0
C861 C 0.44939 0.93775 0.68895 0.0
N862 N 0.46161 0.87916 0.67476 0.0
N863 N 0.42224 0.92658 0.66838 0.0
H864 H 0.4107 0.87383 0.64784 0.0
H865 H 0.49859 0.90906 0.70736 0.0
C866 C 0.5689 0.89223 0.65348 0.0
O867 O 0.58806 0.86732 0.6359 0.0
N868 N 0.52873 0.83194 0.6085 0.0
C869 C 0.54291 0.79761 0.60625 0.0
C870 C 0.56824 0.79749 0.57891 0.0
C871 C 0.54346 0.85148 0.58131 0.0
N872 N 0.56883 0.83156 0.56384 0.0
C873 C 0.48236 0.80256 0.69851 0.0
C874 C 0.5535 0.78466 0.71618 0.0
C875 C 0.52511 0.76766 0.73472 0.0
C876 C 0.48919 0.7768 0.72562 0.0
C877 C 0.54545 0.81048 0.68921 0.0
N878 N 0.51017 0.81958 0.68081 0.0
H879 H 0.45439 0.80904 0.69174 0.0
H880 H 0.56783 0.82204 0.67493 0.0
H881 H 0.53656 0.77491 0.62397 0.0
H882 H 0.53859 0.88074 0.57707 0.0
O883 O 0.45747 0.82405 0.62421 0.0
O884 O 0.47217 0.8783 0.6014 0.0
O885 O 0.53407 0.89056 0.65606 0.0
C886 C 0.4517 0.84928 0.60015 0.0
H887 H 0.45337 0.96574 0.69756 0.0
H888 H 0.58609 0.77451 0.57174 0.0
H889 H 0.58162 0.77854 0.72288 0.0
H890 H 0.46652 0.76459 0.73986 0.0
Co891 Co 0.66294 0.99795 0.65143 0.0
C892 C 0.62151 0.92961 0.66245 0.0
C893 C 0.59758 0.9751 0.69042 0.0
C894 C 0.57142 0.94901 0.68651 0.0
N895 N 0.62887 0.96386 0.67397 0.0
N896 N 0.58637 0.92088 0.66809 0.0
H897 H 0.6402 0.91252 0.6472 0.0
H898 H 0.59224 1.00212 0.70124 0.0
C899 C 0.63236 0.07025 0.67803 0.0
O900 O 0.6653 0.07697 0.68906 0.0
N901 N 0.69381 0.03409 0.62721 0.0
C902 C 0.72086 0.05408 0.64096 0.0
C903 C 0.72255 0.08729 0.62324 0.0
C904 C 0.68108 0.05519 0.59972 0.0
N905 N 0.69771 0.088 0.59725 0.0
C906 C 0.72408 0.9891 0.69687 0.0
C907 C 0.6956 0.01824 0.75904 0.0
C908 C 0.73306 1.00941 0.75707 0.0
C909 C 0.74647 0.99278 0.72608 0.0
C910 C 0.67361 1.01332 0.72887 0.0
N911 N 0.68882 1.00216 0.69708 0.0
H912 H 0.73661 0.97859 0.67286 0.0
H913 H 0.64498 0.02044 0.7308 0.0
H914 H 0.73507 0.04849 0.66529 0.0
H915 H 0.65612 0.04945 0.58599 0.0
O916 O 0.693 0.9575 0.63406 0.0
O917 O 0.64681 0.98098 0.60415 0.0
O918 O 0.6265 0.04044 0.66121 0.0
C919 C 0.6733 0.9563 0.606 0.0
H920 H 0.54301 0.95202 0.69411 0.0
H921 H 0.73881 0.11042 0.6308 0.0
H922 H 0.68382 0.03028 0.78289 0.0
H923 H 0.77494 0.98448 0.72364 0.0
Co924 Co 0.50777 0.87762 0.3534 0.0
C925 C 0.58071 0.90971 0.34078 0.0
C926 C 0.53823 0.94618 0.3229 0.0
C927 C 0.56917 0.96593 0.32553 0.0
N928 N 0.54464 0.91064 0.33308 0.0
N929 N 0.5956 0.94326 0.33757 0.0
H930 H 0.59497 0.88615 0.35223 0.0
H931 H 0.51251 0.95957 0.31819 0.0
C932 C 0.45549 0.9274 0.31342 0.0
O933 O 0.47008 0.91395 0.28412 0.0
N934 N 0.47068 0.849 0.37764 0.0
C935 C 0.46092 0.81368 0.37424 0.0
C936 C 0.4318 0.80742 0.397 0.0
C937 C 0.44938 0.86271 0.40439 0.0
N938 N 0.42508 0.83803 0.41641 0.0
C939 C 0.53264 0.84583 0.28863 0.0
C940 C 0.46949 0.81155 0.27006 0.0
C941 C 0.50228 0.80209 0.25234 0.0
C942 C 0.53361 0.82085 0.26079 0.0
C943 C 0.46936 0.83803 0.29712 0.0
N944 N 0.50119 0.85355 0.30739 0.0
H945 H 0.55833 0.85634 0.29691 0.0
H946 H 0.44413 0.8444 0.31114 0.0
H947 H 0.47339 0.7941 0.35607 0.0
H948 H 0.45027 0.89095 0.41329 0.0
O949 O 0.5438 0.84201 0.36749 0.0
O950 O 0.52675 0.88889 0.40122 0.0
O951 O 0.4681 0.91716 0.34394 0.0
C952 C 0.54708 0.85895 0.39709 0.0
H953 H 0.57103 0.99547 0.32203 0.0
H954 H 0.41679 0.78212 0.39925 0.0
H955 H 0.44466 0.79733 0.26424 0.0
H956 H 0.55953 0.81375 0.24821 0.0
Co957 Co 0.67512 0.02015 0.3685 0.0
C958 C 0.64077 0.09386 0.35716 0.0
C959 C 0.62517 0.05471 0.31867 0.0
C960 C 0.59733 0.08054 0.32205 0.0
N961 N 0.65134 0.06115 0.34277 0.0
N962 N 0.6074 0.10504 0.34626 0.0
H963 H 0.65476 0.10713 0.37843 0.0
H964 H 0.62414 0.03035 0.30246 0.0
C965 C 0.62814 0.95393 0.34992 0.0
O966 O 0.65276 0.929 0.35906 0.0
N967 N 0.6959 0.97909 0.39494 0.0
C968 C 0.72373 0.95636 0.38527 0.0
C969 C 0.72057 0.9239 0.40418 0.0
C970 C 0.67796 0.96138 0.42152 0.0
N971 N 0.69159 0.92705 0.42655 0.0
C972 C 0.73131 0.03541 0.32001 0.0
C973 C 0.72838 0.97553 0.27565 0.0
C974 C 0.75559 1.00162 0.26998 0.0
C975 C 0.75726 0.03108 0.29344 0.0
C976 C 0.70339 0.98009 0.30418 0.0
N977 N 0.70535 1.00975 0.32632 0.0
H978 H 0.73218 0.06031 0.3352 0.0
H979 H 0.68288 0.95982 0.30779 0.0
H980 H 0.7429 0.96135 0.3638 0.0
H981 H 0.65203 0.97094 0.43244 0.0
O982 O 0.70922 0.05108 0.391 0.0
O983 O 0.65436 0.04008 0.41306 0.0
O984 O 0.634 0.98843 0.35256 0.0
C985 C 0.68545 0.05667 0.41592 0.0
H986 H 0.57165 0.08107 0.30816 0.0
H987 H 0.73689 0.89903 0.40015 0.0
H988 H 0.7258 0.95258 0.25777 0.0
H989 H 0.77786 0.05189 0.29053 0.0
Co990 Co 0.51728 0.17386 0.37562 0.0
C991 C 0.4662 0.11606 0.35864 0.0
C992 C 0.45906 0.16194 0.32241 0.0
C993 C 0.43238 0.1365 0.31647 0.0
N994 N 0.48045 0.14899 0.3487 0.0
N995 N 0.43651 0.10791 0.33963 0.0
H996 H 0.47613 0.09954 0.38078 0.0
H997 H 0.46136 0.18873 0.3098 0.0
C998 C 0.5875 0.13394 0.35917 0.0
O999 O 0.60451 0.16399 0.36744 0.0
N1000 N 0.55345 0.19412 0.40712 0.0
C1001 C 0.57197 0.22585 0.40649 0.0
C1002 C 0.59645 0.22487 0.43373 0.0
C1003 C 0.5667 0.17478 0.4356 0.0
N1004 N 0.59347 0.1927 0.45182 0.0
C1005 C 0.52709 0.23976 0.33583 0.0
C1006 C 0.54286 0.20931 0.27058 0.0
C1007 C 0.53626 0.24765 0.2728 0.0
C1008 C 0.52934 0.26261 0.3062 0.0
C1009 C 0.54128 0.18712 0.30161 0.0
N1010 N 0.53306 0.20249 0.33388 0.0
H1011 H 0.51843 0.2526 0.36029 0.0
H1012 H 0.54401 0.15755 0.29919 0.0
H1013 H 0.57042 0.24757 0.38694 0.0
H1014 H 0.55884 0.14697 0.44241 0.0
O1015 O 0.48253 0.21041 0.39013 0.0
O1016 O 0.49147 0.15788 0.41924 0.0
O1017 O 0.55268 0.13203 0.36293 0.0
C1018 C 0.47443 0.18997 0.41679 0.0
H1019 H 0.41026 0.13991 0.29783 0.0
H1020 H 0.61639 0.24572 0.43871 0.0
H1021 H 0.5478 0.19648 0.24506 0.0
H1022 H 0.52283 0.29167 0.3093 0.0
Co1023 Co 0.36637 0.03777 0.35392 0.0
C1024 C 0.35149 0.10589 0.39461 0.0
C1025 C 0.3264 0.05871 0.41813 0.0
C1026 C 0.33016 0.08455 0.44406 0.0
N1027 N 0.34162 0.07099 0.38732 0.0
N1028 N 0.3463 0.11391 0.42926 0.0
H1029 H 0.3663 0.1235 0.37643 0.0
H1030 H 0.3165 0.03133 0.42304 0.0
C1031 C 0.34328 0.96327 0.37997 0.0
O1032 O 0.33688 0.95627 0.3464 0.0
N1033 N 0.39294 1.00316 0.32364 0.0
C1034 C 0.39453 0.99953 0.28797 0.0
C1035 C 0.41763 0.97029 0.27989 0.0
C1036 C 0.41593 0.97664 0.33653 0.0
N1037 N 0.43088 0.95587 0.31048 0.0
C1038 C 0.31933 0.04606 0.2943 0.0
C1039 C 0.25862 1.01056 0.32014 0.0
C1040 C 0.25999 0.02095 0.28402 0.0
C1041 C 0.29011 0.04061 0.27198 0.0
C1042 C 0.28883 0.01717 0.34207 0.0
N1043 N 0.32022 0.03172 0.32805 0.0
H1044 H 0.34179 0.0612 0.28342 0.0
H1045 H 0.28724 1.00921 0.36977 0.0
H1046 H 0.38088 0.01687 0.2687 0.0
H1047 H 0.42174 0.97283 0.36452 0.0
O1048 O 0.38348 0.07895 0.3255 0.0
O1049 O 0.41425 0.05543 0.37038 0.0
O1050 O 0.35672 0.99439 0.3882 0.0
C1051 C 0.41236 0.07994 0.34458 0.0
H1052 H 0.32306 0.08136 0.47197 0.0
H1053 H 0.42459 0.96076 0.25341 0.0
H1054 H 0.23525 0.99636 0.33095 0.0
H1055 H 0.2917 0.05077 0.24479 0.0
Co1056 Co 0.66432 0.16197 0.51379 0.0
C1057 C 0.66831 0.10436 0.45849 0.0
C1058 C 0.72152 0.1221 0.47255 0.0
C1059 C 0.72547 0.09373 0.44913 0.0
N1060 N 0.68566 0.13044 0.47713 0.0
N1061 N 0.69212 0.08218 0.44085 0.0
H1062 H 0.63907 0.10167 0.45739 0.0
H1063 H 0.74375 0.13412 0.48656 0.0
C1064 C 0.68474 0.11915 0.58088 0.0
O1065 O 0.68258 0.14967 0.59915 0.0
N1066 N 0.64058 0.18944 0.55185 0.0
C1067 C 0.65096 0.21954 0.56937 0.0
C1068 C 0.62934 0.22312 0.59955 0.0
C1069 C 0.61135 0.17665 0.57028 0.0
N1070 N 0.60445 0.1962 0.59996 0.0
C1071 C 0.72198 0.20332 0.48552 0.0
C1072 C 0.76049 0.22068 0.54492 0.0
C1073 C 0.76917 0.23794 0.51236 0.0
C1074 C 0.75034 0.22788 0.48238 0.0
C1075 C 0.73202 0.19505 0.54685 0.0
N1076 N 0.71166 0.18765 0.51749 0.0
H1077 H 0.70776 0.19729 0.4614 0.0
H1078 H 0.72577 0.1837 0.57237 0.0
H1079 H 0.67354 0.23672 0.56196 0.0
H1080 H 0.598 0.15124 0.5641 0.0
O1081 O 0.64692 0.19838 0.48069 0.0
O1082 O 0.61489 0.15022 0.4958 0.0
O1083 O 0.67636 0.11912 0.54787 0.0
C1084 C 0.61775 0.18043 0.47663 0.0
H1085 H 0.75103 0.08149 0.43989 0.0
H1086 H 0.63219 0.24359 0.62003 0.0
H1087 H 0.77429 0.22828 0.56896 0.0
H1088 H 0.75602 0.24068 0.45677 0.0
Co1089 Co 0.64134 0.86048 0.50404 0.0
C1090 C 0.65675 0.91791 0.55548 0.0
C1091 C 0.69125 0.87016 0.56516 0.0
C1092 C 0.69879 0.89684 0.5897 0.0
N1093 N 0.66524 0.88358 0.54341 0.0
N1094 N 0.6768 0.92668 0.5839 0.0
H1095 H 0.63557 0.93555 0.54427 0.0
H1096 H 0.70331 0.84275 0.56389 0.0
C1097 C 0.67471 0.89865 0.44317 0.0
O1098 O 0.6795 0.86536 0.43034 0.0
N1099 N 0.61387 0.84243 0.46404 0.0
C1100 C 0.61874 0.81325 0.44241 0.0
C1101 C 0.5934 0.81561 0.41594 0.0
C1102 C 0.58546 0.86212 0.44995 0.0
N1103 N 0.5726 0.84637 0.42053 0.0
C1104 C 0.68251 0.79353 0.49527 0.0
C1105 C 0.75063 0.82265 0.48664 0.0
C1106 C 0.74748 0.78401 0.48879 0.0
C1107 C 0.71264 0.76981 0.49291 0.0
C1108 C 0.71956 0.8456 0.48988 0.0
N1109 N 0.68558 0.831 0.49281 0.0
H1110 H 0.65642 0.78114 0.49992 0.0
H1111 H 0.72297 0.87507 0.491 0.0
H1112 H 0.64007 0.79257 0.44353 0.0
H1113 H 0.57576 0.88844 0.45998 0.0
O1114 O 0.62252 0.82304 0.53445 0.0
O1115 O 0.59426 0.87654 0.52564 0.0
O1116 O 0.65674 0.90335 0.47239 0.0
C1117 C 0.59471 0.84382 0.54086 0.0
H1118 H 0.71781 0.89369 0.61138 0.0
H1119 H 0.59145 0.79672 0.39396 0.0
H1120 H 0.77694 0.83529 0.48364 0.0
H1121 H 0.70846 0.74054 0.49628 0.0
Co1122 Co 0.37601 0.17878 0.51639 0.0
C1123 C 0.36086 0.11493 0.55617 0.0
C1124 C 0.32161 0.15743 0.57122 0.0
C1125 C 0.31617 0.12646 0.59192 0.0
N1126 N 0.34957 0.14967 0.54902 0.0
N1127 N 0.3415 0.10039 0.58268 0.0
H1128 H 0.38402 0.10136 0.54337 0.0
H1129 H 0.30745 0.18379 0.5732 0.0
C1130 C 0.35926 0.14315 0.44686 0.0
O1131 O 0.36479 0.1743 0.42974 0.0
N1132 N 0.40633 0.20316 0.48249 0.0
C1133 C 0.40433 0.2357 0.46498 0.0
C1134 C 0.43096 0.23522 0.43883 0.0
C1135 C 0.43415 0.18387 0.46739 0.0
N1136 N 0.44906 0.20238 0.44034 0.0
C1137 C 0.33082 0.24313 0.51412 0.0
C1138 C 0.2674 0.21058 0.49302 0.0
C1139 C 0.26616 0.24724 0.50427 0.0
C1140 C 0.29837 0.2636 0.5144 0.0
C1141 C 0.30063 0.19064 0.49371 0.0
N1142 N 0.332 0.20706 0.50403 0.0
H1143 H 0.35495 0.25624 0.52343 0.0
H1144 H 0.30045 0.16156 0.48806 0.0
H1145 H 0.38415 0.25731 0.46896 0.0
H1146 H 0.4412 0.15556 0.47422 0.0
O1147 O 0.39064 0.21048 0.5538 0.0
O1148 O 0.42088 0.15957 0.53884 0.0
O1149 O 0.36512 0.14017 0.48025 0.0
C1150 C 0.41733 0.18777 0.55999 0.0
H1151 H 0.29668 0.12419 0.61369 0.0
H1152 H 0.4355 0.25671 0.41913 0.0
H1153 H 0.24278 0.19715 0.48506 0.0
H1154 H 0.29838 0.29204 0.52289 0.0
Co1155 Co 0.3537 0.8811 0.4982 0.0
C1156 C 0.41273 0.86771 0.55018 0.0
C1157 C 0.36528 0.83645 0.5636 0.0
C1158 C 0.39203 0.82776 0.5876 0.0
N1159 N 0.37873 0.86012 0.53912 0.0
N1160 N 0.42155 0.8479 0.5796 0.0
H1161 H 0.43049 0.88714 0.53698 0.0
H1162 H 0.33777 0.82637 0.56426 0.0
C1163 C 0.39575 0.844 0.43845 0.0
O1164 O 0.36579 0.82652 0.4317 0.0
N1165 N 0.33123 0.90413 0.45613 0.0
C1166 C 0.31232 0.88734 0.4305 0.0
C1167 C 0.31374 0.90795 0.39968 0.0
C1168 C 0.34351 0.93539 0.43997 0.0
N1169 N 0.33356 0.93802 0.40543 0.0
C1170 C 0.29141 0.83666 0.49579 0.0
C1171 C 0.32597 0.76861 0.50353 0.0
C1172 C 0.28801 0.7713 0.50713 0.0
C1173 C 0.27078 0.80565 0.50261 0.0
C1174 C 0.34587 0.80063 0.49667 0.0
N1175 N 0.32853 0.83434 0.49268 0.0
H1176 H 0.27737 0.86307 0.49395 0.0
H1177 H 0.37532 0.79866 0.49649 0.0
H1178 H 0.30128 0.86011 0.43207 0.0
H1179 H 0.36249 0.95377 0.45201 0.0
O1180 O 0.3165 0.90141 0.52947 0.0
O1181 O 0.36714 0.9301 0.51605 0.0
O1182 O 0.39666 0.86657 0.46481 0.0
C1183 C 0.3367 0.92925 0.53469 0.0
H1184 H 0.38912 0.80976 0.6106 0.0
H1185 H 0.30248 0.90035 0.37436 0.0
H1186 H 0.34008 0.74224 0.50636 0.0
H1187 H 0.24136 0.80855 0.50458 0.0
Co1188 Co 0.51409 0.65672 0.1668 0.0
C1189 C 0.46822 0.67043 0.10531 0.0
C1190 C 0.45073 0.70477 0.149 0.0
C1191 C 0.42876 0.71223 0.12045 0.0
N1192 N 0.47605 0.67941 0.13908 0.0
N1193 N 0.43948 0.69023 0.09332 0.0
H1194 H 0.48293 0.64956 0.09017 0.0
H1195 H 0.44791 0.71649 0.17524 0.0
C1196 C 0.57956 0.68988 0.13067 0.0
O1197 O 0.58744 0.70335 0.16182 0.0
N1198 N 0.55391 0.63167 0.19187 0.0
C1199 C 0.57715 0.64598 0.21538 0.0
C1200 C 0.60867 0.62493 0.21589 0.0
C1201 C 0.5719 0.6014 0.17894 0.0
N1202 N 0.60556 0.59711 0.19279 0.0
C1203 C 0.51086 0.7021 0.228 0.0
C1204 C 0.5152 0.76985 0.19424 0.0
C1205 C 0.50606 0.76844 0.23055 0.0
C1206 C 0.5042 0.7341 0.2474 0.0
C1207 C 0.52074 0.7369 0.1754 0.0
N1208 N 0.51937 0.7033 0.19243 0.0
H1209 H 0.50854 0.67597 0.24176 0.0
H1210 H 0.52444 0.73842 0.14686 0.0
H1211 H 0.57403 0.67206 0.22854 0.0
H1212 H 0.5623 0.58542 0.15695 0.0
O1213 O 0.4783 0.63783 0.19989 0.0
O1214 O 0.49514 0.60878 0.15115 0.0
O1215 O 0.55122 0.66986 0.12741 0.0
C1216 C 0.47333 0.61065 0.17899 0.0
H1217 H 0.40534 0.73093 0.12034 0.0
H1218 H 0.63289 0.63092 0.23074 0.0
H1219 H 0.517 0.79609 0.18039 0.0
H1220 H 0.49792 0.73197 0.27559 0.0
Co1221 Co 0.36202 0.52564 0.14452 0.0
C1222 C 0.42635 0.56828 0.16035 0.0
C1223 C 0.39046 0.56999 0.20592 0.0
C1224 C 0.42086 0.59033 0.21273 0.0
N1225 N 0.39319 0.557 0.17249 0.0
N1226 N 0.44343 0.58927 0.18406 0.0
H1227 H 0.43729 0.56228 0.13413 0.0
H1228 H 0.36858 0.56528 0.22466 0.0
C1229 C 0.3993 0.45005 0.15255 0.0
O1230 O 0.37313 0.43397 0.13553 0.0
N1231 N 0.33619 0.49426 0.11263 0.0
C1232 C 0.30302 0.47938 0.11527 0.0
C1233 C 0.29937 0.45551 0.0872 0.0
C1234 C 0.3514 0.48085 0.08214 0.0
N1235 N 0.33005 0.4561 0.06677 0.0
C1236 C 0.31022 0.53996 0.19932 0.0
C1237 C 0.30039 0.46984 0.22605 0.0
C1238 C 0.27871 0.499 0.23915 0.0
C1239 C 0.28394 0.53423 0.22545 0.0
C1240 C 0.32659 0.47676 0.1992 0.0
N1241 N 0.33162 0.51176 0.18609 0.0
H1242 H 0.31383 0.56803 0.19059 0.0
H1243 H 0.34173 0.45361 0.18915 0.0
H1244 H 0.28361 0.48412 0.13669 0.0
H1245 H 0.37912 0.48616 0.07365 0.0
O1246 O 0.33016 0.56586 0.13169 0.0
O1247 O 0.38025 0.55187 0.10158 0.0
O1248 O 0.39972 0.48523 0.15526 0.0
C1249 C 0.35155 0.57362 0.10583 0.0
H1250 H 0.42572 0.6053 0.23692 0.0
H1251 H 0.27658 0.43762 0.08322 0.0
H1252 H 0.29739 0.44219 0.23665 0.0
H1253 H 0.26831 0.55762 0.23562 0.0
Co1254 Co 0.50024 0.35311 0.14482 0.0
C1255 C 0.4322 0.39279 0.16195 0.0
C1256 C 0.47553 0.40942 0.19455 0.0
C1257 C 0.45198 0.43916 0.18999 0.0
N1258 N 0.465 0.38098 0.17432 0.0
N1259 N 0.42538 0.42868 0.16842 0.0
H1260 H 0.41511 0.37689 0.14515 0.0
H1261 H 0.50101 0.4104 0.20838 0.0
C1262 C 0.57291 0.39137 0.15906 0.0
O1263 O 0.59243 0.36177 0.1515 0.0
N1264 N 0.5355 0.32835 0.11422 0.0
C1265 C 0.55767 0.29903 0.1211 0.0
C1266 C 0.58781 0.30121 0.09919 0.0
C1267 C 0.55152 0.34641 0.08681 0.0
N1268 N 0.58384 0.33097 0.07771 0.0
C1269 C 0.50094 0.28605 0.18576 0.0
C1270 C 0.54368 0.30848 0.24083 0.0
C1271 C 0.53157 0.27198 0.24095 0.0
C1272 C 0.51006 0.26094 0.21279 0.0
C1273 C 0.53398 0.33281 0.21319 0.0
N1274 N 0.51343 0.32137 0.18551 0.0
H1275 H 0.48468 0.27627 0.16432 0.0
H1276 H 0.54261 0.36083 0.21487 0.0
H1277 H 0.55552 0.2803 0.14339 0.0
H1278 H 0.54322 0.37398 0.07853 0.0
O1279 O 0.46222 0.32311 0.12669 0.0
O1280 O 0.47846 0.37565 0.10179 0.0
O1281 O 0.53801 0.3915 0.15675 0.0
C1282 C 0.45729 0.3472 0.10149 0.0
H1283 H 0.45532 0.46673 0.20002 0.0
H1284 H 0.61261 0.28468 0.10167 0.0
H1285 H 0.55984 0.31849 0.26245 0.0
H1286 H 0.4992 0.23344 0.2122 0.0
Co1287 Co 0.66391 0.50193 0.15493 0.0
C1288 C 0.62472 0.43149 0.16547 0.0
C1289 C 0.59922 0.4767 0.19278 0.0
C1290 C 0.57378 0.45009 0.1885 0.0
N1291 N 0.63106 0.46615 0.17695 0.0
N1292 N 0.58972 0.42175 0.17119 0.0
H1293 H 0.64381 0.41526 0.14969 0.0
H1294 H 0.59308 0.50349 0.20374 0.0
C1295 C 0.63299 0.57303 0.18341 0.0
O1296 O 0.66616 0.57964 0.19385 0.0
N1297 N 0.693 0.53939 0.1305 0.0
C1298 C 0.71975 0.5604 0.1432 0.0
C1299 C 0.72068 0.59283 0.12398 0.0
C1300 C 0.67957 0.55905 0.10233 0.0
N1301 N 0.69563 0.59194 0.09814 0.0
C1302 C 0.72582 0.49504 0.19921 0.0
C1303 C 0.69647 0.51966 0.26288 0.0
C1304 C 0.73417 0.51231 0.26037 0.0
C1305 C 0.748 0.49765 0.22859 0.0
C1306 C 0.67454 0.51521 0.23259 0.0
N1307 N 0.69004 0.50626 0.20026 0.0
H1308 H 0.73869 0.48642 0.17467 0.0
H1309 H 0.64566 0.52099 0.23489 0.0
H1310 H 0.73422 0.55591 0.16762 0.0
H1311 H 0.6546 0.55225 0.08912 0.0
O1312 O 0.6957 0.46342 0.13671 0.0
O1313 O 0.64796 0.48539 0.10781 0.0
O1314 O 0.6268 0.54348 0.16617 0.0
C1315 C 0.6764 0.46296 0.10845 0.0
H1316 H 0.54538 0.4523 0.19625 0.0
H1317 H 0.7365 0.61664 0.13048 0.0
H1318 H 0.68439 0.53012 0.28729 0.0
H1319 H 0.77666 0.49029 0.22567 0.0
Co1320 Co 0.51107 0.37597 0.85683 0.0
C1321 C 0.58463 0.40758 0.84469 0.0
C1322 C 0.54294 0.43535 0.81476 0.0
C1323 C 0.572 0.45825 0.81694 0.0
N1324 N 0.54982 0.404 0.83352 0.0
N1325 N 0.59804 0.44093 0.83602 0.0
H1326 H 0.59848 0.38829 0.86225 0.0
H1327 H 0.51725 0.4432 0.80295 0.0
C1328 C 0.44707 0.41491 0.82202 0.0
O1329 O 0.43965 0.38383 0.80648 0.0
N1330 N 0.47063 0.35093 0.88116 0.0
C1331 C 0.44672 0.3282 0.86605 0.0
C1332 C 0.41695 0.32446 0.88779 0.0
C1333 C 0.454 0.36108 0.91237 0.0
N1334 N 0.42099 0.34538 0.91675 0.0
C1335 C 0.51393 0.30924 0.82104 0.0
C1336 C 0.50759 0.33139 0.75112 0.0
C1337 C 0.51379 0.29362 0.75899 0.0
C1338 C 0.51939 0.2839 0.79459 0.0
C1339 C 0.5057 0.35732 0.77916 0.0
N1340 N 0.50669 0.34565 0.81402 0.0
H1341 H 0.51511 0.29868 0.84791 0.0
H1342 H 0.50275 0.38629 0.77274 0.0
H1343 H 0.44806 0.31772 0.83938 0.0
H1344 H 0.46404 0.38218 0.92959 0.0
O1345 O 0.54546 0.34217 0.87745 0.0
O1346 O 0.52859 0.39404 0.90321 0.0
O1347 O 0.4741 0.41639 0.84317 0.0
C1348 C 0.54805 0.36334 0.90416 0.0
H1349 H 0.57298 0.48619 0.80678 0.0
H1350 H 0.39278 0.30939 0.88135 0.0
H1351 H 0.50427 0.34083 0.72393 0.0
H1352 H 0.52739 0.25628 0.80285 0.0
Co1353 Co 0.67091 0.52575 0.86373 0.0
C1354 C 0.64174 0.59781 0.84278 0.0
C1355 C 0.62165 0.55489 0.81097 0.0
C1356 C 0.59422 0.58087 0.81522 0.0
N1357 N 0.65032 0.56329 0.83151 0.0
N1358 N 0.60696 0.60752 0.8357 0.0
H1359 H 0.65821 0.61317 0.86077 0.0
H1360 H 0.6184 0.52909 0.79761 0.0
C1361 C 0.62878 0.45623 0.8485 0.0
O1362 O 0.65561 0.43495 0.85998 0.0
N1363 N 0.68825 0.48903 0.89722 0.0
C1364 C 0.72062 0.47092 0.89895 0.0
C1365 C 0.71883 0.44556 0.92601 0.0
C1366 C 0.66767 0.4753 0.92425 0.0
N1367 N 0.68551 0.44804 0.94157 0.0
C1368 C 0.73995 0.51759 0.82896 0.0
C1369 C 0.71775 0.48522 0.76712 0.0
C1370 C 0.75421 0.49535 0.77033 0.0
C1371 C 0.76528 0.51073 0.80203 0.0
C1372 C 0.69306 0.49178 0.79545 0.0
N1373 N 0.7042 0.50822 0.82596 0.0
H1374 H 0.74967 0.53085 0.85236 0.0
H1375 H 0.66489 0.48529 0.79174 0.0
H1376 H 0.74368 0.4741 0.88139 0.0
H1377 H 0.63929 0.48281 0.92888 0.0
O1378 O 0.70348 0.55989 0.88414 0.0
O1379 O 0.64731 0.55127 0.9042 0.0
O1380 O 0.63093 0.49141 0.84924 0.0
C1381 C 0.67866 0.5672 0.90778 0.0
H1382 H 0.56671 0.57956 0.80529 0.0
H1383 H 0.74002 0.42549 0.93269 0.0
H1384 H 0.70802 0.47442 0.74232 0.0
H1385 H 0.79302 0.51975 0.80509 0.0
Co1386 Co 0.51826 0.67302 0.87142 0.0
C1387 C 0.46903 0.61396 0.85537 0.0
C1388 C 0.45934 0.65976 0.81949 0.0
C1389 C 0.4339 0.63308 0.81367 0.0
N1390 N 0.48147 0.64759 0.84549 0.0
N1391 N 0.43964 0.60457 0.83665 0.0
H1392 H 0.47996 0.5978 0.87731 0.0
H1393 H 0.46038 0.68668 0.80694 0.0
C1394 C 0.58762 0.6354 0.85106 0.0
O1395 O 0.60426 0.66591 0.8586 0.0
N1396 N 0.55473 0.69357 0.90218 0.0
C1397 C 0.57204 0.72594 0.90218 0.0
C1398 C 0.5944 0.72634 0.9312 0.0
C1399 C 0.56669 0.67511 0.93169 0.0
N1400 N 0.59099 0.69447 0.94979 0.0
C1401 C 0.52616 0.73876 0.83033 0.0
C1402 C 0.5398 0.70677 0.76517 0.0
C1403 C 0.53209 0.74477 0.76678 0.0
C1404 C 0.52625 0.76074 0.79987 0.0
C1405 C 0.53981 0.68547 0.79674 0.0
N1406 N 0.53261 0.7015 0.82899 0.0
H1407 H 0.51834 0.75196 0.85487 0.0
H1408 H 0.54263 0.65587 0.79477 0.0
H1409 H 0.57044 0.74742 0.88232 0.0
H1410 H 0.55912 0.64724 0.93862 0.0
O1411 O 0.48365 0.70905 0.88697 0.0
O1412 O 0.49407 0.6564 0.91563 0.0
O1413 O 0.55348 0.63201 0.85784 0.0
C1414 C 0.47715 0.68857 0.91414 0.0
H1415 H 0.4114 0.63561 0.79538 0.0
H1416 H 0.61293 0.74813 0.93742 0.0
H1417 H 0.54361 0.69342 0.73973 0.0
H1418 H 0.51955 0.78988 0.80201 0.0
Co1419 Co 0.37004 0.53514 0.85434 0.0
C1420 C 0.35916 0.60455 0.89512 0.0
C1421 C 0.33205 0.55877 0.91904 0.0
C1422 C 0.33634 0.58495 0.94459 0.0
N1423 N 0.34795 0.56995 0.88817 0.0
N1424 N 0.35369 0.61348 0.92958 0.0
H1425 H 0.37458 0.62141 0.87677 0.0
H1426 H 0.32099 0.53191 0.92421 0.0
C1427 C 0.3444 0.4628 0.88438 0.0
O1428 O 0.33464 0.45502 0.85188 0.0
N1429 N 0.39388 0.49846 0.82355 0.0
C1430 C 0.38128 0.4814 0.7945 0.0
C1431 C 0.40054 0.44882 0.78967 0.0
C1432 C 0.42164 0.47617 0.83506 0.0
N1433 N 0.42567 0.44538 0.81534 0.0
C1434 C 0.32148 0.54594 0.7967 0.0
C1435 C 0.26 0.51261 0.8235 0.0
C1436 C 0.26101 0.52357 0.78749 0.0
C1437 C 0.29133 0.54274 0.7753 0.0
C1438 C 0.29089 0.51793 0.84494 0.0
N1439 N 0.32261 0.53105 0.83028 0.0
H1440 H 0.34511 0.55778 0.7843 0.0
H1441 H 0.28959 0.50977 0.8726 0.0
H1442 H 0.35763 0.48934 0.77944 0.0
H1443 H 0.43567 0.48031 0.85981 0.0
O1444 O 0.38689 0.57499 0.8244 0.0
O1445 O 0.41913 0.55197 0.8684 0.0
O1446 O 0.36076 0.49303 0.89019 0.0
C1447 C 0.41637 0.57609 0.84232 0.0
H1448 H 0.32853 0.58259 0.97241 0.0
H1449 H 0.39516 0.42832 0.76979 0.0
H1450 H 0.23645 0.49885 0.8345 0.0
H1451 H 0.29288 0.55313 0.74818 0.0
Co1452 Co 0.65942 0.66446 0.01426 0.0
C1453 C 0.6623 0.61162 0.95389 0.0
C1454 C 0.71576 0.62421 0.97202 0.0
C1455 C 0.71928 0.59952 0.94488 0.0
N1456 N 0.68016 0.63363 0.97654 0.0
N1457 N 0.68571 0.59119 0.93402 0.0
H1458 H 0.63302 0.61045 0.95161 0.0
H1459 H 0.73792 0.63351 0.98803 0.0
C1460 C 0.68138 0.62229 0.08128 0.0
O1461 O 0.6784 0.65298 0.09916 0.0
N1462 N 0.6361 0.69157 0.0529 0.0
C1463 C 0.64639 0.72219 0.06962 0.0
C1464 C 0.6258 0.72572 0.10048 0.0
C1465 C 0.60782 0.67837 0.07252 0.0
N1466 N 0.60163 0.69814 0.10226 0.0
C1467 C 0.71707 0.70448 0.98517 0.0
C1468 C 0.75642 0.72238 0.04386 0.0
C1469 C 0.76498 0.73863 0.01084 0.0
C1470 C 0.7458 0.72827 0.98124 0.0
C1471 C 0.72746 0.69747 0.04661 0.0
N1472 N 0.70684 0.68969 0.01753 0.0
H1473 H 0.70241 0.69848 0.9613 0.0
H1474 H 0.72116 0.68708 0.07247 0.0
H1475 H 0.66835 0.73973 0.0612 0.0
H1476 H 0.59474 0.65263 0.06702 0.0
O1477 O 0.64207 0.70159 0.98183 0.0
O1478 O 0.60998 0.65324 0.99598 0.0
O1479 O 0.67234 0.62145 0.04834 0.0
C1480 C 0.61333 0.68341 0.97674 0.0
H1481 H 0.74455 0.58707 0.93517 0.0
H1482 H 0.62892 0.74661 0.12049 0.0
H1483 H 0.77059 0.73035 0.06757 0.0
H1484 H 0.75149 0.74036 0.95531 0.0
Co1485 Co 0.6535 0.37532 0.99985 0.0
C1486 C 0.59651 0.37619 0.94557 0.0
C1487 C 0.61425 0.32085 0.95787 0.0
C1488 C 0.58478 0.31956 0.93608 0.0
N1489 N 0.62325 0.35638 0.96246 0.0
N1490 N 0.57309 0.35427 0.92912 0.0
H1491 H 0.59417 0.40591 0.9448 0.0
H1492 H 0.62632 0.29717 0.97119 0.0
C1493 C 0.61185 0.35049 0.06438 0.0
O1494 O 0.63918 0.35755 0.08513 0.0
N1495 N 0.67836 0.3981 0.03843 0.0
C1496 C 0.7117 0.39261 0.05223 0.0
C1497 C 0.71522 0.41672 0.08014 0.0
C1498 C 0.66299 0.42658 0.05661 0.0
N1499 N 0.68457 0.43802 0.08262 0.0
C1500 C 0.69428 0.31424 0.9739 0.0
C1501 C 0.71666 0.28197 0.03659 0.0
C1502 C 0.7322 0.26973 0.00453 0.0
C1503 C 0.71988 0.28535 0.97288 0.0
C1504 C 0.6903 0.31055 0.03643 0.0
N1505 N 0.67948 0.32714 0.00527 0.0
H1506 H 0.68764 0.32761 0.94892 0.0
H1507 H 0.68223 0.32084 0.0617 0.0
H1508 H 0.73182 0.37257 0.04304 0.0
H1509 H 0.63567 0.4373 0.05198 0.0
O1510 O 0.69013 0.3921 0.96816 0.0
O1511 O 0.64148 0.42584 0.98243 0.0
O1512 O 0.61134 0.3617 0.03209 0.0
C1513 C 0.67225 0.4225 0.9645 0.0
H1514 H 0.57197 0.29482 0.92696 0.0
H1515 H 0.73856 0.41841 0.09734 0.0
H1516 H 0.72663 0.27123 0.06175 0.0
H1517 H 0.73207 0.27738 0.94763 0.0
Co1518 Co 0.38177 0.67979 0.01704 0.0
C1519 C 0.36385 0.61715 0.05847 0.0
C1520 C 0.3254 0.66102 0.07131 0.0
C1521 C 0.31986 0.63147 0.09407 0.0
N1522 N 0.353 0.65163 0.04921 0.0
N1523 N 0.34478 0.60454 0.08628 0.0
H1524 H 0.38681 0.60254 0.04641 0.0
H1525 H 0.31192 0.6878 0.07219 0.0
C1526 C 0.36663 0.64303 0.94686 0.0
O1527 O 0.37378 0.67341 0.92906 0.0
N1528 N 0.4139 0.70332 0.98398 0.0
C1529 C 0.41245 0.73614 0.96685 0.0
C1530 C 0.43748 0.735 0.93944 0.0
C1531 C 0.44043 0.68329 0.9676 0.0
N1532 N 0.45424 0.7015 0.93967 0.0
C1533 C 0.34041 0.74665 0.01377 0.0
C1534 C 0.27956 0.7217 0.98048 0.0
C1535 C 0.28011 0.75881 0.99128 0.0
C1536 C 0.31128 0.77084 0.0081 0.0
C1537 C 0.30946 0.69791 0.9873 0.0
N1538 N 0.33993 0.71077 1.00305 0.0
H1539 H 0.36372 0.75751 0.02686 0.0
H1540 H 0.30737 0.66914 0.98092 0.0
H1541 H 0.39351 0.75859 0.97172 0.0
H1542 H 0.4466 0.65463 0.97375 0.0
O1543 O 0.39606 0.71078 0.05486 0.0
O1544 O 0.4253 0.65903 0.0411 0.0
O1545 O 0.37058 0.6412 0.98065 0.0
C1546 C 0.42147 0.6872 0.06232 0.0
H1547 H 0.30069 0.6309 0.11622 0.0
H1548 H 0.4416 0.75649 0.91965 0.0
H1549 H 0.256 0.71075 0.96758 0.0
H1550 H 0.31299 0.79852 0.01827 0.0
Co1551 Co 0.35578 0.38339 0.00414 0.0
C1552 C 0.41652 0.36781 0.05362 0.0
C1553 C 0.36993 0.3351 0.06662 0.0
C1554 C 0.39773 0.3251 0.08903 0.0
N1555 N 0.38201 0.36092 0.04357 0.0
N1556 N 0.42679 0.34604 0.0813 0.0
H1557 H 0.43353 0.38835 0.04108 0.0
H1558 H 0.34268 0.32435 0.06738 0.0
C1559 C 0.39353 0.35222 0.94085 0.0
O1560 O 0.36093 0.34062 0.9334 0.0
N1561 N 0.33213 0.408 0.96341 0.0
C1562 C 0.30672 0.39506 0.94128 0.0
C1563 C 0.30803 0.41436 0.90963 0.0
C1564 C 0.34743 0.4363 0.94483 0.0
N1565 N 0.33367 0.44019 0.91172 0.0
C1566 C 0.29367 0.33762 0.00481 0.0
C1567 C 0.32926 0.26984 1.00232 0.0
C1568 C 0.29171 0.27131 0.00978 0.0
C1569 C 0.27399 0.30568 0.01047 0.0
C1570 C 0.34828 0.30284 0.99697 0.0
N1571 N 0.33039 0.33649 0.99787 0.0
H1572 H 0.27907 0.36368 0.0067 0.0
H1573 H 0.37762 0.30139 0.99399 0.0
H1574 H 0.29087 0.37076 0.94533 0.0
H1575 H 0.37088 0.45098 0.95388 0.0
O1576 O 0.31951 0.40302 0.03663 0.0
O1577 O 0.36971 0.43209 0.02222 0.0
O1578 O 0.39814 0.36984 0.96993 0.0
C1579 C 0.33942 0.43124 0.04105 0.0
H1580 H 0.39589 0.30548 0.11088 0.0
H1581 H 0.29215 0.40881 0.88627 0.0
H1582 H 0.3438 0.24359 1.00113 0.0
H1583 H 0.24487 0.30786 0.01543 0.0
loop_
_geom_bond_atom_site_label_1
_geom_bond_atom_site_label_2
_geom_bond_distance
_geom_bond_site_symmetry_2
_ccdc_geom_bond_type
Co0 N4 2.148 1_455 S
Co0 N10 2.128 . S
Co0 N20 2.194 1_455 S
Co0 O25 2.351 1_455 S
Co0 O26 2.155 1_455 S
Co0 O27 2.096 . S
C1 N4 1.301 . S
C1 N5 1.328 . S
C1 H6 0.930 . S
C2 C3 1.333 . S
C2 N4 1.317 . S
C2 H7 0.930 . S
C3 C2 1.333 . S
C3 N5 1.350 . S
C3 H29 0.931 . S
N4 Co0 2.148 1_655 S
N4 C1 1.301 . S
N4 C2 1.317 . S
N5 C1 1.328 . S
N5 C3 1.350 . S
H6 C1 0.930 . S
H7 C2 0.930 . S
C8 O9 1.224 . S
C8 O27 1.247 . S
O9 C8 1.224 . S
N10 Co0 2.128 . S
N10 C11 1.355 . S
N10 C13 1.311 . S
C11 N10 1.355 . S
C11 C12 1.363 . S
C11 H23 0.929 . S
C12 C11 1.363 . S
C12 N14 1.375 . S
C12 H30 0.931 . S
C13 N10 1.311 . S
C13 N14 1.347 . S
C13 H24 0.929 . S
N14 C12 1.375 . S
N14 C13 1.347 . S
C15 C18 1.365 . S
C15 N20 1.328 . S
C15 H21 0.929 . S
C16 C17 1.362 . S
C16 C19 1.378 . S
C16 H31 0.929 . S
C17 C16 1.362 . S
C17 C18 1.366 1_455 S
C18 C15 1.365 . S
C18 C17 1.366 1_655 S
C18 H32 0.930 . S
C19 C16 1.378 . S
C19 N20 1.315 1_455 S
C19 H22 0.930 . S
N20 Co0 2.194 1_655 S
N20 C15 1.328 . S
N20 C19 1.315 1_655 S
H21 C15 0.929 . S
H22 C19 0.930 . S
H23 C11 0.929 . S
H24 C13 0.929 . S
O25 Co0 2.351 1_655 S
O25 C28 1.244 . S
O26 Co0 2.155 1_655 S
O26 C28 1.240 . S
O27 Co0 2.096 . S
O27 C8 1.247 . S
C28 O25 1.244 . S
C28 O26 1.240 . S
H29 C3 0.931 . S
H30 C12 0.931 . S
H31 C16 0.929 . S
H32 C18 0.930 . S
Co33 N37 2.148 . S
Co33 N43 2.128 1_545 S
Co33 N53 2.194 . S
Co33 O58 2.351 . S
Co33 O59 2.155 . S
Co33 O60 2.096 1_545 S
C34 N37 1.301 . S
C34 N38 1.328 . S
C34 H39 0.930 . S
C35 C36 1.333 . S
C35 N37 1.317 . S
C35 H40 0.930 . S
C36 C35 1.333 . S
C36 N38 1.350 . S
C36 H62 0.931 . S
N37 Co33 2.148 . S
N37 C34 1.301 . S
N37 C35 1.317 . S
N38 C34 1.328 . S
N38 C36 1.350 . S
H39 C34 0.930 . S
H40 C35 0.930 . S
C41 O42 1.224 . S
C41 O60 1.247 . S
O42 C41 1.224 . S
N43 Co33 2.128 1_565 S
N43 C44 1.355 . S
N43 C46 1.311 . S
C44 N43 1.355 . S
C44 C45 1.363 . S
C44 H56 0.929 . S
C45 C44 1.363 . S
C45 N47 1.375 . S
C45 H63 0.931 . S
C46 N43 1.311 . S
C46 N47 1.347 . S
C46 H57 0.929 . S
N47 C45 1.375 . S
N47 C46 1.347 . S
C48 C51 1.365 . S
C48 N53 1.328 . S
C48 H54 0.929 . S
C49 C50 1.362 1_565 S
C49 C52 1.378 . S
C49 H64 0.929 . S
C50 C49 1.362 1_545 S
C50 C51 1.366 . S
C51 C48 1.365 . S
C51 C50 1.366 . S
C51 H65 0.930 . S
C52 C49 1.378 . S
C52 N53 1.315 1_565 S
C52 H55 0.930 . S
N53 Co33 2.194 . S
N53 C48 1.328 . S
N53 C52 1.315 1_545 S
H54 C48 0.929 . S
H55 C52 0.930 . S
H56 C44 0.929 . S
H57 C46 0.929 . S
O58 Co33 2.351 . S
O58 C61 1.244 . S
O59 Co33 2.155 . S
O59 C61 1.240 . S
O60 Co33 2.096 1_565 S
O60 C41 1.247 . S
C61 O58 1.244 . S
C61 O59 1.240 . S
H62 C36 0.931 . S
H63 C45 0.931 . S
H64 C49 0.929 . S
H65 C51 0.930 . S
Co66 N70 2.148 . S
Co66 N76 2.128 1_655 S
Co66 N86 2.194 . S
Co66 O91 2.351 . S
Co66 O92 2.155 . S
Co66 O93 2.096 1_655 S
C67 N70 1.301 . S
C67 N71 1.328 . S
C67 H72 0.930 . S
C68 C69 1.333 . S
C68 N70 1.317 . S
C68 H73 0.930 . S
C69 C68 1.333 . S
C69 N71 1.350 . S
C69 H95 0.931 . S
N70 Co66 2.148 . S
N70 C67 1.301 . S
N70 C68 1.317 . S
N71 C67 1.328 . S
N71 C69 1.350 . S
H72 C67 0.930 . S
H73 C68 0.930 . S
C74 O75 1.224 . S
C74 O93 1.247 . S
O75 C74 1.224 . S
N76 Co66 2.128 1_455 S
N76 C77 1.355 . S
N76 C79 1.311 . S
C77 N76 1.355 . S
C77 C78 1.363 . S
C77 H89 0.929 . S
C78 C77 1.363 . S
C78 N80 1.375 . S
C78 H96 0.931 . S
C79 N76 1.311 . S
C79 N80 1.347 . S
C79 H90 0.929 . S
N80 C78 1.375 . S
N80 C79 1.347 . S
C81 C84 1.365 . S
C81 N86 1.328 . S
C81 H87 0.929 . S
C82 C83 1.362 1_455 S
C82 C85 1.378 . S
C82 H97 0.929 . S
C83 C82 1.362 1_655 S
C83 C84 1.366 . S
C84 C81 1.365 . S
C84 C83 1.366 . S
C84 H98 0.930 . S
C85 C82 1.378 . S
C85 N86 1.315 1_455 S
C85 H88 0.930 . S
N86 Co66 2.194 . S
N86 C81 1.328 . S
N86 C85 1.315 1_655 S
H87 C81 0.929 . S
H88 C85 0.930 . S
H89 C77 0.929 . S
H90 C79 0.929 . S
O91 Co66 2.351 . S
O91 C94 1.244 . S
O92 Co66 2.155 . S
O92 C94 1.240 . S
O93 Co66 2.096 1_455 S
O93 C74 1.247 . S
C94 O91 1.244 . S
C94 O92 1.240 . S
H95 C69 0.931 . S
H96 C78 0.931 . S
H97 C82 0.929 . S
H98 C84 0.930 . S
Co99 N103 2.167 . S
Co99 N109 2.108 1_565 S
Co99 N119 2.195 . S
Co99 O124 2.375 . S
Co99 O125 2.169 . S
Co99 O126 2.076 1_565 S
C100 N103 1.301 . S
C100 N104 1.328 . S
C100 H105 0.930 . S
C101 C102 1.333 . S
C101 N103 1.317 . S
C101 H106 0.930 . S
C102 C101 1.333 . S
C102 N104 1.350 . S
C102 H128 0.931 . S
N103 Co99 2.167 . S
N103 C100 1.301 . S
N103 C101 1.317 . S
N104 C100 1.328 . S
N104 C102 1.350 . S
H105 C100 0.930 . S
H106 C101 0.930 . S
C107 O108 1.224 . S
C107 O126 1.247 . S
O108 C107 1.224 . S
N109 Co99 2.108 1_545 S
N109 C110 1.355 . S
N109 C112 1.311 . S
C110 N109 1.355 . S
C110 C111 1.363 . S
C110 H122 0.929 . S
C111 C110 1.363 . S
C111 N113 1.375 . S
C111 H129 0.931 . S
C112 N109 1.311 . S
C112 N113 1.347 . S
C112 H123 0.929 . S
N113 C111 1.375 . S
N113 C112 1.347 . S
C114 C117 1.365 . S
C114 N119 1.328 . S
C114 H120 0.929 . S
C115 C116 1.362 1_545 S
C115 C118 1.378 . S
C115 H130 0.929 . S
C116 C115 1.362 1_565 S
C116 C117 1.366 . S
C117 C114 1.365 . S
C117 C116 1.366 . S
C117 H131 0.930 . S
C118 C115 1.378 . S
C118 N119 1.315 1_545 S
C118 H121 0.930 . S
N119 Co99 2.195 . S
N119 C114 1.328 . S
N119 C118 1.315 1_565 S
H120 C114 0.929 . S
H121 C118 0.930 . S
H122 C110 0.929 . S
H123 C112 0.929 . S
O124 Co99 2.375 . S
O124 C127 1.244 . S
O125 Co99 2.169 . S
O125 C127 1.240 . S
O126 Co99 2.076 1_545 S
O126 C107 1.247 . S
C127 O124 1.244 . S
C127 O125 1.240 . S
H128 C102 0.931 . S
H129 C111 0.931 . S
H130 C115 0.929 . S
H131 C117 0.930 . S
Co132 N136 2.148 . S
Co132 N142 2.128 1_455 S
Co132 N152 2.194 . S
Co132 O157 2.351 . S
Co132 O158 2.155 . S
Co132 O159 2.096 1_455 S
C133 N136 1.301 . S
C133 N137 1.328 . S
C133 H138 0.930 . S
C134 C135 1.333 . S
C134 N136 1.317 . S
C134 H139 0.930 . S
C135 C134 1.333 . S
C135 N137 1.350 . S
C135 H161 0.931 . S
N136 Co132 2.148 . S
N136 C133 1.301 . S
N136 C134 1.317 . S
N137 C133 1.328 . S
N137 C135 1.350 . S
H138 C133 0.930 . S
H139 C134 0.930 . S
C140 O141 1.224 . S
C140 O159 1.247 . S
O141 C140 1.224 . S
N142 Co132 2.128 1_655 S
N142 C143 1.355 . S
N142 C145 1.311 . S
C143 N142 1.355 . S
C143 C144 1.363 . S
C143 H155 0.929 . S
C144 C143 1.363 . S
C144 N146 1.375 . S
C144 H162 0.931 . S
C145 N142 1.311 . S
C145 N146 1.347 . S
C145 H156 0.929 . S
N146 C144 1.375 . S
N146 C145 1.347 . S
C147 C150 1.365 . S
C147 N152 1.328 . S
C147 H153 0.929 . S
C148 C149 1.362 1_655 S
C148 C151 1.378 . S
C148 H163 0.929 . S
C149 C148 1.362 1_455 S
C149 C150 1.366 . S
C150 C147 1.365 . S
C150 C149 1.366 . S
C150 H164 0.930 . S
C151 C148 1.378 . S
C151 N152 1.315 1_655 S
C151 H154 0.930 . S
N152 Co132 2.194 . S
N152 C147 1.328 . S
N152 C151 1.315 1_455 S
H153 C147 0.929 . S
H154 C151 0.930 . S
H155 C143 0.929 . S
H156 C145 0.929 . S
O157 Co132 2.351 . S
O157 C160 1.244 . S
O158 Co132 2.155 . S
O158 C160 1.240 . S
O159 Co132 2.096 1_655 S
O159 C140 1.247 . S
C160 O157 1.244 . S
C160 O158 1.240 . S
H161 C135 0.931 . S
H162 C144 0.931 . S
H163 C148 0.929 . S
H164 C150 0.930 . S
Co165 N169 2.148 . S
Co165 N175 2.128 1_545 S
Co165 N185 2.194 . S
Co165 O190 2.351 . S
Co165 O191 2.155 . S
Co165 O192 2.096 1_545 S
C166 N169 1.301 . S
C166 N170 1.328 . S
C166 H171 0.930 . S
C167 C168 1.333 . S
C167 N169 1.317 . S
C167 H172 0.930 . S
C168 C167 1.333 . S
C168 N170 1.350 . S
C168 H194 0.931 . S
N169 Co165 2.148 . S
N169 C166 1.301 . S
N169 C167 1.317 . S
N170 C166 1.328 . S
N170 C168 1.350 . S
H171 C166 0.930 . S
H172 C167 0.930 . S
C173 O174 1.224 . S
C173 O192 1.247 . S
O174 C173 1.224 . S
N175 Co165 2.128 1_565 S
N175 C176 1.355 . S
N175 C178 1.311 . S
C176 N175 1.355 . S
C176 C177 1.363 . S
C176 H188 0.929 . S
C177 C176 1.363 . S
C177 N179 1.375 . S
C177 H195 0.931 . S
C178 N175 1.311 . S
C178 N179 1.347 . S
C178 H189 0.929 . S
N179 C177 1.375 . S
N179 C178 1.347 . S
C180 C183 1.365 . S
C180 N185 1.328 . S
C180 H186 0.929 . S
C181 C182 1.362 1_565 S
C181 C184 1.378 . S
C181 H196 0.929 . S
C182 C181 1.362 1_545 S
C182 C183 1.366 . S
C183 C180 1.365 . S
C183 C182 1.366 . S
C183 H197 0.930 . S
C184 C181 1.378 . S
C184 N185 1.315 1_565 S
C184 H187 0.930 . S
N185 Co165 2.194 . S
N185 C180 1.328 . S
N185 C184 1.315 1_545 S
H186 C180 0.929 . S
H187 C184 0.930 . S
H188 C176 0.929 . S
H189 C178 0.929 . S
O190 Co165 2.351 . S
O190 C193 1.244 . S
O191 Co165 2.155 . S
O191 C193 1.240 . S
O192 Co165 2.096 1_565 S
O192 C173 1.247 . S
C193 O190 1.244 . S
C193 O191 1.240 . S
H194 C168 0.931 . S
H195 C177 0.931 . S
H196 C181 0.929 . S
H197 C183 0.930 . S
Co198 N202 2.128 1_455 S
Co198 N208 2.150 . S
Co198 N218 2.192 1_455 S
Co198 O223 2.326 1_455 S
Co198 O224 2.140 1_455 S
Co198 O225 2.115 . S
C199 N202 1.301 . S
C199 N203 1.328 . S
C199 H204 0.930 . S
C200 C201 1.333 . S
C200 N202 1.317 . S
C200 H205 0.930 . S
C201 C200 1.333 . S
C201 N203 1.350 . S
C201 H227 0.931 . S
N202 Co198 2.128 1_655 S
N202 C199 1.301 . S
N202 C200 1.317 . S
N203 C199 1.328 . S
N203 C201 1.350 . S
H204 C199 0.930 . S
H205 C200 0.930 . S
C206 O207 1.224 . S
C206 O225 1.247 . S
O207 C206 1.224 . S
N208 Co198 2.150 . S
N208 C209 1.355 . S
N208 C211 1.311 . S
C209 N208 1.355 . S
C209 C210 1.363 . S
C209 H221 0.929 . S
C210 C209 1.363 . S
C210 N212 1.375 . S
C210 H228 0.931 . S
C211 N208 1.311 . S
C211 N212 1.347 . S
C211 H222 0.929 . S
N212 C210 1.375 . S
N212 C211 1.347 . S
C213 C216 1.365 . S
C213 N218 1.328 . S
C213 H219 0.929 . S
C214 C215 1.362 . S
C214 C217 1.378 . S
C214 H229 0.929 . S
C215 C214 1.362 . S
C215 C216 1.366 1_455 S
C216 C213 1.365 . S
C216 C215 1.366 1_655 S
C216 H230 0.930 . S
C217 C214 1.378 . S
C217 N218 1.315 1_455 S
C217 H220 0.930 . S
N218 Co198 2.192 1_655 S
N218 C213 1.328 . S
N218 C217 1.315 1_655 S
H219 C213 0.929 . S
H220 C217 0.930 . S
H221 C209 0.929 . S
H222 C211 0.929 . S
O223 Co198 2.326 1_655 S
O223 C226 1.244 . S
O224 Co198 2.140 1_655 S
O224 C226 1.240 . S
O225 Co198 2.115 . S
O225 C206 1.247 . S
C226 O223 1.244 . S
C226 O224 1.240 . S
H227 C201 0.931 . S
H228 C210 0.931 . S
H229 C214 0.929 . S
H230 C216 0.930 . S
Co231 N235 2.148 . S
Co231 N241 2.128 1_545 S
Co231 N251 2.194 . S
Co231 O256 2.351 . S
Co231 O257 2.155 . S
Co231 O258 2.096 1_545 S
C232 N235 1.301 . S
C232 N236 1.328 . S
C232 H237 0.930 . S
C233 C234 1.333 . S
C233 N235 1.317 . S
C233 H238 0.930 . S
C234 C233 1.333 . S
C234 N236 1.350 . S
C234 H260 0.931 . S
N235 Co231 2.148 . S
N235 C232 1.301 . S
N235 C233 1.317 . S
N236 C232 1.328 . S
N236 C234 1.350 . S
H237 C232 0.930 . S
H238 C233 0.930 . S
C239 O240 1.224 . S
C239 O258 1.247 . S
O240 C239 1.224 . S
N241 Co231 2.128 1_565 S
N241 C242 1.355 . S
N241 C244 1.311 . S
C242 N241 1.355 . S
C242 C243 1.363 . S
C242 H254 0.929 . S
C243 C242 1.363 . S
C243 N245 1.375 . S
C243 H261 0.931 . S
C244 N241 1.311 . S
C244 N245 1.347 . S
C244 H255 0.929 . S
N245 C243 1.375 . S
N245 C244 1.347 . S
C246 C249 1.365 . S
C246 N251 1.328 . S
C246 H252 0.929 . S
C247 C248 1.362 1_565 S
C247 C250 1.378 . S
C247 H262 0.929 . S
C248 C247 1.362 1_545 S
C248 C249 1.366 . S
C249 C246 1.365 . S
C249 C248 1.366 . S
C249 H263 0.930 . S
C250 C247 1.378 . S
C250 N251 1.315 1_565 S
C250 H253 0.930 . S
N251 Co231 2.194 . S
N251 C246 1.328 . S
N251 C250 1.315 1_545 S
H252 C246 0.929 . S
H253 C250 0.930 . S
H254 C242 0.929 . S
H255 C244 0.929 . S
O256 Co231 2.351 . S
O256 C259 1.244 . S
O257 Co231 2.155 . S
O257 C259 1.240 . S
O258 Co231 2.096 1_565 S
O258 C239 1.247 . S
C259 O256 1.244 . S
C259 O257 1.240 . S
H260 C234 0.931 . S
H261 C243 0.931 . S
H262 C247 0.929 . S
H263 C249 0.930 . S
Co264 N268 2.148 1_554 S
Co264 N274 2.128 . S
Co264 N284 2.193 . S
Co264 O289 2.351 1_554 S
Co264 O290 2.155 1_554 S
Co264 O291 2.096 . S
C265 N268 1.301 . S
C265 N269 1.328 . S
C265 H270 0.930 . S
C266 C267 1.333 . S
C266 N268 1.317 . S
C266 H271 0.930 . S
C267 C266 1.333 . S
C267 N269 1.350 . S
C267 H293 0.931 . S
N268 Co264 2.148 1_556 S
N268 C265 1.301 . S
N268 C266 1.317 . S
N269 C265 1.328 . S
N269 C267 1.350 . S
H270 C265 0.930 . S
H271 C266 0.930 . S
C272 O273 1.224 . S
C272 O291 1.247 . S
O273 C272 1.224 . S
N274 Co264 2.128 . S
N274 C275 1.355 . S
N274 C277 1.311 . S
C275 N274 1.355 . S
C275 C276 1.363 . S
C275 H287 0.929 . S
C276 C275 1.363 . S
C276 N278 1.375 . S
C276 H294 0.931 . S
C277 N274 1.311 . S
C277 N278 1.347 . S
C277 H288 0.929 . S
N278 C276 1.375 . S
N278 C277 1.347 . S
C279 C282 1.365 . S
C279 N284 1.329 1_556 S
C279 H285 0.929 . S
C280 C281 1.362 . S
C280 C283 1.378 . S
C280 H295 0.929 . S
C281 C280 1.362 . S
C281 C282 1.366 1_554 S
C282 C279 1.365 . S
C282 C281 1.366 1_556 S
C282 H296 0.930 . S
C283 C280 1.378 . S
C283 N284 1.314 . S
C283 H286 0.930 . S
N284 Co264 2.193 . S
N284 C279 1.329 1_554 S
N284 C283 1.314 . S
H285 C279 0.929 . S
H286 C283 0.930 . S
H287 C275 0.929 . S
H288 C277 0.929 . S
O289 Co264 2.351 1_556 S
O289 C292 1.244 . S
O290 Co264 2.155 1_556 S
O290 C292 1.240 . S
O291 Co264 2.096 . S
O291 C272 1.247 . S
C292 O289 1.244 . S
C292 O290 1.240 . S
H293 C267 0.931 . S
H294 C276 0.931 . S
H295 C280 0.929 . S
H296 C282 0.930 . S
Co297 N301 2.148 . S
Co297 N307 2.128 1_554 S
Co297 N317 2.194 . S
Co297 O322 2.351 . S
Co297 O323 2.155 . S
Co297 O324 2.096 1_554 S
C298 N301 1.301 . S
C298 N302 1.328 . S
C298 H303 0.930 . S
C299 C300 1.333 . S
C299 N301 1.317 . S
C299 H304 0.930 . S
C300 C299 1.333 . S
C300 N302 1.350 . S
C300 H326 0.931 . S
N301 Co297 2.148 . S
N301 C298 1.301 . S
N301 C299 1.317 . S
N302 C298 1.328 . S
N302 C300 1.350 . S
H303 C298 0.930 . S
H304 C299 0.930 . S
C305 O306 1.224 . S
C305 O324 1.247 . S
O306 C305 1.224 . S
N307 Co297 2.128 1_556 S
N307 C308 1.355 . S
N307 C310 1.311 . S
C308 N307 1.355 . S
C308 C309 1.363 . S
C308 H320 0.929 . S
C309 C308 1.363 . S
C309 N311 1.375 . S
C309 H327 0.931 . S
C310 N307 1.311 . S
C310 N311 1.347 . S
C310 H321 0.929 . S
N311 C309 1.375 . S
N311 C310 1.347 . S
C312 C315 1.365 . S
C312 N317 1.328 . S
C312 H318 0.929 . S
C313 C314 1.362 1_556 S
C313 C316 1.378 . S
C313 H328 0.929 . S
C314 C313 1.362 1_554 S
C314 C315 1.366 . S
C315 C312 1.365 . S
C315 C314 1.366 . S
C315 H329 0.930 . S
C316 C313 1.378 . S
C316 N317 1.315 1_556 S
C316 H319 0.930 . S
N317 Co297 2.194 . S
N317 C312 1.328 . S
N317 C316 1.315 1_554 S
H318 C312 0.929 . S
H319 C316 0.930 . S
H320 C308 0.929 . S
H321 C310 0.929 . S
O322 Co297 2.351 . S
O322 C325 1.244 . S
O323 Co297 2.155 . S
O323 C325 1.240 . S
O324 Co297 2.096 1_556 S
O324 C305 1.247 . S
C325 O322 1.244 . S
C325 O323 1.240 . S
H326 C300 0.931 . S
H327 C309 0.931 . S
H328 C313 0.929 . S
H329 C315 0.930 . S
Co330 N334 2.148 . S
Co330 N340 2.128 1_554 S
Co330 N350 2.194 . S
Co330 O355 2.351 . S
Co330 O356 2.155 . S
Co330 O357 2.096 1_554 S
C331 N334 1.301 . S
C331 N335 1.328 . S
C331 H336 0.930 . S
C332 C333 1.333 . S
C332 N334 1.317 . S
C332 H337 0.930 . S
C333 C332 1.333 . S
C333 N335 1.350 . S
C333 H359 0.931 . S
N334 Co330 2.148 . S
N334 C331 1.301 . S
N334 C332 1.317 . S
N335 C331 1.328 . S
N335 C333 1.350 . S
H336 C331 0.930 . S
H337 C332 0.930 . S
C338 O339 1.224 . S
C338 O357 1.247 . S
O339 C338 1.224 . S
N340 Co330 2.128 1_556 S
N340 C341 1.355 . S
N340 C343 1.311 . S
C341 N340 1.355 . S
C341 C342 1.363 . S
C341 H353 0.929 . S
C342 C341 1.363 . S
C342 N344 1.375 . S
C342 H360 0.931 . S
C343 N340 1.311 . S
C343 N344 1.347 . S
C343 H354 0.929 . S
N344 C342 1.375 . S
N344 C343 1.347 . S
C345 C348 1.365 . S
C345 N350 1.328 . S
C345 H351 0.929 . S
C346 C347 1.362 1_556 S
C346 C349 1.378 . S
C346 H361 0.929 . S
C347 C346 1.362 1_554 S
C347 C348 1.366 . S
C348 C345 1.365 . S
C348 C347 1.366 . S
C348 H362 0.930 . S
C349 C346 1.378 . S
C349 N350 1.315 1_556 S
C349 H352 0.930 . S
N350 Co330 2.194 . S
N350 C345 1.328 . S
N350 C349 1.315 1_554 S
H351 C345 0.929 . S
H352 C349 0.930 . S
H353 C341 0.929 . S
H354 C343 0.929 . S
O355 Co330 2.351 . S
O355 C358 1.244 . S
O356 Co330 2.155 . S
O356 C358 1.240 . S
O357 Co330 2.096 1_556 S
O357 C338 1.247 . S
C358 O355 1.244 . S
C358 O356 1.240 . S
H359 C333 0.931 . S
H360 C342 0.931 . S
H361 C346 0.929 . S
H362 C348 0.930 . S
Co363 N367 2.148 . S
Co363 N373 2.128 1_554 S
Co363 N383 2.194 . S
Co363 O388 2.351 . S
Co363 O389 2.155 . S
Co363 O390 2.096 1_554 S
C364 N367 1.301 . S
C364 N368 1.328 . S
C364 H369 0.930 . S
C365 C366 1.333 . S
C365 N367 1.317 . S
C365 H370 0.930 . S
C366 C365 1.333 . S
C366 N368 1.350 . S
C366 H392 0.931 . S
N367 Co363 2.148 . S
N367 C364 1.301 . S
N367 C365 1.317 . S
N368 C364 1.328 . S
N368 C366 1.350 . S
H369 C364 0.930 . S
H370 C365 0.930 . S
C371 O372 1.224 . S
C371 O390 1.247 . S
O372 C371 1.224 . S
N373 Co363 2.128 1_556 S
N373 C374 1.355 . S
N373 C376 1.311 . S
C374 N373 1.355 . S
C374 C375 1.363 . S
C374 H386 0.929 . S
C375 C374 1.363 . S
C375 N377 1.375 . S
C375 H393 0.931 . S
C376 N373 1.311 . S
C376 N377 1.347 . S
C376 H387 0.929 . S
N377 C375 1.375 . S
N377 C376 1.347 . S
C378 C381 1.365 . S
C378 N383 1.328 . S
C378 H384 0.929 . S
C379 C380 1.362 1_556 S
C379 C382 1.378 . S
C379 H394 0.929 . S
C380 C379 1.362 1_554 S
C380 C381 1.366 . S
C381 C378 1.365 . S
C381 C380 1.366 . S
C381 H395 0.930 . S
C382 C379 1.378 . S
C382 N383 1.315 1_556 S
C382 H385 0.930 . S
N383 Co363 2.194 . S
N383 C378 1.328 . S
N383 C382 1.315 1_554 S
H384 C378 0.929 . S
H385 C382 0.930 . S
H386 C374 0.929 . S
H387 C376 0.929 . S
O388 Co363 2.351 . S
O388 C391 1.244 . S
O389 Co363 2.155 . S
O389 C391 1.240 . S
O390 Co363 2.096 1_556 S
O390 C371 1.247 . S
C391 O388 1.244 . S
C391 O389 1.240 . S
H392 C366 0.931 . S
H393 C375 0.931 . S
H394 C379 0.929 . S
H395 C381 0.930 . S
Co396 N400 2.130 1_455 S
Co396 N406 2.148 . S
Co396 N416 2.192 1_455 S
Co396 O421 2.329 1_455 S
Co396 O422 2.142 1_455 S
Co396 O423 2.113 . S
C397 N400 1.301 . S
C397 N401 1.328 . S
C397 H402 0.930 . S
C398 C399 1.333 . S
C398 N400 1.317 . S
C398 H403 0.930 . S
C399 C398 1.333 . S
C399 N401 1.350 . S
C399 H425 0.931 . S
N400 Co396 2.130 1_655 S
N400 C397 1.301 . S
N400 C398 1.317 . S
N401 C397 1.328 . S
N401 C399 1.350 . S
H402 C397 0.930 . S
H403 C398 0.930 . S
C404 O405 1.224 . S
C404 O423 1.247 . S
O405 C404 1.224 . S
N406 Co396 2.148 . S
N406 C407 1.355 . S
N406 C409 1.311 . S
C407 N406 1.355 . S
C407 C408 1.363 . S
C407 H419 0.929 . S
C408 C407 1.363 . S
C408 N410 1.375 . S
C408 H426 0.931 . S
C409 N406 1.311 . S
C409 N410 1.347 . S
C409 H420 0.929 . S
N410 C408 1.375 . S
N410 C409 1.347 . S
C411 C414 1.365 . S
C411 N416 1.328 . S
C411 H417 0.929 . S
C412 C413 1.385 . S
C412 C415 1.378 . S
C412 H427 0.929 . S
C413 C412 1.385 . S
C413 C414 1.342 1_455 S
C414 C411 1.365 . S
C414 C413 1.342 1_655 S
C414 H428 0.930 . S
C415 C412 1.378 . S
C415 N416 1.315 1_455 S
C415 H418 0.930 . S
N416 Co396 2.192 1_655 S
N416 C411 1.328 . S
N416 C415 1.315 1_655 S
H417 C411 0.929 . S
H418 C415 0.930 . S
H419 C407 0.929 . S
H420 C409 0.929 . S
O421 Co396 2.329 1_655 S
O421 C424 1.244 . S
O422 Co396 2.142 1_655 S
O422 C424 1.240 . S
O423 Co396 2.113 . S
O423 C404 1.247 . S
C424 O421 1.244 . S
C424 O422 1.240 . S
H425 C399 0.931 . S
H426 C408 0.931 . S
H427 C412 0.929 . S
H428 C414 0.930 . S
Co429 N433 2.148 . S
Co429 N439 2.128 . S
Co429 N449 2.194 . S
Co429 O454 2.351 . S
Co429 O455 2.155 . S
Co429 O456 2.096 . S
C430 N433 1.301 . S
C430 N434 1.328 . S
C430 H435 0.930 . S
C431 C432 1.333 . S
C431 N433 1.317 . S
C431 H436 0.930 . S
C432 C431 1.333 . S
C432 N434 1.350 . S
C432 H458 0.931 . S
N433 Co429 2.148 . S
N433 C430 1.301 . S
N433 C431 1.317 . S
N434 C430 1.328 . S
N434 C432 1.350 . S
H435 C430 0.930 . S
H436 C431 0.930 . S
C437 O438 1.224 . S
C437 O456 1.247 . S
O438 C437 1.224 . S
N439 Co429 2.128 . S
N439 C440 1.355 . S
N439 C442 1.311 . S
C440 N439 1.355 . S
C440 C441 1.363 . S
C440 H452 0.929 . S
C441 C440 1.363 . S
C441 N443 1.375 . S
C441 H459 0.931 . S
C442 N439 1.311 . S
C442 N443 1.347 . S
C442 H453 0.929 . S
N443 C441 1.375 . S
N443 C442 1.347 . S
C444 C447 1.365 . S
C444 N449 1.328 . S
C444 H450 0.929 . S
C445 C446 1.362 . S
C445 C448 1.378 . S
C445 H460 0.929 . S
C446 C445 1.362 . S
C446 C447 1.366 . S
C447 C444 1.365 . S
C447 C446 1.366 . S
C447 H461 0.930 . S
C448 C445 1.378 . S
C448 N449 1.315 . S
C448 H451 0.930 . S
N449 Co429 2.194 . S
N449 C444 1.328 . S
N449 C448 1.315 . S
H450 C444 0.929 . S
H451 C448 0.930 . S
H452 C440 0.929 . S
H453 C442 0.929 . S
O454 Co429 2.351 . S
O454 C457 1.244 . S
O455 Co429 2.155 . S
O455 C457 1.240 . S
O456 Co429 2.096 . S
O456 C437 1.247 . S
C457 O454 1.244 . S
C457 O455 1.240 . S
H458 C432 0.931 . S
H459 C441 0.931 . S
H460 C445 0.929 . S
H461 C447 0.930 . S
Co462 N466 2.147 . S
Co462 N472 2.130 1_655 S
Co462 N482 2.193 . S
Co462 O487 2.349 . S
Co462 O488 2.154 . S
Co462 O489 2.097 1_655 S
C463 N466 1.301 . S
C463 N467 1.328 . S
C463 H468 0.930 . S
C464 C465 1.333 . S
C464 N466 1.317 . S
C464 H469 0.930 . S
C465 C464 1.333 . S
C465 N467 1.350 . S
C465 H491 0.931 . S
N466 Co462 2.147 . S
N466 C463 1.301 . S
N466 C464 1.317 . S
N467 C463 1.328 . S
N467 C465 1.350 . S
H468 C463 0.930 . S
H469 C464 0.930 . S
C470 O471 1.224 . S
C470 O489 1.247 . S
O471 C470 1.224 . S
N472 Co462 2.130 1_455 S
N472 C473 1.355 . S
N472 C475 1.311 . S
C473 N472 1.355 . S
C473 C474 1.363 . S
C473 H485 0.929 . S
C474 C473 1.363 . S
C474 N476 1.375 . S
C474 H492 0.931 . S
C475 N472 1.311 . S
C475 N476 1.347 . S
C475 H486 0.929 . S
N476 C474 1.375 . S
N476 C475 1.347 . S
C477 C480 1.365 . S
C477 N482 1.328 . S
C477 H483 0.929 . S
C478 C479 1.363 1_455 S
C478 C481 1.378 . S
C478 H493 0.929 . S
C479 C478 1.363 1_655 S
C479 C480 1.366 . S
C480 C477 1.365 . S
C480 C479 1.366 . S
C480 H494 0.930 . S
C481 C478 1.378 . S
C481 N482 1.315 1_455 S
C481 H484 0.930 . S
N482 Co462 2.193 . S
N482 C477 1.328 . S
N482 C481 1.315 1_655 S
H483 C477 0.929 . S
H484 C481 0.930 . S
H485 C473 0.929 . S
H486 C475 0.929 . S
O487 Co462 2.349 . S
O487 C490 1.244 . S
O488 Co462 2.154 . S
O488 C490 1.240 . S
O489 Co462 2.097 1_455 S
O489 C470 1.247 . S
C490 O487 1.244 . S
C490 O488 1.240 . S
H491 C465 0.931 . S
H492 C474 0.931 . S
H493 C478 0.929 . S
H494 C480 0.930 . S
Co495 N499 2.148 . S
Co495 N505 2.128 . S
Co495 N515 2.194 . S
Co495 O520 2.351 . S
Co495 O521 2.155 . S
Co495 O522 2.096 . S
C496 N499 1.301 . S
C496 N500 1.328 . S
C496 H501 0.930 . S
C497 C498 1.333 . S
C497 N499 1.317 . S
C497 H502 0.930 . S
C498 C497 1.333 . S
C498 N500 1.350 . S
C498 H524 0.931 . S
N499 Co495 2.148 . S
N499 C496 1.301 . S
N499 C497 1.317 . S
N500 C496 1.328 . S
N500 C498 1.350 . S
H501 C496 0.930 . S
H502 C497 0.930 . S
C503 O504 1.224 . S
C503 O522 1.247 . S
O504 C503 1.224 . S
N505 Co495 2.128 . S
N505 C506 1.355 . S
N505 C508 1.311 . S
C506 N505 1.355 . S
C506 C507 1.363 . S
C506 H518 0.929 . S
C507 C506 1.363 . S
C507 N509 1.375 . S
C507 H525 0.931 . S
C508 N505 1.311 . S
C508 N509 1.347 . S
C508 H519 0.929 . S
N509 C507 1.375 . S
N509 C508 1.347 . S
C510 C513 1.365 . S
C510 N515 1.328 . S
C510 H516 0.929 . S
C511 C512 1.362 . S
C511 C514 1.378 . S
C511 H526 0.929 . S
C512 C511 1.362 . S
C512 C513 1.366 . S
C513 C510 1.365 . S
C513 C512 1.366 . S
C513 H527 0.930 . S
C514 C511 1.378 . S
C514 N515 1.315 . S
C514 H517 0.930 . S
N515 Co495 2.194 . S
N515 C510 1.328 . S
N515 C514 1.315 . S
H516 C510 0.929 . S
H517 C514 0.930 . S
H518 C506 0.929 . S
H519 C508 0.929 . S
O520 Co495 2.351 . S
O520 C523 1.244 . S
O521 Co495 2.155 . S
O521 C523 1.240 . S
O522 Co495 2.096 . S
O522 C503 1.247 . S
C523 O520 1.244 . S
C523 O521 1.240 . S
H524 C498 0.931 . S
H525 C507 0.931 . S
H526 C511 0.929 . S
H527 C513 0.930 . S
Co528 N532 2.148 . S
Co528 N538 2.128 1_455 S
Co528 N548 2.194 . S
Co528 O553 2.351 . S
Co528 O554 2.155 . S
Co528 O555 2.096 1_455 S
C529 N532 1.301 . S
C529 N533 1.328 . S
C529 H534 0.930 . S
C530 C531 1.333 . S
C530 N532 1.317 . S
C530 H535 0.930 . S
C531 C530 1.333 . S
C531 N533 1.350 . S
C531 H557 0.931 . S
N532 Co528 2.148 . S
N532 C529 1.301 . S
N532 C530 1.317 . S
N533 C529 1.328 . S
N533 C531 1.350 . S
H534 C529 0.930 . S
H535 C530 0.930 . S
C536 O537 1.224 . S
C536 O555 1.247 . S
O537 C536 1.224 . S
N538 Co528 2.128 1_655 S
N538 C539 1.355 . S
N538 C541 1.311 . S
C539 N538 1.355 . S
C539 C540 1.363 . S
C539 H551 0.929 . S
C540 C539 1.363 . S
C540 N542 1.375 . S
C540 H558 0.931 . S
C541 N538 1.311 . S
C541 N542 1.347 . S
C541 H552 0.929 . S
N542 C540 1.375 . S
N542 C541 1.347 . S
C543 C546 1.365 . S
C543 N548 1.328 . S
C543 H549 0.929 . S
C544 C545 1.362 1_655 S
C544 C547 1.378 . S
C544 H559 0.929 . S
C545 C544 1.362 1_455 S
C545 C546 1.366 . S
C546 C543 1.365 . S
C546 C545 1.366 . S
C546 H560 0.930 . S
C547 C544 1.378 . S
C547 N548 1.315 1_655 S
C547 H550 0.930 . S
N548 Co528 2.194 . S
N548 C543 1.328 . S
N548 C547 1.315 1_455 S
H549 C543 0.929 . S
H550 C547 0.930 . S
H551 C539 0.929 . S
H552 C541 0.929 . S
O553 Co528 2.351 . S
O553 C556 1.244 . S
O554 Co528 2.155 . S
O554 C556 1.240 . S
O555 Co528 2.096 1_655 S
O555 C536 1.247 . S
C556 O553 1.244 . S
C556 O554 1.240 . S
H557 C531 0.931 . S
H558 C540 0.931 . S
H559 C544 0.929 . S
H560 C546 0.930 . S
Co561 N565 2.148 . S
Co561 N571 2.128 . S
Co561 N581 2.194 . S
Co561 O586 2.351 . S
Co561 O587 2.155 . S
Co561 O588 2.096 . S
C562 N565 1.301 . S
C562 N566 1.328 . S
C562 H567 0.930 . S
C563 C564 1.333 . S
C563 N565 1.317 . S
C563 H568 0.930 . S
C564 C563 1.333 . S
C564 N566 1.350 . S
C564 H590 0.931 . S
N565 Co561 2.148 . S
N565 C562 1.301 . S
N565 C563 1.317 . S
N566 C562 1.328 . S
N566 C564 1.350 . S
H567 C562 0.930 . S
H568 C563 0.930 . S
C569 O570 1.224 . S
C569 O588 1.247 . S
O570 C569 1.224 . S
N571 Co561 2.128 . S
N571 C572 1.355 . S
N571 C574 1.311 . S
C572 N571 1.355 . S
C572 C573 1.363 . S
C572 H584 0.929 . S
C573 C572 1.363 . S
C573 N575 1.375 . S
C573 H591 0.931 . S
C574 N571 1.311 . S
C574 N575 1.347 . S
C574 H585 0.929 . S
N575 C573 1.375 . S
N575 C574 1.347 . S
C576 C579 1.365 . S
C576 N581 1.328 . S
C576 H582 0.929 . S
C577 C578 1.362 . S
C577 C580 1.378 . S
C577 H592 0.929 . S
C578 C577 1.362 . S
C578 C579 1.366 . S
C579 C576 1.365 . S
C579 C578 1.366 . S
C579 H593 0.930 . S
C580 C577 1.378 . S
C580 N581 1.315 . S
C580 H583 0.930 . S
N581 Co561 2.194 . S
N581 C576 1.328 . S
N581 C580 1.315 . S
H582 C576 0.929 . S
H583 C580 0.930 . S
H584 C572 0.929 . S
H585 C574 0.929 . S
O586 Co561 2.351 . S
O586 C589 1.244 . S
O587 Co561 2.155 . S
O587 C589 1.240 . S
O588 Co561 2.096 . S
O588 C569 1.247 . S
C589 O586 1.244 . S
C589 O587 1.240 . S
H590 C564 0.931 . S
H591 C573 0.931 . S
H592 C577 0.929 . S
H593 C579 0.930 . S
Co594 N598 2.148 1_455 S
Co594 N604 2.128 . S
Co594 N614 2.194 1_455 S
Co594 O619 2.351 1_455 S
Co594 O620 2.155 1_455 S
Co594 O621 2.096 . S
C595 N598 1.301 . S
C595 N599 1.328 . S
C595 H600 0.930 . S
C596 C597 1.333 . S
C596 N598 1.317 . S
C596 H601 0.930 . S
C597 C596 1.333 . S
C597 N599 1.350 . S
C597 H623 0.931 . S
N598 Co594 2.148 1_655 S
N598 C595 1.301 . S
N598 C596 1.317 . S
N599 C595 1.328 . S
N599 C597 1.350 . S
H600 C595 0.930 . S
H601 C596 0.930 . S
C602 O603 1.224 . S
C602 O621 1.247 . S
O603 C602 1.224 . S
N604 Co594 2.128 . S
N604 C605 1.355 . S
N604 C607 1.311 . S
C605 N604 1.355 . S
C605 C606 1.363 . S
C605 H617 0.929 . S
C606 C605 1.363 . S
C606 N608 1.375 . S
C606 H624 0.931 . S
C607 N604 1.311 . S
C607 N608 1.347 . S
C607 H618 0.929 . S
N608 C606 1.375 . S
N608 C607 1.347 . S
C609 C612 1.365 . S
C609 N614 1.328 . S
C609 H615 0.929 . S
C610 C611 1.362 . S
C610 C613 1.378 . S
C610 H625 0.929 . S
C611 C610 1.362 . S
C611 C612 1.366 1_455 S
C612 C609 1.365 . S
C612 C611 1.366 1_655 S
C612 H626 0.930 . S
C613 C610 1.378 . S
C613 N614 1.315 1_455 S
C613 H616 0.930 . S
N614 Co594 2.194 1_655 S
N614 C609 1.328 . S
N614 C613 1.315 1_655 S
H615 C609 0.929 . S
H616 C613 0.930 . S
H617 C605 0.929 . S
H618 C607 0.929 . S
O619 Co594 2.351 1_655 S
O619 C622 1.244 . S
O620 Co594 2.155 1_655 S
O620 C622 1.240 . S
O621 Co594 2.096 . S
O621 C602 1.247 . S
C622 O619 1.244 . S
C622 O620 1.240 . S
H623 C597 0.931 . S
H624 C606 0.931 . S
H625 C610 0.929 . S
H626 C612 0.930 . S
Co627 N631 2.148 . S
Co627 N637 2.128 . S
Co627 N647 2.194 . S
Co627 O652 2.351 . S
Co627 O653 2.155 . S
Co627 O654 2.096 . S
C628 N631 1.301 . S
C628 N632 1.328 . S
C628 H633 0.930 . S
C629 C630 1.333 . S
C629 N631 1.317 . S
C629 H634 0.930 . S
C630 C629 1.333 . S
C630 N632 1.350 . S
C630 H656 0.931 . S
N631 Co627 2.148 . S
N631 C628 1.301 . S
N631 C629 1.317 . S
N632 C628 1.328 . S
N632 C630 1.350 . S
H633 C628 0.930 . S
H634 C629 0.930 . S
C635 O636 1.224 . S
C635 O654 1.247 . S
O636 C635 1.224 . S
N637 Co627 2.128 . S
N637 C638 1.355 . S
N637 C640 1.311 . S
C638 N637 1.355 . S
C638 C639 1.363 . S
C638 H650 0.929 . S
C639 C638 1.363 . S
C639 N641 1.375 . S
C639 H657 0.931 . S
C640 N637 1.311 . S
C640 N641 1.347 . S
C640 H651 0.929 . S
N641 C639 1.375 . S
N641 C640 1.347 . S
C642 C645 1.365 . S
C642 N647 1.328 . S
C642 H648 0.929 . S
C643 C644 1.362 . S
C643 C646 1.378 . S
C643 H658 0.929 . S
C644 C643 1.362 . S
C644 C645 1.366 . S
C645 C642 1.365 . S
C645 C644 1.366 . S
C645 H659 0.930 . S
C646 C643 1.378 . S
C646 N647 1.315 . S
C646 H649 0.930 . S
N647 Co627 2.194 . S
N647 C642 1.328 . S
N647 C646 1.315 . S
H648 C642 0.929 . S
H649 C646 0.930 . S
H650 C638 0.929 . S
H651 C640 0.929 . S
O652 Co627 2.351 . S
O652 C655 1.244 . S
O653 Co627 2.155 . S
O653 C655 1.240 . S
O654 Co627 2.096 . S
O654 C635 1.247 . S
C655 O652 1.244 . S
C655 O653 1.240 . S
H656 C630 0.931 . S
H657 C639 0.931 . S
H658 C643 0.929 . S
H659 C645 0.930 . S
Co660 N664 2.148 . S
Co660 N670 2.128 . S
Co660 N680 2.194 . S
Co660 O685 2.351 . S
Co660 O686 2.155 . S
Co660 O687 2.096 . S
C661 N664 1.301 . S
C661 N665 1.328 . S
C661 H666 0.930 . S
C662 C663 1.333 . S
C662 N664 1.317 . S
C662 H667 0.930 . S
C663 C662 1.333 . S
C663 N665 1.350 . S
C663 H689 0.931 . S
N664 Co660 2.148 . S
N664 C661 1.301 . S
N664 C662 1.317 . S
N665 C661 1.328 . S
N665 C663 1.350 . S
H666 C661 0.930 . S
H667 C662 0.930 . S
C668 O669 1.224 . S
C668 O687 1.247 . S
O669 C668 1.224 . S
N670 Co660 2.128 . S
N670 C671 1.355 . S
N670 C673 1.311 . S
C671 N670 1.355 . S
C671 C672 1.363 . S
C671 H683 0.929 . S
C672 C671 1.363 . S
C672 N674 1.375 . S
C672 H690 0.931 . S
C673 N670 1.311 . S
C673 N674 1.347 . S
C673 H684 0.929 . S
N674 C672 1.375 . S
N674 C673 1.347 . S
C675 C678 1.365 . S
C675 N680 1.328 . S
C675 H681 0.929 . S
C676 C677 1.362 . S
C676 C679 1.378 . S
C676 H691 0.929 . S
C677 C676 1.362 . S
C677 C678 1.366 . S
C678 C675 1.365 . S
C678 C677 1.366 . S
C678 H692 0.930 . S
C679 C676 1.378 . S
C679 N680 1.315 . S
C679 H682 0.930 . S
N680 Co660 2.194 . S
N680 C675 1.328 . S
N680 C679 1.315 . S
H681 C675 0.929 . S
H682 C679 0.930 . S
H683 C671 0.929 . S
H684 C673 0.929 . S
O685 Co660 2.351 . S
O685 C688 1.244 . S
O686 Co660 2.155 . S
O686 C688 1.240 . S
O687 Co660 2.096 . S
O687 C668 1.247 . S
C688 O685 1.244 . S
C688 O686 1.240 . S
H689 C663 0.931 . S
H690 C672 0.931 . S
H691 C676 0.929 . S
H692 C678 0.930 . S
Co693 N697 2.148 . S
Co693 N703 2.128 . S
Co693 N713 2.194 . S
Co693 O718 2.351 . S
Co693 O719 2.155 . S
Co693 O720 2.096 . S
C694 N697 1.301 . S
C694 N698 1.328 . S
C694 H699 0.930 . S
C695 C696 1.333 . S
C695 N697 1.317 . S
C695 H700 0.930 . S
C696 C695 1.333 . S
C696 N698 1.350 . S
C696 H722 0.931 . S
N697 Co693 2.148 . S
N697 C694 1.301 . S
N697 C695 1.317 . S
N698 C694 1.328 . S
N698 C696 1.350 . S
H699 C694 0.930 . S
H700 C695 0.930 . S
C701 O702 1.224 . S
C701 O720 1.247 . S
O702 C701 1.224 . S
N703 Co693 2.128 . S
N703 C704 1.355 . S
N703 C706 1.311 . S
C704 N703 1.355 . S
C704 C705 1.363 . S
C704 H716 0.929 . S
C705 C704 1.363 . S
C705 N707 1.375 . S
C705 H723 0.931 . S
C706 N703 1.311 . S
C706 N707 1.347 . S
C706 H717 0.929 . S
N707 C705 1.375 . S
N707 C706 1.347 . S
C708 C711 1.365 . S
C708 N713 1.328 . S
C708 H714 0.929 . S
C709 C710 1.362 . S
C709 C712 1.378 . S
C709 H724 0.929 . S
C710 C709 1.362 . S
C710 C711 1.366 . S
C711 C708 1.365 . S
C711 C710 1.366 . S
C711 H725 0.930 . S
C712 C709 1.378 . S
C712 N713 1.315 . S
C712 H715 0.930 . S
N713 Co693 2.194 . S
N713 C708 1.328 . S
N713 C712 1.315 . S
H714 C708 0.929 . S
H715 C712 0.930 . S
H716 C704 0.929 . S
H717 C706 0.929 . S
O718 Co693 2.351 . S
O718 C721 1.244 . S
O719 Co693 2.155 . S
O719 C721 1.240 . S
O720 Co693 2.096 . S
O720 C701 1.247 . S
C721 O718 1.244 . S
C721 O719 1.240 . S
H722 C696 0.931 . S
H723 C705 0.931 . S
H724 C709 0.929 . S
H725 C711 0.930 . S
Co726 N730 2.148 . S
Co726 N736 2.128 . S
Co726 N746 2.194 . S
Co726 O751 2.351 . S
Co726 O752 2.155 . S
Co726 O753 2.096 . S
C727 N730 1.301 . S
C727 N731 1.328 . S
C727 H732 0.930 . S
C728 C729 1.333 . S
C728 N730 1.317 . S
C728 H733 0.930 . S
C729 C728 1.333 . S
C729 N731 1.350 . S
C729 H755 0.931 . S
N730 Co726 2.148 . S
N730 C727 1.301 . S
N730 C728 1.317 . S
N731 C727 1.328 . S
N731 C729 1.350 . S
H732 C727 0.930 . S
H733 C728 0.930 . S
C734 O735 1.224 . S
C734 O753 1.247 . S
O735 C734 1.224 . S
N736 Co726 2.128 . S
N736 C737 1.355 . S
N736 C739 1.311 . S
C737 N736 1.355 . S
C737 C738 1.363 . S
C737 H749 0.929 . S
C738 C737 1.363 . S
C738 N740 1.375 . S
C738 H756 0.931 . S
C739 N736 1.311 . S
C739 N740 1.347 . S
C739 H750 0.929 . S
N740 C738 1.375 . S
N740 C739 1.347 . S
C741 C744 1.365 . S
C741 N746 1.328 . S
C741 H747 0.929 . S
C742 C743 1.362 . S
C742 C745 1.378 . S
C742 H757 0.929 . S
C743 C742 1.362 . S
C743 C744 1.366 . S
C744 C741 1.365 . S
C744 C743 1.366 . S
C744 H758 0.930 . S
C745 C742 1.378 . S
C745 N746 1.315 . S
C745 H748 0.930 . S
N746 Co726 2.194 . S
N746 C741 1.328 . S
N746 C745 1.315 . S
H747 C741 0.929 . S
H748 C745 0.930 . S
H749 C737 0.929 . S
H750 C739 0.929 . S
O751 Co726 2.351 . S
O751 C754 1.244 . S
O752 Co726 2.155 . S
O752 C754 1.240 . S
O753 Co726 2.096 . S
O753 C734 1.247 . S
C754 O751 1.244 . S
C754 O752 1.240 . S
H755 C729 0.931 . S
H756 C738 0.931 . S
H757 C742 0.929 . S
H758 C744 0.930 . S
Co759 N763 2.148 . S
Co759 N769 2.128 . S
Co759 N779 2.194 . S
Co759 O784 2.351 . S
Co759 O785 2.155 . S
Co759 O786 2.096 . S
C760 N763 1.301 . S
C760 N764 1.328 . S
C760 H765 0.930 . S
C761 C762 1.333 . S
C761 N763 1.317 . S
C761 H766 0.930 . S
C762 C761 1.333 . S
C762 N764 1.350 . S
C762 H788 0.931 . S
N763 Co759 2.148 . S
N763 C760 1.301 . S
N763 C761 1.317 . S
N764 C760 1.328 . S
N764 C762 1.350 . S
H765 C760 0.930 . S
H766 C761 0.930 . S
C767 O768 1.224 . S
C767 O786 1.247 . S
O768 C767 1.224 . S
N769 Co759 2.128 . S
N769 C770 1.355 . S
N769 C772 1.311 . S
C770 N769 1.355 . S
C770 C771 1.363 . S
C770 H782 0.929 . S
C771 C770 1.363 . S
C771 N773 1.375 . S
C771 H789 0.931 . S
C772 N769 1.311 . S
C772 N773 1.347 . S
C772 H783 0.929 . S
N773 C771 1.375 . S
N773 C772 1.347 . S
C774 C777 1.365 . S
C774 N779 1.328 . S
C774 H780 0.929 . S
C775 C776 1.362 . S
C775 C778 1.378 . S
C775 H790 0.929 . S
C776 C775 1.362 . S
C776 C777 1.366 . S
C777 C774 1.365 . S
C777 C776 1.366 . S
C777 H791 0.930 . S
C778 C775 1.378 . S
C778 N779 1.315 . S
C778 H781 0.930 . S
N779 Co759 2.194 . S
N779 C774 1.328 . S
N779 C778 1.315 . S
H780 C774 0.929 . S
H781 C778 0.930 . S
H782 C770 0.929 . S
H783 C772 0.929 . S
O784 Co759 2.351 . S
O784 C787 1.244 . S
O785 Co759 2.155 . S
O785 C787 1.240 . S
O786 Co759 2.096 . S
O786 C767 1.247 . S
C787 O784 1.244 . S
C787 O785 1.240 . S
H788 C762 0.931 . S
H789 C771 0.931 . S
H790 C775 0.929 . S
H791 C777 0.930 . S
Co792 N796 2.148 . S
Co792 N802 2.128 . S
Co792 N812 2.194 . S
Co792 O817 2.351 . S
Co792 O818 2.155 . S
Co792 O819 2.096 . S
C793 N796 1.301 . S
C793 N797 1.328 . S
C793 H798 0.930 . S
C794 C795 1.333 . S
C794 N796 1.317 . S
C794 H799 0.930 . S
C795 C794 1.333 . S
C795 N797 1.350 . S
C795 H821 0.931 . S
N796 Co792 2.148 . S
N796 C793 1.301 . S
N796 C794 1.317 . S
N797 C793 1.328 . S
N797 C795 1.350 . S
H798 C793 0.930 . S
H799 C794 0.930 . S
C800 O801 1.224 . S
C800 O819 1.247 . S
O801 C800 1.224 . S
N802 Co792 2.128 . S
N802 C803 1.355 . S
N802 C805 1.311 . S
C803 N802 1.355 . S
C803 C804 1.363 . S
C803 H815 0.929 . S
C804 C803 1.363 . S
C804 N806 1.375 . S
C804 H822 0.931 . S
C805 N802 1.311 . S
C805 N806 1.347 . S
C805 H816 0.929 . S
N806 C804 1.375 . S
N806 C805 1.347 . S
C807 C810 1.365 . S
C807 N812 1.328 . S
C807 H813 0.929 . S
C808 C809 1.362 . S
C808 C811 1.378 . S
C808 H823 0.929 . S
C809 C808 1.362 . S
C809 C810 1.366 . S
C810 C807 1.365 . S
C810 C809 1.366 . S
C810 H824 0.930 . S
C811 C808 1.378 . S
C811 N812 1.315 . S
C811 H814 0.930 . S
N812 Co792 2.194 . S
N812 C807 1.328 . S
N812 C811 1.315 . S
H813 C807 0.929 . S
H814 C811 0.930 . S
H815 C803 0.929 . S
H816 C805 0.929 . S
O817 Co792 2.351 . S
O817 C820 1.244 . S
O818 Co792 2.155 . S
O818 C820 1.240 . S
O819 Co792 2.096 . S
O819 C800 1.247 . S
C820 O817 1.244 . S
C820 O818 1.240 . S
H821 C795 0.931 . S
H822 C804 0.931 . S
H823 C808 0.929 . S
H824 C810 0.930 . S
Co825 N829 2.148 . S
Co825 N835 2.128 1_545 S
Co825 N845 2.194 . S
Co825 O850 2.351 . S
Co825 O851 2.155 . S
Co825 O852 2.096 1_545 S
C826 N829 1.301 . S
C826 N830 1.328 . S
C826 H831 0.930 . S
C827 C828 1.333 . S
C827 N829 1.317 . S
C827 H832 0.930 . S
C828 C827 1.333 . S
C828 N830 1.350 . S
C828 H854 0.931 . S
N829 Co825 2.148 . S
N829 C826 1.301 . S
N829 C827 1.317 . S
N830 C826 1.328 . S
N830 C828 1.350 . S
H831 C826 0.930 . S
H832 C827 0.930 . S
C833 O834 1.224 . S
C833 O852 1.247 . S
O834 C833 1.224 . S
N835 Co825 2.128 1_565 S
N835 C836 1.355 . S
N835 C838 1.311 . S
C836 N835 1.355 . S
C836 C837 1.363 . S
C836 H848 0.929 . S
C837 C836 1.363 . S
C837 N839 1.375 . S
C837 H855 0.931 . S
C838 N835 1.311 . S
C838 N839 1.347 . S
C838 H849 0.929 . S
N839 C837 1.375 . S
N839 C838 1.347 . S
C840 C843 1.365 . S
C840 N845 1.328 . S
C840 H846 0.929 . S
C841 C842 1.362 1_565 S
C841 C844 1.378 . S
C841 H856 0.929 . S
C842 C841 1.362 1_545 S
C842 C843 1.366 . S
C843 C840 1.365 . S
C843 C842 1.366 . S
C843 H857 0.930 . S
C844 C841 1.378 . S
C844 N845 1.315 1_565 S
C844 H847 0.930 . S
N845 Co825 2.194 . S
N845 C840 1.328 . S
N845 C844 1.315 1_545 S
H846 C840 0.929 . S
H847 C844 0.930 . S
H848 C836 0.929 . S
H849 C838 0.929 . S
O850 Co825 2.351 . S
O850 C853 1.244 . S
O851 Co825 2.155 . S
O851 C853 1.240 . S
O852 Co825 2.096 1_565 S
O852 C833 1.247 . S
C853 O850 1.244 . S
C853 O851 1.240 . S
H854 C828 0.931 . S
H855 C837 0.931 . S
H856 C841 0.929 . S
H857 C843 0.930 . S
Co858 N862 2.148 . S
Co858 N868 2.128 . S
Co858 N878 2.194 . S
Co858 O883 2.351 . S
Co858 O884 2.155 . S
Co858 O885 2.096 . S
C859 N862 1.301 . S
C859 N863 1.328 . S
C859 H864 0.930 . S
C860 C861 1.333 . S
C860 N862 1.317 . S
C860 H865 0.930 . S
C861 C860 1.333 . S
C861 N863 1.350 . S
C861 H887 0.931 . S
N862 Co858 2.148 . S
N862 C859 1.301 . S
N862 C860 1.317 . S
N863 C859 1.328 . S
N863 C861 1.350 . S
H864 C859 0.930 . S
H865 C860 0.930 . S
C866 O867 1.224 . S
C866 O885 1.247 . S
O867 C866 1.224 . S
N868 Co858 2.128 . S
N868 C869 1.355 . S
N868 C871 1.311 . S
C869 N868 1.355 . S
C869 C870 1.363 . S
C869 H881 0.929 . S
C870 C869 1.363 . S
C870 N872 1.375 . S
C870 H888 0.931 . S
C871 N868 1.311 . S
C871 N872 1.347 . S
C871 H882 0.929 . S
N872 C870 1.375 . S
N872 C871 1.347 . S
C873 C876 1.365 . S
C873 N878 1.328 . S
C873 H879 0.929 . S
C874 C875 1.362 . S
C874 C877 1.378 . S
C874 H889 0.929 . S
C875 C874 1.362 . S
C875 C876 1.366 . S
C876 C873 1.365 . S
C876 C875 1.366 . S
C876 H890 0.930 . S
C877 C874 1.378 . S
C877 N878 1.315 . S
C877 H880 0.930 . S
N878 Co858 2.194 . S
N878 C873 1.328 . S
N878 C877 1.315 . S
H879 C873 0.929 . S
H880 C877 0.930 . S
H881 C869 0.929 . S
H882 C871 0.929 . S
O883 Co858 2.351 . S
O883 C886 1.244 . S
O884 Co858 2.155 . S
O884 C886 1.240 . S
O885 Co858 2.096 . S
O885 C866 1.247 . S
C886 O883 1.244 . S
C886 O884 1.240 . S
H887 C861 0.931 . S
H888 C870 0.931 . S
H889 C874 0.929 . S
H890 C876 0.930 . S
Co891 N895 2.168 . S
Co891 N901 2.108 1_565 S
Co891 N911 2.195 . S
Co891 O916 2.375 . S
Co891 O917 2.169 . S
Co891 O918 2.076 1_565 S
C892 N895 1.301 . S
C892 N896 1.328 . S
C892 H897 0.930 . S
C893 C894 1.333 . S
C893 N895 1.317 . S
C893 H898 0.930 . S
C894 C893 1.333 . S
C894 N896 1.350 . S
C894 H920 0.931 . S
N895 Co891 2.168 . S
N895 C892 1.301 . S
N895 C893 1.317 . S
N896 C892 1.328 . S
N896 C894 1.350 . S
H897 C892 0.930 . S
H898 C893 0.930 . S
C899 O900 1.224 . S
C899 O918 1.247 . S
O900 C899 1.224 . S
N901 Co891 2.108 1_545 S
N901 C902 1.355 . S
N901 C904 1.311 . S
C902 N901 1.355 . S
C902 C903 1.363 . S
C902 H914 0.929 . S
C903 C902 1.363 . S
C903 N905 1.375 . S
C903 H921 0.931 . S
C904 N901 1.311 . S
C904 N905 1.347 . S
C904 H915 0.929 . S
N905 C903 1.375 . S
N905 C904 1.347 . S
C906 C909 1.365 . S
C906 N911 1.328 . S
C906 H912 0.929 . S
C907 C908 1.362 1_545 S
C907 C910 1.378 . S
C907 H922 0.929 . S
C908 C907 1.362 1_565 S
C908 C909 1.366 . S
C909 C906 1.365 . S
C909 C908 1.366 . S
C909 H923 0.930 . S
C910 C907 1.378 . S
C910 N911 1.315 1_545 S
C910 H913 0.930 . S
N911 Co891 2.195 . S
N911 C906 1.328 . S
N911 C910 1.315 1_565 S
H912 C906 0.929 . S
H913 C910 0.930 . S
H914 C902 0.929 . S
H915 C904 0.929 . S
O916 Co891 2.375 . S
O916 C919 1.244 . S
O917 Co891 2.169 . S
O917 C919 1.240 . S
O918 Co891 2.076 1_545 S
O918 C899 1.247 . S
C919 O916 1.244 . S
C919 O917 1.240 . S
H920 C894 0.931 . S
H921 C903 0.931 . S
H922 C907 0.929 . S
H923 C909 0.930 . S
Co924 N928 2.148 . S
Co924 N934 2.128 . S
Co924 N944 2.194 . S
Co924 O949 2.351 . S
Co924 O950 2.155 . S
Co924 O951 2.096 . S
C925 N928 1.301 . S
C925 N929 1.328 . S
C925 H930 0.930 . S
C926 C927 1.333 . S
C926 N928 1.317 . S
C926 H931 0.930 . S
C927 C926 1.333 . S
C927 N929 1.350 . S
C927 H953 0.931 . S
N928 Co924 2.148 . S
N928 C925 1.301 . S
N928 C926 1.317 . S
N929 C925 1.328 . S
N929 C927 1.350 . S
H930 C925 0.930 . S
H931 C926 0.930 . S
C932 O933 1.224 . S
C932 O951 1.247 . S
O933 C932 1.224 . S
N934 Co924 2.128 . S
N934 C935 1.355 . S
N934 C937 1.311 . S
C935 N934 1.355 . S
C935 C936 1.363 . S
C935 H947 0.929 . S
C936 C935 1.363 . S
C936 N938 1.375 . S
C936 H954 0.931 . S
C937 N934 1.311 . S
C937 N938 1.347 . S
C937 H948 0.929 . S
N938 C936 1.375 . S
N938 C937 1.347 . S
C939 C942 1.365 . S
C939 N944 1.328 . S
C939 H945 0.929 . S
C940 C941 1.362 . S
C940 C943 1.378 . S
C940 H955 0.929 . S
C941 C940 1.362 . S
C941 C942 1.366 . S
C942 C939 1.365 . S
C942 C941 1.366 . S
C942 H956 0.930 . S
C943 C940 1.378 . S
C943 N944 1.315 . S
C943 H946 0.930 . S
N944 Co924 2.194 . S
N944 C939 1.328 . S
N944 C943 1.315 . S
H945 C939 0.929 . S
H946 C943 0.930 . S
H947 C935 0.929 . S
H948 C937 0.929 . S
O949 Co924 2.351 . S
O949 C952 1.244 . S
O950 Co924 2.155 . S
O950 C952 1.240 . S
O951 Co924 2.096 . S
O951 C932 1.247 . S
C952 O949 1.244 . S
C952 O950 1.240 . S
H953 C927 0.931 . S
H954 C936 0.931 . S
H955 C940 0.929 . S
H956 C942 0.930 . S
Co957 N961 2.148 . S
Co957 N967 2.128 1_545 S
Co957 N977 2.194 . S
Co957 O982 2.351 . S
Co957 O983 2.155 . S
Co957 O984 2.096 1_545 S
C958 N961 1.301 . S
C958 N962 1.328 . S
C958 H963 0.930 . S
C959 C960 1.333 . S
C959 N961 1.317 . S
C959 H964 0.930 . S
C960 C959 1.333 . S
C960 N962 1.350 . S
C960 H986 0.931 . S
N961 Co957 2.148 . S
N961 C958 1.301 . S
N961 C959 1.317 . S
N962 C958 1.328 . S
N962 C960 1.350 . S
H963 C958 0.930 . S
H964 C959 0.930 . S
C965 O966 1.224 . S
C965 O984 1.247 . S
O966 C965 1.224 . S
N967 Co957 2.128 1_565 S
N967 C968 1.355 . S
N967 C970 1.311 . S
C968 N967 1.355 . S
C968 C969 1.363 . S
C968 H980 0.929 . S
C969 C968 1.363 . S
C969 N971 1.375 . S
C969 H987 0.931 . S
C970 N967 1.311 . S
C970 N971 1.347 . S
C970 H981 0.929 . S
N971 C969 1.375 . S
N971 C970 1.347 . S
C972 C975 1.365 . S
C972 N977 1.328 . S
C972 H978 0.929 . S
C973 C974 1.362 1_565 S
C973 C976 1.378 . S
C973 H988 0.929 . S
C974 C973 1.362 1_545 S
C974 C975 1.366 . S
C975 C972 1.365 . S
C975 C974 1.366 . S
C975 H989 0.930 . S
C976 C973 1.378 . S
C976 N977 1.315 1_565 S
C976 H979 0.930 . S
N977 Co957 2.194 . S
N977 C972 1.328 . S
N977 C976 1.315 1_545 S
H978 C972 0.929 . S
H979 C976 0.930 . S
H980 C968 0.929 . S
H981 C970 0.929 . S
O982 Co957 2.351 . S
O982 C985 1.244 . S
O983 Co957 2.155 . S
O983 C985 1.240 . S
O984 Co957 2.096 1_565 S
O984 C965 1.247 . S
C985 O982 1.244 . S
C985 O983 1.240 . S
H986 C960 0.931 . S
H987 C969 0.931 . S
H988 C973 0.929 . S
H989 C975 0.930 . S
Co990 N994 2.148 . S
Co990 N1000 2.128 . S
Co990 N1010 2.194 . S
Co990 O1015 2.351 . S
Co990 O1016 2.155 . S
Co990 O1017 2.096 . S
C991 N994 1.301 . S
C991 N995 1.328 . S
C991 H996 0.930 . S
C992 C993 1.333 . S
C992 N994 1.317 . S
C992 H997 0.930 . S
C993 C992 1.333 . S
C993 N995 1.350 . S
C993 H1019 0.931 . S
N994 Co990 2.148 . S
N994 C991 1.301 . S
N994 C992 1.317 . S
N995 C991 1.328 . S
N995 C993 1.350 . S
H996 C991 0.930 . S
H997 C992 0.930 . S
C998 O999 1.224 . S
C998 O1017 1.247 . S
O999 C998 1.224 . S
N1000 Co990 2.128 . S
N1000 C1001 1.355 . S
N1000 C1003 1.311 . S
C1001 N1000 1.355 . S
C1001 C1002 1.363 . S
C1001 H1013 0.929 . S
C1002 C1001 1.363 . S
C1002 N1004 1.375 . S
C1002 H1020 0.931 . S
C1003 N1000 1.311 . S
C1003 N1004 1.347 . S
C1003 H1014 0.929 . S
N1004 C1002 1.375 . S
N1004 C1003 1.347 . S
C1005 C1008 1.365 . S
C1005 N1010 1.328 . S
C1005 H1011 0.929 . S
C1006 C1007 1.362 . S
C1006 C1009 1.378 . S
C1006 H1021 0.929 . S
C1007 C1006 1.362 . S
C1007 C1008 1.366 . S
C1008 C1005 1.365 . S
C1008 C1007 1.366 . S
C1008 H1022 0.930 . S
C1009 C1006 1.378 . S
C1009 N1010 1.315 . S
C1009 H1012 0.930 . S
N1010 Co990 2.194 . S
N1010 C1005 1.328 . S
N1010 C1009 1.315 . S
H1011 C1005 0.929 . S
H1012 C1009 0.930 . S
H1013 C1001 0.929 . S
H1014 C1003 0.929 . S
O1015 Co990 2.351 . S
O1015 C1018 1.244 . S
O1016 Co990 2.155 . S
O1016 C1018 1.240 . S
O1017 Co990 2.096 . S
O1017 C998 1.247 . S
C1018 O1015 1.244 . S
C1018 O1016 1.240 . S
H1019 C993 0.931 . S
H1020 C1002 0.931 . S
H1021 C1006 0.929 . S
H1022 C1008 0.930 . S
Co1023 N1027 2.148 . S
Co1023 N1033 2.128 1_545 S
Co1023 N1043 2.194 . S
Co1023 O1048 2.351 . S
Co1023 O1049 2.155 . S
Co1023 O1050 2.096 1_545 S
C1024 N1027 1.301 . S
C1024 N1028 1.328 . S
C1024 H1029 0.930 . S
C1025 C1026 1.333 . S
C1025 N1027 1.317 . S
C1025 H1030 0.930 . S
C1026 C1025 1.333 . S
C1026 N1028 1.350 . S
C1026 H1052 0.931 . S
N1027 Co1023 2.148 . S
N1027 C1024 1.301 . S
N1027 C1025 1.317 . S
N1028 C1024 1.328 . S
N1028 C1026 1.350 . S
H1029 C1024 0.930 . S
H1030 C1025 0.930 . S
C1031 O1032 1.224 . S
C1031 O1050 1.247 . S
O1032 C1031 1.224 . S
N1033 Co1023 2.128 1_565 S
N1033 C1034 1.355 . S
N1033 C1036 1.311 . S
C1034 N1033 1.355 . S
C1034 C1035 1.363 . S
C1034 H1046 0.929 . S
C1035 C1034 1.363 . S
C1035 N1037 1.375 . S
C1035 H1053 0.931 . S
C1036 N1033 1.311 . S
C1036 N1037 1.347 . S
C1036 H1047 0.929 . S
N1037 C1035 1.375 . S
N1037 C1036 1.347 . S
C1038 C1041 1.365 . S
C1038 N1043 1.328 . S
C1038 H1044 0.929 . S
C1039 C1040 1.362 1_565 S
C1039 C1042 1.378 . S
C1039 H1054 0.929 . S
C1040 C1039 1.362 1_545 S
C1040 C1041 1.366 . S
C1041 C1038 1.365 . S
C1041 C1040 1.366 . S
C1041 H1055 0.930 . S
C1042 C1039 1.378 . S
C1042 N1043 1.315 1_565 S
C1042 H1045 0.930 . S
N1043 Co1023 2.194 . S
N1043 C1038 1.328 . S
N1043 C1042 1.315 1_545 S
H1044 C1038 0.929 . S
H1045 C1042 0.930 . S
H1046 C1034 0.929 . S
H1047 C1036 0.929 . S
O1048 Co1023 2.351 . S
O1048 C1051 1.244 . S
O1049 Co1023 2.155 . S
O1049 C1051 1.240 . S
O1050 Co1023 2.096 1_565 S
O1050 C1031 1.247 . S
C1051 O1048 1.244 . S
C1051 O1049 1.240 . S
H1052 C1026 0.931 . S
H1053 C1035 0.931 . S
H1054 C1039 0.929 . S
H1055 C1041 0.930 . S
Co1056 N1060 2.148 . S
Co1056 N1066 2.128 . S
Co1056 N1076 2.194 . S
Co1056 O1081 2.351 . S
Co1056 O1082 2.155 . S
Co1056 O1083 2.096 . S
C1057 N1060 1.301 . S
C1057 N1061 1.328 . S
C1057 H1062 0.930 . S
C1058 C1059 1.333 . S
C1058 N1060 1.317 . S
C1058 H1063 0.930 . S
C1059 C1058 1.333 . S
C1059 N1061 1.350 . S
C1059 H1085 0.931 . S
N1060 Co1056 2.148 . S
N1060 C1057 1.301 . S
N1060 C1058 1.317 . S
N1061 C1057 1.328 . S
N1061 C1059 1.350 . S
H1062 C1057 0.930 . S
H1063 C1058 0.930 . S
C1064 O1065 1.224 . S
C1064 O1083 1.247 . S
O1065 C1064 1.224 . S
N1066 Co1056 2.128 . S
N1066 C1067 1.355 . S
N1066 C1069 1.311 . S
C1067 N1066 1.355 . S
C1067 C1068 1.363 . S
C1067 H1079 0.929 . S
C1068 C1067 1.363 . S
C1068 N1070 1.375 . S
C1068 H1086 0.931 . S
C1069 N1066 1.311 . S
C1069 N1070 1.347 . S
C1069 H1080 0.929 . S
N1070 C1068 1.375 . S
N1070 C1069 1.347 . S
C1071 C1074 1.365 . S
C1071 N1076 1.328 . S
C1071 H1077 0.929 . S
C1072 C1073 1.362 . S
C1072 C1075 1.378 . S
C1072 H1087 0.929 . S
C1073 C1072 1.362 . S
C1073 C1074 1.366 . S
C1074 C1071 1.365 . S
C1074 C1073 1.366 . S
C1074 H1088 0.930 . S
C1075 C1072 1.378 . S
C1075 N1076 1.315 . S
C1075 H1078 0.930 . S
N1076 Co1056 2.194 . S
N1076 C1071 1.328 . S
N1076 C1075 1.315 . S
H1077 C1071 0.929 . S
H1078 C1075 0.930 . S
H1079 C1067 0.929 . S
H1080 C1069 0.929 . S
O1081 Co1056 2.351 . S
O1081 C1084 1.244 . S
O1082 Co1056 2.155 . S
O1082 C1084 1.240 . S
O1083 Co1056 2.096 . S
O1083 C1064 1.247 . S
C1084 O1081 1.244 . S
C1084 O1082 1.240 . S
H1085 C1059 0.931 . S
H1086 C1068 0.931 . S
H1087 C1072 0.929 . S
H1088 C1074 0.930 . S
Co1089 N1093 2.148 . S
Co1089 N1099 2.128 . S
Co1089 N1109 2.194 . S
Co1089 O1114 2.351 . S
Co1089 O1115 2.155 . S
Co1089 O1116 2.096 . S
C1090 N1093 1.301 . S
C1090 N1094 1.328 . S
C1090 H1095 0.930 . S
C1091 C1092 1.333 . S
C1091 N1093 1.317 . S
C1091 H1096 0.930 . S
C1092 C1091 1.333 . S
C1092 N1094 1.350 . S
C1092 H1118 0.931 . S
N1093 Co1089 2.148 . S
N1093 C1090 1.301 . S
N1093 C1091 1.317 . S
N1094 C1090 1.328 . S
N1094 C1092 1.350 . S
H1095 C1090 0.930 . S
H1096 C1091 0.930 . S
C1097 O1098 1.224 . S
C1097 O1116 1.247 . S
O1098 C1097 1.224 . S
N1099 Co1089 2.128 . S
N1099 C1100 1.355 . S
N1099 C1102 1.311 . S
C1100 N1099 1.355 . S
C1100 C1101 1.363 . S
C1100 H1112 0.929 . S
C1101 C1100 1.363 . S
C1101 N1103 1.375 . S
C1101 H1119 0.931 . S
C1102 N1099 1.311 . S
C1102 N1103 1.347 . S
C1102 H1113 0.929 . S
N1103 C1101 1.375 . S
N1103 C1102 1.347 . S
C1104 C1107 1.365 . S
C1104 N1109 1.328 . S
C1104 H1110 0.929 . S
C1105 C1106 1.362 . S
C1105 C1108 1.378 . S
C1105 H1120 0.929 . S
C1106 C1105 1.362 . S
C1106 C1107 1.366 . S
C1107 C1104 1.365 . S
C1107 C1106 1.366 . S
C1107 H1121 0.930 . S
C1108 C1105 1.378 . S
C1108 N1109 1.315 . S
C1108 H1111 0.930 . S
N1109 Co1089 2.194 . S
N1109 C1104 1.328 . S
N1109 C1108 1.315 . S
H1110 C1104 0.929 . S
H1111 C1108 0.930 . S
H1112 C1100 0.929 . S
H1113 C1102 0.929 . S
O1114 Co1089 2.351 . S
O1114 C1117 1.244 . S
O1115 Co1089 2.155 . S
O1115 C1117 1.240 . S
O1116 Co1089 2.096 . S
O1116 C1097 1.247 . S
C1117 O1114 1.244 . S
C1117 O1115 1.240 . S
H1118 C1092 0.931 . S
H1119 C1101 0.931 . S
H1120 C1105 0.929 . S
H1121 C1107 0.930 . S
Co1122 N1126 2.148 . S
Co1122 N1132 2.128 . S
Co1122 N1142 2.194 . S
Co1122 O1147 2.351 . S
Co1122 O1148 2.155 . S
Co1122 O1149 2.096 . S
C1123 N1126 1.301 . S
C1123 N1127 1.328 . S
C1123 H1128 0.930 . S
C1124 C1125 1.333 . S
C1124 N1126 1.317 . S
C1124 H1129 0.930 . S
C1125 C1124 1.333 . S
C1125 N1127 1.350 . S
C1125 H1151 0.931 . S
N1126 Co1122 2.148 . S
N1126 C1123 1.301 . S
N1126 C1124 1.317 . S
N1127 C1123 1.328 . S
N1127 C1125 1.350 . S
H1128 C1123 0.930 . S
H1129 C1124 0.930 . S
C1130 O1131 1.224 . S
C1130 O1149 1.247 . S
O1131 C1130 1.224 . S
N1132 Co1122 2.128 . S
N1132 C1133 1.355 . S
N1132 C1135 1.311 . S
C1133 N1132 1.355 . S
C1133 C1134 1.363 . S
C1133 H1145 0.929 . S
C1134 C1133 1.363 . S
C1134 N1136 1.375 . S
C1134 H1152 0.931 . S
C1135 N1132 1.311 . S
C1135 N1136 1.347 . S
C1135 H1146 0.929 . S
N1136 C1134 1.375 . S
N1136 C1135 1.347 . S
C1137 C1140 1.365 . S
C1137 N1142 1.328 . S
C1137 H1143 0.929 . S
C1138 C1139 1.362 . S
C1138 C1141 1.378 . S
C1138 H1153 0.929 . S
C1139 C1138 1.362 . S
C1139 C1140 1.366 . S
C1140 C1137 1.365 . S
C1140 C1139 1.366 . S
C1140 H1154 0.930 . S
C1141 C1138 1.378 . S
C1141 N1142 1.315 . S
C1141 H1144 0.930 . S
N1142 Co1122 2.194 . S
N1142 C1137 1.328 . S
N1142 C1141 1.315 . S
H1143 C1137 0.929 . S
H1144 C1141 0.930 . S
H1145 C1133 0.929 . S
H1146 C1135 0.929 . S
O1147 Co1122 2.351 . S
O1147 C1150 1.244 . S
O1148 Co1122 2.155 . S
O1148 C1150 1.240 . S
O1149 Co1122 2.096 . S
O1149 C1130 1.247 . S
C1150 O1147 1.244 . S
C1150 O1148 1.240 . S
H1151 C1125 0.931 . S
H1152 C1134 0.931 . S
H1153 C1138 0.929 . S
H1154 C1140 0.930 . S
Co1155 N1159 2.148 . S
Co1155 N1165 2.128 . S
Co1155 N1175 2.194 . S
Co1155 O1180 2.351 . S
Co1155 O1181 2.155 . S
Co1155 O1182 2.096 . S
C1156 N1159 1.301 . S
C1156 N1160 1.328 . S
C1156 H1161 0.930 . S
C1157 C1158 1.333 . S
C1157 N1159 1.317 . S
C1157 H1162 0.930 . S
C1158 C1157 1.333 . S
C1158 N1160 1.350 . S
C1158 H1184 0.931 . S
N1159 Co1155 2.148 . S
N1159 C1156 1.301 . S
N1159 C1157 1.317 . S
N1160 C1156 1.328 . S
N1160 C1158 1.350 . S
H1161 C1156 0.930 . S
H1162 C1157 0.930 . S
C1163 O1164 1.224 . S
C1163 O1182 1.247 . S
O1164 C1163 1.224 . S
N1165 Co1155 2.128 . S
N1165 C1166 1.355 . S
N1165 C1168 1.311 . S
C1166 N1165 1.355 . S
C1166 C1167 1.363 . S
C1166 H1178 0.929 . S
C1167 C1166 1.363 . S
C1167 N1169 1.375 . S
C1167 H1185 0.931 . S
C1168 N1165 1.311 . S
C1168 N1169 1.347 . S
C1168 H1179 0.929 . S
N1169 C1167 1.375 . S
N1169 C1168 1.347 . S
C1170 C1173 1.365 . S
C1170 N1175 1.328 . S
C1170 H1176 0.929 . S
C1171 C1172 1.362 . S
C1171 C1174 1.378 . S
C1171 H1186 0.929 . S
C1172 C1171 1.362 . S
C1172 C1173 1.366 . S
C1173 C1170 1.365 . S
C1173 C1172 1.366 . S
C1173 H1187 0.930 . S
C1174 C1171 1.378 . S
C1174 N1175 1.315 . S
C1174 H1177 0.930 . S
N1175 Co1155 2.194 . S
N1175 C1170 1.328 . S
N1175 C1174 1.315 . S
H1176 C1170 0.929 . S
H1177 C1174 0.930 . S
H1178 C1166 0.929 . S
H1179 C1168 0.929 . S
O1180 Co1155 2.351 . S
O1180 C1183 1.244 . S
O1181 Co1155 2.155 . S
O1181 C1183 1.240 . S
O1182 Co1155 2.096 . S
O1182 C1163 1.247 . S
C1183 O1180 1.244 . S
C1183 O1181 1.240 . S
H1184 C1158 0.931 . S
H1185 C1167 0.931 . S
H1186 C1171 0.929 . S
H1187 C1173 0.930 . S
Co1188 N1192 2.148 . S
Co1188 N1198 2.128 . S
Co1188 N1208 2.194 . S
Co1188 O1213 2.351 . S
Co1188 O1214 2.155 . S
Co1188 O1215 2.096 . S
C1189 N1192 1.301 . S
C1189 N1193 1.328 . S
C1189 H1194 0.930 . S
C1190 C1191 1.333 . S
C1190 N1192 1.317 . S
C1190 H1195 0.930 . S
C1191 C1190 1.333 . S
C1191 N1193 1.350 . S
C1191 H1217 0.931 . S
N1192 Co1188 2.148 . S
N1192 C1189 1.301 . S
N1192 C1190 1.317 . S
N1193 C1189 1.328 . S
N1193 C1191 1.350 . S
H1194 C1189 0.930 . S
H1195 C1190 0.930 . S
C1196 O1197 1.224 . S
C1196 O1215 1.247 . S
O1197 C1196 1.224 . S
N1198 Co1188 2.128 . S
N1198 C1199 1.355 . S
N1198 C1201 1.311 . S
C1199 N1198 1.355 . S
C1199 C1200 1.363 . S
C1199 H1211 0.929 . S
C1200 C1199 1.363 . S
C1200 N1202 1.375 . S
C1200 H1218 0.931 . S
C1201 N1198 1.311 . S
C1201 N1202 1.347 . S
C1201 H1212 0.929 . S
N1202 C1200 1.375 . S
N1202 C1201 1.347 . S
C1203 C1206 1.365 . S
C1203 N1208 1.328 . S
C1203 H1209 0.929 . S
C1204 C1205 1.362 . S
C1204 C1207 1.378 . S
C1204 H1219 0.929 . S
C1205 C1204 1.362 . S
C1205 C1206 1.366 . S
C1206 C1203 1.365 . S
C1206 C1205 1.366 . S
C1206 H1220 0.930 . S
C1207 C1204 1.378 . S
C1207 N1208 1.315 . S
C1207 H1210 0.930 . S
N1208 Co1188 2.194 . S
N1208 C1203 1.328 . S
N1208 C1207 1.315 . S
H1209 C1203 0.929 . S
H1210 C1207 0.930 . S
H1211 C1199 0.929 . S
H1212 C1201 0.929 . S
O1213 Co1188 2.351 . S
O1213 C1216 1.244 . S
O1214 Co1188 2.155 . S
O1214 C1216 1.240 . S
O1215 Co1188 2.096 . S
O1215 C1196 1.247 . S
C1216 O1213 1.244 . S
C1216 O1214 1.240 . S
H1217 C1191 0.931 . S
H1218 C1200 0.931 . S
H1219 C1204 0.929 . S
H1220 C1206 0.930 . S
Co1221 N1225 2.148 . S
Co1221 N1231 2.128 . S
Co1221 N1241 2.194 . S
Co1221 O1246 2.351 . S
Co1221 O1247 2.155 . S
Co1221 O1248 2.096 . S
C1222 N1225 1.301 . S
C1222 N1226 1.328 . S
C1222 H1227 0.930 . S
C1223 C1224 1.333 . S
C1223 N1225 1.317 . S
C1223 H1228 0.930 . S
C1224 C1223 1.333 . S
C1224 N1226 1.350 . S
C1224 H1250 0.931 . S
N1225 Co1221 2.148 . S
N1225 C1222 1.301 . S
N1225 C1223 1.317 . S
N1226 C1222 1.328 . S
N1226 C1224 1.350 . S
H1227 C1222 0.930 . S
H1228 C1223 0.930 . S
C1229 O1230 1.224 . S
C1229 O1248 1.247 . S
O1230 C1229 1.224 . S
N1231 Co1221 2.128 . S
N1231 C1232 1.355 . S
N1231 C1234 1.311 . S
C1232 N1231 1.355 . S
C1232 C1233 1.363 . S
C1232 H1244 0.929 . S
C1233 C1232 1.363 . S
C1233 N1235 1.375 . S
C1233 H1251 0.931 . S
C1234 N1231 1.311 . S
C1234 N1235 1.347 . S
C1234 H1245 0.929 . S
N1235 C1233 1.375 . S
N1235 C1234 1.347 . S
C1236 C1239 1.365 . S
C1236 N1241 1.328 . S
C1236 H1242 0.929 . S
C1237 C1238 1.362 . S
C1237 C1240 1.378 . S
C1237 H1252 0.929 . S
C1238 C1237 1.362 . S
C1238 C1239 1.366 . S
C1239 C1236 1.365 . S
C1239 C1238 1.366 . S
C1239 H1253 0.930 . S
C1240 C1237 1.378 . S
C1240 N1241 1.315 . S
C1240 H1243 0.930 . S
N1241 Co1221 2.194 . S
N1241 C1236 1.328 . S
N1241 C1240 1.315 . S
H1242 C1236 0.929 . S
H1243 C1240 0.930 . S
H1244 C1232 0.929 . S
H1245 C1234 0.929 . S
O1246 Co1221 2.351 . S
O1246 C1249 1.244 . S
O1247 Co1221 2.155 . S
O1247 C1249 1.240 . S
O1248 Co1221 2.096 . S
O1248 C1229 1.247 . S
C1249 O1246 1.244 . S
C1249 O1247 1.240 . S
H1250 C1224 0.931 . S
H1251 C1233 0.931 . S
H1252 C1237 0.929 . S
H1253 C1239 0.930 . S
Co1254 N1258 2.148 . S
Co1254 N1264 2.128 . S
Co1254 N1274 2.194 . S
Co1254 O1279 2.351 . S
Co1254 O1280 2.155 . S
Co1254 O1281 2.096 . S
C1255 N1258 1.301 . S
C1255 N1259 1.328 . S
C1255 H1260 0.930 . S
C1256 C1257 1.333 . S
C1256 N1258 1.317 . S
C1256 H1261 0.930 . S
C1257 C1256 1.333 . S
C1257 N1259 1.350 . S
C1257 H1283 0.931 . S
N1258 Co1254 2.148 . S
N1258 C1255 1.301 . S
N1258 C1256 1.317 . S
N1259 C1255 1.328 . S
N1259 C1257 1.350 . S
H1260 C1255 0.930 . S
H1261 C1256 0.930 . S
C1262 O1263 1.224 . S
C1262 O1281 1.247 . S
O1263 C1262 1.224 . S
N1264 Co1254 2.128 . S
N1264 C1265 1.355 . S
N1264 C1267 1.311 . S
C1265 N1264 1.355 . S
C1265 C1266 1.363 . S
C1265 H1277 0.929 . S
C1266 C1265 1.363 . S
C1266 N1268 1.375 . S
C1266 H1284 0.931 . S
C1267 N1264 1.311 . S
C1267 N1268 1.347 . S
C1267 H1278 0.929 . S
N1268 C1266 1.375 . S
N1268 C1267 1.347 . S
C1269 C1272 1.365 . S
C1269 N1274 1.328 . S
C1269 H1275 0.929 . S
C1270 C1271 1.362 . S
C1270 C1273 1.378 . S
C1270 H1285 0.929 . S
C1271 C1270 1.362 . S
C1271 C1272 1.366 . S
C1272 C1269 1.365 . S
C1272 C1271 1.366 . S
C1272 H1286 0.930 . S
C1273 C1270 1.378 . S
C1273 N1274 1.315 . S
C1273 H1276 0.930 . S
N1274 Co1254 2.194 . S
N1274 C1269 1.328 . S
N1274 C1273 1.315 . S
H1275 C1269 0.929 . S
H1276 C1273 0.930 . S
H1277 C1265 0.929 . S
H1278 C1267 0.929 . S
O1279 Co1254 2.351 . S
O1279 C1282 1.244 . S
O1280 Co1254 2.155 . S
O1280 C1282 1.240 . S
O1281 Co1254 2.096 . S
O1281 C1262 1.247 . S
C1282 O1279 1.244 . S
C1282 O1280 1.240 . S
H1283 C1257 0.931 . S
H1284 C1266 0.931 . S
H1285 C1270 0.929 . S
H1286 C1272 0.930 . S
Co1287 N1291 2.148 . S
Co1287 N1297 2.128 . S
Co1287 N1307 2.194 . S
Co1287 O1312 2.351 . S
Co1287 O1313 2.155 . S
Co1287 O1314 2.096 . S
C1288 N1291 1.301 . S
C1288 N1292 1.328 . S
C1288 H1293 0.930 . S
C1289 C1290 1.333 . S
C1289 N1291 1.317 . S
C1289 H1294 0.930 . S
C1290 C1289 1.333 . S
C1290 N1292 1.350 . S
C1290 H1316 0.931 . S
N1291 Co1287 2.148 . S
N1291 C1288 1.301 . S
N1291 C1289 1.317 . S
N1292 C1288 1.328 . S
N1292 C1290 1.350 . S
H1293 C1288 0.930 . S
H1294 C1289 0.930 . S
C1295 O1296 1.224 . S
C1295 O1314 1.247 . S
O1296 C1295 1.224 . S
N1297 Co1287 2.128 . S
N1297 C1298 1.355 . S
N1297 C1300 1.311 . S
C1298 N1297 1.355 . S
C1298 C1299 1.363 . S
C1298 H1310 0.929 . S
C1299 C1298 1.363 . S
C1299 N1301 1.375 . S
C1299 H1317 0.931 . S
C1300 N1297 1.311 . S
C1300 N1301 1.347 . S
C1300 H1311 0.929 . S
N1301 C1299 1.375 . S
N1301 C1300 1.347 . S
C1302 C1305 1.365 . S
C1302 N1307 1.328 . S
C1302 H1308 0.929 . S
C1303 C1304 1.362 . S
C1303 C1306 1.378 . S
C1303 H1318 0.929 . S
C1304 C1303 1.362 . S
C1304 C1305 1.366 . S
C1305 C1302 1.365 . S
C1305 C1304 1.366 . S
C1305 H1319 0.930 . S
C1306 C1303 1.378 . S
C1306 N1307 1.315 . S
C1306 H1309 0.930 . S
N1307 Co1287 2.194 . S
N1307 C1302 1.328 . S
N1307 C1306 1.315 . S
H1308 C1302 0.929 . S
H1309 C1306 0.930 . S
H1310 C1298 0.929 . S
H1311 C1300 0.929 . S
O1312 Co1287 2.351 . S
O1312 C1315 1.244 . S
O1313 Co1287 2.155 . S
O1313 C1315 1.240 . S
O1314 Co1287 2.096 . S
O1314 C1295 1.247 . S
C1315 O1312 1.244 . S
C1315 O1313 1.240 . S
H1316 C1290 0.931 . S
H1317 C1299 0.931 . S
H1318 C1303 0.929 . S
H1319 C1305 0.930 . S
Co1320 N1324 2.148 . S
Co1320 N1330 2.128 . S
Co1320 N1340 2.194 . S
Co1320 O1345 2.351 . S
Co1320 O1346 2.155 . S
Co1320 O1347 2.096 . S
C1321 N1324 1.301 . S
C1321 N1325 1.328 . S
C1321 H1326 0.930 . S
C1322 C1323 1.333 . S
C1322 N1324 1.317 . S
C1322 H1327 0.930 . S
C1323 C1322 1.333 . S
C1323 N1325 1.350 . S
C1323 H1349 0.931 . S
N1324 Co1320 2.148 . S
N1324 C1321 1.301 . S
N1324 C1322 1.317 . S
N1325 C1321 1.328 . S
N1325 C1323 1.350 . S
H1326 C1321 0.930 . S
H1327 C1322 0.930 . S
C1328 O1329 1.224 . S
C1328 O1347 1.247 . S
O1329 C1328 1.224 . S
N1330 Co1320 2.128 . S
N1330 C1331 1.355 . S
N1330 C1333 1.311 . S
C1331 N1330 1.355 . S
C1331 C1332 1.363 . S
C1331 H1343 0.929 . S
C1332 C1331 1.363 . S
C1332 N1334 1.375 . S
C1332 H1350 0.931 . S
C1333 N1330 1.311 . S
C1333 N1334 1.347 . S
C1333 H1344 0.929 . S
N1334 C1332 1.375 . S
N1334 C1333 1.347 . S
C1335 C1338 1.365 . S
C1335 N1340 1.328 . S
C1335 H1341 0.929 . S
C1336 C1337 1.362 . S
C1336 C1339 1.378 . S
C1336 H1351 0.929 . S
C1337 C1336 1.362 . S
C1337 C1338 1.366 . S
C1338 C1335 1.365 . S
C1338 C1337 1.366 . S
C1338 H1352 0.930 . S
C1339 C1336 1.378 . S
C1339 N1340 1.315 . S
C1339 H1342 0.930 . S
N1340 Co1320 2.194 . S
N1340 C1335 1.328 . S
N1340 C1339 1.315 . S
H1341 C1335 0.929 . S
H1342 C1339 0.930 . S
H1343 C1331 0.929 . S
H1344 C1333 0.929 . S
O1345 Co1320 2.351 . S
O1345 C1348 1.244 . S
O1346 Co1320 2.155 . S
O1346 C1348 1.240 . S
O1347 Co1320 2.096 . S
O1347 C1328 1.247 . S
C1348 O1345 1.244 . S
C1348 O1346 1.240 . S
H1349 C1323 0.931 . S
H1350 C1332 0.931 . S
H1351 C1336 0.929 . S
H1352 C1338 0.930 . S
Co1353 N1357 2.148 . S
Co1353 N1363 2.128 . S
Co1353 N1373 2.194 . S
Co1353 O1378 2.351 . S
Co1353 O1379 2.155 . S
Co1353 O1380 2.096 . S
C1354 N1357 1.301 . S
C1354 N1358 1.328 . S
C1354 H1359 0.930 . S
C1355 C1356 1.333 . S
C1355 N1357 1.317 . S
C1355 H1360 0.930 . S
C1356 C1355 1.333 . S
C1356 N1358 1.350 . S
C1356 H1382 0.931 . S
N1357 Co1353 2.148 . S
N1357 C1354 1.301 . S
N1357 C1355 1.317 . S
N1358 C1354 1.328 . S
N1358 C1356 1.350 . S
H1359 C1354 0.930 . S
H1360 C1355 0.930 . S
C1361 O1362 1.224 . S
C1361 O1380 1.247 . S
O1362 C1361 1.224 . S
N1363 Co1353 2.128 . S
N1363 C1364 1.355 . S
N1363 C1366 1.311 . S
C1364 N1363 1.355 . S
C1364 C1365 1.363 . S
C1364 H1376 0.929 . S
C1365 C1364 1.363 . S
C1365 N1367 1.375 . S
C1365 H1383 0.931 . S
C1366 N1363 1.311 . S
C1366 N1367 1.347 . S
C1366 H1377 0.929 . S
N1367 C1365 1.375 . S
N1367 C1366 1.347 . S
C1368 C1371 1.365 . S
C1368 N1373 1.328 . S
C1368 H1374 0.929 . S
C1369 C1370 1.362 . S
C1369 C1372 1.378 . S
C1369 H1384 0.929 . S
C1370 C1369 1.362 . S
C1370 C1371 1.366 . S
C1371 C1368 1.365 . S
C1371 C1370 1.366 . S
C1371 H1385 0.930 . S
C1372 C1369 1.378 . S
C1372 N1373 1.315 . S
C1372 H1375 0.930 . S
N1373 Co1353 2.194 . S
N1373 C1368 1.328 . S
N1373 C1372 1.315 . S
H1374 C1368 0.929 . S
H1375 C1372 0.930 . S
H1376 C1364 0.929 . S
H1377 C1366 0.929 . S
O1378 Co1353 2.351 . S
O1378 C1381 1.244 . S
O1379 Co1353 2.155 . S
O1379 C1381 1.240 . S
O1380 Co1353 2.096 . S
O1380 C1361 1.247 . S
C1381 O1378 1.244 . S
C1381 O1379 1.240 . S
H1382 C1356 0.931 . S
H1383 C1365 0.931 . S
H1384 C1369 0.929 . S
H1385 C1371 0.930 . S
Co1386 N1390 2.148 . S
Co1386 N1396 2.128 . S
Co1386 N1406 2.194 . S
Co1386 O1411 2.351 . S
Co1386 O1412 2.155 . S
Co1386 O1413 2.096 . S
C1387 N1390 1.301 . S
C1387 N1391 1.328 . S
C1387 H1392 0.930 . S
C1388 C1389 1.333 . S
C1388 N1390 1.317 . S
C1388 H1393 0.930 . S
C1389 C1388 1.333 . S
C1389 N1391 1.350 . S
C1389 H1415 0.931 . S
N1390 Co1386 2.148 . S
N1390 C1387 1.301 . S
N1390 C1388 1.317 . S
N1391 C1387 1.328 . S
N1391 C1389 1.350 . S
H1392 C1387 0.930 . S
H1393 C1388 0.930 . S
C1394 O1395 1.224 . S
C1394 O1413 1.247 . S
O1395 C1394 1.224 . S
N1396 Co1386 2.128 . S
N1396 C1397 1.355 . S
N1396 C1399 1.311 . S
C1397 N1396 1.355 . S
C1397 C1398 1.363 . S
C1397 H1409 0.929 . S
C1398 C1397 1.363 . S
C1398 N1400 1.375 . S
C1398 H1416 0.931 . S
C1399 N1396 1.311 . S
C1399 N1400 1.347 . S
C1399 H1410 0.929 . S
N1400 C1398 1.375 . S
N1400 C1399 1.347 . S
C1401 C1404 1.365 . S
C1401 N1406 1.328 . S
C1401 H1407 0.929 . S
C1402 C1403 1.362 . S
C1402 C1405 1.378 . S
C1402 H1417 0.929 . S
C1403 C1402 1.362 . S
C1403 C1404 1.366 . S
C1404 C1401 1.365 . S
C1404 C1403 1.366 . S
C1404 H1418 0.930 . S
C1405 C1402 1.378 . S
C1405 N1406 1.315 . S
C1405 H1408 0.930 . S
N1406 Co1386 2.194 . S
N1406 C1401 1.328 . S
N1406 C1405 1.315 . S
H1407 C1401 0.929 . S
H1408 C1405 0.930 . S
H1409 C1397 0.929 . S
H1410 C1399 0.929 . S
O1411 Co1386 2.351 . S
O1411 C1414 1.244 . S
O1412 Co1386 2.155 . S
O1412 C1414 1.240 . S
O1413 Co1386 2.096 . S
O1413 C1394 1.247 . S
C1414 O1411 1.244 . S
C1414 O1412 1.240 . S
H1415 C1389 0.931 . S
H1416 C1398 0.931 . S
H1417 C1402 0.929 . S
H1418 C1404 0.930 . S
Co1419 N1423 2.148 . S
Co1419 N1429 2.128 . S
Co1419 N1439 2.194 . S
Co1419 O1444 2.351 . S
Co1419 O1445 2.155 . S
Co1419 O1446 2.096 . S
C1420 N1423 1.301 . S
C1420 N1424 1.328 . S
C1420 H1425 0.930 . S
C1421 C1422 1.333 . S
C1421 N1423 1.317 . S
C1421 H1426 0.930 . S
C1422 C1421 1.333 . S
C1422 N1424 1.350 . S
C1422 H1448 0.931 . S
N1423 Co1419 2.148 . S
N1423 C1420 1.301 . S
N1423 C1421 1.317 . S
N1424 C1420 1.328 . S
N1424 C1422 1.350 . S
H1425 C1420 0.930 . S
H1426 C1421 0.930 . S
C1427 O1428 1.224 . S
C1427 O1446 1.247 . S
O1428 C1427 1.224 . S
N1429 Co1419 2.128 . S
N1429 C1430 1.355 . S
N1429 C1432 1.311 . S
C1430 N1429 1.355 . S
C1430 C1431 1.363 . S
C1430 H1442 0.929 . S
C1431 C1430 1.363 . S
C1431 N1433 1.375 . S
C1431 H1449 0.931 . S
C1432 N1429 1.311 . S
C1432 N1433 1.347 . S
C1432 H1443 0.929 . S
N1433 C1431 1.375 . S
N1433 C1432 1.347 . S
C1434 C1437 1.365 . S
C1434 N1439 1.328 . S
C1434 H1440 0.929 . S
C1435 C1436 1.362 . S
C1435 C1438 1.378 . S
C1435 H1450 0.929 . S
C1436 C1435 1.362 . S
C1436 C1437 1.366 . S
C1437 C1434 1.365 . S
C1437 C1436 1.366 . S
C1437 H1451 0.930 . S
C1438 C1435 1.378 . S
C1438 N1439 1.315 . S
C1438 H1441 0.930 . S
N1439 Co1419 2.194 . S
N1439 C1434 1.328 . S
N1439 C1438 1.315 . S
H1440 C1434 0.929 . S
H1441 C1438 0.930 . S
H1442 C1430 0.929 . S
H1443 C1432 0.929 . S
O1444 Co1419 2.351 . S
O1444 C1447 1.244 . S
O1445 Co1419 2.155 . S
O1445 C1447 1.240 . S
O1446 Co1419 2.096 . S
O1446 C1427 1.247 . S
C1447 O1444 1.244 . S
C1447 O1445 1.240 . S
H1448 C1422 0.931 . S
H1449 C1431 0.931 . S
H1450 C1435 0.929 . S
H1451 C1437 0.930 . S
Co1452 N1456 2.148 1_554 S
Co1452 N1462 2.128 . S
Co1452 N1472 2.194 . S
Co1452 O1477 2.351 1_554 S
Co1452 O1478 2.155 1_554 S
Co1452 O1479 2.096 . S
C1453 N1456 1.301 . S
C1453 N1457 1.328 . S
C1453 H1458 0.930 . S
C1454 C1455 1.333 . S
C1454 N1456 1.317 . S
C1454 H1459 0.930 . S
C1455 C1454 1.333 . S
C1455 N1457 1.350 . S
C1455 H1481 0.931 . S
N1456 Co1452 2.148 1_556 S
N1456 C1453 1.301 . S
N1456 C1454 1.317 . S
N1457 C1453 1.328 . S
N1457 C1455 1.350 . S
H1458 C1453 0.930 . S
H1459 C1454 0.930 . S
C1460 O1461 1.224 . S
C1460 O1479 1.247 . S
O1461 C1460 1.224 . S
N1462 Co1452 2.128 . S
N1462 C1463 1.355 . S
N1462 C1465 1.311 . S
C1463 N1462 1.355 . S
C1463 C1464 1.363 . S
C1463 H1475 0.929 . S
C1464 C1463 1.363 . S
C1464 N1466 1.375 . S
C1464 H1482 0.931 . S
C1465 N1462 1.311 . S
C1465 N1466 1.347 . S
C1465 H1476 0.929 . S
N1466 C1464 1.375 . S
N1466 C1465 1.347 . S
C1467 C1470 1.365 . S
C1467 N1472 1.327 1_556 S
C1467 H1473 0.929 . S
C1468 C1469 1.362 . S
C1468 C1471 1.378 . S
C1468 H1483 0.929 . S
C1469 C1468 1.362 . S
C1469 C1470 1.366 1_554 S
C1470 C1467 1.365 . S
C1470 C1469 1.366 1_556 S
C1470 H1484 0.930 . S
C1471 C1468 1.378 . S
C1471 N1472 1.317 . S
C1471 H1474 0.930 . S
N1472 Co1452 2.194 . S
N1472 C1467 1.327 1_554 S
N1472 C1471 1.317 . S
H1473 C1467 0.929 . S
H1474 C1471 0.930 . S
H1475 C1463 0.929 . S
H1476 C1465 0.929 . S
O1477 Co1452 2.351 1_556 S
O1477 C1480 1.244 . S
O1478 Co1452 2.155 1_556 S
O1478 C1480 1.240 . S
O1479 Co1452 2.096 . S
O1479 C1460 1.247 . S
C1480 O1477 1.244 . S
C1480 O1478 1.240 . S
H1481 C1455 0.931 . S
H1482 C1464 0.931 . S
H1483 C1468 0.929 . S
H1484 C1470 0.930 . S
Co1485 N1489 2.148 1_554 S
Co1485 N1495 2.128 . S
Co1485 N1505 2.192 1_554 S
Co1485 O1510 2.351 1_554 S
Co1485 O1511 2.155 1_554 S
Co1485 O1512 2.096 . S
C1486 N1489 1.301 . S
C1486 N1490 1.328 . S
C1486 H1491 0.930 . S
C1487 C1488 1.333 . S
C1487 N1489 1.317 . S
C1487 H1492 0.930 . S
C1488 C1487 1.333 . S
C1488 N1490 1.350 . S
C1488 H1514 0.931 . S
N1489 Co1485 2.148 1_556 S
N1489 C1486 1.301 . S
N1489 C1487 1.317 . S
N1490 C1486 1.328 . S
N1490 C1488 1.350 . S
H1491 C1486 0.930 . S
H1492 C1487 0.930 . S
C1493 O1494 1.224 . S
C1493 O1512 1.247 . S
O1494 C1493 1.224 . S
N1495 Co1485 2.128 . S
N1495 C1496 1.355 . S
N1495 C1498 1.311 . S
C1496 N1495 1.355 . S
C1496 C1497 1.363 . S
C1496 H1508 0.929 . S
C1497 C1496 1.363 . S
C1497 N1499 1.375 . S
C1497 H1515 0.931 . S
C1498 N1495 1.311 . S
C1498 N1499 1.347 . S
C1498 H1509 0.929 . S
N1499 C1497 1.375 . S
N1499 C1498 1.347 . S
C1500 C1503 1.365 . S
C1500 N1505 1.347 . S
C1500 H1506 0.929 . S
C1501 C1502 1.362 . S
C1501 C1504 1.378 . S
C1501 H1516 0.929 . S
C1502 C1501 1.362 . S
C1502 C1503 1.366 1_554 S
C1503 C1500 1.365 . S
C1503 C1502 1.366 1_556 S
C1503 H1517 0.930 . S
C1504 C1501 1.378 . S
C1504 N1505 1.296 1_554 S
C1504 H1507 0.930 . S
N1505 Co1485 2.192 1_556 S
N1505 C1500 1.347 . S
N1505 C1504 1.296 1_556 S
H1506 C1500 0.929 . S
H1507 C1504 0.930 . S
H1508 C1496 0.929 . S
H1509 C1498 0.929 . S
O1510 Co1485 2.351 1_556 S
O1510 C1513 1.244 . S
O1511 Co1485 2.155 1_556 S
O1511 C1513 1.240 . S
O1512 Co1485 2.096 . S
O1512 C1493 1.247 . S
C1513 O1510 1.244 . S
C1513 O1511 1.240 . S
H1514 C1488 0.931 . S
H1515 C1497 0.931 . S
H1516 C1501 0.929 . S
H1517 C1503 0.930 . S
Co1518 N1522 2.148 . S
Co1518 N1528 2.128 1_554 S
Co1518 N1538 2.194 . S
Co1518 O1543 2.351 . S
Co1518 O1544 2.155 . S
Co1518 O1545 2.096 1_554 S
C1519 N1522 1.301 . S
C1519 N1523 1.328 . S
C1519 H1524 0.930 . S
C1520 C1521 1.333 . S
C1520 N1522 1.317 . S
C1520 H1525 0.930 . S
C1521 C1520 1.333 . S
C1521 N1523 1.350 . S
C1521 H1547 0.931 . S
N1522 Co1518 2.148 . S
N1522 C1519 1.301 . S
N1522 C1520 1.317 . S
N1523 C1519 1.328 . S
N1523 C1521 1.350 . S
H1524 C1519 0.930 . S
H1525 C1520 0.930 . S
C1526 O1527 1.224 . S
C1526 O1545 1.247 . S
O1527 C1526 1.224 . S
N1528 Co1518 2.128 1_556 S
N1528 C1529 1.355 . S
N1528 C1531 1.311 . S
C1529 N1528 1.355 . S
C1529 C1530 1.363 . S
C1529 H1541 0.929 . S
C1530 C1529 1.363 . S
C1530 N1532 1.375 . S
C1530 H1548 0.931 . S
C1531 N1528 1.311 . S
C1531 N1532 1.347 . S
C1531 H1542 0.929 . S
N1532 C1530 1.375 . S
N1532 C1531 1.347 . S
C1533 C1536 1.365 . S
C1533 N1538 1.328 . S
C1533 H1539 0.929 . S
C1534 C1535 1.362 1_556 S
C1534 C1537 1.378 . S
C1534 H1549 0.929 . S
C1535 C1534 1.362 1_554 S
C1535 C1536 1.366 . S
C1536 C1533 1.365 . S
C1536 C1535 1.366 . S
C1536 H1550 0.930 . S
C1537 C1534 1.378 . S
C1537 N1538 1.315 1_556 S
C1537 H1540 0.930 . S
N1538 Co1518 2.194 . S
N1538 C1533 1.328 . S
N1538 C1537 1.315 1_554 S
H1539 C1533 0.929 . S
H1540 C1537 0.930 . S
H1541 C1529 0.929 . S
H1542 C1531 0.929 . S
O1543 Co1518 2.351 . S
O1543 C1546 1.244 . S
O1544 Co1518 2.155 . S
O1544 C1546 1.240 . S
O1545 Co1518 2.096 1_556 S
O1545 C1526 1.247 . S
C1546 O1543 1.244 . S
C1546 O1544 1.240 . S
H1547 C1521 0.931 . S
H1548 C1530 0.931 . S
H1549 C1534 0.929 . S
H1550 C1536 0.930 . S
Co1551 N1555 2.148 . S
Co1551 N1561 2.128 1_554 S
Co1551 N1571 2.194 . S
Co1551 O1576 2.351 . S
Co1551 O1577 2.155 . S
Co1551 O1578 2.096 1_554 S
C1552 N1555 1.301 . S
C1552 N1556 1.328 . S
C1552 H1557 0.930 . S
C1553 C1554 1.333 . S
C1553 N1555 1.317 . S
C1553 H1558 0.930 . S
C1554 C1553 1.333 . S
C1554 N1556 1.350 . S
C1554 H1580 0.931 . S
N1555 Co1551 2.148 . S
N1555 C1552 1.301 . S
N1555 C1553 1.317 . S
N1556 C1552 1.328 . S
N1556 C1554 1.350 . S
H1557 C1552 0.930 . S
H1558 C1553 0.930 . S
C1559 O1560 1.224 . S
C1559 O1578 1.247 . S
O1560 C1559 1.224 . S
N1561 Co1551 2.128 1_556 S
N1561 C1562 1.355 . S
N1561 C1564 1.311 . S
C1562 N1561 1.355 . S
C1562 C1563 1.363 . S
C1562 H1574 0.929 . S
C1563 C1562 1.363 . S
C1563 N1565 1.375 . S
C1563 H1581 0.931 . S
C1564 N1561 1.311 . S
C1564 N1565 1.347 . S
C1564 H1575 0.929 . S
N1565 C1563 1.375 . S
N1565 C1564 1.347 . S
C1566 C1569 1.365 . S
C1566 N1571 1.328 . S
C1566 H1572 0.929 . S
C1567 C1568 1.362 1_556 S
C1567 C1570 1.378 . S
C1567 H1582 0.929 . S
C1568 C1567 1.362 1_554 S
C1568 C1569 1.366 . S
C1569 C1566 1.365 . S
C1569 C1568 1.366 . S
C1569 H1583 0.930 . S
C1570 C1567 1.378 . S
C1570 N1571 1.315 1_556 S
C1570 H1573 0.930 . S
N1571 Co1551 2.194 . S
N1571 C1566 1.328 . S
N1571 C1570 1.315 1_554 S
H1572 C1566 0.929 . S
H1573 C1570 0.930 . S
H1574 C1562 0.929 . S
H1575 C1564 0.929 . S
O1576 Co1551 2.351 . S
O1576 C1579 1.244 . S
O1577 Co1551 2.155 . S
O1577 C1579 1.240 . S
O1578 Co1551 2.096 1_556 S
O1578 C1559 1.247 . S
C1579 O1576 1.244 . S
C1579 O1577 1.240 . S
H1580 C1554 0.931 . S
H1581 C1563 0.931 . S
H1582 C1567 0.929 . S
H1583 C1569 0.930 . S
C545 C17 0.944 . S
C50 C974 0.949 . S
C611 C83 0.940 1_455 S
C1040 C116 0.948 1_545 S
C149 C413 0.936 . S
C842 C182 0.949 . S
C479 C215 0.944 1_655 S
C248 C908 0.949 1_545 S
C281 C1568 0.907 . S
C314 C1535 0.915 . S
C347 C1502 0.914 . S
C1469 C380 0.880 . S
C1370 C446 0.957 . S
C512 C1436 0.958 . S
C1238 C578 0.957 . S
C644 C1304 0.958 . S
C677 C1172 0.880 . S
C1139 C710 0.914 . S
C1106 C743 0.915 . S
C776 C1073 0.907 . S
C809 C1337 0.944 . S
C875 C1403 0.940 . S
C941 C1205 0.931 . S
C1007 C1271 0.944 . S
C107 N14 2.466 . S
N38 C28 2.390 . S
C41 N71 2.326 . S
N104 C74 2.345 . S
N137 C173 2.286 . S
C206 N170 2.331 . S
N203 C259 2.330 . S
N245 C140 2.461 . S
N113 C272 2.452 . S
C358 N5 2.386 . S
C391 N47 2.626 . S
C325 N80 2.573 . S
C305 N179 2.557 . S
C292 N212 2.600 . S
N236 C338 2.313 . S
N146 C371 2.451 . S
C8 N278 2.442 . S
C160 N311 2.529 . S
N269 C193 2.288 . S
C226 N344 2.559 . S
N377 C239 2.452 . S
C94 N368 2.265 . S
N302 C127 2.311 . S
C61 N335 2.341 . S
C503 N410 2.450 . S
C424 N434 2.380 . S
N467 C437 2.343 . S
N500 C470 2.307 . S
N533 C569 2.329 . S
N566 C602 2.322 . S
N599 C655 2.324 . S
C536 N641 2.485 . S
C668 N509 2.443 . S
C754 N401 2.354 . S
N443 C787 2.632 . S
C701 N476 2.518 . S
C721 N575 2.616 . S
N608 C688 2.610 . S
C734 N632 2.334 . S
C767 N542 2.472 . S
N674 C404 2.437 . S
C556 N698 2.325 . S
N665 C589 2.262 . S
N740 C622 2.555 . S
N773 C635 2.459 . S
N764 C490 2.295 . S
C523 N707 2.518 . S
N731 C457 2.343 . S
N806 C899 2.466 . S
N830 C820 2.390 . S
N863 C833 2.326 . S
C866 N896 2.345 . S
N929 C965 2.286 . S
N962 C998 2.331 . S
N995 C1051 2.330 . S
C932 N1037 2.461 . S
N905 C1064 2.452 . S
N797 C1150 2.386 . S
C1183 N839 2.626 . S
C1117 N872 2.573 . S
C1097 N971 2.557 . S
C1084 N1004 2.600 . S
C1130 N1028 2.313 . S
C1163 N938 2.452 . S
N1070 C800 2.442 . S
C952 N1103 2.529 . S
N1061 C985 2.288 . S
C1018 N1136 2.559 . S
N1169 C1031 2.452 . S
N1160 C886 2.265 . S
N1094 C919 2.311 . S
N1127 C853 2.340 . S
N1202 C1295 2.450 . S
N1226 C1216 2.380 . S
N1259 C1229 2.343 . S
N1292 C1262 2.307 . S
N1325 C1361 2.329 . S
N1358 C1394 2.322 . S
N1391 C1447 2.324 . S
N1433 C1328 2.485 . S
N1301 C1460 2.444 . S
N1193 C1546 2.354 . S
N1235 C1579 2.632 . S
N1268 C1493 2.518 . S
C1513 N1367 2.615 . S
C1480 N1400 2.610 . S
N1424 C1526 2.333 . S
N1334 C1559 2.472 . S
C1196 N1466 2.437 . S
N1490 C1348 2.325 . S
C1381 N1457 2.262 . S
N1532 C1414 2.555 . S
C1427 N1565 2.459 . S
C1282 N1556 2.296 . S
N1499 C1315 2.518 . S
C1249 N1523 2.343 . S
