# Generated by pormake.
# Topology hbo, (4)-cn, num edge types: 1
# Building blocks:
#     Node 0, Type 0, BuildingBlock: QUQFOY_clean_sbu_1, # of connection points: 4
#     Node 1, Type 0, BuildingBlock: QUQFOY_clean_sbu_1, # of connection points: 4
#     Node 2, Type 0, BuildingBlock: QUQFOY_clean_sbu_1, # of connection points: 4
#     Node 3, Type 0, BuildingBlock: QUQFOY_clean_sbu_1, # of connection points: 4
#     Node 4, Type 0, BuildingBlock: QUQFOY_clean_sbu_1, # of connection points: 4
#     Node 5, Type 0, BuildingBlock: QUQFOY_clean_sbu_1, # of connection points: 4
#     Node 6, Type 0, BuildingBlock: QUQFOY_clean_sbu_1, # of connection points: 4
#     Node 7, Type 0, BuildingBlock: QUQFOY_clean_sbu_1, # of connection points: 4
#     Node 8, Type 0, BuildingBlock: QUQFOY_clean_sbu_1, # of connection points: 4
#     Node 9, Type 0, BuildingBlock: QUQFOY_clean_sbu_1, # of connection points: 4
#     Node 10, Type 0, BuildingBlock: QUQFOY_clean_sbu_1, # of connection points: 4
#     Node 11, Type 0, BuildingBlock: QUQFOY_clean_sbu_1, # of connection points: 4
#     Node 12, Type 0, BuildingBlock: QUQFOY_clean_sbu_1, # of connection points: 4
#     Node 13, Type 0, BuildingBlock: QUQFOY_clean_sbu_1, # of connection points: 4
#     Node 14, Type 0, BuildingBlock: QUQFOY_clean_sbu_1, # of connection points: 4
#     Node 15, Type 0, BuildingBlock: QUQFOY_clean_sbu_1, # of connection points: 4
#     Node 16, Type 0, BuildingBlock: QUQFOY_clean_sbu_1, # of connection points: 4
#     Node 17, Type 0, BuildingBlock: QUQFOY_clean_sbu_1, # of connection points: 4
#     Node 18, Type 0, BuildingBlock: QUQFOY_clean_sbu_1, # of connection points: 4
#     Node 19, Type 0, BuildingBlock: QUQFOY_clean_sbu_1, # of connection points: 4
#     Node 20, Type 0, BuildingBlock: QUQFOY_clean_sbu_1, # of connection points: 4
#     Node 21, Type 0, BuildingBlock: QUQFOY_clean_sbu_1, # of connection points: 4
#     Node 22, Type 0, BuildingBlock: QUQFOY_clean_sbu_1, # of connection points: 4
#     Node 23, Type 0, BuildingBlock: QUQFOY_clean_sbu_1, # of connection points: 4
#     Edge 24, Type (0, 0), BuildingBlock: EZIPEK_clean_linker_0, # of connection points: 2
#     Edge 25, Type (0, 0), BuildingBlock: EZIPEK_clean_linker_0, # of connection points: 2
#     Edge 26, Type (0, 0), BuildingBlock: EZIPEK_clean_linker_0, # of connection points: 2
#     Edge 27, Type (0, 0), BuildingBlock: EZIPEK_clean_linker_0, # of connection points: 2
#     Edge 28, Type (0, 0), BuildingBlock: EZIPEK_clean_linker_0, # of connection points: 2
#     Edge 29, Type (0, 0), BuildingBlock: EZIPEK_clean_linker_0, # of connection points: 2
#     Edge 30, Type (0, 0), BuildingBlock: EZIPEK_clean_linker_0, # of connection points: 2
#     Edge 31, Type (0, 0), BuildingBlock: EZIPEK_clean_linker_0, # of connection points: 2
#     Edge 32, Type (0, 0), BuildingBlock: EZIPEK_clean_linker_0, # of connection points: 2
#     Edge 33, Type (0, 0), BuildingBlock: EZIPEK_clean_linker_0, # of connection points: 2
#     Edge 34, Type (0, 0), BuildingBlock: EZIPEK_clean_linker_0, # of connection points: 2
#     Edge 35, Type (0, 0), BuildingBlock: EZIPEK_clean_linker_0, # of connection points: 2
#     Edge 36, Type (0, 0), BuildingBlock: EZIPEK_clean_linker_0, # of connection points: 2
#     Edge 37, Type (0, 0), BuildingBlock: EZIPEK_clean_linker_0, # of connection points: 2
#     Edge 38, Type (0, 0), BuildingBlock: EZIPEK_clean_linker_0, # of connection points: 2
#     Edge 39, Type (0, 0), BuildingBlock: EZIPEK_clean_linker_0, # of connection points: 2
#     Edge 40, Type (0, 0), BuildingBlock: EZIPEK_clean_linker_0, # of connection points: 2
#     Edge 41, Type (0, 0), BuildingBlock: EZIPEK_clean_linker_0, # of connection points: 2
#     Edge 42, Type (0, 0), BuildingBlock: EZIPEK_clean_linker_0, # of connection points: 2
#     Edge 43, Type (0, 0), BuildingBlock: EZIPEK_clean_linker_0, # of connection points: 2
#     Edge 44, Type (0, 0), BuildingBlock: EZIPEK_clean_linker_0, # of connection points: 2
#     Edge 45, Type (0, 0), BuildingBlock: EZIPEK_clean_linker_0, # of connection points: 2
#     Edge 46, Type (0, 0), BuildingBlock: EZIPEK_clean_linker_0, # of connection points: 2
#     Edge 47, Type (0, 0), BuildingBlock: EZIPEK_clean_linker_0, # of connection points: 2
#     Edge 48, Type (0, 0), BuildingBlock: EZIPEK_clean_linker_0, # of connection points: 2
#     Edge 49, Type (0, 0), BuildingBlock: EZIPEK_clean_linker_0, # of connection points: 2
#     Edge 50, Type (0, 0), BuildingBlock: EZIPEK_clean_linker_0, # of connection points: 2
#     Edge 51, Type (0, 0), BuildingBlock: EZIPEK_clean_linker_0, # of connection points: 2
#     Edge 52, Type (0, 0), BuildingBlock: EZIPEK_clean_linker_0, # of connection points: 2
#     Edge 53, Type (0, 0), BuildingBlock: EZIPEK_clean_linker_0, # of connection points: 2
#     Edge 54, Type (0, 0), BuildingBlock: EZIPEK_clean_linker_0, # of connection points: 2
#     Edge 55, Type (0, 0), BuildingBlock: EZIPEK_clean_linker_0, # of connection points: 2
#     Edge 56, Type (0, 0), BuildingBlock: EZIPEK_clean_linker_0, # of connection points: 2
#     Edge 57, Type (0, 0), BuildingBlock: EZIPEK_clean_linker_0, # of connection points: 2
#     Edge 58, Type (0, 0), BuildingBlock: EZIPEK_clean_linker_0, # of connection points: 2
#     Edge 59, Type (0, 0), BuildingBlock: EZIPEK_clean_linker_0, # of connection points: 2
#     Edge 60, Type (0, 0), BuildingBlock: EZIPEK_clean_linker_0, # of connection points: 2
#     Edge 61, Type (0, 0), BuildingBlock: EZIPEK_clean_linker_0, # of connection points: 2
#     Edge 62, Type (0, 0), BuildingBlock: EZIPEK_clean_linker_0, # of connection points: 2
#     Edge 63, Type (0, 0), BuildingBlock: EZIPEK_clean_linker_0, # of connection points: 2
#     Edge 64, Type (0, 0), BuildingBlock: EZIPEK_clean_linker_0, # of connection points: 2
#     Edge 65, Type (0, 0), BuildingBlock: EZIPEK_clean_linker_0, # of connection points: 2
#     Edge 66, Type (0, 0), BuildingBlock: EZIPEK_clean_linker_0, # of connection points: 2
#     Edge 67, Type (0, 0), BuildingBlock: EZIPEK_clean_linker_0, # of connection points: 2
#     Edge 68, Type (0, 0), BuildingBlock: EZIPEK_clean_linker_0, # of connection points: 2
#     Edge 69, Type (0, 0), BuildingBlock: EZIPEK_clean_linker_0, # of connection points: 2
#     Edge 70, Type (0, 0), BuildingBlock: EZIPEK_clean_linker_0, # of connection points: 2
#     Edge 71, Type (0, 0), BuildingBlock: EZIPEK_clean_linker_0, # of connection points: 2
# Relax obj value: 0.233
# Max RMSD: 0.214
# Mean RMSD: 0.214
data_MOF--net-hbo--node1-QUQFOY_clean_sbu_1--edge1-EZIPEK_clean_linker_0
_symmetry_space_group_name_H-M    P1
_symmetry_Int_Tables_number       1
_symmetry_cell_setting            triclinic
loop_
_symmetry_equiv_pos_as_xyz
'x, y, z'
_cell_length_a     40.625348
_cell_length_b     40.637109
_cell_length_c     40.642056
_cell_angle_alpha  89.936388
_cell_angle_beta   90.031504
_cell_angle_gamma 90.080475
loop_
_atom_site_label
_atom_site_type_symbol
_atom_site_fract_x
_atom_site_fract_y
_atom_site_fract_z
_atom_type_partial_charge
O0 O 0.13472 0.3136 0.27863 0.0
Cd1 Cd 0.1279 0.34319 0.23813 0.0
Cd2 Cd 0.17222 0.38069 0.26694 0.0
O3 O 0.17637 0.34145 0.29958 0.0
O4 O 0.08582 0.32611 0.21918 0.0
O5 O 0.09162 0.37671 0.23858 0.0
C6 C 0.07283 0.35399 0.22678 0.0
C7 C 0.16024 0.43542 0.27805 0.0
C8 C 0.1587 0.31555 0.29855 0.0
C9 C 0.19284 0.35178 0.20335 0.0
O10 O 0.1997 0.37268 0.22549 0.0
O11 O 0.16493 0.33747 0.20313 0.0
O12 O 0.18865 0.42323 0.28542 0.0
O13 O 0.13775 0.41584 0.26697 0.0
O14 O 0.13595 0.69764 0.74375 0.0
Cd15 Cd 0.12468 0.66031 0.77665 0.0
Cd16 Cd 0.16676 0.62934 0.73854 0.0
O17 O 0.1594 0.66714 0.70553 0.0
O18 O 0.08108 0.67229 0.79634 0.0
O19 O 0.08885 0.62848 0.76486 0.0
C20 C 0.06899 0.64728 0.78093 0.0
C21 C 0.15974 0.57354 0.72872 0.0
C22 C 0.14873 0.69485 0.71533 0.0
C23 C 0.19022 0.64847 0.80558 0.0
O24 O 0.19835 0.64116 0.77631 0.0
O25 O 0.15997 0.6522 0.81296 0.0
O26 O 0.18476 0.58906 0.71671 0.0
O27 O 0.13777 0.59008 0.74454 0.0
O28 O 0.80277 0.64474 0.24234 0.0
Cd29 Cd 0.84061 0.63482 0.27476 0.0
Cd30 Cd 0.86886 0.67874 0.23656 0.0
O31 O 0.8303 0.67197 0.20423 0.0
O32 O 0.82696 0.5925 0.29595 0.0
O33 O 0.87066 0.59725 0.26367 0.0
C34 C 0.85101 0.5788 0.2805 0.0
C35 C 0.92446 0.67046 0.22672 0.0
C36 C 0.80363 0.65925 0.21461 0.0
C37 C 0.85079 0.70048 0.30439 0.0
O38 O 0.85747 0.7094 0.27518 0.0
O39 O 0.84799 0.67001 0.31129 0.0
O40 O 0.90956 0.69602 0.21503 0.0
O41 O 0.9073 0.6486 0.24217 0.0
O42 O 0.79702 0.35664 0.75656 0.0
Cd43 Cd 0.82967 0.36973 0.71976 0.0
Cd44 Cd 0.87255 0.34255 0.7602 0.0
O45 O 0.83527 0.35025 0.7945 0.0
O46 O 0.81388 0.41103 0.69794 0.0
O47 O 0.85873 0.40824 0.72908 0.0
C48 C 0.83831 0.4257 0.7121 0.0
C49 C 0.92811 0.35385 0.76955 0.0
C50 C 0.805 0.35179 0.78644 0.0
C51 C 0.85634 0.30677 0.69672 0.0
O52 O 0.86608 0.30499 0.72642 0.0
O53 O 0.84256 0.33311 0.68696 0.0
O54 O 0.91373 0.32958 0.78412 0.0
O55 O 0.91049 0.3732 0.75157 0.0
O56 O 0.25309 0.20761 0.36137 0.0
Cd57 Cd 0.28787 0.17304 0.37419 0.0
Cd58 Cd 0.24595 0.13297 0.34584 0.0
O59 O 0.21348 0.172 0.35038 0.0
O60 O 0.31088 0.1885 0.41479 0.0
O61 O 0.27748 0.14518 0.41338 0.0
C62 C 0.29555 0.16523 0.43018 0.0
C63 C 0.2335 0.07813 0.35766 0.0
C64 C 0.22331 0.20156 0.35397 0.0
C65 C 0.30989 0.1472 0.31012 0.0
O66 O 0.28008 0.1378 0.30853 0.0
O67 O 0.32013 0.16019 0.33671 0.0
O68 O 0.22046 0.09286 0.33277 0.0
O69 O 0.25193 0.09503 0.37721 0.0
O70 O 0.3584 0.75526 0.80367 0.0
Cd71 Cd 0.37042 0.71909 0.83728 0.0
Cd72 Cd 0.34069 0.7605 0.87841 0.0
O73 O 0.34336 0.79329 0.83947 0.0
O74 O 0.4123 0.69763 0.82274 0.0
O75 O 0.4077 0.72807 0.86785 0.0
C76 C 0.426 0.71166 0.84777 0.0
C77 C 0.35287 0.77353 0.93297 0.0
C78 C 0.34898 0.78439 0.80997 0.0
C79 C 0.30661 0.69542 0.86285 0.0
O80 O 0.30501 0.72457 0.87402 0.0
O81 O 0.33279 0.68631 0.84827 0.0
O82 O 0.32672 0.78477 0.91896 0.0
O83 O 0.3734 0.75698 0.91539 0.0
O84 O 0.77099 0.8118 0.36995 0.0
Cd85 Cd 0.73508 0.84708 0.37488 0.0
Cd86 Cd 0.77733 0.87864 0.33753 0.0
O87 O 0.8109 0.84232 0.35054 0.0
O88 O 0.71123 0.83199 0.41507 0.0
O89 O 0.73918 0.87883 0.41236 0.0
C90 C 0.72313 0.85753 0.42967 0.0
C91 C 0.78345 0.93496 0.34473 0.0
C92 C 0.80109 0.81488 0.36207 0.0
C93 C 0.71383 0.85559 0.30681 0.0
O94 O 0.74348 0.86464 0.30241 0.0
O95 O 0.70288 0.85055 0.33569 0.0
O96 O 0.79918 0.91986 0.32164 0.0
O97 O 0.76591 0.91776 0.36494 0.0
O98 O 0.64352 0.24562 0.80184 0.0
Cd99 Cd 0.62864 0.2814 0.83434 0.0
Cd100 Cd 0.66118 0.24355 0.87544 0.0
O101 O 0.65927 0.20864 0.83843 0.0
O102 O 0.58808 0.30172 0.81541 0.0
O103 O 0.58835 0.27232 0.86146 0.0
C104 C 0.57198 0.288 0.83915 0.0
C105 C 0.65011 0.23268 0.93078 0.0
C106 C 0.65402 0.21701 0.8087 0.0
C107 C 0.69224 0.30877 0.85527 0.0
O108 O 0.69564 0.28011 0.86739 0.0
O109 O 0.66455 0.31664 0.84291 0.0
O110 O 0.67654 0.22194 0.91697 0.0
O111 O 0.62883 0.2479 0.91272 0.0
O112 O 0.27435 0.87057 0.69534 0.0
Cd113 Cd 0.23649 0.87629 0.66227 0.0
Cd114 Cd 0.2692 0.83308 0.62735 0.0
O115 O 0.29992 0.83117 0.66828 0.0
O116 O 0.21543 0.91838 0.67634 0.0
O117 O 0.24011 0.91206 0.62817 0.0
C118 C 0.22571 0.93104 0.64912 0.0
C119 C 0.28384 0.84146 0.57268 0.0
C120 C 0.29598 0.84811 0.69433 0.0
C121 C 0.20484 0.80995 0.653 0.0
O122 O 0.22879 0.80365 0.634 0.0
O123 O 0.20208 0.8383 0.66606 0.0
O124 O 0.29156 0.81458 0.58776 0.0
O125 O 0.27001 0.86468 0.58933 0.0
O126 O 0.69265 0.73406 0.14191 0.0
Cd127 Cd 0.66088 0.77128 0.12855 0.0
Cd128 Cd 0.622 0.73584 0.16468 0.0
O129 O 0.65536 0.69814 0.15802 0.0
O130 O 0.67765 0.78972 0.0864 0.0
O131 O 0.62917 0.76479 0.09139 0.0
C132 C 0.65098 0.77884 0.07298 0.0
C133 C 0.56535 0.72843 0.16106 0.0
C134 C 0.68528 0.70571 0.15281 0.0
C135 C 0.65057 0.79868 0.19313 0.0
O136 O 0.63782 0.77059 0.19838 0.0
O137 O 0.65806 0.80737 0.16403 0.0
O138 O 0.5819 0.71659 0.1854 0.0
O139 O 0.58109 0.74338 0.13784 0.0
O140 O 0.73794 0.14337 0.69512 0.0
Cd141 Cd 0.76959 0.12872 0.65816 0.0
Cd142 Cd 0.73268 0.17084 0.62674 0.0
O143 O 0.69967 0.1675 0.66505 0.0
O144 O 0.79063 0.08792 0.67577 0.0
O145 O 0.75822 0.08835 0.63191 0.0
C146 C 0.77545 0.07196 0.65294 0.0
C147 C 0.72388 0.15888 0.57166 0.0
C148 C 0.71029 0.15785 0.69287 0.0
C149 C 0.80056 0.19242 0.64485 0.0
O150 O 0.77152 0.20142 0.63762 0.0
O151 O 0.80708 0.162 0.64831 0.0
O152 O 0.71285 0.18586 0.58431 0.0
O153 O 0.73805 0.13778 0.59078 0.0
O154 O 0.30548 0.26056 0.13589 0.0
Cd155 Cd 0.34369 0.22861 0.12561 0.0
Cd156 Cd 0.37391 0.26901 0.16609 0.0
O157 O 0.33521 0.30058 0.15747 0.0
O158 O 0.33194 0.20611 0.08332 0.0
O159 O 0.37398 0.24055 0.08857 0.0
C160 C 0.35584 0.22226 0.07001 0.0
C161 C 0.42939 0.27923 0.15735 0.0
C162 C 0.30765 0.28952 0.14754 0.0
C163 C 0.35651 0.20258 0.19224 0.0
O164 O 0.36308 0.23232 0.19932 0.0
O165 O 0.35311 0.194 0.16227 0.0
O166 O 0.41434 0.2923 0.18208 0.0
O167 O 0.41248 0.26213 0.13659 0.0
O168 O 0.86804 0.68757 0.72626 0.0
Cd169 Cd 0.87221 0.65243 0.76263 0.0
Cd170 Cd 0.82712 0.62237 0.7261 0.0
O171 O 0.82836 0.6646 0.69725 0.0
O172 O 0.91307 0.66721 0.78594 0.0
O173 O 0.90933 0.61969 0.75966 0.0
C174 C 0.92706 0.64087 0.77534 0.0
C175 C 0.83809 0.56813 0.71305 0.0
C176 C 0.84668 0.68928 0.70355 0.0
C177 C 0.80468 0.64295 0.79237 0.0
O178 O 0.79713 0.62826 0.76593 0.0
O179 O 0.83384 0.6537 0.79686 0.0
O180 O 0.81113 0.58192 0.70334 0.0
O181 O 0.86017 0.58612 0.72727 0.0
O182 O 0.86099 0.31021 0.2721 0.0
Cd183 Cd 0.87498 0.34176 0.23481 0.0
Cd184 Cd 0.83675 0.38082 0.26882 0.0
O185 O 0.84027 0.34674 0.30639 0.0
O186 O 0.91763 0.32472 0.21726 0.0
O187 O 0.91209 0.37355 0.24097 0.0
C188 C 0.93088 0.35155 0.22794 0.0
C189 C 0.84654 0.43684 0.27536 0.0
C190 C 0.84772 0.31714 0.29951 0.0
C191 C 0.81067 0.35205 0.20525 0.0
O192 O 0.80433 0.36592 0.23252 0.0
O193 O 0.8401 0.34426 0.19797 0.0
O194 O 0.81987 0.42355 0.28639 0.0
O195 O 0.86821 0.41815 0.26166 0.0
O196 O 0.19913 0.36088 0.77291 0.0
Cd197 Cd 0.17005 0.37524 0.734 0.0
Cd198 Cd 0.12671 0.34097 0.76755 0.0
O199 O 0.15967 0.34443 0.80635 0.0
O200 O 0.18891 0.4173 0.7168 0.0
O201 O 0.13913 0.41307 0.73898 0.0
C202 C 0.16213 0.43125 0.72666 0.0
C203 C 0.07039 0.35133 0.77203 0.0
C204 C 0.19006 0.34936 0.8005 0.0
C205 C 0.15642 0.311 0.70586 0.0
O206 O 0.14104 0.30666 0.73277 0.0
O207 O 0.16717 0.3394 0.69818 0.0
O208 O 0.08316 0.32505 0.78441 0.0
O209 O 0.08975 0.37255 0.75843 0.0
O210 O 0.19566 0.64679 0.23176 0.0
Cd211 Cd 0.16561 0.63331 0.27032 0.0
Cd212 Cd 0.12378 0.66673 0.23517 0.0
O213 O 0.15611 0.65883 0.19675 0.0
O214 O 0.18294 0.59144 0.28918 0.0
O215 O 0.13427 0.59573 0.26452 0.0
C216 C 0.15646 0.57756 0.27834 0.0
C217 C 0.06685 0.66306 0.22857 0.0
C218 C 0.18655 0.65573 0.20323 0.0
C219 C 0.15384 0.69855 0.29571 0.0
O220 O 0.13988 0.70233 0.26794 0.0
O221 O 0.16244 0.67 0.30523 0.0
O222 O 0.08359 0.6862 0.21474 0.0
O223 O 0.08254 0.64094 0.24512 0.0
O224 O 0.76305 0.80207 0.63716 0.0
Cd225 Cd 0.72691 0.83596 0.62621 0.0
Cd226 Cd 0.76349 0.87362 0.66371 0.0
O227 O 0.79888 0.83747 0.65759 0.0
O228 O 0.70669 0.82313 0.58328 0.0
O229 O 0.73574 0.86885 0.59083 0.0
C230 C 0.71996 0.84941 0.57128 0.0
C231 C 0.77262 0.92972 0.65666 0.0
C232 C 0.79123 0.80823 0.64925 0.0
C233 C 0.69969 0.84845 0.69178 0.0
O234 O 0.72778 0.86094 0.69749 0.0
O235 O 0.69169 0.84019 0.66265 0.0
O236 O 0.78446 0.91432 0.68178 0.0
O237 O 0.7569 0.91306 0.6347 0.0
O238 O 0.63292 0.2285 0.19861 0.0
Cd239 Cd 0.62671 0.26691 0.16619 0.0
Cd240 Cd 0.66143 0.22621 0.1289 0.0
O241 O 0.6513 0.19088 0.16476 0.0
O242 O 0.58655 0.28989 0.18297 0.0
O243 O 0.58887 0.26443 0.1348 0.0
C244 C 0.57175 0.27942 0.1569 0.0
C245 C 0.65047 0.22228 0.07278 0.0
C246 C 0.64111 0.1988 0.1933 0.0
C247 C 0.69459 0.28804 0.15397 0.0
O248 O 0.69769 0.25951 0.14148 0.0
O249 O 0.66647 0.29853 0.16285 0.0
O250 O 0.67459 0.20616 0.08576 0.0
O251 O 0.63134 0.2388 0.09197 0.0
O252 O 0.24743 0.20043 0.64187 0.0
Cd253 Cd 0.28207 0.1659 0.62856 0.0
Cd254 Cd 0.2399 0.12751 0.65877 0.0
O255 O 0.20727 0.16646 0.6555 0.0
O256 O 0.30532 0.1844 0.58941 0.0
O257 O 0.27439 0.13934 0.58772 0.0
C258 C 0.29201 0.16101 0.57251 0.0
C259 C 0.2281 0.07295 0.64608 0.0
C260 C 0.21779 0.19555 0.65059 0.0
C261 C 0.30514 0.14116 0.69259 0.0
O262 O 0.27524 0.13221 0.69498 0.0
O263 O 0.315 0.15359 0.66557 0.0
O264 O 0.21564 0.08674 0.67175 0.0
O265 O 0.24542 0.09075 0.62623 0.0
O266 O 0.3567 0.77848 0.20559 0.0
Cd267 Cd 0.36765 0.73978 0.17511 0.0
Cd268 Cd 0.34097 0.77825 0.13034 0.0
O269 O 0.34877 0.81453 0.16576 0.0
O270 O 0.40736 0.71672 0.19261 0.0
O271 O 0.40682 0.74552 0.14612 0.0
C272 C 0.42312 0.72904 0.16786 0.0
C273 C 0.35359 0.78321 0.07469 0.0
C274 C 0.35105 0.8078 0.19632 0.0
C275 C 0.3024 0.71888 0.15419 0.0
O276 O 0.30221 0.74646 0.13935 0.0
O277 O 0.32867 0.70829 0.16748 0.0
O278 O 0.32953 0.79952 0.08737 0.0
O279 O 0.37196 0.76594 0.09399 0.0
O280 O 0.72978 0.14346 0.29906 0.0
Cd281 Cd 0.76779 0.13257 0.33071 0.0
Cd282 Cd 0.72794 0.16057 0.37307 0.0
O283 O 0.69231 0.15028 0.33754 0.0
O284 O 0.78976 0.09173 0.31442 0.0
O285 O 0.76224 0.09468 0.36155 0.0
C286 C 0.77803 0.07725 0.3402 0.0
C287 C 0.72155 0.15187 0.42949 0.0
C288 C 0.70001 0.1484 0.30721 0.0
C289 C 0.7878 0.19838 0.34872 0.0
O290 O 0.75932 0.19913 0.36173 0.0
O291 O 0.79949 0.17147 0.33792 0.0
O292 O 0.70558 0.1749 0.41461 0.0
O293 O 0.73948 0.13234 0.41205 0.0
O294 O 0.30856 0.2624 0.86341 0.0
Cd295 Cd 0.34672 0.22998 0.87224 0.0
Cd296 Cd 0.37393 0.26854 0.82752 0.0
O297 O 0.33457 0.29997 0.83397 0.0
O298 O 0.33345 0.20884 0.91465 0.0
O299 O 0.37828 0.23943 0.90921 0.0
C300 C 0.35847 0.22311 0.92796 0.0
C301 C 0.42941 0.28099 0.8345 0.0
C302 C 0.30851 0.28962 0.84793 0.0
C303 C 0.35561 0.20016 0.80649 0.0
O304 O 0.36292 0.22921 0.79746 0.0
O305 O 0.35255 0.19343 0.83696 0.0
O306 O 0.41356 0.29103 0.80882 0.0
O307 O 0.41333 0.26544 0.85711 0.0
O308 O 0.27433 0.87626 0.30786 0.0
Cd309 Cd 0.23935 0.8813 0.34423 0.0
Cd310 Cd 0.28104 0.84247 0.37402 0.0
O311 O 0.31427 0.85573 0.33757 0.0
O312 O 0.2159 0.9226 0.33158 0.0
O313 O 0.246 0.91784 0.37683 0.0
C314 C 0.22899 0.93607 0.35716 0.0
C315 C 0.28913 0.84705 0.4304 0.0
C316 C 0.30431 0.86775 0.31041 0.0
C317 C 0.21681 0.81326 0.3514 0.0
O318 O 0.24656 0.80809 0.35957 0.0
O319 O 0.20635 0.84251 0.34749 0.0
O320 O 0.30384 0.8244 0.4137 0.0
O321 O 0.2714 0.86831 0.4148 0.0
O322 O 0.69542 0.72804 0.87127 0.0
Cd323 Cd 0.66216 0.76531 0.87683 0.0
Cd324 Cd 0.62268 0.72735 0.84189 0.0
O325 O 0.66334 0.69602 0.84124 0.0
O326 O 0.6768 0.78933 0.91701 0.0
O327 O 0.62973 0.76168 0.91368 0.0
C328 C 0.65065 0.77805 0.93113 0.0
C329 C 0.56822 0.71358 0.85287 0.0
C330 C 0.69129 0.70234 0.85406 0.0
C331 C 0.64573 0.78927 0.80939 0.0
O332 O 0.62662 0.7646 0.80799 0.0
O333 O 0.66121 0.7959 0.83583 0.0
O334 O 0.58266 0.70302 0.82671 0.0
O335 O 0.58549 0.72948 0.87428 0.0
C336 C 0.15263 0.52387 0.3089 0.0
C337 C 0.15346 0.54118 0.27857 0.0
C338 C 0.15237 0.4889 0.24835 0.0
C339 C 0.15509 0.47157 0.27865 0.0
N340 N 0.15947 0.4719 0.33776 0.0
N341 N 0.15888 0.54064 0.21941 0.0
C342 C 0.15566 0.4889 0.30897 0.0
C343 C 0.15413 0.52385 0.24826 0.0
N344 N 0.14797 0.5409 0.33751 0.0
N345 N 0.14872 0.47201 0.21947 0.0
H346 H 0.16074 0.56619 0.21802 0.0
H347 H 0.16384 0.52927 0.19703 0.0
H348 H 0.15013 0.44649 0.21766 0.0
H349 H 0.14212 0.48319 0.19737 0.0
H350 H 0.14395 0.52976 0.36023 0.0
H351 H 0.14544 0.56644 0.33815 0.0
H352 H 0.16403 0.48306 0.36035 0.0
H353 H 0.15966 0.44625 0.33887 0.0
C354 C 0.98156 0.64423 0.74715 0.0
C355 C 0.96342 0.63798 0.77642 0.0
C356 C 0.01482 0.63486 0.80827 0.0
C357 C 0.03283 0.64221 0.77923 0.0
N358 N 0.03458 0.65027 0.72035 0.0
N359 N 0.96141 0.62872 0.83483 0.0
C360 C 0.01655 0.64554 0.74843 0.0
C361 C 0.97972 0.63349 0.80699 0.0
N362 N 0.96514 0.65151 0.71859 0.0
N363 N 0.03151 0.62791 0.83669 0.0
H364 H 0.93588 0.62585 0.83432 0.0
H365 H 0.97097 0.62871 0.85856 0.0
H366 H 0.05714 0.62826 0.83821 0.0
H367 H 0.02049 0.61974 0.85829 0.0
H368 H 0.97635 0.66044 0.69738 0.0
H369 H 0.9396 0.65069 0.71629 0.0
H370 H 0.02504 0.64809 0.6967 0.0
H371 H 0.05978 0.65502 0.72029 0.0
C372 C 0.85523 0.48911 0.30726 0.0
C373 C 0.85106 0.473 0.27654 0.0
C374 C 0.84779 0.52633 0.24841 0.0
C375 C 0.85339 0.54246 0.27892 0.0
N376 N 0.86785 0.53988 0.33628 0.0
N377 N 0.84854 0.4756 0.2172 0.0
C378 C 0.85862 0.52401 0.30809 0.0
C379 C 0.84929 0.49143 0.24689 0.0
N380 N 0.85564 0.47101 0.33565 0.0
N381 N 0.83873 0.5442 0.22131 0.0
H382 H 0.84708 0.45011 0.21481 0.0
H383 H 0.85162 0.48762 0.19477 0.0
H384 H 0.83671 0.56977 0.22123 0.0
H385 H 0.83036 0.53366 0.19952 0.0
H386 H 0.85463 0.48131 0.35906 0.0
H387 H 0.8553 0.44534 0.33584 0.0
H388 H 0.87521 0.52783 0.35766 0.0
H389 H 0.87078 0.56536 0.33751 0.0
C390 C 0.01727 0.3528 0.74073 0.0
C391 C 0.03412 0.35558 0.77123 0.0
C392 C 0.98133 0.36274 0.79992 0.0
C393 C 0.96451 0.35662 0.76995 0.0
N394 N 0.96604 0.3407 0.71272 0.0
N395 N 0.0329 0.36141 0.83023 0.0
C396 C 0.98233 0.35068 0.74049 0.0
C397 C 0.01632 0.36006 0.80097 0.0
N398 N 0.03462 0.35167 0.71191 0.0
N399 N 0.96383 0.37208 0.82707 0.0
H400 H 0.05854 0.36163 0.83173 0.0
H401 H 0.02142 0.3607 0.8531 0.0
H402 H 0.93825 0.3744 0.82694 0.0
H403 H 0.97459 0.38005 0.8489 0.0
H404 H 0.02373 0.35406 0.68883 0.0
H405 H 0.06022 0.35058 0.71082 0.0
H406 H 0.97784 0.33203 0.69173 0.0
H407 H 0.94053 0.33822 0.71137 0.0
C408 C 0.15997 0.48444 0.75748 0.0
C409 C 0.15934 0.4676 0.72687 0.0
C410 C 0.15509 0.52033 0.69751 0.0
C411 C 0.15837 0.53712 0.72791 0.0
N412 N 0.16902 0.53578 0.78635 0.0
N413 N 0.15881 0.46873 0.66758 0.0
C414 C 0.16184 0.51936 0.75783 0.0
C415 C 0.15768 0.48535 0.69679 0.0
N416 N 0.15915 0.46707 0.78635 0.0
N417 N 0.14834 0.53784 0.66955 0.0
H418 H 0.15868 0.4431 0.66614 0.0
H419 H 0.16159 0.48015 0.64482 0.0
H420 H 0.14622 0.56342 0.66935 0.0
H421 H 0.14236 0.5271 0.6471 0.0
H422 H 0.15497 0.47786 0.80918 0.0
H423 H 0.16069 0.44151 0.78758 0.0
H424 H 0.17598 0.52416 0.8081 0.0
H425 H 0.17079 0.56132 0.78786 0.0
C426 C 0.97701 0.64263 0.20937 0.0
C427 C 0.96091 0.66848 0.2264 0.0
C428 C 0.01423 0.69081 0.24413 0.0
C429 C 0.03035 0.66418 0.22829 0.0
N430 N 0.02778 0.61281 0.1988 0.0
N431 N 0.96327 0.7139 0.26455 0.0
C432 C 0.0119 0.63939 0.21191 0.0
C433 C 0.97929 0.69184 0.24482 0.0
N434 N 0.95899 0.62206 0.18973 0.0
N435 N 0.03235 0.71517 0.25877 0.0
H436 H 0.93774 0.71572 0.26571 0.0
H437 H 0.97499 0.72876 0.2818 0.0
H438 H 0.05776 0.71387 0.26214 0.0
H439 H 0.02249 0.73755 0.26632 0.0
H440 H 0.96927 0.60473 0.17398 0.0
H441 H 0.93349 0.62389 0.18733 0.0
H442 H 0.01576 0.59208 0.18977 0.0
H443 H 0.05334 0.61055 0.1986 0.0
C444 C 0.83927 0.51417 0.74271 0.0
C445 C 0.8412 0.53176 0.7125 0.0
C446 C 0.84544 0.47959 0.68223 0.0
C447 C 0.84064 0.46214 0.71212 0.0
N448 N 0.82774 0.46249 0.77011 0.0
N449 N 0.8436 0.53196 0.65329 0.0
C450 C 0.83652 0.47931 0.74224 0.0
C451 C 0.84352 0.51465 0.68215 0.0
N452 N 0.83955 0.53076 0.77201 0.0
N453 N 0.85294 0.46262 0.65419 0.0
H454 H 0.84416 0.55762 0.65245 0.0
H455 H 0.84138 0.5211 0.63022 0.0
H456 H 0.85468 0.43702 0.65354 0.0
H457 H 0.85996 0.4738 0.63224 0.0
H458 H 0.84296 0.51927 0.79467 0.0
H459 H 0.8384 0.55629 0.77391 0.0
H460 H 0.8202 0.47384 0.79177 0.0
H461 H 0.82511 0.43699 0.77104 0.0
C462 C 0.98464 0.3567 0.25768 0.0
C463 C 0.96712 0.35575 0.22742 0.0
C464 C 0.01909 0.35827 0.19653 0.0
C465 C 0.03659 0.35774 0.22676 0.0
N466 N 0.03707 0.35296 0.28598 0.0
N467 N 0.96618 0.3608 0.16842 0.0
C468 C 0.01964 0.35666 0.25734 0.0
C469 C 0.98397 0.35786 0.19688 0.0
N470 N 0.96776 0.35741 0.28683 0.0
N471 N 0.03629 0.35841 0.16759 0.0
H472 H 0.9405 0.36116 0.16803 0.0
H473 H 0.97637 0.36488 0.14533 0.0
H474 H 0.06188 0.36049 0.16667 0.0
H475 H 0.02572 0.35551 0.14447 0.0
H476 H 0.97851 0.36287 0.30941 0.0
H477 H 0.94238 0.35416 0.28861 0.0
H478 H 0.0265 0.34772 0.30869 0.0
H479 H 0.0627 0.35291 0.2871 0.0
C480 C 0.27569 0.18651 0.51905 0.0
C481 C 0.29334 0.16166 0.5361 0.0
C482 C 0.3109 0.13759 0.48353 0.0
C483 C 0.29544 0.164 0.46663 0.0
N484 N 0.26513 0.21511 0.4678 0.0
N485 N 0.33025 0.11539 0.53568 0.0
C486 C 0.27859 0.189 0.48429 0.0
C487 C 0.31152 0.13755 0.51864 0.0
N488 N 0.25471 0.20668 0.53599 0.0
N489 N 0.32476 0.1125 0.46598 0.0
H490 H 0.33094 0.11459 0.56134 0.0
H491 H 0.3468 0.09929 0.52469 0.0
H492 H 0.32622 0.1126 0.44035 0.0
H493 H 0.33318 0.09073 0.47651 0.0
H494 H 0.23817 0.22268 0.52475 0.0
H495 H 0.25163 0.20558 0.56145 0.0
H496 H 0.25654 0.23625 0.4794 0.0
H497 H 0.26408 0.21671 0.44222 0.0
C498 C 0.35205 0.74704 0.98848 0.0
C499 C 0.35677 0.77581 0.96914 0.0
C500 C 0.3647 0.80857 0.01932 0.0
C501 C 0.3568 0.78047 0.0385 0.0
N502 N 0.33786 0.72417 0.04164 0.0
N503 N 0.36563 0.83431 0.9653 0.0
C504 C 0.34951 0.7499 0.02321 0.0
C505 C 0.36257 0.80672 0.98434 0.0
N506 N 0.34943 0.71692 0.97367 0.0
N507 N 0.37511 0.83666 0.03462 0.0
H508 H 0.36604 0.83352 0.93964 0.0
H509 H 0.36611 0.85811 0.97472 0.0
H510 H 0.37699 0.83862 0.06016 0.0
H511 H 0.3843 0.85711 0.02221 0.0
H512 H 0.35049 0.69477 0.98653 0.0
H513 H 0.34834 0.71363 0.94827 0.0
H514 H 0.32815 0.70272 0.03154 0.0
H515 H 0.33507 0.72509 0.06712 0.0
C516 C 0.75224 0.85459 0.48376 0.0
C517 C 0.72247 0.85956 0.46604 0.0
C518 C 0.69169 0.86272 0.51795 0.0
C519 C 0.72089 0.85474 0.53531 0.0
N520 N 0.77808 0.83874 0.53513 0.0
N521 N 0.66361 0.86665 0.46525 0.0
C522 C 0.75104 0.84993 0.51838 0.0
C523 C 0.69208 0.86319 0.48288 0.0
N524 N 0.78173 0.85372 0.4675 0.0
N525 N 0.66389 0.87068 0.53512 0.0
H526 H 0.6633 0.86911 0.4397 0.0
H527 H 0.64022 0.86558 0.47562 0.0
H528 H 0.66294 0.87047 0.56078 0.0
H529 H 0.64256 0.87982 0.5243 0.0
H530 H 0.80443 0.85482 0.47934 0.0
H531 H 0.78391 0.8539 0.44197 0.0
H532 H 0.79954 0.83066 0.52374 0.0
H533 H 0.77842 0.83486 0.56049 0.0
C534 C 0.64097 0.19661 0.0172 0.0
C535 C 0.64728 0.22501 0.03649 0.0
C536 C 0.64898 0.25902 0.98649 0.0
C537 C 0.6461 0.23014 0.96702 0.0
N538 N 0.64119 0.17118 0.96311 0.0
N539 N 0.66247 0.28241 0.03961 0.0
C540 C 0.6426 0.19882 0.9822 0.0
C541 C 0.65227 0.25609 0.02121 0.0
N542 N 0.63239 0.16782 0.0324 0.0
N543 N 0.64914 0.28935 0.97183 0.0
H544 H 0.66595 0.28141 0.065 0.0
H545 H 0.67044 0.30457 0.02949 0.0
H546 H 0.64932 0.29283 0.94644 0.0
H547 H 0.64678 0.31127 0.98486 0.0
H548 H 0.62428 0.14699 0.01991 0.0
H549 H 0.63082 0.16553 0.05793 0.0
H550 H 0.64265 0.14737 0.97246 0.0
H551 H 0.64014 0.17204 0.93747 0.0
C552 C 0.30623 0.86945 0.48566 0.0
C553 C 0.2887 0.84579 0.46683 0.0
C554 C 0.26604 0.82166 0.51732 0.0
C555 C 0.28586 0.84332 0.53629 0.0
N556 N 0.32724 0.88567 0.53933 0.0
N557 N 0.25446 0.7972 0.46427 0.0
C558 C 0.30653 0.86679 0.52069 0.0
C559 C 0.26953 0.82114 0.48256 0.0
N560 N 0.32232 0.89455 0.47001 0.0
N561 N 0.24238 0.80293 0.53237 0.0
H562 H 0.25416 0.79709 0.43862 0.0
H563 H 0.24394 0.77616 0.47449 0.0
H564 H 0.23831 0.80302 0.5577 0.0
H565 H 0.22457 0.78961 0.51963 0.0
H566 H 0.33259 0.91461 0.48217 0.0
H567 H 0.3237 0.89636 0.44444 0.0
H568 H 0.34536 0.90091 0.52951 0.0
H569 H 0.3279 0.88433 0.56496 0.0
C570 C 0.66309 0.75141 0.01973 0.0
C571 C 0.64811 0.77787 0.03677 0.0
C572 C 0.63064 0.80244 0.98437 0.0
C573 C 0.64844 0.77774 0.96742 0.0
N574 N 0.68386 0.73006 0.96815 0.0
N575 N 0.61918 0.8295 0.03652 0.0
C576 C 0.66519 0.75251 0.98489 0.0
C577 C 0.63211 0.80361 0.01943 0.0
N578 N 0.67467 0.72484 0.03692 0.0
N579 N 0.61212 0.82443 0.9669 0.0
H580 H 0.6191 0.83046 0.06218 0.0
H581 H 0.61014 0.85077 0.02549 0.0
H582 H 0.6112 0.82443 0.94123 0.0
H583 H 0.59605 0.8412 0.97761 0.0
H584 H 0.68247 0.7031 0.02592 0.0
H585 H 0.67413 0.72333 0.06255 0.0
H586 H 0.70006 0.71379 0.97949 0.0
H587 H 0.68488 0.72889 0.94253 0.0
C588 C 0.69304 0.14877 0.51884 0.0
C589 C 0.72333 0.15396 0.5355 0.0
C590 C 0.75234 0.15746 0.48263 0.0
C591 C 0.72236 0.15056 0.46598 0.0
N592 N 0.66534 0.13454 0.46773 0.0
N593 N 0.78263 0.15858 0.53397 0.0
C594 C 0.69298 0.14481 0.48396 0.0
C595 C 0.75325 0.15653 0.5176 0.0
N596 N 0.66433 0.14797 0.53636 0.0
N597 N 0.77947 0.16719 0.46515 0.0
H598 H 0.78454 0.1606 0.55946 0.0
H599 H 0.80538 0.15608 0.52245 0.0
H600 H 0.77995 0.16887 0.43956 0.0
H601 H 0.80077 0.17647 0.47597 0.0
H602 H 0.6411 0.14814 0.52557 0.0
H603 H 0.66367 0.1489 0.562 0.0
H604 H 0.64395 0.12677 0.4795 0.0
H605 H 0.66464 0.13119 0.44229 0.0
C606 C 0.35274 0.25238 0.0164 0.0
C607 C 0.35983 0.22289 0.03378 0.0
C608 C 0.36798 0.19363 0.98159 0.0
C609 C 0.36209 0.22343 0.96427 0.0
N610 N 0.35373 0.28234 0.9649 0.0
N611 N 0.37932 0.16701 0.034 0.0
C612 C 0.35634 0.25322 0.98163 0.0
C613 C 0.3689 0.1939 0.01666 0.0
N614 N 0.34034 0.27899 0.0329 0.0
N615 N 0.37233 0.16504 0.96444 0.0
H616 H 0.38032 0.16657 0.05966 0.0
H617 H 0.38938 0.14612 0.02319 0.0
H618 H 0.37399 0.16432 0.93883 0.0
H619 H 0.37277 0.14185 0.97532 0.0
H620 H 0.33077 0.29971 0.02126 0.0
H621 H 0.33686 0.27949 0.0583 0.0
H622 H 0.35401 0.30524 0.97636 0.0
H623 H 0.35346 0.28408 0.93933 0.0
C624 C 0.51802 0.24954 0.15852 0.0
C625 C 0.53533 0.27977 0.15501 0.0
C626 C 0.48296 0.30953 0.1498 0.0
C627 C 0.46579 0.27964 0.15553 0.0
N628 N 0.46644 0.22215 0.17056 0.0
N629 N 0.5352 0.33885 0.15021 0.0
C630 C 0.48316 0.24984 0.16098 0.0
C631 C 0.51804 0.30991 0.15155 0.0
N632 N 0.5349 0.22043 0.1599 0.0
N633 N 0.4657 0.33721 0.14161 0.0
H634 H 0.56086 0.33981 0.14965 0.0
H635 H 0.52424 0.36195 0.15138 0.0
H636 H 0.44005 0.33763 0.14018 0.0
H637 H 0.4766 0.35909 0.13393 0.0
H638 H 0.5237 0.19749 0.15761 0.0
H639 H 0.56045 0.21888 0.16152 0.0
H640 H 0.47783 0.20085 0.17906 0.0
H641 H 0.4409 0.22108 0.17273 0.0
C642 C 0.51477 0.68294 0.85971 0.0
C643 C 0.5318 0.71309 0.85493 0.0
C644 C 0.47942 0.74233 0.84737 0.0
C645 C 0.46234 0.71204 0.85132 0.0
N646 N 0.46221 0.65445 0.86518 0.0
N647 N 0.53149 0.77064 0.84001 0.0
C648 C 0.47963 0.6825 0.85842 0.0
C649 C 0.51441 0.74268 0.84816 0.0
N650 N 0.53243 0.65475 0.86481 0.0
N651 N 0.46213 0.77087 0.84271 0.0
H652 H 0.55709 0.77227 0.84032 0.0
H653 H 0.52071 0.79188 0.83067 0.0
H654 H 0.43685 0.77159 0.83842 0.0
H655 H 0.47239 0.79426 0.84458 0.0
H656 H 0.52232 0.63126 0.86553 0.0
H657 H 0.55799 0.6547 0.8674 0.0
H658 H 0.47265 0.63243 0.87293 0.0
H659 H 0.43655 0.65354 0.86474 0.0
C660 C 0.81094 0.99 0.35219 0.0
C661 C 0.78215 0.97141 0.34538 0.0
C662 C 0.75022 0.02228 0.33902 0.0
C663 C 0.77953 0.04092 0.34333 0.0
N664 N 0.83827 0.04325 0.35123 0.0
N665 N 0.7257 0.96927 0.3269 0.0
C666 C 0.81009 0.02496 0.34905 0.0
C667 C 0.75205 0.98738 0.33763 0.0
N668 N 0.83873 0.97422 0.36274 0.0
N669 N 0.72057 0.03792 0.33591 0.0
H670 H 0.72594 0.94368 0.32504 0.0
H671 H 0.70442 0.97958 0.31706 0.0
H672 H 0.71814 0.06338 0.33403 0.0
H673 H 0.69801 0.02581 0.3372 0.0
H674 H 0.85962 0.98632 0.37133 0.0
H675 H 0.84006 0.94871 0.3653 0.0
H676 H 0.86179 0.03314 0.35158 0.0
H677 H 0.8383 0.06892 0.3509 0.0
C678 C 0.48145 0.30305 0.86026 0.0
C679 C 0.46586 0.28343 0.83591 0.0
C680 C 0.51972 0.26826 0.81308 0.0
C681 C 0.53544 0.28666 0.83835 0.0
N682 N 0.53214 0.31858 0.88816 0.0
N683 N 0.46968 0.24276 0.7929 0.0
C684 C 0.51652 0.30308 0.86269 0.0
C685 C 0.48487 0.26497 0.81319 0.0
N686 N 0.46269 0.32256 0.8802 0.0
N687 N 0.53814 0.25363 0.789 0.0
H688 H 0.44425 0.2394 0.79222 0.0
H689 H 0.48219 0.2256 0.77863 0.0
H690 H 0.56376 0.25243 0.78954 0.0
H691 H 0.52817 0.24402 0.76746 0.0
H692 H 0.47234 0.34002 0.89624 0.0
H693 H 0.43703 0.32299 0.87905 0.0
H694 H 0.52003 0.32788 0.90869 0.0
H695 H 0.55769 0.32055 0.88974 0.0
C696 C 0.25542 0.98892 0.34116 0.0
C697 C 0.23075 0.97235 0.35954 0.0
C698 C 0.21031 0.02522 0.38043 0.0
C699 C 0.23295 0.04176 0.35958 0.0
N700 N 0.27559 0.04017 0.31826 0.0
N701 N 0.18359 0.97359 0.39525 0.0
C702 C 0.25514 0.02381 0.33949 0.0
C703 C 0.20793 0.99018 0.37896 0.0
N704 N 0.27976 0.97122 0.32603 0.0
N705 N 0.19145 0.04307 0.40176 0.0
H706 H 0.18188 0.94797 0.39521 0.0
H707 H 0.16411 0.98502 0.40727 0.0
H708 H 0.19229 0.06871 0.40277 0.0
H709 H 0.17661 0.03263 0.41984 0.0
H710 H 0.30057 0.98178 0.31545 0.0
H711 H 0.28067 0.94558 0.32621 0.0
H712 H 0.28905 0.02866 0.29979 0.0
H713 H 0.27779 0.06573 0.3177 0.0
C714 C 0.5105 0.70942 0.13931 0.0
C715 C 0.52894 0.72839 0.16208 0.0
C716 C 0.47825 0.74505 0.19019 0.0
C717 C 0.45954 0.72762 0.1663 0.0
N718 N 0.45695 0.69599 0.11621 0.0
N719 N 0.53075 0.76922 0.20506 0.0
C720 C 0.47542 0.71071 0.14018 0.0
C721 C 0.51293 0.74742 0.18651 0.0
N722 N 0.52656 0.68925 0.11774 0.0
N723 N 0.46292 0.7596 0.21637 0.0
H724 H 0.55617 0.77214 0.20287 0.0
H725 H 0.52018 0.78664 0.22054 0.0
H726 H 0.43746 0.76094 0.21891 0.0
H727 H 0.47544 0.76869 0.23679 0.0
H728 H 0.51477 0.67212 0.10279 0.0
H729 H 0.55217 0.68801 0.11632 0.0
H730 H 0.46675 0.68659 0.09451 0.0
H731 H 0.43132 0.69464 0.11715 0.0
C732 C 0.79213 0.98236 0.63047 0.0
C733 C 0.77355 0.96609 0.65518 0.0
C734 C 0.7575 0.01914 0.6789 0.0
C735 C 0.77479 0.03553 0.65329 0.0
N736 N 0.80526 0.03363 0.60247 0.0
N737 N 0.7335 0.9683 0.69893 0.0
C738 C 0.79103 0.01737 0.62829 0.0
C739 C 0.75498 0.98428 0.67843 0.0
N740 N 0.81175 0.96435 0.60994 0.0
N741 N 0.74335 0.03692 0.70372 0.0
H742 H 0.73056 0.9428 0.69919 0.0
H743 H 0.71642 0.98028 0.71375 0.0
H744 H 0.74203 0.06254 0.70375 0.0
H745 H 0.73444 0.02641 0.72533 0.0
H746 H 0.82856 0.97467 0.59361 0.0
H747 H 0.81294 0.93872 0.61084 0.0
H748 H 0.81433 0.02194 0.5816 0.0
H749 H 0.80629 0.05923 0.60095 0.0
C750 C 0.25448 0.01936 0.65922 0.0
C751 C 0.22847 0.03665 0.64359 0.0
C752 C 0.20306 0.98435 0.62694 0.0
C753 C 0.22723 0.96725 0.64544 0.0
N754 N 0.27488 0.96773 0.68097 0.0
N755 N 0.17726 0.03683 0.61386 0.0
C756 C 0.25274 0.98456 0.66193 0.0
C757 C 0.20259 0.01948 0.62761 0.0
N758 N 0.28116 0.03627 0.67102 0.0
N759 N 0.18085 0.96692 0.60863 0.0
H760 H 0.17692 0.0625 0.61313 0.0
H761 H 0.15589 0.02608 0.60469 0.0
H762 H 0.18035 0.94124 0.60828 0.0
H763 H 0.1644 0.97761 0.59218 0.0
H764 H 0.30266 0.02504 0.67923 0.0
H765 H 0.28304 0.06186 0.67042 0.0
H766 H 0.29121 0.979 0.69717 0.0
H767 H 0.27583 0.94211 0.68216 0.0
C768 C 0.18122 0.25826 0.29301 0.0
C769 C 0.17127 0.28471 0.31388 0.0
C770 C 0.19038 0.25343 0.3622 0.0
C771 C 0.20299 0.22884 0.34094 0.0
N772 N 0.21607 0.21069 0.28592 0.0
N773 N 0.16727 0.30837 0.36803 0.0
C774 C 0.19954 0.23178 0.30636 0.0
C775 C 0.17609 0.28252 0.34847 0.0
N776 N 0.17392 0.25835 0.26011 0.0
N777 N 0.19165 0.24858 0.39547 0.0
H778 H 0.15491 0.32899 0.359 0.0
H779 H 0.17325 0.31016 0.39286 0.0
H780 H 0.20211 0.2276 0.40597 0.0
H781 H 0.18047 0.26394 0.41258 0.0
H782 H 0.17556 0.23739 0.24547 0.0
H783 H 0.16493 0.27848 0.24717 0.0
H784 H 0.21864 0.21456 0.26071 0.0
H785 H 0.22996 0.19078 0.29419 0.0
C786 C 0.27472 0.64406 0.84517 0.0
C787 C 0.2756 0.67506 0.86122 0.0
C788 C 0.21733 0.68358 0.84963 0.0
C789 C 0.21696 0.65461 0.82999 0.0
N790 N 0.2412 0.60161 0.81925 0.0
N791 N 0.24312 0.71036 0.89602 0.0
C792 C 0.24446 0.63293 0.83105 0.0
C793 C 0.24531 0.6902 0.8693 0.0
N794 N 0.30248 0.62525 0.84392 0.0
N795 N 0.19263 0.7063 0.84786 0.0
H796 H 0.26257 0.71295 0.91263 0.0
H797 H 0.22089 0.72036 0.904 0.0
H798 H 0.17226 0.70419 0.83252 0.0
H799 H 0.19417 0.72911 0.85949 0.0
H800 H 0.3051 0.60471 0.82889 0.0
H801 H 0.32284 0.63009 0.85881 0.0
H802 H 0.2594 0.58371 0.82099 0.0
H803 H 0.21887 0.5926 0.81032 0.0
C804 C 0.86537 0.75425 0.3312 0.0
C805 C 0.84406 0.72649 0.32935 0.0
C806 C 0.8073 0.75378 0.36816 0.0
C807 C 0.82215 0.78441 0.3606 0.0
N808 N 0.87206 0.81222 0.34455 0.0
N809 N 0.7926 0.70087 0.34624 0.0
C810 C 0.85353 0.78421 0.34523 0.0
C811 C 0.81478 0.72607 0.3485 0.0
N812 N 0.89705 0.75139 0.3204 0.0
N813 N 0.78642 0.75114 0.39431 0.0
H814 H 0.79555 0.68053 0.33104 0.0
H815 H 0.76951 0.70182 0.35741 0.0
H816 H 0.78286 0.7706 0.41069 0.0
H817 H 0.77658 0.72871 0.40204 0.0
H818 H 0.91472 0.76982 0.32257 0.0
H819 H 0.90648 0.72901 0.31217 0.0
H820 H 0.89283 0.81522 0.32987 0.0
H821 H 0.86689 0.83229 0.35964 0.0
C822 C 0.75063 0.36796 0.81185 0.0
C823 C 0.77851 0.3467 0.81142 0.0
C824 C 0.75366 0.31529 0.85636 0.0
C825 C 0.72261 0.3293 0.84915 0.0
N826 N 0.69361 0.37648 0.8281 0.0
N827 N 0.80484 0.29743 0.8328 0.0
C828 C 0.72172 0.3582 0.82946 0.0
C829 C 0.77997 0.31999 0.83402 0.0
N830 N 0.75234 0.39782 0.79641 0.0
N831 N 0.75811 0.29791 0.88474 0.0
H832 H 0.82366 0.29793 0.81545 0.0
H833 H 0.80471 0.27603 0.84699 0.0
H834 H 0.73988 0.29667 0.90281 0.0
H835 H 0.78102 0.28896 0.89208 0.0
H836 H 0.73395 0.41557 0.79754 0.0
H837 H 0.77366 0.40616 0.7848 0.0
H838 H 0.68938 0.39489 0.8108 0.0
H839 H 0.67466 0.37349 0.84516 0.0
C840 C 0.15661 0.77101 0.66025 0.0
C841 C 0.18874 0.78144 0.66916 0.0
C842 C 0.1923 0.7373 0.71021 0.0
C843 C 0.1615 0.72497 0.69931 0.0
N844 N 0.11479 0.72797 0.66309 0.0
N845 N 0.23935 0.77171 0.69917 0.0
C846 C 0.14367 0.74128 0.67407 0.0
C847 C 0.20713 0.76382 0.6932 0.0
N848 N 0.13861 0.78965 0.63883 0.0
N849 N 0.20719 0.72415 0.73746 0.0
H850 H 0.25119 0.7919 0.68877 0.0
H851 H 0.25526 0.75693 0.71278 0.0
H852 H 0.19818 0.70372 0.75011 0.0
H853 H 0.22715 0.73507 0.7493 0.0
H854 H 0.114 0.78521 0.63325 0.0
H855 H 0.14792 0.81103 0.62802 0.0
H856 H 0.10183 0.73674 0.64282 0.0
H857 H 0.1046 0.70674 0.6734 0.0
C858 C 0.71603 0.68942 0.20309 0.0
C859 C 0.71202 0.68652 0.16849 0.0
C860 C 0.7663 0.66011 0.1647 0.0
C861 C 0.77198 0.66754 0.19835 0.0
N862 N 0.75486 0.69669 0.24736 0.0
N863 N 0.73368 0.67098 0.11567 0.0
C864 C 0.74744 0.68386 0.21709 0.0
C865 C 0.73725 0.67225 0.14907 0.0
N866 N 0.69026 0.69859 0.22268 0.0
N867 N 0.78822 0.64095 0.14797 0.0
H868 H 0.71198 0.67805 0.10386 0.0
H869 H 0.75259 0.66442 0.0997 0.0
H870 H 0.8095 0.63157 0.15888 0.0
H871 H 0.78404 0.63215 0.12428 0.0
H872 H 0.69109 0.69724 0.24828 0.0
H873 H 0.66703 0.7047 0.21385 0.0
H874 H 0.7388 0.71156 0.26063 0.0
H875 H 0.77828 0.69597 0.2578 0.0
C876 C 0.84326 0.21784 0.68258 0.0
C877 C 0.82536 0.2183 0.65246 0.0
C878 C 0.84178 0.27598 0.64384 0.0
C879 C 0.85565 0.27612 0.67593 0.0
N880 N 0.88798 0.2428 0.71283 0.0
N881 N 0.81748 0.24366 0.59949 0.0
C882 C 0.8626 0.24554 0.69101 0.0
C883 C 0.8279 0.24616 0.63137 0.0
N884 N 0.83999 0.19266 0.70466 0.0
N885 N 0.84243 0.30401 0.62534 0.0
H886 H 0.80857 0.22163 0.58971 0.0
H887 H 0.82008 0.26221 0.58202 0.0
H888 H 0.8573 0.32401 0.63156 0.0
H889 H 0.82916 0.3072 0.60368 0.0
H890 H 0.85015 0.19366 0.72821 0.0
H891 H 0.82485 0.17232 0.70117 0.0
H892 H 0.89522 0.22033 0.72291 0.0
H893 H 0.90452 0.26207 0.71683 0.0
C894 C 0.23134 0.34418 0.155 0.0
C895 C 0.22101 0.33536 0.18715 0.0
C896 C 0.265 0.29432 0.19082 0.0
C897 C 0.27728 0.30514 0.15999 0.0
N898 N 0.27425 0.34124 0.11317 0.0
N899 N 0.23118 0.30604 0.23803 0.0
C900 C 0.26101 0.33034 0.14209 0.0
C901 C 0.23866 0.31146 0.20564 0.0
N902 N 0.21265 0.3655 0.13694 0.0
N903 N 0.2782 0.2672 0.20591 0.0
H904 H 0.21155 0.31721 0.25003 0.0
H905 H 0.24593 0.29236 0.25391 0.0
H906 H 0.29867 0.25459 0.19706 0.0
H907 H 0.26727 0.25547 0.22593 0.0
H908 H 0.21704 0.37104 0.11233 0.0
H909 H 0.19126 0.37625 0.14622 0.0
H910 H 0.26551 0.3615 0.10018 0.0
H911 H 0.29539 0.33085 0.10294 0.0
C912 C 0.32105 0.1597 0.22056 0.0
C913 C 0.35024 0.17906 0.21972 0.0
C914 C 0.36111 0.16454 0.27762 0.0
C915 C 0.32994 0.14868 0.27891 0.0
N916 N 0.29376 0.11403 0.24714 0.0
N917 N 0.4033 0.19041 0.24368 0.0
C918 C 0.31439 0.14048 0.24883 0.0
C919 C 0.37204 0.17844 0.24717 0.0
N920 N 0.29816 0.16139 0.19597 0.0
N921 N 0.38031 0.16573 0.30514 0.0
H922 H 0.41213 0.19928 0.22126 0.0
H923 H 0.42133 0.18904 0.2618 0.0
H924 H 0.37585 0.15068 0.32546 0.0
H925 H 0.40096 0.18072 0.30755 0.0
H926 H 0.2752 0.15003 0.19777 0.0
H927 H 0.3003 0.17653 0.17544 0.0
H928 H 0.28347 0.10586 0.2251 0.0
H929 H 0.29099 0.09778 0.26685 0.0
C930 C 0.30165 0.80567 0.77753 0.0
C931 C 0.33616 0.80461 0.78248 0.0
C932 C 0.34493 0.83372 0.7301 0.0
C933 C 0.31027 0.836 0.72585 0.0
N934 N 0.25533 0.82872 0.74879 0.0
N935 N 0.3908 0.82073 0.76656 0.0
C936 C 0.28862 0.82378 0.75072 0.0
C937 C 0.3579 0.8196 0.75963 0.0
N938 N 0.28122 0.78715 0.79701 0.0
N939 N 0.36534 0.8448 0.70575 0.0
H940 H 0.40074 0.81044 0.78791 0.0
H941 H 0.40794 0.8337 0.75261 0.0
H942 H 0.35669 0.85709 0.68493 0.0
H943 H 0.39062 0.84075 0.70539 0.0
H944 H 0.25651 0.78289 0.79158 0.0
H945 H 0.28927 0.7734 0.81712 0.0
H946 H 0.23958 0.82531 0.76873 0.0
H947 H 0.24304 0.83754 0.72818 0.0
C948 C 0.70808 0.81191 0.2648 0.0
C949 C 0.69599 0.84163 0.27837 0.0
C950 C 0.65255 0.84346 0.23631 0.0
C951 C 0.6666 0.8153 0.22128 0.0
N952 N 0.71179 0.77692 0.21705 0.0
N953 N 0.65909 0.88784 0.27605 0.0
C954 C 0.69556 0.80078 0.23433 0.0
C955 C 0.66878 0.85806 0.2639 0.0
N956 N 0.73085 0.79363 0.28163 0.0
N957 N 0.6235 0.85568 0.22463 0.0
H958 H 0.6702 0.89861 0.29656 0.0
H959 H 0.64155 0.90272 0.2648 0.0
H960 H 0.61172 0.84587 0.20401 0.0
H961 H 0.61018 0.87414 0.2363 0.0
H962 H 0.73786 0.77002 0.27465 0.0
H963 H 0.74051 0.80054 0.30439 0.0
H964 H 0.73497 0.76811 0.22354 0.0
H965 H 0.70368 0.76813 0.1944 0.0
C966 C 0.71439 0.19272 0.7431 0.0
C967 C 0.69532 0.17099 0.72339 0.0
C968 C 0.64838 0.17808 0.76078 0.0
C969 C 0.66849 0.19755 0.78166 0.0
N970 N 0.72232 0.21843 0.7961 0.0
N971 N 0.64582 0.13939 0.71519 0.0
C972 C 0.7021 0.20299 0.774 0.0
C973 C 0.6627 0.16261 0.7327 0.0
N974 N 0.74329 0.20552 0.73132 0.0
N975 N 0.61556 0.17502 0.76745 0.0
H976 H 0.65569 0.12785 0.69451 0.0
H977 H 0.62316 0.12984 0.72244 0.0
H978 H 0.60481 0.18499 0.78852 0.0
H979 H 0.59877 0.16421 0.7514 0.0
H980 H 0.75626 0.22427 0.74305 0.0
H981 H 0.75269 0.20023 0.70807 0.0
H982 H 0.7478 0.21958 0.79339 0.0
H983 H 0.71422 0.22762 0.81861 0.0
C984 C 0.82447 0.75648 0.64102 0.0
C985 C 0.81057 0.78024 0.66242 0.0
C986 C 0.82874 0.74828 0.71023 0.0
C987 C 0.83857 0.72207 0.68903 0.0
N988 N 0.84609 0.70109 0.63411 0.0
N989 N 0.79297 0.79498 0.7173 0.0
C990 C 0.83658 0.7262 0.6543 0.0
C991 C 0.81132 0.77537 0.69696 0.0
N992 N 0.82645 0.7632 0.60813 0.0
N993 N 0.83523 0.74765 0.74328 0.0
H994 H 0.77902 0.81489 0.70921 0.0
H995 H 0.7887 0.78944 0.74198 0.0
H996 H 0.84502 0.72786 0.75608 0.0
H997 H 0.8328 0.76837 0.75818 0.0
H998 H 0.83879 0.74843 0.59129 0.0
H999 H 0.81773 0.78515 0.598 0.0
H1000 H 0.84181 0.70075 0.60887 0.0
H1001 H 0.85743 0.67981 0.64292 0.0
C1002 C 0.73368 0.33659 0.15336 0.0
C1003 C 0.72468 0.3051 0.16557 0.0
C1004 C 0.77544 0.30262 0.19799 0.0
C1005 C 0.78306 0.33536 0.18829 0.0
N1006 N 0.76848 0.38502 0.15954 0.0
N1007 N 0.73311 0.2614 0.20507 0.0
C1008 C 0.76189 0.35283 0.16671 0.0
C1009 C 0.74459 0.28892 0.18928 0.0
N1010 N 0.71577 0.35047 0.12851 0.0
N1011 N 0.79758 0.28457 0.21583 0.0
H1012 H 0.70994 0.2512 0.20077 0.0
H1013 H 0.74503 0.25045 0.22492 0.0
H1014 H 0.82004 0.2938 0.22402 0.0
H1015 H 0.79501 0.25944 0.2202 0.0
H1016 H 0.72274 0.37189 0.11628 0.0
H1017 H 0.69495 0.3392 0.11852 0.0
H1018 H 0.7523 0.4003 0.14686 0.0
H1019 H 0.78964 0.39697 0.16793 0.0
C1020 C 0.19778 0.26611 0.7071 0.0
C1021 C 0.1714 0.2817 0.69029 0.0
C1022 C 0.17498 0.24051 0.64621 0.0
C1023 C 0.19955 0.22374 0.66452 0.0
N1024 N 0.22958 0.21658 0.71531 0.0
N1025 N 0.13232 0.28262 0.64583 0.0
C1026 C 0.20946 0.23535 0.69586 0.0
C1027 C 0.15921 0.26859 0.66032 0.0
N1028 N 0.21269 0.28138 0.73314 0.0
N1029 N 0.1674 0.23002 0.6152 0.0
H1030 H 0.12094 0.30355 0.65536 0.0
H1031 H 0.12016 0.27256 0.62566 0.0
H1032 H 0.17801 0.20909 0.6048 0.0
H1033 H 0.15214 0.2429 0.59916 0.0
H1034 H 0.23455 0.27315 0.74371 0.0
H1035 H 0.20516 0.30409 0.74227 0.0
H1036 H 0.23454 0.22204 0.73985 0.0
H1037 H 0.23893 0.19382 0.70807 0.0
C1038 C 0.23787 0.65206 0.16891 0.0
C1039 C 0.21168 0.67118 0.18174 0.0
C1040 C 0.24474 0.72112 0.17587 0.0
C1041 C 0.27055 0.70242 0.16149 0.0
N1042 N 0.28895 0.65132 0.1378 0.0
N1043 N 0.18684 0.72497 0.18819 0.0
C1044 C 0.26626 0.66819 0.15592 0.0
C1045 C 0.21384 0.70604 0.1816 0.0
N1046 N 0.23584 0.61852 0.16987 0.0
N1047 N 0.25041 0.75241 0.18702 0.0
H1048 H 0.16372 0.71541 0.19366 0.0
H1049 H 0.18663 0.75041 0.18494 0.0
H1050 H 0.27339 0.76381 0.18658 0.0
H1051 H 0.23325 0.76579 0.20052 0.0
H1052 H 0.25554 0.60307 0.16452 0.0
H1053 H 0.21458 0.60624 0.17751 0.0
H1054 H 0.2858 0.62697 0.13048 0.0
H1055 H 0.30962 0.66263 0.12756 0.0
C1056 C 0.85063 0.26758 0.33678 0.0
C1057 C 0.83174 0.2898 0.31757 0.0
C1058 C 0.78535 0.25128 0.31774 0.0
C1059 C 0.80326 0.22996 0.33888 0.0
N1060 N 0.85088 0.21954 0.37259 0.0
N1061 N 0.77897 0.3058 0.29499 0.0
C1062 C 0.83538 0.23861 0.34963 0.0
C1063 C 0.79831 0.28274 0.3101 0.0
N1064 N 0.88323 0.27391 0.3421 0.0
N1065 N 0.75702 0.24058 0.30286 0.0
H1066 H 0.78753 0.32867 0.28723 0.0
H1067 H 0.75355 0.30341 0.29261 0.0
H1068 H 0.7474 0.21698 0.30589 0.0
H1069 H 0.74472 0.25379 0.28469 0.0
H1070 H 0.89936 0.25709 0.35273 0.0
H1071 H 0.89451 0.29565 0.33429 0.0
H1072 H 0.87299 0.22605 0.38379 0.0
H1073 H 0.84027 0.19825 0.3823 0.0
C1074 C 0.21973 0.2996 0.82019 0.0
C1075 C 0.21587 0.33429 0.82151 0.0
C1076 C 0.27064 0.33907 0.84697 0.0
C1077 C 0.27634 0.30526 0.84036 0.0
N1078 N 0.25835 0.25513 0.81354 0.0
N1079 N 0.23762 0.38759 0.83534 0.0
C1080 C 0.25131 0.28585 0.82544 0.0
C1081 C 0.2413 0.35419 0.8349 0.0
N1082 N 0.19363 0.27964 0.81282 0.0
N1083 N 0.29292 0.35645 0.86519 0.0
H1084 H 0.21565 0.39903 0.8285 0.0
H1085 H 0.25658 0.40386 0.8411 0.0
H1086 H 0.31442 0.34591 0.87446 0.0
H1087 H 0.28885 0.38037 0.87338 0.0
H1088 H 0.19459 0.25411 0.815 0.0
H1089 H 0.17007 0.28826 0.80777 0.0
H1090 H 0.2419 0.24139 0.79948 0.0
H1091 H 0.28177 0.2447 0.81412 0.0
C1092 C 0.20684 0.77455 0.30543 0.0
C1093 C 0.19803 0.78542 0.33734 0.0
C1094 C 0.15795 0.74024 0.34187 0.0
C1095 C 0.16908 0.72787 0.31119 0.0
N1096 N 0.20947 0.72901 0.26754 0.0
N1097 N 0.16784 0.77764 0.38765 0.0
C1098 C 0.19496 0.7439 0.29398 0.0
C1099 C 0.17422 0.76803 0.3561 0.0
N1100 N 0.22625 0.79382 0.28572 0.0
N1101 N 0.13155 0.72583 0.35692 0.0
H1102 H 0.17877 0.79836 0.39819 0.0
H1103 H 0.15329 0.76419 0.40392 0.0
H1104 H 0.11972 0.70518 0.34724 0.0
H1105 H 0.12013 0.73542 0.37772 0.0
H1106 H 0.23038 0.78883 0.26093 0.0
H1107 H 0.23576 0.81649 0.29314 0.0
H1108 H 0.23105 0.73762 0.25669 0.0
H1109 H 0.20213 0.70616 0.25854 0.0
C1110 C 0.76508 0.68876 0.79903 0.0
C1111 C 0.77724 0.65819 0.81075 0.0
C1112 C 0.73165 0.65501 0.85042 0.0
C1113 C 0.72112 0.6867 0.84017 0.0
N1114 N 0.73153 0.73652 0.80887 0.0
N1115 N 0.77465 0.61315 0.849 0.0
C1116 C 0.73906 0.70443 0.81587 0.0
C1117 C 0.76127 0.64154 0.83697 0.0
N1118 N 0.77717 0.70211 0.77054 0.0
N1119 N 0.71316 0.63784 0.87266 0.0
H1120 H 0.79601 0.60284 0.83917 0.0
H1121 H 0.76601 0.60097 0.8698 0.0
H1122 H 0.69202 0.64763 0.88345 0.0
H1123 H 0.7176 0.61348 0.87916 0.0
H1124 H 0.76612 0.72177 0.75833 0.0
H1125 H 0.79651 0.69187 0.75723 0.0
H1126 H 0.74668 0.75179 0.79487 0.0
H1127 H 0.71143 0.74897 0.81867 0.0
C1128 C 0.68742 0.79958 0.72638 0.0
C1129 C 0.68202 0.83345 0.71989 0.0
C1130 C 0.6524 0.83902 0.77237 0.0
C1131 C 0.65639 0.80471 0.77796 0.0
N1132 N 0.67391 0.75119 0.75773 0.0
N1133 N 0.65716 0.88509 0.73411 0.0
C1134 C 0.67242 0.78466 0.75406 0.0
C1135 C 0.66381 0.85313 0.74218 0.0
N1136 N 0.70904 0.782 0.70742 0.0
N1137 N 0.63795 0.858 0.79603 0.0
H1138 H 0.66546 0.89581 0.71228 0.0
H1139 H 0.64179 0.90037 0.74769 0.0
H1140 H 0.6278 0.84809 0.81744 0.0
H1141 H 0.63713 0.88357 0.79529 0.0
H1142 H 0.7181 0.75894 0.714 0.0
H1143 H 0.72041 0.79131 0.68643 0.0
H1144 H 0.68014 0.73533 0.7386 0.0
H1145 H 0.66763 0.73857 0.77909 0.0
C1146 C 0.653 0.181 0.2816 0.0
C1147 C 0.67535 0.15407 0.28051 0.0
C1148 C 0.66273 0.14652 0.22163 0.0
C1149 C 0.64388 0.17593 0.22244 0.0
N1150 N 0.60541 0.2059 0.25593 0.0
N1151 N 0.69101 0.10397 0.25304 0.0
C1152 C 0.63363 0.18792 0.25346 0.0
C1153 C 0.67686 0.13444 0.25153 0.0
N1154 N 0.65189 0.2019 0.30789 0.0
N1155 N 0.66684 0.13005 0.19271 0.0
H1156 H 0.69993 0.09408 0.27502 0.0
H1157 H 0.69106 0.08731 0.23362 0.0
H1158 H 0.65188 0.13432 0.17231 0.0
H1159 H 0.68425 0.1116 0.18927 0.0
H1160 H 0.63821 0.22359 0.30759 0.0
H1161 H 0.66668 0.19974 0.32864 0.0
H1162 H 0.59568 0.21339 0.27844 0.0
H1163 H 0.58981 0.20934 0.23577 0.0
C1164 C 0.31065 0.13658 0.75397 0.0
C1165 C 0.32587 0.14301 0.72331 0.0
C1166 C 0.36958 0.17245 0.75301 0.0
C1167 C 0.34824 0.17522 0.78063 0.0
N1168 N 0.29612 0.16026 0.8061 0.0
N1169 N 0.37626 0.1572 0.6955 0.0
C1170 C 0.31845 0.15679 0.78121 0.0
C1171 C 0.35759 0.15776 0.72338 0.0
N1172 N 0.28924 0.11089 0.75718 0.0
N1173 N 0.40138 0.18311 0.75564 0.0
H1174 H 0.37071 0.14172 0.6758 0.0
H1175 H 0.39745 0.17124 0.69219 0.0
H1176 H 0.41091 0.19216 0.7777 0.0
H1177 H 0.41904 0.1803 0.73734 0.0
H1178 H 0.27908 0.10403 0.77973 0.0
H1179 H 0.28561 0.09388 0.73827 0.0
H1180 H 0.27278 0.1496 0.8052 0.0
H1181 H 0.29922 0.17607 0.82596 0.0
C1182 C 0.30984 0.87331 0.2492 0.0
C1183 C 0.32495 0.86585 0.27968 0.0
C1184 C 0.36704 0.83487 0.24949 0.0
C1185 C 0.34535 0.83326 0.22202 0.0
N1186 N 0.29427 0.8513 0.19655 0.0
N1187 N 0.37497 0.84961 0.307 0.0
C1188 C 0.31662 0.85321 0.22161 0.0
C1189 C 0.35603 0.84991 0.27928 0.0
N1190 N 0.28938 0.89977 0.24659 0.0
N1191 N 0.39821 0.82264 0.24657 0.0
H1192 H 0.37026 0.86522 0.32679 0.0
H1193 H 0.39564 0.83483 0.31005 0.0
H1194 H 0.40708 0.81324 0.22439 0.0
H1195 H 0.41613 0.82437 0.26477 0.0
H1196 H 0.27939 0.90748 0.22423 0.0
H1197 H 0.28632 0.91637 0.26595 0.0
H1198 H 0.27147 0.863 0.19753 0.0
H1199 H 0.29681 0.83595 0.17627 0.0
loop_
_geom_bond_atom_site_label_1
_geom_bond_atom_site_label_2
_geom_bond_distance
_geom_bond_site_symmetry_2
_ccdc_geom_bond_type
O0 Cd1 2.223 . S
O0 C8 1.315 . S
Cd1 O0 2.223 . S
Cd1 O4 2.297 . S
Cd1 O5 2.439 . S
Cd1 O11 2.240 . S
Cd2 O3 2.240 . S
Cd2 O10 2.223 . S
Cd2 O12 2.297 . S
Cd2 O13 2.439 . S
O3 Cd2 2.240 . S
O3 C8 1.279 . S
O4 Cd1 2.297 . S
O4 C6 1.247 . S
O5 Cd1 2.439 . S
O5 C6 1.208 . S
C6 O4 1.247 . S
C6 O5 1.208 . S
C7 O12 1.247 . S
C7 O13 1.208 . S
C8 O0 1.315 . S
C8 O3 1.279 . S
C9 O10 1.315 . S
C9 O11 1.279 . S
O10 Cd2 2.223 . S
O10 C9 1.315 . S
O11 Cd1 2.240 . S
O11 C9 1.279 . S
O12 Cd2 2.297 . S
O12 C7 1.247 . S
O13 Cd2 2.439 . S
O13 C7 1.208 . S
O14 Cd15 2.223 . S
O14 C22 1.315 . S
Cd15 O14 2.223 . S
Cd15 O18 2.297 . S
Cd15 O19 2.439 . S
Cd15 O25 2.240 . S
Cd16 O17 2.240 . S
Cd16 O24 2.223 . S
Cd16 O26 2.297 . S
Cd16 O27 2.439 . S
O17 Cd16 2.240 . S
O17 C22 1.279 . S
O18 Cd15 2.297 . S
O18 C20 1.247 . S
O19 Cd15 2.439 . S
O19 C20 1.208 . S
C20 O18 1.247 . S
C20 O19 1.208 . S
C21 O26 1.247 . S
C21 O27 1.208 . S
C22 O14 1.315 . S
C22 O17 1.279 . S
C23 O24 1.315 . S
C23 O25 1.279 . S
O24 Cd16 2.223 . S
O24 C23 1.315 . S
O25 Cd15 2.240 . S
O25 C23 1.279 . S
O26 Cd16 2.297 . S
O26 C21 1.247 . S
O27 Cd16 2.439 . S
O27 C21 1.208 . S
O28 Cd29 2.223 . S
O28 C36 1.315 . S
Cd29 O28 2.223 . S
Cd29 O32 2.297 . S
Cd29 O33 2.439 . S
Cd29 O39 2.240 . S
Cd30 O31 2.240 . S
Cd30 O38 2.223 . S
Cd30 O40 2.297 . S
Cd30 O41 2.439 . S
O31 Cd30 2.240 . S
O31 C36 1.279 . S
O32 Cd29 2.297 . S
O32 C34 1.247 . S
O33 Cd29 2.439 . S
O33 C34 1.208 . S
C34 O32 1.247 . S
C34 O33 1.208 . S
C35 O40 1.247 . S
C35 O41 1.208 . S
C36 O28 1.315 . S
C36 O31 1.279 . S
C37 O38 1.315 . S
C37 O39 1.279 . S
O38 Cd30 2.223 . S
O38 C37 1.315 . S
O39 Cd29 2.240 . S
O39 C37 1.279 . S
O40 Cd30 2.297 . S
O40 C35 1.247 . S
O41 Cd30 2.439 . S
O41 C35 1.208 . S
O42 Cd43 2.223 . S
O42 C50 1.315 . S
Cd43 O42 2.223 . S
Cd43 O46 2.297 . S
Cd43 O47 2.439 . S
Cd43 O53 2.240 . S
Cd44 O45 2.240 . S
Cd44 O52 2.223 . S
Cd44 O54 2.297 . S
Cd44 O55 2.439 . S
O45 Cd44 2.240 . S
O45 C50 1.279 . S
O46 Cd43 2.297 . S
O46 C48 1.247 . S
O47 Cd43 2.439 . S
O47 C48 1.208 . S
C48 O46 1.247 . S
C48 O47 1.208 . S
C49 O54 1.247 . S
C49 O55 1.208 . S
C50 O42 1.315 . S
C50 O45 1.279 . S
C51 O52 1.315 . S
C51 O53 1.279 . S
O52 Cd44 2.223 . S
O52 C51 1.315 . S
O53 Cd43 2.240 . S
O53 C51 1.279 . S
O54 Cd44 2.297 . S
O54 C49 1.247 . S
O55 Cd44 2.439 . S
O55 C49 1.208 . S
O56 Cd57 2.223 . S
O56 C64 1.315 . S
Cd57 O56 2.223 . S
Cd57 O60 2.297 . S
Cd57 O61 2.439 . S
Cd57 O67 2.240 . S
Cd58 O59 2.240 . S
Cd58 O66 2.223 . S
Cd58 O68 2.297 . S
Cd58 O69 2.439 . S
O59 Cd58 2.240 . S
O59 C64 1.279 . S
O60 Cd57 2.297 . S
O60 C62 1.247 . S
O61 Cd57 2.439 . S
O61 C62 1.208 . S
C62 O60 1.247 . S
C62 O61 1.208 . S
C63 O68 1.247 . S
C63 O69 1.208 . S
C64 O56 1.315 . S
C64 O59 1.279 . S
C65 O66 1.315 . S
C65 O67 1.279 . S
O66 Cd58 2.223 . S
O66 C65 1.315 . S
O67 Cd57 2.240 . S
O67 C65 1.279 . S
O68 Cd58 2.297 . S
O68 C63 1.247 . S
O69 Cd58 2.439 . S
O69 C63 1.208 . S
O70 Cd71 2.223 . S
O70 C78 1.315 . S
Cd71 O70 2.223 . S
Cd71 O74 2.297 . S
Cd71 O75 2.439 . S
Cd71 O81 2.240 . S
Cd72 O73 2.240 . S
Cd72 O80 2.223 . S
Cd72 O82 2.297 . S
Cd72 O83 2.439 . S
O73 Cd72 2.240 . S
O73 C78 1.279 . S
O74 Cd71 2.297 . S
O74 C76 1.247 . S
O75 Cd71 2.439 . S
O75 C76 1.208 . S
C76 O74 1.247 . S
C76 O75 1.208 . S
C77 O82 1.247 . S
C77 O83 1.208 . S
C78 O70 1.315 . S
C78 O73 1.279 . S
C79 O80 1.315 . S
C79 O81 1.279 . S
O80 Cd72 2.223 . S
O80 C79 1.315 . S
O81 Cd71 2.240 . S
O81 C79 1.279 . S
O82 Cd72 2.297 . S
O82 C77 1.247 . S
O83 Cd72 2.439 . S
O83 C77 1.208 . S
O84 Cd85 2.223 . S
O84 C92 1.315 . S
Cd85 O84 2.223 . S
Cd85 O88 2.297 . S
Cd85 O89 2.439 . S
Cd85 O95 2.240 . S
Cd86 O87 2.240 . S
Cd86 O94 2.223 . S
Cd86 O96 2.297 . S
Cd86 O97 2.439 . S
O87 Cd86 2.240 . S
O87 C92 1.279 . S
O88 Cd85 2.297 . S
O88 C90 1.247 . S
O89 Cd85 2.439 . S
O89 C90 1.208 . S
C90 O88 1.247 . S
C90 O89 1.208 . S
C91 O96 1.247 . S
C91 O97 1.208 . S
C92 O84 1.315 . S
C92 O87 1.279 . S
C93 O94 1.315 . S
C93 O95 1.279 . S
O94 Cd86 2.223 . S
O94 C93 1.315 . S
O95 Cd85 2.240 . S
O95 C93 1.279 . S
O96 Cd86 2.297 . S
O96 C91 1.247 . S
O97 Cd86 2.439 . S
O97 C91 1.208 . S
O98 Cd99 2.223 . S
O98 C106 1.315 . S
Cd99 O98 2.223 . S
Cd99 O102 2.297 . S
Cd99 O103 2.439 . S
Cd99 O109 2.240 . S
Cd100 O101 2.240 . S
Cd100 O108 2.223 . S
Cd100 O110 2.297 . S
Cd100 O111 2.439 . S
O101 Cd100 2.240 . S
O101 C106 1.279 . S
O102 Cd99 2.297 . S
O102 C104 1.247 . S
O103 Cd99 2.439 . S
O103 C104 1.208 . S
C104 O102 1.247 . S
C104 O103 1.208 . S
C105 O110 1.247 . S
C105 O111 1.208 . S
C106 O98 1.315 . S
C106 O101 1.279 . S
C107 O108 1.315 . S
C107 O109 1.279 . S
O108 Cd100 2.223 . S
O108 C107 1.315 . S
O109 Cd99 2.240 . S
O109 C107 1.279 . S
O110 Cd100 2.297 . S
O110 C105 1.247 . S
O111 Cd100 2.439 . S
O111 C105 1.208 . S
O112 Cd113 2.223 . S
O112 C120 1.315 . S
Cd113 O112 2.223 . S
Cd113 O116 2.297 . S
Cd113 O117 2.439 . S
Cd113 O123 2.240 . S
Cd114 O115 2.240 . S
Cd114 O122 2.223 . S
Cd114 O124 2.297 . S
Cd114 O125 2.439 . S
O115 Cd114 2.240 . S
O115 C120 1.279 . S
O116 Cd113 2.297 . S
O116 C118 1.247 . S
O117 Cd113 2.439 . S
O117 C118 1.208 . S
C118 O116 1.247 . S
C118 O117 1.208 . S
C119 O124 1.247 . S
C119 O125 1.208 . S
C120 O112 1.315 . S
C120 O115 1.279 . S
C121 O122 1.315 . S
C121 O123 1.279 . S
O122 Cd114 2.223 . S
O122 C121 1.315 . S
O123 Cd113 2.240 . S
O123 C121 1.279 . S
O124 Cd114 2.297 . S
O124 C119 1.247 . S
O125 Cd114 2.439 . S
O125 C119 1.208 . S
O126 Cd127 2.223 . S
O126 C134 1.315 . S
Cd127 O126 2.223 . S
Cd127 O130 2.297 . S
Cd127 O131 2.439 . S
Cd127 O137 2.240 . S
Cd128 O129 2.240 . S
Cd128 O136 2.223 . S
Cd128 O138 2.297 . S
Cd128 O139 2.439 . S
O129 Cd128 2.240 . S
O129 C134 1.279 . S
O130 Cd127 2.297 . S
O130 C132 1.247 . S
O131 Cd127 2.439 . S
O131 C132 1.208 . S
C132 O130 1.247 . S
C132 O131 1.208 . S
C133 O138 1.247 . S
C133 O139 1.208 . S
C134 O126 1.315 . S
C134 O129 1.279 . S
C135 O136 1.315 . S
C135 O137 1.279 . S
O136 Cd128 2.223 . S
O136 C135 1.315 . S
O137 Cd127 2.240 . S
O137 C135 1.279 . S
O138 Cd128 2.297 . S
O138 C133 1.247 . S
O139 Cd128 2.439 . S
O139 C133 1.208 . S
O140 Cd141 2.223 . S
O140 C148 1.315 . S
Cd141 O140 2.223 . S
Cd141 O144 2.297 . S
Cd141 O145 2.439 . S
Cd141 O151 2.240 . S
Cd142 O143 2.240 . S
Cd142 O150 2.223 . S
Cd142 O152 2.297 . S
Cd142 O153 2.439 . S
O143 Cd142 2.240 . S
O143 C148 1.279 . S
O144 Cd141 2.297 . S
O144 C146 1.247 . S
O145 Cd141 2.439 . S
O145 C146 1.208 . S
C146 O144 1.247 . S
C146 O145 1.208 . S
C147 O152 1.247 . S
C147 O153 1.208 . S
C148 O140 1.315 . S
C148 O143 1.279 . S
C149 O150 1.315 . S
C149 O151 1.279 . S
O150 Cd142 2.223 . S
O150 C149 1.315 . S
O151 Cd141 2.240 . S
O151 C149 1.279 . S
O152 Cd142 2.297 . S
O152 C147 1.247 . S
O153 Cd142 2.439 . S
O153 C147 1.208 . S
O154 Cd155 2.223 . S
O154 C162 1.315 . S
Cd155 O154 2.223 . S
Cd155 O158 2.297 . S
Cd155 O159 2.439 . S
Cd155 O165 2.240 . S
Cd156 O157 2.240 . S
Cd156 O164 2.223 . S
Cd156 O166 2.297 . S
Cd156 O167 2.439 . S
O157 Cd156 2.240 . S
O157 C162 1.279 . S
O158 Cd155 2.297 . S
O158 C160 1.247 . S
O159 Cd155 2.439 . S
O159 C160 1.208 . S
C160 O158 1.247 . S
C160 O159 1.208 . S
C161 O166 1.247 . S
C161 O167 1.208 . S
C162 O154 1.315 . S
C162 O157 1.279 . S
C163 O164 1.315 . S
C163 O165 1.279 . S
O164 Cd156 2.223 . S
O164 C163 1.315 . S
O165 Cd155 2.240 . S
O165 C163 1.279 . S
O166 Cd156 2.297 . S
O166 C161 1.247 . S
O167 Cd156 2.439 . S
O167 C161 1.208 . S
O168 Cd169 2.223 . S
O168 C176 1.315 . S
Cd169 O168 2.223 . S
Cd169 O172 2.297 . S
Cd169 O173 2.439 . S
Cd169 O179 2.240 . S
Cd170 O171 2.240 . S
Cd170 O178 2.223 . S
Cd170 O180 2.297 . S
Cd170 O181 2.439 . S
O171 Cd170 2.240 . S
O171 C176 1.279 . S
O172 Cd169 2.297 . S
O172 C174 1.247 . S
O173 Cd169 2.439 . S
O173 C174 1.208 . S
C174 O172 1.247 . S
C174 O173 1.208 . S
C175 O180 1.247 . S
C175 O181 1.208 . S
C176 O168 1.315 . S
C176 O171 1.279 . S
C177 O178 1.315 . S
C177 O179 1.279 . S
O178 Cd170 2.223 . S
O178 C177 1.315 . S
O179 Cd169 2.240 . S
O179 C177 1.279 . S
O180 Cd170 2.297 . S
O180 C175 1.247 . S
O181 Cd170 2.439 . S
O181 C175 1.208 . S
O182 Cd183 2.223 . S
O182 C190 1.315 . S
Cd183 O182 2.223 . S
Cd183 O186 2.297 . S
Cd183 O187 2.439 . S
Cd183 O193 2.240 . S
Cd184 O185 2.240 . S
Cd184 O192 2.223 . S
Cd184 O194 2.297 . S
Cd184 O195 2.439 . S
O185 Cd184 2.240 . S
O185 C190 1.279 . S
O186 Cd183 2.297 . S
O186 C188 1.247 . S
O187 Cd183 2.439 . S
O187 C188 1.208 . S
C188 O186 1.247 . S
C188 O187 1.208 . S
C189 O194 1.247 . S
C189 O195 1.208 . S
C190 O182 1.315 . S
C190 O185 1.279 . S
C191 O192 1.315 . S
C191 O193 1.279 . S
O192 Cd184 2.223 . S
O192 C191 1.315 . S
O193 Cd183 2.240 . S
O193 C191 1.279 . S
O194 Cd184 2.297 . S
O194 C189 1.247 . S
O195 Cd184 2.439 . S
O195 C189 1.208 . S
O196 Cd197 2.223 . S
O196 C204 1.315 . S
Cd197 O196 2.223 . S
Cd197 O200 2.297 . S
Cd197 O201 2.439 . S
Cd197 O207 2.240 . S
Cd198 O199 2.240 . S
Cd198 O206 2.223 . S
Cd198 O208 2.297 . S
Cd198 O209 2.439 . S
O199 Cd198 2.240 . S
O199 C204 1.279 . S
O200 Cd197 2.297 . S
O200 C202 1.247 . S
O201 Cd197 2.439 . S
O201 C202 1.208 . S
C202 O200 1.247 . S
C202 O201 1.208 . S
C203 O208 1.247 . S
C203 O209 1.208 . S
C204 O196 1.315 . S
C204 O199 1.279 . S
C205 O206 1.315 . S
C205 O207 1.279 . S
O206 Cd198 2.223 . S
O206 C205 1.315 . S
O207 Cd197 2.240 . S
O207 C205 1.279 . S
O208 Cd198 2.297 . S
O208 C203 1.247 . S
O209 Cd198 2.439 . S
O209 C203 1.208 . S
O210 Cd211 2.223 . S
O210 C218 1.315 . S
Cd211 O210 2.223 . S
Cd211 O214 2.297 . S
Cd211 O215 2.439 . S
Cd211 O221 2.240 . S
Cd212 O213 2.240 . S
Cd212 O220 2.223 . S
Cd212 O222 2.297 . S
Cd212 O223 2.439 . S
O213 Cd212 2.240 . S
O213 C218 1.279 . S
O214 Cd211 2.297 . S
O214 C216 1.247 . S
O215 Cd211 2.439 . S
O215 C216 1.208 . S
C216 O214 1.247 . S
C216 O215 1.208 . S
C217 O222 1.247 . S
C217 O223 1.208 . S
C218 O210 1.315 . S
C218 O213 1.279 . S
C219 O220 1.315 . S
C219 O221 1.279 . S
O220 Cd212 2.223 . S
O220 C219 1.315 . S
O221 Cd211 2.240 . S
O221 C219 1.279 . S
O222 Cd212 2.297 . S
O222 C217 1.247 . S
O223 Cd212 2.439 . S
O223 C217 1.208 . S
O224 Cd225 2.223 . S
O224 C232 1.315 . S
Cd225 O224 2.223 . S
Cd225 O228 2.297 . S
Cd225 O229 2.439 . S
Cd225 O235 2.240 . S
Cd226 O227 2.240 . S
Cd226 O234 2.223 . S
Cd226 O236 2.297 . S
Cd226 O237 2.439 . S
O227 Cd226 2.240 . S
O227 C232 1.279 . S
O228 Cd225 2.297 . S
O228 C230 1.247 . S
O229 Cd225 2.439 . S
O229 C230 1.208 . S
C230 O228 1.247 . S
C230 O229 1.208 . S
C231 O236 1.247 . S
C231 O237 1.208 . S
C232 O224 1.315 . S
C232 O227 1.279 . S
C233 O234 1.315 . S
C233 O235 1.279 . S
O234 Cd226 2.223 . S
O234 C233 1.315 . S
O235 Cd225 2.240 . S
O235 C233 1.279 . S
O236 Cd226 2.297 . S
O236 C231 1.247 . S
O237 Cd226 2.439 . S
O237 C231 1.208 . S
O238 Cd239 2.223 . S
O238 C246 1.315 . S
Cd239 O238 2.223 . S
Cd239 O242 2.297 . S
Cd239 O243 2.439 . S
Cd239 O249 2.240 . S
Cd240 O241 2.240 . S
Cd240 O248 2.223 . S
Cd240 O250 2.297 . S
Cd240 O251 2.439 . S
O241 Cd240 2.240 . S
O241 C246 1.279 . S
O242 Cd239 2.297 . S
O242 C244 1.247 . S
O243 Cd239 2.439 . S
O243 C244 1.208 . S
C244 O242 1.247 . S
C244 O243 1.208 . S
C245 O250 1.247 . S
C245 O251 1.208 . S
C246 O238 1.315 . S
C246 O241 1.279 . S
C247 O248 1.315 . S
C247 O249 1.279 . S
O248 Cd240 2.223 . S
O248 C247 1.315 . S
O249 Cd239 2.240 . S
O249 C247 1.279 . S
O250 Cd240 2.297 . S
O250 C245 1.247 . S
O251 Cd240 2.439 . S
O251 C245 1.208 . S
O252 Cd253 2.223 . S
O252 C260 1.315 . S
Cd253 O252 2.223 . S
Cd253 O256 2.297 . S
Cd253 O257 2.439 . S
Cd253 O263 2.240 . S
Cd254 O255 2.240 . S
Cd254 O262 2.223 . S
Cd254 O264 2.297 . S
Cd254 O265 2.439 . S
O255 Cd254 2.240 . S
O255 C260 1.279 . S
O256 Cd253 2.297 . S
O256 C258 1.247 . S
O257 Cd253 2.439 . S
O257 C258 1.208 . S
C258 O256 1.247 . S
C258 O257 1.208 . S
C259 O264 1.247 . S
C259 O265 1.208 . S
C260 O252 1.315 . S
C260 O255 1.279 . S
C261 O262 1.315 . S
C261 O263 1.279 . S
O262 Cd254 2.223 . S
O262 C261 1.315 . S
O263 Cd253 2.240 . S
O263 C261 1.279 . S
O264 Cd254 2.297 . S
O264 C259 1.247 . S
O265 Cd254 2.439 . S
O265 C259 1.208 . S
O266 Cd267 2.223 . S
O266 C274 1.315 . S
Cd267 O266 2.223 . S
Cd267 O270 2.297 . S
Cd267 O271 2.439 . S
Cd267 O277 2.240 . S
Cd268 O269 2.240 . S
Cd268 O276 2.223 . S
Cd268 O278 2.297 . S
Cd268 O279 2.439 . S
O269 Cd268 2.240 . S
O269 C274 1.279 . S
O270 Cd267 2.297 . S
O270 C272 1.247 . S
O271 Cd267 2.439 . S
O271 C272 1.208 . S
C272 O270 1.247 . S
C272 O271 1.208 . S
C273 O278 1.247 . S
C273 O279 1.208 . S
C274 O266 1.315 . S
C274 O269 1.279 . S
C275 O276 1.315 . S
C275 O277 1.279 . S
O276 Cd268 2.223 . S
O276 C275 1.315 . S
O277 Cd267 2.240 . S
O277 C275 1.279 . S
O278 Cd268 2.297 . S
O278 C273 1.247 . S
O279 Cd268 2.439 . S
O279 C273 1.208 . S
O280 Cd281 2.223 . S
O280 C288 1.315 . S
Cd281 O280 2.223 . S
Cd281 O284 2.297 . S
Cd281 O285 2.439 . S
Cd281 O291 2.240 . S
Cd282 O283 2.240 . S
Cd282 O290 2.223 . S
Cd282 O292 2.297 . S
Cd282 O293 2.439 . S
O283 Cd282 2.240 . S
O283 C288 1.279 . S
O284 Cd281 2.297 . S
O284 C286 1.247 . S
O285 Cd281 2.439 . S
O285 C286 1.208 . S
C286 O284 1.247 . S
C286 O285 1.208 . S
C287 O292 1.247 . S
C287 O293 1.208 . S
C288 O280 1.315 . S
C288 O283 1.279 . S
C289 O290 1.315 . S
C289 O291 1.279 . S
O290 Cd282 2.223 . S
O290 C289 1.315 . S
O291 Cd281 2.240 . S
O291 C289 1.279 . S
O292 Cd282 2.297 . S
O292 C287 1.247 . S
O293 Cd282 2.439 . S
O293 C287 1.208 . S
O294 Cd295 2.223 . S
O294 C302 1.315 . S
Cd295 O294 2.223 . S
Cd295 O298 2.297 . S
Cd295 O299 2.439 . S
Cd295 O305 2.240 . S
Cd296 O297 2.240 . S
Cd296 O304 2.223 . S
Cd296 O306 2.297 . S
Cd296 O307 2.439 . S
O297 Cd296 2.240 . S
O297 C302 1.279 . S
O298 Cd295 2.297 . S
O298 C300 1.247 . S
O299 Cd295 2.439 . S
O299 C300 1.208 . S
C300 O298 1.247 . S
C300 O299 1.208 . S
C301 O306 1.247 . S
C301 O307 1.208 . S
C302 O294 1.315 . S
C302 O297 1.279 . S
C303 O304 1.315 . S
C303 O305 1.279 . S
O304 Cd296 2.223 . S
O304 C303 1.315 . S
O305 Cd295 2.240 . S
O305 C303 1.279 . S
O306 Cd296 2.297 . S
O306 C301 1.247 . S
O307 Cd296 2.439 . S
O307 C301 1.208 . S
O308 Cd309 2.223 . S
O308 C316 1.315 . S
Cd309 O308 2.223 . S
Cd309 O312 2.297 . S
Cd309 O313 2.439 . S
Cd309 O319 2.240 . S
Cd310 O311 2.240 . S
Cd310 O318 2.223 . S
Cd310 O320 2.297 . S
Cd310 O321 2.439 . S
O311 Cd310 2.240 . S
O311 C316 1.279 . S
O312 Cd309 2.297 . S
O312 C314 1.247 . S
O313 Cd309 2.439 . S
O313 C314 1.208 . S
C314 O312 1.247 . S
C314 O313 1.208 . S
C315 O320 1.247 . S
C315 O321 1.208 . S
C316 O308 1.315 . S
C316 O311 1.279 . S
C317 O318 1.315 . S
C317 O319 1.279 . S
O318 Cd310 2.223 . S
O318 C317 1.315 . S
O319 Cd309 2.240 . S
O319 C317 1.279 . S
O320 Cd310 2.297 . S
O320 C315 1.247 . S
O321 Cd310 2.439 . S
O321 C315 1.208 . S
O322 Cd323 2.223 . S
O322 C330 1.315 . S
Cd323 O322 2.223 . S
Cd323 O326 2.297 . S
Cd323 O327 2.439 . S
Cd323 O333 2.240 . S
Cd324 O325 2.240 . S
Cd324 O332 2.223 . S
Cd324 O334 2.297 . S
Cd324 O335 2.439 . S
O325 Cd324 2.240 . S
O325 C330 1.279 . S
O326 Cd323 2.297 . S
O326 C328 1.247 . S
O327 Cd323 2.439 . S
O327 C328 1.208 . S
C328 O326 1.247 . S
C328 O327 1.208 . S
C329 O334 1.247 . S
C329 O335 1.208 . S
C330 O322 1.315 . S
C330 O325 1.279 . S
C331 O332 1.315 . S
C331 O333 1.279 . S
O332 Cd324 2.223 . S
O332 C331 1.315 . S
O333 Cd323 2.240 . S
O333 C331 1.279 . S
O334 Cd324 2.297 . S
O334 C329 1.247 . S
O335 Cd324 2.439 . S
O335 C329 1.208 . S
C336 C337 1.363 . S
C336 C342 1.379 . S
C336 N344 1.356 . S
C337 C336 1.363 . S
C337 C343 1.363 . S
C338 C339 1.363 . S
C338 C343 1.379 . S
C338 N345 1.356 . S
C339 C338 1.363 . S
C339 C342 1.363 . S
N340 C342 1.356 . S
N340 H352 0.984 . S
N340 H353 0.985 . S
N341 C343 1.356 . S
N341 H346 0.984 . S
N341 H347 0.985 . S
C342 C336 1.379 . S
C342 C339 1.363 . S
C342 N340 1.356 . S
C343 C337 1.363 . S
C343 C338 1.379 . S
C343 N341 1.356 . S
N344 C336 1.356 . S
N344 H350 0.984 . S
N344 H351 0.984 . S
N345 C338 1.356 . S
N345 H348 0.984 . S
N345 H349 0.985 . S
H346 N341 0.984 . S
H347 N341 0.985 . S
H348 N345 0.984 . S
H349 N345 0.985 . S
H350 N344 0.984 . S
H351 N344 0.984 . S
H352 N340 0.984 . S
H353 N340 0.985 . S
C354 C355 1.363 . S
C354 C360 1.379 1_655 S
C354 N362 1.356 . S
C355 C354 1.363 . S
C355 C361 1.363 . S
C356 C357 1.363 . S
C356 C361 1.379 1_455 S
C356 N363 1.356 . S
C357 C356 1.363 . S
C357 C360 1.363 . S
N358 C360 1.356 . S
N358 H370 0.984 . S
N358 H371 0.985 . S
N359 C361 1.356 . S
N359 H364 0.984 . S
N359 H365 0.985 . S
C360 C354 1.379 1_455 S
C360 C357 1.363 . S
C360 N358 1.356 . S
C361 C355 1.363 . S
C361 C356 1.379 1_655 S
C361 N359 1.356 . S
N362 C354 1.356 . S
N362 H368 0.984 . S
N362 H369 0.984 . S
N363 C356 1.356 . S
N363 H366 0.984 . S
N363 H367 0.985 . S
H364 N359 0.984 . S
H365 N359 0.985 . S
H366 N363 0.984 . S
H367 N363 0.985 . S
H368 N362 0.984 . S
H369 N362 0.984 . S
H370 N358 0.984 . S
H371 N358 0.985 . S
C372 C373 1.363 . S
C372 C378 1.379 . S
C372 N380 1.356 . S
C373 C372 1.363 . S
C373 C379 1.363 . S
C374 C375 1.363 . S
C374 C379 1.379 . S
C374 N381 1.356 . S
C375 C374 1.363 . S
C375 C378 1.363 . S
N376 C378 1.356 . S
N376 H388 0.984 . S
N376 H389 0.985 . S
N377 C379 1.356 . S
N377 H382 0.984 . S
N377 H383 0.985 . S
C378 C372 1.379 . S
C378 C375 1.363 . S
C378 N376 1.356 . S
C379 C373 1.363 . S
C379 C374 1.379 . S
C379 N377 1.356 . S
N380 C372 1.356 . S
N380 H386 0.984 . S
N380 H387 0.984 . S
N381 C374 1.356 . S
N381 H384 0.984 . S
N381 H385 0.985 . S
H382 N377 0.984 . S
H383 N377 0.985 . S
H384 N381 0.984 . S
H385 N381 0.985 . S
H386 N380 0.984 . S
H387 N380 0.984 . S
H388 N376 0.984 . S
H389 N376 0.985 . S
C390 C391 1.363 . S
C390 C396 1.379 1_455 S
C390 N398 1.356 . S
C391 C390 1.363 . S
C391 C397 1.363 . S
C392 C393 1.363 . S
C392 C397 1.379 1_655 S
C392 N399 1.356 . S
C393 C392 1.363 . S
C393 C396 1.363 . S
N394 C396 1.356 . S
N394 H406 0.984 . S
N394 H407 0.985 . S
N395 C397 1.356 . S
N395 H400 0.984 . S
N395 H401 0.985 . S
C396 C390 1.379 1_655 S
C396 C393 1.363 . S
C396 N394 1.356 . S
C397 C391 1.363 . S
C397 C392 1.379 1_455 S
C397 N395 1.356 . S
N398 C390 1.356 . S
N398 H404 0.984 . S
N398 H405 0.984 . S
N399 C392 1.356 . S
N399 H402 0.984 . S
N399 H403 0.985 . S
H400 N395 0.984 . S
H401 N395 0.985 . S
H402 N399 0.984 . S
H403 N399 0.985 . S
H404 N398 0.984 . S
H405 N398 0.984 . S
H406 N394 0.984 . S
H407 N394 0.985 . S
C408 C409 1.363 . S
C408 C414 1.379 . S
C408 N416 1.356 . S
C409 C408 1.363 . S
C409 C415 1.363 . S
C410 C411 1.363 . S
C410 C415 1.379 . S
C410 N417 1.356 . S
C411 C410 1.363 . S
C411 C414 1.363 . S
N412 C414 1.356 . S
N412 H424 0.984 . S
N412 H425 0.985 . S
N413 C415 1.356 . S
N413 H418 0.984 . S
N413 H419 0.985 . S
C414 C408 1.379 . S
C414 C411 1.363 . S
C414 N412 1.356 . S
C415 C409 1.363 . S
C415 C410 1.379 . S
C415 N413 1.356 . S
N416 C408 1.356 . S
N416 H422 0.984 . S
N416 H423 0.984 . S
N417 C410 1.356 . S
N417 H420 0.984 . S
N417 H421 0.985 . S
H418 N413 0.984 . S
H419 N413 0.985 . S
H420 N417 0.984 . S
H421 N417 0.985 . S
H422 N416 0.984 . S
H423 N416 0.984 . S
H424 N412 0.984 . S
H425 N412 0.985 . S
C426 C427 1.363 . S
C426 C432 1.379 1_655 S
C426 N434 1.356 . S
C427 C426 1.363 . S
C427 C433 1.363 . S
C428 C429 1.363 . S
C428 C433 1.379 1_455 S
C428 N435 1.356 . S
C429 C428 1.363 . S
C429 C432 1.363 . S
N430 C432 1.356 . S
N430 H442 0.984 . S
N430 H443 0.985 . S
N431 C433 1.356 . S
N431 H436 0.984 . S
N431 H437 0.985 . S
C432 C426 1.379 1_455 S
C432 C429 1.363 . S
C432 N430 1.356 . S
C433 C427 1.363 . S
C433 C428 1.379 1_655 S
C433 N431 1.356 . S
N434 C426 1.356 . S
N434 H440 0.984 . S
N434 H441 0.984 . S
N435 C428 1.356 . S
N435 H438 0.984 . S
N435 H439 0.985 . S
H436 N431 0.984 . S
H437 N431 0.985 . S
H438 N435 0.984 . S
H439 N435 0.985 . S
H440 N434 0.984 . S
H441 N434 0.984 . S
H442 N430 0.984 . S
H443 N430 0.985 . S
C444 C445 1.363 . S
C444 C450 1.379 . S
C444 N452 1.356 . S
C445 C444 1.363 . S
C445 C451 1.363 . S
C446 C447 1.363 . S
C446 C451 1.379 . S
C446 N453 1.356 . S
C447 C446 1.363 . S
C447 C450 1.363 . S
N448 C450 1.356 . S
N448 H460 0.984 . S
N448 H461 0.985 . S
N449 C451 1.356 . S
N449 H454 0.984 . S
N449 H455 0.985 . S
C450 C444 1.379 . S
C450 C447 1.363 . S
C450 N448 1.356 . S
C451 C445 1.363 . S
C451 C446 1.379 . S
C451 N449 1.356 . S
N452 C444 1.356 . S
N452 H458 0.984 . S
N452 H459 0.984 . S
N453 C446 1.356 . S
N453 H456 0.984 . S
N453 H457 0.985 . S
H454 N449 0.984 . S
H455 N449 0.985 . S
H456 N453 0.984 . S
H457 N453 0.985 . S
H458 N452 0.984 . S
H459 N452 0.984 . S
H460 N448 0.984 . S
H461 N448 0.985 . S
C462 C463 1.363 . S
C462 C468 1.379 1_655 S
C462 N470 1.356 . S
C463 C462 1.363 . S
C463 C469 1.363 . S
C464 C465 1.363 . S
C464 C469 1.379 1_455 S
C464 N471 1.356 . S
C465 C464 1.363 . S
C465 C468 1.363 . S
N466 C468 1.356 . S
N466 H478 0.984 . S
N466 H479 0.985 . S
N467 C469 1.356 . S
N467 H472 0.984 . S
N467 H473 0.985 . S
C468 C462 1.379 1_455 S
C468 C465 1.363 . S
C468 N466 1.356 . S
C469 C463 1.363 . S
C469 C464 1.379 1_655 S
C469 N467 1.356 . S
N470 C462 1.356 . S
N470 H476 0.984 . S
N470 H477 0.984 . S
N471 C464 1.356 . S
N471 H474 0.984 . S
N471 H475 0.985 . S
H472 N467 0.984 . S
H473 N467 0.985 . S
H474 N471 0.984 . S
H475 N471 0.985 . S
H476 N470 0.984 . S
H477 N470 0.984 . S
H478 N466 0.984 . S
H479 N466 0.985 . S
C480 C481 1.363 . S
C480 C486 1.379 . S
C480 N488 1.356 . S
C481 C480 1.363 . S
C481 C487 1.363 . S
C482 C483 1.363 . S
C482 C487 1.379 . S
C482 N489 1.356 . S
C483 C482 1.363 . S
C483 C486 1.363 . S
N484 C486 1.356 . S
N484 H496 0.984 . S
N484 H497 0.985 . S
N485 C487 1.356 . S
N485 H490 0.984 . S
N485 H491 0.985 . S
C486 C480 1.379 . S
C486 C483 1.363 . S
C486 N484 1.356 . S
C487 C481 1.363 . S
C487 C482 1.379 . S
C487 N485 1.356 . S
N488 C480 1.356 . S
N488 H494 0.984 . S
N488 H495 0.984 . S
N489 C482 1.356 . S
N489 H492 0.984 . S
N489 H493 0.985 . S
H490 N485 0.984 . S
H491 N485 0.985 . S
H492 N489 0.984 . S
H493 N489 0.985 . S
H494 N488 0.984 . S
H495 N488 0.984 . S
H496 N484 0.984 . S
H497 N484 0.985 . S
C498 C499 1.363 . S
C498 C504 1.379 1_556 S
C498 N506 1.356 . S
C499 C498 1.363 . S
C499 C505 1.363 . S
C500 C501 1.363 . S
C500 C505 1.379 1_554 S
C500 N507 1.356 . S
C501 C500 1.363 . S
C501 C504 1.363 . S
N502 C504 1.356 . S
N502 H514 0.984 . S
N502 H515 0.985 . S
N503 C505 1.356 . S
N503 H508 0.984 . S
N503 H509 0.985 . S
C504 C498 1.379 1_554 S
C504 C501 1.363 . S
C504 N502 1.356 . S
C505 C499 1.363 . S
C505 C500 1.379 1_556 S
C505 N503 1.356 . S
N506 C498 1.356 . S
N506 H512 0.984 . S
N506 H513 0.984 . S
N507 C500 1.356 . S
N507 H510 0.984 . S
N507 H511 0.985 . S
H508 N503 0.984 . S
H509 N503 0.985 . S
H510 N507 0.984 . S
H511 N507 0.985 . S
H512 N506 0.984 . S
H513 N506 0.984 . S
H514 N502 0.984 . S
H515 N502 0.985 . S
C516 C517 1.363 . S
C516 C522 1.379 . S
C516 N524 1.356 . S
C517 C516 1.363 . S
C517 C523 1.363 . S
C518 C519 1.363 . S
C518 C523 1.379 . S
C518 N525 1.356 . S
C519 C518 1.363 . S
C519 C522 1.363 . S
N520 C522 1.356 . S
N520 H532 0.984 . S
N520 H533 0.985 . S
N521 C523 1.356 . S
N521 H526 0.984 . S
N521 H527 0.985 . S
C522 C516 1.379 . S
C522 C519 1.363 . S
C522 N520 1.356 . S
C523 C517 1.363 . S
C523 C518 1.379 . S
C523 N521 1.356 . S
N524 C516 1.356 . S
N524 H530 0.984 . S
N524 H531 0.984 . S
N525 C518 1.356 . S
N525 H528 0.984 . S
N525 H529 0.985 . S
H526 N521 0.984 . S
H527 N521 0.985 . S
H528 N525 0.984 . S
H529 N525 0.985 . S
H530 N524 0.984 . S
H531 N524 0.984 . S
H532 N520 0.984 . S
H533 N520 0.985 . S
C534 C535 1.363 . S
C534 C540 1.379 1_554 S
C534 N542 1.356 . S
C535 C534 1.363 . S
C535 C541 1.363 . S
C536 C537 1.363 . S
C536 C541 1.379 1_556 S
C536 N543 1.356 . S
C537 C536 1.363 . S
C537 C540 1.363 . S
N538 C540 1.356 . S
N538 H550 0.984 . S
N538 H551 0.985 . S
N539 C541 1.356 . S
N539 H544 0.984 . S
N539 H545 0.985 . S
C540 C534 1.379 1_556 S
C540 C537 1.363 . S
C540 N538 1.356 . S
C541 C535 1.363 . S
C541 C536 1.379 1_554 S
C541 N539 1.356 . S
N542 C534 1.356 . S
N542 H548 0.984 . S
N542 H549 0.984 . S
N543 C536 1.356 . S
N543 H546 0.984 . S
N543 H547 0.985 . S
H544 N539 0.984 . S
H545 N539 0.985 . S
H546 N543 0.984 . S
H547 N543 0.985 . S
H548 N542 0.984 . S
H549 N542 0.984 . S
H550 N538 0.984 . S
H551 N538 0.985 . S
C552 C553 1.363 . S
C552 C558 1.379 . S
C552 N560 1.356 . S
C553 C552 1.363 . S
C553 C559 1.363 . S
C554 C555 1.363 . S
C554 C559 1.379 . S
C554 N561 1.356 . S
C555 C554 1.363 . S
C555 C558 1.363 . S
N556 C558 1.356 . S
N556 H568 0.984 . S
N556 H569 0.985 . S
N557 C559 1.356 . S
N557 H562 0.984 . S
N557 H563 0.985 . S
C558 C552 1.379 . S
C558 C555 1.363 . S
C558 N556 1.356 . S
C559 C553 1.363 . S
C559 C554 1.379 . S
C559 N557 1.356 . S
N560 C552 1.356 . S
N560 H566 0.984 . S
N560 H567 0.984 . S
N561 C554 1.356 . S
N561 H564 0.984 . S
N561 H565 0.985 . S
H562 N557 0.984 . S
H563 N557 0.985 . S
H564 N561 0.984 . S
H565 N561 0.985 . S
H566 N560 0.984 . S
H567 N560 0.984 . S
H568 N556 0.984 . S
H569 N556 0.985 . S
C570 C571 1.363 . S
C570 C576 1.379 1_554 S
C570 N578 1.356 . S
C571 C570 1.363 . S
C571 C577 1.363 . S
C572 C573 1.363 . S
C572 C577 1.379 1_556 S
C572 N579 1.356 . S
C573 C572 1.363 . S
C573 C576 1.363 . S
N574 C576 1.356 . S
N574 H586 0.984 . S
N574 H587 0.985 . S
N575 C577 1.356 . S
N575 H580 0.984 . S
N575 H581 0.985 . S
C576 C570 1.379 1_556 S
C576 C573 1.363 . S
C576 N574 1.356 . S
C577 C571 1.363 . S
C577 C572 1.379 1_554 S
C577 N575 1.356 . S
N578 C570 1.356 . S
N578 H584 0.984 . S
N578 H585 0.984 . S
N579 C572 1.356 . S
N579 H582 0.984 . S
N579 H583 0.985 . S
H580 N575 0.984 . S
H581 N575 0.985 . S
H582 N579 0.984 . S
H583 N579 0.985 . S
H584 N578 0.984 . S
H585 N578 0.984 . S
H586 N574 0.984 . S
H587 N574 0.985 . S
C588 C589 1.363 . S
C588 C594 1.379 . S
C588 N596 1.356 . S
C589 C588 1.363 . S
C589 C595 1.363 . S
C590 C591 1.363 . S
C590 C595 1.379 . S
C590 N597 1.356 . S
C591 C590 1.363 . S
C591 C594 1.363 . S
N592 C594 1.356 . S
N592 H604 0.984 . S
N592 H605 0.985 . S
N593 C595 1.356 . S
N593 H598 0.984 . S
N593 H599 0.985 . S
C594 C588 1.379 . S
C594 C591 1.363 . S
C594 N592 1.356 . S
C595 C589 1.363 . S
C595 C590 1.379 . S
C595 N593 1.356 . S
N596 C588 1.356 . S
N596 H602 0.984 . S
N596 H603 0.984 . S
N597 C590 1.356 . S
N597 H600 0.984 . S
N597 H601 0.985 . S
H598 N593 0.984 . S
H599 N593 0.985 . S
H600 N597 0.984 . S
H601 N597 0.985 . S
H602 N596 0.984 . S
H603 N596 0.984 . S
H604 N592 0.984 . S
H605 N592 0.985 . S
C606 C607 1.363 . S
C606 C612 1.379 1_554 S
C606 N614 1.356 . S
C607 C606 1.363 . S
C607 C613 1.363 . S
C608 C609 1.363 . S
C608 C613 1.379 1_556 S
C608 N615 1.356 . S
C609 C608 1.363 . S
C609 C612 1.363 . S
N610 C612 1.356 . S
N610 H622 0.984 . S
N610 H623 0.985 . S
N611 C613 1.356 . S
N611 H616 0.984 . S
N611 H617 0.985 . S
C612 C606 1.379 1_556 S
C612 C609 1.363 . S
C612 N610 1.356 . S
C613 C607 1.363 . S
C613 C608 1.379 1_554 S
C613 N611 1.356 . S
N614 C606 1.356 . S
N614 H620 0.984 . S
N614 H621 0.984 . S
N615 C608 1.356 . S
N615 H618 0.984 . S
N615 H619 0.985 . S
H616 N611 0.984 . S
H617 N611 0.985 . S
H618 N615 0.984 . S
H619 N615 0.985 . S
H620 N614 0.984 . S
H621 N614 0.984 . S
H622 N610 0.984 . S
H623 N610 0.985 . S
C624 C625 1.363 . S
C624 C630 1.379 . S
C624 N632 1.356 . S
C625 C624 1.363 . S
C625 C631 1.363 . S
C626 C627 1.363 . S
C626 C631 1.379 . S
C626 N633 1.356 . S
C627 C626 1.363 . S
C627 C630 1.363 . S
N628 C630 1.356 . S
N628 H640 0.984 . S
N628 H641 0.985 . S
N629 C631 1.356 . S
N629 H634 0.984 . S
N629 H635 0.985 . S
C630 C624 1.379 . S
C630 C627 1.363 . S
C630 N628 1.356 . S
C631 C625 1.363 . S
C631 C626 1.379 . S
C631 N629 1.356 . S
N632 C624 1.356 . S
N632 H638 0.984 . S
N632 H639 0.984 . S
N633 C626 1.356 . S
N633 H636 0.984 . S
N633 H637 0.985 . S
H634 N629 0.984 . S
H635 N629 0.985 . S
H636 N633 0.984 . S
H637 N633 0.985 . S
H638 N632 0.984 . S
H639 N632 0.984 . S
H640 N628 0.984 . S
H641 N628 0.985 . S
C642 C643 1.363 . S
C642 C648 1.379 . S
C642 N650 1.356 . S
C643 C642 1.363 . S
C643 C649 1.363 . S
C644 C645 1.363 . S
C644 C649 1.379 . S
C644 N651 1.356 . S
C645 C644 1.363 . S
C645 C648 1.363 . S
N646 C648 1.356 . S
N646 H658 0.984 . S
N646 H659 0.985 . S
N647 C649 1.356 . S
N647 H652 0.984 . S
N647 H653 0.985 . S
C648 C642 1.379 . S
C648 C645 1.363 . S
C648 N646 1.356 . S
C649 C643 1.363 . S
C649 C644 1.379 . S
C649 N647 1.356 . S
N650 C642 1.356 . S
N650 H656 0.984 . S
N650 H657 0.984 . S
N651 C644 1.356 . S
N651 H654 0.984 . S
N651 H655 0.985 . S
H652 N647 0.984 . S
H653 N647 0.985 . S
H654 N651 0.984 . S
H655 N651 0.985 . S
H656 N650 0.984 . S
H657 N650 0.984 . S
H658 N646 0.984 . S
H659 N646 0.985 . S
C660 C661 1.363 . S
C660 C666 1.379 1_565 S
C660 N668 1.356 . S
C661 C660 1.363 . S
C661 C667 1.363 . S
C662 C663 1.363 . S
C662 C667 1.379 1_545 S
C662 N669 1.356 . S
C663 C662 1.363 . S
C663 C666 1.363 . S
N664 C666 1.356 . S
N664 H676 0.984 . S
N664 H677 0.985 . S
N665 C667 1.356 . S
N665 H670 0.984 . S
N665 H671 0.985 . S
C666 C660 1.379 1_545 S
C666 C663 1.363 . S
C666 N664 1.356 . S
C667 C661 1.363 . S
C667 C662 1.379 1_565 S
C667 N665 1.356 . S
N668 C660 1.356 . S
N668 H674 0.984 . S
N668 H675 0.984 . S
N669 C662 1.356 . S
N669 H672 0.984 . S
N669 H673 0.985 . S
H670 N665 0.984 . S
H671 N665 0.985 . S
H672 N669 0.984 . S
H673 N669 0.985 . S
H674 N668 0.984 . S
H675 N668 0.984 . S
H676 N664 0.984 . S
H677 N664 0.985 . S
C678 C679 1.363 . S
C678 C684 1.379 . S
C678 N686 1.356 . S
C679 C678 1.363 . S
C679 C685 1.363 . S
C680 C681 1.363 . S
C680 C685 1.379 . S
C680 N687 1.356 . S
C681 C680 1.363 . S
C681 C684 1.363 . S
N682 C684 1.356 . S
N682 H694 0.984 . S
N682 H695 0.985 . S
N683 C685 1.356 . S
N683 H688 0.984 . S
N683 H689 0.985 . S
C684 C678 1.379 . S
C684 C681 1.363 . S
C684 N682 1.356 . S
C685 C679 1.363 . S
C685 C680 1.379 . S
C685 N683 1.356 . S
N686 C678 1.356 . S
N686 H692 0.984 . S
N686 H693 0.984 . S
N687 C680 1.356 . S
N687 H690 0.984 . S
N687 H691 0.985 . S
H688 N683 0.984 . S
H689 N683 0.985 . S
H690 N687 0.984 . S
H691 N687 0.985 . S
H692 N686 0.984 . S
H693 N686 0.984 . S
H694 N682 0.984 . S
H695 N682 0.985 . S
C696 C697 1.363 . S
C696 C702 1.379 1_565 S
C696 N704 1.356 . S
C697 C696 1.363 . S
C697 C703 1.363 . S
C698 C699 1.363 . S
C698 C703 1.379 1_545 S
C698 N705 1.356 . S
C699 C698 1.363 . S
C699 C702 1.363 . S
N700 C702 1.356 . S
N700 H712 0.984 . S
N700 H713 0.985 . S
N701 C703 1.356 . S
N701 H706 0.984 . S
N701 H707 0.985 . S
C702 C696 1.379 1_545 S
C702 C699 1.363 . S
C702 N700 1.356 . S
C703 C697 1.363 . S
C703 C698 1.379 1_565 S
C703 N701 1.356 . S
N704 C696 1.356 . S
N704 H710 0.984 . S
N704 H711 0.984 . S
N705 C698 1.356 . S
N705 H708 0.984 . S
N705 H709 0.985 . S
H706 N701 0.984 . S
H707 N701 0.985 . S
H708 N705 0.984 . S
H709 N705 0.985 . S
H710 N704 0.984 . S
H711 N704 0.984 . S
H712 N700 0.984 . S
H713 N700 0.985 . S
C714 C715 1.363 . S
C714 C720 1.379 . S
C714 N722 1.356 . S
C715 C714 1.363 . S
C715 C721 1.363 . S
C716 C717 1.363 . S
C716 C721 1.379 . S
C716 N723 1.356 . S
C717 C716 1.363 . S
C717 C720 1.363 . S
N718 C720 1.356 . S
N718 H730 0.984 . S
N718 H731 0.985 . S
N719 C721 1.356 . S
N719 H724 0.984 . S
N719 H725 0.985 . S
C720 C714 1.379 . S
C720 C717 1.363 . S
C720 N718 1.356 . S
C721 C715 1.363 . S
C721 C716 1.379 . S
C721 N719 1.356 . S
N722 C714 1.356 . S
N722 H728 0.984 . S
N722 H729 0.984 . S
N723 C716 1.356 . S
N723 H726 0.984 . S
N723 H727 0.985 . S
H724 N719 0.984 . S
H725 N719 0.985 . S
H726 N723 0.984 . S
H727 N723 0.985 . S
H728 N722 0.984 . S
H729 N722 0.984 . S
H730 N718 0.984 . S
H731 N718 0.985 . S
C732 C733 1.363 . S
C732 C738 1.379 1_565 S
C732 N740 1.356 . S
C733 C732 1.363 . S
C733 C739 1.363 . S
C734 C735 1.363 . S
C734 C739 1.379 1_545 S
C734 N741 1.356 . S
C735 C734 1.363 . S
C735 C738 1.363 . S
N736 C738 1.356 . S
N736 H748 0.984 . S
N736 H749 0.985 . S
N737 C739 1.356 . S
N737 H742 0.984 . S
N737 H743 0.985 . S
C738 C732 1.379 1_545 S
C738 C735 1.363 . S
C738 N736 1.356 . S
C739 C733 1.363 . S
C739 C734 1.379 1_565 S
C739 N737 1.356 . S
N740 C732 1.356 . S
N740 H746 0.984 . S
N740 H747 0.984 . S
N741 C734 1.356 . S
N741 H744 0.984 . S
N741 H745 0.985 . S
H742 N737 0.984 . S
H743 N737 0.985 . S
H744 N741 0.984 . S
H745 N741 0.985 . S
H746 N740 0.984 . S
H747 N740 0.984 . S
H748 N736 0.984 . S
H749 N736 0.985 . S
C750 C751 1.363 . S
C750 C756 1.379 1_545 S
C750 N758 1.356 . S
C751 C750 1.363 . S
C751 C757 1.363 . S
C752 C753 1.363 . S
C752 C757 1.379 1_565 S
C752 N759 1.356 . S
C753 C752 1.363 . S
C753 C756 1.363 . S
N754 C756 1.356 . S
N754 H766 0.984 . S
N754 H767 0.985 . S
N755 C757 1.356 . S
N755 H760 0.984 . S
N755 H761 0.985 . S
C756 C750 1.379 1_565 S
C756 C753 1.363 . S
C756 N754 1.356 . S
C757 C751 1.363 . S
C757 C752 1.379 1_545 S
C757 N755 1.356 . S
N758 C750 1.356 . S
N758 H764 0.984 . S
N758 H765 0.984 . S
N759 C752 1.356 . S
N759 H762 0.984 . S
N759 H763 0.985 . S
H760 N755 0.984 . S
H761 N755 0.985 . S
H762 N759 0.984 . S
H763 N759 0.985 . S
H764 N758 0.984 . S
H765 N758 0.984 . S
H766 N754 0.984 . S
H767 N754 0.985 . S
C768 C769 1.363 . S
C768 C774 1.379 . S
C768 N776 1.356 . S
C769 C768 1.363 . S
C769 C775 1.363 . S
C770 C771 1.363 . S
C770 C775 1.379 . S
C770 N777 1.356 . S
C771 C770 1.363 . S
C771 C774 1.363 . S
N772 C774 1.356 . S
N772 H784 0.984 . S
N772 H785 0.985 . S
N773 C775 1.356 . S
N773 H778 0.984 . S
N773 H779 0.985 . S
C774 C768 1.379 . S
C774 C771 1.363 . S
C774 N772 1.356 . S
C775 C769 1.363 . S
C775 C770 1.379 . S
C775 N773 1.356 . S
N776 C768 1.356 . S
N776 H782 0.984 . S
N776 H783 0.984 . S
N777 C770 1.356 . S
N777 H780 0.984 . S
N777 H781 0.985 . S
H778 N773 0.984 . S
H779 N773 0.985 . S
H780 N777 0.984 . S
H781 N777 0.985 . S
H782 N776 0.984 . S
H783 N776 0.984 . S
H784 N772 0.984 . S
H785 N772 0.985 . S
C786 C787 1.363 . S
C786 C792 1.379 . S
C786 N794 1.356 . S
C787 C786 1.363 . S
C787 C793 1.363 . S
C788 C789 1.363 . S
C788 C793 1.379 . S
C788 N795 1.356 . S
C789 C788 1.363 . S
C789 C792 1.363 . S
N790 C792 1.356 . S
N790 H802 0.984 . S
N790 H803 0.985 . S
N791 C793 1.356 . S
N791 H796 0.984 . S
N791 H797 0.985 . S
C792 C786 1.379 . S
C792 C789 1.363 . S
C792 N790 1.356 . S
C793 C787 1.363 . S
C793 C788 1.379 . S
C793 N791 1.356 . S
N794 C786 1.356 . S
N794 H800 0.984 . S
N794 H801 0.984 . S
N795 C788 1.356 . S
N795 H798 0.984 . S
N795 H799 0.985 . S
H796 N791 0.984 . S
H797 N791 0.985 . S
H798 N795 0.984 . S
H799 N795 0.985 . S
H800 N794 0.984 . S
H801 N794 0.984 . S
H802 N790 0.984 . S
H803 N790 0.985 . S
C804 C805 1.363 . S
C804 C810 1.379 . S
C804 N812 1.356 . S
C805 C804 1.363 . S
C805 C811 1.363 . S
C806 C807 1.363 . S
C806 C811 1.379 . S
C806 N813 1.356 . S
C807 C806 1.363 . S
C807 C810 1.363 . S
N808 C810 1.356 . S
N808 H820 0.984 . S
N808 H821 0.985 . S
N809 C811 1.356 . S
N809 H814 0.984 . S
N809 H815 0.985 . S
C810 C804 1.379 . S
C810 C807 1.363 . S
C810 N808 1.356 . S
C811 C805 1.363 . S
C811 C806 1.379 . S
C811 N809 1.356 . S
N812 C804 1.356 . S
N812 H818 0.984 . S
N812 H819 0.984 . S
N813 C806 1.356 . S
N813 H816 0.984 . S
N813 H817 0.985 . S
H814 N809 0.984 . S
H815 N809 0.985 . S
H816 N813 0.984 . S
H817 N813 0.985 . S
H818 N812 0.984 . S
H819 N812 0.984 . S
H820 N808 0.984 . S
H821 N808 0.985 . S
C822 C823 1.363 . S
C822 C828 1.379 . S
C822 N830 1.356 . S
C823 C822 1.363 . S
C823 C829 1.363 . S
C824 C825 1.363 . S
C824 C829 1.379 . S
C824 N831 1.356 . S
C825 C824 1.363 . S
C825 C828 1.363 . S
N826 C828 1.356 . S
N826 H838 0.984 . S
N826 H839 0.985 . S
N827 C829 1.356 . S
N827 H832 0.984 . S
N827 H833 0.985 . S
C828 C822 1.379 . S
C828 C825 1.363 . S
C828 N826 1.356 . S
C829 C823 1.363 . S
C829 C824 1.379 . S
C829 N827 1.356 . S
N830 C822 1.356 . S
N830 H836 0.984 . S
N830 H837 0.984 . S
N831 C824 1.356 . S
N831 H834 0.984 . S
N831 H835 0.985 . S
H832 N827 0.984 . S
H833 N827 0.985 . S
H834 N831 0.984 . S
H835 N831 0.985 . S
H836 N830 0.984 . S
H837 N830 0.984 . S
H838 N826 0.984 . S
H839 N826 0.985 . S
C840 C841 1.363 . S
C840 C846 1.379 . S
C840 N848 1.356 . S
C841 C840 1.363 . S
C841 C847 1.363 . S
C842 C843 1.363 . S
C842 C847 1.379 . S
C842 N849 1.356 . S
C843 C842 1.363 . S
C843 C846 1.363 . S
N844 C846 1.356 . S
N844 H856 0.984 . S
N844 H857 0.985 . S
N845 C847 1.356 . S
N845 H850 0.984 . S
N845 H851 0.985 . S
C846 C840 1.379 . S
C846 C843 1.363 . S
C846 N844 1.356 . S
C847 C841 1.363 . S
C847 C842 1.379 . S
C847 N845 1.356 . S
N848 C840 1.356 . S
N848 H854 0.984 . S
N848 H855 0.984 . S
N849 C842 1.356 . S
N849 H852 0.984 . S
N849 H853 0.985 . S
H850 N845 0.984 . S
H851 N845 0.985 . S
H852 N849 0.984 . S
H853 N849 0.985 . S
H854 N848 0.984 . S
H855 N848 0.984 . S
H856 N844 0.984 . S
H857 N844 0.985 . S
C858 C859 1.363 . S
C858 C864 1.379 . S
C858 N866 1.356 . S
C859 C858 1.363 . S
C859 C865 1.363 . S
C860 C861 1.363 . S
C860 C865 1.379 . S
C860 N867 1.356 . S
C861 C860 1.363 . S
C861 C864 1.363 . S
N862 C864 1.356 . S
N862 H874 0.984 . S
N862 H875 0.985 . S
N863 C865 1.356 . S
N863 H868 0.984 . S
N863 H869 0.985 . S
C864 C858 1.379 . S
C864 C861 1.363 . S
C864 N862 1.356 . S
C865 C859 1.363 . S
C865 C860 1.379 . S
C865 N863 1.356 . S
N866 C858 1.356 . S
N866 H872 0.984 . S
N866 H873 0.984 . S
N867 C860 1.356 . S
N867 H870 0.984 . S
N867 H871 0.985 . S
H868 N863 0.984 . S
H869 N863 0.985 . S
H870 N867 0.984 . S
H871 N867 0.985 . S
H872 N866 0.984 . S
H873 N866 0.984 . S
H874 N862 0.984 . S
H875 N862 0.985 . S
C876 C877 1.363 . S
C876 C882 1.379 . S
C876 N884 1.356 . S
C877 C876 1.363 . S
C877 C883 1.363 . S
C878 C879 1.363 . S
C878 C883 1.379 . S
C878 N885 1.356 . S
C879 C878 1.363 . S
C879 C882 1.363 . S
N880 C882 1.356 . S
N880 H892 0.984 . S
N880 H893 0.985 . S
N881 C883 1.356 . S
N881 H886 0.984 . S
N881 H887 0.985 . S
C882 C876 1.379 . S
C882 C879 1.363 . S
C882 N880 1.356 . S
C883 C877 1.363 . S
C883 C878 1.379 . S
C883 N881 1.356 . S
N884 C876 1.356 . S
N884 H890 0.984 . S
N884 H891 0.984 . S
N885 C878 1.356 . S
N885 H888 0.984 . S
N885 H889 0.985 . S
H886 N881 0.984 . S
H887 N881 0.985 . S
H888 N885 0.984 . S
H889 N885 0.985 . S
H890 N884 0.984 . S
H891 N884 0.984 . S
H892 N880 0.984 . S
H893 N880 0.985 . S
C894 C895 1.363 . S
C894 C900 1.379 . S
C894 N902 1.356 . S
C895 C894 1.363 . S
C895 C901 1.363 . S
C896 C897 1.363 . S
C896 C901 1.379 . S
C896 N903 1.356 . S
C897 C896 1.363 . S
C897 C900 1.363 . S
N898 C900 1.356 . S
N898 H910 0.984 . S
N898 H911 0.985 . S
N899 C901 1.356 . S
N899 H904 0.984 . S
N899 H905 0.985 . S
C900 C894 1.379 . S
C900 C897 1.363 . S
C900 N898 1.356 . S
C901 C895 1.363 . S
C901 C896 1.379 . S
C901 N899 1.356 . S
N902 C894 1.356 . S
N902 H908 0.984 . S
N902 H909 0.984 . S
N903 C896 1.356 . S
N903 H906 0.984 . S
N903 H907 0.985 . S
H904 N899 0.984 . S
H905 N899 0.985 . S
H906 N903 0.984 . S
H907 N903 0.985 . S
H908 N902 0.984 . S
H909 N902 0.984 . S
H910 N898 0.984 . S
H911 N898 0.985 . S
C912 C913 1.363 . S
C912 C918 1.379 . S
C912 N920 1.356 . S
C913 C912 1.363 . S
C913 C919 1.363 . S
C914 C915 1.363 . S
C914 C919 1.379 . S
C914 N921 1.356 . S
C915 C914 1.363 . S
C915 C918 1.363 . S
N916 C918 1.356 . S
N916 H928 0.984 . S
N916 H929 0.985 . S
N917 C919 1.356 . S
N917 H922 0.984 . S
N917 H923 0.985 . S
C918 C912 1.379 . S
C918 C915 1.363 . S
C918 N916 1.356 . S
C919 C913 1.363 . S
C919 C914 1.379 . S
C919 N917 1.356 . S
N920 C912 1.356 . S
N920 H926 0.984 . S
N920 H927 0.984 . S
N921 C914 1.356 . S
N921 H924 0.984 . S
N921 H925 0.985 . S
H922 N917 0.984 . S
H923 N917 0.985 . S
H924 N921 0.984 . S
H925 N921 0.985 . S
H926 N920 0.984 . S
H927 N920 0.984 . S
H928 N916 0.984 . S
H929 N916 0.985 . S
C930 C931 1.363 . S
C930 C936 1.379 . S
C930 N938 1.356 . S
C931 C930 1.363 . S
C931 C937 1.363 . S
C932 C933 1.363 . S
C932 C937 1.379 . S
C932 N939 1.356 . S
C933 C932 1.363 . S
C933 C936 1.363 . S
N934 C936 1.356 . S
N934 H946 0.984 . S
N934 H947 0.985 . S
N935 C937 1.356 . S
N935 H940 0.984 . S
N935 H941 0.985 . S
C936 C930 1.379 . S
C936 C933 1.363 . S
C936 N934 1.356 . S
C937 C931 1.363 . S
C937 C932 1.379 . S
C937 N935 1.356 . S
N938 C930 1.356 . S
N938 H944 0.984 . S
N938 H945 0.984 . S
N939 C932 1.356 . S
N939 H942 0.984 . S
N939 H943 0.985 . S
H940 N935 0.984 . S
H941 N935 0.985 . S
H942 N939 0.984 . S
H943 N939 0.985 . S
H944 N938 0.984 . S
H945 N938 0.984 . S
H946 N934 0.984 . S
H947 N934 0.985 . S
C948 C949 1.363 . S
C948 C954 1.379 . S
C948 N956 1.356 . S
C949 C948 1.363 . S
C949 C955 1.363 . S
C950 C951 1.363 . S
C950 C955 1.379 . S
C950 N957 1.356 . S
C951 C950 1.363 . S
C951 C954 1.363 . S
N952 C954 1.356 . S
N952 H964 0.984 . S
N952 H965 0.985 . S
N953 C955 1.356 . S
N953 H958 0.984 . S
N953 H959 0.985 . S
C954 C948 1.379 . S
C954 C951 1.363 . S
C954 N952 1.356 . S
C955 C949 1.363 . S
C955 C950 1.379 . S
C955 N953 1.356 . S
N956 C948 1.356 . S
N956 H962 0.984 . S
N956 H963 0.984 . S
N957 C950 1.356 . S
N957 H960 0.984 . S
N957 H961 0.985 . S
H958 N953 0.984 . S
H959 N953 0.985 . S
H960 N957 0.984 . S
H961 N957 0.985 . S
H962 N956 0.984 . S
H963 N956 0.984 . S
H964 N952 0.984 . S
H965 N952 0.985 . S
C966 C967 1.363 . S
C966 C972 1.379 . S
C966 N974 1.356 . S
C967 C966 1.363 . S
C967 C973 1.363 . S
C968 C969 1.363 . S
C968 C973 1.379 . S
C968 N975 1.356 . S
C969 C968 1.363 . S
C969 C972 1.363 . S
N970 C972 1.356 . S
N970 H982 0.984 . S
N970 H983 0.985 . S
N971 C973 1.356 . S
N971 H976 0.984 . S
N971 H977 0.985 . S
C972 C966 1.379 . S
C972 C969 1.363 . S
C972 N970 1.356 . S
C973 C967 1.363 . S
C973 C968 1.379 . S
C973 N971 1.356 . S
N974 C966 1.356 . S
N974 H980 0.984 . S
N974 H981 0.984 . S
N975 C968 1.356 . S
N975 H978 0.984 . S
N975 H979 0.985 . S
H976 N971 0.984 . S
H977 N971 0.985 . S
H978 N975 0.984 . S
H979 N975 0.985 . S
H980 N974 0.984 . S
H981 N974 0.984 . S
H982 N970 0.984 . S
H983 N970 0.985 . S
C984 C985 1.363 . S
C984 C990 1.379 . S
C984 N992 1.356 . S
C985 C984 1.363 . S
C985 C991 1.363 . S
C986 C987 1.363 . S
C986 C991 1.379 . S
C986 N993 1.356 . S
C987 C986 1.363 . S
C987 C990 1.363 . S
N988 C990 1.356 . S
N988 H1000 0.984 . S
N988 H1001 0.985 . S
N989 C991 1.356 . S
N989 H994 0.984 . S
N989 H995 0.985 . S
C990 C984 1.379 . S
C990 C987 1.363 . S
C990 N988 1.356 . S
C991 C985 1.363 . S
C991 C986 1.379 . S
C991 N989 1.356 . S
N992 C984 1.356 . S
N992 H998 0.984 . S
N992 H999 0.984 . S
N993 C986 1.356 . S
N993 H996 0.984 . S
N993 H997 0.985 . S
H994 N989 0.984 . S
H995 N989 0.985 . S
H996 N993 0.984 . S
H997 N993 0.985 . S
H998 N992 0.984 . S
H999 N992 0.984 . S
H1000 N988 0.984 . S
H1001 N988 0.985 . S
C1002 C1003 1.363 . S
C1002 C1008 1.379 . S
C1002 N1010 1.356 . S
C1003 C1002 1.363 . S
C1003 C1009 1.363 . S
C1004 C1005 1.363 . S
C1004 C1009 1.379 . S
C1004 N1011 1.356 . S
C1005 C1004 1.363 . S
C1005 C1008 1.363 . S
N1006 C1008 1.356 . S
N1006 H1018 0.984 . S
N1006 H1019 0.985 . S
N1007 C1009 1.356 . S
N1007 H1012 0.984 . S
N1007 H1013 0.985 . S
C1008 C1002 1.379 . S
C1008 C1005 1.363 . S
C1008 N1006 1.356 . S
C1009 C1003 1.363 . S
C1009 C1004 1.379 . S
C1009 N1007 1.356 . S
N1010 C1002 1.356 . S
N1010 H1016 0.984 . S
N1010 H1017 0.984 . S
N1011 C1004 1.356 . S
N1011 H1014 0.984 . S
N1011 H1015 0.985 . S
H1012 N1007 0.984 . S
H1013 N1007 0.985 . S
H1014 N1011 0.984 . S
H1015 N1011 0.985 . S
H1016 N1010 0.984 . S
H1017 N1010 0.984 . S
H1018 N1006 0.984 . S
H1019 N1006 0.985 . S
C1020 C1021 1.363 . S
C1020 C1026 1.379 . S
C1020 N1028 1.356 . S
C1021 C1020 1.363 . S
C1021 C1027 1.363 . S
C1022 C1023 1.363 . S
C1022 C1027 1.379 . S
C1022 N1029 1.356 . S
C1023 C1022 1.363 . S
C1023 C1026 1.363 . S
N1024 C1026 1.356 . S
N1024 H1036 0.984 . S
N1024 H1037 0.985 . S
N1025 C1027 1.356 . S
N1025 H1030 0.984 . S
N1025 H1031 0.985 . S
C1026 C1020 1.379 . S
C1026 C1023 1.363 . S
C1026 N1024 1.356 . S
C1027 C1021 1.363 . S
C1027 C1022 1.379 . S
C1027 N1025 1.356 . S
N1028 C1020 1.356 . S
N1028 H1034 0.984 . S
N1028 H1035 0.984 . S
N1029 C1022 1.356 . S
N1029 H1032 0.984 . S
N1029 H1033 0.985 . S
H1030 N1025 0.984 . S
H1031 N1025 0.985 . S
H1032 N1029 0.984 . S
H1033 N1029 0.985 . S
H1034 N1028 0.984 . S
H1035 N1028 0.984 . S
H1036 N1024 0.984 . S
H1037 N1024 0.985 . S
C1038 C1039 1.363 . S
C1038 C1044 1.379 . S
C1038 N1046 1.356 . S
C1039 C1038 1.363 . S
C1039 C1045 1.363 . S
C1040 C1041 1.363 . S
C1040 C1045 1.379 . S
C1040 N1047 1.356 . S
C1041 C1040 1.363 . S
C1041 C1044 1.363 . S
N1042 C1044 1.356 . S
N1042 H1054 0.984 . S
N1042 H1055 0.985 . S
N1043 C1045 1.356 . S
N1043 H1048 0.984 . S
N1043 H1049 0.985 . S
C1044 C1038 1.379 . S
C1044 C1041 1.363 . S
C1044 N1042 1.356 . S
C1045 C1039 1.363 . S
C1045 C1040 1.379 . S
C1045 N1043 1.356 . S
N1046 C1038 1.356 . S
N1046 H1052 0.984 . S
N1046 H1053 0.984 . S
N1047 C1040 1.356 . S
N1047 H1050 0.984 . S
N1047 H1051 0.985 . S
H1048 N1043 0.984 . S
H1049 N1043 0.985 . S
H1050 N1047 0.984 . S
H1051 N1047 0.985 . S
H1052 N1046 0.984 . S
H1053 N1046 0.984 . S
H1054 N1042 0.984 . S
H1055 N1042 0.985 . S
C1056 C1057 1.363 . S
C1056 C1062 1.379 . S
C1056 N1064 1.356 . S
C1057 C1056 1.363 . S
C1057 C1063 1.363 . S
C1058 C1059 1.363 . S
C1058 C1063 1.379 . S
C1058 N1065 1.356 . S
C1059 C1058 1.363 . S
C1059 C1062 1.363 . S
N1060 C1062 1.356 . S
N1060 H1072 0.984 . S
N1060 H1073 0.985 . S
N1061 C1063 1.356 . S
N1061 H1066 0.984 . S
N1061 H1067 0.985 . S
C1062 C1056 1.379 . S
C1062 C1059 1.363 . S
C1062 N1060 1.356 . S
C1063 C1057 1.363 . S
C1063 C1058 1.379 . S
C1063 N1061 1.356 . S
N1064 C1056 1.356 . S
N1064 H1070 0.984 . S
N1064 H1071 0.984 . S
N1065 C1058 1.356 . S
N1065 H1068 0.984 . S
N1065 H1069 0.985 . S
H1066 N1061 0.984 . S
H1067 N1061 0.985 . S
H1068 N1065 0.984 . S
H1069 N1065 0.985 . S
H1070 N1064 0.984 . S
H1071 N1064 0.984 . S
H1072 N1060 0.984 . S
H1073 N1060 0.985 . S
C1074 C1075 1.363 . S
C1074 C1080 1.379 . S
C1074 N1082 1.356 . S
C1075 C1074 1.363 . S
C1075 C1081 1.363 . S
C1076 C1077 1.363 . S
C1076 C1081 1.379 . S
C1076 N1083 1.356 . S
C1077 C1076 1.363 . S
C1077 C1080 1.363 . S
N1078 C1080 1.356 . S
N1078 H1090 0.984 . S
N1078 H1091 0.985 . S
N1079 C1081 1.356 . S
N1079 H1084 0.984 . S
N1079 H1085 0.985 . S
C1080 C1074 1.379 . S
C1080 C1077 1.363 . S
C1080 N1078 1.356 . S
C1081 C1075 1.363 . S
C1081 C1076 1.379 . S
C1081 N1079 1.356 . S
N1082 C1074 1.356 . S
N1082 H1088 0.984 . S
N1082 H1089 0.984 . S
N1083 C1076 1.356 . S
N1083 H1086 0.984 . S
N1083 H1087 0.985 . S
H1084 N1079 0.984 . S
H1085 N1079 0.985 . S
H1086 N1083 0.984 . S
H1087 N1083 0.985 . S
H1088 N1082 0.984 . S
H1089 N1082 0.984 . S
H1090 N1078 0.984 . S
H1091 N1078 0.985 . S
C1092 C1093 1.363 . S
C1092 C1098 1.379 . S
C1092 N1100 1.356 . S
C1093 C1092 1.363 . S
C1093 C1099 1.363 . S
C1094 C1095 1.363 . S
C1094 C1099 1.379 . S
C1094 N1101 1.356 . S
C1095 C1094 1.363 . S
C1095 C1098 1.363 . S
N1096 C1098 1.356 . S
N1096 H1108 0.984 . S
N1096 H1109 0.985 . S
N1097 C1099 1.356 . S
N1097 H1102 0.984 . S
N1097 H1103 0.985 . S
C1098 C1092 1.379 . S
C1098 C1095 1.363 . S
C1098 N1096 1.356 . S
C1099 C1093 1.363 . S
C1099 C1094 1.379 . S
C1099 N1097 1.356 . S
N1100 C1092 1.356 . S
N1100 H1106 0.984 . S
N1100 H1107 0.984 . S
N1101 C1094 1.356 . S
N1101 H1104 0.984 . S
N1101 H1105 0.985 . S
H1102 N1097 0.984 . S
H1103 N1097 0.985 . S
H1104 N1101 0.984 . S
H1105 N1101 0.985 . S
H1106 N1100 0.984 . S
H1107 N1100 0.984 . S
H1108 N1096 0.984 . S
H1109 N1096 0.985 . S
C1110 C1111 1.363 . S
C1110 C1116 1.379 . S
C1110 N1118 1.356 . S
C1111 C1110 1.363 . S
C1111 C1117 1.363 . S
C1112 C1113 1.363 . S
C1112 C1117 1.379 . S
C1112 N1119 1.356 . S
C1113 C1112 1.363 . S
C1113 C1116 1.363 . S
N1114 C1116 1.356 . S
N1114 H1126 0.984 . S
N1114 H1127 0.985 . S
N1115 C1117 1.356 . S
N1115 H1120 0.984 . S
N1115 H1121 0.985 . S
C1116 C1110 1.379 . S
C1116 C1113 1.363 . S
C1116 N1114 1.356 . S
C1117 C1111 1.363 . S
C1117 C1112 1.379 . S
C1117 N1115 1.356 . S
N1118 C1110 1.356 . S
N1118 H1124 0.984 . S
N1118 H1125 0.984 . S
N1119 C1112 1.356 . S
N1119 H1122 0.984 . S
N1119 H1123 0.985 . S
H1120 N1115 0.984 . S
H1121 N1115 0.985 . S
H1122 N1119 0.984 . S
H1123 N1119 0.985 . S
H1124 N1118 0.984 . S
H1125 N1118 0.984 . S
H1126 N1114 0.984 . S
H1127 N1114 0.985 . S
C1128 C1129 1.363 . S
C1128 C1134 1.379 . S
C1128 N1136 1.356 . S
C1129 C1128 1.363 . S
C1129 C1135 1.363 . S
C1130 C1131 1.363 . S
C1130 C1135 1.379 . S
C1130 N1137 1.356 . S
C1131 C1130 1.363 . S
C1131 C1134 1.363 . S
N1132 C1134 1.356 . S
N1132 H1144 0.984 . S
N1132 H1145 0.985 . S
N1133 C1135 1.356 . S
N1133 H1138 0.984 . S
N1133 H1139 0.985 . S
C1134 C1128 1.379 . S
C1134 C1131 1.363 . S
C1134 N1132 1.356 . S
C1135 C1129 1.363 . S
C1135 C1130 1.379 . S
C1135 N1133 1.356 . S
N1136 C1128 1.356 . S
N1136 H1142 0.984 . S
N1136 H1143 0.984 . S
N1137 C1130 1.356 . S
N1137 H1140 0.984 . S
N1137 H1141 0.985 . S
H1138 N1133 0.984 . S
H1139 N1133 0.985 . S
H1140 N1137 0.984 . S
H1141 N1137 0.985 . S
H1142 N1136 0.984 . S
H1143 N1136 0.984 . S
H1144 N1132 0.984 . S
H1145 N1132 0.985 . S
C1146 C1147 1.363 . S
C1146 C1152 1.379 . S
C1146 N1154 1.356 . S
C1147 C1146 1.363 . S
C1147 C1153 1.363 . S
C1148 C1149 1.363 . S
C1148 C1153 1.379 . S
C1148 N1155 1.356 . S
C1149 C1148 1.363 . S
C1149 C1152 1.363 . S
N1150 C1152 1.356 . S
N1150 H1162 0.984 . S
N1150 H1163 0.985 . S
N1151 C1153 1.356 . S
N1151 H1156 0.984 . S
N1151 H1157 0.985 . S
C1152 C1146 1.379 . S
C1152 C1149 1.363 . S
C1152 N1150 1.356 . S
C1153 C1147 1.363 . S
C1153 C1148 1.379 . S
C1153 N1151 1.356 . S
N1154 C1146 1.356 . S
N1154 H1160 0.984 . S
N1154 H1161 0.984 . S
N1155 C1148 1.356 . S
N1155 H1158 0.984 . S
N1155 H1159 0.985 . S
H1156 N1151 0.984 . S
H1157 N1151 0.985 . S
H1158 N1155 0.984 . S
H1159 N1155 0.985 . S
H1160 N1154 0.984 . S
H1161 N1154 0.984 . S
H1162 N1150 0.984 . S
H1163 N1150 0.985 . S
C1164 C1165 1.363 . S
C1164 C1170 1.379 . S
C1164 N1172 1.356 . S
C1165 C1164 1.363 . S
C1165 C1171 1.363 . S
C1166 C1167 1.363 . S
C1166 C1171 1.379 . S
C1166 N1173 1.356 . S
C1167 C1166 1.363 . S
C1167 C1170 1.363 . S
N1168 C1170 1.356 . S
N1168 H1180 0.984 . S
N1168 H1181 0.985 . S
N1169 C1171 1.356 . S
N1169 H1174 0.984 . S
N1169 H1175 0.985 . S
C1170 C1164 1.379 . S
C1170 C1167 1.363 . S
C1170 N1168 1.356 . S
C1171 C1165 1.363 . S
C1171 C1166 1.379 . S
C1171 N1169 1.356 . S
N1172 C1164 1.356 . S
N1172 H1178 0.984 . S
N1172 H1179 0.984 . S
N1173 C1166 1.356 . S
N1173 H1176 0.984 . S
N1173 H1177 0.985 . S
H1174 N1169 0.984 . S
H1175 N1169 0.985 . S
H1176 N1173 0.984 . S
H1177 N1173 0.985 . S
H1178 N1172 0.984 . S
H1179 N1172 0.984 . S
H1180 N1168 0.984 . S
H1181 N1168 0.985 . S
C1182 C1183 1.363 . S
C1182 C1188 1.379 . S
C1182 N1190 1.356 . S
C1183 C1182 1.363 . S
C1183 C1189 1.363 . S
C1184 C1185 1.363 . S
C1184 C1189 1.379 . S
C1184 N1191 1.356 . S
C1185 C1184 1.363 . S
C1185 C1188 1.363 . S
N1186 C1188 1.356 . S
N1186 H1198 0.984 . S
N1186 H1199 0.985 . S
N1187 C1189 1.356 . S
N1187 H1192 0.984 . S
N1187 H1193 0.985 . S
C1188 C1182 1.379 . S
C1188 C1185 1.363 . S
C1188 N1186 1.356 . S
C1189 C1183 1.363 . S
C1189 C1184 1.379 . S
C1189 N1187 1.356 . S
N1190 C1182 1.356 . S
N1190 H1196 0.984 . S
N1190 H1197 0.984 . S
N1191 C1184 1.356 . S
N1191 H1194 0.984 . S
N1191 H1195 0.985 . S
H1192 N1187 0.984 . S
H1193 N1187 0.985 . S
H1194 N1191 0.984 . S
H1195 N1191 0.985 . S
H1196 N1190 0.984 . S
H1197 N1190 0.984 . S
H1198 N1186 0.984 . S
H1199 N1186 0.985 . S
C337 C216 1.448 . S
C339 C7 1.448 . S
C355 C174 1.448 . S
C357 C20 1.448 . S
C373 C189 1.448 . S
C375 C34 1.448 . S
C391 C203 1.448 . S
C393 C49 1.448 . S
C409 C202 1.448 . S
C411 C21 1.448 . S
C427 C35 1.448 . S
C429 C217 1.448 . S
C445 C175 1.448 . S
C447 C48 1.448 . S
C463 C188 1.448 . S
C465 C6 1.448 . S
C481 C258 1.448 . S
C483 C62 1.448 . S
C499 C77 1.448 . S
C501 C273 1.448 . S
C517 C90 1.448 . S
C519 C230 1.448 . S
C535 C245 1.448 . S
C537 C105 1.448 . S
C553 C315 1.448 . S
C555 C119 1.448 . S
C571 C132 1.448 . S
C573 C328 1.448 . S
C589 C147 1.448 . S
C591 C287 1.448 . S
C607 C160 1.448 . S
C609 C300 1.448 . S
C625 C244 1.448 . S
C627 C161 1.448 . S
C643 C329 1.448 . S
C645 C76 1.448 . S
C661 C91 1.448 . S
C663 C286 1.448 . S
C679 C301 1.448 . S
C681 C104 1.448 . S
C697 C314 1.448 . S
C699 C63 1.448 . S
C715 C133 1.448 . S
C717 C272 1.448 . S
C733 C231 1.448 . S
C735 C146 1.448 . S
C751 C259 1.448 . S
C753 C118 1.448 . S
C769 C8 1.075 . S
C771 C64 1.075 . S
C787 C79 1.075 . S
C789 C23 1.075 . S
C805 C37 1.075 . S
C807 C92 1.075 . S
C823 C50 1.075 . S
C825 C107 1.075 . S
C841 C121 1.075 . S
C843 C22 1.075 . S
C859 C134 1.075 . S
C861 C36 1.075 . S
C877 C149 1.075 . S
C879 C51 1.075 . S
C895 C9 1.075 . S
C897 C162 1.075 . S
C913 C163 1.075 . S
C915 C65 1.075 . S
C931 C78 1.075 . S
C933 C120 1.075 . S
C949 C93 1.075 . S
C951 C135 1.075 . S
C967 C148 1.075 . S
C969 C106 1.075 . S
C985 C232 1.075 . S
C987 C176 1.075 . S
C1003 C247 1.075 . S
C1005 C191 1.075 . S
C1021 C205 1.075 . S
C1023 C260 1.075 . S
C1039 C218 1.075 . S
C1041 C275 1.075 . S
C1057 C190 1.075 . S
C1059 C289 1.075 . S
C1075 C204 1.075 . S
C1077 C302 1.075 . S
C1093 C317 1.075 . S
C1095 C219 1.075 . S
C1111 C177 1.075 . S
C1113 C330 1.075 . S
C1129 C233 1.075 . S
C1131 C331 1.075 . S
C1147 C288 1.075 . S
C1149 C246 1.075 . S
C1165 C261 1.075 . S
C1167 C303 1.075 . S
C1183 C316 1.075 . S
C1185 C274 1.075 . S
