# Generated by pormake.
# Topology neb, (4)-cn, num edge types: 1
# Building blocks:
#     Node 0, Type 0, BuildingBlock: QUQFOY_clean_sbu_3, # of connection points: 4
#     Node 1, Type 0, BuildingBlock: QUQFOY_clean_sbu_3, # of connection points: 4
#     Node 2, Type 0, BuildingBlock: QUQFOY_clean_sbu_3, # of connection points: 4
#     Node 3, Type 0, BuildingBlock: QUQFOY_clean_sbu_3, # of connection points: 4
#     Node 4, Type 0, BuildingBlock: QUQFOY_clean_sbu_3, # of connection points: 4
#     Node 5, Type 0, BuildingBlock: QUQFOY_clean_sbu_3, # of connection points: 4
#     Node 6, Type 0, BuildingBlock: QUQFOY_clean_sbu_3, # of connection points: 4
#     Node 7, Type 0, BuildingBlock: QUQFOY_clean_sbu_3, # of connection points: 4
#     Node 8, Type 0, BuildingBlock: QUQFOY_clean_sbu_3, # of connection points: 4
#     Node 9, Type 0, BuildingBlock: QUQFOY_clean_sbu_3, # of connection points: 4
#     Node 10, Type 0, BuildingBlock: QUQFOY_clean_sbu_3, # of connection points: 4
#     Node 11, Type 0, BuildingBlock: QUQFOY_clean_sbu_3, # of connection points: 4
#     Node 12, Type 0, BuildingBlock: QUQFOY_clean_sbu_3, # of connection points: 4
#     Node 13, Type 0, BuildingBlock: QUQFOY_clean_sbu_3, # of connection points: 4
#     Node 14, Type 0, BuildingBlock: QUQFOY_clean_sbu_3, # of connection points: 4
#     Node 15, Type 0, BuildingBlock: QUQFOY_clean_sbu_3, # of connection points: 4
#     Edge 16, Type (0, 0), BuildingBlock: AJUNOK_clean_linker_0, # of connection points: 2
#     Edge 17, Type (0, 0), BuildingBlock: AJUNOK_clean_linker_0, # of connection points: 2
#     Edge 18, Type (0, 0), BuildingBlock: AJUNOK_clean_linker_0, # of connection points: 2
#     Edge 19, Type (0, 0), BuildingBlock: AJUNOK_clean_linker_0, # of connection points: 2
#     Edge 20, Type (0, 0), BuildingBlock: AJUNOK_clean_linker_0, # of connection points: 2
#     Edge 21, Type (0, 0), BuildingBlock: AJUNOK_clean_linker_0, # of connection points: 2
#     Edge 22, Type (0, 0), BuildingBlock: AJUNOK_clean_linker_0, # of connection points: 2
#     Edge 23, Type (0, 0), BuildingBlock: AJUNOK_clean_linker_0, # of connection points: 2
#     Edge 24, Type (0, 0), BuildingBlock: AJUNOK_clean_linker_0, # of connection points: 2
#     Edge 25, Type (0, 0), BuildingBlock: AJUNOK_clean_linker_0, # of connection points: 2
#     Edge 26, Type (0, 0), BuildingBlock: AJUNOK_clean_linker_0, # of connection points: 2
#     Edge 27, Type (0, 0), BuildingBlock: AJUNOK_clean_linker_0, # of connection points: 2
#     Edge 28, Type (0, 0), BuildingBlock: AJUNOK_clean_linker_0, # of connection points: 2
#     Edge 29, Type (0, 0), BuildingBlock: AJUNOK_clean_linker_0, # of connection points: 2
#     Edge 30, Type (0, 0), BuildingBlock: AJUNOK_clean_linker_0, # of connection points: 2
#     Edge 31, Type (0, 0), BuildingBlock: AJUNOK_clean_linker_0, # of connection points: 2
#     Edge 32, Type (0, 0), BuildingBlock: AJUNOK_clean_linker_0, # of connection points: 2
#     Edge 33, Type (0, 0), BuildingBlock: AJUNOK_clean_linker_0, # of connection points: 2
#     Edge 34, Type (0, 0), BuildingBlock: AJUNOK_clean_linker_0, # of connection points: 2
#     Edge 35, Type (0, 0), BuildingBlock: AJUNOK_clean_linker_0, # of connection points: 2
#     Edge 36, Type (0, 0), BuildingBlock: AJUNOK_clean_linker_0, # of connection points: 2
#     Edge 37, Type (0, 0), BuildingBlock: AJUNOK_clean_linker_0, # of connection points: 2
#     Edge 38, Type (0, 0), BuildingBlock: AJUNOK_clean_linker_0, # of connection points: 2
#     Edge 39, Type (0, 0), BuildingBlock: AJUNOK_clean_linker_0, # of connection points: 2
#     Edge 40, Type (0, 0), BuildingBlock: AJUNOK_clean_linker_0, # of connection points: 2
#     Edge 41, Type (0, 0), BuildingBlock: AJUNOK_clean_linker_0, # of connection points: 2
#     Edge 42, Type (0, 0), BuildingBlock: AJUNOK_clean_linker_0, # of connection points: 2
#     Edge 43, Type (0, 0), BuildingBlock: AJUNOK_clean_linker_0, # of connection points: 2
#     Edge 44, Type (0, 0), BuildingBlock: AJUNOK_clean_linker_0, # of connection points: 2
#     Edge 45, Type (0, 0), BuildingBlock: AJUNOK_clean_linker_0, # of connection points: 2
#     Edge 46, Type (0, 0), BuildingBlock: AJUNOK_clean_linker_0, # of connection points: 2
#     Edge 47, Type (0, 0), BuildingBlock: AJUNOK_clean_linker_0, # of connection points: 2
# Relax obj value: 0.002
# Max RMSD: 0.025
# Mean RMSD: 0.025
data_MOF--net-neb--node1-QUQFOY_clean_sbu_3--edge1-AJUNOK_clean_linker_0
_symmetry_space_group_name_H-M    P1
_symmetry_Int_Tables_number       1
_symmetry_cell_setting            triclinic
loop_
_symmetry_equiv_pos_as_xyz
'x, y, z'
_cell_length_a     33.029399
_cell_length_b     17.667181
_cell_length_c     59.207185
_cell_angle_alpha  89.954313
_cell_angle_beta   94.595151
_cell_angle_gamma 90.057493
loop_
_atom_site_label
_atom_site_type_symbol
_atom_site_fract_x
_atom_site_fract_y
_atom_site_fract_z
_atom_type_partial_charge
C0 C 0.2025 0.10518 0.46246 0.0
O1 O 0.22477 0.07239 0.44896 0.0
Cd2 Cd 0.19488 0.00627 0.41579 0.0
O3 O 0.16415 0.09824 0.4597 0.0
Cd4 Cd 0.11172 0.03305 0.43537 0.0
C5 C 0.13308 0.14701 0.39254 0.0
O6 O 0.14345 0.91487 0.4229 0.0
O7 O 0.08758 0.95425 0.40479 0.0
O8 O 0.08347 -0.01937 0.46866 0.0
C9 C 0.11456 0.90349 0.40769 0.0
O10 O 0.16433 0.10531 0.39173 0.0
C11 C 0.04875 0.01094 0.46495 0.0
O12 O 0.10843 0.13683 0.40777 0.0
O13 O 0.04359 0.0532 0.44756 0.0
C14 C 0.02438 0.12547 0.77709 0.0
O15 O 0.00581 0.0976 0.79312 0.0
Cd16 Cd 0.03933 0.02651 0.82439 0.0
O17 O 0.06219 0.11373 0.77638 0.0
Cd18 Cd 0.11607 0.04754 0.79944 0.0
C19 C 0.10598 0.16094 0.84416 0.0
O20 O 0.08482 0.93014 0.81333 0.0
O21 O 0.14254 0.96785 0.82954 0.0
O22 O 0.14211 -0.00418 0.76537 0.0
C23 C 0.11554 0.9169 0.82714 0.0
O24 O 0.07692 0.11748 0.8486 0.0
C25 C 0.17741 0.02408 0.76895 0.0
O26 O 0.12334 0.15412 0.82582 0.0
O27 O 0.18369 0.06529 0.78646 0.0
C28 C 0.77024 0.81858 0.52101 0.0
O29 O 0.74629 0.85383 0.533 0.0
Cd30 Cd 0.7721 0.91875 0.56691 0.0
O31 O 0.80839 0.82536 0.52529 0.0
Cd32 Cd 0.85653 0.89813 0.55093 0.0
C33 C 0.83445 0.77952 0.59155 0.0
O34 O 0.82211 0.01435 0.562 0.0
O35 O 0.87076 0.96977 0.58506 0.0
O36 O 0.88396 0.95892 0.51897 0.0
C37 C 0.84607 0.02288 0.57972 0.0
O38 O 0.80239 0.81959 0.59131 0.0
C39 C 0.92007 0.93536 0.52294 0.0
O40 O 0.86079 0.79174 0.57737 0.0
O41 O 0.92693 0.89257 0.54013 0.0
C42 C 0.95055 0.81529 0.2076 0.0
O43 O 0.97281 0.85202 0.19496 0.0
Cd44 Cd 0.94503 0.91946 0.16211 0.0
O45 O 0.91209 0.82102 0.20463 0.0
Cd46 Cd 0.86209 0.89366 0.17969 0.0
C47 C 0.88325 0.77926 0.13772 0.0
O48 O 0.89505 0.0124 0.16926 0.0
O49 O 0.8468 0.96816 0.14597 0.0
O50 O 0.8331 0.94934 0.21219 0.0
C51 C 0.8707 0.02211 0.15177 0.0
O52 O 0.9146 0.82117 0.13743 0.0
C53 C 0.79729 0.92492 0.20749 0.0
O54 O 0.85793 0.78898 0.15261 0.0
O55 O 0.79157 0.88405 0.18984 0.0
C56 C 0.19995 0.62945 0.95878 0.0
O57 O 0.22296 0.59298 0.94653 0.0
Cd58 Cd 0.19715 0.52346 0.9137 0.0
O59 O 0.1616 0.62241 0.95557 0.0
Cd60 Cd 0.11302 0.54728 0.93061 0.0
C61 C 0.13469 0.66178 0.8887 0.0
O62 O 0.14733 0.43008 0.92049 0.0
O63 O 0.09872 0.47227 0.89702 0.0
O64 O 0.08687 0.4876 0.963 0.0
C65 C 0.12324 0.41942 0.90294 0.0
O66 O 0.16632 0.62056 0.88888 0.0
C67 C 0.0504 0.50924 0.95913 0.0
O68 O 0.10876 0.65171 0.90327 0.0
O69 O 0.04268 0.55153 0.94189 0.0
C70 C 0.02043 0.60819 0.27714 0.0
O71 O -0.0022 0.57498 0.29038 0.0
Cd72 Cd 0.02931 0.51071 0.32357 0.0
O73 O 0.05868 0.60055 0.28016 0.0
Cd74 Cd 0.11042 0.53244 0.30408 0.0
C75 C 0.0929 0.64898 0.34645 0.0
O76 O 0.07894 0.41418 0.3173 0.0
O77 O 0.13481 0.45597 0.33498 0.0
O78 O 0.13509 0.4776 0.27033 0.0
C79 C 0.10866 0.40366 0.33209 0.0
O80 O 0.06071 0.60976 0.34734 0.0
C81 C 0.1705 0.50565 0.27307 0.0
O82 O 0.11713 0.63686 0.33116 0.0
O83 O 0.17802 0.54765 0.29034 0.0
C84 C 0.77332 0.31491 0.02405 0.0
O85 O 0.75279 0.34192 0.03939 0.0
Cd86 Cd 0.78538 0.4118 0.07141 0.0
O87 O 0.81116 0.32792 0.02467 0.0
Cd88 Cd 0.86335 0.39531 0.04824 0.0
C89 C 0.85218 0.27887 0.09213 0.0
O90 O 0.83134 0.51137 0.06248 0.0
O91 O 0.88857 0.47228 0.07908 0.0
O92 O 0.88911 0.45208 0.01468 0.0
C93 C 0.86177 0.52351 0.07664 0.0
O94 O 0.82213 0.3206 0.09597 0.0
C95 C 0.92435 0.4234 0.01776 0.0
O96 O 0.87086 0.28746 0.07428 0.0
O97 O 0.93083 0.38017 0.03484 0.0
C98 C 0.94472 0.32201 0.70761 0.0
O99 O 0.96492 0.34741 0.69188 0.0
Cd100 Cd 0.93232 0.41382 0.65926 0.0
O101 O 0.90682 0.33433 0.707 0.0
Cd102 Cd 0.85476 0.39848 0.68237 0.0
C103 C 0.86636 0.27821 0.63962 0.0
O104 O 0.88642 0.51411 0.66747 0.0
O105 O 0.82977 0.47259 0.65081 0.0
O106 O 0.8273 0.45657 0.71515 0.0
C107 C 0.85611 0.52474 0.65312 0.0
O108 O 0.89615 0.32008 0.63532 0.0
C109 C 0.79231 0.42696 0.71176 0.0
O110 O 0.8476 0.28868 0.65732 0.0
O111 O 0.78681 0.38262 0.69491 0.0
C112 C 0.69538 0.11333 0.95537 0.0
O113 O 0.7155 0.07795 0.94134 0.0
Cd114 Cd 0.68409 0.01225 0.90871 0.0
O115 O 0.65684 0.10889 0.95389 0.0
Cd116 Cd 0.60234 0.04393 0.93044 0.0
C117 C 0.62266 0.15628 0.88711 0.0
O118 O 0.63222 0.92503 0.91745 0.0
O119 O 0.57598 0.96523 0.90007 0.0
O120 O 0.57547 -0.00693 0.96417 0.0
C121 C 0.60287 0.91415 0.90251 0.0
O122 O 0.65311 0.113 0.88557 0.0
C123 C 0.54069 0.02345 0.96082 0.0
O124 O 0.5989 0.14734 0.90285 0.0
O125 O 0.53488 0.0655 0.94342 0.0
C126 C 0.52176 0.11291 0.27347 0.0
O127 O 0.49875 0.07579 0.28563 0.0
Cd128 Cd 0.52744 0.0013 0.31742 0.0
O129 O 0.55997 0.10383 0.27622 0.0
Cd130 Cd 0.61127 0.02817 0.29816 0.0
C131 C 0.59175 0.136 0.34252 0.0
O132 O 0.5775 0.9098 0.30887 0.0
O133 O 0.63422 0.94329 0.32741 0.0
O134 O 0.63448 -0.02045 0.26324 0.0
C135 C 0.60629 0.89454 0.32381 0.0
O136 O 0.56002 0.09505 0.34256 0.0
C137 C 0.67074 0.0032 0.2666 0.0
O138 O 0.61654 0.12759 0.32726 0.0
O139 O 0.67932 0.04111 0.28464 0.0
C140 C 0.26787 0.83845 0.02809 0.0
O141 O 0.24637 0.86388 0.04321 0.0
Cd142 Cd 0.27911 0.93234 0.07555 0.0
O143 O 0.30563 0.85241 0.02937 0.0
Cd144 Cd 0.35717 0.9199 0.053 0.0
C145 C 0.34684 0.80018 0.09596 0.0
O146 O 0.32417 0.03469 0.06721 0.0
O147 O 0.38192 -0.00291 0.08368 0.0
O148 O 0.38024 -0.02243 0.01916 0.0
C149 C 0.35482 0.04775 0.08114 0.0
O150 O 0.31611 0.84026 0.09973 0.0
C151 C 0.41615 0.95184 0.02177 0.0
O152 O 0.36617 0.81145 0.0785 0.0
O153 O 0.42451 0.90949 0.03889 0.0
C154 C 0.44844 0.82237 0.6995 0.0
O155 O 0.47028 0.85174 0.68513 0.0
Cd156 Cd 0.44303 0.93373 0.65494 0.0
O157 O 0.411 0.83934 0.69918 0.0
Cd158 Cd 0.36193 0.92117 0.67731 0.0
C159 C 0.36947 0.81741 0.6302 0.0
O160 O 0.40233 0.03386 0.6683 0.0
O161 O 0.34309 0.01768 0.65021 0.0
O162 O 0.33929 0.96867 0.71255 0.0
C163 C 0.37387 0.05938 0.6547 0.0
O164 O 0.40268 0.853 0.62873 0.0
C165 C 0.30236 0.94979 0.70852 0.0
O166 O 0.34903 0.82623 0.64738 0.0
O167 O 0.29316 0.91498 0.69002 0.0
C168 C 0.70129 0.6074 0.4524 0.0
O169 O 0.72266 0.57213 0.43897 0.0
Cd170 Cd 0.69113 0.50154 0.40722 0.0
O171 O 0.66292 0.59939 0.45065 0.0
Cd172 Cd 0.60997 0.52748 0.42836 0.0
C173 C 0.62596 0.63682 0.38377 0.0
O174 O 0.64244 0.40834 0.41691 0.0
O175 O 0.58537 0.44345 0.39918 0.0
O176 O 0.58574 0.47902 0.46311 0.0
C177 C 0.61264 0.39347 0.4026 0.0
O178 O 0.65777 0.5967 0.38278 0.0
C179 C 0.55 0.50518 0.45981 0.0
O180 O 0.60272 0.62757 0.39973 0.0
O181 O 0.5422 0.54387 0.44186 0.0
C182 C 0.51486 0.61458 0.76959 0.0
O183 O 0.49162 0.58313 0.78285 0.0
Cd184 Cd 0.52065 0.52241 0.81708 0.0
O185 O 0.55307 0.60772 0.77324 0.0
Cd186 Cd 0.60289 0.54181 0.79905 0.0
C187 C 0.58311 0.66208 0.84008 0.0
O188 O 0.57032 0.42498 0.81237 0.0
O189 O 0.62486 0.46831 0.83107 0.0
O190 O 0.62895 0.48109 0.76676 0.0
C191 C 0.5991 0.41551 0.82778 0.0
O192 O 0.55074 0.62318 0.84063 0.0
C193 C 0.66461 0.50785 0.76968 0.0
O194 O 0.60833 0.64857 0.8254 0.0
O195 O 0.67169 0.55274 0.78634 0.0
C196 C 0.27288 0.32212 0.52879 0.0
O197 O 0.25161 0.35356 0.54305 0.0
Cd198 Cd 0.27881 0.43776 0.57252 0.0
O199 O 0.31045 0.33801 0.52867 0.0
Cd200 Cd 0.36039 0.42053 0.55002 0.0
C201 C 0.3512 0.31994 0.59773 0.0
O202 O 0.3206 0.53436 0.55814 0.0
O203 O 0.37893 0.518 0.57709 0.0
O204 O 0.3872 0.46381 0.51505 0.0
C205 C 0.34853 0.56002 0.57205 0.0
O206 O 0.31838 0.35675 0.59909 0.0
C207 C 0.42332 0.44179 0.52029 0.0
O208 O 0.37172 0.32763 0.58054 0.0
O209 O 0.42983 0.40816 0.5392 0.0
C210 C 0.45093 0.33687 0.20925 0.0
O211 O 0.47251 0.37454 0.19646 0.0
Cd212 Cd 0.44311 0.44498 0.16447 0.0
O213 O 0.41245 0.34295 0.20698 0.0
Cd214 Cd 0.36074 0.41654 0.18382 0.0
C215 C 0.37991 0.30617 0.14053 0.0
O216 O 0.39305 0.5356 0.17332 0.0
O217 O 0.34243 0.49372 0.1512 0.0
O218 O 0.33219 0.46764 0.2171 0.0
C219 C 0.36737 0.54652 0.15648 0.0
O220 O 0.41112 0.34824 0.13974 0.0
C221 C 0.29684 0.44061 0.21264 0.0
O222 O 0.35581 0.31469 0.15609 0.0
O223 O 0.2913 0.40098 0.19474 0.0
C224 C 0.27714 0.23634 0.4953 0.0
C225 C 0.25442 0.26527 0.51251 0.0
C226 C 0.2606 0.18295 0.47964 0.0
C227 C 0.22061 0.15626 0.48048 0.0
H228 H 0.30791 0.25563 0.49368 0.0
H229 H 0.2791 0.16386 0.46645 0.0
S230 S 0.14923 0.20902 0.52328 0.0
N231 N 0.19038 0.25965 0.53016 0.0
N232 N 0.1594 0.15955 0.50081 0.0
C233 C 0.19787 0.18314 0.49796 0.0
C234 C 0.2147 0.23753 0.51391 0.0
C235 C -0.00822 0.92692 0.51228 0.0
C236 C 0.95247 0.95697 0.50819 0.0
C237 C 0.02274 0.94559 0.4984 0.0
C238 C 0.01571 -0.00484 0.47986 0.0
H239 H -0.00127 0.88814 0.52624 0.0
H240 H 0.05237 0.92026 0.50218 0.0
S241 S 0.9184 0.09142 0.46221 0.0
N242 N 0.90843 0.04047 0.48447 0.0
N243 N 0.9666 0.07538 0.45845 0.0
C244 C 0.97669 0.02649 0.47573 0.0
C245 C 0.94511 0.00743 0.48986 0.0
C246 C 0.2309 0.94527 0.71965 0.0
C247 C 0.27133 0.96921 0.72434 0.0
C248 C 0.20079 0.96389 0.73406 0.0
C249 C 0.20981 0.00748 0.75372 0.0
H250 H 0.22232 0.91173 0.70472 0.0
H251 H 0.17018 0.9437 0.72971 0.0
S252 S 0.31098 0.08487 0.77367 0.0
N253 N 0.31879 0.03931 0.75009 0.0
N254 N 0.26221 0.07434 0.77711 0.0
C255 C 0.25009 0.03212 0.7586 0.0
C256 C 0.28082 0.01295 0.74395 0.0
C257 C 0.02375 0.20191 0.74135 0.0
C258 C 0.0029 0.17482 0.7596 0.0
C259 C 0.00501 0.25036 0.72493 0.0
C260 C 0.96454 0.27398 0.72598 0.0
H261 H 0.05495 0.18557 0.73963 0.0
H262 H 0.02239 0.26873 0.71116 0.0
S263 S 0.89666 0.22147 0.77069 0.0
N264 N 0.93957 0.17675 0.77796 0.0
N265 N 0.90436 0.26771 0.7472 0.0
C266 C 0.94336 0.24791 0.74425 0.0
C267 C 0.96247 0.19839 0.76099 0.0
C268 C 0.7119 0.75005 0.50056 0.0
C269 C 0.75374 0.76622 0.50286 0.0
C270 C 0.69556 0.6983 0.4844 0.0
C271 C 0.72026 0.66033 0.46972 0.0
H272 H 0.69143 0.77696 0.51149 0.0
H273 H 0.66313 0.68815 0.48348 0.0
S274 S 0.83181 0.68376 0.46827 0.0
N275 N 0.81964 0.74086 0.4887 0.0
N276 N 0.78888 0.6437 0.45832 0.0
C277 C 0.76218 0.67628 0.47168 0.0
C278 C 0.77889 0.72913 0.4882 0.0
C279 C 0.74231 0.00824 0.25564 0.0
C280 C 0.7019 -0.01538 0.25074 0.0
C281 C 0.77274 -0.01139 0.24154 0.0
C282 C 0.7641 0.94445 0.22194 0.0
H283 H 0.75072 0.04168 0.27061 0.0
H284 H 0.80339 0.00809 0.24618 0.0
S285 S 0.66288 0.86959 0.20111 0.0
N286 N 0.65465 0.91562 0.22455 0.0
N287 N 0.71189 0.87881 0.19813 0.0
C288 C 0.72374 0.92102 0.21668 0.0
C289 C 0.69267 0.9411 0.23104 0.0
C290 C 0.94524 0.73117 0.24146 0.0
C291 C 0.96913 0.76294 0.22519 0.0
C292 C 0.96178 0.68027 0.25793 0.0
C293 C 0.00291 0.65883 0.25879 0.0
H294 H 0.91344 0.74599 0.24162 0.0
H295 H 0.9422 0.65837 0.27023 0.0
S296 S 0.07809 0.72201 0.21918 0.0
N297 N 0.03585 0.76667 0.21048 0.0
N298 N 0.06681 0.67118 0.2412 0.0
C299 C 0.02701 0.68924 0.24237 0.0
C300 C 0.0102 0.74121 0.22567 0.0
C301 C 0.21071 0.75879 0.01035 0.0
C302 C 0.25015 0.78854 0.00963 0.0
C303 C 0.19471 0.70735 -0.00611 0.0
C304 C 0.2176 0.6832 0.97615 0.0
H305 H 0.19222 0.77433 0.02392 0.0
H306 H 0.16432 0.68562 -0.00474 0.0
S307 S 0.32114 0.74895 0.96537 0.0
N308 N 0.31074 0.79337 0.9887 0.0
N309 N 0.28083 0.69657 0.9581 0.0
C310 C 0.25672 0.7137 0.97496 0.0
C311 C 0.27291 0.7664 -0.00843 0.0
C312 C 0.97937 0.51669 0.97106 0.0
C313 C 0.01857 0.48538 0.97399 0.0
C314 C 0.94902 0.49552 0.98508 0.0
C315 C 0.95659 0.44203 0.00258 0.0
H316 H 0.97209 0.55846 0.95796 0.0
H317 H 0.91948 0.52201 0.98229 0.0
S318 S 0.05363 0.34016 0.01663 0.0
N319 N 0.0629 0.39591 -0.00472 0.0
N320 N 0.00594 0.35632 0.02153 0.0
C321 C -0.00453 0.40931 0.00545 0.0
C322 C 0.0264 0.43093 -0.00879 0.0
C323 C 0.27181 0.50109 0.24704 0.0
C324 C 0.26386 0.45589 0.2276 0.0
C325 C 0.24141 0.51727 0.26149 0.0
C326 C 0.20177 0.48889 0.25714 0.0
H327 H 0.30183 0.52436 0.25121 0.0
H328 H 0.24921 0.55208 0.27626 0.0
S329 S 0.16485 0.36833 0.20833 0.0
N330 N 0.2132 0.38342 0.20465 0.0
N331 N 0.15604 0.41371 0.23179 0.0
C332 C 0.19328 0.4438 0.2377 0.0
C333 C 0.2243 0.42734 0.22296 0.0
C334 C 0.69436 0.19501 0.98999 0.0
C335 C 0.71633 0.16319 0.97289 0.0
C336 C 0.71279 0.24456 0.00623 0.0
C337 C 0.75399 0.26475 0.00606 0.0
H338 H 0.66253 0.18156 -0.00909 0.0
H339 H 0.69453 0.26682 0.01909 0.0
S340 S 0.82497 0.19886 0.96447 0.0
N341 N 0.78157 0.15663 0.95659 0.0
N342 N 0.81616 0.24963 0.98692 0.0
C343 C 0.77632 0.23369 0.98894 0.0
C344 C 0.75756 0.18297 0.97246 0.0
C345 C 0.73587 0.51659 0.75835 0.0
C346 C 0.69649 0.48639 0.75462 0.0
C347 C 0.76666 0.49648 0.74453 0.0
C348 C 0.75934 0.44531 0.72644 0.0
H349 H 0.74309 0.55617 0.77205 0.0
H350 H 0.79641 0.52164 0.74807 0.0
S351 S 0.66148 0.34942 0.70956 0.0
N352 N 0.6519 0.4021 0.73151 0.0
N353 N 0.70972 0.36443 0.70563 0.0
C354 C 0.72013 0.4144 0.72256 0.0
C355 C 0.68875 0.43492 0.73661 0.0
C356 C 0.51676 0.96078 -0.00484 0.0
C357 C 0.50838 0.00804 0.9762 0.0
C358 C 0.48674 0.94284 0.00969 0.0
C359 C 0.44706 0.97135 0.00588 0.0
H360 H 0.54677 0.93694 -0.00117 0.0
H361 H 0.49484 0.90621 0.02402 0.0
S362 S 0.40926 0.09801 0.95868 0.0
N363 N 0.45741 0.0834 0.95445 0.0
N364 N 0.40094 0.04975 0.98174 0.0
C365 C 0.4382 0.01897 0.98703 0.0
C366 C 0.46886 0.03731 0.97221 0.0
C367 C 0.44563 0.2386 0.23949 0.0
C368 C 0.4701 0.28204 0.22595 0.0
C369 C 0.46246 0.18369 0.25456 0.0
C370 C 0.50453 0.16968 0.25677 0.0
H371 H 0.41302 0.24656 0.2384 0.0
H372 H 0.4422 0.15216 0.26459 0.0
S373 S 0.58226 0.26811 0.22529 0.0
N374 N 0.53885 0.30736 0.21587 0.0
N375 N 0.57045 0.20439 0.24405 0.0
C376 C 0.52945 0.21287 0.24337 0.0
C377 C 0.51229 0.26893 0.22804 0.0
C378 C 0.44215 0.74076 0.73371 0.0
C379 C 0.46601 0.76753 0.71667 0.0
C380 C 0.45777 0.68974 0.75032 0.0
C381 C 0.49798 0.66339 0.75068 0.0
H382 H 0.41115 0.75994 0.73445 0.0
H383 H 0.43836 0.67224 0.76328 0.0
S384 S 0.57233 0.71102 0.70892 0.0
N385 N 0.53141 0.76023 0.70053 0.0
N386 N 0.56074 0.66453 0.73171 0.0
C387 C 0.52192 0.68808 0.73342 0.0
C388 C 0.50598 0.74004 0.71647 0.0
C389 C 0.44797 0.4983 0.48512 0.0
C390 C 0.45626 0.45656 0.50523 0.0
C391 C 0.47851 0.5144 0.47071 0.0
C392 C 0.51862 0.48932 0.47577 0.0
H393 H 0.4176 0.51902 0.48043 0.0
H394 H 0.47045 0.54645 0.45541 0.0
S395 S 0.55649 0.37819 0.52645 0.0
N396 N 0.50773 0.39071 0.52952 0.0
N397 N 0.56508 0.42079 0.50248 0.0
C398 C 0.52742 0.44765 0.49587 0.0
C399 C 0.49629 0.43131 0.51057 0.0
C400 C 0.06703 0.74617 0.37185 0.0
C401 C 0.10043 0.71138 0.36283 0.0
C402 C 0.07231 0.80703 0.38679 0.0
C403 C 0.11123 0.83458 0.39372 0.0
H404 H 0.03633 0.72757 0.36689 0.0
H405 H 0.04555 0.83317 0.39284 0.0
S406 S 0.20889 0.76118 0.37608 0.0
N407 N 0.17402 0.70743 0.36242 0.0
N408 N 0.18393 0.82155 0.39112 0.0
C409 C 0.14509 0.79909 0.38548 0.0
C410 C 0.13968 0.73769 0.36982 0.0
C411 C 0.08733 0.23867 0.37036 0.0
C412 C 0.12654 0.20947 0.37597 0.0
C413 C 0.08109 0.29935 0.3551 0.0
C414 C 0.11401 0.33351 0.34542 0.0
H415 H 0.06133 0.21478 0.37787 0.0
H416 H 0.05066 0.32149 0.35157 0.0
S417 S 0.22227 0.27694 0.35373 0.0
N418 N 0.19846 0.21808 0.3698 0.0
N419 N 0.18667 0.33232 0.34159 0.0
C420 C 0.1531 0.3039 0.35049 0.0
C421 C 0.1594 0.2418 0.36566 0.0
C422 C 0.12146 0.29705 0.85078 0.0
C423 C 0.1168 0.2241 0.85964 0.0
C424 C 0.125 0.3601 0.86511 0.0
C425 C 0.12532 0.35179 0.88873 0.0
H426 H 0.12006 0.30594 0.83263 0.0
H427 H 0.12652 0.41594 0.85763 0.0
S428 S 0.11798 0.17221 0.92039 0.0
N429 N 0.11491 0.14646 0.89347 0.0
N430 N 0.12339 0.26521 0.92048 0.0
C431 C 0.1232 0.27887 0.89788 0.0
C432 C 0.11842 0.21483 0.88328 0.0
C433 C 0.09082 0.75454 0.8657 0.0
C434 C 0.1295 0.72389 0.87188 0.0
C435 C 0.08592 0.81496 0.85026 0.0
C436 C 0.11967 0.84745 0.84091 0.0
H437 H 0.0642 0.73201 0.87292 0.0
H438 H 0.05584 0.83814 0.84628 0.0
S439 S 0.22706 0.78667 0.8507 0.0
N440 N 0.20189 0.72944 0.8666 0.0
N441 N 0.19255 0.84307 0.83801 0.0
C442 C 0.15825 0.81643 0.84655 0.0
C443 C 0.16322 0.7546 0.86193 0.0
C444 C 0.85703 0.22349 0.60076 0.0
C445 C 0.85515 0.21467 0.62429 0.0
C446 C 0.85111 0.16166 0.58603 0.0
C447 C 0.84428 0.08904 0.59453 0.0
H448 H 0.86402 0.27822 0.59376 0.0
H449 H 0.85414 0.16993 0.56811 0.0
S450 S 0.83464 0.0365 0.65444 0.0
N451 N 0.8435 0.12855 0.65516 0.0
N452 N 0.83402 0.01178 0.62752 0.0
C453 C 0.84105 0.07986 0.61785 0.0
C454 C 0.846 0.14297 0.63276 0.0
C455 C 0.88464 0.62843 0.6302 0.0
C456 C 0.85114 0.59362 0.63913 0.0
C457 C 0.87916 0.68872 0.61475 0.0
C458 C 0.84008 0.71692 0.60815 0.0
H459 H 0.91505 0.60732 0.63455 0.0
H460 H 0.90565 0.71323 0.6079 0.0
S461 S 0.74285 0.64749 0.6281 0.0
N462 N 0.77797 0.59317 0.64115 0.0
N463 N 0.76756 0.70655 0.61253 0.0
C464 C 0.80655 0.68379 0.61764 0.0
C465 C 0.81212 0.6221 0.63302 0.0
C466 C 0.83308 0.62605 0.09984 0.0
C467 C 0.86644 0.59314 0.09027 0.0
C468 C 0.83858 0.68661 0.11517 0.0
C469 C 0.87748 0.71702 0.12101 0.0
H470 H 0.80286 0.60308 0.09612 0.0
H471 H 0.81225 0.70947 0.12258 0.0
S472 S 0.97415 0.65316 0.09916 0.0
N473 N 0.93918 0.59686 0.08681 0.0
N474 N 0.9496 0.71085 0.11518 0.0
C475 C 0.91079 0.68593 0.11084 0.0
C476 C 0.90523 0.62392 0.09558 0.0
C477 C 0.8721 0.08055 0.11372 0.0
C478 C 0.8722 0.08947 0.13732 0.0
C479 C 0.86825 0.14314 0.09919 0.0
C480 C 0.86303 0.21619 0.10781 0.0
H481 H 0.87412 0.02456 0.10643 0.0
H482 H 0.86713 0.1338 0.08106 0.0
S483 S 0.86322 0.26969 0.16835 0.0
N484 N 0.86931 0.17685 0.16876 0.0
N485 N 0.8602 0.29462 0.14136 0.0
C486 C 0.8643 0.22608 0.13141 0.0
C487 C 0.86942 0.16257 0.14622 0.0
C488 C 0.5562 0.76113 0.86451 0.0
C489 C 0.59 0.72494 0.85636 0.0
C490 C 0.56099 0.82129 0.87974 0.0
C491 C 0.59977 0.84675 0.88784 0.0
H492 H 0.52562 0.74386 0.85873 0.0
H493 H 0.53398 0.84827 0.88519 0.0
S494 S 0.69823 0.76954 0.87253 0.0
N495 N 0.66373 0.71782 0.85784 0.0
N496 N 0.67272 0.83059 0.88705 0.0
C497 C 0.63396 0.81016 0.88032 0.0
C498 C 0.62907 0.74947 0.86438 0.0
C499 C 0.57717 0.24886 0.86523 0.0
C500 C 0.61634 0.21963 0.87091 0.0
C501 C 0.57118 0.31033 0.85026 0.0
C502 C 0.60432 0.34525 0.84101 0.0
H503 H 0.55105 0.22426 0.87244 0.0
H504 H 0.54077 0.33237 0.84659 0.0
S505 S 0.71258 0.28922 0.84984 0.0
N506 N 0.68846 0.22917 0.86539 0.0
N507 N 0.67715 0.34504 0.83774 0.0
C508 C 0.64339 0.31579 0.84621 0.0
C509 C 0.64943 0.25283 0.86106 0.0
C510 C 0.6364 0.23107 0.36414 0.0
C511 C 0.59801 0.19688 0.35969 0.0
C512 C 0.64188 0.29225 0.37926 0.0
C513 C 0.60895 0.32181 0.39 0.0
H514 H 0.66223 0.21131 0.35563 0.0
H515 H 0.6715 0.31876 0.3817 0.0
S516 S 0.5031 0.25043 0.38554 0.0
N517 N 0.52713 0.19521 0.36857 0.0
N518 N 0.5376 0.31047 0.39645 0.0
C519 C 0.57092 0.28674 0.38635 0.0
C520 C 0.56538 0.22415 0.37133 0.0
C521 C 0.65149 0.72843 0.35644 0.0
C522 C 0.61838 0.6983 0.36702 0.0
C523 C 0.64667 0.79025 0.34182 0.0
C524 C 0.60845 0.82345 0.33676 0.0
H525 H 0.68181 0.70593 0.36009 0.0
H526 H 0.67334 0.81319 0.33472 0.0
S527 S 0.5114 0.76315 0.3585 0.0
N528 N 0.54552 0.70432 0.37056 0.0
N529 N 0.53645 0.82028 0.34243 0.0
C530 C 0.57465 0.79221 0.3463 0.0
C531 C 0.57965 0.72979 0.36165 0.0
C532 C 0.33399 0.21266 0.11931 0.0
C533 C 0.37297 0.24448 0.12377 0.0
C534 C 0.32753 0.15118 0.10442 0.0
C535 C 0.36002 0.11883 0.09395 0.0
H536 H 0.30841 0.23479 0.12757 0.0
H537 H 0.29739 0.12684 0.10187 0.0
S538 S 0.46724 0.1832 0.09874 0.0
N539 N 0.44399 0.24089 0.11538 0.0
N540 N 0.43178 0.12498 0.08786 0.0
C541 C 0.39875 0.15137 0.0977 0.0
C542 C 0.40525 0.21435 0.11249 0.0
C543 C 0.36056 0.68485 0.14988 0.0
C544 C 0.3692 0.6127 0.14169 0.0
C545 C 0.3547 0.74627 0.13497 0.0
C546 C 0.35835 0.73752 0.11158 0.0
H547 H 0.35613 0.69292 0.16765 0.0
H548 H 0.34629 0.80054 0.1417 0.0
S549 S 0.38375 0.56048 0.08231 0.0
N550 N 0.38298 0.53593 0.1092 0.0
N551 N 0.37349 0.65198 0.08124 0.0
C552 C 0.36927 0.66637 0.10347 0.0
C553 C 0.37424 0.60364 0.11855 0.0
C554 C 0.33125 0.6999 0.61798 0.0
C555 C 0.35716 0.75979 0.61279 0.0
C556 C 0.32565 0.63709 0.60357 0.0
C557 C 0.34537 0.63287 0.58349 0.0
H558 H 0.31729 0.69908 0.63392 0.0
H559 H 0.30788 0.58958 0.60885 0.0
S560 S 0.41088 0.77874 0.56027 0.0
N561 N 0.3985 0.81435 0.58456 0.0
N562 N 0.38813 0.69554 0.55785 0.0
C563 C 0.36876 0.69429 0.57725 0.0
C564 C 0.37452 0.75819 0.5918 0.0
C565 C 0.39253 0.20713 0.61111 0.0
C566 C 0.36302 0.26205 0.6152 0.0
C567 C 0.39869 0.14377 0.62527 0.0
C568 C 0.37569 0.13375 0.64395 0.0
H569 H 0.4093 0.21057 0.59616 0.0
H570 H 0.41955 0.10007 0.62074 0.0
S571 S 0.29983 0.26564 0.66442 0.0
N572 N 0.31461 0.3062 0.64132 0.0
N573 N 0.32588 0.18608 0.66742 0.0
C574 C 0.34847 0.19039 0.64925 0.0
C575 C 0.3423 0.25504 0.63503 0.0
loop_
_geom_bond_atom_site_label_1
_geom_bond_atom_site_label_2
_geom_bond_distance
_geom_bond_site_symmetry_2
_ccdc_geom_bond_type
C0 O1 1.306 . S
C0 O3 1.160 . S
O1 C0 1.306 . S
O1 Cd2 2.228 . S
Cd2 O1 2.228 . S
Cd2 O6 2.273 . S
Cd2 O10 2.277 . S
O3 C0 1.160 . S
O3 Cd4 2.203 . S
Cd4 O3 2.203 . S
Cd4 O6 2.411 . S
Cd4 O7 2.333 . S
Cd4 O8 2.352 . S
Cd4 O12 2.277 . S
Cd4 O13 2.356 . S
C5 O10 1.209 . S
C5 O12 1.226 . S
O6 Cd2 2.273 . S
O6 Cd4 2.411 . S
O6 C9 1.320 . S
O7 Cd4 2.333 . S
O7 C9 1.214 . S
O8 Cd4 2.352 . S
O8 C11 1.258 . S
C9 O6 1.320 . S
C9 O7 1.214 . S
O10 Cd2 2.277 . S
O10 C5 1.209 . S
C11 O8 1.258 . S
C11 O13 1.282 . S
O12 Cd4 2.277 . S
O12 C5 1.226 . S
O13 Cd4 2.356 . S
O13 C11 1.282 . S
C14 O15 1.306 . S
C14 O17 1.160 . S
O15 C14 1.306 . S
O15 Cd16 2.228 . S
Cd16 O15 2.228 . S
Cd16 O20 2.273 . S
Cd16 O24 2.277 . S
O17 C14 1.160 . S
O17 Cd18 2.203 . S
Cd18 O17 2.203 . S
Cd18 O20 2.411 . S
Cd18 O21 2.333 . S
Cd18 O22 2.352 . S
Cd18 O26 2.277 . S
Cd18 O27 2.356 . S
C19 O24 1.209 . S
C19 O26 1.226 . S
O20 Cd16 2.273 . S
O20 Cd18 2.411 . S
O20 C23 1.320 . S
O21 Cd18 2.333 . S
O21 C23 1.214 . S
O22 Cd18 2.352 . S
O22 C25 1.258 . S
C23 O20 1.320 . S
C23 O21 1.214 . S
O24 Cd16 2.277 . S
O24 C19 1.209 . S
C25 O22 1.258 . S
C25 O27 1.282 . S
O26 Cd18 2.277 . S
O26 C19 1.226 . S
O27 Cd18 2.356 . S
O27 C25 1.282 . S
C28 O29 1.306 . S
C28 O31 1.160 . S
O29 C28 1.306 . S
O29 Cd30 2.228 . S
Cd30 O29 2.228 . S
Cd30 O34 2.273 . S
Cd30 O38 2.277 . S
O31 C28 1.160 . S
O31 Cd32 2.203 . S
Cd32 O31 2.203 . S
Cd32 O34 2.411 . S
Cd32 O35 2.333 . S
Cd32 O36 2.352 . S
Cd32 O40 2.277 . S
Cd32 O41 2.356 . S
C33 O38 1.209 . S
C33 O40 1.226 . S
O34 Cd30 2.273 . S
O34 Cd32 2.411 . S
O34 C37 1.320 . S
O35 Cd32 2.333 . S
O35 C37 1.214 . S
O36 Cd32 2.352 . S
O36 C39 1.258 . S
C37 O34 1.320 . S
C37 O35 1.214 . S
O38 Cd30 2.277 . S
O38 C33 1.209 . S
C39 O36 1.258 . S
C39 O41 1.282 . S
O40 Cd32 2.277 . S
O40 C33 1.226 . S
O41 Cd32 2.356 . S
O41 C39 1.282 . S
C42 O43 1.306 . S
C42 O45 1.160 . S
O43 C42 1.306 . S
O43 Cd44 2.228 . S
Cd44 O43 2.228 . S
Cd44 O48 2.273 . S
Cd44 O52 2.277 . S
O45 C42 1.160 . S
O45 Cd46 2.203 . S
Cd46 O45 2.203 . S
Cd46 O48 2.411 . S
Cd46 O49 2.333 . S
Cd46 O50 2.352 . S
Cd46 O54 2.277 . S
Cd46 O55 2.356 . S
C47 O52 1.209 . S
C47 O54 1.226 . S
O48 Cd44 2.273 . S
O48 Cd46 2.411 . S
O48 C51 1.320 . S
O49 Cd46 2.333 . S
O49 C51 1.214 . S
O50 Cd46 2.352 . S
O50 C53 1.258 . S
C51 O48 1.320 . S
C51 O49 1.214 . S
O52 Cd44 2.277 . S
O52 C47 1.209 . S
C53 O50 1.258 . S
C53 O55 1.282 . S
O54 Cd46 2.277 . S
O54 C47 1.226 . S
O55 Cd46 2.356 . S
O55 C53 1.282 . S
C56 O57 1.306 . S
C56 O59 1.160 . S
O57 C56 1.306 . S
O57 Cd58 2.228 . S
Cd58 O57 2.228 . S
Cd58 O62 2.273 . S
Cd58 O66 2.277 . S
O59 C56 1.160 . S
O59 Cd60 2.203 . S
Cd60 O59 2.203 . S
Cd60 O62 2.411 . S
Cd60 O63 2.333 . S
Cd60 O64 2.352 . S
Cd60 O68 2.277 . S
Cd60 O69 2.356 . S
C61 O66 1.209 . S
C61 O68 1.226 . S
O62 Cd58 2.273 . S
O62 Cd60 2.411 . S
O62 C65 1.320 . S
O63 Cd60 2.333 . S
O63 C65 1.214 . S
O64 Cd60 2.352 . S
O64 C67 1.258 . S
C65 O62 1.320 . S
C65 O63 1.214 . S
O66 Cd58 2.277 . S
O66 C61 1.209 . S
C67 O64 1.258 . S
C67 O69 1.282 . S
O68 Cd60 2.277 . S
O68 C61 1.226 . S
O69 Cd60 2.356 . S
O69 C67 1.282 . S
C70 O71 1.306 . S
C70 O73 1.160 . S
O71 C70 1.306 . S
O71 Cd72 2.228 . S
Cd72 O71 2.228 . S
Cd72 O76 2.273 . S
Cd72 O80 2.277 . S
O73 C70 1.160 . S
O73 Cd74 2.203 . S
Cd74 O73 2.203 . S
Cd74 O76 2.411 . S
Cd74 O77 2.333 . S
Cd74 O78 2.352 . S
Cd74 O82 2.277 . S
Cd74 O83 2.356 . S
C75 O80 1.209 . S
C75 O82 1.226 . S
O76 Cd72 2.273 . S
O76 Cd74 2.411 . S
O76 C79 1.320 . S
O77 Cd74 2.333 . S
O77 C79 1.214 . S
O78 Cd74 2.352 . S
O78 C81 1.258 . S
C79 O76 1.320 . S
C79 O77 1.214 . S
O80 Cd72 2.277 . S
O80 C75 1.209 . S
C81 O78 1.258 . S
C81 O83 1.282 . S
O82 Cd74 2.277 . S
O82 C75 1.226 . S
O83 Cd74 2.356 . S
O83 C81 1.282 . S
C84 O85 1.306 . S
C84 O87 1.160 . S
O85 C84 1.306 . S
O85 Cd86 2.228 . S
Cd86 O85 2.228 . S
Cd86 O90 2.273 . S
Cd86 O94 2.277 . S
O87 C84 1.160 . S
O87 Cd88 2.203 . S
Cd88 O87 2.203 . S
Cd88 O90 2.411 . S
Cd88 O91 2.333 . S
Cd88 O92 2.352 . S
Cd88 O96 2.277 . S
Cd88 O97 2.356 . S
C89 O94 1.209 . S
C89 O96 1.226 . S
O90 Cd86 2.273 . S
O90 Cd88 2.411 . S
O90 C93 1.320 . S
O91 Cd88 2.333 . S
O91 C93 1.214 . S
O92 Cd88 2.352 . S
O92 C95 1.258 . S
C93 O90 1.320 . S
C93 O91 1.214 . S
O94 Cd86 2.277 . S
O94 C89 1.209 . S
C95 O92 1.258 . S
C95 O97 1.282 . S
O96 Cd88 2.277 . S
O96 C89 1.226 . S
O97 Cd88 2.356 . S
O97 C95 1.282 . S
C98 O99 1.306 . S
C98 O101 1.160 . S
O99 C98 1.306 . S
O99 Cd100 2.228 . S
Cd100 O99 2.228 . S
Cd100 O104 2.273 . S
Cd100 O108 2.277 . S
O101 C98 1.160 . S
O101 Cd102 2.203 . S
Cd102 O101 2.203 . S
Cd102 O104 2.411 . S
Cd102 O105 2.333 . S
Cd102 O106 2.352 . S
Cd102 O110 2.277 . S
Cd102 O111 2.356 . S
C103 O108 1.209 . S
C103 O110 1.226 . S
O104 Cd100 2.273 . S
O104 Cd102 2.411 . S
O104 C107 1.320 . S
O105 Cd102 2.333 . S
O105 C107 1.214 . S
O106 Cd102 2.352 . S
O106 C109 1.258 . S
C107 O104 1.320 . S
C107 O105 1.214 . S
O108 Cd100 2.277 . S
O108 C103 1.209 . S
C109 O106 1.258 . S
C109 O111 1.282 . S
O110 Cd102 2.277 . S
O110 C103 1.226 . S
O111 Cd102 2.356 . S
O111 C109 1.282 . S
C112 O113 1.306 . S
C112 O115 1.160 . S
O113 C112 1.306 . S
O113 Cd114 2.228 . S
Cd114 O113 2.228 . S
Cd114 O118 2.273 . S
Cd114 O122 2.277 . S
O115 C112 1.160 . S
O115 Cd116 2.203 . S
Cd116 O115 2.203 . S
Cd116 O118 2.411 . S
Cd116 O119 2.333 . S
Cd116 O120 2.352 . S
Cd116 O124 2.277 . S
Cd116 O125 2.356 . S
C117 O122 1.209 . S
C117 O124 1.226 . S
O118 Cd114 2.273 . S
O118 Cd116 2.411 . S
O118 C121 1.320 . S
O119 Cd116 2.333 . S
O119 C121 1.214 . S
O120 Cd116 2.352 . S
O120 C123 1.258 . S
C121 O118 1.320 . S
C121 O119 1.214 . S
O122 Cd114 2.277 . S
O122 C117 1.209 . S
C123 O120 1.258 . S
C123 O125 1.282 . S
O124 Cd116 2.277 . S
O124 C117 1.226 . S
O125 Cd116 2.356 . S
O125 C123 1.282 . S
C126 O127 1.306 . S
C126 O129 1.160 . S
O127 C126 1.306 . S
O127 Cd128 2.228 . S
Cd128 O127 2.228 . S
Cd128 O132 2.273 . S
Cd128 O136 2.277 . S
O129 C126 1.160 . S
O129 Cd130 2.203 . S
Cd130 O129 2.203 . S
Cd130 O132 2.411 . S
Cd130 O133 2.333 . S
Cd130 O134 2.352 . S
Cd130 O138 2.277 . S
Cd130 O139 2.356 . S
C131 O136 1.209 . S
C131 O138 1.226 . S
O132 Cd128 2.273 . S
O132 Cd130 2.411 . S
O132 C135 1.320 . S
O133 Cd130 2.333 . S
O133 C135 1.214 . S
O134 Cd130 2.352 . S
O134 C137 1.258 . S
C135 O132 1.320 . S
C135 O133 1.214 . S
O136 Cd128 2.277 . S
O136 C131 1.209 . S
C137 O134 1.258 . S
C137 O139 1.282 . S
O138 Cd130 2.277 . S
O138 C131 1.226 . S
O139 Cd130 2.356 . S
O139 C137 1.282 . S
C140 O141 1.306 . S
C140 O143 1.160 . S
O141 C140 1.306 . S
O141 Cd142 2.228 . S
Cd142 O141 2.228 . S
Cd142 O146 2.273 . S
Cd142 O150 2.277 . S
O143 C140 1.160 . S
O143 Cd144 2.203 . S
Cd144 O143 2.203 . S
Cd144 O146 2.411 . S
Cd144 O147 2.333 . S
Cd144 O148 2.352 . S
Cd144 O152 2.277 . S
Cd144 O153 2.356 . S
C145 O150 1.209 . S
C145 O152 1.226 . S
O146 Cd142 2.273 . S
O146 Cd144 2.411 . S
O146 C149 1.320 . S
O147 Cd144 2.333 . S
O147 C149 1.214 . S
O148 Cd144 2.352 . S
O148 C151 1.258 . S
C149 O146 1.320 . S
C149 O147 1.214 . S
O150 Cd142 2.277 . S
O150 C145 1.209 . S
C151 O148 1.258 . S
C151 O153 1.282 . S
O152 Cd144 2.277 . S
O152 C145 1.226 . S
O153 Cd144 2.356 . S
O153 C151 1.282 . S
C154 O155 1.306 . S
C154 O157 1.160 . S
O155 C154 1.306 . S
O155 Cd156 2.228 . S
Cd156 O155 2.228 . S
Cd156 O160 2.273 . S
Cd156 O164 2.277 . S
O157 C154 1.160 . S
O157 Cd158 2.203 . S
Cd158 O157 2.203 . S
Cd158 O160 2.411 . S
Cd158 O161 2.333 . S
Cd158 O162 2.352 . S
Cd158 O166 2.277 . S
Cd158 O167 2.356 . S
C159 O164 1.209 . S
C159 O166 1.226 . S
O160 Cd156 2.273 . S
O160 Cd158 2.411 . S
O160 C163 1.320 . S
O161 Cd158 2.333 . S
O161 C163 1.214 . S
O162 Cd158 2.352 . S
O162 C165 1.258 . S
C163 O160 1.320 . S
C163 O161 1.214 . S
O164 Cd156 2.277 . S
O164 C159 1.209 . S
C165 O162 1.258 . S
C165 O167 1.282 . S
O166 Cd158 2.277 . S
O166 C159 1.226 . S
O167 Cd158 2.356 . S
O167 C165 1.282 . S
C168 O169 1.306 . S
C168 O171 1.160 . S
O169 C168 1.306 . S
O169 Cd170 2.228 . S
Cd170 O169 2.228 . S
Cd170 O174 2.273 . S
Cd170 O178 2.277 . S
O171 C168 1.160 . S
O171 Cd172 2.203 . S
Cd172 O171 2.203 . S
Cd172 O174 2.411 . S
Cd172 O175 2.333 . S
Cd172 O176 2.352 . S
Cd172 O180 2.277 . S
Cd172 O181 2.356 . S
C173 O178 1.209 . S
C173 O180 1.226 . S
O174 Cd170 2.273 . S
O174 Cd172 2.411 . S
O174 C177 1.320 . S
O175 Cd172 2.333 . S
O175 C177 1.214 . S
O176 Cd172 2.352 . S
O176 C179 1.258 . S
C177 O174 1.320 . S
C177 O175 1.214 . S
O178 Cd170 2.277 . S
O178 C173 1.209 . S
C179 O176 1.258 . S
C179 O181 1.282 . S
O180 Cd172 2.277 . S
O180 C173 1.226 . S
O181 Cd172 2.356 . S
O181 C179 1.282 . S
C182 O183 1.306 . S
C182 O185 1.160 . S
O183 C182 1.306 . S
O183 Cd184 2.228 . S
Cd184 O183 2.228 . S
Cd184 O188 2.273 . S
Cd184 O192 2.277 . S
O185 C182 1.160 . S
O185 Cd186 2.203 . S
Cd186 O185 2.203 . S
Cd186 O188 2.411 . S
Cd186 O189 2.333 . S
Cd186 O190 2.352 . S
Cd186 O194 2.277 . S
Cd186 O195 2.356 . S
C187 O192 1.209 . S
C187 O194 1.226 . S
O188 Cd184 2.273 . S
O188 Cd186 2.411 . S
O188 C191 1.320 . S
O189 Cd186 2.333 . S
O189 C191 1.214 . S
O190 Cd186 2.352 . S
O190 C193 1.258 . S
C191 O188 1.320 . S
C191 O189 1.214 . S
O192 Cd184 2.277 . S
O192 C187 1.209 . S
C193 O190 1.258 . S
C193 O195 1.282 . S
O194 Cd186 2.277 . S
O194 C187 1.226 . S
O195 Cd186 2.356 . S
O195 C193 1.282 . S
C196 O197 1.306 . S
C196 O199 1.160 . S
O197 C196 1.306 . S
O197 Cd198 2.228 . S
Cd198 O197 2.228 . S
Cd198 O202 2.273 . S
Cd198 O206 2.277 . S
O199 C196 1.160 . S
O199 Cd200 2.203 . S
Cd200 O199 2.203 . S
Cd200 O202 2.411 . S
Cd200 O203 2.333 . S
Cd200 O204 2.352 . S
Cd200 O208 2.277 . S
Cd200 O209 2.356 . S
C201 O206 1.209 . S
C201 O208 1.226 . S
O202 Cd198 2.273 . S
O202 Cd200 2.411 . S
O202 C205 1.320 . S
O203 Cd200 2.333 . S
O203 C205 1.214 . S
O204 Cd200 2.352 . S
O204 C207 1.258 . S
C205 O202 1.320 . S
C205 O203 1.214 . S
O206 Cd198 2.277 . S
O206 C201 1.209 . S
C207 O204 1.258 . S
C207 O209 1.282 . S
O208 Cd200 2.277 . S
O208 C201 1.226 . S
O209 Cd200 2.356 . S
O209 C207 1.282 . S
C210 O211 1.306 . S
C210 O213 1.160 . S
O211 C210 1.306 . S
O211 Cd212 2.228 . S
Cd212 O211 2.228 . S
Cd212 O216 2.273 . S
Cd212 O220 2.277 . S
O213 C210 1.160 . S
O213 Cd214 2.203 . S
Cd214 O213 2.203 . S
Cd214 O216 2.411 . S
Cd214 O217 2.333 . S
Cd214 O218 2.352 . S
Cd214 O222 2.277 . S
Cd214 O223 2.356 . S
C215 O220 1.209 . S
C215 O222 1.226 . S
O216 Cd212 2.273 . S
O216 Cd214 2.411 . S
O216 C219 1.320 . S
O217 Cd214 2.333 . S
O217 C219 1.214 . S
O218 Cd214 2.352 . S
O218 C221 1.258 . S
C219 O216 1.320 . S
C219 O217 1.214 . S
O220 Cd212 2.277 . S
O220 C215 1.209 . S
C221 O218 1.258 . S
C221 O223 1.282 . S
O222 Cd214 2.277 . S
O222 C215 1.226 . S
O223 Cd214 2.356 . S
O223 C221 1.282 . S
C224 C225 1.369 . S
C224 C226 1.419 . S
C224 H228 0.930 . S
C225 C224 1.369 . S
C225 C234 1.429 . S
C226 C224 1.419 . S
C226 C227 1.363 . S
C226 H229 0.929 . S
C227 C226 1.363 . S
C227 C233 1.428 . S
H228 C224 0.930 . S
H229 C226 0.929 . S
S230 N231 1.613 . S
S230 N232 1.610 . S
N231 S230 1.613 . S
N231 C234 1.350 . S
N232 S230 1.610 . S
N232 C233 1.351 . S
C233 C227 1.428 . S
C233 N232 1.351 . S
C233 C234 1.434 . S
C234 C225 1.429 . S
C234 N231 1.350 . S
C234 C233 1.434 . S
C235 C236 1.369 1_455 S
C235 C237 1.419 1_565 S
C235 H239 0.930 . S
C236 C235 1.369 1_655 S
C236 C245 1.429 . S
C237 C235 1.419 1_545 S
C237 C238 1.363 . S
C237 H240 0.929 . S
C238 C237 1.363 . S
C238 C244 1.428 1_455 S
H239 C235 0.930 . S
H240 C237 0.929 . S
S241 N242 1.613 . S
S241 N243 1.610 1_565 S
N242 S241 1.613 . S
N242 C245 1.350 . S
N243 S241 1.610 1_545 S
N243 C244 1.351 . S
C244 C238 1.428 1_655 S
C244 N243 1.351 . S
C244 C245 1.434 1_545 S
C245 C236 1.429 . S
C245 N242 1.350 . S
C245 C244 1.434 1_565 S
C246 C247 1.369 1_545 S
C246 C248 1.419 . S
C246 H250 0.930 . S
C247 C246 1.369 1_565 S
C247 C256 1.429 . S
C248 C246 1.419 . S
C248 C249 1.363 . S
C248 H251 0.929 . S
C249 C248 1.363 . S
C249 C255 1.428 1_545 S
H250 C246 0.930 . S
H251 C248 0.929 . S
S252 N253 1.613 . S
S252 N254 1.610 . S
N253 S252 1.613 . S
N253 C256 1.350 . S
N254 S252 1.610 . S
N254 C255 1.351 . S
C255 C249 1.428 1_565 S
C255 N254 1.351 . S
C255 C256 1.434 . S
C256 C247 1.429 . S
C256 N253 1.350 . S
C256 C255 1.434 . S
C257 C258 1.369 . S
C257 C259 1.419 . S
C257 H261 0.930 . S
C258 C257 1.369 . S
C258 C267 1.429 1_455 S
C259 C257 1.419 . S
C259 C260 1.363 1_455 S
C259 H262 0.929 . S
C260 C259 1.363 1_655 S
C260 C266 1.428 . S
H261 C257 0.930 . S
H262 C259 0.929 . S
S263 N264 1.613 . S
S263 N265 1.610 . S
N264 S263 1.613 . S
N264 C267 1.350 . S
N265 S263 1.610 . S
N265 C266 1.351 . S
C266 C260 1.428 . S
C266 N265 1.351 . S
C266 C267 1.434 . S
C267 C258 1.429 1_655 S
C267 N264 1.350 . S
C267 C266 1.434 . S
C268 C269 1.369 . S
C268 C270 1.419 . S
C268 H272 0.930 . S
C269 C268 1.369 . S
C269 C278 1.429 . S
C270 C268 1.419 . S
C270 C271 1.363 . S
C270 H273 0.929 . S
C271 C270 1.363 . S
C271 C277 1.428 . S
H272 C268 0.930 . S
H273 C270 0.929 . S
S274 N275 1.613 . S
S274 N276 1.610 . S
N275 S274 1.613 . S
N275 C278 1.350 . S
N276 S274 1.610 . S
N276 C277 1.351 . S
C277 C271 1.428 . S
C277 N276 1.351 . S
C277 C278 1.434 . S
C278 C269 1.429 . S
C278 N275 1.350 . S
C278 C277 1.434 . S
C279 C280 1.369 . S
C279 C281 1.419 . S
C279 H283 0.930 . S
C280 C279 1.369 . S
C280 C289 1.429 1_545 S
C281 C279 1.419 . S
C281 C282 1.363 1_545 S
C281 H284 0.929 . S
C282 C281 1.363 1_565 S
C282 C288 1.428 . S
H283 C279 0.930 . S
H284 C281 0.929 . S
S285 N286 1.613 . S
S285 N287 1.610 . S
N286 S285 1.613 . S
N286 C289 1.350 . S
N287 S285 1.610 . S
N287 C288 1.351 . S
C288 C282 1.428 . S
C288 N287 1.351 . S
C288 C289 1.434 . S
C289 C280 1.429 1_565 S
C289 N286 1.350 . S
C289 C288 1.434 . S
C290 C291 1.369 . S
C290 C292 1.419 1_655 S
C290 H294 0.930 . S
C291 C290 1.369 . S
C291 C300 1.429 . S
C292 C290 1.419 1_455 S
C292 C293 1.363 . S
C292 H295 0.929 . S
C293 C292 1.363 . S
C293 C299 1.428 . S
H294 C290 0.930 . S
H295 C292 0.929 . S
S296 N297 1.613 1_455 S
S296 N298 1.610 . S
N297 S296 1.613 1_655 S
N297 C300 1.350 . S
N298 S296 1.610 . S
N298 C299 1.351 . S
C299 C293 1.428 . S
C299 N298 1.351 . S
C299 C300 1.434 1_455 S
C300 C291 1.429 . S
C300 N297 1.350 . S
C300 C299 1.434 1_655 S
C301 C302 1.369 . S
C301 C303 1.419 . S
C301 H305 0.930 . S
C302 C301 1.369 . S
C302 C311 1.429 1_554 S
C303 C301 1.419 . S
C303 C304 1.363 1_554 S
C303 H306 0.929 . S
C304 C303 1.363 1_556 S
C304 C310 1.428 . S
H305 C301 0.930 . S
H306 C303 0.929 . S
S307 N308 1.613 . S
S307 N309 1.610 . S
N308 S307 1.613 . S
N308 C311 1.350 . S
N309 S307 1.610 . S
N309 C310 1.351 . S
C310 C304 1.428 . S
C310 N309 1.351 . S
C310 C311 1.434 . S
C311 C302 1.429 1_556 S
C311 N308 1.350 . S
C311 C310 1.434 . S
C312 C313 1.371 . S
C312 C314 1.417 1_456 S
C312 H316 0.930 1_556 S
C313 C312 1.371 . S
C313 C322 1.429 . S
C314 C312 1.417 1_654 S
C314 C315 1.363 . S
C314 H317 0.929 . S
C315 C314 1.363 . S
C315 C321 1.406 1_554 S
H316 C312 0.930 1_554 S
H317 C314 0.929 . S
S318 N319 1.613 . S
S318 N320 1.610 1_455 S
N319 S318 1.613 . S
N319 C322 1.350 . S
N320 S318 1.610 1_655 S
N320 C321 1.356 . S
C321 C315 1.406 1_556 S
C321 N320 1.356 . S
C321 C322 1.457 1_655 S
C322 C313 1.429 . S
C322 N319 1.350 . S
C322 C321 1.457 1_455 S
C323 C324 1.369 . S
C323 C325 1.419 . S
C323 H327 0.930 . S
C324 C323 1.369 . S
C324 C333 1.429 . S
C325 C323 1.419 . S
C325 C326 1.363 . S
C325 H328 0.929 . S
C326 C325 1.363 . S
C326 C332 1.428 . S
H327 C323 0.930 . S
H328 C325 0.929 . S
S329 N330 1.613 . S
S329 N331 1.610 . S
N330 S329 1.613 . S
N330 C333 1.350 . S
N331 S329 1.610 . S
N331 C332 1.351 . S
C332 C326 1.428 . S
C332 N331 1.351 . S
C332 C333 1.434 . S
C333 C324 1.429 . S
C333 N330 1.350 . S
C333 C332 1.434 . S
C334 C335 1.369 1_554 S
C334 C336 1.419 . S
C334 H338 0.930 . S
C335 C334 1.369 1_556 S
C335 C344 1.429 . S
C336 C334 1.419 . S
C336 C337 1.363 . S
C336 H339 0.929 . S
C337 C336 1.363 . S
C337 C343 1.428 1_554 S
H338 C334 0.930 . S
H339 C336 0.929 . S
S340 N341 1.613 . S
S340 N342 1.610 . S
N341 S340 1.613 . S
N341 C344 1.350 . S
N342 S340 1.610 . S
N342 C343 1.351 . S
C343 C337 1.428 1_556 S
C343 N342 1.351 . S
C343 C344 1.434 . S
C344 C335 1.429 . S
C344 N341 1.350 . S
C344 C343 1.434 . S
C345 C346 1.369 . S
C345 C347 1.419 . S
C345 H349 0.930 . S
C346 C345 1.369 . S
C346 C355 1.429 . S
C347 C345 1.419 . S
C347 C348 1.363 . S
C347 H350 0.929 . S
C348 C347 1.363 . S
C348 C354 1.428 . S
H349 C345 0.930 . S
H350 C347 0.929 . S
S351 N352 1.613 . S
S351 N353 1.610 . S
N352 S351 1.613 . S
N352 C355 1.350 . S
N353 S351 1.610 . S
N353 C354 1.351 . S
C354 C348 1.428 . S
C354 N353 1.351 . S
C354 C355 1.434 . S
C355 C346 1.429 . S
C355 N352 1.350 . S
C355 C354 1.434 . S
C356 C357 1.369 1_554 S
C356 C358 1.419 1_545 S
C356 H360 0.930 . S
C357 C356 1.369 1_556 S
C357 C366 1.429 . S
C358 C356 1.419 1_565 S
C358 C359 1.363 . S
C358 H361 0.929 . S
C359 C358 1.363 . S
C359 C365 1.428 1_554 S
H360 C356 0.930 . S
H361 C358 0.929 . S
S362 N363 1.613 . S
S362 N364 1.610 1_545 S
N363 S362 1.613 . S
N363 C366 1.350 . S
N364 S362 1.610 1_565 S
N364 C365 1.351 . S
C365 C359 1.428 1_556 S
C365 N364 1.351 . S
C365 C366 1.434 1_565 S
C366 C357 1.429 . S
C366 N363 1.350 . S
C366 C365 1.434 1_545 S
C367 C368 1.369 . S
C367 C369 1.419 . S
C367 H371 0.930 . S
C368 C367 1.369 . S
C368 C377 1.429 . S
C369 C367 1.419 . S
C369 C370 1.363 . S
C369 H372 0.929 . S
C370 C369 1.363 . S
C370 C376 1.428 . S
H371 C367 0.930 . S
H372 C369 0.929 . S
S373 N374 1.613 . S
S373 N375 1.610 . S
N374 S373 1.613 . S
N374 C377 1.350 . S
N375 S373 1.610 . S
N375 C376 1.351 . S
C376 C370 1.428 . S
C376 N375 1.351 . S
C376 C377 1.434 . S
C377 C368 1.429 . S
C377 N374 1.350 . S
C377 C376 1.434 . S
C378 C379 1.369 . S
C378 C380 1.419 . S
C378 H382 0.930 . S
C379 C378 1.369 . S
C379 C388 1.429 . S
C380 C378 1.419 . S
C380 C381 1.363 . S
C380 H383 0.929 . S
C381 C380 1.363 . S
C381 C387 1.428 . S
H382 C378 0.930 . S
H383 C380 0.929 . S
S384 N385 1.613 . S
S384 N386 1.610 . S
N385 S384 1.613 . S
N385 C388 1.350 . S
N386 S384 1.610 . S
N386 C387 1.351 . S
C387 C381 1.428 . S
C387 N386 1.351 . S
C387 C388 1.434 . S
C388 C379 1.429 . S
C388 N385 1.350 . S
C388 C387 1.434 . S
C389 C390 1.369 . S
C389 C391 1.419 . S
C389 H393 0.930 . S
C390 C389 1.369 . S
C390 C399 1.429 . S
C391 C389 1.419 . S
C391 C392 1.363 . S
C391 H394 0.929 . S
C392 C391 1.363 . S
C392 C398 1.428 . S
H393 C389 0.930 . S
H394 C391 0.929 . S
S395 N396 1.613 . S
S395 N397 1.610 . S
N396 S395 1.613 . S
N396 C399 1.350 . S
N397 S395 1.610 . S
N397 C398 1.351 . S
C398 C392 1.428 . S
C398 N397 1.351 . S
C398 C399 1.434 . S
C399 C390 1.429 . S
C399 N396 1.350 . S
C399 C398 1.434 . S
C400 C401 1.369 . S
C400 C402 1.419 . S
C400 H404 0.930 . S
C401 C400 1.369 . S
C401 C410 1.429 . S
C402 C400 1.419 . S
C402 C403 1.363 . S
C402 H405 0.929 . S
C403 C402 1.363 . S
C403 C409 1.428 . S
H404 C400 0.930 . S
H405 C402 0.929 . S
S406 N407 1.613 . S
S406 N408 1.610 . S
N407 S406 1.613 . S
N407 C410 1.350 . S
N408 S406 1.610 . S
N408 C409 1.351 . S
C409 C403 1.428 . S
C409 N408 1.351 . S
C409 C410 1.434 . S
C410 C401 1.429 . S
C410 N407 1.350 . S
C410 C409 1.434 . S
C411 C412 1.369 . S
C411 C413 1.419 . S
C411 H415 0.930 . S
C412 C411 1.369 . S
C412 C421 1.429 . S
C413 C411 1.419 . S
C413 C414 1.363 . S
C413 H416 0.929 . S
C414 C413 1.363 . S
C414 C420 1.428 . S
H415 C411 0.930 . S
H416 C413 0.929 . S
S417 N418 1.613 . S
S417 N419 1.610 . S
N418 S417 1.613 . S
N418 C421 1.350 . S
N419 S417 1.610 . S
N419 C420 1.351 . S
C420 C414 1.428 . S
C420 N419 1.351 . S
C420 C421 1.434 . S
C421 C412 1.429 . S
C421 N418 1.350 . S
C421 C420 1.434 . S
C422 C423 1.369 . S
C422 C424 1.419 . S
C422 H426 0.930 . S
C423 C422 1.369 . S
C423 C432 1.429 . S
C424 C422 1.419 . S
C424 C425 1.363 . S
C424 H427 0.929 . S
C425 C424 1.363 . S
C425 C431 1.428 . S
H426 C422 0.930 . S
H427 C424 0.929 . S
S428 N429 1.613 . S
S428 N430 1.610 . S
N429 S428 1.613 . S
N429 C432 1.350 . S
N430 S428 1.610 . S
N430 C431 1.351 . S
C431 C425 1.428 . S
C431 N430 1.351 . S
C431 C432 1.434 . S
C432 C423 1.429 . S
C432 N429 1.350 . S
C432 C431 1.434 . S
C433 C434 1.369 . S
C433 C435 1.419 . S
C433 H437 0.930 . S
C434 C433 1.369 . S
C434 C443 1.429 . S
C435 C433 1.419 . S
C435 C436 1.363 . S
C435 H438 0.929 . S
C436 C435 1.363 . S
C436 C442 1.428 . S
H437 C433 0.930 . S
H438 C435 0.929 . S
S439 N440 1.613 . S
S439 N441 1.610 . S
N440 S439 1.613 . S
N440 C443 1.350 . S
N441 S439 1.610 . S
N441 C442 1.351 . S
C442 C436 1.428 . S
C442 N441 1.351 . S
C442 C443 1.434 . S
C443 C434 1.429 . S
C443 N440 1.350 . S
C443 C442 1.434 . S
C444 C445 1.369 . S
C444 C446 1.419 . S
C444 H448 0.930 . S
C445 C444 1.369 . S
C445 C454 1.429 . S
C446 C444 1.419 . S
C446 C447 1.363 . S
C446 H449 0.929 . S
C447 C446 1.363 . S
C447 C453 1.428 . S
H448 C444 0.930 . S
H449 C446 0.929 . S
S450 N451 1.613 1_565 S
S450 N452 1.610 . S
N451 S450 1.613 1_545 S
N451 C454 1.350 . S
N452 S450 1.610 . S
N452 C453 1.351 1_565 S
C453 C447 1.428 . S
C453 N452 1.351 1_545 S
C453 C454 1.434 . S
C454 C445 1.429 . S
C454 N451 1.350 . S
C454 C453 1.434 . S
C455 C456 1.369 . S
C455 C457 1.419 . S
C455 H459 0.930 . S
C456 C455 1.369 . S
C456 C465 1.429 . S
C457 C455 1.419 . S
C457 C458 1.363 . S
C457 H460 0.929 . S
C458 C457 1.363 . S
C458 C464 1.428 . S
H459 C455 0.930 . S
H460 C457 0.929 . S
S461 N462 1.613 . S
S461 N463 1.610 . S
N462 S461 1.613 . S
N462 C465 1.350 . S
N463 S461 1.610 . S
N463 C464 1.351 . S
C464 C458 1.428 . S
C464 N463 1.351 . S
C464 C465 1.434 . S
C465 C456 1.429 . S
C465 N462 1.350 . S
C465 C464 1.434 . S
C466 C467 1.369 . S
C466 C468 1.419 . S
C466 H470 0.930 . S
C467 C466 1.369 . S
C467 C476 1.429 . S
C468 C466 1.419 . S
C468 C469 1.363 . S
C468 H471 0.929 . S
C469 C468 1.363 . S
C469 C475 1.428 . S
H470 C466 0.930 . S
H471 C468 0.929 . S
S472 N473 1.613 . S
S472 N474 1.610 . S
N473 S472 1.613 . S
N473 C476 1.350 . S
N474 S472 1.610 . S
N474 C475 1.351 . S
C475 C469 1.428 . S
C475 N474 1.351 . S
C475 C476 1.434 . S
C476 C467 1.429 . S
C476 N473 1.350 . S
C476 C475 1.434 . S
C477 C478 1.369 . S
C477 C479 1.419 . S
C477 H481 0.930 1_545 S
C478 C477 1.369 . S
C478 C487 1.429 . S
C479 C477 1.419 . S
C479 C480 1.363 . S
C479 H482 0.929 . S
C480 C479 1.363 . S
C480 C486 1.428 . S
H481 C477 0.930 1_565 S
H482 C479 0.929 . S
S483 N484 1.613 . S
S483 N485 1.610 . S
N484 S483 1.613 . S
N484 C487 1.350 . S
N485 S483 1.610 . S
N485 C486 1.351 . S
C486 C480 1.428 . S
C486 N485 1.351 . S
C486 C487 1.434 . S
C487 C478 1.429 . S
C487 N484 1.350 . S
C487 C486 1.434 . S
C488 C489 1.369 . S
C488 C490 1.419 . S
C488 H492 0.930 . S
C489 C488 1.369 . S
C489 C498 1.429 . S
C490 C488 1.419 . S
C490 C491 1.363 . S
C490 H493 0.929 . S
C491 C490 1.363 . S
C491 C497 1.428 . S
H492 C488 0.930 . S
H493 C490 0.929 . S
S494 N495 1.613 . S
S494 N496 1.610 . S
N495 S494 1.613 . S
N495 C498 1.350 . S
N496 S494 1.610 . S
N496 C497 1.351 . S
C497 C491 1.428 . S
C497 N496 1.351 . S
C497 C498 1.434 . S
C498 C489 1.429 . S
C498 N495 1.350 . S
C498 C497 1.434 . S
C499 C500 1.369 . S
C499 C501 1.419 . S
C499 H503 0.930 . S
C500 C499 1.369 . S
C500 C509 1.429 . S
C501 C499 1.419 . S
C501 C502 1.363 . S
C501 H504 0.929 . S
C502 C501 1.363 . S
C502 C508 1.428 . S
H503 C499 0.930 . S
H504 C501 0.929 . S
S505 N506 1.613 . S
S505 N507 1.610 . S
N506 S505 1.613 . S
N506 C509 1.350 . S
N507 S505 1.610 . S
N507 C508 1.351 . S
C508 C502 1.428 . S
C508 N507 1.351 . S
C508 C509 1.434 . S
C509 C500 1.429 . S
C509 N506 1.350 . S
C509 C508 1.434 . S
C510 C511 1.369 . S
C510 C512 1.419 . S
C510 H514 0.930 . S
C511 C510 1.369 . S
C511 C520 1.429 . S
C512 C510 1.419 . S
C512 C513 1.363 . S
C512 H515 0.929 . S
C513 C512 1.363 . S
C513 C519 1.428 . S
H514 C510 0.930 . S
H515 C512 0.929 . S
S516 N517 1.613 . S
S516 N518 1.610 . S
N517 S516 1.613 . S
N517 C520 1.350 . S
N518 S516 1.610 . S
N518 C519 1.351 . S
C519 C513 1.428 . S
C519 N518 1.351 . S
C519 C520 1.434 . S
C520 C511 1.429 . S
C520 N517 1.350 . S
C520 C519 1.434 . S
C521 C522 1.369 . S
C521 C523 1.419 . S
C521 H525 0.930 . S
C522 C521 1.369 . S
C522 C531 1.429 . S
C523 C521 1.419 . S
C523 C524 1.363 . S
C523 H526 0.929 . S
C524 C523 1.363 . S
C524 C530 1.428 . S
H525 C521 0.930 . S
H526 C523 0.929 . S
S527 N528 1.613 . S
S527 N529 1.610 1_565 S
N528 S527 1.613 . S
N528 C531 1.350 . S
N529 S527 1.610 1_545 S
N529 C530 1.351 1_545 S
C530 C524 1.428 . S
C530 N529 1.351 1_565 S
C530 C531 1.434 . S
C531 C522 1.429 . S
C531 N528 1.350 . S
C531 C530 1.434 . S
C532 C533 1.369 . S
C532 C534 1.419 . S
C532 H536 0.930 . S
C533 C532 1.369 . S
C533 C542 1.429 . S
C534 C532 1.419 . S
C534 C535 1.363 . S
C534 H537 0.929 . S
C535 C534 1.363 . S
C535 C541 1.428 . S
H536 C532 0.930 . S
H537 C534 0.929 . S
S538 N539 1.613 . S
S538 N540 1.610 . S
N539 S538 1.613 . S
N539 C542 1.350 . S
N540 S538 1.610 . S
N540 C541 1.351 . S
C541 C535 1.428 . S
C541 N540 1.351 . S
C541 C542 1.434 . S
C542 C533 1.429 . S
C542 N539 1.350 . S
C542 C541 1.434 . S
C543 C544 1.369 . S
C543 C545 1.419 . S
C543 H547 0.930 . S
C544 C543 1.369 . S
C544 C553 1.429 . S
C545 C543 1.419 . S
C545 C546 1.363 . S
C545 H548 0.929 . S
C546 C545 1.363 . S
C546 C552 1.428 . S
H547 C543 0.930 . S
H548 C545 0.929 . S
S549 N550 1.613 . S
S549 N551 1.610 . S
N550 S549 1.613 . S
N550 C553 1.350 . S
N551 S549 1.610 . S
N551 C552 1.351 . S
C552 C546 1.428 . S
C552 N551 1.351 . S
C552 C553 1.434 . S
C553 C544 1.429 . S
C553 N550 1.350 . S
C553 C552 1.434 . S
C554 C555 1.369 . S
C554 C556 1.419 . S
C554 H558 0.930 . S
C555 C554 1.369 . S
C555 C564 1.429 . S
C556 C554 1.419 . S
C556 C557 1.363 . S
C556 H559 0.929 . S
C557 C556 1.363 . S
C557 C563 1.428 . S
H558 C554 0.930 . S
H559 C556 0.929 . S
S560 N561 1.613 . S
S560 N562 1.610 . S
N561 S560 1.613 . S
N561 C564 1.350 . S
N562 S560 1.610 . S
N562 C563 1.351 . S
C563 C557 1.428 . S
C563 N562 1.351 . S
C563 C564 1.434 . S
C564 C555 1.429 . S
C564 N561 1.350 . S
C564 C563 1.434 . S
C565 C566 1.369 . S
C565 C567 1.419 . S
C565 H569 0.930 . S
C566 C565 1.369 . S
C566 C575 1.429 . S
C567 C565 1.419 . S
C567 C568 1.363 . S
C567 H570 0.929 1_545 S
C568 C567 1.363 . S
C568 C574 1.428 . S
H569 C565 0.930 . S
H570 C567 0.929 1_565 S
S571 N572 1.613 . S
S571 N573 1.610 . S
N572 S571 1.613 . S
N572 C575 1.350 . S
N573 S571 1.610 . S
N573 C574 1.351 . S
C574 C568 1.428 . S
C574 N573 1.351 . S
C574 C575 1.434 . S
C575 C566 1.429 . S
C575 N572 1.350 . S
C575 C574 1.434 . S
C225 C196 1.491 . S
C227 C0 1.494 . S
C236 C39 1.499 . S
C238 C11 1.497 . S
C247 C165 1.498 . S
C249 C25 1.498 . S
C258 C14 1.492 . S
C260 C98 1.494 . S
C269 C28 1.495 . S
C271 C168 1.492 . S
C280 C137 1.498 . S
C282 C53 1.498 . S
C291 C42 1.492 . S
C293 C70 1.494 . S
C302 C140 1.494 . S
C304 C56 1.492 . S
C313 C67 1.497 . S
C315 C95 1.498 . S
C324 C221 1.497 . S
C326 C81 1.499 . S
C335 C112 1.491 . S
C337 C84 1.494 . S
C346 C193 1.498 . S
C348 C109 1.498 . S
C357 C123 1.497 . S
C359 C151 1.498 . S
C368 C210 1.492 . S
C370 C126 1.494 . S
C379 C154 1.492 . S
C381 C182 1.494 . S
C390 C207 1.498 . S
C392 C179 1.498 . S
C401 C75 1.458 . S
C403 C9 1.455 1_565 S
C412 C5 1.458 . S
C414 C79 1.453 . S
C423 C19 1.457 . S
C425 C65 1.453 . S
C434 C61 1.458 . S
C436 C23 1.453 1_565 S
C445 C103 1.458 . S
C447 C37 1.454 1_545 S
C456 C107 1.453 . S
C458 C33 1.458 . S
C467 C93 1.453 . S
C469 C47 1.458 . S
C478 C51 1.454 1_545 S
C480 C89 1.458 . S
C489 C187 1.458 . S
C491 C121 1.455 1_565 S
C500 C117 1.457 . S
C502 C191 1.453 . S
C511 C131 1.457 . S
C513 C177 1.453 . S
C522 C173 1.459 . S
C524 C135 1.455 1_565 S
C533 C215 1.457 . S
C535 C149 1.453 1_545 S
C544 C219 1.455 . S
C546 C145 1.458 . S
C555 C159 1.458 . S
C557 C205 1.454 . S
C566 C201 1.457 . S
C568 C163 1.454 1_545 S
