# Generated by pormake.
# Topology uni, (4)-cn, num edge types: 1
# Building blocks:
#     Node 0, Type 0, BuildingBlock: ICAMEG_clean_sbu_1, # of connection points: 4
#     Node 1, Type 0, BuildingBlock: ICAMEG_clean_sbu_1, # of connection points: 4
#     Node 2, Type 0, BuildingBlock: ICAMEG_clean_sbu_1, # of connection points: 4
#     Node 3, Type 0, BuildingBlock: ICAMEG_clean_sbu_1, # of connection points: 4
#     Node 4, Type 0, BuildingBlock: ICAMEG_clean_sbu_1, # of connection points: 4
#     Node 5, Type 0, BuildingBlock: ICAMEG_clean_sbu_1, # of connection points: 4
#     Edge 6, Type (0, 0), BuildingBlock: TEMPAE_clean_linker_10, # of connection points: 2
#     Edge 7, Type (0, 0), BuildingBlock: TEMPAE_clean_linker_10, # of connection points: 2
#     Edge 8, Type (0, 0), BuildingBlock: TEMPAE_clean_linker_10, # of connection points: 2
#     Edge 9, Type (0, 0), BuildingBlock: TEMPAE_clean_linker_10, # of connection points: 2
#     Edge 10, Type (0, 0), BuildingBlock: TEMPAE_clean_linker_10, # of connection points: 2
#     Edge 11, Type (0, 0), BuildingBlock: TEMPAE_clean_linker_10, # of connection points: 2
#     Edge 12, Type (0, 0), BuildingBlock: TEMPAE_clean_linker_10, # of connection points: 2
#     Edge 13, Type (0, 0), BuildingBlock: TEMPAE_clean_linker_10, # of connection points: 2
#     Edge 14, Type (0, 0), BuildingBlock: TEMPAE_clean_linker_10, # of connection points: 2
#     Edge 15, Type (0, 0), BuildingBlock: TEMPAE_clean_linker_10, # of connection points: 2
#     Edge 16, Type (0, 0), BuildingBlock: TEMPAE_clean_linker_10, # of connection points: 2
#     Edge 17, Type (0, 0), BuildingBlock: TEMPAE_clean_linker_10, # of connection points: 2
# Relax obj value: 0.140
# Max RMSD: 0.183
# Mean RMSD: 0.183
data_MOF--net-uni--node1-ICAMEG_clean_sbu_1--edge1-TEMPAE_clean_linker_10
_symmetry_space_group_name_H-M    P1
_symmetry_Int_Tables_number       1
_symmetry_cell_setting            triclinic
loop_
_symmetry_equiv_pos_as_xyz
'x, y, z'
_cell_length_a     40.777039
_cell_length_b     40.837646
_cell_length_c     24.775008
_cell_angle_alpha  90.032851
_cell_angle_beta   89.890393
_cell_angle_gamma 119.96312
loop_
_atom_site_label
_atom_site_type_symbol
_atom_site_fract_x
_atom_site_fract_y
_atom_site_fract_z
_atom_type_partial_charge
Co0 Co 0.64181 0.01295 0.06015 0.0
Co1 Co 0.71269 0.08229 0.13314 0.0
O2 O 0.68478 0.06486 0.065 0.0
C3 C 0.61641 0.06006 0.99874 0.0
O4 O 0.63323 0.08754 0.03391 0.0
C5 C 0.77551 0.11217 0.05141 0.0
O6 O 0.75861 0.08008 0.02487 0.0
O7 O 0.72471 0.04077 0.12857 0.0
O8 O 0.66569 0.99385 0.11326 0.0
H9 H 0.75003 0.06392 0.31895 0.0
H10 H 0.68152 0.05359 0.96041 0.0
O11 O 0.61658 0.02921 1.00524 0.0
H12 H 0.69152 0.93814 0.96288 0.0
H13 H 0.53933 0.89898 0.96406 0.0
H14 H 0.59664 0.95326 0.14041 0.0
H15 H 0.65753 0.95038 0.03531 0.0
H16 H 0.59442 0.96332 0.96999 0.0
O17 O 0.76045 0.11679 0.09357 0.0
H18 H 0.71474 0.04368 0.23329 0.0
H19 H 0.77143 0.15706 0.17683 0.0
H20 H 0.5418 0.88866 0.13626 0.0
H21 H 0.71529 0.04215 0.88669 0.0
H22 H 0.51275 0.8611 0.0476 0.0
H23 H 0.72059 0.98415 0.88774 0.0
O24 O 0.61623 0.024 0.12063 0.0
H25 H 0.70156 0.19036 0.05733 0.0
H26 H 0.68247 0.11206 0.2186 0.0
H27 H 0.66599 0.16244 0.22228 0.0
H28 H 0.67565 0.20213 0.14128 0.0
H29 H 0.71705 0.13919 0.05515 0.0
H30 H 0.80766 0.17846 0.26161 0.0
H31 H 0.79691 0.13175 0.33353 0.0
O32 O 0.66587 0.04931 0.17642 0.0
C33 C 0.70004 1.00575 0.12655 0.0
C34 C 0.75493 0.08455 0.28796 0.0
C35 C 0.78729 0.14882 0.25576 0.0
N36 N 0.74088 0.09915 0.20015 0.0
C37 C 0.73498 0.07327 0.23939 0.0
C38 C 0.76679 0.13651 0.20774 0.0
C39 C 0.78124 0.12261 0.2961 0.0
C40 C 0.68333 0.02807 0.96085 0.0
N41 N 0.66741 1.00264 1.00203 0.0
C42 C 0.70263 0.02183 0.91911 0.0
C43 C 0.70565 0.98931 0.91977 0.0
C44 C 0.68936 0.9635 0.96192 0.0
C45 C 0.67023 0.97065 1.00292 0.0
C46 C 0.55174 0.91067 1.00294 0.0
C47 C 0.58425 0.94145 0.10165 0.0
C48 C 0.58285 0.94716 1.00658 0.0
N49 N 0.5988 0.96206 0.05551 0.0
C50 C 0.55316 0.90486 0.09957 0.0
C51 C 0.53685 0.88943 0.04982 0.0
C52 C 0.63041 0.03451 0.16771 0.0
C53 C 0.69726 0.1733 0.09291 0.0
C54 C 0.68641 0.12893 0.18301 0.0
C55 C 0.67721 0.15756 0.18543 0.0
C56 C 0.68268 0.17985 0.14 0.0
N57 N 0.7006 0.1226 0.13661 0.0
C58 C 0.70612 0.14438 0.09197 0.0
Co59 Co 0.67604 0.6321 0.20154 0.0
Co60 Co 0.68208 0.70872 0.26543 0.0
O61 O 0.67234 0.67814 0.20028 0.0
C62 C 0.6044 0.6088 0.13952 0.0
O63 O 0.59343 0.6247 0.17595 0.0
C64 C 0.733 0.78656 0.22774 0.0
O65 O 0.75646 0.78837 0.26546 0.0
O66 O 0.73355 0.71457 0.26977 0.0
O67 O 0.71819 0.65448 0.2557 0.0
H68 H 0.73008 0.74964 0.45419 0.0
H69 H 0.6814 0.67096 0.09812 0.0
O70 O 0.6353 0.60864 0.14558 0.0
H71 H 0.79942 0.66575 0.10992 0.0
H72 H 0.67645 0.5196 0.11865 0.0
H73 H 0.68389 0.58639 0.28807 0.0
H74 H 0.75123 0.63812 0.18171 0.0
H75 H 0.67365 0.57852 0.11732 0.0
O76 O 0.7025 0.75541 0.21912 0.0
H77 H 0.71659 0.71132 0.37155 0.0
H78 H 0.66937 0.77226 0.29781 0.0
H79 H 0.68716 0.52774 0.29118 0.0
H80 H 0.72863 0.69851 0.02498 0.0
H81 H 0.68343 0.49392 0.20602 0.0
H82 H 0.78819 0.69609 0.03068 0.0
O83 O 0.6379 0.61128 0.26123 0.0
H84 H 0.57396 0.70801 0.16752 0.0
H85 H 0.61747 0.68612 0.34228 0.0
H86 H 0.55296 0.67639 0.33464 0.0
H87 H 0.53085 0.68751 0.24682 0.0
H88 H 0.63809 0.71682 0.17671 0.0
H89 H 0.68252 0.81134 0.37952 0.0
H90 H 0.71305 0.8001 0.45851 0.0
O91 O 0.66141 0.66295 0.31321 0.0
C92 C 0.74183 0.6883 0.26975 0.0
C93 C 0.71675 0.75479 0.42005 0.0
C94 C 0.69003 0.78941 0.37818 0.0
N95 N 0.69216 0.73946 0.32993 0.0
C96 C 0.70903 0.73317 0.37316 0.0
C97 C 0.68264 0.76717 0.33203 0.0
C98 C 0.70718 0.7831 0.42245 0.0
C99 C 0.70714 0.6696 0.10075 0.0
N100 N 0.71349 0.6529 0.14415 0.0
C101 C 0.73382 0.68532 0.05926 0.0
C102 C 0.76725 0.68398 0.0625 0.0
C103 C 0.77358 0.66698 0.10695 0.0
C104 C 0.74623 0.65151 0.14761 0.0
C105 C 0.67813 0.53409 0.15602 0.0
C106 C 0.6824 0.57194 0.25081 0.0
C107 C 0.67643 0.56741 0.15555 0.0
N108 N 0.67877 0.586 0.20256 0.0
C109 C 0.6842 0.53869 0.25284 0.0
C110 C 0.68207 0.51971 0.20505 0.0
C111 C 0.64041 0.62735 0.30655 0.0
C112 C 0.5833 0.70318 0.20604 0.0
C113 C 0.60801 0.69072 0.3038 0.0
C114 C 0.57148 0.68533 0.29979 0.0
C115 C 0.55911 0.69161 0.25052 0.0
N116 N 0.63162 0.70213 0.25999 0.0
C117 C 0.61965 0.70829 0.21155 0.0
Co118 Co 0.09189 0.68027 0.36106 0.0
Co119 Co 0.02891 0.68688 0.44388 0.0
O120 O 0.04093 0.67283 0.37357 0.0
C121 C 0.03939 0.60721 0.3018 0.0
O122 O 0.0106 0.60052 0.33287 0.0
C123 C 0.9944 0.71714 0.36579 0.0
O124 O 0.02406 0.72959 0.33404 0.0
O125 O 0.07082 0.7397 0.43346 0.0
O126 O 0.11533 0.72589 0.40937 0.0
H127 H 0.06127 0.7503 0.62535 0.0
H128 H 0.04387 0.6754 0.26827 0.0
O129 O 0.07183 0.63604 0.31011 0.0
H130 H 0.16097 0.79832 0.24806 0.0
H131 H 0.19852 0.68596 0.25043 0.0
H132 H 0.1565 0.69715 0.43282 0.0
H133 H 0.15345 0.75607 0.32382 0.0
H134 H 0.13513 0.67807 0.26474 0.0
O135 O 0.99255 0.6997 0.4092 0.0
H136 H 0.07487 0.73094 0.53773 0.0
H137 H 0.958 0.67453 0.49781 0.0
H138 H 0.22032 0.70574 0.42023 0.0
H139 H 0.05042 0.71651 0.19138 0.0
H140 H 0.24169 0.70009 0.3285 0.0
H141 H 0.10926 0.77856 0.18098 0.0
O142 O 0.08459 0.64642 0.42392 0.0
H143 H 0.91412 0.56626 0.38565 0.0
H144 H 1.0044 0.63056 0.53381 0.0
H145 H 0.95363 0.56449 0.54555 0.0
H146 H 0.9079 0.53191 0.4712 0.0
H147 H 0.96584 0.63218 0.37524 0.0
H148 H 0.94319 0.6936 0.5848 0.0
H149 H 0.99502 0.73161 0.64939 0.0
O150 O 0.06412 0.67394 0.48244 0.0
C151 C 0.1054 0.7493 0.42586 0.0
C152 C 0.03843 0.73366 0.59761 0.0
C153 C 0.97217 0.70187 0.57482 0.0
N154 N 0.01727 0.70146 0.51275 0.0
C155 C 0.04595 0.72255 0.54795 0.0
C156 C 0.98075 0.69126 0.52554 0.0
C157 C 1.00126 0.72319 0.61105 0.0
C158 C 0.06973 0.70213 0.26374 0.0
N159 N 0.09829 0.71316 0.30047 0.0
C160 C 0.07321 0.72539 0.22023 0.0
C161 C 0.1062 0.76022 0.21447 0.0
C162 C 0.13519 0.77134 0.25211 0.0
C163 C 0.13071 0.74734 0.2951 0.0
C164 C 0.18952 0.68843 0.29061 0.0
C165 C 0.1656 0.69472 0.39276 0.0
C166 C 0.15356 0.68379 0.29901 0.0
N167 N 0.14204 0.68706 0.3496 0.0
C168 C 0.20177 0.69958 0.38589 0.0
C169 C 0.21374 0.69639 0.33442 0.0
C170 C 0.07722 0.65206 0.47206 0.0
C171 C 0.93385 0.58015 0.41834 0.0
C172 C 0.98491 0.61649 0.50101 0.0
C173 C 0.95607 0.57912 0.50804 0.0
C174 C 0.93041 0.56088 0.46633 0.0
N175 N 0.98823 0.63517 0.45371 0.0
C176 C 0.96311 0.6175 0.41274 0.0
Co177 Co 0.46386 0.0886 0.56069 0.0
Co178 Co 0.39288 0.0187 0.6332 0.0
O179 O 0.42092 0.0367 0.5652 0.0
C180 C 0.48962 0.04182 0.4993 0.0
O181 O 0.47344 0.01469 0.53519 0.0
C182 C 0.32962 0.99097 0.55307 0.0
O183 O 0.34591 0.02426 0.52962 0.0
O184 O 0.381 0.06033 0.62987 0.0
O185 O 0.43992 0.10745 0.61427 0.0
H186 H 0.35512 0.03528 0.81993 0.0
H187 H 0.424 0.04824 0.46107 0.0
O188 O 0.48904 0.07249 0.50536 0.0
H189 H 0.4141 0.16373 0.46492 0.0
H190 H 0.56644 0.20291 0.46497 0.0
H191 H 0.50893 0.14799 0.64122 0.0
H192 H 0.44826 0.15132 0.53667 0.0
H193 H 0.51136 0.13853 0.47069 0.0
O194 O 0.34525 0.98477 0.59312 0.0
H195 H 0.39062 0.05635 0.73431 0.0
H196 H 0.33397 0.94356 0.67568 0.0
H197 H 0.56376 0.21261 0.63728 0.0
H198 H 0.39001 0.05982 0.38805 0.0
H199 H 0.59292 0.24049 0.54867 0.0
H200 H 0.38477 0.11785 0.3898 0.0
O201 O 0.48938 0.07732 0.62082 0.0
H202 H 0.40391 0.91121 0.55456 0.0
H203 H 0.42303 0.98818 0.7174 0.0
H204 H 0.43946 0.93775 0.71957 0.0
H205 H 0.4298 0.89873 0.63778 0.0
H206 H 0.38844 0.96241 0.5539 0.0
H207 H 0.29754 0.92133 0.7604 0.0
H208 H 0.30816 0.96732 0.83338 0.0
O209 O 0.43964 0.05121 0.6767 0.0
C210 C 0.40555 0.09537 0.62782 0.0
C211 C 0.35028 0.01496 0.78847 0.0
C212 C 0.31793 0.95101 0.75503 0.0
N213 N 0.3645 1.00121 0.70011 0.0
C214 C 0.37034 0.02671 0.73993 0.0
C215 C 0.33855 0.96379 0.70706 0.0
C216 C 0.32392 0.97683 0.79597 0.0
C217 C 0.4222 0.07376 0.4618 0.0
N218 N 0.43827 0.09913 0.50297 0.0
C219 C 0.40278 0.08009 0.42046 0.0
C220 C 0.3998 0.11263 0.42151 0.0
C221 C 0.41624 0.13837 0.46365 0.0
C222 C 0.43548 0.13113 0.50425 0.0
C223 C 0.55399 0.19108 0.50382 0.0
C224 C 0.52136 0.15994 0.60249 0.0
C225 C 0.52287 0.15457 0.50734 0.0
N226 N 0.50687 0.1395 0.55625 0.0
C227 C 0.55245 0.19654 0.60052 0.0
C228 C 0.56881 0.21216 0.55079 0.0
C229 C 0.47514 0.06643 0.66786 0.0
C230 C 0.4082 0.92797 0.59049 0.0
C231 C 0.41905 0.97158 0.68148 0.0
C232 C 0.42824 0.94292 0.68304 0.0
C233 C 0.42277 0.92102 0.63716 0.0
N234 N 0.40486 0.9783 0.63549 0.0
C235 C 0.39935 0.95689 0.59041 0.0
Co236 Co 0.41847 0.46516 0.70381 0.0
Co237 Co 0.41697 0.38971 0.76469 0.0
O238 O 0.42414 0.42024 0.70034 0.0
C239 C 0.48958 0.49082 0.6398 0.0
O240 O 0.50124 0.47556 0.67616 0.0
C241 C 0.36722 0.31165 0.72764 0.0
O242 O 0.34406 0.30932 0.76632 0.0
O243 O 0.36492 0.38184 0.77216 0.0
O244 O 0.37759 0.44142 0.76017 0.0
H245 H 0.37394 0.3471 0.95495 0.0
H246 H 0.41266 0.42789 0.59867 0.0
O247 O 0.45814 0.48992 0.64619 0.0
H248 H 0.29153 0.42609 0.62055 0.0
H249 H 0.41186 0.57537 0.62492 0.0
H250 H 0.41023 0.50941 0.79244 0.0
H251 H 0.3412 0.45513 0.68991 0.0
H252 H 0.41709 0.5178 0.62144 0.0
O253 O 0.39706 0.34323 0.71805 0.0
H254 H 0.38425 0.3854 0.87306 0.0
H255 H 0.43329 0.32799 0.79348 0.0
H256 H 0.40461 0.5667 0.79773 0.0
H257 H 0.3639 0.39899 0.52792 0.0
H258 H 0.40541 0.6001 0.71354 0.0
H259 H 0.30278 0.39788 0.53871 0.0
O260 O 0.45758 0.48699 0.76181 0.0
H261 H 0.52503 0.39511 0.65957 0.0
H262 H 0.48365 0.41462 0.8379 0.0
H263 H 0.54887 0.42692 0.82624 0.0
H264 H 0.56991 0.41701 0.73661 0.0
H265 H 0.46018 0.38371 0.67279 0.0
H266 H 0.4233 0.28894 0.87437 0.0
H267 H 0.39348 0.29842 0.95592 0.0
O268 O 0.43707 0.43518 0.81291 0.0
C269 C 0.35561 0.40728 0.77474 0.0
C270 C 0.38698 0.34272 0.91969 0.0
C271 C 0.41471 0.31009 0.87449 0.0
N272 N 0.40941 0.35903 0.82856 0.0
C273 C 0.39291 0.36433 0.87321 0.0
C274 C 0.42031 0.33232 0.82881 0.0
C275 C 0.39796 0.31541 0.92021 0.0
C276 C 0.38626 0.42779 0.60344 0.0
N277 N 0.37991 0.44337 0.64824 0.0
C278 C 0.35871 0.41128 0.56333 0.0
C279 C 0.3244 0.41064 0.56943 0.0
C280 C 0.31807 0.42646 0.61533 0.0
C281 C 0.34629 0.44279 0.65454 0.0
C282 C 0.41144 0.56105 0.66188 0.0
C283 C 0.41044 0.52368 0.7556 0.0
C284 C 0.41451 0.5285 0.66018 0.0
N285 N 0.4138 0.51015 0.70668 0.0
C286 C 0.40732 0.55616 0.75886 0.0
C287 C 0.40781 0.5749 0.71162 0.0
C288 C 0.45637 0.47098 0.80665 0.0
C289 C 0.51616 0.39941 0.69886 0.0
C290 C 0.49262 0.41052 0.79865 0.0
C291 C 0.52957 0.41737 0.79236 0.0
C292 C 0.54135 0.41177 0.74208 0.0
N293 N 0.46804 0.39834 0.75607 0.0
C294 C 0.47941 0.39283 0.70665 0.0
Co295 Co 1.00581 0.42697 0.86087 0.0
Co296 Co 0.07426 0.42065 0.93109 0.0
O297 O 0.0561 0.43187 0.86442 0.0
C298 C 0.05719 0.49941 0.80237 0.0
O299 O 0.08415 0.50707 0.83743 0.0
C300 C 0.10497 0.3725 0.89437 0.0
O301 O 0.08314 0.34801 0.93102 0.0
O302 O 0.02941 0.36876 0.93099 0.0
O303 O 0.98422 0.38276 0.91175 0.0
H304 H 0.0595 0.36721 0.11799 0.0
H305 H 0.0456 0.42674 0.76071 0.0
O306 O 0.02485 0.46993 0.80795 0.0
H307 H 0.92399 0.30686 0.75763 0.0
H308 H 0.89578 0.42649 0.76788 0.0
H309 H 0.9471 0.41431 0.94202 0.0
H310 H 0.93936 0.35186 0.83263 0.0
H311 H 0.95834 0.43109 0.77229 0.0
O312 O 0.1034 0.40258 0.88648 0.0
H313 H 0.03789 0.38243 0.03368 0.0
H314 H 0.14953 0.43407 0.97003 0.0
H315 H 0.88423 0.40913 0.93935 0.0
H316 H 0.03118 0.38273 0.68454 0.0
H317 H 0.85818 0.41525 0.85181 0.0
H318 H 0.97002 0.32225 0.68273 0.0
O319 O 0.01892 0.46263 0.92307 0.0
H320 H 0.18623 0.53217 0.8457 0.0
H321 H 0.11045 0.48321 0.01202 0.0
H322 H 0.16477 0.54812 1.01059 0.0
H323 H 0.20323 0.57296 0.92709 0.0
H324 H 0.13117 0.46766 0.84847 0.0
H325 H 0.17231 0.4193 0.05358 0.0
H326 H 0.12715 0.38566 0.12833 0.0
O327 O 0.0459 0.4388 0.97699 0.0
C328 C 0.99468 0.3597 0.92786 0.0
C329 C 0.07945 0.3819 0.08572 0.0
C330 C 0.14277 0.41116 0.0496 0.0
N331 N 0.0924 0.40919 0.997 0.0
C332 C 0.06738 0.39061 0.03789 0.0
C333 C 0.12971 0.41948 1.00241 0.0
C334 C 0.11742 0.39227 0.0915 0.0
C335 C 0.01882 0.40061 0.76004 0.0
N336 N 0.99331 0.39201 0.801 0.0
C337 C 0.01086 0.37575 0.71688 0.0
C338 C 0.97655 0.3418 0.71591 0.0
C339 C 0.95072 0.33314 0.75792 0.0
C340 C 0.95964 0.3587 0.80039 0.0
C341 C 0.90682 0.42376 0.80627 0.0
C342 C 0.93591 0.41686 0.90373 0.0
C343 C 0.9423 0.42648 0.80905 0.0
N344 N 0.95634 0.42285 0.85736 0.0
C345 C 0.90031 0.41396 0.90249 0.0
C346 C 0.88573 0.41743 0.85337 0.0
C347 C 0.03038 0.45892 0.96944 0.0
C348 C 0.16975 0.52164 0.88237 0.0
C349 C 0.12673 0.49389 0.97529 0.0
C350 C 0.15762 0.53063 0.97485 0.0
C351 C 0.17923 0.54453 0.92801 0.0
N352 N 0.11757 0.47158 0.93033 0.0
C353 C 0.13865 0.48503 0.88429 0.0
C354 C 0.5674 0.01815 0.20963 0.0
C355 C 0.60577 0.02912 0.21528 0.0
C356 C 0.54542 0.01628 0.25485 0.0
C357 C 0.56223 0.02564 0.30681 0.0
C358 C 0.60052 0.03534 0.31286 0.0
C359 C 0.62165 0.03684 0.26731 0.0
C360 C 0.50461 1.00558 0.24678 0.0
C361 C 0.61975 0.04567 0.36728 0.0
C362 C 0.52662 0.06718 0.4137 0.0
C363 C 0.50744 0.03685 0.44976 0.0
C364 C 0.54351 0.06348 0.36643 0.0
C365 C 0.54118 0.02849 0.35437 0.0
C366 C 0.52133 0.9975 0.38999 0.0
C367 C 0.50479 1.00206 0.43734 0.0
C368 C 0.56466 0.0974 0.32997 0.0
C369 C 0.51812 0.95971 0.3785 0.0
H370 H 0.55477 0.01198 0.1698 0.0
H371 H 0.65113 0.04498 0.2726 0.0
H372 H 0.48616 0.9831 0.2757 0.0
H373 H 0.50121 0.03044 0.25492 0.0
H374 H 0.49469 0.99552 0.20509 0.0
H375 H 0.649 0.0503 0.36568 0.0
H376 H 0.6211 0.07193 0.38225 0.0
H377 H 0.60321 0.02307 0.39711 0.0
H378 H 0.52884 0.0942 0.4226 0.0
H379 H 0.4898 0.97836 0.4646 0.0
H380 H 0.55359 0.09022 0.2882 0.0
H381 H 0.59505 0.10572 0.32852 0.0
H382 H 0.56242 0.12209 0.34377 0.0
H383 H 0.50671 0.95003 0.33732 0.0
H384 H 0.49955 0.93773 0.40803 0.0
H385 H 0.5466 0.96251 0.37979 0.0
C386 C 0.59424 0.56537 0.35112 0.0
C387 C 0.61918 0.6045 0.35458 0.0
C388 C 0.57352 0.54442 0.39661 0.0
C389 C 0.57785 0.56297 0.44672 0.0
C390 C 0.60352 0.60225 0.4506 0.0
C391 C 0.62376 0.62241 0.40477 0.0
C392 C 0.54647 0.50256 0.39083 0.0
C393 C 0.60909 0.62329 0.50306 0.0
C394 C 0.49867 0.52378 0.55103 0.0
C395 C 0.51207 0.50829 0.58991 0.0
C396 C 0.51926 0.5406 0.5037 0.0
C397 C 0.55427 0.54209 0.49463 0.0
C398 C 0.56772 0.52596 0.53318 0.0
C399 C 0.54649 0.50926 0.58034 0.0
C400 C 0.50386 0.55754 0.4639 0.0
C401 C 0.60492 0.52699 0.52508 0.0
H402 H 0.59054 0.55116 0.31278 0.0
H403 H 0.64305 0.65253 0.40841 0.0
H404 H 0.55279 0.4867 0.42147 0.0
H405 H 0.51708 0.49641 0.39821 0.0
H406 H 0.54784 0.49192 0.35009 0.0
H407 H 0.63127 0.65355 0.49994 0.0
H408 H 0.58214 0.62168 0.51538 0.0
H409 H 0.61712 0.61 0.53558 0.0
H410 H 0.47203 0.52304 0.55764 0.0
H411 H 0.55702 0.4972 0.60985 0.0
H412 H 0.50209 0.54557 0.4231 0.0
H413 H 0.52335 0.5885 0.46108 0.0
H414 H 0.47535 0.55241 0.47553 0.0
H415 H 0.60535 0.51482 0.48521 0.0
H416 H 0.61033 0.51118 0.557 0.0
H417 H 0.62843 0.55673 0.52526 0.0
C418 C 0.03409 0.51786 0.7207 0.0
C419 C 0.06443 0.52339 0.75364 0.0
C420 C 0.04001 0.53916 0.67354 0.0
C421 C 0.07728 0.56664 0.65836 0.0
C422 C 0.10814 0.57216 0.69103 0.0
C423 C 0.10135 0.55061 0.73844 0.0
C424 C 1.00619 0.53268 0.64042 0.0
C425 C 0.14829 0.60103 0.67609 0.0
C426 C 0.08674 0.60061 0.51254 0.0
C427 C 0.08322 0.63285 0.51892 0.0
C428 C 0.08685 0.57968 0.55778 0.0
C429 C 0.08324 0.59124 0.61045 0.0
C430 C 0.08171 0.62485 0.61706 0.0
C431 C 0.0819 0.64521 0.57146 0.0
C432 C 0.08894 0.54421 0.54908 0.0
C433 C 0.0777 0.63827 0.67223 0.0
H434 H 1.00543 0.49696 0.73196 0.0
H435 H 0.12501 0.55485 0.76328 0.0
H436 H 1.00439 0.5589 0.63931 0.0
H437 H 1.00941 0.5257 0.59818 0.0
H438 H 0.97915 0.50945 0.65682 0.0
H439 H 0.16931 0.60042 0.70392 0.0
H440 H 0.15459 0.59593 0.63434 0.0
H441 H 0.1518 0.62977 0.67692 0.0
H442 H 0.08783 0.59084 0.47225 0.0
H443 H 0.07967 0.67034 0.57715 0.0
H444 H 0.06117 0.51915 0.55893 0.0
H445 H 0.11025 0.54378 0.5764 0.0
H446 H 0.09631 0.54155 0.50673 0.0
H447 H 0.04982 0.61774 0.68979 0.0
H448 H 0.07982 0.66646 0.6708 0.0
H449 H 0.09981 0.63986 0.69988 0.0
C450 C 0.57857 0.03416 0.91409 0.0
C451 C 0.59839 0.06481 0.94936 0.0
C452 C 0.56158 0.03768 0.8669 0.0
C453 C 0.56444 0.0728 0.85414 0.0
C454 C 0.58488 0.10409 0.889 0.0
C455 C 0.60153 0.09972 0.93627 0.0
C456 C 0.5398 1.00345 0.83127 0.0
C457 C 0.58866 0.14202 0.87676 0.0
C458 C 0.53805 0.08233 0.70932 0.0
C459 C 0.49981 0.07188 0.71528 0.0
C460 C 0.56003 0.08424 0.75442 0.0
C461 C 0.5434 0.07556 0.8066 0.0
C462 C 0.50528 0.06642 0.81294 0.0
C463 C 0.4841 0.06476 0.76747 0.0
C464 C 0.60064 0.09424 0.74599 0.0
C465 C 0.48627 0.05691 0.86763 0.0
H466 H 0.57595 0.00705 0.92351 0.0
H467 H 0.61702 0.12366 0.9629 0.0
H468 H 0.50953 0.99559 0.83018 0.0
H469 H 0.55067 0.01005 0.78928 0.0
H470 H 0.54167 0.97865 0.84553 0.0
H471 H 0.60751 0.16415 0.90584 0.0
H472 H 0.60002 0.1512 0.83539 0.0
H473 H 0.56037 0.13968 0.87812 0.0
H474 H 0.55054 0.088 0.66934 0.0
H475 H 0.45474 0.05703 0.77298 0.0
H476 H 0.60361 0.06919 0.75468 0.0
H477 H 0.61945 0.1169 0.77436 0.0
H478 H 0.61047 0.10375 0.70406 0.0
H479 H 0.4845 0.03058 0.88312 0.0
H480 H 0.4572 0.05277 0.86623 0.0
H481 H 0.5032 0.07971 0.89695 0.0
C482 C 0.54665 0.58916 0.08153 0.0
C483 C 0.58189 0.59169 0.08969 0.0
C484 C 0.52537 0.57231 0.03453 0.0
C485 C 0.5397 0.55774 0.99474 0.0
C486 C 0.57561 0.56102 1.0023 0.0
C487 C 0.59616 0.57786 0.04946 0.0
C488 C 0.48717 0.5693 0.028 0.0
C489 C 0.59202 0.54586 0.9611 0.0
C490 C 0.47327 0.47621 0.90463 0.0
C491 C 0.47677 0.49412 0.85475 0.0
C492 C 0.49258 0.49677 0.95063 0.0
C493 C 0.51625 0.53643 0.94715 0.0
C494 C 0.51939 0.55495 0.89738 0.0
C495 C 0.49958 0.53359 0.85176 0.0
C496 C 0.48835 0.47577 1.00272 0.0
C497 C 0.54437 0.5972 0.89204 0.0
H498 H 0.53545 0.59992 0.11211 0.0
H499 H 0.62349 0.57993 0.05484 0.0
H500 H 0.48552 0.58112 0.98846 0.0
H501 H 0.46469 0.53912 0.0285 0.0
H502 H 0.48119 0.58433 0.06054 0.0
H503 H 0.62119 0.55249 0.97156 0.0
H504 H 0.57384 0.51471 0.95802 0.0
H505 H 0.59263 0.55783 0.92069 0.0
H506 H 0.45558 0.44581 0.9079 0.0
H507 H 0.50236 0.54779 0.81366 0.0
H508 H 0.4797 0.48814 0.03588 0.0
H509 H 0.51597 0.47866 0.01416 0.0
H510 H 0.46715 0.44519 0.99955 0.0
H511 H 0.53717 0.61183 0.92366 0.0
H512 H 0.54171 0.60767 0.85184 0.0
H513 H 0.57437 0.60505 0.89817 0.0
C514 C 0.01776 0.50769 0.01253 0.0
C515 C 0.02554 0.47801 0.01759 0.0
C516 C 0.01632 0.52748 0.05833 0.0
C517 C 0.02245 0.51713 0.11043 0.0
C518 C 0.02869 0.48619 0.11582 0.0
C519 C 0.03028 0.46719 0.06956 0.0
C520 C 1.00978 0.56043 0.05079 0.0
C521 C 0.03514 0.47394 0.17042 0.0
C522 C 0.06571 0.59144 0.22076 0.0
C523 C 0.03436 0.58331 0.25353 0.0
C524 C 0.06195 0.57066 0.17376 0.0
C525 C 0.02593 0.54059 0.15883 0.0
C526 C 0.99407 0.53202 0.19162 0.0
C527 C 0.99863 0.5535 0.23853 0.0
C528 C 0.09676 0.5808 0.14027 0.0
C529 C 0.95524 0.5 0.1773 0.0
H530 H 0.01398 0.51625 0.97269 0.0
H531 H 0.03585 0.44403 0.07427 0.0
H532 H 0.98682 0.55759 0.07792 0.0
H533 H 0.03581 0.58705 0.06182 0.0
H534 H 1.00222 0.56287 1.00851 0.0
H535 H 0.03642 0.44742 0.1682 0.0
H536 H 0.06216 0.49646 0.18762 0.0
H537 H 0.01221 0.46956 0.19878 0.0
H538 H 0.0935 0.61424 0.23171 0.0
H539 H 0.97419 0.54701 0.2633 0.0
H540 H 0.09232 0.58671 0.09803 0.0
H541 H 0.10197 0.55661 0.13924 0.0
H542 H 0.12248 0.60589 0.15627 0.0
H543 H 0.94745 0.50415 0.13602 0.0
H544 H 0.93316 0.49758 0.20598 0.0
H545 H 0.95538 0.47291 0.17721 0.0
C546 C 0.75612 0.85563 0.23555 0.0
C547 C 0.73661 0.82198 0.20592 0.0
C548 C 0.75416 0.88787 0.22126 0.0
C549 C 0.73295 0.88675 0.17542 0.0
C550 C 0.71534 0.85366 0.14324 0.0
C551 C 0.71691 0.82146 0.15933 0.0
C552 C 0.77257 0.92219 0.25743 0.0
C553 C 0.69328 0.85164 0.09327 0.0
C554 C 0.68536 0.94635 0.17382 0.0
C555 C 0.71044 0.97733 0.14236 0.0
C556 C 0.69297 0.91727 0.18597 0.0
C557 C 0.72583 0.91856 0.16452 0.0
C558 C 0.75131 0.94989 0.13266 0.0
C559 C 0.74357 0.97929 0.12262 0.0
C560 C 0.66558 0.88497 0.22137 0.0
C561 C 0.786 0.95174 0.10779 0.0
H562 H 0.77107 0.85616 0.27197 0.0
H563 H 0.70185 0.79555 0.13623 0.0
H564 H 0.79004 0.94811 0.23338 0.0
H565 H 0.75031 0.92573 0.27793 0.0
H566 H 0.79073 0.91981 0.28874 0.0
H567 H 0.68587 0.82608 0.06875 0.0
H568 H 0.66668 0.85095 0.10504 0.0
H569 H 0.70977 0.87709 0.0678 0.0
H570 H 0.65971 0.94491 0.18901 0.0
H571 H 0.76259 1.003 0.09749 0.0
H572 H 0.68084 0.88137 0.25584 0.0
H573 H 0.65246 0.85823 0.19802 0.0
H574 H 0.64266 0.88943 0.23748 0.0
H575 H 0.8039 0.94948 0.13955 0.0
H576 H 0.80332 0.97833 0.08485 0.0
H577 H 0.77733 0.92745 0.08003 0.0
C578 C 0.93554 0.71763 0.39144 0.0
C579 C 0.96138 0.7212 0.35112 0.0
C580 C 0.9017 0.71683 0.37863 0.0
C581 C 0.89319 0.71938 0.32402 0.0
C582 C 0.91996 0.72488 0.28327 0.0
C583 C 0.95392 0.72592 0.29736 0.0
C584 C 0.87418 0.71125 0.42341 0.0
C585 C 0.91184 0.72763 0.22456 0.0
C586 C 0.78869 0.66732 0.28916 0.0
C587 C 0.78041 0.69677 0.28577 0.0
C588 C 0.82533 0.6745 0.30062 0.0
C589 C 0.85466 0.7121 0.30947 0.0
C590 C 0.84659 0.74202 0.30674 0.0
C591 C 0.80955 0.73402 0.29489 0.0
C592 C 0.83259 0.64169 0.30339 0.0
C593 C 0.87709 0.78244 0.31634 0.0
H594 H 0.94136 0.71456 0.43323 0.0
H595 H 0.97377 0.72871 0.26605 0.0
H596 H 0.86468 0.73232 0.42013 0.0
H597 H 0.8487 0.68281 0.4198 0.0
H598 H 0.88668 0.71369 0.46405 0.0
H599 H 0.93698 0.73579 0.19852 0.0
H600 H 0.88851 0.6999 0.21063 0.0
H601 H 0.90236 0.74858 0.21916 0.0
H602 H 0.76651 0.63839 0.28246 0.0
H603 H 0.80357 0.75701 0.29223 0.0
H604 H 0.84239 0.63983 0.34442 0.0
H605 H 0.85536 0.64617 0.27464 0.0
H606 H 0.80694 0.61426 0.29385 0.0
H607 H 0.8889 0.78537 0.35751 0.0
H608 H 0.86638 0.80254 0.31201 0.0
H609 H 0.9007 0.79049 0.2874 0.0
C610 C 0.17391 0.79839 0.43169 0.0
C611 C 0.13587 0.78808 0.44014 0.0
C612 C 0.2035 0.83401 0.44685 0.0
C613 C 0.1951 0.86021 0.47156 0.0
C614 C 0.15683 0.85057 0.47893 0.0
C615 C 0.12762 0.81459 0.4631 0.0
C616 C 0.24386 0.843 0.43828 0.0
C617 C 0.14677 0.87774 0.50524 0.0
C618 C 0.27273 0.92727 0.56571 0.0
C619 C 0.29308 0.95947 0.53328 0.0
C620 C 0.23974 0.89562 0.547 0.0
C621 C 0.22659 0.89589 0.4943 0.0
C622 C 0.24598 0.92886 0.46207 0.0
C623 C 0.27902 0.96039 0.48202 0.0
C624 C 0.21995 0.86118 0.58288 0.0
C625 C 0.23278 0.93022 0.40569 0.0
H626 H 0.18085 0.77832 0.41404 0.0
H627 H 0.09839 0.80701 0.46976 0.0
H628 H 0.26025 0.8703 0.41671 0.0
H629 H 0.25768 0.84596 0.47794 0.0
H630 H 0.24559 0.82071 0.41481 0.0
H631 H 0.11596 0.86763 0.50306 0.0
H632 H 0.15527 0.88145 0.54832 0.0
H633 H 0.16247 0.90592 0.48577 0.0
H634 H 0.28297 0.92643 0.60571 0.0
H635 H 0.29448 0.98518 0.45679 0.0
H636 H 0.22272 0.8377 0.56521 0.0
H637 H 0.18929 0.85152 0.58559 0.0
H638 H 0.23187 0.86667 0.62434 0.0
H639 H 0.23723 0.91087 0.37917 0.0
H640 H 0.24825 0.95911 0.38818 0.0
H641 H 0.20202 0.92037 0.40565 0.0
C642 C 0.38375 0.27725 0.65875 0.0
C643 C 0.3645 0.27655 0.70606 0.0
C644 C 0.38624 0.24552 0.64278 0.0
C645 C 0.37007 0.21279 0.6758 0.0
C646 C 0.34935 0.21146 0.72245 0.0
C647 C 0.3464 0.24317 0.7366 0.0
C648 C 0.40769 0.24768 0.59194 0.0
C649 C 0.33253 0.17756 0.75952 0.0
C650 C 0.36096 0.12056 0.62457 0.0
C651 C 0.39479 0.12362 0.64319 0.0
C652 C 0.35258 0.14955 0.6343 0.0
C653 C 0.37814 0.18162 0.66475 0.0
C654 C 0.4118 0.18412 0.68497 0.0
C655 C 0.42 0.1554 0.67312 0.0
C656 C 0.31703 0.14641 0.61072 0.0
C657 C 0.43931 0.21727 0.71889 0.0
H658 H 0.39773 0.30296 0.63498 0.0
H659 H 0.33183 0.24252 0.77358 0.0
H660 H 0.43493 0.24944 0.60265 0.0
H661 H 0.39137 0.2218 0.56727 0.0
H662 H 0.41386 0.27273 0.56701 0.0
H663 H 0.31467 0.1797 0.79169 0.0
H664 H 0.3151 0.15122 0.73634 0.0
H665 H 0.35566 0.17501 0.77893 0.0
H666 H 0.34182 0.09623 0.60059 0.0
H667 H 0.4462 0.15771 0.68745 0.0
H668 H 0.32459 0.17039 0.58278 0.0
H669 H 0.29924 0.14822 0.64318 0.0
H670 H 0.29998 0.11954 0.58831 0.0
H671 H 0.45125 0.24366 0.69481 0.0
H672 H 0.46307 0.21385 0.73397 0.0
H673 H 0.42442 0.22079 0.75402 0.0
C674 C 0.15511 0.38924 0.82423 0.0
C675 C 0.13732 0.37006 0.87189 0.0
C676 C 0.18893 0.39145 0.80658 0.0
C677 C 0.20593 0.37508 0.83825 0.0
C678 C 0.18745 0.35469 0.88553 0.0
C679 C 0.15311 0.35202 0.9014 0.0
C680 C 0.20721 0.41257 0.75513 0.0
C681 C 0.20505 0.33766 0.92117 0.0
C682 C 0.28575 0.36352 0.77858 0.0
C683 C 0.31764 0.3973 0.79471 0.0
C684 C 0.24909 0.35582 0.79231 0.0
C685 C 0.24445 0.382 0.82433 0.0
C686 C 0.27678 0.41547 0.84237 0.0
C687 C 0.31294 0.42302 0.82651 0.0
C688 C 0.21535 0.32042 0.77095 0.0
C689 C 0.27319 0.4436 0.87789 0.0
H690 H 0.14296 0.40319 0.8013 0.0
H691 H 0.13977 0.33757 0.93868 0.0
H692 H 0.23353 0.43926 0.76487 0.0
H693 H 0.21525 0.39556 0.7291 0.0
H694 H 0.18826 0.41962 0.73194 0.0
H695 H 0.18588 0.32048 0.95447 0.0
H696 H 0.21273 0.31956 0.89713 0.0
H697 H 0.23157 0.3606 0.93903 0.0
H698 H 0.28942 0.34392 0.75325 0.0
H699 H 0.33767 0.44914 0.839 0.0
H700 H 0.19848 0.32819 0.74425 0.0
H701 H 0.19662 0.30349 0.80466 0.0
H702 H 0.22377 0.30249 0.74775 0.0
H703 H 0.2586 0.45617 0.85558 0.0
H704 H 0.30114 0.46681 0.89155 0.0
H705 H 0.25573 0.42914 0.91396 0.0
C706 C 0.92654 0.31147 0.94259 0.0
C707 C 0.96478 0.32114 0.94423 0.0
C708 C 0.89762 0.27532 0.95736 0.0
C709 C 0.90695 0.24794 0.97454 0.0
C710 C 0.94537 0.2572 0.97573 0.0
C711 C 0.97386 0.29371 0.9606 0.0
C712 C 0.85705 0.26676 0.95572 0.0
C713 C 0.95641 0.22877 0.99394 0.0
C714 C 0.83332 0.17448 0.06772 0.0
C715 C 0.81167 0.14455 0.0322 0.0
C716 C 0.86549 0.20744 0.04996 0.0
C717 C 0.87643 0.2108 0.99513 0.0
C718 C 0.85584 0.18001 0.9595 0.0
C719 C 0.82368 0.1471 0.97853 0.0
C720 C 0.88666 0.23941 0.08946 0.0
C721 C 0.8667 0.18254 0.90076 0.0
H722 H 0.919 0.33228 0.93011 0.0
H723 H 1.00323 0.30076 0.96187 0.0
H724 H 0.83963 0.2411 0.93115 0.0
H725 H 0.84504 0.26089 0.99714 0.0
H726 H 0.85441 0.29049 0.93863 0.0
H727 H 0.98722 0.23948 0.98916 0.0
H728 H 0.94877 0.22167 0.03705 0.0
H729 H 0.94057 0.20218 0.97059 0.0
H730 H 0.82465 0.17255 0.10951 0.0
H731 H 0.80716 0.12408 0.95089 0.0
H732 H 0.88303 0.2637 0.07818 0.0
H733 H 0.9174 0.24929 0.08802 0.0
H734 H 0.87653 0.23108 0.13159 0.0
H735 H 0.86117 0.20338 0.88007 0.0
H736 H 0.85055 0.15492 0.8798 0.0
H737 H 0.8974 0.19265 0.89671 0.0
loop_
_geom_bond_atom_site_label_1
_geom_bond_atom_site_label_2
_geom_bond_distance
_geom_bond_site_symmetry_2
_ccdc_geom_bond_type
Co0 O2 2.143 . S
Co0 O8 2.074 1_545 S
Co0 O11 2.093 1_554 S
Co0 O24 2.097 . S
Co0 N41 2.151 1_544 S
Co0 N49 2.214 1_545 S
Co1 O2 2.160 . S
Co1 O7 2.058 . S
Co1 O17 2.057 . S
Co1 O32 2.037 . S
Co1 N36 2.145 . S
Co1 N57 2.257 . S
O2 Co0 2.143 . S
O2 Co1 2.160 . S
C3 O4 1.278 . S
C3 O11 1.224 . S
O4 C3 1.278 . S
C5 O6 1.245 1_554 S
C5 O17 1.232 . S
O6 C5 1.245 1_556 S
O7 Co1 2.058 . S
O7 C33 1.269 . S
O8 Co0 2.074 1_565 S
O8 C33 1.257 1_565 S
H9 C34 0.930 . S
H10 C40 0.930 . S
O11 Co0 2.093 1_556 S
O11 C3 1.224 . S
H12 C44 0.929 . S
H13 C46 0.930 1_556 S
H14 C47 0.930 . S
H15 C45 0.929 . S
H16 C48 0.928 1_556 S
O17 Co1 2.057 . S
O17 C5 1.232 . S
H18 C37 0.929 . S
H19 C38 0.929 . S
H20 C50 0.931 . S
H21 C42 0.929 1_545 S
H22 C51 0.930 . S
H23 C43 0.931 . S
O24 Co0 2.097 . S
O24 C52 1.214 . S
H25 C53 0.929 . S
H26 C54 0.929 . S
H27 C55 0.930 . S
H28 C56 0.929 . S
H29 C58 0.930 . S
H30 C35 0.930 . S
H31 C39 0.930 . S
O32 Co1 2.037 . S
O32 C52 1.234 . S
C33 O7 1.269 . S
C33 O8 1.257 1_545 S
C34 H9 0.930 . S
C34 C37 1.388 . S
C34 C39 1.418 . S
C35 H30 0.930 . S
C35 C38 1.404 . S
C35 C39 1.353 . S
N36 Co1 2.145 . S
N36 C37 1.397 . S
N36 C38 1.334 . S
C37 H18 0.929 . S
C37 C34 1.388 . S
C37 N36 1.397 . S
C38 H19 0.929 . S
C38 C35 1.404 . S
C38 N36 1.334 . S
C39 H31 0.930 . S
C39 C34 1.418 . S
C39 C35 1.353 . S
C40 H10 0.930 . S
C40 N41 1.330 1_545 S
C40 C42 1.446 1_545 S
N41 Co0 2.151 1_566 S
N41 C40 1.330 1_565 S
N41 C45 1.418 . S
C42 H21 0.929 1_565 S
C42 C40 1.446 1_565 S
C42 C43 1.332 . S
C43 H23 0.931 . S
C43 C42 1.332 . S
C43 C44 1.267 . S
C44 H12 0.929 . S
C44 C43 1.267 . S
C44 C45 1.251 . S
C45 H15 0.929 . S
C45 N41 1.418 . S
C45 C44 1.251 . S
C46 H13 0.930 1_554 S
C46 C48 1.406 . S
C46 C51 1.261 . S
C47 H14 0.930 . S
C47 N49 1.325 . S
C47 C50 1.357 . S
C48 H16 0.928 1_554 S
C48 C46 1.406 . S
C48 N49 1.261 . S
N49 Co0 2.214 1_565 S
N49 C47 1.325 . S
N49 C48 1.261 . S
C50 H20 0.931 . S
C50 C47 1.357 . S
C50 C51 1.312 . S
C51 H22 0.930 . S
C51 C46 1.261 . S
C51 C50 1.312 . S
C52 O24 1.214 . S
C52 O32 1.234 . S
C53 H25 0.929 . S
C53 C56 1.391 . S
C53 C58 1.391 . S
C54 H26 0.929 . S
C54 C55 1.390 . S
C54 N57 1.391 . S
C55 H27 0.930 . S
C55 C54 1.390 . S
C55 C56 1.392 . S
C56 H28 0.929 . S
C56 C53 1.391 . S
C56 C55 1.392 . S
N57 Co1 2.257 . S
N57 C54 1.391 . S
N57 C58 1.388 . S
C58 H29 0.930 . S
C58 C53 1.391 . S
C58 N57 1.388 . S
Co59 O61 2.143 . S
Co59 O67 2.074 . S
Co59 O70 2.093 . S
Co59 O83 2.097 . S
Co59 N100 2.151 . S
Co59 N108 2.214 . S
Co60 O61 2.160 . S
Co60 O66 2.058 . S
Co60 O76 2.057 . S
Co60 O91 2.037 . S
Co60 N95 2.145 . S
Co60 N116 2.257 . S
O61 Co59 2.143 . S
O61 Co60 2.160 . S
C62 O63 1.278 . S
C62 O70 1.224 . S
O63 C62 1.278 . S
C64 O65 1.245 . S
C64 O76 1.232 . S
O65 C64 1.245 . S
O66 Co60 2.058 . S
O66 C92 1.269 . S
O67 Co59 2.074 . S
O67 C92 1.257 . S
H68 C93 0.930 . S
H69 C99 0.930 . S
O70 Co59 2.093 . S
O70 C62 1.224 . S
H71 C103 0.929 . S
H72 C105 0.930 . S
H73 C106 0.930 . S
H74 C104 0.929 . S
H75 C107 0.928 . S
O76 Co60 2.057 . S
O76 C64 1.232 . S
H77 C96 0.929 . S
H78 C97 0.929 . S
H79 C109 0.931 . S
H80 C101 0.929 . S
H81 C110 0.930 . S
H82 C102 0.931 . S
O83 Co59 2.097 . S
O83 C111 1.214 . S
H84 C112 0.929 . S
H85 C113 0.929 . S
H86 C114 0.930 . S
H87 C115 0.929 . S
H88 C117 0.930 . S
H89 C94 0.930 . S
H90 C98 0.930 . S
O91 Co60 2.037 . S
O91 C111 1.234 . S
C92 O66 1.269 . S
C92 O67 1.257 . S
C93 H68 0.930 . S
C93 C96 1.388 . S
C93 C98 1.418 . S
C94 H89 0.930 . S
C94 C97 1.404 . S
C94 C98 1.353 . S
N95 Co60 2.145 . S
N95 C96 1.397 . S
N95 C97 1.334 . S
C96 H77 0.929 . S
C96 C93 1.388 . S
C96 N95 1.397 . S
C97 H78 0.929 . S
C97 C94 1.404 . S
C97 N95 1.334 . S
C98 H90 0.930 . S
C98 C93 1.418 . S
C98 C94 1.353 . S
C99 H69 0.930 . S
C99 N100 1.330 . S
C99 C101 1.446 . S
N100 Co59 2.151 . S
N100 C99 1.330 . S
N100 C104 1.418 . S
C101 H80 0.929 . S
C101 C99 1.446 . S
C101 C102 1.332 . S
C102 H82 0.931 . S
C102 C101 1.332 . S
C102 C103 1.267 . S
C103 H71 0.929 . S
C103 C102 1.267 . S
C103 C104 1.251 . S
C104 H74 0.929 . S
C104 N100 1.418 . S
C104 C103 1.251 . S
C105 H72 0.930 . S
C105 C107 1.406 . S
C105 C110 1.261 . S
C106 H73 0.930 . S
C106 N108 1.325 . S
C106 C109 1.357 . S
C107 H75 0.928 . S
C107 C105 1.406 . S
C107 N108 1.261 . S
N108 Co59 2.214 . S
N108 C106 1.325 . S
N108 C107 1.261 . S
C109 H79 0.931 . S
C109 C106 1.357 . S
C109 C110 1.312 . S
C110 H81 0.930 . S
C110 C105 1.261 . S
C110 C109 1.312 . S
C111 O83 1.214 . S
C111 O91 1.234 . S
C112 H84 0.929 . S
C112 C115 1.391 . S
C112 C117 1.391 . S
C113 H85 0.929 . S
C113 C114 1.390 . S
C113 N116 1.391 . S
C114 H86 0.930 . S
C114 C113 1.390 . S
C114 C115 1.392 . S
C115 H87 0.929 . S
C115 C112 1.391 . S
C115 C114 1.392 . S
N116 Co60 2.257 . S
N116 C113 1.391 . S
N116 C117 1.388 . S
C117 H88 0.930 . S
C117 C112 1.391 . S
C117 N116 1.388 . S
Co118 O120 2.143 . S
Co118 O126 2.074 . S
Co118 O129 2.093 . S
Co118 O142 2.097 . S
Co118 N159 2.151 . S
Co118 N167 2.214 . S
Co119 O120 2.160 1_655 S
Co119 O125 2.058 1_655 S
Co119 O135 2.057 . S
Co119 O150 2.037 1_655 S
Co119 N154 2.145 . S
Co119 N175 2.257 . S
O120 Co118 2.143 . S
O120 Co119 2.160 1_455 S
C121 O122 1.278 1_455 S
C121 O129 1.224 . S
O122 C121 1.278 1_655 S
C123 O124 1.245 . S
C123 O135 1.232 . S
O124 C123 1.245 . S
O125 Co119 2.058 1_455 S
O125 C151 1.269 . S
O126 Co118 2.074 . S
O126 C151 1.257 . S
H127 C152 0.930 . S
H128 C158 0.930 . S
O129 Co118 2.093 . S
O129 C121 1.224 . S
H130 C162 0.929 . S
H131 C164 0.930 . S
H132 C165 0.930 . S
H133 C163 0.929 . S
H134 C166 0.928 . S
O135 Co119 2.057 . S
O135 C123 1.232 . S
H136 C155 0.929 1_455 S
H137 C156 0.929 . S
H138 C168 0.931 . S
H139 C160 0.929 . S
H140 C169 0.930 . S
H141 C161 0.931 . S
O142 Co118 2.097 . S
O142 C170 1.214 . S
H143 C171 0.929 . S
H144 C172 0.929 . S
H145 C173 0.930 . S
H146 C174 0.929 . S
H147 C176 0.930 . S
H148 C153 0.930 . S
H149 C157 0.930 . S
O150 Co119 2.037 1_455 S
O150 C170 1.234 . S
C151 O125 1.269 . S
C151 O126 1.257 . S
C152 H127 0.930 . S
C152 C155 1.388 . S
C152 C157 1.418 . S
C153 H148 0.930 . S
C153 C156 1.404 . S
C153 C157 1.353 . S
N154 Co119 2.145 . S
N154 C155 1.397 . S
N154 C156 1.334 . S
C155 H136 0.929 1_655 S
C155 C152 1.388 . S
C155 N154 1.397 . S
C156 H137 0.929 . S
C156 C153 1.404 . S
C156 N154 1.334 . S
C157 H149 0.930 . S
C157 C152 1.418 . S
C157 C153 1.353 . S
C158 H128 0.930 . S
C158 N159 1.330 . S
C158 C160 1.446 . S
N159 Co118 2.151 . S
N159 C158 1.330 . S
N159 C163 1.418 . S
C160 H139 0.929 . S
C160 C158 1.446 . S
C160 C161 1.332 . S
C161 H141 0.931 . S
C161 C160 1.332 . S
C161 C162 1.267 . S
C162 H130 0.929 . S
C162 C161 1.267 . S
C162 C163 1.251 . S
C163 H133 0.929 . S
C163 N159 1.418 . S
C163 C162 1.251 . S
C164 H131 0.930 . S
C164 C166 1.406 . S
C164 C169 1.261 . S
C165 H132 0.930 . S
C165 N167 1.325 . S
C165 C168 1.357 . S
C166 H134 0.928 . S
C166 C164 1.406 . S
C166 N167 1.261 . S
N167 Co118 2.214 . S
N167 C165 1.325 . S
N167 C166 1.261 . S
C168 H138 0.931 . S
C168 C165 1.357 . S
C168 C169 1.312 . S
C169 H140 0.930 . S
C169 C164 1.261 . S
C169 C168 1.312 . S
C170 O142 1.214 . S
C170 O150 1.234 . S
C171 H143 0.929 . S
C171 C174 1.391 . S
C171 C176 1.391 . S
C172 H144 0.929 . S
C172 C173 1.390 . S
C172 N175 1.391 . S
C173 H145 0.930 . S
C173 C172 1.390 . S
C173 C174 1.392 . S
C174 H146 0.929 . S
C174 C171 1.391 . S
C174 C173 1.392 . S
N175 Co119 2.257 . S
N175 C172 1.391 . S
N175 C176 1.388 . S
C176 H147 0.930 . S
C176 C171 1.391 . S
C176 N175 1.388 . S
Co177 O179 2.143 . S
Co177 O185 2.074 . S
Co177 O188 2.093 . S
Co177 O201 2.097 . S
Co177 N218 2.151 . S
Co177 N226 2.214 . S
Co178 O179 2.161 . S
Co178 O184 2.069 . S
Co178 O194 2.055 1_545 S
Co178 O209 2.037 . S
Co178 N213 2.143 1_545 S
Co178 N234 2.247 1_545 S
O179 Co177 2.143 . S
O179 Co178 2.161 . S
C180 O181 1.278 1_545 S
C180 O188 1.224 . S
O181 C180 1.278 1_565 S
C182 O183 1.245 . S
C182 O194 1.232 . S
O183 C182 1.245 . S
O184 Co178 2.069 . S
O184 C210 1.269 . S
O185 Co177 2.074 . S
O185 C210 1.257 . S
H186 C211 0.930 . S
H187 C217 0.930 . S
O188 Co177 2.093 . S
O188 C180 1.224 . S
H189 C221 0.929 . S
H190 C223 0.930 . S
H191 C224 0.930 . S
H192 C222 0.929 . S
H193 C225 0.928 . S
O194 Co178 2.055 1_565 S
O194 C182 1.232 . S
H195 C214 0.929 1_545 S
H196 C215 0.929 . S
H197 C227 0.931 . S
H198 C219 0.929 . S
H199 C228 0.930 . S
H200 C220 0.931 . S
O201 Co177 2.097 . S
O201 C229 1.214 . S
H202 C230 0.929 . S
H203 C231 0.929 . S
H204 C232 0.930 . S
H205 C233 0.929 . S
H206 C235 0.930 . S
H207 C212 0.930 . S
H208 C216 0.930 . S
O209 Co178 2.037 . S
O209 C229 1.234 . S
C210 O184 1.269 . S
C210 O185 1.257 . S
C211 H186 0.930 . S
C211 C214 1.388 . S
C211 C216 1.418 . S
C212 H207 0.930 . S
C212 C215 1.404 . S
C212 C216 1.353 . S
N213 Co178 2.143 1_565 S
N213 C214 1.397 . S
N213 C215 1.334 . S
C214 H195 0.929 1_565 S
C214 C211 1.388 . S
C214 N213 1.397 . S
C215 H196 0.929 . S
C215 C212 1.404 . S
C215 N213 1.334 . S
C216 H208 0.930 . S
C216 C211 1.418 . S
C216 C212 1.353 . S
C217 H187 0.930 . S
C217 N218 1.330 . S
C217 C219 1.446 . S
N218 Co177 2.151 . S
N218 C217 1.330 . S
N218 C222 1.418 . S
C219 H198 0.929 . S
C219 C217 1.446 . S
C219 C220 1.332 . S
C220 H200 0.931 . S
C220 C219 1.332 . S
C220 C221 1.267 . S
C221 H189 0.929 . S
C221 C220 1.267 . S
C221 C222 1.251 . S
C222 H192 0.929 . S
C222 N218 1.418 . S
C222 C221 1.251 . S
C223 H190 0.930 . S
C223 C225 1.406 . S
C223 C228 1.261 . S
C224 H191 0.930 . S
C224 N226 1.325 . S
C224 C227 1.357 . S
C225 H193 0.928 . S
C225 C223 1.406 . S
C225 N226 1.261 . S
N226 Co177 2.214 . S
N226 C224 1.325 . S
N226 C225 1.261 . S
C227 H197 0.931 . S
C227 C224 1.357 . S
C227 C228 1.312 . S
C228 H199 0.930 . S
C228 C223 1.261 . S
C228 C227 1.312 . S
C229 O201 1.214 . S
C229 O209 1.234 . S
C230 H202 0.929 . S
C230 C233 1.391 . S
C230 C235 1.391 . S
C231 H203 0.929 . S
C231 C232 1.390 . S
C231 N234 1.391 . S
C232 H204 0.930 . S
C232 C231 1.390 . S
C232 C233 1.392 . S
C233 H205 0.929 . S
C233 C230 1.391 . S
C233 C232 1.392 . S
N234 Co178 2.247 1_565 S
N234 C231 1.391 . S
N234 C235 1.388 . S
C235 H206 0.930 . S
C235 C230 1.391 . S
C235 N234 1.388 . S
Co236 O238 2.143 . S
Co236 O244 2.074 . S
Co236 O247 2.093 . S
Co236 O260 2.097 . S
Co236 N277 2.151 . S
Co236 N285 2.214 . S
Co237 O238 2.160 . S
Co237 O243 2.058 . S
Co237 O253 2.057 . S
Co237 O268 2.037 . S
Co237 N272 2.145 . S
Co237 N293 2.257 . S
O238 Co236 2.143 . S
O238 Co237 2.160 . S
C239 O240 1.278 . S
C239 O247 1.224 . S
O240 C239 1.278 . S
C241 O242 1.245 . S
C241 O253 1.232 . S
O242 C241 1.245 . S
O243 Co237 2.058 . S
O243 C269 1.269 . S
O244 Co236 2.074 . S
O244 C269 1.257 . S
H245 C270 0.930 . S
H246 C276 0.930 . S
O247 Co236 2.093 . S
O247 C239 1.224 . S
H248 C280 0.929 . S
H249 C282 0.930 . S
H250 C283 0.930 . S
H251 C281 0.929 . S
H252 C284 0.928 . S
O253 Co237 2.057 . S
O253 C241 1.232 . S
H254 C273 0.929 . S
H255 C274 0.929 . S
H256 C286 0.931 . S
H257 C278 0.929 . S
H258 C287 0.930 . S
H259 C279 0.931 . S
O260 Co236 2.097 . S
O260 C288 1.214 . S
H261 C289 0.929 . S
H262 C290 0.929 . S
H263 C291 0.930 . S
H264 C292 0.929 . S
H265 C294 0.930 . S
H266 C271 0.930 . S
H267 C275 0.930 . S
O268 Co237 2.037 . S
O268 C288 1.234 . S
C269 O243 1.269 . S
C269 O244 1.257 . S
C270 H245 0.930 . S
C270 C273 1.388 . S
C270 C275 1.418 . S
C271 H266 0.930 . S
C271 C274 1.404 . S
C271 C275 1.353 . S
N272 Co237 2.145 . S
N272 C273 1.397 . S
N272 C274 1.334 . S
C273 H254 0.929 . S
C273 C270 1.388 . S
C273 N272 1.397 . S
C274 H255 0.929 . S
C274 C271 1.404 . S
C274 N272 1.334 . S
C275 H267 0.930 . S
C275 C270 1.418 . S
C275 C271 1.353 . S
C276 H246 0.930 . S
C276 N277 1.330 . S
C276 C278 1.446 . S
N277 Co236 2.151 . S
N277 C276 1.330 . S
N277 C281 1.418 . S
C278 H257 0.929 . S
C278 C276 1.446 . S
C278 C279 1.332 . S
C279 H259 0.931 . S
C279 C278 1.332 . S
C279 C280 1.267 . S
C280 H248 0.929 . S
C280 C279 1.267 . S
C280 C281 1.251 . S
C281 H251 0.929 . S
C281 N277 1.418 . S
C281 C280 1.251 . S
C282 H249 0.930 . S
C282 C284 1.406 . S
C282 C287 1.261 . S
C283 H250 0.930 . S
C283 N285 1.325 . S
C283 C286 1.357 . S
C284 H252 0.928 . S
C284 C282 1.406 . S
C284 N285 1.261 . S
N285 Co236 2.214 . S
N285 C283 1.325 . S
N285 C284 1.261 . S
C286 H256 0.931 . S
C286 C283 1.357 . S
C286 C287 1.312 . S
C287 H258 0.930 . S
C287 C282 1.261 . S
C287 C286 1.312 . S
C288 O260 1.214 . S
C288 O268 1.234 . S
C289 H261 0.929 . S
C289 C292 1.391 . S
C289 C294 1.391 . S
C290 H262 0.929 . S
C290 C291 1.390 . S
C290 N293 1.391 . S
C291 H263 0.930 . S
C291 C290 1.390 . S
C291 C292 1.392 . S
C292 H264 0.929 . S
C292 C289 1.391 . S
C292 C291 1.392 . S
N293 Co237 2.257 . S
N293 C290 1.391 . S
N293 C294 1.388 . S
C294 H265 0.930 . S
C294 C289 1.391 . S
C294 N293 1.388 . S
Co295 O297 2.143 . S
Co295 O303 2.074 1_455 S
Co295 O306 2.093 . S
Co295 O319 2.097 . S
Co295 N336 2.151 1_455 S
Co295 N344 2.214 1_455 S
Co296 O297 2.160 . S
Co296 O302 2.058 . S
Co296 O312 2.057 . S
Co296 O327 2.037 . S
Co296 N331 2.145 1_556 S
Co296 N352 2.257 . S
O297 Co295 2.143 . S
O297 Co296 2.160 . S
C298 O299 1.278 . S
C298 O306 1.224 . S
O299 C298 1.278 . S
C300 O301 1.245 . S
C300 O312 1.232 . S
O301 C300 1.245 . S
O302 Co296 2.058 . S
O302 C328 1.269 . S
O303 Co295 2.074 1_655 S
O303 C328 1.257 1_655 S
H304 C329 0.930 . S
H305 C335 0.930 . S
O306 Co295 2.093 . S
O306 C298 1.224 . S
H307 C339 0.929 . S
H308 C341 0.930 . S
H309 C342 0.930 . S
H310 C340 0.929 . S
H311 C343 0.928 . S
O312 Co296 2.057 . S
O312 C300 1.232 . S
H313 C332 0.929 . S
H314 C333 0.929 1_556 S
H315 C345 0.931 . S
H316 C337 0.929 1_455 S
H317 C346 0.930 . S
H318 C338 0.931 . S
O319 Co295 2.097 . S
O319 C347 1.214 . S
H320 C348 0.929 . S
H321 C349 0.929 1_554 S
H322 C350 0.930 1_554 S
H323 C351 0.929 . S
H324 C353 0.930 . S
H325 C330 0.930 . S
H326 C334 0.930 . S
O327 Co296 2.037 . S
O327 C347 1.234 . S
C328 O302 1.269 . S
C328 O303 1.257 1_455 S
C329 H304 0.930 . S
C329 C332 1.388 . S
C329 C334 1.418 . S
C330 H325 0.930 . S
C330 C333 1.404 . S
C330 C334 1.353 . S
N331 Co296 2.145 1_554 S
N331 C332 1.397 . S
N331 C333 1.334 . S
C332 H313 0.929 . S
C332 C329 1.388 . S
C332 N331 1.397 . S
C333 H314 0.929 1_554 S
C333 C330 1.404 . S
C333 N331 1.334 . S
C334 H326 0.930 . S
C334 C329 1.418 . S
C334 C330 1.353 . S
C335 H305 0.930 . S
C335 N336 1.330 1_455 S
C335 C337 1.446 1_455 S
N336 Co295 2.151 1_655 S
N336 C335 1.330 1_655 S
N336 C340 1.418 . S
C337 H316 0.929 1_655 S
C337 C335 1.446 1_655 S
C337 C338 1.332 . S
C338 H318 0.931 . S
C338 C337 1.332 . S
C338 C339 1.267 . S
C339 H307 0.929 . S
C339 C338 1.267 . S
C339 C340 1.251 . S
C340 H310 0.929 . S
C340 N336 1.418 . S
C340 C339 1.251 . S
C341 H308 0.930 . S
C341 C343 1.406 . S
C341 C346 1.261 . S
C342 H309 0.930 . S
C342 N344 1.325 . S
C342 C345 1.357 . S
C343 H311 0.928 . S
C343 C341 1.406 . S
C343 N344 1.261 . S
N344 Co295 2.214 1_655 S
N344 C342 1.325 . S
N344 C343 1.261 . S
C345 H315 0.931 . S
C345 C342 1.357 . S
C345 C346 1.312 . S
C346 H317 0.930 . S
C346 C341 1.261 . S
C346 C345 1.312 . S
C347 O319 1.214 . S
C347 O327 1.234 . S
C348 H320 0.929 . S
C348 C351 1.391 . S
C348 C353 1.391 . S
C349 H321 0.929 1_556 S
C349 C350 1.390 . S
C349 N352 1.391 . S
C350 H322 0.930 1_556 S
C350 C349 1.390 . S
C350 C351 1.392 . S
C351 H323 0.929 . S
C351 C348 1.391 . S
C351 C350 1.392 . S
N352 Co296 2.257 . S
N352 C349 1.391 . S
N352 C353 1.388 . S
C353 H324 0.930 . S
C353 C348 1.391 . S
C353 N352 1.388 . S
C354 C355 1.391 . S
C354 C356 1.394 . S
C354 H370 0.931 . S
C355 C354 1.391 . S
C355 C359 1.376 . S
C356 C354 1.394 . S
C356 C357 1.369 . S
C356 C360 1.531 . S
C357 C356 1.369 . S
C357 C358 1.410 . S
C357 C365 1.503 . S
C358 C357 1.410 . S
C358 C359 1.392 . S
C358 C361 1.511 . S
C359 C355 1.376 . S
C359 C358 1.392 . S
C359 H371 0.929 . S
C360 C356 1.531 . S
C360 H372 0.960 1_545 S
C360 H373 0.962 . S
C360 H374 0.960 1_545 S
C361 C358 1.511 . S
C361 H375 0.961 . S
C361 H376 0.961 . S
C361 H377 0.961 . S
C362 C363 1.370 . S
C362 C364 1.363 . S
C362 H378 0.931 . S
C363 C362 1.370 . S
C363 C367 1.408 1_545 S
C364 C362 1.363 . S
C364 C365 1.370 . S
C364 C368 1.524 . S
C365 C357 1.503 . S
C365 C364 1.370 . S
C365 C366 1.403 1_545 S
C366 C365 1.403 1_565 S
C366 C367 1.404 . S
C366 C369 1.539 . S
C367 C363 1.408 1_565 S
C367 C366 1.404 . S
C367 H379 0.930 . S
C368 C364 1.524 . S
C368 H380 0.956 . S
C368 H381 0.961 . S
C368 H382 0.961 . S
C369 C366 1.539 . S
C369 H383 0.958 . S
C369 H384 0.961 . S
C369 H385 0.960 . S
H370 C354 0.931 . S
H371 C359 0.929 . S
H372 C360 0.960 1_565 S
H373 C360 0.962 . S
H374 C360 0.960 1_565 S
H375 C361 0.961 . S
H376 C361 0.961 . S
H377 C361 0.961 . S
H378 C362 0.931 . S
H379 C367 0.930 . S
H380 C368 0.956 . S
H381 C368 0.961 . S
H382 C368 0.961 . S
H383 C369 0.958 . S
H384 C369 0.961 . S
H385 C369 0.960 . S
C386 C387 1.391 . S
C386 C388 1.394 . S
C386 H402 0.931 . S
C387 C386 1.391 . S
C387 C391 1.376 . S
C388 C386 1.394 . S
C388 C389 1.369 . S
C388 C392 1.531 . S
C389 C388 1.369 . S
C389 C390 1.410 . S
C389 C397 1.503 . S
C390 C389 1.410 . S
C390 C391 1.392 . S
C390 C393 1.511 . S
C391 C387 1.376 . S
C391 C390 1.392 . S
C391 H403 0.929 . S
C392 C388 1.531 . S
C392 H404 0.960 . S
C392 H405 0.962 . S
C392 H406 0.960 . S
C393 C390 1.511 . S
C393 H407 0.961 . S
C393 H408 0.961 . S
C393 H409 0.961 . S
C394 C395 1.370 . S
C394 C396 1.363 . S
C394 H410 0.931 . S
C395 C394 1.370 . S
C395 C399 1.408 . S
C396 C394 1.363 . S
C396 C397 1.370 . S
C396 C400 1.524 . S
C397 C389 1.503 . S
C397 C396 1.370 . S
C397 C398 1.403 . S
C398 C397 1.403 . S
C398 C399 1.404 . S
C398 C401 1.539 . S
C399 C395 1.408 . S
C399 C398 1.404 . S
C399 H411 0.930 . S
C400 C396 1.524 . S
C400 H412 0.956 . S
C400 H413 0.961 . S
C400 H414 0.961 . S
C401 C398 1.539 . S
C401 H415 0.958 . S
C401 H416 0.961 . S
C401 H417 0.960 . S
H402 C386 0.931 . S
H403 C391 0.929 . S
H404 C392 0.960 . S
H405 C392 0.962 . S
H406 C392 0.960 . S
H407 C393 0.961 . S
H408 C393 0.961 . S
H409 C393 0.961 . S
H410 C394 0.931 . S
H411 C399 0.930 . S
H412 C400 0.956 . S
H413 C400 0.961 . S
H414 C400 0.961 . S
H415 C401 0.958 . S
H416 C401 0.961 . S
H417 C401 0.960 . S
C418 C419 1.391 . S
C418 C420 1.394 . S
C418 H434 0.931 . S
C419 C418 1.391 . S
C419 C423 1.376 . S
C420 C418 1.394 . S
C420 C421 1.369 . S
C420 C424 1.531 . S
C421 C420 1.369 . S
C421 C422 1.410 . S
C421 C429 1.503 . S
C422 C421 1.410 . S
C422 C423 1.392 . S
C422 C425 1.511 . S
C423 C419 1.376 . S
C423 C422 1.392 . S
C423 H435 0.929 . S
C424 C420 1.531 . S
C424 H436 0.960 . S
C424 H437 0.951 1_455 S
C424 H438 0.960 . S
C425 C422 1.511 . S
C425 H439 0.961 . S
C425 H440 0.961 . S
C425 H441 0.961 . S
C426 C427 1.370 . S
C426 C428 1.363 . S
C426 H442 0.931 . S
C427 C426 1.370 . S
C427 C431 1.408 . S
C428 C426 1.363 . S
C428 C429 1.370 . S
C428 C432 1.521 1_455 S
C429 C421 1.503 . S
C429 C428 1.370 . S
C429 C430 1.403 . S
C430 C429 1.403 . S
C430 C431 1.404 . S
C430 C433 1.539 . S
C431 C427 1.408 . S
C431 C430 1.404 . S
C431 H443 0.930 . S
C432 C428 1.521 1_655 S
C432 H444 0.965 . S
C432 H445 0.946 1_655 S
C432 H446 0.970 . S
C433 C430 1.539 . S
C433 H447 0.958 . S
C433 H448 0.961 . S
C433 H449 0.960 . S
H434 C418 0.931 . S
H435 C423 0.929 . S
H436 C424 0.960 . S
H437 C424 0.951 1_655 S
H438 C424 0.960 . S
H439 C425 0.961 . S
H440 C425 0.961 . S
H441 C425 0.961 . S
H442 C426 0.931 . S
H443 C431 0.930 . S
H444 C432 0.965 . S
H445 C432 0.946 1_455 S
H446 C432 0.970 . S
H447 C433 0.958 . S
H448 C433 0.961 . S
H449 C433 0.960 . S
C450 C451 1.391 . S
C450 C452 1.394 . S
C450 H466 0.931 . S
C451 C450 1.391 . S
C451 C455 1.376 . S
C452 C450 1.394 . S
C452 C453 1.369 . S
C452 C456 1.531 . S
C453 C452 1.369 . S
C453 C454 1.410 . S
C453 C461 1.503 . S
C454 C453 1.410 . S
C454 C455 1.392 . S
C454 C457 1.511 . S
C455 C451 1.376 . S
C455 C454 1.392 . S
C455 H467 0.929 . S
C456 C452 1.531 . S
C456 H468 0.960 . S
C456 H469 0.962 . S
C456 H470 0.960 . S
C457 C454 1.511 . S
C457 H471 0.961 . S
C457 H472 0.961 . S
C457 H473 0.961 . S
C458 C459 1.370 . S
C458 C460 1.363 . S
C458 H474 0.931 1_545 S
C459 C458 1.370 . S
C459 C463 1.408 . S
C460 C458 1.363 . S
C460 C461 1.370 . S
C460 C464 1.524 1_545 S
C461 C453 1.503 . S
C461 C460 1.370 . S
C461 C462 1.403 . S
C462 C461 1.403 . S
C462 C463 1.404 . S
C462 C465 1.539 . S
C463 C459 1.408 . S
C463 C462 1.404 . S
C463 H475 0.930 . S
C464 C460 1.524 1_565 S
C464 H476 0.956 . S
C464 H477 0.961 . S
C464 H478 0.961 . S
C465 C462 1.539 . S
C465 H479 0.958 . S
C465 H480 0.961 . S
C465 H481 0.960 . S
H466 C450 0.931 . S
H467 C455 0.929 . S
H468 C456 0.960 . S
H469 C456 0.962 . S
H470 C456 0.960 . S
H471 C457 0.961 . S
H472 C457 0.961 . S
H473 C457 0.961 . S
H474 C458 0.931 1_565 S
H475 C463 0.930 . S
H476 C464 0.956 . S
H477 C464 0.961 . S
H478 C464 0.961 . S
H479 C465 0.958 . S
H480 C465 0.961 . S
H481 C465 0.960 . S
C482 C483 1.391 . S
C482 C484 1.394 . S
C482 H498 0.931 . S
C483 C482 1.391 . S
C483 C487 1.376 . S
C484 C482 1.394 . S
C484 C485 1.369 1_554 S
C484 C488 1.531 . S
C485 C484 1.369 1_556 S
C485 C486 1.410 . S
C485 C493 1.503 . S
C486 C485 1.410 . S
C486 C487 1.392 1_556 S
C486 C489 1.511 . S
C487 C483 1.376 . S
C487 C486 1.392 1_554 S
C487 H499 0.929 . S
C488 C484 1.531 . S
C488 H500 0.960 1_554 S
C488 H501 0.962 . S
C488 H502 0.960 . S
C489 C486 1.511 . S
C489 H503 0.961 . S
C489 H504 0.961 . S
C489 H505 0.961 . S
C490 C491 1.370 . S
C490 C492 1.363 . S
C490 H506 0.931 . S
C491 C490 1.370 . S
C491 C495 1.408 . S
C492 C490 1.363 . S
C492 C493 1.370 . S
C492 C496 1.524 1_556 S
C493 C485 1.503 . S
C493 C492 1.370 . S
C493 C494 1.403 . S
C494 C493 1.403 . S
C494 C495 1.404 . S
C494 C497 1.539 . S
C495 C491 1.408 . S
C495 C494 1.404 . S
C495 H507 0.930 . S
C496 C492 1.524 1_554 S
C496 H508 0.956 . S
C496 H509 0.961 . S
C496 H510 0.961 . S
C497 C494 1.539 . S
C497 H511 0.958 . S
C497 H512 0.961 . S
C497 H513 0.960 . S
H498 C482 0.931 . S
H499 C487 0.929 . S
H500 C488 0.960 1_556 S
H501 C488 0.962 . S
H502 C488 0.960 . S
H503 C489 0.961 . S
H504 C489 0.961 . S
H505 C489 0.961 . S
H506 C490 0.931 . S
H507 C495 0.930 . S
H508 C496 0.956 . S
H509 C496 0.961 . S
H510 C496 0.961 . S
H511 C497 0.958 . S
H512 C497 0.961 . S
H513 C497 0.960 . S
C514 C515 1.391 . S
C514 C516 1.394 . S
C514 H530 0.931 . S
C515 C514 1.391 . S
C515 C519 1.352 1_455 S
C516 C514 1.394 . S
C516 C517 1.369 . S
C516 C520 1.531 . S
C517 C516 1.369 . S
C517 C518 1.410 1_455 S
C517 C525 1.503 . S
C518 C517 1.410 1_655 S
C518 C519 1.406 . S
C518 C521 1.511 . S
C519 C515 1.352 1_655 S
C519 C518 1.406 . S
C519 H531 0.940 . S
C520 C516 1.531 . S
C520 H532 0.960 . S
C520 H533 0.962 . S
C520 H534 0.960 . S
C521 C518 1.511 . S
C521 H535 0.961 . S
C521 H536 0.961 . S
C521 H537 0.961 . S
C522 C523 1.370 . S
C522 C524 1.363 . S
C522 H538 0.931 . S
C523 C522 1.370 . S
C523 C527 1.408 . S
C524 C522 1.363 . S
C524 C525 1.370 . S
C524 C528 1.524 . S
C525 C517 1.503 . S
C525 C524 1.370 . S
C525 C526 1.403 . S
C526 C525 1.403 . S
C526 C527 1.404 . S
C526 C529 1.539 1_455 S
C527 C523 1.408 . S
C527 C526 1.404 . S
C527 H539 0.916 1_455 S
C528 C524 1.524 . S
C528 H540 0.956 . S
C528 H541 0.961 . S
C528 H542 0.961 . S
C529 C526 1.539 1_655 S
C529 H543 0.958 1_655 S
C529 H544 0.961 . S
C529 H545 0.960 . S
H530 C514 0.931 . S
H531 C519 0.940 . S
H532 C520 0.960 . S
H533 C520 0.962 . S
H534 C520 0.960 . S
H535 C521 0.961 . S
H536 C521 0.961 . S
H537 C521 0.961 . S
H538 C522 0.931 . S
H539 C527 0.916 1_655 S
H540 C528 0.956 . S
H541 C528 0.961 . S
H542 C528 0.961 . S
H543 C529 0.958 1_455 S
H544 C529 0.961 . S
H545 C529 0.960 . S
C546 C547 1.391 . S
C546 C548 1.394 . S
C546 H562 0.931 . S
C547 C546 1.391 . S
C547 C551 1.376 . S
C548 C546 1.394 . S
C548 C549 1.369 . S
C548 C552 1.531 . S
C549 C548 1.369 . S
C549 C550 1.410 . S
C549 C557 1.503 . S
C550 C549 1.410 . S
C550 C551 1.392 . S
C550 C553 1.511 . S
C551 C547 1.376 . S
C551 C550 1.392 . S
C551 H563 0.929 . S
C552 C548 1.531 . S
C552 H564 0.960 . S
C552 H565 0.962 . S
C552 H566 0.960 . S
C553 C550 1.511 . S
C553 H567 0.961 . S
C553 H568 0.961 . S
C553 H569 0.961 . S
C554 C555 1.370 . S
C554 C556 1.363 . S
C554 H570 0.931 . S
C555 C554 1.370 . S
C555 C559 1.408 . S
C556 C554 1.363 . S
C556 C557 1.370 . S
C556 C560 1.524 . S
C557 C549 1.503 . S
C557 C556 1.370 . S
C557 C558 1.403 . S
C558 C557 1.403 . S
C558 C559 1.404 . S
C558 C561 1.539 . S
C559 C555 1.408 . S
C559 C558 1.404 . S
C559 H571 0.930 . S
C560 C556 1.524 . S
C560 H572 0.956 . S
C560 H573 0.961 . S
C560 H574 0.961 . S
C561 C558 1.539 . S
C561 H575 0.958 . S
C561 H576 0.961 . S
C561 H577 0.960 . S
H562 C546 0.931 . S
H563 C551 0.929 . S
H564 C552 0.960 . S
H565 C552 0.962 . S
H566 C552 0.960 . S
H567 C553 0.961 . S
H568 C553 0.961 . S
H569 C553 0.961 . S
H570 C554 0.931 . S
H571 C559 0.930 . S
H572 C560 0.956 . S
H573 C560 0.961 . S
H574 C560 0.961 . S
H575 C561 0.958 . S
H576 C561 0.961 . S
H577 C561 0.960 . S
C578 C579 1.391 . S
C578 C580 1.394 . S
C578 H594 0.931 . S
C579 C578 1.391 . S
C579 C583 1.376 . S
C580 C578 1.394 . S
C580 C581 1.369 . S
C580 C584 1.531 . S
C581 C580 1.369 . S
C581 C582 1.410 . S
C581 C589 1.503 . S
C582 C581 1.410 . S
C582 C583 1.392 . S
C582 C585 1.511 . S
C583 C579 1.376 . S
C583 C582 1.392 . S
C583 H595 0.929 . S
C584 C580 1.531 . S
C584 H596 0.960 . S
C584 H597 0.962 . S
C584 H598 0.960 . S
C585 C582 1.511 . S
C585 H599 0.961 . S
C585 H600 0.961 . S
C585 H601 0.961 . S
C586 C587 1.370 . S
C586 C588 1.363 . S
C586 H602 0.931 . S
C587 C586 1.370 . S
C587 C591 1.408 . S
C588 C586 1.363 . S
C588 C589 1.370 . S
C588 C592 1.524 . S
C589 C581 1.503 . S
C589 C588 1.370 . S
C589 C590 1.403 . S
C590 C589 1.403 . S
C590 C591 1.404 . S
C590 C593 1.539 . S
C591 C587 1.408 . S
C591 C590 1.404 . S
C591 H603 0.930 . S
C592 C588 1.524 . S
C592 H604 0.956 . S
C592 H605 0.961 . S
C592 H606 0.961 . S
C593 C590 1.539 . S
C593 H607 0.958 . S
C593 H608 0.961 . S
C593 H609 0.960 . S
H594 C578 0.931 . S
H595 C583 0.929 . S
H596 C584 0.960 . S
H597 C584 0.962 . S
H598 C584 0.960 . S
H599 C585 0.961 . S
H600 C585 0.961 . S
H601 C585 0.961 . S
H602 C586 0.931 . S
H603 C591 0.930 . S
H604 C592 0.956 . S
H605 C592 0.961 . S
H606 C592 0.961 . S
H607 C593 0.958 . S
H608 C593 0.961 . S
H609 C593 0.960 . S
C610 C611 1.391 . S
C610 C612 1.394 . S
C610 H626 0.931 . S
C611 C610 1.391 . S
C611 C615 1.376 . S
C612 C610 1.394 . S
C612 C613 1.369 . S
C612 C616 1.531 . S
C613 C612 1.369 . S
C613 C614 1.410 . S
C613 C621 1.503 . S
C614 C613 1.410 . S
C614 C615 1.392 . S
C614 C617 1.511 . S
C615 C611 1.376 . S
C615 C614 1.392 . S
C615 H627 0.929 . S
C616 C612 1.531 . S
C616 H628 0.960 . S
C616 H629 0.962 . S
C616 H630 0.960 . S
C617 C614 1.511 . S
C617 H631 0.961 . S
C617 H632 0.961 . S
C617 H633 0.961 . S
C618 C619 1.370 . S
C618 C620 1.363 . S
C618 H634 0.931 . S
C619 C618 1.370 . S
C619 C623 1.408 . S
C620 C618 1.363 . S
C620 C621 1.370 . S
C620 C624 1.524 . S
C621 C613 1.503 . S
C621 C620 1.370 . S
C621 C622 1.403 . S
C622 C621 1.403 . S
C622 C623 1.404 . S
C622 C625 1.539 . S
C623 C619 1.408 . S
C623 C622 1.404 . S
C623 H635 0.930 . S
C624 C620 1.524 . S
C624 H636 0.956 . S
C624 H637 0.961 . S
C624 H638 0.961 . S
C625 C622 1.539 . S
C625 H639 0.958 . S
C625 H640 0.961 . S
C625 H641 0.960 . S
H626 C610 0.931 . S
H627 C615 0.929 . S
H628 C616 0.960 . S
H629 C616 0.962 . S
H630 C616 0.960 . S
H631 C617 0.961 . S
H632 C617 0.961 . S
H633 C617 0.961 . S
H634 C618 0.931 . S
H635 C623 0.930 . S
H636 C624 0.956 . S
H637 C624 0.961 . S
H638 C624 0.961 . S
H639 C625 0.958 . S
H640 C625 0.961 . S
H641 C625 0.960 . S
C642 C643 1.391 . S
C642 C644 1.394 . S
C642 H658 0.931 . S
C643 C642 1.391 . S
C643 C647 1.376 . S
C644 C642 1.394 . S
C644 C645 1.369 . S
C644 C648 1.531 . S
C645 C644 1.369 . S
C645 C646 1.410 . S
C645 C653 1.503 . S
C646 C645 1.410 . S
C646 C647 1.392 . S
C646 C649 1.511 . S
C647 C643 1.376 . S
C647 C646 1.392 . S
C647 H659 0.929 . S
C648 C644 1.531 . S
C648 H660 0.960 . S
C648 H661 0.962 . S
C648 H662 0.960 . S
C649 C646 1.511 . S
C649 H663 0.961 . S
C649 H664 0.961 . S
C649 H665 0.961 . S
C650 C651 1.370 . S
C650 C652 1.363 . S
C650 H666 0.931 . S
C651 C650 1.370 . S
C651 C655 1.408 . S
C652 C650 1.363 . S
C652 C653 1.370 . S
C652 C656 1.524 . S
C653 C645 1.503 . S
C653 C652 1.370 . S
C653 C654 1.403 . S
C654 C653 1.403 . S
C654 C655 1.404 . S
C654 C657 1.539 . S
C655 C651 1.408 . S
C655 C654 1.404 . S
C655 H667 0.930 . S
C656 C652 1.524 . S
C656 H668 0.956 . S
C656 H669 0.961 . S
C656 H670 0.961 . S
C657 C654 1.539 . S
C657 H671 0.958 . S
C657 H672 0.961 . S
C657 H673 0.960 . S
H658 C642 0.931 . S
H659 C647 0.929 . S
H660 C648 0.960 . S
H661 C648 0.962 . S
H662 C648 0.960 . S
H663 C649 0.961 . S
H664 C649 0.961 . S
H665 C649 0.961 . S
H666 C650 0.931 . S
H667 C655 0.930 . S
H668 C656 0.956 . S
H669 C656 0.961 . S
H670 C656 0.961 . S
H671 C657 0.958 . S
H672 C657 0.961 . S
H673 C657 0.960 . S
C674 C675 1.391 . S
C674 C676 1.394 . S
C674 H690 0.931 . S
C675 C674 1.391 . S
C675 C679 1.376 . S
C676 C674 1.394 . S
C676 C677 1.369 . S
C676 C680 1.531 . S
C677 C676 1.369 . S
C677 C678 1.410 . S
C677 C685 1.503 . S
C678 C677 1.410 . S
C678 C679 1.392 . S
C678 C681 1.511 . S
C679 C675 1.376 . S
C679 C678 1.392 . S
C679 H691 0.929 . S
C680 C676 1.531 . S
C680 H692 0.960 . S
C680 H693 0.962 . S
C680 H694 0.960 . S
C681 C678 1.511 . S
C681 H695 0.961 . S
C681 H696 0.961 . S
C681 H697 0.961 . S
C682 C683 1.370 . S
C682 C684 1.363 . S
C682 H698 0.931 . S
C683 C682 1.370 . S
C683 C687 1.408 . S
C684 C682 1.363 . S
C684 C685 1.370 . S
C684 C688 1.524 . S
C685 C677 1.503 . S
C685 C684 1.370 . S
C685 C686 1.403 . S
C686 C685 1.403 . S
C686 C687 1.404 . S
C686 C689 1.539 . S
C687 C683 1.408 . S
C687 C686 1.404 . S
C687 H699 0.930 . S
C688 C684 1.524 . S
C688 H700 0.956 . S
C688 H701 0.961 . S
C688 H702 0.961 . S
C689 C686 1.539 . S
C689 H703 0.958 . S
C689 H704 0.961 . S
C689 H705 0.960 . S
H690 C674 0.931 . S
H691 C679 0.929 . S
H692 C680 0.960 . S
H693 C680 0.962 . S
H694 C680 0.960 . S
H695 C681 0.961 . S
H696 C681 0.961 . S
H697 C681 0.961 . S
H698 C682 0.931 . S
H699 C687 0.930 . S
H700 C688 0.956 . S
H701 C688 0.961 . S
H702 C688 0.961 . S
H703 C689 0.958 . S
H704 C689 0.961 . S
H705 C689 0.960 . S
C706 C707 1.391 . S
C706 C708 1.394 . S
C706 H722 0.931 . S
C707 C706 1.391 . S
C707 C711 1.376 . S
C708 C706 1.394 . S
C708 C709 1.369 . S
C708 C712 1.531 . S
C709 C708 1.369 . S
C709 C710 1.410 . S
C709 C717 1.503 . S
C710 C709 1.410 . S
C710 C711 1.392 . S
C710 C713 1.511 . S
C711 C707 1.376 . S
C711 C710 1.392 . S
C711 H723 0.929 . S
C712 C708 1.531 . S
C712 H724 0.960 . S
C712 H725 0.962 1_556 S
C712 H726 0.960 . S
C713 C710 1.511 . S
C713 H727 0.961 . S
C713 H728 0.961 . S
C713 H729 0.961 . S
C714 C715 1.370 . S
C714 C716 1.363 . S
C714 H730 0.931 . S
C715 C714 1.370 . S
C715 C719 1.408 1_554 S
C716 C714 1.363 . S
C716 C717 1.370 1_554 S
C716 C720 1.524 . S
C717 C709 1.503 . S
C717 C716 1.370 1_556 S
C717 C718 1.403 . S
C718 C717 1.403 . S
C718 C719 1.404 . S
C718 C721 1.539 . S
C719 C715 1.408 1_556 S
C719 C718 1.404 . S
C719 H731 0.930 . S
C720 C716 1.524 . S
C720 H732 0.956 . S
C720 H733 0.961 . S
C720 H734 0.961 . S
C721 C718 1.539 . S
C721 H735 0.958 . S
C721 H736 0.961 . S
C721 H737 0.960 . S
H722 C706 0.931 . S
H723 C711 0.929 . S
H724 C712 0.960 . S
H725 C712 0.962 1_554 S
H726 C712 0.960 . S
H727 C713 0.961 . S
H728 C713 0.961 . S
H729 C713 0.961 . S
H730 C714 0.931 . S
H731 C719 0.930 . S
H732 C720 0.956 . S
H733 C720 0.961 . S
H734 C720 0.961 . S
H735 C721 0.958 . S
H736 C721 0.961 . S
H737 C721 0.960 . S
C355 C52 1.840 . S
C363 C180 1.829 . S
C387 C111 1.836 . S
C395 C239 1.832 . S
C419 C298 1.826 . S
C427 C170 1.840 . S
C451 C3 1.832 . S
C459 C229 1.840 . S
C483 C62 1.834 . S
C491 C288 1.836 . S
C515 C347 1.831 1_554 S
C523 C121 1.832 . S
C547 C64 1.424 . S
C555 C33 1.408 1_565 S
C579 C123 1.424 . S
C587 C92 1.419 . S
C611 C151 1.404 . S
C619 C182 1.425 . S
C643 C241 1.410 . S
C651 C210 1.419 . S
C675 C300 1.412 . S
C683 C269 1.420 . S
C707 C328 1.396 1_655 S
C715 C5 1.423 . S
