# Generated by pormake.
# Topology wjd, (6)-cn, num edge types: 1
# Building blocks:
#     Node 0, Type 0, BuildingBlock: MIFKUJ_clean_sbu_0, # of connection points: 6
#     Node 1, Type 0, BuildingBlock: MIFKUJ_clean_sbu_0, # of connection points: 6
#     Node 2, Type 0, BuildingBlock: MIFKUJ_clean_sbu_0, # of connection points: 6
#     Node 3, Type 0, BuildingBlock: MIFKUJ_clean_sbu_0, # of connection points: 6
#     Node 4, Type 0, BuildingBlock: MIFKUJ_clean_sbu_0, # of connection points: 6
#     Node 5, Type 0, BuildingBlock: MIFKUJ_clean_sbu_0, # of connection points: 6
#     Node 6, Type 0, BuildingBlock: MIFKUJ_clean_sbu_0, # of connection points: 6
#     Node 7, Type 0, BuildingBlock: MIFKUJ_clean_sbu_0, # of connection points: 6
#     Node 8, Type 0, BuildingBlock: MIFKUJ_clean_sbu_0, # of connection points: 6
#     Node 9, Type 0, BuildingBlock: MIFKUJ_clean_sbu_0, # of connection points: 6
#     Node 10, Type 0, BuildingBlock: MIFKUJ_clean_sbu_0, # of connection points: 6
#     Node 11, Type 0, BuildingBlock: MIFKUJ_clean_sbu_0, # of connection points: 6
#     Edge 12, Type (0, 0), BuildingBlock: OJICUG_clean_linker_0, # of connection points: 2
#     Edge 13, Type (0, 0), BuildingBlock: OJICUG_clean_linker_0, # of connection points: 2
#     Edge 14, Type (0, 0), BuildingBlock: OJICUG_clean_linker_0, # of connection points: 2
#     Edge 15, Type (0, 0), BuildingBlock: OJICUG_clean_linker_0, # of connection points: 2
#     Edge 16, Type (0, 0), BuildingBlock: OJICUG_clean_linker_0, # of connection points: 2
#     Edge 17, Type (0, 0), BuildingBlock: OJICUG_clean_linker_0, # of connection points: 2
#     Edge 18, Type (0, 0), BuildingBlock: OJICUG_clean_linker_0, # of connection points: 2
#     Edge 19, Type (0, 0), BuildingBlock: OJICUG_clean_linker_0, # of connection points: 2
#     Edge 20, Type (0, 0), BuildingBlock: OJICUG_clean_linker_0, # of connection points: 2
#     Edge 21, Type (0, 0), BuildingBlock: OJICUG_clean_linker_0, # of connection points: 2
#     Edge 22, Type (0, 0), BuildingBlock: OJICUG_clean_linker_0, # of connection points: 2
#     Edge 23, Type (0, 0), BuildingBlock: OJICUG_clean_linker_0, # of connection points: 2
#     Edge 24, Type (0, 0), BuildingBlock: OJICUG_clean_linker_0, # of connection points: 2
#     Edge 25, Type (0, 0), BuildingBlock: OJICUG_clean_linker_0, # of connection points: 2
#     Edge 26, Type (0, 0), BuildingBlock: OJICUG_clean_linker_0, # of connection points: 2
#     Edge 27, Type (0, 0), BuildingBlock: OJICUG_clean_linker_0, # of connection points: 2
#     Edge 28, Type (0, 0), BuildingBlock: OJICUG_clean_linker_0, # of connection points: 2
#     Edge 29, Type (0, 0), BuildingBlock: OJICUG_clean_linker_0, # of connection points: 2
#     Edge 30, Type (0, 0), BuildingBlock: OJICUG_clean_linker_0, # of connection points: 2
#     Edge 31, Type (0, 0), BuildingBlock: OJICUG_clean_linker_0, # of connection points: 2
#     Edge 32, Type (0, 0), BuildingBlock: OJICUG_clean_linker_0, # of connection points: 2
#     Edge 33, Type (0, 0), BuildingBlock: OJICUG_clean_linker_0, # of connection points: 2
#     Edge 34, Type (0, 0), BuildingBlock: OJICUG_clean_linker_0, # of connection points: 2
#     Edge 35, Type (0, 0), BuildingBlock: OJICUG_clean_linker_0, # of connection points: 2
#     Edge 36, Type (0, 0), BuildingBlock: OJICUG_clean_linker_0, # of connection points: 2
#     Edge 37, Type (0, 0), BuildingBlock: OJICUG_clean_linker_0, # of connection points: 2
#     Edge 38, Type (0, 0), BuildingBlock: OJICUG_clean_linker_0, # of connection points: 2
#     Edge 39, Type (0, 0), BuildingBlock: OJICUG_clean_linker_0, # of connection points: 2
#     Edge 40, Type (0, 0), BuildingBlock: OJICUG_clean_linker_0, # of connection points: 2
#     Edge 41, Type (0, 0), BuildingBlock: OJICUG_clean_linker_0, # of connection points: 2
#     Edge 42, Type (0, 0), BuildingBlock: OJICUG_clean_linker_0, # of connection points: 2
#     Edge 43, Type (0, 0), BuildingBlock: OJICUG_clean_linker_0, # of connection points: 2
#     Edge 44, Type (0, 0), BuildingBlock: OJICUG_clean_linker_0, # of connection points: 2
#     Edge 45, Type (0, 0), BuildingBlock: OJICUG_clean_linker_0, # of connection points: 2
#     Edge 46, Type (0, 0), BuildingBlock: OJICUG_clean_linker_0, # of connection points: 2
#     Edge 47, Type (0, 0), BuildingBlock: OJICUG_clean_linker_0, # of connection points: 2
# Relax obj value: 0.092
# Max RMSD: 0.201
# Mean RMSD: 0.201
data_MOF--net-wjd--node1-MIFKUJ_clean_sbu_0--edge1-OJICUG_clean_linker_0
_symmetry_space_group_name_H-M    P1
_symmetry_Int_Tables_number       1
_symmetry_cell_setting            triclinic
loop_
_symmetry_equiv_pos_as_xyz
'x, y, z'
_cell_length_a     26.415172
_cell_length_b     26.502545
_cell_length_c     39.029801
_cell_angle_alpha  89.994779
_cell_angle_beta   89.989899
_cell_angle_gamma 119.55026
loop_
_atom_site_label
_atom_site_type_symbol
_atom_site_fract_x
_atom_site_fract_y
_atom_site_fract_z
_atom_type_partial_charge
Zn0 Zn 0.26803 0.02979 0.08246 0.0
Zn1 Zn 0.43903 0.10814 0.07459 0.0
C2 C 0.22918 0.10939 0.09405 0.0
O3 O 0.2264 0.08883 0.12505 0.0
C4 C 0.55563 0.13466 0.05451 0.0
O5 O 0.53853 0.14005 0.02379 0.0
O6 O 0.18961 0.95906 0.09029 0.0
O7 O 0.30461 0.00974 0.04524 0.0
O8 O 0.39983 0.04933 0.03673 0.0
C9 C 0.15683 0.93021 0.06549 0.0
O10 O 0.17509 0.94615 0.03394 0.0
O11 O 0.25061 0.09323 0.07011 0.0
C12 C 0.47294 0.22622 0.08507 0.0
O13 O 0.4778 0.2105 0.11628 0.0
O14 O 0.4525 0.18779 0.0617 0.0
O15 O 0.4064 0.08605 0.12249 0.0
O16 O 0.31009 0.04447 0.126 0.0
O17 O 0.51996 0.11978 0.07933 0.0
C18 C 0.34749 0.01349 0.02868 0.0
C19 C 0.35961 0.06384 0.13985 0.0
Zn20 Zn 0.69723 0.58959 0.35207 0.0
Zn21 Zn 0.79788 0.75565 0.345 0.0
C22 C 0.60935 0.47201 0.37264 0.0
O23 O 0.63089 0.48883 0.40353 0.0
C24 C 0.91401 0.78658 0.33301 0.0
O25 O 0.89602 0.78951 0.30206 0.0
O26 O 0.76496 0.57809 0.36462 0.0
O27 O 0.70587 0.621 0.30406 0.0
O28 O 0.76805 0.7156 0.30088 0.0
C29 C 0.78478 0.55972 0.34093 0.0
O30 O 0.7649 0.55594 0.30963 0.0
O31 O 0.62961 0.50802 0.34801 0.0
C32 C 0.8182 0.87082 0.36165 0.0
O33 O 0.81474 0.85263 0.39333 0.0
O34 O 0.8119 0.8367 0.33707 0.0
O35 O 0.74015 0.7243 0.38233 0.0
O36 O 0.67814 0.6303 0.38946 0.0
O37 O 0.87694 0.76702 0.35719 0.0
C38 C 0.73383 0.66746 0.28687 0.0
C39 C 0.69839 0.68305 0.39816 0.0
Zn40 Zn 0.98639 0.22764 0.08112 0.0
Zn41 Zn 0.9165 0.32653 0.07459 0.0
C42 C 0.90936 0.11126 0.09268 0.0
O43 O 0.93341 0.12988 0.12288 0.0
C44 C 0.89215 0.41913 0.05473 0.0
O45 O 0.89214 0.40153 0.02326 0.0
O46 O 0.05444 0.21497 0.08938 0.0
O47 O 1.01152 0.28577 0.04423 0.0
O48 O 0.97678 0.34645 0.03786 0.0
C49 C 0.08033 0.2056 0.06482 0.0
O50 O 0.06343 0.20616 0.03323 0.0
O51 O 0.92144 0.14812 0.06878 0.0
C52 C 0.79996 0.23737 0.08452 0.0
O53 O 0.81543 0.25321 0.11643 0.0
O54 O 0.8381 0.26021 0.06107 0.0
O55 O 0.93864 0.31633 0.1222 0.0
O56 O 0.97426 0.25604 0.12516 0.0
O57 O 0.90288 0.39457 0.07943 0.0
C58 C 1.01059 0.32746 0.02893 0.0
C59 C 0.95838 0.28903 0.13926 0.0
Zn60 Zn 0.43969 0.11005 0.35223 0.0
Zn61 Zn 0.2699 0.03627 0.34459 0.0
C62 C 0.55661 0.13657 0.37227 0.0
O63 O 0.53973 0.1416 0.40313 0.0
C64 C 0.23332 0.11715 0.333 0.0
O65 O 0.23031 0.09609 0.30212 0.0
O66 O 0.45292 0.18951 0.36542 0.0
O67 O 0.40758 0.08815 0.30424 0.0
O68 O 0.31152 0.04944 0.30098 0.0
C69 C 0.47205 0.22802 0.34206 0.0
O70 O 0.47562 0.21249 0.31058 0.0
O71 O 0.52075 0.12191 0.34757 0.0
C72 C 0.15694 0.9385 0.36115 0.0
O73 O 0.17504 0.95351 0.39281 0.0
O74 O 0.1904 0.9672 0.33655 0.0
O75 O 0.30484 0.01355 0.38149 0.0
O76 O 0.39985 0.05044 0.38967 0.0
O77 O 0.2546 0.10107 0.35706 0.0
C78 C 0.36071 0.06706 0.28702 0.0
C79 C 0.34723 0.01555 0.39773 0.0
Zn80 Zn 0.79926 0.75273 0.08104 0.0
Zn81 Zn 0.69779 0.58789 0.0746 0.0
C82 C 0.91408 0.77799 0.09293 0.0
O83 O 0.89627 0.77923 0.12419 0.0
C84 C 0.60881 0.47033 0.05429 0.0
O85 O 0.62842 0.48733 0.02306 0.0
O86 O 0.81541 0.83455 0.08881 0.0
O87 O 0.74087 0.72226 0.04405 0.0
O88 O 0.67806 0.62836 0.03731 0.0
C89 C 0.82048 0.86848 0.06436 0.0
O90 O 0.81477 0.84984 0.03264 0.0
O91 O 0.87725 0.7616 0.06863 0.0
C92 C 0.78534 0.55789 0.08538 0.0
O93 O 0.76533 0.55367 0.11669 0.0
O94 O 0.76567 0.5767 0.06185 0.0
O95 O 0.7062 0.61925 0.12262 0.0
O96 O 0.76905 0.71368 0.12533 0.0
O97 O 0.63055 0.50618 0.0789 0.0
C98 C 0.69853 0.68112 0.02853 0.0
C99 C 0.73447 0.6659 0.13958 0.0
Zn100 Zn 0.91735 0.32951 0.35066 0.0
Zn101 Zn 0.98614 0.22986 0.34481 0.0
C102 C 0.89258 0.42156 0.37056 0.0
O103 O 0.89287 0.40384 0.40196 0.0
C104 C 0.90748 0.11362 0.33352 0.0
O105 O 0.93047 0.13195 0.30305 0.0
O106 O 0.83916 0.26309 0.36451 0.0
O107 O 0.93924 0.31883 0.30301 0.0
O108 O 0.97399 0.25776 0.30066 0.0
C109 C 0.80074 0.24043 0.34121 0.0
O110 O 0.81583 0.25659 0.30928 0.0
O111 O 0.9033 0.39725 0.34572 0.0
C112 C 0.0815 0.21006 0.36145 0.0
O113 O 0.06546 0.21205 0.39306 0.0
O114 O 0.05432 0.21735 0.33679 0.0
O115 O 1.01159 0.28871 0.38119 0.0
O116 O 0.97789 0.35025 0.38734 0.0
O117 O 0.92103 0.15059 0.35749 0.0
C118 C 0.95853 0.29082 0.28624 0.0
C119 C 1.01139 0.3309 0.39629 0.0
Zn120 Zn 0.20244 0.40048 0.57613 0.0
Zn121 Zn 0.07887 0.27672 0.58219 0.0
C122 C 0.17763 0.49105 0.56208 0.0
O123 O 0.19728 0.48617 0.53204 0.0
C124 C 0.13622 0.2137 0.59264 0.0
O125 O 0.10775 0.20636 0.6215 0.0
O126 O 0.28777 0.45339 0.5668 0.0
O127 O 0.19579 0.35671 0.6201 0.0
O128 O 0.10044 0.31504 0.62681 0.0
C129 C 0.31985 0.48455 0.59121 0.0
O130 O 0.29726 0.47758 0.62201 0.0
O131 O 0.17349 0.45663 0.58602 0.0
C132 C 0.97537 0.16954 0.56321 0.0
O133 O 0.99824 0.18338 0.53241 0.0
O134 O 1.0006 0.20448 0.58787 0.0
O135 O 0.07355 0.32733 0.54737 0.0
O136 O 0.16444 0.35996 0.5316 0.0
O137 O 0.13316 0.24623 0.5697 0.0
C138 C 0.15099 0.33456 0.63923 0.0
C139 C 0.11366 0.35177 0.52543 0.0
Zn140 Zn 0.2167 0.94645 0.84056 0.0
Zn141 Zn 0.21454 0.82393 0.85015 0.0
C142 C 0.09583 0.88435 0.83021 0.0
O143 O 0.1147 0.90851 0.80007 0.0
C144 C 0.32899 0.84594 0.86394 0.0
O145 O 0.30532 0.82855 0.89434 0.0
O146 O 0.21972 0.02304 0.83284 0.0
O147 O 0.27183 0.9552 0.87665 0.0
O148 O 0.21566 0.86548 0.89425 0.0
C149 C 0.21476 0.05137 0.85768 0.0
O150 O 0.21239 0.03248 0.88909 0.0
O151 O 0.13287 0.89161 0.85326 0.0
C152 C 0.1771 0.7054 0.83625 0.0
O153 O 0.18957 0.72637 0.80497 0.0
O154 O 0.18123 0.73899 0.86068 0.0
O155 O 0.17841 0.83028 0.80547 0.0
O156 O 0.23818 0.92359 0.79769 0.0
O157 O 0.29847 0.84949 0.83986 0.0
C158 C 0.25766 0.91655 0.89938 0.0
C159 C 0.20928 0.8727 0.7858 0.0
Zn160 Zn 0.62568 0.80896 0.57679 0.0
Zn161 Zn 0.74907 0.80962 0.58457 0.0
C162 C 0.53461 0.69457 0.56369 0.0
O163 O 0.54058 0.71778 0.53317 0.0
C164 C 0.81115 0.93039 0.59255 0.0
O165 O 0.81817 0.91173 0.62239 0.0
O166 O 0.57275 0.84121 0.56605 0.0
O167 O 0.66819 0.8475 0.621 0.0
O168 O 0.71119 0.79518 0.62935 0.0
C169 C 0.54157 0.8431 0.59029 0.0
O170 O 0.54898 0.82875 0.62136 0.0
O171 O 0.56874 0.72513 0.58759 0.0
C172 C 0.85578 0.81068 0.5666 0.0
O173 O 0.84105 0.81718 0.53543 0.0
O174 O 0.82156 0.80374 0.59131 0.0
O175 O 0.69928 0.75191 0.55031 0.0
O176 O 0.66657 0.80919 0.53244 0.0
O177 O 0.77937 0.89329 0.57015 0.0
C178 C 0.6909 0.82623 0.64091 0.0
C179 C 0.67615 0.76724 0.5272 0.0
Zn180 Zn 0.07809 0.27792 0.84204 0.0
Zn181 Zn 0.20163 0.4012 0.84842 0.0
C182 C 0.13534 0.21475 0.83165 0.0
O183 O 0.10666 0.20713 0.80286 0.0
C184 C 0.1774 0.49204 0.86296 0.0
O185 O 0.1969 0.48668 0.89294 0.0
O186 O 0.99983 0.20547 0.83661 0.0
O187 O 0.07286 0.32855 0.87692 0.0
O188 O 0.16348 0.36006 0.89278 0.0
C189 C 0.97492 0.17094 0.8615 0.0
O190 O 0.99807 0.18543 0.8922 0.0
O191 O 0.13247 0.24751 0.8545 0.0
C192 C 0.31932 0.48539 0.83379 0.0
O193 O 0.29706 0.47919 0.80295 0.0
O194 O 0.28695 0.45373 0.85797 0.0
O195 O 0.19505 0.3579 0.80427 0.0
O196 O 0.09973 0.31616 0.79737 0.0
O197 O 0.17303 0.45776 0.83888 0.0
C198 C 0.11275 0.35192 0.89907 0.0
C199 C 0.15037 0.33564 0.78507 0.0
Zn200 Zn 0.21373 0.82218 0.57559 0.0
Zn201 Zn 0.2165 0.94478 0.5848 0.0
C202 C 0.3283 0.84395 0.56206 0.0
O203 O 0.30494 0.82647 0.53161 0.0
C204 C 0.09572 0.88324 0.59541 0.0
O205 O 0.11492 0.90769 0.62544 0.0
O206 O 0.18022 0.73722 0.56518 0.0
O207 O 0.17793 0.82896 0.62035 0.0
O208 O 0.23796 0.9223 0.62775 0.0
C209 C 0.17619 0.70357 0.58955 0.0
O210 O 0.18883 0.72447 0.62083 0.0
O211 O 0.29756 0.84757 0.58599 0.0
C212 C 0.21483 0.04959 0.56719 0.0
O213 O 0.21199 0.03011 0.53589 0.0
O214 O 0.21995 0.02161 0.59217 0.0
O215 O 0.2717 0.95312 0.54888 0.0
O216 O 0.21511 0.86352 0.53129 0.0
O217 O 0.13252 0.89008 0.57228 0.0
C218 C 0.20902 0.87156 0.63986 0.0
C219 C 0.25732 0.91447 0.52616 0.0
Zn220 Zn 0.74923 0.81026 0.84264 0.0
Zn221 Zn 0.62544 0.80909 0.85058 0.0
C222 C 0.81115 0.9309 0.83398 0.0
O223 O 0.81809 0.91171 0.8043 0.0
C224 C 0.53415 0.69435 0.86297 0.0
O225 O 0.53997 0.71675 0.89372 0.0
O226 O 0.82173 0.80461 0.8355 0.0
O227 O 0.70025 0.75278 0.87722 0.0
O228 O 0.66557 0.80845 0.89512 0.0
C229 C 0.85612 0.81133 0.86006 0.0
O230 O 0.84159 0.81751 0.89134 0.0
O231 O 0.7795 0.89419 0.8566 0.0
C232 C 0.54196 0.84392 0.83679 0.0
O233 O 0.54977 0.82979 0.80575 0.0
O234 O 0.57261 0.84153 0.86119 0.0
O235 O 0.66851 0.84805 0.80654 0.0
O236 O 0.71041 0.79476 0.79814 0.0
O237 O 0.56843 0.72551 0.83928 0.0
C238 C 0.67606 0.76706 0.90024 0.0
C239 C 0.69061 0.82622 0.78658 0.0
C240 C 0.15064 0.17373 0.04521 0.0
C241 C 0.12468 0.1883 0.07204 0.0
H242 H 0.20481 0.13799 0.03106 0.0
C243 C 0.13866 0.18255 0.10603 0.0
H244 H 0.14108 0.17802 0.01873 0.0
C245 C 0.17514 0.15966 0.11308 0.0
C246 C 0.19862 0.14216 0.08632 0.0
H247 H 0.1198 0.19379 0.12732 0.0
H248 H 0.18326 0.1538 0.13959 0.0
C249 C 0.18735 0.15098 0.05228 0.0
C250 C 0.07636 0.87848 0.32026 0.0
C251 C 0.09631 0.8927 0.35416 0.0
H252 H 1.00329 0.8329 0.28703 0.0
C253 C 0.05673 0.86554 0.38116 0.0
H254 H 0.10578 0.89805 0.29885 0.0
C255 C 0.99774 0.82791 0.37436 0.0
C256 C 0.97723 0.81676 0.34043 0.0
H257 H 0.07077 0.87512 0.40758 0.0
H258 H 0.96789 0.80986 0.39572 0.0
C259 C 0.01752 0.84094 0.31348 0.0
C260 C 0.86658 0.02738 0.0516 0.0
C261 C 0.87839 0.04822 0.08543 0.0
H262 H 0.83906 0.95413 0.01833 0.0
C263 C 0.86623 1.00857 0.11232 0.0
H264 H 0.87554 0.05682 0.0303 0.0
C265 C 0.84558 0.94992 0.10549 0.0
C266 C 0.83664 0.92948 0.07159 0.0
H267 H 0.87456 0.0231 0.1387 0.0
H268 H 0.83835 0.92095 0.12681 0.0
C269 C 0.84595 0.96856 0.04474 0.0
C270 C 0.17825 0.16613 0.31363 0.0
C271 C 0.20239 0.14964 0.34053 0.0
H272 H 0.12149 0.19842 0.29911 0.0
C273 C 0.19103 0.15872 0.3745 0.0
H274 H 0.18642 0.16007 0.28717 0.0
C275 C 0.15347 0.18056 0.38138 0.0
C276 C 0.12671 0.19388 0.35442 0.0
H277 H 0.20899 0.14651 0.39581 0.0
H278 H 0.14383 0.18501 0.40782 0.0
C279 C 0.14088 0.18804 0.32049 0.0
C280 C 0.05689 0.85763 0.04501 0.0
C281 C 0.09643 0.88361 0.07216 0.0
H282 H 0.96803 0.80302 0.0302 0.0
C283 C 0.07648 0.86775 0.10595 0.0
H284 H 0.07095 0.86844 0.01866 0.0
C285 C 0.0176 0.83004 0.11255 0.0
C286 C 0.97729 0.80744 0.08552 0.0
H287 H 0.1059 0.88631 0.12745 0.0
H288 H 1.00334 0.8209 0.13896 0.0
C289 C 0.99787 0.81992 0.05162 0.0
C290 C 0.84468 0.97102 0.38151 0.0
C291 C 0.83396 0.93176 0.35456 0.0
H292 H 0.87561 0.05945 0.39607 0.0
C293 C 0.84151 0.95205 0.32065 0.0
H294 H 0.83886 0.95671 0.40793 0.0
C295 C 0.86235 0.01075 0.31388 0.0
C296 C 0.87607 0.0506 0.34084 0.0
H297 H 0.83317 0.92294 0.29926 0.0
H298 H 0.86968 0.02519 0.28747 0.0
C299 C 0.86547 0.02989 0.37472 0.0
C300 C 0.19606 0.12863 0.5464 0.0
C301 C 0.20337 0.09814 0.57372 0.0
H302 H 0.16975 0.18997 0.53092 0.0
C303 C 0.19454 0.11101 0.60736 0.0
H304 H 0.20282 0.11995 0.52017 0.0
C305 C 0.17533 0.15071 0.61344 0.0
C306 C 0.165 0.17889 0.58607 0.0
H307 H 0.20002 0.0886 0.62903 0.0
H308 H 0.16678 0.15791 0.63962 0.0
C309 C 0.17729 0.16888 0.55254 0.0
C310 C 1.01322 0.84853 0.8722 0.0
C311 C 0.03297 0.85657 0.83813 0.0
H312 H 0.94155 0.82779 0.90594 0.0
C313 C 0.99259 0.84323 0.81147 0.0
H314 H 0.04329 0.85841 0.89331 0.0
C315 C 0.93439 0.82543 0.81866 0.0
C316 C 0.9153 0.82102 0.85271 0.0
H317 H 1.00633 0.84848 0.78493 0.0
H318 H 0.905 0.81763 0.79744 0.0
C319 C 0.95495 0.83115 0.87943 0.0
C320 C 0.87116 0.03334 0.61119 0.0
C321 C 0.84561 0.993 0.58446 0.0
H322 H 0.9312 0.1207 0.62549 0.0
C323 C 0.85822 0.01261 0.55043 0.0
H324 H 0.86194 0.01968 0.6377 0.0
C325 C 0.89854 0.07076 0.54337 0.0
C326 C 0.92645 0.11042 0.57022 0.0
H327 H 0.83924 0.98254 0.52929 0.0
H328 H 0.90936 0.08409 0.51691 0.0
C329 C 0.91084 0.09138 0.60417 0.0
C330 C 0.17402 0.15127 0.81102 0.0
C331 C 0.16421 0.18003 0.83828 0.0
H332 H 0.1985 0.08889 0.79568 0.0
C333 C 0.17719 0.17076 0.87181 0.0
H334 H 0.16492 0.15787 0.78485 0.0
C335 C 0.19617 0.13071 0.87809 0.0
C336 C 0.203 0.09966 0.85092 0.0
H337 H 0.17008 0.19232 0.89334 0.0
H338 H 0.2035 0.12264 0.90433 0.0
C339 C 0.19342 0.11176 0.81724 0.0
C340 C 1.01271 0.84766 0.55373 0.0
C341 C 0.03279 0.85558 0.58771 0.0
H342 H 0.94073 0.82713 0.5203 0.0
C343 C 0.99269 0.84225 0.61455 0.0
H344 H 0.04256 0.85754 0.53249 0.0
C345 C 0.93444 0.82457 0.60761 0.0
C346 C 0.91501 0.82027 0.57365 0.0
H347 H 1.00669 0.84742 0.64102 0.0
H348 H 0.90528 0.81677 0.62897 0.0
C349 C 0.95438 0.8304 0.54676 0.0
C350 C 0.89853 0.07244 0.88207 0.0
C351 C 0.9261 0.11157 0.85492 0.0
H352 H 0.83963 0.98445 0.89683 0.0
C353 C 0.91025 0.09176 0.82112 0.0
H354 H 0.90953 0.08637 0.90842 0.0
C355 C 0.87069 0.03351 0.81455 0.0
C356 C 0.84549 0.99372 0.84158 0.0
H357 H 0.93035 0.12064 0.79958 0.0
H358 H 0.86129 0.01926 0.78815 0.0
C359 C 0.85833 0.01409 0.87546 0.0
C360 C 0.30999 0.03219 0.2314 0.0
C361 C 0.36243 0.06333 0.24946 0.0
H362 H 0.2682 1.00751 0.18297 0.0
C363 C 0.41508 0.09203 0.23121 0.0
H364 H 0.26866 0.00897 0.24464 0.0
C365 C 0.41481 0.09119 0.19538 0.0
C366 C 0.3619 0.06162 0.17747 0.0
H367 H 0.45617 0.11628 0.24452 0.0
H368 H 0.45572 0.11485 0.18179 0.0
C369 C 0.30972 0.03132 0.19591 0.0
C370 C 0.75485 0.71821 0.23079 0.0
C371 C 0.72873 0.66592 0.24925 0.0
H372 H 0.77659 0.75909 0.18194 0.0
C373 C 0.70072 0.6131 0.23131 0.0
H374 H 0.77626 0.7597 0.24375 0.0
C375 C 0.70089 0.61269 0.19549 0.0
C376 C 0.72909 0.66515 0.17717 0.0
H377 H 0.68013 0.57207 0.24489 0.0
H378 H 0.68046 0.57146 0.18224 0.0
C379 C 0.75502 0.7178 0.19523 0.0
C380 C 0.93579 0.32142 0.19464 0.0
C381 C 0.96179 0.29404 0.17678 0.0
H382 H 0.91426 0.34195 0.24368 0.0
C383 C 0.98953 0.26907 0.19517 0.0
H384 H 0.9142 0.34111 0.18109 0.0
C385 C 0.9896 0.26953 0.23069 0.0
C386 C 0.9619 0.295 0.24869 0.0
H387 H 1.01056 0.24816 0.18218 0.0
H388 H 1.01064 0.24901 0.24397 0.0
C389 C 0.93586 0.32188 0.23041 0.0
C390 C 0.10725 0.28896 0.69447 0.0
C391 C 0.15608 0.33006 0.67633 0.0
H392 H 0.06787 0.25818 0.74312 0.0
C393 C 0.2066 0.36878 0.69426 0.0
H394 H 0.06818 0.25765 0.68127 0.0
C395 C 0.20642 0.36908 0.73012 0.0
C396 C 0.15571 0.33068 0.74803 0.0
H397 H 0.2449 0.40059 0.6807 0.0
H398 H 0.24459 0.40111 0.74367 0.0
C399 C 0.10707 0.28927 0.72991 0.0
C400 C 0.25932 0.90626 0.73047 0.0
C401 C 0.21077 0.86503 0.74871 0.0
H402 H 0.29678 0.93962 0.68175 0.0
C403 C 0.16361 0.82058 0.73091 0.0
H404 H 0.29686 0.94016 0.74361 0.0
C405 C 0.16354 0.82028 0.695 0.0
C406 C 0.21065 0.86441 0.67699 0.0
H407 H 0.12587 0.78813 0.74461 0.0
H408 H 0.12575 0.78761 0.68146 0.0
C409 C 0.25926 0.90594 0.69504 0.0
C410 C 0.73956 0.83409 0.69606 0.0
C411 C 0.69573 0.83776 0.67787 0.0
H412 H 0.77257 0.8287 0.74477 0.0
C413 C 0.65455 0.84655 0.69576 0.0
H414 H 0.7727 0.8287 0.68287 0.0
C415 C 0.6545 0.84658 0.73168 0.0
C416 C 0.69561 0.8378 0.74964 0.0
H417 H 0.62056 0.84983 0.68216 0.0
H418 H 0.62047 0.84988 0.74523 0.0
C419 C 0.73949 0.83411 0.73152 0.0
C420 C 0.34196 0.98384 0.93511 0.0
C421 C 0.28703 0.93365 0.93269 0.0
H422 H 0.40568 0.04806 -0.03171 0.0
C423 C 0.25884 0.90351 0.96251 0.0
H424 H 0.3652 1.00709 0.91233 0.0
C425 C 0.28209 0.92699 -0.00557 0.0
C426 C 0.33407 0.98034 -0.00322 0.0
H427 H 0.2169 0.86431 0.96127 0.0
H428 H 0.25739 0.90558 0.01723 0.0
C429 C 0.36559 1.0069 -0.03296 0.0
C430 C 0.6814 0.75271 0.43186 0.0
C431 C 0.67772 0.69805 0.42933 0.0
H432 H 0.68273 0.81746 0.46525 0.0
C433 C 0.6638 0.66272 0.45841 0.0
H434 H 0.69153 0.78043 0.40956 0.0
C435 C 0.65971 0.6843 0.49025 0.0
C436 C 0.66847 0.74094 0.49319 0.0
H437 H 0.66076 0.62048 0.45705 0.0
H438 H 0.65266 0.6578 0.51281 0.0
C439 C 0.67627 0.77386 0.4636 0.0
C440 C 0.04946 0.37082 0.93754 0.0
C441 C 0.09634 0.36035 0.93348 0.0
H442 H 0.98593 0.37001 -0.02813 0.0
C443 C 0.12185 0.35063 0.96232 0.0
H444 H 0.02987 0.37944 0.91553 0.0
C445 C 0.09643 0.34474 -0.00561 0.0
C446 C 0.04596 0.34949 -0.00209 0.0
H447 H 0.15831 0.3429 0.95974 0.0
H448 H 0.11402 0.33281 0.01604 0.0
C449 C 0.02464 0.36591 -0.0303 0.0
C450 C 0.36571 1.00494 0.45881 0.0
C451 C 0.33308 0.98082 0.42906 0.0
H452 H 0.36638 1.00225 0.5135 0.0
C453 C 0.27999 0.92846 0.43105 0.0
H454 H 0.40671 0.04524 0.45784 0.0
C455 C 0.25688 0.90379 0.46278 0.0
C456 C 0.28637 0.93177 0.49278 0.0
H457 H 0.25444 0.90884 0.40821 0.0
H458 H 0.21413 0.86561 0.46386 0.0
C459 C 0.34225 0.98072 0.49057 0.0
C460 C 0.68072 0.75082 -0.00452 0.0
C461 C 0.67739 0.69628 -0.00238 0.0
H462 H 0.68181 0.81599 0.96254 0.0
C463 C 0.66371 0.66147 -0.03167 0.0
H464 H 0.69072 0.77815 0.01794 0.0
C465 C 0.6596 0.68353 0.93666 0.0
C466 C 0.66807 0.74011 0.93409 0.0
H467 H 0.66099 0.61935 -0.03061 0.0
H468 H 0.65284 0.65749 0.91392 0.0
C469 C 0.67554 0.77244 -0.0361 0.0
C470 C 0.12328 0.35334 0.46212 0.0
C471 C 0.09754 0.36175 0.49129 0.0
H472 H 0.11552 0.33736 0.4082 0.0
C473 C 0.05062 0.37229 0.48775 0.0
H474 H 0.15981 0.34564 0.4643 0.0
C475 C 0.02579 0.36841 0.45571 0.0
C476 C 0.04719 0.35299 0.42712 0.0
H477 H 0.03089 0.37998 0.51004 0.0
H478 H 0.9869 0.37227 0.4539 0.0
C479 C 0.09789 0.34851 0.43016 0.0
C480 C 0.71825 0.19909 0.04185 0.0
C481 C 0.73745 0.20232 0.0758 0.0
H482 H 0.64556 0.17505 0.00841 0.0
C483 C 0.69587 0.17723 0.10201 0.0
H484 H 0.74917 0.21793 0.02104 0.0
C485 C 0.6366 0.15266 0.09479 0.0
C486 C 0.61751 0.1528 0.06118 0.0
H487 H 0.70916 0.17857 0.1284 0.0
H488 H 0.60594 0.1357 0.11584 0.0
C489 C 0.65884 0.17466 0.03462 0.0
C490 C 0.54659 0.36888 0.39215 0.0
C491 C 0.56723 0.41015 0.36559 0.0
H492 H 0.49949 0.27878 0.40567 0.0
C493 C 0.55061 0.39107 0.33172 0.0
H494 H 0.55828 0.38211 0.41854 0.0
C495 C 0.5171 0.33198 0.32436 0.0
C496 C 0.49908 0.29048 0.35069 0.0
H497 H 0.56533 0.42161 0.31063 0.0
H498 H 0.50705 0.31875 0.29784 0.0
C499 C 0.51269 0.30963 0.38478 0.0
C500 C 0.85474 0.48521 0.03537 0.0
C501 C 0.87294 0.46202 0.06197 0.0
H502 H 0.81336 0.53455 0.02181 0.0
C503 C 0.86844 0.47679 0.096 0.0
H504 H 0.85798 0.47503 0.00886 0.0
C505 C 0.84295 0.51082 0.10339 0.0
C506 C 0.82148 0.53106 0.07695 0.0
H507 H 0.88252 0.46019 0.11713 0.0
H508 H 0.83803 0.51931 0.12998 0.0
C509 C 0.82934 0.51951 0.04279 0.0
C510 C 0.63729 0.15528 0.33156 0.0
C511 C 0.61849 0.15497 0.3653 0.0
H512 H 0.70954 0.18183 0.2976 0.0
C513 C 0.66009 0.1767 0.39171 0.0
H514 H 0.60643 0.13845 0.31061 0.0
C515 C 0.71946 0.20143 0.38422 0.0
C516 C 0.73834 0.20511 0.35016 0.0
H517 H 0.64705 0.17674 0.41802 0.0
H518 H 0.75058 0.22015 0.40493 0.0
C519 C 0.69651 0.18015 0.32408 0.0
C520 C 0.51123 0.30801 0.04245 0.0
C521 C 0.49974 0.28873 0.07662 0.0
H522 H 0.55477 0.38061 0.00851 0.0
C523 C 0.51952 0.33014 0.10304 0.0
H524 H 0.49661 0.27723 0.02149 0.0
C525 C 0.55265 0.38924 0.09562 0.0
C526 C 0.56712 0.40844 0.06159 0.0
H527 H 0.51112 0.31682 0.12963 0.0
H528 H 0.56876 0.41969 0.11675 0.0
C529 C 0.54475 0.36728 0.03502 0.0
C530 C 0.829 0.5211 0.38319 0.0
C531 C 0.82111 0.53302 0.34911 0.0
H532 H 0.85792 0.47649 0.4168 0.0
C533 C 0.8428 0.5133 0.32251 0.0
H534 H 0.81286 0.53574 0.40429 0.0
C535 C 0.86854 0.47942 0.32965 0.0
C536 C 0.87308 0.46429 0.36358 0.0
H537 H 0.83787 0.5221 0.29598 0.0
H538 H 0.8828 0.46322 0.3084 0.0
C539 C 0.85466 0.48696 0.39036 0.0
C540 C 0.16241 0.60763 0.60924 0.0
C541 C 0.167 0.64482 0.58225 0.0
H542 H 0.16144 0.52936 0.62406 0.0
C543 C 0.16851 0.6276 0.54838 0.0
H544 H 0.16077 0.61946 0.63561 0.0
C545 C 0.16924 0.57613 0.54179 0.0
C546 C 0.16804 0.54061 0.56889 0.0
H547 H 0.17185 0.65511 0.52699 0.0
H548 H 0.17279 0.56525 0.51548 0.0
C549 C 0.1627 0.55592 0.60262 0.0
C550 C 0.42243 0.85394 0.88425 0.0
C551 C 0.38761 0.85415 0.85708 0.0
H552 H 0.49906 0.85141 0.8992 0.0
C553 C 0.40738 0.85749 0.82329 0.0
H554 H 0.40864 0.85193 0.91059 0.0
C555 C 0.45913 0.85694 0.81676 0.0
C556 C 0.49233 0.8535 0.84388 0.0
H557 H 0.38167 0.85797 0.8018 0.0
H558 H 0.47201 0.85716 0.79038 0.0
C559 C 0.47438 0.85383 0.87772 0.0
C560 C 0.46699 0.61813 0.60473 0.0
C561 C 0.48422 0.63667 0.57087 0.0
H562 H 0.40147 0.55529 0.63773 0.0
C563 C 0.44986 0.60147 0.54379 0.0
H564 H 0.49255 0.64421 0.62617 0.0
C565 C 0.39786 0.55034 0.55039 0.0
C566 C 0.37886 0.53356 0.58424 0.0
H567 H 0.46219 0.61431 0.5174 0.0
H568 H 0.37141 0.52535 0.52892 0.0
C569 C 0.4147 0.56721 0.61135 0.0
C570 C 0.16963 0.62923 0.87721 0.0
C571 C 0.16777 0.64656 0.84342 0.0
H572 H 0.17386 0.56657 0.90986 0.0
C573 C 0.16261 0.60933 0.81633 0.0
H574 H 0.17343 0.65679 0.89867 0.0
C575 C 0.16261 0.55742 0.82275 0.0
C576 C 0.16822 0.54194 0.85639 0.0
H577 H 0.16069 0.62124 0.79 0.0
H578 H 0.16087 0.53081 0.80123 0.0
C579 C 0.17006 0.57756 0.88361 0.0
C580 C 0.42211 0.85225 0.54221 0.0
C581 C 0.3869 0.8523 0.5692 0.0
H582 H 0.49915 0.85019 0.52765 0.0
C583 C 0.40632 0.85575 0.60308 0.0
H584 H 0.40859 0.85016 0.5158 0.0
C585 C 0.45814 0.8555 0.60988 0.0
C586 C 0.49178 0.85229 0.58294 0.0
H587 H 0.3803 0.85609 0.62443 0.0
H588 H 0.47076 0.85581 0.63632 0.0
C589 C 0.47414 0.85247 0.549 0.0
C590 C 0.44903 0.60086 0.88211 0.0
C591 C 0.48371 0.63671 0.85532 0.0
H592 H 0.37032 0.52449 0.89637 0.0
C593 C 0.46677 0.61908 0.82131 0.0
H594 H 0.46112 0.61299 0.90861 0.0
C595 C 0.41446 0.56843 0.81428 0.0
C596 C 0.37831 0.53413 0.84112 0.0
H597 H 0.49258 0.64568 0.80009 0.0
H598 H 0.40148 0.55722 0.78781 0.0
C599 C 0.39701 0.54999 0.8751 0.0
loop_
_geom_bond_atom_site_label_1
_geom_bond_atom_site_label_2
_geom_bond_distance
_geom_bond_site_symmetry_2
_ccdc_geom_bond_type
Zn0 O6 1.969 . S
Zn0 O7 1.965 . S
Zn0 O11 2.024 . S
Zn0 O16 1.969 . S
Zn1 O8 1.969 . S
Zn1 O14 1.969 . S
Zn1 O15 1.965 . S
Zn1 O17 2.024 . S
C2 O3 1.229 . S
C2 O11 1.058 . S
O3 C2 1.229 . S
C4 O5 1.229 . S
C4 O17 1.058 . S
O5 C4 1.229 . S
O6 Zn0 1.969 . S
O6 C9 1.267 1_545 S
O7 Zn0 1.965 . S
O7 C18 1.260 . S
O8 Zn1 1.969 . S
O8 C18 1.258 . S
C9 O6 1.267 1_565 S
C9 O10 1.228 . S
O10 C9 1.228 . S
O11 Zn0 2.024 . S
O11 C2 1.058 . S
C12 O13 1.228 . S
C12 O14 1.267 . S
O13 C12 1.228 . S
O14 Zn1 1.969 . S
O14 C12 1.267 . S
O15 Zn1 1.965 . S
O15 C19 1.260 . S
O16 Zn0 1.969 . S
O16 C19 1.258 . S
O17 Zn1 2.024 . S
O17 C4 1.058 . S
C18 O7 1.260 . S
C18 O8 1.258 . S
C19 O15 1.260 . S
C19 O16 1.258 . S
Zn20 O26 1.969 . S
Zn20 O27 1.965 . S
Zn20 O31 2.024 . S
Zn20 O36 1.969 . S
Zn21 O28 1.969 . S
Zn21 O34 1.969 . S
Zn21 O35 1.965 . S
Zn21 O37 2.024 . S
C22 O23 1.229 . S
C22 O31 1.058 . S
O23 C22 1.229 . S
C24 O25 1.229 . S
C24 O37 1.058 . S
O25 C24 1.229 . S
O26 Zn20 1.969 . S
O26 C29 1.267 . S
O27 Zn20 1.965 . S
O27 C38 1.260 . S
O28 Zn21 1.969 . S
O28 C38 1.258 . S
C29 O26 1.267 . S
C29 O30 1.228 . S
O30 C29 1.228 . S
O31 Zn20 2.024 . S
O31 C22 1.058 . S
C32 O33 1.228 . S
C32 O34 1.267 . S
O33 C32 1.228 . S
O34 Zn21 1.969 . S
O34 C32 1.267 . S
O35 Zn21 1.965 . S
O35 C39 1.260 . S
O36 Zn20 1.969 . S
O36 C39 1.258 . S
O37 Zn21 2.024 . S
O37 C24 1.058 . S
C38 O27 1.260 . S
C38 O28 1.258 . S
C39 O35 1.260 . S
C39 O36 1.258 . S
Zn40 O46 1.969 . S
Zn40 O47 1.965 . S
Zn40 O51 2.024 . S
Zn40 O56 1.969 . S
Zn41 O48 1.969 . S
Zn41 O54 1.969 . S
Zn41 O55 1.965 . S
Zn41 O57 2.024 . S
C42 O43 1.229 . S
C42 O51 1.058 . S
O43 C42 1.229 . S
C44 O45 1.229 . S
C44 O57 1.058 . S
O45 C44 1.229 . S
O46 Zn40 1.969 . S
O46 C49 1.267 1_655 S
O47 Zn40 1.965 . S
O47 C58 1.260 . S
O48 Zn41 1.969 . S
O48 C58 1.258 . S
C49 O46 1.267 1_455 S
C49 O50 1.228 . S
O50 C49 1.228 . S
O51 Zn40 2.024 . S
O51 C42 1.058 . S
C52 O53 1.228 . S
C52 O54 1.267 . S
O53 C52 1.228 . S
O54 Zn41 1.969 . S
O54 C52 1.267 . S
O55 Zn41 1.965 . S
O55 C59 1.260 . S
O56 Zn40 1.969 . S
O56 C59 1.258 . S
O57 Zn41 2.024 . S
O57 C44 1.058 . S
C58 O47 1.260 . S
C58 O48 1.258 . S
C59 O55 1.260 . S
C59 O56 1.258 . S
Zn60 O66 1.969 . S
Zn60 O67 1.965 . S
Zn60 O71 2.024 . S
Zn60 O76 1.969 . S
Zn61 O68 1.969 . S
Zn61 O74 1.969 . S
Zn61 O75 1.965 . S
Zn61 O77 2.024 . S
C62 O63 1.229 . S
C62 O71 1.058 . S
O63 C62 1.229 . S
C64 O65 1.229 . S
C64 O77 1.058 . S
O65 C64 1.229 . S
O66 Zn60 1.969 . S
O66 C69 1.267 . S
O67 Zn60 1.965 . S
O67 C78 1.260 . S
O68 Zn61 1.969 . S
O68 C78 1.258 . S
C69 O66 1.267 . S
C69 O70 1.228 . S
O70 C69 1.228 . S
O71 Zn60 2.024 . S
O71 C62 1.058 . S
C72 O73 1.228 . S
C72 O74 1.267 1_565 S
O73 C72 1.228 . S
O74 Zn61 1.969 . S
O74 C72 1.267 1_545 S
O75 Zn61 1.965 . S
O75 C79 1.260 . S
O76 Zn60 1.969 . S
O76 C79 1.258 . S
O77 Zn61 2.024 . S
O77 C64 1.058 . S
C78 O67 1.260 . S
C78 O68 1.258 . S
C79 O75 1.260 . S
C79 O76 1.258 . S
Zn80 O86 1.969 . S
Zn80 O87 1.965 . S
Zn80 O91 2.024 . S
Zn80 O96 1.969 . S
Zn81 O88 1.969 . S
Zn81 O94 1.969 . S
Zn81 O95 1.965 . S
Zn81 O97 2.024 . S
C82 O83 1.229 . S
C82 O91 1.058 . S
O83 C82 1.229 . S
C84 O85 1.229 . S
C84 O97 1.058 . S
O85 C84 1.229 . S
O86 Zn80 1.969 . S
O86 C89 1.267 . S
O87 Zn80 1.965 . S
O87 C98 1.260 . S
O88 Zn81 1.969 . S
O88 C98 1.258 . S
C89 O86 1.267 . S
C89 O90 1.228 . S
O90 C89 1.228 . S
O91 Zn80 2.024 . S
O91 C82 1.058 . S
C92 O93 1.228 . S
C92 O94 1.267 . S
O93 C92 1.228 . S
O94 Zn81 1.969 . S
O94 C92 1.267 . S
O95 Zn81 1.965 . S
O95 C99 1.260 . S
O96 Zn80 1.969 . S
O96 C99 1.258 . S
O97 Zn81 2.024 . S
O97 C84 1.058 . S
C98 O87 1.260 . S
C98 O88 1.258 . S
C99 O95 1.260 . S
C99 O96 1.258 . S
Zn100 O106 1.969 . S
Zn100 O107 1.965 . S
Zn100 O111 2.024 . S
Zn100 O116 1.969 . S
Zn101 O108 1.969 . S
Zn101 O114 1.969 . S
Zn101 O115 1.965 . S
Zn101 O117 2.024 . S
C102 O103 1.229 . S
C102 O111 1.058 . S
O103 C102 1.229 . S
C104 O105 1.229 . S
C104 O117 1.058 . S
O105 C104 1.229 . S
O106 Zn100 1.969 . S
O106 C109 1.267 . S
O107 Zn100 1.965 . S
O107 C118 1.260 . S
O108 Zn101 1.969 . S
O108 C118 1.258 . S
C109 O106 1.267 . S
C109 O110 1.228 . S
O110 C109 1.228 . S
O111 Zn100 2.024 . S
O111 C102 1.058 . S
C112 O113 1.228 . S
C112 O114 1.267 1_455 S
O113 C112 1.228 . S
O114 Zn101 1.969 . S
O114 C112 1.267 1_655 S
O115 Zn101 1.965 . S
O115 C119 1.260 . S
O116 Zn100 1.969 . S
O116 C119 1.258 . S
O117 Zn101 2.024 . S
O117 C104 1.058 . S
C118 O107 1.260 . S
C118 O108 1.258 . S
C119 O115 1.260 . S
C119 O116 1.258 . S
Zn120 O126 1.969 . S
Zn120 O127 1.965 . S
Zn120 O131 2.024 . S
Zn120 O136 1.969 . S
Zn121 O128 1.969 . S
Zn121 O134 1.969 . S
Zn121 O135 1.965 . S
Zn121 O137 2.024 . S
C122 O123 1.229 . S
C122 O131 1.058 . S
O123 C122 1.229 . S
C124 O125 1.229 . S
C124 O137 1.058 . S
O125 C124 1.229 . S
O126 Zn120 1.969 . S
O126 C129 1.267 . S
O127 Zn120 1.965 . S
O127 C138 1.260 . S
O128 Zn121 1.969 . S
O128 C138 1.258 . S
C129 O126 1.267 . S
C129 O130 1.228 . S
O130 C129 1.228 . S
O131 Zn120 2.024 . S
O131 C122 1.058 . S
C132 O133 1.228 . S
C132 O134 1.267 1_655 S
O133 C132 1.228 . S
O134 Zn121 1.969 . S
O134 C132 1.267 1_455 S
O135 Zn121 1.965 . S
O135 C139 1.260 . S
O136 Zn120 1.969 . S
O136 C139 1.258 . S
O137 Zn121 2.024 . S
O137 C124 1.058 . S
C138 O127 1.260 . S
C138 O128 1.258 . S
C139 O135 1.260 . S
C139 O136 1.258 . S
Zn140 O146 1.969 . S
Zn140 O147 1.965 . S
Zn140 O151 2.024 . S
Zn140 O156 1.969 . S
Zn141 O148 1.969 . S
Zn141 O154 1.969 . S
Zn141 O155 1.965 . S
Zn141 O157 2.024 . S
C142 O143 1.229 . S
C142 O151 1.058 . S
O143 C142 1.229 . S
C144 O145 1.229 . S
C144 O157 1.058 . S
O145 C144 1.229 . S
O146 Zn140 1.969 . S
O146 C149 1.267 1_565 S
O147 Zn140 1.965 . S
O147 C158 1.260 . S
O148 Zn141 1.969 . S
O148 C158 1.258 . S
C149 O146 1.267 1_545 S
C149 O150 1.228 . S
O150 C149 1.228 . S
O151 Zn140 2.024 . S
O151 C142 1.058 . S
C152 O153 1.228 . S
C152 O154 1.267 . S
O153 C152 1.228 . S
O154 Zn141 1.969 . S
O154 C152 1.267 . S
O155 Zn141 1.965 . S
O155 C159 1.260 . S
O156 Zn140 1.969 . S
O156 C159 1.258 . S
O157 Zn141 2.024 . S
O157 C144 1.058 . S
C158 O147 1.260 . S
C158 O148 1.258 . S
C159 O155 1.260 . S
C159 O156 1.258 . S
Zn160 O166 1.969 . S
Zn160 O167 1.965 . S
Zn160 O171 2.024 . S
Zn160 O176 1.969 . S
Zn161 O168 1.969 . S
Zn161 O174 1.969 . S
Zn161 O175 1.965 . S
Zn161 O177 2.024 . S
C162 O163 1.229 . S
C162 O171 1.058 . S
O163 C162 1.229 . S
C164 O165 1.229 . S
C164 O177 1.058 . S
O165 C164 1.229 . S
O166 Zn160 1.969 . S
O166 C169 1.267 . S
O167 Zn160 1.965 . S
O167 C178 1.260 . S
O168 Zn161 1.969 . S
O168 C178 1.258 . S
C169 O166 1.267 . S
C169 O170 1.228 . S
O170 C169 1.228 . S
O171 Zn160 2.024 . S
O171 C162 1.058 . S
C172 O173 1.228 . S
C172 O174 1.267 . S
O173 C172 1.228 . S
O174 Zn161 1.969 . S
O174 C172 1.267 . S
O175 Zn161 1.965 . S
O175 C179 1.260 . S
O176 Zn160 1.969 . S
O176 C179 1.258 . S
O177 Zn161 2.024 . S
O177 C164 1.058 . S
C178 O167 1.260 . S
C178 O168 1.258 . S
C179 O175 1.260 . S
C179 O176 1.258 . S
Zn180 O186 1.969 . S
Zn180 O187 1.965 . S
Zn180 O191 2.024 . S
Zn180 O196 1.969 . S
Zn181 O188 1.969 . S
Zn181 O194 1.969 . S
Zn181 O195 1.965 . S
Zn181 O197 2.024 . S
C182 O183 1.229 . S
C182 O191 1.058 . S
O183 C182 1.229 . S
C184 O185 1.229 . S
C184 O197 1.058 . S
O185 C184 1.229 . S
O186 Zn180 1.969 . S
O186 C189 1.267 1_455 S
O187 Zn180 1.965 . S
O187 C198 1.260 . S
O188 Zn181 1.969 . S
O188 C198 1.258 . S
C189 O186 1.267 1_655 S
C189 O190 1.228 . S
O190 C189 1.228 . S
O191 Zn180 2.024 . S
O191 C182 1.058 . S
C192 O193 1.228 . S
C192 O194 1.267 . S
O193 C192 1.228 . S
O194 Zn181 1.969 . S
O194 C192 1.267 . S
O195 Zn181 1.965 . S
O195 C199 1.260 . S
O196 Zn180 1.969 . S
O196 C199 1.258 . S
O197 Zn181 2.024 . S
O197 C184 1.058 . S
C198 O187 1.260 . S
C198 O188 1.258 . S
C199 O195 1.260 . S
C199 O196 1.258 . S
Zn200 O206 1.969 . S
Zn200 O207 1.965 . S
Zn200 O211 2.024 . S
Zn200 O216 1.969 . S
Zn201 O208 1.969 . S
Zn201 O214 1.969 . S
Zn201 O215 1.965 . S
Zn201 O217 2.024 . S
C202 O203 1.229 . S
C202 O211 1.058 . S
O203 C202 1.229 . S
C204 O205 1.229 . S
C204 O217 1.058 . S
O205 C204 1.229 . S
O206 Zn200 1.969 . S
O206 C209 1.267 . S
O207 Zn200 1.965 . S
O207 C218 1.260 . S
O208 Zn201 1.969 . S
O208 C218 1.258 . S
C209 O206 1.267 . S
C209 O210 1.228 . S
O210 C209 1.228 . S
O211 Zn200 2.024 . S
O211 C202 1.058 . S
C212 O213 1.228 . S
C212 O214 1.267 1_545 S
O213 C212 1.228 . S
O214 Zn201 1.969 . S
O214 C212 1.267 1_565 S
O215 Zn201 1.965 . S
O215 C219 1.260 . S
O216 Zn200 1.969 . S
O216 C219 1.258 . S
O217 Zn201 2.024 . S
O217 C204 1.058 . S
C218 O207 1.260 . S
C218 O208 1.258 . S
C219 O215 1.260 . S
C219 O216 1.258 . S
Zn220 O226 1.969 . S
Zn220 O227 1.965 . S
Zn220 O231 2.024 . S
Zn220 O236 1.969 . S
Zn221 O228 1.969 . S
Zn221 O234 1.969 . S
Zn221 O235 1.965 . S
Zn221 O237 2.024 . S
C222 O223 1.229 . S
C222 O231 1.058 . S
O223 C222 1.229 . S
C224 O225 1.229 . S
C224 O237 1.058 . S
O225 C224 1.229 . S
O226 Zn220 1.969 . S
O226 C229 1.267 . S
O227 Zn220 1.965 . S
O227 C238 1.260 . S
O228 Zn221 1.969 . S
O228 C238 1.258 . S
C229 O226 1.267 . S
C229 O230 1.228 . S
O230 C229 1.228 . S
O231 Zn220 2.024 . S
O231 C222 1.058 . S
C232 O233 1.228 . S
C232 O234 1.267 . S
O233 C232 1.228 . S
O234 Zn221 1.969 . S
O234 C232 1.267 . S
O235 Zn221 1.965 . S
O235 C239 1.260 . S
O236 Zn220 1.969 . S
O236 C239 1.258 . S
O237 Zn221 2.024 . S
O237 C224 1.058 . S
C238 O227 1.260 . S
C238 O228 1.258 . S
C239 O235 1.260 . S
C239 O236 1.258 . S
C240 C241 1.387 . S
C240 H244 0.950 . S
C240 C249 1.390 . S
C241 C240 1.387 . S
C241 C243 1.387 . S
H242 C249 0.950 . S
C243 C241 1.387 . S
C243 C245 1.390 . S
C243 H247 0.950 . S
H244 C240 0.950 . S
C245 C243 1.390 . S
C245 C246 1.387 . S
C245 H248 0.950 . S
C246 C245 1.387 . S
C246 C249 1.387 . S
H247 C243 0.950 . S
H248 C245 0.950 . S
C249 C240 1.390 . S
C249 H242 0.950 . S
C249 C246 1.387 . S
C250 C251 1.387 . S
C250 H254 0.950 . S
C250 C259 1.390 . S
C251 C250 1.387 . S
C251 C253 1.387 . S
H252 C259 0.950 . S
C253 C251 1.387 . S
C253 C255 1.390 . S
C253 H257 0.950 . S
H254 C250 0.950 . S
C255 C253 1.390 . S
C255 C256 1.387 . S
C255 H258 0.950 . S
C256 C255 1.387 . S
C256 C259 1.387 . S
H257 C253 0.950 . S
H258 C255 0.950 . S
C259 C250 1.390 . S
C259 H252 0.950 . S
C259 C256 1.387 . S
C260 C261 1.387 . S
C260 H264 0.950 . S
C260 C269 1.390 . S
C261 C260 1.387 . S
C261 C263 1.387 . S
H262 C269 0.950 . S
C263 C261 1.387 . S
C263 C265 1.390 . S
C263 H267 0.950 . S
H264 C260 0.950 . S
C265 C263 1.390 . S
C265 C266 1.387 . S
C265 H268 0.950 . S
C266 C265 1.387 . S
C266 C269 1.387 . S
H267 C263 0.950 . S
H268 C265 0.950 . S
C269 C260 1.390 . S
C269 H262 0.950 . S
C269 C266 1.387 . S
C270 C271 1.387 . S
C270 H274 0.950 . S
C270 C279 1.390 . S
C271 C270 1.387 . S
C271 C273 1.387 . S
H272 C279 0.950 . S
C273 C271 1.387 . S
C273 C275 1.390 . S
C273 H277 0.950 . S
H274 C270 0.950 . S
C275 C273 1.390 . S
C275 C276 1.387 . S
C275 H278 0.950 . S
C276 C275 1.387 . S
C276 C279 1.387 . S
H277 C273 0.950 . S
H278 C275 0.950 . S
C279 C270 1.390 . S
C279 H272 0.950 . S
C279 C276 1.387 . S
C280 C281 1.387 . S
C280 H284 0.950 . S
C280 C289 1.390 . S
C281 C280 1.387 . S
C281 C283 1.387 . S
H282 C289 0.950 . S
C283 C281 1.387 . S
C283 C285 1.390 . S
C283 H287 0.950 . S
H284 C280 0.950 . S
C285 C283 1.390 . S
C285 C286 1.387 . S
C285 H288 0.950 . S
C286 C285 1.387 . S
C286 C289 1.387 . S
H287 C283 0.950 . S
H288 C285 0.950 . S
C289 C280 1.390 . S
C289 H282 0.950 . S
C289 C286 1.387 . S
C290 C291 1.387 . S
C290 H294 0.950 . S
C290 C299 1.390 . S
C291 C290 1.387 . S
C291 C293 1.387 . S
H292 C299 0.950 . S
C293 C291 1.387 . S
C293 C295 1.390 . S
C293 H297 0.950 . S
H294 C290 0.950 . S
C295 C293 1.390 . S
C295 C296 1.387 . S
C295 H298 0.942 1_565 S
C296 C295 1.387 . S
C296 C299 1.387 . S
H297 C293 0.950 . S
H298 C295 0.942 1_545 S
C299 C290 1.390 . S
C299 H292 0.950 . S
C299 C296 1.387 . S
C300 C301 1.387 . S
C300 H304 0.950 . S
C300 C309 1.390 . S
C301 C300 1.387 . S
C301 C303 1.387 . S
H302 C309 0.950 . S
C303 C301 1.387 . S
C303 C305 1.390 . S
C303 H307 0.950 . S
H304 C300 0.950 . S
C305 C303 1.390 . S
C305 C306 1.387 . S
C305 H308 0.950 . S
C306 C305 1.387 . S
C306 C309 1.387 . S
H307 C303 0.950 . S
H308 C305 0.950 . S
C309 C300 1.390 . S
C309 H302 0.950 . S
C309 C306 1.387 . S
C310 C311 1.387 . S
C310 H314 0.950 . S
C310 C319 1.390 . S
C311 C310 1.387 . S
C311 C313 1.387 . S
H312 C319 0.950 . S
C313 C311 1.387 . S
C313 C315 1.390 . S
C313 H317 0.950 . S
H314 C310 0.950 . S
C315 C313 1.390 . S
C315 C316 1.387 . S
C315 H318 0.950 . S
C316 C315 1.387 . S
C316 C319 1.387 . S
H317 C313 0.950 . S
H318 C315 0.950 . S
C319 C310 1.390 . S
C319 H312 0.950 . S
C319 C316 1.387 . S
C320 C321 1.387 . S
C320 H324 0.950 . S
C320 C329 1.390 . S
C321 C320 1.387 . S
C321 C323 1.387 . S
H322 C329 0.950 . S
C323 C321 1.387 . S
C323 C325 1.390 . S
C323 H327 0.950 . S
H324 C320 0.950 . S
C325 C323 1.390 . S
C325 C326 1.387 . S
C325 H328 0.950 . S
C326 C325 1.387 . S
C326 C329 1.387 . S
H327 C323 0.950 . S
H328 C325 0.950 . S
C329 C320 1.390 . S
C329 H322 0.950 . S
C329 C326 1.387 . S
C330 C331 1.387 . S
C330 H334 0.950 . S
C330 C339 1.390 . S
C331 C330 1.387 . S
C331 C333 1.387 . S
H332 C339 0.950 . S
C333 C331 1.387 . S
C333 C335 1.390 . S
C333 H337 0.950 . S
H334 C330 0.950 . S
C335 C333 1.390 . S
C335 C336 1.387 . S
C335 H338 0.950 . S
C336 C335 1.387 . S
C336 C339 1.387 . S
H337 C333 0.950 . S
H338 C335 0.950 . S
C339 C330 1.390 . S
C339 H332 0.950 . S
C339 C336 1.387 . S
C340 C341 1.387 . S
C340 H344 0.950 . S
C340 C349 1.390 . S
C341 C340 1.387 . S
C341 C343 1.387 . S
H342 C349 0.950 . S
C343 C341 1.387 . S
C343 C345 1.390 . S
C343 H347 0.950 . S
H344 C340 0.950 . S
C345 C343 1.390 . S
C345 C346 1.387 . S
C345 H348 0.950 . S
C346 C345 1.387 . S
C346 C349 1.387 . S
H347 C343 0.950 . S
H348 C345 0.950 . S
C349 C340 1.390 . S
C349 H342 0.950 . S
C349 C346 1.387 . S
C350 C351 1.387 . S
C350 H354 0.950 . S
C350 C359 1.390 . S
C351 C350 1.387 . S
C351 C353 1.387 . S
H352 C359 0.950 . S
C353 C351 1.387 . S
C353 C355 1.390 . S
C353 H357 0.950 . S
H354 C350 0.950 . S
C355 C353 1.390 . S
C355 C356 1.387 . S
C355 H358 0.950 . S
C356 C355 1.387 . S
C356 C359 1.387 . S
H357 C353 0.950 . S
H358 C355 0.950 . S
C359 C350 1.390 . S
C359 H352 0.950 . S
C359 C356 1.387 . S
C360 C361 1.387 . S
C360 H364 0.950 . S
C360 C369 1.390 . S
C361 C360 1.387 . S
C361 C363 1.387 . S
H362 C369 0.950 . S
C363 C361 1.387 . S
C363 C365 1.390 . S
C363 H367 0.950 . S
H364 C360 0.950 . S
C365 C363 1.390 . S
C365 C366 1.387 . S
C365 H368 0.950 . S
C366 C365 1.387 . S
C366 C369 1.387 . S
H367 C363 0.950 . S
H368 C365 0.950 . S
C369 C360 1.390 . S
C369 H362 0.950 . S
C369 C366 1.387 . S
C370 C371 1.387 . S
C370 H374 0.950 . S
C370 C379 1.390 . S
C371 C370 1.387 . S
C371 C373 1.387 . S
H372 C379 0.950 . S
C373 C371 1.387 . S
C373 C375 1.390 . S
C373 H377 0.950 . S
H374 C370 0.950 . S
C375 C373 1.390 . S
C375 C376 1.387 . S
C375 H378 0.950 . S
C376 C375 1.387 . S
C376 C379 1.387 . S
H377 C373 0.950 . S
H378 C375 0.950 . S
C379 C370 1.390 . S
C379 H372 0.950 . S
C379 C376 1.387 . S
C380 C381 1.387 . S
C380 H384 0.950 . S
C380 C389 1.390 . S
C381 C380 1.387 . S
C381 C383 1.387 . S
H382 C389 0.950 . S
C383 C381 1.387 . S
C383 C385 1.390 . S
C383 H387 0.950 . S
H384 C380 0.950 . S
C385 C383 1.390 . S
C385 C386 1.387 . S
C385 H388 0.950 . S
C386 C385 1.387 . S
C386 C389 1.387 . S
H387 C383 0.950 . S
H388 C385 0.950 . S
C389 C380 1.390 . S
C389 H382 0.950 . S
C389 C386 1.387 . S
C390 C391 1.387 . S
C390 H394 0.950 . S
C390 C399 1.390 . S
C391 C390 1.387 . S
C391 C393 1.387 . S
H392 C399 0.950 . S
C393 C391 1.387 . S
C393 C395 1.390 . S
C393 H397 0.950 . S
H394 C390 0.950 . S
C395 C393 1.390 . S
C395 C396 1.387 . S
C395 H398 0.950 . S
C396 C395 1.387 . S
C396 C399 1.387 . S
H397 C393 0.950 . S
H398 C395 0.950 . S
C399 C390 1.390 . S
C399 H392 0.950 . S
C399 C396 1.387 . S
C400 C401 1.387 . S
C400 H404 0.950 . S
C400 C409 1.390 . S
C401 C400 1.387 . S
C401 C403 1.387 . S
H402 C409 0.950 . S
C403 C401 1.387 . S
C403 C405 1.390 . S
C403 H407 0.950 . S
H404 C400 0.950 . S
C405 C403 1.390 . S
C405 C406 1.387 . S
C405 H408 0.950 . S
C406 C405 1.387 . S
C406 C409 1.387 . S
H407 C403 0.950 . S
H408 C405 0.950 . S
C409 C400 1.390 . S
C409 H402 0.950 . S
C409 C406 1.387 . S
C410 C411 1.387 . S
C410 H414 0.950 . S
C410 C419 1.390 . S
C411 C410 1.387 . S
C411 C413 1.387 . S
H412 C419 0.950 . S
C413 C411 1.387 . S
C413 C415 1.390 . S
C413 H417 0.950 . S
H414 C410 0.950 . S
C415 C413 1.390 . S
C415 C416 1.387 . S
C415 H418 0.950 . S
C416 C415 1.387 . S
C416 C419 1.387 . S
H417 C413 0.950 . S
H418 C415 0.950 . S
C419 C410 1.390 . S
C419 H412 0.950 . S
C419 C416 1.387 . S
C420 C421 1.387 . S
C420 H424 0.950 . S
C420 C429 1.390 1_566 S
C421 C420 1.387 . S
C421 C423 1.387 . S
H422 C429 0.950 . S
C423 C421 1.387 . S
C423 C425 1.390 1_566 S
C423 H427 0.950 . S
H424 C420 0.950 . S
C425 C423 1.390 1_544 S
C425 C426 1.387 . S
C425 H428 0.950 . S
C426 C425 1.387 . S
C426 C429 1.387 . S
H427 C423 0.950 . S
H428 C425 0.950 . S
C429 C420 1.390 1_544 S
C429 H422 0.950 . S
C429 C426 1.387 . S
C430 C431 1.387 . S
C430 H434 0.950 . S
C430 C439 1.390 . S
C431 C430 1.387 . S
C431 C433 1.387 . S
H432 C439 0.950 . S
C433 C431 1.387 . S
C433 C435 1.390 . S
C433 H437 0.950 . S
H434 C430 0.950 . S
C435 C433 1.390 . S
C435 C436 1.387 . S
C435 H438 0.950 . S
C436 C435 1.387 . S
C436 C439 1.387 . S
H437 C433 0.950 . S
H438 C435 0.950 . S
C439 C430 1.390 . S
C439 H432 0.950 . S
C439 C436 1.387 . S
C440 C441 1.387 . S
C440 H444 0.950 . S
C440 C449 1.390 1_455 S
C441 C440 1.387 . S
C441 C443 1.387 1_556 S
H442 C449 0.950 . S
C443 C441 1.387 1_554 S
C443 C445 1.390 1_455 S
C443 H447 0.950 . S
H444 C440 0.950 . S
C445 C443 1.390 1_655 S
C445 C446 1.387 . S
C445 H448 0.950 . S
C446 C445 1.387 . S
C446 C449 1.387 1_554 S
H447 C443 0.950 . S
H448 C445 0.950 . S
C449 C440 1.390 1_655 S
C449 H442 0.950 . S
C449 C446 1.387 1_556 S
C450 C451 1.387 . S
C450 H454 0.950 . S
C450 C459 1.390 1_545 S
C451 C450 1.387 . S
C451 C453 1.387 . S
H452 C459 0.950 . S
C453 C451 1.387 . S
C453 C455 1.390 1_545 S
C453 H457 0.950 . S
H454 C450 0.950 . S
C455 C453 1.390 1_565 S
C455 C456 1.387 . S
C455 H458 0.950 . S
C456 C455 1.387 . S
C456 C459 1.387 . S
H457 C453 0.950 . S
H458 C455 0.950 . S
C459 C450 1.390 1_565 S
C459 H452 0.950 . S
C459 C456 1.387 . S
C460 C461 1.387 . S
C460 H464 0.950 . S
C460 C469 1.390 . S
C461 C460 1.387 . S
C461 C463 1.387 1_554 S
H462 C469 0.950 . S
C463 C461 1.387 1_556 S
C463 C465 1.390 . S
C463 H467 0.950 . S
H464 C460 0.950 . S
C465 C463 1.390 . S
C465 C466 1.387 . S
C465 H468 0.950 . S
C466 C465 1.387 . S
C466 C469 1.387 1_556 S
H467 C463 0.950 . S
H468 C465 0.950 . S
C469 C460 1.390 . S
C469 H462 0.950 . S
C469 C466 1.387 1_554 S
C470 C471 1.387 . S
C470 H474 0.950 . S
C470 C479 1.390 1_455 S
C471 C470 1.387 . S
C471 C473 1.387 . S
H472 C479 0.950 . S
C473 C471 1.387 . S
C473 C475 1.390 1_455 S
C473 H477 0.950 . S
H474 C470 0.950 . S
C475 C473 1.390 1_655 S
C475 C476 1.387 . S
C475 H478 0.950 . S
C476 C475 1.387 . S
C476 C479 1.387 . S
H477 C473 0.950 . S
H478 C475 0.950 . S
C479 C470 1.390 1_655 S
C479 H472 0.950 . S
C479 C476 1.387 . S
C480 C481 1.387 . S
C480 H484 0.950 . S
C480 C489 1.390 . S
C481 C480 1.387 . S
C481 C483 1.387 . S
H482 C489 0.950 . S
C483 C481 1.387 . S
C483 C485 1.390 . S
C483 H487 0.950 . S
H484 C480 0.950 . S
C485 C483 1.390 . S
C485 C486 1.387 . S
C485 H488 0.950 . S
C486 C485 1.387 . S
C486 C489 1.387 . S
H487 C483 0.950 . S
H488 C485 0.950 . S
C489 C480 1.390 . S
C489 H482 0.950 . S
C489 C486 1.387 . S
C490 C491 1.387 . S
C490 H494 0.950 . S
C490 C499 1.390 . S
C491 C490 1.387 . S
C491 C493 1.387 . S
H492 C499 0.950 . S
C493 C491 1.387 . S
C493 C495 1.390 . S
C493 H497 0.950 . S
H494 C490 0.950 . S
C495 C493 1.390 . S
C495 C496 1.387 . S
C495 H498 0.950 . S
C496 C495 1.387 . S
C496 C499 1.387 . S
H497 C493 0.950 . S
H498 C495 0.950 . S
C499 C490 1.390 . S
C499 H492 0.950 . S
C499 C496 1.387 . S
C500 C501 1.387 . S
C500 H504 0.950 . S
C500 C509 1.390 . S
C501 C500 1.387 . S
C501 C503 1.387 . S
H502 C509 0.950 . S
C503 C501 1.387 . S
C503 C505 1.390 . S
C503 H507 0.950 . S
H504 C500 0.950 . S
C505 C503 1.390 . S
C505 C506 1.387 . S
C505 H508 0.950 . S
C506 C505 1.387 . S
C506 C509 1.387 . S
H507 C503 0.950 . S
H508 C505 0.950 . S
C509 C500 1.390 . S
C509 H502 0.950 . S
C509 C506 1.387 . S
C510 C511 1.387 . S
C510 H514 0.950 . S
C510 C519 1.390 . S
C511 C510 1.387 . S
C511 C513 1.387 . S
H512 C519 0.950 . S
C513 C511 1.387 . S
C513 C515 1.390 . S
C513 H517 0.950 . S
H514 C510 0.950 . S
C515 C513 1.390 . S
C515 C516 1.387 . S
C515 H518 0.950 . S
C516 C515 1.387 . S
C516 C519 1.387 . S
H517 C513 0.950 . S
H518 C515 0.950 . S
C519 C510 1.390 . S
C519 H512 0.950 . S
C519 C516 1.387 . S
C520 C521 1.387 . S
C520 H524 0.950 . S
C520 C529 1.390 . S
C521 C520 1.387 . S
C521 C523 1.387 . S
H522 C529 0.950 . S
C523 C521 1.387 . S
C523 C525 1.390 . S
C523 H527 0.950 . S
H524 C520 0.950 . S
C525 C523 1.390 . S
C525 C526 1.387 . S
C525 H528 0.950 . S
C526 C525 1.387 . S
C526 C529 1.387 . S
H527 C523 0.950 . S
H528 C525 0.950 . S
C529 C520 1.390 . S
C529 H522 0.950 . S
C529 C526 1.387 . S
C530 C531 1.387 . S
C530 H534 0.950 . S
C530 C539 1.390 . S
C531 C530 1.387 . S
C531 C533 1.387 . S
H532 C539 0.950 . S
C533 C531 1.387 . S
C533 C535 1.390 . S
C533 H537 0.950 . S
H534 C530 0.950 . S
C535 C533 1.390 . S
C535 C536 1.387 . S
C535 H538 0.950 . S
C536 C535 1.387 . S
C536 C539 1.387 . S
H537 C533 0.950 . S
H538 C535 0.950 . S
C539 C530 1.390 . S
C539 H532 0.950 . S
C539 C536 1.387 . S
C540 C541 1.387 . S
C540 H544 0.950 . S
C540 C549 1.390 . S
C541 C540 1.387 . S
C541 C543 1.387 . S
H542 C549 0.950 . S
C543 C541 1.387 . S
C543 C545 1.390 . S
C543 H547 0.950 . S
H544 C540 0.950 . S
C545 C543 1.390 . S
C545 C546 1.387 . S
C545 H548 0.950 . S
C546 C545 1.387 . S
C546 C549 1.387 . S
H547 C543 0.950 . S
H548 C545 0.950 . S
C549 C540 1.390 . S
C549 H542 0.950 . S
C549 C546 1.387 . S
C550 C551 1.387 . S
C550 H554 0.950 . S
C550 C559 1.390 . S
C551 C550 1.387 . S
C551 C553 1.387 . S
H552 C559 0.950 . S
C553 C551 1.387 . S
C553 C555 1.390 . S
C553 H557 0.950 . S
H554 C550 0.950 . S
C555 C553 1.390 . S
C555 C556 1.387 . S
C555 H558 0.950 . S
C556 C555 1.387 . S
C556 C559 1.387 . S
H557 C553 0.950 . S
H558 C555 0.950 . S
C559 C550 1.390 . S
C559 H552 0.950 . S
C559 C556 1.387 . S
C560 C561 1.387 . S
C560 H564 0.950 . S
C560 C569 1.390 . S
C561 C560 1.387 . S
C561 C563 1.387 . S
H562 C569 0.950 . S
C563 C561 1.387 . S
C563 C565 1.390 . S
C563 H567 0.950 . S
H564 C560 0.950 . S
C565 C563 1.390 . S
C565 C566 1.387 . S
C565 H568 0.950 . S
C566 C565 1.387 . S
C566 C569 1.387 . S
H567 C563 0.950 . S
H568 C565 0.950 . S
C569 C560 1.390 . S
C569 H562 0.950 . S
C569 C566 1.387 . S
C570 C571 1.387 . S
C570 H574 0.950 . S
C570 C579 1.390 . S
C571 C570 1.387 . S
C571 C573 1.387 . S
H572 C579 0.950 . S
C573 C571 1.387 . S
C573 C575 1.390 . S
C573 H577 0.950 . S
H574 C570 0.950 . S
C575 C573 1.390 . S
C575 C576 1.387 . S
C575 H578 0.950 . S
C576 C575 1.387 . S
C576 C579 1.387 . S
H577 C573 0.950 . S
H578 C575 0.950 . S
C579 C570 1.390 . S
C579 H572 0.950 . S
C579 C576 1.387 . S
C580 C581 1.387 . S
C580 H584 0.950 . S
C580 C589 1.390 . S
C581 C580 1.387 . S
C581 C583 1.387 . S
H582 C589 0.950 . S
C583 C581 1.387 . S
C583 C585 1.390 . S
C583 H587 0.950 . S
H584 C580 0.950 . S
C585 C583 1.390 . S
C585 C586 1.387 . S
C585 H588 0.950 . S
C586 C585 1.387 . S
C586 C589 1.387 . S
H587 C583 0.950 . S
H588 C585 0.950 . S
C589 C580 1.390 . S
C589 H582 0.950 . S
C589 C586 1.387 . S
C590 C591 1.387 . S
C590 H594 0.950 . S
C590 C599 1.390 . S
C591 C590 1.387 . S
C591 C593 1.387 . S
H592 C599 0.950 . S
C593 C591 1.387 . S
C593 C595 1.390 . S
C593 H597 0.950 . S
H594 C590 0.950 . S
C595 C593 1.390 . S
C595 C596 1.387 . S
C595 H598 0.950 . S
C596 C595 1.387 . S
C596 C599 1.387 . S
H597 C593 0.950 . S
H598 C595 0.950 . S
C599 C590 1.390 . S
C599 H592 0.950 . S
C599 C596 1.387 . S
C241 C49 1.152 . S
C246 C2 1.223 . S
C251 C72 1.153 . S
C256 C24 1.223 1_455 S
C261 C42 1.224 1_565 S
C266 C89 1.153 . S
C271 C64 1.223 . S
C276 C112 1.153 . S
C281 C9 1.153 . S
C286 C82 1.224 1_455 S
C291 C32 1.158 . S
C296 C104 1.221 1_565 S
C301 C212 1.158 . S
C306 C124 1.221 . S
C311 C142 1.223 1_655 S
C316 C229 1.152 . S
C321 C164 1.223 1_545 S
C326 C132 1.152 . S
C331 C182 1.221 . S
C336 C149 1.158 . S
C341 C204 1.221 1_655 S
C346 C172 1.158 . S
C351 C189 1.152 . S
C356 C222 1.223 1_545 S
C361 C78 1.727 . S
C366 C19 1.726 . S
C371 C38 1.726 . S
C376 C99 1.727 . S
C381 C59 1.726 . S
C386 C118 1.728 . S
C391 C138 1.727 . S
C396 C199 1.727 . S
C401 C159 1.726 . S
C406 C218 1.728 . S
C411 C178 1.726 . S
C416 C239 1.728 . S
C421 C158 2.002 . S
C426 C18 2.002 . S
C431 C39 2.004 . S
C436 C179 2.003 . S
C441 C198 2.002 . S
C446 C58 2.003 . S
C451 C79 2.005 . S
C456 C219 2.005 . S
C461 C98 2.001 . S
C466 C238 2.002 . S
C471 C139 2.004 . S
C476 C119 2.005 . S
C481 C52 1.459 . S
C486 C4 1.297 . S
C491 C22 1.292 . S
C496 C69 1.459 . S
C501 C44 1.297 . S
C506 C92 1.459 . S
C511 C62 1.297 . S
C516 C109 1.459 . S
C521 C12 1.459 . S
C526 C84 1.297 . S
C531 C29 1.459 . S
C536 C102 1.292 . S
C541 C209 1.459 . S
C546 C122 1.297 . S
C551 C144 1.297 . S
C556 C232 1.460 . S
C561 C162 1.297 . S
C566 C129 1.459 . S
C571 C152 1.459 . S
C576 C184 1.297 . S
C581 C202 1.292 . S
C586 C169 1.460 . S
C591 C224 1.297 . S
C596 C192 1.459 . S
