# Generated by pormake.
# Topology yfj, (5)-cn, num edge types: 1
# Building blocks:
#     Node 0, Type 0, BuildingBlock: BEQFEK_clean_sbu_0, # of connection points: 5
#     Node 1, Type 0, BuildingBlock: BEQFEK_clean_sbu_0, # of connection points: 5
#     Node 2, Type 0, BuildingBlock: BEQFEK_clean_sbu_0, # of connection points: 5
#     Node 3, Type 0, BuildingBlock: BEQFEK_clean_sbu_0, # of connection points: 5
#     Node 4, Type 0, BuildingBlock: BEQFEK_clean_sbu_0, # of connection points: 5
#     Node 5, Type 0, BuildingBlock: BEQFEK_clean_sbu_0, # of connection points: 5
#     Node 6, Type 0, BuildingBlock: BEQFEK_clean_sbu_0, # of connection points: 5
#     Node 7, Type 0, BuildingBlock: BEQFEK_clean_sbu_0, # of connection points: 5
#     Node 8, Type 0, BuildingBlock: BEQFEK_clean_sbu_0, # of connection points: 5
#     Node 9, Type 0, BuildingBlock: BEQFEK_clean_sbu_0, # of connection points: 5
#     Node 10, Type 0, BuildingBlock: BEQFEK_clean_sbu_0, # of connection points: 5
#     Node 11, Type 0, BuildingBlock: BEQFEK_clean_sbu_0, # of connection points: 5
#     Node 12, Type 0, BuildingBlock: BEQFEK_clean_sbu_0, # of connection points: 5
#     Node 13, Type 0, BuildingBlock: BEQFEK_clean_sbu_0, # of connection points: 5
#     Node 14, Type 0, BuildingBlock: BEQFEK_clean_sbu_0, # of connection points: 5
#     Node 15, Type 0, BuildingBlock: BEQFEK_clean_sbu_0, # of connection points: 5
#     Edge 16, Type (0, 0), BuildingBlock: XUDNAN_clean_linker_2, # of connection points: 2
#     Edge 17, Type (0, 0), BuildingBlock: XUDNAN_clean_linker_2, # of connection points: 2
#     Edge 18, Type (0, 0), BuildingBlock: XUDNAN_clean_linker_2, # of connection points: 2
#     Edge 19, Type (0, 0), BuildingBlock: XUDNAN_clean_linker_2, # of connection points: 2
#     Edge 20, Type (0, 0), BuildingBlock: XUDNAN_clean_linker_2, # of connection points: 2
#     Edge 21, Type (0, 0), BuildingBlock: XUDNAN_clean_linker_2, # of connection points: 2
#     Edge 22, Type (0, 0), BuildingBlock: XUDNAN_clean_linker_2, # of connection points: 2
#     Edge 23, Type (0, 0), BuildingBlock: XUDNAN_clean_linker_2, # of connection points: 2
#     Edge 24, Type (0, 0), BuildingBlock: XUDNAN_clean_linker_2, # of connection points: 2
#     Edge 25, Type (0, 0), BuildingBlock: XUDNAN_clean_linker_2, # of connection points: 2
#     Edge 26, Type (0, 0), BuildingBlock: XUDNAN_clean_linker_2, # of connection points: 2
#     Edge 27, Type (0, 0), BuildingBlock: XUDNAN_clean_linker_2, # of connection points: 2
#     Edge 28, Type (0, 0), BuildingBlock: XUDNAN_clean_linker_2, # of connection points: 2
#     Edge 29, Type (0, 0), BuildingBlock: XUDNAN_clean_linker_2, # of connection points: 2
#     Edge 30, Type (0, 0), BuildingBlock: XUDNAN_clean_linker_2, # of connection points: 2
#     Edge 31, Type (0, 0), BuildingBlock: XUDNAN_clean_linker_2, # of connection points: 2
#     Edge 32, Type (0, 0), BuildingBlock: XUDNAN_clean_linker_2, # of connection points: 2
#     Edge 33, Type (0, 0), BuildingBlock: XUDNAN_clean_linker_2, # of connection points: 2
#     Edge 34, Type (0, 0), BuildingBlock: XUDNAN_clean_linker_2, # of connection points: 2
#     Edge 35, Type (0, 0), BuildingBlock: XUDNAN_clean_linker_2, # of connection points: 2
#     Edge 36, Type (0, 0), BuildingBlock: XUDNAN_clean_linker_2, # of connection points: 2
#     Edge 37, Type (0, 0), BuildingBlock: XUDNAN_clean_linker_2, # of connection points: 2
#     Edge 38, Type (0, 0), BuildingBlock: XUDNAN_clean_linker_2, # of connection points: 2
#     Edge 39, Type (0, 0), BuildingBlock: XUDNAN_clean_linker_2, # of connection points: 2
#     Edge 40, Type (0, 0), BuildingBlock: XUDNAN_clean_linker_2, # of connection points: 2
#     Edge 41, Type (0, 0), BuildingBlock: XUDNAN_clean_linker_2, # of connection points: 2
#     Edge 42, Type (0, 0), BuildingBlock: XUDNAN_clean_linker_2, # of connection points: 2
#     Edge 43, Type (0, 0), BuildingBlock: XUDNAN_clean_linker_2, # of connection points: 2
#     Edge 44, Type (0, 0), BuildingBlock: XUDNAN_clean_linker_2, # of connection points: 2
#     Edge 45, Type (0, 0), BuildingBlock: XUDNAN_clean_linker_2, # of connection points: 2
#     Edge 46, Type (0, 0), BuildingBlock: XUDNAN_clean_linker_2, # of connection points: 2
#     Edge 47, Type (0, 0), BuildingBlock: XUDNAN_clean_linker_2, # of connection points: 2
#     Edge 48, Type (0, 0), BuildingBlock: XUDNAN_clean_linker_2, # of connection points: 2
#     Edge 49, Type (0, 0), BuildingBlock: XUDNAN_clean_linker_2, # of connection points: 2
#     Edge 50, Type (0, 0), BuildingBlock: XUDNAN_clean_linker_2, # of connection points: 2
#     Edge 51, Type (0, 0), BuildingBlock: XUDNAN_clean_linker_2, # of connection points: 2
#     Edge 52, Type (0, 0), BuildingBlock: XUDNAN_clean_linker_2, # of connection points: 2
#     Edge 53, Type (0, 0), BuildingBlock: XUDNAN_clean_linker_2, # of connection points: 2
#     Edge 54, Type (0, 0), BuildingBlock: XUDNAN_clean_linker_2, # of connection points: 2
#     Edge 55, Type (0, 0), BuildingBlock: XUDNAN_clean_linker_2, # of connection points: 2
# Relax obj value: 0.521
# Max RMSD: 0.226
# Mean RMSD: 0.226
data_MOF--net-yfj--node1-BEQFEK_clean_sbu_0--edge1-XUDNAN_clean_linker_2
_symmetry_space_group_name_H-M    P1
_symmetry_Int_Tables_number       1
_symmetry_cell_setting            triclinic
loop_
_symmetry_equiv_pos_as_xyz
'x, y, z'
_cell_length_a     45.963356
_cell_length_b     45.97347
_cell_length_c     49.766511
_cell_angle_alpha  89.995047
_cell_angle_beta   89.965656
_cell_angle_gamma 90.042543
loop_
_atom_site_label
_atom_site_type_symbol
_atom_site_fract_x
_atom_site_fract_y
_atom_site_fract_z
_atom_type_partial_charge
Co0 Co 0.09301 0.12658 0.36517 0.0
Co1 Co 0.12133 0.14489 0.30954 0.0
C2 C 0.15366 0.10914 0.34907 0.0
O3 O 0.13212 0.11008 0.36497 0.0
O4 O 0.153 0.1219 0.32639 0.0
C5 C 0.08205 0.08411 0.40478 0.0
O6 O 0.09634 0.06811 0.38733 0.0
C7 C 0.15239 0.13939 0.25753 0.0
C8 C 0.13685 0.17793 0.23538 0.0
C9 C 0.15538 0.15424 0.23324 0.0
N10 N 0.13332 0.15385 0.27322 0.0
N11 N 0.12411 0.17685 0.25977 0.0
C12 C 0.16594 0.11098 0.26522 0.0
H13 H 0.18694 0.1152 0.27551 0.0
H14 H 0.15158 0.09895 0.27927 0.0
H15 H 0.17004 0.09735 0.24721 0.0
C16 C 0.05146 0.09768 0.3291 0.0
N17 N 0.07379 0.11607 0.33313 0.0
N18 N 0.08582 0.12256 0.30981 0.0
C19 C 0.07151 0.10795 0.29028 0.0
C20 C 0.04937 0.0917 0.30194 0.0
C21 C 0.03428 0.08352 0.35105 0.0
H22 H 0.0313 0.09883 0.36803 0.0
H23 H 0.04616 0.06405 0.35828 0.0
H24 H 0.01269 0.07637 0.34353 0.0
O25 O 0.09682 0.16897 0.36912 0.0
O26 O 0.11774 0.18252 0.33068 0.0
H27 H 0.08355 0.12928 0.25371 0.0
H28 H 0.06475 0.09505 0.24897 0.0
C29 C 0.08086 0.10686 0.26151 0.0
H30 H 0.10215 0.09566 0.26008 0.0
H31 H 0.10921 0.1919 0.26729 0.0
O32 O 0.07547 0.11013 0.39848 0.0
C33 C 0.10762 0.18848 0.35398 0.0
Co34 Co 0.87716 0.59879 0.61594 0.0
Co35 Co 0.85631 0.62445 0.55996 0.0
C36 C 0.89302 0.65879 0.59754 0.0
O37 O 0.89261 0.63854 0.61486 0.0
O38 O 0.88029 0.65624 0.57499 0.0
C39 C 0.91857 0.58975 0.6574 0.0
O40 O 0.93473 0.60579 0.64142 0.0
C41 C 0.85167 0.65987 0.50998 0.0
C42 C 0.83158 0.62886 0.48174 0.0
C43 C 0.84338 0.6566 0.48317 0.0
N44 N 0.84608 0.63488 0.5233 0.0
N45 N 0.83349 0.61671 0.50632 0.0
C46 C 0.86194 0.68712 0.52345 0.0
H47 H 0.88603 0.6868 0.52475 0.0
H48 H 0.85493 0.70676 0.51225 0.0
H49 H 0.85285 0.68847 0.54404 0.0
C50 C 0.90757 0.55784 0.58043 0.0
N51 N 0.8874 0.57868 0.5841 0.0
N52 N 0.88008 0.58987 0.56066 0.0
C53 C 0.89643 0.57708 0.54141 0.0
C54 C 0.91438 0.55634 0.55327 0.0
C55 C 0.92366 0.54353 0.603 0.0
H56 H 0.90882 0.53985 0.62021 0.0
H57 H 0.94177 0.55786 0.60947 0.0
H58 H 0.93301 0.52236 0.59688 0.0
O59 O 0.83512 0.60169 0.62066 0.0
O60 O 0.81936 0.62116 0.58253 0.0
H61 H 0.87693 0.57962 0.50264 0.0
H62 H 0.91568 0.57699 0.50151 0.0
C63 C 0.89722 0.58671 0.51268 0.0
H64 H 0.89857 0.61078 0.51163 0.0
H65 H 0.82673 0.59576 0.51139 0.0
O66 O 0.8934 0.58198 0.64953 0.0
C67 C 0.81459 0.61183 0.60638 0.0
Co68 Co 0.40347 0.37138 0.86301 0.0
Co69 Co 0.37859 0.35248 0.80622 0.0
C70 C 0.34419 0.38895 0.84409 0.0
O71 O 0.36411 0.3878 0.86171 0.0
O72 O 0.34693 0.37664 0.82134 0.0
C73 C 0.41122 0.40762 0.9092 0.0
O74 O 0.38907 0.42169 0.89881 0.0
C75 C 0.35026 0.35894 0.75325 0.0
C76 C 0.36367 0.319 0.73206 0.0
C77 C 0.34681 0.34383 0.72918 0.0
N78 N 0.36789 0.34356 0.76957 0.0
N79 N 0.37591 0.31975 0.75668 0.0
C80 C 0.33832 0.38826 0.76024 0.0
H81 H 0.35291 0.39957 0.77458 0.0
H82 H 0.33571 0.40184 0.74196 0.0
H83 H 0.31675 0.3855 0.76991 0.0
C84 C 0.44584 0.4011 0.82879 0.0
N85 N 0.42415 0.38176 0.83173 0.0
N86 N 0.4143 0.37416 0.80787 0.0
C87 C 0.42972 0.38864 0.78896 0.0
C88 C 0.45004 0.40631 0.80166 0.0
C89 C 0.45983 0.41694 0.85168 0.0
H90 H 0.44374 0.43198 0.86081 0.0
H91 H 0.47906 0.42961 0.84494 0.0
H92 H 0.46665 0.40112 0.86727 0.0
O93 O 0.39932 0.32911 0.86685 0.0
O94 O 0.3795 0.31523 0.8282 0.0
H95 H 0.44046 0.39865 0.74772 0.0
H96 H 0.40245 0.40133 0.75629 0.0
C97 C 0.42264 0.38867 0.75964 0.0
H98 H 0.41891 0.36609 0.75264 0.0
H99 H 0.38948 0.30384 0.76479 0.0
O100 O 0.42204 0.38613 0.89654 0.0
C101 C 0.38837 0.30945 0.85199 0.0
Co102 Co 0.62751 0.90913 0.11396 0.0
Co103 Co 0.64403 0.87832 0.05922 0.0
C104 C 0.60825 0.84854 0.10094 0.0
O105 O 0.60961 0.8707 0.11605 0.0
O106 O 0.62082 0.84814 0.07815 0.0
C107 C 0.58909 0.92348 0.15672 0.0
O108 O 0.56989 0.91055 0.14124 0.0
C109 C 0.6331 0.84687 0.00839 0.0
C110 C 0.6734 0.85495 0.98537 0.0
C111 C 0.6468 0.8408 0.98407 0.0
N112 N 0.6507 0.86402 0.0232 0.0
N113 N 0.67472 0.8688 0.00924 0.0
C114 C 0.60523 0.83425 0.01878 0.0
H115 H 0.59369 0.85044 0.0314 0.0
H116 H 0.59075 0.82676 1.00243 0.0
H117 H 0.61042 0.8152 0.03157 0.0
C118 C 0.59739 0.94927 0.07714 0.0
N119 N 0.61627 0.92742 0.08158 0.0
N120 N 0.6225 0.91447 0.05865 0.0
C121 C 0.60737 0.92775 0.03888 0.0
C122 C 0.59055 0.94993 0.04992 0.0
C123 C 0.58251 0.96567 0.09922 0.0
H124 H 0.59694 0.96735 0.11693 0.0
H125 H 0.56224 0.9541 0.10493 0.0
H126 H 0.57661 0.98796 0.09293 0.0
O127 O 0.66986 0.90454 0.11648 0.0
O128 O 0.6826 0.88165 0.07885 0.0
H129 H 0.59742 0.93492 0.99699 0.0
H130 H 0.59425 0.89781 0.00834 0.0
C131 C 0.60717 0.91807 0.01018 0.0
H132 H 0.6297 0.91358 1.00342 0.0
H133 H 0.69218 0.88121 0.01615 0.0
O134 O 0.6146 0.92806 0.1477 0.0
C135 C 0.68901 0.89281 0.10162 0.0
Co136 Co 0.09019 0.37253 0.89584 0.0
Co137 Co 0.12055 0.35481 0.95065 0.0
C138 C 0.15189 0.3897 0.91028 0.0
O139 O 0.12997 0.38805 0.89484 0.0
O140 O 0.15173 0.37796 0.93345 0.0
C141 C 0.07936 0.41362 0.85464 0.0
O142 O 0.09484 0.43017 0.87073 0.0
C143 C 0.15711 0.35115 1.00022 0.0
C144 C 0.12654 0.33087 0.02883 0.0
C145 C 0.15424 0.34273 0.02707 0.0
N146 N 0.13199 0.34537 0.9872 0.0
N147 N 0.11407 0.33277 1.00441 0.0
C148 C 0.184 0.36187 0.98641 0.0
H149 H 0.18313 0.38593 0.98481 0.0
H150 H 0.20392 0.35541 0.99746 0.0
H151 H 0.18523 0.3526 0.96588 0.0
C152 C 0.05167 0.4045 0.93239 0.0
N153 N 0.0723 0.38422 0.9282 0.0
N154 N 0.08575 0.37854 0.95099 0.0
C155 C 0.0747 0.39614 0.97021 0.0
C156 C 0.05277 0.41325 0.95908 0.0
C157 C 0.03501 0.41892 0.91024 0.0
H158 H 0.03178 0.40362 0.89332 0.0
H159 H 0.04726 0.43824 0.90311 0.0
H160 H 0.0134 0.42635 0.91726 0.0
O161 O 0.09206 0.33019 0.89254 0.0
O162 O 0.11635 0.31716 0.92931 0.0
H163 H 0.08135 0.37926 0.00962 0.0
H164 H 0.0783 0.41799 0.00879 0.0
C165 C 0.08713 0.39891 0.9979 0.0
H166 H 0.11119 0.40045 0.99679 0.0
H167 H 0.09304 0.326 0.99961 0.0
O168 O 0.07228 0.38821 0.86245 0.0
C169 C 0.10421 0.31089 0.90692 0.0
Co170 Co 0.62622 0.59743 0.14806 0.0
Co171 Co 0.64445 0.62204 0.20515 0.0
C172 C 0.60841 0.65675 0.16802 0.0
O173 O 0.61039 0.63712 0.15016 0.0
O174 O 0.61989 0.65372 0.19108 0.0
C175 C 0.58494 0.5894 0.1063 0.0
O176 O 0.56883 0.60503 0.12264 0.0
C177 C 0.64853 0.65554 0.25623 0.0
C178 C 0.66878 0.62373 0.2836 0.0
C179 C 0.65687 0.65144 0.28293 0.0
N180 N 0.65426 0.63106 0.24222 0.0
N181 N 0.6669 0.61239 0.25868 0.0
C182 C 0.63802 0.68312 0.24356 0.0
H183 H 0.64718 0.6853 0.22305 0.0
H184 H 0.61394 0.68253 0.24212 0.0
H185 H 0.64472 0.70244 0.25539 0.0
C186 C 0.59505 0.55513 0.18178 0.0
N187 N 0.61528 0.57615 0.17911 0.0
N188 N 0.62158 0.58693 0.20296 0.0
C189 C 0.60451 0.57372 0.22143 0.0
C190 C 0.58705 0.55316 0.20866 0.0
C191 C 0.57992 0.54112 0.15849 0.0
H192 H 0.59527 0.5384 0.14151 0.0
H193 H 0.56153 0.55508 0.15206 0.0
H194 H 0.57108 0.51949 0.16387 0.0
O195 O 0.6685 0.60088 0.14405 0.0
O196 O 0.68154 0.62126 0.18269 0.0
H197 H 0.62259 0.57625 0.26079 0.0
H198 H 0.58389 0.57266 0.26074 0.0
C199 C 0.60249 0.58296 0.25023 0.0
H200 H 0.60061 0.60698 0.25146 0.0
H201 H 0.67378 0.59166 0.25302 0.0
O202 O 0.61025 0.58169 0.11385 0.0
C203 C 0.68781 0.61222 0.15905 0.0
Co204 Co 0.40674 0.12339 0.39575 0.0
Co205 Co 0.38106 0.14377 0.45194 0.0
C206 C 0.34658 0.10772 0.41408 0.0
O207 O 0.36682 0.10835 0.39674 0.0
O208 O 0.3492 0.12001 0.43683 0.0
C209 C 0.41536 0.08187 0.35433 0.0
O210 O 0.39908 0.06601 0.37037 0.0
C211 C 0.34586 0.14771 0.5022 0.0
C212 C 0.37663 0.16852 0.53022 0.0
C213 C 0.34911 0.15619 0.52896 0.0
N214 N 0.37066 0.15376 0.48872 0.0
N215 N 0.38869 0.16675 0.50558 0.0
C216 C 0.31875 0.13676 0.48894 0.0
H217 H 0.31989 0.11273 0.48721 0.0
H218 H 0.29905 0.14287 0.5005 0.0
H219 H 0.31678 0.14618 0.46853 0.0
C220 C 0.44716 0.09199 0.43112 0.0
N221 N 0.42673 0.11261 0.42756 0.0
N222 N 0.41555 0.11985 0.45103 0.0
C223 C 0.42794 0.10306 0.47016 0.0
C224 C 0.44835 0.08477 0.45821 0.0
C225 C 0.4613 0.07586 0.40846 0.0
H226 H 0.46503 0.09071 0.39128 0.0
H227 H 0.44686 0.05783 0.40202 0.0
H228 H 0.48244 0.06641 0.41451 0.0
O229 O 0.404 0.16553 0.39127 0.0
O230 O 0.38416 0.18082 0.42943 0.0
H231 H 0.42811 0.08393 0.51009 0.0
H232 H 0.39406 0.10036 0.49971 0.0
C233 C 0.41811 0.10216 0.49884 0.0
H234 H 0.42469 0.12263 0.50886 0.0
H235 H 0.4095 0.17387 0.5004 0.0
O236 O 0.42336 0.10702 0.36207 0.0
C237 C 0.39355 0.18586 0.40565 0.0
Co238 Co 0.87035 0.91044 0.6479 0.0
Co239 Co 0.85562 0.88114 0.70416 0.0
C240 C 0.8915 0.85052 0.66365 0.0
O241 O 0.88863 0.87185 0.64762 0.0
O242 O 0.87994 0.85073 0.68693 0.0
C243 C 0.90621 0.92215 0.60225 0.0
O244 O 0.92304 0.90268 0.61364 0.0
C245 C 0.85362 0.84569 0.75449 0.0
C246 C 0.83475 0.8771 0.78313 0.0
C247 C 0.84605 0.84919 0.7815 0.0
N248 N 0.8478 0.87063 0.74122 0.0
N249 N 0.83614 0.88909 0.75848 0.0
C250 C 0.86377 0.81849 0.74089 0.0
H251 H 0.8546 0.81729 0.72032 0.0
H252 H 0.88785 0.81884 0.73936 0.0
H253 H 0.85687 0.79883 0.75215 0.0
C254 C 0.89967 0.95247 0.68254 0.0
N255 N 0.88127 0.92997 0.67949 0.0
N256 N 0.87704 0.91723 0.70291 0.0
C257 C 0.89367 0.93091 0.72144 0.0
C258 C 0.90811 0.9539 0.70917 0.0
C259 C 0.91245 0.96936 0.6597 0.0
H260 H 0.92894 0.95574 0.64937 0.0
H261 H 0.92312 0.98958 0.66689 0.0
H262 H 0.89517 0.97495 0.64504 0.0
O263 O 0.82817 0.90495 0.64555 0.0
O264 O 0.81714 0.88279 0.68402 0.0
H265 H 0.92036 0.92782 0.75713 0.0
H266 H 0.89969 0.89545 0.749 0.0
C267 C 0.89938 0.91956 0.74913 0.0
H268 H 0.88178 0.92699 0.76273 0.0
H269 H 0.8295 0.9101 0.75349 0.0
O270 O 0.88321 0.93041 0.61429 0.0
C271 C 0.80981 0.89298 0.6611 0.0
Co272 Co 0.59335 0.62484 0.86577 0.0
Co273 Co 0.62197 0.64376 0.81049 0.0
C274 C 0.65434 0.60829 0.8509 0.0
O275 O 0.63268 0.60855 0.86675 0.0
O276 O 0.65351 0.62123 0.82827 0.0
C277 C 0.58248 0.58958 0.91209 0.0
O278 O 0.60394 0.57414 0.90215 0.0
C279 C 0.65321 0.63735 0.75868 0.0
C280 C 0.63882 0.67634 0.73651 0.0
C281 C 0.65658 0.65205 0.73435 0.0
N282 N 0.63461 0.65242 0.77436 0.0
N283 N 0.62613 0.6757 0.76092 0.0
C284 C 0.66586 0.60856 0.76645 0.0
H285 H 0.65141 0.59729 0.78096 0.0
H286 H 0.66901 0.59457 0.74852 0.0
H287 H 0.68725 0.61212 0.77625 0.0
C288 C 0.55478 0.59287 0.82971 0.0
N289 N 0.57527 0.61331 0.83357 0.0
N290 N 0.5868 0.62079 0.81033 0.0
C291 C 0.57354 0.60533 0.79076 0.0
C292 C 0.55292 0.58694 0.80235 0.0
C293 C 0.54184 0.57571 0.85239 0.0
H294 H 0.53081 0.59075 0.86653 0.0
H295 H 0.5596 0.56468 0.86348 0.0
H296 H 0.52619 0.55896 0.84567 0.0
O297 O 0.5964 0.66735 0.8689 0.0
O298 O 0.61771 0.68162 0.83097 0.0
H299 H 0.56495 0.59623 0.74892 0.0
H300 H 0.60267 0.59461 0.75881 0.0
C301 C 0.5819 0.60642 0.76173 0.0
H302 H 0.58505 0.62932 0.7554 0.0
H303 H 0.61168 0.69118 0.76843 0.0
O304 O 0.57285 0.61118 0.89881 0.0
C305 C 0.60698 0.6872 0.85407 0.0
Co306 Co 0.37609 0.09446 0.11499 0.0
Co307 Co 0.35678 0.12313 0.05979 0.0
C308 C 0.39702 0.15349 0.09755 0.0
O309 O 0.39589 0.13228 0.1139 0.0
O310 O 0.38279 0.15321 0.07558 0.0
C311 C 0.4124 0.08189 0.1603 0.0
O312 O 0.42879 0.10238 0.14987 0.0
C313 C 0.35313 0.15869 0.00971 0.0
C314 C 0.33299 0.12755 0.98159 0.0
C315 C 0.34498 0.15522 0.98285 0.0
N316 N 0.3471 0.13392 0.02319 0.0
N317 N 0.33456 0.11566 0.00627 0.0
C318 C 0.36406 0.18574 0.02305 0.0
H319 H 0.38818 0.1852 0.02376 0.0
H320 H 0.3569 0.20549 0.0121 0.0
H321 H 0.35566 0.18694 0.04391 0.0
C322 C 0.40197 0.05185 0.07898 0.0
N323 N 0.38381 0.07433 0.08297 0.0
N324 N 0.3778 0.08678 0.05977 0.0
C325 C 0.39302 0.0729 0.04033 0.0
C326 C 0.4084 0.0501 0.05187 0.0
C327 C 0.41672 0.03556 0.10115 0.0
H328 H 0.4005 0.02924 0.11659 0.0
H329 H 0.43311 0.04993 0.11074 0.0
H330 H 0.42781 0.01579 0.09347 0.0
O331 O 0.33456 0.10171 0.12008 0.0
O332 O 0.31955 0.12196 0.08208 0.0
H333 H 0.37852 0.07685 0.99978 0.0
H334 H 0.41736 0.07571 1.00318 0.0
C335 C 0.39703 0.08416 0.01235 0.0
H336 H 0.39765 0.10826 0.01241 0.0
H337 H 0.32769 0.09477 0.01144 0.0
O338 O 0.3897 0.07367 0.1478 0.0
C339 C 0.31453 0.11313 0.10603 0.0
Co340 Co 0.90159 0.87701 0.36694 0.0
Co341 Co 0.87271 0.85949 0.31142 0.0
C342 C 0.84186 0.89702 0.3507 0.0
O343 O 0.86317 0.89526 0.36679 0.0
O344 O 0.84225 0.88411 0.3281 0.0
C345 C 0.9137 0.91805 0.40777 0.0
O346 O 0.89965 0.93499 0.39095 0.0
C347 C 0.84355 0.86849 0.25914 0.0
C348 C 0.85247 0.82739 0.23771 0.0
C349 C 0.83851 0.85395 0.23505 0.0
N350 N 0.85996 0.85143 0.27512 0.0
N351 N 0.86524 0.82691 0.26212 0.0
C352 C 0.83056 0.89673 0.26815 0.0
H353 H 0.8115 0.89201 0.28111 0.0
H354 H 0.84656 0.90911 0.28031 0.0
H355 H 0.82302 0.91023 0.25113 0.0
C356 C 0.94363 0.90544 0.33065 0.0
N357 N 0.92138 0.88688 0.33481 0.0
N358 N 0.90929 0.88019 0.31159 0.0
C359 C 0.92356 0.8946 0.29193 0.0
C360 C 0.94549 0.9115 0.3033 0.0
C361 C 0.95924 0.92082 0.35292 0.0
H362 H 0.96093 0.90645 0.37069 0.0
H363 H 0.94697 0.94071 0.35844 0.0
H364 H 0.98147 0.9274 0.34701 0.0
O365 O 0.89591 0.83469 0.37085 0.0
O366 O 0.87393 0.822 0.33282 0.0
H367 H 0.93252 0.90326 0.25007 0.0
H368 H 0.89501 0.90712 0.26008 0.0
C369 C 0.91503 0.89408 0.26292 0.0
H370 H 0.91053 0.87141 0.25658 0.0
H371 H 0.87726 0.80969 0.27003 0.0
O372 O 0.91954 0.89208 0.40067 0.0
C373 C 0.88369 0.81558 0.35616 0.0
Co374 Co 0.12582 0.40222 0.61369 0.0
Co375 Co 0.1462 0.37885 0.55664 0.0
C376 C 0.10789 0.34415 0.5936 0.0
O377 O 0.10787 0.36378 0.61151 0.0
O378 O 0.12192 0.34715 0.57175 0.0
C379 C 0.09045 0.41016 0.66063 0.0
O380 O 0.07609 0.388 0.65057 0.0
C381 C 0.13565 0.35427 0.50266 0.0
C382 C 0.17967 0.35389 0.48494 0.0
C383 C 0.15119 0.34543 0.48008 0.0
N384 N 0.15408 0.36737 0.51995 0.0
N385 N 0.18031 0.36734 0.50903 0.0
C386 C 0.10459 0.34731 0.50911 0.0
H387 H 0.10196 0.3234 0.51095 0.0
H388 H 0.0977 0.35807 0.52799 0.0
H389 H 0.09011 0.35484 0.49278 0.0
C390 C 0.09811 0.44621 0.58005 0.0
N391 N 0.11666 0.42385 0.5827 0.0
N392 N 0.12489 0.41482 0.55871 0.0
C393 C 0.11173 0.43165 0.54003 0.0
C394 C 0.09422 0.45187 0.55299 0.0
C395 C 0.08181 0.45958 0.60297 0.0
H396 H 0.0669 0.44313 0.61175 0.0
H397 H 0.069 0.47878 0.59645 0.0
H398 H 0.09739 0.46633 0.61881 0.0
O399 O 0.16791 0.39659 0.61747 0.0
O400 O 0.18377 0.38002 0.57818 0.0
H401 H 0.13523 0.41936 0.50451 0.0
H402 H 0.10745 0.44672 0.49925 0.0
C403 C 0.11313 0.42659 0.51039 0.0
H404 H 0.09723 0.40949 0.50485 0.0
H405 H 0.19888 0.37536 0.51851 0.0
O406 O 0.11174 0.42084 0.64754 0.0
C407 C 0.18845 0.38735 0.60261 0.0
Co408 Co 0.59489 0.86755 0.40056 0.0
Co409 Co 0.62193 0.85162 0.45713 0.0
C410 C 0.65261 0.89053 0.41857 0.0
O411 O 0.63225 0.88798 0.40155 0.0
O412 O 0.65167 0.87768 0.44119 0.0
C413 C 0.59389 0.87964 0.34703 0.0
O414 O 0.61971 0.86813 0.35085 0.0
C415 C 0.64885 0.86248 0.51013 0.0
C416 C 0.64386 0.82013 0.53054 0.0
C417 C 0.65546 0.84774 0.53377 0.0
N418 N 0.63392 0.84445 0.49379 0.0
N419 N 0.63085 0.81923 0.50626 0.0
C420 C 0.65959 0.89186 0.50172 0.0
H421 H 0.68096 0.88925 0.49164 0.0
H422 H 0.64424 0.90193 0.48729 0.0
H423 H 0.66263 0.90655 0.5191 0.0
C424 C 0.55082 0.89456 0.43437 0.0
N425 N 0.5737 0.87666 0.4317 0.0
N426 N 0.58462 0.87075 0.45557 0.0
C427 C 0.56866 0.88498 0.47425 0.0
C428 C 0.54683 0.90057 0.46137 0.0
C429 C 0.53604 0.90914 0.41122 0.0
H430 H 0.52953 0.89254 0.39619 0.0
H431 H 0.55156 0.92428 0.40139 0.0
H432 H 0.51653 0.92145 0.41781 0.0
O433 O 0.60221 0.82576 0.39725 0.0
O434 O 0.62307 0.81368 0.43594 0.0
H435 H 0.58271 0.86516 0.511 0.0
H436 H 0.55772 0.89527 0.51532 0.0
C437 C 0.57633 0.8869 0.50338 0.0
H438 H 0.59497 0.90195 0.50592 0.0
H439 H 0.62057 0.80114 0.49789 0.0
O440 O 0.57638 0.88109 0.36679 0.0
C441 C 0.61433 0.80701 0.4123 0.0
Co442 Co 0.13025 0.09304 0.64367 0.0
Co443 Co 0.14496 0.12487 0.69872 0.0
C444 C 0.10827 0.1529 0.65675 0.0
O445 O 0.11128 0.13102 0.64146 0.0
O446 O 0.12008 0.15372 0.67988 0.0
C447 C 0.0945 0.07911 0.59871 0.0
O448 O 0.07722 0.09817 0.61014 0.0
C449 C 0.13409 0.15664 0.74963 0.0
C450 C 0.17277 0.14569 0.77387 0.0
C451 C 0.14693 0.16118 0.77463 0.0
N452 N 0.15137 0.13901 0.73498 0.0
N453 N 0.17448 0.13261 0.74964 0.0
C454 C 0.10743 0.17102 0.7386 0.0
H455 H 0.11433 0.18759 0.72374 0.0
H456 H 0.09374 0.15479 0.728 0.0
H457 H 0.09447 0.18219 0.75423 0.0
C458 C 0.09955 0.05364 0.68019 0.0
N459 N 0.11918 0.07495 0.67616 0.0
N460 N 0.12496 0.08793 0.69916 0.0
C461 C 0.10911 0.07496 0.71864 0.0
C462 C 0.09207 0.0531 0.70729 0.0
C463 C 0.0841 0.03865 0.65757 0.0
H464 H 0.10016 0.03158 0.64228 0.0
H465 H 0.06886 0.05421 0.64802 0.0
H466 H 0.07155 0.01946 0.66426 0.0
O467 O 0.17252 0.0997 0.64113 0.0
O468 O 0.1833 0.12382 0.67852 0.0
H469 H 0.1303 0.08911 0.75466 0.0
H470 H 0.09716 0.06883 0.76026 0.0
C471 C 0.10795 0.08515 0.74717 0.0
H472 H 0.09563 0.10583 0.74824 0.0
H473 H 0.19146 0.11934 0.7431 0.0
O474 O 0.11789 0.07169 0.61058 0.0
C475 C 0.19078 0.11317 0.65579 0.0
Co476 Co 0.90555 0.63173 0.898 0.0
Co477 Co 0.87843 0.64749 0.95486 0.0
C478 C 0.84663 0.61059 0.91603 0.0
O479 O 0.86664 0.61374 0.89865 0.0
O480 O 0.84848 0.62181 0.93932 0.0
C481 C 0.91543 0.59663 0.85141 0.0
O482 O 0.89398 0.58126 0.86153 0.0
C483 C 0.84286 0.64962 1.00492 0.0
C484 C 0.87415 0.66751 0.03416 0.0
C485 C 0.84616 0.65639 0.03212 0.0
N486 N 0.86799 0.65557 0.99195 0.0
N487 N 0.88636 0.66675 0.00956 0.0
C488 C 0.81564 0.64022 0.99088 0.0
H489 H 0.81503 0.64939 0.97029 0.0
H490 H 0.8153 0.61613 0.98944 0.0
H491 H 0.796 0.64768 1.00185 0.0
C492 C 0.94934 0.60398 0.93184 0.0
N493 N 0.92634 0.62178 0.92924 0.0
N494 N 0.91478 0.62669 0.95307 0.0
C495 C 0.92966 0.61093 0.97146 0.0
C496 C 0.95231 0.59655 0.95862 0.0
C497 C 0.96533 0.59081 0.90863 0.0
H498 H 0.95096 0.57484 0.89847 0.0
H499 H 0.98542 0.57956 0.91531 0.0
H500 H 0.97107 0.60803 0.89394 0.0
O501 O 0.90004 0.67365 0.89495 0.0
O502 O 0.87824 0.68536 0.93331 0.0
H503 H 0.92862 0.5852 0.00783 0.0
H504 H 0.89574 0.60543 1.00076 0.0
C505 C 0.91984 0.60591 0.99976 0.0
H506 H 0.92794 0.62388 0.01259 0.0
H507 H 0.90747 0.67339 1.00487 0.0
O508 O 0.92505 0.61847 0.86439 0.0
C509 C 0.88773 0.69231 0.90996 0.0
Co510 Co 0.37271 0.40278 0.14424 0.0
Co511 Co 0.35592 0.37538 0.2005 0.0
C512 C 0.39381 0.34403 0.16191 0.0
O513 O 0.39122 0.36429 0.14475 0.0
O514 O 0.38166 0.34543 0.18483 0.0
C515 C 0.41311 0.416 0.10308 0.0
O516 O 0.43063 0.40179 0.11927 0.0
C517 C 0.36339 0.3461 0.25321 0.0
C518 C 0.32328 0.35856 0.27467 0.0
C519 C 0.34848 0.34221 0.27737 0.0
N520 N 0.34755 0.36356 0.23706 0.0
N521 N 0.32363 0.37094 0.25011 0.0
C522 C 0.39295 0.33488 0.24606 0.0
H523 H 0.40393 0.3499 0.23186 0.0
H524 H 0.40662 0.33233 0.26427 0.0
H525 H 0.39065 0.31339 0.23613 0.0
C526 C 0.39926 0.44693 0.17928 0.0
N527 N 0.38199 0.4236 0.17582 0.0
N528 N 0.37574 0.41222 0.19946 0.0
C529 C 0.38944 0.42792 0.21863 0.0
C530 C 0.40478 0.45035 0.20641 0.0
C531 C 0.41318 0.46363 0.1569 0.0
H532 H 0.39764 0.46626 0.14006 0.0
H533 H 0.43251 0.45154 0.14962 0.0
H534 H 0.42043 0.48539 0.16391 0.0
O535 O 0.33072 0.39683 0.14037 0.0
O536 O 0.31841 0.37509 0.17862 0.0
H537 H 0.36865 0.415 0.25524 0.0
H538 H 0.40084 0.43717 0.25987 0.0
C539 C 0.39085 0.41961 0.24765 0.0
H540 H 0.40408 0.3996 0.24982 0.0
H541 H 0.30743 0.38429 0.24218 0.0
O542 O 0.38719 0.42115 0.1107 0.0
C543 C 0.31184 0.38445 0.15515 0.0
H544 H 0.05664 0.11274 0.44717 0.0
H545 H 0.10141 0.03283 0.42607 0.0
H546 H 0.1042 0.0196 0.47397 0.0
H547 H 0.09797 0.12951 0.50202 0.0
H548 H 0.06891 0.1438 0.52245 0.0
H549 H 0.06605 0.14482 0.48645 0.0
H550 H 0.01727 0.1166 0.48875 0.0
H551 H 0.01986 0.11569 0.52489 0.0
H552 H 0.01567 0.08231 0.50628 0.0
H553 H 0.11002 0.01936 0.52412 0.0
H554 H 0.11461 0.03052 0.57263 0.0
H555 H 0.06387 0.10901 0.56106 0.0
C556 C 0.06621 0.09202 0.45254 0.0
C557 C 0.07877 0.07384 0.43283 0.0
C558 C 0.0915 0.0471 0.44076 0.0
C559 C 0.0932 0.03936 0.46796 0.0
C560 C 0.08163 0.05832 0.48699 0.0
C561 C 0.0679 0.08386 0.4796 0.0
C562 C 0.0593 0.10152 0.50402 0.0
C563 C 0.07394 0.13168 0.5037 0.0
C564 C 0.02604 0.10417 0.5061 0.0
C565 C 0.07139 0.08252 0.52619 0.0
C566 C 0.08409 0.05761 0.51602 0.0
C567 C 0.09945 0.03837 0.53242 0.0
C568 C 0.10205 0.0449 0.55989 0.0
C569 C 0.08916 0.0703 0.57062 0.0
C570 C 0.07322 0.08897 0.55357 0.0
H571 H 0.88544 0.5687 0.81191 0.0
H572 H 0.96647 0.61394 0.82779 0.0
H573 H 0.97956 0.61007 0.77969 0.0
H574 H 0.91197 0.52037 0.75687 0.0
H575 H 0.87858 0.52445 0.73828 0.0
H576 H 0.87814 0.52597 0.77447 0.0
H577 H 0.85301 0.57638 0.77245 0.0
H578 H 0.85341 0.57505 0.73636 0.0
H579 H 0.86986 0.60536 0.7536 0.0
H580 H 0.98105 0.60644 0.72948 0.0
H581 H 0.96978 0.60605 0.68105 0.0
H582 H 0.88688 0.56457 0.69793 0.0
C583 C 0.90638 0.57694 0.80544 0.0
C584 C 0.92517 0.59126 0.82358 0.0
C585 C 0.9519 0.60268 0.8142 0.0
C586 C 0.95956 0.60045 0.78697 0.0
C587 C 0.94017 0.58683 0.76945 0.0
C588 C 0.9141 0.5753 0.77832 0.0
C589 C 0.89546 0.56508 0.75508 0.0
C590 C 0.89078 0.532 0.75625 0.0
C591 C 0.86623 0.58145 0.75434 0.0
C592 C 0.91473 0.57345 0.73166 0.0
C593 C 0.94066 0.58544 0.74037 0.0
C594 C 0.96102 0.5967 0.72242 0.0
C595 C 0.9544 0.59639 0.69492 0.0
C596 C 0.92747 0.58521 0.68566 0.0
C597 C 0.9078 0.57291 0.7043 0.0
H598 H 0.3797 0.43836 0.0624 0.0
H599 H 0.46562 0.40398 0.07966 0.0
H600 H 0.47705 0.40415 0.03125 0.0
H601 H 0.3662 0.396 0.00759 0.0
H602 H 0.3471 0.42309 0.98828 0.0
H603 H 0.34739 0.42525 0.02432 0.0
H604 H 0.36853 0.47747 0.02186 0.0
H605 H 0.36806 0.47557 0.98568 0.0
H606 H 0.40141 0.48406 1.00305 0.0
H607 H 0.47596 0.39982 0.98109 0.0
H608 H 0.46332 0.39444 0.933 0.0
H609 H 0.37901 0.43332 0.94846 0.0
C610 C 0.40126 0.43176 0.0561 0.0
C611 C 0.42177 0.42121 0.07485 0.0
C612 C 0.44957 0.41227 0.0657 0.0
C613 C 0.4563 0.41232 0.03822 0.0
C614 C 0.43516 0.42174 0.02017 0.0
C615 C 0.40835 0.43174 0.02876 0.0
C616 C 0.38851 0.43818 1.00524 0.0
C617 C 0.36068 0.41951 0.00644 0.0
C618 C 0.38121 0.47076 1.00388 0.0
C619 C 0.40795 0.42917 0.98213 0.0
C620 C 0.43484 0.41993 0.99111 0.0
C621 C 0.45528 0.40772 0.97372 0.0
C622 C 0.4479 0.40463 0.9465 0.0
C623 C 0.42041 0.41387 0.937 0.0
C624 C 0.4005 0.4268 0.95502 0.0
H625 H 0.63159 0.89406 0.30723 0.0
H626 H 0.5396 0.8922 0.32672 0.0
H627 H 0.52811 0.90957 0.28073 0.0
H628 H 0.62935 0.95925 0.26435 0.0
H629 H 0.65627 0.94482 0.24163 0.0
H630 H 0.65699 0.93483 0.27665 0.0
H631 H 0.65504 0.8803 0.26362 0.0
H632 H 0.6545 0.89005 0.22866 0.0
H633 H 0.62607 0.86741 0.2423 0.0
H634 H 0.52698 0.92096 0.23081 0.0
H635 H 0.53624 0.92641 0.18206 0.0
H636 H 0.62914 0.92368 0.19698 0.0
C637 C 0.609 0.89757 0.30197 0.0
C638 C 0.58643 0.89163 0.32041 0.0
C639 C 0.55719 0.89667 0.31283 0.0
C640 C 0.55051 0.90659 0.28682 0.0
C641 C 0.57337 0.91188 0.26898 0.0
C642 C 0.60205 0.90781 0.2764 0.0
C643 C 0.62265 0.91354 0.25331 0.0
C644 C 0.64248 0.93967 0.25936 0.0
C645 C 0.6406 0.8862 0.24658 0.0
C646 C 0.60108 0.92054 0.23135 0.0
C647 C 0.57275 0.91962 0.24072 0.0
C648 C 0.54907 0.92242 0.2234 0.0
C649 C 0.55452 0.92551 0.19576 0.0
C650 C 0.58339 0.92597 0.18583 0.0
C651 C 0.60685 0.92429 0.20403 0.0
H652 H 0.06264 0.37952 0.69985 0.0
H653 H 0.10622 0.46158 0.68449 0.0
H654 H 0.10103 0.47468 0.73248 0.0
H655 H 0.01244 0.40506 0.75376 0.0
H656 H 0.01684 0.37186 0.77259 0.0
H657 H 0.0193 0.37131 0.73644 0.0
H658 H 0.07024 0.34742 0.73961 0.0
H659 H 0.06797 0.34791 0.77565 0.0
H660 H 0.09832 0.36502 0.75899 0.0
H661 H 0.09611 0.47626 0.78266 0.0
H662 H 0.09478 0.46517 0.83111 0.0
H663 H 0.05578 0.38123 0.81376 0.0
C664 C 0.07028 0.40066 0.7064 0.0
C665 C 0.08449 0.41974 0.68842 0.0
C666 C 0.09507 0.44676 0.69793 0.0
C667 C 0.09208 0.45442 0.7251 0.0
C668 C 0.07854 0.43477 0.74245 0.0
C669 C 0.06785 0.40841 0.73346 0.0
C670 C 0.05748 0.38963 0.75656 0.0
C671 C 0.02456 0.38415 0.75472 0.0
C672 C 0.07453 0.36081 0.75777 0.0
C673 C 0.0648 0.40916 0.78008 0.0
C674 C 0.07639 0.43533 0.7715 0.0
C675 C 0.08668 0.45604 0.7896 0.0
C676 C 0.08583 0.44951 0.81712 0.0
C677 C 0.0751 0.42235 0.82628 0.0
C678 C 0.06374 0.40233 0.80746 0.0
H679 H 0.61284 0.56212 0.9516 0.0
H680 H 0.5323 0.60836 0.93634 0.0
H681 H 0.52066 0.6066 0.98486 0.0
H682 H 0.58704 0.5166 0.00915 0.0
H683 H 0.62116 0.52076 0.02658 0.0
H684 H 0.62035 0.52068 0.99036 0.0
H685 H 0.64668 0.57055 0.98977 0.0
H686 H 0.64747 0.57086 0.02586 0.0
H687 H 0.63112 0.60072 0.00791 0.0
H688 H 0.52084 0.60517 0.03521 0.0
H689 H 0.53362 0.60635 0.0833 0.0
H690 H 0.61509 0.56261 0.06564 0.0
C691 C 0.59225 0.57098 0.95831 0.0
C692 C 0.57323 0.58501 0.9402 0.0
C693 C 0.54702 0.59728 0.9499 0.0
C694 C 0.54021 0.59628 0.97738 0.0
C695 C 0.55988 0.58301 0.99484 0.0
C696 C 0.58539 0.57057 0.98567 0.0
C697 C 0.60461 0.56097 0.00873 0.0
C698 C 0.60851 0.52778 0.0087 0.0
C699 C 0.6342 0.57672 0.00802 0.0
C700 C 0.58637 0.57079 0.03236 0.0
C701 C 0.5604 0.58292 0.02396 0.0
C702 C 0.54089 0.59532 0.04205 0.0
C703 C 0.54839 0.59592 0.06935 0.0
C704 C 0.57535 0.58451 0.07828 0.0
C705 C 0.59418 0.57119 0.05953 0.0
H706 H 0.44204 0.11235 0.31381 0.0
H707 H 0.39836 0.03071 0.33105 0.0
H708 H 0.39885 0.01857 0.28282 0.0
H709 H 0.40307 0.12917 0.25754 0.0
H710 H 0.43267 0.14508 0.23884 0.0
H711 H 0.43353 0.14517 0.27494 0.0
H712 H 0.48336 0.11883 0.27426 0.0
H713 H 0.48276 0.11883 0.23804 0.0
H714 H 0.48715 0.08512 0.25609 0.0
H715 H 0.39634 0.01921 0.23257 0.0
H716 H 0.39366 0.0316 0.18424 0.0
H717 H 0.44067 0.11169 0.19971 0.0
C718 C 0.43341 0.0915 0.30756 0.0
C719 C 0.42023 0.07246 0.32625 0.0
C720 C 0.40869 0.04562 0.31716 0.0
C721 C 0.4089 0.03848 0.28977 0.0
C722 C 0.42109 0.05822 0.27175 0.0
C723 C 0.43352 0.08401 0.28031 0.0
C724 C 0.44279 0.10266 0.25673 0.0
C725 C 0.42707 0.13225 0.25704 0.0
C726 C 0.47599 0.10658 0.25626 0.0
C727 C 0.4326 0.08385 0.2336 0.0
C728 C 0.42032 0.0582 0.24265 0.0
C729 C 0.40659 0.03884 0.22517 0.0
C730 C 0.40507 0.04607 0.1978 0.0
C731 C 0.41737 0.07233 0.18823 0.0
C732 C 0.43182 0.09106 0.20633 0.0
H733 H 0.93747 0.88689 0.44949 0.0
H734 H 0.89835 0.97018 0.43001 0.0
H735 H 0.8975 0.98295 0.47807 0.0
H736 H 0.89609 0.87266 0.50526 0.0
H737 H 0.92448 0.85599 0.52491 0.0
H738 H 0.92632 0.8551 0.48884 0.0
H739 H 0.97716 0.87946 0.49018 0.0
H740 H 0.97558 0.88023 0.52637 0.0
H741 H 0.98185 0.91336 0.50788 0.0
H742 H 0.89305 0.98318 0.52825 0.0
H743 H 0.88907 0.97213 0.57683 0.0
H744 H 0.93334 0.89008 0.56375 0.0
C745 C 0.92954 0.90817 0.45524 0.0
C746 C 0.91802 0.92753 0.43593 0.0
C747 C 0.90742 0.955 0.44437 0.0
C748 C 0.90684 0.96249 0.47167 0.0
C749 C 0.91737 0.94249 0.49029 0.0
C750 C 0.92899 0.91608 0.48242 0.0
C751 C 0.93683 0.89758 0.50652 0.0
C752 C 0.91991 0.86864 0.50636 0.0
C753 C 0.96982 0.89236 0.50781 0.0
C754 C 0.9268 0.91725 0.52911 0.0
C755 C 0.91573 0.94311 0.51936 0.0
C756 C 0.90238 0.96337 0.53621 0.0
C757 C 0.9001 0.9569 0.56371 0.0
C758 C 0.91137 0.93056 0.57403 0.0
C759 C 0.92532 0.9108 0.55652 0.0
H760 H 0.30078 0.10415 0.15885 0.0
H761 H 0.26372 0.13498 0.08386 0.0
H762 H 0.2179 0.14687 0.10782 0.0
H763 H 0.23522 0.07272 0.18722 0.0
H764 H 0.24396 0.08442 0.22083 0.0
H765 H 0.2727 0.07654 0.19731 0.0
H766 H 0.29418 0.12804 0.20475 0.0
H767 H 0.26556 0.13606 0.22828 0.0
H768 H 0.27138 0.15946 0.19972 0.0
H769 H 0.17673 0.15756 0.14124 0.0
H770 H 0.14449 0.16589 0.18034 0.0
H771 H 0.21037 0.12974 0.23297 0.0
C772 C 0.28297 0.11297 0.1472 0.0
C773 C 0.28589 0.11835 0.11928 0.0
C774 C 0.26202 0.13043 0.10515 0.0
C775 C 0.23591 0.13728 0.11863 0.0
C776 C 0.23405 0.13202 0.14625 0.0
C777 C 0.25703 0.12012 0.16031 0.0
C778 C 0.25036 0.11788 0.19006 0.0
C779 C 0.25057 0.08599 0.1994 0.0
C780 C 0.27163 0.13647 0.20667 0.0
C781 C 0.21994 0.1304 0.19072 0.0
C782 C 0.21079 0.13834 0.16529 0.0
C783 C 0.18367 0.15115 0.16115 0.0
C784 C 0.16552 0.15586 0.18352 0.0
C785 C 0.17445 0.14776 0.20975 0.0
C786 C 0.20219 0.13507 0.21322 0.0
H787 H 0.88539 0.69931 0.47491 0.0
H788 H 0.80978 0.65929 0.43796 0.0
H789 H 0.81489 0.69232 0.39907 0.0
H790 H 0.86672 0.77229 0.45658 0.0
H791 H 0.90397 0.78325 0.45142 0.0
H792 H 0.89557 0.7548 0.47503 0.0
H793 H 0.931 0.72035 0.44999 0.0
H794 H 0.93915 0.74859 0.42602 0.0
H795 H 0.92602 0.71378 0.41457 0.0
H796 H 0.82746 0.73117 0.36459 0.0
H797 H 0.84355 0.77491 0.33973 0.0
H798 H 0.9088 0.79129 0.40092 0.0
C799 C 0.86936 0.69783 0.45909 0.0
C800 C 0.84662 0.67707 0.46004 0.0
C801 C 0.82726 0.6751 0.43792 0.0
C802 C 0.83002 0.69376 0.41567 0.0
C803 C 0.85232 0.71433 0.41569 0.0
C804 C 0.8715 0.7166 0.43696 0.0
C805 C 0.89261 0.74155 0.43279 0.0
C806 C 0.88952 0.76432 0.45528 0.0
C807 C 0.92406 0.73039 0.43072 0.0
C808 C 0.88204 0.75327 0.40604 0.0
C809 C 0.85912 0.73698 0.39624 0.0
C810 C 0.84545 0.74403 0.37206 0.0
C811 C 0.85487 0.76885 0.35797 0.0
C812 C 0.87749 0.78661 0.36827 0.0
C813 C 0.89153 0.77819 0.39238 0.0
H814 H 0.29325 0.37105 0.72854 0.0
H815 H 0.35716 0.3307 0.67641 0.0
H816 H 0.3253 0.34002 0.63721 0.0
H817 H 0.23133 0.34368 0.69661 0.0
H818 H 0.20989 0.37612 0.70117 0.0
H819 H 0.2385 0.36762 0.72452 0.0
H820 H 0.26221 0.4179 0.71571 0.0
H821 H 0.23358 0.4266 0.69234 0.0
H822 H 0.27105 0.42843 0.68177 0.0
H823 H 0.28445 0.352 0.60377 0.0
H824 H 0.23864 0.36445 0.58011 0.0
H825 H 0.20352 0.3985 0.65475 0.0
C826 C 0.30118 0.36506 0.70886 0.0
C827 C 0.32822 0.3509 0.70555 0.0
C828 C 0.3367 0.34191 0.67944 0.0
C829 C 0.31878 0.34719 0.65703 0.0
C830 C 0.29237 0.36149 0.66101 0.0
C831 C 0.28369 0.37032 0.68634 0.0
C832 C 0.25382 0.38411 0.68564 0.0
C833 C 0.23212 0.36684 0.703 0.0
C834 C 0.25526 0.41616 0.69438 0.0
C835 C 0.24682 0.38138 0.65603 0.0
C836 C 0.26925 0.36838 0.64202 0.0
C837 C 0.26689 0.36248 0.61455 0.0
C838 C 0.2408 0.36968 0.60123 0.0
C839 C 0.2174 0.38264 0.6154 0.0
C840 C 0.22092 0.38888 0.64308 0.0
H841 H 0.67649 0.79759 0.95815 0.0
H842 H 0.59427 0.84365 0.95817 0.0
H843 H 0.57655 0.8121 0.92134 0.0
H844 H 0.68066 0.78616 0.88521 0.0
H845 H 0.69639 0.75043 0.88852 0.0
H846 H 0.70312 0.77765 0.91384 0.0
H847 H 0.68348 0.74284 0.95059 0.0
H848 H 0.67698 0.71548 0.92545 0.0
H849 H 0.64768 0.7273 0.94691 0.0
H850 H 0.56647 0.77278 0.88697 0.0
H851 H 0.56486 0.72859 0.85838 0.0
H852 H 0.65422 0.70952 0.87923 0.0
C853 C 0.65485 0.80114 0.9502 0.0
C854 C 0.63644 0.82254 0.96142 0.0
C855 C 0.60833 0.82669 0.95047 0.0
C856 C 0.59825 0.80913 0.92931 0.0
C857 C 0.61671 0.78778 0.91903 0.0
C858 C 0.64447 0.78379 0.92907 0.0
C859 C 0.65951 0.75848 0.91534 0.0
C860 C 0.68652 0.76881 0.8998 0.0
C861 C 0.66736 0.73462 0.93579 0.0
C862 C 0.63572 0.74849 0.89635 0.0
C863 C 0.61124 0.7658 0.89863 0.0
C864 C 0.58571 0.75948 0.88458 0.0
C865 C 0.585 0.73451 0.86827 0.0
C866 C 0.60972 0.71643 0.86594 0.0
C867 C 0.63545 0.72375 0.87987 0.0
H868 H 0.19684 0.38486 0.03541 0.0
H869 H 0.15743 0.30862 0.07187 0.0
H870 H 0.19021 0.31377 0.11089 0.0
H871 H 0.27013 0.36718 0.05443 0.0
H872 H 0.28037 0.40458 0.05983 0.0
H873 H 0.25239 0.39579 0.03587 0.0
H874 H 0.217 0.43052 0.06065 0.0
H875 H 0.24475 0.43901 0.08497 0.0
H876 H 0.21 0.42524 0.09597 0.0
H877 H 0.22858 0.32662 0.14575 0.0
H878 H 0.27175 0.34339 0.17114 0.0
H879 H 0.28746 0.4094 0.11048 0.0
C880 C 0.19547 0.36871 0.05115 0.0
C881 C 0.1749 0.34582 0.05005 0.0
C882 C 0.17309 0.32624 0.07203 0.0
C883 C 0.1916 0.32901 0.09436 0.0
C884 C 0.21189 0.35155 0.09457 0.0
C885 C 0.21408 0.37091 0.07341 0.0
C886 C 0.2386 0.39241 0.07795 0.0
C887 C 0.26174 0.38982 0.05571 0.0
C888 C 0.22688 0.42364 0.08001 0.0
C889 C 0.25012 0.38189 0.1048 0.0
C890 C 0.23417 0.3586 0.11431 0.0
C891 C 0.24117 0.34491 0.13851 0.0
C892 C 0.26564 0.35472 0.15292 0.0
C893 C 0.28304 0.37776 0.14293 0.0
C894 C 0.27462 0.39181 0.11881 0.0
H895 H 0.58914 0.78218 0.36814 0.0
H896 H 0.65592 0.76738 0.42816 0.0
H897 H 0.67281 0.72426 0.40269 0.0
H898 H 0.57383 0.7046 0.35367 0.0
H899 H 0.56807 0.71183 0.31847 0.0
H900 H 0.55965 0.73931 0.34308 0.0
H901 H 0.59334 0.77547 0.31799 0.0
H902 H 0.60234 0.74798 0.29364 0.0
H903 H 0.63085 0.76587 0.3122 0.0
H904 H 0.68572 0.68592 0.36744 0.0
H905 H 0.69107 0.65384 0.32784 0.0
H906 H 0.61403 0.69266 0.29254 0.0
C907 C 0.6069 0.76952 0.37633 0.0
C908 C 0.62115 0.77818 0.40026 0.0
C909 C 0.64443 0.76104 0.41009 0.0
C910 C 0.65428 0.7366 0.39564 0.0
C911 C 0.64037 0.72936 0.37159 0.0
C912 C 0.6168 0.74505 0.36232 0.0
C913 C 0.60624 0.7336 0.33548 0.0
C914 C 0.5751 0.72162 0.33782 0.0
C915 C 0.60833 0.75714 0.31354 0.0
C916 C 0.62799 0.70945 0.33066 0.0
C917 C 0.64751 0.70728 0.35167 0.0
C918 C 0.67033 0.68731 0.35104 0.0
C919 C 0.67322 0.66919 0.32841 0.0
C920 C 0.65351 0.67115 0.30656 0.0
C921 C 0.63027 0.69125 0.30817 0.0
H922 H 0.21669 0.08761 0.61205 0.0
H923 H 0.22994 0.15501 0.67186 0.0
H924 H 0.27341 0.17198 0.64706 0.0
H925 H 0.29496 0.07294 0.59918 0.0
H926 H 0.28865 0.06677 0.56389 0.0
H927 H 0.26065 0.05826 0.58801 0.0
H928 H 0.22478 0.09128 0.56194 0.0
H929 H 0.25278 0.10037 0.53808 0.0
H930 H 0.23414 0.12884 0.55606 0.0
H931 H 0.31221 0.18506 0.61257 0.0
H932 H 0.34516 0.19056 0.57362 0.0
H933 H 0.30804 0.11283 0.53792 0.0
C934 C 0.22909 0.10551 0.62036 0.0
C935 C 0.21984 0.1199 0.64404 0.0
C936 C 0.23667 0.14339 0.65398 0.0
C937 C 0.26134 0.1533 0.63991 0.0
C938 C 0.26918 0.13926 0.61611 0.0
C939 C 0.25385 0.11549 0.60671 0.0
C940 C 0.26608 0.10483 0.58016 0.0
C941 C 0.27832 0.07387 0.58299 0.0
C942 C 0.24307 0.10643 0.55775 0.0
C943 C 0.29016 0.12681 0.57565 0.0
C944 C 0.29165 0.1465 0.59658 0.0
C945 C 0.31138 0.16955 0.59623 0.0
C946 C 0.33 0.17252 0.57396 0.0
C947 C 0.32879 0.15266 0.55218 0.0
C948 C 0.3089 0.12918 0.5535 0.0
H949 H 0.91271 0.71667 0.86538 0.0
H950 H 0.84711 0.73273 0.92634 0.0
H951 H 0.83055 0.77602 0.90098 0.0
H952 H 0.92895 0.79385 0.85018 0.0
H953 H 0.9339 0.78634 0.81492 0.0
H954 H 0.94234 0.75885 0.83952 0.0
H955 H 0.90758 0.72314 0.81519 0.0
H956 H 0.89854 0.75066 0.79088 0.0
H957 H 0.87012 0.73332 0.81004 0.0
H958 H 0.81785 0.8145 0.86605 0.0
H959 H 0.81251 0.84688 0.82674 0.0
H960 H 0.88779 0.80635 0.78974 0.0
C961 C 0.89528 0.72963 0.87381 0.0
C962 C 0.88128 0.72127 0.89799 0.0
C963 C 0.85843 0.73881 0.9081 0.0
C964 C 0.84875 0.76335 0.8937 0.0
C965 C 0.86236 0.77025 0.86941 0.0
C966 C 0.88549 0.75415 0.85981 0.0
C967 C 0.89571 0.76529 0.83271 0.0
C968 C 0.92708 0.77677 0.83445 0.0
C969 C 0.89281 0.74169 0.81093 0.0
C970 C 0.87428 0.78979 0.82815 0.0
C971 C 0.85522 0.79235 0.84953 0.0
C972 C 0.83285 0.81279 0.84936 0.0
C973 C 0.82998 0.83107 0.82687 0.0
C974 C 0.84924 0.82883 0.80468 0.0
C975 C 0.87193 0.80808 0.8057 0.0
H976 H 0.71045 0.62507 0.7334 0.0
H977 H 0.64568 0.66465 0.6817 0.0
H978 H 0.6773 0.65583 0.64232 0.0
H979 H 0.77177 0.65339 0.70105 0.0
H980 H 0.79375 0.62126 0.70525 0.0
H981 H 0.76521 0.62914 0.72888 0.0
H982 H 0.74225 0.57857 0.71996 0.0
H983 H 0.77082 0.5705 0.6963 0.0
H984 H 0.73329 0.56813 0.68604 0.0
H985 H 0.71792 0.64506 0.60869 0.0
H986 H 0.76377 0.63388 0.58455 0.0
H987 H 0.80018 0.59956 0.65853 0.0
C988 C 0.70233 0.63099 0.71378 0.0
C989 C 0.67511 0.64489 0.71067 0.0
C990 C 0.6663 0.65371 0.68461 0.0
C991 C 0.68408 0.6487 0.66208 0.0
C992 C 0.7107 0.63479 0.66585 0.0
C993 C 0.71972 0.62599 0.69108 0.0
C994 C 0.74982 0.61269 0.69002 0.0
C995 C 0.7714 0.63017 0.70732 0.0
C996 C 0.74898 0.58056 0.69858 0.0
C997 C 0.75652 0.61574 0.66034 0.0
C998 C 0.73374 0.62845 0.64662 0.0
C999 C 0.73576 0.63477 0.61921 0.0
C1000 C 0.76188 0.62829 0.60561 0.0
C1001 C 0.78563 0.61559 0.61944 0.0
C1002 C 0.78246 0.6089 0.64709 0.0
H1003 H 0.38693 0.19809 0.97443 0.0
H1004 H 0.31238 0.15656 0.93704 0.0
H1005 H 0.31857 0.18797 0.89721 0.0
H1006 H 0.3689 0.27033 0.95281 0.0
H1007 H 0.40633 0.28097 0.94824 0.0
H1008 H 0.39708 0.25366 0.97272 0.0
H1009 H 0.43321 0.21804 0.95002 0.0
H1010 H 0.44217 0.24511 0.92516 0.0
H1011 H 0.4293 0.20981 0.91479 0.0
H1012 H 0.33223 0.2252 0.86161 0.0
H1013 H 0.34902 0.26794 0.83564 0.0
H1014 H 0.41264 0.28669 0.8977 0.0
C1015 C 0.37134 0.19596 0.95832 0.0
C1016 C 0.34863 0.17516 0.95939 0.0
C1017 C 0.32984 0.17238 0.93692 0.0
C1018 C 0.33322 0.19011 0.91412 0.0
C1019 C 0.35557 0.21061 0.91393 0.0
C1020 C 0.37412 0.21378 0.93558 0.0
C1021 C 0.39543 0.23846 0.93097 0.0
C1022 C 0.3917 0.26226 0.95245 0.0
C1023 C 0.42689 0.22717 0.93019 0.0
C1024 C 0.38571 0.24894 0.90351 0.0
C1025 C 0.36302 0.2323 0.89378 0.0
C1026 C 0.35006 0.23832 0.86902 0.0
C1027 C 0.35989 0.26254 0.85429 0.0
C1028 C 0.38221 0.2807 0.86451 0.0
C1029 C 0.39564 0.27322 0.88919 0.0
H1030 H 0.796 0.82383 0.20846 0.0
H1031 H 0.8432 0.90544 0.20776 0.0
H1032 H 0.81335 0.92236 0.16945 0.0
H1033 H 0.78672 0.81775 0.13505 0.0
H1034 H 0.75066 0.80262 0.13791 0.0
H1035 H 0.7771 0.79616 0.16397 0.0
H1036 H 0.74165 0.8172 0.1995 0.0
H1037 H 0.71507 0.82342 0.17363 0.0
H1038 H 0.72677 0.8531 0.19468 0.0
H1039 H 0.77524 0.93208 0.13404 0.0
H1040 H 0.73145 0.93392 0.105 0.0
H1041 H 0.7103 0.84541 0.12724 0.0
C1042 C 0.8002 0.84513 0.2 0.0
C1043 C 0.82142 0.86364 0.2114 0.0
C1044 C 0.82641 0.89132 0.19982 0.0
C1045 C 0.80982 0.90094 0.17785 0.0
C1046 C 0.78859 0.88243 0.1674 0.0
C1047 C 0.78381 0.85505 0.17804 0.0
C1048 C 0.7586 0.84004 0.16409 0.0
C1049 C 0.7689 0.81251 0.14938 0.0
C1050 C 0.73407 0.83305 0.18417 0.0
C1051 C 0.74951 0.86348 0.14435 0.0
C1052 C 0.76725 0.88768 0.14639 0.0
C1053 C 0.76164 0.913 0.13179 0.0
C1054 C 0.7369 0.91384 0.11521 0.0
C1055 C 0.71832 0.88944 0.11316 0.0
C1056 C 0.72498 0.86386 0.12759 0.0
H1057 H 0.15328 0.20664 0.38378 0.0
H1058 H 0.06999 0.23446 0.35253 0.0
H1059 H 0.07352 0.28001 0.3792 0.0
H1060 H 0.14209 0.22999 0.44931 0.0
H1061 H 0.17897 0.2416 0.45539 0.0
H1062 H 0.17177 0.2134 0.43123 0.0
H1063 H 0.19857 0.24291 0.39441 0.0
H1064 H 0.2062 0.27111 0.41856 0.0
H1065 H 0.18769 0.27986 0.38768 0.0
H1066 H 0.08465 0.32055 0.41247 0.0
H1067 H 0.10243 0.35277 0.4487 0.0
H1068 H 0.17785 0.29741 0.45917 0.0
C1069 C 0.13631 0.22286 0.38193 0.0
C1070 C 0.11173 0.21765 0.36564 0.0
C1071 C 0.0893 0.2386 0.3644 0.0
C1072 C 0.09111 0.26438 0.37956 0.0
C1073 C 0.11547 0.26872 0.39588 0.0
C1074 C 0.13779 0.24859 0.39697 0.0
C1075 C 0.16061 0.25732 0.41744 0.0
C1076 C 0.16351 0.2342 0.43965 0.0
C1077 C 0.19001 0.26315 0.4037 0.0
C1078 C 0.1474 0.28517 0.4282 0.0
C1079 C 0.12148 0.29152 0.4154 0.0
C1080 C 0.10489 0.3157 0.4226 0.0
C1081 C 0.11494 0.33366 0.44351 0.0
C1082 C 0.14113 0.3272 0.45723 0.0
C1083 C 0.15774 0.3029 0.44905 0.0
H1084 H 0.70206 0.82039 0.55662 0.0
H1085 H 0.64826 0.89737 0.56352 0.0
H1086 H 0.67928 0.91521 0.6007 0.0
H1087 H 0.7172 0.8119 0.62891 0.0
H1088 H 0.75412 0.80021 0.62326 0.0
H1089 H 0.72647 0.79259 0.59857 0.0
H1090 H 0.75731 0.8183 0.56199 0.0
H1091 H 0.7851 0.82574 0.58648 0.0
H1092 H 0.76936 0.85515 0.56746 0.0
H1093 H 0.71878 0.9265 0.63461 0.0
H1094 H 0.76401 0.93059 0.66157 0.0
H1095 H 0.79118 0.84573 0.63361 0.0
C1096 C 0.69666 0.84083 0.56623 0.0
C1097 C 0.67315 0.85783 0.5569 0.0
C1098 C 0.66671 0.88445 0.56987 0.0
C1099 C 0.68399 0.89456 0.59121 0.0
C1100 C 0.70744 0.87759 0.5996 0.0
C1101 C 0.71374 0.85123 0.58753 0.0
C1102 C 0.74111 0.83792 0.59928 0.0
C1103 C 0.7343 0.80894 0.61334 0.0
C1104 C 0.7646 0.83407 0.57751 0.0
C1105 C 0.74959 0.86117 0.61944 0.0
C1106 C 0.72974 0.88376 0.61954 0.0
C1107 C 0.73411 0.90865 0.63512 0.0
C1108 C 0.7597 0.91077 0.6505 0.0
C1109 C 0.78039 0.88805 0.6503 0.0
C1110 C 0.77505 0.86285 0.63486 0.0
H1111 H 0.15292 0.28575 0.88649 0.0
H1112 H 0.06054 0.27232 0.89784 0.0
H1113 H 0.06252 0.22895 0.86838 0.0
H1114 H 0.15266 0.27173 0.81868 0.0
H1115 H 0.18747 0.25377 0.81709 0.0
H1116 H 0.18039 0.27992 0.84316 0.0
H1117 H 0.19308 0.24173 0.87954 0.0
H1118 H 0.20069 0.21551 0.85354 0.0
H1119 H 0.17469 0.20707 0.87952 0.0
H1120 H 0.07349 0.19049 0.83388 0.0
H1121 H 0.09239 0.16009 0.79679 0.0
H1122 H 0.17718 0.20031 0.80543 0.0
C1123 C 0.13348 0.27275 0.88375 0.0
C1124 C 0.10677 0.28154 0.89521 0.0
C1125 C 0.08133 0.26523 0.88994 0.0
C1126 C 0.08227 0.2407 0.87313 0.0
C1127 C 0.10878 0.23302 0.86144 0.0
C1128 C 0.134 0.24848 0.86661 0.0
C1129 C 0.15889 0.23778 0.84914 0.0
C1130 C 0.17052 0.26226 0.83094 0.0
C1131 C 0.18328 0.22474 0.86647 0.0
C1132 C 0.14359 0.21443 0.83286 0.0
C1133 C 0.1148 0.21178 0.84053 0.0
C1134 C 0.096 0.1924 0.82774 0.0
C1135 C 0.10681 0.17551 0.80646 0.0
C1136 C 0.13599 0.17846 0.79775 0.0
C1137 C 0.15472 0.19774 0.81157 0.0
H1138 H 0.80188 0.61547 0.03841 0.0
H1139 H 0.84474 0.68725 0.07898 0.0
H1140 H 0.81206 0.68069 0.11791 0.0
H1141 H 0.72957 0.63489 0.05916 0.0
H1142 H 0.71775 0.59766 0.06236 0.0
H1143 H 0.74591 0.60695 0.03871 0.0
H1144 H 0.77993 0.56902 0.06094 0.0
H1145 H 0.752 0.55997 0.08495 0.0
H1146 H 0.7874 0.57141 0.09643 0.0
H1147 H 0.7734 0.66702 0.15226 0.0
H1148 H 0.72976 0.65033 0.17699 0.0
H1149 H 0.71081 0.58944 0.11268 0.0
C1150 C 0.80406 0.63039 0.05505 0.0
C1151 C 0.82559 0.65245 0.05512 0.0
C1152 C 0.82837 0.67032 0.07822 0.0
C1153 C 0.80991 0.66673 0.10052 0.0
C1154 C 0.78868 0.64509 0.09956 0.0
C1155 C 0.78553 0.6274 0.0773 0.0
C1156 C 0.76013 0.60667 0.08076 0.0
C1157 C 0.73697 0.61187 0.05896 0.0
C1158 C 0.7705 0.57488 0.08077 0.0
C1159 C 0.74925 0.6157 0.1083 0.0
C1160 C 0.76626 0.63759 0.11904 0.0
C1161 C 0.76 0.64982 0.14406 0.0
C1162 C 0.73524 0.64005 0.15808 0.0
C1163 C 0.71679 0.6185 0.14692 0.0
C1164 C 0.72445 0.60584 0.12193 0.0
H1165 H 0.37765 0.28952 0.27865 0.0
H1166 H 0.33483 0.3526 0.32995 0.0
H1167 H 0.3447 0.32145 0.36945 0.0
H1168 H 0.35168 0.22713 0.31088 0.0
H1169 H 0.38475 0.20653 0.30688 0.0
H1170 H 0.37584 0.23469 0.28319 0.0
H1171 H 0.42535 0.25976 0.29242 0.0
H1172 H 0.43443 0.23158 0.31615 0.0
H1173 H 0.43514 0.26918 0.3264 0.0
H1174 H 0.357 0.28131 0.40325 0.0
H1175 H 0.36971 0.23591 0.42742 0.0
H1176 H 0.40617 0.20095 0.3537 0.0
C1177 C 0.37122 0.29742 0.29822 0.0
C1178 C 0.35615 0.32403 0.30117 0.0
C1179 C 0.3467 0.33248 0.32716 0.0
C1180 C 0.35229 0.31496 0.34976 0.0
C1181 C 0.3674 0.28896 0.34614 0.0
C1182 C 0.37678 0.2803 0.32097 0.0
C1183 C 0.39133 0.25078 0.32214 0.0
C1184 C 0.37491 0.22848 0.30475 0.0
C1185 C 0.42347 0.25297 0.31378 0.0
C1186 C 0.38834 0.24397 0.3518 0.0
C1187 C 0.37458 0.26621 0.36543 0.0
C1188 C 0.36812 0.26392 0.3928 0.0
C1189 C 0.37548 0.23806 0.40642 0.0
C1190 C 0.3892 0.2148 0.39267 0.0
C1191 C 0.39607 0.2183 0.36508 0.0
H1192 H 0.06363 0.03496 0.30682 0.0
H1193 H 0.99874 0.09269 0.2735 0.0
H1194 H 0.96751 0.05024 0.26263 0.0
H1195 H 0.05058 0.97147 0.25972 0.0
H1196 H 0.05626 0.9457 0.2865 0.0
H1197 H 0.07556 0.97986 0.28654 0.0
H1198 H 0.05559 0.99093 0.33418 0.0
H1199 H 0.03611 0.95704 0.33422 0.0
H1200 H 0.01683 0.99063 0.33977 0.0
H1201 H 0.94006 0.00312 0.26383 0.0
H1202 H 0.91908 0.95545 0.27581 0.0
H1203 H 0.00304 0.92711 0.3054 0.0
C1204 C 0.04336 0.03838 0.29619 0.0
C1205 C 0.03361 0.06675 0.29039 0.0
C1206 C 0.00663 0.07092 0.27746 0.0
C1207 C 0.98885 0.04696 0.27129 0.0
C1208 C 0.99865 0.01913 0.27799 0.0
C1209 C 0.02551 0.01472 0.28983 0.0
C1210 C 0.02965 0.9832 0.29781 0.0
C1211 C 0.05449 0.96923 0.28167 0.0
C1212 C 0.03484 0.9803 0.32829 0.0
C1213 C 1.00045 0.97074 0.28976 0.0
C1214 C 0.98296 0.99173 0.27812 0.0
C1215 C 0.95384 0.98629 0.27213 0.0
C1216 C 0.94213 0.95905 0.27886 0.0
C1217 C 0.95952 0.93755 0.29136 0.0
C1218 C 0.98928 0.94318 0.29587 0.0
H1219 H 0.03727 0.43772 0.55455 0.0
H1220 H 0.09698 0.50461 0.52806 0.0
H1221 H 0.05526 0.53699 0.51769 0.0
H1222 H 0.97608 0.45497 0.50625 0.0
H1223 H 0.94912 0.44741 0.53163 0.0
H1224 H 0.98313 0.42789 0.53163 0.0
H1225 H 0.99222 0.44398 0.58083 0.0
H1226 H 0.9585 0.4637 0.58095 0.0
H1227 H 0.99197 0.4822 0.58897 0.0
H1228 H 0.00828 0.56466 0.51898 0.0
H1229 H 0.95995 0.58487 0.53013 0.0
H1230 H 0.93011 0.49916 0.55349 0.0
C1231 C 0.04133 0.45877 0.54549 0.0
C1232 C 0.07001 0.46874 0.54155 0.0
C1233 C 0.07497 0.49663 0.53062 0.0
C1234 C 0.05145 0.51505 0.52475 0.0
C1235 C 0.02327 0.50497 0.52971 0.0
C1236 C 0.01813 0.47727 0.5395 0.0
C1237 C 0.98627 0.47276 0.54604 0.0
C1238 C 0.97286 0.44937 0.52779 0.0
C1239 C 0.98202 0.46523 0.57596 0.0
C1240 C 0.97438 0.5026 0.5395 0.0
C1241 C 0.99599 0.52082 0.52986 0.0
C1242 C 0.99099 0.55037 0.52562 0.0
C1243 C 0.96345 0.56165 0.53187 0.0
C1244 C 0.94123 0.54338 0.54206 0.0
C1245 C 0.94661 0.5134 0.54519 0.0
H1246 H 0.43613 0.46294 0.80827 0.0
H1247 H 0.49961 0.40611 0.7714 0.0
H1248 H 0.53011 0.44895 0.75986 0.0
H1249 H 0.44643 0.52711 0.76173 0.0
H1250 H 0.44192 0.55241 0.7891 0.0
H1251 H 0.4229 0.51809 0.78951 0.0
H1252 H 0.44535 0.50634 0.83605 0.0
H1253 H 0.46446 0.54042 0.83574 0.0
H1254 H 0.48434 0.50695 0.83994 0.0
H1255 H 0.55734 0.49646 0.76051 0.0
H1256 H 0.57852 0.54413 0.7725 0.0
H1257 H 0.49606 0.57081 0.80659 0.0
C1258 C 0.45596 0.45978 0.79687 0.0
C1259 C 0.46557 0.43156 0.79032 0.0
C1260 C 0.49188 0.42777 0.77612 0.0
C1261 C 0.50923 0.45194 0.76953 0.0
C1262 C 0.49961 0.47961 0.77703 0.0
C1263 C 0.47335 0.48363 0.7901 0.0
C1264 C 0.46935 0.51495 0.7987 0.0
C1265 C 0.44362 0.52897 0.78387 0.0
C1266 C 0.46568 0.51728 0.82941 0.0
C1267 C 0.498 0.52777 0.78954 0.0
C1268 C 0.51507 0.50716 0.77681 0.0
C1269 C 0.54385 0.513 0.76968 0.0
C1270 C 0.55568 0.5402 0.77642 0.0
C1271 C 0.53874 0.56118 0.79014 0.0
C1272 C 0.50927 0.55523 0.79574 0.0
H1273 H 0.46512 0.06561 0.05461 0.0
H1274 H 0.40739 0.99822 0.02566 0.0
H1275 H 0.44997 0.96754 0.01408 0.0
H1276 H 0.52659 0.05227 1.00543 0.0
H1277 H 0.55352 0.05943 0.03091 0.0
H1278 H 0.51897 0.07796 0.03188 0.0
H1279 H 0.51063 0.05938 0.08047 0.0
H1280 H 0.54495 0.04072 0.0796 0.0
H1281 H 0.51213 0.02085 0.08712 0.0
H1282 H 0.49759 0.94129 0.01396 0.0
H1283 H 0.54617 0.92173 0.02466 0.0
H1284 H 0.57414 0.00725 0.05059 0.0
C1285 C 0.46168 0.04485 0.04482 0.0
C1286 C 0.43331 0.03426 0.04041 0.0
C1287 C 0.42915 0.00669 0.02857 0.0
C1288 C 0.45317 0.98924 0.02197 0.0
C1289 C 0.48105 0.99993 0.02719 0.0
C1290 C 0.48542 0.02729 0.03805 0.0
C1291 C 0.5172 0.0324 0.04456 0.0
C1292 C 0.52981 0.05697 0.02715 0.0
C1293 C 0.52146 0.03869 0.07472 0.0
C1294 C 0.5299 0.00322 0.03679 0.0
C1295 C 0.50876 0.98488 0.02655 0.0
C1296 C 0.51451 0.9557 0.02115 0.0
C1297 C 0.54226 0.94479 0.02713 0.0
C1298 C 0.56393 0.96305 0.03829 0.0
C1299 C 0.55793 0.99284 0.0421 0.0
H1300 H 0.996 0.43066 0.96221 0.0
H1301 H 0.08428 0.45962 0.9767 0.0
H1302 H 0.06636 0.50923 0.986 0.0
H1303 H 0.97715 0.49005 0.92431 0.0
H1304 H 0.9399 0.49231 0.93544 0.0
H1305 H 0.95854 0.45797 0.93612 0.0
H1306 H 0.9472 0.45269 0.98692 0.0
H1307 H 0.92837 0.48708 0.98639 0.0
H1308 H 0.95772 0.48125 0.00977 0.0
H1309 H 0.04019 0.55685 0.9865 0.0
H1310 H 0.00776 0.59877 0.97728 0.0
H1311 H 0.93683 0.53966 0.96032 0.0
C1312 C 0.01136 0.44732 0.96814 0.0
C1313 C 0.0414 0.44126 0.96936 0.0
C1314 C 0.06107 0.46365 0.97653 0.0
C1315 C 0.05109 0.49192 0.98169 0.0
C1316 C 0.02138 0.49748 0.97944 0.0
C1317 C 0.00176 0.47577 0.97287 0.0
C1318 C 0.97166 0.48814 0.9681 0.0
C1319 C 0.96122 0.48174 0.93929 0.0
C1320 C 0.94996 0.4766 0.98905 0.0
C1321 C 0.97759 0.52024 0.97216 0.0
C1322 C 0.00629 0.52516 0.97916 0.0
C1323 C 0.01751 0.55325 0.98168 0.0
C1324 C 0.99904 0.57689 0.97648 0.0
C1325 C 0.96987 0.57216 0.96882 0.0
C1326 C 0.9589 0.5436 0.96701 0.0
H1327 H 0.46169 0.43589 0.20437 0.0
H1328 H 0.4027 0.5033 0.23093 0.0
H1329 H 0.44474 0.53538 0.24111 0.0
H1330 H 0.52275 0.45228 0.25262 0.0
H1331 H 0.54982 0.44463 0.22737 0.0
H1332 H 0.51555 0.42552 0.22698 0.0
H1333 H 0.50708 0.44219 0.17785 0.0
H1334 H 0.54108 0.46152 0.17814 0.0
H1335 H 0.50792 0.48047 0.17001 0.0
H1336 H 0.49215 0.56249 0.24047 0.0
H1337 H 0.54111 0.58204 0.2307 0.0
H1338 H 0.57 0.49619 0.20682 0.0
C1339 C 0.45786 0.457 0.21338 0.0
C1340 C 0.42928 0.46713 0.21754 0.0
C1341 C 0.42462 0.49515 0.22828 0.0
C1342 C 0.44833 0.51342 0.23402 0.0
C1343 C 0.4764 0.50312 0.22902 0.0
C1344 C 0.48126 0.47538 0.21924 0.0
C1345 C 0.51314 0.47056 0.2129 0.0
C1346 C 0.52608 0.44684 0.23106 0.0
C1347 C 0.51754 0.46327 0.18296 0.0
C1348 C 0.52538 0.50021 0.21974 0.0
C1349 C 0.5039 0.51864 0.22919 0.0
C1350 C 0.50932 0.54803 0.23393 0.0
C1351 C 0.53723 0.55892 0.22847 0.0
C1352 C 0.55942 0.54044 0.21861 0.0
C1353 C 0.55352 0.51063 0.21481 0.0
H1354 H 0.5628 0.95707 0.45867 0.0
H1355 H 0.49346 0.90024 0.48519 0.0
H1356 H 0.46227 0.9432 0.4942 0.0
H1357 H 0.54693 0.01965 0.50554 0.0
H1358 H 0.55571 0.04592 0.47989 0.0
H1359 H 0.57404 0.01126 0.48052 0.0
H1360 H 0.55817 0.00195 0.4313 0.0
H1361 H 0.53963 0.03634 0.43057 0.0
H1362 H 0.52008 0.0034 0.42279 0.0
H1363 H 0.43632 0.99113 0.49225 0.0
H1364 H 0.41804 0.04017 0.48099 0.0
H1365 H 0.50498 0.0666 0.45786 0.0
C1366 C 0.54145 0.95392 0.46744 0.0
C1367 C 0.53051 0.92568 0.47188 0.0
C1368 C 0.50221 0.9219 0.4823 0.0
C1369 C 0.48444 0.94613 0.48739 0.0
C1370 C 0.49553 0.97384 0.48207 0.0
C1371 C 0.52355 0.97786 0.47262 0.0
C1372 C 0.52923 0.00945 0.46573 0.0
C1373 C 0.55288 0.02233 0.48402 0.0
C1374 C 0.53724 0.01297 0.43583 0.0
C1375 C 0.49973 0.02249 0.47181 0.0
C1376 C 0.48064 0.00166 0.48144 0.0
C1377 C 0.45129 0.00781 0.48555 0.0
C1378 C 0.44111 0.03576 0.47925 0.0
C1379 C 0.46027 0.05726 0.46913 0.0
C1380 C 0.49003 0.05066 0.46602 0.0
H1381 H 0.0745 0.99616 0.70667 0.0
H1382 H 0.04762 0.08242 0.73133 0.0
H1383 H 0.99876 0.06366 0.74226 0.0
H1384 H 0.01249 0.9821 0.67099 0.0
H1385 H 0.0104 0.94379 0.67848 0.0
H1386 H 0.04502 0.96199 0.67897 0.0
H1387 H 0.05356 0.94484 0.72795 0.0
H1388 H 0.01892 0.92638 0.72758 0.0
H1389 H 0.02674 0.9528 0.75335 0.0
H1390 H 0.95091 0.03782 0.74316 0.0
H1391 H 0.90796 0.00689 0.73333 0.0
H1392 H 0.9648 0.93819 0.70557 0.0
C1393 C 0.0585 0.01083 0.71512 0.0
C1394 C 0.06489 0.04061 0.71851 0.0
C1395 C 0.0434 0.05936 0.72922 0.0
C1396 C 0.01551 0.04891 0.73536 0.0
C1397 C 0.00942 0.01966 0.73059 0.0
C1398 C 0.03036 0.00083 0.72078 0.0
C1399 C 0.01726 0.97154 0.71379 0.0
C1400 C 0.02154 0.96446 0.68378 0.0
C1401 C 0.02987 0.94747 0.73175 0.0
C1402 C 0.98557 0.97716 0.72031 0.0
C1403 C 0.98156 0.00486 0.73048 0.0
C1404 C 0.95385 0.01586 0.73583 0.0
C1405 C 0.92963 0.99825 0.73025 0.0
C1406 C 0.93341 0.97018 0.71934 0.0
C1407 C 0.96164 0.95936 0.71467 0.0
H1408 H 0.32246 0.10822 0.36458 0.0
H1409 H 0.30691 0.0809 0.44667 0.0
H1410 H 0.25672 0.0668 0.43454 0.0
H1411 H 0.26031 0.14447 0.35826 0.0
H1412 H 0.25342 0.13637 0.32339 0.0
H1413 H 0.28998 0.13581 0.33593 0.0
H1414 H 0.29617 0.08278 0.31922 0.0
H1415 H 0.25944 0.08324 0.30647 0.0
H1416 H 0.27058 0.05528 0.32968 0.0
H1417 H 0.20717 0.06425 0.41628 0.0
H1418 H 0.1609 0.07792 0.39524 0.0
H1419 H 0.20753 0.11014 0.32538 0.0
C1420 C 0.30882 0.09807 0.37966 0.0
C1421 C 0.31845 0.09515 0.40642 0.0
C1422 C 0.29981 0.08303 0.42602 0.0
C1423 C 0.27144 0.07472 0.41922 0.0
C1424 C 0.26216 0.07889 0.3928 0.0
C1425 C 0.28029 0.09038 0.37331 0.0
C1426 C 0.26364 0.0981 0.34805 0.0
C1427 C 0.26703 0.1306 0.34104 0.0
C1428 C 0.27302 0.07868 0.32446 0.0
C1429 C 0.23303 0.09096 0.35701 0.0
C1430 C 0.23282 0.07883 0.38247 0.0
C1431 C 0.20705 0.0732 0.39616 0.0
C1432 C 0.18085 0.08123 0.38405 0.0
C1433 C 0.18065 0.09531 0.3587 0.0
C1434 C 0.20701 0.09912 0.34461 0.0
H1435 H 0.89499 0.68231 0.64732 0.0
H1436 H 0.91833 0.69886 0.56435 0.0
H1437 H 0.93267 0.74898 0.57635 0.0
H1438 H 0.85867 0.74375 0.65588 0.0
H1439 H 0.86847 0.7505 0.6904 0.0
H1440 H 0.86889 0.71406 0.6776 0.0
H1441 H 0.92282 0.7085 0.69185 0.0
H1442 H 0.92251 0.74512 0.70487 0.0
H1443 H 0.94939 0.73455 0.68036 0.0
H1444 H 0.93494 0.79839 0.59467 0.0
H1445 H 0.9209 0.84418 0.61628 0.0
H1446 H 0.89353 0.79671 0.68736 0.0
C1447 C 0.90435 0.69615 0.63197 0.0
C1448 C 0.90597 0.68683 0.60501 0.0
C1449 C 0.91713 0.70572 0.58513 0.0
C1450 C 0.92559 0.73406 0.59185 0.0
C1451 C 0.92261 0.74306 0.61849 0.0
C1452 C 0.91222 0.72465 0.63828 0.0
C1453 C 0.90557 0.741 0.66397 0.0
C1454 C 0.87351 0.73711 0.67241 0.0
C1455 C 0.92632 0.73174 0.6866 0.0
C1456 C 0.91182 0.77178 0.65493 0.0
C1457 C 0.92274 0.77232 0.62901 0.0
C1458 C 0.92703 0.79825 0.61516 0.0
C1459 C 0.91881 0.8242 0.62762 0.0
C1460 C 0.90595 0.82403 0.65352 0.0
C1461 C 0.90362 0.79757 0.66772 0.0
H1462 H 0.20585 0.3909 0.93366 0.0
H1463 H 0.15861 0.41811 0.86247 0.0
H1464 H 0.20466 0.43132 0.84064 0.0
H1465 H 0.26874 0.44601 0.92629 0.0
H1466 H 0.29431 0.4192 0.9381 0.0
H1467 H 0.25761 0.41951 0.95095 0.0
H1468 H 0.25157 0.36556 0.93706 0.0
H1469 H 0.28793 0.36511 0.92399 0.0
H1470 H 0.25788 0.35522 0.90258 0.0
H1471 H 0.25429 0.42893 0.82245 0.0
H1472 H 0.30447 0.41453 0.81071 0.0
H1473 H 0.32038 0.39126 0.89381 0.0
C1474 C 0.20512 0.40074 0.91393 0.0
C1475 C 0.17868 0.40326 0.89976 0.0
C1476 C 0.17862 0.41584 0.87375 0.0
C1477 C 0.2047 0.42363 0.86119 0.0
C1478 C 0.23059 0.41927 0.87508 0.0
C1479 C 0.23101 0.40871 0.90114 0.0
C1480 C 0.26173 0.40214 0.91018 0.0
C1481 C 0.27115 0.42297 0.93271 0.0
C1482 C 0.26494 0.37012 0.91893 0.0
C1483 C 0.27812 0.40834 0.88444 0.0
C1484 C 0.25988 0.4188 0.86459 0.0
C1485 C 0.26907 0.42177 0.83801 0.0
C1486 C 0.29746 0.4133 0.83144 0.0
C1487 C 0.31619 0.40211 0.85142 0.0
C1488 C 0.30669 0.40057 0.87833 0.0
H1489 H 0.60666 0.79447 0.07792 0.0
H1490 H 0.57972 0.84242 0.14881 0.0
H1491 H 0.56647 0.79659 0.17102 0.0
H1492 H 0.55103 0.73203 0.08591 0.0
H1493 H 0.57761 0.70623 0.07406 0.0
H1494 H 0.57742 0.74284 0.06103 0.0
H1495 H 0.63154 0.74859 0.07453 0.0
H1496 H 0.63186 0.71235 0.08781 0.0
H1497 H 0.64207 0.74249 0.10898 0.0
H1498 H 0.56907 0.74703 0.18958 0.0
H1499 H 0.58339 0.69688 0.20147 0.0
H1500 H 0.6057 0.68032 0.11822 0.0
C1501 C 0.59679 0.79541 0.09764 0.0
C1502 C 0.59439 0.82198 0.11162 0.0
C1503 C 0.58187 0.8223 0.13766 0.0
C1504 C 0.57407 0.79636 0.15044 0.0
C1505 C 0.57831 0.77034 0.13671 0.0
C1506 C 0.58874 0.76967 0.11061 0.0
C1507 C 0.59506 0.73887 0.10169 0.0
C1508 C 0.57401 0.72944 0.07935 0.0
C1509 C 0.62701 0.7354 0.09276 0.0
C1510 C 0.58894 0.72269 0.12755 0.0
C1511 C 0.57874 0.74112 0.14738 0.0
C1512 C 0.57598 0.7321 0.17403 0.0
C1513 C 0.58439 0.70371 0.18067 0.0
C1514 C 0.59528 0.68479 0.16068 0.0
C1515 C 0.59662 0.69414 0.13372 0.0
H1516 H 0.70812 0.61055 0.82712 0.0
H1517 H 0.66241 0.5767 0.89678 0.0
H1518 H 0.70892 0.56315 0.91731 0.0
H1519 H 0.77257 0.55666 0.83051 0.0
H1520 H 0.79737 0.58498 0.82028 0.0
H1521 H 0.76058 0.58463 0.80766 0.0
H1522 H 0.75328 0.63723 0.82501 0.0
H1523 H 0.78972 0.6377 0.83782 0.0
H1524 H 0.75962 0.64514 0.86002 0.0
H1525 H 0.75838 0.56585 0.93534 0.0
H1526 H 0.80803 0.58129 0.94786 0.0
H1527 H 0.82301 0.61052 0.86621 0.0
C1528 C 0.70787 0.59918 0.84616 0.0
C1529 C 0.68164 0.59483 0.86034 0.0
C1530 C 0.6822 0.58036 0.88549 0.0
C1531 C 0.70857 0.57236 0.89729 0.0
C1532 C 0.73419 0.57844 0.88351 0.0
C1533 C 0.7341 0.59096 0.85821 0.0
C1534 C 0.76459 0.59902 0.84942 0.0
C1535 C 0.77435 0.58019 0.82555 0.0
C1536 C 0.76691 0.63169 0.84271 0.0
C1537 C 0.78135 0.59137 0.87461 0.0
C1538 C 0.76353 0.57895 0.89385 0.0
C1539 C 0.7729 0.57448 0.92018 0.0
C1540 C 0.801 0.58349 0.92719 0.0
C1541 C 0.8193 0.59662 0.90787 0.0
C1542 C 0.80969 0.59964 0.8811 0.0
H1543 H 0.39713 0.20667 0.07276 0.0
H1544 H 0.43009 0.16102 0.14269 0.0
H1545 H 0.44418 0.2075 0.16299 0.0
H1546 H 0.45136 0.27171 0.07682 0.0
H1547 H 0.42295 0.29614 0.06621 0.0
H1548 H 0.42406 0.25945 0.05341 0.0
H1549 H 0.37116 0.25143 0.06964 0.0
H1550 H 0.36993 0.28768 0.08277 0.0
H1551 H 0.36238 0.25727 0.10456 0.0
H1552 H 0.44032 0.25676 0.18128 0.0
H1553 H 0.42328 0.30582 0.19398 0.0
H1554 H 0.39551 0.32092 0.11198 0.0
C1555 C 0.40854 0.20637 0.09175 0.0
C1556 C 0.41224 0.18023 0.10617 0.0
C1557 C 0.42687 0.18075 0.13122 0.0
C1558 C 0.43517 0.20712 0.14291 0.0
C1559 C 0.42926 0.23274 0.12907 0.0
C1560 C 0.41698 0.2326 0.10367 0.0
C1561 C 0.40869 0.263 0.0949 0.0
C1562 C 0.42793 0.27317 0.07145 0.0
C1563 C 0.37612 0.26493 0.08758 0.0
C1564 C 0.41558 0.27971 0.12031 0.0
C1565 C 0.42808 0.26201 0.13957 0.0
C1566 C 0.43167 0.27121 0.1661 0.0
C1567 C 0.42171 0.29894 0.17322 0.0
C1568 C 0.40851 0.31708 0.15384 0.0
C1569 C 0.4064 0.30772 0.12693 0.0
H1570 H 0.7881 0.89641 0.32712 0.0
H1571 H 0.83505 0.92909 0.39646 0.0
H1572 H 0.78883 0.94222 0.41795 0.0
H1573 H 0.72263 0.94994 0.33303 0.0
H1574 H 0.69823 0.9214 0.32256 0.0
H1575 H 0.73464 0.92307 0.3091 0.0
H1576 H 0.74342 0.87003 0.32463 0.0
H1577 H 0.70744 0.86834 0.33839 0.0
H1578 H 0.73835 0.86079 0.35956 0.0
H1579 H 0.73997 0.93748 0.43717 0.0
H1580 H 0.69126 0.91984 0.45051 0.0
H1581 H 0.67473 0.89336 0.36837 0.0
C1582 C 0.78868 0.90763 0.34623 0.0
C1583 C 0.81511 0.91151 0.36015 0.0
C1584 C 0.81503 0.92574 0.38541 0.0
C1585 C 0.78885 0.9335 0.39775 0.0
C1586 C 0.76297 0.9275 0.38434 0.0
C1587 C 0.76265 0.9156 0.35877 0.0
C1588 C 0.73212 0.90715 0.35048 0.0
C1589 C 0.72126 0.92656 0.32743 0.0
C1590 C 0.73026 0.87467 0.34286 0.0
C1591 C 0.71592 0.91358 0.37627 0.0
C1592 C 0.73394 0.92591 0.39539 0.0
C1593 C 0.72526 0.92898 0.42213 0.0
C1594 C 0.69773 0.91866 0.42961 0.0
C1595 C 0.6793 0.90566 0.41036 0.0
C1596 C 0.68813 0.9041 0.38326 0.0
H1597 H 0.10131 0.2059 0.68097 0.0
H1598 H 0.08281 0.15879 0.6074 0.0
H1599 H 0.06854 0.20437 0.58553 0.0
H1600 H 0.04317 0.26635 0.67003 0.0
H1601 H 0.06759 0.29282 0.68439 0.0
H1602 H 0.06747 0.25594 0.69677 0.0
H1603 H 0.12284 0.25251 0.68766 0.0
H1604 H 0.12311 0.28897 0.67502 0.0
H1605 H 0.1364 0.25969 0.65429 0.0
H1606 H 0.07116 0.25408 0.56811 0.0
H1607 H 0.08629 0.30441 0.5579 0.0
H1608 H 0.09998 0.32035 0.64279 0.0
C1609 C 0.09299 0.20499 0.66069 0.0
C1610 C 0.09337 0.17882 0.64595 0.0
C1611 C 0.08279 0.17857 0.6192 0.0
C1612 C 0.07441 0.2044 0.60658 0.0
C1613 C 0.0761 0.23018 0.62114 0.0
C1614 C 0.08441 0.23063 0.64787 0.0
C1615 C 0.08877 0.26143 0.65776 0.0
C1616 C 0.06534 0.26962 0.67846 0.0
C1617 C 0.1196 0.26588 0.66932 0.0
C1618 C 0.08451 0.27793 0.63177 0.0
C1619 C 0.07648 0.25962 0.611 0.0
C1620 C 0.07626 0.26892 0.58432 0.0
C1621 C 0.08513 0.29741 0.57865 0.0
C1622 C 0.09392 0.31617 0.59962 0.0
C1623 C 0.0925 0.30662 0.62651 0.0
loop_
_geom_bond_atom_site_label_1
_geom_bond_atom_site_label_2
_geom_bond_distance
_geom_bond_site_symmetry_2
_ccdc_geom_bond_type
Co0 O3 1.970 . S
Co0 N17 1.989 . S
Co0 O25 1.967 . S
Co0 O32 1.920 . S
Co1 O4 1.966 . S
Co1 N10 2.022 . S
Co1 N18 1.993 . S
Co1 O26 1.941 . S
C2 O3 1.258 . S
C2 O4 1.263 . S
O3 Co0 1.970 . S
O3 C2 1.258 . S
O4 Co1 1.966 . S
O4 C2 1.263 . S
C5 O6 1.235 . S
C5 O32 1.289 . S
O6 C5 1.235 . S
C7 C9 1.400 . S
C7 N10 1.351 . S
C7 C12 1.501 . S
C8 C9 1.387 . S
C8 N11 1.341 . S
C9 C7 1.400 . S
C9 C8 1.387 . S
N10 Co1 2.022 . S
N10 C7 1.351 . S
N10 N11 1.365 . S
N11 C8 1.341 . S
N11 N10 1.365 . S
N11 H31 0.862 . S
C12 C7 1.501 . S
C12 H13 0.961 . S
C12 H14 0.961 . S
C12 H15 0.960 . S
H13 C12 0.961 . S
H14 C12 0.961 . S
H15 C12 0.960 . S
C16 N17 1.342 . S
C16 C20 1.401 . S
C16 C21 1.499 . S
N17 Co0 1.989 . S
N17 C16 1.342 . S
N17 N18 1.388 . S
N18 Co1 1.993 . S
N18 N17 1.388 . S
N18 C19 1.346 . S
C19 N18 1.346 . S
C19 C20 1.396 . S
C19 C29 1.510 . S
C20 C16 1.401 . S
C20 C19 1.396 . S
C21 C16 1.499 . S
C21 H22 0.959 . S
C21 H23 0.960 . S
C21 H24 0.961 . S
H22 C21 0.959 . S
H23 C21 0.960 . S
H24 C21 0.961 . S
O25 Co0 1.967 . S
O25 C33 1.258 . S
O26 Co1 1.941 . S
O26 C33 1.266 . S
H27 C29 0.959 . S
H28 C29 0.961 . S
C29 C19 1.510 . S
C29 H27 0.959 . S
C29 H28 0.961 . S
C29 H30 0.960 . S
H30 C29 0.960 . S
H31 N11 0.862 . S
O32 Co0 1.920 . S
O32 C5 1.289 . S
C33 O25 1.258 . S
C33 O26 1.266 . S
Co34 O37 1.970 . S
Co34 N51 1.989 . S
Co34 O59 1.967 . S
Co34 O66 1.920 . S
Co35 O38 1.966 . S
Co35 N44 2.022 . S
Co35 N52 1.993 . S
Co35 O60 1.941 . S
C36 O37 1.258 . S
C36 O38 1.263 . S
O37 Co34 1.970 . S
O37 C36 1.258 . S
O38 Co35 1.966 . S
O38 C36 1.263 . S
C39 O40 1.235 . S
C39 O66 1.289 . S
O40 C39 1.235 . S
C41 C43 1.400 . S
C41 N44 1.351 . S
C41 C46 1.501 . S
C42 C43 1.387 . S
C42 N45 1.341 . S
C43 C41 1.400 . S
C43 C42 1.387 . S
N44 Co35 2.022 . S
N44 C41 1.351 . S
N44 N45 1.365 . S
N45 C42 1.341 . S
N45 N44 1.365 . S
N45 H65 0.862 . S
C46 C41 1.501 . S
C46 H47 0.961 . S
C46 H48 0.961 . S
C46 H49 0.960 . S
H47 C46 0.961 . S
H48 C46 0.961 . S
H49 C46 0.960 . S
C50 N51 1.342 . S
C50 C54 1.401 . S
C50 C55 1.499 . S
N51 Co34 1.989 . S
N51 C50 1.342 . S
N51 N52 1.388 . S
N52 Co35 1.993 . S
N52 N51 1.388 . S
N52 C53 1.346 . S
C53 N52 1.346 . S
C53 C54 1.396 . S
C53 C63 1.510 . S
C54 C50 1.401 . S
C54 C53 1.396 . S
C55 C50 1.499 . S
C55 H56 0.959 . S
C55 H57 0.960 . S
C55 H58 0.961 . S
H56 C55 0.959 . S
H57 C55 0.960 . S
H58 C55 0.961 . S
O59 Co34 1.967 . S
O59 C67 1.258 . S
O60 Co35 1.941 . S
O60 C67 1.266 . S
H61 C63 0.959 . S
H62 C63 0.961 . S
C63 C53 1.510 . S
C63 H61 0.959 . S
C63 H62 0.961 . S
C63 H64 0.960 . S
H64 C63 0.960 . S
H65 N45 0.862 . S
O66 Co34 1.920 . S
O66 C39 1.289 . S
C67 O59 1.258 . S
C67 O60 1.266 . S
Co68 O71 1.970 . S
Co68 N85 1.989 . S
Co68 O93 1.967 . S
Co68 O100 1.920 . S
Co69 O72 1.966 . S
Co69 N78 2.022 . S
Co69 N86 1.993 . S
Co69 O94 1.941 . S
C70 O71 1.258 . S
C70 O72 1.263 . S
O71 Co68 1.970 . S
O71 C70 1.258 . S
O72 Co69 1.966 . S
O72 C70 1.263 . S
C73 O74 1.235 . S
C73 O100 1.289 . S
O74 C73 1.235 . S
C75 C77 1.400 . S
C75 N78 1.351 . S
C75 C80 1.501 . S
C76 C77 1.387 . S
C76 N79 1.341 . S
C77 C75 1.400 . S
C77 C76 1.387 . S
N78 Co69 2.022 . S
N78 C75 1.351 . S
N78 N79 1.365 . S
N79 C76 1.341 . S
N79 N78 1.365 . S
N79 H99 0.862 . S
C80 C75 1.501 . S
C80 H81 0.961 . S
C80 H82 0.961 . S
C80 H83 0.960 . S
H81 C80 0.961 . S
H82 C80 0.961 . S
H83 C80 0.960 . S
C84 N85 1.342 . S
C84 C88 1.401 . S
C84 C89 1.499 . S
N85 Co68 1.989 . S
N85 C84 1.342 . S
N85 N86 1.388 . S
N86 Co69 1.993 . S
N86 N85 1.388 . S
N86 C87 1.346 . S
C87 N86 1.346 . S
C87 C88 1.396 . S
C87 C97 1.510 . S
C88 C84 1.401 . S
C88 C87 1.396 . S
C89 C84 1.499 . S
C89 H90 0.959 . S
C89 H91 0.960 . S
C89 H92 0.961 . S
H90 C89 0.959 . S
H91 C89 0.960 . S
H92 C89 0.961 . S
O93 Co68 1.967 . S
O93 C101 1.258 . S
O94 Co69 1.941 . S
O94 C101 1.266 . S
H95 C97 0.959 . S
H96 C97 0.961 . S
C97 C87 1.510 . S
C97 H95 0.959 . S
C97 H96 0.961 . S
C97 H98 0.960 . S
H98 C97 0.960 . S
H99 N79 0.862 . S
O100 Co68 1.920 . S
O100 C73 1.289 . S
C101 O93 1.258 . S
C101 O94 1.266 . S
Co102 O105 1.970 . S
Co102 N119 1.989 . S
Co102 O127 1.967 . S
Co102 O134 1.920 . S
Co103 O106 1.966 . S
Co103 N112 2.022 . S
Co103 N120 1.993 . S
Co103 O128 1.941 . S
C104 O105 1.258 . S
C104 O106 1.263 . S
O105 Co102 1.970 . S
O105 C104 1.258 . S
O106 Co103 1.966 . S
O106 C104 1.263 . S
C107 O108 1.235 . S
C107 O134 1.289 . S
O108 C107 1.235 . S
C109 C111 1.404 1_554 S
C109 N112 1.349 . S
C109 C114 1.499 . S
C110 C111 1.387 . S
C110 N113 1.341 . S
C111 C109 1.404 1_556 S
C111 C110 1.387 . S
N112 Co103 2.022 . S
N112 C109 1.349 . S
N112 N113 1.365 1_554 S
N113 C110 1.341 . S
N113 N112 1.365 1_556 S
N113 H133 0.862 1_556 S
C114 C109 1.499 . S
C114 H115 0.961 . S
C114 H116 0.961 . S
C114 H117 0.960 . S
H115 C114 0.961 . S
H116 C114 0.961 . S
H117 C114 0.960 . S
C118 N119 1.342 . S
C118 C122 1.401 . S
C118 C123 1.499 . S
N119 Co102 1.989 . S
N119 C118 1.342 . S
N119 N120 1.388 . S
N120 Co103 1.993 . S
N120 N119 1.388 . S
N120 C121 1.346 . S
C121 N120 1.346 . S
C121 C122 1.396 . S
C121 C131 1.510 . S
C122 C118 1.401 . S
C122 C121 1.396 . S
C123 C118 1.499 . S
C123 H124 0.959 . S
C123 H125 0.960 . S
C123 H126 0.961 . S
H124 C123 0.959 . S
H125 C123 0.960 . S
H126 C123 0.961 . S
O127 Co102 1.967 . S
O127 C135 1.258 . S
O128 Co103 1.941 . S
O128 C135 1.266 . S
H129 C131 0.959 . S
H130 C131 0.961 . S
C131 C121 1.510 . S
C131 H129 0.959 . S
C131 H130 0.961 . S
C131 H132 0.960 . S
H132 C131 0.960 . S
H133 N113 0.862 1_554 S
O134 Co102 1.920 . S
O134 C107 1.289 . S
C135 O127 1.258 . S
C135 O128 1.266 . S
Co136 O139 1.970 . S
Co136 N153 1.989 . S
Co136 O161 1.967 . S
Co136 O168 1.920 . S
Co137 O140 1.966 . S
Co137 N146 2.022 . S
Co137 N154 1.993 . S
Co137 O162 1.941 . S
C138 O139 1.258 . S
C138 O140 1.263 . S
O139 Co136 1.970 . S
O139 C138 1.258 . S
O140 Co137 1.966 . S
O140 C138 1.263 . S
C141 O142 1.235 . S
C141 O168 1.289 . S
O142 C141 1.235 . S
C143 C145 1.404 1_556 S
C143 N146 1.349 . S
C143 C148 1.499 . S
C144 C145 1.387 . S
C144 N147 1.341 . S
C145 C143 1.404 1_554 S
C145 C144 1.387 . S
N146 Co137 2.022 . S
N146 C143 1.349 . S
N146 N147 1.365 1_556 S
N147 C144 1.341 . S
N147 N146 1.365 1_554 S
N147 H167 0.862 1_554 S
C148 C143 1.499 . S
C148 H149 0.961 . S
C148 H150 0.961 . S
C148 H151 0.960 . S
H149 C148 0.961 . S
H150 C148 0.961 . S
H151 C148 0.960 . S
C152 N153 1.342 . S
C152 C156 1.401 . S
C152 C157 1.499 . S
N153 Co136 1.989 . S
N153 C152 1.342 . S
N153 N154 1.388 . S
N154 Co137 1.993 . S
N154 N153 1.388 . S
N154 C155 1.346 . S
C155 N154 1.346 . S
C155 C156 1.396 . S
C155 C165 1.510 . S
C156 C152 1.401 . S
C156 C155 1.396 . S
C157 C152 1.499 . S
C157 H158 0.959 . S
C157 H159 0.960 . S
C157 H160 0.961 . S
H158 C157 0.959 . S
H159 C157 0.960 . S
H160 C157 0.961 . S
O161 Co136 1.967 . S
O161 C169 1.258 . S
O162 Co137 1.941 . S
O162 C169 1.266 . S
H163 C165 0.959 . S
H164 C165 0.961 . S
C165 C155 1.510 . S
C165 H163 0.959 . S
C165 H164 0.961 . S
C165 H166 0.960 . S
H166 C165 0.960 . S
H167 N147 0.862 1_556 S
O168 Co136 1.920 . S
O168 C141 1.289 . S
C169 O161 1.258 . S
C169 O162 1.266 . S
Co170 O173 1.970 . S
Co170 N187 1.989 . S
Co170 O195 1.967 . S
Co170 O202 1.920 . S
Co171 O174 1.966 . S
Co171 N180 2.022 . S
Co171 N188 1.993 . S
Co171 O196 1.941 . S
C172 O173 1.258 . S
C172 O174 1.263 . S
O173 Co170 1.970 . S
O173 C172 1.258 . S
O174 Co171 1.966 . S
O174 C172 1.263 . S
C175 O176 1.235 . S
C175 O202 1.289 . S
O176 C175 1.235 . S
C177 C179 1.400 . S
C177 N180 1.351 . S
C177 C182 1.501 . S
C178 C179 1.387 . S
C178 N181 1.341 . S
C179 C177 1.400 . S
C179 C178 1.387 . S
N180 Co171 2.022 . S
N180 C177 1.351 . S
N180 N181 1.365 . S
N181 C178 1.341 . S
N181 N180 1.365 . S
N181 H201 0.862 . S
C182 C177 1.501 . S
C182 H183 0.961 . S
C182 H184 0.961 . S
C182 H185 0.960 . S
H183 C182 0.961 . S
H184 C182 0.961 . S
H185 C182 0.960 . S
C186 N187 1.342 . S
C186 C190 1.401 . S
C186 C191 1.499 . S
N187 Co170 1.989 . S
N187 C186 1.342 . S
N187 N188 1.388 . S
N188 Co171 1.993 . S
N188 N187 1.388 . S
N188 C189 1.346 . S
C189 N188 1.346 . S
C189 C190 1.396 . S
C189 C199 1.510 . S
C190 C186 1.401 . S
C190 C189 1.396 . S
C191 C186 1.499 . S
C191 H192 0.959 . S
C191 H193 0.960 . S
C191 H194 0.961 . S
H192 C191 0.959 . S
H193 C191 0.960 . S
H194 C191 0.961 . S
O195 Co170 1.967 . S
O195 C203 1.258 . S
O196 Co171 1.941 . S
O196 C203 1.266 . S
H197 C199 0.959 . S
H198 C199 0.961 . S
C199 C189 1.510 . S
C199 H197 0.959 . S
C199 H198 0.961 . S
C199 H200 0.960 . S
H200 C199 0.960 . S
H201 N181 0.862 . S
O202 Co170 1.920 . S
O202 C175 1.289 . S
C203 O195 1.258 . S
C203 O196 1.266 . S
Co204 O207 1.970 . S
Co204 N221 1.989 . S
Co204 O229 1.967 . S
Co204 O236 1.920 . S
Co205 O208 1.966 . S
Co205 N214 2.022 . S
Co205 N222 1.993 . S
Co205 O230 1.941 . S
C206 O207 1.258 . S
C206 O208 1.263 . S
O207 Co204 1.970 . S
O207 C206 1.258 . S
O208 Co205 1.966 . S
O208 C206 1.263 . S
C209 O210 1.235 . S
C209 O236 1.289 . S
O210 C209 1.235 . S
C211 C213 1.400 . S
C211 N214 1.351 . S
C211 C216 1.501 . S
C212 C213 1.387 . S
C212 N215 1.341 . S
C213 C211 1.400 . S
C213 C212 1.387 . S
N214 Co205 2.022 . S
N214 C211 1.351 . S
N214 N215 1.365 . S
N215 C212 1.341 . S
N215 N214 1.365 . S
N215 H235 0.862 . S
C216 C211 1.501 . S
C216 H217 0.961 . S
C216 H218 0.961 . S
C216 H219 0.960 . S
H217 C216 0.961 . S
H218 C216 0.961 . S
H219 C216 0.960 . S
C220 N221 1.342 . S
C220 C224 1.401 . S
C220 C225 1.499 . S
N221 Co204 1.989 . S
N221 C220 1.342 . S
N221 N222 1.388 . S
N222 Co205 1.993 . S
N222 N221 1.388 . S
N222 C223 1.346 . S
C223 N222 1.346 . S
C223 C224 1.396 . S
C223 C233 1.510 . S
C224 C220 1.401 . S
C224 C223 1.396 . S
C225 C220 1.499 . S
C225 H226 0.959 . S
C225 H227 0.960 . S
C225 H228 0.961 . S
H226 C225 0.959 . S
H227 C225 0.960 . S
H228 C225 0.961 . S
O229 Co204 1.967 . S
O229 C237 1.258 . S
O230 Co205 1.941 . S
O230 C237 1.266 . S
H231 C233 0.959 . S
H232 C233 0.961 . S
C233 C223 1.510 . S
C233 H231 0.959 . S
C233 H232 0.961 . S
C233 H234 0.960 . S
H234 C233 0.960 . S
H235 N215 0.862 . S
O236 Co204 1.920 . S
O236 C209 1.289 . S
C237 O229 1.258 . S
C237 O230 1.266 . S
Co238 O241 1.970 . S
Co238 N255 1.989 . S
Co238 O263 1.967 . S
Co238 O270 1.920 . S
Co239 O242 1.966 . S
Co239 N248 2.022 . S
Co239 N256 1.993 . S
Co239 O264 1.941 . S
C240 O241 1.258 . S
C240 O242 1.263 . S
O241 Co238 1.970 . S
O241 C240 1.258 . S
O242 Co239 1.966 . S
O242 C240 1.263 . S
C243 O244 1.235 . S
C243 O270 1.289 . S
O244 C243 1.235 . S
C245 C247 1.400 . S
C245 N248 1.351 . S
C245 C250 1.501 . S
C246 C247 1.387 . S
C246 N249 1.341 . S
C247 C245 1.400 . S
C247 C246 1.387 . S
N248 Co239 2.022 . S
N248 C245 1.351 . S
N248 N249 1.365 . S
N249 C246 1.341 . S
N249 N248 1.365 . S
N249 H269 0.862 . S
C250 C245 1.501 . S
C250 H251 0.961 . S
C250 H252 0.961 . S
C250 H253 0.960 . S
H251 C250 0.961 . S
H252 C250 0.961 . S
H253 C250 0.960 . S
C254 N255 1.342 . S
C254 C258 1.401 . S
C254 C259 1.499 . S
N255 Co238 1.989 . S
N255 C254 1.342 . S
N255 N256 1.388 . S
N256 Co239 1.993 . S
N256 N255 1.388 . S
N256 C257 1.346 . S
C257 N256 1.346 . S
C257 C258 1.396 . S
C257 C267 1.510 . S
C258 C254 1.401 . S
C258 C257 1.396 . S
C259 C254 1.499 . S
C259 H260 0.959 . S
C259 H261 0.960 . S
C259 H262 0.961 . S
H260 C259 0.959 . S
H261 C259 0.960 . S
H262 C259 0.961 . S
O263 Co238 1.967 . S
O263 C271 1.258 . S
O264 Co239 1.941 . S
O264 C271 1.266 . S
H265 C267 0.959 . S
H266 C267 0.961 . S
C267 C257 1.510 . S
C267 H265 0.959 . S
C267 H266 0.961 . S
C267 H268 0.960 . S
H268 C267 0.960 . S
H269 N249 0.862 . S
O270 Co238 1.920 . S
O270 C243 1.289 . S
C271 O263 1.258 . S
C271 O264 1.266 . S
Co272 O275 1.970 . S
Co272 N289 1.989 . S
Co272 O297 1.967 . S
Co272 O304 1.920 . S
Co273 O276 1.966 . S
Co273 N282 2.022 . S
Co273 N290 1.993 . S
Co273 O298 1.941 . S
C274 O275 1.258 . S
C274 O276 1.263 . S
O275 Co272 1.970 . S
O275 C274 1.258 . S
O276 Co273 1.966 . S
O276 C274 1.263 . S
C277 O278 1.235 . S
C277 O304 1.289 . S
O278 C277 1.235 . S
C279 C281 1.400 . S
C279 N282 1.351 . S
C279 C284 1.501 . S
C280 C281 1.387 . S
C280 N283 1.341 . S
C281 C279 1.400 . S
C281 C280 1.387 . S
N282 Co273 2.022 . S
N282 C279 1.351 . S
N282 N283 1.365 . S
N283 C280 1.341 . S
N283 N282 1.365 . S
N283 H303 0.862 . S
C284 C279 1.501 . S
C284 H285 0.961 . S
C284 H286 0.961 . S
C284 H287 0.960 . S
H285 C284 0.961 . S
H286 C284 0.961 . S
H287 C284 0.960 . S
C288 N289 1.342 . S
C288 C292 1.401 . S
C288 C293 1.499 . S
N289 Co272 1.989 . S
N289 C288 1.342 . S
N289 N290 1.388 . S
N290 Co273 1.993 . S
N290 N289 1.388 . S
N290 C291 1.346 . S
C291 N290 1.346 . S
C291 C292 1.396 . S
C291 C301 1.510 . S
C292 C288 1.401 . S
C292 C291 1.396 . S
C293 C288 1.499 . S
C293 H294 0.959 . S
C293 H295 0.960 . S
C293 H296 0.961 . S
H294 C293 0.959 . S
H295 C293 0.960 . S
H296 C293 0.961 . S
O297 Co272 1.967 . S
O297 C305 1.258 . S
O298 Co273 1.941 . S
O298 C305 1.266 . S
H299 C301 0.959 . S
H300 C301 0.961 . S
C301 C291 1.510 . S
C301 H299 0.959 . S
C301 H300 0.961 . S
C301 H302 0.960 . S
H302 C301 0.960 . S
H303 N283 0.862 . S
O304 Co272 1.920 . S
O304 C277 1.289 . S
C305 O297 1.258 . S
C305 O298 1.266 . S
Co306 O309 1.970 . S
Co306 N323 1.989 . S
Co306 O331 1.967 . S
Co306 O338 1.920 . S
Co307 O310 1.966 . S
Co307 N316 2.022 . S
Co307 N324 1.993 . S
Co307 O332 1.941 . S
C308 O309 1.258 . S
C308 O310 1.263 . S
O309 Co306 1.970 . S
O309 C308 1.258 . S
O310 Co307 1.966 . S
O310 C308 1.263 . S
C311 O312 1.235 . S
C311 O338 1.289 . S
O312 C311 1.235 . S
C313 C315 1.404 1_554 S
C313 N316 1.349 . S
C313 C318 1.499 . S
C314 C315 1.387 . S
C314 N317 1.341 . S
C315 C313 1.404 1_556 S
C315 C314 1.387 . S
N316 Co307 2.022 . S
N316 C313 1.349 . S
N316 N317 1.365 1_554 S
N317 C314 1.341 . S
N317 N316 1.365 1_556 S
N317 H337 0.862 1_556 S
C318 C313 1.499 . S
C318 H319 0.961 . S
C318 H320 0.961 . S
C318 H321 0.960 . S
H319 C318 0.961 . S
H320 C318 0.961 . S
H321 C318 0.960 . S
C322 N323 1.342 . S
C322 C326 1.401 . S
C322 C327 1.499 . S
N323 Co306 1.989 . S
N323 C322 1.342 . S
N323 N324 1.388 . S
N324 Co307 1.993 . S
N324 N323 1.388 . S
N324 C325 1.346 . S
C325 N324 1.346 . S
C325 C326 1.396 . S
C325 C335 1.510 . S
C326 C322 1.401 . S
C326 C325 1.396 . S
C327 C322 1.499 . S
C327 H328 0.959 . S
C327 H329 0.960 . S
C327 H330 0.961 . S
H328 C327 0.959 . S
H329 C327 0.960 . S
H330 C327 0.961 . S
O331 Co306 1.967 . S
O331 C339 1.258 . S
O332 Co307 1.941 . S
O332 C339 1.266 . S
H333 C335 0.959 . S
H334 C335 0.961 . S
C335 C325 1.510 . S
C335 H333 0.959 . S
C335 H334 0.961 . S
C335 H336 0.960 . S
H336 C335 0.960 . S
H337 N317 0.862 1_554 S
O338 Co306 1.920 . S
O338 C311 1.289 . S
C339 O331 1.258 . S
C339 O332 1.266 . S
Co340 O343 1.970 . S
Co340 N357 1.989 . S
Co340 O365 1.967 . S
Co340 O372 1.920 . S
Co341 O344 1.966 . S
Co341 N350 2.022 . S
Co341 N358 1.993 . S
Co341 O366 1.941 . S
C342 O343 1.258 . S
C342 O344 1.263 . S
O343 Co340 1.970 . S
O343 C342 1.258 . S
O344 Co341 1.966 . S
O344 C342 1.263 . S
C345 O346 1.235 . S
C345 O372 1.289 . S
O346 C345 1.235 . S
C347 C349 1.400 . S
C347 N350 1.351 . S
C347 C352 1.501 . S
C348 C349 1.387 . S
C348 N351 1.341 . S
C349 C347 1.400 . S
C349 C348 1.387 . S
N350 Co341 2.022 . S
N350 C347 1.351 . S
N350 N351 1.365 . S
N351 C348 1.341 . S
N351 N350 1.365 . S
N351 H371 0.862 . S
C352 C347 1.501 . S
C352 H353 0.961 . S
C352 H354 0.961 . S
C352 H355 0.960 . S
H353 C352 0.961 . S
H354 C352 0.961 . S
H355 C352 0.960 . S
C356 N357 1.342 . S
C356 C360 1.401 . S
C356 C361 1.499 . S
N357 Co340 1.989 . S
N357 C356 1.342 . S
N357 N358 1.388 . S
N358 Co341 1.993 . S
N358 N357 1.388 . S
N358 C359 1.346 . S
C359 N358 1.346 . S
C359 C360 1.396 . S
C359 C369 1.510 . S
C360 C356 1.401 . S
C360 C359 1.396 . S
C361 C356 1.499 . S
C361 H362 0.959 . S
C361 H363 0.960 . S
C361 H364 0.961 . S
H362 C361 0.959 . S
H363 C361 0.960 . S
H364 C361 0.961 . S
O365 Co340 1.967 . S
O365 C373 1.258 . S
O366 Co341 1.941 . S
O366 C373 1.266 . S
H367 C369 0.959 . S
H368 C369 0.961 . S
C369 C359 1.510 . S
C369 H367 0.959 . S
C369 H368 0.961 . S
C369 H370 0.960 . S
H370 C369 0.960 . S
H371 N351 0.862 . S
O372 Co340 1.920 . S
O372 C345 1.289 . S
C373 O365 1.258 . S
C373 O366 1.266 . S
Co374 O377 1.970 . S
Co374 N391 1.989 . S
Co374 O399 1.967 . S
Co374 O406 1.920 . S
Co375 O378 1.966 . S
Co375 N384 2.022 . S
Co375 N392 1.993 . S
Co375 O400 1.941 . S
C376 O377 1.258 . S
C376 O378 1.263 . S
O377 Co374 1.970 . S
O377 C376 1.258 . S
O378 Co375 1.966 . S
O378 C376 1.263 . S
C379 O380 1.235 . S
C379 O406 1.289 . S
O380 C379 1.235 . S
C381 C383 1.400 . S
C381 N384 1.351 . S
C381 C386 1.501 . S
C382 C383 1.387 . S
C382 N385 1.341 . S
C383 C381 1.400 . S
C383 C382 1.387 . S
N384 Co375 2.022 . S
N384 C381 1.351 . S
N384 N385 1.365 . S
N385 C382 1.341 . S
N385 N384 1.365 . S
N385 H405 0.862 . S
C386 C381 1.501 . S
C386 H387 0.961 . S
C386 H388 0.961 . S
C386 H389 0.960 . S
H387 C386 0.961 . S
H388 C386 0.961 . S
H389 C386 0.960 . S
C390 N391 1.342 . S
C390 C394 1.401 . S
C390 C395 1.499 . S
N391 Co374 1.989 . S
N391 C390 1.342 . S
N391 N392 1.388 . S
N392 Co375 1.993 . S
N392 N391 1.388 . S
N392 C393 1.346 . S
C393 N392 1.346 . S
C393 C394 1.396 . S
C393 C403 1.510 . S
C394 C390 1.401 . S
C394 C393 1.396 . S
C395 C390 1.499 . S
C395 H396 0.959 . S
C395 H397 0.960 . S
C395 H398 0.961 . S
H396 C395 0.959 . S
H397 C395 0.960 . S
H398 C395 0.961 . S
O399 Co374 1.967 . S
O399 C407 1.258 . S
O400 Co375 1.941 . S
O400 C407 1.266 . S
H401 C403 0.959 . S
H402 C403 0.961 . S
C403 C393 1.510 . S
C403 H401 0.959 . S
C403 H402 0.961 . S
C403 H404 0.960 . S
H404 C403 0.960 . S
H405 N385 0.862 . S
O406 Co374 1.920 . S
O406 C379 1.289 . S
C407 O399 1.258 . S
C407 O400 1.266 . S
Co408 O411 1.970 . S
Co408 N425 1.989 . S
Co408 O433 1.967 . S
Co408 O440 1.920 . S
Co409 O412 1.966 . S
Co409 N418 2.022 . S
Co409 N426 1.993 . S
Co409 O434 1.941 . S
C410 O411 1.258 . S
C410 O412 1.263 . S
O411 Co408 1.970 . S
O411 C410 1.258 . S
O412 Co409 1.966 . S
O412 C410 1.263 . S
C413 O414 1.235 . S
C413 O440 1.289 . S
O414 C413 1.235 . S
C415 C417 1.400 . S
C415 N418 1.351 . S
C415 C420 1.501 . S
C416 C417 1.387 . S
C416 N419 1.341 . S
C417 C415 1.400 . S
C417 C416 1.387 . S
N418 Co409 2.022 . S
N418 C415 1.351 . S
N418 N419 1.365 . S
N419 C416 1.341 . S
N419 N418 1.365 . S
N419 H439 0.862 . S
C420 C415 1.501 . S
C420 H421 0.961 . S
C420 H422 0.961 . S
C420 H423 0.960 . S
H421 C420 0.961 . S
H422 C420 0.961 . S
H423 C420 0.960 . S
C424 N425 1.342 . S
C424 C428 1.401 . S
C424 C429 1.499 . S
N425 Co408 1.989 . S
N425 C424 1.342 . S
N425 N426 1.388 . S
N426 Co409 1.993 . S
N426 N425 1.388 . S
N426 C427 1.346 . S
C427 N426 1.346 . S
C427 C428 1.396 . S
C427 C437 1.510 . S
C428 C424 1.401 . S
C428 C427 1.396 . S
C429 C424 1.499 . S
C429 H430 0.959 . S
C429 H431 0.960 . S
C429 H432 0.961 . S
H430 C429 0.959 . S
H431 C429 0.960 . S
H432 C429 0.961 . S
O433 Co408 1.967 . S
O433 C441 1.258 . S
O434 Co409 1.941 . S
O434 C441 1.266 . S
H435 C437 0.959 . S
H436 C437 0.961 . S
C437 C427 1.510 . S
C437 H435 0.959 . S
C437 H436 0.961 . S
C437 H438 0.960 . S
H438 C437 0.960 . S
H439 N419 0.862 . S
O440 Co408 1.920 . S
O440 C413 1.289 . S
C441 O433 1.258 . S
C441 O434 1.266 . S
Co442 O445 1.970 . S
Co442 N459 1.989 . S
Co442 O467 1.967 . S
Co442 O474 1.920 . S
Co443 O446 1.966 . S
Co443 N452 2.022 . S
Co443 N460 1.993 . S
Co443 O468 1.941 . S
C444 O445 1.258 . S
C444 O446 1.263 . S
O445 Co442 1.970 . S
O445 C444 1.258 . S
O446 Co443 1.966 . S
O446 C444 1.263 . S
C447 O448 1.235 . S
C447 O474 1.289 . S
O448 C447 1.235 . S
C449 C451 1.400 . S
C449 N452 1.351 . S
C449 C454 1.501 . S
C450 C451 1.387 . S
C450 N453 1.341 . S
C451 C449 1.400 . S
C451 C450 1.387 . S
N452 Co443 2.022 . S
N452 C449 1.351 . S
N452 N453 1.365 . S
N453 C450 1.341 . S
N453 N452 1.365 . S
N453 H473 0.862 . S
C454 C449 1.501 . S
C454 H455 0.961 . S
C454 H456 0.961 . S
C454 H457 0.960 . S
H455 C454 0.961 . S
H456 C454 0.961 . S
H457 C454 0.960 . S
C458 N459 1.342 . S
C458 C462 1.401 . S
C458 C463 1.499 . S
N459 Co442 1.989 . S
N459 C458 1.342 . S
N459 N460 1.388 . S
N460 Co443 1.993 . S
N460 N459 1.388 . S
N460 C461 1.346 . S
C461 N460 1.346 . S
C461 C462 1.396 . S
C461 C471 1.510 . S
C462 C458 1.401 . S
C462 C461 1.396 . S
C463 C458 1.499 . S
C463 H464 0.959 . S
C463 H465 0.960 . S
C463 H466 0.961 . S
H464 C463 0.959 . S
H465 C463 0.960 . S
H466 C463 0.961 . S
O467 Co442 1.967 . S
O467 C475 1.258 . S
O468 Co443 1.941 . S
O468 C475 1.266 . S
H469 C471 0.959 . S
H470 C471 0.961 . S
C471 C461 1.510 . S
C471 H469 0.959 . S
C471 H470 0.961 . S
C471 H472 0.960 . S
H472 C471 0.960 . S
H473 N453 0.862 . S
O474 Co442 1.920 . S
O474 C447 1.289 . S
C475 O467 1.258 . S
C475 O468 1.266 . S
Co476 O479 1.970 . S
Co476 N493 1.989 . S
Co476 O501 1.967 . S
Co476 O508 1.920 . S
Co477 O480 1.966 . S
Co477 N486 2.022 . S
Co477 N494 1.993 . S
Co477 O502 1.941 . S
C478 O479 1.258 . S
C478 O480 1.263 . S
O479 Co476 1.970 . S
O479 C478 1.258 . S
O480 Co477 1.966 . S
O480 C478 1.263 . S
C481 O482 1.235 . S
C481 O508 1.289 . S
O482 C481 1.235 . S
C483 C485 1.404 1_556 S
C483 N486 1.349 . S
C483 C488 1.499 . S
C484 C485 1.387 . S
C484 N487 1.341 . S
C485 C483 1.404 1_554 S
C485 C484 1.387 . S
N486 Co477 2.022 . S
N486 C483 1.349 . S
N486 N487 1.365 1_556 S
N487 C484 1.341 . S
N487 N486 1.365 1_554 S
N487 H507 0.862 1_554 S
C488 C483 1.499 . S
C488 H489 0.961 . S
C488 H490 0.961 . S
C488 H491 0.960 . S
H489 C488 0.961 . S
H490 C488 0.961 . S
H491 C488 0.960 . S
C492 N493 1.342 . S
C492 C496 1.401 . S
C492 C497 1.499 . S
N493 Co476 1.989 . S
N493 C492 1.342 . S
N493 N494 1.388 . S
N494 Co477 1.993 . S
N494 N493 1.388 . S
N494 C495 1.346 . S
C495 N494 1.346 . S
C495 C496 1.396 . S
C495 C505 1.510 . S
C496 C492 1.401 . S
C496 C495 1.396 . S
C497 C492 1.499 . S
C497 H498 0.959 . S
C497 H499 0.960 . S
C497 H500 0.961 . S
H498 C497 0.959 . S
H499 C497 0.960 . S
H500 C497 0.961 . S
O501 Co476 1.967 . S
O501 C509 1.258 . S
O502 Co477 1.941 . S
O502 C509 1.266 . S
H503 C505 0.959 . S
H504 C505 0.961 . S
C505 C495 1.510 . S
C505 H503 0.959 . S
C505 H504 0.961 . S
C505 H506 0.960 . S
H506 C505 0.960 . S
H507 N487 0.862 1_556 S
O508 Co476 1.920 . S
O508 C481 1.289 . S
C509 O501 1.258 . S
C509 O502 1.266 . S
Co510 O513 1.970 . S
Co510 N527 1.989 . S
Co510 O535 1.967 . S
Co510 O542 1.920 . S
Co511 O514 1.966 . S
Co511 N520 2.022 . S
Co511 N528 1.993 . S
Co511 O536 1.941 . S
C512 O513 1.258 . S
C512 O514 1.263 . S
O513 Co510 1.970 . S
O513 C512 1.258 . S
O514 Co511 1.966 . S
O514 C512 1.263 . S
C515 O516 1.235 . S
C515 O542 1.289 . S
O516 C515 1.235 . S
C517 C519 1.400 . S
C517 N520 1.351 . S
C517 C522 1.501 . S
C518 C519 1.387 . S
C518 N521 1.341 . S
C519 C517 1.400 . S
C519 C518 1.387 . S
N520 Co511 2.022 . S
N520 C517 1.351 . S
N520 N521 1.365 . S
N521 C518 1.341 . S
N521 N520 1.365 . S
N521 H541 0.862 . S
C522 C517 1.501 . S
C522 H523 0.961 . S
C522 H524 0.961 . S
C522 H525 0.960 . S
H523 C522 0.961 . S
H524 C522 0.961 . S
H525 C522 0.960 . S
C526 N527 1.342 . S
C526 C530 1.401 . S
C526 C531 1.499 . S
N527 Co510 1.989 . S
N527 C526 1.342 . S
N527 N528 1.388 . S
N528 Co511 1.993 . S
N528 N527 1.388 . S
N528 C529 1.346 . S
C529 N528 1.346 . S
C529 C530 1.396 . S
C529 C539 1.510 . S
C530 C526 1.401 . S
C530 C529 1.396 . S
C531 C526 1.499 . S
C531 H532 0.959 . S
C531 H533 0.960 . S
C531 H534 0.961 . S
H532 C531 0.959 . S
H533 C531 0.960 . S
H534 C531 0.961 . S
O535 Co510 1.967 . S
O535 C543 1.258 . S
O536 Co511 1.941 . S
O536 C543 1.266 . S
H537 C539 0.959 . S
H538 C539 0.961 . S
C539 C529 1.510 . S
C539 H537 0.959 . S
C539 H538 0.961 . S
C539 H540 0.960 . S
H540 C539 0.960 . S
H541 N521 0.862 . S
O542 Co510 1.920 . S
O542 C515 1.289 . S
C543 O535 1.258 . S
C543 O536 1.266 . S
H544 C556 0.930 . S
H545 C558 0.930 . S
H546 C559 0.930 . S
H547 C563 0.959 . S
H548 C563 0.959 . S
H549 C563 0.961 . S
H550 C564 0.960 . S
H551 C564 0.961 . S
H552 C564 0.959 . S
H553 C567 0.929 . S
H554 C568 0.931 . S
H555 C570 0.930 . S
C556 H544 0.930 . S
C556 C557 1.399 . S
C556 C561 1.399 . S
C557 C556 1.399 . S
C557 C558 1.376 . S
C558 H545 0.930 . S
C558 C557 1.376 . S
C558 C559 1.388 . S
C559 H546 0.930 . S
C559 C558 1.388 . S
C559 C560 1.390 . S
C560 C559 1.390 . S
C560 C561 1.394 . S
C560 C566 1.465 . S
C561 C556 1.399 . S
C561 C560 1.394 . S
C561 C562 1.516 . S
C562 C561 1.516 . S
C562 C563 1.502 . S
C562 C564 1.561 . S
C562 C565 1.526 . S
C563 H547 0.959 . S
C563 H548 0.959 . S
C563 H549 0.961 . S
C563 C562 1.502 . S
C564 H550 0.960 . S
C564 H551 0.961 . S
C564 H552 0.959 . S
C564 C562 1.561 . S
C565 C562 1.526 . S
C565 C566 1.396 . S
C565 C570 1.390 . S
C566 C560 1.465 . S
C566 C565 1.396 . S
C566 C567 1.399 . S
C567 H553 0.929 . S
C567 C566 1.399 . S
C567 C568 1.385 . S
C568 H554 0.931 . S
C568 C567 1.385 . S
C568 C569 1.389 . S
C569 C568 1.389 . S
C569 C570 1.387 . S
C570 H555 0.930 . S
C570 C565 1.390 . S
C570 C569 1.387 . S
H571 C583 0.930 . S
H572 C585 0.930 . S
H573 C586 0.930 . S
H574 C590 0.959 . S
H575 C590 0.959 . S
H576 C590 0.961 . S
H577 C591 0.960 . S
H578 C591 0.961 . S
H579 C591 0.959 . S
H580 C594 0.929 . S
H581 C595 0.931 . S
H582 C597 0.930 . S
C583 H571 0.930 . S
C583 C584 1.399 . S
C583 C588 1.399 . S
C584 C583 1.399 . S
C584 C585 1.376 . S
C585 H572 0.930 . S
C585 C584 1.376 . S
C585 C586 1.388 . S
C586 H573 0.930 . S
C586 C585 1.388 . S
C586 C587 1.390 . S
C587 C586 1.390 . S
C587 C588 1.394 . S
C587 C593 1.465 . S
C588 C583 1.399 . S
C588 C587 1.394 . S
C588 C589 1.516 . S
C589 C588 1.516 . S
C589 C590 1.502 . S
C589 C591 1.561 . S
C589 C592 1.526 . S
C590 H574 0.959 . S
C590 H575 0.959 . S
C590 H576 0.961 . S
C590 C589 1.502 . S
C591 H577 0.960 . S
C591 H578 0.961 . S
C591 H579 0.959 . S
C591 C589 1.561 . S
C592 C589 1.526 . S
C592 C593 1.396 . S
C592 C597 1.390 . S
C593 C587 1.465 . S
C593 C592 1.396 . S
C593 C594 1.399 . S
C594 H580 0.929 . S
C594 C593 1.399 . S
C594 C595 1.385 . S
C595 H581 0.931 . S
C595 C594 1.385 . S
C595 C596 1.389 . S
C596 C595 1.389 . S
C596 C597 1.387 . S
C597 H582 0.930 . S
C597 C592 1.390 . S
C597 C596 1.387 . S
H598 C610 0.930 . S
H599 C612 0.930 . S
H600 C613 0.930 . S
H601 C617 0.959 . S
H602 C617 0.959 . S
H603 C617 0.961 1_554 S
H604 C618 0.960 1_554 S
H605 C618 0.961 . S
H606 C618 0.959 . S
H607 C621 0.929 . S
H608 C622 0.931 . S
H609 C624 0.930 . S
C610 H598 0.930 . S
C610 C611 1.399 . S
C610 C615 1.399 . S
C611 C610 1.399 . S
C611 C612 1.376 . S
C612 H599 0.930 . S
C612 C611 1.376 . S
C612 C613 1.388 . S
C613 H600 0.930 . S
C613 C612 1.388 . S
C613 C614 1.390 . S
C614 C613 1.390 . S
C614 C615 1.394 . S
C614 C620 1.465 1_554 S
C615 C610 1.399 . S
C615 C614 1.394 . S
C615 C616 1.516 1_554 S
C616 C615 1.516 1_556 S
C616 C617 1.502 . S
C616 C618 1.561 . S
C616 C619 1.526 . S
C617 H601 0.959 . S
C617 H602 0.959 . S
C617 H603 0.961 1_556 S
C617 C616 1.502 . S
C618 H604 0.960 1_556 S
C618 H605 0.961 . S
C618 H606 0.959 . S
C618 C616 1.561 . S
C619 C616 1.526 . S
C619 C620 1.396 . S
C619 C624 1.390 . S
C620 C614 1.465 1_556 S
C620 C619 1.396 . S
C620 C621 1.399 . S
C621 H607 0.929 . S
C621 C620 1.399 . S
C621 C622 1.385 . S
C622 H608 0.931 . S
C622 C621 1.385 . S
C622 C623 1.389 . S
C623 C622 1.389 . S
C623 C624 1.387 . S
C624 H609 0.930 . S
C624 C619 1.390 . S
C624 C623 1.387 . S
H625 C637 0.930 . S
H626 C639 0.930 . S
H627 C640 0.930 . S
H628 C644 0.959 . S
H629 C644 0.959 . S
H630 C644 0.961 . S
H631 C645 0.960 . S
H632 C645 0.961 . S
H633 C645 0.959 . S
H634 C648 0.929 . S
H635 C649 0.931 . S
H636 C651 0.930 . S
C637 H625 0.930 . S
C637 C638 1.399 . S
C637 C642 1.399 . S
C638 C637 1.399 . S
C638 C639 1.376 . S
C639 H626 0.930 . S
C639 C638 1.376 . S
C639 C640 1.388 . S
C640 H627 0.930 . S
C640 C639 1.388 . S
C640 C641 1.390 . S
C641 C640 1.390 . S
C641 C642 1.394 . S
C641 C647 1.465 . S
C642 C637 1.399 . S
C642 C641 1.394 . S
C642 C643 1.516 . S
C643 C642 1.516 . S
C643 C644 1.502 . S
C643 C645 1.561 . S
C643 C646 1.526 . S
C644 H628 0.959 . S
C644 H629 0.959 . S
C644 H630 0.961 . S
C644 C643 1.502 . S
C645 H631 0.960 . S
C645 H632 0.961 . S
C645 H633 0.959 . S
C645 C643 1.561 . S
C646 C643 1.526 . S
C646 C647 1.396 . S
C646 C651 1.390 . S
C647 C641 1.465 . S
C647 C646 1.396 . S
C647 C648 1.399 . S
C648 H634 0.929 . S
C648 C647 1.399 . S
C648 C649 1.385 . S
C649 H635 0.931 . S
C649 C648 1.385 . S
C649 C650 1.389 . S
C650 C649 1.389 . S
C650 C651 1.387 . S
C651 H636 0.930 . S
C651 C646 1.390 . S
C651 C650 1.387 . S
H652 C664 0.930 . S
H653 C666 0.930 . S
H654 C667 0.930 . S
H655 C671 0.959 . S
H656 C671 0.959 . S
H657 C671 0.961 . S
H658 C672 0.960 . S
H659 C672 0.961 . S
H660 C672 0.959 . S
H661 C675 0.929 . S
H662 C676 0.931 . S
H663 C678 0.930 . S
C664 H652 0.930 . S
C664 C665 1.399 . S
C664 C669 1.399 . S
C665 C664 1.399 . S
C665 C666 1.376 . S
C666 H653 0.930 . S
C666 C665 1.376 . S
C666 C667 1.388 . S
C667 H654 0.930 . S
C667 C666 1.388 . S
C667 C668 1.390 . S
C668 C667 1.390 . S
C668 C669 1.394 . S
C668 C674 1.465 . S
C669 C664 1.399 . S
C669 C668 1.394 . S
C669 C670 1.516 . S
C670 C669 1.516 . S
C670 C671 1.502 . S
C670 C672 1.561 . S
C670 C673 1.526 . S
C671 H655 0.959 . S
C671 H656 0.959 . S
C671 H657 0.961 . S
C671 C670 1.502 . S
C672 H658 0.960 . S
C672 H659 0.961 . S
C672 H660 0.959 . S
C672 C670 1.561 . S
C673 C670 1.526 . S
C673 C674 1.396 . S
C673 C678 1.390 . S
C674 C668 1.465 . S
C674 C673 1.396 . S
C674 C675 1.399 . S
C675 H661 0.929 . S
C675 C674 1.399 . S
C675 C676 1.385 . S
C676 H662 0.931 . S
C676 C675 1.385 . S
C676 C677 1.389 . S
C677 C676 1.389 . S
C677 C678 1.387 . S
C678 H663 0.930 . S
C678 C673 1.390 . S
C678 C677 1.387 . S
H679 C691 0.930 . S
H680 C693 0.930 . S
H681 C694 0.930 . S
H682 C698 0.962 . S
H683 C698 0.966 . S
H684 C698 0.952 1_556 S
H685 C699 0.960 . S
H686 C699 0.961 1_554 S
H687 C699 0.959 . S
H688 C702 0.929 . S
H689 C703 0.931 . S
H690 C705 0.930 . S
C691 H679 0.930 . S
C691 C692 1.399 . S
C691 C696 1.399 . S
C692 C691 1.399 . S
C692 C693 1.376 . S
C693 H680 0.930 . S
C693 C692 1.376 . S
C693 C694 1.388 . S
C694 H681 0.930 . S
C694 C693 1.388 . S
C694 C695 1.390 . S
C695 C694 1.390 . S
C695 C696 1.394 . S
C695 C701 1.465 1_556 S
C696 C691 1.399 . S
C696 C695 1.394 . S
C696 C697 1.516 . S
C697 C696 1.516 . S
C697 C698 1.501 1_556 S
C697 C699 1.561 . S
C697 C700 1.526 1_556 S
C698 H682 0.962 . S
C698 H683 0.966 . S
C698 H684 0.952 1_554 S
C698 C697 1.501 1_554 S
C699 H685 0.960 . S
C699 H686 0.961 1_556 S
C699 H687 0.959 . S
C699 C697 1.561 . S
C700 C697 1.526 1_554 S
C700 C701 1.396 . S
C700 C705 1.390 . S
C701 C695 1.465 1_554 S
C701 C700 1.396 . S
C701 C702 1.399 . S
C702 H688 0.929 . S
C702 C701 1.399 . S
C702 C703 1.385 . S
C703 H689 0.931 . S
C703 C702 1.385 . S
C703 C704 1.389 . S
C704 C703 1.389 . S
C704 C705 1.387 . S
C705 H690 0.930 . S
C705 C700 1.390 . S
C705 C704 1.387 . S
H706 C718 0.930 . S
H707 C720 0.930 . S
H708 C721 0.930 . S
H709 C725 0.959 . S
H710 C725 0.959 . S
H711 C725 0.961 . S
H712 C726 0.960 . S
H713 C726 0.961 . S
H714 C726 0.959 . S
H715 C729 0.929 . S
H716 C730 0.931 . S
H717 C732 0.930 . S
C718 H706 0.930 . S
C718 C719 1.399 . S
C718 C723 1.399 . S
C719 C718 1.399 . S
C719 C720 1.376 . S
C720 H707 0.930 . S
C720 C719 1.376 . S
C720 C721 1.388 . S
C721 H708 0.930 . S
C721 C720 1.388 . S
C721 C722 1.390 . S
C722 C721 1.390 . S
C722 C723 1.394 . S
C722 C728 1.465 . S
C723 C718 1.399 . S
C723 C722 1.394 . S
C723 C724 1.516 . S
C724 C723 1.516 . S
C724 C725 1.502 . S
C724 C726 1.561 . S
C724 C727 1.526 . S
C725 H709 0.959 . S
C725 H710 0.959 . S
C725 H711 0.961 . S
C725 C724 1.502 . S
C726 H712 0.960 . S
C726 H713 0.961 . S
C726 H714 0.959 . S
C726 C724 1.561 . S
C727 C724 1.526 . S
C727 C728 1.396 . S
C727 C732 1.390 . S
C728 C722 1.465 . S
C728 C727 1.396 . S
C728 C729 1.399 . S
C729 H715 0.929 . S
C729 C728 1.399 . S
C729 C730 1.385 . S
C730 H716 0.931 . S
C730 C729 1.385 . S
C730 C731 1.389 . S
C731 C730 1.389 . S
C731 C732 1.387 . S
C732 H717 0.930 . S
C732 C727 1.390 . S
C732 C731 1.387 . S
H733 C745 0.930 . S
H734 C747 0.930 . S
H735 C748 0.930 . S
H736 C752 0.959 . S
H737 C752 0.959 . S
H738 C752 0.961 . S
H739 C753 0.960 . S
H740 C753 0.961 . S
H741 C753 0.959 . S
H742 C756 0.929 . S
H743 C757 0.931 . S
H744 C759 0.930 . S
C745 H733 0.930 . S
C745 C746 1.399 . S
C745 C750 1.399 . S
C746 C745 1.399 . S
C746 C747 1.376 . S
C747 H734 0.930 . S
C747 C746 1.376 . S
C747 C748 1.388 . S
C748 H735 0.930 . S
C748 C747 1.388 . S
C748 C749 1.390 . S
C749 C748 1.390 . S
C749 C750 1.394 . S
C749 C755 1.465 . S
C750 C745 1.399 . S
C750 C749 1.394 . S
C750 C751 1.516 . S
C751 C750 1.516 . S
C751 C752 1.502 . S
C751 C753 1.561 . S
C751 C754 1.526 . S
C752 H736 0.959 . S
C752 H737 0.959 . S
C752 H738 0.961 . S
C752 C751 1.502 . S
C753 H739 0.960 . S
C753 H740 0.961 . S
C753 H741 0.959 . S
C753 C751 1.561 . S
C754 C751 1.526 . S
C754 C755 1.396 . S
C754 C759 1.390 . S
C755 C749 1.465 . S
C755 C754 1.396 . S
C755 C756 1.399 . S
C756 H742 0.929 . S
C756 C755 1.399 . S
C756 C757 1.385 . S
C757 H743 0.931 . S
C757 C756 1.385 . S
C757 C758 1.389 . S
C758 C757 1.389 . S
C758 C759 1.387 . S
C759 H744 0.930 . S
C759 C754 1.390 . S
C759 C758 1.387 . S
H760 C772 0.930 . S
H761 C774 0.930 . S
H762 C775 0.930 . S
H763 C779 0.959 . S
H764 C779 0.959 . S
H765 C779 0.961 . S
H766 C780 0.960 . S
H767 C780 0.961 . S
H768 C780 0.959 . S
H769 C783 0.929 . S
H770 C784 0.931 . S
H771 C786 0.930 . S
C772 H760 0.930 . S
C772 C773 1.399 . S
C772 C777 1.399 . S
C773 C772 1.399 . S
C773 C774 1.376 . S
C774 H761 0.930 . S
C774 C773 1.376 . S
C774 C775 1.388 . S
C775 H762 0.930 . S
C775 C774 1.388 . S
C775 C776 1.390 . S
C776 C775 1.390 . S
C776 C777 1.394 . S
C776 C782 1.465 . S
C777 C772 1.399 . S
C777 C776 1.394 . S
C777 C778 1.516 . S
C778 C777 1.516 . S
C778 C779 1.502 . S
C778 C780 1.561 . S
C778 C781 1.526 . S
C779 H763 0.959 . S
C779 H764 0.959 . S
C779 H765 0.961 . S
C779 C778 1.502 . S
C780 H766 0.960 . S
C780 H767 0.961 . S
C780 H768 0.959 . S
C780 C778 1.561 . S
C781 C778 1.526 . S
C781 C782 1.396 . S
C781 C786 1.390 . S
C782 C776 1.465 . S
C782 C781 1.396 . S
C782 C783 1.399 . S
C783 H769 0.929 . S
C783 C782 1.399 . S
C783 C784 1.385 . S
C784 H770 0.931 . S
C784 C783 1.385 . S
C784 C785 1.389 . S
C785 C784 1.389 . S
C785 C786 1.387 . S
C786 H771 0.930 . S
C786 C781 1.390 . S
C786 C785 1.387 . S
H787 C799 0.930 . S
H788 C801 0.930 . S
H789 C802 0.930 . S
H790 C806 0.959 . S
H791 C806 0.959 . S
H792 C806 0.961 . S
H793 C807 0.960 . S
H794 C807 0.961 . S
H795 C807 0.959 . S
H796 C810 0.929 . S
H797 C811 0.931 . S
H798 C813 0.930 . S
C799 H787 0.930 . S
C799 C800 1.399 . S
C799 C804 1.399 . S
C800 C799 1.399 . S
C800 C801 1.376 . S
C801 H788 0.930 . S
C801 C800 1.376 . S
C801 C802 1.388 . S
C802 H789 0.930 . S
C802 C801 1.388 . S
C802 C803 1.390 . S
C803 C802 1.390 . S
C803 C804 1.394 . S
C803 C809 1.465 . S
C804 C799 1.399 . S
C804 C803 1.394 . S
C804 C805 1.516 . S
C805 C804 1.516 . S
C805 C806 1.502 . S
C805 C807 1.561 . S
C805 C808 1.526 . S
C806 H790 0.959 . S
C806 H791 0.959 . S
C806 H792 0.961 . S
C806 C805 1.502 . S
C807 H793 0.960 . S
C807 H794 0.961 . S
C807 H795 0.959 . S
C807 C805 1.561 . S
C808 C805 1.526 . S
C808 C809 1.396 . S
C808 C813 1.390 . S
C809 C803 1.465 . S
C809 C808 1.396 . S
C809 C810 1.399 . S
C810 H796 0.929 . S
C810 C809 1.399 . S
C810 C811 1.385 . S
C811 H797 0.931 . S
C811 C810 1.385 . S
C811 C812 1.389 . S
C812 C811 1.389 . S
C812 C813 1.387 . S
C813 H798 0.930 . S
C813 C808 1.390 . S
C813 C812 1.387 . S
H814 C826 0.930 . S
H815 C828 0.930 . S
H816 C829 0.930 . S
H817 C833 0.959 . S
H818 C833 0.959 . S
H819 C833 0.961 . S
H820 C834 0.960 . S
H821 C834 0.961 . S
H822 C834 0.959 . S
H823 C837 0.929 . S
H824 C838 0.931 . S
H825 C840 0.930 . S
C826 H814 0.930 . S
C826 C827 1.399 . S
C826 C831 1.399 . S
C827 C826 1.399 . S
C827 C828 1.376 . S
C828 H815 0.930 . S
C828 C827 1.376 . S
C828 C829 1.388 . S
C829 H816 0.930 . S
C829 C828 1.388 . S
C829 C830 1.390 . S
C830 C829 1.390 . S
C830 C831 1.394 . S
C830 C836 1.465 . S
C831 C826 1.399 . S
C831 C830 1.394 . S
C831 C832 1.516 . S
C832 C831 1.516 . S
C832 C833 1.502 . S
C832 C834 1.561 . S
C832 C835 1.526 . S
C833 H817 0.959 . S
C833 H818 0.959 . S
C833 H819 0.961 . S
C833 C832 1.502 . S
C834 H820 0.960 . S
C834 H821 0.961 . S
C834 H822 0.959 . S
C834 C832 1.561 . S
C835 C832 1.526 . S
C835 C836 1.396 . S
C835 C840 1.390 . S
C836 C830 1.465 . S
C836 C835 1.396 . S
C836 C837 1.399 . S
C837 H823 0.929 . S
C837 C836 1.399 . S
C837 C838 1.385 . S
C838 H824 0.931 . S
C838 C837 1.385 . S
C838 C839 1.389 . S
C839 C838 1.389 . S
C839 C840 1.387 . S
C840 H825 0.930 . S
C840 C835 1.390 . S
C840 C839 1.387 . S
H841 C853 0.930 . S
H842 C855 0.930 . S
H843 C856 0.930 . S
H844 C860 0.959 . S
H845 C860 0.959 . S
H846 C860 0.961 . S
H847 C861 0.960 . S
H848 C861 0.961 . S
H849 C861 0.959 . S
H850 C864 0.929 . S
H851 C865 0.931 . S
H852 C867 0.930 . S
C853 H841 0.930 . S
C853 C854 1.399 . S
C853 C858 1.399 . S
C854 C853 1.399 . S
C854 C855 1.376 . S
C855 H842 0.930 . S
C855 C854 1.376 . S
C855 C856 1.388 . S
C856 H843 0.930 . S
C856 C855 1.388 . S
C856 C857 1.390 . S
C857 C856 1.390 . S
C857 C858 1.394 . S
C857 C863 1.465 . S
C858 C853 1.399 . S
C858 C857 1.394 . S
C858 C859 1.516 . S
C859 C858 1.516 . S
C859 C860 1.502 . S
C859 C861 1.561 . S
C859 C862 1.526 . S
C860 H844 0.959 . S
C860 H845 0.959 . S
C860 H846 0.961 . S
C860 C859 1.502 . S
C861 H847 0.960 . S
C861 H848 0.961 . S
C861 H849 0.959 . S
C861 C859 1.561 . S
C862 C859 1.526 . S
C862 C863 1.396 . S
C862 C867 1.390 . S
C863 C857 1.465 . S
C863 C862 1.396 . S
C863 C864 1.399 . S
C864 H850 0.929 . S
C864 C863 1.399 . S
C864 C865 1.385 . S
C865 H851 0.931 . S
C865 C864 1.385 . S
C865 C866 1.389 . S
C866 C865 1.389 . S
C866 C867 1.387 . S
C867 H852 0.930 . S
C867 C862 1.390 . S
C867 C866 1.387 . S
H868 C880 0.930 . S
H869 C882 0.930 . S
H870 C883 0.930 . S
H871 C887 0.959 . S
H872 C887 0.959 . S
H873 C887 0.961 . S
H874 C888 0.960 . S
H875 C888 0.961 . S
H876 C888 0.959 . S
H877 C891 0.929 . S
H878 C892 0.931 . S
H879 C894 0.930 . S
C880 H868 0.930 . S
C880 C881 1.399 . S
C880 C885 1.399 . S
C881 C880 1.399 . S
C881 C882 1.376 . S
C882 H869 0.930 . S
C882 C881 1.376 . S
C882 C883 1.388 . S
C883 H870 0.930 . S
C883 C882 1.388 . S
C883 C884 1.390 . S
C884 C883 1.390 . S
C884 C885 1.394 . S
C884 C890 1.465 . S
C885 C880 1.399 . S
C885 C884 1.394 . S
C885 C886 1.516 . S
C886 C885 1.516 . S
C886 C887 1.502 . S
C886 C888 1.561 . S
C886 C889 1.526 . S
C887 H871 0.959 . S
C887 H872 0.959 . S
C887 H873 0.961 . S
C887 C886 1.502 . S
C888 H874 0.960 . S
C888 H875 0.961 . S
C888 H876 0.959 . S
C888 C886 1.561 . S
C889 C886 1.526 . S
C889 C890 1.396 . S
C889 C894 1.390 . S
C890 C884 1.465 . S
C890 C889 1.396 . S
C890 C891 1.399 . S
C891 H877 0.929 . S
C891 C890 1.399 . S
C891 C892 1.385 . S
C892 H878 0.931 . S
C892 C891 1.385 . S
C892 C893 1.389 . S
C893 C892 1.389 . S
C893 C894 1.387 . S
C894 H879 0.930 . S
C894 C889 1.390 . S
C894 C893 1.387 . S
H895 C907 0.930 . S
H896 C909 0.930 . S
H897 C910 0.930 . S
H898 C914 0.959 . S
H899 C914 0.959 . S
H900 C914 0.961 . S
H901 C915 0.960 . S
H902 C915 0.961 . S
H903 C915 0.959 . S
H904 C918 0.929 . S
H905 C919 0.931 . S
H906 C921 0.930 . S
C907 H895 0.930 . S
C907 C908 1.399 . S
C907 C912 1.399 . S
C908 C907 1.399 . S
C908 C909 1.376 . S
C909 H896 0.930 . S
C909 C908 1.376 . S
C909 C910 1.388 . S
C910 H897 0.930 . S
C910 C909 1.388 . S
C910 C911 1.390 . S
C911 C910 1.390 . S
C911 C912 1.394 . S
C911 C917 1.465 . S
C912 C907 1.399 . S
C912 C911 1.394 . S
C912 C913 1.516 . S
C913 C912 1.516 . S
C913 C914 1.502 . S
C913 C915 1.561 . S
C913 C916 1.526 . S
C914 H898 0.959 . S
C914 H899 0.959 . S
C914 H900 0.961 . S
C914 C913 1.502 . S
C915 H901 0.960 . S
C915 H902 0.961 . S
C915 H903 0.959 . S
C915 C913 1.561 . S
C916 C913 1.526 . S
C916 C917 1.396 . S
C916 C921 1.390 . S
C917 C911 1.465 . S
C917 C916 1.396 . S
C917 C918 1.399 . S
C918 H904 0.929 . S
C918 C917 1.399 . S
C918 C919 1.385 . S
C919 H905 0.931 . S
C919 C918 1.385 . S
C919 C920 1.389 . S
C920 C919 1.389 . S
C920 C921 1.387 . S
C921 H906 0.930 . S
C921 C916 1.390 . S
C921 C920 1.387 . S
H922 C934 0.930 . S
H923 C936 0.930 . S
H924 C937 0.930 . S
H925 C941 0.959 . S
H926 C941 0.959 . S
H927 C941 0.961 . S
H928 C942 0.960 . S
H929 C942 0.961 . S
H930 C942 0.959 . S
H931 C945 0.929 . S
H932 C946 0.931 . S
H933 C948 0.930 . S
C934 H922 0.930 . S
C934 C935 1.399 . S
C934 C939 1.399 . S
C935 C934 1.399 . S
C935 C936 1.376 . S
C936 H923 0.930 . S
C936 C935 1.376 . S
C936 C937 1.388 . S
C937 H924 0.930 . S
C937 C936 1.388 . S
C937 C938 1.390 . S
C938 C937 1.390 . S
C938 C939 1.394 . S
C938 C944 1.465 . S
C939 C934 1.399 . S
C939 C938 1.394 . S
C939 C940 1.516 . S
C940 C939 1.516 . S
C940 C941 1.502 . S
C940 C942 1.561 . S
C940 C943 1.526 . S
C941 H925 0.959 . S
C941 H926 0.959 . S
C941 H927 0.961 . S
C941 C940 1.502 . S
C942 H928 0.960 . S
C942 H929 0.961 . S
C942 H930 0.959 . S
C942 C940 1.561 . S
C943 C940 1.526 . S
C943 C944 1.396 . S
C943 C948 1.390 . S
C944 C938 1.465 . S
C944 C943 1.396 . S
C944 C945 1.399 . S
C945 H931 0.929 . S
C945 C944 1.399 . S
C945 C946 1.385 . S
C946 H932 0.931 . S
C946 C945 1.385 . S
C946 C947 1.389 . S
C947 C946 1.389 . S
C947 C948 1.387 . S
C948 H933 0.930 . S
C948 C943 1.390 . S
C948 C947 1.387 . S
H949 C961 0.930 . S
H950 C963 0.930 . S
H951 C964 0.930 . S
H952 C968 0.959 . S
H953 C968 0.959 . S
H954 C968 0.961 . S
H955 C969 0.960 . S
H956 C969 0.961 . S
H957 C969 0.959 . S
H958 C972 0.929 . S
H959 C973 0.931 . S
H960 C975 0.930 . S
C961 H949 0.930 . S
C961 C962 1.399 . S
C961 C966 1.399 . S
C962 C961 1.399 . S
C962 C963 1.376 . S
C963 H950 0.930 . S
C963 C962 1.376 . S
C963 C964 1.388 . S
C964 H951 0.930 . S
C964 C963 1.388 . S
C964 C965 1.390 . S
C965 C964 1.390 . S
C965 C966 1.394 . S
C965 C971 1.465 . S
C966 C961 1.399 . S
C966 C965 1.394 . S
C966 C967 1.516 . S
C967 C966 1.516 . S
C967 C968 1.502 . S
C967 C969 1.561 . S
C967 C970 1.526 . S
C968 H952 0.959 . S
C968 H953 0.959 . S
C968 H954 0.961 . S
C968 C967 1.502 . S
C969 H955 0.960 . S
C969 H956 0.961 . S
C969 H957 0.959 . S
C969 C967 1.561 . S
C970 C967 1.526 . S
C970 C971 1.396 . S
C970 C975 1.390 . S
C971 C965 1.465 . S
C971 C970 1.396 . S
C971 C972 1.399 . S
C972 H958 0.929 . S
C972 C971 1.399 . S
C972 C973 1.385 . S
C973 H959 0.931 . S
C973 C972 1.385 . S
C973 C974 1.389 . S
C974 C973 1.389 . S
C974 C975 1.387 . S
C975 H960 0.930 . S
C975 C970 1.390 . S
C975 C974 1.387 . S
H976 C988 0.930 . S
H977 C990 0.930 . S
H978 C991 0.930 . S
H979 C995 0.959 . S
H980 C995 0.959 . S
H981 C995 0.961 . S
H982 C996 0.960 . S
H983 C996 0.961 . S
H984 C996 0.959 . S
H985 C999 0.929 . S
H986 C1000 0.931 . S
H987 C1002 0.930 . S
C988 H976 0.930 . S
C988 C989 1.399 . S
C988 C993 1.399 . S
C989 C988 1.399 . S
C989 C990 1.376 . S
C990 H977 0.930 . S
C990 C989 1.376 . S
C990 C991 1.388 . S
C991 H978 0.930 . S
C991 C990 1.388 . S
C991 C992 1.390 . S
C992 C991 1.390 . S
C992 C993 1.394 . S
C992 C998 1.465 . S
C993 C988 1.399 . S
C993 C992 1.394 . S
C993 C994 1.516 . S
C994 C993 1.516 . S
C994 C995 1.502 . S
C994 C996 1.561 . S
C994 C997 1.526 . S
C995 H979 0.959 . S
C995 H980 0.959 . S
C995 H981 0.961 . S
C995 C994 1.502 . S
C996 H982 0.960 . S
C996 H983 0.961 . S
C996 H984 0.959 . S
C996 C994 1.561 . S
C997 C994 1.526 . S
C997 C998 1.396 . S
C997 C1002 1.390 . S
C998 C992 1.465 . S
C998 C997 1.396 . S
C998 C999 1.399 . S
C999 H985 0.929 . S
C999 C998 1.399 . S
C999 C1000 1.385 . S
C1000 H986 0.931 . S
C1000 C999 1.385 . S
C1000 C1001 1.389 . S
C1001 C1000 1.389 . S
C1001 C1002 1.387 . S
C1002 H987 0.930 . S
C1002 C997 1.390 . S
C1002 C1001 1.387 . S
H1003 C1015 0.930 . S
H1004 C1017 0.930 . S
H1005 C1018 0.930 . S
H1006 C1022 0.959 . S
H1007 C1022 0.959 . S
H1008 C1022 0.961 . S
H1009 C1023 0.960 . S
H1010 C1023 0.961 . S
H1011 C1023 0.959 . S
H1012 C1026 0.929 . S
H1013 C1027 0.931 . S
H1014 C1029 0.930 . S
C1015 H1003 0.930 . S
C1015 C1016 1.399 . S
C1015 C1020 1.399 . S
C1016 C1015 1.399 . S
C1016 C1017 1.376 . S
C1017 H1004 0.930 . S
C1017 C1016 1.376 . S
C1017 C1018 1.388 . S
C1018 H1005 0.930 . S
C1018 C1017 1.388 . S
C1018 C1019 1.390 . S
C1019 C1018 1.390 . S
C1019 C1020 1.394 . S
C1019 C1025 1.465 . S
C1020 C1015 1.399 . S
C1020 C1019 1.394 . S
C1020 C1021 1.516 . S
C1021 C1020 1.516 . S
C1021 C1022 1.502 . S
C1021 C1023 1.561 . S
C1021 C1024 1.526 . S
C1022 H1006 0.959 . S
C1022 H1007 0.959 . S
C1022 H1008 0.961 . S
C1022 C1021 1.502 . S
C1023 H1009 0.960 . S
C1023 H1010 0.961 . S
C1023 H1011 0.959 . S
C1023 C1021 1.561 . S
C1024 C1021 1.526 . S
C1024 C1025 1.396 . S
C1024 C1029 1.390 . S
C1025 C1019 1.465 . S
C1025 C1024 1.396 . S
C1025 C1026 1.399 . S
C1026 H1012 0.929 . S
C1026 C1025 1.399 . S
C1026 C1027 1.385 . S
C1027 H1013 0.931 . S
C1027 C1026 1.385 . S
C1027 C1028 1.389 . S
C1028 C1027 1.389 . S
C1028 C1029 1.387 . S
C1029 H1014 0.930 . S
C1029 C1024 1.390 . S
C1029 C1028 1.387 . S
H1030 C1042 0.930 . S
H1031 C1044 0.930 . S
H1032 C1045 0.930 . S
H1033 C1049 0.959 . S
H1034 C1049 0.959 . S
H1035 C1049 0.961 . S
H1036 C1050 0.960 . S
H1037 C1050 0.961 . S
H1038 C1050 0.959 . S
H1039 C1053 0.929 . S
H1040 C1054 0.931 . S
H1041 C1056 0.930 . S
C1042 H1030 0.930 . S
C1042 C1043 1.399 . S
C1042 C1047 1.399 . S
C1043 C1042 1.399 . S
C1043 C1044 1.376 . S
C1044 H1031 0.930 . S
C1044 C1043 1.376 . S
C1044 C1045 1.388 . S
C1045 H1032 0.930 . S
C1045 C1044 1.388 . S
C1045 C1046 1.390 . S
C1046 C1045 1.390 . S
C1046 C1047 1.394 . S
C1046 C1052 1.465 . S
C1047 C1042 1.399 . S
C1047 C1046 1.394 . S
C1047 C1048 1.516 . S
C1048 C1047 1.516 . S
C1048 C1049 1.502 . S
C1048 C1050 1.561 . S
C1048 C1051 1.526 . S
C1049 H1033 0.959 . S
C1049 H1034 0.959 . S
C1049 H1035 0.961 . S
C1049 C1048 1.502 . S
C1050 H1036 0.960 . S
C1050 H1037 0.961 . S
C1050 H1038 0.959 . S
C1050 C1048 1.561 . S
C1051 C1048 1.526 . S
C1051 C1052 1.396 . S
C1051 C1056 1.390 . S
C1052 C1046 1.465 . S
C1052 C1051 1.396 . S
C1052 C1053 1.399 . S
C1053 H1039 0.929 . S
C1053 C1052 1.399 . S
C1053 C1054 1.385 . S
C1054 H1040 0.931 . S
C1054 C1053 1.385 . S
C1054 C1055 1.389 . S
C1055 C1054 1.389 . S
C1055 C1056 1.387 . S
C1056 H1041 0.930 . S
C1056 C1051 1.390 . S
C1056 C1055 1.387 . S
H1057 C1069 0.930 . S
H1058 C1071 0.930 . S
H1059 C1072 0.930 . S
H1060 C1076 0.959 . S
H1061 C1076 0.959 . S
H1062 C1076 0.961 . S
H1063 C1077 0.960 . S
H1064 C1077 0.961 . S
H1065 C1077 0.959 . S
H1066 C1080 0.929 . S
H1067 C1081 0.931 . S
H1068 C1083 0.930 . S
C1069 H1057 0.930 . S
C1069 C1070 1.399 . S
C1069 C1074 1.399 . S
C1070 C1069 1.399 . S
C1070 C1071 1.376 . S
C1071 H1058 0.930 . S
C1071 C1070 1.376 . S
C1071 C1072 1.388 . S
C1072 H1059 0.930 . S
C1072 C1071 1.388 . S
C1072 C1073 1.390 . S
C1073 C1072 1.390 . S
C1073 C1074 1.394 . S
C1073 C1079 1.465 . S
C1074 C1069 1.399 . S
C1074 C1073 1.394 . S
C1074 C1075 1.516 . S
C1075 C1074 1.516 . S
C1075 C1076 1.502 . S
C1075 C1077 1.561 . S
C1075 C1078 1.526 . S
C1076 H1060 0.959 . S
C1076 H1061 0.959 . S
C1076 H1062 0.961 . S
C1076 C1075 1.502 . S
C1077 H1063 0.960 . S
C1077 H1064 0.961 . S
C1077 H1065 0.959 . S
C1077 C1075 1.561 . S
C1078 C1075 1.526 . S
C1078 C1079 1.396 . S
C1078 C1083 1.390 . S
C1079 C1073 1.465 . S
C1079 C1078 1.396 . S
C1079 C1080 1.399 . S
C1080 H1066 0.929 . S
C1080 C1079 1.399 . S
C1080 C1081 1.385 . S
C1081 H1067 0.931 . S
C1081 C1080 1.385 . S
C1081 C1082 1.389 . S
C1082 C1081 1.389 . S
C1082 C1083 1.387 . S
C1083 H1068 0.930 . S
C1083 C1078 1.390 . S
C1083 C1082 1.387 . S
H1084 C1096 0.930 . S
H1085 C1098 0.930 . S
H1086 C1099 0.930 . S
H1087 C1103 0.959 . S
H1088 C1103 0.959 . S
H1089 C1103 0.961 . S
H1090 C1104 0.960 . S
H1091 C1104 0.961 . S
H1092 C1104 0.959 . S
H1093 C1107 0.929 . S
H1094 C1108 0.931 . S
H1095 C1110 0.930 . S
C1096 H1084 0.930 . S
C1096 C1097 1.399 . S
C1096 C1101 1.399 . S
C1097 C1096 1.399 . S
C1097 C1098 1.376 . S
C1098 H1085 0.930 . S
C1098 C1097 1.376 . S
C1098 C1099 1.388 . S
C1099 H1086 0.930 . S
C1099 C1098 1.388 . S
C1099 C1100 1.390 . S
C1100 C1099 1.390 . S
C1100 C1101 1.394 . S
C1100 C1106 1.465 . S
C1101 C1096 1.399 . S
C1101 C1100 1.394 . S
C1101 C1102 1.516 . S
C1102 C1101 1.516 . S
C1102 C1103 1.502 . S
C1102 C1104 1.561 . S
C1102 C1105 1.526 . S
C1103 H1087 0.959 . S
C1103 H1088 0.959 . S
C1103 H1089 0.961 . S
C1103 C1102 1.502 . S
C1104 H1090 0.960 . S
C1104 H1091 0.961 . S
C1104 H1092 0.959 . S
C1104 C1102 1.561 . S
C1105 C1102 1.526 . S
C1105 C1106 1.396 . S
C1105 C1110 1.390 . S
C1106 C1100 1.465 . S
C1106 C1105 1.396 . S
C1106 C1107 1.399 . S
C1107 H1093 0.929 . S
C1107 C1106 1.399 . S
C1107 C1108 1.385 . S
C1108 H1094 0.931 . S
C1108 C1107 1.385 . S
C1108 C1109 1.389 . S
C1109 C1108 1.389 . S
C1109 C1110 1.387 . S
C1110 H1095 0.930 . S
C1110 C1105 1.390 . S
C1110 C1109 1.387 . S
H1111 C1123 0.930 . S
H1112 C1125 0.930 . S
H1113 C1126 0.930 . S
H1114 C1130 0.959 . S
H1115 C1130 0.959 . S
H1116 C1130 0.961 . S
H1117 C1131 0.960 . S
H1118 C1131 0.961 . S
H1119 C1131 0.959 . S
H1120 C1134 0.929 . S
H1121 C1135 0.931 . S
H1122 C1137 0.930 . S
C1123 H1111 0.930 . S
C1123 C1124 1.399 . S
C1123 C1128 1.399 . S
C1124 C1123 1.399 . S
C1124 C1125 1.376 . S
C1125 H1112 0.930 . S
C1125 C1124 1.376 . S
C1125 C1126 1.388 . S
C1126 H1113 0.930 . S
C1126 C1125 1.388 . S
C1126 C1127 1.390 . S
C1127 C1126 1.390 . S
C1127 C1128 1.394 . S
C1127 C1133 1.465 . S
C1128 C1123 1.399 . S
C1128 C1127 1.394 . S
C1128 C1129 1.516 . S
C1129 C1128 1.516 . S
C1129 C1130 1.502 . S
C1129 C1131 1.561 . S
C1129 C1132 1.526 . S
C1130 H1114 0.959 . S
C1130 H1115 0.959 . S
C1130 H1116 0.961 . S
C1130 C1129 1.502 . S
C1131 H1117 0.960 . S
C1131 H1118 0.961 . S
C1131 H1119 0.959 . S
C1131 C1129 1.561 . S
C1132 C1129 1.526 . S
C1132 C1133 1.396 . S
C1132 C1137 1.390 . S
C1133 C1127 1.465 . S
C1133 C1132 1.396 . S
C1133 C1134 1.399 . S
C1134 H1120 0.929 . S
C1134 C1133 1.399 . S
C1134 C1135 1.385 . S
C1135 H1121 0.931 . S
C1135 C1134 1.385 . S
C1135 C1136 1.389 . S
C1136 C1135 1.389 . S
C1136 C1137 1.387 . S
C1137 H1122 0.930 . S
C1137 C1132 1.390 . S
C1137 C1136 1.387 . S
H1138 C1150 0.930 . S
H1139 C1152 0.930 . S
H1140 C1153 0.930 . S
H1141 C1157 0.959 . S
H1142 C1157 0.959 . S
H1143 C1157 0.961 . S
H1144 C1158 0.960 . S
H1145 C1158 0.961 . S
H1146 C1158 0.959 . S
H1147 C1161 0.929 . S
H1148 C1162 0.931 . S
H1149 C1164 0.930 . S
C1150 H1138 0.930 . S
C1150 C1151 1.399 . S
C1150 C1155 1.399 . S
C1151 C1150 1.399 . S
C1151 C1152 1.376 . S
C1152 H1139 0.930 . S
C1152 C1151 1.376 . S
C1152 C1153 1.388 . S
C1153 H1140 0.930 . S
C1153 C1152 1.388 . S
C1153 C1154 1.390 . S
C1154 C1153 1.390 . S
C1154 C1155 1.394 . S
C1154 C1160 1.465 . S
C1155 C1150 1.399 . S
C1155 C1154 1.394 . S
C1155 C1156 1.516 . S
C1156 C1155 1.516 . S
C1156 C1157 1.502 . S
C1156 C1158 1.561 . S
C1156 C1159 1.526 . S
C1157 H1141 0.959 . S
C1157 H1142 0.959 . S
C1157 H1143 0.961 . S
C1157 C1156 1.502 . S
C1158 H1144 0.960 . S
C1158 H1145 0.961 . S
C1158 H1146 0.959 . S
C1158 C1156 1.561 . S
C1159 C1156 1.526 . S
C1159 C1160 1.396 . S
C1159 C1164 1.390 . S
C1160 C1154 1.465 . S
C1160 C1159 1.396 . S
C1160 C1161 1.399 . S
C1161 H1147 0.929 . S
C1161 C1160 1.399 . S
C1161 C1162 1.385 . S
C1162 H1148 0.931 . S
C1162 C1161 1.385 . S
C1162 C1163 1.389 . S
C1163 C1162 1.389 . S
C1163 C1164 1.387 . S
C1164 H1149 0.930 . S
C1164 C1159 1.390 . S
C1164 C1163 1.387 . S
H1165 C1177 0.930 . S
H1166 C1179 0.930 . S
H1167 C1180 0.930 . S
H1168 C1184 0.959 . S
H1169 C1184 0.959 . S
H1170 C1184 0.961 . S
H1171 C1185 0.960 . S
H1172 C1185 0.961 . S
H1173 C1185 0.959 . S
H1174 C1188 0.929 . S
H1175 C1189 0.931 . S
H1176 C1191 0.930 . S
C1177 H1165 0.930 . S
C1177 C1178 1.399 . S
C1177 C1182 1.399 . S
C1178 C1177 1.399 . S
C1178 C1179 1.376 . S
C1179 H1166 0.930 . S
C1179 C1178 1.376 . S
C1179 C1180 1.388 . S
C1180 H1167 0.930 . S
C1180 C1179 1.388 . S
C1180 C1181 1.390 . S
C1181 C1180 1.390 . S
C1181 C1182 1.394 . S
C1181 C1187 1.465 . S
C1182 C1177 1.399 . S
C1182 C1181 1.394 . S
C1182 C1183 1.516 . S
C1183 C1182 1.516 . S
C1183 C1184 1.502 . S
C1183 C1185 1.561 . S
C1183 C1186 1.526 . S
C1184 H1168 0.959 . S
C1184 H1169 0.959 . S
C1184 H1170 0.961 . S
C1184 C1183 1.502 . S
C1185 H1171 0.960 . S
C1185 H1172 0.961 . S
C1185 H1173 0.959 . S
C1185 C1183 1.561 . S
C1186 C1183 1.526 . S
C1186 C1187 1.396 . S
C1186 C1191 1.390 . S
C1187 C1181 1.465 . S
C1187 C1186 1.396 . S
C1187 C1188 1.399 . S
C1188 H1174 0.929 . S
C1188 C1187 1.399 . S
C1188 C1189 1.385 . S
C1189 H1175 0.931 . S
C1189 C1188 1.385 . S
C1189 C1190 1.389 . S
C1190 C1189 1.389 . S
C1190 C1191 1.387 . S
C1191 H1176 0.930 . S
C1191 C1186 1.390 . S
C1191 C1190 1.387 . S
H1192 C1204 0.930 . S
H1193 C1206 0.930 . S
H1194 C1207 0.930 . S
H1195 C1211 0.959 . S
H1196 C1211 0.959 . S
H1197 C1211 0.961 . S
H1198 C1212 0.960 1_455 S
H1199 C1212 0.961 1_565 S
H1200 C1212 0.959 . S
H1201 C1215 0.929 . S
H1202 C1216 0.931 . S
H1203 C1218 0.930 . S
C1204 H1192 0.930 . S
C1204 C1205 1.399 . S
C1204 C1209 1.399 . S
C1205 C1204 1.399 . S
C1205 C1206 1.376 . S
C1206 H1193 0.930 . S
C1206 C1205 1.376 . S
C1206 C1207 1.388 1_455 S
C1207 H1194 0.930 . S
C1207 C1206 1.388 1_655 S
C1207 C1208 1.390 . S
C1208 C1207 1.390 . S
C1208 C1209 1.394 1_655 S
C1208 C1214 1.465 1_545 S
C1209 C1204 1.399 . S
C1209 C1208 1.394 1_455 S
C1209 C1210 1.516 1_545 S
C1210 C1209 1.516 1_565 S
C1210 C1211 1.502 . S
C1210 C1212 1.561 1_465 S
C1210 C1213 1.526 1_455 S
C1211 H1195 0.959 . S
C1211 H1196 0.959 . S
C1211 H1197 0.961 . S
C1211 C1210 1.502 . S
C1212 H1198 0.960 1_655 S
C1212 H1199 0.961 1_545 S
C1212 H1200 0.959 . S
C1212 C1210 1.561 1_645 S
C1213 C1210 1.526 1_655 S
C1213 C1214 1.396 . S
C1213 C1218 1.390 . S
C1214 C1208 1.465 1_565 S
C1214 C1213 1.396 . S
C1214 C1215 1.399 . S
C1215 H1201 0.929 . S
C1215 C1214 1.399 . S
C1215 C1216 1.385 . S
C1216 H1202 0.931 . S
C1216 C1215 1.385 . S
C1216 C1217 1.389 . S
C1217 C1216 1.389 . S
C1217 C1218 1.387 . S
C1218 H1203 0.930 . S
C1218 C1213 1.390 . S
C1218 C1217 1.387 . S
H1219 C1231 0.930 . S
H1220 C1233 0.930 . S
H1221 C1234 0.930 . S
H1222 C1238 0.958 1_455 S
H1223 C1238 0.959 . S
H1224 C1238 0.961 1_455 S
H1225 C1239 0.960 . S
H1226 C1239 0.961 . S
H1227 C1239 0.959 . S
H1228 C1242 0.929 . S
H1229 C1243 0.931 . S
H1230 C1245 0.930 . S
C1231 H1219 0.930 . S
C1231 C1232 1.399 . S
C1231 C1236 1.399 . S
C1232 C1231 1.399 . S
C1232 C1233 1.376 . S
C1233 H1220 0.930 . S
C1233 C1232 1.376 . S
C1233 C1234 1.388 . S
C1234 H1221 0.930 . S
C1234 C1233 1.388 . S
C1234 C1235 1.390 . S
C1235 C1234 1.390 . S
C1235 C1236 1.394 . S
C1235 C1241 1.465 1_455 S
C1236 C1231 1.399 . S
C1236 C1235 1.394 . S
C1236 C1237 1.516 1_455 S
C1237 C1236 1.516 1_655 S
C1237 C1238 1.502 . S
C1237 C1239 1.561 . S
C1237 C1240 1.526 . S
C1238 H1222 0.958 1_655 S
C1238 H1223 0.959 . S
C1238 H1224 0.961 1_655 S
C1238 C1237 1.502 . S
C1239 H1225 0.960 . S
C1239 H1226 0.961 . S
C1239 H1227 0.959 . S
C1239 C1237 1.561 . S
C1240 C1237 1.526 . S
C1240 C1241 1.396 . S
C1240 C1245 1.390 . S
C1241 C1235 1.465 1_655 S
C1241 C1240 1.396 . S
C1241 C1242 1.399 . S
C1242 H1228 0.929 . S
C1242 C1241 1.399 . S
C1242 C1243 1.385 . S
C1243 H1229 0.931 . S
C1243 C1242 1.385 . S
C1243 C1244 1.389 . S
C1244 C1243 1.389 . S
C1244 C1245 1.387 . S
C1245 H1230 0.930 . S
C1245 C1240 1.390 . S
C1245 C1244 1.387 . S
H1246 C1258 0.930 . S
H1247 C1260 0.930 . S
H1248 C1261 0.930 . S
H1249 C1265 0.959 . S
H1250 C1265 0.959 . S
H1251 C1265 0.961 . S
H1252 C1266 0.960 . S
H1253 C1266 0.961 . S
H1254 C1266 0.959 . S
H1255 C1269 0.929 . S
H1256 C1270 0.931 . S
H1257 C1272 0.930 . S
C1258 H1246 0.930 . S
C1258 C1259 1.399 . S
C1258 C1263 1.399 . S
C1259 C1258 1.399 . S
C1259 C1260 1.376 . S
C1260 H1247 0.930 . S
C1260 C1259 1.376 . S
C1260 C1261 1.388 . S
C1261 H1248 0.930 . S
C1261 C1260 1.388 . S
C1261 C1262 1.390 . S
C1262 C1261 1.390 . S
C1262 C1263 1.394 . S
C1262 C1268 1.465 . S
C1263 C1258 1.399 . S
C1263 C1262 1.394 . S
C1263 C1264 1.516 . S
C1264 C1263 1.516 . S
C1264 C1265 1.502 . S
C1264 C1266 1.561 . S
C1264 C1267 1.526 . S
C1265 H1249 0.959 . S
C1265 H1250 0.959 . S
C1265 H1251 0.961 . S
C1265 C1264 1.502 . S
C1266 H1252 0.960 . S
C1266 H1253 0.961 . S
C1266 H1254 0.959 . S
C1266 C1264 1.561 . S
C1267 C1264 1.526 . S
C1267 C1268 1.396 . S
C1267 C1272 1.390 . S
C1268 C1262 1.465 . S
C1268 C1267 1.396 . S
C1268 C1269 1.399 . S
C1269 H1255 0.929 . S
C1269 C1268 1.399 . S
C1269 C1270 1.385 . S
C1270 H1256 0.931 . S
C1270 C1269 1.385 . S
C1270 C1271 1.389 . S
C1271 C1270 1.389 . S
C1271 C1272 1.387 . S
C1272 H1257 0.930 . S
C1272 C1267 1.390 . S
C1272 C1271 1.387 . S
H1273 C1285 0.930 . S
H1274 C1287 0.930 . S
H1275 C1288 0.930 1_565 S
H1276 C1292 0.959 . S
H1277 C1292 0.959 . S
H1278 C1292 0.961 . S
H1279 C1293 0.960 . S
H1280 C1293 0.961 . S
H1281 C1293 0.959 . S
H1282 C1296 0.929 . S
H1283 C1297 0.931 . S
H1284 C1299 0.930 . S
C1285 H1273 0.930 . S
C1285 C1286 1.399 . S
C1285 C1290 1.399 . S
C1286 C1285 1.399 . S
C1286 C1287 1.376 . S
C1287 H1274 0.930 . S
C1287 C1286 1.376 . S
C1287 C1288 1.388 . S
C1288 H1275 0.930 1_545 S
C1288 C1287 1.388 . S
C1288 C1289 1.389 1_545 S
C1289 C1288 1.389 1_565 S
C1289 C1290 1.386 1_565 S
C1289 C1295 1.472 . S
C1290 C1285 1.399 . S
C1290 C1289 1.386 1_545 S
C1290 C1291 1.516 . S
C1291 C1290 1.516 . S
C1291 C1292 1.502 . S
C1291 C1293 1.561 1_545 S
C1291 C1294 1.526 1_545 S
C1292 H1276 0.959 . S
C1292 H1277 0.959 . S
C1292 H1278 0.961 . S
C1292 C1291 1.502 . S
C1293 H1279 0.960 . S
C1293 H1280 0.961 . S
C1293 H1281 0.959 . S
C1293 C1291 1.561 1_565 S
C1294 C1291 1.526 1_565 S
C1294 C1295 1.396 . S
C1294 C1299 1.390 . S
C1295 C1289 1.472 . S
C1295 C1294 1.396 . S
C1295 C1296 1.399 . S
C1296 H1282 0.929 . S
C1296 C1295 1.399 . S
C1296 C1297 1.385 . S
C1297 H1283 0.931 . S
C1297 C1296 1.385 . S
C1297 C1298 1.389 . S
C1298 C1297 1.389 . S
C1298 C1299 1.387 . S
C1299 H1284 0.930 . S
C1299 C1294 1.390 . S
C1299 C1298 1.387 . S
H1300 C1312 0.930 . S
H1301 C1314 0.930 . S
H1302 C1315 0.930 . S
H1303 C1319 0.959 . S
H1304 C1319 0.959 . S
H1305 C1319 0.961 . S
H1306 C1320 0.960 1_554 S
H1307 C1320 0.961 1_554 S
H1308 C1320 0.959 . S
H1309 C1323 0.929 1_455 S
H1310 C1324 0.931 . S
H1311 C1326 0.930 . S
C1312 H1300 0.930 . S
C1312 C1313 1.399 . S
C1312 C1317 1.399 . S
C1313 C1312 1.399 . S
C1313 C1314 1.376 . S
C1314 H1301 0.930 . S
C1314 C1313 1.376 . S
C1314 C1315 1.388 . S
C1315 H1302 0.930 . S
C1315 C1314 1.388 . S
C1315 C1316 1.390 . S
C1316 C1315 1.390 . S
C1316 C1317 1.394 . S
C1316 C1322 1.464 . S
C1317 C1312 1.399 . S
C1317 C1316 1.394 . S
C1317 C1318 1.516 1_455 S
C1318 C1317 1.516 1_655 S
C1318 C1319 1.502 . S
C1318 C1320 1.561 1_655 S
C1318 C1321 1.526 . S
C1319 H1303 0.959 . S
C1319 H1304 0.959 . S
C1319 H1305 0.961 . S
C1319 C1318 1.502 . S
C1320 H1306 0.960 1_556 S
C1320 H1307 0.961 1_556 S
C1320 H1308 0.959 . S
C1320 C1318 1.561 1_455 S
C1321 C1318 1.526 . S
C1321 C1322 1.397 1_655 S
C1321 C1326 1.390 . S
C1322 C1316 1.464 . S
C1322 C1321 1.397 1_455 S
C1322 C1323 1.399 1_455 S
C1323 H1309 0.929 1_655 S
C1323 C1322 1.399 1_655 S
C1323 C1324 1.385 . S
C1324 H1310 0.931 . S
C1324 C1323 1.385 . S
C1324 C1325 1.389 . S
C1325 C1324 1.389 . S
C1325 C1326 1.387 . S
C1326 H1311 0.930 . S
C1326 C1321 1.390 . S
C1326 C1325 1.387 . S
H1327 C1339 0.930 . S
H1328 C1341 0.930 . S
H1329 C1342 0.930 . S
H1330 C1346 0.959 . S
H1331 C1346 0.959 . S
H1332 C1346 0.961 . S
H1333 C1347 0.960 . S
H1334 C1347 0.961 . S
H1335 C1347 0.959 . S
H1336 C1350 0.929 . S
H1337 C1351 0.931 . S
H1338 C1353 0.930 . S
C1339 H1327 0.930 . S
C1339 C1340 1.399 . S
C1339 C1344 1.399 . S
C1340 C1339 1.399 . S
C1340 C1341 1.376 . S
C1341 H1328 0.930 . S
C1341 C1340 1.376 . S
C1341 C1342 1.388 . S
C1342 H1329 0.930 . S
C1342 C1341 1.388 . S
C1342 C1343 1.390 . S
C1343 C1342 1.390 . S
C1343 C1344 1.394 . S
C1343 C1349 1.465 . S
C1344 C1339 1.399 . S
C1344 C1343 1.394 . S
C1344 C1345 1.516 . S
C1345 C1344 1.516 . S
C1345 C1346 1.502 . S
C1345 C1347 1.561 . S
C1345 C1348 1.526 . S
C1346 H1330 0.959 . S
C1346 H1331 0.959 . S
C1346 H1332 0.961 . S
C1346 C1345 1.502 . S
C1347 H1333 0.960 . S
C1347 H1334 0.961 . S
C1347 H1335 0.959 . S
C1347 C1345 1.561 . S
C1348 C1345 1.526 . S
C1348 C1349 1.396 . S
C1348 C1353 1.390 . S
C1349 C1343 1.465 . S
C1349 C1348 1.396 . S
C1349 C1350 1.399 . S
C1350 H1336 0.929 . S
C1350 C1349 1.399 . S
C1350 C1351 1.385 . S
C1351 H1337 0.931 . S
C1351 C1350 1.385 . S
C1351 C1352 1.389 . S
C1352 C1351 1.389 . S
C1352 C1353 1.387 . S
C1353 H1338 0.930 . S
C1353 C1348 1.390 . S
C1353 C1352 1.387 . S
H1354 C1366 0.930 . S
H1355 C1368 0.930 . S
H1356 C1369 0.930 . S
H1357 C1373 0.959 . S
H1358 C1373 0.959 . S
H1359 C1373 0.961 . S
H1360 C1374 0.960 . S
H1361 C1374 0.961 1_545 S
H1362 C1374 0.959 . S
H1363 C1377 0.929 . S
H1364 C1378 0.931 . S
H1365 C1380 0.930 . S
C1366 H1354 0.930 . S
C1366 C1367 1.399 . S
C1366 C1371 1.399 . S
C1367 C1366 1.399 . S
C1367 C1368 1.376 . S
C1368 H1355 0.930 . S
C1368 C1367 1.376 . S
C1368 C1369 1.388 . S
C1369 H1356 0.930 . S
C1369 C1368 1.388 . S
C1369 C1370 1.390 . S
C1370 C1369 1.390 . S
C1370 C1371 1.394 . S
C1370 C1376 1.465 1_565 S
C1371 C1366 1.399 . S
C1371 C1370 1.394 . S
C1371 C1372 1.516 1_565 S
C1372 C1371 1.516 1_545 S
C1372 C1373 1.502 . S
C1372 C1374 1.561 1_545 S
C1372 C1375 1.526 . S
C1373 H1357 0.959 . S
C1373 H1358 0.959 . S
C1373 H1359 0.961 . S
C1373 C1372 1.502 . S
C1374 H1360 0.960 . S
C1374 H1361 0.961 1_565 S
C1374 H1362 0.959 . S
C1374 C1372 1.561 1_565 S
C1375 C1372 1.526 . S
C1375 C1376 1.396 . S
C1375 C1380 1.390 . S
C1376 C1370 1.465 1_545 S
C1376 C1375 1.396 . S
C1376 C1377 1.399 . S
C1377 H1363 0.929 . S
C1377 C1376 1.399 . S
C1377 C1378 1.385 . S
C1378 H1364 0.931 . S
C1378 C1377 1.385 . S
C1378 C1379 1.389 . S
C1379 C1378 1.389 . S
C1379 C1380 1.387 . S
C1380 H1365 0.930 . S
C1380 C1375 1.390 . S
C1380 C1379 1.387 . S
H1381 C1393 0.930 . S
H1382 C1395 0.930 . S
H1383 C1396 0.930 . S
H1384 C1400 0.959 . S
H1385 C1400 0.959 1_655 S
H1386 C1400 0.961 . S
H1387 C1401 0.960 1_455 S
H1388 C1401 0.961 . S
H1389 C1401 0.959 . S
H1390 C1404 0.929 1_545 S
H1391 C1405 0.931 . S
H1392 C1407 0.930 . S
C1393 H1381 0.930 . S
C1393 C1394 1.399 . S
C1393 C1398 1.399 . S
C1394 C1393 1.399 . S
C1394 C1395 1.376 . S
C1395 H1382 0.930 . S
C1395 C1394 1.376 . S
C1395 C1396 1.388 . S
C1396 H1383 0.930 . S
C1396 C1395 1.388 . S
C1396 C1397 1.390 . S
C1397 C1396 1.390 . S
C1397 C1398 1.394 . S
C1397 C1403 1.466 1_455 S
C1398 C1393 1.399 . S
C1398 C1397 1.394 . S
C1398 C1399 1.516 1_545 S
C1399 C1398 1.516 1_565 S
C1399 C1400 1.502 . S
C1399 C1401 1.561 1_465 S
C1399 C1402 1.526 1_455 S
C1400 H1384 0.959 . S
C1400 H1385 0.959 1_455 S
C1400 H1386 0.961 . S
C1400 C1399 1.502 . S
C1401 H1387 0.960 1_655 S
C1401 H1388 0.961 . S
C1401 H1389 0.959 . S
C1401 C1399 1.561 1_645 S
C1402 C1399 1.526 1_655 S
C1402 C1403 1.395 1_565 S
C1402 C1407 1.390 . S
C1403 C1397 1.466 1_655 S
C1403 C1402 1.395 1_545 S
C1403 C1404 1.399 1_545 S
C1404 H1390 0.929 1_565 S
C1404 C1403 1.399 1_565 S
C1404 C1405 1.385 . S
C1405 H1391 0.931 . S
C1405 C1404 1.385 . S
C1405 C1406 1.389 . S
C1406 C1405 1.389 . S
C1406 C1407 1.387 . S
C1407 H1392 0.930 . S
C1407 C1402 1.390 . S
C1407 C1406 1.387 . S
H1408 C1420 0.930 . S
H1409 C1422 0.930 . S
H1410 C1423 0.930 . S
H1411 C1427 0.959 . S
H1412 C1427 0.959 . S
H1413 C1427 0.961 . S
H1414 C1428 0.960 . S
H1415 C1428 0.961 . S
H1416 C1428 0.959 . S
H1417 C1431 0.929 . S
H1418 C1432 0.931 . S
H1419 C1434 0.930 . S
C1420 H1408 0.930 . S
C1420 C1421 1.399 . S
C1420 C1425 1.399 . S
C1421 C1420 1.399 . S
C1421 C1422 1.376 . S
C1422 H1409 0.930 . S
C1422 C1421 1.376 . S
C1422 C1423 1.388 . S
C1423 H1410 0.930 . S
C1423 C1422 1.388 . S
C1423 C1424 1.390 . S
C1424 C1423 1.390 . S
C1424 C1425 1.394 . S
C1424 C1430 1.465 . S
C1425 C1420 1.399 . S
C1425 C1424 1.394 . S
C1425 C1426 1.516 . S
C1426 C1425 1.516 . S
C1426 C1427 1.502 . S
C1426 C1428 1.561 . S
C1426 C1429 1.526 . S
C1427 H1411 0.959 . S
C1427 H1412 0.959 . S
C1427 H1413 0.961 . S
C1427 C1426 1.502 . S
C1428 H1414 0.960 . S
C1428 H1415 0.961 . S
C1428 H1416 0.959 . S
C1428 C1426 1.561 . S
C1429 C1426 1.526 . S
C1429 C1430 1.396 . S
C1429 C1434 1.390 . S
C1430 C1424 1.465 . S
C1430 C1429 1.396 . S
C1430 C1431 1.399 . S
C1431 H1417 0.929 . S
C1431 C1430 1.399 . S
C1431 C1432 1.385 . S
C1432 H1418 0.931 . S
C1432 C1431 1.385 . S
C1432 C1433 1.389 . S
C1433 C1432 1.389 . S
C1433 C1434 1.387 . S
C1434 H1419 0.930 . S
C1434 C1429 1.390 . S
C1434 C1433 1.387 . S
H1435 C1447 0.930 . S
H1436 C1449 0.930 . S
H1437 C1450 0.930 . S
H1438 C1454 0.959 . S
H1439 C1454 0.959 . S
H1440 C1454 0.961 . S
H1441 C1455 0.960 . S
H1442 C1455 0.961 . S
H1443 C1455 0.959 . S
H1444 C1458 0.929 . S
H1445 C1459 0.931 . S
H1446 C1461 0.930 . S
C1447 H1435 0.930 . S
C1447 C1448 1.399 . S
C1447 C1452 1.399 . S
C1448 C1447 1.399 . S
C1448 C1449 1.376 . S
C1449 H1436 0.930 . S
C1449 C1448 1.376 . S
C1449 C1450 1.388 . S
C1450 H1437 0.930 . S
C1450 C1449 1.388 . S
C1450 C1451 1.390 . S
C1451 C1450 1.390 . S
C1451 C1452 1.394 . S
C1451 C1457 1.465 . S
C1452 C1447 1.399 . S
C1452 C1451 1.394 . S
C1452 C1453 1.516 . S
C1453 C1452 1.516 . S
C1453 C1454 1.502 . S
C1453 C1455 1.561 . S
C1453 C1456 1.526 . S
C1454 H1438 0.959 . S
C1454 H1439 0.959 . S
C1454 H1440 0.961 . S
C1454 C1453 1.502 . S
C1455 H1441 0.960 . S
C1455 H1442 0.961 . S
C1455 H1443 0.959 . S
C1455 C1453 1.561 . S
C1456 C1453 1.526 . S
C1456 C1457 1.396 . S
C1456 C1461 1.390 . S
C1457 C1451 1.465 . S
C1457 C1456 1.396 . S
C1457 C1458 1.399 . S
C1458 H1444 0.929 . S
C1458 C1457 1.399 . S
C1458 C1459 1.385 . S
C1459 H1445 0.931 . S
C1459 C1458 1.385 . S
C1459 C1460 1.389 . S
C1460 C1459 1.389 . S
C1460 C1461 1.387 . S
C1461 H1446 0.930 . S
C1461 C1456 1.390 . S
C1461 C1460 1.387 . S
H1462 C1474 0.930 . S
H1463 C1476 0.930 . S
H1464 C1477 0.930 . S
H1465 C1481 0.959 . S
H1466 C1481 0.959 . S
H1467 C1481 0.961 . S
H1468 C1482 0.960 . S
H1469 C1482 0.961 . S
H1470 C1482 0.959 . S
H1471 C1485 0.929 . S
H1472 C1486 0.931 . S
H1473 C1488 0.930 . S
C1474 H1462 0.930 . S
C1474 C1475 1.399 . S
C1474 C1479 1.399 . S
C1475 C1474 1.399 . S
C1475 C1476 1.376 . S
C1476 H1463 0.930 . S
C1476 C1475 1.376 . S
C1476 C1477 1.388 . S
C1477 H1464 0.930 . S
C1477 C1476 1.388 . S
C1477 C1478 1.390 . S
C1478 C1477 1.390 . S
C1478 C1479 1.394 . S
C1478 C1484 1.465 . S
C1479 C1474 1.399 . S
C1479 C1478 1.394 . S
C1479 C1480 1.516 . S
C1480 C1479 1.516 . S
C1480 C1481 1.502 . S
C1480 C1482 1.561 . S
C1480 C1483 1.526 . S
C1481 H1465 0.959 . S
C1481 H1466 0.959 . S
C1481 H1467 0.961 . S
C1481 C1480 1.502 . S
C1482 H1468 0.960 . S
C1482 H1469 0.961 . S
C1482 H1470 0.959 . S
C1482 C1480 1.561 . S
C1483 C1480 1.526 . S
C1483 C1484 1.396 . S
C1483 C1488 1.390 . S
C1484 C1478 1.465 . S
C1484 C1483 1.396 . S
C1484 C1485 1.399 . S
C1485 H1471 0.929 . S
C1485 C1484 1.399 . S
C1485 C1486 1.385 . S
C1486 H1472 0.931 . S
C1486 C1485 1.385 . S
C1486 C1487 1.389 . S
C1487 C1486 1.389 . S
C1487 C1488 1.387 . S
C1488 H1473 0.930 . S
C1488 C1483 1.390 . S
C1488 C1487 1.387 . S
H1489 C1501 0.930 . S
H1490 C1503 0.930 . S
H1491 C1504 0.930 . S
H1492 C1508 0.959 . S
H1493 C1508 0.959 . S
H1494 C1508 0.961 . S
H1495 C1509 0.960 . S
H1496 C1509 0.961 . S
H1497 C1509 0.959 . S
H1498 C1512 0.929 . S
H1499 C1513 0.931 . S
H1500 C1515 0.930 . S
C1501 H1489 0.930 . S
C1501 C1502 1.399 . S
C1501 C1506 1.399 . S
C1502 C1501 1.399 . S
C1502 C1503 1.376 . S
C1503 H1490 0.930 . S
C1503 C1502 1.376 . S
C1503 C1504 1.388 . S
C1504 H1491 0.930 . S
C1504 C1503 1.388 . S
C1504 C1505 1.390 . S
C1505 C1504 1.390 . S
C1505 C1506 1.394 . S
C1505 C1511 1.465 . S
C1506 C1501 1.399 . S
C1506 C1505 1.394 . S
C1506 C1507 1.516 . S
C1507 C1506 1.516 . S
C1507 C1508 1.502 . S
C1507 C1509 1.561 . S
C1507 C1510 1.526 . S
C1508 H1492 0.959 . S
C1508 H1493 0.959 . S
C1508 H1494 0.961 . S
C1508 C1507 1.502 . S
C1509 H1495 0.960 . S
C1509 H1496 0.961 . S
C1509 H1497 0.959 . S
C1509 C1507 1.561 . S
C1510 C1507 1.526 . S
C1510 C1511 1.396 . S
C1510 C1515 1.390 . S
C1511 C1505 1.465 . S
C1511 C1510 1.396 . S
C1511 C1512 1.399 . S
C1512 H1498 0.929 . S
C1512 C1511 1.399 . S
C1512 C1513 1.385 . S
C1513 H1499 0.931 . S
C1513 C1512 1.385 . S
C1513 C1514 1.389 . S
C1514 C1513 1.389 . S
C1514 C1515 1.387 . S
C1515 H1500 0.930 . S
C1515 C1510 1.390 . S
C1515 C1514 1.387 . S
H1516 C1528 0.930 . S
H1517 C1530 0.930 . S
H1518 C1531 0.930 . S
H1519 C1535 0.959 . S
H1520 C1535 0.959 . S
H1521 C1535 0.961 . S
H1522 C1536 0.960 . S
H1523 C1536 0.961 . S
H1524 C1536 0.959 . S
H1525 C1539 0.929 . S
H1526 C1540 0.931 . S
H1527 C1542 0.930 . S
C1528 H1516 0.930 . S
C1528 C1529 1.399 . S
C1528 C1533 1.399 . S
C1529 C1528 1.399 . S
C1529 C1530 1.376 . S
C1530 H1517 0.930 . S
C1530 C1529 1.376 . S
C1530 C1531 1.388 . S
C1531 H1518 0.930 . S
C1531 C1530 1.388 . S
C1531 C1532 1.390 . S
C1532 C1531 1.390 . S
C1532 C1533 1.394 . S
C1532 C1538 1.465 . S
C1533 C1528 1.399 . S
C1533 C1532 1.394 . S
C1533 C1534 1.516 . S
C1534 C1533 1.516 . S
C1534 C1535 1.502 . S
C1534 C1536 1.561 . S
C1534 C1537 1.526 . S
C1535 H1519 0.959 . S
C1535 H1520 0.959 . S
C1535 H1521 0.961 . S
C1535 C1534 1.502 . S
C1536 H1522 0.960 . S
C1536 H1523 0.961 . S
C1536 H1524 0.959 . S
C1536 C1534 1.561 . S
C1537 C1534 1.526 . S
C1537 C1538 1.396 . S
C1537 C1542 1.390 . S
C1538 C1532 1.465 . S
C1538 C1537 1.396 . S
C1538 C1539 1.399 . S
C1539 H1525 0.929 . S
C1539 C1538 1.399 . S
C1539 C1540 1.385 . S
C1540 H1526 0.931 . S
C1540 C1539 1.385 . S
C1540 C1541 1.389 . S
C1541 C1540 1.389 . S
C1541 C1542 1.387 . S
C1542 H1527 0.930 . S
C1542 C1537 1.390 . S
C1542 C1541 1.387 . S
H1543 C1555 0.930 . S
H1544 C1557 0.930 . S
H1545 C1558 0.930 . S
H1546 C1562 0.959 . S
H1547 C1562 0.959 . S
H1548 C1562 0.961 . S
H1549 C1563 0.960 . S
H1550 C1563 0.961 . S
H1551 C1563 0.959 . S
H1552 C1566 0.929 . S
H1553 C1567 0.931 . S
H1554 C1569 0.930 . S
C1555 H1543 0.930 . S
C1555 C1556 1.399 . S
C1555 C1560 1.399 . S
C1556 C1555 1.399 . S
C1556 C1557 1.376 . S
C1557 H1544 0.930 . S
C1557 C1556 1.376 . S
C1557 C1558 1.388 . S
C1558 H1545 0.930 . S
C1558 C1557 1.388 . S
C1558 C1559 1.390 . S
C1559 C1558 1.390 . S
C1559 C1560 1.394 . S
C1559 C1565 1.465 . S
C1560 C1555 1.399 . S
C1560 C1559 1.394 . S
C1560 C1561 1.516 . S
C1561 C1560 1.516 . S
C1561 C1562 1.502 . S
C1561 C1563 1.561 . S
C1561 C1564 1.526 . S
C1562 H1546 0.959 . S
C1562 H1547 0.959 . S
C1562 H1548 0.961 . S
C1562 C1561 1.502 . S
C1563 H1549 0.960 . S
C1563 H1550 0.961 . S
C1563 H1551 0.959 . S
C1563 C1561 1.561 . S
C1564 C1561 1.526 . S
C1564 C1565 1.396 . S
C1564 C1569 1.390 . S
C1565 C1559 1.465 . S
C1565 C1564 1.396 . S
C1565 C1566 1.399 . S
C1566 H1552 0.929 . S
C1566 C1565 1.399 . S
C1566 C1567 1.385 . S
C1567 H1553 0.931 . S
C1567 C1566 1.385 . S
C1567 C1568 1.389 . S
C1568 C1567 1.389 . S
C1568 C1569 1.387 . S
C1569 H1554 0.930 . S
C1569 C1564 1.390 . S
C1569 C1568 1.387 . S
H1570 C1582 0.930 . S
H1571 C1584 0.930 . S
H1572 C1585 0.930 . S
H1573 C1589 0.959 . S
H1574 C1589 0.959 . S
H1575 C1589 0.961 . S
H1576 C1590 0.960 . S
H1577 C1590 0.961 . S
H1578 C1590 0.959 . S
H1579 C1593 0.929 . S
H1580 C1594 0.931 . S
H1581 C1596 0.930 . S
C1582 H1570 0.930 . S
C1582 C1583 1.399 . S
C1582 C1587 1.399 . S
C1583 C1582 1.399 . S
C1583 C1584 1.376 . S
C1584 H1571 0.930 . S
C1584 C1583 1.376 . S
C1584 C1585 1.388 . S
C1585 H1572 0.930 . S
C1585 C1584 1.388 . S
C1585 C1586 1.390 . S
C1586 C1585 1.390 . S
C1586 C1587 1.394 . S
C1586 C1592 1.465 . S
C1587 C1582 1.399 . S
C1587 C1586 1.394 . S
C1587 C1588 1.516 . S
C1588 C1587 1.516 . S
C1588 C1589 1.502 . S
C1588 C1590 1.561 . S
C1588 C1591 1.526 . S
C1589 H1573 0.959 . S
C1589 H1574 0.959 . S
C1589 H1575 0.961 . S
C1589 C1588 1.502 . S
C1590 H1576 0.960 . S
C1590 H1577 0.961 . S
C1590 H1578 0.959 . S
C1590 C1588 1.561 . S
C1591 C1588 1.526 . S
C1591 C1592 1.396 . S
C1591 C1596 1.390 . S
C1592 C1586 1.465 . S
C1592 C1591 1.396 . S
C1592 C1593 1.399 . S
C1593 H1579 0.929 . S
C1593 C1592 1.399 . S
C1593 C1594 1.385 . S
C1594 H1580 0.931 . S
C1594 C1593 1.385 . S
C1594 C1595 1.389 . S
C1595 C1594 1.389 . S
C1595 C1596 1.387 . S
C1596 H1581 0.930 . S
C1596 C1591 1.390 . S
C1596 C1595 1.387 . S
H1597 C1609 0.930 . S
H1598 C1611 0.930 . S
H1599 C1612 0.930 . S
H1600 C1616 0.959 . S
H1601 C1616 0.959 . S
H1602 C1616 0.961 . S
H1603 C1617 0.960 . S
H1604 C1617 0.961 . S
H1605 C1617 0.959 . S
H1606 C1620 0.929 . S
H1607 C1621 0.931 . S
H1608 C1623 0.930 . S
C1609 H1597 0.930 . S
C1609 C1610 1.399 . S
C1609 C1614 1.399 . S
C1610 C1609 1.399 . S
C1610 C1611 1.376 . S
C1611 H1598 0.930 . S
C1611 C1610 1.376 . S
C1611 C1612 1.388 . S
C1612 H1599 0.930 . S
C1612 C1611 1.388 . S
C1612 C1613 1.390 . S
C1613 C1612 1.390 . S
C1613 C1614 1.394 . S
C1613 C1619 1.465 . S
C1614 C1609 1.399 . S
C1614 C1613 1.394 . S
C1614 C1615 1.516 . S
C1615 C1614 1.516 . S
C1615 C1616 1.502 . S
C1615 C1617 1.561 . S
C1615 C1618 1.526 . S
C1616 H1600 0.959 . S
C1616 H1601 0.959 . S
C1616 H1602 0.961 . S
C1616 C1615 1.502 . S
C1617 H1603 0.960 . S
C1617 H1604 0.961 . S
C1617 H1605 0.959 . S
C1617 C1615 1.561 . S
C1618 C1615 1.526 . S
C1618 C1619 1.396 . S
C1618 C1623 1.390 . S
C1619 C1613 1.465 . S
C1619 C1618 1.396 . S
C1619 C1620 1.399 . S
C1620 H1606 0.929 . S
C1620 C1619 1.399 . S
C1620 C1621 1.385 . S
C1621 H1607 0.931 . S
C1621 C1620 1.385 . S
C1621 C1622 1.389 . S
C1622 C1621 1.389 . S
C1622 C1623 1.387 . S
C1623 H1608 0.930 . S
C1623 C1618 1.390 . S
C1623 C1622 1.387 . S
C557 C5 0.927 . S
C569 C447 0.941 . S
C584 C481 0.873 . S
C596 C39 0.873 . S
C611 C515 0.872 . S
C623 C73 0.933 . S
C638 C413 0.947 . S
C650 C107 0.909 . S
C665 C379 0.942 . S
C677 C141 0.884 . S
C692 C277 0.875 . S
C704 C175 0.871 . S
C719 C209 0.941 . S
C731 C311 0.927 . S
C746 C345 0.927 . S
C758 C243 0.940 . S
C773 C339 1.744 . S
C785 C9 1.807 . S
C800 C43 1.774 . S
C812 C373 1.670 . S
C827 C77 1.806 . S
C839 C407 1.746 . S
C854 C111 1.773 . S
C866 C305 1.681 . S
C881 C145 1.774 . S
C893 C543 1.672 . S
C908 C441 1.699 . S
C920 C179 1.799 . S
C935 C475 1.668 . S
C947 C213 1.781 . S
C962 C509 1.692 . S
C974 C247 1.797 . S
C989 C281 1.808 . S
C1001 C67 1.730 . S
C1016 C315 1.777 . S
C1028 C101 1.668 . S
C1043 C349 1.787 . S
C1055 C135 1.729 . S
C1070 C33 1.737 . S
C1082 C383 1.792 . S
C1097 C417 1.790 . S
C1109 C271 1.735 . S
C1124 C169 1.746 . S
C1136 C451 1.799 . S
C1151 C485 1.801 . S
C1163 C203 1.704 . S
C1178 C519 1.808 . S
C1190 C237 1.741 . S
C1205 C20 1.751 . S
C1217 C360 1.713 . S
C1232 C394 1.702 . S
C1244 C54 1.686 . S
C1259 C88 1.686 . S
C1271 C292 1.701 . S
C1286 C326 1.750 . S
C1298 C122 1.719 . S
C1313 C156 1.680 . S
C1325 C496 1.713 . S
C1340 C530 1.747 . S
C1352 C190 1.691 . S
C1367 C428 1.751 . S
C1379 C224 1.711 . S
C1394 C462 1.680 . S
C1406 C258 1.713 . S
C1421 C206 0.829 . S
C1433 C2 0.840 . S
C1448 C36 0.871 . S
C1460 C240 0.807 . S
C1475 C138 0.878 . S
C1487 C70 0.840 . S
C1502 C104 0.827 . S
C1514 C172 0.884 . S
C1529 C274 0.815 . S
C1541 C478 0.856 . S
C1556 C308 0.835 . S
C1568 C512 0.880 . S
C1583 C342 0.817 . S
C1595 C410 0.854 . S
C1610 C444 0.819 . S
C1622 C376 0.887 . S
