# Generated by pormake.
# Topology kag, (6)-cn, num edge types: 1
# Building blocks:
#     Node 0, Type 0, BuildingBlock: BETGAK_clean_sbu_0, # of connection points: 6
#     Node 1, Type 0, BuildingBlock: BETGAK_clean_sbu_0, # of connection points: 6
#     Node 2, Type 0, BuildingBlock: BETGAK_clean_sbu_0, # of connection points: 6
#     Edge 3, Type (0, 0), BuildingBlock: MIFKUJ_clean_linker_0, # of connection points: 2
#     Edge 4, Type (0, 0), BuildingBlock: MIFKUJ_clean_linker_0, # of connection points: 2
#     Edge 5, Type (0, 0), BuildingBlock: MIFKUJ_clean_linker_0, # of connection points: 2
#     Edge 6, Type (0, 0), BuildingBlock: MIFKUJ_clean_linker_0, # of connection points: 2
#     Edge 7, Type (0, 0), BuildingBlock: MIFKUJ_clean_linker_0, # of connection points: 2
#     Edge 8, Type (0, 0), BuildingBlock: MIFKUJ_clean_linker_0, # of connection points: 2
#     Edge 9, Type (0, 0), BuildingBlock: MIFKUJ_clean_linker_0, # of connection points: 2
#     Edge 10, Type (0, 0), BuildingBlock: MIFKUJ_clean_linker_0, # of connection points: 2
#     Edge 11, Type (0, 0), BuildingBlock: MIFKUJ_clean_linker_0, # of connection points: 2
# Relax obj value: 0.053
# Max RMSD: 0.165
# Mean RMSD: 0.088
data_MOF--net-kag--node1-BETGAK_clean_sbu_0--edge1-MIFKUJ_clean_linker_0
_symmetry_space_group_name_H-M    P1
_symmetry_Int_Tables_number       1
_symmetry_cell_setting            triclinic
loop_
_symmetry_equiv_pos_as_xyz
'x, y, z'
_cell_length_a     41.596046
_cell_length_b     51.636975
_cell_length_c     19.324542
_cell_angle_alpha  94.961904
_cell_angle_beta   91.115217
_cell_angle_gamma 102.26289
loop_
_atom_site_label
_atom_site_type_symbol
_atom_site_fract_x
_atom_site_fract_y
_atom_site_fract_z
_atom_type_partial_charge
La0 La 1.02881 0.48371 0.00962 0.0
La1 La 0.04249 0.54027 0.00437 0.0
C2 C 1.00771 0.43665 0.04121 0.0
C3 C 0.97737 0.41535 0.03519 0.0
C4 C 0.96011 0.40663 0.97121 0.0
C5 C 0.93352 0.38462 0.96586 0.0
C6 C 0.9235 0.37092 0.02437 0.0
C7 C 0.94018 0.38027 0.0887 0.0
C8 C 0.96684 0.40217 0.09393 0.0
C9 C 0.03706 0.49799 0.88086 0.0
C10 C 0.9665 0.51273 0.99943 0.0
C11 C 0.06261 0.58747 0.97277 0.0
C12 C 0.09248 0.60896 0.97485 0.0
C13 C 0.11921 0.61039 0.0217 0.0
C14 C 0.14596 0.63237 0.0258 0.0
C15 C 0.1463 0.65329 0.98334 0.0
C16 C 0.11988 0.65117 0.93507 0.0
C17 C 0.09332 0.6293 0.93101 0.0
C18 C 1.03391 0.52574 0.13293 0.0
C19 C 0.10477 0.51128 0.01436 0.0
O20 O 1.02265 0.44258 0.98401 0.0
O21 O 1.00752 0.45789 0.08314 0.0
O22 O 0.04687 0.47829 0.90505 0.0
O23 O 1.02158 0.50839 0.92772 0.0
O24 O 0.97744 0.49123 0.01383 0.0
O25 O 0.98831 0.53433 0.98564 0.0
O26 O 0.0502 0.58139 0.03229 0.0
O27 O 0.06179 0.56632 0.92985 0.0
O28 O 1.02372 0.54525 0.10852 0.0
O29 O 0.04973 0.5156 0.08627 0.0
O30 O 0.09385 0.53277 0.99976 0.0
O31 O 0.08295 0.48973 0.0285 0.0
H32 H 0.96753 0.41646 0.92499 0.0
H33 H 0.92096 0.37819 0.91573 0.0
H34 H 0.9334 0.37009 0.13467 0.0
H35 H 0.97984 0.40839 0.14373 0.0
H36 H 0.11908 0.59485 0.05599 0.0
H37 H 0.16583 0.63336 0.06364 0.0
H38 H 0.11958 0.66656 0.90053 0.0
H39 H 0.07304 0.62851 0.89427 0.0
La40 La 0.56876 0.01813 0.9998 0.0
La41 La 0.49848 1.00553 0.00708 0.0
C42 C 0.62686 0.03957 0.97077 0.0
C43 C 0.6469 0.06725 0.97449 0.0
C44 C 0.65812 0.0817 0.03865 0.0
C45 C 0.67791 0.10739 0.04121 0.0
C46 C 0.68704 0.11938 0.97974 0.0
C47 C 0.6754 0.105 0.91564 0.0
C48 C 0.6557 0.07926 0.91309 0.0
C49 C 0.54877 1.0097 0.1273 0.0
C50 C 0.52951 0.06611 0.01777 0.0
C51 C 0.44032 0.98437 0.03583 0.0
C52 C 0.42028 0.95681 0.0316 0.0
C53 C 0.39021 0.95062 0.99334 0.0
C54 C 0.37075 0.92482 0.98813 0.0
C55 C 0.38072 0.90449 0.02163 0.0
C56 C 0.41106 0.91069 0.05963 0.0
C57 C 0.43064 0.93653 0.06449 0.0
C58 C 0.51857 0.01408 0.87967 0.0
C59 C 0.53748 0.95746 0.98863 0.0
O60 O 0.61899 0.02959 0.02954 0.0
O61 O 0.60217 0.03341 0.92513 0.0
O62 O 0.57359 1.002 0.09933 0.0
O63 O 0.53639 0.02256 0.08457 0.0
O64 O 0.55669 0.05804 1.00003 0.0
O65 O 0.50295 0.04846 0.0319 0.0
O66 O 0.44825 0.99395 0.97663 0.0
O67 O 0.46496 0.99068 0.08161 0.0
O68 O 0.49388 0.02192 0.90786 0.0
O69 O 0.53082 1.00108 0.92225 0.0
O70 O 0.51022 0.96552 0.00559 0.0
O71 O 0.5643 0.97511 0.97576 0.0
H72 H 0.65197 0.0731 0.08711 0.0
H73 H 0.68671 0.11758 0.09152 0.0
H74 H 0.68144 0.11365 0.8672 0.0
H75 H 0.64747 0.06867 0.86287 0.0
H76 H 0.38176 0.96582 0.96713 0.0
H77 H 0.34796 0.92079 0.95718 0.0
H78 H 0.41948 0.89571 0.08668 0.0
H79 H 0.4538 0.9406 0.09418 0.0
La80 La 0.544 0.54154 1.00289 0.0
La81 La 0.52713 0.4828 0.00735 0.0
C82 C 0.55177 0.58987 0.97313 0.0
C83 C 0.54395 0.61725 0.98311 0.0
C84 C 0.56192 0.63682 0.033 0.0
C85 C 0.55928 0.66366 0.03495 0.0
C86 C 0.53859 0.67218 0.987 0.0
C87 C 0.51982 0.65245 0.93834 0.0
C88 C 0.52265 0.62555 0.93609 0.0
C89 C 0.54547 0.52608 0.13161 0.0
C90 C 0.46688 0.51258 0.01373 0.0
C91 C 0.51882 0.4344 0.03675 0.0
C92 C 0.52484 0.4065 0.02524 0.0
C93 C 0.50032 0.38611 0.99074 0.0
C94 C 0.50231 0.35915 0.98866 0.0
C95 C 0.52896 0.35132 0.02099 0.0
C96 C 0.5541 0.37178 0.05383 0.0
C97 C 0.55193 0.39887 0.05651 0.0
C98 C 0.52585 0.49836 0.87854 0.0
C99 C 0.60431 0.51186 0.99737 0.0
O100 O 0.56786 0.58188 0.02293 0.0
O101 O 0.53119 0.56984 0.93917 0.0
O102 O 0.56397 0.54696 0.10994 0.0
O103 O 0.52483 0.51548 0.08278 0.0
O104 O 0.48867 0.53392 0.99724 0.0
O105 O 0.47768 0.49123 0.02996 0.0
O106 O 0.50161 0.44278 0.98961 0.0
O107 O 0.54103 0.45403 0.06787 0.0
O108 O 0.50749 0.47737 0.89991 0.0
O109 O 0.54636 0.50883 0.92762 0.0
O110 O 0.5825 0.49057 0.01419 0.0
O111 O 0.59349 0.53315 0.98061 0.0
H112 H 0.57905 0.63159 0.06949 0.0
H113 H 0.57385 0.67785 0.074 0.0
H114 H 0.50382 0.65794 0.89991 0.0
H115 H 0.50894 0.6114 0.89577 0.0
H116 H 0.47876 0.3909 0.96701 0.0
H117 H 0.48262 0.34433 0.96194 0.0
H118 H 0.57495 0.3668 0.0799 0.0
H119 H 0.57103 0.41375 0.08485 0.0
H120 H 1.0095 0.53348 0.81152 0.0
H121 H 1.00912 0.53859 0.68599 0.0
H122 H 0.06368 0.47662 0.6526 0.0
H123 H 0.06465 0.47194 0.77721 0.0
H124 H 0.08752 0.51374 0.57382 0.0
H125 H 0.97729 0.46736 0.61433 0.0
H126 H 0.92371 0.46085 0.67021 0.0
H127 H 0.90698 0.53326 0.59718 0.0
H128 H 0.96068 0.54038 0.54162 0.0
H129 H 0.06213 0.4907 0.20255 0.0
H130 H 0.06257 0.48564 0.32808 0.0
H131 H 1.00676 0.5468 0.361 0.0
H132 H 1.00573 0.55142 0.23637 0.0
H133 H 0.9835 0.51009 0.4401 0.0
H134 H 0.09318 0.55711 0.40126 0.0
H135 H 0.14728 0.56494 0.34754 0.0
H136 H 0.16529 0.4925 0.41795 0.0
H137 H 0.1111 0.4841 0.47158 0.0
C138 C 1.02145 0.52101 0.77736 0.0
C139 C 0.03694 0.50219 0.80485 0.0
C140 C 1.02109 0.52381 0.70522 0.0
C141 C 0.036 0.50774 0.65848 0.0
C142 C 0.05193 0.48933 0.68652 0.0
C143 C 0.05236 0.48659 0.75825 0.0
C144 C 0.03511 0.5098 0.58072 0.0
C145 C 0.06462 0.51259 0.5447 0.0
C146 C 1.00555 0.50891 0.54165 0.0
C147 C 0.97314 0.50453 0.57442 0.0
C148 C 0.96227 0.48198 0.61057 0.0
C149 C 0.93187 0.47817 0.64214 0.0
C150 C 0.91199 0.49667 0.63742 0.0
C151 C 0.92242 0.51897 0.60089 0.0
C152 C 0.95282 0.52289 0.56931 0.0
C153 C 0.04991 0.503 0.2366 0.0
C154 C 0.03405 0.52157 0.20897 0.0
C155 C 0.05031 0.50024 0.30876 0.0
C156 C 0.03506 0.51609 0.35539 0.0
C157 C 1.01877 0.53425 0.3272 0.0
C158 C 1.01831 0.53696 0.25544 0.0
C159 C 0.03592 0.51401 0.43316 0.0
C160 C 1.0064 0.51121 0.46918 0.0
C161 C 0.06548 0.51497 0.47229 0.0
C162 C 0.09797 0.51986 0.43985 0.0
C163 C 0.10857 0.54275 0.40484 0.0
C164 C 0.13926 0.54731 0.37452 0.0
C165 C 0.15968 0.52921 0.37928 0.0
C166 C 0.14943 0.50649 0.41432 0.0
C167 C 0.11875 0.50184 0.44476 0.0
H168 H 0.18349 0.53287 0.35608 0.0
H169 H 0.88848 0.49369 0.66194 0.0
H170 H 0.57253 0.98036 0.21831 0.0
H171 H 0.56662 0.98083 0.34393 0.0
H172 H 0.50627 0.03893 0.33678 0.0
H173 H 0.51213 0.03842 0.20993 0.0
H174 H 0.55136 0.05277 0.44467 0.0
H175 H 0.47298 0.9742 0.36361 0.0
H176 H 0.45056 0.93021 0.30091 0.0
H177 H 0.51937 0.89645 0.41273 0.0
H178 H 0.54263 0.94035 0.47528 0.0
H179 H 0.49351 0.0425 0.7882 0.0
H180 H 0.49888 0.04165 0.66244 0.0
H181 H 0.56101 0.98487 0.67004 0.0
H182 H 0.5556 0.98568 0.79708 0.0
H183 H 0.51485 0.97042 0.56213 0.0
H184 H 0.59305 0.0498 0.64327 0.0
H185 H 0.6124 0.0934 0.71025 0.0
H186 H 0.54167 0.12552 0.59939 0.0
H187 H 0.52152 0.08197 0.53246 0.0
C188 C 0.55775 0.99313 0.2432 0.0
C189 C 0.54279 1.00933 0.20361 0.0
C190 C 0.55428 0.99331 0.31542 0.0
C191 C 0.53579 1.00977 0.3508 0.0
C192 C 0.52068 0.02599 0.31131 0.0
C193 C 0.52389 0.02561 0.23855 0.0
C194 C 0.5331 1.01038 0.42881 0.0
C195 C 0.54289 0.03476 0.47005 0.0
C196 C 0.52287 0.9869 0.46311 0.0
C197 C 0.50976 0.96066 0.42374 0.0
C198 C 0.48364 0.95749 0.37421 0.0
C199 C 0.4707 0.93254 0.33883 0.0
C200 C 0.4835 0.91055 0.35293 0.0
C201 C 0.50946 0.9135 0.40193 0.0
C202 C 0.52254 0.93841 0.43735 0.0
C203 C 0.50855 0.02992 0.76339 0.0
C204 C 0.52416 0.01419 0.80318 0.0
C205 C 0.51169 0.02952 0.69108 0.0
C206 C 0.53057 0.01336 0.65582 0.0
C207 C 0.54629 0.99757 0.69546 0.0
C208 C 0.54335 0.99813 0.7683 0.0
C209 C 0.53323 0.01276 0.57783 0.0
C210 C 0.52342 0.98839 0.53664 0.0
C211 C 0.54331 0.03624 0.54356 0.0
C212 C 0.55556 0.06253 0.58328 0.0
C213 C 0.58145 0.0661 0.63352 0.0
C214 C 0.59259 0.09082 0.67144 0.0
C215 C 0.57823 0.1122 0.6592 0.0
C216 C 0.55275 0.10893 0.60887 0.0
C217 C 0.54147 0.08423 0.57089 0.0
H218 H 0.58688 0.13132 0.68861 0.0
H219 H 0.47317 0.89119 0.32621 0.0
H220 H 0.57015 0.53613 0.81352 0.0
H221 H 0.57385 0.54095 0.68789 0.0
H222 H 0.49098 0.4749 0.64644 0.0
H223 H 0.48739 0.47001 0.77067 0.0
H224 H 0.53563 0.46971 0.5547 0.0
H225 H 0.48498 0.54105 0.63768 0.0
H226 H 0.48047 0.58124 0.7123 0.0
H227 H 0.57037 0.62418 0.63444 0.0
H228 H 0.57568 0.58408 0.56006 0.0
H229 H 0.50116 0.4885 0.19706 0.0
H230 H 0.49747 0.48386 0.32274 0.0
H231 H 0.58043 0.54987 0.36365 0.0
H232 H 0.584 0.55458 0.23931 0.0
H233 H 0.53579 0.55514 0.45571 0.0
H234 H 0.58633 0.48365 0.37266 0.0
H235 H 0.59075 0.44335 0.29837 0.0
H236 H 0.5008 0.40063 0.37655 0.0
H237 H 0.49558 0.44082 0.45059 0.0
C238 C 0.55269 0.52273 0.77757 0.0
C239 C 0.52849 0.50267 0.80268 0.0
C240 C 0.55473 0.5255 0.70547 0.0
C241 C 0.53259 0.50835 0.65656 0.0
C242 C 0.50853 0.48838 0.68208 0.0
C243 C 0.50643 0.48568 0.75368 0.0
C244 C 0.53414 0.51093 0.5791 0.0
C245 C 0.53527 0.48838 0.53327 0.0
C246 C 0.53424 0.53525 0.54993 0.0
C247 C 0.53091 0.55948 0.59387 0.0
C248 C 0.50391 0.55901 0.63682 0.0
C249 C 0.50119 0.58178 0.67904 0.0
C250 C 0.52518 0.60523 0.67828 0.0
C251 C 0.55185 0.60598 0.63507 0.0
C252 C 0.55472 0.58324 0.59284 0.0
C253 C 0.51865 0.50193 0.23289 0.0
C254 C 0.54287 0.52191 0.20757 0.0
C255 C 0.51661 0.49926 0.30503 0.0
C256 C 0.53879 0.51645 0.35382 0.0
C257 C 0.56286 0.53637 0.32812 0.0
C258 C 0.56495 0.53896 0.25645 0.0
C259 C 0.53728 0.51391 0.4313 0.0
C260 C 0.53615 0.53647 0.47714 0.0
C261 C 0.53714 0.48959 0.46049 0.0
C262 C 0.54038 0.46532 0.41661 0.0
C263 C 0.56736 0.46571 0.37365 0.0
C264 C 0.57003 0.44289 0.33162 0.0
C265 C 0.54602 0.41947 0.33257 0.0
C266 C 0.51935 0.4188 0.37576 0.0
C267 C 0.51653 0.44159 0.4178 0.0
H268 H 0.54811 0.40182 0.29997 0.0
H269 H 0.52305 0.62283 0.71106 0.0
H270 H 0.13732 0.47023 0.03475 0.0
H271 H 0.19624 0.47032 0.03437 0.0
H272 H 0.21756 0.55315 0.99726 0.0
H273 H 0.15842 0.55285 0.9957 0.0
H274 H 0.2593 0.53339 0.92702 0.0
H275 H 0.23225 0.52417 0.1648 0.0
H276 H 0.20181 0.50387 0.26175 0.0
H277 H 0.23129 0.43036 0.20487 0.0
H278 H 0.26146 0.45007 0.10677 0.0
H279 H 0.43471 0.554 0.99449 0.0
H280 H 0.37593 0.55435 0.99649 0.0
H281 H 0.35416 0.47186 0.03692 0.0
H282 H 0.41317 0.47178 0.0372 0.0
H283 H 0.31262 0.49163 0.10583 0.0
H284 H 0.33889 0.50046 0.86722 0.0
H285 H 0.36903 0.52049 0.76951 0.0
H286 H 0.341 0.59451 0.8278 0.0
H287 H 0.31101 0.57501 0.92638 0.0
C288 C 0.15436 0.48862 0.02676 0.0
C289 C 0.14206 0.51156 0.01566 0.0
C290 C 0.1887 0.48874 0.02704 0.0
C291 C 0.21289 0.51191 0.01718 0.0
C292 C 0.2005 0.53478 0.00533 0.0
C293 C 0.16612 0.53463 0.00472 0.0
C294 C 0.25047 0.51229 0.01839 0.0
C295 C 0.27073 0.52451 0.96707 0.0
C296 C 0.26675 0.50035 0.06885 0.0
C297 C 0.24885 0.48852 0.12803 0.0
C298 C 0.23207 0.50362 0.17271 0.0
C299 C 0.21488 0.49223 0.2279 0.0
C300 C 0.21457 0.46584 0.23942 0.0
C301 C 0.23151 0.45079 0.19583 0.0
C302 C 0.24867 0.46206 0.14043 0.0
C303 C 0.4176 0.53581 1.00384 0.0
C304 C 0.42975 0.51284 0.01547 0.0
C305 C 0.38332 0.53593 0.00434 0.0
C306 C 0.35903 0.51295 0.01534 0.0
C307 C 0.37129 0.49009 0.02795 0.0
C308 C 0.4056 0.49003 0.02792 0.0
C309 C 0.32147 0.5127 0.01438 0.0
C310 C 0.30121 0.50051 0.06576 0.0
C311 C 0.30517 0.52464 0.96393 0.0
C312 C 0.32299 0.53636 0.90456 0.0
C313 C 0.33932 0.52106 0.85942 0.0
C314 C 0.35636 0.53231 0.80386 0.0
C315 C 0.35701 0.55877 0.79257 0.0
C316 C 0.34052 0.57402 0.83668 0.0
C317 C 0.32348 0.56288 0.89236 0.0
H318 H 0.37022 0.56745 0.74956 0.0
H319 H 0.20124 0.45707 0.2822 0.0
H320 H 0.68833 0.16294 0.07371 0.0
H321 H 0.72667 0.20616 0.08126 0.0
H322 H 0.77393 0.18085 0.89856 0.0
H323 H 0.73676 0.13719 0.89262 0.0
H324 H 0.81877 0.2047 0.99262 0.0
H325 H 0.72058 0.22597 0.89802 0.0
H326 H 0.66224 0.22888 0.89341 0.0
H327 H 0.67585 0.27663 0.08933 0.0
H328 H 0.73427 0.27374 0.09546 0.0
H329 H 0.91325 0.32984 0.92116 0.0
H330 H 0.87148 0.28838 0.91362 0.0
H331 H 0.8321 0.31418 0.10604 0.0
H332 H 0.87352 0.35599 0.11329 0.0
H333 H 0.78307 0.2907 0.0103 0.0
H334 H 0.88051 0.26991 0.10533 0.0
H335 H 0.93916 0.26784 0.11096 0.0
H336 H 0.92677 0.21934 0.91628 0.0
H337 H 0.8681 0.22145 0.90897 0.0
C338 C 0.70699 0.16646 0.0353 0.0
C339 C 0.70932 0.1464 0.98253 0.0
C340 C 0.7287 0.19139 0.0392 0.0
C341 C 0.75307 0.19704 0.98999 0.0
C342 C 0.75533 0.17712 0.93708 0.0
C343 C 0.73376 0.15216 0.93334 0.0
C344 C 0.777 0.22326 0.99484 0.0
C345 C 0.81085 0.22346 0.99538 0.0
C346 C 0.76693 0.24792 1.00077 0.0
C347 C 0.73172 0.2494 0.99752 0.0
C348 C 0.71106 0.23688 0.94042 0.0
C349 C 0.67797 0.23858 0.93749 0.0
C350 C 0.66529 0.25288 0.99117 0.0
C351 C 0.68569 0.26553 0.04785 0.0
C352 C 0.7188 0.26389 0.05104 0.0
C353 C 0.89544 0.32689 0.96143 0.0
C354 C 0.89685 0.34627 0.01795 0.0
C355 C 0.87173 0.30304 0.95737 0.0
C356 C 0.84885 0.29796 0.00971 0.0
C357 C 0.84955 0.31756 0.06517 0.0
C358 C 0.8734 0.34139 0.06948 0.0
C359 C 0.82464 0.272 0.00708 0.0
C360 C 0.79086 0.27189 0.0073 0.0
C361 C 0.83472 0.2474 1.00204 0.0
C362 C 0.86999 0.24607 0.00625 0.0
C363 C 0.89035 0.259 0.06341 0.0
C364 C 0.92359 0.25778 0.06697 0.0
C365 C 0.93671 0.24353 0.01392 0.0
C366 C 0.91659 0.23041 0.95728 0.0
C367 C 0.88333 0.23159 0.95342 0.0
H368 H 0.96244 0.2426 0.01678 0.0
H369 H 0.63971 0.25427 0.98887 0.0
H370 H 0.48416 0.91511 0.97682 0.0
H371 H 0.48322 0.86758 0.97323 0.0
H372 H 0.58929 0.8849 0.99163 0.0
H373 H 0.59027 0.93256 0.99141 0.0
H374 H 0.57366 0.8432 0.91097 0.0
H375 H 0.53031 0.86602 0.12992 0.0
H376 H 0.49289 0.88398 0.20859 0.0
H377 H 0.4107 0.82555 0.11603 0.0
H378 H 0.44749 0.80785 0.03479 0.0
H379 H 0.58966 0.71644 0.01161 0.0
H380 H 0.58839 0.76352 0.01088 0.0
H381 H 0.48434 0.74248 0.95947 0.0
H382 H 0.48531 0.69516 0.96118 0.0
H383 H 0.49771 0.78523 0.056 0.0
H384 H 0.54155 0.76314 0.83663 0.0
H385 H 0.57942 0.74551 0.75801 0.0
H386 H 0.66147 0.80232 0.85705 0.0
H387 H 0.62412 0.82006 0.93694 0.0
C388 C 0.50739 0.9089 0.97994 0.0
C389 C 0.53732 0.92804 0.98467 0.0
C390 C 0.50682 0.88144 0.97852 0.0
C391 C 0.53614 0.87198 0.98398 0.0
C392 C 0.56611 0.89114 0.98757 0.0
C393 C 0.5667 0.91862 0.98756 0.0
C394 C 0.53569 0.84239 0.98546 0.0
C395 C 0.55731 0.8308 0.94375 0.0
C396 C 0.51389 0.82534 0.02648 0.0
C397 C 0.49168 0.83578 0.07569 0.0
C398 C 0.50422 0.85712 0.12589 0.0
C399 C 0.48308 0.86727 0.17097 0.0
C400 C 0.44939 0.8559 0.16744 0.0
C401 C 0.43678 0.83436 0.11869 0.0
C402 C 0.45776 0.82432 0.07289 0.0
C403 C 0.56632 0.72164 1.00069 0.0
C404 C 0.53757 0.70148 0.98654 0.0
C405 C 0.5657 0.74883 0.99962 0.0
C406 C 0.53633 0.75705 0.98442 0.0
C407 C 0.50747 0.73704 0.97121 0.0
C408 C 0.50811 0.70977 0.97169 0.0
C409 C 0.53585 0.78634 0.98212 0.0
C410 C 0.51404 0.79778 0.0235 0.0
C411 C 0.55757 0.80332 0.94125 0.0
C412 C 0.58007 0.79275 0.8932 0.0
C413 C 0.5677 0.77174 0.842 0.0
C414 C 0.58906 0.76175 0.79715 0.0
C415 C 0.62284 0.77274 0.80265 0.0
C416 C 0.63531 0.7938 0.85291 0.0
C417 C 0.61405 0.80384 0.89795 0.0
H418 H 0.63934 0.76499 0.76787 0.0
H419 H 0.43307 0.86377 0.20246 0.0
H420 H 0.91368 0.47308 0.03328 0.0
H421 H 0.85471 0.47273 0.03366 0.0
H422 H 0.87377 0.55098 0.96174 0.0
H423 H 0.933 0.55166 0.96355 0.0
H424 H 0.82704 0.5512 0.04392 0.0
H425 H 0.83486 0.48549 0.85733 0.0
H426 H 0.85025 0.44514 0.8025 0.0
H427 H 0.7916 0.39776 0.94525 0.0
H428 H 0.77614 0.4379 1.00143 0.0
H429 H 0.6571 0.55066 0.95914 0.0
H430 H 0.71597 0.55062 0.95763 0.0
H431 H 0.69668 0.47283 0.03221 0.0
H432 H 0.63755 0.47258 0.03198 0.0
H433 H 0.74345 0.47224 0.94862 0.0
H434 H 0.73558 0.53789 0.13494 0.0
H435 H 0.72069 0.57829 0.19075 0.0
H436 H 0.77975 0.6258 0.04885 0.0
H437 H 0.79468 0.58562 0.99164 0.0
C438 C 0.90557 0.49029 0.01716 0.0
C439 C 0.92916 0.51234 0.99801 0.0
C440 C 0.87118 0.49001 0.01682 0.0
C441 C 0.8582 0.5116 0.99627 0.0
C442 C 0.8819 0.53376 0.97781 0.0
C443 C 0.91633 0.53412 0.97857 0.0
C444 C 0.82062 0.51132 0.99485 0.0
C445 C 0.80907 0.53391 0.02191 0.0
C446 C 0.7957 0.48891 0.96814 0.0
C447 C 0.8046 0.46473 0.93397 0.0
C448 C 0.82538 0.46648 0.87722 0.0
C449 C 0.8341 0.44365 0.84589 0.0
C450 C 0.82198 0.41891 0.87051 0.0
C451 C 0.801 0.41694 0.92631 0.0
C452 C 0.79222 0.43972 0.95786 0.0
C453 C 0.66512 0.53343 0.97538 0.0
C454 C 0.64149 0.51167 0.99591 0.0
C455 C 0.69945 0.5335 0.97511 0.0
C456 C 0.71234 0.51194 0.9962 0.0
C457 C 0.68861 0.49 0.01569 0.0
C458 C 0.65423 0.48989 0.01574 0.0
C459 C 0.7499 0.51214 0.99755 0.0
C460 C 0.76143 0.48954 0.97052 0.0
C461 C 0.77482 0.53455 0.02426 0.0
C462 C 0.76597 0.55872 0.05859 0.0
C463 C 0.74522 0.55693 0.11537 0.0
C464 C 0.7368 0.57979 0.14729 0.0
C465 C 0.7492 0.60458 0.12324 0.0
C466 C 0.77012 0.60658 0.06735 0.0
C467 C 0.77859 0.58377 0.03519 0.0
H468 H 0.74265 0.62226 0.14801 0.0
H469 H 0.8288 0.40126 0.84625 0.0
H470 H 0.14059 0.70499 0.98221 0.0
H471 H 0.18426 0.74497 0.9876 0.0
H472 H 0.25714 0.69753 0.00669 0.0
H473 H 0.21322 0.65712 1.00129 0.0
H474 H 0.27368 0.74304 0.09173 0.0
H475 H 0.24428 0.72101 0.85288 0.0
H476 H 0.20785 0.70827 0.74785 0.0
H477 H 0.17381 0.7811 0.78063 0.0
H478 H 0.20968 0.79412 0.88656 0.0
H479 H 0.39923 0.85611 0.01184 0.0
H480 H 0.36354 0.81154 0.00571 0.0
H481 H 0.27798 0.84622 0.01297 0.0
H482 H 0.31325 0.89068 0.02201 0.0
H483 H 0.27364 0.80418 0.90718 0.0
H484 H 0.30267 0.82333 0.154 0.0
H485 H 0.34298 0.8357 0.2529 0.0
H486 H 0.3825 0.76682 0.1961 0.0
H487 H 0.34269 0.75425 0.09616 0.0
C488 C 0.16589 0.70294 0.98703 0.0
C489 C 0.17334 0.67771 0.99019 0.0
C490 C 0.19091 0.72589 0.99028 0.0
C491 C 0.22413 0.72431 0.99619 0.0
C492 C 0.23173 0.69929 1.0018 0.0
C493 C 0.20658 0.6762 0.99878 0.0
C494 C 0.25055 0.74888 0.99517 0.0
C495 C 0.27398 0.75616 0.05074 0.0
C496 C 0.25116 0.76613 0.94175 0.0
C497 C 0.22949 0.75844 0.87806 0.0
C498 C 0.22883 0.73422 0.83804 0.0
C499 C 0.20831 0.72696 0.77829 0.0
C500 C 0.18847 0.74384 0.75767 0.0
C501 C 0.18917 0.76804 0.79672 0.0
C502 C 0.20962 0.77538 0.8566 0.0
C503 C 0.37285 0.8543 0.01324 0.0
C504 C 0.35924 0.87715 0.01751 0.0
C505 C 0.35247 0.82877 0.00921 0.0
C506 C 0.31806 0.82553 0.00888 0.0
C507 C 0.30444 0.84822 0.01268 0.0
C508 C 0.32473 0.87368 0.01747 0.0
C509 C 0.29596 0.79863 0.0046 0.0
C510 C 0.27344 0.7909 0.9478 0.0
C511 C 0.29663 0.78085 0.05614 0.0
C512 C 0.3199 0.78798 0.1173 0.0
C513 C 0.32007 0.8109 0.1624 0.0
C514 C 0.34281 0.81794 0.21866 0.0
C515 C 0.36532 0.80207 0.23073 0.0
C516 C 0.36504 0.77908 0.1867 0.0
C517 C 0.34238 0.77198 0.13026 0.0
H518 H 0.38297 0.8076 0.27419 0.0
H519 H 0.17261 0.73818 0.71135 0.0
H520 H 0.58203 0.32656 0.00673 0.0
H521 H 0.58238 0.27905 0.00685 0.0
H522 H 0.47801 0.26165 0.03788 0.0
H523 H 0.47753 0.30896 0.03826 0.0
H524 H 0.50776 0.2334 0.12001 0.0
H525 H 0.51087 0.24992 0.88077 0.0
H526 H 0.53218 0.27124 0.77683 0.0
H527 H 0.62171 0.24352 0.80029 0.0
H528 H 0.601 0.22222 0.90485 0.0
H529 H 0.47802 0.09143 0.04567 0.0
H530 H 0.47788 0.13893 0.04678 0.0
H531 H 0.58046 0.15537 0.99793 0.0
H532 H 0.58055 0.10796 0.99543 0.0
H533 H 0.55145 0.18422 0.92471 0.0
H534 H 0.55038 0.17032 0.16686 0.0
H535 H 0.52986 0.14908 0.2716 0.0
H536 H 0.4372 0.17144 0.24177 0.0
H537 H 0.45704 0.19253 0.13629 0.0
C538 C 0.55912 0.31271 0.01392 0.0
C539 C 0.5297 0.32201 0.02196 0.0
C540 C 0.5593 0.28533 0.0135 0.0
C541 C 0.53014 0.26626 0.02173 0.0
C542 C 0.50093 0.27559 0.03116 0.0
C543 C 0.50066 0.30286 0.03078 0.0
C544 C 0.52987 0.23674 0.02053 0.0
C545 C 0.51702 0.22269 0.07676 0.0
C546 C 0.54243 0.22235 0.96505 0.0
C547 C 0.55473 0.23502 0.9018 0.0
C548 C 0.53528 0.24866 0.8644 0.0
C549 C 0.54719 0.26066 0.80514 0.0
C550 C 0.57838 0.25891 0.78224 0.0
C551 C 0.59763 0.24501 0.81831 0.0
C552 C 0.58583 0.23299 0.87759 0.0
C553 C 0.50064 0.10511 0.03546 0.0
C554 C 0.52931 0.09548 0.02078 0.0
C555 C 0.5006 0.13251 0.03641 0.0
C556 C 0.5293 0.15136 0.02333 0.0
C557 C 0.55787 0.14167 0.00829 0.0
C558 C 0.55791 0.11432 0.00717 0.0
C559 C 0.52959 0.18092 0.02444 0.0
C560 C 0.54233 0.19497 0.96809 0.0
C561 C 0.51704 0.19534 0.07984 0.0
C562 C 0.50508 0.18276 0.1433 0.0
C563 C 0.52555 0.17054 0.18237 0.0
C564 C 0.51405 0.15856 0.2419 0.0
C565 C 0.48221 0.15885 0.26322 0.0
C566 C 0.46184 0.17119 0.22514 0.0
C567 C 0.4732 0.18318 0.16551 0.0
H568 H 0.47336 0.14956 0.30933 0.0
H569 H 0.58755 0.2682 0.73634 0.0
loop_
_geom_bond_atom_site_label_1
_geom_bond_atom_site_label_2
_geom_bond_distance
_geom_bond_site_symmetry_2
_ccdc_geom_bond_type
La0 C2 2.928 . S
La0 O20 2.521 . S
La0 O21 2.628 1_556 S
La0 O22 2.554 . S
La0 O23 2.757 1_655 S
La0 O24 2.470 . S
La0 O29 2.482 1_556 S
La0 O31 2.503 1_655 S
La1 C11 2.928 . S
La1 O23 2.482 1_554 S
La1 O25 2.503 1_455 S
La1 O26 2.521 . S
La1 O27 2.628 1_554 S
La1 O28 2.554 . S
La1 O29 2.757 1_455 S
La1 O30 2.470 . S
C2 La0 2.928 . S
C2 C3 1.503 . S
C2 O20 1.261 . S
C2 O21 1.243 1_556 S
C3 C2 1.503 . S
C3 C4 1.394 . S
C3 C8 1.373 1_556 S
C4 C3 1.394 . S
C4 C5 1.380 . S
C4 H32 0.930 . S
C5 C4 1.380 . S
C5 C6 1.376 . S
C5 H33 0.930 . S
C6 C5 1.376 . S
C6 C7 1.370 1_556 S
C7 C6 1.370 1_554 S
C7 C8 1.396 . S
C7 H34 0.929 . S
C8 C3 1.373 1_554 S
C8 C7 1.396 . S
C8 H35 0.929 . S
C9 O22 1.237 1_455 S
C9 O23 1.293 . S
C10 O24 1.258 . S
C10 O25 1.256 1_556 S
C11 La1 2.928 . S
C11 C12 1.503 . S
C11 O26 1.261 . S
C11 O27 1.243 1_554 S
C12 C11 1.503 . S
C12 C13 1.394 . S
C12 C17 1.373 1_554 S
C13 C12 1.394 . S
C13 C14 1.380 . S
C13 H36 0.930 . S
C14 C13 1.380 . S
C14 C15 1.376 . S
C14 H37 0.930 . S
C15 C14 1.376 . S
C15 C16 1.370 1_554 S
C16 C15 1.370 1_556 S
C16 C17 1.396 . S
C16 H38 0.929 . S
C17 C12 1.373 1_556 S
C17 C16 1.396 . S
C17 H39 0.929 . S
C18 O28 1.240 . S
C18 O29 1.289 1_455 S
C19 O30 1.258 . S
C19 O31 1.256 1_554 S
O20 La0 2.521 . S
O20 C2 1.261 . S
O21 La0 2.628 1_554 S
O21 C2 1.243 1_554 S
O22 La0 2.554 . S
O22 C9 1.237 1_655 S
O23 La0 2.757 1_455 S
O23 La1 2.482 1_556 S
O23 C9 1.293 . S
O24 La0 2.470 . S
O24 C10 1.258 . S
O25 La1 2.503 1_655 S
O25 C10 1.256 1_554 S
O26 La1 2.521 . S
O26 C11 1.261 . S
O27 La1 2.628 1_556 S
O27 C11 1.243 1_556 S
O28 La1 2.554 . S
O28 C18 1.240 . S
O29 La0 2.482 1_554 S
O29 La1 2.757 1_655 S
O29 C18 1.289 1_655 S
O30 La1 2.470 . S
O30 C19 1.258 . S
O31 La0 2.503 1_455 S
O31 C19 1.256 1_556 S
H32 C4 0.930 . S
H33 C5 0.930 . S
H34 C7 0.929 . S
H35 C8 0.929 . S
H36 C13 0.930 . S
H37 C14 0.930 . S
H38 C16 0.929 . S
H39 C17 0.929 . S
La40 C42 2.927 1_554 S
La40 O60 2.521 . S
La40 O61 2.628 1_554 S
La40 O62 2.554 . S
La40 O63 2.757 1_545 S
La40 O64 2.470 . S
La40 O69 2.482 1_554 S
La40 O71 2.503 1_544 S
La41 C51 2.927 1_556 S
La41 O63 2.482 1_556 S
La41 O65 2.503 1_566 S
La41 O66 2.521 . S
La41 O67 2.628 1_556 S
La41 O68 2.554 . S
La41 O69 2.757 1_565 S
La41 O70 2.470 . S
C42 La40 2.927 1_556 S
C42 C43 1.503 . S
C42 O60 1.256 1_556 S
C42 O61 1.247 . S
C43 C42 1.503 . S
C43 C44 1.394 1_556 S
C43 C48 1.373 . S
C44 C43 1.394 1_554 S
C44 C45 1.380 . S
C44 H72 0.930 . S
C45 C44 1.380 . S
C45 C46 1.376 1_554 S
C45 H73 0.930 . S
C46 C45 1.376 1_556 S
C46 C47 1.370 . S
C47 C46 1.370 . S
C47 C48 1.396 . S
C47 H74 0.929 . S
C48 C43 1.373 . S
C48 C47 1.396 . S
C48 H75 0.929 . S
C49 O62 1.240 . S
C49 O63 1.289 1_545 S
C50 O64 1.258 . S
C50 O65 1.256 . S
C51 La41 2.927 1_554 S
C51 C52 1.504 . S
C51 O66 1.253 1_554 S
C51 O67 1.250 . S
C52 C51 1.504 . S
C52 C53 1.394 1_554 S
C52 C57 1.373 . S
C53 C52 1.394 1_556 S
C53 C54 1.380 . S
C53 H76 0.930 . S
C54 C53 1.380 . S
C54 C55 1.376 1_556 S
C54 H77 0.930 . S
C55 C54 1.376 1_554 S
C55 C56 1.370 . S
C56 C55 1.370 . S
C56 C57 1.396 . S
C56 H78 0.929 . S
C57 C52 1.373 . S
C57 C56 1.396 . S
C57 H79 0.929 . S
C58 O68 1.240 . S
C58 O69 1.289 1_565 S
C59 O70 1.258 . S
C59 O71 1.256 . S
O60 La40 2.521 . S
O60 C42 1.256 1_554 S
O61 La40 2.628 1_556 S
O61 C42 1.247 . S
O62 La40 2.554 . S
O62 C49 1.240 . S
O63 La40 2.757 1_565 S
O63 La41 2.482 1_554 S
O63 C49 1.289 1_565 S
O64 La40 2.470 . S
O64 C50 1.258 . S
O65 La41 2.503 1_544 S
O65 C50 1.256 . S
O66 La41 2.521 . S
O66 C51 1.253 1_556 S
O67 La41 2.628 1_554 S
O67 C51 1.250 . S
O68 La41 2.554 . S
O68 C58 1.240 . S
O69 La40 2.482 1_556 S
O69 La41 2.757 1_545 S
O69 C58 1.289 1_545 S
O70 La41 2.470 . S
O70 C59 1.258 . S
O71 La40 2.503 1_566 S
O71 C59 1.256 . S
H72 C44 0.930 . S
H73 C45 0.930 . S
H74 C47 0.929 . S
H75 C48 0.929 . S
H76 C53 0.930 . S
H77 C54 0.930 . S
H78 C56 0.929 . S
H79 C57 0.929 . S
La80 C82 2.928 . S
La80 O100 2.521 . S
La80 O101 2.628 1_554 S
La80 O102 2.554 . S
La80 O103 2.757 . S
La80 O104 2.470 . S
La80 O109 2.482 1_554 S
La80 O111 2.503 . S
La81 C91 2.928 . S
La81 O103 2.482 1_556 S
La81 O105 2.503 . S
La81 O106 2.521 . S
La81 O107 2.628 1_556 S
La81 O108 2.554 . S
La81 O109 2.757 . S
La81 O110 2.470 . S
C82 La80 2.928 . S
C82 C83 1.503 . S
C82 O100 1.261 . S
C82 O101 1.243 1_554 S
C83 C82 1.503 . S
C83 C84 1.394 . S
C83 C88 1.373 1_554 S
C84 C83 1.394 . S
C84 C85 1.380 . S
C84 H112 0.930 . S
C85 C84 1.380 . S
C85 C86 1.383 . S
C85 H113 0.930 . S
C86 C85 1.383 . S
C86 C87 1.364 1_554 S
C87 C86 1.364 1_556 S
C87 C88 1.396 . S
C87 H114 0.929 . S
C88 C83 1.373 1_556 S
C88 C87 1.396 . S
C88 H115 0.929 . S
C89 O102 1.240 . S
C89 O103 1.289 . S
C90 O104 1.258 . S
C90 O105 1.256 1_554 S
C91 La81 2.928 . S
C91 C92 1.503 . S
C91 O106 1.261 . S
C91 O107 1.243 1_556 S
C92 C91 1.503 . S
C92 C93 1.394 . S
C92 C97 1.373 1_556 S
C93 C92 1.394 . S
C93 C94 1.380 . S
C93 H116 0.930 . S
C94 C93 1.380 . S
C94 C95 1.379 . S
C94 H117 0.930 . S
C95 C94 1.379 . S
C95 C96 1.367 1_556 S
C96 C95 1.367 1_554 S
C96 C97 1.396 . S
C96 H118 0.929 . S
C97 C92 1.373 1_554 S
C97 C96 1.396 . S
C97 H119 0.929 . S
C98 O108 1.240 . S
C98 O109 1.289 . S
C99 O110 1.258 . S
C99 O111 1.256 1_556 S
O100 La80 2.521 . S
O100 C82 1.261 . S
O101 La80 2.628 1_556 S
O101 C82 1.243 1_556 S
O102 La80 2.554 . S
O102 C89 1.240 . S
O103 La80 2.757 . S
O103 La81 2.482 1_554 S
O103 C89 1.289 . S
O104 La80 2.470 . S
O104 C90 1.258 . S
O105 La81 2.503 . S
O105 C90 1.256 1_556 S
O106 La81 2.521 . S
O106 C91 1.261 . S
O107 La81 2.628 1_554 S
O107 C91 1.243 1_554 S
O108 La81 2.554 . S
O108 C98 1.240 . S
O109 La80 2.482 1_556 S
O109 La81 2.757 . S
O109 C98 1.289 . S
O110 La81 2.470 . S
O110 C99 1.258 . S
O111 La80 2.503 . S
O111 C99 1.256 1_554 S
H112 C84 0.930 . S
H113 C85 0.930 . S
H114 C87 0.929 . S
H115 C88 0.929 . S
H116 C93 0.930 . S
H117 C94 0.930 . S
H118 C96 0.929 . S
H119 C97 0.929 . S
H120 C138 0.961 . S
H121 C140 0.951 . S
H122 C142 0.950 . S
H123 C143 0.950 . S
H124 C145 0.950 . S
H125 C148 0.950 . S
H126 C149 0.950 . S
H127 C151 0.950 . S
H128 C152 0.950 . S
H129 C153 0.951 . S
H130 C155 0.951 . S
H131 C157 0.950 . S
H132 C158 0.950 . S
H133 C160 0.950 . S
H134 C163 0.950 . S
H135 C164 0.950 . S
H136 C166 0.950 . S
H137 C167 0.950 . S
C138 H120 0.961 . S
C138 C139 1.356 1_655 S
C138 C140 1.389 . S
C139 C138 1.356 1_455 S
C139 C143 1.385 . S
C140 H121 0.951 . S
C140 C138 1.389 . S
C140 C141 1.366 1_655 S
C141 C140 1.366 1_455 S
C141 C142 1.413 . S
C141 C144 1.499 1_455 S
C142 H122 0.950 . S
C142 C141 1.413 . S
C142 C143 1.374 . S
C143 H123 0.950 . S
C143 C139 1.385 . S
C143 C142 1.374 . S
C144 C141 1.499 1_655 S
C144 C145 1.364 1_655 S
C144 C146 1.398 . S
C145 H124 0.950 . S
C145 C144 1.364 1_455 S
C145 C161 1.377 . S
C146 C144 1.398 . S
C146 C147 1.524 . S
C146 C160 1.377 . S
C147 C146 1.524 . S
C147 C148 1.397 . S
C147 C152 1.363 . S
C148 H125 0.950 . S
C148 C147 1.397 . S
C148 C149 1.334 . S
C149 H126 0.950 . S
C149 C148 1.334 . S
C149 C150 1.287 . S
C150 C149 1.287 . S
C150 C151 1.524 . S
C150 H169 0.913 . S
C151 H127 0.950 . S
C151 C150 1.524 . S
C151 C152 1.415 . S
C152 H128 0.950 . S
C152 C147 1.363 . S
C152 C151 1.415 . S
C153 H129 0.951 . S
C153 C154 1.360 1_455 S
C153 C155 1.388 . S
C154 C153 1.360 1_655 S
C154 C158 1.390 . S
C155 H130 0.951 . S
C155 C153 1.388 . S
C155 C156 1.366 . S
C156 C155 1.366 . S
C156 C157 1.414 1_455 S
C156 C159 1.499 . S
C157 H131 0.950 . S
C157 C156 1.414 1_655 S
C157 C158 1.374 . S
C158 H132 0.950 . S
C158 C154 1.390 . S
C158 C157 1.374 . S
C159 C156 1.499 . S
C159 C160 1.373 1_455 S
C159 C161 1.389 . S
C160 H133 0.950 . S
C160 C146 1.377 . S
C160 C159 1.373 1_655 S
C161 C145 1.377 . S
C161 C159 1.389 . S
C161 C162 1.524 . S
C162 C161 1.524 . S
C162 C163 1.397 . S
C162 C167 1.363 . S
C163 H134 0.950 . S
C163 C162 1.397 . S
C163 C164 1.334 . S
C164 H135 0.950 . S
C164 C163 1.334 . S
C164 C165 1.287 . S
C165 C164 1.287 . S
C165 C166 1.524 . S
C165 H168 0.999 . S
C166 H136 0.950 . S
C166 C165 1.524 . S
C166 C167 1.415 . S
C167 H137 0.950 . S
C167 C162 1.363 . S
C167 C166 1.415 . S
H168 C165 0.999 . S
H169 C150 0.913 . S
H170 C188 0.951 . S
H171 C190 0.951 . S
H172 C192 0.950 . S
H173 C193 0.950 . S
H174 C195 0.950 . S
H175 C198 0.950 . S
H176 C199 0.950 . S
H177 C201 0.950 . S
H178 C202 0.950 . S
H179 C203 0.951 . S
H180 C205 0.951 . S
H181 C207 0.950 . S
H182 C208 0.950 . S
H183 C210 0.950 . S
H184 C213 0.950 . S
H185 C214 0.950 . S
H186 C216 0.950 . S
H187 C217 0.950 . S
C188 H170 0.951 . S
C188 C189 1.345 1_565 S
C188 C190 1.388 . S
C189 C188 1.345 1_545 S
C189 C193 1.403 . S
C190 H171 0.951 . S
C190 C188 1.388 . S
C190 C191 1.379 . S
C191 C190 1.379 . S
C191 C192 1.398 1_565 S
C191 C194 1.500 . S
C192 H172 0.950 . S
C192 C191 1.398 1_545 S
C192 C193 1.374 . S
C193 H173 0.950 . S
C193 C189 1.403 . S
C193 C192 1.374 . S
C194 C191 1.500 . S
C194 C195 1.375 1_565 S
C194 C196 1.387 . S
C195 H174 0.950 . S
C195 C194 1.375 1_545 S
C195 C211 1.377 . S
C196 C194 1.387 . S
C196 C197 1.524 . S
C196 C210 1.377 . S
C197 C196 1.524 . S
C197 C198 1.397 . S
C197 C202 1.363 . S
C198 H175 0.950 . S
C198 C197 1.397 . S
C198 C199 1.334 . S
C199 H176 0.950 . S
C199 C198 1.334 . S
C199 C200 1.287 . S
C200 C199 1.287 . S
C200 C201 1.524 . S
C200 H219 0.913 . S
C201 H177 0.950 . S
C201 C200 1.524 . S
C201 C202 1.415 . S
C202 H178 0.950 . S
C202 C197 1.363 . S
C202 C201 1.415 . S
C203 H179 0.951 . S
C203 C204 1.362 1_545 S
C203 C205 1.388 . S
C204 C203 1.362 1_565 S
C204 C208 1.388 . S
C205 H180 0.951 . S
C205 C203 1.388 . S
C205 C206 1.395 . S
C206 C205 1.395 . S
C206 C207 1.381 1_545 S
C206 C209 1.500 . S
C207 H181 0.950 . S
C207 C206 1.381 1_565 S
C207 C208 1.374 . S
C208 H182 0.950 . S
C208 C204 1.388 . S
C208 C207 1.374 . S
C209 C206 1.500 . S
C209 C210 1.359 1_545 S
C209 C211 1.405 . S
C210 H183 0.950 . S
C210 C196 1.377 . S
C210 C209 1.359 1_565 S
C211 C195 1.377 . S
C211 C209 1.405 . S
C211 C212 1.524 . S
C212 C211 1.524 . S
C212 C213 1.397 . S
C212 C217 1.363 . S
C213 H184 0.950 . S
C213 C212 1.397 . S
C213 C214 1.334 . S
C214 H185 0.950 . S
C214 C213 1.334 . S
C214 C215 1.287 . S
C215 C214 1.287 . S
C215 C216 1.524 . S
C215 H218 0.999 . S
C216 H186 0.950 . S
C216 C215 1.524 . S
C216 C217 1.415 . S
C217 H187 0.950 . S
C217 C212 1.363 . S
C217 C216 1.415 . S
H218 C215 0.999 . S
H219 C200 0.913 . S
H220 C238 0.951 . S
H221 C240 0.951 . S
H222 C242 0.950 . S
H223 C243 0.950 . S
H224 C245 0.950 . S
H225 C248 0.950 . S
H226 C249 0.950 . S
H227 C251 0.950 . S
H228 C252 0.950 . S
H229 C253 0.951 . S
H230 C255 0.951 . S
H231 C257 0.950 . S
H232 C258 0.950 . S
H233 C260 0.950 . S
H234 C263 0.950 . S
H235 C264 0.950 . S
H236 C266 0.950 . S
H237 C267 0.950 . S
C238 H220 0.951 . S
C238 C239 1.366 . S
C238 C240 1.388 . S
C239 C238 1.366 . S
C239 C243 1.385 . S
C240 H221 0.951 . S
C240 C238 1.388 . S
C240 C241 1.366 . S
C241 C240 1.366 . S
C241 C242 1.414 . S
C241 C244 1.499 . S
C242 H222 0.950 . S
C242 C241 1.414 . S
C242 C243 1.374 . S
C243 H223 0.950 . S
C243 C239 1.385 . S
C243 C242 1.374 . S
C244 C241 1.499 . S
C244 C245 1.373 . S
C244 C246 1.389 . S
C245 H224 0.950 . S
C245 C244 1.373 . S
C245 C261 1.377 . S
C246 C244 1.389 . S
C246 C247 1.524 . S
C246 C260 1.377 . S
C247 C246 1.524 . S
C247 C248 1.397 . S
C247 C252 1.363 . S
C248 H225 0.950 . S
C248 C247 1.397 . S
C248 C249 1.334 . S
C249 H226 0.950 . S
C249 C248 1.334 . S
C249 C250 1.287 . S
C250 C249 1.287 . S
C250 C251 1.524 . S
C250 H269 0.913 . S
C251 H227 0.950 . S
C251 C250 1.524 . S
C251 C252 1.415 . S
C252 H228 0.950 . S
C252 C247 1.363 . S
C252 C251 1.415 . S
C253 H229 0.951 . S
C253 C254 1.366 . S
C253 C255 1.388 . S
C254 C253 1.366 . S
C254 C258 1.385 . S
C255 H230 0.951 . S
C255 C253 1.388 . S
C255 C256 1.366 . S
C256 C255 1.366 . S
C256 C257 1.414 . S
C256 C259 1.499 . S
C257 H231 0.950 . S
C257 C256 1.414 . S
C257 C258 1.374 . S
C258 H232 0.950 . S
C258 C254 1.385 . S
C258 C257 1.374 . S
C259 C256 1.499 . S
C259 C260 1.373 . S
C259 C261 1.389 . S
C260 H233 0.950 . S
C260 C246 1.377 . S
C260 C259 1.373 . S
C261 C245 1.377 . S
C261 C259 1.389 . S
C261 C262 1.524 . S
C262 C261 1.524 . S
C262 C263 1.397 . S
C262 C267 1.363 . S
C263 H234 0.950 . S
C263 C262 1.397 . S
C263 C264 1.334 . S
C264 H235 0.950 . S
C264 C263 1.334 . S
C264 C265 1.287 . S
C265 C264 1.287 . S
C265 C266 1.524 . S
C265 H268 0.999 . S
C266 H236 0.950 . S
C266 C265 1.524 . S
C266 C267 1.415 . S
C267 H237 0.950 . S
C267 C262 1.363 . S
C267 C266 1.415 . S
H268 C265 0.999 . S
H269 C250 0.913 . S
H270 C288 0.951 . S
H271 C290 0.951 . S
H272 C292 0.950 . S
H273 C293 0.950 . S
H274 C295 0.950 . S
H275 C298 0.950 . S
H276 C299 0.950 . S
H277 C301 0.950 . S
H278 C302 0.950 . S
H279 C303 0.951 . S
H280 C305 0.951 . S
H281 C307 0.950 . S
H282 C308 0.950 . S
H283 C310 0.950 . S
H284 C313 0.950 . S
H285 C314 0.950 . S
H286 C316 0.950 . S
H287 C317 0.950 . S
C288 H270 0.951 . S
C288 C289 1.366 . S
C288 C290 1.388 . S
C289 C288 1.366 . S
C289 C293 1.385 1_556 S
C290 H271 0.951 . S
C290 C288 1.388 . S
C290 C291 1.366 . S
C291 C290 1.366 . S
C291 C292 1.414 1_556 S
C291 C294 1.499 . S
C292 H272 0.950 . S
C292 C291 1.414 1_554 S
C292 C293 1.374 . S
C293 H273 0.950 . S
C293 C289 1.385 1_554 S
C293 C292 1.374 . S
C294 C291 1.499 . S
C294 C295 1.378 . S
C294 C296 1.386 1_556 S
C295 H274 0.950 . S
C295 C294 1.378 . S
C295 C311 1.377 . S
C296 C294 1.386 1_554 S
C296 C297 1.524 . S
C296 C310 1.377 . S
C297 C296 1.524 . S
C297 C298 1.397 . S
C297 C302 1.363 . S
C298 H275 0.950 . S
C298 C297 1.397 . S
C298 C299 1.334 . S
C299 H276 0.950 . S
C299 C298 1.334 . S
C299 C300 1.287 . S
C300 C299 1.287 . S
C300 C301 1.524 . S
C300 H319 0.913 . S
C301 H277 0.950 . S
C301 C300 1.524 . S
C301 C302 1.415 . S
C302 H278 0.950 . S
C302 C297 1.363 . S
C302 C301 1.415 . S
C303 H279 0.951 . S
C303 C304 1.366 1_554 S
C303 C305 1.388 . S
C304 C303 1.366 1_556 S
C304 C308 1.385 . S
C305 H280 0.951 . S
C305 C303 1.388 . S
C305 C306 1.366 1_554 S
C306 C305 1.366 1_556 S
C306 C307 1.414 . S
C306 C309 1.499 . S
C307 H281 0.950 . S
C307 C306 1.414 . S
C307 C308 1.374 . S
C308 H282 0.950 . S
C308 C304 1.385 . S
C308 C307 1.374 . S
C309 C306 1.499 . S
C309 C310 1.373 1_556 S
C309 C311 1.389 . S
C310 H283 0.950 . S
C310 C296 1.377 . S
C310 C309 1.373 1_554 S
C311 C295 1.377 . S
C311 C309 1.389 . S
C311 C312 1.524 . S
C312 C311 1.524 . S
C312 C313 1.397 . S
C312 C317 1.363 . S
C313 H284 0.950 . S
C313 C312 1.397 . S
C313 C314 1.334 . S
C314 H285 0.950 . S
C314 C313 1.334 . S
C314 C315 1.287 . S
C315 C314 1.287 . S
C315 C316 1.524 . S
C315 H318 0.999 . S
C316 H286 0.950 . S
C316 C315 1.524 . S
C316 C317 1.415 . S
C317 H287 0.950 . S
C317 C312 1.363 . S
C317 C316 1.415 . S
H318 C315 0.999 . S
H319 C300 0.913 . S
H320 C338 0.951 . S
H321 C340 0.951 . S
H322 C342 0.950 . S
H323 C343 0.950 . S
H324 C345 0.950 . S
H325 C348 0.950 . S
H326 C349 0.950 . S
H327 C351 0.950 . S
H328 C352 0.950 1_554 S
H329 C353 0.951 . S
H330 C355 0.951 . S
H331 C357 0.950 . S
H332 C358 0.950 . S
H333 C360 0.950 . S
H334 C363 0.950 . S
H335 C364 0.950 . S
H336 C366 0.950 . S
H337 C367 0.950 1_556 S
C338 H320 0.951 . S
C338 C339 1.366 1_554 S
C338 C340 1.388 . S
C339 C338 1.366 1_556 S
C339 C343 1.385 . S
C340 H321 0.951 . S
C340 C338 1.388 . S
C340 C341 1.366 1_554 S
C341 C340 1.366 1_556 S
C341 C342 1.414 . S
C341 C344 1.499 . S
C342 H322 0.950 . S
C342 C341 1.414 . S
C342 C343 1.374 . S
C343 H323 0.950 . S
C343 C339 1.385 . S
C343 C342 1.374 . S
C344 C341 1.499 . S
C344 C345 1.373 1_556 S
C344 C346 1.389 . S
C345 H324 0.950 . S
C345 C344 1.373 1_554 S
C345 C361 1.377 . S
C346 C344 1.389 . S
C346 C347 1.524 . S
C346 C360 1.377 . S
C347 C346 1.524 . S
C347 C348 1.397 . S
C347 C352 1.363 . S
C348 H325 0.950 . S
C348 C347 1.397 . S
C348 C349 1.334 . S
C349 H326 0.950 . S
C349 C348 1.334 . S
C349 C350 1.287 . S
C350 C349 1.287 . S
C350 C351 1.524 . S
C350 H369 0.913 . S
C351 H327 0.950 . S
C351 C350 1.524 . S
C351 C352 1.415 . S
C352 H328 0.950 1_556 S
C352 C347 1.363 . S
C352 C351 1.415 . S
C353 H329 0.951 . S
C353 C354 1.366 . S
C353 C355 1.388 . S
C354 C353 1.366 . S
C354 C358 1.385 1_556 S
C355 H330 0.951 . S
C355 C353 1.388 . S
C355 C356 1.357 1_556 S
C356 C355 1.357 1_554 S
C356 C357 1.420 . S
C356 C359 1.500 . S
C357 H331 0.950 . S
C357 C356 1.420 . S
C357 C358 1.374 . S
C358 H332 0.950 . S
C358 C354 1.385 1_554 S
C358 C357 1.374 . S
C359 C356 1.500 . S
C359 C360 1.373 1_554 S
C359 C361 1.389 . S
C360 H333 0.950 . S
C360 C346 1.377 . S
C360 C359 1.373 1_556 S
C361 C345 1.377 . S
C361 C359 1.389 . S
C361 C362 1.524 . S
C362 C361 1.524 . S
C362 C363 1.397 . S
C362 C367 1.363 . S
C363 H334 0.950 . S
C363 C362 1.397 . S
C363 C364 1.334 . S
C364 H335 0.950 . S
C364 C363 1.334 . S
C364 C365 1.287 . S
C365 C364 1.287 . S
C365 C366 1.524 . S
C365 H368 0.999 . S
C366 H336 0.950 . S
C366 C365 1.524 . S
C366 C367 1.415 . S
C367 H337 0.950 1_554 S
C367 C362 1.363 . S
C367 C366 1.415 . S
H368 C365 0.999 . S
H369 C350 0.913 . S
H370 C388 0.951 . S
H371 C390 0.951 . S
H372 C392 0.950 . S
H373 C393 0.950 . S
H374 C395 0.950 . S
H375 C398 0.950 . S
H376 C399 0.950 . S
H377 C401 0.950 . S
H378 C402 0.950 1_556 S
H379 C403 0.951 . S
H380 C405 0.951 . S
H381 C407 0.950 . S
H382 C408 0.950 . S
H383 C410 0.950 . S
H384 C413 0.950 . S
H385 C414 0.950 . S
H386 C416 0.950 . S
H387 C417 0.950 . S
C388 H370 0.951 . S
C388 C389 1.366 . S
C388 C390 1.388 . S
C389 C388 1.366 . S
C389 C393 1.385 1_556 S
C390 H371 0.951 . S
C390 C388 1.388 . S
C390 C391 1.366 1_556 S
C391 C390 1.366 1_554 S
C391 C392 1.414 . S
C391 C394 1.499 . S
C392 H372 0.950 . S
C392 C391 1.414 . S
C392 C393 1.374 . S
C393 H373 0.950 . S
C393 C389 1.385 1_554 S
C393 C392 1.374 . S
C394 C391 1.499 . S
C394 C395 1.373 1_554 S
C394 C396 1.389 . S
C395 H374 0.950 . S
C395 C394 1.373 1_556 S
C395 C411 1.377 . S
C396 C394 1.389 . S
C396 C397 1.524 . S
C396 C410 1.377 . S
C397 C396 1.524 . S
C397 C398 1.397 . S
C397 C402 1.363 . S
C398 H375 0.950 . S
C398 C397 1.397 . S
C398 C399 1.334 . S
C399 H376 0.950 . S
C399 C398 1.334 . S
C399 C400 1.287 . S
C400 C399 1.287 . S
C400 C401 1.524 . S
C400 H419 0.913 . S
C401 H377 0.950 . S
C401 C400 1.524 . S
C401 C402 1.415 . S
C402 H378 0.950 1_554 S
C402 C397 1.363 . S
C402 C401 1.415 . S
C403 H379 0.951 . S
C403 C404 1.364 1_554 S
C403 C405 1.388 . S
C404 C403 1.364 1_556 S
C404 C408 1.387 . S
C405 H380 0.951 . S
C405 C403 1.388 . S
C405 C406 1.366 1_554 S
C406 C405 1.366 1_556 S
C406 C407 1.414 . S
C406 C409 1.499 . S
C407 H381 0.950 . S
C407 C406 1.414 . S
C407 C408 1.374 . S
C408 H382 0.950 . S
C408 C404 1.387 . S
C408 C407 1.374 . S
C409 C406 1.499 . S
C409 C410 1.373 1_556 S
C409 C411 1.389 . S
C410 H383 0.950 . S
C410 C396 1.377 . S
C410 C409 1.373 1_554 S
C411 C395 1.377 . S
C411 C409 1.389 . S
C411 C412 1.524 . S
C412 C411 1.524 . S
C412 C413 1.397 . S
C412 C417 1.363 . S
C413 H384 0.950 . S
C413 C412 1.397 . S
C413 C414 1.334 . S
C414 H385 0.950 . S
C414 C413 1.334 . S
C414 C415 1.287 . S
C415 C414 1.287 . S
C415 C416 1.524 . S
C415 H418 0.999 . S
C416 H386 0.950 . S
C416 C415 1.524 . S
C416 C417 1.415 . S
C417 H387 0.950 . S
C417 C412 1.363 . S
C417 C416 1.415 . S
H418 C415 0.999 . S
H419 C400 0.913 . S
H420 C438 0.951 . S
H421 C440 0.951 . S
H422 C442 0.950 . S
H423 C443 0.950 . S
H424 C445 0.950 . S
H425 C448 0.950 . S
H426 C449 0.950 . S
H427 C451 0.950 . S
H428 C452 0.950 . S
H429 C453 0.951 . S
H430 C455 0.951 . S
H431 C457 0.950 . S
H432 C458 0.950 . S
H433 C460 0.951 1_556 S
H434 C463 0.950 . S
H435 C464 0.950 . S
H436 C466 0.950 1_556 S
H437 C467 0.950 . S
C438 H420 0.951 . S
C438 C439 1.366 . S
C438 C440 1.388 . S
C439 C438 1.366 . S
C439 C443 1.385 1_554 S
C440 H421 0.951 . S
C440 C438 1.388 . S
C440 C441 1.366 . S
C441 C440 1.366 . S
C441 C442 1.414 1_554 S
C441 C444 1.499 . S
C442 H422 0.950 . S
C442 C441 1.414 1_556 S
C442 C443 1.374 . S
C443 H423 0.950 . S
C443 C439 1.385 1_556 S
C443 C442 1.374 . S
C444 C441 1.499 . S
C444 C445 1.374 . S
C444 C446 1.390 1_554 S
C445 H424 0.950 . S
C445 C444 1.374 . S
C445 C461 1.377 . S
C446 C444 1.390 1_556 S
C446 C447 1.524 . S
C446 C460 1.375 1_556 S
C447 C446 1.524 . S
C447 C448 1.397 . S
C447 C452 1.363 1_556 S
C448 H425 0.950 . S
C448 C447 1.397 . S
C448 C449 1.334 . S
C449 H426 0.950 . S
C449 C448 1.334 . S
C449 C450 1.287 . S
C450 C449 1.287 . S
C450 C451 1.524 1_556 S
C450 H469 0.913 . S
C451 H427 0.950 . S
C451 C450 1.524 1_554 S
C451 C452 1.415 . S
C452 H428 0.950 . S
C452 C447 1.363 1_554 S
C452 C451 1.415 . S
C453 H429 0.951 . S
C453 C454 1.366 1_556 S
C453 C455 1.388 . S
C454 C453 1.366 1_554 S
C454 C458 1.385 . S
C455 H430 0.951 . S
C455 C453 1.388 . S
C455 C456 1.366 1_556 S
C456 C455 1.366 1_554 S
C456 C457 1.414 . S
C456 C459 1.499 . S
C457 H431 0.950 . S
C457 C456 1.414 . S
C457 C458 1.374 . S
C458 H432 0.950 . S
C458 C454 1.385 . S
C458 C457 1.374 . S
C459 C456 1.499 . S
C459 C460 1.374 . S
C459 C461 1.389 . S
C460 H433 0.951 1_554 S
C460 C446 1.375 1_554 S
C460 C459 1.374 . S
C461 C445 1.377 . S
C461 C459 1.389 . S
C461 C462 1.524 . S
C462 C461 1.524 . S
C462 C463 1.397 . S
C462 C467 1.363 1_554 S
C463 H434 0.950 . S
C463 C462 1.397 . S
C463 C464 1.334 . S
C464 H435 0.950 . S
C464 C463 1.334 . S
C464 C465 1.287 . S
C465 C464 1.287 . S
C465 C466 1.524 . S
C465 H468 0.999 . S
C466 H436 0.950 1_554 S
C466 C465 1.524 . S
C466 C467 1.415 1_554 S
C467 H437 0.950 . S
C467 C462 1.363 1_556 S
C467 C466 1.415 1_556 S
H468 C465 0.999 . S
H469 C450 0.913 . S
H470 C488 0.951 . S
H471 C490 0.951 . S
H472 C492 0.950 . S
H473 C493 0.950 . S
H474 C495 0.950 . S
H475 C498 0.950 . S
H476 C499 0.950 . S
H477 C501 0.950 . S
H478 C502 0.950 . S
H479 C503 0.951 . S
H480 C505 0.951 . S
H481 C507 0.950 . S
H482 C508 0.950 . S
H483 C510 0.950 . S
H484 C513 0.950 . S
H485 C514 0.950 . S
H486 C516 0.950 . S
H487 C517 0.950 . S
C488 H470 0.951 . S
C488 C489 1.366 1_556 S
C488 C490 1.388 . S
C489 C488 1.366 1_554 S
C489 C493 1.385 . S
C490 H471 0.951 . S
C490 C488 1.388 . S
C490 C491 1.370 . S
C491 C490 1.370 . S
C491 C492 1.408 1_556 S
C491 C494 1.500 1_556 S
C492 H472 0.950 . S
C492 C491 1.408 1_554 S
C492 C493 1.374 . S
C493 H473 0.950 . S
C493 C489 1.385 . S
C493 C492 1.374 . S
C494 C491 1.500 1_554 S
C494 C495 1.372 . S
C494 C496 1.390 1_554 S
C495 H474 0.950 . S
C495 C494 1.372 . S
C495 C511 1.377 . S
C496 C494 1.390 1_556 S
C496 C497 1.524 . S
C496 C510 1.377 . S
C497 C496 1.524 . S
C497 C498 1.397 . S
C497 C502 1.363 . S
C498 H475 0.950 . S
C498 C497 1.397 . S
C498 C499 1.334 . S
C499 H476 0.950 . S
C499 C498 1.334 . S
C499 C500 1.287 . S
C500 C499 1.287 . S
C500 C501 1.524 . S
C500 H519 0.913 . S
C501 H477 0.950 . S
C501 C500 1.524 . S
C501 C502 1.415 . S
C502 H478 0.950 . S
C502 C497 1.363 . S
C502 C501 1.415 . S
C503 H479 0.951 . S
C503 C504 1.366 . S
C503 C505 1.388 . S
C504 C503 1.366 . S
C504 C508 1.385 1_554 S
C505 H480 0.951 . S
C505 C503 1.388 . S
C505 C506 1.366 . S
C506 C505 1.366 . S
C506 C507 1.414 1_554 S
C506 C509 1.499 . S
C507 H481 0.950 . S
C507 C506 1.414 1_556 S
C507 C508 1.374 . S
C508 H482 0.950 . S
C508 C504 1.385 1_556 S
C508 C507 1.374 . S
C509 C506 1.499 . S
C509 C510 1.373 1_554 S
C509 C511 1.389 . S
C510 H483 0.950 . S
C510 C496 1.377 . S
C510 C509 1.373 1_556 S
C511 C495 1.377 . S
C511 C509 1.389 . S
C511 C512 1.524 . S
C512 C511 1.524 . S
C512 C513 1.397 . S
C512 C517 1.363 . S
C513 H484 0.950 . S
C513 C512 1.397 . S
C513 C514 1.334 . S
C514 H485 0.950 . S
C514 C513 1.334 . S
C514 C515 1.287 . S
C515 C514 1.287 . S
C515 C516 1.524 . S
C515 H518 0.999 . S
C516 H486 0.950 . S
C516 C515 1.524 . S
C516 C517 1.415 . S
C517 H487 0.950 . S
C517 C512 1.363 . S
C517 C516 1.415 . S
H518 C515 0.999 . S
H519 C500 0.913 . S
H520 C538 0.951 . S
H521 C540 0.951 . S
H522 C542 0.950 . S
H523 C543 0.950 . S
H524 C545 0.950 . S
H525 C548 0.950 . S
H526 C549 0.950 . S
H527 C551 0.950 . S
H528 C552 0.950 . S
H529 C553 0.951 . S
H530 C555 0.951 . S
H531 C557 0.950 . S
H532 C558 0.950 . S
H533 C560 0.950 . S
H534 C563 0.950 . S
H535 C564 0.950 . S
H536 C566 0.950 . S
H537 C567 0.950 . S
C538 H520 0.951 . S
C538 C539 1.369 . S
C538 C540 1.388 . S
C539 C538 1.369 . S
C539 C543 1.382 1_554 S
C540 H521 0.951 . S
C540 C538 1.388 . S
C540 C541 1.366 1_554 S
C541 C540 1.366 1_556 S
C541 C542 1.414 . S
C541 C544 1.499 . S
C542 H522 0.950 . S
C542 C541 1.414 . S
C542 C543 1.374 . S
C543 H523 0.950 . S
C543 C539 1.382 1_556 S
C543 C542 1.374 . S
C544 C541 1.499 . S
C544 C545 1.373 1_556 S
C544 C546 1.389 . S
C545 H524 0.950 . S
C545 C544 1.373 1_554 S
C545 C561 1.377 . S
C546 C544 1.389 . S
C546 C547 1.524 . S
C546 C560 1.377 . S
C547 C546 1.524 . S
C547 C548 1.397 . S
C547 C552 1.363 . S
C548 H525 0.950 . S
C548 C547 1.397 . S
C548 C549 1.334 . S
C549 H526 0.950 . S
C549 C548 1.334 . S
C549 C550 1.287 . S
C550 C549 1.287 . S
C550 C551 1.524 . S
C550 H569 0.913 . S
C551 H527 0.950 . S
C551 C550 1.524 . S
C551 C552 1.415 . S
C552 H528 0.950 . S
C552 C547 1.363 . S
C552 C551 1.415 . S
C553 H529 0.951 . S
C553 C554 1.366 1_556 S
C553 C555 1.388 . S
C554 C553 1.366 1_554 S
C554 C558 1.385 . S
C555 H530 0.951 . S
C555 C553 1.388 . S
C555 C556 1.366 1_556 S
C556 C555 1.366 1_554 S
C556 C557 1.414 . S
C556 C559 1.499 . S
C557 H531 0.950 . S
C557 C556 1.414 . S
C557 C558 1.374 . S
C558 H532 0.950 . S
C558 C554 1.385 . S
C558 C557 1.374 . S
C559 C556 1.499 . S
C559 C560 1.373 1_554 S
C559 C561 1.389 . S
C560 H533 0.950 . S
C560 C546 1.377 . S
C560 C559 1.373 1_556 S
C561 C545 1.377 . S
C561 C559 1.389 . S
C561 C562 1.524 . S
C562 C561 1.524 . S
C562 C563 1.397 . S
C562 C567 1.363 . S
C563 H534 0.950 . S
C563 C562 1.397 . S
C563 C564 1.334 . S
C564 H535 0.950 . S
C564 C563 1.334 . S
C564 C565 1.287 . S
C565 C564 1.287 . S
C565 C566 1.524 . S
C565 H568 0.999 . S
C566 H536 0.950 . S
C566 C565 1.524 . S
C566 C567 1.415 . S
C567 H537 0.950 . S
C567 C562 1.363 . S
C567 C566 1.415 . S
H568 C565 0.999 . S
H569 C550 0.913 . S
C139 C9 1.452 . S
C154 C18 1.452 1_655 S
C189 C49 1.451 . S
C204 C58 1.448 . S
C239 C98 1.453 . S
C254 C89 1.453 . S
C289 C19 2.601 1_556 S
C304 C90 2.566 1_556 S
C339 C46 0.847 . S
C354 C6 0.847 . S
C389 C59 1.910 . S
C404 C86 1.887 1_556 S
C439 C10 2.601 1_554 S
C454 C99 2.566 1_554 S
C489 C15 0.846 . S
C504 C55 0.847 . S
C539 C95 1.887 1_554 S
C554 C50 1.910 . S
