# Generated by pormake.
# Topology fnh, (5)-cn, num edge types: 1
# Building blocks:
#     Node 0, Type 0, BuildingBlock: XOMCOT_clean_sbu_1, # of connection points: 5
#     Node 1, Type 0, BuildingBlock: XOMCOT_clean_sbu_1, # of connection points: 5
#     Node 2, Type 0, BuildingBlock: XOMCOT_clean_sbu_1, # of connection points: 5
#     Node 3, Type 0, BuildingBlock: XOMCOT_clean_sbu_1, # of connection points: 5
#     Node 4, Type 0, BuildingBlock: XOMCOT_clean_sbu_1, # of connection points: 5
#     Node 5, Type 0, BuildingBlock: XOMCOT_clean_sbu_1, # of connection points: 5
#     Node 6, Type 0, BuildingBlock: XOMCOT_clean_sbu_1, # of connection points: 5
#     Node 7, Type 0, BuildingBlock: XOMCOT_clean_sbu_1, # of connection points: 5
#     Node 8, Type 0, BuildingBlock: XOMCOT_clean_sbu_1, # of connection points: 5
#     Node 9, Type 0, BuildingBlock: XOMCOT_clean_sbu_1, # of connection points: 5
#     Node 10, Type 0, BuildingBlock: XOMCOT_clean_sbu_1, # of connection points: 5
#     Node 11, Type 0, BuildingBlock: XOMCOT_clean_sbu_1, # of connection points: 5
#     Node 12, Type 0, BuildingBlock: XOMCOT_clean_sbu_1, # of connection points: 5
#     Node 13, Type 0, BuildingBlock: XOMCOT_clean_sbu_1, # of connection points: 5
#     Node 14, Type 0, BuildingBlock: XOMCOT_clean_sbu_1, # of connection points: 5
#     Node 15, Type 0, BuildingBlock: XOMCOT_clean_sbu_1, # of connection points: 5
#     Node 16, Type 0, BuildingBlock: XOMCOT_clean_sbu_1, # of connection points: 5
#     Node 17, Type 0, BuildingBlock: XOMCOT_clean_sbu_1, # of connection points: 5
#     Edge 18, Type (0, 0), BuildingBlock: ZUJKAS_clean_linker_0, # of connection points: 2
#     Edge 19, Type (0, 0), BuildingBlock: ZUJKAS_clean_linker_0, # of connection points: 2
#     Edge 20, Type (0, 0), BuildingBlock: ZUJKAS_clean_linker_0, # of connection points: 2
#     Edge 21, Type (0, 0), BuildingBlock: ZUJKAS_clean_linker_0, # of connection points: 2
#     Edge 22, Type (0, 0), BuildingBlock: ZUJKAS_clean_linker_0, # of connection points: 2
#     Edge 23, Type (0, 0), BuildingBlock: ZUJKAS_clean_linker_0, # of connection points: 2
#     Edge 24, Type (0, 0), BuildingBlock: ZUJKAS_clean_linker_0, # of connection points: 2
#     Edge 25, Type (0, 0), BuildingBlock: ZUJKAS_clean_linker_0, # of connection points: 2
#     Edge 26, Type (0, 0), BuildingBlock: ZUJKAS_clean_linker_0, # of connection points: 2
#     Edge 27, Type (0, 0), BuildingBlock: ZUJKAS_clean_linker_0, # of connection points: 2
#     Edge 28, Type (0, 0), BuildingBlock: ZUJKAS_clean_linker_0, # of connection points: 2
#     Edge 29, Type (0, 0), BuildingBlock: ZUJKAS_clean_linker_0, # of connection points: 2
#     Edge 30, Type (0, 0), BuildingBlock: ZUJKAS_clean_linker_0, # of connection points: 2
#     Edge 31, Type (0, 0), BuildingBlock: ZUJKAS_clean_linker_0, # of connection points: 2
#     Edge 32, Type (0, 0), BuildingBlock: ZUJKAS_clean_linker_0, # of connection points: 2
#     Edge 33, Type (0, 0), BuildingBlock: ZUJKAS_clean_linker_0, # of connection points: 2
#     Edge 34, Type (0, 0), BuildingBlock: ZUJKAS_clean_linker_0, # of connection points: 2
#     Edge 35, Type (0, 0), BuildingBlock: ZUJKAS_clean_linker_0, # of connection points: 2
#     Edge 36, Type (0, 0), BuildingBlock: ZUJKAS_clean_linker_0, # of connection points: 2
#     Edge 37, Type (0, 0), BuildingBlock: ZUJKAS_clean_linker_0, # of connection points: 2
#     Edge 38, Type (0, 0), BuildingBlock: ZUJKAS_clean_linker_0, # of connection points: 2
#     Edge 39, Type (0, 0), BuildingBlock: ZUJKAS_clean_linker_0, # of connection points: 2
#     Edge 40, Type (0, 0), BuildingBlock: ZUJKAS_clean_linker_0, # of connection points: 2
#     Edge 41, Type (0, 0), BuildingBlock: ZUJKAS_clean_linker_0, # of connection points: 2
#     Edge 42, Type (0, 0), BuildingBlock: ZUJKAS_clean_linker_0, # of connection points: 2
#     Edge 43, Type (0, 0), BuildingBlock: ZUJKAS_clean_linker_0, # of connection points: 2
#     Edge 44, Type (0, 0), BuildingBlock: ZUJKAS_clean_linker_0, # of connection points: 2
#     Edge 45, Type (0, 0), BuildingBlock: ZUJKAS_clean_linker_0, # of connection points: 2
#     Edge 46, Type (0, 0), BuildingBlock: ZUJKAS_clean_linker_0, # of connection points: 2
#     Edge 47, Type (0, 0), BuildingBlock: ZUJKAS_clean_linker_0, # of connection points: 2
#     Edge 48, Type (0, 0), BuildingBlock: ZUJKAS_clean_linker_0, # of connection points: 2
#     Edge 49, Type (0, 0), BuildingBlock: ZUJKAS_clean_linker_0, # of connection points: 2
#     Edge 50, Type (0, 0), BuildingBlock: ZUJKAS_clean_linker_0, # of connection points: 2
#     Edge 51, Type (0, 0), BuildingBlock: ZUJKAS_clean_linker_0, # of connection points: 2
#     Edge 52, Type (0, 0), BuildingBlock: ZUJKAS_clean_linker_0, # of connection points: 2
#     Edge 53, Type (0, 0), BuildingBlock: ZUJKAS_clean_linker_0, # of connection points: 2
#     Edge 54, Type (0, 0), BuildingBlock: ZUJKAS_clean_linker_0, # of connection points: 2
#     Edge 55, Type (0, 0), BuildingBlock: ZUJKAS_clean_linker_0, # of connection points: 2
#     Edge 56, Type (0, 0), BuildingBlock: ZUJKAS_clean_linker_0, # of connection points: 2
#     Edge 57, Type (0, 0), BuildingBlock: ZUJKAS_clean_linker_0, # of connection points: 2
#     Edge 58, Type (0, 0), BuildingBlock: ZUJKAS_clean_linker_0, # of connection points: 2
#     Edge 59, Type (0, 0), BuildingBlock: ZUJKAS_clean_linker_0, # of connection points: 2
#     Edge 60, Type (0, 0), BuildingBlock: ZUJKAS_clean_linker_0, # of connection points: 2
#     Edge 61, Type (0, 0), BuildingBlock: ZUJKAS_clean_linker_0, # of connection points: 2
#     Edge 62, Type (0, 0), BuildingBlock: ZUJKAS_clean_linker_0, # of connection points: 2
# Relax obj value: 0.147
# Max RMSD: 0.171
# Mean RMSD: 0.171
data_MOF--net-fnh--node1-XOMCOT_clean_sbu_1--edge1-ZUJKAS_clean_linker_0
_symmetry_space_group_name_H-M    P1
_symmetry_Int_Tables_number       1
_symmetry_cell_setting            triclinic
loop_
_symmetry_equiv_pos_as_xyz
'x, y, z'
_cell_length_a     86.254962
_cell_length_b     86.085321
_cell_length_c     29.717993
_cell_angle_alpha  90.028209
_cell_angle_beta   90.038865
_cell_angle_gamma 120.10337
loop_
_atom_site_label
_atom_site_type_symbol
_atom_site_fract_x
_atom_site_fract_y
_atom_site_fract_z
_atom_type_partial_charge
C0 C 0.09534 0.21049 0.25887 0.0
C1 C 0.08042 0.20882 0.28001 0.0
N2 N 0.07565 0.19638 0.31261 0.0
N3 N 0.1 0.19931 0.27852 0.0
C4 C 0.08762 0.19068 0.31061 0.0
H5 H 0.10277 0.21973 0.23204 0.0
Co6 Co 0.12003 0.1981 0.26353 0.0
C7 C 0.12514 0.18677 0.35958 0.0
O8 O 0.13518 0.2035 0.37224 0.0
N9 N 0.14022 0.1968 0.24699 0.0
C10 C 0.16723 0.19948 0.24759 0.0
C11 C 0.15331 0.19762 0.2737 0.0
C12 C 0.14645 0.19801 0.20481 0.0
N13 N 0.16294 0.19991 0.20431 0.0
O14 O 0.10412 0.17607 0.2284 0.0
H15 H 0.15354 0.19817 0.30987 0.0
H16 H 0.13971 0.19901 0.17523 0.0
O17 O 0.1183 0.18322 0.31956 0.0
C18 C 0.10076 0.17989 0.18897 0.0
O19 O 0.10914 0.19683 0.17674 0.0
N20 N 0.13505 0.2214 0.29166 0.0
C21 C 0.15436 0.2582 0.31589 0.0
C22 C 0.13949 0.24574 0.341 0.0
C23 C 0.12988 0.2276 0.32793 0.0
C24 C 0.14922 0.23358 0.26632 0.0
C25 C 0.15916 0.25174 0.2782 0.0
H26 H 0.11806 0.21861 0.34692 0.0
H27 H 0.15246 0.22965 0.23488 0.0
H28 H 0.08802 0.18123 0.33391 0.0
H29 H 0.07393 0.21653 0.2729 0.0
H30 H 0.17979 0.20106 0.25963 0.0
H31 H 0.13506 0.24997 0.37023 0.0
H32 H 0.16998 0.26082 0.25637 0.0
C33 C 0.83575 0.89818 0.25205 0.0
C34 C 0.83983 0.88605 0.27071 0.0
N35 N 0.85502 0.8953 0.29478 0.0
N36 N 0.84817 0.91487 0.26505 0.0
C37 C 0.85979 0.91273 0.29074 0.0
H38 H 0.82463 0.89508 0.22984 0.0
Co39 Co 0.84979 0.93584 0.24597 0.0
C40 C 0.86008 0.95969 0.32776 0.0
O41 O 0.84678 0.96221 0.31631 0.0
N42 N 0.85176 0.95732 0.22497 0.0
C43 C 0.8633 0.98653 0.21142 0.0
C44 C 0.86641 0.97377 0.23024 0.0
C45 C 0.84033 0.96042 0.20062 0.0
N46 N 0.84686 0.97801 0.19312 0.0
O47 O 0.8718 0.94117 0.21248 0.0
H48 H 0.87871 0.97632 0.24641 0.0
H49 H 0.82772 0.95019 0.18704 0.0
O50 O 0.86336 0.94921 0.30331 0.0
C51 C 0.86684 0.93421 0.17304 0.0
O52 O 0.8498 0.9273 0.16289 0.0
N53 N 0.82684 0.92814 0.27264 0.0
C54 C 0.79061 0.91095 0.29916 0.0
C55 C 0.80437 0.91604 0.33113 0.0
C56 C 0.82238 0.9243 0.31711 0.0
C57 C 0.81349 0.92195 0.24129 0.0
C58 C 0.79547 0.91392 0.25367 0.0
H59 H 0.83257 0.92692 0.34191 0.0
H60 H 0.81674 0.92229 0.2061 0.0
H61 H 0.87151 0.92376 0.30619 0.0
H62 H 0.83239 0.87162 0.26635 0.0
H63 H 0.87268 1.00081 0.20925 0.0
H64 H 0.80125 0.9134 0.36657 0.0
H65 H 0.78534 0.90927 0.22755 0.0
C66 C 0.1517 0.96031 0.25938 0.0
C67 C 0.16311 0.97126 0.29253 0.0
N68 N 0.15459 0.96574 0.33234 0.0
N69 N 0.13611 0.94815 0.2784 0.0
C70 C 0.13823 0.9518 0.32269 0.0
H71 H 0.15469 0.96085 0.22388 0.0
Co72 Co 0.1173 0.92936 0.24961 0.0
C73 C 0.08759 0.91104 0.31859 0.0
O74 O 0.08511 0.89584 0.30176 0.0
N75 N 0.09821 0.91026 0.21933 0.0
C76 C 0.07864 0.88329 0.19238 0.0
C77 C 0.09621 0.89449 0.20441 0.0
C78 C 0.0819 0.90859 0.21385 0.0
N79 N 0.06977 0.8922 0.19876 0.0
O80 O 0.11253 0.94679 0.21741 0.0
H81 H 0.10641 0.89077 0.20423 0.0
H82 H 0.07862 0.91866 0.22429 0.0
O83 O 0.10023 0.92596 0.3021 0.0
C84 C 0.11809 0.94902 0.17642 0.0
O85 O 0.12395 0.93857 0.16118 0.0
N86 N 0.12471 0.91382 0.27536 0.0
C87 C 0.14143 0.89402 0.29894 0.0
C88 C 0.13101 0.89709 0.33032 0.0
C89 C 0.12308 0.90735 0.3182 0.0
C90 C 0.13571 0.91195 0.24567 0.0
C91 C 0.14392 0.90197 0.25635 0.0
H92 H 0.11612 0.91036 0.34376 0.0
H93 H 0.138 0.91821 0.21291 0.0
H94 H 0.12803 0.94427 0.34752 0.0
H95 H 0.17673 0.98211 0.28781 0.0
H96 H 0.07271 0.86951 0.18104 0.0
H97 H 0.129 0.89167 0.36405 0.0
H98 H 0.15245 0.90082 0.23146 0.0
C99 C 0.22377 0.08754 0.77641 0.0
C100 C 0.22116 0.07158 0.75917 0.0
N101 N 0.2068 0.06489 0.73177 0.0
N102 N 0.21134 0.09095 0.75905 0.0
C103 C 0.20103 0.07682 0.73247 0.0
H104 H 0.23425 0.09632 0.79943 0.0
Co105 Co 0.20955 0.1108 0.77252 0.0
C106 C 0.19774 0.11457 0.67583 0.0
O107 O 0.21433 0.12473 0.66261 0.0
N108 N 0.20764 0.13079 0.78761 0.0
C109 C 0.20951 0.15749 0.78537 0.0
C110 C 0.20813 0.14353 0.76008 0.0
C111 C 0.20858 0.13726 0.82943 0.0
N112 N 0.20998 0.15358 0.82895 0.0
O113 O 0.18775 0.09473 0.80798 0.0
H114 H 0.20878 0.14352 0.72393 0.0
H115 H 0.20972 0.13083 0.85946 0.0
O116 O 0.19447 0.10814 0.71625 0.0
C117 C 0.19175 0.09161 0.84745 0.0
O118 O 0.20868 0.10038 0.85956 0.0
N119 N 0.23262 0.12606 0.74401 0.0
C120 C 0.26927 0.14594 0.71942 0.0
C121 C 0.25702 0.13066 0.69499 0.0
C122 C 0.23896 0.12077 0.70828 0.0
C123 C 0.24458 0.14063 0.76868 0.0
C124 C 0.26266 0.15083 0.75663 0.0
H125 H 0.23014 0.10859 0.69011 0.0
H126 H 0.24056 0.14401 0.79978 0.0
H127 H 0.18988 0.07558 0.71286 0.0
H128 H 0.22927 0.06548 0.76571 0.0
H129 H 0.21074 0.16983 0.77258 0.0
H130 H 0.26137 0.12612 0.6662 0.0
H131 H 0.27156 0.16195 0.77803 0.0
C132 C 0.96624 0.13996 0.78338 0.0
C133 C 0.97842 0.1525 0.75408 0.0
N134 N 0.97703 0.14425 0.71455 0.0
N135 N 0.9573 0.12401 0.76216 0.0
C136 C 0.96415 0.127 0.72036 0.0
H137 H 0.96378 0.14233 0.81769 0.0
Co138 Co 0.9387 0.10383 0.78689 0.0
C139 C 0.92208 0.07661 0.71245 0.0
O140 O 0.90666 0.07374 0.72846 0.0
N141 N 0.91985 0.08329 0.81356 0.0
C142 C 0.90396 0.05549 0.84005 0.0
C143 C 0.91954 0.06757 0.81878 0.0
C144 C 0.90436 0.08044 0.83225 0.0
N145 N 0.89439 0.06363 0.84847 0.0
O146 O 0.95646 0.09938 0.81825 0.0
H147 H 0.93008 0.06509 0.80802 0.0
H148 H 0.90034 0.09038 0.83442 0.0
O149 O 0.93672 0.08846 0.73185 0.0
C150 C 0.95833 0.10455 0.85957 0.0
O151 O 0.94727 0.10959 0.8751 0.0
N152 N 0.92281 0.11098 0.76203 0.0
C153 C 0.90334 0.12804 0.73852 0.0
C154 C 0.90886 0.12011 0.70549 0.0
C155 C 0.91888 0.11194 0.71781 0.0
C156 C 0.9187 0.11982 0.79371 0.0
C157 C 0.90862 0.12793 0.78309 0.0
H158 H 0.92395 0.10706 0.69151 0.0
H159 H 0.92342 0.12066 0.82785 0.0
H160 H 0.95937 0.11693 0.69412 0.0
H161 H 0.98755 0.16654 0.76126 0.0
H162 H 0.90035 0.04201 0.85006 0.0
H163 H 0.90565 0.12038 0.67037 0.0
H164 H 0.9055 0.13458 0.80952 0.0
C165 C 0.90714 0.82934 0.74199 0.0
C166 C 0.89813 0.83027 0.70486 0.0
N167 N 0.91012 0.84329 0.67776 0.0
N168 N 0.92464 0.84174 0.73811 0.0
C169 C 0.92603 0.85017 0.69894 0.0
H170 H 0.90146 0.81981 0.76931 0.0
Co171 Co 0.94227 0.84427 0.77719 0.0
C172 C 0.97295 0.85382 0.7121 0.0
O173 O 0.97422 0.84051 0.72978 0.0
N174 N 0.95952 0.84693 0.8188 0.0
C175 C 0.98371 0.85667 0.8619 0.0
C176 C 0.9776 0.85696 0.81937 0.0
C177 C 0.95502 0.84158 0.8618 0.0
N178 N 0.96942 0.847 0.88849 0.0
O179 O 0.94413 0.86654 0.80207 0.0
H180 H 0.98592 0.8652 0.79219 0.0
H181 H 0.94134 0.83443 0.87369 0.0
O182 O 0.96135 0.85754 0.72863 0.0
C183 C 0.9316 0.86308 0.83069 0.0
O184 O 0.91916 0.84624 0.83661 0.0
N185 N 0.9383 0.82114 0.75754 0.0
C186 C 0.92525 0.78481 0.73434 0.0
C187 C 0.93041 0.7981 0.70099 0.0
C188 C 0.93675 0.81611 0.71323 0.0
C189 C 0.933 0.80825 0.79006 0.0
C190 C 0.92682 0.79025 0.77936 0.0
H191 H 0.93976 0.82586 0.6869 0.0
H192 H 0.9324 0.81147 0.82467 0.0
H193 H 0.93848 0.86093 0.6857 0.0
H194 H 0.88404 0.82157 0.69748 0.0
H195 H 0.99752 0.86402 0.87303 0.0
H196 H 0.92926 0.79459 0.66567 0.0
H197 H 0.92237 0.78051 0.80635 0.0
C198 C 0.77238 0.54926 0.6098 0.0
C199 C 0.75524 0.54393 0.62341 0.0
N200 N 0.74679 0.52616 0.63172 0.0
N201 N 0.77487 0.53499 0.61027 0.0
C202 C 0.75892 0.52105 0.6229 0.0
H203 H 0.78226 0.56269 0.59974 0.0
Co204 Co 0.79483 0.53442 0.58955 0.0
C205 C 0.78932 0.51652 0.6836 0.0
O206 O 0.78054 0.52422 0.69898 0.0
N207 N 0.81486 0.53429 0.5678 0.0
C208 C 0.84192 0.53724 0.56439 0.0
C209 C 0.82736 0.53269 0.59146 0.0
C210 C 0.8221 0.53986 0.52669 0.0
N211 N 0.83862 0.54188 0.52378 0.0
O212 O 0.77859 0.51313 0.55205 0.0
H213 H 0.82657 0.52956 0.62687 0.0
H214 H 0.81588 0.54353 0.50037 0.0
O215 O 0.79468 0.51924 0.6424 0.0
C216 C 0.77479 0.51881 0.51588 0.0
O217 O 0.78254 0.53629 0.51053 0.0
N218 N 0.81036 0.55665 0.61884 0.0
C219 C 0.83086 0.59305 0.64394 0.0
C220 C 0.82574 0.57924 0.67595 0.0
C221 C 0.81553 0.56108 0.6627 0.0
C222 C 0.81603 0.56988 0.58726 0.0
C223 C 0.82621 0.58798 0.59889 0.0
H224 H 0.81172 0.55088 0.68797 0.0
H225 H 0.81201 0.56633 0.55258 0.0
H226 H 0.7563 0.5074 0.62555 0.0
H227 H 0.74963 0.55259 0.62805 0.0
H228 H 0.85414 0.5375 0.5742 0.0
H229 H 0.82911 0.5824 0.71113 0.0
H230 H 0.83021 0.59795 0.57254 0.0
C231 C 0.51907 0.23394 0.59757 0.0
C232 C 0.51862 0.2228 0.63137 0.0
N233 N 0.52093 0.23138 0.67089 0.0
N234 N 0.52167 0.24937 0.61598 0.0
C235 C 0.5228 0.24746 0.66057 0.0
H236 H 0.51702 0.23079 0.56207 0.0
Co237 Co 0.52046 0.2673 0.58609 0.0
C238 C 0.53202 0.29791 0.65327 0.0
O239 O 0.5191 0.30006 0.63661 0.0
N240 N 0.51916 0.28539 0.55461 0.0
C241 C 0.51003 0.30233 0.52055 0.0
C242 C 0.50488 0.28541 0.53603 0.0
C243 C 0.53293 0.30223 0.54833 0.0
N244 N 0.52766 0.31297 0.52885 0.0
O245 O 0.5425 0.27259 0.55231 0.0
H246 H 0.49142 0.27415 0.53466 0.0
H247 H 0.54645 0.30664 0.55954 0.0
O248 O 0.53432 0.28523 0.63719 0.0
C249 C 0.53863 0.26631 0.51192 0.0
O250 O 0.52197 0.2595 0.49838 0.0
N251 N 0.49761 0.25928 0.61315 0.0
C252 C 0.46123 0.24097 0.63834 0.0
C253 C 0.47457 0.25309 0.66798 0.0
C254 C 0.49275 0.26179 0.65521 0.0
C255 C 0.48485 0.24699 0.58498 0.0
C256 C 0.46672 0.23793 0.59648 0.0
H257 H 0.50271 0.26993 0.67984 0.0
H258 H 0.48888 0.24429 0.55279 0.0
H259 H 0.52399 0.25724 0.68525 0.0
H260 H 0.51649 0.20938 0.62727 0.0
H261 H 0.50126 0.30655 0.50587 0.0
H262 H 0.47105 0.25538 0.70132 0.0
H263 H 0.45705 0.22869 0.57242 0.0
C264 C 0.82088 0.28505 0.59892 0.0
C265 C 0.83422 0.29959 0.62127 0.0
N266 N 0.82665 0.30393 0.65497 0.0
N267 N 0.80505 0.28021 0.61873 0.0
C268 C 0.80891 0.29211 0.6523 0.0
H269 H 0.82264 0.27796 0.57116 0.0
Co270 Co 0.78384 0.26024 0.60229 0.0
C271 C 0.76655 0.25438 0.69721 0.0
O272 O 0.77327 0.24439 0.70972 0.0
N273 N 0.76239 0.24014 0.58457 0.0
C274 C 0.73819 0.2129 0.58359 0.0
C275 C 0.75043 0.22645 0.61053 0.0
C276 C 0.757 0.23465 0.54204 0.0
N277 N 0.74246 0.21808 0.5406 0.0
O278 O 0.77817 0.27641 0.56683 0.0
H279 H 0.75113 0.22558 0.64652 0.0
H280 H 0.76431 0.24202 0.51259 0.0
O281 O 0.7702 0.26163 0.65766 0.0
C282 C 0.78564 0.27975 0.52774 0.0
O283 O 0.79417 0.27129 0.51632 0.0
N284 N 0.79176 0.24494 0.63037 0.0
C285 C 0.80868 0.22518 0.6543 0.0
C286 C 0.81131 0.24007 0.67974 0.0
C287 C 0.803 0.24987 0.66692 0.0
C288 C 0.78966 0.2308 0.60461 0.0
C289 C 0.79754 0.22059 0.61645 0.0
H290 H 0.80589 0.26161 0.68637 0.0
H291 H 0.78262 0.22777 0.57295 0.0
H292 H 0.7991 0.2914 0.67613 0.0
H293 H 0.84842 0.3061 0.61414 0.0
H294 H 0.72737 0.20001 0.59467 0.0
H295 H 0.81995 0.24432 0.70904 0.0
H296 H 0.79565 0.20972 0.59452 0.0
C297 C 0.88492 0.41812 0.11884 0.0
C298 C 0.88755 0.40723 0.08969 0.0
N299 N 0.88056 0.40768 0.04947 0.0
N300 N 0.87626 0.42524 0.09702 0.0
C301 C 0.8737 0.4186 0.05497 0.0
H302 H 0.88937 0.42101 0.15343 0.0
Co303 Co 0.87131 0.44181 0.12141 0.0
C304 C 0.85902 0.4565 0.04622 0.0
O305 O 0.86994 0.47235 0.06359 0.0
N306 N 0.86601 0.45843 0.14749 0.0
C307 C 0.84965 0.47058 0.16775 0.0
C308 C 0.8493 0.45601 0.14815 0.0
C309 C 0.87623 0.47443 0.16801 0.0
N310 N 0.86663 0.48222 0.18032 0.0
O311 O 0.84959 0.42184 0.15027 0.0
H312 H 0.83759 0.44448 0.1342 0.0
H313 H 0.89034 0.48023 0.17454 0.0
O314 O 0.85796 0.44235 0.0645 0.0
C315 C 0.8527 0.42042 0.19204 0.0
O316 O 0.86822 0.43265 0.20863 0.0
N317 N 0.89398 0.46013 0.09927 0.0
C318 C 0.93083 0.4804 0.07788 0.0
C319 C 0.91761 0.47394 0.04396 0.0
C320 C 0.89932 0.46361 0.05526 0.0
C321 C 0.90664 0.46608 0.13237 0.0
C322 C 0.92492 0.47654 0.12268 0.0
H323 H 0.88971 0.45748 0.02836 0.0
H324 H 0.90257 0.46193 0.16675 0.0
H325 H 0.86705 0.42178 0.02878 0.0
H326 H 0.89444 0.39994 0.09722 0.0
H327 H 0.83822 0.47243 0.1719 0.0
H328 H 0.92135 0.47593 1.00878 0.0
H329 H 0.93435 0.48111 0.15037 0.0
C330 C 0.63144 0.48 0.07208 0.0
C331 C 0.63985 0.48867 0.03305 0.0
N332 N 0.64128 0.4768 1.00642 0.0
N333 N 0.62745 0.46274 0.06959 0.0
C334 C 0.63391 0.46127 0.02954 0.0
H335 H 0.62748 0.48558 0.09941 0.0
Co336 Co 0.61283 0.44516 0.10978 0.0
C337 C 0.59118 0.41432 0.04457 0.0
O338 O 0.57671 0.41326 0.06218 0.0
N339 N 0.5987 0.42798 0.15223 0.0
C340 C 0.58413 0.40378 0.19541 0.0
C341 C 0.58975 0.40983 0.15239 0.0
C342 C 0.59904 0.43254 0.19581 0.0
N343 N 0.5901 0.41816 0.22257 0.0
O344 O 0.63364 0.44371 0.13367 0.0
H345 H 0.58852 0.4013 0.12447 0.0
H346 H 0.60633 0.44623 0.20795 0.0
O347 O 0.6066 0.42584 0.06121 0.0
C348 C 0.64265 0.45663 0.16163 0.0
O349 O 0.63796 0.4689 0.16621 0.0
N350 N 0.59343 0.44896 0.0919 0.0
C351 C 0.57136 0.46371 0.07232 0.0
C352 C 0.57817 0.45765 0.03774 0.0
C353 C 0.58936 0.45058 0.04815 0.0
C354 C 0.58667 0.4546 0.12566 0.0
C355 C 0.57551 0.46168 0.11677 0.0
H356 H 0.5955 0.44731 0.02083 0.0
H357 H 0.59079 0.45484 0.15991 0.0
H358 H 0.63221 0.44882 1.01614 0.0
H359 H 0.64404 0.50243 0.02428 0.0
H360 H 0.5773 0.38992 0.20636 0.0
H361 H 0.57569 0.45924 1.00279 0.0
H362 H 0.57064 0.46607 0.14478 0.0
C363 C 0.56774 0.15538 0.10119 0.0
C364 C 0.55357 0.15713 0.08698 0.0
N365 N 0.56012 0.17295 0.06536 0.0
N366 N 0.58317 0.16986 0.08798 0.0
C367 C 0.57815 0.18058 0.06748 0.0
H368 H 0.56685 0.14424 0.12009 0.0
Co369 Co 0.60541 0.17328 0.10264 0.0
C370 C 0.61576 0.19078 1.00493 0.0
O371 O 0.59962 0.18417 0.98786 0.0
N372 N 0.62743 0.17615 0.1183 0.0
C373 C 0.65205 0.17411 0.1142 0.0
C374 C 0.63912 0.17516 0.08983 0.0
C375 C 0.63346 0.17563 0.1597 0.0
N376 N 0.64837 0.17429 0.15807 0.0
O377 O 0.61033 0.19536 0.13595 0.0
H378 H 0.63764 0.1739 0.05367 0.0
H379 H 0.62635 0.17485 0.19032 0.0
O380 O 0.61755 0.18708 0.04589 0.0
C381 C 0.6035 0.19148 0.17573 0.0
O382 O 0.59589 0.17463 0.18857 0.0
N383 N 0.59913 0.15065 0.07651 0.0
C384 C 0.58413 0.11407 0.05462 0.0
C385 C 0.58793 0.12701 0.02098 0.0
C386 C 0.59531 0.14525 0.03266 0.0
C387 C 0.59612 0.13833 0.10922 0.0
C388 C 0.58873 0.12012 0.09911 0.0
H389 H 0.59721 0.1547 1.00664 0.0
H390 H 0.59879 0.1426 0.14398 0.0
H391 H 0.58755 0.19359 0.05377 0.0
H392 H 0.53954 0.14739 0.0918 0.0
H393 H 0.66291 0.17264 0.10075 0.0
H394 H 0.5845 0.12301 0.98619 0.0
H395 H 0.58634 0.11079 0.12625 0.0
C396 C 0.42779 0.87547 0.94991 0.0
C397 C 0.41745 0.87516 0.98544 0.0
N398 N 0.41747 0.86385 1.01674 0.0
N399 N 0.43427 0.86447 0.95905 0.0
C400 C 0.42765 0.85745 0.99972 0.0
H401 H 0.43087 0.88359 0.91989 0.0
Co402 Co 0.45032 0.86224 0.92328 0.0
C403 C 0.47088 0.85273 0.99034 0.0
O404 O 0.48546 0.86586 0.97211 0.0
N405 N 0.46607 0.85995 0.88447 0.0
C406 C 0.48012 0.84897 0.84405 0.0
C407 C 0.47236 0.84838 0.88488 0.0
C408 C 0.46941 0.86666 0.84231 0.0
N409 N 0.47809 0.86042 0.8173 0.0
O410 O 0.43042 0.83984 0.89665 0.0
H411 H 0.47008 0.83882 0.91116 0.0
H412 H 0.46433 0.87487 0.82881 0.0
O413 O 0.45553 0.84906 0.97383 0.0
C414 C 0.42414 0.84356 0.86147 0.0
O415 O 0.43093 0.86054 0.8507 0.0
N416 N 0.46872 0.88547 0.94446 0.0
C417 C 0.49077 0.9219 0.96898 0.0
C418 C 0.48339 0.9083 1.00179 0.0
C419 C 0.47225 0.89024 0.98892 0.0
C420 C 0.47536 0.89867 0.91261 0.0
C421 C 0.4866 0.91672 0.92387 0.0
H422 H 0.46591 0.88025 1.01495 0.0
H423 H 0.47103 0.8956 0.8783 0.0
H424 H 0.43086 0.84848 1.0175 0.0
H425 H 0.41064 0.88279 0.98818 0.0
H426 H 0.48537 0.84046 0.83358 0.0
H427 H 0.48589 0.91158 0.03721 0.0
H428 H 0.49115 0.92666 0.89734 0.0
C429 C 0.16879 0.55808 0.92464 0.0
C430 C 0.17061 0.54469 0.94464 0.0
N431 N 0.18343 0.55225 0.97641 0.0
N432 N 0.18023 0.57388 0.94428 0.0
C433 C 0.18917 0.56999 0.97514 0.0
H434 H 0.15936 0.55641 0.89843 0.0
Co435 Co 0.18191 0.59542 0.92996 0.0
C436 C 0.19338 0.611 0.02683 0.0
O437 O 0.17671 0.60391 0.03984 0.0
N438 N 0.18381 0.61725 0.914 0.0
C439 C 0.18178 0.64198 0.91563 0.0
C440 C 0.18386 0.62989 0.94114 0.0
C441 C 0.18198 0.62214 0.87214 0.0
N442 N 0.18037 0.63693 0.87234 0.0
O443 O 0.20383 0.6012 0.89447 0.0
H444 H 0.18391 0.62974 0.97735 0.0
H445 H 0.18011 0.61406 0.84258 0.0
O446 O 0.19691 0.60822 0.98629 0.0
C447 C 0.20004 0.59417 0.8548 0.0
O448 O 0.18315 0.58589 0.84225 0.0
N449 N 0.15862 0.58753 0.95854 0.0
C450 C 0.1221 0.57129 0.9844 0.0
C451 C 0.13404 0.56739 1.00706 0.0
C452 C 0.15205 0.57543 0.99339 0.0
C453 C 0.14683 0.59085 0.93539 0.0
C454 C 0.12886 0.58333 0.94831 0.0
H455 H 0.16064 0.57167 1.01096 0.0
H456 H 0.1508 0.59862 0.9049 0.0
H457 H 0.19901 0.57979 0.99787 0.0
H458 H 0.16283 0.53048 0.93717 0.0
H459 H 0.18056 0.65313 0.92818 0.0
H460 H 0.12948 0.55804 0.03493 0.0
H461 H 0.1201 0.58625 0.92845 0.0
C462 C 0.49182 0.61827 0.95036 0.0
C463 C 0.50479 0.63534 0.96212 0.0
N464 N 0.49665 0.64469 0.97313 0.0
N465 N 0.47556 0.61676 0.95477 0.0
C466 C 0.47895 0.63316 0.96774 0.0
H467 H 0.49416 0.60769 0.939 0.0
Co468 Co 0.45404 0.59714 0.93809 0.0
C469 C 0.44284 0.60476 0.0331 0.0
O470 O 0.45913 0.61533 0.04836 0.0
N471 N 0.43271 0.57731 0.92084 0.0
C472 C 0.40849 0.5502 0.92404 0.0
C473 C 0.42076 0.56455 0.94884 0.0
C474 C 0.4275 0.57042 0.87929 0.0
N475 N 0.41285 0.55389 0.88039 0.0
O476 O 0.44881 0.61357 0.9022 0.0
H477 H 0.42154 0.56507 0.98516 0.0
H478 H 0.43496 0.57684 0.84909 0.0
O479 O 0.44073 0.59839 0.99297 0.0
C480 C 0.45633 0.61676 0.8632 0.0
O481 O 0.46478 0.60817 0.85223 0.0
N482 N 0.46066 0.58143 0.96643 0.0
C483 C 0.47486 0.55947 0.99134 0.0
C484 C 0.47067 0.5687 0.02398 0.0
C485 C 0.46357 0.57963 1.01084 0.0
C486 C 0.46453 0.57248 0.93455 0.0
C487 C 0.47151 0.56148 0.94612 0.0
H488 H 0.46093 0.58688 0.03631 0.0
H489 H 0.46274 0.57441 0.89937 0.0
H490 H 0.46858 0.63656 0.97283 0.0
H491 H 0.51905 0.64029 0.96369 0.0
H492 H 0.3975 0.53783 0.93714 0.0
H493 H 0.47294 0.56758 0.05936 0.0
H494 H 0.47486 0.55511 0.91942 0.0
C495 C 0.53894 0.7402 0.42452 0.0
C496 C 0.53962 0.73084 0.38766 0.0
N497 N 0.5393 0.73955 0.35032 0.0
N498 N 0.53803 0.75456 0.41013 0.0
C499 C 0.53808 0.7537 0.36495 0.0
H500 H 0.53998 0.73728 0.45942 0.0
Co501 Co 0.54054 0.77346 0.44405 0.0
C502 C 0.52889 0.79416 0.38173 0.0
O503 O 0.54199 0.80906 0.3989 0.0
N504 N 0.54328 0.79262 0.47937 0.0
C505 C 0.55462 0.81769 0.51959 0.0
C506 C 0.55805 0.80514 0.5011 0.0
C507 C 0.5308 0.79737 0.48714 0.0
N508 N 0.53753 0.81293 0.5102 0.0
O509 O 0.51865 0.7567 0.47886 0.0
H510 H 0.57072 0.80554 0.503 0.0
H511 H 0.51722 0.78989 0.47447 0.0
O512 O 0.52654 0.77895 0.39623 0.0
C513 C 0.52285 0.75347 0.51803 0.0
O514 O 0.53982 0.7623 0.52974 0.0
N515 N 0.56326 0.78834 0.41579 0.0
C516 C 0.59959 0.80746 0.38968 0.0
C517 C 0.58607 0.80701 0.36212 0.0
C518 C 0.56796 0.79714 0.37536 0.0
C519 C 0.57608 0.78772 0.44128 0.0
C520 C 0.59419 0.79739 0.42958 0.0
H521 H 0.55795 0.79629 0.35226 0.0
H522 H 0.57219 0.7799 0.47195 0.0
H523 H 0.5379 0.76364 0.34312 0.0
H524 H 0.54117 0.71912 0.38833 0.0
H525 H 0.56424 0.82976 0.53707 0.0
H526 H 0.58936 0.81388 0.33004 0.0
H527 H 0.60388 0.79715 0.4523 0.0
C528 C 0.29156 0.80669 0.45361 0.0
C529 C 0.30795 0.8197 0.43772 0.0
N530 N 0.31422 0.81174 0.40999 0.0
N531 N 0.2875 0.79077 0.43522 0.0
C532 C 0.3016 0.79419 0.40925 0.0
H533 H 0.28301 0.80866 0.47671 0.0
Co534 Co 0.26727 0.76935 0.44769 0.0
C535 C 0.26353 0.75389 0.35075 0.0
O536 O 0.25359 0.7606 0.33773 0.0
N537 N 0.24684 0.74759 0.46185 0.0
C538 C 0.21986 0.72311 0.45855 0.0
C539 C 0.23419 0.73545 0.43385 0.0
C540 C 0.23994 0.7422 0.50337 0.0
N541 N 0.22345 0.72753 0.50222 0.0
O542 O 0.28266 0.76298 0.48396 0.0
H543 H 0.23452 0.73603 0.3977 0.0
H544 H 0.24622 0.74977 0.53356 0.0
O545 O 0.26987 0.75684 0.39129 0.0
C546 C 0.28564 0.77008 0.5235 0.0
O547 O 0.27703 0.77844 0.53516 0.0
N548 N 0.25275 0.77787 0.4186 0.0
C549 C 0.23432 0.79608 0.39434 0.0
C550 C 0.24927 0.79849 0.3698 0.0
C551 C 0.25852 0.78965 0.3831 0.0
C552 C 0.23831 0.77568 0.44294 0.0
C553 C 0.22882 0.78431 0.43104 0.0
H554 H 0.27066 0.7927 0.36534 0.0
H555 H 0.2345 0.76806 0.47369 0.0
H556 H 0.30239 0.78411 0.38922 0.0
H557 H 0.31466 0.83388 0.44561 0.0
H558 H 0.20751 0.71217 0.44524 0.0
H559 H 0.25435 0.80781 0.34189 0.0
H560 H 0.2175 0.78212 0.45145 0.0
C561 C 0.23966 0.50032 0.44611 0.0
C562 C 0.22672 0.50128 0.42131 0.0
N563 N 0.2348 0.51244 0.38641 0.0
N564 N 0.25573 0.51071 0.4266 0.0
C565 C 0.25243 0.51821 0.39091 0.0
H566 H 0.23743 0.49184 0.47506 0.0
Co567 Co 0.27656 0.51151 0.44431 0.0
C568 C 0.29427 0.52213 0.34926 0.0
O569 O 0.28743 0.50524 0.33791 0.0
N570 N 0.29768 0.51242 0.46316 0.0
C571 C 0.32109 0.50819 0.46417 0.0
C572 C 0.30947 0.51042 0.43728 0.0
C573 C 0.30263 0.51162 0.50577 0.0
N574 N 0.31663 0.50876 0.50714 0.0
O575 O 0.28254 0.53366 0.47902 0.0
H576 H 0.30895 0.50908 0.40129 0.0
H577 H 0.29522 0.51152 0.53515 0.0
O578 O 0.29067 0.52615 0.38841 0.0
C579 C 0.27492 0.5297 0.51798 0.0
O580 O 0.26629 0.51274 0.52997 0.0
N581 N 0.26812 0.48797 0.41738 0.0
C582 C 0.24999 0.45087 0.39626 0.0
C583 C 0.2485 0.46325 0.36847 0.0
C584 C 0.25727 0.48157 0.38012 0.0
C585 C 0.2693 0.47587 0.445 0.0
C586 C 0.26077 0.45756 0.4347 0.0
H587 H 0.25495 0.49048 0.35933 0.0
H588 H 0.27606 0.48003 0.47696 0.0
H589 H 0.26249 0.5265 0.3665 0.0
H590 H 0.21242 0.49371 0.42729 0.0
H591 H 0.3315 0.50556 0.45302 0.0
H592 H 0.23994 0.45875 0.33902 0.0
H593 H 0.26228 0.44862 0.45762 0.0
H594 H 0.22875 0.18999 0.82971 0.0
H595 H 0.23319 0.20955 0.8941 0.0
H596 H 0.20306 0.16288 0.97779 0.0
H597 H 0.19862 0.14338 0.91387 0.0
H598 H 0.20724 0.21117 0.93853 0.0
H599 H 0.24427 0.19399 0.05994 0.0
H600 H 0.24353 0.18895 1.00064 0.0
H601 H 0.22608 0.17357 0.03805 0.0
C602 C 0.22315 0.18394 0.86193 0.0
C603 C 0.21324 0.16515 0.86684 0.0
C604 C 0.22589 0.19512 0.8987 0.0
C605 C 0.21886 0.18766 0.94088 0.0
C606 C 0.20918 0.16893 0.9459 0.0
H607 H 0.15238 0.18832 0.11964 0.0
H608 H 0.17157 0.19329 0.05486 0.0
C609 C 0.20649 0.15778 0.90929 0.0
C610 C 0.21923 0.19901 0.97848 0.0
H611 H 0.22086 0.19944 0.09276 0.0
C612 C 0.21082 0.2092 0.97219 0.0
C613 C 0.2245 0.19706 0.02214 0.0
C614 C 0.2353 0.18796 0.03039 0.0
C615 C 0.20518 0.21516 1.00912 0.0
C616 C 0.20769 0.2104 0.05287 0.0
C617 C 0.21846 0.20263 0.05908 0.0
C618 C 0.19644 0.20984 0.09083 0.0
C619 C 0.19543 0.22534 1.00083 0.0
C620 C 0.20404 0.21714 0.13277 0.0
C621 C 0.19304 0.21407 0.17004 0.0
C622 C 0.1743 0.20358 0.16586 0.0
C623 C 0.16675 0.19663 0.12364 0.0
C624 C 0.17772 0.19962 0.08654 0.0
H625 H 0.20106 0.23423 0.97102 0.0
H626 H 0.18112 0.21567 0.99355 0.0
H627 H 0.19623 0.23361 0.0304 0.0
H628 H 0.21846 0.22486 0.13682 0.0
H629 H 0.19921 0.21985 0.20209 0.0
H630 H 0.86971 0.02866 0.86272 0.0
H631 H 0.84689 1.01721 0.92087 0.0
H632 H 0.85856 0.07108 0.95054 0.0
H633 H 0.88204 0.08274 0.89408 0.0
H634 H 0.86594 0.05699 1.01851 0.0
H635 H 0.79846 1.00686 0.9629 0.0
H636 H 0.81424 1.00247 0.93488 0.0
H637 H 0.81473 0.0234 0.92488 0.0
C638 C 0.86722 0.03807 0.88096 0.0
C639 C 0.87818 0.05666 0.87464 0.0
C640 C 0.8538 0.03145 0.91356 0.0
C641 C 0.85092 0.04328 0.94006 0.0
C642 C 0.86047 0.06169 0.9303 0.0
H643 H 0.84049 1.00476 0.21339 0.0
H644 H 0.8329 0.02159 0.1594 0.0
C645 C 0.87401 0.06835 0.89796 0.0
C646 C 0.84222 0.03703 0.98443 0.0
H647 H 0.80901 0.99924 0.03364 0.0
C648 C 0.85314 0.04473 0.02233 0.0
C649 C 0.82544 0.02124 0.98945 0.0
C650 C 0.81251 1.01318 0.95075 0.0
C651 C 0.84919 0.03557 0.06335 0.0
C652 C 0.83344 1.01852 0.06682 0.0
C653 C 0.82121 1.01215 0.03078 0.0
C654 C 0.83188 1.0056 0.10192 0.0
C655 C 0.86312 0.04331 0.1003 0.0
C656 C 0.832 0.99003 0.08829 0.0
C657 C 0.83562 0.98012 0.11925 0.0
C658 C 0.83947 0.98584 0.16402 0.0
C659 C 0.8378 1.00042 0.17863 0.0
C660 C 0.83356 1.01001 0.14788 0.0
H661 H 0.87552 0.05563 0.08955 0.0
H662 H 0.8576 0.04692 0.12959 0.0
H663 H 0.86689 0.03333 0.11137 0.0
H664 H 0.83071 0.9863 0.05307 0.0
H665 H 0.83682 0.96885 0.10762 0.0
H666 H 0.05362 0.90597 0.14973 0.0
H667 H 1.02192 0.89108 0.13081 0.0
H668 H 1.01157 0.84785 0.22227 0.0
H669 H 0.04379 0.86241 0.23822 0.0
H670 H 0.99862 0.83349 0.15145 0.0
H671 H 0.97411 0.88015 0.16441 0.0
H672 H 0.99539 0.89342 0.13806 0.0
H673 H 0.99422 0.88454 0.19402 0.0
C674 C 0.04441 0.89352 0.16647 0.0
C675 C 0.0509 0.88506 0.19453 0.0
C676 C 1.02619 0.8851 0.15643 0.0
C677 C 1.01408 0.86834 0.17558 0.0
C678 C 1.02053 0.86072 0.20698 0.0
H679 H 0.94433 0.84344 0.94938 0.0
H680 H 0.94585 0.84092 0.03122 0.0
C681 C 0.03887 0.86892 0.21589 0.0
C682 C 0.99617 0.85731 0.1545 0.0
H683 H 0.96964 0.86537 0.08518 0.0
C684 C 0.9917 0.84017 0.13864 0.0
C685 C 0.98606 0.8651 0.13924 0.0
C686 C 0.98764 0.88173 0.16052 0.0
C687 C 0.98036 0.83265 0.10153 0.0
C688 C 0.97403 0.84286 0.07922 0.0
C689 C 0.97533 0.85797 0.10083 0.0
C690 C 0.97109 0.84124 0.03004 0.0
C691 C 0.97694 0.81482 0.08356 0.0
C692 C 0.9848 0.84235 1.00231 0.0
C693 C 0.98397 0.84377 0.95591 0.0
C694 C 0.96952 0.84431 0.93614 0.0
C695 C 0.95554 0.8428 0.96368 0.0
C696 C 0.95638 0.84138 1.01039 0.0
H697 H 0.97468 0.80546 0.11177 0.0
H698 H 0.96516 0.8086 0.06071 0.0
H699 H 0.98893 0.81675 0.06494 0.0
H700 H 0.99663 0.84294 1.01667 0.0
H701 H 0.99483 0.84477 0.9355 0.0
H702 H 0.90026 0.93635 0.18367 0.0
H703 H 0.9167 0.92928 0.12662 0.0
H704 H 0.87568 0.91905 0.02904 0.0
H705 H 0.85981 0.92647 0.08434 0.0
H706 H 0.90771 0.89871 0.07994 0.0
H707 H 0.9183 0.95008 0.95433 0.0
H708 H 0.91109 0.95076 1.01089 0.0
H709 H 0.89502 0.93717 0.96839 0.0
C710 C 0.89501 0.93302 0.14975 0.0
C711 C 0.8787 0.93221 0.13892 0.0
C712 C 0.90436 0.92881 0.11707 0.0
C713 C 0.89775 0.92389 0.07265 0.0
C714 C 0.88156 0.92326 0.06217 0.0
H715 H 0.90341 0.86851 0.83898 0.0
H716 H 0.89799 0.88516 0.89788 0.0
C717 C 0.87233 0.92743 0.09439 0.0
C718 C 0.90691 0.91852 0.0374 0.0
H719 H 0.91874 0.92396 0.92563 0.0
C720 C 0.91047 0.90454 0.04653 0.0
C721 C 0.91069 0.92599 0.99334 0.0
C722 C 0.90876 0.94196 0.98133 0.0
C723 C 0.91664 0.8973 1.0127 0.0
C724 C 0.91943 0.90414 0.96817 0.0
C725 C 0.91653 0.91853 0.95945 0.0
C726 C 0.92389 0.89559 0.92961 0.0
C727 C 0.91934 0.88177 0.02422 0.0
C728 C 0.94057 0.89632 0.92621 0.0
C729 C 0.94388 0.88709 0.89147 0.0
C730 C 0.93055 0.87683 0.85947 0.0
C731 C 0.91413 0.87661 0.8623 0.0
C732 C 0.91095 0.88601 0.89637 0.0
H733 H 0.91471 0.87664 0.0588 0.0
H734 H 0.91202 0.87061 0.99989 0.0
H735 H 0.93379 0.88613 0.0217 0.0
H736 H 0.95088 0.90364 0.95112 0.0
H737 H 0.95645 0.88711 0.89125 0.0
H738 H 0.16361 0.05714 0.82977 0.0
H739 H 0.14725 0.0329 0.88511 0.0
H740 H 0.17516 0.06998 0.99309 0.0
H741 H 0.19145 0.09393 0.9384 0.0
H742 H 0.16368 1.02046 0.94848 0.0
H743 H 0.1234 0.04409 0.03974 0.0
H744 H 0.1329 0.05253 0.98487 0.0
H745 H 0.14669 0.0607 0.03438 0.0
C746 C 0.16579 0.06024 0.86534 0.0
C747 C 0.17868 0.07765 0.87946 0.0
C748 C 0.15656 0.0463 0.8971 0.0
C749 C 0.15971 0.04948 0.94379 0.0
C750 C 0.17209 0.06704 0.95769 0.0
H751 H 0.13143 0.98526 0.19414 0.0
H752 H 0.14068 1.00946 0.13803 0.0
C753 C 0.18145 0.08081 0.92615 0.0
C754 C 0.15135 0.0344 0.97789 0.0
H755 H 0.12601 0.02055 0.0744 0.0
C756 C 0.15526 1.0204 0.97565 0.0
C757 C 0.1406 0.0343 1.01422 0.0
C758 C 0.13549 0.04861 1.01843 0.0
C759 C 0.14919 1.00674 1.00871 0.0
C760 C 0.13823 1.00648 0.04488 0.0
C761 C 0.13429 1.02049 0.04704 0.0
C762 C 0.13078 0.99175 0.08021 0.0
C763 C 0.15531 0.99315 1.00531 0.0
C764 C 0.12125 0.97355 0.06747 0.0
C765 C 0.11607 0.95979 0.09945 0.0
C766 C 0.1197 0.96361 0.14564 0.0
C767 C 0.12808 0.98174 0.15907 0.0
C768 C 0.13355 0.99563 0.12676 0.0
H769 H 0.1679 0.99845 0.98564 0.0
H770 H 0.15758 0.98914 0.03909 0.0
H771 H 0.14489 0.981 0.98768 0.0
H772 H 0.11823 0.96991 0.03237 0.0
H773 H 0.1097 0.94602 0.08773 0.0
H774 H 0.95696 0.10051 0.95032 0.0
H775 H 0.98167 0.10978 1.00354 0.0
H776 H 1.01872 0.1243 0.89312 0.0
H777 H 0.99377 0.1149 0.83925 0.0
H778 H 1.00832 0.10013 0.01901 0.0
H779 H 0.03882 0.17141 0.96633 0.0
H780 H 1.01632 0.15464 0.95058 0.0
H781 H 0.03517 0.15563 0.92221 0.0
C782 C 0.97031 0.10532 0.93712 0.0
C783 C 0.97324 0.10681 0.89021 0.0
C784 C 0.98451 0.1107 0.96783 0.0
C785 C 1.00228 0.11809 0.95288 0.0
C786 C 1.00524 0.11891 0.90592 0.0
H787 H 0.1041 0.17836 0.09872 0.0
H788 H 0.08071 0.16191 0.04286 0.0
C789 C 0.99089 0.11328 0.87496 0.0
C790 C 1.01749 0.12562 0.98668 0.0
H791 H 0.0536 0.16496 0.02332 0.0
C792 C 1.01828 0.11431 0.01976 0.0
C793 C 0.03055 0.14414 0.98836 0.0
C794 C 0.0302 0.15726 0.9553 0.0
C795 C 0.03177 0.12085 0.05347 0.0
C796 C 0.04472 0.13946 0.05557 0.0
C797 C 0.04388 0.15072 0.02231 0.0
C798 C 0.05938 0.14767 0.09108 0.0
C799 C 0.0322 0.10756 0.08574 0.0
C800 C 0.05573 0.14501 0.13776 0.0
C801 C 0.06941 0.15421 0.1702 0.0
C802 C 0.08707 0.16656 0.15687 0.0
C803 C 0.09075 0.16879 0.11037 0.0
C804 C 0.07724 0.15946 0.07818 0.0
H805 H 1.02553 0.09381 0.07123 0.0
H806 H 0.04616 0.11142 0.09495 0.0
H807 H 1.02487 0.10709 0.11685 0.0
H808 H 0.04213 0.13648 0.14934 0.0
H809 H 0.06592 0.15254 0.20556 0.0
H810 H 0.87502 0.55986 0.52473 0.0
H811 H 0.89477 0.56733 0.45937 0.0
H812 H 0.84862 0.54546 0.37174 0.0
H813 H 0.82904 0.53816 0.43641 0.0
H814 H 0.89417 0.54274 0.40836 0.0
H815 H 0.88294 0.58613 0.29528 0.0
H816 H 0.87758 0.58457 0.35454 0.0
H817 H 0.86133 0.5692 0.31446 0.0
C818 C 0.86916 0.55692 0.49141 0.0
C819 C 0.85045 0.54821 0.48564 0.0
C820 C 0.88047 0.56143 0.45412 0.0
C821 C 0.87326 0.55734 0.41052 0.0
C822 C 0.85464 0.54942 0.40481 0.0
H823 H 0.84651 0.49282 0.22692 0.0
H824 H 0.85713 0.51925 0.27353 0.0
C825 C 0.84337 0.54502 0.44193 0.0
C826 C 0.88419 0.55756 0.37187 0.0
H827 H 0.8822 0.55915 0.25777 0.0
C828 C 0.89245 0.54712 0.37547 0.0
C829 C 0.8825 0.5637 0.32905 0.0
C830 C 0.87578 0.57671 0.32337 0.0
C831 C 0.89586 0.53988 0.33706 0.0
C832 C 0.89083 0.54327 0.29455 0.0
C833 C 0.88564 0.55626 0.29061 0.0
C834 C 0.88519 0.5296 0.25888 0.0
C835 C 0.90229 0.52661 0.34268 0.0
C836 C 0.89748 0.5269 0.23431 0.0
C837 C 0.89139 0.51167 0.20703 0.0
C838 C 0.87295 0.49888 0.20441 0.0
C839 C 0.86074 0.50227 0.22756 0.0
C840 C 0.86681 0.51746 0.25432 0.0
H841 H 0.90663 0.52631 0.37772 0.0
H842 H 0.89136 0.51293 0.33365 0.0
H843 H 0.91373 0.53011 0.31974 0.0
H844 H 0.91173 0.53619 0.23744 0.0
H845 H 0.90119 0.50979 0.18888 0.0
H846 H 0.61533 0.44104 0.28137 0.0
H847 H 0.614 0.43853 0.36389 0.0
H848 H 0.56088 0.39232 0.35405 0.0
H849 H 0.56211 0.39487 0.27223 0.0
H850 H 0.56756 0.41896 0.42887 0.0
H851 H 0.61637 0.39455 0.41913 0.0
H852 H 0.62126 0.41583 0.39545 0.0
H853 H 0.60547 0.39532 0.36805 0.0
C854 C 0.60324 0.43063 0.29707 0.0
C855 C 0.58883 0.41801 0.27068 0.0
C856 C 0.60253 0.42923 0.34403 0.0
C857 C 0.58735 0.41528 0.36483 0.0
C858 C 0.57266 0.40328 0.33851 0.0
H859 H 0.521 0.33228 0.46826 0.0
H860 H 0.53955 0.36392 0.45151 0.0
C861 C 0.57342 0.40459 0.29187 0.0
C862 C 0.58705 0.41112 0.41298 0.0
H863 H 0.59266 0.3803 0.47106 0.0
C864 C 0.57367 0.4112 0.43959 0.0
C865 C 0.59542 0.4015 0.42764 0.0
C866 C 0.61051 0.40176 0.40136 0.0
C867 C 0.56623 0.3993 0.47577 0.0
C868 C 0.57216 0.38699 0.4844 0.0
C869 C 0.58782 0.38946 0.46356 0.0
C870 C 0.55968 0.3689 0.50202 0.0
C871 C 0.55065 0.39848 0.50081 0.0
C872 C 0.56491 0.36103 0.53559 0.0
C873 C 0.55421 0.34273 0.54526 0.0
C874 C 0.5383 0.332 0.52089 0.0
C875 C 0.53297 0.34011 0.48813 0.0
C876 C 0.54354 0.35831 0.4788 0.0
H877 H 0.55269 0.41219 0.50542 0.0
H878 H 0.53822 0.39066 0.48078 0.0
H879 H 0.54879 0.39202 0.53425 0.0
H880 H 0.57747 0.3689 0.55333 0.0
H881 H 0.55855 0.33701 0.57138 0.0
H882 H 0.73891 0.23034 0.46046 0.0
H883 H 0.72397 0.21247 0.39386 0.0
H884 H 0.71309 0.16421 0.46437 0.0
H885 H 0.72784 0.18213 0.53164 0.0
H886 H 0.72985 0.1888 0.34189 0.0
H887 H 0.66331 0.15423 0.42759 0.0
H888 H 0.68232 0.17344 0.45254 0.0
H889 H 0.68138 0.15214 0.4512 0.0
C890 C 0.73347 0.21595 0.46158 0.0
C891 C 0.73427 0.20756 0.50116 0.0
C892 C 0.72502 0.20577 0.4236 0.0
C893 C 0.71735 0.18703 0.42447 0.0
C894 C 0.7187 0.17862 0.4634 0.0
H895 H 0.66454 0.15426 0.15989 0.0
H896 H 0.6805 0.15069 0.22376 0.0
C897 C 0.72702 0.18883 0.5017 0.0
C898 C 0.70681 0.17664 0.38527 0.0
H899 H 0.66349 0.15417 0.34922 0.0
C900 C 0.71535 0.18073 0.34327 0.0
C901 C 0.68794 0.16597 0.38768 0.0
C902 C 0.67809 0.16117 0.43204 0.0
C903 C 0.70541 0.17635 0.30335 0.0
C904 C 0.68652 0.16731 0.306 0.0
C905 C 0.67802 0.16124 0.34772 0.0
C906 C 0.67569 0.16772 0.26825 0.0
C907 C 0.71518 0.18308 0.2592 0.0
C908 C 0.66741 0.17812 0.27274 0.0
C909 C 0.65829 0.1801 0.23667 0.0
C910 C 0.6574 0.17181 0.19542 0.0
C911 C 0.66538 0.16108 0.19117 0.0
C912 C 0.6744 0.15896 0.22753 0.0
H913 H 0.72994 0.19122 0.26371 0.0
H914 H 0.71221 0.17149 0.23721 0.0
H915 H 0.71056 0.19141 0.24158 0.0
H916 H 0.66841 0.1851 0.30393 0.0
H917 H 0.65234 0.18849 0.24063 0.0
H918 H 0.59665 0.21932 0.15872 0.0
H919 H 0.58941 0.23594 0.21478 0.0
H920 H 0.60001 0.20881 0.3218 0.0
H921 H 0.60706 0.19229 0.26646 0.0
H922 H 0.56144 0.22001 0.2806 0.0
H923 H 0.62663 0.26091 0.36652 0.0
H924 H 0.62476 0.25097 0.31178 0.0
H925 H 0.6198 0.23753 0.36176 0.0
C926 C 0.59799 0.21734 0.19419 0.0
C927 C 0.60274 0.20461 0.20786 0.0
C928 C 0.59365 0.22673 0.22638 0.0
C929 C 0.5943 0.22389 0.27306 0.0
C930 C 0.59967 0.21164 0.28644 0.0
H931 H 0.56188 0.25331 0.52717 0.0
H932 H 0.57607 0.24392 0.4694 0.0
C933 C 0.60371 0.20214 0.2545 0.0
C934 C 0.5881 0.2325 0.30782 0.0
H935 H 0.60099 0.25839 0.40371 0.0
C936 C 0.57019 0.22859 0.30714 0.0
C937 C 0.59927 0.24346 0.34335 0.0
C938 C 0.61873 0.24863 0.34587 0.0
C939 C 0.5631 0.23485 0.34099 0.0
C940 C 0.5743 0.24599 0.3764 0.0
C941 C 0.59226 0.24996 0.37697 0.0
C942 C 0.56754 0.2536 0.41264 0.0
C943 C 0.54336 0.22871 0.33927 0.0
C944 C 0.55875 0.26309 0.40104 0.0
C945 C 0.55061 0.26837 0.43399 0.0
C946 C 0.5514 0.2649 0.48003 0.0
C947 C 0.56129 0.25658 0.49225 0.0
C948 C 0.56927 0.25102 0.45898 0.0
H949 H 0.53576 0.21602 0.31995 0.0
H950 H 0.53754 0.22657 0.37356 0.0
H951 H 0.54147 0.23909 0.3221 0.0
H952 H 0.55765 0.26596 0.3661 0.0
H953 H 0.54304 0.27463 0.42317 0.0
H954 H 0.8494 0.42201 0.28248 0.0
H955 H 0.8342 0.39749 0.33622 0.0
H956 H 0.81338 0.35955 0.22686 0.0
H957 H 0.82877 0.38434 0.17236 0.0
H958 H 0.7986 0.37072 0.35151 0.0
H959 H 0.83979 0.34032 0.30368 0.0
H960 H 0.84531 0.36255 0.28591 0.0
H961 H 0.82757 0.34316 0.25849 0.0
C962 C 0.84135 0.40849 0.26955 0.0
C963 C 0.84036 0.40529 0.22274 0.0
C964 C 0.83263 0.39439 0.3006 0.0
C965 C 0.82278 0.37644 0.28622 0.0
C966 C 0.82109 0.37317 0.2393 0.0
H967 H 0.78082 0.27565 0.43756 0.0
H968 H 0.78796 0.29861 0.38036 0.0
C969 C 0.82972 0.38741 0.20794 0.0
C970 C 0.81505 0.36144 0.32069 0.0
H971 H 0.81829 0.32574 0.36028 0.0
C972 C 0.80286 0.36083 0.35322 0.0
C973 C 0.82055 0.34847 0.32369 0.0
C974 C 0.83413 0.34864 0.29142 0.0
C975 C 0.79589 0.34763 0.38763 0.0
C976 C 0.80158 0.33476 0.39102 0.0
C977 C 0.81374 0.3354 0.35831 0.0
C978 C 0.79506 0.32038 0.42733 0.0
C979 C 0.78212 0.34739 0.41927 0.0
C980 C 0.79602 0.32444 0.47379 0.0
C981 C 0.79144 0.31101 0.50702 0.0
C982 C 0.78606 0.2932 0.49474 0.0
C983 C 0.78466 0.28913 0.44844 0.0
C984 C 0.78895 0.30239 0.41547 0.0
H985 H 0.77506 0.35391 0.40399 0.0
H986 H 0.772 0.33347 0.42896 0.0
H987 H 0.78893 0.35499 0.4502 0.0
H988 H 0.80111 0.33816 0.48462 0.0
H989 H 0.79325 0.31481 0.5422 0.0
H990 H 0.67377 0.48696 0.18044 0.0
H991 H 0.69503 0.49245 0.24097 0.0
H992 H 0.66568 0.43634 0.27619 0.0
H993 H 0.64441 0.43075 0.21426 0.0
H994 H 0.68832 0.48931 0.32803 0.0
H995 H 0.71612 0.44518 0.28721 0.0
H996 H 0.70353 0.45012 0.24687 0.0
H997 H 0.69211 0.43392 0.29061 0.0
C998 C 0.67211 0.47562 0.20007 0.0
C999 C 0.65751 0.45832 0.19153 0.0
C1000 C 0.68426 0.47883 0.23523 0.0
C1001 C 0.68227 0.4649 0.26377 0.0
C1002 C 0.66797 0.44739 0.2545 0.0
H1003 H 0.74484 0.48399 0.52151 0.0
H1004 H 0.72137 0.46844 0.46342 0.0
C1005 C 0.65579 0.44413 0.21873 0.0
C1006 C 0.69446 0.46935 0.30449 0.0
H1007 H 0.72558 0.46133 0.35576 0.0
C1008 C 0.69632 0.48302 0.33398 0.0
C1009 C 0.70505 0.46125 0.31324 0.0
C1010 C 0.70428 0.44691 0.2827 0.0
C1011 C 0.70847 0.48899 0.37055 0.0
C1012 C 0.71937 0.48128 0.37858 0.0
C1013 C 0.71721 0.46723 0.35014 0.0
C1014 C 0.7343 0.48921 0.41302 0.0
C1015 C 0.70988 0.50391 0.40006 0.0
C1016 C 0.74966 0.5058 0.40415 0.0
C1017 C 0.76299 0.51457 0.43695 0.0
C1018 C 0.76159 0.50715 0.48016 0.0
C1019 C 0.74657 0.49009 0.48867 0.0
C1020 C 0.73307 0.48122 0.45542 0.0
H1021 H 0.69834 0.5061 0.39532 0.0
H1022 H 0.71064 0.50091 0.43608 0.0
H1023 H 0.72235 0.51657 0.39163 0.0
H1024 H 0.75111 0.51231 0.37197 0.0
H1025 H 0.77429 0.5276 0.42865 0.0
H1026 H 0.50984 0.8123 0.46447 0.0
H1027 H 0.49474 0.82917 0.48318 0.0
H1028 H 0.53101 0.85384 0.59482 0.0
H1029 H 0.54571 0.83692 0.57724 0.0
H1030 H 0.47763 0.82538 0.56261 0.0
H1031 H 0.52849 0.89637 0.54584 0.0
H1032 H 0.52963 0.87894 0.51449 0.0
H1033 H 0.53901 0.885 0.57041 0.0
C1034 C 0.51459 0.82136 0.49294 0.0
C1035 C 0.52893 0.82318 0.51963 0.0
C1036 C 0.50615 0.8312 0.50303 0.0
C1037 C 0.51212 0.84318 0.53943 0.0
C1038 C 0.52663 0.84524 0.56539 0.0
H1039 H 0.5054 0.86062 0.77347 0.0
H1040 H 0.50967 0.86158 0.69209 0.0
C1041 C 0.53495 0.83539 0.55559 0.0
C1042 C 0.50162 0.85118 0.55648 0.0
H1043 H 0.51127 0.88792 0.61942 0.0
C1044 C 0.48447 0.83932 0.57323 0.0
C1045 C 0.51027 0.86945 0.56916 0.0
C1046 C 0.5278 0.88317 0.54845 0.0
C1047 C 0.47749 0.84442 0.60917 0.0
C1048 C 0.48803 0.8617 0.62802 0.0
C1049 C 0.50345 0.87451 0.60548 0.0
C1050 C 0.48666 0.86436 0.67642 0.0
C1051 C 0.46031 0.8305 0.63109 0.0
C1052 C 0.4725 0.86594 0.69424 0.0
C1053 C 0.47003 0.86534 0.74082 0.0
C1054 C 0.48161 0.86298 0.76988 0.0
C1055 C 0.4962 0.8622 0.75178 0.0
C1056 C 0.49873 0.86295 0.70545 0.0
H1057 H 0.45306 0.81816 0.61027 0.0
H1058 H 0.46334 0.82675 0.66433 0.0
H1059 H 0.45136 0.8361 0.63681 0.0
H1060 H 0.46303 0.86694 0.6722 0.0
H1061 H 0.45861 0.86587 0.75382 0.0
H1062 H 0.15994 0.65269 0.874 0.0
H1063 H 0.15297 0.66611 0.81017 0.0
H1064 H 0.18316 0.65099 0.7227 0.0
H1065 H 0.18998 0.63751 0.78605 0.0
H1066 H 0.17655 0.69383 0.76393 0.0
H1067 H 0.141 0.63883 0.64368 0.0
H1068 H 0.14267 0.63471 0.70265 0.0
H1069 H 0.15999 0.63768 0.66357 0.0
C1070 C 0.16498 0.65216 0.84104 0.0
C1071 C 0.17564 0.64421 0.83487 0.0
C1072 C 0.16079 0.65961 0.8046 0.0
C1073 C 0.16713 0.65913 0.76153 0.0
C1074 C 0.17751 0.6509 0.75531 0.0
H1075 H 0.23267 0.72645 0.5882 0.0
H1076 H 0.21253 0.71194 0.65116 0.0
C1077 C 0.1816 0.64339 0.79157 0.0
C1078 C 0.16561 0.66957 0.72421 0.0
H1079 H 0.16416 0.66814 0.60994 0.0
C1080 C 0.17315 0.68814 0.73034 0.0
C1081 C 0.16051 0.66219 0.68059 0.0
C1082 C 0.15038 0.6422 0.67248 0.0
C1083 C 0.17844 0.6997 0.69332 0.0
C1084 C 0.17647 0.69241 0.6497 0.0
C1085 C 0.16622 0.67377 0.64355 0.0
C1086 C 0.1882 0.70326 0.61252 0.0
C1087 C 0.18748 0.71966 0.7014 0.0
C1088 C 0.18122 0.70282 0.56965 0.0
C1089 C 0.19279 0.71097 0.53339 0.0
C1090 C 0.21148 0.71953 0.53952 0.0
C1091 C 0.21837 0.72018 0.58264 0.0
C1092 C 0.20684 0.71203 0.61872 0.0
H1093 H 0.18129 0.7226 0.73052 0.0
H1094 H 0.2018 0.72488 0.70974 0.0
H1095 H 0.18666 0.72689 0.67137 0.0
H1096 H 0.16687 0.69589 0.56413 0.0
H1097 H 0.18711 0.71051 0.50062 0.0
H1098 H 0.32128 0.52384 0.58879 0.0
H1099 H 0.33583 0.5191 0.65366 0.0
H1100 H 0.34224 0.47971 0.57872 0.0
H1101 H 0.32803 0.48478 0.5133 0.0
H1102 H 0.32905 0.48912 0.70438 0.0
H1103 H 0.39359 0.51699 0.61038 0.0
H1104 H 0.37494 0.51855 0.58833 0.0
H1105 H 0.37428 0.49736 0.58841 0.0
C1106 C 0.32564 0.51406 0.58644 0.0
C1107 C 0.32392 0.50495 0.54606 0.0
C1108 C 0.33386 0.51129 0.62339 0.0
C1109 C 0.34029 0.49921 0.62062 0.0
C1110 C 0.33768 0.48933 0.58111 0.0
H1111 H 0.39628 0.51757 0.87934 0.0
H1112 H 0.3795 0.49781 0.81636 0.0
C1113 C 0.32966 0.49229 0.54387 0.0
C1114 C 0.35111 0.49855 0.65811 0.0
H1115 H 0.39489 0.51673 0.68855 0.0
C1116 C 0.3434 0.49463 0.7011 0.0
C1117 C 0.36975 0.5055 0.65323 0.0
C1118 C 0.37874 0.50993 0.60772 0.0
C1119 C 0.35413 0.49965 0.73973 0.0
C1120 C 0.37295 0.5084 0.73472 0.0
C1121 C 0.38043 0.51012 0.69189 0.0
C1122 C 0.38491 0.51963 0.77109 0.0
C1123 C 0.3454 0.49736 0.78514 0.0
C1124 C 0.39398 0.53835 0.7657 0.0
C1125 C 0.40357 0.54958 0.80125 0.0
C1126 C 0.40414 0.54227 0.84289 0.0
C1127 C 0.39567 0.52351 0.84777 0.0
C1128 C 0.38618 0.51223 0.81192 0.0
H1129 H 0.33065 0.49151 0.78255 0.0
H1130 H 0.34805 0.48834 0.80632 0.0
H1131 H 0.35113 0.51052 0.80257 0.0
H1132 H 0.39304 0.5443 0.73441 0.0
H1133 H 0.40991 0.56397 0.79675 0.0
H1134 H 0.22844 0.58822 0.8718 0.0
H1135 H 0.24521 0.58115 0.81586 0.0
H1136 H 0.21725 0.59051 0.7087 0.0
H1137 H 0.20058 0.59737 0.76393 0.0
H1138 H 0.22974 0.5528 0.75078 0.0
H1139 H 0.26901 0.61782 0.66289 0.0
H1140 H 0.25918 0.61601 0.71768 0.0
H1141 H 0.24558 0.61047 0.66784 0.0
C1142 C 0.22631 0.58934 0.83632 0.0
C1143 C 0.21331 0.59371 0.82262 0.0
C1144 C 0.23578 0.58509 0.80418 0.0
C1145 C 0.23277 0.58542 0.75748 0.0
C1146 C 0.22024 0.59042 0.74406 0.0
H1147 H 0.262 0.55299 0.50331 0.0
H1148 H 0.25278 0.56718 0.56144 0.0
C1149 C 0.21065 0.59437 0.77595 0.0
C1150 C 0.24151 0.57932 0.72278 0.0
H1151 H 0.26695 0.5922 0.6263 0.0
C1152 C 0.23806 0.56153 0.72395 0.0
C1153 C 0.25217 0.59044 0.68686 0.0
C1154 C 0.25686 0.6098 0.68377 0.0
C1155 C 0.24444 0.55448 0.6902 0.0
C1156 C 0.25526 0.56563 0.65435 0.0
C1157 C 0.25879 0.58349 0.65335 0.0
C1158 C 0.26285 0.55891 0.61786 0.0
C1159 C 0.23875 0.53482 0.69247 0.0
C1160 C 0.27253 0.55026 0.62904 0.0
C1161 C 0.27774 0.54212 0.59581 0.0
C1162 C 0.27407 0.54282 0.54987 0.0
C1163 C 0.26553 0.55256 0.53809 0.0
C1164 C 0.26004 0.56052 0.57161 0.0
H1165 H 0.22621 0.52709 0.7122 0.0
H1166 H 0.23654 0.5288 0.65837 0.0
H1167 H 0.24936 0.5333 0.7095 0.0
H1168 H 0.27558 0.54923 0.66387 0.0
H1169 H 0.28406 0.53456 0.60633 0.0
H1170 H 0.49649 0.71793 0.50303 0.0
H1171 H 0.48124 0.69434 0.56058 0.0
H1172 H 0.50626 0.73397 0.66515 0.0
H1173 H 0.52148 0.75728 0.60823 0.0
H1174 H 0.49914 0.68513 0.6281 0.0
H1175 H 0.45432 0.70524 0.71047 0.0
H1176 H 0.46374 0.71316 0.65526 0.0
H1177 H 0.47712 0.7231 0.70473 0.0
C1178 C 0.4982 0.7217 0.53824 0.0
C1179 C 0.50997 0.73967 0.55075 0.0
C1180 C 0.48964 0.70813 0.57132 0.0
C1181 C 0.49233 0.71221 0.61778 0.0
C1182 C 0.50354 0.73029 0.62998 0.0
H1183 H 0.46635 0.65262 0.8758 0.0
H1184 H 0.47428 0.67549 0.81657 0.0
C1185 C 0.51226 0.7437 0.59715 0.0
C1186 C 0.48478 0.69767 0.65352 0.0
H1187 H 0.4589 0.68366 0.7492 0.0
C1188 C 0.49016 0.68472 0.6542 0.0
C1189 C 0.47331 0.69713 0.68855 0.0
C1190 C 0.46663 0.71029 0.68972 0.0
C1191 C 0.48486 0.67172 0.68885 0.0
C1192 C 0.47317 0.67097 0.7237 0.0
C1193 C 0.46775 0.68394 0.72293 0.0
C1194 C 0.46649 0.65685 0.7607 0.0
C1195 C 0.49259 0.6594 0.68855 0.0
C1196 C 0.45855 0.63847 0.7501 0.0
C1197 C 0.45413 0.62546 0.78391 0.0
C1198 C 0.45688 0.63018 0.82984 0.0
C1199 C 0.46365 0.64838 0.84096 0.0
C1200 C 0.46838 0.66153 0.80685 0.0
H1201 H 0.50544 0.66539 0.66973 0.0
H1202 H 0.49502 0.65631 0.72322 0.0
H1203 H 0.48307 0.64664 0.67152 0.0
H1204 H 0.4562 0.63413 0.71534 0.0
H1205 H 0.44906 0.61163 0.77392 0.0
H1206 H 0.42703 0.84213 0.77121 0.0
H1207 H 0.40335 0.82546 0.71596 0.0
H1208 H 0.36578 0.79859 0.82347 0.0
H1209 H 0.38975 0.81536 0.87925 0.0
H1210 H 0.37913 0.78842 0.6969 0.0
H1211 H 0.34289 0.82326 0.75187 0.0
H1212 H 0.36571 0.83076 0.76852 0.0
H1213 H 0.3475 0.81155 0.79515 0.0
C1214 C 0.41385 0.8323 0.78322 0.0
C1215 C 0.41045 0.82996 0.82987 0.0
C1216 C 0.40021 0.8228 0.75141 0.0
C1217 C 0.38253 0.81085 0.76501 0.0
C1218 C 0.3792 0.80785 0.8117 0.0
H1219 H 0.28155 0.76365 0.61318 0.0
H1220 H 0.30471 0.77158 0.6703 0.0
C1221 C 0.39299 0.81725 0.84375 0.0
C1222 C 0.3677 0.80251 0.73023 0.0
H1223 H 0.33001 0.80244 0.69299 0.0
C1224 C 0.36833 0.79141 0.69624 0.0
C1225 C 0.35355 0.80639 0.72863 0.0
C1226 C 0.35233 0.81874 0.76267 0.0
C1227 C 0.35519 0.78391 0.66172 0.0
C1228 C 0.34114 0.78799 0.65973 0.0
C1229 C 0.34057 0.7991 0.69389 0.0
C1230 C 0.32677 0.78092 0.62333 0.0
C1231 C 0.35635 0.7713 0.62846 0.0
C1232 C 0.33094 0.78283 0.57686 0.0
C1233 C 0.31742 0.77775 0.54369 0.0
C1234 C 0.29938 0.77089 0.55603 0.0
C1235 C 0.29521 0.76856 0.60226 0.0
C1236 C 0.30859 0.77334 0.63518 0.0
H1237 H 0.3638 0.76501 0.64269 0.0
H1238 H 0.34283 0.76049 0.61804 0.0
H1239 H 0.36368 0.77897 0.59813 0.0
H1240 H 0.34475 0.78908 0.56606 0.0
H1241 H 0.32126 0.78034 0.5086 0.0
H1242 H 0.24381 0.43321 0.3149 0.0
H1243 H 0.22744 0.40074 0.30106 0.0
H1244 H 0.21624 0.39113 0.44285 0.0
H1245 H 0.23255 0.42341 0.45691 0.0
H1246 H 0.2274 0.36942 0.40933 0.0
H1247 H 0.17404 0.36619 0.29895 0.0
H1248 H 0.19627 0.38124 0.27888 0.0
H1249 H 0.18886 0.38598 0.331 0.0
C1250 C 0.23771 0.4242 0.34309 0.0
C1251 C 0.23964 0.43105 0.38707 0.0
C1252 C 0.22828 0.40558 0.33511 0.0
C1253 C 0.22035 0.39335 0.37082 0.0
C1254 C 0.22222 0.40018 0.41466 0.0
H1255 H 0.14072 0.27906 0.34766 0.0
H1256 H 0.15678 0.31139 0.36249 0.0
C1257 C 0.23167 0.41873 0.42267 0.0
C1258 C 0.21052 0.37346 0.36306 0.0
H1259 H 0.17553 0.33945 0.30553 0.0
C1260 C 0.21604 0.3629 0.38665 0.0
C1261 C 0.1955 0.36478 0.33401 0.0
C1262 C 0.18817 0.37508 0.30958 0.0
C1263 C 0.20717 0.34408 0.38166 0.0
C1264 C 0.19251 0.33546 0.35151 0.0
C1265 C 0.18684 0.34599 0.32835 0.0
C1266 C 0.18284 0.31558 0.3437 0.0
C1267 C 0.21338 0.3336 0.40963 0.0
C1268 C 0.19202 0.307 0.3281 0.0
C1269 C 0.18289 0.28844 0.32008 0.0
C1270 C 0.16425 0.2779 0.32698 0.0
C1271 C 0.15508 0.28655 0.34266 0.0
C1272 C 0.16425 0.30514 0.35075 0.0
H1273 H 0.22094 0.34126 0.43986 0.0
H1274 H 0.20188 0.32059 0.42073 0.0
H1275 H 0.22244 0.33078 0.38915 0.0
H1276 H 0.20628 0.31471 0.3215 0.0
H1277 H 0.1905 0.28234 0.30838 0.0
H1278 H 0.76429 0.91692 0.26689 0.0
H1279 H 0.7322 0.90029 0.28358 0.0
H1280 H 0.74063 0.86645 0.37546 0.0
H1281 H 0.77283 0.88337 0.35967 0.0
H1282 H 0.70806 0.86658 0.26873 0.0
H1283 H 0.70991 0.87791 0.45242 0.0
H1284 H 0.72939 0.89018 0.4173 0.0
H1285 H 0.72299 0.86791 0.43649 0.0
C1286 C 0.75934 0.90604 0.29102 0.0
C1287 C 0.77122 0.90158 0.31212 0.0
C1288 C 0.74094 0.89651 0.30054 0.0
C1289 C 0.73384 0.88219 0.33135 0.0
C1290 C 0.74569 0.87773 0.35257 0.0
H1291 H 0.62616 0.79916 0.40517 0.0
H1292 H 0.65823 0.81755 0.39046 0.0
C1293 C 0.76416 0.88741 0.34343 0.0
C1294 C 0.71401 0.8715 0.33948 0.0
H1295 H 0.68198 0.85526 0.42203 0.0
C1296 C 0.70241 0.86427 0.30229 0.0
C1297 C 0.70643 0.86842 0.38322 0.0
C1298 C 0.71781 0.87667 0.42457 0.0
C1299 C 0.68367 0.85384 0.30764 0.0
C1300 C 0.6762 0.8505 0.35133 0.0
C1301 C 0.68771 0.85775 0.38852 0.0
C1302 C 0.65648 0.83927 0.3592 0.0
C1303 C 0.67197 0.8461 0.26658 0.0
C1304 C 0.64469 0.84531 0.34649 0.0
C1305 C 0.62625 0.8349 0.35549 0.0
C1306 C 0.61912 0.81817 0.37741 0.0
C1307 C 0.63103 0.81209 0.3892 0.0
C1308 C 0.64944 0.82255 0.38054 0.0
H1309 H 0.67991 0.84738 0.23595 0.0
H1310 H 0.66199 0.83169 0.27192 0.0
H1311 H 0.6645 0.8533 0.2606 0.0
H1312 H 0.64982 0.85825 0.33035 0.0
H1313 H 0.61767 0.84023 0.34635 0.0
H1314 H 0.22474 0.8031 0.31155 0.0
H1315 H 0.20904 0.81971 0.2955 0.0
H1316 H 0.20733 0.82917 0.43731 0.0
H1317 H 0.22304 0.81278 0.45357 0.0
H1318 H 0.17381 0.81182 0.33236 0.0
H1319 H 0.22913 0.87992 0.37768 0.0
H1320 H 0.23294 0.86165 0.36412 0.0
H1321 H 0.22413 0.86252 0.41818 0.0
C1322 C 0.22114 0.80884 0.33927 0.0
C1323 C 0.22511 0.8065 0.38387 0.0
C1324 C 0.2121 0.81826 0.33007 0.0
C1325 C 0.20711 0.82583 0.36516 0.0
C1326 C 0.21117 0.82363 0.40962 0.0
H1327 H 0.15608 0.89166 0.37978 0.0
H1328 H 0.17092 0.8744 0.39641 0.0
C1329 C 0.22003 0.81409 0.41887 0.0
C1330 C 0.1973 0.83567 0.35566 0.0
H1331 H 0.20088 0.87702 0.36255 0.0
C1332 C 0.17975 0.8261 0.33871 0.0
C1333 C 0.20495 0.85425 0.36445 0.0
C1334 C 0.22387 0.86529 0.38181 0.0
C1335 C 0.16956 0.83451 0.33101 0.0
C1336 C 0.17729 0.8532 0.3392 0.0
C1337 C 0.19487 0.86274 0.35624 0.0
C1338 C 0.16755 0.86317 0.32953 0.0
C1339 C 0.15041 0.82312 0.31544 0.0
C1340 C 0.16069 0.86276 0.28639 0.0
C1341 C 0.15194 0.87239 0.27697 0.0
C1342 C 0.15005 0.88304 0.31018 0.0
C1343 C 0.15697 0.88346 0.35343 0.0
C1344 C 0.16564 0.8737 0.36291 0.0
H1345 H 0.14485 0.80881 0.32493 0.0
H1346 H 0.1417 0.82793 0.32985 0.0
H1347 H 0.14993 0.82376 0.27821 0.0
H1348 H 0.16229 0.85515 0.25962 0.0
H1349 H 0.14664 0.87146 0.24341 0.0
H1350 H 0.44179 0.25421 0.68042 0.0
H1351 H 0.40943 0.23841 0.69582 0.0
H1352 H 0.40417 0.18999 0.63856 0.0
H1353 H 0.43636 0.20554 0.62362 0.0
H1354 H 0.3809 0.22084 0.63088 0.0
H1355 H 0.37805 0.17309 0.76045 0.0
H1356 H 0.39866 0.1931 0.74525 0.0
H1357 H 0.38961 0.17358 0.70974 0.0
C1358 C 0.43378 0.24013 0.67172 0.0
C1359 C 0.44175 0.2312 0.65067 0.0
C1360 C 0.41525 0.23113 0.68028 0.0
C1361 C 0.40432 0.21293 0.66871 0.0
C1362 C 0.41229 0.20394 0.64835 0.0
H1363 H 0.29062 0.1328 0.68813 0.0
H1364 H 0.3229 0.14934 0.67392 0.0
C1365 C 0.43073 0.21293 0.63947 0.0
C1366 C 0.38451 0.20346 0.6763 0.0
H1367 H 0.35024 0.1679 0.73128 0.0
C1368 C 0.3742 0.20934 0.65309 0.0
C1369 C 0.3757 0.18835 0.70496 0.0
C1370 C 0.38604 0.1817 0.73188 0.0
C1371 C 0.35537 0.20033 0.65692 0.0
C1372 C 0.34652 0.18522 0.68573 0.0
C1373 C 0.35689 0.17941 0.7091 0.0
C1374 C 0.3266 0.17531 0.69239 0.0
C1375 C 0.34512 0.20677 0.62885 0.0
C1376 C 0.31773 0.18427 0.70754 0.0
C1377 C 0.29917 0.17486 0.71508 0.0
C1378 C 0.28893 0.15614 0.70832 0.0
C1379 C 0.29786 0.14721 0.69301 0.0
C1380 C 0.31643 0.15665 0.68528 0.0
H1381 H 0.35298 0.21453 0.5991 0.0
H1382 H 0.33219 0.19536 0.61697 0.0
H1383 H 0.34224 0.21576 0.64952 0.0
H1384 H 0.3252 0.19855 0.71431 0.0
H1385 H 0.29287 0.18232 0.72645 0.0
H1386 H 0.90783 0.15026 0.66679 0.0
H1387 H 0.89206 0.16684 0.65222 0.0
H1388 H 0.85927 0.14286 0.76955 0.0
H1389 H 0.87507 0.12648 0.78454 0.0
H1390 H 0.85762 0.15702 0.63529 0.0
H1391 H 0.87799 0.19519 0.79509 0.0
H1392 H 0.88777 0.18215 0.7757 0.0
H1393 H 0.86643 0.17138 0.80394 0.0
C1394 C 0.89716 0.14839 0.68928 0.0
C1395 C 0.89289 0.13714 0.72715 0.0
C1396 C 0.88819 0.15796 0.68103 0.0
C1397 C 0.87473 0.15652 0.71039 0.0
C1398 C 0.86997 0.14473 0.74715 0.0
H1399 H 0.79552 0.18877 0.65049 0.0
H1400 H 0.81154 0.17246 0.66366 0.0
C1401 C 0.87899 0.13528 0.75558 0.0
C1402 C 0.8656 0.16721 0.70258 0.0
H1403 H 0.85518 0.19658 0.75306 0.0
C1404 C 0.85717 0.16572 0.66102 0.0
C1405 C 0.8652 0.17888 0.73571 0.0
C1406 C 0.87499 0.18217 0.77992 0.0
C1407 C 0.84807 0.17518 0.65211 0.0
C1408 C 0.84696 0.18619 0.68603 0.0
C1409 C 0.85575 0.188 0.72719 0.0
C1410 C 0.83695 0.19609 0.67935 0.0
C1411 C 0.84005 0.17354 0.60599 0.0
C1412 C 0.84556 0.2148 0.68559 0.0
C1413 C 0.83633 0.22418 0.67854 0.0
C1414 C 0.81822 0.21509 0.66508 0.0
C1415 C 0.80952 0.19629 0.66002 0.0
C1416 C 0.81872 0.18692 0.66734 0.0
H1417 H 0.84658 0.16928 0.58045 0.0
H1418 H 0.82562 0.16322 0.60692 0.0
H1419 H 0.8413 0.18645 0.59504 0.0
H1420 H 0.85957 0.22224 0.69509 0.0
H1421 H 0.84356 0.23864 0.6824 0.0
H1422 H 0.93079 0.75951 0.77612 0.0
H1423 H 0.91552 0.72714 0.76227 0.0
H1424 H 0.88595 0.73314 0.65333 0.0
H1425 H 0.90093 0.76555 0.66754 0.0
H1426 H 0.86429 0.7055 0.71433 0.0
H1427 H 0.92239 0.69906 0.66026 0.0
H1428 H 0.92539 0.71054 0.71284 0.0
H1429 H 0.92309 0.72037 0.66176 0.0
C1430 C 0.92111 0.754 0.74902 0.0
C1431 C 0.91716 0.76527 0.72294 0.0
C1432 C 0.91248 0.73545 0.74088 0.0
C1433 C 0.89968 0.72762 0.70641 0.0
C1434 C 0.89584 0.73883 0.67996 0.0
H1435 H 0.82614 0.61992 0.60912 0.0
H1436 H 0.84277 0.65191 0.62576 0.0
C1437 C 0.90454 0.75742 0.68791 0.0
C1438 C 0.88971 0.70771 0.69933 0.0
H1439 H 0.89504 0.67197 0.67237 0.0
C1440 C 0.87102 0.69819 0.70498 0.0
C1441 C 0.89846 0.69805 0.68765 0.0
C1442 C 0.91842 0.7075 0.67987 0.0
C1443 C 0.8609 0.6794 0.69964 0.0
C1444 C 0.86958 0.66975 0.68713 0.0
C1445 C 0.88832 0.67925 0.68198 0.0
C1446 C 0.8594 0.64999 0.67745 0.0
C1447 C 0.841 0.67004 0.70844 0.0
C1448 C 0.86339 0.63803 0.7 0.0
C1449 C 0.85402 0.61955 0.68993 0.0
C1450 C 0.84054 0.6126 0.65668 0.0
C1451 C 0.83657 0.62466 0.63443 0.0
C1452 C 0.84593 0.64305 0.64441 0.0
H1453 H 0.8375 0.67803 0.73135 0.0
H1454 H 0.83384 0.66837 0.67618 0.0
H1455 H 0.83607 0.65657 0.72349 0.0
H1456 H 0.87379 0.643 0.72545 0.0
H1457 H 0.85761 0.61079 0.70752 0.0
H1458 H 0.09933 0.53583 1.00647 0.0
H1459 H 0.06705 0.52083 0.02154 0.0
H1460 H 0.06808 0.571 1.00357 0.0
H1461 H 0.10037 0.58613 0.98877 0.0
H1462 H 0.04824 0.5503 0.0819 0.0
H1463 H 1.02759 0.50987 0.92466 0.0
H1464 H 0.04435 0.50854 0.95777 0.0
H1465 H 0.04954 0.52942 0.93177 0.0
C1466 C 0.09276 0.54374 1.00617 0.0
C1467 C 0.10255 0.56224 0.99625 0.0
C1468 C 0.07422 0.53509 1.01435 0.0
C1469 C 0.06501 0.54471 1.01311 0.0
C1470 C 0.07481 0.56324 1.00441 0.0
H1471 H 0.94883 0.50387 1.00777 0.0
H1472 H 0.98104 0.51952 0.99125 0.0
C1473 C 0.0933 0.57186 0.99579 0.0
C1474 C 0.04521 0.53551 0.02101 0.0
H1475 H 1.00469 0.50386 0.97752 0.0
C1476 C 0.03873 0.54016 0.05904 0.0
C1477 C 0.03272 0.52241 0.99096 0.0
C1478 C 0.0388 0.5173 0.94875 0.0
C1479 C 1.02023 0.53183 0.0683 0.0
C1480 C 1.00776 0.51843 0.03882 0.0
C1481 C 1.0142 0.51405 1.00027 0.0
C1482 C 0.98805 0.50861 0.04813 0.0
C1483 C 1.0141 0.53749 0.10949 0.0
C1484 C 0.98112 0.49697 0.08509 0.0
C1485 C 0.9627 0.4878 0.09431 0.0
C1486 C 0.95057 0.49009 0.06704 0.0
C1487 C 0.95757 0.5016 0.02953 0.0
C1488 C 0.97606 0.51067 0.0201 0.0
H1489 H 1.02485 0.55042 0.12343 0.0
H1490 H 1.00225 0.53885 0.10158 0.0
H1491 H 1.01011 0.52705 0.13588 0.0
H1492 H 0.99 0.49486 0.10675 0.0
H1493 H 0.95798 0.4787 0.12268 0.0
H1494 H 0.4687 0.52767 0.95337 0.0
H1495 H 0.48427 0.51104 0.96798 0.0
H1496 H 0.51588 0.54924 0.07079 0.0
H1497 H 0.50049 0.56613 0.05605 0.0
H1498 H 0.52046 0.52277 0.95948 0.0
H1499 H 0.49866 0.50153 0.13526 0.0
H1500 H 0.48786 0.51013 0.09912 0.0
H1501 H 0.50874 0.52527 0.12619 0.0
C1502 C 0.47896 0.53261 0.97916 0.0
C1503 C 0.4833 0.54838 1.00338 0.0
C1504 C 0.48783 0.52299 0.98759 0.0
C1505 C 0.5012 0.52871 0.02078 0.0
C1506 C 0.50539 0.54427 0.0456 0.0
H1507 H 0.57399 0.49327 0.11488 0.0
H1508 H 0.55691 0.50837 0.10101 0.0
C1509 C 0.49652 0.55394 0.03714 0.0
C1510 C 0.51116 0.51878 0.02797 0.0
H1511 H 0.52146 0.49644 0.10703 0.0
C1512 C 0.52058 0.51693 0.9917 0.0
C1513 C 0.51142 0.51114 0.06998 0.0
C1514 C 0.50101 0.51194 0.10981 0.0
C1515 C 0.53054 0.50808 0.9965 0.0
C1516 C 0.53083 0.50045 0.03854 0.0
C1517 C 0.52131 0.50223 0.07475 0.0
C1518 C 0.54128 0.49103 0.04618 0.0
C1519 C 0.54112 0.50753 0.95674 0.0
C1520 C 0.53825 0.47605 0.02023 0.0
C1521 C 0.54807 0.4673 0.02815 0.0
C1522 C 0.56101 0.47312 0.06267 0.0
C1523 C 0.56395 0.48811 0.08854 0.0
C1524 C 0.55421 0.49687 0.08051 0.0
H1525 H 0.54351 0.51804 0.93157 0.0
H1526 H 0.55427 0.50937 0.96753 0.0
H1527 H 0.53348 0.49428 0.9399 0.0
H1528 H 0.52809 0.47095 0.9942 0.0
H1529 H 0.54526 0.45572 1.00785 0.0
H1530 H 0.55724 0.08653 0.10248 0.0
H1531 H 0.54245 0.05427 0.08776 0.0
H1532 H 0.57438 0.0643 0.96829 0.0
H1533 H 0.5895 0.09674 0.98319 0.0
H1534 H 0.52245 0.03474 1.01126 0.0
H1535 H 0.58194 0.02692 0.03777 0.0
H1536 H 0.58115 0.04644 0.05673 0.0
H1537 H 0.58489 0.04403 0.99835 0.0
C1538 C 0.5613 0.08193 0.07326 0.0
C1539 C 0.57478 0.09433 0.04433 0.0
C1540 C 0.55271 0.06342 0.06474 0.0
C1541 C 0.55744 0.05674 0.0273 0.0
C1542 C 0.57068 0.06906 0.99785 0.0
H1543 H 0.52045 0.94843 0.92578 0.0
H1544 H 0.53632 0.98075 0.94037 0.0
C1545 C 0.57921 0.08764 1.00619 0.0
C1546 C 0.54827 0.03692 0.01904 0.0
H1547 H 0.5554 1.00126 1.01291 0.0
C1548 C 0.52966 0.02742 1.01172 0.0
C1549 C 0.55762 0.0273 0.01956 0.0
C1550 C 0.57748 0.0366 0.02887 0.0
C1551 C 0.52023 1.00872 1.00425 0.0
C1552 C 0.52955 0.99904 1.00519 0.0
C1553 C 0.54819 1.00857 1.01233 0.0
C1554 C 0.52025 0.97913 0.99793 0.0
C1555 C 0.50043 0.99958 0.99421 0.0
C1556 C 0.50616 0.96721 0.02608 0.0
C1557 C 0.49696 0.94863 1.01771 0.0
C1558 C 0.50166 0.94146 0.98099 0.0
C1559 C 0.51622 0.9534 0.95391 0.0
C1560 C 0.52541 0.97195 0.96236 0.0
H1561 H 0.49637 1.0093 0.98269 0.0
H1562 H 0.49659 0.98908 0.96799 0.0
H1563 H 0.4928 0.99306 0.02528 0.0
H1564 H 0.50212 0.97229 0.05438 0.0
H1565 H 0.4858 0.93995 0.03919 0.0
H1566 H 0.12251 0.18517 0.45069 0.0
H1567 H 0.13034 0.16807 0.5025 0.0
H1568 H 0.13796 0.14102 0.39006 0.0
H1569 H 0.12993 0.15813 0.3378 0.0
H1570 H 0.11736 0.12993 0.51804 0.0
H1571 H 0.18753 0.16674 0.45568 0.0
H1572 H 0.17175 0.1742 0.44419 0.0
H1573 H 0.17034 0.15549 0.41389 0.0
C1574 C 0.12532 0.17518 0.43692 0.0
C1575 C 0.12534 0.17292 0.38991 0.0
C1576 C 0.12991 0.16544 0.46674 0.0
C1577 C 0.13504 0.15335 0.45058 0.0
C1578 C 0.13424 0.15036 0.40366 0.0
H1579 H 0.19388 0.10801 0.58603 0.0
H1580 H 0.17685 0.11513 0.53241 0.0
C1581 C 0.12938 0.15998 0.37369 0.0
C1582 C 0.14234 0.14496 0.48274 0.0
H1583 H 0.18106 0.14573 0.51319 0.0
C1584 C 0.13127 0.1333 0.51679 0.0
C1585 C 0.16051 0.14933 0.48169 0.0
C1586 C 0.17334 0.16222 0.44721 0.0
C1587 C 0.13774 0.12573 0.54896 0.0
C1588 C 0.15605 0.13034 0.54843 0.0
C1589 C 0.16704 0.14199 0.51414 0.0
C1590 C 0.16426 0.12342 0.58255 0.0
C1591 C 0.12466 0.1125 0.58244 0.0
C1592 C 0.16265 0.12496 0.62948 0.0
C1593 C 0.17209 0.12031 0.66056 0.0
C1594 C 0.18368 0.11431 0.64559 0.0
C1595 C 0.18482 0.11224 0.5989 0.0
C1596 C 0.1752 0.11656 0.56802 0.0
H1597 H 0.11071 0.1059 0.56938 0.0
H1598 H 0.12798 0.10194 0.5909 0.0
H1599 H 0.1251 0.11974 0.61375 0.0
H1600 H 0.15484 0.13066 0.64223 0.0
H1601 H 0.17135 0.1227 0.69607 0.0
H1602 H 0.89922 0.06892 0.64254 0.0
H1603 H 0.89415 0.04953 0.57768 0.0
H1604 H 0.93748 0.04173 0.62049 0.0
H1605 H 0.94283 0.06158 0.686 0.0
H1606 H 0.9182 0.05113 0.50504 0.0
H1607 H 0.89176 0.98955 0.61025 0.0
H1608 H 0.89316 1.00993 0.63107 0.0
H1609 H 0.91312 1.00857 0.62519 0.0
C1610 C 0.90792 0.06333 0.638 0.0
C1611 C 0.92148 0.06692 0.66975 0.0
C1612 C 0.90496 0.05217 0.60067 0.0
C1613 C 0.91523 0.04387 0.59397 0.0
C1614 C 0.92921 0.0478 0.62483 0.0
H1615 H 0.89694 0.97834 0.3432 0.0
H1616 H 0.91274 0.99846 0.40737 0.0
C1617 C 0.9324 0.05931 0.66214 0.0
C1618 C 0.91057 0.03071 0.55559 0.0
H1619 H 0.88967 0.98561 0.53181 0.0
C1620 C 0.91229 0.03683 0.51092 0.0
C1621 C 0.90256 1.01196 0.56283 0.0
C1622 C 0.89988 1.00445 0.60982 0.0
C1623 C 0.90604 0.02484 0.47387 0.0
C1624 C 0.89768 1.00605 0.48117 0.0
C1625 C 0.89622 0.99995 0.52579 0.0
C1626 C 0.88863 0.9926 0.44362 0.0
C1627 C 0.90763 0.0323 0.42712 0.0
C1628 C 0.86985 0.98207 0.44279 0.0
C1629 C 0.86089 0.9707 0.40625 0.0
C1630 C 0.87035 0.96912 0.3695 0.0
C1631 C 0.88921 0.97895 0.37114 0.0
C1632 C 0.89825 0.99064 0.40768 0.0
H1633 H 0.91245 0.04693 0.42742 0.0
H1634 H 0.91722 0.03003 0.40731 0.0
H1635 H 0.89447 0.02524 0.40968 0.0
H1636 H 0.86201 0.98318 0.46975 0.0
H1637 H 0.84637 0.96346 0.40614 0.0
H1638 H 0.09245 0.9367 0.38388 0.0
H1639 H 0.07358 0.93217 0.45063 0.0
H1640 H 0.03758 0.87765 0.40895 0.0
H1641 H 0.05583 0.88217 0.34276 0.0
H1642 H 1.01852 0.89166 0.44 0.0
H1643 H 0.07219 0.90587 0.56408 0.0
H1644 H 0.07695 0.92396 0.52616 0.0
H1645 H 0.07488 0.90346 0.50478 0.0
C1646 C 0.08041 0.92384 0.38875 0.0
C1647 C 0.07587 0.90981 0.3577 0.0
C1648 C 0.06967 0.92115 0.42735 0.0
C1649 C 0.05414 0.90437 0.4359 0.0
C1650 C 0.04939 0.89069 0.40391 0.0
H1651 H 1.00024 0.84997 0.67838 0.0
H1652 H 1.0192 0.86409 0.61341 0.0
C1653 C 0.06002 0.89333 0.36579 0.0
C1654 C 0.0428 0.90051 0.47791 0.0
H1655 H 0.04371 0.89748 0.59298 0.0
C1656 C 1.02411 0.89314 0.47346 0.0
C1657 C 0.04982 0.90214 0.52199 0.0
C1658 C 0.06952 0.90913 0.52981 0.0
C1659 C 1.01241 0.88702 0.511 0.0
C1660 C 1.01942 0.88853 0.55504 0.0
C1661 C 0.03815 0.89634 0.55959 0.0
C1662 C 1.00761 0.8805 0.59613 0.0
C1663 C 0.9925 0.87815 0.50272 0.0
C1664 C 0.99458 0.88496 0.60951 0.0
C1665 C 0.98343 0.8767 0.64735 0.0
C1666 C 0.98507 0.8638 0.67298 0.0
C1667 C 0.99837 0.85973 0.65985 0.0
C1668 C 1.00939 0.86791 0.62239 0.0
H1669 H 0.98904 0.87432 0.46686 0.0
H1670 H 0.98508 0.86593 0.52375 0.0
H1671 H 0.98783 0.88764 0.51175 0.0
H1672 H 0.99302 0.89487 0.59079 0.0
H1673 H 0.97344 0.88027 0.65617 0.0
H1674 H 0.93316 0.85508 0.60756 0.0
H1675 H 0.92782 0.86356 0.53292 0.0
H1676 H 0.87455 0.85018 0.5735 0.0
H1677 H 0.87983 0.84185 0.64839 0.0
H1678 H 0.8922 0.8387 0.47164 0.0
H1679 H 0.90736 0.90673 0.52732 0.0
H1680 H 0.91708 0.89477 0.55422 0.0
H1681 H 0.89408 0.8881 0.56425 0.0
C1682 C 0.92036 0.85406 0.60065 0.0
C1683 C 0.90693 0.84796 0.63379 0.0
C1684 C 0.9173 0.85872 0.558 0.0
C1685 C 0.90084 0.85743 0.54818 0.0
C1686 C 0.88733 0.85116 0.58083 0.0
H1687 H 0.83958 0.86332 0.33749 0.0
H1688 H 0.85389 0.85334 0.39206 0.0
C1689 C 0.89033 0.8464 0.62338 0.0
C1690 C 0.89785 0.86331 0.50438 0.0
H1691 H 0.89401 0.89697 0.45574 0.0
C1692 C 0.89281 0.85152 0.46771 0.0
C1693 C 0.89896 0.88013 0.49973 0.0
C1694 C 0.90476 0.89329 0.53829 0.0
C1695 C 0.88796 0.85586 0.42657 0.0
C1696 C 0.88803 0.87225 0.42273 0.0
C1697 C 0.89398 0.8844 0.45886 0.0
C1698 C 0.88037 0.87649 0.38354 0.0
C1699 C 0.88251 0.84277 0.38796 0.0
C1700 C 0.89058 0.89271 0.36045 0.0
C1701 C 0.8824 0.89849 0.32955 0.0
C1702 C 0.86387 0.88818 0.32151 0.0
C1703 C 0.8539 0.87145 0.34275 0.0
C1704 C 0.86208 0.8657 0.37376 0.0
H1705 H 0.88856 0.83407 0.39111 0.0
H1706 H 0.86772 0.83396 0.3881 0.0
H1707 H 0.88651 0.84988 0.35515 0.0
H1708 H 0.90471 0.90124 0.36777 0.0
H1709 H 0.89045 0.91128 0.31297 0.0
H1710 H 0.1443 0.94826 0.41214 0.0
H1711 H 0.15279 0.96166 0.4869 0.0
H1712 H 0.18911 1.01298 0.42729 0.0
H1713 H 0.1801 0.99987 0.3522 0.0
H1714 H 0.18547 0.98061 0.53291 0.0
H1715 H 0.15422 0.02231 0.50032 0.0
H1716 H 0.15068 1.00397 0.46416 0.0
H1717 H 0.17088 0.02541 0.45955 0.0
C1718 C 0.15401 0.96242 0.41485 0.0
C1719 C 0.16121 0.97312 0.37621 0.0
C1720 C 0.15899 0.96999 0.4576 0.0
C1721 C 0.17127 0.98833 0.46235 0.0
C1722 C 0.17934 0.99883 0.42406 0.0
H1723 H 0.22679 0.0539 0.68738 0.0
H1724 H 0.21648 0.03162 0.62711 0.0
C1725 C 0.17429 0.9913 0.38124 0.0
C1726 C 0.17479 0.99673 0.50716 0.0
H1727 H 0.17187 0.02899 0.56644 0.0
C1728 C 0.18242 0.99111 0.54053 0.0
C1729 C 0.1703 1.01004 0.51712 0.0
C1730 C 0.16089 1.01568 0.48358 0.0
C1731 C 0.18634 0.99903 0.58337 0.0
C1732 C 0.18281 1.01309 0.5924 0.0
C1733 C 0.17461 1.01822 0.55941 0.0
C1734 C 0.18846 0.02362 0.63446 0.0
C1735 C 0.19415 0.99225 0.61843 0.0
C1736 C 0.17613 0.0264 0.65884 0.0
C1737 C 0.18207 0.03937 0.69259 0.0
C1738 C 0.20039 0.04962 0.70269 0.0
C1739 C 0.21257 0.04598 0.68047 0.0
C1740 C 0.20667 0.03319 0.64623 0.0
H1741 H 0.19024 0.97802 0.61208 0.0
H1742 H 0.20899 1.00036 0.61702 0.0
H1743 H 0.18977 0.99336 0.65282 0.0
H1744 H 0.16202 1.01916 0.65016 0.0
H1745 H 0.17246 0.04189 0.70971 0.0
H1746 H 0.98999 0.17842 0.68579 0.0
H1747 H 1.00631 0.19146 0.61543 0.0
H1748 H 1.0022 0.14084 0.58136 0.0
H1749 H 0.98618 0.12783 0.65149 0.0
H1750 H 0.03903 0.17613 0.57944 0.0
H1751 H 0.98333 0.17496 0.48096 0.0
H1752 H 0.98716 0.18258 0.53864 0.0
H1753 H 0.97884 0.15934 0.52643 0.0
C1754 C 0.99269 0.17015 0.66338 0.0
C1755 C 0.98681 0.15211 0.67393 0.0
C1756 C 1.00184 0.17755 0.62322 0.0
C1757 C 1.00521 0.16699 0.59344 0.0
C1758 C 0.99952 0.14907 0.60402 0.0
H1759 H 0.05709 0.16497 0.35671 0.0
H1760 H 0.03914 0.15964 0.42467 0.0
C1761 C 0.99033 0.14167 0.64389 0.0
C1762 C 1.01523 0.17454 0.55164 0.0
H1763 H 1.00994 0.18237 0.44179 0.0
C1764 C 0.03282 0.17779 0.54946 0.0
C1765 C 1.00696 0.17669 0.513 0.0
C1766 C 0.98801 0.17322 0.51441 0.0
C1767 C 0.04222 0.18252 0.50884 0.0
C1768 C 0.03361 0.18366 0.46957 0.0
C1769 C 1.01634 0.18131 0.47213 0.0
C1770 C 0.04209 0.18612 0.42532 0.0
C1771 C 0.06112 0.18578 0.50789 0.0
C1772 C 0.04892 0.20249 0.40256 0.0
C1773 C 0.0592 0.20557 0.36381 0.0
C1774 C 0.06272 0.19229 0.34759 0.0
C1775 C 0.05483 0.17551 0.36901 0.0
C1776 C 0.04457 0.17245 0.4076 0.0
H1777 H 0.0672 0.18858 0.54203 0.0
H1778 H 0.06095 0.17364 0.49461 0.0
H1779 H 0.06973 0.19723 0.48548 0.0
H1780 H 0.04705 0.21314 0.41596 0.0
H1781 H 0.06522 0.21867 0.34816 0.0
H1782 H 0.80956 0.49984 0.66921 0.0
H1783 H 0.81958 0.48571 0.72536 0.0
H1784 H 0.7926 0.49795 0.82941 0.0
H1785 H 0.78231 0.51156 0.774 0.0
H1786 H 0.84074 0.49821 0.79825 0.0
H1787 H 0.77416 0.4466 0.85886 0.0
H1788 H 0.7769 0.45956 0.80879 0.0
H1789 H 0.77678 0.46854 0.86355 0.0
C1790 C 0.80558 0.49934 0.70395 0.0
C1791 C 0.79493 0.50684 0.71652 0.0
C1792 C 0.81138 0.49126 0.73627 0.0
C1793 C 0.80663 0.49028 0.78209 0.0
C1794 C 0.79611 0.49787 0.79449 0.0
H1795 H 0.83675 0.47004 0.04317 0.0
H1796 H 0.82372 0.47614 0.97698 0.0
C1797 C 0.79029 0.50585 0.76241 0.0
C1798 C 0.81306 0.48203 0.81736 0.0
H1799 H 0.79899 0.45326 0.90779 0.0
C1800 C 0.83153 0.48816 0.82164 0.0
C1801 C 0.80123 0.46878 0.84835 0.0
C1802 C 0.78116 0.46035 0.84438 0.0
C1803 C 0.83842 0.48216 0.85671 0.0
C1804 C 0.82663 0.46949 0.88867 0.0
C1805 C 0.80815 0.46299 0.8837 0.0
C1806 C 0.83328 0.4639 0.92926 0.0
C1807 C 0.85841 0.49002 0.8605 0.0
C1808 C 0.84255 0.4543 0.92544 0.0
C1809 C 0.84973 0.4504 0.96385 0.0
C1810 C 0.84789 0.45609 1.00696 0.0
C1811 C 0.83814 0.46515 1.01068 0.0
C1812 C 0.83077 0.46878 0.97264 0.0
H1813 H 0.86591 0.5017 0.83778 0.0
H1814 H 0.86292 0.49434 0.89563 0.0
H1815 H 0.86187 0.47961 0.85151 0.0
H1816 H 0.84459 0.45017 0.8926 0.0
H1817 H 0.85754 0.44382 0.95952 0.0
H1818 H 0.55977 0.38685 1.01196 0.0
H1819 H 0.55444 0.36739 0.94775 0.0
H1820 H 0.61122 0.39347 0.92274 0.0
H1821 H 0.61674 0.41356 0.98765 0.0
H1822 H 0.59292 0.38831 0.84419 0.0
H1823 H 0.5597 0.32396 0.9355 0.0
H1824 H 0.5489 0.3367 0.94694 0.0
H1825 H 0.5718 0.34524 0.96429 0.0
C1826 C 0.57129 0.38851 0.99335 0.0
C1827 C 0.58878 0.4019 1.00581 0.0
C1828 C 0.56815 0.37711 0.95642 0.0
C1829 C 0.58235 0.37844 0.93034 0.0
C1830 C 0.59992 0.39188 0.94229 0.0
H1831 H 0.55282 0.29347 0.71918 0.0
H1832 H 0.56748 0.31292 0.78516 0.0
C1833 C 0.60311 0.40338 0.97967 0.0
C1834 C 0.57847 0.36627 0.88985 0.0
H1835 H 0.55375 0.32225 0.85572 0.0
C1836 C 0.58456 0.37386 0.847 0.0
C1837 C 0.56781 0.34724 0.89268 0.0
C1838 C 0.56184 0.3378 0.93741 0.0
C1839 C 0.57957 0.36323 0.80739 0.0
C1840 C 0.56779 0.34434 0.80994 0.0
C1841 C 0.56252 0.33665 0.853 0.0
C1842 C 0.55981 0.33266 0.76852 0.0
C1843 C 0.58704 0.37249 0.76304 0.0
C1844 C 0.55046 0.33695 0.73679 0.0
C1845 C 0.54218 0.32593 0.69928 0.0
C1846 C 0.54272 0.31 0.69183 0.0
C1847 C 0.55223 0.30567 0.72324 0.0
C1848 C 0.56054 0.31679 0.76126 0.0
H1849 H 0.60023 0.38489 0.76766 0.0
H1850 H 0.58869 0.36355 0.73894 0.0
H1851 H 0.57776 0.37647 0.74812 0.0
H1852 H 0.54912 0.34869 0.74154 0.0
H1853 H 0.53502 0.32986 0.67625 0.0
H1854 H 0.65196 0.20531 0.02457 0.0
H1855 H 0.67743 0.2186 0.97235 0.0
H1856 H 0.6416 0.21118 0.86283 0.0
H1857 H 0.61619 0.1979 0.91453 0.0
H1858 H 0.68401 0.20348 0.89806 0.0
H1859 H 0.68026 0.26286 0.84211 0.0
H1860 H 0.66828 0.2498 0.89076 0.0
H1861 H 0.65965 0.24202 0.8351 0.0
C1862 C 0.64945 0.20656 0.98946 0.0
C1863 C 0.6318 0.20035 0.9742 0.0
C1864 C 0.66411 0.21423 0.95944 0.0
C1865 C 0.66169 0.21622 0.91328 0.0
C1866 C 0.64411 0.21026 0.89816 0.0
H1867 H 0.73344 0.25044 0.67495 0.0
H1868 H 0.70799 0.24191 0.72652 0.0
C1869 C 0.62947 0.20252 0.92803 0.0
C1870 C 0.67729 0.22364 0.88074 0.0
H1871 H 0.69996 0.25627 0.80106 0.0
C1872 C 0.68752 0.21511 0.87716 0.0
C1873 C 0.68196 0.23872 0.85266 0.0
C1874 C 0.67208 0.24901 0.8555 0.0
C1875 C 0.70189 0.22095 0.84639 0.0
C1876 C 0.70675 0.23618 0.81869 0.0
C1877 C 0.69644 0.24466 0.82199 0.0
C1878 C 0.72268 0.24358 0.78718 0.0
C1879 C 0.71141 0.21031 0.84305 0.0
C1880 C 0.7398 0.24836 0.80367 0.0
C1881 C 0.75428 0.25324 0.77431 0.0
C1882 C 0.75235 0.25391 0.72736 0.0
C1883 C 0.73557 0.25041 0.71086 0.0
C1884 C 0.72092 0.24532 0.74044 0.0
H1885 H 0.70285 0.19633 0.85524 0.0
H1886 H 0.71548 0.20982 0.80788 0.0
H1887 H 0.72363 0.21675 0.86436 0.0
H1888 H 0.74187 0.24775 0.83942 0.0
H1889 H 0.76694 0.25579 0.78836 0.0
H1890 H 0.52698 0.15221 0.02948 0.0
H1891 H 0.51323 0.16111 0.97109 0.0
H1892 H 0.55696 0.21566 0.97954 0.0
H1893 H 0.57064 0.20706 0.03932 0.0
H1894 H 0.51965 0.2097 0.95954 0.0
H1895 H 0.54332 0.17296 0.85072 0.0
H1896 H 0.52937 0.16095 0.89784 0.0
H1897 H 0.55139 0.17973 0.90742 0.0
C1898 C 0.53343 0.16624 0.0203 0.0
C1899 C 0.55019 0.17885 0.03838 0.0
C1900 C 0.52552 0.17126 0.98676 0.0
C1901 C 0.53428 0.18892 0.97075 0.0
C1902 C 0.5501 0.20192 0.99151 0.0
H1903 H 0.53887 0.25061 0.74394 0.0
H1904 H 0.53861 0.23907 0.81908 0.0
C1905 C 0.558 0.19693 0.02524 0.0
C1906 C 0.52869 0.19316 0.92795 0.0
H1907 H 0.53024 0.18771 0.81484 0.0
C1908 C 0.52174 0.20478 0.92782 0.0
C1909 C 0.53149 0.18664 0.88689 0.0
C1910 C 0.5394 0.17447 0.88535 0.0
C1911 C 0.51771 0.2103 0.88721 0.0
C1912 C 0.52115 0.20429 0.8461 0.0
C1913 C 0.52756 0.19222 0.84647 0.0
C1914 C 0.51969 0.2114 0.80214 0.0
C1915 C 0.50992 0.22254 0.88871 0.0
C1916 C 0.50947 0.19961 0.76749 0.0
C1917 C 0.50982 0.20615 0.72434 0.0
C1918 C 0.5204 0.22458 0.71526 0.0
C1919 C 0.53042 0.23638 0.7502 0.0
C1920 C 0.53016 0.22983 0.7932 0.0
H1921 H 0.50261 0.22095 0.92071 0.0
H1922 H 0.52096 0.2367 0.88668 0.0
H1923 H 0.50062 0.21991 0.86012 0.0
H1924 H 0.50144 0.18531 0.77371 0.0
H1925 H 0.50179 0.19681 0.69816 0.0
H1926 H 0.88102 0.37652 0.04288 0.0
H1927 H 0.87794 0.35964 0.97401 0.0
H1928 H 0.87574 0.4007 0.89581 0.0
H1929 H 0.87959 0.41796 0.96398 0.0
H1930 H 0.84872 0.34626 0.92148 0.0
H1931 H 0.90833 0.39054 0.8194 0.0
H1932 H 0.90713 0.39394 0.879 0.0
H1933 H 0.89726 0.40218 0.83901 0.0
C1934 C 0.88036 0.38217 1.01091 0.0
C1935 C 0.88035 0.39848 1.00891 0.0
C1936 C 0.87856 0.3725 0.97165 0.0
C1937 C 0.87683 0.37904 0.92983 0.0
C1938 C 0.87744 0.3956 0.92761 0.0
H1939 H 0.81413 0.32192 0.70302 0.0
H1940 H 0.82796 0.34035 0.76989 0.0
C1941 C 0.87931 0.40529 0.96675 0.0
C1942 C 0.87209 0.36764 0.88931 0.0
H1943 H 0.88242 0.36815 0.77833 0.0
C1944 C 0.85627 0.35091 0.89039 0.0
C1945 C 0.88205 0.37366 0.84896 0.0
C1946 C 0.89974 0.39099 0.84662 0.0
C1947 C 0.84962 0.34042 0.85155 0.0
C1948 C 0.85887 0.34706 0.8105 0.0
C1949 C 0.8752 0.36332 0.80981 0.0
C1950 C 0.85145 0.33742 0.76788 0.0
C1951 C 0.83263 0.32242 0.8547 0.0
C1952 C 0.86051 0.33041 0.74377 0.0
C1953 C 0.85267 0.31996 0.70554 0.0
C1954 C 0.83568 0.31641 0.69093 0.0
C1955 C 0.82707 0.32419 0.71403 0.0
C1956 C 0.83493 0.33468 0.75212 0.0
H1957 H 0.83007 0.31719 0.8897 0.0
H1958 H 0.8211 0.32389 0.84398 0.0
H1959 H 0.83324 0.31239 0.83239 0.0
H1960 H 0.87331 0.33249 0.75546 0.0
H1961 H 0.85955 0.31401 0.68868 0.0
H1962 H 0.65935 0.4627 0.96609 0.0
H1963 H 0.67027 0.46775 0.88838 0.0
H1964 H 0.6465 0.5008 0.86514 0.0
H1965 H 0.63607 0.49621 0.94324 0.0
H1966 H 0.6539 0.46146 0.80545 0.0
H1967 H 0.69849 0.5347 0.83564 0.0
H1968 H 0.68716 0.51908 0.88076 0.0
H1969 H 0.67513 0.52646 0.84558 0.0
C1970 C 0.65647 0.471 0.94424 0.0
C1971 C 0.64724 0.47938 0.96064 0.0
C1972 C 0.6626 0.4738 0.89995 0.0
C1973 C 0.65942 0.48487 0.87134 0.0
C1974 C 0.64946 0.49257 0.88706 0.0
H1975 H 0.71852 0.53152 0.62474 0.0
H1976 H 0.69206 0.51832 0.67319 0.0
C1977 C 0.64359 0.49001 0.93158 0.0
C1978 C 0.66759 0.48922 0.82615 0.0
H1979 H 0.69954 0.52379 0.76444 0.0
C1980 C 0.66372 0.47511 0.79614 0.0
C1981 C 0.68036 0.50705 0.81419 0.0
C1982 C 0.68568 0.52269 0.84578 0.0
C1983 C 0.67282 0.47832 0.75505 0.0
C1984 C 0.68607 0.49604 0.74407 0.0
C1985 C 0.68922 0.51022 0.77293 0.0
C1986 C 0.69876 0.50015 0.70665 0.0
C1987 C 0.66854 0.46274 0.72431 0.0
C1988 C 0.71088 0.49381 0.70846 0.0
C1989 C 0.7261 0.50147 0.68127 0.0
C1990 C 0.72946 0.51567 0.65212 0.0
C1991 C 0.71647 0.52087 0.64761 0.0
C1992 C 0.70127 0.51323 0.67486 0.0
H1993 H 0.65468 0.45146 0.72982 0.0
H1994 H 0.67009 0.46684 0.68843 0.0
H1995 H 0.67791 0.45775 0.7315 0.0
H1996 H 0.70939 0.48401 0.73347 0.0
H1997 H 0.73587 0.49724 0.6858 0.0
H1998 H 0.52654 0.82362 0.35996 0.0
H1999 H 0.51269 0.82891 0.29504 0.0
H2000 H 0.49335 0.77468 0.24984 0.0
H2001 H 0.50773 0.76934 0.31534 0.0
H2002 H 0.5073 0.79774 0.17991 0.0
H2003 H 0.46198 0.81508 0.26879 0.0
H2004 H 0.48457 0.82884 0.28807 0.0
H2005 H 0.47316 0.80493 0.29725 0.0
C2006 C 0.5192 0.81263 0.33667 0.0
C2007 C 0.5183 0.79596 0.34354 0.0
C2008 C 0.51107 0.81568 0.29937 0.0
C2009 C 0.50152 0.80218 0.26728 0.0
C2010 C 0.50044 0.78539 0.274 0.0
H2011 H 0.44517 0.8268 0.04818 0.0
H2012 H 0.45053 0.81233 0.11351 0.0
C2013 C 0.50859 0.78227 0.31177 0.0
C2014 C 0.49373 0.80619 0.22598 0.0
H2015 H 0.4692 0.82562 0.19214 0.0
C2016 C 0.49877 0.8036 0.1828 0.0
C2017 C 0.48226 0.81361 0.22873 0.0
C2018 C 0.47502 0.81559 0.2732 0.0
C2019 C 0.49355 0.80899 0.14322 0.0
C2020 C 0.48318 0.81762 0.14621 0.0
C2021 C 0.47733 0.81932 0.18919 0.0
C2022 C 0.47938 0.82595 0.1057 0.0
C2023 C 0.49926 0.80531 0.09839 0.0
C2024 C 0.49362 0.83869 0.07938 0.0
C2025 C 0.49057 0.84689 0.04222 0.0
C2026 C 0.47313 0.84287 0.02971 0.0
C2027 C 0.45876 0.83019 0.05617 0.0
C2028 C 0.46186 0.82193 0.0938 0.0
H2029 H 0.5012 0.7935 0.10027 0.0
H2030 H 0.48926 0.80283 0.0717 0.0
H2031 H 0.51226 0.81709 0.08856 0.0
H2032 H 0.5073 0.8426 0.08797 0.0
H2033 H 0.50214 0.85662 0.0234 0.0
H2034 H 0.26739 0.75583 0.2599 0.0
H2035 H 0.2599 0.73131 0.20678 0.0
H2036 H 0.25049 0.69537 0.3175 0.0
H2037 H 0.25815 0.72009 0.37108 0.0
H2038 H 0.27243 0.70621 0.19025 0.0
H2039 H 0.2018 0.67213 0.24903 0.0
H2040 H 0.21762 0.69524 0.26259 0.0
H2041 H 0.21853 0.67746 0.2917 0.0
C2042 C 0.26427 0.74284 0.27305 0.0
C2043 C 0.26363 0.74009 0.31997 0.0
C2044 C 0.25986 0.72874 0.24247 0.0
C2045 C 0.2543 0.71127 0.25769 0.0
C2046 C 0.25452 0.70862 0.30457 0.0
H2047 H 0.19666 0.60787 0.11667 0.0
H2048 H 0.21319 0.63178 0.17146 0.0
C2049 C 0.25919 0.72286 0.33532 0.0
C2050 C 0.24721 0.69585 0.22454 0.0
H2051 H 0.20872 0.65797 0.19143 0.0
C2052 C 0.25852 0.6956 0.19069 0.0
C2053 C 0.22902 0.68195 0.22448 0.0
C2054 C 0.21593 0.68165 0.25858 0.0
C2055 C 0.25228 0.68182 0.15771 0.0
C2056 C 0.23397 0.66801 0.15721 0.0
C2057 C 0.22274 0.66833 0.19125 0.0
C2058 C 0.22602 0.65307 0.12234 0.0
C2059 C 0.26559 0.68203 0.12451 0.0
C2060 C 0.22794 0.65654 0.07554 0.0
C2061 C 0.21876 0.64259 0.04376 0.0
C2062 C 0.20715 0.62481 0.05786 0.0
C2063 C 0.20572 0.62131 0.10443 0.0
C2064 C 0.21506 0.63511 0.13599 0.0
H2065 H 0.27946 0.68941 0.1381 0.0
H2066 H 0.26238 0.66821 0.11549 0.0
H2067 H 0.2653 0.68901 0.09343 0.0
H2068 H 0.23578 0.67018 0.06342 0.0
H2069 H 0.21975 0.64595 1.00836 0.0
H2070 H 0.32714 0.55234 0.36947 0.0
H2071 H 0.35231 0.56929 0.31705 0.0
H2072 H 0.31905 0.53778 0.20646 0.0
H2073 H 0.29414 0.52117 0.25811 0.0
H2074 H 0.3694 0.55608 0.26437 0.0
H2075 H 0.34166 0.5869 0.15092 0.0
H2076 H 0.33162 0.57738 0.20459 0.0
H2077 H 0.32702 0.56313 0.15616 0.0
C2078 C 0.32502 0.54951 0.33378 0.0
C2079 C 0.3084 0.53555 0.31813 0.0
C2080 C 0.33953 0.55907 0.30373 0.0
C2081 C 0.33774 0.55511 0.25717 0.0
C2082 C 0.32093 0.54158 0.24164 0.0
H2083 H 0.40654 0.58129 1.01753 0.0
H2084 H 0.38176 0.56987 0.07185 0.0
C2085 C 0.30658 0.53201 0.27148 0.0
C2086 C 0.35353 0.56396 0.22516 0.0
H2087 H 0.36703 0.58553 0.12325 0.0
C2088 C 0.36893 0.56272 0.23385 0.0
C2089 C 0.3531 0.57254 0.18471 0.0
C2090 C 0.33754 0.57524 0.17369 0.0
C2091 C 0.38342 0.56922 0.20312 0.0
C2092 C 0.38292 0.57766 0.16245 0.0
C2093 C 0.3676 0.57906 0.154 0.0
C2094 C 0.39811 0.5851 0.12854 0.0
C2095 C 0.39887 0.5663 0.21394 0.0
C2096 C 0.41572 0.5979 0.14123 0.0
C2097 C 0.42995 0.60442 0.11016 0.0
C2098 C 0.42715 0.59851 0.06499 0.0
C2099 C 0.40941 0.58612 0.05187 0.0
C2100 C 0.39514 0.57957 0.0831 0.0
H2101 H 0.39495 0.55522 0.23851 0.0
H2102 H 0.40403 0.56313 0.18313 0.0
H2103 H 0.4099 0.57872 0.22912 0.0
H2104 H 0.41853 0.60292 0.17541 0.0
H2105 H 0.44328 0.61403 0.12189 0.0
H2106 H 0.24833 0.54129 0.33178 0.0
H2107 H 0.23639 0.54313 0.25855 0.0
H2108 H 0.19059 0.49035 0.27827 0.0
H2109 H 0.20255 0.48829 0.35126 0.0
H2110 H 0.22838 0.51564 0.1877 0.0
H2111 H 0.17023 0.5235 0.23633 0.0
H2112 H 0.18882 0.52941 0.27404 0.0
H2113 H 0.17283 0.50626 0.26359 0.0
C2114 C 0.23563 0.53017 0.3207 0.0
C2115 C 0.22642 0.51464 0.3471 0.0
C2116 C 0.22884 0.53124 0.27903 0.0
C2117 C 0.21268 0.51685 0.26332 0.0
C2118 C 0.20302 0.50162 0.29025 0.0
H2119 H 0.1617 0.51938 1.01198 0.0
H2120 H 0.16817 0.50646 0.07768 0.0
C2121 C 0.20982 0.50053 0.332 0.0
C2122 C 0.20661 0.5175 0.21751 0.0
H2123 H 0.17636 0.52399 0.1592 0.0
C2124 C 0.2169 0.51727 0.18127 0.0
C2125 C 0.19149 0.51934 0.20962 0.0
C2126 C 0.18017 0.51974 0.2478 0.0
C2127 C 0.21282 0.51955 0.13706 0.0
C2128 C 0.19831 0.52244 0.12932 0.0
C2129 C 0.18747 0.52174 0.16539 0.0
C2130 C 0.1954 0.52838 0.08525 0.0
C2131 C 0.22427 0.51918 0.09918 0.0
C2132 C 0.20872 0.54476 0.06738 0.0
C2133 C 0.20509 0.5521 0.02989 0.0
C2134 C 0.18804 0.54327 1.00992 0.0
C2135 C 0.17502 0.52639 0.02641 0.0
C2136 C 0.17865 0.51905 0.06403 0.0
H2137 H 0.23042 0.51094 0.10813 0.0
H2138 H 0.21635 0.51377 0.06779 0.0
H2139 H 0.2353 0.53306 0.09252 0.0
H2140 H 0.22162 0.55233 0.08382 0.0
H2141 H 0.2154 0.56503 1.01754 0.0
H2142 H 0.52881 0.70693 0.31454 0.0
H2143 H 0.53053 0.70013 0.23552 0.0
H2144 H 0.55596 0.75648 0.20303 0.0
H2145 H 0.55443 0.7634 0.28208 0.0
H2146 H 0.52718 0.73581 0.14913 0.0
H2147 H 0.57181 0.70726 0.15523 0.0
H2148 H 0.55471 0.69712 0.19733 0.0
H2149 H 0.57075 0.72081 0.20031 0.0
C2150 C 0.53508 0.71788 0.29073 0.0
C2151 C 0.54131 0.73564 0.30442 0.0
C2152 C 0.53614 0.71401 0.24566 0.0
C2153 C 0.54364 0.72786 0.21366 0.0
C2154 C 0.55023 0.74565 0.22732 0.0
H2155 H 0.53096 0.67166 0.962 0.0
H2156 H 0.54649 0.69881 1.00812 0.0
C2157 C 0.54916 0.74953 0.2724 0.0
C2158 C 0.54279 0.72333 0.16554 0.0
H2159 H 0.54894 0.69549 0.09614 0.0
C2160 C 0.53237 0.72743 0.13695 0.0
C2161 C 0.55005 0.71293 0.14922 0.0
C2162 C 0.56263 0.70947 0.17707 0.0
C2163 C 0.52727 0.71957 0.09426 0.0
C2164 C 0.53247 0.70712 0.08057 0.0
C2165 C 0.54468 0.70481 0.10693 0.0
C2166 C 0.52278 0.69377 0.04487 0.0
C2167 C 0.51551 0.72384 0.0654 0.0
C2168 C 0.50423 0.68226 0.0494 0.0
C2169 C 0.49539 0.66673 0.02352 0.0
C2170 C 0.50498 0.66231 0.99292 0.0
C2171 C 0.5233 0.67454 0.98598 0.0
C2172 C 0.53216 0.69013 1.01194 0.0
H2173 H 0.51897 0.73802 0.07021 0.0
H2174 H 0.51676 0.72152 0.02916 0.0
H2175 H 0.50132 0.71519 0.07568 0.0
H2176 H 0.49679 0.6845 0.07546 0.0
H2177 H 0.48135 0.65757 0.03011 0.0
H2178 H 0.32905 0.84488 0.37343 0.0
H2179 H 0.35157 0.85666 0.31367 0.0
H2180 H 0.35689 0.80956 0.32273 0.0
H2181 H 0.33448 0.79775 0.38276 0.0
H2182 H 0.38905 0.86088 0.30083 0.0
H2183 H 0.3332 0.80946 0.19619 0.0
H2184 H 0.32948 0.81687 0.24985 0.0
H2185 H 0.33797 0.80165 0.24761 0.0
C2186 C 0.33545 0.83733 0.36373 0.0
C2187 C 0.32982 0.82026 0.38198 0.0
C2188 C 0.34828 0.84407 0.32967 0.0
C2189 C 0.35561 0.83382 0.31378 0.0
C2190 C 0.3512 0.81753 0.33461 0.0
H2191 H 0.4064 0.83366 0.06565 0.0
H2192 H 0.39316 0.82756 0.14063 0.0
C2193 C 0.33835 0.81077 0.36851 0.0
C2194 C 0.36558 0.83872 0.27127 0.0
H2195 H 0.36116 0.82654 0.16091 0.0
C2196 C 0.38306 0.85343 0.27014 0.0
C2197 C 0.35749 0.82896 0.23156 0.0
C2198 C 0.33845 0.81342 0.23098 0.0
C2199 C 0.39289 0.85843 0.22995 0.0
C2200 C 0.3848 0.84859 0.1903 0.0
C2201 C 0.36729 0.83396 0.19157 0.0
C2202 C 0.39414 0.85308 0.14677 0.0
C2203 C 0.4119 0.87395 0.23029 0.0
C2204 C 0.3989 0.8694 0.12553 0.0
C2205 C 0.40654 0.87296 0.08273 0.0
C2206 C 0.40941 0.86019 0.06056 0.0
C2207 C 0.40459 0.84385 0.0821 0.0
C2208 C 0.397 0.84033 0.12483 0.0
H2209 H 0.41747 0.87731 0.26494 0.0
H2210 H 0.4207 0.87089 0.20936 0.0
H2211 H 0.41216 0.88598 0.21593 0.0
H2212 H 0.39643 0.87923 0.1417 0.0
H2213 H 0.4103 0.88573 0.06719 0.0
loop_
_geom_bond_atom_site_label_1
_geom_bond_atom_site_label_2
_geom_bond_distance
_geom_bond_site_symmetry_2
_ccdc_geom_bond_type
C0 C1 1.351 . S
C0 N3 1.368 . S
C0 H5 0.931 . S
C1 C0 1.351 . S
C1 N2 1.373 . S
C1 H29 0.930 . S
N2 C1 1.373 . S
N2 C4 1.340 . S
N3 C0 1.368 . S
N3 C4 1.321 . S
N3 Co6 2.135 . S
C4 N2 1.340 . S
C4 N3 1.321 . S
C4 H28 0.930 . S
H5 C0 0.931 . S
Co6 N3 2.135 . S
Co6 N9 2.121 . S
Co6 O14 2.055 . S
Co6 O17 2.039 . S
Co6 N20 2.140 . S
C7 O8 1.227 . S
C7 O17 1.265 . S
O8 C7 1.227 . S
N9 Co6 2.121 . S
N9 C11 1.375 . S
N9 C12 1.313 . S
C10 C11 1.338 . S
C10 N13 1.377 . S
C10 H30 0.930 . S
C11 N9 1.375 . S
C11 C10 1.338 . S
C11 H15 0.931 . S
C12 N9 1.313 . S
C12 N13 1.344 . S
C12 H16 0.930 . S
N13 C10 1.377 . S
N13 C12 1.344 . S
O14 Co6 2.055 . S
O14 C18 1.253 . S
H15 C11 0.931 . S
H16 C12 0.930 . S
O17 Co6 2.039 . S
O17 C7 1.265 . S
C18 O14 1.253 . S
C18 O19 1.227 . S
O19 C18 1.227 . S
N20 Co6 2.140 . S
N20 C23 1.346 . S
N20 C24 1.345 . S
C21 C22 1.387 . S
C21 C25 1.391 . S
C22 C21 1.387 . S
C22 C23 1.369 . S
C22 H31 0.929 . S
C23 N20 1.346 . S
C23 C22 1.369 . S
C23 H26 0.928 . S
C24 N20 1.345 . S
C24 C25 1.371 . S
C24 H27 0.931 . S
C25 C21 1.391 . S
C25 C24 1.371 . S
C25 H32 0.930 . S
H26 C23 0.928 . S
H27 C24 0.931 . S
H28 C4 0.930 . S
H29 C1 0.930 . S
H30 C10 0.930 . S
H31 C22 0.929 . S
H32 C25 0.930 . S
C33 C34 1.351 . S
C33 N36 1.368 . S
C33 H38 0.931 . S
C34 C33 1.351 . S
C34 N35 1.373 . S
C34 H62 0.930 . S
N35 C34 1.373 . S
N35 C37 1.340 . S
N36 C33 1.368 . S
N36 C37 1.321 . S
N36 Co39 2.135 . S
C37 N35 1.340 . S
C37 N36 1.321 . S
C37 H61 0.930 . S
H38 C33 0.931 . S
Co39 N36 2.135 . S
Co39 N42 2.121 . S
Co39 O47 2.055 . S
Co39 O50 2.039 . S
Co39 N53 2.140 . S
C40 O41 1.227 . S
C40 O50 1.265 . S
O41 C40 1.227 . S
N42 Co39 2.121 . S
N42 C44 1.375 . S
N42 C45 1.313 . S
C43 C44 1.338 . S
C43 N46 1.377 . S
C43 H63 0.930 . S
C44 N42 1.375 . S
C44 C43 1.338 . S
C44 H48 0.931 . S
C45 N42 1.313 . S
C45 N46 1.344 . S
C45 H49 0.930 . S
N46 C43 1.377 . S
N46 C45 1.344 . S
O47 Co39 2.055 . S
O47 C51 1.253 . S
H48 C44 0.931 . S
H49 C45 0.930 . S
O50 Co39 2.039 . S
O50 C40 1.265 . S
C51 O47 1.253 . S
C51 O52 1.227 . S
O52 C51 1.227 . S
N53 Co39 2.140 . S
N53 C56 1.346 . S
N53 C57 1.345 . S
C54 C55 1.387 . S
C54 C58 1.391 . S
C55 C54 1.387 . S
C55 C56 1.369 . S
C55 H64 0.929 . S
C56 N53 1.346 . S
C56 C55 1.369 . S
C56 H59 0.928 . S
C57 N53 1.345 . S
C57 C58 1.371 . S
C57 H60 0.931 . S
C58 C54 1.391 . S
C58 C57 1.371 . S
C58 H65 0.930 . S
H59 C56 0.928 . S
H60 C57 0.931 . S
H61 C37 0.930 . S
H62 C34 0.930 . S
H63 C43 0.930 . S
H64 C55 0.929 . S
H65 C58 0.930 . S
C66 C67 1.351 . S
C66 N69 1.368 . S
C66 H71 0.931 . S
C67 C66 1.351 . S
C67 N68 1.373 . S
C67 H95 0.930 . S
N68 C67 1.373 . S
N68 C70 1.340 . S
N69 C66 1.368 . S
N69 C70 1.321 . S
N69 Co72 2.135 . S
C70 N68 1.340 . S
C70 N69 1.321 . S
C70 H94 0.930 . S
H71 C66 0.931 . S
Co72 N69 2.135 . S
Co72 N75 2.121 . S
Co72 O80 2.055 . S
Co72 O83 2.039 . S
Co72 N86 2.140 . S
C73 O74 1.227 . S
C73 O83 1.265 . S
O74 C73 1.227 . S
N75 Co72 2.121 . S
N75 C77 1.375 . S
N75 C78 1.313 . S
C76 C77 1.338 . S
C76 N79 1.377 . S
C76 H96 0.930 . S
C77 N75 1.375 . S
C77 C76 1.338 . S
C77 H81 0.931 . S
C78 N75 1.313 . S
C78 N79 1.344 . S
C78 H82 0.930 . S
N79 C76 1.377 . S
N79 C78 1.344 . S
O80 Co72 2.055 . S
O80 C84 1.253 . S
H81 C77 0.931 . S
H82 C78 0.930 . S
O83 Co72 2.039 . S
O83 C73 1.265 . S
C84 O80 1.253 . S
C84 O85 1.227 . S
O85 C84 1.227 . S
N86 Co72 2.140 . S
N86 C89 1.346 . S
N86 C90 1.345 . S
C87 C88 1.387 . S
C87 C91 1.391 . S
C88 C87 1.387 . S
C88 C89 1.369 . S
C88 H97 0.929 . S
C89 N86 1.346 . S
C89 C88 1.369 . S
C89 H92 0.928 . S
C90 N86 1.345 . S
C90 C91 1.371 . S
C90 H93 0.931 . S
C91 C87 1.391 . S
C91 C90 1.371 . S
C91 H98 0.930 . S
H92 C89 0.928 . S
H93 C90 0.931 . S
H94 C70 0.930 . S
H95 C67 0.930 . S
H96 C76 0.930 . S
H97 C88 0.929 . S
H98 C91 0.930 . S
C99 C100 1.351 . S
C99 N102 1.368 . S
C99 H104 0.931 . S
C100 C99 1.351 . S
C100 N101 1.373 . S
C100 H128 0.930 . S
N101 C100 1.373 . S
N101 C103 1.340 . S
N102 C99 1.368 . S
N102 C103 1.321 . S
N102 Co105 2.135 . S
C103 N101 1.340 . S
C103 N102 1.321 . S
C103 H127 0.930 . S
H104 C99 0.931 . S
Co105 N102 2.135 . S
Co105 N108 2.121 . S
Co105 O113 2.055 . S
Co105 O116 2.039 . S
Co105 N119 2.140 . S
C106 O107 1.227 . S
C106 O116 1.265 . S
O107 C106 1.227 . S
N108 Co105 2.121 . S
N108 C110 1.375 . S
N108 C111 1.313 . S
C109 C110 1.338 . S
C109 N112 1.377 . S
C109 H129 0.930 . S
C110 N108 1.375 . S
C110 C109 1.338 . S
C110 H114 0.931 . S
C111 N108 1.313 . S
C111 N112 1.344 . S
C111 H115 0.930 . S
N112 C109 1.377 . S
N112 C111 1.344 . S
O113 Co105 2.055 . S
O113 C117 1.253 . S
H114 C110 0.931 . S
H115 C111 0.930 . S
O116 Co105 2.039 . S
O116 C106 1.265 . S
C117 O113 1.253 . S
C117 O118 1.227 . S
O118 C117 1.227 . S
N119 Co105 2.140 . S
N119 C122 1.346 . S
N119 C123 1.345 . S
C120 C121 1.387 . S
C120 C124 1.391 . S
C121 C120 1.387 . S
C121 C122 1.369 . S
C121 H130 0.929 . S
C122 N119 1.346 . S
C122 C121 1.369 . S
C122 H125 0.928 . S
C123 N119 1.345 . S
C123 C124 1.371 . S
C123 H126 0.931 . S
C124 C120 1.391 . S
C124 C123 1.371 . S
C124 H131 0.930 . S
H125 C122 0.928 . S
H126 C123 0.931 . S
H127 C103 0.930 . S
H128 C100 0.930 . S
H129 C109 0.930 . S
H130 C121 0.929 . S
H131 C124 0.930 . S
C132 C133 1.351 . S
C132 N135 1.368 . S
C132 H137 0.931 . S
C133 C132 1.351 . S
C133 N134 1.373 . S
C133 H161 0.930 . S
N134 C133 1.373 . S
N134 C136 1.340 . S
N135 C132 1.368 . S
N135 C136 1.321 . S
N135 Co138 2.135 . S
C136 N134 1.340 . S
C136 N135 1.321 . S
C136 H160 0.930 . S
H137 C132 0.931 . S
Co138 N135 2.135 . S
Co138 N141 2.121 . S
Co138 O146 2.055 . S
Co138 O149 2.039 . S
Co138 N152 2.140 . S
C139 O140 1.227 . S
C139 O149 1.265 . S
O140 C139 1.227 . S
N141 Co138 2.121 . S
N141 C143 1.375 . S
N141 C144 1.313 . S
C142 C143 1.338 . S
C142 N145 1.377 . S
C142 H162 0.930 . S
C143 N141 1.375 . S
C143 C142 1.338 . S
C143 H147 0.931 . S
C144 N141 1.313 . S
C144 N145 1.344 . S
C144 H148 0.930 . S
N145 C142 1.377 . S
N145 C144 1.344 . S
O146 Co138 2.055 . S
O146 C150 1.253 . S
H147 C143 0.931 . S
H148 C144 0.930 . S
O149 Co138 2.039 . S
O149 C139 1.265 . S
C150 O146 1.253 . S
C150 O151 1.227 . S
O151 C150 1.227 . S
N152 Co138 2.140 . S
N152 C155 1.346 . S
N152 C156 1.345 . S
C153 C154 1.387 . S
C153 C157 1.391 . S
C154 C153 1.387 . S
C154 C155 1.369 . S
C154 H163 0.929 . S
C155 N152 1.346 . S
C155 C154 1.369 . S
C155 H158 0.928 . S
C156 N152 1.345 . S
C156 C157 1.371 . S
C156 H159 0.931 . S
C157 C153 1.391 . S
C157 C156 1.371 . S
C157 H164 0.930 . S
H158 C155 0.928 . S
H159 C156 0.931 . S
H160 C136 0.930 . S
H161 C133 0.930 . S
H162 C142 0.930 . S
H163 C154 0.929 . S
H164 C157 0.930 . S
C165 C166 1.351 . S
C165 N168 1.368 . S
C165 H170 0.931 . S
C166 C165 1.351 . S
C166 N167 1.373 . S
C166 H194 0.930 . S
N167 C166 1.373 . S
N167 C169 1.340 . S
N168 C165 1.368 . S
N168 C169 1.321 . S
N168 Co171 2.135 . S
C169 N167 1.340 . S
C169 N168 1.321 . S
C169 H193 0.930 . S
H170 C165 0.931 . S
Co171 N168 2.135 . S
Co171 N174 2.121 . S
Co171 O179 2.055 . S
Co171 O182 2.039 . S
Co171 N185 2.140 . S
C172 O173 1.227 . S
C172 O182 1.265 . S
O173 C172 1.227 . S
N174 Co171 2.121 . S
N174 C176 1.375 . S
N174 C177 1.313 . S
C175 C176 1.338 . S
C175 N178 1.377 . S
C175 H195 0.930 . S
C176 N174 1.375 . S
C176 C175 1.338 . S
C176 H180 0.931 . S
C177 N174 1.313 . S
C177 N178 1.344 . S
C177 H181 0.930 . S
N178 C175 1.377 . S
N178 C177 1.344 . S
O179 Co171 2.055 . S
O179 C183 1.253 . S
H180 C176 0.931 . S
H181 C177 0.930 . S
O182 Co171 2.039 . S
O182 C172 1.265 . S
C183 O179 1.253 . S
C183 O184 1.227 . S
O184 C183 1.227 . S
N185 Co171 2.140 . S
N185 C188 1.346 . S
N185 C189 1.345 . S
C186 C187 1.387 . S
C186 C190 1.391 . S
C187 C186 1.387 . S
C187 C188 1.369 . S
C187 H196 0.929 . S
C188 N185 1.346 . S
C188 C187 1.369 . S
C188 H191 0.928 . S
C189 N185 1.345 . S
C189 C190 1.371 . S
C189 H192 0.931 . S
C190 C186 1.391 . S
C190 C189 1.371 . S
C190 H197 0.930 . S
H191 C188 0.928 . S
H192 C189 0.931 . S
H193 C169 0.930 . S
H194 C166 0.930 . S
H195 C175 0.930 . S
H196 C187 0.929 . S
H197 C190 0.930 . S
C198 C199 1.351 . S
C198 N201 1.368 . S
C198 H203 0.931 . S
C199 C198 1.351 . S
C199 N200 1.373 . S
C199 H227 0.930 . S
N200 C199 1.373 . S
N200 C202 1.340 . S
N201 C198 1.368 . S
N201 C202 1.321 . S
N201 Co204 2.135 . S
C202 N200 1.340 . S
C202 N201 1.321 . S
C202 H226 0.930 . S
H203 C198 0.931 . S
Co204 N201 2.135 . S
Co204 N207 2.121 . S
Co204 O212 2.055 . S
Co204 O215 2.039 . S
Co204 N218 2.140 . S
C205 O206 1.227 . S
C205 O215 1.265 . S
O206 C205 1.227 . S
N207 Co204 2.121 . S
N207 C209 1.375 . S
N207 C210 1.313 . S
C208 C209 1.338 . S
C208 N211 1.377 . S
C208 H228 0.930 . S
C209 N207 1.375 . S
C209 C208 1.338 . S
C209 H213 0.931 . S
C210 N207 1.313 . S
C210 N211 1.344 . S
C210 H214 0.930 . S
N211 C208 1.377 . S
N211 C210 1.344 . S
O212 Co204 2.055 . S
O212 C216 1.253 . S
H213 C209 0.931 . S
H214 C210 0.930 . S
O215 Co204 2.039 . S
O215 C205 1.265 . S
C216 O212 1.253 . S
C216 O217 1.227 . S
O217 C216 1.227 . S
N218 Co204 2.140 . S
N218 C221 1.346 . S
N218 C222 1.345 . S
C219 C220 1.387 . S
C219 C223 1.391 . S
C220 C219 1.387 . S
C220 C221 1.369 . S
C220 H229 0.929 . S
C221 N218 1.346 . S
C221 C220 1.369 . S
C221 H224 0.928 . S
C222 N218 1.345 . S
C222 C223 1.371 . S
C222 H225 0.931 . S
C223 C219 1.391 . S
C223 C222 1.371 . S
C223 H230 0.930 . S
H224 C221 0.928 . S
H225 C222 0.931 . S
H226 C202 0.930 . S
H227 C199 0.930 . S
H228 C208 0.930 . S
H229 C220 0.929 . S
H230 C223 0.930 . S
C231 C232 1.351 . S
C231 N234 1.368 . S
C231 H236 0.931 . S
C232 C231 1.351 . S
C232 N233 1.373 . S
C232 H260 0.930 . S
N233 C232 1.373 . S
N233 C235 1.340 . S
N234 C231 1.368 . S
N234 C235 1.321 . S
N234 Co237 2.135 . S
C235 N233 1.340 . S
C235 N234 1.321 . S
C235 H259 0.930 . S
H236 C231 0.931 . S
Co237 N234 2.135 . S
Co237 N240 2.121 . S
Co237 O245 2.055 . S
Co237 O248 2.039 . S
Co237 N251 2.140 . S
C238 O239 1.227 . S
C238 O248 1.265 . S
O239 C238 1.227 . S
N240 Co237 2.121 . S
N240 C242 1.375 . S
N240 C243 1.313 . S
C241 C242 1.338 . S
C241 N244 1.377 . S
C241 H261 0.930 . S
C242 N240 1.375 . S
C242 C241 1.338 . S
C242 H246 0.931 . S
C243 N240 1.313 . S
C243 N244 1.344 . S
C243 H247 0.930 . S
N244 C241 1.377 . S
N244 C243 1.344 . S
O245 Co237 2.055 . S
O245 C249 1.253 . S
H246 C242 0.931 . S
H247 C243 0.930 . S
O248 Co237 2.039 . S
O248 C238 1.265 . S
C249 O245 1.253 . S
C249 O250 1.227 . S
O250 C249 1.227 . S
N251 Co237 2.140 . S
N251 C254 1.346 . S
N251 C255 1.345 . S
C252 C253 1.387 . S
C252 C256 1.391 . S
C253 C252 1.387 . S
C253 C254 1.369 . S
C253 H262 0.929 . S
C254 N251 1.346 . S
C254 C253 1.369 . S
C254 H257 0.928 . S
C255 N251 1.345 . S
C255 C256 1.371 . S
C255 H258 0.931 . S
C256 C252 1.391 . S
C256 C255 1.371 . S
C256 H263 0.930 . S
H257 C254 0.928 . S
H258 C255 0.931 . S
H259 C235 0.930 . S
H260 C232 0.930 . S
H261 C241 0.930 . S
H262 C253 0.929 . S
H263 C256 0.930 . S
C264 C265 1.351 . S
C264 N267 1.368 . S
C264 H269 0.931 . S
C265 C264 1.351 . S
C265 N266 1.373 . S
C265 H293 0.930 . S
N266 C265 1.373 . S
N266 C268 1.340 . S
N267 C264 1.368 . S
N267 C268 1.321 . S
N267 Co270 2.135 . S
C268 N266 1.340 . S
C268 N267 1.321 . S
C268 H292 0.930 . S
H269 C264 0.931 . S
Co270 N267 2.135 . S
Co270 N273 2.121 . S
Co270 O278 2.055 . S
Co270 O281 2.039 . S
Co270 N284 2.140 . S
C271 O272 1.227 . S
C271 O281 1.265 . S
O272 C271 1.227 . S
N273 Co270 2.121 . S
N273 C275 1.375 . S
N273 C276 1.313 . S
C274 C275 1.338 . S
C274 N277 1.377 . S
C274 H294 0.930 . S
C275 N273 1.375 . S
C275 C274 1.338 . S
C275 H279 0.931 . S
C276 N273 1.313 . S
C276 N277 1.344 . S
C276 H280 0.930 . S
N277 C274 1.377 . S
N277 C276 1.344 . S
O278 Co270 2.055 . S
O278 C282 1.253 . S
H279 C275 0.931 . S
H280 C276 0.930 . S
O281 Co270 2.039 . S
O281 C271 1.265 . S
C282 O278 1.253 . S
C282 O283 1.227 . S
O283 C282 1.227 . S
N284 Co270 2.140 . S
N284 C287 1.346 . S
N284 C288 1.345 . S
C285 C286 1.387 . S
C285 C289 1.391 . S
C286 C285 1.387 . S
C286 C287 1.369 . S
C286 H295 0.929 . S
C287 N284 1.346 . S
C287 C286 1.369 . S
C287 H290 0.928 . S
C288 N284 1.345 . S
C288 C289 1.371 . S
C288 H291 0.931 . S
C289 C285 1.391 . S
C289 C288 1.371 . S
C289 H296 0.930 . S
H290 C287 0.928 . S
H291 C288 0.931 . S
H292 C268 0.930 . S
H293 C265 0.930 . S
H294 C274 0.930 . S
H295 C286 0.929 . S
H296 C289 0.930 . S
C297 C298 1.351 . S
C297 N300 1.368 . S
C297 H302 0.931 . S
C298 C297 1.351 . S
C298 N299 1.373 1_554 S
C298 H326 0.930 . S
N299 C298 1.373 1_556 S
N299 C301 1.340 . S
N300 C297 1.368 . S
N300 C301 1.321 1_554 S
N300 Co303 2.135 . S
C301 N299 1.340 . S
C301 N300 1.321 1_556 S
C301 H325 0.930 . S
H302 C297 0.931 . S
Co303 N300 2.135 . S
Co303 N306 2.121 . S
Co303 O311 2.055 . S
Co303 O314 2.039 . S
Co303 N317 2.140 . S
C304 O305 1.227 1_554 S
C304 O314 1.265 . S
O305 C304 1.227 1_556 S
N306 Co303 2.121 . S
N306 C308 1.375 . S
N306 C309 1.313 . S
C307 C308 1.338 . S
C307 N310 1.377 . S
C307 H327 0.930 . S
C308 N306 1.375 . S
C308 C307 1.338 . S
C308 H312 0.931 . S
C309 N306 1.313 . S
C309 N310 1.344 . S
C309 H313 0.930 . S
N310 C307 1.377 . S
N310 C309 1.344 . S
O311 Co303 2.055 . S
O311 C315 1.253 . S
H312 C308 0.931 . S
H313 C309 0.930 . S
O314 Co303 2.039 . S
O314 C304 1.265 . S
C315 O311 1.253 . S
C315 O316 1.227 . S
O316 C315 1.227 . S
N317 Co303 2.140 . S
N317 C320 1.346 . S
N317 C321 1.345 . S
C318 C319 1.387 . S
C318 C322 1.391 . S
C319 C318 1.387 . S
C319 C320 1.369 . S
C319 H328 0.929 1_554 S
C320 N317 1.346 . S
C320 C319 1.369 . S
C320 H323 0.928 . S
C321 N317 1.345 . S
C321 C322 1.371 . S
C321 H324 0.931 . S
C322 C318 1.391 . S
C322 C321 1.371 . S
C322 H329 0.930 . S
H323 C320 0.928 . S
H324 C321 0.931 . S
H325 C301 0.930 . S
H326 C298 0.930 . S
H327 C307 0.930 . S
H328 C319 0.929 1_556 S
H329 C322 0.930 . S
C330 C331 1.351 . S
C330 N333 1.368 . S
C330 H335 0.931 . S
C331 C330 1.351 . S
C331 N332 1.373 1_554 S
C331 H359 0.930 . S
N332 C331 1.373 1_556 S
N332 C334 1.340 . S
N333 C330 1.368 . S
N333 C334 1.321 1_554 S
N333 Co336 2.135 . S
C334 N332 1.340 . S
C334 N333 1.321 1_556 S
C334 H358 0.930 . S
H335 C330 0.931 . S
Co336 N333 2.135 . S
Co336 N339 2.121 . S
Co336 O344 2.055 . S
Co336 O347 2.039 . S
Co336 N350 2.140 . S
C337 O338 1.227 1_554 S
C337 O347 1.265 . S
O338 C337 1.227 1_556 S
N339 Co336 2.121 . S
N339 C341 1.375 . S
N339 C342 1.313 . S
C340 C341 1.338 . S
C340 N343 1.377 . S
C340 H360 0.930 . S
C341 N339 1.375 . S
C341 C340 1.338 . S
C341 H345 0.931 . S
C342 N339 1.313 . S
C342 N343 1.344 . S
C342 H346 0.930 . S
N343 C340 1.377 . S
N343 C342 1.344 . S
O344 Co336 2.055 . S
O344 C348 1.253 . S
H345 C341 0.931 . S
H346 C342 0.930 . S
O347 Co336 2.039 . S
O347 C337 1.265 . S
C348 O344 1.253 . S
C348 O349 1.227 . S
O349 C348 1.227 . S
N350 Co336 2.140 . S
N350 C353 1.346 . S
N350 C354 1.345 . S
C351 C352 1.387 . S
C351 C355 1.391 . S
C352 C351 1.387 . S
C352 C353 1.369 . S
C352 H361 0.929 1_554 S
C353 N350 1.346 . S
C353 C352 1.369 . S
C353 H356 0.928 . S
C354 N350 1.345 . S
C354 C355 1.371 . S
C354 H357 0.931 . S
C355 C351 1.391 . S
C355 C354 1.371 . S
C355 H362 0.930 . S
H356 C353 0.928 . S
H357 C354 0.931 . S
H358 C334 0.930 . S
H359 C331 0.930 . S
H360 C340 0.930 . S
H361 C352 0.929 1_556 S
H362 C355 0.930 . S
C363 C364 1.351 . S
C363 N366 1.368 . S
C363 H368 0.931 . S
C364 C363 1.351 . S
C364 N365 1.373 1_554 S
C364 H392 0.930 . S
N365 C364 1.373 1_556 S
N365 C367 1.340 . S
N366 C363 1.368 . S
N366 C367 1.321 1_554 S
N366 Co369 2.135 . S
C367 N365 1.340 . S
C367 N366 1.321 1_556 S
C367 H391 0.930 . S
H368 C363 0.931 . S
Co369 N366 2.135 . S
Co369 N372 2.121 . S
Co369 O377 2.055 . S
Co369 O380 2.039 . S
Co369 N383 2.140 . S
C370 O371 1.227 1_554 S
C370 O380 1.265 . S
O371 C370 1.227 1_556 S
N372 Co369 2.121 . S
N372 C374 1.375 . S
N372 C375 1.313 . S
C373 C374 1.338 . S
C373 N376 1.377 . S
C373 H393 0.930 . S
C374 N372 1.375 . S
C374 C373 1.338 . S
C374 H378 0.931 . S
C375 N372 1.313 . S
C375 N376 1.344 . S
C375 H379 0.930 . S
N376 C373 1.377 . S
N376 C375 1.344 . S
O377 Co369 2.055 . S
O377 C381 1.253 . S
H378 C374 0.931 . S
H379 C375 0.930 . S
O380 Co369 2.039 . S
O380 C370 1.265 . S
C381 O377 1.253 . S
C381 O382 1.227 . S
O382 C381 1.227 . S
N383 Co369 2.140 . S
N383 C386 1.346 . S
N383 C387 1.345 . S
C384 C385 1.387 . S
C384 C388 1.391 . S
C385 C384 1.387 . S
C385 C386 1.369 . S
C385 H394 0.929 1_554 S
C386 N383 1.346 . S
C386 C385 1.369 . S
C386 H389 0.928 . S
C387 N383 1.345 . S
C387 C388 1.371 . S
C387 H390 0.931 . S
C388 C384 1.391 . S
C388 C387 1.371 . S
C388 H395 0.930 . S
H389 C386 0.928 . S
H390 C387 0.931 . S
H391 C367 0.930 . S
H392 C364 0.930 . S
H393 C373 0.930 . S
H394 C385 0.929 1_556 S
H395 C388 0.930 . S
C396 C397 1.351 . S
C396 N399 1.368 . S
C396 H401 0.931 . S
C397 C396 1.351 . S
C397 N398 1.373 1_556 S
C397 H425 0.930 . S
N398 C397 1.373 1_554 S
N398 C400 1.340 . S
N399 C396 1.368 . S
N399 C400 1.321 1_556 S
N399 Co402 2.135 . S
C400 N398 1.340 . S
C400 N399 1.321 1_554 S
C400 H424 0.930 . S
H401 C396 0.931 . S
Co402 N399 2.135 . S
Co402 N405 2.121 . S
Co402 O410 2.055 . S
Co402 O413 2.039 . S
Co402 N416 2.140 . S
C403 O404 1.227 1_556 S
C403 O413 1.265 . S
O404 C403 1.227 1_554 S
N405 Co402 2.121 . S
N405 C407 1.375 . S
N405 C408 1.313 . S
C406 C407 1.338 . S
C406 N409 1.377 . S
C406 H426 0.930 . S
C407 N405 1.375 . S
C407 C406 1.338 . S
C407 H411 0.931 . S
C408 N405 1.313 . S
C408 N409 1.344 . S
C408 H412 0.930 . S
N409 C406 1.377 . S
N409 C408 1.344 . S
O410 Co402 2.055 . S
O410 C414 1.253 . S
H411 C407 0.931 . S
H412 C408 0.930 . S
O413 Co402 2.039 . S
O413 C403 1.265 . S
C414 O410 1.253 . S
C414 O415 1.227 . S
O415 C414 1.227 . S
N416 Co402 2.140 . S
N416 C419 1.346 . S
N416 C420 1.345 . S
C417 C418 1.387 . S
C417 C421 1.391 . S
C418 C417 1.387 . S
C418 C419 1.369 . S
C418 H427 0.929 1_556 S
C419 N416 1.346 . S
C419 C418 1.369 . S
C419 H422 0.928 . S
C420 N416 1.345 . S
C420 C421 1.371 . S
C420 H423 0.931 . S
C421 C417 1.391 . S
C421 C420 1.371 . S
C421 H428 0.930 . S
H422 C419 0.928 . S
H423 C420 0.931 . S
H424 C400 0.930 . S
H425 C397 0.930 . S
H426 C406 0.930 . S
H427 C418 0.929 1_554 S
H428 C421 0.930 . S
C429 C430 1.351 . S
C429 N432 1.368 . S
C429 H434 0.931 . S
C430 C429 1.351 . S
C430 N431 1.373 1_556 S
C430 H458 0.930 . S
N431 C430 1.373 1_554 S
N431 C433 1.340 . S
N432 C429 1.368 . S
N432 C433 1.321 1_556 S
N432 Co435 2.135 . S
C433 N431 1.340 . S
C433 N432 1.321 1_554 S
C433 H457 0.930 . S
H434 C429 0.931 . S
Co435 N432 2.135 . S
Co435 N438 2.121 . S
Co435 O443 2.055 . S
Co435 O446 2.039 . S
Co435 N449 2.140 . S
C436 O437 1.227 1_556 S
C436 O446 1.265 . S
O437 C436 1.227 1_554 S
N438 Co435 2.121 . S
N438 C440 1.375 . S
N438 C441 1.313 . S
C439 C440 1.338 . S
C439 N442 1.377 . S
C439 H459 0.930 . S
C440 N438 1.375 . S
C440 C439 1.338 . S
C440 H444 0.931 . S
C441 N438 1.313 . S
C441 N442 1.344 . S
C441 H445 0.930 . S
N442 C439 1.377 . S
N442 C441 1.344 . S
O443 Co435 2.055 . S
O443 C447 1.253 . S
H444 C440 0.931 . S
H445 C441 0.930 . S
O446 Co435 2.039 . S
O446 C436 1.265 . S
C447 O443 1.253 . S
C447 O448 1.227 . S
O448 C447 1.227 . S
N449 Co435 2.140 . S
N449 C452 1.346 . S
N449 C453 1.345 . S
C450 C451 1.387 . S
C450 C454 1.391 . S
C451 C450 1.387 . S
C451 C452 1.369 . S
C451 H460 0.929 1_556 S
C452 N449 1.346 . S
C452 C451 1.369 . S
C452 H455 0.928 . S
C453 N449 1.345 . S
C453 C454 1.371 . S
C453 H456 0.931 . S
C454 C450 1.391 . S
C454 C453 1.371 . S
C454 H461 0.930 . S
H455 C452 0.928 . S
H456 C453 0.931 . S
H457 C433 0.930 . S
H458 C430 0.930 . S
H459 C439 0.930 . S
H460 C451 0.929 1_554 S
H461 C454 0.930 . S
C462 C463 1.351 . S
C462 N465 1.368 . S
C462 H467 0.931 . S
C463 C462 1.351 . S
C463 N464 1.373 1_556 S
C463 H491 0.930 . S
N464 C463 1.373 1_554 S
N464 C466 1.340 . S
N465 C462 1.368 . S
N465 C466 1.321 1_556 S
N465 Co468 2.135 . S
C466 N464 1.340 . S
C466 N465 1.321 1_554 S
C466 H490 0.930 . S
H467 C462 0.931 . S
Co468 N465 2.135 . S
Co468 N471 2.121 . S
Co468 O476 2.055 . S
Co468 O479 2.039 . S
Co468 N482 2.140 . S
C469 O470 1.227 1_556 S
C469 O479 1.265 . S
O470 C469 1.227 1_554 S
N471 Co468 2.121 . S
N471 C473 1.375 . S
N471 C474 1.313 . S
C472 C473 1.338 . S
C472 N475 1.377 . S
C472 H492 0.930 . S
C473 N471 1.375 . S
C473 C472 1.338 . S
C473 H477 0.931 . S
C474 N471 1.313 . S
C474 N475 1.344 . S
C474 H478 0.930 . S
N475 C472 1.377 . S
N475 C474 1.344 . S
O476 Co468 2.055 . S
O476 C480 1.253 . S
H477 C473 0.931 . S
H478 C474 0.930 . S
O479 Co468 2.039 . S
O479 C469 1.265 . S
C480 O476 1.253 . S
C480 O481 1.227 . S
O481 C480 1.227 . S
N482 Co468 2.140 . S
N482 C485 1.346 . S
N482 C486 1.345 . S
C483 C484 1.387 . S
C483 C487 1.391 . S
C484 C483 1.387 . S
C484 C485 1.369 . S
C484 H493 0.929 1_556 S
C485 N482 1.346 . S
C485 C484 1.369 . S
C485 H488 0.928 . S
C486 N482 1.345 . S
C486 C487 1.371 . S
C486 H489 0.931 . S
C487 C483 1.391 . S
C487 C486 1.371 . S
C487 H494 0.930 . S
H488 C485 0.928 . S
H489 C486 0.931 . S
H490 C466 0.930 . S
H491 C463 0.930 . S
H492 C472 0.930 . S
H493 C484 0.929 1_554 S
H494 C487 0.930 . S
C495 C496 1.351 . S
C495 N498 1.368 . S
C495 H500 0.931 . S
C496 C495 1.351 . S
C496 N497 1.373 . S
C496 H524 0.930 . S
N497 C496 1.373 . S
N497 C499 1.340 . S
N498 C495 1.368 . S
N498 C499 1.321 . S
N498 Co501 2.135 . S
C499 N497 1.340 . S
C499 N498 1.321 . S
C499 H523 0.930 . S
H500 C495 0.931 . S
Co501 N498 2.135 . S
Co501 N504 2.121 . S
Co501 O509 2.055 . S
Co501 O512 2.039 . S
Co501 N515 2.140 . S
C502 O503 1.227 . S
C502 O512 1.265 . S
O503 C502 1.227 . S
N504 Co501 2.121 . S
N504 C506 1.375 . S
N504 C507 1.313 . S
C505 C506 1.338 . S
C505 N508 1.377 . S
C505 H525 0.930 . S
C506 N504 1.375 . S
C506 C505 1.338 . S
C506 H510 0.931 . S
C507 N504 1.313 . S
C507 N508 1.344 . S
C507 H511 0.930 . S
N508 C505 1.377 . S
N508 C507 1.344 . S
O509 Co501 2.055 . S
O509 C513 1.253 . S
H510 C506 0.931 . S
H511 C507 0.930 . S
O512 Co501 2.039 . S
O512 C502 1.265 . S
C513 O509 1.253 . S
C513 O514 1.227 . S
O514 C513 1.227 . S
N515 Co501 2.140 . S
N515 C518 1.346 . S
N515 C519 1.345 . S
C516 C517 1.387 . S
C516 C520 1.391 . S
C517 C516 1.387 . S
C517 C518 1.369 . S
C517 H526 0.929 . S
C518 N515 1.346 . S
C518 C517 1.369 . S
C518 H521 0.928 . S
C519 N515 1.345 . S
C519 C520 1.371 . S
C519 H522 0.931 . S
C520 C516 1.391 . S
C520 C519 1.371 . S
C520 H527 0.930 . S
H521 C518 0.928 . S
H522 C519 0.931 . S
H523 C499 0.930 . S
H524 C496 0.930 . S
H525 C505 0.930 . S
H526 C517 0.929 . S
H527 C520 0.930 . S
C528 C529 1.351 . S
C528 N531 1.368 . S
C528 H533 0.931 . S
C529 C528 1.351 . S
C529 N530 1.373 . S
C529 H557 0.930 . S
N530 C529 1.373 . S
N530 C532 1.340 . S
N531 C528 1.368 . S
N531 C532 1.321 . S
N531 Co534 2.135 . S
C532 N530 1.340 . S
C532 N531 1.321 . S
C532 H556 0.930 . S
H533 C528 0.931 . S
Co534 N531 2.135 . S
Co534 N537 2.121 . S
Co534 O542 2.055 . S
Co534 O545 2.039 . S
Co534 N548 2.140 . S
C535 O536 1.227 . S
C535 O545 1.265 . S
O536 C535 1.227 . S
N537 Co534 2.121 . S
N537 C539 1.375 . S
N537 C540 1.313 . S
C538 C539 1.338 . S
C538 N541 1.377 . S
C538 H558 0.930 . S
C539 N537 1.375 . S
C539 C538 1.338 . S
C539 H543 0.931 . S
C540 N537 1.313 . S
C540 N541 1.344 . S
C540 H544 0.930 . S
N541 C538 1.377 . S
N541 C540 1.344 . S
O542 Co534 2.055 . S
O542 C546 1.253 . S
H543 C539 0.931 . S
H544 C540 0.930 . S
O545 Co534 2.039 . S
O545 C535 1.265 . S
C546 O542 1.253 . S
C546 O547 1.227 . S
O547 C546 1.227 . S
N548 Co534 2.140 . S
N548 C551 1.346 . S
N548 C552 1.345 . S
C549 C550 1.387 . S
C549 C553 1.391 . S
C550 C549 1.387 . S
C550 C551 1.369 . S
C550 H559 0.929 . S
C551 N548 1.346 . S
C551 C550 1.369 . S
C551 H554 0.928 . S
C552 N548 1.345 . S
C552 C553 1.371 . S
C552 H555 0.931 . S
C553 C549 1.391 . S
C553 C552 1.371 . S
C553 H560 0.930 . S
H554 C551 0.928 . S
H555 C552 0.931 . S
H556 C532 0.930 . S
H557 C529 0.930 . S
H558 C538 0.930 . S
H559 C550 0.929 . S
H560 C553 0.930 . S
C561 C562 1.351 . S
C561 N564 1.368 . S
C561 H566 0.931 . S
C562 C561 1.351 . S
C562 N563 1.373 . S
C562 H590 0.930 . S
N563 C562 1.373 . S
N563 C565 1.340 . S
N564 C561 1.368 . S
N564 C565 1.321 . S
N564 Co567 2.135 . S
C565 N563 1.340 . S
C565 N564 1.321 . S
C565 H589 0.930 . S
H566 C561 0.931 . S
Co567 N564 2.135 . S
Co567 N570 2.121 . S
Co567 O575 2.055 . S
Co567 O578 2.039 . S
Co567 N581 2.140 . S
C568 O569 1.227 . S
C568 O578 1.265 . S
O569 C568 1.227 . S
N570 Co567 2.121 . S
N570 C572 1.375 . S
N570 C573 1.313 . S
C571 C572 1.338 . S
C571 N574 1.377 . S
C571 H591 0.930 . S
C572 N570 1.375 . S
C572 C571 1.338 . S
C572 H576 0.931 . S
C573 N570 1.313 . S
C573 N574 1.344 . S
C573 H577 0.930 . S
N574 C571 1.377 . S
N574 C573 1.344 . S
O575 Co567 2.055 . S
O575 C579 1.253 . S
H576 C572 0.931 . S
H577 C573 0.930 . S
O578 Co567 2.039 . S
O578 C568 1.265 . S
C579 O575 1.253 . S
C579 O580 1.227 . S
O580 C579 1.227 . S
N581 Co567 2.140 . S
N581 C584 1.346 . S
N581 C585 1.345 . S
C582 C583 1.387 . S
C582 C586 1.391 . S
C583 C582 1.387 . S
C583 C584 1.369 . S
C583 H592 0.929 . S
C584 N581 1.346 . S
C584 C583 1.369 . S
C584 H587 0.928 . S
C585 N581 1.345 . S
C585 C586 1.371 . S
C585 H588 0.931 . S
C586 C582 1.391 . S
C586 C585 1.371 . S
C586 H593 0.930 . S
H587 C584 0.928 . S
H588 C585 0.931 . S
H589 C565 0.930 . S
H590 C562 0.930 . S
H591 C571 0.930 . S
H592 C583 0.929 . S
H593 C586 0.930 . S
H594 C602 0.929 . S
H595 C604 0.930 . S
H596 C606 0.930 . S
H597 C609 0.929 . S
H598 C612 0.930 . S
H599 C614 0.960 . S
H600 C614 0.960 . S
H601 C614 0.960 . S
C602 H594 0.929 . S
C602 C603 1.377 . S
C602 C604 1.384 . S
C603 C602 1.377 . S
C603 C609 1.390 . S
C604 H595 0.930 . S
C604 C602 1.384 . S
C604 C605 1.372 . S
C605 C604 1.372 . S
C605 C606 1.400 . S
C605 C610 1.490 . S
C606 H596 0.930 . S
C606 C605 1.400 . S
C606 C609 1.386 . S
H607 C623 0.930 . S
H608 C624 0.931 . S
C609 H597 0.929 . S
C609 C603 1.390 . S
C609 C606 1.386 . S
C610 C605 1.490 . S
C610 C612 1.395 . S
C610 C613 1.403 1_556 S
H611 C617 0.930 . S
C612 H598 0.930 . S
C612 C610 1.395 . S
C612 C615 1.403 . S
C613 C610 1.403 1_554 S
C613 C614 1.524 . S
C613 C617 1.400 . S
C614 H599 0.960 . S
C614 H600 0.960 . S
C614 H601 0.960 . S
C614 C613 1.524 . S
C615 C612 1.403 . S
C615 C616 1.392 1_556 S
C615 C619 1.495 . S
C616 C615 1.392 1_554 S
C616 C617 1.385 . S
C616 C618 1.478 . S
C617 H611 0.930 . S
C617 C613 1.400 . S
C617 C616 1.385 . S
C618 C616 1.478 . S
C618 C620 1.381 . S
C618 C624 1.383 . S
C619 C615 1.495 . S
C619 H625 0.959 . S
C619 H626 0.961 . S
C619 H627 0.960 . S
C620 C618 1.381 . S
C620 C621 1.394 . S
C620 H628 0.930 . S
C621 C620 1.394 . S
C621 C622 1.383 . S
C621 H629 0.929 . S
C622 C621 1.383 . S
C622 C623 1.377 . S
C623 H607 0.930 . S
C623 C622 1.377 . S
C623 C624 1.379 . S
C624 H608 0.931 . S
C624 C618 1.383 . S
C624 C623 1.379 . S
H625 C619 0.959 . S
H626 C619 0.961 . S
H627 C619 0.960 . S
H628 C620 0.930 . S
H629 C621 0.929 . S
H630 C638 0.929 . S
H631 C640 0.930 . S
H632 C642 0.930 . S
H633 C645 0.929 . S
H634 C648 0.930 . S
H635 C650 0.960 . S
H636 C650 0.960 . S
H637 C650 0.960 1_545 S
C638 H630 0.929 . S
C638 C639 1.377 . S
C638 C640 1.384 . S
C639 C638 1.377 . S
C639 C645 1.390 . S
C640 H631 0.930 . S
C640 C638 1.384 . S
C640 C641 1.372 . S
C641 C640 1.372 . S
C641 C642 1.400 . S
C641 C646 1.490 . S
C642 H632 0.930 . S
C642 C641 1.400 . S
C642 C645 1.386 . S
H643 C659 0.930 . S
H644 C660 0.931 . S
C645 H633 0.929 . S
C645 C639 1.390 . S
C645 C642 1.386 . S
C646 C641 1.490 . S
C646 C648 1.395 1_556 S
C646 C649 1.403 1_545 S
H647 C653 0.930 . S
C648 H634 0.930 . S
C648 C646 1.395 1_554 S
C648 C651 1.403 . S
C649 C646 1.403 1_565 S
C649 C650 1.524 . S
C649 C653 1.400 . S
C650 H635 0.960 . S
C650 H636 0.960 . S
C650 H637 0.960 1_565 S
C650 C649 1.524 . S
C651 C648 1.403 . S
C651 C652 1.392 1_545 S
C651 C655 1.495 . S
C652 C651 1.392 1_565 S
C652 C653 1.385 1_554 S
C652 C654 1.478 . S
C653 H647 0.930 . S
C653 C649 1.400 . S
C653 C652 1.385 1_556 S
C654 C652 1.478 . S
C654 C656 1.381 . S
C654 C660 1.383 . S
C655 C651 1.495 . S
C655 H661 0.959 . S
C655 H662 0.961 . S
C655 H663 0.960 1_545 S
C656 C654 1.381 . S
C656 C657 1.394 . S
C656 H664 0.930 . S
C657 C656 1.394 . S
C657 C658 1.383 . S
C657 H665 0.929 . S
C658 C657 1.383 . S
C658 C659 1.377 . S
C659 H643 0.930 . S
C659 C658 1.377 . S
C659 C660 1.379 . S
C660 H644 0.931 . S
C660 C654 1.383 . S
C660 C659 1.379 . S
H661 C655 0.959 . S
H662 C655 0.961 . S
H663 C655 0.960 1_565 S
H664 C656 0.930 . S
H665 C657 0.929 . S
H666 C674 0.929 . S
H667 C676 0.930 . S
H668 C678 0.930 . S
H669 C681 0.929 . S
H670 C684 0.930 . S
H671 C686 0.992 . S
H672 C686 0.960 . S
H673 C686 0.960 . S
C674 H666 0.929 . S
C674 C675 1.377 . S
C674 C676 1.384 . S
C675 C674 1.377 . S
C675 C681 1.390 . S
C676 H667 0.930 . S
C676 C674 1.384 . S
C676 C677 1.372 . S
C677 C676 1.372 . S
C677 C678 1.400 . S
C677 C682 1.490 . S
C678 H668 0.930 . S
C678 C677 1.400 . S
C678 C681 1.386 . S
H679 C695 0.930 . S
H680 C696 0.931 . S
C681 H669 0.929 . S
C681 C675 1.390 . S
C681 C678 1.386 . S
C682 C677 1.490 . S
C682 C684 1.395 . S
C682 C685 1.403 . S
H683 C689 0.930 . S
C684 H670 0.930 . S
C684 C682 1.395 . S
C684 C687 1.403 1_454 S
C685 C682 1.403 . S
C685 C686 1.524 . S
C685 C689 1.400 1_454 S
C686 H671 0.992 . S
C686 H672 0.960 . S
C686 H673 0.960 . S
C686 C685 1.524 . S
C687 C684 1.403 1_656 S
C687 C688 1.392 . S
C687 C691 1.495 . S
C688 C687 1.392 . S
C688 C689 1.385 . S
C688 C690 1.478 . S
C689 H683 0.930 . S
C689 C685 1.400 1_656 S
C689 C688 1.385 . S
C690 C688 1.478 . S
C690 C692 1.381 . S
C690 C696 1.383 . S
C691 C687 1.495 . S
C691 H697 0.959 1_655 S
C691 H698 0.961 . S
C691 H699 0.960 . S
C692 C690 1.381 . S
C692 C693 1.394 . S
C692 H700 0.930 . S
C693 C692 1.394 . S
C693 C694 1.383 . S
C693 H701 0.929 . S
C694 C693 1.383 . S
C694 C695 1.377 . S
C695 H679 0.930 . S
C695 C694 1.377 . S
C695 C696 1.379 . S
C696 H680 0.931 . S
C696 C690 1.383 . S
C696 C695 1.379 . S
H697 C691 0.959 1_455 S
H698 C691 0.961 . S
H699 C691 0.960 . S
H700 C692 0.930 . S
H701 C693 0.929 . S
H702 C710 0.929 . S
H703 C712 0.930 . S
H704 C714 0.930 . S
H705 C717 0.929 . S
H706 C720 0.930 . S
H707 C722 0.960 . S
H708 C722 0.960 1_554 S
H709 C722 0.960 . S
C710 H702 0.929 . S
C710 C711 1.377 . S
C710 C712 1.384 . S
C711 C710 1.377 . S
C711 C717 1.390 . S
C712 H703 0.930 . S
C712 C710 1.384 . S
C712 C713 1.372 . S
C713 C712 1.372 . S
C713 C714 1.400 . S
C713 C718 1.490 . S
C714 H704 0.930 . S
C714 C713 1.400 . S
C714 C717 1.386 . S
H715 C731 0.930 . S
H716 C732 0.931 . S
C717 H705 0.929 . S
C717 C711 1.390 . S
C717 C714 1.386 . S
C718 C713 1.490 . S
C718 C720 1.395 . S
C718 C721 1.403 1_554 S
H719 C725 0.930 . S
C720 H706 0.930 . S
C720 C718 1.395 . S
C720 C723 1.403 . S
C721 C718 1.403 1_556 S
C721 C722 1.524 . S
C721 C725 1.400 . S
C722 H707 0.960 . S
C722 H708 0.960 1_556 S
C722 H709 0.960 . S
C722 C721 1.524 . S
C723 C720 1.403 . S
C723 C724 1.392 1_554 S
C723 C727 1.495 . S
C724 C723 1.392 1_556 S
C724 C725 1.385 . S
C724 C726 1.478 . S
C725 H719 0.930 . S
C725 C721 1.400 . S
C725 C724 1.385 . S
C726 C724 1.478 . S
C726 C728 1.381 . S
C726 C732 1.383 . S
C727 C723 1.495 . S
C727 H733 0.959 . S
C727 H734 0.961 1_554 S
C727 H735 0.960 . S
C728 C726 1.381 . S
C728 C729 1.394 . S
C728 H736 0.930 . S
C729 C728 1.394 . S
C729 C730 1.383 . S
C729 H737 0.929 . S
C730 C729 1.383 . S
C730 C731 1.377 . S
C731 H715 0.930 . S
C731 C730 1.377 . S
C731 C732 1.379 . S
C732 H716 0.931 . S
C732 C726 1.383 . S
C732 C731 1.379 . S
H733 C727 0.959 . S
H734 C727 0.961 1_556 S
H735 C727 0.960 . S
H736 C728 0.930 . S
H737 C729 0.929 . S
H738 C746 0.929 . S
H739 C748 0.930 . S
H740 C750 0.930 . S
H741 C753 0.929 . S
H742 C756 0.930 . S
H743 C758 0.960 . S
H744 C758 0.960 . S
H745 C758 0.960 1_545 S
C746 H738 0.929 . S
C746 C747 1.377 . S
C746 C748 1.384 . S
C747 C746 1.377 . S
C747 C753 1.390 . S
C748 H739 0.930 . S
C748 C746 1.384 . S
C748 C749 1.372 . S
C749 C748 1.372 . S
C749 C750 1.400 . S
C749 C754 1.490 . S
C750 H740 0.930 . S
C750 C749 1.400 . S
C750 C753 1.386 . S
H751 C767 0.930 . S
H752 C768 0.931 . S
C753 H741 0.929 . S
C753 C747 1.390 . S
C753 C750 1.386 . S
C754 C749 1.490 . S
C754 C756 1.395 . S
C754 C757 1.402 1_545 S
H755 C761 0.930 . S
C756 H742 0.930 . S
C756 C754 1.395 . S
C756 C759 1.403 1_556 S
C757 C754 1.402 1_565 S
C757 C758 1.523 . S
C757 C761 1.401 1_556 S
C758 H743 0.960 . S
C758 H744 0.960 . S
C758 H745 0.960 1_565 S
C758 C757 1.523 . S
C759 C756 1.403 1_554 S
C759 C760 1.392 1_545 S
C759 C763 1.520 . S
C760 C759 1.392 1_565 S
C760 C761 1.385 . S
C760 C762 1.478 . S
C761 H755 0.930 . S
C761 C757 1.401 1_554 S
C761 C760 1.385 . S
C762 C760 1.478 . S
C762 C764 1.381 . S
C762 C768 1.383 . S
C763 C759 1.520 . S
C763 H769 0.979 . S
C763 H770 0.984 . S
C763 H771 0.897 1_545 S
C764 C762 1.381 . S
C764 C765 1.394 . S
C764 H772 0.930 . S
C765 C764 1.394 . S
C765 C766 1.383 . S
C765 H773 0.929 . S
C766 C765 1.383 . S
C766 C767 1.377 . S
C767 H751 0.930 . S
C767 C766 1.377 . S
C767 C768 1.379 . S
C768 H752 0.931 . S
C768 C762 1.383 . S
C768 C767 1.379 . S
H769 C763 0.979 . S
H770 C763 0.984 . S
H771 C763 0.897 1_565 S
H772 C764 0.930 . S
H773 C765 0.929 . S
H774 C782 0.929 . S
H775 C784 0.930 . S
H776 C786 0.930 . S
H777 C789 0.929 . S
H778 C792 0.930 . S
H779 C794 0.960 . S
H780 C794 0.960 . S
H781 C794 0.960 . S
C782 H774 0.929 . S
C782 C783 1.377 . S
C782 C784 1.384 . S
C783 C782 1.377 . S
C783 C789 1.390 . S
C784 H775 0.930 . S
C784 C782 1.384 . S
C784 C785 1.372 . S
C785 C784 1.372 . S
C785 C786 1.400 . S
C785 C790 1.490 . S
C786 H776 0.930 . S
C786 C785 1.400 . S
C786 C789 1.386 . S
H787 C803 0.930 . S
H788 C804 0.931 . S
C789 H777 0.929 . S
C789 C783 1.390 . S
C789 C786 1.386 . S
C790 C785 1.490 . S
C790 C792 1.395 1_556 S
C790 C793 1.403 1_655 S
H791 C797 0.931 . S
C792 H778 0.930 . S
C792 C790 1.395 1_554 S
C792 C795 1.403 . S
C793 C790 1.403 1_455 S
C793 C794 1.524 . S
C793 C797 1.400 1_556 S
C794 H779 0.960 . S
C794 H780 0.960 . S
C794 H781 0.960 . S
C794 C793 1.524 . S
C795 C792 1.403 . S
C795 C796 1.392 1_655 S
C795 C799 1.495 . S
C796 C795 1.392 1_455 S
C796 C797 1.385 . S
C796 C798 1.478 . S
C797 H791 0.931 . S
C797 C793 1.400 1_554 S
C797 C796 1.385 . S
C798 C796 1.478 . S
C798 C800 1.381 . S
C798 C804 1.383 . S
C799 C795 1.495 . S
C799 H805 0.959 . S
C799 H806 0.961 . S
C799 H807 0.960 . S
C800 C798 1.381 . S
C800 C801 1.394 . S
C800 H808 0.930 . S
C801 C800 1.394 . S
C801 C802 1.383 . S
C801 H809 0.929 . S
C802 C801 1.383 . S
C802 C803 1.377 . S
C803 H787 0.930 . S
C803 C802 1.377 . S
C803 C804 1.379 . S
C804 H788 0.931 . S
C804 C798 1.383 . S
C804 C803 1.379 . S
H805 C799 0.959 . S
H806 C799 0.961 . S
H807 C799 0.960 . S
H808 C800 0.930 . S
H809 C801 0.929 . S
H810 C818 0.929 . S
H811 C820 0.930 . S
H812 C822 0.930 . S
H813 C825 0.929 . S
H814 C828 0.930 . S
H815 C830 0.960 . S
H816 C830 0.960 . S
H817 C830 0.960 . S
C818 H810 0.929 . S
C818 C819 1.377 . S
C818 C820 1.384 . S
C819 C818 1.377 . S
C819 C825 1.390 . S
C820 H811 0.930 . S
C820 C818 1.384 . S
C820 C821 1.372 . S
C821 C820 1.372 . S
C821 C822 1.400 . S
C821 C826 1.490 . S
C822 H812 0.930 . S
C822 C821 1.400 . S
C822 C825 1.386 . S
H823 C839 0.930 . S
H824 C840 0.931 . S
C825 H813 0.929 . S
C825 C819 1.390 . S
C825 C822 1.386 . S
C826 C821 1.490 . S
C826 C828 1.395 . S
C826 C829 1.403 . S
H827 C833 0.930 . S
C828 H814 0.930 . S
C828 C826 1.395 . S
C828 C831 1.403 . S
C829 C826 1.403 . S
C829 C830 1.524 . S
C829 C833 1.400 . S
C830 H815 0.960 . S
C830 H816 0.960 . S
C830 H817 0.960 . S
C830 C829 1.524 . S
C831 C828 1.403 . S
C831 C832 1.392 . S
C831 C835 1.495 . S
C832 C831 1.392 . S
C832 C833 1.385 . S
C832 C834 1.478 . S
C833 H827 0.930 . S
C833 C829 1.400 . S
C833 C832 1.385 . S
C834 C832 1.478 . S
C834 C836 1.381 . S
C834 C840 1.383 . S
C835 C831 1.495 . S
C835 H841 0.959 . S
C835 H842 0.961 . S
C835 H843 0.960 . S
C836 C834 1.381 . S
C836 C837 1.394 . S
C836 H844 0.930 . S
C837 C836 1.394 . S
C837 C838 1.383 . S
C837 H845 0.929 . S
C838 C837 1.383 . S
C838 C839 1.377 . S
C839 H823 0.930 . S
C839 C838 1.377 . S
C839 C840 1.379 . S
C840 H824 0.931 . S
C840 C834 1.383 . S
C840 C839 1.379 . S
H841 C835 0.959 . S
H842 C835 0.961 . S
H843 C835 0.960 . S
H844 C836 0.930 . S
H845 C837 0.929 . S
H846 C854 0.929 . S
H847 C856 0.930 . S
H848 C858 0.930 . S
H849 C861 0.929 . S
H850 C864 0.930 . S
H851 C866 0.960 . S
H852 C866 0.960 . S
H853 C866 0.960 . S
C854 H846 0.929 . S
C854 C855 1.377 . S
C854 C856 1.384 . S
C855 C854 1.377 . S
C855 C861 1.390 . S
C856 H847 0.930 . S
C856 C854 1.384 . S
C856 C857 1.372 . S
C857 C856 1.372 . S
C857 C858 1.400 . S
C857 C862 1.490 . S
C858 H848 0.930 . S
C858 C857 1.400 . S
C858 C861 1.386 . S
H859 C875 0.930 . S
H860 C876 0.931 . S
C861 H849 0.929 . S
C861 C855 1.390 . S
C861 C858 1.386 . S
C862 C857 1.490 . S
C862 C864 1.395 . S
C862 C865 1.403 . S
H863 C869 0.930 . S
C864 H850 0.930 . S
C864 C862 1.395 . S
C864 C867 1.403 . S
C865 C862 1.403 . S
C865 C866 1.524 . S
C865 C869 1.400 . S
C866 H851 0.960 . S
C866 H852 0.960 . S
C866 H853 0.960 . S
C866 C865 1.524 . S
C867 C864 1.403 . S
C867 C868 1.392 . S
C867 C871 1.495 . S
C868 C867 1.392 . S
C868 C869 1.385 . S
C868 C870 1.478 . S
C869 H863 0.930 . S
C869 C865 1.400 . S
C869 C868 1.385 . S
C870 C868 1.478 . S
C870 C872 1.381 . S
C870 C876 1.383 . S
C871 C867 1.495 . S
C871 H877 0.959 . S
C871 H878 0.961 . S
C871 H879 0.960 . S
C872 C870 1.381 . S
C872 C873 1.394 . S
C872 H880 0.930 . S
C873 C872 1.394 . S
C873 C874 1.383 . S
C873 H881 0.929 . S
C874 C873 1.383 . S
C874 C875 1.377 . S
C875 H859 0.930 . S
C875 C874 1.377 . S
C875 C876 1.379 . S
C876 H860 0.931 . S
C876 C870 1.383 . S
C876 C875 1.379 . S
H877 C871 0.959 . S
H878 C871 0.961 . S
H879 C871 0.960 . S
H880 C872 0.930 . S
H881 C873 0.929 . S
H882 C890 0.929 . S
H883 C892 0.930 . S
H884 C894 0.930 . S
H885 C897 0.929 . S
H886 C900 0.930 . S
H887 C902 0.960 . S
H888 C902 0.960 . S
H889 C902 0.960 . S
C890 H882 0.929 . S
C890 C891 1.377 . S
C890 C892 1.384 . S
C891 C890 1.377 . S
C891 C897 1.390 . S
C892 H883 0.930 . S
C892 C890 1.384 . S
C892 C893 1.372 . S
C893 C892 1.372 . S
C893 C894 1.400 . S
C893 C898 1.490 . S
C894 H884 0.930 . S
C894 C893 1.400 . S
C894 C897 1.386 . S
H895 C911 0.930 . S
H896 C912 0.931 . S
C897 H885 0.929 . S
C897 C891 1.390 . S
C897 C894 1.386 . S
C898 C893 1.490 . S
C898 C900 1.395 . S
C898 C901 1.403 . S
H899 C905 0.930 . S
C900 H886 0.930 . S
C900 C898 1.395 . S
C900 C903 1.403 . S
C901 C898 1.403 . S
C901 C902 1.524 . S
C901 C905 1.400 . S
C902 H887 0.960 . S
C902 H888 0.960 . S
C902 H889 0.960 . S
C902 C901 1.524 . S
C903 C900 1.403 . S
C903 C904 1.392 . S
C903 C907 1.495 . S
C904 C903 1.392 . S
C904 C905 1.385 . S
C904 C906 1.478 . S
C905 H899 0.930 . S
C905 C901 1.400 . S
C905 C904 1.385 . S
C906 C904 1.478 . S
C906 C908 1.381 . S
C906 C912 1.383 . S
C907 C903 1.495 . S
C907 H913 0.959 . S
C907 H914 0.961 . S
C907 H915 0.960 . S
C908 C906 1.381 . S
C908 C909 1.394 . S
C908 H916 0.930 . S
C909 C908 1.394 . S
C909 C910 1.383 . S
C909 H917 0.929 . S
C910 C909 1.383 . S
C910 C911 1.377 . S
C911 H895 0.930 . S
C911 C910 1.377 . S
C911 C912 1.379 . S
C912 H896 0.931 . S
C912 C906 1.383 . S
C912 C911 1.379 . S
H913 C907 0.959 . S
H914 C907 0.961 . S
H915 C907 0.960 . S
H916 C908 0.930 . S
H917 C909 0.929 . S
H918 C926 0.929 . S
H919 C928 0.930 . S
H920 C930 0.930 . S
H921 C933 0.929 . S
H922 C936 0.930 . S
H923 C938 0.960 . S
H924 C938 0.960 . S
H925 C938 0.960 . S
C926 H918 0.929 . S
C926 C927 1.377 . S
C926 C928 1.384 . S
C927 C926 1.377 . S
C927 C933 1.390 . S
C928 H919 0.930 . S
C928 C926 1.384 . S
C928 C929 1.372 . S
C929 C928 1.372 . S
C929 C930 1.400 . S
C929 C934 1.490 . S
C930 H920 0.930 . S
C930 C929 1.400 . S
C930 C933 1.386 . S
H931 C947 0.930 . S
H932 C948 0.931 . S
C933 H921 0.929 . S
C933 C927 1.390 . S
C933 C930 1.386 . S
C934 C929 1.490 . S
C934 C936 1.395 . S
C934 C937 1.403 . S
H935 C941 0.930 . S
C936 H922 0.930 . S
C936 C934 1.395 . S
C936 C939 1.403 . S
C937 C934 1.403 . S
C937 C938 1.524 . S
C937 C941 1.400 . S
C938 H923 0.960 . S
C938 H924 0.960 . S
C938 H925 0.960 . S
C938 C937 1.524 . S
C939 C936 1.403 . S
C939 C940 1.392 . S
C939 C943 1.495 . S
C940 C939 1.392 . S
C940 C941 1.385 . S
C940 C942 1.478 . S
C941 H935 0.930 . S
C941 C937 1.400 . S
C941 C940 1.385 . S
C942 C940 1.478 . S
C942 C944 1.381 . S
C942 C948 1.383 . S
C943 C939 1.495 . S
C943 H949 0.959 . S
C943 H950 0.961 . S
C943 H951 0.960 . S
C944 C942 1.381 . S
C944 C945 1.394 . S
C944 H952 0.930 . S
C945 C944 1.394 . S
C945 C946 1.383 . S
C945 H953 0.929 . S
C946 C945 1.383 . S
C946 C947 1.377 . S
C947 H931 0.930 . S
C947 C946 1.377 . S
C947 C948 1.379 . S
C948 H932 0.931 . S
C948 C942 1.383 . S
C948 C947 1.379 . S
H949 C943 0.959 . S
H950 C943 0.961 . S
H951 C943 0.960 . S
H952 C944 0.930 . S
H953 C945 0.929 . S
H954 C962 0.929 . S
H955 C964 0.930 . S
H956 C966 0.930 . S
H957 C969 0.929 . S
H958 C972 0.930 . S
H959 C974 0.960 . S
H960 C974 0.960 . S
H961 C974 0.960 . S
C962 H954 0.929 . S
C962 C963 1.377 . S
C962 C964 1.384 . S
C963 C962 1.377 . S
C963 C969 1.390 . S
C964 H955 0.930 . S
C964 C962 1.384 . S
C964 C965 1.372 . S
C965 C964 1.372 . S
C965 C966 1.400 . S
C965 C970 1.490 . S
C966 H956 0.930 . S
C966 C965 1.400 . S
C966 C969 1.386 . S
H967 C983 0.930 . S
H968 C984 0.931 . S
C969 H957 0.929 . S
C969 C963 1.390 . S
C969 C966 1.386 . S
C970 C965 1.490 . S
C970 C972 1.395 . S
C970 C973 1.403 . S
H971 C977 0.930 . S
C972 H958 0.930 . S
C972 C970 1.395 . S
C972 C975 1.403 . S
C973 C970 1.403 . S
C973 C974 1.524 . S
C973 C977 1.400 . S
C974 H959 0.960 . S
C974 H960 0.960 . S
C974 H961 0.960 . S
C974 C973 1.524 . S
C975 C972 1.403 . S
C975 C976 1.392 . S
C975 C979 1.495 . S
C976 C975 1.392 . S
C976 C977 1.385 . S
C976 C978 1.478 . S
C977 H971 0.930 . S
C977 C973 1.400 . S
C977 C976 1.385 . S
C978 C976 1.478 . S
C978 C980 1.381 . S
C978 C984 1.383 . S
C979 C975 1.495 . S
C979 H985 0.959 . S
C979 H986 0.961 . S
C979 H987 0.960 . S
C980 C978 1.381 . S
C980 C981 1.394 . S
C980 H988 0.930 . S
C981 C980 1.394 . S
C981 C982 1.383 . S
C981 H989 0.929 . S
C982 C981 1.383 . S
C982 C983 1.377 . S
C983 H967 0.930 . S
C983 C982 1.377 . S
C983 C984 1.379 . S
C984 H968 0.931 . S
C984 C978 1.383 . S
C984 C983 1.379 . S
H985 C979 0.959 . S
H986 C979 0.961 . S
H987 C979 0.960 . S
H988 C980 0.930 . S
H989 C981 0.929 . S
H990 C998 0.929 . S
H991 C1000 0.930 . S
H992 C1002 0.930 . S
H993 C1005 0.929 . S
H994 C1008 0.930 . S
H995 C1010 0.960 . S
H996 C1010 0.960 . S
H997 C1010 0.960 . S
C998 H990 0.929 . S
C998 C999 1.377 . S
C998 C1000 1.384 . S
C999 C998 1.377 . S
C999 C1005 1.390 . S
C1000 H991 0.930 . S
C1000 C998 1.384 . S
C1000 C1001 1.372 . S
C1001 C1000 1.372 . S
C1001 C1002 1.400 . S
C1001 C1006 1.490 . S
C1002 H992 0.930 . S
C1002 C1001 1.400 . S
C1002 C1005 1.386 . S
H1003 C1019 0.930 . S
H1004 C1020 0.931 . S
C1005 H993 0.929 . S
C1005 C999 1.390 . S
C1005 C1002 1.386 . S
C1006 C1001 1.490 . S
C1006 C1008 1.395 . S
C1006 C1009 1.403 . S
H1007 C1013 0.930 . S
C1008 H994 0.930 . S
C1008 C1006 1.395 . S
C1008 C1011 1.403 . S
C1009 C1006 1.403 . S
C1009 C1010 1.524 . S
C1009 C1013 1.400 . S
C1010 H995 0.960 . S
C1010 H996 0.960 . S
C1010 H997 0.960 . S
C1010 C1009 1.524 . S
C1011 C1008 1.403 . S
C1011 C1012 1.392 . S
C1011 C1015 1.495 . S
C1012 C1011 1.392 . S
C1012 C1013 1.385 . S
C1012 C1014 1.478 . S
C1013 H1007 0.930 . S
C1013 C1009 1.400 . S
C1013 C1012 1.385 . S
C1014 C1012 1.478 . S
C1014 C1016 1.381 . S
C1014 C1020 1.383 . S
C1015 C1011 1.495 . S
C1015 H1021 0.959 . S
C1015 H1022 0.961 . S
C1015 H1023 0.960 . S
C1016 C1014 1.381 . S
C1016 C1017 1.394 . S
C1016 H1024 0.930 . S
C1017 C1016 1.394 . S
C1017 C1018 1.383 . S
C1017 H1025 0.929 . S
C1018 C1017 1.383 . S
C1018 C1019 1.377 . S
C1019 H1003 0.930 . S
C1019 C1018 1.377 . S
C1019 C1020 1.379 . S
C1020 H1004 0.931 . S
C1020 C1014 1.383 . S
C1020 C1019 1.379 . S
H1021 C1015 0.959 . S
H1022 C1015 0.961 . S
H1023 C1015 0.960 . S
H1024 C1016 0.930 . S
H1025 C1017 0.929 . S
H1026 C1034 0.929 . S
H1027 C1036 0.930 . S
H1028 C1038 0.930 . S
H1029 C1041 0.929 . S
H1030 C1044 0.930 . S
H1031 C1046 0.960 . S
H1032 C1046 0.960 . S
H1033 C1046 0.960 . S
C1034 H1026 0.929 . S
C1034 C1035 1.377 . S
C1034 C1036 1.384 . S
C1035 C1034 1.377 . S
C1035 C1041 1.390 . S
C1036 H1027 0.930 . S
C1036 C1034 1.384 . S
C1036 C1037 1.372 . S
C1037 C1036 1.372 . S
C1037 C1038 1.400 . S
C1037 C1042 1.490 . S
C1038 H1028 0.930 . S
C1038 C1037 1.400 . S
C1038 C1041 1.386 . S
H1039 C1055 0.930 . S
H1040 C1056 0.931 . S
C1041 H1029 0.929 . S
C1041 C1035 1.390 . S
C1041 C1038 1.386 . S
C1042 C1037 1.490 . S
C1042 C1044 1.395 . S
C1042 C1045 1.403 . S
H1043 C1049 0.930 . S
C1044 H1030 0.930 . S
C1044 C1042 1.395 . S
C1044 C1047 1.403 . S
C1045 C1042 1.403 . S
C1045 C1046 1.524 . S
C1045 C1049 1.400 . S
C1046 H1031 0.960 . S
C1046 H1032 0.960 . S
C1046 H1033 0.960 . S
C1046 C1045 1.524 . S
C1047 C1044 1.403 . S
C1047 C1048 1.392 . S
C1047 C1051 1.495 . S
C1048 C1047 1.392 . S
C1048 C1049 1.385 . S
C1048 C1050 1.478 . S
C1049 H1043 0.930 . S
C1049 C1045 1.400 . S
C1049 C1048 1.385 . S
C1050 C1048 1.478 . S
C1050 C1052 1.381 . S
C1050 C1056 1.383 . S
C1051 C1047 1.495 . S
C1051 H1057 0.959 . S
C1051 H1058 0.961 . S
C1051 H1059 0.960 . S
C1052 C1050 1.381 . S
C1052 C1053 1.394 . S
C1052 H1060 0.930 . S
C1053 C1052 1.394 . S
C1053 C1054 1.383 . S
C1053 H1061 0.929 . S
C1054 C1053 1.383 . S
C1054 C1055 1.377 . S
C1055 H1039 0.930 . S
C1055 C1054 1.377 . S
C1055 C1056 1.379 . S
C1056 H1040 0.931 . S
C1056 C1050 1.383 . S
C1056 C1055 1.379 . S
H1057 C1051 0.959 . S
H1058 C1051 0.961 . S
H1059 C1051 0.960 . S
H1060 C1052 0.930 . S
H1061 C1053 0.929 . S
H1062 C1070 0.929 . S
H1063 C1072 0.930 . S
H1064 C1074 0.930 . S
H1065 C1077 0.929 . S
H1066 C1080 0.930 . S
H1067 C1082 0.960 . S
H1068 C1082 0.960 . S
H1069 C1082 0.960 . S
C1070 H1062 0.929 . S
C1070 C1071 1.377 . S
C1070 C1072 1.384 . S
C1071 C1070 1.377 . S
C1071 C1077 1.390 . S
C1072 H1063 0.930 . S
C1072 C1070 1.384 . S
C1072 C1073 1.372 . S
C1073 C1072 1.372 . S
C1073 C1074 1.400 . S
C1073 C1078 1.490 . S
C1074 H1064 0.930 . S
C1074 C1073 1.400 . S
C1074 C1077 1.386 . S
H1075 C1091 0.930 . S
H1076 C1092 0.931 . S
C1077 H1065 0.929 . S
C1077 C1071 1.390 . S
C1077 C1074 1.386 . S
C1078 C1073 1.490 . S
C1078 C1080 1.395 . S
C1078 C1081 1.403 . S
H1079 C1085 0.930 . S
C1080 H1066 0.930 . S
C1080 C1078 1.395 . S
C1080 C1083 1.403 . S
C1081 C1078 1.403 . S
C1081 C1082 1.524 . S
C1081 C1085 1.400 . S
C1082 H1067 0.960 . S
C1082 H1068 0.960 . S
C1082 H1069 0.960 . S
C1082 C1081 1.524 . S
C1083 C1080 1.403 . S
C1083 C1084 1.392 . S
C1083 C1087 1.495 . S
C1084 C1083 1.392 . S
C1084 C1085 1.385 . S
C1084 C1086 1.478 . S
C1085 H1079 0.930 . S
C1085 C1081 1.400 . S
C1085 C1084 1.385 . S
C1086 C1084 1.478 . S
C1086 C1088 1.381 . S
C1086 C1092 1.383 . S
C1087 C1083 1.495 . S
C1087 H1093 0.959 . S
C1087 H1094 0.961 . S
C1087 H1095 0.960 . S
C1088 C1086 1.381 . S
C1088 C1089 1.394 . S
C1088 H1096 0.930 . S
C1089 C1088 1.394 . S
C1089 C1090 1.383 . S
C1089 H1097 0.929 . S
C1090 C1089 1.383 . S
C1090 C1091 1.377 . S
C1091 H1075 0.930 . S
C1091 C1090 1.377 . S
C1091 C1092 1.379 . S
C1092 H1076 0.931 . S
C1092 C1086 1.383 . S
C1092 C1091 1.379 . S
H1093 C1087 0.959 . S
H1094 C1087 0.961 . S
H1095 C1087 0.960 . S
H1096 C1088 0.930 . S
H1097 C1089 0.929 . S
H1098 C1106 0.929 . S
H1099 C1108 0.930 . S
H1100 C1110 0.930 . S
H1101 C1113 0.929 . S
H1102 C1116 0.930 . S
H1103 C1118 0.960 . S
H1104 C1118 0.960 . S
H1105 C1118 0.960 . S
C1106 H1098 0.929 . S
C1106 C1107 1.377 . S
C1106 C1108 1.384 . S
C1107 C1106 1.377 . S
C1107 C1113 1.390 . S
C1108 H1099 0.930 . S
C1108 C1106 1.384 . S
C1108 C1109 1.372 . S
C1109 C1108 1.372 . S
C1109 C1110 1.400 . S
C1109 C1114 1.490 . S
C1110 H1100 0.930 . S
C1110 C1109 1.400 . S
C1110 C1113 1.386 . S
H1111 C1127 0.930 . S
H1112 C1128 0.931 . S
C1113 H1101 0.929 . S
C1113 C1107 1.390 . S
C1113 C1110 1.386 . S
C1114 C1109 1.490 . S
C1114 C1116 1.395 . S
C1114 C1117 1.403 . S
H1115 C1121 0.930 . S
C1116 H1102 0.930 . S
C1116 C1114 1.395 . S
C1116 C1119 1.403 . S
C1117 C1114 1.403 . S
C1117 C1118 1.524 . S
C1117 C1121 1.400 . S
C1118 H1103 0.960 . S
C1118 H1104 0.960 . S
C1118 H1105 0.960 . S
C1118 C1117 1.524 . S
C1119 C1116 1.403 . S
C1119 C1120 1.392 . S
C1119 C1123 1.495 . S
C1120 C1119 1.392 . S
C1120 C1121 1.385 . S
C1120 C1122 1.478 . S
C1121 H1115 0.930 . S
C1121 C1117 1.400 . S
C1121 C1120 1.385 . S
C1122 C1120 1.478 . S
C1122 C1124 1.381 . S
C1122 C1128 1.383 . S
C1123 C1119 1.495 . S
C1123 H1129 0.959 . S
C1123 H1130 0.961 . S
C1123 H1131 0.960 . S
C1124 C1122 1.381 . S
C1124 C1125 1.394 . S
C1124 H1132 0.930 . S
C1125 C1124 1.394 . S
C1125 C1126 1.383 . S
C1125 H1133 0.929 . S
C1126 C1125 1.383 . S
C1126 C1127 1.377 . S
C1127 H1111 0.930 . S
C1127 C1126 1.377 . S
C1127 C1128 1.379 . S
C1128 H1112 0.931 . S
C1128 C1122 1.383 . S
C1128 C1127 1.379 . S
H1129 C1123 0.959 . S
H1130 C1123 0.961 . S
H1131 C1123 0.960 . S
H1132 C1124 0.930 . S
H1133 C1125 0.929 . S
H1134 C1142 0.929 . S
H1135 C1144 0.930 . S
H1136 C1146 0.930 . S
H1137 C1149 0.929 . S
H1138 C1152 0.930 . S
H1139 C1154 0.960 . S
H1140 C1154 0.960 . S
H1141 C1154 0.960 . S
C1142 H1134 0.929 . S
C1142 C1143 1.377 . S
C1142 C1144 1.384 . S
C1143 C1142 1.377 . S
C1143 C1149 1.390 . S
C1144 H1135 0.930 . S
C1144 C1142 1.384 . S
C1144 C1145 1.372 . S
C1145 C1144 1.372 . S
C1145 C1146 1.400 . S
C1145 C1150 1.490 . S
C1146 H1136 0.930 . S
C1146 C1145 1.400 . S
C1146 C1149 1.386 . S
H1147 C1163 0.930 . S
H1148 C1164 0.931 . S
C1149 H1137 0.929 . S
C1149 C1143 1.390 . S
C1149 C1146 1.386 . S
C1150 C1145 1.490 . S
C1150 C1152 1.395 . S
C1150 C1153 1.403 . S
H1151 C1157 0.930 . S
C1152 H1138 0.930 . S
C1152 C1150 1.395 . S
C1152 C1155 1.403 . S
C1153 C1150 1.403 . S
C1153 C1154 1.524 . S
C1153 C1157 1.400 . S
C1154 H1139 0.960 . S
C1154 H1140 0.960 . S
C1154 H1141 0.960 . S
C1154 C1153 1.524 . S
C1155 C1152 1.403 . S
C1155 C1156 1.392 . S
C1155 C1159 1.495 . S
C1156 C1155 1.392 . S
C1156 C1157 1.385 . S
C1156 C1158 1.478 . S
C1157 H1151 0.930 . S
C1157 C1153 1.400 . S
C1157 C1156 1.385 . S
C1158 C1156 1.478 . S
C1158 C1160 1.381 . S
C1158 C1164 1.383 . S
C1159 C1155 1.495 . S
C1159 H1165 0.959 . S
C1159 H1166 0.961 . S
C1159 H1167 0.960 . S
C1160 C1158 1.381 . S
C1160 C1161 1.394 . S
C1160 H1168 0.930 . S
C1161 C1160 1.394 . S
C1161 C1162 1.383 . S
C1161 H1169 0.929 . S
C1162 C1161 1.383 . S
C1162 C1163 1.377 . S
C1163 H1147 0.930 . S
C1163 C1162 1.377 . S
C1163 C1164 1.379 . S
C1164 H1148 0.931 . S
C1164 C1158 1.383 . S
C1164 C1163 1.379 . S
H1165 C1159 0.959 . S
H1166 C1159 0.961 . S
H1167 C1159 0.960 . S
H1168 C1160 0.930 . S
H1169 C1161 0.929 . S
H1170 C1178 0.929 . S
H1171 C1180 0.930 . S
H1172 C1182 0.930 . S
H1173 C1185 0.929 . S
H1174 C1188 0.930 . S
H1175 C1190 0.960 . S
H1176 C1190 0.960 . S
H1177 C1190 0.960 . S
C1178 H1170 0.929 . S
C1178 C1179 1.377 . S
C1178 C1180 1.384 . S
C1179 C1178 1.377 . S
C1179 C1185 1.390 . S
C1180 H1171 0.930 . S
C1180 C1178 1.384 . S
C1180 C1181 1.372 . S
C1181 C1180 1.372 . S
C1181 C1182 1.400 . S
C1181 C1186 1.490 . S
C1182 H1172 0.930 . S
C1182 C1181 1.400 . S
C1182 C1185 1.386 . S
H1183 C1199 0.930 . S
H1184 C1200 0.931 . S
C1185 H1173 0.929 . S
C1185 C1179 1.390 . S
C1185 C1182 1.386 . S
C1186 C1181 1.490 . S
C1186 C1188 1.395 . S
C1186 C1189 1.403 . S
H1187 C1193 0.930 . S
C1188 H1174 0.930 . S
C1188 C1186 1.395 . S
C1188 C1191 1.403 . S
C1189 C1186 1.403 . S
C1189 C1190 1.524 . S
C1189 C1193 1.400 . S
C1190 H1175 0.960 . S
C1190 H1176 0.960 . S
C1190 H1177 0.960 . S
C1190 C1189 1.524 . S
C1191 C1188 1.403 . S
C1191 C1192 1.392 . S
C1191 C1195 1.495 . S
C1192 C1191 1.392 . S
C1192 C1193 1.385 . S
C1192 C1194 1.478 . S
C1193 H1187 0.930 . S
C1193 C1189 1.400 . S
C1193 C1192 1.385 . S
C1194 C1192 1.478 . S
C1194 C1196 1.381 . S
C1194 C1200 1.383 . S
C1195 C1191 1.495 . S
C1195 H1201 0.959 . S
C1195 H1202 0.961 . S
C1195 H1203 0.960 . S
C1196 C1194 1.381 . S
C1196 C1197 1.394 . S
C1196 H1204 0.930 . S
C1197 C1196 1.394 . S
C1197 C1198 1.383 . S
C1197 H1205 0.929 . S
C1198 C1197 1.383 . S
C1198 C1199 1.377 . S
C1199 H1183 0.930 . S
C1199 C1198 1.377 . S
C1199 C1200 1.379 . S
C1200 H1184 0.931 . S
C1200 C1194 1.383 . S
C1200 C1199 1.379 . S
H1201 C1195 0.959 . S
H1202 C1195 0.961 . S
H1203 C1195 0.960 . S
H1204 C1196 0.930 . S
H1205 C1197 0.929 . S
H1206 C1214 0.929 . S
H1207 C1216 0.930 . S
H1208 C1218 0.930 . S
H1209 C1221 0.929 . S
H1210 C1224 0.930 . S
H1211 C1226 0.960 . S
H1212 C1226 0.960 . S
H1213 C1226 0.960 . S
C1214 H1206 0.929 . S
C1214 C1215 1.377 . S
C1214 C1216 1.384 . S
C1215 C1214 1.377 . S
C1215 C1221 1.390 . S
C1216 H1207 0.930 . S
C1216 C1214 1.384 . S
C1216 C1217 1.372 . S
C1217 C1216 1.372 . S
C1217 C1218 1.400 . S
C1217 C1222 1.490 . S
C1218 H1208 0.930 . S
C1218 C1217 1.400 . S
C1218 C1221 1.386 . S
H1219 C1235 0.930 . S
H1220 C1236 0.931 . S
C1221 H1209 0.929 . S
C1221 C1215 1.390 . S
C1221 C1218 1.386 . S
C1222 C1217 1.490 . S
C1222 C1224 1.395 . S
C1222 C1225 1.403 . S
H1223 C1229 0.930 . S
C1224 H1210 0.930 . S
C1224 C1222 1.395 . S
C1224 C1227 1.403 . S
C1225 C1222 1.403 . S
C1225 C1226 1.524 . S
C1225 C1229 1.400 . S
C1226 H1211 0.960 . S
C1226 H1212 0.960 . S
C1226 H1213 0.960 . S
C1226 C1225 1.524 . S
C1227 C1224 1.403 . S
C1227 C1228 1.392 . S
C1227 C1231 1.495 . S
C1228 C1227 1.392 . S
C1228 C1229 1.385 . S
C1228 C1230 1.478 . S
C1229 H1223 0.930 . S
C1229 C1225 1.400 . S
C1229 C1228 1.385 . S
C1230 C1228 1.478 . S
C1230 C1232 1.381 . S
C1230 C1236 1.383 . S
C1231 C1227 1.495 . S
C1231 H1237 0.959 . S
C1231 H1238 0.961 . S
C1231 H1239 0.960 . S
C1232 C1230 1.381 . S
C1232 C1233 1.394 . S
C1232 H1240 0.930 . S
C1233 C1232 1.394 . S
C1233 C1234 1.383 . S
C1233 H1241 0.929 . S
C1234 C1233 1.383 . S
C1234 C1235 1.377 . S
C1235 H1219 0.930 . S
C1235 C1234 1.377 . S
C1235 C1236 1.379 . S
C1236 H1220 0.931 . S
C1236 C1230 1.383 . S
C1236 C1235 1.379 . S
H1237 C1231 0.959 . S
H1238 C1231 0.961 . S
H1239 C1231 0.960 . S
H1240 C1232 0.930 . S
H1241 C1233 0.929 . S
H1242 C1250 0.929 . S
H1243 C1252 0.930 . S
H1244 C1254 0.930 . S
H1245 C1257 0.929 . S
H1246 C1260 0.930 . S
H1247 C1262 0.960 . S
H1248 C1262 0.960 . S
H1249 C1262 0.960 . S
C1250 H1242 0.929 . S
C1250 C1251 1.377 . S
C1250 C1252 1.384 . S
C1251 C1250 1.377 . S
C1251 C1257 1.390 . S
C1252 H1243 0.930 . S
C1252 C1250 1.384 . S
C1252 C1253 1.372 . S
C1253 C1252 1.372 . S
C1253 C1254 1.400 . S
C1253 C1258 1.490 . S
C1254 H1244 0.930 . S
C1254 C1253 1.400 . S
C1254 C1257 1.386 . S
H1255 C1271 0.930 . S
H1256 C1272 0.931 . S
C1257 H1245 0.929 . S
C1257 C1251 1.390 . S
C1257 C1254 1.386 . S
C1258 C1253 1.490 . S
C1258 C1260 1.395 . S
C1258 C1261 1.403 . S
H1259 C1265 0.930 . S
C1260 H1246 0.930 . S
C1260 C1258 1.395 . S
C1260 C1263 1.403 . S
C1261 C1258 1.403 . S
C1261 C1262 1.524 . S
C1261 C1265 1.400 . S
C1262 H1247 0.960 . S
C1262 H1248 0.960 . S
C1262 H1249 0.960 . S
C1262 C1261 1.524 . S
C1263 C1260 1.403 . S
C1263 C1264 1.392 . S
C1263 C1267 1.495 . S
C1264 C1263 1.392 . S
C1264 C1265 1.385 . S
C1264 C1266 1.478 . S
C1265 H1259 0.930 . S
C1265 C1261 1.400 . S
C1265 C1264 1.385 . S
C1266 C1264 1.478 . S
C1266 C1268 1.381 . S
C1266 C1272 1.383 . S
C1267 C1263 1.495 . S
C1267 H1273 0.959 . S
C1267 H1274 0.961 . S
C1267 H1275 0.960 . S
C1268 C1266 1.381 . S
C1268 C1269 1.394 . S
C1268 H1276 0.930 . S
C1269 C1268 1.394 . S
C1269 C1270 1.383 . S
C1269 H1277 0.929 . S
C1270 C1269 1.383 . S
C1270 C1271 1.377 . S
C1271 H1255 0.930 . S
C1271 C1270 1.377 . S
C1271 C1272 1.379 . S
C1272 H1256 0.931 . S
C1272 C1266 1.383 . S
C1272 C1271 1.379 . S
H1273 C1267 0.959 . S
H1274 C1267 0.961 . S
H1275 C1267 0.960 . S
H1276 C1268 0.930 . S
H1277 C1269 0.929 . S
H1278 C1286 0.929 . S
H1279 C1288 0.930 . S
H1280 C1290 0.930 . S
H1281 C1293 0.929 . S
H1282 C1296 0.930 . S
H1283 C1298 0.960 . S
H1284 C1298 0.960 . S
H1285 C1298 0.960 . S
C1286 H1278 0.929 . S
C1286 C1287 1.377 . S
C1286 C1288 1.384 . S
C1287 C1286 1.377 . S
C1287 C1293 1.390 . S
C1288 H1279 0.930 . S
C1288 C1286 1.384 . S
C1288 C1289 1.372 . S
C1289 C1288 1.372 . S
C1289 C1290 1.400 . S
C1289 C1294 1.490 . S
C1290 H1280 0.930 . S
C1290 C1289 1.400 . S
C1290 C1293 1.386 . S
H1291 C1307 0.930 . S
H1292 C1308 0.931 . S
C1293 H1281 0.929 . S
C1293 C1287 1.390 . S
C1293 C1290 1.386 . S
C1294 C1289 1.490 . S
C1294 C1296 1.395 . S
C1294 C1297 1.403 . S
H1295 C1301 0.930 . S
C1296 H1282 0.930 . S
C1296 C1294 1.395 . S
C1296 C1299 1.403 . S
C1297 C1294 1.403 . S
C1297 C1298 1.524 . S
C1297 C1301 1.400 . S
C1298 H1283 0.960 . S
C1298 H1284 0.960 . S
C1298 H1285 0.960 . S
C1298 C1297 1.524 . S
C1299 C1296 1.403 . S
C1299 C1300 1.392 . S
C1299 C1303 1.495 . S
C1300 C1299 1.392 . S
C1300 C1301 1.385 . S
C1300 C1302 1.478 . S
C1301 H1295 0.930 . S
C1301 C1297 1.400 . S
C1301 C1300 1.385 . S
C1302 C1300 1.478 . S
C1302 C1304 1.381 . S
C1302 C1308 1.383 . S
C1303 C1299 1.495 . S
C1303 H1309 0.959 . S
C1303 H1310 0.961 . S
C1303 H1311 0.960 . S
C1304 C1302 1.381 . S
C1304 C1305 1.394 . S
C1304 H1312 0.930 . S
C1305 C1304 1.394 . S
C1305 C1306 1.383 . S
C1305 H1313 0.929 . S
C1306 C1305 1.383 . S
C1306 C1307 1.377 . S
C1307 H1291 0.930 . S
C1307 C1306 1.377 . S
C1307 C1308 1.379 . S
C1308 H1292 0.931 . S
C1308 C1302 1.383 . S
C1308 C1307 1.379 . S
H1309 C1303 0.959 . S
H1310 C1303 0.961 . S
H1311 C1303 0.960 . S
H1312 C1304 0.930 . S
H1313 C1305 0.929 . S
H1314 C1322 0.929 . S
H1315 C1324 0.930 . S
H1316 C1326 0.930 . S
H1317 C1329 0.929 . S
H1318 C1332 0.930 . S
H1319 C1334 0.960 . S
H1320 C1334 0.960 . S
H1321 C1334 0.960 . S
C1322 H1314 0.929 . S
C1322 C1323 1.377 . S
C1322 C1324 1.384 . S
C1323 C1322 1.377 . S
C1323 C1329 1.390 . S
C1324 H1315 0.930 . S
C1324 C1322 1.384 . S
C1324 C1325 1.372 . S
C1325 C1324 1.372 . S
C1325 C1326 1.400 . S
C1325 C1330 1.490 . S
C1326 H1316 0.930 . S
C1326 C1325 1.400 . S
C1326 C1329 1.386 . S
H1327 C1343 0.930 . S
H1328 C1344 0.931 . S
C1329 H1317 0.929 . S
C1329 C1323 1.390 . S
C1329 C1326 1.386 . S
C1330 C1325 1.490 . S
C1330 C1332 1.395 . S
C1330 C1333 1.403 . S
H1331 C1337 0.930 . S
C1332 H1318 0.930 . S
C1332 C1330 1.395 . S
C1332 C1335 1.403 . S
C1333 C1330 1.403 . S
C1333 C1334 1.524 . S
C1333 C1337 1.400 . S
C1334 H1319 0.960 . S
C1334 H1320 0.960 . S
C1334 H1321 0.960 . S
C1334 C1333 1.524 . S
C1335 C1332 1.403 . S
C1335 C1336 1.392 . S
C1335 C1339 1.495 . S
C1336 C1335 1.392 . S
C1336 C1337 1.385 . S
C1336 C1338 1.478 . S
C1337 H1331 0.930 . S
C1337 C1333 1.400 . S
C1337 C1336 1.385 . S
C1338 C1336 1.478 . S
C1338 C1340 1.381 . S
C1338 C1344 1.383 . S
C1339 C1335 1.495 . S
C1339 H1345 0.959 . S
C1339 H1346 0.961 . S
C1339 H1347 0.960 . S
C1340 C1338 1.381 . S
C1340 C1341 1.394 . S
C1340 H1348 0.930 . S
C1341 C1340 1.394 . S
C1341 C1342 1.383 . S
C1341 H1349 0.929 . S
C1342 C1341 1.383 . S
C1342 C1343 1.377 . S
C1343 H1327 0.930 . S
C1343 C1342 1.377 . S
C1343 C1344 1.379 . S
C1344 H1328 0.931 . S
C1344 C1338 1.383 . S
C1344 C1343 1.379 . S
H1345 C1339 0.959 . S
H1346 C1339 0.961 . S
H1347 C1339 0.960 . S
H1348 C1340 0.930 . S
H1349 C1341 0.929 . S
H1350 C1358 0.929 . S
H1351 C1360 0.930 . S
H1352 C1362 0.930 . S
H1353 C1365 0.929 . S
H1354 C1368 0.930 . S
H1355 C1370 0.960 . S
H1356 C1370 0.960 . S
H1357 C1370 0.960 . S
C1358 H1350 0.929 . S
C1358 C1359 1.377 . S
C1358 C1360 1.384 . S
C1359 C1358 1.377 . S
C1359 C1365 1.390 . S
C1360 H1351 0.930 . S
C1360 C1358 1.384 . S
C1360 C1361 1.372 . S
C1361 C1360 1.372 . S
C1361 C1362 1.400 . S
C1361 C1366 1.490 . S
C1362 H1352 0.930 . S
C1362 C1361 1.400 . S
C1362 C1365 1.386 . S
H1363 C1379 0.930 . S
H1364 C1380 0.931 . S
C1365 H1353 0.929 . S
C1365 C1359 1.390 . S
C1365 C1362 1.386 . S
C1366 C1361 1.490 . S
C1366 C1368 1.395 . S
C1366 C1369 1.403 . S
H1367 C1373 0.930 . S
C1368 H1354 0.930 . S
C1368 C1366 1.395 . S
C1368 C1371 1.403 . S
C1369 C1366 1.403 . S
C1369 C1370 1.524 . S
C1369 C1373 1.400 . S
C1370 H1355 0.960 . S
C1370 H1356 0.960 . S
C1370 H1357 0.960 . S
C1370 C1369 1.524 . S
C1371 C1368 1.403 . S
C1371 C1372 1.392 . S
C1371 C1375 1.495 . S
C1372 C1371 1.392 . S
C1372 C1373 1.385 . S
C1372 C1374 1.478 . S
C1373 H1367 0.930 . S
C1373 C1369 1.400 . S
C1373 C1372 1.385 . S
C1374 C1372 1.478 . S
C1374 C1376 1.381 . S
C1374 C1380 1.383 . S
C1375 C1371 1.495 . S
C1375 H1381 0.959 . S
C1375 H1382 0.961 . S
C1375 H1383 0.960 . S
C1376 C1374 1.381 . S
C1376 C1377 1.394 . S
C1376 H1384 0.930 . S
C1377 C1376 1.394 . S
C1377 C1378 1.383 . S
C1377 H1385 0.929 . S
C1378 C1377 1.383 . S
C1378 C1379 1.377 . S
C1379 H1363 0.930 . S
C1379 C1378 1.377 . S
C1379 C1380 1.379 . S
C1380 H1364 0.931 . S
C1380 C1374 1.383 . S
C1380 C1379 1.379 . S
H1381 C1375 0.959 . S
H1382 C1375 0.961 . S
H1383 C1375 0.960 . S
H1384 C1376 0.930 . S
H1385 C1377 0.929 . S
H1386 C1394 0.929 . S
H1387 C1396 0.930 . S
H1388 C1398 0.930 . S
H1389 C1401 0.929 . S
H1390 C1404 0.930 . S
H1391 C1406 0.960 . S
H1392 C1406 0.960 . S
H1393 C1406 0.960 . S
C1394 H1386 0.929 . S
C1394 C1395 1.377 . S
C1394 C1396 1.384 . S
C1395 C1394 1.377 . S
C1395 C1401 1.390 . S
C1396 H1387 0.930 . S
C1396 C1394 1.384 . S
C1396 C1397 1.372 . S
C1397 C1396 1.372 . S
C1397 C1398 1.400 . S
C1397 C1402 1.490 . S
C1398 H1388 0.930 . S
C1398 C1397 1.400 . S
C1398 C1401 1.386 . S
H1399 C1415 0.930 . S
H1400 C1416 0.931 . S
C1401 H1389 0.929 . S
C1401 C1395 1.390 . S
C1401 C1398 1.386 . S
C1402 C1397 1.490 . S
C1402 C1404 1.395 . S
C1402 C1405 1.403 . S
H1403 C1409 0.930 . S
C1404 H1390 0.930 . S
C1404 C1402 1.395 . S
C1404 C1407 1.403 . S
C1405 C1402 1.403 . S
C1405 C1406 1.524 . S
C1405 C1409 1.400 . S
C1406 H1391 0.960 . S
C1406 H1392 0.960 . S
C1406 H1393 0.960 . S
C1406 C1405 1.524 . S
C1407 C1404 1.403 . S
C1407 C1408 1.392 . S
C1407 C1411 1.495 . S
C1408 C1407 1.392 . S
C1408 C1409 1.385 . S
C1408 C1410 1.478 . S
C1409 H1403 0.930 . S
C1409 C1405 1.400 . S
C1409 C1408 1.385 . S
C1410 C1408 1.478 . S
C1410 C1412 1.381 . S
C1410 C1416 1.383 . S
C1411 C1407 1.495 . S
C1411 H1417 0.959 . S
C1411 H1418 0.961 . S
C1411 H1419 0.960 . S
C1412 C1410 1.381 . S
C1412 C1413 1.394 . S
C1412 H1420 0.930 . S
C1413 C1412 1.394 . S
C1413 C1414 1.383 . S
C1413 H1421 0.929 . S
C1414 C1413 1.383 . S
C1414 C1415 1.377 . S
C1415 H1399 0.930 . S
C1415 C1414 1.377 . S
C1415 C1416 1.379 . S
C1416 H1400 0.931 . S
C1416 C1410 1.383 . S
C1416 C1415 1.379 . S
H1417 C1411 0.959 . S
H1418 C1411 0.961 . S
H1419 C1411 0.960 . S
H1420 C1412 0.930 . S
H1421 C1413 0.929 . S
H1422 C1430 0.929 . S
H1423 C1432 0.930 . S
H1424 C1434 0.930 . S
H1425 C1437 0.929 . S
H1426 C1440 0.930 . S
H1427 C1442 0.960 . S
H1428 C1442 0.960 . S
H1429 C1442 0.960 . S
C1430 H1422 0.929 . S
C1430 C1431 1.377 . S
C1430 C1432 1.384 . S
C1431 C1430 1.377 . S
C1431 C1437 1.390 . S
C1432 H1423 0.930 . S
C1432 C1430 1.384 . S
C1432 C1433 1.372 . S
C1433 C1432 1.372 . S
C1433 C1434 1.400 . S
C1433 C1438 1.490 . S
C1434 H1424 0.930 . S
C1434 C1433 1.400 . S
C1434 C1437 1.386 . S
H1435 C1451 0.930 . S
H1436 C1452 0.931 . S
C1437 H1425 0.929 . S
C1437 C1431 1.390 . S
C1437 C1434 1.386 . S
C1438 C1433 1.490 . S
C1438 C1440 1.395 . S
C1438 C1441 1.403 . S
H1439 C1445 0.930 . S
C1440 H1426 0.930 . S
C1440 C1438 1.395 . S
C1440 C1443 1.403 . S
C1441 C1438 1.403 . S
C1441 C1442 1.524 . S
C1441 C1445 1.400 . S
C1442 H1427 0.960 . S
C1442 H1428 0.960 . S
C1442 H1429 0.960 . S
C1442 C1441 1.524 . S
C1443 C1440 1.403 . S
C1443 C1444 1.392 . S
C1443 C1447 1.495 . S
C1444 C1443 1.392 . S
C1444 C1445 1.385 . S
C1444 C1446 1.478 . S
C1445 H1439 0.930 . S
C1445 C1441 1.400 . S
C1445 C1444 1.385 . S
C1446 C1444 1.478 . S
C1446 C1448 1.381 . S
C1446 C1452 1.383 . S
C1447 C1443 1.495 . S
C1447 H1453 0.959 . S
C1447 H1454 0.961 . S
C1447 H1455 0.960 . S
C1448 C1446 1.381 . S
C1448 C1449 1.394 . S
C1448 H1456 0.930 . S
C1449 C1448 1.394 . S
C1449 C1450 1.383 . S
C1449 H1457 0.929 . S
C1450 C1449 1.383 . S
C1450 C1451 1.377 . S
C1451 H1435 0.930 . S
C1451 C1450 1.377 . S
C1451 C1452 1.379 . S
C1452 H1436 0.931 . S
C1452 C1446 1.383 . S
C1452 C1451 1.379 . S
H1453 C1447 0.959 . S
H1454 C1447 0.961 . S
H1455 C1447 0.960 . S
H1456 C1448 0.930 . S
H1457 C1449 0.929 . S
H1458 C1466 0.929 . S
H1459 C1468 0.930 1_554 S
H1460 C1470 0.930 . S
H1461 C1473 0.929 . S
H1462 C1476 0.930 . S
H1463 C1478 0.960 1_655 S
H1464 C1478 0.960 . S
H1465 C1478 0.960 . S
C1466 H1458 0.929 . S
C1466 C1467 1.377 . S
C1466 C1468 1.384 . S
C1467 C1466 1.377 . S
C1467 C1473 1.390 . S
C1468 H1459 0.930 1_556 S
C1468 C1466 1.384 . S
C1468 C1469 1.372 . S
C1469 C1468 1.372 . S
C1469 C1470 1.400 . S
C1469 C1474 1.490 . S
C1470 H1460 0.930 . S
C1470 C1469 1.400 . S
C1470 C1473 1.386 . S
H1471 C1487 0.930 . S
H1472 C1488 0.931 . S
C1473 H1461 0.929 . S
C1473 C1467 1.390 . S
C1473 C1470 1.386 . S
C1474 C1469 1.490 . S
C1474 C1476 1.395 1_556 S
C1474 C1477 1.403 . S
H1475 C1481 0.930 . S
C1476 H1462 0.930 . S
C1476 C1474 1.395 1_554 S
C1476 C1479 1.403 1_455 S
C1477 C1474 1.403 . S
C1477 C1478 1.524 . S
C1477 C1481 1.400 1_455 S
C1478 H1463 0.960 1_455 S
C1478 H1464 0.960 . S
C1478 H1465 0.960 . S
C1478 C1477 1.524 . S
C1479 C1476 1.403 1_655 S
C1479 C1480 1.392 . S
C1479 C1483 1.495 . S
C1480 C1479 1.392 . S
C1480 C1481 1.385 1_554 S
C1480 C1482 1.478 . S
C1481 H1475 0.930 . S
C1481 C1477 1.400 1_655 S
C1481 C1480 1.385 1_556 S
C1482 C1480 1.478 . S
C1482 C1484 1.381 . S
C1482 C1488 1.383 . S
C1483 C1479 1.495 . S
C1483 H1489 0.959 1_655 S
C1483 H1490 0.961 . S
C1483 H1491 0.960 . S
C1484 C1482 1.381 . S
C1484 C1485 1.394 . S
C1484 H1492 0.930 . S
C1485 C1484 1.394 . S
C1485 C1486 1.383 . S
C1485 H1493 0.929 . S
C1486 C1485 1.383 . S
C1486 C1487 1.377 . S
C1487 H1471 0.930 . S
C1487 C1486 1.377 . S
C1487 C1488 1.379 . S
C1488 H1472 0.931 . S
C1488 C1482 1.383 . S
C1488 C1487 1.379 . S
H1489 C1483 0.959 1_455 S
H1490 C1483 0.961 . S
H1491 C1483 0.960 . S
H1492 C1484 0.930 . S
H1493 C1485 0.929 . S
H1494 C1502 0.929 . S
H1495 C1504 0.930 . S
H1496 C1506 0.930 1_554 S
H1497 C1509 0.929 . S
H1498 C1512 0.930 . S
H1499 C1514 0.960 . S
H1500 C1514 0.960 . S
H1501 C1514 0.960 . S
C1502 H1494 0.929 . S
C1502 C1503 1.377 . S
C1502 C1504 1.384 . S
C1503 C1502 1.377 . S
C1503 C1509 1.390 . S
C1504 H1495 0.930 . S
C1504 C1502 1.384 . S
C1504 C1505 1.372 . S
C1505 C1504 1.372 . S
C1505 C1506 1.400 . S
C1505 C1510 1.490 . S
C1506 H1496 0.930 1_556 S
C1506 C1505 1.400 . S
C1506 C1509 1.386 . S
H1507 C1523 0.930 . S
H1508 C1524 0.931 . S
C1509 H1497 0.929 . S
C1509 C1503 1.390 . S
C1509 C1506 1.386 . S
C1510 C1505 1.490 . S
C1510 C1512 1.395 . S
C1510 C1513 1.403 1_556 S
H1511 C1517 0.930 . S
C1512 H1498 0.930 . S
C1512 C1510 1.395 . S
C1512 C1515 1.403 . S
C1513 C1510 1.403 1_554 S
C1513 C1514 1.524 . S
C1513 C1517 1.400 . S
C1514 H1499 0.960 . S
C1514 H1500 0.960 . S
C1514 H1501 0.960 . S
C1514 C1513 1.524 . S
C1515 C1512 1.403 . S
C1515 C1516 1.392 1_556 S
C1515 C1519 1.495 . S
C1516 C1515 1.392 1_554 S
C1516 C1517 1.385 . S
C1516 C1518 1.478 . S
C1517 H1511 0.930 . S
C1517 C1513 1.400 . S
C1517 C1516 1.385 . S
C1518 C1516 1.478 . S
C1518 C1520 1.381 . S
C1518 C1524 1.383 . S
C1519 C1515 1.495 . S
C1519 H1525 0.959 . S
C1519 H1526 0.961 . S
C1519 H1527 0.960 . S
C1520 C1518 1.381 . S
C1520 C1521 1.394 . S
C1520 H1528 0.930 1_554 S
C1521 C1520 1.394 . S
C1521 C1522 1.383 . S
C1521 H1529 0.929 . S
C1522 C1521 1.383 . S
C1522 C1523 1.377 . S
C1523 H1507 0.930 . S
C1523 C1522 1.377 . S
C1523 C1524 1.379 . S
C1524 H1508 0.931 . S
C1524 C1518 1.383 . S
C1524 C1523 1.379 . S
H1525 C1519 0.959 . S
H1526 C1519 0.961 . S
H1527 C1519 0.960 . S
H1528 C1520 0.930 1_556 S
H1529 C1521 0.929 . S
H1530 C1538 0.929 . S
H1531 C1540 0.930 . S
H1532 C1542 0.930 1_556 S
H1533 C1545 0.929 . S
H1534 C1548 0.930 . S
H1535 C1550 0.960 . S
H1536 C1550 0.960 . S
H1537 C1550 0.960 . S
C1538 H1530 0.929 . S
C1538 C1539 1.377 . S
C1538 C1540 1.384 . S
C1539 C1538 1.377 . S
C1539 C1545 1.390 . S
C1540 H1531 0.930 . S
C1540 C1538 1.384 . S
C1540 C1541 1.372 . S
C1541 C1540 1.372 . S
C1541 C1542 1.400 . S
C1541 C1546 1.490 . S
C1542 H1532 0.930 1_554 S
C1542 C1541 1.400 . S
C1542 C1545 1.386 . S
H1543 C1559 0.930 . S
H1544 C1560 0.931 . S
C1545 H1533 0.929 . S
C1545 C1539 1.390 . S
C1545 C1542 1.386 . S
C1546 C1541 1.490 . S
C1546 C1548 1.395 1_554 S
C1546 C1549 1.403 . S
H1547 C1553 0.930 . S
C1548 H1534 0.930 . S
C1548 C1546 1.395 1_556 S
C1548 C1551 1.403 1_545 S
C1549 C1546 1.403 . S
C1549 C1550 1.524 . S
C1549 C1553 1.400 1_545 S
C1550 H1535 0.960 . S
C1550 H1536 0.960 . S
C1550 H1537 0.960 . S
C1550 C1549 1.524 . S
C1551 C1548 1.403 1_565 S
C1551 C1552 1.392 . S
C1551 C1555 1.495 . S
C1552 C1551 1.392 . S
C1552 C1553 1.385 1_556 S
C1552 C1554 1.478 . S
C1553 H1547 0.930 . S
C1553 C1549 1.400 1_565 S
C1553 C1552 1.385 1_554 S
C1554 C1552 1.478 . S
C1554 C1556 1.381 . S
C1554 C1560 1.383 . S
C1555 C1551 1.495 . S
C1555 H1561 0.959 . S
C1555 H1562 0.961 . S
C1555 H1563 0.960 . S
C1556 C1554 1.381 . S
C1556 C1557 1.394 . S
C1556 H1564 0.930 1_556 S
C1557 C1556 1.394 . S
C1557 C1558 1.383 . S
C1557 H1565 0.929 . S
C1558 C1557 1.383 . S
C1558 C1559 1.377 . S
C1559 H1543 0.930 . S
C1559 C1558 1.377 . S
C1559 C1560 1.379 . S
C1560 H1544 0.931 . S
C1560 C1554 1.383 . S
C1560 C1559 1.379 . S
H1561 C1555 0.959 . S
H1562 C1555 0.961 . S
H1563 C1555 0.960 . S
H1564 C1556 0.930 1_554 S
H1565 C1557 0.929 . S
H1566 C1574 0.929 . S
H1567 C1576 0.930 . S
H1568 C1578 0.930 . S
H1569 C1581 0.929 . S
H1570 C1584 0.930 . S
H1571 C1586 0.960 . S
H1572 C1586 0.960 . S
H1573 C1586 0.960 . S
C1574 H1566 0.929 . S
C1574 C1575 1.377 . S
C1574 C1576 1.384 . S
C1575 C1574 1.377 . S
C1575 C1581 1.390 . S
C1576 H1567 0.930 . S
C1576 C1574 1.384 . S
C1576 C1577 1.372 . S
C1577 C1576 1.372 . S
C1577 C1578 1.400 . S
C1577 C1582 1.490 . S
C1578 H1568 0.930 . S
C1578 C1577 1.400 . S
C1578 C1581 1.386 . S
H1579 C1595 0.930 . S
H1580 C1596 0.931 . S
C1581 H1569 0.929 . S
C1581 C1575 1.390 . S
C1581 C1578 1.386 . S
C1582 C1577 1.490 . S
C1582 C1584 1.395 . S
C1582 C1585 1.403 . S
H1583 C1589 0.930 . S
C1584 H1570 0.930 . S
C1584 C1582 1.395 . S
C1584 C1587 1.403 . S
C1585 C1582 1.403 . S
C1585 C1586 1.524 . S
C1585 C1589 1.400 . S
C1586 H1571 0.960 . S
C1586 H1572 0.960 . S
C1586 H1573 0.960 . S
C1586 C1585 1.524 . S
C1587 C1584 1.403 . S
C1587 C1588 1.392 . S
C1587 C1591 1.495 . S
C1588 C1587 1.392 . S
C1588 C1589 1.385 . S
C1588 C1590 1.478 . S
C1589 H1583 0.930 . S
C1589 C1585 1.400 . S
C1589 C1588 1.385 . S
C1590 C1588 1.478 . S
C1590 C1592 1.381 . S
C1590 C1596 1.383 . S
C1591 C1587 1.495 . S
C1591 H1597 0.959 . S
C1591 H1598 0.961 . S
C1591 H1599 0.960 . S
C1592 C1590 1.381 . S
C1592 C1593 1.394 . S
C1592 H1600 0.930 . S
C1593 C1592 1.394 . S
C1593 C1594 1.383 . S
C1593 H1601 0.929 . S
C1594 C1593 1.383 . S
C1594 C1595 1.377 . S
C1595 H1579 0.930 . S
C1595 C1594 1.377 . S
C1595 C1596 1.379 . S
C1596 H1580 0.931 . S
C1596 C1590 1.383 . S
C1596 C1595 1.379 . S
H1597 C1591 0.959 . S
H1598 C1591 0.961 . S
H1599 C1591 0.960 . S
H1600 C1592 0.930 . S
H1601 C1593 0.929 . S
H1602 C1610 0.929 . S
H1603 C1612 0.930 . S
H1604 C1614 0.930 . S
H1605 C1617 0.929 . S
H1606 C1620 0.930 . S
H1607 C1622 0.960 . S
H1608 C1622 0.960 . S
H1609 C1622 0.980 . S
C1610 H1602 0.929 . S
C1610 C1611 1.377 . S
C1610 C1612 1.384 . S
C1611 C1610 1.377 . S
C1611 C1617 1.390 . S
C1612 H1603 0.930 . S
C1612 C1610 1.384 . S
C1612 C1613 1.372 . S
C1613 C1612 1.372 . S
C1613 C1614 1.400 . S
C1613 C1618 1.490 . S
C1614 H1604 0.930 . S
C1614 C1613 1.400 . S
C1614 C1617 1.386 . S
H1615 C1631 0.930 . S
H1616 C1632 0.931 . S
C1617 H1605 0.929 . S
C1617 C1611 1.390 . S
C1617 C1614 1.386 . S
C1618 C1613 1.490 . S
C1618 C1620 1.395 . S
C1618 C1621 1.403 1_545 S
H1619 C1625 0.930 . S
C1620 H1606 0.930 . S
C1620 C1618 1.395 . S
C1620 C1623 1.403 . S
C1621 C1618 1.403 1_565 S
C1621 C1622 1.524 . S
C1621 C1625 1.400 . S
C1622 H1607 0.960 . S
C1622 H1608 0.960 . S
C1622 H1609 0.980 . S
C1622 C1621 1.524 . S
C1623 C1620 1.403 . S
C1623 C1624 1.392 1_545 S
C1623 C1627 1.495 . S
C1624 C1623 1.392 1_565 S
C1624 C1625 1.385 . S
C1624 C1626 1.478 . S
C1625 H1619 0.930 . S
C1625 C1621 1.400 . S
C1625 C1624 1.385 . S
C1626 C1624 1.478 . S
C1626 C1628 1.381 . S
C1626 C1632 1.383 . S
C1627 C1623 1.495 . S
C1627 H1633 0.959 . S
C1627 H1634 0.961 . S
C1627 H1635 0.960 . S
C1628 C1626 1.381 . S
C1628 C1629 1.394 . S
C1628 H1636 0.930 . S
C1629 C1628 1.394 . S
C1629 C1630 1.383 . S
C1629 H1637 0.929 . S
C1630 C1629 1.383 . S
C1630 C1631 1.377 . S
C1631 H1615 0.930 . S
C1631 C1630 1.377 . S
C1631 C1632 1.379 . S
C1632 H1616 0.931 . S
C1632 C1626 1.383 . S
C1632 C1631 1.379 . S
H1633 C1627 0.959 . S
H1634 C1627 0.961 . S
H1635 C1627 0.960 . S
H1636 C1628 0.930 . S
H1637 C1629 0.929 . S
H1638 C1646 0.929 . S
H1639 C1648 0.930 . S
H1640 C1650 0.930 . S
H1641 C1653 0.929 . S
H1642 C1656 0.930 . S
H1643 C1658 0.960 . S
H1644 C1658 0.960 . S
H1645 C1658 0.960 . S
C1646 H1638 0.929 . S
C1646 C1647 1.377 . S
C1646 C1648 1.384 . S
C1647 C1646 1.377 . S
C1647 C1653 1.390 . S
C1648 H1639 0.930 . S
C1648 C1646 1.384 . S
C1648 C1649 1.372 . S
C1649 C1648 1.372 . S
C1649 C1650 1.400 . S
C1649 C1654 1.490 . S
C1650 H1640 0.930 . S
C1650 C1649 1.400 . S
C1650 C1653 1.386 . S
H1651 C1667 0.930 . S
H1652 C1668 0.931 . S
C1653 H1641 0.929 . S
C1653 C1647 1.390 . S
C1653 C1650 1.386 . S
C1654 C1649 1.490 . S
C1654 C1656 1.395 1_455 S
C1654 C1657 1.403 . S
H1655 C1661 0.941 . S
C1656 H1642 0.930 . S
C1656 C1654 1.395 1_655 S
C1656 C1659 1.403 . S
C1657 C1654 1.403 . S
C1657 C1658 1.524 . S
C1657 C1661 1.421 . S
C1658 H1643 0.960 . S
C1658 H1644 0.960 . S
C1658 H1645 0.960 . S
C1658 C1657 1.524 . S
C1659 C1656 1.403 . S
C1659 C1660 1.392 . S
C1659 C1663 1.495 . S
C1660 C1659 1.392 . S
C1660 C1661 1.354 1_655 S
C1660 C1662 1.478 . S
C1661 H1655 0.941 . S
C1661 C1657 1.421 . S
C1661 C1660 1.354 1_455 S
C1662 C1660 1.478 . S
C1662 C1664 1.381 . S
C1662 C1668 1.383 . S
C1663 C1659 1.495 . S
C1663 H1669 0.959 . S
C1663 H1670 0.961 . S
C1663 H1671 0.960 . S
C1664 C1662 1.381 . S
C1664 C1665 1.394 . S
C1664 H1672 0.930 . S
C1665 C1664 1.394 . S
C1665 C1666 1.383 . S
C1665 H1673 0.929 . S
C1666 C1665 1.383 . S
C1666 C1667 1.377 . S
C1667 H1651 0.930 . S
C1667 C1666 1.377 . S
C1667 C1668 1.379 . S
C1668 H1652 0.931 . S
C1668 C1662 1.383 . S
C1668 C1667 1.379 . S
H1669 C1663 0.959 . S
H1670 C1663 0.961 . S
H1671 C1663 0.960 . S
H1672 C1664 0.930 . S
H1673 C1665 0.929 . S
H1674 C1682 0.929 . S
H1675 C1684 0.930 . S
H1676 C1686 0.930 . S
H1677 C1689 0.929 . S
H1678 C1692 0.930 . S
H1679 C1694 0.960 . S
H1680 C1694 0.960 . S
H1681 C1694 0.960 . S
C1682 H1674 0.929 . S
C1682 C1683 1.377 . S
C1682 C1684 1.384 . S
C1683 C1682 1.377 . S
C1683 C1689 1.390 . S
C1684 H1675 0.930 . S
C1684 C1682 1.384 . S
C1684 C1685 1.372 . S
C1685 C1684 1.372 . S
C1685 C1686 1.400 . S
C1685 C1690 1.490 . S
C1686 H1676 0.930 . S
C1686 C1685 1.400 . S
C1686 C1689 1.386 . S
H1687 C1703 0.930 . S
H1688 C1704 0.931 . S
C1689 H1677 0.929 . S
C1689 C1683 1.390 . S
C1689 C1686 1.386 . S
C1690 C1685 1.490 . S
C1690 C1692 1.395 . S
C1690 C1693 1.403 . S
H1691 C1697 0.930 . S
C1692 H1678 0.930 . S
C1692 C1690 1.395 . S
C1692 C1695 1.403 . S
C1693 C1690 1.403 . S
C1693 C1694 1.524 . S
C1693 C1697 1.400 . S
C1694 H1679 0.960 . S
C1694 H1680 0.960 . S
C1694 H1681 0.960 . S
C1694 C1693 1.524 . S
C1695 C1692 1.403 . S
C1695 C1696 1.392 . S
C1695 C1699 1.495 . S
C1696 C1695 1.392 . S
C1696 C1697 1.385 . S
C1696 C1698 1.478 . S
C1697 H1691 0.930 . S
C1697 C1693 1.400 . S
C1697 C1696 1.385 . S
C1698 C1696 1.478 . S
C1698 C1700 1.381 . S
C1698 C1704 1.383 . S
C1699 C1695 1.495 . S
C1699 H1705 0.959 . S
C1699 H1706 0.961 . S
C1699 H1707 0.960 . S
C1700 C1698 1.381 . S
C1700 C1701 1.394 . S
C1700 H1708 0.930 . S
C1701 C1700 1.394 . S
C1701 C1702 1.383 . S
C1701 H1709 0.929 . S
C1702 C1701 1.383 . S
C1702 C1703 1.377 . S
C1703 H1687 0.930 . S
C1703 C1702 1.377 . S
C1703 C1704 1.379 . S
C1704 H1688 0.931 . S
C1704 C1698 1.383 . S
C1704 C1703 1.379 . S
H1705 C1699 0.959 . S
H1706 C1699 0.961 . S
H1707 C1699 0.960 . S
H1708 C1700 0.930 . S
H1709 C1701 0.929 . S
H1710 C1718 0.929 . S
H1711 C1720 0.930 . S
H1712 C1722 0.930 . S
H1713 C1725 0.929 . S
H1714 C1728 0.930 . S
H1715 C1730 0.960 . S
H1716 C1730 0.959 . S
H1717 C1730 0.960 . S
C1718 H1710 0.929 . S
C1718 C1719 1.377 . S
C1718 C1720 1.384 . S
C1719 C1718 1.377 . S
C1719 C1725 1.390 . S
C1720 H1711 0.930 . S
C1720 C1718 1.384 . S
C1720 C1721 1.372 . S
C1721 C1720 1.372 . S
C1721 C1722 1.400 . S
C1721 C1726 1.490 . S
C1722 H1712 0.930 . S
C1722 C1721 1.400 . S
C1722 C1725 1.386 . S
H1723 C1739 0.930 . S
H1724 C1740 0.931 . S
C1725 H1713 0.929 . S
C1725 C1719 1.390 . S
C1725 C1722 1.386 . S
C1726 C1721 1.490 . S
C1726 C1728 1.395 . S
C1726 C1729 1.403 1_565 S
H1727 C1733 0.930 . S
C1728 H1714 0.930 . S
C1728 C1726 1.395 . S
C1728 C1731 1.403 . S
C1729 C1726 1.403 1_545 S
C1729 C1730 1.524 . S
C1729 C1733 1.400 . S
C1730 H1715 0.960 . S
C1730 H1716 0.959 . S
C1730 H1717 0.960 . S
C1730 C1729 1.524 . S
C1731 C1728 1.403 . S
C1731 C1732 1.392 1_565 S
C1731 C1735 1.495 . S
C1732 C1731 1.392 1_545 S
C1732 C1733 1.385 . S
C1732 C1734 1.478 . S
C1733 H1727 0.930 . S
C1733 C1729 1.400 . S
C1733 C1732 1.385 . S
C1734 C1732 1.478 . S
C1734 C1736 1.381 . S
C1734 C1740 1.383 . S
C1735 C1731 1.495 . S
C1735 H1741 0.959 . S
C1735 H1742 0.961 . S
C1735 H1743 0.960 . S
C1736 C1734 1.381 . S
C1736 C1737 1.394 . S
C1736 H1744 0.930 . S
C1737 C1736 1.394 . S
C1737 C1738 1.383 . S
C1737 H1745 0.929 . S
C1738 C1737 1.383 . S
C1738 C1739 1.377 . S
C1739 H1723 0.930 . S
C1739 C1738 1.377 . S
C1739 C1740 1.379 . S
C1740 H1724 0.931 . S
C1740 C1734 1.383 . S
C1740 C1739 1.379 . S
H1741 C1735 0.959 . S
H1742 C1735 0.961 . S
H1743 C1735 0.960 . S
H1744 C1736 0.930 . S
H1745 C1737 0.929 . S
H1746 C1754 0.929 . S
H1747 C1756 0.930 . S
H1748 C1758 0.930 . S
H1749 C1761 0.929 . S
H1750 C1764 0.930 . S
H1751 C1766 0.960 . S
H1752 C1766 0.960 . S
H1753 C1766 0.960 . S
C1754 H1746 0.929 . S
C1754 C1755 1.377 . S
C1754 C1756 1.384 . S
C1755 C1754 1.377 . S
C1755 C1761 1.390 . S
C1756 H1747 0.930 . S
C1756 C1754 1.384 . S
C1756 C1757 1.372 . S
C1757 C1756 1.372 . S
C1757 C1758 1.400 . S
C1757 C1762 1.490 . S
C1758 H1748 0.930 . S
C1758 C1757 1.400 . S
C1758 C1761 1.386 . S
H1759 C1775 0.930 . S
H1760 C1776 0.931 . S
C1761 H1749 0.929 . S
C1761 C1755 1.390 . S
C1761 C1758 1.386 . S
C1762 C1757 1.490 . S
C1762 C1764 1.395 1_655 S
C1762 C1765 1.403 . S
H1763 C1769 0.917 1_655 S
C1764 H1750 0.930 . S
C1764 C1762 1.395 1_455 S
C1764 C1767 1.403 . S
C1765 C1762 1.403 . S
C1765 C1766 1.524 . S
C1765 C1769 1.402 1_655 S
C1766 H1751 0.960 . S
C1766 H1752 0.960 . S
C1766 H1753 0.960 . S
C1766 C1765 1.524 . S
C1767 C1764 1.403 . S
C1767 C1768 1.392 . S
C1767 C1771 1.495 . S
C1768 C1767 1.392 . S
C1768 C1769 1.383 . S
C1768 C1770 1.478 . S
C1769 H1763 0.917 1_455 S
C1769 C1765 1.402 1_455 S
C1769 C1768 1.383 . S
C1770 C1768 1.478 . S
C1770 C1772 1.381 . S
C1770 C1776 1.383 . S
C1771 C1767 1.495 . S
C1771 H1777 0.959 . S
C1771 H1778 0.961 . S
C1771 H1779 0.960 . S
C1772 C1770 1.381 . S
C1772 C1773 1.394 . S
C1772 H1780 0.930 . S
C1773 C1772 1.394 . S
C1773 C1774 1.383 . S
C1773 H1781 0.929 . S
C1774 C1773 1.383 . S
C1774 C1775 1.377 . S
C1775 H1759 0.930 . S
C1775 C1774 1.377 . S
C1775 C1776 1.379 . S
C1776 H1760 0.931 . S
C1776 C1770 1.383 . S
C1776 C1775 1.379 . S
H1777 C1771 0.959 . S
H1778 C1771 0.961 . S
H1779 C1771 0.960 . S
H1780 C1772 0.930 . S
H1781 C1773 0.929 . S
H1782 C1790 0.929 . S
H1783 C1792 0.930 . S
H1784 C1794 0.930 . S
H1785 C1797 0.929 . S
H1786 C1800 0.930 . S
H1787 C1802 0.960 . S
H1788 C1802 0.960 . S
H1789 C1802 0.960 . S
C1790 H1782 0.929 . S
C1790 C1791 1.377 . S
C1790 C1792 1.384 . S
C1791 C1790 1.377 . S
C1791 C1797 1.390 . S
C1792 H1783 0.930 . S
C1792 C1790 1.384 . S
C1792 C1793 1.372 . S
C1793 C1792 1.372 . S
C1793 C1794 1.400 . S
C1793 C1798 1.490 . S
C1794 H1784 0.930 . S
C1794 C1793 1.400 . S
C1794 C1797 1.386 . S
H1795 C1811 0.930 1_554 S
H1796 C1812 0.931 . S
C1797 H1785 0.929 . S
C1797 C1791 1.390 . S
C1797 C1794 1.386 . S
C1798 C1793 1.490 . S
C1798 C1800 1.395 . S
C1798 C1801 1.403 . S
H1799 C1805 0.930 . S
C1800 H1786 0.930 . S
C1800 C1798 1.395 . S
C1800 C1803 1.403 . S
C1801 C1798 1.403 . S
C1801 C1802 1.524 . S
C1801 C1805 1.400 . S
C1802 H1787 0.960 . S
C1802 H1788 0.960 . S
C1802 H1789 0.960 . S
C1802 C1801 1.524 . S
C1803 C1800 1.403 . S
C1803 C1804 1.392 . S
C1803 C1807 1.495 . S
C1804 C1803 1.392 . S
C1804 C1805 1.385 . S
C1804 C1806 1.478 . S
C1805 H1799 0.930 . S
C1805 C1801 1.400 . S
C1805 C1804 1.385 . S
C1806 C1804 1.478 . S
C1806 C1808 1.381 . S
C1806 C1812 1.383 . S
C1807 C1803 1.495 . S
C1807 H1813 0.959 . S
C1807 H1814 0.961 . S
C1807 H1815 0.960 . S
C1808 C1806 1.381 . S
C1808 C1809 1.394 . S
C1808 H1816 0.930 . S
C1809 C1808 1.394 . S
C1809 C1810 1.383 . S
C1809 H1817 0.929 . S
C1810 C1809 1.383 . S
C1810 C1811 1.377 . S
C1811 H1795 0.930 1_556 S
C1811 C1810 1.377 . S
C1811 C1812 1.379 . S
C1812 H1796 0.931 . S
C1812 C1806 1.383 . S
C1812 C1811 1.379 . S
H1813 C1807 0.959 . S
H1814 C1807 0.961 . S
H1815 C1807 0.960 . S
H1816 C1808 0.930 . S
H1817 C1809 0.929 . S
H1818 C1826 0.929 . S
H1819 C1828 0.930 . S
H1820 C1830 0.930 . S
H1821 C1833 0.929 1_554 S
H1822 C1836 0.930 . S
H1823 C1838 0.960 . S
H1824 C1838 0.960 . S
H1825 C1838 0.960 . S
C1826 H1818 0.929 . S
C1826 C1827 1.377 . S
C1826 C1828 1.384 . S
C1827 C1826 1.377 . S
C1827 C1833 1.390 . S
C1828 H1819 0.930 . S
C1828 C1826 1.384 . S
C1828 C1829 1.372 . S
C1829 C1828 1.372 . S
C1829 C1830 1.400 . S
C1829 C1834 1.490 . S
C1830 H1820 0.930 . S
C1830 C1829 1.400 . S
C1830 C1833 1.386 . S
H1831 C1847 0.930 . S
H1832 C1848 0.931 . S
C1833 H1821 0.929 1_556 S
C1833 C1827 1.390 . S
C1833 C1830 1.386 . S
C1834 C1829 1.490 . S
C1834 C1836 1.395 . S
C1834 C1837 1.403 . S
H1835 C1841 0.930 . S
C1836 H1822 0.930 . S
C1836 C1834 1.395 . S
C1836 C1839 1.403 . S
C1837 C1834 1.403 . S
C1837 C1838 1.524 . S
C1837 C1841 1.400 . S
C1838 H1823 0.960 . S
C1838 H1824 0.960 . S
C1838 H1825 0.960 . S
C1838 C1837 1.524 . S
C1839 C1836 1.403 . S
C1839 C1840 1.392 . S
C1839 C1843 1.495 . S
C1840 C1839 1.392 . S
C1840 C1841 1.385 . S
C1840 C1842 1.478 . S
C1841 H1835 0.930 . S
C1841 C1837 1.400 . S
C1841 C1840 1.385 . S
C1842 C1840 1.478 . S
C1842 C1844 1.381 . S
C1842 C1848 1.383 . S
C1843 C1839 1.495 . S
C1843 H1849 0.959 . S
C1843 H1850 0.961 . S
C1843 H1851 0.960 . S
C1844 C1842 1.381 . S
C1844 C1845 1.394 . S
C1844 H1852 0.930 . S
C1845 C1844 1.394 . S
C1845 C1846 1.383 . S
C1845 H1853 0.929 . S
C1846 C1845 1.383 . S
C1846 C1847 1.377 . S
C1847 H1831 0.930 . S
C1847 C1846 1.377 . S
C1847 C1848 1.379 . S
C1848 H1832 0.931 . S
C1848 C1842 1.383 . S
C1848 C1847 1.379 . S
H1849 C1843 0.959 . S
H1850 C1843 0.961 . S
H1851 C1843 0.960 . S
H1852 C1844 0.930 . S
H1853 C1845 0.929 . S
H1854 C1862 0.929 . S
H1855 C1864 0.930 . S
H1856 C1866 0.930 . S
H1857 C1869 0.929 . S
H1858 C1872 0.930 . S
H1859 C1874 0.960 . S
H1860 C1874 0.960 . S
H1861 C1874 0.960 . S
C1862 H1854 0.929 . S
C1862 C1863 1.377 . S
C1862 C1864 1.384 . S
C1863 C1862 1.377 . S
C1863 C1869 1.390 . S
C1864 H1855 0.930 . S
C1864 C1862 1.384 . S
C1864 C1865 1.372 . S
C1865 C1864 1.372 . S
C1865 C1866 1.400 . S
C1865 C1870 1.490 . S
C1866 H1856 0.930 . S
C1866 C1865 1.400 . S
C1866 C1869 1.386 . S
H1867 C1883 0.930 . S
H1868 C1884 0.931 . S
C1869 H1857 0.929 . S
C1869 C1863 1.390 . S
C1869 C1866 1.386 . S
C1870 C1865 1.490 . S
C1870 C1872 1.395 . S
C1870 C1873 1.403 . S
H1871 C1877 0.930 . S
C1872 H1858 0.930 . S
C1872 C1870 1.395 . S
C1872 C1875 1.403 . S
C1873 C1870 1.403 . S
C1873 C1874 1.524 . S
C1873 C1877 1.400 . S
C1874 H1859 0.960 . S
C1874 H1860 0.960 . S
C1874 H1861 0.960 . S
C1874 C1873 1.524 . S
C1875 C1872 1.403 . S
C1875 C1876 1.392 . S
C1875 C1879 1.495 . S
C1876 C1875 1.392 . S
C1876 C1877 1.385 . S
C1876 C1878 1.478 . S
C1877 H1871 0.930 . S
C1877 C1873 1.400 . S
C1877 C1876 1.385 . S
C1878 C1876 1.478 . S
C1878 C1880 1.381 . S
C1878 C1884 1.383 . S
C1879 C1875 1.495 . S
C1879 H1885 0.959 . S
C1879 H1886 0.961 . S
C1879 H1887 0.960 . S
C1880 C1878 1.381 . S
C1880 C1881 1.394 . S
C1880 H1888 0.930 . S
C1881 C1880 1.394 . S
C1881 C1882 1.383 . S
C1881 H1889 0.929 . S
C1882 C1881 1.383 . S
C1882 C1883 1.377 . S
C1883 H1867 0.930 . S
C1883 C1882 1.377 . S
C1883 C1884 1.379 . S
C1884 H1868 0.931 . S
C1884 C1878 1.383 . S
C1884 C1883 1.379 . S
H1885 C1879 0.959 . S
H1886 C1879 0.961 . S
H1887 C1879 0.960 . S
H1888 C1880 0.930 . S
H1889 C1881 0.929 . S
H1890 C1898 0.929 . S
H1891 C1900 0.930 . S
H1892 C1902 0.930 . S
H1893 C1905 0.929 . S
H1894 C1908 0.930 . S
H1895 C1910 0.960 . S
H1896 C1910 0.960 . S
H1897 C1910 0.960 . S
C1898 H1890 0.929 . S
C1898 C1899 1.377 . S
C1898 C1900 1.384 . S
C1899 C1898 1.377 . S
C1899 C1905 1.390 . S
C1900 H1891 0.930 . S
C1900 C1898 1.384 . S
C1900 C1901 1.372 . S
C1901 C1900 1.372 . S
C1901 C1902 1.400 . S
C1901 C1906 1.490 . S
C1902 H1892 0.930 . S
C1902 C1901 1.400 . S
C1902 C1905 1.386 . S
H1903 C1919 0.930 . S
H1904 C1920 0.931 . S
C1905 H1893 0.929 . S
C1905 C1899 1.390 . S
C1905 C1902 1.386 . S
C1906 C1901 1.490 . S
C1906 C1908 1.395 . S
C1906 C1909 1.403 . S
H1907 C1913 0.930 . S
C1908 H1894 0.930 . S
C1908 C1906 1.395 . S
C1908 C1911 1.403 . S
C1909 C1906 1.403 . S
C1909 C1910 1.524 . S
C1909 C1913 1.400 . S
C1910 H1895 0.960 . S
C1910 H1896 0.960 . S
C1910 H1897 0.960 . S
C1910 C1909 1.524 . S
C1911 C1908 1.403 . S
C1911 C1912 1.392 . S
C1911 C1915 1.495 . S
C1912 C1911 1.392 . S
C1912 C1913 1.385 . S
C1912 C1914 1.478 . S
C1913 H1907 0.930 . S
C1913 C1909 1.400 . S
C1913 C1912 1.385 . S
C1914 C1912 1.478 . S
C1914 C1916 1.381 . S
C1914 C1920 1.383 . S
C1915 C1911 1.495 . S
C1915 H1921 0.959 . S
C1915 H1922 0.961 . S
C1915 H1923 0.960 . S
C1916 C1914 1.381 . S
C1916 C1917 1.394 . S
C1916 H1924 0.930 . S
C1917 C1916 1.394 . S
C1917 C1918 1.383 . S
C1917 H1925 0.929 . S
C1918 C1917 1.383 . S
C1918 C1919 1.377 . S
C1919 H1903 0.930 . S
C1919 C1918 1.377 . S
C1919 C1920 1.379 . S
C1920 H1904 0.931 . S
C1920 C1914 1.383 . S
C1920 C1919 1.379 . S
H1921 C1915 0.959 . S
H1922 C1915 0.961 . S
H1923 C1915 0.960 . S
H1924 C1916 0.930 . S
H1925 C1917 0.929 . S
H1926 C1934 0.929 . S
H1927 C1936 0.930 . S
H1928 C1938 0.930 . S
H1929 C1941 0.929 . S
H1930 C1944 0.930 . S
H1931 C1946 0.960 . S
H1932 C1946 0.960 . S
H1933 C1946 0.960 . S
C1934 H1926 0.929 . S
C1934 C1935 1.377 . S
C1934 C1936 1.384 . S
C1935 C1934 1.377 . S
C1935 C1941 1.390 . S
C1936 H1927 0.930 . S
C1936 C1934 1.384 . S
C1936 C1937 1.372 . S
C1937 C1936 1.372 . S
C1937 C1938 1.400 . S
C1937 C1942 1.490 . S
C1938 H1928 0.930 . S
C1938 C1937 1.400 . S
C1938 C1941 1.386 . S
H1939 C1955 0.930 . S
H1940 C1956 0.931 . S
C1941 H1929 0.929 . S
C1941 C1935 1.390 . S
C1941 C1938 1.386 . S
C1942 C1937 1.490 . S
C1942 C1944 1.395 . S
C1942 C1945 1.403 . S
H1943 C1949 0.930 . S
C1944 H1930 0.930 . S
C1944 C1942 1.395 . S
C1944 C1947 1.403 . S
C1945 C1942 1.403 . S
C1945 C1946 1.524 . S
C1945 C1949 1.400 . S
C1946 H1931 0.960 . S
C1946 H1932 0.960 . S
C1946 H1933 0.960 . S
C1946 C1945 1.524 . S
C1947 C1944 1.403 . S
C1947 C1948 1.392 . S
C1947 C1951 1.495 . S
C1948 C1947 1.392 . S
C1948 C1949 1.385 . S
C1948 C1950 1.478 . S
C1949 H1943 0.930 . S
C1949 C1945 1.400 . S
C1949 C1948 1.385 . S
C1950 C1948 1.478 . S
C1950 C1952 1.381 . S
C1950 C1956 1.383 . S
C1951 C1947 1.495 . S
C1951 H1957 0.959 . S
C1951 H1958 0.961 . S
C1951 H1959 0.960 . S
C1952 C1950 1.381 . S
C1952 C1953 1.394 . S
C1952 H1960 0.930 . S
C1953 C1952 1.394 . S
C1953 C1954 1.383 . S
C1953 H1961 0.929 . S
C1954 C1953 1.383 . S
C1954 C1955 1.377 . S
C1955 H1939 0.930 . S
C1955 C1954 1.377 . S
C1955 C1956 1.379 . S
C1956 H1940 0.931 . S
C1956 C1950 1.383 . S
C1956 C1955 1.379 . S
H1957 C1951 0.959 . S
H1958 C1951 0.961 . S
H1959 C1951 0.960 . S
H1960 C1952 0.930 . S
H1961 C1953 0.929 . S
H1962 C1970 0.929 . S
H1963 C1972 0.930 . S
H1964 C1974 0.930 . S
H1965 C1977 0.929 . S
H1966 C1980 0.930 . S
H1967 C1982 0.960 . S
H1968 C1982 0.960 . S
H1969 C1982 0.960 . S
C1970 H1962 0.929 . S
C1970 C1971 1.377 . S
C1970 C1972 1.384 . S
C1971 C1970 1.377 . S
C1971 C1977 1.390 . S
C1972 H1963 0.930 . S
C1972 C1970 1.384 . S
C1972 C1973 1.372 . S
C1973 C1972 1.372 . S
C1973 C1974 1.400 . S
C1973 C1978 1.490 . S
C1974 H1964 0.930 . S
C1974 C1973 1.400 . S
C1974 C1977 1.386 . S
H1975 C1991 0.930 . S
H1976 C1992 0.931 . S
C1977 H1965 0.929 . S
C1977 C1971 1.390 . S
C1977 C1974 1.386 . S
C1978 C1973 1.490 . S
C1978 C1980 1.395 . S
C1978 C1981 1.403 . S
H1979 C1985 0.930 . S
C1980 H1966 0.930 . S
C1980 C1978 1.395 . S
C1980 C1983 1.403 . S
C1981 C1978 1.403 . S
C1981 C1982 1.524 . S
C1981 C1985 1.400 . S
C1982 H1967 0.960 . S
C1982 H1968 0.960 . S
C1982 H1969 0.960 . S
C1982 C1981 1.524 . S
C1983 C1980 1.403 . S
C1983 C1984 1.392 . S
C1983 C1987 1.495 . S
C1984 C1983 1.392 . S
C1984 C1985 1.385 . S
C1984 C1986 1.478 . S
C1985 H1979 0.930 . S
C1985 C1981 1.400 . S
C1985 C1984 1.385 . S
C1986 C1984 1.478 . S
C1986 C1988 1.381 . S
C1986 C1992 1.383 . S
C1987 C1983 1.495 . S
C1987 H1993 0.959 . S
C1987 H1994 0.961 . S
C1987 H1995 0.960 . S
C1988 C1986 1.381 . S
C1988 C1989 1.394 . S
C1988 H1996 0.930 . S
C1989 C1988 1.394 . S
C1989 C1990 1.383 . S
C1989 H1997 0.929 . S
C1990 C1989 1.383 . S
C1990 C1991 1.377 . S
C1991 H1975 0.930 . S
C1991 C1990 1.377 . S
C1991 C1992 1.379 . S
C1992 H1976 0.931 . S
C1992 C1986 1.383 . S
C1992 C1991 1.379 . S
H1993 C1987 0.959 . S
H1994 C1987 0.961 . S
H1995 C1987 0.960 . S
H1996 C1988 0.930 . S
H1997 C1989 0.929 . S
H1998 C2006 0.929 . S
H1999 C2008 0.930 . S
H2000 C2010 0.930 . S
H2001 C2013 0.929 . S
H2002 C2016 0.930 . S
H2003 C2018 0.960 . S
H2004 C2018 0.960 . S
H2005 C2018 0.960 . S
C2006 H1998 0.929 . S
C2006 C2007 1.377 . S
C2006 C2008 1.384 . S
C2007 C2006 1.377 . S
C2007 C2013 1.390 . S
C2008 H1999 0.930 . S
C2008 C2006 1.384 . S
C2008 C2009 1.372 . S
C2009 C2008 1.372 . S
C2009 C2010 1.400 . S
C2009 C2014 1.490 . S
C2010 H2000 0.930 . S
C2010 C2009 1.400 . S
C2010 C2013 1.386 . S
H2011 C2027 0.930 1_556 S
H2012 C2028 0.931 . S
C2013 H2001 0.929 . S
C2013 C2007 1.390 . S
C2013 C2010 1.386 . S
C2014 C2009 1.490 . S
C2014 C2016 1.395 . S
C2014 C2017 1.403 . S
H2015 C2021 0.930 . S
C2016 H2002 0.930 . S
C2016 C2014 1.395 . S
C2016 C2019 1.403 . S
C2017 C2014 1.403 . S
C2017 C2018 1.524 . S
C2017 C2021 1.400 . S
C2018 H2003 0.960 . S
C2018 H2004 0.960 . S
C2018 H2005 0.960 . S
C2018 C2017 1.524 . S
C2019 C2016 1.403 . S
C2019 C2020 1.392 . S
C2019 C2023 1.495 . S
C2020 C2019 1.392 . S
C2020 C2021 1.385 . S
C2020 C2022 1.478 . S
C2021 H2015 0.930 . S
C2021 C2017 1.400 . S
C2021 C2020 1.385 . S
C2022 C2020 1.478 . S
C2022 C2024 1.381 . S
C2022 C2028 1.383 . S
C2023 C2019 1.495 . S
C2023 H2029 0.959 . S
C2023 H2030 0.961 . S
C2023 H2031 0.960 . S
C2024 C2022 1.381 . S
C2024 C2025 1.394 . S
C2024 H2032 0.930 . S
C2025 C2024 1.394 . S
C2025 C2026 1.383 . S
C2025 H2033 0.929 . S
C2026 C2025 1.383 . S
C2026 C2027 1.377 . S
C2027 H2011 0.930 1_554 S
C2027 C2026 1.377 . S
C2027 C2028 1.379 . S
C2028 H2012 0.931 . S
C2028 C2022 1.383 . S
C2028 C2027 1.379 . S
H2029 C2023 0.959 . S
H2030 C2023 0.961 . S
H2031 C2023 0.960 . S
H2032 C2024 0.930 . S
H2033 C2025 0.929 . S
H2034 C2042 0.929 . S
H2035 C2044 0.930 . S
H2036 C2046 0.930 . S
H2037 C2049 0.929 . S
H2038 C2052 0.930 . S
H2039 C2054 0.960 . S
H2040 C2054 0.960 . S
H2041 C2054 0.960 . S
C2042 H2034 0.929 . S
C2042 C2043 1.377 . S
C2042 C2044 1.384 . S
C2043 C2042 1.377 . S
C2043 C2049 1.390 . S
C2044 H2035 0.930 . S
C2044 C2042 1.384 . S
C2044 C2045 1.372 . S
C2045 C2044 1.372 . S
C2045 C2046 1.400 . S
C2045 C2050 1.490 . S
C2046 H2036 0.930 . S
C2046 C2045 1.400 . S
C2046 C2049 1.386 . S
H2047 C2063 0.930 . S
H2048 C2064 0.931 . S
C2049 H2037 0.929 . S
C2049 C2043 1.390 . S
C2049 C2046 1.386 . S
C2050 C2045 1.490 . S
C2050 C2052 1.395 . S
C2050 C2053 1.403 . S
H2051 C2057 0.930 . S
C2052 H2038 0.930 . S
C2052 C2050 1.395 . S
C2052 C2055 1.403 . S
C2053 C2050 1.403 . S
C2053 C2054 1.524 . S
C2053 C2057 1.400 . S
C2054 H2039 0.960 . S
C2054 H2040 0.960 . S
C2054 H2041 0.960 . S
C2054 C2053 1.524 . S
C2055 C2052 1.403 . S
C2055 C2056 1.392 . S
C2055 C2059 1.495 . S
C2056 C2055 1.392 . S
C2056 C2057 1.385 . S
C2056 C2058 1.478 . S
C2057 H2051 0.930 . S
C2057 C2053 1.400 . S
C2057 C2056 1.385 . S
C2058 C2056 1.478 . S
C2058 C2060 1.381 . S
C2058 C2064 1.383 . S
C2059 C2055 1.495 . S
C2059 H2065 0.959 . S
C2059 H2066 0.961 . S
C2059 H2067 0.960 . S
C2060 C2058 1.381 . S
C2060 C2061 1.394 . S
C2060 H2068 0.930 . S
C2061 C2060 1.394 . S
C2061 C2062 1.383 . S
C2061 H2069 0.929 . S
C2062 C2061 1.383 . S
C2062 C2063 1.377 . S
C2063 H2047 0.930 . S
C2063 C2062 1.377 . S
C2063 C2064 1.379 . S
C2064 H2048 0.931 . S
C2064 C2058 1.383 . S
C2064 C2063 1.379 . S
H2065 C2059 0.959 . S
H2066 C2059 0.961 . S
H2067 C2059 0.960 . S
H2068 C2060 0.930 . S
H2069 C2061 0.929 . S
H2070 C2078 0.929 . S
H2071 C2080 0.930 . S
H2072 C2082 0.930 . S
H2073 C2085 0.929 . S
H2074 C2088 0.930 . S
H2075 C2090 0.960 . S
H2076 C2090 0.960 . S
H2077 C2090 0.960 . S
C2078 H2070 0.929 . S
C2078 C2079 1.377 . S
C2078 C2080 1.384 . S
C2079 C2078 1.377 . S
C2079 C2085 1.390 . S
C2080 H2071 0.930 . S
C2080 C2078 1.384 . S
C2080 C2081 1.372 . S
C2081 C2080 1.372 . S
C2081 C2082 1.400 . S
C2081 C2086 1.490 . S
C2082 H2072 0.930 . S
C2082 C2081 1.400 . S
C2082 C2085 1.386 . S
H2083 C2099 0.930 1_556 S
H2084 C2100 0.931 . S
C2085 H2073 0.929 . S
C2085 C2079 1.390 . S
C2085 C2082 1.386 . S
C2086 C2081 1.490 . S
C2086 C2088 1.395 . S
C2086 C2089 1.403 . S
H2087 C2093 0.930 . S
C2088 H2074 0.930 . S
C2088 C2086 1.395 . S
C2088 C2091 1.403 . S
C2089 C2086 1.403 . S
C2089 C2090 1.524 . S
C2089 C2093 1.400 . S
C2090 H2075 0.960 . S
C2090 H2076 0.960 . S
C2090 H2077 0.960 . S
C2090 C2089 1.524 . S
C2091 C2088 1.403 . S
C2091 C2092 1.392 . S
C2091 C2095 1.495 . S
C2092 C2091 1.392 . S
C2092 C2093 1.385 . S
C2092 C2094 1.478 . S
C2093 H2087 0.930 . S
C2093 C2089 1.400 . S
C2093 C2092 1.385 . S
C2094 C2092 1.478 . S
C2094 C2096 1.381 . S
C2094 C2100 1.383 . S
C2095 C2091 1.495 . S
C2095 H2101 0.959 . S
C2095 H2102 0.961 . S
C2095 H2103 0.960 . S
C2096 C2094 1.381 . S
C2096 C2097 1.394 . S
C2096 H2104 0.930 . S
C2097 C2096 1.394 . S
C2097 C2098 1.383 . S
C2097 H2105 0.929 . S
C2098 C2097 1.383 . S
C2098 C2099 1.377 . S
C2099 H2083 0.930 1_554 S
C2099 C2098 1.377 . S
C2099 C2100 1.379 . S
C2100 H2084 0.931 . S
C2100 C2094 1.383 . S
C2100 C2099 1.379 . S
H2101 C2095 0.959 . S
H2102 C2095 0.961 . S
H2103 C2095 0.960 . S
H2104 C2096 0.930 . S
H2105 C2097 0.929 . S
H2106 C2114 0.929 . S
H2107 C2116 0.930 . S
H2108 C2118 0.930 . S
H2109 C2121 0.929 . S
H2110 C2124 0.930 . S
H2111 C2126 0.960 . S
H2112 C2126 0.960 . S
H2113 C2126 0.960 . S
C2114 H2106 0.929 . S
C2114 C2115 1.377 . S
C2114 C2116 1.384 . S
C2115 C2114 1.377 . S
C2115 C2121 1.390 . S
C2116 H2107 0.930 . S
C2116 C2114 1.384 . S
C2116 C2117 1.372 . S
C2117 C2116 1.372 . S
C2117 C2118 1.400 . S
C2117 C2122 1.490 . S
C2118 H2108 0.930 . S
C2118 C2117 1.400 . S
C2118 C2121 1.386 . S
H2119 C2135 0.930 . S
H2120 C2136 0.931 . S
C2121 H2109 0.929 . S
C2121 C2115 1.390 . S
C2121 C2118 1.386 . S
C2122 C2117 1.490 . S
C2122 C2124 1.395 . S
C2122 C2125 1.403 . S
H2123 C2129 0.930 . S
C2124 H2110 0.930 . S
C2124 C2122 1.395 . S
C2124 C2127 1.403 . S
C2125 C2122 1.403 . S
C2125 C2126 1.524 . S
C2125 C2129 1.400 . S
C2126 H2111 0.960 . S
C2126 H2112 0.960 . S
C2126 H2113 0.960 . S
C2126 C2125 1.524 . S
C2127 C2124 1.403 . S
C2127 C2128 1.392 . S
C2127 C2131 1.495 . S
C2128 C2127 1.392 . S
C2128 C2129 1.385 . S
C2128 C2130 1.478 . S
C2129 H2123 0.930 . S
C2129 C2125 1.400 . S
C2129 C2128 1.385 . S
C2130 C2128 1.478 . S
C2130 C2132 1.381 . S
C2130 C2136 1.383 . S
C2131 C2127 1.495 . S
C2131 H2137 0.959 . S
C2131 H2138 0.961 . S
C2131 H2139 0.960 . S
C2132 C2130 1.381 . S
C2132 C2133 1.394 . S
C2132 H2140 0.930 . S
C2133 C2132 1.394 . S
C2133 C2134 1.383 . S
C2133 H2141 0.929 . S
C2134 C2133 1.383 . S
C2134 C2135 1.377 . S
C2135 H2119 0.930 . S
C2135 C2134 1.377 . S
C2135 C2136 1.379 . S
C2136 H2120 0.931 . S
C2136 C2130 1.383 . S
C2136 C2135 1.379 . S
H2137 C2131 0.959 . S
H2138 C2131 0.961 . S
H2139 C2131 0.960 . S
H2140 C2132 0.930 . S
H2141 C2133 0.929 . S
H2142 C2150 0.929 . S
H2143 C2152 0.930 . S
H2144 C2154 0.930 . S
H2145 C2157 0.929 . S
H2146 C2160 0.930 . S
H2147 C2162 0.960 . S
H2148 C2162 0.960 . S
H2149 C2162 0.960 . S
C2150 H2142 0.929 . S
C2150 C2151 1.377 . S
C2150 C2152 1.384 . S
C2151 C2150 1.377 . S
C2151 C2157 1.390 . S
C2152 H2143 0.930 . S
C2152 C2150 1.384 . S
C2152 C2153 1.372 . S
C2153 C2152 1.372 . S
C2153 C2154 1.400 . S
C2153 C2158 1.490 . S
C2154 H2144 0.930 . S
C2154 C2153 1.400 . S
C2154 C2157 1.386 . S
H2155 C2171 0.930 . S
H2156 C2172 0.931 . S
C2157 H2145 0.929 . S
C2157 C2151 1.390 . S
C2157 C2154 1.386 . S
C2158 C2153 1.490 . S
C2158 C2160 1.395 . S
C2158 C2161 1.403 . S
H2159 C2165 0.930 . S
C2160 H2146 0.930 . S
C2160 C2158 1.395 . S
C2160 C2163 1.403 . S
C2161 C2158 1.403 . S
C2161 C2162 1.524 . S
C2161 C2165 1.400 . S
C2162 H2147 0.960 . S
C2162 H2148 0.960 . S
C2162 H2149 0.960 . S
C2162 C2161 1.524 . S
C2163 C2160 1.403 . S
C2163 C2164 1.392 . S
C2163 C2167 1.495 . S
C2164 C2163 1.392 . S
C2164 C2165 1.385 . S
C2164 C2166 1.478 . S
C2165 H2159 0.930 . S
C2165 C2161 1.400 . S
C2165 C2164 1.385 . S
C2166 C2164 1.478 . S
C2166 C2168 1.381 . S
C2166 C2172 1.383 . S
C2167 C2163 1.495 . S
C2167 H2173 0.959 . S
C2167 H2174 0.961 . S
C2167 H2175 0.960 . S
C2168 C2166 1.381 . S
C2168 C2169 1.394 . S
C2168 H2176 0.930 . S
C2169 C2168 1.394 . S
C2169 C2170 1.383 . S
C2169 H2177 0.929 . S
C2170 C2169 1.383 . S
C2170 C2171 1.377 . S
C2171 H2155 0.930 . S
C2171 C2170 1.377 . S
C2171 C2172 1.379 . S
C2172 H2156 0.931 . S
C2172 C2166 1.383 . S
C2172 C2171 1.379 . S
H2173 C2167 0.959 . S
H2174 C2167 0.961 . S
H2175 C2167 0.960 . S
H2176 C2168 0.930 . S
H2177 C2169 0.929 . S
H2178 C2186 0.929 . S
H2179 C2188 0.930 . S
H2180 C2190 0.930 . S
H2181 C2193 0.929 . S
H2182 C2196 0.930 . S
H2183 C2198 0.960 . S
H2184 C2198 0.960 . S
H2185 C2198 0.960 . S
C2186 H2178 0.929 . S
C2186 C2187 1.377 . S
C2186 C2188 1.384 . S
C2187 C2186 1.377 . S
C2187 C2193 1.390 . S
C2188 H2179 0.930 . S
C2188 C2186 1.384 . S
C2188 C2189 1.372 . S
C2189 C2188 1.372 . S
C2189 C2190 1.400 . S
C2189 C2194 1.490 . S
C2190 H2180 0.930 . S
C2190 C2189 1.400 . S
C2190 C2193 1.386 . S
H2191 C2207 0.930 . S
H2192 C2208 0.931 . S
C2193 H2181 0.929 . S
C2193 C2187 1.390 . S
C2193 C2190 1.386 . S
C2194 C2189 1.490 . S
C2194 C2196 1.395 . S
C2194 C2197 1.403 . S
H2195 C2201 0.930 . S
C2196 H2182 0.930 . S
C2196 C2194 1.395 . S
C2196 C2199 1.403 . S
C2197 C2194 1.403 . S
C2197 C2198 1.524 . S
C2197 C2201 1.400 . S
C2198 H2183 0.960 . S
C2198 H2184 0.960 . S
C2198 H2185 0.960 . S
C2198 C2197 1.524 . S
C2199 C2196 1.403 . S
C2199 C2200 1.392 . S
C2199 C2203 1.495 . S
C2200 C2199 1.392 . S
C2200 C2201 1.385 . S
C2200 C2202 1.478 . S
C2201 H2195 0.930 . S
C2201 C2197 1.400 . S
C2201 C2200 1.385 . S
C2202 C2200 1.478 . S
C2202 C2204 1.381 . S
C2202 C2208 1.383 . S
C2203 C2199 1.495 . S
C2203 H2209 0.959 . S
C2203 H2210 0.961 . S
C2203 H2211 0.960 . S
C2204 C2202 1.381 . S
C2204 C2205 1.394 . S
C2204 H2212 0.930 . S
C2205 C2204 1.394 . S
C2205 C2206 1.383 . S
C2205 H2213 0.929 . S
C2206 C2205 1.383 . S
C2206 C2207 1.377 . S
C2207 H2191 0.930 . S
C2207 C2206 1.377 . S
C2207 C2208 1.379 . S
C2208 H2192 0.931 . S
C2208 C2202 1.383 . S
C2208 C2207 1.379 . S
H2209 C2203 0.959 . S
H2210 C2203 0.961 . S
H2211 C2203 0.960 . S
H2212 C2204 0.930 . S
H2213 C2205 0.929 . S
C603 N112 1.135 . S
C622 N13 1.163 . S
C639 N145 1.122 . S
C658 N46 1.092 . S
C675 N79 1.135 . S
C694 N178 1.133 . S
C711 C51 2.259 . S
C730 C183 2.249 . S
C747 C117 2.259 . S
C766 C84 2.252 . S
C783 C150 2.258 . S
C802 C18 2.255 . S
C819 N211 1.137 . S
C838 N310 1.161 . S
C855 N343 1.124 . S
C874 N244 1.090 . S
C891 N277 1.122 . S
C910 N376 1.102 . S
C927 C381 2.259 . S
C946 C249 2.255 . S
C963 C315 2.257 . S
C982 C282 2.259 . S
C999 C348 2.258 . S
C1018 C216 2.255 . S
C1035 N508 1.122 . S
C1054 N409 1.103 . S
C1071 N442 1.132 . S
C1090 N541 1.157 . S
C1107 N574 1.122 . S
C1126 N475 1.102 . S
C1143 C447 2.259 . S
C1162 C579 2.251 . S
C1179 C513 2.259 . S
C1198 C480 2.252 . S
C1215 C414 2.257 . S
C1234 C546 2.258 . S
C1251 C582 1.380 . S
C1270 C21 1.379 . S
C1287 C54 1.381 . S
C1306 C516 1.369 . S
C1323 C549 1.380 . S
C1342 C87 1.376 . S
C1359 C252 1.380 . S
C1378 C120 1.373 . S
C1395 C153 1.384 . S
C1414 C285 1.388 . S
C1431 C186 1.381 . S
C1450 C219 1.369 . S
C1467 C450 1.382 . S
C1486 C318 1.389 . S
C1503 C483 1.381 . S
C1522 C351 1.369 . S
C1539 C384 1.384 . S
C1558 C417 1.383 . S
C1575 C7 1.860 . S
C1594 C106 1.866 . S
C1611 C139 1.864 . S
C1630 C40 1.865 . S
C1647 C73 1.861 . S
C1666 C172 1.852 . S
C1683 N167 0.692 . S
C1702 N35 0.665 . S
C1719 N68 0.686 . S
C1738 N101 0.642 . S
C1755 N134 0.693 . S
C1774 N2 0.740 . S
C1791 C205 1.865 . S
C1810 C304 1.848 1_556 S
C1827 C337 1.860 1_556 S
C1846 C238 1.870 . S
C1863 C370 1.865 1_556 S
C1882 C271 1.856 . S
C1899 N365 0.703 . S
C1918 N233 0.750 . S
C1935 N299 0.688 . S
C1954 N266 0.723 . S
C1971 N332 0.679 . S
C1990 N200 0.624 . S
C2007 C502 1.865 . S
C2026 C403 1.852 1_554 S
C2043 C535 1.861 . S
C2062 C436 1.872 1_554 S
C2079 C568 1.865 . S
C2098 C469 1.847 1_554 S
C2115 N563 0.680 . S
C2134 N431 0.625 . S
C2151 N497 0.683 . S
C2170 N464 0.698 . S
C2187 N530 0.699 . S
C2206 N398 0.753 . S
