# Generated by pormake.
# Topology unf, (4)-cn, num edge types: 1
# Building blocks:
#     Node 0, Type 0, BuildingBlock: UXUYUI_clean_sbu_0, # of connection points: 4
#     Node 1, Type 0, BuildingBlock: UXUYUI_clean_sbu_0, # of connection points: 4
#     Node 2, Type 0, BuildingBlock: UXUYUI_clean_sbu_0, # of connection points: 4
#     Node 3, Type 0, BuildingBlock: UXUYUI_clean_sbu_0, # of connection points: 4
#     Node 4, Type 0, BuildingBlock: UXUYUI_clean_sbu_0, # of connection points: 4
#     Node 5, Type 0, BuildingBlock: UXUYUI_clean_sbu_0, # of connection points: 4
#     Node 6, Type 0, BuildingBlock: UXUYUI_clean_sbu_0, # of connection points: 4
#     Node 7, Type 0, BuildingBlock: UXUYUI_clean_sbu_0, # of connection points: 4
#     Node 8, Type 0, BuildingBlock: UXUYUI_clean_sbu_0, # of connection points: 4
#     Node 9, Type 0, BuildingBlock: UXUYUI_clean_sbu_0, # of connection points: 4
#     Node 10, Type 0, BuildingBlock: UXUYUI_clean_sbu_0, # of connection points: 4
#     Node 11, Type 0, BuildingBlock: UXUYUI_clean_sbu_0, # of connection points: 4
#     Edge 12, Type (0, 0), BuildingBlock: AJUNOK_clean_linker_0, # of connection points: 2
#     Edge 13, Type (0, 0), BuildingBlock: AJUNOK_clean_linker_0, # of connection points: 2
#     Edge 14, Type (0, 0), BuildingBlock: AJUNOK_clean_linker_0, # of connection points: 2
#     Edge 15, Type (0, 0), BuildingBlock: AJUNOK_clean_linker_0, # of connection points: 2
#     Edge 16, Type (0, 0), BuildingBlock: AJUNOK_clean_linker_0, # of connection points: 2
#     Edge 17, Type (0, 0), BuildingBlock: AJUNOK_clean_linker_0, # of connection points: 2
#     Edge 18, Type (0, 0), BuildingBlock: AJUNOK_clean_linker_0, # of connection points: 2
#     Edge 19, Type (0, 0), BuildingBlock: AJUNOK_clean_linker_0, # of connection points: 2
#     Edge 20, Type (0, 0), BuildingBlock: AJUNOK_clean_linker_0, # of connection points: 2
#     Edge 21, Type (0, 0), BuildingBlock: AJUNOK_clean_linker_0, # of connection points: 2
#     Edge 22, Type (0, 0), BuildingBlock: AJUNOK_clean_linker_0, # of connection points: 2
#     Edge 23, Type (0, 0), BuildingBlock: AJUNOK_clean_linker_0, # of connection points: 2
#     Edge 24, Type (0, 0), BuildingBlock: AJUNOK_clean_linker_0, # of connection points: 2
#     Edge 25, Type (0, 0), BuildingBlock: AJUNOK_clean_linker_0, # of connection points: 2
#     Edge 26, Type (0, 0), BuildingBlock: AJUNOK_clean_linker_0, # of connection points: 2
#     Edge 27, Type (0, 0), BuildingBlock: AJUNOK_clean_linker_0, # of connection points: 2
#     Edge 28, Type (0, 0), BuildingBlock: AJUNOK_clean_linker_0, # of connection points: 2
#     Edge 29, Type (0, 0), BuildingBlock: AJUNOK_clean_linker_0, # of connection points: 2
#     Edge 30, Type (0, 0), BuildingBlock: AJUNOK_clean_linker_0, # of connection points: 2
#     Edge 31, Type (0, 0), BuildingBlock: AJUNOK_clean_linker_0, # of connection points: 2
#     Edge 32, Type (0, 0), BuildingBlock: AJUNOK_clean_linker_0, # of connection points: 2
#     Edge 33, Type (0, 0), BuildingBlock: AJUNOK_clean_linker_0, # of connection points: 2
#     Edge 34, Type (0, 0), BuildingBlock: AJUNOK_clean_linker_0, # of connection points: 2
#     Edge 35, Type (0, 0), BuildingBlock: AJUNOK_clean_linker_0, # of connection points: 2
# Relax obj value: 0.347
# Max RMSD: 0.227
# Mean RMSD: 0.226
data_MOF--net-unf--node1-UXUYUI_clean_sbu_0--edge1-AJUNOK_clean_linker_0
_symmetry_space_group_name_H-M    P1
_symmetry_Int_Tables_number       1
_symmetry_cell_setting            triclinic
loop_
_symmetry_equiv_pos_as_xyz
'x, y, z'
_cell_length_a     45.601533
_cell_length_b     45.584106
_cell_length_c     43.678379
_cell_angle_alpha  90.038685
_cell_angle_beta   89.90437
_cell_angle_gamma 120.00067
loop_
_atom_site_label
_atom_site_type_symbol
_atom_site_fract_x
_atom_site_fract_y
_atom_site_fract_z
_atom_type_partial_charge
Li0 Li 0.06157 0.401 0.07749 0.0
Li1 Li 0.08834 0.38318 0.11315 0.0
Li2 Li 0.088 0.37079 0.05787 0.0
Li3 Li 0.03438 0.34249 0.08947 0.0
C4 C 0.1291 0.4475 0.09011 0.0
N5 N 0.16735 0.51206 0.11371 0.0
C6 C 0.1167 0.4581 0.11447 0.0
C7 C 0.16093 0.46972 0.07777 0.0
C8 C 0.13643 0.49083 0.12607 0.0
C9 C 0.17989 0.50227 0.09001 0.0
C10 C 0.02998 0.36742 0.14631 0.0
C11 C 0.01421 0.32457 0.18523 0.0
N12 N 0.00383 0.34179 0.20354 0.0
C13 C 0.01905 0.38463 0.16546 0.0
C14 C 0.02746 0.33709 0.15621 0.0
C15 C 0.00595 0.37129 0.19433 0.0
C16 C 0.02107 0.43098 0.0738 0.0
N17 N 0.05148 0.43473 0.06549 0.0
C18 C 0.06177 0.47968 0.03132 0.0
C19 C 0.0722 0.45893 0.04526 0.0
C20 C 0.02967 0.47509 0.03814 0.0
C21 C 0.00956 0.45106 0.06028 0.0
H22 H 0.00502 0.41112 0.08964 0.0
H23 H 0.09592 0.46076 0.03862 0.0
C24 C 0.14675 0.39286 0.13941 0.0
N25 N 0.11766 0.39253 0.1469 0.0
C26 C 0.17005 0.39704 0.16199 0.0
C27 C 0.13335 0.40117 0.19966 0.0
C28 C 0.11084 0.39721 0.17623 0.0
C29 C 0.16328 0.40084 0.19264 0.0
H30 H 0.15144 0.38917 0.11582 0.0
H31 H 0.08775 0.39722 0.18163 0.0
C32 C 0.02767 0.37176 0.02639 0.0
N33 N 0.99801 0.39277 0.9831 0.0
C34 C 0.99365 0.36274 0.02925 0.0
C35 C 0.04653 0.39112 0.00136 0.0
C36 C 0.97913 0.37368 0.00715 0.0
C37 C 0.03109 0.4016 0.97977 0.0
C38 C 0.07928 0.31208 0.09841 0.0
C39 C 0.07673 0.29114 0.07396 0.0
C40 C 0.08555 0.30458 0.12788 0.0
C41 C 0.08011 0.26279 0.07945 0.0
C42 C 0.08881 0.27601 0.13243 0.0
N43 N 0.08603 0.25587 0.10833 0.0
C44 C 0.14695 0.3805 0.03045 0.0
C45 C 0.09729 0.34462 0.00215 0.0
C46 C 0.16687 0.37536 0.00935 0.0
N47 N 0.11289 0.3649 0.02663 0.0
C48 C 0.11626 0.33855 0.98054 0.0
C49 C 0.15148 0.3539 0.98419 0.0
H50 H 0.15845 0.39621 0.05038 0.0
H51 H 0.07006 0.33244 -7e-05 0.0
C52 C 0.9648 0.30497 0.10184 0.0
N53 N 0.99169 0.3025 0.09169 0.0
C54 C 0.93188 0.2787 0.09647 0.0
C55 C 0.95508 0.24713 0.07198 0.0
C56 C 0.98753 0.27403 0.07776 0.0
C57 C 0.92687 0.25001 0.08021 0.0
H58 H 0.96882 0.32831 0.11205 0.0
H59 H 0.00926 0.27319 0.06908 0.0
O60 O 0.11044 0.41553 0.07835 0.0
O61 O 0.043 0.38047 0.11807 0.0
O62 O 0.04255 0.36191 0.04811 0.0
O63 O 0.07667 0.34033 0.09339 0.0
H64 H 0.09216 0.44133 0.12438 0.0
H65 H 0.17088 0.46187 0.05892 0.0
H66 H 0.12716 0.49936 0.14493 0.0
H67 H 0.20458 0.51974 0.08068 0.0
H68 H 0.01214 0.30113 0.19317 0.0
H69 H 0.0208 0.40813 0.1581 0.0
H70 H 0.03542 0.32323 0.14166 0.0
H71 H 0.99748 0.3844 0.20942 0.0
H72 H 0.07783 0.49786 0.01421 0.0
H73 H 0.98481 0.44717 0.06633 0.0
H74 H 0.19292 0.39686 0.15561 0.0
H75 H 0.12686 0.4034 0.22307 0.0
H76 H 0.97872 0.34777 0.04849 0.0
H77 H 0.07292 0.39834 0.99888 0.0
H78 H 0.95289 0.36711 0.00917 0.0
H79 H 0.04544 0.41686 0.96042 0.0
H80 H 0.07192 0.29656 0.05102 0.0
H81 H 0.08796 0.32065 0.14707 0.0
H82 H 0.07804 0.2463 0.06074 0.0
H83 H 0.09361 0.26988 0.15512 0.0
H84 H 0.19385 0.38694 0.01334 0.0
H85 H 0.10358 0.32164 0.96153 0.0
H86 H 0.91064 0.28168 0.10318 0.0
H87 H 0.95212 0.22554 0.05903 0.0
Li88 Li 0.62108 0.6975 0.12397 0.0
Li89 Li 0.60259 0.65117 0.08817 0.0
Li90 Li 0.66164 0.68645 0.10054 0.0
Li91 Li 0.63093 0.70982 0.07021 0.0
C92 C 0.63842 0.64262 0.1474 0.0
N93 N 0.66784 0.6158 0.18496 0.0
C94 C 0.62428 0.60754 0.14981 0.0
C95 C 0.66724 0.66404 0.16443 0.0
C96 C 0.63959 0.59447 0.16884 0.0
C97 C 0.68183 0.65001 0.18318 0.0
C98 C 0.55452 0.66989 0.10313 0.0
C99 C 0.49934 0.66476 0.10668 0.0
N100 N 0.49046 0.64056 0.12858 0.0
C101 C 0.54486 0.64502 0.12575 0.0
C102 C 0.5316 0.6799 0.09356 0.0
C103 C 0.51236 0.63047 0.13829 0.0
C104 C 0.59631 0.73401 0.15567 0.0
N105 N 0.61092 0.71459 0.1597 0.0
C106 C 0.61887 0.72812 0.21292 0.0
C107 C 0.62136 0.71064 0.18772 0.0
C108 C 0.60561 0.74983 0.20905 0.0
C109 C 0.59333 0.75193 0.18022 0.0
H110 H 0.58861 0.737 0.13303 0.0
H111 H 0.63279 0.69501 0.19031 0.0
C112 C 0.58665 0.58648 0.07228 0.0
N113 N 0.57251 0.6065 0.07453 0.0
C114 C 0.56992 0.55576 0.0567 0.0
C115 C 0.52354 0.566 0.04721 0.0
C116 C 0.54143 0.59686 0.06264 0.0
C117 C 0.53831 0.54563 0.04348 0.0
H118 H 0.61188 0.59538 0.08105 0.0
H119 H 0.53129 0.61377 0.06369 0.0
C120 C 0.67356 0.75946 0.12073 0.0
N121 N 0.6898 0.81579 0.15618 0.0
C122 C 0.66202 0.78157 0.11249 0.0
C123 C 0.69382 0.76629 0.14671 0.0
C124 C 0.67043 0.80987 0.13076 0.0
C125 C 0.70159 0.7948 0.16443 0.0
C126 C 0.63192 0.65676 0.0325 0.0
C127 C 0.64781 0.63895 0.0227 0.0
C128 C 0.60589 0.6559 0.01499 0.0
C129 C 0.63722 0.62039 0.9955 0.0
C130 C 0.59602 0.63702 0.98794 0.0
N131 N 0.61176 0.61981 0.97885 0.0
C132 C 0.69957 0.65431 0.09739 0.0
C133 C 0.73257 0.71432 0.09757 0.0
C134 C 0.72769 0.65174 0.08917 0.0
N135 N 0.70235 0.68524 0.10059 0.0
C136 C 0.7614 0.71292 0.08908 0.0
C137 C 0.75871 0.68129 0.08361 0.0
H138 H 0.675 0.63168 0.09895 0.0
H139 H 0.7337 0.73854 0.09944 0.0
C140 C 0.60851 0.74159 0.02853 0.0
N141 N 0.63577 0.73977 0.03844 0.0
C142 C 0.61285 0.76684 0.00794 0.0
C143 C 0.673 0.7868 0.00723 0.0
C144 C 0.66749 0.76118 0.02785 0.0
C145 C 0.64552 0.79026 0.99757 0.0
H146 H 0.58364 0.7242 0.03748 0.0
H147 H 0.68866 0.75921 0.03651 0.0
O148 O 0.62386 0.65582 0.12868 0.0
O149 O 0.58634 0.68492 0.09064 0.0
O150 O 0.66466 0.73104 0.10368 0.0
O151 O 0.64109 0.67407 0.05961 0.0
H152 H 0.6016 0.59056 0.13727 0.0
H153 H 0.67847 0.69121 0.16286 0.0
H154 H 0.62897 0.56737 0.17084 0.0
H155 H 0.7043 0.66632 0.19629 0.0
H156 H 0.48137 0.67229 0.09948 0.0
H157 H 0.56208 0.63685 0.13357 0.0
H158 H 0.5387 0.69928 0.07626 0.0
H159 H 0.50454 0.61116 0.15576 0.0
H160 H 0.62804 0.72542 0.235 0.0
H161 H 0.58306 0.76852 0.17637 0.0
H162 H 0.58194 0.54054 0.05421 0.0
H163 H 0.49926 0.55891 0.03699 0.0
H164 H 0.64622 0.77662 0.09251 0.0
H165 H 0.7033 0.74969 0.15323 0.0
H166 H 0.6614 0.82701 0.12482 0.0
H167 H 0.71697 0.80022 0.18477 0.0
H168 H 0.66789 0.63923 0.03608 0.0
H169 H 0.59301 0.66915 0.0225 0.0
H170 H 0.64916 0.60635 0.9877 0.0
H171 H 0.57574 0.63592 0.97426 0.0
H172 H 0.72466 0.62693 0.08502 0.0
H173 H 0.78471 0.73626 0.08436 0.0
H174 H 0.59111 0.76884 0.00104 0.0
H175 H 0.69865 0.80484 0.00031 0.0
Li176 Li 0.28856 0.91478 0.11417 0.0
Li177 Li 0.33587 0.94396 0.07931 0.0
Li178 Li 0.30289 0.96889 0.09522 0.0
Li179 Li 0.27779 0.91844 0.06039 0.0
C180 C 0.3435 0.98349 0.14227 0.0
N181 N 0.36695 0.03637 0.18363 0.0
C182 C 0.37823 0.00603 0.14516 0.0
C183 C 0.32078 0.98746 0.16089 0.0
C184 C 0.38958 0.03271 0.16608 0.0
C185 C 0.33309 0.01445 0.18151 0.0
C186 C 0.31148 0.87416 0.08887 0.0
C187 C 0.30794 0.81959 0.09053 0.0
N188 N 0.3337 0.83192 0.11115 0.0
C189 C 0.33783 0.88625 0.1102 0.0
C190 C 0.29632 0.84053 0.07903 0.0
C191 C 0.34874 0.86452 0.12113 0.0
C192 C 0.24561 0.85203 0.14107 0.0
N193 N 0.27017 0.88421 0.14765 0.0
C194 C 0.26358 0.87212 0.20121 0.0
C195 C 0.27983 0.89444 0.17695 0.0
C196 C 0.23705 0.83909 0.19517 0.0
C197 C 0.2283 0.82911 0.16457 0.0
H198 H 0.23869 0.84452 0.1175 0.0
H199 H 0.29972 0.92004 0.18154 0.0
C200 C 0.40358 0.98928 0.06646 0.0
N201 N 0.37972 0.95592 0.06489 0.0
C202 C 0.43416 0.00154 0.05079 0.0
C203 C 0.41518 0.94479 0.03238 0.0
C204 C 0.38501 0.93356 0.04856 0.0
C205 C 0.4398 0.9793 0.03291 0.0
H206 H 0.39793 0.00675 0.0782 0.0
H207 H 0.36512 0.90744 0.04664 0.0
C208 C 0.22692 0.90816 0.1103 0.0
N209 N 0.16629 0.86625 0.13962 0.0
C210 C 0.20343 0.87725 0.09713 0.0
C211 C 0.2193 0.91796 0.13817 0.0
C212 C 0.17298 0.85638 0.11235 0.0
C213 C 0.18861 0.89634 0.1527 0.0
C214 C 0.33392 0.97367 0.02647 0.0
C215 C 0.35512 0.00792 0.01954 0.0
C216 C 0.33249 0.94893 0.0066 0.0
C217 C 0.37472 0.01684 0.9929 0.0
C218 C 0.35253 0.95888 0.98022 0.0
N219 N 0.37307 0.99235 0.97398 0.0
C220 C 0.33549 0.03923 0.09443 0.0
C221 C 0.27616 0.01251 0.10247 0.0
C222 C 0.33723 0.07018 0.08904 0.0
N223 N 0.30511 0.01108 0.09982 0.0
C224 C 0.27677 0.04306 0.09745 0.0
C225 C 0.30735 0.07193 0.08906 0.0
H226 H 0.35795 0.03707 0.09199 0.0
H227 H 0.2523 0.98954 0.10636 0.0
C228 C 0.24456 0.86921 0.01432 0.0
N229 N 0.24876 0.89837 0.02677 0.0
C230 C 0.22076 0.85299 0.99118 0.0
C231 C 0.20694 0.89775 0.99364 0.0
C232 C 0.23104 0.91312 0.01668 0.0
C233 C 0.20126 0.86705 0.98094 0.0
H234 H 0.25902 0.85812 0.02298 0.0
H235 H 0.23498 0.93631 0.02721 0.0
O236 O 0.33185 0.95738 0.12169 0.0
O237 O 0.29981 0.89469 0.07826 0.0
O238 O 0.25711 0.92872 0.09595 0.0
O239 O 0.31566 0.9644 0.05313 0.0
H240 H 0.3963 0.00282 0.13163 0.0
H241 H 0.29391 0.97002 0.15921 0.0
H242 H 0.41639 0.05042 0.16845 0.0
H243 H 0.31571 0.01797 0.19584 0.0
H244 H 0.29643 0.7935 0.0831 0.0
H245 H 0.3498 0.9121 0.11826 0.0
H246 H 0.27565 0.83063 0.06281 0.0
H247 H 0.36914 0.87356 0.13758 0.0
H248 H 0.27132 0.88076 0.22446 0.0
H249 H 0.20749 0.80428 0.15877 0.0
H250 H 0.45243 0.0284 0.05134 0.0
H251 H 0.41883 0.92693 0.01887 0.0
H252 H 0.20883 0.86913 0.07565 0.0
H253 H 0.23683 0.94198 0.14849 0.0
H254 H 0.15473 0.83226 0.10254 0.0
H255 H 0.1825 0.90353 0.17437 0.0
H256 H 0.35665 0.02741 0.03469 0.0
H257 H 0.31673 0.92231 0.01189 0.0
H258 H 0.39136 0.04325 0.98733 0.0
H259 H 0.35194 0.94 0.96482 0.0
H260 H 0.36125 0.09179 0.08244 0.0
H261 H 0.2533 0.04359 0.09813 0.0
H262 H 0.21658 0.82897 0.98241 0.0
H263 H 0.19226 0.90922 0.98637 0.0
Li264 Li 0.63622 0.91242 0.44324 0.0
Li265 Li 0.66134 0.96424 0.40937 0.0
Li266 Li 0.60199 0.93512 0.42357 0.0
Li267 Li 0.62161 0.90916 0.38829 0.0
C268 C 0.63328 0.97167 0.4736 0.0
N269 N 0.61296 0.00047 0.51846 0.0
C270 C 0.64149 0.0055 0.47115 0.0
C271 C 0.61509 0.95257 0.499 0.0
C272 C 0.63091 0.01958 0.49405 0.0
C273 C 0.60494 0.96757 0.52139 0.0
C274 C 0.6952 0.92701 0.39429 0.0
C275 C 0.7293 0.93208 0.35012 0.0
N276 N 0.75384 0.93373 0.36889 0.0
C277 C 0.7206 0.92832 0.4131 0.0
C278 C 0.69945 0.92856 0.3625 0.0
C279 C 0.75013 0.93192 0.39985 0.0
C280 C 0.62406 0.85925 0.48321 0.0
N281 N 0.64599 0.89214 0.47614 0.0
C282 C 0.68536 0.89511 0.51369 0.0
C283 C 0.67577 0.91047 0.49128 0.0
C284 C 0.66374 0.86082 0.52067 0.0
C285 C 0.6324 0.84301 0.50574 0.0
H286 H 0.60059 0.8454 0.47072 0.0
H287 H 0.69251 0.9367 0.4852 0.0
C288 C 0.69661 0.03379 0.39585 0.0
N289 N 0.69997 0.00759 0.40643 0.0
C290 C 0.72184 0.06711 0.40164 0.0
C291 C 0.75417 0.04564 0.42748 0.0
C292 C 0.72831 0.01279 0.42129 0.0
C293 C 0.75032 0.07315 0.41879 0.0
H294 H 0.67324 0.02886 0.38507 0.0
H295 H 0.72961 0.99153 0.43057 0.0
C296 C 0.55842 0.86653 0.41285 0.0
N297 N 0.49407 0.82527 0.38988 0.0
C298 C 0.54562 0.87843 0.38995 0.0
C299 C 0.53844 0.83362 0.42406 0.0
C300 C 0.51307 0.85721 0.37863 0.0
C301 C 0.50598 0.81316 0.41216 0.0
C302 C 0.62558 0.96346 0.35321 0.0
C303 C 0.5985 0.96307 0.33787 0.0
C304 C 0.65648 0.97518 0.3381 0.0
C305 C 0.60258 0.97366 0.30738 0.0
C306 C 0.65957 0.98556 0.30761 0.0
N307 N 0.63277 0.98455 0.29299 0.0
C308 C 0.5717 0.97506 0.42851 0.0
C309 C 0.54453 0.92406 0.45723 0.0
C310 C 0.55246 0.98694 0.44314 0.0
N311 N 0.56805 0.9446 0.43643 0.0
C312 C 0.52458 0.93484 0.47226 0.0
C313 C 0.52937 0.96719 0.46606 0.0
H314 H 0.59114 0.99104 0.4123 0.0
H315 H 0.54267 0.90022 0.46342 0.0
C316 C 0.62239 0.85624 0.35989 0.0
N317 N 0.61275 0.87957 0.35465 0.0
C318 C 0.62023 0.83428 0.33671 0.0
C319 C 0.59652 0.85949 0.30346 0.0
C320 C 0.59929 0.88117 0.32736 0.0
C321 C 0.60783 0.83626 0.30791 0.0
H322 H 0.63256 0.8553 0.38199 0.0
H323 H 0.59118 0.89947 0.32392 0.0
O324 O 0.64256 0.95714 0.45102 0.0
O325 O 0.66591 0.92299 0.40699 0.0
O326 O 0.59037 0.88673 0.42416 0.0
O327 O 0.62187 0.95318 0.38309 0.0
H328 H 0.65553 0.0206 0.45161 0.0
H329 H 0.60849 0.92631 0.50115 0.0
H330 H 0.63686 0.04567 0.49236 0.0
H331 H 0.59057 0.95302 0.54104 0.0
H332 H 0.73289 0.93333 0.32556 0.0
H333 H 0.71764 0.92672 0.4377 0.0
H334 H 0.6798 0.92663 0.34745 0.0
H335 H 0.77006 0.93319 0.41418 0.0
H336 H 0.70968 0.90952 0.52489 0.0
H337 H 0.61531 0.81642 0.51044 0.0
H338 H 0.71811 0.0878 0.39462 0.0
H339 H 0.77554 0.04936 0.44118 0.0
H340 H 0.56057 0.90375 0.38099 0.0
H341 H 0.5479 0.82393 0.44175 0.0
H342 H 0.5029 0.86613 0.3609 0.0
H343 H 0.49027 0.78763 0.42063 0.0
H344 H 0.57454 0.95455 0.34938 0.0
H345 H 0.67798 0.97666 0.34986 0.0
H346 H 0.58177 0.97327 0.29517 0.0
H347 H 0.68333 0.99459 0.29562 0.0
H348 H 0.55692 0.01205 0.4378 0.0
H349 H 0.5065 0.91859 0.48934 0.0
H350 H 0.62852 0.81618 0.34114 0.0
H351 H 0.5866 0.8615 0.28154 0.0
Li352 Li 0.0819 0.71427 0.42831 0.0
Li353 Li 0.02651 0.68767 0.39781 0.0
Li354 Li 0.05391 0.65543 0.41242 0.0
Li355 Li 0.07913 0.69832 0.37529 0.0
C356 C 0.0223 0.6568 0.46389 0.0
N357 N 0.99398 0.612 0.5121 0.0
C358 C 0.98773 0.63292 0.46387 0.0
C359 C 0.04241 0.65813 0.48855 0.0
C360 C 0.9739 0.61045 0.48844 0.0
C361 C 0.02763 0.63518 0.51267 0.0
C362 C 0.08693 0.76068 0.37542 0.0
C363 C 0.09379 0.79337 0.32982 0.0
N364 N 0.12541 0.81684 0.33917 0.0
C365 C 0.11939 0.78532 0.38472 0.0
C366 C 0.07388 0.76491 0.3479 0.0
C367 C 0.13847 0.81347 0.36604 0.0
C368 C 0.13128 0.74271 0.47429 0.0
N369 N 0.10629 0.74507 0.45964 0.0
C370 C 0.11863 0.79483 0.48769 0.0
C371 C 0.09914 0.76994 0.46629 0.0
C372 C 0.14556 0.7939 0.50232 0.0
C373 C 0.15128 0.76695 0.49601 0.0
H374 H 0.13604 0.72235 0.46865 0.0
H375 H 0.079 0.77099 0.4542 0.0
C376 C 0.95576 0.65612 0.39114 0.0
N377 N 0.98438 0.68575 0.39765 0.0
C378 C 0.92424 0.65152 0.39968 0.0
C379 C 0.95231 0.70874 0.41955 0.0
C380 C 0.98326 0.71229 0.41052 0.0
C381 C 0.92256 0.67748 0.41548 0.0
H382 H 0.95761 0.63521 0.38157 0.0
H383 H 0.0066 0.73521 0.41601 0.0
C384 C 0.1206 0.67522 0.39855 0.0
N385 N 0.1573 0.64672 0.3759 0.0
C386 C 0.10616 0.64909 0.37701 0.0
C387 C 0.15372 0.68688 0.40853 0.0
C388 C 0.12512 0.635 0.36585 0.0
C389 C 0.17186 0.67214 0.39682 0.0
C390 C 0.02067 0.64849 0.34364 0.0
C391 C 0.0188 0.62094 0.32782 0.0
C392 C 0.00842 0.66795 0.32996 0.0
C393 C 0.0051 0.61361 0.29835 0.0
C394 C 0.99485 0.65977 0.30048 0.0
N395 N 0.99352 0.63302 0.2854 0.0
C396 C 0.01118 0.58617 0.42271 0.0
C397 C 0.06412 0.60997 0.4482 0.0
C398 C -0.00105 0.55632 0.43959 0.0
N399 N 0.04288 0.61244 0.42794 0.0
C400 C 0.05299 0.58053 0.46544 0.0
C401 C 0.01961 0.55374 0.46197 0.0
H402 H 0.9947 0.58926 0.40689 0.0
H403 H 0.08895 0.63158 0.45229 0.0
C404 C 0.14049 0.73808 0.34655 0.0
N405 N 0.10777 0.71504 0.33977 0.0
C406 C 0.16334 0.75657 0.32337 0.0
C407 C 0.11931 0.72542 0.28622 0.0
C408 C 0.09706 0.70791 0.31022 0.0
C409 C 0.15259 0.75062 0.29287 0.0
H410 H 0.14844 0.7433 0.37019 0.0
H411 H 0.07115 0.68964 0.30506 0.0
O412 O 0.03651 0.67842 0.43966 0.0
O413 O 0.06818 0.73256 0.39312 0.0
O414 O 0.10276 0.68976 0.40964 0.0
O415 O 0.03363 0.65564 0.37265 0.0
H416 H 0.97182 0.63148 0.44494 0.0
H417 H 0.06923 0.67635 0.48884 0.0
H418 H 0.94723 0.5917 0.48863 0.0
H419 H 0.04294 0.6357 0.53178 0.0
H420 H 0.08409 0.79681 0.30835 0.0
H421 H 0.13005 0.78244 0.40583 0.0
H422 H 0.04873 0.74639 0.34045 0.0
H423 H 0.16374 0.83253 0.37281 0.0
H424 H 0.11359 0.81534 0.49182 0.0
H425 H 0.17143 0.76508 0.50725 0.0
H426 H 0.90173 0.62717 0.39594 0.0
H427 H 0.95199 0.7292 0.43189 0.0
H428 H 0.08065 0.63975 0.36896 0.0
H429 H 0.16532 0.70722 0.42509 0.0
H430 H 0.11425 0.61476 0.34917 0.0
H431 H 0.19753 0.68094 0.40433 0.0
H432 H 0.02781 0.60537 0.33821 0.0
H433 H 0.00942 0.68916 0.34189 0.0
H434 H 0.00361 0.59244 0.28579 0.0
H435 H 0.9854 0.6747 0.28959 0.0
H436 H 0.97304 0.53623 0.43633 0.0
H437 H 0.06989 0.57918 0.48204 0.0
H438 H 0.1889 0.77589 0.32921 0.0
H439 H 0.11024 0.72043 0.26283 0.0
Li440 Li 0.30686 0.33873 0.40363 0.0
Li441 Li 0.28359 0.36977 0.43085 0.0
Li442 Li 0.29716 0.37904 0.37592 0.0
Li443 Li 0.34175 0.39968 0.41323 0.0
C444 C 0.23869 0.30705 0.38553 0.0
N445 N 0.18859 0.24566 0.36288 0.0
C446 C 0.21463 0.28284 0.40529 0.0
C447 C 0.23679 0.30031 0.35415 0.0
C448 C 0.18965 0.25187 0.39343 0.0
C449 C 0.2114 0.26906 0.34316 0.0
C450 C 0.33254 0.37412 0.47215 0.0
C451 C 0.34566 0.415 0.51247 0.0
N452 N 0.35904 0.39943 0.52927 0.0
C453 C 0.34643 0.35854 0.48978 0.0
C454 C 0.33211 0.40257 0.48354 0.0
C455 C 0.35967 0.3717 0.51864 0.0
C456 C 0.33539 0.29712 0.39362 0.0
N457 N 0.30817 0.298 0.40528 0.0
C458 C 0.28923 0.24528 0.43085 0.0
C459 C 0.285 0.27263 0.42325 0.0
C460 C 0.31794 0.24453 0.42035 0.0
C461 C 0.34059 0.27022 0.40064 0.0
H462 H 0.35422 0.31829 0.38052 0.0
H463 H 0.2646 0.27481 0.43346 0.0
C464 C 0.24288 0.38913 0.46299 0.0
N465 N 0.25259 0.36546 0.46147 0.0
C466 C 0.21728 0.38482 0.48311 0.0
C467 C 0.21286 0.3323 0.5003 0.0
C468 C 0.23885 0.33784 0.48002 0.0
C469 C 0.20134 0.35567 0.50152 0.0
H470 H 0.25423 0.41072 0.44781 0.0
H471 H 0.24715 0.31944 0.47814 0.0
C472 C 0.34771 0.36966 0.34686 0.0
N473 N 0.36623 0.35996 0.28912 0.0
C474 C 0.37708 0.3952 0.33301 0.0
C475 C 0.32804 0.339 0.33152 0.0
C476 C 0.38594 0.38986 0.30375 0.0
C477 C 0.33775 0.33463 0.3023 0.0
C478 C 0.32149 0.44525 0.39514 0.0
C479 C 0.34444 0.45346 0.37099 0.0
C480 C 0.31307 0.46916 0.4054 0.0
C481 C 0.35858 0.48545 0.35747 0.0
C482 C 0.32777 0.50091 0.3913 0.0
N483 N 0.35003 0.50833 0.36782 0.0
C484 C 0.2509 0.38854 0.3451 0.0
C485 C 0.29357 0.39278 0.31124 0.0
C486 C 0.23392 0.39367 0.3211 0.0
N487 N 0.27994 0.38791 0.33979 0.0
C488 C 0.27718 0.39768 0.28643 0.0
C489 C 0.24697 0.39811 0.29133 0.0
H490 H 0.24075 0.38458 0.36809 0.0
H491 H 0.31688 0.39265 0.30753 0.0
C492 C 0.40774 0.42016 0.42848 0.0
N493 N 0.38571 0.43189 0.42607 0.0
C494 C 0.43855 0.43933 0.44348 0.0
C495 C 0.42404 0.48301 0.45189 0.0
C496 C 0.39332 0.46282 0.43702 0.0
C497 C 0.44657 0.47079 0.45611 0.0
H498 H 0.4005 0.39508 0.42014 0.0
H499 H 0.375 0.47117 0.4356 0.0
O500 O 0.26318 0.33759 0.39679 0.0
O501 O 0.32042 0.36212 0.4435 0.0
O502 O 0.33877 0.37458 0.3755 0.0
O503 O 0.30711 0.41398 0.40865 0.0
H504 H 0.21537 0.28782 0.42957 0.0
H505 H 0.25452 0.31905 0.33836 0.0
H506 H 0.17107 0.2328 0.40852 0.0
H507 H 0.20974 0.26347 0.31895 0.0
H508 H 0.34566 0.4371 0.52151 0.0
H509 H 0.34712 0.33661 0.48116 0.0
H510 H 0.32182 0.41521 0.47004 0.0
H511 H 0.37054 0.35992 0.53254 0.0
H512 H 0.2716 0.22624 0.44659 0.0
H513 H 0.36304 0.27043 0.39217 0.0
H514 H 0.20914 0.40344 0.48345 0.0
H515 H 0.20077 0.30916 0.5136 0.0
H516 H 0.39285 0.41893 0.34475 0.0
H517 H 0.30576 0.31867 0.3422 0.0
H518 H 0.40851 0.40947 0.2927 0.0
H519 H 0.32272 0.31106 0.29015 0.0
H520 H 0.35126 0.43539 0.36271 0.0
H521 H 0.29543 0.46333 0.4241 0.0
H522 H 0.37635 0.49208 0.33874 0.0
H523 H 0.32149 0.51965 0.39903 0.0
H524 H 0.21037 0.3933 0.32564 0.0
H525 H 0.28791 0.40105 0.26368 0.0
H526 H 0.4552 0.42899 0.44641 0.0
H527 H 0.42966 0.50746 0.46076 0.0
Li528 Li 0.92664 0.66087 0.93662 0.0
Li529 Li 0.95227 0.62443 0.92216 0.0
Li530 Li 0.97697 0.68195 0.90456 0.0
Li531 Li 0.92325 0.63982 0.88488 0.0
C532 C 0.99727 0.69087 0.96324 0.0
N533 N 0.05225 0.74301 0.99261 0.0
C534 C 0.02563 0.68791 0.97001 0.0
C535 C 0.99669 0.72015 0.97169 0.0
C536 C 0.05322 0.71462 0.9848 0.0
C537 C 0.02479 0.74628 0.98645 0.0
C538 C 0.87197 0.58666 0.91851 0.0
C539 C 0.83313 0.52827 0.90563 0.0
N540 N 0.80668 0.53369 0.91002 0.0
C541 C 0.84435 0.59141 0.92351 0.0
C542 C 0.86629 0.55465 0.91004 0.0
C543 C 0.81156 0.56443 0.91884 0.0
C544 C 0.88223 0.68132 0.95683 0.0
N545 N 0.90323 0.67032 0.96684 0.0
C546 C 0.88475 0.66797 0.01843 0.0
C547 C 0.90535 0.66411 0.99696 0.0
C548 C 0.86188 0.67805 0.00848 0.0
C549 C 0.86118 0.68536 0.97738 0.0
H550 H 0.88089 0.68559 0.93267 0.0
H551 H 0.9222 0.65513 0.00409 0.0
C552 C 0.99422 0.59709 0.93302 0.0
N553 N 0.96279 0.59247 0.93811 0.0
C554 C 0.00444 0.57655 0.9477 0.0
C555 C 0.94964 0.54678 0.97242 0.0
C556 C 0.94046 0.5679 0.95722 0.0
C557 C 0.98213 0.55126 0.96794 0.0
H558 H 0.01176 0.61753 0.91842 0.0
H559 H 0.91601 0.56555 0.96151 0.0
C560 C 0.94 0.70603 0.87298 0.0
N561 N 0.94528 0.74335 0.8213 0.0
C562 C 0.95873 0.70573 0.8477 0.0
C563 C 0.92399 0.72535 0.87193 0.0
C564 C 0.96109 0.72477 0.82181 0.0
C565 C 0.92695 0.74403 0.84561 0.0
C566 C 0.97187 0.61847 0.8639 0.0
C567 C 0.00398 0.62622 0.85357 0.0
C568 C 0.94415 0.58637 0.85833 0.0
C569 C 0.00783 0.60155 0.83803 0.0
C570 C 0.949 0.56239 0.84268 0.0
N571 N 0.98049 0.5704 0.83297 0.0
C572 C 0.04713 0.71684 0.89985 0.0
C573 C 0.02301 0.75242 0.90107 0.0
C574 C 0.0792 0.74435 0.90564 0.0
N575 N 0.01979 0.7212 0.89894 0.0
C576 C 0.0547 0.78071 0.90652 0.0
C577 C 0.083 0.77656 0.9103 0.0
H578 H 0.04353 0.69154 0.89924 0.0
H579 H 0.00073 0.75503 0.90122 0.0
C580 C 0.8666 0.6325 0.85652 0.0
N581 N 0.89329 0.62778 0.85104 0.0
C582 C 0.84427 0.62857 0.83313 0.0
C583 C 0.87743 0.61534 0.79847 0.0
C584 C 0.89921 0.61948 0.82268 0.0
C585 C 0.84993 0.62052 0.80356 0.0
H586 H 0.86347 0.64072 0.87887 0.0
H587 H 0.92145 0.61743 0.81848 0.0
O588 O 0.97045 0.66548 0.94792 0.0
O589 O 0.90427 0.61278 0.92319 0.0
O590 O 0.93638 0.68676 0.89828 0.0
O591 O 0.96783 0.64205 0.87988 0.0
H592 H 0.02647 0.66542 0.96357 0.0
H593 H 0.97497 0.72287 0.96645 0.0
H594 H 0.07547 0.71283 0.98996 0.0
H595 H 0.02485 0.76923 0.99286 0.0
H596 H 0.82841 0.50344 0.8989 0.0
H597 H 0.84815 0.61574 0.93075 0.0
H598 H 0.8872 0.55003 0.90721 0.0
H599 H 0.79 0.56791 0.92232 0.0
H600 H 0.88557 0.6617 0.04221 0.0
H601 H 0.8438 0.69317 0.96895 0.0
H602 H 0.02973 0.5808 0.94375 0.0
H603 H 0.93204 0.5281 0.98842 0.0
H604 H 0.9712 0.69087 0.84791 0.0
H605 H 0.90931 0.72582 0.89121 0.0
H606 H 0.97544 0.7247 0.80209 0.0
H607 H 0.91463 0.75903 0.84448 0.0
H608 H 0.02574 0.65098 0.85759 0.0
H609 H 0.91913 0.58023 0.86567 0.0
H610 H 0.03256 0.60717 0.83 0.0
H611 H 0.92771 0.53744 0.8382 0.0
H612 H 0.10007 0.73979 0.90927 0.0
H613 H 0.05662 0.80514 0.91005 0.0
H614 H 0.82324 0.6326 0.83797 0.0
H615 H 0.88278 0.60956 0.77579 0.0
Li616 Li 0.33243 0.29854 0.91195 0.0
Li617 Li 0.39141 0.32441 0.92424 0.0
Li618 Li 0.36504 0.27846 0.8857 0.0
Li619 Li 0.35255 0.26639 0.94187 0.0
C620 C 0.36377 0.34073 0.86146 0.0
N621 N 0.34843 0.37278 0.81574 0.0
C622 C 0.36969 0.37365 0.86588 0.0
C623 C 0.35046 0.32432 0.83362 0.0
C624 C 0.36167 0.38937 0.84253 0.0
C625 C 0.34273 0.34088 0.81085 0.0
C626 C 0.3569 0.33329 0.97155 0.0
C627 C 0.36742 0.35864 0.02172 0.0
N628 N 0.3676 0.38619 0.00954 0.0
C629 C 0.35699 0.36174 0.95956 0.0
C630 C 0.36198 0.33158 0.00289 0.0
C631 C 0.3625 0.38826 0.97913 0.0
C632 C 0.27629 0.2931 0.93907 0.0
N633 N 0.29455 0.30568 0.91293 0.0
C634 C 0.25974 0.32867 0.89787 0.0
C635 C 0.28622 0.32235 0.89193 0.0
C636 C 0.24164 0.3173 0.92543 0.0
C637 C 0.2496 0.29858 0.94579 0.0
H638 H 0.2832 0.27957 0.95518 0.0
H639 H 0.3002 0.33119 0.87084 0.0
C640 C 0.44186 0.39452 0.92404 0.0
N641 N 0.42906 0.36444 0.93898 0.0
C642 C 0.46334 0.42469 0.93937 0.0
C643 C 0.4593 0.39195 0.98439 0.0
C644 C 0.43833 0.3625 0.96812 0.0
C645 C 0.47123 0.42348 0.97023 0.0
H646 H 0.43399 0.39524 0.90087 0.0
H647 H 0.42745 0.33814 0.97938 0.0
C648 C 0.28728 0.23372 0.89879 0.0
N649 N 0.21935 0.20091 0.88356 0.0
C650 C 0.26389 0.2056 0.91562 0.0
C651 C 0.27616 0.24462 0.87374 0.0
C652 C 0.22965 0.18947 0.90768 0.0
C653 C 0.24171 0.2279 0.86656 0.0
C654 C 0.40644 0.25994 0.9173 0.0
C655 C 0.38189 0.22612 0.91203 0.0
C656 C 0.44055 0.26904 0.91896 0.0
C657 C 0.39195 0.20196 0.90855 0.0
C658 C 0.44958 0.24411 0.91539 0.0
N659 N 0.4253 0.21138 0.91029 0.0
C660 C 0.40317 0.26646 0.84054 0.0
C661 C 0.34345 0.23371 0.83611 0.0
C662 C 0.4072 0.24768 0.81721 0.0
N663 N 0.3716 0.25871 0.84982 0.0
C664 C 0.34629 0.21467 0.81261 0.0
C665 C 0.37841 0.22083 0.80354 0.0
H666 H 0.42515 0.28628 0.85207 0.0
H667 H 0.3187 0.22785 0.84397 0.0
C668 C 0.3118 0.22136 0.98798 0.0
N669 N 0.34335 0.23671 0.97552 0.0
C670 C 0.3031 0.19711 0.01097 0.0
C671 C 0.36045 0.20728 0.00975 0.0
C672 C 0.36799 0.23126 0.9868 0.0
C673 C 0.32737 0.18912 0.02138 0.0
H674 H 0.29321 0.2275 0.97962 0.0
H675 H 0.39333 0.24492 0.97758 0.0
O676 O 0.3721 0.32516 0.88381 0.0
O677 O 0.35273 0.30755 0.95265 0.0
O678 O 0.32094 0.24997 0.90638 0.0
O679 O 0.39738 0.28425 0.92015 0.0
H680 H 0.38007 0.38687 0.88718 0.0
H681 H 0.34615 0.29908 0.82957 0.0
H682 H 0.36591 0.41474 0.84573 0.0
H683 H 0.33227 0.3284 0.78926 0.0
H684 H 0.37161 0.35779 0.04599 0.0
H685 H 0.35312 0.36343 0.93537 0.0
H686 H 0.36209 0.30973 0.01247 0.0
H687 H 0.36281 0.41051 0.97014 0.0
H688 H 0.25385 0.34274 0.88142 0.0
H689 H 0.23626 0.28951 0.96734 0.0
H690 H 0.47202 0.44869 0.92787 0.0
H691 H 0.46503 0.3902 0.00816 0.0
H692 H 0.27207 0.19595 0.93433 0.0
H693 H 0.2939 0.26604 0.86021 0.0
H694 H 0.21128 0.16775 0.9206 0.0
H695 H 0.23278 0.23637 0.84746 0.0
H696 H 0.35537 0.21856 0.91058 0.0
H697 H 0.45985 0.29514 0.92288 0.0
H698 H 0.37324 0.17573 0.90443 0.0
H699 H 0.47589 0.2508 0.91662 0.0
H700 H 0.43241 0.2533 0.81069 0.0
H701 H 0.32348 0.19488 0.80199 0.0
H702 H 0.27753 0.18418 0.01998 0.0
H703 H 0.37992 0.20196 0.01735 0.0
Li704 Li 0.71639 0.07801 0.88957 0.0
Li705 Li 0.72569 0.08242 0.94485 0.0
Li706 Li 0.69832 0.02667 0.92021 0.0
Li707 Li 0.66903 0.05753 0.92637 0.0
C708 C 0.76682 0.05362 0.91927 0.0
N709 N 0.80996 0.0288 0.93112 0.0
C710 C 0.77458 0.04982 0.94944 0.0
C711 C 0.7812 0.04493 0.89512 0.0
C712 C 0.79638 0.03719 0.95496 0.0
C713 C 0.8029 0.03239 0.90159 0.0
C714 C 0.72296 0.13704 0.92972 0.0
C715 C 0.7356 0.1781 0.96982 0.0
N716 N 0.7597 0.20254 0.9517 0.0
C717 C 0.74771 0.16264 0.91142 0.0
C718 C 0.71666 0.14488 0.95908 0.0
C719 C 0.76604 0.19557 0.92297 0.0
C720 C 0.71876 0.11044 0.83314 0.0
N721 N 0.73624 0.10183 0.85286 0.0
C722 C 0.78687 0.13282 0.82358 0.0
C723 C 0.76961 0.11255 0.84861 0.0
C724 C 0.76971 0.14247 0.80288 0.0
C725 C 0.73515 0.13098 0.80783 0.0
H726 H 0.69238 0.10208 0.83754 0.0
H727 H 0.78302 0.10594 0.86506 0.0
C728 C 0.75313 0.10533 0.00497 0.0
N729 N 0.75816 0.1104 0.97427 0.0
C730 C 0.77802 0.12733 0.02539 0.0
C731 C 0.81271 0.15869 0.98208 0.0
C732 C 0.78746 0.13595 0.9626 0.0
C733 C 0.80793 0.15465 0.01384 0.0
H734 H 0.72995 0.08422 0.01356 0.0
H735 H 0.79101 0.13873 0.93806 0.0
C736 C 0.66844 0.01669 0.86209 0.0
N737 N 0.66209 0.98125 0.80882 0.0
C738 C 0.63642 0.99518 0.84978 0.0
C739 C 0.69722 0.02027 0.84726 0.0
C740 C 0.63373 0.97742 0.82286 0.0
C741 C 0.6935 0.00215 0.82036 0.0
C742 C 0.6599 0.02603 0.97882 0.0
C743 C 0.63585 0.99161 0.97619 0.0
C744 C 0.6556 0.04566 0.00103 0.0
C745 C 0.60786 0.97747 0.9958 0.0
C746 C 0.6272 0.03059 0.02013 0.0
N747 N 0.60412 0.99709 0.01714 0.0
C748 C 0.70117 0.97766 0.95359 0.0
C749 C 0.68021 0.95722 0.90381 0.0
C750 C 0.69448 0.94573 0.96278 0.0
N751 N 0.69346 0.98278 0.92476 0.0
C752 C 0.67327 0.92468 0.91206 0.0
C753 C 0.67971 0.91868 0.94212 0.0
H754 H 0.71095 0.9981 0.97002 0.0
H755 H 0.67365 0.96146 0.8812 0.0
C756 C 0.62063 0.07347 0.95044 0.0
N757 N 0.62509 0.05022 0.93479 0.0
C758 C 0.58915 0.06427 0.96331 0.0
C759 C 0.56706 0.00823 0.94178 0.0
C760 C 0.59891 0.01851 0.92932 0.0
C761 C 0.56221 0.03097 0.95979 0.0
H762 H 0.64193 0.09841 0.95457 0.0
H763 H 0.60347 0.00041 0.9173 0.0
O764 O 0.74521 0.06564 0.91335 0.0
O765 O 0.70527 0.10446 0.91907 0.0
O766 O 0.6714 0.03442 0.88829 0.0
O767 O 0.68707 0.04057 0.95931 0.0
H768 H 0.76344 0.05592 0.96847 0.0
H769 H 0.77579 0.04784 0.87159 0.0
H770 H 0.80238 0.03393 0.97821 0.0
H771 H 0.81414 0.02553 0.88311 0.0
H772 H 0.73126 0.18441 0.99263 0.0
H773 H 0.75294 0.15716 0.88864 0.0
H774 H 0.69793 0.12538 0.97372 0.0
H775 H 0.78539 0.21557 0.90912 0.0
H776 H 0.81345 0.14102 0.82052 0.0
H777 H 0.72118 0.13846 0.7928 0.0
H778 H 0.77387 0.12336 0.04983 0.0
H779 H 0.83587 0.17911 0.97246 0.0
H780 H 0.61388 0.99223 0.86091 0.0
H781 H 0.7221 0.03666 0.8565 0.0
H782 H 0.60911 0.96064 0.8131 0.0
H783 H 0.71558 0.00464 0.80869 0.0
H784 H 0.63832 0.97608 0.95882 0.0
H785 H 0.67362 0.07241 0.00314 0.0
H786 H 0.58896 0.95094 0.99387 0.0
H787 H 0.62341 0.04557 0.03721 0.0
H788 H 0.69976 0.94194 0.98617 0.0
H789 H 0.66152 0.90417 0.89567 0.0
H790 H 0.58627 0.08251 0.97697 0.0
H791 H 0.54715 0.98215 0.93905 0.0
Li792 Li 0.35251 0.0795 0.55899 0.0
Li793 Li 0.36147 0.07598 0.61381 0.0
Li794 Li 0.38449 0.05352 0.57448 0.0
Li795 Li 0.32484 0.02456 0.58516 0.0
C796 C 0.41216 0.1334 0.57091 0.0
N797 N 0.44193 0.19868 0.5482 0.0
C798 C 0.41549 0.15985 0.58953 0.0
C799 C 0.42422 0.14022 0.54079 0.0
C800 C 0.4306 0.19267 0.57762 0.0
C801 C 0.43907 0.17336 0.52971 0.0
C802 C 0.28446 0.05244 0.58945 0.0
C803 C 0.22813 0.02771 0.61085 0.0
N804 N 0.21566 0.02773 0.58262 0.0
C805 C 0.27096 0.05229 0.56067 0.0
C806 C 0.26277 0.04012 0.61479 0.0
C807 C 0.23619 0.03968 0.55768 0.0
C808 C 0.34374 0.09938 0.49917 0.0
N809 N 0.34749 0.10718 0.52951 0.0
C810 C 0.34411 0.15691 0.52027 0.0
C811 C 0.34701 0.13486 0.54038 0.0
C812 C 0.34089 0.1499 0.48882 0.0
C813 C 0.34019 0.12053 0.47821 0.0
H814 H 0.34318 0.07664 0.49131 0.0
H815 H 0.34906 0.13981 0.56472 0.0
C816 C 0.39852 0.11282 0.66665 0.0
N817 N 0.3687 0.09974 0.65119 0.0
C818 C 0.40361 0.13218 0.69308 0.0
C819 C 0.34701 0.12339 0.6873 0.0
C820 C 0.34328 0.10486 0.66083 0.0
C821 C 0.37748 0.13737 0.70358 0.0
H822 H 0.41847 0.10872 0.65812 0.0
H823 H 0.32024 0.09493 0.64769 0.0
C824 C 0.35608 0.01992 0.52408 0.0
N825 N 0.37666 0.9868 0.4839 0.0
C826 C 0.34406 0.98521 0.52739 0.0
C827 C 0.37852 0.03773 0.50026 0.0
C828 C 0.35471 0.96893 0.50682 0.0
C829 C 0.38868 0.02055 0.48024 0.0
C830 C 0.35107 0.01512 0.6411 0.0
C831 C 0.36499 0.99589 0.65197 0.0
C832 C 0.32644 0.01727 0.65839 0.0
C833 C 0.35372 0.97886 0.67987 0.0
C834 C 0.31587 -7e-05 0.6862 0.0
N835 N 0.32959 0.98121 0.69627 0.0
C836 C 0.44568 0.06623 0.54521 0.0
C837 C 0.41354 0.01277 0.56938 0.0
C838 C 0.46647 0.05567 0.53137 0.0
N839 N 0.41928 0.04441 0.56306 0.0
C840 C 0.43386 0.0013 0.55629 0.0
C841 C 0.46014 0.02261 0.53643 0.0
H842 H 0.44948 0.0911 0.54036 0.0
H843 H 0.3918 0.99572 0.583 0.0
C844 C 0.26743 0.97667 0.55699 0.0
N845 N 0.2853 0.98104 0.58312 0.0
C846 C 0.24168 0.94467 0.54858 0.0
C847 C 0.25245 0.92188 0.59444 0.0
C848 C 0.27801 0.95459 0.60215 0.0
C849 C 0.23467 0.91686 0.56702 0.0
H850 H 0.27484 0.99766 0.54148 0.0
H851 H 0.2932 0.95825 0.62222 0.0
O852 O 0.39692 0.10099 0.58202 0.0
O853 O 0.31858 0.06463 0.59283 0.0
O854 O 0.34659 0.03653 0.54443 0.0
O855 O 0.36198 0.0321 0.61391 0.0
H856 H 0.40626 0.1551 0.61284 0.0
H857 H 0.42134 0.12003 0.52587 0.0
H858 H 0.4332 0.21335 0.59173 0.0
H859 H 0.44814 0.17891 0.50635 0.0
H860 H 0.21116 0.01808 0.63028 0.0
H861 H 0.28686 0.061 0.54062 0.0
H862 H 0.27234 0.04009 0.63736 0.0
H863 H 0.2255 0.03922 0.53547 0.0
H864 H 0.34403 0.17907 0.52919 0.0
H865 H 0.33728 0.11429 0.45407 0.0
H866 H 0.42748 0.14287 0.70518 0.0
H867 H 0.32655 0.12733 0.69471 0.0
H868 H 0.32715 0.97102 0.54591 0.0
H869 H 0.38854 0.06467 0.4976 0.0
H870 H 0.3457 0.94213 0.50921 0.0
H871 H 0.40628 0.0341 0.4619 0.0
H872 H 0.38431 0.99416 0.63901 0.0
H873 H 0.31563 0.03212 0.65036 0.0
H874 H 0.36421 0.96381 0.68852 0.0
H875 H 0.29675 0.00137 0.69976 0.0
H876 H 0.48658 0.07273 0.51614 0.0
H877 H 0.42792 0.97544 0.56027 0.0
H878 H 0.22886 0.94131 0.5269 0.0
H879 H 0.24796 0.9006 0.60871 0.0
Li880 Li 0.96618 0.29878 0.58476 0.0
Li881 Li 0.93637 0.32923 0.5779 0.0
Li882 Li 0.91477 0.28195 0.61508 0.0
Li883 Li 0.91047 0.27238 0.55964 0.0
C884 C 0.97622 0.32972 0.64271 0.0
N885 N 0.01116 0.33639 0.69628 0.0
C886 C 0.99612 0.36166 0.65588 0.0
C887 C 0.974 0.3012 0.65682 0.0
C888 C 0.01364 0.36451 0.68295 0.0
C889 C 0.99185 0.30507 0.68388 0.0
C890 C 0.96903 0.33703 0.5258 0.0
C891 C 0.96727 0.37009 0.48345 0.0
N892 N 0.00099 0.39201 0.48685 0.0
C893 C 0.0037 0.35988 0.52882 0.0
C894 C 0.95067 0.34213 0.50288 0.0
C895 C 0.01939 0.3875 0.50891 0.0
C896 C 0.01277 0.28973 0.55362 0.0
N897 N 0.00956 0.30276 0.58056 0.0
C898 C 0.06912 0.32852 0.58962 0.0
C899 C 0.03682 0.32145 0.59888 0.0
C900 C 0.07309 0.31635 0.56128 0.0
C901 C 0.04428 0.29587 0.54369 0.0
H902 H 0.99115 0.2765 0.53876 0.0
H903 H 0.03405 0.33264 0.61966 0.0
C904 C 0.92198 0.37736 0.55137 0.0
N905 N 0.94461 0.37328 0.56838 0.0
C906 C 0.93191 0.40825 0.53694 0.0
C907 C 0.98726 0.43082 0.55997 0.0
C908 C 0.97633 0.39945 0.57381 0.0
C909 C 0.96525 0.43503 0.54044 0.0
H910 H 0.89705 0.35606 0.54725 0.0
H911 H 0.99397 0.39517 0.58688 0.0
C912 C 0.93489 0.22796 0.58744 0.0
N913 N 0.95156 0.17782 0.57962 0.0
C914 C 0.93743 0.21729 0.55804 0.0
C915 C 0.94036 0.2127 0.61289 0.0
C916 C 0.94603 0.19205 0.55455 0.0
C917 C 0.94888 0.18752 0.60846 0.0
C918 C 0.85648 0.27672 0.57452 0.0
C919 C 0.83022 0.2536 0.59332 0.0
C920 C 0.84926 0.28228 0.54468 0.0
C921 C 0.79726 0.23605 0.5818 0.0
C922 C 0.81599 0.26416 0.53399 0.0
N923 N 0.7909 0.2416 0.55261 0.0
C924 C 0.88765 0.27884 0.6754 0.0
C925 C 0.8747 0.22705 0.6514 0.0
C926 C 0.86718 0.26127 0.70047 0.0
N927 N 0.89076 0.26143 0.65152 0.0
C928 C 0.85424 0.2086 0.67588 0.0
C929 C 0.84978 0.22565 0.70059 0.0
H930 H 0.90056 0.30622 0.67472 0.0
H931 H 0.87729 0.21389 0.63192 0.0
C932 C 0.88986 0.24555 0.49937 0.0
N933 N 0.8828 0.2404 0.5298 0.0
C934 C 0.86867 0.22122 0.47817 0.0
C935 C 0.83387 0.18677 0.5202 0.0
C936 C 0.85584 0.21152 0.54051 0.0
C937 C 0.84008 0.19166 0.48863 0.0
H938 H 0.91205 0.26833 0.49159 0.0
H939 H 0.85144 0.20783 0.56491 0.0
O940 O 0.95893 0.32661 0.61624 0.0
O941 O 0.95303 0.31022 0.54552 0.0
O942 O 0.92623 0.25252 0.59138 0.0
O943 O 0.88903 0.29369 0.58524 0.0
H944 H 0.99804 0.384 0.64526 0.0
H945 H 0.95875 0.27642 0.64692 0.0
H946 H 0.0292 0.38907 0.69337 0.0
H947 H 0.99038 0.28318 0.69502 0.0
H948 H 0.9533 0.37447 0.4658 0.0
H949 H 0.01831 0.35672 0.54665 0.0
H950 H 0.92374 0.32505 0.50046 0.0
H951 H 0.04615 0.40546 0.51111 0.0
H952 H 0.09089 0.345 0.6035 0.0
H953 H 0.04635 0.28614 0.52164 0.0
H954 H 0.91427 0.41071 0.52207 0.0
H955 H 0.01332 0.45075 0.5628 0.0
H956 H 0.93328 0.22864 0.53803 0.0
H957 H 0.93782 0.21994 0.63588 0.0
H958 H 0.94833 0.1838 0.5319 0.0
H959 H 0.95326 0.1756 0.62796 0.0
H960 H 0.83519 0.24918 0.61655 0.0
H961 H 0.86927 0.29973 0.52966 0.0
H962 H 0.77675 0.21798 0.59607 0.0
H963 H 0.81014 0.26791 0.51082 0.0
H964 H 0.86446 0.27528 0.71923 0.0
H965 H 0.84203 0.18122 0.67545 0.0
H966 H 0.87439 0.22545 0.45395 0.0
H967 H 0.81252 0.16381 0.52907 0.0
Li968 Li 0.71412 0.63202 0.61723 0.0
Li969 Li 0.70352 0.67457 0.59628 0.0
Li970 Li 0.67088 0.61654 0.57858 0.0
Li971 Li 0.7338 0.65152 0.56581 0.0
C972 C 0.64352 0.61209 0.63656 0.0
N973 N 0.58627 0.56697 0.66879 0.0
C974 C 0.61609 0.6176 0.63919 0.0
C975 C 0.64184 0.58368 0.6505 0.0
C976 C 0.58735 0.59446 0.6555 0.0
C977 C 0.6127 0.56118 0.66667 0.0
C978 C 0.76674 0.69328 0.62951 0.0
C979 C 0.81682 0.7108 0.66008 0.0
N980 N 0.80238 0.71909 0.68329 0.0
C981 C 0.75243 0.70203 0.65366 0.0
C982 C 0.79924 0.69779 0.63269 0.0
C983 C 0.77086 0.71504 0.68066 0.0
C984 C 0.75577 0.61311 0.64812 0.0
N985 N 0.7303 0.61999 0.65251 0.0
C986 C 0.73751 0.62105 0.70671 0.0
C987 C 0.7208 0.6238 0.68109 0.0
C988 C 0.76443 0.61478 0.70271 0.0
C989 C 0.77303 0.60999 0.67306 0.0
H990 H 0.76417 0.61221 0.62521 0.0
H991 H 0.70144 0.63067 0.68392 0.0
C992 C 0.66847 0.70962 0.59604 0.0
N993 N 0.69986 0.71397 0.60044 0.0
C994 C 0.66449 0.73737 0.58983 0.0
C995 C 0.72492 0.77393 0.59573 0.0
C996 C 0.72781 0.74532 0.60138 0.0
C997 C 0.69313 0.76989 0.58826 0.0
H998 H 0.64694 0.68432 0.5944 0.0
H999 H 0.75256 0.74797 0.60431 0.0
C1000 C 0.7051 0.57383 0.58493 0.0
N1001 N 0.70159 0.51216 0.59412 0.0
C1002 C 0.73261 0.56969 0.57734 0.0
C1003 C 0.67553 0.54636 0.5965 0.0
C1004 C 0.73044 0.53839 0.58236 0.0
C1005 C 0.67432 0.51545 0.60117 0.0
C1006 C 0.69708 0.68403 0.53666 0.0
C1007 C 0.6673 0.68268 0.52672 0.0
C1008 C 0.72835 0.71281 0.53057 0.0
C1009 C 0.66933 0.71027 0.51091 0.0
C1010 C 0.72931 0.73984 0.51464 0.0
N1011 N 0.70002 0.73804 0.50526 0.0
C1012 C 0.60176 0.56041 0.57472 0.0
C1013 C 0.62857 0.58977 0.52911 0.0
C1014 C 0.57169 0.54014 0.55884 0.0
N1015 N 0.62926 0.58504 0.55976 0.0
C1016 C 0.59901 0.57042 0.51245 0.0
C1017 C 0.56991 0.54558 0.52741 0.0
H1018 H 0.60291 0.55645 0.59889 0.0
H1019 H 0.65093 0.60908 0.51762 0.0
C1020 C 0.79514 0.65946 0.54589 0.0
N1021 N 0.76651 0.65856 0.536 0.0
C1022 C 0.81921 0.66177 0.52491 0.0
C1023 C 0.7841 0.66269 0.48386 0.0
C1024 C 0.76055 0.6602 0.50572 0.0
C1025 C 0.81353 0.66288 0.49347 0.0
H1026 H 0.79876 0.65741 0.57007 0.0
H1027 H 0.73722 0.65886 0.49855 0.0
O1028 O 0.67196 0.63477 0.62088 0.0
O1029 O 0.7485 0.67928 0.60337 0.0
O1030 O 0.7067 0.60422 0.57985 0.0
O1031 O 0.69562 0.65773 0.55302 0.0
H1032 H 0.6169 0.63948 0.62877 0.0
H1033 H 0.66262 0.5788 0.6487 0.0
H1034 H 0.56593 0.59839 0.65762 0.0
H1035 H 0.61108 0.53905 0.67746 0.0
H1036 H 0.8419 0.71423 0.66292 0.0
H1037 H 0.72709 0.6982 0.65181 0.0
H1038 H 0.8107 0.69106 0.61434 0.0
H1039 H 0.75999 0.72169 0.69959 0.0
H1040 H 0.73027 0.62494 0.72933 0.0
H1041 H 0.79412 0.60581 0.66914 0.0
H1042 H 0.63958 0.73301 0.58384 0.0
H1043 H 0.74753 0.79867 0.59537 0.0
H1044 H 0.75549 0.59049 0.56784 0.0
H1045 H 0.65365 0.54874 0.60159 0.0
H1046 H 0.75166 0.53495 0.57685 0.0
H1047 H 0.65163 0.49405 0.61028 0.0
H1048 H 0.64285 0.66078 0.53158 0.0
H1049 H 0.75161 0.71445 0.53846 0.0
H1050 H 0.64649 0.70969 0.50327 0.0
H1051 H 0.75332 0.76234 0.50991 0.0
H1052 H 0.5501 0.52049 0.57104 0.0
H1053 H 0.59874 0.57536 0.48823 0.0
H1054 H 0.8419 0.66236 0.53314 0.0
H1055 H 0.77898 0.66349 0.45976 0.0
C1056 C 0.16258 0.31089 0.95996 0.0
C1057 C 0.17188 0.34508 0.96385 0.0
C1058 C 0.18452 0.30193 0.94571 0.0
C1059 C 0.21629 0.32685 0.9346 0.0
H1060 H 0.13911 0.291 0.9696 0.0
H1061 H 0.17721 0.27539 0.94454 0.0
S1062 S 0.25081 0.41974 0.9362 0.0
N1063 N 0.21349 0.40379 0.95309 0.0
N1064 N 0.25491 0.38696 0.92644 0.0
C1065 C 0.22493 0.36101 0.93659 0.0
C1066 C 0.20268 0.37013 0.95125 0.0
C1067 C 0.63852 0.84068 0.99203 0.0
C1068 C 0.65151 0.82073 0.98034 0.0
C1069 C 0.64702 0.87184 0.97879 0.0
C1070 C 0.66862 0.8841 0.95324 0.0
H1071 H 0.62277 0.83285 0.01237 0.0
H1072 H 0.63722 0.88686 0.98905 0.0
S1073 S 0.70729 0.84051 0.91248 0.0
N1074 N 0.68548 0.81447 0.94067 0.0
N1075 N 0.70144 0.87336 0.91567 0.0
C1076 C 0.68067 0.86387 0.94047 0.0
C1077 C 0.67221 0.83214 0.95412 0.0
C1078 C 0.14016 0.84162 0.96824 0.0
C1079 C 0.17252 0.8478 0.95983 0.0
C1080 C 0.11162 0.81996 0.951 0.0
C1081 C 0.11433 0.80373 0.92461 0.0
H1082 H 0.1366 0.85225 0.98916 0.0
H1083 H 0.08705 0.81454 0.95941 0.0
S1084 S 0.19399 0.81523 0.89061 0.0
N1085 N 0.20623 0.83867 0.92193 0.0
N1086 N 0.15239 0.798 0.88922 0.0
C1087 C 0.14678 0.81114 0.91503 0.0
C1088 C 0.17591 0.83315 0.93271 0.0
C1089 C 0.66233 0.80228 0.58277 0.0
C1090 C 0.68988 0.798 0.57468 0.0
C1091 C 0.65485 0.82398 0.5661 0.0
C1092 C 0.67492 0.84247 0.54104 0.0
H1093 H 0.64563 0.7877 0.60136 0.0
H1094 H 0.6326 0.8255 0.5722 0.0
S1095 S 0.75008 0.84103 0.51066 0.0
N1096 N 0.73751 0.81467 0.53998 0.0
N1097 N 0.72378 0.85598 0.50927 0.0
C1098 C 0.70339 0.83974 0.53357 0.0
C1099 C 0.71085 0.81742 0.55028 0.0
C1100 C 0.15636 0.83545 0.54449 0.0
C1101 C 0.16907 0.82251 0.52202 0.0
C1102 C 0.178 0.86519 0.56057 0.0
C1103 C 0.21291 0.8827 0.55466 0.0
H1104 H 0.1294 0.82302 0.54901 0.0
H1105 H 0.16728 0.87527 0.57678 0.0
S1106 S 0.25902 0.85976 0.49857 0.0
N1107 N 0.21903 0.82972 0.49505 0.0
N1108 N 0.25951 0.88528 0.52567 0.0
C1109 C 0.22609 0.86957 0.53312 0.0
C1110 C 0.20421 0.83948 0.51672 0.0
C1111 C 0.11364 0.34105 0.51798 0.0
C1112 C 0.107 0.32795 0.54792 0.0
C1113 C 0.14452 0.35069 0.50366 0.0
C1114 C 0.17016 0.34774 0.5187 0.0
H1115 H 0.09461 0.34361 0.50534 0.0
H1116 H 0.14794 0.35965 0.48024 0.0
S1117 S 0.16626 0.31679 0.59797 0.0
N1118 N 0.1289 0.31359 0.59265 0.0
N1119 N 0.18758 0.33234 0.56579 0.0
C1120 C 0.16429 0.33553 0.54898 0.0
C1121 C 0.13264 0.32566 0.56363 0.0
C1122 C 0.77722 0.65976 0.03978 0.0
C1123 C 0.78574 0.67905 0.06683 0.0
C1124 C 0.80208 0.65929 0.02147 0.0
C1125 C 0.83645 0.67798 0.02952 0.0
H1126 H 0.75115 0.6457 0.03213 0.0
H1127 H 0.79435 0.64439 0.00063 0.0
S1128 S 0.87207 0.73145 0.09861 0.0
N1129 N 0.83083 0.71646 0.10135 0.0
N1130 N 0.87788 0.71554 0.06667 0.0
C1131 C 0.84539 0.6967 0.05687 0.0
C1132 C 0.81997 0.69737 0.07552 0.0
C1133 C 0.33825 0.16329 0.06745 0.0
C1134 C 0.31791 0.15995 0.04202 0.0
C1135 C 0.33323 0.13483 0.08403 0.0
C1136 C 0.30776 0.10204 0.07571 0.0
H1137 H 0.35898 0.18797 0.07383 0.0
H1138 H 0.35029 0.13834 0.10271 0.0
S1139 S 0.24754 0.07985 0.01105 0.0
N1140 N 0.27091 0.12152 0.00973 0.0
N1141 N 0.2616 0.06803 0.04066 0.0
C1142 C 0.28632 0.09856 0.05114 0.0
C1143 C 0.29137 0.12753 0.03434 0.0
C1144 C 0.87996 0.19071 0.07079 0.0
C1145 C 0.89327 0.22582 0.06747 0.0
C1146 C 0.85091 0.16752 0.05471 0.0
C1147 C 0.83472 0.17882 0.03447 0.0
H1148 H 0.89275 0.18121 0.08512 0.0
H1149 H 0.8421 0.1407 0.0569 0.0
S1150 S 0.85846 0.26785 0.01878 0.0
N1151 N 0.88718 0.27061 0.04339 0.0
N1152 N 0.83263 0.22695 0.01326 0.0
C1153 C 0.84692 0.21372 0.03192 0.0
C1154 C 0.87621 0.23727 0.04842 0.0
C1155 C 0.30765 0.16202 0.4507 0.0
C1156 C 0.3376 0.17315 0.46754 0.0
C1157 C 0.30198 0.18507 0.43414 0.0
C1158 C 0.32634 0.21978 0.43358 0.0
H1159 H 0.28784 0.13569 0.45158 0.0
H1160 H 0.278 0.17591 0.4225 0.0
S1161 S 0.40989 0.26082 0.47234 0.0
N1162 N 0.39256 0.22034 0.48137 0.0
N1163 N 0.3821 0.26377 0.45028 0.0
C1164 C 0.35707 0.2308 0.44916 0.0
C1165 C 0.36264 0.20743 0.46618 0.0
C1166 C 0.83023 0.14999 0.44718 0.0
C1167 C 0.8173 0.16508 0.46704 0.0
C1168 C 0.80842 0.12116 0.43013 0.0
C1169 C 0.77308 0.1069 0.43209 0.0
H1170 H 0.85723 0.15944 0.44607 0.0
H1171 H 0.81916 0.10918 0.4162 0.0
S1172 S 0.72699 0.1388 0.47901 0.0
N1173 N 0.76738 0.1653 0.48618 0.0
N1174 N 0.72631 0.11101 0.45433 0.0
C1175 C 0.76002 0.12291 0.45065 0.0
C1176 C 0.78217 0.15204 0.46812 0.0
C1177 C 0.87922 0.69346 0.43013 0.0
C1178 C 0.89141 0.67061 0.43203 0.0
C1179 C 0.85284 0.68996 0.44917 0.0
C1180 C 0.83825 0.66383 0.47099 0.0
H1181 H 0.89078 0.71467 0.41443 0.0
H1182 H 0.84482 0.70863 0.44773 0.0
S1183 S 0.85991 0.59654 0.48405 0.0
N1184 N 0.88608 0.62034 0.45676 0.0
N1185 N 0.83629 0.61359 0.49214 0.0
C1186 C 0.84933 0.64012 0.47229 0.0
C1187 C 0.87597 0.64355 0.45288 0.0
C1188 C 0.21862 0.37853 0.2407 0.0
C1189 C 0.22793 0.40121 0.26538 0.0
C1190 C 0.19813 0.37898 0.2171 0.0
C1191 C 0.1864 0.40229 0.21721 0.0
H1192 H 0.22633 0.35958 0.24014 0.0
H1193 H 0.19066 0.36028 0.19904 0.0
S1194 S 0.2069 0.46939 0.27511 0.0
N1195 N 0.22597 0.44903 0.28767 0.0
N1196 N 0.18788 0.45036 0.24295 0.0
C1197 C 0.19653 0.42587 0.24128 0.0
C1198 C 0.21721 0.42523 0.26543 0.0
C1199 C 0.57726 0.7733 0.24218 0.0
C1200 C 0.60644 0.77177 0.23444 0.0
C1201 C 0.57787 0.79445 0.26582 0.0
C1202 C 0.60768 0.81471 0.28248 0.0
H1203 H 0.55374 0.7578 0.23005 0.0
H1204 H 0.55479 0.7946 0.27141 0.0
S1205 S 0.69169 0.82271 0.26889 0.0
N1206 N 0.66648 0.79423 0.24372 0.0
N1207 N 0.66759 0.83379 0.28821 0.0
C1208 C 0.63717 0.81396 0.2745 0.0
C1209 C 0.63656 0.79252 0.25047 0.0
C1210 C 0.2069 0.82874 0.24539 0.0
C1211 C 0.21711 0.81606 0.22066 0.0
C1212 C 0.18649 0.80741 0.2689 0.0
C1213 C 0.17522 0.77256 0.26837 0.0
H1214 H 0.21402 0.85524 0.24625 0.0
H1215 H 0.1788 0.81809 0.28729 0.0
S1216 S 0.19668 0.72689 0.21052 0.0
N1217 N 0.21619 0.76656 0.19847 0.0
N1218 N 0.17671 0.72635 0.24229 0.0
C1219 C 0.1855 0.75951 0.24422 0.0
C1220 C 0.20672 0.78128 0.22045 0.0
C1221 C 0.81332 0.59121 0.75819 0.0
C1222 C 0.82817 0.61933 0.77794 0.0
C1223 C 0.79232 0.58965 0.73406 0.0
C1224 C 0.78546 0.6161 0.72899 0.0
H1225 H 0.81772 0.57019 0.7616 0.0
H1226 H 0.78126 0.56756 0.71934 0.0
S1227 S 0.821 0.69671 0.77225 0.0
N1228 N 0.8365 0.67519 0.7895 0.0
N1229 N 0.79691 0.67211 0.7443 0.0
C1230 C 0.80061 0.64455 0.74825 0.0
C1231 C 0.82202 0.64621 0.77269 0.0
C1232 C 0.40314 0.21337 0.75475 0.0
C1233 C 0.38142 0.19893 0.78007 0.0
C1234 C 0.4032 0.19304 0.7306 0.0
C1235 C 0.38154 0.15776 0.73111 0.0
H1236 H 0.41904 0.24061 0.75295 0.0
H1237 H 0.41907 0.20508 0.71081 0.0
S1238 S 0.32363 0.10716 0.79387 0.0
N1239 N 0.34073 0.14679 0.80566 0.0
N1240 N 0.34029 0.10891 0.75985 0.0
C1241 C 0.36112 0.1429 0.75691 0.0
C1242 C 0.36122 0.16342 0.78153 0.0
C1243 C 0.82034 0.19369 0.78132 0.0
C1244 C 0.7883 0.16483 0.77664 0.0
C1245 C 0.83957 0.21396 0.75673 0.0
C1246 C 0.82755 0.20605 0.72653 0.0
H1247 H 0.83083 0.20044 0.80417 0.0
H1248 H 0.8645 0.23532 0.76131 0.0
S1249 S 0.7444 0.13465 0.7021 0.0
N1250 N 0.74494 0.13015 0.73956 0.0
N1251 N 0.78068 0.1688 0.69345 0.0
C1252 C 0.79505 0.17802 0.72163 0.0
C1253 C 0.77551 0.15732 0.74665 0.0
C1254 C 0.03617 0.52942 0.01835 0.0
C1255 C 0.0166 0.49401 0.02086 0.0
C1256 C 0.0248 0.54769 0.00115 0.0
C1257 C 0.99356 0.53116 0.9857 0.0
H1258 H 0.06035 0.5431 0.02992 0.0
H1259 H 0.04046 0.57502 0.00017 0.0
S1260 S 0.93418 0.43848 0.98311 0.0
N1261 N 0.96535 0.44287 0.00539 0.0
N1262 N 0.94404 0.47722 0.97284 0.0
C1263 C 0.97393 0.4957 0.98778 0.0
C1264 C 0.98545 0.47712 0.00539 0.0
C1265 C 0.48929 0.4883 0.03233 0.0
C1266 C 0.52167 0.51476 0.02449 0.0
C1267 C 0.47336 0.45865 0.01476 0.0
C1268 C 0.48909 0.45482 0.98851 0.0
H1269 H 0.4764 0.49043 0.05234 0.0
H1270 H 0.44838 0.43872 0.02151 0.0
S1271 S 0.57339 0.51732 0.95788 0.0
N1272 N 0.56874 0.53566 0.98869 0.0
N1273 N 0.53849 0.48001 0.95533 0.0
C1274 C 0.52125 0.48129 0.98022 0.0
C1275 C 0.53766 0.51125 0.99835 0.0
C1276 C 0.50267 0.01248 0.02693 0.0
C1277 C 0.47057 0.99251 0.01372 0.0
C1278 C 0.53212 0.02536 0.00914 0.0
C1279 C 0.53048 0.01893 0.97747 0.0
H1280 H 0.50503 0.01772 0.05128 0.0
H1281 H 0.5564 0.03983 0.02039 0.0
S1282 S 0.45229 0.97079 0.93152 0.0
N1283 N 0.4386 0.96863 0.96693 0.0
N1284 N 0.49403 0.99305 0.93338 0.0
C1285 C 0.49846 -0.00036 0.96389 0.0
C1286 C 0.46849 0.9864 0.98204 0.0
C1287 C 0.49604 0.99711 0.46994 0.0
C1288 C 0.51185 0.98115 0.48449 0.0
C1289 C 0.47987 0.01099 0.48699 0.0
C1290 C 0.47895 0.00938 0.51915 0.0
H1291 H 0.49583 0.99851 0.44519 0.0
H1292 H 0.46743 0.0225 0.4749 0.0
S1293 S 0.51896 0.97307 0.56834 0.0
N1294 N 0.52743 0.96656 0.53304 0.0
N1295 N 0.49652 0.99223 0.56498 0.0
C1296 C 0.49504 0.99399 0.534 0.0
C1297 C 0.51163 0.97999 0.5167 0.0
C1298 C 0.97405 0.46247 0.48927 0.0
C1299 C 0.9781 0.46576 0.52123 0.0
C1300 C 0.98763 0.49103 0.47025 0.0
C1301 C 0.00577 0.52388 0.48252 0.0
H1302 H 0.96087 0.4376 0.47881 0.0
H1303 H 0.98432 0.48734 0.44572 0.0
S1304 S 0.02083 0.5461 0.56499 0.0
N1305 N -7e-05 0.50427 0.56449 0.0
N1306 N 0.02516 0.55809 0.52881 0.0
C1307 C 0.00941 0.52751 0.51453 0.0
C1308 C 0.99567 0.49841 0.53386 0.0
C1309 C 0.50874 0.49462 0.46391 0.0
C1310 C 0.47763 0.48993 0.47473 0.0
C1311 C 0.53834 0.51231 0.48124 0.0
C1312 C 0.53792 0.52588 0.51009 0.0
H1313 H 0.51028 0.48481 0.44174 0.0
H1314 H 0.56174 0.51528 0.47202 0.0
S1315 S 0.46271 0.51985 0.54905 0.0
N1316 N 0.44787 0.49919 0.51654 0.0
N1317 N 0.50377 0.53357 0.54863 0.0
C1318 C 0.50693 0.5212 0.52126 0.0
C1319 C 0.47675 0.50303 0.50367 0.0
loop_
_geom_bond_atom_site_label_1
_geom_bond_atom_site_label_2
_geom_bond_distance
_geom_bond_site_symmetry_2
_ccdc_geom_bond_type
Li0 N17 1.990 . S
Li0 O60 1.956 . S
Li0 O61 1.970 . S
Li0 O62 1.961 . S
Li1 N25 1.990 . S
Li1 O60 1.970 . S
Li1 O61 1.956 . S
Li1 O63 1.961 . S
Li2 N47 1.990 . S
Li2 O60 1.961 . S
Li2 O62 1.956 . S
Li2 O63 1.970 . S
Li3 N53 1.990 1_455 S
Li3 O61 1.961 . S
Li3 O62 1.970 . S
Li3 O63 1.956 . S
C4 C6 1.348 . S
C4 C7 1.356 . S
C4 O60 1.325 . S
N5 C8 1.314 . S
N5 C9 1.279 . S
C6 C4 1.348 . S
C6 C8 1.353 . S
C6 H64 0.929 . S
C7 C4 1.356 . S
C7 C9 1.358 . S
C7 H65 0.930 . S
C8 N5 1.314 . S
C8 C6 1.353 . S
C8 H66 0.930 . S
C9 N5 1.279 . S
C9 C7 1.358 . S
C9 H67 0.930 . S
C10 C13 1.348 . S
C10 C14 1.356 . S
C10 O61 1.325 1_655 S
C11 N12 1.279 . S
C11 C14 1.358 . S
C11 H68 0.930 . S
N12 C11 1.279 . S
N12 C15 1.314 . S
C13 C10 1.348 . S
C13 C15 1.353 . S
C13 H69 0.929 1_655 S
C14 C10 1.356 . S
C14 C11 1.358 . S
C14 H70 0.930 . S
C15 N12 1.314 . S
C15 C13 1.353 . S
C15 H71 0.930 . S
C16 N17 1.314 . S
C16 C21 1.353 . S
C16 H22 0.930 . S
N17 Li0 1.990 . S
N17 C16 1.314 . S
N17 C19 1.279 . S
C18 C19 1.358 . S
C18 C20 1.356 . S
C18 H72 0.930 . S
C19 N17 1.279 . S
C19 C18 1.358 . S
C19 H23 0.930 . S
C20 C18 1.356 . S
C20 C21 1.348 . S
C21 C16 1.353 . S
C21 C20 1.348 . S
C21 H73 0.929 1_455 S
H22 C16 0.930 . S
H23 C19 0.930 . S
C24 N25 1.314 . S
C24 C26 1.353 . S
C24 H30 0.930 . S
N25 Li1 1.990 . S
N25 C24 1.314 . S
N25 C28 1.279 . S
C26 C24 1.353 . S
C26 C29 1.348 . S
C26 H74 0.929 . S
C27 C28 1.358 . S
C27 C29 1.356 . S
C27 H75 0.930 . S
C28 N25 1.279 . S
C28 C27 1.358 . S
C28 H31 0.930 . S
C29 C26 1.348 . S
C29 C27 1.356 . S
H30 C24 0.930 . S
H31 C28 0.930 . S
C32 C34 1.352 1_554 S
C32 C35 1.356 1_554 S
C32 O62 1.325 . S
N33 C36 1.314 1_455 S
N33 C37 1.279 . S
C34 C32 1.352 1_556 S
C34 C36 1.357 1_455 S
C34 H76 0.922 1_456 S
C35 C32 1.356 1_556 S
C35 C37 1.358 . S
C35 H77 0.930 1_556 S
C36 N33 1.314 1_655 S
C36 C34 1.357 1_655 S
C36 H78 0.930 . S
C37 N33 1.279 . S
C37 C35 1.358 . S
C37 H79 0.930 . S
C38 C39 1.348 . S
C38 C40 1.356 . S
C38 O63 1.325 . S
C39 C38 1.348 . S
C39 C41 1.353 . S
C39 H80 0.929 . S
C40 C38 1.356 . S
C40 C42 1.358 . S
C40 H81 0.930 . S
C41 C39 1.353 . S
C41 N43 1.314 . S
C41 H82 0.930 . S
C42 C40 1.358 . S
C42 N43 1.279 . S
C42 H83 0.930 . S
N43 C41 1.314 . S
N43 C42 1.279 . S
C44 C46 1.353 . S
C44 N47 1.314 . S
C44 H50 0.930 . S
C45 N47 1.279 . S
C45 C48 1.358 1_554 S
C45 H51 0.930 1_554 S
C46 C44 1.353 . S
C46 C49 1.311 1_554 S
C46 H84 0.929 . S
N47 Li2 1.990 . S
N47 C44 1.314 . S
N47 C45 1.279 . S
C48 C45 1.358 1_556 S
C48 C49 1.372 . S
C48 H85 0.930 . S
C49 C46 1.311 1_556 S
C49 C48 1.372 . S
H50 C44 0.930 . S
H51 C45 0.930 1_556 S
C52 N53 1.314 . S
C52 C54 1.353 . S
C52 H58 0.930 . S
N53 Li3 1.990 1_655 S
N53 C52 1.314 . S
N53 C56 1.279 . S
C54 C52 1.353 . S
C54 C57 1.348 . S
C54 H86 0.929 . S
C55 C56 1.358 . S
C55 C57 1.356 . S
C55 H87 0.930 . S
C56 N53 1.279 . S
C56 C55 1.358 . S
C56 H59 0.930 . S
C57 C54 1.348 . S
C57 C55 1.356 . S
H58 C52 0.930 . S
H59 C56 0.930 . S
O60 Li0 1.956 . S
O60 Li1 1.970 . S
O60 Li2 1.961 . S
O60 C4 1.325 . S
O61 Li0 1.970 . S
O61 Li1 1.956 . S
O61 Li3 1.961 . S
O61 C10 1.325 1_455 S
O62 Li0 1.961 . S
O62 Li2 1.956 . S
O62 Li3 1.970 . S
O62 C32 1.325 . S
O63 Li1 1.961 . S
O63 Li2 1.970 . S
O63 Li3 1.956 . S
O63 C38 1.325 . S
H64 C6 0.929 . S
H65 C7 0.930 . S
H66 C8 0.930 . S
H67 C9 0.930 . S
H68 C11 0.930 . S
H69 C13 0.929 1_455 S
H70 C14 0.930 . S
H71 C15 0.930 . S
H72 C18 0.930 . S
H73 C21 0.929 1_655 S
H74 C26 0.929 . S
H75 C27 0.930 . S
H76 C34 0.922 1_654 S
H77 C35 0.930 1_554 S
H78 C36 0.930 . S
H79 C37 0.930 . S
H80 C39 0.929 . S
H81 C40 0.930 . S
H82 C41 0.930 . S
H83 C42 0.930 . S
H84 C46 0.929 . S
H85 C48 0.930 . S
H86 C54 0.929 . S
H87 C55 0.930 . S
Li88 N105 1.990 . S
Li88 O148 1.956 . S
Li88 O149 1.970 . S
Li88 O150 1.961 . S
Li89 N113 1.990 . S
Li89 O148 1.970 . S
Li89 O149 1.956 . S
Li89 O151 1.961 . S
Li90 N135 1.990 . S
Li90 O148 1.961 . S
Li90 O150 1.956 . S
Li90 O151 1.970 . S
Li91 N141 1.990 . S
Li91 O149 1.961 . S
Li91 O150 1.970 . S
Li91 O151 1.956 . S
C92 C94 1.348 . S
C92 C95 1.356 . S
C92 O148 1.325 . S
N93 C96 1.314 . S
N93 C97 1.279 . S
C94 C92 1.348 . S
C94 C96 1.353 . S
C94 H152 0.929 . S
C95 C92 1.356 . S
C95 C97 1.358 . S
C95 H153 0.930 . S
C96 N93 1.314 . S
C96 C94 1.353 . S
C96 H154 0.930 . S
C97 N93 1.279 . S
C97 C95 1.358 . S
C97 H155 0.930 . S
C98 C101 1.348 . S
C98 C102 1.356 . S
C98 O149 1.325 . S
C99 N100 1.279 . S
C99 C102 1.358 . S
C99 H156 0.930 . S
N100 C99 1.279 . S
N100 C103 1.314 . S
C101 C98 1.348 . S
C101 C103 1.353 . S
C101 H157 0.929 . S
C102 C98 1.356 . S
C102 C99 1.358 . S
C102 H158 0.930 . S
C103 N100 1.314 . S
C103 C101 1.353 . S
C103 H159 0.930 . S
C104 N105 1.314 . S
C104 C109 1.353 . S
C104 H110 0.930 . S
N105 Li88 1.990 . S
N105 C104 1.314 . S
N105 C107 1.279 . S
C106 C107 1.358 . S
C106 C108 1.356 . S
C106 H160 0.930 . S
C107 N105 1.279 . S
C107 C106 1.358 . S
C107 H111 0.930 . S
C108 C106 1.356 . S
C108 C109 1.348 . S
C109 C104 1.353 . S
C109 C108 1.348 . S
C109 H161 0.929 . S
H110 C104 0.930 . S
H111 C107 0.930 . S
C112 N113 1.314 . S
C112 C114 1.353 . S
C112 H118 0.930 . S
N113 Li89 1.990 . S
N113 C112 1.314 . S
N113 C116 1.279 . S
C114 C112 1.353 . S
C114 C117 1.348 . S
C114 H162 0.929 . S
C115 C116 1.358 . S
C115 C117 1.356 . S
C115 H163 0.930 . S
C116 N113 1.279 . S
C116 C115 1.358 . S
C116 H119 0.930 . S
C117 C114 1.348 . S
C117 C115 1.356 . S
H118 C112 0.930 . S
H119 C116 0.930 . S
C120 C122 1.348 . S
C120 C123 1.356 . S
C120 O150 1.325 . S
N121 C124 1.314 . S
N121 C125 1.279 . S
C122 C120 1.348 . S
C122 C124 1.353 . S
C122 H164 0.929 . S
C123 C120 1.356 . S
C123 C125 1.358 . S
C123 H165 0.930 . S
C124 N121 1.314 . S
C124 C122 1.353 . S
C124 H166 0.930 . S
C125 N121 1.279 . S
C125 C123 1.358 . S
C125 H167 0.930 . S
C126 C127 1.348 1_554 S
C126 C128 1.356 1_554 S
C126 O151 1.325 . S
C127 C126 1.348 1_556 S
C127 C129 1.353 . S
C127 H168 0.929 1_556 S
C128 C126 1.356 1_556 S
C128 C130 1.358 . S
C128 H169 0.930 1_556 S
C129 C127 1.353 . S
C129 N131 1.314 . S
C129 H170 0.930 . S
C130 C128 1.358 . S
C130 N131 1.279 . S
C130 H171 0.930 . S
N131 C129 1.314 . S
N131 C130 1.279 . S
C132 C134 1.353 . S
C132 N135 1.314 . S
C132 H138 0.930 . S
C133 N135 1.279 . S
C133 C136 1.358 . S
C133 H139 0.930 . S
C134 C132 1.353 . S
C134 C137 1.348 . S
C134 H172 0.929 . S
N135 Li90 1.990 . S
N135 C132 1.314 . S
N135 C133 1.279 . S
C136 C133 1.358 . S
C136 C137 1.356 . S
C136 H173 0.930 . S
C137 C134 1.348 . S
C137 C136 1.356 . S
H138 C132 0.930 . S
H139 C133 0.930 . S
C140 N141 1.314 . S
C140 C142 1.353 . S
C140 H146 0.930 . S
N141 Li91 1.990 . S
N141 C140 1.314 . S
N141 C144 1.279 . S
C142 C140 1.353 . S
C142 C145 1.348 1_554 S
C142 H174 0.929 . S
C143 C144 1.358 1_556 S
C143 C145 1.356 . S
C143 H175 0.930 . S
C144 N141 1.279 . S
C144 C143 1.358 1_554 S
C144 H147 0.930 1_554 S
C145 C142 1.348 1_556 S
C145 C143 1.356 . S
H146 C140 0.930 . S
H147 C144 0.930 1_556 S
O148 Li88 1.956 . S
O148 Li89 1.970 . S
O148 Li90 1.961 . S
O148 C92 1.325 . S
O149 Li88 1.970 . S
O149 Li89 1.956 . S
O149 Li91 1.961 . S
O149 C98 1.325 . S
O150 Li88 1.961 . S
O150 Li90 1.956 . S
O150 Li91 1.970 . S
O150 C120 1.325 . S
O151 Li89 1.961 . S
O151 Li90 1.970 . S
O151 Li91 1.956 . S
O151 C126 1.325 . S
H152 C94 0.929 . S
H153 C95 0.930 . S
H154 C96 0.930 . S
H155 C97 0.930 . S
H156 C99 0.930 . S
H157 C101 0.929 . S
H158 C102 0.930 . S
H159 C103 0.930 . S
H160 C106 0.930 . S
H161 C109 0.929 . S
H162 C114 0.929 . S
H163 C115 0.930 . S
H164 C122 0.929 . S
H165 C123 0.930 . S
H166 C124 0.930 . S
H167 C125 0.930 . S
H168 C127 0.929 1_554 S
H169 C128 0.930 1_554 S
H170 C129 0.930 . S
H171 C130 0.930 . S
H172 C134 0.929 . S
H173 C136 0.930 . S
H174 C142 0.929 . S
H175 C143 0.930 . S
Li176 N193 1.990 . S
Li176 O236 1.956 . S
Li176 O237 1.970 . S
Li176 O238 1.961 . S
Li177 N201 1.990 . S
Li177 O236 1.970 . S
Li177 O237 1.956 . S
Li177 O239 1.961 . S
Li178 N223 1.990 1_565 S
Li178 O236 1.961 . S
Li178 O238 1.956 . S
Li178 O239 1.970 . S
Li179 N229 1.990 . S
Li179 O237 1.961 . S
Li179 O238 1.970 . S
Li179 O239 1.956 . S
C180 C182 1.348 . S
C180 C183 1.356 . S
C180 O236 1.325 1_545 S
N181 C184 1.314 . S
N181 C185 1.279 . S
C182 C180 1.348 . S
C182 C184 1.353 . S
C182 H240 0.929 1_545 S
C183 C180 1.356 . S
C183 C185 1.358 . S
C183 H241 0.930 . S
C184 N181 1.314 . S
C184 C182 1.353 . S
C184 H242 0.930 . S
C185 N181 1.279 . S
C185 C183 1.358 . S
C185 H243 0.930 . S
C186 C189 1.348 . S
C186 C190 1.356 . S
C186 O237 1.325 . S
C187 N188 1.279 . S
C187 C190 1.358 . S
C187 H244 0.930 . S
N188 C187 1.279 . S
N188 C191 1.314 . S
C189 C186 1.348 . S
C189 C191 1.353 . S
C189 H245 0.929 . S
C190 C186 1.356 . S
C190 C187 1.358 . S
C190 H246 0.930 . S
C191 N188 1.314 . S
C191 C189 1.353 . S
C191 H247 0.930 . S
C192 N193 1.314 . S
C192 C197 1.353 . S
C192 H198 0.930 . S
N193 Li176 1.990 . S
N193 C192 1.314 . S
N193 C195 1.279 . S
C194 C195 1.358 . S
C194 C196 1.356 . S
C194 H248 0.930 . S
C195 N193 1.279 . S
C195 C194 1.358 . S
C195 H199 0.930 . S
C196 C194 1.356 . S
C196 C197 1.348 . S
C197 C192 1.353 . S
C197 C196 1.348 . S
C197 H249 0.929 . S
H198 C192 0.930 . S
H199 C195 0.930 . S
C200 N201 1.314 . S
C200 C202 1.353 . S
C200 H206 0.940 . S
N201 Li177 1.990 . S
N201 C200 1.314 . S
N201 C204 1.279 . S
C202 C200 1.353 . S
C202 C205 1.348 . S
C202 H250 0.929 1_565 S
C203 C204 1.358 . S
C203 C205 1.356 . S
C203 H251 0.930 . S
C204 N201 1.279 . S
C204 C203 1.358 . S
C204 H207 0.930 . S
C205 C202 1.348 . S
C205 C203 1.356 . S
H206 C200 0.940 . S
H207 C204 0.930 . S
C208 C210 1.348 . S
C208 C211 1.356 . S
C208 O238 1.325 . S
N209 C212 1.314 . S
N209 C213 1.279 . S
C210 C208 1.348 . S
C210 C212 1.353 . S
C210 H252 0.929 . S
C211 C208 1.356 . S
C211 C213 1.358 . S
C211 H253 0.930 . S
C212 N209 1.314 . S
C212 C210 1.353 . S
C212 H254 0.930 . S
C213 N209 1.279 . S
C213 C211 1.358 . S
C213 H255 0.930 . S
C214 C215 1.348 1_554 S
C214 C216 1.356 1_554 S
C214 O239 1.325 . S
C215 C214 1.348 1_556 S
C215 C217 1.353 1_565 S
C215 H256 0.929 1_566 S
C216 C214 1.356 1_556 S
C216 C218 1.358 . S
C216 H257 0.930 1_556 S
C217 C215 1.353 1_545 S
C217 N219 1.314 1_545 S
C217 H258 0.930 . S
C218 C216 1.358 . S
C218 N219 1.279 . S
C218 H259 0.930 . S
N219 C217 1.314 1_565 S
N219 C218 1.279 . S
C220 C222 1.353 . S
C220 N223 1.314 . S
C220 H226 0.930 . S
C221 N223 1.279 . S
C221 C224 1.358 . S
C221 H227 0.930 . S
C222 C220 1.353 . S
C222 C225 1.348 . S
C222 H260 0.929 . S
N223 Li178 1.990 1_545 S
N223 C220 1.314 . S
N223 C221 1.279 . S
C224 C221 1.358 . S
C224 C225 1.356 . S
C224 H261 0.930 . S
C225 C222 1.348 . S
C225 C224 1.356 . S
H226 C220 0.930 . S
H227 C221 0.930 . S
C228 N229 1.314 . S
C228 C230 1.353 . S
C228 H234 0.930 . S
N229 Li179 1.990 . S
N229 C228 1.314 . S
N229 C232 1.279 . S
C230 C228 1.353 . S
C230 C233 1.348 1_554 S
C230 H262 0.929 . S
C231 C232 1.358 1_556 S
C231 C233 1.356 . S
C231 H263 0.930 . S
C232 N229 1.279 . S
C232 C231 1.358 1_554 S
C232 H235 0.930 1_554 S
C233 C230 1.348 1_556 S
C233 C231 1.356 . S
H234 C228 0.930 . S
H235 C232 0.930 1_556 S
O236 Li176 1.956 . S
O236 Li177 1.970 . S
O236 Li178 1.961 . S
O236 C180 1.325 1_565 S
O237 Li176 1.970 . S
O237 Li177 1.956 . S
O237 Li179 1.961 . S
O237 C186 1.325 . S
O238 Li176 1.961 . S
O238 Li178 1.956 . S
O238 Li179 1.970 . S
O238 C208 1.325 . S
O239 Li177 1.961 . S
O239 Li178 1.970 . S
O239 Li179 1.956 . S
O239 C214 1.325 . S
H240 C182 0.929 1_565 S
H241 C183 0.930 . S
H242 C184 0.930 . S
H243 C185 0.930 . S
H244 C187 0.930 . S
H245 C189 0.929 . S
H246 C190 0.930 . S
H247 C191 0.930 . S
H248 C194 0.930 . S
H249 C197 0.929 . S
H250 C202 0.929 1_545 S
H251 C203 0.930 . S
H252 C210 0.929 . S
H253 C211 0.930 . S
H254 C212 0.930 . S
H255 C213 0.930 . S
H256 C215 0.929 1_544 S
H257 C216 0.930 1_554 S
H258 C217 0.930 . S
H259 C218 0.930 . S
H260 C222 0.929 . S
H261 C224 0.930 . S
H262 C230 0.929 . S
H263 C231 0.930 . S
Li264 N281 1.990 . S
Li264 O324 1.956 . S
Li264 O325 1.970 . S
Li264 O326 1.961 . S
Li265 N289 1.990 1_565 S
Li265 O324 1.970 . S
Li265 O325 1.956 . S
Li265 O327 1.961 . S
Li266 N311 1.990 . S
Li266 O324 1.961 . S
Li266 O326 1.956 . S
Li266 O327 1.970 . S
Li267 N317 1.990 . S
Li267 O325 1.961 . S
Li267 O326 1.970 . S
Li267 O327 1.956 . S
C268 C270 1.348 . S
C268 C271 1.356 . S
C268 O324 1.325 . S
N269 C272 1.314 1_565 S
N269 C273 1.279 . S
C270 C268 1.348 . S
C270 C272 1.353 1_565 S
C270 H328 0.929 1_565 S
C271 C268 1.356 . S
C271 C273 1.358 . S
C271 H329 0.930 . S
C272 N269 1.314 1_545 S
C272 C270 1.353 1_545 S
C272 H330 0.930 . S
C273 N269 1.279 . S
C273 C271 1.358 . S
C273 H331 0.930 . S
C274 C277 1.348 . S
C274 C278 1.356 . S
C274 O325 1.325 . S
C275 N276 1.279 . S
C275 C278 1.358 . S
C275 H332 0.930 . S
N276 C275 1.279 . S
N276 C279 1.314 . S
C277 C274 1.348 . S
C277 C279 1.353 . S
C277 H333 0.929 . S
C278 C274 1.356 . S
C278 C275 1.358 . S
C278 H334 0.930 . S
C279 N276 1.314 . S
C279 C277 1.353 . S
C279 H335 0.930 . S
C280 N281 1.314 . S
C280 C285 1.353 . S
C280 H286 0.930 . S
N281 Li264 1.990 . S
N281 C280 1.314 . S
N281 C283 1.279 . S
C282 C283 1.358 . S
C282 C284 1.356 . S
C282 H336 0.930 . S
C283 N281 1.279 . S
C283 C282 1.358 . S
C283 H287 0.930 . S
C284 C282 1.356 . S
C284 C285 1.348 . S
C285 C280 1.353 . S
C285 C284 1.348 . S
C285 H337 0.929 . S
H286 C280 0.930 . S
H287 C283 0.930 . S
C288 N289 1.314 . S
C288 C290 1.353 . S
C288 H294 0.930 . S
N289 Li265 1.990 1_545 S
N289 C288 1.314 . S
N289 C292 1.279 . S
C290 C288 1.353 . S
C290 C293 1.348 . S
C290 H338 0.929 . S
C291 C292 1.358 . S
C291 C293 1.356 . S
C291 H339 0.930 . S
C292 N289 1.279 . S
C292 C291 1.358 . S
C292 H295 0.930 . S
C293 C290 1.348 . S
C293 C291 1.356 . S
H294 C288 0.930 . S
H295 C292 0.930 . S
C296 C298 1.348 . S
C296 C299 1.356 . S
C296 O326 1.325 . S
N297 C300 1.314 . S
N297 C301 1.279 . S
C298 C296 1.348 . S
C298 C300 1.353 . S
C298 H340 0.929 . S
C299 C296 1.356 . S
C299 C301 1.358 . S
C299 H341 0.930 . S
C300 N297 1.314 . S
C300 C298 1.353 . S
C300 H342 0.930 . S
C301 N297 1.279 . S
C301 C299 1.358 . S
C301 H343 0.930 . S
C302 C303 1.348 . S
C302 C304 1.356 . S
C302 O327 1.325 1_545 S
C303 C302 1.348 . S
C303 C305 1.353 . S
C303 H344 0.929 1_545 S
C304 C302 1.356 . S
C304 C306 1.358 . S
C304 H345 0.930 . S
C305 C303 1.353 . S
C305 N307 1.314 . S
C305 H346 0.930 . S
C306 C304 1.358 . S
C306 N307 1.279 . S
C306 H347 0.930 . S
N307 C305 1.314 . S
N307 C306 1.279 . S
C308 C310 1.353 . S
C308 N311 1.314 . S
C308 H314 0.933 . S
C309 N311 1.279 . S
C309 C312 1.358 . S
C309 H315 0.930 . S
C310 C308 1.353 . S
C310 C313 1.348 . S
C310 H348 0.929 1_565 S
N311 Li266 1.990 . S
N311 C308 1.314 . S
N311 C309 1.279 . S
C312 C309 1.358 . S
C312 C313 1.356 . S
C312 H349 0.930 . S
C313 C310 1.348 . S
C313 C312 1.356 . S
H314 C308 0.933 . S
H315 C309 0.930 . S
C316 N317 1.314 . S
C316 C318 1.353 . S
C316 H322 0.930 . S
N317 Li267 1.990 . S
N317 C316 1.314 . S
N317 C320 1.279 . S
C318 C316 1.353 . S
C318 C321 1.348 . S
C318 H350 0.929 . S
C319 C320 1.358 . S
C319 C321 1.356 . S
C319 H351 0.930 . S
C320 N317 1.279 . S
C320 C319 1.358 . S
C320 H323 0.930 . S
C321 C318 1.348 . S
C321 C319 1.356 . S
H322 C316 0.930 . S
H323 C320 0.930 . S
O324 Li264 1.956 . S
O324 Li265 1.970 . S
O324 Li266 1.961 . S
O324 C268 1.325 . S
O325 Li264 1.970 . S
O325 Li265 1.956 . S
O325 Li267 1.961 . S
O325 C274 1.325 . S
O326 Li264 1.961 . S
O326 Li266 1.956 . S
O326 Li267 1.970 . S
O326 C296 1.325 . S
O327 Li265 1.961 . S
O327 Li266 1.970 . S
O327 Li267 1.956 . S
O327 C302 1.325 1_565 S
H328 C270 0.929 1_545 S
H329 C271 0.930 . S
H330 C272 0.930 . S
H331 C273 0.930 . S
H332 C275 0.930 . S
H333 C277 0.929 . S
H334 C278 0.930 . S
H335 C279 0.930 . S
H336 C282 0.930 . S
H337 C285 0.929 . S
H338 C290 0.929 . S
H339 C291 0.930 . S
H340 C298 0.929 . S
H341 C299 0.930 . S
H342 C300 0.930 . S
H343 C301 0.930 . S
H344 C303 0.929 1_565 S
H345 C304 0.930 . S
H346 C305 0.930 . S
H347 C306 0.930 . S
H348 C310 0.929 1_545 S
H349 C312 0.930 . S
H350 C318 0.929 . S
H351 C319 0.930 . S
Li352 N369 1.990 . S
Li352 O412 1.956 . S
Li352 O413 1.970 . S
Li352 O414 1.961 . S
Li353 N377 1.990 1_455 S
Li353 O412 1.970 . S
Li353 O413 1.956 . S
Li353 O415 1.961 . S
Li354 N399 1.990 . S
Li354 O412 1.961 . S
Li354 O414 1.956 . S
Li354 O415 1.970 . S
Li355 N405 1.990 . S
Li355 O413 1.961 . S
Li355 O414 1.970 . S
Li355 O415 1.956 . S
C356 C358 1.359 . S
C356 C359 1.356 . S
C356 O412 1.325 . S
N357 C360 1.314 1_455 S
N357 C361 1.279 . S
C358 C356 1.359 . S
C358 C360 1.352 1_455 S
C358 H416 0.919 1_455 S
C359 C356 1.356 . S
C359 C361 1.358 . S
C359 H417 0.930 . S
C360 N357 1.314 1_655 S
C360 C358 1.352 1_655 S
C360 H418 0.930 . S
C361 N357 1.279 . S
C361 C359 1.358 . S
C361 H419 0.930 . S
C362 C365 1.348 . S
C362 C366 1.356 . S
C362 O413 1.325 . S
C363 N364 1.279 . S
C363 C366 1.358 . S
C363 H420 0.930 . S
N364 C363 1.279 . S
N364 C367 1.314 . S
C365 C362 1.348 . S
C365 C367 1.353 . S
C365 H421 0.929 . S
C366 C362 1.356 . S
C366 C363 1.358 . S
C366 H422 0.930 . S
C367 N364 1.314 . S
C367 C365 1.353 . S
C367 H423 0.930 . S
C368 N369 1.314 . S
C368 C373 1.353 . S
C368 H374 0.930 . S
N369 Li352 1.990 . S
N369 C368 1.314 . S
N369 C371 1.279 . S
C370 C371 1.358 . S
C370 C372 1.356 . S
C370 H424 0.930 . S
C371 N369 1.279 . S
C371 C370 1.358 . S
C371 H375 0.930 . S
C372 C370 1.356 . S
C372 C373 1.348 . S
C373 C368 1.353 . S
C373 C372 1.348 . S
C373 H425 0.929 . S
H374 C368 0.930 . S
H375 C371 0.930 . S
C376 N377 1.314 . S
C376 C378 1.353 . S
C376 H382 0.930 . S
N377 Li353 1.990 1_655 S
N377 C376 1.314 . S
N377 C380 1.279 . S
C378 C376 1.353 . S
C378 C381 1.348 . S
C378 H426 0.929 . S
C379 C380 1.358 . S
C379 C381 1.356 . S
C379 H427 0.930 . S
C380 N377 1.279 . S
C380 C379 1.358 . S
C380 H383 0.930 . S
C381 C378 1.348 . S
C381 C379 1.356 . S
H382 C376 0.930 . S
H383 C380 0.930 . S
C384 C386 1.348 . S
C384 C387 1.356 . S
C384 O414 1.325 . S
N385 C388 1.314 . S
N385 C389 1.279 . S
C386 C384 1.348 . S
C386 C388 1.353 . S
C386 H428 0.929 . S
C387 C384 1.356 . S
C387 C389 1.358 . S
C387 H429 0.930 . S
C388 N385 1.314 . S
C388 C386 1.353 . S
C388 H430 0.930 . S
C389 N385 1.279 . S
C389 C387 1.358 . S
C389 H431 0.930 . S
C390 C391 1.348 . S
C390 C392 1.356 . S
C390 O415 1.325 1_655 S
C391 C390 1.348 . S
C391 C393 1.353 . S
C391 H432 0.908 1_655 S
C392 C390 1.356 . S
C392 C394 1.358 . S
C392 H433 0.930 . S
C393 C391 1.353 . S
C393 N395 1.314 . S
C393 H434 0.930 . S
C394 C392 1.358 . S
C394 N395 1.279 . S
C394 H435 0.930 . S
N395 C393 1.314 . S
N395 C394 1.279 . S
C396 C398 1.353 . S
C396 N399 1.314 . S
C396 H402 0.919 1_455 S
C397 N399 1.279 . S
C397 C400 1.358 . S
C397 H403 0.930 . S
C398 C396 1.353 . S
C398 C401 1.348 . S
C398 H436 0.929 1_455 S
N399 Li354 1.990 . S
N399 C396 1.314 . S
N399 C397 1.279 . S
C400 C397 1.358 . S
C400 C401 1.356 . S
C400 H437 0.930 . S
C401 C398 1.348 . S
C401 C400 1.356 . S
H402 C396 0.919 1_655 S
H403 C397 0.930 . S
C404 N405 1.314 . S
C404 C406 1.353 . S
C404 H410 0.930 . S
N405 Li355 1.990 . S
N405 C404 1.314 . S
N405 C408 1.279 . S
C406 C404 1.353 . S
C406 C409 1.348 . S
C406 H438 0.929 . S
C407 C408 1.358 . S
C407 C409 1.356 . S
C407 H439 0.930 . S
C408 N405 1.279 . S
C408 C407 1.358 . S
C408 H411 0.930 . S
C409 C406 1.348 . S
C409 C407 1.356 . S
H410 C404 0.930 . S
H411 C408 0.930 . S
O412 Li352 1.956 . S
O412 Li353 1.970 . S
O412 Li354 1.961 . S
O412 C356 1.325 . S
O413 Li352 1.970 . S
O413 Li353 1.956 . S
O413 Li355 1.961 . S
O413 C362 1.325 . S
O414 Li352 1.961 . S
O414 Li354 1.956 . S
O414 Li355 1.970 . S
O414 C384 1.325 . S
O415 Li353 1.961 . S
O415 Li354 1.970 . S
O415 Li355 1.956 . S
O415 C390 1.325 1_455 S
H416 C358 0.919 1_655 S
H417 C359 0.930 . S
H418 C360 0.930 . S
H419 C361 0.930 . S
H420 C363 0.930 . S
H421 C365 0.929 . S
H422 C366 0.930 . S
H423 C367 0.930 . S
H424 C370 0.930 . S
H425 C373 0.929 . S
H426 C378 0.929 . S
H427 C379 0.930 . S
H428 C386 0.929 . S
H429 C387 0.930 . S
H430 C388 0.930 . S
H431 C389 0.930 . S
H432 C391 0.908 1_455 S
H433 C392 0.930 . S
H434 C393 0.930 . S
H435 C394 0.930 . S
H436 C398 0.929 1_655 S
H437 C400 0.930 . S
H438 C406 0.929 . S
H439 C407 0.930 . S
Li440 N457 1.990 . S
Li440 O500 1.956 . S
Li440 O501 1.970 . S
Li440 O502 1.961 . S
Li441 N465 1.990 . S
Li441 O500 1.970 . S
Li441 O501 1.956 . S
Li441 O503 1.961 . S
Li442 N487 1.990 . S
Li442 O500 1.961 . S
Li442 O502 1.956 . S
Li442 O503 1.970 . S
Li443 N493 1.990 . S
Li443 O501 1.961 . S
Li443 O502 1.970 . S
Li443 O503 1.956 . S
C444 C446 1.348 . S
C444 C447 1.356 . S
C444 O500 1.325 . S
N445 C448 1.314 . S
N445 C449 1.279 . S
C446 C444 1.348 . S
C446 C448 1.353 . S
C446 H504 0.929 . S
C447 C444 1.356 . S
C447 C449 1.358 . S
C447 H505 0.930 . S
C448 N445 1.314 . S
C448 C446 1.353 . S
C448 H506 0.930 . S
C449 N445 1.279 . S
C449 C447 1.358 . S
C449 H507 0.930 . S
C450 C453 1.348 . S
C450 C454 1.356 . S
C450 O501 1.325 . S
C451 N452 1.279 . S
C451 C454 1.358 . S
C451 H508 0.930 . S
N452 C451 1.279 . S
N452 C455 1.314 . S
C453 C450 1.348 . S
C453 C455 1.353 . S
C453 H509 0.929 . S
C454 C450 1.356 . S
C454 C451 1.358 . S
C454 H510 0.930 . S
C455 N452 1.314 . S
C455 C453 1.353 . S
C455 H511 0.930 . S
C456 N457 1.314 . S
C456 C461 1.353 . S
C456 H462 0.930 . S
N457 Li440 1.990 . S
N457 C456 1.314 . S
N457 C459 1.279 . S
C458 C459 1.358 . S
C458 C460 1.356 . S
C458 H512 0.930 . S
C459 N457 1.279 . S
C459 C458 1.358 . S
C459 H463 0.930 . S
C460 C458 1.356 . S
C460 C461 1.348 . S
C461 C456 1.353 . S
C461 C460 1.348 . S
C461 H513 0.929 . S
H462 C456 0.930 . S
H463 C459 0.930 . S
C464 N465 1.314 . S
C464 C466 1.353 . S
C464 H470 0.930 . S
N465 Li441 1.990 . S
N465 C464 1.314 . S
N465 C468 1.279 . S
C466 C464 1.353 . S
C466 C469 1.348 . S
C466 H514 0.929 . S
C467 C468 1.358 . S
C467 C469 1.356 . S
C467 H515 0.930 . S
C468 N465 1.279 . S
C468 C467 1.358 . S
C468 H471 0.930 . S
C469 C466 1.348 . S
C469 C467 1.356 . S
H470 C464 0.930 . S
H471 C468 0.930 . S
C472 C474 1.348 . S
C472 C475 1.356 . S
C472 O502 1.325 . S
N473 C476 1.314 . S
N473 C477 1.279 . S
C474 C472 1.348 . S
C474 C476 1.353 . S
C474 H516 0.929 . S
C475 C472 1.356 . S
C475 C477 1.358 . S
C475 H517 0.930 . S
C476 N473 1.314 . S
C476 C474 1.353 . S
C476 H518 0.930 . S
C477 N473 1.279 . S
C477 C475 1.358 . S
C477 H519 0.930 . S
C478 C479 1.348 . S
C478 C480 1.356 . S
C478 O503 1.325 . S
C479 C478 1.348 . S
C479 C481 1.353 . S
C479 H520 0.929 . S
C480 C478 1.356 . S
C480 C482 1.358 . S
C480 H521 0.930 . S
C481 C479 1.353 . S
C481 N483 1.314 . S
C481 H522 0.930 . S
C482 C480 1.358 . S
C482 N483 1.279 . S
C482 H523 0.930 . S
N483 C481 1.314 . S
N483 C482 1.279 . S
C484 C486 1.353 . S
C484 N487 1.314 . S
C484 H490 0.930 . S
C485 N487 1.279 . S
C485 C488 1.358 . S
C485 H491 0.930 . S
C486 C484 1.353 . S
C486 C489 1.348 . S
C486 H524 0.929 . S
N487 Li442 1.990 . S
N487 C484 1.314 . S
N487 C485 1.279 . S
C488 C485 1.358 . S
C488 C489 1.356 . S
C488 H525 0.930 . S
C489 C486 1.348 . S
C489 C488 1.356 . S
H490 C484 0.930 . S
H491 C485 0.930 . S
C492 N493 1.314 . S
C492 C494 1.353 . S
C492 H498 0.930 . S
N493 Li443 1.990 . S
N493 C492 1.314 . S
N493 C496 1.279 . S
C494 C492 1.353 . S
C494 C497 1.348 . S
C494 H526 0.929 . S
C495 C496 1.358 . S
C495 C497 1.356 . S
C495 H527 0.930 . S
C496 N493 1.279 . S
C496 C495 1.358 . S
C496 H499 0.930 . S
C497 C494 1.348 . S
C497 C495 1.356 . S
H498 C492 0.930 . S
H499 C496 0.930 . S
O500 Li440 1.956 . S
O500 Li441 1.970 . S
O500 Li442 1.961 . S
O500 C444 1.325 . S
O501 Li440 1.970 . S
O501 Li441 1.956 . S
O501 Li443 1.961 . S
O501 C450 1.325 . S
O502 Li440 1.961 . S
O502 Li442 1.956 . S
O502 Li443 1.970 . S
O502 C472 1.325 . S
O503 Li441 1.961 . S
O503 Li442 1.970 . S
O503 Li443 1.956 . S
O503 C478 1.325 . S
H504 C446 0.929 . S
H505 C447 0.930 . S
H506 C448 0.930 . S
H507 C449 0.930 . S
H508 C451 0.930 . S
H509 C453 0.929 . S
H510 C454 0.930 . S
H511 C455 0.930 . S
H512 C458 0.930 . S
H513 C461 0.929 . S
H514 C466 0.929 . S
H515 C467 0.930 . S
H516 C474 0.929 . S
H517 C475 0.930 . S
H518 C476 0.930 . S
H519 C477 0.930 . S
H520 C479 0.929 . S
H521 C480 0.930 . S
H522 C481 0.930 . S
H523 C482 0.930 . S
H524 C486 0.929 . S
H525 C488 0.930 . S
H526 C494 0.929 . S
H527 C495 0.930 . S
Li528 N545 1.990 . S
Li528 O588 1.956 . S
Li528 O589 1.970 . S
Li528 O590 1.961 . S
Li529 N553 1.990 . S
Li529 O588 1.970 . S
Li529 O589 1.956 . S
Li529 O591 1.961 . S
Li530 N575 1.990 1_655 S
Li530 O588 1.961 . S
Li530 O590 1.956 . S
Li530 O591 1.970 . S
Li531 N581 1.990 . S
Li531 O589 1.961 . S
Li531 O590 1.970 . S
Li531 O591 1.956 . S
C532 C534 1.348 1_556 S
C532 C535 1.356 1_556 S
C532 O588 1.325 . S
N533 C536 1.314 . S
N533 C537 1.279 . S
C534 C532 1.348 1_554 S
C534 C536 1.353 . S
C534 H592 0.929 1_554 S
C535 C532 1.356 1_554 S
C535 C537 1.358 . S
C535 H593 0.930 1_554 S
C536 N533 1.314 . S
C536 C534 1.353 . S
C536 H594 0.930 . S
C537 N533 1.279 . S
C537 C535 1.358 . S
C537 H595 0.930 1_655 S
C538 C541 1.348 . S
C538 C542 1.356 . S
C538 O589 1.325 . S
C539 N540 1.279 . S
C539 C542 1.358 . S
C539 H596 0.930 . S
N540 C539 1.279 . S
N540 C543 1.314 . S
C541 C538 1.348 . S
C541 C543 1.353 . S
C541 H597 0.929 . S
C542 C538 1.356 . S
C542 C539 1.358 . S
C542 H598 0.930 . S
C543 N540 1.314 . S
C543 C541 1.353 . S
C543 H599 0.930 . S
C544 N545 1.314 . S
C544 C549 1.353 . S
C544 H550 0.930 . S
N545 Li528 1.990 . S
N545 C544 1.314 . S
N545 C547 1.279 . S
C546 C547 1.358 1_554 S
C546 C548 1.356 . S
C546 H600 0.930 . S
C547 N545 1.279 . S
C547 C546 1.358 1_556 S
C547 H551 0.930 1_556 S
C548 C546 1.356 . S
C548 C549 1.348 1_554 S
C549 C544 1.353 . S
C549 C548 1.348 1_556 S
C549 H601 0.929 . S
H550 C544 0.930 . S
H551 C547 0.930 1_554 S
C552 N553 1.314 . S
C552 C554 1.353 . S
C552 H558 0.930 1_655 S
N553 Li529 1.990 . S
N553 C552 1.314 . S
N553 C556 1.279 . S
C554 C552 1.353 . S
C554 C557 1.348 . S
C554 H602 0.929 1_655 S
C555 C556 1.358 . S
C555 C557 1.356 . S
C555 H603 0.930 . S
C556 N553 1.279 . S
C556 C555 1.358 . S
C556 H559 0.930 . S
C557 C554 1.348 . S
C557 C555 1.356 . S
H558 C552 0.930 1_455 S
H559 C556 0.930 . S
C560 C562 1.348 . S
C560 C563 1.356 . S
C560 O590 1.325 . S
N561 C564 1.314 . S
N561 C565 1.279 . S
C562 C560 1.348 . S
C562 C564 1.353 . S
C562 H604 0.929 . S
C563 C560 1.356 . S
C563 C565 1.358 . S
C563 H605 0.930 . S
C564 N561 1.314 . S
C564 C562 1.353 . S
C564 H606 0.930 . S
C565 N561 1.279 . S
C565 C563 1.358 . S
C565 H607 0.930 . S
C566 C567 1.348 . S
C566 C568 1.356 . S
C566 O591 1.325 1_455 S
C567 C566 1.348 . S
C567 C569 1.353 . S
C567 H608 0.929 . S
C568 C566 1.356 . S
C568 C570 1.358 . S
C568 H609 0.930 1_455 S
C569 C567 1.353 . S
C569 N571 1.314 . S
C569 H610 0.930 . S
C570 C568 1.358 . S
C570 N571 1.279 . S
C570 H611 0.930 . S
N571 C569 1.314 . S
N571 C570 1.279 . S
C572 C574 1.353 . S
C572 N575 1.314 . S
C572 H578 0.930 . S
C573 N575 1.279 . S
C573 C576 1.358 . S
C573 H579 0.930 . S
C574 C572 1.353 . S
C574 C577 1.348 . S
C574 H612 0.929 . S
N575 Li530 1.990 1_455 S
N575 C572 1.314 . S
N575 C573 1.279 . S
C576 C573 1.358 . S
C576 C577 1.356 . S
C576 H613 0.930 . S
C577 C574 1.348 . S
C577 C576 1.356 . S
H578 C572 0.930 . S
H579 C573 0.930 . S
C580 N581 1.314 . S
C580 C582 1.353 . S
C580 H586 0.930 . S
N581 Li531 1.990 . S
N581 C580 1.314 . S
N581 C584 1.279 . S
C582 C580 1.353 . S
C582 C585 1.348 . S
C582 H614 0.929 . S
C583 C584 1.358 . S
C583 C585 1.356 . S
C583 H615 0.930 . S
C584 N581 1.279 . S
C584 C583 1.358 . S
C584 H587 0.930 . S
C585 C582 1.348 . S
C585 C583 1.356 . S
H586 C580 0.930 . S
H587 C584 0.930 . S
O588 Li528 1.956 . S
O588 Li529 1.970 . S
O588 Li530 1.961 . S
O588 C532 1.325 . S
O589 Li528 1.970 . S
O589 Li529 1.956 . S
O589 Li531 1.961 . S
O589 C538 1.325 . S
O590 Li528 1.961 . S
O590 Li530 1.956 . S
O590 Li531 1.970 . S
O590 C560 1.325 . S
O591 Li529 1.961 . S
O591 Li530 1.970 . S
O591 Li531 1.956 . S
O591 C566 1.325 1_655 S
H592 C534 0.929 1_556 S
H593 C535 0.930 1_556 S
H594 C536 0.930 . S
H595 C537 0.930 1_455 S
H596 C539 0.930 . S
H597 C541 0.929 . S
H598 C542 0.930 . S
H599 C543 0.930 . S
H600 C546 0.930 . S
H601 C549 0.929 . S
H602 C554 0.929 1_455 S
H603 C555 0.930 . S
H604 C562 0.929 . S
H605 C563 0.930 . S
H606 C564 0.930 . S
H607 C565 0.930 . S
H608 C567 0.929 . S
H609 C568 0.930 1_655 S
H610 C569 0.930 . S
H611 C570 0.930 . S
H612 C574 0.929 . S
H613 C576 0.930 . S
H614 C582 0.929 . S
H615 C583 0.930 . S
Li616 N633 1.990 . S
Li616 O676 1.956 . S
Li616 O677 1.970 . S
Li616 O678 1.961 . S
Li617 N641 1.990 . S
Li617 O676 1.970 . S
Li617 O677 1.956 . S
Li617 O679 1.961 . S
Li618 N663 1.990 . S
Li618 O676 1.961 . S
Li618 O678 1.956 . S
Li618 O679 1.970 . S
Li619 N669 1.990 . S
Li619 O677 1.961 . S
Li619 O678 1.970 . S
Li619 O679 1.956 . S
C620 C622 1.348 . S
C620 C623 1.356 . S
C620 O676 1.325 . S
N621 C624 1.314 . S
N621 C625 1.279 . S
C622 C620 1.348 . S
C622 C624 1.353 . S
C622 H680 0.929 . S
C623 C620 1.356 . S
C623 C625 1.358 . S
C623 H681 0.930 . S
C624 N621 1.314 . S
C624 C622 1.353 . S
C624 H682 0.930 . S
C625 N621 1.279 . S
C625 C623 1.358 . S
C625 H683 0.930 . S
C626 C629 1.348 . S
C626 C630 1.356 1_556 S
C626 O677 1.325 . S
C627 N628 1.279 . S
C627 C630 1.358 . S
C627 H684 0.930 . S
N628 C627 1.279 . S
N628 C631 1.314 . S
C629 C626 1.348 . S
C629 C631 1.353 1_556 S
C629 H685 0.929 . S
C630 C626 1.356 1_554 S
C630 C627 1.358 . S
C630 H686 0.935 . S
C631 N628 1.314 . S
C631 C629 1.353 1_554 S
C631 H687 0.930 . S
C632 N633 1.314 . S
C632 C637 1.353 . S
C632 H638 0.930 . S
N633 Li616 1.990 . S
N633 C632 1.314 . S
N633 C635 1.279 . S
C634 C635 1.358 . S
C634 C636 1.356 . S
C634 H688 0.930 . S
C635 N633 1.279 . S
C635 C634 1.358 . S
C635 H639 0.930 . S
C636 C634 1.356 . S
C636 C637 1.348 . S
C637 C632 1.353 . S
C637 C636 1.348 . S
C637 H689 0.929 . S
H638 C632 0.930 . S
H639 C635 0.930 . S
C640 N641 1.314 . S
C640 C642 1.353 . S
C640 H646 0.930 . S
N641 Li617 1.990 . S
N641 C640 1.314 . S
N641 C644 1.279 . S
C642 C640 1.353 . S
C642 C645 1.348 . S
C642 H690 0.929 . S
C643 C644 1.358 . S
C643 C645 1.356 . S
C643 H691 0.930 . S
C644 N641 1.279 . S
C644 C643 1.358 . S
C644 H647 0.930 . S
C645 C642 1.348 . S
C645 C643 1.356 . S
H646 C640 0.930 . S
H647 C644 0.930 . S
C648 C650 1.348 . S
C648 C651 1.356 . S
C648 O678 1.325 . S
N649 C652 1.314 . S
N649 C653 1.279 . S
C650 C648 1.348 . S
C650 C652 1.353 . S
C650 H692 0.929 . S
C651 C648 1.356 . S
C651 C653 1.358 . S
C651 H693 0.930 . S
C652 N649 1.314 . S
C652 C650 1.353 . S
C652 H694 0.930 . S
C653 N649 1.279 . S
C653 C651 1.358 . S
C653 H695 0.930 . S
C654 C655 1.348 . S
C654 C656 1.356 . S
C654 O679 1.325 . S
C655 C654 1.348 . S
C655 C657 1.353 . S
C655 H696 0.929 . S
C656 C654 1.356 . S
C656 C658 1.358 . S
C656 H697 0.930 . S
C657 C655 1.353 . S
C657 N659 1.314 . S
C657 H698 0.930 . S
C658 C656 1.358 . S
C658 N659 1.279 . S
C658 H699 0.930 . S
N659 C657 1.314 . S
N659 C658 1.279 . S
C660 C662 1.353 . S
C660 N663 1.314 . S
C660 H666 0.930 . S
C661 N663 1.279 . S
C661 C664 1.358 . S
C661 H667 0.930 . S
C662 C660 1.353 . S
C662 C665 1.348 . S
C662 H700 0.929 . S
N663 Li618 1.990 . S
N663 C660 1.314 . S
N663 C661 1.279 . S
C664 C661 1.358 . S
C664 C665 1.356 . S
C664 H701 0.930 . S
C665 C662 1.348 . S
C665 C664 1.356 . S
H666 C660 0.930 . S
H667 C661 0.930 . S
C668 N669 1.314 . S
C668 C670 1.353 1_556 S
C668 H674 0.930 . S
N669 Li619 1.990 . S
N669 C668 1.314 . S
N669 C672 1.279 . S
C670 C668 1.353 1_554 S
C670 C673 1.348 . S
C670 H702 0.929 . S
C671 C672 1.358 . S
C671 C673 1.356 1_556 S
C671 H703 0.930 . S
C672 N669 1.279 . S
C672 C671 1.358 . S
C672 H675 0.930 . S
C673 C670 1.348 . S
C673 C671 1.356 1_554 S
H674 C668 0.930 . S
H675 C672 0.930 . S
O676 Li616 1.956 . S
O676 Li617 1.970 . S
O676 Li618 1.961 . S
O676 C620 1.325 . S
O677 Li616 1.970 . S
O677 Li617 1.956 . S
O677 Li619 1.961 . S
O677 C626 1.325 . S
O678 Li616 1.961 . S
O678 Li618 1.956 . S
O678 Li619 1.970 . S
O678 C648 1.325 . S
O679 Li617 1.961 . S
O679 Li618 1.970 . S
O679 Li619 1.956 . S
O679 C654 1.325 . S
H680 C622 0.929 . S
H681 C623 0.930 . S
H682 C624 0.930 . S
H683 C625 0.930 . S
H684 C627 0.930 . S
H685 C629 0.929 . S
H686 C630 0.935 . S
H687 C631 0.930 . S
H688 C634 0.930 . S
H689 C637 0.929 . S
H690 C642 0.929 . S
H691 C643 0.930 . S
H692 C650 0.929 . S
H693 C651 0.930 . S
H694 C652 0.930 . S
H695 C653 0.930 . S
H696 C655 0.929 . S
H697 C656 0.930 . S
H698 C657 0.930 . S
H699 C658 0.930 . S
H700 C662 0.929 . S
H701 C664 0.930 . S
H702 C670 0.929 . S
H703 C671 0.930 . S
Li704 N721 1.990 . S
Li704 O764 1.956 . S
Li704 O765 1.970 . S
Li704 O766 1.961 . S
Li705 N729 1.990 . S
Li705 O764 1.970 . S
Li705 O765 1.956 . S
Li705 O767 1.961 . S
Li706 N751 1.990 1_545 S
Li706 O764 1.961 . S
Li706 O766 1.956 . S
Li706 O767 1.970 . S
Li707 N757 1.990 . S
Li707 O765 1.961 . S
Li707 O766 1.970 . S
Li707 O767 1.956 . S
C708 C710 1.348 . S
C708 C711 1.356 . S
C708 O764 1.325 . S
N709 C712 1.314 . S
N709 C713 1.279 . S
C710 C708 1.348 . S
C710 C712 1.353 . S
C710 H768 0.929 . S
C711 C708 1.356 . S
C711 C713 1.358 . S
C711 H769 0.930 . S
C712 N709 1.314 . S
C712 C710 1.353 . S
C712 H770 0.930 . S
C713 N709 1.279 . S
C713 C711 1.358 . S
C713 H771 0.930 . S
C714 C717 1.348 . S
C714 C718 1.356 . S
C714 O765 1.325 . S
C715 N716 1.279 . S
C715 C718 1.358 . S
C715 H772 0.930 . S
N716 C715 1.279 . S
N716 C719 1.314 . S
C717 C714 1.348 . S
C717 C719 1.353 . S
C717 H773 0.929 . S
C718 C714 1.356 . S
C718 C715 1.358 . S
C718 H774 0.930 . S
C719 N716 1.314 . S
C719 C717 1.353 . S
C719 H775 0.930 . S
C720 N721 1.314 . S
C720 C725 1.353 . S
C720 H726 0.930 . S
N721 Li704 1.990 . S
N721 C720 1.314 . S
N721 C723 1.279 . S
C722 C723 1.358 . S
C722 C724 1.356 . S
C722 H776 0.930 . S
C723 N721 1.279 . S
C723 C722 1.358 . S
C723 H727 0.930 . S
C724 C722 1.356 . S
C724 C725 1.348 . S
C725 C720 1.353 . S
C725 C724 1.348 . S
C725 H777 0.929 . S
H726 C720 0.930 . S
H727 C723 0.930 . S
C728 N729 1.314 . S
C728 C730 1.353 1_556 S
C728 H734 0.930 . S
N729 Li705 1.990 . S
N729 C728 1.314 . S
N729 C732 1.279 . S
C730 C728 1.353 1_554 S
C730 C733 1.348 . S
C730 H778 0.929 . S
C731 C732 1.358 . S
C731 C733 1.356 1_556 S
C731 H779 0.930 . S
C732 N729 1.279 . S
C732 C731 1.358 . S
C732 H735 0.930 . S
C733 C730 1.348 . S
C733 C731 1.356 1_554 S
H734 C728 0.930 . S
H735 C732 0.930 . S
C736 C738 1.348 . S
C736 C739 1.356 . S
C736 O766 1.325 1_565 S
N737 C740 1.314 . S
N737 C741 1.279 . S
C738 C736 1.348 . S
C738 C740 1.353 . S
C738 H780 0.929 . S
C739 C736 1.356 . S
C739 C741 1.358 . S
C739 H781 0.930 . S
C740 N737 1.314 . S
C740 C738 1.353 . S
C740 H782 0.930 . S
C741 N737 1.279 . S
C741 C739 1.358 . S
C741 H783 0.930 . S
C742 C743 1.348 1_545 S
C742 C744 1.356 1_556 S
C742 O767 1.325 . S
C743 C742 1.348 1_565 S
C743 C745 1.353 1_556 S
C743 H784 0.929 . S
C744 C742 1.356 1_554 S
C744 C746 1.358 . S
C744 H785 0.939 . S
C745 C743 1.353 1_554 S
C745 N747 1.314 1_565 S
C745 H786 0.930 . S
C746 C744 1.358 . S
C746 N747 1.279 . S
C746 H787 0.930 . S
N747 C745 1.314 1_545 S
N747 C746 1.279 . S
C748 C750 1.353 . S
C748 N751 1.314 . S
C748 H754 0.930 . S
C749 N751 1.279 . S
C749 C752 1.358 . S
C749 H755 0.930 . S
C750 C748 1.353 . S
C750 C753 1.348 . S
C750 H788 0.929 . S
N751 Li706 1.990 1_565 S
N751 C748 1.314 . S
N751 C749 1.279 . S
C752 C749 1.358 . S
C752 C753 1.356 . S
C752 H789 0.930 . S
C753 C750 1.348 . S
C753 C752 1.356 . S
H754 C748 0.930 . S
H755 C749 0.930 . S
C756 N757 1.314 . S
C756 C758 1.353 . S
C756 H762 0.930 . S
N757 Li707 1.990 . S
N757 C756 1.314 . S
N757 C760 1.279 . S
C758 C756 1.353 . S
C758 C761 1.348 . S
C758 H790 0.929 . S
C759 C760 1.358 . S
C759 C761 1.356 . S
C759 H791 0.930 . S
C760 N757 1.279 . S
C760 C759 1.358 . S
C760 H763 0.930 . S
C761 C758 1.348 . S
C761 C759 1.356 . S
H762 C756 0.930 . S
H763 C760 0.930 . S
O764 Li704 1.956 . S
O764 Li705 1.970 . S
O764 Li706 1.961 . S
O764 C708 1.325 . S
O765 Li704 1.970 . S
O765 Li705 1.956 . S
O765 Li707 1.961 . S
O765 C714 1.325 . S
O766 Li704 1.961 . S
O766 Li706 1.956 . S
O766 Li707 1.970 . S
O766 C736 1.325 1_545 S
O767 Li705 1.961 . S
O767 Li706 1.970 . S
O767 Li707 1.956 . S
O767 C742 1.325 . S
H768 C710 0.929 . S
H769 C711 0.930 . S
H770 C712 0.930 . S
H771 C713 0.930 . S
H772 C715 0.930 . S
H773 C717 0.929 . S
H774 C718 0.930 . S
H775 C719 0.930 . S
H776 C722 0.930 . S
H777 C725 0.929 . S
H778 C730 0.929 . S
H779 C731 0.930 . S
H780 C738 0.929 . S
H781 C739 0.930 . S
H782 C740 0.930 . S
H783 C741 0.930 . S
H784 C743 0.929 . S
H785 C744 0.939 . S
H786 C745 0.930 . S
H787 C746 0.930 . S
H788 C750 0.929 . S
H789 C752 0.930 . S
H790 C758 0.929 . S
H791 C759 0.930 . S
Li792 N809 1.990 . S
Li792 O852 1.956 . S
Li792 O853 1.970 . S
Li792 O854 1.961 . S
Li793 N817 1.990 . S
Li793 O852 1.970 . S
Li793 O853 1.956 . S
Li793 O855 1.961 . S
Li794 N839 1.990 . S
Li794 O852 1.961 . S
Li794 O854 1.956 . S
Li794 O855 1.970 . S
Li795 N845 1.990 1_545 S
Li795 O853 1.961 . S
Li795 O854 1.970 . S
Li795 O855 1.956 . S
C796 C798 1.348 . S
C796 C799 1.356 . S
C796 O852 1.325 . S
N797 C800 1.314 . S
N797 C801 1.279 . S
C798 C796 1.348 . S
C798 C800 1.353 . S
C798 H856 0.929 . S
C799 C796 1.356 . S
C799 C801 1.358 . S
C799 H857 0.930 . S
C800 N797 1.314 . S
C800 C798 1.353 . S
C800 H858 0.930 . S
C801 N797 1.279 . S
C801 C799 1.358 . S
C801 H859 0.930 . S
C802 C805 1.348 . S
C802 C806 1.356 . S
C802 O853 1.325 . S
C803 N804 1.279 . S
C803 C806 1.358 . S
C803 H860 0.930 . S
N804 C803 1.279 . S
N804 C807 1.314 . S
C805 C802 1.348 . S
C805 C807 1.353 . S
C805 H861 0.929 . S
C806 C802 1.356 . S
C806 C803 1.358 . S
C806 H862 0.930 . S
C807 N804 1.314 . S
C807 C805 1.353 . S
C807 H863 0.930 . S
C808 N809 1.314 . S
C808 C813 1.353 . S
C808 H814 0.930 . S
N809 Li792 1.990 . S
N809 C808 1.314 . S
N809 C811 1.279 . S
C810 C811 1.358 . S
C810 C812 1.356 . S
C810 H864 0.930 . S
C811 N809 1.279 . S
C811 C810 1.358 . S
C811 H815 0.930 . S
C812 C810 1.356 . S
C812 C813 1.348 . S
C813 C808 1.353 . S
C813 C812 1.348 . S
C813 H865 0.929 . S
H814 C808 0.930 . S
H815 C811 0.930 . S
C816 N817 1.314 . S
C816 C818 1.353 . S
C816 H822 0.930 . S
N817 Li793 1.990 . S
N817 C816 1.314 . S
N817 C820 1.279 . S
C818 C816 1.353 . S
C818 C821 1.348 . S
C818 H866 0.929 . S
C819 C820 1.358 . S
C819 C821 1.356 . S
C819 H867 0.930 . S
C820 N817 1.279 . S
C820 C819 1.358 . S
C820 H823 0.930 . S
C821 C818 1.348 . S
C821 C819 1.356 . S
H822 C816 0.930 . S
H823 C820 0.930 . S
C824 C826 1.348 1_545 S
C824 C827 1.356 . S
C824 O854 1.325 . S
N825 C828 1.314 1_545 S
N825 C829 1.279 . S
C826 C824 1.348 1_565 S
C826 C828 1.353 . S
C826 H868 0.929 . S
C827 C824 1.356 . S
C827 C829 1.358 . S
C827 H869 0.930 . S
C828 N825 1.314 1_565 S
C828 C826 1.353 . S
C828 H870 0.930 . S
C829 N825 1.279 . S
C829 C827 1.358 . S
C829 H871 0.930 . S
C830 C831 1.348 . S
C830 C832 1.356 . S
C830 O855 1.325 1_565 S
C831 C830 1.348 . S
C831 C833 1.353 . S
C831 H872 0.929 . S
C832 C830 1.356 . S
C832 C834 1.358 . S
C832 H873 0.930 . S
C833 C831 1.353 . S
C833 N835 1.314 . S
C833 H874 0.930 . S
C834 C832 1.358 . S
C834 N835 1.279 . S
C834 H875 0.930 . S
N835 C833 1.314 . S
N835 C834 1.279 . S
C836 C838 1.353 . S
C836 N839 1.314 . S
C836 H842 0.930 . S
C837 N839 1.279 . S
C837 C840 1.358 . S
C837 H843 0.930 . S
C838 C836 1.353 . S
C838 C841 1.348 . S
C838 H876 0.929 . S
N839 Li794 1.990 . S
N839 C836 1.314 . S
N839 C837 1.279 . S
C840 C837 1.358 . S
C840 C841 1.356 . S
C840 H877 0.930 . S
C841 C838 1.348 . S
C841 C840 1.356 . S
H842 C836 0.930 . S
H843 C837 0.930 . S
C844 N845 1.314 . S
C844 C846 1.353 . S
C844 H850 0.930 . S
N845 Li795 1.990 1_565 S
N845 C844 1.314 . S
N845 C848 1.279 . S
C846 C844 1.353 . S
C846 C849 1.348 . S
C846 H878 0.929 . S
C847 C848 1.358 . S
C847 C849 1.356 . S
C847 H879 0.930 . S
C848 N845 1.279 . S
C848 C847 1.358 . S
C848 H851 0.930 . S
C849 C846 1.348 . S
C849 C847 1.356 . S
H850 C844 0.930 . S
H851 C848 0.930 . S
O852 Li792 1.956 . S
O852 Li793 1.970 . S
O852 Li794 1.961 . S
O852 C796 1.325 . S
O853 Li792 1.970 . S
O853 Li793 1.956 . S
O853 Li795 1.961 . S
O853 C802 1.325 . S
O854 Li792 1.961 . S
O854 Li794 1.956 . S
O854 Li795 1.970 . S
O854 C824 1.325 . S
O855 Li793 1.961 . S
O855 Li794 1.970 . S
O855 Li795 1.956 . S
O855 C830 1.325 1_545 S
H856 C798 0.929 . S
H857 C799 0.930 . S
H858 C800 0.930 . S
H859 C801 0.930 . S
H860 C803 0.930 . S
H861 C805 0.929 . S
H862 C806 0.930 . S
H863 C807 0.930 . S
H864 C810 0.930 . S
H865 C813 0.929 . S
H866 C818 0.929 . S
H867 C819 0.930 . S
H868 C826 0.929 . S
H869 C827 0.930 . S
H870 C828 0.930 . S
H871 C829 0.930 . S
H872 C831 0.929 . S
H873 C832 0.930 . S
H874 C833 0.930 . S
H875 C834 0.930 . S
H876 C838 0.929 . S
H877 C840 0.930 . S
H878 C846 0.929 . S
H879 C847 0.930 . S
Li880 N897 1.990 1_655 S
Li880 O940 1.956 . S
Li880 O941 1.970 . S
Li880 O942 1.961 . S
Li881 N905 1.990 . S
Li881 O940 1.970 . S
Li881 O941 1.956 . S
Li881 O943 1.961 . S
Li882 N927 1.990 . S
Li882 O940 1.961 . S
Li882 O942 1.956 . S
Li882 O943 1.970 . S
Li883 N933 1.990 . S
Li883 O941 1.961 . S
Li883 O942 1.970 . S
Li883 O943 1.956 . S
C884 C886 1.348 . S
C884 C887 1.356 . S
C884 O940 1.325 1_455 S
N885 C888 1.314 . S
N885 C889 1.279 . S
C886 C884 1.348 . S
C886 C888 1.353 . S
C886 H944 0.929 . S
C887 C884 1.356 . S
C887 C889 1.358 . S
C887 H945 0.930 . S
C888 N885 1.314 . S
C888 C886 1.353 . S
C888 H946 0.930 . S
C889 N885 1.279 . S
C889 C887 1.358 . S
C889 H947 0.930 . S
C890 C893 1.348 1_655 S
C890 C894 1.356 . S
C890 O941 1.325 . S
C891 N892 1.279 . S
C891 C894 1.358 . S
C891 H948 0.930 . S
N892 C891 1.279 . S
N892 C895 1.314 1_655 S
C893 C890 1.348 1_455 S
C893 C895 1.353 . S
C893 H949 0.929 . S
C894 C890 1.356 . S
C894 C891 1.358 . S
C894 H950 0.930 . S
C895 N892 1.314 1_455 S
C895 C893 1.353 . S
C895 H951 0.930 . S
C896 N897 1.314 . S
C896 C901 1.353 . S
C896 H902 0.930 . S
N897 Li880 1.990 1_455 S
N897 C896 1.314 . S
N897 C899 1.279 . S
C898 C899 1.358 . S
C898 C900 1.356 . S
C898 H952 0.930 . S
C899 N897 1.279 . S
C899 C898 1.358 . S
C899 H903 0.930 . S
C900 C898 1.356 . S
C900 C901 1.348 . S
C901 C896 1.353 . S
C901 C900 1.348 . S
C901 H953 0.929 . S
H902 C896 0.930 . S
H903 C899 0.930 . S
C904 N905 1.314 . S
C904 C906 1.353 . S
C904 H910 0.930 . S
N905 Li881 1.990 . S
N905 C904 1.314 . S
N905 C908 1.279 . S
C906 C904 1.353 . S
C906 C909 1.348 . S
C906 H954 0.929 . S
C907 C908 1.358 . S
C907 C909 1.356 . S
C907 H955 0.930 . S
C908 N905 1.279 . S
C908 C907 1.358 . S
C908 H911 0.930 . S
C909 C906 1.348 . S
C909 C907 1.356 . S
H910 C904 0.930 . S
H911 C908 0.930 . S
C912 C914 1.348 . S
C912 C915 1.356 . S
C912 O942 1.325 . S
N913 C916 1.314 . S
N913 C917 1.279 . S
C914 C912 1.348 . S
C914 C916 1.353 . S
C914 H956 0.929 . S
C915 C912 1.356 . S
C915 C917 1.358 . S
C915 H957 0.930 . S
C916 N913 1.314 . S
C916 C914 1.353 . S
C916 H958 0.930 . S
C917 N913 1.279 . S
C917 C915 1.358 . S
C917 H959 0.930 . S
C918 C919 1.348 . S
C918 C920 1.356 . S
C918 O943 1.325 . S
C919 C918 1.348 . S
C919 C921 1.353 . S
C919 H960 0.929 . S
C920 C918 1.356 . S
C920 C922 1.358 . S
C920 H961 0.930 . S
C921 C919 1.353 . S
C921 N923 1.314 . S
C921 H962 0.930 . S
C922 C920 1.358 . S
C922 N923 1.279 . S
C922 H963 0.930 . S
N923 C921 1.314 . S
N923 C922 1.279 . S
C924 C926 1.353 . S
C924 N927 1.314 . S
C924 H930 0.930 . S
C925 N927 1.279 . S
C925 C928 1.358 . S
C925 H931 0.930 . S
C926 C924 1.353 . S
C926 C929 1.348 . S
C926 H964 0.929 . S
N927 Li882 1.990 . S
N927 C924 1.314 . S
N927 C925 1.279 . S
C928 C925 1.358 . S
C928 C929 1.356 . S
C928 H965 0.930 . S
C929 C926 1.348 . S
C929 C928 1.356 . S
H930 C924 0.930 . S
H931 C925 0.930 . S
C932 N933 1.314 . S
C932 C934 1.353 . S
C932 H938 0.930 . S
N933 Li883 1.990 . S
N933 C932 1.314 . S
N933 C936 1.279 . S
C934 C932 1.353 . S
C934 C937 1.348 . S
C934 H966 0.929 . S
C935 C936 1.358 . S
C935 C937 1.356 . S
C935 H967 0.930 . S
C936 N933 1.279 . S
C936 C935 1.358 . S
C936 H939 0.930 . S
C937 C934 1.348 . S
C937 C935 1.356 . S
H938 C932 0.930 . S
H939 C936 0.930 . S
O940 Li880 1.956 . S
O940 Li881 1.970 . S
O940 Li882 1.961 . S
O940 C884 1.325 1_655 S
O941 Li880 1.970 . S
O941 Li881 1.956 . S
O941 Li883 1.961 . S
O941 C890 1.325 . S
O942 Li880 1.961 . S
O942 Li882 1.956 . S
O942 Li883 1.970 . S
O942 C912 1.325 . S
O943 Li881 1.961 . S
O943 Li882 1.970 . S
O943 Li883 1.956 . S
O943 C918 1.325 . S
H944 C886 0.929 . S
H945 C887 0.930 . S
H946 C888 0.930 . S
H947 C889 0.930 . S
H948 C891 0.930 . S
H949 C893 0.929 . S
H950 C894 0.930 . S
H951 C895 0.930 . S
H952 C898 0.930 . S
H953 C901 0.929 . S
H954 C906 0.929 . S
H955 C907 0.930 . S
H956 C914 0.929 . S
H957 C915 0.930 . S
H958 C916 0.930 . S
H959 C917 0.930 . S
H960 C919 0.929 . S
H961 C920 0.930 . S
H962 C921 0.930 . S
H963 C922 0.930 . S
H964 C926 0.929 . S
H965 C928 0.930 . S
H966 C934 0.929 . S
H967 C935 0.930 . S
Li968 N985 1.990 . S
Li968 O1028 1.956 . S
Li968 O1029 1.970 . S
Li968 O1030 1.961 . S
Li969 N993 1.990 . S
Li969 O1028 1.970 . S
Li969 O1029 1.956 . S
Li969 O1031 1.961 . S
Li970 N1015 1.990 . S
Li970 O1028 1.961 . S
Li970 O1030 1.956 . S
Li970 O1031 1.970 . S
Li971 N1021 1.990 . S
Li971 O1029 1.961 . S
Li971 O1030 1.970 . S
Li971 O1031 1.956 . S
C972 C974 1.348 . S
C972 C975 1.356 . S
C972 O1028 1.325 . S
N973 C976 1.314 . S
N973 C977 1.279 . S
C974 C972 1.348 . S
C974 C976 1.353 . S
C974 H1032 0.929 . S
C975 C972 1.356 . S
C975 C977 1.358 . S
C975 H1033 0.930 . S
C976 N973 1.314 . S
C976 C974 1.353 . S
C976 H1034 0.930 . S
C977 N973 1.279 . S
C977 C975 1.358 . S
C977 H1035 0.930 . S
C978 C981 1.348 . S
C978 C982 1.356 . S
C978 O1029 1.325 . S
C979 N980 1.279 . S
C979 C982 1.358 . S
C979 H1036 0.930 . S
N980 C979 1.279 . S
N980 C983 1.314 . S
C981 C978 1.348 . S
C981 C983 1.353 . S
C981 H1037 0.929 . S
C982 C978 1.356 . S
C982 C979 1.358 . S
C982 H1038 0.930 . S
C983 N980 1.314 . S
C983 C981 1.353 . S
C983 H1039 0.930 . S
C984 N985 1.314 . S
C984 C989 1.353 . S
C984 H990 0.930 . S
N985 Li968 1.990 . S
N985 C984 1.314 . S
N985 C987 1.279 . S
C986 C987 1.358 . S
C986 C988 1.356 . S
C986 H1040 0.930 . S
C987 N985 1.279 . S
C987 C986 1.358 . S
C987 H991 0.930 . S
C988 C986 1.356 . S
C988 C989 1.348 . S
C989 C984 1.353 . S
C989 C988 1.348 . S
C989 H1041 0.929 . S
H990 C984 0.930 . S
H991 C987 0.930 . S
C992 N993 1.314 . S
C992 C994 1.353 . S
C992 H998 0.930 . S
N993 Li969 1.990 . S
N993 C992 1.314 . S
N993 C996 1.279 . S
C994 C992 1.353 . S
C994 C997 1.348 . S
C994 H1042 0.929 . S
C995 C996 1.358 . S
C995 C997 1.356 . S
C995 H1043 0.930 . S
C996 N993 1.279 . S
C996 C995 1.358 . S
C996 H999 0.930 . S
C997 C994 1.348 . S
C997 C995 1.356 . S
H998 C992 0.930 . S
H999 C996 0.930 . S
C1000 C1002 1.348 . S
C1000 C1003 1.356 . S
C1000 O1030 1.325 . S
N1001 C1004 1.314 . S
N1001 C1005 1.279 . S
C1002 C1000 1.348 . S
C1002 C1004 1.353 . S
C1002 H1044 0.929 . S
C1003 C1000 1.356 . S
C1003 C1005 1.358 . S
C1003 H1045 0.930 . S
C1004 N1001 1.314 . S
C1004 C1002 1.353 . S
C1004 H1046 0.930 . S
C1005 N1001 1.279 . S
C1005 C1003 1.358 . S
C1005 H1047 0.930 . S
C1006 C1007 1.348 . S
C1006 C1008 1.356 . S
C1006 O1031 1.325 . S
C1007 C1006 1.348 . S
C1007 C1009 1.353 . S
C1007 H1048 0.929 . S
C1008 C1006 1.356 . S
C1008 C1010 1.358 . S
C1008 H1049 0.930 . S
C1009 C1007 1.353 . S
C1009 N1011 1.314 . S
C1009 H1050 0.930 . S
C1010 C1008 1.358 . S
C1010 N1011 1.279 . S
C1010 H1051 0.930 . S
N1011 C1009 1.314 . S
N1011 C1010 1.279 . S
C1012 C1014 1.353 . S
C1012 N1015 1.314 . S
C1012 H1018 0.930 . S
C1013 N1015 1.279 . S
C1013 C1016 1.358 . S
C1013 H1019 0.930 . S
C1014 C1012 1.353 . S
C1014 C1017 1.348 . S
C1014 H1052 0.929 . S
N1015 Li970 1.990 . S
N1015 C1012 1.314 . S
N1015 C1013 1.279 . S
C1016 C1013 1.358 . S
C1016 C1017 1.356 . S
C1016 H1053 0.930 . S
C1017 C1014 1.348 . S
C1017 C1016 1.356 . S
H1018 C1012 0.930 . S
H1019 C1013 0.930 . S
C1020 N1021 1.314 . S
C1020 C1022 1.353 . S
C1020 H1026 0.930 . S
N1021 Li971 1.990 . S
N1021 C1020 1.314 . S
N1021 C1024 1.279 . S
C1022 C1020 1.353 . S
C1022 C1025 1.348 . S
C1022 H1054 0.929 . S
C1023 C1024 1.358 . S
C1023 C1025 1.356 . S
C1023 H1055 0.930 . S
C1024 N1021 1.279 . S
C1024 C1023 1.358 . S
C1024 H1027 0.930 . S
C1025 C1022 1.348 . S
C1025 C1023 1.356 . S
H1026 C1020 0.930 . S
H1027 C1024 0.930 . S
O1028 Li968 1.956 . S
O1028 Li969 1.970 . S
O1028 Li970 1.961 . S
O1028 C972 1.325 . S
O1029 Li968 1.970 . S
O1029 Li969 1.956 . S
O1029 Li971 1.961 . S
O1029 C978 1.325 . S
O1030 Li968 1.961 . S
O1030 Li970 1.956 . S
O1030 Li971 1.970 . S
O1030 C1000 1.325 . S
O1031 Li969 1.961 . S
O1031 Li970 1.970 . S
O1031 Li971 1.956 . S
O1031 C1006 1.325 . S
H1032 C974 0.929 . S
H1033 C975 0.930 . S
H1034 C976 0.930 . S
H1035 C977 0.930 . S
H1036 C979 0.930 . S
H1037 C981 0.929 . S
H1038 C982 0.930 . S
H1039 C983 0.930 . S
H1040 C986 0.930 . S
H1041 C989 0.929 . S
H1042 C994 0.929 . S
H1043 C995 0.930 . S
H1044 C1002 0.929 . S
H1045 C1003 0.930 . S
H1046 C1004 0.930 . S
H1047 C1005 0.930 . S
H1048 C1007 0.929 . S
H1049 C1008 0.930 . S
H1050 C1009 0.930 . S
H1051 C1010 0.930 . S
H1052 C1014 0.929 . S
H1053 C1016 0.930 . S
H1054 C1022 0.929 . S
H1055 C1023 0.930 . S
C1056 C1057 1.369 . S
C1056 C1058 1.419 . S
C1056 H1060 0.921 1_556 S
C1057 C1056 1.369 . S
C1057 C1066 1.429 . S
C1058 C1056 1.419 . S
C1058 C1059 1.363 . S
C1058 H1061 0.929 . S
C1059 C1058 1.363 . S
C1059 C1065 1.428 . S
H1060 C1056 0.921 1_554 S
H1061 C1058 0.929 . S
S1062 N1063 1.613 . S
S1062 N1064 1.610 . S
N1063 S1062 1.613 . S
N1063 C1066 1.350 . S
N1064 S1062 1.610 . S
N1064 C1065 1.351 . S
C1065 C1059 1.428 . S
C1065 N1064 1.351 . S
C1065 C1066 1.434 . S
C1066 C1057 1.429 . S
C1066 N1063 1.350 . S
C1066 C1065 1.434 . S
C1067 C1068 1.369 . S
C1067 C1069 1.419 . S
C1067 H1071 0.930 1_556 S
C1068 C1067 1.369 . S
C1068 C1077 1.429 . S
C1069 C1067 1.419 . S
C1069 C1070 1.363 . S
C1069 H1072 0.929 . S
C1070 C1069 1.363 . S
C1070 C1076 1.428 . S
H1071 C1067 0.930 1_554 S
H1072 C1069 0.929 . S
S1073 N1074 1.613 . S
S1073 N1075 1.610 . S
N1074 S1073 1.613 . S
N1074 C1077 1.350 . S
N1075 S1073 1.610 . S
N1075 C1076 1.351 . S
C1076 C1070 1.428 . S
C1076 N1075 1.351 . S
C1076 C1077 1.434 . S
C1077 C1068 1.429 . S
C1077 N1074 1.350 . S
C1077 C1076 1.434 . S
C1078 C1079 1.369 . S
C1078 C1080 1.419 . S
C1078 H1082 0.930 . S
C1079 C1078 1.369 . S
C1079 C1088 1.429 . S
C1080 C1078 1.419 . S
C1080 C1081 1.363 . S
C1080 H1083 0.929 . S
C1081 C1080 1.363 . S
C1081 C1087 1.428 . S
H1082 C1078 0.930 . S
H1083 C1080 0.929 . S
S1084 N1085 1.613 . S
S1084 N1086 1.610 . S
N1085 S1084 1.613 . S
N1085 C1088 1.350 . S
N1086 S1084 1.610 . S
N1086 C1087 1.351 . S
C1087 C1081 1.428 . S
C1087 N1086 1.351 . S
C1087 C1088 1.434 . S
C1088 C1079 1.429 . S
C1088 N1085 1.350 . S
C1088 C1087 1.434 . S
C1089 C1090 1.369 . S
C1089 C1091 1.419 . S
C1089 H1093 0.930 . S
C1090 C1089 1.369 . S
C1090 C1099 1.429 . S
C1091 C1089 1.419 . S
C1091 C1092 1.363 . S
C1091 H1094 0.929 . S
C1092 C1091 1.363 . S
C1092 C1098 1.428 . S
H1093 C1089 0.930 . S
H1094 C1091 0.929 . S
S1095 N1096 1.613 . S
S1095 N1097 1.610 . S
N1096 S1095 1.613 . S
N1096 C1099 1.350 . S
N1097 S1095 1.610 . S
N1097 C1098 1.351 . S
C1098 C1092 1.428 . S
C1098 N1097 1.351 . S
C1098 C1099 1.434 . S
C1099 C1090 1.429 . S
C1099 N1096 1.350 . S
C1099 C1098 1.434 . S
C1100 C1101 1.369 . S
C1100 C1102 1.419 . S
C1100 H1104 0.930 . S
C1101 C1100 1.369 . S
C1101 C1110 1.429 . S
C1102 C1100 1.419 . S
C1102 C1103 1.363 . S
C1102 H1105 0.929 . S
C1103 C1102 1.363 . S
C1103 C1109 1.428 . S
H1104 C1100 0.930 . S
H1105 C1102 0.929 . S
S1106 N1107 1.613 . S
S1106 N1108 1.610 . S
N1107 S1106 1.613 . S
N1107 C1110 1.350 . S
N1108 S1106 1.610 . S
N1108 C1109 1.351 . S
C1109 C1103 1.428 . S
C1109 N1108 1.351 . S
C1109 C1110 1.434 . S
C1110 C1101 1.429 . S
C1110 N1107 1.350 . S
C1110 C1109 1.434 . S
C1111 C1112 1.369 . S
C1111 C1113 1.419 . S
C1111 H1115 0.930 . S
C1112 C1111 1.369 . S
C1112 C1121 1.429 . S
C1113 C1111 1.419 . S
C1113 C1114 1.363 . S
C1113 H1116 0.929 . S
C1114 C1113 1.363 . S
C1114 C1120 1.428 . S
H1115 C1111 0.930 . S
H1116 C1113 0.929 . S
S1117 N1118 1.613 . S
S1117 N1119 1.610 . S
N1118 S1117 1.613 . S
N1118 C1121 1.350 . S
N1119 S1117 1.610 . S
N1119 C1120 1.351 . S
C1120 C1114 1.428 . S
C1120 N1119 1.351 . S
C1120 C1121 1.434 . S
C1121 C1112 1.429 . S
C1121 N1118 1.350 . S
C1121 C1120 1.434 . S
C1122 C1123 1.369 . S
C1122 C1124 1.419 . S
C1122 H1126 0.930 . S
C1123 C1122 1.369 . S
C1123 C1132 1.429 . S
C1124 C1122 1.419 . S
C1124 C1125 1.363 . S
C1124 H1127 0.929 1_554 S
C1125 C1124 1.363 . S
C1125 C1131 1.428 . S
H1126 C1122 0.930 . S
H1127 C1124 0.929 1_556 S
S1128 N1129 1.613 . S
S1128 N1130 1.610 . S
N1129 S1128 1.613 . S
N1129 C1132 1.350 . S
N1130 S1128 1.610 . S
N1130 C1131 1.351 . S
C1131 C1125 1.428 . S
C1131 N1130 1.351 . S
C1131 C1132 1.434 . S
C1132 C1123 1.429 . S
C1132 N1129 1.350 . S
C1132 C1131 1.434 . S
C1133 C1134 1.369 . S
C1133 C1135 1.419 . S
C1133 H1137 0.930 . S
C1134 C1133 1.369 . S
C1134 C1143 1.424 1_554 S
C1135 C1133 1.419 . S
C1135 C1136 1.363 . S
C1135 H1138 0.929 . S
C1136 C1135 1.363 . S
C1136 C1142 1.428 . S
H1137 C1133 0.930 . S
H1138 C1135 0.929 . S
S1139 N1140 1.613 . S
S1139 N1141 1.610 1_556 S
N1140 S1139 1.613 . S
N1140 C1143 1.372 . S
N1141 S1139 1.610 1_554 S
N1141 C1142 1.351 . S
C1142 C1136 1.428 . S
C1142 N1141 1.351 . S
C1142 C1143 1.417 1_554 S
C1143 C1134 1.424 1_556 S
C1143 N1140 1.372 . S
C1143 C1142 1.417 1_556 S
C1144 C1145 1.369 . S
C1144 C1146 1.419 . S
C1144 H1148 0.930 . S
C1145 C1144 1.369 . S
C1145 C1154 1.429 . S
C1146 C1144 1.419 . S
C1146 C1147 1.363 . S
C1146 H1149 0.929 . S
C1147 C1146 1.363 . S
C1147 C1153 1.428 . S
H1148 C1144 0.930 . S
H1149 C1146 0.929 . S
S1150 N1151 1.613 . S
S1150 N1152 1.610 1_554 S
N1151 S1150 1.613 . S
N1151 C1154 1.350 . S
N1152 S1150 1.610 1_556 S
N1152 C1153 1.351 1_556 S
C1153 C1147 1.428 . S
C1153 N1152 1.351 1_554 S
C1153 C1154 1.434 . S
C1154 C1145 1.429 . S
C1154 N1151 1.350 . S
C1154 C1153 1.434 . S
C1155 C1156 1.369 . S
C1155 C1157 1.419 . S
C1155 H1159 0.930 . S
C1156 C1155 1.369 . S
C1156 C1165 1.429 . S
C1157 C1155 1.419 . S
C1157 C1158 1.363 . S
C1157 H1160 0.929 . S
C1158 C1157 1.363 . S
C1158 C1164 1.428 . S
H1159 C1155 0.930 . S
H1160 C1157 0.929 . S
S1161 N1162 1.613 . S
S1161 N1163 1.610 . S
N1162 S1161 1.613 . S
N1162 C1165 1.350 . S
N1163 S1161 1.610 . S
N1163 C1164 1.351 . S
C1164 C1158 1.428 . S
C1164 N1163 1.351 . S
C1164 C1165 1.434 . S
C1165 C1156 1.429 . S
C1165 N1162 1.350 . S
C1165 C1164 1.434 . S
C1166 C1167 1.369 . S
C1166 C1168 1.419 . S
C1166 H1170 0.930 . S
C1167 C1166 1.369 . S
C1167 C1176 1.429 . S
C1168 C1166 1.419 . S
C1168 C1169 1.363 . S
C1168 H1171 0.929 . S
C1169 C1168 1.363 . S
C1169 C1175 1.428 . S
H1170 C1166 0.930 . S
H1171 C1168 0.929 . S
S1172 N1173 1.613 . S
S1172 N1174 1.610 . S
N1173 S1172 1.613 . S
N1173 C1176 1.350 . S
N1174 S1172 1.610 . S
N1174 C1175 1.351 . S
C1175 C1169 1.428 . S
C1175 N1174 1.351 . S
C1175 C1176 1.434 . S
C1176 C1167 1.429 . S
C1176 N1173 1.350 . S
C1176 C1175 1.434 . S
C1177 C1178 1.369 . S
C1177 C1179 1.419 . S
C1177 H1181 0.930 . S
C1178 C1177 1.369 . S
C1178 C1187 1.429 . S
C1179 C1177 1.419 . S
C1179 C1180 1.363 . S
C1179 H1182 0.929 . S
C1180 C1179 1.363 . S
C1180 C1186 1.428 . S
H1181 C1177 0.930 . S
H1182 C1179 0.929 . S
S1183 N1184 1.613 . S
S1183 N1185 1.610 . S
N1184 S1183 1.613 . S
N1184 C1187 1.350 . S
N1185 S1183 1.610 . S
N1185 C1186 1.351 . S
C1186 C1180 1.428 . S
C1186 N1185 1.351 . S
C1186 C1187 1.434 . S
C1187 C1178 1.429 . S
C1187 N1184 1.350 . S
C1187 C1186 1.434 . S
C1188 C1189 1.369 . S
C1188 C1190 1.419 . S
C1188 H1192 0.930 . S
C1189 C1188 1.369 . S
C1189 C1198 1.429 . S
C1190 C1188 1.419 . S
C1190 C1191 1.363 . S
C1190 H1193 0.929 . S
C1191 C1190 1.363 . S
C1191 C1197 1.428 . S
H1192 C1188 0.930 . S
H1193 C1190 0.929 . S
S1194 N1195 1.613 . S
S1194 N1196 1.610 . S
N1195 S1194 1.613 . S
N1195 C1198 1.350 . S
N1196 S1194 1.610 . S
N1196 C1197 1.351 . S
C1197 C1191 1.428 . S
C1197 N1196 1.351 . S
C1197 C1198 1.434 . S
C1198 C1189 1.429 . S
C1198 N1195 1.350 . S
C1198 C1197 1.434 . S
C1199 C1200 1.369 . S
C1199 C1201 1.419 . S
C1199 H1203 0.930 . S
C1200 C1199 1.369 . S
C1200 C1209 1.429 . S
C1201 C1199 1.419 . S
C1201 C1202 1.363 . S
C1201 H1204 0.929 . S
C1202 C1201 1.363 . S
C1202 C1208 1.428 . S
H1203 C1199 0.930 . S
H1204 C1201 0.929 . S
S1205 N1206 1.613 . S
S1205 N1207 1.610 . S
N1206 S1205 1.613 . S
N1206 C1209 1.350 . S
N1207 S1205 1.610 . S
N1207 C1208 1.351 . S
C1208 C1202 1.428 . S
C1208 N1207 1.351 . S
C1208 C1209 1.434 . S
C1209 C1200 1.429 . S
C1209 N1206 1.350 . S
C1209 C1208 1.434 . S
C1210 C1211 1.369 . S
C1210 C1212 1.419 . S
C1210 H1214 0.930 . S
C1211 C1210 1.369 . S
C1211 C1220 1.429 . S
C1212 C1210 1.419 . S
C1212 C1213 1.363 . S
C1212 H1215 0.929 . S
C1213 C1212 1.363 . S
C1213 C1219 1.428 . S
H1214 C1210 0.930 . S
H1215 C1212 0.929 . S
S1216 N1217 1.613 . S
S1216 N1218 1.610 . S
N1217 S1216 1.613 . S
N1217 C1220 1.350 . S
N1218 S1216 1.610 . S
N1218 C1219 1.351 . S
C1219 C1213 1.428 . S
C1219 N1218 1.351 . S
C1219 C1220 1.434 . S
C1220 C1211 1.429 . S
C1220 N1217 1.350 . S
C1220 C1219 1.434 . S
C1221 C1222 1.369 . S
C1221 C1223 1.419 . S
C1221 H1225 0.930 . S
C1222 C1221 1.369 . S
C1222 C1231 1.429 . S
C1223 C1221 1.419 . S
C1223 C1224 1.363 . S
C1223 H1226 0.929 . S
C1224 C1223 1.363 . S
C1224 C1230 1.428 . S
H1225 C1221 0.930 . S
H1226 C1223 0.929 . S
S1227 N1228 1.613 . S
S1227 N1229 1.610 . S
N1228 S1227 1.613 . S
N1228 C1231 1.350 . S
N1229 S1227 1.610 . S
N1229 C1230 1.351 . S
C1230 C1224 1.428 . S
C1230 N1229 1.351 . S
C1230 C1231 1.434 . S
C1231 C1222 1.429 . S
C1231 N1228 1.350 . S
C1231 C1230 1.434 . S
C1232 C1233 1.369 . S
C1232 C1234 1.419 . S
C1232 H1236 0.930 . S
C1233 C1232 1.369 . S
C1233 C1242 1.429 . S
C1234 C1232 1.419 . S
C1234 C1235 1.363 . S
C1234 H1237 0.929 . S
C1235 C1234 1.363 . S
C1235 C1241 1.428 . S
H1236 C1232 0.930 . S
H1237 C1234 0.929 . S
S1238 N1239 1.613 . S
S1238 N1240 1.610 . S
N1239 S1238 1.613 . S
N1239 C1242 1.350 . S
N1240 S1238 1.610 . S
N1240 C1241 1.351 . S
C1241 C1235 1.428 . S
C1241 N1240 1.351 . S
C1241 C1242 1.434 . S
C1242 C1233 1.429 . S
C1242 N1239 1.350 . S
C1242 C1241 1.434 . S
C1243 C1244 1.369 . S
C1243 C1245 1.419 . S
C1243 H1247 0.930 . S
C1244 C1243 1.369 . S
C1244 C1253 1.429 . S
C1245 C1243 1.419 . S
C1245 C1246 1.363 . S
C1245 H1248 0.929 . S
C1246 C1245 1.363 . S
C1246 C1252 1.428 . S
H1247 C1243 0.930 . S
H1248 C1245 0.929 . S
S1249 N1250 1.613 . S
S1249 N1251 1.610 . S
N1250 S1249 1.613 . S
N1250 C1253 1.350 . S
N1251 S1249 1.610 . S
N1251 C1252 1.351 . S
C1252 C1246 1.428 . S
C1252 N1251 1.351 . S
C1252 C1253 1.434 . S
C1253 C1244 1.429 . S
C1253 N1250 1.350 . S
C1253 C1252 1.434 . S
C1254 C1255 1.369 . S
C1254 C1256 1.419 1_455 S
C1254 H1258 0.930 . S
C1255 C1254 1.369 . S
C1255 C1264 1.429 1_554 S
C1256 C1254 1.419 1_655 S
C1256 C1257 1.363 1_554 S
C1256 H1259 0.929 . S
C1257 C1256 1.363 1_556 S
C1257 C1263 1.428 . S
H1258 C1254 0.930 . S
H1259 C1256 0.929 . S
S1260 N1261 1.613 . S
S1260 N1262 1.610 1_455 S
N1261 S1260 1.613 . S
N1261 C1264 1.350 . S
N1262 S1260 1.610 1_655 S
N1262 C1263 1.351 . S
C1263 C1257 1.428 . S
C1263 N1262 1.351 . S
C1263 C1264 1.434 1_655 S
C1264 C1255 1.429 1_556 S
C1264 N1261 1.350 . S
C1264 C1263 1.434 1_455 S
C1265 C1266 1.369 . S
C1265 C1267 1.419 1_554 S
C1265 H1269 0.930 . S
C1266 C1265 1.369 . S
C1266 C1275 1.429 . S
C1267 C1265 1.419 1_556 S
C1267 C1268 1.363 . S
C1267 H1270 0.929 . S
C1268 C1267 1.363 . S
C1268 C1274 1.428 . S
H1269 C1265 0.930 . S
H1270 C1267 0.929 . S
S1271 N1272 1.613 . S
S1271 N1273 1.610 . S
N1272 S1271 1.613 . S
N1272 C1275 1.350 1_556 S
N1273 S1271 1.610 . S
N1273 C1274 1.351 . S
C1274 C1268 1.428 . S
C1274 N1273 1.351 . S
C1274 C1275 1.434 1_556 S
C1275 C1266 1.429 . S
C1275 N1272 1.350 1_554 S
C1275 C1274 1.434 1_554 S
C1276 C1277 1.369 1_545 S
C1276 C1278 1.419 . S
C1276 H1280 0.930 . S
C1277 C1276 1.369 1_565 S
C1277 C1286 1.429 1_554 S
C1278 C1276 1.419 . S
C1278 C1279 1.363 1_554 S
C1278 H1281 0.929 . S
C1279 C1278 1.363 1_556 S
C1279 C1285 1.428 1_545 S
H1280 C1276 0.930 . S
H1281 C1278 0.929 . S
S1282 N1283 1.613 . S
S1282 N1284 1.610 . S
N1283 S1282 1.613 . S
N1283 C1286 1.350 . S
N1284 S1282 1.610 . S
N1284 C1285 1.351 . S
C1285 C1279 1.428 1_565 S
C1285 N1284 1.351 . S
C1285 C1286 1.434 . S
C1286 C1277 1.429 1_556 S
C1286 N1283 1.350 . S
C1286 C1285 1.434 . S
C1287 C1288 1.369 1_545 S
C1287 C1289 1.419 . S
C1287 H1291 0.930 . S
C1288 C1287 1.369 1_565 S
C1288 C1297 1.429 . S
C1289 C1287 1.419 . S
C1289 C1290 1.363 . S
C1289 H1292 0.929 . S
C1290 C1289 1.363 . S
C1290 C1296 1.428 1_545 S
H1291 C1287 0.930 . S
H1292 C1289 0.929 . S
S1293 N1294 1.613 . S
S1293 N1295 1.610 . S
N1294 S1293 1.613 . S
N1294 C1297 1.350 . S
N1295 S1293 1.610 . S
N1295 C1296 1.351 . S
C1296 C1290 1.428 1_565 S
C1296 N1295 1.351 . S
C1296 C1297 1.434 . S
C1297 C1288 1.429 . S
C1297 N1294 1.350 . S
C1297 C1296 1.434 . S
C1298 C1299 1.369 . S
C1298 C1300 1.419 . S
C1298 H1302 0.930 . S
C1299 C1298 1.369 . S
C1299 C1308 1.429 1_655 S
C1300 C1298 1.419 . S
C1300 C1301 1.363 1_655 S
C1300 H1303 0.929 . S
C1301 C1300 1.363 1_455 S
C1301 C1307 1.428 . S
H1302 C1298 0.930 . S
H1303 C1300 0.929 . S
S1304 N1305 1.613 . S
S1304 N1306 1.610 . S
N1305 S1304 1.613 . S
N1305 C1308 1.350 . S
N1306 S1304 1.610 . S
N1306 C1307 1.351 . S
C1307 C1301 1.428 . S
C1307 N1306 1.351 . S
C1307 C1308 1.434 . S
C1308 C1299 1.429 1_455 S
C1308 N1305 1.350 . S
C1308 C1307 1.434 . S
C1309 C1310 1.369 . S
C1309 C1311 1.419 . S
C1309 H1313 0.930 . S
C1310 C1309 1.369 . S
C1310 C1319 1.429 . S
C1311 C1309 1.419 . S
C1311 C1312 1.363 . S
C1311 H1314 0.929 . S
C1312 C1311 1.363 . S
C1312 C1318 1.428 . S
H1313 C1309 0.930 . S
H1314 C1311 0.929 . S
S1315 N1316 1.613 . S
S1315 N1317 1.610 . S
N1316 S1315 1.613 . S
N1316 C1319 1.350 . S
N1317 S1315 1.610 . S
N1317 C1318 1.351 . S
C1318 C1312 1.428 . S
C1318 N1317 1.351 . S
C1318 C1319 1.434 . S
C1319 C1310 1.429 . S
C1319 N1316 1.350 . S
C1319 C1318 1.434 . S
C1057 C49 0.548 . S
C1059 C636 0.579 . S
C1068 C145 0.522 . S
C1070 C753 0.586 . S
C1079 C233 0.533 . S
C1081 C577 0.588 . S
C1090 C997 0.596 . S
C1092 C284 0.520 . S
C1101 C372 0.536 . S
C1103 C849 0.568 . S
C1112 C900 0.586 . S
C1114 C469 0.525 . S
C1123 C137 0.593 . S
C1125 C548 0.523 . S
C1134 C673 0.505 . S
C1136 C225 0.564 . S
C1145 C57 0.568 . S
C1147 C733 0.527 . S
C1156 C812 0.529 . S
C1158 C460 0.567 . S
C1167 C937 0.518 . S
C1169 C293 0.557 . S
C1178 C381 0.563 . S
C1180 C1025 0.541 . S
C1189 C489 2.790 . S
C1191 C29 2.796 . S
C1200 C108 2.787 . S
C1202 C321 2.781 . S
C1211 C196 2.780 . S
C1213 C409 2.786 . S
C1222 C585 2.792 . S
C1224 C988 2.800 . S
C1233 C665 2.765 . S
C1235 C821 2.773 . S
C1244 C724 2.775 . S
C1246 C929 2.766 . S
C1255 C20 1.970 . S
C1257 C557 1.989 . S
C1266 C117 1.964 . S
C1268 C645 1.962 . S
C1277 C205 1.967 . S
C1279 C761 1.956 . S
C1288 C313 1.971 . S
C1290 C841 1.953 . S
C1299 C909 1.956 . S
C1301 C401 1.970 . S
C1310 C497 1.978 . S
C1312 C1017 1.983 . S
