# Generated by pormake.
# Topology ubt, (5)-cn, num edge types: 1
# Building blocks:
#     Node 0, Type 0, BuildingBlock: XOMCOT_clean_sbu_0, # of connection points: 5
#     Node 1, Type 0, BuildingBlock: XOMCOT_clean_sbu_0, # of connection points: 5
#     Node 2, Type 0, BuildingBlock: XOMCOT_clean_sbu_0, # of connection points: 5
#     Node 3, Type 0, BuildingBlock: XOMCOT_clean_sbu_0, # of connection points: 5
#     Node 4, Type 0, BuildingBlock: XOMCOT_clean_sbu_0, # of connection points: 5
#     Node 5, Type 0, BuildingBlock: XOMCOT_clean_sbu_0, # of connection points: 5
#     Node 6, Type 0, BuildingBlock: XOMCOT_clean_sbu_0, # of connection points: 5
#     Node 7, Type 0, BuildingBlock: XOMCOT_clean_sbu_0, # of connection points: 5
#     Node 8, Type 0, BuildingBlock: XOMCOT_clean_sbu_0, # of connection points: 5
#     Node 9, Type 0, BuildingBlock: XOMCOT_clean_sbu_0, # of connection points: 5
#     Node 10, Type 0, BuildingBlock: XOMCOT_clean_sbu_0, # of connection points: 5
#     Node 11, Type 0, BuildingBlock: XOMCOT_clean_sbu_0, # of connection points: 5
#     Node 12, Type 0, BuildingBlock: XOMCOT_clean_sbu_0, # of connection points: 5
#     Node 13, Type 0, BuildingBlock: XOMCOT_clean_sbu_0, # of connection points: 5
#     Node 14, Type 0, BuildingBlock: XOMCOT_clean_sbu_0, # of connection points: 5
#     Node 15, Type 0, BuildingBlock: XOMCOT_clean_sbu_0, # of connection points: 5
#     Node 16, Type 0, BuildingBlock: XOMCOT_clean_sbu_0, # of connection points: 5
#     Node 17, Type 0, BuildingBlock: XOMCOT_clean_sbu_0, # of connection points: 5
#     Node 18, Type 0, BuildingBlock: XOMCOT_clean_sbu_0, # of connection points: 5
#     Node 19, Type 0, BuildingBlock: XOMCOT_clean_sbu_0, # of connection points: 5
#     Node 20, Type 0, BuildingBlock: XOMCOT_clean_sbu_0, # of connection points: 5
#     Node 21, Type 0, BuildingBlock: XOMCOT_clean_sbu_0, # of connection points: 5
#     Node 22, Type 0, BuildingBlock: XOMCOT_clean_sbu_0, # of connection points: 5
#     Node 23, Type 0, BuildingBlock: XOMCOT_clean_sbu_0, # of connection points: 5
#     Node 24, Type 0, BuildingBlock: XOMCOT_clean_sbu_0, # of connection points: 5
#     Node 25, Type 0, BuildingBlock: XOMCOT_clean_sbu_0, # of connection points: 5
#     Node 26, Type 0, BuildingBlock: XOMCOT_clean_sbu_0, # of connection points: 5
#     Node 27, Type 0, BuildingBlock: XOMCOT_clean_sbu_0, # of connection points: 5
#     Node 28, Type 0, BuildingBlock: XOMCOT_clean_sbu_0, # of connection points: 5
#     Node 29, Type 0, BuildingBlock: XOMCOT_clean_sbu_0, # of connection points: 5
#     Node 30, Type 0, BuildingBlock: XOMCOT_clean_sbu_0, # of connection points: 5
#     Node 31, Type 0, BuildingBlock: XOMCOT_clean_sbu_0, # of connection points: 5
#     Node 32, Type 0, BuildingBlock: XOMCOT_clean_sbu_0, # of connection points: 5
#     Node 33, Type 0, BuildingBlock: XOMCOT_clean_sbu_0, # of connection points: 5
#     Node 34, Type 0, BuildingBlock: XOMCOT_clean_sbu_0, # of connection points: 5
#     Node 35, Type 0, BuildingBlock: XOMCOT_clean_sbu_0, # of connection points: 5
#     Node 36, Type 0, BuildingBlock: XOMCOT_clean_sbu_0, # of connection points: 5
#     Node 37, Type 0, BuildingBlock: XOMCOT_clean_sbu_0, # of connection points: 5
#     Node 38, Type 0, BuildingBlock: XOMCOT_clean_sbu_0, # of connection points: 5
#     Node 39, Type 0, BuildingBlock: XOMCOT_clean_sbu_0, # of connection points: 5
#     Node 40, Type 0, BuildingBlock: XOMCOT_clean_sbu_0, # of connection points: 5
#     Node 41, Type 0, BuildingBlock: XOMCOT_clean_sbu_0, # of connection points: 5
#     Node 42, Type 0, BuildingBlock: XOMCOT_clean_sbu_0, # of connection points: 5
#     Node 43, Type 0, BuildingBlock: XOMCOT_clean_sbu_0, # of connection points: 5
#     Node 44, Type 0, BuildingBlock: XOMCOT_clean_sbu_0, # of connection points: 5
#     Node 45, Type 0, BuildingBlock: XOMCOT_clean_sbu_0, # of connection points: 5
#     Node 46, Type 0, BuildingBlock: XOMCOT_clean_sbu_0, # of connection points: 5
#     Node 47, Type 0, BuildingBlock: XOMCOT_clean_sbu_0, # of connection points: 5
#     Edge 48, Type (0, 0), BuildingBlock: KIFKEQ_clean_linker_1, # of connection points: 2
#     Edge 49, Type (0, 0), BuildingBlock: KIFKEQ_clean_linker_1, # of connection points: 2
#     Edge 50, Type (0, 0), BuildingBlock: KIFKEQ_clean_linker_1, # of connection points: 2
#     Edge 51, Type (0, 0), BuildingBlock: KIFKEQ_clean_linker_1, # of connection points: 2
#     Edge 52, Type (0, 0), BuildingBlock: KIFKEQ_clean_linker_1, # of connection points: 2
#     Edge 53, Type (0, 0), BuildingBlock: KIFKEQ_clean_linker_1, # of connection points: 2
#     Edge 54, Type (0, 0), BuildingBlock: KIFKEQ_clean_linker_1, # of connection points: 2
#     Edge 55, Type (0, 0), BuildingBlock: KIFKEQ_clean_linker_1, # of connection points: 2
#     Edge 56, Type (0, 0), BuildingBlock: KIFKEQ_clean_linker_1, # of connection points: 2
#     Edge 57, Type (0, 0), BuildingBlock: KIFKEQ_clean_linker_1, # of connection points: 2
#     Edge 58, Type (0, 0), BuildingBlock: KIFKEQ_clean_linker_1, # of connection points: 2
#     Edge 59, Type (0, 0), BuildingBlock: KIFKEQ_clean_linker_1, # of connection points: 2
#     Edge 60, Type (0, 0), BuildingBlock: KIFKEQ_clean_linker_1, # of connection points: 2
#     Edge 61, Type (0, 0), BuildingBlock: KIFKEQ_clean_linker_1, # of connection points: 2
#     Edge 62, Type (0, 0), BuildingBlock: KIFKEQ_clean_linker_1, # of connection points: 2
#     Edge 63, Type (0, 0), BuildingBlock: KIFKEQ_clean_linker_1, # of connection points: 2
#     Edge 64, Type (0, 0), BuildingBlock: KIFKEQ_clean_linker_1, # of connection points: 2
#     Edge 65, Type (0, 0), BuildingBlock: KIFKEQ_clean_linker_1, # of connection points: 2
#     Edge 66, Type (0, 0), BuildingBlock: KIFKEQ_clean_linker_1, # of connection points: 2
#     Edge 67, Type (0, 0), BuildingBlock: KIFKEQ_clean_linker_1, # of connection points: 2
#     Edge 68, Type (0, 0), BuildingBlock: KIFKEQ_clean_linker_1, # of connection points: 2
#     Edge 69, Type (0, 0), BuildingBlock: KIFKEQ_clean_linker_1, # of connection points: 2
#     Edge 70, Type (0, 0), BuildingBlock: KIFKEQ_clean_linker_1, # of connection points: 2
#     Edge 71, Type (0, 0), BuildingBlock: KIFKEQ_clean_linker_1, # of connection points: 2
#     Edge 72, Type (0, 0), BuildingBlock: KIFKEQ_clean_linker_1, # of connection points: 2
#     Edge 73, Type (0, 0), BuildingBlock: KIFKEQ_clean_linker_1, # of connection points: 2
#     Edge 74, Type (0, 0), BuildingBlock: KIFKEQ_clean_linker_1, # of connection points: 2
#     Edge 75, Type (0, 0), BuildingBlock: KIFKEQ_clean_linker_1, # of connection points: 2
#     Edge 76, Type (0, 0), BuildingBlock: KIFKEQ_clean_linker_1, # of connection points: 2
#     Edge 77, Type (0, 0), BuildingBlock: KIFKEQ_clean_linker_1, # of connection points: 2
#     Edge 78, Type (0, 0), BuildingBlock: KIFKEQ_clean_linker_1, # of connection points: 2
#     Edge 79, Type (0, 0), BuildingBlock: KIFKEQ_clean_linker_1, # of connection points: 2
#     Edge 80, Type (0, 0), BuildingBlock: KIFKEQ_clean_linker_1, # of connection points: 2
#     Edge 81, Type (0, 0), BuildingBlock: KIFKEQ_clean_linker_1, # of connection points: 2
#     Edge 82, Type (0, 0), BuildingBlock: KIFKEQ_clean_linker_1, # of connection points: 2
#     Edge 83, Type (0, 0), BuildingBlock: KIFKEQ_clean_linker_1, # of connection points: 2
#     Edge 84, Type (0, 0), BuildingBlock: KIFKEQ_clean_linker_1, # of connection points: 2
#     Edge 85, Type (0, 0), BuildingBlock: KIFKEQ_clean_linker_1, # of connection points: 2
#     Edge 86, Type (0, 0), BuildingBlock: KIFKEQ_clean_linker_1, # of connection points: 2
#     Edge 87, Type (0, 0), BuildingBlock: KIFKEQ_clean_linker_1, # of connection points: 2
#     Edge 88, Type (0, 0), BuildingBlock: KIFKEQ_clean_linker_1, # of connection points: 2
#     Edge 89, Type (0, 0), BuildingBlock: KIFKEQ_clean_linker_1, # of connection points: 2
#     Edge 90, Type (0, 0), BuildingBlock: KIFKEQ_clean_linker_1, # of connection points: 2
#     Edge 91, Type (0, 0), BuildingBlock: KIFKEQ_clean_linker_1, # of connection points: 2
#     Edge 92, Type (0, 0), BuildingBlock: KIFKEQ_clean_linker_1, # of connection points: 2
#     Edge 93, Type (0, 0), BuildingBlock: KIFKEQ_clean_linker_1, # of connection points: 2
#     Edge 94, Type (0, 0), BuildingBlock: KIFKEQ_clean_linker_1, # of connection points: 2
#     Edge 95, Type (0, 0), BuildingBlock: KIFKEQ_clean_linker_1, # of connection points: 2
#     Edge 96, Type (0, 0), BuildingBlock: KIFKEQ_clean_linker_1, # of connection points: 2
#     Edge 97, Type (0, 0), BuildingBlock: KIFKEQ_clean_linker_1, # of connection points: 2
#     Edge 98, Type (0, 0), BuildingBlock: KIFKEQ_clean_linker_1, # of connection points: 2
#     Edge 99, Type (0, 0), BuildingBlock: KIFKEQ_clean_linker_1, # of connection points: 2
#     Edge 100, Type (0, 0), BuildingBlock: KIFKEQ_clean_linker_1, # of connection points: 2
#     Edge 101, Type (0, 0), BuildingBlock: KIFKEQ_clean_linker_1, # of connection points: 2
#     Edge 102, Type (0, 0), BuildingBlock: KIFKEQ_clean_linker_1, # of connection points: 2
#     Edge 103, Type (0, 0), BuildingBlock: KIFKEQ_clean_linker_1, # of connection points: 2
#     Edge 104, Type (0, 0), BuildingBlock: KIFKEQ_clean_linker_1, # of connection points: 2
#     Edge 105, Type (0, 0), BuildingBlock: KIFKEQ_clean_linker_1, # of connection points: 2
#     Edge 106, Type (0, 0), BuildingBlock: KIFKEQ_clean_linker_1, # of connection points: 2
#     Edge 107, Type (0, 0), BuildingBlock: KIFKEQ_clean_linker_1, # of connection points: 2
#     Edge 108, Type (0, 0), BuildingBlock: KIFKEQ_clean_linker_1, # of connection points: 2
#     Edge 109, Type (0, 0), BuildingBlock: KIFKEQ_clean_linker_1, # of connection points: 2
#     Edge 110, Type (0, 0), BuildingBlock: KIFKEQ_clean_linker_1, # of connection points: 2
#     Edge 111, Type (0, 0), BuildingBlock: KIFKEQ_clean_linker_1, # of connection points: 2
#     Edge 112, Type (0, 0), BuildingBlock: KIFKEQ_clean_linker_1, # of connection points: 2
#     Edge 113, Type (0, 0), BuildingBlock: KIFKEQ_clean_linker_1, # of connection points: 2
#     Edge 114, Type (0, 0), BuildingBlock: KIFKEQ_clean_linker_1, # of connection points: 2
#     Edge 115, Type (0, 0), BuildingBlock: KIFKEQ_clean_linker_1, # of connection points: 2
#     Edge 116, Type (0, 0), BuildingBlock: KIFKEQ_clean_linker_1, # of connection points: 2
#     Edge 117, Type (0, 0), BuildingBlock: KIFKEQ_clean_linker_1, # of connection points: 2
#     Edge 118, Type (0, 0), BuildingBlock: KIFKEQ_clean_linker_1, # of connection points: 2
#     Edge 119, Type (0, 0), BuildingBlock: KIFKEQ_clean_linker_1, # of connection points: 2
#     Edge 120, Type (0, 0), BuildingBlock: KIFKEQ_clean_linker_1, # of connection points: 2
#     Edge 121, Type (0, 0), BuildingBlock: KIFKEQ_clean_linker_1, # of connection points: 2
#     Edge 122, Type (0, 0), BuildingBlock: KIFKEQ_clean_linker_1, # of connection points: 2
#     Edge 123, Type (0, 0), BuildingBlock: KIFKEQ_clean_linker_1, # of connection points: 2
#     Edge 124, Type (0, 0), BuildingBlock: KIFKEQ_clean_linker_1, # of connection points: 2
#     Edge 125, Type (0, 0), BuildingBlock: KIFKEQ_clean_linker_1, # of connection points: 2
#     Edge 126, Type (0, 0), BuildingBlock: KIFKEQ_clean_linker_1, # of connection points: 2
#     Edge 127, Type (0, 0), BuildingBlock: KIFKEQ_clean_linker_1, # of connection points: 2
#     Edge 128, Type (0, 0), BuildingBlock: KIFKEQ_clean_linker_1, # of connection points: 2
#     Edge 129, Type (0, 0), BuildingBlock: KIFKEQ_clean_linker_1, # of connection points: 2
#     Edge 130, Type (0, 0), BuildingBlock: KIFKEQ_clean_linker_1, # of connection points: 2
#     Edge 131, Type (0, 0), BuildingBlock: KIFKEQ_clean_linker_1, # of connection points: 2
#     Edge 132, Type (0, 0), BuildingBlock: KIFKEQ_clean_linker_1, # of connection points: 2
#     Edge 133, Type (0, 0), BuildingBlock: KIFKEQ_clean_linker_1, # of connection points: 2
#     Edge 134, Type (0, 0), BuildingBlock: KIFKEQ_clean_linker_1, # of connection points: 2
#     Edge 135, Type (0, 0), BuildingBlock: KIFKEQ_clean_linker_1, # of connection points: 2
#     Edge 136, Type (0, 0), BuildingBlock: KIFKEQ_clean_linker_1, # of connection points: 2
#     Edge 137, Type (0, 0), BuildingBlock: KIFKEQ_clean_linker_1, # of connection points: 2
#     Edge 138, Type (0, 0), BuildingBlock: KIFKEQ_clean_linker_1, # of connection points: 2
#     Edge 139, Type (0, 0), BuildingBlock: KIFKEQ_clean_linker_1, # of connection points: 2
#     Edge 140, Type (0, 0), BuildingBlock: KIFKEQ_clean_linker_1, # of connection points: 2
#     Edge 141, Type (0, 0), BuildingBlock: KIFKEQ_clean_linker_1, # of connection points: 2
#     Edge 142, Type (0, 0), BuildingBlock: KIFKEQ_clean_linker_1, # of connection points: 2
#     Edge 143, Type (0, 0), BuildingBlock: KIFKEQ_clean_linker_1, # of connection points: 2
#     Edge 144, Type (0, 0), BuildingBlock: KIFKEQ_clean_linker_1, # of connection points: 2
#     Edge 145, Type (0, 0), BuildingBlock: KIFKEQ_clean_linker_1, # of connection points: 2
#     Edge 146, Type (0, 0), BuildingBlock: KIFKEQ_clean_linker_1, # of connection points: 2
#     Edge 147, Type (0, 0), BuildingBlock: KIFKEQ_clean_linker_1, # of connection points: 2
#     Edge 148, Type (0, 0), BuildingBlock: KIFKEQ_clean_linker_1, # of connection points: 2
#     Edge 149, Type (0, 0), BuildingBlock: KIFKEQ_clean_linker_1, # of connection points: 2
#     Edge 150, Type (0, 0), BuildingBlock: KIFKEQ_clean_linker_1, # of connection points: 2
#     Edge 151, Type (0, 0), BuildingBlock: KIFKEQ_clean_linker_1, # of connection points: 2
#     Edge 152, Type (0, 0), BuildingBlock: KIFKEQ_clean_linker_1, # of connection points: 2
#     Edge 153, Type (0, 0), BuildingBlock: KIFKEQ_clean_linker_1, # of connection points: 2
#     Edge 154, Type (0, 0), BuildingBlock: KIFKEQ_clean_linker_1, # of connection points: 2
#     Edge 155, Type (0, 0), BuildingBlock: KIFKEQ_clean_linker_1, # of connection points: 2
#     Edge 156, Type (0, 0), BuildingBlock: KIFKEQ_clean_linker_1, # of connection points: 2
#     Edge 157, Type (0, 0), BuildingBlock: KIFKEQ_clean_linker_1, # of connection points: 2
#     Edge 158, Type (0, 0), BuildingBlock: KIFKEQ_clean_linker_1, # of connection points: 2
#     Edge 159, Type (0, 0), BuildingBlock: KIFKEQ_clean_linker_1, # of connection points: 2
#     Edge 160, Type (0, 0), BuildingBlock: KIFKEQ_clean_linker_1, # of connection points: 2
#     Edge 161, Type (0, 0), BuildingBlock: KIFKEQ_clean_linker_1, # of connection points: 2
#     Edge 162, Type (0, 0), BuildingBlock: KIFKEQ_clean_linker_1, # of connection points: 2
#     Edge 163, Type (0, 0), BuildingBlock: KIFKEQ_clean_linker_1, # of connection points: 2
#     Edge 164, Type (0, 0), BuildingBlock: KIFKEQ_clean_linker_1, # of connection points: 2
#     Edge 165, Type (0, 0), BuildingBlock: KIFKEQ_clean_linker_1, # of connection points: 2
#     Edge 166, Type (0, 0), BuildingBlock: KIFKEQ_clean_linker_1, # of connection points: 2
#     Edge 167, Type (0, 0), BuildingBlock: KIFKEQ_clean_linker_1, # of connection points: 2
# Relax obj value: 0.235
# Max RMSD: 0.207
# Mean RMSD: 0.203
data_MOF--net-ubt--node1-XOMCOT_clean_sbu_0--edge1-KIFKEQ_clean_linker_1
_symmetry_space_group_name_H-M    P1
_symmetry_Int_Tables_number       1
_symmetry_cell_setting            triclinic
loop_
_symmetry_equiv_pos_as_xyz
'x, y, z'
_cell_length_a     72.796809
_cell_length_b     72.58381
_cell_length_c     73.476985
_cell_angle_alpha  89.986231
_cell_angle_beta   89.991067
_cell_angle_gamma 89.97303
loop_
_atom_site_label
_atom_site_type_symbol
_atom_site_fract_x
_atom_site_fract_y
_atom_site_fract_z
_atom_type_partial_charge
Co0 Co 0.00062 0.16238 0.16399 0.0
C1 C 0.97173 0.16915 0.13581 0.0
C2 C 0.99148 0.19099 0.1375 0.0
C3 C 0.97951 0.1949 0.12358 0.0
N4 N 0.98658 0.17489 0.14527 0.0
N5 N 0.96713 0.18113 0.12248 0.0
H6 H 0.96453 0.15641 0.13835 0.0
H7 H 0.00334 0.19907 0.14133 0.0
C8 C 0.04032 0.16468 0.1502 0.0
O9 O 0.04718 0.15945 0.16587 0.0
N10 N 0.01479 0.14963 0.18243 0.0
C11 C 0.01796 0.15435 0.19989 0.0
C12 C 0.02999 0.14171 0.20734 0.0
C13 C 0.02404 0.13376 0.17983 0.0
N14 N 0.0339 0.12888 0.1946 0.0
C15 C 0.98756 0.19424 0.18205 0.0
C16 C 0.02096 0.21069 0.18928 0.0
C17 C 0.00482 0.21929 0.19532 0.0
C18 C 0.98795 0.2109 0.19145 0.0
C19 C 0.01996 0.19399 0.1799 0.0
N20 N 0.0034 0.18586 0.17651 0.0
H21 H 0.97441 0.188 0.17918 0.0
H22 H 0.03256 0.18761 0.17589 0.0
H23 H 0.01242 0.16637 0.20662 0.0
H24 H 0.02486 0.12691 0.16678 0.0
O25 O 0.9786 0.15429 0.17609 0.0
O26 O 0.993 0.13858 0.15451 0.0
O27 O 0.02298 0.16669 0.14807 0.0
C28 C 0.97953 0.13951 0.1662 0.0
H29 H 0.98034 0.20663 0.11452 0.0
H30 H 0.03582 0.14225 0.22087 0.0
H31 H 0.0343 0.21676 0.19184 0.0
H32 H 0.97513 0.21689 0.19603 0.0
Co33 Co 0.84708 0.00578 0.15963 0.0
C34 C 0.8715 0.03613 0.17229 0.0
C35 C 0.87361 0.01228 0.18929 0.0
C36 C 0.88711 0.02454 0.19427 0.0
N37 N 0.8638 0.01943 0.17537 0.0
N38 N 0.88584 0.03945 0.18345 0.0
H39 H 0.86781 0.04517 0.16122 0.0
H40 H 0.87221 0.99852 0.19461 0.0
C41 C 0.85788 0.96597 0.16435 0.0
O42 O 0.84063 0.96105 0.16242 0.0
N43 N 0.83117 0.99204 0.14341 0.0
C44 C 0.81271 0.99049 0.14279 0.0
C45 C 0.80807 0.97946 0.12821 0.0
C46 C 0.83737 0.98235 0.12902 0.0
N47 N 0.82364 0.97429 0.11963 0.0
C48 C 0.81548 0.0116 0.18191 0.0
C49 C 0.82206 0.98501 0.20795 0.0
C50 C 0.80562 0.99501 0.20866 0.0
C51 C 0.80264 0.00871 0.19563 0.0
C52 C 0.8346 0.98829 0.19386 0.0
N53 N 0.83094 0.00099 0.18053 0.0
H54 H 0.81245 0.02212 0.17204 0.0
H55 H 0.84714 0.98052 0.194 0.0
H56 H 0.80313 0.99682 0.15205 0.0
H57 H 0.85178 0.98124 0.1256 0.0
O58 O 0.83589 0.02826 0.15142 0.0
O59 O 0.85979 0.01511 0.1381 0.0
O60 O 0.86241 0.983 0.16394 0.0
C61 C 0.84763 0.02829 0.13817 0.0
H62 H 0.89767 0.02219 0.20438 0.0
H63 H 0.7943 0.97533 0.12445 0.0
H64 H 0.82508 0.97452 0.21801 0.0
H65 H 0.79041 0.01721 0.196 0.0
Co66 Co 0.9989 0.85017 0.1586 0.0
C67 C 0.96778 0.86586 0.17961 0.0
C68 C 0.99254 0.88075 0.18468 0.0
C69 C 0.97814 0.89051 0.19188 0.0
N70 N 0.98621 0.86507 0.17698 0.0
N71 N 0.96249 0.88136 0.18835 0.0
H72 H 0.95817 0.85616 0.17383 0.0
H73 H 0.00614 0.88634 0.18325 0.0
C74 C 0.03268 0.86427 0.17778 0.0
O75 O 0.02702 0.85668 0.19302 0.0
N76 N 0.01131 0.83649 0.13979 0.0
C77 C 0.00722 0.81984 0.13271 0.0
C78 C 0.01876 0.81667 0.11807 0.0
C79 C 0.025 0.84319 0.12947 0.0
N80 N 0.02992 0.83138 0.11626 0.0
C81 C 0.99097 0.82467 0.1872 0.0
C82 C 0.0249 0.80748 0.18761 0.0
C83 C 0.01109 0.80112 0.19931 0.0
C84 C 0.99395 0.80993 0.199 0.0
C85 C 0.02132 0.82225 0.17594 0.0
N86 N 0.00463 0.83092 0.17611 0.0
H87 H 0.9775 0.83081 0.18672 0.0
H88 H 0.03203 0.82677 0.16678 0.0
H89 H 0.99644 0.81087 0.1376 0.0
H90 H 0.03084 0.8568 0.13113 0.0
O91 O 0.97592 0.84041 0.15034 0.0
O92 O 0.98885 0.86604 0.13981 0.0
O93 O 0.0227 0.86357 0.16348 0.0
C94 C 0.97527 0.85432 0.13923 0.0
H95 H 0.97896 0.90443 0.19712 0.0
H96 H 0.01894 0.80456 0.10947 0.0
H97 H 0.03824 0.80088 0.1872 0.0
H98 H 0.98288 0.80549 0.20783 0.0
Co99 Co 0.15618 0.00745 0.16474 0.0
C100 C 0.13741 0.9718 0.17356 0.0
C101 C 0.12892 0.99391 0.19097 0.0
C102 C 0.1192 0.97847 0.19563 0.0
N103 N 0.14043 0.98985 0.17715 0.0
N104 N 0.12447 0.96457 0.18467 0.0
H105 H 0.14422 0.96414 0.16291 0.0
H106 H 0.12704 0.00734 0.19697 0.0
C107 C 0.14136 0.04458 0.17592 0.0
O108 O 0.15813 0.05125 0.17651 0.0
N109 N 0.17155 0.02524 0.15218 0.0
C110 C 0.18981 0.02813 0.15352 0.0
C111 C 0.19469 0.04207 0.14178 0.0
C112 C 0.1657 0.03721 0.13935 0.0
N113 N 0.17951 0.0478 0.13291 0.0
C114 C 0.18674 0.99911 0.18746 0.0
C115 C 0.17498 0.01641 0.21881 0.0
C116 C 0.19114 0.00593 0.21931 0.0
C117 C 0.19709 0.99749 0.20326 0.0
C118 C 0.16498 0.01776 0.20257 0.0
N119 N 0.17092 0.00925 0.18699 0.0
H120 H 0.19167 0.99204 0.17555 0.0
H121 H 0.15217 0.02508 0.20303 0.0
H122 H 0.19917 0.02074 0.1622 0.0
H123 H 0.15149 0.03841 0.13519 0.0
O124 O 0.16964 0.98794 0.153 0.0
O125 O 0.14478 0.00114 0.14157 0.0
O126 O 0.13865 0.02764 0.17206 0.0
C127 C 0.15802 0.98923 0.13971 0.0
H128 H 0.10835 0.97783 0.20568 0.0
H129 H 0.20842 0.04739 0.13978 0.0
H130 H 0.16976 0.02299 0.23098 0.0
H131 H 0.20969 0.98957 0.20284 0.0
Co132 Co 0.00014 0.85116 0.8511 0.0
C133 C 0.03357 0.87484 0.84669 0.0
C134 C 0.01715 0.8734 0.82248 0.0
C135 C 0.03206 0.88445 0.81902 0.0
N136 N 0.01817 0.86716 0.83975 0.0
N137 N 0.04231 0.88536 0.83424 0.0
H138 H 0.03839 0.8729 0.86046 0.0
H139 H 0.00619 0.87023 0.81305 0.0
C140 C 0.96322 0.86884 0.84182 0.0
O141 O 0.95419 0.85393 0.84648 0.0
N142 N 0.98213 0.83534 0.86258 0.0
C143 C 0.97927 0.81721 0.85989 0.0
C144 C 0.96662 0.81109 0.87251 0.0
C145 C 0.9717 0.83983 0.87709 0.0
N146 N 0.96187 0.82537 0.88332 0.0
C147 C 0.01584 0.82903 0.82388 0.0
C148 C 0.98501 0.8223 0.80304 0.0
C149 C 0.0017 0.81388 0.79831 0.0
C150 C 0.01726 0.81762 0.80879 0.0
C151 C 0.98416 0.8337 0.81842 0.0
N152 N 0.99946 0.83675 0.82876 0.0
H153 H 0.02809 0.83174 0.8317 0.0
H154 H 0.97115 0.83955 0.82205 0.0
H155 H 0.98625 0.80886 0.84986 0.0
H156 H 0.97117 0.85358 0.88273 0.0
O157 O 0.01886 0.83706 0.86305 0.0
O158 O 0.0056 0.8618 0.87486 0.0
O159 O 0.98079 0.86932 0.84249 0.0
C160 C 0.01726 0.84824 0.8767 0.0
H161 H 0.03488 0.89169 0.80644 0.0
H162 H 0.96175 0.79708 0.8739 0.0
H163 H 0.97265 0.81967 0.79527 0.0
H164 H 0.0305 0.81173 0.80539 0.0
Co165 Co 0.15746 0.01467 0.84566 0.0
C166 C 0.13403 0.04491 0.83087 0.0
C167 C 0.13013 0.01954 0.81653 0.0
C168 C 0.11684 0.03177 0.81099 0.0
N169 N 0.1409 0.02764 0.82918 0.0
N170 N 0.11926 0.04766 0.8201 0.0
H171 H 0.13854 0.05486 0.84083 0.0
H172 H 0.13067 0.00522 0.81267 0.0
C173 C 0.14635 0.97485 0.84295 0.0
O174 O 0.16374 0.96998 0.84286 0.0
N175 N 0.17317 0.00154 0.86262 0.0
C176 C 0.19154 0.99909 0.86318 0.0
C177 C 0.19562 0.98699 0.87714 0.0
C178 C 0.16652 0.99149 0.87655 0.0
N179 N 0.17978 0.98206 0.88532 0.0
C180 C 0.18924 0.01867 0.82335 0.0
C181 C 0.18183 0.99166 0.79796 0.0
C182 C 0.19828 0.00155 0.79665 0.0
C183 C 0.20178 0.01531 0.80949 0.0
C184 C 0.16943 0.99563 0.81205 0.0
N185 N 0.17351 0.00854 0.82505 0.0
H186 H 0.19266 0.02921 0.83307 0.0
H187 H 0.15665 0.98825 0.8122 0.0
H188 H 0.20139 0.00501 0.85393 0.0
H189 H 0.15201 0.99042 0.87957 0.0
O190 O 0.16893 0.03744 0.8527 0.0
O191 O 0.14481 0.02528 0.86651 0.0
O192 O 0.14181 0.99187 0.84304 0.0
C193 C 0.15709 0.03831 0.86586 0.0
H194 H 0.1055 0.02881 0.80192 0.0
H195 H 0.20905 0.98145 0.8803 0.0
H196 H 0.17842 0.98119 0.78802 0.0
H197 H 0.21437 0.02327 0.80906 0.0
Co198 Co 0.99958 0.17137 0.85487 0.0
C199 C 0.97207 0.14281 0.84631 0.0
C200 C 0.97837 0.158 0.82218 0.0
C201 C 0.96617 0.14424 0.8178 0.0
N202 N 0.98208 0.15725 0.8402 0.0
N203 N 0.96218 0.13465 0.83302 0.0
H204 H 0.9721 0.13821 0.86025 0.0
H205 H 0.98457 0.16724 0.81247 0.0
C206 C 0.02468 0.1471 0.83312 0.0
O207 O 0.01726 0.15359 0.81817 0.0
N208 N 0.01687 0.18443 0.86985 0.0
C209 C 0.01931 0.20275 0.87154 0.0
C210 C 0.03236 0.20578 0.88482 0.0
C211 C 0.02807 0.1766 0.88218 0.0
N212 N 0.0377 0.18931 0.89152 0.0
C213 C 0.99164 0.19833 0.82808 0.0
C214 C 0.0272 0.20481 0.81653 0.0
C215 C 0.01288 0.2156 0.80944 0.0
C216 C 0.99492 0.21207 0.81531 0.0
C217 C 0.02329 0.1911 0.82942 0.0
N218 N 0.00558 0.18767 0.83466 0.0
H219 H 0.97772 0.19614 0.8327 0.0
H220 H 0.03453 0.18364 0.83559 0.0
H221 H 0.01192 0.21312 0.86392 0.0
H222 H 0.02899 0.16188 0.88437 0.0
O223 O 0.97998 0.18601 0.86486 0.0
O224 O 0.99 0.15986 0.87683 0.0
O225 O 0.0194 0.15289 0.84869 0.0
C226 C 0.97874 0.17381 0.8777 0.0
H227 H 0.96112 0.14128 0.80427 0.0
H228 H 0.03714 0.21906 0.88957 0.0
H229 H 0.04133 0.20736 0.81265 0.0
H230 H 0.9834 0.21992 0.81012 0.0
Co231 Co 0.84762 0.01057 0.84658 0.0
C232 C 0.83793 0.03914 0.87453 0.0
C233 C 0.81718 0.01844 0.87124 0.0
C234 C 0.81168 0.0303 0.88472 0.0
N235 N 0.83359 0.02399 0.86473 0.0
N236 N 0.82475 0.04327 0.88686 0.0
H237 H 0.85066 0.04667 0.87321 0.0
H238 H 0.8098 0.00638 0.86665 0.0
C239 C 0.84476 0.97041 0.85938 0.0
O240 O 0.85035 0.96372 0.84375 0.0
N241 N 0.86182 0.99694 0.82881 0.0
C242 C 0.85868 0.99455 0.8109 0.0
C243 C 0.8719 0.98279 0.80405 0.0
C244 C 0.87735 0.98748 0.83238 0.0
N245 N 0.88355 0.97829 0.81765 0.0
C246 C 0.81676 0.02375 0.82745 0.0
C247 C 0.80187 0.99056 0.81658 0.0
C248 C 0.79343 0.00701 0.81101 0.0
C249 C 0.80094 0.02373 0.81686 0.0
C250 C 0.81772 0.99121 0.82736 0.0
N251 N 0.82511 0.0077 0.83249 0.0
H252 H 0.82231 0.03684 0.83176 0.0
H253 H 0.82413 0.97846 0.83096 0.0
H254 H 0.84734 0.00047 0.8034 0.0
H255 H 0.88307 0.98611 0.84591 0.0
O256 O 0.85576 0.03299 0.83537 0.0
O257 O 0.87055 0.01865 0.85764 0.0
O258 O 0.84292 0.98778 0.86179 0.0
C259 C 0.86986 0.03235 0.84613 0.0
H260 H 0.79902 0.02935 0.89239 0.0
H261 H 0.87259 0.97757 0.79027 0.0
H262 H 0.79663 0.97732 0.81222 0.0
H263 H 0.79468 0.03677 0.81327 0.0
Co264 Co 0.15796 0.16581 0.0058 0.0
C265 C 0.16454 0.14424 0.9719 0.0
C266 C 0.18494 0.13891 0.99222 0.0
C267 C 0.18801 0.12731 0.97779 0.0
N268 N 0.17026 0.14965 0.98858 0.0
N269 N 0.17507 0.13057 0.9651 0.0
H270 H 0.15258 0.1496 0.96502 0.0
H271 H 0.19227 0.13844 0.00496 0.0
C272 C 0.16873 0.15167 0.04273 0.0
O273 O 0.17034 0.16877 0.04839 0.0
N274 N 0.14529 0.18132 0.02316 0.0
C275 C 0.14569 0.19972 0.02573 0.0
C276 C 0.13386 0.20409 0.0398 0.0
C277 C 0.133 0.17489 0.03527 0.0
N278 N 0.12609 0.18837 0.04583 0.0
C279 C 0.18107 0.19633 0.99746 0.0
C280 C 0.21233 0.18515 0.0156 0.0
C281 C 0.21294 0.20115 0.00497 0.0
C282 C 0.19702 0.20675 0.99598 0.0
C283 C 0.19605 0.17489 0.01654 0.0
N284 N 0.1805 0.18054 0.00762 0.0
H285 H 0.16918 0.20119 0.99021 0.0
H286 H 0.19646 0.1622 0.02403 0.0
H287 H 0.15389 0.2094 0.01812 0.0
H288 H 0.12937 0.16048 0.03644 0.0
O289 O 0.14642 0.17934 0.98644 0.0
O290 O 0.13435 0.15471 -0.00044 0.0
O291 O 0.16499 0.1483 0.02605 0.0
C292 C 0.13269 0.1681 0.98786 0.0
H293 H 0.19815 0.11641 0.97725 0.0
H294 H 0.13151 0.21766 0.04543 0.0
H295 H 0.22446 0.18031 0.02267 0.0
H296 H 0.19682 0.21922 0.98787 0.0
Co297 Co 0.15279 0.85676 0.00507 0.0
C298 C 0.16051 0.8844 0.0338 0.0
C299 C 0.18521 0.87627 0.02012 0.0
C300 C 0.18953 0.88966 0.03273 0.0
N301 N 0.16702 0.8727 0.02102 0.0
N302 N 0.17392 0.89478 0.04115 0.0
H303 H 0.14623 0.88569 0.03759 0.0
H304 H 0.19466 0.87007 0.01056 0.0
C305 C 0.15692 0.87379 0.9673 0.0
O306 O 0.15017 0.85904 0.95945 0.0
N307 N 0.13798 0.84142 0.98935 0.0
C308 C 0.13921 0.82326 0.98568 0.0
C309 C 0.12456 0.81838 0.9747 0.0
C310 C 0.12235 0.84707 0.98128 0.0
N311 N 0.11411 0.83349 0.97187 0.0
C312 C 0.18146 0.83294 0.01606 0.0
C313 C 0.19591 0.82483 0.98224 0.0
C314 C 0.20304 0.81589 0.99761 0.0
C315 C 0.19576 0.82029 0.0147 0.0
C316 C 0.18164 0.83761 0.98423 0.0
N317 N 0.17439 0.84136 0.00099 0.0
H318 H 0.17592 0.83593 0.02937 0.0
H319 H 0.17626 0.84387 0.97219 0.0
H320 H 0.14987 0.81418 0.99067 0.0
H321 H 0.11732 0.86108 0.98204 0.0
O322 O 0.14325 0.84336 0.0255 0.0
O323 O 0.13013 0.86815 0.01355 0.0
O324 O 0.1592 0.87442 0.98457 0.0
C325 C 0.12971 0.85496 0.02562 0.0
H326 H 0.20293 0.8957 0.03501 0.0
H327 H 0.12203 0.80488 0.96899 0.0
H328 H 0.20124 0.82189 0.96878 0.0
H329 H 0.20069 0.81359 0.02694 0.0
Co330 Co 0.84402 0.16694 0.00847 0.0
C331 C 0.8387 0.13696 0.03529 0.0
C332 C 0.81287 0.14968 0.02947 0.0
C333 C 0.81001 0.13558 0.04165 0.0
N334 N 0.83097 0.1507 0.02546 0.0
N335 N 0.8263 0.12759 0.04535 0.0
H336 H 0.85318 0.13385 0.03524 0.0
H337 H 0.80211 0.15804 0.02366 0.0
C338 C 0.82366 0.1418 0.98302 0.0
O339 O 0.80824 0.14568 0.9914 0.0
N340 N 0.85749 0.1821 0.99162 0.0
C341 C 0.85738 0.20053 0.98943 0.0
C342 C 0.87025 0.20504 0.97632 0.0
C343 C 0.87044 0.1757 0.98019 0.0
N344 N 0.87849 0.18937 0.97071 0.0
C345 C 0.81504 0.19086 0.01908 0.0
C346 C 0.8006 0.19748 0.98491 0.0
C347 C 0.79259 0.20605 0.0001 0.0
C348 C 0.80007 0.20265 0.01731 0.0
C349 C 0.81548 0.18544 0.98734 0.0
N350 N 0.82214 0.18183 0.00437 0.0
H351 H 0.82079 0.18865 0.03246 0.0
H352 H 0.82188 0.17932 0.97552 0.0
H353 H 0.84882 0.21001 0.99699 0.0
H354 H 0.87401 0.16127 0.97898 0.0
O355 O 0.85382 0.18087 0.02853 0.0
O356 O 0.86724 0.15647 0.0162 0.0
O357 O 0.83865 0.14945 0.9879 0.0
C358 C 0.86758 0.16948 0.02841 0.0
H359 H 0.79683 0.13138 0.04701 0.0
H360 H 0.87369 0.21877 0.97169 0.0
H361 H 0.79544 0.20008 0.97133 0.0
H362 H 0.79465 0.20939 0.02932 0.0
Co363 Co 0.84042 0.8529 0.00511 0.0
C364 C 0.86776 0.84974 0.03492 0.0
C365 C 0.85446 0.82384 0.03058 0.0
C366 C 0.86707 0.82179 0.04431 0.0
N367 N 0.85477 0.84144 0.0246 0.0
N368 N 0.87542 0.83812 0.04714 0.0
H369 H 0.8715 0.86406 0.03362 0.0
H370 H 0.84624 0.8128 0.02508 0.0
C371 C 0.86844 0.83057 0.98429 0.0
O372 O 0.8649 0.81609 0.99438 0.0
N373 N 0.82672 0.8645 0.98587 0.0
C374 C 0.80855 0.86372 0.9825 0.0
C375 C 0.8048 0.87468 0.9676 0.0
C376 C 0.83374 0.87598 0.9733 0.0
N377 N 0.82067 0.88242 0.96197 0.0
C378 C 0.81441 0.82601 0.01581 0.0
C379 C 0.81342 0.80602 0.98378 0.0
C380 C 0.80191 0.80096 0.99824 0.0
C381 C 0.80244 0.81119 0.01432 0.0
C382 C 0.82506 0.82129 0.98572 0.0
N383 N 0.82587 0.83067 0.00184 0.0
H384 H 0.81472 0.83358 0.02844 0.0
H385 H 0.83303 0.82578 0.97415 0.0
H386 H 0.79871 0.85593 0.9904 0.0
H387 H 0.84815 0.87955 0.97252 0.0
O388 O 0.82493 0.86478 0.02283 0.0
O389 O 0.85042 0.87682 0.01148 0.0
O390 O 0.85961 0.84558 0.98666 0.0
C391 C 0.83642 0.87844 0.02241 0.0
H392 H 0.87006 0.80903 0.0513 0.0
H393 H 0.79141 0.87715 0.96167 0.0
H394 H 0.81302 0.79861 0.971 0.0
H395 H 0.79372 0.80767 0.02576 0.0
Co396 Co 0.001 0.66305 0.66527 0.0
C397 C 0.97513 0.66971 0.63494 0.0
C398 C 0.97561 0.69307 0.65273 0.0
C399 C 0.96381 0.69678 0.63865 0.0
N400 N 0.98279 0.67601 0.65051 0.0
N401 N 0.96352 0.68209 0.6275 0.0
H402 H 0.97829 0.65651 0.62888 0.0
H403 H 0.97909 0.70283 0.6632 0.0
C404 C 0.02316 0.68431 0.63791 0.0
O405 O 0.01235 0.6986 0.64015 0.0
N406 N 0.01897 0.65009 0.67955 0.0
C407 C 0.01945 0.64815 0.69777 0.0
C408 C 0.03425 0.63718 0.70222 0.0
C409 C 0.03332 0.64037 0.67314 0.0
N410 N 0.04295 0.63237 0.6867 0.0
C411 C 0.99122 0.68917 0.69233 0.0
C412 C 0.02295 0.71002 0.69154 0.0
C413 C 0.00825 0.71569 0.70258 0.0
C414 C 0.99249 0.7047 0.70326 0.0
C415 C 0.0211 0.69421 0.68074 0.0
N416 N 0.00493 0.68465 0.68045 0.0
H417 H 0.97866 0.68132 0.69276 0.0
H418 H 0.03268 0.68972 0.67272 0.0
H419 H 0.00964 0.65414 0.70711 0.0
H420 H 0.03633 0.63875 0.65881 0.0
O421 O 0.98164 0.6518 0.67925 0.0
O422 O 0.99376 0.63988 0.65426 0.0
O423 O 0.02085 0.66976 0.64738 0.0
C424 C 0.98193 0.63849 0.66747 0.0
H425 H 0.95603 0.70935 0.63678 0.0
H426 H 0.03833 0.63312 0.71581 0.0
H427 H 0.03562 0.71782 0.69106 0.0
H428 H 0.98112 0.7081 0.71215 0.0
Co429 Co 0.84697 0.50576 0.6543 0.0
C430 C 0.87665 0.5317 0.6638 0.0
C431 C 0.86158 0.52482 0.68783 0.0
C432 C 0.87536 0.53689 0.6925 0.0
N433 N 0.86219 0.52164 0.66969 0.0
N434 N 0.88476 0.54125 0.67733 0.0
H435 H 0.8815 0.53183 0.64992 0.0
H436 H 0.85226 0.51856 0.69741 0.0
C437 C 0.87031 0.47833 0.67416 0.0
O438 O 0.86482 0.48565 0.68954 0.0
N439 N 0.8327 0.49015 0.63864 0.0
C440 C 0.8145 0.49056 0.63549 0.0
C441 C 0.81069 0.47865 0.62136 0.0
C442 C 0.83973 0.47825 0.62649 0.0
N443 N 0.82663 0.47099 0.61566 0.0
C444 C 0.82115 0.51363 0.68207 0.0
C445 C 0.81365 0.47781 0.69251 0.0
C446 C 0.80478 0.4924 0.70141 0.0
C447 C 0.80849 0.51044 0.69584 0.0
C448 C 0.82656 0.48166 0.67884 0.0
N449 N 0.83074 0.49948 0.67439 0.0
H450 H 0.82367 0.52767 0.67788 0.0
H451 H 0.83303 0.47037 0.67172 0.0
H452 H 0.80482 0.49935 0.64253 0.0
H453 H 0.85425 0.47533 0.62544 0.0
O454 O 0.83347 0.52683 0.6458 0.0
O455 O 0.85856 0.51593 0.63262 0.0
O456 O 0.86429 0.48452 0.659 0.0
C457 C 0.84539 0.52813 0.63275 0.0
H458 H 0.8781 0.54213 0.70601 0.0
H459 H 0.79731 0.47636 0.61537 0.0
H460 H 0.81074 0.46365 0.69615 0.0
H461 H 0.80146 0.52206 0.70196 0.0
Co462 Co 0.00625 0.34555 0.65494 0.0
C463 C 0.97445 0.36856 0.66737 0.0
C464 C 0.99853 0.37285 0.68354 0.0
C465 C 0.9853 0.38514 0.68901 0.0
N466 N 0.99184 0.36239 0.6699 0.0
N467 N 0.97015 0.38257 0.67876 0.0
H468 H 0.96524 0.36335 0.65709 0.0
H469 H 0.01245 0.3725 0.68855 0.0
C470 C 0.04552 0.35793 0.66014 0.0
O471 O 0.05135 0.34081 0.65951 0.0
N472 N 0.02081 0.32936 0.63966 0.0
C473 C 0.02315 0.31094 0.64035 0.0
C474 C 0.03547 0.30586 0.62698 0.0
C475 C 0.03127 0.33509 0.62561 0.0
N476 N 0.0406 0.32111 0.61778 0.0
C477 C 0.99971 0.31491 0.67853 0.0
C478 C 0.02514 0.32309 0.70518 0.0
C479 C 0.01425 0.30734 0.70714 0.0
C480 C 0.00137 0.30336 0.69359 0.0
C481 C 0.0229 0.33446 0.68994 0.0
N482 N 0.01061 0.33011 0.67649 0.0
H483 H 0.98969 0.31128 0.66837 0.0
H484 H 0.03083 0.3469 0.68953 0.0
H485 H 0.01668 0.3017 0.64988 0.0
H486 H 0.03272 0.34943 0.62183 0.0
O487 O 0.98425 0.3338 0.64619 0.0
O488 O 0.99756 0.35775 0.63301 0.0
O489 O 0.02837 0.36158 0.65927 0.0
C490 C 0.98446 0.34555 0.63287 0.0
H491 H 0.98722 0.39592 0.699 0.0
H492 H 0.04036 0.29204 0.62436 0.0
H493 H 0.03494 0.32691 0.71562 0.0
H494 H 0.99267 0.29129 0.69455 0.0
Co495 Co 0.16065 0.50703 0.65696 0.0
C496 C 0.1401 0.47326 0.66805 0.0
C497 C 0.13553 0.49573 0.68636 0.0
C498 C 0.12493 0.48113 0.69186 0.0
N499 N 0.14515 0.49086 0.67144 0.0
N500 N 0.12764 0.46701 0.68023 0.0
H501 H 0.14466 0.46543 0.65642 0.0
H502 H 0.1354 0.50922 0.6925 0.0
C503 C 0.14819 0.54539 0.66645 0.0
O504 O 0.16533 0.55106 0.66597 0.0
N505 N 0.17571 0.52324 0.64222 0.0
C506 C 0.19415 0.52401 0.64046 0.0
C507 C 0.19848 0.5373 0.62775 0.0
C508 C 0.16914 0.53564 0.63021 0.0
N509 N 0.1827 0.54468 0.6215 0.0
C510 C 0.19254 0.49939 0.67812 0.0
C511 C 0.184 0.52004 0.70846 0.0
C512 C 0.20006 0.50941 0.70851 0.0
C513 C 0.20423 0.49902 0.69305 0.0
C514 C 0.17257 0.52001 0.69314 0.0
N515 N 0.17696 0.50991 0.678 0.0
H516 H 0.19618 0.49088 0.66669 0.0
H517 H 0.16004 0.52774 0.69401 0.0
H518 H 0.20391 0.51557 0.64768 0.0
H519 H 0.15464 0.5381 0.62802 0.0
O520 O 0.17266 0.48631 0.64599 0.0
O521 O 0.14777 0.49963 0.63482 0.0
O522 O 0.14433 0.52839 0.66395 0.0
C523 C 0.16056 0.48717 0.6331 0.0
H524 H 0.11551 0.48123 0.70324 0.0
H525 H 0.21216 0.54151 0.62373 0.0
H526 H 0.18019 0.52824 0.72018 0.0
H527 H 0.21622 0.4902 0.6926 0.0
Co528 Co 0.00736 0.3532 0.3439 0.0
C529 C 0.04042 0.37682 0.3377 0.0
C530 C 0.02117 0.37858 0.31571 0.0
C531 C 0.03571 0.39006 0.31195 0.0
N532 N 0.02415 0.37007 0.33178 0.0
N533 N 0.04772 0.38898 0.32583 0.0
H534 H 0.04682 0.37325 0.35047 0.0
H535 H 0.00898 0.37719 0.30749 0.0
C536 C 0.96935 0.36813 0.33712 0.0
O537 O 0.96282 0.35126 0.33685 0.0
N538 N 0.99065 0.33661 0.35622 0.0
C539 C 0.98739 0.31862 0.35304 0.0
C540 C 0.9742 0.3126 0.36512 0.0
C541 C 0.97983 0.34112 0.37044 0.0
N542 N 0.96941 0.32681 0.37598 0.0
C543 C 0.01672 0.32542 0.31807 0.0
C544 C 0.9919 0.33425 0.29106 0.0
C545 C 0.00415 0.31967 0.28825 0.0
C546 C 0.01664 0.31532 0.30201 0.0
C547 C 0.99255 0.34421 0.30737 0.0
N548 N 0.00468 0.33961 0.3209 0.0
H549 H 0.02658 0.32147 0.32823 0.0
H550 H 0.98374 0.356 0.30842 0.0
H551 H 0.99394 0.31037 0.34269 0.0
H552 H 0.97905 0.35489 0.37603 0.0
O553 O 0.02748 0.3394 0.35391 0.0
O554 O 0.01443 0.36313 0.36759 0.0
O555 O 0.98665 0.37097 0.33854 0.0
C556 C 0.02654 0.34991 0.36811 0.0
H557 H 0.03697 0.39914 0.30032 0.0
H558 H 0.9686 0.29881 0.36582 0.0
H559 H 0.98223 0.33823 0.28056 0.0
H560 H 0.02621 0.30399 0.3005 0.0
Co561 Co 0.16566 0.51525 0.3472 0.0
C562 C 0.14497 0.54818 0.33421 0.0
C563 C 0.13979 0.52447 0.31772 0.0
C564 C 0.12772 0.53814 0.31277 0.0
N565 N 0.15061 0.53064 0.33131 0.0
N566 N 0.13075 0.55305 0.32331 0.0
H567 H 0.15047 0.55692 0.34472 0.0
H568 H 0.13943 0.51052 0.31269 0.0
C569 C 0.15318 0.47651 0.33982 0.0
O570 O 0.17038 0.47099 0.34004 0.0
N571 N 0.1798 0.49978 0.36353 0.0
C572 C 0.19809 0.49794 0.36586 0.0
C573 C 0.20119 0.48572 0.37989 0.0
C574 C 0.17214 0.48907 0.37645 0.0
N575 N 0.18482 0.48012 0.38647 0.0
C576 C 0.19919 0.51925 0.32728 0.0
C577 C 0.19165 0.49547 0.29899 0.0
C578 C 0.20923 0.50326 0.30021 0.0
C579 C 0.21274 0.51562 0.31437 0.0
C580 C 0.17849 0.49935 0.31239 0.0
N581 N 0.18262 0.5104 0.32693 0.0
H582 H 0.20247 0.52885 0.33798 0.0
H583 H 0.16513 0.49321 0.31094 0.0
H584 H 0.20863 0.50498 0.35829 0.0
H585 H 0.15745 0.48802 0.37849 0.0
O586 O 0.1777 0.53657 0.35718 0.0
O587 O 0.15226 0.5243 0.36833 0.0
O588 O 0.14923 0.49359 0.34152 0.0
C589 C 0.16514 0.53667 0.36973 0.0
H590 H 0.11662 0.5365 0.30314 0.0
H591 H 0.21449 0.48119 0.38471 0.0
H592 H 0.18821 0.48616 0.28799 0.0
H593 H 0.22589 0.52251 0.31547 0.0
Co594 Co 0.00239 0.67008 0.34988 0.0
C595 C 0.9809 0.63809 0.3385 0.0
C596 C 0.97574 0.66115 0.32094 0.0
C597 C 0.96372 0.6472 0.31649 0.0
N598 N 0.98657 0.65533 0.33467 0.0
N599 N 0.96685 0.63282 0.32771 0.0
H600 H 0.98617 0.63003 0.34974 0.0
H601 H 0.97564 0.67496 0.31543 0.0
C602 C 0.04003 0.65607 0.34183 0.0
O603 O 0.04532 0.67336 0.341 0.0
N604 N 0.01787 0.68453 0.36612 0.0
C605 C 0.01495 0.70185 0.3723 0.0
C606 C 0.02662 0.70533 0.3866 0.0
C607 C 0.03078 0.67756 0.3774 0.0
N608 N 0.03659 0.69005 0.38965 0.0
C609 C 0.00458 0.70316 0.32872 0.0
C610 C 0.02019 0.68778 0.298 0.0
C611 C 0.01649 0.70673 0.29824 0.0
C612 C 0.00843 0.71433 0.31381 0.0
C613 C 0.01623 0.67708 0.31336 0.0
N614 N 0.00916 0.68495 0.32878 0.0
H615 H 0.9971 0.70911 0.33985 0.0
H616 H 0.01842 0.66238 0.31264 0.0
H617 H 0.00408 0.71095 0.36804 0.0
H618 H 0.03502 0.66328 0.3775 0.0
O619 O 0.98133 0.68397 0.35779 0.0
O620 O 0.9917 0.65864 0.37124 0.0
O621 O 0.02322 0.65215 0.34521 0.0
C622 C 0.97972 0.67198 0.37083 0.0
H623 H 0.95256 0.64814 0.3068 0.0
H624 H 0.02727 0.71785 0.39457 0.0
H625 H 0.02595 0.68125 0.28604 0.0
H626 H 0.00444 0.72871 0.31423 0.0
Co627 Co 0.84787 0.51388 0.34603 0.0
C628 C 0.83828 0.54061 0.37505 0.0
C629 C 0.81472 0.53497 0.35852 0.0
C630 C 0.80964 0.54707 0.37196 0.0
N631 N 0.83275 0.53075 0.36042 0.0
N632 N 0.82447 0.55063 0.38224 0.0
H633 H 0.85202 0.54027 0.38062 0.0
H634 H 0.80539 0.52918 0.34868 0.0
C635 C 0.82755 0.48882 0.37175 0.0
O636 O 0.81236 0.49789 0.3683 0.0
N637 N 0.86289 0.49738 0.33196 0.0
C638 C 0.86551 0.4977 0.31382 0.0
C639 C 0.87772 0.48393 0.3093 0.0
C640 C 0.87346 0.48358 0.33827 0.0
N641 N 0.88265 0.47508 0.3247 0.0
C642 C 0.82151 0.52143 0.31861 0.0
C643 C 0.80642 0.48655 0.31625 0.0
C644 C 0.79996 0.50054 0.3048 0.0
C645 C 0.80777 0.51807 0.30593 0.0
C646 C 0.82057 0.49043 0.32857 0.0
N647 N 0.82737 0.50791 0.33017 0.0
H648 H 0.82715 0.53515 0.31944 0.0
H649 H 0.82626 0.47928 0.3365 0.0
H650 H 0.85905 0.50731 0.30456 0.0
H651 H 0.8747 0.4801 0.35254 0.0
O652 O 0.85748 0.53442 0.33243 0.0
O653 O 0.87 0.52327 0.35757 0.0
O654 O 0.84248 0.49313 0.36364 0.0
C655 C 0.87059 0.53523 0.34436 0.0
H656 H 0.79608 0.55286 0.37401 0.0
H657 H 0.88244 0.48059 0.29573 0.0
H658 H 0.80093 0.47272 0.31533 0.0
H659 H 0.80312 0.52916 0.2972 0.0
Co660 Co 0.15743 0.67142 0.50401 0.0
C661 C 0.16492 0.64107 0.47822 0.0
C662 C 0.18313 0.66395 0.47413 0.0
C663 C 0.18594 0.65148 0.4604 0.0
N664 N 0.17002 0.65743 0.48538 0.0
N665 N 0.17434 0.63722 0.46282 0.0
H666 H 0.15362 0.63289 0.48334 0.0
H667 H 0.18947 0.67737 0.47503 0.0
C668 C 0.16791 0.65407 0.53922 0.0
O669 O 0.16981 0.67074 0.54593 0.0
N670 N 0.14415 0.68547 0.52239 0.0
C671 C 0.14303 0.70392 0.52446 0.0
C672 C 0.1308 0.70786 0.53812 0.0
C673 C 0.13198 0.67855 0.5345 0.0
N674 N 0.12389 0.69191 0.54452 0.0
C675 C 0.18128 0.70263 0.50265 0.0
C676 C 0.21238 0.6858 0.51638 0.0
C677 C 0.21311 0.70443 0.51151 0.0
C678 C 0.19735 0.71276 0.50441 0.0
C679 C 0.19579 0.67618 0.51466 0.0
N680 N 0.18021 0.68486 0.50862 0.0
H681 H 0.16993 0.70895 0.49564 0.0
H682 H 0.1958 0.66159 0.51744 0.0
H683 H 0.14973 0.71416 0.51627 0.0
H684 H 0.12913 0.66399 0.53588 0.0
O685 O 0.14729 0.68688 0.4852 0.0
O686 O 0.13418 0.66151 0.49592 0.0
O687 O 0.16359 0.65184 0.5225 0.0
C688 C 0.13368 0.67532 0.48464 0.0
H689 H 0.19525 0.65321 0.44905 0.0
H690 H 0.12677 0.72152 0.54246 0.0
H691 H 0.22451 0.67872 0.52127 0.0
H692 H 0.19764 0.72686 0.49957 0.0
Co693 Co 0.16284 0.35509 0.49707 0.0
C694 C 0.13331 0.34447 0.47218 0.0
C695 C 0.15788 0.3291 0.46665 0.0
C696 C 0.14501 0.32484 0.45362 0.0
N697 N 0.15048 0.34135 0.47829 0.0
N698 N 0.12963 0.33468 0.45698 0.0
H699 H 0.12421 0.35465 0.47805 0.0
H700 H 0.1719 0.32422 0.467 0.0
C701 C 0.14579 0.34315 0.53193 0.0
O702 O 0.16242 0.34285 0.53887 0.0
N703 N 0.17478 0.36961 0.51581 0.0
C704 C 0.19268 0.37086 0.52049 0.0
C705 C 0.19467 0.38467 0.53312 0.0
C706 C 0.16625 0.38282 0.52561 0.0
N707 N 0.17806 0.39222 0.53626 0.0
C708 C 0.19609 0.33446 0.49563 0.0
C709 C 0.18289 0.30168 0.50945 0.0
C710 C 0.20132 0.30268 0.50389 0.0
C711 C 0.20772 0.31934 0.49671 0.0
C712 C 0.17157 0.31725 0.50797 0.0
N713 N 0.17842 0.33368 0.50183 0.0
H714 H 0.20135 0.34675 0.48928 0.0
H715 H 0.15718 0.31577 0.51112 0.0
H716 H 0.20382 0.36285 0.51505 0.0
H717 H 0.15174 0.38586 0.52447 0.0
O718 O 0.17787 0.36674 0.47889 0.0
O719 O 0.1511 0.37752 0.4884 0.0
O720 O 0.14349 0.34712 0.51512 0.0
C721 C 0.16539 0.37945 0.4779 0.0
H722 H 0.14713 0.31567 0.44221 0.0
H723 H 0.20743 0.38887 0.53943 0.0
H724 H 0.17717 0.28897 0.51467 0.0
H725 H 0.22152 0.32062 0.49135 0.0
Co726 Co 0.84854 0.66975 0.50647 0.0
C727 C 0.8413 0.63959 0.53212 0.0
C728 C 0.81823 0.65789 0.5319 0.0
C729 C 0.81477 0.64388 0.54407 0.0
N730 N 0.83502 0.65531 0.52445 0.0
N731 N 0.82936 0.63246 0.54424 0.0
H732 H 0.8543 0.63325 0.52873 0.0
H733 H 0.80872 0.66877 0.52865 0.0
C734 C 0.82749 0.64239 0.48448 0.0
O735 O 0.81264 0.64637 0.49382 0.0
N736 N 0.86241 0.68332 0.48867 0.0
C737 C 0.86239 0.70158 0.48536 0.0
C738 C 0.87452 0.7051 0.47136 0.0
C739 C 0.87465 0.67602 0.47699 0.0
N740 N 0.88223 0.689 0.46625 0.0
C741 C 0.82209 0.6976 0.51392 0.0
C742 C 0.80639 0.69923 0.47969 0.0
C743 C 0.8009 0.71197 0.49296 0.0
C744 C 0.80885 0.71094 0.51027 0.0
C745 C 0.81993 0.68615 0.48387 0.0
N746 N 0.82728 0.68514 0.50099 0.0
H747 H 0.82823 0.69731 0.52729 0.0
H748 H 0.82504 0.67747 0.47308 0.0
H749 H 0.85421 0.71162 0.49262 0.0
H750 H 0.87784 0.66147 0.47632 0.0
O751 O 0.85908 0.68453 0.5256 0.0
O752 O 0.87121 0.65872 0.51488 0.0
O753 O 0.84246 0.65101 0.48736 0.0
C754 C 0.87221 0.67241 0.52626 0.0
H755 H 0.80254 0.64238 0.55232 0.0
H756 H 0.87772 0.71846 0.46563 0.0
H757 H 0.80087 0.69989 0.46602 0.0
H758 H 0.80495 0.72048 0.52093 0.0
Co759 Co 0.84842 0.35072 0.49979 0.0
C760 C 0.87777 0.34475 0.52744 0.0
C761 C 0.86744 0.31894 0.51791 0.0
C762 C 0.88109 0.31555 0.53032 0.0
N763 N 0.86517 0.33733 0.51603 0.0
N764 N 0.88758 0.33179 0.53641 0.0
H765 H 0.87967 0.35936 0.52937 0.0
H766 H 0.85981 0.30836 0.51094 0.0
C767 C 0.87106 0.33003 0.47223 0.0
O768 O 0.86519 0.3144 0.47899 0.0
N769 N 0.83254 0.36438 0.48366 0.0
C770 C 0.81409 0.36569 0.4841 0.0
C771 C 0.80865 0.37826 0.47107 0.0
C772 C 0.83809 0.37621 0.47066 0.0
N773 N 0.82379 0.38492 0.4627 0.0
C774 C 0.82621 0.3212 0.51168 0.0
C775 C 0.81403 0.30943 0.47802 0.0
C776 C 0.80737 0.3009 0.49382 0.0
C777 C 0.81367 0.30685 0.51075 0.0
C778 C 0.82709 0.32353 0.47954 0.0
N779 N 0.8333 0.32896 0.49627 0.0
H780 H 0.83031 0.32617 0.52493 0.0
H781 H 0.83185 0.33044 0.46738 0.0
H782 H 0.80529 0.35838 0.4935 0.0
H783 H 0.85238 0.37858 0.46734 0.0
O784 O 0.83513 0.36009 0.52029 0.0
O785 O 0.85895 0.37408 0.50752 0.0
O786 O 0.86529 0.34536 0.47859 0.0
C787 C 0.84615 0.37411 0.51998 0.0
H788 H 0.88592 0.30205 0.53434 0.0
H789 H 0.79469 0.38265 0.46847 0.0
H790 H 0.80903 0.30538 0.46472 0.0
H791 H 0.80838 0.3009 0.52323 0.0
Co792 Co 0.50092 0.16174 0.66761 0.0
C793 C 0.47745 0.16919 0.6359 0.0
C794 C 0.46939 0.18565 0.65885 0.0
C795 C 0.45755 0.18922 0.64472 0.0
N796 N 0.48199 0.17328 0.65322 0.0
N797 N 0.46259 0.17879 0.63038 0.0
H798 H 0.48457 0.15906 0.6277 0.0
H799 H 0.46843 0.19124 0.67245 0.0
C800 C 0.536 0.17503 0.65108 0.0
O801 O 0.54203 0.17818 0.66765 0.0
N802 N 0.51989 0.14952 0.68176 0.0
C803 C 0.52123 0.1472 0.69996 0.0
C804 C 0.53587 0.13581 0.70365 0.0
C805 C 0.53343 0.139 0.67471 0.0
N806 N 0.54355 0.13076 0.68774 0.0
C807 C 0.49723 0.18533 0.69844 0.0
C808 C 0.50796 0.21773 0.68181 0.0
C809 C 0.50137 0.21826 0.6997 0.0
C810 C 0.49611 0.20179 0.70803 0.0
C811 C 0.50865 0.20088 0.67255 0.0
N812 N 0.50383 0.18479 0.68105 0.0
H813 H 0.49154 0.17325 0.70474 0.0
H814 H 0.51201 0.20107 0.65826 0.0
H815 H 0.51195 0.15255 0.71004 0.0
H816 H 0.53545 0.13692 0.66026 0.0
O817 O 0.48226 0.1506 0.68255 0.0
O818 O 0.49397 0.13795 0.6577 0.0
O819 O 0.5197 0.16893 0.64864 0.0
C820 C 0.48244 0.13688 0.67122 0.0
H821 H 0.44558 0.19806 0.64523 0.0
H822 H 0.54036 0.13139 0.717 0.0
H823 H 0.5116 0.23032 0.67475 0.0
H824 H 0.49064 0.20169 0.72175 0.0
Co825 Co 0.34733 0.00316 0.66374 0.0
C826 C 0.37633 0.03028 0.67183 0.0
C827 C 0.35892 0.02748 0.69511 0.0
C828 C 0.37247 0.04004 0.6991 0.0
N829 N 0.36119 0.02136 0.67785 0.0
N830 N 0.38335 0.04183 0.6844 0.0
H831 H 0.38247 0.02811 0.65861 0.0
H832 H 0.34876 0.02279 0.70471 0.0
C833 C 0.3725 0.98005 0.68633 0.0
O834 O 0.36753 0.98968 0.70061 0.0
N835 N 0.33446 0.98526 0.64926 0.0
C836 C 0.31623 0.98238 0.64793 0.0
C837 C 0.3132 0.96948 0.63447 0.0
C838 C 0.34223 0.97442 0.63657 0.0
N839 N 0.32958 0.96465 0.6273 0.0
C840 C 0.31961 0.01169 0.68945 0.0
C841 C 0.31502 0.97685 0.70396 0.0
C842 C 0.30407 0.99138 0.71034 0.0
C843 C 0.30642 0.0089 0.7028 0.0
C844 C 0.32843 0.98035 0.69065 0.0
N845 N 0.33098 0.99779 0.68403 0.0
H846 H 0.32099 0.02531 0.6837 0.0
H847 H 0.33636 0.96897 0.68534 0.0
H848 H 0.30587 0.98954 0.65577 0.0
H849 H 0.35686 0.974 0.63393 0.0
O850 O 0.33284 0.02236 0.65293 0.0
O851 O 0.3591 0.01202 0.6416 0.0
O852 O 0.36553 0.98349 0.67075 0.0
C853 C 0.34515 0.0232 0.64021 0.0
H854 H 0.37413 0.04733 0.71185 0.0
H855 H 0.29996 0.96462 0.62981 0.0
H856 H 0.31325 0.96301 0.70918 0.0
H857 H 0.29787 0.02037 0.70699 0.0
Co858 Co 0.5005 0.84444 0.66634 0.0
C859 C 0.47084 0.86788 0.68195 0.0
C860 C 0.49363 0.86555 0.70017 0.0
C861 C 0.48133 0.878 0.70732 0.0
N862 N 0.48709 0.85909 0.68421 0.0
N863 N 0.46704 0.87954 0.69576 0.0
H864 H 0.46246 0.86691 0.66989 0.0
H865 H 0.50694 0.86251 0.70583 0.0
C866 C 0.53961 0.85784 0.66788 0.0
O867 O 0.54545 0.84108 0.6644 0.0
N868 N 0.51376 0.83046 0.64811 0.0
C869 C 0.51659 0.81215 0.64666 0.0
C870 C 0.52706 0.80888 0.63135 0.0
C871 C 0.52204 0.83792 0.63344 0.0
N872 N 0.5306 0.82514 0.62316 0.0
C873 C 0.49765 0.81145 0.68746 0.0
C874 C 0.52724 0.81693 0.7103 0.0
C875 C 0.51736 0.80045 0.7116 0.0
C876 C 0.50223 0.79795 0.70013 0.0
C877 C 0.52224 0.83011 0.69731 0.0
N878 N 0.5079 0.82713 0.6856 0.0
H879 H 0.486 0.80886 0.67881 0.0
H880 H 0.52986 0.84275 0.69723 0.0
H881 H 0.51169 0.80181 0.65599 0.0
H882 H 0.52213 0.85256 0.63067 0.0
O883 O 0.47817 0.83245 0.65875 0.0
O884 O 0.48901 0.85812 0.64662 0.0
O885 O 0.52245 0.86106 0.67003 0.0
C886 C 0.47658 0.84521 0.64649 0.0
H887 H 0.48319 0.88588 0.71967 0.0
H888 H 0.53219 0.7956 0.62698 0.0
H889 H 0.53883 0.8196 0.71916 0.0
H890 H 0.49382 0.78567 0.70103 0.0
Co891 Co 0.66077 0.00419 0.66059 0.0
C892 C 0.63886 0.9709 0.67065 0.0
C893 C 0.63148 0.99455 0.68648 0.0
C894 C 0.62008 0.98029 0.6912 0.0
N895 N 0.64329 0.98876 0.67353 0.0
N896 N 0.62463 0.96544 0.68118 0.0
H897 H 0.64558 0.96211 0.66083 0.0
H898 H 0.63055 0.0084 0.69172 0.0
C899 C 0.64842 0.04312 0.66818 0.0
O900 O 0.66559 0.04863 0.66893 0.0
N901 N 0.67781 0.01983 0.64744 0.0
C902 C 0.69607 0.02214 0.64957 0.0
C903 C 0.70194 0.0356 0.63769 0.0
C904 C 0.67299 0.0315 0.63397 0.0
N905 N 0.68737 0.04153 0.62798 0.0
C906 C 0.68984 0.99554 0.68513 0.0
C907 C 0.6792 0.01749 0.71392 0.0
C908 C 0.69482 0.00639 0.71577 0.0
C909 C 0.70006 0.99532 0.70111 0.0
C910 C 0.66922 0.01723 0.69764 0.0
N911 N 0.6748 0.00666 0.68322 0.0
H912 H 0.6944 0.98682 0.67417 0.0
H913 H 0.65682 0.02523 0.6971 0.0
H914 H 0.70467 0.01491 0.65913 0.0
H915 H 0.65897 0.03328 0.62938 0.0
O916 O 0.67304 0.98288 0.65086 0.0
O917 O 0.64985 0.99708 0.63743 0.0
O918 O 0.64458 0.02612 0.66572 0.0
C919 C 0.66207 0.98398 0.637 0.0
H920 H 0.60865 0.98116 0.70059 0.0
H921 H 0.71585 0.04071 0.63642 0.0
H922 H 0.67449 0.02601 0.72509 0.0
H923 H 0.71218 0.98668 0.70183 0.0
Co924 Co 0.50339 0.85325 0.34367 0.0
C925 C 0.53649 0.87502 0.33299 0.0
C926 C 0.51326 0.8807 0.316 0.0
C927 C 0.52733 0.89222 0.31101 0.0
N928 N 0.5189 0.86994 0.32987 0.0
N929 N 0.54194 0.88874 0.32177 0.0
H930 H 0.54504 0.86916 0.34349 0.0
H931 H 0.49958 0.8809 0.31034 0.0
C932 C 0.46469 0.86682 0.33677 0.0
O933 O 0.45836 0.84988 0.3372 0.0
N934 N 0.48773 0.83691 0.35763 0.0
C935 C 0.4854 0.81853 0.35624 0.0
C936 C 0.47252 0.81304 0.36886 0.0
C937 C 0.47665 0.84221 0.37138 0.0
N938 N 0.46698 0.82798 0.3783 0.0
C939 C 0.51138 0.82325 0.3201 0.0
C940 C 0.48709 0.83115 0.29235 0.0
C941 C 0.49775 0.8151 0.29134 0.0
C942 C 0.51025 0.81149 0.30528 0.0
C943 C 0.48861 0.84267 0.30763 0.0
N944 N 0.50022 0.83831 0.32167 0.0
H945 H 0.52106 0.81966 0.33056 0.0
H946 H 0.48055 0.85507 0.30777 0.0
H947 H 0.49237 0.80956 0.34682 0.0
H948 H 0.47514 0.8564 0.37565 0.0
O949 O 0.52456 0.84086 0.35344 0.0
O950 O 0.51111 0.86476 0.36645 0.0
O951 O 0.48189 0.86995 0.33832 0.0
C952 C 0.5239 0.85222 0.36701 0.0
H953 H 0.52642 0.90302 0.30091 0.0
H954 H 0.46761 0.79912 0.3709 0.0
H955 H 0.47753 0.83464 0.28159 0.0
H956 H 0.5192 0.79956 0.30478 0.0
Co957 Co 0.66622 0.00747 0.35336 0.0
C958 C 0.63788 0.03579 0.34543 0.0
C959 C 0.65091 0.0275 0.32068 0.0
C960 C 0.638 0.04077 0.31666 0.0
N961 N 0.65096 0.02431 0.33884 0.0
N962 N 0.62994 0.04603 0.33228 0.0
H963 H 0.63401 0.03673 0.35959 0.0
H964 H 0.65957 0.02085 0.31074 0.0
C965 C 0.64391 0.98065 0.33159 0.0
O966 O 0.64992 0.98834 0.31659 0.0
N967 N 0.68074 0.99101 0.3681 0.0
C968 C 0.69894 0.99186 0.37123 0.0
C969 C 0.70342 0.97868 0.38399 0.0
C970 C 0.67436 0.97746 0.37891 0.0
N971 N 0.68794 0.96967 0.38878 0.0
C972 C 0.69187 0.0173 0.32578 0.0
C973 C 0.70049 0.98192 0.3147 0.0
C974 C 0.70922 0.99688 0.3063 0.0
C975 C 0.70489 0.01474 0.31212 0.0
C976 C 0.68738 0.98512 0.32825 0.0
N977 N 0.68269 0.00269 0.33309 0.0
H978 H 0.68894 0.03114 0.33038 0.0
H979 H 0.68113 0.97347 0.335 0.0
H980 H 0.7082 0.00165 0.36498 0.0
H981 H 0.65996 0.97393 0.3801 0.0
O982 O 0.67918 0.02813 0.36343 0.0
O983 O 0.65409 0.01566 0.37538 0.0
O984 O 0.6493 0.98642 0.34712 0.0
C985 C 0.66695 0.02813 0.37631 0.0
H986 H 0.63511 0.04644 0.30333 0.0
H987 H 0.71699 0.97604 0.38943 0.0
H988 H 0.70368 0.96789 0.31079 0.0
H989 H 0.71173 0.02665 0.30638 0.0
Co990 Co 0.50081 0.16306 0.35626 0.0
C991 C 0.46741 0.1432 0.34371 0.0
C992 C 0.49037 0.138 0.3263 0.0
C993 C 0.47634 0.12634 0.32143 0.0
N994 N 0.48486 0.14869 0.34033 0.0
N995 N 0.46201 0.12943 0.33258 0.0
H996 H 0.45907 0.14824 0.35478 0.0
H997 H 0.50414 0.13714 0.32103 0.0
C998 C 0.53874 0.14865 0.34934 0.0
O999 O 0.54479 0.16569 0.35021 0.0
N1000 N 0.51665 0.17647 0.37282 0.0
C1001 C 0.51754 0.19462 0.37681 0.0
C1002 C 0.5291 0.19699 0.39152 0.0
C1003 C 0.52719 0.16815 0.38546 0.0
N1004 N 0.53518 0.18029 0.39677 0.0
C1005 C 0.49932 0.19665 0.33602 0.0
C1006 C 0.52029 0.18613 0.30652 0.0
C1007 C 0.51298 0.20394 0.30701 0.0
C1008 C 0.50243 0.20916 0.32199 0.0
C1009 C 0.51722 0.17411 0.32112 0.0
N1010 N 0.50701 0.17945 0.33589 0.0
H1011 H 0.49047 0.20098 0.34694 0.0
H1012 H 0.52298 0.16054 0.32015 0.0
H1013 H 0.50999 0.20544 0.37013 0.0
H1014 H 0.52864 0.15335 0.38662 0.0
O1015 O 0.48019 0.17669 0.3655 0.0
O1016 O 0.49045 0.15069 0.3775 0.0
O1017 O 0.52155 0.14528 0.35082 0.0
C1018 C 0.47907 0.16455 0.37839 0.0
H1019 H 0.47731 0.11522 0.31166 0.0
H1020 H 0.53276 0.20995 0.39785 0.0
H1021 H 0.52836 0.18155 0.29498 0.0
H1022 H 0.49614 0.22268 0.32262 0.0
Co1023 Co 0.34271 0.01066 0.34907 0.0
C1024 C 0.32877 0.04287 0.37053 0.0
C1025 C 0.31481 0.0178 0.37716 0.0
C1026 C 0.30872 0.03131 0.38866 0.0
N1027 N 0.3274 0.02493 0.36565 0.0
N1028 N 0.31757 0.04708 0.38464 0.0
H1029 H 0.33823 0.05254 0.36446 0.0
H1030 H 0.31111 0.00348 0.37824 0.0
C1031 C 0.33772 0.97152 0.36187 0.0
O1032 O 0.33708 0.96582 0.34491 0.0
N1033 N 0.3584 0.99615 0.33315 0.0
C1034 C 0.35926 0.99537 0.31481 0.0
C1035 C 0.3723 0.98251 0.30989 0.0
C1036 C 0.3714 0.9843 0.33902 0.0
N1037 N 0.37971 0.97541 0.32516 0.0
C1038 C 0.31894 0.01449 0.31842 0.0
C1039 C 0.29079 0.99192 0.33007 0.0
C1040 C 0.28918 0.00095 0.31336 0.0
C1041 C 0.30346 0.0123 0.30753 0.0
C1042 C 0.30677 0.99414 0.3404 0.0
N1043 N 0.32086 0.00513 0.33445 0.0
H1044 H 0.32934 0.02394 0.3138 0.0
H1045 H 0.30733 0.9872 0.35328 0.0
H1046 H 0.35107 0.00331 0.30547 0.0
H1047 H 0.37436 0.98186 0.35325 0.0
O1048 O 0.35033 0.03268 0.33658 0.0
O1049 O 0.36475 0.02069 0.36031 0.0
O1050 O 0.33941 0.98866 0.3655 0.0
C1051 C 0.36406 0.03342 0.34781 0.0
H1052 H 0.29954 0.02923 0.40007 0.0
H1053 H 0.37558 0.97822 0.29615 0.0
H1054 H 0.27982 0.98318 0.33505 0.0
H1055 H 0.30249 0.01978 0.2948 0.0
Co1056 Co 0.65728 0.16455 0.50896 0.0
C1057 C 0.66438 0.13404 0.48265 0.0
C1058 C 0.68957 0.14601 0.49171 0.0
C1059 C 0.69361 0.13201 0.47989 0.0
N1060 N 0.67117 0.14749 0.4935 0.0
N1061 N 0.67776 0.12442 0.47406 0.0
H1062 H 0.64991 0.13139 0.48098 0.0
H1063 H 0.6997 0.15463 0.49818 0.0
C1064 C 0.68031 0.14537 0.53759 0.0
O1065 O 0.69545 0.15209 0.53059 0.0
N1066 N 0.64328 0.18071 0.5245 0.0
C1067 C 0.64092 0.19907 0.52331 0.0
C1068 C 0.62868 0.20445 0.53667 0.0
C1069 C 0.63238 0.17513 0.53822 0.0
N1070 N 0.62328 0.18931 0.54593 0.0
C1071 C 0.68432 0.18747 0.49364 0.0
C1072 C 0.69777 0.20297 0.52526 0.0
C1073 C 0.7048 0.20888 0.50839 0.0
C1074 C 0.69796 0.20073 0.49253 0.0
C1075 C 0.68416 0.18929 0.52578 0.0
N1076 N 0.67797 0.18141 0.51005 0.0
H1077 H 0.67893 0.1818 0.48114 0.0
H1078 H 0.67835 0.18525 0.53873 0.0
H1079 H 0.64737 0.20785 0.51327 0.0
H1080 H 0.63105 0.16087 0.54235 0.0
O1081 O 0.64602 0.17535 0.48792 0.0
O1082 O 0.63455 0.15169 0.50336 0.0
O1083 O 0.66465 0.14974 0.53104 0.0
C1084 C 0.63302 0.16331 0.48989 0.0
H1085 H 0.70733 0.12795 0.47596 0.0
H1086 H 0.62372 0.21831 0.53902 0.0
H1087 H 0.70239 0.20915 0.53786 0.0
H1088 H 0.70309 0.20449 0.4792 0.0
Co1089 Co 0.65039 0.84623 0.50722 0.0
C1090 C 0.659 0.87567 0.53321 0.0
C1091 C 0.68085 0.85591 0.53342 0.0
C1092 C 0.68504 0.86973 0.54554 0.0
N1093 N 0.66438 0.85955 0.52568 0.0
N1094 N 0.67125 0.88209 0.54542 0.0
H1095 H 0.64649 0.88282 0.52958 0.0
H1096 H 0.68977 0.84452 0.53036 0.0
C1097 C 0.67298 0.87318 0.48623 0.0
O1098 O 0.68718 0.86833 0.49615 0.0
N1099 N 0.63605 0.8338 0.48905 0.0
C1100 C 0.63316 0.81559 0.48724 0.0
C1101 C 0.62033 0.81296 0.4737 0.0
C1102 C 0.625 0.842 0.47681 0.0
N1103 N 0.61516 0.8296 0.46719 0.0
C1104 C 0.67614 0.81745 0.51392 0.0
C1105 C 0.6931 0.81748 0.48028 0.0
C1106 C 0.69951 0.80544 0.49381 0.0
C1107 C 0.6905 0.80525 0.51064 0.0
C1108 C 0.67862 0.82961 0.4842 0.0
N1109 N 0.67106 0.83022 0.50124 0.0
H1110 H 0.66954 0.81709 0.52708 0.0
H1111 H 0.67343 0.83834 0.47348 0.0
H1112 H 0.63949 0.80505 0.49555 0.0
H1113 H 0.62406 0.85678 0.47526 0.0
O1114 O 0.6394 0.83109 0.52578 0.0
O1115 O 0.62798 0.85764 0.51619 0.0
O1116 O 0.65744 0.86537 0.4886 0.0
C1117 C 0.62653 0.84341 0.5269 0.0
H1118 H 0.69725 0.8705 0.5539 0.0
H1119 H 0.61482 0.7998 0.46946 0.0
H1120 H 0.69935 0.81771 0.46691 0.0
H1121 H 0.69452 0.79572 0.52126 0.0
Co1122 Co 0.34633 0.1621 0.51128 0.0
C1123 C 0.3398 0.13223 0.53789 0.0
C1124 C 0.31461 0.1465 0.53277 0.0
C1125 C 0.3113 0.13285 0.54532 0.0
N1126 N 0.33264 0.14639 0.52822 0.0
N1127 N 0.32717 0.12393 0.54849 0.0
H1128 H 0.35403 0.12806 0.53745 0.0
H1129 H 0.30415 0.15534 0.52714 0.0
C1130 C 0.32465 0.13864 0.48557 0.0
O1131 O 0.30959 0.14314 0.4943 0.0
N1132 N 0.36037 0.17672 0.49449 0.0
C1133 C 0.36226 0.19514 0.49353 0.0
C1134 C 0.3752 0.19908 0.48033 0.0
C1135 C 0.37208 0.16973 0.48216 0.0
N1136 N 0.38136 0.18303 0.47324 0.0
C1137 C 0.31804 0.18703 0.52159 0.0
C1138 C 0.30409 0.19371 0.48723 0.0
C1139 C 0.29573 0.20197 0.50235 0.0
C1140 C 0.30302 0.19871 0.51965 0.0
C1141 C 0.31894 0.18173 0.48984 0.0
N1142 N 0.32513 0.17784 0.50698 0.0
H1143 H 0.32362 0.1848 0.53504 0.0
H1144 H 0.32555 0.1757 0.47809 0.0
H1145 H 0.35506 0.20493 0.50204 0.0
H1146 H 0.37431 0.1551 0.48039 0.0
O1147 O 0.35644 0.17572 0.5313 0.0
O1148 O 0.36924 0.15088 0.51916 0.0
O1149 O 0.34019 0.14491 0.49067 0.0
C1150 C 0.36992 0.16401 0.53126 0.0
H1151 H 0.29816 0.12951 0.55137 0.0
H1152 H 0.37979 0.21269 0.47641 0.0
H1153 H 0.29914 0.19641 0.47358 0.0
H1154 H 0.29733 0.20539 0.53158 0.0
Co1155 Co 0.35038 0.85115 0.50576 0.0
C1156 C 0.37147 0.84274 0.5396 0.0
C1157 C 0.37827 0.82438 0.51779 0.0
C1158 C 0.38954 0.82054 0.53227 0.0
N1159 N 0.3668 0.83827 0.52232 0.0
N1160 N 0.38536 0.8322 0.5459 0.0
H1161 H 0.36537 0.85383 0.5473 0.0
H1162 H 0.37938 0.81814 0.50453 0.0
C1163 C 0.36396 0.84088 0.46849 0.0
O1164 O 0.34686 0.83913 0.463 0.0
N1165 N 0.3345 0.86439 0.48906 0.0
C1166 C 0.31598 0.86521 0.48832 0.0
C1167 C 0.31095 0.87712 0.47459 0.0
C1168 C 0.34039 0.87621 0.47617 0.0
N1169 N 0.32635 0.88385 0.46689 0.0
C1170 C 0.31962 0.82796 0.51264 0.0
C1171 C 0.33055 0.79732 0.49321 0.0
C1172 C 0.31346 0.79723 0.50192 0.0
C1173 C 0.3082 0.81268 0.51193 0.0
C1174 C 0.34157 0.81313 0.49409 0.0
N1175 N 0.3358 0.82856 0.50323 0.0
H1176 H 0.31508 0.83941 0.52077 0.0
H1177 H 0.3547 0.81261 0.48746 0.0
H1178 H 0.30659 0.85804 0.49715 0.0
H1179 H 0.35474 0.87919 0.47366 0.0
O1180 O 0.33713 0.86189 0.52574 0.0
O1181 O 0.36143 0.87462 0.5127 0.0
O1182 O 0.3675 0.84484 0.48507 0.0
C1183 C 0.34831 0.87572 0.52473 0.0
H1184 H 0.40081 0.81081 0.53229 0.0
H1185 H 0.29706 0.88038 0.47044 0.0
H1186 H 0.33522 0.78541 0.48562 0.0
H1187 H 0.29533 0.81293 0.51934 0.0
Co1188 Co 0.50456 0.66031 0.16372 0.0
C1189 C 0.47488 0.66686 0.1363 0.0
C1190 C 0.49452 0.68883 0.13766 0.0
C1191 C 0.48217 0.6928 0.12412 0.0
N1192 N 0.48992 0.67263 0.1454 0.0
N1193 N 0.46986 0.67896 0.12325 0.0
H1194 H 0.4678 0.65406 0.13894 0.0
H1195 H 0.50639 0.69699 0.14131 0.0
C1196 C 0.54394 0.66506 0.14922 0.0
O1197 O 0.55162 0.66019 0.16465 0.0
N1198 N 0.51948 0.64787 0.18165 0.0
C1199 C 0.52169 0.65162 0.19948 0.0
C1200 C 0.53392 0.63902 0.20668 0.0
C1201 C 0.52962 0.6327 0.17847 0.0
N1202 N 0.53894 0.62722 0.19337 0.0
C1203 C 0.49034 0.69172 0.18148 0.0
C1204 C 0.52306 0.70844 0.19083 0.0
C1205 C 0.50646 0.71673 0.19605 0.0
C1206 C 0.48997 0.70824 0.19108 0.0
C1207 C 0.52281 0.69193 0.18104 0.0
N1208 N 0.50657 0.68368 0.17659 0.0
H1209 H 0.47745 0.68527 0.17794 0.0
H1210 H 0.53568 0.6857 0.17765 0.0
H1211 H 0.51508 0.66277 0.20671 0.0
H1212 H 0.531 0.62656 0.16512 0.0
O1213 O 0.48304 0.65128 0.17604 0.0
O1214 O 0.49748 0.63635 0.15399 0.0
O1215 O 0.52646 0.66571 0.14752 0.0
C1216 C 0.48418 0.63667 0.16591 0.0
H1217 H 0.48265 0.70464 0.11518 0.0
H1218 H 0.53883 0.63869 0.22058 0.0
H1219 H 0.53612 0.71456 0.19446 0.0
H1220 H 0.47683 0.71398 0.19509 0.0
Co1221 Co 0.34677 0.50664 0.1549 0.0
C1222 C 0.37786 0.52918 0.16671 0.0
C1223 C 0.35428 0.53436 0.18349 0.0
C1224 C 0.36802 0.54648 0.18832 0.0
N1225 N 0.36055 0.52346 0.17001 0.0
N1226 N 0.38277 0.54331 0.17762 0.0
H1227 H 0.38636 0.52365 0.15593 0.0
H1228 H 0.34041 0.53426 0.18875 0.0
C1229 C 0.36221 0.46961 0.16311 0.0
O1230 O 0.34517 0.46371 0.16393 0.0
N1231 N 0.33373 0.48985 0.1388 0.0
C1232 C 0.31559 0.4869 0.1363 0.0
C1233 C 0.31328 0.47492 0.12198 0.0
C1234 C 0.34206 0.47988 0.12565 0.0
N1235 N 0.32995 0.47053 0.11526 0.0
C1236 C 0.31367 0.5058 0.17568 0.0
C1237 C 0.32711 0.48884 0.20653 0.0
C1238 C 0.3084 0.4934 0.20566 0.0
C1239 C 0.30183 0.50217 0.19007 0.0
C1240 C 0.33852 0.49238 0.19149 0.0
N1241 N 0.33152 0.49999 0.17589 0.0
H1242 H 0.30839 0.51379 0.16451 0.0
H1243 H 0.35302 0.48946 0.19262 0.0
H1244 H 0.30449 0.49314 0.1437 0.0
H1245 H 0.35677 0.47991 0.12349 0.0
O1246 O 0.33213 0.52685 0.14634 0.0
O1247 O 0.35799 0.51766 0.13338 0.0
O1248 O 0.36549 0.48666 0.16007 0.0
C1249 C 0.34414 0.52906 0.13352 0.0
H1250 H 0.36681 0.55757 0.1981 0.0
H1251 H 0.30025 0.46989 0.11694 0.0
H1252 H 0.33285 0.48267 0.2187 0.0
H1253 H 0.2877 0.50681 0.18923 0.0
Co1254 Co 0.50394 0.34178 0.15827 0.0
C1255 C 0.47192 0.36634 0.16606 0.0
C1256 C 0.48865 0.36275 0.18971 0.0
C1257 C 0.47487 0.37507 0.19378 0.0
N1258 N 0.48679 0.357 0.17231 0.0
N1259 N 0.46445 0.37741 0.17885 0.0
H1260 H 0.46677 0.36559 0.15231 0.0
H1261 H 0.49973 0.35924 0.19874 0.0
C1262 C 0.54178 0.35426 0.16856 0.0
O1263 O 0.54759 0.33719 0.16704 0.0
N1264 N 0.52096 0.32735 0.14369 0.0
C1265 C 0.5243 0.30906 0.14342 0.0
C1266 C 0.53765 0.3055 0.13056 0.0
C1267 C 0.53195 0.3345 0.13069 0.0
N1268 N 0.54242 0.32154 0.1226 0.0
C1269 C 0.49657 0.30878 0.1785 0.0
C1270 C 0.51921 0.31545 0.20788 0.0
C1271 C 0.50984 0.29868 0.20692 0.0
C1272 C 0.4983 0.29545 0.19209 0.0
C1273 C 0.51741 0.32827 0.19381 0.0
N1274 N 0.50653 0.32476 0.17898 0.0
H1275 H 0.4876 0.30576 0.16723 0.0
H1276 H 0.52456 0.34109 0.19537 0.0
H1277 H 0.51769 0.29885 0.1518 0.0
H1278 H 0.53271 0.34909 0.12771 0.0
O1279 O 0.48391 0.32976 0.14608 0.0
O1280 O 0.49746 0.3552 0.13629 0.0
O1281 O 0.52473 0.35813 0.16653 0.0
C1282 C 0.48532 0.3423 0.13358 0.0
H1283 H 0.47327 0.38252 0.20645 0.0
H1284 H 0.5433 0.29212 0.12725 0.0
H1285 H 0.52806 0.31856 0.21933 0.0
H1286 H 0.49054 0.28276 0.19104 0.0
Co1287 Co 0.65644 0.50257 0.16347 0.0
C1288 C 0.63651 0.46974 0.17836 0.0
C1289 C 0.61962 0.49383 0.17727 0.0
C1290 C 0.60905 0.47947 0.18321 0.0
N1291 N 0.63712 0.48808 0.17496 0.0
N1292 N 0.61965 0.46433 0.18385 0.0
H1293 H 0.64764 0.46027 0.17566 0.0
H1294 H 0.61425 0.50712 0.1734 0.0
C1295 C 0.63747 0.53095 0.18621 0.0
O1296 O 0.64038 0.52029 0.20039 0.0
N1297 N 0.67466 0.51728 0.15128 0.0
C1298 C 0.693 0.51506 0.15027 0.0
C1299 C 0.69999 0.52853 0.13889 0.0
C1300 C 0.6707 0.5317 0.14052 0.0
N1301 N 0.68585 0.53885 0.13272 0.0
C1302 C 0.67662 0.48665 0.19292 0.0
C1303 C 0.6909 0.51916 0.20638 0.0
C1304 C 0.69649 0.50241 0.21419 0.0
C1305 C 0.68906 0.48604 0.2073 0.0
C1306 C 0.67855 0.51912 0.19184 0.0
N1307 N 0.67123 0.50301 0.18552 0.0
H1308 H 0.67216 0.47383 0.18713 0.0
H1309 H 0.6752 0.53206 0.18536 0.0
H1310 H 0.70066 0.50429 0.15706 0.0
H1311 H 0.65687 0.53671 0.13833 0.0
O1312 O 0.66677 0.48069 0.15293 0.0
O1313 O 0.64509 0.4978 0.14 0.0
O1314 O 0.64311 0.52601 0.17044 0.0
C1315 C 0.6559 0.48347 0.1392 0.0
H1316 H 0.59432 0.47974 0.18522 0.0
H1317 H 0.71423 0.53021 0.135 0.0
H1318 H 0.69628 0.53219 0.21118 0.0
H1319 H 0.69347 0.47273 0.21234 0.0
Co1320 Co 0.50374 0.35914 0.8413 0.0
C1321 C 0.53598 0.37852 0.82507 0.0
C1322 C 0.51196 0.39547 0.82484 0.0
C1323 C 0.52648 0.40579 0.81882 0.0
N1324 N 0.51763 0.37806 0.82824 0.0
N1325 N 0.5416 0.39518 0.8191 0.0
H1326 H 0.54531 0.36737 0.82822 0.0
H1327 H 0.49879 0.40122 0.8283 0.0
C1328 C 0.47253 0.37875 0.82316 0.0
O1329 O 0.48044 0.37536 0.80743 0.0
N1330 N 0.49 0.34124 0.8551 0.0
C1331 C 0.49193 0.32279 0.85566 0.0
C1332 C 0.47944 0.31584 0.86805 0.0
C1333 C 0.47674 0.3453 0.8672 0.0
N1334 N 0.46998 0.33007 0.87531 0.0
C1335 C 0.51425 0.34114 0.80829 0.0
C1336 C 0.48038 0.32591 0.80038 0.0
C1337 C 0.49533 0.32208 0.78894 0.0
C1338 C 0.51239 0.32994 0.79301 0.0
C1339 C 0.48282 0.33733 0.8155 0.0
N1340 N 0.49956 0.34504 0.81915 0.0
H1341 H 0.52773 0.34608 0.81171 0.0
H1342 H 0.47125 0.33988 0.82439 0.0
H1343 H 0.50176 0.31501 0.84773 0.0
H1344 H 0.47214 0.3592 0.86997 0.0
O1345 O 0.5261 0.34727 0.84853 0.0
O1346 O 0.51246 0.36968 0.86401 0.0
O1347 O 0.48027 0.37369 0.83798 0.0
C1348 C 0.52606 0.35802 0.86265 0.0
H1349 H 0.52631 0.42049 0.81634 0.0
H1350 H 0.47776 0.3015 0.87172 0.0
H1351 H 0.46698 0.32 0.79779 0.0
H1352 H 0.52444 0.32683 0.78492 0.0
Co1353 Co 0.66203 0.51428 0.84196 0.0
C1354 C 0.64 0.54527 0.82688 0.0
C1355 C 0.63642 0.52056 0.81149 0.0
C1356 C 0.62341 0.53312 0.80603 0.0
N1357 N 0.64682 0.52803 0.82477 0.0
N1358 N 0.62542 0.54863 0.81594 0.0
H1359 H 0.64482 0.55483 0.83702 0.0
H1360 H 0.63679 0.50636 0.80722 0.0
C1361 C 0.65011 0.4749 0.83763 0.0
O1362 O 0.66722 0.46953 0.83977 0.0
N1363 N 0.67623 0.50055 0.85973 0.0
C1364 C 0.69443 0.50034 0.86308 0.0
C1365 C 0.69757 0.48991 0.87846 0.0
C1366 C 0.66862 0.49075 0.87339 0.0
N1367 N 0.68129 0.4838 0.88493 0.0
C1368 C 0.69534 0.51713 0.82165 0.0
C1369 C 0.68766 0.49179 0.79471 0.0
C1370 C 0.70455 0.501 0.79439 0.0
C1371 C 0.70827 0.5138 0.80811 0.0
C1372 C 0.67499 0.49559 0.80858 0.0
N1373 N 0.67905 0.50781 0.82222 0.0
H1374 H 0.6987 0.52731 0.83177 0.0
H1375 H 0.66193 0.48878 0.80788 0.0
H1376 H 0.70478 0.50756 0.85541 0.0
H1377 H 0.65397 0.4887 0.87462 0.0
O1378 O 0.67388 0.5365 0.84986 0.0
O1379 O 0.64858 0.52516 0.86223 0.0
O1380 O 0.64602 0.49203 0.8378 0.0
C1381 C 0.66145 0.53766 0.86243 0.0
H1382 H 0.61228 0.53024 0.79672 0.0
H1383 H 0.71088 0.48737 0.88449 0.0
H1384 H 0.68406 0.48209 0.7841 0.0
H1385 H 0.72117 0.52122 0.80848 0.0
Co1386 Co 0.50143 0.66585 0.85804 0.0
C1387 C 0.47292 0.63867 0.84905 0.0
C1388 C 0.47581 0.65727 0.82666 0.0
C1389 C 0.46244 0.64458 0.82242 0.0
N1390 N 0.48237 0.65371 0.84354 0.0
N1391 N 0.46059 0.63295 0.83657 0.0
H1392 H 0.47525 0.63171 0.86185 0.0
H1393 H 0.48062 0.66774 0.81745 0.0
C1394 C 0.52246 0.63948 0.83499 0.0
O1395 O 0.513 0.64555 0.82102 0.0
N1396 N 0.52006 0.67701 0.87295 0.0
C1397 C 0.52184 0.69491 0.87745 0.0
C1398 C 0.53478 0.69631 0.89111 0.0
C1399 C 0.53183 0.66779 0.88376 0.0
N1400 N 0.54097 0.67922 0.895 0.0
C1401 C 0.49622 0.69465 0.83227 0.0
C1402 C 0.53124 0.69471 0.81773 0.0
C1403 C 0.5179 0.70651 0.81042 0.0
C1404 C 0.50036 0.7067 0.81816 0.0
C1405 C 0.52639 0.68262 0.83181 0.0
N1406 N 0.50871 0.68193 0.8381 0.0
H1407 H 0.48255 0.69499 0.83799 0.0
H1408 H 0.53685 0.67388 0.83765 0.0
H1409 H 0.51372 0.706 0.8718 0.0
H1410 H 0.53284 0.65292 0.88416 0.0
O1411 O 0.48338 0.68191 0.8686 0.0
O1412 O 0.49118 0.65475 0.87995 0.0
O1413 O 0.51951 0.64603 0.85087 0.0
C1414 C 0.48126 0.66965 0.88125 0.0
H1415 H 0.45465 0.64404 0.80989 0.0
H1416 H 0.53901 0.70883 0.89792 0.0
H1417 H 0.54512 0.69461 0.81242 0.0
H1418 H 0.48987 0.71608 0.81328 0.0
Co1419 Co 0.34134 0.51338 0.84967 0.0
C1420 C 0.33478 0.54196 0.87797 0.0
C1421 C 0.30926 0.5327 0.86685 0.0
C1422 C 0.30566 0.54656 0.87903 0.0
N1423 N 0.32762 0.52982 0.86593 0.0
N1424 N 0.32173 0.5524 0.88593 0.0
H1425 H 0.3493 0.54371 0.88049 0.0
H1426 H 0.29887 0.52555 0.85915 0.0
C1427 C 0.32159 0.486 0.87352 0.0
O1428 O 0.30588 0.49384 0.86953 0.0
N1429 N 0.35497 0.49731 0.83381 0.0
C1430 C 0.35597 0.49833 0.81554 0.0
C1431 C 0.36769 0.48478 0.80947 0.0
C1432 C 0.36606 0.48331 0.83867 0.0
N1433 N 0.37402 0.47537 0.82404 0.0
C1434 C 0.31208 0.52383 0.82643 0.0
C1435 C 0.29885 0.48889 0.8192 0.0
C1436 C 0.29019 0.50419 0.81131 0.0
C1437 C 0.29707 0.5218 0.81493 0.0
C1438 C 0.31377 0.49158 0.83089 0.0
N1439 N 0.3197 0.50896 0.83491 0.0
H1440 H 0.3174 0.5375 0.82888 0.0
H1441 H 0.32073 0.4797 0.83649 0.0
H1442 H 0.34875 0.5083 0.80725 0.0
H1443 H 0.36863 0.47938 0.85265 0.0
O1444 O 0.35064 0.53434 0.83647 0.0
O1445 O 0.36437 0.52149 0.86022 0.0
O1446 O 0.33653 0.49188 0.86649 0.0
C1447 C 0.36452 0.5341 0.84758 0.0
H1448 H 0.29225 0.552 0.88246 0.0
H1449 H 0.37123 0.48205 0.79543 0.0
H1450 H 0.29419 0.47503 0.8163 0.0
H1451 H 0.29119 0.53391 0.80857 0.0
Co1452 Co 0.66075 0.65587 0.00841 0.0
C1453 C 0.67317 0.63559 0.97536 0.0
C1454 C 0.67586 0.61919 -0.00063 0.0
C1455 C 0.67974 0.60832 0.98464 0.0
N1456 N 0.67232 0.6366 0.99376 0.0
N1457 N 0.67787 0.6186 0.96958 0.0
H1458 H 0.66902 0.64651 0.96625 0.0
H1459 H 0.67369 0.61386 0.01288 0.0
C1460 C 0.68343 0.63712 0.03696 0.0
O1461 O 0.69796 0.63994 0.02671 0.0
N1462 N 0.64833 0.67394 0.02314 0.0
C1463 C 0.64834 0.6925 0.02228 0.0
C1464 C 0.63642 0.69913 0.03543 0.0
C1465 C 0.63633 0.66955 0.03633 0.0
N1466 N 0.62883 0.68459 0.04404 0.0
C1467 C 0.69107 0.675 0.99271 0.0
C1468 C 0.70427 0.69056 0.02442 0.0
C1469 C 0.71247 0.69541 0.00779 0.0
C1470 C 0.70573 0.68729 0.99183 0.0
C1471 C 0.68946 0.67829 0.02467 0.0
N1472 N 0.68315 0.6705 0.00893 0.0
H1473 H 0.68553 0.66982 0.98014 0.0
H1474 H 0.68277 0.67538 0.03749 0.0
H1475 H 0.65627 0.70057 0.01271 0.0
H1476 H 0.63306 0.65552 0.04015 0.0
O1477 O 0.65033 0.66665 0.98696 0.0
O1478 O 0.63704 0.6446 0.00329 0.0
O1479 O 0.66756 0.64238 0.03153 0.0
C1480 C 0.63651 0.6556 0.98924 0.0
H1481 H 0.68169 0.59353 0.98483 0.0
H1482 H 0.63321 0.71344 0.03812 0.0
H1483 H 0.70898 0.69643 0.03714 0.0
H1484 H 0.71111 0.69102 0.9786 0.0
Co1485 Co 0.65857 0.36019 0.99743 0.0
C1486 C 0.63631 0.35196 0.96437 0.0
C1487 C 0.63468 0.33024 0.98397 0.0
C1488 C 0.62239 0.3266 0.97025 0.0
N1489 N 0.6436 0.34614 0.98034 0.0
N1490 N 0.62328 0.34038 0.95804 0.0
H1491 H 0.63967 0.36481 0.95781 0.0
H1492 H 0.63561 0.32251 0.99643 0.0
C1493 C 0.64434 0.34949 0.03436 0.0
O1494 O 0.66133 0.34955 0.04042 0.0
N1495 N 0.67255 0.3748 0.01459 0.0
C1496 C 0.6908 0.37767 0.01615 0.0
C1497 C 0.69371 0.39099 0.02931 0.0
C1498 C 0.66472 0.38665 0.0264 0.0
N1499 N 0.67724 0.39641 0.03577 0.0
C1500 C 0.69106 0.33887 0.99141 0.0
C1501 C 0.68163 0.30764 0.01062 0.0
C1502 C 0.69805 0.30772 0.00071 0.0
C1503 C 0.70277 0.32368 0.99119 0.0
C1504 C 0.67011 0.32313 0.01032 0.0
N1505 N 0.6748 0.33867 0.00078 0.0
H1506 H 0.69526 0.35075 0.98371 0.0
H1507 H 0.65727 0.32202 0.01739 0.0
H1508 H 0.70129 0.37101 0.00814 0.0
H1509 H 0.65001 0.38825 0.02793 0.0
O1510 O 0.6718 0.37145 0.97777 0.0
O1511 O 0.64653 0.38308 0.98976 0.0
O1512 O 0.64105 0.35274 0.01755 0.0
C1513 C 0.65998 0.38475 0.97814 0.0
H1514 H 0.61249 0.31548 0.9701 0.0
H1515 H 0.70687 0.39618 0.03387 0.0
H1516 H 0.67739 0.29547 0.01805 0.0
H1517 H 0.71547 0.32445 0.98353 0.0
Co1518 Co 0.34598 0.67158 0.00991 0.0
C1519 C 0.33634 0.64588 0.03984 0.0
C1520 C 0.31477 0.64785 0.02018 0.0
C1521 C 0.31072 0.63369 0.03199 0.0
N1522 N 0.33092 0.65555 0.02503 0.0
N1523 N 0.32446 0.63231 0.0442 0.0
H1524 H 0.34917 0.64795 0.04683 0.0
H1525 H 0.30714 0.65109 0.00802 0.0
C1526 C 0.34018 0.65831 0.97154 0.0
O1527 O 0.34182 0.6752 0.96533 0.0
N1528 N 0.36144 0.68685 0.99467 0.0
C1529 C 0.36027 0.70488 0.99036 0.0
C1530 C 0.37424 0.70906 0.97832 0.0
C1531 C 0.37621 0.68049 0.98558 0.0
N1532 N 0.3842 0.69366 0.97542 0.0
C1533 C 0.32327 0.70275 0.01728 0.0
C1534 C 0.29698 0.69745 0.99074 0.0
C1535 C 0.29569 0.71293 0.00204 0.0
C1536 C 0.30903 0.7154 0.01548 0.0
C1537 C 0.31147 0.68495 0.99308 0.0
N1538 N 0.32476 0.68786 0.00597 0.0
H1539 H 0.33333 0.70543 0.02765 0.0
H1540 H 0.31143 0.67283 0.98471 0.0
H1541 H 0.34995 0.71435 0.99521 0.0
H1542 H 0.38046 0.6662 0.98571 0.0
O1543 O 0.35604 0.68354 0.03104 0.0
O1544 O 0.368 0.65882 0.01804 0.0
O1545 O 0.3403 0.6551 0.98863 0.0
C1546 C 0.36912 0.67143 0.0306 0.0
H1547 H 0.29931 0.62422 0.03072 0.0
H1548 H 0.37677 0.72233 0.97209 0.0
H1549 H 0.28668 0.69483 0.98042 0.0
H1550 H 0.30871 0.72726 0.02443 0.0
Co1551 Co 0.35057 0.34945 0.00053 0.0
C1552 C 0.3826 0.34468 0.02511 0.0
C1553 C 0.36952 0.31871 0.02041 0.0
C1554 C 0.38438 0.31587 0.03151 0.0
N1555 N 0.36824 0.33686 0.01633 0.0
N1556 N 0.39259 0.33219 0.03447 0.0
H1557 H 0.38599 0.35915 0.02452 0.0
H1558 H 0.36073 0.30789 0.01543 0.0
C1559 C 0.37375 0.32857 0.97366 0.0
O1560 O 0.37033 0.31327 0.98251 0.0
N1561 N 0.33357 0.36219 0.98488 0.0
C1562 C 0.31517 0.36303 0.98652 0.0
C1563 C 0.30855 0.3753 0.97379 0.0
C1564 C 0.33794 0.37387 0.97132 0.0
N1565 N 0.3229 0.3821 0.96429 0.0
C1566 C 0.32799 0.32085 0.01389 0.0
C1567 C 0.31823 0.30535 0.98095 0.0
C1568 C 0.31063 0.29823 0.99707 0.0
C1569 C 0.31586 0.30612 0.01366 0.0
C1570 C 0.3306 0.32014 0.98181 0.0
N1571 N 0.33571 0.32734 0.99823 0.0
H1572 H 0.33155 0.32687 0.02686 0.0
H1573 H 0.3357 0.32611 0.96931 0.0
H1574 H 0.30721 0.35565 0.99659 0.0
H1575 H 0.35192 0.37694 0.96732 0.0
O1576 O 0.3382 0.35948 0.02139 0.0
O1577 O 0.36121 0.37317 0.00705 0.0
O1578 O 0.3664 0.34373 0.97869 0.0
C1579 C 0.34906 0.37357 0.02009 0.0
H1580 H 0.38868 0.30278 0.03715 0.0
H1581 H 0.2943 0.3791 0.97187 0.0
H1582 H 0.31422 0.29996 0.96779 0.0
H1583 H 0.31061 0.301 0.02649 0.0
H1584 H 0.97456 0.30472 0.27078 0.0
H1585 H 0.03357 0.30971 0.26764 0.0
H1586 H 0.97513 0.28241 0.24585 0.0
H1587 H 0.03418 0.28764 0.24265 0.0
H1588 H 0.02902 0.22766 0.22242 0.0
H1589 H 0.02897 0.25447 0.24219 0.0
H1590 H 0.98197 0.27633 0.21348 0.0
H1591 H 0.98208 0.24941 0.19349 0.0
C1592 C 0.98758 0.30138 0.26444 0.0
C1593 C 0.00404 0.30869 0.27128 0.0
C1594 C 0.98793 0.28863 0.25017 0.0
C1595 C 0.00474 0.28306 0.24248 0.0
C1596 C 0.02106 0.29135 0.24857 0.0
C1597 C 0.02071 0.304 0.26283 0.0
C1598 C 0.01891 0.23834 0.22004 0.0
C1599 C 0.00555 0.23638 0.20639 0.0
C1600 C 0.01887 0.25374 0.23139 0.0
C1601 C 0.00547 0.26754 0.22938 0.0
C1602 C 0.99234 0.26581 0.21548 0.0
C1603 C 0.9924 0.2504 0.20407 0.0
H1604 H 0.76865 0.99239 0.20398 0.0
H1605 H 0.81077 0.98973 0.2453 0.0
H1606 H 0.74504 0.99038 0.22737 0.0
H1607 H 0.78702 0.98772 0.26883 0.0
H1608 H 0.73769 0.97215 0.30521 0.0
H1609 H 0.76099 0.96884 0.28133 0.0
H1610 H 0.73491 0.01243 0.25072 0.0
H1611 H 0.7116 0.01546 0.27427 0.0
C1612 C 0.77285 0.99131 0.21809 0.0
C1613 C 0.79155 0.99153 0.22285 0.0
C1614 C 0.75933 0.99015 0.23147 0.0
C1615 C 0.76418 0.98916 0.24994 0.0
C1616 C 0.78288 0.98838 0.25468 0.0
C1617 C 0.79647 0.98954 0.24124 0.0
C1618 C 0.73686 0.98083 0.29325 0.0
C1619 C 0.72288 0.9941 0.2916 0.0
C1620 C 0.75025 0.97904 0.27968 0.0
C1621 C 0.74975 0.99035 0.26415 0.0
C1622 C 0.73555 0.00336 0.26241 0.0
C1623 C 0.7223 0.00523 0.27598 0.0
H1624 H 0.00845 0.69909 0.26264 0.0
H1625 H 0.03146 0.74112 0.29741 0.0
H1626 H 0.00989 0.72025 0.23679 0.0
H1627 H 0.03241 0.7624 0.2718 0.0
H1628 H 0.04152 0.79434 0.22015 0.0
H1629 H 0.04598 0.76954 0.2422 0.0
H1630 H 0.99232 0.74792 0.229 0.0
H1631 H 0.98813 0.7723 0.20661 0.0
C1632 C 0.01413 0.71272 0.26468 0.0
C1633 C 0.01969 0.71852 0.28206 0.0
C1634 C 0.01478 0.7249 0.24994 0.0
C1635 C 0.0211 0.74306 0.25229 0.0
C1636 C 0.02759 0.74848 0.26948 0.0
C1637 C 0.02688 0.73635 0.2842 0.0
C1638 C 0.03083 0.78409 0.22174 0.0
C1639 C 0.0144 0.78537 0.21178 0.0
C1640 C 0.03333 0.76997 0.23446 0.0
C1641 C 0.01947 0.7568 0.2374 0.0
C1642 C 0.00334 0.75772 0.22694 0.0
C1643 C 0.00083 0.77184 0.21429 0.0
H1644 H 0.28762 0.98758 0.2791 0.0
H1645 H 0.25397 0.01038 0.32186 0.0
H1646 H 0.26109 0.98719 0.25871 0.0
H1647 H 0.22729 0.01033 0.30128 0.0
H1648 H 0.19938 0.0319 0.24522 0.0
H1649 H 0.22094 0.02866 0.2706 0.0
H1650 H 0.2291 0.97146 0.25678 0.0
H1651 H 0.20728 0.97446 0.23181 0.0
C1652 C 0.27443 0.99227 0.28414 0.0
C1653 C 0.27268 0.99893 0.30195 0.0
C1654 C 0.25928 0.99201 0.27256 0.0
C1655 C 0.24219 0.99871 0.27849 0.0
C1656 C 0.24035 0.00511 0.29644 0.0
C1657 C 0.25549 0.00504 0.30818 0.0
C1658 C 0.2054 0.01853 0.2479 0.0
C1659 C 0.20194 0.00354 0.23628 0.0
C1660 C 0.21772 0.01668 0.26241 0.0
C1661 C 0.2268 -0.00013 0.26543 0.0
C1662 C 0.22246 0.98463 0.25454 0.0
C1663 C 0.21007 0.98641 0.2402 0.0
H1664 H 0.98806 0.8176 0.76374 0.0
H1665 H 0.0185 0.78049 0.7984 0.0
H1666 H 0.99151 0.79602 0.73836 0.0
H1667 H 0.02167 0.75889 0.77336 0.0
H1668 H 0.03698 0.72841 0.72317 0.0
H1669 H 0.03655 0.75412 0.7446 0.0
H1670 H 0.98053 0.76631 0.72921 0.0
H1671 H 0.98133 0.7413 0.70724 0.0
C1672 C 0.99536 0.80478 0.76593 0.0
C1673 C 0.00307 0.80073 0.78298 0.0
C1674 C 0.99739 0.79245 0.75143 0.0
C1675 C 0.00704 0.7758 0.75377 0.0
C1676 C 0.01459 0.77178 0.77091 0.0
C1677 C 0.01266 0.7841 0.78531 0.0
C1678 C 0.02477 0.73688 0.72407 0.0
C1679 C 0.00909 0.73266 0.71376 0.0
C1680 C 0.02442 0.75147 0.73648 0.0
C1681 C 0.00839 0.76208 0.73884 0.0
C1682 C 0.99312 0.7585 0.72773 0.0
C1683 C 0.9935 0.744 0.71529 0.0
H1684 H 0.27587 0.96629 0.71101 0.0
H1685 H 0.30004 0.01107 0.7413 0.0
H1686 H 0.24911 0.96674 0.73147 0.0
H1687 H 0.27366 0.01146 0.76165 0.0
H1688 H 0.21573 0.02667 0.77545 0.0
H1689 H 0.24158 0.02154 0.7551 0.0
H1690 H 0.23803 0.96296 0.76472 0.0
H1691 H 0.2119 0.96816 0.78531 0.0
C1692 C 0.27566 0.97586 0.72232 0.0
C1693 C 0.28985 0.9888 0.7245 0.0
C1694 C 0.26036 0.97617 0.73396 0.0
C1695 C 0.25913 0.98944 0.74786 0.0
C1696 C 0.27401 0.00141 0.75076 0.0
C1697 C 0.28915 0.00112 0.7392 0.0
C1698 C 0.22038 0.01268 0.77316 0.0
C1699 C 0.21201 0.99785 0.78218 0.0
C1700 C 0.23522 0.00974 0.76156 0.0
C1701 C 0.24209 0.99189 0.75868 0.0
C1702 C 0.23305 0.97687 0.76678 0.0
C1703 C 0.2181 0.97983 0.77848 0.0
H1704 H 0.04545 0.29331 0.72282 0.0
H1705 H 0.98638 0.2942 0.72805 0.0
H1706 H 0.04743 0.27223 0.7489 0.0
H1707 H 0.98832 0.27319 0.75382 0.0
H1708 H 0.99789 0.25002 0.80944 0.0
H1709 H -4e-05 0.27337 0.78575 0.0
H1710 H 0.03783 0.23903 0.75584 0.0
H1711 H 0.03562 0.21542 0.77959 0.0
C1712 C 0.03294 0.28912 0.72964 0.0
C1713 C 0.01576 0.29532 0.7234 0.0
C1714 C 0.03406 0.27698 0.74444 0.0
C1715 C 0.01804 0.27112 0.75341 0.0
C1716 C 0.00093 0.27762 0.74732 0.0
C1717 C 0.9998 0.28952 0.73247 0.0
C1718 C 0.00671 0.24743 0.79784 0.0
C1719 C 0.01631 0.2307 0.79621 0.0
C1720 C 0.00791 0.26084 0.7843 0.0
C1721 C 0.01884 0.25791 0.76882 0.0
C1722 C 0.02934 0.24168 0.76766 0.0
C1723 C 0.02808 0.22817 0.78124 0.0
H1724 H 0.76352 0.98392 0.81155 0.0
H1725 H 0.78697 0.02993 0.78233 0.0
H1726 H 0.73721 0.98407 0.79081 0.0
H1727 H 0.7608 0.03016 0.76186 0.0
H1728 H 0.7058 0.03617 0.73574 0.0
H1729 H 0.72769 0.03652 0.76093 0.0
H1730 H 0.73159 0.97718 0.75845 0.0
H1731 H 0.70932 0.97681 0.73369 0.0
C1732 C 0.76308 0.99403 0.80071 0.0
C1733 C 0.7773 0.00696 0.79864 0.0
C1734 C 0.748 0.99416 0.78889 0.0
C1735 C 0.74685 0.00725 0.77482 0.0
C1736 C 0.76104 0.02019 0.77283 0.0
C1737 C 0.77608 0.02002 0.78456 0.0
C1738 C 0.71101 0.0232 0.74087 0.0
C1739 C 0.70604 0.00649 0.73261 0.0
C1740 C 0.72367 0.0234 0.75516 0.0
C1741 C 0.73155 0.00689 0.7615 0.0
C1742 C 0.72574 0.99011 0.75393 0.0
C1743 C 0.71313 0.98992 0.73962 0.0
H1744 H 0.22859 0.21426 0.97388 0.0
H1745 H 0.23516 0.21344 0.03227 0.0
H1746 H 0.25368 0.2365 0.97132 0.0
H1747 H 0.26034 0.23564 0.02971 0.0
H1748 H 0.27996 0.29509 0.01816 0.0
H1749 H 0.25875 0.26937 0.02006 0.0
H1750 H 0.28827 0.2414 0.97725 0.0
H1751 H 0.31011 0.26709 0.97567 0.0
C1752 C 0.23561 0.21865 0.98613 0.0
C1753 C 0.22986 0.21232 0.00329 0.0
C1754 C 0.25002 0.23126 0.98465 0.0
C1755 C 0.25879 0.2379 0.00033 0.0
C1756 C 0.25364 0.23086 0.01742 0.0
C1757 C 0.23936 0.21808 0.01889 0.0
C1758 C 0.28217 0.28338 0.0093 0.0
C1759 C 0.29695 0.28304 0.99696 0.0
C1760 C 0.26999 0.26864 0.01042 0.0
C1761 C 0.27208 0.25327 -0.00096 0.0
C1762 C 0.28644 0.25309 0.98624 0.0
C1763 C 0.29883 0.26782 0.98525 0.0
H1764 H 0.20528 0.78771 0.97286 0.0
H1765 H 0.23337 0.8116 0.01893 0.0
H1766 H 0.2272 0.76212 0.97274 0.0
H1767 H 0.25519 0.78618 0.01879 0.0
H1768 H 0.27528 0.72846 0.029 0.0
H1769 H 0.25317 0.75346 0.02645 0.0
H1770 H 0.26007 0.75365 0.96805 0.0
H1771 H 0.28232 0.72841 0.97064 0.0
C1772 C 0.21632 0.78766 0.98274 0.0
C1773 C 0.2175 0.80155 0.99604 0.0
C1774 C 0.22883 0.77299 0.9827 0.0
C1775 C 0.24272 0.77197 0.99595 0.0
C1776 C 0.24435 0.78632 0.00869 0.0
C1777 C 0.23189 0.80092 0.00874 0.0
C1778 C 0.27207 0.73381 0.01561 0.0
C1779 C 0.28071 0.72665 4e-05 0.0
C1780 C 0.25945 0.74818 0.01414 0.0
C1781 C 0.25515 0.75577 0.99708 0.0
C1782 C 0.26312 0.74807 0.98139 0.0
C1783 C 0.2758 0.73362 0.98286 0.0
H1784 H 0.78937 0.23506 0.9766 0.0
H1785 H 0.76086 0.20667 0.01976 0.0
H1786 H 0.76552 0.25867 0.97625 0.0
H1787 H 0.73661 0.22984 0.01907 0.0
H1788 H 0.70991 0.28624 0.02895 0.0
H1789 H 0.73166 0.26068 0.02778 0.0
H1790 H 0.73486 0.26627 0.96927 0.0
H1791 H 0.71362 0.29219 0.97064 0.0
C1792 C 0.77776 0.23367 0.98572 0.0
C1793 C 0.77701 0.21911 0.99826 0.0
C1794 C 0.76404 0.24719 0.98554 0.0
C1795 C 0.74912 0.24632 0.99775 0.0
C1796 C 0.74806 0.23126 0.00976 0.0
C1797 C 0.76188 0.21789 0.01009 0.0
C1798 C 0.71516 0.28186 0.01586 0.0
C1799 C 0.71019 0.29129 -8e-05 0.0
C1800 C 0.72759 0.26715 0.01513 0.0
C1801 C 0.73516 0.26138 0.99841 0.0
C1802 C 0.72968 0.27053 0.98242 0.0
C1803 C 0.71744 0.28535 0.98319 0.0
H1804 H 0.71539 0.72688 0.02818 0.0
H1805 H 0.7423 0.69692 0.98487 0.0
H1806 H 0.73758 0.75157 0.02503 0.0
H1807 H 0.76374 0.72232 0.98082 0.0
H1808 H 0.8099 0.76497 0.99095 0.0
H1809 H 0.78906 0.73861 0.99347 0.0
H1810 H 0.74405 0.77584 0.00474 0.0
H1811 H 0.76507 0.80186 0.00298 0.0
C1812 C 0.72611 0.72545 0.01807 0.0
C1813 C 0.72695 0.70987 0.00675 0.0
C1814 C 0.73867 0.73983 0.01601 0.0
C1815 C 0.75228 0.73914 0.00242 0.0
C1816 C 0.75349 0.72333 0.99145 0.0
C1817 C 0.74103 0.70884 0.99364 0.0
C1818 C 0.79548 0.7674 0.9937 0.0
C1819 C 0.78903 0.78533 0.99687 0.0
C1820 C 0.78353 0.75236 0.99517 0.0
C1821 C 0.76489 0.75505 -0.00037 0.0
C1822 C 0.75838 0.77316 0.00184 0.0
C1823 C 0.77035 0.7881 0.00063 0.0
H1824 H 0.71563 0.46804 0.77949 0.0
H1825 H 0.72429 0.52681 0.77607 0.0
H1826 H 0.74047 0.46314 0.75737 0.0
H1827 H 0.74893 0.52194 0.75431 0.0
H1828 H 0.80487 0.50849 0.73458 0.0
H1829 H 0.78027 0.5085 0.75703 0.0
H1830 H 0.74955 0.46999 0.72416 0.0
H1831 H 0.7745 0.4699 0.7016 0.0
C1832 C 0.72268 0.47988 0.77387 0.0
C1833 C 0.71824 0.4978 0.77975 0.0
C1834 C 0.73689 0.47707 0.76128 0.0
C1835 C 0.74688 0.49213 0.75444 0.0
C1836 C 0.74183 0.51003 0.75973 0.0
C1837 C 0.7277 0.51282 0.77219 0.0
C1838 C 0.79299 0.4998 0.7323 0.0
C1839 C 0.79143 0.48939 0.71629 0.0
C1840 C 0.77888 0.49987 0.74508 0.0
C1841 C 0.76282 0.48958 0.74213 0.0
C1842 C 0.76177 0.47809 0.72674 0.0
C1843 C 0.77601 0.478 0.71388 0.0
H1844 H 0.19024 0.50774 0.74453 0.0
H1845 H 0.23751 0.50899 0.70894 0.0
H1846 H 0.21061 0.50442 0.77082 0.0
H1847 H 0.25768 0.50529 0.73506 0.0
H1848 H 0.28796 0.48074 0.78244 0.0
H1849 H 0.26475 0.48083 0.75839 0.0
H1850 H 0.2349 0.52352 0.78673 0.0
H1851 H 0.25797 0.52325 0.81088 0.0
C1852 C 0.20494 0.50747 0.74233 0.0
C1853 C 0.21226 0.50853 0.72464 0.0
C1854 C 0.21657 0.50544 0.75734 0.0
C1855 C 0.23567 0.5043 0.7549 0.0
C1856 C 0.24297 0.50566 0.73728 0.0
C1857 C 0.23141 0.50783 0.72233 0.0
C1858 C 0.2762 0.4898 0.78372 0.0
C1859 C 0.27479 0.50209 0.79839 0.0
C1860 C 0.26304 0.48999 0.76991 0.0
C1861 C 0.24819 0.50235 0.77063 0.0
C1862 C 0.24619 0.51383 0.78587 0.0
C1863 C 0.25942 0.51375 0.79959 0.0
H1864 H 0.31204 0.50492 0.24087 0.0
H1865 H 0.27557 0.47569 0.20479 0.0
H1866 H 0.28821 0.50525 0.26429 0.0
H1867 H 0.25193 0.47529 0.22831 0.0
H1868 H 0.20665 0.50172 0.26307 0.0
H1869 H 0.23135 0.49668 0.24123 0.0
H1870 H 0.26974 0.4892 0.28552 0.0
H1871 H 0.24506 0.4948 0.30727 0.0
C1872 C 0.29911 0.49806 0.23819 0.0
C1873 C 0.29559 0.49034 0.22105 0.0
C1874 C 0.2854 0.49824 0.25159 0.0
C1875 C 0.26796 0.49052 0.24815 0.0
C1876 C 0.26496 0.48179 0.23132 0.0
C1877 C 0.27856 0.48182 0.2179 0.0
C1878 C 0.22033 0.49879 0.26811 0.0
C1879 C 0.22393 0.49879 0.28687 0.0
C1880 C 0.23453 0.49582 0.2556 0.0
C1881 C 0.25266 0.49255 0.26155 0.0
C1882 C 0.25609 0.49201 0.28038 0.0
C1883 C 0.24192 0.49517 0.29287 0.0
H1884 H 0.76473 0.49021 0.31171 0.0
H1885 H 0.80198 0.50423 0.26825 0.0
H1886 H 0.73907 0.49023 0.29019 0.0
H1887 H 0.7767 0.50342 0.24651 0.0
H1888 H 0.72695 0.52433 0.21712 0.0
H1889 H 0.75147 0.52237 0.23933 0.0
H1890 H 0.72443 0.47608 0.26488 0.0
H1891 H 0.69911 0.47893 0.24342 0.0
C1892 C 0.76742 0.49279 0.29743 0.0
C1893 C 0.78517 0.49728 0.29153 0.0
C1894 C 0.75278 0.49281 0.2851 0.0
C1895 C 0.75575 0.49714 0.26665 0.0
C1896 C 0.7738 0.50057 0.26069 0.0
C1897 C 0.78832 0.50082 0.27304 0.0
C1898 C 0.72597 0.51398 0.2277 0.0
C1899 C 0.71099 0.50179 0.22843 0.0
C1900 C 0.74026 0.51261 0.24025 0.0
C1901 C 0.74012 0.49885 0.25374 0.0
C1902 C 0.72498 0.48688 0.25472 0.0
C1903 C 0.71055 0.48839 0.24227 0.0
H1904 H 0.24717 0.69561 0.49817 0.0
H1905 H 0.21737 0.73783 0.52717 0.0
H1906 H 0.27351 0.71657 0.49506 0.0
H1907 H 0.24349 0.75856 0.52423 0.0
H1908 H 0.27767 0.79808 0.4924 0.0
H1909 H 0.25511 0.7736 0.49566 0.0
H1910 H 0.29782 0.73606 0.51274 0.0
H1911 H 0.32065 0.76085 0.50935 0.0
C1912 C 0.24647 0.70918 0.50428 0.0
C1913 C 0.23023 0.71527 0.5127 0.0
C1914 C 0.26147 0.72114 0.50245 0.0
C1915 C 0.26032 0.73929 0.50903 0.0
C1916 C 0.24456 0.74479 0.51863 0.0
C1917 C 0.22966 0.73293 0.5204 0.0
C1918 C 0.28228 0.78454 0.49664 0.0
C1919 C 0.3008 0.78137 0.50088 0.0
C1920 C 0.26938 0.77057 0.49861 0.0
C1921 C 0.27468 0.7531 0.50491 0.0
C1922 C 0.2934 0.74947 0.50797 0.0
C1923 C 0.30642 0.76357 0.50598 0.0
H1924 H 0.29369 0.23254 0.481 0.0
H1925 H 0.26273 0.20028 0.51965 0.0
H1926 H 0.26948 0.25603 0.48117 0.0
H1927 H 0.23836 0.22363 0.51958 0.0
H1928 H 0.19325 0.26617 0.49724 0.0
H1929 H 0.21489 0.24032 0.49574 0.0
H1930 H 0.25938 0.27688 0.5097 0.0
H1931 H 0.23791 0.30244 0.51214 0.0
C1932 C 0.28151 0.23031 0.48919 0.0
C1933 C 0.28003 0.21471 0.50036 0.0
C1934 C 0.26776 0.24374 0.48937 0.0
C1935 C 0.25218 0.2416 0.50047 0.0
C1936 C 0.25023 0.22552 0.51088 0.0
C1937 C 0.26414 0.21225 0.51096 0.0
C1938 C 0.20757 0.26863 0.50036 0.0
C1939 C 0.21385 0.28648 0.50459 0.0
C1940 C 0.21994 0.25387 0.49933 0.0
C1941 C 0.23878 0.25678 0.50224 0.0
C1942 C 0.24496 0.27442 0.50699 0.0
C1943 C 0.23263 0.28904 0.50834 0.0
H1944 H 0.70738 0.78367 0.46413 0.0
H1945 H 0.72797 0.79958 0.51693 0.0
H1946 H 0.73308 0.76202 0.46076 0.0
H1947 H 0.75308 0.77782 0.51388 0.0
H1948 H 0.80434 0.74852 0.50006 0.0
H1949 H 0.78097 0.77237 0.49726 0.0
H1950 H 0.74337 0.73258 0.47436 0.0
H1951 H 0.76709 0.70872 0.47683 0.0
C1952 C 0.71747 0.78266 0.47491 0.0
C1953 C 0.7156 0.79322 0.49085 0.0
C1954 C 0.73207 0.77017 0.47306 0.0
C1955 C 0.74515 0.76819 0.48704 0.0
C1956 C 0.74344 0.77914 0.50272 0.0
C1957 C 0.72891 0.79149 0.50458 0.0
C1958 C 0.79113 0.74492 0.49426 0.0
C1959 C 0.7874 0.72672 0.48894 0.0
C1960 C 0.77773 0.75856 0.49269 0.0
C1961 C 0.76018 0.75432 0.48591 0.0
C1962 C 0.75677 0.73633 0.47958 0.0
C1963 C 0.77031 0.72266 0.48103 0.0
H1964 H 0.77225 0.30522 0.48244 0.0
H1965 H 0.8098 0.26542 0.50504 0.0
H1966 H 0.74682 0.28382 0.48687 0.0
H1967 H 0.78471 0.2434 0.50854 0.0
H1968 H 0.73443 0.21505 0.5308 0.0
H1969 H 0.75898 0.23748 0.52664 0.0
H1970 H 0.73265 0.25703 0.47752 0.0
H1971 H 0.7075 0.23592 0.48259 0.0
C1972 C 0.77507 0.29161 0.48782 0.0
C1973 C 0.79287 0.28679 0.49324 0.0
C1974 C 0.76054 0.27931 0.49041 0.0
C1975 C 0.7636 0.26184 0.49822 0.0
C1976 C 0.78168 0.25685 0.50293 0.0
C1977 C 0.79613 0.26929 0.50065 0.0
C1978 C 0.73371 0.22442 0.51935 0.0
C1979 C 0.71909 0.22346 0.50691 0.0
C1980 C 0.74797 0.23708 0.51675 0.0
C1981 C 0.74804 0.24894 0.50155 0.0
C1982 C 0.73312 0.24828 0.48945 0.0
C1983 C 0.71876 0.2359 0.49222 0.0
H1984 H 0.47045 0.23046 0.71642 0.0
H1985 H 0.52665 0.2455 0.70514 0.0
H1986 H 0.46704 0.25751 0.73576 0.0
H1987 H 0.52352 0.27238 0.725 0.0
H1988 H 0.50945 0.32521 0.75455 0.0
H1989 H 0.50941 0.30193 0.73054 0.0
H1990 H 0.47801 0.26561 0.76527 0.0
H1991 H 0.47785 0.2889 0.78901 0.0
C1992 C 0.48205 0.23966 0.71807 0.0
C1993 C 0.49888 0.23584 0.70953 0.0
C1994 C 0.48014 0.2551 0.72919 0.0
C1995 C 0.49508 0.26696 0.73218 0.0
C1996 C 0.51168 0.26361 0.72289 0.0
C1997 C 0.51353 0.24821 0.71157 0.0
C1998 C 0.50242 0.31228 0.75694 0.0
C1999 C 0.49367 0.30886 0.77366 0.0
C2000 C 0.50244 0.29894 0.74322 0.0
C2001 C 0.49376 0.28187 0.74598 0.0
C2002 C 0.48455 0.27871 0.76253 0.0
C2003 C 0.48446 0.29207 0.77618 0.0
H2004 H 0.52709 0.80501 0.74737 0.0
H2005 H 0.51866 0.7633 0.70629 0.0
H2006 H 0.53106 0.78096 0.77033 0.0
H2007 H 0.52258 0.73933 0.72921 0.0
H2008 H 0.49834 0.7087 0.77926 0.0
H2009 H 0.50197 0.73068 0.75451 0.0
H2010 H 0.54967 0.75362 0.78115 0.0
H2011 H 0.54589 0.73143 0.80617 0.0
C2012 C 0.5265 0.79072 0.74317 0.0
C2013 C 0.52225 0.78604 0.72509 0.0
C2014 C 0.52881 0.77695 0.75631 0.0
C2015 C 0.52691 0.75828 0.75159 0.0
C2016 C 0.52379 0.75362 0.7333 0.0
C2017 C 0.52149 0.76734 0.7202 0.0
C2018 C 0.50973 0.7183 0.7797 0.0
C2019 C 0.52177 0.71849 0.79461 0.0
C2020 C 0.51191 0.73079 0.76549 0.0
C2021 C 0.52612 0.74387 0.76589 0.0
C2022 C 0.53855 0.74373 0.78055 0.0
C2023 C 0.53648 0.73101 0.79476 0.0
H2024 H 0.49691 0.82239 0.25461 0.0
H2025 H 0.49537 0.77794 0.29367 0.0
H2026 H 0.49922 0.79977 0.22979 0.0
H2027 H 0.4979 0.7556 0.26914 0.0
H2028 H 0.52747 0.72329 0.22598 0.0
H2029 H 0.52438 0.74843 0.24774 0.0
H2030 H 0.48127 0.77242 0.21508 0.0
H2031 H 0.48454 0.7473 0.19302 0.0
C2032 C 0.49674 0.80783 0.25784 0.0
C2033 C 0.49627 0.80189 0.27605 0.0
C2034 C 0.49815 0.79493 0.2437 0.0
C2035 C 0.49918 0.776 0.24764 0.0
C2036 C 0.49763 0.77013 0.26577 0.0
C2037 C 0.49613 0.78291 0.27979 0.0
C2038 C 0.51762 0.73412 0.22321 0.0
C2039 C 0.50617 0.73328 0.20786 0.0
C2040 C 0.51571 0.7484 0.23576 0.0
C2041 C 0.5024 0.76219 0.23319 0.0
C2042 C 0.49161 0.76194 0.21737 0.0
C2043 C 0.49341 0.74753 0.20485 0.0
H2044 H 0.50456 0.19845 0.27134 0.0
H2045 H 0.52656 0.23876 0.30849 0.0
H2046 H 0.50482 0.22123 0.24693 0.0
H2047 H 0.52789 0.26137 0.28398 0.0
H2048 H 0.50606 0.30343 0.24348 0.0
H2049 H 0.50834 0.28013 0.26724 0.0
H2050 H 0.52164 0.23911 0.22657 0.0
H2051 H 0.51835 0.26239 0.20283 0.0
C2052 C 0.50988 0.2121 0.2741 0.0
C2053 C 0.51547 0.21693 0.29172 0.0
C2054 C 0.51011 0.22518 0.26013 0.0
C2055 C 0.51623 0.2433 0.26344 0.0
C2056 C 0.52262 0.24777 0.28098 0.0
C2057 C 0.52205 0.23479 0.295 0.0
C2058 C 0.50953 0.28942 0.23971 0.0
C2059 C 0.51196 0.28465 0.22138 0.0
C2060 C 0.51098 0.27605 0.25331 0.0
C2061 C 0.51524 0.25764 0.24892 0.0
C2062 C 0.518 0.25301 0.23051 0.0
C2063 C 0.51622 0.26634 0.21689 0.0
H2064 H 0.10565 0.03399 0.1804 0.0
H2065 H 0.14102 0.08175 0.18244 0.0
H2066 H 0.07927 0.05327 0.18751 0.0
H2067 H 0.11448 0.10115 0.18913 0.0
H2068 H 0.06546 0.12966 0.21431 0.0
H2069 H 0.09131 0.1084 0.21184 0.0
H2070 H 0.06109 0.07629 0.17243 0.0
H2071 H 0.03506 0.0971 0.17547 0.0
C2072 C 0.10781 0.04862 0.18234 0.0
C2073 C 0.12546 0.05635 0.18074 0.0
C2074 C 0.09265 0.05969 0.18636 0.0
C2075 C 0.09472 0.07878 0.18882 0.0
C2076 C 0.11242 0.08646 0.18756 0.0
C2077 C 0.12763 0.07536 0.18359 0.0
C2078 C 0.06417 0.11782 0.20547 0.0
C2079 C 0.04821 0.11513 0.19501 0.0
C2080 C 0.07909 0.10577 0.20385 0.0
C2081 C 0.07837 0.09074 0.1918 0.0
C2082 C 0.06211 0.08764 0.18194 0.0
C2083 C 0.04722 0.09966 0.18355 0.0
H2084 H 0.87917 0.07462 0.17332 0.0
H2085 H 0.92257 0.03725 0.18884 0.0
H2086 H 0.90188 0.09897 0.16834 0.0
H2087 H 0.94522 0.06157 0.18401 0.0
H2088 H 0.98091 0.1042 0.15308 0.0
H2089 H 0.95793 0.07987 0.15724 0.0
H2090 H 0.92382 0.1176 0.18763 0.0
H2091 H 0.94667 0.14178 0.18356 0.0
C2092 C 0.89355 0.07166 0.17573 0.0
C2093 C 0.89907 0.05408 0.18158 0.0
C2094 C 0.90652 0.08557 0.17295 0.0
C2095 C 0.92532 0.08212 0.17573 0.0
C2096 C 0.93085 0.06456 0.1816 0.0
C2097 C 0.91785 0.05072 0.1846 0.0
C2098 C 0.96846 0.10727 0.16057 0.0
C2099 C 0.96559 0.12485 0.16802 0.0
C2100 C 0.95538 0.09335 0.16304 0.0
C2101 C 0.9391 0.09687 0.17278 0.0
C2102 C 0.93615 0.11454 0.17995 0.0
C2103 C 0.94929 0.12834 0.17769 0.0
H2104 H 0.89279 0.97201 0.17642 0.0
H2105 H 0.85457 0.92838 0.16344 0.0
H2106 H 0.91581 0.94923 0.1847 0.0
H2107 H 0.87775 0.90549 0.17188 0.0
H2108 H 0.93526 0.87597 0.16358 0.0
H2109 H 0.90809 0.89503 0.15957 0.0
H2110 H 0.92188 0.92537 0.20823 0.0
H2111 H 0.94911 0.90613 0.21233 0.0
C2112 C 0.88927 0.95755 0.17537 0.0
C2113 C 0.87185 0.95201 0.16922 0.0
C2114 C 0.90241 0.94449 0.18031 0.0
C2115 C 0.89852 0.92557 0.17912 0.0
C2116 C 0.88113 0.91998 0.17293 0.0
C2117 C 0.86787 0.93309 0.16812 0.0
C2118 C 0.93222 0.88624 0.1738 0.0
C2119 C 0.94449 0.88965 0.18822 0.0
C2120 C 0.91664 0.89724 0.17144 0.0
C2121 C 0.91304 0.9119 0.18341 0.0
C2122 C 0.92453 0.91441 0.19857 0.0
C2123 C 0.94006 0.90337 0.20097 0.0
H2124 H 0.12094 0.94258 0.15491 0.0
H2125 H 0.1084 0.94604 0.21224 0.0
H2126 H 0.10218 0.91482 0.15257 0.0
H2127 H 0.08893 0.91909 0.20979 0.0
H2128 H 0.05916 0.86635 0.20407 0.0
H2129 H 0.08538 0.88717 0.20511 0.0
H2130 H 0.07 0.90921 0.1526 0.0
H2131 H 0.04433 0.88791 0.15126 0.0
C2132 C 0.11444 0.93726 0.16707 0.0
C2133 C 0.11591 0.94669 0.18371 0.0
C2134 C 0.1035 0.92147 0.1657 0.0
C2135 C 0.09378 0.91484 0.18092 0.0
C2136 C 0.09626 0.92365 0.19778 0.0
C2137 C 0.10725 0.9393 0.19916 0.0
C2138 C 0.06152 0.8755 0.19266 0.0
C2139 C 0.0495 0.87568 0.17772 0.0
C2140 C 0.07653 0.88748 0.19327 0.0
C2141 C 0.07973 0.90006 0.17904 0.0
C2142 C 0.06815 0.8996 0.16372 0.0
C2143 C 0.05328 0.88748 0.16303 0.0
H2144 H 0.05221 0.90401 0.86452 0.0
H2145 H 0.06905 0.89149 0.8096 0.0
H2146 H 0.07854 0.92478 0.86781 0.0
H2147 H 0.09541 0.91213 0.81288 0.0
H2148 H 0.1496 0.9386 0.83326 0.0
H2149 H 0.12524 0.91536 0.83235 0.0
H2150 H 0.08619 0.95571 0.85148 0.0
H2151 H 0.11037 0.97899 0.85218 0.0
C2152 C 0.06171 0.90549 0.85329 0.0
C2153 C 0.05859 0.89626 0.83678 0.0
C2154 C 0.07667 0.91743 0.85511 0.0
C2155 C 0.08893 0.92006 0.84057 0.0
C2156 C 0.08621 0.91026 0.82432 0.0
C2157 C 0.07109 0.89859 0.8224 0.0
C2158 C 0.13583 0.94248 0.83731 0.0
C2159 C 0.13185 0.96063 0.84267 0.0
C2160 C 0.12192 0.9292 0.83676 0.0
C2161 C 0.1039 0.93377 0.8419 0.0
C2162 C 0.10002 0.95181 0.84762 0.0
C2163 C 0.11382 0.96514 0.84787 0.0
H2164 H 0.03448 0.12113 0.85822 0.0
H2165 H 0.04856 0.1421 0.80499 0.0
H2166 H 0.05821 0.0973 0.85511 0.0
H2167 H 0.07262 0.11864 0.80223 0.0
H2168 H 0.12677 0.08406 0.82161 0.0
H2169 H 0.1044 0.10931 0.82514 0.0
H2170 H 0.06028 0.06969 0.82653 0.0
H2171 H 0.08247 0.04465 0.82249 0.0
C2172 C 0.04278 0.12078 0.84598 0.0
C2173 C 0.03962 0.13338 0.8318 0.0
C2174 C 0.05629 0.10718 0.84422 0.0
C2175 C 0.06716 0.10627 0.82846 0.0
C2176 C 0.06442 0.11918 0.81452 0.0
C2177 C 0.05061 0.13249 0.81608 0.0
C2178 C 0.11227 0.08087 0.82254 0.0
C2179 C 0.10627 0.06251 0.82158 0.0
C2180 C 0.09955 0.09522 0.82456 0.0
C2181 C 0.08072 0.09131 0.82616 0.0
C2182 C 0.07475 0.07297 0.82538 0.0
C2183 C 0.08739 0.05871 0.82291 0.0
H2184 H 0.93661 0.12281 0.80863 0.0
H2185 H 0.95975 0.11045 0.8615 0.0
H2186 H 0.91556 0.09726 0.81196 0.0
H2187 H 0.93779 0.08569 0.86527 0.0
H2188 H 0.90526 0.03158 0.85909 0.0
H2189 H 0.92865 0.05562 0.85562 0.0
H2190 H 0.88881 0.09031 0.82854 0.0
H2191 H 0.86597 0.06622 0.83137 0.0
C2192 C 0.93731 0.11474 0.82097 0.0
C2193 C 0.94994 0.11903 0.83482 0.0
C2194 C 0.92499 0.10015 0.82299 0.0
C2195 C 0.92475 0.08954 0.83901 0.0
C2196 C 0.93761 0.09349 0.8527 0.0
C2197 C 0.95009 0.10798 0.8506 0.0
C2198 C 0.9016 0.0444 0.85246 0.0
C2199 C 0.88389 0.04698 0.84536 0.0
C2200 C 0.91494 0.05818 0.8505 0.0
C2201 C 0.9107 0.07485 0.84157 0.0
C2202 C 0.89277 0.0775 0.835 0.0
C2203 C 0.8796 0.06371 0.83676 0.0
H2204 H 0.88393 0.94711 0.79737 0.0
H2205 H 0.91416 0.97686 0.83845 0.0
H2206 H 0.90478 0.92099 0.80075 0.0
H2207 H 0.93483 0.9506 0.8421 0.0
H2208 H 0.97628 0.90374 0.83553 0.0
H2209 H 0.95861 0.93107 0.82699 0.0
H2210 H 0.90906 0.89842 0.82574 0.0
H2211 H 0.9266 0.87118 0.83417 0.0
C2212 C 0.89525 0.94823 0.80685 0.0
C2213 C 0.89733 0.96402 0.81772 0.0
C2214 C 0.90707 0.93318 0.80893 0.0
C2215 C 0.92134 0.93365 0.82182 0.0
C2216 C 0.92403 0.94982 0.83199 0.0
C2217 C 0.91212 0.96481 0.83001 0.0
C2218 C 0.96164 0.90237 0.83329 0.0
C2219 C 0.95284 0.88527 0.83563 0.0
C2220 C 0.95152 0.91804 0.82846 0.0
C2221 C 0.93245 0.9169 0.82567 0.0
C2222 C 0.92377 0.89972 0.82756 0.0
C2223 C 0.93382 0.88412 0.83254 0.0
H2224 H 0.15458 0.05134 0.10569 0.0
H2225 H 0.20163 0.07769 0.13022 0.0
H2226 H 0.15226 0.07651 0.08376 0.0
H2227 H 0.19966 0.10251 0.108 0.0
H2228 H 0.17666 0.15372 0.07905 0.0
H2229 H 0.17935 0.12842 0.10069 0.0
H2230 H 0.16897 0.08939 0.05754 0.0
H2231 H 0.16605 0.1147 0.03588 0.0
C2232 C 0.16441 0.06249 0.10642 0.0
C2233 C 0.17828 0.06248 0.11973 0.0
C2234 C 0.16321 0.07681 0.09373 0.0
C2235 C 0.17579 0.09151 0.09413 0.0
C2236 C 0.18966 0.09149 0.10743 0.0
C2237 C 0.19091 0.07714 0.12005 0.0
C2238 C 0.17504 0.13975 0.07413 0.0
C2239 C 0.17115 0.13625 0.05572 0.0
C2240 C 0.17665 0.12524 0.08654 0.0
C2241 C 0.17436 0.10689 0.08084 0.0
C2242 C 0.17059 0.10339 0.0624 0.0
C2243 C 0.16904 0.1179 0.04997 0.0
H2244 H 0.87056 0.19469 0.05559 0.0
H2245 H 0.89803 0.14762 0.03202 0.0
H2246 H 0.8945 0.19707 0.07852 0.0
H2247 H 0.92235 0.15026 0.05483 0.0
H2248 H 0.95163 0.14937 0.11029 0.0
H2249 H 0.92749 0.14633 0.08751 0.0
H2250 H 0.92647 0.20547 0.0809 0.0
H2251 H 0.94997 0.20856 0.10419 0.0
C2252 C 0.8818 0.18491 0.05523 0.0
C2253 C 0.88245 0.17099 0.04198 0.0
C2254 C 0.89558 0.18634 0.06833 0.0
C2255 C 0.91038 0.1739 0.06847 0.0
C2256 C 0.91103 0.15994 0.05521 0.0
C2257 C 0.89719 0.15849 0.04207 0.0
C2258 C 0.9461 0.16174 0.10417 0.0
C2259 C 0.95273 0.17923 0.10914 0.0
C2260 C 0.93243 0.15997 0.09092 0.0
C2261 C 0.92507 0.17565 0.08238 0.0
C2262 C 0.9317 0.19312 0.08736 0.0
C2263 C 0.94533 0.19489 0.10059 0.0
H2264 H 0.80656 0.88674 0.04306 0.0
H2265 H 0.86098 0.90606 0.02947 0.0
H2266 H 0.80339 0.91143 0.06526 0.0
H2267 H 0.85773 0.93099 0.05165 0.0
H2268 H 0.79806 0.96687 0.09372 0.0
H2269 H 0.80095 0.94526 0.06842 0.0
H2270 H 0.85628 0.93234 0.08534 0.0
H2271 H 0.85337 0.95363 0.11066 0.0
C2272 C 0.81777 0.89641 0.04467 0.0
C2273 C 0.83406 0.89443 0.03459 0.0
C2274 C 0.8159 0.91063 0.05731 0.0
C2275 C 0.83032 0.92313 0.06023 0.0
C2276 C 0.84645 0.92144 0.04981 0.0
C2277 C 0.84828 0.90726 0.03704 0.0
C2278 C 0.81082 0.95939 0.09208 0.0
C2279 C 0.82547 0.96205 0.10427 0.0
C2280 C 0.81249 0.94706 0.07755 0.0
C2281 C 0.82887 0.93716 0.07486 0.0
C2282 C 0.8436 0.94002 0.08685 0.0
C2283 C 0.84191 0.95226 0.1014 0.0
H2284 H 0.094 0.86656 0.02276 0.0
H2285 H 0.13185 0.83825 0.05836 0.0
H2286 H 0.06897 0.86062 0.04452 0.0
H2287 H 0.10712 0.83265 0.08001 0.0
H2288 H 0.06248 0.8476 0.12223 0.0
H2289 H 0.08628 0.85438 0.09978 0.0
H2290 H 0.05313 0.82939 0.05781 0.0
H2291 H 0.02923 0.82243 0.0805 0.0
C2292 C 0.09697 0.85929 0.03529 0.0
C2293 C 0.11479 0.85289 0.03896 0.0
C2294 C 0.08269 0.85576 0.0476 0.0
C2295 C 0.0862 0.84615 0.06385 0.0
C2296 C 0.10411 0.84013 0.0676 0.0
C2297 C 0.11822 0.84332 0.05521 0.0
C2298 C 0.0603 0.84357 0.10821 0.0
C2299 C 0.04411 0.83447 0.10304 0.0
C2300 C 0.07388 0.84741 0.09541 0.0
C2301 C 0.07143 0.84248 0.07712 0.0
C2302 C 0.0552 0.83345 0.07185 0.0
C2303 C 0.04169 0.8293 0.08478 0.0
H2304 H 0.1531 0.87693 0.93058 0.0
H2305 H 0.1721 0.90682 0.97788 0.0
H2306 H 0.15967 0.90344 0.91157 0.0
H2307 H 0.17852 0.93363 0.95862 0.0
H2308 H 0.20323 0.97059 0.91176 0.0
H2309 H 0.19889 0.94433 0.9324 0.0
H2310 H 0.14566 0.93418 0.90848 0.0
H2311 H 0.15015 0.95977 0.88777 0.0
C2312 C 0.15873 0.88913 0.93695 0.0
C2313 C 0.16193 0.88977 0.9558 0.0
C2314 C 0.16242 0.90438 0.92603 0.0
C2315 C 0.16941 0.92068 0.93364 0.0
C2316 C 0.17318 0.92121 0.95239 0.0
C2317 C 0.16941 0.9059 0.96341 0.0
C2318 C 0.19063 0.96271 0.91099 0.0
C2319 C 0.17702 0.96734 0.8982 0.0
C2320 C 0.18809 0.9478 0.92285 0.0
C2321 C 0.17198 0.93715 0.92196 0.0
C2322 C 0.15831 0.94199 0.90936 0.0
C2323 C 0.16079 0.95685 0.89764 0.0
H2324 H 0.11834 0.20028 0.97669 0.0
H2325 H 0.11117 0.14147 0.97223 0.0
H2326 H 0.09415 0.20522 0.95447 0.0
H2327 H 0.08741 0.14625 0.94906 0.0
H2328 H 0.03585 0.16245 0.91697 0.0
H2329 H 0.05746 0.15689 0.94178 0.0
H2330 H 0.09053 0.20262 0.92304 0.0
H2331 H 0.06852 0.20846 0.8988 0.0
C2332 C 0.11148 0.18839 0.97091 0.0
C2333 C 0.11657 0.17051 0.97606 0.0
C2334 C 0.09774 0.19119 0.95802 0.0
C2335 C 0.08904 0.17615 0.94962 0.0
C2336 C 0.09371 0.15818 0.95531 0.0
C2337 C 0.1073 0.15539 0.96855 0.0
C2338 C 0.04779 0.17124 0.9182 0.0
C2339 C 0.05051 0.18593 0.90603 0.0
C2340 C 0.0602 0.16804 0.93238 0.0
C2341 C 0.07572 0.17936 0.93456 0.0
C2342 C 0.07851 0.1939 0.92215 0.0
C2343 C 0.06596 0.19724 0.90817 0.0
H2344 H 0.80728 0.04356 0.9194 0.0
H2345 H 0.84261 0.07609 0.88476 0.0
H2346 H 0.80695 0.06816 0.94176 0.0
H2347 H 0.84234 0.10082 0.90733 0.0
H2348 H 0.79459 0.12237 0.96945 0.0
H2349 H 0.79494 0.09929 0.94541 0.0
H2350 H 0.85329 0.10746 0.93839 0.0
H2351 H 0.85293 0.13083 0.96224 0.0
C2352 C 0.81482 0.05604 0.91643 0.0
C2353 C 0.82486 0.05787 0.90018 0.0
C2354 C 0.81464 0.07017 0.92929 0.0
C2355 C 0.8245 0.08651 0.92627 0.0
C2356 C 0.83472 0.08832 0.91012 0.0
C2357 C 0.83489 0.07415 0.8972 0.0
C2358 C 0.80749 0.11934 0.96273 0.0
C2359 C 0.82375 0.12838 0.96785 0.0
C2360 C 0.8077 0.10603 0.94901 0.0
C2361 C 0.82417 0.10144 0.94009 0.0
C2362 C 0.84036 0.11079 0.9449 0.0
C2363 C 0.84016 0.1241 0.95865 0.0
H2364 H 0.96028 0.8496 0.9115 0.0
H2365 H 0.93407 0.80108 0.88941 0.0
H2366 H 0.93772 0.8505 0.93586 0.0
H2367 H 0.91168 0.80185 0.9141 0.0
H2368 H 0.88678 0.79993 0.97221 0.0
H2369 H 0.90972 0.79816 0.94799 0.0
H2370 H 0.90422 0.85665 0.93872 0.0
H2371 H 0.8814 0.8585 0.9629 0.0
C2372 C 0.94968 0.83917 0.91171 0.0
C2373 C 0.94898 0.82536 0.89829 0.0
C2374 C 0.93676 0.83968 0.92575 0.0
C2375 C 0.92286 0.82631 0.92684 0.0
C2376 C 0.92233 0.81225 0.91371 0.0
C2377 C 0.9352 0.81181 0.89956 0.0
C2378 C 0.89047 0.81242 0.96501 0.0
C2379 C 0.88227 0.82936 0.96953 0.0
C2380 C 0.90354 0.81137 0.95108 0.0
C2381 C 0.90881 0.82727 0.94149 0.0
C2382 C 0.90061 0.8442 0.94601 0.0
C2383 C 0.88745 0.84522 0.95981 0.0
H2384 H 0.03184 0.17995 0.1171 0.0
H2385 H 0.07746 0.15989 0.14918 0.0
H2386 H 0.05286 0.18676 0.09206 0.0
H2387 H 0.09836 0.1669 0.12429 0.0
H2388 H 0.12477 0.15908 0.06836 0.0
H2389 H 0.10381 0.15422 0.09367 0.0
H2390 H 0.07927 0.2075 0.08381 0.0
H2391 H 0.10016 0.21219 0.05802 0.0
C2392 C 0.04633 0.17706 0.11885 0.0
C2393 C 0.05296 0.16927 0.1351 0.0
C2394 C 0.05837 0.18109 0.10456 0.0
C2395 C 0.07723 0.1773 0.10621 0.0
C2396 C 0.08386 0.16976 0.12254 0.0
C2397 C 0.07187 0.16581 0.13684 0.0
C2398 C 0.11481 0.1697 0.07147 0.0
C2399 C 0.11397 0.18595 0.06111 0.0
C2400 C 0.10294 0.16701 0.08611 0.0
C2401 C 0.08992 0.18049 0.09074 0.0
C2402 C 0.0891 0.19682 0.08045 0.0
C2403 C 0.10112 0.19957 0.06583 0.0
H2404 H 0.03849 0.81867 0.88452 0.0
H2405 H 0.02238 0.87188 0.9055 0.0
H2406 H 0.05996 0.81491 0.90944 0.0
H2407 H 0.04386 0.86793 0.93092 0.0
H2408 H 0.10318 0.86435 0.95424 0.0
H2409 H 0.07735 0.86769 0.93368 0.0
H2410 H 0.06329 0.81048 0.94198 0.0
H2411 H 0.08934 0.80713 0.96273 0.0
C2412 C 0.03938 0.82951 0.89462 0.0
C2413 C 0.02888 0.84568 0.89297 0.0
C2414 C 0.05159 0.82724 0.90903 0.0
C2415 C 0.05365 0.84111 0.92217 0.0
C2416 C 0.04269 0.85707 0.92089 0.0
C2417 C 0.03035 0.85932 0.90642 0.0
C2418 C 0.09441 0.85254 0.95202 0.0
C2419 C 0.09833 0.83545 0.96019 0.0
C2420 C 0.07953 0.85449 0.94022 0.0
C2421 C 0.06821 0.83939 0.93623 0.0
C2422 C 0.07188 0.82235 0.94465 0.0
C2423 C 0.08682 0.82039 0.95649 0.0
H2424 H 0.14195 0.12233 0.95026 0.0
H2425 H 0.2003 0.11352 0.94423 0.0
H2426 H 0.13613 0.10131 0.92491 0.0
H2427 H 0.19451 0.09225 0.91924 0.0
H2428 H 0.17978 0.06791 0.86513 0.0
H2429 H 0.18291 0.09203 0.88785 0.0
H2430 H 0.13933 0.06736 0.91944 0.0
H2431 H 0.13599 0.04317 0.89643 0.0
C2432 C 0.15353 0.11612 0.94335 0.0
C2433 C 0.17161 0.11956 0.9492 0.0
C2434 C 0.15018 0.10393 0.92899 0.0
C2435 C 0.16485 0.09511 0.92013 0.0
C2436 C 0.18292 0.09897 0.92568 0.0
C2437 C 0.18625 0.11103 0.94007 0.0
C2438 C 0.17075 0.06767 0.87685 0.0
C2439 C 0.15775 0.05355 0.87911 0.0
C2440 C 0.1726 0.08147 0.88988 0.0
C2441 C 0.1615 0.08148 0.9055 0.0
C2442 C 0.148 0.06775 0.90747 0.0
C2443 C 0.14615 0.05387 0.89437 0.0
H2444 H 0.96384 0.14701 0.8994 0.0
H2445 H 0.96258 0.20548 0.88878 0.0
H2446 H 0.93949 0.15074 0.922 0.0
H2447 H 0.93909 0.20947 0.9119 0.0
H2448 H 0.88359 0.20879 0.93979 0.0
H2449 H 0.90804 0.20464 0.91745 0.0
H2450 H 0.93182 0.16179 0.95094 0.0
H2451 H 0.90685 0.16551 0.97271 0.0
C2452 C 0.95854 0.16069 0.90213 0.0
C2453 C 0.965 0.17593 0.8923 0.0
C2454 C 0.94463 0.16288 0.91513 0.0
C2455 C 0.93713 0.18042 0.91878 0.0
C2456 C 0.94409 0.19569 0.9092 0.0
C2457 C 0.9577 0.19343 0.89603 0.0
C2458 C 0.89412 0.19857 0.94232 0.0
C2459 C 0.89332 0.18744 0.9579 0.0
C2460 C 0.90821 0.1962 0.92959 0.0
C2461 C 0.92203 0.18286 0.93232 0.0
C2462 C 0.92128 0.17192 0.94811 0.0
C2463 C 0.90702 0.1741 0.96066 0.0
H2464 H 0.80228 0.88349 0.93001 0.0
H2465 H 0.84479 0.91062 0.96092 0.0
H2466 H 0.80718 0.90516 0.90488 0.0
H2467 H 0.84974 0.93217 0.93589 0.0
H2468 H 0.83859 0.97893 0.89509 0.0
H2469 H 0.83182 0.95774 0.92001 0.0
H2470 H 0.83356 0.91192 0.88261 0.0
H2471 H 0.84044 0.93303 0.85763 0.0
C2472 C 0.81257 0.89415 0.93145 0.0
C2473 C 0.8232 0.89535 0.94735 0.0
C2474 C 0.81546 0.90644 0.91706 0.0
C2475 C 0.82884 0.92032 0.91848 0.0
C2476 C 0.83926 0.92168 0.9345 0.0
C2477 C 0.83654 0.90925 0.94874 0.0
C2478 C 0.83748 0.96434 0.89215 0.0
C2479 C 0.84014 0.95765 0.87439 0.0
C2480 C 0.83367 0.95223 0.90643 0.0
C2481 C 0.83219 0.93322 0.90321 0.0
C2482 C 0.83448 0.92654 0.88542 0.0
C2483 C 0.83853 0.93862 0.87116 0.0
H2484 H 0.94026 0.84389 0.14524 0.0
H2485 H 0.97543 0.86849 0.1047 0.0
H2486 H 0.91526 0.84254 0.12341 0.0
H2487 H 0.95063 0.86619 0.08227 0.0
H2488 H 0.8979 0.86833 0.04862 0.0
H2489 H 0.9209 0.87521 0.0716 0.0
H2490 H 0.90875 0.82366 0.09845 0.0
H2491 H 0.88507 0.81737 0.07645 0.0
C2492 C 0.94257 0.8491 0.13161 0.0
C2493 C 0.95975 0.85615 0.12655 0.0
C2494 C 0.9283 0.84817 0.11903 0.0
C2495 C 0.93103 0.85379 0.10091 0.0
C2496 C 0.94801 0.86178 0.09611 0.0
C2497 C 0.96223 0.86308 0.1089 0.0
C2498 C 0.89987 0.85855 0.05954 0.0
C2499 C 0.88941 0.84224 0.06053 0.0
C2500 C 0.91328 0.86245 0.07265 0.0
C2501 C 0.91664 0.85009 0.087 0.0
C2502 C 0.90631 0.83375 0.08786 0.0
C2503 C 0.89283 0.82996 0.07495 0.0
H2504 H 0.19607 0.90181 0.06962 0.0
H2505 H 0.14667 0.9199 0.04273 0.0
H2506 H 0.19176 0.92524 0.09298 0.0
H2507 H 0.14273 0.94417 0.06535 0.0
H2508 H 0.13076 0.97354 0.11933 0.0
H2509 H 0.13448 0.95077 0.09509 0.0
H2510 H 0.19356 0.9561 0.09943 0.0
H2511 H 0.18962 0.97772 0.12435 0.0
C2512 C 0.18444 0.91107 0.06862 0.0
C2513 C 0.17169 0.90908 0.05449 0.0
C2514 C 0.18197 0.92461 0.08191 0.0
C2515 C 0.1669 0.93682 0.08111 0.0
C2516 C 0.15429 0.93489 0.06672 0.0
C2517 C 0.15657 0.92106 0.05367 0.0
C2518 C 0.14448 0.96987 0.11491 0.0
C2519 C 0.1599 0.97723 0.12368 0.0
C2520 C 0.14668 0.95687 0.10098 0.0
C2521 C 0.16437 0.95132 0.09531 0.0
C2522 C 0.17973 0.95948 0.1037 0.0
C2523 C 0.17751 0.97205 0.11787 0.0
H2524 H 0.86029 0.02754 0.10296 0.0
H2525 H 0.83349 0.06235 0.14252 0.0
H2526 H 0.85551 0.05122 0.0796 0.0
H2527 H 0.82936 0.0861 0.11967 0.0
H2528 H 0.8041 0.11524 0.07247 0.0
H2529 H 0.81036 0.09082 0.09398 0.0
H2530 H 0.86339 0.08175 0.06914 0.0
H2531 H 0.85667 0.10546 0.04676 0.0
C2532 C 0.85369 0.04037 0.1067 0.0
C2533 C 0.84706 0.04307 0.12443 0.0
C2534 C 0.85096 0.05394 0.09337 0.0
C2535 C 0.84172 0.07045 0.09767 0.0
C2536 C 0.83599 0.07336 0.1157 0.0
C2537 C 0.83849 0.05979 0.12885 0.0
C2538 C 0.81699 0.10794 0.07131 0.0
C2539 C 0.82988 0.11259 0.05783 0.0
C2540 C 0.82071 0.09404 0.08388 0.0
C2541 C 0.83753 0.08449 0.08351 0.0
C2542 C 0.85029 0.08879 0.06981 0.0
C2543 C 0.84649 0.10262 0.05709 0.0
H2544 H 0.14972 0.583 0.66574 0.0
H2545 H 0.11288 0.53754 0.67623 0.0
H2546 H 0.12472 0.6047 0.67162 0.0
H2547 H 0.08796 0.55922 0.682 0.0
H2548 H 0.05276 0.60401 0.70858 0.0
H2549 H 0.07901 0.58339 0.70467 0.0
H2550 H 0.09505 0.61332 0.65642 0.0
H2551 H 0.06899 0.63411 0.6605 0.0
C2552 C 0.13633 0.57765 0.6694 0.0
C2553 C 0.13327 0.55857 0.67052 0.0
C2554 C 0.12201 0.59006 0.67265 0.0
C2555 C 0.10441 0.58364 0.67728 0.0
C2556 C 0.10143 0.56457 0.67865 0.0
C2557 C 0.11568 0.55216 0.67523 0.0
C2558 C 0.06202 0.60631 0.69727 0.0
C2559 C 0.05878 0.62063 0.68481 0.0
C2560 C 0.07694 0.59442 0.69495 0.0
C2561 C 0.08903 0.59672 0.68021 0.0
C2562 C 0.08603 0.61129 0.66797 0.0
C2563 C 0.07102 0.62307 0.6702 0.0
H2564 H 0.95869 0.63114 0.69546 0.0
H2565 H 0.97602 0.61072 0.64295 0.0
H2566 H 0.93629 0.60641 0.69769 0.0
H2567 H 0.95362 0.58568 0.64531 0.0
H2568 H 0.89475 0.56073 0.64743 0.0
H2569 H 0.9197 0.58289 0.64498 0.0
H2570 H 0.93423 0.5728 0.70109 0.0
H2571 H 0.90932 0.55048 0.70353 0.0
C2572 C 0.95781 0.62126 0.68444 0.0
C2573 C 0.96907 0.62288 0.669 0.0
C2574 C 0.94505 0.60701 0.68579 0.0
C2575 C 0.94322 0.59408 0.6717 0.0
C2576 C 0.95464 0.59555 0.65632 0.0
C2577 C 0.96751 0.6098 0.65501 0.0
C2578 C 0.90343 0.56298 0.65917 0.0
C2579 C 0.89998 0.55384 0.67571 0.0
C2580 C 0.91775 0.57569 0.65775 0.0
C2581 C 0.9289 0.5796 0.67284 0.0
C2582 C 0.92569 0.57024 0.68929 0.0
C2583 C 0.91139 0.55749 0.6907 0.0
H2584 H 0.95788 0.40491 0.70579 0.0
H2585 H 0.94546 0.38691 0.65108 0.0
H2586 H 0.93306 0.42704 0.70424 0.0
H2587 H 0.91975 0.40825 0.65001 0.0
H2588 H 0.89092 0.46466 0.64603 0.0
H2589 H 0.9138 0.44015 0.64726 0.0
H2590 H 0.90129 0.43147 0.70416 0.0
H2591 H 0.87911 0.45648 0.70306 0.0
C2592 C 0.94978 0.40551 0.69346 0.0
C2593 C 0.95398 0.39418 0.6785 0.0
C2594 C 0.93529 0.41809 0.69267 0.0
C2595 C 0.92433 0.41957 0.67696 0.0
C2596 C 0.92806 0.40777 0.66222 0.0
C2597 C 0.94271 0.39528 0.66295 0.0
C2598 C 0.89304 0.45745 0.65877 0.0
C2599 C 0.88335 0.46266 0.6745 0.0
C2600 C 0.90608 0.44328 0.65947 0.0
C2601 C 0.90956 0.43382 0.67585 0.0
C2602 C 0.89936 0.43868 0.6914 0.0
C2603 C 0.88653 0.45299 0.69076 0.0
H2604 H 0.13699 0.43548 0.66229 0.0
H2605 H 0.09466 0.45965 0.69606 0.0
H2606 H 0.11779 0.40836 0.65785 0.0
H2607 H 0.07613 0.43229 0.69239 0.0
H2608 H 0.03776 0.39456 0.66161 0.0
H2609 H 0.05868 0.41983 0.66746 0.0
H2610 H 0.10374 0.38139 0.67249 0.0
H2611 H 0.08272 0.35588 0.66615 0.0
C2612 C 0.12371 0.43503 0.66889 0.0
C2613 C 0.11735 0.45002 0.67931 0.0
C2614 C 0.1128 0.41935 0.66651 0.0
C2615 C 0.09532 0.41829 0.67456 0.0
C2616 C 0.08937 0.43284 0.68568 0.0
C2617 C 0.10018 0.44851 0.68798 0.0
C2618 C 0.05212 0.39142 0.66395 0.0
C2619 C 0.05856 0.37317 0.66348 0.0
C2620 C 0.06411 0.40593 0.66745 0.0
C2621 C 0.08284 0.40261 0.67067 0.0
C2622 C 0.08938 0.38439 0.66999 0.0
C2623 C 0.07734 0.36979 0.66643 0.0
H2624 H 0.06012 0.40392 0.35716 0.0
H2625 H 0.07186 0.39907 0.29981 0.0
H2626 H 0.08648 0.42457 0.36076 0.0
H2627 H 0.0984 0.41955 0.30343 0.0
H2628 H 0.15516 0.44195 0.3251 0.0
H2629 H 0.13016 0.41954 0.32189 0.0
H2630 H 0.09266 0.45791 0.34705 0.0
H2631 H 0.11743 0.48043 0.34994 0.0
C2632 C 0.06852 0.40706 0.3454 0.0
C2633 C 0.06398 0.39996 0.3282 0.0
C2634 C 0.08348 0.41894 0.34743 0.0
C2635 C 0.09439 0.42363 0.33235 0.0
C2636 C 0.09023 0.41606 0.31527 0.0
C2637 C 0.07504 0.40447 0.31318 0.0
C2638 C 0.14157 0.44559 0.32992 0.0
C2639 C 0.13822 0.46295 0.33771 0.0
C2640 C 0.12731 0.43281 0.32804 0.0
C2641 C 0.10957 0.43703 0.33431 0.0
C2642 C 0.10627 0.4543 0.34225 0.0
C2643 C 0.12041 0.4672 0.34378 0.0
H2644 H 0.10403 0.56444 0.29975 0.0
H2645 H 0.13037 0.57877 0.35067 0.0
H2646 H 0.08217 0.58935 0.30419 0.0
H2647 H 0.10884 0.60394 0.35455 0.0
H2648 H 0.07731 0.65859 0.34419 0.0
H2649 H 0.09998 0.63432 0.33904 0.0
H2650 H 0.05635 0.59582 0.32745 0.0
H2651 H 0.03358 0.62008 0.33275 0.0
C2652 C 0.10529 0.57277 0.31187 0.0
C2653 C 0.11903 0.56915 0.32493 0.0
C2654 C 0.09271 0.58711 0.31436 0.0
C2655 C 0.09371 0.59846 0.32978 0.0
C2656 C 0.10779 0.59543 0.34248 0.0
C2657 C 0.12022 0.58092 0.34016 0.0
C2658 C 0.07254 0.64496 0.34052 0.0
C2659 C 0.05366 0.64124 0.33885 0.0
C2660 C 0.08552 0.63106 0.33766 0.0
C2661 C 0.07992 0.61322 0.33279 0.0
C2662 C 0.06105 0.60951 0.33102 0.0
C2663 C 0.04803 0.62334 0.33418 0.0
H2664 H 0.94889 0.61419 0.30143 0.0
H2665 H 0.95794 0.61599 0.35942 0.0
H2666 H 0.92668 0.58938 0.30557 0.0
H2667 H 0.93542 0.59154 0.36373 0.0
H2668 H 0.90278 0.53749 0.36368 0.0
H2669 H 0.92769 0.55971 0.3594 0.0
H2670 H 0.89635 0.58643 0.31695 0.0
H2671 H 0.87196 0.56401 0.32082 0.0
C2672 C 0.94614 0.60921 0.31505 0.0
C2673 C 0.95513 0.61702 0.33007 0.0
C2674 C 0.93336 0.59507 0.31748 0.0
C2675 C 0.92906 0.58858 0.33503 0.0
C2676 C 0.93851 0.59602 0.35001 0.0
C2677 C 0.95145 0.61005 0.34755 0.0
C2678 C 0.90128 0.54814 0.35346 0.0
C2679 C 0.88546 0.54897 0.34255 0.0
C2680 C 0.91551 0.5609 0.35103 0.0
C2681 C 0.91414 0.57479 0.3377 0.0
C2682 C 0.89813 0.57569 0.32703 0.0
C2683 C 0.88404 0.5629 0.32937 0.0
H2684 H 0.93191 0.36766 0.33843 0.0
H2685 H 0.97813 0.40421 0.33067 0.0
H2686 H 0.91094 0.39366 0.33521 0.0
H2687 H 0.95708 0.43022 0.32757 0.0
H2688 H 0.91195 0.46763 0.30326 0.0
H2689 H 0.93302 0.44156 0.30591 0.0
H2690 H 0.90291 0.42202 0.35274 0.0
H2691 H 0.88166 0.44789 0.34987 0.0
C2692 C 0.9376 0.38123 0.33599 0.0
C2693 C 0.95668 0.38387 0.33479 0.0
C2694 C 0.92558 0.39612 0.33427 0.0
C2695 C 0.93238 0.41396 0.33118 0.0
C2696 C 0.95145 0.4166 0.3298 0.0
C2697 C 0.9635 0.40171 0.33167 0.0
C2698 C 0.90977 0.4577 0.31403 0.0
C2699 C 0.89515 0.4598 0.32634 0.0
C2700 C 0.92192 0.44288 0.31565 0.0
C2701 C 0.9196 0.42977 0.32953 0.0
C2702 C 0.90495 0.43184 0.34182 0.0
C2703 C 0.89289 0.44674 0.34029 0.0
H2704 H 0.17331 0.61825 0.52893 0.0
H2705 H 0.16893 0.65328 0.57629 0.0
H2706 H 0.17728 0.59142 0.54872 0.0
H2707 H 0.17278 0.62647 0.59598 0.0
H2708 H 0.15687 0.57127 0.623 0.0
H2709 H 0.15368 0.59773 0.6027 0.0
H2710 H 0.20095 0.57945 0.57213 0.0
H2711 H 0.2041 0.55286 0.5925 0.0
C2712 C 0.17322 0.62023 0.54354 0.0
C2713 C 0.17079 0.63787 0.55106 0.0
C2714 C 0.17559 0.6049 0.55484 0.0
C2715 C 0.17528 0.6069 0.57385 0.0
C2716 C 0.17292 0.62453 0.58136 0.0
C2717 C 0.17082 0.63988 0.57008 0.0
C2718 C 0.16646 0.57282 0.61184 0.0
C2719 C 0.18069 0.56 0.60925 0.0
C2720 C 0.16475 0.58803 0.60035 0.0
C2721 C 0.1771 0.59063 0.58589 0.0
C2722 C 0.1912 0.5777 0.58313 0.0
C2723 C 0.19308 0.56259 0.59482 0.0
H2724 H 0.87716 0.69943 0.55137 0.0
H2725 H 0.90074 0.64851 0.5318 0.0
H2726 H 0.90076 0.70129 0.57468 0.0
H2727 H 0.92474 0.65058 0.555 0.0
H2728 H 0.95393 0.70912 0.60415 0.0
H2729 H 0.93332 0.70659 0.57819 0.0
H2730 H 0.92779 0.64816 0.58812 0.0
H2731 H 0.94868 0.65074 0.61404 0.0
C2732 C 0.88751 0.68872 0.55194 0.0
C2733 C 0.88711 0.67383 0.53977 0.0
C2734 C 0.90112 0.68985 0.56523 0.0
C2735 C 0.91469 0.67613 0.56663 0.0
C2736 C 0.91439 0.66129 0.55435 0.0
C2737 C 0.90072 0.66016 0.54102 0.0
C2738 C 0.94833 0.69574 0.60076 0.0
C2739 C 0.95271 0.68017 0.61123 0.0
C2740 C 0.93652 0.69428 0.5859 0.0
C2741 C 0.92872 0.67722 0.58124 0.0
C2742 C 0.93368 0.66148 0.59127 0.0
C2743 C 0.94562 0.66294 0.60612 0.0
H2744 H 0.80106 0.44883 0.60002 0.0
H2745 H 0.85837 0.46422 0.59716 0.0
H2746 H 0.80584 0.42674 0.57566 0.0
H2747 H 0.86334 0.44134 0.57363 0.0
H2748 H 0.86244 0.40827 0.52033 0.0
H2749 H 0.85734 0.43299 0.54248 0.0
H2750 H 0.82033 0.39761 0.57241 0.0
H2751 H 0.82494 0.37344 0.55019 0.0
C2752 C 0.81466 0.44758 0.59423 0.0
C2753 C 0.82933 0.45825 0.60081 0.0
C2754 C 0.81747 0.43473 0.58037 0.0
C2755 C 0.83504 0.43209 0.57282 0.0
C2756 C 0.84961 0.44307 0.57904 0.0
C2757 C 0.84678 0.45603 0.59281 0.0
C2758 C 0.85325 0.40587 0.53167 0.0
C2759 C 0.84402 0.38899 0.53348 0.0
C2760 C 0.85034 0.41997 0.54438 0.0
C2761 C 0.83825 0.41736 0.55914 0.0
C2762 C 0.82934 0.40031 0.561 0.0
C2763 C 0.83212 0.38636 0.5483 0.0
H2764 H 0.10922 0.34443 0.52302 0.0
H2765 H 0.14617 0.33159 0.56729 0.0
H2766 H 0.08299 0.3377 0.5427 0.0
H2767 H 0.12002 0.32509 0.5869 0.0
H2768 H 0.07014 0.29885 0.61291 0.0
H2769 H 0.09496 0.30286 0.59098 0.0
H2770 H 0.068 0.3513 0.56967 0.0
H2771 H 0.04291 0.34697 0.59126 0.0
C2772 C 0.11176 0.34013 0.53691 0.0
C2773 C 0.1298 0.33857 0.54358 0.0
C2774 C 0.09673 0.33636 0.5482 0.0
C2775 C 0.09942 0.33084 0.56636 0.0
C2776 C 0.11747 0.32906 0.57292 0.0
C2777 C 0.13247 0.33291 0.56169 0.0
C2778 C 0.06932 0.31016 0.60334 0.0
C2779 C 0.05456 0.32264 0.60391 0.0
C2780 C 0.08366 0.31258 0.5909 0.0
C2781 C 0.08353 0.32748 0.57866 0.0
C2782 C 0.06847 0.33961 0.57883 0.0
C2783 C 0.05418 0.33724 0.59133 0.0
H2784 H 0.19581 0.38819 0.45845 0.0
H2785 H 0.14033 0.40633 0.46931 0.0
H2786 H 0.19999 0.41365 0.43738 0.0
H2787 H 0.14462 0.43209 0.44813 0.0
H2788 H 0.15434 0.45909 0.39107 0.0
H2789 H 0.14905 0.43599 0.4145 0.0
H2790 H 0.20233 0.44766 0.43758 0.0
H2791 H 0.20758 0.47098 0.41427 0.0
C2792 C 0.18451 0.39768 0.45639 0.0
C2793 C 0.16771 0.39525 0.46549 0.0
C2794 C 0.18697 0.41235 0.44441 0.0
C2795 C 0.17267 0.4249 0.44118 0.0
C2796 C 0.15585 0.42255 0.45031 0.0
C2797 C 0.15342 0.40788 0.46246 0.0
C2798 C 0.16482 0.45701 0.4013 0.0
C2799 C 0.18143 0.4669 0.40073 0.0
C2800 C 0.16176 0.44374 0.41474 0.0
C2801 C 0.17529 0.44 0.42783 0.0
C2802 C 0.19175 0.4501 0.4275 0.0
C2803 C 0.19478 0.46342 0.41411 0.0
H2804 H 0.0347 0.70188 0.42442 0.0
H2805 H 0.0686 0.67185 0.38648 0.0
H2806 H 0.05801 0.69755 0.44821 0.0
H2807 H 0.0921 0.66791 0.41012 0.0
H2808 H 0.13543 0.69329 0.45233 0.0
H2809 H 0.11129 0.69598 0.42931 0.0
H2810 H 0.0744 0.66502 0.4636 0.0
H2811 H 0.09876 0.66179 0.48652 0.0
C2812 C 0.04716 0.69441 0.42122 0.0
C2813 C 0.04998 0.68722 0.4037 0.0
C2814 C 0.06036 0.69185 0.43478 0.0
C2815 C 0.07672 0.68243 0.43086 0.0
C2816 C 0.07954 0.67523 0.41337 0.0
C2817 C 0.06616 0.67741 0.39994 0.0
C2818 C 0.12216 0.68709 0.45497 0.0
C2819 C 0.11889 0.67735 0.47116 0.0
C2820 C 0.10844 0.68856 0.4418 0.0
C2821 C 0.09113 0.68068 0.4448 0.0
C2822 C 0.0877 0.6712 0.46109 0.0
C2823 C 0.10159 0.66934 0.47411 0.0
H2824 H 0.85625 0.6231 0.4706 0.0
H2825 H 0.79753 0.62994 0.46579 0.0
H2826 H 0.85569 0.59992 0.44677 0.0
H2827 H 0.797 0.60749 0.44115 0.0
H2828 H 0.85197 0.57393 0.39066 0.0
H2829 H 0.85258 0.59612 0.41555 0.0
H2830 H 0.79957 0.57639 0.43377 0.0
H2831 H 0.79876 0.55496 0.40824 0.0
C2832 C 0.84322 0.61975 0.46429 0.0
C2833 C 0.82693 0.62832 0.47003 0.0
C2834 C 0.84291 0.60653 0.45051 0.0
C2835 C 0.82632 0.60182 0.44187 0.0
C2836 C 0.80999 0.61046 0.44767 0.0
C2837 C 0.81028 0.62344 0.46172 0.0
C2838 C 0.84056 0.57434 0.40011 0.0
C2839 C 0.8253 0.56285 0.39757 0.0
C2840 C 0.84089 0.58699 0.41443 0.0
C2841 C 0.8261 0.58815 0.42676 0.0
C2842 C 0.81102 0.57625 0.42437 0.0
C2843 C 0.81057 0.56388 0.40983 0.0
H2844 H 0.88654 0.29993 0.45608 0.0
H2845 H 0.88699 0.35948 0.45495 0.0
H2846 H 0.91026 0.29925 0.43279 0.0
H2847 H 0.91057 0.35875 0.43132 0.0
H2848 H 0.96732 0.3495 0.40524 0.0
H2849 H 0.94303 0.35059 0.42803 0.0
H2850 H 0.91502 0.306 0.40076 0.0
H2851 H 0.93929 0.30492 0.37797 0.0
C2852 C 0.89159 0.31289 0.45077 0.0
C2853 C 0.88488 0.32976 0.45743 0.0
C2854 C 0.90514 0.31249 0.43733 0.0
C2855 C 0.91233 0.32894 0.4302 0.0
C2856 C 0.90549 0.34583 0.43671 0.0
C2857 C 0.89189 0.34624 0.45016 0.0
C2858 C 0.95593 0.34001 0.40402 0.0
C2859 C 0.9553 0.3271 0.38976 0.0
C2860 C 0.94198 0.34066 0.41708 0.0
C2861 C 0.92706 0.32841 0.4162 0.0
C2862 C 0.92645 0.31547 0.40198 0.0
C2863 C 0.9404 0.31482 0.38893 0.0
H2864 H 0.1 0.66349 0.54945 0.0
H2865 H 0.11679 0.71587 0.57188 0.0
H2866 H 0.07597 0.66122 0.57255 0.0
H2867 H 0.09271 0.71369 0.59469 0.0
H2868 H 0.03396 0.71375 0.61729 0.0
H2869 H 0.05875 0.71491 0.59502 0.0
H2870 H 0.07179 0.65796 0.60615 0.0
H2871 H 0.04689 0.65669 0.62835 0.0
C2872 C 0.09872 0.67442 0.55937 0.0
C2873 C 0.11024 0.68996 0.55864 0.0
C2874 C 0.08493 0.67313 0.57259 0.0
C2875 C 0.08235 0.68737 0.58532 0.0
C2876 C 0.09412 0.70267 0.58484 0.0
C2877 C 0.10791 0.70392 0.57172 0.0
C2878 C 0.04211 0.70147 0.61503 0.0
C2879 C 0.03844 0.68514 0.62462 0.0
C2880 C 0.05638 0.70217 0.60233 0.0
C2881 C 0.06723 0.68653 0.59886 0.0
C2882 C 0.06355 0.67018 0.60841 0.0
C2883 C 0.04935 0.66951 0.6212 0.0
H2884 H 0.03438 0.37344 0.39645 0.0
H2885 H 0.04794 0.32012 0.37401 0.0
H2886 H 0.05854 0.36947 0.41948 0.0
H2887 H 0.0716 0.31611 0.3969 0.0
H2888 H 0.12786 0.32776 0.42079 0.0
H2889 H 0.10154 0.33134 0.40098 0.0
H2890 H 0.0688 0.34985 0.44644 0.0
H2891 H 0.09532 0.34604 0.46658 0.0
C2892 C 0.04231 0.36081 0.39661 0.0
C2893 C 0.03948 0.34721 0.38331 0.0
C2894 C 0.05607 0.35852 0.40979 0.0
C2895 C 0.06713 0.3426 0.40978 0.0
C2896 C 0.06359 0.32869 0.397 0.0
C2897 C 0.04998 0.33099 0.38391 0.0
C2898 C 0.11505 0.33229 0.42674 0.0
C2899 C 0.11374 0.33642 0.44537 0.0
C2900 C 0.09993 0.33442 0.41532 0.0
C2901 C 0.08307 0.34074 0.42219 0.0
C2902 C 0.08168 0.34506 0.44077 0.0
C2903 C 0.09686 0.34286 0.45228 0.0
H2904 H 0.1632 0.60227 0.47015 0.0
H2905 H 0.17741 0.63921 0.42631 0.0
H2906 H 0.15958 0.57706 0.44809 0.0
H2907 H 0.17379 0.61438 0.40453 0.0
H2908 H 0.19098 0.56292 0.37505 0.0
H2909 H 0.19183 0.5866 0.39828 0.0
H2910 H 0.14093 0.56619 0.42079 0.0
H2911 H 0.14019 0.54201 0.3974 0.0
C2912 C 0.16538 0.60502 0.45583 0.0
C2913 C 0.17101 0.62258 0.45 0.0
C2914 C 0.16328 0.59065 0.44323 0.0
C2915 C 0.16673 0.59369 0.42463 0.0
C2916 C 0.17152 0.61148 0.41881 0.0
C2917 C 0.17365 0.6257 0.43132 0.0
C2918 C 0.17993 0.56341 0.38491 0.0
C2919 C 0.16543 0.55068 0.3843 0.0
C2920 C 0.18039 0.57705 0.3982 0.0
C2921 C 0.16633 0.5784 0.41122 0.0
C2922 C 0.15198 0.56544 0.41093 0.0
C2923 C 0.1515 0.55169 0.39752 0.0
H2924 H 0.88462 0.70637 0.43392 0.0
H2925 H 0.9107 0.66525 0.46746 0.0
H2926 H 0.90765 0.70144 0.41032 0.0
H2927 H 0.93435 0.66083 0.44438 0.0
H2928 H 0.9654 0.64531 0.39294 0.0
H2929 H 0.9411 0.64889 0.41561 0.0
H2930 H 0.93819 0.70712 0.40328 0.0
H2931 H 0.96162 0.70321 0.38008 0.0
C2932 C 0.89546 0.69643 0.43627 0.0
C2933 C 0.89593 0.6862 0.45245 0.0
C2934 C 0.90873 0.69362 0.42281 0.0
C2935 C 0.92301 0.68078 0.4254 0.0
C2936 C 0.92342 0.67058 0.44169 0.0
C2937 C 0.90994 0.67316 0.45499 0.0
C2938 C 0.95947 0.65883 0.39512 0.0
C2939 C 0.96529 0.67396 0.38475 0.0
C2940 C 0.94562 0.66094 0.40817 0.0
C2941 C 0.93757 0.67831 0.41133 0.0
C2942 C 0.94366 0.69345 0.401 0.0
C2943 C 0.95722 0.69125 0.38776 0.0
H2944 H 0.7975 0.39371 0.43803 0.0
H2945 H 0.85188 0.40864 0.45627 0.0
H2946 H 0.79856 0.41826 0.4154 0.0
H2947 H 0.85292 0.43319 0.43375 0.0
H2948 H 0.85547 0.46489 0.38013 0.0
H2949 H 0.85465 0.43907 0.40138 0.0
H2950 H 0.79797 0.45146 0.41387 0.0
H2951 H 0.79866 0.47696 0.39239 0.0
C2952 C 0.80964 0.40228 0.43729 0.0
C2953 C 0.82459 0.39917 0.449 0.0
C2954 C 0.81025 0.41637 0.42431 0.0
C2955 C 0.82582 0.42775 0.42275 0.0
C2956 C 0.84083 0.42452 0.43436 0.0
C2957 C 0.84023 0.41041 0.4473 0.0
C2958 C 0.84283 0.46209 0.38739 0.0
C2959 C 0.82714 0.47303 0.38455 0.0
C2960 C 0.84238 0.44733 0.39964 0.0
C2961 C 0.82624 0.44317 0.40937 0.0
C2962 C 0.81055 0.45408 0.40643 0.0
C2963 C 0.81099 0.4688 0.39418 0.0
H2964 H 0.89978 0.30696 0.56129 0.0
H2965 H 0.90764 0.36294 0.54266 0.0
H2966 H 0.92343 0.31128 0.5839 0.0
H2967 H 0.93064 0.3676 0.56626 0.0
H2968 H 0.98482 0.36181 0.5992 0.0
H2969 H 0.96135 0.35919 0.57545 0.0
H2970 H 0.92778 0.32667 0.61185 0.0
H2971 H 0.9514 0.32868 0.63506 0.0
C2972 C 0.9065 0.32021 0.56193 0.0
C2973 C 0.90167 0.33456 0.54999 0.0
C2974 C 0.91995 0.32279 0.57517 0.0
C2975 C 0.92883 0.33987 0.57708 0.0
C2976 C 0.92416 0.35423 0.56511 0.0
C2977 C 0.91076 0.35161 0.5517 0.0
C2978 C 0.97237 0.35418 0.60205 0.0
C2979 C 0.97001 0.34525 0.61884 0.0
C2980 C 0.95889 0.35274 0.58851 0.0
C2981 C 0.94277 0.3425 0.59164 0.0
C2982 C 0.94022 0.33422 0.60876 0.0
C2983 C 0.95373 0.33546 0.62212 0.0
H2984 H 0.18846 0.46392 0.62565 0.0
H2985 H 0.13528 0.48114 0.60575 0.0
H2986 H 0.19122 0.44232 0.60074 0.0
H2987 H 0.13817 0.45918 0.58036 0.0
H2988 H 0.14604 0.39909 0.55398 0.0
H2989 H 0.14026 0.42375 0.57602 0.0
H2990 H 0.19508 0.44458 0.56712 0.0
H2991 H 0.20081 0.42016 0.54518 0.0
C2992 C 0.17733 0.46312 0.6159 0.0
C2993 C 0.16165 0.47427 0.61763 0.0
C2994 C 0.17899 0.4508 0.60154 0.0
C2995 C 0.16501 0.44922 0.58851 0.0
C2996 C 0.14915 0.46017 0.59025 0.0
C2997 C 0.14753 0.47274 0.60468 0.0
C2998 C 0.15672 0.40913 0.55653 0.0
C2999 C 0.17401 0.40749 0.5481 0.0
C3000 C 0.15339 0.42325 0.56909 0.0
C3001 C 0.1673 0.43592 0.57341 0.0
C3002 C 0.18423 0.43478 0.56429 0.0
C3003 C 0.18754 0.42074 0.55181 0.0
H3004 H 0.86168 0.61877 0.55667 0.0
H3005 H 0.80306 0.60976 0.55747 0.0
H3006 H 0.86601 0.59266 0.57711 0.0
H3007 H 0.80736 0.58357 0.57777 0.0
H3008 H 0.81946 0.5549 0.63138 0.0
H3009 H 0.81601 0.57926 0.60908 0.0
H3010 H 0.86369 0.55912 0.58022 0.0
H3011 H 0.8674 0.53471 0.60301 0.0
C3012 C 0.84974 0.61104 0.56098 0.0
C3013 C 0.832 0.61642 0.55553 0.0
C3014 C 0.85223 0.59605 0.57268 0.0
C3015 C 0.83704 0.58609 0.57919 0.0
C3016 C 0.81935 0.59117 0.57331 0.0
C3017 C 0.81686 0.60618 0.56167 0.0
C3018 C 0.82924 0.5556 0.62029 0.0
C3019 C 0.8437 0.54284 0.61894 0.0
C3020 C 0.82716 0.56952 0.6074 0.0
C3021 C 0.83945 0.57106 0.59274 0.0
C3022 C 0.85404 0.55837 0.59141 0.0
C3023 C 0.85613 0.54436 0.6044 0.0
H3024 H 0.56894 0.13232 0.66095 0.0
H3025 H 0.55295 0.10166 0.70873 0.0
H3026 H 0.59489 0.11135 0.65636 0.0
H3027 H 0.57892 0.08083 0.70426 0.0
H3028 H 0.61254 0.03536 0.67561 0.0
H3029 H 0.58749 0.05704 0.68053 0.0
H3030 H 0.62482 0.10253 0.67252 0.0
H3031 H 0.65007 0.0808 0.66763 0.0
C3032 C 0.57097 0.12108 0.67042 0.0
C3033 C 0.55893 0.11858 0.68516 0.0
C3034 C 0.58589 0.10921 0.6679 0.0
C3035 C 0.58888 0.09448 0.67995 0.0
C3036 C 0.57685 0.09201 0.6947 0.0
C3037 C 0.56209 0.104 0.69734 0.0
C3038 C 0.61547 0.04998 0.67492 0.0
C3039 C 0.63332 0.05637 0.67128 0.0
C3040 C 0.60112 0.06238 0.67783 0.0
C3041 C 0.60424 0.08144 0.67695 0.0
C3042 C 0.62204 0.08788 0.67317 0.0
C3043 C 0.63648 0.07545 0.67048 0.0
H3044 H 0.3959 0.05736 0.65325 0.0
H3045 H 0.40633 0.05351 0.71097 0.0
H3046 H 0.42135 0.07894 0.65009 0.0
H3047 H 0.43187 0.07497 0.70784 0.0
H3048 H 0.45811 0.13161 0.69874 0.0
H3049 H 0.43532 0.1074 0.70177 0.0
H3050 H 0.45465 0.08259 0.65185 0.0
H3051 H 0.47737 0.10724 0.6486 0.0
C3052 C 0.40381 0.06089 0.66522 0.0
C3053 C 0.39901 0.05381 0.68239 0.0
C3054 C 0.41843 0.07324 0.66341 0.0
C3055 C 0.42861 0.07876 0.67872 0.0
C3056 C 0.42411 0.07127 0.69581 0.0
C3057 C 0.40946 0.05898 0.69762 0.0
C3058 C 0.45761 0.12094 0.68845 0.0
C3059 C 0.46952 0.12135 0.67341 0.0
C3060 C 0.4446 0.10697 0.69026 0.0
C3061 C 0.44317 0.09302 0.67708 0.0
C3062 C 0.45529 0.09325 0.66215 0.0
C3063 C 0.46836 0.10728 0.66034 0.0
H3064 H 0.43353 0.87684 0.67986 0.0
H3065 H 0.46727 0.91286 0.7126 0.0
H3066 H 0.40994 0.90064 0.67823 0.0
H3067 H 0.44368 0.93655 0.71104 0.0
H3068 H 0.38426 0.95582 0.66027 0.0
H3069 H 0.40634 0.93082 0.6637 0.0
H3070 H 0.41245 0.94417 0.72066 0.0
H3071 H 0.3906 0.96938 0.7172 0.0
C3072 C 0.43592 0.8898 0.68672 0.0
C3073 C 0.45238 0.89293 0.69627 0.0
C3074 C 0.4224 0.90345 0.68577 0.0
C3075 C 0.42498 0.92054 0.69439 0.0
C3076 C 0.44117 0.92347 0.70441 0.0
C3077 C 0.4547 0.90983 0.70534 0.0
C3078 C 0.39029 0.95343 0.67353 0.0
C3079 C 0.3857 0.96466 0.68845 0.0
C3080 C 0.40285 0.939 0.67553 0.0
C3081 C 0.41114 0.93548 0.69246 0.0
C3082 C 0.40646 0.94664 0.70739 0.0
C3083 C 0.39387 0.96105 0.70542 0.0
H3084 H 0.57599 0.85787 0.65881 0.0
H3085 H 0.53358 0.8917 0.68289 0.0
H3086 H 0.59812 0.88284 0.66289 0.0
H3087 H 0.55567 0.91661 0.68686 0.0
H3088 H 0.60378 0.95019 0.70773 0.0
H3089 H 0.58397 0.92328 0.70509 0.0
H3090 H 0.60301 0.91465 0.6501 0.0
H3091 H 0.62258 0.94176 0.65255 0.0
C3092 C 0.57141 0.87059 0.66504 0.0
C3093 C 0.55305 0.87282 0.67055 0.0
C3094 C 0.58406 0.8849 0.66728 0.0
C3095 C 0.57862 0.90162 0.67525 0.0
C3096 C 0.5603 0.90378 0.68089 0.0
C3097 C 0.54762 0.88956 0.67849 0.0
C3098 C 0.60376 0.94258 0.69506 0.0
C3099 C 0.61464 0.94831 0.68029 0.0
C3100 C 0.59242 0.92716 0.69358 0.0
C3101 C 0.59182 0.917 0.67733 0.0
C3102 C 0.60329 0.92217 0.66283 0.0
C3103 C 0.61456 0.93769 0.66427 0.0
H3104 H 0.56594 0.89119 0.35019 0.0
H3105 H 0.55637 0.91044 0.2953 0.0
H3106 H 0.59263 0.91109 0.35239 0.0
H3107 H 0.58219 0.93123 0.29799 0.0
H3108 H 0.63661 0.95917 0.30206 0.0
H3109 H 0.61417 0.93447 0.2996 0.0
H3110 H 0.59888 0.9428 0.35588 0.0
H3111 H 0.62196 0.96691 0.35852 0.0
C3112 C 0.56953 0.89951 0.33851 0.0
C3113 C 0.55875 0.89927 0.32261 0.0
C3114 C 0.58475 0.91116 0.33989 0.0
C3115 C 0.58949 0.92298 0.32547 0.0
C3116 C 0.57912 0.92224 0.30935 0.0
C3117 C 0.56406 0.91046 0.30789 0.0
C3118 C 0.62853 0.95562 0.31394 0.0
C3119 C 0.63092 0.96508 0.33044 0.0
C3120 C 0.61559 0.94151 0.31251 0.0
C3121 C 0.60453 0.93671 0.32748 0.0
C3122 C 0.60729 0.94591 0.34413 0.0
C3123 C 0.62043 0.95985 0.34562 0.0
H3124 H 0.60284 0.05567 0.3089 0.0
H3125 H 0.6266 0.06895 0.36108 0.0
H3126 H 0.58034 0.08048 0.31283 0.0
H3127 H 0.60411 0.09358 0.36507 0.0
H3128 H 0.57584 0.14936 0.3542 0.0
H3129 H 0.59765 0.1242 0.34992 0.0
H3130 H 0.55333 0.08825 0.33376 0.0
H3131 H 0.5314 0.11345 0.33809 0.0
C3132 C 0.60324 0.06389 0.32118 0.0
C3133 C 0.61644 0.06035 0.33469 0.0
C3134 C 0.5903 0.07797 0.32349 0.0
C3135 C 0.59051 0.08896 0.33924 0.0
C3136 C 0.60371 0.08542 0.35273 0.0
C3137 C 0.61647 0.07121 0.35053 0.0
C3138 C 0.57074 0.13612 0.34967 0.0
C3139 C 0.5519 0.13339 0.34647 0.0
C3140 C 0.58322 0.12169 0.34734 0.0
C3141 C 0.57718 0.10427 0.34154 0.0
C3142 C 0.55837 0.10157 0.33813 0.0
C3143 C 0.54583 0.11596 0.3407 0.0
H3144 H 0.44454 0.12105 0.36418 0.0
H3145 H 0.4444 0.11027 0.30639 0.0
H3146 H 0.42006 0.09853 0.36841 0.0
H3147 H 0.42022 0.08738 0.31066 0.0
H3148 H 0.36516 0.06065 0.3225 0.0
H3149 H 0.38777 0.08506 0.31927 0.0
H3150 H 0.41674 0.06451 0.3664 0.0
H3151 H 0.39383 0.04003 0.3698 0.0
C3152 C 0.43909 0.1141 0.35233 0.0
C3153 C 0.44636 0.1175 0.3349 0.0
C3154 C 0.42525 0.10099 0.3548 0.0
C3155 C 0.41829 0.0911 0.3399 0.0
C3156 C 0.42521 0.09487 0.32241 0.0
C3157 C 0.43911 0.10789 0.31996 0.0
C3158 C 0.37631 0.06133 0.33223 0.0
C3159 C 0.37777 0.04836 0.34637 0.0
C3160 C 0.38932 0.07529 0.33031 0.0
C3161 C 0.40408 0.07667 0.34251 0.0
C3162 C 0.4054 0.06389 0.35687 0.0
C3163 C 0.39238 0.04982 0.35876 0.0
H3164 H 0.4272 0.86699 0.33966 0.0
H3165 H 0.4735 0.90221 0.32768 0.0
H3166 H 0.40651 0.89331 0.33629 0.0
H3167 H 0.45282 0.92843 0.32434 0.0
H3168 H 0.40706 0.96639 0.30185 0.0
H3169 H 0.42749 0.93963 0.30377 0.0
H3170 H 0.4006 0.92273 0.35343 0.0
H3171 H 0.38013 0.94927 0.35138 0.0
C3172 C 0.43295 0.8803 0.3362 0.0
C3173 C 0.45199 0.88251 0.33397 0.0
C3174 C 0.42112 0.89538 0.33438 0.0
C3175 C 0.42806 0.91293 0.33009 0.0
C3176 C 0.44706 0.91505 0.32751 0.0
C3177 C 0.4589 0.90004 0.32953 0.0
C3178 C 0.40554 0.95692 0.31313 0.0
C3179 C 0.39211 0.96 0.32652 0.0
C3180 C 0.41726 0.94169 0.3143 0.0
C3181 C 0.41561 0.92908 0.32874 0.0
C3182 C 0.4021 0.93211 0.34207 0.0
C3183 C 0.39054 0.94744 0.34101 0.0
H3184 H 0.66363 0.04587 0.59994 0.0
H3185 H 0.70967 0.07143 0.62702 0.0
H3186 H 0.66189 0.07178 0.57893 0.0
H3187 H 0.70788 0.09743 0.6061 0.0
H3188 H 0.71122 0.13014 0.55247 0.0
H3189 H 0.71305 0.1052 0.57454 0.0
H3190 H 0.65381 0.10413 0.5782 0.0
H3191 H 0.65195 0.12881 0.55579 0.0
C3192 C 0.67331 0.05707 0.60148 0.0
C3193 C 0.6868 0.05655 0.61515 0.0
C3194 C 0.67228 0.07197 0.58948 0.0
C3195 C 0.68469 0.08674 0.59088 0.0
C3196 C 0.69826 0.08617 0.60449 0.0
C3197 C 0.69931 0.07124 0.61646 0.0
C3198 C 0.69858 0.1247 0.55807 0.0
C3199 C 0.68143 0.13142 0.55226 0.0
C3200 C 0.69963 0.11043 0.5708 0.0
C3201 C 0.68358 0.10256 0.57805 0.0
C3202 C 0.66644 0.10964 0.57263 0.0
C3203 C 0.66538 0.1239 0.55987 0.0
H3204 H 0.44627 0.2058 0.61134 0.0
H3205 H 0.45595 0.14721 0.61199 0.0
H3206 H 0.42574 0.20222 0.58538 0.0
H3207 H 0.43484 0.14335 0.58637 0.0
H3208 H 0.40248 0.14485 0.53254 0.0
H3209 H 0.42741 0.1487 0.55467 0.0
H3210 H 0.39558 0.19048 0.58234 0.0
H3211 H 0.37128 0.18708 0.56015 0.0
C3212 C 0.44403 0.19217 0.60579 0.0
C3213 C 0.45251 0.17678 0.6137 0.0
C3214 C 0.43222 0.19006 0.59101 0.0
C3215 C 0.42833 0.17244 0.58401 0.0
C3216 C 0.43759 0.15712 0.59134 0.0
C3217 C 0.44966 0.1593 0.60602 0.0
C3218 C 0.40094 0.15487 0.54335 0.0
C3219 C 0.385 0.16573 0.54457 0.0
C3220 C 0.41516 0.15705 0.55604 0.0
C3221 C 0.41361 0.17007 0.57017 0.0
C3222 C 0.39751 0.18069 0.57139 0.0
C3223 C 0.38346 0.17861 0.55872 0.0
H3224 H 0.31656 0.88945 0.53758 0.0
H3225 H 0.37531 0.89637 0.54083 0.0
H3226 H 0.31232 0.91214 0.5615 0.0
H3227 H 0.37124 0.9186 0.56563 0.0
H3228 H 0.35577 0.96818 0.60138 0.0
H3229 H 0.36074 0.94814 0.57516 0.0
H3230 H 0.31597 0.91345 0.5931 0.0
H3231 H 0.31072 0.93389 0.61884 0.0
C3232 C 0.32859 0.89595 0.54344 0.0
C3233 C 0.34625 0.89121 0.53746 0.0
C3234 C 0.32618 0.90881 0.5573 0.0
C3235 C 0.34143 0.91695 0.56584 0.0
C3236 C 0.35917 0.9127 0.55932 0.0
C3237 C 0.36154 0.90001 0.54513 0.0
C3238 C 0.34708 0.9562 0.59971 0.0
C3239 C 0.33281 0.95259 0.6121 0.0
C3240 C 0.34994 0.94469 0.5847 0.0
C3241 C 0.33869 0.92922 0.58187 0.0
C3242 C 0.32462 0.92549 0.59452 0.0
C3243 C 0.32163 0.93713 0.60935 0.0
H3244 H 0.59946 0.86822 0.5355 0.0
H3245 H 0.61891 0.8133 0.54748 0.0
H3246 H 0.57452 0.86415 0.55754 0.0
H3247 H 0.5943 0.80934 0.56948 0.0
H3248 H 0.53882 0.80139 0.59587 0.0
H3249 H 0.56074 0.8062 0.57121 0.0
H3250 H 0.57155 0.86113 0.59106 0.0
H3251 H 0.54981 0.85631 0.61574 0.0
C3252 C 0.59837 0.85529 0.54277 0.0
C3253 C 0.61114 0.8411 0.53979 0.0
C3254 C 0.58416 0.85298 0.55543 0.0
C3255 C 0.58241 0.8364 0.5652 0.0
C3256 C 0.59509 0.82217 0.56199 0.0
C3257 C 0.60929 0.82451 0.54947 0.0
C3258 C 0.54586 0.81448 0.59497 0.0
C3259 C 0.54256 0.82841 0.60784 0.0
C3260 C 0.5584 0.81725 0.58083 0.0
C3261 C 0.56792 0.83403 0.57923 0.0
C3262 C 0.56424 0.84815 0.59177 0.0
C3263 C 0.55174 0.84536 0.60593 0.0
H3264 H 0.70496 0.88782 0.47321 0.0
H3265 H 0.64607 0.88998 0.46622 0.0
H3266 H 0.70872 0.91055 0.44916 0.0
H3267 H 0.64976 0.91326 0.44263 0.0
H3268 H 0.70817 0.96558 0.4194 0.0
H3269 H 0.70446 0.9422 0.44288 0.0
H3270 H 0.65984 0.91799 0.41229 0.0
H3271 H 0.66333 0.94176 0.38908 0.0
C3272 C 0.69279 0.89325 0.46663 0.0
C3273 C 0.67521 0.88709 0.47166 0.0
C3274 C 0.69494 0.90639 0.45289 0.0
C3275 C 0.67955 0.91385 0.44394 0.0
C3276 C 0.66195 0.90765 0.44899 0.0
C3277 C 0.65982 0.89437 0.46263 0.0
C3278 C 0.69768 0.95517 0.41764 0.0
C3279 C 0.68605 0.9555 0.40239 0.0
C3280 C 0.69555 0.94172 0.43108 0.0
C3281 C 0.68185 0.92813 0.42953 0.0
C3282 C 0.67032 0.9284 0.41415 0.0
C3283 C 0.67235 0.94198 0.40079 0.0
H3284 H 0.59667 0.15611 0.49637 0.0
H3285 H 0.63537 0.16965 0.45391 0.0
H3286 H 0.57129 0.15879 0.4743 0.0
H3287 H 0.6103 0.17175 0.43195 0.0
H3288 H 0.56153 0.15433 0.39583 0.0
H3289 H 0.58431 0.14769 0.41942 0.0
H3290 H 0.56055 0.18978 0.45356 0.0
H3291 H 0.53782 0.19665 0.42975 0.0
C3292 C 0.59972 0.1593 0.48229 0.0
C3293 C 0.61785 0.16272 0.47674 0.0
C3294 C 0.58529 0.16093 0.46976 0.0
C3295 C 0.58897 0.16547 0.45152 0.0
C3296 C 0.60718 0.16816 0.44593 0.0
C3297 C 0.62146 0.16701 0.45847 0.0
C3298 C 0.56105 0.162 0.40846 0.0
C3299 C 0.54801 0.17604 0.41101 0.0
C3300 C 0.57404 0.15821 0.4219 0.0
C3301 C 0.57401 0.16815 0.43826 0.0
C3302 C 0.56066 0.18183 0.44109 0.0
C3303 C 0.54785 0.18587 0.42746 0.0
H3304 H 0.35219 0.11939 0.46902 0.0
H3305 H 0.29455 0.13266 0.46433 0.0
H3306 H 0.34996 0.09973 0.44228 0.0
H3307 H 0.29245 0.11385 0.43702 0.0
H3308 H 0.28997 0.05914 0.40616 0.0
H3309 H 0.29173 0.08291 0.42916 0.0
H3310 H 0.34628 0.09722 0.4106 0.0
H3311 H 0.34497 0.07238 0.38839 0.0
C3312 C 0.33909 0.11827 0.46212 0.0
C3313 C 0.32348 0.12731 0.46893 0.0
C3314 C 0.33783 0.10715 0.44664 0.0
C3315 C 0.32099 0.10508 0.43744 0.0
C3316 C 0.30555 0.11474 0.44394 0.0
C3317 C 0.30675 0.12557 0.4596 0.0
C3318 C 0.30235 0.06735 0.40695 0.0
C3319 C 0.31746 0.06352 0.39566 0.0
C3320 C 0.30328 0.08123 0.42002 0.0
C3321 C 0.31926 0.09192 0.42197 0.0
C3322 C 0.33392 0.08897 0.4098 0.0
C3323 C 0.33306 0.07488 0.39683 0.0
H3324 H 0.40079 0.84285 0.47543 0.0
H3325 H 0.36181 0.83249 0.43224 0.0
H3326 H 0.42602 0.83889 0.454 0.0
H3327 H 0.38711 0.82875 0.41078 0.0
H3328 H 0.43748 0.80546 0.38159 0.0
H3329 H 0.41278 0.80772 0.4039 0.0
H3330 H 0.43908 0.85527 0.42774 0.0
H3331 H 0.46405 0.85267 0.40577 0.0
C3332 C 0.39759 0.83972 0.46137 0.0
C3333 C 0.37927 0.838 0.45554 0.0
C3334 C 0.41206 0.83755 0.44908 0.0
C3335 C 0.40856 0.83355 0.4307 0.0
C3336 C 0.39026 0.83162 0.4249 0.0
C3337 C 0.37576 0.83385 0.43719 0.0
C3338 C 0.43813 0.81623 0.39175 0.0
C3339 C 0.45275 0.82889 0.3919 0.0
C3340 C 0.42386 0.81766 0.4044 0.0
C3341 C 0.42394 0.83171 0.41754 0.0
C3342 C 0.4387 0.8442 0.41788 0.0
C3343 C 0.45291 0.84282 0.40518 0.0
H3344 H 0.60064 0.16077 0.55353 0.0
H3345 H 0.61584 0.21535 0.57134 0.0
H3346 H 0.57909 0.15829 0.57876 0.0
H3347 H 0.59391 0.21303 0.5965 0.0
H3348 H 0.57027 0.19048 0.65105 0.0
H3349 H 0.59079 0.19488 0.62516 0.0
H3350 H 0.54977 0.17177 0.58938 0.0
H3351 H 0.52926 0.16723 0.61526 0.0
C3352 C 0.59939 0.17224 0.56285 0.0
C3353 C 0.61005 0.18822 0.5605 0.0
C3354 C 0.58688 0.1709 0.5772 0.0
C3355 C 0.58478 0.18546 0.58962 0.0
C3356 C 0.59532 0.20152 0.58722 0.0
C3357 C 0.60776 0.20292 0.57274 0.0
C3358 C 0.56557 0.18641 0.63766 0.0
C3359 C 0.54814 0.17843 0.63525 0.0
C3360 C 0.5773 0.18904 0.62281 0.0
C3361 C 0.57192 0.18364 0.60524 0.0
C3362 C 0.55439 0.17589 0.60279 0.0
C3363 C 0.54261 0.17337 0.61762 0.0
H3364 H 0.52223 0.867 0.40142 0.0
H3365 H 0.55631 0.83413 0.36591 0.0
H3366 H 0.54405 0.86188 0.42636 0.0
H3367 H 0.57819 0.82952 0.39034 0.0
H3368 H 0.60257 0.8061 0.44132 0.0
H3369 H 0.57998 0.81243 0.41789 0.0
H3370 H 0.57483 0.86839 0.43726 0.0
H3371 H 0.59668 0.86178 0.46141 0.0
C3372 C 0.53448 0.85891 0.39891 0.0
C3373 C 0.53749 0.8508 0.38183 0.0
C3374 C 0.54699 0.85599 0.41314 0.0
C3375 C 0.56274 0.84503 0.41043 0.0
C3376 C 0.56597 0.83758 0.39308 0.0
C3377 C 0.55347 0.84034 0.37902 0.0
C3378 C 0.5965 0.81969 0.4408 0.0
C3379 C 0.60163 0.83341 0.4533 0.0
C3380 C 0.58367 0.82341 0.42718 0.0
C3381 C 0.57572 0.841 0.42554 0.0
C3382 C 0.5806 0.85467 0.43817 0.0
C3383 C 0.59338 0.85091 0.4519 0.0
H3384 H 0.64598 0.10715 0.46343 0.0
H3385 H 0.70479 0.10767 0.45424 0.0
H3386 H 0.64267 0.08386 0.44001 0.0
H3387 H 0.70137 0.08401 0.43161 0.0
H3388 H 0.68807 0.05883 0.37739 0.0
H3389 H 0.68978 0.08179 0.40132 0.0
H3390 H 0.64919 0.05182 0.43241 0.0
H3391 H 0.64704 0.02899 0.40797 0.0
C3392 C 0.65825 0.10241 0.45662 0.0
C3393 C 0.67568 0.10974 0.46085 0.0
C3394 C 0.65631 0.08883 0.44324 0.0
C3395 C 0.67172 0.08221 0.43379 0.0
C3396 C 0.68914 0.0891 0.43834 0.0
C3397 C 0.69109 0.10268 0.45159 0.0
C3398 C 0.67949 0.05711 0.38932 0.0
C3399 C 0.66753 0.04205 0.3909 0.0
C3400 C 0.68055 0.07023 0.4031 0.0
C3401 C 0.66981 0.06852 0.4189 0.0
C3402 C 0.65757 0.05359 0.42036 0.0
C3403 C 0.6564 0.04048 0.40643 0.0
H3404 H 0.46844 0.13933 0.40428 0.0
H3405 H 0.45839 0.19474 0.38521 0.0
H3406 H 0.44502 0.14362 0.42796 0.0
H3407 H 0.43517 0.19892 0.40856 0.0
H3408 H 0.40894 0.2066 0.46439 0.0
H3409 H 0.43325 0.20158 0.44212 0.0
H3410 H 0.4107 0.14809 0.42951 0.0
H3411 H 0.38622 0.15315 0.45151 0.0
C3412 C 0.46128 0.15238 0.40517 0.0
C3413 C 0.46522 0.16667 0.39291 0.0
C3414 C 0.44785 0.15482 0.41864 0.0
C3415 C 0.43833 0.17165 0.42014 0.0
C3416 C 0.44243 0.18591 0.40791 0.0
C3417 C 0.45566 0.18343 0.39444 0.0
C3418 C 0.40902 0.19385 0.45677 0.0
C3419 C 0.39558 0.1803 0.45981 0.0
C3420 C 0.42301 0.19093 0.44407 0.0
C3421 C 0.42392 0.1744 0.43414 0.0
C3422 C 0.41054 0.16083 0.43719 0.0
C3423 C 0.39649 0.16378 0.4498 0.0
H3424 H 0.35271 0.88405 0.44101 0.0
H3425 H 0.30282 0.91123 0.458 0.0
H3426 H 0.35511 0.90503 0.41508 0.0
H3427 H 0.30509 0.9321 0.43196 0.0
H3428 H 0.32993 0.97916 0.39736 0.0
H3429 H 0.32678 0.95749 0.42248 0.0
H3430 H 0.33781 0.91226 0.3859 0.0
H3431 H 0.34097 0.93398 0.36061 0.0
C3432 C 0.34231 0.89457 0.43922 0.0
C3433 C 0.32763 0.89611 0.45157 0.0
C3434 C 0.34357 0.90642 0.4243 0.0
C3435 C 0.33029 0.92018 0.42154 0.0
C3436 C 0.31559 0.92169 0.43385 0.0
C3437 C 0.31421 0.90969 0.44866 0.0
C3438 C 0.33165 0.96459 0.39463 0.0
C3439 C 0.33565 0.95826 0.37698 0.0
C3440 C 0.32974 0.95219 0.40901 0.0
C3441 C 0.33199 0.93321 0.40611 0.0
C3442 C 0.33609 0.92685 0.38851 0.0
C3443 C 0.33779 0.93926 0.37404 0.0
H3444 H 0.39183 0.86424 0.56381 0.0
H3445 H 0.40279 0.80579 0.56503 0.0
H3446 H 0.41226 0.86863 0.58987 0.0
H3447 H 0.42349 0.81018 0.59069 0.0
H3448 H 0.44816 0.82101 0.64546 0.0
H3449 H 0.42388 0.8189 0.62282 0.0
H3450 H 0.44601 0.86645 0.59508 0.0
H3451 H 0.47028 0.86876 0.61801 0.0
C3452 C 0.39836 0.8523 0.56983 0.0
C3453 C 0.39575 0.83465 0.56238 0.0
C3454 C 0.41022 0.85485 0.5846 0.0
C3455 C 0.41953 0.83977 0.59228 0.0
C3456 C 0.41639 0.82206 0.5852 0.0
C3457 C 0.40466 0.81955 0.57041 0.0
C3458 C 0.44779 0.83112 0.63462 0.0
C3459 C 0.46123 0.84495 0.63339 0.0
C3460 C 0.4339 0.82986 0.62162 0.0
C3461 C 0.43313 0.8424 0.60709 0.0
C3462 C 0.44617 0.85667 0.60622 0.0
C3463 C 0.46012 0.85793 0.61926 0.0
H3464 H 0.63995 0.898 0.55781 0.0
H3465 H 0.69903 0.90319 0.5581 0.0
H3466 H 0.63753 0.92416 0.57856 0.0
H3467 H 0.69664 0.9294 0.57866 0.0
H3468 H 0.68662 0.9561 0.63386 0.0
H3469 H 0.68852 0.93283 0.61031 0.0
H3470 H 0.64229 0.95753 0.58263 0.0
H3471 H 0.64014 0.98088 0.60667 0.0
C3472 C 0.6524 0.90493 0.56205 0.0
C3473 C 0.6697 0.8984 0.55648 0.0
C3474 C 0.65101 0.91994 0.57392 0.0
C3475 C 0.6669 0.92875 0.58041 0.0
C3476 C 0.68415 0.92267 0.57422 0.0
C3477 C 0.68553 0.90765 0.56245 0.0
C3478 C 0.67687 0.95668 0.62274 0.0
C3479 C 0.66322 0.97035 0.62212 0.0
C3480 C 0.67806 0.94338 0.60913 0.0
C3481 C 0.66566 0.9434 0.59449 0.0
C3482 C 0.65198 0.9571 0.5938 0.0
C3483 C 0.6508 0.97051 0.60749 0.0
H3484 H 0.31007 0.1185 0.58056 0.0
H3485 H 0.35119 0.09565 0.54479 0.0
H3486 H 0.31515 0.09351 0.602 0.0
H3487 H 0.35602 0.07019 0.56604 0.0
H3488 H 0.37196 0.038 0.61842 0.0
H3489 H 0.36806 0.06228 0.59555 0.0
H3490 H 0.30944 0.06171 0.60507 0.0
H3491 H 0.31349 0.03823 0.62822 0.0
C3492 C 0.32003 0.10796 0.57719 0.0
C3493 C 0.33015 0.10896 0.56098 0.0
C3494 C 0.32294 0.09359 0.58945 0.0
C3495 C 0.33588 0.07969 0.58568 0.0
C3496 C 0.3461 0.08075 0.56947 0.0
C3497 C 0.34331 0.09529 0.55728 0.0
C3498 C 0.35828 0.04303 0.61545 0.0
C3499 C 0.34306 0.03643 0.62517 0.0
C3500 C 0.35601 0.05689 0.60234 0.0
C3501 C 0.33845 0.06416 0.59865 0.0
C3502 C 0.32321 0.05685 0.6079 0.0
C3503 C 0.32551 0.04328 0.6211 0.0
H3504 H 0.56827 0.62526 0.2162 0.0
H3505 H 0.54139 0.59712 0.17177 0.0
H3506 H 0.59335 0.60289 0.21504 0.0
H3507 H 0.56652 0.57507 0.17044 0.0
H3508 H 0.62321 0.5523 0.15899 0.0
H3509 H 0.59964 0.57601 0.16169 0.0
H3510 H 0.59942 0.56917 0.22007 0.0
H3511 H 0.6231 0.5455 0.21745 0.0
C3512 C 0.56757 0.61421 0.20636 0.0
C3513 C 0.55288 0.61311 0.19396 0.0
C3514 C 0.58198 0.60146 0.20563 0.0
C3515 C 0.58202 0.58743 0.19245 0.0
C3516 C 0.56708 0.58601 0.18045 0.0
C3517 C 0.55267 0.59864 0.18124 0.0
C3518 C 0.61832 0.55599 0.17243 0.0
C3519 C 0.62492 0.54689 0.18799 0.0
C3520 C 0.60472 0.56947 0.17395 0.0
C3521 C 0.59753 0.57425 0.19107 0.0
C3522 C 0.60473 0.56579 0.2067 0.0
C3523 C 0.61825 0.5522 0.20518 0.0
H3524 H 0.39967 0.56161 0.2049 0.0
H3525 H 0.40265 0.55079 0.14724 0.0
H3526 H 0.42559 0.58273 0.20235 0.0
H3527 H 0.42831 0.57219 0.14453 0.0
H3528 H 0.48312 0.60327 0.14817 0.0
H3529 H 0.45997 0.57898 0.15147 0.0
H3530 H 0.43079 0.61263 0.19046 0.0
H3531 H 0.45398 0.63638 0.18756 0.0
C3532 C 0.40589 0.56375 0.19168 0.0
C3533 C 0.39904 0.55458 0.17629 0.0
C3534 C 0.42071 0.5759 0.19017 0.0
C3535 C 0.42896 0.57938 0.17318 0.0
C3536 C 0.42248 0.56973 0.15786 0.0
C3537 C 0.40773 0.55745 0.15941 0.0
C3538 C 0.47178 0.60537 0.15749 0.0
C3539 C 0.47042 0.62172 0.16763 0.0
C3540 C 0.45846 0.59151 0.15933 0.0
C3541 C 0.44352 0.59374 0.17134 0.0
C3542 C 0.44226 0.61017 0.1814 0.0
C3543 C 0.45554 0.62391 0.17961 0.0
H3544 H 0.43967 0.38793 0.20421 0.0
H3545 H 0.45582 0.39661 0.14835 0.0
H3546 H 0.41505 0.41064 0.20066 0.0
H3547 H 0.43121 0.41929 0.14478 0.0
H3548 H 0.39845 0.47376 0.15381 0.0
H3549 H 0.42331 0.45131 0.15758 0.0
H3550 H 0.38532 0.41321 0.1824 0.0
H3551 H 0.36048 0.43546 0.17851 0.0
C3552 C 0.43796 0.39471 0.19119 0.0
C3553 C 0.44964 0.39043 0.17656 0.0
C3554 C 0.42382 0.40762 0.18913 0.0
C3555 C 0.42124 0.41676 0.17245 0.0
C3556 C 0.43297 0.41256 0.15783 0.0
C3557 C 0.44692 0.39943 0.15982 0.0
C3558 C 0.39544 0.46061 0.16013 0.0
C3559 C 0.3775 0.45639 0.16586 0.0
C3560 C 0.40963 0.44773 0.16218 0.0
C3561 C 0.40624 0.43051 0.17028 0.0
C3562 C 0.38837 0.42641 0.17623 0.0
C3563 C 0.37414 0.43914 0.17392 0.0
H3564 H 0.62832 0.43443 0.16362 0.0
H3565 H 0.59491 0.45308 0.20844 0.0
H3566 H 0.61095 0.40561 0.16259 0.0
H3567 H 0.57769 0.42424 0.2077 0.0
H3568 H 0.57923 0.35193 0.17063 0.0
H3569 H 0.60084 0.37665 0.17776 0.0
H3570 H 0.55542 0.41436 0.18465 0.0
H3571 H 0.5339 0.38976 0.1778 0.0
C3572 C 0.61771 0.43204 0.17367 0.0
C3573 C 0.61274 0.44596 0.18598 0.0
C3574 C 0.60773 0.41559 0.17307 0.0
C3575 C 0.59273 0.41286 0.18484 0.0
C3576 C 0.5889 0.42615 0.1982 0.0
C3577 C 0.59879 0.44257 0.19871 0.0
C3578 C 0.57387 0.36547 0.17385 0.0
C3579 C 0.55485 0.36892 0.17361 0.0
C3580 C 0.58626 0.3796 0.17787 0.0
C3581 C 0.57983 0.39739 0.18187 0.0
C3582 C 0.5608 0.40071 0.18195 0.0
C3583 C 0.54845 0.38665 0.17785 0.0
H3584 H 0.55437 0.41957 0.79479 0.0
H3585 H 0.57009 0.38701 0.84136 0.0
H3586 H 0.58292 0.43703 0.79714 0.0
H3587 H 0.5986 0.40465 0.84398 0.0
H3588 H 0.65271 0.43717 0.83792 0.0
H3589 H 0.62852 0.41493 0.83057 0.0
H3590 H 0.59086 0.4598 0.82051 0.0
H3591 H 0.61481 0.48185 0.82758 0.0
C3592 C 0.56419 0.41591 0.80526 0.0
C3593 C 0.56002 0.40213 0.81798 0.0
C3594 C 0.58044 0.42594 0.8067 0.0
C3595 C 0.59278 0.42246 0.82099 0.0
C3596 C 0.58936 0.40761 0.8328 0.0
C3597 C 0.57308 0.39748 0.83129 0.0
C3598 C 0.63927 0.44224 0.83405 0.0
C3599 C 0.63567 0.46127 0.83333 0.0
C3600 C 0.62545 0.42952 0.82988 0.0
C3601 C 0.60788 0.43562 0.82476 0.0
C3602 C 0.60437 0.45465 0.82402 0.0
C3603 C 0.61807 0.46731 0.82827 0.0
H3604 H 0.62218 0.57387 0.84352 0.0
H3605 H 0.59821 0.55763 0.79207 0.0
H3606 H 0.59827 0.59658 0.84745 0.0
H3607 H 0.57352 0.57947 0.79674 0.0
H3608 H 0.5386 0.63058 0.80266 0.0
H3609 H 0.56466 0.61033 0.79749 0.0
H3610 H 0.56703 0.59843 0.85512 0.0
H3611 H 0.54147 0.61946 0.86034 0.0
C3612 C 0.61197 0.57507 0.83293 0.0
C3613 C 0.61224 0.56353 0.8175 0.0
C3614 C 0.59796 0.58802 0.83538 0.0
C3615 C 0.58369 0.58974 0.8226 0.0
C3616 C 0.58428 0.57869 0.80688 0.0
C3617 C 0.59842 0.56591 0.8043 0.0
C3618 C 0.54467 0.62361 0.81424 0.0
C3619 C 0.53791 0.62658 0.83192 0.0
C3620 C 0.55961 0.6119 0.81126 0.0
C3621 C 0.56804 0.60263 0.82585 0.0
C3622 C 0.56117 0.60556 0.84355 0.0
C3623 C 0.54638 0.61749 0.84656 0.0
H3624 H 0.44602 0.61909 0.86766 0.0
H3625 H 0.44618 0.61246 0.80925 0.0
H3626 H 0.42357 0.59435 0.87038 0.0
H3627 H 0.42377 0.58768 0.81195 0.0
H3628 H 0.36771 0.56129 0.82231 0.0
H3629 H 0.39165 0.58449 0.8198 0.0
H3630 H 0.41916 0.5612 0.86657 0.0
H3631 H 0.39486 0.53809 0.86931 0.0
C3632 C 0.44147 0.61219 0.85542 0.0
C3633 C 0.44786 0.61782 0.83822 0.0
C3634 C 0.42859 0.59799 0.85698 0.0
C3635 C 0.42181 0.58908 0.84138 0.0
C3636 C 0.42847 0.59448 0.82422 0.0
C3637 C 0.44131 0.60869 0.82266 0.0
C3638 C 0.37887 0.56107 0.83206 0.0
C3639 C 0.3794 0.54786 0.84602 0.0
C3640 C 0.39268 0.57431 0.83053 0.0
C3641 C 0.40737 0.57467 0.84293 0.0
C3642 C 0.40793 0.56141 0.8569 0.0
C3643 C 0.39408 0.54811 0.85842 0.0
H3644 H 0.37694 0.44771 0.84869 0.0
H3645 H 0.40088 0.46931 0.79934 0.0
H3646 H 0.3994 0.4227 0.84869 0.0
H3647 H 0.42336 0.44456 0.79939 0.0
H3648 H 0.45679 0.39503 0.85296 0.0
H3649 H 0.43194 0.41757 0.85325 0.0
H3650 H 0.4262 0.41194 0.79497 0.0
H3651 H 0.45134 0.38985 0.79461 0.0
C3652 C 0.38705 0.44717 0.8379 0.0
C3653 C 0.3871 0.46047 0.82399 0.0
C3654 C 0.39992 0.43285 0.8379 0.0
C3655 C 0.41313 0.43157 0.824 0.0
C3656 C 0.41314 0.44488 0.8101 0.0
C3657 C 0.40026 0.45912 0.81007 0.0
C3658 C 0.45011 0.39849 0.84023 0.0
C3659 C 0.45619 0.39083 0.82373 0.0
C3660 C 0.4358 0.41135 0.84041 0.0
C3661 C 0.42721 0.41673 0.8241 0.0
C3662 C 0.43279 0.40842 0.80773 0.0
C3663 C 0.44714 0.39567 0.80753 0.0
H3664 H 0.6592 0.54824 0.10889 0.0
H3665 H 0.71362 0.56313 0.12698 0.0
H3666 H 0.65936 0.57364 0.08748 0.0
H3667 H 0.7138 0.58888 0.10542 0.0
H3668 H 0.71341 0.61763 0.04853 0.0
H3669 H 0.71464 0.59479 0.07279 0.0
H3670 H 0.65817 0.6068 0.08655 0.0
H3671 H 0.65678 0.62929 0.06198 0.0
C3672 C 0.67113 0.55711 0.10847 0.0
C3673 C 0.68634 0.55376 0.11977 0.0
C3674 C 0.67121 0.57174 0.0962 0.0
C3675 C 0.6865 0.58347 0.09488 0.0
C3676 C 0.70184 0.58004 0.10604 0.0
C3677 C 0.70177 0.5653 0.11835 0.0
C3678 C 0.70131 0.61556 0.05686 0.0
C3679 C 0.68491 0.6251 0.05316 0.0
C3680 C 0.70206 0.60251 0.07084 0.0
C3681 C 0.68644 0.59878 0.08145 0.0
C3682 C 0.67033 0.60904 0.07835 0.0
C3683 C 0.66956 0.62201 0.06433 0.0
H3684 H 0.4518 0.70667 0.10647 0.0
H3685 H 0.45442 0.64735 0.11069 0.0
H3686 H 0.4277 0.70401 0.0838 0.0
H3687 H 0.42962 0.64469 0.08847 0.0
H3688 H 0.39926 0.64891 0.03288 0.0
H3689 H 0.4237 0.65007 0.05576 0.0
H3690 H 0.39577 0.69506 0.0826 0.0
H3691 H 0.37179 0.69419 0.05969 0.0
C3692 C 0.44722 0.69305 0.10258 0.0
C3693 C 0.45506 0.67724 0.11038 0.0
C3694 C 0.43326 0.69153 0.08972 0.0
C3695 C 0.42671 0.67414 0.08441 0.0
C3696 C 0.43449 0.65827 0.0922 0.0
C3697 C 0.44852 0.65981 0.1051 0.0
C3698 C 0.39841 0.65901 0.04369 0.0
C3699 C 0.38374 0.67156 0.04443 0.0
C3700 C 0.4123 0.65961 0.05683 0.0
C3701 C 0.4117 0.67275 0.07089 0.0
C3702 C 0.39681 0.68501 0.07174 0.0
C3703 C 0.38302 0.68446 0.05864 0.0
H3704 H 0.36161 0.45173 0.10869 0.0
H3705 H 0.30727 0.46195 0.08725 0.0
H3706 H 0.36731 0.42976 0.08413 0.0
H3707 H 0.3129 0.43983 0.06303 0.0
H3708 H 0.32018 0.38064 0.04214 0.0
H3709 H 0.31662 0.40551 0.06393 0.0
H3710 H 0.37 0.4267 0.04917 0.0
H3711 H 0.37363 0.40151 0.02705 0.0
C3712 C 0.35098 0.44952 0.09865 0.0
C3713 C 0.33387 0.45847 0.10013 0.0
C3714 C 0.35427 0.43694 0.08457 0.0
C3715 C 0.34049 0.43298 0.07178 0.0
C3716 C 0.32367 0.4424 0.07288 0.0
C3717 C 0.32042 0.45501 0.08684 0.0
C3718 C 0.33118 0.3906 0.04345 0.0
C3719 C 0.34719 0.38914 0.03288 0.0
C3720 C 0.32907 0.40493 0.05586 0.0
C3721 C 0.34297 0.41811 0.05816 0.0
C3722 C 0.35909 0.41668 0.04767 0.0
C3723 C 0.36112 0.40237 0.03499 0.0
H3724 H 0.54324 0.34841 0.09704 0.0
H3725 H 0.57346 0.30158 0.11746 0.0
H3726 H 0.5678 0.35466 0.0753 0.0
H3727 H 0.59785 0.30757 0.09543 0.0
H3728 H 0.64669 0.33901 0.07002 0.0
H3729 H 0.62163 0.3315 0.09072 0.0
H3730 H 0.5824 0.34147 0.04776 0.0
H3731 H 0.60746 0.34913 0.027 0.0
C3732 C 0.5551 0.33942 0.09685 0.0
C3733 C 0.55643 0.32454 0.10904 0.0
C3734 C 0.56909 0.3429 0.08427 0.0
C3735 C 0.58479 0.33164 0.08367 0.0
C3736 C 0.58601 0.3166 0.09568 0.0
C3737 C 0.57195 0.31305 0.10817 0.0
C3738 C 0.63273 0.33957 0.06494 0.0
C3739 C 0.62909 0.34469 0.04684 0.0
C3740 C 0.61838 0.33515 0.0768 0.0
C3741 C 0.60004 0.33586 0.07087 0.0
C3742 C 0.59638 0.34096 0.05277 0.0
C3743 C 0.61075 0.34527 0.04087 0.0
H3744 H 0.68256 0.38628 0.94905 0.0
H3745 H 0.64172 0.41813 0.97786 0.0
H3746 H 0.68728 0.41141 0.92802 0.0
H3747 H 0.64686 0.44393 0.95677 0.0
H3748 H 0.64859 0.47649 0.90187 0.0
H3749 H 0.64285 0.45348 0.92517 0.0
H3750 H 0.70084 0.44118 0.9273 0.0
H3751 H 0.70655 0.46329 0.90333 0.0
C3752 C 0.67463 0.39876 0.95098 0.0
C3753 C 0.66184 0.40026 0.96522 0.0
C3754 C 0.67747 0.41329 0.93896 0.0
C3755 C 0.66773 0.42987 0.94087 0.0
C3756 C 0.6546 0.43132 0.95491 0.0
C3757 C 0.65166 0.4166 0.96699 0.0
C3758 C 0.66018 0.46886 0.90714 0.0
C3759 C 0.67806 0.47164 0.90024 0.0
C3760 C 0.65685 0.45579 0.92076 0.0
C3761 C 0.67132 0.44525 0.92793 0.0
C3762 C 0.68928 0.44873 0.92177 0.0
C3763 C 0.6926 0.46165 0.90808 0.0
H3764 H 0.59957 0.6513 0.99526 0.0
H3765 H 0.63985 0.66021 0.95305 0.0
H3766 H 0.57484 0.6553 0.97268 0.0
H3767 H 0.61542 0.66358 0.93063 0.0
H3768 H 0.5661 0.652 0.89339 0.0
H3769 H 0.5882 0.64333 0.91705 0.0
H3770 H 0.56625 0.68554 0.95225 0.0
H3771 H 0.54429 0.69436 0.92847 0.0
C3772 C 0.60309 0.6537 0.98113 0.0
C3773 C 0.62152 0.65548 0.97583 0.0
C3774 C 0.58902 0.65608 0.96829 0.0
C3775 C 0.59331 0.65973 0.94997 0.0
C3776 C 0.61177 0.66066 0.94463 0.0
C3777 C 0.62572 0.65878 0.95747 0.0
C3778 C 0.56593 0.6593 0.90624 0.0
C3779 C 0.55365 0.67394 0.90908 0.0
C3780 C 0.57852 0.65435 0.91973 0.0
C3781 C 0.57879 0.66371 0.93645 0.0
C3782 C 0.56616 0.678 0.93952 0.0
C3783 C 0.55379 0.68319 0.92588 0.0
H3784 H 0.34845 0.55584 0.91125 0.0
H3785 H 0.30131 0.58339 0.88818 0.0
H3786 H 0.35325 0.58187 0.93184 0.0
H3787 H 0.30594 0.60926 0.90888 0.0
H3788 H 0.33381 0.66003 0.93487 0.0
H3789 H 0.32961 0.63426 0.9139 0.0
H3790 H 0.3362 0.59596 0.95841 0.0
H3791 H 0.34041 0.6216 0.97939 0.0
C3792 C 0.33916 0.56747 0.91057 0.0
C3793 C 0.32447 0.56757 0.89819 0.0
C3794 C 0.34182 0.58228 0.92241 0.0
C3795 C 0.32995 0.59754 0.92192 0.0
C3796 C 0.31536 0.59771 0.90944 0.0
C3797 C 0.3126 0.58283 0.89775 0.0
C3798 C 0.33434 0.64612 0.94018 0.0
C3799 C 0.33739 0.64286 0.95878 0.0
C3800 C 0.33188 0.6314 0.92819 0.0
C3801 C 0.33262 0.61316 0.93456 0.0
C3802 C 0.33575 0.60989 0.95312 0.0
C3803 C 0.33803 0.62459 0.96513 0.0
H3804 H 0.44616 0.30214 0.88201 0.0
H3805 H 0.46181 0.35655 0.89997 0.0
H3806 H 0.42184 0.30149 0.90492 0.0
H3807 H 0.43775 0.35588 0.92287 0.0
H3808 H 0.38231 0.35688 0.95052 0.0
H3809 H 0.40488 0.35684 0.92602 0.0
H3810 H 0.41748 0.29982 0.93745 0.0
H3811 H 0.39461 0.29971 0.96163 0.0
C3812 C 0.44451 0.31389 0.89093 0.0
C3813 C 0.45587 0.32943 0.88908 0.0
C3814 C 0.43057 0.31354 0.90406 0.0
C3815 C 0.42774 0.32869 0.91568 0.0
C3816 C 0.43924 0.34414 0.9139 0.0
C3817 C 0.45309 0.34451 0.90076 0.0
C3818 C 0.38981 0.3443 0.94774 0.0
C3819 C 0.3867 0.32833 0.9581 0.0
C3820 C 0.40283 0.3443 0.93375 0.0
C3821 C 0.41311 0.32836 0.92984 0.0
C3822 C 0.40969 0.31228 0.93995 0.0
C3823 C 0.39662 0.31225 0.95389 0.0
H3824 H 0.5809 0.67194 0.14927 0.0
H3825 H 0.53353 0.67018 0.11383 0.0
H3826 H 0.60042 0.67934 0.12322 0.0
H3827 H 0.55314 0.67747 0.08784 0.0
H3828 H 0.59999 0.66167 0.04679 0.0
H3829 H 0.57852 0.65918 0.07219 0.0
H3830 H 0.60552 0.70469 0.09895 0.0
H3831 H 0.62705 0.7072 0.07326 0.0
C3832 C 0.57463 0.67321 0.13596 0.0
C3833 C 0.55568 0.67031 0.1336 0.0
C3834 C 0.5858 0.67761 0.12109 0.0
C3835 C 0.57828 0.67897 0.10354 0.0
C3836 C 0.55929 0.67641 0.10122 0.0
C3837 C 0.54809 0.67225 0.11611 0.0
C3838 C 0.60121 0.67124 0.05804 0.0
C3839 C 0.61519 0.68456 0.05818 0.0
C3840 C 0.58887 0.6699 0.07249 0.0
C3841 C 0.5904 0.68171 0.08754 0.0
C3842 C 0.60412 0.69536 0.08753 0.0
C3843 C 0.61631 0.69689 0.07285 0.0
H3844 H 0.61117 0.37342 0.94542 0.0
H3845 H 0.60619 0.31467 0.93763 0.0
H3846 H 0.5881 0.37864 0.92185 0.0
H3847 H 0.5828 0.31984 0.91445 0.0
H3848 H 0.55594 0.33574 0.86127 0.0
H3849 H 0.58023 0.33236 0.88364 0.0
H3850 H 0.55448 0.37376 0.9173 0.0
H3851 H 0.53005 0.37736 0.89459 0.0
C3852 C 0.60532 0.36162 0.93854 0.0
C3853 C 0.61058 0.3436 0.94333 0.0
C3854 C 0.59192 0.36462 0.92522 0.0
C3855 C 0.5836 0.34967 0.91632 0.0
C3856 C 0.58907 0.33167 0.92093 0.0
C3857 C 0.60238 0.32869 0.93429 0.0
C3858 C 0.55541 0.34418 0.87341 0.0
C3859 C 0.54098 0.35673 0.87624 0.0
C3860 C 0.56933 0.34217 0.88627 0.0
C3861 C 0.5692 0.35266 0.90231 0.0
C3862 C 0.555 0.36556 0.905 0.0
C3863 C 0.54098 0.36756 0.89207 0.0
H3864 H 0.68848 0.56297 0.86626 0.0
H3865 H 0.63659 0.54592 0.88939 0.0
H3866 H 0.69203 0.58576 0.89024 0.0
H3867 H 0.64021 0.56905 0.91351 0.0
H3868 H 0.70207 0.59679 0.95277 0.0
H3869 H 0.69702 0.57951 0.92462 0.0
H3870 H 0.64389 0.6053 0.91854 0.0
H3871 H 0.64923 0.62285 0.94668 0.0
C3872 C 0.67769 0.56424 0.87634 0.0
C3873 C 0.66233 0.55251 0.87608 0.0
C3874 C 0.67977 0.5773 0.89005 0.0
C3875 C 0.66644 0.57907 0.90369 0.0
C3876 C 0.65061 0.568 0.90301 0.0
C3877 C 0.6486 0.55472 0.88933 0.0
C3878 C 0.68958 0.59907 0.94509 0.0
C3879 C 0.67614 0.6112 0.95161 0.0
C3880 C 0.68665 0.58923 0.92908 0.0
C3881 C 0.67004 0.59108 0.91951 0.0
C3882 C 0.65677 0.60363 0.92574 0.0
C3883 C 0.65989 0.61378 0.94163 0.0
H3884 H 0.38919 0.71075 0.94313 0.0
H3885 H 0.41289 0.67034 0.97923 0.0
H3886 H 0.41323 0.7046 0.92088 0.0
H3887 H 0.4373 0.66443 0.95723 0.0
H3888 H 0.46593 0.64452 0.90469 0.0
H3889 H 0.44279 0.65059 0.92814 0.0
H3890 H 0.44489 0.7087 0.91532 0.0
H3891 H 0.46727 0.70251 0.89164 0.0
C3892 C 0.39976 0.7008 0.94643 0.0
C3893 C 0.39918 0.69104 0.96289 0.0
C3894 C 0.41356 0.69724 0.93369 0.0
C3895 C 0.42725 0.68399 0.93723 0.0
C3896 C 0.42682 0.67447 0.95389 0.0
C3897 C 0.4129 0.67792 0.96654 0.0
C3898 C 0.46144 0.65856 0.90701 0.0
C3899 C 0.46825 0.67301 0.89627 0.0
C3900 C 0.44826 0.66208 0.92047 0.0
C3901 C 0.44182 0.68014 0.92353 0.0
C3902 C 0.44914 0.69458 0.91307 0.0
C3903 C 0.46208 0.69104 0.89955 0.0
H3904 H 0.35157 0.46874 0.88829 0.0
H3905 H 0.29225 0.46693 0.88694 0.0
H3906 H 0.35183 0.44321 0.90986 0.0
H3907 H 0.29252 0.44105 0.90795 0.0
H3908 H 0.3465 0.38648 0.93613 0.0
H3909 H 0.3462 0.41096 0.91334 0.0
H3910 H 0.29833 0.43471 0.93909 0.0
H3911 H 0.29848 0.41007 0.96152 0.0
C3912 C 0.33859 0.46279 0.89247 0.0
C3913 C 0.32189 0.46997 0.886 0.0
C3914 C 0.33874 0.44806 0.90475 0.0
C3915 C 0.32219 0.44009 0.91075 0.0
C3916 C 0.30552 0.44706 0.90394 0.0
C3917 C 0.30537 0.46186 0.89179 0.0
C3918 C 0.33594 0.39696 0.93689 0.0
C3919 C 0.32248 0.39631 0.95059 0.0
C3920 C 0.33579 0.41103 0.92387 0.0
C3921 C 0.32223 0.42485 0.92433 0.0
C3922 C 0.30876 0.42413 0.93806 0.0
C3923 C 0.30885 0.41 0.95096 0.0
H3924 H 0.48008 0.36938 0.10798 0.0
H3925 H 0.46322 0.31436 0.123 0.0
H3926 H 0.45928 0.3683 0.08168 0.0
H3927 H 0.44264 0.31334 0.09706 0.0
H3928 H 0.40008 0.36301 0.05398 0.0
H3929 H 0.42459 0.36675 0.07646 0.0
H3930 H 0.44499 0.31247 0.06334 0.0
H3931 H 0.42062 0.30878 0.04093 0.0
C3932 C 0.47202 0.35707 0.10562 0.0
C3933 C 0.47325 0.34195 0.1175 0.0
C3934 C 0.46011 0.35649 0.09065 0.0
C3935 C 0.44949 0.34068 0.08726 0.0
C3936 C 0.45088 0.32559 0.09914 0.0
C3937 C 0.46258 0.32623 0.11409 0.0
C3938 C 0.41004 0.35206 0.05564 0.0
C3939 C 0.40825 0.33546 0.04594 0.0
C3940 C 0.42407 0.35421 0.06848 0.0
C3941 C 0.4365 0.33978 0.0718 0.0
C3942 C 0.43535 0.32366 0.0613 0.0
C3943 C 0.42138 0.32153 0.04853 0.0
H3944 H 0.65144 0.39298 0.06174 0.0
H3945 H 0.69431 0.4289 0.04219 0.0
H3946 H 0.6446 0.41472 0.08629 0.0
H3947 H 0.68722 0.45093 0.06667 0.0
H3948 H 0.65176 0.492 0.10314 0.0
H3949 H 0.65652 0.47118 0.07709 0.0
H3950 H 0.66612 0.42603 0.1141 0.0
H3951 H 0.66191 0.44678 0.13997 0.0
C3952 C 0.65927 0.40563 0.06264 0.0
C3953 C 0.67341 0.40931 0.05014 0.0
C3954 C 0.65538 0.41801 0.07666 0.0
C3955 C 0.66531 0.4345 0.07823 0.0
C3956 C 0.67928 0.43836 0.06559 0.0
C3957 C 0.68344 0.42574 0.05175 0.0
C3958 C 0.65465 0.47757 0.10562 0.0
C3959 C 0.65645 0.47092 0.12347 0.0
C3960 C 0.65752 0.46575 0.09079 0.0
C3961 C 0.66173 0.44707 0.09368 0.0
C3962 C 0.66285 0.44036 0.11155 0.0
C3963 C 0.66046 0.45222 0.1263 0.0
H3964 H 0.36528 0.53672 0.10342 0.0
H3965 H 0.31765 0.55529 0.13335 0.0
H3966 H 0.3605 0.56151 0.08127 0.0
H3967 H 0.31319 0.5801 0.11172 0.0
H3968 H 0.29858 0.61093 0.06022 0.0
H3969 H 0.30366 0.58523 0.08094 0.0
H3970 H 0.36218 0.59477 0.07854 0.0
H3971 H 0.35722 0.61978 0.05718 0.0
C3972 C 0.35387 0.54611 0.1053 0.0
C3973 C 0.34182 0.54401 0.12007 0.0
C3974 C 0.35116 0.56035 0.09269 0.0
C3975 C 0.33638 0.57274 0.09467 0.0
C3976 C 0.32448 0.57062 0.10955 0.0
C3977 C 0.32713 0.55643 0.12205 0.0
C3978 C 0.31253 0.60748 0.06401 0.0
C3979 C 0.32743 0.61758 0.05708 0.0
C3980 C 0.31545 0.59283 0.07602 0.0
C3981 C 0.33335 0.58796 0.08145 0.0
C3982 C 0.34825 0.59802 0.0745 0.0
C3983 C 0.34533 0.61262 0.06246 0.0
loop_
_geom_bond_atom_site_label_1
_geom_bond_atom_site_label_2
_geom_bond_distance
_geom_bond_site_symmetry_2
_ccdc_geom_bond_type
Co0 N4 2.148 1_455 S
Co0 N10 2.128 . S
Co0 N20 2.194 . S
Co0 O25 2.351 1_455 S
Co0 O26 2.155 1_455 S
Co0 O27 2.096 . S
C1 N4 1.301 . S
C1 N5 1.328 . S
C1 H6 0.930 . S
C2 C3 1.333 . S
C2 N4 1.317 . S
C2 H7 0.973 . S
C3 C2 1.333 . S
C3 N5 1.350 . S
C3 H29 0.931 . S
N4 Co0 2.148 1_655 S
N4 C1 1.301 . S
N4 C2 1.317 . S
N5 C1 1.328 . S
N5 C3 1.350 . S
H6 C1 0.930 . S
H7 C2 0.973 . S
C8 O9 1.224 . S
C8 O27 1.247 . S
O9 C8 1.224 . S
N10 Co0 2.128 . S
N10 C11 1.355 . S
N10 C13 1.311 . S
C11 N10 1.355 . S
C11 C12 1.363 . S
C11 H23 0.929 . S
C12 C11 1.363 . S
C12 N14 1.375 . S
C12 H30 0.931 . S
C13 N10 1.311 . S
C13 N14 1.347 . S
C13 H24 0.929 . S
N14 C12 1.375 . S
N14 C13 1.347 . S
C15 C18 1.365 . S
C15 N20 1.328 1_655 S
C15 H21 0.929 . S
C16 C17 1.362 . S
C16 C19 1.378 . S
C16 H31 0.929 . S
C17 C16 1.362 . S
C17 C18 1.366 1_455 S
C18 C15 1.365 . S
C18 C17 1.366 1_655 S
C18 H32 0.930 . S
C19 C16 1.378 . S
C19 N20 1.315 . S
C19 H22 0.930 . S
N20 Co0 2.194 . S
N20 C15 1.328 1_455 S
N20 C19 1.315 . S
H21 C15 0.929 . S
H22 C19 0.930 . S
H23 C11 0.929 . S
H24 C13 0.929 . S
O25 Co0 2.351 1_655 S
O25 C28 1.244 . S
O26 Co0 2.155 1_655 S
O26 C28 1.240 . S
O27 Co0 2.096 . S
O27 C8 1.247 . S
C28 O25 1.244 . S
C28 O26 1.240 . S
H29 C3 0.931 . S
H30 C12 0.931 . S
H31 C16 0.929 . S
H32 C18 0.930 . S
Co33 N37 2.148 . S
Co33 N43 2.128 1_545 S
Co33 N53 2.194 . S
Co33 O58 2.351 . S
Co33 O59 2.155 . S
Co33 O60 2.096 1_545 S
C34 N37 1.301 . S
C34 N38 1.328 . S
C34 H39 0.930 . S
C35 C36 1.333 . S
C35 N37 1.317 . S
C35 H40 0.930 . S
C36 C35 1.333 . S
C36 N38 1.350 . S
C36 H62 0.931 . S
N37 Co33 2.148 . S
N37 C34 1.301 . S
N37 C35 1.317 . S
N38 C34 1.328 . S
N38 C36 1.350 . S
H39 C34 0.930 . S
H40 C35 0.930 . S
C41 O42 1.224 . S
C41 O60 1.247 . S
O42 C41 1.224 . S
N43 Co33 2.128 1_565 S
N43 C44 1.355 . S
N43 C46 1.311 . S
C44 N43 1.355 . S
C44 C45 1.363 . S
C44 H56 0.913 1_565 S
C45 C44 1.363 . S
C45 N47 1.375 . S
C45 H63 0.931 . S
C46 N43 1.311 . S
C46 N47 1.347 . S
C46 H57 0.929 . S
N47 C45 1.375 . S
N47 C46 1.347 . S
C48 C51 1.365 . S
C48 N53 1.328 . S
C48 H54 0.929 . S
C49 C50 1.362 1_565 S
C49 C52 1.378 . S
C49 H64 0.929 . S
C50 C49 1.362 1_545 S
C50 C51 1.366 . S
C51 C48 1.365 . S
C51 C50 1.366 . S
C51 H65 0.930 . S
C52 C49 1.378 . S
C52 N53 1.315 1_565 S
C52 H55 0.930 . S
N53 Co33 2.194 . S
N53 C48 1.328 . S
N53 C52 1.315 1_545 S
H54 C48 0.929 . S
H55 C52 0.930 . S
H56 C44 0.913 1_545 S
H57 C46 0.929 . S
O58 Co33 2.351 . S
O58 C61 1.244 . S
O59 Co33 2.155 . S
O59 C61 1.240 . S
O60 Co33 2.096 1_565 S
O60 C41 1.247 . S
C61 O58 1.244 . S
C61 O59 1.240 . S
H62 C36 0.931 . S
H63 C45 0.931 . S
H64 C49 0.929 . S
H65 C51 0.930 . S
Co66 N70 2.121 1_455 S
Co66 N76 2.157 . S
Co66 N86 2.191 1_455 S
Co66 O91 2.318 1_455 S
Co66 O92 2.136 1_455 S
Co66 O93 2.122 . S
C67 N70 1.301 . S
C67 N71 1.328 . S
C67 H72 0.930 . S
C68 C69 1.333 . S
C68 N70 1.317 . S
C68 H73 0.930 . S
C69 C68 1.333 . S
C69 N71 1.350 . S
C69 H95 0.931 . S
N70 Co66 2.121 1_655 S
N70 C67 1.301 . S
N70 C68 1.317 . S
N71 C67 1.328 . S
N71 C69 1.350 . S
H72 C67 0.930 . S
H73 C68 0.930 . S
C74 O75 1.224 . S
C74 O93 1.247 . S
O75 C74 1.224 . S
N76 Co66 2.157 . S
N76 C77 1.355 . S
N76 C79 1.311 . S
C77 N76 1.355 . S
C77 C78 1.363 . S
C77 H89 0.929 . S
C78 C77 1.363 . S
C78 N80 1.375 . S
C78 H96 0.931 . S
C79 N76 1.311 . S
C79 N80 1.347 . S
C79 H90 0.929 . S
N80 C78 1.375 . S
N80 C79 1.347 . S
C81 C84 1.365 . S
C81 N86 1.364 . S
C81 H87 0.929 . S
C82 C83 1.388 . S
C82 C85 1.378 . S
C82 H97 0.929 . S
C83 C82 1.388 . S
C83 C84 1.339 1_455 S
C84 C81 1.365 . S
C84 C83 1.339 1_655 S
C84 H98 0.930 . S
C85 C82 1.378 . S
C85 N86 1.280 1_455 S
C85 H88 0.930 . S
N86 Co66 2.191 1_655 S
N86 C81 1.364 . S
N86 C85 1.280 1_655 S
H87 C81 0.929 . S
H88 C85 0.930 . S
H89 C77 0.929 . S
H90 C79 0.929 . S
O91 Co66 2.318 1_655 S
O91 C94 1.244 . S
O92 Co66 2.136 1_655 S
O92 C94 1.240 . S
O93 Co66 2.122 . S
O93 C74 1.247 . S
C94 O91 1.244 . S
C94 O92 1.240 . S
H95 C69 0.931 . S
H96 C78 0.931 . S
H97 C82 0.929 . S
H98 C84 0.930 . S
Co99 N103 2.148 1_545 S
Co99 N109 2.128 . S
Co99 N119 2.194 . S
Co99 O124 2.351 1_545 S
Co99 O125 2.155 1_545 S
Co99 O126 2.096 . S
C100 N103 1.301 . S
C100 N104 1.328 . S
C100 H105 0.930 . S
C101 C102 1.333 . S
C101 N103 1.317 . S
C101 H106 0.930 1_565 S
C102 C101 1.333 . S
C102 N104 1.350 . S
C102 H128 0.931 . S
N103 Co99 2.148 1_565 S
N103 C100 1.301 . S
N103 C101 1.317 . S
N104 C100 1.328 . S
N104 C102 1.350 . S
H105 C100 0.930 . S
H106 C101 0.930 1_545 S
C107 O108 1.224 . S
C107 O126 1.247 . S
O108 C107 1.224 . S
N109 Co99 2.128 . S
N109 C110 1.355 . S
N109 C112 1.311 . S
C110 N109 1.355 . S
C110 C111 1.363 . S
C110 H122 0.929 . S
C111 C110 1.363 . S
C111 N113 1.375 . S
C111 H129 0.931 . S
C112 N109 1.311 . S
C112 N113 1.347 . S
C112 H123 0.929 . S
N113 C111 1.375 . S
N113 C112 1.347 . S
C114 C117 1.365 . S
C114 N119 1.328 1_565 S
C114 H120 0.929 . S
C115 C116 1.362 . S
C115 C118 1.378 . S
C115 H130 0.929 . S
C116 C115 1.362 . S
C116 C117 1.366 1_545 S
C117 C114 1.365 . S
C117 C116 1.366 1_565 S
C117 H131 0.930 . S
C118 C115 1.378 . S
C118 N119 1.315 . S
C118 H121 0.930 . S
N119 Co99 2.194 . S
N119 C114 1.328 1_545 S
N119 C118 1.315 . S
H120 C114 0.929 . S
H121 C118 0.930 . S
H122 C110 0.929 . S
H123 C112 0.929 . S
O124 Co99 2.351 1_565 S
O124 C127 1.244 . S
O125 Co99 2.155 1_565 S
O125 C127 1.240 . S
O126 Co99 2.096 . S
O126 C107 1.247 . S
C127 O124 1.244 . S
C127 O125 1.240 . S
H128 C102 0.931 . S
H129 C111 0.931 . S
H130 C115 0.929 . S
H131 C117 0.930 . S
Co132 N136 2.148 . S
Co132 N142 2.128 1_455 S
Co132 N152 2.194 . S
Co132 O157 2.351 . S
Co132 O158 2.155 . S
Co132 O159 2.096 1_455 S
C133 N136 1.301 . S
C133 N137 1.328 . S
C133 H138 0.930 . S
C134 C135 1.333 . S
C134 N136 1.317 . S
C134 H139 0.930 . S
C135 C134 1.333 . S
C135 N137 1.350 . S
C135 H161 0.931 . S
N136 Co132 2.148 . S
N136 C133 1.301 . S
N136 C134 1.317 . S
N137 C133 1.328 . S
N137 C135 1.350 . S
H138 C133 0.930 . S
H139 C134 0.930 . S
C140 O141 1.224 . S
C140 O159 1.247 . S
O141 C140 1.224 . S
N142 Co132 2.128 1_655 S
N142 C143 1.355 . S
N142 C145 1.311 . S
C143 N142 1.355 . S
C143 C144 1.363 . S
C143 H155 0.929 . S
C144 C143 1.363 . S
C144 N146 1.375 . S
C144 H162 0.931 . S
C145 N142 1.311 . S
C145 N146 1.347 . S
C145 H156 0.929 . S
N146 C144 1.375 . S
N146 C145 1.347 . S
C147 C150 1.365 . S
C147 N152 1.328 . S
C147 H153 0.929 . S
C148 C149 1.362 1_655 S
C148 C151 1.378 . S
C148 H163 0.929 . S
C149 C148 1.362 1_455 S
C149 C150 1.366 . S
C150 C147 1.365 . S
C150 C149 1.366 . S
C150 H164 0.930 . S
C151 C148 1.378 . S
C151 N152 1.315 1_655 S
C151 H154 0.930 . S
N152 Co132 2.194 . S
N152 C147 1.328 . S
N152 C151 1.315 1_455 S
H153 C147 0.929 . S
H154 C151 0.930 . S
H155 C143 0.929 . S
H156 C145 0.929 . S
O157 Co132 2.351 . S
O157 C160 1.244 . S
O158 Co132 2.155 . S
O158 C160 1.240 . S
O159 Co132 2.096 1_655 S
O159 C140 1.247 . S
C160 O157 1.244 . S
C160 O158 1.240 . S
H161 C135 0.931 . S
H162 C144 0.931 . S
H163 C148 0.929 . S
H164 C150 0.930 . S
Co165 N169 2.148 . S
Co165 N175 2.128 1_545 S
Co165 N185 2.194 . S
Co165 O190 2.351 . S
Co165 O191 2.155 . S
Co165 O192 2.096 1_545 S
C166 N169 1.301 . S
C166 N170 1.328 . S
C166 H171 0.930 . S
C167 C168 1.333 . S
C167 N169 1.317 . S
C167 H172 0.930 . S
C168 C167 1.333 . S
C168 N170 1.350 . S
C168 H194 0.931 . S
N169 Co165 2.148 . S
N169 C166 1.301 . S
N169 C167 1.317 . S
N170 C166 1.328 . S
N170 C168 1.350 . S
H171 C166 0.930 . S
H172 C167 0.930 . S
C173 O174 1.224 . S
C173 O192 1.247 . S
O174 C173 1.224 . S
N175 Co165 2.128 1_565 S
N175 C176 1.355 . S
N175 C178 1.311 . S
C176 N175 1.355 . S
C176 C177 1.363 . S
C176 H188 0.909 1_565 S
C177 C176 1.363 . S
C177 N179 1.375 . S
C177 H195 0.931 . S
C178 N175 1.311 . S
C178 N179 1.347 . S
C178 H189 0.929 . S
N179 C177 1.375 . S
N179 C178 1.347 . S
C180 C183 1.365 . S
C180 N185 1.328 . S
C180 H186 0.929 . S
C181 C182 1.362 1_565 S
C181 C184 1.378 . S
C181 H196 0.929 . S
C182 C181 1.362 1_545 S
C182 C183 1.366 . S
C183 C180 1.365 . S
C183 C182 1.366 . S
C183 H197 0.930 . S
C184 C181 1.378 . S
C184 N185 1.315 1_565 S
C184 H187 0.930 . S
N185 Co165 2.194 . S
N185 C180 1.328 . S
N185 C184 1.315 1_545 S
H186 C180 0.929 . S
H187 C184 0.930 . S
H188 C176 0.909 1_545 S
H189 C178 0.929 . S
O190 Co165 2.351 . S
O190 C193 1.244 . S
O191 Co165 2.155 . S
O191 C193 1.240 . S
O192 Co165 2.096 1_565 S
O192 C173 1.247 . S
C193 O190 1.244 . S
C193 O191 1.240 . S
H194 C168 0.931 . S
H195 C177 0.931 . S
H196 C181 0.929 . S
H197 C183 0.930 . S
Co198 N202 2.148 1_455 S
Co198 N208 2.128 . S
Co198 N218 2.194 . S
Co198 O223 2.351 1_455 S
Co198 O224 2.155 1_455 S
Co198 O225 2.096 . S
C199 N202 1.301 . S
C199 N203 1.328 . S
C199 H204 0.930 . S
C200 C201 1.333 . S
C200 N202 1.317 . S
C200 H205 0.930 . S
C201 C200 1.333 . S
C201 N203 1.350 . S
C201 H227 0.931 . S
N202 Co198 2.148 1_655 S
N202 C199 1.301 . S
N202 C200 1.317 . S
N203 C199 1.328 . S
N203 C201 1.350 . S
H204 C199 0.930 . S
H205 C200 0.930 . S
C206 O207 1.224 . S
C206 O225 1.247 . S
O207 C206 1.224 . S
N208 Co198 2.128 . S
N208 C209 1.355 . S
N208 C211 1.311 . S
C209 N208 1.355 . S
C209 C210 1.363 . S
C209 H221 0.929 . S
C210 C209 1.363 . S
C210 N212 1.375 . S
C210 H228 0.931 . S
C211 N208 1.311 . S
C211 N212 1.347 . S
C211 H222 0.929 . S
N212 C210 1.375 . S
N212 C211 1.347 . S
C213 C216 1.365 . S
C213 N218 1.328 1_655 S
C213 H219 0.929 . S
C214 C215 1.362 . S
C214 C217 1.378 . S
C214 H229 0.929 . S
C215 C214 1.362 . S
C215 C216 1.366 1_455 S
C216 C213 1.365 . S
C216 C215 1.366 1_655 S
C216 H230 0.930 . S
C217 C214 1.378 . S
C217 N218 1.315 . S
C217 H220 0.930 . S
N218 Co198 2.194 . S
N218 C213 1.328 1_455 S
N218 C217 1.315 . S
H219 C213 0.929 . S
H220 C217 0.930 . S
H221 C209 0.929 . S
H222 C211 0.929 . S
O223 Co198 2.351 1_655 S
O223 C226 1.244 . S
O224 Co198 2.155 1_655 S
O224 C226 1.240 . S
O225 Co198 2.096 . S
O225 C206 1.247 . S
C226 O223 1.244 . S
C226 O224 1.240 . S
H227 C201 0.931 . S
H228 C210 0.931 . S
H229 C214 0.929 . S
H230 C216 0.930 . S
Co231 N235 2.148 . S
Co231 N241 2.128 1_545 S
Co231 N251 2.194 . S
Co231 O256 2.351 . S
Co231 O257 2.155 . S
Co231 O258 2.096 1_545 S
C232 N235 1.301 . S
C232 N236 1.328 . S
C232 H237 0.930 . S
C233 C234 1.333 . S
C233 N235 1.317 . S
C233 H238 0.930 . S
C234 C233 1.333 . S
C234 N236 1.350 . S
C234 H260 0.931 . S
N235 Co231 2.148 . S
N235 C232 1.301 . S
N235 C233 1.317 . S
N236 C232 1.328 . S
N236 C234 1.350 . S
H237 C232 0.930 . S
H238 C233 0.930 . S
C239 O240 1.224 . S
C239 O258 1.247 . S
O240 C239 1.224 . S
N241 Co231 2.128 1_565 S
N241 C242 1.355 . S
N241 C244 1.311 . S
C242 N241 1.355 . S
C242 C243 1.363 . S
C242 H254 0.883 1_565 S
C243 C242 1.363 . S
C243 N245 1.375 . S
C243 H261 0.931 . S
C244 N241 1.311 . S
C244 N245 1.347 . S
C244 H255 0.929 . S
N245 C243 1.375 . S
N245 C244 1.347 . S
C246 C249 1.365 . S
C246 N251 1.328 . S
C246 H252 0.929 . S
C247 C248 1.362 1_565 S
C247 C250 1.378 . S
C247 H262 0.929 . S
C248 C247 1.362 1_545 S
C248 C249 1.366 . S
C249 C246 1.365 . S
C249 C248 1.366 . S
C249 H263 0.930 . S
C250 C247 1.378 . S
C250 N251 1.315 1_565 S
C250 H253 0.930 . S
N251 Co231 2.194 . S
N251 C246 1.328 . S
N251 C250 1.315 1_545 S
H252 C246 0.929 . S
H253 C250 0.930 . S
H254 C242 0.883 1_545 S
H255 C244 0.929 . S
O256 Co231 2.351 . S
O256 C259 1.244 . S
O257 Co231 2.155 . S
O257 C259 1.240 . S
O258 Co231 2.096 1_565 S
O258 C239 1.247 . S
C259 O256 1.244 . S
C259 O257 1.240 . S
H260 C234 0.931 . S
H261 C243 0.931 . S
H262 C247 0.929 . S
H263 C249 0.930 . S
Co264 N268 2.148 1_554 S
Co264 N274 2.128 . S
Co264 N284 2.194 . S
Co264 O289 2.351 1_554 S
Co264 O290 2.155 1_554 S
Co264 O291 2.096 . S
C265 N268 1.301 . S
C265 N269 1.328 . S
C265 H270 0.930 . S
C266 C267 1.333 . S
C266 N268 1.317 . S
C266 H271 0.930 1_556 S
C267 C266 1.333 . S
C267 N269 1.350 . S
C267 H293 0.931 . S
N268 Co264 2.148 1_556 S
N268 C265 1.301 . S
N268 C266 1.317 . S
N269 C265 1.328 . S
N269 C267 1.350 . S
H270 C265 0.930 . S
H271 C266 0.930 1_554 S
C272 O273 1.224 . S
C272 O291 1.247 . S
O273 C272 1.224 . S
N274 Co264 2.128 . S
N274 C275 1.355 . S
N274 C277 1.311 . S
C275 N274 1.355 . S
C275 C276 1.363 . S
C275 H287 0.929 . S
C276 C275 1.363 . S
C276 N278 1.375 . S
C276 H294 0.931 . S
C277 N274 1.311 . S
C277 N278 1.347 . S
C277 H288 0.929 . S
N278 C276 1.375 . S
N278 C277 1.347 . S
C279 C282 1.365 . S
C279 N284 1.328 1_556 S
C279 H285 0.929 . S
C280 C281 1.362 . S
C280 C283 1.378 . S
C280 H295 0.929 . S
C281 C280 1.362 . S
C281 C282 1.366 1_554 S
C282 C279 1.365 . S
C282 C281 1.366 1_556 S
C282 H296 0.930 . S
C283 C280 1.378 . S
C283 N284 1.315 . S
C283 H286 0.930 . S
N284 Co264 2.194 . S
N284 C279 1.328 1_554 S
N284 C283 1.315 . S
H285 C279 0.929 . S
H286 C283 0.930 . S
H287 C275 0.929 . S
H288 C277 0.929 . S
O289 Co264 2.351 1_556 S
O289 C292 1.244 . S
O290 Co264 2.155 1_556 S
O290 C292 1.240 . S
O291 Co264 2.096 . S
O291 C272 1.247 . S
C292 O289 1.244 . S
C292 O290 1.240 . S
H293 C267 0.931 . S
H294 C276 0.931 . S
H295 C280 0.929 . S
H296 C282 0.930 . S
Co297 N301 2.148 . S
Co297 N307 2.128 1_554 S
Co297 N317 2.194 . S
Co297 O322 2.351 . S
Co297 O323 2.155 . S
Co297 O324 2.096 1_554 S
C298 N301 1.301 . S
C298 N302 1.328 . S
C298 H303 0.930 . S
C299 C300 1.333 . S
C299 N301 1.317 . S
C299 H304 0.930 . S
C300 C299 1.333 . S
C300 N302 1.350 . S
C300 H326 0.931 . S
N301 Co297 2.148 . S
N301 C298 1.301 . S
N301 C299 1.317 . S
N302 C298 1.328 . S
N302 C300 1.350 . S
H303 C298 0.930 . S
H304 C299 0.930 . S
C305 O306 1.224 . S
C305 O324 1.247 . S
O306 C305 1.224 . S
N307 Co297 2.128 1_556 S
N307 C308 1.355 . S
N307 C310 1.311 . S
C308 N307 1.355 . S
C308 C309 1.363 . S
C308 H320 0.929 . S
C309 C308 1.363 . S
C309 N311 1.375 . S
C309 H327 0.931 . S
C310 N307 1.311 . S
C310 N311 1.347 . S
C310 H321 0.929 . S
N311 C309 1.375 . S
N311 C310 1.347 . S
C312 C315 1.365 . S
C312 N317 1.328 . S
C312 H318 0.929 . S
C313 C314 1.362 1_556 S
C313 C316 1.378 . S
C313 H328 0.929 . S
C314 C313 1.362 1_554 S
C314 C315 1.366 . S
C315 C312 1.365 . S
C315 C314 1.366 . S
C315 H329 0.930 . S
C316 C313 1.378 . S
C316 N317 1.315 1_556 S
C316 H319 0.930 . S
N317 Co297 2.194 . S
N317 C312 1.328 . S
N317 C316 1.315 1_554 S
H318 C312 0.929 . S
H319 C316 0.930 . S
H320 C308 0.929 . S
H321 C310 0.929 . S
O322 Co297 2.351 . S
O322 C325 1.244 . S
O323 Co297 2.155 . S
O323 C325 1.240 . S
O324 Co297 2.096 1_556 S
O324 C305 1.247 . S
C325 O322 1.244 . S
C325 O323 1.240 . S
H326 C300 0.931 . S
H327 C309 0.931 . S
H328 C313 0.929 . S
H329 C315 0.930 . S
Co330 N334 2.148 . S
Co330 N340 2.128 1_554 S
Co330 N350 2.194 . S
Co330 O355 2.351 . S
Co330 O356 2.155 . S
Co330 O357 2.096 1_554 S
C331 N334 1.301 . S
C331 N335 1.328 . S
C331 H336 0.930 . S
C332 C333 1.333 . S
C332 N334 1.317 . S
C332 H337 0.930 . S
C333 C332 1.333 . S
C333 N335 1.350 . S
C333 H359 0.931 . S
N334 Co330 2.148 . S
N334 C331 1.301 . S
N334 C332 1.317 . S
N335 C331 1.328 . S
N335 C333 1.350 . S
H336 C331 0.930 . S
H337 C332 0.930 . S
C338 O339 1.224 . S
C338 O357 1.247 . S
O339 C338 1.224 . S
N340 Co330 2.128 1_556 S
N340 C341 1.355 . S
N340 C343 1.311 . S
C341 N340 1.355 . S
C341 C342 1.363 . S
C341 H353 0.929 . S
C342 C341 1.363 . S
C342 N344 1.375 . S
C342 H360 0.931 . S
C343 N340 1.311 . S
C343 N344 1.347 . S
C343 H354 0.929 . S
N344 C342 1.375 . S
N344 C343 1.347 . S
C345 C348 1.365 . S
C345 N350 1.328 . S
C345 H351 0.929 . S
C346 C347 1.362 1_556 S
C346 C349 1.378 . S
C346 H361 0.929 . S
C347 C346 1.362 1_554 S
C347 C348 1.366 . S
C348 C345 1.365 . S
C348 C347 1.366 . S
C348 H362 0.930 . S
C349 C346 1.378 . S
C349 N350 1.315 1_556 S
C349 H352 0.930 . S
N350 Co330 2.194 . S
N350 C345 1.328 . S
N350 C349 1.315 1_554 S
H351 C345 0.929 . S
H352 C349 0.930 . S
H353 C341 0.929 . S
H354 C343 0.929 . S
O355 Co330 2.351 . S
O355 C358 1.244 . S
O356 Co330 2.155 . S
O356 C358 1.240 . S
O357 Co330 2.096 1_556 S
O357 C338 1.247 . S
C358 O355 1.244 . S
C358 O356 1.240 . S
H359 C333 0.931 . S
H360 C342 0.931 . S
H361 C346 0.929 . S
H362 C348 0.930 . S
Co363 N367 2.148 . S
Co363 N373 2.128 1_554 S
Co363 N383 2.194 . S
Co363 O388 2.351 . S
Co363 O389 2.155 . S
Co363 O390 2.096 1_554 S
C364 N367 1.301 . S
C364 N368 1.328 . S
C364 H369 0.930 . S
C365 C366 1.333 . S
C365 N367 1.317 . S
C365 H370 0.930 . S
C366 C365 1.333 . S
C366 N368 1.350 . S
C366 H392 0.931 . S
N367 Co363 2.148 . S
N367 C364 1.301 . S
N367 C365 1.317 . S
N368 C364 1.328 . S
N368 C366 1.350 . S
H369 C364 0.930 . S
H370 C365 0.930 . S
C371 O372 1.224 . S
C371 O390 1.247 . S
O372 C371 1.224 . S
N373 Co363 2.128 1_556 S
N373 C374 1.355 . S
N373 C376 1.311 . S
C374 N373 1.355 . S
C374 C375 1.363 . S
C374 H386 0.929 . S
C375 C374 1.363 . S
C375 N377 1.375 . S
C375 H393 0.931 . S
C376 N373 1.311 . S
C376 N377 1.347 . S
C376 H387 0.929 . S
N377 C375 1.375 . S
N377 C376 1.347 . S
C378 C381 1.365 . S
C378 N383 1.328 . S
C378 H384 0.929 . S
C379 C380 1.362 1_556 S
C379 C382 1.378 . S
C379 H394 0.929 . S
C380 C379 1.362 1_554 S
C380 C381 1.366 . S
C381 C378 1.365 . S
C381 C380 1.366 . S
C381 H395 0.930 . S
C382 C379 1.378 . S
C382 N383 1.315 1_556 S
C382 H385 0.930 . S
N383 Co363 2.194 . S
N383 C378 1.328 . S
N383 C382 1.315 1_554 S
H384 C378 0.929 . S
H385 C382 0.930 . S
H386 C374 0.929 . S
H387 C376 0.929 . S
O388 Co363 2.351 . S
O388 C391 1.244 . S
O389 Co363 2.155 . S
O389 C391 1.240 . S
O390 Co363 2.096 1_556 S
O390 C371 1.247 . S
C391 O388 1.244 . S
C391 O389 1.240 . S
H392 C366 0.931 . S
H393 C375 0.931 . S
H394 C379 0.929 . S
H395 C381 0.930 . S
Co396 N400 2.148 1_455 S
Co396 N406 2.128 . S
Co396 N416 2.194 . S
Co396 O421 2.351 1_455 S
Co396 O422 2.155 1_455 S
Co396 O423 2.096 . S
C397 N400 1.301 . S
C397 N401 1.328 . S
C397 H402 0.930 . S
C398 C399 1.333 . S
C398 N400 1.317 . S
C398 H403 0.981 . S
C399 C398 1.333 . S
C399 N401 1.350 . S
C399 H425 0.931 . S
N400 Co396 2.148 1_655 S
N400 C397 1.301 . S
N400 C398 1.317 . S
N401 C397 1.328 . S
N401 C399 1.350 . S
H402 C397 0.930 . S
H403 C398 0.981 . S
C404 O405 1.224 . S
C404 O423 1.247 . S
O405 C404 1.224 . S
N406 Co396 2.128 . S
N406 C407 1.355 . S
N406 C409 1.311 . S
C407 N406 1.355 . S
C407 C408 1.363 . S
C407 H419 0.929 . S
C408 C407 1.363 . S
C408 N410 1.375 . S
C408 H426 0.931 . S
C409 N406 1.311 . S
C409 N410 1.347 . S
C409 H420 0.929 . S
N410 C408 1.375 . S
N410 C409 1.347 . S
C411 C414 1.365 . S
C411 N416 1.328 1_655 S
C411 H417 0.929 . S
C412 C413 1.362 . S
C412 C415 1.378 . S
C412 H427 0.929 . S
C413 C412 1.362 . S
C413 C414 1.366 1_455 S
C414 C411 1.365 . S
C414 C413 1.366 1_655 S
C414 H428 0.930 . S
C415 C412 1.378 . S
C415 N416 1.315 . S
C415 H418 0.930 . S
N416 Co396 2.194 . S
N416 C411 1.328 1_455 S
N416 C415 1.315 . S
H417 C411 0.929 . S
H418 C415 0.930 . S
H419 C407 0.929 . S
H420 C409 0.929 . S
O421 Co396 2.351 1_655 S
O421 C424 1.244 . S
O422 Co396 2.155 1_655 S
O422 C424 1.240 . S
O423 Co396 2.096 . S
O423 C404 1.247 . S
C424 O421 1.244 . S
C424 O422 1.240 . S
H425 C399 0.931 . S
H426 C408 0.931 . S
H427 C412 0.929 . S
H428 C414 0.930 . S
Co429 N433 2.148 . S
Co429 N439 2.128 . S
Co429 N449 2.194 . S
Co429 O454 2.351 . S
Co429 O455 2.155 . S
Co429 O456 2.096 . S
C430 N433 1.301 . S
C430 N434 1.328 . S
C430 H435 0.930 . S
C431 C432 1.333 . S
C431 N433 1.317 . S
C431 H436 0.930 . S
C432 C431 1.333 . S
C432 N434 1.350 . S
C432 H458 0.931 . S
N433 Co429 2.148 . S
N433 C430 1.301 . S
N433 C431 1.317 . S
N434 C430 1.328 . S
N434 C432 1.350 . S
H435 C430 0.930 . S
H436 C431 0.930 . S
C437 O438 1.224 . S
C437 O456 1.247 . S
O438 C437 1.224 . S
N439 Co429 2.128 . S
N439 C440 1.355 . S
N439 C442 1.311 . S
C440 N439 1.355 . S
C440 C441 1.363 . S
C440 H452 0.929 . S
C441 C440 1.363 . S
C441 N443 1.375 . S
C441 H459 0.931 . S
C442 N439 1.311 . S
C442 N443 1.347 . S
C442 H453 0.929 . S
N443 C441 1.375 . S
N443 C442 1.347 . S
C444 C447 1.365 . S
C444 N449 1.328 . S
C444 H450 0.929 . S
C445 C446 1.362 . S
C445 C448 1.378 . S
C445 H460 0.929 . S
C446 C445 1.362 . S
C446 C447 1.366 . S
C447 C444 1.365 . S
C447 C446 1.366 . S
C447 H461 0.930 . S
C448 C445 1.378 . S
C448 N449 1.315 . S
C448 H451 0.930 . S
N449 Co429 2.194 . S
N449 C444 1.328 . S
N449 C448 1.315 . S
H450 C444 0.929 . S
H451 C448 0.930 . S
H452 C440 0.929 . S
H453 C442 0.929 . S
O454 Co429 2.351 . S
O454 C457 1.244 . S
O455 Co429 2.155 . S
O455 C457 1.240 . S
O456 Co429 2.096 . S
O456 C437 1.247 . S
C457 O454 1.244 . S
C457 O455 1.240 . S
H458 C432 0.931 . S
H459 C441 0.931 . S
H460 C445 0.929 . S
H461 C447 0.930 . S
Co462 N466 2.148 1_455 S
Co462 N472 2.128 . S
Co462 N482 2.194 . S
Co462 O487 2.351 1_455 S
Co462 O488 2.155 1_455 S
Co462 O489 2.096 . S
C463 N466 1.301 . S
C463 N467 1.328 . S
C463 H468 0.930 . S
C464 C465 1.333 . S
C464 N466 1.317 . S
C464 H469 0.930 . S
C465 C464 1.333 . S
C465 N467 1.350 . S
C465 H491 0.931 . S
N466 Co462 2.148 1_655 S
N466 C463 1.301 . S
N466 C464 1.317 . S
N467 C463 1.328 . S
N467 C465 1.350 . S
H468 C463 0.930 . S
H469 C464 0.930 . S
C470 O471 1.224 . S
C470 O489 1.247 . S
O471 C470 1.224 . S
N472 Co462 2.128 . S
N472 C473 1.355 . S
N472 C475 1.311 . S
C473 N472 1.355 . S
C473 C474 1.363 . S
C473 H485 0.929 . S
C474 C473 1.363 . S
C474 N476 1.375 . S
C474 H492 0.931 . S
C475 N472 1.311 . S
C475 N476 1.347 . S
C475 H486 0.929 . S
N476 C474 1.375 . S
N476 C475 1.347 . S
C477 C480 1.365 . S
C477 N482 1.325 1_655 S
C477 H483 0.929 . S
C478 C479 1.362 . S
C478 C481 1.378 . S
C478 H493 0.929 . S
C479 C478 1.362 . S
C479 C480 1.366 1_455 S
C480 C477 1.365 . S
C480 C479 1.366 1_655 S
C480 H494 0.930 . S
C481 C478 1.378 . S
C481 N482 1.318 . S
C481 H484 0.930 . S
N482 Co462 2.194 . S
N482 C477 1.325 1_455 S
N482 C481 1.318 . S
H483 C477 0.929 . S
H484 C481 0.930 . S
H485 C473 0.929 . S
H486 C475 0.929 . S
O487 Co462 2.351 1_655 S
O487 C490 1.244 . S
O488 Co462 2.155 1_655 S
O488 C490 1.240 . S
O489 Co462 2.096 . S
O489 C470 1.247 . S
C490 O487 1.244 . S
C490 O488 1.240 . S
H491 C465 0.931 . S
H492 C474 0.931 . S
H493 C478 0.929 . S
H494 C480 0.930 . S
Co495 N499 2.148 . S
Co495 N505 2.128 . S
Co495 N515 2.194 . S
Co495 O520 2.351 . S
Co495 O521 2.155 . S
Co495 O522 2.096 . S
C496 N499 1.301 . S
C496 N500 1.328 . S
C496 H501 0.930 . S
C497 C498 1.333 . S
C497 N499 1.317 . S
C497 H502 0.930 . S
C498 C497 1.333 . S
C498 N500 1.350 . S
C498 H524 0.931 . S
N499 Co495 2.148 . S
N499 C496 1.301 . S
N499 C497 1.317 . S
N500 C496 1.328 . S
N500 C498 1.350 . S
H501 C496 0.930 . S
H502 C497 0.930 . S
C503 O504 1.224 . S
C503 O522 1.247 . S
O504 C503 1.224 . S
N505 Co495 2.128 . S
N505 C506 1.355 . S
N505 C508 1.311 . S
C506 N505 1.355 . S
C506 C507 1.363 . S
C506 H518 0.929 . S
C507 C506 1.363 . S
C507 N509 1.375 . S
C507 H525 0.931 . S
C508 N505 1.311 . S
C508 N509 1.347 . S
C508 H519 0.929 . S
N509 C507 1.375 . S
N509 C508 1.347 . S
C510 C513 1.365 . S
C510 N515 1.328 . S
C510 H516 0.929 . S
C511 C512 1.362 . S
C511 C514 1.378 . S
C511 H526 0.929 . S
C512 C511 1.362 . S
C512 C513 1.366 . S
C513 C510 1.365 . S
C513 C512 1.366 . S
C513 H527 0.930 . S
C514 C511 1.378 . S
C514 N515 1.315 . S
C514 H517 0.930 . S
N515 Co495 2.194 . S
N515 C510 1.328 . S
N515 C514 1.315 . S
H516 C510 0.929 . S
H517 C514 0.930 . S
H518 C506 0.929 . S
H519 C508 0.929 . S
O520 Co495 2.351 . S
O520 C523 1.244 . S
O521 Co495 2.155 . S
O521 C523 1.240 . S
O522 Co495 2.096 . S
O522 C503 1.247 . S
C523 O520 1.244 . S
C523 O521 1.240 . S
H524 C498 0.931 . S
H525 C507 0.931 . S
H526 C511 0.929 . S
H527 C513 0.930 . S
Co528 N532 2.148 . S
Co528 N538 2.128 1_455 S
Co528 N548 2.194 . S
Co528 O553 2.351 . S
Co528 O554 2.155 . S
Co528 O555 2.096 1_455 S
C529 N532 1.301 . S
C529 N533 1.328 . S
C529 H534 0.930 . S
C530 C531 1.333 . S
C530 N532 1.317 . S
C530 H535 0.930 . S
C531 C530 1.333 . S
C531 N533 1.350 . S
C531 H557 0.931 . S
N532 Co528 2.148 . S
N532 C529 1.301 . S
N532 C530 1.317 . S
N533 C529 1.328 . S
N533 C531 1.350 . S
H534 C529 0.930 . S
H535 C530 0.930 . S
C536 O537 1.224 . S
C536 O555 1.247 . S
O537 C536 1.224 . S
N538 Co528 2.128 1_655 S
N538 C539 1.355 . S
N538 C541 1.311 . S
C539 N538 1.355 . S
C539 C540 1.363 . S
C539 H551 0.929 . S
C540 C539 1.363 . S
C540 N542 1.375 . S
C540 H558 0.931 . S
C541 N538 1.311 . S
C541 N542 1.347 . S
C541 H552 0.929 . S
N542 C540 1.375 . S
N542 C541 1.347 . S
C543 C546 1.365 . S
C543 N548 1.328 . S
C543 H549 0.929 . S
C544 C545 1.362 1_655 S
C544 C547 1.378 . S
C544 H559 0.929 . S
C545 C544 1.362 1_455 S
C545 C546 1.366 . S
C546 C543 1.365 . S
C546 C545 1.366 . S
C546 H560 0.930 . S
C547 C544 1.378 . S
C547 N548 1.315 1_655 S
C547 H550 0.930 . S
N548 Co528 2.194 . S
N548 C543 1.328 . S
N548 C547 1.315 1_455 S
H549 C543 0.929 . S
H550 C547 0.930 . S
H551 C539 0.929 . S
H552 C541 0.929 . S
O553 Co528 2.351 . S
O553 C556 1.244 . S
O554 Co528 2.155 . S
O554 C556 1.240 . S
O555 Co528 2.096 1_655 S
O555 C536 1.247 . S
C556 O553 1.244 . S
C556 O554 1.240 . S
H557 C531 0.931 . S
H558 C540 0.931 . S
H559 C544 0.929 . S
H560 C546 0.930 . S
Co561 N565 2.148 . S
Co561 N571 2.128 . S
Co561 N581 2.194 . S
Co561 O586 2.351 . S
Co561 O587 2.155 . S
Co561 O588 2.096 . S
C562 N565 1.301 . S
C562 N566 1.328 . S
C562 H567 0.930 . S
C563 C564 1.333 . S
C563 N565 1.317 . S
C563 H568 0.930 . S
C564 C563 1.333 . S
C564 N566 1.350 . S
C564 H590 0.931 . S
N565 Co561 2.148 . S
N565 C562 1.301 . S
N565 C563 1.317 . S
N566 C562 1.328 . S
N566 C564 1.350 . S
H567 C562 0.930 . S
H568 C563 0.930 . S
C569 O570 1.224 . S
C569 O588 1.247 . S
O570 C569 1.224 . S
N571 Co561 2.128 . S
N571 C572 1.355 . S
N571 C574 1.311 . S
C572 N571 1.355 . S
C572 C573 1.363 . S
C572 H584 0.929 . S
C573 C572 1.363 . S
C573 N575 1.375 . S
C573 H591 0.931 . S
C574 N571 1.311 . S
C574 N575 1.347 . S
C574 H585 0.929 . S
N575 C573 1.375 . S
N575 C574 1.347 . S
C576 C579 1.365 . S
C576 N581 1.328 . S
C576 H582 0.929 . S
C577 C578 1.362 . S
C577 C580 1.378 . S
C577 H592 0.929 . S
C578 C577 1.362 . S
C578 C579 1.366 . S
C579 C576 1.365 . S
C579 C578 1.366 . S
C579 H593 0.930 . S
C580 C577 1.378 . S
C580 N581 1.315 . S
C580 H583 0.930 . S
N581 Co561 2.194 . S
N581 C576 1.328 . S
N581 C580 1.315 . S
H582 C576 0.929 . S
H583 C580 0.930 . S
H584 C572 0.929 . S
H585 C574 0.929 . S
O586 Co561 2.351 . S
O586 C589 1.244 . S
O587 Co561 2.155 . S
O587 C589 1.240 . S
O588 Co561 2.096 . S
O588 C569 1.247 . S
C589 O586 1.244 . S
C589 O587 1.240 . S
H590 C564 0.931 . S
H591 C573 0.931 . S
H592 C577 0.929 . S
H593 C579 0.930 . S
Co594 N598 2.148 1_455 S
Co594 N604 2.128 . S
Co594 N614 2.194 . S
Co594 O619 2.351 1_455 S
Co594 O620 2.155 1_455 S
Co594 O621 2.096 . S
C595 N598 1.301 . S
C595 N599 1.328 . S
C595 H600 0.930 . S
C596 C597 1.333 . S
C596 N598 1.317 . S
C596 H601 0.980 . S
C597 C596 1.333 . S
C597 N599 1.350 . S
C597 H623 0.931 . S
N598 Co594 2.148 1_655 S
N598 C595 1.301 . S
N598 C596 1.317 . S
N599 C595 1.328 . S
N599 C597 1.350 . S
H600 C595 0.930 . S
H601 C596 0.980 . S
C602 O603 1.224 . S
C602 O621 1.247 . S
O603 C602 1.224 . S
N604 Co594 2.128 . S
N604 C605 1.355 . S
N604 C607 1.311 . S
C605 N604 1.355 . S
C605 C606 1.363 . S
C605 H617 0.929 . S
C606 C605 1.363 . S
C606 N608 1.375 . S
C606 H624 0.931 . S
C607 N604 1.311 . S
C607 N608 1.347 . S
C607 H618 0.929 . S
N608 C606 1.375 . S
N608 C607 1.347 . S
C609 C612 1.365 . S
C609 N614 1.328 1_655 S
C609 H615 0.929 . S
C610 C611 1.362 . S
C610 C613 1.378 . S
C610 H625 0.929 . S
C611 C610 1.362 . S
C611 C612 1.366 1_455 S
C612 C609 1.365 . S
C612 C611 1.366 1_655 S
C612 H626 0.930 . S
C613 C610 1.378 . S
C613 N614 1.315 . S
C613 H616 0.930 . S
N614 Co594 2.194 . S
N614 C609 1.328 1_455 S
N614 C613 1.315 . S
H615 C609 0.929 . S
H616 C613 0.930 . S
H617 C605 0.929 . S
H618 C607 0.929 . S
O619 Co594 2.351 1_655 S
O619 C622 1.244 . S
O620 Co594 2.155 1_655 S
O620 C622 1.240 . S
O621 Co594 2.096 . S
O621 C602 1.247 . S
C622 O619 1.244 . S
C622 O620 1.240 . S
H623 C597 0.931 . S
H624 C606 0.931 . S
H625 C610 0.929 . S
H626 C612 0.930 . S
Co627 N631 2.148 . S
Co627 N637 2.128 . S
Co627 N647 2.194 . S
Co627 O652 2.351 . S
Co627 O653 2.155 . S
Co627 O654 2.096 . S
C628 N631 1.301 . S
C628 N632 1.328 . S
C628 H633 0.930 . S
C629 C630 1.333 . S
C629 N631 1.317 . S
C629 H634 0.930 . S
C630 C629 1.333 . S
C630 N632 1.350 . S
C630 H656 0.931 . S
N631 Co627 2.148 . S
N631 C628 1.301 . S
N631 C629 1.317 . S
N632 C628 1.328 . S
N632 C630 1.350 . S
H633 C628 0.930 . S
H634 C629 0.930 . S
C635 O636 1.224 . S
C635 O654 1.247 . S
O636 C635 1.224 . S
N637 Co627 2.128 . S
N637 C638 1.355 . S
N637 C640 1.311 . S
C638 N637 1.355 . S
C638 C639 1.363 . S
C638 H650 0.929 . S
C639 C638 1.363 . S
C639 N641 1.375 . S
C639 H657 0.931 . S
C640 N637 1.311 . S
C640 N641 1.347 . S
C640 H651 0.929 . S
N641 C639 1.375 . S
N641 C640 1.347 . S
C642 C645 1.365 . S
C642 N647 1.328 . S
C642 H648 0.929 . S
C643 C644 1.362 . S
C643 C646 1.378 . S
C643 H658 0.929 . S
C644 C643 1.362 . S
C644 C645 1.366 . S
C645 C642 1.365 . S
C645 C644 1.366 . S
C645 H659 0.930 . S
C646 C643 1.378 . S
C646 N647 1.315 . S
C646 H649 0.930 . S
N647 Co627 2.194 . S
N647 C642 1.328 . S
N647 C646 1.315 . S
H648 C642 0.929 . S
H649 C646 0.930 . S
H650 C638 0.929 . S
H651 C640 0.929 . S
O652 Co627 2.351 . S
O652 C655 1.244 . S
O653 Co627 2.155 . S
O653 C655 1.240 . S
O654 Co627 2.096 . S
O654 C635 1.247 . S
C655 O652 1.244 . S
C655 O653 1.240 . S
H656 C630 0.931 . S
H657 C639 0.931 . S
H658 C643 0.929 . S
H659 C645 0.930 . S
Co660 N664 2.148 . S
Co660 N670 2.128 . S
Co660 N680 2.194 . S
Co660 O685 2.351 . S
Co660 O686 2.155 . S
Co660 O687 2.096 . S
C661 N664 1.301 . S
C661 N665 1.328 . S
C661 H666 0.930 . S
C662 C663 1.333 . S
C662 N664 1.317 . S
C662 H667 0.930 . S
C663 C662 1.333 . S
C663 N665 1.350 . S
C663 H689 0.931 . S
N664 Co660 2.148 . S
N664 C661 1.301 . S
N664 C662 1.317 . S
N665 C661 1.328 . S
N665 C663 1.350 . S
H666 C661 0.930 . S
H667 C662 0.930 . S
C668 O669 1.224 . S
C668 O687 1.247 . S
O669 C668 1.224 . S
N670 Co660 2.128 . S
N670 C671 1.355 . S
N670 C673 1.311 . S
C671 N670 1.355 . S
C671 C672 1.363 . S
C671 H683 0.929 . S
C672 C671 1.363 . S
C672 N674 1.375 . S
C672 H690 0.931 . S
C673 N670 1.311 . S
C673 N674 1.347 . S
C673 H684 0.929 . S
N674 C672 1.375 . S
N674 C673 1.347 . S
C675 C678 1.365 . S
C675 N680 1.328 . S
C675 H681 0.929 . S
C676 C677 1.362 . S
C676 C679 1.378 . S
C676 H691 0.929 . S
C677 C676 1.362 . S
C677 C678 1.366 . S
C678 C675 1.365 . S
C678 C677 1.366 . S
C678 H692 0.930 . S
C679 C676 1.378 . S
C679 N680 1.315 . S
C679 H682 0.930 . S
N680 Co660 2.194 . S
N680 C675 1.328 . S
N680 C679 1.315 . S
H681 C675 0.929 . S
H682 C679 0.930 . S
H683 C671 0.929 . S
H684 C673 0.929 . S
O685 Co660 2.351 . S
O685 C688 1.244 . S
O686 Co660 2.155 . S
O686 C688 1.240 . S
O687 Co660 2.096 . S
O687 C668 1.247 . S
C688 O685 1.244 . S
C688 O686 1.240 . S
H689 C663 0.931 . S
H690 C672 0.931 . S
H691 C676 0.929 . S
H692 C678 0.930 . S
Co693 N697 2.148 . S
Co693 N703 2.128 . S
Co693 N713 2.194 . S
Co693 O718 2.351 . S
Co693 O719 2.155 . S
Co693 O720 2.096 . S
C694 N697 1.301 . S
C694 N698 1.328 . S
C694 H699 0.930 . S
C695 C696 1.333 . S
C695 N697 1.317 . S
C695 H700 0.930 . S
C696 C695 1.333 . S
C696 N698 1.350 . S
C696 H722 0.931 . S
N697 Co693 2.148 . S
N697 C694 1.301 . S
N697 C695 1.317 . S
N698 C694 1.328 . S
N698 C696 1.350 . S
H699 C694 0.930 . S
H700 C695 0.930 . S
C701 O702 1.224 . S
C701 O720 1.247 . S
O702 C701 1.224 . S
N703 Co693 2.128 . S
N703 C704 1.355 . S
N703 C706 1.311 . S
C704 N703 1.355 . S
C704 C705 1.363 . S
C704 H716 0.929 . S
C705 C704 1.363 . S
C705 N707 1.375 . S
C705 H723 0.931 . S
C706 N703 1.311 . S
C706 N707 1.347 . S
C706 H717 0.929 . S
N707 C705 1.375 . S
N707 C706 1.347 . S
C708 C711 1.365 . S
C708 N713 1.328 . S
C708 H714 0.929 . S
C709 C710 1.362 . S
C709 C712 1.378 . S
C709 H724 0.929 . S
C710 C709 1.362 . S
C710 C711 1.366 . S
C711 C708 1.365 . S
C711 C710 1.366 . S
C711 H725 0.930 . S
C712 C709 1.378 . S
C712 N713 1.315 . S
C712 H715 0.930 . S
N713 Co693 2.194 . S
N713 C708 1.328 . S
N713 C712 1.315 . S
H714 C708 0.929 . S
H715 C712 0.930 . S
H716 C704 0.929 . S
H717 C706 0.929 . S
O718 Co693 2.351 . S
O718 C721 1.244 . S
O719 Co693 2.155 . S
O719 C721 1.240 . S
O720 Co693 2.096 . S
O720 C701 1.247 . S
C721 O718 1.244 . S
C721 O719 1.240 . S
H722 C696 0.931 . S
H723 C705 0.931 . S
H724 C709 0.929 . S
H725 C711 0.930 . S
Co726 N730 2.148 . S
Co726 N736 2.128 . S
Co726 N746 2.194 . S
Co726 O751 2.351 . S
Co726 O752 2.155 . S
Co726 O753 2.096 . S
C727 N730 1.301 . S
C727 N731 1.328 . S
C727 H732 0.930 . S
C728 C729 1.333 . S
C728 N730 1.317 . S
C728 H733 0.930 . S
C729 C728 1.333 . S
C729 N731 1.350 . S
C729 H755 0.931 . S
N730 Co726 2.148 . S
N730 C727 1.301 . S
N730 C728 1.317 . S
N731 C727 1.328 . S
N731 C729 1.350 . S
H732 C727 0.930 . S
H733 C728 0.930 . S
C734 O735 1.224 . S
C734 O753 1.247 . S
O735 C734 1.224 . S
N736 Co726 2.128 . S
N736 C737 1.355 . S
N736 C739 1.311 . S
C737 N736 1.355 . S
C737 C738 1.363 . S
C737 H749 0.929 . S
C738 C737 1.363 . S
C738 N740 1.375 . S
C738 H756 0.931 . S
C739 N736 1.311 . S
C739 N740 1.347 . S
C739 H750 0.929 . S
N740 C738 1.375 . S
N740 C739 1.347 . S
C741 C744 1.365 . S
C741 N746 1.328 . S
C741 H747 0.929 . S
C742 C743 1.362 . S
C742 C745 1.378 . S
C742 H757 0.929 . S
C743 C742 1.362 . S
C743 C744 1.366 . S
C744 C741 1.365 . S
C744 C743 1.366 . S
C744 H758 0.930 . S
C745 C742 1.378 . S
C745 N746 1.315 . S
C745 H748 0.930 . S
N746 Co726 2.194 . S
N746 C741 1.328 . S
N746 C745 1.315 . S
H747 C741 0.929 . S
H748 C745 0.930 . S
H749 C737 0.929 . S
H750 C739 0.929 . S
O751 Co726 2.351 . S
O751 C754 1.244 . S
O752 Co726 2.155 . S
O752 C754 1.240 . S
O753 Co726 2.096 . S
O753 C734 1.247 . S
C754 O751 1.244 . S
C754 O752 1.240 . S
H755 C729 0.931 . S
H756 C738 0.931 . S
H757 C742 0.929 . S
H758 C744 0.930 . S
Co759 N763 2.148 . S
Co759 N769 2.128 . S
Co759 N779 2.194 . S
Co759 O784 2.351 . S
Co759 O785 2.155 . S
Co759 O786 2.096 . S
C760 N763 1.301 . S
C760 N764 1.328 . S
C760 H765 0.930 . S
C761 C762 1.333 . S
C761 N763 1.317 . S
C761 H766 0.930 . S
C762 C761 1.333 . S
C762 N764 1.350 . S
C762 H788 0.931 . S
N763 Co759 2.148 . S
N763 C760 1.301 . S
N763 C761 1.317 . S
N764 C760 1.328 . S
N764 C762 1.350 . S
H765 C760 0.930 . S
H766 C761 0.930 . S
C767 O768 1.224 . S
C767 O786 1.247 . S
O768 C767 1.224 . S
N769 Co759 2.128 . S
N769 C770 1.355 . S
N769 C772 1.311 . S
C770 N769 1.355 . S
C770 C771 1.363 . S
C770 H782 0.929 . S
C771 C770 1.363 . S
C771 N773 1.375 . S
C771 H789 0.931 . S
C772 N769 1.311 . S
C772 N773 1.347 . S
C772 H783 0.929 . S
N773 C771 1.375 . S
N773 C772 1.347 . S
C774 C777 1.365 . S
C774 N779 1.328 . S
C774 H780 0.929 . S
C775 C776 1.362 . S
C775 C778 1.378 . S
C775 H790 0.929 . S
C776 C775 1.362 . S
C776 C777 1.366 . S
C777 C774 1.365 . S
C777 C776 1.366 . S
C777 H791 0.930 . S
C778 C775 1.378 . S
C778 N779 1.315 . S
C778 H781 0.930 . S
N779 Co759 2.194 . S
N779 C774 1.328 . S
N779 C778 1.315 . S
H780 C774 0.929 . S
H781 C778 0.930 . S
H782 C770 0.929 . S
H783 C772 0.929 . S
O784 Co759 2.351 . S
O784 C787 1.244 . S
O785 Co759 2.155 . S
O785 C787 1.240 . S
O786 Co759 2.096 . S
O786 C767 1.247 . S
C787 O784 1.244 . S
C787 O785 1.240 . S
H788 C762 0.931 . S
H789 C771 0.931 . S
H790 C775 0.929 . S
H791 C777 0.930 . S
Co792 N796 2.148 . S
Co792 N802 2.128 . S
Co792 N812 2.194 . S
Co792 O817 2.351 . S
Co792 O818 2.155 . S
Co792 O819 2.096 . S
C793 N796 1.301 . S
C793 N797 1.328 . S
C793 H798 0.930 . S
C794 C795 1.333 . S
C794 N796 1.317 . S
C794 H799 0.930 . S
C795 C794 1.333 . S
C795 N797 1.350 . S
C795 H821 0.931 . S
N796 Co792 2.148 . S
N796 C793 1.301 . S
N796 C794 1.317 . S
N797 C793 1.328 . S
N797 C795 1.350 . S
H798 C793 0.930 . S
H799 C794 0.930 . S
C800 O801 1.224 . S
C800 O819 1.247 . S
O801 C800 1.224 . S
N802 Co792 2.128 . S
N802 C803 1.355 . S
N802 C805 1.311 . S
C803 N802 1.355 . S
C803 C804 1.363 . S
C803 H815 0.929 . S
C804 C803 1.363 . S
C804 N806 1.375 . S
C804 H822 0.931 . S
C805 N802 1.311 . S
C805 N806 1.347 . S
C805 H816 0.929 . S
N806 C804 1.375 . S
N806 C805 1.347 . S
C807 C810 1.365 . S
C807 N812 1.328 . S
C807 H813 0.929 . S
C808 C809 1.362 . S
C808 C811 1.378 . S
C808 H823 0.929 . S
C809 C808 1.362 . S
C809 C810 1.366 . S
C810 C807 1.365 . S
C810 C809 1.366 . S
C810 H824 0.930 . S
C811 C808 1.378 . S
C811 N812 1.315 . S
C811 H814 0.930 . S
N812 Co792 2.194 . S
N812 C807 1.328 . S
N812 C811 1.315 . S
H813 C807 0.929 . S
H814 C811 0.930 . S
H815 C803 0.929 . S
H816 C805 0.929 . S
O817 Co792 2.351 . S
O817 C820 1.244 . S
O818 Co792 2.155 . S
O818 C820 1.240 . S
O819 Co792 2.096 . S
O819 C800 1.247 . S
C820 O817 1.244 . S
C820 O818 1.240 . S
H821 C795 0.931 . S
H822 C804 0.931 . S
H823 C808 0.929 . S
H824 C810 0.930 . S
Co825 N829 2.148 . S
Co825 N835 2.128 1_545 S
Co825 N845 2.194 . S
Co825 O850 2.351 . S
Co825 O851 2.155 . S
Co825 O852 2.096 1_545 S
C826 N829 1.301 . S
C826 N830 1.328 . S
C826 H831 0.930 . S
C827 C828 1.333 . S
C827 N829 1.317 . S
C827 H832 0.930 . S
C828 C827 1.333 . S
C828 N830 1.350 . S
C828 H854 0.931 . S
N829 Co825 2.148 . S
N829 C826 1.301 . S
N829 C827 1.317 . S
N830 C826 1.328 . S
N830 C828 1.350 . S
H831 C826 0.930 . S
H832 C827 0.930 . S
C833 O834 1.224 . S
C833 O852 1.247 . S
O834 C833 1.224 . S
N835 Co825 2.128 1_565 S
N835 C836 1.355 . S
N835 C838 1.311 . S
C836 N835 1.355 . S
C836 C837 1.363 . S
C836 H848 0.913 1_565 S
C837 C836 1.363 . S
C837 N839 1.375 . S
C837 H855 0.931 . S
C838 N835 1.311 . S
C838 N839 1.347 . S
C838 H849 0.929 . S
N839 C837 1.375 . S
N839 C838 1.347 . S
C840 C843 1.365 . S
C840 N845 1.328 . S
C840 H846 0.929 . S
C841 C842 1.362 1_565 S
C841 C844 1.378 . S
C841 H856 0.929 . S
C842 C841 1.362 1_545 S
C842 C843 1.366 . S
C843 C840 1.365 . S
C843 C842 1.366 . S
C843 H857 0.930 . S
C844 C841 1.378 . S
C844 N845 1.315 1_565 S
C844 H847 0.930 . S
N845 Co825 2.194 . S
N845 C840 1.328 . S
N845 C844 1.315 1_545 S
H846 C840 0.929 . S
H847 C844 0.930 . S
H848 C836 0.913 1_545 S
H849 C838 0.929 . S
O850 Co825 2.351 . S
O850 C853 1.244 . S
O851 Co825 2.155 . S
O851 C853 1.240 . S
O852 Co825 2.096 1_565 S
O852 C833 1.247 . S
C853 O850 1.244 . S
C853 O851 1.240 . S
H854 C828 0.931 . S
H855 C837 0.931 . S
H856 C841 0.929 . S
H857 C843 0.930 . S
Co858 N862 2.148 . S
Co858 N868 2.128 . S
Co858 N878 2.194 . S
Co858 O883 2.351 . S
Co858 O884 2.155 . S
Co858 O885 2.096 . S
C859 N862 1.301 . S
C859 N863 1.328 . S
C859 H864 0.930 . S
C860 C861 1.333 . S
C860 N862 1.317 . S
C860 H865 0.930 . S
C861 C860 1.333 . S
C861 N863 1.350 . S
C861 H887 0.931 . S
N862 Co858 2.148 . S
N862 C859 1.301 . S
N862 C860 1.317 . S
N863 C859 1.328 . S
N863 C861 1.350 . S
H864 C859 0.930 . S
H865 C860 0.930 . S
C866 O867 1.224 . S
C866 O885 1.247 . S
O867 C866 1.224 . S
N868 Co858 2.128 . S
N868 C869 1.355 . S
N868 C871 1.311 . S
C869 N868 1.355 . S
C869 C870 1.363 . S
C869 H881 0.929 . S
C870 C869 1.363 . S
C870 N872 1.375 . S
C870 H888 0.931 . S
C871 N868 1.311 . S
C871 N872 1.347 . S
C871 H882 0.929 . S
N872 C870 1.375 . S
N872 C871 1.347 . S
C873 C876 1.365 . S
C873 N878 1.328 . S
C873 H879 0.929 . S
C874 C875 1.362 . S
C874 C877 1.378 . S
C874 H889 0.929 . S
C875 C874 1.362 . S
C875 C876 1.366 . S
C876 C873 1.365 . S
C876 C875 1.366 . S
C876 H890 0.930 . S
C877 C874 1.378 . S
C877 N878 1.315 . S
C877 H880 0.930 . S
N878 Co858 2.194 . S
N878 C873 1.328 . S
N878 C877 1.315 . S
H879 C873 0.929 . S
H880 C877 0.930 . S
H881 C869 0.929 . S
H882 C871 0.929 . S
O883 Co858 2.351 . S
O883 C886 1.244 . S
O884 Co858 2.155 . S
O884 C886 1.240 . S
O885 Co858 2.096 . S
O885 C866 1.247 . S
C886 O883 1.244 . S
C886 O884 1.240 . S
H887 C861 0.931 . S
H888 C870 0.931 . S
H889 C874 0.929 . S
H890 C876 0.930 . S
Co891 N895 2.148 1_545 S
Co891 N901 2.128 . S
Co891 N911 2.194 . S
Co891 O916 2.351 1_545 S
Co891 O917 2.155 1_545 S
Co891 O918 2.096 . S
C892 N895 1.301 . S
C892 N896 1.328 . S
C892 H897 0.930 . S
C893 C894 1.333 . S
C893 N895 1.317 . S
C893 H898 0.930 1_565 S
C894 C893 1.333 . S
C894 N896 1.350 . S
C894 H920 0.931 . S
N895 Co891 2.148 1_565 S
N895 C892 1.301 . S
N895 C893 1.317 . S
N896 C892 1.328 . S
N896 C894 1.350 . S
H897 C892 0.930 . S
H898 C893 0.930 1_545 S
C899 O900 1.224 . S
C899 O918 1.247 . S
O900 C899 1.224 . S
N901 Co891 2.128 . S
N901 C902 1.355 . S
N901 C904 1.311 . S
C902 N901 1.355 . S
C902 C903 1.363 . S
C902 H914 0.929 . S
C903 C902 1.363 . S
C903 N905 1.375 . S
C903 H921 0.931 . S
C904 N901 1.311 . S
C904 N905 1.347 . S
C904 H915 0.929 . S
N905 C903 1.375 . S
N905 C904 1.347 . S
C906 C909 1.365 . S
C906 N911 1.328 1_565 S
C906 H912 0.929 . S
C907 C908 1.362 . S
C907 C910 1.378 . S
C907 H922 0.929 . S
C908 C907 1.362 . S
C908 C909 1.366 1_545 S
C909 C906 1.365 . S
C909 C908 1.366 1_565 S
C909 H923 0.930 . S
C910 C907 1.378 . S
C910 N911 1.315 . S
C910 H913 0.930 . S
N911 Co891 2.194 . S
N911 C906 1.328 1_545 S
N911 C910 1.315 . S
H912 C906 0.929 . S
H913 C910 0.930 . S
H914 C902 0.929 . S
H915 C904 0.929 . S
O916 Co891 2.351 1_565 S
O916 C919 1.244 . S
O917 Co891 2.155 1_565 S
O917 C919 1.240 . S
O918 Co891 2.096 . S
O918 C899 1.247 . S
C919 O916 1.244 . S
C919 O917 1.240 . S
H920 C894 0.931 . S
H921 C903 0.931 . S
H922 C907 0.929 . S
H923 C909 0.930 . S
Co924 N928 2.148 . S
Co924 N934 2.128 . S
Co924 N944 2.194 . S
Co924 O949 2.351 . S
Co924 O950 2.155 . S
Co924 O951 2.096 . S
C925 N928 1.301 . S
C925 N929 1.328 . S
C925 H930 0.930 . S
C926 C927 1.333 . S
C926 N928 1.317 . S
C926 H931 0.930 . S
C927 C926 1.333 . S
C927 N929 1.350 . S
C927 H953 0.931 . S
N928 Co924 2.148 . S
N928 C925 1.301 . S
N928 C926 1.317 . S
N929 C925 1.328 . S
N929 C927 1.350 . S
H930 C925 0.930 . S
H931 C926 0.930 . S
C932 O933 1.224 . S
C932 O951 1.247 . S
O933 C932 1.224 . S
N934 Co924 2.128 . S
N934 C935 1.355 . S
N934 C937 1.311 . S
C935 N934 1.355 . S
C935 C936 1.363 . S
C935 H947 0.929 . S
C936 C935 1.363 . S
C936 N938 1.375 . S
C936 H954 0.931 . S
C937 N934 1.311 . S
C937 N938 1.347 . S
C937 H948 0.929 . S
N938 C936 1.375 . S
N938 C937 1.347 . S
C939 C942 1.365 . S
C939 N944 1.328 . S
C939 H945 0.929 . S
C940 C941 1.362 . S
C940 C943 1.378 . S
C940 H955 0.929 . S
C941 C940 1.362 . S
C941 C942 1.366 . S
C942 C939 1.365 . S
C942 C941 1.366 . S
C942 H956 0.930 . S
C943 C940 1.378 . S
C943 N944 1.315 . S
C943 H946 0.930 . S
N944 Co924 2.194 . S
N944 C939 1.328 . S
N944 C943 1.315 . S
H945 C939 0.929 . S
H946 C943 0.930 . S
H947 C935 0.929 . S
H948 C937 0.929 . S
O949 Co924 2.351 . S
O949 C952 1.244 . S
O950 Co924 2.155 . S
O950 C952 1.240 . S
O951 Co924 2.096 . S
O951 C932 1.247 . S
C952 O949 1.244 . S
C952 O950 1.240 . S
H953 C927 0.931 . S
H954 C936 0.931 . S
H955 C940 0.929 . S
H956 C942 0.930 . S
Co957 N961 2.148 . S
Co957 N967 2.128 1_545 S
Co957 N977 2.194 . S
Co957 O982 2.351 . S
Co957 O983 2.155 . S
Co957 O984 2.096 1_545 S
C958 N961 1.301 . S
C958 N962 1.328 . S
C958 H963 0.930 . S
C959 C960 1.333 . S
C959 N961 1.317 . S
C959 H964 0.930 . S
C960 C959 1.333 . S
C960 N962 1.350 . S
C960 H986 0.931 . S
N961 Co957 2.148 . S
N961 C958 1.301 . S
N961 C959 1.317 . S
N962 C958 1.328 . S
N962 C960 1.350 . S
H963 C958 0.930 . S
H964 C959 0.930 . S
C965 O966 1.224 . S
C965 O984 1.247 . S
O966 C965 1.224 . S
N967 Co957 2.128 1_565 S
N967 C968 1.355 . S
N967 C970 1.311 . S
C968 N967 1.355 . S
C968 C969 1.363 . S
C968 H980 0.909 1_565 S
C969 C968 1.363 . S
C969 N971 1.375 . S
C969 H987 0.931 . S
C970 N967 1.311 . S
C970 N971 1.347 . S
C970 H981 0.929 . S
N971 C969 1.375 . S
N971 C970 1.347 . S
C972 C975 1.365 . S
C972 N977 1.328 . S
C972 H978 0.929 . S
C973 C974 1.362 1_565 S
C973 C976 1.378 . S
C973 H988 0.929 . S
C974 C973 1.362 1_545 S
C974 C975 1.366 . S
C975 C972 1.365 . S
C975 C974 1.366 . S
C975 H989 0.930 . S
C976 C973 1.378 . S
C976 N977 1.315 1_565 S
C976 H979 0.930 . S
N977 Co957 2.194 . S
N977 C972 1.328 . S
N977 C976 1.315 1_545 S
H978 C972 0.929 . S
H979 C976 0.930 . S
H980 C968 0.909 1_545 S
H981 C970 0.929 . S
O982 Co957 2.351 . S
O982 C985 1.244 . S
O983 Co957 2.155 . S
O983 C985 1.240 . S
O984 Co957 2.096 1_565 S
O984 C965 1.247 . S
C985 O982 1.244 . S
C985 O983 1.240 . S
H986 C960 0.931 . S
H987 C969 0.931 . S
H988 C973 0.929 . S
H989 C975 0.930 . S
Co990 N994 2.148 . S
Co990 N1000 2.128 . S
Co990 N1010 2.194 . S
Co990 O1015 2.351 . S
Co990 O1016 2.155 . S
Co990 O1017 2.096 . S
C991 N994 1.301 . S
C991 N995 1.328 . S
C991 H996 0.930 . S
C992 C993 1.333 . S
C992 N994 1.317 . S
C992 H997 0.930 . S
C993 C992 1.333 . S
C993 N995 1.350 . S
C993 H1019 0.931 . S
N994 Co990 2.148 . S
N994 C991 1.301 . S
N994 C992 1.317 . S
N995 C991 1.328 . S
N995 C993 1.350 . S
H996 C991 0.930 . S
H997 C992 0.930 . S
C998 O999 1.224 . S
C998 O1017 1.247 . S
O999 C998 1.224 . S
N1000 Co990 2.128 . S
N1000 C1001 1.355 . S
N1000 C1003 1.311 . S
C1001 N1000 1.355 . S
C1001 C1002 1.363 . S
C1001 H1013 0.929 . S
C1002 C1001 1.363 . S
C1002 N1004 1.375 . S
C1002 H1020 0.931 . S
C1003 N1000 1.311 . S
C1003 N1004 1.347 . S
C1003 H1014 0.929 . S
N1004 C1002 1.375 . S
N1004 C1003 1.347 . S
C1005 C1008 1.365 . S
C1005 N1010 1.328 . S
C1005 H1011 0.929 . S
C1006 C1007 1.362 . S
C1006 C1009 1.378 . S
C1006 H1021 0.929 . S
C1007 C1006 1.362 . S
C1007 C1008 1.366 . S
C1008 C1005 1.365 . S
C1008 C1007 1.366 . S
C1008 H1022 0.930 . S
C1009 C1006 1.378 . S
C1009 N1010 1.315 . S
C1009 H1012 0.930 . S
N1010 Co990 2.194 . S
N1010 C1005 1.328 . S
N1010 C1009 1.315 . S
H1011 C1005 0.929 . S
H1012 C1009 0.930 . S
H1013 C1001 0.929 . S
H1014 C1003 0.929 . S
O1015 Co990 2.351 . S
O1015 C1018 1.244 . S
O1016 Co990 2.155 . S
O1016 C1018 1.240 . S
O1017 Co990 2.096 . S
O1017 C998 1.247 . S
C1018 O1015 1.244 . S
C1018 O1016 1.240 . S
H1019 C993 0.931 . S
H1020 C1002 0.931 . S
H1021 C1006 0.929 . S
H1022 C1008 0.930 . S
Co1023 N1027 2.148 . S
Co1023 N1033 2.128 1_545 S
Co1023 N1043 2.194 . S
Co1023 O1048 2.351 . S
Co1023 O1049 2.155 . S
Co1023 O1050 2.096 1_545 S
C1024 N1027 1.301 . S
C1024 N1028 1.328 . S
C1024 H1029 0.930 . S
C1025 C1026 1.333 . S
C1025 N1027 1.317 . S
C1025 H1030 0.930 . S
C1026 C1025 1.333 . S
C1026 N1028 1.350 . S
C1026 H1052 0.931 . S
N1027 Co1023 2.148 . S
N1027 C1024 1.301 . S
N1027 C1025 1.317 . S
N1028 C1024 1.328 . S
N1028 C1026 1.350 . S
H1029 C1024 0.930 . S
H1030 C1025 0.930 . S
C1031 O1032 1.224 . S
C1031 O1050 1.247 . S
O1032 C1031 1.224 . S
N1033 Co1023 2.128 1_565 S
N1033 C1034 1.355 . S
N1033 C1036 1.311 . S
C1034 N1033 1.355 . S
C1034 C1035 1.363 . S
C1034 H1046 0.883 1_565 S
C1035 C1034 1.363 . S
C1035 N1037 1.375 . S
C1035 H1053 0.931 . S
C1036 N1033 1.311 . S
C1036 N1037 1.347 . S
C1036 H1047 0.929 . S
N1037 C1035 1.375 . S
N1037 C1036 1.347 . S
C1038 C1041 1.365 . S
C1038 N1043 1.328 . S
C1038 H1044 0.929 . S
C1039 C1040 1.362 1_565 S
C1039 C1042 1.378 . S
C1039 H1054 0.929 . S
C1040 C1039 1.362 1_545 S
C1040 C1041 1.366 . S
C1041 C1038 1.365 . S
C1041 C1040 1.366 . S
C1041 H1055 0.930 . S
C1042 C1039 1.378 . S
C1042 N1043 1.315 1_565 S
C1042 H1045 0.930 . S
N1043 Co1023 2.194 . S
N1043 C1038 1.328 . S
N1043 C1042 1.315 1_545 S
H1044 C1038 0.929 . S
H1045 C1042 0.930 . S
H1046 C1034 0.883 1_545 S
H1047 C1036 0.929 . S
O1048 Co1023 2.351 . S
O1048 C1051 1.244 . S
O1049 Co1023 2.155 . S
O1049 C1051 1.240 . S
O1050 Co1023 2.096 1_565 S
O1050 C1031 1.247 . S
C1051 O1048 1.244 . S
C1051 O1049 1.240 . S
H1052 C1026 0.931 . S
H1053 C1035 0.931 . S
H1054 C1039 0.929 . S
H1055 C1041 0.930 . S
Co1056 N1060 2.148 . S
Co1056 N1066 2.128 . S
Co1056 N1076 2.194 . S
Co1056 O1081 2.351 . S
Co1056 O1082 2.155 . S
Co1056 O1083 2.096 . S
C1057 N1060 1.301 . S
C1057 N1061 1.328 . S
C1057 H1062 0.930 . S
C1058 C1059 1.333 . S
C1058 N1060 1.317 . S
C1058 H1063 0.930 . S
C1059 C1058 1.333 . S
C1059 N1061 1.350 . S
C1059 H1085 0.931 . S
N1060 Co1056 2.148 . S
N1060 C1057 1.301 . S
N1060 C1058 1.317 . S
N1061 C1057 1.328 . S
N1061 C1059 1.350 . S
H1062 C1057 0.930 . S
H1063 C1058 0.930 . S
C1064 O1065 1.224 . S
C1064 O1083 1.247 . S
O1065 C1064 1.224 . S
N1066 Co1056 2.128 . S
N1066 C1067 1.355 . S
N1066 C1069 1.311 . S
C1067 N1066 1.355 . S
C1067 C1068 1.363 . S
C1067 H1079 0.929 . S
C1068 C1067 1.363 . S
C1068 N1070 1.375 . S
C1068 H1086 0.931 . S
C1069 N1066 1.311 . S
C1069 N1070 1.347 . S
C1069 H1080 0.929 . S
N1070 C1068 1.375 . S
N1070 C1069 1.347 . S
C1071 C1074 1.365 . S
C1071 N1076 1.328 . S
C1071 H1077 0.929 . S
C1072 C1073 1.362 . S
C1072 C1075 1.378 . S
C1072 H1087 0.929 . S
C1073 C1072 1.362 . S
C1073 C1074 1.366 . S
C1074 C1071 1.365 . S
C1074 C1073 1.366 . S
C1074 H1088 0.930 . S
C1075 C1072 1.378 . S
C1075 N1076 1.315 . S
C1075 H1078 0.930 . S
N1076 Co1056 2.194 . S
N1076 C1071 1.328 . S
N1076 C1075 1.315 . S
H1077 C1071 0.929 . S
H1078 C1075 0.930 . S
H1079 C1067 0.929 . S
H1080 C1069 0.929 . S
O1081 Co1056 2.351 . S
O1081 C1084 1.244 . S
O1082 Co1056 2.155 . S
O1082 C1084 1.240 . S
O1083 Co1056 2.096 . S
O1083 C1064 1.247 . S
C1084 O1081 1.244 . S
C1084 O1082 1.240 . S
H1085 C1059 0.931 . S
H1086 C1068 0.931 . S
H1087 C1072 0.929 . S
H1088 C1074 0.930 . S
Co1089 N1093 2.148 . S
Co1089 N1099 2.128 . S
Co1089 N1109 2.194 . S
Co1089 O1114 2.351 . S
Co1089 O1115 2.155 . S
Co1089 O1116 2.096 . S
C1090 N1093 1.301 . S
C1090 N1094 1.328 . S
C1090 H1095 0.930 . S
C1091 C1092 1.333 . S
C1091 N1093 1.317 . S
C1091 H1096 0.930 . S
C1092 C1091 1.333 . S
C1092 N1094 1.350 . S
C1092 H1118 0.931 . S
N1093 Co1089 2.148 . S
N1093 C1090 1.301 . S
N1093 C1091 1.317 . S
N1094 C1090 1.328 . S
N1094 C1092 1.350 . S
H1095 C1090 0.930 . S
H1096 C1091 0.930 . S
C1097 O1098 1.224 . S
C1097 O1116 1.247 . S
O1098 C1097 1.224 . S
N1099 Co1089 2.128 . S
N1099 C1100 1.355 . S
N1099 C1102 1.311 . S
C1100 N1099 1.355 . S
C1100 C1101 1.363 . S
C1100 H1112 0.929 . S
C1101 C1100 1.363 . S
C1101 N1103 1.375 . S
C1101 H1119 0.931 . S
C1102 N1099 1.311 . S
C1102 N1103 1.347 . S
C1102 H1113 0.929 . S
N1103 C1101 1.375 . S
N1103 C1102 1.347 . S
C1104 C1107 1.365 . S
C1104 N1109 1.328 . S
C1104 H1110 0.929 . S
C1105 C1106 1.362 . S
C1105 C1108 1.378 . S
C1105 H1120 0.929 . S
C1106 C1105 1.362 . S
C1106 C1107 1.366 . S
C1107 C1104 1.365 . S
C1107 C1106 1.366 . S
C1107 H1121 0.930 . S
C1108 C1105 1.378 . S
C1108 N1109 1.315 . S
C1108 H1111 0.930 . S
N1109 Co1089 2.194 . S
N1109 C1104 1.328 . S
N1109 C1108 1.315 . S
H1110 C1104 0.929 . S
H1111 C1108 0.930 . S
H1112 C1100 0.929 . S
H1113 C1102 0.929 . S
O1114 Co1089 2.351 . S
O1114 C1117 1.244 . S
O1115 Co1089 2.155 . S
O1115 C1117 1.240 . S
O1116 Co1089 2.096 . S
O1116 C1097 1.247 . S
C1117 O1114 1.244 . S
C1117 O1115 1.240 . S
H1118 C1092 0.931 . S
H1119 C1101 0.931 . S
H1120 C1105 0.929 . S
H1121 C1107 0.930 . S
Co1122 N1126 2.148 . S
Co1122 N1132 2.128 . S
Co1122 N1142 2.194 . S
Co1122 O1147 2.351 . S
Co1122 O1148 2.155 . S
Co1122 O1149 2.096 . S
C1123 N1126 1.301 . S
C1123 N1127 1.328 . S
C1123 H1128 0.930 . S
C1124 C1125 1.333 . S
C1124 N1126 1.317 . S
C1124 H1129 0.930 . S
C1125 C1124 1.333 . S
C1125 N1127 1.350 . S
C1125 H1151 0.931 . S
N1126 Co1122 2.148 . S
N1126 C1123 1.301 . S
N1126 C1124 1.317 . S
N1127 C1123 1.328 . S
N1127 C1125 1.350 . S
H1128 C1123 0.930 . S
H1129 C1124 0.930 . S
C1130 O1131 1.224 . S
C1130 O1149 1.247 . S
O1131 C1130 1.224 . S
N1132 Co1122 2.128 . S
N1132 C1133 1.355 . S
N1132 C1135 1.311 . S
C1133 N1132 1.355 . S
C1133 C1134 1.363 . S
C1133 H1145 0.929 . S
C1134 C1133 1.363 . S
C1134 N1136 1.375 . S
C1134 H1152 0.931 . S
C1135 N1132 1.311 . S
C1135 N1136 1.347 . S
C1135 H1146 0.929 . S
N1136 C1134 1.375 . S
N1136 C1135 1.347 . S
C1137 C1140 1.365 . S
C1137 N1142 1.328 . S
C1137 H1143 0.929 . S
C1138 C1139 1.362 . S
C1138 C1141 1.378 . S
C1138 H1153 0.929 . S
C1139 C1138 1.362 . S
C1139 C1140 1.366 . S
C1140 C1137 1.365 . S
C1140 C1139 1.366 . S
C1140 H1154 0.930 . S
C1141 C1138 1.378 . S
C1141 N1142 1.315 . S
C1141 H1144 0.930 . S
N1142 Co1122 2.194 . S
N1142 C1137 1.328 . S
N1142 C1141 1.315 . S
H1143 C1137 0.929 . S
H1144 C1141 0.930 . S
H1145 C1133 0.929 . S
H1146 C1135 0.929 . S
O1147 Co1122 2.351 . S
O1147 C1150 1.244 . S
O1148 Co1122 2.155 . S
O1148 C1150 1.240 . S
O1149 Co1122 2.096 . S
O1149 C1130 1.247 . S
C1150 O1147 1.244 . S
C1150 O1148 1.240 . S
H1151 C1125 0.931 . S
H1152 C1134 0.931 . S
H1153 C1138 0.929 . S
H1154 C1140 0.930 . S
Co1155 N1159 2.148 . S
Co1155 N1165 2.128 . S
Co1155 N1175 2.194 . S
Co1155 O1180 2.351 . S
Co1155 O1181 2.155 . S
Co1155 O1182 2.096 . S
C1156 N1159 1.301 . S
C1156 N1160 1.328 . S
C1156 H1161 0.930 . S
C1157 C1158 1.333 . S
C1157 N1159 1.317 . S
C1157 H1162 0.930 . S
C1158 C1157 1.333 . S
C1158 N1160 1.350 . S
C1158 H1184 0.931 . S
N1159 Co1155 2.148 . S
N1159 C1156 1.301 . S
N1159 C1157 1.317 . S
N1160 C1156 1.328 . S
N1160 C1158 1.350 . S
H1161 C1156 0.930 . S
H1162 C1157 0.930 . S
C1163 O1164 1.224 . S
C1163 O1182 1.247 . S
O1164 C1163 1.224 . S
N1165 Co1155 2.128 . S
N1165 C1166 1.355 . S
N1165 C1168 1.311 . S
C1166 N1165 1.355 . S
C1166 C1167 1.363 . S
C1166 H1178 0.929 . S
C1167 C1166 1.363 . S
C1167 N1169 1.375 . S
C1167 H1185 0.931 . S
C1168 N1165 1.311 . S
C1168 N1169 1.347 . S
C1168 H1179 0.929 . S
N1169 C1167 1.375 . S
N1169 C1168 1.347 . S
C1170 C1173 1.365 . S
C1170 N1175 1.328 . S
C1170 H1176 0.929 . S
C1171 C1172 1.362 . S
C1171 C1174 1.378 . S
C1171 H1186 0.929 . S
C1172 C1171 1.362 . S
C1172 C1173 1.366 . S
C1173 C1170 1.365 . S
C1173 C1172 1.366 . S
C1173 H1187 0.930 . S
C1174 C1171 1.378 . S
C1174 N1175 1.315 . S
C1174 H1177 0.930 . S
N1175 Co1155 2.194 . S
N1175 C1170 1.328 . S
N1175 C1174 1.315 . S
H1176 C1170 0.929 . S
H1177 C1174 0.930 . S
H1178 C1166 0.929 . S
H1179 C1168 0.929 . S
O1180 Co1155 2.351 . S
O1180 C1183 1.244 . S
O1181 Co1155 2.155 . S
O1181 C1183 1.240 . S
O1182 Co1155 2.096 . S
O1182 C1163 1.247 . S
C1183 O1180 1.244 . S
C1183 O1181 1.240 . S
H1184 C1158 0.931 . S
H1185 C1167 0.931 . S
H1186 C1171 0.929 . S
H1187 C1173 0.930 . S
Co1188 N1192 2.148 . S
Co1188 N1198 2.128 . S
Co1188 N1208 2.194 . S
Co1188 O1213 2.351 . S
Co1188 O1214 2.155 . S
Co1188 O1215 2.096 . S
C1189 N1192 1.301 . S
C1189 N1193 1.328 . S
C1189 H1194 0.930 . S
C1190 C1191 1.333 . S
C1190 N1192 1.317 . S
C1190 H1195 0.930 . S
C1191 C1190 1.333 . S
C1191 N1193 1.350 . S
C1191 H1217 0.931 . S
N1192 Co1188 2.148 . S
N1192 C1189 1.301 . S
N1192 C1190 1.317 . S
N1193 C1189 1.328 . S
N1193 C1191 1.350 . S
H1194 C1189 0.930 . S
H1195 C1190 0.930 . S
C1196 O1197 1.224 . S
C1196 O1215 1.247 . S
O1197 C1196 1.224 . S
N1198 Co1188 2.128 . S
N1198 C1199 1.355 . S
N1198 C1201 1.311 . S
C1199 N1198 1.355 . S
C1199 C1200 1.363 . S
C1199 H1211 0.929 . S
C1200 C1199 1.363 . S
C1200 N1202 1.375 . S
C1200 H1218 0.931 . S
C1201 N1198 1.311 . S
C1201 N1202 1.347 . S
C1201 H1212 0.929 . S
N1202 C1200 1.375 . S
N1202 C1201 1.347 . S
C1203 C1206 1.365 . S
C1203 N1208 1.328 . S
C1203 H1209 0.929 . S
C1204 C1205 1.362 . S
C1204 C1207 1.378 . S
C1204 H1219 0.929 . S
C1205 C1204 1.362 . S
C1205 C1206 1.366 . S
C1206 C1203 1.365 . S
C1206 C1205 1.366 . S
C1206 H1220 0.930 . S
C1207 C1204 1.378 . S
C1207 N1208 1.315 . S
C1207 H1210 0.930 . S
N1208 Co1188 2.194 . S
N1208 C1203 1.328 . S
N1208 C1207 1.315 . S
H1209 C1203 0.929 . S
H1210 C1207 0.930 . S
H1211 C1199 0.929 . S
H1212 C1201 0.929 . S
O1213 Co1188 2.351 . S
O1213 C1216 1.244 . S
O1214 Co1188 2.155 . S
O1214 C1216 1.240 . S
O1215 Co1188 2.096 . S
O1215 C1196 1.247 . S
C1216 O1213 1.244 . S
C1216 O1214 1.240 . S
H1217 C1191 0.931 . S
H1218 C1200 0.931 . S
H1219 C1204 0.929 . S
H1220 C1206 0.930 . S
Co1221 N1225 2.148 . S
Co1221 N1231 2.128 . S
Co1221 N1241 2.194 . S
Co1221 O1246 2.351 . S
Co1221 O1247 2.155 . S
Co1221 O1248 2.096 . S
C1222 N1225 1.301 . S
C1222 N1226 1.328 . S
C1222 H1227 0.930 . S
C1223 C1224 1.333 . S
C1223 N1225 1.317 . S
C1223 H1228 0.930 . S
C1224 C1223 1.333 . S
C1224 N1226 1.350 . S
C1224 H1250 0.931 . S
N1225 Co1221 2.148 . S
N1225 C1222 1.301 . S
N1225 C1223 1.317 . S
N1226 C1222 1.328 . S
N1226 C1224 1.350 . S
H1227 C1222 0.930 . S
H1228 C1223 0.930 . S
C1229 O1230 1.224 . S
C1229 O1248 1.247 . S
O1230 C1229 1.224 . S
N1231 Co1221 2.128 . S
N1231 C1232 1.355 . S
N1231 C1234 1.311 . S
C1232 N1231 1.355 . S
C1232 C1233 1.363 . S
C1232 H1244 0.929 . S
C1233 C1232 1.363 . S
C1233 N1235 1.375 . S
C1233 H1251 0.931 . S
C1234 N1231 1.311 . S
C1234 N1235 1.347 . S
C1234 H1245 0.929 . S
N1235 C1233 1.375 . S
N1235 C1234 1.347 . S
C1236 C1239 1.365 . S
C1236 N1241 1.328 . S
C1236 H1242 0.929 . S
C1237 C1238 1.362 . S
C1237 C1240 1.378 . S
C1237 H1252 0.929 . S
C1238 C1237 1.362 . S
C1238 C1239 1.366 . S
C1239 C1236 1.365 . S
C1239 C1238 1.366 . S
C1239 H1253 0.930 . S
C1240 C1237 1.378 . S
C1240 N1241 1.315 . S
C1240 H1243 0.930 . S
N1241 Co1221 2.194 . S
N1241 C1236 1.328 . S
N1241 C1240 1.315 . S
H1242 C1236 0.929 . S
H1243 C1240 0.930 . S
H1244 C1232 0.929 . S
H1245 C1234 0.929 . S
O1246 Co1221 2.351 . S
O1246 C1249 1.244 . S
O1247 Co1221 2.155 . S
O1247 C1249 1.240 . S
O1248 Co1221 2.096 . S
O1248 C1229 1.247 . S
C1249 O1246 1.244 . S
C1249 O1247 1.240 . S
H1250 C1224 0.931 . S
H1251 C1233 0.931 . S
H1252 C1237 0.929 . S
H1253 C1239 0.930 . S
Co1254 N1258 2.148 . S
Co1254 N1264 2.128 . S
Co1254 N1274 2.194 . S
Co1254 O1279 2.351 . S
Co1254 O1280 2.155 . S
Co1254 O1281 2.096 . S
C1255 N1258 1.301 . S
C1255 N1259 1.328 . S
C1255 H1260 0.930 . S
C1256 C1257 1.333 . S
C1256 N1258 1.317 . S
C1256 H1261 0.930 . S
C1257 C1256 1.333 . S
C1257 N1259 1.350 . S
C1257 H1283 0.931 . S
N1258 Co1254 2.148 . S
N1258 C1255 1.301 . S
N1258 C1256 1.317 . S
N1259 C1255 1.328 . S
N1259 C1257 1.350 . S
H1260 C1255 0.930 . S
H1261 C1256 0.930 . S
C1262 O1263 1.224 . S
C1262 O1281 1.247 . S
O1263 C1262 1.224 . S
N1264 Co1254 2.128 . S
N1264 C1265 1.355 . S
N1264 C1267 1.311 . S
C1265 N1264 1.355 . S
C1265 C1266 1.363 . S
C1265 H1277 0.929 . S
C1266 C1265 1.363 . S
C1266 N1268 1.375 . S
C1266 H1284 0.931 . S
C1267 N1264 1.311 . S
C1267 N1268 1.347 . S
C1267 H1278 0.929 . S
N1268 C1266 1.375 . S
N1268 C1267 1.347 . S
C1269 C1272 1.365 . S
C1269 N1274 1.328 . S
C1269 H1275 0.929 . S
C1270 C1271 1.362 . S
C1270 C1273 1.378 . S
C1270 H1285 0.929 . S
C1271 C1270 1.362 . S
C1271 C1272 1.366 . S
C1272 C1269 1.365 . S
C1272 C1271 1.366 . S
C1272 H1286 0.930 . S
C1273 C1270 1.378 . S
C1273 N1274 1.315 . S
C1273 H1276 0.930 . S
N1274 Co1254 2.194 . S
N1274 C1269 1.328 . S
N1274 C1273 1.315 . S
H1275 C1269 0.929 . S
H1276 C1273 0.930 . S
H1277 C1265 0.929 . S
H1278 C1267 0.929 . S
O1279 Co1254 2.351 . S
O1279 C1282 1.244 . S
O1280 Co1254 2.155 . S
O1280 C1282 1.240 . S
O1281 Co1254 2.096 . S
O1281 C1262 1.247 . S
C1282 O1279 1.244 . S
C1282 O1280 1.240 . S
H1283 C1257 0.931 . S
H1284 C1266 0.931 . S
H1285 C1270 0.929 . S
H1286 C1272 0.930 . S
Co1287 N1291 2.148 . S
Co1287 N1297 2.128 . S
Co1287 N1307 2.194 . S
Co1287 O1312 2.351 . S
Co1287 O1313 2.155 . S
Co1287 O1314 2.096 . S
C1288 N1291 1.301 . S
C1288 N1292 1.328 . S
C1288 H1293 0.930 . S
C1289 C1290 1.333 . S
C1289 N1291 1.317 . S
C1289 H1294 0.930 . S
C1290 C1289 1.333 . S
C1290 N1292 1.350 . S
C1290 H1316 0.931 . S
N1291 Co1287 2.148 . S
N1291 C1288 1.301 . S
N1291 C1289 1.317 . S
N1292 C1288 1.328 . S
N1292 C1290 1.350 . S
H1293 C1288 0.930 . S
H1294 C1289 0.930 . S
C1295 O1296 1.224 . S
C1295 O1314 1.247 . S
O1296 C1295 1.224 . S
N1297 Co1287 2.128 . S
N1297 C1298 1.355 . S
N1297 C1300 1.311 . S
C1298 N1297 1.355 . S
C1298 C1299 1.363 . S
C1298 H1310 0.929 . S
C1299 C1298 1.363 . S
C1299 N1301 1.375 . S
C1299 H1317 0.931 . S
C1300 N1297 1.311 . S
C1300 N1301 1.347 . S
C1300 H1311 0.929 . S
N1301 C1299 1.375 . S
N1301 C1300 1.347 . S
C1302 C1305 1.365 . S
C1302 N1307 1.328 . S
C1302 H1308 0.929 . S
C1303 C1304 1.362 . S
C1303 C1306 1.378 . S
C1303 H1318 0.929 . S
C1304 C1303 1.362 . S
C1304 C1305 1.366 . S
C1305 C1302 1.365 . S
C1305 C1304 1.366 . S
C1305 H1319 0.930 . S
C1306 C1303 1.378 . S
C1306 N1307 1.315 . S
C1306 H1309 0.930 . S
N1307 Co1287 2.194 . S
N1307 C1302 1.328 . S
N1307 C1306 1.315 . S
H1308 C1302 0.929 . S
H1309 C1306 0.930 . S
H1310 C1298 0.929 . S
H1311 C1300 0.929 . S
O1312 Co1287 2.351 . S
O1312 C1315 1.244 . S
O1313 Co1287 2.155 . S
O1313 C1315 1.240 . S
O1314 Co1287 2.096 . S
O1314 C1295 1.247 . S
C1315 O1312 1.244 . S
C1315 O1313 1.240 . S
H1316 C1290 0.931 . S
H1317 C1299 0.931 . S
H1318 C1303 0.929 . S
H1319 C1305 0.930 . S
Co1320 N1324 2.148 . S
Co1320 N1330 2.128 . S
Co1320 N1340 2.194 . S
Co1320 O1345 2.351 . S
Co1320 O1346 2.155 . S
Co1320 O1347 2.096 . S
C1321 N1324 1.301 . S
C1321 N1325 1.328 . S
C1321 H1326 0.930 . S
C1322 C1323 1.333 . S
C1322 N1324 1.317 . S
C1322 H1327 0.930 . S
C1323 C1322 1.333 . S
C1323 N1325 1.350 . S
C1323 H1349 0.931 . S
N1324 Co1320 2.148 . S
N1324 C1321 1.301 . S
N1324 C1322 1.317 . S
N1325 C1321 1.328 . S
N1325 C1323 1.350 . S
H1326 C1321 0.930 . S
H1327 C1322 0.930 . S
C1328 O1329 1.224 . S
C1328 O1347 1.247 . S
O1329 C1328 1.224 . S
N1330 Co1320 2.128 . S
N1330 C1331 1.355 . S
N1330 C1333 1.311 . S
C1331 N1330 1.355 . S
C1331 C1332 1.363 . S
C1331 H1343 0.929 . S
C1332 C1331 1.363 . S
C1332 N1334 1.375 . S
C1332 H1350 0.931 . S
C1333 N1330 1.311 . S
C1333 N1334 1.347 . S
C1333 H1344 0.929 . S
N1334 C1332 1.375 . S
N1334 C1333 1.347 . S
C1335 C1338 1.365 . S
C1335 N1340 1.328 . S
C1335 H1341 0.929 . S
C1336 C1337 1.362 . S
C1336 C1339 1.378 . S
C1336 H1351 0.929 . S
C1337 C1336 1.362 . S
C1337 C1338 1.366 . S
C1338 C1335 1.365 . S
C1338 C1337 1.366 . S
C1338 H1352 0.930 . S
C1339 C1336 1.378 . S
C1339 N1340 1.315 . S
C1339 H1342 0.930 . S
N1340 Co1320 2.194 . S
N1340 C1335 1.328 . S
N1340 C1339 1.315 . S
H1341 C1335 0.929 . S
H1342 C1339 0.930 . S
H1343 C1331 0.929 . S
H1344 C1333 0.929 . S
O1345 Co1320 2.351 . S
O1345 C1348 1.244 . S
O1346 Co1320 2.155 . S
O1346 C1348 1.240 . S
O1347 Co1320 2.096 . S
O1347 C1328 1.247 . S
C1348 O1345 1.244 . S
C1348 O1346 1.240 . S
H1349 C1323 0.931 . S
H1350 C1332 0.931 . S
H1351 C1336 0.929 . S
H1352 C1338 0.930 . S
Co1353 N1357 2.148 . S
Co1353 N1363 2.128 . S
Co1353 N1373 2.194 . S
Co1353 O1378 2.351 . S
Co1353 O1379 2.155 . S
Co1353 O1380 2.096 . S
C1354 N1357 1.301 . S
C1354 N1358 1.328 . S
C1354 H1359 0.930 . S
C1355 C1356 1.333 . S
C1355 N1357 1.317 . S
C1355 H1360 0.930 . S
C1356 C1355 1.333 . S
C1356 N1358 1.350 . S
C1356 H1382 0.931 . S
N1357 Co1353 2.148 . S
N1357 C1354 1.301 . S
N1357 C1355 1.317 . S
N1358 C1354 1.328 . S
N1358 C1356 1.350 . S
H1359 C1354 0.930 . S
H1360 C1355 0.930 . S
C1361 O1362 1.224 . S
C1361 O1380 1.247 . S
O1362 C1361 1.224 . S
N1363 Co1353 2.128 . S
N1363 C1364 1.355 . S
N1363 C1366 1.311 . S
C1364 N1363 1.355 . S
C1364 C1365 1.363 . S
C1364 H1376 0.929 . S
C1365 C1364 1.363 . S
C1365 N1367 1.375 . S
C1365 H1383 0.931 . S
C1366 N1363 1.311 . S
C1366 N1367 1.347 . S
C1366 H1377 0.929 . S
N1367 C1365 1.375 . S
N1367 C1366 1.347 . S
C1368 C1371 1.365 . S
C1368 N1373 1.328 . S
C1368 H1374 0.929 . S
C1369 C1370 1.362 . S
C1369 C1372 1.378 . S
C1369 H1384 0.929 . S
C1370 C1369 1.362 . S
C1370 C1371 1.366 . S
C1371 C1368 1.365 . S
C1371 C1370 1.366 . S
C1371 H1385 0.930 . S
C1372 C1369 1.378 . S
C1372 N1373 1.315 . S
C1372 H1375 0.930 . S
N1373 Co1353 2.194 . S
N1373 C1368 1.328 . S
N1373 C1372 1.315 . S
H1374 C1368 0.929 . S
H1375 C1372 0.930 . S
H1376 C1364 0.929 . S
H1377 C1366 0.929 . S
O1378 Co1353 2.351 . S
O1378 C1381 1.244 . S
O1379 Co1353 2.155 . S
O1379 C1381 1.240 . S
O1380 Co1353 2.096 . S
O1380 C1361 1.247 . S
C1381 O1378 1.244 . S
C1381 O1379 1.240 . S
H1382 C1356 0.931 . S
H1383 C1365 0.931 . S
H1384 C1369 0.929 . S
H1385 C1371 0.930 . S
Co1386 N1390 2.148 . S
Co1386 N1396 2.128 . S
Co1386 N1406 2.194 . S
Co1386 O1411 2.351 . S
Co1386 O1412 2.155 . S
Co1386 O1413 2.096 . S
C1387 N1390 1.301 . S
C1387 N1391 1.328 . S
C1387 H1392 0.930 . S
C1388 C1389 1.333 . S
C1388 N1390 1.317 . S
C1388 H1393 0.930 . S
C1389 C1388 1.333 . S
C1389 N1391 1.350 . S
C1389 H1415 0.931 . S
N1390 Co1386 2.148 . S
N1390 C1387 1.301 . S
N1390 C1388 1.317 . S
N1391 C1387 1.328 . S
N1391 C1389 1.350 . S
H1392 C1387 0.930 . S
H1393 C1388 0.930 . S
C1394 O1395 1.224 . S
C1394 O1413 1.247 . S
O1395 C1394 1.224 . S
N1396 Co1386 2.128 . S
N1396 C1397 1.355 . S
N1396 C1399 1.311 . S
C1397 N1396 1.355 . S
C1397 C1398 1.363 . S
C1397 H1409 0.929 . S
C1398 C1397 1.363 . S
C1398 N1400 1.375 . S
C1398 H1416 0.931 . S
C1399 N1396 1.311 . S
C1399 N1400 1.347 . S
C1399 H1410 0.929 . S
N1400 C1398 1.375 . S
N1400 C1399 1.347 . S
C1401 C1404 1.365 . S
C1401 N1406 1.328 . S
C1401 H1407 0.929 . S
C1402 C1403 1.362 . S
C1402 C1405 1.378 . S
C1402 H1417 0.929 . S
C1403 C1402 1.362 . S
C1403 C1404 1.366 . S
C1404 C1401 1.365 . S
C1404 C1403 1.366 . S
C1404 H1418 0.930 . S
C1405 C1402 1.378 . S
C1405 N1406 1.315 . S
C1405 H1408 0.930 . S
N1406 Co1386 2.194 . S
N1406 C1401 1.328 . S
N1406 C1405 1.315 . S
H1407 C1401 0.929 . S
H1408 C1405 0.930 . S
H1409 C1397 0.929 . S
H1410 C1399 0.929 . S
O1411 Co1386 2.351 . S
O1411 C1414 1.244 . S
O1412 Co1386 2.155 . S
O1412 C1414 1.240 . S
O1413 Co1386 2.096 . S
O1413 C1394 1.247 . S
C1414 O1411 1.244 . S
C1414 O1412 1.240 . S
H1415 C1389 0.931 . S
H1416 C1398 0.931 . S
H1417 C1402 0.929 . S
H1418 C1404 0.930 . S
Co1419 N1423 2.148 . S
Co1419 N1429 2.128 . S
Co1419 N1439 2.194 . S
Co1419 O1444 2.351 . S
Co1419 O1445 2.155 . S
Co1419 O1446 2.096 . S
C1420 N1423 1.301 . S
C1420 N1424 1.328 . S
C1420 H1425 0.930 . S
C1421 C1422 1.333 . S
C1421 N1423 1.317 . S
C1421 H1426 0.930 . S
C1422 C1421 1.333 . S
C1422 N1424 1.350 . S
C1422 H1448 0.931 . S
N1423 Co1419 2.148 . S
N1423 C1420 1.301 . S
N1423 C1421 1.317 . S
N1424 C1420 1.328 . S
N1424 C1422 1.350 . S
H1425 C1420 0.930 . S
H1426 C1421 0.930 . S
C1427 O1428 1.224 . S
C1427 O1446 1.247 . S
O1428 C1427 1.224 . S
N1429 Co1419 2.128 . S
N1429 C1430 1.355 . S
N1429 C1432 1.311 . S
C1430 N1429 1.355 . S
C1430 C1431 1.363 . S
C1430 H1442 0.929 . S
C1431 C1430 1.363 . S
C1431 N1433 1.375 . S
C1431 H1449 0.931 . S
C1432 N1429 1.311 . S
C1432 N1433 1.347 . S
C1432 H1443 0.929 . S
N1433 C1431 1.375 . S
N1433 C1432 1.347 . S
C1434 C1437 1.365 . S
C1434 N1439 1.328 . S
C1434 H1440 0.929 . S
C1435 C1436 1.362 . S
C1435 C1438 1.378 . S
C1435 H1450 0.929 . S
C1436 C1435 1.362 . S
C1436 C1437 1.366 . S
C1437 C1434 1.365 . S
C1437 C1436 1.366 . S
C1437 H1451 0.930 . S
C1438 C1435 1.378 . S
C1438 N1439 1.315 . S
C1438 H1441 0.930 . S
N1439 Co1419 2.194 . S
N1439 C1434 1.328 . S
N1439 C1438 1.315 . S
H1440 C1434 0.929 . S
H1441 C1438 0.930 . S
H1442 C1430 0.929 . S
H1443 C1432 0.929 . S
O1444 Co1419 2.351 . S
O1444 C1447 1.244 . S
O1445 Co1419 2.155 . S
O1445 C1447 1.240 . S
O1446 Co1419 2.096 . S
O1446 C1427 1.247 . S
C1447 O1444 1.244 . S
C1447 O1445 1.240 . S
H1448 C1422 0.931 . S
H1449 C1431 0.931 . S
H1450 C1435 0.929 . S
H1451 C1437 0.930 . S
Co1452 N1456 2.148 1_554 S
Co1452 N1462 2.128 . S
Co1452 N1472 2.194 . S
Co1452 O1477 2.351 1_554 S
Co1452 O1478 2.155 1_554 S
Co1452 O1479 2.096 . S
C1453 N1456 1.301 . S
C1453 N1457 1.328 . S
C1453 H1458 0.930 . S
C1454 C1455 1.333 . S
C1454 N1456 1.317 . S
C1454 H1459 0.930 1_556 S
C1455 C1454 1.333 . S
C1455 N1457 1.350 . S
C1455 H1481 0.931 . S
N1456 Co1452 2.148 1_556 S
N1456 C1453 1.301 . S
N1456 C1454 1.317 . S
N1457 C1453 1.328 . S
N1457 C1455 1.350 . S
H1458 C1453 0.930 . S
H1459 C1454 0.930 1_554 S
C1460 O1461 1.224 . S
C1460 O1479 1.247 . S
O1461 C1460 1.224 . S
N1462 Co1452 2.128 . S
N1462 C1463 1.355 . S
N1462 C1465 1.311 . S
C1463 N1462 1.355 . S
C1463 C1464 1.363 . S
C1463 H1475 0.929 . S
C1464 C1463 1.363 . S
C1464 N1466 1.375 . S
C1464 H1482 0.931 . S
C1465 N1462 1.311 . S
C1465 N1466 1.347 . S
C1465 H1476 0.929 . S
N1466 C1464 1.375 . S
N1466 C1465 1.347 . S
C1467 C1470 1.365 . S
C1467 N1472 1.328 1_556 S
C1467 H1473 0.929 . S
C1468 C1469 1.362 . S
C1468 C1471 1.378 . S
C1468 H1483 0.929 . S
C1469 C1468 1.362 . S
C1469 C1470 1.366 1_554 S
C1470 C1467 1.365 . S
C1470 C1469 1.366 1_556 S
C1470 H1484 0.930 . S
C1471 C1468 1.378 . S
C1471 N1472 1.315 . S
C1471 H1474 0.930 . S
N1472 Co1452 2.194 . S
N1472 C1467 1.328 1_554 S
N1472 C1471 1.315 . S
H1473 C1467 0.929 . S
H1474 C1471 0.930 . S
H1475 C1463 0.929 . S
H1476 C1465 0.929 . S
O1477 Co1452 2.351 1_556 S
O1477 C1480 1.244 . S
O1478 Co1452 2.155 1_556 S
O1478 C1480 1.240 . S
O1479 Co1452 2.096 . S
O1479 C1460 1.247 . S
C1480 O1477 1.244 . S
C1480 O1478 1.240 . S
H1481 C1455 0.931 . S
H1482 C1464 0.931 . S
H1483 C1468 0.929 . S
H1484 C1470 0.930 . S
Co1485 N1489 2.148 1_554 S
Co1485 N1495 2.128 . S
Co1485 N1505 2.194 . S
Co1485 O1510 2.351 1_554 S
Co1485 O1511 2.155 1_554 S
Co1485 O1512 2.096 . S
C1486 N1489 1.301 . S
C1486 N1490 1.328 . S
C1486 H1491 0.930 . S
C1487 C1488 1.333 . S
C1487 N1489 1.317 . S
C1487 H1492 0.887 1_556 S
C1488 C1487 1.333 . S
C1488 N1490 1.350 . S
C1488 H1514 0.931 . S
N1489 Co1485 2.148 1_556 S
N1489 C1486 1.301 . S
N1489 C1487 1.317 . S
N1490 C1486 1.328 . S
N1490 C1488 1.350 . S
H1491 C1486 0.930 . S
H1492 C1487 0.887 1_554 S
C1493 O1494 1.224 . S
C1493 O1512 1.247 . S
O1494 C1493 1.224 . S
N1495 Co1485 2.128 . S
N1495 C1496 1.355 . S
N1495 C1498 1.311 . S
C1496 N1495 1.355 . S
C1496 C1497 1.363 . S
C1496 H1508 0.929 . S
C1497 C1496 1.363 . S
C1497 N1499 1.375 . S
C1497 H1515 0.931 . S
C1498 N1495 1.311 . S
C1498 N1499 1.347 . S
C1498 H1509 0.929 . S
N1499 C1497 1.375 . S
N1499 C1498 1.347 . S
C1500 C1503 1.365 . S
C1500 N1505 1.328 1_556 S
C1500 H1506 0.929 . S
C1501 C1502 1.362 . S
C1501 C1504 1.378 . S
C1501 H1516 0.929 . S
C1502 C1501 1.362 . S
C1502 C1503 1.366 1_554 S
C1503 C1500 1.365 . S
C1503 C1502 1.366 1_556 S
C1503 H1517 0.930 . S
C1504 C1501 1.378 . S
C1504 N1505 1.315 . S
C1504 H1507 0.930 . S
N1505 Co1485 2.194 . S
N1505 C1500 1.328 1_554 S
N1505 C1504 1.315 . S
H1506 C1500 0.929 . S
H1507 C1504 0.930 . S
H1508 C1496 0.929 . S
H1509 C1498 0.929 . S
O1510 Co1485 2.351 1_556 S
O1510 C1513 1.244 . S
O1511 Co1485 2.155 1_556 S
O1511 C1513 1.240 . S
O1512 Co1485 2.096 . S
O1512 C1493 1.247 . S
C1513 O1510 1.244 . S
C1513 O1511 1.240 . S
H1514 C1488 0.931 . S
H1515 C1497 0.931 . S
H1516 C1501 0.929 . S
H1517 C1503 0.930 . S
Co1518 N1522 2.148 . S
Co1518 N1528 2.128 1_554 S
Co1518 N1538 2.194 . S
Co1518 O1543 2.351 . S
Co1518 O1544 2.155 . S
Co1518 O1545 2.096 1_554 S
C1519 N1522 1.301 . S
C1519 N1523 1.328 . S
C1519 H1524 0.930 . S
C1520 C1521 1.333 . S
C1520 N1522 1.317 . S
C1520 H1525 0.930 . S
C1521 C1520 1.333 . S
C1521 N1523 1.350 . S
C1521 H1547 0.931 . S
N1522 Co1518 2.148 . S
N1522 C1519 1.301 . S
N1522 C1520 1.317 . S
N1523 C1519 1.328 . S
N1523 C1521 1.350 . S
H1524 C1519 0.930 . S
H1525 C1520 0.930 . S
C1526 O1527 1.224 . S
C1526 O1545 1.247 . S
O1527 C1526 1.224 . S
N1528 Co1518 2.128 1_556 S
N1528 C1529 1.355 . S
N1528 C1531 1.311 . S
C1529 N1528 1.355 . S
C1529 C1530 1.363 . S
C1529 H1541 0.929 . S
C1530 C1529 1.363 . S
C1530 N1532 1.375 . S
C1530 H1548 0.931 . S
C1531 N1528 1.311 . S
C1531 N1532 1.347 . S
C1531 H1542 0.929 . S
N1532 C1530 1.375 . S
N1532 C1531 1.347 . S
C1533 C1536 1.365 . S
C1533 N1538 1.328 . S
C1533 H1539 0.929 . S
C1534 C1535 1.362 1_556 S
C1534 C1537 1.378 . S
C1534 H1549 0.929 . S
C1535 C1534 1.362 1_554 S
C1535 C1536 1.366 . S
C1536 C1533 1.365 . S
C1536 C1535 1.366 . S
C1536 H1550 0.930 . S
C1537 C1534 1.378 . S
C1537 N1538 1.315 1_556 S
C1537 H1540 0.930 . S
N1538 Co1518 2.194 . S
N1538 C1533 1.328 . S
N1538 C1537 1.315 1_554 S
H1539 C1533 0.929 . S
H1540 C1537 0.930 . S
H1541 C1529 0.929 . S
H1542 C1531 0.929 . S
O1543 Co1518 2.351 . S
O1543 C1546 1.244 . S
O1544 Co1518 2.155 . S
O1544 C1546 1.240 . S
O1545 Co1518 2.096 1_556 S
O1545 C1526 1.247 . S
C1546 O1543 1.244 . S
C1546 O1544 1.240 . S
H1547 C1521 0.931 . S
H1548 C1530 0.931 . S
H1549 C1534 0.929 . S
H1550 C1536 0.930 . S
Co1551 N1555 2.148 . S
Co1551 N1561 2.128 1_554 S
Co1551 N1571 2.194 . S
Co1551 O1576 2.351 . S
Co1551 O1577 2.155 . S
Co1551 O1578 2.096 1_554 S
C1552 N1555 1.301 . S
C1552 N1556 1.328 . S
C1552 H1557 0.930 . S
C1553 C1554 1.333 . S
C1553 N1555 1.317 . S
C1553 H1558 0.930 . S
C1554 C1553 1.333 . S
C1554 N1556 1.350 . S
C1554 H1580 0.931 . S
N1555 Co1551 2.148 . S
N1555 C1552 1.301 . S
N1555 C1553 1.317 . S
N1556 C1552 1.328 . S
N1556 C1554 1.350 . S
H1557 C1552 0.930 . S
H1558 C1553 0.930 . S
C1559 O1560 1.224 . S
C1559 O1578 1.247 . S
O1560 C1559 1.224 . S
N1561 Co1551 2.128 1_556 S
N1561 C1562 1.355 . S
N1561 C1564 1.311 . S
C1562 N1561 1.355 . S
C1562 C1563 1.363 . S
C1562 H1574 0.929 . S
C1563 C1562 1.363 . S
C1563 N1565 1.375 . S
C1563 H1581 0.931 . S
C1564 N1561 1.311 . S
C1564 N1565 1.347 . S
C1564 H1575 0.929 . S
N1565 C1563 1.375 . S
N1565 C1564 1.347 . S
C1566 C1569 1.365 . S
C1566 N1571 1.328 . S
C1566 H1572 0.929 . S
C1567 C1568 1.362 1_556 S
C1567 C1570 1.378 . S
C1567 H1582 0.929 . S
C1568 C1567 1.362 1_554 S
C1568 C1569 1.366 . S
C1569 C1566 1.365 . S
C1569 C1568 1.366 . S
C1569 H1583 0.930 . S
C1570 C1567 1.378 . S
C1570 N1571 1.315 1_556 S
C1570 H1573 0.930 . S
N1571 Co1551 2.194 . S
N1571 C1566 1.328 . S
N1571 C1570 1.315 1_554 S
H1572 C1566 0.929 . S
H1573 C1570 0.930 . S
H1574 C1562 0.929 . S
H1575 C1564 0.929 . S
O1576 Co1551 2.351 . S
O1576 C1579 1.244 . S
O1577 Co1551 2.155 . S
O1577 C1579 1.240 . S
O1578 Co1551 2.096 1_556 S
O1578 C1559 1.247 . S
C1579 O1576 1.244 . S
C1579 O1577 1.240 . S
H1580 C1554 0.931 . S
H1581 C1563 0.931 . S
H1582 C1567 0.929 . S
H1583 C1569 0.930 . S
H1584 C1592 0.950 . S
H1585 C1597 0.950 . S
H1586 C1594 0.950 . S
H1587 C1596 0.950 . S
H1588 C1598 0.950 . S
H1589 C1600 0.950 . S
H1590 C1602 0.950 . S
H1591 C1603 0.950 . S
C1592 H1584 0.950 . S
C1592 C1593 1.386 1_655 S
C1592 C1594 1.391 . S
C1593 C1592 1.386 1_455 S
C1593 C1597 1.393 . S
C1594 H1586 0.950 . S
C1594 C1592 1.391 . S
C1594 C1595 1.400 1_655 S
C1595 C1594 1.400 1_455 S
C1595 C1596 1.398 . S
C1595 C1601 1.491 . S
C1596 H1587 0.950 . S
C1596 C1595 1.398 . S
C1596 C1597 1.391 . S
C1597 H1585 0.950 . S
C1597 C1593 1.393 . S
C1597 C1596 1.391 . S
C1598 H1588 0.950 . S
C1598 C1599 1.386 . S
C1598 C1600 1.391 . S
C1599 C1598 1.386 . S
C1599 C1603 1.393 1_455 S
C1600 H1589 0.950 . S
C1600 C1598 1.391 . S
C1600 C1601 1.400 . S
C1601 C1595 1.491 . S
C1601 C1600 1.400 . S
C1601 C1602 1.398 1_455 S
C1602 H1590 0.950 . S
C1602 C1601 1.398 1_655 S
C1602 C1603 1.391 . S
C1603 H1591 0.950 . S
C1603 C1599 1.393 1_655 S
C1603 C1602 1.391 . S
H1604 C1612 0.950 . S
H1605 C1617 0.950 . S
H1606 C1614 0.950 . S
H1607 C1616 0.950 . S
H1608 C1618 0.950 . S
H1609 C1620 0.950 . S
H1610 C1622 0.950 . S
H1611 C1623 0.950 . S
C1612 H1604 0.950 . S
C1612 C1613 1.386 . S
C1612 C1614 1.391 . S
C1613 C1612 1.386 . S
C1613 C1617 1.393 . S
C1614 H1606 0.950 . S
C1614 C1612 1.391 . S
C1614 C1615 1.400 . S
C1615 C1614 1.400 . S
C1615 C1616 1.398 . S
C1615 C1621 1.491 . S
C1616 H1607 0.950 . S
C1616 C1615 1.398 . S
C1616 C1617 1.391 . S
C1617 H1605 0.950 . S
C1617 C1613 1.393 . S
C1617 C1616 1.391 . S
C1618 H1608 0.950 . S
C1618 C1619 1.386 . S
C1618 C1620 1.391 . S
C1619 C1618 1.386 . S
C1619 C1623 1.393 . S
C1620 H1609 0.950 . S
C1620 C1618 1.391 . S
C1620 C1621 1.400 . S
C1621 C1615 1.491 . S
C1621 C1620 1.400 . S
C1621 C1622 1.398 . S
C1622 H1610 0.950 . S
C1622 C1621 1.398 . S
C1622 C1623 1.391 . S
C1623 H1611 0.950 . S
C1623 C1619 1.393 . S
C1623 C1622 1.391 . S
H1624 C1632 0.950 . S
H1625 C1637 0.950 . S
H1626 C1634 0.950 . S
H1627 C1636 0.950 . S
H1628 C1638 0.950 . S
H1629 C1640 0.950 . S
H1630 C1642 0.950 . S
H1631 C1643 0.950 . S
C1632 H1624 0.950 . S
C1632 C1633 1.386 1_655 S
C1632 C1634 1.391 . S
C1633 C1632 1.386 1_455 S
C1633 C1637 1.393 . S
C1634 H1626 0.950 . S
C1634 C1632 1.391 . S
C1634 C1635 1.400 1_655 S
C1635 C1634 1.400 1_455 S
C1635 C1636 1.398 . S
C1635 C1641 1.491 . S
C1636 H1627 0.950 . S
C1636 C1635 1.398 . S
C1636 C1637 1.391 . S
C1637 H1625 0.950 . S
C1637 C1633 1.393 . S
C1637 C1636 1.391 . S
C1638 H1628 0.950 . S
C1638 C1639 1.386 . S
C1638 C1640 1.391 . S
C1639 C1638 1.386 . S
C1639 C1643 1.393 1_455 S
C1640 H1629 0.950 . S
C1640 C1638 1.391 . S
C1640 C1641 1.400 . S
C1641 C1635 1.491 . S
C1641 C1640 1.400 . S
C1641 C1642 1.398 1_455 S
C1642 H1630 0.950 . S
C1642 C1641 1.398 1_655 S
C1642 C1643 1.391 . S
C1643 H1631 0.950 . S
C1643 C1639 1.393 1_655 S
C1643 C1642 1.391 . S
H1644 C1652 0.950 . S
H1645 C1657 0.950 . S
H1646 C1654 0.950 . S
H1647 C1656 0.950 . S
H1648 C1658 0.950 . S
H1649 C1660 0.950 . S
H1650 C1662 0.950 . S
H1651 C1663 0.950 . S
C1652 H1644 0.950 . S
C1652 C1653 1.386 1_565 S
C1652 C1654 1.391 . S
C1653 C1652 1.386 1_545 S
C1653 C1657 1.393 . S
C1654 H1646 0.950 . S
C1654 C1652 1.391 . S
C1654 C1655 1.400 1_565 S
C1655 C1654 1.400 1_545 S
C1655 C1656 1.398 . S
C1655 C1661 1.491 . S
C1656 H1647 0.950 . S
C1656 C1655 1.398 . S
C1656 C1657 1.391 . S
C1657 H1645 0.950 . S
C1657 C1653 1.393 . S
C1657 C1656 1.391 . S
C1658 H1648 0.950 . S
C1658 C1659 1.386 . S
C1658 C1660 1.391 . S
C1659 C1658 1.386 . S
C1659 C1663 1.393 1_545 S
C1660 H1649 0.950 . S
C1660 C1658 1.391 . S
C1660 C1661 1.400 . S
C1661 C1655 1.491 . S
C1661 C1660 1.400 . S
C1661 C1662 1.398 1_545 S
C1662 H1650 0.950 . S
C1662 C1661 1.398 1_565 S
C1662 C1663 1.391 . S
C1663 H1651 0.950 . S
C1663 C1659 1.393 1_565 S
C1663 C1662 1.391 . S
H1664 C1672 0.950 . S
H1665 C1677 0.950 . S
H1666 C1674 0.950 . S
H1667 C1676 0.950 . S
H1668 C1678 0.950 . S
H1669 C1680 0.950 . S
H1670 C1682 0.950 . S
H1671 C1683 0.950 . S
C1672 H1664 0.950 . S
C1672 C1673 1.386 1_655 S
C1672 C1674 1.391 . S
C1673 C1672 1.386 1_455 S
C1673 C1677 1.393 . S
C1674 H1666 0.950 . S
C1674 C1672 1.391 . S
C1674 C1675 1.400 1_655 S
C1675 C1674 1.400 1_455 S
C1675 C1676 1.398 . S
C1675 C1681 1.491 . S
C1676 H1667 0.950 . S
C1676 C1675 1.398 . S
C1676 C1677 1.391 . S
C1677 H1665 0.950 . S
C1677 C1673 1.393 . S
C1677 C1676 1.391 . S
C1678 H1668 0.950 . S
C1678 C1679 1.386 . S
C1678 C1680 1.391 . S
C1679 C1678 1.386 . S
C1679 C1683 1.393 1_455 S
C1680 H1669 0.950 . S
C1680 C1678 1.391 . S
C1680 C1681 1.400 . S
C1681 C1675 1.491 . S
C1681 C1680 1.400 . S
C1681 C1682 1.398 1_455 S
C1682 H1670 0.950 . S
C1682 C1681 1.398 1_655 S
C1682 C1683 1.391 . S
C1683 H1671 0.950 . S
C1683 C1679 1.393 1_655 S
C1683 C1682 1.391 . S
H1684 C1692 0.950 . S
H1685 C1697 0.950 . S
H1686 C1694 0.950 . S
H1687 C1696 0.950 . S
H1688 C1698 0.950 . S
H1689 C1700 0.950 . S
H1690 C1702 0.950 . S
H1691 C1703 0.950 . S
C1692 H1684 0.950 . S
C1692 C1693 1.386 1_565 S
C1692 C1694 1.391 . S
C1693 C1692 1.386 1_545 S
C1693 C1697 1.393 . S
C1694 H1686 0.950 . S
C1694 C1692 1.391 . S
C1694 C1695 1.400 1_565 S
C1695 C1694 1.400 1_545 S
C1695 C1696 1.398 . S
C1695 C1701 1.491 . S
C1696 H1687 0.950 . S
C1696 C1695 1.398 . S
C1696 C1697 1.391 . S
C1697 H1685 0.950 . S
C1697 C1693 1.393 . S
C1697 C1696 1.391 . S
C1698 H1688 0.950 . S
C1698 C1699 1.386 . S
C1698 C1700 1.391 . S
C1699 C1698 1.386 . S
C1699 C1703 1.393 1_545 S
C1700 H1689 0.950 . S
C1700 C1698 1.391 . S
C1700 C1701 1.400 . S
C1701 C1695 1.491 . S
C1701 C1700 1.400 . S
C1701 C1702 1.398 1_545 S
C1702 H1690 0.950 . S
C1702 C1701 1.398 1_565 S
C1702 C1703 1.391 . S
C1703 H1691 0.950 . S
C1703 C1699 1.393 1_565 S
C1703 C1702 1.391 . S
H1704 C1712 0.950 . S
H1705 C1717 0.950 . S
H1706 C1714 0.950 . S
H1707 C1716 0.950 . S
H1708 C1718 0.950 . S
H1709 C1720 0.950 . S
H1710 C1722 0.950 . S
H1711 C1723 0.950 . S
C1712 H1704 0.950 . S
C1712 C1713 1.386 . S
C1712 C1714 1.391 . S
C1713 C1712 1.386 . S
C1713 C1717 1.393 1_455 S
C1714 H1706 0.950 . S
C1714 C1712 1.391 . S
C1714 C1715 1.400 . S
C1715 C1714 1.400 . S
C1715 C1716 1.398 1_455 S
C1715 C1721 1.491 . S
C1716 H1707 0.950 . S
C1716 C1715 1.398 1_655 S
C1716 C1717 1.391 . S
C1717 H1705 0.950 . S
C1717 C1713 1.393 1_655 S
C1717 C1716 1.391 . S
C1718 H1708 0.950 . S
C1718 C1719 1.386 1_655 S
C1718 C1720 1.391 . S
C1719 C1718 1.386 1_455 S
C1719 C1723 1.393 . S
C1720 H1709 0.950 . S
C1720 C1718 1.391 . S
C1720 C1721 1.400 1_655 S
C1721 C1715 1.491 . S
C1721 C1720 1.400 1_455 S
C1721 C1722 1.398 . S
C1722 H1710 0.950 . S
C1722 C1721 1.398 . S
C1722 C1723 1.391 . S
C1723 H1711 0.950 . S
C1723 C1719 1.393 . S
C1723 C1722 1.391 . S
H1724 C1732 0.946 1_565 S
H1725 C1737 0.950 . S
H1726 C1734 0.950 1_565 S
H1727 C1736 0.950 . S
H1728 C1738 0.950 . S
H1729 C1740 0.950 . S
H1730 C1742 0.948 1_565 S
H1731 C1743 0.949 . S
C1732 H1724 0.946 1_545 S
C1732 C1733 1.386 . S
C1732 C1734 1.391 . S
C1733 C1732 1.386 . S
C1733 C1737 1.393 . S
C1734 H1726 0.950 1_545 S
C1734 C1732 1.391 . S
C1734 C1735 1.400 . S
C1735 C1734 1.400 . S
C1735 C1736 1.398 . S
C1735 C1741 1.491 . S
C1736 H1727 0.950 . S
C1736 C1735 1.398 . S
C1736 C1737 1.391 . S
C1737 H1725 0.950 . S
C1737 C1733 1.393 . S
C1737 C1736 1.391 . S
C1738 H1728 0.950 . S
C1738 C1739 1.386 . S
C1738 C1740 1.391 . S
C1739 C1738 1.386 . S
C1739 C1743 1.393 1_545 S
C1740 H1729 0.950 . S
C1740 C1738 1.391 . S
C1740 C1741 1.400 . S
C1741 C1735 1.491 . S
C1741 C1740 1.400 . S
C1741 C1742 1.401 . S
C1742 H1730 0.948 1_545 S
C1742 C1741 1.401 . S
C1742 C1743 1.391 1_545 S
C1743 H1731 0.949 . S
C1743 C1739 1.393 1_565 S
C1743 C1742 1.391 1_565 S
H1744 C1752 0.950 . S
H1745 C1757 0.950 . S
H1746 C1754 0.950 . S
H1747 C1756 0.950 . S
H1748 C1758 0.950 . S
H1749 C1760 0.950 . S
H1750 C1762 0.950 . S
H1751 C1763 0.950 . S
C1752 H1744 0.950 . S
C1752 C1753 1.386 1_556 S
C1752 C1754 1.391 . S
C1753 C1752 1.386 1_554 S
C1753 C1757 1.393 . S
C1754 H1746 0.950 . S
C1754 C1752 1.391 . S
C1754 C1755 1.400 1_556 S
C1755 C1754 1.400 1_554 S
C1755 C1756 1.398 . S
C1755 C1761 1.491 . S
C1756 H1747 0.950 . S
C1756 C1755 1.398 . S
C1756 C1757 1.391 . S
C1757 H1745 0.950 . S
C1757 C1753 1.393 . S
C1757 C1756 1.391 . S
C1758 H1748 0.950 . S
C1758 C1759 1.386 . S
C1758 C1760 1.391 . S
C1759 C1758 1.386 . S
C1759 C1763 1.393 1_554 S
C1760 H1749 0.950 . S
C1760 C1758 1.391 . S
C1760 C1761 1.400 . S
C1761 C1755 1.491 . S
C1761 C1760 1.400 . S
C1761 C1762 1.398 1_554 S
C1762 H1750 0.950 . S
C1762 C1761 1.398 1_556 S
C1762 C1763 1.391 . S
C1763 H1751 0.950 . S
C1763 C1759 1.393 1_556 S
C1763 C1762 1.391 . S
H1764 C1772 0.950 . S
H1765 C1777 0.950 . S
H1766 C1774 0.950 . S
H1767 C1776 0.950 . S
H1768 C1778 0.950 . S
H1769 C1780 0.950 . S
H1770 C1782 0.950 . S
H1771 C1783 0.950 . S
C1772 H1764 0.950 . S
C1772 C1773 1.386 1_556 S
C1772 C1774 1.391 . S
C1773 C1772 1.386 1_554 S
C1773 C1777 1.393 . S
C1774 H1766 0.950 . S
C1774 C1772 1.391 . S
C1774 C1775 1.400 1_556 S
C1775 C1774 1.400 1_554 S
C1775 C1776 1.398 . S
C1775 C1781 1.491 . S
C1776 H1767 0.950 . S
C1776 C1775 1.398 . S
C1776 C1777 1.391 . S
C1777 H1765 0.950 . S
C1777 C1773 1.393 . S
C1777 C1776 1.391 . S
C1778 H1768 0.950 . S
C1778 C1779 1.386 . S
C1778 C1780 1.391 . S
C1779 C1778 1.386 . S
C1779 C1783 1.393 1_554 S
C1780 H1769 0.950 . S
C1780 C1778 1.391 . S
C1780 C1781 1.400 . S
C1781 C1775 1.491 . S
C1781 C1780 1.400 . S
C1781 C1782 1.398 1_554 S
C1782 H1770 0.950 . S
C1782 C1781 1.398 1_556 S
C1782 C1783 1.391 . S
C1783 H1771 0.950 . S
C1783 C1779 1.393 1_556 S
C1783 C1782 1.391 . S
H1784 C1792 0.950 . S
H1785 C1797 0.950 . S
H1786 C1794 0.950 . S
H1787 C1796 0.950 . S
H1788 C1798 0.950 . S
H1789 C1800 0.950 . S
H1790 C1802 0.950 . S
H1791 C1803 0.950 . S
C1792 H1784 0.950 . S
C1792 C1793 1.386 1_556 S
C1792 C1794 1.391 . S
C1793 C1792 1.386 1_554 S
C1793 C1797 1.393 . S
C1794 H1786 0.950 . S
C1794 C1792 1.391 . S
C1794 C1795 1.400 1_556 S
C1795 C1794 1.400 1_554 S
C1795 C1796 1.398 . S
C1795 C1801 1.491 . S
C1796 H1787 0.950 . S
C1796 C1795 1.398 . S
C1796 C1797 1.391 . S
C1797 H1785 0.950 . S
C1797 C1793 1.393 . S
C1797 C1796 1.391 . S
C1798 H1788 0.950 . S
C1798 C1799 1.386 . S
C1798 C1800 1.391 . S
C1799 C1798 1.386 . S
C1799 C1803 1.393 1_554 S
C1800 H1789 0.950 . S
C1800 C1798 1.391 . S
C1800 C1801 1.400 . S
C1801 C1795 1.491 . S
C1801 C1800 1.400 . S
C1801 C1802 1.398 1_554 S
C1802 H1790 0.950 . S
C1802 C1801 1.398 1_556 S
C1802 C1803 1.391 . S
C1803 H1791 0.950 . S
C1803 C1799 1.393 1_556 S
C1803 C1802 1.391 . S
H1804 C1812 0.950 . S
H1805 C1817 0.950 . S
H1806 C1814 0.950 . S
H1807 C1816 0.950 . S
H1808 C1818 0.950 . S
H1809 C1820 0.950 . S
H1810 C1822 0.950 . S
H1811 C1823 0.950 . S
C1812 H1804 0.950 . S
C1812 C1813 1.386 . S
C1812 C1814 1.391 . S
C1813 C1812 1.386 . S
C1813 C1817 1.393 1_554 S
C1814 H1806 0.950 . S
C1814 C1812 1.391 . S
C1814 C1815 1.400 . S
C1815 C1814 1.400 . S
C1815 C1816 1.398 1_554 S
C1815 C1821 1.491 . S
C1816 H1807 0.950 . S
C1816 C1815 1.398 1_556 S
C1816 C1817 1.391 . S
C1817 H1805 0.950 . S
C1817 C1813 1.393 1_556 S
C1817 C1816 1.391 . S
C1818 H1808 0.950 . S
C1818 C1819 1.386 1_556 S
C1818 C1820 1.391 . S
C1819 C1818 1.386 1_554 S
C1819 C1823 1.393 . S
C1820 H1809 0.950 . S
C1820 C1818 1.391 . S
C1820 C1821 1.400 1_556 S
C1821 C1815 1.491 . S
C1821 C1820 1.400 1_554 S
C1821 C1822 1.398 . S
C1822 H1810 0.950 . S
C1822 C1821 1.398 . S
C1822 C1823 1.391 . S
C1823 H1811 0.950 . S
C1823 C1819 1.393 . S
C1823 C1822 1.391 . S
H1824 C1832 0.950 . S
H1825 C1837 0.950 . S
H1826 C1834 0.950 . S
H1827 C1836 0.950 . S
H1828 C1838 0.950 . S
H1829 C1840 0.950 . S
H1830 C1842 0.950 . S
H1831 C1843 0.950 . S
C1832 H1824 0.950 . S
C1832 C1833 1.386 . S
C1832 C1834 1.391 . S
C1833 C1832 1.386 . S
C1833 C1837 1.393 . S
C1834 H1826 0.950 . S
C1834 C1832 1.391 . S
C1834 C1835 1.400 . S
C1835 C1834 1.400 . S
C1835 C1836 1.398 . S
C1835 C1841 1.491 . S
C1836 H1827 0.950 . S
C1836 C1835 1.398 . S
C1836 C1837 1.391 . S
C1837 H1825 0.950 . S
C1837 C1833 1.393 . S
C1837 C1836 1.391 . S
C1838 H1828 0.950 . S
C1838 C1839 1.386 . S
C1838 C1840 1.391 . S
C1839 C1838 1.386 . S
C1839 C1843 1.393 . S
C1840 H1829 0.950 . S
C1840 C1838 1.391 . S
C1840 C1841 1.400 . S
C1841 C1835 1.491 . S
C1841 C1840 1.400 . S
C1841 C1842 1.398 . S
C1842 H1830 0.950 . S
C1842 C1841 1.398 . S
C1842 C1843 1.391 . S
C1843 H1831 0.950 . S
C1843 C1839 1.393 . S
C1843 C1842 1.391 . S
H1844 C1852 0.950 . S
H1845 C1857 0.950 . S
H1846 C1854 0.950 . S
H1847 C1856 0.950 . S
H1848 C1858 0.950 . S
H1849 C1860 0.950 . S
H1850 C1862 0.950 . S
H1851 C1863 0.950 . S
C1852 H1844 0.950 . S
C1852 C1853 1.386 . S
C1852 C1854 1.391 . S
C1853 C1852 1.386 . S
C1853 C1857 1.393 . S
C1854 H1846 0.950 . S
C1854 C1852 1.391 . S
C1854 C1855 1.400 . S
C1855 C1854 1.400 . S
C1855 C1856 1.398 . S
C1855 C1861 1.491 . S
C1856 H1847 0.950 . S
C1856 C1855 1.398 . S
C1856 C1857 1.391 . S
C1857 H1845 0.950 . S
C1857 C1853 1.393 . S
C1857 C1856 1.391 . S
C1858 H1848 0.950 . S
C1858 C1859 1.386 . S
C1858 C1860 1.391 . S
C1859 C1858 1.386 . S
C1859 C1863 1.393 . S
C1860 H1849 0.950 . S
C1860 C1858 1.391 . S
C1860 C1861 1.400 . S
C1861 C1855 1.491 . S
C1861 C1860 1.400 . S
C1861 C1862 1.398 . S
C1862 H1850 0.950 . S
C1862 C1861 1.398 . S
C1862 C1863 1.391 . S
C1863 H1851 0.950 . S
C1863 C1859 1.393 . S
C1863 C1862 1.391 . S
H1864 C1872 0.950 . S
H1865 C1877 0.950 . S
H1866 C1874 0.950 . S
H1867 C1876 0.950 . S
H1868 C1878 0.950 . S
H1869 C1880 0.950 . S
H1870 C1882 0.950 . S
H1871 C1883 0.950 . S
C1872 H1864 0.950 . S
C1872 C1873 1.386 . S
C1872 C1874 1.391 . S
C1873 C1872 1.386 . S
C1873 C1877 1.393 . S
C1874 H1866 0.950 . S
C1874 C1872 1.391 . S
C1874 C1875 1.400 . S
C1875 C1874 1.400 . S
C1875 C1876 1.398 . S
C1875 C1881 1.491 . S
C1876 H1867 0.950 . S
C1876 C1875 1.398 . S
C1876 C1877 1.391 . S
C1877 H1865 0.950 . S
C1877 C1873 1.393 . S
C1877 C1876 1.391 . S
C1878 H1868 0.950 . S
C1878 C1879 1.386 . S
C1878 C1880 1.391 . S
C1879 C1878 1.386 . S
C1879 C1883 1.393 . S
C1880 H1869 0.950 . S
C1880 C1878 1.391 . S
C1880 C1881 1.400 . S
C1881 C1875 1.491 . S
C1881 C1880 1.400 . S
C1881 C1882 1.398 . S
C1882 H1870 0.950 . S
C1882 C1881 1.398 . S
C1882 C1883 1.391 . S
C1883 H1871 0.950 . S
C1883 C1879 1.393 . S
C1883 C1882 1.391 . S
H1884 C1892 0.950 . S
H1885 C1897 0.950 . S
H1886 C1894 0.950 . S
H1887 C1896 0.950 . S
H1888 C1898 0.950 . S
H1889 C1900 0.950 . S
H1890 C1902 0.950 . S
H1891 C1903 0.950 . S
C1892 H1884 0.950 . S
C1892 C1893 1.386 . S
C1892 C1894 1.391 . S
C1893 C1892 1.386 . S
C1893 C1897 1.393 . S
C1894 H1886 0.950 . S
C1894 C1892 1.391 . S
C1894 C1895 1.400 . S
C1895 C1894 1.400 . S
C1895 C1896 1.398 . S
C1895 C1901 1.491 . S
C1896 H1887 0.950 . S
C1896 C1895 1.398 . S
C1896 C1897 1.391 . S
C1897 H1885 0.950 . S
C1897 C1893 1.393 . S
C1897 C1896 1.391 . S
C1898 H1888 0.950 . S
C1898 C1899 1.386 . S
C1898 C1900 1.391 . S
C1899 C1898 1.386 . S
C1899 C1903 1.393 . S
C1900 H1889 0.950 . S
C1900 C1898 1.391 . S
C1900 C1901 1.400 . S
C1901 C1895 1.491 . S
C1901 C1900 1.400 . S
C1901 C1902 1.398 . S
C1902 H1890 0.950 . S
C1902 C1901 1.398 . S
C1902 C1903 1.391 . S
C1903 H1891 0.950 . S
C1903 C1899 1.393 . S
C1903 C1902 1.391 . S
H1904 C1912 0.950 . S
H1905 C1917 0.950 . S
H1906 C1914 0.950 . S
H1907 C1916 0.950 . S
H1908 C1918 0.950 . S
H1909 C1920 0.950 . S
H1910 C1922 0.950 . S
H1911 C1923 0.950 . S
C1912 H1904 0.950 . S
C1912 C1913 1.386 . S
C1912 C1914 1.391 . S
C1913 C1912 1.386 . S
C1913 C1917 1.393 . S
C1914 H1906 0.950 . S
C1914 C1912 1.391 . S
C1914 C1915 1.400 . S
C1915 C1914 1.400 . S
C1915 C1916 1.398 . S
C1915 C1921 1.491 . S
C1916 H1907 0.950 . S
C1916 C1915 1.398 . S
C1916 C1917 1.391 . S
C1917 H1905 0.950 . S
C1917 C1913 1.393 . S
C1917 C1916 1.391 . S
C1918 H1908 0.950 . S
C1918 C1919 1.386 . S
C1918 C1920 1.391 . S
C1919 C1918 1.386 . S
C1919 C1923 1.393 . S
C1920 H1909 0.950 . S
C1920 C1918 1.391 . S
C1920 C1921 1.400 . S
C1921 C1915 1.491 . S
C1921 C1920 1.400 . S
C1921 C1922 1.398 . S
C1922 H1910 0.950 . S
C1922 C1921 1.398 . S
C1922 C1923 1.391 . S
C1923 H1911 0.950 . S
C1923 C1919 1.393 . S
C1923 C1922 1.391 . S
H1924 C1932 0.950 . S
H1925 C1937 0.950 . S
H1926 C1934 0.950 . S
H1927 C1936 0.950 . S
H1928 C1938 0.950 . S
H1929 C1940 0.950 . S
H1930 C1942 0.950 . S
H1931 C1943 0.950 . S
C1932 H1924 0.950 . S
C1932 C1933 1.386 . S
C1932 C1934 1.391 . S
C1933 C1932 1.386 . S
C1933 C1937 1.393 . S
C1934 H1926 0.950 . S
C1934 C1932 1.391 . S
C1934 C1935 1.400 . S
C1935 C1934 1.400 . S
C1935 C1936 1.398 . S
C1935 C1941 1.491 . S
C1936 H1927 0.950 . S
C1936 C1935 1.398 . S
C1936 C1937 1.391 . S
C1937 H1925 0.950 . S
C1937 C1933 1.393 . S
C1937 C1936 1.391 . S
C1938 H1928 0.950 . S
C1938 C1939 1.386 . S
C1938 C1940 1.391 . S
C1939 C1938 1.386 . S
C1939 C1943 1.393 . S
C1940 H1929 0.950 . S
C1940 C1938 1.391 . S
C1940 C1941 1.400 . S
C1941 C1935 1.491 . S
C1941 C1940 1.400 . S
C1941 C1942 1.398 . S
C1942 H1930 0.950 . S
C1942 C1941 1.398 . S
C1942 C1943 1.391 . S
C1943 H1931 0.950 . S
C1943 C1939 1.393 . S
C1943 C1942 1.391 . S
H1944 C1952 0.950 . S
H1945 C1957 0.950 . S
H1946 C1954 0.950 . S
H1947 C1956 0.950 . S
H1948 C1958 0.950 . S
H1949 C1960 0.950 . S
H1950 C1962 0.950 . S
H1951 C1963 0.950 . S
C1952 H1944 0.950 . S
C1952 C1953 1.386 . S
C1952 C1954 1.391 . S
C1953 C1952 1.386 . S
C1953 C1957 1.393 . S
C1954 H1946 0.950 . S
C1954 C1952 1.391 . S
C1954 C1955 1.400 . S
C1955 C1954 1.400 . S
C1955 C1956 1.398 . S
C1955 C1961 1.491 . S
C1956 H1947 0.950 . S
C1956 C1955 1.398 . S
C1956 C1957 1.391 . S
C1957 H1945 0.950 . S
C1957 C1953 1.393 . S
C1957 C1956 1.391 . S
C1958 H1948 0.950 . S
C1958 C1959 1.386 . S
C1958 C1960 1.391 . S
C1959 C1958 1.386 . S
C1959 C1963 1.393 . S
C1960 H1949 0.950 . S
C1960 C1958 1.391 . S
C1960 C1961 1.400 . S
C1961 C1955 1.491 . S
C1961 C1960 1.400 . S
C1961 C1962 1.398 . S
C1962 H1950 0.950 . S
C1962 C1961 1.398 . S
C1962 C1963 1.391 . S
C1963 H1951 0.950 . S
C1963 C1959 1.393 . S
C1963 C1962 1.391 . S
H1964 C1972 0.950 . S
H1965 C1977 0.950 . S
H1966 C1974 0.950 . S
H1967 C1976 0.950 . S
H1968 C1978 0.950 . S
H1969 C1980 0.950 . S
H1970 C1982 0.950 . S
H1971 C1983 0.950 . S
C1972 H1964 0.950 . S
C1972 C1973 1.386 . S
C1972 C1974 1.391 . S
C1973 C1972 1.386 . S
C1973 C1977 1.393 . S
C1974 H1966 0.950 . S
C1974 C1972 1.391 . S
C1974 C1975 1.400 . S
C1975 C1974 1.400 . S
C1975 C1976 1.398 . S
C1975 C1981 1.491 . S
C1976 H1967 0.950 . S
C1976 C1975 1.398 . S
C1976 C1977 1.391 . S
C1977 H1965 0.950 . S
C1977 C1973 1.393 . S
C1977 C1976 1.391 . S
C1978 H1968 0.950 . S
C1978 C1979 1.386 . S
C1978 C1980 1.391 . S
C1979 C1978 1.386 . S
C1979 C1983 1.393 . S
C1980 H1969 0.950 . S
C1980 C1978 1.391 . S
C1980 C1981 1.400 . S
C1981 C1975 1.491 . S
C1981 C1980 1.400 . S
C1981 C1982 1.398 . S
C1982 H1970 0.950 . S
C1982 C1981 1.398 . S
C1982 C1983 1.391 . S
C1983 H1971 0.950 . S
C1983 C1979 1.393 . S
C1983 C1982 1.391 . S
H1984 C1992 0.950 . S
H1985 C1997 0.950 . S
H1986 C1994 0.950 . S
H1987 C1996 0.950 . S
H1988 C1998 0.950 . S
H1989 C2000 0.950 . S
H1990 C2002 0.950 . S
H1991 C2003 0.950 . S
C1992 H1984 0.950 . S
C1992 C1993 1.386 . S
C1992 C1994 1.391 . S
C1993 C1992 1.386 . S
C1993 C1997 1.393 . S
C1994 H1986 0.950 . S
C1994 C1992 1.391 . S
C1994 C1995 1.400 . S
C1995 C1994 1.400 . S
C1995 C1996 1.398 . S
C1995 C2001 1.491 . S
C1996 H1987 0.950 . S
C1996 C1995 1.398 . S
C1996 C1997 1.391 . S
C1997 H1985 0.950 . S
C1997 C1993 1.393 . S
C1997 C1996 1.391 . S
C1998 H1988 0.950 . S
C1998 C1999 1.386 . S
C1998 C2000 1.391 . S
C1999 C1998 1.386 . S
C1999 C2003 1.393 . S
C2000 H1989 0.950 . S
C2000 C1998 1.391 . S
C2000 C2001 1.400 . S
C2001 C1995 1.491 . S
C2001 C2000 1.400 . S
C2001 C2002 1.398 . S
C2002 H1990 0.950 . S
C2002 C2001 1.398 . S
C2002 C2003 1.391 . S
C2003 H1991 0.950 . S
C2003 C1999 1.393 . S
C2003 C2002 1.391 . S
H2004 C2012 0.950 . S
H2005 C2017 0.950 . S
H2006 C2014 0.950 . S
H2007 C2016 0.950 . S
H2008 C2018 0.950 . S
H2009 C2020 0.950 . S
H2010 C2022 0.950 . S
H2011 C2023 0.950 . S
C2012 H2004 0.950 . S
C2012 C2013 1.386 . S
C2012 C2014 1.391 . S
C2013 C2012 1.386 . S
C2013 C2017 1.393 . S
C2014 H2006 0.950 . S
C2014 C2012 1.391 . S
C2014 C2015 1.400 . S
C2015 C2014 1.400 . S
C2015 C2016 1.398 . S
C2015 C2021 1.491 . S
C2016 H2007 0.950 . S
C2016 C2015 1.398 . S
C2016 C2017 1.391 . S
C2017 H2005 0.950 . S
C2017 C2013 1.393 . S
C2017 C2016 1.391 . S
C2018 H2008 0.950 . S
C2018 C2019 1.386 . S
C2018 C2020 1.391 . S
C2019 C2018 1.386 . S
C2019 C2023 1.393 . S
C2020 H2009 0.950 . S
C2020 C2018 1.391 . S
C2020 C2021 1.400 . S
C2021 C2015 1.491 . S
C2021 C2020 1.400 . S
C2021 C2022 1.398 . S
C2022 H2010 0.950 . S
C2022 C2021 1.398 . S
C2022 C2023 1.391 . S
C2023 H2011 0.950 . S
C2023 C2019 1.393 . S
C2023 C2022 1.391 . S
H2024 C2032 0.950 . S
H2025 C2037 0.950 . S
H2026 C2034 0.950 . S
H2027 C2036 0.950 . S
H2028 C2038 0.950 . S
H2029 C2040 0.950 . S
H2030 C2042 0.950 . S
H2031 C2043 0.950 . S
C2032 H2024 0.950 . S
C2032 C2033 1.386 . S
C2032 C2034 1.391 . S
C2033 C2032 1.386 . S
C2033 C2037 1.393 . S
C2034 H2026 0.950 . S
C2034 C2032 1.391 . S
C2034 C2035 1.400 . S
C2035 C2034 1.400 . S
C2035 C2036 1.398 . S
C2035 C2041 1.491 . S
C2036 H2027 0.950 . S
C2036 C2035 1.398 . S
C2036 C2037 1.391 . S
C2037 H2025 0.950 . S
C2037 C2033 1.393 . S
C2037 C2036 1.391 . S
C2038 H2028 0.950 . S
C2038 C2039 1.386 . S
C2038 C2040 1.391 . S
C2039 C2038 1.386 . S
C2039 C2043 1.393 . S
C2040 H2029 0.950 . S
C2040 C2038 1.391 . S
C2040 C2041 1.400 . S
C2041 C2035 1.491 . S
C2041 C2040 1.400 . S
C2041 C2042 1.398 . S
C2042 H2030 0.950 . S
C2042 C2041 1.398 . S
C2042 C2043 1.391 . S
C2043 H2031 0.950 . S
C2043 C2039 1.393 . S
C2043 C2042 1.391 . S
H2044 C2052 0.950 . S
H2045 C2057 0.950 . S
H2046 C2054 0.950 . S
H2047 C2056 0.950 . S
H2048 C2058 0.950 . S
H2049 C2060 0.950 . S
H2050 C2062 0.950 . S
H2051 C2063 0.950 . S
C2052 H2044 0.950 . S
C2052 C2053 1.386 . S
C2052 C2054 1.391 . S
C2053 C2052 1.386 . S
C2053 C2057 1.393 . S
C2054 H2046 0.950 . S
C2054 C2052 1.391 . S
C2054 C2055 1.400 . S
C2055 C2054 1.400 . S
C2055 C2056 1.398 . S
C2055 C2061 1.491 . S
C2056 H2047 0.950 . S
C2056 C2055 1.398 . S
C2056 C2057 1.391 . S
C2057 H2045 0.950 . S
C2057 C2053 1.393 . S
C2057 C2056 1.391 . S
C2058 H2048 0.950 . S
C2058 C2059 1.386 . S
C2058 C2060 1.391 . S
C2059 C2058 1.386 . S
C2059 C2063 1.393 . S
C2060 H2049 0.950 . S
C2060 C2058 1.391 . S
C2060 C2061 1.400 . S
C2061 C2055 1.491 . S
C2061 C2060 1.400 . S
C2061 C2062 1.398 . S
C2062 H2050 0.950 . S
C2062 C2061 1.398 . S
C2062 C2063 1.391 . S
C2063 H2051 0.950 . S
C2063 C2059 1.393 . S
C2063 C2062 1.391 . S
H2064 C2072 0.950 . S
H2065 C2077 0.950 . S
H2066 C2074 0.950 . S
H2067 C2076 0.950 . S
H2068 C2078 0.950 . S
H2069 C2080 0.950 . S
H2070 C2082 0.950 . S
H2071 C2083 0.950 . S
C2072 H2064 0.950 . S
C2072 C2073 1.386 . S
C2072 C2074 1.391 . S
C2073 C2072 1.386 . S
C2073 C2077 1.393 . S
C2074 H2066 0.950 . S
C2074 C2072 1.391 . S
C2074 C2075 1.400 . S
C2075 C2074 1.400 . S
C2075 C2076 1.398 . S
C2075 C2081 1.491 . S
C2076 H2067 0.950 . S
C2076 C2075 1.398 . S
C2076 C2077 1.391 . S
C2077 H2065 0.950 . S
C2077 C2073 1.393 . S
C2077 C2076 1.391 . S
C2078 H2068 0.950 . S
C2078 C2079 1.386 . S
C2078 C2080 1.391 . S
C2079 C2078 1.386 . S
C2079 C2083 1.393 . S
C2080 H2069 0.950 . S
C2080 C2078 1.391 . S
C2080 C2081 1.400 . S
C2081 C2075 1.491 . S
C2081 C2080 1.400 . S
C2081 C2082 1.398 . S
C2082 H2070 0.950 . S
C2082 C2081 1.398 . S
C2082 C2083 1.391 . S
C2083 H2071 0.950 . S
C2083 C2079 1.393 . S
C2083 C2082 1.391 . S
H2084 C2092 0.950 . S
H2085 C2097 0.950 . S
H2086 C2094 0.950 . S
H2087 C2096 0.950 . S
H2088 C2098 0.950 . S
H2089 C2100 0.950 . S
H2090 C2102 0.950 . S
H2091 C2103 0.950 . S
C2092 H2084 0.950 . S
C2092 C2093 1.386 . S
C2092 C2094 1.391 . S
C2093 C2092 1.386 . S
C2093 C2097 1.393 . S
C2094 H2086 0.950 . S
C2094 C2092 1.391 . S
C2094 C2095 1.400 . S
C2095 C2094 1.400 . S
C2095 C2096 1.398 . S
C2095 C2101 1.491 . S
C2096 H2087 0.950 . S
C2096 C2095 1.398 . S
C2096 C2097 1.391 . S
C2097 H2085 0.950 . S
C2097 C2093 1.393 . S
C2097 C2096 1.391 . S
C2098 H2088 0.950 . S
C2098 C2099 1.386 . S
C2098 C2100 1.391 . S
C2099 C2098 1.386 . S
C2099 C2103 1.393 . S
C2100 H2089 0.950 . S
C2100 C2098 1.391 . S
C2100 C2101 1.400 . S
C2101 C2095 1.491 . S
C2101 C2100 1.400 . S
C2101 C2102 1.398 . S
C2102 H2090 0.950 . S
C2102 C2101 1.398 . S
C2102 C2103 1.391 . S
C2103 H2091 0.950 . S
C2103 C2099 1.393 . S
C2103 C2102 1.391 . S
H2104 C2112 0.950 . S
H2105 C2117 0.950 . S
H2106 C2114 0.950 . S
H2107 C2116 0.950 . S
H2108 C2118 0.950 . S
H2109 C2120 0.950 . S
H2110 C2122 0.950 . S
H2111 C2123 0.950 . S
C2112 H2104 0.950 . S
C2112 C2113 1.386 . S
C2112 C2114 1.391 . S
C2113 C2112 1.386 . S
C2113 C2117 1.393 . S
C2114 H2106 0.950 . S
C2114 C2112 1.391 . S
C2114 C2115 1.400 . S
C2115 C2114 1.400 . S
C2115 C2116 1.398 . S
C2115 C2121 1.491 . S
C2116 H2107 0.950 . S
C2116 C2115 1.398 . S
C2116 C2117 1.391 . S
C2117 H2105 0.950 . S
C2117 C2113 1.393 . S
C2117 C2116 1.391 . S
C2118 H2108 0.950 . S
C2118 C2119 1.386 . S
C2118 C2120 1.391 . S
C2119 C2118 1.386 . S
C2119 C2123 1.393 . S
C2120 H2109 0.950 . S
C2120 C2118 1.391 . S
C2120 C2121 1.400 . S
C2121 C2115 1.491 . S
C2121 C2120 1.400 . S
C2121 C2122 1.398 . S
C2122 H2110 0.950 . S
C2122 C2121 1.398 . S
C2122 C2123 1.391 . S
C2123 H2111 0.950 . S
C2123 C2119 1.393 . S
C2123 C2122 1.391 . S
H2124 C2132 0.950 . S
H2125 C2137 0.950 . S
H2126 C2134 0.950 . S
H2127 C2136 0.950 . S
H2128 C2138 0.950 . S
H2129 C2140 0.950 . S
H2130 C2142 0.950 . S
H2131 C2143 0.950 . S
C2132 H2124 0.950 . S
C2132 C2133 1.386 . S
C2132 C2134 1.391 . S
C2133 C2132 1.386 . S
C2133 C2137 1.393 . S
C2134 H2126 0.950 . S
C2134 C2132 1.391 . S
C2134 C2135 1.400 . S
C2135 C2134 1.400 . S
C2135 C2136 1.398 . S
C2135 C2141 1.491 . S
C2136 H2127 0.950 . S
C2136 C2135 1.398 . S
C2136 C2137 1.391 . S
C2137 H2125 0.950 . S
C2137 C2133 1.393 . S
C2137 C2136 1.391 . S
C2138 H2128 0.950 . S
C2138 C2139 1.386 . S
C2138 C2140 1.391 . S
C2139 C2138 1.386 . S
C2139 C2143 1.393 . S
C2140 H2129 0.950 . S
C2140 C2138 1.391 . S
C2140 C2141 1.400 . S
C2141 C2135 1.491 . S
C2141 C2140 1.400 . S
C2141 C2142 1.398 . S
C2142 H2130 0.950 . S
C2142 C2141 1.398 . S
C2142 C2143 1.391 . S
C2143 H2131 0.950 . S
C2143 C2139 1.393 . S
C2143 C2142 1.391 . S
H2144 C2152 0.950 . S
H2145 C2157 0.950 . S
H2146 C2154 0.950 . S
H2147 C2156 0.950 . S
H2148 C2158 0.950 . S
H2149 C2160 0.950 . S
H2150 C2162 0.950 . S
H2151 C2163 0.950 . S
C2152 H2144 0.950 . S
C2152 C2153 1.386 . S
C2152 C2154 1.391 . S
C2153 C2152 1.386 . S
C2153 C2157 1.393 . S
C2154 H2146 0.950 . S
C2154 C2152 1.391 . S
C2154 C2155 1.400 . S
C2155 C2154 1.400 . S
C2155 C2156 1.398 . S
C2155 C2161 1.491 . S
C2156 H2147 0.950 . S
C2156 C2155 1.398 . S
C2156 C2157 1.391 . S
C2157 H2145 0.950 . S
C2157 C2153 1.393 . S
C2157 C2156 1.391 . S
C2158 H2148 0.950 . S
C2158 C2159 1.386 . S
C2158 C2160 1.391 . S
C2159 C2158 1.386 . S
C2159 C2163 1.393 . S
C2160 H2149 0.950 . S
C2160 C2158 1.391 . S
C2160 C2161 1.400 . S
C2161 C2155 1.491 . S
C2161 C2160 1.400 . S
C2161 C2162 1.398 . S
C2162 H2150 0.950 . S
C2162 C2161 1.398 . S
C2162 C2163 1.391 . S
C2163 H2151 0.950 . S
C2163 C2159 1.393 . S
C2163 C2162 1.391 . S
H2164 C2172 0.950 . S
H2165 C2177 0.950 . S
H2166 C2174 0.950 . S
H2167 C2176 0.950 . S
H2168 C2178 0.950 . S
H2169 C2180 0.950 . S
H2170 C2182 0.950 . S
H2171 C2183 0.950 . S
C2172 H2164 0.950 . S
C2172 C2173 1.386 . S
C2172 C2174 1.391 . S
C2173 C2172 1.386 . S
C2173 C2177 1.393 . S
C2174 H2166 0.950 . S
C2174 C2172 1.391 . S
C2174 C2175 1.400 . S
C2175 C2174 1.400 . S
C2175 C2176 1.398 . S
C2175 C2181 1.491 . S
C2176 H2167 0.950 . S
C2176 C2175 1.398 . S
C2176 C2177 1.391 . S
C2177 H2165 0.950 . S
C2177 C2173 1.393 . S
C2177 C2176 1.391 . S
C2178 H2168 0.950 . S
C2178 C2179 1.386 . S
C2178 C2180 1.391 . S
C2179 C2178 1.386 . S
C2179 C2183 1.393 . S
C2180 H2169 0.950 . S
C2180 C2178 1.391 . S
C2180 C2181 1.400 . S
C2181 C2175 1.491 . S
C2181 C2180 1.400 . S
C2181 C2182 1.398 . S
C2182 H2170 0.950 . S
C2182 C2181 1.398 . S
C2182 C2183 1.391 . S
C2183 H2171 0.950 . S
C2183 C2179 1.393 . S
C2183 C2182 1.391 . S
H2184 C2192 0.950 . S
H2185 C2197 0.950 . S
H2186 C2194 0.950 . S
H2187 C2196 0.950 . S
H2188 C2198 0.950 . S
H2189 C2200 0.950 . S
H2190 C2202 0.950 . S
H2191 C2203 0.950 . S
C2192 H2184 0.950 . S
C2192 C2193 1.386 . S
C2192 C2194 1.391 . S
C2193 C2192 1.386 . S
C2193 C2197 1.393 . S
C2194 H2186 0.950 . S
C2194 C2192 1.391 . S
C2194 C2195 1.400 . S
C2195 C2194 1.400 . S
C2195 C2196 1.398 . S
C2195 C2201 1.491 . S
C2196 H2187 0.950 . S
C2196 C2195 1.398 . S
C2196 C2197 1.391 . S
C2197 H2185 0.950 . S
C2197 C2193 1.393 . S
C2197 C2196 1.391 . S
C2198 H2188 0.950 . S
C2198 C2199 1.386 . S
C2198 C2200 1.391 . S
C2199 C2198 1.386 . S
C2199 C2203 1.393 . S
C2200 H2189 0.950 . S
C2200 C2198 1.391 . S
C2200 C2201 1.400 . S
C2201 C2195 1.491 . S
C2201 C2200 1.400 . S
C2201 C2202 1.398 . S
C2202 H2190 0.950 . S
C2202 C2201 1.398 . S
C2202 C2203 1.391 . S
C2203 H2191 0.950 . S
C2203 C2199 1.393 . S
C2203 C2202 1.391 . S
H2204 C2212 0.950 . S
H2205 C2217 0.950 . S
H2206 C2214 0.950 . S
H2207 C2216 0.950 . S
H2208 C2218 0.950 . S
H2209 C2220 0.950 . S
H2210 C2222 0.950 . S
H2211 C2223 0.950 . S
C2212 H2204 0.950 . S
C2212 C2213 1.386 . S
C2212 C2214 1.391 . S
C2213 C2212 1.386 . S
C2213 C2217 1.393 . S
C2214 H2206 0.950 . S
C2214 C2212 1.391 . S
C2214 C2215 1.400 . S
C2215 C2214 1.400 . S
C2215 C2216 1.398 . S
C2215 C2221 1.491 . S
C2216 H2207 0.950 . S
C2216 C2215 1.398 . S
C2216 C2217 1.391 . S
C2217 H2205 0.950 . S
C2217 C2213 1.393 . S
C2217 C2216 1.391 . S
C2218 H2208 0.950 . S
C2218 C2219 1.386 . S
C2218 C2220 1.391 . S
C2219 C2218 1.386 . S
C2219 C2223 1.393 . S
C2220 H2209 0.950 . S
C2220 C2218 1.391 . S
C2220 C2221 1.400 . S
C2221 C2215 1.491 . S
C2221 C2220 1.400 . S
C2221 C2222 1.398 . S
C2222 H2210 0.950 . S
C2222 C2221 1.398 . S
C2222 C2223 1.391 . S
C2223 H2211 0.950 . S
C2223 C2219 1.393 . S
C2223 C2222 1.391 . S
H2224 C2232 0.950 . S
H2225 C2237 0.950 . S
H2226 C2234 0.950 . S
H2227 C2236 0.950 . S
H2228 C2238 0.950 . S
H2229 C2240 0.950 . S
H2230 C2242 0.950 . S
H2231 C2243 0.950 . S
C2232 H2224 0.950 . S
C2232 C2233 1.386 . S
C2232 C2234 1.391 . S
C2233 C2232 1.386 . S
C2233 C2237 1.393 . S
C2234 H2226 0.950 . S
C2234 C2232 1.391 . S
C2234 C2235 1.400 . S
C2235 C2234 1.400 . S
C2235 C2236 1.398 . S
C2235 C2241 1.491 . S
C2236 H2227 0.950 . S
C2236 C2235 1.398 . S
C2236 C2237 1.391 . S
C2237 H2225 0.950 . S
C2237 C2233 1.393 . S
C2237 C2236 1.391 . S
C2238 H2228 0.950 . S
C2238 C2239 1.386 . S
C2238 C2240 1.391 . S
C2239 C2238 1.386 . S
C2239 C2243 1.393 . S
C2240 H2229 0.950 . S
C2240 C2238 1.391 . S
C2240 C2241 1.400 . S
C2241 C2235 1.491 . S
C2241 C2240 1.400 . S
C2241 C2242 1.398 . S
C2242 H2230 0.950 . S
C2242 C2241 1.398 . S
C2242 C2243 1.391 . S
C2243 H2231 0.950 . S
C2243 C2239 1.393 . S
C2243 C2242 1.391 . S
H2244 C2252 0.950 . S
H2245 C2257 0.950 . S
H2246 C2254 0.950 . S
H2247 C2256 0.950 . S
H2248 C2258 0.950 . S
H2249 C2260 0.950 . S
H2250 C2262 0.950 . S
H2251 C2263 0.950 . S
C2252 H2244 0.950 . S
C2252 C2253 1.386 . S
C2252 C2254 1.391 . S
C2253 C2252 1.386 . S
C2253 C2257 1.393 . S
C2254 H2246 0.950 . S
C2254 C2252 1.391 . S
C2254 C2255 1.400 . S
C2255 C2254 1.400 . S
C2255 C2256 1.398 . S
C2255 C2261 1.491 . S
C2256 H2247 0.950 . S
C2256 C2255 1.398 . S
C2256 C2257 1.391 . S
C2257 H2245 0.950 . S
C2257 C2253 1.393 . S
C2257 C2256 1.391 . S
C2258 H2248 0.950 . S
C2258 C2259 1.386 . S
C2258 C2260 1.391 . S
C2259 C2258 1.386 . S
C2259 C2263 1.393 . S
C2260 H2249 0.950 . S
C2260 C2258 1.391 . S
C2260 C2261 1.400 . S
C2261 C2255 1.491 . S
C2261 C2260 1.400 . S
C2261 C2262 1.398 . S
C2262 H2250 0.950 . S
C2262 C2261 1.398 . S
C2262 C2263 1.391 . S
C2263 H2251 0.950 . S
C2263 C2259 1.393 . S
C2263 C2262 1.391 . S
H2264 C2272 0.950 . S
H2265 C2277 0.950 . S
H2266 C2274 0.950 . S
H2267 C2276 0.950 . S
H2268 C2278 0.950 . S
H2269 C2280 0.950 . S
H2270 C2282 0.950 . S
H2271 C2283 0.950 . S
C2272 H2264 0.950 . S
C2272 C2273 1.386 . S
C2272 C2274 1.391 . S
C2273 C2272 1.386 . S
C2273 C2277 1.393 . S
C2274 H2266 0.950 . S
C2274 C2272 1.391 . S
C2274 C2275 1.400 . S
C2275 C2274 1.400 . S
C2275 C2276 1.398 . S
C2275 C2281 1.491 . S
C2276 H2267 0.950 . S
C2276 C2275 1.398 . S
C2276 C2277 1.391 . S
C2277 H2265 0.950 . S
C2277 C2273 1.393 . S
C2277 C2276 1.391 . S
C2278 H2268 0.950 . S
C2278 C2279 1.386 . S
C2278 C2280 1.391 . S
C2279 C2278 1.386 . S
C2279 C2283 1.393 . S
C2280 H2269 0.950 . S
C2280 C2278 1.391 . S
C2280 C2281 1.400 . S
C2281 C2275 1.491 . S
C2281 C2280 1.400 . S
C2281 C2282 1.398 . S
C2282 H2270 0.950 . S
C2282 C2281 1.398 . S
C2282 C2283 1.391 . S
C2283 H2271 0.950 . S
C2283 C2279 1.393 . S
C2283 C2282 1.391 . S
H2284 C2292 0.950 . S
H2285 C2297 0.950 . S
H2286 C2294 0.950 . S
H2287 C2296 0.950 . S
H2288 C2298 0.950 . S
H2289 C2300 0.950 . S
H2290 C2302 0.950 . S
H2291 C2303 0.950 . S
C2292 H2284 0.950 . S
C2292 C2293 1.386 . S
C2292 C2294 1.391 . S
C2293 C2292 1.386 . S
C2293 C2297 1.393 . S
C2294 H2286 0.950 . S
C2294 C2292 1.391 . S
C2294 C2295 1.400 . S
C2295 C2294 1.400 . S
C2295 C2296 1.398 . S
C2295 C2301 1.491 . S
C2296 H2287 0.950 . S
C2296 C2295 1.398 . S
C2296 C2297 1.391 . S
C2297 H2285 0.950 . S
C2297 C2293 1.393 . S
C2297 C2296 1.391 . S
C2298 H2288 0.950 . S
C2298 C2299 1.386 . S
C2298 C2300 1.391 . S
C2299 C2298 1.386 . S
C2299 C2303 1.393 . S
C2300 H2289 0.950 . S
C2300 C2298 1.391 . S
C2300 C2301 1.400 . S
C2301 C2295 1.491 . S
C2301 C2300 1.400 . S
C2301 C2302 1.398 . S
C2302 H2290 0.950 . S
C2302 C2301 1.398 . S
C2302 C2303 1.391 . S
C2303 H2291 0.950 . S
C2303 C2299 1.393 . S
C2303 C2302 1.391 . S
H2304 C2312 0.950 . S
H2305 C2317 0.950 . S
H2306 C2314 0.950 . S
H2307 C2316 0.950 . S
H2308 C2318 0.950 . S
H2309 C2320 0.950 . S
H2310 C2322 0.950 . S
H2311 C2323 0.950 . S
C2312 H2304 0.950 . S
C2312 C2313 1.386 . S
C2312 C2314 1.391 . S
C2313 C2312 1.386 . S
C2313 C2317 1.393 . S
C2314 H2306 0.950 . S
C2314 C2312 1.391 . S
C2314 C2315 1.400 . S
C2315 C2314 1.400 . S
C2315 C2316 1.398 . S
C2315 C2321 1.491 . S
C2316 H2307 0.950 . S
C2316 C2315 1.398 . S
C2316 C2317 1.391 . S
C2317 H2305 0.950 . S
C2317 C2313 1.393 . S
C2317 C2316 1.391 . S
C2318 H2308 0.950 . S
C2318 C2319 1.386 . S
C2318 C2320 1.391 . S
C2319 C2318 1.386 . S
C2319 C2323 1.393 . S
C2320 H2309 0.950 . S
C2320 C2318 1.391 . S
C2320 C2321 1.400 . S
C2321 C2315 1.491 . S
C2321 C2320 1.400 . S
C2321 C2322 1.398 . S
C2322 H2310 0.950 . S
C2322 C2321 1.398 . S
C2322 C2323 1.391 . S
C2323 H2311 0.950 . S
C2323 C2319 1.393 . S
C2323 C2322 1.391 . S
H2324 C2332 0.950 . S
H2325 C2337 0.950 . S
H2326 C2334 0.950 . S
H2327 C2336 0.950 . S
H2328 C2338 0.950 . S
H2329 C2340 0.950 . S
H2330 C2342 0.950 . S
H2331 C2343 0.950 . S
C2332 H2324 0.950 . S
C2332 C2333 1.386 . S
C2332 C2334 1.391 . S
C2333 C2332 1.386 . S
C2333 C2337 1.393 . S
C2334 H2326 0.950 . S
C2334 C2332 1.391 . S
C2334 C2335 1.400 . S
C2335 C2334 1.400 . S
C2335 C2336 1.398 . S
C2335 C2341 1.491 . S
C2336 H2327 0.950 . S
C2336 C2335 1.398 . S
C2336 C2337 1.391 . S
C2337 H2325 0.950 . S
C2337 C2333 1.393 . S
C2337 C2336 1.391 . S
C2338 H2328 0.950 . S
C2338 C2339 1.386 . S
C2338 C2340 1.391 . S
C2339 C2338 1.386 . S
C2339 C2343 1.393 . S
C2340 H2329 0.950 . S
C2340 C2338 1.391 . S
C2340 C2341 1.400 . S
C2341 C2335 1.491 . S
C2341 C2340 1.400 . S
C2341 C2342 1.398 . S
C2342 H2330 0.950 . S
C2342 C2341 1.398 . S
C2342 C2343 1.391 . S
C2343 H2331 0.950 . S
C2343 C2339 1.393 . S
C2343 C2342 1.391 . S
H2344 C2352 0.950 . S
H2345 C2357 0.950 . S
H2346 C2354 0.950 . S
H2347 C2356 0.950 . S
H2348 C2358 0.950 . S
H2349 C2360 0.950 . S
H2350 C2362 0.950 . S
H2351 C2363 0.950 . S
C2352 H2344 0.950 . S
C2352 C2353 1.386 . S
C2352 C2354 1.391 . S
C2353 C2352 1.386 . S
C2353 C2357 1.393 . S
C2354 H2346 0.950 . S
C2354 C2352 1.391 . S
C2354 C2355 1.400 . S
C2355 C2354 1.400 . S
C2355 C2356 1.398 . S
C2355 C2361 1.491 . S
C2356 H2347 0.950 . S
C2356 C2355 1.398 . S
C2356 C2357 1.391 . S
C2357 H2345 0.950 . S
C2357 C2353 1.393 . S
C2357 C2356 1.391 . S
C2358 H2348 0.950 . S
C2358 C2359 1.386 . S
C2358 C2360 1.391 . S
C2359 C2358 1.386 . S
C2359 C2363 1.393 . S
C2360 H2349 0.950 . S
C2360 C2358 1.391 . S
C2360 C2361 1.400 . S
C2361 C2355 1.491 . S
C2361 C2360 1.400 . S
C2361 C2362 1.398 . S
C2362 H2350 0.950 . S
C2362 C2361 1.398 . S
C2362 C2363 1.391 . S
C2363 H2351 0.950 . S
C2363 C2359 1.393 . S
C2363 C2362 1.391 . S
H2364 C2372 0.950 . S
H2365 C2377 0.950 . S
H2366 C2374 0.950 . S
H2367 C2376 0.950 . S
H2368 C2378 0.950 . S
H2369 C2380 0.950 . S
H2370 C2382 0.950 . S
H2371 C2383 0.950 . S
C2372 H2364 0.950 . S
C2372 C2373 1.386 . S
C2372 C2374 1.391 . S
C2373 C2372 1.386 . S
C2373 C2377 1.393 . S
C2374 H2366 0.950 . S
C2374 C2372 1.391 . S
C2374 C2375 1.400 . S
C2375 C2374 1.400 . S
C2375 C2376 1.398 . S
C2375 C2381 1.491 . S
C2376 H2367 0.950 . S
C2376 C2375 1.398 . S
C2376 C2377 1.391 . S
C2377 H2365 0.950 . S
C2377 C2373 1.393 . S
C2377 C2376 1.391 . S
C2378 H2368 0.950 . S
C2378 C2379 1.386 . S
C2378 C2380 1.391 . S
C2379 C2378 1.386 . S
C2379 C2383 1.393 . S
C2380 H2369 0.950 . S
C2380 C2378 1.391 . S
C2380 C2381 1.400 . S
C2381 C2375 1.491 . S
C2381 C2380 1.400 . S
C2381 C2382 1.398 . S
C2382 H2370 0.950 . S
C2382 C2381 1.398 . S
C2382 C2383 1.391 . S
C2383 H2371 0.950 . S
C2383 C2379 1.393 . S
C2383 C2382 1.391 . S
H2384 C2392 0.950 . S
H2385 C2397 0.950 . S
H2386 C2394 0.950 . S
H2387 C2396 0.950 . S
H2388 C2398 0.950 . S
H2389 C2400 0.950 . S
H2390 C2402 0.950 . S
H2391 C2403 0.950 . S
C2392 H2384 0.950 . S
C2392 C2393 1.386 . S
C2392 C2394 1.391 . S
C2393 C2392 1.386 . S
C2393 C2397 1.393 . S
C2394 H2386 0.950 . S
C2394 C2392 1.391 . S
C2394 C2395 1.400 . S
C2395 C2394 1.400 . S
C2395 C2396 1.398 . S
C2395 C2401 1.491 . S
C2396 H2387 0.950 . S
C2396 C2395 1.398 . S
C2396 C2397 1.391 . S
C2397 H2385 0.950 . S
C2397 C2393 1.393 . S
C2397 C2396 1.391 . S
C2398 H2388 0.950 . S
C2398 C2399 1.386 . S
C2398 C2400 1.391 . S
C2399 C2398 1.386 . S
C2399 C2403 1.393 . S
C2400 H2389 0.950 . S
C2400 C2398 1.391 . S
C2400 C2401 1.400 . S
C2401 C2395 1.491 . S
C2401 C2400 1.400 . S
C2401 C2402 1.398 . S
C2402 H2390 0.950 . S
C2402 C2401 1.398 . S
C2402 C2403 1.391 . S
C2403 H2391 0.950 . S
C2403 C2399 1.393 . S
C2403 C2402 1.391 . S
H2404 C2412 0.950 . S
H2405 C2417 0.950 . S
H2406 C2414 0.950 . S
H2407 C2416 0.950 . S
H2408 C2418 0.950 . S
H2409 C2420 0.950 . S
H2410 C2422 0.950 . S
H2411 C2423 0.950 . S
C2412 H2404 0.950 . S
C2412 C2413 1.386 . S
C2412 C2414 1.391 . S
C2413 C2412 1.386 . S
C2413 C2417 1.393 . S
C2414 H2406 0.950 . S
C2414 C2412 1.391 . S
C2414 C2415 1.400 . S
C2415 C2414 1.400 . S
C2415 C2416 1.398 . S
C2415 C2421 1.491 . S
C2416 H2407 0.950 . S
C2416 C2415 1.398 . S
C2416 C2417 1.391 . S
C2417 H2405 0.950 . S
C2417 C2413 1.393 . S
C2417 C2416 1.391 . S
C2418 H2408 0.950 . S
C2418 C2419 1.386 . S
C2418 C2420 1.391 . S
C2419 C2418 1.386 . S
C2419 C2423 1.393 . S
C2420 H2409 0.950 . S
C2420 C2418 1.391 . S
C2420 C2421 1.400 . S
C2421 C2415 1.491 . S
C2421 C2420 1.400 . S
C2421 C2422 1.398 . S
C2422 H2410 0.950 . S
C2422 C2421 1.398 . S
C2422 C2423 1.391 . S
C2423 H2411 0.950 . S
C2423 C2419 1.393 . S
C2423 C2422 1.391 . S
H2424 C2432 0.950 . S
H2425 C2437 0.950 . S
H2426 C2434 0.950 . S
H2427 C2436 0.950 . S
H2428 C2438 0.950 . S
H2429 C2440 0.950 . S
H2430 C2442 0.950 . S
H2431 C2443 0.950 . S
C2432 H2424 0.950 . S
C2432 C2433 1.386 . S
C2432 C2434 1.391 . S
C2433 C2432 1.386 . S
C2433 C2437 1.393 . S
C2434 H2426 0.950 . S
C2434 C2432 1.391 . S
C2434 C2435 1.400 . S
C2435 C2434 1.400 . S
C2435 C2436 1.398 . S
C2435 C2441 1.491 . S
C2436 H2427 0.950 . S
C2436 C2435 1.398 . S
C2436 C2437 1.391 . S
C2437 H2425 0.950 . S
C2437 C2433 1.393 . S
C2437 C2436 1.391 . S
C2438 H2428 0.950 . S
C2438 C2439 1.386 . S
C2438 C2440 1.391 . S
C2439 C2438 1.386 . S
C2439 C2443 1.393 . S
C2440 H2429 0.950 . S
C2440 C2438 1.391 . S
C2440 C2441 1.400 . S
C2441 C2435 1.491 . S
C2441 C2440 1.400 . S
C2441 C2442 1.398 . S
C2442 H2430 0.950 . S
C2442 C2441 1.398 . S
C2442 C2443 1.391 . S
C2443 H2431 0.950 . S
C2443 C2439 1.393 . S
C2443 C2442 1.391 . S
H2444 C2452 0.950 . S
H2445 C2457 0.950 . S
H2446 C2454 0.950 . S
H2447 C2456 0.950 . S
H2448 C2458 0.950 . S
H2449 C2460 0.950 . S
H2450 C2462 0.950 . S
H2451 C2463 0.950 . S
C2452 H2444 0.950 . S
C2452 C2453 1.386 . S
C2452 C2454 1.391 . S
C2453 C2452 1.386 . S
C2453 C2457 1.393 . S
C2454 H2446 0.950 . S
C2454 C2452 1.391 . S
C2454 C2455 1.400 . S
C2455 C2454 1.400 . S
C2455 C2456 1.398 . S
C2455 C2461 1.491 . S
C2456 H2447 0.950 . S
C2456 C2455 1.398 . S
C2456 C2457 1.391 . S
C2457 H2445 0.950 . S
C2457 C2453 1.393 . S
C2457 C2456 1.391 . S
C2458 H2448 0.950 . S
C2458 C2459 1.386 . S
C2458 C2460 1.391 . S
C2459 C2458 1.386 . S
C2459 C2463 1.393 . S
C2460 H2449 0.950 . S
C2460 C2458 1.391 . S
C2460 C2461 1.400 . S
C2461 C2455 1.491 . S
C2461 C2460 1.400 . S
C2461 C2462 1.398 . S
C2462 H2450 0.950 . S
C2462 C2461 1.398 . S
C2462 C2463 1.391 . S
C2463 H2451 0.950 . S
C2463 C2459 1.393 . S
C2463 C2462 1.391 . S
H2464 C2472 0.950 . S
H2465 C2477 0.950 . S
H2466 C2474 0.950 . S
H2467 C2476 0.950 . S
H2468 C2478 0.950 . S
H2469 C2480 0.950 . S
H2470 C2482 0.950 . S
H2471 C2483 0.950 . S
C2472 H2464 0.950 . S
C2472 C2473 1.386 . S
C2472 C2474 1.391 . S
C2473 C2472 1.386 . S
C2473 C2477 1.393 . S
C2474 H2466 0.950 . S
C2474 C2472 1.391 . S
C2474 C2475 1.400 . S
C2475 C2474 1.400 . S
C2475 C2476 1.398 . S
C2475 C2481 1.491 . S
C2476 H2467 0.950 . S
C2476 C2475 1.398 . S
C2476 C2477 1.391 . S
C2477 H2465 0.950 . S
C2477 C2473 1.393 . S
C2477 C2476 1.391 . S
C2478 H2468 0.950 . S
C2478 C2479 1.386 . S
C2478 C2480 1.391 . S
C2479 C2478 1.386 . S
C2479 C2483 1.393 . S
C2480 H2469 0.950 . S
C2480 C2478 1.391 . S
C2480 C2481 1.400 . S
C2481 C2475 1.491 . S
C2481 C2480 1.400 . S
C2481 C2482 1.398 . S
C2482 H2470 0.950 . S
C2482 C2481 1.398 . S
C2482 C2483 1.391 . S
C2483 H2471 0.950 . S
C2483 C2479 1.393 . S
C2483 C2482 1.391 . S
H2484 C2492 0.950 . S
H2485 C2497 0.950 . S
H2486 C2494 0.950 . S
H2487 C2496 0.950 . S
H2488 C2498 0.950 . S
H2489 C2500 0.950 . S
H2490 C2502 0.950 . S
H2491 C2503 0.950 . S
C2492 H2484 0.950 . S
C2492 C2493 1.386 . S
C2492 C2494 1.391 . S
C2493 C2492 1.386 . S
C2493 C2497 1.393 . S
C2494 H2486 0.950 . S
C2494 C2492 1.391 . S
C2494 C2495 1.400 . S
C2495 C2494 1.400 . S
C2495 C2496 1.398 . S
C2495 C2501 1.491 . S
C2496 H2487 0.950 . S
C2496 C2495 1.398 . S
C2496 C2497 1.391 . S
C2497 H2485 0.950 . S
C2497 C2493 1.393 . S
C2497 C2496 1.391 . S
C2498 H2488 0.950 . S
C2498 C2499 1.386 . S
C2498 C2500 1.391 . S
C2499 C2498 1.386 . S
C2499 C2503 1.393 . S
C2500 H2489 0.950 . S
C2500 C2498 1.391 . S
C2500 C2501 1.400 . S
C2501 C2495 1.491 . S
C2501 C2500 1.400 . S
C2501 C2502 1.398 . S
C2502 H2490 0.950 . S
C2502 C2501 1.398 . S
C2502 C2503 1.391 . S
C2503 H2491 0.950 . S
C2503 C2499 1.393 . S
C2503 C2502 1.391 . S
H2504 C2512 0.950 . S
H2505 C2517 0.950 . S
H2506 C2514 0.950 . S
H2507 C2516 0.950 . S
H2508 C2518 0.950 . S
H2509 C2520 0.950 . S
H2510 C2522 0.950 . S
H2511 C2523 0.950 . S
C2512 H2504 0.950 . S
C2512 C2513 1.386 . S
C2512 C2514 1.391 . S
C2513 C2512 1.386 . S
C2513 C2517 1.393 . S
C2514 H2506 0.950 . S
C2514 C2512 1.391 . S
C2514 C2515 1.400 . S
C2515 C2514 1.400 . S
C2515 C2516 1.398 . S
C2515 C2521 1.491 . S
C2516 H2507 0.950 . S
C2516 C2515 1.398 . S
C2516 C2517 1.391 . S
C2517 H2505 0.950 . S
C2517 C2513 1.393 . S
C2517 C2516 1.391 . S
C2518 H2508 0.950 . S
C2518 C2519 1.386 . S
C2518 C2520 1.391 . S
C2519 C2518 1.386 . S
C2519 C2523 1.393 . S
C2520 H2509 0.950 . S
C2520 C2518 1.391 . S
C2520 C2521 1.400 . S
C2521 C2515 1.491 . S
C2521 C2520 1.400 . S
C2521 C2522 1.398 . S
C2522 H2510 0.950 . S
C2522 C2521 1.398 . S
C2522 C2523 1.391 . S
C2523 H2511 0.950 . S
C2523 C2519 1.393 . S
C2523 C2522 1.391 . S
H2524 C2532 0.950 . S
H2525 C2537 0.950 . S
H2526 C2534 0.950 . S
H2527 C2536 0.950 . S
H2528 C2538 0.950 . S
H2529 C2540 0.950 . S
H2530 C2542 0.950 . S
H2531 C2543 0.950 . S
C2532 H2524 0.950 . S
C2532 C2533 1.386 . S
C2532 C2534 1.391 . S
C2533 C2532 1.386 . S
C2533 C2537 1.393 . S
C2534 H2526 0.950 . S
C2534 C2532 1.391 . S
C2534 C2535 1.400 . S
C2535 C2534 1.400 . S
C2535 C2536 1.398 . S
C2535 C2541 1.491 . S
C2536 H2527 0.950 . S
C2536 C2535 1.398 . S
C2536 C2537 1.391 . S
C2537 H2525 0.950 . S
C2537 C2533 1.393 . S
C2537 C2536 1.391 . S
C2538 H2528 0.950 . S
C2538 C2539 1.386 . S
C2538 C2540 1.391 . S
C2539 C2538 1.386 . S
C2539 C2543 1.393 . S
C2540 H2529 0.950 . S
C2540 C2538 1.391 . S
C2540 C2541 1.400 . S
C2541 C2535 1.491 . S
C2541 C2540 1.400 . S
C2541 C2542 1.398 . S
C2542 H2530 0.950 . S
C2542 C2541 1.398 . S
C2542 C2543 1.391 . S
C2543 H2531 0.950 . S
C2543 C2539 1.393 . S
C2543 C2542 1.391 . S
H2544 C2552 0.950 . S
H2545 C2557 0.950 . S
H2546 C2554 0.950 . S
H2547 C2556 0.950 . S
H2548 C2558 0.950 . S
H2549 C2560 0.950 . S
H2550 C2562 0.950 . S
H2551 C2563 0.950 . S
C2552 H2544 0.950 . S
C2552 C2553 1.386 . S
C2552 C2554 1.391 . S
C2553 C2552 1.386 . S
C2553 C2557 1.393 . S
C2554 H2546 0.950 . S
C2554 C2552 1.391 . S
C2554 C2555 1.400 . S
C2555 C2554 1.400 . S
C2555 C2556 1.398 . S
C2555 C2561 1.491 . S
C2556 H2547 0.950 . S
C2556 C2555 1.398 . S
C2556 C2557 1.391 . S
C2557 H2545 0.950 . S
C2557 C2553 1.393 . S
C2557 C2556 1.391 . S
C2558 H2548 0.950 . S
C2558 C2559 1.386 . S
C2558 C2560 1.391 . S
C2559 C2558 1.386 . S
C2559 C2563 1.393 . S
C2560 H2549 0.950 . S
C2560 C2558 1.391 . S
C2560 C2561 1.400 . S
C2561 C2555 1.491 . S
C2561 C2560 1.400 . S
C2561 C2562 1.398 . S
C2562 H2550 0.950 . S
C2562 C2561 1.398 . S
C2562 C2563 1.391 . S
C2563 H2551 0.950 . S
C2563 C2559 1.393 . S
C2563 C2562 1.391 . S
H2564 C2572 0.950 . S
H2565 C2577 0.950 . S
H2566 C2574 0.950 . S
H2567 C2576 0.950 . S
H2568 C2578 0.950 . S
H2569 C2580 0.950 . S
H2570 C2582 0.950 . S
H2571 C2583 0.950 . S
C2572 H2564 0.950 . S
C2572 C2573 1.386 . S
C2572 C2574 1.391 . S
C2573 C2572 1.386 . S
C2573 C2577 1.393 . S
C2574 H2566 0.950 . S
C2574 C2572 1.391 . S
C2574 C2575 1.400 . S
C2575 C2574 1.400 . S
C2575 C2576 1.398 . S
C2575 C2581 1.491 . S
C2576 H2567 0.950 . S
C2576 C2575 1.398 . S
C2576 C2577 1.391 . S
C2577 H2565 0.950 . S
C2577 C2573 1.393 . S
C2577 C2576 1.391 . S
C2578 H2568 0.950 . S
C2578 C2579 1.386 . S
C2578 C2580 1.391 . S
C2579 C2578 1.386 . S
C2579 C2583 1.393 . S
C2580 H2569 0.950 . S
C2580 C2578 1.391 . S
C2580 C2581 1.400 . S
C2581 C2575 1.491 . S
C2581 C2580 1.400 . S
C2581 C2582 1.398 . S
C2582 H2570 0.950 . S
C2582 C2581 1.398 . S
C2582 C2583 1.391 . S
C2583 H2571 0.950 . S
C2583 C2579 1.393 . S
C2583 C2582 1.391 . S
H2584 C2592 0.950 . S
H2585 C2597 0.950 . S
H2586 C2594 0.950 . S
H2587 C2596 0.950 . S
H2588 C2598 0.950 . S
H2589 C2600 0.950 . S
H2590 C2602 0.950 . S
H2591 C2603 0.950 . S
C2592 H2584 0.950 . S
C2592 C2593 1.386 . S
C2592 C2594 1.391 . S
C2593 C2592 1.386 . S
C2593 C2597 1.393 . S
C2594 H2586 0.950 . S
C2594 C2592 1.391 . S
C2594 C2595 1.400 . S
C2595 C2594 1.400 . S
C2595 C2596 1.398 . S
C2595 C2601 1.491 . S
C2596 H2587 0.950 . S
C2596 C2595 1.398 . S
C2596 C2597 1.391 . S
C2597 H2585 0.950 . S
C2597 C2593 1.393 . S
C2597 C2596 1.391 . S
C2598 H2588 0.950 . S
C2598 C2599 1.386 . S
C2598 C2600 1.391 . S
C2599 C2598 1.386 . S
C2599 C2603 1.393 . S
C2600 H2589 0.950 . S
C2600 C2598 1.391 . S
C2600 C2601 1.400 . S
C2601 C2595 1.491 . S
C2601 C2600 1.400 . S
C2601 C2602 1.398 . S
C2602 H2590 0.950 . S
C2602 C2601 1.398 . S
C2602 C2603 1.391 . S
C2603 H2591 0.950 . S
C2603 C2599 1.393 . S
C2603 C2602 1.391 . S
H2604 C2612 0.950 . S
H2605 C2617 0.950 . S
H2606 C2614 0.950 . S
H2607 C2616 0.950 . S
H2608 C2618 0.950 . S
H2609 C2620 0.950 . S
H2610 C2622 0.950 . S
H2611 C2623 0.950 . S
C2612 H2604 0.950 . S
C2612 C2613 1.386 . S
C2612 C2614 1.391 . S
C2613 C2612 1.386 . S
C2613 C2617 1.393 . S
C2614 H2606 0.950 . S
C2614 C2612 1.391 . S
C2614 C2615 1.400 . S
C2615 C2614 1.400 . S
C2615 C2616 1.398 . S
C2615 C2621 1.491 . S
C2616 H2607 0.950 . S
C2616 C2615 1.398 . S
C2616 C2617 1.391 . S
C2617 H2605 0.950 . S
C2617 C2613 1.393 . S
C2617 C2616 1.391 . S
C2618 H2608 0.950 . S
C2618 C2619 1.386 . S
C2618 C2620 1.391 . S
C2619 C2618 1.386 . S
C2619 C2623 1.393 . S
C2620 H2609 0.950 . S
C2620 C2618 1.391 . S
C2620 C2621 1.400 . S
C2621 C2615 1.491 . S
C2621 C2620 1.400 . S
C2621 C2622 1.398 . S
C2622 H2610 0.950 . S
C2622 C2621 1.398 . S
C2622 C2623 1.391 . S
C2623 H2611 0.950 . S
C2623 C2619 1.393 . S
C2623 C2622 1.391 . S
H2624 C2632 0.950 . S
H2625 C2637 0.950 . S
H2626 C2634 0.950 . S
H2627 C2636 0.950 . S
H2628 C2638 0.950 . S
H2629 C2640 0.950 . S
H2630 C2642 0.950 . S
H2631 C2643 0.950 . S
C2632 H2624 0.950 . S
C2632 C2633 1.386 . S
C2632 C2634 1.391 . S
C2633 C2632 1.386 . S
C2633 C2637 1.393 . S
C2634 H2626 0.950 . S
C2634 C2632 1.391 . S
C2634 C2635 1.400 . S
C2635 C2634 1.400 . S
C2635 C2636 1.398 . S
C2635 C2641 1.491 . S
C2636 H2627 0.950 . S
C2636 C2635 1.398 . S
C2636 C2637 1.391 . S
C2637 H2625 0.950 . S
C2637 C2633 1.393 . S
C2637 C2636 1.391 . S
C2638 H2628 0.950 . S
C2638 C2639 1.386 . S
C2638 C2640 1.391 . S
C2639 C2638 1.386 . S
C2639 C2643 1.393 . S
C2640 H2629 0.950 . S
C2640 C2638 1.391 . S
C2640 C2641 1.400 . S
C2641 C2635 1.491 . S
C2641 C2640 1.400 . S
C2641 C2642 1.398 . S
C2642 H2630 0.950 . S
C2642 C2641 1.398 . S
C2642 C2643 1.391 . S
C2643 H2631 0.950 . S
C2643 C2639 1.393 . S
C2643 C2642 1.391 . S
H2644 C2652 0.950 . S
H2645 C2657 0.950 . S
H2646 C2654 0.950 . S
H2647 C2656 0.950 . S
H2648 C2658 0.950 . S
H2649 C2660 0.950 . S
H2650 C2662 0.950 . S
H2651 C2663 0.950 . S
C2652 H2644 0.950 . S
C2652 C2653 1.386 . S
C2652 C2654 1.391 . S
C2653 C2652 1.386 . S
C2653 C2657 1.393 . S
C2654 H2646 0.950 . S
C2654 C2652 1.391 . S
C2654 C2655 1.400 . S
C2655 C2654 1.400 . S
C2655 C2656 1.398 . S
C2655 C2661 1.491 . S
C2656 H2647 0.950 . S
C2656 C2655 1.398 . S
C2656 C2657 1.391 . S
C2657 H2645 0.950 . S
C2657 C2653 1.393 . S
C2657 C2656 1.391 . S
C2658 H2648 0.950 . S
C2658 C2659 1.386 . S
C2658 C2660 1.391 . S
C2659 C2658 1.386 . S
C2659 C2663 1.393 . S
C2660 H2649 0.950 . S
C2660 C2658 1.391 . S
C2660 C2661 1.400 . S
C2661 C2655 1.491 . S
C2661 C2660 1.400 . S
C2661 C2662 1.398 . S
C2662 H2650 0.950 . S
C2662 C2661 1.398 . S
C2662 C2663 1.391 . S
C2663 H2651 0.950 . S
C2663 C2659 1.393 . S
C2663 C2662 1.391 . S
H2664 C2672 0.950 . S
H2665 C2677 0.950 . S
H2666 C2674 0.950 . S
H2667 C2676 0.950 . S
H2668 C2678 0.950 . S
H2669 C2680 0.950 . S
H2670 C2682 0.950 . S
H2671 C2683 0.950 . S
C2672 H2664 0.950 . S
C2672 C2673 1.386 . S
C2672 C2674 1.391 . S
C2673 C2672 1.386 . S
C2673 C2677 1.393 . S
C2674 H2666 0.950 . S
C2674 C2672 1.391 . S
C2674 C2675 1.400 . S
C2675 C2674 1.400 . S
C2675 C2676 1.398 . S
C2675 C2681 1.491 . S
C2676 H2667 0.950 . S
C2676 C2675 1.398 . S
C2676 C2677 1.391 . S
C2677 H2665 0.950 . S
C2677 C2673 1.393 . S
C2677 C2676 1.391 . S
C2678 H2668 0.950 . S
C2678 C2679 1.386 . S
C2678 C2680 1.391 . S
C2679 C2678 1.386 . S
C2679 C2683 1.393 . S
C2680 H2669 0.950 . S
C2680 C2678 1.391 . S
C2680 C2681 1.400 . S
C2681 C2675 1.491 . S
C2681 C2680 1.400 . S
C2681 C2682 1.398 . S
C2682 H2670 0.950 . S
C2682 C2681 1.398 . S
C2682 C2683 1.391 . S
C2683 H2671 0.950 . S
C2683 C2679 1.393 . S
C2683 C2682 1.391 . S
H2684 C2692 0.950 . S
H2685 C2697 0.950 . S
H2686 C2694 0.950 . S
H2687 C2696 0.950 . S
H2688 C2698 0.950 . S
H2689 C2700 0.950 . S
H2690 C2702 0.950 . S
H2691 C2703 0.950 . S
C2692 H2684 0.950 . S
C2692 C2693 1.386 . S
C2692 C2694 1.391 . S
C2693 C2692 1.386 . S
C2693 C2697 1.393 . S
C2694 H2686 0.950 . S
C2694 C2692 1.391 . S
C2694 C2695 1.400 . S
C2695 C2694 1.400 . S
C2695 C2696 1.398 . S
C2695 C2701 1.491 . S
C2696 H2687 0.950 . S
C2696 C2695 1.398 . S
C2696 C2697 1.391 . S
C2697 H2685 0.950 . S
C2697 C2693 1.393 . S
C2697 C2696 1.391 . S
C2698 H2688 0.950 . S
C2698 C2699 1.386 . S
C2698 C2700 1.391 . S
C2699 C2698 1.386 . S
C2699 C2703 1.393 . S
C2700 H2689 0.950 . S
C2700 C2698 1.391 . S
C2700 C2701 1.400 . S
C2701 C2695 1.491 . S
C2701 C2700 1.400 . S
C2701 C2702 1.398 . S
C2702 H2690 0.950 . S
C2702 C2701 1.398 . S
C2702 C2703 1.391 . S
C2703 H2691 0.950 . S
C2703 C2699 1.393 . S
C2703 C2702 1.391 . S
H2704 C2712 0.950 . S
H2705 C2717 0.950 . S
H2706 C2714 0.950 . S
H2707 C2716 0.950 . S
H2708 C2718 0.950 . S
H2709 C2720 0.950 . S
H2710 C2722 0.950 . S
H2711 C2723 0.950 . S
C2712 H2704 0.950 . S
C2712 C2713 1.386 . S
C2712 C2714 1.391 . S
C2713 C2712 1.386 . S
C2713 C2717 1.393 . S
C2714 H2706 0.950 . S
C2714 C2712 1.391 . S
C2714 C2715 1.400 . S
C2715 C2714 1.400 . S
C2715 C2716 1.398 . S
C2715 C2721 1.491 . S
C2716 H2707 0.950 . S
C2716 C2715 1.398 . S
C2716 C2717 1.391 . S
C2717 H2705 0.950 . S
C2717 C2713 1.393 . S
C2717 C2716 1.391 . S
C2718 H2708 0.950 . S
C2718 C2719 1.386 . S
C2718 C2720 1.391 . S
C2719 C2718 1.386 . S
C2719 C2723 1.393 . S
C2720 H2709 0.950 . S
C2720 C2718 1.391 . S
C2720 C2721 1.400 . S
C2721 C2715 1.491 . S
C2721 C2720 1.400 . S
C2721 C2722 1.398 . S
C2722 H2710 0.950 . S
C2722 C2721 1.398 . S
C2722 C2723 1.391 . S
C2723 H2711 0.950 . S
C2723 C2719 1.393 . S
C2723 C2722 1.391 . S
H2724 C2732 0.950 . S
H2725 C2737 0.950 . S
H2726 C2734 0.950 . S
H2727 C2736 0.950 . S
H2728 C2738 0.950 . S
H2729 C2740 0.950 . S
H2730 C2742 0.950 . S
H2731 C2743 0.950 . S
C2732 H2724 0.950 . S
C2732 C2733 1.386 . S
C2732 C2734 1.391 . S
C2733 C2732 1.386 . S
C2733 C2737 1.393 . S
C2734 H2726 0.950 . S
C2734 C2732 1.391 . S
C2734 C2735 1.400 . S
C2735 C2734 1.400 . S
C2735 C2736 1.398 . S
C2735 C2741 1.491 . S
C2736 H2727 0.950 . S
C2736 C2735 1.398 . S
C2736 C2737 1.391 . S
C2737 H2725 0.950 . S
C2737 C2733 1.393 . S
C2737 C2736 1.391 . S
C2738 H2728 0.950 . S
C2738 C2739 1.386 . S
C2738 C2740 1.391 . S
C2739 C2738 1.386 . S
C2739 C2743 1.393 . S
C2740 H2729 0.950 . S
C2740 C2738 1.391 . S
C2740 C2741 1.400 . S
C2741 C2735 1.491 . S
C2741 C2740 1.400 . S
C2741 C2742 1.398 . S
C2742 H2730 0.950 . S
C2742 C2741 1.398 . S
C2742 C2743 1.391 . S
C2743 H2731 0.950 . S
C2743 C2739 1.393 . S
C2743 C2742 1.391 . S
H2744 C2752 0.950 . S
H2745 C2757 0.950 . S
H2746 C2754 0.950 . S
H2747 C2756 0.950 . S
H2748 C2758 0.950 . S
H2749 C2760 0.950 . S
H2750 C2762 0.950 . S
H2751 C2763 0.950 . S
C2752 H2744 0.950 . S
C2752 C2753 1.386 . S
C2752 C2754 1.391 . S
C2753 C2752 1.386 . S
C2753 C2757 1.393 . S
C2754 H2746 0.950 . S
C2754 C2752 1.391 . S
C2754 C2755 1.400 . S
C2755 C2754 1.400 . S
C2755 C2756 1.398 . S
C2755 C2761 1.491 . S
C2756 H2747 0.950 . S
C2756 C2755 1.398 . S
C2756 C2757 1.391 . S
C2757 H2745 0.950 . S
C2757 C2753 1.393 . S
C2757 C2756 1.391 . S
C2758 H2748 0.950 . S
C2758 C2759 1.386 . S
C2758 C2760 1.391 . S
C2759 C2758 1.386 . S
C2759 C2763 1.393 . S
C2760 H2749 0.950 . S
C2760 C2758 1.391 . S
C2760 C2761 1.400 . S
C2761 C2755 1.491 . S
C2761 C2760 1.400 . S
C2761 C2762 1.398 . S
C2762 H2750 0.950 . S
C2762 C2761 1.398 . S
C2762 C2763 1.391 . S
C2763 H2751 0.950 . S
C2763 C2759 1.393 . S
C2763 C2762 1.391 . S
H2764 C2772 0.950 . S
H2765 C2777 0.950 . S
H2766 C2774 0.950 . S
H2767 C2776 0.950 . S
H2768 C2778 0.950 . S
H2769 C2780 0.950 . S
H2770 C2782 0.950 . S
H2771 C2783 0.950 . S
C2772 H2764 0.950 . S
C2772 C2773 1.386 . S
C2772 C2774 1.391 . S
C2773 C2772 1.386 . S
C2773 C2777 1.393 . S
C2774 H2766 0.950 . S
C2774 C2772 1.391 . S
C2774 C2775 1.400 . S
C2775 C2774 1.400 . S
C2775 C2776 1.398 . S
C2775 C2781 1.491 . S
C2776 H2767 0.950 . S
C2776 C2775 1.398 . S
C2776 C2777 1.391 . S
C2777 H2765 0.950 . S
C2777 C2773 1.393 . S
C2777 C2776 1.391 . S
C2778 H2768 0.950 . S
C2778 C2779 1.386 . S
C2778 C2780 1.391 . S
C2779 C2778 1.386 . S
C2779 C2783 1.393 . S
C2780 H2769 0.950 . S
C2780 C2778 1.391 . S
C2780 C2781 1.400 . S
C2781 C2775 1.491 . S
C2781 C2780 1.400 . S
C2781 C2782 1.398 . S
C2782 H2770 0.950 . S
C2782 C2781 1.398 . S
C2782 C2783 1.391 . S
C2783 H2771 0.950 . S
C2783 C2779 1.393 . S
C2783 C2782 1.391 . S
H2784 C2792 0.950 . S
H2785 C2797 0.950 . S
H2786 C2794 0.950 . S
H2787 C2796 0.950 . S
H2788 C2798 0.950 . S
H2789 C2800 0.950 . S
H2790 C2802 0.950 . S
H2791 C2803 0.950 . S
C2792 H2784 0.950 . S
C2792 C2793 1.386 . S
C2792 C2794 1.391 . S
C2793 C2792 1.386 . S
C2793 C2797 1.393 . S
C2794 H2786 0.950 . S
C2794 C2792 1.391 . S
C2794 C2795 1.400 . S
C2795 C2794 1.400 . S
C2795 C2796 1.398 . S
C2795 C2801 1.491 . S
C2796 H2787 0.950 . S
C2796 C2795 1.398 . S
C2796 C2797 1.391 . S
C2797 H2785 0.950 . S
C2797 C2793 1.393 . S
C2797 C2796 1.391 . S
C2798 H2788 0.950 . S
C2798 C2799 1.386 . S
C2798 C2800 1.391 . S
C2799 C2798 1.386 . S
C2799 C2803 1.393 . S
C2800 H2789 0.950 . S
C2800 C2798 1.391 . S
C2800 C2801 1.400 . S
C2801 C2795 1.491 . S
C2801 C2800 1.400 . S
C2801 C2802 1.398 . S
C2802 H2790 0.950 . S
C2802 C2801 1.398 . S
C2802 C2803 1.391 . S
C2803 H2791 0.950 . S
C2803 C2799 1.393 . S
C2803 C2802 1.391 . S
H2804 C2812 0.950 . S
H2805 C2817 0.950 . S
H2806 C2814 0.950 . S
H2807 C2816 0.950 . S
H2808 C2818 0.950 . S
H2809 C2820 0.950 . S
H2810 C2822 0.950 . S
H2811 C2823 0.950 . S
C2812 H2804 0.950 . S
C2812 C2813 1.386 . S
C2812 C2814 1.391 . S
C2813 C2812 1.386 . S
C2813 C2817 1.393 . S
C2814 H2806 0.950 . S
C2814 C2812 1.391 . S
C2814 C2815 1.400 . S
C2815 C2814 1.400 . S
C2815 C2816 1.398 . S
C2815 C2821 1.491 . S
C2816 H2807 0.950 . S
C2816 C2815 1.398 . S
C2816 C2817 1.391 . S
C2817 H2805 0.950 . S
C2817 C2813 1.393 . S
C2817 C2816 1.391 . S
C2818 H2808 0.950 . S
C2818 C2819 1.386 . S
C2818 C2820 1.391 . S
C2819 C2818 1.386 . S
C2819 C2823 1.393 . S
C2820 H2809 0.950 . S
C2820 C2818 1.391 . S
C2820 C2821 1.400 . S
C2821 C2815 1.491 . S
C2821 C2820 1.400 . S
C2821 C2822 1.398 . S
C2822 H2810 0.950 . S
C2822 C2821 1.398 . S
C2822 C2823 1.391 . S
C2823 H2811 0.950 . S
C2823 C2819 1.393 . S
C2823 C2822 1.391 . S
H2824 C2832 0.950 . S
H2825 C2837 0.950 . S
H2826 C2834 0.950 . S
H2827 C2836 0.950 . S
H2828 C2838 0.950 . S
H2829 C2840 0.950 . S
H2830 C2842 0.950 . S
H2831 C2843 0.950 . S
C2832 H2824 0.950 . S
C2832 C2833 1.386 . S
C2832 C2834 1.391 . S
C2833 C2832 1.386 . S
C2833 C2837 1.393 . S
C2834 H2826 0.950 . S
C2834 C2832 1.391 . S
C2834 C2835 1.400 . S
C2835 C2834 1.400 . S
C2835 C2836 1.398 . S
C2835 C2841 1.491 . S
C2836 H2827 0.950 . S
C2836 C2835 1.398 . S
C2836 C2837 1.391 . S
C2837 H2825 0.950 . S
C2837 C2833 1.393 . S
C2837 C2836 1.391 . S
C2838 H2828 0.950 . S
C2838 C2839 1.386 . S
C2838 C2840 1.391 . S
C2839 C2838 1.386 . S
C2839 C2843 1.393 . S
C2840 H2829 0.950 . S
C2840 C2838 1.391 . S
C2840 C2841 1.400 . S
C2841 C2835 1.491 . S
C2841 C2840 1.400 . S
C2841 C2842 1.398 . S
C2842 H2830 0.950 . S
C2842 C2841 1.398 . S
C2842 C2843 1.391 . S
C2843 H2831 0.950 . S
C2843 C2839 1.393 . S
C2843 C2842 1.391 . S
H2844 C2852 0.950 . S
H2845 C2857 0.950 . S
H2846 C2854 0.950 . S
H2847 C2856 0.950 . S
H2848 C2858 0.950 . S
H2849 C2860 0.950 . S
H2850 C2862 0.950 . S
H2851 C2863 0.950 . S
C2852 H2844 0.950 . S
C2852 C2853 1.386 . S
C2852 C2854 1.391 . S
C2853 C2852 1.386 . S
C2853 C2857 1.393 . S
C2854 H2846 0.950 . S
C2854 C2852 1.391 . S
C2854 C2855 1.400 . S
C2855 C2854 1.400 . S
C2855 C2856 1.398 . S
C2855 C2861 1.491 . S
C2856 H2847 0.950 . S
C2856 C2855 1.398 . S
C2856 C2857 1.391 . S
C2857 H2845 0.950 . S
C2857 C2853 1.393 . S
C2857 C2856 1.391 . S
C2858 H2848 0.950 . S
C2858 C2859 1.386 . S
C2858 C2860 1.391 . S
C2859 C2858 1.386 . S
C2859 C2863 1.393 . S
C2860 H2849 0.950 . S
C2860 C2858 1.391 . S
C2860 C2861 1.400 . S
C2861 C2855 1.491 . S
C2861 C2860 1.400 . S
C2861 C2862 1.398 . S
C2862 H2850 0.950 . S
C2862 C2861 1.398 . S
C2862 C2863 1.391 . S
C2863 H2851 0.950 . S
C2863 C2859 1.393 . S
C2863 C2862 1.391 . S
H2864 C2872 0.950 . S
H2865 C2877 0.950 . S
H2866 C2874 0.950 . S
H2867 C2876 0.950 . S
H2868 C2878 0.950 . S
H2869 C2880 0.950 . S
H2870 C2882 0.950 . S
H2871 C2883 0.950 . S
C2872 H2864 0.950 . S
C2872 C2873 1.386 . S
C2872 C2874 1.391 . S
C2873 C2872 1.386 . S
C2873 C2877 1.393 . S
C2874 H2866 0.950 . S
C2874 C2872 1.391 . S
C2874 C2875 1.400 . S
C2875 C2874 1.400 . S
C2875 C2876 1.398 . S
C2875 C2881 1.491 . S
C2876 H2867 0.950 . S
C2876 C2875 1.398 . S
C2876 C2877 1.391 . S
C2877 H2865 0.950 . S
C2877 C2873 1.393 . S
C2877 C2876 1.391 . S
C2878 H2868 0.950 . S
C2878 C2879 1.386 . S
C2878 C2880 1.391 . S
C2879 C2878 1.386 . S
C2879 C2883 1.393 . S
C2880 H2869 0.950 . S
C2880 C2878 1.391 . S
C2880 C2881 1.400 . S
C2881 C2875 1.491 . S
C2881 C2880 1.400 . S
C2881 C2882 1.398 . S
C2882 H2870 0.950 . S
C2882 C2881 1.398 . S
C2882 C2883 1.391 . S
C2883 H2871 0.950 . S
C2883 C2879 1.393 . S
C2883 C2882 1.391 . S
H2884 C2892 0.950 . S
H2885 C2897 0.950 . S
H2886 C2894 0.950 . S
H2887 C2896 0.950 . S
H2888 C2898 0.950 . S
H2889 C2900 0.950 . S
H2890 C2902 0.950 . S
H2891 C2903 0.950 . S
C2892 H2884 0.950 . S
C2892 C2893 1.386 . S
C2892 C2894 1.391 . S
C2893 C2892 1.386 . S
C2893 C2897 1.393 . S
C2894 H2886 0.950 . S
C2894 C2892 1.391 . S
C2894 C2895 1.400 . S
C2895 C2894 1.400 . S
C2895 C2896 1.398 . S
C2895 C2901 1.491 . S
C2896 H2887 0.950 . S
C2896 C2895 1.398 . S
C2896 C2897 1.391 . S
C2897 H2885 0.950 . S
C2897 C2893 1.393 . S
C2897 C2896 1.391 . S
C2898 H2888 0.950 . S
C2898 C2899 1.386 . S
C2898 C2900 1.391 . S
C2899 C2898 1.386 . S
C2899 C2903 1.393 . S
C2900 H2889 0.950 . S
C2900 C2898 1.391 . S
C2900 C2901 1.400 . S
C2901 C2895 1.491 . S
C2901 C2900 1.400 . S
C2901 C2902 1.398 . S
C2902 H2890 0.950 . S
C2902 C2901 1.398 . S
C2902 C2903 1.391 . S
C2903 H2891 0.950 . S
C2903 C2899 1.393 . S
C2903 C2902 1.391 . S
H2904 C2912 0.950 . S
H2905 C2917 0.950 . S
H2906 C2914 0.950 . S
H2907 C2916 0.950 . S
H2908 C2918 0.950 . S
H2909 C2920 0.950 . S
H2910 C2922 0.950 . S
H2911 C2923 0.950 . S
C2912 H2904 0.950 . S
C2912 C2913 1.386 . S
C2912 C2914 1.391 . S
C2913 C2912 1.386 . S
C2913 C2917 1.393 . S
C2914 H2906 0.950 . S
C2914 C2912 1.391 . S
C2914 C2915 1.400 . S
C2915 C2914 1.400 . S
C2915 C2916 1.398 . S
C2915 C2921 1.491 . S
C2916 H2907 0.950 . S
C2916 C2915 1.398 . S
C2916 C2917 1.391 . S
C2917 H2905 0.950 . S
C2917 C2913 1.393 . S
C2917 C2916 1.391 . S
C2918 H2908 0.950 . S
C2918 C2919 1.386 . S
C2918 C2920 1.391 . S
C2919 C2918 1.386 . S
C2919 C2923 1.393 . S
C2920 H2909 0.950 . S
C2920 C2918 1.391 . S
C2920 C2921 1.400 . S
C2921 C2915 1.491 . S
C2921 C2920 1.400 . S
C2921 C2922 1.398 . S
C2922 H2910 0.950 . S
C2922 C2921 1.398 . S
C2922 C2923 1.391 . S
C2923 H2911 0.950 . S
C2923 C2919 1.393 . S
C2923 C2922 1.391 . S
H2924 C2932 0.950 . S
H2925 C2937 0.950 . S
H2926 C2934 0.950 . S
H2927 C2936 0.950 . S
H2928 C2938 0.950 . S
H2929 C2940 0.950 . S
H2930 C2942 0.950 . S
H2931 C2943 0.950 . S
C2932 H2924 0.950 . S
C2932 C2933 1.386 . S
C2932 C2934 1.391 . S
C2933 C2932 1.386 . S
C2933 C2937 1.393 . S
C2934 H2926 0.950 . S
C2934 C2932 1.391 . S
C2934 C2935 1.400 . S
C2935 C2934 1.400 . S
C2935 C2936 1.398 . S
C2935 C2941 1.491 . S
C2936 H2927 0.950 . S
C2936 C2935 1.398 . S
C2936 C2937 1.391 . S
C2937 H2925 0.950 . S
C2937 C2933 1.393 . S
C2937 C2936 1.391 . S
C2938 H2928 0.950 . S
C2938 C2939 1.386 . S
C2938 C2940 1.391 . S
C2939 C2938 1.386 . S
C2939 C2943 1.393 . S
C2940 H2929 0.950 . S
C2940 C2938 1.391 . S
C2940 C2941 1.400 . S
C2941 C2935 1.491 . S
C2941 C2940 1.400 . S
C2941 C2942 1.398 . S
C2942 H2930 0.950 . S
C2942 C2941 1.398 . S
C2942 C2943 1.391 . S
C2943 H2931 0.950 . S
C2943 C2939 1.393 . S
C2943 C2942 1.391 . S
H2944 C2952 0.950 . S
H2945 C2957 0.950 . S
H2946 C2954 0.950 . S
H2947 C2956 0.950 . S
H2948 C2958 0.950 . S
H2949 C2960 0.950 . S
H2950 C2962 0.950 . S
H2951 C2963 0.950 . S
C2952 H2944 0.950 . S
C2952 C2953 1.386 . S
C2952 C2954 1.391 . S
C2953 C2952 1.386 . S
C2953 C2957 1.393 . S
C2954 H2946 0.950 . S
C2954 C2952 1.391 . S
C2954 C2955 1.400 . S
C2955 C2954 1.400 . S
C2955 C2956 1.398 . S
C2955 C2961 1.491 . S
C2956 H2947 0.950 . S
C2956 C2955 1.398 . S
C2956 C2957 1.391 . S
C2957 H2945 0.950 . S
C2957 C2953 1.393 . S
C2957 C2956 1.391 . S
C2958 H2948 0.950 . S
C2958 C2959 1.386 . S
C2958 C2960 1.391 . S
C2959 C2958 1.386 . S
C2959 C2963 1.393 . S
C2960 H2949 0.950 . S
C2960 C2958 1.391 . S
C2960 C2961 1.400 . S
C2961 C2955 1.491 . S
C2961 C2960 1.400 . S
C2961 C2962 1.398 . S
C2962 H2950 0.950 . S
C2962 C2961 1.398 . S
C2962 C2963 1.391 . S
C2963 H2951 0.950 . S
C2963 C2959 1.393 . S
C2963 C2962 1.391 . S
H2964 C2972 0.950 . S
H2965 C2977 0.950 . S
H2966 C2974 0.950 . S
H2967 C2976 0.950 . S
H2968 C2978 0.950 . S
H2969 C2980 0.950 . S
H2970 C2982 0.950 . S
H2971 C2983 0.950 . S
C2972 H2964 0.950 . S
C2972 C2973 1.386 . S
C2972 C2974 1.391 . S
C2973 C2972 1.386 . S
C2973 C2977 1.393 . S
C2974 H2966 0.950 . S
C2974 C2972 1.391 . S
C2974 C2975 1.400 . S
C2975 C2974 1.400 . S
C2975 C2976 1.398 . S
C2975 C2981 1.491 . S
C2976 H2967 0.950 . S
C2976 C2975 1.398 . S
C2976 C2977 1.391 . S
C2977 H2965 0.950 . S
C2977 C2973 1.393 . S
C2977 C2976 1.391 . S
C2978 H2968 0.950 . S
C2978 C2979 1.386 . S
C2978 C2980 1.391 . S
C2979 C2978 1.386 . S
C2979 C2983 1.393 . S
C2980 H2969 0.950 . S
C2980 C2978 1.391 . S
C2980 C2981 1.400 . S
C2981 C2975 1.491 . S
C2981 C2980 1.400 . S
C2981 C2982 1.398 . S
C2982 H2970 0.950 . S
C2982 C2981 1.398 . S
C2982 C2983 1.391 . S
C2983 H2971 0.950 . S
C2983 C2979 1.393 . S
C2983 C2982 1.391 . S
H2984 C2992 0.950 . S
H2985 C2997 0.950 . S
H2986 C2994 0.950 . S
H2987 C2996 0.950 . S
H2988 C2998 0.950 . S
H2989 C3000 0.950 . S
H2990 C3002 0.950 . S
H2991 C3003 0.950 . S
C2992 H2984 0.950 . S
C2992 C2993 1.386 . S
C2992 C2994 1.391 . S
C2993 C2992 1.386 . S
C2993 C2997 1.393 . S
C2994 H2986 0.950 . S
C2994 C2992 1.391 . S
C2994 C2995 1.400 . S
C2995 C2994 1.400 . S
C2995 C2996 1.398 . S
C2995 C3001 1.491 . S
C2996 H2987 0.950 . S
C2996 C2995 1.398 . S
C2996 C2997 1.391 . S
C2997 H2985 0.950 . S
C2997 C2993 1.393 . S
C2997 C2996 1.391 . S
C2998 H2988 0.950 . S
C2998 C2999 1.386 . S
C2998 C3000 1.391 . S
C2999 C2998 1.386 . S
C2999 C3003 1.393 . S
C3000 H2989 0.950 . S
C3000 C2998 1.391 . S
C3000 C3001 1.400 . S
C3001 C2995 1.491 . S
C3001 C3000 1.400 . S
C3001 C3002 1.398 . S
C3002 H2990 0.950 . S
C3002 C3001 1.398 . S
C3002 C3003 1.391 . S
C3003 H2991 0.950 . S
C3003 C2999 1.393 . S
C3003 C3002 1.391 . S
H3004 C3012 0.950 . S
H3005 C3017 0.950 . S
H3006 C3014 0.950 . S
H3007 C3016 0.950 . S
H3008 C3018 0.950 . S
H3009 C3020 0.950 . S
H3010 C3022 0.950 . S
H3011 C3023 0.950 . S
C3012 H3004 0.950 . S
C3012 C3013 1.386 . S
C3012 C3014 1.391 . S
C3013 C3012 1.386 . S
C3013 C3017 1.393 . S
C3014 H3006 0.950 . S
C3014 C3012 1.391 . S
C3014 C3015 1.400 . S
C3015 C3014 1.400 . S
C3015 C3016 1.398 . S
C3015 C3021 1.491 . S
C3016 H3007 0.950 . S
C3016 C3015 1.398 . S
C3016 C3017 1.391 . S
C3017 H3005 0.950 . S
C3017 C3013 1.393 . S
C3017 C3016 1.391 . S
C3018 H3008 0.950 . S
C3018 C3019 1.386 . S
C3018 C3020 1.391 . S
C3019 C3018 1.386 . S
C3019 C3023 1.393 . S
C3020 H3009 0.950 . S
C3020 C3018 1.391 . S
C3020 C3021 1.400 . S
C3021 C3015 1.491 . S
C3021 C3020 1.400 . S
C3021 C3022 1.398 . S
C3022 H3010 0.950 . S
C3022 C3021 1.398 . S
C3022 C3023 1.391 . S
C3023 H3011 0.950 . S
C3023 C3019 1.393 . S
C3023 C3022 1.391 . S
H3024 C3032 0.950 . S
H3025 C3037 0.950 . S
H3026 C3034 0.950 . S
H3027 C3036 0.950 . S
H3028 C3038 0.950 . S
H3029 C3040 0.950 . S
H3030 C3042 0.950 . S
H3031 C3043 0.950 . S
C3032 H3024 0.950 . S
C3032 C3033 1.386 . S
C3032 C3034 1.391 . S
C3033 C3032 1.386 . S
C3033 C3037 1.393 . S
C3034 H3026 0.950 . S
C3034 C3032 1.391 . S
C3034 C3035 1.400 . S
C3035 C3034 1.400 . S
C3035 C3036 1.398 . S
C3035 C3041 1.491 . S
C3036 H3027 0.950 . S
C3036 C3035 1.398 . S
C3036 C3037 1.391 . S
C3037 H3025 0.950 . S
C3037 C3033 1.393 . S
C3037 C3036 1.391 . S
C3038 H3028 0.950 . S
C3038 C3039 1.386 . S
C3038 C3040 1.391 . S
C3039 C3038 1.386 . S
C3039 C3043 1.393 . S
C3040 H3029 0.950 . S
C3040 C3038 1.391 . S
C3040 C3041 1.400 . S
C3041 C3035 1.491 . S
C3041 C3040 1.400 . S
C3041 C3042 1.398 . S
C3042 H3030 0.950 . S
C3042 C3041 1.398 . S
C3042 C3043 1.391 . S
C3043 H3031 0.950 . S
C3043 C3039 1.393 . S
C3043 C3042 1.391 . S
H3044 C3052 0.950 . S
H3045 C3057 0.950 . S
H3046 C3054 0.950 . S
H3047 C3056 0.950 . S
H3048 C3058 0.950 . S
H3049 C3060 0.950 . S
H3050 C3062 0.950 . S
H3051 C3063 0.950 . S
C3052 H3044 0.950 . S
C3052 C3053 1.386 . S
C3052 C3054 1.391 . S
C3053 C3052 1.386 . S
C3053 C3057 1.393 . S
C3054 H3046 0.950 . S
C3054 C3052 1.391 . S
C3054 C3055 1.400 . S
C3055 C3054 1.400 . S
C3055 C3056 1.398 . S
C3055 C3061 1.491 . S
C3056 H3047 0.950 . S
C3056 C3055 1.398 . S
C3056 C3057 1.391 . S
C3057 H3045 0.950 . S
C3057 C3053 1.393 . S
C3057 C3056 1.391 . S
C3058 H3048 0.950 . S
C3058 C3059 1.386 . S
C3058 C3060 1.391 . S
C3059 C3058 1.386 . S
C3059 C3063 1.393 . S
C3060 H3049 0.950 . S
C3060 C3058 1.391 . S
C3060 C3061 1.400 . S
C3061 C3055 1.491 . S
C3061 C3060 1.400 . S
C3061 C3062 1.398 . S
C3062 H3050 0.950 . S
C3062 C3061 1.398 . S
C3062 C3063 1.391 . S
C3063 H3051 0.950 . S
C3063 C3059 1.393 . S
C3063 C3062 1.391 . S
H3064 C3072 0.950 . S
H3065 C3077 0.950 . S
H3066 C3074 0.950 . S
H3067 C3076 0.950 . S
H3068 C3078 0.950 . S
H3069 C3080 0.950 . S
H3070 C3082 0.950 . S
H3071 C3083 0.950 . S
C3072 H3064 0.950 . S
C3072 C3073 1.386 . S
C3072 C3074 1.391 . S
C3073 C3072 1.386 . S
C3073 C3077 1.393 . S
C3074 H3066 0.950 . S
C3074 C3072 1.391 . S
C3074 C3075 1.400 . S
C3075 C3074 1.400 . S
C3075 C3076 1.398 . S
C3075 C3081 1.491 . S
C3076 H3067 0.950 . S
C3076 C3075 1.398 . S
C3076 C3077 1.391 . S
C3077 H3065 0.950 . S
C3077 C3073 1.393 . S
C3077 C3076 1.391 . S
C3078 H3068 0.950 . S
C3078 C3079 1.386 . S
C3078 C3080 1.391 . S
C3079 C3078 1.386 . S
C3079 C3083 1.393 . S
C3080 H3069 0.950 . S
C3080 C3078 1.391 . S
C3080 C3081 1.400 . S
C3081 C3075 1.491 . S
C3081 C3080 1.400 . S
C3081 C3082 1.398 . S
C3082 H3070 0.950 . S
C3082 C3081 1.398 . S
C3082 C3083 1.391 . S
C3083 H3071 0.950 . S
C3083 C3079 1.393 . S
C3083 C3082 1.391 . S
H3084 C3092 0.950 . S
H3085 C3097 0.950 . S
H3086 C3094 0.950 . S
H3087 C3096 0.950 . S
H3088 C3098 0.950 . S
H3089 C3100 0.950 . S
H3090 C3102 0.950 . S
H3091 C3103 0.950 . S
C3092 H3084 0.950 . S
C3092 C3093 1.386 . S
C3092 C3094 1.391 . S
C3093 C3092 1.386 . S
C3093 C3097 1.393 . S
C3094 H3086 0.950 . S
C3094 C3092 1.391 . S
C3094 C3095 1.400 . S
C3095 C3094 1.400 . S
C3095 C3096 1.398 . S
C3095 C3101 1.491 . S
C3096 H3087 0.950 . S
C3096 C3095 1.398 . S
C3096 C3097 1.391 . S
C3097 H3085 0.950 . S
C3097 C3093 1.393 . S
C3097 C3096 1.391 . S
C3098 H3088 0.950 . S
C3098 C3099 1.386 . S
C3098 C3100 1.391 . S
C3099 C3098 1.386 . S
C3099 C3103 1.393 . S
C3100 H3089 0.950 . S
C3100 C3098 1.391 . S
C3100 C3101 1.400 . S
C3101 C3095 1.491 . S
C3101 C3100 1.400 . S
C3101 C3102 1.398 . S
C3102 H3090 0.950 . S
C3102 C3101 1.398 . S
C3102 C3103 1.391 . S
C3103 H3091 0.950 . S
C3103 C3099 1.393 . S
C3103 C3102 1.391 . S
H3104 C3112 0.950 . S
H3105 C3117 0.950 . S
H3106 C3114 0.950 . S
H3107 C3116 0.950 . S
H3108 C3118 0.950 . S
H3109 C3120 0.950 . S
H3110 C3122 0.950 . S
H3111 C3123 0.950 . S
C3112 H3104 0.950 . S
C3112 C3113 1.386 . S
C3112 C3114 1.391 . S
C3113 C3112 1.386 . S
C3113 C3117 1.393 . S
C3114 H3106 0.950 . S
C3114 C3112 1.391 . S
C3114 C3115 1.400 . S
C3115 C3114 1.400 . S
C3115 C3116 1.398 . S
C3115 C3121 1.491 . S
C3116 H3107 0.950 . S
C3116 C3115 1.398 . S
C3116 C3117 1.391 . S
C3117 H3105 0.950 . S
C3117 C3113 1.393 . S
C3117 C3116 1.391 . S
C3118 H3108 0.950 . S
C3118 C3119 1.386 . S
C3118 C3120 1.391 . S
C3119 C3118 1.386 . S
C3119 C3123 1.393 . S
C3120 H3109 0.950 . S
C3120 C3118 1.391 . S
C3120 C3121 1.400 . S
C3121 C3115 1.491 . S
C3121 C3120 1.400 . S
C3121 C3122 1.398 . S
C3122 H3110 0.950 . S
C3122 C3121 1.398 . S
C3122 C3123 1.391 . S
C3123 H3111 0.950 . S
C3123 C3119 1.393 . S
C3123 C3122 1.391 . S
H3124 C3132 0.950 . S
H3125 C3137 0.950 . S
H3126 C3134 0.950 . S
H3127 C3136 0.950 . S
H3128 C3138 0.950 . S
H3129 C3140 0.950 . S
H3130 C3142 0.950 . S
H3131 C3143 0.950 . S
C3132 H3124 0.950 . S
C3132 C3133 1.386 . S
C3132 C3134 1.391 . S
C3133 C3132 1.386 . S
C3133 C3137 1.393 . S
C3134 H3126 0.950 . S
C3134 C3132 1.391 . S
C3134 C3135 1.400 . S
C3135 C3134 1.400 . S
C3135 C3136 1.398 . S
C3135 C3141 1.491 . S
C3136 H3127 0.950 . S
C3136 C3135 1.398 . S
C3136 C3137 1.391 . S
C3137 H3125 0.950 . S
C3137 C3133 1.393 . S
C3137 C3136 1.391 . S
C3138 H3128 0.950 . S
C3138 C3139 1.386 . S
C3138 C3140 1.391 . S
C3139 C3138 1.386 . S
C3139 C3143 1.393 . S
C3140 H3129 0.950 . S
C3140 C3138 1.391 . S
C3140 C3141 1.400 . S
C3141 C3135 1.491 . S
C3141 C3140 1.400 . S
C3141 C3142 1.398 . S
C3142 H3130 0.950 . S
C3142 C3141 1.398 . S
C3142 C3143 1.391 . S
C3143 H3131 0.950 . S
C3143 C3139 1.393 . S
C3143 C3142 1.391 . S
H3144 C3152 0.950 . S
H3145 C3157 0.950 . S
H3146 C3154 0.950 . S
H3147 C3156 0.950 . S
H3148 C3158 0.950 . S
H3149 C3160 0.950 . S
H3150 C3162 0.950 . S
H3151 C3163 0.950 . S
C3152 H3144 0.950 . S
C3152 C3153 1.386 . S
C3152 C3154 1.391 . S
C3153 C3152 1.386 . S
C3153 C3157 1.393 . S
C3154 H3146 0.950 . S
C3154 C3152 1.391 . S
C3154 C3155 1.400 . S
C3155 C3154 1.400 . S
C3155 C3156 1.398 . S
C3155 C3161 1.491 . S
C3156 H3147 0.950 . S
C3156 C3155 1.398 . S
C3156 C3157 1.391 . S
C3157 H3145 0.950 . S
C3157 C3153 1.393 . S
C3157 C3156 1.391 . S
C3158 H3148 0.950 . S
C3158 C3159 1.386 . S
C3158 C3160 1.391 . S
C3159 C3158 1.386 . S
C3159 C3163 1.393 . S
C3160 H3149 0.950 . S
C3160 C3158 1.391 . S
C3160 C3161 1.400 . S
C3161 C3155 1.491 . S
C3161 C3160 1.400 . S
C3161 C3162 1.398 . S
C3162 H3150 0.950 . S
C3162 C3161 1.398 . S
C3162 C3163 1.391 . S
C3163 H3151 0.950 . S
C3163 C3159 1.393 . S
C3163 C3162 1.391 . S
H3164 C3172 0.950 . S
H3165 C3177 0.950 . S
H3166 C3174 0.950 . S
H3167 C3176 0.950 . S
H3168 C3178 0.950 . S
H3169 C3180 0.950 . S
H3170 C3182 0.950 . S
H3171 C3183 0.950 . S
C3172 H3164 0.950 . S
C3172 C3173 1.386 . S
C3172 C3174 1.391 . S
C3173 C3172 1.386 . S
C3173 C3177 1.393 . S
C3174 H3166 0.950 . S
C3174 C3172 1.391 . S
C3174 C3175 1.400 . S
C3175 C3174 1.400 . S
C3175 C3176 1.398 . S
C3175 C3181 1.491 . S
C3176 H3167 0.950 . S
C3176 C3175 1.398 . S
C3176 C3177 1.391 . S
C3177 H3165 0.950 . S
C3177 C3173 1.393 . S
C3177 C3176 1.391 . S
C3178 H3168 0.950 . S
C3178 C3179 1.386 . S
C3178 C3180 1.391 . S
C3179 C3178 1.386 . S
C3179 C3183 1.393 . S
C3180 H3169 0.950 . S
C3180 C3178 1.391 . S
C3180 C3181 1.400 . S
C3181 C3175 1.491 . S
C3181 C3180 1.400 . S
C3181 C3182 1.398 . S
C3182 H3170 0.950 . S
C3182 C3181 1.398 . S
C3182 C3183 1.391 . S
C3183 H3171 0.950 . S
C3183 C3179 1.393 . S
C3183 C3182 1.391 . S
H3184 C3192 0.950 . S
H3185 C3197 0.950 . S
H3186 C3194 0.950 . S
H3187 C3196 0.950 . S
H3188 C3198 0.950 . S
H3189 C3200 0.950 . S
H3190 C3202 0.950 . S
H3191 C3203 0.950 . S
C3192 H3184 0.950 . S
C3192 C3193 1.386 . S
C3192 C3194 1.391 . S
C3193 C3192 1.386 . S
C3193 C3197 1.393 . S
C3194 H3186 0.950 . S
C3194 C3192 1.391 . S
C3194 C3195 1.400 . S
C3195 C3194 1.400 . S
C3195 C3196 1.398 . S
C3195 C3201 1.491 . S
C3196 H3187 0.950 . S
C3196 C3195 1.398 . S
C3196 C3197 1.391 . S
C3197 H3185 0.950 . S
C3197 C3193 1.393 . S
C3197 C3196 1.391 . S
C3198 H3188 0.950 . S
C3198 C3199 1.386 . S
C3198 C3200 1.391 . S
C3199 C3198 1.386 . S
C3199 C3203 1.393 . S
C3200 H3189 0.950 . S
C3200 C3198 1.391 . S
C3200 C3201 1.400 . S
C3201 C3195 1.491 . S
C3201 C3200 1.400 . S
C3201 C3202 1.398 . S
C3202 H3190 0.950 . S
C3202 C3201 1.398 . S
C3202 C3203 1.391 . S
C3203 H3191 0.950 . S
C3203 C3199 1.393 . S
C3203 C3202 1.391 . S
H3204 C3212 0.950 . S
H3205 C3217 0.950 . S
H3206 C3214 0.950 . S
H3207 C3216 0.950 . S
H3208 C3218 0.950 . S
H3209 C3220 0.950 . S
H3210 C3222 0.950 . S
H3211 C3223 0.950 . S
C3212 H3204 0.950 . S
C3212 C3213 1.386 . S
C3212 C3214 1.391 . S
C3213 C3212 1.386 . S
C3213 C3217 1.393 . S
C3214 H3206 0.950 . S
C3214 C3212 1.391 . S
C3214 C3215 1.400 . S
C3215 C3214 1.400 . S
C3215 C3216 1.398 . S
C3215 C3221 1.491 . S
C3216 H3207 0.950 . S
C3216 C3215 1.398 . S
C3216 C3217 1.391 . S
C3217 H3205 0.950 . S
C3217 C3213 1.393 . S
C3217 C3216 1.391 . S
C3218 H3208 0.950 . S
C3218 C3219 1.386 . S
C3218 C3220 1.391 . S
C3219 C3218 1.386 . S
C3219 C3223 1.393 . S
C3220 H3209 0.950 . S
C3220 C3218 1.391 . S
C3220 C3221 1.400 . S
C3221 C3215 1.491 . S
C3221 C3220 1.400 . S
C3221 C3222 1.398 . S
C3222 H3210 0.950 . S
C3222 C3221 1.398 . S
C3222 C3223 1.391 . S
C3223 H3211 0.950 . S
C3223 C3219 1.393 . S
C3223 C3222 1.391 . S
H3224 C3232 0.950 . S
H3225 C3237 0.950 . S
H3226 C3234 0.950 . S
H3227 C3236 0.950 . S
H3228 C3238 0.950 . S
H3229 C3240 0.950 . S
H3230 C3242 0.950 . S
H3231 C3243 0.950 . S
C3232 H3224 0.950 . S
C3232 C3233 1.386 . S
C3232 C3234 1.391 . S
C3233 C3232 1.386 . S
C3233 C3237 1.393 . S
C3234 H3226 0.950 . S
C3234 C3232 1.391 . S
C3234 C3235 1.400 . S
C3235 C3234 1.400 . S
C3235 C3236 1.398 . S
C3235 C3241 1.491 . S
C3236 H3227 0.950 . S
C3236 C3235 1.398 . S
C3236 C3237 1.391 . S
C3237 H3225 0.950 . S
C3237 C3233 1.393 . S
C3237 C3236 1.391 . S
C3238 H3228 0.950 . S
C3238 C3239 1.386 . S
C3238 C3240 1.391 . S
C3239 C3238 1.386 . S
C3239 C3243 1.393 . S
C3240 H3229 0.950 . S
C3240 C3238 1.391 . S
C3240 C3241 1.400 . S
C3241 C3235 1.491 . S
C3241 C3240 1.400 . S
C3241 C3242 1.398 . S
C3242 H3230 0.950 . S
C3242 C3241 1.398 . S
C3242 C3243 1.391 . S
C3243 H3231 0.950 . S
C3243 C3239 1.393 . S
C3243 C3242 1.391 . S
H3244 C3252 0.950 . S
H3245 C3257 0.950 . S
H3246 C3254 0.950 . S
H3247 C3256 0.950 . S
H3248 C3258 0.950 . S
H3249 C3260 0.950 . S
H3250 C3262 0.950 . S
H3251 C3263 0.950 . S
C3252 H3244 0.950 . S
C3252 C3253 1.386 . S
C3252 C3254 1.391 . S
C3253 C3252 1.386 . S
C3253 C3257 1.393 . S
C3254 H3246 0.950 . S
C3254 C3252 1.391 . S
C3254 C3255 1.400 . S
C3255 C3254 1.400 . S
C3255 C3256 1.398 . S
C3255 C3261 1.491 . S
C3256 H3247 0.950 . S
C3256 C3255 1.398 . S
C3256 C3257 1.391 . S
C3257 H3245 0.950 . S
C3257 C3253 1.393 . S
C3257 C3256 1.391 . S
C3258 H3248 0.950 . S
C3258 C3259 1.386 . S
C3258 C3260 1.391 . S
C3259 C3258 1.386 . S
C3259 C3263 1.393 . S
C3260 H3249 0.950 . S
C3260 C3258 1.391 . S
C3260 C3261 1.400 . S
C3261 C3255 1.491 . S
C3261 C3260 1.400 . S
C3261 C3262 1.398 . S
C3262 H3250 0.950 . S
C3262 C3261 1.398 . S
C3262 C3263 1.391 . S
C3263 H3251 0.950 . S
C3263 C3259 1.393 . S
C3263 C3262 1.391 . S
H3264 C3272 0.950 . S
H3265 C3277 0.950 . S
H3266 C3274 0.950 . S
H3267 C3276 0.950 . S
H3268 C3278 0.950 . S
H3269 C3280 0.950 . S
H3270 C3282 0.950 . S
H3271 C3283 0.950 . S
C3272 H3264 0.950 . S
C3272 C3273 1.386 . S
C3272 C3274 1.391 . S
C3273 C3272 1.386 . S
C3273 C3277 1.393 . S
C3274 H3266 0.950 . S
C3274 C3272 1.391 . S
C3274 C3275 1.400 . S
C3275 C3274 1.400 . S
C3275 C3276 1.398 . S
C3275 C3281 1.491 . S
C3276 H3267 0.950 . S
C3276 C3275 1.398 . S
C3276 C3277 1.391 . S
C3277 H3265 0.950 . S
C3277 C3273 1.393 . S
C3277 C3276 1.391 . S
C3278 H3268 0.950 . S
C3278 C3279 1.386 . S
C3278 C3280 1.391 . S
C3279 C3278 1.386 . S
C3279 C3283 1.393 . S
C3280 H3269 0.950 . S
C3280 C3278 1.391 . S
C3280 C3281 1.400 . S
C3281 C3275 1.491 . S
C3281 C3280 1.400 . S
C3281 C3282 1.398 . S
C3282 H3270 0.950 . S
C3282 C3281 1.398 . S
C3282 C3283 1.391 . S
C3283 H3271 0.950 . S
C3283 C3279 1.393 . S
C3283 C3282 1.391 . S
H3284 C3292 0.950 . S
H3285 C3297 0.950 . S
H3286 C3294 0.950 . S
H3287 C3296 0.950 . S
H3288 C3298 0.950 . S
H3289 C3300 0.950 . S
H3290 C3302 0.950 . S
H3291 C3303 0.950 . S
C3292 H3284 0.950 . S
C3292 C3293 1.386 . S
C3292 C3294 1.391 . S
C3293 C3292 1.386 . S
C3293 C3297 1.393 . S
C3294 H3286 0.950 . S
C3294 C3292 1.391 . S
C3294 C3295 1.400 . S
C3295 C3294 1.400 . S
C3295 C3296 1.398 . S
C3295 C3301 1.491 . S
C3296 H3287 0.950 . S
C3296 C3295 1.398 . S
C3296 C3297 1.391 . S
C3297 H3285 0.950 . S
C3297 C3293 1.393 . S
C3297 C3296 1.391 . S
C3298 H3288 0.950 . S
C3298 C3299 1.386 . S
C3298 C3300 1.391 . S
C3299 C3298 1.386 . S
C3299 C3303 1.393 . S
C3300 H3289 0.950 . S
C3300 C3298 1.391 . S
C3300 C3301 1.400 . S
C3301 C3295 1.491 . S
C3301 C3300 1.400 . S
C3301 C3302 1.398 . S
C3302 H3290 0.950 . S
C3302 C3301 1.398 . S
C3302 C3303 1.391 . S
C3303 H3291 0.950 . S
C3303 C3299 1.393 . S
C3303 C3302 1.391 . S
H3304 C3312 0.950 . S
H3305 C3317 0.950 . S
H3306 C3314 0.950 . S
H3307 C3316 0.950 . S
H3308 C3318 0.950 . S
H3309 C3320 0.950 . S
H3310 C3322 0.950 . S
H3311 C3323 0.950 . S
C3312 H3304 0.950 . S
C3312 C3313 1.386 . S
C3312 C3314 1.391 . S
C3313 C3312 1.386 . S
C3313 C3317 1.393 . S
C3314 H3306 0.950 . S
C3314 C3312 1.391 . S
C3314 C3315 1.400 . S
C3315 C3314 1.400 . S
C3315 C3316 1.398 . S
C3315 C3321 1.491 . S
C3316 H3307 0.950 . S
C3316 C3315 1.398 . S
C3316 C3317 1.391 . S
C3317 H3305 0.950 . S
C3317 C3313 1.393 . S
C3317 C3316 1.391 . S
C3318 H3308 0.950 . S
C3318 C3319 1.386 . S
C3318 C3320 1.391 . S
C3319 C3318 1.386 . S
C3319 C3323 1.393 . S
C3320 H3309 0.950 . S
C3320 C3318 1.391 . S
C3320 C3321 1.400 . S
C3321 C3315 1.491 . S
C3321 C3320 1.400 . S
C3321 C3322 1.398 . S
C3322 H3310 0.950 . S
C3322 C3321 1.398 . S
C3322 C3323 1.391 . S
C3323 H3311 0.950 . S
C3323 C3319 1.393 . S
C3323 C3322 1.391 . S
H3324 C3332 0.950 . S
H3325 C3337 0.950 . S
H3326 C3334 0.950 . S
H3327 C3336 0.950 . S
H3328 C3338 0.950 . S
H3329 C3340 0.950 . S
H3330 C3342 0.950 . S
H3331 C3343 0.950 . S
C3332 H3324 0.950 . S
C3332 C3333 1.386 . S
C3332 C3334 1.391 . S
C3333 C3332 1.386 . S
C3333 C3337 1.393 . S
C3334 H3326 0.950 . S
C3334 C3332 1.391 . S
C3334 C3335 1.400 . S
C3335 C3334 1.400 . S
C3335 C3336 1.398 . S
C3335 C3341 1.491 . S
C3336 H3327 0.950 . S
C3336 C3335 1.398 . S
C3336 C3337 1.391 . S
C3337 H3325 0.950 . S
C3337 C3333 1.393 . S
C3337 C3336 1.391 . S
C3338 H3328 0.950 . S
C3338 C3339 1.386 . S
C3338 C3340 1.391 . S
C3339 C3338 1.386 . S
C3339 C3343 1.393 . S
C3340 H3329 0.950 . S
C3340 C3338 1.391 . S
C3340 C3341 1.400 . S
C3341 C3335 1.491 . S
C3341 C3340 1.400 . S
C3341 C3342 1.398 . S
C3342 H3330 0.950 . S
C3342 C3341 1.398 . S
C3342 C3343 1.391 . S
C3343 H3331 0.950 . S
C3343 C3339 1.393 . S
C3343 C3342 1.391 . S
H3344 C3352 0.950 . S
H3345 C3357 0.950 . S
H3346 C3354 0.950 . S
H3347 C3356 0.950 . S
H3348 C3358 0.950 . S
H3349 C3360 0.950 . S
H3350 C3362 0.950 . S
H3351 C3363 0.950 . S
C3352 H3344 0.950 . S
C3352 C3353 1.386 . S
C3352 C3354 1.391 . S
C3353 C3352 1.386 . S
C3353 C3357 1.393 . S
C3354 H3346 0.950 . S
C3354 C3352 1.391 . S
C3354 C3355 1.400 . S
C3355 C3354 1.400 . S
C3355 C3356 1.398 . S
C3355 C3361 1.491 . S
C3356 H3347 0.950 . S
C3356 C3355 1.398 . S
C3356 C3357 1.391 . S
C3357 H3345 0.950 . S
C3357 C3353 1.393 . S
C3357 C3356 1.391 . S
C3358 H3348 0.950 . S
C3358 C3359 1.386 . S
C3358 C3360 1.391 . S
C3359 C3358 1.386 . S
C3359 C3363 1.393 . S
C3360 H3349 0.950 . S
C3360 C3358 1.391 . S
C3360 C3361 1.400 . S
C3361 C3355 1.491 . S
C3361 C3360 1.400 . S
C3361 C3362 1.398 . S
C3362 H3350 0.950 . S
C3362 C3361 1.398 . S
C3362 C3363 1.391 . S
C3363 H3351 0.950 . S
C3363 C3359 1.393 . S
C3363 C3362 1.391 . S
H3364 C3372 0.950 . S
H3365 C3377 0.950 . S
H3366 C3374 0.950 . S
H3367 C3376 0.950 . S
H3368 C3378 0.950 . S
H3369 C3380 0.950 . S
H3370 C3382 0.950 . S
H3371 C3383 0.950 . S
C3372 H3364 0.950 . S
C3372 C3373 1.386 . S
C3372 C3374 1.391 . S
C3373 C3372 1.386 . S
C3373 C3377 1.393 . S
C3374 H3366 0.950 . S
C3374 C3372 1.391 . S
C3374 C3375 1.400 . S
C3375 C3374 1.400 . S
C3375 C3376 1.398 . S
C3375 C3381 1.491 . S
C3376 H3367 0.950 . S
C3376 C3375 1.398 . S
C3376 C3377 1.391 . S
C3377 H3365 0.950 . S
C3377 C3373 1.393 . S
C3377 C3376 1.391 . S
C3378 H3368 0.950 . S
C3378 C3379 1.386 . S
C3378 C3380 1.391 . S
C3379 C3378 1.386 . S
C3379 C3383 1.393 . S
C3380 H3369 0.950 . S
C3380 C3378 1.391 . S
C3380 C3381 1.400 . S
C3381 C3375 1.491 . S
C3381 C3380 1.400 . S
C3381 C3382 1.398 . S
C3382 H3370 0.950 . S
C3382 C3381 1.398 . S
C3382 C3383 1.391 . S
C3383 H3371 0.950 . S
C3383 C3379 1.393 . S
C3383 C3382 1.391 . S
H3384 C3392 0.950 . S
H3385 C3397 0.950 . S
H3386 C3394 0.950 . S
H3387 C3396 0.950 . S
H3388 C3398 0.950 . S
H3389 C3400 0.950 . S
H3390 C3402 0.950 . S
H3391 C3403 0.950 . S
C3392 H3384 0.950 . S
C3392 C3393 1.386 . S
C3392 C3394 1.391 . S
C3393 C3392 1.386 . S
C3393 C3397 1.393 . S
C3394 H3386 0.950 . S
C3394 C3392 1.391 . S
C3394 C3395 1.400 . S
C3395 C3394 1.400 . S
C3395 C3396 1.398 . S
C3395 C3401 1.491 . S
C3396 H3387 0.950 . S
C3396 C3395 1.398 . S
C3396 C3397 1.391 . S
C3397 H3385 0.950 . S
C3397 C3393 1.393 . S
C3397 C3396 1.391 . S
C3398 H3388 0.950 . S
C3398 C3399 1.386 . S
C3398 C3400 1.391 . S
C3399 C3398 1.386 . S
C3399 C3403 1.393 . S
C3400 H3389 0.950 . S
C3400 C3398 1.391 . S
C3400 C3401 1.400 . S
C3401 C3395 1.491 . S
C3401 C3400 1.400 . S
C3401 C3402 1.398 . S
C3402 H3390 0.950 . S
C3402 C3401 1.398 . S
C3402 C3403 1.391 . S
C3403 H3391 0.950 . S
C3403 C3399 1.393 . S
C3403 C3402 1.391 . S
H3404 C3412 0.950 . S
H3405 C3417 0.950 . S
H3406 C3414 0.950 . S
H3407 C3416 0.950 . S
H3408 C3418 0.950 . S
H3409 C3420 0.950 . S
H3410 C3422 0.950 . S
H3411 C3423 0.950 . S
C3412 H3404 0.950 . S
C3412 C3413 1.386 . S
C3412 C3414 1.391 . S
C3413 C3412 1.386 . S
C3413 C3417 1.393 . S
C3414 H3406 0.950 . S
C3414 C3412 1.391 . S
C3414 C3415 1.400 . S
C3415 C3414 1.400 . S
C3415 C3416 1.398 . S
C3415 C3421 1.491 . S
C3416 H3407 0.950 . S
C3416 C3415 1.398 . S
C3416 C3417 1.391 . S
C3417 H3405 0.950 . S
C3417 C3413 1.393 . S
C3417 C3416 1.391 . S
C3418 H3408 0.950 . S
C3418 C3419 1.386 . S
C3418 C3420 1.391 . S
C3419 C3418 1.386 . S
C3419 C3423 1.393 . S
C3420 H3409 0.950 . S
C3420 C3418 1.391 . S
C3420 C3421 1.400 . S
C3421 C3415 1.491 . S
C3421 C3420 1.400 . S
C3421 C3422 1.398 . S
C3422 H3410 0.950 . S
C3422 C3421 1.398 . S
C3422 C3423 1.391 . S
C3423 H3411 0.950 . S
C3423 C3419 1.393 . S
C3423 C3422 1.391 . S
H3424 C3432 0.950 . S
H3425 C3437 0.950 . S
H3426 C3434 0.950 . S
H3427 C3436 0.950 . S
H3428 C3438 0.950 . S
H3429 C3440 0.950 . S
H3430 C3442 0.950 . S
H3431 C3443 0.950 . S
C3432 H3424 0.950 . S
C3432 C3433 1.386 . S
C3432 C3434 1.391 . S
C3433 C3432 1.386 . S
C3433 C3437 1.393 . S
C3434 H3426 0.950 . S
C3434 C3432 1.391 . S
C3434 C3435 1.400 . S
C3435 C3434 1.400 . S
C3435 C3436 1.398 . S
C3435 C3441 1.491 . S
C3436 H3427 0.950 . S
C3436 C3435 1.398 . S
C3436 C3437 1.391 . S
C3437 H3425 0.950 . S
C3437 C3433 1.393 . S
C3437 C3436 1.391 . S
C3438 H3428 0.950 . S
C3438 C3439 1.386 . S
C3438 C3440 1.391 . S
C3439 C3438 1.386 . S
C3439 C3443 1.393 . S
C3440 H3429 0.950 . S
C3440 C3438 1.391 . S
C3440 C3441 1.400 . S
C3441 C3435 1.491 . S
C3441 C3440 1.400 . S
C3441 C3442 1.398 . S
C3442 H3430 0.950 . S
C3442 C3441 1.398 . S
C3442 C3443 1.391 . S
C3443 H3431 0.950 . S
C3443 C3439 1.393 . S
C3443 C3442 1.391 . S
H3444 C3452 0.950 . S
H3445 C3457 0.950 . S
H3446 C3454 0.950 . S
H3447 C3456 0.950 . S
H3448 C3458 0.950 . S
H3449 C3460 0.950 . S
H3450 C3462 0.950 . S
H3451 C3463 0.950 . S
C3452 H3444 0.950 . S
C3452 C3453 1.386 . S
C3452 C3454 1.391 . S
C3453 C3452 1.386 . S
C3453 C3457 1.393 . S
C3454 H3446 0.950 . S
C3454 C3452 1.391 . S
C3454 C3455 1.400 . S
C3455 C3454 1.400 . S
C3455 C3456 1.398 . S
C3455 C3461 1.491 . S
C3456 H3447 0.950 . S
C3456 C3455 1.398 . S
C3456 C3457 1.391 . S
C3457 H3445 0.950 . S
C3457 C3453 1.393 . S
C3457 C3456 1.391 . S
C3458 H3448 0.950 . S
C3458 C3459 1.386 . S
C3458 C3460 1.391 . S
C3459 C3458 1.386 . S
C3459 C3463 1.393 . S
C3460 H3449 0.950 . S
C3460 C3458 1.391 . S
C3460 C3461 1.400 . S
C3461 C3455 1.491 . S
C3461 C3460 1.400 . S
C3461 C3462 1.398 . S
C3462 H3450 0.950 . S
C3462 C3461 1.398 . S
C3462 C3463 1.391 . S
C3463 H3451 0.950 . S
C3463 C3459 1.393 . S
C3463 C3462 1.391 . S
H3464 C3472 0.950 . S
H3465 C3477 0.950 . S
H3466 C3474 0.950 . S
H3467 C3476 0.950 . S
H3468 C3478 0.950 . S
H3469 C3480 0.950 . S
H3470 C3482 0.950 . S
H3471 C3483 0.950 . S
C3472 H3464 0.950 . S
C3472 C3473 1.386 . S
C3472 C3474 1.391 . S
C3473 C3472 1.386 . S
C3473 C3477 1.393 . S
C3474 H3466 0.950 . S
C3474 C3472 1.391 . S
C3474 C3475 1.400 . S
C3475 C3474 1.400 . S
C3475 C3476 1.398 . S
C3475 C3481 1.491 . S
C3476 H3467 0.950 . S
C3476 C3475 1.398 . S
C3476 C3477 1.391 . S
C3477 H3465 0.950 . S
C3477 C3473 1.393 . S
C3477 C3476 1.391 . S
C3478 H3468 0.950 . S
C3478 C3479 1.386 . S
C3478 C3480 1.391 . S
C3479 C3478 1.386 . S
C3479 C3483 1.393 . S
C3480 H3469 0.950 . S
C3480 C3478 1.391 . S
C3480 C3481 1.400 . S
C3481 C3475 1.491 . S
C3481 C3480 1.400 . S
C3481 C3482 1.398 . S
C3482 H3470 0.950 . S
C3482 C3481 1.398 . S
C3482 C3483 1.391 . S
C3483 H3471 0.950 . S
C3483 C3479 1.393 . S
C3483 C3482 1.391 . S
H3484 C3492 0.950 . S
H3485 C3497 0.950 . S
H3486 C3494 0.950 . S
H3487 C3496 0.950 . S
H3488 C3498 0.950 . S
H3489 C3500 0.950 . S
H3490 C3502 0.950 . S
H3491 C3503 0.950 . S
C3492 H3484 0.950 . S
C3492 C3493 1.386 . S
C3492 C3494 1.391 . S
C3493 C3492 1.386 . S
C3493 C3497 1.393 . S
C3494 H3486 0.950 . S
C3494 C3492 1.391 . S
C3494 C3495 1.400 . S
C3495 C3494 1.400 . S
C3495 C3496 1.398 . S
C3495 C3501 1.491 . S
C3496 H3487 0.950 . S
C3496 C3495 1.398 . S
C3496 C3497 1.391 . S
C3497 H3485 0.950 . S
C3497 C3493 1.393 . S
C3497 C3496 1.391 . S
C3498 H3488 0.950 . S
C3498 C3499 1.386 . S
C3498 C3500 1.391 . S
C3499 C3498 1.386 . S
C3499 C3503 1.393 . S
C3500 H3489 0.950 . S
C3500 C3498 1.391 . S
C3500 C3501 1.400 . S
C3501 C3495 1.491 . S
C3501 C3500 1.400 . S
C3501 C3502 1.398 . S
C3502 H3490 0.950 . S
C3502 C3501 1.398 . S
C3502 C3503 1.391 . S
C3503 H3491 0.950 . S
C3503 C3499 1.393 . S
C3503 C3502 1.391 . S
H3504 C3512 0.950 . S
H3505 C3517 0.950 . S
H3506 C3514 0.950 . S
H3507 C3516 0.950 . S
H3508 C3518 0.950 . S
H3509 C3520 0.950 . S
H3510 C3522 0.950 . S
H3511 C3523 0.950 . S
C3512 H3504 0.950 . S
C3512 C3513 1.386 . S
C3512 C3514 1.391 . S
C3513 C3512 1.386 . S
C3513 C3517 1.393 . S
C3514 H3506 0.950 . S
C3514 C3512 1.391 . S
C3514 C3515 1.400 . S
C3515 C3514 1.400 . S
C3515 C3516 1.398 . S
C3515 C3521 1.491 . S
C3516 H3507 0.950 . S
C3516 C3515 1.398 . S
C3516 C3517 1.391 . S
C3517 H3505 0.950 . S
C3517 C3513 1.393 . S
C3517 C3516 1.391 . S
C3518 H3508 0.950 . S
C3518 C3519 1.386 . S
C3518 C3520 1.391 . S
C3519 C3518 1.386 . S
C3519 C3523 1.393 . S
C3520 H3509 0.950 . S
C3520 C3518 1.391 . S
C3520 C3521 1.400 . S
C3521 C3515 1.491 . S
C3521 C3520 1.400 . S
C3521 C3522 1.398 . S
C3522 H3510 0.950 . S
C3522 C3521 1.398 . S
C3522 C3523 1.391 . S
C3523 H3511 0.950 . S
C3523 C3519 1.393 . S
C3523 C3522 1.391 . S
H3524 C3532 0.950 . S
H3525 C3537 0.950 . S
H3526 C3534 0.950 . S
H3527 C3536 0.950 . S
H3528 C3538 0.950 . S
H3529 C3540 0.950 . S
H3530 C3542 0.950 . S
H3531 C3543 0.950 . S
C3532 H3524 0.950 . S
C3532 C3533 1.386 . S
C3532 C3534 1.391 . S
C3533 C3532 1.386 . S
C3533 C3537 1.393 . S
C3534 H3526 0.950 . S
C3534 C3532 1.391 . S
C3534 C3535 1.400 . S
C3535 C3534 1.400 . S
C3535 C3536 1.398 . S
C3535 C3541 1.491 . S
C3536 H3527 0.950 . S
C3536 C3535 1.398 . S
C3536 C3537 1.391 . S
C3537 H3525 0.950 . S
C3537 C3533 1.393 . S
C3537 C3536 1.391 . S
C3538 H3528 0.950 . S
C3538 C3539 1.386 . S
C3538 C3540 1.391 . S
C3539 C3538 1.386 . S
C3539 C3543 1.393 . S
C3540 H3529 0.950 . S
C3540 C3538 1.391 . S
C3540 C3541 1.400 . S
C3541 C3535 1.491 . S
C3541 C3540 1.400 . S
C3541 C3542 1.398 . S
C3542 H3530 0.950 . S
C3542 C3541 1.398 . S
C3542 C3543 1.391 . S
C3543 H3531 0.950 . S
C3543 C3539 1.393 . S
C3543 C3542 1.391 . S
H3544 C3552 0.950 . S
H3545 C3557 0.950 . S
H3546 C3554 0.950 . S
H3547 C3556 0.950 . S
H3548 C3558 0.950 . S
H3549 C3560 0.950 . S
H3550 C3562 0.950 . S
H3551 C3563 0.950 . S
C3552 H3544 0.950 . S
C3552 C3553 1.386 . S
C3552 C3554 1.391 . S
C3553 C3552 1.386 . S
C3553 C3557 1.393 . S
C3554 H3546 0.950 . S
C3554 C3552 1.391 . S
C3554 C3555 1.400 . S
C3555 C3554 1.400 . S
C3555 C3556 1.398 . S
C3555 C3561 1.491 . S
C3556 H3547 0.950 . S
C3556 C3555 1.398 . S
C3556 C3557 1.391 . S
C3557 H3545 0.950 . S
C3557 C3553 1.393 . S
C3557 C3556 1.391 . S
C3558 H3548 0.950 . S
C3558 C3559 1.386 . S
C3558 C3560 1.391 . S
C3559 C3558 1.386 . S
C3559 C3563 1.393 . S
C3560 H3549 0.950 . S
C3560 C3558 1.391 . S
C3560 C3561 1.400 . S
C3561 C3555 1.491 . S
C3561 C3560 1.400 . S
C3561 C3562 1.398 . S
C3562 H3550 0.950 . S
C3562 C3561 1.398 . S
C3562 C3563 1.391 . S
C3563 H3551 0.950 . S
C3563 C3559 1.393 . S
C3563 C3562 1.391 . S
H3564 C3572 0.950 . S
H3565 C3577 0.950 . S
H3566 C3574 0.950 . S
H3567 C3576 0.950 . S
H3568 C3578 0.950 . S
H3569 C3580 0.950 . S
H3570 C3582 0.950 . S
H3571 C3583 0.950 . S
C3572 H3564 0.950 . S
C3572 C3573 1.386 . S
C3572 C3574 1.391 . S
C3573 C3572 1.386 . S
C3573 C3577 1.393 . S
C3574 H3566 0.950 . S
C3574 C3572 1.391 . S
C3574 C3575 1.400 . S
C3575 C3574 1.400 . S
C3575 C3576 1.398 . S
C3575 C3581 1.491 . S
C3576 H3567 0.950 . S
C3576 C3575 1.398 . S
C3576 C3577 1.391 . S
C3577 H3565 0.950 . S
C3577 C3573 1.393 . S
C3577 C3576 1.391 . S
C3578 H3568 0.950 . S
C3578 C3579 1.386 . S
C3578 C3580 1.391 . S
C3579 C3578 1.386 . S
C3579 C3583 1.393 . S
C3580 H3569 0.950 . S
C3580 C3578 1.391 . S
C3580 C3581 1.400 . S
C3581 C3575 1.491 . S
C3581 C3580 1.400 . S
C3581 C3582 1.398 . S
C3582 H3570 0.950 . S
C3582 C3581 1.398 . S
C3582 C3583 1.391 . S
C3583 H3571 0.950 . S
C3583 C3579 1.393 . S
C3583 C3582 1.391 . S
H3584 C3592 0.950 . S
H3585 C3597 0.950 . S
H3586 C3594 0.950 . S
H3587 C3596 0.950 . S
H3588 C3598 0.950 . S
H3589 C3600 0.950 . S
H3590 C3602 0.950 . S
H3591 C3603 0.950 . S
C3592 H3584 0.950 . S
C3592 C3593 1.386 . S
C3592 C3594 1.391 . S
C3593 C3592 1.386 . S
C3593 C3597 1.393 . S
C3594 H3586 0.950 . S
C3594 C3592 1.391 . S
C3594 C3595 1.400 . S
C3595 C3594 1.400 . S
C3595 C3596 1.398 . S
C3595 C3601 1.491 . S
C3596 H3587 0.950 . S
C3596 C3595 1.398 . S
C3596 C3597 1.391 . S
C3597 H3585 0.950 . S
C3597 C3593 1.393 . S
C3597 C3596 1.391 . S
C3598 H3588 0.950 . S
C3598 C3599 1.386 . S
C3598 C3600 1.391 . S
C3599 C3598 1.386 . S
C3599 C3603 1.393 . S
C3600 H3589 0.950 . S
C3600 C3598 1.391 . S
C3600 C3601 1.400 . S
C3601 C3595 1.491 . S
C3601 C3600 1.400 . S
C3601 C3602 1.398 . S
C3602 H3590 0.950 . S
C3602 C3601 1.398 . S
C3602 C3603 1.391 . S
C3603 H3591 0.950 . S
C3603 C3599 1.393 . S
C3603 C3602 1.391 . S
H3604 C3612 0.950 . S
H3605 C3617 0.950 . S
H3606 C3614 0.950 . S
H3607 C3616 0.950 . S
H3608 C3618 0.950 . S
H3609 C3620 0.950 . S
H3610 C3622 0.950 . S
H3611 C3623 0.950 . S
C3612 H3604 0.950 . S
C3612 C3613 1.386 . S
C3612 C3614 1.391 . S
C3613 C3612 1.386 . S
C3613 C3617 1.393 . S
C3614 H3606 0.950 . S
C3614 C3612 1.391 . S
C3614 C3615 1.400 . S
C3615 C3614 1.400 . S
C3615 C3616 1.398 . S
C3615 C3621 1.491 . S
C3616 H3607 0.950 . S
C3616 C3615 1.398 . S
C3616 C3617 1.391 . S
C3617 H3605 0.950 . S
C3617 C3613 1.393 . S
C3617 C3616 1.391 . S
C3618 H3608 0.950 . S
C3618 C3619 1.386 . S
C3618 C3620 1.391 . S
C3619 C3618 1.386 . S
C3619 C3623 1.393 . S
C3620 H3609 0.950 . S
C3620 C3618 1.391 . S
C3620 C3621 1.400 . S
C3621 C3615 1.491 . S
C3621 C3620 1.400 . S
C3621 C3622 1.398 . S
C3622 H3610 0.950 . S
C3622 C3621 1.398 . S
C3622 C3623 1.391 . S
C3623 H3611 0.950 . S
C3623 C3619 1.393 . S
C3623 C3622 1.391 . S
H3624 C3632 0.950 . S
H3625 C3637 0.950 . S
H3626 C3634 0.950 . S
H3627 C3636 0.950 . S
H3628 C3638 0.950 . S
H3629 C3640 0.950 . S
H3630 C3642 0.950 . S
H3631 C3643 0.950 . S
C3632 H3624 0.950 . S
C3632 C3633 1.386 . S
C3632 C3634 1.391 . S
C3633 C3632 1.386 . S
C3633 C3637 1.393 . S
C3634 H3626 0.950 . S
C3634 C3632 1.391 . S
C3634 C3635 1.400 . S
C3635 C3634 1.400 . S
C3635 C3636 1.398 . S
C3635 C3641 1.491 . S
C3636 H3627 0.950 . S
C3636 C3635 1.398 . S
C3636 C3637 1.391 . S
C3637 H3625 0.950 . S
C3637 C3633 1.393 . S
C3637 C3636 1.391 . S
C3638 H3628 0.950 . S
C3638 C3639 1.386 . S
C3638 C3640 1.391 . S
C3639 C3638 1.386 . S
C3639 C3643 1.393 . S
C3640 H3629 0.950 . S
C3640 C3638 1.391 . S
C3640 C3641 1.400 . S
C3641 C3635 1.491 . S
C3641 C3640 1.400 . S
C3641 C3642 1.398 . S
C3642 H3630 0.950 . S
C3642 C3641 1.398 . S
C3642 C3643 1.391 . S
C3643 H3631 0.950 . S
C3643 C3639 1.393 . S
C3643 C3642 1.391 . S
H3644 C3652 0.950 . S
H3645 C3657 0.950 . S
H3646 C3654 0.950 . S
H3647 C3656 0.950 . S
H3648 C3658 0.950 . S
H3649 C3660 0.950 . S
H3650 C3662 0.950 . S
H3651 C3663 0.950 . S
C3652 H3644 0.950 . S
C3652 C3653 1.386 . S
C3652 C3654 1.391 . S
C3653 C3652 1.386 . S
C3653 C3657 1.393 . S
C3654 H3646 0.950 . S
C3654 C3652 1.391 . S
C3654 C3655 1.400 . S
C3655 C3654 1.400 . S
C3655 C3656 1.398 . S
C3655 C3661 1.491 . S
C3656 H3647 0.950 . S
C3656 C3655 1.398 . S
C3656 C3657 1.391 . S
C3657 H3645 0.950 . S
C3657 C3653 1.393 . S
C3657 C3656 1.391 . S
C3658 H3648 0.950 . S
C3658 C3659 1.386 . S
C3658 C3660 1.391 . S
C3659 C3658 1.386 . S
C3659 C3663 1.393 . S
C3660 H3649 0.950 . S
C3660 C3658 1.391 . S
C3660 C3661 1.400 . S
C3661 C3655 1.491 . S
C3661 C3660 1.400 . S
C3661 C3662 1.398 . S
C3662 H3650 0.950 . S
C3662 C3661 1.398 . S
C3662 C3663 1.391 . S
C3663 H3651 0.950 . S
C3663 C3659 1.393 . S
C3663 C3662 1.391 . S
H3664 C3672 0.950 . S
H3665 C3677 0.950 . S
H3666 C3674 0.950 . S
H3667 C3676 0.950 . S
H3668 C3678 0.950 . S
H3669 C3680 0.950 . S
H3670 C3682 0.950 . S
H3671 C3683 0.950 . S
C3672 H3664 0.950 . S
C3672 C3673 1.386 . S
C3672 C3674 1.391 . S
C3673 C3672 1.386 . S
C3673 C3677 1.393 . S
C3674 H3666 0.950 . S
C3674 C3672 1.391 . S
C3674 C3675 1.400 . S
C3675 C3674 1.400 . S
C3675 C3676 1.398 . S
C3675 C3681 1.491 . S
C3676 H3667 0.950 . S
C3676 C3675 1.398 . S
C3676 C3677 1.391 . S
C3677 H3665 0.950 . S
C3677 C3673 1.393 . S
C3677 C3676 1.391 . S
C3678 H3668 0.950 . S
C3678 C3679 1.386 . S
C3678 C3680 1.391 . S
C3679 C3678 1.386 . S
C3679 C3683 1.393 . S
C3680 H3669 0.950 . S
C3680 C3678 1.391 . S
C3680 C3681 1.400 . S
C3681 C3675 1.491 . S
C3681 C3680 1.400 . S
C3681 C3682 1.398 . S
C3682 H3670 0.950 . S
C3682 C3681 1.398 . S
C3682 C3683 1.391 . S
C3683 H3671 0.950 . S
C3683 C3679 1.393 . S
C3683 C3682 1.391 . S
H3684 C3692 0.950 . S
H3685 C3697 0.950 . S
H3686 C3694 0.950 . S
H3687 C3696 0.950 . S
H3688 C3698 0.950 . S
H3689 C3700 0.950 . S
H3690 C3702 0.950 . S
H3691 C3703 0.950 . S
C3692 H3684 0.950 . S
C3692 C3693 1.386 . S
C3692 C3694 1.391 . S
C3693 C3692 1.386 . S
C3693 C3697 1.393 . S
C3694 H3686 0.950 . S
C3694 C3692 1.391 . S
C3694 C3695 1.400 . S
C3695 C3694 1.400 . S
C3695 C3696 1.398 . S
C3695 C3701 1.491 . S
C3696 H3687 0.950 . S
C3696 C3695 1.398 . S
C3696 C3697 1.391 . S
C3697 H3685 0.950 . S
C3697 C3693 1.393 . S
C3697 C3696 1.391 . S
C3698 H3688 0.950 . S
C3698 C3699 1.386 . S
C3698 C3700 1.391 . S
C3699 C3698 1.386 . S
C3699 C3703 1.393 . S
C3700 H3689 0.950 . S
C3700 C3698 1.391 . S
C3700 C3701 1.400 . S
C3701 C3695 1.491 . S
C3701 C3700 1.400 . S
C3701 C3702 1.398 . S
C3702 H3690 0.950 . S
C3702 C3701 1.398 . S
C3702 C3703 1.391 . S
C3703 H3691 0.950 . S
C3703 C3699 1.393 . S
C3703 C3702 1.391 . S
H3704 C3712 0.950 . S
H3705 C3717 0.950 . S
H3706 C3714 0.950 . S
H3707 C3716 0.950 . S
H3708 C3718 0.950 . S
H3709 C3720 0.950 . S
H3710 C3722 0.950 . S
H3711 C3723 0.950 . S
C3712 H3704 0.950 . S
C3712 C3713 1.386 . S
C3712 C3714 1.391 . S
C3713 C3712 1.386 . S
C3713 C3717 1.393 . S
C3714 H3706 0.950 . S
C3714 C3712 1.391 . S
C3714 C3715 1.400 . S
C3715 C3714 1.400 . S
C3715 C3716 1.398 . S
C3715 C3721 1.491 . S
C3716 H3707 0.950 . S
C3716 C3715 1.398 . S
C3716 C3717 1.391 . S
C3717 H3705 0.950 . S
C3717 C3713 1.393 . S
C3717 C3716 1.391 . S
C3718 H3708 0.950 . S
C3718 C3719 1.386 . S
C3718 C3720 1.391 . S
C3719 C3718 1.386 . S
C3719 C3723 1.393 . S
C3720 H3709 0.950 . S
C3720 C3718 1.391 . S
C3720 C3721 1.400 . S
C3721 C3715 1.491 . S
C3721 C3720 1.400 . S
C3721 C3722 1.398 . S
C3722 H3710 0.950 . S
C3722 C3721 1.398 . S
C3722 C3723 1.391 . S
C3723 H3711 0.950 . S
C3723 C3719 1.393 . S
C3723 C3722 1.391 . S
H3724 C3732 0.950 . S
H3725 C3737 0.950 . S
H3726 C3734 0.950 . S
H3727 C3736 0.950 . S
H3728 C3738 0.950 . S
H3729 C3740 0.950 . S
H3730 C3742 0.950 . S
H3731 C3743 0.950 . S
C3732 H3724 0.950 . S
C3732 C3733 1.386 . S
C3732 C3734 1.391 . S
C3733 C3732 1.386 . S
C3733 C3737 1.393 . S
C3734 H3726 0.950 . S
C3734 C3732 1.391 . S
C3734 C3735 1.400 . S
C3735 C3734 1.400 . S
C3735 C3736 1.398 . S
C3735 C3741 1.491 . S
C3736 H3727 0.950 . S
C3736 C3735 1.398 . S
C3736 C3737 1.391 . S
C3737 H3725 0.950 . S
C3737 C3733 1.393 . S
C3737 C3736 1.391 . S
C3738 H3728 0.950 . S
C3738 C3739 1.386 . S
C3738 C3740 1.391 . S
C3739 C3738 1.386 . S
C3739 C3743 1.393 . S
C3740 H3729 0.950 . S
C3740 C3738 1.391 . S
C3740 C3741 1.400 . S
C3741 C3735 1.491 . S
C3741 C3740 1.400 . S
C3741 C3742 1.398 . S
C3742 H3730 0.950 . S
C3742 C3741 1.398 . S
C3742 C3743 1.391 . S
C3743 H3731 0.950 . S
C3743 C3739 1.393 . S
C3743 C3742 1.391 . S
H3744 C3752 0.950 . S
H3745 C3757 0.950 . S
H3746 C3754 0.950 . S
H3747 C3756 0.950 . S
H3748 C3758 0.950 . S
H3749 C3760 0.950 . S
H3750 C3762 0.950 . S
H3751 C3763 0.950 . S
C3752 H3744 0.950 . S
C3752 C3753 1.386 . S
C3752 C3754 1.391 . S
C3753 C3752 1.386 . S
C3753 C3757 1.393 . S
C3754 H3746 0.950 . S
C3754 C3752 1.391 . S
C3754 C3755 1.400 . S
C3755 C3754 1.400 . S
C3755 C3756 1.398 . S
C3755 C3761 1.491 . S
C3756 H3747 0.950 . S
C3756 C3755 1.398 . S
C3756 C3757 1.391 . S
C3757 H3745 0.950 . S
C3757 C3753 1.393 . S
C3757 C3756 1.391 . S
C3758 H3748 0.950 . S
C3758 C3759 1.386 . S
C3758 C3760 1.391 . S
C3759 C3758 1.386 . S
C3759 C3763 1.393 . S
C3760 H3749 0.950 . S
C3760 C3758 1.391 . S
C3760 C3761 1.400 . S
C3761 C3755 1.491 . S
C3761 C3760 1.400 . S
C3761 C3762 1.398 . S
C3762 H3750 0.950 . S
C3762 C3761 1.398 . S
C3762 C3763 1.391 . S
C3763 H3751 0.950 . S
C3763 C3759 1.393 . S
C3763 C3762 1.391 . S
H3764 C3772 0.950 . S
H3765 C3777 0.950 . S
H3766 C3774 0.950 . S
H3767 C3776 0.950 . S
H3768 C3778 0.950 . S
H3769 C3780 0.950 . S
H3770 C3782 0.950 . S
H3771 C3783 0.950 . S
C3772 H3764 0.950 . S
C3772 C3773 1.386 . S
C3772 C3774 1.391 . S
C3773 C3772 1.386 . S
C3773 C3777 1.393 . S
C3774 H3766 0.950 . S
C3774 C3772 1.391 . S
C3774 C3775 1.400 . S
C3775 C3774 1.400 . S
C3775 C3776 1.398 . S
C3775 C3781 1.491 . S
C3776 H3767 0.950 . S
C3776 C3775 1.398 . S
C3776 C3777 1.391 . S
C3777 H3765 0.950 . S
C3777 C3773 1.393 . S
C3777 C3776 1.391 . S
C3778 H3768 0.950 . S
C3778 C3779 1.386 . S
C3778 C3780 1.391 . S
C3779 C3778 1.386 . S
C3779 C3783 1.393 . S
C3780 H3769 0.950 . S
C3780 C3778 1.391 . S
C3780 C3781 1.400 . S
C3781 C3775 1.491 . S
C3781 C3780 1.400 . S
C3781 C3782 1.398 . S
C3782 H3770 0.950 . S
C3782 C3781 1.398 . S
C3782 C3783 1.391 . S
C3783 H3771 0.950 . S
C3783 C3779 1.393 . S
C3783 C3782 1.391 . S
H3784 C3792 0.950 . S
H3785 C3797 0.950 . S
H3786 C3794 0.950 . S
H3787 C3796 0.950 . S
H3788 C3798 0.950 . S
H3789 C3800 0.950 . S
H3790 C3802 0.950 . S
H3791 C3803 0.950 . S
C3792 H3784 0.950 . S
C3792 C3793 1.386 . S
C3792 C3794 1.391 . S
C3793 C3792 1.386 . S
C3793 C3797 1.393 . S
C3794 H3786 0.950 . S
C3794 C3792 1.391 . S
C3794 C3795 1.400 . S
C3795 C3794 1.400 . S
C3795 C3796 1.398 . S
C3795 C3801 1.491 . S
C3796 H3787 0.950 . S
C3796 C3795 1.398 . S
C3796 C3797 1.391 . S
C3797 H3785 0.950 . S
C3797 C3793 1.393 . S
C3797 C3796 1.391 . S
C3798 H3788 0.950 . S
C3798 C3799 1.386 . S
C3798 C3800 1.391 . S
C3799 C3798 1.386 . S
C3799 C3803 1.393 . S
C3800 H3789 0.950 . S
C3800 C3798 1.391 . S
C3800 C3801 1.400 . S
C3801 C3795 1.491 . S
C3801 C3800 1.400 . S
C3801 C3802 1.398 . S
C3802 H3790 0.950 . S
C3802 C3801 1.398 . S
C3802 C3803 1.391 . S
C3803 H3791 0.950 . S
C3803 C3799 1.393 . S
C3803 C3802 1.391 . S
H3804 C3812 0.950 . S
H3805 C3817 0.950 . S
H3806 C3814 0.950 . S
H3807 C3816 0.950 . S
H3808 C3818 0.950 . S
H3809 C3820 0.950 . S
H3810 C3822 0.950 . S
H3811 C3823 0.950 . S
C3812 H3804 0.950 . S
C3812 C3813 1.386 . S
C3812 C3814 1.391 . S
C3813 C3812 1.386 . S
C3813 C3817 1.393 . S
C3814 H3806 0.950 . S
C3814 C3812 1.391 . S
C3814 C3815 1.400 . S
C3815 C3814 1.400 . S
C3815 C3816 1.398 . S
C3815 C3821 1.491 . S
C3816 H3807 0.950 . S
C3816 C3815 1.398 . S
C3816 C3817 1.391 . S
C3817 H3805 0.950 . S
C3817 C3813 1.393 . S
C3817 C3816 1.391 . S
C3818 H3808 0.950 . S
C3818 C3819 1.386 . S
C3818 C3820 1.391 . S
C3819 C3818 1.386 . S
C3819 C3823 1.393 . S
C3820 H3809 0.950 . S
C3820 C3818 1.391 . S
C3820 C3821 1.400 . S
C3821 C3815 1.491 . S
C3821 C3820 1.400 . S
C3821 C3822 1.398 . S
C3822 H3810 0.950 . S
C3822 C3821 1.398 . S
C3822 C3823 1.391 . S
C3823 H3811 0.950 . S
C3823 C3819 1.393 . S
C3823 C3822 1.391 . S
H3824 C3832 0.950 . S
H3825 C3837 0.950 . S
H3826 C3834 0.950 . S
H3827 C3836 0.950 . S
H3828 C3838 0.950 . S
H3829 C3840 0.950 . S
H3830 C3842 0.950 . S
H3831 C3843 0.950 . S
C3832 H3824 0.950 . S
C3832 C3833 1.386 . S
C3832 C3834 1.391 . S
C3833 C3832 1.386 . S
C3833 C3837 1.393 . S
C3834 H3826 0.950 . S
C3834 C3832 1.391 . S
C3834 C3835 1.400 . S
C3835 C3834 1.400 . S
C3835 C3836 1.398 . S
C3835 C3841 1.491 . S
C3836 H3827 0.950 . S
C3836 C3835 1.398 . S
C3836 C3837 1.391 . S
C3837 H3825 0.950 . S
C3837 C3833 1.393 . S
C3837 C3836 1.391 . S
C3838 H3828 0.950 . S
C3838 C3839 1.386 . S
C3838 C3840 1.391 . S
C3839 C3838 1.386 . S
C3839 C3843 1.393 . S
C3840 H3829 0.950 . S
C3840 C3838 1.391 . S
C3840 C3841 1.400 . S
C3841 C3835 1.491 . S
C3841 C3840 1.400 . S
C3841 C3842 1.398 . S
C3842 H3830 0.950 . S
C3842 C3841 1.398 . S
C3842 C3843 1.391 . S
C3843 H3831 0.950 . S
C3843 C3839 1.393 . S
C3843 C3842 1.391 . S
H3844 C3852 0.950 . S
H3845 C3857 0.950 . S
H3846 C3854 0.950 . S
H3847 C3856 0.950 . S
H3848 C3858 0.950 . S
H3849 C3860 0.950 . S
H3850 C3862 0.950 . S
H3851 C3863 0.950 . S
C3852 H3844 0.950 . S
C3852 C3853 1.386 . S
C3852 C3854 1.391 . S
C3853 C3852 1.386 . S
C3853 C3857 1.393 . S
C3854 H3846 0.950 . S
C3854 C3852 1.391 . S
C3854 C3855 1.400 . S
C3855 C3854 1.400 . S
C3855 C3856 1.398 . S
C3855 C3861 1.491 . S
C3856 H3847 0.950 . S
C3856 C3855 1.398 . S
C3856 C3857 1.391 . S
C3857 H3845 0.950 . S
C3857 C3853 1.393 . S
C3857 C3856 1.391 . S
C3858 H3848 0.950 . S
C3858 C3859 1.386 . S
C3858 C3860 1.391 . S
C3859 C3858 1.386 . S
C3859 C3863 1.393 . S
C3860 H3849 0.950 . S
C3860 C3858 1.391 . S
C3860 C3861 1.400 . S
C3861 C3855 1.491 . S
C3861 C3860 1.400 . S
C3861 C3862 1.398 . S
C3862 H3850 0.950 . S
C3862 C3861 1.398 . S
C3862 C3863 1.391 . S
C3863 H3851 0.950 . S
C3863 C3859 1.393 . S
C3863 C3862 1.391 . S
H3864 C3872 0.950 . S
H3865 C3877 0.950 . S
H3866 C3874 0.950 . S
H3867 C3876 0.950 . S
H3868 C3878 0.950 . S
H3869 C3880 0.950 . S
H3870 C3882 0.950 . S
H3871 C3883 0.950 . S
C3872 H3864 0.950 . S
C3872 C3873 1.386 . S
C3872 C3874 1.391 . S
C3873 C3872 1.386 . S
C3873 C3877 1.393 . S
C3874 H3866 0.950 . S
C3874 C3872 1.391 . S
C3874 C3875 1.400 . S
C3875 C3874 1.400 . S
C3875 C3876 1.398 . S
C3875 C3881 1.491 . S
C3876 H3867 0.950 . S
C3876 C3875 1.398 . S
C3876 C3877 1.391 . S
C3877 H3865 0.950 . S
C3877 C3873 1.393 . S
C3877 C3876 1.391 . S
C3878 H3868 0.950 . S
C3878 C3879 1.386 . S
C3878 C3880 1.391 . S
C3879 C3878 1.386 . S
C3879 C3883 1.393 . S
C3880 H3869 0.950 . S
C3880 C3878 1.391 . S
C3880 C3881 1.400 . S
C3881 C3875 1.491 . S
C3881 C3880 1.400 . S
C3881 C3882 1.398 . S
C3882 H3870 0.950 . S
C3882 C3881 1.398 . S
C3882 C3883 1.391 . S
C3883 H3871 0.950 . S
C3883 C3879 1.393 . S
C3883 C3882 1.391 . S
H3884 C3892 0.950 . S
H3885 C3897 0.950 . S
H3886 C3894 0.950 . S
H3887 C3896 0.950 . S
H3888 C3898 0.950 . S
H3889 C3900 0.950 . S
H3890 C3902 0.950 . S
H3891 C3903 0.950 . S
C3892 H3884 0.950 . S
C3892 C3893 1.386 . S
C3892 C3894 1.391 . S
C3893 C3892 1.386 . S
C3893 C3897 1.393 . S
C3894 H3886 0.950 . S
C3894 C3892 1.391 . S
C3894 C3895 1.400 . S
C3895 C3894 1.400 . S
C3895 C3896 1.398 . S
C3895 C3901 1.491 . S
C3896 H3887 0.950 . S
C3896 C3895 1.398 . S
C3896 C3897 1.391 . S
C3897 H3885 0.950 . S
C3897 C3893 1.393 . S
C3897 C3896 1.391 . S
C3898 H3888 0.950 . S
C3898 C3899 1.386 . S
C3898 C3900 1.391 . S
C3899 C3898 1.386 . S
C3899 C3903 1.393 . S
C3900 H3889 0.950 . S
C3900 C3898 1.391 . S
C3900 C3901 1.400 . S
C3901 C3895 1.491 . S
C3901 C3900 1.400 . S
C3901 C3902 1.398 . S
C3902 H3890 0.950 . S
C3902 C3901 1.398 . S
C3902 C3903 1.391 . S
C3903 H3891 0.950 . S
C3903 C3899 1.393 . S
C3903 C3902 1.391 . S
H3904 C3912 0.950 . S
H3905 C3917 0.950 . S
H3906 C3914 0.950 . S
H3907 C3916 0.950 . S
H3908 C3918 0.950 . S
H3909 C3920 0.950 . S
H3910 C3922 0.950 . S
H3911 C3923 0.950 . S
C3912 H3904 0.950 . S
C3912 C3913 1.386 . S
C3912 C3914 1.391 . S
C3913 C3912 1.386 . S
C3913 C3917 1.393 . S
C3914 H3906 0.950 . S
C3914 C3912 1.391 . S
C3914 C3915 1.400 . S
C3915 C3914 1.400 . S
C3915 C3916 1.398 . S
C3915 C3921 1.491 . S
C3916 H3907 0.950 . S
C3916 C3915 1.398 . S
C3916 C3917 1.391 . S
C3917 H3905 0.950 . S
C3917 C3913 1.393 . S
C3917 C3916 1.391 . S
C3918 H3908 0.950 . S
C3918 C3919 1.386 . S
C3918 C3920 1.391 . S
C3919 C3918 1.386 . S
C3919 C3923 1.393 . S
C3920 H3909 0.950 . S
C3920 C3918 1.391 . S
C3920 C3921 1.400 . S
C3921 C3915 1.491 . S
C3921 C3920 1.400 . S
C3921 C3922 1.398 . S
C3922 H3910 0.950 . S
C3922 C3921 1.398 . S
C3922 C3923 1.391 . S
C3923 H3911 0.950 . S
C3923 C3919 1.393 . S
C3923 C3922 1.391 . S
H3924 C3932 0.950 . S
H3925 C3937 0.950 . S
H3926 C3934 0.950 . S
H3927 C3936 0.950 . S
H3928 C3938 0.950 . S
H3929 C3940 0.950 . S
H3930 C3942 0.950 . S
H3931 C3943 0.950 . S
C3932 H3924 0.950 . S
C3932 C3933 1.386 . S
C3932 C3934 1.391 . S
C3933 C3932 1.386 . S
C3933 C3937 1.393 . S
C3934 H3926 0.950 . S
C3934 C3932 1.391 . S
C3934 C3935 1.400 . S
C3935 C3934 1.400 . S
C3935 C3936 1.398 . S
C3935 C3941 1.491 . S
C3936 H3927 0.950 . S
C3936 C3935 1.398 . S
C3936 C3937 1.391 . S
C3937 H3925 0.950 . S
C3937 C3933 1.393 . S
C3937 C3936 1.391 . S
C3938 H3928 0.950 . S
C3938 C3939 1.386 . S
C3938 C3940 1.391 . S
C3939 C3938 1.386 . S
C3939 C3943 1.393 . S
C3940 H3929 0.950 . S
C3940 C3938 1.391 . S
C3940 C3941 1.400 . S
C3941 C3935 1.491 . S
C3941 C3940 1.400 . S
C3941 C3942 1.398 . S
C3942 H3930 0.950 . S
C3942 C3941 1.398 . S
C3942 C3943 1.391 . S
C3943 H3931 0.950 . S
C3943 C3939 1.393 . S
C3943 C3942 1.391 . S
H3944 C3952 0.950 . S
H3945 C3957 0.950 . S
H3946 C3954 0.950 . S
H3947 C3956 0.950 . S
H3948 C3958 0.950 . S
H3949 C3960 0.950 . S
H3950 C3962 0.950 . S
H3951 C3963 0.950 . S
C3952 H3944 0.950 . S
C3952 C3953 1.386 . S
C3952 C3954 1.391 . S
C3953 C3952 1.386 . S
C3953 C3957 1.393 . S
C3954 H3946 0.950 . S
C3954 C3952 1.391 . S
C3954 C3955 1.400 . S
C3955 C3954 1.400 . S
C3955 C3956 1.398 . S
C3955 C3961 1.491 . S
C3956 H3947 0.950 . S
C3956 C3955 1.398 . S
C3956 C3957 1.391 . S
C3957 H3945 0.950 . S
C3957 C3953 1.393 . S
C3957 C3956 1.391 . S
C3958 H3948 0.950 . S
C3958 C3959 1.386 . S
C3958 C3960 1.391 . S
C3959 C3958 1.386 . S
C3959 C3963 1.393 . S
C3960 H3949 0.950 . S
C3960 C3958 1.391 . S
C3960 C3961 1.400 . S
C3961 C3955 1.491 . S
C3961 C3960 1.400 . S
C3961 C3962 1.398 . S
C3962 H3950 0.950 . S
C3962 C3961 1.398 . S
C3962 C3963 1.391 . S
C3963 H3951 0.950 . S
C3963 C3959 1.393 . S
C3963 C3962 1.391 . S
H3964 C3972 0.950 . S
H3965 C3977 0.950 . S
H3966 C3974 0.950 . S
H3967 C3976 0.950 . S
H3968 C3978 0.950 . S
H3969 C3980 0.950 . S
H3970 C3982 0.950 . S
H3971 C3983 0.950 . S
C3972 H3964 0.950 . S
C3972 C3973 1.386 . S
C3972 C3974 1.391 . S
C3973 C3972 1.386 . S
C3973 C3977 1.393 . S
C3974 H3966 0.950 . S
C3974 C3972 1.391 . S
C3974 C3975 1.400 . S
C3975 C3974 1.400 . S
C3975 C3976 1.398 . S
C3975 C3981 1.491 . S
C3976 H3967 0.950 . S
C3976 C3975 1.398 . S
C3976 C3977 1.391 . S
C3977 H3965 0.950 . S
C3977 C3973 1.393 . S
C3977 C3976 1.391 . S
C3978 H3968 0.950 . S
C3978 C3979 1.386 . S
C3978 C3980 1.391 . S
C3979 C3978 1.386 . S
C3979 C3983 1.393 . S
C3980 H3969 0.950 . S
C3980 C3978 1.391 . S
C3980 C3981 1.400 . S
C3981 C3975 1.491 . S
C3981 C3980 1.400 . S
C3981 C3982 1.398 . S
C3982 H3970 0.950 . S
C3982 C3981 1.398 . S
C3982 C3983 1.391 . S
C3983 H3971 0.950 . S
C3983 C3979 1.393 . S
C3983 C3982 1.391 . S
C1593 C545 0.897 . S
C1599 C17 0.901 . S
C1613 C50 0.921 . S
C1619 C974 0.914 . S
C1633 C611 0.906 . S
C1639 C83 0.914 . S
C1653 C1040 0.889 . S
C1659 C116 0.893 . S
C1673 C149 0.883 . S
C1679 C413 0.885 . S
C1693 C842 0.914 . S
C1699 C182 0.916 . S
C1713 C479 0.905 . S
C1719 C215 0.901 . S
C1733 C248 0.888 . S
C1739 C908 0.889 . S
C1753 C281 0.871 . S
C1759 C1568 0.869 . S
C1773 C314 0.874 . S
C1779 C1535 0.873 . S
C1793 C347 0.877 . S
C1799 C1502 0.881 . S
C1813 C1469 0.849 . S
C1819 C380 0.852 . S
C1833 C1370 0.923 . S
C1839 C446 0.925 . S
C1853 C512 0.908 . S
C1859 C1436 0.910 . S
C1873 C1238 0.924 . S
C1879 C578 0.930 . S
C1893 C644 0.911 . S
C1899 C1304 0.908 . S
C1913 C677 0.843 . S
C1919 C1172 0.842 . S
C1933 C1139 0.881 . S
C1939 C710 0.882 . S
C1953 C1106 0.878 . S
C1959 C743 0.872 . S
C1973 C776 0.873 . S
C1979 C1073 0.877 . S
C1993 C809 0.900 . S
C1999 C1337 0.896 . S
C2013 C875 0.902 . S
C2019 C1403 0.907 . S
C2033 C941 0.883 . S
C2039 C1205 0.885 . S
C2053 C1007 0.901 . S
C2059 C1271 0.908 . S
C2073 C107 1.663 . S
C2079 N14 1.616 . S
C2093 N38 1.506 . S
C2099 C28 1.690 . S
C2113 C41 1.689 . S
C2119 N71 1.496 . S
C2133 N104 1.509 . S
C2139 C74 1.686 . S
C2153 N137 1.480 . S
C2159 C173 1.647 . S
C2173 C206 1.684 . S
C2179 N170 1.493 . S
C2193 N203 1.453 . S
C2199 C259 1.646 . S
C2213 N245 1.577 . S
C2219 C140 1.637 . S
C2233 N113 1.599 . S
C2239 C272 1.646 . S
C2253 C358 1.680 . S
C2259 N5 1.497 . S
C2273 C391 1.696 . S
C2279 N47 1.633 . S
C2293 C325 1.656 . S
C2299 N80 1.581 . S
C2313 C305 1.698 . S
C2319 N179 1.646 . S
C2333 C292 1.676 . S
C2339 N212 1.600 . S
C2353 N236 1.477 . S
C2359 C338 1.660 . S
C2373 N146 1.581 . S
C2379 C371 1.635 . S
C2393 C8 1.637 . S
C2399 N278 1.576 . S
C2413 C160 1.627 . S
C2419 N311 1.554 . S
C2433 N269 1.442 . S
C2439 C193 1.613 . S
C2453 C226 1.671 . S
C2459 N344 1.605 . S
C2473 N377 1.589 . S
C2479 C239 1.649 . S
C2493 C94 1.598 . S
C2499 N368 1.425 . S
C2513 N302 1.430 . S
C2519 C127 1.630 . S
C2533 C61 1.653 . S
C2539 N335 1.463 . S
C2553 C503 1.646 . S
C2559 N410 1.598 . S
C2573 C424 1.677 . S
C2579 N434 1.470 . S
C2593 N467 1.519 . S
C2599 C437 1.704 . S
C2613 N500 1.502 . S
C2619 C470 1.663 . S
C2633 N533 1.511 . S
C2639 C569 1.682 . S
C2653 N566 1.483 . S
C2659 C602 1.678 . S
C2673 N599 1.458 . S
C2679 C655 1.642 . S
C2693 C536 1.677 . S
C2699 N641 1.627 . S
C2713 C668 1.627 . S
C2719 N509 1.566 . S
C2733 C754 1.651 . S
C2739 N401 1.479 . S
C2753 N443 1.624 . S
C2759 C787 1.701 . S
C2773 C701 1.678 . S
C2779 N476 1.628 . S
C2793 C721 1.680 . S
C2799 N575 1.603 . S
C2813 N608 1.602 . S
C2819 C688 1.674 . S
C2833 C734 1.684 . S
C2839 N632 1.497 . S
C2853 C767 1.657 . S
C2859 N542 1.600 . S
C2873 N674 1.591 . S
C2879 C404 1.640 . S
C2893 C556 1.637 . S
C2899 N698 1.470 . S
C2913 N665 1.436 . S
C2919 C589 1.595 . S
C2933 N740 1.594 . S
C2939 C622 1.664 . S
C2953 N773 1.604 . S
C2959 C635 1.660 . S
C2973 N764 1.445 . S
C2979 C490 1.625 . S
C2993 C523 1.637 . S
C2999 N707 1.564 . S
C3013 N731 1.490 . S
C3019 C457 1.665 . S
C3033 N806 1.617 . S
C3039 C899 1.666 . S
C3053 N830 1.500 . S
C3059 C820 1.687 . S
C3073 N863 1.521 . S
C3079 C833 1.697 . S
C3093 C866 1.693 . S
C3099 N896 1.528 . S
C3113 N929 1.474 . S
C3119 C965 1.645 . S
C3133 N962 1.489 . S
C3139 C998 1.683 . S
C3153 N995 1.481 . S
C3159 C1051 1.650 . S
C3173 C932 1.649 . S
C3179 N1037 1.602 . S
C3193 N905 1.591 . S
C3199 C1064 1.640 . S
C3213 N797 1.489 . S
C3219 C1150 1.679 . S
C3233 C1183 1.688 . S
C3239 N839 1.611 . S
C3253 C1117 1.660 . S
C3259 N872 1.600 . S
C3273 C1097 1.697 . S
C3279 N971 1.643 . S
C3293 C1084 1.676 . S
C3299 N1004 1.603 . S
C3313 C1130 1.662 . S
C3319 N1028 1.482 . S
C3333 C1163 1.642 . S
C3339 N938 1.595 . S
C3353 N1070 1.597 . S
C3359 C800 1.645 . S
C3373 C952 1.629 . S
C3379 N1103 1.570 . S
C3393 N1061 1.455 . S
C3399 C985 1.616 . S
C3413 C1018 1.675 . S
C3419 N1136 1.616 . S
C3433 N1169 1.606 . S
C3439 C1031 1.656 . S
C3453 N1160 1.423 . S
C3459 C886 1.596 . S
C3473 N1094 1.470 . S
C3479 C919 1.637 . S
C3493 N1127 1.450 . S
C3499 C853 1.651 . S
C3513 N1202 1.582 . S
C3519 C1295 1.640 . S
C3533 N1226 1.490 . S
C3539 C1216 1.681 . S
C3553 N1259 1.509 . S
C3559 C1229 1.701 . S
C3573 N1292 1.503 . S
C3579 C1262 1.663 . S
C3593 N1325 1.489 . S
C3599 C1361 1.676 . S
C3613 N1358 1.503 . S
C3619 C1394 1.683 . S
C3633 N1391 1.475 . S
C3639 C1447 1.643 . S
C3653 N1433 1.621 . S
C3659 C1328 1.675 . S
C3673 N1301 1.584 . S
C3679 C1460 1.633 . S
C3693 N1193 1.458 . S
C3699 C1546 1.648 . S
C3713 N1235 1.643 . S
C3719 C1579 1.704 . S
C3733 N1268 1.631 . S
C3739 C1493 1.679 . S
C3753 C1513 1.682 . S
C3759 N1367 1.608 . S
C3773 C1480 1.674 . S
C3779 N1400 1.599 . S
C3793 N1424 1.531 . S
C3799 C1526 1.695 . S
C3813 N1334 1.597 . S
C3819 C1559 1.656 . S
C3833 C1196 1.637 . S
C3839 N1466 1.577 . S
C3853 N1490 1.455 . S
C3859 C1348 1.633 . S
C3873 C1381 1.595 . S
C3879 N1457 1.433 . S
C3893 N1532 1.598 . S
C3899 C1414 1.665 . S
C3913 C1427 1.654 . S
C3919 N1565 1.599 . S
C3933 C1282 1.620 . S
C3939 N1556 1.429 . S
C3953 N1499 1.584 . S
C3959 C1315 1.643 . S
C3973 C1249 1.666 . S
C3979 N1523 1.494 . S
