# Generated by pormake.
# Topology umz, (4)-cn, num edge types: 1
# Building blocks:
#     Node 0, Type 0, BuildingBlock: GALJAG_clean_sbu_0, # of connection points: 4
#     Node 1, Type 0, BuildingBlock: GALJAG_clean_sbu_0, # of connection points: 4
#     Node 2, Type 0, BuildingBlock: GALJAG_clean_sbu_0, # of connection points: 4
#     Node 3, Type 0, BuildingBlock: GALJAG_clean_sbu_0, # of connection points: 4
#     Node 4, Type 0, BuildingBlock: GALJAG_clean_sbu_0, # of connection points: 4
#     Node 5, Type 0, BuildingBlock: GALJAG_clean_sbu_0, # of connection points: 4
#     Node 6, Type 0, BuildingBlock: GALJAG_clean_sbu_0, # of connection points: 4
#     Node 7, Type 0, BuildingBlock: GALJAG_clean_sbu_0, # of connection points: 4
#     Node 8, Type 0, BuildingBlock: GALJAG_clean_sbu_0, # of connection points: 4
#     Node 9, Type 0, BuildingBlock: GALJAG_clean_sbu_0, # of connection points: 4
#     Node 10, Type 0, BuildingBlock: GALJAG_clean_sbu_0, # of connection points: 4
#     Node 11, Type 0, BuildingBlock: GALJAG_clean_sbu_0, # of connection points: 4
#     Node 12, Type 0, BuildingBlock: GALJAG_clean_sbu_0, # of connection points: 4
#     Node 13, Type 0, BuildingBlock: GALJAG_clean_sbu_0, # of connection points: 4
#     Node 14, Type 0, BuildingBlock: GALJAG_clean_sbu_0, # of connection points: 4
#     Node 15, Type 0, BuildingBlock: GALJAG_clean_sbu_0, # of connection points: 4
#     Edge 16, Type (0, 0), BuildingBlock: TEMPAE_clean_linker_10, # of connection points: 2
#     Edge 17, Type (0, 0), BuildingBlock: TEMPAE_clean_linker_10, # of connection points: 2
#     Edge 18, Type (0, 0), BuildingBlock: TEMPAE_clean_linker_10, # of connection points: 2
#     Edge 19, Type (0, 0), BuildingBlock: TEMPAE_clean_linker_10, # of connection points: 2
#     Edge 20, Type (0, 0), BuildingBlock: TEMPAE_clean_linker_10, # of connection points: 2
#     Edge 21, Type (0, 0), BuildingBlock: TEMPAE_clean_linker_10, # of connection points: 2
#     Edge 22, Type (0, 0), BuildingBlock: TEMPAE_clean_linker_10, # of connection points: 2
#     Edge 23, Type (0, 0), BuildingBlock: TEMPAE_clean_linker_10, # of connection points: 2
#     Edge 24, Type (0, 0), BuildingBlock: TEMPAE_clean_linker_10, # of connection points: 2
#     Edge 25, Type (0, 0), BuildingBlock: TEMPAE_clean_linker_10, # of connection points: 2
#     Edge 26, Type (0, 0), BuildingBlock: TEMPAE_clean_linker_10, # of connection points: 2
#     Edge 27, Type (0, 0), BuildingBlock: TEMPAE_clean_linker_10, # of connection points: 2
#     Edge 28, Type (0, 0), BuildingBlock: TEMPAE_clean_linker_10, # of connection points: 2
#     Edge 29, Type (0, 0), BuildingBlock: TEMPAE_clean_linker_10, # of connection points: 2
#     Edge 30, Type (0, 0), BuildingBlock: TEMPAE_clean_linker_10, # of connection points: 2
#     Edge 31, Type (0, 0), BuildingBlock: TEMPAE_clean_linker_10, # of connection points: 2
#     Edge 32, Type (0, 0), BuildingBlock: TEMPAE_clean_linker_10, # of connection points: 2
#     Edge 33, Type (0, 0), BuildingBlock: TEMPAE_clean_linker_10, # of connection points: 2
#     Edge 34, Type (0, 0), BuildingBlock: TEMPAE_clean_linker_10, # of connection points: 2
#     Edge 35, Type (0, 0), BuildingBlock: TEMPAE_clean_linker_10, # of connection points: 2
#     Edge 36, Type (0, 0), BuildingBlock: TEMPAE_clean_linker_10, # of connection points: 2
#     Edge 37, Type (0, 0), BuildingBlock: TEMPAE_clean_linker_10, # of connection points: 2
#     Edge 38, Type (0, 0), BuildingBlock: TEMPAE_clean_linker_10, # of connection points: 2
#     Edge 39, Type (0, 0), BuildingBlock: TEMPAE_clean_linker_10, # of connection points: 2
#     Edge 40, Type (0, 0), BuildingBlock: TEMPAE_clean_linker_10, # of connection points: 2
#     Edge 41, Type (0, 0), BuildingBlock: TEMPAE_clean_linker_10, # of connection points: 2
#     Edge 42, Type (0, 0), BuildingBlock: TEMPAE_clean_linker_10, # of connection points: 2
#     Edge 43, Type (0, 0), BuildingBlock: TEMPAE_clean_linker_10, # of connection points: 2
#     Edge 44, Type (0, 0), BuildingBlock: TEMPAE_clean_linker_10, # of connection points: 2
#     Edge 45, Type (0, 0), BuildingBlock: TEMPAE_clean_linker_10, # of connection points: 2
#     Edge 46, Type (0, 0), BuildingBlock: TEMPAE_clean_linker_10, # of connection points: 2
#     Edge 47, Type (0, 0), BuildingBlock: TEMPAE_clean_linker_10, # of connection points: 2
# Relax obj value: 0.183
# Max RMSD: 0.169
# Mean RMSD: 0.169
data_MOF--net-umz--node1-GALJAG_clean_sbu_0--edge1-TEMPAE_clean_linker_10
_symmetry_space_group_name_H-M    P1
_symmetry_Int_Tables_number       1
_symmetry_cell_setting            triclinic
loop_
_symmetry_equiv_pos_as_xyz
'x, y, z'
_cell_length_a     57.073323
_cell_length_b     57.06851
_cell_length_c     25.476138
_cell_angle_alpha  90.033427
_cell_angle_beta   89.925772
_cell_angle_gamma 89.93883
loop_
_atom_site_label
_atom_site_type_symbol
_atom_site_fract_x
_atom_site_fract_y
_atom_site_fract_z
_atom_type_partial_charge
In0 In 0.04017 0.63581 0.13649 0.0
O1 O 0.04339 0.62906 0.04886 0.0
O2 O 0.07231 0.61973 0.09715 0.0
C3 C 0.0019 0.60919 0.15526 0.0
C4 C 0.03411 0.68052 0.106 0.0
C5 C 0.06296 0.63034 0.22821 0.0
O6 O 0.01761 0.60338 0.12303 0.0
O7 O 0.00525 0.62863 0.17741 0.0
O8 O 0.04901 0.64718 0.22046 0.0
O9 O 0.06576 0.61693 0.1894 0.0
C10 C 0.06378 0.62061 0.05153 0.0
O11 O 0.05349 0.67297 0.1229 0.0
O12 O 0.0177 0.66576 0.10657 0.0
In13 In 0.85667 0.03833 0.66662 0.0
O14 O 0.81731 0.04364 0.65791 0.0
O15 O 0.83403 0.01923 0.60717 0.0
C16 C 0.86375 0.06082 0.75824 0.0
C17 C 0.87394 0.06722 0.59285 0.0
C18 C 0.87717 -0.00292 0.68989 0.0
O19 O 0.84525 0.04941 0.74926 0.0
O20 O 0.87823 0.06109 0.72091 0.0
O21 O 0.88585 0.01161 0.65809 0.0
O22 O 0.85774 0.00312 0.70938 0.0
C23 C 0.81532 0.02944 0.62019 0.0
O24 O 0.88269 0.04736 0.60248 0.0
O25 O 0.8565 0.07265 0.62087 0.0
In26 In 0.46537 0.84879 0.15991 0.0
O27 O 0.46297 0.80933 0.14807 0.0
O28 O 0.48622 0.82855 0.0991 0.0
C29 C 0.44235 0.85331 0.25173 0.0
C30 C 0.4354 0.86421 0.08645 0.0
C31 C 0.50478 0.87216 0.18445 0.0
O32 O 0.45597 0.83631 0.24286 0.0
O33 O 0.44012 0.86744 0.21414 0.0
O34 O 0.4893 0.88037 0.1543 0.0
O35 O 0.50064 0.85182 0.20143 0.0
C36 C 0.47725 0.80899 0.11018 0.0
O37 O 0.4542 0.87477 0.09746 0.0
O38 O 0.43155 0.84596 0.11307 0.0
In39 In 0.64749 0.46519 0.65669 0.0
O40 O 0.68699 0.4616 0.6452 0.0
O41 O 0.66955 0.48923 0.60555 0.0
C42 C 0.643 0.44224 0.74856 0.0
C43 C 0.63302 0.43703 0.57867 0.0
C44 C 0.61937 0.50181 0.67813 0.0
O45 O 0.65794 0.45828 0.74217 0.0
O46 O 0.63096 0.4376 0.70852 0.0
O47 O 0.61347 0.48513 0.64855 0.0
O48 O 0.63978 0.50022 0.69691 0.0
C49 C 0.68851 0.47852 0.61354 0.0
O50 O 0.6247 0.45722 0.58649 0.0
O51 O 0.64883 0.43087 0.61045 0.0
In52 In 0.03722 0.86914 0.84346 0.0
O53 O 0.04875 0.89913 0.89627 0.0
O54 O 0.07346 0.87221 0.88075 0.0
C55 C 0.99349 0.88545 0.83038 0.0
C56 C 0.02913 0.82898 0.89586 0.0
C57 C 0.05524 0.87506 0.74641 0.0
O58 O 0.00848 0.89546 0.85906 0.0
O59 O 0.00036 0.86658 0.80926 0.0
O60 O 0.06082 0.85777 0.77466 0.0
O61 O 0.04091 0.88903 0.76718 0.0
C62 C 0.06898 0.89105 0.90456 0.0
O63 O 0.03527 0.82911 0.8482 0.0
O64 O 0.02657 0.84896 0.91606 0.0
In65 In 0.62242 0.03404 0.37601 0.0
O66 O 0.59991 0.03868 0.44893 0.0
O67 O 0.6179 0.0686 0.42017 0.0
C68 C 0.60761 0.9912 0.34796 0.0
C69 C 0.66585 0.0271 0.4138 0.0
C70 C 0.60847 0.05571 0.28768 0.0
O71 O 0.59784 0.00315 0.38353 0.0
O72 O 0.62539 0.00064 0.32735 0.0
O73 O 0.62989 0.05376 0.29945 0.0
O74 O 0.59443 0.04728 0.32089 0.0
C75 C 0.60444 0.06015 0.45457 0.0
O76 O 0.66164 0.04195 0.37829 0.0
O77 O 0.64831 0.01554 0.42895 0.0
In78 In 0.45225 0.63424 0.81616 0.0
O79 O 0.47596 0.65474 0.87055 0.0
O80 O 0.44965 0.67373 0.82978 0.0
C81 C 0.42829 0.62879 0.72604 0.0
C82 C 0.42343 0.61861 0.89201 0.0
C83 C 0.49171 0.61113 0.79071 0.0
O84 O 0.43998 0.64709 0.73545 0.0
O85 O 0.42856 0.61374 0.76217 0.0
O86 O 0.47739 0.60379 0.82468 0.0
O87 O 0.48615 0.63031 0.76936 0.0
C88 C 0.46621 0.67421 0.86255 0.0
O89 O 0.44252 0.60869 0.88053 0.0
O90 O 0.4187 0.63649 0.86486 0.0
In91 In 0.85695 0.45409 0.30582 0.0
O92 O 0.81771 0.45575 0.3222 0.0
O93 O 0.83995 0.4787 0.36477 0.0
C94 C 0.8567 0.42886 0.21638 0.0
C95 C 0.87145 0.42439 0.38087 0.0
C96 C 0.8843 0.49013 0.27579 0.0
O97 O 0.84237 0.44535 0.22427 0.0
O98 O 0.87059 0.42502 0.25373 0.0
O99 O 0.89097 0.47465 0.30775 0.0
O100 O 0.86362 0.48762 0.25923 0.0
C101 C 0.81944 0.4713 0.35722 0.0
O102 O 0.88344 0.44176 0.36599 0.0
O103 O 0.85212 0.42187 0.35747 0.0
In104 In 0.94808 0.34995 0.80676 0.0
O105 O 0.93942 0.37719 0.86837 0.0
O106 O 0.91501 0.34945 0.85698 0.0
C107 C 0.98762 0.37204 0.77765 0.0
C108 C 0.96071 0.31097 0.85894 0.0
C109 C 0.92356 0.35389 0.71686 0.0
O110 O 0.97258 0.38114 0.80772 0.0
O111 O 0.98281 0.35157 0.76228 0.0
O112 O 0.93712 0.33679 0.72511 0.0
O113 O 0.92215 0.36831 0.75411 0.0
C114 C 0.92028 0.36787 0.88179 0.0
O115 O 0.94492 0.31078 0.82423 0.0
O116 O 0.97047 0.33053 0.86569 0.0
In117 In 0.14172 0.964 0.33522 0.0
O118 O 0.1793 0.95138 0.34631 0.0
O119 O 0.17023 0.98511 0.37528 0.0
C120 C 0.13852 0.94344 0.24039 0.0
C121 C 0.12582 0.93995 0.41881 0.0
C122 C 0.11406 0.0014 0.31597 0.0
O123 O 0.15293 0.95971 0.24949 0.0
O124 O 0.12643 0.93723 0.27942 0.0
O125 O 0.10676 0.98314 0.33841 0.0
O126 O 0.13547 0.00099 0.30383 0.0
C127 C 0.1857 0.96945 0.37099 0.0
O128 O 0.13056 0.96152 0.42054 0.0
O129 O 0.12881 0.93045 0.37454 0.0
In130 In 0.51778 0.13814 0.87061 0.0
O131 O 0.52989 0.17607 0.87296 0.0
O132 O 0.49693 0.16789 0.90739 0.0
C133 C 0.54055 0.13568 0.77798 0.0
C134 C 0.54054 0.12178 0.95564 0.0
C135 C 0.48037 0.11003 0.85503 0.0
O136 O 0.55065 0.13236 0.82135 0.0
O137 O 0.5192 0.14111 0.78154 0.0
O138 O 0.49841 0.10351 0.87941 0.0
O139 O 0.48081 0.13106 0.83997 0.0
C140 C 0.51222 0.1833 0.89808 0.0
O141 O 0.52536 0.13781 0.95814 0.0
O142 O 0.54407 0.11367 0.91018 0.0
In143 In 0.35117 0.53786 0.3138 0.0
O144 O 0.38033 0.55335 0.36328 0.0
O145 O 0.3459 0.56674 0.37463 0.0
C146 C 0.37944 0.50104 0.29375 0.0
C147 C 0.31062 0.52209 0.35509 0.0
C148 C 0.35229 0.5625 0.22359 0.0
O149 O 0.37975 0.51203 0.33669 0.0
O150 O 0.36443 0.50826 0.26122 0.0
O151 O 0.33943 0.5447 0.22925 0.0
O152 O 0.36399 0.568 0.26361 0.0
C153 C 0.36719 0.56737 0.38789 0.0
O154 O 0.31162 0.53969 0.32528 0.0
O155 O 0.32995 0.51196 0.36251 0.0
In156 In 0.95447 0.14077 0.16996 0.0
O157 O 0.94266 0.11092 0.11745 0.0
O158 O 0.92359 0.14296 0.11371 0.0
C159 C 0.99396 0.11745 0.19512 0.0
C160 C 0.96647 0.18053 0.11983 0.0
C161 C 0.93003 0.1381 0.26041 0.0
O162 O 0.98087 0.11148 0.1576 0.0
O163 O 0.98738 0.13554 0.21953 0.0
O164 O 0.94566 0.15337 0.25317 0.0
O165 O 0.92649 0.12478 0.22183 0.0
C166 C 0.92611 0.12232 0.09671 0.0
O167 O 0.95069 0.17996 0.15456 0.0
O168 O 0.97682 0.16132 0.1123 0.0
In169 In 0.36226 0.94323 0.66456 0.0
O170 O 0.39152 0.93425 0.60768 0.0
O171 O 0.36214 0.91127 0.61131 0.0
C172 C 0.38172 0.98307 0.70077 0.0
C173 C 0.32406 0.95593 0.60983 0.0
C174 C 0.36528 0.91686 0.75184 0.0
O175 O 0.39124 0.97057 0.66586 0.0
O176 O 0.36218 0.97565 0.71683 0.0
O177 O 0.34768 0.92965 0.74273 0.0
O178 O 0.38074 0.91706 0.71655 0.0
C179 C 0.38168 0.91596 0.5905 0.0
O180 O 0.32315 0.94107 0.64652 0.0
O181 O 0.34398 0.96479 0.60221 0.0
In182 In 0.54825 0.36708 0.16232 0.0
O183 O 0.5478 0.32747 0.1498 0.0
O184 O 0.5264 0.34861 0.10068 0.0
C185 C 0.57377 0.36579 0.25144 0.0
C186 C 0.57497 0.38428 0.0846 0.0
C187 C 0.51138 0.39339 0.19279 0.0
O188 O 0.55496 0.35444 0.24646 0.0
O189 O 0.57978 0.37716 0.21135 0.0
O190 O 0.51138 0.37134 0.19583 0.0
O191 O 0.52997 0.40212 0.17458 0.0
C192 C 0.53351 0.32834 0.11205 0.0
O193 O 0.55648 0.3943 0.10019 0.0
O194 O 0.58005 0.36556 0.10847 0.0
In195 In 0.12918 0.52364 0.62951 0.0
O196 O 0.16915 0.5213 0.62754 0.0
O197 O 0.15 0.50609 0.56469 0.0
C198 C 0.12193 0.54403 0.72358 0.0
C199 C 0.11246 0.55613 0.56213 0.0
C200 C 0.10917 0.48176 0.64598 0.0
O201 O 0.14172 0.54446 0.70139 0.0
O202 O 0.10615 0.5336 0.69826 0.0
O203 O 0.10215 0.49595 0.61139 0.0
O204 O 0.12691 0.48844 0.67164 0.0
C205 C 0.16976 0.51066 0.58407 0.0
O206 O 0.10162 0.53754 0.57299 0.0
O207 O 0.13161 0.55861 0.58602 0.0
C208 C 0.01002 0.71038 0.05926 0.0
C209 C 0.03147 0.70382 0.08169 0.0
C210 C 0.00795 0.73115 0.03029 0.0
C211 C 0.02782 0.74565 0.02372 0.0
C212 C 0.04929 0.73957 0.04795 0.0
C213 C 0.05086 0.71869 0.07671 0.0
C214 C 0.98475 0.73716 0.00525 0.0
C215 C 0.07082 0.75472 0.04205 0.0
C216 C 0.03202 0.78549 0.90497 0.0
C217 C 0.02682 0.80736 0.92712 0.0
C218 C 0.0319 0.76514 0.93582 0.0
C219 C 0.02645 0.76678 0.98996 0.0
C220 C 0.02051 0.78872 0.01214 0.0
C221 C 0.02077 0.80876 0.98042 0.0
C222 C 0.03822 0.74197 0.91082 0.0
C223 C 0.01454 0.79112 0.06967 0.0
H224 H 0.99497 0.69892 0.06303 0.0
H225 H 0.06748 0.71368 0.09398 0.0
H226 H 0.97932 0.75517 0.01635 0.0
H227 H 0.98655 0.73679 0.96188 0.0
H228 H 0.97065 0.72478 0.0168 0.0
H229 H 0.08583 0.74811 0.06549 0.0
H230 H 0.07614 0.75537 0.00017 0.0
H231 H 0.0669 0.77295 0.05448 0.0
H232 H 0.0367 0.78435 0.8638 0.0
H233 H 0.01671 0.82564 -0.00228 0.0
H234 H 0.02415 0.72896 0.91799 0.0
H235 H 0.05447 0.735 0.9289 0.0
H236 H 0.04103 0.74353 0.8678 0.0
H237 H 0.00018 0.77892 0.08029 0.0
H238 H 0.00911 0.80923 0.08017 0.0
H239 H 0.02998 0.7863 0.09381 0.0
C240 C 0.69227 0.00778 0.47832 0.0
C241 C 0.68895 0.02468 0.4391 0.0
C242 C 0.71321 0.00677 0.50686 0.0
C243 C 0.73118 0.0231 0.49591 0.0
C244 C 0.72827 0.03964 0.455 0.0
C245 C 0.70715 0.04021 0.42696 0.0
C246 C 0.71575 0.9888 0.55 0.0
C247 C 0.74713 0.05729 0.44219 0.0
C248 C 0.77329 0.03919 0.60493 0.0
C249 C 0.79331 0.02645 0.59071 0.0
C250 C 0.75284 0.03802 0.57468 0.0
C251 C 0.75246 0.02375 0.52919 0.0
C252 C 0.77245 0.01044 0.51528 0.0
C253 C 0.79267 0.01194 0.54629 0.0
C254 C 0.73179 0.05239 0.59082 0.0
C255 C 0.77262 0.99501 0.46712 0.0
H256 H 0.67826 0.99567 0.48769 0.0
H257 H 0.70463 0.05329 0.39664 0.0
H258 H 0.73222 0.97872 0.54478 0.0
H259 H 0.71683 -0.00221 0.58855 0.0
H260 H 0.70083 0.97633 0.55108 0.0
H261 H 0.74272 0.06799 0.40715 0.0
H262 H 0.74969 0.06922 0.47609 0.0
H263 H 0.76405 0.04825 0.435 0.0
H264 H 0.77374 0.05044 0.63922 0.0
H265 H 0.80814 0.00209 0.53511 0.0
H266 H 0.71632 0.04085 0.59603 0.0
H267 H 0.72743 0.06515 0.55947 0.0
H268 H 0.73478 0.06215 0.62794 0.0
H269 H 0.75795 0.98229 0.46891 0.0
H270 H 0.78931 0.98515 0.46279 0.0
H271 H 0.76997 0.00586 0.4315 0.0
C272 C 0.49483 0.78956 0.03181 0.0
C273 C 0.48072 0.78816 0.07682 0.0
C274 C 0.49541 0.77119 0.99527 0.0
C275 C 0.48154 0.75106 0.00411 0.0
C276 C 0.46821 0.74906 0.05081 0.0
C277 C 0.46799 0.76767 0.0867 0.0
C278 C 0.50998 0.77381 0.94611 0.0
C279 C 0.45329 0.72776 0.06169 0.0
C280 C 0.4582 0.71532 0.89046 0.0
C281 C 0.47217 0.69518 0.89352 0.0
C282 C 0.4617 0.73411 0.92502 0.0
C283 C 0.47965 0.73267 0.96322 0.0
C284 C 0.4946 0.71292 0.96459 0.0
C285 C 0.49064 0.69435 0.92972 0.0
C286 C 0.44546 0.75499 0.92231 0.0
C287 C 0.51406 0.7109 0.00444 0.0
H288 H 0.50474 0.80538 0.02407 0.0
H289 H 0.45709 0.76652 0.12149 0.0
H290 H 0.52091 0.75798 0.93968 0.0
H291 H 0.49826 0.7756 0.91163 0.0
H292 H 0.52161 0.78939 0.94774 0.0
H293 H 0.44516 0.72831 0.10132 0.0
H294 H 0.43913 0.72657 0.032 0.0
H295 H 0.46398 0.71158 0.05842 0.0
H296 H 0.44393 0.71603 0.86246 0.0
H297 H 0.50157 0.67883 0.932 0.0
H298 H 0.45571 0.77145 0.91991 0.0
H299 H 0.43473 0.75589 0.95862 0.0
H300 H 0.43347 0.75412 0.88804 0.0
H301 H 0.52493 0.72701 0.00449 0.0
H302 H 0.5256 0.69558 -0.00321 0.0
H303 H 0.50643 0.70905 0.0443 0.0
C304 C 0.70962 0.50072 0.54377 0.0
C305 C 0.70977 0.48318 0.58233 0.0
C306 C 0.72797 0.50258 0.50736 0.0
C307 C 0.74679 0.48647 0.50966 0.0
C308 C 0.74777 0.46975 0.55065 0.0
C309 C 0.72923 0.46834 0.58662 0.0
C310 C 0.72648 0.52082 0.4646 0.0
C311 C 0.76766 0.45236 0.55458 0.0
C312 C 0.77795 0.46698 0.38598 0.0
C313 C 0.79968 0.47808 0.39138 0.0
C314 C 0.76016 0.47043 0.42314 0.0
C315 C 0.76424 0.4854 0.46653 0.0
C316 C 0.78564 0.49774 0.47049 0.0
C317 C 0.80317 0.49389 0.43282 0.0
C318 C 0.73747 0.45706 0.41743 0.0
C319 C 0.79048 0.51403 0.51589 0.0
H320 H 0.69465 0.51233 0.54049 0.0
H321 H 0.72946 0.45482 0.61651 0.0
H322 H 0.74348 0.53001 0.46003 0.0
H323 H 0.72253 0.51214 0.42666 0.0
H324 H 0.71259 0.53401 0.47259 0.0
H325 H 0.76685 0.4419 0.5913 0.0
H326 H 0.767 0.44016 0.52067 0.0
H327 H 0.78476 0.46153 0.55301 0.0
H328 H 0.77516 0.45481 0.35391 0.0
H329 H 0.81994 0.50259 0.43701 0.0
H330 H 0.72232 0.46919 0.42014 0.0
H331 H 0.73579 0.44423 0.44993 0.0
H332 H 0.73644 0.44745 0.37958 0.0
H333 H 0.77555 0.52618 0.52207 0.0
H334 H 0.80666 0.5245 0.50972 0.0
H335 H 0.79257 0.50365 0.55239 0.0
C336 C 0.95233 0.27029 0.88946 0.0
C337 C 0.96571 0.29077 0.89324 0.0
C338 C 0.95485 0.25224 0.92636 0.0
C339 C 0.97116 0.25481 0.96784 0.0
C340 C 0.98547 0.27499 0.97041 0.0
C341 C 0.98257 0.29275 0.93302 0.0
C342 C 0.93938 0.23087 0.92223 0.0
C343 C 0.00312 0.27827 0.01391 0.0
C344 C 0.95626 0.22104 0.09134 0.0
C345 C 0.97021 0.201 0.08551 0.0
C346 C 0.95703 0.23912 0.05416 0.0
C347 C 0.97212 0.23703 0.01023 0.0
C348 C 0.98709 0.21738 0.00554 0.0
C349 C 0.98596 0.19956 0.04333 0.0
C350 C 0.94093 0.25995 0.06066 0.0
C351 C 0.0035 0.21465 0.9594 0.0
H352 H 0.9393 0.2687 0.85874 0.0
H353 H 0.99301 0.30855 0.93601 0.0
H354 H 0.95017 0.21469 0.92299 0.0
H355 H 0.92737 0.23017 0.95647 0.0
H356 H 0.9287 0.23088 0.8858 0.0
H357 H 0.01428 0.29395 0.00768 0.0
H358 H 0.99382 0.28024 0.05194 0.0
H359 H 0.01457 0.26262 0.01716 0.0
H360 H 0.94408 0.22223 0.12392 0.0
H361 H -0.0032 0.18408 0.0387 0.0
H362 H 0.92789 0.26016 0.02839 0.0
H363 H 0.95106 0.27649 0.05815 0.0
H364 H 0.93139 0.25963 0.09868 0.0
H365 H 0.99317 0.2122 0.92295 0.0
H366 H 0.01546 0.19942 0.96401 0.0
H367 H 0.01419 0.23071 0.95421 0.0
C368 C 0.30729 0.97436 0.5296 0.0
C369 C 0.30399 0.96105 0.5753 0.0
C370 C 0.28899 0.97759 0.49367 0.0
C371 C 0.26688 0.96745 0.50404 0.0
C372 C 0.26324 0.95462 0.55093 0.0
C373 C 0.28191 0.95148 0.58595 0.0
C374 C 0.29352 0.99125 0.44393 0.0
C375 C 0.23977 0.94377 0.56355 0.0
C376 C 0.21213 0.9889 0.43528 0.0
C377 C 0.20821 0.97079 0.39913 0.0
C378 C 0.23163 0.98847 0.46863 0.0
C379 C 0.24764 0.96959 0.46526 0.0
C380 C 0.24447 0.95195 0.42682 0.0
C381 C 0.22469 0.95271 0.39429 0.0
C382 C 0.23444 0.00755 0.50922 0.0
C383 C 0.2614 0.93172 0.42162 0.0
H384 H 0.32437 0.98172 0.52112 0.0
H385 H 0.27932 0.94122 0.62128 0.0
H386 H 0.29137 0.9796 0.40939 0.0
H387 H 0.28056 0.00564 0.43993 0.0
H388 H 0.31141 -0.00112 0.44287 0.0
H389 H 0.23956 0.93526 0.60275 0.0
H390 H 0.22584 0.95734 0.5625 0.0
H391 H 0.23534 0.93043 0.53348 0.0
H392 H 0.1994 0.00291 0.4392 0.0
H393 H 0.22173 0.93872 0.36627 0.0
H394 H 0.25235 0.01504 0.50746 0.0
H395 H 0.23208 4e-05 0.54904 0.0
H396 H 0.22153 0.02194 0.50393 0.0
H397 H 0.27962 0.9383 0.41823 0.0
H398 H 0.25751 0.92057 0.38694 0.0
H399 H 0.26053 0.92065 0.45735 0.0
C400 C 0.49371 0.2124 0.95825 0.0
C401 C 0.51127 0.20686 0.92175 0.0
C402 C 0.49487 0.23305 0.98797 0.0
C403 C 0.51398 0.24848 0.98069 0.0
C404 C 0.53097 0.24367 0.9416 0.0
C405 C 0.52943 0.22286 0.91261 0.0
C406 C 0.47638 0.23767 0.02917 0.0
C407 C 0.55147 0.25986 0.93235 0.0
C408 C 0.51285 0.31011 0.03618 0.0
C409 C 0.52685 0.30757 0.08105 0.0
C410 C 0.50799 0.29089 0.00368 0.0
C411 C 0.51731 0.26866 0.01658 0.0
C412 C 0.53081 0.26585 0.06277 0.0
C413 C 0.53546 0.28539 0.09445 0.0
C414 C 0.49354 0.29451 0.95475 0.0
C415 C 0.54091 0.24234 0.07794 0.0
H416 H 0.47962 0.20007 0.96541 0.0
H417 H 0.54299 0.21868 0.88426 0.0
H418 H 0.48425 0.23587 0.06878 0.0
H419 H 0.46963 0.25583 0.0258 0.0
H420 H 0.46142 0.22531 0.02611 0.0
H421 H 0.56195 0.25467 0.89744 0.0
H422 H 0.54528 0.27813 0.92688 0.0
H423 H 0.5631 0.25972 0.96722 0.0
H424 H 0.50614 0.32725 0.02569 0.0
H425 H 0.54623 0.28336 0.12917 0.0
H426 H 0.4788 0.28186 0.95364 0.0
H427 H 0.50451 0.2912 0.91953 0.0
H428 H 0.48631 0.31256 0.95216 0.0
H429 H 0.5268 0.22901 0.07997 0.0
H430 H 0.55004 0.24289 0.11641 0.0
H431 H 0.55357 0.23646 0.04757 0.0
C432 C 0.28925 0.49647 0.41849 0.0
C433 C 0.2892 0.51568 0.38415 0.0
C434 C 0.27007 0.49209 0.45156 0.0
C435 C 0.25058 0.50742 0.45042 0.0
C436 C 0.25006 0.52623 0.41423 0.0
C437 C 0.26936 0.53007 0.38133 0.0
C438 C 0.27106 0.47166 0.4891 0.0
C439 C 0.22955 0.54297 0.41184 0.0
C440 C 0.19121 0.49321 0.50832 0.0
C441 C 0.19164 0.50643 0.55473 0.0
C442 C 0.21086 0.49214 0.47535 0.0
C443 C 0.23125 0.50482 0.48894 0.0
C444 C 0.23223 0.51706 0.53729 0.0
C445 C 0.2124 0.5176 0.56982 0.0
C446 C 0.20932 0.47857 0.42458 0.0
C447 C 0.25368 0.53083 0.55307 0.0
H448 H 0.30456 0.48526 0.42065 0.0
H449 H 0.26925 0.54493 0.35483 0.0
H450 H 0.27246 0.47826 0.52994 0.0
H451 H 0.25473 0.46119 0.48664 0.0
H452 H 0.28625 0.45998 0.48116 0.0
H453 H 0.23144 0.55607 0.37988 0.0
H454 H 0.21301 0.53316 0.40569 0.0
H455 H 0.22792 0.55244 0.44973 0.0
H456 H 0.17522 0.48438 0.49676 0.0
H457 H 0.21279 0.52781 0.60571 0.0
H458 H 0.22517 0.46758 0.41895 0.0
H459 H 0.20844 0.49098 0.39113 0.0
H460 H 0.19359 0.46712 0.42327 0.0
H461 H 0.2696 0.51976 0.54995 0.0
H462 H 0.25238 0.53767 0.59381 0.0
H463 H 0.256 0.54587 0.52597 0.0
C464 C 0.06897 0.61822 0.95472 0.0
C465 C 0.07619 0.61153 0.00503 0.0
C466 C 0.0793 0.60837 0.90992 0.0
C467 C 0.09689 0.59106 0.91573 0.0
C468 C 0.10484 0.58485 0.96648 0.0
C469 C 0.09451 0.59536 0.01064 0.0
C470 C 0.07067 0.61579 0.85642 0.0
C471 C 0.12329 0.5662 0.97423 0.0
C472 C 0.09799 0.54723 0.80449 0.0
C473 C 0.11714 0.55497 0.77483 0.0
C474 C 0.09191 0.55823 0.85168 0.0
C475 C 0.10501 0.5778 0.86898 0.0
C476 C 0.12475 0.58537 0.83984 0.0
C477 C 0.13076 0.57365 0.79318 0.0
C478 C 0.07103 0.5493 0.8822 0.0
C479 C 0.13889 0.60639 0.85675 0.0
H480 H 0.05498 0.63093 0.95036 0.0
H481 H 0.1001 0.59017 0.04961 0.0
H482 H 0.08568 0.62007 0.83044 0.0
H483 H 0.06096 0.60112 0.83792 0.0
H484 H 0.05886 0.63125 0.85851 0.0
H485 H 0.12921 0.5651 0.01568 0.0
H486 H 0.11607 0.54891 0.9626 0.0
H487 H 0.13871 0.56964 0.94886 0.0
H488 H 0.0876 0.5326 0.79056 0.0
H489 H 0.14554 0.57966 0.77007 0.0
H490 H 0.0569 0.56267 0.88194 0.0
H491 H 0.07592 0.5462 0.92376 0.0
H492 H 0.06394 0.53276 0.86562 0.0
H493 H 0.12787 0.62238 0.85418 0.0
H494 H 0.15472 0.60894 0.83201 0.0
H495 H 0.1444 0.60455 0.89827 0.0
C496 C 0.90034 0.11781 0.31524 0.0
C497 C 0.91868 0.13402 0.31159 0.0
C498 C 0.89196 0.11041 0.36413 0.0
C499 C 0.90226 0.1194 0.41044 0.0
C500 C 0.91965 0.13702 0.40703 0.0
C501 C 0.92767 0.14417 0.35744 0.0
C502 C 0.87322 0.09176 0.36608 0.0
C503 C 0.9309 0.14712 0.4556 0.0
C504 C 0.87078 0.10285 0.53622 0.0
C505 C 0.88268 0.08225 0.55003 0.0
C506 C 0.87765 0.11594 0.49218 0.0
C507 C 0.89681 0.10814 0.46148 0.0
C508 C 0.90957 0.08799 0.47684 0.0
C509 C 0.90232 0.07528 0.52093 0.0
C510 C 0.86375 0.13742 0.47713 0.0
C511 C 0.9302 0.07917 0.44524 0.0
H512 H 0.89318 0.11011 0.27981 0.0
H513 H 0.94182 0.15677 0.35471 0.0
H514 H 0.88092 0.07513 0.38066 0.0
H515 H 0.85908 0.09688 0.39373 0.0
H516 H 0.86534 0.08844 0.32693 0.0
H517 H 0.94127 0.1631 0.44671 0.0
H518 H 0.91744 0.15153 0.48549 0.0
H519 H 0.94278 0.13388 0.47317 0.0
H520 H 0.85563 0.10836 0.55882 0.0
H521 H 0.91169 0.05947 0.53173 0.0
H522 H 0.8535 0.13371 0.4411 0.0
H523 H 0.87564 0.15225 0.46814 0.0
H524 H 0.85141 0.14287 0.50862 0.0
H525 H 0.92411 0.07325 0.40607 0.0
H526 H 0.9393 0.06432 0.46472 0.0
H527 H 0.94302 0.09348 0.43883 0.0
C528 C 0.40143 0.85756 0.0265 0.0
C529 C 0.41996 0.87182 0.04334 0.0
C530 C 0.38837 0.86342 0.98173 0.0
C531 C 0.39403 0.88398 0.95348 0.0
C532 C 0.41188 0.89906 0.97207 0.0
C533 C 0.42467 0.89276 0.01675 0.0
C534 C 0.3694 0.84698 0.96316 0.0
C535 C 0.41834 0.92126 0.94321 0.0
C536 C 0.38766 0.8888 0.80666 0.0
C537 C 0.36921 0.90488 0.80226 0.0
C538 C 0.39482 0.88052 0.85575 0.0
C539 C 0.38332 0.88866 0.90151 0.0
C540 C 0.36354 0.90352 0.89705 0.0
C541 C 0.35664 0.91144 0.84722 0.0
C542 C 0.41582 0.86443 0.85877 0.0
C543 C 0.35075 0.9124 0.94498 0.0
H544 H 0.39768 0.84138 0.04713 0.0
H545 H 0.43884 0.90393 0.02994 0.0
H546 H 0.35333 0.85688 0.95272 0.0
H547 H 0.37541 0.83774 0.92725 0.0
H548 H 0.36489 0.83366 0.99329 0.0
H549 H 0.43123 0.93202 0.96524 0.0
H550 H 0.42603 0.91675 0.90445 0.0
H551 H 0.40249 0.93204 0.93588 0.0
H552 H 0.39723 0.88349 0.77182 0.0
H553 H 0.34233 0.92386 0.84387 0.0
H554 H 0.41207 0.8493 0.88477 0.0
H555 H 0.43087 0.87406 0.8759 0.0
H556 H 0.4211 0.8577 0.81957 0.0
H557 H 0.3477 0.89799 0.97338 0.0
H558 H 0.33364 0.92049 0.93474 0.0
H559 H 0.36165 0.92579 0.96494 0.0
C560 C 0.60709 0.38117 0.30372 0.0
C561 C 0.58614 0.36842 0.30186 0.0
C562 C 0.61659 0.38833 0.35174 0.0
C563 C 0.60481 0.38258 0.39889 0.0
C564 C 0.58488 0.36784 0.39746 0.0
C565 C 0.57573 0.3609 0.34876 0.0
C566 C 0.638 0.40387 0.35157 0.0
C567 C 0.57203 0.36108 0.447 0.0
C568 C 0.63505 0.40007 0.52576 0.0
C569 C 0.62502 0.42215 0.5349 0.0
C570 C 0.62813 0.38646 0.48251 0.0
C571 C 0.61092 0.39528 0.44778 0.0
C572 C 0.60034 0.41729 0.45777 0.0
C573 C 0.6075 0.43042 0.50122 0.0
C574 C 0.63965 0.363 0.47318 0.0
C575 C 0.5819 0.42735 0.42164 0.0
H576 H 0.61537 0.38675 0.2675 0.0
H577 H 0.55962 0.35087 0.34746 0.0
H578 H 0.63271 0.42212 0.36096 0.0
H579 H 0.65067 0.39818 0.38199 0.0
H580 H 0.64697 0.40388 0.31284 0.0
H581 H 0.55977 0.34628 0.44029 0.0
H582 H 0.58454 0.35614 0.47841 0.0
H583 H 0.56176 0.37632 0.46134 0.0
H584 H 0.64855 0.39359 0.55191 0.0
H585 H 0.59961 0.44742 0.50828 0.0
H586 H 0.65072 0.36389 0.43742 0.0
H587 H 0.62621 0.34931 0.46632 0.0
H588 H 0.65084 0.35757 0.5067 0.0
H589 H 0.5895 0.43023 0.38206 0.0
H590 H 0.57477 0.44427 0.4362 0.0
H591 H 0.56718 0.41482 0.41723 0.0
C592 C 0.11738 0.91642 0.1804 0.0
C593 C 0.13416 0.93405 0.18732 0.0
C594 C 0.11032 0.90954 0.13012 0.0
C595 C 0.12034 0.92053 0.08564 0.0
C596 C 0.1383 0.93736 0.09225 0.0
C597 C 0.14499 0.94399 0.14319 0.0
C598 C 0.09117 0.89142 0.12475 0.0
C599 C 0.14956 0.94922 0.04571 0.0
C600 C 0.10535 0.88937 0.95888 0.0
C601 C 0.08479 0.90117 0.94433 0.0
C602 C 0.11824 0.8965 0.00296 0.0
C603 C 0.11027 0.9158 0.033 0.0
C604 C 0.09053 0.9288 0.01609 0.0
C605 C 0.07803 0.92132 0.97189 0.0
C606 C 0.13937 0.88239 0.0194 0.0
C607 C 0.08155 0.94959 0.04688 0.0
H608 H 0.10907 0.90857 0.21439 0.0
H609 H 0.15802 0.95759 0.1484 0.0
H610 H 0.07529 0.89969 0.10779 0.0
H611 H 0.09675 0.87728 0.09757 0.0
H612 H 0.08638 0.88342 0.16303 0.0
H613 H 0.16542 0.95929 0.05704 0.0
H614 H 0.15449 0.93614 0.0154 0.0
H615 H 0.13684 0.96148 0.02753 0.0
H616 H 0.11073 0.87385 0.93745 0.0
H617 H 0.06226 0.93062 0.96049 0.0
H618 H 0.13479 0.87152 0.05402 0.0
H619 H 0.15397 0.89409 0.03108 0.0
H620 H 0.14554 0.87057 0.98758 0.0
H621 H 0.07422 0.94348 0.08485 0.0
H622 H 0.06765 0.95929 0.02547 0.0
H623 H 0.09606 0.96186 0.05586 0.0
C624 C 0.53901 0.13197 0.68051 0.0
C625 C 0.55191 0.13052 0.72719 0.0
C626 C 0.54816 0.12331 0.63321 0.0
C627 C 0.57071 0.11296 0.63281 0.0
C628 C 0.5844 0.11288 0.6791 0.0
C629 C 0.57482 0.1217 0.72582 0.0
C630 C 0.53311 0.12386 0.58454 0.0
C631 C 0.60857 0.10208 0.68014 0.0
C632 C 0.58152 0.06317 0.53749 0.0
C633 C 0.59522 0.07403 0.49892 0.0
C634 C 0.57329 0.07576 0.58097 0.0
C635 C 0.57885 0.09983 0.58588 0.0
C636 C 0.5924 0.11102 0.54669 0.0
C637 C 0.60049 0.09794 0.5036 0.0
C638 C 0.55889 0.06319 0.62202 0.0
C639 C 0.59853 0.13669 0.55058 0.0
H640 H 0.52131 0.13889 0.68133 0.0
H641 H 0.5849 0.12065 0.76178 0.0
H642 H 0.5433 0.13035 0.55044 0.0
H643 H 0.52722 0.10582 0.57505 0.0
H644 H 0.51737 0.13511 0.58966 0.0
H645 H 0.61792 0.1058 0.71745 0.0
H646 H 0.6071 0.08281 0.6755 0.0
H647 H 0.61929 0.1087 0.64698 0.0
H648 H 0.57741 0.04469 0.53403 0.0
H649 H 0.61107 0.10641 0.47378 0.0
H650 H 0.54164 0.07192 0.62666 0.0
H651 H 0.56789 0.06404 0.66056 0.0
H652 H 0.55589 0.04449 0.61196 0.0
H653 H 0.58233 0.14733 0.55424 0.0
H654 H 0.60859 0.14292 0.51595 0.0
H655 H 0.60909 0.13986 0.5864 0.0
C656 C 0.34672 0.56457 0.12643 0.0
C657 C 0.3559 0.5742 0.17265 0.0
C658 C 0.35378 0.573 0.07713 0.0
C659 C 0.37039 0.59137 0.07439 0.0
C660 C 0.37821 0.60234 0.121 0.0
C661 C 0.37084 0.59362 0.16961 0.0
C662 C 0.3448 0.56112 0.02821 0.0
C663 C 0.39584 0.62206 0.11976 0.0
C664 C 0.41578 0.5915 0.96636 0.0
C665 C 0.40848 0.61046 0.93555 0.0
C666 C 0.40297 0.5846 0.01055 0.0
C667 C 0.38225 0.59687 0.02406 0.0
C668 C 0.37419 0.61538 0.99182 0.0
C669 C 0.38751 0.62205 0.94791 0.0
C670 C 0.41217 0.56477 0.04401 0.0
C671 C 0.35204 0.62865 0.00476 0.0
H672 H 0.33503 0.54964 0.12865 0.0
H673 H 0.37777 0.60129 0.2053 0.0
H674 H 0.34022 0.57423 -0.00223 0.0
H675 H 0.35874 0.54971 0.01173 0.0
H676 H 0.32917 0.55011 0.03639 0.0
H677 H 0.39802 0.63044 0.15881 0.0
H678 H 0.41311 0.61512 0.10697 0.0
H679 H 0.39051 0.63565 0.09107 0.0
H680 H 0.43193 0.58242 0.95679 0.0
H681 H 0.38174 0.63664 0.92394 0.0
H682 H 0.39843 0.55126 0.04953 0.0
H683 H 0.41691 0.57151 0.08347 0.0
H684 H 0.42788 0.55628 0.02654 0.0
H685 H 0.33749 0.6163 0.01306 0.0
H686 H 0.34666 0.64054 0.97242 0.0
H687 H 0.35479 0.63929 0.04067 0.0
C688 C 0.89671 0.37745 0.66138 0.0
C689 C 0.91216 0.35846 0.66596 0.0
C690 C 0.88867 0.38484 0.61227 0.0
C691 C 0.89621 0.37289 0.5666 0.0
C692 C 0.91049 0.35268 0.57119 0.0
C693 C 0.91836 0.34568 0.62103 0.0
C694 C 0.87336 0.40642 0.60912 0.0
C695 C 0.91861 0.33934 0.52335 0.0
C696 C 0.86421 0.39126 0.44298 0.0
C697 C 0.87894 0.40909 0.42439 0.0
C698 C 0.87021 0.37826 0.48777 0.0
C699 C 0.89133 0.38335 0.51445 0.0
C700 C 0.90678 0.40053 0.49421 0.0
C701 C 0.90039 0.41318 0.44938 0.0
C702 C 0.85341 0.35995 0.50799 0.0
C703 C 0.92949 0.40647 0.52153 0.0
H704 H 0.89169 0.38724 0.69611 0.0
H705 H 0.93023 0.33093 0.62447 0.0
H706 H 0.88331 0.4209 0.59046 0.0
H707 H 0.85776 0.40297 0.58437 0.0
H708 H 0.86734 0.41238 0.64841 0.0
H709 H 0.92649 0.32216 0.53384 0.0
H710 H 0.90382 0.33635 0.49594 0.0
H711 H 0.93197 0.34982 0.50212 0.0
H712 H 0.84766 0.38795 0.42354 0.0
H713 H 0.91191 0.42682 0.4349 0.0
H714 H 0.84487 0.36642 0.54438 0.0
H715 H 0.86291 0.3436 0.51814 0.0
H716 H 0.83953 0.35575 0.47893 0.0
H717 H 0.92567 0.41454 0.56025 0.0
H718 H 0.94039 0.41887 0.49841 0.0
H719 H 0.93985 0.39034 0.52879 0.0
C720 C 0.91338 0.39712 0.95249 0.0
C721 C 0.90589 0.3772 0.92516 0.0
C722 C 0.90139 0.40495 -0.00289 0.0
C723 C 0.88136 0.39259 0.01468 0.0
C724 C 0.87296 0.37321 0.98565 0.0
C725 C 0.88542 0.36565 0.94117 0.0
C726 C 0.9109 0.42575 0.02699 0.0
C727 C 0.85152 0.35979 0.00291 0.0
C728 C 0.87464 0.39776 0.16135 0.0
C729 C 0.85914 0.41671 0.16561 0.0
C730 C 0.88072 0.38857 0.11226 0.0
C731 C 0.87103 0.39863 0.06639 0.0
C732 C 0.85394 0.41653 0.07066 0.0
C733 C 0.84817 0.42541 0.12045 0.0
C734 C 0.89888 0.36933 0.10943 0.0
C735 C 0.84302 0.42744 0.0226 0.0
H736 H 0.9291 0.4062 0.94001 0.0
H737 H 0.87948 0.35032 0.91987 0.0
H738 H 0.89686 0.43887 0.0337 0.0
H739 H 0.91725 0.41996 0.06605 0.0
H740 H 0.92561 0.43441 0.00604 0.0
H741 H 0.84531 0.34749 0.97213 0.0
H742 H 0.85568 0.34954 0.0387 0.0
H743 H 0.83706 0.372 0.01309 0.0
H744 H 0.88293 0.39079 0.19629 0.0
H745 H 0.83606 0.43999 0.12368 0.0
H746 H 0.91539 0.37647 0.09291 0.0
H747 H 0.89294 0.35508 0.08301 0.0
H748 H 0.90273 0.36171 0.14861 0.0
H749 H 0.85599 0.43907 0.00327 0.0
H750 H 0.82729 0.43803 0.03259 0.0
H751 H 0.83799 0.41377 0.99377 0.0
C752 C 0.05324 0.89434 0.65937 0.0
C753 C 0.06522 0.87957 0.69406 0.0
C754 C 0.06337 0.90121 0.61178 0.0
C755 C 0.08626 0.89349 0.59912 0.0
C756 C 0.09806 0.87772 0.63294 0.0
C757 C 0.08726 0.87074 0.68001 0.0
C758 C 0.05 0.91768 0.5763 0.0
C759 C 0.12257 0.86932 0.62094 0.0
C760 C 0.10641 0.90512 0.45943 0.0
C761 C 0.11719 0.92704 0.46506 0.0
C762 C 0.09686 0.89349 0.50306 0.0
C763 C 0.0985 0.90394 0.55333 0.0
C764 C 0.11027 0.92561 0.55939 0.0
C765 C 0.1193 0.93698 0.51509 0.0
C766 C 0.08419 0.87057 0.49506 0.0
C767 C 0.11267 0.93717 0.61247 0.0
H768 H 0.03605 0.90095 0.66999 0.0
H769 H 0.09654 0.85934 0.70694 0.0
H770 H 0.05861 0.9351 0.57619 0.0
H771 H 0.05013 0.91107 0.53535 0.0
H772 H 0.03152 0.91999 0.58905 0.0
H773 H 0.12824 0.85512 0.64793 0.0
H774 H 0.12377 0.86285 0.57996 0.0
H775 H 0.13498 0.88418 0.62473 0.0
H776 H 0.10479 0.8974 0.42072 0.0
H777 H 0.12787 0.95381 0.51961 0.0
H778 H 0.06524 0.87302 0.50308 0.0
H779 H 0.09072 0.85718 0.52301 0.0
H780 H 0.08627 0.86376 0.45445 0.0
H781 H 0.09513 0.94249 0.62708 0.0
H782 H 0.12404 0.95294 0.61109 0.0
H783 H 0.1201 0.92464 0.64129 0.0
C784 C 0.61506 0.07963 0.20664 0.0
C785 C 0.60017 0.06606 0.23805 0.0
C786 C 0.607 0.08944 0.15941 0.0
C787 C 0.58368 0.08517 0.14307 0.0
C788 C 0.56872 0.0712 0.1744 0.0
C789 C 0.57709 0.062 0.22171 0.0
C790 C 0.6233 0.10455 0.12731 0.0
C791 C 0.54383 0.06596 0.15796 0.0
C792 C 0.55162 0.12563 0.04975 0.0
C793 C 0.5529 0.11308 0.00254 0.0
C794 C 0.56247 0.11722 0.09533 0.0
C795 C 0.57455 0.09556 0.09375 0.0
C796 C 0.57634 0.08306 0.04588 0.0
C797 C 0.56561 0.09208 0.00065 0.0
C798 C 0.56043 0.13119 0.14551 0.0
C799 C 0.58883 0.05976 0.0429 0.0
H800 H 0.63291 0.0828 0.21929 0.0
H801 H 0.56558 0.05133 0.24569 0.0
H802 H 0.62528 0.09715 0.08728 0.0
H803 H 0.61573 0.12236 0.12295 0.0
H804 H 0.64093 0.10611 0.14539 0.0
H805 H 0.53475 0.05413 0.18598 0.0
H806 H 0.53369 0.0825 0.15503 0.0
H807 H 0.54372 0.05767 0.11856 0.0
H808 H 0.54199 0.142 0.05119 0.0
H809 H 0.56663 0.08236 0.96414 0.0
H810 H 0.57799 0.13383 0.16314 0.0
H811 H 0.54972 0.12137 0.17443 0.0
H812 H 0.55218 0.14859 0.13909 0.0
H813 H 0.60686 0.06135 0.05869 0.0
H814 H 0.58985 0.05294 0.0021 0.0
H815 H 0.57947 0.04673 0.0675 0.0
C816 C 0.39933 0.58043 0.44692 0.0
C817 C 0.37583 0.58198 0.43152 0.0
C818 C 0.40722 0.59164 0.49248 0.0
C819 C 0.3912 0.60476 0.52317 0.0
C820 C 0.36782 0.60768 0.50592 0.0
C821 C 0.36036 0.59615 0.46024 0.0
C822 C 0.4323 0.5881 0.50959 0.0
C823 C 0.35033 0.62178 0.53732 0.0
C824 C 0.4046 0.60308 0.66819 0.0
C825 C 0.41655 0.62426 0.67552 0.0
C826 C 0.39545 0.59701 0.61915 0.0
C827 C 0.39821 0.61259 0.5764 0.0
C828 C 0.40924 0.63454 0.58406 0.0
C829 C 0.41839 0.64011 0.6337 0.0
C830 C 0.3838 0.57342 0.6126 0.0
C831 C 0.4122 0.65166 0.53944 0.0
H832 H 0.41139 0.56964 0.42456 0.0
H833 H 0.3422 0.59755 0.44818 0.0
H834 H 0.44049 0.60513 0.51971 0.0
H835 H 0.4327 0.57703 0.54539 0.0
H836 H 0.44306 0.57945 0.47878 0.0
H837 H 0.33408 0.62535 0.51472 0.0
H838 H 0.34552 0.61197 0.57334 0.0
H839 H 0.35808 0.6387 0.54987 0.0
H840 H 0.403 0.59083 0.7005 0.0
H841 H 0.42754 0.65655 0.63932 0.0
H842 H 0.3943 0.56239 0.58544 0.0
H843 H 0.36617 0.57556 0.59497 0.0
H844 H 0.38192 0.56394 0.65045 0.0
H845 H 0.42504 0.6446 0.51078 0.0
H846 H 0.41851 0.66902 0.55322 0.0
H847 H 0.39538 0.6541 0.51834 0.0
C848 C 0.85423 0.06836 0.85269 0.0
C849 C 0.86898 0.07178 0.80932 0.0
C850 C 0.8604 0.07699 0.90243 0.0
C851 C 0.88176 0.08926 0.90859 0.0
C852 C 0.89624 0.09349 0.86447 0.0
C853 C 0.88967 0.08468 0.81539 0.0
C854 C 0.84452 0.07227 0.94864 0.0
C855 C 0.91913 0.1066 0.86939 0.0
C856 C 0.89634 0.1273 0.02588 0.0
C857 C 0.91208 0.11286 0.05301 0.0
C858 C 0.8852 0.1194 0.98013 0.0
C859 C 0.88995 0.09653 0.96137 0.0
C860 C 0.90477 0.08144 0.99036 0.0
C861 C 0.9157 0.08981 0.03586 0.0
C862 C 0.86945 0.13596 0.95031 0.0
C863 C 0.91018 0.05688 0.97173 0.0
H864 H 0.8382 0.05841 0.84807 0.0
H865 H 0.90107 0.08748 0.7819 0.0
H866 H 0.85336 0.06016 0.97635 0.0
H867 H 0.84087 0.08875 0.97029 0.0
H868 H 0.82761 0.06432 0.93652 0.0
H869 H 0.92772 0.10946 0.83077 0.0
H870 H 0.91618 0.12388 0.88824 0.0
H871 H 0.93134 0.0966 0.89484 0.0
H872 H 0.89343 0.14512 0.03917 0.0
H873 H 0.92772 0.07853 0.05697 0.0
H874 H 0.85289 0.12711 0.93918 0.0
H875 H 0.87827 0.14143 0.91348 0.0
H876 H 0.86517 0.15191 0.97344 0.0
H877 H 0.89376 0.0474 0.96228 0.0
H878 H 0.92008 0.04663 0.00141 0.0
H879 H 0.92077 0.05771 0.93522 0.0
C880 C 0.37863 0.88368 0.52469 0.0
C881 C 0.39152 0.9021 0.54684 0.0
C882 C 0.38656 0.87221 0.47929 0.0
C883 C 0.40783 0.8794 0.45573 0.0
C884 C 0.42153 0.89709 0.47966 0.0
C885 C 0.41318 0.90826 0.52496 0.0
C886 C 0.37155 0.85336 0.45495 0.0
C887 C 0.44438 0.90516 0.4558 0.0
C888 C 0.43795 0.84482 0.34758 0.0
C889 C 0.43136 0.85773 0.30319 0.0
C890 C 0.42967 0.85103 0.39765 0.0
C891 C 0.41451 0.87053 0.40305 0.0
C892 C 0.40695 0.88287 0.35797 0.0
C893 C 0.41549 0.87631 0.3086 0.0
C894 C 0.43798 0.83743 0.4449 0.0
C895 C 0.39066 0.90369 0.36204 0.0
H896 H 0.36192 0.87878 0.54168 0.0
H897 H 0.42328 0.92236 0.54222 0.0
H898 H 0.36365 0.86006 0.41812 0.0
H899 H 0.38233 0.83785 0.44454 0.0
H900 H 0.35719 0.84771 0.48155 0.0
H901 H 0.45398 0.91744 0.48191 0.0
H902 H 0.45585 0.88993 0.44721 0.0
H903 H 0.44087 0.91417 0.41803 0.0
H904 H 0.45022 0.83042 0.34348 0.0
H905 H 0.41022 0.88624 0.27431 0.0
H906 H 0.42294 0.83258 0.47027 0.0
H907 H 0.44984 0.84856 0.46869 0.0
H908 H 0.44757 0.82123 0.43362 0.0
H909 H 0.37471 0.89895 0.38454 0.0
H910 H 0.38526 0.91038 0.32294 0.0
H911 H 0.3995 0.91809 0.3836 0.0
C912 C 0.60873 0.38098 0.02247 0.0
C913 C 0.58895 0.39325 0.04022 0.0
C914 C 0.62096 0.38836 0.97761 0.0
C915 C 0.61309 0.40837 0.94999 0.0
C916 C 0.59371 0.42135 0.96906 0.0
C917 C 0.58188 0.41363 0.01402 0.0
C918 C 0.64166 0.3742 0.95858 0.0
C919 C 0.5848 0.4428 0.94066 0.0
C920 C 0.64882 0.43956 0.84569 0.0
C921 C 0.63813 0.43127 0.79981 0.0
C922 C 0.64172 0.43137 0.89518 0.0
C923 C 0.62351 0.4146 0.89849 0.0
C924 C 0.61362 0.40525 0.8521 0.0
C925 C 0.62108 0.41369 0.80332 0.0
C926 C 0.65281 0.44153 0.94387 0.0
C927 C 0.59421 0.38728 0.85399 0.0
H928 H 0.61433 0.36528 0.04285 0.0
H929 H 0.56668 0.42324 0.02781 0.0
H930 H 0.63702 0.36518 0.92144 0.0
H931 H 0.65675 0.38584 0.95006 0.0
H932 H 0.64719 0.36079 0.98763 0.0
H933 H 0.5706 0.45184 0.96266 0.0
H934 H 0.59929 0.4554 0.93404 0.0
H935 H 0.57793 0.43767 0.90157 0.0
H936 H 0.66207 0.45311 0.84308 0.0
H937 H 0.61288 0.40709 0.76791 0.0
H938 H 0.65772 0.42739 0.97163 0.0
H939 H 0.63998 0.45301 0.96421 0.0
H940 H 0.66866 0.45205 0.93462 0.0
H941 H 0.59931 0.37232 0.8793 0.0
H942 H 0.58971 0.38046 0.81442 0.0
H943 H 0.57826 0.39528 0.87142 0.0
C944 C 0.11883 0.59086 0.50412 0.0
C945 C 0.10445 0.57241 0.52089 0.0
C946 C 0.11287 0.60428 0.45994 0.0
C947 C 0.09209 0.59902 0.43208 0.0
C948 C 0.0768 0.58138 0.45091 0.0
C949 C 0.08319 0.56828 0.49512 0.0
C950 C 0.12948 0.62308 0.44129 0.0
C951 C 0.05441 0.57532 0.42246 0.0
C952 C 0.06617 0.63724 0.32498 0.0
C953 C 0.07327 0.62501 0.27993 0.0
C954 C 0.07322 0.6298 0.37511 0.0
C955 C 0.0876 0.60969 0.37993 0.0
C956 C 0.09592 0.59819 0.33433 0.0
C957 C 0.08867 0.60601 0.2849 0.0
C958 C 0.06423 0.64265 0.42287 0.0
C959 C 0.11139 0.57674 0.33776 0.0
H960 H 0.13525 0.59419 0.52414 0.0
H961 H 0.07192 0.55417 0.50824 0.0
H962 H 0.13866 0.61697 0.40538 0.0
H963 H 0.11975 0.63926 0.43087 0.0
H964 H 0.14286 0.62744 0.47139 0.0
H965 H 0.04342 0.56277 0.44495 0.0
H966 H 0.04397 0.59136 0.41484 0.0
H967 H 0.05868 0.56735 0.38387 0.0
H968 H 0.05431 0.652 0.32127 0.0
H969 H 0.09436 0.59661 0.25015 0.0
H970 H 0.07861 0.64572 0.4513 0.0
H971 H 0.05083 0.63177 0.4429 0.0
H972 H 0.05616 0.65975 0.4125 0.0
H973 H 0.12671 0.58025 0.36332 0.0
H974 H 0.11785 0.57099 0.29865 0.0
H975 H 0.10142 0.56209 0.35568 0.0
C976 C 0.92258 0.51101 0.27825 0.0
C977 C 0.89982 0.50923 0.25807 0.0
C978 C 0.93797 0.52839 0.26042 0.0
C979 C 0.93041 0.54434 0.22143 0.0
C980 C 0.90732 0.54288 0.20145 0.0
C981 C 0.89226 0.5253 0.22007 0.0
C982 C 0.96246 0.52943 0.28276 0.0
C983 C 0.89869 0.55961 0.15986 0.0
C984 C 0.96663 0.59974 0.20927 0.0
C985 C 0.98208 0.59371 0.16863 0.0
C986 C 0.9491 0.58415 0.22571 0.0
C987 C 0.94702 0.56209 0.20075 0.0
C988 C 0.96198 0.55631 0.1583 0.0
C989 C 0.97937 0.5722 0.14279 0.0
C990 C 0.93345 0.5909 0.27111 0.0
C991 C 0.9602 0.53298 0.13057 0.0
H992 H 0.92848 0.49865 0.30769 0.0
H993 H 0.87467 0.52397 0.20438 0.0
H994 H 0.97548 0.52652 0.25104 0.0
H995 H 0.96585 0.54705 0.29949 0.0
H996 H 0.96536 0.51612 0.3139 0.0
H997 H 0.88 0.55664 0.14977 0.0
H998 H 0.90079 0.57797 0.17341 0.0
H999 H 0.90938 0.5576 0.12372 0.0
H1000 H 0.96864 0.61638 0.2293 0.0
H1001 H 0.99123 0.56751 0.11119 0.0
H1002 H 0.9371 0.57932 0.30511 0.0
H1003 H 0.91478 0.58845 0.26042 0.0
H1004 H 0.9361 0.60938 0.28351 0.0
H1005 H 0.96489 0.51868 0.15813 0.0
H1006 H 0.97197 0.5319 0.09588 0.0
H1007 H 0.94193 0.52984 0.11753 0.0
C1008 C 0.91256 0.97167 0.68732 0.0
C1009 C 0.88996 0.97588 0.70665 0.0
C1010 C 0.92644 0.95368 0.70802 0.0
C1011 C 0.9174 0.93944 0.74877 0.0
C1012 C 0.89403 0.94258 0.76602 0.0
C1013 C 0.88057 0.96091 0.7449 0.0
C1014 C 0.9513 0.95091 0.68848 0.0
C1015 C 0.88367 0.92745 0.80868 0.0
C1016 C 0.95656 0.88743 0.77778 0.0
C1017 C 0.97108 0.89684 0.81682 0.0
C1018 C 0.93767 0.90043 0.7577 0.0
C1019 C 0.93348 0.92333 0.77694 0.0
C1020 C 0.94701 0.93211 0.8191 0.0
C1021 C 0.96559 0.9187 0.83866 0.0
C1022 C 0.92331 0.8903 0.71349 0.0
C1023 C 0.94308 0.95644 0.84086 0.0
H1024 H 0.91984 0.98309 0.65748 0.0
H1025 H 0.86302 0.96401 0.75968 0.0
H1026 H 0.96372 0.95554 0.72033 0.0
H1027 H 0.95475 0.93243 0.67739 0.0
H1028 H 0.95505 0.96223 0.65403 0.0
H1029 H 0.86434 0.92947 0.81138 0.0
H1030 H 0.88787 0.90871 0.80174 0.0
H1031 H 0.89139 0.9324 0.84705 0.0
H1032 H 0.96063 0.87044 0.76103 0.0
H1033 H 0.97663 0.92596 0.86921 0.0
H1034 H 0.92863 0.89858 0.67594 0.0
H1035 H 0.90441 0.89401 0.71941 0.0
H1036 H 0.92581 0.87105 0.70981 0.0
H1037 H 0.94808 0.96963 0.81087 0.0
H1038 H 0.95354 0.95972 0.87687 0.0
H1039 H 0.9243 0.95919 0.8502 0.0
C1040 C 0.52666 0.90979 0.18733 0.0
C1041 C 0.52481 0.88629 0.20263 0.0
C1042 C 0.54336 0.92457 0.21011 0.0
C1043 C 0.5587 0.91553 0.24878 0.0
C1044 C 0.55799 0.89144 0.26177 0.0
C1045 C 0.54092 0.87708 0.23867 0.0
C1046 C 0.54355 0.95019 0.19519 0.0
C1047 C 0.57436 0.88113 0.30212 0.0
C1048 C 0.60744 0.95747 0.28532 0.0
C1049 C 0.59729 0.96927 0.32796 0.0
C1050 C 0.59577 0.93876 0.26095 0.0
C1051 C 0.5734 0.93199 0.27949 0.0
C1052 C 0.56378 0.94292 0.32453 0.0
C1053 C 0.57591 0.96137 0.34836 0.0
C1054 C 0.60675 0.92721 0.21361 0.0
C1055 C 0.53994 0.9362 0.34552 0.0
H1056 H 0.51434 0.91695 0.15922 0.0
H1057 H 0.53965 0.85885 0.25029 0.0
H1058 H 0.53784 0.96092 0.22923 0.0
H1059 H 0.56155 0.95582 0.1847 0.0
H1060 H 0.53177 0.95401 0.16159 0.0
H1061 H 0.5741 0.86167 0.30169 0.0
H1062 H 0.59258 0.88717 0.29528 0.0
H1063 H 0.5691 0.88718 0.34182 0.0
H1064 H 0.62407 0.96343 0.26965 0.0
H1065 H 0.56806 0.97034 0.38154 0.0
H1066 H 0.59747 0.93299 0.17763 0.0
H1067 H 0.60504 0.90788 0.21601 0.0
H1068 H 0.62558 0.93176 0.20949 0.0
H1069 H 0.52628 0.94102 0.31648 0.0
H1070 H 0.53583 0.94508 0.38325 0.0
H1071 H 0.5389 0.91699 0.35156 0.0
C1072 C 0.60893 0.53774 0.72936 0.0
C1073 C 0.60301 0.52091 0.69156 0.0
C1074 C 0.59256 0.55467 0.74545 0.0
C1075 C 0.56985 0.55465 0.72313 0.0
C1076 C 0.56415 0.53826 0.68348 0.0
C1077 C 0.58081 0.52159 0.66818 0.0
C1078 C 0.59923 0.57197 0.78769 0.0
C1079 C 0.54012 0.5377 0.65868 0.0
C1080 C 0.51761 0.57633 0.80063 0.0
C1081 C 0.51285 0.59776 0.77604 0.0
C1082 C 0.53668 0.56254 0.785 0.0
C1083 C 0.55135 0.57042 0.74383 0.0
C1084 C 0.54715 0.59243 0.72009 0.0
C1085 C 0.52787 0.60588 0.73647 0.0
C1086 C 0.54059 0.53912 0.81125 0.0
C1087 C 0.56251 0.6014 0.67622 0.0
H1088 H 0.62612 0.5373 0.74739 0.0
H1089 H 0.57621 0.50869 0.6387 0.0
H1090 H 0.59489 0.59008 0.77521 0.0
H1091 H 0.58901 0.56831 0.82384 0.0
H1092 H 0.61818 0.57112 0.79743 0.0
H1093 H 0.53902 0.52485 0.626 0.0
H1094 H 0.52685 0.53297 0.68873 0.0
H1095 H 0.53542 0.55528 0.64339 0.0
H1096 H 0.5061 0.57004 0.83144 0.0
H1097 H 0.52429 0.6225 0.71754 0.0
H1098 H 0.55887 0.53778 0.82567 0.0
H1099 H 0.53795 0.52482 0.78233 0.0
H1100 H 0.52848 0.53625 0.84481 0.0
H1101 H 0.58123 0.60056 0.68779 0.0
H1102 H 0.55818 0.61973 0.66518 0.0
H1103 H 0.56037 0.5901 0.64109 0.0
C1104 C 0.10172 0.44715 0.70369 0.0
C1105 C 0.09571 0.46057 0.65965 0.0
C1106 C 0.08666 0.42958 0.72228 0.0
C1107 C 0.06512 0.42556 0.69629 0.0
C1108 C 0.05981 0.43794 0.64968 0.0
C1109 C 0.07522 0.45526 0.63184 0.0
C1110 C 0.09305 0.41647 0.77168 0.0
C1111 C 0.03703 0.43415 0.62078 0.0
C1112 C 0.02518 0.37422 0.7271 0.0
C1113 C 0.00864 0.38488 0.76014 0.0
C1114 C 0.04434 0.38695 0.70758 0.0
C1115 C 0.04677 0.41087 0.72114 0.0
C1116 C 0.03051 0.42147 0.75582 0.0
C1117 C 0.01169 0.40831 0.77504 0.0
C1118 C 0.06153 0.37504 0.6712 0.0
C1119 C 0.03245 0.44698 0.7711 0.0
H1120 H 0.11763 0.45111 0.72513 0.0
H1121 H 0.0706 0.46547 0.5975 0.0
H1122 H 0.08215 0.42296 0.80474 0.0
H1123 H 0.08945 0.39748 0.76718 0.0
H1124 H 0.11179 0.41884 0.78218 0.0
H1125 H 0.03669 0.44333 0.58233 0.0
H1126 H 0.03398 0.41521 0.61401 0.0
H1127 H 0.02228 0.4408 0.64502 0.0
H1128 H 0.02293 0.35605 0.71575 0.0
H1129 H -0.00101 0.4166 0.80073 0.0
H1130 H 0.07976 0.3783 0.68435 0.0
H1131 H 0.05982 0.38246 0.63115 0.0
H1132 H 0.05861 0.35582 0.669 0.0
H1133 H 0.05002 0.45061 0.78779 0.0
H1134 H 0.01897 0.45224 0.80034 0.0
H1135 H 0.03043 0.45815 0.73575 0.0
C1136 C 0.02076 0.08345 0.18228 0.0
C1137 C 0.01439 0.10333 0.2113 0.0
C1138 C 0.03861 0.0685 0.19969 0.0
C1139 C 0.05031 0.07355 0.24731 0.0
C1140 C 0.04459 0.09409 0.27575 0.0
C1141 C 0.02666 0.10879 0.25734 0.0
C1142 C 0.0443 0.0468 0.16814 0.0
C1143 C 0.05674 0.10004 0.32664 0.0
C1144 C 0.07476 0.0204 0.31732 0.0
C1145 C 0.09837 0.02103 0.30228 0.0
C1146 C 0.0591 0.03787 0.30111 0.0
C1147 C 0.06728 0.05638 0.26899 0.0
C1148 C 0.09127 0.05755 0.25511 0.0
C1149 C 0.10657 0.03982 0.272 0.0
C1150 C 0.03364 0.03608 0.3169 0.0
C1151 C 0.10059 0.07705 0.22097 0.0
H1152 H 0.01139 0.07923 0.14653 0.0
H1153 H 0.0218 0.12417 0.27984 0.0
H1154 H 0.06337 0.04591 0.15996 0.0
H1155 H 0.03962 0.03096 0.1911 0.0
H1156 H 0.03471 0.04625 0.13023 0.0
H1157 H 0.05171 0.11765 0.34154 0.0
H1158 H 0.05217 0.08682 0.35686 0.0
H1159 H 0.07603 0.09949 0.32142 0.0
H1160 H 0.06836 0.00595 0.34093 0.0
H1161 H 0.12484 0.04038 0.26035 0.0
H1162 H 0.02267 0.03339 0.28148 0.0
H1163 H 0.02778 0.05262 0.33567 0.0
H1164 H 0.03041 0.02138 0.34454 0.0
H1165 H 0.0928 0.07574 0.1812 0.0
H1166 H 0.11997 0.07644 0.21714 0.0
H1167 H 0.09547 0.09433 0.23732 0.0
C1168 C 0.38326 0.01565 0.76624 0.0
C1169 C 0.39318 0.00397 0.72312 0.0
C1170 C 0.39494 0.03441 0.79035 0.0
C1171 C 0.41698 0.04161 0.77069 0.0
C1172 C 0.42669 0.03037 0.7261 0.0
C1173 C 0.41467 0.01164 0.70291 0.0
C1174 C 0.38409 0.046 0.8378 0.0
C1175 C 0.45011 0.03765 0.70381 0.0
C1176 C 0.44445 0.10024 0.80368 0.0
C1177 C 0.46171 0.09351 0.83977 0.0
C1178 C 0.4289 0.0837 0.7826 0.0
C1179 C 0.43069 0.05997 0.7982 0.0
C1180 C 0.44718 0.05338 0.83697 0.0
C1181 C 0.46252 0.07025 0.85724 0.0
C1182 C 0.41148 0.09138 0.7415 0.0
C1183 C 0.44949 0.02827 0.85494 0.0
H1184 H 0.36662 0.00976 0.78196 0.0
H1185 H 0.42235 0.00273 0.66946 0.0
H1186 H 0.39507 0.04256 0.87286 0.0
H1187 H 0.3834 0.06527 0.83232 0.0
H1188 H 0.36608 0.03952 0.84575 0.0
H1189 H 0.45462 0.02794 0.66736 0.0
H1190 H 0.45008 0.05669 0.69501 0.0
H1191 H 0.46408 0.03446 0.73323 0.0
H1192 H 0.44374 0.11823 0.79012 0.0
H1193 H 0.47576 0.065 0.88537 0.0
H1194 H 0.39377 0.0845 0.75072 0.0
H1195 H 0.41667 0.0841 0.70278 0.0
H1196 H 0.41046 0.11076 0.73812 0.0
H1197 H 0.43213 0.02117 0.86635 0.0
H1198 H 0.46163 0.02645 0.88875 0.0
H1199 H 0.45619 0.01734 0.82215 0.0
C1200 C 0.49215 0.43232 0.20381 0.0
C1201 C 0.49116 0.40789 0.20877 0.0
C1202 C 0.47308 0.44638 0.21838 0.0
C1203 C 0.45254 0.43574 0.23843 0.0
C1204 C 0.45143 0.41107 0.2436 0.0
C1205 C 0.47079 0.39741 0.22867 0.0
C1206 C 0.47491 0.47265 0.21232 0.0
C1207 C 0.42982 0.39915 0.26491 0.0
C1208 C 0.4132 0.47561 0.31861 0.0
C1209 C 0.39658 0.48247 0.28117 0.0
C1210 C 0.43107 0.45973 0.30573 0.0
C1211 C 0.43233 0.45057 0.25416 0.0
C1212 C 0.41509 0.45678 0.21675 0.0
C1213 C 0.39737 0.47267 0.23075 0.0
C1214 C 0.44909 0.45343 0.34673 0.0
C1215 C 0.41587 0.44735 0.16139 0.0
H1216 H 0.50786 0.44049 0.18842 0.0
H1217 H 0.46996 0.37852 0.23255 0.0
H1218 H 0.46083 0.47911 0.18605 0.0
H1219 H 0.47245 0.48129 0.25097 0.0
H1220 H 0.49209 0.47815 0.19593 0.0
H1221 H 0.43176 0.37979 0.26641 0.0
H1222 H 0.42598 0.40566 0.30505 0.0
H1223 H 0.41445 0.40348 0.2401 0.0
H1224 H 0.41261 0.4831 0.3577 0.0
H1225 H 0.38454 0.47793 0.2017 0.0
H1226 H 0.46649 0.46027 0.33474 0.0
H1227 H 0.45071 0.43412 0.35013 0.0
H1228 H 0.44468 0.46073 0.38595 0.0
H1229 H 0.43179 0.45392 0.14118 0.0
H1230 H 0.40027 0.45261 0.13815 0.0
H1231 H 0.41698 0.42794 0.16187 0.0
loop_
_geom_bond_atom_site_label_1
_geom_bond_atom_site_label_2
_geom_bond_distance
_geom_bond_site_symmetry_2
_ccdc_geom_bond_type
In0 O1 2.294 . S
In0 O2 2.326 . S
In0 O6 2.266 1_455 S
In0 O7 2.326 1_455 S
In0 O8 2.266 . S
In0 O9 2.326 . S
In0 O11 2.294 . S
In0 O12 2.326 . S
O1 In0 2.294 . S
O1 C10 1.240 . S
O2 In0 2.326 . S
O2 C10 1.252 . S
C3 O6 1.252 . S
C3 O7 1.260 . S
C4 O11 1.240 . S
C4 O12 1.252 . S
C5 O8 1.252 . S
C5 O9 1.260 . S
O6 In0 2.266 1_655 S
O6 C3 1.252 . S
O7 In0 2.326 1_655 S
O7 C3 1.260 . S
O8 In0 2.266 . S
O8 C5 1.252 . S
O9 In0 2.326 . S
O9 C5 1.260 . S
C10 O1 1.240 . S
C10 O2 1.252 . S
O11 In0 2.294 . S
O11 C4 1.240 . S
O12 In0 2.326 . S
O12 C4 1.252 . S
In13 O14 2.294 . S
In13 O15 2.326 . S
In13 O19 2.266 . S
In13 O20 2.326 . S
In13 O21 2.266 1_545 S
In13 O22 2.326 1_545 S
In13 O24 2.294 . S
In13 O25 2.326 . S
O14 In13 2.294 . S
O14 C23 1.240 . S
O15 In13 2.326 . S
O15 C23 1.252 . S
C16 O19 1.252 . S
C16 O20 1.260 . S
C17 O24 1.240 . S
C17 O25 1.252 . S
C18 O21 1.252 . S
C18 O22 1.260 . S
O19 In13 2.266 . S
O19 C16 1.252 . S
O20 In13 2.326 . S
O20 C16 1.260 . S
O21 In13 2.266 1_565 S
O21 C18 1.252 . S
O22 In13 2.326 1_565 S
O22 C18 1.260 . S
C23 O14 1.240 . S
C23 O15 1.252 . S
O24 In13 2.294 . S
O24 C17 1.240 . S
O25 In13 2.326 . S
O25 C17 1.252 . S
In26 O27 2.294 . S
In26 O28 2.326 . S
In26 O32 2.266 . S
In26 O33 2.326 . S
In26 O34 2.266 . S
In26 O35 2.326 . S
In26 O37 2.294 . S
In26 O38 2.326 . S
O27 In26 2.294 . S
O27 C36 1.240 . S
O28 In26 2.326 . S
O28 C36 1.252 . S
C29 O32 1.252 . S
C29 O33 1.260 . S
C30 O37 1.240 . S
C30 O38 1.252 . S
C31 O34 1.252 . S
C31 O35 1.260 . S
O32 In26 2.266 . S
O32 C29 1.252 . S
O33 In26 2.326 . S
O33 C29 1.260 . S
O34 In26 2.266 . S
O34 C31 1.252 . S
O35 In26 2.326 . S
O35 C31 1.260 . S
C36 O27 1.240 . S
C36 O28 1.252 . S
O37 In26 2.294 . S
O37 C30 1.240 . S
O38 In26 2.326 . S
O38 C30 1.252 . S
In39 O40 2.294 . S
In39 O41 2.326 . S
In39 O45 2.266 . S
In39 O46 2.326 . S
In39 O47 2.266 . S
In39 O48 2.326 . S
In39 O50 2.294 . S
In39 O51 2.326 . S
O40 In39 2.294 . S
O40 C49 1.240 . S
O41 In39 2.326 . S
O41 C49 1.252 . S
C42 O45 1.252 . S
C42 O46 1.260 . S
C43 O50 1.240 . S
C43 O51 1.252 . S
C44 O47 1.252 . S
C44 O48 1.260 . S
O45 In39 2.266 . S
O45 C42 1.252 . S
O46 In39 2.326 . S
O46 C42 1.260 . S
O47 In39 2.266 . S
O47 C44 1.252 . S
O48 In39 2.326 . S
O48 C44 1.260 . S
C49 O40 1.240 . S
C49 O41 1.252 . S
O50 In39 2.294 . S
O50 C43 1.240 . S
O51 In39 2.326 . S
O51 C43 1.252 . S
In52 O53 2.294 . S
In52 O54 2.326 . S
In52 O58 2.266 1_455 S
In52 O59 2.326 1_455 S
In52 O60 2.266 . S
In52 O61 2.326 . S
In52 O63 2.294 . S
In52 O64 2.326 . S
O53 In52 2.294 . S
O53 C62 1.240 . S
O54 In52 2.326 . S
O54 C62 1.252 . S
C55 O58 1.252 . S
C55 O59 1.260 . S
C56 O63 1.240 . S
C56 O64 1.252 . S
C57 O60 1.252 . S
C57 O61 1.260 . S
O58 In52 2.266 1_655 S
O58 C55 1.252 . S
O59 In52 2.326 1_655 S
O59 C55 1.260 . S
O60 In52 2.266 . S
O60 C57 1.252 . S
O61 In52 2.326 . S
O61 C57 1.260 . S
C62 O53 1.240 . S
C62 O54 1.252 . S
O63 In52 2.294 . S
O63 C56 1.240 . S
O64 In52 2.326 . S
O64 C56 1.252 . S
In65 O66 2.294 . S
In65 O67 2.326 . S
In65 O71 2.266 1_545 S
In65 O72 2.326 1_545 S
In65 O73 2.266 . S
In65 O74 2.326 . S
In65 O76 2.294 . S
In65 O77 2.326 . S
O66 In65 2.294 . S
O66 C75 1.240 . S
O67 In65 2.326 . S
O67 C75 1.252 . S
C68 O71 1.252 . S
C68 O72 1.260 . S
C69 O76 1.240 . S
C69 O77 1.252 . S
C70 O73 1.252 . S
C70 O74 1.260 . S
O71 In65 2.266 1_565 S
O71 C68 1.252 . S
O72 In65 2.326 1_565 S
O72 C68 1.260 . S
O73 In65 2.266 . S
O73 C70 1.252 . S
O74 In65 2.326 . S
O74 C70 1.260 . S
C75 O66 1.240 . S
C75 O67 1.252 . S
O76 In65 2.294 . S
O76 C69 1.240 . S
O77 In65 2.326 . S
O77 C69 1.252 . S
In78 O79 2.294 . S
In78 O80 2.326 . S
In78 O84 2.266 . S
In78 O85 2.326 . S
In78 O86 2.266 . S
In78 O87 2.326 . S
In78 O89 2.294 . S
In78 O90 2.326 . S
O79 In78 2.294 . S
O79 C88 1.240 . S
O80 In78 2.326 . S
O80 C88 1.252 . S
C81 O84 1.252 . S
C81 O85 1.260 . S
C82 O89 1.240 . S
C82 O90 1.252 . S
C83 O86 1.252 . S
C83 O87 1.260 . S
O84 In78 2.266 . S
O84 C81 1.252 . S
O85 In78 2.326 . S
O85 C81 1.260 . S
O86 In78 2.266 . S
O86 C83 1.252 . S
O87 In78 2.326 . S
O87 C83 1.260 . S
C88 O79 1.240 . S
C88 O80 1.252 . S
O89 In78 2.294 . S
O89 C82 1.240 . S
O90 In78 2.326 . S
O90 C82 1.252 . S
In91 O92 2.294 . S
In91 O93 2.326 . S
In91 O97 2.266 . S
In91 O98 2.326 . S
In91 O99 2.266 . S
In91 O100 2.326 . S
In91 O102 2.294 . S
In91 O103 2.326 . S
O92 In91 2.294 . S
O92 C101 1.240 . S
O93 In91 2.326 . S
O93 C101 1.252 . S
C94 O97 1.252 . S
C94 O98 1.260 . S
C95 O102 1.240 . S
C95 O103 1.252 . S
C96 O99 1.252 . S
C96 O100 1.260 . S
O97 In91 2.266 . S
O97 C94 1.252 . S
O98 In91 2.326 . S
O98 C94 1.260 . S
O99 In91 2.266 . S
O99 C96 1.252 . S
O100 In91 2.326 . S
O100 C96 1.260 . S
C101 O92 1.240 . S
C101 O93 1.252 . S
O102 In91 2.294 . S
O102 C95 1.240 . S
O103 In91 2.326 . S
O103 C95 1.252 . S
In104 O105 2.294 . S
In104 O106 2.326 . S
In104 O110 2.266 1_655 S
In104 O111 2.326 1_655 S
In104 O112 2.266 . S
In104 O113 2.326 . S
In104 O115 2.294 . S
In104 O116 2.326 . S
O105 In104 2.294 . S
O105 C114 1.240 . S
O106 In104 2.326 . S
O106 C114 1.252 . S
C107 O110 1.252 . S
C107 O111 1.260 . S
C108 O115 1.240 . S
C108 O116 1.252 . S
C109 O112 1.252 . S
C109 O113 1.260 . S
O110 In104 2.266 1_455 S
O110 C107 1.252 . S
O111 In104 2.326 1_455 S
O111 C107 1.260 . S
O112 In104 2.266 . S
O112 C109 1.252 . S
O113 In104 2.326 . S
O113 C109 1.260 . S
C114 O105 1.240 . S
C114 O106 1.252 . S
O115 In104 2.294 . S
O115 C108 1.240 . S
O116 In104 2.326 . S
O116 C108 1.252 . S
In117 O118 2.294 . S
In117 O119 2.326 . S
In117 O123 2.266 . S
In117 O124 2.326 . S
In117 O125 2.266 1_565 S
In117 O126 2.326 1_565 S
In117 O128 2.294 . S
In117 O129 2.326 . S
O118 In117 2.294 . S
O118 C127 1.240 . S
O119 In117 2.326 . S
O119 C127 1.252 . S
C120 O123 1.252 . S
C120 O124 1.260 . S
C121 O128 1.240 . S
C121 O129 1.252 . S
C122 O125 1.252 . S
C122 O126 1.260 . S
O123 In117 2.266 . S
O123 C120 1.252 . S
O124 In117 2.326 . S
O124 C120 1.260 . S
O125 In117 2.266 1_545 S
O125 C122 1.252 . S
O126 In117 2.326 1_545 S
O126 C122 1.260 . S
C127 O118 1.240 . S
C127 O119 1.252 . S
O128 In117 2.294 . S
O128 C121 1.240 . S
O129 In117 2.326 . S
O129 C121 1.252 . S
In130 O131 2.294 . S
In130 O132 2.326 . S
In130 O136 2.266 . S
In130 O137 2.326 . S
In130 O138 2.266 . S
In130 O139 2.326 . S
In130 O141 2.294 . S
In130 O142 2.326 . S
O131 In130 2.294 . S
O131 C140 1.240 . S
O132 In130 2.326 . S
O132 C140 1.252 . S
C133 O136 1.252 . S
C133 O137 1.260 . S
C134 O141 1.240 . S
C134 O142 1.252 . S
C135 O138 1.252 . S
C135 O139 1.260 . S
O136 In130 2.266 . S
O136 C133 1.252 . S
O137 In130 2.326 . S
O137 C133 1.260 . S
O138 In130 2.266 . S
O138 C135 1.252 . S
O139 In130 2.326 . S
O139 C135 1.260 . S
C140 O131 1.240 . S
C140 O132 1.252 . S
O141 In130 2.294 . S
O141 C134 1.240 . S
O142 In130 2.326 . S
O142 C134 1.252 . S
In143 O144 2.294 . S
In143 O145 2.326 . S
In143 O149 2.266 . S
In143 O150 2.326 . S
In143 O151 2.266 . S
In143 O152 2.326 . S
In143 O154 2.294 . S
In143 O155 2.326 . S
O144 In143 2.294 . S
O144 C153 1.240 . S
O145 In143 2.326 . S
O145 C153 1.252 . S
C146 O149 1.252 . S
C146 O150 1.260 . S
C147 O154 1.240 . S
C147 O155 1.252 . S
C148 O151 1.252 . S
C148 O152 1.260 . S
O149 In143 2.266 . S
O149 C146 1.252 . S
O150 In143 2.326 . S
O150 C146 1.260 . S
O151 In143 2.266 . S
O151 C148 1.252 . S
O152 In143 2.326 . S
O152 C148 1.260 . S
C153 O144 1.240 . S
C153 O145 1.252 . S
O154 In143 2.294 . S
O154 C147 1.240 . S
O155 In143 2.326 . S
O155 C147 1.252 . S
In156 O157 2.294 . S
In156 O158 2.326 . S
In156 O162 2.266 1_655 S
In156 O163 2.326 1_655 S
In156 O164 2.266 . S
In156 O165 2.326 . S
In156 O167 2.294 . S
In156 O168 2.326 . S
O157 In156 2.294 . S
O157 C166 1.240 . S
O158 In156 2.326 . S
O158 C166 1.252 . S
C159 O162 1.252 . S
C159 O163 1.260 . S
C160 O167 1.240 . S
C160 O168 1.252 . S
C161 O164 1.252 . S
C161 O165 1.260 . S
O162 In156 2.266 1_455 S
O162 C159 1.252 . S
O163 In156 2.326 1_455 S
O163 C159 1.260 . S
O164 In156 2.266 . S
O164 C161 1.252 . S
O165 In156 2.326 . S
O165 C161 1.260 . S
C166 O157 1.240 . S
C166 O158 1.252 . S
O167 In156 2.294 . S
O167 C160 1.240 . S
O168 In156 2.326 . S
O168 C160 1.252 . S
In169 O170 2.294 . S
In169 O171 2.326 . S
In169 O175 2.266 1_565 S
In169 O176 2.326 1_565 S
In169 O177 2.266 . S
In169 O178 2.326 . S
In169 O180 2.294 . S
In169 O181 2.326 . S
O170 In169 2.294 . S
O170 C179 1.240 . S
O171 In169 2.326 . S
O171 C179 1.252 . S
C172 O175 1.252 . S
C172 O176 1.260 . S
C173 O180 1.240 . S
C173 O181 1.252 . S
C174 O177 1.252 . S
C174 O178 1.260 . S
O175 In169 2.266 1_545 S
O175 C172 1.252 . S
O176 In169 2.326 1_545 S
O176 C172 1.260 . S
O177 In169 2.266 . S
O177 C174 1.252 . S
O178 In169 2.326 . S
O178 C174 1.260 . S
C179 O170 1.240 . S
C179 O171 1.252 . S
O180 In169 2.294 . S
O180 C173 1.240 . S
O181 In169 2.326 . S
O181 C173 1.252 . S
In182 O183 2.294 . S
In182 O184 2.326 . S
In182 O188 2.266 . S
In182 O189 2.326 . S
In182 O190 2.266 . S
In182 O191 2.326 . S
In182 O193 2.294 . S
In182 O194 2.326 . S
O183 In182 2.294 . S
O183 C192 1.240 . S
O184 In182 2.326 . S
O184 C192 1.252 . S
C185 O188 1.252 . S
C185 O189 1.260 . S
C186 O193 1.240 . S
C186 O194 1.252 . S
C187 O190 1.252 . S
C187 O191 1.260 . S
O188 In182 2.266 . S
O188 C185 1.252 . S
O189 In182 2.326 . S
O189 C185 1.260 . S
O190 In182 2.266 . S
O190 C187 1.252 . S
O191 In182 2.326 . S
O191 C187 1.260 . S
C192 O183 1.240 . S
C192 O184 1.252 . S
O193 In182 2.294 . S
O193 C186 1.240 . S
O194 In182 2.326 . S
O194 C186 1.252 . S
In195 O196 2.294 . S
In195 O197 2.326 . S
In195 O201 2.266 . S
In195 O202 2.326 . S
In195 O203 2.266 . S
In195 O204 2.326 . S
In195 O206 2.294 . S
In195 O207 2.326 . S
O196 In195 2.294 . S
O196 C205 1.240 . S
O197 In195 2.326 . S
O197 C205 1.252 . S
C198 O201 1.252 . S
C198 O202 1.260 . S
C199 O206 1.240 . S
C199 O207 1.252 . S
C200 O203 1.252 . S
C200 O204 1.260 . S
O201 In195 2.266 . S
O201 C198 1.252 . S
O202 In195 2.326 . S
O202 C198 1.260 . S
O203 In195 2.266 . S
O203 C200 1.252 . S
O204 In195 2.326 . S
O204 C200 1.260 . S
C205 O196 1.240 . S
C205 O197 1.252 . S
O206 In195 2.294 . S
O206 C199 1.240 . S
O207 In195 2.326 . S
O207 C199 1.252 . S
C208 C209 1.391 1_655 S
C208 C210 1.395 . S
C208 H224 0.931 . S
C209 C208 1.391 1_455 S
C209 C213 1.376 . S
C210 C208 1.395 . S
C210 C211 1.352 1_655 S
C210 C214 1.547 . S
C211 C210 1.352 1_455 S
C211 C212 1.410 . S
C211 C219 1.503 1_554 S
C212 C211 1.410 . S
C212 C213 1.392 . S
C212 C215 1.511 1_554 S
C213 C209 1.376 . S
C213 C212 1.392 . S
C213 H225 0.929 . S
C214 C210 1.547 . S
C214 H226 0.960 . S
C214 H227 0.962 . S
C214 H228 0.960 . S
C215 C212 1.511 1_556 S
C215 H229 0.961 . S
C215 H230 0.961 . S
C215 H231 0.961 . S
C216 C217 1.370 . S
C216 C218 1.363 . S
C216 H232 0.931 1_455 S
C217 C216 1.370 . S
C217 C221 1.408 . S
C218 C216 1.363 . S
C218 C219 1.370 . S
C218 C222 1.524 1_455 S
C219 C211 1.503 1_556 S
C219 C218 1.370 . S
C219 C220 1.403 1_556 S
C220 C219 1.403 1_554 S
C220 C221 1.404 1_554 S
C220 C223 1.539 . S
C221 C217 1.408 . S
C221 C220 1.404 1_556 S
C221 H233 0.930 . S
C222 C218 1.524 1_655 S
C222 H234 0.956 . S
C222 H235 0.958 1_655 S
C222 H236 0.961 . S
C223 C220 1.539 . S
C223 H237 0.958 . S
C223 H238 0.961 . S
C223 H239 0.960 . S
H224 C208 0.931 . S
H225 C213 0.929 . S
H226 C214 0.960 . S
H227 C214 0.962 . S
H228 C214 0.960 . S
H229 C215 0.961 . S
H230 C215 0.961 . S
H231 C215 0.961 . S
H232 C216 0.931 1_655 S
H233 C221 0.930 . S
H234 C222 0.956 . S
H235 C222 0.958 1_455 S
H236 C222 0.961 . S
H237 C223 0.958 . S
H238 C223 0.961 . S
H239 C223 0.960 . S
C240 C241 1.391 . S
C240 C242 1.394 . S
C240 H256 0.931 . S
C241 C240 1.391 . S
C241 C245 1.376 . S
C242 C240 1.394 . S
C242 C243 1.369 . S
C242 C246 1.531 . S
C243 C242 1.369 . S
C243 C244 1.410 . S
C243 C251 1.503 . S
C244 C243 1.410 . S
C244 C245 1.392 . S
C244 C247 1.511 . S
C245 C241 1.376 . S
C245 C244 1.392 . S
C245 H257 0.929 . S
C246 C242 1.531 . S
C246 H258 0.960 1_545 S
C246 H259 0.962 . S
C246 H260 0.960 1_545 S
C247 C244 1.511 . S
C247 H261 0.961 . S
C247 H262 0.961 . S
C247 H263 0.961 1_545 S
C248 C249 1.370 . S
C248 C250 1.363 . S
C248 H264 0.931 . S
C249 C248 1.370 . S
C249 C253 1.408 1_545 S
C250 C248 1.363 . S
C250 C251 1.370 . S
C250 C254 1.524 . S
C251 C243 1.503 . S
C251 C250 1.370 . S
C251 C252 1.403 1_545 S
C252 C251 1.403 1_565 S
C252 C253 1.404 . S
C252 C255 1.539 . S
C253 C249 1.408 1_565 S
C253 C252 1.404 . S
C253 H265 0.930 . S
C254 C250 1.524 . S
C254 H266 0.956 . S
C254 H267 0.961 . S
C254 H268 0.961 . S
C255 C252 1.539 . S
C255 H269 0.958 . S
C255 H270 0.961 . S
C255 H271 0.960 . S
H256 C240 0.931 . S
H257 C245 0.929 . S
H258 C246 0.960 1_565 S
H259 C246 0.962 . S
H260 C246 0.960 1_565 S
H261 C247 0.961 . S
H262 C247 0.961 . S
H263 C247 0.961 1_565 S
H264 C248 0.931 . S
H265 C253 0.930 . S
H266 C254 0.956 . S
H267 C254 0.961 . S
H268 C254 0.961 . S
H269 C255 0.958 . S
H270 C255 0.961 . S
H271 C255 0.960 . S
C272 C273 1.391 . S
C272 C274 1.394 1_554 S
C272 H288 0.931 . S
C273 C272 1.391 . S
C273 C277 1.376 . S
C274 C272 1.394 1_556 S
C274 C275 1.369 1_556 S
C274 C278 1.531 . S
C275 C274 1.369 1_554 S
C275 C276 1.410 . S
C275 C283 1.503 1_554 S
C276 C275 1.410 . S
C276 C277 1.392 . S
C276 C279 1.511 . S
C277 C273 1.376 . S
C277 C276 1.392 . S
C277 H289 0.929 . S
C278 C274 1.531 . S
C278 H290 0.960 . S
C278 H291 0.962 . S
C278 H292 0.960 . S
C279 C276 1.511 . S
C279 H293 0.961 . S
C279 H294 0.961 . S
C279 H295 0.961 . S
C280 C281 1.370 . S
C280 C282 1.365 . S
C280 H296 0.931 . S
C281 C280 1.370 . S
C281 C285 1.408 . S
C282 C280 1.365 . S
C282 C283 1.372 . S
C282 C286 1.521 1_556 S
C283 C275 1.503 1_556 S
C283 C282 1.372 . S
C283 C284 1.403 . S
C284 C283 1.403 . S
C284 C285 1.404 . S
C284 C287 1.539 . S
C285 C281 1.408 . S
C285 C284 1.404 . S
C285 H297 0.930 . S
C286 C282 1.521 1_554 S
C286 H298 0.956 . S
C286 H299 0.961 . S
C286 H300 0.961 . S
C287 C284 1.539 . S
C287 H301 0.958 . S
C287 H302 0.961 . S
C287 H303 0.960 . S
H288 C272 0.931 . S
H289 C277 0.929 . S
H290 C278 0.960 . S
H291 C278 0.962 . S
H292 C278 0.960 . S
H293 C279 0.961 . S
H294 C279 0.961 . S
H295 C279 0.961 . S
H296 C280 0.931 . S
H297 C285 0.930 . S
H298 C286 0.956 . S
H299 C286 0.961 . S
H300 C286 0.961 . S
H301 C287 0.958 . S
H302 C287 0.961 . S
H303 C287 0.960 . S
C304 C305 1.391 . S
C304 C306 1.394 . S
C304 H320 0.931 . S
C305 C304 1.391 . S
C305 C309 1.376 . S
C306 C304 1.394 . S
C306 C307 1.369 . S
C306 C310 1.531 . S
C307 C306 1.369 . S
C307 C308 1.410 . S
C307 C315 1.503 . S
C308 C307 1.410 . S
C308 C309 1.392 . S
C308 C311 1.511 . S
C309 C305 1.376 . S
C309 C308 1.392 . S
C309 H321 0.929 . S
C310 C306 1.531 . S
C310 H322 0.960 . S
C310 H323 0.962 . S
C310 H324 0.960 . S
C311 C308 1.511 . S
C311 H325 0.961 . S
C311 H326 0.961 . S
C311 H327 0.961 . S
C312 C313 1.370 . S
C312 C314 1.363 . S
C312 H328 0.931 . S
C313 C312 1.370 . S
C313 C317 1.408 . S
C314 C312 1.363 . S
C314 C315 1.370 . S
C314 C318 1.524 . S
C315 C307 1.503 . S
C315 C314 1.370 . S
C315 C316 1.403 . S
C316 C315 1.403 . S
C316 C317 1.404 . S
C316 C319 1.539 . S
C317 C313 1.408 . S
C317 C316 1.404 . S
C317 H329 0.930 . S
C318 C314 1.524 . S
C318 H330 0.956 . S
C318 H331 0.961 . S
C318 H332 0.961 . S
C319 C316 1.539 . S
C319 H333 0.958 . S
C319 H334 0.961 . S
C319 H335 0.960 . S
H320 C304 0.931 . S
H321 C309 0.929 . S
H322 C310 0.960 . S
H323 C310 0.962 . S
H324 C310 0.960 . S
H325 C311 0.961 . S
H326 C311 0.961 . S
H327 C311 0.961 . S
H328 C312 0.931 . S
H329 C317 0.930 . S
H330 C318 0.956 . S
H331 C318 0.961 . S
H332 C318 0.961 . S
H333 C319 0.958 . S
H334 C319 0.961 . S
H335 C319 0.960 . S
C336 C337 1.391 . S
C336 C338 1.394 . S
C336 H352 0.931 . S
C337 C336 1.391 . S
C337 C341 1.376 1_655 S
C338 C336 1.394 . S
C338 C339 1.369 . S
C338 C342 1.531 . S
C339 C338 1.369 . S
C339 C340 1.410 1_656 S
C339 C347 1.503 1_556 S
C340 C339 1.410 1_454 S
C340 C341 1.392 1_554 S
C340 C343 1.511 . S
C341 C337 1.376 1_455 S
C341 C340 1.392 1_556 S
C341 H353 0.929 . S
C342 C338 1.531 . S
C342 H354 0.960 . S
C342 H355 0.962 . S
C342 H356 0.960 . S
C343 C340 1.511 . S
C343 H357 0.961 . S
C343 H358 0.961 . S
C343 H359 0.961 . S
C344 C345 1.370 . S
C344 C346 1.363 . S
C344 H360 0.931 . S
C345 C344 1.370 . S
C345 C349 1.408 1_655 S
C346 C344 1.363 . S
C346 C347 1.370 . S
C346 C350 1.524 . S
C347 C339 1.503 1_554 S
C347 C346 1.370 . S
C347 C348 1.403 1_654 S
C348 C347 1.403 1_456 S
C348 C349 1.404 1_556 S
C348 C351 1.539 . S
C349 C345 1.408 1_455 S
C349 C348 1.404 1_554 S
C349 H361 0.930 . S
C350 C346 1.524 . S
C350 H362 0.956 . S
C350 H363 0.961 . S
C350 H364 0.961 . S
C351 C348 1.539 . S
C351 H365 0.958 . S
C351 H366 0.961 . S
C351 H367 0.960 . S
H352 C336 0.931 . S
H353 C341 0.929 . S
H354 C342 0.960 . S
H355 C342 0.962 . S
H356 C342 0.960 . S
H357 C343 0.961 . S
H358 C343 0.961 . S
H359 C343 0.961 . S
H360 C344 0.931 . S
H361 C349 0.930 . S
H362 C350 0.956 . S
H363 C350 0.961 . S
H364 C350 0.961 . S
H365 C351 0.958 . S
H366 C351 0.961 . S
H367 C351 0.960 . S
C368 C369 1.391 1_545 S
C368 C370 1.394 . S
C368 H384 0.931 . S
C369 C368 1.391 1_565 S
C369 C373 1.376 . S
C370 C368 1.394 . S
C370 C371 1.369 1_545 S
C370 C374 1.531 . S
C371 C370 1.369 1_565 S
C371 C372 1.410 . S
C371 C379 1.503 . S
C372 C371 1.410 . S
C372 C373 1.392 . S
C372 C375 1.511 . S
C373 C369 1.376 . S
C373 C372 1.392 . S
C373 H385 0.929 . S
C374 C370 1.531 . S
C374 H386 0.960 . S
C374 H387 0.962 . S
C374 H388 0.960 . S
C375 C372 1.511 . S
C375 H389 0.961 . S
C375 H390 0.961 . S
C375 H391 0.961 . S
C376 C377 1.370 . S
C376 C378 1.363 . S
C376 H392 0.931 . S
C377 C376 1.370 . S
C377 C381 1.408 . S
C378 C376 1.363 . S
C378 C379 1.370 . S
C378 C382 1.524 . S
C379 C371 1.503 . S
C379 C378 1.370 . S
C379 C380 1.408 . S
C380 C379 1.408 . S
C380 C381 1.404 . S
C380 C383 1.534 1_565 S
C381 C377 1.408 . S
C381 C380 1.404 . S
C381 H393 0.930 1_565 S
C382 C378 1.524 . S
C382 H394 0.956 . S
C382 H395 0.961 . S
C382 H396 0.961 . S
C383 C380 1.534 1_545 S
C383 H397 0.958 . S
C383 H398 0.961 . S
C383 H399 0.960 . S
H384 C368 0.931 . S
H385 C373 0.929 . S
H386 C374 0.960 . S
H387 C374 0.962 . S
H388 C374 0.960 . S
H389 C375 0.961 . S
H390 C375 0.961 . S
H391 C375 0.961 . S
H392 C376 0.931 . S
H393 C381 0.930 1_545 S
H394 C382 0.956 . S
H395 C382 0.961 . S
H396 C382 0.961 . S
H397 C383 0.958 . S
H398 C383 0.961 . S
H399 C383 0.960 . S
C400 C401 1.391 . S
C400 C402 1.394 1_556 S
C400 H416 0.931 1_556 S
C401 C400 1.391 . S
C401 C405 1.376 . S
C402 C400 1.394 1_554 S
C402 C403 1.369 1_554 S
C402 C406 1.531 . S
C403 C402 1.369 1_556 S
C403 C404 1.410 . S
C403 C411 1.503 1_556 S
C404 C403 1.410 . S
C404 C405 1.392 . S
C404 C407 1.511 . S
C405 C401 1.376 . S
C405 C404 1.392 . S
C405 H417 0.929 . S
C406 C402 1.531 . S
C406 H418 0.960 . S
C406 H419 0.962 . S
C406 H420 0.960 . S
C407 C404 1.511 . S
C407 H421 0.961 . S
C407 H422 0.961 . S
C407 H423 0.961 . S
C408 C409 1.370 . S
C408 C410 1.363 . S
C408 H424 0.931 . S
C409 C408 1.370 . S
C409 C413 1.408 . S
C410 C408 1.363 . S
C410 C411 1.370 . S
C410 C414 1.524 . S
C411 C403 1.503 1_554 S
C411 C410 1.370 . S
C411 C412 1.403 . S
C412 C411 1.403 . S
C412 C413 1.404 . S
C412 C415 1.539 . S
C413 C409 1.408 . S
C413 C412 1.404 . S
C413 H425 0.930 . S
C414 C410 1.524 . S
C414 H426 0.956 . S
C414 H427 0.961 1_554 S
C414 H428 0.961 . S
C415 C412 1.539 . S
C415 H429 0.958 . S
C415 H430 0.961 1_554 S
C415 H431 0.960 1_554 S
H416 C400 0.931 1_554 S
H417 C405 0.929 . S
H418 C406 0.960 . S
H419 C406 0.962 . S
H420 C406 0.960 . S
H421 C407 0.961 . S
H422 C407 0.961 . S
H423 C407 0.961 . S
H424 C408 0.931 . S
H425 C413 0.930 . S
H426 C414 0.956 . S
H427 C414 0.961 1_556 S
H428 C414 0.961 . S
H429 C415 0.958 . S
H430 C415 0.961 1_556 S
H431 C415 0.960 1_556 S
C432 C433 1.391 . S
C432 C434 1.394 . S
C432 H448 0.931 . S
C433 C432 1.391 . S
C433 C437 1.376 . S
C434 C432 1.394 . S
C434 C435 1.369 . S
C434 C438 1.531 . S
C435 C434 1.369 . S
C435 C436 1.410 . S
C435 C443 1.503 . S
C436 C435 1.410 . S
C436 C437 1.392 . S
C436 C439 1.511 . S
C437 C433 1.376 . S
C437 C436 1.392 . S
C437 H449 0.929 . S
C438 C434 1.531 . S
C438 H450 0.960 . S
C438 H451 0.962 . S
C438 H452 0.960 . S
C439 C436 1.511 . S
C439 H453 0.961 . S
C439 H454 0.961 . S
C439 H455 0.961 . S
C440 C441 1.370 . S
C440 C442 1.363 . S
C440 H456 0.931 . S
C441 C440 1.370 . S
C441 C445 1.408 . S
C442 C440 1.363 . S
C442 C443 1.370 . S
C442 C446 1.524 . S
C443 C435 1.503 . S
C443 C442 1.370 . S
C443 C444 1.403 . S
C444 C443 1.403 . S
C444 C445 1.404 . S
C444 C447 1.539 . S
C445 C441 1.408 . S
C445 C444 1.404 . S
C445 H457 0.930 . S
C446 C442 1.524 . S
C446 H458 0.956 . S
C446 H459 0.961 . S
C446 H460 0.961 . S
C447 C444 1.539 . S
C447 H461 0.958 . S
C447 H462 0.961 . S
C447 H463 0.960 . S
H448 C432 0.931 . S
H449 C437 0.929 . S
H450 C438 0.960 . S
H451 C438 0.962 . S
H452 C438 0.960 . S
H453 C439 0.961 . S
H454 C439 0.961 . S
H455 C439 0.961 . S
H456 C440 0.931 . S
H457 C445 0.930 . S
H458 C446 0.956 . S
H459 C446 0.961 . S
H460 C446 0.961 . S
H461 C447 0.958 . S
H462 C447 0.961 . S
H463 C447 0.960 . S
C464 C465 1.391 . S
C464 C466 1.394 . S
C464 H480 0.931 . S
C465 C464 1.391 . S
C465 C469 1.376 . S
C466 C464 1.394 . S
C466 C467 1.369 . S
C466 C470 1.531 . S
C467 C466 1.369 . S
C467 C468 1.410 . S
C467 C475 1.503 . S
C468 C467 1.410 . S
C468 C469 1.392 . S
C468 C471 1.511 . S
C469 C465 1.376 . S
C469 C468 1.392 . S
C469 H481 0.929 1_556 S
C470 C466 1.531 . S
C470 H482 0.960 . S
C470 H483 0.962 . S
C470 H484 0.960 . S
C471 C468 1.511 . S
C471 H485 0.961 . S
C471 H486 0.961 . S
C471 H487 0.961 . S
C472 C473 1.370 . S
C472 C474 1.363 . S
C472 H488 0.931 . S
C473 C472 1.370 . S
C473 C477 1.408 . S
C474 C472 1.363 . S
C474 C475 1.370 . S
C474 C478 1.524 . S
C475 C467 1.503 . S
C475 C474 1.370 . S
C475 C476 1.403 . S
C476 C475 1.403 . S
C476 C477 1.404 . S
C476 C479 1.539 . S
C477 C473 1.408 . S
C477 C476 1.404 . S
C477 H489 0.930 . S
C478 C474 1.524 . S
C478 H490 0.956 . S
C478 H491 0.961 . S
C478 H492 0.961 . S
C479 C476 1.539 . S
C479 H493 0.958 . S
C479 H494 0.961 . S
C479 H495 0.960 . S
H480 C464 0.931 . S
H481 C469 0.929 1_554 S
H482 C470 0.960 . S
H483 C470 0.962 . S
H484 C470 0.960 . S
H485 C471 0.961 . S
H486 C471 0.961 . S
H487 C471 0.961 . S
H488 C472 0.931 . S
H489 C477 0.930 . S
H490 C478 0.956 . S
H491 C478 0.961 . S
H492 C478 0.961 . S
H493 C479 0.958 . S
H494 C479 0.961 . S
H495 C479 0.960 . S
C496 C497 1.391 . S
C496 C498 1.394 . S
C496 H512 0.931 . S
C497 C496 1.391 . S
C497 C501 1.376 . S
C498 C496 1.394 . S
C498 C499 1.369 . S
C498 C502 1.531 . S
C499 C498 1.369 . S
C499 C500 1.410 . S
C499 C507 1.503 . S
C500 C499 1.410 . S
C500 C501 1.392 . S
C500 C503 1.511 . S
C501 C497 1.376 . S
C501 C500 1.392 . S
C501 H513 0.929 . S
C502 C498 1.531 . S
C502 H514 0.960 . S
C502 H515 0.962 . S
C502 H516 0.960 . S
C503 C500 1.511 . S
C503 H517 0.961 . S
C503 H518 0.961 . S
C503 H519 0.961 . S
C504 C505 1.370 . S
C504 C506 1.363 . S
C504 H520 0.931 . S
C505 C504 1.370 . S
C505 C509 1.408 . S
C506 C504 1.363 . S
C506 C507 1.370 . S
C506 C510 1.524 . S
C507 C499 1.503 . S
C507 C506 1.370 . S
C507 C508 1.403 . S
C508 C507 1.403 . S
C508 C509 1.404 . S
C508 C511 1.539 . S
C509 C505 1.408 . S
C509 C508 1.404 . S
C509 H521 0.930 . S
C510 C506 1.524 . S
C510 H522 0.956 . S
C510 H523 0.961 . S
C510 H524 0.961 . S
C511 C508 1.539 . S
C511 H525 0.958 . S
C511 H526 0.961 . S
C511 H527 0.960 . S
H512 C496 0.931 . S
H513 C501 0.929 . S
H514 C502 0.960 . S
H515 C502 0.962 . S
H516 C502 0.960 . S
H517 C503 0.961 . S
H518 C503 0.961 . S
H519 C503 0.961 . S
H520 C504 0.931 . S
H521 C509 0.930 . S
H522 C510 0.956 . S
H523 C510 0.961 . S
H524 C510 0.961 . S
H525 C511 0.958 . S
H526 C511 0.961 . S
H527 C511 0.960 . S
C528 C529 1.391 . S
C528 C530 1.394 . S
C528 H544 0.931 . S
C529 C528 1.391 . S
C529 C533 1.376 . S
C530 C528 1.394 . S
C530 C531 1.369 . S
C530 C534 1.531 . S
C531 C530 1.369 . S
C531 C532 1.410 . S
C531 C539 1.503 . S
C532 C531 1.410 . S
C532 C533 1.392 . S
C532 C535 1.511 . S
C533 C529 1.376 . S
C533 C532 1.392 . S
C533 H545 0.929 1_556 S
C534 C530 1.531 . S
C534 H546 0.960 . S
C534 H547 0.962 . S
C534 H548 0.960 . S
C535 C532 1.511 . S
C535 H549 0.961 . S
C535 H550 0.961 . S
C535 H551 0.961 . S
C536 C537 1.370 . S
C536 C538 1.363 . S
C536 H552 0.931 . S
C537 C536 1.370 . S
C537 C541 1.408 . S
C538 C536 1.363 . S
C538 C539 1.370 . S
C538 C542 1.524 . S
C539 C531 1.503 . S
C539 C538 1.370 . S
C539 C540 1.403 . S
C540 C539 1.403 . S
C540 C541 1.404 . S
C540 C543 1.539 . S
C541 C537 1.408 . S
C541 C540 1.404 . S
C541 H553 0.930 . S
C542 C538 1.524 . S
C542 H554 0.956 . S
C542 H555 0.961 . S
C542 H556 0.961 . S
C543 C540 1.539 . S
C543 H557 0.958 . S
C543 H558 0.961 . S
C543 H559 0.960 . S
H544 C528 0.931 . S
H545 C533 0.929 1_554 S
H546 C534 0.960 . S
H547 C534 0.962 . S
H548 C534 0.960 . S
H549 C535 0.961 . S
H550 C535 0.961 . S
H551 C535 0.961 . S
H552 C536 0.931 . S
H553 C541 0.930 . S
H554 C542 0.956 . S
H555 C542 0.961 . S
H556 C542 0.961 . S
H557 C543 0.958 . S
H558 C543 0.961 . S
H559 C543 0.960 . S
C560 C561 1.391 . S
C560 C562 1.394 . S
C560 H576 0.931 . S
C561 C560 1.391 . S
C561 C565 1.376 . S
C562 C560 1.394 . S
C562 C563 1.369 . S
C562 C566 1.531 . S
C563 C562 1.369 . S
C563 C564 1.410 . S
C563 C571 1.503 . S
C564 C563 1.410 . S
C564 C565 1.392 . S
C564 C567 1.511 . S
C565 C561 1.376 . S
C565 C564 1.392 . S
C565 H577 0.929 . S
C566 C562 1.531 . S
C566 H578 0.960 . S
C566 H579 0.962 . S
C566 H580 0.960 . S
C567 C564 1.511 . S
C567 H581 0.961 . S
C567 H582 0.961 . S
C567 H583 0.961 . S
C568 C569 1.370 . S
C568 C570 1.363 . S
C568 H584 0.931 . S
C569 C568 1.370 . S
C569 C573 1.408 . S
C570 C568 1.363 . S
C570 C571 1.370 . S
C570 C574 1.524 . S
C571 C563 1.503 . S
C571 C570 1.370 . S
C571 C572 1.403 . S
C572 C571 1.403 . S
C572 C573 1.404 . S
C572 C575 1.539 . S
C573 C569 1.408 . S
C573 C572 1.404 . S
C573 H585 0.930 . S
C574 C570 1.524 . S
C574 H586 0.956 . S
C574 H587 0.961 . S
C574 H588 0.961 . S
C575 C572 1.539 . S
C575 H589 0.958 . S
C575 H590 0.961 . S
C575 H591 0.960 . S
H576 C560 0.931 . S
H577 C565 0.929 . S
H578 C566 0.960 . S
H579 C566 0.962 . S
H580 C566 0.960 . S
H581 C567 0.961 . S
H582 C567 0.961 . S
H583 C567 0.961 . S
H584 C568 0.931 . S
H585 C573 0.930 . S
H586 C574 0.956 . S
H587 C574 0.961 . S
H588 C574 0.961 . S
H589 C575 0.958 . S
H590 C575 0.961 . S
H591 C575 0.960 . S
C592 C593 1.391 . S
C592 C594 1.394 . S
C592 H608 0.931 . S
C593 C592 1.391 . S
C593 C597 1.376 . S
C594 C592 1.394 . S
C594 C595 1.369 . S
C594 C598 1.531 . S
C595 C594 1.369 . S
C595 C596 1.410 . S
C595 C603 1.503 . S
C596 C595 1.410 . S
C596 C597 1.392 . S
C596 C599 1.511 . S
C597 C593 1.376 . S
C597 C596 1.392 . S
C597 H609 0.929 . S
C598 C594 1.531 . S
C598 H610 0.960 . S
C598 H611 0.962 . S
C598 H612 0.960 . S
C599 C596 1.511 . S
C599 H613 0.961 . S
C599 H614 0.961 . S
C599 H615 0.961 . S
C600 C601 1.370 . S
C600 C602 1.363 . S
C600 H616 0.931 . S
C601 C600 1.370 . S
C601 C605 1.408 . S
C602 C600 1.363 . S
C602 C603 1.370 . S
C602 C606 1.524 . S
C603 C595 1.503 . S
C603 C602 1.370 . S
C603 C604 1.403 . S
C604 C603 1.403 . S
C604 C605 1.404 . S
C604 C607 1.539 . S
C605 C601 1.408 . S
C605 C604 1.404 . S
C605 H617 0.941 . S
C606 C602 1.524 . S
C606 H618 0.956 . S
C606 H619 0.961 . S
C606 H620 0.961 . S
C607 C604 1.539 . S
C607 H621 0.958 . S
C607 H622 0.961 . S
C607 H623 0.960 . S
H608 C592 0.931 . S
H609 C597 0.929 . S
H610 C598 0.960 . S
H611 C598 0.962 . S
H612 C598 0.960 . S
H613 C599 0.961 . S
H614 C599 0.961 . S
H615 C599 0.961 . S
H616 C600 0.931 . S
H617 C605 0.941 . S
H618 C606 0.956 . S
H619 C606 0.961 . S
H620 C606 0.961 . S
H621 C607 0.958 . S
H622 C607 0.961 . S
H623 C607 0.960 . S
C624 C625 1.391 . S
C624 C626 1.394 . S
C624 H640 0.931 . S
C625 C624 1.391 . S
C625 C629 1.376 . S
C626 C624 1.394 . S
C626 C627 1.369 . S
C626 C630 1.531 . S
C627 C626 1.369 . S
C627 C628 1.410 . S
C627 C635 1.503 . S
C628 C627 1.410 . S
C628 C629 1.392 . S
C628 C631 1.511 . S
C629 C625 1.376 . S
C629 C628 1.392 . S
C629 H641 0.929 . S
C630 C626 1.531 . S
C630 H642 0.960 . S
C630 H643 0.962 . S
C630 H644 0.960 . S
C631 C628 1.511 . S
C631 H645 0.961 . S
C631 H646 0.961 . S
C631 H647 0.961 . S
C632 C633 1.370 . S
C632 C634 1.363 . S
C632 H648 0.931 . S
C633 C632 1.370 . S
C633 C637 1.408 . S
C634 C632 1.363 . S
C634 C635 1.370 . S
C634 C638 1.524 . S
C635 C627 1.503 . S
C635 C634 1.370 . S
C635 C636 1.403 . S
C636 C635 1.403 . S
C636 C637 1.404 . S
C636 C639 1.539 . S
C637 C633 1.408 . S
C637 C636 1.404 . S
C637 H649 0.930 . S
C638 C634 1.524 . S
C638 H650 0.956 . S
C638 H651 0.961 . S
C638 H652 0.961 . S
C639 C636 1.539 . S
C639 H653 0.958 . S
C639 H654 0.961 . S
C639 H655 0.960 . S
H640 C624 0.931 . S
H641 C629 0.929 . S
H642 C630 0.960 . S
H643 C630 0.962 . S
H644 C630 0.960 . S
H645 C631 0.961 . S
H646 C631 0.961 . S
H647 C631 0.961 . S
H648 C632 0.931 . S
H649 C637 0.930 . S
H650 C638 0.956 . S
H651 C638 0.961 . S
H652 C638 0.961 . S
H653 C639 0.958 . S
H654 C639 0.961 . S
H655 C639 0.960 . S
C656 C657 1.391 . S
C656 C658 1.394 . S
C656 H672 0.931 . S
C657 C656 1.391 . S
C657 C661 1.376 . S
C658 C656 1.394 . S
C658 C659 1.369 . S
C658 C662 1.531 . S
C659 C658 1.369 . S
C659 C660 1.410 . S
C659 C667 1.503 . S
C660 C659 1.410 . S
C660 C661 1.392 . S
C660 C663 1.511 . S
C661 C657 1.376 . S
C661 C660 1.392 . S
C661 H673 0.929 . S
C662 C658 1.531 . S
C662 H674 0.960 . S
C662 H675 0.962 . S
C662 H676 0.960 . S
C663 C660 1.511 . S
C663 H677 0.961 . S
C663 H678 0.961 . S
C663 H679 0.961 . S
C664 C665 1.370 . S
C664 C666 1.363 . S
C664 H680 0.931 1_554 S
C665 C664 1.370 . S
C665 C669 1.408 . S
C666 C664 1.363 . S
C666 C667 1.370 . S
C666 C670 1.524 . S
C667 C659 1.503 . S
C667 C666 1.370 . S
C667 C668 1.403 . S
C668 C667 1.403 . S
C668 C669 1.404 . S
C668 C671 1.539 . S
C669 C665 1.408 . S
C669 C668 1.404 . S
C669 H681 0.930 . S
C670 C666 1.524 . S
C670 H682 0.956 . S
C670 H683 0.961 . S
C670 H684 0.961 . S
C671 C668 1.539 . S
C671 H685 0.958 . S
C671 H686 0.961 . S
C671 H687 0.960 . S
H672 C656 0.931 . S
H673 C661 0.929 . S
H674 C662 0.960 . S
H675 C662 0.962 . S
H676 C662 0.960 . S
H677 C663 0.961 . S
H678 C663 0.961 . S
H679 C663 0.961 . S
H680 C664 0.931 1_556 S
H681 C669 0.930 . S
H682 C670 0.956 . S
H683 C670 0.961 . S
H684 C670 0.961 . S
H685 C671 0.958 . S
H686 C671 0.961 . S
H687 C671 0.960 . S
C688 C689 1.391 . S
C688 C690 1.394 . S
C688 H704 0.931 . S
C689 C688 1.391 . S
C689 C693 1.376 . S
C690 C688 1.394 . S
C690 C691 1.369 . S
C690 C694 1.531 . S
C691 C690 1.369 . S
C691 C692 1.410 . S
C691 C699 1.503 . S
C692 C691 1.410 . S
C692 C693 1.392 . S
C692 C695 1.511 . S
C693 C689 1.376 . S
C693 C692 1.392 . S
C693 H705 0.929 . S
C694 C690 1.531 . S
C694 H706 0.960 . S
C694 H707 0.962 . S
C694 H708 0.960 . S
C695 C692 1.511 . S
C695 H709 0.961 . S
C695 H710 0.961 . S
C695 H711 0.961 . S
C696 C697 1.370 . S
C696 C698 1.363 . S
C696 H712 0.931 . S
C697 C696 1.370 . S
C697 C701 1.408 . S
C698 C696 1.363 . S
C698 C699 1.370 . S
C698 C702 1.524 . S
C699 C691 1.503 . S
C699 C698 1.370 . S
C699 C700 1.403 . S
C700 C699 1.403 . S
C700 C701 1.404 . S
C700 C703 1.539 . S
C701 C697 1.408 . S
C701 C700 1.404 . S
C701 H713 0.930 . S
C702 C698 1.524 . S
C702 H714 0.956 . S
C702 H715 0.961 . S
C702 H716 0.961 . S
C703 C700 1.539 . S
C703 H717 0.958 . S
C703 H718 0.961 . S
C703 H719 0.960 . S
H704 C688 0.931 . S
H705 C693 0.929 . S
H706 C694 0.960 . S
H707 C694 0.962 . S
H708 C694 0.960 . S
H709 C695 0.961 . S
H710 C695 0.961 . S
H711 C695 0.961 . S
H712 C696 0.931 . S
H713 C701 0.930 . S
H714 C702 0.956 . S
H715 C702 0.961 . S
H716 C702 0.961 . S
H717 C703 0.958 . S
H718 C703 0.961 . S
H719 C703 0.960 . S
C720 C721 1.391 . S
C720 C722 1.394 . S
C720 H736 0.931 . S
C721 C720 1.391 . S
C721 C725 1.376 . S
C722 C720 1.394 . S
C722 C723 1.369 . S
C722 C726 1.531 . S
C723 C722 1.369 . S
C723 C724 1.410 . S
C723 C731 1.503 . S
C724 C723 1.410 . S
C724 C725 1.392 . S
C724 C727 1.511 . S
C725 C721 1.376 . S
C725 C724 1.392 . S
C725 H737 0.929 . S
C726 C722 1.531 . S
C726 H738 0.960 . S
C726 H739 0.962 . S
C726 H740 0.960 . S
C727 C724 1.511 . S
C727 H741 0.961 . S
C727 H742 0.961 . S
C727 H743 0.961 . S
C728 C729 1.370 . S
C728 C730 1.363 . S
C728 H744 0.931 . S
C729 C728 1.370 . S
C729 C733 1.408 . S
C730 C728 1.363 . S
C730 C731 1.370 . S
C730 C734 1.524 . S
C731 C723 1.503 . S
C731 C730 1.370 . S
C731 C732 1.403 . S
C732 C731 1.403 . S
C732 C733 1.404 . S
C732 C735 1.539 . S
C733 C729 1.408 . S
C733 C732 1.404 . S
C733 H745 0.930 . S
C734 C730 1.524 . S
C734 H746 0.956 . S
C734 H747 0.961 . S
C734 H748 0.961 . S
C735 C732 1.539 . S
C735 H749 0.958 . S
C735 H750 0.961 . S
C735 H751 0.960 . S
H736 C720 0.931 . S
H737 C725 0.929 . S
H738 C726 0.960 . S
H739 C726 0.962 . S
H740 C726 0.960 . S
H741 C727 0.961 . S
H742 C727 0.961 . S
H743 C727 0.961 . S
H744 C728 0.931 . S
H745 C733 0.930 . S
H746 C734 0.956 . S
H747 C734 0.961 . S
H748 C734 0.961 . S
H749 C735 0.958 . S
H750 C735 0.961 . S
H751 C735 0.960 . S
C752 C753 1.391 . S
C752 C754 1.394 . S
C752 H768 0.931 . S
C753 C752 1.391 . S
C753 C757 1.376 . S
C754 C752 1.394 . S
C754 C755 1.369 . S
C754 C758 1.531 . S
C755 C754 1.369 . S
C755 C756 1.410 . S
C755 C763 1.503 . S
C756 C755 1.410 . S
C756 C757 1.392 . S
C756 C759 1.511 . S
C757 C753 1.376 . S
C757 C756 1.392 . S
C757 H769 0.929 . S
C758 C754 1.531 . S
C758 H770 0.960 . S
C758 H771 0.962 . S
C758 H772 0.960 . S
C759 C756 1.511 . S
C759 H773 0.961 . S
C759 H774 0.961 . S
C759 H775 0.961 . S
C760 C761 1.370 . S
C760 C762 1.363 . S
C760 H776 0.931 . S
C761 C760 1.370 . S
C761 C765 1.408 . S
C762 C760 1.363 . S
C762 C763 1.370 . S
C762 C766 1.524 . S
C763 C755 1.503 . S
C763 C762 1.370 . S
C763 C764 1.403 . S
C764 C763 1.403 . S
C764 C765 1.404 . S
C764 C767 1.539 . S
C765 C761 1.408 . S
C765 C764 1.404 . S
C765 H777 0.930 . S
C766 C762 1.524 . S
C766 H778 0.956 . S
C766 H779 0.961 . S
C766 H780 0.961 . S
C767 C764 1.539 . S
C767 H781 0.958 . S
C767 H782 0.961 . S
C767 H783 0.960 . S
H768 C752 0.931 . S
H769 C757 0.929 . S
H770 C758 0.960 . S
H771 C758 0.962 . S
H772 C758 0.960 . S
H773 C759 0.961 . S
H774 C759 0.961 . S
H775 C759 0.961 . S
H776 C760 0.931 . S
H777 C765 0.930 . S
H778 C766 0.956 . S
H779 C766 0.961 . S
H780 C766 0.961 . S
H781 C767 0.958 . S
H782 C767 0.961 . S
H783 C767 0.960 . S
C784 C785 1.391 . S
C784 C786 1.394 . S
C784 H800 0.931 . S
C785 C784 1.391 . S
C785 C789 1.376 . S
C786 C784 1.394 . S
C786 C787 1.369 . S
C786 C790 1.531 . S
C787 C786 1.369 . S
C787 C788 1.410 . S
C787 C795 1.503 . S
C788 C787 1.410 . S
C788 C789 1.392 . S
C788 C791 1.511 . S
C789 C785 1.376 . S
C789 C788 1.392 . S
C789 H801 0.929 . S
C790 C786 1.531 . S
C790 H802 0.960 . S
C790 H803 0.962 . S
C790 H804 0.960 . S
C791 C788 1.511 . S
C791 H805 0.961 . S
C791 H806 0.961 . S
C791 H807 0.961 . S
C792 C793 1.370 . S
C792 C794 1.363 . S
C792 H808 0.931 . S
C793 C792 1.370 . S
C793 C797 1.408 . S
C794 C792 1.363 . S
C794 C795 1.370 . S
C794 C798 1.524 . S
C795 C787 1.503 . S
C795 C794 1.370 . S
C795 C796 1.403 . S
C796 C795 1.403 . S
C796 C797 1.404 . S
C796 C799 1.539 . S
C797 C793 1.408 . S
C797 C796 1.404 . S
C797 H809 0.930 1_554 S
C798 C794 1.524 . S
C798 H810 0.956 . S
C798 H811 0.961 . S
C798 H812 0.961 . S
C799 C796 1.539 . S
C799 H813 0.958 . S
C799 H814 0.961 . S
C799 H815 0.960 . S
H800 C784 0.931 . S
H801 C789 0.929 . S
H802 C790 0.960 . S
H803 C790 0.962 . S
H804 C790 0.960 . S
H805 C791 0.961 . S
H806 C791 0.961 . S
H807 C791 0.961 . S
H808 C792 0.931 . S
H809 C797 0.930 1_556 S
H810 C798 0.956 . S
H811 C798 0.961 . S
H812 C798 0.961 . S
H813 C799 0.958 . S
H814 C799 0.961 . S
H815 C799 0.960 . S
C816 C817 1.391 . S
C816 C818 1.394 . S
C816 H832 0.931 . S
C817 C816 1.391 . S
C817 C821 1.376 . S
C818 C816 1.394 . S
C818 C819 1.369 . S
C818 C822 1.531 . S
C819 C818 1.369 . S
C819 C820 1.410 . S
C819 C827 1.503 . S
C820 C819 1.410 . S
C820 C821 1.392 . S
C820 C823 1.511 . S
C821 C817 1.376 . S
C821 C820 1.392 . S
C821 H833 0.929 . S
C822 C818 1.531 . S
C822 H834 0.960 . S
C822 H835 0.962 . S
C822 H836 0.960 . S
C823 C820 1.511 . S
C823 H837 0.961 . S
C823 H838 0.961 . S
C823 H839 0.961 . S
C824 C825 1.370 . S
C824 C826 1.363 . S
C824 H840 0.931 . S
C825 C824 1.370 . S
C825 C829 1.408 . S
C826 C824 1.363 . S
C826 C827 1.370 . S
C826 C830 1.524 . S
C827 C819 1.503 . S
C827 C826 1.370 . S
C827 C828 1.403 . S
C828 C827 1.403 . S
C828 C829 1.404 . S
C828 C831 1.539 . S
C829 C825 1.408 . S
C829 C828 1.404 . S
C829 H841 0.930 . S
C830 C826 1.524 . S
C830 H842 0.956 . S
C830 H843 0.961 . S
C830 H844 0.961 . S
C831 C828 1.539 . S
C831 H845 0.958 . S
C831 H846 0.961 . S
C831 H847 0.960 . S
H832 C816 0.931 . S
H833 C821 0.929 . S
H834 C822 0.960 . S
H835 C822 0.962 . S
H836 C822 0.960 . S
H837 C823 0.961 . S
H838 C823 0.961 . S
H839 C823 0.961 . S
H840 C824 0.931 . S
H841 C829 0.930 . S
H842 C830 0.956 . S
H843 C830 0.961 . S
H844 C830 0.961 . S
H845 C831 0.958 . S
H846 C831 0.961 . S
H847 C831 0.960 . S
C848 C849 1.391 . S
C848 C850 1.394 . S
C848 H864 0.931 . S
C849 C848 1.391 . S
C849 C853 1.376 . S
C850 C848 1.394 . S
C850 C851 1.369 . S
C850 C854 1.531 . S
C851 C850 1.369 . S
C851 C852 1.410 . S
C851 C859 1.503 . S
C852 C851 1.410 . S
C852 C853 1.392 . S
C852 C855 1.511 . S
C853 C849 1.376 . S
C853 C852 1.392 . S
C853 H865 0.929 . S
C854 C850 1.531 . S
C854 H866 0.960 . S
C854 H867 0.962 . S
C854 H868 0.960 . S
C855 C852 1.511 . S
C855 H869 0.961 . S
C855 H870 0.961 . S
C855 H871 0.961 . S
C856 C857 1.370 . S
C856 C858 1.363 . S
C856 H872 0.931 . S
C857 C856 1.370 . S
C857 C861 1.408 . S
C858 C856 1.363 . S
C858 C859 1.370 . S
C858 C862 1.524 . S
C859 C851 1.503 . S
C859 C858 1.370 . S
C859 C860 1.403 . S
C860 C859 1.403 . S
C860 C861 1.404 . S
C860 C863 1.539 . S
C861 C857 1.408 . S
C861 C860 1.404 . S
C861 H873 0.930 . S
C862 C858 1.524 . S
C862 H874 0.956 . S
C862 H875 0.961 . S
C862 H876 0.961 . S
C863 C860 1.539 . S
C863 H877 0.958 . S
C863 H878 0.961 . S
C863 H879 0.960 . S
H864 C848 0.931 . S
H865 C853 0.929 . S
H866 C854 0.960 . S
H867 C854 0.962 . S
H868 C854 0.960 . S
H869 C855 0.961 . S
H870 C855 0.961 . S
H871 C855 0.961 . S
H872 C856 0.931 . S
H873 C861 0.930 . S
H874 C862 0.956 . S
H875 C862 0.961 . S
H876 C862 0.961 . S
H877 C863 0.958 . S
H878 C863 0.961 . S
H879 C863 0.960 . S
C880 C881 1.391 . S
C880 C882 1.394 . S
C880 H896 0.931 . S
C881 C880 1.391 . S
C881 C885 1.376 . S
C882 C880 1.394 . S
C882 C883 1.369 . S
C882 C886 1.531 . S
C883 C882 1.369 . S
C883 C884 1.410 . S
C883 C891 1.503 . S
C884 C883 1.410 . S
C884 C885 1.392 . S
C884 C887 1.511 . S
C885 C881 1.376 . S
C885 C884 1.392 . S
C885 H897 0.929 . S
C886 C882 1.531 . S
C886 H898 0.960 . S
C886 H899 0.962 . S
C886 H900 0.960 . S
C887 C884 1.511 . S
C887 H901 0.961 . S
C887 H902 0.961 . S
C887 H903 0.961 . S
C888 C889 1.370 . S
C888 C890 1.363 . S
C888 H904 0.931 . S
C889 C888 1.370 . S
C889 C893 1.408 . S
C890 C888 1.363 . S
C890 C891 1.370 . S
C890 C894 1.524 . S
C891 C883 1.503 . S
C891 C890 1.370 . S
C891 C892 1.403 . S
C892 C891 1.403 . S
C892 C893 1.404 . S
C892 C895 1.539 . S
C893 C889 1.408 . S
C893 C892 1.404 . S
C893 H905 0.930 . S
C894 C890 1.524 . S
C894 H906 0.956 . S
C894 H907 0.961 . S
C894 H908 0.961 . S
C895 C892 1.539 . S
C895 H909 0.958 . S
C895 H910 0.961 . S
C895 H911 0.960 . S
H896 C880 0.931 . S
H897 C885 0.929 . S
H898 C886 0.960 . S
H899 C886 0.962 . S
H900 C886 0.960 . S
H901 C887 0.961 . S
H902 C887 0.961 . S
H903 C887 0.961 . S
H904 C888 0.931 . S
H905 C893 0.930 . S
H906 C894 0.956 . S
H907 C894 0.961 . S
H908 C894 0.961 . S
H909 C895 0.958 . S
H910 C895 0.961 . S
H911 C895 0.960 . S
C912 C913 1.391 . S
C912 C914 1.394 . S
C912 H928 0.931 . S
C913 C912 1.391 . S
C913 C917 1.376 . S
C914 C912 1.394 . S
C914 C915 1.369 . S
C914 C918 1.531 . S
C915 C914 1.369 . S
C915 C916 1.410 . S
C915 C923 1.503 . S
C916 C915 1.410 . S
C916 C917 1.392 . S
C916 C919 1.511 . S
C917 C913 1.376 . S
C917 C916 1.392 . S
C917 H929 0.929 . S
C918 C914 1.531 . S
C918 H930 0.960 . S
C918 H931 0.962 . S
C918 H932 0.960 . S
C919 C916 1.511 . S
C919 H933 0.961 . S
C919 H934 0.961 . S
C919 H935 0.961 . S
C920 C921 1.370 . S
C920 C922 1.363 . S
C920 H936 0.931 . S
C921 C920 1.370 . S
C921 C925 1.408 . S
C922 C920 1.363 . S
C922 C923 1.370 . S
C922 C926 1.524 . S
C923 C915 1.503 . S
C923 C922 1.370 . S
C923 C924 1.403 . S
C924 C923 1.403 . S
C924 C925 1.404 . S
C924 C927 1.539 . S
C925 C921 1.408 . S
C925 C924 1.404 . S
C925 H937 0.930 . S
C926 C922 1.524 . S
C926 H938 0.956 . S
C926 H939 0.961 . S
C926 H940 0.961 . S
C927 C924 1.539 . S
C927 H941 0.958 . S
C927 H942 0.961 . S
C927 H943 0.960 . S
H928 C912 0.931 . S
H929 C917 0.929 . S
H930 C918 0.960 . S
H931 C918 0.962 . S
H932 C918 0.960 . S
H933 C919 0.961 . S
H934 C919 0.961 . S
H935 C919 0.961 . S
H936 C920 0.931 . S
H937 C925 0.930 . S
H938 C926 0.956 . S
H939 C926 0.961 . S
H940 C926 0.961 . S
H941 C927 0.958 . S
H942 C927 0.961 . S
H943 C927 0.960 . S
C944 C945 1.391 . S
C944 C946 1.394 . S
C944 H960 0.931 . S
C945 C944 1.391 . S
C945 C949 1.376 . S
C946 C944 1.394 . S
C946 C947 1.369 . S
C946 C950 1.531 . S
C947 C946 1.369 . S
C947 C948 1.410 . S
C947 C955 1.503 . S
C948 C947 1.410 . S
C948 C949 1.392 . S
C948 C951 1.511 . S
C949 C945 1.376 . S
C949 C948 1.392 . S
C949 H961 0.929 . S
C950 C946 1.531 . S
C950 H962 0.960 . S
C950 H963 0.962 . S
C950 H964 0.960 . S
C951 C948 1.511 . S
C951 H965 0.961 . S
C951 H966 0.961 . S
C951 H967 0.961 . S
C952 C953 1.370 . S
C952 C954 1.363 . S
C952 H968 0.931 . S
C953 C952 1.370 . S
C953 C957 1.408 . S
C954 C952 1.363 . S
C954 C955 1.370 . S
C954 C958 1.524 . S
C955 C947 1.503 . S
C955 C954 1.370 . S
C955 C956 1.403 . S
C956 C955 1.403 . S
C956 C957 1.404 . S
C956 C959 1.539 . S
C957 C953 1.408 . S
C957 C956 1.404 . S
C957 H969 0.930 . S
C958 C954 1.524 . S
C958 H970 0.956 . S
C958 H971 0.961 . S
C958 H972 0.961 . S
C959 C956 1.539 . S
C959 H973 0.958 . S
C959 H974 0.961 . S
C959 H975 0.960 . S
H960 C944 0.931 . S
H961 C949 0.929 . S
H962 C950 0.960 . S
H963 C950 0.962 . S
H964 C950 0.960 . S
H965 C951 0.961 . S
H966 C951 0.961 . S
H967 C951 0.961 . S
H968 C952 0.931 . S
H969 C957 0.930 . S
H970 C958 0.956 . S
H971 C958 0.961 . S
H972 C958 0.961 . S
H973 C959 0.958 . S
H974 C959 0.961 . S
H975 C959 0.960 . S
C976 C977 1.391 . S
C976 C978 1.394 . S
C976 H992 0.931 . S
C977 C976 1.391 . S
C977 C981 1.376 . S
C978 C976 1.394 . S
C978 C979 1.369 . S
C978 C982 1.531 . S
C979 C978 1.369 . S
C979 C980 1.410 . S
C979 C987 1.503 . S
C980 C979 1.410 . S
C980 C981 1.392 . S
C980 C983 1.511 . S
C981 C977 1.376 . S
C981 C980 1.392 . S
C981 H993 0.929 . S
C982 C978 1.531 . S
C982 H994 0.960 . S
C982 H995 0.962 . S
C982 H996 0.960 . S
C983 C980 1.511 . S
C983 H997 0.961 . S
C983 H998 0.961 . S
C983 H999 0.961 . S
C984 C985 1.370 . S
C984 C986 1.363 . S
C984 H1000 0.931 . S
C985 C984 1.370 . S
C985 C989 1.408 . S
C986 C984 1.363 . S
C986 C987 1.370 . S
C986 C990 1.524 . S
C987 C979 1.503 . S
C987 C986 1.370 . S
C987 C988 1.403 . S
C988 C987 1.403 . S
C988 C989 1.404 . S
C988 C991 1.539 . S
C989 C985 1.408 . S
C989 C988 1.404 . S
C989 H1001 0.930 . S
C990 C986 1.524 . S
C990 H1002 0.956 . S
C990 H1003 0.961 . S
C990 H1004 0.961 . S
C991 C988 1.539 . S
C991 H1005 0.958 . S
C991 H1006 0.961 . S
C991 H1007 0.960 . S
H992 C976 0.931 . S
H993 C981 0.929 . S
H994 C982 0.960 . S
H995 C982 0.962 . S
H996 C982 0.960 . S
H997 C983 0.961 . S
H998 C983 0.961 . S
H999 C983 0.961 . S
H1000 C984 0.931 . S
H1001 C989 0.930 . S
H1002 C990 0.956 . S
H1003 C990 0.961 . S
H1004 C990 0.961 . S
H1005 C991 0.958 . S
H1006 C991 0.961 . S
H1007 C991 0.960 . S
C1008 C1009 1.391 . S
C1008 C1010 1.394 . S
C1008 H1024 0.931 . S
C1009 C1008 1.391 . S
C1009 C1013 1.376 . S
C1010 C1008 1.394 . S
C1010 C1011 1.369 . S
C1010 C1014 1.531 . S
C1011 C1010 1.369 . S
C1011 C1012 1.410 . S
C1011 C1019 1.503 . S
C1012 C1011 1.410 . S
C1012 C1013 1.392 . S
C1012 C1015 1.511 . S
C1013 C1009 1.376 . S
C1013 C1012 1.392 . S
C1013 H1025 0.929 . S
C1014 C1010 1.531 . S
C1014 H1026 0.960 . S
C1014 H1027 0.962 . S
C1014 H1028 0.960 . S
C1015 C1012 1.511 . S
C1015 H1029 0.961 . S
C1015 H1030 0.961 . S
C1015 H1031 0.961 . S
C1016 C1017 1.370 . S
C1016 C1018 1.363 . S
C1016 H1032 0.931 . S
C1017 C1016 1.370 . S
C1017 C1021 1.408 . S
C1018 C1016 1.363 . S
C1018 C1019 1.370 . S
C1018 C1022 1.524 . S
C1019 C1011 1.503 . S
C1019 C1018 1.370 . S
C1019 C1020 1.403 . S
C1020 C1019 1.403 . S
C1020 C1021 1.404 . S
C1020 C1023 1.539 . S
C1021 C1017 1.408 . S
C1021 C1020 1.404 . S
C1021 H1033 0.930 . S
C1022 C1018 1.524 . S
C1022 H1034 0.956 . S
C1022 H1035 0.961 . S
C1022 H1036 0.961 . S
C1023 C1020 1.539 . S
C1023 H1037 0.958 . S
C1023 H1038 0.961 . S
C1023 H1039 0.960 . S
H1024 C1008 0.931 . S
H1025 C1013 0.929 . S
H1026 C1014 0.960 . S
H1027 C1014 0.962 . S
H1028 C1014 0.960 . S
H1029 C1015 0.961 . S
H1030 C1015 0.961 . S
H1031 C1015 0.961 . S
H1032 C1016 0.931 . S
H1033 C1021 0.930 . S
H1034 C1022 0.956 . S
H1035 C1022 0.961 . S
H1036 C1022 0.961 . S
H1037 C1023 0.958 . S
H1038 C1023 0.961 . S
H1039 C1023 0.960 . S
C1040 C1041 1.391 . S
C1040 C1042 1.394 . S
C1040 H1056 0.931 . S
C1041 C1040 1.391 . S
C1041 C1045 1.376 . S
C1042 C1040 1.394 . S
C1042 C1043 1.369 . S
C1042 C1046 1.531 . S
C1043 C1042 1.369 . S
C1043 C1044 1.410 . S
C1043 C1051 1.503 . S
C1044 C1043 1.410 . S
C1044 C1045 1.392 . S
C1044 C1047 1.511 . S
C1045 C1041 1.376 . S
C1045 C1044 1.392 . S
C1045 H1057 0.929 . S
C1046 C1042 1.531 . S
C1046 H1058 0.960 . S
C1046 H1059 0.962 . S
C1046 H1060 0.960 . S
C1047 C1044 1.511 . S
C1047 H1061 0.961 . S
C1047 H1062 0.961 . S
C1047 H1063 0.961 . S
C1048 C1049 1.370 . S
C1048 C1050 1.363 . S
C1048 H1064 0.931 . S
C1049 C1048 1.370 . S
C1049 C1053 1.408 . S
C1050 C1048 1.363 . S
C1050 C1051 1.370 . S
C1050 C1054 1.524 . S
C1051 C1043 1.503 . S
C1051 C1050 1.370 . S
C1051 C1052 1.403 . S
C1052 C1051 1.403 . S
C1052 C1053 1.404 . S
C1052 C1055 1.539 . S
C1053 C1049 1.408 . S
C1053 C1052 1.404 . S
C1053 H1065 0.930 . S
C1054 C1050 1.524 . S
C1054 H1066 0.956 . S
C1054 H1067 0.961 . S
C1054 H1068 0.961 . S
C1055 C1052 1.539 . S
C1055 H1069 0.958 . S
C1055 H1070 0.961 . S
C1055 H1071 0.960 . S
H1056 C1040 0.931 . S
H1057 C1045 0.929 . S
H1058 C1046 0.960 . S
H1059 C1046 0.962 . S
H1060 C1046 0.960 . S
H1061 C1047 0.961 . S
H1062 C1047 0.961 . S
H1063 C1047 0.961 . S
H1064 C1048 0.931 . S
H1065 C1053 0.930 . S
H1066 C1054 0.956 . S
H1067 C1054 0.961 . S
H1068 C1054 0.961 . S
H1069 C1055 0.958 . S
H1070 C1055 0.961 . S
H1071 C1055 0.960 . S
C1072 C1073 1.391 . S
C1072 C1074 1.394 . S
C1072 H1088 0.931 . S
C1073 C1072 1.391 . S
C1073 C1077 1.376 . S
C1074 C1072 1.394 . S
C1074 C1075 1.369 . S
C1074 C1078 1.531 . S
C1075 C1074 1.369 . S
C1075 C1076 1.410 . S
C1075 C1083 1.503 . S
C1076 C1075 1.410 . S
C1076 C1077 1.392 . S
C1076 C1079 1.511 . S
C1077 C1073 1.376 . S
C1077 C1076 1.392 . S
C1077 H1089 0.929 . S
C1078 C1074 1.531 . S
C1078 H1090 0.960 . S
C1078 H1091 0.962 . S
C1078 H1092 0.960 . S
C1079 C1076 1.511 . S
C1079 H1093 0.961 . S
C1079 H1094 0.961 . S
C1079 H1095 0.961 . S
C1080 C1081 1.370 . S
C1080 C1082 1.363 . S
C1080 H1096 0.931 . S
C1081 C1080 1.370 . S
C1081 C1085 1.408 . S
C1082 C1080 1.363 . S
C1082 C1083 1.370 . S
C1082 C1086 1.524 . S
C1083 C1075 1.503 . S
C1083 C1082 1.370 . S
C1083 C1084 1.403 . S
C1084 C1083 1.403 . S
C1084 C1085 1.404 . S
C1084 C1087 1.539 . S
C1085 C1081 1.408 . S
C1085 C1084 1.404 . S
C1085 H1097 0.930 . S
C1086 C1082 1.524 . S
C1086 H1098 0.956 . S
C1086 H1099 0.961 . S
C1086 H1100 0.961 . S
C1087 C1084 1.539 . S
C1087 H1101 0.958 . S
C1087 H1102 0.961 . S
C1087 H1103 0.960 . S
H1088 C1072 0.931 . S
H1089 C1077 0.929 . S
H1090 C1078 0.960 . S
H1091 C1078 0.962 . S
H1092 C1078 0.960 . S
H1093 C1079 0.961 . S
H1094 C1079 0.961 . S
H1095 C1079 0.961 . S
H1096 C1080 0.931 . S
H1097 C1085 0.930 . S
H1098 C1086 0.956 . S
H1099 C1086 0.961 . S
H1100 C1086 0.961 . S
H1101 C1087 0.958 . S
H1102 C1087 0.961 . S
H1103 C1087 0.960 . S
C1104 C1105 1.391 . S
C1104 C1106 1.394 . S
C1104 H1120 0.931 . S
C1105 C1104 1.391 . S
C1105 C1109 1.376 . S
C1106 C1104 1.394 . S
C1106 C1107 1.369 . S
C1106 C1110 1.531 . S
C1107 C1106 1.369 . S
C1107 C1108 1.410 . S
C1107 C1115 1.503 . S
C1108 C1107 1.410 . S
C1108 C1109 1.392 . S
C1108 C1111 1.511 . S
C1109 C1105 1.376 . S
C1109 C1108 1.392 . S
C1109 H1121 0.929 . S
C1110 C1106 1.531 . S
C1110 H1122 0.960 . S
C1110 H1123 0.962 . S
C1110 H1124 0.960 . S
C1111 C1108 1.511 . S
C1111 H1125 0.961 . S
C1111 H1126 0.961 . S
C1111 H1127 0.961 . S
C1112 C1113 1.370 . S
C1112 C1114 1.363 . S
C1112 H1128 0.931 . S
C1113 C1112 1.370 . S
C1113 C1117 1.408 . S
C1114 C1112 1.363 . S
C1114 C1115 1.370 . S
C1114 C1118 1.524 . S
C1115 C1107 1.503 . S
C1115 C1114 1.370 . S
C1115 C1116 1.403 . S
C1116 C1115 1.403 . S
C1116 C1117 1.404 . S
C1116 C1119 1.539 . S
C1117 C1113 1.408 . S
C1117 C1116 1.404 . S
C1117 H1129 0.930 . S
C1118 C1114 1.524 . S
C1118 H1130 0.956 . S
C1118 H1131 0.961 . S
C1118 H1132 0.961 . S
C1119 C1116 1.539 . S
C1119 H1133 0.958 . S
C1119 H1134 0.961 . S
C1119 H1135 0.960 . S
H1120 C1104 0.931 . S
H1121 C1109 0.929 . S
H1122 C1110 0.960 . S
H1123 C1110 0.962 . S
H1124 C1110 0.960 . S
H1125 C1111 0.961 . S
H1126 C1111 0.961 . S
H1127 C1111 0.961 . S
H1128 C1112 0.931 . S
H1129 C1117 0.930 . S
H1130 C1118 0.956 . S
H1131 C1118 0.961 . S
H1132 C1118 0.961 . S
H1133 C1119 0.958 . S
H1134 C1119 0.961 . S
H1135 C1119 0.960 . S
C1136 C1137 1.391 . S
C1136 C1138 1.394 . S
C1136 H1152 0.931 . S
C1137 C1136 1.391 . S
C1137 C1141 1.376 . S
C1138 C1136 1.394 . S
C1138 C1139 1.369 . S
C1138 C1142 1.531 . S
C1139 C1138 1.369 . S
C1139 C1140 1.410 . S
C1139 C1147 1.503 . S
C1140 C1139 1.410 . S
C1140 C1141 1.392 . S
C1140 C1143 1.511 . S
C1141 C1137 1.376 . S
C1141 C1140 1.392 . S
C1141 H1153 0.929 . S
C1142 C1138 1.531 . S
C1142 H1154 0.960 . S
C1142 H1155 0.962 . S
C1142 H1156 0.960 . S
C1143 C1140 1.511 . S
C1143 H1157 0.961 . S
C1143 H1158 0.961 . S
C1143 H1159 0.961 . S
C1144 C1145 1.370 . S
C1144 C1146 1.363 . S
C1144 H1160 0.931 . S
C1145 C1144 1.370 . S
C1145 C1149 1.408 . S
C1146 C1144 1.363 . S
C1146 C1147 1.370 . S
C1146 C1150 1.524 . S
C1147 C1139 1.503 . S
C1147 C1146 1.370 . S
C1147 C1148 1.403 . S
C1148 C1147 1.403 . S
C1148 C1149 1.404 . S
C1148 C1151 1.539 . S
C1149 C1145 1.408 . S
C1149 C1148 1.404 . S
C1149 H1161 0.930 . S
C1150 C1146 1.524 . S
C1150 H1162 0.956 . S
C1150 H1163 0.961 . S
C1150 H1164 0.961 . S
C1151 C1148 1.539 . S
C1151 H1165 0.958 . S
C1151 H1166 0.961 . S
C1151 H1167 0.960 . S
H1152 C1136 0.931 . S
H1153 C1141 0.929 . S
H1154 C1142 0.960 . S
H1155 C1142 0.962 . S
H1156 C1142 0.960 . S
H1157 C1143 0.961 . S
H1158 C1143 0.961 . S
H1159 C1143 0.961 . S
H1160 C1144 0.931 . S
H1161 C1149 0.930 . S
H1162 C1150 0.956 . S
H1163 C1150 0.961 . S
H1164 C1150 0.961 . S
H1165 C1151 0.958 . S
H1166 C1151 0.961 . S
H1167 C1151 0.960 . S
C1168 C1169 1.391 . S
C1168 C1170 1.394 . S
C1168 H1184 0.931 . S
C1169 C1168 1.391 . S
C1169 C1173 1.376 . S
C1170 C1168 1.394 . S
C1170 C1171 1.369 . S
C1170 C1174 1.531 . S
C1171 C1170 1.369 . S
C1171 C1172 1.410 . S
C1171 C1179 1.503 . S
C1172 C1171 1.410 . S
C1172 C1173 1.392 . S
C1172 C1175 1.511 . S
C1173 C1169 1.376 . S
C1173 C1172 1.392 . S
C1173 H1185 0.929 . S
C1174 C1170 1.531 . S
C1174 H1186 0.960 . S
C1174 H1187 0.962 . S
C1174 H1188 0.960 . S
C1175 C1172 1.511 . S
C1175 H1189 0.961 . S
C1175 H1190 0.961 . S
C1175 H1191 0.961 . S
C1176 C1177 1.370 . S
C1176 C1178 1.363 . S
C1176 H1192 0.931 . S
C1177 C1176 1.370 . S
C1177 C1181 1.408 . S
C1178 C1176 1.363 . S
C1178 C1179 1.370 . S
C1178 C1182 1.524 . S
C1179 C1171 1.503 . S
C1179 C1178 1.370 . S
C1179 C1180 1.403 . S
C1180 C1179 1.403 . S
C1180 C1181 1.404 . S
C1180 C1183 1.539 . S
C1181 C1177 1.408 . S
C1181 C1180 1.404 . S
C1181 H1193 0.930 . S
C1182 C1178 1.524 . S
C1182 H1194 0.956 . S
C1182 H1195 0.961 . S
C1182 H1196 0.961 . S
C1183 C1180 1.539 . S
C1183 H1197 0.958 . S
C1183 H1198 0.961 . S
C1183 H1199 0.960 . S
H1184 C1168 0.931 . S
H1185 C1173 0.929 . S
H1186 C1174 0.960 . S
H1187 C1174 0.962 . S
H1188 C1174 0.960 . S
H1189 C1175 0.961 . S
H1190 C1175 0.961 . S
H1191 C1175 0.961 . S
H1192 C1176 0.931 . S
H1193 C1181 0.930 . S
H1194 C1182 0.956 . S
H1195 C1182 0.961 . S
H1196 C1182 0.961 . S
H1197 C1183 0.958 . S
H1198 C1183 0.961 . S
H1199 C1183 0.960 . S
C1200 C1201 1.391 . S
C1200 C1202 1.394 . S
C1200 H1216 0.931 . S
C1201 C1200 1.391 . S
C1201 C1205 1.376 . S
C1202 C1200 1.394 . S
C1202 C1203 1.369 . S
C1202 C1206 1.531 . S
C1203 C1202 1.369 . S
C1203 C1204 1.410 . S
C1203 C1211 1.503 . S
C1204 C1203 1.410 . S
C1204 C1205 1.392 . S
C1204 C1207 1.511 . S
C1205 C1201 1.376 . S
C1205 C1204 1.392 . S
C1205 H1217 0.929 . S
C1206 C1202 1.531 . S
C1206 H1218 0.960 . S
C1206 H1219 0.962 . S
C1206 H1220 0.960 . S
C1207 C1204 1.511 . S
C1207 H1221 0.961 . S
C1207 H1222 0.961 . S
C1207 H1223 0.961 . S
C1208 C1209 1.370 . S
C1208 C1210 1.363 . S
C1208 H1224 0.931 . S
C1209 C1208 1.370 . S
C1209 C1213 1.408 . S
C1210 C1208 1.363 . S
C1210 C1211 1.370 . S
C1210 C1214 1.524 . S
C1211 C1203 1.503 . S
C1211 C1210 1.370 . S
C1211 C1212 1.403 . S
C1212 C1211 1.403 . S
C1212 C1213 1.404 . S
C1212 C1215 1.539 . S
C1213 C1209 1.408 . S
C1213 C1212 1.404 . S
C1213 H1225 0.930 . S
C1214 C1210 1.524 . S
C1214 H1226 0.956 . S
C1214 H1227 0.961 . S
C1214 H1228 0.961 . S
C1215 C1212 1.539 . S
C1215 H1229 0.958 . S
C1215 H1230 0.961 . S
C1215 H1231 0.960 . S
H1216 C1200 0.931 . S
H1217 C1205 0.929 . S
H1218 C1206 0.960 . S
H1219 C1206 0.962 . S
H1220 C1206 0.960 . S
H1221 C1207 0.961 . S
H1222 C1207 0.961 . S
H1223 C1207 0.961 . S
H1224 C1208 0.931 . S
H1225 C1213 0.930 . S
H1226 C1214 0.956 . S
H1227 C1214 0.961 . S
H1228 C1214 0.961 . S
H1229 C1215 0.958 . S
H1230 C1215 0.961 . S
H1231 C1215 0.960 . S
C209 C4 1.058 . S
C217 C56 1.057 . S
C241 C69 1.081 . S
C249 C23 1.071 . S
C273 C36 1.070 . S
C281 C88 1.072 . S
C305 C49 1.076 . S
C313 C101 1.072 . S
C337 C108 1.081 . S
C345 C160 1.070 . S
C369 C173 1.065 . S
C377 C127 1.070 . S
C401 C140 1.045 . S
C409 C192 1.056 . S
C433 C147 1.044 . S
C441 C205 1.057 . S
C465 C10 1.595 1_556 S
C473 C198 1.597 . S
C497 C161 1.585 . S
C505 C17 1.585 . S
C529 C30 1.596 1_556 S
C537 C174 1.596 . S
C561 C185 1.585 . S
C569 C43 1.588 . S
C593 C120 1.582 . S
C601 C62 1.586 1_554 S
C625 C133 1.591 . S
C633 C75 1.592 . S
C657 C148 1.596 . S
C665 C82 1.592 1_554 S
C689 C109 1.582 . S
C697 C95 1.585 . S
C721 C114 1.583 1_554 S
C729 C94 1.593 . S
C753 C57 1.585 . S
C761 C121 1.586 . S
C785 C70 1.593 . S
C793 C134 1.592 1_554 S
C817 C153 1.596 . S
C825 C81 1.597 . S
C849 C16 1.582 . S
C857 C166 1.585 1_556 S
C881 C179 1.578 . S
C889 C29 1.592 . S
C913 C186 1.589 1_556 S
C921 C42 1.595 . S
C945 C199 1.579 . S
C953 C5 1.592 . S
C977 C96 1.227 . S
C985 C3 1.222 . S
C1009 C18 1.229 . S
C1017 C55 1.223 . S
C1041 C31 1.222 . S
C1049 C68 1.220 . S
C1073 C44 1.235 . S
C1081 C83 1.225 . S
C1105 C200 1.191 . S
C1113 C107 1.206 . S
C1137 C159 1.209 . S
C1145 C122 1.218 . S
C1169 C172 1.205 . S
C1177 C135 1.210 . S
C1201 C187 1.197 . S
C1209 C146 1.212 . S
