# Generated by pormake.
# Topology whz, (6)-cn, num edge types: 1
# Building blocks:
#     Node 0, Type 0, BuildingBlock: IZENUY_clean_sbu_0, # of connection points: 6
#     Node 1, Type 0, BuildingBlock: IZENUY_clean_sbu_0, # of connection points: 6
#     Node 2, Type 0, BuildingBlock: IZENUY_clean_sbu_0, # of connection points: 6
#     Node 3, Type 0, BuildingBlock: IZENUY_clean_sbu_0, # of connection points: 6
#     Node 4, Type 0, BuildingBlock: IZENUY_clean_sbu_0, # of connection points: 6
#     Node 5, Type 0, BuildingBlock: IZENUY_clean_sbu_0, # of connection points: 6
#     Node 6, Type 0, BuildingBlock: IZENUY_clean_sbu_0, # of connection points: 6
#     Node 7, Type 0, BuildingBlock: IZENUY_clean_sbu_0, # of connection points: 6
#     Node 8, Type 0, BuildingBlock: IZENUY_clean_sbu_0, # of connection points: 6
#     Node 9, Type 0, BuildingBlock: IZENUY_clean_sbu_0, # of connection points: 6
#     Node 10, Type 0, BuildingBlock: IZENUY_clean_sbu_0, # of connection points: 6
#     Node 11, Type 0, BuildingBlock: IZENUY_clean_sbu_0, # of connection points: 6
#     Node 12, Type 0, BuildingBlock: IZENUY_clean_sbu_0, # of connection points: 6
#     Node 13, Type 0, BuildingBlock: IZENUY_clean_sbu_0, # of connection points: 6
#     Node 14, Type 0, BuildingBlock: IZENUY_clean_sbu_0, # of connection points: 6
#     Node 15, Type 0, BuildingBlock: IZENUY_clean_sbu_0, # of connection points: 6
#     Edge 16, Type (0, 0), BuildingBlock: KIFKEQ_clean_linker_1, # of connection points: 2
#     Edge 17, Type (0, 0), BuildingBlock: KIFKEQ_clean_linker_1, # of connection points: 2
#     Edge 18, Type (0, 0), BuildingBlock: KIFKEQ_clean_linker_1, # of connection points: 2
#     Edge 19, Type (0, 0), BuildingBlock: KIFKEQ_clean_linker_1, # of connection points: 2
#     Edge 20, Type (0, 0), BuildingBlock: KIFKEQ_clean_linker_1, # of connection points: 2
#     Edge 21, Type (0, 0), BuildingBlock: KIFKEQ_clean_linker_1, # of connection points: 2
#     Edge 22, Type (0, 0), BuildingBlock: KIFKEQ_clean_linker_1, # of connection points: 2
#     Edge 23, Type (0, 0), BuildingBlock: KIFKEQ_clean_linker_1, # of connection points: 2
#     Edge 24, Type (0, 0), BuildingBlock: KIFKEQ_clean_linker_1, # of connection points: 2
#     Edge 25, Type (0, 0), BuildingBlock: KIFKEQ_clean_linker_1, # of connection points: 2
#     Edge 26, Type (0, 0), BuildingBlock: KIFKEQ_clean_linker_1, # of connection points: 2
#     Edge 27, Type (0, 0), BuildingBlock: KIFKEQ_clean_linker_1, # of connection points: 2
#     Edge 28, Type (0, 0), BuildingBlock: KIFKEQ_clean_linker_1, # of connection points: 2
#     Edge 29, Type (0, 0), BuildingBlock: KIFKEQ_clean_linker_1, # of connection points: 2
#     Edge 30, Type (0, 0), BuildingBlock: KIFKEQ_clean_linker_1, # of connection points: 2
#     Edge 31, Type (0, 0), BuildingBlock: KIFKEQ_clean_linker_1, # of connection points: 2
#     Edge 32, Type (0, 0), BuildingBlock: KIFKEQ_clean_linker_1, # of connection points: 2
#     Edge 33, Type (0, 0), BuildingBlock: KIFKEQ_clean_linker_1, # of connection points: 2
#     Edge 34, Type (0, 0), BuildingBlock: KIFKEQ_clean_linker_1, # of connection points: 2
#     Edge 35, Type (0, 0), BuildingBlock: KIFKEQ_clean_linker_1, # of connection points: 2
#     Edge 36, Type (0, 0), BuildingBlock: KIFKEQ_clean_linker_1, # of connection points: 2
#     Edge 37, Type (0, 0), BuildingBlock: KIFKEQ_clean_linker_1, # of connection points: 2
#     Edge 38, Type (0, 0), BuildingBlock: KIFKEQ_clean_linker_1, # of connection points: 2
#     Edge 39, Type (0, 0), BuildingBlock: KIFKEQ_clean_linker_1, # of connection points: 2
#     Edge 40, Type (0, 0), BuildingBlock: KIFKEQ_clean_linker_1, # of connection points: 2
#     Edge 41, Type (0, 0), BuildingBlock: KIFKEQ_clean_linker_1, # of connection points: 2
#     Edge 42, Type (0, 0), BuildingBlock: KIFKEQ_clean_linker_1, # of connection points: 2
#     Edge 43, Type (0, 0), BuildingBlock: KIFKEQ_clean_linker_1, # of connection points: 2
#     Edge 44, Type (0, 0), BuildingBlock: KIFKEQ_clean_linker_1, # of connection points: 2
#     Edge 45, Type (0, 0), BuildingBlock: KIFKEQ_clean_linker_1, # of connection points: 2
#     Edge 46, Type (0, 0), BuildingBlock: KIFKEQ_clean_linker_1, # of connection points: 2
#     Edge 47, Type (0, 0), BuildingBlock: KIFKEQ_clean_linker_1, # of connection points: 2
#     Edge 48, Type (0, 0), BuildingBlock: KIFKEQ_clean_linker_1, # of connection points: 2
#     Edge 49, Type (0, 0), BuildingBlock: KIFKEQ_clean_linker_1, # of connection points: 2
#     Edge 50, Type (0, 0), BuildingBlock: KIFKEQ_clean_linker_1, # of connection points: 2
#     Edge 51, Type (0, 0), BuildingBlock: KIFKEQ_clean_linker_1, # of connection points: 2
#     Edge 52, Type (0, 0), BuildingBlock: KIFKEQ_clean_linker_1, # of connection points: 2
#     Edge 53, Type (0, 0), BuildingBlock: KIFKEQ_clean_linker_1, # of connection points: 2
#     Edge 54, Type (0, 0), BuildingBlock: KIFKEQ_clean_linker_1, # of connection points: 2
#     Edge 55, Type (0, 0), BuildingBlock: KIFKEQ_clean_linker_1, # of connection points: 2
#     Edge 56, Type (0, 0), BuildingBlock: KIFKEQ_clean_linker_1, # of connection points: 2
#     Edge 57, Type (0, 0), BuildingBlock: KIFKEQ_clean_linker_1, # of connection points: 2
#     Edge 58, Type (0, 0), BuildingBlock: KIFKEQ_clean_linker_1, # of connection points: 2
#     Edge 59, Type (0, 0), BuildingBlock: KIFKEQ_clean_linker_1, # of connection points: 2
#     Edge 60, Type (0, 0), BuildingBlock: KIFKEQ_clean_linker_1, # of connection points: 2
#     Edge 61, Type (0, 0), BuildingBlock: KIFKEQ_clean_linker_1, # of connection points: 2
#     Edge 62, Type (0, 0), BuildingBlock: KIFKEQ_clean_linker_1, # of connection points: 2
#     Edge 63, Type (0, 0), BuildingBlock: KIFKEQ_clean_linker_1, # of connection points: 2
# Relax obj value: 0.407
# Max RMSD: 0.253
# Mean RMSD: 0.253
data_MOF--net-whz--node1-IZENUY_clean_sbu_0--edge1-KIFKEQ_clean_linker_1
_symmetry_space_group_name_H-M    P1
_symmetry_Int_Tables_number       1
_symmetry_cell_setting            triclinic
loop_
_symmetry_equiv_pos_as_xyz
'x, y, z'
_cell_length_a     34.658949
_cell_length_b     34.644815
_cell_length_c     52.19068
_cell_angle_alpha  89.8381
_cell_angle_beta   89.945726
_cell_angle_gamma 90.023064
loop_
_atom_site_label
_atom_site_type_symbol
_atom_site_fract_x
_atom_site_fract_y
_atom_site_fract_z
_atom_type_partial_charge
Fe0 Fe 0.34898 0.20242 0.14158 0.0
Fe1 Fe 0.2664 0.19308 0.12302 0.0
O2 O 0.31434 0.17621 0.12383 0.0
Fe3 Fe 0.32783 0.13326 0.10762 0.0
O4 O 0.34416 0.11122 0.13753 0.0
O5 O 0.37877 0.16024 0.15011 0.0
O6 O 0.32306 0.19428 0.17109 0.0
C7 C 0.28941 0.20681 0.17452 0.0
C8 C 0.38925 0.18644 0.09824 0.0
O9 O 0.2676 0.21389 0.15555 0.0
C10 C 0.27751 0.16403 0.07227 0.0
O11 O 0.32596 0.24997 0.13687 0.0
O12 O 0.28105 0.23846 0.10846 0.0
O13 O 0.37696 0.15171 0.09918 0.0
O14 O 0.376 0.21188 0.11296 0.0
C15 C 0.25433 0.11554 0.12933 0.0
O16 O 0.25627 0.17517 0.09061 0.0
O17 O 0.31121 0.15142 0.07654 0.0
C18 C 0.30255 0.26204 0.12003 0.0
O19 O 0.24903 0.14926 0.13759 0.0
O20 O 0.28125 0.10833 0.11345 0.0
C21 C 0.36799 0.12561 0.15305 0.0
Fe22 Fe 0.55436 0.59013 0.39198 0.0
Fe23 Fe 0.57232 0.50909 0.37153 0.0
O24 O 0.58471 0.55874 0.37399 0.0
Fe25 Fe 0.62736 0.57683 0.35919 0.0
O26 O 0.63894 0.61096 0.38555 0.0
O27 O 0.59295 0.60115 0.41406 0.0
O28 O 0.53881 0.55347 0.41452 0.0
C29 C 0.55632 0.52375 0.42205 0.0
C30 C 0.57634 0.63668 0.3504 0.0
O31 O 0.57459 0.50287 0.40638 0.0
C32 C 0.59705 0.52292 0.32223 0.0
O33 O 0.51292 0.58065 0.37148 0.0
O34 O 0.52016 0.51753 0.3722 0.0
O35 O 0.59994 0.61289 0.3409 0.0
O36 O 0.56436 0.63303 0.37302 0.0
C37 C 0.65329 0.50644 0.37673 0.0
O38 O 0.56993 0.51165 0.33672 0.0
O39 O 0.62358 0.54491 0.33076 0.0
C40 C 0.49949 0.54709 0.36815 0.0
O41 O 0.62177 0.49133 0.37018 0.0
O42 O 0.65818 0.54247 0.37608 0.0
C43 C 0.62652 0.61244 0.40851 0.0
Fe44 Fe 0.25844 0.83488 0.62173 0.0
Fe45 Fe 0.1866 0.88444 0.61027 0.0
O46 O 0.20806 0.84316 0.6247 0.0
Fe47 Fe 0.17948 0.81038 0.64289 0.0
O48 O 0.21753 0.79806 0.66527 0.0
O49 O 0.265 0.83784 0.6565 0.0
O50 O 0.27206 0.88582 0.62008 0.0
C51 C 0.2546 0.91569 0.6275 0.0
C52 C 0.22653 0.75918 0.61876 0.0
O53 O 0.2183 0.91738 0.62756 0.0
C54 C 0.13117 0.82874 0.6014 0.0
O55 O 0.25519 0.83205 0.58695 0.0
O56 O 0.21901 0.88394 0.58192 0.0
O57 O 0.19207 0.76985 0.62235 0.0
O58 O 0.25434 0.78217 0.62267 0.0
C59 C 0.15193 0.88071 0.65957 0.0
O60 O 0.15279 0.85452 0.5919 0.0
O61 O 0.1359 0.81683 0.62399 0.0
C62 C 0.24224 0.85891 0.57289 0.0
O63 O 0.15148 0.89269 0.6365 0.0
O64 O 0.16573 0.84807 0.66503 0.0
C65 C 0.24579 0.81813 0.67244 0.0
Fe66 Fe 0.94553 0.42427 0.89024 0.0
Fe67 Fe 0.9286 0.50649 0.87295 0.0
O68 O 0.91746 0.45685 0.87208 0.0
Fe69 Fe 0.87772 0.43957 0.85394 0.0
O70 O 0.85469 0.42078 0.88285 0.0
O71 O 0.90564 0.39041 0.89687 0.0
O72 O 0.93254 0.44763 0.91966 0.0
C73 C 0.94049 0.48219 0.92453 0.0
C74 C 0.93697 0.38306 0.84655 0.0
O75 O 0.94638 0.5061 0.90644 0.0
C76 C 0.90667 0.49382 0.82067 0.0
O77 O 0.99075 0.45218 0.88754 0.0
O78 O 0.97663 0.49823 0.8602 0.0
O79 O 0.90132 0.39241 0.84622 0.0
O80 O 0.95993 0.39944 0.86166 0.0
C81 C 0.84981 0.50854 0.87616 0.0
O82 O 0.9128 0.51586 0.83969 0.0
O83 O 0.89749 0.45874 0.82406 0.0
C84 C 1.00138 0.47787 0.87168 0.0
O85 O 0.8817 0.51751 0.88602 0.0
O86 O 0.84776 0.4833 0.85862 0.0
C87 C 0.87018 0.39864 0.89906 0.0
Fe88 Fe 0.6754 0.80165 0.88093 0.0
Fe89 Fe 0.75428 0.81726 0.9054 0.0
O90 O 0.70585 0.83121 0.90007 0.0
Fe91 Fe 0.68781 0.87484 0.91345 0.0
O92 O 0.6554 0.88586 0.88599 0.0
O93 O 0.66862 0.84038 0.85799 0.0
O94 O 0.71363 0.78368 0.86033 0.0
C95 C 0.74621 0.79758 0.855 0.0
C96 C 0.627 0.82467 0.92087 0.0
O97 O 0.76476 0.81732 0.87109 0.0
C98 C 0.73726 0.84513 0.95314 0.0
O99 O 0.68083 0.76029 0.90224 0.0
O100 O 0.74396 0.76551 0.90549 0.0
O101 O 0.65036 0.84814 0.93106 0.0
O102 O 0.63128 0.81406 0.89798 0.0
C103 C 0.75997 0.89745 0.89713 0.0
O104 O 0.74775 0.81645 0.93996 0.0
O105 O 0.7178 0.87223 0.94289 0.0
C106 C 0.71329 0.74594 0.90786 0.0
O107 O 0.7731 0.86631 0.90623 0.0
O108 O 0.7241 0.904 0.8968 0.0
C109 C 0.65669 0.87395 0.86293 0.0
Fe110 Fe 0.38387 0.44198 0.6669 0.0
Fe111 Fe 0.45448 0.42349 0.63361 0.0
O112 O 0.42614 0.45733 0.65045 0.0
Fe113 Fe 0.43976 0.50637 0.65007 0.0
O114 O 0.39494 0.51974 0.63493 0.0
O115 O 0.35667 0.48729 0.66089 0.0
O116 O 0.36278 0.42416 0.63723 0.0
C117 C 0.37873 0.40122 0.6218 0.0
C118 C 0.41164 0.49484 0.70128 0.0
O119 O 0.41371 0.39177 0.6251 0.0
C120 C 0.51088 0.47473 0.65441 0.0
O121 O 0.40426 0.39361 0.67558 0.0
O122 O 0.46462 0.39789 0.66275 0.0
O123 O 0.42089 0.51653 0.68254 0.0
O124 O 0.40156 0.46014 0.69753 0.0
C125 C 0.4564 0.48153 0.5992 0.0
O126 O 0.50069 0.44911 0.63845 0.0
O127 O 0.4858 0.49581 0.66492 0.0
C128 C 0.43939 0.38263 0.67679 0.0
O129 O 0.44584 0.44751 0.6036 0.0
O130 O 0.46128 0.50508 0.61753 0.0
C131 C 0.36177 0.51291 0.64373 0.0
Fe132 Fe 0.82614 0.13488 0.41462 0.0
Fe133 Fe 0.84218 0.20369 0.37893 0.0
O134 O 0.80948 0.17525 0.39674 0.0
Fe135 Fe 0.75996 0.18691 0.39569 0.0
O136 O 0.74902 0.14112 0.38125 0.0
O137 O 0.78246 0.10503 0.4081 0.0
O138 O 0.84631 0.11263 0.3859 0.0
C139 C 0.8681 0.12846 0.36963 0.0
C140 C 0.77003 0.16082 0.44739 0.0
O141 O 0.87576 0.16405 0.37161 0.0
C142 C 0.78949 0.25908 0.39917 0.0
O143 O 0.87302 0.15857 0.42373 0.0
O144 O 0.86725 0.21695 0.40741 0.0
O145 O 0.74921 0.16818 0.428 0.0
O146 O 0.8056 0.15339 0.44461 0.0
C147 C 0.78457 0.20209 0.3447 0.0
O148 O 0.81473 0.249 0.38284 0.0
O149 O 0.76858 0.2339 0.40993 0.0
C150 C 0.88288 0.19418 0.423 0.0
O151 O 0.81855 0.1919 0.3493 0.0
O152 O 0.76112 0.20768 0.36298 0.0
C153 C 0.75694 0.10848 0.39063 0.0
Fe154 Fe 0.06871 0.50788 0.15025 0.0
Fe155 Fe 0.12587 0.57197 0.16552 0.0
O156 O 0.08366 0.55658 0.14921 0.0
Fe157 Fe 0.05636 0.58986 0.13103 0.0
O158 O 0.06551 0.56367 0.10186 0.0
O159 O 0.04745 0.50792 0.11777 0.0
O160 O 0.11305 0.49255 0.13563 0.0
C161 C 0.14654 0.49912 0.14392 0.0
C162 C 0.99864 0.54191 0.15347 0.0
O163 O 0.15268 0.52621 0.15989 0.0
C164 C 0.07023 0.63177 0.17398 0.0
O165 O 0.08753 0.49846 0.18267 0.0
O166 O 0.10788 0.55474 0.19658 0.0
O167 O 0.00988 0.56531 0.13628 0.0
O168 O 0.02282 0.52064 0.16481 0.0
C169 C 0.13244 0.61156 0.11956 0.0
O170 O 0.10538 0.62055 0.17367 0.0
O171 O 0.04571 0.61724 0.15916 0.0
C172 C 0.09762 0.52024 0.20098 0.0
O173 O 0.14775 0.58908 0.13565 0.0
O174 O 0.09737 0.62091 0.12212 0.0
C175 C 0.05405 0.52962 0.09863 0.0
Fe176 Fe 0.84632 0.7089 0.64053 0.0
Fe177 Fe 0.76281 0.6945 0.62541 0.0
O178 O 0.8119 0.68146 0.62368 0.0
Fe179 Fe 0.82668 0.64045 0.60588 0.0
O180 O 0.8454 0.61745 0.63477 0.0
O181 O 0.87834 0.66766 0.64753 0.0
O182 O 0.8237 0.69831 0.67067 0.0
C183 C 0.78969 0.70755 0.67609 0.0
C184 C 0.88572 0.69651 0.59651 0.0
O185 O 0.76535 0.71417 0.65844 0.0
C186 C 0.77211 0.66937 0.57333 0.0
O187 O 0.82025 0.75512 0.63714 0.0
O188 O 0.77223 0.74152 0.61133 0.0
O189 O 0.87478 0.66133 0.59712 0.0
O190 O 0.87074 0.72094 0.61121 0.0
C191 C 0.75684 0.61633 0.62963 0.0
O192 O 0.75137 0.67699 0.59281 0.0
O193 O 0.80737 0.66047 0.57605 0.0
C194 C 0.79411 0.76603 0.62172 0.0
O195 O 0.7507 0.64866 0.6398 0.0
O196 O 0.78156 0.61276 0.61177 0.0
C197 C 0.86859 0.63261 0.6504 0.0
Fe198 Fe 0.07133 1.00782 0.8704 0.0
Fe199 Fe 0.1217 0.07988 0.86065 0.0
O200 O 0.08137 0.05734 0.87554 0.0
Fe201 Fe 0.05106 0.08441 0.8962 0.0
O202 O 0.03804 0.04405 0.91661 0.0
O203 O 0.076 0.99695 0.90461 0.0
O204 O 0.12175 0.99333 0.86692 0.0
C205 C 0.15265 0.00949 0.87389 0.0
C206 C 0.99717 0.04304 0.87019 0.0
O207 O 0.15534 0.04576 0.87529 0.0
C208 C 0.0656 0.13605 0.85647 0.0
O209 O 0.06658 0.01501 0.83614 0.0
O210 O 0.11859 0.05075 0.83082 0.0
O211 O 0.00902 0.07636 0.87607 0.0
O212 O 0.01881 0.01372 0.87259 0.0
C213 C 0.1228 0.10832 0.91184 0.0
O214 O 0.09034 0.1157 0.84484 0.0
O215 O 0.05868 0.13001 0.87981 0.0
C216 C 0.09261 0.02861 0.82176 0.0
O217 O 0.13257 0.11191 0.88838 0.0
O218 O 0.0908 0.09342 0.91774 0.0
C219 C 0.05737 0.01436 0.92182 0.0
Fe220 Fe 0.67556 0.3025 0.14138 0.0
Fe221 Fe 0.75483 0.32094 0.11811 0.0
O222 O 0.7055 0.33303 0.1225 0.0
Fe223 Fe 0.68635 0.37578 0.10864 0.0
O224 O 0.65308 0.38641 0.13575 0.0
O225 O 0.66601 0.34091 0.16391 0.0
O226 O 0.71388 0.28713 0.16264 0.0
C227 C 0.74408 0.30483 0.16902 0.0
C228 C 0.62731 0.32386 0.10082 0.0
O229 O 0.76376 0.32316 0.15264 0.0
C230 C 0.7375 0.34632 0.06974 0.0
O231 O 0.68372 0.26128 0.12054 0.0
O232 O 0.74676 0.26864 0.11917 0.0
O233 O 0.6501 0.34814 0.09091 0.0
O234 O 0.63157 0.31255 0.12359 0.0
C235 C 0.75724 0.40169 0.12426 0.0
O236 O 0.74924 0.31857 0.0835 0.0
O237 O 0.71702 0.37314 0.07945 0.0
C238 C 0.71696 0.24801 0.116 0.0
O239 O 0.77195 0.37077 0.11611 0.0
O240 O 0.72118 0.40612 0.12529 0.0
C241 C 0.65367 0.37426 0.15882 0.0
Fe242 Fe 0.4716 0.92265 0.39233 0.0
Fe243 Fe 0.46249 1.00312 0.36848 0.0
O244 O 0.44426 0.9561 0.37389 0.0
Fe245 Fe 0.39851 0.94208 0.36158 0.0
O246 O 0.38636 0.91046 0.38936 0.0
O247 O 0.4338 0.92097 0.41642 0.0
O248 O 0.49575 0.95828 0.41195 0.0
C249 C 0.48625 0.99201 0.41799 0.0
C250 C 0.44135 0.87662 0.35349 0.0
O251 O 0.46642 0.01254 0.40295 0.0
C252 C 0.42951 0.98967 0.32135 0.0
O253 O 0.5117 0.92359 0.3697 0.0
O254 O 0.51281 0.98715 0.36636 0.0
O255 O 0.42084 0.90267 0.34338 0.0
O256 O 0.45295 0.87988 0.37623 0.0
C257 C 0.38307 0.01601 0.37827 0.0
O258 O 0.45969 0.99808 0.33375 0.0
O259 O 0.40194 0.97179 0.3322 0.0
C260 C 0.5289 0.95454 0.36354 0.0
O261 O 0.41553 0.02669 0.36973 0.0
O262 O 0.37349 0.98076 0.37857 0.0
C263 C 0.39903 0.91211 0.41224 0.0
Fe264 Fe 0.17972 0.31243 0.38047 0.0
Fe265 Fe 0.2599 0.33272 0.39974 0.0
O266 O 0.2098 0.34154 0.39966 0.0
Fe267 Fe 0.18979 0.37997 0.41776 0.0
O268 O 0.17116 0.4027 0.38873 0.0
O269 O 0.1443 0.35078 0.3733 0.0
O270 O 0.20421 0.32736 0.35183 0.0
C271 C 0.23925 0.32081 0.34769 0.0
C272 C 0.13567 0.31743 0.42331 0.0
O273 O 0.26213 0.31502 0.36628 0.0
C274 C 0.24403 0.35354 0.45175 0.0
O275 O 0.20951 0.26837 0.38379 0.0
O276 O 0.25298 0.28445 0.41235 0.0
O277 O 0.14347 0.35351 0.42471 0.0
O278 O 0.15393 0.29615 0.4081 0.0
C279 C 0.25865 0.41145 0.39674 0.0
O280 O 0.26707 0.34882 0.43307 0.0
O281 O 0.20868 0.36075 0.44785 0.0
C282 C 0.23419 0.25882 0.40062 0.0
O283 O 0.26935 0.38008 0.38693 0.0
O284 O 0.23234 0.41226 0.41377 0.0
C285 C 0.1507 0.38673 0.37186 0.0
Fe286 Fe 0.94582 0.99995 0.14979 0.0
Fe287 Fe 0.88649 0.93834 0.16613 0.0
O288 O 0.92889 0.95195 0.14929 0.0
Fe289 Fe 0.95448 0.91743 0.13107 0.0
O290 O 0.94507 0.94347 0.10188 0.0
O291 O 0.9661 0.99864 0.11684 0.0
O292 O 0.90174 0.01723 0.13572 0.0
C293 C 0.86812 0.01178 0.14423 0.0
C294 C 0.01455 0.9635 0.15212 0.0
O295 O 0.86121 0.98491 0.16034 0.0
C296 C 0.94041 0.87687 0.17464 0.0
O297 O 0.92858 0.01031 0.18253 0.0
O298 O 0.90536 0.95515 0.19683 0.0
O299 O 1.00216 0.94053 0.13513 0.0
O300 O 0.99131 0.98515 0.16387 0.0
C301 C 0.87745 0.89844 0.12077 0.0
O302 O 0.90558 0.88917 0.1745 0.0
O303 O 0.96507 0.89027 0.15937 0.0
C304 C 0.91763 0.98899 0.20098 0.0
O305 O 0.86359 0.92195 0.13667 0.0
O306 O 0.91211 0.88754 0.12315 0.0
C307 C 0.9582 0.97677 0.09804 0.0
Fe308 Fe 0.32023 0.64182 0.91537 0.0
Fe309 Fe 0.34348 0.71157 0.88248 0.0
O310 O 0.308 0.68593 0.89994 0.0
Fe311 Fe 0.26058 0.70447 0.90113 0.0
O312 O 0.24157 0.66175 0.88624 0.0
O313 O 0.27267 0.61872 0.90953 0.0
O314 O 0.3355 0.62036 0.8851 0.0
C315 C 0.35958 0.63467 0.86966 0.0
C316 C 0.27125 0.6724 0.95153 0.0
O317 O 0.37167 0.66874 0.87314 0.0
C318 C 0.29892 0.77215 0.90469 0.0
O319 O 0.37023 0.65825 0.92377 0.0
O320 O 0.37091 0.71903 0.91108 0.0
O321 O 0.25019 0.68577 0.93365 0.0
O322 O 0.30455 0.65923 0.94669 0.0
C323 C 0.28428 0.71926 0.84958 0.0
O324 O 0.3222 0.75965 0.88791 0.0
O325 O 0.27663 0.74896 0.91604 0.0
C326 C 0.38383 0.69251 0.92512 0.0
O327 O 0.31733 0.70536 0.85309 0.0
O328 O 0.26232 0.72631 0.86855 0.0
C329 C 0.24553 0.62761 0.89417 0.0
Fe330 Fe 0.54848 0.08954 0.63068 0.0
Fe331 Fe 0.56725 0.00989 0.65305 0.0
O332 O 0.57939 0.05919 0.64909 0.0
Fe333 Fe 0.62232 0.07809 0.66277 0.0
O334 O 0.63265 0.11102 0.63539 0.0
O335 O 0.58647 0.09856 0.60754 0.0
O336 O 0.5311 0.05159 0.60964 0.0
C337 C 0.54773 0.02105 0.60288 0.0
C338 C 0.5711 0.13782 0.67074 0.0
O339 O 0.56853 1.00234 0.61836 0.0
C340 C 0.59372 0.02561 0.70144 0.0
O341 O 0.50817 0.08171 0.65245 0.0
O342 O 0.51496 0.01851 0.65317 0.0
O343 O 0.59497 0.1146 0.68062 0.0
O344 O 0.55978 0.13355 0.64804 0.0
C345 C 0.64821 1.0071 0.64677 0.0
O346 O 0.56596 0.01404 0.68772 0.0
O347 O 0.61984 0.04734 0.692 0.0
C348 C 0.49477 0.04846 0.65714 0.0
O349 O 0.61686 0.99226 0.65408 0.0
O350 O 0.6528 0.04318 0.64617 0.0
C351 C 0.62017 0.11029 0.61241 0.0
H352 H 0.24707 0.27095 0.18415 0.0
H353 H 0.31313 0.18116 0.22123 0.0
H354 H 0.23951 0.30377 0.22488 0.0
H355 H 0.3036 0.21264 0.26251 0.0
H356 H 0.30824 0.29158 0.33038 0.0
H357 H 0.32155 0.26612 0.28768 0.0
H358 H 0.20708 0.29988 0.26338 0.0
H359 H 0.19492 0.32718 0.30501 0.0
C360 C 0.25904 0.2577 0.20121 0.0
C361 C 0.28026 0.22332 0.19968 0.0
C362 C 0.25483 0.27655 0.22459 0.0
C363 C 0.27098 0.26095 0.24708 0.0
C364 C 0.2915 0.22599 0.24554 0.0
C365 C 0.29644 0.20758 0.22201 0.0
C366 C 0.28637 0.2943 0.31567 0.0
C367 C 0.25042 0.31098 0.32119 0.0
C368 C 0.29374 0.27925 0.29131 0.0
C369 C 0.26516 0.28032 0.27214 0.0
C370 C 0.23 0.29878 0.27744 0.0
C371 C 0.2229 0.31425 0.30152 0.0
H372 H 0.43544 0.44834 0.55424 0.0
H373 H 0.51451 0.53127 0.58665 0.0
H374 H 0.46688 0.45512 0.51271 0.0
H375 H 0.54698 0.53707 0.54536 0.0
H376 H 0.55694 0.57388 0.46087 0.0
H377 H 0.53559 0.56313 0.50439 0.0
H378 H 0.52501 0.44096 0.48902 0.0
H379 H 0.54548 0.45236 0.44451 0.0
C380 C 0.45947 0.4682 0.55239 0.0
C381 C 0.47221 0.48972 0.57355 0.0
C382 C 0.47791 0.47157 0.52872 0.0
C383 C 0.50977 0.49626 0.52573 0.0
C384 C 0.52228 0.51805 0.54691 0.0
C385 C 0.50352 0.51501 0.57053 0.0
C386 C 0.55074 0.54456 0.4669 0.0
C387 C 0.55234 0.51396 0.44934 0.0
C388 C 0.53871 0.53835 0.49197 0.0
C389 C 0.52807 0.50127 0.50018 0.0
C390 C 0.53231 0.47003 0.48309 0.0
C391 C 0.5445 0.47634 0.45777 0.0
H392 H 0.31666 0.80562 0.69467 0.0
H393 H 0.1962 0.82417 0.71145 0.0
H394 H 0.32734 0.78612 0.73943 0.0
H395 H 0.20624 0.80417 0.75543 0.0
H396 H 0.23875 0.78132 0.83787 0.0
H397 H 0.23417 0.81432 0.79656 0.0
H398 H 0.30871 0.72833 0.76274 0.0
H399 H 0.31404 0.69611 0.80407 0.0
C400 C 0.29285 0.80663 0.70811 0.0
C401 C 0.25565 0.8161 0.69976 0.0
C402 C 0.29871 0.79501 0.73358 0.0
C403 C 0.26745 0.79295 0.75089 0.0
C404 C 0.23099 0.80554 0.74278 0.0
C405 C 0.2252 0.8169 0.71751 0.0
C406 C 0.2536 0.76919 0.82148 0.0
C407 C 0.27642 0.73595 0.8241 0.0
C408 C 0.25131 0.78827 0.79788 0.0
C409 C 0.27154 0.77427 0.7764 0.0
C410 C 0.29364 0.74051 0.779 0.0
C411 C 0.29614 0.72166 0.80258 0.0
H412 H 0.93796 0.43437 0.96594 0.0
H413 H 0.96844 0.5507 0.94342 0.0
H414 H 0.96591 0.44484 1.00766 0.0
H415 H 0.99462 0.56207 0.98614 0.0
H416 H 0.07945 0.55488 0.05224 0.0
H417 H 0.04906 0.54479 1.01069 0.0
H418 H 0.96092 0.47503 0.04706 0.0
H419 H 0.99266 0.48345 0.08817 0.0
C420 C 0.94994 0.46257 0.97006 0.0
C421 C 0.95142 0.49159 0.95116 0.0
C422 C 0.96582 0.46866 0.99418 0.0
C423 C 0.98297 0.50417 1.00029 0.0
C424 C 0.98253 0.53399 0.98188 0.0
C425 C 0.96707 0.5277 0.95749 0.0
C426 C 0.05396 0.53682 0.05115 0.0
C427 C 0.03865 0.51953 0.07328 0.0
C428 C 0.03617 0.53152 0.02744 0.0
C429 C 1.00224 0.50942 0.02547 0.0
C430 C 0.98731 0.49173 0.04769 0.0
C431 C 1.00555 0.49642 0.0713 0.0
H432 H 0.76462 0.84316 0.8143 0.0
H433 H 0.76229 0.72514 0.84071 0.0
H434 H 0.77559 0.82065 0.77026 0.0
H435 H 0.77311 0.70254 0.7971 0.0
H436 H 0.82488 0.67874 0.71822 0.0
H437 H 0.82052 0.70239 0.76197 0.0
H438 H 0.7336 0.78454 0.73855 0.0
H439 H 0.7384 0.76109 0.69437 0.0
C440 C 0.76792 0.81254 0.81073 0.0
C441 C 0.76342 0.78578 0.83069 0.0
C442 C 0.77343 0.79963 0.78559 0.0
C443 C 0.77477 0.75984 0.78027 0.0
C444 C 0.77246 0.73333 0.80062 0.0
C445 C 0.76655 0.74621 0.82556 0.0
C446 C 0.80451 0.70158 0.72245 0.0
C447 C 0.78188 0.71804 0.70294 0.0
C448 C 0.8021 0.71515 0.74748 0.0
C449 C 0.77709 0.74561 0.75359 0.0
C450 C 0.75362 0.76146 0.73424 0.0
C451 C 0.75585 0.74763 0.7091 0.0
H452 H 0.69707 0.31263 0.2091 0.0
H453 H 0.81548 0.28825 0.18937 0.0
H454 H 0.70807 0.29072 0.25239 0.0
H455 H 0.82746 0.26731 0.2337 0.0
H456 H 0.81454 0.17868 0.29925 0.0
H457 H 0.8094 0.21129 0.25792 0.0
H458 H 0.73651 0.29821 0.29243 0.0
H459 H 0.74015 0.26439 0.33328 0.0
C460 C 0.72595 0.30369 0.2144 0.0
C461 C 0.75539 0.30173 0.19599 0.0
C462 C 0.73234 0.29125 0.23932 0.0
C463 C 0.76851 0.27669 0.24652 0.0
C464 C 0.79901 0.27763 0.22857 0.0
C465 C 0.79247 0.29014 0.20336 0.0
C466 C 0.79686 0.20438 0.29776 0.0
C467 C 0.77704 0.2186 0.31923 0.0
C468 C 0.79453 0.22351 0.27425 0.0
C469 C 0.77285 0.25762 0.27186 0.0
C470 C 0.75303 0.27173 0.29345 0.0
C471 C 0.7548 0.25221 0.31683 0.0
H472 H 0.02516 0.01432 0.08693 0.0
H473 H 0.93005 0.95344 0.05218 0.0
H474 H 0.05838 0.0161 0.04578 0.0
H475 H 0.96208 0.95693 1.01067 0.0
H476 H 0.03367 0.94447 0.94105 0.0
H477 H 0.0138 0.93288 0.98558 0.0
H478 H 0.0555 0.04643 1.0061 0.0
H479 H 0.07642 0.05666 0.96245 0.0
C480 C 0.01089 1.00236 0.07028 0.0
C481 C 0.97483 0.98429 0.07257 0.0
C482 C 0.03002 1.00304 0.04671 0.0
C483 C 0.01314 0.98631 0.02485 0.0
C484 C 0.9765 0.96915 0.02716 0.0
C485 C 0.95774 0.96785 0.0508 0.0
C486 C 0.04 0.96597 0.95548 0.0
C487 C 0.05653 1.00137 0.94854 0.0
C488 C 0.02802 0.9598 0.98083 0.0
C489 C 0.03224 0.9891 0.99938 0.0
C490 C 0.05188 0.02306 0.99258 0.0
C491 C 0.06391 0.02903 0.96748 0.0
H492 H 0.55492 0.97628 0.4395 0.0
H493 H 0.44817 0.03694 0.45311 0.0
H494 H 0.57162 0.98137 0.48434 0.0
H495 H 0.46572 0.04391 0.49839 0.0
H496 H 0.48048 1.00285 0.58017 0.0
H497 H 0.468 1.00144 0.5342 0.0
H498 H 0.58981 0.01829 0.5197 0.0
H499 H 0.60206 0.01759 0.5658 0.0
C500 C 0.53555 0.99187 0.45207 0.0
C501 C 0.50008 1.00592 0.44295 0.0
C502 C 0.54521 0.99488 0.47784 0.0
C503 C 0.51971 0.01233 0.49518 0.0
C504 C 0.48556 0.02932 0.48564 0.0
C505 C 0.47577 0.0261 0.45967 0.0
C506 C 0.50462 1.00471 0.567 0.0
C507 C 0.5423 0.00913 0.57628 0.0
C508 C 0.49744 1.00495 0.54071 0.0
C509 C 0.52776 0.01055 0.52316 0.0
C510 C 0.56576 0.01357 0.53259 0.0
C511 C 0.57296 0.01268 0.55894 0.0
H512 H 0.20157 0.12251 0.91168 0.0
H513 H 0.10128 0.1249 0.96075 0.0
H514 H 0.2424 0.1396 0.94851 0.0
H515 H 0.14149 0.14086 0.99709 0.0
H516 H 0.21293 0.2007 0.05513 0.0
H517 H 0.1789 0.19189 0.01494 0.0
H518 H 0.26691 0.11251 0.9896 0.0
H519 H 0.30175 0.12206 0.03003 0.0
C520 C 0.18816 0.1271 0.93017 0.0
C521 C 0.14802 0.12238 0.93312 0.0
C522 C 0.2116 0.13649 0.95136 0.0
C523 C 0.19539 0.14183 0.97591 0.0
C524 C 0.15518 0.13771 0.97856 0.0
C525 C 0.13199 0.1282 0.9576 0.0
C526 C 0.22539 0.1816 0.04097 0.0
C527 C 0.25998 0.16175 0.04611 0.0
C528 C 0.20566 0.17637 0.01785 0.0
C529 C 0.21959 0.15088 0.99904 0.0
C530 C 0.25525 0.13244 1.00354 0.0
C531 C 0.27523 0.13785 0.02679 0.0
H532 H 0.6501 0.54003 0.28431 0.0
H533 H 0.55276 0.46597 0.30044 0.0
H534 H 0.65993 0.50684 0.24344 0.0
H535 H 0.56269 0.43298 0.25978 0.0
H536 H 0.62853 0.34993 0.20572 0.0
H537 H 0.61216 0.38842 0.24309 0.0
H538 H 0.63191 0.49274 0.19964 0.0
H539 H 0.64833 0.45382 0.16182 0.0
C540 C 0.63047 0.51704 0.27907 0.0
C541 C 0.60072 0.50572 0.29595 0.0
C542 C 0.63605 0.49807 0.25552 0.0
C543 C 0.61233 0.46693 0.24828 0.0
C544 C 0.58188 0.45645 0.26479 0.0
C545 C 0.57606 0.47562 0.28815 0.0
C546 C 0.62897 0.38108 0.20391 0.0
C547 C 0.63962 0.39865 0.18057 0.0
C548 C 0.61939 0.40324 0.22542 0.0
C549 C 0.6206 0.44382 0.22453 0.0
C550 C 0.63082 0.46157 0.20112 0.0
C551 C 0.63988 0.43927 0.17934 0.0
H552 H 0.27506 0.80531 0.54069 0.0
H553 H 0.25088 0.92714 0.54695 0.0
H554 H 0.30999 0.81728 0.50043 0.0
H555 H 0.28674 0.93902 0.50728 0.0
H556 H 0.40477 0.94009 0.46074 0.0
H557 H 0.36347 0.92675 0.4977 0.0
H558 H 0.29471 0.8495 0.45195 0.0
H559 H 0.33547 0.86388 0.4144 0.0
C560 C 0.27681 0.83454 0.53337 0.0
C561 C 0.25994 0.86521 0.54707 0.0
C562 C 0.29676 0.84135 0.51029 0.0
C563 C 0.3012 0.8791 0.50072 0.0
C564 C 0.28384 0.90964 0.51418 0.0
C565 C 0.2631 0.90275 0.53685 0.0
C566 C 0.38086 0.92023 0.45847 0.0
C567 C 0.37355 0.90297 0.43456 0.0
C568 C 0.35708 0.91277 0.47965 0.0
C569 C 0.32582 0.8871 0.47776 0.0
C570 C 0.31865 0.86936 0.45399 0.0
C571 C 0.3419 0.87766 0.4325 0.0
H572 H 0.86863 0.554 0.65807 0.0
H573 H 0.89535 0.66127 0.69584 0.0
H574 H 0.88204 0.51882 0.69757 0.0
H575 H 0.90624 0.62684 0.73572 0.0
H576 H 0.9459 0.55716 0.80329 0.0
H577 H 0.94213 0.58818 0.76151 0.0
H578 H 0.85936 0.50228 0.73721 0.0
H579 H 0.86536 0.47007 0.77857 0.0
C580 C 0.8776 0.5701 0.6748 0.0
C581 C 0.88122 0.61052 0.67359 0.0
C582 C 0.88483 0.54992 0.69772 0.0
C583 C 0.89507 0.56958 0.72039 0.0
C584 C 0.8993 0.61008 0.71888 0.0
C585 C 0.8929 0.6301 0.69584 0.0
C586 C 0.9272 0.54469 0.78889 0.0
C587 C 0.90594 0.51107 0.79438 0.0
C588 C 0.92466 0.56277 0.76484 0.0
C589 C 0.90002 0.54841 0.74557 0.0
C590 C 0.87921 0.51426 0.75106 0.0
C591 C 0.88244 0.4957 0.77497 0.0
H592 H 0.89955 0.85276 0.08028 0.0
H593 H 0.80191 0.91609 0.10968 0.0
H594 H 0.86352 0.83827 0.04139 0.0
H595 H 0.76551 0.90088 0.07103 0.0
H596 H 0.73064 0.90745 0.98555 0.0
H597 H 0.7623 0.91751 0.0267 0.0
H598 H 0.81171 0.80329 0.02243 0.0
H599 H 0.78075 0.7936 0.98103 0.0
C600 C 0.87013 0.86302 0.07871 0.0
C601 C 0.85378 0.88555 0.09834 0.0
C602 C 0.8493 0.85461 0.05631 0.0
C603 C 0.8114 0.86844 0.05276 0.0
C604 C 0.79473 0.89015 0.07271 0.0
C605 C 0.81558 0.89859 0.0951 0.0
C606 C 0.7479 0.88427 0.99347 0.0
C607 C 0.75308 0.84973 0.97971 0.0
C608 C 0.76607 0.88999 0.01724 0.0
C609 C 0.78999 0.86136 0.02808 0.0
C610 C 0.79421 0.82639 0.01464 0.0
C611 C 0.77608 0.82068 0.99088 0.0
H612 H 0.38939 0.66285 0.82481 0.0
H613 H 0.35683 0.55614 0.86166 0.0
H614 H 0.40312 0.62828 0.78547 0.0
H615 H 0.37287 0.52076 0.82275 0.0
H616 H 0.36517 0.4719 0.74133 0.0
H617 H 0.35476 0.50436 0.78211 0.0
H618 H 0.44126 0.58906 0.76164 0.0
H619 H 0.44957 0.55781 0.72034 0.0
C620 C 0.38609 0.63175 0.82473 0.0
C621 C 0.37217 0.61238 0.84658 0.0
C622 C 0.39418 0.61165 0.80201 0.0
C623 C 0.38935 0.57124 0.80043 0.0
C624 C 0.37635 0.5518 0.82265 0.0
C625 C 0.36751 0.57208 0.84524 0.0
C626 C 0.38212 0.49733 0.74565 0.0
C627 C 0.40808 0.51226 0.7274 0.0
C628 C 0.37632 0.51604 0.76925 0.0
C629 C 0.39685 0.54993 0.77561 0.0
C630 C 0.42389 0.56388 0.75756 0.0
C631 C 0.42905 0.54564 0.7338 0.0
H632 H 0.6942 0.14535 0.45597 0.0
H633 H 0.80111 0.16338 0.49645 0.0
H634 H 0.66087 0.13515 0.49601 0.0
H635 H 0.767 0.1554 0.53734 0.0
H636 H 0.69871 0.1025 0.60596 0.0
H637 H 0.73642 0.11559 0.56719 0.0
H638 H 0.63447 0.16267 0.53103 0.0
H639 H 0.59694 0.14712 0.56893 0.0
C640 C 0.7106 0.14786 0.47355 0.0
C641 C 0.75046 0.15557 0.4728 0.0
C642 C 0.69123 0.1423 0.49681 0.0
C643 C 0.71064 0.14509 0.52046 0.0
C644 C 0.75074 0.15268 0.51976 0.0
C645 C 0.77042 0.15753 0.49624 0.0
C646 C 0.68462 0.11606 0.58976 0.0
C647 C 0.64474 0.12362 0.59056 0.0
C648 C 0.70628 0.12366 0.5674 0.0
C649 C 0.68876 0.13965 0.54534 0.0
C650 C 0.64919 0.14906 0.54694 0.0
C651 C 0.62752 0.14063 0.56895 0.0
H652 H 0.09702 0.36626 0.33545 0.0
H653 H 0.17495 0.45826 0.3559 0.0
H654 H 0.08058 0.40028 0.29603 0.0
H655 H 0.16014 0.49146 0.31597 0.0
H656 H 0.11104 0.55669 0.24737 0.0
H657 H 0.11926 0.52695 0.28959 0.0
H658 H 0.10379 0.41424 0.25581 0.0
H659 H 0.09387 0.44394 0.21432 0.0
C660 C 0.11052 0.39389 0.33163 0.0
C661 C 0.1372 0.40943 0.34908 0.0
C662 C 0.10144 0.41336 0.30874 0.0
C663 C 0.11927 0.44876 0.30223 0.0
C664 C 0.14522 0.46472 0.32012 0.0
C665 C 0.15387 0.44549 0.34317 0.0
C666 C 0.10907 0.52558 0.24905 0.0
C667 C 0.10162 0.50292 0.22726 0.0
C668 C 0.11408 0.50835 0.27333 0.0
C669 C 0.11222 0.46784 0.27655 0.0
C670 C 0.10462 0.44542 0.25464 0.0
C671 C 0.09918 0.46261 0.23056 0.0
H672 H 0.80479 0.66791 0.52485 0.0
H673 H 0.69539 0.65948 0.56396 0.0
H674 H 0.772 0.65911 0.48372 0.0
H675 H 0.66311 0.64851 0.52365 0.0
H676 H 0.60343 0.65588 0.44901 0.0
H677 H 0.63999 0.67386 0.48676 0.0
H678 H 0.74094 0.61786 0.45533 0.0
H679 H 0.70437 0.60229 0.41659 0.0
C680 C 0.77377 0.66411 0.5247 0.0
C681 C 0.75282 0.66488 0.54783 0.0
C682 C 0.75486 0.65874 0.50105 0.0
C683 C 0.71447 0.65336 0.49987 0.0
C684 C 0.69387 0.65374 0.5232 0.0
C685 C 0.71259 0.65979 0.54662 0.0
C686 C 0.63366 0.64805 0.44996 0.0
C687 C 0.65095 0.62774 0.42971 0.0
C688 C 0.6547 0.65786 0.4719 0.0
C689 C 0.69359 0.64663 0.47483 0.0
C690 C 0.7113 0.62744 0.45404 0.0
C691 C 0.69033 0.61842 0.4317 0.0
H692 H 0.14721 0.04565 0.78472 0.0
H693 H 0.04669 0.97471 0.79846 0.0
H694 H 0.15747 0.01276 0.74373 0.0
H695 H 0.0572 0.94202 0.75785 0.0
H696 H 0.14607 0.95998 0.66177 0.0
H697 H 0.12891 0.99953 0.69912 0.0
H698 H 0.10814 0.89595 0.74314 0.0
H699 H 0.12545 0.85676 0.70622 0.0
C700 C 0.12695 0.02355 0.7789 0.0
C701 C 0.09626 0.0128 0.79517 0.0
C702 C 0.13281 1.00473 0.75534 0.0
C703 C 0.1084 0.97442 0.74758 0.0
C704 C 0.07689 0.96482 0.76335 0.0
C705 C 0.07079 0.98382 0.78667 0.0
C706 C 0.13718 0.94572 0.67931 0.0
C707 C 0.13691 0.90514 0.68089 0.0
C708 C 0.12773 0.96838 0.70078 0.0
C709 C 0.11708 0.95097 0.72418 0.0
C710 C 0.11577 0.91042 0.72542 0.0
C711 C 0.1258 0.88788 0.7042 0.0
H712 H 0.72723 0.40657 0.03589 0.0
H713 H 0.78311 0.29566 0.04273 0.0
H714 H 0.75712 0.41593 0.99403 0.0
H715 H 0.81235 0.30465 1.00062 0.0
H716 H 0.89577 0.35586 0.94014 0.0
H717 H 0.8617 0.34132 0.97988 0.0
H718 H 0.75951 0.39681 0.95014 0.0
H719 H 0.79391 0.41211 0.9106 0.0
C720 C 0.74543 0.38387 0.02836 0.0
C721 C 0.7527 0.35039 0.04294 0.0
C722 C 0.76255 0.38918 1.00417 0.0
C723 C 0.7875 0.36117 0.99373 0.0
C724 C 0.79393 0.32724 1.00805 0.0
C725 C 0.77684 0.32193 0.03223 0.0
C726 C 0.86584 0.36446 0.94185 0.0
C727 C 0.84771 0.38508 0.92193 0.0
C728 C 0.84616 0.35603 0.96475 0.0
C729 C 0.80767 0.36796 0.96852 0.0
C730 C 0.78923 0.38761 0.94827 0.0
C731 C 0.80892 0.39606 0.92538 0.0
H732 H 0.3513 0.05018 0.16556 0.0
H733 H 0.4156 0.14896 0.19217 0.0
H734 H 0.36895 0.01483 0.2043 0.0
H735 H 0.43247 0.11404 0.23116 0.0
H736 H 0.47994 0.03316 0.29223 0.0
H737 H 0.46848 0.06306 0.25051 0.0
H738 H 0.35437 0.01302 0.2488 0.0
H739 H 0.36616 0.98248 0.29009 0.0
C740 C 0.3695 0.06432 0.17954 0.0
C741 C 0.38204 0.10254 0.17552 0.0
C742 C 0.37937 0.0441 0.20198 0.0
C743 C 0.40204 0.06144 0.2212 0.0
C744 C 0.41542 0.09932 0.21682 0.0
C745 C 0.40559 0.11952 0.19437 0.0
C746 C 0.45254 0.02814 0.28285 0.0
C747 C 0.42402 1.00529 0.29476 0.0
C748 C 0.44581 0.04563 0.25891 0.0
C749 C 0.41034 0.04084 0.24607 0.0
C750 C 0.38224 0.01716 0.25773 0.0
C751 C 0.38897 0.99968 0.28163 0.0
H752 H 0.30028 0.39831 0.61403 0.0
H753 H 0.40877 0.37528 0.57657 0.0
H754 H 0.26595 0.38245 0.57469 0.0
H755 H 0.37509 0.36185 0.53685 0.0
H756 H 0.30797 0.31678 0.4701 0.0
H757 H 0.33809 0.323 0.51193 0.0
H758 H 0.24888 0.40329 0.5346 0.0
H759 H 0.21762 0.39482 0.49317 0.0
C760 C 0.31683 0.38967 0.5974 0.0
C761 C 0.35734 0.38771 0.59864 0.0
C762 C 0.29713 0.38099 0.57458 0.0
C763 C 0.31735 0.37091 0.55208 0.0
C764 C 0.35796 0.36853 0.5536 0.0
C765 C 0.37754 0.37641 0.57653 0.0
C766 C 0.29456 0.33542 0.48417 0.0
C767 C 0.26035 0.3553 0.4782 0.0
C768 C 0.31212 0.33939 0.50823 0.0
C769 C 0.2966 0.36418 0.52701 0.0
C770 C 0.26178 0.38345 0.52111 0.0
C771 C 0.24375 0.37877 0.49718 0.0
H772 H 0.87257 0.96575 0.24178 0.0
H773 H 0.95656 0.05159 0.21982 0.0
H774 H 0.86371 0.99798 0.28283 0.0
H775 H 0.94947 0.08274 0.26126 0.0
H776 H 0.89674 0.15682 0.32439 0.0
H777 H 0.91045 0.12203 0.28512 0.0
H778 H 0.88448 0.01427 0.3234 0.0
H779 H 0.86877 0.04967 0.36238 0.0
C780 C 0.88975 0.9911 0.2459 0.0
C781 C 0.91513 1.00608 0.22729 0.0
C782 C 0.88482 0.00967 0.26964 0.0
C783 C 0.90556 0.04354 0.27575 0.0
C784 C 0.93203 0.05752 0.25737 0.0
C785 C 0.93645 0.03934 0.23352 0.0
C786 C 0.89451 0.12563 0.3246 0.0
C787 C 0.88183 0.1062 0.34678 0.0
C788 C 0.90253 0.10543 0.30191 0.0
C789 C 0.89871 0.0649 0.30061 0.0
C790 C 0.88715 0.04538 0.32315 0.0
C791 C 0.87855 0.06571 0.34576 0.0
H792 H 0.21112 0.60956 0.11127 0.0
H793 H 0.10437 0.64368 0.07536 0.0
H794 H 0.24641 0.62765 0.07255 0.0
H795 H 0.13894 0.65979 0.03633 0.0
H796 H 0.20955 0.71067 0.97242 0.0
H797 H 0.17869 0.70013 0.01374 0.0
H798 H 0.26192 0.61089 0.03107 0.0
H799 H 0.29388 0.62315 0.99024 0.0
C800 C 0.19514 0.62107 0.09515 0.0
C801 C 0.15482 0.62546 0.0967 0.0
C802 C 0.21539 0.63112 0.07268 0.0
C803 C 0.19593 0.64529 0.05082 0.0
C804 C 0.15555 0.64992 0.05262 0.0
C805 C 0.13546 0.64046 0.07517 0.0
C806 C 0.22154 0.68907 0.98517 0.0
C807 C 0.25431 0.66781 0.97782 0.0
C808 C 0.20351 0.68264 1.00894 0.0
C809 C 0.21714 0.65417 0.0261 0.0
C810 C 0.25051 0.63346 0.01887 0.0
C811 C 0.26893 0.64038 0.99524 0.0
H812 H 0.55052 0.96871 0.72428 0.0
H813 H 0.64888 0.04239 0.738 0.0
H814 H 0.56292 0.93485 0.76438 0.0
H815 H 0.66103 0.00838 0.77847 0.0
H816 H 0.65075 0.95342 0.86054 0.0
H817 H 0.63337 0.99324 0.82321 0.0
H818 H 0.61527 0.89003 0.77874 0.0
H819 H 0.63286 0.85058 0.81559 0.0
C820 C 0.57454 0.97814 0.73596 0.0
C821 C 0.59878 0.00835 0.72762 0.0
C822 C 0.58176 0.95847 0.75898 0.0
C823 C 0.61318 0.96858 0.77464 0.0
C824 C 0.63647 0.9999 0.76698 0.0
C825 C 0.62953 0.01936 0.7437 0.0
C826 C 0.64261 0.93928 0.84287 0.0
C827 C 0.64306 0.8987 0.84121 0.0
C828 C 0.63297 0.96211 0.82141 0.0
C829 C 0.62278 0.9449 0.79792 0.0
C830 C 0.6225 0.90435 0.79652 0.0
C831 C 0.63275 0.88167 0.81772 0.0
H832 H 0.39692 0.24639 0.06568 0.0
H833 H 0.4609 0.15409 0.10123 0.0
H834 H 0.45693 0.28015 0.05588 0.0
H835 H 0.52116 0.18819 0.09217 0.0
H836 H 0.62689 0.25575 0.07606 0.0
H837 H 0.56977 0.21772 0.06501 0.0
H838 H 0.49736 0.31435 0.08563 0.0
H839 H 0.5546 0.35208 0.09622 0.0
C840 C 0.42406 0.23257 0.0704 0.0
C841 C 0.42437 0.19756 0.08406 0.0
C842 C 0.45842 0.25217 0.06514 0.0
C843 C 0.49391 0.23744 0.07375 0.0
C844 C 0.49445 0.20041 0.0851 0.0
C845 C 0.45993 0.1806 0.09018 0.0
C846 C 0.59874 0.26927 0.07704 0.0
C847 C 0.595 0.30704 0.08642 0.0
C848 C 0.56601 0.24735 0.07108 0.0
C849 C 0.52883 0.26273 0.07459 0.0
C850 C 0.52543 0.30161 0.08227 0.0
C851 C 0.5582 0.32345 0.08827 0.0
H852 H 0.50832 0.63981 0.32567 0.0
H853 H 0.60744 0.70843 0.34556 0.0
H854 H 0.47157 0.69849 0.31652 0.0
H855 H 0.5709 0.76734 0.33656 0.0
H856 H 0.4988 0.87038 0.31859 0.0
H857 H 0.53319 0.81079 0.30758 0.0
H858 H 0.44752 0.74467 0.34884 0.0
H859 H 0.41375 0.80416 0.35985 0.0
C860 C 0.52281 0.66749 0.32681 0.0
C861 C 0.56093 0.66966 0.33577 0.0
C862 C 0.50162 0.70112 0.32193 0.0
C863 C 0.51809 0.73769 0.32606 0.0
C864 C 0.55738 0.73971 0.33288 0.0
C865 C 0.57851 0.70598 0.33789 0.0
C866 C 0.48645 0.84287 0.32418 0.0
C867 C 0.45316 0.84166 0.33953 0.0
C868 C 0.5064 0.80881 0.31821 0.0
C869 C 0.49326 0.77289 0.32739 0.0
C870 C 0.45823 0.77166 0.3411 0.0
C871 C 0.43867 0.80571 0.34733 0.0
H872 H 0.89639 0.76032 0.56742 0.0
H873 H 0.95685 0.66278 0.5993 0.0
H874 H 0.95759 0.79269 0.55901 0.0
H875 H 0.01825 0.69559 0.59205 0.0
H876 H 0.12718 0.75915 0.57839 0.0
H877 H 0.06837 0.72368 0.56771 0.0
H878 H 1.00081 0.82476 0.58621 0.0
H879 H 0.05985 0.8601 0.59588 0.0
C880 C 0.92299 0.74526 0.57181 0.0
C881 C 0.92189 0.70891 0.58382 0.0
C882 C 0.95812 0.76408 0.5674 0.0
C883 C 0.99313 0.74739 0.57538 0.0
C884 C 0.99212 0.70948 0.58542 0.0
C885 C 0.95686 0.69039 0.58949 0.0
C886 C 0.09975 0.77415 0.57896 0.0
C887 C 0.09802 0.81261 0.58732 0.0
C888 C 0.06594 0.75365 0.57329 0.0
C889 C 0.02947 0.77097 0.57632 0.0
C890 C 0.02814 0.81037 0.58318 0.0
C891 C 0.06203 0.83089 0.58866 0.0
H892 H 0.89712 0.31718 0.83311 0.0
H893 H 0.01075 0.36813 0.83247 0.0
H894 H 0.92576 0.25386 0.82484 0.0
H895 H 0.03939 0.30529 0.82541 0.0
H896 H 0.08877 0.18748 0.81839 0.0
H897 H 0.05385 0.24589 0.80474 0.0
H898 H 0.95863 0.21407 0.85407 0.0
H899 H 0.99263 0.15652 0.86685 0.0
C900 C 0.92804 0.3151 0.83042 0.0
C901 C 0.95168 0.34753 0.834 0.0
C902 C 0.94462 0.27871 0.82598 0.0
C903 C 0.98512 0.27406 0.8252 0.0
C904 C 0.00823 0.30736 0.82589 0.0
C905 C 0.99171 0.34356 0.83017 0.0
C906 C 0.05998 0.19271 0.82568 0.0
C907 C 0.04376 0.16782 0.84403 0.0
C908 C 0.03999 0.22624 0.81803 0.0
C909 C 1.00334 0.23513 0.82842 0.0
C910 C 0.98635 0.2084 0.84528 0.0
C911 C 1.00622 0.17542 0.85293 0.0
H912 H 0.62476 0.75491 0.94379 0.0
H913 H 0.55486 0.85438 0.92664 0.0
H914 H 0.56681 0.71772 0.95433 0.0
H915 H 0.49672 0.81749 0.93685 0.0
H916 H 0.39502 0.7507 0.95842 0.0
H917 H 0.45635 0.78278 0.96682 0.0
H918 H 0.51612 0.69094 0.92751 0.0
H919 H 0.45453 0.65857 0.91969 0.0
C920 C 0.59699 0.76924 0.94334 0.0
C921 C 0.59423 0.80775 0.93501 0.0
C922 C 0.56374 0.7478 0.949 0.0
C923 C 0.52692 0.76436 0.9463 0.0
C924 C 0.5245 0.80379 0.93957 0.0
C925 C 0.5578 0.82516 0.93382 0.0
C926 C 0.4215 0.73645 0.95272 0.0
C927 C 0.42006 0.70195 0.93863 0.0
C928 C 0.45662 0.75517 0.95715 0.0
C929 C 0.49122 0.74002 0.94736 0.0
C930 C 0.49015 0.70347 0.93547 0.0
C931 C 0.45485 0.6846 0.93115 0.0
H932 H 0.50231 0.37179 0.70639 0.0
H933 H 0.40541 0.31149 0.67378 0.0
H934 H 0.53484 0.31055 0.71438 0.0
H935 H 0.43828 0.24999 0.68095 0.0
H936 H 0.50294 0.14129 0.69563 0.0
H937 H 0.46722 0.19992 0.70655 0.0
H938 H 0.56625 0.26851 0.68483 0.0
H939 H 0.60173 0.20975 0.67448 0.0
C940 C 0.48735 0.34521 0.70183 0.0
C941 C 0.45124 0.34637 0.6896 0.0
C942 C 0.50625 0.3101 0.70603 0.0
C943 C 0.48974 0.27521 0.69778 0.0
C944 C 0.45194 0.27615 0.68772 0.0
C945 C 0.43283 0.31142 0.68372 0.0
C946 C 0.5175 0.16892 0.69436 0.0
C947 C 0.55538 0.17107 0.68486 0.0
C948 C 0.49686 0.20256 0.70021 0.0
C949 C 0.51357 0.23917 0.69643 0.0
C950 C 0.55246 0.24098 0.68843 0.0
C951 C 0.57303 0.2073 0.68258 0.0
H952 H 0.07299 0.35207 0.44763 0.0
H953 H 0.11955 0.24099 0.42668 0.0
H954 H 0.01223 0.32091 0.45939 0.0
H955 H 0.05908 0.21073 0.43571 0.0
H956 H 0.94653 0.15585 0.44332 0.0
H957 H 0.0081 0.18536 0.45488 0.0
H958 H 0.9587 0.29854 0.44177 0.0
H959 H 0.89753 0.26928 0.43304 0.0
C960 C 0.07044 0.32106 0.44572 0.0
C961 C 0.101 0.29942 0.43552 0.0
C962 C 0.03523 0.30298 0.45206 0.0
C963 C 0.02939 0.26296 0.44776 0.0
C964 C 0.06137 0.24127 0.43956 0.0
C965 C 0.09648 0.25904 0.43392 0.0
C966 C 0.9487 0.18702 0.44389 0.0
C967 C 0.91729 0.21002 0.43655 0.0
C968 C 0.98437 0.20423 0.45001 0.0
C969 C 0.98972 0.24479 0.44826 0.0
C970 C 0.95688 0.26749 0.44341 0.0
C971 C 0.92134 0.25044 0.43803 0.0
H972 H 0.10324 0.70372 0.17502 0.0
H973 H 1.00525 0.63861 0.202 0.0
H974 H 0.06895 0.7638 0.18427 0.0
H975 H 0.9711 0.69833 0.21174 0.0
H976 H 1.00429 0.86925 0.20355 0.0
H977 H 0.03821 0.80914 0.21281 0.0
H978 H 0.94095 0.74482 0.18367 0.0
H979 H 0.90692 0.80524 0.1749 0.0
C980 C 0.07519 0.70228 0.18414 0.0
C981 C 0.05702 0.66653 0.18789 0.0
C982 C 0.05524 0.73673 0.1893 0.0
C983 C 0.01679 0.73602 0.19835 0.0
C984 C 1.00023 0.70009 0.2043 0.0
C985 C 0.02005 0.66584 0.19908 0.0
C986 C 0.98951 0.84215 0.20023 0.0
C987 C 0.9528 0.8419 0.18871 0.0
C988 C 0.00922 0.80769 0.20515 0.0
C989 C 0.99281 0.77201 0.19854 0.0
C990 C 0.95453 0.77167 0.1892 0.0
C991 C 0.93472 0.80631 0.18434 0.0
H992 H 0.30835 0.31361 0.15916 0.0
H993 H 0.27135 0.3035 0.08054 0.0
H994 H 0.27737 0.37629 0.16217 0.0
H995 H 0.24245 0.36756 0.08284 0.0
H996 H 0.14126 0.44115 0.1092 0.0
H997 H 0.18626 0.38994 0.10095 0.0
H998 H 0.268 0.44206 0.15301 0.0
H999 H 0.22124 0.49317 0.16239 0.0
C1000 C 0.2948 0.32547 0.14218 0.0
C1001 C 0.29185 0.30342 0.11968 0.0
C1002 C 0.27707 0.36165 0.14387 0.0
C1003 C 0.25654 0.37697 0.12293 0.0
C1004 C 0.2568 0.35628 0.09968 0.0
C1005 C 0.27372 0.31969 0.0982 0.0
C1006 C 0.16889 0.44211 0.11886 0.0
C1007 C 0.17726 0.47115 0.13682 0.0
C1008 C 0.19516 0.41272 0.1138 0.0
C1009 C 0.2311 0.4115 0.12623 0.0
C1010 C 0.24041 0.44162 0.14332 0.0
C1011 C 0.21373 0.47112 0.14859 0.0
H1012 H 0.29178 0.46414 0.42911 0.0
H1013 H 0.27883 0.43489 0.34935 0.0
H1014 H 0.34474 0.50812 0.41803 0.0
H1015 H 0.33055 0.47952 0.33808 0.0
H1016 H 0.46439 0.4909 0.34112 0.0
H1017 H 0.3983 0.46874 0.34565 0.0
H1018 H 0.37343 0.5649 0.39556 0.0
H1019 H 0.4404 0.58712 0.39092 0.0
C1020 C 0.29916 0.46845 0.40913 0.0
C1021 C 0.28159 0.44597 0.39009 0.0
C1022 C 0.3295 0.49361 0.40273 0.0
C1023 C 0.34245 0.49676 0.37718 0.0
C1024 C 0.32194 0.47715 0.35798 0.0
C1025 C 0.29213 0.45179 0.36439 0.0
C1026 C 0.44448 0.50805 0.35236 0.0
C1027 C 0.45749 0.54076 0.36557 0.0
C1028 C 0.40646 0.49542 0.35496 0.0
C1029 C 0.38043 0.51493 0.37109 0.0
C1030 C 0.3928 0.54909 0.38313 0.0
C1031 C 0.43097 0.56209 0.38022 0.0
H1032 H 0.18599 0.69555 0.63555 0.0
H1033 H 0.28977 0.72969 0.59572 0.0
H1034 H 0.21022 0.62907 0.63821 0.0
H1035 H 0.31406 0.66427 0.59861 0.0
H1036 H 0.35055 0.54468 0.59695 0.0
H1037 H 0.30851 0.5985 0.58597 0.0
H1038 H 0.26188 0.59722 0.66278 0.0
H1039 H 0.30319 0.54207 0.67341 0.0
C1040 C 0.21342 0.68863 0.62673 0.0
C1041 C 0.23606 0.71782 0.61547 0.0
C1042 C 0.2275 0.65069 0.62851 0.0
C1043 C 0.26421 0.64123 0.61876 0.0
C1044 C 0.2855 0.67012 0.60607 0.0
C1045 C 0.27165 0.70783 0.60449 0.0
C1046 C 0.33059 0.5553 0.61129 0.0
C1047 C 0.33045 0.53957 0.63612 0.0
C1048 C 0.30662 0.58628 0.60505 0.0
C1049 C 0.28241 0.60286 0.62364 0.0
C1050 C 0.28004 0.58513 0.64794 0.0
C1051 C 0.30375 0.55358 0.65409 0.0
H1052 H 0.03949 0.51619 0.83347 0.0
H1053 H 0.05543 0.46849 0.90921 0.0
H1054 H 0.10346 0.54522 0.83549 0.0
H1055 H 0.11835 0.49929 0.91198 0.0
H1056 H 0.23776 0.55133 0.90926 0.0
H1057 H 0.18352 0.50805 0.90035 0.0
H1058 H 0.12888 0.5984 0.85606 0.0
H1059 H 0.18302 0.64023 0.86382 0.0
C1060 C 0.05685 0.51167 0.85047 0.0
C1061 C 0.04228 0.49035 0.87123 0.0
C1062 C 0.09345 0.52858 0.85178 0.0
C1063 C 0.11601 0.52547 0.87416 0.0
C1064 C 0.1022 0.50221 0.89434 0.0
C1065 C 0.06591 0.48462 0.8928 0.0
C1066 C 0.21438 0.56159 0.8973 0.0
C1067 C 0.21479 0.59941 0.88745 0.0
C1068 C 0.18311 0.53688 0.8923 0.0
C1069 C 0.15152 0.54954 0.87745 0.0
C1070 C 0.15275 0.58701 0.86709 0.0
C1071 C 0.1839 0.61137 0.87185 0.0
H1072 H 0.76539 0.70936 0.93755 0.0
H1073 H 0.67377 0.68807 0.88353 0.0
H1074 H 0.78796 0.64372 0.93256 0.0
H1075 H 0.69595 0.62129 0.87871 0.0
H1076 H 0.79663 0.54314 0.8449 0.0
H1077 H 0.75166 0.59427 0.85725 0.0
H1078 H 0.78159 0.57639 0.93681 0.0
H1079 H 0.8278 0.52698 0.92416 0.0
C1080 C 0.74913 0.69001 0.92536 0.0
C1081 C 0.71795 0.70383 0.9109 0.0
C1082 C 0.762 0.65216 0.92249 0.0
C1083 C 0.74407 0.62708 0.90497 0.0
C1084 C 0.71075 0.63996 0.89209 0.0
C1085 C 0.69767 0.67803 0.89513 0.0
C1086 C 0.79265 0.54953 0.86504 0.0
C1087 C 0.81594 0.53169 0.88357 0.0
C1088 C 0.76679 0.57873 0.87219 0.0
C1089 C 0.7635 0.5901 0.89804 0.0
C1090 C 0.78409 0.5692 0.91669 0.0
C1091 C 0.81039 0.54073 0.9095 0.0
H1092 H 0.72441 0.56349 0.59719 0.0
H1093 H 0.72681 0.59943 0.67622 0.0
H1094 H 0.66878 0.52228 0.6063 0.0
H1095 H 0.67261 0.55701 0.68578 0.0
H1096 H 0.54215 0.5344 0.68159 0.0
H1097 H 0.6064 0.56117 0.67756 0.0
H1098 H 0.63819 0.46856 0.62638 0.0
H1099 H 0.57298 0.44241 0.62973 0.0
C1100 C 0.71386 0.56147 0.6167 0.0
C1101 C 0.7296 0.58487 0.63595 0.0
C1102 C 0.68196 0.53782 0.62199 0.0
C1103 C 0.66555 0.53677 0.64674 0.0
C1104 C 0.6836 0.55787 0.66636 0.0
C1105 C 0.71493 0.58192 0.66097 0.0
C1106 C 0.56293 0.51927 0.66981 0.0
C1107 C 0.55211 0.48643 0.6558 0.0
C1108 C 0.60009 0.53455 0.66759 0.0
C1109 C 0.62771 0.51726 0.65147 0.0
C1110 C 0.61756 0.48309 0.6386 0.0
C1111 C 0.58021 0.46787 0.64072 0.0
H1112 H 0.82174 0.32033 0.37374 0.0
H1113 H 0.73239 0.29182 0.42845 0.0
H1114 H 0.7975 0.38622 0.37127 0.0
H1115 H 0.70793 0.35764 0.42568 0.0
H1116 H 0.6773 0.48309 0.42372 0.0
H1117 H 0.7183 0.42703 0.43301 0.0
H1118 H 0.73876 0.41249 0.35191 0.0
H1119 H 0.69812 0.46846 0.34294 0.0
C1120 C 0.79731 0.3282 0.38558 0.0
C1121 C 0.77871 0.30051 0.40105 0.0
C1122 C 0.78333 0.36601 0.38405 0.0
C1123 C 0.75053 0.37715 0.39805 0.0
C1124 C 0.73344 0.35016 0.41478 0.0
C1125 C 0.74735 0.31228 0.41625 0.0
C1126 C 0.69188 0.46864 0.40807 0.0
C1127 C 0.68537 0.48027 0.38269 0.0
C1128 C 0.7149 0.43632 0.41331 0.0
C1129 C 0.73169 0.41513 0.3932 0.0
C1130 C 0.72681 0.42839 0.36789 0.0
C1131 C 0.70363 0.46048 0.36269 0.0
H1132 H 0.76881 0.43603 0.17047 0.0
H1133 H 0.80616 0.43691 0.09165 0.0
H1134 H 0.82282 0.47892 0.18181 0.0
H1135 H 0.8592 0.48019 0.10264 0.0
H1136 H 0.93998 0.57271 0.12512 0.0
H1137 H 0.87479 0.5475 0.12059 0.0
H1138 H 0.89708 0.46414 0.18033 0.0
H1139 H 0.96271 0.48906 0.18487 0.0
C1140 C 0.78781 0.44657 0.15551 0.0
C1141 C 0.78341 0.43373 0.1302 0.0
C1142 C 0.81874 0.47074 0.16198 0.0
C1143 C 0.84508 0.48292 0.14309 0.0
C1144 C 0.83908 0.47172 0.11753 0.0
C1145 C 0.80881 0.44699 0.11122 0.0
C1146 C 0.93086 0.5496 0.13776 0.0
C1147 C 0.95693 0.53242 0.15504 0.0
C1148 C 0.89346 0.53518 0.13511 0.0
C1149 C 0.88107 0.50364 0.14989 0.0
C1150 C 0.90586 0.48861 0.16875 0.0
C1151 C 0.94352 0.50279 0.17125 0.0
H1152 H 0.74248 0.8014 0.58947 0.0
H1153 H 0.82036 0.82453 0.65222 0.0
H1154 H 0.71583 0.86637 0.59354 0.0
H1155 H 0.79353 0.88929 0.65625 0.0
H1156 H 0.68468 0.99361 0.60133 0.0
H1157 H 0.72855 0.93958 0.59191 0.0
H1158 H 0.72644 0.90667 0.67179 0.0
H1159 H 0.68239 0.95988 0.68088 0.0
C1160 C 0.75452 0.82057 0.60374 0.0
C1161 C 0.78322 0.80749 0.62072 0.0
C1162 C 0.73938 0.8579 0.60597 0.0
C1163 C 0.75237 0.88278 0.62537 0.0
C1164 C 0.78274 0.8706 0.64126 0.0
C1165 C 0.79818 0.83349 0.63886 0.0
C1166 C 0.69468 0.97539 0.61687 0.0
C1167 C 0.68071 0.98089 0.64184 0.0
C1168 C 0.71942 0.94439 0.6115 0.0
C1169 C 0.73096 0.91893 0.63112 0.0
C1170 C 0.71854 0.92603 0.65632 0.0
C1171 C 0.69334 0.95643 0.66156 0.0
H1172 H 0.75507 0.9774 0.89503 0.0
H1173 H 0.82939 0.88117 0.87706 0.0
H1174 H 0.80695 0.0223 0.88224 0.0
H1175 H 0.88026 0.92493 0.8648 0.0
H1176 H 0.96532 0.99895 0.83328 0.0
H1177 H 0.90054 0.9715 0.83356 0.0
H1178 H 0.8719 0.04037 0.89979 0.0
H1179 H 0.93639 0.0693 0.89853 0.0
C1180 C 0.78214 0.96591 0.88804 0.0
C1181 C 0.78835 0.92582 0.88732 0.0
C1182 C 0.81183 0.99151 0.88082 0.0
C1183 C 0.84771 0.97726 0.87229 0.0
C1184 C 0.85291 0.93713 0.87073 0.0
C1185 C 0.82377 0.9119 0.87812 0.0
C1186 C 0.94459 0.00933 0.84721 0.0
C1187 C 0.95576 0.03594 0.86597 0.0
C1188 C 0.9076 0.99344 0.84754 0.0
C1189 C 0.88139 1.00291 0.86716 0.0
C1190 C 0.89131 0.03246 0.88441 0.0
C1191 C 0.92825 0.04903 0.88372 0.0
H1192 H 0.87617 0.07215 0.11134 0.0
H1193 H 0.79174 0.01623 0.15986 0.0
H1194 H 0.83087 0.12239 0.10139 0.0
H1195 H 0.74483 0.06658 0.14879 0.0
H1196 H 0.70211 0.19567 0.15323 0.0
H1197 H 0.73214 0.13232 0.15744 0.0
H1198 H 0.77632 0.14264 0.08016 0.0
H1199 H 0.74855 0.20718 0.07702 0.0
C1200 C 0.84757 0.07014 0.11963 0.0
C1201 C 0.8379 0.04015 0.1367 0.0
C1202 C 0.82113 0.09898 0.11356 0.0
C1203 C 0.78375 0.09875 0.12404 0.0
C1204 C 0.77344 0.06802 0.14049 0.0
C1205 C 0.80026 0.03902 0.14678 0.0
C1206 C 0.7171 0.18362 0.13687 0.0
C1207 C 0.72299 0.20604 0.11476 0.0
C1208 C 0.73444 0.14726 0.13926 0.0
C1209 C 0.75765 0.13249 0.1194 0.0
C1210 C 0.75984 0.15349 0.09623 0.0
C1211 C 0.74339 0.19022 0.09416 0.0
H1212 H 0.57936 0.93918 0.40145 0.0
H1213 H 0.57277 0.9758 0.32269 0.0
H1214 H 0.64279 0.96857 0.40532 0.0
H1215 H 0.63788 1.00211 0.32546 0.0
H1216 H 0.70313 0.10808 0.35289 0.0
H1217 H 0.65649 0.05926 0.34297 0.0
H1218 H 0.70788 0.9832 0.39928 0.0
H1219 H 0.75418 0.03402 0.41031 0.0
C1220 C 0.59263 0.9515 0.3845 0.0
C1221 C 0.57126 0.95536 0.36179 0.0
C1222 C 0.62914 0.96855 0.38668 0.0
C1223 C 0.64529 0.98914 0.36597 0.0
C1224 C 0.62587 0.98803 0.34221 0.0
C1225 C 0.58884 0.97216 0.34033 0.0
C1226 C 0.70494 0.08092 0.36315 0.0
C1227 C 0.73218 0.07542 0.38278 0.0
C1228 C 0.67825 0.05232 0.3571 0.0
C1229 C 0.67803 0.01675 0.37017 0.0
C1230 C 0.70663 0.01032 0.38897 0.0
C1231 C 0.73339 0.03938 0.39524 0.0
H1232 H 0.21655 0.19818 0.36894 0.0
H1233 H 0.28146 0.22713 0.43688 0.0
H1234 H 0.24748 0.13489 0.36793 0.0
H1235 H 0.31167 0.16369 0.43613 0.0
H1236 H 0.40218 0.08587 0.3971 0.0
H1237 H 0.36028 0.13985 0.40659 0.0
H1238 H 0.26058 0.07044 0.38813 0.0
H1239 H 0.30326 0.01564 0.3783 0.0
C1240 C 0.23667 0.19073 0.38403 0.0
C1241 C 0.2471 0.21806 0.40271 0.0
C1242 C 0.25426 0.15432 0.38351 0.0
C1243 C 0.28252 0.14446 0.4017 0.0
C1244 C 0.29061 0.17069 0.42152 0.0
C1245 C 0.27321 0.20705 0.42198 0.0
C1246 C 0.37129 0.08184 0.39528 0.0
C1247 C 0.35605 0.04657 0.38671 0.0
C1248 C 0.34717 0.11278 0.40099 0.0
C1249 C 0.30701 0.10953 0.3982 0.0
C1250 C 0.29145 0.07387 0.39036 0.0
C1251 C 0.31579 0.04248 0.38488 0.0
H1252 H 0.05544 0.99433 0.19176 0.0
H1253 H 0.06702 0.95624 0.11346 0.0
H1254 H 0.1198 0.02261 0.1898 0.0
H1255 H 0.13022 0.98642 0.11086 0.0
H1256 H 0.24816 0.04042 0.11208 0.0
H1257 H 0.19611 0.99458 0.12128 0.0
H1258 H 0.1424 0.07884 0.17079 0.0
H1259 H 0.19446 0.1232 0.16261 0.0
C1260 C 0.07202 0.99155 0.17426 0.0
C1261 C 0.05606 0.97343 0.15273 0.0
C1262 C 0.10879 0.00806 0.17299 0.0
C1263 C 0.13002 1.00778 0.14994 0.0
C1264 C 0.11506 0.98713 0.12899 0.0
C1265 C 0.07862 0.96987 0.13045 0.0
C1266 C 0.22551 0.04875 0.12525 0.0
C1267 C 0.22538 0.08568 0.13635 0.0
C1268 C 0.19553 0.02258 0.13044 0.0
C1269 C 0.16478 0.03286 0.14677 0.0
C1270 C 0.16571 0.0693 0.15853 0.0
C1271 C 0.19557 0.09514 0.15353 0.0
H1272 H 0.18449 0.95826 0.84142 0.0
H1273 H 0.19379 1.00281 0.91822 0.0
H1274 H 0.22994 0.90684 0.85198 0.0
H1275 H 0.23888 0.95039 0.92919 0.0
H1276 H 0.25069 0.81092 0.93757 0.0
H1277 H 0.2248 0.87599 0.93175 0.0
H1278 H 0.29954 0.89297 0.86653 0.0
H1279 H 0.32575 0.82831 0.87235 0.0
C1280 C 0.19725 0.95757 0.86037 0.0
C1281 C 0.18615 0.98455 0.87894 0.0
C1282 C 0.22325 0.9282 0.86644 0.0
C1283 C 0.23796 0.92462 0.89142 0.0
C1284 C 0.22801 0.95257 0.90979 0.0
C1285 C 0.20256 0.98264 0.90349 0.0
C1286 C 0.26243 0.82891 0.92245 0.0
C1287 C 0.28991 0.81409 0.90523 0.0
C1288 C 0.2477 0.86626 0.91919 0.0
C1289 C 0.25989 0.88934 0.89851 0.0
C1290 C 0.28942 0.87566 0.88251 0.0
C1291 C 0.30449 0.83859 0.88594 0.0
H1292 H 0.29674 0.9605 0.59564 0.0
H1293 H 0.26751 0.94384 0.67519 0.0
H1294 H 0.34862 1.0046 0.60784 0.0
H1295 H 0.32008 0.98754 0.68763 0.0
H1296 H 0.43611 0.08902 0.63473 0.0
H1297 H 0.36903 0.06748 0.63057 0.0
H1298 H 0.39226 0.97257 0.68204 0.0
H1299 H 0.45919 0.99363 0.68579 0.0
C1300 C 0.3006 0.96755 0.6157 0.0
C1301 C 0.27806 0.94936 0.6345 0.0
C1302 C 0.33023 0.99278 0.62271 0.0
C1303 C 0.33843 0.99951 0.64871 0.0
C1304 C 0.31433 0.98294 0.66747 0.0
C1305 C 0.28418 0.9582 0.66039 0.0
C1306 C 0.42644 0.06446 0.64591 0.0
C1307 C 0.45281 0.04289 0.66054 0.0
C1308 C 0.38815 0.05197 0.64337 0.0
C1309 C 0.37548 0.01822 0.65586 0.0
C1310 C 0.40102 0.99885 0.67236 0.0
C1311 C 0.43938 0.01084 0.67448 0.0
loop_
_geom_bond_atom_site_label_1
_geom_bond_atom_site_label_2
_geom_bond_distance
_geom_bond_site_symmetry_2
_ccdc_geom_bond_type
Fe0 O2 1.918 . S
Fe0 O5 1.997 . S
Fe0 O6 2.002 . S
Fe0 O11 1.976 . S
Fe0 O14 1.996 . S
Fe1 O2 1.918 . S
Fe1 O9 1.997 . S
Fe1 O12 1.996 . S
Fe1 O16 1.976 . S
Fe1 O19 2.002 . S
O2 Fe0 1.918 . S
O2 Fe1 1.918 . S
O2 Fe3 1.918 . S
Fe3 O2 1.918 . S
Fe3 O4 2.002 . S
Fe3 O13 1.976 . S
Fe3 O17 1.996 . S
Fe3 O20 1.997 . S
O4 Fe3 2.002 . S
O4 C21 1.295 . S
O5 Fe0 1.997 . S
O5 C21 1.235 . S
O6 Fe0 2.002 . S
O6 C7 1.295 . S
C7 O6 1.295 . S
C7 O9 1.235 . S
C8 O13 1.287 . S
C8 O14 1.255 . S
O9 Fe1 1.997 . S
O9 C7 1.235 . S
C10 O16 1.287 . S
C10 O17 1.255 . S
O11 Fe0 1.976 . S
O11 C18 1.287 . S
O12 Fe1 1.996 . S
O12 C18 1.255 . S
O13 Fe3 1.976 . S
O13 C8 1.287 . S
O14 Fe0 1.996 . S
O14 C8 1.255 . S
C15 O19 1.295 . S
C15 O20 1.235 . S
O16 Fe1 1.976 . S
O16 C10 1.287 . S
O17 Fe3 1.996 . S
O17 C10 1.255 . S
C18 O11 1.287 . S
C18 O12 1.255 . S
O19 Fe1 2.002 . S
O19 C15 1.295 . S
O20 Fe3 1.997 . S
O20 C15 1.235 . S
C21 O4 1.295 . S
C21 O5 1.235 . S
Fe22 O24 1.918 . S
Fe22 O27 1.997 . S
Fe22 O28 2.002 . S
Fe22 O33 1.976 . S
Fe22 O36 1.996 . S
Fe23 O24 1.918 . S
Fe23 O31 1.997 . S
Fe23 O34 1.996 . S
Fe23 O38 1.976 . S
Fe23 O41 2.002 . S
O24 Fe22 1.918 . S
O24 Fe23 1.918 . S
O24 Fe25 1.918 . S
Fe25 O24 1.918 . S
Fe25 O26 2.002 . S
Fe25 O35 1.976 . S
Fe25 O39 1.996 . S
Fe25 O42 1.997 . S
O26 Fe25 2.002 . S
O26 C43 1.295 . S
O27 Fe22 1.997 . S
O27 C43 1.235 . S
O28 Fe22 2.002 . S
O28 C29 1.295 . S
C29 O28 1.295 . S
C29 O31 1.235 . S
C30 O35 1.287 . S
C30 O36 1.255 . S
O31 Fe23 1.997 . S
O31 C29 1.235 . S
C32 O38 1.287 . S
C32 O39 1.255 . S
O33 Fe22 1.976 . S
O33 C40 1.287 . S
O34 Fe23 1.996 . S
O34 C40 1.255 . S
O35 Fe25 1.976 . S
O35 C30 1.287 . S
O36 Fe22 1.996 . S
O36 C30 1.255 . S
C37 O41 1.295 . S
C37 O42 1.235 . S
O38 Fe23 1.976 . S
O38 C32 1.287 . S
O39 Fe25 1.996 . S
O39 C32 1.255 . S
C40 O33 1.287 . S
C40 O34 1.255 . S
O41 Fe23 2.002 . S
O41 C37 1.295 . S
O42 Fe25 1.997 . S
O42 C37 1.235 . S
C43 O26 1.295 . S
C43 O27 1.235 . S
Fe44 O46 1.918 . S
Fe44 O49 1.997 . S
Fe44 O50 2.002 . S
Fe44 O55 1.976 . S
Fe44 O58 1.996 . S
Fe45 O46 1.918 . S
Fe45 O53 1.997 . S
Fe45 O56 1.996 . S
Fe45 O60 1.976 . S
Fe45 O63 2.002 . S
O46 Fe44 1.918 . S
O46 Fe45 1.918 . S
O46 Fe47 1.918 . S
Fe47 O46 1.918 . S
Fe47 O48 2.002 . S
Fe47 O57 1.976 . S
Fe47 O61 1.996 . S
Fe47 O64 1.997 . S
O48 Fe47 2.002 . S
O48 C65 1.295 . S
O49 Fe44 1.997 . S
O49 C65 1.235 . S
O50 Fe44 2.002 . S
O50 C51 1.295 . S
C51 O50 1.295 . S
C51 O53 1.235 . S
C52 O57 1.287 . S
C52 O58 1.255 . S
O53 Fe45 1.997 . S
O53 C51 1.235 . S
C54 O60 1.287 . S
C54 O61 1.255 . S
O55 Fe44 1.976 . S
O55 C62 1.287 . S
O56 Fe45 1.996 . S
O56 C62 1.255 . S
O57 Fe47 1.976 . S
O57 C52 1.287 . S
O58 Fe44 1.996 . S
O58 C52 1.255 . S
C59 O63 1.295 . S
C59 O64 1.235 . S
O60 Fe45 1.976 . S
O60 C54 1.287 . S
O61 Fe47 1.996 . S
O61 C54 1.255 . S
C62 O55 1.287 . S
C62 O56 1.255 . S
O63 Fe45 2.002 . S
O63 C59 1.295 . S
O64 Fe47 1.997 . S
O64 C59 1.235 . S
C65 O48 1.295 . S
C65 O49 1.235 . S
Fe66 O68 1.918 . S
Fe66 O71 1.997 . S
Fe66 O72 2.002 . S
Fe66 O77 1.976 1_655 S
Fe66 O80 1.996 . S
Fe67 O68 1.918 . S
Fe67 O75 1.997 . S
Fe67 O78 1.996 . S
Fe67 O82 1.976 . S
Fe67 O85 2.002 . S
O68 Fe66 1.918 . S
O68 Fe67 1.918 . S
O68 Fe69 1.918 . S
Fe69 O68 1.918 . S
Fe69 O70 2.002 . S
Fe69 O79 1.976 . S
Fe69 O83 1.996 . S
Fe69 O86 1.997 . S
O70 Fe69 2.002 . S
O70 C87 1.295 . S
O71 Fe66 1.997 . S
O71 C87 1.235 . S
O72 Fe66 2.002 . S
O72 C73 1.295 . S
C73 O72 1.295 . S
C73 O75 1.235 . S
C74 O79 1.287 . S
C74 O80 1.255 . S
O75 Fe67 1.997 . S
O75 C73 1.235 . S
C76 O82 1.287 . S
C76 O83 1.255 . S
O77 Fe66 1.976 1_455 S
O77 C84 1.287 . S
O78 Fe67 1.996 . S
O78 C84 1.255 1_655 S
O79 Fe69 1.976 . S
O79 C74 1.287 . S
O80 Fe66 1.996 . S
O80 C74 1.255 . S
C81 O85 1.295 . S
C81 O86 1.235 . S
O82 Fe67 1.976 . S
O82 C76 1.287 . S
O83 Fe69 1.996 . S
O83 C76 1.255 . S
C84 O77 1.287 . S
C84 O78 1.255 1_455 S
O85 Fe67 2.002 . S
O85 C81 1.295 . S
O86 Fe69 1.997 . S
O86 C81 1.235 . S
C87 O70 1.295 . S
C87 O71 1.235 . S
Fe88 O90 1.918 . S
Fe88 O93 1.997 . S
Fe88 O94 2.002 . S
Fe88 O99 1.976 . S
Fe88 O102 1.996 . S
Fe89 O90 1.918 . S
Fe89 O97 1.997 . S
Fe89 O100 1.996 . S
Fe89 O104 1.976 . S
Fe89 O107 2.002 . S
O90 Fe88 1.918 . S
O90 Fe89 1.918 . S
O90 Fe91 1.918 . S
Fe91 O90 1.918 . S
Fe91 O92 2.002 . S
Fe91 O101 1.976 . S
Fe91 O105 1.996 . S
Fe91 O108 1.997 . S
O92 Fe91 2.002 . S
O92 C109 1.295 . S
O93 Fe88 1.997 . S
O93 C109 1.235 . S
O94 Fe88 2.002 . S
O94 C95 1.295 . S
C95 O94 1.295 . S
C95 O97 1.235 . S
C96 O101 1.287 . S
C96 O102 1.255 . S
O97 Fe89 1.997 . S
O97 C95 1.235 . S
C98 O104 1.287 . S
C98 O105 1.255 . S
O99 Fe88 1.976 . S
O99 C106 1.287 . S
O100 Fe89 1.996 . S
O100 C106 1.255 . S
O101 Fe91 1.976 . S
O101 C96 1.287 . S
O102 Fe88 1.996 . S
O102 C96 1.255 . S
C103 O107 1.295 . S
C103 O108 1.235 . S
O104 Fe89 1.976 . S
O104 C98 1.287 . S
O105 Fe91 1.996 . S
O105 C98 1.255 . S
C106 O99 1.287 . S
C106 O100 1.255 . S
O107 Fe89 2.002 . S
O107 C103 1.295 . S
O108 Fe91 1.997 . S
O108 C103 1.235 . S
C109 O92 1.295 . S
C109 O93 1.235 . S
Fe110 O112 1.918 . S
Fe110 O115 1.997 . S
Fe110 O116 2.002 . S
Fe110 O121 1.976 . S
Fe110 O124 1.996 . S
Fe111 O112 1.918 . S
Fe111 O119 1.997 . S
Fe111 O122 1.996 . S
Fe111 O126 1.976 . S
Fe111 O129 2.002 . S
O112 Fe110 1.918 . S
O112 Fe111 1.918 . S
O112 Fe113 1.918 . S
Fe113 O112 1.918 . S
Fe113 O114 2.002 . S
Fe113 O123 1.976 . S
Fe113 O127 1.996 . S
Fe113 O130 1.997 . S
O114 Fe113 2.002 . S
O114 C131 1.295 . S
O115 Fe110 1.997 . S
O115 C131 1.235 . S
O116 Fe110 2.002 . S
O116 C117 1.295 . S
C117 O116 1.295 . S
C117 O119 1.235 . S
C118 O123 1.287 . S
C118 O124 1.255 . S
O119 Fe111 1.997 . S
O119 C117 1.235 . S
C120 O126 1.287 . S
C120 O127 1.255 . S
O121 Fe110 1.976 . S
O121 C128 1.287 . S
O122 Fe111 1.996 . S
O122 C128 1.255 . S
O123 Fe113 1.976 . S
O123 C118 1.287 . S
O124 Fe110 1.996 . S
O124 C118 1.255 . S
C125 O129 1.295 . S
C125 O130 1.235 . S
O126 Fe111 1.976 . S
O126 C120 1.287 . S
O127 Fe113 1.996 . S
O127 C120 1.255 . S
C128 O121 1.287 . S
C128 O122 1.255 . S
O129 Fe111 2.002 . S
O129 C125 1.295 . S
O130 Fe113 1.997 . S
O130 C125 1.235 . S
C131 O114 1.295 . S
C131 O115 1.235 . S
Fe132 O134 1.918 . S
Fe132 O137 1.997 . S
Fe132 O138 2.002 . S
Fe132 O143 1.976 . S
Fe132 O146 1.996 . S
Fe133 O134 1.918 . S
Fe133 O141 1.997 . S
Fe133 O144 1.996 . S
Fe133 O148 1.976 . S
Fe133 O151 2.002 . S
O134 Fe132 1.918 . S
O134 Fe133 1.918 . S
O134 Fe135 1.918 . S
Fe135 O134 1.918 . S
Fe135 O136 2.002 . S
Fe135 O145 1.976 . S
Fe135 O149 1.996 . S
Fe135 O152 1.997 . S
O136 Fe135 2.002 . S
O136 C153 1.295 . S
O137 Fe132 1.997 . S
O137 C153 1.235 . S
O138 Fe132 2.002 . S
O138 C139 1.295 . S
C139 O138 1.295 . S
C139 O141 1.235 . S
C140 O145 1.287 . S
C140 O146 1.255 . S
O141 Fe133 1.997 . S
O141 C139 1.235 . S
C142 O148 1.287 . S
C142 O149 1.255 . S
O143 Fe132 1.976 . S
O143 C150 1.287 . S
O144 Fe133 1.996 . S
O144 C150 1.255 . S
O145 Fe135 1.976 . S
O145 C140 1.287 . S
O146 Fe132 1.996 . S
O146 C140 1.255 . S
C147 O151 1.295 . S
C147 O152 1.235 . S
O148 Fe133 1.976 . S
O148 C142 1.287 . S
O149 Fe135 1.996 . S
O149 C142 1.255 . S
C150 O143 1.287 . S
C150 O144 1.255 . S
O151 Fe133 2.002 . S
O151 C147 1.295 . S
O152 Fe135 1.997 . S
O152 C147 1.235 . S
C153 O136 1.295 . S
C153 O137 1.235 . S
Fe154 O156 1.918 . S
Fe154 O159 1.997 . S
Fe154 O160 2.002 . S
Fe154 O165 1.976 . S
Fe154 O168 1.996 . S
Fe155 O156 1.918 . S
Fe155 O163 1.997 . S
Fe155 O166 1.996 . S
Fe155 O170 1.976 . S
Fe155 O173 2.002 . S
O156 Fe154 1.918 . S
O156 Fe155 1.918 . S
O156 Fe157 1.918 . S
Fe157 O156 1.918 . S
Fe157 O158 2.002 . S
Fe157 O167 1.976 1_455 S
Fe157 O171 1.996 . S
Fe157 O174 1.997 . S
O158 Fe157 2.002 . S
O158 C175 1.295 . S
O159 Fe154 1.997 . S
O159 C175 1.235 . S
O160 Fe154 2.002 . S
O160 C161 1.295 . S
C161 O160 1.295 . S
C161 O163 1.235 . S
C162 O167 1.287 . S
C162 O168 1.255 1_655 S
O163 Fe155 1.997 . S
O163 C161 1.235 . S
C164 O170 1.287 . S
C164 O171 1.255 . S
O165 Fe154 1.976 . S
O165 C172 1.287 . S
O166 Fe155 1.996 . S
O166 C172 1.255 . S
O167 Fe157 1.976 1_655 S
O167 C162 1.287 . S
O168 Fe154 1.996 . S
O168 C162 1.255 1_455 S
C169 O173 1.295 . S
C169 O174 1.235 . S
O170 Fe155 1.976 . S
O170 C164 1.287 . S
O171 Fe157 1.996 . S
O171 C164 1.255 . S
C172 O165 1.287 . S
C172 O166 1.255 . S
O173 Fe155 2.002 . S
O173 C169 1.295 . S
O174 Fe157 1.997 . S
O174 C169 1.235 . S
C175 O158 1.295 . S
C175 O159 1.235 . S
Fe176 O178 1.918 . S
Fe176 O181 1.997 . S
Fe176 O182 2.002 . S
Fe176 O187 1.976 . S
Fe176 O190 1.996 . S
Fe177 O178 1.918 . S
Fe177 O185 1.997 . S
Fe177 O188 1.996 . S
Fe177 O192 1.976 . S
Fe177 O195 2.002 . S
O178 Fe176 1.918 . S
O178 Fe177 1.918 . S
O178 Fe179 1.918 . S
Fe179 O178 1.918 . S
Fe179 O180 2.002 . S
Fe179 O189 1.976 . S
Fe179 O193 1.996 . S
Fe179 O196 1.997 . S
O180 Fe179 2.002 . S
O180 C197 1.295 . S
O181 Fe176 1.997 . S
O181 C197 1.235 . S
O182 Fe176 2.002 . S
O182 C183 1.295 . S
C183 O182 1.295 . S
C183 O185 1.235 . S
C184 O189 1.287 . S
C184 O190 1.255 . S
O185 Fe177 1.997 . S
O185 C183 1.235 . S
C186 O192 1.287 . S
C186 O193 1.255 . S
O187 Fe176 1.976 . S
O187 C194 1.287 . S
O188 Fe177 1.996 . S
O188 C194 1.255 . S
O189 Fe179 1.976 . S
O189 C184 1.287 . S
O190 Fe176 1.996 . S
O190 C184 1.255 . S
C191 O195 1.295 . S
C191 O196 1.235 . S
O192 Fe177 1.976 . S
O192 C186 1.287 . S
O193 Fe179 1.996 . S
O193 C186 1.255 . S
C194 O187 1.287 . S
C194 O188 1.255 . S
O195 Fe177 2.002 . S
O195 C191 1.295 . S
O196 Fe179 1.997 . S
O196 C191 1.235 . S
C197 O180 1.295 . S
C197 O181 1.235 . S
Fe198 O200 1.918 . S
Fe198 O203 1.997 . S
Fe198 O204 2.002 1_545 S
Fe198 O209 1.976 . S
Fe198 O212 1.996 . S
Fe199 O200 1.918 . S
Fe199 O207 1.997 . S
Fe199 O210 1.996 . S
Fe199 O214 1.976 . S
Fe199 O217 2.002 . S
O200 Fe198 1.918 . S
O200 Fe199 1.918 . S
O200 Fe201 1.918 . S
Fe201 O200 1.918 . S
Fe201 O202 2.002 . S
Fe201 O211 1.976 1_455 S
Fe201 O215 1.996 . S
Fe201 O218 1.997 . S
O202 Fe201 2.002 . S
O202 C219 1.295 . S
O203 Fe198 1.997 . S
O203 C219 1.235 . S
O204 Fe198 2.002 1_565 S
O204 C205 1.295 1_565 S
C205 O204 1.295 1_545 S
C205 O207 1.235 . S
C206 O211 1.287 . S
C206 O212 1.255 1_655 S
O207 Fe199 1.997 . S
O207 C205 1.235 . S
C208 O214 1.287 . S
C208 O215 1.255 . S
O209 Fe198 1.976 . S
O209 C216 1.287 . S
O210 Fe199 1.996 . S
O210 C216 1.255 . S
O211 Fe201 1.976 1_655 S
O211 C206 1.287 . S
O212 Fe198 1.996 . S
O212 C206 1.255 1_455 S
C213 O217 1.295 . S
C213 O218 1.235 . S
O214 Fe199 1.976 . S
O214 C208 1.287 . S
O215 Fe201 1.996 . S
O215 C208 1.255 . S
C216 O209 1.287 . S
C216 O210 1.255 . S
O217 Fe199 2.002 . S
O217 C213 1.295 . S
O218 Fe201 1.997 . S
O218 C213 1.235 . S
C219 O202 1.295 . S
C219 O203 1.235 . S
Fe220 O222 1.918 . S
Fe220 O225 1.997 . S
Fe220 O226 2.002 . S
Fe220 O231 1.976 . S
Fe220 O234 1.996 . S
Fe221 O222 1.918 . S
Fe221 O229 1.997 . S
Fe221 O232 1.996 . S
Fe221 O236 1.976 . S
Fe221 O239 2.002 . S
O222 Fe220 1.918 . S
O222 Fe221 1.918 . S
O222 Fe223 1.918 . S
Fe223 O222 1.918 . S
Fe223 O224 2.002 . S
Fe223 O233 1.976 . S
Fe223 O237 1.996 . S
Fe223 O240 1.997 . S
O224 Fe223 2.002 . S
O224 C241 1.295 . S
O225 Fe220 1.997 . S
O225 C241 1.235 . S
O226 Fe220 2.002 . S
O226 C227 1.295 . S
C227 O226 1.295 . S
C227 O229 1.235 . S
C228 O233 1.287 . S
C228 O234 1.255 . S
O229 Fe221 1.997 . S
O229 C227 1.235 . S
C230 O236 1.287 . S
C230 O237 1.255 . S
O231 Fe220 1.976 . S
O231 C238 1.287 . S
O232 Fe221 1.996 . S
O232 C238 1.255 . S
O233 Fe223 1.976 . S
O233 C228 1.287 . S
O234 Fe220 1.996 . S
O234 C228 1.255 . S
C235 O239 1.295 . S
C235 O240 1.235 . S
O236 Fe221 1.976 . S
O236 C230 1.287 . S
O237 Fe223 1.996 . S
O237 C230 1.255 . S
C238 O231 1.287 . S
C238 O232 1.255 . S
O239 Fe221 2.002 . S
O239 C235 1.295 . S
O240 Fe223 1.997 . S
O240 C235 1.235 . S
C241 O224 1.295 . S
C241 O225 1.235 . S
Fe242 O244 1.918 . S
Fe242 O247 1.997 . S
Fe242 O248 2.002 . S
Fe242 O253 1.976 . S
Fe242 O256 1.996 . S
Fe243 O244 1.918 . S
Fe243 O251 1.997 . S
Fe243 O254 1.996 . S
Fe243 O258 1.976 . S
Fe243 O261 2.002 1_565 S
O244 Fe242 1.918 . S
O244 Fe243 1.918 . S
O244 Fe245 1.918 . S
Fe245 O244 1.918 . S
Fe245 O246 2.002 . S
Fe245 O255 1.976 . S
Fe245 O259 1.996 . S
Fe245 O262 1.997 . S
O246 Fe245 2.002 . S
O246 C263 1.295 . S
O247 Fe242 1.997 . S
O247 C263 1.235 . S
O248 Fe242 2.002 . S
O248 C249 1.295 . S
C249 O248 1.295 . S
C249 O251 1.235 . S
C250 O255 1.287 . S
C250 O256 1.255 . S
O251 Fe243 1.997 . S
O251 C249 1.235 . S
C252 O258 1.287 . S
C252 O259 1.255 . S
O253 Fe242 1.976 . S
O253 C260 1.287 . S
O254 Fe243 1.996 . S
O254 C260 1.255 . S
O255 Fe245 1.976 . S
O255 C250 1.287 . S
O256 Fe242 1.996 . S
O256 C250 1.255 . S
C257 O261 1.295 1_565 S
C257 O262 1.235 . S
O258 Fe243 1.976 . S
O258 C252 1.287 . S
O259 Fe245 1.996 . S
O259 C252 1.255 . S
C260 O253 1.287 . S
C260 O254 1.255 . S
O261 Fe243 2.002 1_545 S
O261 C257 1.295 1_545 S
O262 Fe245 1.997 . S
O262 C257 1.235 . S
C263 O246 1.295 . S
C263 O247 1.235 . S
Fe264 O266 1.918 . S
Fe264 O269 1.997 . S
Fe264 O270 2.002 . S
Fe264 O275 1.976 . S
Fe264 O278 1.996 . S
Fe265 O266 1.918 . S
Fe265 O273 1.997 . S
Fe265 O276 1.996 . S
Fe265 O280 1.976 . S
Fe265 O283 2.002 . S
O266 Fe264 1.918 . S
O266 Fe265 1.918 . S
O266 Fe267 1.918 . S
Fe267 O266 1.918 . S
Fe267 O268 2.002 . S
Fe267 O277 1.976 . S
Fe267 O281 1.996 . S
Fe267 O284 1.997 . S
O268 Fe267 2.002 . S
O268 C285 1.295 . S
O269 Fe264 1.997 . S
O269 C285 1.235 . S
O270 Fe264 2.002 . S
O270 C271 1.295 . S
C271 O270 1.295 . S
C271 O273 1.235 . S
C272 O277 1.287 . S
C272 O278 1.255 . S
O273 Fe265 1.997 . S
O273 C271 1.235 . S
C274 O280 1.287 . S
C274 O281 1.255 . S
O275 Fe264 1.976 . S
O275 C282 1.287 . S
O276 Fe265 1.996 . S
O276 C282 1.255 . S
O277 Fe267 1.976 . S
O277 C272 1.287 . S
O278 Fe264 1.996 . S
O278 C272 1.255 . S
C279 O283 1.295 . S
C279 O284 1.235 . S
O280 Fe265 1.976 . S
O280 C274 1.287 . S
O281 Fe267 1.996 . S
O281 C274 1.255 . S
C282 O275 1.287 . S
C282 O276 1.255 . S
O283 Fe265 2.002 . S
O283 C279 1.295 . S
O284 Fe267 1.997 . S
O284 C279 1.235 . S
C285 O268 1.295 . S
C285 O269 1.235 . S
Fe286 O288 1.918 . S
Fe286 O291 1.997 . S
Fe286 O292 2.002 1_565 S
Fe286 O297 1.976 . S
Fe286 O300 1.996 . S
Fe287 O288 1.918 . S
Fe287 O295 1.997 . S
Fe287 O298 1.996 . S
Fe287 O302 1.976 . S
Fe287 O305 2.002 . S
O288 Fe286 1.918 . S
O288 Fe287 1.918 . S
O288 Fe289 1.918 . S
Fe289 O288 1.918 . S
Fe289 O290 2.002 . S
Fe289 O299 1.976 1_655 S
Fe289 O303 1.996 . S
Fe289 O306 1.997 . S
O290 Fe289 2.002 . S
O290 C307 1.295 . S
O291 Fe286 1.997 . S
O291 C307 1.235 . S
O292 Fe286 2.002 1_545 S
O292 C293 1.295 1_545 S
C293 O292 1.295 1_565 S
C293 O295 1.235 . S
C294 O299 1.287 . S
C294 O300 1.255 1_455 S
O295 Fe287 1.997 . S
O295 C293 1.235 . S
C296 O302 1.287 . S
C296 O303 1.255 . S
O297 Fe286 1.976 . S
O297 C304 1.287 . S
O298 Fe287 1.996 . S
O298 C304 1.255 . S
O299 Fe289 1.976 1_455 S
O299 C294 1.287 . S
O300 Fe286 1.996 . S
O300 C294 1.255 1_655 S
C301 O305 1.295 . S
C301 O306 1.235 . S
O302 Fe287 1.976 . S
O302 C296 1.287 . S
O303 Fe289 1.996 . S
O303 C296 1.255 . S
C304 O297 1.287 . S
C304 O298 1.255 . S
O305 Fe287 2.002 . S
O305 C301 1.295 . S
O306 Fe289 1.997 . S
O306 C301 1.235 . S
C307 O290 1.295 . S
C307 O291 1.235 . S
Fe308 O310 1.918 . S
Fe308 O313 1.997 . S
Fe308 O314 2.002 . S
Fe308 O319 1.976 . S
Fe308 O322 1.996 . S
Fe309 O310 1.918 . S
Fe309 O317 1.997 . S
Fe309 O320 1.996 . S
Fe309 O324 1.976 . S
Fe309 O327 2.002 . S
O310 Fe308 1.918 . S
O310 Fe309 1.918 . S
O310 Fe311 1.918 . S
Fe311 O310 1.918 . S
Fe311 O312 2.002 . S
Fe311 O321 1.976 . S
Fe311 O325 1.996 . S
Fe311 O328 1.997 . S
O312 Fe311 2.002 . S
O312 C329 1.295 . S
O313 Fe308 1.997 . S
O313 C329 1.235 . S
O314 Fe308 2.002 . S
O314 C315 1.295 . S
C315 O314 1.295 . S
C315 O317 1.235 . S
C316 O321 1.287 . S
C316 O322 1.255 . S
O317 Fe309 1.997 . S
O317 C315 1.235 . S
C318 O324 1.287 . S
C318 O325 1.255 . S
O319 Fe308 1.976 . S
O319 C326 1.287 . S
O320 Fe309 1.996 . S
O320 C326 1.255 . S
O321 Fe311 1.976 . S
O321 C316 1.287 . S
O322 Fe308 1.996 . S
O322 C316 1.255 . S
C323 O327 1.295 . S
C323 O328 1.235 . S
O324 Fe309 1.976 . S
O324 C318 1.287 . S
O325 Fe311 1.996 . S
O325 C318 1.255 . S
C326 O319 1.287 . S
C326 O320 1.255 . S
O327 Fe309 2.002 . S
O327 C323 1.295 . S
O328 Fe311 1.997 . S
O328 C323 1.235 . S
C329 O312 1.295 . S
C329 O313 1.235 . S
Fe330 O332 1.918 . S
Fe330 O335 1.997 . S
Fe330 O336 2.002 . S
Fe330 O341 1.976 . S
Fe330 O344 1.996 . S
Fe331 O332 1.918 . S
Fe331 O339 1.997 . S
Fe331 O342 1.996 . S
Fe331 O346 1.976 . S
Fe331 O349 2.002 1_545 S
O332 Fe330 1.918 . S
O332 Fe331 1.918 . S
O332 Fe333 1.918 . S
Fe333 O332 1.918 . S
Fe333 O334 2.002 . S
Fe333 O343 1.976 . S
Fe333 O347 1.996 . S
Fe333 O350 1.997 . S
O334 Fe333 2.002 . S
O334 C351 1.295 . S
O335 Fe330 1.997 . S
O335 C351 1.235 . S
O336 Fe330 2.002 . S
O336 C337 1.295 . S
C337 O336 1.295 . S
C337 O339 1.235 . S
C338 O343 1.287 . S
C338 O344 1.255 . S
O339 Fe331 1.997 . S
O339 C337 1.235 . S
C340 O346 1.287 . S
C340 O347 1.255 . S
O341 Fe330 1.976 . S
O341 C348 1.287 . S
O342 Fe331 1.996 . S
O342 C348 1.255 . S
O343 Fe333 1.976 . S
O343 C338 1.287 . S
O344 Fe330 1.996 . S
O344 C338 1.255 . S
C345 O349 1.295 1_545 S
C345 O350 1.235 . S
O346 Fe331 1.976 . S
O346 C340 1.287 . S
O347 Fe333 1.996 . S
O347 C340 1.255 . S
C348 O341 1.287 . S
C348 O342 1.255 . S
O349 Fe331 2.002 1_565 S
O349 C345 1.295 1_565 S
O350 Fe333 1.997 . S
O350 C345 1.235 . S
C351 O334 1.295 . S
C351 O335 1.235 . S
H352 C360 0.950 . S
H353 C365 0.950 . S
H354 C362 0.950 . S
H355 C364 0.950 . S
H356 C366 0.950 . S
H357 C368 0.950 . S
H358 C370 0.950 . S
H359 C371 0.950 . S
C360 H352 0.950 . S
C360 C361 1.386 . S
C360 C362 1.391 . S
C361 C360 1.386 . S
C361 C365 1.393 . S
C362 H354 0.950 . S
C362 C360 1.391 . S
C362 C363 1.400 . S
C363 C362 1.400 . S
C363 C364 1.398 . S
C363 C369 1.491 . S
C364 H355 0.950 . S
C364 C363 1.398 . S
C364 C365 1.391 . S
C365 H353 0.950 . S
C365 C361 1.393 . S
C365 C364 1.391 . S
C366 H356 0.950 . S
C366 C367 1.386 . S
C366 C368 1.391 . S
C367 C366 1.386 . S
C367 C371 1.393 . S
C368 H357 0.950 . S
C368 C366 1.391 . S
C368 C369 1.400 . S
C369 C363 1.491 . S
C369 C368 1.400 . S
C369 C370 1.398 . S
C370 H358 0.950 . S
C370 C369 1.398 . S
C370 C371 1.391 . S
C371 H359 0.950 . S
C371 C367 1.393 . S
C371 C370 1.391 . S
H372 C380 0.950 . S
H373 C385 0.950 . S
H374 C382 0.950 . S
H375 C384 0.950 . S
H376 C386 0.950 . S
H377 C388 0.950 . S
H378 C390 0.950 . S
H379 C391 0.950 . S
C380 H372 0.950 . S
C380 C381 1.386 . S
C380 C382 1.391 . S
C381 C380 1.386 . S
C381 C385 1.393 . S
C382 H374 0.950 . S
C382 C380 1.391 . S
C382 C383 1.400 . S
C383 C382 1.400 . S
C383 C384 1.398 . S
C383 C389 1.491 . S
C384 H375 0.950 . S
C384 C383 1.398 . S
C384 C385 1.391 . S
C385 H373 0.950 . S
C385 C381 1.393 . S
C385 C384 1.391 . S
C386 H376 0.950 . S
C386 C387 1.386 . S
C386 C388 1.391 . S
C387 C386 1.386 . S
C387 C391 1.393 . S
C388 H377 0.950 . S
C388 C386 1.391 . S
C388 C389 1.400 . S
C389 C383 1.491 . S
C389 C388 1.400 . S
C389 C390 1.398 . S
C390 H378 0.950 . S
C390 C389 1.398 . S
C390 C391 1.391 . S
C391 H379 0.950 . S
C391 C387 1.393 . S
C391 C390 1.391 . S
H392 C400 0.950 . S
H393 C405 0.950 . S
H394 C402 0.950 . S
H395 C404 0.950 . S
H396 C406 0.950 . S
H397 C408 0.950 . S
H398 C410 0.950 . S
H399 C411 0.950 . S
C400 H392 0.950 . S
C400 C401 1.386 . S
C400 C402 1.391 . S
C401 C400 1.386 . S
C401 C405 1.393 . S
C402 H394 0.950 . S
C402 C400 1.391 . S
C402 C403 1.400 . S
C403 C402 1.400 . S
C403 C404 1.398 . S
C403 C409 1.491 . S
C404 H395 0.950 . S
C404 C403 1.398 . S
C404 C405 1.391 . S
C405 H393 0.950 . S
C405 C401 1.393 . S
C405 C404 1.391 . S
C406 H396 0.950 . S
C406 C407 1.386 . S
C406 C408 1.391 . S
C407 C406 1.386 . S
C407 C411 1.393 . S
C408 H397 0.950 . S
C408 C406 1.391 . S
C408 C409 1.400 . S
C409 C403 1.491 . S
C409 C408 1.400 . S
C409 C410 1.398 . S
C410 H398 0.950 . S
C410 C409 1.398 . S
C410 C411 1.391 . S
C411 H399 0.950 . S
C411 C407 1.393 . S
C411 C410 1.391 . S
H412 C420 0.950 1_455 S
H413 C425 0.950 . S
H414 C422 0.950 . S
H415 C424 0.950 . S
H416 C426 0.950 1_655 S
H417 C428 0.950 . S
H418 C430 0.950 . S
H419 C431 0.950 . S
C420 H412 0.950 1_655 S
C420 C421 1.386 . S
C420 C422 1.391 1_655 S
C421 C420 1.386 . S
C421 C425 1.393 . S
C422 H414 0.950 . S
C422 C420 1.391 1_455 S
C422 C423 1.400 1_455 S
C423 C422 1.400 1_655 S
C423 C424 1.398 . S
C423 C429 1.491 1_656 S
C424 H415 0.950 . S
C424 C423 1.398 . S
C424 C425 1.391 . S
C425 H413 0.950 . S
C425 C421 1.393 . S
C425 C424 1.391 . S
C426 H416 0.950 1_455 S
C426 C427 1.386 . S
C426 C428 1.391 1_455 S
C427 C426 1.386 . S
C427 C431 1.393 . S
C428 H417 0.950 . S
C428 C426 1.391 1_655 S
C428 C429 1.400 1_655 S
C429 C423 1.491 1_454 S
C429 C428 1.400 1_455 S
C429 C430 1.398 . S
C430 H418 0.950 . S
C430 C429 1.398 . S
C430 C431 1.391 . S
C431 H419 0.950 . S
C431 C427 1.393 . S
C431 C430 1.391 . S
H432 C440 0.950 . S
H433 C445 0.950 . S
H434 C442 0.950 . S
H435 C444 0.950 . S
H436 C446 0.950 . S
H437 C448 0.950 . S
H438 C450 0.950 . S
H439 C451 0.950 . S
C440 H432 0.950 . S
C440 C441 1.386 . S
C440 C442 1.391 . S
C441 C440 1.386 . S
C441 C445 1.393 . S
C442 H434 0.950 . S
C442 C440 1.391 . S
C442 C443 1.400 . S
C443 C442 1.400 . S
C443 C444 1.398 . S
C443 C449 1.491 . S
C444 H435 0.950 . S
C444 C443 1.398 . S
C444 C445 1.391 . S
C445 H433 0.950 . S
C445 C441 1.393 . S
C445 C444 1.391 . S
C446 H436 0.950 . S
C446 C447 1.386 . S
C446 C448 1.391 . S
C447 C446 1.386 . S
C447 C451 1.393 . S
C448 H437 0.950 . S
C448 C446 1.391 . S
C448 C449 1.400 . S
C449 C443 1.491 . S
C449 C448 1.400 . S
C449 C450 1.398 . S
C450 H438 0.950 . S
C450 C449 1.398 . S
C450 C451 1.391 . S
C451 H439 0.950 . S
C451 C447 1.393 . S
C451 C450 1.391 . S
H452 C460 0.950 . S
H453 C465 0.950 . S
H454 C462 0.950 . S
H455 C464 0.950 . S
H456 C466 0.950 . S
H457 C468 0.950 . S
H458 C470 0.950 . S
H459 C471 0.950 . S
C460 H452 0.950 . S
C460 C461 1.386 . S
C460 C462 1.391 . S
C461 C460 1.386 . S
C461 C465 1.393 . S
C462 H454 0.950 . S
C462 C460 1.391 . S
C462 C463 1.400 . S
C463 C462 1.400 . S
C463 C464 1.398 . S
C463 C469 1.491 . S
C464 H455 0.950 . S
C464 C463 1.398 . S
C464 C465 1.391 . S
C465 H453 0.950 . S
C465 C461 1.393 . S
C465 C464 1.391 . S
C466 H456 0.950 . S
C466 C467 1.386 . S
C466 C468 1.391 . S
C467 C466 1.386 . S
C467 C471 1.393 . S
C468 H457 0.950 . S
C468 C466 1.391 . S
C468 C469 1.400 . S
C469 C463 1.491 . S
C469 C468 1.400 . S
C469 C470 1.398 . S
C470 H458 0.950 . S
C470 C469 1.398 . S
C470 C471 1.391 . S
C471 H459 0.950 . S
C471 C467 1.393 . S
C471 C470 1.391 . S
H472 C480 0.950 1_455 S
H473 C485 0.950 . S
H474 C482 0.950 . S
H475 C484 0.950 . S
H476 C486 0.950 1_655 S
H477 C488 0.950 . S
H478 C490 0.950 . S
H479 C491 0.950 . S
C480 H472 0.950 1_655 S
C480 C481 1.386 1_545 S
C480 C482 1.391 1_655 S
C481 C480 1.386 1_565 S
C481 C485 1.393 . S
C482 H474 0.950 . S
C482 C480 1.391 1_455 S
C482 C483 1.400 1_445 S
C483 C482 1.400 1_665 S
C483 C484 1.398 . S
C483 C489 1.491 1_664 S
C484 H475 0.950 . S
C484 C483 1.398 . S
C484 C485 1.391 . S
C485 H473 0.950 . S
C485 C481 1.393 . S
C485 C484 1.391 . S
C486 H476 0.950 1_455 S
C486 C487 1.386 1_565 S
C486 C488 1.391 1_455 S
C487 C486 1.386 1_545 S
C487 C491 1.393 . S
C488 H477 0.950 . S
C488 C486 1.391 1_655 S
C488 C489 1.400 1_665 S
C489 C483 1.491 1_446 S
C489 C488 1.400 1_445 S
C489 C490 1.398 . S
C490 H478 0.950 . S
C490 C489 1.398 . S
C490 C491 1.391 . S
C491 H479 0.950 . S
C491 C487 1.393 . S
C491 C490 1.391 . S
H492 C500 0.950 . S
H493 C505 0.950 . S
H494 C502 0.950 . S
H495 C504 0.950 . S
H496 C506 0.950 . S
H497 C508 0.950 . S
H498 C510 0.950 . S
H499 C511 0.950 . S
C500 H492 0.950 . S
C500 C501 1.386 1_545 S
C500 C502 1.391 . S
C501 C500 1.386 1_565 S
C501 C505 1.393 . S
C502 H494 0.950 . S
C502 C500 1.391 . S
C502 C503 1.400 1_545 S
C503 C502 1.400 1_565 S
C503 C504 1.398 . S
C503 C509 1.491 1_565 S
C504 H495 0.950 . S
C504 C503 1.398 . S
C504 C505 1.391 . S
C505 H493 0.950 . S
C505 C501 1.393 . S
C505 C504 1.391 . S
C506 H496 0.950 . S
C506 C507 1.386 1_565 S
C506 C508 1.391 . S
C507 C506 1.386 1_545 S
C507 C511 1.393 . S
C508 H497 0.950 . S
C508 C506 1.391 . S
C508 C509 1.400 1_565 S
C509 C503 1.491 1_545 S
C509 C508 1.400 1_545 S
C509 C510 1.398 . S
C510 H498 0.950 . S
C510 C509 1.398 . S
C510 C511 1.391 . S
C511 H499 0.950 . S
C511 C507 1.393 . S
C511 C510 1.391 . S
H512 C520 0.950 . S
H513 C525 0.950 . S
H514 C522 0.950 . S
H515 C524 0.950 . S
H516 C526 0.950 . S
H517 C528 0.950 . S
H518 C530 0.950 . S
H519 C531 0.950 . S
C520 H512 0.950 . S
C520 C521 1.386 . S
C520 C522 1.391 . S
C521 C520 1.386 . S
C521 C525 1.393 . S
C522 H514 0.950 . S
C522 C520 1.391 . S
C522 C523 1.400 . S
C523 C522 1.400 . S
C523 C524 1.398 . S
C523 C529 1.491 . S
C524 H515 0.950 . S
C524 C523 1.398 . S
C524 C525 1.391 . S
C525 H513 0.950 . S
C525 C521 1.393 . S
C525 C524 1.391 . S
C526 H516 0.950 . S
C526 C527 1.386 . S
C526 C528 1.391 . S
C527 C526 1.386 . S
C527 C531 1.393 . S
C528 H517 0.950 . S
C528 C526 1.391 . S
C528 C529 1.400 1_554 S
C529 C523 1.491 . S
C529 C528 1.400 1_556 S
C529 C530 1.398 . S
C530 H518 0.950 . S
C530 C529 1.398 . S
C530 C531 1.391 1_556 S
C531 H519 0.950 . S
C531 C527 1.393 . S
C531 C530 1.391 1_554 S
H532 C540 0.950 . S
H533 C545 0.950 . S
H534 C542 0.950 . S
H535 C544 0.950 . S
H536 C546 0.950 . S
H537 C548 0.950 . S
H538 C550 0.950 . S
H539 C551 0.950 . S
C540 H532 0.950 . S
C540 C541 1.386 . S
C540 C542 1.391 . S
C541 C540 1.386 . S
C541 C545 1.393 . S
C542 H534 0.950 . S
C542 C540 1.391 . S
C542 C543 1.400 . S
C543 C542 1.400 . S
C543 C544 1.398 . S
C543 C549 1.491 . S
C544 H535 0.950 . S
C544 C543 1.398 . S
C544 C545 1.391 . S
C545 H533 0.950 . S
C545 C541 1.393 . S
C545 C544 1.391 . S
C546 H536 0.950 . S
C546 C547 1.386 . S
C546 C548 1.391 . S
C547 C546 1.386 . S
C547 C551 1.393 . S
C548 H537 0.950 . S
C548 C546 1.391 . S
C548 C549 1.400 . S
C549 C543 1.491 . S
C549 C548 1.400 . S
C549 C550 1.398 . S
C550 H538 0.950 . S
C550 C549 1.398 . S
C550 C551 1.391 . S
C551 H539 0.950 . S
C551 C547 1.393 . S
C551 C550 1.391 . S
H552 C560 0.950 . S
H553 C565 0.950 . S
H554 C562 0.950 . S
H555 C564 0.950 . S
H556 C566 0.950 . S
H557 C568 0.950 . S
H558 C570 0.950 . S
H559 C571 0.950 . S
C560 H552 0.950 . S
C560 C561 1.386 . S
C560 C562 1.391 . S
C561 C560 1.386 . S
C561 C565 1.393 . S
C562 H554 0.950 . S
C562 C560 1.391 . S
C562 C563 1.400 . S
C563 C562 1.400 . S
C563 C564 1.398 . S
C563 C569 1.491 . S
C564 H555 0.950 . S
C564 C563 1.398 . S
C564 C565 1.391 . S
C565 H553 0.950 . S
C565 C561 1.393 . S
C565 C564 1.391 . S
C566 H556 0.950 . S
C566 C567 1.386 . S
C566 C568 1.391 . S
C567 C566 1.386 . S
C567 C571 1.393 . S
C568 H557 0.950 . S
C568 C566 1.391 . S
C568 C569 1.400 . S
C569 C563 1.491 . S
C569 C568 1.400 . S
C569 C570 1.398 . S
C570 H558 0.950 . S
C570 C569 1.398 . S
C570 C571 1.391 . S
C571 H559 0.950 . S
C571 C567 1.393 . S
C571 C570 1.391 . S
H572 C580 0.950 . S
H573 C585 0.950 . S
H574 C582 0.950 . S
H575 C584 0.950 . S
H576 C586 0.950 . S
H577 C588 0.950 . S
H578 C590 0.950 . S
H579 C591 0.950 . S
C580 H572 0.950 . S
C580 C581 1.386 . S
C580 C582 1.391 . S
C581 C580 1.386 . S
C581 C585 1.393 . S
C582 H574 0.950 . S
C582 C580 1.391 . S
C582 C583 1.400 . S
C583 C582 1.400 . S
C583 C584 1.398 . S
C583 C589 1.491 . S
C584 H575 0.950 . S
C584 C583 1.398 . S
C584 C585 1.391 . S
C585 H573 0.950 . S
C585 C581 1.393 . S
C585 C584 1.391 . S
C586 H576 0.950 . S
C586 C587 1.386 . S
C586 C588 1.391 . S
C587 C586 1.386 . S
C587 C591 1.393 . S
C588 H577 0.950 . S
C588 C586 1.391 . S
C588 C589 1.400 . S
C589 C583 1.491 . S
C589 C588 1.400 . S
C589 C590 1.398 . S
C590 H578 0.950 . S
C590 C589 1.398 . S
C590 C591 1.391 . S
C591 H579 0.950 . S
C591 C587 1.393 . S
C591 C590 1.391 . S
H592 C600 0.950 . S
H593 C605 0.950 . S
H594 C602 0.950 . S
H595 C604 0.950 . S
H596 C606 0.950 . S
H597 C608 0.950 . S
H598 C610 0.950 . S
H599 C611 0.950 . S
C600 H592 0.950 . S
C600 C601 1.386 . S
C600 C602 1.391 . S
C601 C600 1.386 . S
C601 C605 1.393 . S
C602 H594 0.950 . S
C602 C600 1.391 . S
C602 C603 1.400 . S
C603 C602 1.400 . S
C603 C604 1.398 . S
C603 C609 1.491 . S
C604 H595 0.950 . S
C604 C603 1.398 . S
C604 C605 1.391 . S
C605 H593 0.950 . S
C605 C601 1.393 . S
C605 C604 1.391 . S
C606 H596 0.950 . S
C606 C607 1.386 . S
C606 C608 1.391 1_556 S
C607 C606 1.386 . S
C607 C611 1.393 . S
C608 H597 0.950 . S
C608 C606 1.391 1_554 S
C608 C609 1.400 . S
C609 C603 1.491 . S
C609 C608 1.400 . S
C609 C610 1.398 1_554 S
C610 H598 0.950 . S
C610 C609 1.398 1_556 S
C610 C611 1.391 . S
C611 H599 0.950 . S
C611 C607 1.393 . S
C611 C610 1.391 . S
H612 C620 0.950 . S
H613 C625 0.950 . S
H614 C622 0.950 . S
H615 C624 0.950 . S
H616 C626 0.950 . S
H617 C628 0.950 . S
H618 C630 0.950 . S
H619 C631 0.950 . S
C620 H612 0.950 . S
C620 C621 1.386 . S
C620 C622 1.391 . S
C621 C620 1.386 . S
C621 C625 1.393 . S
C622 H614 0.950 . S
C622 C620 1.391 . S
C622 C623 1.400 . S
C623 C622 1.400 . S
C623 C624 1.398 . S
C623 C629 1.491 . S
C624 H615 0.950 . S
C624 C623 1.398 . S
C624 C625 1.391 . S
C625 H613 0.950 . S
C625 C621 1.393 . S
C625 C624 1.391 . S
C626 H616 0.950 . S
C626 C627 1.386 . S
C626 C628 1.391 . S
C627 C626 1.386 . S
C627 C631 1.393 . S
C628 H617 0.950 . S
C628 C626 1.391 . S
C628 C629 1.400 . S
C629 C623 1.491 . S
C629 C628 1.400 . S
C629 C630 1.398 . S
C630 H618 0.950 . S
C630 C629 1.398 . S
C630 C631 1.391 . S
C631 H619 0.950 . S
C631 C627 1.393 . S
C631 C630 1.391 . S
H632 C640 0.950 . S
H633 C645 0.950 . S
H634 C642 0.950 . S
H635 C644 0.950 . S
H636 C646 0.950 . S
H637 C648 0.950 . S
H638 C650 0.950 . S
H639 C651 0.950 . S
C640 H632 0.950 . S
C640 C641 1.386 . S
C640 C642 1.391 . S
C641 C640 1.386 . S
C641 C645 1.393 . S
C642 H634 0.950 . S
C642 C640 1.391 . S
C642 C643 1.400 . S
C643 C642 1.400 . S
C643 C644 1.398 . S
C643 C649 1.491 . S
C644 H635 0.950 . S
C644 C643 1.398 . S
C644 C645 1.391 . S
C645 H633 0.950 . S
C645 C641 1.393 . S
C645 C644 1.391 . S
C646 H636 0.950 . S
C646 C647 1.386 . S
C646 C648 1.391 . S
C647 C646 1.386 . S
C647 C651 1.393 . S
C648 H637 0.950 . S
C648 C646 1.391 . S
C648 C649 1.400 . S
C649 C643 1.491 . S
C649 C648 1.400 . S
C649 C650 1.398 . S
C650 H638 0.950 . S
C650 C649 1.398 . S
C650 C651 1.391 . S
C651 H639 0.950 . S
C651 C647 1.393 . S
C651 C650 1.391 . S
H652 C660 0.950 . S
H653 C665 0.950 . S
H654 C662 0.950 . S
H655 C664 0.950 . S
H656 C666 0.950 . S
H657 C668 0.950 . S
H658 C670 0.950 . S
H659 C671 0.950 . S
C660 H652 0.950 . S
C660 C661 1.386 . S
C660 C662 1.391 . S
C661 C660 1.386 . S
C661 C665 1.393 . S
C662 H654 0.950 . S
C662 C660 1.391 . S
C662 C663 1.400 . S
C663 C662 1.400 . S
C663 C664 1.398 . S
C663 C669 1.491 . S
C664 H655 0.950 . S
C664 C663 1.398 . S
C664 C665 1.391 . S
C665 H653 0.950 . S
C665 C661 1.393 . S
C665 C664 1.391 . S
C666 H656 0.950 . S
C666 C667 1.386 . S
C666 C668 1.391 . S
C667 C666 1.386 . S
C667 C671 1.393 . S
C668 H657 0.950 . S
C668 C666 1.391 . S
C668 C669 1.400 . S
C669 C663 1.491 . S
C669 C668 1.400 . S
C669 C670 1.398 . S
C670 H658 0.950 . S
C670 C669 1.398 . S
C670 C671 1.391 . S
C671 H659 0.950 . S
C671 C667 1.393 . S
C671 C670 1.391 . S
H672 C680 0.950 . S
H673 C685 0.950 . S
H674 C682 0.950 . S
H675 C684 0.950 . S
H676 C686 0.950 . S
H677 C688 0.950 . S
H678 C690 0.950 . S
H679 C691 0.950 . S
C680 H672 0.950 . S
C680 C681 1.386 . S
C680 C682 1.391 . S
C681 C680 1.386 . S
C681 C685 1.393 . S
C682 H674 0.950 . S
C682 C680 1.391 . S
C682 C683 1.400 . S
C683 C682 1.400 . S
C683 C684 1.398 . S
C683 C689 1.491 . S
C684 H675 0.950 . S
C684 C683 1.398 . S
C684 C685 1.391 . S
C685 H673 0.950 . S
C685 C681 1.393 . S
C685 C684 1.391 . S
C686 H676 0.950 . S
C686 C687 1.386 . S
C686 C688 1.391 . S
C687 C686 1.386 . S
C687 C691 1.393 . S
C688 H677 0.950 . S
C688 C686 1.391 . S
C688 C689 1.400 . S
C689 C683 1.491 . S
C689 C688 1.400 . S
C689 C690 1.398 . S
C690 H678 0.950 . S
C690 C689 1.398 . S
C690 C691 1.391 . S
C691 H679 0.950 . S
C691 C687 1.393 . S
C691 C690 1.391 . S
H692 C700 0.949 . S
H693 C705 0.950 . S
H694 C702 0.950 . S
H695 C704 0.950 . S
H696 C706 0.950 . S
H697 C708 0.950 . S
H698 C710 0.950 . S
H699 C711 0.950 . S
C700 H692 0.949 . S
C700 C701 1.384 . S
C700 C702 1.393 1_545 S
C701 C700 1.384 . S
C701 C705 1.393 . S
C702 H694 0.950 . S
C702 C700 1.393 1_565 S
C702 C703 1.400 . S
C703 C702 1.400 . S
C703 C704 1.398 . S
C703 C709 1.491 . S
C704 H695 0.950 . S
C704 C703 1.398 . S
C704 C705 1.391 1_565 S
C705 H693 0.950 . S
C705 C701 1.393 . S
C705 C704 1.391 1_545 S
C706 H696 0.950 . S
C706 C707 1.386 . S
C706 C708 1.391 . S
C707 C706 1.386 . S
C707 C711 1.393 . S
C708 H697 0.950 . S
C708 C706 1.391 . S
C708 C709 1.400 . S
C709 C703 1.491 . S
C709 C708 1.400 . S
C709 C710 1.398 . S
C710 H698 0.950 . S
C710 C709 1.398 . S
C710 C711 1.391 . S
C711 H699 0.950 . S
C711 C707 1.393 . S
C711 C710 1.391 . S
H712 C720 0.950 . S
H713 C725 0.950 . S
H714 C722 0.950 1_556 S
H715 C724 0.950 . S
H716 C726 0.950 . S
H717 C728 0.950 . S
H718 C730 0.950 . S
H719 C731 0.950 . S
C720 H712 0.950 . S
C720 C721 1.386 . S
C720 C722 1.391 . S
C721 C720 1.386 . S
C721 C725 1.393 . S
C722 H714 0.950 1_554 S
C722 C720 1.391 . S
C722 C723 1.400 1_554 S
C723 C722 1.400 1_556 S
C723 C724 1.398 1_556 S
C723 C729 1.491 . S
C724 H715 0.950 . S
C724 C723 1.398 1_554 S
C724 C725 1.391 . S
C725 H713 0.950 . S
C725 C721 1.393 . S
C725 C724 1.391 . S
C726 H716 0.950 . S
C726 C727 1.386 . S
C726 C728 1.391 . S
C727 C726 1.386 . S
C727 C731 1.393 . S
C728 H717 0.950 . S
C728 C726 1.391 . S
C728 C729 1.400 . S
C729 C723 1.491 . S
C729 C728 1.400 . S
C729 C730 1.398 . S
C730 H718 0.950 . S
C730 C729 1.398 . S
C730 C731 1.391 . S
C731 H719 0.950 . S
C731 C727 1.393 . S
C731 C730 1.391 . S
H732 C740 0.950 . S
H733 C745 0.950 . S
H734 C742 0.950 . S
H735 C744 0.950 . S
H736 C746 0.950 . S
H737 C748 0.950 . S
H738 C750 0.950 . S
H739 C751 0.950 . S
C740 H732 0.950 . S
C740 C741 1.386 . S
C740 C742 1.391 . S
C741 C740 1.386 . S
C741 C745 1.393 . S
C742 H734 0.950 . S
C742 C740 1.391 . S
C742 C743 1.400 . S
C743 C742 1.400 . S
C743 C744 1.398 . S
C743 C749 1.491 . S
C744 H735 0.950 . S
C744 C743 1.398 . S
C744 C745 1.391 . S
C745 H733 0.950 . S
C745 C741 1.393 . S
C745 C744 1.391 . S
C746 H736 0.950 . S
C746 C747 1.386 1_545 S
C746 C748 1.391 . S
C747 C746 1.386 1_565 S
C747 C751 1.393 . S
C748 H737 0.950 . S
C748 C746 1.391 . S
C748 C749 1.400 . S
C749 C743 1.491 . S
C749 C748 1.400 . S
C749 C750 1.398 1_545 S
C750 H738 0.950 . S
C750 C749 1.398 1_565 S
C750 C751 1.391 . S
C751 H739 0.950 . S
C751 C747 1.393 . S
C751 C750 1.391 . S
H752 C760 0.950 . S
H753 C765 0.950 . S
H754 C762 0.950 . S
H755 C764 0.950 . S
H756 C766 0.950 . S
H757 C768 0.950 . S
H758 C770 0.950 . S
H759 C771 0.950 . S
C760 H752 0.950 . S
C760 C761 1.386 . S
C760 C762 1.391 . S
C761 C760 1.386 . S
C761 C765 1.393 . S
C762 H754 0.950 . S
C762 C760 1.391 . S
C762 C763 1.400 . S
C763 C762 1.400 . S
C763 C764 1.398 . S
C763 C769 1.491 . S
C764 H755 0.950 . S
C764 C763 1.398 . S
C764 C765 1.391 . S
C765 H753 0.950 . S
C765 C761 1.393 . S
C765 C764 1.391 . S
C766 H756 0.950 . S
C766 C767 1.386 . S
C766 C768 1.391 . S
C767 C766 1.386 . S
C767 C771 1.393 . S
C768 H757 0.950 . S
C768 C766 1.391 . S
C768 C769 1.400 . S
C769 C763 1.491 . S
C769 C768 1.400 . S
C769 C770 1.398 . S
C770 H758 0.950 . S
C770 C769 1.398 . S
C770 C771 1.391 . S
C771 H759 0.950 . S
C771 C767 1.393 . S
C771 C770 1.391 . S
H772 C780 0.950 . S
H773 C785 0.950 . S
H774 C782 0.950 . S
H775 C784 0.950 . S
H776 C786 0.950 . S
H777 C788 0.950 . S
H778 C790 0.950 . S
H779 C791 0.950 . S
C780 H772 0.950 . S
C780 C781 1.386 . S
C780 C782 1.391 . S
C781 C780 1.386 . S
C781 C785 1.393 1_565 S
C782 H774 0.950 . S
C782 C780 1.391 . S
C782 C783 1.400 1_565 S
C783 C782 1.400 1_545 S
C783 C784 1.398 . S
C783 C789 1.491 . S
C784 H775 0.950 . S
C784 C783 1.398 . S
C784 C785 1.391 . S
C785 H773 0.950 . S
C785 C781 1.393 1_545 S
C785 C784 1.391 . S
C786 H776 0.950 . S
C786 C787 1.386 . S
C786 C788 1.391 . S
C787 C786 1.386 . S
C787 C791 1.393 . S
C788 H777 0.950 . S
C788 C786 1.391 . S
C788 C789 1.400 . S
C789 C783 1.491 . S
C789 C788 1.400 . S
C789 C790 1.398 . S
C790 H778 0.950 . S
C790 C789 1.398 . S
C790 C791 1.391 . S
C791 H779 0.950 . S
C791 C787 1.393 . S
C791 C790 1.391 . S
H792 C800 0.950 . S
H793 C805 0.950 . S
H794 C802 0.950 . S
H795 C804 0.950 . S
H796 C806 0.950 . S
H797 C808 0.950 . S
H798 C810 0.950 1_554 S
H799 C811 0.950 . S
C800 H792 0.950 . S
C800 C801 1.386 . S
C800 C802 1.391 . S
C801 C800 1.386 . S
C801 C805 1.393 . S
C802 H794 0.950 . S
C802 C800 1.391 . S
C802 C803 1.400 . S
C803 C802 1.400 . S
C803 C804 1.398 . S
C803 C809 1.491 . S
C804 H795 0.950 . S
C804 C803 1.398 . S
C804 C805 1.391 . S
C805 H793 0.950 . S
C805 C801 1.393 . S
C805 C804 1.391 . S
C806 H796 0.950 . S
C806 C807 1.386 . S
C806 C808 1.391 . S
C807 C806 1.386 . S
C807 C811 1.393 . S
C808 H797 0.950 . S
C808 C806 1.391 . S
C808 C809 1.400 1_556 S
C809 C803 1.491 . S
C809 C808 1.400 1_554 S
C809 C810 1.398 1_554 S
C810 H798 0.950 1_556 S
C810 C809 1.398 1_556 S
C810 C811 1.391 . S
C811 H799 0.950 . S
C811 C807 1.393 . S
C811 C810 1.391 . S
H812 C820 0.950 . S
H813 C825 0.950 . S
H814 C822 0.950 . S
H815 C824 0.949 1_545 S
H816 C826 0.950 . S
H817 C828 0.950 . S
H818 C830 0.950 . S
H819 C831 0.950 . S
C820 H812 0.950 . S
C820 C821 1.386 1_565 S
C820 C822 1.391 . S
C821 C820 1.386 1_545 S
C821 C825 1.393 . S
C822 H814 0.950 . S
C822 C820 1.391 . S
C822 C823 1.400 . S
C823 C822 1.400 . S
C823 C824 1.404 . S
C823 C829 1.491 . S
C824 H815 0.949 1_565 S
C824 C823 1.404 . S
C824 C825 1.386 1_565 S
C825 H813 0.950 . S
C825 C821 1.393 . S
C825 C824 1.386 1_545 S
C826 H816 0.950 . S
C826 C827 1.386 . S
C826 C828 1.391 . S
C827 C826 1.386 . S
C827 C831 1.393 . S
C828 H817 0.950 . S
C828 C826 1.391 . S
C828 C829 1.400 . S
C829 C823 1.491 . S
C829 C828 1.400 . S
C829 C830 1.398 . S
C830 H818 0.950 . S
C830 C829 1.398 . S
C830 C831 1.391 . S
C831 H819 0.950 . S
C831 C827 1.393 . S
C831 C830 1.391 . S
H832 C840 0.950 . S
H833 C845 0.950 . S
H834 C842 0.950 . S
H835 C844 0.950 . S
H836 C846 0.950 . S
H837 C848 0.950 . S
H838 C850 0.950 . S
H839 C851 0.950 . S
C840 H832 0.950 . S
C840 C841 1.386 . S
C840 C842 1.391 . S
C841 C840 1.386 . S
C841 C845 1.393 . S
C842 H834 0.950 . S
C842 C840 1.391 . S
C842 C843 1.400 . S
C843 C842 1.400 . S
C843 C844 1.398 . S
C843 C849 1.491 . S
C844 H835 0.950 . S
C844 C843 1.398 . S
C844 C845 1.391 . S
C845 H833 0.950 . S
C845 C841 1.393 . S
C845 C844 1.391 . S
C846 H836 0.950 . S
C846 C847 1.386 . S
C846 C848 1.391 . S
C847 C846 1.386 . S
C847 C851 1.393 . S
C848 H837 0.950 . S
C848 C846 1.391 . S
C848 C849 1.400 . S
C849 C843 1.491 . S
C849 C848 1.400 . S
C849 C850 1.398 . S
C850 H838 0.950 . S
C850 C849 1.398 . S
C850 C851 1.391 . S
C851 H839 0.950 . S
C851 C847 1.393 . S
C851 C850 1.391 . S
H852 C860 0.950 . S
H853 C865 0.950 . S
H854 C862 0.950 . S
H855 C864 0.950 . S
H856 C866 0.950 . S
H857 C868 0.950 . S
H858 C870 0.950 . S
H859 C871 0.950 . S
C860 H852 0.950 . S
C860 C861 1.386 . S
C860 C862 1.391 . S
C861 C860 1.386 . S
C861 C865 1.393 . S
C862 H854 0.950 . S
C862 C860 1.391 . S
C862 C863 1.400 . S
C863 C862 1.400 . S
C863 C864 1.398 . S
C863 C869 1.491 . S
C864 H855 0.950 . S
C864 C863 1.398 . S
C864 C865 1.391 . S
C865 H853 0.950 . S
C865 C861 1.393 . S
C865 C864 1.391 . S
C866 H856 0.950 . S
C866 C867 1.386 . S
C866 C868 1.391 . S
C867 C866 1.386 . S
C867 C871 1.393 . S
C868 H857 0.950 . S
C868 C866 1.391 . S
C868 C869 1.400 . S
C869 C863 1.491 . S
C869 C868 1.400 . S
C869 C870 1.398 . S
C870 H858 0.950 . S
C870 C869 1.398 . S
C870 C871 1.391 . S
C871 H859 0.950 . S
C871 C867 1.393 . S
C871 C870 1.391 . S
H872 C880 0.950 . S
H873 C885 0.950 . S
H874 C882 0.950 . S
H875 C884 0.950 1_455 S
H876 C886 0.950 . S
H877 C888 0.950 . S
H878 C890 0.950 1_655 S
H879 C891 0.950 . S
C880 H872 0.950 . S
C880 C881 1.386 . S
C880 C882 1.391 . S
C881 C880 1.386 . S
C881 C885 1.393 . S
C882 H874 0.950 . S
C882 C880 1.391 . S
C882 C883 1.400 . S
C883 C882 1.400 . S
C883 C884 1.398 . S
C883 C889 1.491 1_655 S
C884 H875 0.950 1_655 S
C884 C883 1.398 . S
C884 C885 1.391 . S
C885 H873 0.950 . S
C885 C881 1.393 . S
C885 C884 1.391 . S
C886 H876 0.950 . S
C886 C887 1.386 . S
C886 C888 1.391 . S
C887 C886 1.386 . S
C887 C891 1.393 . S
C888 H877 0.950 . S
C888 C886 1.391 . S
C888 C889 1.400 . S
C889 C883 1.491 1_455 S
C889 C888 1.400 . S
C889 C890 1.398 . S
C890 H878 0.950 1_455 S
C890 C889 1.398 . S
C890 C891 1.391 . S
C891 H879 0.950 . S
C891 C887 1.393 . S
C891 C890 1.391 . S
H892 C900 0.950 . S
H893 C905 0.950 . S
H894 C902 0.950 1_455 S
H895 C904 0.950 . S
H896 C906 0.950 . S
H897 C908 0.950 1_655 S
H898 C910 0.950 . S
H899 C911 0.950 . S
C900 H892 0.950 . S
C900 C901 1.386 . S
C900 C902 1.391 . S
C901 C900 1.386 . S
C901 C905 1.393 . S
C902 H894 0.950 1_655 S
C902 C900 1.391 . S
C902 C903 1.400 . S
C903 C902 1.400 . S
C903 C904 1.398 . S
C903 C909 1.491 1_655 S
C904 H895 0.950 . S
C904 C903 1.398 . S
C904 C905 1.391 . S
C905 H893 0.950 . S
C905 C901 1.393 . S
C905 C904 1.391 . S
C906 H896 0.950 . S
C906 C907 1.386 . S
C906 C908 1.391 . S
C907 C906 1.386 . S
C907 C911 1.393 . S
C908 H897 0.950 1_455 S
C908 C906 1.391 . S
C908 C909 1.400 . S
C909 C903 1.491 1_455 S
C909 C908 1.400 . S
C909 C910 1.398 . S
C910 H898 0.950 . S
C910 C909 1.398 . S
C910 C911 1.391 . S
C911 H899 0.950 . S
C911 C907 1.393 . S
C911 C910 1.391 . S
H912 C920 0.950 . S
H913 C925 0.950 . S
H914 C922 0.950 . S
H915 C924 0.950 . S
H916 C926 0.950 . S
H917 C928 0.950 . S
H918 C930 0.950 . S
H919 C931 0.950 . S
C920 H912 0.950 . S
C920 C921 1.386 . S
C920 C922 1.391 . S
C921 C920 1.386 . S
C921 C925 1.393 . S
C922 H914 0.950 . S
C922 C920 1.391 . S
C922 C923 1.400 . S
C923 C922 1.400 . S
C923 C924 1.398 . S
C923 C929 1.491 . S
C924 H915 0.950 . S
C924 C923 1.398 . S
C924 C925 1.391 . S
C925 H913 0.950 . S
C925 C921 1.393 . S
C925 C924 1.391 . S
C926 H916 0.950 . S
C926 C927 1.386 . S
C926 C928 1.391 . S
C927 C926 1.386 . S
C927 C931 1.393 . S
C928 H917 0.950 . S
C928 C926 1.391 . S
C928 C929 1.400 . S
C929 C923 1.491 . S
C929 C928 1.400 . S
C929 C930 1.398 . S
C930 H918 0.950 . S
C930 C929 1.398 . S
C930 C931 1.391 . S
C931 H919 0.950 . S
C931 C927 1.393 . S
C931 C930 1.391 . S
H932 C940 0.950 . S
H933 C945 0.950 . S
H934 C942 0.950 . S
H935 C944 0.950 . S
H936 C946 0.950 . S
H937 C948 0.950 . S
H938 C950 0.950 . S
H939 C951 0.950 . S
C940 H932 0.950 . S
C940 C941 1.386 . S
C940 C942 1.391 . S
C941 C940 1.386 . S
C941 C945 1.393 . S
C942 H934 0.950 . S
C942 C940 1.391 . S
C942 C943 1.400 . S
C943 C942 1.400 . S
C943 C944 1.398 . S
C943 C949 1.491 . S
C944 H935 0.950 . S
C944 C943 1.398 . S
C944 C945 1.391 . S
C945 H933 0.950 . S
C945 C941 1.393 . S
C945 C944 1.391 . S
C946 H936 0.950 . S
C946 C947 1.386 . S
C946 C948 1.391 . S
C947 C946 1.386 . S
C947 C951 1.393 . S
C948 H937 0.950 . S
C948 C946 1.391 . S
C948 C949 1.400 . S
C949 C943 1.491 . S
C949 C948 1.400 . S
C949 C950 1.398 . S
C950 H938 0.950 . S
C950 C949 1.398 . S
C950 C951 1.391 . S
C951 H939 0.950 . S
C951 C947 1.393 . S
C951 C950 1.391 . S
H952 C960 0.950 . S
H953 C965 0.950 . S
H954 C962 0.950 1_655 S
H955 C964 0.950 . S
H956 C966 0.950 . S
H957 C968 0.950 1_455 S
H958 C970 0.950 . S
H959 C971 0.950 . S
C960 H952 0.950 . S
C960 C961 1.386 . S
C960 C962 1.391 . S
C961 C960 1.386 . S
C961 C965 1.393 . S
C962 H954 0.950 1_455 S
C962 C960 1.391 . S
C962 C963 1.400 . S
C963 C962 1.400 . S
C963 C964 1.398 . S
C963 C969 1.491 1_455 S
C964 H955 0.950 . S
C964 C963 1.398 . S
C964 C965 1.391 . S
C965 H953 0.950 . S
C965 C961 1.393 . S
C965 C964 1.391 . S
C966 H956 0.950 . S
C966 C967 1.386 . S
C966 C968 1.391 . S
C967 C966 1.386 . S
C967 C971 1.393 . S
C968 H957 0.950 1_655 S
C968 C966 1.391 . S
C968 C969 1.400 . S
C969 C963 1.491 1_655 S
C969 C968 1.400 . S
C969 C970 1.398 . S
C970 H958 0.950 . S
C970 C969 1.398 . S
C970 C971 1.391 . S
C971 H959 0.950 . S
C971 C967 1.393 . S
C971 C970 1.391 . S
H972 C980 0.950 . S
H973 C985 0.950 . S
H974 C982 0.950 1_655 S
H975 C984 0.950 . S
H976 C986 0.950 . S
H977 C988 0.950 1_455 S
H978 C990 0.950 . S
H979 C991 0.950 . S
C980 H972 0.950 . S
C980 C981 1.386 . S
C980 C982 1.391 . S
C981 C980 1.386 . S
C981 C985 1.393 . S
C982 H974 0.950 1_455 S
C982 C980 1.391 . S
C982 C983 1.400 . S
C983 C982 1.400 . S
C983 C984 1.398 . S
C983 C989 1.491 1_455 S
C984 H975 0.950 . S
C984 C983 1.398 . S
C984 C985 1.391 . S
C985 H973 0.950 . S
C985 C981 1.393 . S
C985 C984 1.391 . S
C986 H976 0.950 . S
C986 C987 1.386 . S
C986 C988 1.391 . S
C987 C986 1.386 . S
C987 C991 1.393 . S
C988 H977 0.950 1_655 S
C988 C986 1.391 . S
C988 C989 1.400 . S
C989 C983 1.491 1_655 S
C989 C988 1.400 . S
C989 C990 1.398 . S
C990 H978 0.950 . S
C990 C989 1.398 . S
C990 C991 1.391 . S
C991 H979 0.950 . S
C991 C987 1.393 . S
C991 C990 1.391 . S
H992 C1000 0.950 . S
H993 C1005 0.950 . S
H994 C1002 0.950 . S
H995 C1004 0.950 . S
H996 C1006 0.950 . S
H997 C1008 0.950 . S
H998 C1010 0.950 . S
H999 C1011 0.950 . S
C1000 H992 0.950 . S
C1000 C1001 1.386 . S
C1000 C1002 1.391 . S
C1001 C1000 1.386 . S
C1001 C1005 1.393 . S
C1002 H994 0.950 . S
C1002 C1000 1.391 . S
C1002 C1003 1.400 . S
C1003 C1002 1.400 . S
C1003 C1004 1.398 . S
C1003 C1009 1.491 . S
C1004 H995 0.950 . S
C1004 C1003 1.398 . S
C1004 C1005 1.391 . S
C1005 H993 0.950 . S
C1005 C1001 1.393 . S
C1005 C1004 1.391 . S
C1006 H996 0.950 . S
C1006 C1007 1.386 . S
C1006 C1008 1.391 . S
C1007 C1006 1.386 . S
C1007 C1011 1.393 . S
C1008 H997 0.950 . S
C1008 C1006 1.391 . S
C1008 C1009 1.400 . S
C1009 C1003 1.491 . S
C1009 C1008 1.400 . S
C1009 C1010 1.398 . S
C1010 H998 0.950 . S
C1010 C1009 1.398 . S
C1010 C1011 1.391 . S
C1011 H999 0.950 . S
C1011 C1007 1.393 . S
C1011 C1010 1.391 . S
H1012 C1020 0.950 . S
H1013 C1025 0.950 . S
H1014 C1022 0.950 . S
H1015 C1024 0.950 . S
H1016 C1026 0.950 . S
H1017 C1028 0.950 . S
H1018 C1030 0.950 . S
H1019 C1031 0.950 . S
C1020 H1012 0.950 . S
C1020 C1021 1.386 . S
C1020 C1022 1.391 . S
C1021 C1020 1.386 . S
C1021 C1025 1.393 . S
C1022 H1014 0.950 . S
C1022 C1020 1.391 . S
C1022 C1023 1.400 . S
C1023 C1022 1.400 . S
C1023 C1024 1.398 . S
C1023 C1029 1.491 . S
C1024 H1015 0.950 . S
C1024 C1023 1.398 . S
C1024 C1025 1.391 . S
C1025 H1013 0.950 . S
C1025 C1021 1.393 . S
C1025 C1024 1.391 . S
C1026 H1016 0.950 . S
C1026 C1027 1.386 . S
C1026 C1028 1.391 . S
C1027 C1026 1.386 . S
C1027 C1031 1.393 . S
C1028 H1017 0.950 . S
C1028 C1026 1.391 . S
C1028 C1029 1.400 . S
C1029 C1023 1.491 . S
C1029 C1028 1.400 . S
C1029 C1030 1.398 . S
C1030 H1018 0.950 . S
C1030 C1029 1.398 . S
C1030 C1031 1.391 . S
C1031 H1019 0.950 . S
C1031 C1027 1.393 . S
C1031 C1030 1.391 . S
H1032 C1040 0.950 . S
H1033 C1045 0.950 . S
H1034 C1042 0.950 . S
H1035 C1044 0.950 . S
H1036 C1046 0.950 . S
H1037 C1048 0.950 . S
H1038 C1050 0.950 . S
H1039 C1051 0.950 . S
C1040 H1032 0.950 . S
C1040 C1041 1.386 . S
C1040 C1042 1.391 . S
C1041 C1040 1.386 . S
C1041 C1045 1.393 . S
C1042 H1034 0.950 . S
C1042 C1040 1.391 . S
C1042 C1043 1.400 . S
C1043 C1042 1.400 . S
C1043 C1044 1.398 . S
C1043 C1049 1.491 . S
C1044 H1035 0.950 . S
C1044 C1043 1.398 . S
C1044 C1045 1.391 . S
C1045 H1033 0.950 . S
C1045 C1041 1.393 . S
C1045 C1044 1.391 . S
C1046 H1036 0.950 . S
C1046 C1047 1.386 . S
C1046 C1048 1.391 . S
C1047 C1046 1.386 . S
C1047 C1051 1.393 . S
C1048 H1037 0.950 . S
C1048 C1046 1.391 . S
C1048 C1049 1.400 . S
C1049 C1043 1.491 . S
C1049 C1048 1.400 . S
C1049 C1050 1.398 . S
C1050 H1038 0.950 . S
C1050 C1049 1.398 . S
C1050 C1051 1.391 . S
C1051 H1039 0.950 . S
C1051 C1047 1.393 . S
C1051 C1050 1.391 . S
H1052 C1060 0.950 . S
H1053 C1065 0.950 . S
H1054 C1062 0.950 . S
H1055 C1064 0.950 . S
H1056 C1066 0.950 . S
H1057 C1068 0.950 . S
H1058 C1070 0.950 . S
H1059 C1071 0.950 . S
C1060 H1052 0.950 . S
C1060 C1061 1.386 . S
C1060 C1062 1.391 . S
C1061 C1060 1.386 . S
C1061 C1065 1.393 . S
C1062 H1054 0.950 . S
C1062 C1060 1.391 . S
C1062 C1063 1.400 . S
C1063 C1062 1.400 . S
C1063 C1064 1.398 . S
C1063 C1069 1.491 . S
C1064 H1055 0.950 . S
C1064 C1063 1.398 . S
C1064 C1065 1.391 . S
C1065 H1053 0.950 . S
C1065 C1061 1.393 . S
C1065 C1064 1.391 . S
C1066 H1056 0.950 . S
C1066 C1067 1.386 . S
C1066 C1068 1.391 . S
C1067 C1066 1.386 . S
C1067 C1071 1.393 . S
C1068 H1057 0.950 . S
C1068 C1066 1.391 . S
C1068 C1069 1.400 . S
C1069 C1063 1.491 . S
C1069 C1068 1.400 . S
C1069 C1070 1.398 . S
C1070 H1058 0.950 . S
C1070 C1069 1.398 . S
C1070 C1071 1.391 . S
C1071 H1059 0.950 . S
C1071 C1067 1.393 . S
C1071 C1070 1.391 . S
H1072 C1080 0.950 . S
H1073 C1085 0.950 . S
H1074 C1082 0.950 . S
H1075 C1084 0.950 . S
H1076 C1086 0.950 . S
H1077 C1088 0.950 . S
H1078 C1090 0.950 . S
H1079 C1091 0.950 . S
C1080 H1072 0.950 . S
C1080 C1081 1.386 . S
C1080 C1082 1.391 . S
C1081 C1080 1.386 . S
C1081 C1085 1.393 . S
C1082 H1074 0.950 . S
C1082 C1080 1.391 . S
C1082 C1083 1.400 . S
C1083 C1082 1.400 . S
C1083 C1084 1.398 . S
C1083 C1089 1.491 . S
C1084 H1075 0.950 . S
C1084 C1083 1.398 . S
C1084 C1085 1.391 . S
C1085 H1073 0.950 . S
C1085 C1081 1.393 . S
C1085 C1084 1.391 . S
C1086 H1076 0.950 . S
C1086 C1087 1.386 . S
C1086 C1088 1.391 . S
C1087 C1086 1.386 . S
C1087 C1091 1.393 . S
C1088 H1077 0.950 . S
C1088 C1086 1.391 . S
C1088 C1089 1.400 . S
C1089 C1083 1.491 . S
C1089 C1088 1.400 . S
C1089 C1090 1.398 . S
C1090 H1078 0.950 . S
C1090 C1089 1.398 . S
C1090 C1091 1.391 . S
C1091 H1079 0.950 . S
C1091 C1087 1.393 . S
C1091 C1090 1.391 . S
H1092 C1100 0.950 . S
H1093 C1105 0.950 . S
H1094 C1102 0.950 . S
H1095 C1104 0.950 . S
H1096 C1106 0.950 . S
H1097 C1108 0.950 . S
H1098 C1110 0.950 . S
H1099 C1111 0.950 . S
C1100 H1092 0.950 . S
C1100 C1101 1.386 . S
C1100 C1102 1.391 . S
C1101 C1100 1.386 . S
C1101 C1105 1.393 . S
C1102 H1094 0.950 . S
C1102 C1100 1.391 . S
C1102 C1103 1.400 . S
C1103 C1102 1.400 . S
C1103 C1104 1.398 . S
C1103 C1109 1.491 . S
C1104 H1095 0.950 . S
C1104 C1103 1.398 . S
C1104 C1105 1.391 . S
C1105 H1093 0.950 . S
C1105 C1101 1.393 . S
C1105 C1104 1.391 . S
C1106 H1096 0.950 . S
C1106 C1107 1.386 . S
C1106 C1108 1.391 . S
C1107 C1106 1.386 . S
C1107 C1111 1.393 . S
C1108 H1097 0.950 . S
C1108 C1106 1.391 . S
C1108 C1109 1.400 . S
C1109 C1103 1.491 . S
C1109 C1108 1.400 . S
C1109 C1110 1.398 . S
C1110 H1098 0.950 . S
C1110 C1109 1.398 . S
C1110 C1111 1.391 . S
C1111 H1099 0.950 . S
C1111 C1107 1.393 . S
C1111 C1110 1.391 . S
H1112 C1120 0.950 . S
H1113 C1125 0.950 . S
H1114 C1122 0.950 . S
H1115 C1124 0.950 . S
H1116 C1126 0.950 . S
H1117 C1128 0.950 . S
H1118 C1130 0.950 . S
H1119 C1131 0.950 . S
C1120 H1112 0.950 . S
C1120 C1121 1.386 . S
C1120 C1122 1.391 . S
C1121 C1120 1.386 . S
C1121 C1125 1.393 . S
C1122 H1114 0.950 . S
C1122 C1120 1.391 . S
C1122 C1123 1.400 . S
C1123 C1122 1.400 . S
C1123 C1124 1.398 . S
C1123 C1129 1.491 . S
C1124 H1115 0.950 . S
C1124 C1123 1.398 . S
C1124 C1125 1.391 . S
C1125 H1113 0.950 . S
C1125 C1121 1.393 . S
C1125 C1124 1.391 . S
C1126 H1116 0.950 . S
C1126 C1127 1.386 . S
C1126 C1128 1.391 . S
C1127 C1126 1.386 . S
C1127 C1131 1.393 . S
C1128 H1117 0.950 . S
C1128 C1126 1.391 . S
C1128 C1129 1.400 . S
C1129 C1123 1.491 . S
C1129 C1128 1.400 . S
C1129 C1130 1.398 . S
C1130 H1118 0.950 . S
C1130 C1129 1.398 . S
C1130 C1131 1.391 . S
C1131 H1119 0.950 . S
C1131 C1127 1.393 . S
C1131 C1130 1.391 . S
H1132 C1140 0.950 . S
H1133 C1145 0.950 . S
H1134 C1142 0.950 . S
H1135 C1144 0.950 . S
H1136 C1146 0.950 . S
H1137 C1148 0.950 . S
H1138 C1150 0.950 . S
H1139 C1151 0.950 . S
C1140 H1132 0.950 . S
C1140 C1141 1.386 . S
C1140 C1142 1.391 . S
C1141 C1140 1.386 . S
C1141 C1145 1.393 . S
C1142 H1134 0.950 . S
C1142 C1140 1.391 . S
C1142 C1143 1.400 . S
C1143 C1142 1.400 . S
C1143 C1144 1.398 . S
C1143 C1149 1.491 . S
C1144 H1135 0.950 . S
C1144 C1143 1.398 . S
C1144 C1145 1.391 . S
C1145 H1133 0.950 . S
C1145 C1141 1.393 . S
C1145 C1144 1.391 . S
C1146 H1136 0.950 . S
C1146 C1147 1.386 . S
C1146 C1148 1.391 . S
C1147 C1146 1.386 . S
C1147 C1151 1.393 . S
C1148 H1137 0.950 . S
C1148 C1146 1.391 . S
C1148 C1149 1.400 . S
C1149 C1143 1.491 . S
C1149 C1148 1.400 . S
C1149 C1150 1.398 . S
C1150 H1138 0.950 . S
C1150 C1149 1.398 . S
C1150 C1151 1.391 . S
C1151 H1139 0.950 . S
C1151 C1147 1.393 . S
C1151 C1150 1.391 . S
H1152 C1160 0.950 . S
H1153 C1165 0.950 . S
H1154 C1162 0.950 . S
H1155 C1164 0.950 . S
H1156 C1166 0.950 . S
H1157 C1168 0.950 . S
H1158 C1170 0.950 . S
H1159 C1171 0.950 . S
C1160 H1152 0.950 . S
C1160 C1161 1.386 . S
C1160 C1162 1.391 . S
C1161 C1160 1.386 . S
C1161 C1165 1.393 . S
C1162 H1154 0.950 . S
C1162 C1160 1.391 . S
C1162 C1163 1.400 . S
C1163 C1162 1.400 . S
C1163 C1164 1.398 . S
C1163 C1169 1.491 . S
C1164 H1155 0.950 . S
C1164 C1163 1.398 . S
C1164 C1165 1.391 . S
C1165 H1153 0.950 . S
C1165 C1161 1.393 . S
C1165 C1164 1.391 . S
C1166 H1156 0.950 . S
C1166 C1167 1.386 . S
C1166 C1168 1.391 . S
C1167 C1166 1.386 . S
C1167 C1171 1.393 . S
C1168 H1157 0.950 . S
C1168 C1166 1.391 . S
C1168 C1169 1.400 . S
C1169 C1163 1.491 . S
C1169 C1168 1.400 . S
C1169 C1170 1.398 . S
C1170 H1158 0.950 . S
C1170 C1169 1.398 . S
C1170 C1171 1.391 . S
C1171 H1159 0.950 . S
C1171 C1167 1.393 . S
C1171 C1170 1.391 . S
H1172 C1180 0.950 . S
H1173 C1185 0.950 . S
H1174 C1182 0.957 . S
H1175 C1184 0.950 . S
H1176 C1186 0.950 1_565 S
H1177 C1188 0.950 . S
H1178 C1190 0.950 . S
H1179 C1191 0.950 . S
C1180 H1172 0.950 . S
C1180 C1181 1.386 . S
C1180 C1182 1.391 . S
C1181 C1180 1.386 . S
C1181 C1185 1.393 . S
C1182 H1174 0.957 . S
C1182 C1180 1.391 . S
C1182 C1183 1.400 . S
C1183 C1182 1.400 . S
C1183 C1184 1.398 . S
C1183 C1189 1.491 . S
C1184 H1175 0.950 . S
C1184 C1183 1.398 . S
C1184 C1185 1.391 . S
C1185 H1173 0.950 . S
C1185 C1181 1.393 . S
C1185 C1184 1.391 . S
C1186 H1176 0.950 1_545 S
C1186 C1187 1.386 . S
C1186 C1188 1.391 1_545 S
C1187 C1186 1.386 . S
C1187 C1191 1.393 . S
C1188 H1177 0.950 . S
C1188 C1186 1.391 1_565 S
C1188 C1189 1.400 . S
C1189 C1183 1.491 . S
C1189 C1188 1.400 . S
C1189 C1190 1.398 1_565 S
C1190 H1178 0.950 . S
C1190 C1189 1.398 1_545 S
C1190 C1191 1.391 . S
C1191 H1179 0.950 . S
C1191 C1187 1.393 . S
C1191 C1190 1.391 . S
H1192 C1200 0.950 . S
H1193 C1205 0.950 . S
H1194 C1202 0.950 . S
H1195 C1204 0.950 . S
H1196 C1206 0.950 . S
H1197 C1208 0.950 . S
H1198 C1210 0.950 . S
H1199 C1211 0.950 . S
C1200 H1192 0.950 . S
C1200 C1201 1.386 . S
C1200 C1202 1.391 . S
C1201 C1200 1.386 . S
C1201 C1205 1.393 . S
C1202 H1194 0.950 . S
C1202 C1200 1.391 . S
C1202 C1203 1.400 . S
C1203 C1202 1.400 . S
C1203 C1204 1.398 . S
C1203 C1209 1.491 . S
C1204 H1195 0.950 . S
C1204 C1203 1.398 . S
C1204 C1205 1.391 . S
C1205 H1193 0.950 . S
C1205 C1201 1.393 . S
C1205 C1204 1.391 . S
C1206 H1196 0.950 . S
C1206 C1207 1.386 . S
C1206 C1208 1.391 . S
C1207 C1206 1.386 . S
C1207 C1211 1.393 . S
C1208 H1197 0.950 . S
C1208 C1206 1.391 . S
C1208 C1209 1.400 . S
C1209 C1203 1.491 . S
C1209 C1208 1.400 . S
C1209 C1210 1.398 . S
C1210 H1198 0.950 . S
C1210 C1209 1.398 . S
C1210 C1211 1.391 . S
C1211 H1199 0.950 . S
C1211 C1207 1.393 . S
C1211 C1210 1.391 . S
H1212 C1220 0.950 . S
H1213 C1225 0.950 . S
H1214 C1222 0.950 . S
H1215 C1224 0.950 . S
H1216 C1226 0.950 . S
H1217 C1228 0.950 . S
H1218 C1230 0.950 . S
H1219 C1231 0.950 . S
C1220 H1212 0.950 . S
C1220 C1221 1.386 . S
C1220 C1222 1.391 . S
C1221 C1220 1.386 . S
C1221 C1225 1.393 . S
C1222 H1214 0.950 . S
C1222 C1220 1.391 . S
C1222 C1223 1.400 1_565 S
C1223 C1222 1.400 1_545 S
C1223 C1224 1.398 . S
C1223 C1229 1.491 . S
C1224 H1215 0.950 . S
C1224 C1223 1.398 . S
C1224 C1225 1.391 1_545 S
C1225 H1213 0.950 . S
C1225 C1221 1.393 . S
C1225 C1224 1.391 1_565 S
C1226 H1216 0.950 . S
C1226 C1227 1.386 . S
C1226 C1228 1.391 . S
C1227 C1226 1.386 . S
C1227 C1231 1.393 . S
C1228 H1217 0.950 . S
C1228 C1226 1.391 . S
C1228 C1229 1.400 . S
C1229 C1223 1.491 . S
C1229 C1228 1.400 . S
C1229 C1230 1.398 . S
C1230 H1218 0.950 . S
C1230 C1229 1.398 . S
C1230 C1231 1.391 . S
C1231 H1219 0.950 . S
C1231 C1227 1.393 . S
C1231 C1230 1.391 . S
H1232 C1240 0.950 . S
H1233 C1245 0.950 . S
H1234 C1242 0.950 . S
H1235 C1244 0.950 . S
H1236 C1246 0.950 . S
H1237 C1248 0.950 . S
H1238 C1250 0.950 . S
H1239 C1251 0.950 . S
C1240 H1232 0.950 . S
C1240 C1241 1.386 . S
C1240 C1242 1.391 . S
C1241 C1240 1.386 . S
C1241 C1245 1.393 . S
C1242 H1234 0.950 . S
C1242 C1240 1.391 . S
C1242 C1243 1.400 . S
C1243 C1242 1.400 . S
C1243 C1244 1.398 . S
C1243 C1249 1.491 . S
C1244 H1235 0.950 . S
C1244 C1243 1.398 . S
C1244 C1245 1.391 . S
C1245 H1233 0.950 . S
C1245 C1241 1.393 . S
C1245 C1244 1.391 . S
C1246 H1236 0.950 . S
C1246 C1247 1.386 . S
C1246 C1248 1.391 . S
C1247 C1246 1.386 . S
C1247 C1251 1.393 . S
C1248 H1237 0.950 . S
C1248 C1246 1.391 . S
C1248 C1249 1.400 . S
C1249 C1243 1.491 . S
C1249 C1248 1.400 . S
C1249 C1250 1.398 . S
C1250 H1238 0.950 . S
C1250 C1249 1.398 . S
C1250 C1251 1.391 . S
C1251 H1239 0.950 . S
C1251 C1247 1.393 . S
C1251 C1250 1.391 . S
H1252 C1260 0.950 . S
H1253 C1265 0.950 . S
H1254 C1262 0.950 . S
H1255 C1264 0.950 . S
H1256 C1266 0.950 . S
H1257 C1268 0.950 . S
H1258 C1270 0.950 . S
H1259 C1271 0.950 . S
C1260 H1252 0.950 . S
C1260 C1261 1.386 . S
C1260 C1262 1.391 1_565 S
C1261 C1260 1.386 . S
C1261 C1265 1.393 . S
C1262 H1254 0.950 . S
C1262 C1260 1.391 1_545 S
C1262 C1263 1.400 . S
C1263 C1262 1.400 . S
C1263 C1264 1.398 1_545 S
C1263 C1269 1.491 . S
C1264 H1255 0.950 . S
C1264 C1263 1.398 1_565 S
C1264 C1265 1.391 . S
C1265 H1253 0.950 . S
C1265 C1261 1.393 . S
C1265 C1264 1.391 . S
C1266 H1256 0.950 . S
C1266 C1267 1.386 . S
C1266 C1268 1.391 . S
C1267 C1266 1.386 . S
C1267 C1271 1.393 . S
C1268 H1257 0.950 . S
C1268 C1266 1.391 . S
C1268 C1269 1.400 . S
C1269 C1263 1.491 . S
C1269 C1268 1.400 . S
C1269 C1270 1.398 . S
C1270 H1258 0.950 . S
C1270 C1269 1.398 . S
C1270 C1271 1.391 . S
C1271 H1259 0.950 . S
C1271 C1267 1.393 . S
C1271 C1270 1.391 . S
H1272 C1280 0.950 . S
H1273 C1285 0.950 . S
H1274 C1282 0.950 . S
H1275 C1284 0.950 . S
H1276 C1286 0.950 . S
H1277 C1288 0.950 . S
H1278 C1290 0.950 . S
H1279 C1291 0.950 . S
C1280 H1272 0.950 . S
C1280 C1281 1.386 . S
C1280 C1282 1.391 . S
C1281 C1280 1.386 . S
C1281 C1285 1.393 . S
C1282 H1274 0.950 . S
C1282 C1280 1.391 . S
C1282 C1283 1.400 . S
C1283 C1282 1.400 . S
C1283 C1284 1.398 . S
C1283 C1289 1.491 . S
C1284 H1275 0.950 . S
C1284 C1283 1.398 . S
C1284 C1285 1.391 . S
C1285 H1273 0.950 . S
C1285 C1281 1.393 . S
C1285 C1284 1.391 . S
C1286 H1276 0.950 . S
C1286 C1287 1.386 . S
C1286 C1288 1.391 . S
C1287 C1286 1.386 . S
C1287 C1291 1.393 . S
C1288 H1277 0.950 . S
C1288 C1286 1.391 . S
C1288 C1289 1.400 . S
C1289 C1283 1.491 . S
C1289 C1288 1.400 . S
C1289 C1290 1.398 . S
C1290 H1278 0.950 . S
C1290 C1289 1.398 . S
C1290 C1291 1.391 . S
C1291 H1279 0.950 . S
C1291 C1287 1.393 . S
C1291 C1290 1.391 . S
H1292 C1300 0.950 . S
H1293 C1305 0.950 . S
H1294 C1302 0.950 . S
H1295 C1304 0.950 1_545 S
H1296 C1306 0.950 . S
H1297 C1308 0.950 . S
H1298 C1310 0.950 . S
H1299 C1311 0.950 . S
C1300 H1292 0.950 . S
C1300 C1301 1.386 . S
C1300 C1302 1.391 . S
C1301 C1300 1.386 . S
C1301 C1305 1.393 . S
C1302 H1294 0.950 . S
C1302 C1300 1.391 . S
C1302 C1303 1.400 . S
C1303 C1302 1.400 . S
C1303 C1304 1.398 . S
C1303 C1309 1.491 . S
C1304 H1295 0.950 1_565 S
C1304 C1303 1.398 . S
C1304 C1305 1.391 . S
C1305 H1293 0.950 . S
C1305 C1301 1.393 . S
C1305 C1304 1.391 . S
C1306 H1296 0.950 . S
C1306 C1307 1.386 . S
C1306 C1308 1.391 . S
C1307 C1306 1.386 . S
C1307 C1311 1.393 1_545 S
C1308 H1297 0.950 . S
C1308 C1306 1.391 . S
C1308 C1309 1.400 1_545 S
C1309 C1303 1.491 . S
C1309 C1308 1.400 1_565 S
C1309 C1310 1.398 . S
C1310 H1298 0.950 . S
C1310 C1309 1.398 . S
C1310 C1311 1.391 . S
C1311 H1299 0.950 . S
C1311 C1307 1.393 1_565 S
C1311 C1310 1.391 . S
C361 C7 1.027 . S
C367 C271 1.027 . S
C381 C125 1.029 . S
C387 C29 1.029 . S
C401 C65 1.018 . S
C407 C323 1.018 . S
C421 C73 1.026 . S
C427 C175 1.026 . S
C441 C95 1.031 . S
C447 C183 1.031 . S
C461 C227 0.997 . S
C467 C147 0.997 . S
C481 C307 0.996 . S
C487 C219 0.996 . S
C501 C249 1.031 . S
C507 C337 1.031 . S
C521 C213 1.571 . S
C527 C10 1.540 . S
C541 C32 1.537 . S
C547 C241 1.569 . S
C561 C62 1.548 . S
C567 C263 1.570 . S
C581 C197 1.569 . S
C587 C76 1.537 . S
C601 C301 1.571 . S
C607 C98 1.539 . S
C621 C315 1.568 . S
C627 C118 1.536 . S
C641 C140 1.537 . S
C647 C351 1.565 . S
C661 C285 1.564 . S
C667 C172 1.538 . S
C681 C186 1.547 . S
C687 C43 1.571 . S
C701 C216 1.538 . S
C707 C59 1.564 . S
C721 C230 1.536 . S
C727 C87 1.568 . S
C741 C21 1.571 . S
C747 C252 1.540 . S
C761 C117 1.563 . S
C767 C274 1.555 . S
C781 C304 1.551 . S
C787 C139 1.561 . S
C801 C169 1.563 . S
C807 C316 1.555 . S
C821 C340 1.537 . S
C827 C109 1.570 . S
C841 C8 0.760 . S
C847 C228 0.796 . S
C861 C30 0.780 . S
C867 C250 0.814 . S
C881 C184 0.760 . S
C887 C54 0.796 . S
C901 C74 0.793 . S
C907 C208 0.815 . S
C921 C96 0.809 . S
C927 C326 0.770 . S
C941 C128 0.815 . S
C947 C338 0.785 . S
C961 C272 0.784 . S
C967 C150 0.815 . S
C981 C164 0.781 . S
C987 C296 0.759 . S
C1001 C18 1.516 . S
C1007 C161 1.532 . S
C1021 C279 1.537 . S
C1027 C40 1.509 . S
C1041 C52 1.503 . S
C1047 C131 1.542 . S
C1061 C84 1.495 . S
C1067 C329 1.547 . S
C1081 C106 1.515 . S
C1087 C81 1.533 . S
C1101 C191 1.545 . S
C1107 C120 1.498 . S
C1121 C142 1.502 . S
C1127 C37 1.542 . S
C1141 C235 1.532 . S
C1147 C162 1.516 . S
C1161 C194 1.510 . S
C1167 C345 1.536 1_565 S
C1181 C103 1.530 . S
C1187 C206 1.519 . S
C1201 C293 1.547 1_545 S
C1207 C238 1.496 . S
C1221 C260 1.519 . S
C1227 C153 1.530 . S
C1241 C282 1.494 . S
C1247 C257 1.548 1_545 S
C1261 C294 1.518 . S
C1267 C15 1.531 . S
C1281 C205 1.545 1_565 S
C1287 C318 1.499 . S
C1301 C51 1.538 . S
C1307 C348 1.508 . S
