# Generated by pormake.
# Topology npo, (4)-cn, num edge types: 1
# Building blocks:
#     Node 0, Type 0, BuildingBlock: UXUYUI_clean_sbu_0, # of connection points: 4
#     Node 1, Type 0, BuildingBlock: UXUYUI_clean_sbu_0, # of connection points: 4
#     Node 2, Type 0, BuildingBlock: UXUYUI_clean_sbu_0, # of connection points: 4
#     Node 3, Type 0, BuildingBlock: UXUYUI_clean_sbu_0, # of connection points: 4
#     Node 4, Type 0, BuildingBlock: UXUYUI_clean_sbu_0, # of connection points: 4
#     Node 5, Type 0, BuildingBlock: UXUYUI_clean_sbu_0, # of connection points: 4
#     Edge 6, Type (0, 0), BuildingBlock: KIFKEQ_clean_linker_1, # of connection points: 2
#     Edge 7, Type (0, 0), BuildingBlock: KIFKEQ_clean_linker_1, # of connection points: 2
#     Edge 8, Type (0, 0), BuildingBlock: KIFKEQ_clean_linker_1, # of connection points: 2
#     Edge 9, Type (0, 0), BuildingBlock: KIFKEQ_clean_linker_1, # of connection points: 2
#     Edge 10, Type (0, 0), BuildingBlock: KIFKEQ_clean_linker_1, # of connection points: 2
#     Edge 11, Type (0, 0), BuildingBlock: KIFKEQ_clean_linker_1, # of connection points: 2
#     Edge 12, Type (0, 0), BuildingBlock: KIFKEQ_clean_linker_1, # of connection points: 2
#     Edge 13, Type (0, 0), BuildingBlock: KIFKEQ_clean_linker_1, # of connection points: 2
#     Edge 14, Type (0, 0), BuildingBlock: KIFKEQ_clean_linker_1, # of connection points: 2
#     Edge 15, Type (0, 0), BuildingBlock: KIFKEQ_clean_linker_1, # of connection points: 2
#     Edge 16, Type (0, 0), BuildingBlock: KIFKEQ_clean_linker_1, # of connection points: 2
#     Edge 17, Type (0, 0), BuildingBlock: KIFKEQ_clean_linker_1, # of connection points: 2
# Relax obj value: 0.320
# Max RMSD: 0.247
# Mean RMSD: 0.247
data_MOF--net-npo--node1-UXUYUI_clean_sbu_0--edge1-KIFKEQ_clean_linker_1
_symmetry_space_group_name_H-M    P1
_symmetry_Int_Tables_number       1
_symmetry_cell_setting            triclinic
loop_
_symmetry_equiv_pos_as_xyz
'x, y, z'
_cell_length_a     61.924304
_cell_length_b     61.929822
_cell_length_c     38.58662
_cell_angle_alpha  89.932404
_cell_angle_beta   90.063392
_cell_angle_gamma 120.07939
loop_
_atom_site_label
_atom_site_type_symbol
_atom_site_fract_x
_atom_site_fract_y
_atom_site_fract_z
_atom_type_partial_charge
Li0 Li 0.53078 0.11363 0.23588 0.0
Li1 Li 0.57257 0.11849 0.24055 0.0
Li2 Li 0.5389 0.08447 0.20932 0.0
Li3 Li 0.53735 0.0858 0.27232 0.0
C4 C 0.56158 0.1219 0.16447 0.0
N5 N 0.57419 0.12314 0.09543 0.0
C6 C 0.58644 0.13096 0.15491 0.0
C7 C 0.5432 0.1138 0.13876 0.0
C8 C 0.59242 0.13138 0.11992 0.0
C9 C 0.54993 0.11445 0.10406 0.0
C10 C 0.56563 0.12977 0.30777 0.0
C11 C 0.5947 0.1285 0.34821 0.0
N12 N 0.59238 0.14497 0.36893 0.0
C13 C 0.56352 0.14667 0.32946 0.0
C14 C 0.58134 0.12059 0.31719 0.0
C15 C 0.57721 0.15414 0.36027 0.0
C16 C 0.50726 0.13907 0.26244 0.0
N17 N 0.51431 0.13238 0.23291 0.0
C18 C 0.50158 0.15609 0.19855 0.0
C19 C 0.51141 0.14027 0.20132 0.0
C20 C 0.49532 0.16447 0.22868 0.0
C21 C 0.49773 0.15527 0.26095 0.0
H22 H 0.50988 0.13252 0.28722 0.0
H23 H 0.51725 0.13473 0.1783 0.0
C24 C 0.62405 0.13447 0.23521 0.0
N25 N 0.60713 0.14155 0.24326 0.0
C26 C 0.64957 0.15171 0.237 0.0
C27 C 0.6396 0.1829 0.2561 0.0
C28 C 0.61434 0.16519 0.25349 0.0
C29 C 0.65755 0.17625 0.24765 0.0
H30 H 0.61768 0.11555 0.22695 0.0
H31 H 0.6004 0.17025 0.25953 0.0
C32 C 0.48639 0.07384 0.23638 0.0
N33 N 0.43965 0.06914 0.23161 0.0
C34 C 0.47034 0.0657 0.26491 0.0
C35 C 0.47839 0.07902 0.20519 0.0
C36 C 0.44685 0.06358 0.26205 0.0
C37 C 0.4548 0.07672 0.20335 0.0
C38 C 0.5593 0.05936 0.24341 0.0
C39 C 0.53526 0.03851 0.24246 0.0
C40 C 0.57998 0.05598 0.24453 0.0
C41 C 0.53235 0.01464 0.24275 0.0
C42 C 0.57627 0.0318 0.24481 0.0
N43 N 0.55274 0.0118 0.24392 0.0
C44 C 0.55226 0.06522 0.1528 0.0
C45 C 0.50867 0.04847 0.15953 0.0
C46 C 0.54854 0.05255 0.12155 0.0
N47 N 0.53249 0.06357 0.1704 0.0
C48 C 0.50406 0.03536 0.12854 0.0
C49 C 0.52419 0.03783 0.10868 0.0
H50 H 0.571 0.0772 0.16239 0.0
H51 H 0.49329 0.04701 0.17453 0.0
C52 C 0.51421 0.07402 0.33692 0.0
N53 N 0.52913 0.06939 0.3161 0.0
C54 C 0.5083 0.06398 0.37025 0.0
C55 C 0.5342 0.04556 0.36076 0.0
C56 C 0.53945 0.05581 0.32755 0.0
C57 C 0.51839 0.04956 0.38248 0.0
H58 H 0.50736 0.08602 0.32785 0.0
H59 H 0.55225 0.05334 0.31145 0.0
O60 O 0.55535 0.1211 0.19874 0.0
O61 O 0.55213 0.12216 0.27767 0.0
O62 O 0.5096 0.07628 0.23876 0.0
O63 O 0.56274 0.08298 0.24265 0.0
H64 H 0.601 0.13759 0.17419 0.0
H65 H 0.52387 0.10661 0.14544 0.0
H66 H 0.61158 0.13825 0.11224 0.0
H67 H 0.53583 0.10795 0.084 0.0
H68 H 0.60691 0.12153 0.35583 0.0
H69 H 0.55142 0.15394 0.32255 0.0
H70 H 0.5832 0.10746 0.30081 0.0
H71 H 0.57575 0.16721 0.37731 0.0
H72 H 0.49959 0.16223 0.17307 0.0
H73 H 0.49346 0.16141 0.28492 0.0
H74 H 0.66289 0.14592 0.23033 0.0
H75 H 0.64504 0.20175 0.26391 0.0
H76 H 0.47575 0.06076 0.28889 0.0
H77 H 0.49039 0.08505 0.18273 0.0
H78 H 0.4343 0.0574 0.28401 0.0
H79 H 0.44854 0.08096 0.17946 0.0
H80 H 0.519 0.04065 0.24157 0.0
H81 H 0.59871 0.07188 0.24525 0.0
H82 H 0.51387 -0.00164 0.24205 0.0
H83 H 0.59212 0.02893 0.24573 0.0
H84 H 0.56458 0.05505 0.10702 0.0
H85 H 0.48496 0.02369 0.11998 0.0
H86 H 0.49648 0.06794 0.38655 0.0
H87 H 0.54242 0.03462 0.36933 0.0
Li88 Li 0.45082 0.54027 0.78079 0.0
Li89 Li 0.45407 0.57543 0.74852 0.0
Li90 Li 0.41351 0.53514 0.75463 0.0
Li91 Li 0.44633 0.53775 0.71637 0.0
C92 C 0.43736 0.56371 0.82545 0.0
N93 N 0.44529 0.57142 0.89595 0.0
C94 C 0.45538 0.58703 0.83805 0.0
C95 C 0.42315 0.5444 0.84871 0.0
C96 C 0.45915 0.59055 0.87379 0.0
C97 C 0.42752 0.54864 0.88425 0.0
C98 C 0.49952 0.57705 0.73305 0.0
C99 C 0.52759 0.59969 0.68611 0.0
N100 N 0.54696 0.60992 0.70887 0.0
C101 C 0.5198 0.5875 0.75587 0.0
C102 C 0.50352 0.58295 0.6978 0.0
C103 C 0.54359 0.60419 0.7432 0.0
C104 C 0.45239 0.50732 0.82981 0.0
N105 N 0.46339 0.53162 0.81998 0.0
C106 C 0.48981 0.54433 0.86982 0.0
C107 C 0.48202 0.55002 0.83895 0.0
C108 C 0.47823 0.51947 0.88122 0.0
C109 C 0.45952 0.50078 0.86058 0.0
H110 H 0.43774 0.49306 0.81413 0.0
H111 H 0.49019 0.56922 0.83075 0.0
C112 C 0.45166 0.61784 0.73451 0.0
N113 N 0.46769 0.61051 0.74615 0.0
C114 C 0.45934 0.64306 0.73162 0.0
C115 C 0.49966 0.65297 0.75449 0.0
C116 C 0.49127 0.62741 0.75639 0.0
C117 C 0.4836 0.66096 0.74166 0.0
H118 H 0.43276 0.604 0.72763 0.0
H119 H 0.50341 0.62112 0.76661 0.0
C120 C 0.40527 0.48912 0.75051 0.0
N121 N 0.36135 0.44379 0.74759 0.0
C122 C 0.39785 0.47566 0.71951 0.0
C123 C 0.39048 0.47939 0.78012 0.0
C124 C 0.37556 0.45281 0.71854 0.0
C125 C 0.3683 0.45649 0.77808 0.0
C126 C 0.42581 0.56506 0.68154 0.0
C127 C 0.40243 0.55505 0.66564 0.0
C128 C 0.44671 0.58447 0.66529 0.0
C129 C 0.40047 0.56424 0.63342 0.0
C130 C 0.44399 0.59318 0.63311 0.0
N131 N 0.42112 0.58294 0.61793 0.0
C132 C 0.36993 0.52895 0.7862 0.0
C133 C 0.36292 0.50675 0.73351 0.0
C134 C 0.34468 0.52151 0.7886 0.0
N135 N 0.37854 0.52174 0.75877 0.0
C136 C 0.33751 0.4989 0.73481 0.0
C137 C 0.32819 0.50666 0.76234 0.0
H138 H 0.38281 0.54122 0.8056 0.0
H139 H 0.37031 0.50149 0.7118 0.0
C140 C 0.47215 0.52139 0.67398 0.0
N141 N 0.45277 0.52582 0.67474 0.0
C142 C 0.47806 0.51352 0.64338 0.0
C143 C 0.44365 0.51447 0.61521 0.0
C144 C 0.43827 0.52204 0.64641 0.0
C145 C 0.46389 0.51023 0.61329 0.0
H146 H 0.48314 0.52423 0.69712 0.0
H147 H 0.42251 0.52492 0.64791 0.0
O148 O 0.43373 0.55979 0.79052 0.0
O149 O 0.4761 0.56056 0.7451 0.0
O150 O 0.42693 0.51164 0.75187 0.0
O151 O 0.428 0.55622 0.71316 0.0
H152 H 0.46649 0.6022 0.82044 0.0
H153 H 0.40909 0.52626 0.83939 0.0
H154 H 0.47314 0.60845 0.8839 0.0
H155 H 0.41682 0.53379 0.90252 0.0
H156 H 0.53089 0.60446 0.6589 0.0
H157 H 0.51723 0.58291 0.78312 0.0
H158 H 0.48832 0.57452 0.6795 0.0
H159 H 0.55939 0.61255 0.76065 0.0
H160 H 0.50409 0.55932 0.88521 0.0
H161 H 0.45037 0.48135 0.86828 0.0
H162 H 0.44623 0.64852 0.72243 0.0
H163 H 0.51841 0.6663 0.76283 0.0
H164 H 0.40912 0.48281 0.6964 0.0
H165 H 0.39593 0.48954 0.80432 0.0
H166 H 0.36954 0.44225 0.69469 0.0
H167 H 0.35659 0.44884 0.80073 0.0
H168 H 0.38598 0.54026 0.67793 0.0
H169 H 0.46477 0.5931 0.67763 0.0
H170 H 0.38251 0.55653 0.62076 0.0
H171 H 0.46003 0.6082 0.6203 0.0
H172 H 0.33839 0.5283 0.80994 0.0
H173 H 0.3254 0.48734 0.71414 0.0
H174 H 0.4935 0.50998 0.64337 0.0
H175 H 0.4323 0.51241 0.59273 0.0
Li176 Li 0.87579 0.45605 0.2463 0.0
Li177 Li 0.91123 0.45407 0.27002 0.0
Li178 Li 0.90465 0.45346 0.20803 0.0
Li179 Li 0.8777 0.41754 0.24385 0.0
C180 C 0.92965 0.50053 0.22394 0.0
N181 N 0.96697 0.53922 0.18639 0.0
C182 C 0.95468 0.50937 0.23221 0.0
C183 C 0.92357 0.51144 0.19671 0.0
C184 C 0.97328 0.52896 0.2129 0.0
C185 C 0.94272 0.53094 0.17797 0.0
C186 C 0.87777 0.43748 0.31994 0.0
C187 C 0.88798 0.42661 0.3752 0.0
N188 N 0.88415 0.4441 0.39079 0.0
C189 C 0.87384 0.45528 0.33652 0.0
C190 C 0.88477 0.42293 0.33943 0.0
C191 C 0.87717 0.45834 0.37237 0.0
C192 C 0.83058 0.45109 0.26598 0.0
N193 N 0.85344 0.46806 0.2537 0.0
C194 C 0.84169 0.49933 0.25075 0.0
C195 C 0.85944 0.49191 0.24645 0.0
C196 C 0.81766 0.482 0.26268 0.0
C197 C 0.81229 0.45762 0.27047 0.0
H198 H 0.82644 0.43228 0.27161 0.0
H199 H 0.87789 0.50506 0.23703 0.0
C200 C 0.948 0.45471 0.31469 0.0
N201 N 0.93469 0.46601 0.30661 0.0
C202 C 0.96289 0.46181 0.34437 0.0
C203 C 0.95076 0.49265 0.3559 0.0
C204 C 0.93629 0.48508 0.32589 0.0
C205 C 0.96397 0.48066 0.36584 0.0
H206 H 0.94661 0.43982 0.29858 0.0
H207 H 0.92551 0.49375 0.31863 0.0
C208 C 0.84596 0.43025 0.1955 0.0
N209 N 0.80078 0.42557 0.17634 0.0
C210 C 0.82363 0.40839 0.20315 0.0
C211 C 0.84529 0.44967 0.17794 0.0
C212 C 0.80099 0.40639 0.19324 0.0
C213 C 0.82227 0.44697 0.16857 0.0
C214 C 0.91547 0.41144 0.2291 0.0
C215 C 0.91803 0.40523 0.19512 0.0
C216 C 0.91343 0.39561 0.25632 0.0
C217 C 0.91844 0.38322 0.18895 0.0
C218 C 0.91387 0.37374 0.24907 0.0
N219 N 0.91635 0.36805 0.21582 0.0
C220 C 0.94542 0.4701 0.16274 0.0
C221 C 0.90789 0.463 0.13606 0.0
C222 C 0.95785 0.4769 0.13102 0.0
N223 N 0.92091 0.46331 0.16459 0.0
C224 C 0.91962 0.46987 0.10386 0.0
C225 C 0.94488 0.47678 0.10108 0.0
H226 H 0.95521 0.47 0.18592 0.0
H227 H 0.88834 0.45716 0.13821 0.0
C228 C 0.84476 0.3714 0.27468 0.0
N229 N 0.85757 0.38228 0.24518 0.0
C230 C 0.82747 0.34593 0.27537 0.0
C231 C 0.83741 0.34319 0.21554 0.0
C232 C 0.85438 0.36878 0.21594 0.0
C233 C 0.82326 0.33152 0.24533 0.0
H234 H 0.84715 0.38269 0.29724 0.0
H235 H 0.86439 0.37806 0.1926 0.0
O236 O 0.91119 0.48098 0.24199 0.0
O237 O 0.87522 0.43462 0.28475 0.0
O238 O 0.86831 0.4328 0.20566 0.0
O239 O 0.91475 0.43278 0.23566 0.0
H240 H 0.95971 0.50104 0.25306 0.0
H241 H 0.9043 0.50464 0.18974 0.0
H242 H 0.99274 0.53593 0.2189 0.0
H243 H 0.9383 0.53943 0.15666 0.0
H244 H 0.89361 0.41564 0.39055 0.0
H245 H 0.86861 0.46684 0.32186 0.0
H246 H 0.88806 0.40919 0.327 0.0
H247 H 0.87432 0.47213 0.38552 0.0
H248 H 0.84671 0.51838 0.2448 0.0
H249 H 0.79393 0.44348 0.27909 0.0
H250 H 0.97315 0.45241 0.35067 0.0
H251 H 0.95077 0.50705 0.37179 0.0
H252 H 0.82371 0.39321 0.21688 0.0
H253 H 0.86234 0.46689 0.17231 0.0
H254 H 0.78358 0.38962 0.19912 0.0
H255 H 0.82148 0.46196 0.15529 0.0
H256 H 0.91941 0.41711 0.17368 0.0
H257 H 0.91116 0.39996 0.28272 0.0
H258 H 0.92033 0.37814 0.16278 0.0
H259 H 0.91216 0.36124 0.26987 0.0
H260 H 0.97739 0.48229 0.12992 0.0
H261 H 0.90893 0.46923 0.08126 0.0
H262 H 0.81663 0.33794 0.29868 0.0
H263 H 0.83492 0.33281 0.19187 0.0
Li264 Li 0.45234 0.91156 0.71053 0.0
Li265 Li 0.45285 0.90749 0.77437 0.0
Li266 Li 0.45291 0.8768 0.73733 0.0
Li267 Li 0.41564 0.87935 0.74239 0.0
C268 C 0.5001 0.91139 0.74345 0.0
N269 N 0.54215 0.90693 0.74983 0.0
C270 C 0.51009 0.91201 0.77619 0.0
C271 C 0.51165 0.90876 0.71394 0.0
C272 C 0.53134 0.90968 0.77887 0.0
C273 C 0.53284 0.90644 0.71771 0.0
C274 C 0.41721 0.92277 0.76542 0.0
C275 C 0.39331 0.91809 0.81703 0.0
N276 N 0.38856 0.93599 0.80514 0.0
C277 C 0.41209 0.94109 0.75369 0.0
C278 C 0.40775 0.91116 0.79731 0.0
C279 C 0.39757 0.94752 0.77416 0.0
C280 C 0.44422 0.93326 0.6524 0.0
N281 N 0.46227 0.93387 0.67308 0.0
C282 C 0.49427 0.96437 0.63698 0.0
C283 C 0.4869 0.94919 0.66634 0.0
C284 C 0.47605 0.9638 0.61467 0.0
C285 C 0.45073 0.94825 0.62289 0.0
H286 H 0.42478 0.92071 0.6585 0.0
H287 H 0.50078 0.94921 0.6834 0.0
C288 C 0.4576 0.91352 0.84631 0.0
N289 N 0.46518 0.92574 0.81559 0.0
C290 C 0.4665 0.92649 0.87732 0.0
C291 C 0.4911 0.96438 0.84437 0.0
C292 C 0.48161 0.95063 0.81395 0.0
C293 C 0.4835 0.95228 0.87661 0.0
H294 H 0.44446 0.89372 0.84668 0.0
H295 H 0.48737 0.95973 0.78899 0.0
C296 C 0.43147 0.86625 0.66795 0.0
N297 N 0.43219 0.84661 0.60395 0.0
C298 C 0.41106 0.84372 0.65701 0.0
C299 C 0.45219 0.87885 0.64622 0.0
C300 C 0.41181 0.83407 0.62461 0.0
C301 C 0.4522 0.8686 0.61399 0.0
C302 C 0.41838 0.84575 0.78629 0.0
C303 C 0.40817 0.82876 0.75894 0.0
C304 C 0.4142 0.83692 0.82039 0.0
C305 C 0.39392 0.80327 0.76614 0.0
C306 C 0.39984 0.81129 0.82654 0.0
N307 N 0.39007 0.79513 0.79951 0.0
C308 C 0.47368 0.85021 0.76622 0.0
C309 C 0.46632 0.84248 0.70606 0.0
C310 C 0.48251 0.83351 0.76853 0.0
N311 N 0.46569 0.8543 0.73538 0.0
C312 C 0.47482 0.82546 0.70722 0.0
C313 C 0.48285 0.82059 0.73884 0.0
H314 H 0.47293 0.85979 0.7892 0.0
H315 H 0.45985 0.84575 0.68184 0.0
C316 C 0.36894 0.85696 0.71051 0.0
N317 N 0.38031 0.86112 0.74188 0.0
C318 C 0.34328 0.84079 0.70764 0.0
C319 C 0.34131 0.83481 0.76976 0.0
C320 C 0.36707 0.8509 0.77138 0.0
C321 C 0.32928 0.82908 0.73744 0.0
H322 H 0.37998 0.86549 0.68755 0.0
H323 H 0.3766 0.85441 0.796 0.0
O324 O 0.479 0.9131 0.74037 0.0
O325 O 0.43141 0.91632 0.74562 0.0
O326 O 0.43082 0.87611 0.69941 0.0
O327 O 0.43237 0.87089 0.78 0.0
H328 H 0.50137 0.91395 0.79933 0.0
H329 H 0.50424 0.90831 0.68841 0.0
H330 H 0.53916 0.90996 0.80405 0.0
H331 H 0.54186 0.90422 0.69511 0.0
H332 H 0.38587 0.90924 0.84176 0.0
H333 H 0.41928 0.95024 0.72902 0.0
H334 H 0.41148 0.8969 0.80674 0.0
H335 H 0.39345 0.96168 0.76542 0.0
H336 H 0.51397 0.97629 0.63165 0.0
H337 H 0.43615 0.94708 0.60612 0.0
H338 H 0.45979 0.9165 0.90157 0.0
H339 H 0.50436 0.98418 0.84267 0.0
H340 H 0.3948 0.83374 0.67336 0.0
H341 H 0.4682 0.89617 0.65422 0.0
H342 H 0.39617 0.81663 0.61587 0.0
H343 H 0.46816 0.87812 0.59699 0.0
H344 H 0.4112 0.83508 0.73243 0.0
H345 H 0.42193 0.8497 0.84196 0.0
H346 H 0.38593 0.78997 0.74517 0.0
H347 H 0.39645 0.80423 0.85282 0.0
H348 H 0.48879 0.8306 0.79339 0.0
H349 H 0.4743 0.81563 0.68377 0.0
H350 H 0.33459 0.83691 0.6823 0.0
H351 H 0.33118 0.82591 0.79326 0.0
Li352 Li 0.53333 0.444 0.28186 0.0
Li353 Li 0.5298 0.41039 0.24462 0.0
Li354 Li 0.5712 0.45019 0.25218 0.0
Li355 Li 0.53778 0.44861 0.21714 0.0
C356 C 0.55458 0.42016 0.3205 0.0
N357 N 0.56269 0.41189 0.38849 0.0
C358 C 0.54184 0.39608 0.33445 0.0
C359 C 0.57179 0.43993 0.34102 0.0
C360 C 0.5461 0.3923 0.3689 0.0
C361 C 0.57554 0.4354 0.37535 0.0
C362 C 0.48428 0.40547 0.24481 0.0
C363 C 0.45033 0.37105 0.2147 0.0
N364 N 0.4366 0.36452 0.24432 0.0
C365 C 0.46973 0.39857 0.27485 0.0
C366 C 0.47441 0.39175 0.21438 0.0
C367 C 0.44571 0.37776 0.27412 0.0
C368 C 0.5219 0.47352 0.32527 0.0
N369 N 0.5214 0.45138 0.32283 0.0
C370 C 0.50613 0.44062 0.38071 0.0
C371 C 0.51307 0.43471 0.3494 0.0
C372 C 0.50727 0.46368 0.38438 0.0
C373 C 0.51481 0.48009 0.35604 0.0
H374 H 0.52826 0.48626 0.30352 0.0
H375 H 0.5118 0.4168 0.34634 0.0
C376 C 0.52247 0.36616 0.21421 0.0
N377 N 0.51433 0.37517 0.24004 0.0
C378 C 0.51272 0.34055 0.21058 0.0
C379 C 0.48624 0.33384 0.26016 0.0
C380 C 0.49646 0.35964 0.26275 0.0
C381 C 0.49455 0.32403 0.23396 0.0
H382 H 0.53704 0.37888 0.19695 0.0
H383 H 0.49056 0.3673 0.28338 0.0
C384 C 0.57612 0.49673 0.2628 0.0
N385 N 0.61355 0.54406 0.28101 0.0
C386 C 0.58773 0.51522 0.2375 0.0
C387 C 0.58319 0.50254 0.29747 0.0
C388 C 0.60672 0.53896 0.24718 0.0
C389 C 0.60223 0.5265 0.30614 0.0
C390 C 0.55978 0.4312 0.17469 0.0
C391 C 0.58369 0.44624 0.16106 0.0
C392 C 0.53978 0.41733 0.15226 0.0
C393 C 0.58708 0.44757 0.12517 0.0
C394 C 0.54391 0.4192 0.11652 0.0
N395 N 0.56728 0.43417 0.10382 0.0
C396 C 0.61457 0.45182 0.27723 0.0
C397 C 0.62249 0.48431 0.23772 0.0
C398 C 0.64004 0.46061 0.2807 0.0
N399 N 0.60631 0.46385 0.25633 0.0
C400 C 0.64817 0.49346 0.23985 0.0
C401 C 0.65713 0.48156 0.26167 0.0
H402 H 0.60139 0.43503 0.29066 0.0
H403 H 0.61545 0.49309 0.22046 0.0
C404 C 0.50702 0.45396 0.16816 0.0
N405 N 0.53111 0.4618 0.17682 0.0
C406 C 0.50147 0.46153 0.13698 0.0
C407 C 0.54566 0.48572 0.12476 0.0
C408 C 0.55034 0.47765 0.15615 0.0
C409 C 0.52092 0.47738 0.11461 0.0
H410 H 0.4921 0.44141 0.18513 0.0
H411 H 0.56931 0.48351 0.1636 0.0
O412 O 0.55038 0.42421 0.28687 0.0
O413 O 0.50793 0.4257 0.24513 0.0
O414 O 0.55753 0.47332 0.25372 0.0
O415 O 0.55603 0.42997 0.20978 0.0
H416 H 0.52874 0.38047 0.31892 0.0
H417 H 0.58243 0.45849 0.33043 0.0
H418 H 0.53622 0.37379 0.38005 0.0
H419 H 0.58877 0.45057 0.39149 0.0
H420 H 0.44255 0.36018 0.19138 0.0
H421 H 0.47687 0.4091 0.29851 0.0
H422 H 0.48523 0.39697 0.19078 0.0
H423 H 0.43431 0.37214 0.29724 0.0
H424 H 0.49987 0.42728 0.40181 0.0
H425 H 0.51586 0.49804 0.35798 0.0
H426 H 0.52009 0.33384 0.1905 0.0
H427 H 0.47226 0.32174 0.27871 0.0
H428 H 0.58227 0.51128 0.21064 0.0
H429 H 0.5739 0.48882 0.31758 0.0
H430 H 0.616 0.55335 0.22779 0.0
H431 H 0.60793 0.53117 0.33288 0.0
H432 H 0.59945 0.45683 0.17797 0.0
H433 H 0.52124 0.40538 0.16232 0.0
H434 H 0.60546 0.45926 0.11428 0.0
H435 H 0.52855 0.40873 0.09888 0.0
H436 H 0.64627 0.45059 0.29711 0.0
H437 H 0.66086 0.5095 0.22447 0.0
H438 H 0.48212 0.45444 0.13003 0.0
H439 H 0.56124 0.4982 0.10854 0.0
Li440 Li 0.0804 0.54634 0.77012 0.0
Li441 Li 0.11569 0.54474 0.74542 0.0
Li442 Li 0.11324 0.58307 0.74296 0.0
Li443 Li 0.08616 0.54673 0.70777 0.0
C444 C 0.11493 0.5642 0.81899 0.0
N445 N 0.11014 0.55897 0.89014 0.0
C446 C 0.1185 0.54622 0.83578 0.0
C447 C 0.10917 0.57969 0.8384 0.0
C448 C 0.11597 0.54385 0.87178 0.0
C449 C 0.10673 0.57669 0.87434 0.0
C450 C 0.06154 0.49977 0.72451 0.0
C451 C 0.04759 0.46912 0.67883 0.0
N452 N 0.02353 0.46067 0.68841 0.0
C453 C 0.03669 0.49077 0.73394 0.0
C454 C 0.06709 0.48883 0.69681 0.0
C455 C 0.01773 0.47097 0.71537 0.0
C456 C 0.04456 0.54547 0.81708 0.0
N457 N 0.05778 0.53433 0.80765 0.0
C458 C 0.04316 0.50753 0.85697 0.0
C459 C 0.0568 0.51524 0.8263 0.0
C460 C 0.03014 0.51937 0.86818 0.0
C461 C 0.03044 0.53818 0.84746 0.0
H462 H 0.04553 0.56046 0.80157 0.0
H463 H 0.06738 0.50662 0.81789 0.0
C464 C 0.16105 0.54908 0.76481 0.0
N465 N 0.13803 0.53264 0.75238 0.0
C466 C 0.17887 0.54186 0.76906 0.0
C467 C 0.14874 0.50066 0.74846 0.0
C468 C 0.13145 0.50871 0.74463 0.0
C469 C 0.17288 0.51741 0.7606 0.0
H470 H 0.16565 0.56797 0.77083 0.0
H471 H 0.1129 0.49597 0.73517 0.0
C472 C 0.07356 0.58762 0.73025 0.0
N473 N 0.06887 0.62917 0.71903 0.0
C474 C 0.06831 0.59284 0.69705 0.0
C475 C 0.07632 0.60348 0.75776 0.0
C476 C 0.06601 0.61394 0.69192 0.0
C477 C 0.07394 0.62442 0.75155 0.0
C478 C 0.14498 0.57071 0.69451 0.0
C479 C 0.1671 0.59287 0.70179 0.0
C480 C 0.14599 0.55139 0.67726 0.0
C481 C 0.1899 0.59525 0.69189 0.0
C482 C 0.16916 0.55447 0.66789 0.0
N483 N 0.19045 0.57616 0.67533 0.0
C484 C 0.14863 0.62931 0.77085 0.0
C485 C 0.13287 0.63196 0.71601 0.0
C486 C 0.16566 0.65487 0.77051 0.0
N487 N 0.1329 0.6184 0.7437 0.0
C488 C 0.1492 0.65768 0.71493 0.0
C489 C 0.16638 0.66945 0.74203 0.0
H490 H 0.14875 0.61797 0.79208 0.0
H491 H 0.12069 0.6227 0.69428 0.0
C492 C 0.04506 0.52885 0.66211 0.0
N493 N 0.06979 0.53657 0.6644 0.0
C494 C 0.03292 0.52174 0.63015 0.0
C495 C 0.07188 0.53039 0.60376 0.0
C496 C 0.08329 0.53755 0.63612 0.0
C497 C 0.04641 0.52249 0.6005 0.0
H498 H 0.03486 0.52841 0.68509 0.0
H499 H 0.10298 0.54412 0.63861 0.0
O500 O 0.11664 0.56635 0.78368 0.0
O501 O 0.08033 0.51949 0.74187 0.0
O502 O 0.07594 0.56709 0.73579 0.0
O503 O 0.12249 0.56779 0.70467 0.0
H504 H 0.12281 0.53396 0.82116 0.0
H505 H 0.10634 0.59369 0.82581 0.0
H506 H 0.1185 0.5299 0.8851 0.0
H507 H 0.10208 0.58841 0.88965 0.0
H508 H 0.0516 0.46061 0.65717 0.0
H509 H 0.03205 0.49912 0.75515 0.0
H510 H 0.0862 0.49579 0.68886 0.0
H511 H -0.0016 0.46387 0.7223 0.0
H512 H 0.04307 0.49271 0.87203 0.0
H513 H 0.02067 0.54778 0.85534 0.0
H514 H 0.19735 0.55549 0.77799 0.0
H515 H 0.14329 0.48158 0.74202 0.0
H516 H 0.06626 0.58089 0.6754 0.0
H517 H 0.08061 0.59987 0.78354 0.0
H518 H 0.06204 0.61825 0.66634 0.0
H519 H 0.07619 0.63693 0.77256 0.0
H520 H 0.16675 0.60802 0.71513 0.0
H521 H 0.12911 0.53395 0.67188 0.0
H522 H 0.20716 0.61226 0.69748 0.0
H523 H 0.17022 0.53957 0.65486 0.0
H524 H 0.17886 0.66278 0.79164 0.0
H525 H 0.14873 0.66805 0.69262 0.0
H526 H 0.0132 0.51562 0.62864 0.0
H527 H 0.08297 0.53157 0.58139 0.0
H528 H 0.46156 0.17026 0.26836 0.0
H529 H 0.51465 0.20444 0.18483 0.0
H530 H 0.45468 0.20588 0.26853 0.0
H531 H 0.50729 0.23927 0.18454 0.0
H532 H 0.48223 0.29427 0.17659 0.0
H533 H 0.47604 0.25217 0.17341 0.0
H534 H 0.48192 0.25082 0.28484 0.0
H535 H 0.48819 0.29287 0.28805 0.0
C536 C 0.47156 0.18517 0.24984 0.0
C537 C 0.48868 0.18443 0.22661 0.0
C538 C 0.46752 0.20547 0.24986 0.0
C539 C 0.48035 0.22528 0.22644 0.0
C540 C 0.49671 0.22406 0.20242 0.0
C541 C 0.5009 0.20398 0.20259 0.0
C542 C 0.48184 0.28482 0.20043 0.0
C543 C 0.4861 0.29702 0.23251 0.0
C544 C 0.47825 0.26074 0.19861 0.0
C545 C 0.47883 0.24836 0.22884 0.0
C546 C 0.48119 0.2598 0.26113 0.0
C547 C 0.4848 0.28393 0.26295 0.0
H548 H 0.29573 0.49284 0.81702 0.0
H549 H 0.30181 0.50918 0.70742 0.0
H550 H 0.25495 0.49001 0.81802 0.0
H551 H 0.26132 0.50654 0.70843 0.0
H552 H 0.18236 0.48955 0.71469 0.0
H553 H 0.21666 0.48084 0.71627 0.0
H554 H 0.24182 0.52073 0.81323 0.0
H555 H 0.207 0.52848 0.81236 0.0
C556 C 0.28824 0.49558 0.79311 0.0
C557 C 0.30204 0.50139 0.7622 0.0
C558 C 0.26492 0.49399 0.79368 0.0
C559 C 0.25497 0.49825 0.76337 0.0
C560 C 0.26825 0.50282 0.73214 0.0
C561 C 0.29151 0.50435 0.73156 0.0
C562 C 0.19488 0.49593 0.73674 0.0
C563 C 0.19211 0.50991 0.76325 0.0
C564 C 0.21466 0.49116 0.73747 0.0
C565 C 0.23209 0.50026 0.76472 0.0
C566 C 0.22863 0.51325 0.792 0.0
C567 C 0.20886 0.51799 0.79129 0.0
H568 H 0.69291 0.18604 0.19839 0.0
H569 H 0.68258 0.20939 0.29943 0.0
H570 H 0.73611 0.2205 0.19763 0.0
H571 H 0.72555 0.24393 0.29853 0.0
H572 H 0.80851 0.29595 0.2964 0.0
H573 H 0.77054 0.25511 0.29763 0.0
H574 H 0.75327 0.26671 0.19324 0.0
H575 H 0.79069 0.30759 0.19215 0.0
C576 C 0.70003 0.19827 0.22067 0.0
C577 C 0.6844 0.19522 0.24886 0.0
C578 C 0.72466 0.21804 0.22014 0.0
C579 C 0.73414 0.23492 0.24796 0.0
C580 C 0.71884 0.23109 0.27687 0.0
C581 C 0.69419 0.21149 0.27724 0.0
C582 C 0.7967 0.28971 0.27362 0.0
C583 C 0.80256 0.30519 0.24431 0.0
C584 C 0.77503 0.26631 0.27432 0.0
C585 C 0.75892 0.25782 0.24561 0.0
C586 C 0.7655 0.27263 0.2156 0.0
C587 C 0.78703 0.29608 0.21499 0.0
H588 H 0.47205 0.78672 0.79096 0.0
H589 H 0.50926 0.8097 0.69179 0.0
H590 H 0.47918 0.75155 0.79186 0.0
H591 H 0.51585 0.77397 0.69245 0.0
H592 H 0.47889 0.68616 0.6872 0.0
H593 H 0.48493 0.72822 0.68747 0.0
H594 H 0.51131 0.73806 0.79315 0.0
H595 H 0.50506 0.69574 0.79288 0.0
C596 C 0.48229 0.78466 0.76972 0.0
C597 C 0.48989 0.80095 0.74115 0.0
C598 C 0.48637 0.76446 0.77026 0.0
C599 C 0.49798 0.75999 0.74216 0.0
C600 C 0.50661 0.77686 0.71429 0.0
C601 C 0.5027 0.79721 0.71386 0.0
C602 C 0.4864 0.69751 0.71025 0.0
C603 C 0.49131 0.68772 0.74011 0.0
C604 C 0.49005 0.72163 0.71034 0.0
C605 C 0.49846 0.73634 0.74041 0.0
C606 C 0.50464 0.72702 0.76972 0.0
C607 C 0.50123 0.70293 0.7695 0.0
H608 H 0.68774 0.48837 0.20727 0.0
H609 H 0.68652 0.49203 0.31882 0.0
H610 H 0.72959 0.49408 0.20953 0.0
H611 H 0.72894 0.49899 0.32134 0.0
H612 H 0.78224 0.46781 0.31328 0.0
H613 H 0.74613 0.47322 0.31388 0.0
H614 H 0.77271 0.51827 0.22107 0.0
H615 H 0.80809 0.51132 0.21918 0.0
C616 C 0.69682 0.49119 0.23222 0.0
C617 C 0.68393 0.48952 0.26289 0.0
C618 C 0.72087 0.49458 0.23359 0.0
C619 C 0.73262 0.49669 0.26568 0.0
C620 C 0.72025 0.49679 0.29622 0.0
C621 C 0.69606 0.49298 0.29484 0.0
C622 C 0.7804 0.47886 0.29296 0.0
C623 C 0.79783 0.48871 0.26583 0.0
C624 C 0.75984 0.48234 0.2936 0.0
C625 C 0.75632 0.49608 0.26737 0.0
C626 C 0.77457 0.50721 0.24135 0.0
C627 C 0.79505 0.5035 0.24052 0.0
H628 H 0.28929 0.82246 0.77607 0.0
H629 H 0.31014 0.79008 0.69282 0.0
H630 H 0.24679 0.78681 0.77456 0.0
H631 H 0.26837 0.75418 0.6921 0.0
H632 H 0.1904 0.69565 0.68338 0.0
H633 H 0.22625 0.73722 0.67957 0.0
H634 H 0.22559 0.74464 0.7909 0.0
H635 H 0.18818 0.70395 0.79441 0.0
C636 C 0.28468 0.80776 0.75733 0.0
C637 C 0.30292 0.80901 0.7345 0.0
C638 C 0.26041 0.78728 0.75655 0.0
C639 C 0.25404 0.76747 0.73328 0.0
C640 C 0.27226 0.76922 0.70986 0.0
C641 C 0.29633 0.7898 0.71033 0.0
C642 C 0.19726 0.70637 0.70701 0.0
C643 C 0.18642 0.6961 0.73931 0.0
C644 C 0.21822 0.73017 0.70486 0.0
C645 C 0.22929 0.74417 0.73498 0.0
C646 C 0.21764 0.73453 0.76707 0.0
C647 C 0.19635 0.7109 0.76916 0.0
H648 H 0.4972 0.9381 0.93599 0.0
H649 H 0.49029 -0.00157 0.89147 0.0
H650 H 0.5084 0.95962 0.99154 0.0
H651 H 0.50271 0.02053 0.94656 0.0
H652 H 0.49136 0.03494 0.05928 0.0
H653 H 0.48358 0.01526 0.00267 0.0
H654 H 0.5404 0.99568 0.02214 0.0
H655 H 0.54737 0.0144 0.07966 0.0
C656 C 0.49825 0.95605 0.93801 0.0
C657 C 0.4926 0.96644 0.90943 0.0
C658 C 0.50498 0.96852 0.96972 0.0
C659 C 0.50628 0.99171 0.9735 0.0
C660 C 0.50149 0.0025 0.9446 0.0
C661 C 0.49467 0.98999 0.91291 0.0
C662 C 0.50199 0.02617 0.05168 0.0
C663 C 0.51981 0.02601 0.07408 0.0
C664 C 0.49781 0.01524 0.019 0.0
C665 C 0.51145 0.004 0.00785 0.0
C666 C 0.52944 0.00401 0.03012 0.0
C667 C 0.53358 0.01491 0.06292 0.0
H668 H 0.52455 0.46104 0.44809 0.0
H669 H 0.47606 0.48206 0.39601 0.0
H670 H 0.5141 0.47221 0.50386 0.0
H671 H 0.46552 0.49316 0.4519 0.0
H672 H 0.43195 0.47915 0.56326 0.0
H673 H 0.44267 0.46855 0.50751 0.0
H674 H 0.52095 0.51304 0.53241 0.0
H675 H 0.51046 0.52459 0.58763 0.0
C676 C 0.5116 0.46798 0.44867 0.0
C677 C 0.50103 0.47067 0.4179 0.0
C678 C 0.50577 0.4745 0.48046 0.0
C679 C 0.48901 0.48349 0.48205 0.0
C680 C 0.47837 0.48611 0.45129 0.0
C681 C 0.4845 0.47994 0.41941 0.0
C682 C 0.45147 0.48698 0.55676 0.0
C683 C 0.47033 0.50283 0.57998 0.0
C684 C 0.45755 0.48081 0.52488 0.0
C685 C 0.48259 0.49004 0.51577 0.0
C686 C 0.50147 0.50553 0.53904 0.0
C687 C 0.49542 0.512 0.57073 0.0
H688 H 0.04831 0.51392 0.92969 0.0
H689 H 0.9833 0.51064 0.88313 0.0
H690 H 0.02781 0.50402 0.98599 0.0
H691 H 0.96241 0.50012 0.93938 0.0
H692 H 0.94316 0.5074 0.05157 0.0
H693 H 0.96371 0.51781 -0.00486 0.0
H694 H -0.00523 0.47036 0.017 0.0
H695 H 0.97469 0.4605 0.07363 0.0
C696 C 0.02947 0.51074 0.93149 0.0
C697 C 0.01731 0.5129 0.90209 0.0
C698 C 0.0177 0.50503 0.96371 0.0
C699 C 0.99342 0.50117 0.9672 0.0
C700 C 0.98125 0.50333 0.9377 0.0
C701 C 0.99314 0.50925 0.90548 0.0
C702 C 0.95435 0.49918 0.04417 0.0
C703 C 0.95744 0.48323 0.06696 0.0
C704 C 0.96604 0.50505 0.01184 0.0
C705 C 0.9809 0.49493 0.00153 0.0
C706 C 0.98384 0.47886 0.02435 0.0
C707 C 0.97232 0.47316 0.05677 0.0
H708 H 0.47299 0.02514 0.41432 0.0
H709 H 0.55107 0.05018 0.43037 0.0
H710 H 0.46341 0.00591 0.47164 0.0
H711 H 0.54166 0.03144 0.48796 0.0
H712 H 0.51101 0.96834 0.568 0.0
H713 H 0.52167 0.9905 0.51294 0.0
H714 H 0.46827 0.01457 0.53286 0.0
H715 H 0.45731 0.99192 0.58781 0.0
C716 C 0.48813 0.0268 0.43035 0.0
C717 C 0.51273 0.03896 0.41787 0.0
C718 C 0.48267 0.01587 0.46321 0.0
C719 C 0.50176 0.01705 0.48433 0.0
C720 C 0.52646 0.02977 0.47208 0.0
C721 C 0.53187 0.04053 0.43915 0.0
C722 C 0.50179 0.97864 0.5608 0.0
C723 C 0.48336 0.97844 0.58215 0.0
C724 C 0.50791 0.99138 0.52927 0.0
C725 C 0.49583 0.00433 0.5185 0.0
C726 C 0.47765 0.00445 0.54016 0.0
C727 C 0.47141 0.99156 0.57163 0.0
H728 H 0.52489 0.53677 0.90825 0.0
H729 H 0.44666 0.48828 0.93081 0.0
H730 H 0.5357 0.52741 0.96508 0.0
H731 H 0.45747 0.47849 0.98718 0.0
H732 H 0.48553 0.49007 0.09931 0.0
H733 H 0.47551 0.50035 0.0427 0.0
H734 H 0.53387 0.49129 -0.00389 0.0
H735 H 0.54371 0.4807 0.05258 0.0
C736 C 0.51003 0.5241 0.92535 0.0
C737 C 0.48494 0.51321 0.91511 0.0
C738 C 0.51622 0.5186 0.95771 0.0
C739 C 0.49742 0.50226 0.98055 0.0
C740 C 0.47234 0.49135 0.97026 0.0
C741 C 0.46617 0.49672 0.93784 0.0
C742 C 0.49611 0.49011 0.07696 0.0
C743 C 0.5154 0.48455 0.08045 0.0
C744 C 0.49039 0.49601 0.04458 0.0
C745 C 0.50388 0.49656 0.01502 0.0
C746 C 0.52337 0.49131 0.01853 0.0
C747 C 0.52903 0.48531 0.05089 0.0
H748 H 0.04986 0.49257 0.55163 0.0
H749 H 0.01578 0.53741 0.57184 0.0
H750 H 0.03095 0.48267 0.49392 0.0
H751 H -0.00332 0.52731 0.51431 0.0
H752 H 0.99187 0.52682 0.39541 0.0
H753 H 0.01184 0.53665 0.45224 0.0
H754 H 0.98745 0.45875 0.46851 0.0
H755 H 0.96691 0.44872 0.41214 0.0
C756 C 0.03832 0.50028 0.54368 0.0
C757 C 0.03425 0.51574 0.56612 0.0
C758 C 0.0274 0.4945 0.51082 0.0
C759 C 0.01246 0.50431 0.49968 0.0
C760 C 0.00834 0.51971 0.52216 0.0
C761 C 0.01904 0.52527 0.55515 0.0
C762 C 0.99063 0.51176 0.41116 0.0
C763 C 0.97772 0.48697 0.39923 0.0
C764 C 0.00209 0.5174 0.44365 0.0
C765 C 0.00107 0.49843 0.46476 0.0
C766 C 0.98871 0.47376 0.45258 0.0
C767 C 0.97706 0.46806 0.42022 0.0
loop_
_geom_bond_atom_site_label_1
_geom_bond_atom_site_label_2
_geom_bond_distance
_geom_bond_site_symmetry_2
_ccdc_geom_bond_type
Li0 N17 1.990 . S
Li0 O60 1.956 . S
Li0 O61 1.970 . S
Li0 O62 1.961 . S
Li1 N25 1.990 . S
Li1 O60 1.970 . S
Li1 O61 1.956 . S
Li1 O63 1.961 . S
Li2 N47 1.990 . S
Li2 O60 1.961 . S
Li2 O62 1.956 . S
Li2 O63 1.970 . S
Li3 N53 1.990 . S
Li3 O61 1.961 . S
Li3 O62 1.970 . S
Li3 O63 1.956 . S
C4 C6 1.348 . S
C4 C7 1.356 . S
C4 O60 1.325 . S
N5 C8 1.314 . S
N5 C9 1.279 . S
C6 C4 1.348 . S
C6 C8 1.353 . S
C6 H64 0.929 . S
C7 C4 1.356 . S
C7 C9 1.358 . S
C7 H65 0.930 . S
C8 N5 1.314 . S
C8 C6 1.353 . S
C8 H66 0.930 . S
C9 N5 1.279 . S
C9 C7 1.358 . S
C9 H67 0.930 . S
C10 C13 1.348 . S
C10 C14 1.356 . S
C10 O61 1.325 . S
C11 N12 1.279 . S
C11 C14 1.358 . S
C11 H68 0.930 . S
N12 C11 1.279 . S
N12 C15 1.314 . S
C13 C10 1.348 . S
C13 C15 1.353 . S
C13 H69 0.929 . S
C14 C10 1.356 . S
C14 C11 1.358 . S
C14 H70 0.930 . S
C15 N12 1.314 . S
C15 C13 1.353 . S
C15 H71 0.930 . S
C16 N17 1.314 . S
C16 C21 1.353 . S
C16 H22 0.930 . S
N17 Li0 1.990 . S
N17 C16 1.314 . S
N17 C19 1.279 . S
C18 C19 1.358 . S
C18 C20 1.356 . S
C18 H72 0.930 . S
C19 N17 1.279 . S
C19 C18 1.358 . S
C19 H23 0.930 . S
C20 C18 1.356 . S
C20 C21 1.348 . S
C21 C16 1.353 . S
C21 C20 1.348 . S
C21 H73 0.929 . S
H22 C16 0.930 . S
H23 C19 0.930 . S
C24 N25 1.314 . S
C24 C26 1.353 . S
C24 H30 0.930 . S
N25 Li1 1.990 . S
N25 C24 1.314 . S
N25 C28 1.279 . S
C26 C24 1.353 . S
C26 C29 1.348 . S
C26 H74 0.929 . S
C27 C28 1.358 . S
C27 C29 1.356 . S
C27 H75 0.930 . S
C28 N25 1.279 . S
C28 C27 1.358 . S
C28 H31 0.930 . S
C29 C26 1.348 . S
C29 C27 1.356 . S
H30 C24 0.930 . S
H31 C28 0.930 . S
C32 C34 1.348 . S
C32 C35 1.356 . S
C32 O62 1.325 . S
N33 C36 1.314 . S
N33 C37 1.279 . S
C34 C32 1.348 . S
C34 C36 1.353 . S
C34 H76 0.929 . S
C35 C32 1.356 . S
C35 C37 1.358 . S
C35 H77 0.930 . S
C36 N33 1.314 . S
C36 C34 1.353 . S
C36 H78 0.930 . S
C37 N33 1.279 . S
C37 C35 1.358 . S
C37 H79 0.930 . S
C38 C39 1.348 . S
C38 C40 1.356 . S
C38 O63 1.325 . S
C39 C38 1.348 . S
C39 C41 1.353 . S
C39 H80 0.929 . S
C40 C38 1.356 . S
C40 C42 1.358 . S
C40 H81 0.930 . S
C41 C39 1.353 . S
C41 N43 1.314 . S
C41 H82 0.930 . S
C42 C40 1.358 . S
C42 N43 1.279 . S
C42 H83 0.930 . S
N43 C41 1.314 . S
N43 C42 1.279 . S
C44 C46 1.353 . S
C44 N47 1.314 . S
C44 H50 0.930 . S
C45 N47 1.279 . S
C45 C48 1.358 . S
C45 H51 0.930 . S
C46 C44 1.353 . S
C46 C49 1.348 . S
C46 H84 0.929 . S
N47 Li2 1.990 . S
N47 C44 1.314 . S
N47 C45 1.279 . S
C48 C45 1.358 . S
C48 C49 1.356 . S
C48 H85 0.930 . S
C49 C46 1.348 . S
C49 C48 1.356 . S
H50 C44 0.930 . S
H51 C45 0.930 . S
C52 N53 1.314 . S
C52 C54 1.353 . S
C52 H58 0.930 . S
N53 Li3 1.990 . S
N53 C52 1.314 . S
N53 C56 1.279 . S
C54 C52 1.353 . S
C54 C57 1.348 . S
C54 H86 0.929 . S
C55 C56 1.358 . S
C55 C57 1.356 . S
C55 H87 0.930 . S
C56 N53 1.279 . S
C56 C55 1.358 . S
C56 H59 0.930 . S
C57 C54 1.348 . S
C57 C55 1.356 . S
H58 C52 0.930 . S
H59 C56 0.930 . S
O60 Li0 1.956 . S
O60 Li1 1.970 . S
O60 Li2 1.961 . S
O60 C4 1.325 . S
O61 Li0 1.970 . S
O61 Li1 1.956 . S
O61 Li3 1.961 . S
O61 C10 1.325 . S
O62 Li0 1.961 . S
O62 Li2 1.956 . S
O62 Li3 1.970 . S
O62 C32 1.325 . S
O63 Li1 1.961 . S
O63 Li2 1.970 . S
O63 Li3 1.956 . S
O63 C38 1.325 . S
H64 C6 0.929 . S
H65 C7 0.930 . S
H66 C8 0.930 . S
H67 C9 0.930 . S
H68 C11 0.930 . S
H69 C13 0.929 . S
H70 C14 0.930 . S
H71 C15 0.930 . S
H72 C18 0.930 . S
H73 C21 0.929 . S
H74 C26 0.929 . S
H75 C27 0.930 . S
H76 C34 0.929 . S
H77 C35 0.930 . S
H78 C36 0.930 . S
H79 C37 0.930 . S
H80 C39 0.929 . S
H81 C40 0.930 . S
H82 C41 0.930 . S
H83 C42 0.930 . S
H84 C46 0.929 . S
H85 C48 0.930 . S
H86 C54 0.929 . S
H87 C55 0.930 . S
Li88 N105 1.990 . S
Li88 O148 1.956 . S
Li88 O149 1.970 . S
Li88 O150 1.961 . S
Li89 N113 1.990 . S
Li89 O148 1.970 . S
Li89 O149 1.956 . S
Li89 O151 1.961 . S
Li90 N135 1.990 . S
Li90 O148 1.961 . S
Li90 O150 1.956 . S
Li90 O151 1.970 . S
Li91 N141 1.990 . S
Li91 O149 1.961 . S
Li91 O150 1.970 . S
Li91 O151 1.956 . S
C92 C94 1.348 . S
C92 C95 1.356 . S
C92 O148 1.325 . S
N93 C96 1.314 . S
N93 C97 1.279 . S
C94 C92 1.348 . S
C94 C96 1.353 . S
C94 H152 0.929 . S
C95 C92 1.356 . S
C95 C97 1.358 . S
C95 H153 0.930 . S
C96 N93 1.314 . S
C96 C94 1.353 . S
C96 H154 0.930 . S
C97 N93 1.279 . S
C97 C95 1.358 . S
C97 H155 0.930 . S
C98 C101 1.348 . S
C98 C102 1.356 . S
C98 O149 1.325 . S
C99 N100 1.279 . S
C99 C102 1.358 . S
C99 H156 0.930 . S
N100 C99 1.279 . S
N100 C103 1.314 . S
C101 C98 1.348 . S
C101 C103 1.353 . S
C101 H157 0.929 . S
C102 C98 1.356 . S
C102 C99 1.358 . S
C102 H158 0.930 . S
C103 N100 1.314 . S
C103 C101 1.353 . S
C103 H159 0.930 . S
C104 N105 1.314 . S
C104 C109 1.353 . S
C104 H110 0.930 . S
N105 Li88 1.990 . S
N105 C104 1.314 . S
N105 C107 1.279 . S
C106 C107 1.358 . S
C106 C108 1.356 . S
C106 H160 0.930 . S
C107 N105 1.279 . S
C107 C106 1.358 . S
C107 H111 0.930 . S
C108 C106 1.356 . S
C108 C109 1.348 . S
C109 C104 1.353 . S
C109 C108 1.348 . S
C109 H161 0.929 . S
H110 C104 0.930 . S
H111 C107 0.930 . S
C112 N113 1.314 . S
C112 C114 1.353 . S
C112 H118 0.930 . S
N113 Li89 1.990 . S
N113 C112 1.314 . S
N113 C116 1.279 . S
C114 C112 1.353 . S
C114 C117 1.348 . S
C114 H162 0.929 . S
C115 C116 1.358 . S
C115 C117 1.356 . S
C115 H163 0.930 . S
C116 N113 1.279 . S
C116 C115 1.358 . S
C116 H119 0.930 . S
C117 C114 1.348 . S
C117 C115 1.356 . S
H118 C112 0.930 . S
H119 C116 0.930 . S
C120 C122 1.348 . S
C120 C123 1.356 . S
C120 O150 1.325 . S
N121 C124 1.314 . S
N121 C125 1.279 . S
C122 C120 1.348 . S
C122 C124 1.353 . S
C122 H164 0.929 . S
C123 C120 1.356 . S
C123 C125 1.358 . S
C123 H165 0.930 . S
C124 N121 1.314 . S
C124 C122 1.353 . S
C124 H166 0.930 . S
C125 N121 1.279 . S
C125 C123 1.358 . S
C125 H167 0.930 . S
C126 C127 1.348 . S
C126 C128 1.356 . S
C126 O151 1.325 . S
C127 C126 1.348 . S
C127 C129 1.353 . S
C127 H168 0.929 . S
C128 C126 1.356 . S
C128 C130 1.358 . S
C128 H169 0.930 . S
C129 C127 1.353 . S
C129 N131 1.314 . S
C129 H170 0.930 . S
C130 C128 1.358 . S
C130 N131 1.279 . S
C130 H171 0.930 . S
N131 C129 1.314 . S
N131 C130 1.279 . S
C132 C134 1.353 . S
C132 N135 1.314 . S
C132 H138 0.930 . S
C133 N135 1.279 . S
C133 C136 1.358 . S
C133 H139 0.930 . S
C134 C132 1.353 . S
C134 C137 1.348 . S
C134 H172 0.929 . S
N135 Li90 1.990 . S
N135 C132 1.314 . S
N135 C133 1.279 . S
C136 C133 1.358 . S
C136 C137 1.356 . S
C136 H173 0.930 . S
C137 C134 1.348 . S
C137 C136 1.356 . S
H138 C132 0.930 . S
H139 C133 0.930 . S
C140 N141 1.314 . S
C140 C142 1.353 . S
C140 H146 0.930 . S
N141 Li91 1.990 . S
N141 C140 1.314 . S
N141 C144 1.279 . S
C142 C140 1.353 . S
C142 C145 1.348 . S
C142 H174 0.929 . S
C143 C144 1.358 . S
C143 C145 1.356 . S
C143 H175 0.930 . S
C144 N141 1.279 . S
C144 C143 1.358 . S
C144 H147 0.930 . S
C145 C142 1.348 . S
C145 C143 1.356 . S
H146 C140 0.930 . S
H147 C144 0.930 . S
O148 Li88 1.956 . S
O148 Li89 1.970 . S
O148 Li90 1.961 . S
O148 C92 1.325 . S
O149 Li88 1.970 . S
O149 Li89 1.956 . S
O149 Li91 1.961 . S
O149 C98 1.325 . S
O150 Li88 1.961 . S
O150 Li90 1.956 . S
O150 Li91 1.970 . S
O150 C120 1.325 . S
O151 Li89 1.961 . S
O151 Li90 1.970 . S
O151 Li91 1.956 . S
O151 C126 1.325 . S
H152 C94 0.929 . S
H153 C95 0.930 . S
H154 C96 0.930 . S
H155 C97 0.930 . S
H156 C99 0.930 . S
H157 C101 0.929 . S
H158 C102 0.930 . S
H159 C103 0.930 . S
H160 C106 0.930 . S
H161 C109 0.929 . S
H162 C114 0.929 . S
H163 C115 0.930 . S
H164 C122 0.929 . S
H165 C123 0.930 . S
H166 C124 0.930 . S
H167 C125 0.930 . S
H168 C127 0.929 . S
H169 C128 0.930 . S
H170 C129 0.930 . S
H171 C130 0.930 . S
H172 C134 0.929 . S
H173 C136 0.930 . S
H174 C142 0.929 . S
H175 C143 0.930 . S
Li176 N193 1.990 . S
Li176 O236 1.956 . S
Li176 O237 1.970 . S
Li176 O238 1.961 . S
Li177 N201 1.990 . S
Li177 O236 1.970 . S
Li177 O237 1.956 . S
Li177 O239 1.961 . S
Li178 N223 1.990 . S
Li178 O236 1.961 . S
Li178 O238 1.956 . S
Li178 O239 1.970 . S
Li179 N229 1.990 . S
Li179 O237 1.961 . S
Li179 O238 1.970 . S
Li179 O239 1.956 . S
C180 C182 1.348 . S
C180 C183 1.356 . S
C180 O236 1.325 . S
N181 C184 1.314 . S
N181 C185 1.279 . S
C182 C180 1.348 . S
C182 C184 1.353 . S
C182 H240 0.929 . S
C183 C180 1.356 . S
C183 C185 1.358 . S
C183 H241 0.930 . S
C184 N181 1.314 . S
C184 C182 1.353 . S
C184 H242 0.930 . S
C185 N181 1.279 . S
C185 C183 1.358 . S
C185 H243 0.930 . S
C186 C189 1.348 . S
C186 C190 1.356 . S
C186 O237 1.325 . S
C187 N188 1.279 . S
C187 C190 1.358 . S
C187 H244 0.930 . S
N188 C187 1.279 . S
N188 C191 1.314 . S
C189 C186 1.348 . S
C189 C191 1.353 . S
C189 H245 0.929 . S
C190 C186 1.356 . S
C190 C187 1.358 . S
C190 H246 0.930 . S
C191 N188 1.314 . S
C191 C189 1.353 . S
C191 H247 0.930 . S
C192 N193 1.314 . S
C192 C197 1.353 . S
C192 H198 0.930 . S
N193 Li176 1.990 . S
N193 C192 1.314 . S
N193 C195 1.279 . S
C194 C195 1.358 . S
C194 C196 1.356 . S
C194 H248 0.930 . S
C195 N193 1.279 . S
C195 C194 1.358 . S
C195 H199 0.930 . S
C196 C194 1.356 . S
C196 C197 1.348 . S
C197 C192 1.353 . S
C197 C196 1.348 . S
C197 H249 0.929 . S
H198 C192 0.930 . S
H199 C195 0.930 . S
C200 N201 1.314 . S
C200 C202 1.353 . S
C200 H206 0.930 . S
N201 Li177 1.990 . S
N201 C200 1.314 . S
N201 C204 1.279 . S
C202 C200 1.353 . S
C202 C205 1.348 . S
C202 H250 0.929 . S
C203 C204 1.358 . S
C203 C205 1.356 . S
C203 H251 0.930 . S
C204 N201 1.279 . S
C204 C203 1.358 . S
C204 H207 0.930 . S
C205 C202 1.348 . S
C205 C203 1.356 . S
H206 C200 0.930 . S
H207 C204 0.930 . S
C208 C210 1.348 . S
C208 C211 1.356 . S
C208 O238 1.325 . S
N209 C212 1.314 . S
N209 C213 1.279 . S
C210 C208 1.348 . S
C210 C212 1.353 . S
C210 H252 0.929 . S
C211 C208 1.356 . S
C211 C213 1.358 . S
C211 H253 0.930 . S
C212 N209 1.314 . S
C212 C210 1.353 . S
C212 H254 0.930 . S
C213 N209 1.279 . S
C213 C211 1.358 . S
C213 H255 0.930 . S
C214 C215 1.348 . S
C214 C216 1.356 . S
C214 O239 1.325 . S
C215 C214 1.348 . S
C215 C217 1.353 . S
C215 H256 0.929 . S
C216 C214 1.356 . S
C216 C218 1.358 . S
C216 H257 0.930 . S
C217 C215 1.353 . S
C217 N219 1.314 . S
C217 H258 0.930 . S
C218 C216 1.358 . S
C218 N219 1.279 . S
C218 H259 0.930 . S
N219 C217 1.314 . S
N219 C218 1.279 . S
C220 C222 1.353 . S
C220 N223 1.314 . S
C220 H226 0.930 . S
C221 N223 1.279 . S
C221 C224 1.358 . S
C221 H227 0.930 . S
C222 C220 1.353 . S
C222 C225 1.348 . S
C222 H260 0.929 . S
N223 Li178 1.990 . S
N223 C220 1.314 . S
N223 C221 1.279 . S
C224 C221 1.358 . S
C224 C225 1.356 . S
C224 H261 0.930 . S
C225 C222 1.348 . S
C225 C224 1.356 . S
H226 C220 0.930 . S
H227 C221 0.930 . S
C228 N229 1.314 . S
C228 C230 1.353 . S
C228 H234 0.930 . S
N229 Li179 1.990 . S
N229 C228 1.314 . S
N229 C232 1.279 . S
C230 C228 1.353 . S
C230 C233 1.348 . S
C230 H262 0.929 . S
C231 C232 1.358 . S
C231 C233 1.356 . S
C231 H263 0.930 . S
C232 N229 1.279 . S
C232 C231 1.358 . S
C232 H235 0.930 . S
C233 C230 1.348 . S
C233 C231 1.356 . S
H234 C228 0.930 . S
H235 C232 0.930 . S
O236 Li176 1.956 . S
O236 Li177 1.970 . S
O236 Li178 1.961 . S
O236 C180 1.325 . S
O237 Li176 1.970 . S
O237 Li177 1.956 . S
O237 Li179 1.961 . S
O237 C186 1.325 . S
O238 Li176 1.961 . S
O238 Li178 1.956 . S
O238 Li179 1.970 . S
O238 C208 1.325 . S
O239 Li177 1.961 . S
O239 Li178 1.970 . S
O239 Li179 1.956 . S
O239 C214 1.325 . S
H240 C182 0.929 . S
H241 C183 0.930 . S
H242 C184 0.930 . S
H243 C185 0.930 . S
H244 C187 0.930 . S
H245 C189 0.929 . S
H246 C190 0.930 . S
H247 C191 0.930 . S
H248 C194 0.930 . S
H249 C197 0.929 . S
H250 C202 0.929 . S
H251 C203 0.930 . S
H252 C210 0.929 . S
H253 C211 0.930 . S
H254 C212 0.930 . S
H255 C213 0.930 . S
H256 C215 0.929 . S
H257 C216 0.930 . S
H258 C217 0.930 . S
H259 C218 0.930 . S
H260 C222 0.929 . S
H261 C224 0.930 . S
H262 C230 0.929 . S
H263 C231 0.930 . S
Li264 N281 1.990 . S
Li264 O324 1.956 . S
Li264 O325 1.970 . S
Li264 O326 1.961 . S
Li265 N289 1.990 . S
Li265 O324 1.970 . S
Li265 O325 1.956 . S
Li265 O327 1.961 . S
Li266 N311 1.990 . S
Li266 O324 1.961 . S
Li266 O326 1.956 . S
Li266 O327 1.970 . S
Li267 N317 1.990 . S
Li267 O325 1.961 . S
Li267 O326 1.970 . S
Li267 O327 1.956 . S
C268 C270 1.348 . S
C268 C271 1.356 . S
C268 O324 1.325 . S
N269 C272 1.314 . S
N269 C273 1.279 . S
C270 C268 1.348 . S
C270 C272 1.353 . S
C270 H328 0.929 . S
C271 C268 1.356 . S
C271 C273 1.358 . S
C271 H329 0.930 . S
C272 N269 1.314 . S
C272 C270 1.353 . S
C272 H330 0.930 . S
C273 N269 1.279 . S
C273 C271 1.358 . S
C273 H331 0.930 . S
C274 C277 1.348 . S
C274 C278 1.356 . S
C274 O325 1.325 . S
C275 N276 1.279 . S
C275 C278 1.358 . S
C275 H332 0.930 . S
N276 C275 1.279 . S
N276 C279 1.314 . S
C277 C274 1.348 . S
C277 C279 1.353 . S
C277 H333 0.929 . S
C278 C274 1.356 . S
C278 C275 1.358 . S
C278 H334 0.930 . S
C279 N276 1.314 . S
C279 C277 1.353 . S
C279 H335 0.930 . S
C280 N281 1.314 . S
C280 C285 1.353 . S
C280 H286 0.930 . S
N281 Li264 1.990 . S
N281 C280 1.314 . S
N281 C283 1.279 . S
C282 C283 1.358 . S
C282 C284 1.356 . S
C282 H336 0.930 . S
C283 N281 1.279 . S
C283 C282 1.358 . S
C283 H287 0.930 . S
C284 C282 1.356 . S
C284 C285 1.348 . S
C285 C280 1.353 . S
C285 C284 1.348 . S
C285 H337 0.929 . S
H286 C280 0.930 . S
H287 C283 0.930 . S
C288 N289 1.314 . S
C288 C290 1.353 . S
C288 H294 0.930 . S
N289 Li265 1.990 . S
N289 C288 1.314 . S
N289 C292 1.279 . S
C290 C288 1.353 . S
C290 C293 1.348 . S
C290 H338 0.929 . S
C291 C292 1.358 . S
C291 C293 1.356 . S
C291 H339 0.930 . S
C292 N289 1.279 . S
C292 C291 1.358 . S
C292 H295 0.930 . S
C293 C290 1.348 . S
C293 C291 1.356 . S
H294 C288 0.930 . S
H295 C292 0.930 . S
C296 C298 1.348 . S
C296 C299 1.356 . S
C296 O326 1.325 . S
N297 C300 1.314 . S
N297 C301 1.279 . S
C298 C296 1.348 . S
C298 C300 1.353 . S
C298 H340 0.929 . S
C299 C296 1.356 . S
C299 C301 1.358 . S
C299 H341 0.930 . S
C300 N297 1.314 . S
C300 C298 1.353 . S
C300 H342 0.930 . S
C301 N297 1.279 . S
C301 C299 1.358 . S
C301 H343 0.930 . S
C302 C303 1.348 . S
C302 C304 1.356 . S
C302 O327 1.325 . S
C303 C302 1.348 . S
C303 C305 1.353 . S
C303 H344 0.929 . S
C304 C302 1.356 . S
C304 C306 1.358 . S
C304 H345 0.930 . S
C305 C303 1.353 . S
C305 N307 1.314 . S
C305 H346 0.930 . S
C306 C304 1.358 . S
C306 N307 1.279 . S
C306 H347 0.930 . S
N307 C305 1.314 . S
N307 C306 1.279 . S
C308 C310 1.353 . S
C308 N311 1.314 . S
C308 H314 0.930 . S
C309 N311 1.279 . S
C309 C312 1.358 . S
C309 H315 0.930 . S
C310 C308 1.353 . S
C310 C313 1.348 . S
C310 H348 0.929 . S
N311 Li266 1.990 . S
N311 C308 1.314 . S
N311 C309 1.279 . S
C312 C309 1.358 . S
C312 C313 1.356 . S
C312 H349 0.930 . S
C313 C310 1.348 . S
C313 C312 1.356 . S
H314 C308 0.930 . S
H315 C309 0.930 . S
C316 N317 1.314 . S
C316 C318 1.353 . S
C316 H322 0.930 . S
N317 Li267 1.990 . S
N317 C316 1.314 . S
N317 C320 1.279 . S
C318 C316 1.353 . S
C318 C321 1.348 . S
C318 H350 0.929 . S
C319 C320 1.358 . S
C319 C321 1.356 . S
C319 H351 0.930 . S
C320 N317 1.279 . S
C320 C319 1.358 . S
C320 H323 0.930 . S
C321 C318 1.348 . S
C321 C319 1.356 . S
H322 C316 0.930 . S
H323 C320 0.930 . S
O324 Li264 1.956 . S
O324 Li265 1.970 . S
O324 Li266 1.961 . S
O324 C268 1.325 . S
O325 Li264 1.970 . S
O325 Li265 1.956 . S
O325 Li267 1.961 . S
O325 C274 1.325 . S
O326 Li264 1.961 . S
O326 Li266 1.956 . S
O326 Li267 1.970 . S
O326 C296 1.325 . S
O327 Li265 1.961 . S
O327 Li266 1.970 . S
O327 Li267 1.956 . S
O327 C302 1.325 . S
H328 C270 0.929 . S
H329 C271 0.930 . S
H330 C272 0.930 . S
H331 C273 0.930 . S
H332 C275 0.930 . S
H333 C277 0.929 . S
H334 C278 0.930 . S
H335 C279 0.930 . S
H336 C282 0.930 . S
H337 C285 0.929 . S
H338 C290 0.929 . S
H339 C291 0.930 . S
H340 C298 0.929 . S
H341 C299 0.930 . S
H342 C300 0.930 . S
H343 C301 0.930 . S
H344 C303 0.929 . S
H345 C304 0.930 . S
H346 C305 0.930 . S
H347 C306 0.930 . S
H348 C310 0.929 . S
H349 C312 0.930 . S
H350 C318 0.929 . S
H351 C319 0.930 . S
Li352 N369 1.990 . S
Li352 O412 1.956 . S
Li352 O413 1.970 . S
Li352 O414 1.961 . S
Li353 N377 1.990 . S
Li353 O412 1.970 . S
Li353 O413 1.956 . S
Li353 O415 1.961 . S
Li354 N399 1.990 . S
Li354 O412 1.961 . S
Li354 O414 1.956 . S
Li354 O415 1.970 . S
Li355 N405 1.990 . S
Li355 O413 1.961 . S
Li355 O414 1.970 . S
Li355 O415 1.956 . S
C356 C358 1.348 . S
C356 C359 1.356 . S
C356 O412 1.325 . S
N357 C360 1.314 . S
N357 C361 1.279 . S
C358 C356 1.348 . S
C358 C360 1.353 . S
C358 H416 0.929 . S
C359 C356 1.356 . S
C359 C361 1.358 . S
C359 H417 0.930 . S
C360 N357 1.314 . S
C360 C358 1.353 . S
C360 H418 0.930 . S
C361 N357 1.279 . S
C361 C359 1.358 . S
C361 H419 0.930 . S
C362 C365 1.348 . S
C362 C366 1.356 . S
C362 O413 1.325 . S
C363 N364 1.279 . S
C363 C366 1.358 . S
C363 H420 0.930 . S
N364 C363 1.279 . S
N364 C367 1.314 . S
C365 C362 1.348 . S
C365 C367 1.353 . S
C365 H421 0.929 . S
C366 C362 1.356 . S
C366 C363 1.358 . S
C366 H422 0.930 . S
C367 N364 1.314 . S
C367 C365 1.353 . S
C367 H423 0.930 . S
C368 N369 1.314 . S
C368 C373 1.353 . S
C368 H374 0.930 . S
N369 Li352 1.990 . S
N369 C368 1.314 . S
N369 C371 1.279 . S
C370 C371 1.358 . S
C370 C372 1.356 . S
C370 H424 0.930 . S
C371 N369 1.279 . S
C371 C370 1.358 . S
C371 H375 0.930 . S
C372 C370 1.356 . S
C372 C373 1.348 . S
C373 C368 1.353 . S
C373 C372 1.348 . S
C373 H425 0.929 . S
H374 C368 0.930 . S
H375 C371 0.930 . S
C376 N377 1.314 . S
C376 C378 1.353 . S
C376 H382 0.930 . S
N377 Li353 1.990 . S
N377 C376 1.314 . S
N377 C380 1.279 . S
C378 C376 1.353 . S
C378 C381 1.348 . S
C378 H426 0.929 . S
C379 C380 1.358 . S
C379 C381 1.356 . S
C379 H427 0.930 . S
C380 N377 1.279 . S
C380 C379 1.358 . S
C380 H383 0.930 . S
C381 C378 1.348 . S
C381 C379 1.356 . S
H382 C376 0.930 . S
H383 C380 0.930 . S
C384 C386 1.348 . S
C384 C387 1.356 . S
C384 O414 1.325 . S
N385 C388 1.314 . S
N385 C389 1.279 . S
C386 C384 1.348 . S
C386 C388 1.353 . S
C386 H428 0.929 . S
C387 C384 1.356 . S
C387 C389 1.358 . S
C387 H429 0.930 . S
C388 N385 1.314 . S
C388 C386 1.353 . S
C388 H430 0.930 . S
C389 N385 1.279 . S
C389 C387 1.358 . S
C389 H431 0.930 . S
C390 C391 1.348 . S
C390 C392 1.356 . S
C390 O415 1.325 . S
C391 C390 1.348 . S
C391 C393 1.353 . S
C391 H432 0.929 . S
C392 C390 1.356 . S
C392 C394 1.358 . S
C392 H433 0.930 . S
C393 C391 1.353 . S
C393 N395 1.314 . S
C393 H434 0.930 . S
C394 C392 1.358 . S
C394 N395 1.279 . S
C394 H435 0.930 . S
N395 C393 1.314 . S
N395 C394 1.279 . S
C396 C398 1.353 . S
C396 N399 1.314 . S
C396 H402 0.930 . S
C397 N399 1.279 . S
C397 C400 1.358 . S
C397 H403 0.930 . S
C398 C396 1.353 . S
C398 C401 1.348 . S
C398 H436 0.929 . S
N399 Li354 1.990 . S
N399 C396 1.314 . S
N399 C397 1.279 . S
C400 C397 1.358 . S
C400 C401 1.356 . S
C400 H437 0.930 . S
C401 C398 1.348 . S
C401 C400 1.356 . S
H402 C396 0.930 . S
H403 C397 0.930 . S
C404 N405 1.314 . S
C404 C406 1.353 . S
C404 H410 0.930 . S
N405 Li355 1.990 . S
N405 C404 1.314 . S
N405 C408 1.279 . S
C406 C404 1.353 . S
C406 C409 1.348 . S
C406 H438 0.929 . S
C407 C408 1.358 . S
C407 C409 1.356 . S
C407 H439 0.930 . S
C408 N405 1.279 . S
C408 C407 1.358 . S
C408 H411 0.930 . S
C409 C406 1.348 . S
C409 C407 1.356 . S
H410 C404 0.930 . S
H411 C408 0.930 . S
O412 Li352 1.956 . S
O412 Li353 1.970 . S
O412 Li354 1.961 . S
O412 C356 1.325 . S
O413 Li352 1.970 . S
O413 Li353 1.956 . S
O413 Li355 1.961 . S
O413 C362 1.325 . S
O414 Li352 1.961 . S
O414 Li354 1.956 . S
O414 Li355 1.970 . S
O414 C384 1.325 . S
O415 Li353 1.961 . S
O415 Li354 1.970 . S
O415 Li355 1.956 . S
O415 C390 1.325 . S
H416 C358 0.929 . S
H417 C359 0.930 . S
H418 C360 0.930 . S
H419 C361 0.930 . S
H420 C363 0.930 . S
H421 C365 0.929 . S
H422 C366 0.930 . S
H423 C367 0.930 . S
H424 C370 0.930 . S
H425 C373 0.929 . S
H426 C378 0.929 . S
H427 C379 0.930 . S
H428 C386 0.929 . S
H429 C387 0.930 . S
H430 C388 0.930 . S
H431 C389 0.930 . S
H432 C391 0.929 . S
H433 C392 0.930 . S
H434 C393 0.930 . S
H435 C394 0.930 . S
H436 C398 0.929 . S
H437 C400 0.930 . S
H438 C406 0.929 . S
H439 C407 0.930 . S
Li440 N457 1.990 . S
Li440 O500 1.956 . S
Li440 O501 1.970 . S
Li440 O502 1.961 . S
Li441 N465 1.990 . S
Li441 O500 1.970 . S
Li441 O501 1.956 . S
Li441 O503 1.961 . S
Li442 N487 1.990 . S
Li442 O500 1.961 . S
Li442 O502 1.956 . S
Li442 O503 1.970 . S
Li443 N493 1.990 . S
Li443 O501 1.961 . S
Li443 O502 1.970 . S
Li443 O503 1.956 . S
C444 C446 1.348 . S
C444 C447 1.356 . S
C444 O500 1.325 . S
N445 C448 1.314 . S
N445 C449 1.279 . S
C446 C444 1.348 . S
C446 C448 1.353 . S
C446 H504 0.929 . S
C447 C444 1.356 . S
C447 C449 1.358 . S
C447 H505 0.930 . S
C448 N445 1.314 . S
C448 C446 1.353 . S
C448 H506 0.930 . S
C449 N445 1.279 . S
C449 C447 1.358 . S
C449 H507 0.930 . S
C450 C453 1.348 . S
C450 C454 1.356 . S
C450 O501 1.325 . S
C451 N452 1.279 . S
C451 C454 1.358 . S
C451 H508 0.930 . S
N452 C451 1.279 . S
N452 C455 1.314 . S
C453 C450 1.348 . S
C453 C455 1.353 . S
C453 H509 0.929 . S
C454 C450 1.356 . S
C454 C451 1.358 . S
C454 H510 0.930 . S
C455 N452 1.314 . S
C455 C453 1.353 . S
C455 H511 0.930 . S
C456 N457 1.314 . S
C456 C461 1.353 . S
C456 H462 0.930 . S
N457 Li440 1.990 . S
N457 C456 1.314 . S
N457 C459 1.279 . S
C458 C459 1.358 . S
C458 C460 1.356 . S
C458 H512 0.930 . S
C459 N457 1.279 . S
C459 C458 1.358 . S
C459 H463 0.930 . S
C460 C458 1.356 . S
C460 C461 1.348 . S
C461 C456 1.353 . S
C461 C460 1.348 . S
C461 H513 0.929 . S
H462 C456 0.930 . S
H463 C459 0.930 . S
C464 N465 1.314 . S
C464 C466 1.353 . S
C464 H470 0.930 . S
N465 Li441 1.990 . S
N465 C464 1.314 . S
N465 C468 1.279 . S
C466 C464 1.353 . S
C466 C469 1.348 . S
C466 H514 0.929 . S
C467 C468 1.358 . S
C467 C469 1.356 . S
C467 H515 0.930 . S
C468 N465 1.279 . S
C468 C467 1.358 . S
C468 H471 0.930 . S
C469 C466 1.348 . S
C469 C467 1.356 . S
H470 C464 0.930 . S
H471 C468 0.930 . S
C472 C474 1.348 . S
C472 C475 1.356 . S
C472 O502 1.325 . S
N473 C476 1.314 . S
N473 C477 1.279 . S
C474 C472 1.348 . S
C474 C476 1.353 . S
C474 H516 0.929 . S
C475 C472 1.356 . S
C475 C477 1.358 . S
C475 H517 0.930 . S
C476 N473 1.314 . S
C476 C474 1.353 . S
C476 H518 0.930 . S
C477 N473 1.279 . S
C477 C475 1.358 . S
C477 H519 0.930 . S
C478 C479 1.348 . S
C478 C480 1.356 . S
C478 O503 1.325 . S
C479 C478 1.348 . S
C479 C481 1.353 . S
C479 H520 0.929 . S
C480 C478 1.356 . S
C480 C482 1.358 . S
C480 H521 0.930 . S
C481 C479 1.353 . S
C481 N483 1.314 . S
C481 H522 0.930 . S
C482 C480 1.358 . S
C482 N483 1.279 . S
C482 H523 0.930 . S
N483 C481 1.314 . S
N483 C482 1.279 . S
C484 C486 1.353 . S
C484 N487 1.314 . S
C484 H490 0.930 . S
C485 N487 1.279 . S
C485 C488 1.358 . S
C485 H491 0.930 . S
C486 C484 1.353 . S
C486 C489 1.348 . S
C486 H524 0.929 . S
N487 Li442 1.990 . S
N487 C484 1.314 . S
N487 C485 1.279 . S
C488 C485 1.358 . S
C488 C489 1.356 . S
C488 H525 0.930 . S
C489 C486 1.348 . S
C489 C488 1.356 . S
H490 C484 0.930 . S
H491 C485 0.930 . S
C492 N493 1.314 . S
C492 C494 1.353 . S
C492 H498 0.930 . S
N493 Li443 1.990 . S
N493 C492 1.314 . S
N493 C496 1.279 . S
C494 C492 1.353 . S
C494 C497 1.348 . S
C494 H526 0.929 . S
C495 C496 1.358 . S
C495 C497 1.356 . S
C495 H527 0.930 . S
C496 N493 1.279 . S
C496 C495 1.358 . S
C496 H499 0.930 . S
C497 C494 1.348 . S
C497 C495 1.356 . S
H498 C492 0.930 . S
H499 C496 0.930 . S
O500 Li440 1.956 . S
O500 Li441 1.970 . S
O500 Li442 1.961 . S
O500 C444 1.325 . S
O501 Li440 1.970 . S
O501 Li441 1.956 . S
O501 Li443 1.961 . S
O501 C450 1.325 . S
O502 Li440 1.961 . S
O502 Li442 1.956 . S
O502 Li443 1.970 . S
O502 C472 1.325 . S
O503 Li441 1.961 . S
O503 Li442 1.970 . S
O503 Li443 1.956 . S
O503 C478 1.325 . S
H504 C446 0.929 . S
H505 C447 0.930 . S
H506 C448 0.930 . S
H507 C449 0.930 . S
H508 C451 0.930 . S
H509 C453 0.929 . S
H510 C454 0.930 . S
H511 C455 0.930 . S
H512 C458 0.930 . S
H513 C461 0.929 . S
H514 C466 0.929 . S
H515 C467 0.930 . S
H516 C474 0.929 . S
H517 C475 0.930 . S
H518 C476 0.930 . S
H519 C477 0.930 . S
H520 C479 0.929 . S
H521 C480 0.930 . S
H522 C481 0.930 . S
H523 C482 0.930 . S
H524 C486 0.929 . S
H525 C488 0.930 . S
H526 C494 0.929 . S
H527 C495 0.930 . S
H528 C536 0.950 . S
H529 C541 0.950 . S
H530 C538 0.950 . S
H531 C540 0.950 . S
H532 C542 0.950 . S
H533 C544 0.950 . S
H534 C546 0.950 . S
H535 C547 0.950 . S
C536 H528 0.950 . S
C536 C537 1.386 . S
C536 C538 1.391 . S
C537 C536 1.386 . S
C537 C541 1.393 . S
C538 H530 0.950 . S
C538 C536 1.391 . S
C538 C539 1.400 . S
C539 C538 1.400 . S
C539 C540 1.398 . S
C539 C545 1.491 . S
C540 H531 0.950 . S
C540 C539 1.398 . S
C540 C541 1.391 . S
C541 H529 0.950 . S
C541 C537 1.393 . S
C541 C540 1.391 . S
C542 H532 0.950 . S
C542 C543 1.386 . S
C542 C544 1.391 . S
C543 C542 1.386 . S
C543 C547 1.393 . S
C544 H533 0.950 . S
C544 C542 1.391 . S
C544 C545 1.400 . S
C545 C539 1.491 . S
C545 C544 1.400 . S
C545 C546 1.398 . S
C546 H534 0.950 . S
C546 C545 1.398 . S
C546 C547 1.391 . S
C547 H535 0.950 . S
C547 C543 1.393 . S
C547 C546 1.391 . S
H548 C556 0.950 . S
H549 C561 0.950 . S
H550 C558 0.950 . S
H551 C560 0.950 . S
H552 C562 0.950 . S
H553 C564 0.950 . S
H554 C566 0.950 . S
H555 C567 0.950 . S
C556 H548 0.950 . S
C556 C557 1.386 . S
C556 C558 1.391 . S
C557 C556 1.386 . S
C557 C561 1.393 . S
C558 H550 0.950 . S
C558 C556 1.391 . S
C558 C559 1.400 . S
C559 C558 1.400 . S
C559 C560 1.398 . S
C559 C565 1.491 . S
C560 H551 0.950 . S
C560 C559 1.398 . S
C560 C561 1.391 . S
C561 H549 0.950 . S
C561 C557 1.393 . S
C561 C560 1.391 . S
C562 H552 0.950 . S
C562 C563 1.386 . S
C562 C564 1.391 . S
C563 C562 1.386 . S
C563 C567 1.393 . S
C564 H553 0.950 . S
C564 C562 1.391 . S
C564 C565 1.400 . S
C565 C559 1.491 . S
C565 C564 1.400 . S
C565 C566 1.398 . S
C566 H554 0.950 . S
C566 C565 1.398 . S
C566 C567 1.391 . S
C567 H555 0.950 . S
C567 C563 1.393 . S
C567 C566 1.391 . S
H568 C576 0.950 . S
H569 C581 0.950 . S
H570 C578 0.950 . S
H571 C580 0.950 . S
H572 C582 0.950 . S
H573 C584 0.950 . S
H574 C586 0.950 . S
H575 C587 0.950 . S
C576 H568 0.950 . S
C576 C577 1.386 . S
C576 C578 1.391 . S
C577 C576 1.386 . S
C577 C581 1.393 . S
C578 H570 0.950 . S
C578 C576 1.391 . S
C578 C579 1.400 . S
C579 C578 1.400 . S
C579 C580 1.398 . S
C579 C585 1.491 . S
C580 H571 0.950 . S
C580 C579 1.398 . S
C580 C581 1.391 . S
C581 H569 0.950 . S
C581 C577 1.393 . S
C581 C580 1.391 . S
C582 H572 0.950 . S
C582 C583 1.386 . S
C582 C584 1.391 . S
C583 C582 1.386 . S
C583 C587 1.393 . S
C584 H573 0.950 . S
C584 C582 1.391 . S
C584 C585 1.400 . S
C585 C579 1.491 . S
C585 C584 1.400 . S
C585 C586 1.398 . S
C586 H574 0.950 . S
C586 C585 1.398 . S
C586 C587 1.391 . S
C587 H575 0.950 . S
C587 C583 1.393 . S
C587 C586 1.391 . S
H588 C596 0.950 . S
H589 C601 0.950 . S
H590 C598 0.950 . S
H591 C600 0.950 . S
H592 C602 0.950 . S
H593 C604 0.950 . S
H594 C606 0.950 . S
H595 C607 0.950 . S
C596 H588 0.950 . S
C596 C597 1.386 . S
C596 C598 1.391 . S
C597 C596 1.386 . S
C597 C601 1.393 . S
C598 H590 0.950 . S
C598 C596 1.391 . S
C598 C599 1.400 . S
C599 C598 1.400 . S
C599 C600 1.398 . S
C599 C605 1.491 . S
C600 H591 0.950 . S
C600 C599 1.398 . S
C600 C601 1.391 . S
C601 H589 0.950 . S
C601 C597 1.393 . S
C601 C600 1.391 . S
C602 H592 0.950 . S
C602 C603 1.386 . S
C602 C604 1.391 . S
C603 C602 1.386 . S
C603 C607 1.393 . S
C604 H593 0.950 . S
C604 C602 1.391 . S
C604 C605 1.400 . S
C605 C599 1.491 . S
C605 C604 1.400 . S
C605 C606 1.398 . S
C606 H594 0.950 . S
C606 C605 1.398 . S
C606 C607 1.391 . S
C607 H595 0.950 . S
C607 C603 1.393 . S
C607 C606 1.391 . S
H608 C616 0.950 . S
H609 C621 0.950 . S
H610 C618 0.950 . S
H611 C620 0.950 . S
H612 C622 0.950 . S
H613 C624 0.950 . S
H614 C626 0.950 . S
H615 C627 0.950 . S
C616 H608 0.950 . S
C616 C617 1.386 . S
C616 C618 1.391 . S
C617 C616 1.386 . S
C617 C621 1.393 . S
C618 H610 0.950 . S
C618 C616 1.391 . S
C618 C619 1.400 . S
C619 C618 1.400 . S
C619 C620 1.398 . S
C619 C625 1.491 . S
C620 H611 0.950 . S
C620 C619 1.398 . S
C620 C621 1.391 . S
C621 H609 0.950 . S
C621 C617 1.393 . S
C621 C620 1.391 . S
C622 H612 0.950 . S
C622 C623 1.386 . S
C622 C624 1.391 . S
C623 C622 1.386 . S
C623 C627 1.393 . S
C624 H613 0.950 . S
C624 C622 1.391 . S
C624 C625 1.400 . S
C625 C619 1.491 . S
C625 C624 1.400 . S
C625 C626 1.398 . S
C626 H614 0.950 . S
C626 C625 1.398 . S
C626 C627 1.391 . S
C627 H615 0.950 . S
C627 C623 1.393 . S
C627 C626 1.391 . S
H628 C636 0.950 . S
H629 C641 0.950 . S
H630 C638 0.950 . S
H631 C640 0.950 . S
H632 C642 0.950 . S
H633 C644 0.950 . S
H634 C646 0.950 . S
H635 C647 0.950 . S
C636 H628 0.950 . S
C636 C637 1.386 . S
C636 C638 1.391 . S
C637 C636 1.386 . S
C637 C641 1.393 . S
C638 H630 0.950 . S
C638 C636 1.391 . S
C638 C639 1.400 . S
C639 C638 1.400 . S
C639 C640 1.398 . S
C639 C645 1.491 . S
C640 H631 0.950 . S
C640 C639 1.398 . S
C640 C641 1.391 . S
C641 H629 0.950 . S
C641 C637 1.393 . S
C641 C640 1.391 . S
C642 H632 0.950 . S
C642 C643 1.386 . S
C642 C644 1.391 . S
C643 C642 1.386 . S
C643 C647 1.393 . S
C644 H633 0.950 . S
C644 C642 1.391 . S
C644 C645 1.400 . S
C645 C639 1.491 . S
C645 C644 1.400 . S
C645 C646 1.398 . S
C646 H634 0.950 . S
C646 C645 1.398 . S
C646 C647 1.391 . S
C647 H635 0.950 . S
C647 C643 1.393 . S
C647 C646 1.391 . S
H648 C656 0.950 . S
H649 C661 0.950 . S
H650 C658 0.950 . S
H651 C660 0.950 . S
H652 C662 0.950 . S
H653 C664 0.950 . S
H654 C666 0.950 . S
H655 C667 0.950 . S
C656 H648 0.950 . S
C656 C657 1.386 . S
C656 C658 1.391 . S
C657 C656 1.386 . S
C657 C661 1.393 . S
C658 H650 0.950 . S
C658 C656 1.391 . S
C658 C659 1.400 . S
C659 C658 1.400 . S
C659 C660 1.398 . S
C659 C665 1.491 1_566 S
C660 H651 0.950 . S
C660 C659 1.398 . S
C660 C661 1.391 . S
C661 H649 0.950 . S
C661 C657 1.393 . S
C661 C660 1.391 . S
C662 H652 0.950 . S
C662 C663 1.386 . S
C662 C664 1.391 . S
C663 C662 1.386 . S
C663 C667 1.393 . S
C664 H653 0.950 . S
C664 C662 1.391 . S
C664 C665 1.400 . S
C665 C659 1.491 1_544 S
C665 C664 1.400 . S
C665 C666 1.398 . S
C666 H654 0.950 . S
C666 C665 1.398 . S
C666 C667 1.391 . S
C667 H655 0.950 . S
C667 C663 1.393 . S
C667 C666 1.391 . S
H668 C676 0.950 . S
H669 C681 0.950 . S
H670 C678 0.950 . S
H671 C680 0.950 . S
H672 C682 0.950 . S
H673 C684 0.950 . S
H674 C686 0.950 . S
H675 C687 0.950 . S
C676 H668 0.950 . S
C676 C677 1.386 . S
C676 C678 1.391 . S
C677 C676 1.386 . S
C677 C681 1.393 . S
C678 H670 0.950 . S
C678 C676 1.391 . S
C678 C679 1.400 . S
C679 C678 1.400 . S
C679 C680 1.398 . S
C679 C685 1.491 . S
C680 H671 0.950 . S
C680 C679 1.398 . S
C680 C681 1.391 . S
C681 H669 0.950 . S
C681 C677 1.393 . S
C681 C680 1.391 . S
C682 H672 0.950 . S
C682 C683 1.386 . S
C682 C684 1.391 . S
C683 C682 1.386 . S
C683 C687 1.393 . S
C684 H673 0.950 . S
C684 C682 1.391 . S
C684 C685 1.400 . S
C685 C679 1.491 . S
C685 C684 1.400 . S
C685 C686 1.398 . S
C686 H674 0.950 . S
C686 C685 1.398 . S
C686 C687 1.391 . S
C687 H675 0.950 . S
C687 C683 1.393 . S
C687 C686 1.391 . S
H688 C696 0.950 . S
H689 C701 0.950 1_655 S
H690 C698 0.950 . S
H691 C700 0.950 . S
H692 C702 0.950 . S
H693 C704 0.937 1_556 S
H694 C706 0.950 . S
H695 C707 0.950 1_455 S
C696 H688 0.950 . S
C696 C697 1.386 . S
C696 C698 1.391 . S
C697 C696 1.386 . S
C697 C701 1.393 . S
C698 H690 0.950 . S
C698 C696 1.391 . S
C698 C699 1.400 . S
C699 C698 1.400 . S
C699 C700 1.398 1_455 S
C699 C705 1.491 1_456 S
C700 H691 0.950 . S
C700 C699 1.398 1_655 S
C700 C701 1.391 1_655 S
C701 H689 0.950 1_455 S
C701 C697 1.393 . S
C701 C700 1.391 1_455 S
C702 H692 0.950 . S
C702 C703 1.386 . S
C702 C704 1.391 . S
C703 C702 1.386 . S
C703 C707 1.393 . S
C704 H693 0.937 1_554 S
C704 C702 1.391 . S
C704 C705 1.400 . S
C705 C699 1.491 1_654 S
C705 C704 1.400 . S
C705 C706 1.398 1_655 S
C706 H694 0.950 . S
C706 C705 1.398 1_455 S
C706 C707 1.391 1_455 S
C707 H695 0.950 1_655 S
C707 C703 1.393 . S
C707 C706 1.391 1_655 S
H708 C716 0.950 . S
H709 C721 0.950 . S
H710 C718 0.950 . S
H711 C720 0.950 1_565 S
H712 C722 0.950 . S
H713 C724 0.950 . S
H714 C726 0.950 1_545 S
H715 C727 0.950 . S
C716 H708 0.950 . S
C716 C717 1.386 . S
C716 C718 1.391 . S
C717 C716 1.386 . S
C717 C721 1.393 . S
C718 H710 0.950 . S
C718 C716 1.391 . S
C718 C719 1.400 . S
C719 C718 1.400 . S
C719 C720 1.398 . S
C719 C725 1.491 1_545 S
C720 H711 0.950 1_545 S
C720 C719 1.398 . S
C720 C721 1.391 . S
C721 H709 0.950 . S
C721 C717 1.393 . S
C721 C720 1.391 . S
C722 H712 0.950 . S
C722 C723 1.386 . S
C722 C724 1.391 . S
C723 C722 1.386 . S
C723 C727 1.393 . S
C724 H713 0.950 . S
C724 C722 1.391 . S
C724 C725 1.400 . S
C725 C719 1.491 1_565 S
C725 C724 1.400 . S
C725 C726 1.398 . S
C726 H714 0.950 1_565 S
C726 C725 1.398 . S
C726 C727 1.391 . S
C727 H715 0.950 . S
C727 C723 1.393 . S
C727 C726 1.391 . S
H728 C736 0.950 . S
H729 C741 0.950 . S
H730 C738 0.950 . S
H731 C740 0.934 1_554 S
H732 C742 0.950 . S
H733 C744 0.950 . S
H734 C746 0.950 . S
H735 C747 0.950 . S
C736 H728 0.950 . S
C736 C737 1.386 . S
C736 C738 1.391 . S
C737 C736 1.386 . S
C737 C741 1.393 . S
C738 H730 0.950 . S
C738 C736 1.391 . S
C738 C739 1.400 . S
C739 C738 1.400 . S
C739 C740 1.398 . S
C739 C745 1.491 1_556 S
C740 H731 0.934 1_556 S
C740 C739 1.398 . S
C740 C741 1.391 . S
C741 H729 0.950 . S
C741 C737 1.393 . S
C741 C740 1.391 . S
C742 H732 0.950 . S
C742 C743 1.386 . S
C742 C744 1.391 . S
C743 C742 1.386 . S
C743 C747 1.393 . S
C744 H733 0.950 . S
C744 C742 1.391 . S
C744 C745 1.400 . S
C745 C739 1.491 1_554 S
C745 C744 1.400 . S
C745 C746 1.398 . S
C746 H734 0.950 . S
C746 C745 1.398 . S
C746 C747 1.391 . S
C747 H735 0.950 . S
C747 C743 1.393 . S
C747 C746 1.391 . S
H748 C756 0.950 . S
H749 C761 0.950 . S
H750 C758 0.950 . S
H751 C760 0.950 1_655 S
H752 C762 0.950 . S
H753 C764 0.950 . S
H754 C766 0.950 1_455 S
H755 C767 0.950 . S
C756 H748 0.950 . S
C756 C757 1.386 . S
C756 C758 1.391 . S
C757 C756 1.386 . S
C757 C761 1.393 . S
C758 H750 0.950 . S
C758 C756 1.391 . S
C758 C759 1.400 . S
C759 C758 1.400 . S
C759 C760 1.398 . S
C759 C765 1.491 1_455 S
C760 H751 0.950 1_455 S
C760 C759 1.398 . S
C760 C761 1.391 . S
C761 H749 0.950 . S
C761 C757 1.393 . S
C761 C760 1.391 . S
C762 H752 0.950 . S
C762 C763 1.386 . S
C762 C764 1.391 . S
C763 C762 1.386 . S
C763 C767 1.393 . S
C764 H753 0.950 . S
C764 C762 1.391 . S
C764 C765 1.400 . S
C765 C759 1.491 1_655 S
C765 C764 1.400 . S
C765 C766 1.398 . S
C766 H754 0.950 1_655 S
C766 C765 1.398 . S
C766 C767 1.391 . S
C767 H755 0.950 . S
C767 C763 1.393 . S
C767 C766 1.391 . S
C537 C20 0.843 . S
C543 C381 0.863 . S
C557 C137 0.847 . S
C563 C469 0.867 . S
C577 C29 0.837 . S
C583 C233 0.867 . S
C597 C313 0.844 . S
C603 C117 0.861 . S
C617 C401 0.859 . S
C623 C196 0.851 . S
C637 C321 0.870 . S
C643 C489 0.836 . S
C657 C293 1.263 . S
C663 C49 1.264 . S
C677 C372 1.268 . S
C683 C145 1.269 . S
C697 C460 1.265 . S
C703 C225 1.267 . S
C717 C57 1.264 . S
C723 C284 1.263 . S
C737 C108 1.268 . S
C743 C409 1.266 . S
C757 C497 1.272 . S
C763 C205 1.272 . S
