# Generated by pormake.
# Topology pyc, (8)-cn, num edge types: 1
# Building blocks:
#     Node 0, Type 0, BuildingBlock: TAGTUT_clean_sbu_1, # of connection points: 8
#     Node 1, Type 0, BuildingBlock: TAGTUT_clean_sbu_1, # of connection points: 8
#     Node 2, Type 0, BuildingBlock: TAGTUT_clean_sbu_1, # of connection points: 8
#     Node 3, Type 0, BuildingBlock: TAGTUT_clean_sbu_1, # of connection points: 8
#     Node 4, Type 0, BuildingBlock: TAGTUT_clean_sbu_1, # of connection points: 8
#     Node 5, Type 0, BuildingBlock: TAGTUT_clean_sbu_1, # of connection points: 8
#     Node 6, Type 0, BuildingBlock: TAGTUT_clean_sbu_1, # of connection points: 8
#     Node 7, Type 0, BuildingBlock: TAGTUT_clean_sbu_1, # of connection points: 8
#     Node 8, Type 0, BuildingBlock: TAGTUT_clean_sbu_1, # of connection points: 8
#     Node 9, Type 0, BuildingBlock: TAGTUT_clean_sbu_1, # of connection points: 8
#     Node 10, Type 0, BuildingBlock: TAGTUT_clean_sbu_1, # of connection points: 8
#     Node 11, Type 0, BuildingBlock: TAGTUT_clean_sbu_1, # of connection points: 8
#     Node 12, Type 0, BuildingBlock: TAGTUT_clean_sbu_1, # of connection points: 8
#     Node 13, Type 0, BuildingBlock: TAGTUT_clean_sbu_1, # of connection points: 8
#     Node 14, Type 0, BuildingBlock: TAGTUT_clean_sbu_1, # of connection points: 8
#     Node 15, Type 0, BuildingBlock: TAGTUT_clean_sbu_1, # of connection points: 8
#     Node 16, Type 0, BuildingBlock: TAGTUT_clean_sbu_1, # of connection points: 8
#     Node 17, Type 0, BuildingBlock: TAGTUT_clean_sbu_1, # of connection points: 8
#     Node 18, Type 0, BuildingBlock: TAGTUT_clean_sbu_1, # of connection points: 8
#     Node 19, Type 0, BuildingBlock: TAGTUT_clean_sbu_1, # of connection points: 8
#     Node 20, Type 0, BuildingBlock: TAGTUT_clean_sbu_1, # of connection points: 8
#     Node 21, Type 0, BuildingBlock: TAGTUT_clean_sbu_1, # of connection points: 8
#     Node 22, Type 0, BuildingBlock: TAGTUT_clean_sbu_1, # of connection points: 8
#     Node 23, Type 0, BuildingBlock: TAGTUT_clean_sbu_1, # of connection points: 8
#     Node 24, Type 0, BuildingBlock: TAGTUT_clean_sbu_1, # of connection points: 8
#     Node 25, Type 0, BuildingBlock: TAGTUT_clean_sbu_1, # of connection points: 8
#     Node 26, Type 0, BuildingBlock: TAGTUT_clean_sbu_1, # of connection points: 8
#     Node 27, Type 0, BuildingBlock: TAGTUT_clean_sbu_1, # of connection points: 8
#     Node 28, Type 0, BuildingBlock: TAGTUT_clean_sbu_1, # of connection points: 8
#     Node 29, Type 0, BuildingBlock: TAGTUT_clean_sbu_1, # of connection points: 8
#     Node 30, Type 0, BuildingBlock: TAGTUT_clean_sbu_1, # of connection points: 8
#     Node 31, Type 0, BuildingBlock: TAGTUT_clean_sbu_1, # of connection points: 8
#     Node 32, Type 0, BuildingBlock: TAGTUT_clean_sbu_1, # of connection points: 8
#     Node 33, Type 0, BuildingBlock: TAGTUT_clean_sbu_1, # of connection points: 8
#     Node 34, Type 0, BuildingBlock: TAGTUT_clean_sbu_1, # of connection points: 8
#     Node 35, Type 0, BuildingBlock: TAGTUT_clean_sbu_1, # of connection points: 8
#     Node 36, Type 0, BuildingBlock: TAGTUT_clean_sbu_1, # of connection points: 8
#     Node 37, Type 0, BuildingBlock: TAGTUT_clean_sbu_1, # of connection points: 8
#     Node 38, Type 0, BuildingBlock: TAGTUT_clean_sbu_1, # of connection points: 8
#     Node 39, Type 0, BuildingBlock: TAGTUT_clean_sbu_1, # of connection points: 8
#     Node 40, Type 0, BuildingBlock: TAGTUT_clean_sbu_1, # of connection points: 8
#     Node 41, Type 0, BuildingBlock: TAGTUT_clean_sbu_1, # of connection points: 8
#     Node 42, Type 0, BuildingBlock: TAGTUT_clean_sbu_1, # of connection points: 8
#     Node 43, Type 0, BuildingBlock: TAGTUT_clean_sbu_1, # of connection points: 8
#     Node 44, Type 0, BuildingBlock: TAGTUT_clean_sbu_1, # of connection points: 8
#     Node 45, Type 0, BuildingBlock: TAGTUT_clean_sbu_1, # of connection points: 8
#     Node 46, Type 0, BuildingBlock: TAGTUT_clean_sbu_1, # of connection points: 8
#     Node 47, Type 0, BuildingBlock: TAGTUT_clean_sbu_1, # of connection points: 8
#     Edge 48, Type (0, 0), None
#     Edge 49, Type (0, 0), None
#     Edge 50, Type (0, 0), None
#     Edge 51, Type (0, 0), None
#     Edge 52, Type (0, 0), None
#     Edge 53, Type (0, 0), None
#     Edge 54, Type (0, 0), None
#     Edge 55, Type (0, 0), None
#     Edge 56, Type (0, 0), None
#     Edge 57, Type (0, 0), None
#     Edge 58, Type (0, 0), None
#     Edge 59, Type (0, 0), None
#     Edge 60, Type (0, 0), None
#     Edge 61, Type (0, 0), None
#     Edge 62, Type (0, 0), None
#     Edge 63, Type (0, 0), None
#     Edge 64, Type (0, 0), None
#     Edge 65, Type (0, 0), None
#     Edge 66, Type (0, 0), None
#     Edge 67, Type (0, 0), None
#     Edge 68, Type (0, 0), None
#     Edge 69, Type (0, 0), None
#     Edge 70, Type (0, 0), None
#     Edge 71, Type (0, 0), None
#     Edge 72, Type (0, 0), None
#     Edge 73, Type (0, 0), None
#     Edge 74, Type (0, 0), None
#     Edge 75, Type (0, 0), None
#     Edge 76, Type (0, 0), None
#     Edge 77, Type (0, 0), None
#     Edge 78, Type (0, 0), None
#     Edge 79, Type (0, 0), None
#     Edge 80, Type (0, 0), None
#     Edge 81, Type (0, 0), None
#     Edge 82, Type (0, 0), None
#     Edge 83, Type (0, 0), None
#     Edge 84, Type (0, 0), None
#     Edge 85, Type (0, 0), None
#     Edge 86, Type (0, 0), None
#     Edge 87, Type (0, 0), None
#     Edge 88, Type (0, 0), None
#     Edge 89, Type (0, 0), None
#     Edge 90, Type (0, 0), None
#     Edge 91, Type (0, 0), None
#     Edge 92, Type (0, 0), None
#     Edge 93, Type (0, 0), None
#     Edge 94, Type (0, 0), None
#     Edge 95, Type (0, 0), None
#     Edge 96, Type (0, 0), None
#     Edge 97, Type (0, 0), None
#     Edge 98, Type (0, 0), None
#     Edge 99, Type (0, 0), None
#     Edge 100, Type (0, 0), None
#     Edge 101, Type (0, 0), None
#     Edge 102, Type (0, 0), None
#     Edge 103, Type (0, 0), None
#     Edge 104, Type (0, 0), None
#     Edge 105, Type (0, 0), None
#     Edge 106, Type (0, 0), None
#     Edge 107, Type (0, 0), None
#     Edge 108, Type (0, 0), None
#     Edge 109, Type (0, 0), None
#     Edge 110, Type (0, 0), None
#     Edge 111, Type (0, 0), None
#     Edge 112, Type (0, 0), None
#     Edge 113, Type (0, 0), None
#     Edge 114, Type (0, 0), None
#     Edge 115, Type (0, 0), None
#     Edge 116, Type (0, 0), None
#     Edge 117, Type (0, 0), None
#     Edge 118, Type (0, 0), None
#     Edge 119, Type (0, 0), None
#     Edge 120, Type (0, 0), None
#     Edge 121, Type (0, 0), None
#     Edge 122, Type (0, 0), None
#     Edge 123, Type (0, 0), None
#     Edge 124, Type (0, 0), None
#     Edge 125, Type (0, 0), None
#     Edge 126, Type (0, 0), None
#     Edge 127, Type (0, 0), None
#     Edge 128, Type (0, 0), None
#     Edge 129, Type (0, 0), None
#     Edge 130, Type (0, 0), None
#     Edge 131, Type (0, 0), None
#     Edge 132, Type (0, 0), None
#     Edge 133, Type (0, 0), None
#     Edge 134, Type (0, 0), None
#     Edge 135, Type (0, 0), None
#     Edge 136, Type (0, 0), None
#     Edge 137, Type (0, 0), None
#     Edge 138, Type (0, 0), None
#     Edge 139, Type (0, 0), None
#     Edge 140, Type (0, 0), None
#     Edge 141, Type (0, 0), None
#     Edge 142, Type (0, 0), None
#     Edge 143, Type (0, 0), None
#     Edge 144, Type (0, 0), None
#     Edge 145, Type (0, 0), None
#     Edge 146, Type (0, 0), None
#     Edge 147, Type (0, 0), None
#     Edge 148, Type (0, 0), None
#     Edge 149, Type (0, 0), None
#     Edge 150, Type (0, 0), None
#     Edge 151, Type (0, 0), None
#     Edge 152, Type (0, 0), None
#     Edge 153, Type (0, 0), None
#     Edge 154, Type (0, 0), None
#     Edge 155, Type (0, 0), None
#     Edge 156, Type (0, 0), None
#     Edge 157, Type (0, 0), None
#     Edge 158, Type (0, 0), None
#     Edge 159, Type (0, 0), None
#     Edge 160, Type (0, 0), None
#     Edge 161, Type (0, 0), None
#     Edge 162, Type (0, 0), None
#     Edge 163, Type (0, 0), None
#     Edge 164, Type (0, 0), None
#     Edge 165, Type (0, 0), None
#     Edge 166, Type (0, 0), None
#     Edge 167, Type (0, 0), None
#     Edge 168, Type (0, 0), None
#     Edge 169, Type (0, 0), None
#     Edge 170, Type (0, 0), None
#     Edge 171, Type (0, 0), None
#     Edge 172, Type (0, 0), None
#     Edge 173, Type (0, 0), None
#     Edge 174, Type (0, 0), None
#     Edge 175, Type (0, 0), None
#     Edge 176, Type (0, 0), None
#     Edge 177, Type (0, 0), None
#     Edge 178, Type (0, 0), None
#     Edge 179, Type (0, 0), None
#     Edge 180, Type (0, 0), None
#     Edge 181, Type (0, 0), None
#     Edge 182, Type (0, 0), None
#     Edge 183, Type (0, 0), None
#     Edge 184, Type (0, 0), None
#     Edge 185, Type (0, 0), None
#     Edge 186, Type (0, 0), None
#     Edge 187, Type (0, 0), None
#     Edge 188, Type (0, 0), None
#     Edge 189, Type (0, 0), None
#     Edge 190, Type (0, 0), None
#     Edge 191, Type (0, 0), None
#     Edge 192, Type (0, 0), None
#     Edge 193, Type (0, 0), None
#     Edge 194, Type (0, 0), None
#     Edge 195, Type (0, 0), None
#     Edge 196, Type (0, 0), None
#     Edge 197, Type (0, 0), None
#     Edge 198, Type (0, 0), None
#     Edge 199, Type (0, 0), None
#     Edge 200, Type (0, 0), None
#     Edge 201, Type (0, 0), None
#     Edge 202, Type (0, 0), None
#     Edge 203, Type (0, 0), None
#     Edge 204, Type (0, 0), None
#     Edge 205, Type (0, 0), None
#     Edge 206, Type (0, 0), None
#     Edge 207, Type (0, 0), None
#     Edge 208, Type (0, 0), None
#     Edge 209, Type (0, 0), None
#     Edge 210, Type (0, 0), None
#     Edge 211, Type (0, 0), None
#     Edge 212, Type (0, 0), None
#     Edge 213, Type (0, 0), None
#     Edge 214, Type (0, 0), None
#     Edge 215, Type (0, 0), None
#     Edge 216, Type (0, 0), None
#     Edge 217, Type (0, 0), None
#     Edge 218, Type (0, 0), None
#     Edge 219, Type (0, 0), None
#     Edge 220, Type (0, 0), None
#     Edge 221, Type (0, 0), None
#     Edge 222, Type (0, 0), None
#     Edge 223, Type (0, 0), None
#     Edge 224, Type (0, 0), None
#     Edge 225, Type (0, 0), None
#     Edge 226, Type (0, 0), None
#     Edge 227, Type (0, 0), None
#     Edge 228, Type (0, 0), None
#     Edge 229, Type (0, 0), None
#     Edge 230, Type (0, 0), None
#     Edge 231, Type (0, 0), None
#     Edge 232, Type (0, 0), None
#     Edge 233, Type (0, 0), None
#     Edge 234, Type (0, 0), None
#     Edge 235, Type (0, 0), None
#     Edge 236, Type (0, 0), None
#     Edge 237, Type (0, 0), None
#     Edge 238, Type (0, 0), None
#     Edge 239, Type (0, 0), None
# Relax obj value: 0.409
# Max RMSD: 0.268
# Mean RMSD: 0.191
data_MOF--net-pyc--node1-TAGTUT_clean_sbu_1--edge1-none
_symmetry_space_group_name_H-M    P1
_symmetry_Int_Tables_number       1
_symmetry_cell_setting            triclinic
loop_
_symmetry_equiv_pos_as_xyz
'x, y, z'
_cell_length_a     31.000419
_cell_length_b     31.789628
_cell_length_c     32.068164
_cell_angle_alpha  94.503416
_cell_angle_beta   94.107287
_cell_angle_gamma 105.43265
loop_
_atom_site_label
_atom_site_type_symbol
_atom_site_fract_x
_atom_site_fract_y
_atom_site_fract_z
_atom_type_partial_charge
C0 C 0.06269 0.21679 0.35005 0.0
C1 C -0.00707 0.10602 0.34179 0.0
C2 C 0.04423 0.10519 0.51762 0.0
Mg3 Mg 0.08859 0.12887 0.3399 0.0
O4 O 0.09084 0.1426 0.39889 0.0
Mg5 Mg 0.03506 0.15075 0.42646 0.0
Mg6 Mg 0.11117 0.10421 0.43445 0.0
O7 O 0.13293 0.06793 0.47291 0.0
Mg8 Mg 0.14413 0.1039 0.52434 0.0
Mg9 Mg 0.19333 0.06613 0.44684 0.0
C10 C 0.1862 0.10755 0.35789 0.0
C11 C 0.1156 0.00541 0.37956 0.0
O12 O 0.03741 0.20454 0.37949 0.0
O13 O 0.08733 0.19431 0.33388 0.0
O14 O 0.00163 0.09694 0.37853 0.0
O15 O 0.01882 0.10043 0.31397 0.0
O16 O 0.15291 0.10941 0.332 0.0
O17 O 0.18237 0.11284 0.39812 0.0
C18 C 0.11113 0.20577 0.49044 0.0
O19 O 0.13001 0.1748 0.4807 0.0
O20 O 0.07268 0.20444 0.4735 0.0
O21 O 0.18773 0.02209 0.50076 0.0
O22 O 0.16008 0.05399 0.55469 0.0
O23 O 0.2446 0.11892 0.48796 0.0
C24 C 0.17209 0.02227 0.53701 0.0
O25 O 0.19527 0.15258 0.50107 0.0
O26 O 0.08046 0.10969 0.5408 0.0
C27 C 0.23113 0.14438 0.5123 0.0
O28 O 0.04427 0.10024 0.47614 0.0
O29 O 0.08992 0.03212 0.38392 0.0
O30 O 0.15223 0.01323 0.40259 0.0
C31 C 0.81181 0.27605 0.74114 0.0
C32 C 0.74458 0.36174 0.69864 0.0
C33 C 0.73776 0.30536 0.55533 0.0
Mg34 Mg 0.84147 0.35977 0.70331 0.0
O35 O 0.83073 0.31686 0.65887 0.0
Mg36 Mg 0.76785 0.27934 0.64603 0.0
Mg37 Mg 0.84191 0.33849 0.6056 0.0
O38 O 0.85323 0.36454 0.55171 0.0
Mg39 Mg 0.81781 0.34109 0.49614 0.0
Mg40 Mg 0.91964 0.4083 0.57174 0.0
C41 C 0.92967 0.39784 0.66444 0.0
C42 C 0.85254 0.44143 0.62863 0.0
O43 O 0.78186 0.26226 0.70998 0.0
O44 O 0.84007 0.31361 0.74632 0.0
O45 O 0.73501 0.32862 0.67164 0.0
O46 O 0.78482 0.38169 0.7114 0.0
O47 O 0.90314 0.4032 0.69175 0.0
O48 O 0.91614 0.37256 0.63049 0.0
C49 C 0.83617 0.23484 0.60806 0.0
O50 O 0.85677 0.27106 0.59391 0.0
O51 O 0.7995 0.2297 0.62447 0.0
O52 O 0.90438 0.44114 0.51421 0.0
O53 O 0.83118 0.41435 0.49191 0.0
O54 O 0.88041 0.34609 0.53893 0.0
C55 C 0.86519 0.44681 0.50677 0.0
O56 O 0.86793 0.29713 0.4875 0.0
O57 O 0.74767 0.31759 0.51898 0.0
C58 C 0.8947 0.31686 0.51941 0.0
O59 O 0.76882 0.30311 0.58222 0.0
O60 O 0.8265 0.40242 0.62552 0.0
O61 O 0.8879 0.45083 0.61001 0.0
C62 C 0.5627 0.21683 0.85008 0.0
C63 C 0.49292 0.10606 0.8418 0.0
C64 C 0.54425 0.10521 0.01761 0.0
Mg65 Mg 0.5886 0.1289 0.83991 0.0
O66 O 0.59084 0.14261 0.8989 0.0
Mg67 Mg 0.53506 0.15077 0.92646 0.0
Mg68 Mg 0.61117 0.10421 0.93446 0.0
O69 O 0.63293 0.06794 -0.02709 0.0
Mg70 Mg 0.64415 0.10392 0.02433 0.0
Mg71 Mg 0.69333 0.06613 0.94685 0.0
C72 C 0.68623 0.10759 0.85793 0.0
C73 C 0.6156 0.00542 0.87955 0.0
O74 O 0.53741 0.20456 0.8795 0.0
O75 O 0.58735 0.19435 0.83391 0.0
O76 O 0.50162 0.09697 0.87853 0.0
O77 O 0.51881 0.10049 0.81398 0.0
O78 O 0.65294 0.10946 0.83203 0.0
O79 O 0.68237 0.11286 0.89816 0.0
C80 C 0.61115 0.20578 -0.00956 0.0
O81 O 0.63001 0.1748 -0.0193 0.0
O82 O 0.57269 0.20445 -0.0265 0.0
O83 O 0.68773 0.02209 0.00075 0.0
O84 O 0.66009 0.05401 0.05469 0.0
O85 O 0.74461 0.11891 -0.01204 0.0
C86 C 0.67209 0.02228 0.037 0.0
O87 O 0.69529 0.15259 0.00105 0.0
O88 O 0.58048 0.10972 0.0408 0.0
C89 C 0.73115 0.14439 0.01229 0.0
O90 O 0.54428 0.10025 -0.02386 0.0
O91 O 0.58992 0.03212 0.88392 0.0
O92 O 0.65223 0.01323 0.90259 0.0
C93 C 0.81198 0.7759 0.24093 0.0
C94 C 0.74463 0.86172 0.19867 0.0
C95 C 0.73775 0.80536 0.05527 0.0
Mg96 Mg 0.84154 0.85974 0.20327 0.0
O97 O 0.83073 0.81688 0.15879 0.0
Mg98 Mg 0.76786 0.77937 0.14596 0.0
Mg99 Mg 0.8419 0.83849 0.10553 0.0
O100 O 0.85322 0.86455 0.05165 0.0
Mg101 Mg 0.81782 0.84109 -0.00391 0.0
Mg102 Mg 0.91963 0.90831 0.0717 0.0
C103 C 0.92968 0.89785 0.16438 0.0
C104 C 0.85251 0.94142 0.12859 0.0
O105 O 0.7819 0.76226 0.20986 0.0
O106 O 0.84025 0.81346 0.24615 0.0
O107 O 0.73503 0.82867 0.17159 0.0
O108 O 0.78488 0.88157 0.2115 0.0
O109 O 0.90314 0.90325 0.19167 0.0
O110 O 0.91615 0.87256 0.13043 0.0
C111 C 0.83616 0.73484 0.10801 0.0
O112 O 0.85676 0.77106 0.09386 0.0
O113 O 0.79948 0.72971 0.12441 0.0
O114 O 0.90438 0.94115 0.01417 0.0
O115 O 0.83118 0.91436 -0.00813 0.0
O116 O 0.88042 0.84611 0.03888 0.0
C117 C 0.8652 0.94682 0.00673 0.0
O118 O 0.86793 0.79712 -0.01253 0.0
O119 O 0.74766 0.81759 0.01892 0.0
C120 C 0.8947 0.81686 0.01937 0.0
O121 O 0.76881 0.80311 0.08216 0.0
O122 O 0.82646 0.9024 0.12544 0.0
O123 O 0.88787 0.95082 0.10998 0.0
C124 C 0.0955 0.04278 0.93059 0.0
C125 C 0.04945 0.16291 0.92623 0.0
C126 C 0.06284 0.10326 0.77559 0.0
Mg127 Mg 0.1411 0.13837 0.94531 0.0
O128 O 0.12651 0.13156 0.88586 0.0
Mg129 Mg 0.06503 0.09842 0.86086 0.0
Mg130 Mg 0.15058 0.15169 0.83373 0.0
O131 O 0.17696 0.16827 0.78161 0.0
Mg132 Mg 0.15553 0.11517 0.74164 0.0
Mg133 Mg 0.24284 0.19795 0.80679 0.0
C134 C 0.23419 0.16079 0.89664 0.0
C135 C 0.18243 0.25947 0.83263 0.0
O136 O 0.06212 0.05687 0.91755 0.0
O137 O 0.13005 0.06963 0.95056 0.0
O138 O 0.06429 0.16318 0.8912 0.0
O139 O 0.07259 0.15241 0.9568 0.0
O140 O 0.21374 0.15035 0.92973 0.0
O141 O 0.21638 0.1762 0.86712 0.0
C142 C 0.11439 0.04195 0.81008 0.0
O143 O 0.1479 0.07689 0.81625 0.0
O144 O 0.07773 0.04049 0.82566 0.0
O145 O 0.19204 0.20013 0.74438 0.0
O146 O 0.15234 0.15375 0.69218 0.0
O147 O 0.25391 0.129 0.79638 0.0
C148 C 0.1645 0.19245 0.71051 0.0
O149 O 0.20664 0.08086 0.75319 0.0
O150 O 0.08637 0.0877 0.75117 0.0
C151 C 0.24479 0.1084 0.76035 0.0
O152 O 0.08018 0.1336 0.80415 0.0
O153 O 0.15338 0.22477 0.84164 0.0
O154 O 0.2216 0.25957 0.82228 0.0
C155 C 0.73084 0.40514 0.09194 0.0
C156 C 0.86027 0.47333 0.10696 0.0
C157 C 0.85622 0.43665 0.9281 0.0
Mg158 Mg 0.82155 0.37634 0.10098 0.0
O159 O 0.81394 0.37913 0.04238 0.0
Mg160 Mg 0.79911 0.43201 0.01643 0.0
Mg161 Mg 0.86067 0.36707 0.00908 0.0
O162 O 0.90264 0.35167 -0.02575 0.0
Mg163 Mg 0.87282 0.34376 0.92001 0.0
Mg164 Mg 0.90664 0.29301 -0.00209 0.0
C165 C 0.85067 0.28531 0.08136 0.0
C166 C 0.96737 0.36912 0.06421 0.0
O167 O 0.73973 0.4238 0.05837 0.0
O168 O 0.75668 0.3855 0.11052 0.0
O169 O 0.84111 0.47159 0.07038 0.0
O170 O 0.86265 0.43982 0.12552 0.0
O171 O 0.84052 0.31259 0.10837 0.0
O172 O 0.85437 0.29623 0.04302 0.0
C173 C 0.75933 0.3598 0.9444 0.0
O174 O 0.79312 0.34401 0.95491 0.0
O175 O 0.7533 0.39241 0.96561 0.0
O176 O 0.95686 0.29926 0.94882 0.0
O177 O 0.92825 0.3314 0.89667 0.0
O178 O 0.85655 0.24982 0.95382 0.0
C179 C 0.95882 0.31681 0.91399 0.0
O180 O 0.81966 0.28506 0.91416 0.0
O181 O 0.8618 0.40525 0.90374 0.0
C182 C 0.82461 0.25007 0.92775 0.0
O183 O 0.85797 0.43341 0.96947 0.0
O184 O 0.93913 0.39369 0.05931 0.0
O185 O 0.95686 0.33147 0.04437 0.0
C186 C 0.5955 0.0428 0.43059 0.0
C187 C 0.54945 0.16291 0.42623 0.0
C188 C 0.56285 0.10331 0.27561 0.0
Mg189 Mg 0.64112 0.13838 0.44532 0.0
O190 O 0.62653 0.13156 0.38587 0.0
Mg191 Mg 0.56505 0.09845 0.36087 0.0
Mg192 Mg 0.6506 0.15171 0.33374 0.0
O193 O 0.67698 0.1683 0.28162 0.0
Mg194 Mg 0.65553 0.11521 0.24165 0.0
Mg195 Mg 0.74286 0.19795 0.3068 0.0
C196 C 0.73421 0.16078 0.39664 0.0
C197 C 0.68248 0.25948 0.33268 0.0
O198 O 0.56213 0.05689 0.41755 0.0
O199 O 0.63005 0.06964 0.45057 0.0
O200 O 0.56432 0.1632 0.39121 0.0
O201 O 0.57258 0.1524 0.4568 0.0
O202 O 0.71375 0.15034 0.42973 0.0
O203 O 0.7164 0.17619 0.36713 0.0
C204 C 0.61438 0.04197 0.31007 0.0
O205 O 0.6479 0.07691 0.31624 0.0
O206 O 0.57773 0.04051 0.32565 0.0
O207 O 0.69207 0.20019 0.2444 0.0
O208 O 0.65238 0.15381 0.1922 0.0
O209 O 0.75391 0.129 0.29637 0.0
C210 C 0.66453 0.19251 0.21053 0.0
O211 O 0.70662 0.08087 0.25319 0.0
O212 O 0.58637 0.08774 0.25118 0.0
C213 C 0.74478 0.1084 0.26034 0.0
O214 O 0.5802 0.13364 0.30417 0.0
O215 O 0.65343 0.22478 0.34168 0.0
O216 O 0.72164 0.25958 0.32233 0.0
C217 C 0.73083 0.90514 0.59193 0.0
C218 C 0.86026 0.97332 0.60695 0.0
C219 C 0.85622 0.93664 0.4281 0.0
Mg220 Mg 0.82154 0.87634 0.60097 0.0
O221 O 0.81393 0.87913 0.54238 0.0
Mg222 Mg 0.79911 0.93201 0.51643 0.0
Mg223 Mg 0.86066 0.86707 0.50909 0.0
O224 O 0.90265 0.85167 0.47426 0.0
Mg225 Mg 0.87282 0.84374 0.42003 0.0
Mg226 Mg 0.90665 0.793 0.49792 0.0
C227 C 0.85066 0.78531 0.58135 0.0
C228 C 0.96735 0.86912 0.56422 0.0
O229 O 0.73972 0.9238 0.55836 0.0
O230 O 0.75666 0.8855 0.61051 0.0
O231 O 0.8411 0.97158 0.57037 0.0
O232 O 0.86264 0.93981 0.62552 0.0
O233 O 0.84051 0.81259 0.60836 0.0
O234 O 0.85436 0.79622 0.54301 0.0
C235 C 0.75933 0.85982 0.44439 0.0
O236 O 0.79311 0.84403 0.45491 0.0
O237 O 0.75329 0.89242 0.4656 0.0
O238 O 0.95688 0.79927 0.44885 0.0
O239 O 0.92823 0.83136 0.39667 0.0
O240 O 0.85658 0.74979 0.45379 0.0
C241 C 0.95882 0.8168 0.414 0.0
O242 O 0.81963 0.78507 0.41425 0.0
O243 O 0.8618 0.90523 0.40375 0.0
C244 C 0.82461 0.75006 0.42776 0.0
O245 O 0.85797 0.9334 0.46947 0.0
O246 O 0.93912 0.89369 0.55931 0.0
O247 O 0.95684 0.83147 0.5444 0.0
C248 C 0.35391 0.12453 0.00529 0.0
C249 C 0.35556 0.19815 0.10699 0.0
C250 C 0.5144 0.20006 0.14769 0.0
Mg251 Mg 0.34779 0.10016 0.09525 0.0
O252 O 0.40692 0.10981 0.08392 0.0
Mg253 Mg 0.43948 0.17017 0.06967 0.0
Mg254 Mg 0.44599 0.10421 0.13317 0.0
O255 O 0.48318 0.10022 0.18098 0.0
Mg256 Mg 0.53205 0.13951 0.21074 0.0
Mg257 Mg 0.45968 0.0368 0.18922 0.0
C258 C 0.37529 0.01652 0.12754 0.0
C259 C 0.38566 0.07998 0.22121 0.0
O260 O 0.39159 0.15322 0.01491 0.0
O261 O 0.3321 0.09912 0.03034 0.0
O262 O 0.39376 0.2048 0.09386 0.0
O263 O 0.33341 0.16064 0.11646 0.0
O264 O 0.34609 0.03883 0.12405 0.0
O265 O 0.41715 0.03364 0.12792 0.0
C266 C 0.50585 0.11197 0.04251 0.0
O267 O 0.49898 0.09654 0.07875 0.0
O268 O 0.48696 0.14078 0.0323 0.0
O269 O 0.50041 0.0474 0.25271 0.0
O270 O 0.49588 0.11492 0.26207 0.0
O271 O 0.52319 0.03684 0.15909 0.0
C272 C 0.51483 0.08597 0.27157 0.0
O273 O 0.57129 0.10377 0.17858 0.0
O274 O 0.53715 0.19761 0.1816 0.0
C275 C 0.56184 0.065 0.16013 0.0
O276 O 0.47607 0.17482 0.1357 0.0
O277 O 0.3957 0.10756 0.1926 0.0
O278 O 0.40194 0.04729 0.22131 0.0
C279 C 0.68819 0.67626 0.24674 0.0
C280 C 0.80818 0.74862 0.27355 0.0
C281 C 0.87078 0.59072 0.26403 0.0
Mg282 Mg 0.75513 0.70021 0.32053 0.0
O283 O 0.79475 0.6738 0.28862 0.0
Mg284 Mg 0.77093 0.6274 0.2418 0.0
Mg285 Mg 0.84 0.65748 0.32509 0.0
O286 O 0.89118 0.6456 0.36261 0.0
Mg287 Mg 0.90873 0.59555 0.36838 0.0
Mg288 Mg 0.91512 0.70071 0.403 0.0
C289 C 0.81165 0.71288 0.39845 0.0
C290 C 0.94256 0.72919 0.31146 0.0
O291 O 0.71272 0.66206 0.22108 0.0
O292 O 0.69115 0.66737 0.28441 0.0
O293 O 0.79534 0.70664 0.2623 0.0
O294 O 0.79484 0.76216 0.30717 0.0
O295 O 0.77036 0.70034 0.38467 0.0
O296 O 0.84326 0.70827 0.37639 0.0
C297 C 0.73034 0.60691 0.3374 0.0
O298 O 0.77057 0.61789 0.35696 0.0
O299 O 0.7266 0.60545 0.29718 0.0
O300 O 0.98312 0.6863 0.42678 0.0
O301 O 0.97883 0.61938 0.39684 0.0
O302 O 0.88557 0.66201 0.45249 0.0
C303 C -4e-05 0.65375 0.42147 0.0
O304 O 0.8765 0.59111 0.42695 0.0
O305 O 0.89536 0.58368 0.29609 0.0
C306 C 0.87491 0.62109 0.45596 0.0
O307 O 0.83659 0.60583 0.27008 0.0
O308 O 0.90362 0.70441 0.2955 0.0
O309 O 0.95203 0.73449 0.35092 0.0
C310 C 0.27399 0.27121 0.68604 0.0
C311 C 0.25736 0.13585 0.72761 0.0
C312 C 0.37523 0.11235 0.68365 0.0
Mg313 Mg 0.22996 0.17204 0.64826 0.0
O314 O 0.28883 0.17656 0.64483 0.0
Mg315 Mg 0.33862 0.20652 0.68966 0.0
Mg316 Mg 0.31047 0.12975 0.61545 0.0
O317 O 0.33421 0.08326 0.58385 0.0
Mg318 Mg 0.39206 0.07905 0.5844 0.0
Mg319 Mg 0.28392 0.05013 0.54175 0.0
C320 C 0.23586 0.13777 0.55576 0.0
C321 C 0.25518 0.0211 0.63087 0.0
O322 O 0.31108 0.26693 0.70242 0.0
O323 O 0.24434 0.23904 0.66686 0.0
O324 O 0.29521 0.16529 0.73335 0.0
O325 O 0.22953 0.12996 0.69503 0.0
O326 O 0.21813 0.1595 0.58136 0.0
O327 O 0.25439 0.10901 0.56757 0.0
C328 C 0.35823 0.24258 0.59889 0.0
O329 O 0.33894 0.20248 0.58169 0.0
O330 O 0.37237 0.24762 0.63802 0.0
O331 O 0.31848 -0.00464 0.51936 0.0
O332 O 0.38734 0.0131 0.55366 0.0
O333 O 0.32052 0.08799 0.49597 0.0
C334 C 0.35673 0.98765 0.527 0.0
O335 O 0.39254 0.1119 0.52631 0.0
O336 O 0.38984 0.08822 0.65632 0.0
C337 C 0.36179 0.10793 0.49565 0.0
O338 O 0.36349 0.1453 0.671 0.0
O339 O 0.27159 0.06225 0.64588 0.0
O340 O 0.25615 0.00927 0.59249 0.0
C341 C 0.84118 0.61481 0.96199 0.0
C342 C 0.7687 0.6395 0.88509 0.0
C343 C 0.74569 0.47334 0.80421 0.0
Mg344 Mg 0.86522 0.63386 0.87344 0.0
O345 O 0.84502 0.57363 0.87049 0.0
Mg346 Mg 0.78435 0.54304 0.88943 0.0
Mg347 Mg 0.84801 0.54014 0.81695 0.0
O348 O 0.84826 0.51159 0.76214 0.0
Mg349 Mg 0.81492 0.45494 0.74908 0.0
Mg350 Mg 0.91395 0.52835 0.75637 0.0
C351 C 0.9464 0.60424 0.83141 0.0
C352 C 0.88046 0.60264 0.72935 0.0
O353 O 0.80702 0.58239 0.95023 0.0
O354 O 0.86928 0.6348 0.93795 0.0
O355 O 0.75467 0.59807 0.8754 0.0
O356 O 0.80797 0.66177 0.87765 0.0
O357 O 0.93177 0.63497 0.84943 0.0
O358 O 0.9212 0.56585 0.82087 0.0
C359 C 0.84331 0.47323 0.90439 0.0
O360 O 0.85781 0.48372 0.86806 0.0
O361 O 0.81355 0.49 0.91789 0.0
O362 O 0.89034 0.48971 0.68796 0.0
O363 O 0.81617 0.45706 0.68459 0.0
O364 O 0.91557 0.46965 0.78375 0.0
C365 C 0.85229 0.46852 0.66716 0.0
O366 O 0.85303 0.41549 0.77826 0.0
O367 O 0.75286 0.45169 0.77181 0.0
C368 C 0.8944 0.43174 0.79112 0.0
O369 O 0.77265 0.50992 0.81965 0.0
O370 O 0.84835 0.59037 0.75475 0.0
O371 O 0.91533 0.58991 0.73396 0.0
C372 C 0.11255 0.51172 0.27228 0.0
C373 C 0.09851 0.54851 0.14776 0.0
C374 C 0.01818 0.37925 0.08132 0.0
Mg375 Mg 0.16174 0.51273 0.20102 0.0
O376 O 0.11944 0.45925 0.18177 0.0
Mg377 Mg 0.05561 0.45754 0.17436 0.0
Mg378 Mg 0.12297 0.42258 0.13342 0.0
O379 O 0.13186 0.38218 0.08524 0.0
Mg380 Mg 0.09921 0.3268 0.05914 0.0
Mg381 Mg 0.19779 0.40367 0.07581 0.0
C382 C 0.23031 0.48759 0.15756 0.0
C383 C 0.16576 0.4834 0.05813 0.0
O384 O 0.07823 0.50227 0.24362 0.0
O385 O 0.15037 0.50816 0.2634 0.0
O386 O 0.08608 0.50907 0.13287 0.0
O387 O 0.1351 0.56167 0.17184 0.0
O388 O 0.22546 0.50441 0.19325 0.0
O389 O 0.20571 0.44757 0.14363 0.0
C390 C 0.06862 0.379 0.2181 0.0
O391 O 0.10124 0.37847 0.19396 0.0
O392 O 0.04041 0.40069 0.21015 0.0
O393 O 0.18212 0.36749 0.00629 0.0
O394 O 0.10833 0.33289 -0.00427 0.0
O395 O 0.2027 0.34267 0.10107 0.0
C396 C 0.14692 0.34545 -0.01767 0.0
O397 O 0.15658 0.29456 0.05402 0.0
O398 O 0.03695 0.35103 0.06394 0.0
C399 C 0.1961 0.31046 0.07324 0.0
O400 O 0.04143 0.40678 0.11268 0.0
O401 O 0.13963 0.47636 0.08752 0.0
O402 O 0.1886 0.45812 0.04696 0.0
C403 C 0.44181 0.31512 0.0322 0.0
C404 C 0.56177 0.35989 -0.01155 0.0
C405 C 0.63074 0.24061 0.0258 0.0
Mg406 Mg 0.53757 0.36965 0.08121 0.0
O407 O 0.54685 0.31497 0.08262 0.0
Mg408 Mg 0.53051 0.27026 0.0312 0.0
Mg409 Mg 0.60895 0.31132 0.10365 0.0
O410 O 0.66915 0.30877 0.12357 0.0
Mg411 Mg 0.69563 0.26567 0.10813 0.0
Mg412 Mg 0.67624 0.33809 0.18307 0.0
C413 C 0.59014 0.37815 0.17812 0.0
C414 C 0.6877 0.40105 0.10896 0.0
O415 O 0.45686 0.28231 0.02057 0.0
O416 O 0.46603 0.34799 0.05722 0.0
O417 O 0.54885 0.31846 -0.01384 0.0
O418 O 0.56712 0.38531 0.02282 0.0
O419 O 0.56658 0.39295 0.15042 0.0
O420 O 0.60487 0.34511 0.16787 0.0
C421 C 0.53462 0.22915 0.11885 0.0
O422 O 0.57399 0.25311 0.12962 0.0
O423 O 0.51307 0.22862 0.08325 0.0
O424 O 0.75035 0.33412 0.19654 0.0
O425 O 0.76007 0.30993 0.13318 0.0
O426 O 0.66121 0.26672 0.20614 0.0
C427 C 0.77045 0.31306 0.17272 0.0
O428 O 0.66157 0.22162 0.1483 0.0
O429 O 0.66889 0.24069 0.04395 0.0
C430 C 0.65797 0.22837 0.18729 0.0
O431 O 0.60716 0.26554 0.0412 0.0
O432 O 0.65337 0.37649 0.08505 0.0
O433 O 0.69115 0.4002 0.14913 0.0
C434 C 0.59991 -0.00105 0.41407 0.0
C435 C 0.57795 0.87758 0.45124 0.0
C436 C 0.72996 0.84628 0.40369 0.0
Mg437 Mg 0.5634 0.90732 0.36126 0.0
O438 O 0.62304 0.9048 0.36325 0.0
Mg439 Mg 0.6687 0.92776 0.41298 0.0
Mg440 Mg 0.64225 0.85358 0.33721 0.0
O441 O 0.66018 0.80203 0.31021 0.0
Mg442 Mg 0.72069 0.81097 0.3064 0.0
Mg443 Mg 0.61998 0.79081 0.25442 0.0
C444 C 0.57152 0.87022 0.26338 0.0
C445 C 0.56677 0.75872 0.33328 0.0
O446 O 0.63609 -0.01207 0.42512 0.0
O447 O 0.569 0.97445 0.38725 0.0
O448 O 0.62008 0.89463 0.45368 0.0
O449 O 0.55086 0.87339 0.41776 0.0
O450 O 0.55277 0.89114 0.28982 0.0
O451 O 0.5993 0.85039 0.27684 0.0
C452 C 0.71365 0.94842 0.32955 0.0
O453 O 0.69259 0.90929 0.31455 0.0
O454 O 0.71248 0.96311 0.3674 0.0
O455 O 0.64504 0.72773 0.23789 0.0
O456 O 0.71511 0.74969 0.26919 0.0
O457 O 0.67503 0.83095 0.22011 0.0
C458 C 0.68392 0.72132 0.24589 0.0
O459 O 0.73246 0.86282 0.26781 0.0
O460 O 0.74426 0.82506 0.37434 0.0
C461 C 0.71364 0.85781 0.23046 0.0
O462 O 0.69527 0.86183 0.39588 0.0
O463 O 0.58857 0.79375 0.35712 0.0
O464 O 0.56803 0.75513 0.29338 0.0
C465 C 0.1125 0.01168 0.77229 0.0
C466 C 0.09849 0.0485 0.64777 0.0
C467 C 0.01816 0.87925 0.58132 0.0
Mg468 Mg 0.16173 0.01272 0.70104 0.0
O469 O 0.11943 0.95925 0.68179 0.0
Mg470 Mg 0.05559 0.95753 0.67437 0.0
Mg471 Mg 0.12296 0.92258 0.63344 0.0
O472 O 0.13185 0.88218 0.58525 0.0
Mg473 Mg 0.0992 0.82682 0.55913 0.0
Mg474 Mg 0.19778 0.90367 0.57582 0.0
C475 C 0.23031 0.98759 0.65758 0.0
C476 C 0.16575 0.98341 0.55814 0.0
O477 O 0.07819 0.00226 0.74362 0.0
O478 O 0.15035 0.00815 0.76342 0.0
O479 O 0.08606 0.00905 0.63288 0.0
O480 O 0.13508 0.06166 0.67185 0.0
O481 O 0.22545 0.00441 0.69326 0.0
O482 O 0.2057 0.94757 0.64364 0.0
C483 C 0.0686 0.879 0.71812 0.0
O484 O 0.10123 0.87848 0.69398 0.0
O485 O 0.04039 0.90069 0.71016 0.0
O486 O 0.18211 0.86752 0.50629 0.0
O487 O 0.10831 0.83294 0.49572 0.0
O488 O 0.20268 0.84266 0.60103 0.0
C489 C 0.14691 0.84549 0.48233 0.0
O490 O 0.15655 0.79457 0.55397 0.0
O491 O 0.03694 0.85104 0.56394 0.0
C492 C 0.19608 0.81047 0.57318 0.0
O493 O 0.04142 0.90678 0.61269 0.0
O494 O 0.13962 0.97637 0.58753 0.0
O495 O 0.1886 0.95813 0.54698 0.0
C496 C 0.47456 0.40332 0.18244 0.0
C497 C 0.42404 0.40446 0.29631 0.0
C498 C 0.60932 0.46404 0.34893 0.0
Mg499 Mg 0.45693 0.33745 0.23834 0.0
O500 O 0.50397 0.37077 0.27448 0.0
Mg501 Mg 0.52707 0.4358 0.27483 0.0
Mg502 Mg 0.54688 0.35963 0.3124 0.0
O503 O 0.59168 0.35129 0.35251 0.0
Mg504 Mg 0.65297 0.38358 0.35593 0.0
Mg505 Mg 0.57125 0.2876 0.35513 0.0
C506 C 0.47201 0.26044 0.2855 0.0
C507 C 0.49758 0.32164 0.39194 0.0
O508 O 0.48585 0.43301 0.21349 0.0
O509 O 0.48417 0.36708 0.185 0.0
O510 O 0.46452 0.42609 0.31019 0.0
O511 O 0.41512 0.37151 0.2685 0.0
O512 O 0.44978 0.27211 0.25556 0.0
O513 O 0.51416 0.28204 0.29749 0.0
C514 C 0.59098 0.39322 0.22406 0.0
O515 O 0.58698 0.36478 0.25116 0.0
O516 O 0.58111 0.42915 0.23278 0.0
O517 O 0.6226 0.30546 0.4162 0.0
O518 O 0.66189 0.3769 0.42045 0.0
O519 O 0.62414 0.28814 0.31195 0.0
C520 C 0.64774 0.34114 0.43697 0.0
O521 O 0.68895 0.33651 0.3348 0.0
O522 O 0.64499 0.45021 0.34826 0.0
C523 C 0.66539 0.29688 0.32509 0.0
O524 O 0.57072 0.43698 0.33643 0.0
O525 O 0.50313 0.34914 0.36445 0.0
O526 O 0.52074 0.29469 0.39629 0.0
C527 C 0.94179 0.81512 0.03218 0.0
C528 C 0.06177 0.85986 -0.01155 0.0
C529 C 0.13071 0.74061 0.02583 0.0
Mg530 Mg 0.03755 0.86965 0.0812 0.0
O531 O 0.04682 0.81496 0.08264 0.0
Mg532 Mg 0.03048 0.77024 0.03122 0.0
Mg533 Mg 0.10891 0.81132 0.10368 0.0
O534 O 0.16911 0.80876 0.1236 0.0
Mg535 Mg 0.19561 0.7657 0.10814 0.0
Mg536 Mg 0.1762 0.83808 0.18309 0.0
C537 C 0.09009 0.87815 0.17813 0.0
C538 C 0.18773 0.901 0.10897 0.0
O539 O 0.95684 0.78229 0.02058 0.0
O540 O 0.96602 0.84799 0.05719 0.0
O541 O 0.04883 0.81843 -0.01383 0.0
O542 O 0.06712 0.88529 0.02282 0.0
O543 O 0.06654 0.89295 0.15042 0.0
O544 O 0.10483 0.84511 0.16789 0.0
C545 C 0.03458 0.72915 0.11889 0.0
O546 O 0.07395 0.75311 0.12966 0.0
O547 O 0.01303 0.72861 0.08329 0.0
O548 O 0.25032 0.83411 0.19655 0.0
O549 O 0.26006 0.80995 0.13318 0.0
O550 O 0.16119 0.76671 0.20615 0.0
C551 C 0.27044 0.81308 0.17272 0.0
O552 O 0.16159 0.72163 0.14831 0.0
O553 O 0.16887 0.7407 0.04397 0.0
C554 C 0.158 0.72837 0.18731 0.0
O555 O 0.10713 0.76553 0.04123 0.0
O556 O 0.15335 0.87649 0.08509 0.0
O557 O 0.19109 0.90018 0.14915 0.0
C558 C 0.97462 0.40335 0.68244 0.0
C559 C 0.92402 0.40444 0.79642 0.0
C560 C 0.10929 0.46404 0.84892 0.0
Mg561 Mg 0.95688 0.33747 0.73835 0.0
O562 O 0.0039 0.3708 0.77451 0.0
Mg563 Mg 0.02702 0.43582 0.77486 0.0
Mg564 Mg 0.04683 0.35964 0.81241 0.0
O565 O 0.09165 0.35129 0.8525 0.0
Mg566 Mg 0.15294 0.38357 0.8559 0.0
Mg567 Mg 0.07122 0.2876 0.85512 0.0
C568 C 0.97197 0.26044 0.7855 0.0
C569 C -0.00242 0.32166 0.89198 0.0
O570 O -0.01421 0.43303 0.7135 0.0
O571 O 0.98415 0.36707 0.685 0.0
O572 O 0.96449 0.42616 0.81025 0.0
O573 O 0.9151 0.37154 0.76855 0.0
O574 O 0.94972 0.27213 0.75558 0.0
O575 O 0.01412 0.28205 0.79749 0.0
C576 C 0.09089 0.39322 0.72405 0.0
O577 O 0.0869 0.36479 0.75116 0.0
O578 O 0.08104 0.42914 0.73278 0.0
O579 O 0.12259 0.30546 0.91618 0.0
O580 O 0.1619 0.3769 0.92042 0.0
O581 O 0.12409 0.28812 0.81192 0.0
C582 C 0.14779 0.34112 0.93692 0.0
O583 O 0.1889 0.3365 0.83474 0.0
O584 O 0.14496 0.45021 0.84824 0.0
C585 C 0.16534 0.29687 0.82503 0.0
O586 O 0.07068 0.43699 0.83644 0.0
O587 O 0.00311 0.34915 0.86448 0.0
O588 O 0.02073 0.29469 0.8963 0.0
C589 C 0.09553 0.54276 0.43058 0.0
C590 C 0.0495 0.6629 0.42624 0.0
C591 C 0.06287 0.60326 0.2756 0.0
Mg592 Mg 0.14113 0.63835 0.44532 0.0
O593 O 0.12653 0.63155 0.38587 0.0
Mg594 Mg 0.06506 0.59841 0.36086 0.0
Mg595 Mg 0.15061 0.6517 0.33374 0.0
O596 O 0.17698 0.66829 0.28163 0.0
Mg597 Mg 0.15555 0.61519 0.24165 0.0
Mg598 Mg 0.24286 0.69797 0.30681 0.0
C599 C 0.23422 0.66079 0.39665 0.0
C600 C 0.18244 0.75947 0.33266 0.0
O601 O 0.06215 0.55684 0.41754 0.0
O602 O 0.13008 0.5696 0.45055 0.0
O603 O 0.06431 0.66317 0.3912 0.0
O604 O 0.07261 0.65239 0.45682 0.0
O605 O 0.21376 0.65035 0.42974 0.0
O606 O 0.2164 0.6762 0.36714 0.0
C607 C 0.11443 0.54195 0.3101 0.0
O608 O 0.14794 0.5769 0.31625 0.0
O609 O 0.07776 0.54048 0.32565 0.0
O610 O 0.19208 0.70017 0.24441 0.0
O611 O 0.15236 0.65379 0.1922 0.0
O612 O 0.25394 0.62902 0.29638 0.0
C613 C 0.16454 0.6925 0.21053 0.0
O614 O 0.20666 0.58088 0.25319 0.0
O615 O 0.0864 0.5877 0.25117 0.0
C616 C 0.24481 0.60842 0.26034 0.0
O617 O 0.08021 0.6336 0.30416 0.0
O618 O 0.1534 0.72477 0.34166 0.0
O619 O 0.22161 0.75958 0.32232 0.0
C620 C 0.23089 0.90516 0.09197 0.0
C621 C 0.36033 0.9733 0.10691 0.0
C622 C 0.35622 0.93664 0.9281 0.0
Mg623 Mg 0.32159 0.87635 0.10098 0.0
O624 O 0.31392 0.8791 0.04238 0.0
Mg625 Mg 0.2991 0.93198 0.01643 0.0
Mg626 Mg 0.36066 0.86706 0.00909 0.0
O627 O 0.40266 0.85168 -0.02575 0.0
Mg628 Mg 0.37283 0.84375 0.92003 0.0
Mg629 Mg 0.40666 0.79301 -0.00209 0.0
C630 C 0.35067 0.78531 0.08135 0.0
C631 C 0.46736 0.86912 0.06422 0.0
O632 O 0.23972 0.92376 0.05836 0.0
O633 O 0.25675 0.88557 0.11057 0.0
O634 O 0.34109 0.97153 0.07036 0.0
O635 O 0.36276 0.93982 0.12549 0.0
O636 O 0.34053 0.81258 0.10836 0.0
O637 O 0.35437 0.79622 0.04301 0.0
C638 C 0.25933 0.8598 0.94439 0.0
O639 O 0.29312 0.84402 0.9549 0.0
O640 O 0.25328 0.8924 0.9656 0.0
O641 O 0.45689 0.79928 0.94883 0.0
O642 O 0.42825 0.83138 0.89666 0.0
O643 O 0.35659 0.7498 0.9538 0.0
C644 C 0.45883 0.81681 0.91399 0.0
O645 O 0.31966 0.78507 0.91423 0.0
O646 O 0.36181 0.90523 0.90375 0.0
C647 C 0.32463 0.75007 0.92776 0.0
O648 O 0.35796 0.93339 0.96947 0.0
O649 O 0.43912 0.89369 0.05932 0.0
O650 O 0.45685 0.83147 0.04438 0.0
C651 C 0.06271 0.7168 0.85009 0.0
C652 C -0.00703 0.60602 0.84183 0.0
C653 C 0.04423 0.60519 0.01764 0.0
Mg654 Mg 0.08862 0.62889 0.83993 0.0
O655 O 0.09085 0.64261 0.89892 0.0
Mg656 Mg 0.03506 0.65075 0.92648 0.0
Mg657 Mg 0.11117 0.60421 0.93449 0.0
O658 O 0.13293 0.56793 -0.02706 0.0
Mg659 Mg 0.14414 0.60391 0.02436 0.0
Mg660 Mg 0.19334 0.56614 0.94687 0.0
C661 C 0.18625 0.60761 0.85797 0.0
C662 C 0.11561 0.50543 0.87957 0.0
O663 O 0.03741 0.70454 0.87951 0.0
O664 O 0.08736 0.69433 0.83392 0.0
O665 O 0.00169 0.59693 0.87856 0.0
O666 O 0.01883 0.60045 0.81398 0.0
O667 O 0.15297 0.60947 0.83207 0.0
O668 O 0.18238 0.61288 0.8982 0.0
C669 C 0.11112 0.70577 -0.00954 0.0
O670 O 0.13 0.67479 -0.01927 0.0
O671 O 0.07266 0.70444 -0.02648 0.0
O672 O 0.18775 0.52209 0.00076 0.0
O673 O 0.1601 0.55399 0.0547 0.0
O674 O 0.24461 0.61892 -0.01203 0.0
C675 C 0.17211 0.52227 0.03701 0.0
O676 O 0.19527 0.65257 0.00106 0.0
O677 O 0.08046 0.60969 0.04083 0.0
C678 C 0.23114 0.64439 0.0123 0.0
O679 O 0.04427 0.60023 -0.02384 0.0
O680 O 0.08992 0.53212 0.88395 0.0
O681 O 0.15225 0.51325 0.90261 0.0
C682 C 0.31191 0.77592 0.74096 0.0
C683 C 0.24459 0.86171 0.69863 0.0
C684 C 0.23775 0.80534 0.55526 0.0
Mg685 Mg 0.34149 0.85974 0.70326 0.0
O686 O 0.33071 0.81685 0.6588 0.0
Mg687 Mg 0.26784 0.77934 0.64596 0.0
Mg688 Mg 0.3419 0.83847 0.60554 0.0
O689 O 0.35322 0.86453 0.55166 0.0
Mg690 Mg 0.31781 0.84108 0.4961 0.0
Mg691 Mg 0.41963 0.90829 0.57171 0.0
C692 C 0.42968 0.8978 0.66439 0.0
C693 C 0.35254 0.94141 0.62862 0.0
O694 O 0.28188 0.76223 0.70986 0.0
O695 O 0.34014 0.81351 0.74619 0.0
O696 O 0.235 0.82863 0.6716 0.0
O697 O 0.28483 0.88162 0.71141 0.0
O698 O 0.40315 0.90319 0.69168 0.0
O699 O 0.41614 0.87252 0.63043 0.0
C700 C 0.33614 0.73483 0.608 0.0
O701 O 0.35674 0.77105 0.59384 0.0
O702 O 0.29946 0.72969 0.62439 0.0
O703 O 0.40439 0.94116 0.5142 0.0
O704 O 0.33118 0.91435 0.4919 0.0
O705 O 0.38042 0.84609 0.53888 0.0
C706 C 0.3652 0.94681 0.50673 0.0
O707 O 0.36793 0.79712 0.48747 0.0
O708 O 0.24765 0.81757 0.51891 0.0
C709 C 0.3947 0.81686 0.51937 0.0
O710 O 0.2688 0.80312 0.58217 0.0
O711 O 0.32649 0.9024 0.62548 0.0
O712 O 0.38791 0.95081 0.61001 0.0
C713 C 0.47461 0.90328 0.68239 0.0
C714 C 0.424 0.90445 0.79632 0.0
C715 C 0.60928 0.96404 0.84889 0.0
Mg716 Mg 0.4569 0.83743 0.73832 0.0
O717 O 0.50391 0.87077 0.77448 0.0
Mg718 Mg 0.52701 0.93579 0.77482 0.0
Mg719 Mg 0.54683 0.85963 0.8124 0.0
O720 O 0.59166 0.8513 0.85248 0.0
Mg721 Mg 0.65294 0.8836 0.85589 0.0
Mg722 Mg 0.57125 0.78761 0.85511 0.0
C723 C 0.47199 0.76042 0.7855 0.0
C724 C 0.49759 0.82166 0.89197 0.0
O725 O 0.48579 0.93296 0.71345 0.0
O726 O 0.48413 0.867 0.68495 0.0
O727 O 0.46447 0.9261 0.8102 0.0
O728 O 0.41511 0.87153 0.76848 0.0
O729 O 0.44973 0.7721 0.75559 0.0
O730 O 0.51413 0.78204 0.79749 0.0
C731 C 0.59091 0.89321 0.72403 0.0
O732 O 0.58691 0.86478 0.75114 0.0
O733 O 0.58105 0.92914 0.73277 0.0
O734 O 0.62261 0.80549 0.91617 0.0
O735 O 0.66188 0.87694 0.92041 0.0
O736 O 0.62413 0.78814 0.81193 0.0
C737 C 0.64774 0.84118 0.93694 0.0
O738 O 0.68892 0.83653 0.83476 0.0
O739 O 0.64496 0.95022 0.8482 0.0
C740 C 0.66538 0.79689 0.82506 0.0
O741 O 0.57067 0.93699 0.83642 0.0
O742 O 0.50311 0.84914 0.86447 0.0
O743 O 0.52074 0.7947 0.89629 0.0
C744 C 0.9418 0.31512 0.53219 0.0
C745 C 0.06177 0.35984 0.48843 0.0
C746 C 0.13071 0.2406 0.52581 0.0
Mg747 Mg 0.03756 0.36966 0.58119 0.0
O748 O 0.04682 0.31496 0.58263 0.0
Mg749 Mg 0.03048 0.27024 0.53122 0.0
Mg750 Mg 0.10891 0.31131 0.60368 0.0
O751 O 0.16909 0.30873 0.62361 0.0
Mg752 Mg 0.19561 0.26569 0.60814 0.0
Mg753 Mg 0.17617 0.33802 0.6831 0.0
C754 C 0.0901 0.37816 0.67811 0.0
C755 C 0.18775 0.40096 0.60899 0.0
O756 O 0.95684 0.2823 0.52058 0.0
O757 O 0.96602 0.348 0.5572 0.0
O758 O 0.04883 0.31842 0.48616 0.0
O759 O 0.06712 0.38528 0.5228 0.0
O760 O 0.06657 0.39296 0.6504 0.0
O761 O 0.10482 0.3451 0.66789 0.0
C762 C 0.03456 0.22915 0.61889 0.0
O763 O 0.07393 0.2531 0.62965 0.0
O764 O 0.01302 0.22861 0.58328 0.0
O765 O 0.25025 0.33399 0.69658 0.0
O766 O 0.26009 0.30991 0.63316 0.0
O767 O 0.16112 0.26665 0.70614 0.0
C768 C 0.27046 0.3131 0.67271 0.0
O769 O 0.16162 0.2216 0.64829 0.0
O770 O 0.16887 0.24069 0.54396 0.0
C771 C 0.15795 0.22832 0.68728 0.0
O772 O 0.10713 0.26551 0.54123 0.0
O773 O 0.15336 0.37647 0.5851 0.0
O774 O 0.1911 0.40013 0.64917 0.0
C775 C 0.18819 0.67626 0.74675 0.0
C776 C 0.30814 0.74866 0.77359 0.0
C777 C 0.37078 0.59076 0.76402 0.0
Mg778 Mg 0.25511 0.70024 0.82057 0.0
O779 O 0.29474 0.67384 0.78863 0.0
Mg780 Mg 0.27093 0.62743 0.7418 0.0
Mg781 Mg 0.33999 0.6575 0.82509 0.0
O782 O 0.39118 0.64562 0.86261 0.0
Mg783 Mg 0.40876 0.59558 0.86837 0.0
Mg784 Mg 0.41513 0.70073 0.90299 0.0
C785 C 0.31166 0.71288 0.89847 0.0
C786 C 0.44257 0.72919 0.81146 0.0
O787 O 0.2127 0.66205 0.72108 0.0
O788 O 0.19116 0.66737 0.78442 0.0
O789 O 0.2953 0.70666 0.76237 0.0
O790 O 0.29482 0.76221 0.80722 0.0
O791 O 0.27037 0.70032 0.88471 0.0
O792 O 0.34326 0.70828 0.87639 0.0
C793 C 0.23034 0.60691 0.83738 0.0
O794 O 0.27057 0.61791 0.85695 0.0
O795 O 0.22658 0.60543 0.79717 0.0
O796 O 0.48312 0.68632 0.92678 0.0
O797 O 0.47886 0.61942 0.89682 0.0
O798 O 0.38557 0.66202 0.95249 0.0
C799 C 0.49998 0.65379 0.92146 0.0
O800 O 0.37653 0.59113 0.92694 0.0
O801 O 0.39537 0.58372 0.79607 0.0
C802 C 0.37493 0.6211 0.95595 0.0
O803 O 0.33659 0.60586 0.77007 0.0
O804 O 0.40362 0.70443 0.7955 0.0
O805 O 0.45204 0.7345 0.85091 0.0
C806 C 0.84117 0.11482 0.46197 0.0
C807 C 0.76869 0.13944 0.3851 0.0
C808 C 0.74566 0.97335 0.30418 0.0
Mg809 Mg 0.86521 0.13385 0.37341 0.0
O810 O 0.84503 0.07361 0.37048 0.0
Mg811 Mg 0.78436 0.04302 0.38942 0.0
Mg812 Mg 0.84801 0.04011 0.31693 0.0
O813 O 0.84824 0.01155 0.26211 0.0
Mg814 Mg 0.81489 0.95489 0.24908 0.0
Mg815 Mg 0.91392 0.0283 0.25633 0.0
C816 C 0.94636 0.10423 0.33132 0.0
C817 C 0.88045 0.10261 0.22933 0.0
O818 O 0.80702 0.08239 0.45022 0.0
O819 O 0.86928 0.1348 0.43793 0.0
O820 O 0.75467 0.09802 0.37535 0.0
O821 O 0.80794 0.16174 0.37761 0.0
O822 O 0.93174 0.13496 0.34937 0.0
O823 O 0.9212 0.06581 0.32084 0.0
C824 C 0.84331 0.97321 0.40438 0.0
O825 O 0.8578 0.98369 0.36805 0.0
O826 O 0.81357 -0.01 0.41788 0.0
O827 O 0.8903 -0.01032 0.18793 0.0
O828 O 0.81615 0.95694 0.18459 0.0
O829 O 0.91553 0.96961 0.28371 0.0
C830 C 0.85224 0.96846 0.16714 0.0
O831 O 0.85301 0.91545 0.27831 0.0
O832 O 0.75283 0.95167 0.2718 0.0
C833 C 0.89438 0.93171 0.29113 0.0
O834 O 0.77266 0.0099 0.31965 0.0
O835 O 0.84835 0.09035 0.25474 0.0
O836 O 0.91532 0.08987 0.23393 0.0
C837 C 0.3539 0.62451 0.5053 0.0
C838 C 0.3555 0.69814 0.60694 0.0
C839 C 0.51438 0.70006 0.64771 0.0
Mg840 Mg 0.34776 0.60014 0.59525 0.0
O841 O 0.4069 0.60981 0.58396 0.0
Mg842 Mg 0.43946 0.67016 0.5697 0.0
Mg843 Mg 0.44598 0.60421 0.6332 0.0
O844 O 0.48316 0.60022 0.68101 0.0
Mg845 Mg 0.53203 0.6395 0.71076 0.0
Mg846 Mg 0.45966 0.53678 0.68924 0.0
C847 C 0.37527 0.51651 0.62754 0.0
C848 C 0.38567 0.57991 0.72126 0.0
O849 O 0.39158 0.6532 0.51492 0.0
O850 O 0.3321 0.59908 0.53033 0.0
O851 O 0.39372 0.7048 0.59386 0.0
O852 O 0.33334 0.66063 0.61639 0.0
O853 O 0.34607 0.53882 0.62405 0.0
O854 O 0.41713 0.53364 0.62794 0.0
C855 C 0.50583 0.61196 0.54253 0.0
O856 O 0.49897 0.59654 0.57878 0.0
O857 O 0.48695 0.64077 0.53233 0.0
O858 O 0.50038 0.54736 0.75274 0.0
O859 O 0.49583 0.61484 0.76205 0.0
O860 O 0.52318 0.53684 0.65911 0.0
C861 C 0.51488 0.58596 0.77154 0.0
O862 O 0.57127 0.60378 0.67859 0.0
O863 O 0.53713 0.69761 0.68163 0.0
C864 C 0.56182 0.565 0.66014 0.0
O865 O 0.47604 0.67482 0.63573 0.0
O866 O 0.3957 0.60753 0.69267 0.0
O867 O 0.40192 0.54721 0.72132 0.0
C868 C 0.68818 0.17629 0.74678 0.0
C869 C 0.80809 0.24877 0.77373 0.0
C870 C 0.87075 0.09077 0.76399 0.0
Mg871 Mg 0.75508 0.20029 0.82064 0.0
O872 O 0.79469 0.17391 0.78867 0.0
Mg873 Mg 0.7709 0.1275 0.74186 0.0
Mg874 Mg 0.83996 0.15753 0.82507 0.0
O875 O 0.89116 0.14562 0.86256 0.0
Mg876 Mg 0.9087 0.09556 0.86834 0.0
Mg877 Mg 0.9151 0.20072 0.90297 0.0
C878 C 0.81165 0.21284 0.89851 0.0
C879 C 0.94254 0.22922 0.81145 0.0
O880 O 0.71267 0.16207 0.72109 0.0
O881 O 0.69117 0.1674 0.78445 0.0
O882 O 0.79531 0.20681 0.76231 0.0
O883 O 0.79474 0.26222 0.8074 0.0
O884 O 0.77035 0.20023 0.88478 0.0
O885 O 0.84324 0.20828 0.87639 0.0
C886 C 0.7303 0.10688 0.83734 0.0
O887 O 0.77054 0.11791 0.8569 0.0
O888 O 0.72653 0.10539 0.79713 0.0
O889 O 0.98308 0.1863 0.92676 0.0
O890 O 0.9788 0.11938 0.8968 0.0
O891 O 0.88554 0.16201 0.95247 0.0
C892 C -0.0001 0.15374 0.92146 0.0
O893 O 0.87648 0.09112 0.92692 0.0
O894 O 0.89531 0.08371 0.79605 0.0
C895 C 0.87489 0.12109 0.95593 0.0
O896 O 0.83658 0.10591 0.77004 0.0
O897 O 0.90359 0.20448 0.79549 0.0
O898 O 0.95202 0.2345 0.8509 0.0
C899 C 0.85388 0.62454 0.00532 0.0
C900 C 0.85552 0.69815 0.10696 0.0
C901 C 0.01436 0.70005 0.14773 0.0
Mg902 Mg 0.84774 0.60014 0.09526 0.0
O903 O 0.90688 0.60979 0.08396 0.0
Mg904 Mg 0.93945 0.67014 0.0697 0.0
Mg905 Mg 0.94597 0.60417 0.1332 0.0
O906 O 0.98316 0.60018 0.181 0.0
Mg907 Mg 0.03203 0.63946 0.21075 0.0
Mg908 Mg 0.95968 0.53675 0.18922 0.0
C909 C 0.87523 0.51653 0.12765 0.0
C910 C 0.8857 0.57989 0.22128 0.0
O911 O 0.89157 0.6532 0.01493 0.0
O912 O 0.83209 0.59908 0.03034 0.0
O913 O 0.89374 0.7048 0.09388 0.0
O914 O 0.83335 0.66064 0.1164 0.0
O915 O 0.84602 0.53882 0.12407 0.0
O916 O 0.91709 0.5336 0.12795 0.0
C917 C 0.00582 0.61194 0.04253 0.0
O918 O -0.00105 0.5965 0.07877 0.0
O919 O -0.01306 0.64075 0.03232 0.0
O920 O 0.00045 0.54734 0.25269 0.0
O921 O -0.00411 0.61486 0.26209 0.0
O922 O 0.02318 0.53682 0.15904 0.0
C923 C 0.01485 0.58591 0.27157 0.0
O924 O 0.07127 0.60374 0.17859 0.0
O925 O 0.03713 0.69758 0.18163 0.0
C926 C 0.06182 0.56499 0.16009 0.0
O927 O 0.97604 0.67478 0.13573 0.0
O928 O 0.8957 0.60749 0.19268 0.0
O929 O 0.90197 0.5472 0.22135 0.0
C930 C 0.5627 0.71678 0.35008 0.0
C931 C 0.49294 0.60606 0.34182 0.0
C932 C 0.54424 0.60521 0.51764 0.0
Mg933 Mg 0.58859 0.62885 0.33993 0.0
O934 O 0.59084 0.64259 0.39892 0.0
Mg935 Mg 0.53506 0.65075 0.42648 0.0
Mg936 Mg 0.61117 0.6042 0.43449 0.0
O937 O 0.63294 0.56794 0.47295 0.0
Mg938 Mg 0.64415 0.60393 0.52436 0.0
Mg939 Mg 0.69335 0.56615 0.44688 0.0
C940 C 0.68625 0.60762 0.35798 0.0
C941 C 0.61563 0.50542 0.37958 0.0
O942 O 0.53742 0.70455 0.37952 0.0
O943 O 0.58732 0.69428 0.3339 0.0
O944 O 0.50164 0.59695 0.37855 0.0
O945 O 0.51881 0.60043 0.31399 0.0
O946 O 0.65296 0.60946 0.33208 0.0
O947 O 0.68238 0.61287 0.39821 0.0
C948 C 0.61114 0.70577 0.49045 0.0
O949 O 0.63 0.67479 0.48072 0.0
O950 O 0.57268 0.70444 0.47352 0.0
O951 O 0.68774 0.5221 0.50078 0.0
O952 O 0.66009 0.55401 0.55471 0.0
O953 O 0.74462 0.61893 0.48798 0.0
C954 C 0.67209 0.52228 0.53703 0.0
O955 O 0.69528 0.65259 0.50107 0.0
O956 O 0.58048 0.60972 0.54082 0.0
C957 C 0.73115 0.6444 0.51231 0.0
O958 O 0.54427 0.60024 0.47616 0.0
O959 O 0.58993 0.53211 0.38395 0.0
O960 O 0.65226 0.51325 0.40262 0.0
C961 C 0.59554 0.54282 0.9306 0.0
C962 C 0.54952 0.66296 0.92624 0.0
C963 C 0.56288 0.60331 0.7756 0.0
Mg964 Mg 0.64115 0.6384 0.94532 0.0
O965 O 0.62655 0.63158 0.88587 0.0
Mg966 Mg 0.56507 0.59847 0.86087 0.0
Mg967 Mg 0.65062 0.65173 0.83373 0.0
O968 O 0.67699 0.66832 0.78161 0.0
Mg969 Mg 0.65557 0.61522 0.74165 0.0
Mg970 Mg 0.74288 0.69799 0.80678 0.0
C971 C 0.73424 0.66086 0.89665 0.0
C972 C 0.68248 0.75951 0.83268 0.0
O973 O 0.56216 0.55691 0.91756 0.0
O974 O 0.63009 0.56966 0.95057 0.0
O975 O 0.56434 0.66323 0.8912 0.0
O976 O 0.57264 0.65245 0.95682 0.0
O977 O 0.71378 0.65039 0.92974 0.0
O978 O 0.71642 0.67623 0.86711 0.0
C979 C 0.6144 0.54198 0.81007 0.0
O980 O 0.64792 0.57692 0.81624 0.0
O981 O 0.57775 0.54053 0.82566 0.0
O982 O 0.69207 0.7002 0.74439 0.0
O983 O 0.65238 0.65381 0.69219 0.0
O984 O 0.75394 0.62903 0.79638 0.0
C985 C 0.66453 0.69251 0.71052 0.0
O986 O 0.70666 0.58088 0.7532 0.0
O987 O 0.58641 0.58775 0.75117 0.0
C988 C 0.74481 0.60842 0.76035 0.0
O989 O 0.58022 0.63364 0.80416 0.0
O990 O 0.65343 0.7248 0.84167 0.0
O991 O 0.72164 0.75961 0.8223 0.0
C992 C 0.27396 0.77119 0.18608 0.0
C993 C 0.25737 0.63587 0.2276 0.0
C994 C 0.37522 0.61236 0.18364 0.0
Mg995 Mg 0.22997 0.67205 0.14825 0.0
O996 O 0.28883 0.67658 0.14482 0.0
Mg997 Mg 0.33862 0.70654 0.18964 0.0
Mg998 Mg 0.31046 0.62976 0.11544 0.0
O999 O 0.3342 0.58326 0.08384 0.0
Mg1000 Mg 0.39205 0.57904 0.08441 0.0
Mg1001 Mg 0.28392 0.55014 0.04174 0.0
C1002 C 0.23586 0.63779 0.05575 0.0
C1003 C 0.25518 0.52111 0.13085 0.0
O1004 O 0.31107 0.76694 0.20242 0.0
O1005 O 0.24432 0.73904 0.16686 0.0
O1006 O 0.29522 0.66531 0.23334 0.0
O1007 O 0.22954 0.62997 0.19502 0.0
O1008 O 0.21812 0.65951 0.08136 0.0
O1009 O 0.25439 0.60902 0.06756 0.0
C1010 C 0.35822 0.74258 0.09888 0.0
O1011 O 0.33893 0.70249 0.08167 0.0
O1012 O 0.37237 0.74765 0.13801 0.0
O1013 O 0.31847 0.49536 0.01934 0.0
O1014 O 0.38732 0.51309 0.05365 0.0
O1015 O 0.32053 0.58801 -0.00402 0.0
C1016 C 0.35672 0.48764 0.02699 0.0
O1017 O 0.39255 0.61192 0.02634 0.0
O1018 O 0.38982 0.58822 0.15632 0.0
C1019 C 0.3618 0.60798 -0.00432 0.0
O1020 O 0.36349 0.64531 0.17099 0.0
O1021 O 0.27159 0.56226 0.14586 0.0
O1022 O 0.25615 0.50928 0.09247 0.0
C1023 C 0.4418 0.81511 0.53216 0.0
C1024 C 0.56174 0.85986 0.48842 0.0
C1025 C 0.63073 0.74061 0.5258 0.0
Mg1026 Mg 0.53756 0.86965 0.58117 0.0
O1027 O 0.54684 0.81496 0.58261 0.0
Mg1028 Mg 0.5305 0.77024 0.5312 0.0
Mg1029 Mg 0.60893 0.81132 0.60365 0.0
O1030 O 0.66913 0.80877 0.62357 0.0
Mg1031 Mg 0.69562 0.76568 0.60813 0.0
Mg1032 Mg 0.67622 0.83809 0.68306 0.0
C1033 C 0.59011 0.87816 0.67809 0.0
C1034 C 0.68769 0.90105 0.60895 0.0
O1035 O 0.45685 0.78229 0.52056 0.0
O1036 O 0.46602 0.84798 0.55718 0.0
O1037 O 0.54883 0.81843 0.48615 0.0
O1038 O 0.56711 0.88529 0.52279 0.0
O1039 O 0.56656 0.89296 0.65039 0.0
O1040 O 0.60485 0.84512 0.66786 0.0
C1041 C 0.5346 0.72915 0.61887 0.0
O1042 O 0.57397 0.7531 0.62963 0.0
O1043 O 0.51305 0.72861 0.58326 0.0
O1044 O 0.75033 0.83412 0.69654 0.0
O1045 O 0.76007 0.80993 0.63319 0.0
O1046 O 0.66119 0.76672 0.70614 0.0
C1047 C 0.77044 0.81307 0.67272 0.0
O1048 O 0.66157 0.72163 0.64829 0.0
O1049 O 0.66888 0.7407 0.54396 0.0
C1050 C 0.65795 0.72837 0.68729 0.0
O1051 O 0.60715 0.76553 0.54121 0.0
O1052 O 0.65335 0.87649 0.58505 0.0
O1053 O 0.69113 0.9002 0.64912 0.0
C1054 C 0.59994 0.49897 0.91407 0.0
C1055 C 0.57797 0.37762 0.95127 0.0
C1056 C 0.72997 0.34627 0.9037 0.0
Mg1057 Mg 0.56341 0.40733 0.86128 0.0
O1058 O 0.62305 0.40481 0.86326 0.0
Mg1059 Mg 0.66871 0.42776 0.913 0.0
Mg1060 Mg 0.64225 0.35358 0.83722 0.0
O1061 O 0.66017 0.30203 0.81022 0.0
Mg1062 Mg 0.72068 0.31099 0.80642 0.0
Mg1063 Mg 0.61997 0.29082 0.75443 0.0
C1064 C 0.57152 0.37022 0.76339 0.0
C1065 C 0.56671 0.25876 0.83328 0.0
O1066 O 0.63612 0.48794 0.92513 0.0
O1067 O 0.56903 0.47447 0.88726 0.0
O1068 O 0.62011 0.39466 0.9537 0.0
O1069 O 0.55088 0.37342 0.91779 0.0
O1070 O 0.55277 0.39115 0.78984 0.0
O1071 O 0.59929 0.35039 0.77685 0.0
C1072 C 0.71366 0.44841 0.82956 0.0
O1073 O 0.69261 0.40929 0.81456 0.0
O1074 O 0.71249 0.4631 0.86741 0.0
O1075 O 0.64504 0.22775 0.7379 0.0
O1076 O 0.71509 0.2497 0.76923 0.0
O1077 O 0.67502 0.33097 0.72014 0.0
C1078 C 0.68391 0.22134 0.74592 0.0
O1079 O 0.73249 0.36281 0.7678 0.0
O1080 O 0.74426 0.32506 0.87435 0.0
C1081 C 0.71363 0.35782 0.73046 0.0
O1082 O 0.69528 0.36182 0.89589 0.0
O1083 O 0.58856 0.29376 0.85713 0.0
O1084 O 0.56801 0.25513 0.79338 0.0
C1085 C 0.97459 0.90331 0.18242 0.0
C1086 C 0.92401 0.90443 0.29643 0.0
C1087 C 0.10927 0.96403 0.3489 0.0
Mg1088 Mg 0.95687 0.83744 0.23836 0.0
O1089 O 0.0039 0.87078 0.27451 0.0
Mg1090 Mg 0.02699 0.9358 0.27486 0.0
Mg1091 Mg 0.04682 0.85963 0.31242 0.0
O1092 O 0.09164 0.85129 0.3525 0.0
Mg1093 Mg 0.15293 0.88358 0.35589 0.0
Mg1094 Mg 0.07123 0.7876 0.35513 0.0
C1095 C 0.97198 0.76042 0.28551 0.0
C1096 C -0.00242 0.82166 0.39199 0.0
O1097 O -0.01423 0.93297 0.2135 0.0
O1098 O 0.98409 0.86701 0.18498 0.0
O1099 O 0.96447 0.92616 0.31027 0.0
O1100 O 0.9151 0.87153 0.26855 0.0
O1101 O 0.94971 0.77211 0.25561 0.0
O1102 O 0.01412 0.78204 0.29751 0.0
C1103 C 0.0909 0.89322 0.22407 0.0
O1104 O 0.0869 0.86478 0.25117 0.0
O1105 O 0.08101 0.92914 0.23278 0.0
O1106 O 0.1226 0.80548 0.41618 0.0
O1107 O 0.16189 0.87693 0.42041 0.0
O1108 O 0.12409 0.78812 0.31193 0.0
C1109 C 0.14779 0.84116 0.43692 0.0
O1110 O 0.1889 0.8365 0.33476 0.0
O1111 O 0.14495 0.95021 0.3482 0.0
C1112 C 0.16535 0.79687 0.32506 0.0
O1113 O 0.07066 0.93698 0.33644 0.0
O1114 O 0.00309 0.84914 0.36449 0.0
O1115 O 0.02073 0.79469 0.39631 0.0
C1116 C 0.2309 0.40514 0.59199 0.0
C1117 C 0.36032 0.4733 0.6069 0.0
C1118 C 0.35621 0.43663 0.42809 0.0
Mg1119 Mg 0.32162 0.37635 0.60098 0.0
O1120 O 0.31392 0.37907 0.54238 0.0
Mg1121 Mg 0.29908 0.43194 0.51642 0.0
Mg1122 Mg 0.36065 0.36703 0.50907 0.0
O1123 O 0.40263 0.35165 0.47423 0.0
Mg1124 Mg 0.37282 0.34375 0.41998 0.0
Mg1125 Mg 0.40665 0.29301 0.4979 0.0
C1126 C 0.3507 0.2853 0.58136 0.0
C1127 C 0.46736 0.36911 0.56419 0.0
O1128 O 0.23971 0.42371 0.55836 0.0
O1129 O 0.25678 0.38556 0.61059 0.0
O1130 O 0.34107 0.47151 0.57035 0.0
O1131 O 0.36278 0.43981 0.62547 0.0
O1132 O 0.34057 0.31258 0.60838 0.0
O1133 O 0.35439 0.29621 0.54302 0.0
C1134 C 0.25932 0.35973 0.44438 0.0
O1135 O 0.29311 0.34395 0.45489 0.0
O1136 O 0.25328 0.39233 0.4656 0.0
O1137 O 0.45685 0.29925 0.44878 0.0
O1138 O 0.42827 0.33144 0.39665 0.0
O1139 O 0.35653 0.24983 0.45385 0.0
C1140 C 0.45882 0.31682 0.41396 0.0
O1141 O 0.3197 0.28502 0.41407 0.0
O1142 O 0.36179 0.40523 0.40372 0.0
C1143 C 0.32462 0.25006 0.42774 0.0
O1144 O 0.35794 0.43337 0.46946 0.0
O1145 O 0.43911 0.39367 0.55931 0.0
O1146 O 0.45687 0.33148 0.54433 0.0
C1147 C 0.31164 0.27618 0.24132 0.0
C1148 C 0.24453 0.36175 0.19854 0.0
C1149 C 0.23778 0.30531 0.05534 0.0
Mg1150 Mg 0.34139 0.35981 0.2033 0.0
O1151 O 0.33075 0.31683 0.15893 0.0
Mg1152 Mg 0.26786 0.27931 0.14607 0.0
Mg1153 Mg 0.34192 0.33848 0.10562 0.0
O1154 O 0.35322 0.36453 0.05172 0.0
Mg1155 Mg 0.31781 0.34106 -0.00384 0.0
Mg1156 Mg 0.41964 0.4083 0.07174 0.0
C1157 C 0.42964 0.39787 0.16442 0.0
C1158 C 0.35258 0.44145 0.12865 0.0
O1159 O 0.28182 0.26227 0.21008 0.0
O1160 O 0.33983 0.31379 0.24649 0.0
O1161 O 0.23499 0.32856 0.17164 0.0
O1162 O 0.28476 0.38181 0.21121 0.0
O1163 O 0.40314 0.40317 0.19178 0.0
O1164 O 0.41615 0.37256 0.13048 0.0
C1165 C 0.3362 0.23483 0.10808 0.0
O1166 O 0.35678 0.27106 0.09392 0.0
O1167 O 0.29953 0.22969 0.12451 0.0
O1168 O 0.40437 0.44114 0.01421 0.0
O1169 O 0.33116 0.41432 -0.00807 0.0
O1170 O 0.38043 0.3461 0.03893 0.0
C1171 C 0.36518 0.4468 0.00674 0.0
O1172 O 0.36793 0.29711 -0.01248 0.0
O1173 O 0.24767 0.31754 0.01899 0.0
C1174 C 0.39473 0.31688 0.01939 0.0
O1175 O 0.26883 0.30309 0.08226 0.0
O1176 O 0.32654 0.40244 0.12556 0.0
O1177 O 0.38793 0.45084 0.11 0.0
C1178 C 0.18817 0.17628 0.24683 0.0
C1179 C 0.30797 0.24894 0.27395 0.0
C1180 C 0.37073 0.09084 0.26396 0.0
Mg1181 Mg 0.25503 0.20038 0.32081 0.0
O1182 O 0.29465 0.17405 0.28871 0.0
Mg1183 Mg 0.27091 0.12763 0.24186 0.0
Mg1184 Mg 0.33994 0.15759 0.32505 0.0
O1185 O 0.39113 0.14562 0.36253 0.0
Mg1186 Mg 0.4087 0.09558 0.3683 0.0
Mg1187 Mg 0.4151 0.2007 0.40297 0.0
C1188 C 0.31167 0.21277 0.39858 0.0
C1189 C 0.44256 0.22923 0.31145 0.0
O1190 O 0.21261 0.16205 0.22111 0.0
O1191 O 0.1912 0.1674 0.2845 0.0
O1192 O 0.2952 0.20695 0.26261 0.0
O1193 O 0.29467 0.26241 0.30764 0.0
O1194 O 0.27036 0.20007 0.38491 0.0
O1195 O 0.34324 0.20828 0.37641 0.0
C1196 C 0.23027 0.10683 0.33728 0.0
O1197 O 0.27051 0.11792 0.35683 0.0
O1198 O 0.22648 0.10531 0.29707 0.0
O1199 O 0.48308 0.18628 0.42676 0.0
O1200 O 0.47881 0.11938 0.39675 0.0
O1201 O 0.38553 0.16199 0.45245 0.0
C1202 C 0.4999 0.15373 0.42143 0.0
O1203 O 0.3765 0.09111 0.42689 0.0
O1204 O 0.39528 0.08377 0.29601 0.0
C1205 C 0.3749 0.12106 0.45591 0.0
O1206 O 0.33658 0.10602 0.27 0.0
O1207 O 0.40358 0.20453 0.29549 0.0
O1208 O 0.45205 0.23448 0.35089 0.0
C1209 C 0.85387 0.12455 0.5053 0.0
C1210 C 0.85552 0.19814 0.60698 0.0
C1211 C 0.01433 0.20005 0.64773 0.0
Mg1212 Mg 0.84773 0.10014 0.59524 0.0
O1213 O 0.90687 0.10978 0.58393 0.0
Mg1214 Mg 0.93944 0.17014 0.56968 0.0
Mg1215 Mg 0.94595 0.10417 0.63318 0.0
O1216 O 0.98314 0.10018 0.68098 0.0
Mg1217 Mg 0.032 0.13946 0.71074 0.0
Mg1218 Mg 0.95965 0.03675 0.68921 0.0
C1219 C 0.87522 0.01653 0.62763 0.0
C1220 C 0.88566 0.07991 0.72124 0.0
O1221 O 0.89157 0.15321 0.51491 0.0
O1222 O 0.83207 0.0991 0.53032 0.0
O1223 O 0.89373 0.20479 0.59387 0.0
O1224 O 0.83335 0.16063 0.61643 0.0
O1225 O 0.84601 0.03881 0.62405 0.0
O1226 O 0.91708 0.0336 0.62793 0.0
C1227 C 0.00582 0.11194 0.54251 0.0
O1228 O -0.00106 0.0965 0.57875 0.0
O1229 O -0.01307 0.14075 0.5323 0.0
O1230 O 0.00042 0.04734 0.75268 0.0
O1231 O -0.00414 0.11486 0.76208 0.0
O1232 O 0.02315 0.03681 0.65904 0.0
C1233 C 0.01482 0.08591 0.77156 0.0
O1234 O 0.07124 0.10374 0.67858 0.0
O1235 O 0.0371 0.19757 0.68162 0.0
C1236 C 0.06179 0.06498 0.66009 0.0
O1237 O 0.97603 0.17478 0.63571 0.0
O1238 O 0.89567 0.10751 0.69264 0.0
O1239 O 0.90194 0.04722 0.72134 0.0
C1240 C 0.77395 0.27117 0.18609 0.0
C1241 C 0.75735 0.13584 0.22759 0.0
C1242 C 0.87525 0.11238 0.18364 0.0
Mg1243 Mg 0.72996 0.17204 0.14825 0.0
O1244 O 0.78883 0.17657 0.14482 0.0
Mg1245 Mg 0.83861 0.20653 0.18965 0.0
Mg1246 Mg 0.81047 0.12977 0.11545 0.0
O1247 O 0.83421 0.08326 0.08385 0.0
Mg1248 Mg 0.89207 0.07906 0.0844 0.0
Mg1249 Mg 0.78392 0.05014 0.04175 0.0
C1250 C 0.73586 0.13778 0.05575 0.0
C1251 C 0.75519 0.02111 0.13087 0.0
O1252 O 0.81105 0.26692 0.20244 0.0
O1253 O 0.74431 0.23902 0.16686 0.0
O1254 O 0.7952 0.16528 0.23334 0.0
O1255 O 0.72952 0.12995 0.19501 0.0
O1256 O 0.71813 0.15951 0.08135 0.0
O1257 O 0.75439 0.10902 0.06756 0.0
C1258 C 0.85821 0.24259 0.09889 0.0
O1259 O 0.83893 0.2025 0.08168 0.0
O1260 O 0.87235 0.24765 0.13803 0.0
O1261 O 0.81848 -0.00463 0.01936 0.0
O1262 O 0.88734 0.01311 0.05364 0.0
O1263 O 0.82052 0.088 -0.00402 0.0
C1264 C 0.85673 0.98767 0.02699 0.0
O1265 O 0.89254 0.11194 0.02632 0.0
O1266 O 0.88985 0.08825 0.15631 0.0
C1267 C 0.86178 0.10798 -0.00433 0.0
O1268 O 0.8635 0.14532 0.17099 0.0
O1269 O 0.7716 0.06227 0.14588 0.0
O1270 O 0.75616 0.00928 0.09249 0.0
C1271 C 0.34115 0.61484 0.46197 0.0
C1272 C 0.26869 0.63946 0.3851 0.0
C1273 C 0.24572 0.47329 0.30421 0.0
Mg1274 Mg 0.36521 0.63387 0.37343 0.0
O1275 O 0.34502 0.57363 0.37048 0.0
Mg1276 Mg 0.28435 0.54303 0.38942 0.0
Mg1277 Mg 0.34801 0.54014 0.31695 0.0
O1278 O 0.34829 0.5116 0.26215 0.0
Mg1279 Mg 0.31495 0.45496 0.24903 0.0
Mg1280 Mg 0.41398 0.52836 0.25639 0.0
C1281 C 0.44638 0.60429 0.33136 0.0
C1282 C 0.38046 0.60262 0.22934 0.0
O1283 O 0.30701 0.5824 0.45022 0.0
O1284 O 0.36927 0.63481 0.43794 0.0
O1285 O 0.25467 0.59804 0.37534 0.0
O1286 O 0.30795 0.66176 0.37763 0.0
O1287 O 0.43176 0.63502 0.34942 0.0
O1288 O 0.4212 0.56588 0.32087 0.0
C1289 C 0.34331 0.47323 0.40439 0.0
O1290 O 0.35782 0.48373 0.36806 0.0
O1291 O 0.31355 0.49 0.41789 0.0
O1292 O 0.39039 0.4897 0.18798 0.0
O1293 O 0.3162 0.45719 0.18455 0.0
O1294 O 0.41562 0.46969 0.28384 0.0
C1295 C 0.35233 0.46857 0.16715 0.0
O1296 O 0.35308 0.41548 0.27814 0.0
O1297 O 0.25291 0.45164 0.27181 0.0
C1298 C 0.39441 0.43176 0.29112 0.0
O1299 O 0.27266 0.50988 0.31964 0.0
O1300 O 0.34834 0.59036 0.25474 0.0
O1301 O 0.41534 0.5899 0.23394 0.0
C1302 C 0.6125 0.51171 0.77229 0.0
C1303 C 0.5985 0.54854 0.64774 0.0
C1304 C 0.51816 0.37924 0.58133 0.0
Mg1305 Mg 0.66172 0.51275 0.70104 0.0
O1306 O 0.61941 0.45928 0.68177 0.0
Mg1307 Mg 0.55558 0.45755 0.67436 0.0
Mg1308 Mg 0.62296 0.4226 0.63344 0.0
O1309 O 0.63185 0.38219 0.58527 0.0
Mg1310 Mg 0.59921 0.3268 0.55919 0.0
Mg1311 Mg 0.69778 0.40369 0.57584 0.0
C1312 C 0.7303 0.48762 0.65759 0.0
C1313 C 0.66574 0.48342 0.55815 0.0
O1314 O 0.5782 0.5023 0.74361 0.0
O1315 O 0.65034 0.50816 0.76342 0.0
O1316 O 0.58598 0.50909 0.63284 0.0
O1317 O 0.63506 0.56168 0.67187 0.0
O1318 O 0.72544 0.50444 0.69326 0.0
O1319 O 0.70569 0.4476 0.64365 0.0
C1320 C 0.5686 0.37902 0.7181 0.0
O1321 O 0.60124 0.3785 0.69398 0.0
O1322 O 0.5404 0.40072 0.71017 0.0
O1323 O 0.6821 0.36751 0.50632 0.0
O1324 O 0.60831 0.33287 0.49578 0.0
O1325 O 0.70271 0.3427 0.60109 0.0
C1326 C 0.64691 0.34544 0.48238 0.0
O1327 O 0.65657 0.29457 0.55405 0.0
O1328 O 0.53695 0.35102 0.56397 0.0
C1329 C 0.69609 0.3105 0.57325 0.0
O1330 O 0.54141 0.40678 0.61269 0.0
O1331 O 0.6396 0.47638 0.58754 0.0
O1332 O 0.68858 0.45813 0.54699 0.0
C1333 C 0.09991 -0.00107 0.91407 0.0
C1334 C 0.07797 0.87759 0.95127 0.0
C1335 C 0.22997 0.84627 0.90369 0.0
Mg1336 Mg 0.06339 0.90729 0.86128 0.0
O1337 O 0.12303 0.90478 0.86325 0.0
Mg1338 Mg 0.1687 0.92775 0.91299 0.0
Mg1339 Mg 0.14225 0.85356 0.83722 0.0
O1340 O 0.16017 0.80201 0.81022 0.0
Mg1341 Mg 0.22068 0.81097 0.8064 0.0
Mg1342 Mg 0.11997 0.79079 0.75443 0.0
C1343 C 0.07149 0.87018 0.7634 0.0
C1344 C 0.06671 0.75874 0.83328 0.0
O1345 O 0.13609 -0.01208 0.92512 0.0
O1346 O 0.069 0.97443 0.88726 0.0
O1347 O 0.1201 0.89463 0.9537 0.0
O1348 O 0.05087 0.87337 0.91779 0.0
O1349 O 0.05274 0.8911 0.78984 0.0
O1350 O 0.09929 0.85037 0.77685 0.0
C1351 C 0.21365 0.9484 0.82955 0.0
O1352 O 0.19259 0.90927 0.81455 0.0
O1353 O 0.21247 0.96309 0.8674 0.0
O1354 O 0.14503 0.72772 0.7379 0.0
O1355 O 0.2151 0.74968 0.76919 0.0
O1356 O 0.17501 0.83094 0.72012 0.0
C1357 C 0.18391 0.72131 0.7459 0.0
O1358 O 0.23247 0.8628 0.76779 0.0
O1359 O 0.24426 0.82505 0.87434 0.0
C1360 C 0.21362 0.85779 0.73045 0.0
O1361 O 0.19527 0.86181 0.89588 0.0
O1362 O 0.08856 0.79374 0.85714 0.0
O1363 O 0.068 0.7551 0.79339 0.0
C1364 C 0.61249 0.0117 0.27228 0.0
C1365 C 0.59853 0.04853 0.14774 0.0
C1366 C 0.51817 0.87926 0.08133 0.0
Mg1367 Mg 0.66173 0.01274 0.20105 0.0
O1368 O 0.61943 0.95928 0.18177 0.0
Mg1369 Mg 0.55559 0.95756 0.17435 0.0
Mg1370 Mg 0.62297 0.9226 0.13343 0.0
O1371 O 0.63186 0.88219 0.08526 0.0
Mg1372 Mg 0.59921 0.82682 0.05915 0.0
Mg1373 Mg 0.69779 0.9037 0.07582 0.0
C1374 C 0.73031 0.98761 0.15758 0.0
C1375 C 0.66575 0.98343 0.05813 0.0
O1376 O 0.57819 0.0023 0.2436 0.0
O1377 O 0.65033 0.00814 0.26342 0.0
O1378 O 0.58601 0.00909 0.13283 0.0
O1379 O 0.63508 0.06167 0.17187 0.0
O1380 O 0.72546 0.00444 0.19326 0.0
O1381 O 0.7057 0.94759 0.14364 0.0
C1382 C 0.56861 0.87902 0.21809 0.0
O1383 O 0.60124 0.8785 0.19397 0.0
O1384 O 0.5404 0.90072 0.21015 0.0
O1385 O 0.68211 0.86754 0.00629 0.0
O1386 O 0.60831 0.83293 -0.00425 0.0
O1387 O 0.70271 0.84269 0.10104 0.0
C1388 C 0.64691 0.84548 -0.01765 0.0
O1389 O 0.65657 0.79458 0.05399 0.0
O1390 O 0.53695 0.85104 0.06395 0.0
C1391 C 0.69609 0.8105 0.0732 0.0
O1392 O 0.54143 0.90679 0.11268 0.0
O1393 O 0.63962 0.97638 0.08753 0.0
O1394 O 0.6886 0.95814 0.04698 0.0
C1395 C 0.34115 0.11485 0.96197 0.0
C1396 C 0.26867 0.13945 0.88509 0.0
C1397 C 0.24566 0.97334 0.80419 0.0
Mg1398 Mg 0.36519 0.13386 0.87341 0.0
O1399 O 0.34501 0.07362 0.87048 0.0
Mg1400 Mg 0.28435 0.04302 0.88943 0.0
Mg1401 Mg 0.34799 0.04012 0.81695 0.0
O1402 O 0.34824 0.01155 0.76214 0.0
Mg1403 Mg 0.31489 0.9549 0.74906 0.0
Mg1404 Mg 0.41393 0.02831 0.75638 0.0
C1405 C 0.44635 0.10426 0.83133 0.0
C1406 C 0.38046 0.10259 0.72934 0.0
O1407 O 0.30702 0.0824 0.95023 0.0
O1408 O 0.36926 0.13482 0.93793 0.0
O1409 O 0.25465 0.09803 0.87538 0.0
O1410 O 0.30792 0.16174 0.8776 0.0
O1411 O 0.43173 0.13499 0.84937 0.0
O1412 O 0.42119 0.06584 0.82086 0.0
C1413 C 0.34331 0.97322 0.90439 0.0
O1414 O 0.3578 0.9837 0.86806 0.0
O1415 O 0.31356 -0.01 0.91789 0.0
O1416 O 0.39033 -0.01035 0.68798 0.0
O1417 O 0.31616 0.95701 0.68457 0.0
O1418 O 0.41553 0.96964 0.78382 0.0
C1419 C 0.35228 0.96848 0.66716 0.0
O1420 O 0.35301 0.91543 0.77822 0.0
O1421 O 0.25283 0.95166 0.7718 0.0
C1422 C 0.39434 0.93173 0.79116 0.0
O1423 O 0.27265 0.00989 0.81965 0.0
O1424 O 0.34834 0.09034 0.75475 0.0
O1425 O 0.41532 0.08985 0.73393 0.0
C1426 C 0.77395 0.77119 0.68609 0.0
C1427 C 0.75738 0.63586 0.7276 0.0
C1428 C 0.87525 0.61239 0.68365 0.0
Mg1429 Mg 0.72996 0.67205 0.64826 0.0
O1430 O 0.78883 0.67659 0.64482 0.0
Mg1431 Mg 0.83862 0.70655 0.68965 0.0
Mg1432 Mg 0.81047 0.62977 0.61545 0.0
O1433 O 0.8342 0.58326 0.58387 0.0
Mg1434 Mg 0.89206 0.57906 0.58442 0.0
Mg1435 Mg 0.78392 0.55014 0.54176 0.0
C1436 C 0.73586 0.63779 0.55576 0.0
C1437 C 0.75518 0.52112 0.63087 0.0
O1438 O 0.81106 0.76694 0.70243 0.0
O1439 O 0.74431 0.73903 0.66688 0.0
O1440 O 0.79522 0.6653 0.73334 0.0
O1441 O 0.72954 0.62996 0.69502 0.0
O1442 O 0.71812 0.65952 0.58137 0.0
O1443 O 0.75439 0.60902 0.56758 0.0
C1444 C 0.85821 0.74259 0.59889 0.0
O1445 O 0.83893 0.7025 0.58168 0.0
O1446 O 0.87236 0.74766 0.63802 0.0
O1447 O 0.81848 0.49537 0.51937 0.0
O1448 O 0.88734 0.51311 0.55367 0.0
O1449 O 0.82053 0.588 0.496 0.0
C1450 C 0.85674 0.48766 0.52701 0.0
O1451 O 0.89254 0.61194 0.52635 0.0
O1452 O 0.88985 0.58825 0.65633 0.0
C1453 C 0.86179 0.60798 0.4957 0.0
O1454 O 0.8635 0.64533 0.67099 0.0
O1455 O 0.7716 0.56228 0.64588 0.0
O1456 O 0.75615 0.50928 0.5925 0.0
C1457 C 0.09994 0.4989 0.41405 0.0
C1458 C 0.07797 0.37756 0.45124 0.0
C1459 C 0.22996 0.34621 0.40369 0.0
Mg1460 Mg 0.06341 0.40727 0.36126 0.0
O1461 O 0.12306 0.40476 0.36324 0.0
Mg1462 Mg 0.16871 0.4277 0.41298 0.0
Mg1463 Mg 0.14226 0.35354 0.3372 0.0
O1464 O 0.16018 0.30201 0.3102 0.0
Mg1465 Mg 0.22069 0.31097 0.30641 0.0
Mg1466 Mg 0.11998 0.29079 0.25441 0.0
C1467 C 0.07151 0.37016 0.26338 0.0
C1468 C 0.06671 0.25873 0.33324 0.0
O1469 O 0.13612 0.48788 0.42511 0.0
O1470 O 0.06903 0.4744 0.38724 0.0
O1471 O 0.1201 0.3946 0.45368 0.0
O1472 O 0.05088 0.37335 0.41777 0.0
O1473 O 0.05275 0.39108 0.28982 0.0
O1474 O 0.09931 0.35036 0.27683 0.0
C1475 C 0.21369 0.44836 0.32955 0.0
O1476 O 0.19264 0.40923 0.31454 0.0
O1477 O 0.2125 0.46304 0.3674 0.0
O1478 O 0.14504 0.22773 0.23789 0.0
O1479 O 0.21506 0.24968 0.26927 0.0
O1480 O 0.17502 0.33096 0.22013 0.0
C1481 C 0.1839 0.22132 0.24595 0.0
O1482 O 0.23257 0.36276 0.26774 0.0
O1483 O 0.24427 0.32501 0.37433 0.0
C1484 C 0.21365 0.3578 0.23043 0.0
O1485 O 0.19527 0.36176 0.39588 0.0
O1486 O 0.08855 0.29373 0.3571 0.0
O1487 O 0.06802 0.25509 0.29335 0.0
loop_
_geom_bond_atom_site_label_1
_geom_bond_atom_site_label_2
_geom_bond_distance
_geom_bond_site_symmetry_2
_ccdc_geom_bond_type
C0 O12 1.241 . S
C0 O13 1.280 . S
C1 O14 1.277 . S
C1 O15 1.245 . S
C2 O26 1.247 . S
C2 O28 1.289 . S
Mg3 O4 1.926 . S
Mg3 O13 1.984 . S
Mg3 O15 1.988 . S
Mg3 O16 2.061 . S
O4 Mg3 1.926 . S
O4 Mg5 1.986 . S
O4 Mg6 1.917 . S
Mg5 O4 1.986 . S
Mg5 O12 2.042 . S
Mg5 O14 2.041 . S
Mg5 O20 2.038 . S
Mg5 O28 2.238 . S
Mg6 O4 1.917 . S
Mg6 O7 1.917 . S
Mg6 O17 2.106 . S
Mg6 O19 2.079 . S
Mg6 O28 2.106 . S
Mg6 O29 2.079 . S
O7 Mg6 1.917 . S
O7 Mg8 1.926 . S
O7 Mg9 1.986 . S
Mg8 O7 1.926 . S
Mg8 O22 1.984 . S
Mg8 O25 1.988 . S
Mg8 O26 2.061 . S
Mg9 O7 1.986 . S
Mg9 O17 2.238 . S
Mg9 O21 2.042 . S
Mg9 O23 2.041 . S
Mg9 O30 2.038 . S
C10 O16 1.247 . S
C10 O17 1.289 . S
C11 O29 1.245 . S
C11 O30 1.274 . S
O12 C0 1.241 . S
O12 Mg5 2.042 . S
O13 C0 1.280 . S
O13 Mg3 1.984 . S
O14 C1 1.277 . S
O14 Mg5 2.041 . S
O15 C1 1.245 . S
O15 Mg3 1.988 . S
O16 Mg3 2.061 . S
O16 C10 1.247 . S
O17 Mg6 2.106 . S
O17 Mg9 2.238 . S
O17 C10 1.289 . S
C18 O19 1.245 . S
C18 O20 1.274 . S
O19 Mg6 2.079 . S
O19 C18 1.245 . S
O20 Mg5 2.038 . S
O20 C18 1.274 . S
O21 Mg9 2.042 . S
O21 C24 1.241 . S
O22 Mg8 1.984 . S
O22 C24 1.280 . S
O23 Mg9 2.041 . S
O23 C27 1.277 . S
C24 O21 1.241 . S
C24 O22 1.280 . S
O25 Mg8 1.988 . S
O25 C27 1.245 . S
O26 C2 1.247 . S
O26 Mg8 2.061 . S
C27 O23 1.277 . S
C27 O25 1.245 . S
O28 C2 1.289 . S
O28 Mg5 2.238 . S
O28 Mg6 2.106 . S
O29 Mg6 2.079 . S
O29 C11 1.245 . S
O30 Mg9 2.038 . S
O30 C11 1.274 . S
C31 O43 1.241 . S
C31 O44 1.280 . S
C32 O45 1.277 . S
C32 O46 1.245 . S
C33 O57 1.247 . S
C33 O59 1.289 . S
Mg34 O35 1.926 . S
Mg34 O44 1.984 . S
Mg34 O46 1.988 . S
Mg34 O47 2.061 . S
O35 Mg34 1.926 . S
O35 Mg36 1.986 . S
O35 Mg37 1.917 . S
Mg36 O35 1.986 . S
Mg36 O43 2.042 . S
Mg36 O45 2.041 . S
Mg36 O51 2.038 . S
Mg36 O59 2.238 . S
Mg37 O35 1.917 . S
Mg37 O38 1.917 . S
Mg37 O48 2.106 . S
Mg37 O50 2.079 . S
Mg37 O59 2.106 . S
Mg37 O60 2.079 . S
O38 Mg37 1.917 . S
O38 Mg39 1.926 . S
O38 Mg40 1.986 . S
Mg39 O38 1.926 . S
Mg39 O53 1.984 . S
Mg39 O56 1.988 . S
Mg39 O57 2.061 . S
Mg40 O38 1.986 . S
Mg40 O48 2.238 . S
Mg40 O52 2.042 . S
Mg40 O54 2.041 . S
Mg40 O61 2.038 . S
C41 O47 1.247 . S
C41 O48 1.289 . S
C42 O60 1.245 . S
C42 O61 1.274 . S
O43 C31 1.241 . S
O43 Mg36 2.042 . S
O44 C31 1.280 . S
O44 Mg34 1.984 . S
O45 C32 1.277 . S
O45 Mg36 2.041 . S
O46 C32 1.245 . S
O46 Mg34 1.988 . S
O47 Mg34 2.061 . S
O47 C41 1.247 . S
O48 Mg37 2.106 . S
O48 Mg40 2.238 . S
O48 C41 1.289 . S
C49 O50 1.245 . S
C49 O51 1.274 . S
O50 Mg37 2.079 . S
O50 C49 1.245 . S
O51 Mg36 2.038 . S
O51 C49 1.274 . S
O52 Mg40 2.042 . S
O52 C55 1.241 . S
O53 Mg39 1.984 . S
O53 C55 1.280 . S
O54 Mg40 2.041 . S
O54 C58 1.277 . S
C55 O52 1.241 . S
C55 O53 1.280 . S
O56 Mg39 1.988 . S
O56 C58 1.245 . S
O57 C33 1.247 . S
O57 Mg39 2.061 . S
C58 O54 1.277 . S
C58 O56 1.245 . S
O59 C33 1.289 . S
O59 Mg36 2.238 . S
O59 Mg37 2.106 . S
O60 Mg37 2.079 . S
O60 C42 1.245 . S
O61 Mg40 2.038 . S
O61 C42 1.274 . S
C62 O74 1.241 . S
C62 O75 1.280 . S
C63 O76 1.277 . S
C63 O77 1.245 . S
C64 O88 1.247 . S
C64 O90 1.289 1_554 S
Mg65 O66 1.926 . S
Mg65 O75 1.984 . S
Mg65 O77 1.988 . S
Mg65 O78 2.061 . S
O66 Mg65 1.926 . S
O66 Mg67 1.986 . S
O66 Mg68 1.917 . S
Mg67 O66 1.986 . S
Mg67 O74 2.042 . S
Mg67 O76 2.041 . S
Mg67 O82 2.038 . S
Mg67 O90 2.238 . S
Mg68 O66 1.917 . S
Mg68 O69 1.917 1_556 S
Mg68 O79 2.106 . S
Mg68 O81 2.079 1_556 S
Mg68 O90 2.106 . S
Mg68 O91 2.079 . S
O69 Mg68 1.917 1_554 S
O69 Mg70 1.926 . S
O69 Mg71 1.986 1_554 S
Mg70 O69 1.926 . S
Mg70 O84 1.984 . S
Mg70 O87 1.988 . S
Mg70 O88 2.061 . S
Mg71 O69 1.986 1_556 S
Mg71 O79 2.238 . S
Mg71 O83 2.042 1_556 S
Mg71 O85 2.041 1_556 S
Mg71 O92 2.038 . S
C72 O78 1.247 . S
C72 O79 1.289 . S
C73 O91 1.245 . S
C73 O92 1.274 . S
O74 C62 1.241 . S
O74 Mg67 2.042 . S
O75 C62 1.280 . S
O75 Mg65 1.984 . S
O76 C63 1.277 . S
O76 Mg67 2.041 . S
O77 C63 1.245 . S
O77 Mg65 1.988 . S
O78 Mg65 2.061 . S
O78 C72 1.247 . S
O79 Mg68 2.106 . S
O79 Mg71 2.238 . S
O79 C72 1.289 . S
C80 O81 1.245 . S
C80 O82 1.274 1_554 S
O81 Mg68 2.079 1_554 S
O81 C80 1.245 . S
O82 Mg67 2.038 . S
O82 C80 1.274 1_556 S
O83 Mg71 2.042 1_554 S
O83 C86 1.241 . S
O84 Mg70 1.984 . S
O84 C86 1.280 . S
O85 Mg71 2.041 1_554 S
O85 C89 1.277 . S
C86 O83 1.241 . S
C86 O84 1.280 . S
O87 Mg70 1.988 . S
O87 C89 1.245 . S
O88 C64 1.247 . S
O88 Mg70 2.061 . S
C89 O85 1.277 . S
C89 O87 1.245 . S
O90 C64 1.289 1_556 S
O90 Mg67 2.238 . S
O90 Mg68 2.106 . S
O91 Mg68 2.079 . S
O91 C73 1.245 . S
O92 Mg71 2.038 . S
O92 C73 1.274 . S
C93 O105 1.241 . S
C93 O106 1.280 . S
C94 O107 1.277 . S
C94 O108 1.245 . S
C95 O119 1.247 . S
C95 O121 1.289 . S
Mg96 O97 1.926 . S
Mg96 O106 1.984 . S
Mg96 O108 1.988 . S
Mg96 O109 2.061 . S
O97 Mg96 1.926 . S
O97 Mg98 1.986 . S
O97 Mg99 1.917 . S
Mg98 O97 1.986 . S
Mg98 O105 2.042 . S
Mg98 O107 2.041 . S
Mg98 O113 2.038 . S
Mg98 O121 2.238 . S
Mg99 O97 1.917 . S
Mg99 O100 1.917 . S
Mg99 O110 2.106 . S
Mg99 O112 2.079 . S
Mg99 O121 2.106 . S
Mg99 O122 2.079 . S
O100 Mg99 1.917 . S
O100 Mg101 1.926 . S
O100 Mg102 1.986 . S
Mg101 O100 1.926 . S
Mg101 O115 1.984 . S
Mg101 O118 1.988 . S
Mg101 O119 2.061 . S
Mg102 O100 1.986 . S
Mg102 O110 2.238 . S
Mg102 O114 2.042 . S
Mg102 O116 2.041 . S
Mg102 O123 2.038 . S
C103 O109 1.247 . S
C103 O110 1.289 . S
C104 O122 1.245 . S
C104 O123 1.274 . S
O105 C93 1.241 . S
O105 Mg98 2.042 . S
O106 C93 1.280 . S
O106 Mg96 1.984 . S
O107 C94 1.277 . S
O107 Mg98 2.041 . S
O108 C94 1.245 . S
O108 Mg96 1.988 . S
O109 Mg96 2.061 . S
O109 C103 1.247 . S
O110 Mg99 2.106 . S
O110 Mg102 2.238 . S
O110 C103 1.289 . S
C111 O112 1.245 . S
C111 O113 1.274 . S
O112 Mg99 2.079 . S
O112 C111 1.245 . S
O113 Mg98 2.038 . S
O113 C111 1.274 . S
O114 Mg102 2.042 . S
O114 C117 1.241 . S
O115 Mg101 1.984 . S
O115 C117 1.280 . S
O116 Mg102 2.041 . S
O116 C120 1.277 . S
C117 O114 1.241 . S
C117 O115 1.280 . S
O118 Mg101 1.988 . S
O118 C120 1.245 . S
O119 C95 1.247 . S
O119 Mg101 2.061 . S
C120 O116 1.277 . S
C120 O118 1.245 . S
O121 C95 1.289 . S
O121 Mg98 2.238 . S
O121 Mg99 2.106 . S
O122 Mg99 2.079 . S
O122 C104 1.245 . S
O123 Mg102 2.038 . S
O123 C104 1.274 . S
C124 O136 1.241 . S
C124 O137 1.280 . S
C125 O138 1.277 . S
C125 O139 1.245 . S
C126 O150 1.247 . S
C126 O152 1.289 . S
Mg127 O128 1.926 . S
Mg127 O137 1.984 . S
Mg127 O139 1.988 . S
Mg127 O140 2.061 . S
O128 Mg127 1.926 . S
O128 Mg129 1.986 . S
O128 Mg130 1.917 . S
Mg129 O128 1.986 . S
Mg129 O136 2.042 . S
Mg129 O138 2.041 . S
Mg129 O144 2.038 . S
Mg129 O152 2.238 . S
Mg130 O128 1.917 . S
Mg130 O131 1.917 . S
Mg130 O141 2.106 . S
Mg130 O143 2.079 . S
Mg130 O152 2.106 . S
Mg130 O153 2.079 . S
O131 Mg130 1.917 . S
O131 Mg132 1.926 . S
O131 Mg133 1.986 . S
Mg132 O131 1.926 . S
Mg132 O146 1.984 . S
Mg132 O149 1.988 . S
Mg132 O150 2.061 . S
Mg133 O131 1.986 . S
Mg133 O141 2.238 . S
Mg133 O145 2.042 . S
Mg133 O147 2.041 . S
Mg133 O154 2.038 . S
C134 O140 1.247 . S
C134 O141 1.289 . S
C135 O153 1.245 . S
C135 O154 1.274 . S
O136 C124 1.241 . S
O136 Mg129 2.042 . S
O137 C124 1.280 . S
O137 Mg127 1.984 . S
O138 C125 1.277 . S
O138 Mg129 2.041 . S
O139 C125 1.245 . S
O139 Mg127 1.988 . S
O140 Mg127 2.061 . S
O140 C134 1.247 . S
O141 Mg130 2.106 . S
O141 Mg133 2.238 . S
O141 C134 1.289 . S
C142 O143 1.245 . S
C142 O144 1.274 . S
O143 Mg130 2.079 . S
O143 C142 1.245 . S
O144 Mg129 2.038 . S
O144 C142 1.274 . S
O145 Mg133 2.042 . S
O145 C148 1.241 . S
O146 Mg132 1.984 . S
O146 C148 1.280 . S
O147 Mg133 2.041 . S
O147 C151 1.277 . S
C148 O145 1.241 . S
C148 O146 1.280 . S
O149 Mg132 1.988 . S
O149 C151 1.245 . S
O150 C126 1.247 . S
O150 Mg132 2.061 . S
C151 O147 1.277 . S
C151 O149 1.245 . S
O152 C126 1.289 . S
O152 Mg129 2.238 . S
O152 Mg130 2.106 . S
O153 Mg130 2.079 . S
O153 C135 1.245 . S
O154 Mg133 2.038 . S
O154 C135 1.274 . S
C155 O167 1.241 . S
C155 O168 1.280 . S
C156 O169 1.277 . S
C156 O170 1.245 . S
C157 O181 1.247 . S
C157 O183 1.289 1_556 S
Mg158 O159 1.926 . S
Mg158 O168 1.984 . S
Mg158 O170 1.988 . S
Mg158 O171 2.061 . S
O159 Mg158 1.926 . S
O159 Mg160 1.986 . S
O159 Mg161 1.917 . S
Mg160 O159 1.986 . S
Mg160 O167 2.042 . S
Mg160 O169 2.041 . S
Mg160 O175 2.038 . S
Mg160 O183 2.238 . S
Mg161 O159 1.917 . S
Mg161 O162 1.917 1_554 S
Mg161 O172 2.106 . S
Mg161 O174 2.079 1_554 S
Mg161 O183 2.106 . S
Mg161 O184 2.079 . S
O162 Mg161 1.917 1_556 S
O162 Mg163 1.926 . S
O162 Mg164 1.986 1_556 S
Mg163 O162 1.926 . S
Mg163 O177 1.984 . S
Mg163 O180 1.988 . S
Mg163 O181 2.061 . S
Mg164 O162 1.986 1_554 S
Mg164 O172 2.238 . S
Mg164 O176 2.042 1_554 S
Mg164 O178 2.041 1_554 S
Mg164 O185 2.038 . S
C165 O171 1.247 . S
C165 O172 1.289 . S
C166 O184 1.245 . S
C166 O185 1.274 . S
O167 C155 1.241 . S
O167 Mg160 2.042 . S
O168 C155 1.280 . S
O168 Mg158 1.984 . S
O169 C156 1.277 . S
O169 Mg160 2.041 . S
O170 C156 1.245 . S
O170 Mg158 1.988 . S
O171 Mg158 2.061 . S
O171 C165 1.247 . S
O172 Mg161 2.106 . S
O172 Mg164 2.238 . S
O172 C165 1.289 . S
C173 O174 1.245 . S
C173 O175 1.274 1_556 S
O174 Mg161 2.079 1_556 S
O174 C173 1.245 . S
O175 Mg160 2.038 . S
O175 C173 1.274 1_554 S
O176 Mg164 2.042 1_556 S
O176 C179 1.241 . S
O177 Mg163 1.984 . S
O177 C179 1.280 . S
O178 Mg164 2.041 1_556 S
O178 C182 1.277 . S
C179 O176 1.241 . S
C179 O177 1.280 . S
O180 Mg163 1.988 . S
O180 C182 1.245 . S
O181 C157 1.247 . S
O181 Mg163 2.061 . S
C182 O178 1.277 . S
C182 O180 1.245 . S
O183 C157 1.289 1_554 S
O183 Mg160 2.238 . S
O183 Mg161 2.106 . S
O184 Mg161 2.079 . S
O184 C166 1.245 . S
O185 Mg164 2.038 . S
O185 C166 1.274 . S
C186 O198 1.241 . S
C186 O199 1.280 . S
C187 O200 1.277 . S
C187 O201 1.245 . S
C188 O212 1.247 . S
C188 O214 1.289 . S
Mg189 O190 1.926 . S
Mg189 O199 1.984 . S
Mg189 O201 1.988 . S
Mg189 O202 2.061 . S
O190 Mg189 1.926 . S
O190 Mg191 1.986 . S
O190 Mg192 1.917 . S
Mg191 O190 1.986 . S
Mg191 O198 2.042 . S
Mg191 O200 2.041 . S
Mg191 O206 2.038 . S
Mg191 O214 2.238 . S
Mg192 O190 1.917 . S
Mg192 O193 1.917 . S
Mg192 O203 2.106 . S
Mg192 O205 2.079 . S
Mg192 O214 2.106 . S
Mg192 O215 2.079 . S
O193 Mg192 1.917 . S
O193 Mg194 1.926 . S
O193 Mg195 1.986 . S
Mg194 O193 1.926 . S
Mg194 O208 1.984 . S
Mg194 O211 1.988 . S
Mg194 O212 2.061 . S
Mg195 O193 1.986 . S
Mg195 O203 2.238 . S
Mg195 O207 2.042 . S
Mg195 O209 2.041 . S
Mg195 O216 2.038 . S
C196 O202 1.247 . S
C196 O203 1.289 . S
C197 O215 1.245 . S
C197 O216 1.274 . S
O198 C186 1.241 . S
O198 Mg191 2.042 . S
O199 C186 1.280 . S
O199 Mg189 1.984 . S
O200 C187 1.277 . S
O200 Mg191 2.041 . S
O201 C187 1.245 . S
O201 Mg189 1.988 . S
O202 Mg189 2.061 . S
O202 C196 1.247 . S
O203 Mg192 2.106 . S
O203 Mg195 2.238 . S
O203 C196 1.289 . S
C204 O205 1.245 . S
C204 O206 1.274 . S
O205 Mg192 2.079 . S
O205 C204 1.245 . S
O206 Mg191 2.038 . S
O206 C204 1.274 . S
O207 Mg195 2.042 . S
O207 C210 1.241 . S
O208 Mg194 1.984 . S
O208 C210 1.280 . S
O209 Mg195 2.041 . S
O209 C213 1.277 . S
C210 O207 1.241 . S
C210 O208 1.280 . S
O211 Mg194 1.988 . S
O211 C213 1.245 . S
O212 C188 1.247 . S
O212 Mg194 2.061 . S
C213 O209 1.277 . S
C213 O211 1.245 . S
O214 C188 1.289 . S
O214 Mg191 2.238 . S
O214 Mg192 2.106 . S
O215 Mg192 2.079 . S
O215 C197 1.245 . S
O216 Mg195 2.038 . S
O216 C197 1.274 . S
C217 O229 1.241 . S
C217 O230 1.280 . S
C218 O231 1.277 . S
C218 O232 1.245 . S
C219 O243 1.247 . S
C219 O245 1.289 . S
Mg220 O221 1.926 . S
Mg220 O230 1.984 . S
Mg220 O232 1.988 . S
Mg220 O233 2.061 . S
O221 Mg220 1.926 . S
O221 Mg222 1.986 . S
O221 Mg223 1.917 . S
Mg222 O221 1.986 . S
Mg222 O229 2.042 . S
Mg222 O231 2.041 . S
Mg222 O237 2.038 . S
Mg222 O245 2.238 . S
Mg223 O221 1.917 . S
Mg223 O224 1.917 . S
Mg223 O234 2.106 . S
Mg223 O236 2.079 . S
Mg223 O245 2.106 . S
Mg223 O246 2.079 . S
O224 Mg223 1.917 . S
O224 Mg225 1.926 . S
O224 Mg226 1.986 . S
Mg225 O224 1.926 . S
Mg225 O239 1.984 . S
Mg225 O242 1.988 . S
Mg225 O243 2.061 . S
Mg226 O224 1.986 . S
Mg226 O234 2.238 . S
Mg226 O238 2.042 . S
Mg226 O240 2.041 . S
Mg226 O247 2.038 . S
C227 O233 1.247 . S
C227 O234 1.289 . S
C228 O246 1.245 . S
C228 O247 1.274 . S
O229 C217 1.241 . S
O229 Mg222 2.042 . S
O230 C217 1.280 . S
O230 Mg220 1.984 . S
O231 C218 1.277 . S
O231 Mg222 2.041 . S
O232 C218 1.245 . S
O232 Mg220 1.988 . S
O233 Mg220 2.061 . S
O233 C227 1.247 . S
O234 Mg223 2.106 . S
O234 Mg226 2.238 . S
O234 C227 1.289 . S
C235 O236 1.245 . S
C235 O237 1.274 . S
O236 Mg223 2.079 . S
O236 C235 1.245 . S
O237 Mg222 2.038 . S
O237 C235 1.274 . S
O238 Mg226 2.042 . S
O238 C241 1.241 . S
O239 Mg225 1.984 . S
O239 C241 1.280 . S
O240 Mg226 2.041 . S
O240 C244 1.277 . S
C241 O238 1.241 . S
C241 O239 1.280 . S
O242 Mg225 1.988 . S
O242 C244 1.245 . S
O243 C219 1.247 . S
O243 Mg225 2.061 . S
C244 O240 1.277 . S
C244 O242 1.245 . S
O245 C219 1.289 . S
O245 Mg222 2.238 . S
O245 Mg223 2.106 . S
O246 Mg223 2.079 . S
O246 C228 1.245 . S
O247 Mg226 2.038 . S
O247 C228 1.274 . S
C248 O260 1.241 . S
C248 O261 1.280 . S
C249 O262 1.277 . S
C249 O263 1.245 . S
C250 O274 1.247 . S
C250 O276 1.289 . S
Mg251 O252 1.926 . S
Mg251 O261 1.984 . S
Mg251 O263 1.988 . S
Mg251 O264 2.061 . S
O252 Mg251 1.926 . S
O252 Mg253 1.986 . S
O252 Mg254 1.917 . S
Mg253 O252 1.986 . S
Mg253 O260 2.042 . S
Mg253 O262 2.041 . S
Mg253 O268 2.038 . S
Mg253 O276 2.238 . S
Mg254 O252 1.917 . S
Mg254 O255 1.917 . S
Mg254 O265 2.106 . S
Mg254 O267 2.079 . S
Mg254 O276 2.106 . S
Mg254 O277 2.079 . S
O255 Mg254 1.917 . S
O255 Mg256 1.926 . S
O255 Mg257 1.986 . S
Mg256 O255 1.926 . S
Mg256 O270 1.984 . S
Mg256 O273 1.988 . S
Mg256 O274 2.061 . S
Mg257 O255 1.986 . S
Mg257 O265 2.238 . S
Mg257 O269 2.042 . S
Mg257 O271 2.041 . S
Mg257 O278 2.038 . S
C258 O264 1.247 . S
C258 O265 1.289 . S
C259 O277 1.245 . S
C259 O278 1.274 . S
O260 C248 1.241 . S
O260 Mg253 2.042 . S
O261 C248 1.280 . S
O261 Mg251 1.984 . S
O262 C249 1.277 . S
O262 Mg253 2.041 . S
O263 C249 1.245 . S
O263 Mg251 1.988 . S
O264 Mg251 2.061 . S
O264 C258 1.247 . S
O265 Mg254 2.106 . S
O265 Mg257 2.238 . S
O265 C258 1.289 . S
C266 O267 1.245 . S
C266 O268 1.274 . S
O267 Mg254 2.079 . S
O267 C266 1.245 . S
O268 Mg253 2.038 . S
O268 C266 1.274 . S
O269 Mg257 2.042 . S
O269 C272 1.241 . S
O270 Mg256 1.984 . S
O270 C272 1.280 . S
O271 Mg257 2.041 . S
O271 C275 1.277 . S
C272 O269 1.241 . S
C272 O270 1.280 . S
O273 Mg256 1.988 . S
O273 C275 1.245 . S
O274 C250 1.247 . S
O274 Mg256 2.061 . S
C275 O271 1.277 . S
C275 O273 1.245 . S
O276 C250 1.289 . S
O276 Mg253 2.238 . S
O276 Mg254 2.106 . S
O277 Mg254 2.079 . S
O277 C259 1.245 . S
O278 Mg257 2.038 . S
O278 C259 1.274 . S
C279 O291 1.241 . S
C279 O292 1.280 . S
C280 O293 1.277 . S
C280 O294 1.245 . S
C281 O305 1.247 . S
C281 O307 1.289 . S
Mg282 O283 1.926 . S
Mg282 O292 1.984 . S
Mg282 O294 1.988 . S
Mg282 O295 2.061 . S
O283 Mg282 1.926 . S
O283 Mg284 1.986 . S
O283 Mg285 1.917 . S
Mg284 O283 1.986 . S
Mg284 O291 2.042 . S
Mg284 O293 2.041 . S
Mg284 O299 2.038 . S
Mg284 O307 2.238 . S
Mg285 O283 1.917 . S
Mg285 O286 1.917 . S
Mg285 O296 2.106 . S
Mg285 O298 2.079 . S
Mg285 O307 2.106 . S
Mg285 O308 2.079 . S
O286 Mg285 1.917 . S
O286 Mg287 1.926 . S
O286 Mg288 1.986 . S
Mg287 O286 1.926 . S
Mg287 O301 1.984 . S
Mg287 O304 1.988 . S
Mg287 O305 2.061 . S
Mg288 O286 1.986 . S
Mg288 O296 2.238 . S
Mg288 O300 2.042 . S
Mg288 O302 2.041 . S
Mg288 O309 2.038 . S
C289 O295 1.247 . S
C289 O296 1.289 . S
C290 O308 1.245 . S
C290 O309 1.274 . S
O291 C279 1.241 . S
O291 Mg284 2.042 . S
O292 C279 1.280 . S
O292 Mg282 1.984 . S
O293 C280 1.277 . S
O293 Mg284 2.041 . S
O294 C280 1.245 . S
O294 Mg282 1.988 . S
O295 Mg282 2.061 . S
O295 C289 1.247 . S
O296 Mg285 2.106 . S
O296 Mg288 2.238 . S
O296 C289 1.289 . S
C297 O298 1.245 . S
C297 O299 1.274 . S
O298 Mg285 2.079 . S
O298 C297 1.245 . S
O299 Mg284 2.038 . S
O299 C297 1.274 . S
O300 Mg288 2.042 . S
O300 C303 1.241 . S
O301 Mg287 1.984 . S
O301 C303 1.280 . S
O302 Mg288 2.041 . S
O302 C306 1.277 . S
C303 O300 1.241 . S
C303 O301 1.280 . S
O304 Mg287 1.988 . S
O304 C306 1.245 . S
O305 C281 1.247 . S
O305 Mg287 2.061 . S
C306 O302 1.277 . S
C306 O304 1.245 . S
O307 C281 1.289 . S
O307 Mg284 2.238 . S
O307 Mg285 2.106 . S
O308 Mg285 2.079 . S
O308 C290 1.245 . S
O309 Mg288 2.038 . S
O309 C290 1.274 . S
C310 O322 1.241 . S
C310 O323 1.280 . S
C311 O324 1.277 . S
C311 O325 1.245 . S
C312 O336 1.247 . S
C312 O338 1.289 . S
Mg313 O314 1.926 . S
Mg313 O323 1.984 . S
Mg313 O325 1.988 . S
Mg313 O326 2.061 . S
O314 Mg313 1.926 . S
O314 Mg315 1.986 . S
O314 Mg316 1.917 . S
Mg315 O314 1.986 . S
Mg315 O322 2.042 . S
Mg315 O324 2.041 . S
Mg315 O330 2.038 . S
Mg315 O338 2.238 . S
Mg316 O314 1.917 . S
Mg316 O317 1.917 . S
Mg316 O327 2.106 . S
Mg316 O329 2.079 . S
Mg316 O338 2.106 . S
Mg316 O339 2.079 . S
O317 Mg316 1.917 . S
O317 Mg318 1.926 . S
O317 Mg319 1.986 . S
Mg318 O317 1.926 . S
Mg318 O332 1.984 . S
Mg318 O335 1.988 . S
Mg318 O336 2.061 . S
Mg319 O317 1.986 . S
Mg319 O327 2.238 . S
Mg319 O331 2.042 . S
Mg319 O333 2.041 . S
Mg319 O340 2.038 . S
C320 O326 1.247 . S
C320 O327 1.289 . S
C321 O339 1.245 . S
C321 O340 1.274 . S
O322 C310 1.241 . S
O322 Mg315 2.042 . S
O323 C310 1.280 . S
O323 Mg313 1.984 . S
O324 C311 1.277 . S
O324 Mg315 2.041 . S
O325 C311 1.245 . S
O325 Mg313 1.988 . S
O326 Mg313 2.061 . S
O326 C320 1.247 . S
O327 Mg316 2.106 . S
O327 Mg319 2.238 . S
O327 C320 1.289 . S
C328 O329 1.245 . S
C328 O330 1.274 . S
O329 Mg316 2.079 . S
O329 C328 1.245 . S
O330 Mg315 2.038 . S
O330 C328 1.274 . S
O331 Mg319 2.042 . S
O331 C334 1.241 . S
O332 Mg318 1.984 . S
O332 C334 1.280 . S
O333 Mg319 2.041 . S
O333 C337 1.277 . S
C334 O331 1.241 . S
C334 O332 1.280 . S
O335 Mg318 1.988 . S
O335 C337 1.245 . S
O336 C312 1.247 . S
O336 Mg318 2.061 . S
C337 O333 1.277 . S
C337 O335 1.245 . S
O338 C312 1.289 . S
O338 Mg315 2.238 . S
O338 Mg316 2.106 . S
O339 Mg316 2.079 . S
O339 C321 1.245 . S
O340 Mg319 2.038 . S
O340 C321 1.274 . S
C341 O353 1.241 . S
C341 O354 1.280 . S
C342 O355 1.277 . S
C342 O356 1.245 . S
C343 O367 1.247 . S
C343 O369 1.289 . S
Mg344 O345 1.926 . S
Mg344 O354 1.984 . S
Mg344 O356 1.988 . S
Mg344 O357 2.061 . S
O345 Mg344 1.926 . S
O345 Mg346 1.986 . S
O345 Mg347 1.917 . S
Mg346 O345 1.986 . S
Mg346 O353 2.042 . S
Mg346 O355 2.041 . S
Mg346 O361 2.038 . S
Mg346 O369 2.238 . S
Mg347 O345 1.917 . S
Mg347 O348 1.917 . S
Mg347 O358 2.106 . S
Mg347 O360 2.079 . S
Mg347 O369 2.106 . S
Mg347 O370 2.079 . S
O348 Mg347 1.917 . S
O348 Mg349 1.926 . S
O348 Mg350 1.986 . S
Mg349 O348 1.926 . S
Mg349 O363 1.984 . S
Mg349 O366 1.988 . S
Mg349 O367 2.061 . S
Mg350 O348 1.986 . S
Mg350 O358 2.238 . S
Mg350 O362 2.042 . S
Mg350 O364 2.041 . S
Mg350 O371 2.038 . S
C351 O357 1.247 . S
C351 O358 1.289 . S
C352 O370 1.245 . S
C352 O371 1.274 . S
O353 C341 1.241 . S
O353 Mg346 2.042 . S
O354 C341 1.280 . S
O354 Mg344 1.984 . S
O355 C342 1.277 . S
O355 Mg346 2.041 . S
O356 C342 1.245 . S
O356 Mg344 1.988 . S
O357 Mg344 2.061 . S
O357 C351 1.247 . S
O358 Mg347 2.106 . S
O358 Mg350 2.238 . S
O358 C351 1.289 . S
C359 O360 1.245 . S
C359 O361 1.274 . S
O360 Mg347 2.079 . S
O360 C359 1.245 . S
O361 Mg346 2.038 . S
O361 C359 1.274 . S
O362 Mg350 2.042 . S
O362 C365 1.241 . S
O363 Mg349 1.984 . S
O363 C365 1.280 . S
O364 Mg350 2.041 . S
O364 C368 1.277 . S
C365 O362 1.241 . S
C365 O363 1.280 . S
O366 Mg349 1.988 . S
O366 C368 1.245 . S
O367 C343 1.247 . S
O367 Mg349 2.061 . S
C368 O364 1.277 . S
C368 O366 1.245 . S
O369 C343 1.289 . S
O369 Mg346 2.238 . S
O369 Mg347 2.106 . S
O370 Mg347 2.079 . S
O370 C352 1.245 . S
O371 Mg350 2.038 . S
O371 C352 1.274 . S
C372 O384 1.241 . S
C372 O385 1.280 . S
C373 O386 1.277 . S
C373 O387 1.245 . S
C374 O398 1.247 . S
C374 O400 1.289 . S
Mg375 O376 1.926 . S
Mg375 O385 1.984 . S
Mg375 O387 1.988 . S
Mg375 O388 2.061 . S
O376 Mg375 1.926 . S
O376 Mg377 1.986 . S
O376 Mg378 1.917 . S
Mg377 O376 1.986 . S
Mg377 O384 2.042 . S
Mg377 O386 2.041 . S
Mg377 O392 2.038 . S
Mg377 O400 2.238 . S
Mg378 O376 1.917 . S
Mg378 O379 1.917 . S
Mg378 O389 2.106 . S
Mg378 O391 2.079 . S
Mg378 O400 2.106 . S
Mg378 O401 2.079 . S
O379 Mg378 1.917 . S
O379 Mg380 1.926 . S
O379 Mg381 1.986 . S
Mg380 O379 1.926 . S
Mg380 O394 1.984 . S
Mg380 O397 1.988 . S
Mg380 O398 2.061 . S
Mg381 O379 1.986 . S
Mg381 O389 2.238 . S
Mg381 O393 2.042 . S
Mg381 O395 2.041 . S
Mg381 O402 2.038 . S
C382 O388 1.247 . S
C382 O389 1.289 . S
C383 O401 1.245 . S
C383 O402 1.274 . S
O384 C372 1.241 . S
O384 Mg377 2.042 . S
O385 C372 1.280 . S
O385 Mg375 1.984 . S
O386 C373 1.277 . S
O386 Mg377 2.041 . S
O387 C373 1.245 . S
O387 Mg375 1.988 . S
O388 Mg375 2.061 . S
O388 C382 1.247 . S
O389 Mg378 2.106 . S
O389 Mg381 2.238 . S
O389 C382 1.289 . S
C390 O391 1.245 . S
C390 O392 1.274 . S
O391 Mg378 2.079 . S
O391 C390 1.245 . S
O392 Mg377 2.038 . S
O392 C390 1.274 . S
O393 Mg381 2.042 . S
O393 C396 1.241 . S
O394 Mg380 1.984 . S
O394 C396 1.280 . S
O395 Mg381 2.041 . S
O395 C399 1.277 . S
C396 O393 1.241 . S
C396 O394 1.280 . S
O397 Mg380 1.988 . S
O397 C399 1.245 . S
O398 C374 1.247 . S
O398 Mg380 2.061 . S
C399 O395 1.277 . S
C399 O397 1.245 . S
O400 C374 1.289 . S
O400 Mg377 2.238 . S
O400 Mg378 2.106 . S
O401 Mg378 2.079 . S
O401 C383 1.245 . S
O402 Mg381 2.038 . S
O402 C383 1.274 . S
C403 O415 1.241 . S
C403 O416 1.280 . S
C404 O417 1.277 . S
C404 O418 1.245 . S
C405 O429 1.247 . S
C405 O431 1.289 . S
Mg406 O407 1.926 . S
Mg406 O416 1.984 . S
Mg406 O418 1.988 . S
Mg406 O419 2.061 . S
O407 Mg406 1.926 . S
O407 Mg408 1.986 . S
O407 Mg409 1.917 . S
Mg408 O407 1.986 . S
Mg408 O415 2.042 . S
Mg408 O417 2.041 . S
Mg408 O423 2.038 . S
Mg408 O431 2.238 . S
Mg409 O407 1.917 . S
Mg409 O410 1.917 . S
Mg409 O420 2.106 . S
Mg409 O422 2.079 . S
Mg409 O431 2.106 . S
Mg409 O432 2.079 . S
O410 Mg409 1.917 . S
O410 Mg411 1.926 . S
O410 Mg412 1.986 . S
Mg411 O410 1.926 . S
Mg411 O425 1.984 . S
Mg411 O428 1.988 . S
Mg411 O429 2.061 . S
Mg412 O410 1.986 . S
Mg412 O420 2.238 . S
Mg412 O424 2.042 . S
Mg412 O426 2.041 . S
Mg412 O433 2.038 . S
C413 O419 1.247 . S
C413 O420 1.289 . S
C414 O432 1.245 . S
C414 O433 1.274 . S
O415 C403 1.241 . S
O415 Mg408 2.042 . S
O416 C403 1.280 . S
O416 Mg406 1.984 . S
O417 C404 1.277 . S
O417 Mg408 2.041 . S
O418 C404 1.245 . S
O418 Mg406 1.988 . S
O419 Mg406 2.061 . S
O419 C413 1.247 . S
O420 Mg409 2.106 . S
O420 Mg412 2.238 . S
O420 C413 1.289 . S
C421 O422 1.245 . S
C421 O423 1.274 . S
O422 Mg409 2.079 . S
O422 C421 1.245 . S
O423 Mg408 2.038 . S
O423 C421 1.274 . S
O424 Mg412 2.042 . S
O424 C427 1.241 . S
O425 Mg411 1.984 . S
O425 C427 1.280 . S
O426 Mg412 2.041 . S
O426 C430 1.277 . S
C427 O424 1.241 . S
C427 O425 1.280 . S
O428 Mg411 1.988 . S
O428 C430 1.245 . S
O429 C405 1.247 . S
O429 Mg411 2.061 . S
C430 O426 1.277 . S
C430 O428 1.245 . S
O431 C405 1.289 . S
O431 Mg408 2.238 . S
O431 Mg409 2.106 . S
O432 Mg409 2.079 . S
O432 C414 1.245 . S
O433 Mg412 2.038 . S
O433 C414 1.274 . S
C434 O446 1.241 . S
C434 O447 1.280 . S
C435 O448 1.277 . S
C435 O449 1.245 . S
C436 O460 1.247 . S
C436 O462 1.289 . S
Mg437 O438 1.926 . S
Mg437 O447 1.984 . S
Mg437 O449 1.988 . S
Mg437 O450 2.061 . S
O438 Mg437 1.926 . S
O438 Mg439 1.986 . S
O438 Mg440 1.917 . S
Mg439 O438 1.986 . S
Mg439 O446 2.042 . S
Mg439 O448 2.041 . S
Mg439 O454 2.038 . S
Mg439 O462 2.238 . S
Mg440 O438 1.917 . S
Mg440 O441 1.917 . S
Mg440 O451 2.106 . S
Mg440 O453 2.079 . S
Mg440 O462 2.106 . S
Mg440 O463 2.079 . S
O441 Mg440 1.917 . S
O441 Mg442 1.926 . S
O441 Mg443 1.986 . S
Mg442 O441 1.926 . S
Mg442 O456 1.984 . S
Mg442 O459 1.988 . S
Mg442 O460 2.061 . S
Mg443 O441 1.986 . S
Mg443 O451 2.238 . S
Mg443 O455 2.042 . S
Mg443 O457 2.041 . S
Mg443 O464 2.038 . S
C444 O450 1.247 . S
C444 O451 1.289 . S
C445 O463 1.245 . S
C445 O464 1.274 . S
O446 C434 1.241 . S
O446 Mg439 2.042 . S
O447 C434 1.280 . S
O447 Mg437 1.984 . S
O448 C435 1.277 . S
O448 Mg439 2.041 . S
O449 C435 1.245 . S
O449 Mg437 1.988 . S
O450 Mg437 2.061 . S
O450 C444 1.247 . S
O451 Mg440 2.106 . S
O451 Mg443 2.238 . S
O451 C444 1.289 . S
C452 O453 1.245 . S
C452 O454 1.274 . S
O453 Mg440 2.079 . S
O453 C452 1.245 . S
O454 Mg439 2.038 . S
O454 C452 1.274 . S
O455 Mg443 2.042 . S
O455 C458 1.241 . S
O456 Mg442 1.984 . S
O456 C458 1.280 . S
O457 Mg443 2.041 . S
O457 C461 1.277 . S
C458 O455 1.241 . S
C458 O456 1.280 . S
O459 Mg442 1.988 . S
O459 C461 1.245 . S
O460 C436 1.247 . S
O460 Mg442 2.061 . S
C461 O457 1.277 . S
C461 O459 1.245 . S
O462 C436 1.289 . S
O462 Mg439 2.238 . S
O462 Mg440 2.106 . S
O463 Mg440 2.079 . S
O463 C445 1.245 . S
O464 Mg443 2.038 . S
O464 C445 1.274 . S
C465 O477 1.241 1_545 S
C465 O478 1.280 . S
C466 O479 1.277 . S
C466 O480 1.245 . S
C467 O491 1.247 . S
C467 O493 1.289 . S
Mg468 O469 1.926 1_545 S
Mg468 O478 1.984 . S
Mg468 O480 1.988 . S
Mg468 O481 2.061 . S
O469 Mg468 1.926 1_565 S
O469 Mg470 1.986 . S
O469 Mg471 1.917 . S
Mg470 O469 1.986 . S
Mg470 O477 2.042 . S
Mg470 O479 2.041 1_565 S
Mg470 O485 2.038 . S
Mg470 O493 2.238 . S
Mg471 O469 1.917 . S
Mg471 O472 1.917 . S
Mg471 O482 2.106 . S
Mg471 O484 2.079 . S
Mg471 O493 2.106 . S
Mg471 O494 2.079 . S
O472 Mg471 1.917 . S
O472 Mg473 1.926 . S
O472 Mg474 1.986 . S
Mg473 O472 1.926 . S
Mg473 O487 1.984 . S
Mg473 O490 1.988 . S
Mg473 O491 2.061 . S
Mg474 O472 1.986 . S
Mg474 O482 2.238 . S
Mg474 O486 2.042 . S
Mg474 O488 2.041 . S
Mg474 O495 2.038 . S
C475 O481 1.247 . S
C475 O482 1.289 1_545 S
C476 O494 1.245 . S
C476 O495 1.274 . S
O477 C465 1.241 1_565 S
O477 Mg470 2.042 . S
O478 C465 1.280 . S
O478 Mg468 1.984 . S
O479 C466 1.277 . S
O479 Mg470 2.041 1_545 S
O480 C466 1.245 . S
O480 Mg468 1.988 . S
O481 Mg468 2.061 . S
O481 C475 1.247 . S
O482 Mg471 2.106 . S
O482 Mg474 2.238 . S
O482 C475 1.289 1_565 S
C483 O484 1.245 . S
C483 O485 1.274 . S
O484 Mg471 2.079 . S
O484 C483 1.245 . S
O485 Mg470 2.038 . S
O485 C483 1.274 . S
O486 Mg474 2.042 . S
O486 C489 1.241 . S
O487 Mg473 1.984 . S
O487 C489 1.280 . S
O488 Mg474 2.041 . S
O488 C492 1.277 . S
C489 O486 1.241 . S
C489 O487 1.280 . S
O490 Mg473 1.988 . S
O490 C492 1.245 . S
O491 C467 1.247 . S
O491 Mg473 2.061 . S
C492 O488 1.277 . S
C492 O490 1.245 . S
O493 C467 1.289 . S
O493 Mg470 2.238 . S
O493 Mg471 2.106 . S
O494 Mg471 2.079 . S
O494 C476 1.245 . S
O495 Mg474 2.038 . S
O495 C476 1.274 . S
C496 O508 1.241 . S
C496 O509 1.280 . S
C497 O510 1.277 . S
C497 O511 1.245 . S
C498 O522 1.247 . S
C498 O524 1.289 . S
Mg499 O500 1.926 . S
Mg499 O509 1.984 . S
Mg499 O511 1.988 . S
Mg499 O512 2.061 . S
O500 Mg499 1.926 . S
O500 Mg501 1.986 . S
O500 Mg502 1.917 . S
Mg501 O500 1.986 . S
Mg501 O508 2.042 . S
Mg501 O510 2.041 . S
Mg501 O516 2.038 . S
Mg501 O524 2.238 . S
Mg502 O500 1.917 . S
Mg502 O503 1.917 . S
Mg502 O513 2.106 . S
Mg502 O515 2.079 . S
Mg502 O524 2.106 . S
Mg502 O525 2.079 . S
O503 Mg502 1.917 . S
O503 Mg504 1.926 . S
O503 Mg505 1.986 . S
Mg504 O503 1.926 . S
Mg504 O518 1.984 . S
Mg504 O521 1.988 . S
Mg504 O522 2.061 . S
Mg505 O503 1.986 . S
Mg505 O513 2.238 . S
Mg505 O517 2.042 . S
Mg505 O519 2.041 . S
Mg505 O526 2.038 . S
C506 O512 1.247 . S
C506 O513 1.289 . S
C507 O525 1.245 . S
C507 O526 1.274 . S
O508 C496 1.241 . S
O508 Mg501 2.042 . S
O509 C496 1.280 . S
O509 Mg499 1.984 . S
O510 C497 1.277 . S
O510 Mg501 2.041 . S
O511 C497 1.245 . S
O511 Mg499 1.988 . S
O512 Mg499 2.061 . S
O512 C506 1.247 . S
O513 Mg502 2.106 . S
O513 Mg505 2.238 . S
O513 C506 1.289 . S
C514 O515 1.245 . S
C514 O516 1.274 . S
O515 Mg502 2.079 . S
O515 C514 1.245 . S
O516 Mg501 2.038 . S
O516 C514 1.274 . S
O517 Mg505 2.042 . S
O517 C520 1.241 . S
O518 Mg504 1.984 . S
O518 C520 1.280 . S
O519 Mg505 2.041 . S
O519 C523 1.277 . S
C520 O517 1.241 . S
C520 O518 1.280 . S
O521 Mg504 1.988 . S
O521 C523 1.245 . S
O522 C498 1.247 . S
O522 Mg504 2.061 . S
C523 O519 1.277 . S
C523 O521 1.245 . S
O524 C498 1.289 . S
O524 Mg501 2.238 . S
O524 Mg502 2.106 . S
O525 Mg502 2.079 . S
O525 C507 1.245 . S
O526 Mg505 2.038 . S
O526 C507 1.274 . S
C527 O539 1.241 . S
C527 O540 1.280 . S
C528 O541 1.277 . S
C528 O542 1.245 . S
C529 O553 1.247 . S
C529 O555 1.289 . S
Mg530 O531 1.926 . S
Mg530 O540 1.984 . S
Mg530 O542 1.988 . S
Mg530 O543 2.061 . S
O531 Mg530 1.926 . S
O531 Mg532 1.986 . S
O531 Mg533 1.917 . S
Mg532 O531 1.986 . S
Mg532 O539 2.042 . S
Mg532 O541 2.041 . S
Mg532 O547 2.038 . S
Mg532 O555 2.238 . S
Mg533 O531 1.917 . S
Mg533 O534 1.917 . S
Mg533 O544 2.106 . S
Mg533 O546 2.079 . S
Mg533 O555 2.106 . S
Mg533 O556 2.079 . S
O534 Mg533 1.917 . S
O534 Mg535 1.926 . S
O534 Mg536 1.986 . S
Mg535 O534 1.926 . S
Mg535 O549 1.984 . S
Mg535 O552 1.988 . S
Mg535 O553 2.061 . S
Mg536 O534 1.986 . S
Mg536 O544 2.238 . S
Mg536 O548 2.042 . S
Mg536 O550 2.041 . S
Mg536 O557 2.038 . S
C537 O543 1.247 . S
C537 O544 1.289 . S
C538 O556 1.245 . S
C538 O557 1.274 . S
O539 C527 1.241 . S
O539 Mg532 2.042 . S
O540 C527 1.280 . S
O540 Mg530 1.984 . S
O541 C528 1.277 . S
O541 Mg532 2.041 . S
O542 C528 1.245 . S
O542 Mg530 1.988 . S
O543 Mg530 2.061 . S
O543 C537 1.247 . S
O544 Mg533 2.106 . S
O544 Mg536 2.238 . S
O544 C537 1.289 . S
C545 O546 1.245 . S
C545 O547 1.274 . S
O546 Mg533 2.079 . S
O546 C545 1.245 . S
O547 Mg532 2.038 . S
O547 C545 1.274 . S
O548 Mg536 2.042 . S
O548 C551 1.241 . S
O549 Mg535 1.984 . S
O549 C551 1.280 . S
O550 Mg536 2.041 . S
O550 C554 1.277 . S
C551 O548 1.241 . S
C551 O549 1.280 . S
O552 Mg535 1.988 . S
O552 C554 1.245 . S
O553 C529 1.247 . S
O553 Mg535 2.061 . S
C554 O550 1.277 . S
C554 O552 1.245 . S
O555 C529 1.289 . S
O555 Mg532 2.238 . S
O555 Mg533 2.106 . S
O556 Mg533 2.079 . S
O556 C538 1.245 . S
O557 Mg536 2.038 . S
O557 C538 1.274 . S
C558 O570 1.241 . S
C558 O571 1.280 . S
C559 O572 1.277 . S
C559 O573 1.245 . S
C560 O584 1.247 . S
C560 O586 1.289 . S
Mg561 O562 1.926 1_655 S
Mg561 O571 1.984 . S
Mg561 O573 1.988 . S
Mg561 O574 2.061 . S
O562 Mg561 1.926 1_455 S
O562 Mg563 1.986 . S
O562 Mg564 1.917 . S
Mg563 O562 1.986 . S
Mg563 O570 2.042 1_455 S
Mg563 O572 2.041 1_455 S
Mg563 O578 2.038 . S
Mg563 O586 2.238 . S
Mg564 O562 1.917 . S
Mg564 O565 1.917 . S
Mg564 O575 2.106 . S
Mg564 O577 2.079 . S
Mg564 O586 2.106 . S
Mg564 O587 2.079 . S
O565 Mg564 1.917 . S
O565 Mg566 1.926 . S
O565 Mg567 1.986 . S
Mg566 O565 1.926 . S
Mg566 O580 1.984 . S
Mg566 O583 1.988 . S
Mg566 O584 2.061 . S
Mg567 O565 1.986 . S
Mg567 O575 2.238 . S
Mg567 O579 2.042 . S
Mg567 O581 2.041 . S
Mg567 O588 2.038 . S
C568 O574 1.247 . S
C568 O575 1.289 1_655 S
C569 O587 1.245 . S
C569 O588 1.274 . S
O570 C558 1.241 . S
O570 Mg563 2.042 1_655 S
O571 C558 1.280 . S
O571 Mg561 1.984 . S
O572 C559 1.277 . S
O572 Mg563 2.041 1_655 S
O573 C559 1.245 . S
O573 Mg561 1.988 . S
O574 Mg561 2.061 . S
O574 C568 1.247 . S
O575 Mg564 2.106 . S
O575 Mg567 2.238 . S
O575 C568 1.289 1_455 S
C576 O577 1.245 . S
C576 O578 1.274 . S
O577 Mg564 2.079 . S
O577 C576 1.245 . S
O578 Mg563 2.038 . S
O578 C576 1.274 . S
O579 Mg567 2.042 . S
O579 C582 1.241 . S
O580 Mg566 1.984 . S
O580 C582 1.280 . S
O581 Mg567 2.041 . S
O581 C585 1.277 . S
C582 O579 1.241 . S
C582 O580 1.280 . S
O583 Mg566 1.988 . S
O583 C585 1.245 . S
O584 C560 1.247 . S
O584 Mg566 2.061 . S
C585 O581 1.277 . S
C585 O583 1.245 . S
O586 C560 1.289 . S
O586 Mg563 2.238 . S
O586 Mg564 2.106 . S
O587 Mg564 2.079 . S
O587 C569 1.245 . S
O588 Mg567 2.038 . S
O588 C569 1.274 . S
C589 O601 1.241 . S
C589 O602 1.280 . S
C590 O603 1.277 . S
C590 O604 1.245 . S
C591 O615 1.247 . S
C591 O617 1.289 . S
Mg592 O593 1.926 . S
Mg592 O602 1.984 . S
Mg592 O604 1.988 . S
Mg592 O605 2.061 . S
O593 Mg592 1.926 . S
O593 Mg594 1.986 . S
O593 Mg595 1.917 . S
Mg594 O593 1.986 . S
Mg594 O601 2.042 . S
Mg594 O603 2.041 . S
Mg594 O609 2.038 . S
Mg594 O617 2.238 . S
Mg595 O593 1.917 . S
Mg595 O596 1.917 . S
Mg595 O606 2.106 . S
Mg595 O608 2.079 . S
Mg595 O617 2.106 . S
Mg595 O618 2.079 . S
O596 Mg595 1.917 . S
O596 Mg597 1.926 . S
O596 Mg598 1.986 . S
Mg597 O596 1.926 . S
Mg597 O611 1.984 . S
Mg597 O614 1.988 . S
Mg597 O615 2.061 . S
Mg598 O596 1.986 . S
Mg598 O606 2.238 . S
Mg598 O610 2.042 . S
Mg598 O612 2.041 . S
Mg598 O619 2.038 . S
C599 O605 1.247 . S
C599 O606 1.289 . S
C600 O618 1.245 . S
C600 O619 1.274 . S
O601 C589 1.241 . S
O601 Mg594 2.042 . S
O602 C589 1.280 . S
O602 Mg592 1.984 . S
O603 C590 1.277 . S
O603 Mg594 2.041 . S
O604 C590 1.245 . S
O604 Mg592 1.988 . S
O605 Mg592 2.061 . S
O605 C599 1.247 . S
O606 Mg595 2.106 . S
O606 Mg598 2.238 . S
O606 C599 1.289 . S
C607 O608 1.245 . S
C607 O609 1.274 . S
O608 Mg595 2.079 . S
O608 C607 1.245 . S
O609 Mg594 2.038 . S
O609 C607 1.274 . S
O610 Mg598 2.042 . S
O610 C613 1.241 . S
O611 Mg597 1.984 . S
O611 C613 1.280 . S
O612 Mg598 2.041 . S
O612 C616 1.277 . S
C613 O610 1.241 . S
C613 O611 1.280 . S
O614 Mg597 1.988 . S
O614 C616 1.245 . S
O615 C591 1.247 . S
O615 Mg597 2.061 . S
C616 O612 1.277 . S
C616 O614 1.245 . S
O617 C591 1.289 . S
O617 Mg594 2.238 . S
O617 Mg595 2.106 . S
O618 Mg595 2.079 . S
O618 C600 1.245 . S
O619 Mg598 2.038 . S
O619 C600 1.274 . S
C620 O632 1.241 . S
C620 O633 1.280 . S
C621 O634 1.277 . S
C621 O635 1.245 . S
C622 O646 1.247 . S
C622 O648 1.289 1_556 S
Mg623 O624 1.926 . S
Mg623 O633 1.984 . S
Mg623 O635 1.988 . S
Mg623 O636 2.061 . S
O624 Mg623 1.926 . S
O624 Mg625 1.986 . S
O624 Mg626 1.917 . S
Mg625 O624 1.986 . S
Mg625 O632 2.042 . S
Mg625 O634 2.041 . S
Mg625 O640 2.038 . S
Mg625 O648 2.238 . S
Mg626 O624 1.917 . S
Mg626 O627 1.917 1_554 S
Mg626 O637 2.106 . S
Mg626 O639 2.079 1_554 S
Mg626 O648 2.106 . S
Mg626 O649 2.079 . S
O627 Mg626 1.917 1_556 S
O627 Mg628 1.926 . S
O627 Mg629 1.986 1_556 S
Mg628 O627 1.926 . S
Mg628 O642 1.984 . S
Mg628 O645 1.988 . S
Mg628 O646 2.061 . S
Mg629 O627 1.986 1_554 S
Mg629 O637 2.238 . S
Mg629 O641 2.042 1_554 S
Mg629 O643 2.041 1_554 S
Mg629 O650 2.038 . S
C630 O636 1.247 . S
C630 O637 1.289 . S
C631 O649 1.245 . S
C631 O650 1.274 . S
O632 C620 1.241 . S
O632 Mg625 2.042 . S
O633 C620 1.280 . S
O633 Mg623 1.984 . S
O634 C621 1.277 . S
O634 Mg625 2.041 . S
O635 C621 1.245 . S
O635 Mg623 1.988 . S
O636 Mg623 2.061 . S
O636 C630 1.247 . S
O637 Mg626 2.106 . S
O637 Mg629 2.238 . S
O637 C630 1.289 . S
C638 O639 1.245 . S
C638 O640 1.274 1_556 S
O639 Mg626 2.079 1_556 S
O639 C638 1.245 . S
O640 Mg625 2.038 . S
O640 C638 1.274 1_554 S
O641 Mg629 2.042 1_556 S
O641 C644 1.241 . S
O642 Mg628 1.984 . S
O642 C644 1.280 . S
O643 Mg629 2.041 1_556 S
O643 C647 1.277 . S
C644 O641 1.241 . S
C644 O642 1.280 . S
O645 Mg628 1.988 . S
O645 C647 1.245 . S
O646 C622 1.247 . S
O646 Mg628 2.061 . S
C647 O643 1.277 . S
C647 O645 1.245 . S
O648 C622 1.289 1_554 S
O648 Mg625 2.238 . S
O648 Mg626 2.106 . S
O649 Mg626 2.079 . S
O649 C631 1.245 . S
O650 Mg629 2.038 . S
O650 C631 1.274 . S
C651 O663 1.241 . S
C651 O664 1.280 . S
C652 O665 1.277 . S
C652 O666 1.245 . S
C653 O677 1.247 . S
C653 O679 1.289 1_554 S
Mg654 O655 1.926 . S
Mg654 O664 1.984 . S
Mg654 O666 1.988 . S
Mg654 O667 2.061 . S
O655 Mg654 1.926 . S
O655 Mg656 1.986 . S
O655 Mg657 1.917 . S
Mg656 O655 1.986 . S
Mg656 O663 2.042 . S
Mg656 O665 2.041 . S
Mg656 O671 2.038 . S
Mg656 O679 2.238 . S
Mg657 O655 1.917 . S
Mg657 O658 1.917 1_556 S
Mg657 O668 2.106 . S
Mg657 O670 2.079 1_556 S
Mg657 O679 2.106 . S
Mg657 O680 2.079 . S
O658 Mg657 1.917 1_554 S
O658 Mg659 1.926 . S
O658 Mg660 1.986 1_554 S
Mg659 O658 1.926 . S
Mg659 O673 1.984 . S
Mg659 O676 1.988 . S
Mg659 O677 2.061 . S
Mg660 O658 1.986 1_556 S
Mg660 O668 2.238 . S
Mg660 O672 2.042 1_556 S
Mg660 O674 2.041 1_556 S
Mg660 O681 2.038 . S
C661 O667 1.247 . S
C661 O668 1.289 . S
C662 O680 1.245 . S
C662 O681 1.274 . S
O663 C651 1.241 . S
O663 Mg656 2.042 . S
O664 C651 1.280 . S
O664 Mg654 1.984 . S
O665 C652 1.277 . S
O665 Mg656 2.041 . S
O666 C652 1.245 . S
O666 Mg654 1.988 . S
O667 Mg654 2.061 . S
O667 C661 1.247 . S
O668 Mg657 2.106 . S
O668 Mg660 2.238 . S
O668 C661 1.289 . S
C669 O670 1.245 . S
C669 O671 1.274 1_554 S
O670 Mg657 2.079 1_554 S
O670 C669 1.245 . S
O671 Mg656 2.038 . S
O671 C669 1.274 1_556 S
O672 Mg660 2.042 1_554 S
O672 C675 1.241 . S
O673 Mg659 1.984 . S
O673 C675 1.280 . S
O674 Mg660 2.041 1_554 S
O674 C678 1.277 . S
C675 O672 1.241 . S
C675 O673 1.280 . S
O676 Mg659 1.988 . S
O676 C678 1.245 . S
O677 C653 1.247 . S
O677 Mg659 2.061 . S
C678 O674 1.277 . S
C678 O676 1.245 . S
O679 C653 1.289 1_556 S
O679 Mg656 2.238 . S
O679 Mg657 2.106 . S
O680 Mg657 2.079 . S
O680 C662 1.245 . S
O681 Mg660 2.038 . S
O681 C662 1.274 . S
C682 O694 1.241 . S
C682 O695 1.280 . S
C683 O696 1.277 . S
C683 O697 1.245 . S
C684 O708 1.247 . S
C684 O710 1.289 . S
Mg685 O686 1.926 . S
Mg685 O695 1.984 . S
Mg685 O697 1.988 . S
Mg685 O698 2.061 . S
O686 Mg685 1.926 . S
O686 Mg687 1.986 . S
O686 Mg688 1.917 . S
Mg687 O686 1.986 . S
Mg687 O694 2.042 . S
Mg687 O696 2.041 . S
Mg687 O702 2.038 . S
Mg687 O710 2.238 . S
Mg688 O686 1.917 . S
Mg688 O689 1.917 . S
Mg688 O699 2.106 . S
Mg688 O701 2.079 . S
Mg688 O710 2.106 . S
Mg688 O711 2.079 . S
O689 Mg688 1.917 . S
O689 Mg690 1.926 . S
O689 Mg691 1.986 . S
Mg690 O689 1.926 . S
Mg690 O704 1.984 . S
Mg690 O707 1.988 . S
Mg690 O708 2.061 . S
Mg691 O689 1.986 . S
Mg691 O699 2.238 . S
Mg691 O703 2.042 . S
Mg691 O705 2.041 . S
Mg691 O712 2.038 . S
C692 O698 1.247 . S
C692 O699 1.289 . S
C693 O711 1.245 . S
C693 O712 1.274 . S
O694 C682 1.241 . S
O694 Mg687 2.042 . S
O695 C682 1.280 . S
O695 Mg685 1.984 . S
O696 C683 1.277 . S
O696 Mg687 2.041 . S
O697 C683 1.245 . S
O697 Mg685 1.988 . S
O698 Mg685 2.061 . S
O698 C692 1.247 . S
O699 Mg688 2.106 . S
O699 Mg691 2.238 . S
O699 C692 1.289 . S
C700 O701 1.245 . S
C700 O702 1.274 . S
O701 Mg688 2.079 . S
O701 C700 1.245 . S
O702 Mg687 2.038 . S
O702 C700 1.274 . S
O703 Mg691 2.042 . S
O703 C706 1.241 . S
O704 Mg690 1.984 . S
O704 C706 1.280 . S
O705 Mg691 2.041 . S
O705 C709 1.277 . S
C706 O703 1.241 . S
C706 O704 1.280 . S
O707 Mg690 1.988 . S
O707 C709 1.245 . S
O708 C684 1.247 . S
O708 Mg690 2.061 . S
C709 O705 1.277 . S
C709 O707 1.245 . S
O710 C684 1.289 . S
O710 Mg687 2.238 . S
O710 Mg688 2.106 . S
O711 Mg688 2.079 . S
O711 C693 1.245 . S
O712 Mg691 2.038 . S
O712 C693 1.274 . S
C713 O725 1.241 . S
C713 O726 1.280 . S
C714 O727 1.277 . S
C714 O728 1.245 . S
C715 O739 1.247 . S
C715 O741 1.289 . S
Mg716 O717 1.926 . S
Mg716 O726 1.984 . S
Mg716 O728 1.988 . S
Mg716 O729 2.061 . S
O717 Mg716 1.926 . S
O717 Mg718 1.986 . S
O717 Mg719 1.917 . S
Mg718 O717 1.986 . S
Mg718 O725 2.042 . S
Mg718 O727 2.041 . S
Mg718 O733 2.038 . S
Mg718 O741 2.238 . S
Mg719 O717 1.917 . S
Mg719 O720 1.917 . S
Mg719 O730 2.106 . S
Mg719 O732 2.079 . S
Mg719 O741 2.106 . S
Mg719 O742 2.079 . S
O720 Mg719 1.917 . S
O720 Mg721 1.926 . S
O720 Mg722 1.986 . S
Mg721 O720 1.926 . S
Mg721 O735 1.984 . S
Mg721 O738 1.988 . S
Mg721 O739 2.061 . S
Mg722 O720 1.986 . S
Mg722 O730 2.238 . S
Mg722 O734 2.042 . S
Mg722 O736 2.041 . S
Mg722 O743 2.038 . S
C723 O729 1.247 . S
C723 O730 1.289 . S
C724 O742 1.245 . S
C724 O743 1.274 . S
O725 C713 1.241 . S
O725 Mg718 2.042 . S
O726 C713 1.280 . S
O726 Mg716 1.984 . S
O727 C714 1.277 . S
O727 Mg718 2.041 . S
O728 C714 1.245 . S
O728 Mg716 1.988 . S
O729 Mg716 2.061 . S
O729 C723 1.247 . S
O730 Mg719 2.106 . S
O730 Mg722 2.238 . S
O730 C723 1.289 . S
C731 O732 1.245 . S
C731 O733 1.274 . S
O732 Mg719 2.079 . S
O732 C731 1.245 . S
O733 Mg718 2.038 . S
O733 C731 1.274 . S
O734 Mg722 2.042 . S
O734 C737 1.241 . S
O735 Mg721 1.984 . S
O735 C737 1.280 . S
O736 Mg722 2.041 . S
O736 C740 1.277 . S
C737 O734 1.241 . S
C737 O735 1.280 . S
O738 Mg721 1.988 . S
O738 C740 1.245 . S
O739 C715 1.247 . S
O739 Mg721 2.061 . S
C740 O736 1.277 . S
C740 O738 1.245 . S
O741 C715 1.289 . S
O741 Mg718 2.238 . S
O741 Mg719 2.106 . S
O742 Mg719 2.079 . S
O742 C724 1.245 . S
O743 Mg722 2.038 . S
O743 C724 1.274 . S
C744 O756 1.241 . S
C744 O757 1.280 . S
C745 O758 1.277 . S
C745 O759 1.245 . S
C746 O770 1.247 . S
C746 O772 1.289 . S
Mg747 O748 1.926 . S
Mg747 O757 1.984 . S
Mg747 O759 1.988 . S
Mg747 O760 2.061 . S
O748 Mg747 1.926 . S
O748 Mg749 1.986 . S
O748 Mg750 1.917 . S
Mg749 O748 1.986 . S
Mg749 O756 2.042 . S
Mg749 O758 2.041 . S
Mg749 O764 2.038 . S
Mg749 O772 2.238 . S
Mg750 O748 1.917 . S
Mg750 O751 1.917 . S
Mg750 O761 2.106 . S
Mg750 O763 2.079 . S
Mg750 O772 2.106 . S
Mg750 O773 2.079 . S
O751 Mg750 1.917 . S
O751 Mg752 1.926 . S
O751 Mg753 1.986 . S
Mg752 O751 1.926 . S
Mg752 O766 1.984 . S
Mg752 O769 1.988 . S
Mg752 O770 2.061 . S
Mg753 O751 1.986 . S
Mg753 O761 2.238 . S
Mg753 O765 2.042 . S
Mg753 O767 2.041 . S
Mg753 O774 2.038 . S
C754 O760 1.247 . S
C754 O761 1.289 . S
C755 O773 1.245 . S
C755 O774 1.274 . S
O756 C744 1.241 . S
O756 Mg749 2.042 . S
O757 C744 1.280 . S
O757 Mg747 1.984 . S
O758 C745 1.277 . S
O758 Mg749 2.041 . S
O759 C745 1.245 . S
O759 Mg747 1.988 . S
O760 Mg747 2.061 . S
O760 C754 1.247 . S
O761 Mg750 2.106 . S
O761 Mg753 2.238 . S
O761 C754 1.289 . S
C762 O763 1.245 . S
C762 O764 1.274 . S
O763 Mg750 2.079 . S
O763 C762 1.245 . S
O764 Mg749 2.038 . S
O764 C762 1.274 . S
O765 Mg753 2.042 . S
O765 C768 1.241 . S
O766 Mg752 1.984 . S
O766 C768 1.280 . S
O767 Mg753 2.041 . S
O767 C771 1.277 . S
C768 O765 1.241 . S
C768 O766 1.280 . S
O769 Mg752 1.988 . S
O769 C771 1.245 . S
O770 C746 1.247 . S
O770 Mg752 2.061 . S
C771 O767 1.277 . S
C771 O769 1.245 . S
O772 C746 1.289 . S
O772 Mg749 2.238 . S
O772 Mg750 2.106 . S
O773 Mg750 2.079 . S
O773 C755 1.245 . S
O774 Mg753 2.038 . S
O774 C755 1.274 . S
C775 O787 1.241 . S
C775 O788 1.280 . S
C776 O789 1.277 . S
C776 O790 1.245 . S
C777 O801 1.247 . S
C777 O803 1.289 . S
Mg778 O779 1.926 . S
Mg778 O788 1.984 . S
Mg778 O790 1.988 . S
Mg778 O791 2.061 . S
O779 Mg778 1.926 . S
O779 Mg780 1.986 . S
O779 Mg781 1.917 . S
Mg780 O779 1.986 . S
Mg780 O787 2.042 . S
Mg780 O789 2.041 . S
Mg780 O795 2.038 . S
Mg780 O803 2.238 . S
Mg781 O779 1.917 . S
Mg781 O782 1.917 . S
Mg781 O792 2.106 . S
Mg781 O794 2.079 . S
Mg781 O803 2.106 . S
Mg781 O804 2.079 . S
O782 Mg781 1.917 . S
O782 Mg783 1.926 . S
O782 Mg784 1.986 . S
Mg783 O782 1.926 . S
Mg783 O797 1.984 . S
Mg783 O800 1.988 . S
Mg783 O801 2.061 . S
Mg784 O782 1.986 . S
Mg784 O792 2.238 . S
Mg784 O796 2.042 . S
Mg784 O798 2.041 . S
Mg784 O805 2.038 . S
C785 O791 1.247 . S
C785 O792 1.289 . S
C786 O804 1.245 . S
C786 O805 1.274 . S
O787 C775 1.241 . S
O787 Mg780 2.042 . S
O788 C775 1.280 . S
O788 Mg778 1.984 . S
O789 C776 1.277 . S
O789 Mg780 2.041 . S
O790 C776 1.245 . S
O790 Mg778 1.988 . S
O791 Mg778 2.061 . S
O791 C785 1.247 . S
O792 Mg781 2.106 . S
O792 Mg784 2.238 . S
O792 C785 1.289 . S
C793 O794 1.245 . S
C793 O795 1.274 . S
O794 Mg781 2.079 . S
O794 C793 1.245 . S
O795 Mg780 2.038 . S
O795 C793 1.274 . S
O796 Mg784 2.042 . S
O796 C799 1.241 . S
O797 Mg783 1.984 . S
O797 C799 1.280 . S
O798 Mg784 2.041 . S
O798 C802 1.277 . S
C799 O796 1.241 . S
C799 O797 1.280 . S
O800 Mg783 1.988 . S
O800 C802 1.245 . S
O801 C777 1.247 . S
O801 Mg783 2.061 . S
C802 O798 1.277 . S
C802 O800 1.245 . S
O803 C777 1.289 . S
O803 Mg780 2.238 . S
O803 Mg781 2.106 . S
O804 Mg781 2.079 . S
O804 C786 1.245 . S
O805 Mg784 2.038 . S
O805 C786 1.274 . S
C806 O818 1.241 . S
C806 O819 1.280 . S
C807 O820 1.277 . S
C807 O821 1.245 . S
C808 O832 1.247 . S
C808 O834 1.289 1_565 S
Mg809 O810 1.926 . S
Mg809 O819 1.984 . S
Mg809 O821 1.988 . S
Mg809 O822 2.061 . S
O810 Mg809 1.926 . S
O810 Mg811 1.986 . S
O810 Mg812 1.917 . S
Mg811 O810 1.986 . S
Mg811 O818 2.042 . S
Mg811 O820 2.041 . S
Mg811 O826 2.038 . S
Mg811 O834 2.238 . S
Mg812 O810 1.917 . S
Mg812 O813 1.917 . S
Mg812 O823 2.106 . S
Mg812 O825 2.079 . S
Mg812 O834 2.106 . S
Mg812 O835 2.079 . S
O813 Mg812 1.917 . S
O813 Mg814 1.926 1_545 S
O813 Mg815 1.986 . S
Mg814 O813 1.926 1_565 S
Mg814 O828 1.984 . S
Mg814 O831 1.988 . S
Mg814 O832 2.061 . S
Mg815 O813 1.986 . S
Mg815 O823 2.238 . S
Mg815 O827 2.032 1_545 S
Mg815 O829 2.041 1_545 S
Mg815 O836 2.038 . S
C816 O822 1.247 . S
C816 O823 1.289 . S
C817 O835 1.245 . S
C817 O836 1.274 . S
O818 C806 1.241 . S
O818 Mg811 2.042 . S
O819 C806 1.280 . S
O819 Mg809 1.984 . S
O820 C807 1.277 . S
O820 Mg811 2.041 . S
O821 C807 1.245 . S
O821 Mg809 1.988 . S
O822 Mg809 2.061 . S
O822 C816 1.247 . S
O823 Mg812 2.106 . S
O823 Mg815 2.238 . S
O823 C816 1.289 . S
C824 O825 1.245 . S
C824 O826 1.274 . S
O825 Mg812 2.079 . S
O825 C824 1.245 . S
O826 Mg811 2.038 . S
O826 C824 1.274 . S
O827 Mg815 2.032 1_565 S
O827 C830 1.255 . S
O828 Mg814 1.984 . S
O828 C830 1.280 . S
O829 Mg815 2.041 1_565 S
O829 C833 1.277 . S
C830 O827 1.255 . S
C830 O828 1.280 . S
O831 Mg814 1.988 . S
O831 C833 1.245 . S
O832 C808 1.247 . S
O832 Mg814 2.061 . S
C833 O829 1.277 . S
C833 O831 1.245 . S
O834 C808 1.289 1_545 S
O834 Mg811 2.238 . S
O834 Mg812 2.106 . S
O835 Mg812 2.079 . S
O835 C817 1.245 . S
O836 Mg815 2.038 . S
O836 C817 1.274 . S
C837 O849 1.241 . S
C837 O850 1.280 . S
C838 O851 1.277 . S
C838 O852 1.245 . S
C839 O863 1.247 . S
C839 O865 1.289 . S
Mg840 O841 1.926 . S
Mg840 O850 1.984 . S
Mg840 O852 1.988 . S
Mg840 O853 2.061 . S
O841 Mg840 1.926 . S
O841 Mg842 1.986 . S
O841 Mg843 1.917 . S
Mg842 O841 1.986 . S
Mg842 O849 2.042 . S
Mg842 O851 2.041 . S
Mg842 O857 2.038 . S
Mg842 O865 2.238 . S
Mg843 O841 1.917 . S
Mg843 O844 1.917 . S
Mg843 O854 2.106 . S
Mg843 O856 2.079 . S
Mg843 O865 2.106 . S
Mg843 O866 2.079 . S
O844 Mg843 1.917 . S
O844 Mg845 1.926 . S
O844 Mg846 1.986 . S
Mg845 O844 1.926 . S
Mg845 O859 1.984 . S
Mg845 O862 1.988 . S
Mg845 O863 2.061 . S
Mg846 O844 1.986 . S
Mg846 O854 2.238 . S
Mg846 O858 2.042 . S
Mg846 O860 2.041 . S
Mg846 O867 2.038 . S
C847 O853 1.247 . S
C847 O854 1.289 . S
C848 O866 1.245 . S
C848 O867 1.274 . S
O849 C837 1.241 . S
O849 Mg842 2.042 . S
O850 C837 1.280 . S
O850 Mg840 1.984 . S
O851 C838 1.277 . S
O851 Mg842 2.041 . S
O852 C838 1.245 . S
O852 Mg840 1.988 . S
O853 Mg840 2.061 . S
O853 C847 1.247 . S
O854 Mg843 2.106 . S
O854 Mg846 2.238 . S
O854 C847 1.289 . S
C855 O856 1.245 . S
C855 O857 1.274 . S
O856 Mg843 2.079 . S
O856 C855 1.245 . S
O857 Mg842 2.038 . S
O857 C855 1.274 . S
O858 Mg846 2.042 . S
O858 C861 1.241 . S
O859 Mg845 1.984 . S
O859 C861 1.280 . S
O860 Mg846 2.041 . S
O860 C864 1.277 . S
C861 O858 1.241 . S
C861 O859 1.280 . S
O862 Mg845 1.988 . S
O862 C864 1.245 . S
O863 C839 1.247 . S
O863 Mg845 2.061 . S
C864 O860 1.277 . S
C864 O862 1.245 . S
O865 C839 1.289 . S
O865 Mg842 2.238 . S
O865 Mg843 2.106 . S
O866 Mg843 2.079 . S
O866 C848 1.245 . S
O867 Mg846 2.038 . S
O867 C848 1.274 . S
C868 O880 1.241 . S
C868 O881 1.280 . S
C869 O882 1.277 . S
C869 O883 1.245 . S
C870 O894 1.247 . S
C870 O896 1.289 . S
Mg871 O872 1.926 . S
Mg871 O881 1.984 . S
Mg871 O883 1.988 . S
Mg871 O884 2.061 . S
O872 Mg871 1.926 . S
O872 Mg873 1.986 . S
O872 Mg874 1.917 . S
Mg873 O872 1.986 . S
Mg873 O880 2.042 . S
Mg873 O882 2.041 . S
Mg873 O888 2.038 . S
Mg873 O896 2.238 . S
Mg874 O872 1.917 . S
Mg874 O875 1.917 . S
Mg874 O885 2.106 . S
Mg874 O887 2.079 . S
Mg874 O896 2.106 . S
Mg874 O897 2.079 . S
O875 Mg874 1.917 . S
O875 Mg876 1.926 . S
O875 Mg877 1.986 . S
Mg876 O875 1.926 . S
Mg876 O890 1.984 . S
Mg876 O893 1.988 . S
Mg876 O894 2.061 . S
Mg877 O875 1.986 . S
Mg877 O885 2.238 . S
Mg877 O889 2.042 . S
Mg877 O891 2.041 . S
Mg877 O898 2.038 . S
C878 O884 1.247 . S
C878 O885 1.289 . S
C879 O897 1.245 . S
C879 O898 1.274 . S
O880 C868 1.241 . S
O880 Mg873 2.042 . S
O881 C868 1.280 . S
O881 Mg871 1.984 . S
O882 C869 1.277 . S
O882 Mg873 2.041 . S
O883 C869 1.245 . S
O883 Mg871 1.988 . S
O884 Mg871 2.061 . S
O884 C878 1.247 . S
O885 Mg874 2.106 . S
O885 Mg877 2.238 . S
O885 C878 1.289 . S
C886 O887 1.245 . S
C886 O888 1.274 . S
O887 Mg874 2.079 . S
O887 C886 1.245 . S
O888 Mg873 2.038 . S
O888 C886 1.274 . S
O889 Mg877 2.042 . S
O889 C892 1.241 . S
O890 Mg876 1.984 . S
O890 C892 1.280 . S
O891 Mg877 2.041 . S
O891 C895 1.277 . S
C892 O889 1.241 . S
C892 O890 1.280 . S
O893 Mg876 1.988 . S
O893 C895 1.245 . S
O894 C870 1.247 . S
O894 Mg876 2.061 . S
C895 O891 1.277 . S
C895 O893 1.245 . S
O896 C870 1.289 . S
O896 Mg873 2.238 . S
O896 Mg874 2.106 . S
O897 Mg874 2.079 . S
O897 C879 1.245 . S
O898 Mg877 2.038 . S
O898 C879 1.274 . S
C899 O911 1.241 . S
C899 O912 1.280 . S
C900 O913 1.277 . S
C900 O914 1.245 . S
C901 O925 1.247 . S
C901 O927 1.289 1_455 S
Mg902 O903 1.926 . S
Mg902 O912 1.984 . S
Mg902 O914 1.988 . S
Mg902 O915 2.061 . S
O903 Mg902 1.926 . S
O903 Mg904 1.986 . S
O903 Mg905 1.917 . S
Mg904 O903 1.986 . S
Mg904 O911 2.042 . S
Mg904 O913 2.041 . S
Mg904 O919 2.038 . S
Mg904 O927 2.238 . S
Mg905 O903 1.917 . S
Mg905 O906 1.917 . S
Mg905 O916 2.106 . S
Mg905 O918 2.079 . S
Mg905 O927 2.106 . S
Mg905 O928 2.079 . S
O906 Mg905 1.917 . S
O906 Mg907 1.926 1_655 S
O906 Mg908 1.986 . S
Mg907 O906 1.926 1_455 S
Mg907 O921 1.984 . S
Mg907 O924 1.988 . S
Mg907 O925 2.061 . S
Mg908 O906 1.986 . S
Mg908 O916 2.238 . S
Mg908 O920 2.042 1_655 S
Mg908 O922 2.041 1_655 S
Mg908 O929 2.038 . S
C909 O915 1.247 . S
C909 O916 1.289 . S
C910 O928 1.245 . S
C910 O929 1.274 . S
O911 C899 1.241 . S
O911 Mg904 2.042 . S
O912 C899 1.280 . S
O912 Mg902 1.984 . S
O913 C900 1.277 . S
O913 Mg904 2.041 . S
O914 C900 1.245 . S
O914 Mg902 1.988 . S
O915 Mg902 2.061 . S
O915 C909 1.247 . S
O916 Mg905 2.106 . S
O916 Mg908 2.238 . S
O916 C909 1.289 . S
C917 O918 1.245 . S
C917 O919 1.274 . S
O918 Mg905 2.079 . S
O918 C917 1.245 . S
O919 Mg904 2.038 . S
O919 C917 1.274 . S
O920 Mg908 2.042 1_455 S
O920 C923 1.241 . S
O921 Mg907 1.984 . S
O921 C923 1.280 . S
O922 Mg908 2.041 1_455 S
O922 C926 1.277 . S
C923 O920 1.241 . S
C923 O921 1.280 . S
O924 Mg907 1.988 . S
O924 C926 1.245 . S
O925 C901 1.247 . S
O925 Mg907 2.061 . S
C926 O922 1.277 . S
C926 O924 1.245 . S
O927 C901 1.289 1_655 S
O927 Mg904 2.238 . S
O927 Mg905 2.106 . S
O928 Mg905 2.079 . S
O928 C910 1.245 . S
O929 Mg908 2.038 . S
O929 C910 1.274 . S
C930 O942 1.241 . S
C930 O943 1.280 . S
C931 O944 1.277 . S
C931 O945 1.245 . S
C932 O956 1.247 . S
C932 O958 1.289 . S
Mg933 O934 1.926 . S
Mg933 O943 1.984 . S
Mg933 O945 1.988 . S
Mg933 O946 2.061 . S
O934 Mg933 1.926 . S
O934 Mg935 1.986 . S
O934 Mg936 1.917 . S
Mg935 O934 1.986 . S
Mg935 O942 2.042 . S
Mg935 O944 2.041 . S
Mg935 O950 2.038 . S
Mg935 O958 2.238 . S
Mg936 O934 1.917 . S
Mg936 O937 1.917 . S
Mg936 O947 2.106 . S
Mg936 O949 2.079 . S
Mg936 O958 2.106 . S
Mg936 O959 2.079 . S
O937 Mg936 1.917 . S
O937 Mg938 1.926 . S
O937 Mg939 1.986 . S
Mg938 O937 1.926 . S
Mg938 O952 1.984 . S
Mg938 O955 1.988 . S
Mg938 O956 2.061 . S
Mg939 O937 1.986 . S
Mg939 O947 2.238 . S
Mg939 O951 2.042 . S
Mg939 O953 2.041 . S
Mg939 O960 2.038 . S
C940 O946 1.247 . S
C940 O947 1.289 . S
C941 O959 1.245 . S
C941 O960 1.274 . S
O942 C930 1.241 . S
O942 Mg935 2.042 . S
O943 C930 1.280 . S
O943 Mg933 1.984 . S
O944 C931 1.277 . S
O944 Mg935 2.041 . S
O945 C931 1.245 . S
O945 Mg933 1.988 . S
O946 Mg933 2.061 . S
O946 C940 1.247 . S
O947 Mg936 2.106 . S
O947 Mg939 2.238 . S
O947 C940 1.289 . S
C948 O949 1.245 . S
C948 O950 1.274 . S
O949 Mg936 2.079 . S
O949 C948 1.245 . S
O950 Mg935 2.038 . S
O950 C948 1.274 . S
O951 Mg939 2.042 . S
O951 C954 1.241 . S
O952 Mg938 1.984 . S
O952 C954 1.280 . S
O953 Mg939 2.041 . S
O953 C957 1.277 . S
C954 O951 1.241 . S
C954 O952 1.280 . S
O955 Mg938 1.988 . S
O955 C957 1.245 . S
O956 C932 1.247 . S
O956 Mg938 2.061 . S
C957 O953 1.277 . S
C957 O955 1.245 . S
O958 C932 1.289 . S
O958 Mg935 2.238 . S
O958 Mg936 2.106 . S
O959 Mg936 2.079 . S
O959 C941 1.245 . S
O960 Mg939 2.038 . S
O960 C941 1.274 . S
C961 O973 1.241 . S
C961 O974 1.280 . S
C962 O975 1.277 . S
C962 O976 1.245 . S
C963 O987 1.247 . S
C963 O989 1.289 . S
Mg964 O965 1.926 . S
Mg964 O974 1.984 . S
Mg964 O976 1.988 . S
Mg964 O977 2.061 . S
O965 Mg964 1.926 . S
O965 Mg966 1.986 . S
O965 Mg967 1.917 . S
Mg966 O965 1.986 . S
Mg966 O973 2.042 . S
Mg966 O975 2.041 . S
Mg966 O981 2.038 . S
Mg966 O989 2.238 . S
Mg967 O965 1.917 . S
Mg967 O968 1.917 . S
Mg967 O978 2.106 . S
Mg967 O980 2.079 . S
Mg967 O989 2.106 . S
Mg967 O990 2.079 . S
O968 Mg967 1.917 . S
O968 Mg969 1.926 . S
O968 Mg970 1.986 . S
Mg969 O968 1.926 . S
Mg969 O983 1.984 . S
Mg969 O986 1.988 . S
Mg969 O987 2.061 . S
Mg970 O968 1.986 . S
Mg970 O978 2.238 . S
Mg970 O982 2.042 . S
Mg970 O984 2.041 . S
Mg970 O991 2.038 . S
C971 O977 1.247 . S
C971 O978 1.289 . S
C972 O990 1.245 . S
C972 O991 1.274 . S
O973 C961 1.241 . S
O973 Mg966 2.042 . S
O974 C961 1.280 . S
O974 Mg964 1.984 . S
O975 C962 1.277 . S
O975 Mg966 2.041 . S
O976 C962 1.245 . S
O976 Mg964 1.988 . S
O977 Mg964 2.061 . S
O977 C971 1.247 . S
O978 Mg967 2.106 . S
O978 Mg970 2.238 . S
O978 C971 1.289 . S
C979 O980 1.245 . S
C979 O981 1.274 . S
O980 Mg967 2.079 . S
O980 C979 1.245 . S
O981 Mg966 2.038 . S
O981 C979 1.274 . S
O982 Mg970 2.042 . S
O982 C985 1.241 . S
O983 Mg969 1.984 . S
O983 C985 1.280 . S
O984 Mg970 2.041 . S
O984 C988 1.277 . S
C985 O982 1.241 . S
C985 O983 1.280 . S
O986 Mg969 1.988 . S
O986 C988 1.245 . S
O987 C963 1.247 . S
O987 Mg969 2.061 . S
C988 O984 1.277 . S
C988 O986 1.245 . S
O989 C963 1.289 . S
O989 Mg966 2.238 . S
O989 Mg967 2.106 . S
O990 Mg967 2.079 . S
O990 C972 1.245 . S
O991 Mg970 2.038 . S
O991 C972 1.274 . S
C992 O1004 1.241 . S
C992 O1005 1.280 . S
C993 O1006 1.277 . S
C993 O1007 1.245 . S
C994 O1018 1.247 . S
C994 O1020 1.289 . S
Mg995 O996 1.926 . S
Mg995 O1005 1.984 . S
Mg995 O1007 1.988 . S
Mg995 O1008 2.061 . S
O996 Mg995 1.926 . S
O996 Mg997 1.986 . S
O996 Mg998 1.917 . S
Mg997 O996 1.986 . S
Mg997 O1004 2.042 . S
Mg997 O1006 2.041 . S
Mg997 O1012 2.038 . S
Mg997 O1020 2.238 . S
Mg998 O996 1.917 . S
Mg998 O999 1.917 . S
Mg998 O1009 2.106 . S
Mg998 O1011 2.079 . S
Mg998 O1020 2.106 . S
Mg998 O1021 2.079 . S
O999 Mg998 1.917 . S
O999 Mg1000 1.926 . S
O999 Mg1001 1.986 . S
Mg1000 O999 1.926 . S
Mg1000 O1014 1.984 . S
Mg1000 O1017 1.988 . S
Mg1000 O1018 2.061 . S
Mg1001 O999 1.986 . S
Mg1001 O1009 2.238 . S
Mg1001 O1013 2.042 . S
Mg1001 O1015 2.041 . S
Mg1001 O1022 2.038 . S
C1002 O1008 1.247 . S
C1002 O1009 1.289 . S
C1003 O1021 1.245 . S
C1003 O1022 1.274 . S
O1004 C992 1.241 . S
O1004 Mg997 2.042 . S
O1005 C992 1.280 . S
O1005 Mg995 1.984 . S
O1006 C993 1.277 . S
O1006 Mg997 2.041 . S
O1007 C993 1.245 . S
O1007 Mg995 1.988 . S
O1008 Mg995 2.061 . S
O1008 C1002 1.247 . S
O1009 Mg998 2.106 . S
O1009 Mg1001 2.238 . S
O1009 C1002 1.289 . S
C1010 O1011 1.245 . S
C1010 O1012 1.274 . S
O1011 Mg998 2.079 . S
O1011 C1010 1.245 . S
O1012 Mg997 2.038 . S
O1012 C1010 1.274 . S
O1013 Mg1001 2.042 . S
O1013 C1016 1.241 . S
O1014 Mg1000 1.984 . S
O1014 C1016 1.280 . S
O1015 Mg1001 2.041 . S
O1015 C1019 1.277 . S
C1016 O1013 1.241 . S
C1016 O1014 1.280 . S
O1017 Mg1000 1.988 . S
O1017 C1019 1.245 . S
O1018 C994 1.247 . S
O1018 Mg1000 2.061 . S
C1019 O1015 1.277 . S
C1019 O1017 1.245 . S
O1020 C994 1.289 . S
O1020 Mg997 2.238 . S
O1020 Mg998 2.106 . S
O1021 Mg998 2.079 . S
O1021 C1003 1.245 . S
O1022 Mg1001 2.038 . S
O1022 C1003 1.274 . S
C1023 O1035 1.241 . S
C1023 O1036 1.280 . S
C1024 O1037 1.277 . S
C1024 O1038 1.245 . S
C1025 O1049 1.247 . S
C1025 O1051 1.289 . S
Mg1026 O1027 1.926 . S
Mg1026 O1036 1.984 . S
Mg1026 O1038 1.988 . S
Mg1026 O1039 2.061 . S
O1027 Mg1026 1.926 . S
O1027 Mg1028 1.986 . S
O1027 Mg1029 1.917 . S
Mg1028 O1027 1.986 . S
Mg1028 O1035 2.042 . S
Mg1028 O1037 2.041 . S
Mg1028 O1043 2.038 . S
Mg1028 O1051 2.238 . S
Mg1029 O1027 1.917 . S
Mg1029 O1030 1.917 . S
Mg1029 O1040 2.106 . S
Mg1029 O1042 2.079 . S
Mg1029 O1051 2.106 . S
Mg1029 O1052 2.079 . S
O1030 Mg1029 1.917 . S
O1030 Mg1031 1.926 . S
O1030 Mg1032 1.986 . S
Mg1031 O1030 1.926 . S
Mg1031 O1045 1.984 . S
Mg1031 O1048 1.988 . S
Mg1031 O1049 2.061 . S
Mg1032 O1030 1.986 . S
Mg1032 O1040 2.238 . S
Mg1032 O1044 2.042 . S
Mg1032 O1046 2.041 . S
Mg1032 O1053 2.038 . S
C1033 O1039 1.247 . S
C1033 O1040 1.289 . S
C1034 O1052 1.245 . S
C1034 O1053 1.274 . S
O1035 C1023 1.241 . S
O1035 Mg1028 2.042 . S
O1036 C1023 1.280 . S
O1036 Mg1026 1.984 . S
O1037 C1024 1.277 . S
O1037 Mg1028 2.041 . S
O1038 C1024 1.245 . S
O1038 Mg1026 1.988 . S
O1039 Mg1026 2.061 . S
O1039 C1033 1.247 . S
O1040 Mg1029 2.106 . S
O1040 Mg1032 2.238 . S
O1040 C1033 1.289 . S
C1041 O1042 1.245 . S
C1041 O1043 1.274 . S
O1042 Mg1029 2.079 . S
O1042 C1041 1.245 . S
O1043 Mg1028 2.038 . S
O1043 C1041 1.274 . S
O1044 Mg1032 2.042 . S
O1044 C1047 1.241 . S
O1045 Mg1031 1.984 . S
O1045 C1047 1.280 . S
O1046 Mg1032 2.041 . S
O1046 C1050 1.277 . S
C1047 O1044 1.241 . S
C1047 O1045 1.280 . S
O1048 Mg1031 1.988 . S
O1048 C1050 1.245 . S
O1049 C1025 1.247 . S
O1049 Mg1031 2.061 . S
C1050 O1046 1.277 . S
C1050 O1048 1.245 . S
O1051 C1025 1.289 . S
O1051 Mg1028 2.238 . S
O1051 Mg1029 2.106 . S
O1052 Mg1029 2.079 . S
O1052 C1034 1.245 . S
O1053 Mg1032 2.038 . S
O1053 C1034 1.274 . S
C1054 O1066 1.241 . S
C1054 O1067 1.280 . S
C1055 O1068 1.277 . S
C1055 O1069 1.245 . S
C1056 O1080 1.247 . S
C1056 O1082 1.289 . S
Mg1057 O1058 1.926 . S
Mg1057 O1067 1.984 . S
Mg1057 O1069 1.988 . S
Mg1057 O1070 2.061 . S
O1058 Mg1057 1.926 . S
O1058 Mg1059 1.986 . S
O1058 Mg1060 1.917 . S
Mg1059 O1058 1.986 . S
Mg1059 O1066 2.042 . S
Mg1059 O1068 2.041 . S
Mg1059 O1074 2.038 . S
Mg1059 O1082 2.238 . S
Mg1060 O1058 1.917 . S
Mg1060 O1061 1.917 . S
Mg1060 O1071 2.106 . S
Mg1060 O1073 2.079 . S
Mg1060 O1082 2.106 . S
Mg1060 O1083 2.079 . S
O1061 Mg1060 1.917 . S
O1061 Mg1062 1.926 . S
O1061 Mg1063 1.986 . S
Mg1062 O1061 1.926 . S
Mg1062 O1076 1.984 . S
Mg1062 O1079 1.988 . S
Mg1062 O1080 2.061 . S
Mg1063 O1061 1.986 . S
Mg1063 O1071 2.238 . S
Mg1063 O1075 2.042 . S
Mg1063 O1077 2.041 . S
Mg1063 O1084 2.038 . S
C1064 O1070 1.247 . S
C1064 O1071 1.289 . S
C1065 O1083 1.245 . S
C1065 O1084 1.274 . S
O1066 C1054 1.241 . S
O1066 Mg1059 2.042 . S
O1067 C1054 1.280 . S
O1067 Mg1057 1.984 . S
O1068 C1055 1.277 . S
O1068 Mg1059 2.041 . S
O1069 C1055 1.245 . S
O1069 Mg1057 1.988 . S
O1070 Mg1057 2.061 . S
O1070 C1064 1.247 . S
O1071 Mg1060 2.106 . S
O1071 Mg1063 2.238 . S
O1071 C1064 1.289 . S
C1072 O1073 1.245 . S
C1072 O1074 1.274 . S
O1073 Mg1060 2.079 . S
O1073 C1072 1.245 . S
O1074 Mg1059 2.038 . S
O1074 C1072 1.274 . S
O1075 Mg1063 2.042 . S
O1075 C1078 1.241 . S
O1076 Mg1062 1.984 . S
O1076 C1078 1.280 . S
O1077 Mg1063 2.041 . S
O1077 C1081 1.277 . S
C1078 O1075 1.241 . S
C1078 O1076 1.280 . S
O1079 Mg1062 1.988 . S
O1079 C1081 1.245 . S
O1080 C1056 1.247 . S
O1080 Mg1062 2.061 . S
C1081 O1077 1.277 . S
C1081 O1079 1.245 . S
O1082 C1056 1.289 . S
O1082 Mg1059 2.238 . S
O1082 Mg1060 2.106 . S
O1083 Mg1060 2.079 . S
O1083 C1065 1.245 . S
O1084 Mg1063 2.038 . S
O1084 C1065 1.274 . S
C1085 O1097 1.241 . S
C1085 O1098 1.280 . S
C1086 O1099 1.277 . S
C1086 O1100 1.245 . S
C1087 O1111 1.247 . S
C1087 O1113 1.289 . S
Mg1088 O1089 1.926 1_655 S
Mg1088 O1098 1.984 . S
Mg1088 O1100 1.988 . S
Mg1088 O1101 2.061 . S
O1089 Mg1088 1.926 1_455 S
O1089 Mg1090 1.986 . S
O1089 Mg1091 1.917 . S
Mg1090 O1089 1.986 . S
Mg1090 O1097 2.042 1_455 S
Mg1090 O1099 2.041 1_455 S
Mg1090 O1105 2.038 . S
Mg1090 O1113 2.238 . S
Mg1091 O1089 1.917 . S
Mg1091 O1092 1.917 . S
Mg1091 O1102 2.106 . S
Mg1091 O1104 2.079 . S
Mg1091 O1113 2.106 . S
Mg1091 O1114 2.079 . S
O1092 Mg1091 1.917 . S
O1092 Mg1093 1.926 . S
O1092 Mg1094 1.986 . S
Mg1093 O1092 1.926 . S
Mg1093 O1107 1.984 . S
Mg1093 O1110 1.988 . S
Mg1093 O1111 2.061 . S
Mg1094 O1092 1.986 . S
Mg1094 O1102 2.238 . S
Mg1094 O1106 2.042 . S
Mg1094 O1108 2.041 . S
Mg1094 O1115 2.038 . S
C1095 O1101 1.247 . S
C1095 O1102 1.289 1_655 S
C1096 O1114 1.245 . S
C1096 O1115 1.274 . S
O1097 C1085 1.241 . S
O1097 Mg1090 2.042 1_655 S
O1098 C1085 1.280 . S
O1098 Mg1088 1.984 . S
O1099 C1086 1.277 . S
O1099 Mg1090 2.041 1_655 S
O1100 C1086 1.245 . S
O1100 Mg1088 1.988 . S
O1101 Mg1088 2.061 . S
O1101 C1095 1.247 . S
O1102 Mg1091 2.106 . S
O1102 Mg1094 2.238 . S
O1102 C1095 1.289 1_455 S
C1103 O1104 1.245 . S
C1103 O1105 1.274 . S
O1104 Mg1091 2.079 . S
O1104 C1103 1.245 . S
O1105 Mg1090 2.038 . S
O1105 C1103 1.274 . S
O1106 Mg1094 2.042 . S
O1106 C1109 1.241 . S
O1107 Mg1093 1.984 . S
O1107 C1109 1.280 . S
O1108 Mg1094 2.041 . S
O1108 C1112 1.277 . S
C1109 O1106 1.241 . S
C1109 O1107 1.280 . S
O1110 Mg1093 1.988 . S
O1110 C1112 1.245 . S
O1111 C1087 1.247 . S
O1111 Mg1093 2.061 . S
C1112 O1108 1.277 . S
C1112 O1110 1.245 . S
O1113 C1087 1.289 . S
O1113 Mg1090 2.238 . S
O1113 Mg1091 2.106 . S
O1114 Mg1091 2.079 . S
O1114 C1096 1.245 . S
O1115 Mg1094 2.038 . S
O1115 C1096 1.274 . S
C1116 O1128 1.241 . S
C1116 O1129 1.280 . S
C1117 O1130 1.277 . S
C1117 O1131 1.245 . S
C1118 O1142 1.247 . S
C1118 O1144 1.289 . S
Mg1119 O1120 1.926 . S
Mg1119 O1129 1.984 . S
Mg1119 O1131 1.988 . S
Mg1119 O1132 2.061 . S
O1120 Mg1119 1.926 . S
O1120 Mg1121 1.986 . S
O1120 Mg1122 1.917 . S
Mg1121 O1120 1.986 . S
Mg1121 O1128 2.042 . S
Mg1121 O1130 2.041 . S
Mg1121 O1136 2.038 . S
Mg1121 O1144 2.238 . S
Mg1122 O1120 1.917 . S
Mg1122 O1123 1.917 . S
Mg1122 O1133 2.106 . S
Mg1122 O1135 2.079 . S
Mg1122 O1144 2.106 . S
Mg1122 O1145 2.079 . S
O1123 Mg1122 1.917 . S
O1123 Mg1124 1.926 . S
O1123 Mg1125 1.986 . S
Mg1124 O1123 1.926 . S
Mg1124 O1138 1.984 . S
Mg1124 O1141 1.988 . S
Mg1124 O1142 2.061 . S
Mg1125 O1123 1.986 . S
Mg1125 O1133 2.238 . S
Mg1125 O1137 2.042 . S
Mg1125 O1139 2.041 . S
Mg1125 O1146 2.038 . S
C1126 O1132 1.247 . S
C1126 O1133 1.289 . S
C1127 O1145 1.245 . S
C1127 O1146 1.274 . S
O1128 C1116 1.241 . S
O1128 Mg1121 2.042 . S
O1129 C1116 1.280 . S
O1129 Mg1119 1.984 . S
O1130 C1117 1.277 . S
O1130 Mg1121 2.041 . S
O1131 C1117 1.245 . S
O1131 Mg1119 1.988 . S
O1132 Mg1119 2.061 . S
O1132 C1126 1.247 . S
O1133 Mg1122 2.106 . S
O1133 Mg1125 2.238 . S
O1133 C1126 1.289 . S
C1134 O1135 1.245 . S
C1134 O1136 1.274 . S
O1135 Mg1122 2.079 . S
O1135 C1134 1.245 . S
O1136 Mg1121 2.038 . S
O1136 C1134 1.274 . S
O1137 Mg1125 2.042 . S
O1137 C1140 1.241 . S
O1138 Mg1124 1.984 . S
O1138 C1140 1.280 . S
O1139 Mg1125 2.041 . S
O1139 C1143 1.277 . S
C1140 O1137 1.241 . S
C1140 O1138 1.280 . S
O1141 Mg1124 1.988 . S
O1141 C1143 1.245 . S
O1142 C1118 1.247 . S
O1142 Mg1124 2.061 . S
C1143 O1139 1.277 . S
C1143 O1141 1.245 . S
O1144 C1118 1.289 . S
O1144 Mg1121 2.238 . S
O1144 Mg1122 2.106 . S
O1145 Mg1122 2.079 . S
O1145 C1127 1.245 . S
O1146 Mg1125 2.038 . S
O1146 C1127 1.274 . S
C1147 O1159 1.241 . S
C1147 O1160 1.280 . S
C1148 O1161 1.277 . S
C1148 O1162 1.245 . S
C1149 O1173 1.247 . S
C1149 O1175 1.289 . S
Mg1150 O1151 1.926 . S
Mg1150 O1160 1.984 . S
Mg1150 O1162 1.988 . S
Mg1150 O1163 2.061 . S
O1151 Mg1150 1.926 . S
O1151 Mg1152 1.986 . S
O1151 Mg1153 1.917 . S
Mg1152 O1151 1.986 . S
Mg1152 O1159 2.042 . S
Mg1152 O1161 2.041 . S
Mg1152 O1167 2.038 . S
Mg1152 O1175 2.238 . S
Mg1153 O1151 1.917 . S
Mg1153 O1154 1.917 . S
Mg1153 O1164 2.106 . S
Mg1153 O1166 2.079 . S
Mg1153 O1175 2.106 . S
Mg1153 O1176 2.079 . S
O1154 Mg1153 1.917 . S
O1154 Mg1155 1.926 . S
O1154 Mg1156 1.986 . S
Mg1155 O1154 1.926 . S
Mg1155 O1169 1.984 . S
Mg1155 O1172 1.988 . S
Mg1155 O1173 2.061 . S
Mg1156 O1154 1.986 . S
Mg1156 O1164 2.238 . S
Mg1156 O1168 2.042 . S
Mg1156 O1170 2.041 . S
Mg1156 O1177 2.038 . S
C1157 O1163 1.247 . S
C1157 O1164 1.289 . S
C1158 O1176 1.245 . S
C1158 O1177 1.274 . S
O1159 C1147 1.241 . S
O1159 Mg1152 2.042 . S
O1160 C1147 1.280 . S
O1160 Mg1150 1.984 . S
O1161 C1148 1.277 . S
O1161 Mg1152 2.041 . S
O1162 C1148 1.245 . S
O1162 Mg1150 1.988 . S
O1163 Mg1150 2.061 . S
O1163 C1157 1.247 . S
O1164 Mg1153 2.106 . S
O1164 Mg1156 2.238 . S
O1164 C1157 1.289 . S
C1165 O1166 1.245 . S
C1165 O1167 1.274 . S
O1166 Mg1153 2.079 . S
O1166 C1165 1.245 . S
O1167 Mg1152 2.038 . S
O1167 C1165 1.274 . S
O1168 Mg1156 2.042 . S
O1168 C1171 1.241 . S
O1169 Mg1155 1.984 . S
O1169 C1171 1.280 . S
O1170 Mg1156 2.041 . S
O1170 C1174 1.277 . S
C1171 O1168 1.241 . S
C1171 O1169 1.280 . S
O1172 Mg1155 1.988 . S
O1172 C1174 1.245 . S
O1173 C1149 1.247 . S
O1173 Mg1155 2.061 . S
C1174 O1170 1.277 . S
C1174 O1172 1.245 . S
O1175 C1149 1.289 . S
O1175 Mg1152 2.238 . S
O1175 Mg1153 2.106 . S
O1176 Mg1153 2.079 . S
O1176 C1158 1.245 . S
O1177 Mg1156 2.038 . S
O1177 C1158 1.274 . S
C1178 O1190 1.241 . S
C1178 O1191 1.280 . S
C1179 O1192 1.277 . S
C1179 O1193 1.245 . S
C1180 O1204 1.247 . S
C1180 O1206 1.289 . S
Mg1181 O1182 1.926 . S
Mg1181 O1191 1.984 . S
Mg1181 O1193 1.988 . S
Mg1181 O1194 2.061 . S
O1182 Mg1181 1.926 . S
O1182 Mg1183 1.986 . S
O1182 Mg1184 1.917 . S
Mg1183 O1182 1.986 . S
Mg1183 O1190 2.042 . S
Mg1183 O1192 2.041 . S
Mg1183 O1198 2.038 . S
Mg1183 O1206 2.238 . S
Mg1184 O1182 1.917 . S
Mg1184 O1185 1.917 . S
Mg1184 O1195 2.106 . S
Mg1184 O1197 2.079 . S
Mg1184 O1206 2.106 . S
Mg1184 O1207 2.079 . S
O1185 Mg1184 1.917 . S
O1185 Mg1186 1.926 . S
O1185 Mg1187 1.986 . S
Mg1186 O1185 1.926 . S
Mg1186 O1200 1.984 . S
Mg1186 O1203 1.988 . S
Mg1186 O1204 2.061 . S
Mg1187 O1185 1.986 . S
Mg1187 O1195 2.238 . S
Mg1187 O1199 2.042 . S
Mg1187 O1201 2.041 . S
Mg1187 O1208 2.038 . S
C1188 O1194 1.247 . S
C1188 O1195 1.289 . S
C1189 O1207 1.245 . S
C1189 O1208 1.274 . S
O1190 C1178 1.241 . S
O1190 Mg1183 2.042 . S
O1191 C1178 1.280 . S
O1191 Mg1181 1.984 . S
O1192 C1179 1.277 . S
O1192 Mg1183 2.041 . S
O1193 C1179 1.245 . S
O1193 Mg1181 1.988 . S
O1194 Mg1181 2.061 . S
O1194 C1188 1.247 . S
O1195 Mg1184 2.106 . S
O1195 Mg1187 2.238 . S
O1195 C1188 1.289 . S
C1196 O1197 1.245 . S
C1196 O1198 1.274 . S
O1197 Mg1184 2.079 . S
O1197 C1196 1.245 . S
O1198 Mg1183 2.038 . S
O1198 C1196 1.274 . S
O1199 Mg1187 2.042 . S
O1199 C1202 1.241 . S
O1200 Mg1186 1.984 . S
O1200 C1202 1.280 . S
O1201 Mg1187 2.041 . S
O1201 C1205 1.277 . S
C1202 O1199 1.241 . S
C1202 O1200 1.280 . S
O1203 Mg1186 1.988 . S
O1203 C1205 1.245 . S
O1204 C1180 1.247 . S
O1204 Mg1186 2.061 . S
C1205 O1201 1.277 . S
C1205 O1203 1.245 . S
O1206 C1180 1.289 . S
O1206 Mg1183 2.238 . S
O1206 Mg1184 2.106 . S
O1207 Mg1184 2.079 . S
O1207 C1189 1.245 . S
O1208 Mg1187 2.038 . S
O1208 C1189 1.274 . S
C1209 O1221 1.241 . S
C1209 O1222 1.280 . S
C1210 O1223 1.277 . S
C1210 O1224 1.245 . S
C1211 O1235 1.247 . S
C1211 O1237 1.289 1_455 S
Mg1212 O1213 1.926 . S
Mg1212 O1222 1.984 . S
Mg1212 O1224 1.988 . S
Mg1212 O1225 2.061 . S
O1213 Mg1212 1.926 . S
O1213 Mg1214 1.986 . S
O1213 Mg1215 1.917 . S
Mg1214 O1213 1.986 . S
Mg1214 O1221 2.042 . S
Mg1214 O1223 2.041 . S
Mg1214 O1229 2.038 . S
Mg1214 O1237 2.238 . S
Mg1215 O1213 1.917 . S
Mg1215 O1216 1.917 . S
Mg1215 O1226 2.106 . S
Mg1215 O1228 2.079 . S
Mg1215 O1237 2.106 . S
Mg1215 O1238 2.079 . S
O1216 Mg1215 1.917 . S
O1216 Mg1217 1.926 1_655 S
O1216 Mg1218 1.986 . S
Mg1217 O1216 1.926 1_455 S
Mg1217 O1231 1.984 . S
Mg1217 O1234 1.988 . S
Mg1217 O1235 2.061 . S
Mg1218 O1216 1.986 . S
Mg1218 O1226 2.238 . S
Mg1218 O1230 2.042 1_655 S
Mg1218 O1232 2.041 1_655 S
Mg1218 O1239 2.038 . S
C1219 O1225 1.247 . S
C1219 O1226 1.289 . S
C1220 O1238 1.245 . S
C1220 O1239 1.274 . S
O1221 C1209 1.241 . S
O1221 Mg1214 2.042 . S
O1222 C1209 1.280 . S
O1222 Mg1212 1.984 . S
O1223 C1210 1.277 . S
O1223 Mg1214 2.041 . S
O1224 C1210 1.245 . S
O1224 Mg1212 1.988 . S
O1225 Mg1212 2.061 . S
O1225 C1219 1.247 . S
O1226 Mg1215 2.106 . S
O1226 Mg1218 2.238 . S
O1226 C1219 1.289 . S
C1227 O1228 1.245 . S
C1227 O1229 1.274 . S
O1228 Mg1215 2.079 . S
O1228 C1227 1.245 . S
O1229 Mg1214 2.038 . S
O1229 C1227 1.274 . S
O1230 Mg1218 2.042 1_455 S
O1230 C1233 1.241 . S
O1231 Mg1217 1.984 . S
O1231 C1233 1.280 . S
O1232 Mg1218 2.041 1_455 S
O1232 C1236 1.277 . S
C1233 O1230 1.241 . S
C1233 O1231 1.280 . S
O1234 Mg1217 1.988 . S
O1234 C1236 1.245 . S
O1235 C1211 1.247 . S
O1235 Mg1217 2.061 . S
C1236 O1232 1.277 . S
C1236 O1234 1.245 . S
O1237 C1211 1.289 1_655 S
O1237 Mg1214 2.238 . S
O1237 Mg1215 2.106 . S
O1238 Mg1215 2.079 . S
O1238 C1220 1.245 . S
O1239 Mg1218 2.038 . S
O1239 C1220 1.274 . S
C1240 O1252 1.241 . S
C1240 O1253 1.280 . S
C1241 O1254 1.277 . S
C1241 O1255 1.245 . S
C1242 O1266 1.247 . S
C1242 O1268 1.289 . S
Mg1243 O1244 1.926 . S
Mg1243 O1253 1.984 . S
Mg1243 O1255 1.988 . S
Mg1243 O1256 2.061 . S
O1244 Mg1243 1.926 . S
O1244 Mg1245 1.986 . S
O1244 Mg1246 1.917 . S
Mg1245 O1244 1.986 . S
Mg1245 O1252 2.042 . S
Mg1245 O1254 2.041 . S
Mg1245 O1260 2.038 . S
Mg1245 O1268 2.238 . S
Mg1246 O1244 1.917 . S
Mg1246 O1247 1.917 . S
Mg1246 O1257 2.106 . S
Mg1246 O1259 2.079 . S
Mg1246 O1268 2.106 . S
Mg1246 O1269 2.079 . S
O1247 Mg1246 1.917 . S
O1247 Mg1248 1.926 . S
O1247 Mg1249 1.986 . S
Mg1248 O1247 1.926 . S
Mg1248 O1262 1.984 . S
Mg1248 O1265 1.988 . S
Mg1248 O1266 2.061 . S
Mg1249 O1247 1.986 . S
Mg1249 O1257 2.238 . S
Mg1249 O1261 2.042 . S
Mg1249 O1263 2.041 . S
Mg1249 O1270 2.038 . S
C1250 O1256 1.247 . S
C1250 O1257 1.289 . S
C1251 O1269 1.245 . S
C1251 O1270 1.274 . S
O1252 C1240 1.241 . S
O1252 Mg1245 2.042 . S
O1253 C1240 1.280 . S
O1253 Mg1243 1.984 . S
O1254 C1241 1.277 . S
O1254 Mg1245 2.041 . S
O1255 C1241 1.245 . S
O1255 Mg1243 1.988 . S
O1256 Mg1243 2.061 . S
O1256 C1250 1.247 . S
O1257 Mg1246 2.106 . S
O1257 Mg1249 2.238 . S
O1257 C1250 1.289 . S
C1258 O1259 1.245 . S
C1258 O1260 1.274 . S
O1259 Mg1246 2.079 . S
O1259 C1258 1.245 . S
O1260 Mg1245 2.038 . S
O1260 C1258 1.274 . S
O1261 Mg1249 2.042 . S
O1261 C1264 1.241 . S
O1262 Mg1248 1.984 . S
O1262 C1264 1.280 . S
O1263 Mg1249 2.041 . S
O1263 C1267 1.277 . S
C1264 O1261 1.241 . S
C1264 O1262 1.280 . S
O1265 Mg1248 1.988 . S
O1265 C1267 1.245 . S
O1266 C1242 1.247 . S
O1266 Mg1248 2.061 . S
C1267 O1263 1.277 . S
C1267 O1265 1.245 . S
O1268 C1242 1.289 . S
O1268 Mg1245 2.238 . S
O1268 Mg1246 2.106 . S
O1269 Mg1246 2.079 . S
O1269 C1251 1.245 . S
O1270 Mg1249 2.038 . S
O1270 C1251 1.274 . S
C1271 O1283 1.241 . S
C1271 O1284 1.280 . S
C1272 O1285 1.277 . S
C1272 O1286 1.245 . S
C1273 O1297 1.247 . S
C1273 O1299 1.289 . S
Mg1274 O1275 1.926 . S
Mg1274 O1284 1.984 . S
Mg1274 O1286 1.988 . S
Mg1274 O1287 2.061 . S
O1275 Mg1274 1.926 . S
O1275 Mg1276 1.986 . S
O1275 Mg1277 1.917 . S
Mg1276 O1275 1.986 . S
Mg1276 O1283 2.042 . S
Mg1276 O1285 2.041 . S
Mg1276 O1291 2.038 . S
Mg1276 O1299 2.238 . S
Mg1277 O1275 1.917 . S
Mg1277 O1278 1.917 . S
Mg1277 O1288 2.106 . S
Mg1277 O1290 2.079 . S
Mg1277 O1299 2.106 . S
Mg1277 O1300 2.079 . S
O1278 Mg1277 1.917 . S
O1278 Mg1279 1.926 . S
O1278 Mg1280 1.986 . S
Mg1279 O1278 1.926 . S
Mg1279 O1293 1.984 . S
Mg1279 O1296 1.988 . S
Mg1279 O1297 2.061 . S
Mg1280 O1278 1.986 . S
Mg1280 O1288 2.238 . S
Mg1280 O1292 2.042 . S
Mg1280 O1294 2.041 . S
Mg1280 O1301 2.038 . S
C1281 O1287 1.247 . S
C1281 O1288 1.289 . S
C1282 O1300 1.245 . S
C1282 O1301 1.274 . S
O1283 C1271 1.241 . S
O1283 Mg1276 2.042 . S
O1284 C1271 1.280 . S
O1284 Mg1274 1.984 . S
O1285 C1272 1.277 . S
O1285 Mg1276 2.041 . S
O1286 C1272 1.245 . S
O1286 Mg1274 1.988 . S
O1287 Mg1274 2.061 . S
O1287 C1281 1.247 . S
O1288 Mg1277 2.106 . S
O1288 Mg1280 2.238 . S
O1288 C1281 1.289 . S
C1289 O1290 1.245 . S
C1289 O1291 1.274 . S
O1290 Mg1277 2.079 . S
O1290 C1289 1.245 . S
O1291 Mg1276 2.038 . S
O1291 C1289 1.274 . S
O1292 Mg1280 2.042 . S
O1292 C1295 1.241 . S
O1293 Mg1279 1.984 . S
O1293 C1295 1.280 . S
O1294 Mg1280 2.041 . S
O1294 C1298 1.277 . S
C1295 O1292 1.241 . S
C1295 O1293 1.280 . S
O1296 Mg1279 1.988 . S
O1296 C1298 1.245 . S
O1297 C1273 1.247 . S
O1297 Mg1279 2.061 . S
C1298 O1294 1.277 . S
C1298 O1296 1.245 . S
O1299 C1273 1.289 . S
O1299 Mg1276 2.238 . S
O1299 Mg1277 2.106 . S
O1300 Mg1277 2.079 . S
O1300 C1282 1.245 . S
O1301 Mg1280 2.038 . S
O1301 C1282 1.274 . S
C1302 O1314 1.241 . S
C1302 O1315 1.280 . S
C1303 O1316 1.277 . S
C1303 O1317 1.245 . S
C1304 O1328 1.247 . S
C1304 O1330 1.289 . S
Mg1305 O1306 1.926 . S
Mg1305 O1315 1.984 . S
Mg1305 O1317 1.988 . S
Mg1305 O1318 2.061 . S
O1306 Mg1305 1.926 . S
O1306 Mg1307 1.986 . S
O1306 Mg1308 1.917 . S
Mg1307 O1306 1.986 . S
Mg1307 O1314 2.042 . S
Mg1307 O1316 2.041 . S
Mg1307 O1322 2.038 . S
Mg1307 O1330 2.238 . S
Mg1308 O1306 1.917 . S
Mg1308 O1309 1.917 . S
Mg1308 O1319 2.106 . S
Mg1308 O1321 2.079 . S
Mg1308 O1330 2.106 . S
Mg1308 O1331 2.079 . S
O1309 Mg1308 1.917 . S
O1309 Mg1310 1.926 . S
O1309 Mg1311 1.986 . S
Mg1310 O1309 1.926 . S
Mg1310 O1324 1.984 . S
Mg1310 O1327 1.988 . S
Mg1310 O1328 2.061 . S
Mg1311 O1309 1.986 . S
Mg1311 O1319 2.238 . S
Mg1311 O1323 2.042 . S
Mg1311 O1325 2.041 . S
Mg1311 O1332 2.038 . S
C1312 O1318 1.247 . S
C1312 O1319 1.289 . S
C1313 O1331 1.245 . S
C1313 O1332 1.274 . S
O1314 C1302 1.241 . S
O1314 Mg1307 2.042 . S
O1315 C1302 1.280 . S
O1315 Mg1305 1.984 . S
O1316 C1303 1.277 . S
O1316 Mg1307 2.041 . S
O1317 C1303 1.245 . S
O1317 Mg1305 1.988 . S
O1318 Mg1305 2.061 . S
O1318 C1312 1.247 . S
O1319 Mg1308 2.106 . S
O1319 Mg1311 2.238 . S
O1319 C1312 1.289 . S
C1320 O1321 1.245 . S
C1320 O1322 1.274 . S
O1321 Mg1308 2.079 . S
O1321 C1320 1.245 . S
O1322 Mg1307 2.038 . S
O1322 C1320 1.274 . S
O1323 Mg1311 2.042 . S
O1323 C1326 1.241 . S
O1324 Mg1310 1.984 . S
O1324 C1326 1.280 . S
O1325 Mg1311 2.041 . S
O1325 C1329 1.277 . S
C1326 O1323 1.241 . S
C1326 O1324 1.280 . S
O1327 Mg1310 1.988 . S
O1327 C1329 1.245 . S
O1328 C1304 1.247 . S
O1328 Mg1310 2.061 . S
C1329 O1325 1.277 . S
C1329 O1327 1.245 . S
O1330 C1304 1.289 . S
O1330 Mg1307 2.238 . S
O1330 Mg1308 2.106 . S
O1331 Mg1308 2.079 . S
O1331 C1313 1.245 . S
O1332 Mg1311 2.038 . S
O1332 C1313 1.274 . S
C1333 O1345 1.241 . S
C1333 O1346 1.280 . S
C1334 O1347 1.277 . S
C1334 O1348 1.245 . S
C1335 O1359 1.247 . S
C1335 O1361 1.289 . S
Mg1336 O1337 1.926 . S
Mg1336 O1346 1.984 . S
Mg1336 O1348 1.988 . S
Mg1336 O1349 2.061 . S
O1337 Mg1336 1.926 . S
O1337 Mg1338 1.986 . S
O1337 Mg1339 1.917 . S
Mg1338 O1337 1.986 . S
Mg1338 O1345 2.042 . S
Mg1338 O1347 2.041 . S
Mg1338 O1353 2.038 . S
Mg1338 O1361 2.238 . S
Mg1339 O1337 1.917 . S
Mg1339 O1340 1.917 . S
Mg1339 O1350 2.106 . S
Mg1339 O1352 2.079 . S
Mg1339 O1361 2.106 . S
Mg1339 O1362 2.079 . S
O1340 Mg1339 1.917 . S
O1340 Mg1341 1.926 . S
O1340 Mg1342 1.986 . S
Mg1341 O1340 1.926 . S
Mg1341 O1355 1.984 . S
Mg1341 O1358 1.988 . S
Mg1341 O1359 2.061 . S
Mg1342 O1340 1.986 . S
Mg1342 O1350 2.238 . S
Mg1342 O1354 2.042 . S
Mg1342 O1356 2.041 . S
Mg1342 O1363 2.038 . S
C1343 O1349 1.247 . S
C1343 O1350 1.289 . S
C1344 O1362 1.245 . S
C1344 O1363 1.274 . S
O1345 C1333 1.241 . S
O1345 Mg1338 2.042 . S
O1346 C1333 1.280 . S
O1346 Mg1336 1.984 . S
O1347 C1334 1.277 . S
O1347 Mg1338 2.041 . S
O1348 C1334 1.245 . S
O1348 Mg1336 1.988 . S
O1349 Mg1336 2.061 . S
O1349 C1343 1.247 . S
O1350 Mg1339 2.106 . S
O1350 Mg1342 2.238 . S
O1350 C1343 1.289 . S
C1351 O1352 1.245 . S
C1351 O1353 1.274 . S
O1352 Mg1339 2.079 . S
O1352 C1351 1.245 . S
O1353 Mg1338 2.038 . S
O1353 C1351 1.274 . S
O1354 Mg1342 2.042 . S
O1354 C1357 1.241 . S
O1355 Mg1341 1.984 . S
O1355 C1357 1.280 . S
O1356 Mg1342 2.041 . S
O1356 C1360 1.277 . S
C1357 O1354 1.241 . S
C1357 O1355 1.280 . S
O1358 Mg1341 1.988 . S
O1358 C1360 1.245 . S
O1359 C1335 1.247 . S
O1359 Mg1341 2.061 . S
C1360 O1356 1.277 . S
C1360 O1358 1.245 . S
O1361 C1335 1.289 . S
O1361 Mg1338 2.238 . S
O1361 Mg1339 2.106 . S
O1362 Mg1339 2.079 . S
O1362 C1344 1.245 . S
O1363 Mg1342 2.038 . S
O1363 C1344 1.274 . S
C1364 O1376 1.241 1_545 S
C1364 O1377 1.280 . S
C1365 O1378 1.277 . S
C1365 O1379 1.245 . S
C1366 O1390 1.247 . S
C1366 O1392 1.289 . S
Mg1367 O1368 1.926 1_545 S
Mg1367 O1377 1.984 . S
Mg1367 O1379 1.988 . S
Mg1367 O1380 2.061 . S
O1368 Mg1367 1.926 1_565 S
O1368 Mg1369 1.986 . S
O1368 Mg1370 1.917 . S
Mg1369 O1368 1.986 . S
Mg1369 O1376 2.042 . S
Mg1369 O1378 2.041 1_565 S
Mg1369 O1384 2.038 . S
Mg1369 O1392 2.238 . S
Mg1370 O1368 1.917 . S
Mg1370 O1371 1.917 . S
Mg1370 O1381 2.106 . S
Mg1370 O1383 2.079 . S
Mg1370 O1392 2.106 . S
Mg1370 O1393 2.079 . S
O1371 Mg1370 1.917 . S
O1371 Mg1372 1.926 . S
O1371 Mg1373 1.986 . S
Mg1372 O1371 1.926 . S
Mg1372 O1386 1.984 . S
Mg1372 O1389 1.988 . S
Mg1372 O1390 2.061 . S
Mg1373 O1371 1.986 . S
Mg1373 O1381 2.238 . S
Mg1373 O1385 2.042 . S
Mg1373 O1387 2.041 . S
Mg1373 O1394 2.038 . S
C1374 O1380 1.247 . S
C1374 O1381 1.289 1_545 S
C1375 O1393 1.245 . S
C1375 O1394 1.274 . S
O1376 C1364 1.241 1_565 S
O1376 Mg1369 2.042 . S
O1377 C1364 1.280 . S
O1377 Mg1367 1.984 . S
O1378 C1365 1.277 . S
O1378 Mg1369 2.041 1_545 S
O1379 C1365 1.245 . S
O1379 Mg1367 1.988 . S
O1380 Mg1367 2.061 . S
O1380 C1374 1.247 . S
O1381 Mg1370 2.106 . S
O1381 Mg1373 2.238 . S
O1381 C1374 1.289 1_565 S
C1382 O1383 1.245 . S
C1382 O1384 1.274 . S
O1383 Mg1370 2.079 . S
O1383 C1382 1.245 . S
O1384 Mg1369 2.038 . S
O1384 C1382 1.274 . S
O1385 Mg1373 2.042 . S
O1385 C1388 1.241 . S
O1386 Mg1372 1.984 . S
O1386 C1388 1.280 . S
O1387 Mg1373 2.041 . S
O1387 C1391 1.277 . S
C1388 O1385 1.241 . S
C1388 O1386 1.280 . S
O1389 Mg1372 1.988 . S
O1389 C1391 1.245 . S
O1390 C1366 1.247 . S
O1390 Mg1372 2.061 . S
C1391 O1387 1.277 . S
C1391 O1389 1.245 . S
O1392 C1366 1.289 . S
O1392 Mg1369 2.238 . S
O1392 Mg1370 2.106 . S
O1393 Mg1370 2.079 . S
O1393 C1375 1.245 . S
O1394 Mg1373 2.038 . S
O1394 C1375 1.274 . S
C1395 O1407 1.241 . S
C1395 O1408 1.280 . S
C1396 O1409 1.277 . S
C1396 O1410 1.245 . S
C1397 O1421 1.247 . S
C1397 O1423 1.289 1_565 S
Mg1398 O1399 1.926 . S
Mg1398 O1408 1.984 . S
Mg1398 O1410 1.988 . S
Mg1398 O1411 2.061 . S
O1399 Mg1398 1.926 . S
O1399 Mg1400 1.986 . S
O1399 Mg1401 1.917 . S
Mg1400 O1399 1.986 . S
Mg1400 O1407 2.042 . S
Mg1400 O1409 2.041 . S
Mg1400 O1415 2.038 . S
Mg1400 O1423 2.238 . S
Mg1401 O1399 1.917 . S
Mg1401 O1402 1.917 . S
Mg1401 O1412 2.106 . S
Mg1401 O1414 2.079 . S
Mg1401 O1423 2.106 . S
Mg1401 O1424 2.079 . S
O1402 Mg1401 1.917 . S
O1402 Mg1403 1.926 1_545 S
O1402 Mg1404 1.986 . S
Mg1403 O1402 1.926 1_565 S
Mg1403 O1417 1.984 . S
Mg1403 O1420 1.988 . S
Mg1403 O1421 2.061 . S
Mg1404 O1402 1.986 . S
Mg1404 O1412 2.238 . S
Mg1404 O1416 2.032 1_545 S
Mg1404 O1418 2.041 1_545 S
Mg1404 O1425 2.038 . S
C1405 O1411 1.247 . S
C1405 O1412 1.289 . S
C1406 O1424 1.245 . S
C1406 O1425 1.274 . S
O1407 C1395 1.241 . S
O1407 Mg1400 2.042 . S
O1408 C1395 1.280 . S
O1408 Mg1398 1.984 . S
O1409 C1396 1.277 . S
O1409 Mg1400 2.041 . S
O1410 C1396 1.245 . S
O1410 Mg1398 1.988 . S
O1411 Mg1398 2.061 . S
O1411 C1405 1.247 . S
O1412 Mg1401 2.106 . S
O1412 Mg1404 2.238 . S
O1412 C1405 1.289 . S
C1413 O1414 1.245 . S
C1413 O1415 1.274 . S
O1414 Mg1401 2.079 . S
O1414 C1413 1.245 . S
O1415 Mg1400 2.038 . S
O1415 C1413 1.274 . S
O1416 Mg1404 2.032 1_565 S
O1416 C1419 1.255 . S
O1417 Mg1403 1.984 . S
O1417 C1419 1.280 . S
O1418 Mg1404 2.041 1_565 S
O1418 C1422 1.277 . S
C1419 O1416 1.255 . S
C1419 O1417 1.280 . S
O1420 Mg1403 1.988 . S
O1420 C1422 1.245 . S
O1421 C1397 1.247 . S
O1421 Mg1403 2.061 . S
C1422 O1418 1.277 . S
C1422 O1420 1.245 . S
O1423 C1397 1.289 1_545 S
O1423 Mg1400 2.238 . S
O1423 Mg1401 2.106 . S
O1424 Mg1401 2.079 . S
O1424 C1406 1.245 . S
O1425 Mg1404 2.038 . S
O1425 C1406 1.274 . S
C1426 O1438 1.241 . S
C1426 O1439 1.280 . S
C1427 O1440 1.277 . S
C1427 O1441 1.245 . S
C1428 O1452 1.247 . S
C1428 O1454 1.289 . S
Mg1429 O1430 1.926 . S
Mg1429 O1439 1.984 . S
Mg1429 O1441 1.988 . S
Mg1429 O1442 2.061 . S
O1430 Mg1429 1.926 . S
O1430 Mg1431 1.986 . S
O1430 Mg1432 1.917 . S
Mg1431 O1430 1.986 . S
Mg1431 O1438 2.042 . S
Mg1431 O1440 2.041 . S
Mg1431 O1446 2.038 . S
Mg1431 O1454 2.238 . S
Mg1432 O1430 1.917 . S
Mg1432 O1433 1.917 . S
Mg1432 O1443 2.106 . S
Mg1432 O1445 2.079 . S
Mg1432 O1454 2.106 . S
Mg1432 O1455 2.079 . S
O1433 Mg1432 1.917 . S
O1433 Mg1434 1.926 . S
O1433 Mg1435 1.986 . S
Mg1434 O1433 1.926 . S
Mg1434 O1448 1.984 . S
Mg1434 O1451 1.988 . S
Mg1434 O1452 2.061 . S
Mg1435 O1433 1.986 . S
Mg1435 O1443 2.238 . S
Mg1435 O1447 2.042 . S
Mg1435 O1449 2.041 . S
Mg1435 O1456 2.038 . S
C1436 O1442 1.247 . S
C1436 O1443 1.289 . S
C1437 O1455 1.245 . S
C1437 O1456 1.274 . S
O1438 C1426 1.241 . S
O1438 Mg1431 2.042 . S
O1439 C1426 1.280 . S
O1439 Mg1429 1.984 . S
O1440 C1427 1.277 . S
O1440 Mg1431 2.041 . S
O1441 C1427 1.245 . S
O1441 Mg1429 1.988 . S
O1442 Mg1429 2.061 . S
O1442 C1436 1.247 . S
O1443 Mg1432 2.106 . S
O1443 Mg1435 2.238 . S
O1443 C1436 1.289 . S
C1444 O1445 1.245 . S
C1444 O1446 1.274 . S
O1445 Mg1432 2.079 . S
O1445 C1444 1.245 . S
O1446 Mg1431 2.038 . S
O1446 C1444 1.274 . S
O1447 Mg1435 2.042 . S
O1447 C1450 1.241 . S
O1448 Mg1434 1.984 . S
O1448 C1450 1.280 . S
O1449 Mg1435 2.041 . S
O1449 C1453 1.277 . S
C1450 O1447 1.241 . S
C1450 O1448 1.280 . S
O1451 Mg1434 1.988 . S
O1451 C1453 1.245 . S
O1452 C1428 1.247 . S
O1452 Mg1434 2.061 . S
C1453 O1449 1.277 . S
C1453 O1451 1.245 . S
O1454 C1428 1.289 . S
O1454 Mg1431 2.238 . S
O1454 Mg1432 2.106 . S
O1455 Mg1432 2.079 . S
O1455 C1437 1.245 . S
O1456 Mg1435 2.038 . S
O1456 C1437 1.274 . S
C1457 O1469 1.241 . S
C1457 O1470 1.280 . S
C1458 O1471 1.277 . S
C1458 O1472 1.245 . S
C1459 O1483 1.247 . S
C1459 O1485 1.289 . S
Mg1460 O1461 1.926 . S
Mg1460 O1470 1.984 . S
Mg1460 O1472 1.988 . S
Mg1460 O1473 2.061 . S
O1461 Mg1460 1.926 . S
O1461 Mg1462 1.986 . S
O1461 Mg1463 1.917 . S
Mg1462 O1461 1.986 . S
Mg1462 O1469 2.042 . S
Mg1462 O1471 2.041 . S
Mg1462 O1477 2.038 . S
Mg1462 O1485 2.238 . S
Mg1463 O1461 1.917 . S
Mg1463 O1464 1.917 . S
Mg1463 O1474 2.106 . S
Mg1463 O1476 2.079 . S
Mg1463 O1485 2.106 . S
Mg1463 O1486 2.079 . S
O1464 Mg1463 1.917 . S
O1464 Mg1465 1.926 . S
O1464 Mg1466 1.986 . S
Mg1465 O1464 1.926 . S
Mg1465 O1479 1.984 . S
Mg1465 O1482 1.988 . S
Mg1465 O1483 2.061 . S
Mg1466 O1464 1.986 . S
Mg1466 O1474 2.238 . S
Mg1466 O1478 2.042 . S
Mg1466 O1480 2.041 . S
Mg1466 O1487 2.038 . S
C1467 O1473 1.247 . S
C1467 O1474 1.289 . S
C1468 O1486 1.245 . S
C1468 O1487 1.274 . S
O1469 C1457 1.241 . S
O1469 Mg1462 2.042 . S
O1470 C1457 1.280 . S
O1470 Mg1460 1.984 . S
O1471 C1458 1.277 . S
O1471 Mg1462 2.041 . S
O1472 C1458 1.245 . S
O1472 Mg1460 1.988 . S
O1473 Mg1460 2.061 . S
O1473 C1467 1.247 . S
O1474 Mg1463 2.106 . S
O1474 Mg1466 2.238 . S
O1474 C1467 1.289 . S
C1475 O1476 1.245 . S
C1475 O1477 1.274 . S
O1476 Mg1463 2.079 . S
O1476 C1475 1.245 . S
O1477 Mg1462 2.038 . S
O1477 C1475 1.274 . S
O1478 Mg1466 2.042 . S
O1478 C1481 1.241 . S
O1479 Mg1465 1.984 . S
O1479 C1481 1.280 . S
O1480 Mg1466 2.041 . S
O1480 C1484 1.277 . S
C1481 O1478 1.241 . S
C1481 O1479 1.280 . S
O1482 Mg1465 1.988 . S
O1482 C1484 1.245 . S
O1483 C1459 1.247 . S
O1483 Mg1465 2.061 . S
C1484 O1480 1.277 . S
C1484 O1482 1.245 . S
O1485 C1459 1.289 . S
O1485 Mg1462 2.238 . S
O1485 Mg1463 2.106 . S
O1486 Mg1463 2.079 . S
O1486 C1468 1.245 . S
O1487 Mg1466 2.038 . S
O1487 C1468 1.274 . S
C476 C24 1.093 1_565 S
C558 C41 1.527 . S
C80 C405 2.796 . S
C461 C94 1.263 . S
C771 C148 1.716 . S
C1056 C173 2.743 . S
C204 C1364 1.460 . S
C1096 C241 1.083 1_455 S
C266 C64 2.612 . S
C280 C93 1.598 . S
C320 C27 1.213 . S
C365 C42 1.373 . S
C188 C272 1.415 . S
C244 C289 1.318 . S
C311 C151 1.182 . S
C157 C359 2.747 . S
C373 C926 1.047 . S
C250 C421 2.309 . S
C279 C458 1.001 . S
C321 C475 2.331 . S
C1298 C497 1.046 . S
C551 C992 0.998 . S
C808 C452 2.183 . S
C879 C568 2.429 . S
C824 C219 2.747 1_545 S
C923 C591 1.415 . S
C785 C647 1.318 . S
C678 C1002 1.213 . S
C1419 C693 1.373 . S
C1227 C2 2.612 1_655 S
C724 C644 1.083 . S
C436 C235 2.743 . S
C372 C607 1.460 . S
C692 C713 1.527 . S
C746 C18 2.796 . S
C383 C675 1.093 . S
C559 C368 1.046 . S
C723 C786 2.429 . S
C310 C768 0.998 . S
C864 C1303 1.047 . S
C868 C1078 1.001 . S
C545 C901 2.309 . S
C103 C1085 1.527 . S
C1025 C948 2.796 . S
C32 C1081 1.263 . S
C613 C554 1.716 . S
C1302 C979 1.460 . S
C569 C179 1.083 1_455 S
C855 C932 2.612 . S
C869 C31 1.598 . S
C830 C104 1.373 . S
C963 C861 1.415 . S
C182 C878 1.318 . S
C616 C993 1.182 . S
C1236 C466 1.047 . S
C839 C1041 2.309 . S
C1003 C382 2.331 . S
C1422 C714 1.046 . S
C1072 C343 2.183 . S
C1095 C290 2.429 . S
C1233 C126 1.415 . S
C1188 C1143 1.318 . S
C1295 C1158 1.373 . S
C917 C653 2.612 1_655 S
C1140 C507 1.083 . S
C142 C465 1.460 . S
C496 C1157 1.527 . S
C669 C529 2.796 . S
C833 C1086 1.046 . S
C506 C1189 2.429 . S
C1365 C275 1.047 . S
C762 C1211 2.309 . S
C1375 C86 1.093 1_565 S
C1360 C683 1.263 . S
C210 C430 1.716 . S
C1459 C1134 2.743 . S
C682 C776 1.598 . S
C89 C1250 1.213 . S
C213 C1241 1.182 . S
C1118 C1289 2.747 . S
C775 C1357 1.001 . S
C1374 C1251 2.331 . S
C1426 C1047 0.998 . S
C1397 C1351 2.183 . S
C622 C1413 2.747 1_565 S
C957 C1436 1.213 . S
C638 C1335 2.743 . S
C954 C1313 1.093 . S
C427 C1240 0.998 . S
C1481 C1178 1.001 . S
C1484 C1148 1.263 . S
C985 C1050 1.716 . S
C1147 C1179 1.598 . S
C988 C1427 1.182 . S
C1312 C1437 2.331 . S
C1273 C1475 2.183 . S
C1087 C11 3.119 1_565 S
C744 C58 2.481 1_455 S
C1065 C62 0.917 . S
C1391 C95 2.670 . S
C135 C585 2.198 . S
C155 C414 0.830 . S
C186 C434 2.023 1_545 S
C228 C467 3.093 1_655 S
C248 C1395 0.945 1_554 S
C910 C281 2.965 . S
C1205 C337 2.776 . S
C1428 C352 3.161 . S
C259 C1180 2.965 . S
C306 C1453 2.776 . S
C312 C1406 3.161 . S
C899 C341 0.945 1_554 S
C166 C374 3.093 1_655 S
C403 C1174 2.481 . S
C445 C930 0.917 . S
C492 C684 2.670 . S
C498 C941 3.119 . S
C538 C620 0.830 . S
C1219 C218 1.725 1_545 S
C303 C590 2.594 1_655 S
C1010 C630 2.960 . S
C1396 C134 2.671 . S
C900 C111 2.212 . S
C793 C661 2.884 . S
C706 C334 2.136 1_565 S
C1 C816 1.717 1_455 S
C1388 C737 1.099 1_554 S
C754 C576 2.819 . S
C435 C1024 2.575 . S
C1467 C390 3.023 . S
C731 C1033 2.819 . S
C745 C1458 2.575 . S
C444 C1382 3.023 . S
C396 C582 1.099 1_554 S
C652 C351 1.717 1_455 S
C799 C962 2.594 . S
C1126 C328 2.960 . S
C196 C807 2.671 . S
C1117 C847 1.725 . S
C72 C886 2.884 . S
C560 C662 3.119 . S
C527 C120 2.481 1_455 S
C1329 C33 2.670 . S
C600 C1112 2.198 . S
C1034 C217 0.830 . S
C1054 C961 2.023 . S
C837 C1271 0.945 . S
C870 C1220 2.965 . S
C1019 C802 2.776 1_554 S
C817 C1242 3.161 . S
C848 C777 2.965 . S
C895 C1267 2.776 1_556 S
C1282 C994 3.161 . S
C1209 C806 0.945 . S
C709 C1023 2.481 . S
C1149 C399 2.670 . S
C715 C73 3.119 1_565 S
C755 C1116 0.830 . S
C909 C156 1.725 . S
C125 C892 2.594 1_455 S
C599 C1272 2.671 . S
C49 C1210 2.212 . S
C10 C1196 2.884 . S
C1171 C1016 2.136 . S
C520 C1326 1.099 . S
C537 C1103 2.819 . S
C404 C1055 2.575 1_554 S
C483 C1343 3.023 . S
C413 C514 2.819 . S
C528 C1334 2.575 1_554 S
C1064 C1320 3.023 . S
C1109 C489 1.099 . S
C187 C1202 2.594 . S
C971 C342 2.671 . S
C621 C258 1.725 1_565 S
C940 C297 2.884 . S
C1468 C0 0.917 . S
C523 C197 2.198 . S
C124 C1333 2.023 1_545 S
C1366 C631 3.093 . S
C1127 C1304 3.093 . S
C651 C1344 0.917 . S
C227 C1444 2.960 . S
C838 C700 2.212 . S
C117 C1264 2.136 1_565 S
C63 C1405 1.717 . S
C931 C1281 1.717 . S
C165 C1258 2.960 . S
C740 C972 2.198 . S
C1457 C589 2.023 . S
C1165 C249 2.212 . S
C1450 C55 2.136 . S
