# Generated by pormake.
# Topology uog, (4)-cn, num edge types: 1
# Building blocks:
#     Node 0, Type 0, BuildingBlock: KOZSID_clean_sbu_0, # of connection points: 4
#     Node 1, Type 0, BuildingBlock: KOZSID_clean_sbu_0, # of connection points: 4
#     Node 2, Type 0, BuildingBlock: KOZSID_clean_sbu_0, # of connection points: 4
#     Node 3, Type 0, BuildingBlock: KOZSID_clean_sbu_0, # of connection points: 4
#     Node 4, Type 0, BuildingBlock: KOZSID_clean_sbu_0, # of connection points: 4
#     Node 5, Type 0, BuildingBlock: KOZSID_clean_sbu_0, # of connection points: 4
#     Edge 6, Type (0, 0), BuildingBlock: FUNLAD_clean_linker_1, # of connection points: 2
#     Edge 7, Type (0, 0), BuildingBlock: FUNLAD_clean_linker_1, # of connection points: 2
#     Edge 8, Type (0, 0), BuildingBlock: FUNLAD_clean_linker_1, # of connection points: 2
#     Edge 9, Type (0, 0), BuildingBlock: FUNLAD_clean_linker_1, # of connection points: 2
#     Edge 10, Type (0, 0), BuildingBlock: FUNLAD_clean_linker_1, # of connection points: 2
#     Edge 11, Type (0, 0), BuildingBlock: FUNLAD_clean_linker_1, # of connection points: 2
#     Edge 12, Type (0, 0), BuildingBlock: FUNLAD_clean_linker_1, # of connection points: 2
#     Edge 13, Type (0, 0), BuildingBlock: FUNLAD_clean_linker_1, # of connection points: 2
#     Edge 14, Type (0, 0), BuildingBlock: FUNLAD_clean_linker_1, # of connection points: 2
#     Edge 15, Type (0, 0), BuildingBlock: FUNLAD_clean_linker_1, # of connection points: 2
#     Edge 16, Type (0, 0), BuildingBlock: FUNLAD_clean_linker_1, # of connection points: 2
#     Edge 17, Type (0, 0), BuildingBlock: FUNLAD_clean_linker_1, # of connection points: 2
# Relax obj value: 0.022
# Max RMSD: 0.255
# Mean RMSD: 0.255
data_MOF--net-uog--node1-KOZSID_clean_sbu_0--edge1-FUNLAD_clean_linker_1
_symmetry_space_group_name_H-M    P1
_symmetry_Int_Tables_number       1
_symmetry_cell_setting            triclinic
loop_
_symmetry_equiv_pos_as_xyz
'x, y, z'
_cell_length_a     39.72526
_cell_length_b     39.617381
_cell_length_c     48.744366
_cell_angle_alpha  89.856943
_cell_angle_beta   90.048789
_cell_angle_gamma 119.84187
loop_
_atom_site_label
_atom_site_type_symbol
_atom_site_fract_x
_atom_site_fract_y
_atom_site_fract_z
_atom_type_partial_charge
C0 C 0.56501 0.30406 0.23102 0.0
C1 C 0.5301 0.29473 0.24363 0.0
C2 C 0.50292 0.28411 0.22322 0.0
C3 C 0.52251 0.28762 0.19925 0.0
N4 N 0.56018 0.29875 0.20321 0.0
Co5 Co 0.59895 0.31175 0.17292 0.0
N6 N 0.55871 0.28913 0.14357 0.0
C7 C 0.52127 0.27919 0.1467 0.0
C8 C 0.49992 0.26432 0.12321 0.0
C9 C 0.52553 0.26502 0.10402 0.0
C10 C 0.56151 0.28047 0.11679 0.0
N11 N 0.63843 0.32618 0.14316 0.0
C12 C 0.63474 0.3157 0.11631 0.0
C13 C 0.67019 0.3373 0.10278 0.0
C14 C 0.69691 0.3598 0.12182 0.0
C15 C 0.67663 0.35192 0.14575 0.0
N16 N 0.64008 0.33382 0.20182 0.0
C17 C 0.67867 0.35197 0.1976 0.0
C18 C 0.69995 0.35754 0.22095 0.0
C19 C 0.67322 0.34312 0.24152 0.0
C20 C 0.63739 0.33152 0.22955 0.0
N21 N 0.5945 0.2592 0.1769 0.0
C22 C 0.58326 0.18178 0.17726 0.0
C23 C 0.62046 0.21506 0.17459 0.0
C24 C 0.62548 0.25316 0.17442 0.0
C25 C 0.55216 0.18883 0.18039 0.0
C26 C 0.55834 0.22707 0.18011 0.0
N27 N 0.6002 0.36287 0.1684 0.0
C28 C 0.58909 0.41296 0.18843 0.0
C29 C 0.57679 0.42016 0.16312 0.0
C30 C 0.57993 0.40039 0.14026 0.0
C31 C 0.59264 0.37304 0.14316 0.0
C32 C 0.6006 0.38441 0.19061 0.0
H33 H 0.59384 0.35832 0.12495 0.0
H34 H 0.6077 0.37852 0.21066 0.0
H35 H 0.65436 0.27759 0.17182 0.0
H36 H 0.5331 0.23014 0.18192 0.0
C37 C 0.50663 0.27994 0.17274 0.0
C38 C 0.60297 0.32408 0.24535 0.0
C39 C 0.59789 0.28779 0.10276 0.0
C40 C 0.69382 0.36195 0.17139 0.0
H41 H 0.52512 0.29713 0.26517 0.0
H42 H 0.47265 0.27572 0.22556 0.0
H43 H 0.46912 0.2532 0.12052 0.0
H44 H 0.5182 0.25522 0.08306 0.0
H45 H 0.67716 0.33743 0.08148 0.0
H46 H 0.72782 0.37839 0.11876 0.0
H47 H 0.73111 0.37041 0.2228 0.0
H48 H 0.67949 0.34282 0.26309 0.0
H49 H 0.64575 0.21169 0.1723 0.0
H50 H 0.52279 0.1652 0.183 0.0
H51 H 0.58753 0.42739 0.20682 0.0
H52 H 0.5715 0.40522 0.12013 0.0
C53 C 0.28035 0.5528 0.55829 0.0
C54 C 0.25647 0.51707 0.57061 0.0
C55 C 0.24895 0.48923 0.55125 0.0
C56 C 0.26867 0.50931 0.52823 0.0
N57 N 0.28842 0.54811 0.53168 0.0
Co58 Co 0.31798 0.58725 0.50215 0.0
N59 N 0.30472 0.54684 0.47295 0.0
C60 C 0.28389 0.50816 0.47709 0.0
C61 C 0.27987 0.48677 0.45403 0.0
C62 C 0.29954 0.51349 0.43387 0.0
C63 C 0.31491 0.55011 0.44575 0.0
N64 N 0.34674 0.62737 0.4727 0.0
C65 C 0.35291 0.62409 0.44549 0.0
C66 C 0.38113 0.65998 0.43496 0.0
C67 C 0.3904 0.68671 0.45499 0.0
C68 C 0.36917 0.66593 0.47704 0.0
N69 N 0.33323 0.62829 0.53144 0.0
C70 C 0.35528 0.66697 0.52752 0.0
C71 C 0.35815 0.68912 0.5497 0.0
C72 C 0.33674 0.66303 0.56936 0.0
C73 C 0.32345 0.62607 0.55849 0.0
N74 N 0.36575 0.58305 0.51031 0.0
C75 C 0.42264 0.55941 0.5197 0.0
C76 C 0.41705 0.57111 0.49365 0.0
C77 C 0.38904 0.58277 0.48952 0.0
C78 C 0.40035 0.56214 0.54116 0.0
C79 C 0.37276 0.57425 0.5362 0.0
N80 N 0.26826 0.58808 0.49394 0.0
C81 C 0.20713 0.58106 0.51115 0.0
C82 C 0.18785 0.56503 0.48634 0.0
C83 C 0.21087 0.5641 0.46479 0.0
C84 C 0.25069 0.57663 0.46873 0.0
C85 C 0.2468 0.59232 0.51444 0.0
H86 H 0.26648 0.57524 0.45134 0.0
H87 H 0.25894 0.60266 0.53427 0.0
H88 H 0.38564 0.58994 0.46895 0.0
H89 H 0.35624 0.57508 0.5534 0.0
C90 C 0.26815 0.49305 0.5028 0.0
C91 C 0.29729 0.59006 0.57348 0.0
C92 C 0.33659 0.58712 0.42997 0.0
C93 C 0.37123 0.68195 0.50236 0.0
H94 H 0.24602 0.51171 0.59156 0.0
H95 H 0.231 0.45803 0.55364 0.0
H96 H 0.26417 0.45541 0.45202 0.0
H97 H 0.30158 0.50649 0.41274 0.0
H98 H 0.39591 0.66687 0.41549 0.0
H99 H 0.41159 0.71744 0.454 0.0
H100 H 0.37231 0.72053 0.55094 0.0
H101 H 0.32943 0.67092 0.58863 0.0
H102 H 0.43298 0.57004 0.47603 0.0
H103 H 0.40356 0.55409 0.56184 0.0
H104 H 0.19127 0.5829 0.5286 0.0
H105 H 0.19793 0.55289 0.44493 0.0
C106 C 0.74747 0.27381 0.89605 0.0
C107 C 0.75878 0.2498 0.90917 0.0
C108 C 0.76787 0.23141 0.88911 0.0
C109 C 0.76169 0.24481 0.86474 0.0
N110 N 0.75021 0.27133 0.86817 0.0
Co111 Co 0.73437 0.29385 0.83751 0.0
N112 N 0.75653 0.27535 0.8084 0.0
C113 C 0.76724 0.2484 0.81181 0.0
C114 C 0.78285 0.24256 0.78832 0.0
C115 C 0.78184 0.26749 0.76898 0.0
C116 C 0.76557 0.28725 0.78172 0.0
N117 N 0.71694 0.31534 0.80734 0.0
C118 C 0.72669 0.32069 0.78051 0.0
C119 C 0.7015 0.32848 0.76558 0.0
C120 C 0.67736 0.33146 0.78409 0.0
C121 C 0.68801 0.32358 0.80897 0.0
N122 N 0.71262 0.31405 0.86573 0.0
C123 C 0.69092 0.33086 0.86055 0.0
C124 C 0.68549 0.34826 0.8829 0.0
C125 C 0.70358 0.34072 0.90378 0.0
C126 C 0.71723 0.31712 0.89338 0.0
N127 N 0.78624 0.34289 0.83947 0.0
C128 C 0.86259 0.41015 0.84085 0.0
C129 C 0.82867 0.41328 0.83892 0.0
C130 C 0.79107 0.3796 0.83807 0.0
C131 C 0.85673 0.37224 0.84232 0.0
C132 C 0.81905 0.33968 0.84163 0.0
N133 N 0.68393 0.243 0.83565 0.0
C134 C 0.632 0.18767 0.85978 0.0
C135 C 0.62176 0.16381 0.83648 0.0
C136 C 0.64219 0.18152 0.81217 0.0
C137 C 0.67245 0.22099 0.8121 0.0
C138 C 0.66287 0.22645 0.85906 0.0
H139 H 0.6872 0.23322 0.79297 0.0
H140 H 0.67022 0.24235 0.87797 0.0
H141 H 0.76599 0.3833 0.83623 0.0
H142 H 0.81692 0.31165 0.84279 0.0
C143 C 0.76812 0.23476 0.83831 0.0
C144 C 0.72871 0.29346 0.91045 0.0
C145 C 0.75811 0.3166 0.76833 0.0
C146 C 0.67771 0.33162 0.83425 0.0
H147 H 0.75906 0.24465 0.93092 0.0
H148 H 0.7774 0.21037 0.89201 0.0
H149 H 0.79515 0.22375 0.78585 0.0
H150 H 0.79214 0.2709 0.74807 0.0
H151 H 0.70083 0.33195 0.74361 0.0
H152 H 0.65582 0.33997 0.78 0.0
H153 H 0.67042 0.36469 0.8839 0.0
H154 H 0.70473 0.35034 0.92444 0.0
H155 H 0.83114 0.44173 0.83793 0.0
H156 H 0.88097 0.36721 0.84449 0.0
H157 H 0.61688 0.17602 0.879 0.0
H158 H 0.63483 0.16524 0.7932 0.0
C159 C 0.4906 0.74381 0.22583 0.0
C160 C 0.52563 0.75214 0.23776 0.0
C161 C 0.55206 0.76241 0.21686 0.0
C162 C 0.53189 0.75971 0.19332 0.0
N163 N 0.49458 0.74944 0.19799 0.0
Co164 Co 0.45489 0.73738 0.16847 0.0
N165 N 0.49406 0.75844 0.13828 0.0
C166 C 0.53137 0.7675 0.14079 0.0
C167 C 0.55198 0.78119 0.11688 0.0
C168 C 0.52606 0.78063 0.09802 0.0
C169 C 0.49057 0.76632 0.11137 0.0
N170 N 0.41448 0.7241 0.13947 0.0
C171 C 0.41731 0.7351 0.11267 0.0
C172 C 0.38065 0.71663 0.10049 0.0
C173 C 0.35447 0.69492 0.12004 0.0
C174 C 0.37594 0.70051 0.14309 0.0
N175 N 0.4149 0.71696 0.19824 0.0
C176 C 0.37626 0.70037 0.19495 0.0
C177 C 0.35626 0.69575 0.21881 0.0
C178 C 0.38389 0.70908 0.23877 0.0
C179 C 0.41882 0.71925 0.22588 0.0
N180 N 0.46133 0.79075 0.17251 0.0
C181 C 0.47448 0.86885 0.17426 0.0
C182 C 0.4368 0.83615 0.17241 0.0
C183 C 0.43085 0.79774 0.17155 0.0
C184 C 0.50519 0.8609 0.17562 0.0
C185 C 0.49806 0.82231 0.17473 0.0
N186 N 0.45157 0.68526 0.1641 0.0
C187 C 0.46161 0.63468 0.18473 0.0
C188 C 0.47409 0.62721 0.15964 0.0
C189 C 0.47127 0.64691 0.13652 0.0
C190 C 0.45892 0.67462 0.13901 0.0
C191 C 0.45048 0.6635 0.18647 0.0
H192 H 0.45787 0.68922 0.12063 0.0
H193 H 0.44317 0.6694 0.20637 0.0
H194 H 0.40155 0.77385 0.16972 0.0
H195 H 0.52292 0.81846 0.17538 0.0
C196 C 0.54673 0.76674 0.16654 0.0
C197 C 0.45311 0.72446 0.24072 0.0
C198 C 0.45417 0.75987 0.09774 0.0
C199 C 0.35997 0.69123 0.16911 0.0
H200 H 0.53109 0.74925 0.25914 0.0
H201 H 0.58216 0.7699 0.21858 0.0
H202 H 0.58253 0.79146 0.11368 0.0
H203 H 0.53293 0.78992 0.07691 0.0
H204 H 0.37217 0.71823 0.07988 0.0
H205 H 0.32319 0.6788 0.11801 0.0
H206 H 0.32535 0.68403 0.2214 0.0
H207 H 0.37869 0.70916 0.26055 0.0
H208 H 0.41181 0.84021 0.17136 0.0
H209 H 0.53495 0.88405 0.17722 0.0
H210 H 0.46277 0.62025 0.2033 0.0
H211 H 0.47969 0.64178 0.11652 0.0
C212 C 0.78885 0.48592 0.56254 0.0
C213 C 0.8171 0.5212 0.5735 0.0
C214 C 0.83211 0.54715 0.55226 0.0
C215 C 0.81224 0.52686 0.52948 0.0
N216 N 0.78475 0.48986 0.53499 0.0
Co217 Co 0.75242 0.45105 0.50631 0.0
N218 N 0.76649 0.49113 0.47685 0.0
C219 C 0.79557 0.52818 0.47857 0.0
C220 C 0.7994 0.54961 0.45547 0.0
C221 C 0.77111 0.52446 0.43789 0.0
C222 C 0.75115 0.48874 0.45126 0.0
N223 N 0.72088 0.41152 0.4776 0.0
C224 C 0.70722 0.41548 0.45288 0.0
C225 C 0.67809 0.3795 0.44346 0.0
C226 C 0.67666 0.35207 0.46089 0.0
C227 C 0.70304 0.37261 0.48086 0.0
N228 N 0.73708 0.41012 0.5357 0.0
C229 C 0.72036 0.37163 0.53072 0.0
C230 C 0.71847 0.34969 0.55278 0.0
C231 C 0.73537 0.37559 0.57339 0.0
C232 C 0.74546 0.41243 0.5631 0.0
N233 N 0.70702 0.45869 0.51512 0.0
C234 C 0.64652 0.47839 0.51794 0.0
C235 C 0.63807 0.43954 0.51409 0.0
C236 C 0.66863 0.43035 0.51281 0.0
C237 C 0.68571 0.50613 0.52145 0.0
C238 C 0.71482 0.49598 0.52007 0.0
N239 N 0.79989 0.44715 0.49716 0.0
C240 C 0.86162 0.455 0.51345 0.0
C241 C 0.87929 0.4685 0.48776 0.0
C242 C 0.85503 0.4677 0.46639 0.0
C243 C 0.81556 0.45602 0.47128 0.0
C244 C 0.82239 0.44461 0.51767 0.0
H245 H 0.79855 0.4567 0.45426 0.0
H246 H 0.81157 0.43722 0.53823 0.0
H247 H 0.66109 0.40056 0.50914 0.0
H248 H 0.74404 0.51945 0.52177 0.0
C249 C 0.81613 0.54242 0.50308 0.0
C250 C 0.76877 0.44904 0.57869 0.0
C251 C 0.72179 0.45235 0.43749 0.0
C252 C 0.70554 0.3565 0.50527 0.0
H253 H 0.82666 0.52781 0.59455 0.0
H254 H 0.85464 0.57738 0.55337 0.0
H255 H 0.82009 0.58002 0.45187 0.0
H256 H 0.76664 0.53156 0.41727 0.0
H257 H 0.65879 0.37311 0.42623 0.0
H258 H 0.65661 0.32104 0.46021 0.0
H259 H 0.7074 0.3186 0.55355 0.0
H260 H 0.74168 0.36735 0.59295 0.0
H261 H 0.6084 0.41652 0.51127 0.0
H262 H 0.69432 0.53644 0.52461 0.0
H263 H 0.87855 0.45491 0.53084 0.0
H264 H 0.86681 0.4772 0.44599 0.0
C265 C 0.29507 0.75504 0.89049 0.0
C266 C 0.27384 0.77072 0.90194 0.0
C267 C 0.24959 0.77066 0.88178 0.0
C268 C 0.25717 0.75511 0.85907 0.0
N269 N 0.28456 0.7453 0.86366 0.0
Co270 Co 0.30425 0.72262 0.83578 0.0
N271 N 0.27989 0.73473 0.80398 0.0
C272 C 0.2525 0.74512 0.80656 0.0
C273 C 0.23598 0.74593 0.78203 0.0
C274 C 0.25319 0.73432 0.76272 0.0
C275 C 0.27973 0.7273 0.77647 0.0
N276 N 0.32629 0.70132 0.80855 0.0
C277 C 0.32806 0.70388 0.78083 0.0
C278 C 0.35147 0.69003 0.77028 0.0
C279 C 0.36192 0.67531 0.79184 0.0
C280 C 0.34547 0.68211 0.81426 0.0
N281 N 0.32737 0.70848 0.86701 0.0
C282 C 0.33948 0.68218 0.86587 0.0
C283 C 0.35113 0.67525 0.89051 0.0
C284 C 0.34678 0.69899 0.90843 0.0
C285 C 0.33338 0.72012 0.89362 0.0
N286 N 0.25448 0.67094 0.83892 0.0
C287 C 0.17528 0.60873 0.8379 0.0
C288 C 0.20068 0.61605 0.81578 0.0
C289 C 0.23945 0.64694 0.81657 0.0
C290 C 0.19154 0.6317 0.86144 0.0
C291 C 0.23105 0.66171 0.86174 0.0
N292 N 0.35197 0.77531 0.83264 0.0
C293 C 0.42168 0.81942 0.83601 0.0
C294 C 0.41782 0.85265 0.83178 0.0
C295 C 0.37982 0.84558 0.82763 0.0
C296 C 0.34791 0.80735 0.82814 0.0
C297 C 0.38879 0.78138 0.83639 0.0
H298 H 0.31967 0.80414 0.82527 0.0
H299 H 0.39322 0.757 0.84004 0.0
H300 H 0.25654 0.65177 0.79846 0.0
H301 H 0.24203 0.6781 0.88042 0.0
C302 C 0.24295 0.75346 0.83246 0.0
C303 C 0.32423 0.74888 0.90566 0.0
C304 C 0.30046 0.70881 0.76366 0.0
C305 C 0.34814 0.67162 0.84093 0.0
H306 H 0.27547 0.78122 0.92261 0.0
H307 H 0.22972 0.7818 0.88332 0.0
H308 H 0.21319 0.75291 0.77865 0.0
H309 H 0.24554 0.7299 0.74126 0.0
H310 H 0.35739 0.68768 0.7489 0.0
H311 H 0.37873 0.66063 0.79117 0.0
H312 H 0.36352 0.65684 0.89471 0.0
H313 H 0.35372 0.70034 0.92979 0.0
H314 H 0.19025 0.59866 0.79733 0.0
H315 H 0.17406 0.62645 0.87967 0.0
H316 H 0.45015 0.82276 0.83924 0.0
H317 H 0.37407 0.86916 0.82408 0.0
H318 H 0.60451 0.13889 0.17668 0.0
C319 C 0.57822 0.14091 0.17693 0.0
H320 H 0.51686 0.10775 0.17545 0.0
H321 H 0.48518 0.94783 0.12822 0.0
H322 H 0.46684 0.97437 0.09004 0.0
H323 H 0.48085 0.04235 0.09046 0.0
H324 H 0.51374 0.08453 0.12899 0.0
C325 C 0.54356 0.10671 0.1766 0.0
C326 C 0.53864 0.06585 0.17565 0.0
C327 C 0.51864 0.04059 0.15326 0.0
C328 C 0.50996 1.00069 0.15316 0.0
C329 C 0.49153 0.97762 0.12984 0.0
C330 C 0.48103 0.99259 0.10764 0.0
C331 C 0.48893 0.03089 0.10787 0.0
C332 C 0.50764 0.05474 0.13024 0.0
H333 H 0.45427 0.91254 0.1744 0.0
C334 C 0.48029 0.91002 0.1746 0.0
H335 H 0.54172 0.94256 0.17578 0.0
H336 H 0.5743 0.10307 0.22304 0.0
H337 H 0.59286 0.07659 0.26114 0.0
H338 H 0.57887 1.00862 0.2607 0.0
H339 H 0.54577 0.96638 0.22225 0.0
C340 C 0.5152 0.94393 0.1749 0.0
C341 C 0.52056 0.98497 0.17569 0.0
C342 C 0.54068 1.01027 0.19804 0.0
C343 C 0.54936 0.05016 0.19815 0.0
C344 C 0.56791 0.07327 0.22143 0.0
C345 C 0.57855 0.05834 0.24357 0.0
C346 C 0.57066 0.02004 0.24333 0.0
C347 C 0.55182 0.99615 0.22101 0.0
H348 H 0.44622 0.52846 0.54488 0.0
C349 C 0.44937 0.54259 0.52516 0.0
H350 H 0.47968 0.55665 0.48749 0.0
H351 H 0.59536 0.51355 0.56279 0.0
H352 H 0.60012 0.56182 0.59531 0.0
H353 H 0.5613 0.59421 0.58947 0.0
H354 H 0.51659 0.57784 0.5515 0.0
C355 C 0.47629 0.54308 0.5074 0.0
C356 C 0.50048 0.52306 0.51209 0.0
C357 C 0.52822 0.53403 0.53369 0.0
C358 C 0.55274 0.51685 0.53614 0.0
C359 C 0.57777 0.52689 0.55904 0.0
C360 C 0.58055 0.55437 0.57803 0.0
C361 C 0.55855 0.57249 0.57481 0.0
C362 C 0.53273 0.5626 0.55297 0.0
H363 H 0.62992 0.52447 0.51635 0.0
C364 C 0.61746 0.49305 0.5173 0.0
H365 H 0.56413 0.44032 0.51836 0.0
H366 H 0.45031 0.4926 0.46911 0.0
H367 H 0.44771 0.44663 0.43541 0.0
H368 H 0.49253 0.42063 0.43785 0.0
H369 H 0.54015 0.44009 0.47414 0.0
C370 C 0.57797 0.47182 0.51797 0.0
C371 C 0.55164 0.48999 0.51616 0.0
C372 C 0.52391 0.4791 0.49461 0.0
C373 C 0.49844 0.49512 0.49276 0.0
C374 C 0.47091 0.48243 0.4712 0.0
C375 C 0.46892 0.45583 0.45175 0.0
C376 C 0.4941 0.44111 0.45316 0.0
C377 C 0.52126 0.45247 0.47423 0.0
H378 H 0.90441 0.47378 0.84719 0.0
C379 C 0.90297 0.4463 0.8425 0.0
H380 H 0.93672 0.42029 0.83216 0.0
H381 H 0.08993 0.57344 0.79474 0.0
H382 H 0.05894 0.55137 0.75062 0.0
H383 H 0.99141 0.49767 0.74716 0.0
H384 H 0.95396 0.46616 0.78802 0.0
C385 C 0.93737 0.44683 0.83844 0.0
C386 C 0.97792 0.48265 0.8409 0.0
C387 C 1.00067 0.5004 0.81704 0.0
C388 C 0.04071 0.53071 0.81906 0.0
C389 C 0.06067 0.54911 0.79461 0.0
C390 C 0.043 0.53702 0.76906 0.0
C391 C 1.00491 0.50684 0.76711 0.0
C392 C 0.98381 0.48885 0.79072 0.0
H393 H 0.12757 0.55203 0.8222 0.0
C394 C 0.13323 0.57597 0.83582 0.0
H395 H 0.10742 0.5994 0.86144 0.0
H396 H 0.94461 0.45683 0.8909 0.0
H397 H 0.97553 0.47777 0.9353 0.0
H398 H 0.0446 0.52766 0.939 0.0
H399 H 0.08342 0.55707 0.89844 0.0
C400 C 0.10199 0.57535 0.84806 0.0
C401 C 0.05952 0.54261 0.84509 0.0
C402 C 0.03646 0.52507 0.86898 0.0
C403 C 0.99613 0.49563 0.86688 0.0
C404 C 0.97492 0.47904 0.89126 0.0
C405 C 0.99232 0.49078 0.9169 0.0
C406 C 0.03123 0.51893 0.91898 0.0
C407 C 0.05315 0.53579 0.89545 0.0
H408 H 0.1303 0.52104 0.46935 0.0
C409 C 0.14396 0.54589 0.48303 0.0
H410 H 0.13471 0.58231 0.50939 0.0
H411 H 0.96144 0.47645 0.44404 0.0
H412 H 0.99693 0.49429 0.40122 0.0
H413 H 0.06829 0.5339 0.40069 0.0
H414 H 0.1048 0.55454 0.44301 0.0
C415 C 0.12071 0.55715 0.49601 0.0
C416 C 0.07605 0.5356 0.49518 0.0
C417 C 0.0544 0.52636 0.47021 0.0
C418 C 1.01248 0.50642 0.47045 0.0
C419 C 0.99264 0.49403 0.44515 0.0
C420 C 1.01273 0.50369 0.42037 0.0
C421 C 0.05295 0.52577 0.42008 0.0
C422 C 0.07363 0.53705 0.4446 0.0
H423 H 0.93599 0.51099 0.46871 0.0
C424 C 0.92298 0.48727 0.48344 0.0
H425 H 0.93334 0.45309 0.51139 0.0
H426 H 0.10536 0.54541 0.54715 0.0
H427 H 0.0702 0.53349 0.58974 0.0
H428 H 0.99955 0.50768 0.58998 0.0
H429 H 0.96338 0.49279 0.54766 0.0
C430 C 0.9468 0.47718 0.49699 0.0
C431 C 0.99142 0.49884 0.49559 0.0
C432 C 1.01326 0.5096 0.52046 0.0
C433 C 0.05482 0.52664 0.52028 0.0
C434 C 0.07443 0.53423 0.54579 0.0
C435 C 0.05454 0.52725 0.57052 0.0
C436 C 1.01474 0.51256 0.57066 0.0
C437 C 0.99427 0.50383 0.54609 0.0
H438 H 0.48168 0.89526 0.83398 0.0
C439 C 0.45361 0.89343 0.83171 0.0
H440 H 0.4261 0.92702 0.82587 0.0
H441 H 0.59262 0.07185 0.87274 0.0
H442 H 0.57879 0.03444 0.9147 0.0
H443 H 0.52374 0.96739 0.91747 0.0
H444 H 0.48257 0.9368 0.87803 0.0
C445 C 0.45346 0.92775 0.82889 0.0
C446 C 0.4895 0.9683 0.82724 0.0
C447 C 0.51304 0.98683 0.85061 0.0
C448 C 0.54408 0.02674 0.84937 0.0
C449 C 0.56784 0.04279 0.87276 0.0
C450 C 0.56041 0.02146 0.89697 0.0
C451 C 0.52947 0.98363 0.8985 0.0
C452 C 0.50606 0.96638 0.87568 0.0
H453 H 0.56783 0.11505 0.85479 0.0
C454 C 0.58888 0.12176 0.83848 0.0
H455 H 0.60565 0.09773 0.80639 0.0
H456 H 0.45285 0.94318 0.77814 0.0
H457 H 0.46519 0.98099 0.73646 0.0
H458 H 0.51604 0.05006 0.73486 0.0
H459 H 0.55507 0.08192 0.77482 0.0
C460 C 0.58469 0.09155 0.82264 0.0
C461 C 0.55115 0.04944 0.825 0.0
C462 C 0.52768 0.03068 0.80162 0.0
C463 C 0.49742 0.99059 0.80271 0.0
C464 C 0.47545 0.9734 0.77871 0.0
C465 C 0.48233 0.99473 0.75458 0.0
C466 C 0.51104 0.03361 0.75366 0.0
C467 C 0.53341 0.0515 0.77679 0.0
H468 H 0.51767 0.61297 0.1428 0.0
C469 C 0.49386 0.60287 0.15733 0.0
H470 H 0.46003 0.5598 0.18613 0.0
H471 H 0.56664 0.49243 0.12055 0.0
H472 H 0.54548 0.50653 0.07767 0.0
H473 H 0.50309 0.53548 0.07706 0.0
H474 H 0.48313 0.55227 0.11932 0.0
C475 C 0.48417 0.56984 0.1719 0.0
C476 C 0.5062 0.54707 0.17134 0.0
C477 C 0.51465 0.5336 0.14654 0.0
C478 C 0.53584 0.51275 0.14696 0.0
C479 C 0.54787 0.50484 0.12165 0.0
C480 C 0.53636 0.51331 0.0968 0.0
C481 C 0.51274 0.52991 0.09646 0.0
C482 C 0.50192 0.53993 0.12093 0.0
H483 H 0.53247 0.43323 0.14607 0.0
C484 C 0.55674 0.44416 0.16025 0.0
H485 H 0.59152 0.48888 0.18758 0.0
H486 H 0.49837 0.56912 0.22299 0.0
H487 H 0.51323 0.54881 0.26586 0.0
H488 H 0.54067 0.5051 0.26671 0.0
H489 H 0.55432 0.48211 0.22467 0.0
C490 C 0.56693 0.47803 0.1737 0.0
C491 C 0.54497 0.50083 0.17225 0.0
C492 C 0.53494 0.51285 0.19703 0.0
C493 C 0.51695 0.53665 0.19657 0.0
C494 C 0.5102 0.54979 0.2219 0.0
C495 C 0.51887 0.53858 0.24678 0.0
C496 C 0.53447 0.5141 0.24725 0.0
C497 C 0.54244 0.50133 0.22283 0.0
H498 H 0.7345 0.27738 0.95249 0.0
C499 C 0.71803 0.28563 0.93908 0.0
H500 H 0.66346 0.28565 0.93743 0.0
H501 H 0.60719 0.1988 0.05385 0.0
H502 H 0.60599 0.14346 0.03138 0.0
H503 H 0.63465 0.15022 0.98541 0.0
H504 H 0.66582 0.21263 0.96182 0.0
C505 C 0.68465 0.28445 0.9508 0.0
C506 C 0.6746 0.28101 0.98099 0.0
C507 C 0.65556 0.24428 0.99435 0.0
C508 C 0.63835 0.24025 0.02091 0.0
C509 C 0.62083 0.20345 0.03392 0.0
C510 C 0.61971 0.17146 0.02116 0.0
C511 C 0.6358 0.17526 0.99522 0.0
C512 C 0.65348 0.21115 0.98186 0.0
H513 H 0.57317 0.26751 0.06192 0.0
C514 C 0.59767 0.27461 0.07522 0.0
H515 H 0.64879 0.26884 0.07774 0.0
H516 H 0.71881 0.35715 0.96719 0.0
H517 H 0.71509 0.41169 0.98659 0.0
H518 H 0.67306 0.40198 0.02655 0.0
H519 H 0.63613 0.33857 0.04767 0.0
C520 C 0.62834 0.2706 0.06383 0.0
C521 C 0.63787 0.27229 0.03363 0.0
C522 C 0.65528 0.30853 0.01951 0.0
C523 C 0.67606 0.31339 0.99453 0.0
C524 C 0.69876 0.35131 0.98379 0.0
C525 C 0.69771 0.3829 0.99529 0.0
C526 C 0.67438 0.37751 0.01794 0.0
C527 C 0.65357 0.3409 0.03007 0.0
H528 H 0.47035 0.7212 0.2826 0.0
C529 C 0.4485 0.70619 0.26698 0.0
H530 H 0.40077 0.65141 0.25488 0.0
H531 H 0.42073 0.62932 0.39141 0.0
H532 H 0.48866 0.65182 0.38274 0.0
H533 H 0.51595 0.67115 0.33619 0.0
H534 H 0.47566 0.66905 0.29815 0.0
C535 C 0.41659 0.66836 0.27262 0.0
C536 C 0.39976 0.65112 0.30058 0.0
C537 C 0.42306 0.65033 0.3225 0.0
C538 C 0.40665 0.63692 0.34926 0.0
C539 C 0.43128 0.63846 0.37078 0.0
C540 C 0.47036 0.65117 0.36604 0.0
C541 C 0.48577 0.66222 0.33985 0.0
C542 C 0.46248 0.66157 0.31825 0.0
H543 H 0.3454 0.56213 0.39251 0.0
C544 C 0.34462 0.58689 0.40119 0.0
H545 H 0.34068 0.63711 0.38892 0.0
H546 H 0.34254 0.63774 0.26256 0.0
H547 H 0.27439 0.61012 0.27086 0.0
H548 H 0.24693 0.58729 0.31696 0.0
H549 H 0.28824 0.59209 0.35506 0.0
C550 C 0.35036 0.61699 0.38275 0.0
C551 C 0.36646 0.62262 0.35405 0.0
C552 C 0.34254 0.61982 0.33164 0.0
C553 C 0.35878 0.63345 0.30498 0.0
C554 C 0.33304 0.62923 0.28335 0.0
C555 C 0.29333 0.61296 0.28776 0.0
C556 C 0.27786 0.60011 0.31369 0.0
C557 C 0.30198 0.60329 0.3354 0.0
H558 H 0.77946 0.3183 0.72698 0.0
C559 C 0.77338 0.33438 0.74224 0.0
H560 H 0.78133 0.38974 0.75348 0.0
H561 H 0.80744 0.4013 0.61461 0.0
H562 H 0.85267 0.37777 0.62095 0.0
H563 H 0.86615 0.36172 0.66709 0.0
H564 H 0.83363 0.36809 0.70711 0.0
C565 C 0.77936 0.37218 0.73588 0.0
C566 C 0.77669 0.3877 0.70779 0.0
C567 C 0.79765 0.38622 0.68457 0.0
C568 C 0.79171 0.39803 0.65795 0.0
C569 C 0.81144 0.39385 0.63522 0.0
C570 C 0.83759 0.38041 0.63858 0.0
C571 C 0.84503 0.37118 0.66455 0.0
C572 C 0.8256 0.37426 0.68733 0.0
H573 H 0.80535 0.47143 0.61528 0.0
C574 C 0.77823 0.44834 0.60721 0.0
H575 H 0.72361 0.40093 0.6213 0.0
H576 H 0.73733 0.40417 0.74787 0.0
H577 H 0.69742 0.43308 0.74154 0.0
H578 H 0.68851 0.45395 0.69578 0.0
H579 H 0.72007 0.44584 0.65595 0.0
C580 C 0.75409 0.41934 0.62632 0.0
C581 C 0.76631 0.41338 0.65449 0.0
C582 C 0.74816 0.41818 0.67797 0.0
C583 C 0.75344 0.40586 0.70449 0.0
C584 C 0.73462 0.41193 0.72715 0.0
C585 C 0.71144 0.42887 0.72389 0.0
C586 C 0.7064 0.4406 0.69816 0.0
C587 C 0.72452 0.43551 0.67545 0.0
H588 H 0.32083 0.77365 0.945 0.0
C589 C 0.33754 0.76447 0.93271 0.0
H590 H 0.39375 0.76841 0.93115 0.0
H591 H 0.46769 0.8505 0.04304 0.0
H592 H 0.48722 0.90956 0.0165 0.0
H593 H 0.46004 0.90652 0.97044 0.0
H594 H 0.412 0.84451 0.95085 0.0
C595 C 0.37247 0.76956 0.94449 0.0
C596 C 0.38203 0.77333 0.97476 0.0
C597 C 0.41095 0.80938 0.98577 0.0
C598 C 0.42715 0.81109 0.01239 0.0
C599 C 0.45449 0.84775 0.02312 0.0
C600 C 0.46608 0.88172 0.00803 0.0
C601 C 0.45083 0.88 0.98203 0.0
C602 C 0.42356 0.84432 0.97093 0.0
H603 H 0.47697 0.77328 0.05582 0.0
C604 C 0.4541 0.77039 0.06939 0.0
H605 H 0.40762 0.78367 0.07126 0.0
H606 H 0.3194 0.70146 0.96573 0.0
H607 H 0.30511 0.64145 0.98912 0.0
H608 H 0.34549 0.64248 0.02803 0.0
H609 H 0.39877 0.70372 0.04458 0.0
C610 C 0.42598 0.77818 0.05765 0.0
C611 C 0.41676 0.77648 0.0274 0.0
C612 C 0.38972 0.74033 0.01545 0.0
C613 C 0.36982 0.73918 0.99073 0.0
C614 C 0.33807 0.70324 0.98245 0.0
C615 C 0.32918 0.6688 0.99602 0.0
C616 C 0.35164 0.66942 0.01809 0.0
C617 C 0.38162 0.70473 0.02774 0.0
H618 H 0.71158 0.47874 0.40126 0.0
C619 C 0.71071 0.4528 0.40938 0.0
H620 H 0.71038 0.40083 0.39575 0.0
H621 H 0.57783 0.37288 0.30547 0.0
H622 H 0.53646 0.36682 0.34387 0.0
H623 H 0.56301 0.3839 0.39073 0.0
H624 H 0.63142 0.40809 0.39939 0.0
C625 C 0.70195 0.42224 0.39053 0.0
C626 C 0.68652 0.41888 0.36179 0.0
C627 C 0.64627 0.40366 0.35688 0.0
C628 C 0.63042 0.39172 0.32984 0.0
C629 C 0.59075 0.37942 0.32566 0.0
C630 C 0.56681 0.37648 0.34749 0.0
C631 C 0.5818 0.38625 0.37388 0.0
C632 C 0.62107 0.39989 0.3786 0.0
H633 H 0.58584 0.32337 0.28786 0.0
C634 C 0.60741 0.34011 0.27241 0.0
H635 H 0.6541 0.39653 0.26195 0.0
H636 H 0.76492 0.45157 0.3632 0.0
H637 H 0.80748 0.4607 0.32488 0.0
H638 H 0.78117 0.44081 0.27823 0.0
H639 H 0.71293 0.41176 0.26956 0.0
C640 C 0.63847 0.37793 0.27918 0.0
C641 C 0.65452 0.39345 0.30763 0.0
C642 C 0.69553 0.41214 0.31227 0.0
C643 C 0.71114 0.42421 0.33925 0.0
C644 C 0.75172 0.4416 0.34324 0.0
C645 C 0.77653 0.44725 0.32143 0.0
C646 C 0.7617 0.43604 0.29519 0.0
C647 C 0.72195 0.4189 0.29055 0.0
H648 H 0.28835 0.6576 0.7408 0.0
C649 C 0.28657 0.68412 0.7401 0.0
H650 H 0.28513 0.72363 0.7103 0.0
H651 H 0.37496 0.68155 0.62211 0.0
H652 H 0.42016 0.74774 0.63303 0.0
H653 H 0.40645 0.78195 0.66959 0.0
H654 H 0.34691 0.74954 0.69541 0.0
C655 C 0.28242 0.69528 0.71348 0.0
C656 C 0.28783 0.67471 0.68911 0.0
C657 C 0.32257 0.69385 0.67353 0.0
C658 C 0.33026 0.67376 0.65219 0.0
C659 C 0.36623 0.69432 0.63804 0.0
C660 C 0.39305 0.73281 0.64422 0.0
C661 C 0.38536 0.75207 0.66478 0.0
C662 C 0.35079 0.73298 0.67939 0.0
H663 H 0.25329 0.57767 0.60406 0.0
C664 C 0.28432 0.59242 0.60044 0.0
H665 H 0.34022 0.6209 0.61858 0.0
H666 H 0.21775 0.62961 0.71351 0.0
H667 H 0.17426 0.56051 0.70638 0.0
H668 H 0.19082 0.52376 0.67353 0.0
H669 H 0.25023 0.55596 0.64706 0.0
C670 C 0.31055 0.61419 0.62183 0.0
C671 C 0.30265 0.63409 0.64573 0.0
C672 C 0.26895 0.61443 0.66256 0.0
C673 C 0.26093 0.63505 0.68336 0.0
C674 C 0.22596 0.61502 0.69843 0.0
C675 C 0.20073 0.57542 0.69448 0.0
C676 C 0.20991 0.5548 0.67583 0.0
C677 C 0.24371 0.57384 0.66023 0.0
loop_
_geom_bond_atom_site_label_1
_geom_bond_atom_site_label_2
_geom_bond_distance
_geom_bond_site_symmetry_2
_ccdc_geom_bond_type
C0 C1 1.443 . S
C0 N4 1.376 . S
C0 C38 1.389 . S
C1 C0 1.443 . S
C1 C2 1.340 . S
C1 H41 0.951 . S
C2 C1 1.340 . S
C2 C3 1.439 . S
C2 H42 0.950 . S
C3 C2 1.439 . S
C3 N4 1.374 . S
C3 C37 1.395 . S
N4 C0 1.376 . S
N4 C3 1.374 . S
N4 Co5 2.008 . S
Co5 N4 2.008 . S
Co5 N6 1.995 . S
Co5 N11 2.008 . S
Co5 N16 1.995 . S
Co5 N21 2.282 . S
Co5 N27 2.282 . S
N6 Co5 1.995 . S
N6 C7 1.376 . S
N6 C10 1.383 . S
C7 N6 1.376 . S
C7 C8 1.446 . S
C7 C37 1.391 . S
C8 C7 1.446 . S
C8 C9 1.339 . S
C8 H43 0.949 . S
C9 C8 1.339 . S
C9 C10 1.439 . S
C9 H44 0.950 . S
C10 N6 1.383 . S
C10 C9 1.439 . S
C10 C39 1.392 . S
N11 Co5 2.008 . S
N11 C12 1.376 . S
N11 C15 1.374 . S
C12 N11 1.376 . S
C12 C13 1.443 . S
C12 C39 1.389 . S
C13 C12 1.443 . S
C13 C14 1.340 . S
C13 H45 0.951 . S
C14 C13 1.340 . S
C14 C15 1.439 . S
C14 H46 0.950 . S
C15 N11 1.374 . S
C15 C14 1.439 . S
C15 C40 1.395 . S
N16 Co5 1.995 . S
N16 C17 1.376 . S
N16 C20 1.383 . S
C17 N16 1.376 . S
C17 C18 1.446 . S
C17 C40 1.391 . S
C18 C17 1.446 . S
C18 C19 1.339 . S
C18 H47 0.949 . S
C19 C18 1.339 . S
C19 C20 1.439 . S
C19 H48 0.950 . S
C20 N16 1.383 . S
C20 C19 1.439 . S
C20 C38 1.392 . S
N21 Co5 2.282 . S
N21 C24 1.332 . S
N21 C26 1.332 . S
C22 C23 1.386 . S
C22 C25 1.388 . S
C23 C22 1.386 . S
C23 C24 1.382 . S
C23 H49 0.950 . S
C24 N21 1.332 . S
C24 C23 1.382 . S
C24 H35 0.952 . S
C25 C22 1.388 . S
C25 C26 1.382 . S
C25 H50 0.950 . S
C26 N21 1.332 . S
C26 C25 1.382 . S
C26 H36 0.948 . S
N27 Co5 2.282 . S
N27 C31 1.332 . S
N27 C32 1.332 . S
C28 C29 1.388 . S
C28 C32 1.382 . S
C28 H51 0.950 . S
C29 C28 1.388 . S
C29 C30 1.386 . S
C30 C29 1.386 . S
C30 C31 1.382 . S
C30 H52 0.950 . S
C31 N27 1.332 . S
C31 C30 1.382 . S
C31 H33 0.952 . S
C32 N27 1.332 . S
C32 C28 1.382 . S
C32 H34 0.948 . S
H33 C31 0.952 . S
H34 C32 0.948 . S
H35 C24 0.952 . S
H36 C26 0.948 . S
C37 C3 1.395 . S
C37 C7 1.391 . S
C38 C0 1.389 . S
C38 C20 1.392 . S
C39 C10 1.392 . S
C39 C12 1.389 . S
C40 C15 1.395 . S
C40 C17 1.391 . S
H41 C1 0.951 . S
H42 C2 0.950 . S
H43 C8 0.949 . S
H44 C9 0.950 . S
H45 C13 0.951 . S
H46 C14 0.950 . S
H47 C18 0.949 . S
H48 C19 0.950 . S
H49 C23 0.950 . S
H50 C25 0.950 . S
H51 C28 0.950 . S
H52 C30 0.950 . S
C53 C54 1.443 . S
C53 N57 1.376 . S
C53 C91 1.389 . S
C54 C53 1.443 . S
C54 C55 1.340 . S
C54 H94 0.951 . S
C55 C54 1.340 . S
C55 C56 1.439 . S
C55 H95 0.950 . S
C56 C55 1.439 . S
C56 N57 1.374 . S
C56 C90 1.395 . S
N57 C53 1.376 . S
N57 C56 1.374 . S
N57 Co58 2.008 . S
Co58 N57 2.008 . S
Co58 N59 1.995 . S
Co58 N64 2.008 . S
Co58 N69 1.995 . S
Co58 N74 2.282 . S
Co58 N80 2.282 . S
N59 Co58 1.995 . S
N59 C60 1.376 . S
N59 C63 1.383 . S
C60 N59 1.376 . S
C60 C61 1.446 . S
C60 C90 1.391 . S
C61 C60 1.446 . S
C61 C62 1.339 . S
C61 H96 0.949 . S
C62 C61 1.339 . S
C62 C63 1.439 . S
C62 H97 0.950 . S
C63 N59 1.383 . S
C63 C62 1.439 . S
C63 C92 1.392 . S
N64 Co58 2.008 . S
N64 C65 1.376 . S
N64 C68 1.374 . S
C65 N64 1.376 . S
C65 C66 1.443 . S
C65 C92 1.389 . S
C66 C65 1.443 . S
C66 C67 1.340 . S
C66 H98 0.951 . S
C67 C66 1.340 . S
C67 C68 1.439 . S
C67 H99 0.950 . S
C68 N64 1.374 . S
C68 C67 1.439 . S
C68 C93 1.395 . S
N69 Co58 1.995 . S
N69 C70 1.376 . S
N69 C73 1.383 . S
C70 N69 1.376 . S
C70 C71 1.446 . S
C70 C93 1.391 . S
C71 C70 1.446 . S
C71 C72 1.339 . S
C71 H100 0.949 . S
C72 C71 1.339 . S
C72 C73 1.439 . S
C72 H101 0.950 . S
C73 N69 1.383 . S
C73 C72 1.439 . S
C73 C91 1.392 . S
N74 Co58 2.282 . S
N74 C77 1.332 . S
N74 C79 1.332 . S
C75 C76 1.386 . S
C75 C78 1.388 . S
C76 C75 1.386 . S
C76 C77 1.382 . S
C76 H102 0.950 . S
C77 N74 1.332 . S
C77 C76 1.382 . S
C77 H88 0.952 . S
C78 C75 1.388 . S
C78 C79 1.382 . S
C78 H103 0.950 . S
C79 N74 1.332 . S
C79 C78 1.382 . S
C79 H89 0.948 . S
N80 Co58 2.282 . S
N80 C84 1.332 . S
N80 C85 1.332 . S
C81 C82 1.388 . S
C81 C85 1.382 . S
C81 H104 0.950 . S
C82 C81 1.388 . S
C82 C83 1.386 . S
C83 C82 1.386 . S
C83 C84 1.382 . S
C83 H105 0.950 . S
C84 N80 1.332 . S
C84 C83 1.382 . S
C84 H86 0.952 . S
C85 N80 1.332 . S
C85 C81 1.382 . S
C85 H87 0.948 . S
H86 C84 0.952 . S
H87 C85 0.948 . S
H88 C77 0.952 . S
H89 C79 0.948 . S
C90 C56 1.395 . S
C90 C60 1.391 . S
C91 C53 1.389 . S
C91 C73 1.392 . S
C92 C63 1.392 . S
C92 C65 1.389 . S
C93 C68 1.395 . S
C93 C70 1.391 . S
H94 C54 0.951 . S
H95 C55 0.950 . S
H96 C61 0.949 . S
H97 C62 0.950 . S
H98 C66 0.951 . S
H99 C67 0.950 . S
H100 C71 0.949 . S
H101 C72 0.950 . S
H102 C76 0.950 . S
H103 C78 0.950 . S
H104 C81 0.950 . S
H105 C83 0.950 . S
C106 C107 1.443 . S
C106 N110 1.376 . S
C106 C144 1.389 . S
C107 C106 1.443 . S
C107 C108 1.340 . S
C107 H147 0.951 . S
C108 C107 1.340 . S
C108 C109 1.439 . S
C108 H148 0.950 . S
C109 C108 1.439 . S
C109 N110 1.374 . S
C109 C143 1.395 . S
N110 C106 1.376 . S
N110 C109 1.374 . S
N110 Co111 2.008 . S
Co111 N110 2.008 . S
Co111 N112 1.995 . S
Co111 N117 2.008 . S
Co111 N122 1.995 . S
Co111 N127 2.282 . S
Co111 N133 2.282 . S
N112 Co111 1.995 . S
N112 C113 1.376 . S
N112 C116 1.383 . S
C113 N112 1.376 . S
C113 C114 1.446 . S
C113 C143 1.391 . S
C114 C113 1.446 . S
C114 C115 1.339 . S
C114 H149 0.949 . S
C115 C114 1.339 . S
C115 C116 1.439 . S
C115 H150 0.950 . S
C116 N112 1.383 . S
C116 C115 1.439 . S
C116 C145 1.392 . S
N117 Co111 2.008 . S
N117 C118 1.376 . S
N117 C121 1.374 . S
C118 N117 1.376 . S
C118 C119 1.443 . S
C118 C145 1.389 . S
C119 C118 1.443 . S
C119 C120 1.340 . S
C119 H151 0.951 . S
C120 C119 1.340 . S
C120 C121 1.439 . S
C120 H152 0.950 . S
C121 N117 1.374 . S
C121 C120 1.439 . S
C121 C146 1.395 . S
N122 Co111 1.995 . S
N122 C123 1.376 . S
N122 C126 1.383 . S
C123 N122 1.376 . S
C123 C124 1.446 . S
C123 C146 1.391 . S
C124 C123 1.446 . S
C124 C125 1.339 . S
C124 H153 0.949 . S
C125 C124 1.339 . S
C125 C126 1.439 . S
C125 H154 0.950 . S
C126 N122 1.383 . S
C126 C125 1.439 . S
C126 C144 1.392 . S
N127 Co111 2.282 . S
N127 C130 1.332 . S
N127 C132 1.332 . S
C128 C129 1.386 . S
C128 C131 1.388 . S
C129 C128 1.386 . S
C129 C130 1.382 . S
C129 H155 0.950 . S
C130 N127 1.332 . S
C130 C129 1.382 . S
C130 H141 0.952 . S
C131 C128 1.388 . S
C131 C132 1.382 . S
C131 H156 0.950 . S
C132 N127 1.332 . S
C132 C131 1.382 . S
C132 H142 0.948 . S
N133 Co111 2.282 . S
N133 C137 1.332 . S
N133 C138 1.332 . S
C134 C135 1.388 . S
C134 C138 1.382 . S
C134 H157 0.950 . S
C135 C134 1.388 . S
C135 C136 1.386 . S
C136 C135 1.386 . S
C136 C137 1.382 . S
C136 H158 0.950 . S
C137 N133 1.332 . S
C137 C136 1.382 . S
C137 H139 0.952 . S
C138 N133 1.332 . S
C138 C134 1.382 . S
C138 H140 0.948 . S
H139 C137 0.952 . S
H140 C138 0.948 . S
H141 C130 0.952 . S
H142 C132 0.948 . S
C143 C109 1.395 . S
C143 C113 1.391 . S
C144 C106 1.389 . S
C144 C126 1.392 . S
C145 C116 1.392 . S
C145 C118 1.389 . S
C146 C121 1.395 . S
C146 C123 1.391 . S
H147 C107 0.951 . S
H148 C108 0.950 . S
H149 C114 0.949 . S
H150 C115 0.950 . S
H151 C119 0.951 . S
H152 C120 0.950 . S
H153 C124 0.949 . S
H154 C125 0.950 . S
H155 C129 0.950 . S
H156 C131 0.950 . S
H157 C134 0.950 . S
H158 C136 0.950 . S
C159 C160 1.443 . S
C159 N163 1.376 . S
C159 C197 1.389 . S
C160 C159 1.443 . S
C160 C161 1.340 . S
C160 H200 0.951 . S
C161 C160 1.340 . S
C161 C162 1.439 . S
C161 H201 0.950 . S
C162 C161 1.439 . S
C162 N163 1.374 . S
C162 C196 1.395 . S
N163 C159 1.376 . S
N163 C162 1.374 . S
N163 Co164 2.008 . S
Co164 N163 2.008 . S
Co164 N165 1.995 . S
Co164 N170 2.008 . S
Co164 N175 1.995 . S
Co164 N180 2.282 . S
Co164 N186 2.282 . S
N165 Co164 1.995 . S
N165 C166 1.376 . S
N165 C169 1.383 . S
C166 N165 1.376 . S
C166 C167 1.446 . S
C166 C196 1.391 . S
C167 C166 1.446 . S
C167 C168 1.339 . S
C167 H202 0.949 . S
C168 C167 1.339 . S
C168 C169 1.439 . S
C168 H203 0.950 . S
C169 N165 1.383 . S
C169 C168 1.439 . S
C169 C198 1.392 . S
N170 Co164 2.008 . S
N170 C171 1.376 . S
N170 C174 1.374 . S
C171 N170 1.376 . S
C171 C172 1.443 . S
C171 C198 1.389 . S
C172 C171 1.443 . S
C172 C173 1.340 . S
C172 H204 0.951 . S
C173 C172 1.340 . S
C173 C174 1.439 . S
C173 H205 0.950 . S
C174 N170 1.374 . S
C174 C173 1.439 . S
C174 C199 1.395 . S
N175 Co164 1.995 . S
N175 C176 1.376 . S
N175 C179 1.383 . S
C176 N175 1.376 . S
C176 C177 1.446 . S
C176 C199 1.391 . S
C177 C176 1.446 . S
C177 C178 1.339 . S
C177 H206 0.949 . S
C178 C177 1.339 . S
C178 C179 1.439 . S
C178 H207 0.950 . S
C179 N175 1.383 . S
C179 C178 1.439 . S
C179 C197 1.392 . S
N180 Co164 2.282 . S
N180 C183 1.332 . S
N180 C185 1.332 . S
C181 C182 1.386 . S
C181 C184 1.388 . S
C182 C181 1.386 . S
C182 C183 1.382 . S
C182 H208 0.950 . S
C183 N180 1.332 . S
C183 C182 1.382 . S
C183 H194 0.952 . S
C184 C181 1.388 . S
C184 C185 1.382 . S
C184 H209 0.950 . S
C185 N180 1.332 . S
C185 C184 1.382 . S
C185 H195 0.948 . S
N186 Co164 2.282 . S
N186 C190 1.332 . S
N186 C191 1.332 . S
C187 C188 1.388 . S
C187 C191 1.382 . S
C187 H210 0.950 . S
C188 C187 1.388 . S
C188 C189 1.386 . S
C189 C188 1.386 . S
C189 C190 1.382 . S
C189 H211 0.950 . S
C190 N186 1.332 . S
C190 C189 1.382 . S
C190 H192 0.952 . S
C191 N186 1.332 . S
C191 C187 1.382 . S
C191 H193 0.948 . S
H192 C190 0.952 . S
H193 C191 0.948 . S
H194 C183 0.952 . S
H195 C185 0.948 . S
C196 C162 1.395 . S
C196 C166 1.391 . S
C197 C159 1.389 . S
C197 C179 1.392 . S
C198 C169 1.392 . S
C198 C171 1.389 . S
C199 C174 1.395 . S
C199 C176 1.391 . S
H200 C160 0.951 . S
H201 C161 0.950 . S
H202 C167 0.949 . S
H203 C168 0.950 . S
H204 C172 0.951 . S
H205 C173 0.950 . S
H206 C177 0.949 . S
H207 C178 0.950 . S
H208 C182 0.950 . S
H209 C184 0.950 . S
H210 C187 0.950 . S
H211 C189 0.950 . S
C212 C213 1.443 . S
C212 N216 1.376 . S
C212 C250 1.389 . S
C213 C212 1.443 . S
C213 C214 1.340 . S
C213 H253 0.951 . S
C214 C213 1.340 . S
C214 C215 1.439 . S
C214 H254 0.950 . S
C215 C214 1.439 . S
C215 N216 1.374 . S
C215 C249 1.395 . S
N216 C212 1.376 . S
N216 C215 1.374 . S
N216 Co217 2.008 . S
Co217 N216 2.008 . S
Co217 N218 1.995 . S
Co217 N223 2.008 . S
Co217 N228 1.995 . S
Co217 N233 2.282 . S
Co217 N239 2.282 . S
N218 Co217 1.995 . S
N218 C219 1.376 . S
N218 C222 1.383 . S
C219 N218 1.376 . S
C219 C220 1.446 . S
C219 C249 1.391 . S
C220 C219 1.446 . S
C220 C221 1.339 . S
C220 H255 0.949 . S
C221 C220 1.339 . S
C221 C222 1.439 . S
C221 H256 0.950 . S
C222 N218 1.383 . S
C222 C221 1.439 . S
C222 C251 1.392 . S
N223 Co217 2.008 . S
N223 C224 1.376 . S
N223 C227 1.374 . S
C224 N223 1.376 . S
C224 C225 1.443 . S
C224 C251 1.389 . S
C225 C224 1.443 . S
C225 C226 1.340 . S
C225 H257 0.951 . S
C226 C225 1.340 . S
C226 C227 1.439 . S
C226 H258 0.950 . S
C227 N223 1.374 . S
C227 C226 1.439 . S
C227 C252 1.395 . S
N228 Co217 1.995 . S
N228 C229 1.376 . S
N228 C232 1.383 . S
C229 N228 1.376 . S
C229 C230 1.446 . S
C229 C252 1.391 . S
C230 C229 1.446 . S
C230 C231 1.339 . S
C230 H259 0.949 . S
C231 C230 1.339 . S
C231 C232 1.439 . S
C231 H260 0.950 . S
C232 N228 1.383 . S
C232 C231 1.439 . S
C232 C250 1.392 . S
N233 Co217 2.282 . S
N233 C236 1.332 . S
N233 C238 1.332 . S
C234 C235 1.386 . S
C234 C237 1.388 . S
C235 C234 1.386 . S
C235 C236 1.382 . S
C235 H261 0.950 . S
C236 N233 1.332 . S
C236 C235 1.382 . S
C236 H247 0.952 . S
C237 C234 1.388 . S
C237 C238 1.382 . S
C237 H262 0.950 . S
C238 N233 1.332 . S
C238 C237 1.382 . S
C238 H248 0.948 . S
N239 Co217 2.282 . S
N239 C243 1.332 . S
N239 C244 1.332 . S
C240 C241 1.388 . S
C240 C244 1.382 . S
C240 H263 0.950 . S
C241 C240 1.388 . S
C241 C242 1.386 . S
C242 C241 1.386 . S
C242 C243 1.382 . S
C242 H264 0.950 . S
C243 N239 1.332 . S
C243 C242 1.382 . S
C243 H245 0.952 . S
C244 N239 1.332 . S
C244 C240 1.382 . S
C244 H246 0.948 . S
H245 C243 0.952 . S
H246 C244 0.948 . S
H247 C236 0.952 . S
H248 C238 0.948 . S
C249 C215 1.395 . S
C249 C219 1.391 . S
C250 C212 1.389 . S
C250 C232 1.392 . S
C251 C222 1.392 . S
C251 C224 1.389 . S
C252 C227 1.395 . S
C252 C229 1.391 . S
H253 C213 0.951 . S
H254 C214 0.950 . S
H255 C220 0.949 . S
H256 C221 0.950 . S
H257 C225 0.951 . S
H258 C226 0.950 . S
H259 C230 0.949 . S
H260 C231 0.950 . S
H261 C235 0.950 . S
H262 C237 0.950 . S
H263 C240 0.950 . S
H264 C242 0.950 . S
C265 C266 1.443 . S
C265 N269 1.376 . S
C265 C303 1.389 . S
C266 C265 1.443 . S
C266 C267 1.340 . S
C266 H306 0.951 . S
C267 C266 1.340 . S
C267 C268 1.439 . S
C267 H307 0.950 . S
C268 C267 1.439 . S
C268 N269 1.374 . S
C268 C302 1.395 . S
N269 C265 1.376 . S
N269 C268 1.374 . S
N269 Co270 2.008 . S
Co270 N269 2.008 . S
Co270 N271 1.995 . S
Co270 N276 2.008 . S
Co270 N281 1.995 . S
Co270 N286 2.282 . S
Co270 N292 2.282 . S
N271 Co270 1.995 . S
N271 C272 1.376 . S
N271 C275 1.383 . S
C272 N271 1.376 . S
C272 C273 1.446 . S
C272 C302 1.391 . S
C273 C272 1.446 . S
C273 C274 1.339 . S
C273 H308 0.949 . S
C274 C273 1.339 . S
C274 C275 1.439 . S
C274 H309 0.950 . S
C275 N271 1.383 . S
C275 C274 1.439 . S
C275 C304 1.392 . S
N276 Co270 2.008 . S
N276 C277 1.376 . S
N276 C280 1.374 . S
C277 N276 1.376 . S
C277 C278 1.443 . S
C277 C304 1.389 . S
C278 C277 1.443 . S
C278 C279 1.340 . S
C278 H310 0.951 . S
C279 C278 1.340 . S
C279 C280 1.439 . S
C279 H311 0.950 . S
C280 N276 1.374 . S
C280 C279 1.439 . S
C280 C305 1.395 . S
N281 Co270 1.995 . S
N281 C282 1.376 . S
N281 C285 1.383 . S
C282 N281 1.376 . S
C282 C283 1.446 . S
C282 C305 1.391 . S
C283 C282 1.446 . S
C283 C284 1.339 . S
C283 H312 0.949 . S
C284 C283 1.339 . S
C284 C285 1.439 . S
C284 H313 0.950 . S
C285 N281 1.383 . S
C285 C284 1.439 . S
C285 C303 1.392 . S
N286 Co270 2.282 . S
N286 C289 1.332 . S
N286 C291 1.332 . S
C287 C288 1.386 . S
C287 C290 1.388 . S
C288 C287 1.386 . S
C288 C289 1.382 . S
C288 H314 0.950 . S
C289 N286 1.332 . S
C289 C288 1.382 . S
C289 H300 0.952 . S
C290 C287 1.388 . S
C290 C291 1.382 . S
C290 H315 0.950 . S
C291 N286 1.332 . S
C291 C290 1.382 . S
C291 H301 0.948 . S
N292 Co270 2.282 . S
N292 C296 1.332 . S
N292 C297 1.332 . S
C293 C294 1.388 . S
C293 C297 1.382 . S
C293 H316 0.950 . S
C294 C293 1.388 . S
C294 C295 1.386 . S
C295 C294 1.386 . S
C295 C296 1.382 . S
C295 H317 0.950 . S
C296 N292 1.332 . S
C296 C295 1.382 . S
C296 H298 0.952 . S
C297 N292 1.332 . S
C297 C293 1.382 . S
C297 H299 0.948 . S
H298 C296 0.952 . S
H299 C297 0.948 . S
H300 C289 0.952 . S
H301 C291 0.948 . S
C302 C268 1.395 . S
C302 C272 1.391 . S
C303 C265 1.389 . S
C303 C285 1.392 . S
C304 C275 1.392 . S
C304 C277 1.389 . S
C305 C280 1.395 . S
C305 C282 1.391 . S
H306 C266 0.951 . S
H307 C267 0.950 . S
H308 C273 0.949 . S
H309 C274 0.950 . S
H310 C278 0.951 . S
H311 C279 0.950 . S
H312 C283 0.949 . S
H313 C284 0.950 . S
H314 C288 0.950 . S
H315 C290 0.950 . S
H316 C293 0.950 . S
H317 C295 0.950 . S
H318 C319 0.951 . S
C319 H318 0.951 . S
C319 C325 1.265 . S
H320 C325 0.950 . S
H321 C329 0.949 . S
H322 C330 0.950 . S
H323 C331 0.956 . S
H324 C332 0.951 . S
C325 C319 1.265 . S
C325 H320 0.950 . S
C325 C326 1.478 . S
C326 C325 1.478 . S
C326 C327 1.397 . S
C326 C343 1.394 . S
C327 C326 1.397 . S
C327 C328 1.438 1_545 S
C327 C332 1.429 . S
C328 C327 1.438 1_565 S
C328 C329 1.428 . S
C328 C341 1.394 . S
C329 H321 0.949 . S
C329 C328 1.428 . S
C329 C330 1.345 . S
C330 H322 0.950 . S
C330 C329 1.345 . S
C330 C331 1.414 1_565 S
C331 H323 0.956 . S
C331 C330 1.414 1_545 S
C331 C332 1.352 . S
C332 H324 0.951 . S
C332 C327 1.429 . S
C332 C331 1.352 . S
H333 C334 0.951 . S
C334 H333 0.951 . S
C334 C340 1.265 . S
H335 C340 0.950 . S
H336 C344 0.949 . S
H337 C345 0.950 . S
H338 C346 0.956 . S
H339 C347 0.951 . S
C340 C334 1.265 . S
C340 H335 0.950 . S
C340 C341 1.478 . S
C341 C328 1.394 . S
C341 C340 1.478 . S
C341 C342 1.397 . S
C342 C341 1.397 . S
C342 C343 1.438 1_565 S
C342 C347 1.429 . S
C343 C326 1.394 . S
C343 C342 1.438 1_545 S
C343 C344 1.428 . S
C344 H336 0.949 . S
C344 C343 1.428 . S
C344 C345 1.345 . S
C345 H337 0.950 . S
C345 C344 1.345 . S
C345 C346 1.414 1_545 S
C346 H338 0.956 . S
C346 C345 1.414 1_565 S
C346 C347 1.352 . S
C347 H339 0.951 . S
C347 C342 1.429 . S
C347 C346 1.352 . S
H348 C349 0.951 . S
C349 H348 0.951 . S
C349 C355 1.265 . S
H350 C355 0.950 . S
H351 C359 0.949 . S
H352 C360 0.950 . S
H353 C361 0.951 . S
H354 C362 0.951 . S
C355 C349 1.265 . S
C355 H350 0.950 . S
C355 C356 1.478 . S
C356 C355 1.478 . S
C356 C357 1.397 . S
C356 C373 1.394 . S
C357 C356 1.397 . S
C357 C358 1.438 . S
C357 C362 1.429 . S
C358 C357 1.438 . S
C358 C359 1.428 . S
C358 C371 1.394 . S
C359 H351 0.949 . S
C359 C358 1.428 . S
C359 C360 1.345 . S
C360 H352 0.950 . S
C360 C359 1.345 . S
C360 C361 1.424 . S
C361 H353 0.951 . S
C361 C360 1.424 . S
C361 C362 1.347 . S
C362 H354 0.951 . S
C362 C357 1.429 . S
C362 C361 1.347 . S
H363 C364 0.951 . S
C364 H363 0.951 . S
C364 C370 1.265 . S
H365 C370 0.950 . S
H366 C374 0.949 . S
H367 C375 0.950 . S
H368 C376 0.951 . S
H369 C377 0.951 . S
C370 C364 1.265 . S
C370 H365 0.950 . S
C370 C371 1.478 . S
C371 C358 1.394 . S
C371 C370 1.478 . S
C371 C372 1.397 . S
C372 C371 1.397 . S
C372 C373 1.438 . S
C372 C377 1.429 . S
C373 C356 1.394 . S
C373 C372 1.438 . S
C373 C374 1.428 . S
C374 H366 0.949 . S
C374 C373 1.428 . S
C374 C375 1.345 . S
C375 H367 0.950 . S
C375 C374 1.345 . S
C375 C376 1.424 . S
C376 H368 0.951 . S
C376 C375 1.424 . S
C376 C377 1.347 . S
C377 H369 0.951 . S
C377 C372 1.429 . S
C377 C376 1.347 . S
H378 C379 0.951 . S
C379 H378 0.951 . S
C379 C385 1.265 . S
H380 C385 0.950 . S
H381 C389 0.949 . S
H382 C390 0.950 . S
H383 C391 0.948 . S
H384 C392 0.951 . S
C385 C379 1.265 . S
C385 H380 0.950 . S
C385 C386 1.478 . S
C386 C385 1.478 . S
C386 C387 1.397 . S
C386 C403 1.394 . S
C387 C386 1.397 . S
C387 C388 1.438 1_655 S
C387 C392 1.429 . S
C388 C387 1.438 1_455 S
C388 C389 1.428 . S
C388 C401 1.394 . S
C389 H381 0.949 . S
C389 C388 1.428 . S
C389 C390 1.345 . S
C390 H382 0.950 . S
C390 C389 1.345 . S
C390 C391 1.424 . S
C391 H383 0.948 . S
C391 C390 1.424 . S
C391 C392 1.347 1_455 S
C392 H384 0.951 . S
C392 C387 1.429 . S
C392 C391 1.347 1_655 S
H393 C394 0.951 . S
C394 H393 0.951 . S
C394 C400 1.265 . S
H395 C400 0.950 . S
H396 C404 0.949 . S
H397 C405 0.950 . S
H398 C406 0.948 . S
H399 C407 0.951 . S
C400 C394 1.265 . S
C400 H395 0.950 . S
C400 C401 1.478 . S
C401 C388 1.394 . S
C401 C400 1.478 . S
C401 C402 1.397 . S
C402 C401 1.397 . S
C402 C403 1.438 1_455 S
C402 C407 1.429 . S
C403 C386 1.394 . S
C403 C402 1.438 1_655 S
C403 C404 1.428 . S
C404 H396 0.949 . S
C404 C403 1.428 . S
C404 C405 1.345 . S
C405 H397 0.950 . S
C405 C404 1.345 . S
C405 C406 1.424 . S
C406 H398 0.948 . S
C406 C405 1.424 . S
C406 C407 1.347 1_655 S
C407 H399 0.951 . S
C407 C402 1.429 . S
C407 C406 1.347 1_455 S
H408 C409 0.951 . S
C409 H408 0.951 . S
C409 C415 1.265 . S
H410 C415 0.950 . S
H411 C419 0.949 . S
H412 C420 0.950 . S
H413 C421 0.951 . S
H414 C422 0.951 . S
C415 C409 1.265 . S
C415 H410 0.950 . S
C415 C416 1.478 . S
C416 C415 1.478 . S
C416 C417 1.397 . S
C416 C433 1.394 . S
C417 C416 1.397 . S
C417 C418 1.438 1_455 S
C417 C422 1.429 . S
C418 C417 1.438 1_655 S
C418 C419 1.428 . S
C418 C431 1.394 . S
C419 H411 0.949 . S
C419 C418 1.428 . S
C419 C420 1.345 . S
C420 H412 0.950 . S
C420 C419 1.345 . S
C420 C421 1.424 1_655 S
C421 H413 0.951 . S
C421 C420 1.424 1_455 S
C421 C422 1.347 . S
C422 H414 0.951 . S
C422 C417 1.429 . S
C422 C421 1.347 . S
H423 C424 0.951 . S
C424 H423 0.951 . S
C424 C430 1.265 . S
H425 C430 0.950 . S
H426 C434 0.949 . S
H427 C435 0.950 . S
H428 C436 0.951 . S
H429 C437 0.951 . S
C430 C424 1.265 . S
C430 H425 0.950 . S
C430 C431 1.478 . S
C431 C418 1.394 . S
C431 C430 1.478 . S
C431 C432 1.397 . S
C432 C431 1.397 . S
C432 C433 1.438 1_655 S
C432 C437 1.429 . S
C433 C416 1.394 . S
C433 C432 1.438 1_455 S
C433 C434 1.428 . S
C434 H426 0.949 . S
C434 C433 1.428 . S
C434 C435 1.345 . S
C435 H427 0.950 . S
C435 C434 1.345 . S
C435 C436 1.424 1_455 S
C436 H428 0.951 . S
C436 C435 1.424 1_655 S
C436 C437 1.347 . S
C437 H429 0.951 . S
C437 C432 1.429 . S
C437 C436 1.347 . S
H438 C439 0.951 . S
C439 H438 0.951 . S
C439 C445 1.265 . S
H440 C445 0.950 . S
H441 C449 0.949 . S
H442 C450 0.950 . S
H443 C451 0.951 . S
H444 C452 0.951 . S
C445 C439 1.265 . S
C445 H440 0.950 . S
C445 C446 1.478 . S
C446 C445 1.478 . S
C446 C447 1.397 . S
C446 C463 1.394 . S
C447 C446 1.397 . S
C447 C448 1.438 1_565 S
C447 C452 1.429 . S
C448 C447 1.438 1_545 S
C448 C449 1.428 . S
C448 C461 1.394 . S
C449 H441 0.949 . S
C449 C448 1.428 . S
C449 C450 1.345 . S
C450 H442 0.950 . S
C450 C449 1.345 . S
C450 C451 1.414 1_545 S
C451 H443 0.951 . S
C451 C450 1.414 1_565 S
C451 C452 1.357 . S
C452 H444 0.951 . S
C452 C447 1.429 . S
C452 C451 1.357 . S
H453 C454 0.951 . S
C454 H453 0.951 . S
C454 C460 1.265 . S
H455 C460 0.950 . S
H456 C464 0.949 . S
H457 C465 0.950 . S
H458 C466 0.951 . S
H459 C467 0.951 . S
C460 C454 1.265 . S
C460 H455 0.950 . S
C460 C461 1.478 . S
C461 C448 1.394 . S
C461 C460 1.478 . S
C461 C462 1.397 . S
C462 C461 1.397 . S
C462 C463 1.438 1_545 S
C462 C467 1.429 . S
C463 C446 1.394 . S
C463 C462 1.438 1_565 S
C463 C464 1.428 . S
C464 H456 0.949 . S
C464 C463 1.428 . S
C464 C465 1.345 . S
C465 H457 0.950 . S
C465 C464 1.345 . S
C465 C466 1.414 1_565 S
C466 H458 0.951 . S
C466 C465 1.414 1_545 S
C466 C467 1.357 . S
C467 H459 0.951 . S
C467 C462 1.429 . S
C467 C466 1.357 . S
H468 C469 0.951 . S
C469 H468 0.951 . S
C469 C475 1.265 . S
H470 C475 0.950 . S
H471 C479 0.949 . S
H472 C480 0.950 . S
H473 C481 0.951 . S
H474 C482 0.951 . S
C475 C469 1.265 . S
C475 H470 0.950 . S
C475 C476 1.478 . S
C476 C475 1.478 . S
C476 C477 1.397 . S
C476 C493 1.394 . S
C477 C476 1.397 . S
C477 C478 1.438 . S
C477 C482 1.429 . S
C478 C477 1.438 . S
C478 C479 1.428 . S
C478 C491 1.394 . S
C479 H471 0.949 . S
C479 C478 1.428 . S
C479 C480 1.345 . S
C480 H472 0.950 . S
C480 C479 1.345 . S
C480 C481 1.424 . S
C481 H473 0.951 . S
C481 C480 1.424 . S
C481 C482 1.347 . S
C482 H474 0.951 . S
C482 C477 1.429 . S
C482 C481 1.347 . S
H483 C484 0.951 . S
C484 H483 0.951 . S
C484 C490 1.265 . S
H485 C490 0.950 . S
H486 C494 0.949 . S
H487 C495 0.950 . S
H488 C496 0.951 . S
H489 C497 0.951 . S
C490 C484 1.265 . S
C490 H485 0.950 . S
C490 C491 1.478 . S
C491 C478 1.394 . S
C491 C490 1.478 . S
C491 C492 1.397 . S
C492 C491 1.397 . S
C492 C493 1.438 . S
C492 C497 1.429 . S
C493 C476 1.394 . S
C493 C492 1.438 . S
C493 C494 1.428 . S
C494 H486 0.949 . S
C494 C493 1.428 . S
C494 C495 1.345 . S
C495 H487 0.950 . S
C495 C494 1.345 . S
C495 C496 1.424 . S
C496 H488 0.951 . S
C496 C495 1.424 . S
C496 C497 1.347 . S
C497 H489 0.951 . S
C497 C492 1.429 . S
C497 C496 1.347 . S
H498 C499 0.951 . S
C499 H498 0.951 . S
C499 C505 1.265 . S
H500 C505 0.950 . S
H501 C509 0.949 . S
H502 C510 0.950 . S
H503 C511 0.951 . S
H504 C512 0.951 . S
C505 C499 1.265 . S
C505 H500 0.950 . S
C505 C506 1.478 . S
C506 C505 1.478 . S
C506 C507 1.397 . S
C506 C523 1.394 . S
C507 C506 1.397 . S
C507 C508 1.438 1_556 S
C507 C512 1.429 . S
C508 C507 1.438 1_554 S
C508 C509 1.428 . S
C508 C521 1.394 . S
C509 H501 0.949 . S
C509 C508 1.428 . S
C509 C510 1.345 . S
C510 H502 0.950 . S
C510 C509 1.345 . S
C510 C511 1.424 1_554 S
C511 H503 0.951 . S
C511 C510 1.424 1_556 S
C511 C512 1.347 . S
C512 H504 0.951 . S
C512 C507 1.429 . S
C512 C511 1.347 . S
H513 C514 0.951 . S
C514 H513 0.951 . S
C514 C520 1.265 . S
H515 C520 0.950 . S
H516 C524 0.949 . S
H517 C525 0.950 . S
H518 C526 0.951 . S
H519 C527 0.951 . S
C520 C514 1.265 . S
C520 H515 0.950 . S
C520 C521 1.478 . S
C521 C508 1.394 . S
C521 C520 1.478 . S
C521 C522 1.397 . S
C522 C521 1.397 . S
C522 C523 1.438 1_554 S
C522 C527 1.429 . S
C523 C506 1.394 . S
C523 C522 1.438 1_556 S
C523 C524 1.428 . S
C524 H516 0.949 . S
C524 C523 1.428 . S
C524 C525 1.345 . S
C525 H517 0.950 . S
C525 C524 1.345 . S
C525 C526 1.424 1_556 S
C526 H518 0.951 . S
C526 C525 1.424 1_554 S
C526 C527 1.347 . S
C527 H519 0.951 . S
C527 C522 1.429 . S
C527 C526 1.347 . S
H528 C529 0.951 . S
C529 H528 0.951 . S
C529 C535 1.265 . S
H530 C535 0.950 . S
H531 C539 0.949 . S
H532 C540 0.950 . S
H533 C541 0.951 . S
H534 C542 0.951 . S
C535 C529 1.265 . S
C535 H530 0.950 . S
C535 C536 1.478 . S
C536 C535 1.478 . S
C536 C537 1.397 . S
C536 C553 1.394 . S
C537 C536 1.397 . S
C537 C538 1.438 . S
C537 C542 1.429 . S
C538 C537 1.438 . S
C538 C539 1.428 . S
C538 C551 1.394 . S
C539 H531 0.949 . S
C539 C538 1.428 . S
C539 C540 1.345 . S
C540 H532 0.950 . S
C540 C539 1.345 . S
C540 C541 1.424 . S
C541 H533 0.951 . S
C541 C540 1.424 . S
C541 C542 1.347 . S
C542 H534 0.951 . S
C542 C537 1.429 . S
C542 C541 1.347 . S
H543 C544 0.951 . S
C544 H543 0.951 . S
C544 C550 1.265 . S
H545 C550 0.950 . S
H546 C554 0.949 . S
H547 C555 0.950 . S
H548 C556 0.951 . S
H549 C557 0.951 . S
C550 C544 1.265 . S
C550 H545 0.950 . S
C550 C551 1.478 . S
C551 C538 1.394 . S
C551 C550 1.478 . S
C551 C552 1.397 . S
C552 C551 1.397 . S
C552 C553 1.438 . S
C552 C557 1.429 . S
C553 C536 1.394 . S
C553 C552 1.438 . S
C553 C554 1.428 . S
C554 H546 0.949 . S
C554 C553 1.428 . S
C554 C555 1.345 . S
C555 H547 0.950 . S
C555 C554 1.345 . S
C555 C556 1.424 . S
C556 H548 0.951 . S
C556 C555 1.424 . S
C556 C557 1.347 . S
C557 H549 0.951 . S
C557 C552 1.429 . S
C557 C556 1.347 . S
H558 C559 0.951 . S
C559 H558 0.951 . S
C559 C565 1.265 . S
H560 C565 0.950 . S
H561 C569 0.949 . S
H562 C570 0.950 . S
H563 C571 0.951 . S
H564 C572 0.951 . S
C565 C559 1.265 . S
C565 H560 0.950 . S
C565 C566 1.478 . S
C566 C565 1.478 . S
C566 C567 1.397 . S
C566 C583 1.394 . S
C567 C566 1.397 . S
C567 C568 1.438 . S
C567 C572 1.429 . S
C568 C567 1.438 . S
C568 C569 1.428 . S
C568 C581 1.394 . S
C569 H561 0.949 . S
C569 C568 1.428 . S
C569 C570 1.345 . S
C570 H562 0.950 . S
C570 C569 1.345 . S
C570 C571 1.424 . S
C571 H563 0.951 . S
C571 C570 1.424 . S
C571 C572 1.347 . S
C572 H564 0.951 . S
C572 C567 1.429 . S
C572 C571 1.347 . S
H573 C574 0.951 . S
C574 H573 0.951 . S
C574 C580 1.265 . S
H575 C580 0.950 . S
H576 C584 0.949 . S
H577 C585 0.950 . S
H578 C586 0.951 . S
H579 C587 0.951 . S
C580 C574 1.265 . S
C580 H575 0.950 . S
C580 C581 1.478 . S
C581 C568 1.394 . S
C581 C580 1.478 . S
C581 C582 1.397 . S
C582 C581 1.397 . S
C582 C583 1.438 . S
C582 C587 1.429 . S
C583 C566 1.394 . S
C583 C582 1.438 . S
C583 C584 1.428 . S
C584 H576 0.949 . S
C584 C583 1.428 . S
C584 C585 1.345 . S
C585 H577 0.950 . S
C585 C584 1.345 . S
C585 C586 1.424 . S
C586 H578 0.951 . S
C586 C585 1.424 . S
C586 C587 1.347 . S
C587 H579 0.951 . S
C587 C582 1.429 . S
C587 C586 1.347 . S
H588 C589 0.951 . S
C589 H588 0.951 . S
C589 C595 1.265 . S
H590 C595 0.950 . S
H591 C599 0.949 . S
H592 C600 0.949 . S
H593 C601 0.951 . S
H594 C602 0.951 . S
C595 C589 1.265 . S
C595 H590 0.950 . S
C595 C596 1.478 . S
C596 C595 1.478 . S
C596 C597 1.397 . S
C596 C613 1.394 . S
C597 C596 1.397 . S
C597 C598 1.438 1_556 S
C597 C602 1.429 . S
C598 C597 1.438 1_554 S
C598 C599 1.428 . S
C598 C611 1.394 . S
C599 H591 0.949 . S
C599 C598 1.428 . S
C599 C600 1.345 1_554 S
C600 H592 0.949 . S
C600 C599 1.345 1_556 S
C600 C601 1.424 . S
C601 H593 0.951 . S
C601 C600 1.424 . S
C601 C602 1.347 . S
C602 H594 0.951 . S
C602 C597 1.429 . S
C602 C601 1.347 . S
H603 C604 0.951 . S
C604 H603 0.951 . S
C604 C610 1.265 . S
H605 C610 0.950 . S
H606 C614 0.949 . S
H607 C615 0.950 . S
H608 C616 0.951 . S
H609 C617 0.951 . S
C610 C604 1.265 . S
C610 H605 0.950 . S
C610 C611 1.478 . S
C611 C598 1.394 . S
C611 C610 1.478 . S
C611 C612 1.397 . S
C612 C611 1.397 . S
C612 C613 1.438 1_554 S
C612 C617 1.429 . S
C613 C596 1.394 . S
C613 C612 1.438 1_556 S
C613 C614 1.428 . S
C614 H606 0.949 . S
C614 C613 1.428 . S
C614 C615 1.345 1_556 S
C615 H607 0.950 . S
C615 C614 1.345 1_554 S
C615 C616 1.424 . S
C616 H608 0.951 . S
C616 C615 1.424 . S
C616 C617 1.347 . S
C617 H609 0.951 . S
C617 C612 1.429 . S
C617 C616 1.347 . S
H618 C619 0.951 . S
C619 H618 0.951 . S
C619 C625 1.265 . S
H620 C625 0.950 . S
H621 C629 0.949 . S
H622 C630 0.950 . S
H623 C631 0.951 . S
H624 C632 0.951 . S
C625 C619 1.265 . S
C625 H620 0.950 . S
C625 C626 1.478 . S
C626 C625 1.478 . S
C626 C627 1.397 . S
C626 C643 1.394 . S
C627 C626 1.397 . S
C627 C628 1.438 . S
C627 C632 1.429 . S
C628 C627 1.438 . S
C628 C629 1.428 . S
C628 C641 1.394 . S
C629 H621 0.949 . S
C629 C628 1.428 . S
C629 C630 1.345 . S
C630 H622 0.950 . S
C630 C629 1.345 . S
C630 C631 1.424 . S
C631 H623 0.951 . S
C631 C630 1.424 . S
C631 C632 1.347 . S
C632 H624 0.951 . S
C632 C627 1.429 . S
C632 C631 1.347 . S
H633 C634 0.951 . S
C634 H633 0.951 . S
C634 C640 1.265 . S
H635 C640 0.950 . S
H636 C644 0.949 . S
H637 C645 0.950 . S
H638 C646 0.951 . S
H639 C647 0.951 . S
C640 C634 1.265 . S
C640 H635 0.950 . S
C640 C641 1.478 . S
C641 C628 1.394 . S
C641 C640 1.478 . S
C641 C642 1.397 . S
C642 C641 1.397 . S
C642 C643 1.438 . S
C642 C647 1.429 . S
C643 C626 1.394 . S
C643 C642 1.438 . S
C643 C644 1.428 . S
C644 H636 0.949 . S
C644 C643 1.428 . S
C644 C645 1.345 . S
C645 H637 0.950 . S
C645 C644 1.345 . S
C645 C646 1.424 . S
C646 H638 0.951 . S
C646 C645 1.424 . S
C646 C647 1.347 . S
C647 H639 0.951 . S
C647 C642 1.429 . S
C647 C646 1.347 . S
H648 C649 0.951 . S
C649 H648 0.951 . S
C649 C655 1.265 . S
H650 C655 0.950 . S
H651 C659 0.949 . S
H652 C660 0.950 . S
H653 C661 0.951 . S
H654 C662 0.951 . S
C655 C649 1.265 . S
C655 H650 0.950 . S
C655 C656 1.478 . S
C656 C655 1.478 . S
C656 C657 1.397 . S
C656 C673 1.394 . S
C657 C656 1.397 . S
C657 C658 1.438 . S
C657 C662 1.429 . S
C658 C657 1.438 . S
C658 C659 1.428 . S
C658 C671 1.394 . S
C659 H651 0.949 . S
C659 C658 1.428 . S
C659 C660 1.345 . S
C660 H652 0.950 . S
C660 C659 1.345 . S
C660 C661 1.424 . S
C661 H653 0.951 . S
C661 C660 1.424 . S
C661 C662 1.347 . S
C662 H654 0.951 . S
C662 C657 1.429 . S
C662 C661 1.347 . S
H663 C664 0.951 . S
C664 H663 0.951 . S
C664 C670 1.265 . S
H665 C670 0.950 . S
H666 C674 0.949 . S
H667 C675 0.950 . S
H668 C676 0.951 . S
H669 C677 0.951 . S
C670 C664 1.265 . S
C670 H665 0.950 . S
C670 C671 1.478 . S
C671 C658 1.394 . S
C671 C670 1.478 . S
C671 C672 1.397 . S
C672 C671 1.397 . S
C672 C673 1.438 . S
C672 C677 1.429 . S
C673 C656 1.394 . S
C673 C672 1.438 . S
C673 C674 1.428 . S
C674 H666 0.949 . S
C674 C673 1.428 . S
C674 C675 1.345 . S
C675 H667 0.950 . S
C675 C674 1.345 . S
C675 C676 1.424 . S
C676 H668 0.951 . S
C676 C675 1.424 . S
C676 C677 1.347 . S
C677 H669 0.951 . S
C677 C672 1.429 . S
C677 C676 1.347 . S
C319 C22 1.665 . S
C334 C181 1.665 . S
C349 C75 1.616 . S
C364 C234 1.616 . S
C379 C128 1.666 . S
C394 C287 1.662 . S
C409 C82 1.623 . S
C424 C241 1.623 . S
C439 C294 1.666 . S
C454 C135 1.667 . S
C469 C188 1.624 . S
C484 C29 1.623 . S
C499 C144 2.335 . S
C514 C39 2.325 . S
C529 C197 2.282 . S
C544 C92 2.295 . S
C559 C145 2.276 . S
C574 C250 2.320 . S
C589 C303 2.337 . S
C604 C198 2.323 . S
C619 C251 2.311 . S
C634 C38 2.292 . S
C649 C304 2.263 . S
C664 C91 2.293 . S
