# Generated by pormake.
# Topology vbb, (4)-cn, num edge types: 1
# Building blocks:
#     Node 0, Type 0, BuildingBlock: NAWXER_clean_sbu_0, # of connection points: 4
#     Node 1, Type 0, BuildingBlock: NAWXER_clean_sbu_0, # of connection points: 4
#     Node 2, Type 0, BuildingBlock: NAWXER_clean_sbu_0, # of connection points: 4
#     Node 3, Type 0, BuildingBlock: NAWXER_clean_sbu_0, # of connection points: 4
#     Node 4, Type 0, BuildingBlock: NAWXER_clean_sbu_0, # of connection points: 4
#     Node 5, Type 0, BuildingBlock: NAWXER_clean_sbu_0, # of connection points: 4
#     Node 6, Type 0, BuildingBlock: NAWXER_clean_sbu_0, # of connection points: 4
#     Node 7, Type 0, BuildingBlock: NAWXER_clean_sbu_0, # of connection points: 4
#     Node 8, Type 0, BuildingBlock: NAWXER_clean_sbu_0, # of connection points: 4
#     Node 9, Type 0, BuildingBlock: NAWXER_clean_sbu_0, # of connection points: 4
#     Node 10, Type 0, BuildingBlock: NAWXER_clean_sbu_0, # of connection points: 4
#     Node 11, Type 0, BuildingBlock: NAWXER_clean_sbu_0, # of connection points: 4
#     Node 12, Type 0, BuildingBlock: NAWXER_clean_sbu_0, # of connection points: 4
#     Node 13, Type 0, BuildingBlock: NAWXER_clean_sbu_0, # of connection points: 4
#     Node 14, Type 0, BuildingBlock: NAWXER_clean_sbu_0, # of connection points: 4
#     Node 15, Type 0, BuildingBlock: NAWXER_clean_sbu_0, # of connection points: 4
#     Node 16, Type 0, BuildingBlock: NAWXER_clean_sbu_0, # of connection points: 4
#     Node 17, Type 0, BuildingBlock: NAWXER_clean_sbu_0, # of connection points: 4
#     Node 18, Type 0, BuildingBlock: NAWXER_clean_sbu_0, # of connection points: 4
#     Node 19, Type 0, BuildingBlock: NAWXER_clean_sbu_0, # of connection points: 4
#     Node 20, Type 0, BuildingBlock: NAWXER_clean_sbu_0, # of connection points: 4
#     Node 21, Type 0, BuildingBlock: NAWXER_clean_sbu_0, # of connection points: 4
#     Node 22, Type 0, BuildingBlock: NAWXER_clean_sbu_0, # of connection points: 4
#     Node 23, Type 0, BuildingBlock: NAWXER_clean_sbu_0, # of connection points: 4
#     Node 24, Type 0, BuildingBlock: NAWXER_clean_sbu_0, # of connection points: 4
#     Node 25, Type 0, BuildingBlock: NAWXER_clean_sbu_0, # of connection points: 4
#     Node 26, Type 0, BuildingBlock: NAWXER_clean_sbu_0, # of connection points: 4
#     Node 27, Type 0, BuildingBlock: NAWXER_clean_sbu_0, # of connection points: 4
#     Node 28, Type 0, BuildingBlock: NAWXER_clean_sbu_0, # of connection points: 4
#     Node 29, Type 0, BuildingBlock: NAWXER_clean_sbu_0, # of connection points: 4
#     Node 30, Type 0, BuildingBlock: NAWXER_clean_sbu_0, # of connection points: 4
#     Node 31, Type 0, BuildingBlock: NAWXER_clean_sbu_0, # of connection points: 4
#     Edge 32, Type (0, 0), BuildingBlock: CIFDUS_clean_linker_0, # of connection points: 2
#     Edge 33, Type (0, 0), BuildingBlock: CIFDUS_clean_linker_0, # of connection points: 2
#     Edge 34, Type (0, 0), BuildingBlock: CIFDUS_clean_linker_0, # of connection points: 2
#     Edge 35, Type (0, 0), BuildingBlock: CIFDUS_clean_linker_0, # of connection points: 2
#     Edge 36, Type (0, 0), BuildingBlock: CIFDUS_clean_linker_0, # of connection points: 2
#     Edge 37, Type (0, 0), BuildingBlock: CIFDUS_clean_linker_0, # of connection points: 2
#     Edge 38, Type (0, 0), BuildingBlock: CIFDUS_clean_linker_0, # of connection points: 2
#     Edge 39, Type (0, 0), BuildingBlock: CIFDUS_clean_linker_0, # of connection points: 2
#     Edge 40, Type (0, 0), BuildingBlock: CIFDUS_clean_linker_0, # of connection points: 2
#     Edge 41, Type (0, 0), BuildingBlock: CIFDUS_clean_linker_0, # of connection points: 2
#     Edge 42, Type (0, 0), BuildingBlock: CIFDUS_clean_linker_0, # of connection points: 2
#     Edge 43, Type (0, 0), BuildingBlock: CIFDUS_clean_linker_0, # of connection points: 2
#     Edge 44, Type (0, 0), BuildingBlock: CIFDUS_clean_linker_0, # of connection points: 2
#     Edge 45, Type (0, 0), BuildingBlock: CIFDUS_clean_linker_0, # of connection points: 2
#     Edge 46, Type (0, 0), BuildingBlock: CIFDUS_clean_linker_0, # of connection points: 2
#     Edge 47, Type (0, 0), BuildingBlock: CIFDUS_clean_linker_0, # of connection points: 2
#     Edge 48, Type (0, 0), BuildingBlock: CIFDUS_clean_linker_0, # of connection points: 2
#     Edge 49, Type (0, 0), BuildingBlock: CIFDUS_clean_linker_0, # of connection points: 2
#     Edge 50, Type (0, 0), BuildingBlock: CIFDUS_clean_linker_0, # of connection points: 2
#     Edge 51, Type (0, 0), BuildingBlock: CIFDUS_clean_linker_0, # of connection points: 2
#     Edge 52, Type (0, 0), BuildingBlock: CIFDUS_clean_linker_0, # of connection points: 2
#     Edge 53, Type (0, 0), BuildingBlock: CIFDUS_clean_linker_0, # of connection points: 2
#     Edge 54, Type (0, 0), BuildingBlock: CIFDUS_clean_linker_0, # of connection points: 2
#     Edge 55, Type (0, 0), BuildingBlock: CIFDUS_clean_linker_0, # of connection points: 2
#     Edge 56, Type (0, 0), BuildingBlock: CIFDUS_clean_linker_0, # of connection points: 2
#     Edge 57, Type (0, 0), BuildingBlock: CIFDUS_clean_linker_0, # of connection points: 2
#     Edge 58, Type (0, 0), BuildingBlock: CIFDUS_clean_linker_0, # of connection points: 2
#     Edge 59, Type (0, 0), BuildingBlock: CIFDUS_clean_linker_0, # of connection points: 2
#     Edge 60, Type (0, 0), BuildingBlock: CIFDUS_clean_linker_0, # of connection points: 2
#     Edge 61, Type (0, 0), BuildingBlock: CIFDUS_clean_linker_0, # of connection points: 2
#     Edge 62, Type (0, 0), BuildingBlock: CIFDUS_clean_linker_0, # of connection points: 2
#     Edge 63, Type (0, 0), BuildingBlock: CIFDUS_clean_linker_0, # of connection points: 2
#     Edge 64, Type (0, 0), BuildingBlock: CIFDUS_clean_linker_0, # of connection points: 2
#     Edge 65, Type (0, 0), BuildingBlock: CIFDUS_clean_linker_0, # of connection points: 2
#     Edge 66, Type (0, 0), BuildingBlock: CIFDUS_clean_linker_0, # of connection points: 2
#     Edge 67, Type (0, 0), BuildingBlock: CIFDUS_clean_linker_0, # of connection points: 2
#     Edge 68, Type (0, 0), BuildingBlock: CIFDUS_clean_linker_0, # of connection points: 2
#     Edge 69, Type (0, 0), BuildingBlock: CIFDUS_clean_linker_0, # of connection points: 2
#     Edge 70, Type (0, 0), BuildingBlock: CIFDUS_clean_linker_0, # of connection points: 2
#     Edge 71, Type (0, 0), BuildingBlock: CIFDUS_clean_linker_0, # of connection points: 2
#     Edge 72, Type (0, 0), BuildingBlock: CIFDUS_clean_linker_0, # of connection points: 2
#     Edge 73, Type (0, 0), BuildingBlock: CIFDUS_clean_linker_0, # of connection points: 2
#     Edge 74, Type (0, 0), BuildingBlock: CIFDUS_clean_linker_0, # of connection points: 2
#     Edge 75, Type (0, 0), BuildingBlock: CIFDUS_clean_linker_0, # of connection points: 2
#     Edge 76, Type (0, 0), BuildingBlock: CIFDUS_clean_linker_0, # of connection points: 2
#     Edge 77, Type (0, 0), BuildingBlock: CIFDUS_clean_linker_0, # of connection points: 2
#     Edge 78, Type (0, 0), BuildingBlock: CIFDUS_clean_linker_0, # of connection points: 2
#     Edge 79, Type (0, 0), BuildingBlock: CIFDUS_clean_linker_0, # of connection points: 2
#     Edge 80, Type (0, 0), BuildingBlock: CIFDUS_clean_linker_0, # of connection points: 2
#     Edge 81, Type (0, 0), BuildingBlock: CIFDUS_clean_linker_0, # of connection points: 2
#     Edge 82, Type (0, 0), BuildingBlock: CIFDUS_clean_linker_0, # of connection points: 2
#     Edge 83, Type (0, 0), BuildingBlock: CIFDUS_clean_linker_0, # of connection points: 2
#     Edge 84, Type (0, 0), BuildingBlock: CIFDUS_clean_linker_0, # of connection points: 2
#     Edge 85, Type (0, 0), BuildingBlock: CIFDUS_clean_linker_0, # of connection points: 2
#     Edge 86, Type (0, 0), BuildingBlock: CIFDUS_clean_linker_0, # of connection points: 2
#     Edge 87, Type (0, 0), BuildingBlock: CIFDUS_clean_linker_0, # of connection points: 2
#     Edge 88, Type (0, 0), BuildingBlock: CIFDUS_clean_linker_0, # of connection points: 2
#     Edge 89, Type (0, 0), BuildingBlock: CIFDUS_clean_linker_0, # of connection points: 2
#     Edge 90, Type (0, 0), BuildingBlock: CIFDUS_clean_linker_0, # of connection points: 2
#     Edge 91, Type (0, 0), BuildingBlock: CIFDUS_clean_linker_0, # of connection points: 2
#     Edge 92, Type (0, 0), BuildingBlock: CIFDUS_clean_linker_0, # of connection points: 2
#     Edge 93, Type (0, 0), BuildingBlock: CIFDUS_clean_linker_0, # of connection points: 2
#     Edge 94, Type (0, 0), BuildingBlock: CIFDUS_clean_linker_0, # of connection points: 2
#     Edge 95, Type (0, 0), BuildingBlock: CIFDUS_clean_linker_0, # of connection points: 2
# Relax obj value: 0.012
# Max RMSD: 0.099
# Mean RMSD: 0.097
data_MOF--net-vbb--node1-NAWXER_clean_sbu_0--edge1-CIFDUS_clean_linker_0
_symmetry_space_group_name_H-M    P1
_symmetry_Int_Tables_number       1
_symmetry_cell_setting            triclinic
loop_
_symmetry_equiv_pos_as_xyz
'x, y, z'
_cell_length_a     47.224648
_cell_length_b     20.359579
_cell_length_c     99.90883
_cell_angle_alpha  89.859131
_cell_angle_beta   90.106029
_cell_angle_gamma 90.041423
loop_
_atom_site_label
_atom_site_type_symbol
_atom_site_fract_x
_atom_site_fract_y
_atom_site_fract_z
_atom_type_partial_charge
C0 C 0.55807 0.06486 0.0812 0.0
C1 C 0.4677 0.9426 0.08056 0.0
O2 O 0.53618 0.0984 0.07803 0.0
Zn3 Zn 0.49226 0.08731 0.07514 0.0
O4 O 0.5555 0.00343 0.08342 0.0
Zn5 Zn 0.51437 -0.00344 0.08054 0.0
O6 O 0.51001 0.01213 0.05974 0.0
O7 O 0.48762 0.10531 0.05594 0.0
O8 O 0.49177 0.91628 0.08285 0.0
O9 O 0.46631 0.00365 0.07762 0.0
O10 O 0.47767 0.14263 0.08969 0.0
O11 O 0.49871 0.052 0.09675 0.0
C12 C 0.4996 0.05371 0.05148 0.0
C13 C 0.48525 0.10498 0.09928 0.0
C14 C 0.71702 0.1987 0.08479 0.0
C15 C 0.81207 0.30002 0.08237 0.0
O16 O 0.73716 0.16192 0.08076 0.0
Zn17 Zn 0.78055 0.16398 0.07625 0.0
O18 O 0.72175 0.25933 0.08713 0.0
Zn19 Zn 0.76273 0.25878 0.08316 0.0
O20 O 0.76289 0.24699 0.06241 0.0
O21 O 0.78115 0.15171 0.05659 0.0
O22 O 0.78973 0.33193 0.08545 0.0
O23 O 0.81007 0.24001 0.0788 0.0
O24 O 0.79467 0.10276 0.09014 0.0
O25 O 0.77792 0.19594 0.09822 0.0
C26 C 0.76999 0.20649 0.05328 0.0
C27 C 0.7896 0.14013 0.10012 0.0
C28 C 0.50788 0.17678 0.22613 0.0
C29 C 0.49175 0.12827 0.17836 0.0
O30 O 0.51361 0.22422 0.21817 0.0
Zn31 Zn 0.51363 0.24491 0.19737 0.0
O32 O 0.49948 0.12218 0.22133 0.0
Zn33 Zn 0.50023 0.1459 0.20236 0.0
O34 O 0.54403 0.1554 0.19842 0.0
O35 O 0.55392 0.25866 0.19365 0.0
O36 O 0.48866 0.08699 0.18788 0.0
O37 O 0.50095 0.18603 0.18091 0.0
O38 O 0.48485 0.31385 0.1962 0.0
O39 O 0.46732 0.21626 0.20117 0.0
C40 C 0.5621 0.19947 0.1952 0.0
C41 C 0.46354 0.27728 0.1987 0.0
C42 C 0.71576 0.03638 0.19517 0.0
C43 C 0.81559 0.9681 0.20042 0.0
O44 O 0.73317 0.08139 0.1986 0.0
Zn45 Zn 0.7763 0.09542 0.2031 0.0
O46 O 0.72467 0.97773 0.19365 0.0
Zn47 Zn 0.76484 -0.0057 0.1978 0.0
O48 O 0.76327 0.01523 0.21847 0.0
O49 O 0.77518 0.11844 0.22214 0.0
O50 O 0.79559 0.92921 0.19705 0.0
O51 O 0.8101 0.02831 0.20285 0.0
O52 O 0.78792 0.15428 0.18849 0.0
O53 O 0.77715 0.05434 0.18164 0.0
C54 C 0.76746 0.06253 0.22664 0.0
C55 C 0.78568 0.11253 0.17904 0.0
C56 C 0.52088 0.92047 0.9768 0.0
C57 C 0.53551 0.86888 0.92898 0.0
O58 O 0.52949 0.86538 0.97232 0.0
Zn59 Zn 0.52809 0.88668 0.95312 0.0
O60 O 0.51481 0.96651 0.96856 0.0
Zn61 Zn 0.51395 0.98595 0.94783 0.0
O62 O 0.47319 -0.00253 0.94437 0.0
O63 O 0.48431 0.89527 0.94949 0.0
O64 O 0.52613 0.92629 0.9316 0.0
O65 O 0.53923 0.82765 0.93848 0.0
O66 O 0.5605 0.95746 0.95146 0.0
O67 O 0.54302 0.0547 0.9462 0.0
C68 C 0.46568 0.93796 0.94624 0.0
C69 C 0.56435 0.01815 0.94872 0.0
C70 C 0.21805 0.66976 0.94995 0.0
C71 C 0.31513 0.75803 0.94634 0.0
O72 O 0.2402 0.63451 0.94857 0.0
Zn73 Zn 0.2676 0.70691 0.9484 0.0
O74 O 0.22049 0.73208 0.95097 0.0
Zn75 Zn 0.2514 0.80711 0.95087 0.0
O76 O 0.23954 0.8543 0.93451 0.0
O77 O 0.25518 0.75406 0.93062 0.0
O78 O 0.29574 0.80097 0.94813 0.0
O79 O 0.30848 0.69736 0.94588 0.0
O80 O 0.26514 0.73894 0.9683 0.0
O81 O 0.24842 0.8398 0.96943 0.0
C82 C 0.24469 0.80788 0.92629 0.0
C83 C 0.25776 0.78844 0.9753 0.0
C84 C 0.52632 0.80991 0.80154 0.0
C85 C 0.53947 0.8555 0.84973 0.0
O86 O 0.53784 0.86159 0.80628 0.0
Zn87 Zn 0.53322 0.84088 0.82541 0.0
O88 O 0.51651 0.76662 0.80958 0.0
Zn89 Zn 0.51229 0.74748 0.83021 0.0
O90 O 0.47091 0.75069 0.83275 0.0
O91 O 0.4891 0.84774 0.82804 0.0
O92 O 0.52675 0.80198 0.84681 0.0
O93 O 0.54669 0.89509 0.84041 0.0
O94 O 0.5604 0.75951 0.82769 0.0
O95 O 0.53636 0.6691 0.83221 0.0
C96 C 0.46758 0.81216 0.83081 0.0
C97 C 0.56002 0.69807 0.83032 0.0
C98 C 0.23411 0.89471 0.84904 0.0
C99 C 0.24966 0.93043 0.80066 0.0
O100 O 0.22797 0.85216 0.84012 0.0
Zn101 Zn 0.24165 0.9036 0.82469 0.0
O102 O 0.24646 0.94812 0.84571 0.0
Zn103 Zn 0.26152 -0.00062 0.82884 0.0
O104 O 0.23652 0.0766 0.82974 0.0
O105 O 0.21365 0.98396 0.82579 0.0
O106 O 0.25854 0.97563 0.80846 0.0
O107 O 0.23836 0.87899 0.80565 0.0
O108 O 0.28556 0.89966 0.82805 0.0
O109 O 0.30284 -0.00155 0.83192 0.0
C110 C 0.21326 0.04589 0.82783 0.0
C111 C 0.30666 0.93672 0.83072 0.0
C112 C 0.49634 0.55496 0.55255 0.0
C113 C 0.4813 0.60849 0.60013 0.0
O114 O 0.50652 0.51288 0.56078 0.0
Zn115 Zn 0.51059 0.49841 0.5817 0.0
O116 O 0.48471 0.60683 0.55706 0.0
Zn117 Zn 0.48907 0.58907 0.5762 0.0
O118 O 0.53293 0.59942 0.57947 0.0
O119 O 0.55165 0.50359 0.58472 0.0
O120 O 0.47426 0.64572 0.59038 0.0
O121 O 0.4947 0.55506 0.59787 0.0
O122 O 0.48792 0.41877 0.58423 0.0
O123 O 0.46263 0.50636 0.57892 0.0
C124 C 0.55454 0.56508 0.58272 0.0
C125 C 0.46391 0.4455 0.58205 0.0
C126 C 0.76775 0.72267 0.55372 0.0
C127 C 0.78888 0.65226 0.59994 0.0
O128 O 0.75849 0.76052 0.5629 0.0
Zn129 Zn 0.75717 0.76782 0.58391 0.0
O130 O 0.78053 0.6698 0.55695 0.0
Zn131 Zn 0.77822 0.67933 0.57648 0.0
O132 O 0.73471 0.66756 0.58054 0.0
O133 O 0.71653 0.76087 0.5877 0.0
O134 O 0.79483 0.6184 0.58958 0.0
O135 O 0.77503 0.70589 0.59871 0.0
O136 O 0.78029 0.8467 0.58685 0.0
O137 O 0.80467 0.76117 0.57968 0.0
C138 C 0.71345 0.7004 0.58475 0.0
C139 C 0.80392 0.82075 0.58364 0.0
C140 C 0.5021 0.68455 0.72643 0.0
C141 C 0.4837 0.63373 0.67898 0.0
O142 O 0.51163 0.72711 0.71815 0.0
Zn143 Zn 0.51402 0.74311 0.69723 0.0
O144 O 0.48997 0.63308 0.722 0.0
Zn145 Zn 0.493 0.65224 0.70285 0.0
O146 O 0.53681 0.64265 0.69908 0.0
O147 O 0.5548 0.73908 0.6937 0.0
O148 O 0.47736 0.59607 0.68876 0.0
O149 O 0.49715 0.68723 0.68116 0.0
O150 O 0.49129 0.82273 0.69526 0.0
O151 O 0.46622 0.73507 0.70074 0.0
C152 C 0.55809 0.67768 0.69564 0.0
C153 C 0.4674 0.79615 0.69776 0.0
C154 C 0.71825 0.55157 0.69354 0.0
C155 C 0.81022 0.43788 0.69489 0.0
O156 O 0.73915 0.58625 0.69759 0.0
Zn157 Zn 0.78288 0.578 0.70168 0.0
O158 O 0.72203 0.49105 0.69082 0.0
Zn159 Zn 0.7628 0.4877 0.69461 0.0
O160 O 0.76403 0.49724 0.71559 0.0
O161 O 0.78487 0.59007 0.72119 0.0
O162 O 0.78675 0.41046 0.69188 0.0
O163 O 0.8105 0.49781 0.69868 0.0
O164 O 0.79827 0.63937 0.68835 0.0
O165 O 0.77942 0.54984 0.67956 0.0
C166 C 0.77268 0.53678 0.72463 0.0
C167 C 0.79244 0.60447 0.67811 0.0
C168 C 0.51891 0.43326 0.47715 0.0
C169 C 0.53835 0.40216 0.42885 0.0
O170 O 0.52793 0.37971 0.47209 0.0
Zn171 Zn 0.52842 0.4082 0.45316 0.0
O172 O 0.51358 0.48195 0.46945 0.0
Zn173 Zn 0.51452 0.50993 0.44921 0.0
O174 O 0.47406 0.522 0.44511 0.0
O175 O 0.48514 0.41821 0.44872 0.0
O176 O 0.52853 0.45788 0.43238 0.0
O177 O 0.54127 0.35658 0.43756 0.0
O178 O 0.56049 0.47979 0.45367 0.0
O179 O 0.54368 0.57894 0.44947 0.0
C180 C 0.46667 0.4618 0.4458 0.0
C181 C 0.56461 0.54135 0.45212 0.0
C182 C 0.26533 0.28678 0.47437 0.0
C183 C 0.24499 0.34372 0.42716 0.0
O184 O 0.25484 0.34147 0.47057 0.0
Zn185 Zn 0.2551 0.32425 0.45109 0.0
O186 O 0.27141 0.24325 0.46566 0.0
Zn187 Zn 0.27021 0.22636 0.445 0.0
O188 O 0.3106 0.21878 0.44071 0.0
O189 O 0.29867 0.31937 0.44664 0.0
O190 O 0.25558 0.28702 0.42938 0.0
O191 O 0.24167 0.38387 0.43684 0.0
O192 O 0.22369 0.25164 0.44936 0.0
O193 O 0.2419 0.15549 0.4438 0.0
C194 C 0.31752 0.27847 0.44282 0.0
C195 C 0.22039 0.19106 0.44647 0.0
C196 C 0.52516 0.29289 0.30226 0.0
C197 C 0.53567 0.31914 0.35134 0.0
O198 O 0.53672 0.34274 0.30776 0.0
Zn199 Zn 0.53029 0.3167 0.32662 0.0
O200 O 0.5141 0.24843 0.30963 0.0
Zn201 Zn 0.50772 0.22287 0.32975 0.0
O202 O 0.4665 0.22892 0.33172 0.0
O203 O 0.48614 0.32599 0.32852 0.0
O204 O 0.52216 0.26874 0.34723 0.0
O205 O 0.54392 0.36238 0.34291 0.0
O206 O 0.55577 0.2322 0.32779 0.0
O207 O 0.53042 0.14209 0.3308 0.0
C208 C 0.46403 0.29099 0.33044 0.0
C209 C 0.55448 0.17005 0.32947 0.0
C210 C 0.30373 0.41621 0.33133 0.0
C211 C 0.20779 0.51166 0.32832 0.0
O212 O 0.29862 0.47727 0.33288 0.0
Zn213 Zn 0.2574 0.47327 0.32944 0.0
O214 O 0.2837 0.37731 0.32804 0.0
Zn215 Zn 0.24023 0.37543 0.32405 0.0
O216 O 0.23871 0.35597 0.30471 0.0
O217 O 0.2557 0.45477 0.30882 0.0
O218 O 0.21029 0.45074 0.32559 0.0
O219 O 0.22984 0.54546 0.3311 0.0
O220 O 0.24374 0.41499 0.34554 0.0
O221 O 0.22738 0.31869 0.33891 0.0
C222 C 0.24847 0.41057 0.30043 0.0
C223 C 0.23274 0.35931 0.34832 0.0
C224 C 0.98104 0.11378 0.59936 0.0
C225 C 0.99678 0.05798 0.55199 0.0
O226 O 0.99415 0.05985 0.59724 0.0
Zn227 Zn 1.00989 0.00194 0.58128 0.0
O228 O 0.97448 0.15097 0.58953 0.0
Zn229 Zn 0.98922 0.0933 0.57551 0.0
O230 O 0.96202 0.01181 0.57826 0.0
O231 O 0.98659 0.92354 0.58387 0.0
O232 O 0.98545 0.1106 0.55631 0.0
O233 O 1.00637 0.01588 0.56037 0.0
O234 O 0.05087 0.00517 0.58446 0.0
O235 O 0.03314 0.10177 0.57902 0.0
C236 C 0.96282 0.95109 0.58154 0.0
C237 C 0.05436 0.06644 0.5824 0.0
C238 C 0.28946 0.14201 0.59935 0.0
C239 C 0.26899 0.21425 0.55318 0.0
O240 O 0.27604 0.19625 0.59818 0.0
Zn241 Zn 0.25863 0.25915 0.58341 0.0
O242 O 0.29524 0.10824 0.58897 0.0
Zn243 Zn 0.27921 0.17051 0.57595 0.0
O244 O 0.30622 0.25165 0.57929 0.0
O245 O 0.28192 0.33725 0.58648 0.0
O246 O 0.28154 0.1611 0.55642 0.0
O247 O 0.25988 0.25232 0.56237 0.0
O248 O 0.21801 0.25382 0.58719 0.0
O249 O 0.23552 0.16001 0.57993 0.0
C250 C 0.30554 0.31117 0.58332 0.0
C251 C 0.21449 0.19359 0.58416 0.0
C252 C 0.06044 0.19144 0.69343 0.0
C253 C 0.96971 0.31061 0.69497 0.0
O254 O 0.03918 0.15783 0.69743 0.0
Zn255 Zn 0.99559 0.16852 0.70146 0.0
O256 O 0.05732 0.25232 0.69079 0.0
Zn257 Zn 0.01664 0.25828 0.69462 0.0
O258 O 0.01537 0.2472 0.71559 0.0
O259 O 0.99313 0.15551 0.72089 0.0
O260 O 0.99339 0.33731 0.69206 0.0
O261 O 0.96896 0.25043 0.69861 0.0
O262 O 0.97929 0.10928 0.68802 0.0
O263 O 0.99901 0.1985 0.67945 0.0
C264 C 1.00604 0.20757 0.72449 0.0
C265 C 0.98529 0.14489 0.67788 0.0
C266 C 0.21955 0.05769 0.69446 0.0
C267 C 0.30989 0.93736 0.69678 0.0
O268 O 0.24105 0.09209 0.69785 0.0
Zn269 Zn 0.28478 0.08159 0.70164 0.0
O270 O 0.22249 -0.00383 0.69258 0.0
Zn271 Zn 0.26338 0.99115 0.69608 0.0
O272 O 0.26593 0.00718 0.717 0.0
O273 O 0.28797 0.10084 0.72072 0.0
O274 O 0.28596 0.91105 0.69423 0.0
O275 O 0.31119 -0.00158 0.69967 0.0
O276 O 0.30051 0.13748 0.68757 0.0
O277 O 0.28019 0.04715 0.67993 0.0
C278 C 0.27567 0.04966 0.72522 0.0
C279 C 0.29382 0.10047 0.67777 0.0
C280 C 0.03799 0.8802 0.42959 0.0
C281 C 0.02016 0.92709 0.47733 0.0
O282 O 0.04063 0.83789 0.43897 0.0
Zn283 Zn 0.02906 0.89585 0.45368 0.0
O284 O 0.02927 0.938 0.43232 0.0
Zn285 Zn 0.0169 -0.00328 0.44863 0.0
O286 O 0.04698 0.063 0.4479 0.0
O287 O 0.06262 0.96406 0.45315 0.0
O288 O 0.01557 0.97458 0.46922 0.0
O289 O 0.02828 0.87182 0.47275 0.0
O290 O 0.9858 0.90869 0.44912 0.0
O291 O 0.97682 0.01261 0.44446 0.0
C292 C 0.06751 0.02473 0.4508 0.0
C293 C 0.96823 0.95352 0.44573 0.0
C294 C 0.76458 0.79832 0.47506 0.0
C295 C 0.74416 0.85902 0.42813 0.0
O296 O 0.75476 0.85383 0.47136 0.0
Zn297 Zn 0.75433 0.83696 0.4519 0.0
O298 O 0.7698 0.75447 0.4663 0.0
Zn299 Zn 0.7677 0.73849 0.44562 0.0
O300 O 0.80771 0.72684 0.4411 0.0
O301 O 0.79779 0.82834 0.44722 0.0
O302 O 0.75374 0.80114 0.43015 0.0
O303 O 0.74176 0.8988 0.43793 0.0
O304 O 0.72158 0.76712 0.45022 0.0
O305 O 0.73856 0.66994 0.44453 0.0
C306 C 0.81577 0.7857 0.44324 0.0
C307 C 0.71754 0.70677 0.44733 0.0
C308 C 0.96606 0.80352 0.33422 0.0
C309 C 0.06067 0.7025 0.33265 0.0
O310 O 0.97082 0.74276 0.3364 0.0
Zn311 Zn 1.01175 0.74432 0.33285 0.0
O312 O 0.98631 0.8411 0.33055 0.0
Zn313 Zn 0.03 0.83942 0.32657 0.0
O314 O 0.03188 0.85399 0.30699 0.0
O315 O 1.01295 0.75831 0.31213 0.0
O316 O 0.0593 0.76303 0.32935 0.0
O317 O 0.03803 0.67033 0.33508 0.0
O318 O 0.02648 0.80516 0.34838 0.0
O319 O 0.04363 0.89912 0.34073 0.0
C320 C 0.02074 0.79987 0.30329 0.0
C321 C 0.03823 0.86068 0.35054 0.0
C322 C 0.71344 0.03862 0.32995 0.0
C323 C 0.80528 0.92411 0.33096 0.0
O324 O 0.73712 0.06691 0.33217 0.0
Zn325 Zn 0.76075 0.98862 0.33012 0.0
O326 O 0.71285 0.97735 0.32721 0.0
Zn327 Zn 0.73984 0.89565 0.32509 0.0
O328 O 0.72595 0.8409 0.33996 0.0
O329 O 0.746 0.93348 0.34653 0.0
O330 O 0.78389 0.88849 0.32798 0.0
O331 O 0.80186 0.98546 0.33291 0.0
O332 O 0.75639 0.97126 0.30946 0.0
O333 O 0.73537 0.87611 0.30594 0.0
C334 C 0.73315 0.87999 0.34935 0.0
C335 C 0.74654 0.92855 0.30133 0.0
C336 C 0.9766 0.39034 0.08224 0.0
C337 C 0.07296 0.48569 0.08341 0.0
O338 O 0.97857 0.45186 0.07993 0.0
Zn339 Zn 1.00845 0.52763 0.07815 0.0
O340 O 0.99906 0.35654 0.08405 0.0
Zn341 Zn 0.02621 0.42982 0.08255 0.0
O342 O 0.01412 0.48511 0.09935 0.0
O343 O 0.99686 0.5818 0.0935 0.0
O344 O 0.06754 0.42478 0.08507 0.0
O345 O 0.05272 0.52549 0.08084 0.0
O346 O 1.00458 0.55086 0.05906 0.0
O347 O 0.0233 0.45274 0.06211 0.0
C348 C 1.00322 0.54018 0.10261 0.0
C349 C 0.01503 0.49828 0.05421 0.0
C350 C 0.30951 0.80412 0.08042 0.0
C351 C 0.21678 0.69341 0.08187 0.0
O352 O 0.31014 0.74236 0.07811 0.0
Zn353 Zn 0.28207 0.66114 0.07641 0.0
O354 O 0.28578 0.83254 0.08228 0.0
Zn355 Zn 0.2622 0.75422 0.08067 0.0
O356 O 0.27658 0.70071 0.09767 0.0
O357 O 0.2957 0.607 0.09122 0.0
O358 O 0.22122 0.7547 0.08333 0.0
O359 O 0.23762 0.65544 0.07926 0.0
O360 O 0.28662 0.63692 0.05765 0.0
O361 O 0.2662 0.7335 0.05997 0.0
C362 C 0.28901 0.64667 0.10056 0.0
C363 C 0.2758 0.68817 0.05239 0.0
C364 C 0.06948 0.73991 0.19291 0.0
C365 C 0.97224 0.82712 0.19462 0.0
O366 O 0.05047 0.69966 0.19687 0.0
Zn367 Zn 1.00678 0.69547 0.20099 0.0
O368 O 0.06274 0.79934 0.19039 0.0
Zn369 Zn 0.02209 0.7921 0.19433 0.0
O370 O 0.02211 0.7795 0.21516 0.0
O371 O 1.00562 0.6817 0.22054 0.0
O372 O 0.99393 0.86239 0.19207 0.0
O373 O 0.97518 0.76706 0.19805 0.0
O374 O 0.99459 0.63223 0.18727 0.0
O375 O 1.00837 0.72808 0.17904 0.0
C376 C 0.01561 0.73721 0.2241 0.0
C377 C 0.99823 0.67054 0.17727 0.0
C378 C 0.31431 0.46271 0.19798 0.0
C379 C 0.21691 0.54905 0.19519 0.0
O380 O 0.31117 0.52305 0.20116 0.0
Zn381 Zn 0.27936 0.59508 0.20335 0.0
O382 O 0.29262 0.42783 0.1952 0.0
Zn383 Zn 0.26446 0.49802 0.19716 0.0
O384 O 0.27785 0.56124 0.18157 0.0
O385 O 0.29154 0.65756 0.18948 0.0
O386 O 0.22385 0.48939 0.19316 0.0
O387 O 0.23573 0.59009 0.19902 0.0
O388 O 0.28018 0.61173 0.22268 0.0
O389 O 0.26483 0.51213 0.21803 0.0
C390 C 0.28774 0.61893 0.17959 0.0
C391 C 0.27112 0.55602 0.22667 0.0
C392 C 0.03011 0.43152 0.92629 0.0
C393 C 1.01143 0.46743 0.97436 0.0
O394 O 0.03476 0.38859 0.93537 0.0
Zn395 Zn 0.021 0.44123 0.95051 0.0
O396 O 0.01889 0.48645 0.92943 0.0
Zn397 Zn 1.00424 0.53953 0.9461 0.0
O398 O 0.03133 0.61306 0.94588 0.0
O399 O 0.05118 0.51722 0.95021 0.0
O400 O 1.00429 0.51424 0.96651 0.0
O401 O 0.02225 0.41529 0.9695 0.0
O402 O 0.97718 0.44403 0.94639 0.0
O403 O 0.96355 0.54573 0.94226 0.0
C404 C 0.05346 0.57907 0.94834 0.0
C405 C 0.9576 0.48483 0.94336 0.0
C406 C 0.73983 0.35893 0.92863 0.0
C407 C 0.76006 0.28178 0.97459 0.0
O408 O 0.73634 0.39432 0.93903 0.0
Zn409 Zn 0.74954 0.32816 0.95199 0.0
O410 O 0.75016 0.30117 0.92978 0.0
Zn411 Zn 0.76465 0.23351 0.94429 0.0
O412 O 0.73637 0.16348 0.94183 0.0
O413 O 0.71797 0.25657 0.94908 0.0
O414 O 0.76603 0.24142 0.96524 0.0
O415 O 0.74981 0.33787 0.97159 0.0
O416 O 0.79292 0.32573 0.94714 0.0
O417 O 0.80509 0.22781 0.9397 0.0
C418 C 0.71478 0.19735 0.94516 0.0
C419 C 0.81178 0.28688 0.94255 0.0
C420 C 0.05124 0.15788 0.83053 0.0
C421 C 0.95713 0.26112 0.83527 0.0
O422 O 0.02859 0.12671 0.83344 0.0
Zn423 Zn 1.00281 0.20225 0.8327 0.0
O424 O 0.05003 0.21938 0.828 0.0
Zn425 Zn 0.02086 0.29776 0.82708 0.0
O426 O 0.03603 0.3534 0.8415 0.0
O427 O 0.01936 0.25802 0.84859 0.0
O428 O 0.97715 0.29954 0.83163 0.0
O429 O 0.96226 0.20017 0.83699 0.0
O430 O 1.00207 0.2224 0.81211 0.0
O431 O 0.02144 0.31872 0.80778 0.0
C432 C 0.03151 0.3128 0.85103 0.0
C433 C 1.00943 0.26638 0.80366 0.0
C434 C 0.7209 0.57802 0.83263 0.0
C435 C 0.8147 0.47215 0.83569 0.0
O436 O 0.74377 0.60733 0.83592 0.0
Zn437 Zn 0.76911 0.53193 0.83384 0.0
O438 O 0.72174 0.51773 0.8291 0.0
Zn439 Zn 0.7509 0.43962 0.82687 0.0
O440 O 0.73569 0.37827 0.84023 0.0
O441 O 0.7528 0.46978 0.84893 0.0
O442 O 0.79466 0.43522 0.83149 0.0
O443 O 0.80964 0.53241 0.83817 0.0
O444 O 0.76943 0.52031 0.81291 0.0
O445 O 0.75024 0.42546 0.80739 0.0
C446 C 0.74058 0.41422 0.85043 0.0
C447 C 0.76194 0.47928 0.80391 0.0
H448 H 0.48206 0.0188 0.11974 0.0
H449 H 0.47671 0.22588 0.11078 0.0
H450 H 0.47585 0.25049 0.1348 0.0
H451 H 0.48161 0.21339 0.15808 0.0
H452 H 0.48763 0.0062 0.16694 0.0
H453 H 0.48305 0.98113 0.14306 0.0
C454 C 0.48043 0.0694 0.12303 0.0
C455 C 0.47988 0.12067 0.11351 0.0
C456 C 0.48031 0.08296 0.13677 0.0
C457 C 0.4772 0.18571 0.11791 0.0
C458 C 0.47691 0.1997 0.13163 0.0
C459 C 0.48174 0.16262 0.15481 0.0
C460 C 0.48544 0.11162 0.16425 0.0
C461 C 0.47927 0.14878 0.14111 0.0
C462 C 0.48496 0.04621 0.15988 0.0
C463 C 0.48244 0.03197 0.14624 0.0
H464 H 0.79214 0.027 0.15855 0.0
H465 H 0.79392 0.2342 0.16773 0.0
H466 H 0.79921 0.25952 0.14388 0.0
H467 H 0.79835 0.22321 0.12057 0.0
H468 H 0.7944 0.01656 0.11122 0.0
H469 H 0.79557 0.99024 0.13522 0.0
C470 C 0.79385 0.07783 0.15538 0.0
C471 C 0.79214 0.12887 0.16491 0.0
C472 C 0.79651 0.09186 0.14169 0.0
C473 C 0.79497 0.19418 0.16062 0.0
C474 C 0.79793 0.20857 0.147 0.0
C475 C 0.79803 0.17221 0.12376 0.0
C476 C 0.79583 0.12175 0.11415 0.0
C477 C 0.79798 0.15787 0.13746 0.0
C478 C 0.79605 0.05611 0.11841 0.0
C479 C 0.79648 0.04124 0.13211 0.0
H480 H 0.54189 0.76641 0.86975 0.0
H481 H 0.54898 0.97439 0.86193 0.0
H482 H 0.55102 -0.00447 0.88607 0.0
H483 H 0.54609 0.95552 0.90914 0.0
H484 H 0.53816 0.7477 0.91695 0.0
H485 H 0.54145 0.72557 0.89288 0.0
C486 C 0.54409 0.81646 0.87331 0.0
C487 C 0.54482 0.86903 0.86407 0.0
C488 C 0.54495 0.82806 0.88713 0.0
C489 C 0.54828 0.93328 0.86883 0.0
C490 C 0.54929 0.94528 0.88261 0.0
C491 C 0.54527 0.90521 0.9056 0.0
C492 C 0.54141 0.85322 0.9148 0.0
C493 C 0.54689 0.89316 0.89182 0.0
C494 C 0.54101 0.78842 0.91009 0.0
C495 C 0.54275 0.77591 0.89634 0.0
H496 H 0.23595 0.78091 0.86351 0.0
H497 H 0.21979 0.98856 0.8668 0.0
H498 H 0.21946 0.9804 0.89115 0.0
H499 H 0.22906 0.91644 0.91163 0.0
H500 H 0.24666 0.70906 0.90813 0.0
H501 H 0.24109 0.71507 0.88403 0.0
C502 C 0.23165 0.82385 0.86958 0.0
C503 C 0.22809 0.88512 0.8634 0.0
C504 C 0.23228 0.81926 0.88364 0.0
C505 C 0.22282 0.94074 0.87137 0.0
C506 C 0.22274 0.93627 0.88531 0.0
C507 C 0.23139 0.87256 0.9056 0.0
C508 C 0.23876 0.81288 0.91173 0.0
C509 C 0.22838 0.87617 0.89158 0.0
C510 C 0.24147 0.75622 0.90372 0.0
C511 C 0.23819 0.75932 0.88988 0.0
H512 H 0.47423 0.52333 0.62055 0.0
H513 H 0.47466 0.73045 0.6113 0.0
H514 H 0.47244 0.75607 0.63525 0.0
H515 H 0.47593 0.71917 0.65864 0.0
H516 H 0.47583 0.51201 0.66787 0.0
H517 H 0.47201 0.48651 0.64396 0.0
C518 C 0.47352 0.57416 0.62377 0.0
C519 C 0.47508 0.6251 0.61421 0.0
C520 C 0.47249 0.58826 0.63749 0.0
C521 C 0.47356 0.69056 0.61847 0.0
C522 C 0.47247 0.70509 0.63215 0.0
C523 C 0.47476 0.66837 0.65543 0.0
C524 C 0.47664 0.61737 0.66496 0.0
C525 C 0.47279 0.65431 0.64172 0.0
C526 C 0.47451 0.55196 0.66071 0.0
C527 C 0.4725 0.53748 0.64705 0.0
H528 H 0.80074 0.52547 0.65688 0.0
H529 H 0.79937 0.72964 0.66836 0.0
H530 H 0.80176 0.76203 0.64473 0.0
H531 H 0.7979 0.73171 0.62103 0.0
H532 H 0.79793 0.52752 0.60955 0.0
H533 H 0.8028 0.49533 0.63312 0.0
C534 C 0.80132 0.57716 0.65423 0.0
C535 C 0.79936 0.62528 0.66432 0.0
C536 C 0.80224 0.59511 0.64069 0.0
C537 C 0.80076 0.69187 0.66078 0.0
C538 C 0.80193 0.71025 0.64728 0.0
C539 C 0.7993 0.68008 0.62367 0.0
C540 C 0.79702 0.63183 0.61361 0.0
C541 C 0.80168 0.66223 0.63718 0.0
C542 C 0.79951 0.56537 0.61712 0.0
C543 C 0.80211 0.54709 0.63058 0.0
H544 H 0.53886 0.28898 0.41409 0.0
H545 H 0.55311 0.49784 0.41138 0.0
H546 H 0.5563 0.49094 0.38711 0.0
H547 H 0.54965 0.42759 0.36634 0.0
H548 H 0.53449 0.21893 0.36918 0.0
H549 H 0.53732 0.22384 0.39341 0.0
C550 C 0.54327 0.33259 0.4082 0.0
C551 C 0.54534 0.39374 0.41452 0.0
C552 C 0.54455 0.32866 0.39413 0.0
C553 C 0.55099 0.45005 0.40673 0.0
C554 C 0.5528 0.44632 0.39282 0.0
C555 C 0.54741 0.3832 0.37226 0.0
C556 C 0.54133 0.32345 0.36592 0.0
C557 C 0.54872 0.38622 0.38635 0.0
C558 C 0.53862 0.26612 0.37378 0.0
C559 C 0.5403 0.26863 0.38769 0.0
H560 H 0.22815 0.44703 0.36838 0.0
H561 H 0.22693 0.23863 0.36049 0.0
H562 H 0.22759 0.21652 0.38463 0.0
H563 H 0.23403 0.25654 0.40755 0.0
H564 H 0.23732 0.46487 0.41539 0.0
H565 H 0.23009 0.48717 0.39148 0.0
C566 C 0.22775 0.39661 0.37191 0.0
C567 C 0.22797 0.34432 0.36264 0.0
C568 C 0.22877 0.38453 0.38572 0.0
C569 C 0.22685 0.27954 0.3674 0.0
C570 C 0.22743 0.26703 0.38118 0.0
C571 C 0.23302 0.30701 0.40407 0.0
C572 C 0.23678 0.35918 0.4132 0.0
C573 C 0.2293 0.31915 0.39037 0.0
C574 C 0.23468 0.42404 0.40857 0.0
C575 C 0.23067 0.43665 0.39491 0.0
H576 H 0.97476 0.02957 0.62001 0.0
H577 H 0.97308 0.23609 0.61019 0.0
H578 H 0.97064 0.2631 0.63406 0.0
H579 H 0.97504 0.228 0.65748 0.0
H580 H 0.97784 0.02165 0.66733 0.0
H581 H 0.97335 -0.00583 0.64352 0.0
C582 C 0.97355 0.08057 0.62308 0.0
C583 C 0.97463 0.13098 0.61338 0.0
C584 C 0.97252 0.09548 0.63676 0.0
C585 C 0.97241 0.1966 0.61747 0.0
C586 C 0.97118 0.21194 0.6311 0.0
C587 C 0.97432 0.1769 0.65443 0.0
C588 C 0.97727 0.12674 0.66409 0.0
C589 C 0.97216 0.16181 0.6408 0.0
C590 C 0.97569 0.06093 0.66007 0.0
C591 C 0.97333 0.04536 0.64647 0.0
H592 H 0.3021 0.22077 0.62006 0.0
H593 H 0.29403 0.01657 0.6093 0.0
H594 H 0.29784 0.98536 0.63298 0.0
H595 H 0.29738 0.01784 0.65669 0.0
H596 H 0.30467 0.22251 0.66734 0.0
H597 H 0.30757 0.25211 0.64361 0.0
C598 C 0.30157 0.16928 0.62288 0.0
C599 C 0.29733 0.12092 0.61301 0.0
C600 C 0.30338 0.15212 0.63645 0.0
C601 C 0.29724 0.0545 0.61673 0.0
C602 C 0.29919 0.03683 0.63026 0.0
C603 C 0.29992 0.06894 0.65383 0.0
C604 C 0.30029 0.11818 0.66374 0.0
C605 C 0.3013 0.08545 0.64021 0.0
C606 C 0.30418 0.18388 0.65991 0.0
C607 C 0.3057 0.20075 0.64635 0.0
H608 H 0.04635 0.77487 0.37068 0.0
H609 H 0.04443 0.98266 0.36206 0.0
H610 H 0.04712 0.00634 0.38612 0.0
H611 H 0.04468 0.96735 0.40935 0.0
H612 H 0.04465 0.75923 0.41785 0.0
H613 H 0.04823 0.73607 0.39386 0.0
C614 C 0.04674 0.82551 0.37403 0.0
C615 C 0.0447 0.87713 0.36462 0.0
C616 C 0.0477 0.83841 0.38779 0.0
C617 C 0.0459 0.94226 0.3691 0.0
C618 C 0.04724 0.95564 0.38284 0.0
C619 C 0.04564 0.91677 0.406 0.0
C620 C 0.0439 0.86488 0.41538 0.0
C621 C 0.04728 0.90402 0.39224 0.0
C622 C 0.04577 0.79989 0.41086 0.0
C623 C 0.04772 0.78674 0.39716 0.0
H624 H 0.72996 0.77511 0.40843 0.0
H625 H 0.7407 0.9817 0.41664 0.0
H626 H 0.73479 0.00634 0.39275 0.0
H627 H 0.73201 0.96759 0.36956 0.0
H628 H 0.72298 0.76055 0.36132 0.0
H629 H 0.72242 0.73744 0.38541 0.0
C630 C 0.73081 0.82572 0.40502 0.0
C631 C 0.73631 0.87659 0.41425 0.0
C632 C 0.72784 0.83912 0.39134 0.0
C633 C 0.73665 0.94184 0.40974 0.0
C634 C 0.73342 0.95575 0.39609 0.0
C635 C 0.72967 0.91732 0.37301 0.0
C636 C 0.72805 0.86555 0.36366 0.0
C637 C 0.72986 0.90456 0.38679 0.0
C638 C 0.72439 0.80105 0.36829 0.0
C639 C 0.72424 0.78792 0.38205 0.0
H640 H 1.0022 0.54951 0.16572 0.0
H641 H 0.97949 0.75081 0.15765 0.0
H642 H 0.97687 0.72816 0.13374 0.0
H643 H 0.98611 0.65404 0.11483 0.0
H644 H 1.0099 0.45311 0.12301 0.0
H645 H 1.00691 0.47268 0.1469 0.0
C646 C 0.99604 0.58781 0.15873 0.0
C647 C 0.99134 0.65166 0.1634 0.0
C648 C 0.99522 0.57492 0.14491 0.0
C649 C 0.98355 0.70121 0.15424 0.0
C650 C 0.98211 0.68845 0.14056 0.0
C651 C 0.99035 0.61448 0.12184 0.0
C652 C 0.99867 0.55272 0.11706 0.0
C653 C 0.9888 0.62599 0.13571 0.0
C654 C 1.00386 0.50171 0.12634 0.0
C655 C 1.0021 0.51262 0.14007 0.0
H656 H 0.3004 0.53789 0.15924 0.0
H657 H 0.28797 0.74272 0.16852 0.0
H658 H 0.28966 0.76969 0.14457 0.0
H659 H 0.28964 0.73295 0.12114 0.0
H660 H 0.30124 0.52753 0.11202 0.0
H661 H 0.30503 0.50268 0.13594 0.0
C662 C 0.29834 0.58864 0.15605 0.0
C663 C 0.29363 0.63828 0.1656 0.0
C664 C 0.29892 0.60335 0.14235 0.0
C665 C 0.29157 0.70379 0.16135 0.0
C666 C 0.29233 0.71902 0.14767 0.0
C667 C 0.29319 0.6827 0.12437 0.0
C668 C 0.29468 0.63185 0.11482 0.0
C669 C 0.29516 0.66889 0.1381 0.0
C670 C 0.29985 0.56737 0.11915 0.0
C671 C 0.30193 0.5532 0.13282 0.0
H672 H 0.03627 0.432 0.8634 0.0
H673 H 0.04311 0.22342 0.87032 0.0
H674 H 0.04637 0.24132 0.89434 0.0
H675 H 0.04126 0.31511 0.91365 0.0
H676 H 0.03336 0.52363 0.90669 0.0
H677 H 0.03682 0.50688 0.88269 0.0
C678 C 0.03913 0.39076 0.87016 0.0
C679 C 0.03901 0.32663 0.8651 0.0
C680 C 0.0404 0.40118 0.88407 0.0
C681 C 0.04268 0.27344 0.87399 0.0
C682 C 0.04452 0.28349 0.88776 0.0
C683 C 0.04078 0.35685 0.90688 0.0
C684 C 0.03651 0.42017 0.91198 0.0
C685 C 0.04241 0.34698 0.89297 0.0
C686 C 0.03609 0.47395 0.90306 0.0
C687 C 0.03812 0.46461 0.88928 0.0
H688 H 0.72875 0.28369 0.90711 0.0
H689 H 0.73642 0.48604 0.91939 0.0
H690 H 0.73399 0.52103 0.8959 0.0
H691 H 0.73551 0.49263 0.87206 0.0
H692 H 0.7297 0.28981 0.85982 0.0
H693 H 0.7253 0.25617 0.8833 0.0
C694 C 0.7296 0.33563 0.90467 0.0
C695 C 0.73326 0.38232 0.91495 0.0
C696 C 0.72876 0.35496 0.89122 0.0
C697 C 0.7337 0.4493 0.91167 0.0
C698 C 0.73251 0.46914 0.89825 0.0
C699 C 0.73303 0.44099 0.87449 0.0
C700 C 0.73345 0.3935 0.86422 0.0
C701 C 0.73097 0.42219 0.88796 0.0
C702 C 0.7296 0.32713 0.86753 0.0
C703 C 0.72722 0.30798 0.88094 0.0
H704 H 0.36229 0.75174 0.08116 0.0
H705 H 0.318 0.93732 0.0813 0.0
H706 H 0.36333 -0.00442 0.08174 0.0
H707 H 0.41501 0.99362 0.08151 0.0
H708 H 0.45967 0.80861 0.08154 0.0
H709 H 0.4143 0.74983 0.08171 0.0
C710 C 0.36247 0.805 0.08127 0.0
C711 C 0.33671 0.84022 0.08108 0.0
C712 C 0.38855 0.83801 0.08157 0.0
C713 C 0.33743 0.90909 0.0814 0.0
C714 C 0.36334 0.94235 0.08164 0.0
C715 C 0.41496 0.94034 0.08154 0.0
C716 C 0.44077 0.90545 0.08138 0.0
C717 C 0.38895 0.90725 0.08163 0.0
C718 C 0.44017 0.83656 0.08163 0.0
C719 C 0.41424 0.80307 0.08169 0.0
H720 H 0.86149 0.23334 0.0824 0.0
H721 H 0.82763 0.43006 0.08454 0.0
H722 H 0.87595 0.47438 0.08505 0.0
H723 H 0.92724 0.4569 0.08417 0.0
H724 H 0.961 0.26002 0.08217 0.0
H725 H 0.91271 0.21566 0.08237 0.0
C726 C 0.86454 0.28607 0.08294 0.0
C727 C 0.84089 0.32854 0.08327 0.0
C728 C 0.89221 0.31086 0.08325 0.0
C729 C 0.84539 0.39645 0.08423 0.0
C730 C 0.87299 0.42166 0.0845 0.0
C731 C 0.92416 0.40414 0.08376 0.0
C732 C 0.94778 0.3617 0.083 0.0
C733 C 0.89648 0.37927 0.08389 0.0
C734 C 0.94327 0.29364 0.08271 0.0
C735 C 0.91569 0.2684 0.0828 0.0
H736 H 0.44558 0.40465 0.19653 0.0
H737 H 0.41503 0.20542 0.20003 0.0
H738 H 0.36635 0.24392 0.19956 0.0
H739 H 0.33188 0.33451 0.1986 0.0
H740 H 0.36258 0.53377 0.1957 0.0
H741 H 0.41123 0.49495 0.19542 0.0
C742 C 0.42828 0.36973 0.19718 0.0
C743 C 0.4341 0.30242 0.19837 0.0
C744 C 0.4001 0.39213 0.197 0.0
C745 C 0.41132 0.25776 0.19919 0.0
C746 C 0.38333 0.2796 0.19889 0.0
C747 C 0.34923 0.36924 0.19783 0.0
C748 C 0.34353 0.43678 0.19724 0.0
C749 C 0.37741 0.34672 0.19785 0.0
C750 C 0.3663 0.48134 0.1963 0.0
C751 C 0.39423 0.4593 0.19612 0.0
H752 H 0.84071 0.863 0.1882 0.0
H753 H 0.8582 0.02938 0.2136 0.0
H754 H 0.90862 0.00548 0.21293 0.0
H755 H 0.94826 0.93632 0.2054 0.0
H756 H 0.93088 0.76809 0.18065 0.0
H757 H 0.88039 0.79423 0.18055 0.0
C758 C 0.85555 0.89344 0.1937 0.0
C759 C 0.84563 0.94763 0.20095 0.0
C760 C 0.88475 0.87985 0.19319 0.0
C761 C 0.86522 0.98722 0.20791 0.0
C762 C 0.89415 0.97388 0.2075 0.0
C763 C 0.9334 0.90651 0.19977 0.0
C764 C 0.94311 0.85112 0.1929 0.0
C765 C 0.90424 0.92062 0.2001 0.0
C766 C 0.92371 0.81151 0.18591 0.0
C767 C 0.89485 0.82605 0.18593 0.0
H768 H 0.69643 0.0703 0.94746 0.0
H769 H 0.66735 0.2686 0.94092 0.0
H770 H 0.61831 0.23174 0.94121 0.0
H771 H 0.5832 0.1437 0.94417 0.0
H772 H 0.61239 0.94578 0.95143 0.0
H773 H 0.66127 0.9819 0.95006 0.0
C774 C 0.67933 0.10511 0.94596 0.0
C775 C 0.68553 0.17191 0.94423 0.0
C776 C 0.65097 0.08385 0.9464 0.0
C777 C 0.66314 0.21676 0.9424 0.0
C778 C 0.63502 0.19584 0.94256 0.0
C779 C 0.60025 0.10857 0.94546 0.0
C780 C 0.59394 0.04234 0.94797 0.0
C781 C 0.62861 0.12961 0.94474 0.0
C782 C 0.61643 -0.00263 0.94957 0.0
C783 C 0.64456 0.01781 0.94875 0.0
H784 H 0.16855 0.73677 0.94895 0.0
H785 H 0.20233 0.53976 0.9507 0.0
H786 H 0.15411 0.49537 0.95047 0.0
H787 H 0.10297 0.51274 0.9497 0.0
H788 H 0.06902 0.70948 0.94749 0.0
H789 H 0.11726 0.75412 0.94798 0.0
C790 C 0.1655 0.684 0.94934 0.0
C791 C 0.18912 0.64152 0.94991 0.0
C792 C 0.13783 0.65903 0.94911 0.0
C793 C 0.18461 0.57344 0.95027 0.0
C794 C 0.15705 0.54815 0.95015 0.0
C795 C 0.10595 0.56554 0.94937 0.0
C796 C 0.0823 0.60785 0.94863 0.0
C797 C 0.13358 0.59055 0.94956 0.0
C798 C 0.08677 0.67592 0.94808 0.0
C799 C 0.11433 0.70134 0.94837 0.0
H800 H 0.61135 0.75474 0.8332 0.0
H801 H 0.57089 0.56511 0.83009 0.0
H802 H 0.61744 0.51171 0.83077 0.0
H803 H 0.66932 0.51978 0.83152 0.0
H804 H 0.70946 0.70972 0.83492 0.0
H805 H 0.66289 0.76255 0.83485 0.0
C806 C 0.61259 0.70161 0.83265 0.0
C807 C 0.58762 0.66388 0.83144 0.0
C808 C 0.63927 0.6716 0.83307 0.0
C809 C 0.58972 0.5952 0.83098 0.0
C810 C 0.61632 0.5648 0.83134 0.0
C811 C 0.66798 0.57283 0.83223 0.0
C812 C 0.69294 0.61092 0.83309 0.0
C813 C 0.6412 0.60264 0.83225 0.0
C814 C 0.69068 0.67938 0.83421 0.0
C815 C 0.66406 0.70951 0.83415 0.0
H816 H 0.10228 0.2184 0.8294 0.0
H817 H 0.06378 0.02612 0.83148 0.0
H818 H 0.11081 0.97552 0.83085 0.0
H819 H 0.16227 0.98617 0.82949 0.0
H820 H 0.20103 0.17824 0.82782 0.0
H821 H 0.15398 0.2291 0.82854 0.0
C822 C 0.10405 0.16531 0.82968 0.0
C823 C 0.07944 0.12596 0.83038 0.0
C824 C 0.13107 0.13681 0.82939 0.0
C825 C 0.08229 0.05744 0.83091 0.0
C826 C 0.10917 0.02859 0.83054 0.0
C827 C 0.16058 0.03928 0.82923 0.0
C828 C 0.18523 0.07845 0.82847 0.0
C829 C 0.13362 0.06786 0.82973 0.0
C830 C 0.18248 0.14705 0.82836 0.0
C831 C 0.15559 0.17601 0.82876 0.0
H832 H 0.41179 0.49805 0.58467 0.0
H833 H 0.45533 0.31193 0.58249 0.0
H834 H 0.40972 0.2544 0.58323 0.0
H835 H 0.35788 0.25784 0.58346 0.0
H836 H 0.3144 0.44402 0.58573 0.0
H837 H 0.36008 0.50125 0.58606 0.0
C838 C 0.4114 0.4448 0.58435 0.0
C839 C 0.43693 0.40918 0.58334 0.0
C840 C 0.38525 0.41242 0.58477 0.0
C841 C 0.43601 0.34035 0.5832 0.0
C842 C 0.40996 0.30759 0.5836 0.0
C843 C 0.3583 0.31103 0.58402 0.0
C844 C 0.33273 0.34683 0.58439 0.0
C845 C 0.3845 0.34327 0.5842 0.0
C846 C 0.33373 0.41548 0.58538 0.0
C847 C 0.35982 0.44809 0.58554 0.0
H848 H 0.85596 0.7667 0.5844 0.0
H849 H 0.81316 0.95403 0.58514 0.0
H850 H 0.85911 0.01036 0.58498 0.0
H851 H 0.91087 0.00566 0.58355 0.0
H852 H 0.95351 0.81807 0.58288 0.0
H853 H 0.90766 0.76195 0.58411 0.0
C854 C 0.85657 0.81996 0.58453 0.0
C855 C 0.83114 0.85632 0.5846 0.0
C856 C 0.88288 0.8516 0.5844 0.0
C857 C 0.83239 0.92508 0.58504 0.0
C858 C 0.85863 0.95714 0.5849 0.0
C859 C 0.91023 0.95241 0.58365 0.0
C860 C 0.93559 0.91592 0.58294 0.0
C861 C 0.88393 0.92079 0.58439 0.0
C862 C 0.93434 0.84714 0.58335 0.0
C863 C 0.90815 0.81518 0.58404 0.0
H864 H 0.41452 0.74519 0.69695 0.0
H865 H 0.45968 0.92974 0.69657 0.0
H866 H 0.41457 0.989 0.69594 0.0
H867 H 0.36277 0.98793 0.69608 0.0
H868 H 0.31752 0.80351 0.69615 0.0
H869 H 0.36266 0.74411 0.69626 0.0
C870 C 0.4146 0.79846 0.69676 0.0
C871 C 0.44049 0.83314 0.69695 0.0
C872 C 0.38869 0.83192 0.69634 0.0
C873 C 0.44011 0.90199 0.69648 0.0
C874 C 0.41433 0.93577 0.69614 0.0
C875 C 0.36267 0.93466 0.69614 0.0
C876 C 0.33676 0.90008 0.69624 0.0
C877 C 0.38856 0.90116 0.69616 0.0
C878 C 0.33711 0.83119 0.6961 0.0
C879 C 0.3629 0.79734 0.69619 0.0
H880 H 0.86215 0.49363 0.69416 0.0
H881 H 0.82008 0.3053 0.69298 0.0
H882 H 0.86617 0.25017 0.69238 0.0
H883 H 0.91787 0.2558 0.69314 0.0
H884 H 0.96012 0.4439 0.69413 0.0
H885 H 0.91402 0.4994 0.69376 0.0
C886 C 0.86298 0.44043 0.69379 0.0
C887 C 0.83768 0.40343 0.69379 0.0
C888 C 0.88943 0.40937 0.69342 0.0
C889 C 0.83919 0.33476 0.69304 0.0
C890 C 0.86551 0.30335 0.69272 0.0
C891 C 0.9171 0.30905 0.69329 0.0
C892 C 0.94242 0.34583 0.69385 0.0
C893 C 0.89069 0.34022 0.69307 0.0
C894 C 0.94098 0.41462 0.69375 0.0
C895 C 0.91465 0.44619 0.69358 0.0
H896 H 0.58549 0.66206 0.4449 0.0
H897 H 0.61071 0.47255 0.46033 0.0
H898 H 0.66017 0.5045 0.45939 0.0
H899 H 0.69694 0.58604 0.4541 0.0
H900 H 0.67194 0.77688 0.43953 0.0
H901 H 0.62223 0.74453 0.44007 0.0
C902 C 0.60179 0.6281 0.44817 0.0
C903 C 0.59425 0.56509 0.45263 0.0
C904 C 0.63048 0.64666 0.44762 0.0
C905 C 0.61577 0.52149 0.45679 0.0
C906 C 0.6442 0.5395 0.45623 0.0
C907 C 0.68057 0.62005 0.45093 0.0
C908 C 0.68802 0.68342 0.44675 0.0
C909 C 0.65188 0.60174 0.45156 0.0
C910 C 0.66664 0.72765 0.44283 0.0
C911 C 0.63819 0.70934 0.44316 0.0
H912 H 0.08862 0.14501 0.4437 0.0
H913 H 0.11389 0.95309 0.45779 0.0
H914 H 0.16342 0.985 0.45683 0.0
H915 H 0.20018 0.06818 0.45229 0.0
H916 H 0.17469 0.26068 0.4388 0.0
H917 H 0.12517 0.22763 0.43908 0.0
C918 C 0.10495 0.11036 0.44663 0.0
C919 C 0.0974 0.04697 0.45082 0.0
C920 C 0.13361 0.12888 0.44606 0.0
C921 C 0.11895 0.00248 0.45452 0.0
C922 C 0.14742 0.02048 0.45394 0.0
C923 C 0.18375 0.10238 0.44928 0.0
C924 C 0.19105 0.16659 0.44557 0.0
C925 C 0.15507 0.08353 0.44971 0.0
C926 C 0.16955 0.21089 0.4418 0.0
C927 C 0.14118 0.19218 0.44197 0.0
H928 H 0.66116 0.9843 0.32938 0.0
H929 H 0.70406 0.17132 0.33222 0.0
H930 H 0.6582 0.22741 0.33266 0.0
H931 H 0.60664 0.22303 0.33168 0.0
H932 H 0.5635 0.03636 0.32884 0.0
H933 H 0.60935 0.97977 0.32903 0.0
C934 C 0.66062 0.03744 0.33008 0.0
C935 C 0.68609 0.07376 0.33065 0.0
C936 C 0.6343 0.06906 0.33033 0.0
C937 C 0.68484 0.14235 0.33173 0.0
C938 C 0.65865 0.17431 0.33196 0.0
C939 C 0.6071 0.16986 0.33107 0.0
C940 C 0.58161 0.13386 0.33011 0.0
C941 C 0.63334 0.13809 0.33117 0.0
C942 C 0.58275 0.06511 0.32955 0.0
C943 C 0.60894 0.03291 0.32963 0.0
H944 H 0.19074 0.63528 0.33569 0.0
H945 H 0.1591 0.44803 0.32193 0.0
H946 H 0.11085 0.48778 0.32314 0.0
H947 H 0.07698 0.57664 0.32748 0.0
H948 H 0.10829 0.76501 0.34047 0.0
H949 H 0.15673 0.72387 0.34035 0.0
C950 C 0.17329 0.60338 0.33292 0.0
C951 C 0.17874 0.53898 0.3287 0.0
C952 C 0.14525 0.62652 0.33358 0.0
C953 C 0.15575 0.4981 0.3252 0.0
C954 C 0.12796 0.52058 0.32592 0.0
C955 C 0.09441 0.60815 0.33045 0.0
C956 C 0.08913 0.6735 0.33394 0.0
C957 C 0.12239 0.5847 0.33007 0.0
C958 C 0.11191 0.71434 0.33764 0.0
C959 C 0.13965 0.69101 0.33756 0.0
H960 H 0.51916 0.94205 0.03991 0.0
H961 H 0.48376 0.13198 0.03029 0.0
H962 H 0.48695 0.10639 1.0064 0.0
H963 H 0.50012 0.03082 0.9884 0.0
H964 H 0.53528 0.84062 0.998 0.0
H965 H 0.53168 0.86578 0.02189 0.0
C966 C 0.51215 0.97813 0.03262 0.0
C967 C 0.50132 0.03918 0.03693 0.0
C968 C 0.51395 0.96295 0.01894 0.0
C969 C 0.4922 0.08482 0.02729 0.0
C970 C 0.49403 0.07014 1.01363 0.0
C971 C 0.50701 -0.00541 0.99568 0.0
C972 C 0.51806 0.93377 0.99136 0.0
C973 C 0.50491 0.00944 1.00936 0.0
C974 C 0.52671 0.88765 1.001 0.0
C975 C 0.5247 0.90212 0.01467 0.0
H976 H 0.78885 0.1472 0.03022 0.0
H977 H 0.74027 0.31231 0.04453 0.0
H978 H 0.73359 0.35137 0.02179 0.0
H979 H 0.74146 0.33998 0.99763 0.0
H980 H 0.7896 0.17479 0.98313 0.0
H981 H 0.79647 0.13539 1.00591 0.0
C982 C 0.77669 0.19145 0.02834 0.0
C983 C 0.76521 0.22651 0.03914 0.0
C984 C 0.77288 0.21429 0.01512 0.0
C985 C 0.74955 0.28409 0.03647 0.0
C986 C 0.74566 0.3068 0.02343 0.0
C987 C 0.75357 0.29561 0.99947 0.0
C988 C 0.76494 0.26069 0.98864 0.0
C989 C 0.75733 0.27259 1.01265 0.0
C990 C 0.78046 0.20287 0.99124 0.0
C991 C 0.78444 0.18004 1.0043 0.0
H992 H 0.52711 0.2865 0.23887 0.0
H993 H 0.49458 0.09155 0.24643 0.0
H994 H 0.49743 0.11116 0.27051 0.0
H995 H 0.50825 0.18342 0.28923 0.0
H996 H 0.54102 0.37843 0.28209 0.0
H997 H 0.53898 0.35877 0.25787 0.0
C998 C 0.52068 0.2481 0.24576 0.0
C999 C 0.51054 0.18749 0.24079 0.0
C1000 C 0.52235 0.25979 0.25961 0.0
C1001 C 0.50244 0.13848 0.24992 0.0
C1002 C 0.50402 0.14975 0.2637 0.0
C1003 C 0.51495 0.22203 0.28244 0.0
C1004 C 0.52462 0.28271 0.28753 0.0
C1005 C 0.51378 0.21026 0.26863 0.0
C1006 C 0.53343 0.33148 0.27848 0.0
C1007 C 0.53224 0.32017 0.26464 0.0
H1008 H 0.74809 0.95049 0.23824 0.0
H1009 H 0.77881 0.14476 0.24776 0.0
H1010 H 0.77472 0.11975 0.27166 0.0
H1011 H 0.76348 0.04233 0.28967 0.0
H1012 H 0.73266 0.84808 0.28021 0.0
H1013 H 0.73583 0.87377 0.25629 0.0
C1014 C 0.75387 0.98765 0.24551 0.0
C1015 C 0.76387 0.04955 0.24117 0.0
C1016 C 0.75155 0.97282 0.25919 0.0
C1017 C 0.77107 0.09689 0.25079 0.0
C1018 C 0.76879 0.0825 0.26445 0.0
C1019 C 0.75745 0.00531 0.28242 0.0
C1020 C 0.74798 0.943 0.28677 0.0
C1021 C 0.75925 0.02051 0.26874 0.0
C1022 C 0.74007 0.8962 0.27717 0.0
C1023 C 0.74188 0.91093 0.2635 0.0
H1024 H 0.27846 0.68526 0.98931 0.0
H1025 H 0.24167 0.87752 0.99467 0.0
H1026 H 0.24409 0.86299 0.01904 0.0
H1027 H 0.25611 0.79473 0.03867 0.0
H1028 H 0.29269 0.60244 0.0329 0.0
H1029 H 0.29072 0.61813 1.00867 0.0
C1030 C 0.27095 0.72435 0.99574 0.0
C1031 C 0.25982 0.78256 0.99011 0.0
C1032 C 0.27228 0.71546 1.00964 0.0
C1033 C 0.25033 0.83237 0.99869 0.0
C1034 C 0.25168 0.82394 1.01262 0.0
C1035 C 0.26365 0.75609 0.03213 0.0
C1036 C 0.2745 0.69724 0.03765 0.0
C1037 C 0.26249 0.76552 0.01819 0.0
C1038 C 0.28422 0.64803 0.02898 0.0
C1039 C 0.28312 0.65703 0.01512 0.0
H1040 H 0.52559 0.7918 0.73831 0.0
H1041 H 0.48491 0.60693 0.74739 0.0
H1042 H 0.48892 0.63024 0.77132 0.0
H1043 H 0.50359 0.70284 0.78952 0.0
H1044 H 0.5442 0.88796 0.78062 0.0
H1045 H 0.54049 0.86461 0.75663 0.0
C1046 C 0.51761 0.75637 0.7455 0.0
C1047 C 0.50494 0.69749 0.74101 0.0
C1048 C 0.51991 0.77022 0.75923 0.0
C1049 C 0.49475 0.65246 0.75052 0.0
C1050 C 0.49702 0.66584 0.76421 0.0
C1051 C 0.51167 0.73839 0.78238 0.0
C1052 C 0.52416 0.79732 0.78692 0.0
C1053 C 0.50949 0.72458 0.76866 0.0
C1054 C 0.53448 0.84239 0.77745 0.0
C1055 C 0.53237 0.82897 0.76373 0.0
H1056 H 0.25224 0.94266 0.73734 0.0
H1057 H 0.29272 0.12818 0.74597 0.0
H1058 H 0.28835 0.10643 0.76995 0.0
H1059 H 0.27317 0.03553 0.78829 0.0
H1060 H 0.2326 0.84983 0.77998 0.0
H1061 H 0.23704 0.871 0.7559 0.0
C1062 C 0.2601 0.97854 0.74444 0.0
C1063 C 0.27279 0.03721 0.73982 0.0
C1064 C 0.25757 0.9656 0.75822 0.0
C1065 C 0.28287 0.08281 0.74921 0.0
C1066 C 0.28039 0.07033 0.76292 0.0
C1067 C 0.26526 -0.00066 0.78127 0.0
C1068 C 0.25252 0.94097 0.78599 0.0
C1069 C 0.26781 0.01195 0.76752 0.0
C1070 C 0.24249 0.89501 0.77666 0.0
C1071 C 0.245 0.9072 0.76289 0.0
H1072 H 0.49649 0.53935 0.48948 0.0
H1073 H 0.53307 0.34926 0.49784 0.0
H1074 H 0.52904 0.37045 0.52192 0.0
H1075 H 0.51626 0.44437 0.54047 0.0
H1076 H 0.47993 0.63445 0.53177 0.0
H1077 H 0.48293 0.61167 0.50781 0.0
C1078 C 0.50358 0.50217 0.49652 0.0
C1079 C 0.51521 0.44269 0.4918 0.0
C1080 C 0.50138 0.51491 0.51026 0.0
C1081 C 0.52405 0.39531 0.50115 0.0
C1082 C 0.52182 0.40758 0.51492 0.0
C1083 C 0.50899 0.48098 0.53335 0.0
C1084 C 0.49797 0.54137 0.53796 0.0
C1085 C 0.51073 0.46746 0.51957 0.0
C1086 C 0.48853 0.5878 0.52855 0.0
C1087 C 0.49023 0.57474 0.51484 0.0
H1088 H 0.79294 0.67225 0.53132 0.0
H1089 H 0.73432 0.82145 0.54435 0.0
H1090 H 0.7293 0.86111 0.52147 0.0
H1091 H 0.74101 0.85309 0.49749 0.0
H1092 H 0.79942 0.70334 0.48454 0.0
H1093 H 0.80519 0.66531 0.50748 0.0
C1094 C 0.77896 0.71314 0.52914 0.0
C1095 C 0.76403 0.74347 0.53957 0.0
C1096 C 0.77624 0.7363 0.51591 0.0
C1097 C 0.74615 0.79693 0.53654 0.0
C1098 C 0.74326 0.81994 0.52343 0.0
C1099 C 0.75523 0.81272 0.49973 0.0
C1100 C 0.76967 0.78122 0.48929 0.0
C1101 C 0.75824 0.79018 0.51301 0.0
C1102 C 0.78786 0.72842 0.49237 0.0
C1103 C 0.79118 0.70638 0.5055 0.0
H1104 H 0.74427 0.41427 0.78136 0.0
H1105 H 0.79073 0.58535 0.7944 0.0
H1106 H 0.798 0.61887 0.7713 0.0
H1107 H 0.79102 0.60078 0.74718 0.0
H1108 H 0.7445 0.42979 0.73414 0.0
H1109 H 0.73752 0.39586 0.75724 0.0
C1110 C 0.75607 0.45869 0.77914 0.0
C1111 C 0.76684 0.49699 0.78966 0.0
C1112 C 0.76017 0.47822 0.76574 0.0
C1113 C 0.78205 0.55467 0.78655 0.0
C1114 C 0.78627 0.57414 0.7733 0.0
C1115 C 0.77931 0.55622 0.7494 0.0
C1116 C 0.76835 0.5182 0.73888 0.0
C1117 C 0.77534 0.53652 0.76279 0.0
C1118 C 0.75327 0.46033 0.74198 0.0
C1119 C 0.74922 0.44062 0.75523 0.0
H1120 H 0.2418 0.34252 0.49676 0.0
H1121 H 0.30013 0.19212 0.48402 0.0
H1122 H 0.30603 0.15514 0.507 0.0
H1123 H 0.29397 0.16308 0.53083 0.0
H1124 H 0.23568 0.31319 0.54373 0.0
H1125 H 0.23041 0.35183 0.52079 0.0
C1126 C 0.25601 0.3022 0.49905 0.0
C1127 C 0.27037 0.27021 0.48864 0.0
C1128 C 0.25916 0.28034 0.51238 0.0
C1129 C 0.2886 0.21757 0.4918 0.0
C1130 C 0.29201 0.19613 0.50497 0.0
C1131 C 0.28001 0.20398 0.52861 0.0
C1132 C 0.26524 0.23482 0.53902 0.0
C1133 C 0.27717 0.22655 0.51534 0.0
C1134 C 0.24739 0.28829 0.53594 0.0
C1135 C 0.24435 0.31069 0.52279 0.0
H1136 H 0.26666 0.52494 0.2895 0.0
H1137 H 0.23628 0.33198 0.27872 0.0
H1138 H 0.24048 0.36086 0.25496 0.0
H1139 H 0.25271 0.44084 0.23743 0.0
H1140 H 0.28292 0.63371 0.2484 0.0
H1141 H 0.27868 0.6046 0.27209 0.0
C1142 C 0.26095 0.48882 0.282 0.0
C1143 C 0.25118 0.42609 0.28594 0.0
C1144 C 0.26332 0.50586 0.26844 0.0
C1145 C 0.24387 0.38042 0.27601 0.0
C1146 C 0.24625 0.39701 0.26243 0.0
C1147 C 0.25836 0.47677 0.24497 0.0
C1148 C 0.26815 0.53962 0.2411 0.0
C1149 C 0.25592 0.45961 0.25855 0.0
C1150 C 0.27533 0.58519 0.25106 0.0
C1151 C 0.27294 0.56849 0.26461 0.0
H1152 H 0.99969 0.03741 0.48896 0.0
H1153 H 0.03222 0.84463 0.49847 0.0
H1154 H 0.02762 0.8686 0.5224 0.0
H1155 H 0.01526 0.94503 0.54047 0.0
H1156 H 0.98268 0.13762 0.53081 0.0
H1157 H 0.98653 0.11273 0.50694 0.0
C1158 C 1.00578 0.00032 0.49623 0.0
C1159 C 0.01641 0.93919 0.49188 0.0
C1160 C 1.00316 0.01454 0.5099 0.0
C1161 C 0.02399 0.89194 0.5015 0.0
C1162 C 0.02141 0.90575 0.51518 0.0
C1163 C 1.00899 0.98177 0.53317 0.0
C1164 C 0.99879 0.04341 0.53747 0.0
C1165 C 1.01119 0.96703 0.51948 0.0
C1166 C 0.99063 0.08998 0.52782 0.0
C1167 C 0.99283 0.07573 0.51417 0.0
H1168 H 0.97945 0.15558 0.74638 0.0
H1169 H 0.04143 0.30048 0.73467 0.0
H1170 H 0.04701 0.3346 0.75787 0.0
H1171 H 0.03476 0.32275 0.78175 0.0
H1172 H 0.97262 0.17783 0.7933 0.0
H1173 H 0.96653 0.1453 0.77008 0.0
C1174 C 0.99428 0.19431 0.74892 0.0
C1175 C 1.01001 0.22508 0.73878 0.0
C1176 C 0.99727 0.21435 0.76232 0.0
C1177 C 0.02897 0.27577 0.74226 0.0
C1178 C 0.03219 0.29556 0.75555 0.0
C1179 C 0.01968 0.28464 0.77915 0.0
C1180 C 1.0043 0.25283 0.78928 0.0
C1181 C 0.0164 0.26536 0.76569 0.0
C1182 C 0.98495 0.20306 0.78573 0.0
C1183 C 0.98142 0.18416 0.77243 0.0
H1184 H 0.99515 0.67558 0.24653 0.0
H1185 H 0.04533 0.8414 0.23371 0.0
H1186 H 0.0509 0.87691 0.25679 0.0
H1187 H 0.04149 0.86174 0.28085 0.0
H1188 H 0.99101 0.69612 0.29356 0.0
H1189 H 0.98562 0.66064 0.27052 0.0
C1190 C 1.00743 0.71921 0.2488 0.0
C1191 C 0.01973 0.75551 0.23835 0.0
C1192 C 1.01044 0.74003 0.26216 0.0
C1193 C 0.03546 0.81233 0.24151 0.0
C1194 C 0.0387 0.83294 0.25475 0.0
C1195 C 0.0292 0.81817 0.27857 0.0
C1196 C 0.01678 0.78191 0.28899 0.0
C1197 C 0.02618 0.79743 0.26518 0.0
C1198 C 1.00098 0.72521 0.2858 0.0
C1199 C 0.99785 0.70457 0.27258 0.0
H1200 H 0.03698 0.40163 0.99503 0.0
H1201 H 0.97781 0.55762 0.98644 0.0
H1202 H 0.97421 0.58305 1.01017 0.0
H1203 H 0.98836 0.5625 0.03356 0.0
H1204 H 0.04765 0.40657 0.04206 0.0
H1205 H 0.05079 0.38047 0.01838 0.0
C1206 C 0.0231 0.44066 0.99837 0.0
C1207 C 1.00776 0.47749 0.98894 0.0
C1208 C 0.02131 0.45579 1.01209 0.0
C1209 C 0.99001 0.52844 0.99347 0.0
C1210 C 0.98794 0.54329 1.00706 0.0
C1211 C 1.00209 0.5232 0.0302 0.0
C1212 C 0.01769 0.48677 0.03961 0.0
C1213 C 1.00369 0.50776 0.01648 0.0
C1214 C 0.03525 0.43548 0.03507 0.0
C1215 C 0.03708 0.42027 0.0215 0.0
H1216 H 0.61006 0.01386 0.08772 0.0
H1217 H 0.56804 0.19532 0.07737 0.0
H1218 H 0.61268 0.25437 0.07874 0.0
H1219 H 0.66455 0.2544 0.08177 0.0
H1220 H 0.7066 0.07247 0.09153 0.0
H1221 H 0.66143 0.01472 0.09169 0.0
C1222 C 0.61066 0.06629 0.0858 0.0
C1223 C 0.58565 0.09961 0.08235 0.0
C1224 C 0.63657 0.10041 0.08655 0.0
C1225 C 0.58691 0.16788 0.07996 0.0
C1226 C 0.61249 0.20205 0.08078 0.0
C1227 C 0.66368 0.20242 0.08415 0.0
C1228 C 0.68887 0.16788 0.08658 0.0
C1229 C 0.63756 0.16884 0.08394 0.0
C1230 C 0.68748 0.10023 0.08951 0.0
C1231 C 0.66165 0.06697 0.08958 0.0
H1232 H 0.58317 0.07549 0.19397 0.0
H1233 H 0.60874 0.27914 0.19287 0.0
H1234 H 0.65844 0.2456 0.19193 0.0
H1235 H 0.6944 0.1591 0.1927 0.0
H1236 H 0.66915 0.95532 0.1939 0.0
H1237 H 0.61926 0.98851 0.19337 0.0
C1238 C 0.59957 0.11272 0.19347 0.0
C1239 C 0.59219 0.17994 0.19363 0.0
C1240 C 0.62806 0.09304 0.19297 0.0
C1241 C 0.61376 0.22724 0.19281 0.0
C1242 C 0.64219 0.20804 0.1923 0.0
C1243 C 0.67803 0.12169 0.19279 0.0
C1244 C 0.68554 0.05465 0.19348 0.0
C1245 C 0.64954 0.14116 0.19257 0.0
C1246 C 0.664 0.0071 0.19339 0.0
C1247 C 0.63549 0.02614 0.19315 0.0
H1248 H 0.44668 0.8125 0.94551 0.0
H1249 H 0.41747 0.01332 0.94405 0.0
H1250 H 0.36832 0.97459 0.94344 0.0
H1251 H 0.33392 0.88395 0.94432 0.0
H1252 H 0.36347 0.68334 0.94584 0.0
H1253 H 0.41251 0.72212 0.94538 0.0
C1254 C 0.42962 0.84808 0.94503 0.0
C1255 C 0.43581 0.91594 0.94495 0.0
C1256 C 0.40156 0.82547 0.94472 0.0
C1257 C 0.41336 0.96098 0.94415 0.0
C1258 C 0.38527 0.93879 0.94383 0.0
C1259 C 0.35104 0.84849 0.94451 0.0
C1260 C 0.34495 0.78062 0.94522 0.0
C1261 C 0.37915 0.87118 0.94428 0.0
C1262 C 0.36748 0.73567 0.94532 0.0
C1263 C 0.39552 0.75788 0.94509 0.0
H1264 H 0.41519 0.75532 0.83375 0.0
H1265 H 0.45671 0.94329 0.82968 0.0
H1266 H 0.41124 -0.00102 0.83 0.0
H1267 H 0.35913 -0.00502 0.83051 0.0
H1268 H 0.31761 0.80689 0.83422 0.0
H1269 H 0.36319 0.75163 0.83505 0.0
C1270 C 0.41429 0.80842 0.83301 0.0
C1271 C 0.43944 0.84463 0.83161 0.0
C1272 C 0.38788 0.84066 0.83311 0.0
C1273 C 0.43777 0.91368 0.83067 0.0
C1274 C 0.41169 0.94591 0.83087 0.0
C1275 C 0.36009 0.94203 0.83162 0.0
C1276 C 0.33491 0.90543 0.8322 0.0
C1277 C 0.38654 0.90997 0.83195 0.0
C1278 C 0.33661 0.8366 0.83361 0.0
C1279 C 0.36273 0.80466 0.8341 0.0
H1280 H 0.6605 0.75451 0.58585 0.0
H1281 H 0.70446 0.5688 0.58604 0.0
H1282 H 0.65954 0.51004 0.58606 0.0
H1283 H 0.60747 0.51076 0.58488 0.0
H1284 H 0.56364 0.69673 0.58396 0.0
H1285 H 0.60843 0.75521 0.58539 0.0
C1286 C 0.6602 0.70125 0.58604 0.0
C1287 C 0.68581 0.66632 0.58587 0.0
C1288 C 0.63419 0.6674 0.58582 0.0
C1289 C 0.68505 0.59713 0.58605 0.0
C1290 C 0.65934 0.56328 0.58606 0.0
C1291 C 0.60774 0.56401 0.58508 0.0
C1292 C 0.58218 0.599 0.58421 0.0
C1293 C 0.63373 0.59782 0.58575 0.0
C1294 C 0.58297 0.66821 0.58448 0.0
C1295 C 0.60862 0.70197 0.58533 0.0
H1296 H 0.61033 0.73457 0.69293 0.0
H1297 H 0.56839 0.54632 0.69477 0.0
H1298 H 0.61375 0.49026 0.69336 0.0
H1299 H 0.66585 0.494 0.69277 0.0
H1300 H 0.7078 0.68229 0.69164 0.0
H1301 H 0.66228 0.73826 0.6915 0.0
C1302 C 0.61112 0.68133 0.69292 0.0
C1303 C 0.58595 0.64499 0.69405 0.0
C1304 C 0.63743 0.649 0.69227 0.0
C1305 C 0.58742 0.57584 0.69404 0.0
C1306 C 0.6134 0.54349 0.69321 0.0
C1307 C 0.66498 0.54719 0.69234 0.0
C1308 C 0.69021 0.5837 0.69229 0.0
C1309 C 0.63861 0.57948 0.69249 0.0
C1310 C 0.6887 0.65278 0.69181 0.0
C1311 C 0.66265 0.68504 0.69172 0.0
H1312 H 0.44859 0.33723 0.44174 0.0
H1313 H 0.41815 0.5365 0.44495 0.0
H1314 H 0.36924 0.49674 0.44346 0.0
H1315 H 0.33548 0.40506 0.44274 0.0
H1316 H 0.36607 0.20578 0.43978 0.0
H1317 H 0.41491 0.24627 0.4396 0.0
C1318 C 0.4313 0.37225 0.44206 0.0
C1319 C 0.43705 0.43988 0.44361 0.0
C1320 C 0.40338 0.34899 0.44129 0.0
C1321 C 0.41436 0.48435 0.4438 0.0
C1322 C 0.38641 0.46154 0.443 0.0
C1323 C 0.35278 0.37028 0.44199 0.0
C1324 C 0.34709 0.30222 0.44142 0.0
C1325 C 0.38072 0.3939 0.44198 0.0
C1326 C 0.36981 0.25821 0.44026 0.0
C1327 C 0.39772 0.28139 0.44021 0.0
H1328 H 0.41221 0.23765 0.33608 0.0
H1329 H 0.45328 0.4209 0.32619 0.0
H1330 H 0.40796 0.47756 0.3266 0.0
H1331 H 0.35587 0.47475 0.32872 0.0
H1332 H 0.31514 0.29087 0.33836 0.0
H1333 H 0.36075 0.23581 0.33924 0.0
C1334 C 0.41125 0.28995 0.33404 0.0
C1335 C 0.43616 0.32453 0.33103 0.0
C1336 C 0.38502 0.32264 0.33427 0.0
C1337 C 0.43447 0.39261 0.3285 0.0
C1338 C 0.40851 0.42536 0.32874 0.0
C1339 C 0.3571 0.42293 0.33119 0.0
C1340 C 0.33213 0.38706 0.33336 0.0
C1341 C 0.38355 0.39086 0.3315 0.0
C1342 C 0.33404 0.31967 0.33649 0.0
C1343 C 0.36014 0.28791 0.337 0.0
H1344 H 0.10675 0.00931 0.58417 0.0
H1345 H 0.06466 0.19745 0.58411 0.0
H1346 H 0.11005 0.25356 0.58551 0.0
H1347 H 0.16209 0.25016 0.58567 0.0
H1348 H 0.2043 0.06231 0.58496 0.0
H1349 H 0.15883 0.00584 0.58504 0.0
C1350 C 0.10754 0.06251 0.58456 0.0
C1351 C 0.08231 0.09886 0.58394 0.0
C1352 C 0.13386 0.09492 0.58519 0.0
C1353 C 0.08374 0.16796 0.58443 0.0
C1354 C 0.10973 0.20034 0.58526 0.0
C1355 C 0.1613 0.19692 0.58567 0.0
C1356 C 0.18657 0.16073 0.58524 0.0
C1357 C 0.13498 0.16444 0.58549 0.0
C1358 C 0.18517 0.0916 0.58517 0.0
C1359 C 0.15914 0.05907 0.58523 0.0
H1360 H 0.16667 0.00289 0.69267 0.0
H1361 H 0.21035 0.18919 0.69273 0.0
H1362 H 0.16543 0.24729 0.69156 0.0
H1363 H 0.11333 0.24611 0.69172 0.0
H1364 H 0.06962 0.05989 0.69232 0.0
H1365 H 0.11459 0.00166 0.69195 0.0
C1366 C 0.16634 0.05612 0.69232 0.0
C1367 C 0.19189 0.09135 0.69289 0.0
C1368 C 0.14029 0.08968 0.69181 0.0
C1369 C 0.19103 0.16053 0.69244 0.0
C1370 C 0.1653 0.19406 0.69175 0.0
C1371 C 0.11368 0.19285 0.69163 0.0
C1372 C 0.08812 0.15767 0.69214 0.0
C1373 C 0.13974 0.15926 0.69161 0.0
C1374 C 0.08897 0.08848 0.69207 0.0
C1375 C 0.11472 0.0549 0.69184 0.0
H1376 H 0.94781 0.8306 0.44213 0.0
H1377 H 0.92126 0.03309 0.44455 0.0
H1378 H 0.87163 -0.00159 0.44314 0.0
H1379 H 0.8361 0.91029 0.44273 0.0
H1380 H 0.86281 0.70783 0.44042 0.0
H1381 H 0.91239 0.74311 0.44019 0.0
C1382 C 0.93121 0.86738 0.4423 0.0
C1383 C 0.93824 0.93445 0.44361 0.0
C1384 C 0.90287 0.84704 0.44155 0.0
C1385 C 0.91645 0.98129 0.44359 0.0
C1386 C 0.8881 0.9614 0.44283 0.0
C1387 C 0.85273 0.87371 0.4421 0.0
C1388 C 0.84573 0.8063 0.44174 0.0
C1389 C 0.8811 0.89436 0.44204 0.0
C1390 C 0.86757 0.75985 0.44074 0.0
C1391 C 0.89591 0.78005 0.44065 0.0
H1392 H 0.91431 0.74368 0.33219 0.0
H1393 H 0.95423 0.93102 0.33934 0.0
H1394 H 0.90829 0.98513 0.33941 0.0
H1395 H 0.85673 0.9808 0.33621 0.0
H1396 H 0.81685 0.79373 0.32849 0.0
H1397 H 0.86243 0.73876 0.32985 0.0
C1398 C 0.91285 0.79612 0.33394 0.0
C1399 C 0.93764 0.83315 0.33568 0.0
C1400 C 0.88628 0.82747 0.33372 0.0
C1401 C 0.93545 0.90131 0.33785 0.0
C1402 C 0.90917 0.93248 0.33788 0.0
C1403 C 0.85801 0.92804 0.33487 0.0
C1404 C 0.83335 0.89187 0.33216 0.0
C1405 C 0.88444 0.89632 0.33559 0.0
C1406 C 0.83546 0.82327 0.3305 0.0
C1407 C 0.86157 0.79147 0.3313 0.0
H1408 H 0.20262 0.56378 0.08261 0.0
H1409 H 0.16611 0.75811 0.0839 0.0
H1410 H 0.1187 0.71011 0.08501 0.0
H1411 H 0.08779 0.61383 0.08486 0.0
H1412 H 0.12375 0.41904 0.08366 0.0
H1413 H 0.17148 0.46669 0.08339 0.0
C1414 C 0.18432 0.5958 0.08315 0.0
C1415 C 0.18797 0.66468 0.08307 0.0
C1416 C 0.15713 0.56781 0.08381 0.0
C1417 C 0.16398 0.70513 0.08391 0.0
C1418 C 0.13686 0.67767 0.08453 0.0
C1419 C 0.10601 0.58148 0.08456 0.0
C1420 C 0.10214 0.51275 0.08417 0.0
C1421 C 0.13321 0.60918 0.08437 0.0
C1422 C 0.12608 0.47194 0.08396 0.0
C1423 C 0.15335 0.49924 0.08376 0.0
H1424 H 0.08636 0.61294 0.19184 0.0
H1425 H 0.11876 0.81128 0.19112 0.0
H1426 H 0.16728 0.7687 0.19113 0.0
H1427 H 0.20012 0.67561 0.19269 0.0
H1428 H 0.16775 0.47726 0.19333 0.0
H1429 H 0.11927 0.51968 0.19194 0.0
C1430 C 0.10401 0.64706 0.19164 0.0
C1431 C 0.09893 0.7154 0.19164 0.0
C1432 C 0.13173 0.62221 0.19168 0.0
C1433 C 0.12206 0.75864 0.19115 0.0
C1434 C 0.14978 0.73425 0.19121 0.0
C1435 C 0.18249 0.64145 0.19249 0.0
C1436 C 0.18755 0.5732 0.19328 0.0
C1437 C 0.15481 0.6662 0.1917 0.0
C1438 C 0.16446 0.52984 0.19278 0.0
C1439 C 0.13677 0.55414 0.19202 0.0
H1440 H 0.82757 0.41457 0.94174 0.0
H1441 H 0.86146 0.21804 0.9395 0.0
H1442 H 0.90961 0.26305 0.9388 0.0
H1443 H 0.9418 0.35765 0.94025 0.0
H1444 H 0.90773 0.55407 0.94251 0.0
H1445 H 0.85961 0.50935 0.94168 0.0
C1446 C 0.84545 0.38137 0.94105 0.0
C1447 C 0.84092 0.31282 0.94084 0.0
C1448 C 0.87293 0.40758 0.94069 0.0
C1449 C 0.86434 0.27081 0.93971 0.0
C1450 C 0.89185 0.29659 0.93936 0.0
C1451 C 0.92388 0.3909 0.9405 0.0
C1452 C 0.92839 0.45928 0.9416 0.0
C1453 C 0.89636 0.36481 0.94007 0.0
C1454 C 0.9049 0.50144 0.94171 0.0
C1455 C 0.87739 0.47581 0.94128 0.0
H1456 H 0.94346 0.38971 0.83791 0.0
H1457 H 0.90616 0.19622 0.83645 0.0
H1458 H 0.85878 0.24509 0.83709 0.0
H1459 H 0.82824 0.34276 0.8367 0.0
H1460 H 0.8656 0.53618 0.8383 0.0
H1461 H 0.91291 0.48704 0.83905 0.0
C1462 C 0.92499 0.35802 0.83779 0.0
C1463 C 0.92837 0.28925 0.83698 0.0
C1464 C 0.89792 0.38647 0.83814 0.0
C1465 C 0.90419 0.24913 0.83705 0.0
C1466 C 0.87711 0.27712 0.83736 0.0
C1467 C 0.84671 0.37434 0.83726 0.0
C1468 C 0.84337 0.44325 0.83729 0.0
C1469 C 0.87376 0.34573 0.83769 0.0
C1470 C 0.86753 0.48317 0.83823 0.0
C1471 C 0.89458 0.45505 0.83862 0.0
loop_
_geom_bond_atom_site_label_1
_geom_bond_atom_site_label_2
_geom_bond_distance
_geom_bond_site_symmetry_2
_ccdc_geom_bond_type
C0 O2 1.247 . S
C0 O4 1.258 . S
C1 O8 1.247 . S
C1 O9 1.258 1_565 S
O2 C0 1.247 . S
O2 Zn3 2.028 . S
Zn3 O2 2.028 . S
Zn3 O7 2.035 . S
Zn3 O9 2.035 . S
Zn3 O10 2.028 . S
O4 C0 1.258 . S
O4 Zn5 2.035 1_545 S
Zn5 O4 2.035 1_565 S
Zn5 O6 2.028 . S
Zn5 O8 2.028 . S
Zn5 O11 2.035 . S
O6 Zn5 2.028 . S
O6 C12 1.247 . S
O7 Zn3 2.035 . S
O7 C12 1.258 1_545 S
O8 C1 1.247 . S
O8 Zn5 2.028 . S
O9 C1 1.258 1_545 S
O9 Zn3 2.035 . S
O10 Zn3 2.028 . S
O10 C13 1.247 . S
O11 Zn5 2.035 . S
O11 C13 1.258 1_565 S
C12 O6 1.247 . S
C12 O7 1.258 1_565 S
C13 O10 1.247 . S
C13 O11 1.258 1_545 S
C14 O16 1.247 . S
C14 O18 1.258 . S
C15 O22 1.247 . S
C15 O23 1.258 . S
O16 C14 1.247 . S
O16 Zn17 2.028 . S
Zn17 O16 2.028 . S
Zn17 O21 2.035 . S
Zn17 O23 2.035 . S
Zn17 O24 2.028 . S
O18 C14 1.258 . S
O18 Zn19 2.035 . S
Zn19 O18 2.035 . S
Zn19 O20 2.028 . S
Zn19 O22 2.028 . S
Zn19 O25 2.035 . S
O20 Zn19 2.028 . S
O20 C26 1.247 . S
O21 Zn17 2.035 . S
O21 C26 1.258 . S
O22 C15 1.247 . S
O22 Zn19 2.028 . S
O23 C15 1.258 . S
O23 Zn17 2.035 . S
O24 Zn17 2.028 . S
O24 C27 1.247 . S
O25 Zn19 2.035 . S
O25 C27 1.258 . S
C26 O20 1.247 . S
C26 O21 1.258 . S
C27 O24 1.247 . S
C27 O25 1.258 . S
C28 O30 1.247 . S
C28 O32 1.258 . S
C29 O36 1.247 . S
C29 O37 1.258 . S
O30 C28 1.247 . S
O30 Zn31 2.028 . S
Zn31 O30 2.028 . S
Zn31 O35 2.035 . S
Zn31 O37 2.035 . S
Zn31 O38 2.028 . S
O32 C28 1.258 . S
O32 Zn33 2.035 . S
Zn33 O32 2.035 . S
Zn33 O34 2.028 . S
Zn33 O36 2.028 . S
Zn33 O39 2.035 . S
O34 Zn33 2.028 . S
O34 C40 1.247 . S
O35 Zn31 2.035 . S
O35 C40 1.258 . S
O36 C29 1.247 . S
O36 Zn33 2.028 . S
O37 C29 1.258 . S
O37 Zn31 2.035 . S
O38 Zn31 2.028 . S
O38 C41 1.247 . S
O39 Zn33 2.035 . S
O39 C41 1.258 . S
C40 O34 1.247 . S
C40 O35 1.258 . S
C41 O38 1.247 . S
C41 O39 1.258 . S
C42 O44 1.247 . S
C42 O46 1.258 . S
C43 O50 1.247 . S
C43 O51 1.258 1_565 S
O44 C42 1.247 . S
O44 Zn45 2.028 . S
Zn45 O44 2.028 . S
Zn45 O49 2.035 . S
Zn45 O51 2.035 . S
Zn45 O52 2.028 . S
O46 C42 1.258 . S
O46 Zn47 2.035 1_545 S
Zn47 O46 2.035 1_565 S
Zn47 O48 2.028 . S
Zn47 O50 2.028 . S
Zn47 O53 2.035 . S
O48 Zn47 2.028 . S
O48 C54 1.247 . S
O49 Zn45 2.035 . S
O49 C54 1.258 1_545 S
O50 C43 1.247 . S
O50 Zn47 2.028 . S
O51 C43 1.258 1_545 S
O51 Zn45 2.035 . S
O52 Zn45 2.028 . S
O52 C55 1.247 . S
O53 Zn47 2.035 . S
O53 C55 1.258 1_565 S
C54 O48 1.247 . S
C54 O49 1.258 1_565 S
C55 O52 1.247 . S
C55 O53 1.258 1_545 S
C56 O58 1.247 1_545 S
C56 O60 1.258 . S
C57 O64 1.247 1_565 S
C57 O65 1.258 . S
O58 C56 1.247 1_565 S
O58 Zn59 2.028 . S
Zn59 O58 2.028 . S
Zn59 O63 2.035 . S
Zn59 O65 2.035 . S
Zn59 O66 2.028 . S
O60 C56 1.258 . S
O60 Zn61 2.035 . S
Zn61 O60 2.035 . S
Zn61 O62 2.028 1_545 S
Zn61 O64 2.028 . S
Zn61 O67 2.035 . S
O62 Zn61 2.028 1_565 S
O62 C68 1.247 . S
O63 Zn59 2.035 . S
O63 C68 1.258 . S
O64 C57 1.247 1_545 S
O64 Zn61 2.028 . S
O65 C57 1.258 . S
O65 Zn59 2.035 . S
O66 Zn59 2.028 . S
O66 C69 1.247 1_565 S
O67 Zn61 2.035 . S
O67 C69 1.258 . S
C68 O62 1.247 . S
C68 O63 1.258 . S
C69 O66 1.247 1_545 S
C69 O67 1.258 . S
C70 O72 1.247 . S
C70 O74 1.258 . S
C71 O78 1.247 . S
C71 O79 1.258 . S
O72 C70 1.247 . S
O72 Zn73 2.028 . S
Zn73 O72 2.028 . S
Zn73 O77 2.035 . S
Zn73 O79 2.035 . S
Zn73 O80 2.028 . S
O74 C70 1.258 . S
O74 Zn75 2.035 . S
Zn75 O74 2.035 . S
Zn75 O76 2.028 . S
Zn75 O78 2.028 . S
Zn75 O81 2.035 . S
O76 Zn75 2.028 . S
O76 C82 1.247 . S
O77 Zn73 2.035 . S
O77 C82 1.258 . S
O78 C71 1.247 . S
O78 Zn75 2.028 . S
O79 C71 1.258 . S
O79 Zn73 2.035 . S
O80 Zn73 2.028 . S
O80 C83 1.247 . S
O81 Zn75 2.035 . S
O81 C83 1.258 . S
C82 O76 1.247 . S
C82 O77 1.258 . S
C83 O80 1.247 . S
C83 O81 1.258 . S
C84 O86 1.247 . S
C84 O88 1.258 . S
C85 O92 1.247 . S
C85 O93 1.258 . S
O86 C84 1.247 . S
O86 Zn87 2.028 . S
Zn87 O86 2.028 . S
Zn87 O91 2.035 . S
Zn87 O93 2.035 . S
Zn87 O94 2.028 . S
O88 C84 1.258 . S
O88 Zn89 2.035 . S
Zn89 O88 2.035 . S
Zn89 O90 2.028 . S
Zn89 O92 2.028 . S
Zn89 O95 2.035 . S
O90 Zn89 2.028 . S
O90 C96 1.247 . S
O91 Zn87 2.035 . S
O91 C96 1.258 . S
O92 C85 1.247 . S
O92 Zn89 2.028 . S
O93 C85 1.258 . S
O93 Zn87 2.035 . S
O94 Zn87 2.028 . S
O94 C97 1.247 . S
O95 Zn89 2.035 . S
O95 C97 1.258 . S
C96 O90 1.247 . S
C96 O91 1.258 . S
C97 O94 1.247 . S
C97 O95 1.258 . S
C98 O100 1.247 . S
C98 O102 1.258 1_565 S
C99 O106 1.247 . S
C99 O107 1.258 1_545 S
O100 C98 1.247 . S
O100 Zn101 2.028 . S
Zn101 O100 2.028 . S
Zn101 O105 2.035 . S
Zn101 O107 2.035 . S
Zn101 O108 2.028 . S
O102 C98 1.258 1_545 S
O102 Zn103 2.035 . S
Zn103 O102 2.035 . S
Zn103 O104 2.028 . S
Zn103 O106 2.028 . S
Zn103 O109 2.035 1_545 S
O104 Zn103 2.028 . S
O104 C110 1.247 . S
O105 Zn101 2.035 . S
O105 C110 1.258 1_565 S
O106 C99 1.247 . S
O106 Zn103 2.028 . S
O107 C99 1.258 1_565 S
O107 Zn101 2.035 . S
O108 Zn101 2.028 . S
O108 C111 1.247 . S
O109 Zn103 2.035 1_565 S
O109 C111 1.258 . S
C110 O104 1.247 . S
C110 O105 1.258 1_545 S
C111 O108 1.247 . S
C111 O109 1.258 . S
C112 O114 1.247 . S
C112 O116 1.258 . S
C113 O120 1.247 . S
C113 O121 1.258 . S
O114 C112 1.247 . S
O114 Zn115 2.028 . S
Zn115 O114 2.028 . S
Zn115 O119 2.035 . S
Zn115 O121 2.035 . S
Zn115 O122 2.028 . S
O116 C112 1.258 . S
O116 Zn117 2.035 . S
Zn117 O116 2.035 . S
Zn117 O118 2.028 . S
Zn117 O120 2.028 . S
Zn117 O123 2.035 . S
O118 Zn117 2.028 . S
O118 C124 1.247 . S
O119 Zn115 2.035 . S
O119 C124 1.258 . S
O120 C113 1.247 . S
O120 Zn117 2.028 . S
O121 C113 1.258 . S
O121 Zn115 2.035 . S
O122 Zn115 2.028 . S
O122 C125 1.247 . S
O123 Zn117 2.035 . S
O123 C125 1.258 . S
C124 O118 1.247 . S
C124 O119 1.258 . S
C125 O122 1.247 . S
C125 O123 1.258 . S
C126 O128 1.247 . S
C126 O130 1.258 . S
C127 O134 1.247 . S
C127 O135 1.258 . S
O128 C126 1.247 . S
O128 Zn129 2.028 . S
Zn129 O128 2.028 . S
Zn129 O133 2.035 . S
Zn129 O135 2.035 . S
Zn129 O136 2.028 . S
O130 C126 1.258 . S
O130 Zn131 2.035 . S
Zn131 O130 2.035 . S
Zn131 O132 2.028 . S
Zn131 O134 2.028 . S
Zn131 O137 2.035 . S
O132 Zn131 2.028 . S
O132 C138 1.247 . S
O133 Zn129 2.035 . S
O133 C138 1.258 . S
O134 C127 1.247 . S
O134 Zn131 2.028 . S
O135 C127 1.258 . S
O135 Zn129 2.035 . S
O136 Zn129 2.028 . S
O136 C139 1.247 . S
O137 Zn131 2.035 . S
O137 C139 1.258 . S
C138 O132 1.247 . S
C138 O133 1.258 . S
C139 O136 1.247 . S
C139 O137 1.258 . S
C140 O142 1.247 . S
C140 O144 1.258 . S
C141 O148 1.247 . S
C141 O149 1.258 . S
O142 C140 1.247 . S
O142 Zn143 2.028 . S
Zn143 O142 2.028 . S
Zn143 O147 2.035 . S
Zn143 O149 2.035 . S
Zn143 O150 2.028 . S
O144 C140 1.258 . S
O144 Zn145 2.035 . S
Zn145 O144 2.035 . S
Zn145 O146 2.028 . S
Zn145 O148 2.028 . S
Zn145 O151 2.035 . S
O146 Zn145 2.028 . S
O146 C152 1.247 . S
O147 Zn143 2.035 . S
O147 C152 1.258 . S
O148 C141 1.247 . S
O148 Zn145 2.028 . S
O149 C141 1.258 . S
O149 Zn143 2.035 . S
O150 Zn143 2.028 . S
O150 C153 1.247 . S
O151 Zn145 2.035 . S
O151 C153 1.258 . S
C152 O146 1.247 . S
C152 O147 1.258 . S
C153 O150 1.247 . S
C153 O151 1.258 . S
C154 O156 1.247 . S
C154 O158 1.258 . S
C155 O162 1.247 . S
C155 O163 1.258 . S
O156 C154 1.247 . S
O156 Zn157 2.028 . S
Zn157 O156 2.028 . S
Zn157 O161 2.035 . S
Zn157 O163 2.035 . S
Zn157 O164 2.028 . S
O158 C154 1.258 . S
O158 Zn159 2.035 . S
Zn159 O158 2.035 . S
Zn159 O160 2.028 . S
Zn159 O162 2.028 . S
Zn159 O165 2.035 . S
O160 Zn159 2.028 . S
O160 C166 1.247 . S
O161 Zn157 2.035 . S
O161 C166 1.258 . S
O162 C155 1.247 . S
O162 Zn159 2.028 . S
O163 C155 1.258 . S
O163 Zn157 2.035 . S
O164 Zn157 2.028 . S
O164 C167 1.247 . S
O165 Zn159 2.035 . S
O165 C167 1.258 . S
C166 O160 1.247 . S
C166 O161 1.258 . S
C167 O164 1.247 . S
C167 O165 1.258 . S
C168 O170 1.247 . S
C168 O172 1.258 . S
C169 O176 1.247 . S
C169 O177 1.258 . S
O170 C168 1.247 . S
O170 Zn171 2.028 . S
Zn171 O170 2.028 . S
Zn171 O175 2.035 . S
Zn171 O177 2.035 . S
Zn171 O178 2.028 . S
O172 C168 1.258 . S
O172 Zn173 2.035 . S
Zn173 O172 2.035 . S
Zn173 O174 2.028 . S
Zn173 O176 2.028 . S
Zn173 O179 2.035 . S
O174 Zn173 2.028 . S
O174 C180 1.247 . S
O175 Zn171 2.035 . S
O175 C180 1.258 . S
O176 C169 1.247 . S
O176 Zn173 2.028 . S
O177 C169 1.258 . S
O177 Zn171 2.035 . S
O178 Zn171 2.028 . S
O178 C181 1.247 . S
O179 Zn173 2.035 . S
O179 C181 1.258 . S
C180 O174 1.247 . S
C180 O175 1.258 . S
C181 O178 1.247 . S
C181 O179 1.258 . S
C182 O184 1.247 . S
C182 O186 1.258 . S
C183 O190 1.247 . S
C183 O191 1.258 . S
O184 C182 1.247 . S
O184 Zn185 2.028 . S
Zn185 O184 2.028 . S
Zn185 O189 2.035 . S
Zn185 O191 2.035 . S
Zn185 O192 2.028 . S
O186 C182 1.258 . S
O186 Zn187 2.035 . S
Zn187 O186 2.035 . S
Zn187 O188 2.028 . S
Zn187 O190 2.028 . S
Zn187 O193 2.035 . S
O188 Zn187 2.028 . S
O188 C194 1.247 . S
O189 Zn185 2.035 . S
O189 C194 1.258 . S
O190 C183 1.247 . S
O190 Zn187 2.028 . S
O191 C183 1.258 . S
O191 Zn185 2.035 . S
O192 Zn185 2.028 . S
O192 C195 1.247 . S
O193 Zn187 2.035 . S
O193 C195 1.258 . S
C194 O188 1.247 . S
C194 O189 1.258 . S
C195 O192 1.247 . S
C195 O193 1.258 . S
C196 O198 1.247 . S
C196 O200 1.258 . S
C197 O204 1.247 . S
C197 O205 1.258 . S
O198 C196 1.247 . S
O198 Zn199 2.028 . S
Zn199 O198 2.028 . S
Zn199 O203 2.035 . S
Zn199 O205 2.035 . S
Zn199 O206 2.028 . S
O200 C196 1.258 . S
O200 Zn201 2.035 . S
Zn201 O200 2.035 . S
Zn201 O202 2.028 . S
Zn201 O204 2.028 . S
Zn201 O207 2.035 . S
O202 Zn201 2.028 . S
O202 C208 1.247 . S
O203 Zn199 2.035 . S
O203 C208 1.258 . S
O204 C197 1.247 . S
O204 Zn201 2.028 . S
O205 C197 1.258 . S
O205 Zn199 2.035 . S
O206 Zn199 2.028 . S
O206 C209 1.247 . S
O207 Zn201 2.035 . S
O207 C209 1.258 . S
C208 O202 1.247 . S
C208 O203 1.258 . S
C209 O206 1.247 . S
C209 O207 1.258 . S
C210 O212 1.247 . S
C210 O214 1.258 . S
C211 O218 1.247 . S
C211 O219 1.258 . S
O212 C210 1.247 . S
O212 Zn213 2.028 . S
Zn213 O212 2.028 . S
Zn213 O217 2.035 . S
Zn213 O219 2.035 . S
Zn213 O220 2.028 . S
O214 C210 1.258 . S
O214 Zn215 2.035 . S
Zn215 O214 2.035 . S
Zn215 O216 2.028 . S
Zn215 O218 2.028 . S
Zn215 O221 2.035 . S
O216 Zn215 2.028 . S
O216 C222 1.247 . S
O217 Zn213 2.035 . S
O217 C222 1.258 . S
O218 C211 1.247 . S
O218 Zn215 2.028 . S
O219 C211 1.258 . S
O219 Zn213 2.035 . S
O220 Zn213 2.028 . S
O220 C223 1.247 . S
O221 Zn215 2.035 . S
O221 C223 1.258 . S
C222 O216 1.247 . S
C222 O217 1.258 . S
C223 O220 1.247 . S
C223 O221 1.258 . S
C224 O226 1.246 1_545 S
C224 O228 1.259 1_455 S
C225 O232 1.249 1_565 S
C225 O233 1.255 1_655 S
O226 C224 1.246 1_565 S
O226 Zn227 2.028 . S
Zn227 O226 2.028 . S
Zn227 O231 2.035 1_455 S
Zn227 O233 2.035 . S
Zn227 O234 2.028 1_565 S
O228 C224 1.259 1_655 S
O228 Zn229 2.035 . S
Zn229 O228 2.035 . S
Zn229 O230 2.028 . S
Zn229 O232 2.028 . S
Zn229 O235 2.035 1_655 S
O230 Zn229 2.028 . S
O230 C236 1.247 1_545 S
O231 Zn227 2.035 1_655 S
O231 C236 1.258 . S
O232 C225 1.249 1_545 S
O232 Zn229 2.028 . S
O233 C225 1.255 1_455 S
O233 Zn227 2.035 . S
O234 Zn227 2.028 1_545 S
O234 C237 1.247 . S
O235 Zn229 2.035 1_455 S
O235 C237 1.258 . S
C236 O230 1.247 1_565 S
C236 O231 1.258 . S
C237 O234 1.247 . S
C237 O235 1.258 . S
C238 O240 1.247 . S
C238 O242 1.258 . S
C239 O246 1.247 . S
C239 O247 1.258 . S
O240 C238 1.247 . S
O240 Zn241 2.028 . S
Zn241 O240 2.028 . S
Zn241 O245 2.035 . S
Zn241 O247 2.035 . S
Zn241 O248 2.028 . S
O242 C238 1.258 . S
O242 Zn243 2.035 . S
Zn243 O242 2.035 . S
Zn243 O244 2.028 . S
Zn243 O246 2.028 . S
Zn243 O249 2.035 . S
O244 Zn243 2.028 . S
O244 C250 1.247 . S
O245 Zn241 2.035 . S
O245 C250 1.258 . S
O246 C239 1.247 . S
O246 Zn243 2.028 . S
O247 C239 1.258 . S
O247 Zn241 2.035 . S
O248 Zn241 2.028 . S
O248 C251 1.247 . S
O249 Zn243 2.035 . S
O249 C251 1.258 . S
C250 O244 1.247 . S
C250 O245 1.258 . S
C251 O248 1.247 . S
C251 O249 1.258 . S
C252 O254 1.247 . S
C252 O256 1.258 . S
C253 O260 1.247 . S
C253 O261 1.258 . S
O254 C252 1.247 . S
O254 Zn255 2.028 1_455 S
Zn255 O254 2.028 1_655 S
Zn255 O259 2.035 . S
Zn255 O261 2.035 . S
Zn255 O262 2.028 . S
O256 C252 1.258 . S
O256 Zn257 2.035 . S
Zn257 O256 2.035 . S
Zn257 O258 2.028 . S
Zn257 O260 2.028 1_455 S
Zn257 O263 2.035 . S
O258 Zn257 2.028 . S
O258 C264 1.245 1_455 S
O259 Zn255 2.035 . S
O259 C264 1.260 . S
O260 C253 1.247 . S
O260 Zn257 2.028 1_655 S
O261 C253 1.258 . S
O261 Zn255 2.035 . S
O262 Zn255 2.028 . S
O262 C265 1.245 . S
O263 Zn257 2.035 . S
O263 C265 1.260 1_455 S
C264 O258 1.245 1_655 S
C264 O259 1.260 . S
C265 O262 1.245 . S
C265 O263 1.260 1_655 S
C266 O268 1.247 . S
C266 O270 1.258 . S
C267 O274 1.247 . S
C267 O275 1.258 1_565 S
O268 C266 1.247 . S
O268 Zn269 2.028 . S
Zn269 O268 2.028 . S
Zn269 O273 2.035 . S
Zn269 O275 2.035 . S
Zn269 O276 2.028 . S
O270 C266 1.258 . S
O270 Zn271 2.035 1_545 S
Zn271 O270 2.035 1_565 S
Zn271 O272 2.028 . S
Zn271 O274 2.028 . S
Zn271 O277 2.035 . S
O272 Zn271 2.028 . S
O272 C278 1.247 . S
O273 Zn269 2.035 . S
O273 C278 1.258 1_545 S
O274 C267 1.247 . S
O274 Zn271 2.028 . S
O275 C267 1.258 1_545 S
O275 Zn269 2.035 . S
O276 Zn269 2.028 . S
O276 C279 1.247 . S
O277 Zn271 2.035 . S
O277 C279 1.258 1_565 S
C278 O272 1.247 . S
C278 O273 1.258 1_565 S
C279 O276 1.247 . S
C279 O277 1.258 1_545 S
C280 O282 1.245 . S
C280 O284 1.260 1_465 S
C281 O288 1.245 1_455 S
C281 O289 1.260 1_545 S
O282 C280 1.245 . S
O282 Zn283 2.028 . S
Zn283 O282 2.028 . S
Zn283 O287 2.035 . S
Zn283 O289 2.035 . S
Zn283 O290 2.028 1_455 S
O284 C280 1.260 1_645 S
O284 Zn285 2.035 . S
Zn285 O284 2.035 . S
Zn285 O286 2.028 1_655 S
Zn285 O288 2.028 . S
Zn285 O291 2.035 1_545 S
O286 Zn285 2.028 1_455 S
O286 C292 1.247 . S
O287 Zn283 2.035 . S
O287 C292 1.258 1_565 S
O288 C281 1.245 1_655 S
O288 Zn285 2.028 . S
O289 C281 1.260 1_565 S
O289 Zn283 2.035 . S
O290 Zn283 2.028 1_655 S
O290 C293 1.247 . S
O291 Zn285 2.035 1_565 S
O291 C293 1.258 . S
C292 O286 1.247 . S
C292 O287 1.258 1_545 S
C293 O290 1.247 . S
C293 O291 1.258 . S
C294 O296 1.247 . S
C294 O298 1.258 . S
C295 O302 1.247 . S
C295 O303 1.258 . S
O296 C294 1.247 . S
O296 Zn297 2.028 . S
Zn297 O296 2.028 . S
Zn297 O301 2.035 . S
Zn297 O303 2.035 . S
Zn297 O304 2.028 . S
O298 C294 1.258 . S
O298 Zn299 2.035 . S
Zn299 O298 2.035 . S
Zn299 O300 2.028 . S
Zn299 O302 2.028 . S
Zn299 O305 2.035 . S
O300 Zn299 2.028 . S
O300 C306 1.247 . S
O301 Zn297 2.035 . S
O301 C306 1.258 . S
O302 C295 1.247 . S
O302 Zn299 2.028 . S
O303 C295 1.258 . S
O303 Zn297 2.035 . S
O304 Zn297 2.028 . S
O304 C307 1.247 . S
O305 Zn299 2.035 . S
O305 C307 1.258 . S
C306 O300 1.247 . S
C306 O301 1.258 . S
C307 O304 1.247 . S
C307 O305 1.258 . S
C308 O310 1.247 . S
C308 O312 1.258 . S
C309 O316 1.247 . S
C309 O317 1.258 . S
O310 C308 1.247 . S
O310 Zn311 2.028 . S
Zn311 O310 2.028 . S
Zn311 O315 2.035 . S
Zn311 O317 2.035 1_655 S
Zn311 O318 2.028 . S
O312 C308 1.258 . S
O312 Zn313 2.035 1_655 S
Zn313 O312 2.035 1_455 S
Zn313 O314 2.028 . S
Zn313 O316 2.028 . S
Zn313 O319 2.035 . S
O314 Zn313 2.028 . S
O314 C320 1.249 . S
O315 Zn311 2.035 . S
O315 C320 1.255 1_655 S
O316 C309 1.247 . S
O316 Zn313 2.028 . S
O317 C309 1.258 . S
O317 Zn311 2.035 1_455 S
O318 Zn311 2.028 . S
O318 C321 1.246 . S
O319 Zn313 2.035 . S
O319 C321 1.259 1_455 S
C320 O314 1.249 . S
C320 O315 1.255 1_455 S
C321 O318 1.246 . S
C321 O319 1.259 1_655 S
C322 O324 1.247 . S
C322 O326 1.258 1_545 S
C323 O330 1.247 . S
C323 O331 1.258 . S
O324 C322 1.247 . S
O324 Zn325 2.028 . S
Zn325 O324 2.028 . S
Zn325 O329 2.035 . S
Zn325 O331 2.035 1_545 S
Zn325 O332 2.028 . S
O326 C322 1.258 1_565 S
O326 Zn327 2.035 . S
Zn327 O326 2.035 . S
Zn327 O328 2.028 . S
Zn327 O330 2.028 . S
Zn327 O333 2.035 . S
O328 Zn327 2.028 . S
O328 C334 1.247 . S
O329 Zn325 2.035 . S
O329 C334 1.258 1_545 S
O330 C323 1.247 . S
O330 Zn327 2.028 . S
O331 C323 1.258 . S
O331 Zn325 2.035 1_565 S
O332 Zn325 2.028 . S
O332 C335 1.247 . S
O333 Zn327 2.035 . S
O333 C335 1.258 1_565 S
C334 O328 1.247 . S
C334 O329 1.258 1_565 S
C335 O332 1.247 . S
C335 O333 1.258 1_545 S
C336 O338 1.247 . S
C336 O340 1.258 . S
C337 O344 1.247 . S
C337 O345 1.258 . S
O338 C336 1.247 . S
O338 Zn339 2.028 . S
Zn339 O338 2.028 . S
Zn339 O343 2.035 . S
Zn339 O345 2.035 1_655 S
Zn339 O346 2.028 . S
O340 C336 1.258 . S
O340 Zn341 2.035 1_655 S
Zn341 O340 2.035 1_455 S
Zn341 O342 2.028 . S
Zn341 O344 2.028 . S
Zn341 O347 2.035 . S
O342 Zn341 2.028 . S
O342 C348 1.246 . S
O343 Zn339 2.035 . S
O343 C348 1.259 1_655 S
O344 C337 1.247 . S
O344 Zn341 2.028 . S
O345 C337 1.258 . S
O345 Zn339 2.035 1_455 S
O346 Zn339 2.028 . S
O346 C349 1.249 . S
O347 Zn341 2.035 . S
O347 C349 1.255 1_455 S
C348 O342 1.246 . S
C348 O343 1.259 1_455 S
C349 O346 1.249 . S
C349 O347 1.255 1_655 S
C350 O352 1.247 . S
C350 O354 1.258 . S
C351 O358 1.247 . S
C351 O359 1.258 . S
O352 C350 1.247 . S
O352 Zn353 2.028 . S
Zn353 O352 2.028 . S
Zn353 O357 2.035 . S
Zn353 O359 2.035 . S
Zn353 O360 2.028 . S
O354 C350 1.258 . S
O354 Zn355 2.035 . S
Zn355 O354 2.035 . S
Zn355 O356 2.028 . S
Zn355 O358 2.028 . S
Zn355 O361 2.035 . S
O356 Zn355 2.028 . S
O356 C362 1.247 . S
O357 Zn353 2.035 . S
O357 C362 1.258 . S
O358 C351 1.247 . S
O358 Zn355 2.028 . S
O359 C351 1.258 . S
O359 Zn353 2.035 . S
O360 Zn353 2.028 . S
O360 C363 1.247 . S
O361 Zn355 2.035 . S
O361 C363 1.258 . S
C362 O356 1.247 . S
C362 O357 1.258 . S
C363 O360 1.247 . S
C363 O361 1.258 . S
C364 O366 1.247 . S
C364 O368 1.258 . S
C365 O372 1.247 . S
C365 O373 1.258 . S
O366 C364 1.247 . S
O366 Zn367 2.028 1_455 S
Zn367 O366 2.028 1_655 S
Zn367 O371 2.035 . S
Zn367 O373 2.035 . S
Zn367 O374 2.028 . S
O368 C364 1.258 . S
O368 Zn369 2.035 . S
Zn369 O368 2.035 . S
Zn369 O370 2.028 . S
Zn369 O372 2.028 1_455 S
Zn369 O375 2.035 . S
O370 Zn369 2.028 . S
O370 C376 1.245 1_455 S
O371 Zn367 2.035 . S
O371 C376 1.259 . S
O372 C365 1.247 . S
O372 Zn369 2.028 1_655 S
O373 C365 1.258 . S
O373 Zn367 2.035 . S
O374 Zn367 2.028 . S
O374 C377 1.245 . S
O375 Zn369 2.035 . S
O375 C377 1.259 1_455 S
C376 O370 1.245 1_655 S
C376 O371 1.259 . S
C377 O374 1.245 . S
C377 O375 1.259 1_655 S
C378 O380 1.247 . S
C378 O382 1.258 . S
C379 O386 1.247 . S
C379 O387 1.258 . S
O380 C378 1.247 . S
O380 Zn381 2.028 . S
Zn381 O380 2.028 . S
Zn381 O385 2.035 . S
Zn381 O387 2.035 . S
Zn381 O388 2.028 . S
O382 C378 1.258 . S
O382 Zn383 2.035 . S
Zn383 O382 2.035 . S
Zn383 O384 2.028 . S
Zn383 O386 2.028 . S
Zn383 O389 2.035 . S
O384 Zn383 2.028 . S
O384 C390 1.247 . S
O385 Zn381 2.035 . S
O385 C390 1.258 . S
O386 C379 1.247 . S
O386 Zn383 2.028 . S
O387 C379 1.258 . S
O387 Zn381 2.035 . S
O388 Zn381 2.028 . S
O388 C391 1.247 . S
O389 Zn383 2.035 . S
O389 C391 1.258 . S
C390 O384 1.247 . S
C390 O385 1.258 . S
C391 O388 1.247 . S
C391 O389 1.258 . S
C392 O394 1.245 . S
C392 O396 1.259 1_455 S
C393 O400 1.245 1_455 S
C393 O401 1.259 . S
O394 C392 1.245 . S
O394 Zn395 2.028 . S
Zn395 O394 2.028 . S
Zn395 O399 2.035 . S
Zn395 O401 2.035 . S
Zn395 O402 2.028 1_455 S
O396 C392 1.259 1_655 S
O396 Zn397 2.035 . S
Zn397 O396 2.035 . S
Zn397 O398 2.028 1_655 S
Zn397 O400 2.028 . S
Zn397 O403 2.035 . S
O398 Zn397 2.028 1_455 S
O398 C404 1.247 . S
O399 Zn395 2.035 . S
O399 C404 1.258 . S
O400 C393 1.245 1_655 S
O400 Zn397 2.028 . S
O401 C393 1.259 . S
O401 Zn395 2.035 . S
O402 Zn395 2.028 1_655 S
O402 C405 1.247 . S
O403 Zn397 2.035 . S
O403 C405 1.258 . S
C404 O398 1.247 . S
C404 O399 1.258 . S
C405 O402 1.247 . S
C405 O403 1.258 . S
C406 O408 1.247 . S
C406 O410 1.258 . S
C407 O414 1.247 . S
C407 O415 1.258 . S
O408 C406 1.247 . S
O408 Zn409 2.028 . S
Zn409 O408 2.028 . S
Zn409 O413 2.035 . S
Zn409 O415 2.035 . S
Zn409 O416 2.028 . S
O410 C406 1.258 . S
O410 Zn411 2.035 . S
Zn411 O410 2.035 . S
Zn411 O412 2.028 . S
Zn411 O414 2.028 . S
Zn411 O417 2.035 . S
O412 Zn411 2.028 . S
O412 C418 1.247 . S
O413 Zn409 2.035 . S
O413 C418 1.258 . S
O414 C407 1.247 . S
O414 Zn411 2.028 . S
O415 C407 1.258 . S
O415 Zn409 2.035 . S
O416 Zn409 2.028 . S
O416 C419 1.247 . S
O417 Zn411 2.035 . S
O417 C419 1.258 . S
C418 O412 1.247 . S
C418 O413 1.258 . S
C419 O416 1.247 . S
C419 O417 1.258 . S
C420 O422 1.247 . S
C420 O424 1.258 . S
C421 O428 1.247 . S
C421 O429 1.258 . S
O422 C420 1.247 . S
O422 Zn423 2.028 1_455 S
Zn423 O422 2.028 1_655 S
Zn423 O427 2.035 . S
Zn423 O429 2.035 . S
Zn423 O430 2.028 . S
O424 C420 1.258 . S
O424 Zn425 2.035 . S
Zn425 O424 2.035 . S
Zn425 O426 2.028 . S
Zn425 O428 2.028 1_455 S
Zn425 O431 2.035 . S
O426 Zn425 2.028 . S
O426 C432 1.245 . S
O427 Zn423 2.035 . S
O427 C432 1.259 1_655 S
O428 C421 1.247 . S
O428 Zn425 2.028 1_655 S
O429 C421 1.258 . S
O429 Zn423 2.035 . S
O430 Zn423 2.028 . S
O430 C433 1.245 1_655 S
O431 Zn425 2.035 . S
O431 C433 1.259 . S
C432 O426 1.245 . S
C432 O427 1.259 1_455 S
C433 O430 1.245 1_455 S
C433 O431 1.259 . S
C434 O436 1.247 . S
C434 O438 1.258 . S
C435 O442 1.247 . S
C435 O443 1.258 . S
O436 C434 1.247 . S
O436 Zn437 2.028 . S
Zn437 O436 2.028 . S
Zn437 O441 2.035 . S
Zn437 O443 2.035 . S
Zn437 O444 2.028 . S
O438 C434 1.258 . S
O438 Zn439 2.035 . S
Zn439 O438 2.035 . S
Zn439 O440 2.028 . S
Zn439 O442 2.028 . S
Zn439 O445 2.035 . S
O440 Zn439 2.028 . S
O440 C446 1.247 . S
O441 Zn437 2.035 . S
O441 C446 1.258 . S
O442 C435 1.247 . S
O442 Zn439 2.028 . S
O443 C435 1.258 . S
O443 Zn437 2.035 . S
O444 Zn437 2.028 . S
O444 C447 1.247 . S
O445 Zn439 2.035 . S
O445 C447 1.258 . S
C446 O440 1.247 . S
C446 O441 1.258 . S
C447 O444 1.247 . S
C447 O445 1.258 . S
H448 C454 0.930 . S
H449 C457 0.930 . S
H450 C458 0.930 . S
H451 C459 0.930 . S
H452 C462 0.930 . S
H453 C463 0.930 . S
C454 H448 0.930 . S
C454 C455 1.355 . S
C454 C456 1.415 . S
C455 C454 1.355 . S
C455 C457 1.419 . S
C456 C454 1.415 . S
C456 C461 1.425 . S
C456 C463 1.409 . S
C457 H449 0.930 . S
C457 C455 1.419 . S
C457 C458 1.362 . S
C458 H450 0.930 . S
C458 C457 1.362 . S
C458 C461 1.409 . S
C459 H451 0.930 . S
C459 C460 1.355 . S
C459 C461 1.415 . S
C460 C459 1.355 . S
C460 C462 1.419 . S
C461 C456 1.425 . S
C461 C458 1.409 . S
C461 C459 1.415 . S
C462 H452 0.930 . S
C462 C460 1.419 . S
C462 C463 1.362 . S
C463 H453 0.930 . S
C463 C456 1.409 . S
C463 C462 1.362 . S
H464 C470 0.930 . S
H465 C473 0.930 . S
H466 C474 0.930 . S
H467 C475 0.930 . S
H468 C478 0.930 . S
H469 C479 0.930 . S
C470 H464 0.930 . S
C470 C471 1.355 . S
C470 C472 1.415 . S
C471 C470 1.355 . S
C471 C473 1.419 . S
C472 C470 1.415 . S
C472 C477 1.425 . S
C472 C479 1.409 . S
C473 H465 0.930 . S
C473 C471 1.419 . S
C473 C474 1.362 . S
C474 H466 0.930 . S
C474 C473 1.362 . S
C474 C477 1.409 . S
C475 H467 0.930 . S
C475 C476 1.355 . S
C475 C477 1.415 . S
C476 C475 1.355 . S
C476 C478 1.419 . S
C477 C472 1.425 . S
C477 C474 1.409 . S
C477 C475 1.415 . S
C478 H468 0.930 . S
C478 C476 1.419 . S
C478 C479 1.362 . S
C479 H469 0.930 . S
C479 C472 1.409 . S
C479 C478 1.362 . S
H480 C486 0.930 . S
H481 C489 0.930 . S
H482 C490 0.930 . S
H483 C491 0.930 . S
H484 C494 0.930 . S
H485 C495 0.930 . S
C486 H480 0.930 . S
C486 C487 1.355 . S
C486 C488 1.415 . S
C487 C486 1.355 . S
C487 C489 1.419 . S
C488 C486 1.415 . S
C488 C493 1.425 . S
C488 C495 1.409 . S
C489 H481 0.930 . S
C489 C487 1.419 . S
C489 C490 1.362 . S
C490 H482 0.930 . S
C490 C489 1.362 . S
C490 C493 1.409 . S
C491 H483 0.930 . S
C491 C492 1.355 . S
C491 C493 1.415 . S
C492 C491 1.355 . S
C492 C494 1.419 . S
C493 C488 1.425 . S
C493 C490 1.409 . S
C493 C491 1.415 . S
C494 H484 0.930 . S
C494 C492 1.419 . S
C494 C495 1.362 . S
C495 H485 0.930 . S
C495 C488 1.409 . S
C495 C494 1.362 . S
H496 C502 0.930 . S
H497 C505 0.930 1_545 S
H498 C506 0.930 . S
H499 C507 0.930 . S
H500 C510 0.930 . S
H501 C511 0.930 . S
C502 H496 0.930 . S
C502 C503 1.355 . S
C502 C504 1.415 . S
C503 C502 1.355 . S
C503 C505 1.419 . S
C504 C502 1.415 . S
C504 C509 1.425 . S
C504 C511 1.409 . S
C505 H497 0.930 1_565 S
C505 C503 1.419 . S
C505 C506 1.362 . S
C506 H498 0.930 . S
C506 C505 1.362 . S
C506 C509 1.409 . S
C507 H499 0.930 . S
C507 C508 1.355 . S
C507 C509 1.415 . S
C508 C507 1.355 . S
C508 C510 1.419 . S
C509 C504 1.425 . S
C509 C506 1.409 . S
C509 C507 1.415 . S
C510 H500 0.930 . S
C510 C508 1.419 . S
C510 C511 1.362 . S
C511 H501 0.930 . S
C511 C504 1.409 . S
C511 C510 1.362 . S
H512 C518 0.930 . S
H513 C521 0.930 . S
H514 C522 0.930 . S
H515 C523 0.930 . S
H516 C526 0.930 . S
H517 C527 0.930 . S
C518 H512 0.930 . S
C518 C519 1.355 . S
C518 C520 1.415 . S
C519 C518 1.355 . S
C519 C521 1.419 . S
C520 C518 1.415 . S
C520 C525 1.425 . S
C520 C527 1.409 . S
C521 H513 0.930 . S
C521 C519 1.419 . S
C521 C522 1.362 . S
C522 H514 0.930 . S
C522 C521 1.362 . S
C522 C525 1.409 . S
C523 H515 0.930 . S
C523 C524 1.355 . S
C523 C525 1.415 . S
C524 C523 1.355 . S
C524 C526 1.419 . S
C525 C520 1.425 . S
C525 C522 1.409 . S
C525 C523 1.415 . S
C526 H516 0.930 . S
C526 C524 1.419 . S
C526 C527 1.362 . S
C527 H517 0.930 . S
C527 C520 1.409 . S
C527 C526 1.362 . S
H528 C534 0.930 . S
H529 C537 0.930 . S
H530 C538 0.930 . S
H531 C539 0.930 . S
H532 C542 0.930 . S
H533 C543 0.930 . S
C534 H528 0.930 . S
C534 C535 1.355 . S
C534 C536 1.415 . S
C535 C534 1.355 . S
C535 C537 1.419 . S
C536 C534 1.415 . S
C536 C541 1.425 . S
C536 C543 1.409 . S
C537 H529 0.930 . S
C537 C535 1.419 . S
C537 C538 1.362 . S
C538 H530 0.930 . S
C538 C537 1.362 . S
C538 C541 1.409 . S
C539 H531 0.930 . S
C539 C540 1.355 . S
C539 C541 1.415 . S
C540 C539 1.355 . S
C540 C542 1.419 . S
C541 C536 1.425 . S
C541 C538 1.409 . S
C541 C539 1.415 . S
C542 H532 0.930 . S
C542 C540 1.419 . S
C542 C543 1.362 . S
C543 H533 0.930 . S
C543 C536 1.409 . S
C543 C542 1.362 . S
H544 C550 0.930 . S
H545 C553 0.930 . S
H546 C554 0.930 . S
H547 C555 0.930 . S
H548 C558 0.930 . S
H549 C559 0.930 . S
C550 H544 0.930 . S
C550 C551 1.355 . S
C550 C552 1.415 . S
C551 C550 1.355 . S
C551 C553 1.419 . S
C552 C550 1.415 . S
C552 C557 1.425 . S
C552 C559 1.409 . S
C553 H545 0.930 . S
C553 C551 1.419 . S
C553 C554 1.362 . S
C554 H546 0.930 . S
C554 C553 1.362 . S
C554 C557 1.409 . S
C555 H547 0.930 . S
C555 C556 1.355 . S
C555 C557 1.415 . S
C556 C555 1.355 . S
C556 C558 1.419 . S
C557 C552 1.425 . S
C557 C554 1.409 . S
C557 C555 1.415 . S
C558 H548 0.930 . S
C558 C556 1.419 . S
C558 C559 1.362 . S
C559 H549 0.930 . S
C559 C552 1.409 . S
C559 C558 1.362 . S
H560 C566 0.930 . S
H561 C569 0.930 . S
H562 C570 0.930 . S
H563 C571 0.930 . S
H564 C574 0.930 . S
H565 C575 0.930 . S
C566 H560 0.930 . S
C566 C567 1.355 . S
C566 C568 1.415 . S
C567 C566 1.355 . S
C567 C569 1.419 . S
C568 C566 1.415 . S
C568 C573 1.425 . S
C568 C575 1.409 . S
C569 H561 0.930 . S
C569 C567 1.419 . S
C569 C570 1.362 . S
C570 H562 0.930 . S
C570 C569 1.362 . S
C570 C573 1.409 . S
C571 H563 0.930 . S
C571 C572 1.355 . S
C571 C573 1.415 . S
C572 C571 1.355 . S
C572 C574 1.419 . S
C573 C568 1.425 . S
C573 C570 1.409 . S
C573 C571 1.415 . S
C574 H564 0.930 . S
C574 C572 1.419 . S
C574 C575 1.362 . S
C575 H565 0.930 . S
C575 C568 1.409 . S
C575 C574 1.362 . S
H576 C582 0.930 . S
H577 C585 0.930 . S
H578 C586 0.930 . S
H579 C587 0.930 . S
H580 C590 0.930 . S
H581 C591 0.930 . S
C582 H576 0.930 . S
C582 C583 1.327 1_455 S
C582 C584 1.415 . S
C583 C582 1.327 1_655 S
C583 C585 1.454 . S
C584 C582 1.415 . S
C584 C589 1.425 1_455 S
C584 C591 1.409 . S
C585 H577 0.930 . S
C585 C583 1.454 . S
C585 C586 1.362 . S
C586 H578 0.930 . S
C586 C585 1.362 . S
C586 C589 1.409 . S
C587 H579 0.930 . S
C587 C588 1.355 1_655 S
C587 C589 1.415 . S
C588 C587 1.355 1_455 S
C588 C590 1.419 . S
C589 C584 1.425 1_655 S
C589 C586 1.409 . S
C589 C587 1.415 . S
C590 H580 0.930 . S
C590 C588 1.419 . S
C590 C591 1.362 . S
C591 H581 0.930 . S
C591 C584 1.409 . S
C591 C590 1.362 . S
H592 C598 0.930 . S
H593 C601 0.930 . S
H594 C602 0.930 . S
H595 C603 0.930 . S
H596 C606 0.930 . S
H597 C607 0.930 . S
C598 H592 0.930 . S
C598 C599 1.355 . S
C598 C600 1.415 . S
C599 C598 1.355 . S
C599 C601 1.419 . S
C600 C598 1.415 . S
C600 C605 1.425 . S
C600 C607 1.409 . S
C601 H593 0.930 . S
C601 C599 1.419 . S
C601 C602 1.362 . S
C602 H594 0.930 . S
C602 C601 1.362 . S
C602 C605 1.409 . S
C603 H595 0.930 . S
C603 C604 1.355 . S
C603 C605 1.415 . S
C604 C603 1.355 . S
C604 C606 1.419 . S
C605 C600 1.425 . S
C605 C602 1.409 . S
C605 C603 1.415 . S
C606 H596 0.930 . S
C606 C604 1.419 . S
C606 C607 1.362 . S
C607 H597 0.930 . S
C607 C600 1.409 . S
C607 C606 1.362 . S
H608 C614 0.930 . S
H609 C617 0.930 . S
H610 C618 0.930 . S
H611 C619 0.930 . S
H612 C622 0.930 . S
H613 C623 0.930 . S
C614 H608 0.930 . S
C614 C615 1.355 1_455 S
C614 C616 1.415 . S
C615 C614 1.355 1_655 S
C615 C617 1.419 . S
C616 C614 1.415 . S
C616 C621 1.425 1_455 S
C616 C623 1.409 . S
C617 H609 0.930 . S
C617 C615 1.419 . S
C617 C618 1.362 . S
C618 H610 0.930 . S
C618 C617 1.362 . S
C618 C621 1.409 . S
C619 H611 0.930 . S
C619 C620 1.355 1_655 S
C619 C621 1.415 . S
C620 C619 1.355 1_455 S
C620 C622 1.419 . S
C621 C616 1.425 1_655 S
C621 C618 1.409 . S
C621 C619 1.415 . S
C622 H612 0.930 . S
C622 C620 1.419 . S
C622 C623 1.362 . S
C623 H613 0.930 . S
C623 C616 1.409 . S
C623 C622 1.362 . S
H624 C630 0.930 . S
H625 C633 0.930 . S
H626 C634 0.930 . S
H627 C635 0.930 . S
H628 C638 0.930 . S
H629 C639 0.930 . S
C630 H624 0.930 . S
C630 C631 1.355 . S
C630 C632 1.415 . S
C631 C630 1.355 . S
C631 C633 1.419 . S
C632 C630 1.415 . S
C632 C637 1.425 . S
C632 C639 1.409 . S
C633 H625 0.930 . S
C633 C631 1.419 . S
C633 C634 1.362 . S
C634 H626 0.930 . S
C634 C633 1.362 . S
C634 C637 1.409 . S
C635 H627 0.930 . S
C635 C636 1.355 . S
C635 C637 1.415 . S
C636 C635 1.355 . S
C636 C638 1.419 . S
C637 C632 1.425 . S
C637 C634 1.409 . S
C637 C635 1.415 . S
C638 H628 0.930 . S
C638 C636 1.419 . S
C638 C639 1.362 . S
C639 H629 0.930 . S
C639 C632 1.409 . S
C639 C638 1.362 . S
H640 C646 0.930 . S
H641 C649 0.930 . S
H642 C650 0.930 . S
H643 C651 0.930 . S
H644 C654 0.930 . S
H645 C655 0.930 . S
C646 H640 0.930 . S
C646 C647 1.355 1_655 S
C646 C648 1.415 . S
C647 C646 1.355 1_455 S
C647 C649 1.419 . S
C648 C646 1.415 . S
C648 C653 1.425 1_655 S
C648 C655 1.409 . S
C649 H641 0.930 . S
C649 C647 1.419 . S
C649 C650 1.362 . S
C650 H642 0.930 . S
C650 C649 1.362 . S
C650 C653 1.409 . S
C651 H643 0.930 . S
C651 C652 1.354 1_455 S
C651 C653 1.415 . S
C652 C651 1.354 1_655 S
C652 C654 1.420 . S
C653 C648 1.425 1_455 S
C653 C650 1.409 . S
C653 C651 1.415 . S
C654 H644 0.930 . S
C654 C652 1.420 . S
C654 C655 1.362 . S
C655 H645 0.930 . S
C655 C648 1.409 . S
C655 C654 1.362 . S
H656 C662 0.930 . S
H657 C665 0.930 . S
H658 C666 0.930 . S
H659 C667 0.930 . S
H660 C670 0.930 . S
H661 C671 0.930 . S
C662 H656 0.930 . S
C662 C663 1.355 . S
C662 C664 1.415 . S
C663 C662 1.355 . S
C663 C665 1.419 . S
C664 C662 1.415 . S
C664 C669 1.425 . S
C664 C671 1.409 . S
C665 H657 0.930 . S
C665 C663 1.419 . S
C665 C666 1.362 . S
C666 H658 0.930 . S
C666 C665 1.362 . S
C666 C669 1.409 . S
C667 H659 0.930 . S
C667 C668 1.355 . S
C667 C669 1.415 . S
C668 C667 1.355 . S
C668 C670 1.419 . S
C669 C664 1.425 . S
C669 C666 1.409 . S
C669 C667 1.415 . S
C670 H660 0.930 . S
C670 C668 1.419 . S
C670 C671 1.362 . S
C671 H661 0.930 . S
C671 C664 1.409 . S
C671 C670 1.362 . S
H672 C678 0.930 . S
H673 C681 0.930 . S
H674 C682 0.930 . S
H675 C683 0.930 . S
H676 C686 0.930 . S
H677 C687 0.930 . S
C678 H672 0.930 . S
C678 C679 1.355 1_455 S
C678 C680 1.415 . S
C679 C678 1.355 1_655 S
C679 C681 1.419 . S
C680 C678 1.415 . S
C680 C685 1.425 1_455 S
C680 C687 1.409 . S
C681 H673 0.930 . S
C681 C679 1.419 . S
C681 C682 1.362 . S
C682 H674 0.930 . S
C682 C681 1.362 . S
C682 C685 1.409 . S
C683 H675 0.930 . S
C683 C684 1.365 . S
C683 C685 1.415 . S
C684 C683 1.365 . S
C684 C686 1.407 1_655 S
C685 C680 1.425 1_655 S
C685 C682 1.409 . S
C685 C683 1.415 . S
C686 H676 0.930 . S
C686 C684 1.407 1_455 S
C686 C687 1.362 . S
C687 H677 0.930 . S
C687 C680 1.409 . S
C687 C686 1.362 . S
H688 C694 0.930 . S
H689 C697 0.930 . S
H690 C698 0.930 . S
H691 C699 0.930 . S
H692 C702 0.930 . S
H693 C703 0.930 . S
C694 H688 0.930 . S
C694 C695 1.355 . S
C694 C696 1.415 . S
C695 C694 1.355 . S
C695 C697 1.419 . S
C696 C694 1.415 . S
C696 C701 1.425 . S
C696 C703 1.409 . S
C697 H689 0.930 . S
C697 C695 1.419 . S
C697 C698 1.362 . S
C698 H690 0.930 . S
C698 C697 1.362 . S
C698 C701 1.409 . S
C699 H691 0.930 . S
C699 C700 1.355 . S
C699 C701 1.415 . S
C700 C699 1.355 . S
C700 C702 1.419 . S
C701 C696 1.425 . S
C701 C698 1.409 . S
C701 C699 1.415 . S
C702 H692 0.930 . S
C702 C700 1.419 . S
C702 C703 1.362 . S
C703 H693 0.930 . S
C703 C696 1.409 . S
C703 C702 1.362 . S
H704 C710 0.930 . S
H705 C713 0.930 . S
H706 C714 0.930 . S
H707 C715 0.930 . S
H708 C718 0.930 . S
H709 C719 0.930 . S
C710 H704 0.930 . S
C710 C711 1.355 . S
C710 C712 1.415 . S
C711 C710 1.355 . S
C711 C713 1.419 . S
C712 C710 1.415 . S
C712 C717 1.425 . S
C712 C719 1.409 . S
C713 H705 0.930 . S
C713 C711 1.419 . S
C713 C714 1.362 . S
C714 H706 0.930 . S
C714 C713 1.362 . S
C714 C717 1.409 . S
C715 H707 0.930 . S
C715 C716 1.355 . S
C715 C717 1.415 . S
C716 C715 1.355 . S
C716 C718 1.419 . S
C717 C712 1.425 . S
C717 C714 1.409 . S
C717 C715 1.415 . S
C718 H708 0.930 . S
C718 C716 1.419 . S
C718 C719 1.362 . S
C719 H709 0.930 . S
C719 C712 1.409 . S
C719 C718 1.362 . S
H720 C726 0.930 . S
H721 C729 0.930 . S
H722 C730 0.930 . S
H723 C731 0.930 . S
H724 C734 0.930 . S
H725 C735 0.930 . S
C726 H720 0.930 . S
C726 C727 1.355 . S
C726 C728 1.415 . S
C727 C726 1.355 . S
C727 C729 1.419 . S
C728 C726 1.415 . S
C728 C733 1.425 . S
C728 C735 1.409 . S
C729 H721 0.930 . S
C729 C727 1.419 . S
C729 C730 1.362 . S
C730 H722 0.930 . S
C730 C729 1.362 . S
C730 C733 1.409 . S
C731 H723 0.930 . S
C731 C732 1.355 . S
C731 C733 1.415 . S
C732 C731 1.355 . S
C732 C734 1.419 . S
C733 C728 1.425 . S
C733 C730 1.409 . S
C733 C731 1.415 . S
C734 H724 0.930 . S
C734 C732 1.419 . S
C734 C735 1.362 . S
C735 H725 0.930 . S
C735 C728 1.409 . S
C735 C734 1.362 . S
H736 C742 0.930 . S
H737 C745 0.930 . S
H738 C746 0.930 . S
H739 C747 0.930 . S
H740 C750 0.930 . S
H741 C751 0.930 . S
C742 H736 0.930 . S
C742 C743 1.355 . S
C742 C744 1.415 . S
C743 C742 1.355 . S
C743 C745 1.419 . S
C744 C742 1.415 . S
C744 C749 1.425 . S
C744 C751 1.409 . S
C745 H737 0.930 . S
C745 C743 1.419 . S
C745 C746 1.362 . S
C746 H738 0.930 . S
C746 C745 1.362 . S
C746 C749 1.409 . S
C747 H739 0.930 . S
C747 C748 1.355 . S
C747 C749 1.415 . S
C748 C747 1.355 . S
C748 C750 1.419 . S
C749 C744 1.425 . S
C749 C746 1.409 . S
C749 C747 1.415 . S
C750 H740 0.930 . S
C750 C748 1.419 . S
C750 C751 1.362 . S
C751 H741 0.930 . S
C751 C744 1.409 . S
C751 C750 1.362 . S
H752 C758 0.930 . S
H753 C761 0.930 1_545 S
H754 C762 0.930 . S
H755 C763 0.930 . S
H756 C766 0.930 . S
H757 C767 0.930 . S
C758 H752 0.930 . S
C758 C759 1.355 . S
C758 C760 1.415 . S
C759 C758 1.355 . S
C759 C761 1.419 . S
C760 C758 1.415 . S
C760 C765 1.425 . S
C760 C767 1.409 . S
C761 H753 0.930 1_565 S
C761 C759 1.419 . S
C761 C762 1.362 . S
C762 H754 0.930 . S
C762 C761 1.362 . S
C762 C765 1.409 . S
C763 H755 0.930 . S
C763 C764 1.355 . S
C763 C765 1.415 . S
C764 C763 1.355 . S
C764 C766 1.419 . S
C765 C760 1.425 . S
C765 C762 1.409 . S
C765 C763 1.415 . S
C766 H756 0.930 . S
C766 C764 1.419 . S
C766 C767 1.362 . S
C767 H757 0.930 . S
C767 C760 1.409 . S
C767 C766 1.362 . S
H768 C774 0.930 . S
H769 C777 0.930 . S
H770 C778 0.930 . S
H771 C779 0.930 . S
H772 C782 0.930 . S
H773 C783 0.930 . S
C774 H768 0.930 . S
C774 C775 1.355 . S
C774 C776 1.415 . S
C775 C774 1.355 . S
C775 C777 1.419 . S
C776 C774 1.415 . S
C776 C781 1.425 . S
C776 C783 1.409 . S
C777 H769 0.930 . S
C777 C775 1.419 . S
C777 C778 1.362 . S
C778 H770 0.930 . S
C778 C777 1.362 . S
C778 C781 1.409 . S
C779 H771 0.930 . S
C779 C780 1.355 . S
C779 C781 1.415 . S
C780 C779 1.355 . S
C780 C782 1.419 . S
C781 C776 1.425 . S
C781 C778 1.409 . S
C781 C779 1.415 . S
C782 H772 0.930 . S
C782 C780 1.419 . S
C782 C783 1.362 . S
C783 H773 0.930 . S
C783 C776 1.409 . S
C783 C782 1.362 . S
H784 C790 0.930 . S
H785 C793 0.930 . S
H786 C794 0.930 . S
H787 C795 0.930 . S
H788 C798 0.930 . S
H789 C799 0.930 . S
C790 H784 0.930 . S
C790 C791 1.355 . S
C790 C792 1.415 . S
C791 C790 1.355 . S
C791 C793 1.419 . S
C792 C790 1.415 . S
C792 C797 1.425 . S
C792 C799 1.409 . S
C793 H785 0.930 . S
C793 C791 1.419 . S
C793 C794 1.362 . S
C794 H786 0.930 . S
C794 C793 1.362 . S
C794 C797 1.409 . S
C795 H787 0.930 . S
C795 C796 1.355 . S
C795 C797 1.415 . S
C796 C795 1.355 . S
C796 C798 1.419 . S
C797 C792 1.425 . S
C797 C794 1.409 . S
C797 C795 1.415 . S
C798 H788 0.930 . S
C798 C796 1.419 . S
C798 C799 1.362 . S
C799 H789 0.930 . S
C799 C792 1.409 . S
C799 C798 1.362 . S
H800 C806 0.930 . S
H801 C809 0.930 . S
H802 C810 0.930 . S
H803 C811 0.930 . S
H804 C814 0.930 . S
H805 C815 0.930 . S
C806 H800 0.930 . S
C806 C807 1.355 . S
C806 C808 1.415 . S
C807 C806 1.355 . S
C807 C809 1.419 . S
C808 C806 1.415 . S
C808 C813 1.425 . S
C808 C815 1.409 . S
C809 H801 0.930 . S
C809 C807 1.419 . S
C809 C810 1.362 . S
C810 H802 0.930 . S
C810 C809 1.362 . S
C810 C813 1.409 . S
C811 H803 0.930 . S
C811 C812 1.355 . S
C811 C813 1.415 . S
C812 C811 1.355 . S
C812 C814 1.419 . S
C813 C808 1.425 . S
C813 C810 1.409 . S
C813 C811 1.415 . S
C814 H804 0.930 . S
C814 C812 1.419 . S
C814 C815 1.362 . S
C815 H805 0.930 . S
C815 C808 1.409 . S
C815 C814 1.362 . S
H816 C822 0.930 . S
H817 C825 0.930 . S
H818 C826 0.930 . S
H819 C827 0.930 . S
H820 C830 0.930 . S
H821 C831 0.930 . S
C822 H816 0.930 . S
C822 C823 1.355 . S
C822 C824 1.415 . S
C823 C822 1.355 . S
C823 C825 1.419 . S
C824 C822 1.415 . S
C824 C829 1.425 . S
C824 C831 1.409 . S
C825 H817 0.930 . S
C825 C823 1.419 . S
C825 C826 1.362 . S
C826 H818 0.930 . S
C826 C825 1.362 . S
C826 C829 1.409 . S
C827 H819 0.930 . S
C827 C828 1.355 . S
C827 C829 1.415 . S
C828 C827 1.355 . S
C828 C830 1.419 . S
C829 C824 1.425 . S
C829 C826 1.409 . S
C829 C827 1.415 . S
C830 H820 0.930 . S
C830 C828 1.419 . S
C830 C831 1.362 . S
C831 H821 0.930 . S
C831 C824 1.409 . S
C831 C830 1.362 . S
H832 C838 0.930 . S
H833 C841 0.930 . S
H834 C842 0.930 . S
H835 C843 0.930 . S
H836 C846 0.930 . S
H837 C847 0.930 . S
C838 H832 0.930 . S
C838 C839 1.355 . S
C838 C840 1.415 . S
C839 C838 1.355 . S
C839 C841 1.419 . S
C840 C838 1.415 . S
C840 C845 1.425 . S
C840 C847 1.409 . S
C841 H833 0.930 . S
C841 C839 1.419 . S
C841 C842 1.362 . S
C842 H834 0.930 . S
C842 C841 1.362 . S
C842 C845 1.409 . S
C843 H835 0.930 . S
C843 C844 1.355 . S
C843 C845 1.415 . S
C844 C843 1.355 . S
C844 C846 1.419 . S
C845 C840 1.425 . S
C845 C842 1.409 . S
C845 C843 1.415 . S
C846 H836 0.930 . S
C846 C844 1.419 . S
C846 C847 1.362 . S
C847 H837 0.930 . S
C847 C840 1.409 . S
C847 C846 1.362 . S
H848 C854 0.930 . S
H849 C857 0.930 . S
H850 C858 0.930 . S
H851 C859 0.930 . S
H852 C862 0.930 1_545 S
H853 C863 0.930 . S
C854 H848 0.930 . S
C854 C855 1.355 . S
C854 C856 1.415 . S
C855 C854 1.355 . S
C855 C857 1.419 . S
C856 C854 1.415 . S
C856 C861 1.425 . S
C856 C863 1.409 . S
C857 H849 0.930 . S
C857 C855 1.419 . S
C857 C858 1.362 . S
C858 H850 0.930 . S
C858 C857 1.362 . S
C858 C861 1.409 . S
C859 H851 0.930 . S
C859 C860 1.355 . S
C859 C861 1.415 . S
C860 C859 1.355 . S
C860 C862 1.419 . S
C861 C856 1.425 . S
C861 C858 1.409 . S
C861 C859 1.415 . S
C862 H852 0.930 1_565 S
C862 C860 1.419 . S
C862 C863 1.362 . S
C863 H853 0.930 . S
C863 C856 1.409 . S
C863 C862 1.362 . S
H864 C870 0.930 . S
H865 C873 0.930 . S
H866 C874 0.930 . S
H867 C875 0.930 . S
H868 C878 0.930 . S
H869 C879 0.930 . S
C870 H864 0.930 . S
C870 C871 1.355 . S
C870 C872 1.415 . S
C871 C870 1.355 . S
C871 C873 1.419 . S
C872 C870 1.415 . S
C872 C877 1.425 . S
C872 C879 1.409 . S
C873 H865 0.930 . S
C873 C871 1.419 . S
C873 C874 1.362 . S
C874 H866 0.930 . S
C874 C873 1.362 . S
C874 C877 1.409 . S
C875 H867 0.930 . S
C875 C876 1.355 . S
C875 C877 1.415 . S
C876 C875 1.355 . S
C876 C878 1.419 . S
C877 C872 1.425 . S
C877 C874 1.409 . S
C877 C875 1.415 . S
C878 H868 0.930 . S
C878 C876 1.419 . S
C878 C879 1.362 . S
C879 H869 0.930 . S
C879 C872 1.409 . S
C879 C878 1.362 . S
H880 C886 0.930 . S
H881 C889 0.930 . S
H882 C890 0.930 . S
H883 C891 0.930 . S
H884 C894 0.930 . S
H885 C895 0.930 . S
C886 H880 0.930 . S
C886 C887 1.355 . S
C886 C888 1.415 . S
C887 C886 1.355 . S
C887 C889 1.419 . S
C888 C886 1.415 . S
C888 C893 1.425 . S
C888 C895 1.409 . S
C889 H881 0.930 . S
C889 C887 1.419 . S
C889 C890 1.362 . S
C890 H882 0.930 . S
C890 C889 1.362 . S
C890 C893 1.409 . S
C891 H883 0.930 . S
C891 C892 1.355 . S
C891 C893 1.415 . S
C892 C891 1.355 . S
C892 C894 1.419 . S
C893 C888 1.425 . S
C893 C890 1.409 . S
C893 C891 1.415 . S
C894 H884 0.930 . S
C894 C892 1.419 . S
C894 C895 1.362 . S
C895 H885 0.930 . S
C895 C888 1.409 . S
C895 C894 1.362 . S
H896 C902 0.930 . S
H897 C905 0.930 . S
H898 C906 0.930 . S
H899 C907 0.930 . S
H900 C910 0.930 . S
H901 C911 0.930 . S
C902 H896 0.930 . S
C902 C903 1.355 . S
C902 C904 1.415 . S
C903 C902 1.355 . S
C903 C905 1.419 . S
C904 C902 1.415 . S
C904 C909 1.425 . S
C904 C911 1.409 . S
C905 H897 0.930 . S
C905 C903 1.419 . S
C905 C906 1.362 . S
C906 H898 0.930 . S
C906 C905 1.362 . S
C906 C909 1.409 . S
C907 H899 0.930 . S
C907 C908 1.355 . S
C907 C909 1.415 . S
C908 C907 1.355 . S
C908 C910 1.419 . S
C909 C904 1.425 . S
C909 C906 1.409 . S
C909 C907 1.415 . S
C910 H900 0.930 . S
C910 C908 1.419 . S
C910 C911 1.362 . S
C911 H901 0.930 . S
C911 C904 1.409 . S
C911 C910 1.362 . S
H912 C918 0.930 . S
H913 C921 0.930 . S
H914 C922 0.930 . S
H915 C923 0.930 . S
H916 C926 0.930 . S
H917 C927 0.930 . S
C918 H912 0.930 . S
C918 C919 1.355 . S
C918 C920 1.415 . S
C919 C918 1.355 . S
C919 C921 1.419 . S
C920 C918 1.415 . S
C920 C925 1.425 . S
C920 C927 1.409 . S
C921 H913 0.930 . S
C921 C919 1.419 . S
C921 C922 1.362 . S
C922 H914 0.930 . S
C922 C921 1.362 . S
C922 C925 1.409 . S
C923 H915 0.930 . S
C923 C924 1.355 . S
C923 C925 1.415 . S
C924 C923 1.355 . S
C924 C926 1.419 . S
C925 C920 1.425 . S
C925 C922 1.409 . S
C925 C923 1.415 . S
C926 H916 0.930 . S
C926 C924 1.419 . S
C926 C927 1.362 . S
C927 H917 0.930 . S
C927 C920 1.409 . S
C927 C926 1.362 . S
H928 C934 0.930 . S
H929 C937 0.930 . S
H930 C938 0.930 . S
H931 C939 0.930 . S
H932 C942 0.930 . S
H933 C943 0.930 . S
C934 H928 0.930 . S
C934 C935 1.355 . S
C934 C936 1.415 . S
C935 C934 1.355 . S
C935 C937 1.419 . S
C936 C934 1.415 . S
C936 C941 1.425 . S
C936 C943 1.409 . S
C937 H929 0.930 . S
C937 C935 1.419 . S
C937 C938 1.362 . S
C938 H930 0.930 . S
C938 C937 1.362 . S
C938 C941 1.409 . S
C939 H931 0.930 . S
C939 C940 1.355 . S
C939 C941 1.415 . S
C940 C939 1.355 . S
C940 C942 1.419 . S
C941 C936 1.425 . S
C941 C938 1.409 . S
C941 C939 1.415 . S
C942 H932 0.930 . S
C942 C940 1.419 . S
C942 C943 1.362 . S
C943 H933 0.930 . S
C943 C936 1.409 . S
C943 C942 1.362 . S
H944 C950 0.930 . S
H945 C953 0.930 . S
H946 C954 0.930 . S
H947 C955 0.930 . S
H948 C958 0.930 . S
H949 C959 0.930 . S
C950 H944 0.930 . S
C950 C951 1.355 . S
C950 C952 1.415 . S
C951 C950 1.355 . S
C951 C953 1.419 . S
C952 C950 1.415 . S
C952 C957 1.425 . S
C952 C959 1.409 . S
C953 H945 0.930 . S
C953 C951 1.419 . S
C953 C954 1.362 . S
C954 H946 0.930 . S
C954 C953 1.362 . S
C954 C957 1.409 . S
C955 H947 0.930 . S
C955 C956 1.355 . S
C955 C957 1.415 . S
C956 C955 1.355 . S
C956 C958 1.419 . S
C957 C952 1.425 . S
C957 C954 1.409 . S
C957 C955 1.415 . S
C958 H948 0.930 . S
C958 C956 1.419 . S
C958 C959 1.362 . S
C959 H949 0.930 . S
C959 C952 1.409 . S
C959 C958 1.362 . S
H960 C966 0.930 . S
H961 C969 0.930 . S
H962 C970 0.930 . S
H963 C971 0.930 . S
H964 C974 0.930 . S
H965 C975 0.930 . S
C966 H960 0.930 . S
C966 C967 1.355 . S
C966 C968 1.415 . S
C967 C966 1.355 . S
C967 C969 1.419 1_565 S
C968 C966 1.415 . S
C968 C973 1.425 1_564 S
C968 C975 1.409 1_554 S
C969 H961 0.930 . S
C969 C967 1.419 1_545 S
C969 C970 1.362 . S
C970 H962 0.930 . S
C970 C969 1.362 . S
C970 C973 1.409 1_554 S
C971 H963 0.930 . S
C971 C972 1.355 . S
C971 C973 1.415 . S
C972 C971 1.355 . S
C972 C974 1.419 1_545 S
C973 C968 1.425 1_546 S
C973 C970 1.409 1_556 S
C973 C971 1.415 . S
C974 H964 0.930 . S
C974 C972 1.419 1_565 S
C974 C975 1.362 . S
C975 H965 0.930 . S
C975 C968 1.409 1_556 S
C975 C974 1.362 . S
H976 C982 0.930 . S
H977 C985 0.930 . S
H978 C986 0.930 . S
H979 C987 0.930 . S
H980 C990 0.930 . S
H981 C991 0.930 . S
C982 H976 0.930 . S
C982 C983 1.355 . S
C982 C984 1.415 . S
C983 C982 1.355 . S
C983 C985 1.419 . S
C984 C982 1.415 . S
C984 C989 1.425 1_554 S
C984 C991 1.409 1_554 S
C985 H977 0.930 . S
C985 C983 1.419 . S
C985 C986 1.362 . S
C986 H978 0.930 . S
C986 C985 1.362 . S
C986 C989 1.409 1_554 S
C987 H979 0.930 . S
C987 C988 1.355 . S
C987 C989 1.415 . S
C988 C987 1.355 . S
C988 C990 1.419 . S
C989 C984 1.425 1_556 S
C989 C986 1.409 1_556 S
C989 C987 1.415 . S
C990 H980 0.930 . S
C990 C988 1.419 . S
C990 C991 1.362 . S
C991 H981 0.930 . S
C991 C984 1.409 1_556 S
C991 C990 1.362 . S
H992 C998 0.930 . S
H993 C1001 0.930 . S
H994 C1002 0.930 . S
H995 C1003 0.930 . S
H996 C1006 0.930 . S
H997 C1007 0.930 . S
C998 H992 0.930 . S
C998 C999 1.355 . S
C998 C1000 1.415 . S
C999 C998 1.355 . S
C999 C1001 1.419 . S
C1000 C998 1.415 . S
C1000 C1005 1.425 . S
C1000 C1007 1.409 . S
C1001 H993 0.930 . S
C1001 C999 1.419 . S
C1001 C1002 1.362 . S
C1002 H994 0.930 . S
C1002 C1001 1.362 . S
C1002 C1005 1.409 . S
C1003 H995 0.930 . S
C1003 C1004 1.355 . S
C1003 C1005 1.415 . S
C1004 C1003 1.355 . S
C1004 C1006 1.419 . S
C1005 C1000 1.425 . S
C1005 C1002 1.409 . S
C1005 C1003 1.415 . S
C1006 H996 0.930 . S
C1006 C1004 1.419 . S
C1006 C1007 1.362 . S
C1007 H997 0.930 . S
C1007 C1000 1.409 . S
C1007 C1006 1.362 . S
H1008 C1014 0.930 . S
H1009 C1017 0.930 . S
H1010 C1018 0.930 . S
H1011 C1019 0.930 . S
H1012 C1022 0.930 . S
H1013 C1023 0.930 . S
C1014 H1008 0.930 . S
C1014 C1015 1.355 1_545 S
C1014 C1016 1.415 . S
C1015 C1014 1.355 1_565 S
C1015 C1017 1.419 . S
C1016 C1014 1.415 . S
C1016 C1021 1.425 1_545 S
C1016 C1023 1.409 . S
C1017 H1009 0.930 . S
C1017 C1015 1.419 . S
C1017 C1018 1.362 . S
C1018 H1010 0.930 . S
C1018 C1017 1.362 . S
C1018 C1021 1.409 . S
C1019 H1011 0.930 . S
C1019 C1020 1.355 1_565 S
C1019 C1021 1.415 . S
C1020 C1019 1.355 1_545 S
C1020 C1022 1.419 . S
C1021 C1016 1.425 1_565 S
C1021 C1018 1.409 . S
C1021 C1019 1.415 . S
C1022 H1012 0.930 . S
C1022 C1020 1.419 . S
C1022 C1023 1.362 . S
C1023 H1013 0.930 . S
C1023 C1016 1.409 . S
C1023 C1022 1.362 . S
H1024 C1030 0.930 . S
H1025 C1033 0.930 . S
H1026 C1034 0.930 . S
H1027 C1035 0.930 . S
H1028 C1038 0.930 . S
H1029 C1039 0.930 . S
C1030 H1024 0.930 . S
C1030 C1031 1.355 . S
C1030 C1032 1.415 . S
C1031 C1030 1.355 . S
C1031 C1033 1.419 . S
C1032 C1030 1.415 . S
C1032 C1037 1.425 1_556 S
C1032 C1039 1.409 1_556 S
C1033 H1025 0.930 . S
C1033 C1031 1.419 . S
C1033 C1034 1.362 . S
C1034 H1026 0.930 . S
C1034 C1033 1.362 . S
C1034 C1037 1.409 1_556 S
C1035 H1027 0.930 . S
C1035 C1036 1.355 . S
C1035 C1037 1.415 . S
C1036 C1035 1.355 . S
C1036 C1038 1.419 . S
C1037 C1032 1.425 1_554 S
C1037 C1034 1.409 1_554 S
C1037 C1035 1.415 . S
C1038 H1028 0.930 . S
C1038 C1036 1.419 . S
C1038 C1039 1.362 . S
C1039 H1029 0.930 . S
C1039 C1032 1.409 1_554 S
C1039 C1038 1.362 . S
H1040 C1046 0.930 . S
H1041 C1049 0.930 . S
H1042 C1050 0.930 . S
H1043 C1051 0.930 . S
H1044 C1054 0.930 . S
H1045 C1055 0.930 . S
C1046 H1040 0.930 . S
C1046 C1047 1.355 . S
C1046 C1048 1.415 . S
C1047 C1046 1.355 . S
C1047 C1049 1.419 . S
C1048 C1046 1.415 . S
C1048 C1053 1.425 . S
C1048 C1055 1.409 . S
C1049 H1041 0.930 . S
C1049 C1047 1.419 . S
C1049 C1050 1.362 . S
C1050 H1042 0.930 . S
C1050 C1049 1.362 . S
C1050 C1053 1.409 . S
C1051 H1043 0.930 . S
C1051 C1052 1.355 . S
C1051 C1053 1.415 . S
C1052 C1051 1.355 . S
C1052 C1054 1.419 . S
C1053 C1048 1.425 . S
C1053 C1050 1.409 . S
C1053 C1051 1.415 . S
C1054 H1044 0.930 . S
C1054 C1052 1.419 . S
C1054 C1055 1.362 . S
C1055 H1045 0.930 . S
C1055 C1048 1.409 . S
C1055 C1054 1.362 . S
H1056 C1062 0.930 . S
H1057 C1065 0.930 . S
H1058 C1066 0.930 . S
H1059 C1067 0.930 . S
H1060 C1070 0.930 . S
H1061 C1071 0.930 . S
C1062 H1056 0.930 . S
C1062 C1063 1.355 . S
C1062 C1064 1.415 . S
C1063 C1062 1.355 . S
C1063 C1065 1.419 1_565 S
C1064 C1062 1.415 . S
C1064 C1069 1.425 1_565 S
C1064 C1071 1.409 . S
C1065 H1057 0.930 . S
C1065 C1063 1.419 1_545 S
C1065 C1066 1.362 . S
C1066 H1058 0.930 . S
C1066 C1065 1.362 . S
C1066 C1069 1.409 . S
C1067 H1059 0.930 . S
C1067 C1068 1.355 . S
C1067 C1069 1.415 . S
C1068 C1067 1.355 . S
C1068 C1070 1.419 1_545 S
C1069 C1064 1.425 1_545 S
C1069 C1066 1.409 . S
C1069 C1067 1.415 . S
C1070 H1060 0.930 . S
C1070 C1068 1.419 1_565 S
C1070 C1071 1.362 . S
C1071 H1061 0.930 . S
C1071 C1064 1.409 . S
C1071 C1070 1.362 . S
H1072 C1078 0.930 . S
H1073 C1081 0.930 . S
H1074 C1082 0.930 . S
H1075 C1083 0.930 . S
H1076 C1086 0.930 . S
H1077 C1087 0.930 . S
C1078 H1072 0.930 . S
C1078 C1079 1.355 . S
C1078 C1080 1.415 . S
C1079 C1078 1.355 . S
C1079 C1081 1.419 . S
C1080 C1078 1.415 . S
C1080 C1085 1.425 . S
C1080 C1087 1.409 . S
C1081 H1073 0.930 . S
C1081 C1079 1.419 . S
C1081 C1082 1.362 . S
C1082 H1074 0.930 . S
C1082 C1081 1.362 . S
C1082 C1085 1.409 . S
C1083 H1075 0.930 . S
C1083 C1084 1.355 . S
C1083 C1085 1.415 . S
C1084 C1083 1.355 . S
C1084 C1086 1.419 . S
C1085 C1080 1.425 . S
C1085 C1082 1.409 . S
C1085 C1083 1.415 . S
C1086 H1076 0.930 . S
C1086 C1084 1.419 . S
C1086 C1087 1.362 . S
C1087 H1077 0.930 . S
C1087 C1080 1.409 . S
C1087 C1086 1.362 . S
H1088 C1094 0.930 . S
H1089 C1097 0.930 . S
H1090 C1098 0.930 . S
H1091 C1099 0.930 . S
H1092 C1102 0.930 . S
H1093 C1103 0.930 . S
C1094 H1088 0.930 . S
C1094 C1095 1.355 . S
C1094 C1096 1.415 . S
C1095 C1094 1.355 . S
C1095 C1097 1.419 . S
C1096 C1094 1.415 . S
C1096 C1101 1.425 . S
C1096 C1103 1.409 . S
C1097 H1089 0.930 . S
C1097 C1095 1.419 . S
C1097 C1098 1.362 . S
C1098 H1090 0.930 . S
C1098 C1097 1.362 . S
C1098 C1101 1.409 . S
C1099 H1091 0.930 . S
C1099 C1100 1.355 . S
C1099 C1101 1.415 . S
C1100 C1099 1.355 . S
C1100 C1102 1.419 . S
C1101 C1096 1.425 . S
C1101 C1098 1.409 . S
C1101 C1099 1.415 . S
C1102 H1092 0.930 . S
C1102 C1100 1.419 . S
C1102 C1103 1.362 . S
C1103 H1093 0.930 . S
C1103 C1096 1.409 . S
C1103 C1102 1.362 . S
H1104 C1110 0.930 . S
H1105 C1113 0.930 . S
H1106 C1114 0.930 . S
H1107 C1115 0.930 . S
H1108 C1118 0.930 . S
H1109 C1119 0.930 . S
C1110 H1104 0.930 . S
C1110 C1111 1.355 . S
C1110 C1112 1.415 . S
C1111 C1110 1.355 . S
C1111 C1113 1.419 . S
C1112 C1110 1.415 . S
C1112 C1117 1.425 . S
C1112 C1119 1.409 . S
C1113 H1105 0.930 . S
C1113 C1111 1.419 . S
C1113 C1114 1.362 . S
C1114 H1106 0.930 . S
C1114 C1113 1.362 . S
C1114 C1117 1.409 . S
C1115 H1107 0.930 . S
C1115 C1116 1.355 . S
C1115 C1117 1.415 . S
C1116 C1115 1.355 . S
C1116 C1118 1.419 . S
C1117 C1112 1.425 . S
C1117 C1114 1.409 . S
C1117 C1115 1.415 . S
C1118 H1108 0.930 . S
C1118 C1116 1.419 . S
C1118 C1119 1.362 . S
C1119 H1109 0.930 . S
C1119 C1112 1.409 . S
C1119 C1118 1.362 . S
H1120 C1126 0.930 . S
H1121 C1129 0.930 . S
H1122 C1130 0.930 . S
H1123 C1131 0.930 . S
H1124 C1134 0.930 . S
H1125 C1135 0.930 . S
C1126 H1120 0.930 . S
C1126 C1127 1.355 . S
C1126 C1128 1.415 . S
C1127 C1126 1.355 . S
C1127 C1129 1.419 . S
C1128 C1126 1.415 . S
C1128 C1133 1.425 . S
C1128 C1135 1.409 . S
C1129 H1121 0.930 . S
C1129 C1127 1.419 . S
C1129 C1130 1.362 . S
C1130 H1122 0.930 . S
C1130 C1129 1.362 . S
C1130 C1133 1.409 . S
C1131 H1123 0.930 . S
C1131 C1132 1.355 . S
C1131 C1133 1.415 . S
C1132 C1131 1.355 . S
C1132 C1134 1.419 . S
C1133 C1128 1.425 . S
C1133 C1130 1.409 . S
C1133 C1131 1.415 . S
C1134 H1124 0.930 . S
C1134 C1132 1.419 . S
C1134 C1135 1.362 . S
C1135 H1125 0.930 . S
C1135 C1128 1.409 . S
C1135 C1134 1.362 . S
H1136 C1142 0.930 . S
H1137 C1145 0.930 . S
H1138 C1146 0.930 . S
H1139 C1147 0.930 . S
H1140 C1150 0.930 . S
H1141 C1151 0.930 . S
C1142 H1136 0.930 . S
C1142 C1143 1.355 . S
C1142 C1144 1.415 . S
C1143 C1142 1.355 . S
C1143 C1145 1.419 . S
C1144 C1142 1.415 . S
C1144 C1149 1.425 . S
C1144 C1151 1.409 . S
C1145 H1137 0.930 . S
C1145 C1143 1.419 . S
C1145 C1146 1.362 . S
C1146 H1138 0.930 . S
C1146 C1145 1.362 . S
C1146 C1149 1.409 . S
C1147 H1139 0.930 . S
C1147 C1148 1.355 . S
C1147 C1149 1.415 . S
C1148 C1147 1.355 . S
C1148 C1150 1.419 . S
C1149 C1144 1.425 . S
C1149 C1146 1.409 . S
C1149 C1147 1.415 . S
C1150 H1140 0.930 . S
C1150 C1148 1.419 . S
C1150 C1151 1.362 . S
C1151 H1141 0.930 . S
C1151 C1144 1.409 . S
C1151 C1150 1.362 . S
H1152 C1158 0.930 . S
H1153 C1161 0.930 . S
H1154 C1162 0.930 . S
H1155 C1163 0.930 . S
H1156 C1166 0.930 . S
H1157 C1167 0.930 . S
C1158 H1152 0.930 . S
C1158 C1159 1.355 1_655 S
C1158 C1160 1.415 . S
C1159 C1158 1.355 1_455 S
C1159 C1161 1.419 1_545 S
C1160 C1158 1.415 . S
C1160 C1165 1.425 1_645 S
C1160 C1167 1.409 . S
C1161 H1153 0.930 . S
C1161 C1159 1.419 1_565 S
C1161 C1162 1.362 . S
C1162 H1154 0.930 . S
C1162 C1161 1.362 . S
C1162 C1165 1.409 . S
C1163 H1155 0.930 . S
C1163 C1164 1.355 1_455 S
C1163 C1165 1.415 . S
C1164 C1163 1.355 1_655 S
C1164 C1166 1.419 1_565 S
C1165 C1160 1.425 1_465 S
C1165 C1162 1.409 . S
C1165 C1163 1.415 . S
C1166 H1156 0.930 . S
C1166 C1164 1.419 1_545 S
C1166 C1167 1.362 . S
C1167 H1157 0.930 . S
C1167 C1160 1.409 . S
C1167 C1166 1.362 . S
H1168 C1174 0.930 . S
H1169 C1177 0.930 . S
H1170 C1178 0.930 . S
H1171 C1179 0.930 . S
H1172 C1182 0.930 . S
H1173 C1183 0.930 . S
C1174 H1168 0.930 . S
C1174 C1175 1.346 1_655 S
C1174 C1176 1.415 . S
C1175 C1174 1.346 1_455 S
C1175 C1177 1.431 . S
C1176 C1174 1.415 . S
C1176 C1181 1.425 1_655 S
C1176 C1183 1.409 . S
C1177 H1169 0.930 . S
C1177 C1175 1.431 . S
C1177 C1178 1.362 . S
C1178 H1170 0.930 . S
C1178 C1177 1.362 . S
C1178 C1181 1.409 . S
C1179 H1171 0.930 . S
C1179 C1180 1.339 1_455 S
C1179 C1181 1.415 . S
C1180 C1179 1.339 1_655 S
C1180 C1182 1.439 . S
C1181 C1176 1.425 1_455 S
C1181 C1178 1.409 . S
C1181 C1179 1.415 . S
C1182 H1172 0.930 . S
C1182 C1180 1.439 . S
C1182 C1183 1.362 . S
C1183 H1173 0.930 . S
C1183 C1176 1.409 . S
C1183 C1182 1.362 . S
H1184 C1190 0.930 . S
H1185 C1193 0.930 . S
H1186 C1194 0.930 . S
H1187 C1195 0.930 . S
H1188 C1198 0.930 . S
H1189 C1199 0.930 . S
C1190 H1184 0.930 . S
C1190 C1191 1.355 1_455 S
C1190 C1192 1.415 . S
C1191 C1190 1.355 1_655 S
C1191 C1193 1.419 . S
C1192 C1190 1.415 . S
C1192 C1197 1.425 1_455 S
C1192 C1199 1.409 . S
C1193 H1185 0.930 . S
C1193 C1191 1.419 . S
C1193 C1194 1.362 . S
C1194 H1186 0.930 . S
C1194 C1193 1.362 . S
C1194 C1197 1.409 . S
C1195 H1187 0.930 . S
C1195 C1196 1.355 1_655 S
C1195 C1197 1.415 . S
C1196 C1195 1.355 1_455 S
C1196 C1198 1.419 . S
C1197 C1192 1.425 1_655 S
C1197 C1194 1.409 . S
C1197 C1195 1.415 . S
C1198 H1188 0.930 . S
C1198 C1196 1.419 . S
C1198 C1199 1.362 . S
C1199 H1189 0.930 . S
C1199 C1192 1.409 . S
C1199 C1198 1.362 . S
H1200 C1206 0.930 . S
H1201 C1209 0.930 . S
H1202 C1210 0.930 . S
H1203 C1211 0.930 . S
H1204 C1214 0.930 . S
H1205 C1215 0.930 . S
C1206 H1200 0.930 . S
C1206 C1207 1.355 1_455 S
C1206 C1208 1.415 . S
C1207 C1206 1.355 1_655 S
C1207 C1209 1.419 . S
C1208 C1206 1.415 . S
C1208 C1213 1.425 1_456 S
C1208 C1215 1.409 1_556 S
C1209 H1201 0.930 . S
C1209 C1207 1.419 . S
C1209 C1210 1.362 . S
C1210 H1202 0.930 . S
C1210 C1209 1.362 . S
C1210 C1213 1.409 1_556 S
C1211 H1203 0.930 . S
C1211 C1212 1.353 1_655 S
C1211 C1213 1.415 . S
C1212 C1211 1.353 1_455 S
C1212 C1214 1.421 . S
C1213 C1208 1.425 1_654 S
C1213 C1210 1.409 1_554 S
C1213 C1211 1.415 . S
C1214 H1204 0.930 . S
C1214 C1212 1.421 . S
C1214 C1215 1.362 . S
C1215 H1205 0.930 . S
C1215 C1208 1.409 1_554 S
C1215 C1214 1.362 . S
H1216 C1222 0.930 . S
H1217 C1225 0.930 . S
H1218 C1226 0.930 . S
H1219 C1227 0.930 . S
H1220 C1230 0.930 . S
H1221 C1231 0.930 . S
C1222 H1216 0.930 . S
C1222 C1223 1.355 . S
C1222 C1224 1.415 . S
C1223 C1222 1.355 . S
C1223 C1225 1.419 . S
C1224 C1222 1.415 . S
C1224 C1229 1.425 . S
C1224 C1231 1.409 . S
C1225 H1217 0.930 . S
C1225 C1223 1.419 . S
C1225 C1226 1.362 . S
C1226 H1218 0.930 . S
C1226 C1225 1.362 . S
C1226 C1229 1.409 . S
C1227 H1219 0.930 . S
C1227 C1228 1.355 . S
C1227 C1229 1.415 . S
C1228 C1227 1.355 . S
C1228 C1230 1.419 . S
C1229 C1224 1.425 . S
C1229 C1226 1.409 . S
C1229 C1227 1.415 . S
C1230 H1220 0.930 . S
C1230 C1228 1.419 . S
C1230 C1231 1.362 . S
C1231 H1221 0.930 . S
C1231 C1224 1.409 . S
C1231 C1230 1.362 . S
H1232 C1238 0.930 . S
H1233 C1241 0.930 . S
H1234 C1242 0.930 . S
H1235 C1243 0.930 . S
H1236 C1246 0.930 1_565 S
H1237 C1247 0.930 . S
C1238 H1232 0.930 . S
C1238 C1239 1.355 . S
C1238 C1240 1.415 . S
C1239 C1238 1.355 . S
C1239 C1241 1.419 . S
C1240 C1238 1.415 . S
C1240 C1245 1.425 . S
C1240 C1247 1.409 . S
C1241 H1233 0.930 . S
C1241 C1239 1.419 . S
C1241 C1242 1.362 . S
C1242 H1234 0.930 . S
C1242 C1241 1.362 . S
C1242 C1245 1.409 . S
C1243 H1235 0.930 . S
C1243 C1244 1.355 . S
C1243 C1245 1.415 . S
C1244 C1243 1.355 . S
C1244 C1246 1.419 . S
C1245 C1240 1.425 . S
C1245 C1242 1.409 . S
C1245 C1243 1.415 . S
C1246 H1236 0.930 1_545 S
C1246 C1244 1.419 . S
C1246 C1247 1.362 . S
C1247 H1237 0.930 . S
C1247 C1240 1.409 . S
C1247 C1246 1.362 . S
H1248 C1254 0.930 . S
H1249 C1257 0.930 1_545 S
H1250 C1258 0.930 1_545 S
H1251 C1259 0.930 . S
H1252 C1262 0.930 . S
H1253 C1263 0.930 . S
C1254 H1248 0.930 . S
C1254 C1255 1.355 . S
C1254 C1256 1.415 . S
C1255 C1254 1.355 . S
C1255 C1257 1.419 . S
C1256 C1254 1.415 . S
C1256 C1261 1.425 . S
C1256 C1263 1.409 . S
C1257 H1249 0.930 1_565 S
C1257 C1255 1.419 . S
C1257 C1258 1.362 . S
C1258 H1250 0.930 1_565 S
C1258 C1257 1.362 . S
C1258 C1261 1.409 . S
C1259 H1251 0.930 . S
C1259 C1260 1.355 . S
C1259 C1261 1.415 . S
C1260 C1259 1.355 . S
C1260 C1262 1.419 . S
C1261 C1256 1.425 . S
C1261 C1258 1.409 . S
C1261 C1259 1.415 . S
C1262 H1252 0.930 . S
C1262 C1260 1.419 . S
C1262 C1263 1.362 . S
C1263 H1253 0.930 . S
C1263 C1256 1.409 . S
C1263 C1262 1.362 . S
H1264 C1270 0.930 . S
H1265 C1273 0.930 . S
H1266 C1274 0.930 . S
H1267 C1275 0.930 . S
H1268 C1278 0.930 . S
H1269 C1279 0.930 . S
C1270 H1264 0.930 . S
C1270 C1271 1.355 . S
C1270 C1272 1.415 . S
C1271 C1270 1.355 . S
C1271 C1273 1.419 . S
C1272 C1270 1.415 . S
C1272 C1277 1.425 . S
C1272 C1279 1.409 . S
C1273 H1265 0.930 . S
C1273 C1271 1.419 . S
C1273 C1274 1.362 . S
C1274 H1266 0.930 . S
C1274 C1273 1.362 . S
C1274 C1277 1.409 . S
C1275 H1267 0.930 . S
C1275 C1276 1.355 . S
C1275 C1277 1.415 . S
C1276 C1275 1.355 . S
C1276 C1278 1.419 . S
C1277 C1272 1.425 . S
C1277 C1274 1.409 . S
C1277 C1275 1.415 . S
C1278 H1268 0.930 . S
C1278 C1276 1.419 . S
C1278 C1279 1.362 . S
C1279 H1269 0.930 . S
C1279 C1272 1.409 . S
C1279 C1278 1.362 . S
H1280 C1286 0.930 . S
H1281 C1289 0.930 . S
H1282 C1290 0.930 . S
H1283 C1291 0.930 . S
H1284 C1294 0.930 . S
H1285 C1295 0.930 . S
C1286 H1280 0.930 . S
C1286 C1287 1.355 . S
C1286 C1288 1.415 . S
C1287 C1286 1.355 . S
C1287 C1289 1.419 . S
C1288 C1286 1.415 . S
C1288 C1293 1.425 . S
C1288 C1295 1.409 . S
C1289 H1281 0.930 . S
C1289 C1287 1.419 . S
C1289 C1290 1.362 . S
C1290 H1282 0.930 . S
C1290 C1289 1.362 . S
C1290 C1293 1.409 . S
C1291 H1283 0.930 . S
C1291 C1292 1.355 . S
C1291 C1293 1.415 . S
C1292 C1291 1.355 . S
C1292 C1294 1.419 . S
C1293 C1288 1.425 . S
C1293 C1290 1.409 . S
C1293 C1291 1.415 . S
C1294 H1284 0.930 . S
C1294 C1292 1.419 . S
C1294 C1295 1.362 . S
C1295 H1285 0.930 . S
C1295 C1288 1.409 . S
C1295 C1294 1.362 . S
H1296 C1302 0.930 . S
H1297 C1305 0.930 . S
H1298 C1306 0.930 . S
H1299 C1307 0.930 . S
H1300 C1310 0.930 . S
H1301 C1311 0.930 . S
C1302 H1296 0.930 . S
C1302 C1303 1.355 . S
C1302 C1304 1.415 . S
C1303 C1302 1.355 . S
C1303 C1305 1.419 . S
C1304 C1302 1.415 . S
C1304 C1309 1.425 . S
C1304 C1311 1.409 . S
C1305 H1297 0.930 . S
C1305 C1303 1.419 . S
C1305 C1306 1.362 . S
C1306 H1298 0.930 . S
C1306 C1305 1.362 . S
C1306 C1309 1.409 . S
C1307 H1299 0.930 . S
C1307 C1308 1.355 . S
C1307 C1309 1.415 . S
C1308 C1307 1.355 . S
C1308 C1310 1.419 . S
C1309 C1304 1.425 . S
C1309 C1306 1.409 . S
C1309 C1307 1.415 . S
C1310 H1300 0.930 . S
C1310 C1308 1.419 . S
C1310 C1311 1.362 . S
C1311 H1301 0.930 . S
C1311 C1304 1.409 . S
C1311 C1310 1.362 . S
H1312 C1318 0.930 . S
H1313 C1321 0.930 . S
H1314 C1322 0.930 . S
H1315 C1323 0.930 . S
H1316 C1326 0.930 . S
H1317 C1327 0.930 . S
C1318 H1312 0.930 . S
C1318 C1319 1.355 . S
C1318 C1320 1.415 . S
C1319 C1318 1.355 . S
C1319 C1321 1.419 . S
C1320 C1318 1.415 . S
C1320 C1325 1.425 . S
C1320 C1327 1.409 . S
C1321 H1313 0.930 . S
C1321 C1319 1.419 . S
C1321 C1322 1.362 . S
C1322 H1314 0.930 . S
C1322 C1321 1.362 . S
C1322 C1325 1.409 . S
C1323 H1315 0.930 . S
C1323 C1324 1.355 . S
C1323 C1325 1.415 . S
C1324 C1323 1.355 . S
C1324 C1326 1.419 . S
C1325 C1320 1.425 . S
C1325 C1322 1.409 . S
C1325 C1323 1.415 . S
C1326 H1316 0.930 . S
C1326 C1324 1.419 . S
C1326 C1327 1.362 . S
C1327 H1317 0.930 . S
C1327 C1320 1.409 . S
C1327 C1326 1.362 . S
H1328 C1334 0.930 . S
H1329 C1337 0.930 . S
H1330 C1338 0.930 . S
H1331 C1339 0.930 . S
H1332 C1342 0.930 . S
H1333 C1343 0.930 . S
C1334 H1328 0.930 . S
C1334 C1335 1.355 . S
C1334 C1336 1.415 . S
C1335 C1334 1.355 . S
C1335 C1337 1.419 . S
C1336 C1334 1.415 . S
C1336 C1341 1.425 . S
C1336 C1343 1.409 . S
C1337 H1329 0.930 . S
C1337 C1335 1.419 . S
C1337 C1338 1.362 . S
C1338 H1330 0.930 . S
C1338 C1337 1.362 . S
C1338 C1341 1.409 . S
C1339 H1331 0.930 . S
C1339 C1340 1.355 . S
C1339 C1341 1.415 . S
C1340 C1339 1.355 . S
C1340 C1342 1.419 . S
C1341 C1336 1.425 . S
C1341 C1338 1.409 . S
C1341 C1339 1.415 . S
C1342 H1332 0.930 . S
C1342 C1340 1.419 . S
C1342 C1343 1.362 . S
C1343 H1333 0.930 . S
C1343 C1336 1.409 . S
C1343 C1342 1.362 . S
H1344 C1350 0.930 . S
H1345 C1353 0.930 . S
H1346 C1354 0.930 . S
H1347 C1355 0.930 . S
H1348 C1358 0.930 . S
H1349 C1359 0.930 . S
C1350 H1344 0.930 . S
C1350 C1351 1.355 . S
C1350 C1352 1.415 . S
C1351 C1350 1.355 . S
C1351 C1353 1.419 . S
C1352 C1350 1.415 . S
C1352 C1357 1.425 . S
C1352 C1359 1.409 . S
C1353 H1345 0.930 . S
C1353 C1351 1.419 . S
C1353 C1354 1.362 . S
C1354 H1346 0.930 . S
C1354 C1353 1.362 . S
C1354 C1357 1.409 . S
C1355 H1347 0.930 . S
C1355 C1356 1.355 . S
C1355 C1357 1.415 . S
C1356 C1355 1.355 . S
C1356 C1358 1.419 . S
C1357 C1352 1.425 . S
C1357 C1354 1.409 . S
C1357 C1355 1.415 . S
C1358 H1348 0.930 . S
C1358 C1356 1.419 . S
C1358 C1359 1.362 . S
C1359 H1349 0.930 . S
C1359 C1352 1.409 . S
C1359 C1358 1.362 . S
H1360 C1366 0.930 . S
H1361 C1369 0.930 . S
H1362 C1370 0.930 . S
H1363 C1371 0.930 . S
H1364 C1374 0.930 . S
H1365 C1375 0.930 . S
C1366 H1360 0.930 . S
C1366 C1367 1.355 . S
C1366 C1368 1.415 . S
C1367 C1366 1.355 . S
C1367 C1369 1.419 . S
C1368 C1366 1.415 . S
C1368 C1373 1.425 . S
C1368 C1375 1.409 . S
C1369 H1361 0.930 . S
C1369 C1367 1.419 . S
C1369 C1370 1.362 . S
C1370 H1362 0.930 . S
C1370 C1369 1.362 . S
C1370 C1373 1.409 . S
C1371 H1363 0.930 . S
C1371 C1372 1.355 . S
C1371 C1373 1.415 . S
C1372 C1371 1.355 . S
C1372 C1374 1.419 . S
C1373 C1368 1.425 . S
C1373 C1370 1.409 . S
C1373 C1371 1.415 . S
C1374 H1364 0.930 . S
C1374 C1372 1.419 . S
C1374 C1375 1.362 . S
C1375 H1365 0.930 . S
C1375 C1368 1.409 . S
C1375 C1374 1.362 . S
H1376 C1382 0.930 . S
H1377 C1385 0.930 1_545 S
H1378 C1386 0.930 . S
H1379 C1387 0.930 . S
H1380 C1390 0.930 . S
H1381 C1391 0.930 . S
C1382 H1376 0.930 . S
C1382 C1383 1.355 . S
C1382 C1384 1.415 . S
C1383 C1382 1.355 . S
C1383 C1385 1.419 . S
C1384 C1382 1.415 . S
C1384 C1389 1.425 . S
C1384 C1391 1.409 . S
C1385 H1377 0.930 1_565 S
C1385 C1383 1.419 . S
C1385 C1386 1.362 . S
C1386 H1378 0.930 . S
C1386 C1385 1.362 . S
C1386 C1389 1.409 . S
C1387 H1379 0.930 . S
C1387 C1388 1.355 . S
C1387 C1389 1.415 . S
C1388 C1387 1.355 . S
C1388 C1390 1.419 . S
C1389 C1384 1.425 . S
C1389 C1386 1.409 . S
C1389 C1387 1.415 . S
C1390 H1380 0.930 . S
C1390 C1388 1.419 . S
C1390 C1391 1.362 . S
C1391 H1381 0.930 . S
C1391 C1384 1.409 . S
C1391 C1390 1.362 . S
H1392 C1398 0.930 . S
H1393 C1401 0.930 . S
H1394 C1402 0.930 . S
H1395 C1403 0.930 . S
H1396 C1406 0.930 . S
H1397 C1407 0.930 . S
C1398 H1392 0.930 . S
C1398 C1399 1.355 . S
C1398 C1400 1.415 . S
C1399 C1398 1.355 . S
C1399 C1401 1.419 . S
C1400 C1398 1.415 . S
C1400 C1405 1.425 . S
C1400 C1407 1.409 . S
C1401 H1393 0.930 . S
C1401 C1399 1.419 . S
C1401 C1402 1.362 . S
C1402 H1394 0.930 . S
C1402 C1401 1.362 . S
C1402 C1405 1.409 . S
C1403 H1395 0.930 . S
C1403 C1404 1.355 . S
C1403 C1405 1.415 . S
C1404 C1403 1.355 . S
C1404 C1406 1.419 . S
C1405 C1400 1.425 . S
C1405 C1402 1.409 . S
C1405 C1403 1.415 . S
C1406 H1396 0.930 . S
C1406 C1404 1.419 . S
C1406 C1407 1.362 . S
C1407 H1397 0.930 . S
C1407 C1400 1.409 . S
C1407 C1406 1.362 . S
H1408 C1414 0.930 . S
H1409 C1417 0.930 . S
H1410 C1418 0.930 . S
H1411 C1419 0.930 . S
H1412 C1422 0.930 . S
H1413 C1423 0.930 . S
C1414 H1408 0.930 . S
C1414 C1415 1.355 . S
C1414 C1416 1.415 . S
C1415 C1414 1.355 . S
C1415 C1417 1.419 . S
C1416 C1414 1.415 . S
C1416 C1421 1.425 . S
C1416 C1423 1.409 . S
C1417 H1409 0.930 . S
C1417 C1415 1.419 . S
C1417 C1418 1.362 . S
C1418 H1410 0.930 . S
C1418 C1417 1.362 . S
C1418 C1421 1.409 . S
C1419 H1411 0.930 . S
C1419 C1420 1.355 . S
C1419 C1421 1.415 . S
C1420 C1419 1.355 . S
C1420 C1422 1.419 . S
C1421 C1416 1.425 . S
C1421 C1418 1.409 . S
C1421 C1419 1.415 . S
C1422 H1412 0.930 . S
C1422 C1420 1.419 . S
C1422 C1423 1.362 . S
C1423 H1413 0.930 . S
C1423 C1416 1.409 . S
C1423 C1422 1.362 . S
H1424 C1430 0.930 . S
H1425 C1433 0.930 . S
H1426 C1434 0.930 . S
H1427 C1435 0.930 . S
H1428 C1438 0.930 . S
H1429 C1439 0.930 . S
C1430 H1424 0.930 . S
C1430 C1431 1.355 . S
C1430 C1432 1.415 . S
C1431 C1430 1.355 . S
C1431 C1433 1.419 . S
C1432 C1430 1.415 . S
C1432 C1437 1.425 . S
C1432 C1439 1.409 . S
C1433 H1425 0.930 . S
C1433 C1431 1.419 . S
C1433 C1434 1.362 . S
C1434 H1426 0.930 . S
C1434 C1433 1.362 . S
C1434 C1437 1.409 . S
C1435 H1427 0.930 . S
C1435 C1436 1.355 . S
C1435 C1437 1.415 . S
C1436 C1435 1.355 . S
C1436 C1438 1.419 . S
C1437 C1432 1.425 . S
C1437 C1434 1.409 . S
C1437 C1435 1.415 . S
C1438 H1428 0.930 . S
C1438 C1436 1.419 . S
C1438 C1439 1.362 . S
C1439 H1429 0.930 . S
C1439 C1432 1.409 . S
C1439 C1438 1.362 . S
H1440 C1446 0.930 . S
H1441 C1449 0.930 . S
H1442 C1450 0.930 . S
H1443 C1451 0.930 . S
H1444 C1454 0.930 . S
H1445 C1455 0.930 . S
C1446 H1440 0.930 . S
C1446 C1447 1.355 . S
C1446 C1448 1.415 . S
C1447 C1446 1.355 . S
C1447 C1449 1.419 . S
C1448 C1446 1.415 . S
C1448 C1453 1.425 . S
C1448 C1455 1.409 . S
C1449 H1441 0.930 . S
C1449 C1447 1.419 . S
C1449 C1450 1.362 . S
C1450 H1442 0.930 . S
C1450 C1449 1.362 . S
C1450 C1453 1.409 . S
C1451 H1443 0.930 . S
C1451 C1452 1.355 . S
C1451 C1453 1.415 . S
C1452 C1451 1.355 . S
C1452 C1454 1.419 . S
C1453 C1448 1.425 . S
C1453 C1450 1.409 . S
C1453 C1451 1.415 . S
C1454 H1444 0.930 . S
C1454 C1452 1.419 . S
C1454 C1455 1.362 . S
C1455 H1445 0.930 . S
C1455 C1448 1.409 . S
C1455 C1454 1.362 . S
H1456 C1462 0.930 . S
H1457 C1465 0.930 . S
H1458 C1466 0.930 . S
H1459 C1467 0.930 . S
H1460 C1470 0.930 . S
H1461 C1471 0.930 . S
C1462 H1456 0.930 . S
C1462 C1463 1.355 . S
C1462 C1464 1.415 . S
C1463 C1462 1.355 . S
C1463 C1465 1.419 . S
C1464 C1462 1.415 . S
C1464 C1469 1.425 . S
C1464 C1471 1.409 . S
C1465 H1457 0.930 . S
C1465 C1463 1.419 . S
C1465 C1466 1.362 . S
C1466 H1458 0.930 . S
C1466 C1465 1.362 . S
C1466 C1469 1.409 . S
C1467 H1459 0.930 . S
C1467 C1468 1.355 . S
C1467 C1469 1.415 . S
C1468 C1467 1.355 . S
C1468 C1470 1.419 . S
C1469 C1464 1.425 . S
C1469 C1466 1.409 . S
C1469 C1467 1.415 . S
C1470 H1460 0.930 . S
C1470 C1468 1.419 . S
C1470 C1471 1.362 . S
C1471 H1461 0.930 . S
C1471 C1464 1.409 . S
C1471 C1470 1.362 . S
C455 C13 1.583 . S
C460 C29 1.597 . S
C471 C55 1.591 . S
C476 C27 1.576 . S
C487 C85 1.603 . S
C492 C57 1.592 . S
C503 C98 1.598 . S
C508 C82 1.598 . S
C519 C113 1.572 . S
C524 C141 1.579 . S
C535 C167 1.585 . S
C540 C127 1.598 . S
C551 C169 1.604 . S
C556 C197 1.604 . S
C567 C223 1.570 . S
C572 C183 1.571 . S
C583 C224 1.573 1_655 S
C588 C265 1.587 1_455 S
C599 C238 1.573 . S
C604 C279 1.573 . S
C615 C321 1.571 . S
C620 C280 1.559 . S
C631 C295 1.581 . S
C636 C334 1.570 . S
C647 C377 1.591 1_455 S
C652 C348 1.582 1_655 S
C663 C390 1.584 . S
C668 C362 1.598 . S
C679 C432 1.591 1_655 S
C684 C392 1.584 1_655 S
C695 C406 1.575 . S
C700 C446 1.589 . S
C711 C350 1.668 . S
C716 C1 1.676 . S
C727 C15 1.664 . S
C732 C336 1.673 . S
C743 C41 1.682 . S
C748 C378 1.677 . S
C759 C43 1.678 . S
C764 C365 1.672 . S
C775 C418 1.668 . S
C780 C69 1.683 . S
C791 C70 1.664 . S
C796 C404 1.668 . S
C807 C97 1.672 . S
C812 C434 1.671 . S
C823 C420 1.681 . S
C828 C110 1.665 . S
C839 C125 1.670 . S
C844 C250 1.684 . S
C855 C139 1.677 . S
C860 C236 1.672 . S
C871 C153 1.670 . S
C876 C267 1.684 . S
C887 C155 1.679 . S
C892 C253 1.670 . S
C903 C181 1.676 . S
C908 C307 1.682 . S
C919 C292 1.667 . S
C924 C195 1.676 . S
C935 C322 1.672 . S
C940 C209 1.671 . S
C951 C211 1.674 . S
C956 C309 1.674 . S
C967 C12 1.574 . S
C972 C56 1.573 . S
C983 C26 1.605 . S
C988 C407 1.605 . S
C999 C28 1.569 . S
C1004 C196 1.567 . S
C1015 C54 1.598 . S
C1020 C335 1.598 . S
C1031 C83 1.568 . S
C1036 C363 1.565 . S
C1047 C140 1.570 . S
C1052 C84 1.569 . S
C1063 C278 1.565 . S
C1068 C99 1.565 . S
C1079 C168 1.603 . S
C1084 C112 1.605 . S
C1095 C126 1.603 . S
C1100 C294 1.602 . S
C1111 C447 1.609 . S
C1116 C166 1.610 . S
C1127 C182 1.593 . S
C1132 C239 1.592 . S
C1143 C222 1.585 . S
C1148 C391 1.584 . S
C1159 C281 1.584 . S
C1164 C225 1.581 . S
C1175 C264 1.588 1_455 S
C1180 C433 1.588 1_655 S
C1191 C376 1.598 . S
C1196 C320 1.596 . S
C1207 C393 1.591 1_655 S
C1212 C349 1.590 1_455 S
C1223 C0 1.337 . S
C1228 C14 1.336 . S
C1239 C40 1.321 . S
C1244 C42 1.319 . S
C1255 C68 1.322 . S
C1260 C71 1.317 . S
C1271 C96 1.334 . S
C1276 C111 1.339 . S
C1287 C138 1.340 . S
C1292 C124 1.333 . S
C1303 C152 1.332 . S
C1308 C154 1.340 . S
C1319 C180 1.317 . S
C1324 C194 1.334 . S
C1335 C208 1.331 . S
C1340 C210 1.341 . S
C1351 C237 1.347 . S
C1356 C251 1.338 . S
C1367 C266 1.345 . S
C1372 C252 1.343 . S
C1383 C293 1.325 . S
C1388 C306 1.330 . S
C1399 C308 1.340 . S
C1404 C323 1.349 . S
C1415 C351 1.321 . S
C1420 C337 1.333 . S
C1431 C364 1.321 . S
C1436 C379 1.340 . S
C1447 C419 1.330 . S
C1452 C405 1.326 . S
C1463 C421 1.323 . S
C1468 C435 1.332 . S
