# Generated by pormake.
# Topology unu, (4)-cn, num edge types: 1
# Building blocks:
#     Node 0, Type 0, BuildingBlock: TATPOV_clean_sbu_0, # of connection points: 4
#     Node 1, Type 0, BuildingBlock: TATPOV_clean_sbu_0, # of connection points: 4
#     Node 2, Type 0, BuildingBlock: TATPOV_clean_sbu_0, # of connection points: 4
#     Node 3, Type 0, BuildingBlock: TATPOV_clean_sbu_0, # of connection points: 4
#     Node 4, Type 0, BuildingBlock: TATPOV_clean_sbu_0, # of connection points: 4
#     Node 5, Type 0, BuildingBlock: TATPOV_clean_sbu_0, # of connection points: 4
#     Node 6, Type 0, BuildingBlock: TATPOV_clean_sbu_0, # of connection points: 4
#     Node 7, Type 0, BuildingBlock: TATPOV_clean_sbu_0, # of connection points: 4
#     Node 8, Type 0, BuildingBlock: TATPOV_clean_sbu_0, # of connection points: 4
#     Node 9, Type 0, BuildingBlock: TATPOV_clean_sbu_0, # of connection points: 4
#     Node 10, Type 0, BuildingBlock: TATPOV_clean_sbu_0, # of connection points: 4
#     Node 11, Type 0, BuildingBlock: TATPOV_clean_sbu_0, # of connection points: 4
#     Node 12, Type 0, BuildingBlock: TATPOV_clean_sbu_0, # of connection points: 4
#     Node 13, Type 0, BuildingBlock: TATPOV_clean_sbu_0, # of connection points: 4
#     Node 14, Type 0, BuildingBlock: TATPOV_clean_sbu_0, # of connection points: 4
#     Node 15, Type 0, BuildingBlock: TATPOV_clean_sbu_0, # of connection points: 4
#     Node 16, Type 0, BuildingBlock: TATPOV_clean_sbu_0, # of connection points: 4
#     Node 17, Type 0, BuildingBlock: TATPOV_clean_sbu_0, # of connection points: 4
#     Node 18, Type 0, BuildingBlock: TATPOV_clean_sbu_0, # of connection points: 4
#     Node 19, Type 0, BuildingBlock: TATPOV_clean_sbu_0, # of connection points: 4
#     Node 20, Type 0, BuildingBlock: TATPOV_clean_sbu_0, # of connection points: 4
#     Node 21, Type 0, BuildingBlock: TATPOV_clean_sbu_0, # of connection points: 4
#     Node 22, Type 0, BuildingBlock: TATPOV_clean_sbu_0, # of connection points: 4
#     Node 23, Type 0, BuildingBlock: TATPOV_clean_sbu_0, # of connection points: 4
#     Node 24, Type 0, BuildingBlock: TATPOV_clean_sbu_0, # of connection points: 4
#     Node 25, Type 0, BuildingBlock: TATPOV_clean_sbu_0, # of connection points: 4
#     Node 26, Type 0, BuildingBlock: TATPOV_clean_sbu_0, # of connection points: 4
#     Node 27, Type 0, BuildingBlock: TATPOV_clean_sbu_0, # of connection points: 4
#     Node 28, Type 0, BuildingBlock: TATPOV_clean_sbu_0, # of connection points: 4
#     Node 29, Type 0, BuildingBlock: TATPOV_clean_sbu_0, # of connection points: 4
#     Node 30, Type 0, BuildingBlock: TATPOV_clean_sbu_0, # of connection points: 4
#     Node 31, Type 0, BuildingBlock: TATPOV_clean_sbu_0, # of connection points: 4
#     Node 32, Type 0, BuildingBlock: TATPOV_clean_sbu_0, # of connection points: 4
#     Node 33, Type 0, BuildingBlock: TATPOV_clean_sbu_0, # of connection points: 4
#     Node 34, Type 0, BuildingBlock: TATPOV_clean_sbu_0, # of connection points: 4
#     Node 35, Type 0, BuildingBlock: TATPOV_clean_sbu_0, # of connection points: 4
#     Edge 36, Type (0, 0), BuildingBlock: CIFDUS_clean_linker_0, # of connection points: 2
#     Edge 37, Type (0, 0), BuildingBlock: CIFDUS_clean_linker_0, # of connection points: 2
#     Edge 38, Type (0, 0), BuildingBlock: CIFDUS_clean_linker_0, # of connection points: 2
#     Edge 39, Type (0, 0), BuildingBlock: CIFDUS_clean_linker_0, # of connection points: 2
#     Edge 40, Type (0, 0), BuildingBlock: CIFDUS_clean_linker_0, # of connection points: 2
#     Edge 41, Type (0, 0), BuildingBlock: CIFDUS_clean_linker_0, # of connection points: 2
#     Edge 42, Type (0, 0), BuildingBlock: CIFDUS_clean_linker_0, # of connection points: 2
#     Edge 43, Type (0, 0), BuildingBlock: CIFDUS_clean_linker_0, # of connection points: 2
#     Edge 44, Type (0, 0), BuildingBlock: CIFDUS_clean_linker_0, # of connection points: 2
#     Edge 45, Type (0, 0), BuildingBlock: CIFDUS_clean_linker_0, # of connection points: 2
#     Edge 46, Type (0, 0), BuildingBlock: CIFDUS_clean_linker_0, # of connection points: 2
#     Edge 47, Type (0, 0), BuildingBlock: CIFDUS_clean_linker_0, # of connection points: 2
#     Edge 48, Type (0, 0), BuildingBlock: CIFDUS_clean_linker_0, # of connection points: 2
#     Edge 49, Type (0, 0), BuildingBlock: CIFDUS_clean_linker_0, # of connection points: 2
#     Edge 50, Type (0, 0), BuildingBlock: CIFDUS_clean_linker_0, # of connection points: 2
#     Edge 51, Type (0, 0), BuildingBlock: CIFDUS_clean_linker_0, # of connection points: 2
#     Edge 52, Type (0, 0), BuildingBlock: CIFDUS_clean_linker_0, # of connection points: 2
#     Edge 53, Type (0, 0), BuildingBlock: CIFDUS_clean_linker_0, # of connection points: 2
#     Edge 54, Type (0, 0), BuildingBlock: CIFDUS_clean_linker_0, # of connection points: 2
#     Edge 55, Type (0, 0), BuildingBlock: CIFDUS_clean_linker_0, # of connection points: 2
#     Edge 56, Type (0, 0), BuildingBlock: CIFDUS_clean_linker_0, # of connection points: 2
#     Edge 57, Type (0, 0), BuildingBlock: CIFDUS_clean_linker_0, # of connection points: 2
#     Edge 58, Type (0, 0), BuildingBlock: CIFDUS_clean_linker_0, # of connection points: 2
#     Edge 59, Type (0, 0), BuildingBlock: CIFDUS_clean_linker_0, # of connection points: 2
#     Edge 60, Type (0, 0), BuildingBlock: CIFDUS_clean_linker_0, # of connection points: 2
#     Edge 61, Type (0, 0), BuildingBlock: CIFDUS_clean_linker_0, # of connection points: 2
#     Edge 62, Type (0, 0), BuildingBlock: CIFDUS_clean_linker_0, # of connection points: 2
#     Edge 63, Type (0, 0), BuildingBlock: CIFDUS_clean_linker_0, # of connection points: 2
#     Edge 64, Type (0, 0), BuildingBlock: CIFDUS_clean_linker_0, # of connection points: 2
#     Edge 65, Type (0, 0), BuildingBlock: CIFDUS_clean_linker_0, # of connection points: 2
#     Edge 66, Type (0, 0), BuildingBlock: CIFDUS_clean_linker_0, # of connection points: 2
#     Edge 67, Type (0, 0), BuildingBlock: CIFDUS_clean_linker_0, # of connection points: 2
#     Edge 68, Type (0, 0), BuildingBlock: CIFDUS_clean_linker_0, # of connection points: 2
#     Edge 69, Type (0, 0), BuildingBlock: CIFDUS_clean_linker_0, # of connection points: 2
#     Edge 70, Type (0, 0), BuildingBlock: CIFDUS_clean_linker_0, # of connection points: 2
#     Edge 71, Type (0, 0), BuildingBlock: CIFDUS_clean_linker_0, # of connection points: 2
#     Edge 72, Type (0, 0), BuildingBlock: CIFDUS_clean_linker_0, # of connection points: 2
#     Edge 73, Type (0, 0), BuildingBlock: CIFDUS_clean_linker_0, # of connection points: 2
#     Edge 74, Type (0, 0), BuildingBlock: CIFDUS_clean_linker_0, # of connection points: 2
#     Edge 75, Type (0, 0), BuildingBlock: CIFDUS_clean_linker_0, # of connection points: 2
#     Edge 76, Type (0, 0), BuildingBlock: CIFDUS_clean_linker_0, # of connection points: 2
#     Edge 77, Type (0, 0), BuildingBlock: CIFDUS_clean_linker_0, # of connection points: 2
#     Edge 78, Type (0, 0), BuildingBlock: CIFDUS_clean_linker_0, # of connection points: 2
#     Edge 79, Type (0, 0), BuildingBlock: CIFDUS_clean_linker_0, # of connection points: 2
#     Edge 80, Type (0, 0), BuildingBlock: CIFDUS_clean_linker_0, # of connection points: 2
#     Edge 81, Type (0, 0), BuildingBlock: CIFDUS_clean_linker_0, # of connection points: 2
#     Edge 82, Type (0, 0), BuildingBlock: CIFDUS_clean_linker_0, # of connection points: 2
#     Edge 83, Type (0, 0), BuildingBlock: CIFDUS_clean_linker_0, # of connection points: 2
#     Edge 84, Type (0, 0), BuildingBlock: CIFDUS_clean_linker_0, # of connection points: 2
#     Edge 85, Type (0, 0), BuildingBlock: CIFDUS_clean_linker_0, # of connection points: 2
#     Edge 86, Type (0, 0), BuildingBlock: CIFDUS_clean_linker_0, # of connection points: 2
#     Edge 87, Type (0, 0), BuildingBlock: CIFDUS_clean_linker_0, # of connection points: 2
#     Edge 88, Type (0, 0), BuildingBlock: CIFDUS_clean_linker_0, # of connection points: 2
#     Edge 89, Type (0, 0), BuildingBlock: CIFDUS_clean_linker_0, # of connection points: 2
#     Edge 90, Type (0, 0), BuildingBlock: CIFDUS_clean_linker_0, # of connection points: 2
#     Edge 91, Type (0, 0), BuildingBlock: CIFDUS_clean_linker_0, # of connection points: 2
#     Edge 92, Type (0, 0), BuildingBlock: CIFDUS_clean_linker_0, # of connection points: 2
#     Edge 93, Type (0, 0), BuildingBlock: CIFDUS_clean_linker_0, # of connection points: 2
#     Edge 94, Type (0, 0), BuildingBlock: CIFDUS_clean_linker_0, # of connection points: 2
#     Edge 95, Type (0, 0), BuildingBlock: CIFDUS_clean_linker_0, # of connection points: 2
#     Edge 96, Type (0, 0), BuildingBlock: CIFDUS_clean_linker_0, # of connection points: 2
#     Edge 97, Type (0, 0), BuildingBlock: CIFDUS_clean_linker_0, # of connection points: 2
#     Edge 98, Type (0, 0), BuildingBlock: CIFDUS_clean_linker_0, # of connection points: 2
#     Edge 99, Type (0, 0), BuildingBlock: CIFDUS_clean_linker_0, # of connection points: 2
#     Edge 100, Type (0, 0), BuildingBlock: CIFDUS_clean_linker_0, # of connection points: 2
#     Edge 101, Type (0, 0), BuildingBlock: CIFDUS_clean_linker_0, # of connection points: 2
#     Edge 102, Type (0, 0), BuildingBlock: CIFDUS_clean_linker_0, # of connection points: 2
#     Edge 103, Type (0, 0), BuildingBlock: CIFDUS_clean_linker_0, # of connection points: 2
#     Edge 104, Type (0, 0), BuildingBlock: CIFDUS_clean_linker_0, # of connection points: 2
#     Edge 105, Type (0, 0), BuildingBlock: CIFDUS_clean_linker_0, # of connection points: 2
#     Edge 106, Type (0, 0), BuildingBlock: CIFDUS_clean_linker_0, # of connection points: 2
#     Edge 107, Type (0, 0), BuildingBlock: CIFDUS_clean_linker_0, # of connection points: 2
# Relax obj value: 0.232
# Max RMSD: 0.264
# Mean RMSD: 0.264
data_MOF--net-unu--node1-TATPOV_clean_sbu_0--edge1-CIFDUS_clean_linker_0
_symmetry_space_group_name_H-M    P1
_symmetry_Int_Tables_number       1
_symmetry_cell_setting            triclinic
loop_
_symmetry_equiv_pos_as_xyz
'x, y, z'
_cell_length_a     35.383799
_cell_length_b     35.376025
_cell_length_c     111.18855
_cell_angle_alpha  90.004563
_cell_angle_beta   90.075809
_cell_angle_gamma 120.02823
loop_
_atom_site_label
_atom_site_type_symbol
_atom_site_fract_x
_atom_site_fract_y
_atom_site_fract_z
_atom_type_partial_charge
Zn0 Zn 0.18707 0.98397 0.14287 0.0
Zn1 Zn 0.23387 0.02343 0.12506 0.0
O2 O 0.19455 0.95703 0.12116 0.0
O3 O 0.16133 0.92182 0.13752 0.0
O4 O 0.27925 0.03957 0.11202 0.0
O5 O 0.23174 0.00913 0.15576 0.0
O6 O 0.27022 0.05127 0.14081 0.0
C7 C 0.16896 0.92118 0.12645 0.0
C8 C 0.16651 0.04557 0.12966 0.0
O9 O 0.19711 0.05247 0.12236 0.0
O10 O 0.15746 0.01901 0.13833 0.0
C11 C 0.26649 0.02854 0.10123 0.0
O12 O 0.22517 0.01377 0.09864 0.0
C13 C 0.26574 0.04264 0.15206 0.0
Zn14 Zn 0.89214 0.0761 0.13525 0.0
Zn15 Zn 0.9287 0.14732 0.12318 0.0
O16 O 0.98112 0.13932 0.12807 0.0
O17 O 0.94802 0.07609 0.13747 0.0
O18 O 0.9592 0.20671 0.11518 0.0
O19 O 0.87119 0.09723 0.14857 0.0
O20 O 0.892 0.15461 0.13688 0.0
C21 C 0.9826 0.10838 0.13352 0.0
C22 C 0.8627 0.06332 0.11086 0.0
O23 O 0.89312 0.10296 0.10985 0.0
O24 O 0.85316 0.04547 0.12112 0.0
C25 C 0.94104 0.22362 0.10905 0.0
O26 O 0.89862 0.20138 0.10733 0.0
C27 C 0.87344 0.13328 0.14642 0.0
Zn28 Zn 0.93475 0.86382 0.11163 0.0
Zn29 Zn 0.87447 0.79657 0.09845 0.0
O30 O 0.87238 0.84981 0.09145 0.0
O31 O 0.92326 0.90462 0.10195 0.0
O32 O 0.81922 0.74566 0.09174 0.0
O33 O 0.90647 0.83906 0.12765 0.0
O34 O 0.85984 0.78434 0.11638 0.0
C35 C 0.89479 0.89054 0.0937 0.0
C36 C 0.9678 0.81615 0.0978 0.0
O37 O 0.9292 0.79199 0.0937 0.0
O38 O 0.97614 0.84664 0.10516 0.0
C39 C 0.80907 0.72886 0.0813 0.0
O40 O 0.8387 0.74356 0.07277 0.0
C41 C 0.87306 0.80158 0.12671 0.0
Zn42 Zn 0.11371 0.17777 0.37006 0.0
Zn43 Zn 0.07687 0.20733 0.38372 0.0
O44 O 0.02363 0.14847 0.37859 0.0
O45 O 0.05674 0.12242 0.36743 0.0
O46 O 0.04909 0.2359 0.39328 0.0
O47 O 0.13496 0.22308 0.35767 0.0
O48 O 0.10894 0.25318 0.36995 0.0
C49 C 0.02224 0.11799 0.37216 0.0
C50 C 0.14356 0.18417 0.39381 0.0
O51 O 0.11335 0.19321 0.3957 0.0
O52 O 0.15394 0.18106 0.38313 0.0
C53 C 0.06837 0.26526 0.40125 0.0
O54 O 0.10901 0.27771 0.40408 0.0
C55 C 0.12898 0.25439 0.36026 0.0
Zn56 Zn 0.79924 0.79039 0.36189 0.0
Zn57 Zn 0.75673 0.7858 0.38143 0.0
O58 O 0.79188 0.75418 0.38342 0.0
O59 O 0.81916 0.74751 0.36647 0.0
O60 O 0.71517 0.75853 0.39543 0.0
O61 O 0.75067 0.77792 0.35038 0.0
O62 O 0.71678 0.77849 0.36689 0.0
C63 C 0.81348 0.74022 0.37765 0.0
C64 C 0.82929 0.87305 0.37621 0.0
O65 O 0.79857 0.85128 0.38369 0.0
O66 O 0.83496 0.85401 0.36728 0.0
C67 C 0.73065 0.75522 0.40546 0.0
O68 O 0.77312 0.77771 0.40709 0.0
C69 C 0.71816 0.77689 0.35544 0.0
Zn70 Zn 0.05615 0.90241 0.37888 0.0
Zn71 Zn 0.12088 0.89515 0.38893 0.0
O72 O 0.12232 0.94762 0.39788 0.0
O73 O 0.0679 0.95211 0.38973 0.0
O74 O 0.17789 0.89991 0.39404 0.0
O75 O 0.07925 0.90927 0.36191 0.0
O76 O 0.12974 0.89995 0.37066 0.0
C77 C 0.09861 0.96533 0.39731 0.0
C78 C 0.02984 0.81853 0.39051 0.0
O79 O 0.06985 0.83333 0.39326 0.0
O80 O 0.01795 0.84187 0.38485 0.0
C81 C 0.19137 0.903 0.40478 0.0
O82 O 0.16522 0.89885 0.4137 0.0
C83 C 0.11257 0.90495 0.36115 0.0
Zn84 Zn 0.85064 0.84881 0.87998 0.0
Zn85 Zn 0.82805 0.90176 0.88923 0.0
O86 O 0.88334 0.94583 0.87998 0.0
O87 O 0.90366 0.90065 0.87284 0.0
O88 O 0.80489 0.93837 0.89673 0.0
O89 O 0.79834 0.81661 0.86983 0.0
O90 O 0.77603 0.85805 0.87843 0.0
C91 C 0.91025 0.93909 0.87406 0.0
C92 C 0.85725 0.84902 0.90505 0.0
O93 O 0.84803 0.87933 0.90368 0.0
O94 O 0.85508 0.82593 0.8961 0.0
C95 C 0.80528 0.96951 0.8909 0.0
O96 O 0.82132 0.97795 0.87995 0.0
C97 C 0.76967 0.82755 0.87112 0.0
Zn98 Zn 0.14067 0.98149 0.88745 0.0
Zn99 Zn 0.15416 0.92007 0.89779 0.0
O100 O 0.10559 0.92059 0.90807 0.0
O101 O 0.09347 0.96939 0.89932 0.0
O102 O 0.15353 0.86545 0.90356 0.0
O103 O 0.12951 0.95282 0.87094 0.0
O104 O 0.1379 0.90257 0.88024 0.0
C105 C 0.08519 0.94173 0.90759 0.0
C106 C 0.22896 0.01326 0.89648 0.0
O107 O 0.21712 0.97369 0.89907 0.0
O108 O 0.20197 0.02316 0.89212 0.0
C109 C 0.14077 0.84892 0.91395 0.0
O110 O 0.13441 0.87165 0.92223 0.0
C111 C 0.13001 0.91731 0.8707 0.0
Zn112 Zn 0.21868 0.17049 0.84182 0.0
Zn113 Zn 0.23092 0.22314 0.86004 0.0
O114 O 0.27095 0.19649 0.86197 0.0
O115 O 0.26754 0.15879 0.84599 0.0
O116 O 0.25677 0.26922 0.87306 0.0
O117 O 0.22487 0.21476 0.82952 0.0
O118 O 0.231 0.25692 0.84481 0.0
C119 C 0.28321 0.17318 0.85631 0.0
C120 C 0.14417 0.14217 0.85882 0.0
O121 O 0.16809 0.17769 0.8645 0.0
O122 O 0.15881 0.13295 0.84952 0.0
C123 C 0.26358 0.25742 0.88326 0.0
O124 O 0.2473 0.21552 0.88532 0.0
C125 C 0.22797 0.24971 0.8335 0.0
Zn126 Zn 0.88444 0.82669 0.61909 0.0
Zn127 Zn 0.87509 0.76408 0.60449 0.0
O128 O 0.94023 0.81298 0.60277 0.0
O129 O 0.94744 0.86426 0.61536 0.0
O130 O 0.8762 0.71627 0.59487 0.0
O131 O 0.86395 0.78787 0.63352 0.0
O132 O 0.85398 0.73496 0.62121 0.0
C133 C 0.96356 0.85027 0.60763 0.0
C134 C 0.8211 0.80705 0.60004 0.0
O135 O 0.82994 0.77789 0.59663 0.0
O136 O 0.84027 0.83112 0.60901 0.0
C137 C 0.8841 0.71988 0.58365 0.0
O138 O 0.88671 0.75349 0.57786 0.0
C139 C 0.85118 0.74797 0.63172 0.0
Zn140 Zn 0.13812 0.10225 0.63865 0.0
Zn141 Zn 0.18546 0.16207 0.62291 0.0
O142 O 0.13056 0.16817 0.62457 0.0
O143 O 0.09296 0.12043 0.63868 0.0
O144 O 0.22558 0.21584 0.61315 0.0
O145 O 0.18148 0.12137 0.65164 0.0
O146 O 0.22324 0.17017 0.63823 0.0
C147 C 0.09708 0.14948 0.63132 0.0
C148 C 0.1494 0.06762 0.6161 0.0
O149 O 0.16974 0.10733 0.61264 0.0
O150 O 0.13476 0.05815 0.62672 0.0
C151 C 0.25077 0.21893 0.60458 0.0
O152 O 0.25176 0.18401 0.60104 0.0
C153 C 0.21811 0.15296 0.64866 0.0
Zn154 Zn 0.77692 0.02303 0.62205 0.0
Zn155 Zn 0.77923 0.06691 0.60481 0.0
O156 O 0.76311 0.00402 0.59952 0.0
O157 O 0.74782 0.96228 0.61535 0.0
O158 O 0.7474 0.08177 0.59234 0.0
O159 O 0.75005 0.03992 0.63513 0.0
O160 O 0.768 0.08945 0.62108 0.0
C161 C 0.75048 0.96652 0.60406 0.0
C162 C 0.86461 0.09415 0.61184 0.0
O163 O 0.8446 0.1015 0.60345 0.0
O164 O 0.84333 0.06482 0.61968 0.0
C165 C 0.74921 0.07292 0.58135 0.0
O166 O 0.77823 0.06209 0.57809 0.0
C167 C 0.75689 0.07709 0.63194 0.0
Zn168 Zn 0.82046 0.2894 0.47005 0.0
Zn169 Zn 0.86828 0.33192 0.45206 0.0
O170 O 0.83108 0.26609 0.44803 0.0
O171 O 0.79721 0.22797 0.46395 0.0
O172 O 0.91498 0.34932 0.43934 0.0
O173 O 0.86596 0.31594 0.48287 0.0
O174 O 0.90325 0.35843 0.46782 0.0
C175 C 0.80614 0.22926 0.4529 0.0
C176 C 0.7993 0.35152 0.45694 0.0
O177 O 0.83034 0.3598 0.44965 0.0
O178 O 0.79046 0.32417 0.46541 0.0
C179 C 0.90334 0.33383 0.42879 0.0
O180 O 0.86185 0.31557 0.42588 0.0
C181 C 0.89937 0.34985 0.47906 0.0
Zn182 Zn 0.52315 0.37909 0.46119 0.0
Zn183 Zn 0.5631 0.45412 0.45067 0.0
O184 O 0.6155 0.44708 0.45599 0.0
O185 O 0.58041 0.38254 0.4647 0.0
O186 O 0.59165 0.51436 0.44304 0.0
O187 O 0.49504 0.39505 0.47388 0.0
O188 O 0.52414 0.458 0.46437 0.0
C189 C 0.61582 0.41544 0.4614 0.0
C190 C 0.50386 0.3708 0.43632 0.0
O191 O 0.53237 0.41134 0.43657 0.0
O192 O 0.49073 0.34982 0.44609 0.0
C193 C 0.57076 0.52547 0.4359 0.0
O194 O 0.52974 0.49722 0.43346 0.0
C195 C 0.50045 0.43297 0.47286 0.0
Zn196 Zn 0.57389 0.16781 0.43635 0.0
Zn197 Zn 0.51656 0.09499 0.4247 0.0
O198 O 0.50186 0.14253 0.41939 0.0
O199 O 0.55132 0.20285 0.42826 0.0
O200 O 0.46406 0.04068 0.41831 0.0
O201 O 0.55365 0.14037 0.45288 0.0
O202 O 0.51138 0.08075 0.4426 0.0
C203 C 0.51898 0.18338 0.42127 0.0
C204 C 0.61211 0.12838 0.4209 0.0
O205 O 0.57333 0.09878 0.41823 0.0
O206 O 0.61884 0.15929 0.42794 0.0
C207 C 0.44987 0.03759 0.40765 0.0
O208 O 0.47353 0.06834 0.39985 0.0
C209 C 0.52651 0.09981 0.45263 0.0
Zn210 Zn 0.70713 0.53197 0.7036 0.0
Zn211 Zn 0.73121 0.59391 0.7187 0.0
O212 O 0.6703 0.5434 0.72426 0.0
O213 O 0.64505 0.49914 0.70874 0.0
O214 O 0.73497 0.64253 0.72908 0.0
O215 O 0.72457 0.56836 0.68883 0.0
O216 O 0.74171 0.62185 0.70163 0.0
C217 C 0.63944 0.51006 0.7191 0.0
C218 C 0.78099 0.54702 0.71885 0.0
O219 O 0.78062 0.58085 0.72267 0.0
O220 O 0.75211 0.52111 0.71154 0.0
C221 C 0.73763 0.64366 0.74048 0.0
O222 O 0.74464 0.61499 0.74606 0.0
C223 C 0.73937 0.60848 0.69083 0.0
Zn224 Zn 0.48176 0.23689 0.70536 0.0
Zn225 Zn 0.43832 0.18464 0.72249 0.0
O226 O 0.4877 0.17109 0.71804 0.0
O227 O 0.51816 0.21039 0.70188 0.0
O228 O 0.40201 0.13606 0.73441 0.0
O229 O 0.43226 0.22307 0.69492 0.0
O230 O 0.39297 0.17573 0.70893 0.0
C231 C 0.51507 0.18246 0.70946 0.0
C232 C 0.48767 0.28158 0.72748 0.0
O233 O 0.46218 0.24358 0.7317 0.0
O234 O 0.50104 0.28642 0.71675 0.0
C235 C 0.42012 0.11971 0.74081 0.0
O236 O 0.46274 0.13723 0.74041 0.0
C237 C 0.39566 0.19379 0.69875 0.0
Zn238 Zn 0.81249 0.32395 0.68985 0.0
Zn239 Zn 0.84343 0.29497 0.70469 0.0
O240 O 0.85559 0.35659 0.71023 0.0
O241 O 0.8384 0.38575 0.69536 0.0
O242 O 0.89204 0.29071 0.71282 0.0
O243 O 0.829 0.31016 0.67409 0.0
O244 O 0.84034 0.27064 0.68725 0.0
C245 C 0.85353 0.38878 0.70582 0.0
C246 C 0.75204 0.25015 0.7067 0.0
O247 O 0.78534 0.25307 0.71194 0.0
O248 O 0.75645 0.27494 0.69786 0.0
C249 C 0.89271 0.28357 0.72399 0.0
O250 O 0.85833 0.27446 0.73056 0.0
C251 C 0.83571 0.27906 0.67635 0.0
Zn252 Zn 0.48266 0.29045 0.20862 0.0
Zn253 Zn 0.41522 0.27798 0.2205 0.0
O254 O 0.46264 0.34402 0.22243 0.0
O255 O 0.52088 0.35259 0.2129 0.0
O256 O 0.36304 0.28049 0.2269 0.0
O257 O 0.45348 0.27083 0.19253 0.0
O258 O 0.3948 0.24789 0.20373 0.0
C259 C 0.50241 0.36799 0.21932 0.0
C260 C 0.45626 0.22775 0.22866 0.0
O261 O 0.42684 0.23719 0.23118 0.0
O262 O 0.48139 0.24523 0.21975 0.0
C263 C 0.35046 0.27377 0.23779 0.0
O264 O 0.36905 0.25957 0.24537 0.0
C265 C 0.4125 0.24848 0.19367 0.0
Zn266 Zn 0.64554 0.1843 0.19363 0.0
Zn267 Zn 0.68568 0.1754 0.21185 0.0
O268 O 0.62086 0.15077 0.21666 0.0
O269 O 0.58522 0.14948 0.20039 0.0
O270 O 0.70338 0.14619 0.22455 0.0
O271 O 0.66629 0.1598 0.18095 0.0
O272 O 0.70604 0.15919 0.19607 0.0
C273 C 0.58509 0.14101 0.21143 0.0
C274 C 0.71306 0.26617 0.20589 0.0
O275 O 0.71871 0.24219 0.21342 0.0
O276 O 0.68498 0.24892 0.19752 0.0
C277 C 0.69216 0.1449 0.23547 0.0
O278 O 0.67619 0.16968 0.23887 0.0
C279 C 0.69666 0.15423 0.18487 0.0
Zn280 Zn 0.74546 0.56321 0.19145 0.0
Zn281 Zn 0.80597 0.59952 0.207 0.0
O282 O 0.80607 0.54202 0.20316 0.0
O283 O 0.7565 0.51354 0.18888 0.0
O284 O 0.86019 0.63208 0.21732 0.0
O285 O 0.7665 0.61103 0.17989 0.0
O286 O 0.8195 0.64493 0.19301 0.0
C287 C 0.7842 0.51151 0.19564 0.0
C288 C 0.71195 0.56694 0.21448 0.0
O289 O 0.75178 0.58348 0.21774 0.0
O290 O 0.70163 0.5576 0.20355 0.0
C291 C 0.86798 0.66244 0.22476 0.0
O292 O 0.83808 0.67337 0.22671 0.0
C293 C 0.80111 0.64485 0.18309 0.0
Zn294 Zn 0.70917 0.17528 0.97047 0.0
Zn295 Zn 0.69374 0.1279 0.95194 0.0
O296 O 0.75844 0.17796 0.95131 0.0
O297 O 0.77402 0.21113 0.96877 0.0
O298 O 0.6937 0.08384 0.94035 0.0
O299 O 0.68128 0.13097 0.98324 0.0
O300 O 0.66112 0.09002 0.96701 0.0
C301 C 0.78598 0.20711 0.95838 0.0
C302 C 0.65063 0.17908 0.95158 0.0
O303 O 0.65668 0.15237 0.94535 0.0
O304 O 0.66906 0.19222 0.96174 0.0
C305 C 0.71457 0.0954 0.93047 0.0
O306 O 0.7329 0.13649 0.92715 0.0
C307 C 0.65827 0.09414 0.97835 0.0
Zn308 Zn 0.85662 0.47738 0.95734 0.0
Zn309 Zn 0.92659 0.52619 0.9459 0.0
O310 O 0.8773 0.53472 0.93804 0.0
O311 O 0.82025 0.4988 0.94977 0.0
O312 O 0.98148 0.58286 0.94195 0.0
O313 O 0.87499 0.49022 0.97457 0.0
O314 O 0.93585 0.52003 0.96417 0.0
C315 C 0.83797 0.52303 0.94077 0.0
C316 C 0.8956 0.4358 0.94148 0.0
O317 O 0.92579 0.47355 0.93831 0.0
O318 O 0.86611 0.43145 0.9488 0.0
C319 C -0.0033 0.59884 0.93166 0.0
O320 O 0.9779 0.57561 0.92199 0.0
C321 C 0.91598 0.50744 0.97423 0.0
Zn322 Zn 0.59137 0.41889 0.96149 0.0
Zn323 Zn 0.53215 0.40196 0.94584 0.0
O324 O 0.53689 0.34571 0.94726 0.0
O325 O 0.58831 0.36158 0.96074 0.0
O326 O 0.47808 0.37732 0.9354 0.0
O327 O 0.563 0.43116 0.9748 0.0
O328 O 0.51467 0.42431 0.96124 0.0
C329 C 0.56038 0.33495 0.95343 0.0
C330 C 0.62291 0.47526 0.94069 0.0
O331 O 0.58464 0.45119 0.9364 0.0
O332 O 0.63243 0.46814 0.95109 0.0
C333 C 0.46274 0.39372 0.92803 0.0
O334 O 0.48425 0.43593 0.92594 0.0
C335 C 0.52964 0.43342 0.97198 0.0
Zn336 Zn 0.50196 0.67092 0.81258 0.0
Zn337 Zn 0.55504 0.71569 0.79457 0.0
O338 O 0.51549 0.65391 0.78801 0.0
O339 O 0.47918 0.61387 0.80353 0.0
O340 O 0.60252 0.7388 0.78201 0.0
O341 O 0.5487 0.68992 0.82501 0.0
O342 O 0.59206 0.72469 0.8098 0.0
C343 C 0.48873 0.61691 0.79247 0.0
C344 C 0.49001 0.74154 0.80201 0.0
O345 O 0.52179 0.74992 0.79497 0.0
O346 O 0.47685 0.71048 0.80953 0.0
C347 C 0.59457 0.73081 0.77086 0.0
O348 O 0.55434 0.71509 0.76699 0.0
C349 C 0.58658 0.71429 0.8209 0.0
Zn350 Zn 0.21149 0.76577 0.80727 0.0
Zn351 Zn 0.24818 0.82913 0.79195 0.0
O352 O 0.30098 0.8253 0.7985 0.0
O353 O 0.26993 0.77309 0.81197 0.0
O354 O 0.27656 0.8817 0.78082 0.0
O355 O 0.18418 0.79216 0.81697 0.0
O356 O 0.21564 0.84756 0.80448 0.0
C357 C 0.3038 0.80086 0.80644 0.0
C358 C 0.18469 0.73543 0.78344 0.0
O359 O 0.2117 0.77527 0.78088 0.0
O360 O 0.17692 0.7236 0.79432 0.0
C361 C 0.31088 0.8901 0.77503 0.0
O362 O 0.32577 0.8628 0.77576 0.0
C363 C 0.19177 0.82949 0.8137 0.0
Zn364 Zn 0.22521 0.50121 0.78579 0.0
Zn365 Zn 0.18266 0.44307 0.76965 0.0
O366 O 0.16198 0.48915 0.76855 0.0
O367 O 0.19896 0.53804 0.78252 0.0
O368 O 0.13657 0.3953 0.75941 0.0
O369 O 0.2074 0.46067 0.79984 0.0
O370 O 0.18004 0.41095 0.78559 0.0
C371 C 0.17153 0.52447 0.77404 0.0
C372 C 0.2782 0.49238 0.76677 0.0
O373 O 0.24269 0.46354 0.76196 0.0
O374 O 0.2779 0.51127 0.77642 0.0
C375 C 0.13555 0.39863 0.74805 0.0
O376 O 0.16832 0.43193 0.74266 0.0
C377 C 0.19022 0.42121 0.79661 0.0
Zn378 Zn 0.40434 0.85405 0.02675 0.0
Zn379 Zn 0.40527 0.89847 0.04416 0.0
O380 O 0.34084 0.84765 0.04154 0.0
O381 O 0.34078 0.81507 0.02474 0.0
O382 O 0.39449 0.93777 0.05519 0.0
O383 O 0.43724 0.89898 0.0148 0.0
O384 O 0.44711 0.94053 0.03053 0.0
C385 C 0.3203 0.81843 0.03357 0.0
C386 C 0.44944 0.84855 0.04841 0.0
O387 O 0.43768 0.87328 0.05349 0.0
O388 O 0.43918 0.83694 0.03756 0.0
C389 C 0.41214 0.95371 0.0653 0.0
O390 O 0.44278 0.94648 0.06941 0.0
C391 C 0.45624 0.93622 0.01965 0.0
Zn392 Zn 0.14437 0.5059 0.03032 0.0
Zn393 Zn 0.09398 0.48582 0.04823 0.0
O394 O 0.13825 0.4638 0.05144 0.0
O395 O 0.17828 0.4777 0.03522 0.0
O396 O 0.04855 0.45094 0.06092 0.0
O397 O 0.10025 0.47896 0.01757 0.0
O398 O 0.0565 0.47275 0.03238 0.0
C399 C 0.16837 0.46194 0.04567 0.0
C400 C 0.15037 0.57994 0.04444 0.0
O401 O 0.12333 0.55156 0.05176 0.0
O402 O 0.16266 0.56812 0.03516 0.0
C403 C 0.0611 0.44415 0.07102 0.0
O404 O 0.10291 0.46603 0.07366 0.0
C405 C 0.06299 0.47037 0.02117 0.0
Zn406 Zn 0.43886 0.58539 0.03747 0.0
Zn407 Zn 0.48793 0.57734 0.05402 0.0
O408 O 0.50364 0.64209 0.0549 0.0
O409 O 0.4678 0.64982 0.03979 0.0
O410 O 0.53847 0.5806 0.06341 0.0
O411 O 0.45506 0.56005 0.0239 0.0
O412 O 0.4945 0.5517 0.03782 0.0
C413 C 0.49408 0.66593 0.0485 0.0
C414 C 0.39196 0.52801 0.058 0.0
O415 O 0.42884 0.53669 0.06236 0.0
O416 O 0.38959 0.54478 0.04816 0.0
C417 C 0.55106 0.60054 0.07341 0.0
O418 O 0.52646 0.61344 0.07882 0.0
C419 C 0.48059 0.54655 0.02699 0.0
Zn420 Zn 0.12853 0.60574 0.53109 0.0
Zn421 Zn 0.06467 0.59548 0.54445 0.0
O422 O 0.112 0.66215 0.54507 0.0
O423 O 0.16522 0.66927 0.53333 0.0
O424 O 0.01417 0.59748 0.55229 0.0
O425 O 0.09408 0.58106 0.51607 0.0
O426 O 0.03861 0.5628 0.52826 0.0
C427 C 0.14938 0.68589 0.5403 0.0
C428 C 0.10975 0.5478 0.55189 0.0
O429 O 0.07998 0.55643 0.55468 0.0
O430 O 0.13317 0.56459 0.54265 0.0
C431 C 0.00702 0.59432 0.56355 0.0
O432 O 0.03118 0.5853 0.57064 0.0
C433 C 0.05346 0.56049 0.51799 0.0
Zn434 Zn 0.33347 0.51466 0.53503 0.0
Zn435 Zn 0.36546 0.49488 0.55302 0.0
O436 O 0.30407 0.48409 0.55756 0.0
O437 O 0.27177 0.48645 0.541 0.0
O438 O 0.37287 0.45849 0.56586 0.0
O439 O 0.3509 0.48869 0.52201 0.0
O440 O 0.37943 0.47183 0.53724 0.0
C441 C 0.27036 0.47968 0.55218 0.0
C442 C 0.40687 0.58854 0.54815 0.0
O443 O 0.40879 0.56055 0.55498 0.0
O444 O 0.3783 0.57645 0.53991 0.0
C445 C 0.35931 0.45781 0.57649 0.0
O446 O 0.34863 0.48712 0.57955 0.0
C447 C 0.37299 0.47227 0.52594 0.0
Zn448 Zn 0.41502 0.8432 0.5166 0.0
Zn449 Zn 0.46786 0.90264 0.5311 0.0
O450 O 0.48065 0.85145 0.53327 0.0
O451 O 0.43722 0.80255 0.52007 0.0
O452 O 0.51787 0.94978 0.54067 0.0
O453 O 0.43407 0.87878 0.50198 0.0
O454 O 0.47644 0.93252 0.51413 0.0
C455 C 0.46613 0.81448 0.52814 0.0
C456 C 0.37141 0.86214 0.5357 0.0
O457 O 0.40985 0.88787 0.53961 0.0
O458 O 0.36581 0.8408 0.52608 0.0
C459 C 0.5165 0.9671 0.55056 0.0
O460 O 0.4785 0.95544 0.55549 0.0
C461 C 0.46134 0.91868 0.50359 0.0
Zn462 Zn 0.24923 0.50957 0.29765 0.0
Zn463 Zn 0.23556 0.45506 0.27958 0.0
O464 O 0.29872 0.5056 0.27674 0.0
O465 O 0.31156 0.54715 0.29272 0.0
O466 O 0.2326 0.40926 0.26815 0.0
O467 O 0.23311 0.46592 0.31068 0.0
O468 O 0.22167 0.42085 0.29568 0.0
C469 C 0.32436 0.53883 0.28299 0.0
C470 C 0.18043 0.49743 0.28069 0.0
O471 O 0.18898 0.4716 0.27483 0.0
O472 O 0.20155 0.5164 0.29011 0.0
C473 C 0.24591 0.4169 0.25734 0.0
O474 O 0.25723 0.45519 0.25264 0.0
C475 C 0.22144 0.42793 0.30694 0.0
Zn476 Zn 0.50248 0.8183 0.30235 0.0
Zn477 Zn 0.55341 0.86105 0.28581 0.0
O478 O 0.50383 0.87701 0.28697 0.0
O479 O 0.46757 0.8479 0.30359 0.0
O480 O 0.59765 0.91289 0.27607 0.0
O481 O 0.54331 0.82446 0.31517 0.0
O482 O 0.58955 0.85593 0.30034 0.0
C483 C 0.47385 0.87109 0.29437 0.0
C484 C 0.49933 0.76888 0.28037 0.0
O485 O 0.52876 0.80482 0.27592 0.0
O486 O 0.48431 0.76767 0.2908 0.0
C487 C 0.61071 0.91326 0.2654 0.0
O488 O 0.59735 0.87607 0.25975 0.0
C489 C 0.58157 0.84088 0.31109 0.0
Zn490 Zn 0.1697 0.74577 0.29454 0.0
Zn491 Zn 0.14707 0.77117 0.27614 0.0
O492 O 0.13167 0.70644 0.27373 0.0
O493 O 0.13949 0.68184 0.29109 0.0
O494 O 0.10972 0.77519 0.26293 0.0
O495 O 0.14831 0.7699 0.3069 0.0
O496 O 0.12894 0.79447 0.29126 0.0
C497 C 0.12845 0.67515 0.28015 0.0
C498 C 0.24199 0.81143 0.2797 0.0
O499 O 0.21294 0.81125 0.27283 0.0
O500 O 0.23105 0.78637 0.28876 0.0
C501 C 0.10619 0.75641 0.2529 0.0
O502 O 0.13299 0.74182 0.25052 0.0
C503 C 0.13249 0.79206 0.30264 0.0
H504 H 0.32991 0.12734 0.14817 0.0
H505 H 0.26644 0.03176 0.17627 0.0
H506 H 0.30338 0.08795 0.19149 0.0
H507 H 0.35133 0.16455 0.19696 0.0
H508 H 0.41921 0.26003 0.16928 0.0
H509 H 0.38225 0.20388 0.15375 0.0
C510 C 0.32479 0.11864 0.15762 0.0
C511 C 0.29519 0.07527 0.16102 0.0
C512 C 0.34603 0.15133 0.16641 0.0
C513 C 0.28891 0.06477 0.17334 0.0
C514 C 0.30976 0.09698 0.18209 0.0
C515 C 0.35741 0.17316 0.18751 0.0
C516 C 0.38689 0.21647 0.18422 0.0
C517 C 0.3376 0.14047 0.17873 0.0
C518 C 0.39588 0.22698 0.17198 0.0
C519 C 0.37509 0.19483 0.16313 0.0
H520 H 0.77397 0.15783 0.18937 0.0
H521 H 0.68339 0.1387 0.16076 0.0
H522 H 0.73344 0.13688 0.14604 0.0
H523 H 0.80235 0.13895 0.14129 0.0
H524 H 0.8908 0.15384 0.16992 0.0
H525 H 0.84294 0.16051 0.18462 0.0
C526 C 0.76496 0.15284 0.17994 0.0
C527 C 0.72485 0.14815 0.17621 0.0
C528 C 0.79403 0.15215 0.17149 0.0
C529 C 0.71394 0.14214 0.16391 0.0
C530 C 0.74268 0.14143 0.15545 0.0
C531 C 0.81152 0.14493 0.15071 0.0
C532 C 0.85028 0.14715 0.15457 0.0
C533 C 0.7829 0.14664 0.15913 0.0
C534 C 0.86142 0.15314 0.16681 0.0
C535 C 0.83385 0.15634 0.1752 0.0
H536 H 0.76105 0.65692 0.16413 0.0
H537 H 0.8828 0.71856 0.18372 0.0
H538 H 0.91459 0.77666 0.16854 0.0
H539 H 0.90952 0.80504 0.14857 0.0
H540 H 0.78824 0.73898 0.12882 0.0
H541 H 0.75427 0.68752 0.14532 0.0
C542 C 0.79453 0.68314 0.16517 0.0
C543 C 0.81977 0.68303 0.17494 0.0
C544 C 0.81261 0.71555 0.15636 0.0
C545 C 0.86278 0.71774 0.17623 0.0
C546 C 0.88095 0.75085 0.16754 0.0
C547 C 0.87541 0.7799 0.14802 0.0
C548 C 0.85137 0.77559 0.1375 0.0
C549 C 0.85645 0.74945 0.15741 0.0
C550 C 0.80739 0.74269 0.13681 0.0
C551 C 0.78801 0.71324 0.14622 0.0
H552 H 0.15574 0.25668 0.33743 0.0
H553 H 0.13788 0.3352 0.36406 0.0
H554 H 0.16619 0.39643 0.3499 0.0
H555 H 0.19597 0.42717 0.32999 0.0
H556 H 0.21115 0.34704 0.30331 0.0
H557 H 0.18395 0.2866 0.31758 0.0
C558 C 0.1581 0.2872 0.34019 0.0
C559 C 0.14497 0.2915 0.35182 0.0
C560 C 0.17397 0.32185 0.33202 0.0
C561 C 0.14777 0.33109 0.35517 0.0
C562 C 0.16403 0.36607 0.34709 0.0
C563 C 0.19356 0.39655 0.32732 0.0
C564 C 0.20581 0.39164 0.31563 0.0
C565 C 0.1773 0.36178 0.33551 0.0
C566 C 0.20196 0.35163 0.31225 0.0
C567 C 0.18642 0.31709 0.3204 0.0
H568 H 0.72945 0.81087 0.33294 0.0
H569 H 0.63581 0.75695 0.36182 0.0
H570 H 0.58681 0.77489 0.35092 0.0
H571 H 0.57126 0.80685 0.33349 0.0
H572 H 0.66484 0.8619 0.3046 0.0
H573 H 0.71391 0.84364 0.31542 0.0
C574 C 0.69798 0.80234 0.33676 0.0
C575 C 0.68601 0.78202 0.34813 0.0
C576 C 0.67052 0.81388 0.33059 0.0
C577 C 0.64559 0.77217 0.35306 0.0
C578 C 0.61774 0.78275 0.34687 0.0
C579 C 0.60255 0.81532 0.32956 0.0
C580 C 0.61432 0.83589 0.31822 0.0
C581 C 0.63012 0.80403 0.33571 0.0
C582 C 0.65503 0.84642 0.31333 0.0
C583 C 0.68291 0.83558 0.31947 0.0
H584 H 0.06669 0.87954 0.34005 0.0
H585 H 0.19122 0.91331 0.3559 0.0
H586 H 0.20962 0.88475 0.33832 0.0
H587 H 0.18632 0.84109 0.32003 0.0
H588 H 0.06217 0.80536 0.30386 0.0
H589 H 0.04748 0.84405 0.31998 0.0
C590 C 0.09832 0.88174 0.3395 0.0
C591 C 0.12735 0.89802 0.34935 0.0
C592 C 0.1083 0.86416 0.32945 0.0
C593 C 0.16816 0.90056 0.34851 0.0
C594 C 0.17863 0.88403 0.33849 0.0
C595 C 0.15621 0.84219 0.31998 0.0
C596 C 0.12487 0.81981 0.311 0.0
C597 C 0.14823 0.86418 0.32918 0.0
C598 C 0.08649 0.82217 0.31079 0.0
C599 C 0.07815 0.84414 0.32 0.0
H600 H 0.589 0.74085 0.84381 0.0
H601 H 0.66849 0.73036 0.81611 0.0
H602 H 0.73186 0.76322 0.82952 0.0
H603 H 0.76458 0.7959 0.84888 0.0
H604 H 0.68759 0.81304 0.87606 0.0
H605 H 0.62292 0.77673 0.86305 0.0
C606 C 0.62018 0.74549 0.84079 0.0
C607 C 0.62425 0.73286 0.82909 0.0
C608 C 0.65668 0.76573 0.8484 0.0
C609 C 0.66481 0.73979 0.82511 0.0
C610 C 0.70092 0.75854 0.83276 0.0
C611 C 0.73356 0.79147 0.85199 0.0
C612 C 0.73052 0.80656 0.86343 0.0
C613 C 0.69721 0.77176 0.84438 0.0
C614 C 0.69051 0.80154 0.86727 0.0
C615 C 0.65365 0.78074 0.85986 0.0
H616 H 0.16695 0.95384 0.84924 0.0
H617 H 0.08683 0.83029 0.86687 0.0
H618 H 0.09346 0.79172 0.84953 0.0
H619 H 0.13044 0.79372 0.83097 0.0
H620 H 0.21665 0.91687 0.81386 0.0
H621 H 0.19869 0.95509 0.82924 0.0
C622 C 0.15 0.91843 0.84908 0.0
C623 C 0.12639 0.89476 0.85926 0.0
C624 C 0.15563 0.89656 0.83927 0.0
C625 C 0.10514 0.84901 0.85911 0.0
C626 C 0.10911 0.82702 0.84923 0.0
C627 C 0.14498 0.82892 0.83048 0.0
C628 C 0.17547 0.85249 0.8214 0.0
C629 C 0.13566 0.85056 0.83951 0.0
C630 C 0.1933 0.89797 0.8208 0.0
C631 C 0.1832 0.91983 0.82963 0.0
H632 H 0.21574 0.31801 0.83902 0.0
H633 H 0.22722 0.24701 0.80898 0.0
H634 H 0.21166 0.29066 0.79504 0.0
H635 H 0.19583 0.34957 0.79128 0.0
H636 H 0.18698 0.42265 0.82112 0.0
H637 H 0.19937 0.37688 0.83524 0.0
C638 C 0.21526 0.31234 0.82942 0.0
C639 C 0.2229 0.27937 0.82508 0.0
C640 C 0.20593 0.33738 0.82142 0.0
C641 C 0.22167 0.27226 0.8126 0.0
C642 C 0.21249 0.29703 0.8046 0.0
C643 C 0.19569 0.35489 0.80089 0.0
C644 C 0.18999 0.38911 0.80516 0.0
C645 C 0.20433 0.32949 0.80891 0.0
C646 C 0.19093 0.39625 0.81762 0.0
C647 C 0.19839 0.37035 0.82569 0.0
H648 H 0.75338 0.59145 0.668 0.0
H649 H 0.76869 0.69635 0.69111 0.0
H650 H 0.80546 0.74876 0.67488 0.0
H651 H 0.8345 0.7648 0.65435 0.0
H652 H 0.82004 0.65985 0.63138 0.0
H653 H 0.78205 0.60739 0.64748 0.0
C654 C 0.76434 0.62572 0.66949 0.0
C655 C 0.75809 0.6399 0.68076 0.0
C656 C 0.78607 0.65568 0.6602 0.0
C657 C 0.77293 0.6845 0.68252 0.0
C658 C 0.79413 0.71451 0.67326 0.0
C659 C 0.82326 0.73048 0.65285 0.0
C660 C 0.8303 0.71635 0.64166 0.0
C661 C 0.80122 0.70048 0.66211 0.0
C662 C 0.81525 0.6717 0.6399 0.0
C663 C 0.79336 0.64165 0.64909 0.0
H664 H 0.39362 0.23104 0.67776 0.0
H665 H 0.31066 0.12932 0.70263 0.0
H666 H 0.24784 0.10909 0.68943 0.0
H667 H 0.21762 0.11913 0.67061 0.0
H668 H 0.30166 0.22035 0.64574 0.0
H669 H 0.36341 0.2422 0.65934 0.0
C670 C 0.36184 0.20439 0.68036 0.0
C671 C 0.35688 0.1815 0.69116 0.0
C672 C 0.32626 0.19296 0.67276 0.0
C673 C 0.31537 0.14734 0.69437 0.0
C674 C 0.27952 0.13581 0.68683 0.0
C675 C 0.24937 0.14616 0.66817 0.0
C676 C 0.25506 0.16803 0.65714 0.0
C677 C 0.28474 0.15824 0.67597 0.0
C678 C 0.29641 0.20294 0.65414 0.0
C679 C 0.33171 0.21539 0.66191 0.0
H680 H 0.79559 0.19155 0.67857 0.0
H681 H 0.85545 0.29533 0.65252 0.0
H682 H 0.83251 0.24162 0.63623 0.0
H683 H 0.79524 0.16523 0.62947 0.0
H684 H 0.73314 0.06162 0.65559 0.0
H685 H 0.75588 0.11535 0.67175 0.0
C686 C 0.80437 0.20235 0.66934 0.0
C687 C 0.82807 0.24724 0.66674 0.0
C688 C 0.78961 0.17139 0.66002 0.0
C689 C 0.8379 0.26088 0.65473 0.0
C690 C 0.82439 0.23022 0.64542 0.0
C691 C 0.7859 0.15433 0.63867 0.0
C692 C 0.7624 0.10935 0.64128 0.0
C693 C 0.79983 0.1854 0.64796 0.0
C694 C 0.75102 0.09597 0.65329 0.0
C695 C 0.76442 0.12667 0.66256 0.0
H696 H 0.98916 0.47852 0.52256 0.0
H697 H 0.05697 0.56799 0.49359 0.0
H698 H 0.01742 0.50959 0.47887 0.0
H699 H 0.96425 0.4329 0.47434 0.0
H700 H 0.89942 0.34274 0.50352 0.0
H701 H 0.9382 0.40132 0.51807 0.0
C702 C 0.99451 0.48535 0.513 0.0
C703 C 0.02499 0.52758 0.5091 0.0
C704 C 0.97312 0.45127 0.50467 0.0
C705 C 0.03297 0.5358 0.49675 0.0
C706 C 0.01074 0.50236 0.48836 0.0
C707 C 0.95907 0.42584 0.48388 0.0
C708 C 0.92887 0.38337 0.4878 0.0
C709 C 0.98111 0.45984 0.49223 0.0
C710 C 0.92252 0.37502 0.50022 0.0
C711 C 0.94437 0.40862 0.50856 0.0
H712 H 0.39986 0.50427 0.50361 0.0
H713 H 0.39797 0.41121 0.52904 0.0
H714 H 0.4378 0.39128 0.51476 0.0
H715 H 0.47295 0.40058 0.49515 0.0
H716 H 0.47887 0.49685 0.47019 0.0
H717 H 0.43793 0.51587 0.48433 0.0
C718 C 0.4078 0.4793 0.50598 0.0
C719 C 0.39544 0.45864 0.51728 0.0
C720 C 0.43169 0.46904 0.49789 0.0
C721 C 0.40688 0.42723 0.52037 0.0
C722 C 0.4297 0.41597 0.51222 0.0
C723 C 0.46532 0.42578 0.49279 0.0
C724 C 0.47859 0.44709 0.4816 0.0
C725 C 0.44229 0.43674 0.50098 0.0
C726 C 0.46907 0.48008 0.47876 0.0
C727 C 0.4455 0.49076 0.4868 0.0
H728 H 0.48463 0.01212 0.45394 0.0
H729 H 0.54588 0.12759 0.47617 0.0
H730 H 0.5326 0.08205 0.49407 0.0
H731 H 0.50372 0.00859 0.50331 0.0
H732 H 0.44509 0.89502 0.4802 0.0
H733 H 0.45787 0.94088 0.46277 0.0
C734 C 0.49483 0.02754 0.4627 0.0
C735 C 0.5159 0.07318 0.46371 0.0
C736 C 0.48799 0.00145 0.47281 0.0
C737 C 0.52932 0.09244 0.47514 0.0
C738 C 0.52193 0.06644 0.48537 0.0
C739 C 0.49414 0.99404 0.49444 0.0
C740 C 0.4733 0.94835 0.49312 0.0
C741 C 0.50151 0.02079 0.4843 0.0
C742 C 0.46094 0.93 0.48155 0.0
C743 C 0.46813 0.95618 0.47153 0.0
H744 H 0.48911 0.93113 -0.00184 0.0
H745 H 0.50834 0.02165 0.02678 0.0
H746 H 0.5749 0.07758 0.01692 0.0
H747 H 0.62748 0.10014 0.00024 0.0
H748 H 0.60747 0.00868 0.97181 0.0
H749 H 0.54164 0.95298 0.98182 0.0
C750 C 0.50749 0.96318 0.00224 0.0
C751 C 0.49347 0.97223 0.01318 0.0
C752 C 0.54601 0.9946 0.9967 0.0
C753 C 0.51811 0.0139 0.01833 0.0
C754 C 0.55636 0.04573 0.01274 0.0
C755 C 0.60916 0.06781 0.99632 0.0
C756 C 0.6226 0.05852 0.98531 0.0
C757 C 0.57079 0.03624 0.00198 0.0
C758 C 0.59805 0.01663 0.98029 0.0
C759 C 0.56022 0.98489 0.98596 0.0
H760 H 0.9719 0.47772 0.97378 0.0
H761 H 0.9088 0.52373 -0.00198 0.0
H762 H 0.94508 0.51135 0.01523 0.0
H763 H -0.002 0.4906 0.02309 0.0
H764 H 0.05707 0.44118 -0.00162 0.0
H765 H 0.01788 0.4503 0.98167 0.0
C766 C 0.96653 0.48554 0.98284 0.0
C767 C 0.93905 0.50296 0.98467 0.0
C768 C 0.98602 0.47681 0.99259 0.0
C769 C 0.93075 0.51123 0.99644 0.0
C770 C 0.95117 0.50381 0.00625 0.0
C771 C 0.00131 0.48074 0.0141 0.0
C772 C 0.03063 0.46548 0.01197 0.0
C773 C 0.97909 0.48676 0.00442 0.0
C774 C 0.03487 0.45318 0.00025 0.0
C775 C 0.01279 0.45875 0.99066 0.0
H776 H 0.55217 0.44877 0.99541 0.0
H777 H 0.46631 0.4562 0.96907 0.0
H778 H 0.4431 0.4916 0.98394 0.0
H779 H 0.45037 0.5236 0.00408 0.0
H780 H 0.53784 0.51688 0.03003 0.0
H781 H 0.55771 0.47827 0.01548 0.0
C782 C 0.52815 0.45784 0.99288 0.0
C783 C 0.51119 0.45009 0.9811 0.0
C784 C 0.5157 0.47873 0.00135 0.0
C785 C 0.47984 0.46176 0.97807 0.0
C786 C 0.4668 0.48222 0.98655 0.0
C787 C 0.47385 0.51377 0.00656 0.0
C788 C 0.49286 0.52346 0.01812 0.0
C789 C 0.4851 0.4915 -0.00185 0.0
C790 C 0.52289 0.51009 0.0212 0.0
C791 C 0.5342 0.48791 0.01289 0.0
H792 H 0.34394 0.03131 0.10538 0.0
H793 H 0.25215 0.0126 0.07718 0.0
H794 H 0.29153 0.99135 0.06327 0.0
H795 H 0.34736 0.971 0.05968 0.0
H796 H 0.43764 0.98685 0.08803 0.0
H797 H 0.40369 0.01651 0.10125 0.0
C798 C 0.33301 0.0234 0.09613 0.0
C799 C 0.29491 0.02332 0.09237 0.0
C800 C 0.35524 0.01015 0.08823 0.0
C801 C 0.28119 0.01276 0.08035 0.0
C802 C 0.30362 0.00042 0.07239 0.0
C803 C 0.35999 0.98134 0.06871 0.0
C804 C 0.39477 0.9762 0.07287 0.0
C805 C 0.33993 -0.00219 0.07632 0.0
C806 C 0.41077 0.99012 0.08458 0.0
C807 C 0.39131 0.00706 0.09217 0.0
H808 H 0.08237 0.40863 0.08961 0.0
H809 H 0.97216 0.3929 0.06889 0.0
H810 H 0.92463 0.32418 0.07929 0.0
H811 H 0.91557 0.2659 0.09323 0.0
H812 H 0.02724 0.28109 0.11313 0.0
H813 H 0.07285 0.3525 0.10405 0.0
C814 C 0.04783 0.3906 0.08746 0.0
C815 C 0.03095 0.40598 0.07845 0.0
C816 C 0.02097 0.35061 0.09323 0.0
C817 C 0.98609 0.38187 0.07578 0.0
C818 C 0.95891 0.34243 0.08169 0.0
C819 C 0.94982 0.28494 0.09563 0.0
C820 C 0.96792 0.26786 0.10381 0.0
C821 C 0.97618 0.32601 0.09025 0.0
C822 C 0.0124 0.29312 0.10681 0.0
C823 C 0.03858 0.3341 0.10164 0.0
H824 H 0.61972 0.60845 0.06031 0.0
H825 H 0.58508 0.6316 0.09565 0.0
H826 H 0.66194 0.66973 0.10155 0.0
H827 H 0.73905 0.70259 0.09607 0.0
H828 H 0.77431 0.68373 0.06033 0.0
H829 H 0.6971 0.63758 0.05522 0.0
C830 C 0.62887 0.62109 0.06938 0.0
C831 C 0.59661 0.61721 0.07753 0.0
C832 C 0.67331 0.64421 0.07259 0.0
C833 C 0.60919 0.63421 0.0892 0.0
C834 C 0.65318 0.65616 0.09256 0.0
C835 C 0.73001 0.68802 0.08719 0.0
C836 C 0.76261 0.69697 0.07856 0.0
C837 C 0.68557 0.66236 0.08423 0.0
C838 C 0.75003 0.67767 0.06712 0.0
C839 C 0.70583 0.65129 0.0642 0.0
H840 H 0.98613 0.35141 0.43406 0.0
H841 H 0.88737 0.29801 0.40633 0.0
H842 H 0.93032 0.27324 0.39522 0.0
H843 H 0.99287 0.26132 0.39414 0.0
H844 H 0.09184 0.31456 0.42177 0.0
H845 H 0.0518 0.34461 0.43213 0.0
C846 C 0.97431 0.33504 0.42548 0.0
C847 C 0.93332 0.32636 0.42111 0.0
C848 C -0.00109 0.32019 0.41919 0.0
C849 C 0.91866 0.30507 0.40996 0.0
C850 C 0.94311 0.29061 0.40361 0.0
C851 C 0.00577 0.27958 0.40241 0.0
C852 C 0.04505 0.28516 0.40724 0.0
C853 C 0.9827 0.29699 0.40829 0.0
C854 C 0.06159 0.30953 0.41788 0.0
C855 C 0.0387 0.32676 0.42381 0.0
H856 H 0.65065 0.59552 0.44113 0.0
H857 H 0.54033 0.55321 0.41729 0.0
H858 H 0.57817 0.62254 0.40654 0.0
H859 H 0.64473 0.69291 0.40291 0.0
H860 H 0.75516 0.73511 0.42672 0.0
H861 H 0.71482 0.66864 0.43856 0.0
C862 C 0.63476 0.60154 0.43363 0.0
C863 C 0.59287 0.56889 0.42996 0.0
C864 C 0.6567 0.64161 0.42747 0.0
C865 C 0.57262 0.57756 0.4203 0.0
C866 C 0.59426 0.61726 0.41412 0.0
C867 C 0.65976 0.68799 0.41081 0.0
C868 C 0.70314 0.71897 0.41383 0.0
C869 C 0.63659 0.64926 0.4175 0.0
C870 C 0.72193 0.71189 0.42412 0.0
C871 C 0.69895 0.67368 0.43088 0.0
H872 H 0.38502 0.98784 0.42343 0.0
H873 H 0.41078 0.01543 0.38556 0.0
H874 H 0.33277 0.97149 0.38122 0.0
H875 H 0.25712 0.93237 0.38838 0.0
H876 H 0.23115 0.90899 0.42639 0.0
H877 H 0.30941 0.94381 0.43044 0.0
C878 C 0.37372 0.9836 0.4142 0.0
C879 C 0.40377 0.00516 0.40484 0.0
C880 C 0.32869 0.9594 0.4118 0.0
C881 C 0.3884 -0.00058 0.39294 0.0
C882 C 0.34375 0.9744 0.39045 0.0
C883 C 0.26845 0.93423 0.39754 0.0
C884 C 0.23819 0.91835 0.40708 0.0
C885 C 0.31354 0.95533 0.39984 0.0
C886 C 0.25363 0.92116 0.41889 0.0
C887 C 0.29843 0.94116 0.42122 0.0
H888 H 0.75517 0.95175 0.91101 0.0
H889 H 0.81802 0.04812 0.8831 0.0
H890 H 0.79336 0.09438 0.89247 0.0
H891 H 0.75678 0.10906 0.90907 0.0
H892 H 0.69281 0.01221 0.93681 0.0
H893 H 0.71458 0.96446 0.92694 0.0
C894 C 0.76342 0.98285 0.90697 0.0
C895 C 0.78877 0.99659 0.89643 0.0
C896 C 0.74882 0.00921 0.91235 0.0
C897 C 0.79867 0.03674 0.89123 0.0
C898 C 0.78459 0.06328 0.89658 0.0
C899 C 0.74723 0.07735 0.91291 0.0
C900 C 0.72343 0.06448 0.92372 0.0
C901 C 0.76 0.05005 0.90721 0.0
C902 C 0.71116 0.02309 0.92851 0.0
C903 C 0.72377 0.99578 0.9229 0.0
H904 H 0.04102 0.64361 0.91158 0.0
H905 H 0.02854 0.6597 0.9496 0.0
H906 H 0.07589 0.73834 0.9477 0.0
H907 H 0.11447 0.80329 0.93493 0.0
H908 H 0.12792 0.78761 0.89696 0.0
H909 H 0.08738 0.70841 0.89922 0.0
C910 C 0.04913 0.66425 0.91948 0.0
C911 C 0.03062 0.64565 0.93067 0.0
C912 C 0.07649 0.70972 0.91834 0.0
C913 C 0.04198 0.67296 0.94084 0.0
C914 C 0.06903 0.71809 0.93977 0.0
C915 C 0.10919 0.78259 0.92718 0.0
C916 C 0.12379 0.80152 0.91578 0.0
C917 C 0.08553 0.73695 0.92852 0.0
C918 C 0.11699 0.77408 0.90585 0.0
C919 C 0.09352 0.72866 0.90712 0.0
H920 H 0.42347 0.41384 0.90978 0.0
H921 H 0.40862 0.30688 0.93191 0.0
H922 H 0.34343 0.25648 0.92079 0.0
H923 H 0.29354 0.24136 0.90398 0.0
H924 H 0.30836 0.34682 0.88125 0.0
H925 H 0.36996 0.39905 0.89352 0.0
C926 C 0.40577 0.37958 0.91222 0.0
C927 C 0.42137 0.36428 0.92161 0.0
C928 C 0.36816 0.35036 0.90569 0.0
C929 C 0.3978 0.31971 0.92467 0.0
C930 C 0.36034 0.29072 0.91832 0.0
C931 C 0.30975 0.27583 0.90178 0.0
C932 C 0.29638 0.29001 0.89165 0.0
C933 C 0.34564 0.30551 0.9087 0.0
C934 C 0.31794 0.3349 0.88898 0.0
C935 C 0.35336 0.36481 0.89596 0.0
H936 H 0.90422 0.66284 0.5943 0.0
H937 H 0.89608 0.7133 0.55964 0.0
H938 H 0.92916 0.6746 0.55015 0.0
H939 H 0.96719 0.63287 0.55199 0.0
H940 H 0.97921 0.58602 0.58683 0.0
H941 H 0.93746 0.61652 0.59591 0.0
C942 C 0.90898 0.66482 0.58464 0.0
C943 C 0.89792 0.69122 0.57771 0.0
C944 C 0.9291 0.64341 0.57928 0.0
C945 C 0.9045 0.69345 0.56521 0.0
C946 C 0.92353 0.6714 0.55977 0.0
C947 C 0.96014 0.6287 0.56154 0.0
C948 C 0.97665 0.60743 0.56873 0.0
C949 C 0.93703 0.64726 0.56676 0.0
C950 C 0.96718 0.60246 0.58109 0.0
C951 C 0.94335 0.61998 0.5863 0.0
H952 H 0.26685 0.29887 0.61206 0.0
H953 H 0.29582 0.23493 0.58343 0.0
H954 H 0.33627 0.30441 0.57278 0.0
H955 H 0.35848 0.38215 0.57087 0.0
H956 H 0.32864 0.44551 0.59949 0.0
H957 H 0.29424 0.37763 0.61094 0.0
C958 C 0.28216 0.3001 0.60351 0.0
C959 C 0.27777 0.26155 0.59849 0.0
C960 C 0.30538 0.34015 0.59744 0.0
C961 C 0.29841 0.26398 0.58749 0.0
C962 C 0.32157 0.30374 0.58138 0.0
C963 C 0.34516 0.38138 0.5797 0.0
C964 C 0.3459 0.41895 0.58425 0.0
C965 C 0.32466 0.34191 0.58617 0.0
C966 C 0.32841 0.41716 0.59572 0.0
C967 C 0.30849 0.37823 0.60226 0.0
H968 H 0.67161 0.06722 0.58708 0.0
H969 H 0.74384 0.05696 0.55722 0.0
H970 H 0.67863 0.02735 0.54461 0.0
H971 H 0.59949 0.9961 0.54284 0.0
H972 H 0.52635 0.00312 0.57297 0.0
H973 H 0.59362 0.04254 0.58465 0.0
C974 C 0.6734 0.0594 0.57774 0.0
C975 C 0.71255 0.06392 0.57315 0.0
C976 C 0.63542 0.04119 0.57063 0.0
C977 C 0.71412 0.05356 0.56102 0.0
C978 C 0.67676 0.0364 0.55382 0.0
C979 C 0.59822 0.00667 0.55192 0.0
C980 C 0.55773 0.99604 0.55707 0.0
C981 C 0.63692 0.02868 0.55865 0.0
C982 C 0.55693 0.01048 0.56879 0.0
C983 C 0.59542 0.033 0.5755 0.0
H984 H 0.69072 0.68013 0.73225 0.0
H985 H 0.75141 0.66575 0.76428 0.0
H986 H 0.71755 0.69867 0.77631 0.0
H987 H 0.66337 0.72231 0.77807 0.0
H988 H 0.59706 0.72963 0.74632 0.0
H989 H 0.64097 0.70937 0.73381 0.0
C990 C 0.69733 0.68502 0.74183 0.0
C991 C 0.72346 0.6703 0.74737 0.0
C992 C 0.67641 0.70241 0.74875 0.0
C993 C 0.7313 0.67658 0.7598 0.0
C994 C 0.71183 0.69531 0.76669 0.0
C995 C 0.65922 0.72054 0.76838 0.0
C996 C 0.62688 0.72743 0.76313 0.0
C997 C 0.68324 0.70704 0.76131 0.0
C998 C 0.62164 0.72442 0.75058 0.0
C999 C 0.64661 0.71264 0.74343 0.0
H1000 H 0.44494 0.06249 0.74807 0.0
H1001 H 0.3354 0.08423 0.74852 0.0
H1002 H 0.29165 0.0151 0.75924 0.0
H1003 H 0.28468 0.94807 0.76839 0.0
H1004 H 0.39398 0.92586 0.76673 0.0
H1005 H 0.43747 0.99541 0.75652 0.0
C1006 C 0.41158 0.05233 0.75059 0.0
C1007 C 0.3936 0.07869 0.74761 0.0
C1008 C 0.38645 0.01224 0.75646 0.0
C1009 C 0.35006 0.06459 0.75075 0.0
C1010 C 0.32504 0.02506 0.75686 0.0
C1011 C 0.31799 0.95846 0.76577 0.0
C1012 C 0.336 0.93172 0.76836 0.0
C1013 C 0.34287 -0.00149 0.75974 0.0
C1014 C 0.37914 0.94558 0.76483 0.0
C1015 C 0.40417 0.98549 0.75902 0.0
H1016 H 0.97292 0.31864 0.71364 0.0
H1017 H 0.90616 0.27064 0.74749 0.0
H1018 H 0.97609 0.29712 0.75772 0.0
H1019 H 0.05597 0.34155 0.75741 0.0
H1020 H 0.12259 0.39342 0.72374 0.0
H1021 H 0.05288 0.35721 0.71306 0.0
C1022 C 0.97353 0.31329 0.72322 0.0
C1023 C 0.93429 0.29311 0.72981 0.0
C1024 C 0.0139 0.32961 0.7291 0.0
C1025 C 0.93583 0.28638 0.74221 0.0
C1026 C 0.97584 0.30162 0.74808 0.0
C1027 C 0.0554 0.34433 0.74771 0.0
C1028 C 0.09448 0.37059 0.7414 0.0
C1029 C 0.01509 0.32446 0.74167 0.0
C1030 C 0.09301 0.37373 0.72883 0.0
C1031 C 0.05312 0.35313 0.72272 0.0
H1032 H 0.32538 0.32537 0.22613 0.0
H1033 H 0.31031 0.25789 0.25968 0.0
H1034 H 0.2713 0.29229 0.26819 0.0
H1035 H 0.24894 0.34755 0.26686 0.0
H1036 H 0.26848 0.41872 0.23375 0.0
H1037 H 0.29774 0.37642 0.22428 0.0
C1038 C 0.31292 0.31755 0.23524 0.0
C1039 C 0.32109 0.28928 0.24228 0.0
C1040 C 0.29159 0.33841 0.24019 0.0
C1041 C 0.30477 0.27971 0.25408 0.0
C1042 C 0.28252 0.29946 0.25897 0.0
C1043 C 0.25885 0.35334 0.2575 0.0
C1044 C 0.25678 0.38655 0.25105 0.0
C1045 C 0.27685 0.3298 0.25222 0.0
C1046 C 0.26993 0.39358 0.23895 0.0
C1047 C 0.2868 0.36947 0.23353 0.0
H1048 H 0.63293 0.99449 0.27353 0.0
H1049 H 0.64392 0.92701 0.24256 0.0
H1050 H 0.67596 0.99477 0.23099 0.0
H1051 H 0.69319 0.07101 0.22902 0.0
H1052 H 0.67811 0.13707 0.2597 0.0
H1053 H 0.65604 0.07226 0.27205 0.0
C1054 C 0.64286 0.99462 0.2643 0.0
C1055 C 0.63553 0.95545 0.2589 0.0
C1056 C 0.66042 0.03351 0.25761 0.0
C1057 C 0.64882 0.95649 0.24693 0.0
C1058 C 0.66712 0.99527 0.2403 0.0
C1059 C 0.68598 0.07161 0.23847 0.0
C1060 C 0.68709 0.10887 0.2434 0.0
C1061 C 0.67199 0.03371 0.24545 0.0
C1062 C 0.67736 0.10883 0.25565 0.0
C1063 C 0.66453 0.07168 0.26272 0.0
H1064 H 0.94254 0.66275 0.21871 0.0
H1065 H 0.89028 0.7156 0.24451 0.0
H1066 H 0.96065 0.75269 0.25493 0.0
H1067 H 0.03587 0.76678 0.25733 0.0
H1068 H 0.08773 0.71398 0.23134 0.0
H1069 H 0.01896 0.68095 0.22029 0.0
C1070 C 0.9465 0.68239 0.22661 0.0
C1071 C 0.91098 0.68593 0.23091 0.0
C1072 C 0.98712 0.7039 0.2325 0.0
C1073 C 0.91697 0.7121 0.24105 0.0
C1074 C 0.95724 0.73337 0.24701 0.0
C1075 C 0.03241 0.74863 0.24915 0.0
C1076 C 0.067 0.74271 0.24524 0.0
C1077 C 0.99244 0.72915 0.24288 0.0
C1078 C 0.06175 0.71902 0.23461 0.0
C1079 C 0.02229 0.69987 0.2283 0.0
H1080 H 0.0426 0.12018 0.11638 0.0
H1081 H 0.01276 0.09346 0.15408 0.0
H1082 H 0.07113 0.07634 0.15637 0.0
H1083 H 0.12351 0.05996 0.14727 0.0
H1084 H 0.15221 0.08179 0.10939 0.0
H1085 H 0.10172 0.11022 0.10751 0.0
C1086 C 0.04992 0.11183 0.12513 0.0
C1087 C 0.02377 0.10818 0.13509 0.0
C1088 C 0.08262 0.10038 0.12628 0.0
C1089 C 0.03271 0.09654 0.14634 0.0
C1090 C 0.06583 0.0865 0.14763 0.0
C1091 C 0.11903 0.0712 0.13859 0.0
C1092 C 0.14089 0.06801 0.12844 0.0
C1093 C 0.0898 0.08676 0.13758 0.0
C1094 C 0.13549 0.08365 0.11732 0.0
C1095 C 0.10654 0.09976 0.11625 0.0
H1096 H 0.9114 0.06716 0.09185 0.0
H1097 H 0.78276 0.9915 0.10695 0.0
H1098 H 0.77594 0.92498 0.09833 0.0
H1099 H 0.8176 0.88821 0.09369 0.0
H1100 H 0.95097 0.9645 0.08197 0.0
H1101 H 0.94508 0.03031 0.08173 0.0
C1102 C 0.8809 0.03649 0.09264 0.0
C1103 C 0.84833 0.03376 0.10039 0.0
C1104 C 0.87894 -0.00203 0.08859 0.0
C1105 C 0.80867 0.99409 0.10121 0.0
C1106 C 0.80511 0.95588 0.09646 0.0
C1107 C 0.84441 0.91885 0.09043 0.0
C1108 C 0.8848 0.92201 0.08803 0.0
C1109 C 0.8417 0.95708 0.09121 0.0
C1110 C 0.91968 0.9617 0.08393 0.0
C1111 C 0.91642 -0.00061 0.08392 0.0
H1112 H 0.9945 0.76967 0.11053 0.0
H1113 H 0.02611 0.85285 0.0796 0.0
H1114 H 0.10324 0.89008 0.08506 0.0
H1115 H 0.15373 0.91531 0.10229 0.0
H1116 H 0.11836 0.83771 0.13465 0.0
H1117 H 0.0516 0.78193 0.12506 0.0
C1118 C 0.01877 0.79393 0.10456 0.0
C1119 C 0.00466 0.80968 0.09496 0.0
C1120 C 0.06238 0.81784 0.10844 0.0
C1121 C 0.03616 0.84057 0.08716 0.0
C1122 C 0.08026 0.86277 0.09049 0.0
C1123 C 0.13237 0.88537 0.10708 0.0
C1124 C 0.14018 0.88145 0.11933 0.0
C1125 C 0.09279 0.85441 0.10171 0.0
C1126 C 0.11253 0.84209 0.12532 0.0
C1127 C 0.07416 0.81019 0.11985 0.0
H1128 H 0.08923 0.12698 0.41017 0.0
H1129 H 0.2214 0.18681 0.39727 0.0
H1130 H 0.22244 0.1193 0.40085 0.0
H1131 H 0.17693 0.03892 0.40034 0.0
H1132 H 0.04103 0.97849 0.4099 0.0
H1133 H 0.04983 0.04951 0.41501 0.0
C1134 C 0.11912 0.12603 0.40882 0.0
C1135 C 0.15451 0.16105 0.40299 0.0
C1136 C 0.11786 0.08584 0.40978 0.0
C1137 C 0.19335 0.1598 0.40153 0.0
C1138 C 0.19358 0.12078 0.40331 0.0
C1139 C 0.14992 0.04132 0.40409 0.0
C1140 C 0.10827 0.00397 0.40456 0.0
C1141 C 0.15466 0.08265 0.40629 0.0
C1142 C 0.07326 0.00713 0.40935 0.0
C1143 C 0.07826 0.04776 0.41221 0.0
H1144 H 0.95986 0.07143 0.389 0.0
H1145 H 0.99488 0.06991 0.35192 0.0
H1146 H 0.93562 0.99479 0.3498 0.0
H1147 H 0.87934 0.92804 0.35884 0.0
H1148 H 0.84465 0.92568 0.39613 0.0
H1149 H 0.8982 0.00397 0.39783 0.0
C1150 C 0.95367 0.05481 0.38041 0.0
C1151 C 0.98151 0.076 0.3706 0.0
C1152 C 0.92024 0.01088 0.37936 0.0
C1153 C 0.97382 0.05412 0.35956 0.0
C1154 C 0.94012 0.01116 0.35837 0.0
C1155 C 0.88326 0.94449 0.36737 0.0
C1156 C 0.85856 0.92086 0.3774 0.0
C1157 C 0.91409 0.98891 0.36828 0.0
C1158 C 0.86351 0.94307 0.38829 0.0
C1159 C 0.89414 0.98778 0.38926 0.0
H1160 H 0.97002 0.78347 0.40829 0.0
H1161 H 0.01151 0.75208 0.37535 0.0
H1162 H 0.93619 0.71084 0.3684 0.0
H1163 H 0.86586 0.70996 0.36887 0.0
H1164 H 0.82465 0.74188 0.402 0.0
H1165 H 0.89171 0.75548 0.41178 0.0
C1166 C 0.96219 0.76485 0.39999 0.0
C1167 C -0.00388 0.77263 0.39204 0.0
C1168 C 0.91884 0.74309 0.39583 0.0
C1169 C 0.98579 0.74741 0.3815 0.0
C1170 C 0.94266 0.72476 0.37736 0.0
C1171 C 0.87061 0.71797 0.37838 0.0
C1172 C 0.84148 0.72744 0.38447 0.0
C1173 C 0.90976 0.72635 0.38397 0.0
C1174 C 0.84733 0.73609 0.39691 0.0
C1175 C 0.8859 0.74407 0.40255 0.0
H1176 H 0.90839 0.91968 0.91878 0.0
H1177 H 0.87342 0.78545 0.91345 0.0
H1178 H 0.94814 0.80355 0.91787 0.0
H1179 H 0.02496 0.86085 0.91515 0.0
H1180 H 0.05934 0.99607 0.91685 0.0
H1181 H 0.98436 0.97489 0.922 0.0
C1182 C 0.91653 0.89393 0.9192 0.0
C1183 C 0.88627 0.85188 0.91504 0.0
C1184 C 0.96043 0.90546 0.92056 0.0
C1185 C 0.89671 0.81853 0.91618 0.0
C1186 C 0.93976 0.82907 0.91846 0.0
C1187 C 0.01635 0.88557 0.91722 0.0
C1188 C 0.04702 0.92982 0.9153 0.0
C1189 C 0.97249 0.87304 0.91939 0.0
C1190 C 0.03581 0.96173 0.91804 0.0
C1191 C 0.99288 0.9496 0.92093 0.0
H1192 H 0.28545 0.02045 0.8794 0.0
H1193 H 0.27398 0.08536 0.91064 0.0
H1194 H 0.30646 0.15437 0.89976 0.0
H1195 H 0.30818 0.18534 0.87987 0.0
H1196 H 0.3075 0.11544 0.84798 0.0
H1197 H 0.31058 0.06024 0.86036 0.0
C1198 C 0.29291 0.05041 0.88405 0.0
C1199 C 0.27495 0.04754 0.89551 0.0
C1200 C 0.30715 0.08875 0.87727 0.0
C1201 C 0.28624 0.08654 0.90164 0.0
C1202 C 0.30366 0.12587 0.89528 0.0
C1203 C 0.31047 0.159 0.8756 0.0
C1204 C 0.3053 0.15333 0.86303 0.0
C1205 C 0.30959 0.12592 0.88279 0.0
C1206 C 0.30993 0.11986 0.85765 0.0
C1207 C 0.31143 0.08802 0.86475 0.0
H1208 H 0.08832 0.06407 0.84883 0.0
H1209 H 0.09876 0.14939 0.87798 0.0
H1210 H 0.02515 0.09554 0.88472 0.0
H1211 H 0.95906 0.02214 0.88281 0.0
H1212 H 0.95226 0.93712 0.85402 0.0
H1213 H 0.02305 0.99328 0.84657 0.0
C1214 C 0.07463 0.07121 0.85664 0.0
C1215 C 0.09923 0.11074 0.86291 0.0
C1216 C 0.03276 0.04011 0.86051 0.0
C1217 C 0.08066 0.11917 0.87301 0.0
C1218 C 0.03854 0.0884 0.87685 0.0
C1219 C 0.97288 0.01635 0.8748 0.0
C1220 C 0.95049 0.97562 0.86895 0.0
C1221 C 0.01439 0.04853 0.87073 0.0
C1222 C 0.96895 0.96817 0.85869 0.0
C1223 C 0.00946 0.00021 0.85444 0.0
H1224 H 0.70458 0.87882 0.60795 0.0
H1225 H 0.7973 0.97638 0.58377 0.0
H1226 H 0.82008 0.92555 0.57681 0.0
H1227 H 0.82882 0.86298 0.5825 0.0
H1228 H 0.73701 0.76611 0.60683 0.0
H1229 H 0.69733 0.8058 0.60842 0.0
C1230 C 0.72841 0.88824 0.60079 0.0
C1231 C 0.75026 0.93164 0.59668 0.0
C1232 C 0.74181 0.85896 0.59692 0.0
C1233 C 0.78042 0.94331 0.58722 0.0
C1234 C 0.79377 0.91431 0.58329 0.0
C1235 C 0.79842 0.84914 0.58748 0.0
C1236 C 0.78608 0.81217 0.59467 0.0
C1237 C 0.77693 0.87327 0.58874 0.0
C1238 C 0.74693 0.79452 0.60119 0.0
C1239 C 0.72478 0.81778 0.60231 0.0
H1240 H 0.14755 0.99128 0.61919 0.0
H1241 H 0.1119 0.06148 0.59432 0.0
H1242 H 0.05235 0.9927 0.58657 0.0
H1243 H -0.00177 0.91659 0.59183 0.0
H1244 H 0.03142 0.84784 0.61786 0.0
H1245 H 0.10443 0.91139 0.62007 0.0
C1246 C 0.12819 0.99127 0.61161 0.0
C1247 C 0.1332 0.03111 0.60751 0.0
C1248 C 0.09273 0.9517 0.60767 0.0
C1249 C 0.10844 0.03111 0.59764 0.0
C1250 C 0.07383 0.99173 0.59337 0.0
C1251 C 0.02242 0.91493 0.59746 0.0
C1252 C 0.00988 0.87803 0.60471 0.0
C1253 C 0.06366 0.95226 0.59902 0.0
C1254 C 0.04081 0.87599 0.61215 0.0
C1255 C 0.08232 0.91251 0.61351 0.0
H1256 H 0.06475 0.1599 0.61018 0.0
H1257 H 0.04462 0.15172 0.64856 0.0
H1258 H 0.9716 0.14111 0.64568 0.0
H1259 H 0.90971 0.1205 0.63235 0.0
H1260 H 0.92633 0.12326 0.59392 0.0
H1261 H 0.00473 0.15024 0.59664 0.0
C1262 C 0.04484 0.15734 0.61789 0.0
C1263 C 0.05968 0.15626 0.62957 0.0
C1264 C 0.00206 0.14934 0.61613 0.0
C1265 C 0.03361 0.15241 0.63951 0.0
C1266 C 0.99181 0.14606 0.63786 0.0
C1267 C 0.93072 0.1278 0.62456 0.0
C1268 C 0.91249 0.11917 0.61298 0.0
C1269 C 0.97504 0.14222 0.62623 0.0
C1270 C 0.93986 0.12951 0.60293 0.0
C1271 C 0.98452 0.14464 0.6045 0.0
H1272 H 0.67899 0.43175 0.44487 0.0
H1273 H 0.64148 0.3935 0.48171 0.0
H1274 H 0.69838 0.37418 0.48379 0.0
H1275 H 0.75198 0.35979 0.47456 0.0
H1276 H 0.78843 0.39349 0.43743 0.0
H1277 H 0.73894 0.42321 0.436 0.0
C1278 C 0.68434 0.42043 0.45343 0.0
C1279 C 0.65644 0.41425 0.46317 0.0
C1280 C 0.71617 0.40773 0.45441 0.0
C1281 C 0.66282 0.39867 0.47415 0.0
C1282 C 0.69508 0.38733 0.4753 0.0
C1283 C 0.74937 0.3738 0.46613 0.0
C1284 C 0.77322 0.37366 0.45604 0.0
C1285 C 0.72078 0.39024 0.46538 0.0
C1286 C 0.77013 0.39287 0.4453 0.0
C1287 C 0.7418 0.4098 0.44449 0.0
H1288 H 0.55699 0.26087 0.40983 0.0
H1289 H 0.43428 0.16099 0.42415 0.0
H1290 H 0.40986 0.21413 0.42645 0.0
H1291 H 0.43475 0.29132 0.43075 0.0
H1292 H 0.55936 0.39122 0.41733 0.0
H1293 H 0.57064 0.336 0.40764 0.0
C1294 C 0.52404 0.25043 0.41284 0.0
C1295 C 0.49778 0.20767 0.41712 0.0
C1296 C 0.51087 0.28146 0.41447 0.0
C1297 C 0.45504 0.19396 0.42089 0.0
C1298 C 0.44131 0.22449 0.42234 0.0
C1299 C 0.46324 0.3011 0.42513 0.0
C1300 C 0.49721 0.34491 0.42528 0.0
C1301 C 0.47049 0.26889 0.42011 0.0
C1302 C 0.53321 0.35753 0.41765 0.0
C1303 C 0.54008 0.3258 0.41226 0.0
H1304 H 0.79731 0.22724 0.42858 0.0
H1305 H 0.75379 0.14424 0.45991 0.0
H1306 H 0.69 0.08992 0.44886 0.0
H1307 H 0.63675 0.08006 0.43333 0.0
H1308 H 0.67504 0.17096 0.404 0.0
H1309 H 0.75092 0.20634 0.41065 0.0
C1310 C 0.77481 0.19655 0.43287 0.0
C1311 C 0.77938 0.19057 0.44521 0.0
C1312 C 0.73667 0.16683 0.42671 0.0
C1313 C 0.75041 0.15019 0.45052 0.0
C1314 C 0.71374 0.11916 0.44421 0.0
C1315 C 0.6623 0.10577 0.42796 0.0
C1316 C 0.65037 0.12387 0.41845 0.0
C1317 C 0.70481 0.12893 0.43268 0.0
C1318 C 0.68346 0.1568 0.41145 0.0
C1319 C 0.72674 0.17783 0.41547 0.0
H1320 H 0.78544 0.49002 0.73414 0.0
H1321 H 0.85661 0.58532 0.70674 0.0
H1322 H 0.89519 0.54675 0.70131 0.0
H1323 H 0.8914 0.47517 0.70062 0.0
H1324 H 0.82143 0.38044 0.72832 0.0
H1325 H 0.80047 0.42979 0.7376 0.0
C1326 C 0.81142 0.50374 0.72752 0.0
C1327 C 0.81814 0.54018 0.72079 0.0
C1328 C 0.83268 0.48068 0.72426 0.0
C1329 C 0.85133 0.55751 0.7121 0.0
C1330 C 0.87278 0.53495 0.70884 0.0
C1331 C 0.87333 0.46631 0.70901 0.0
C1332 C 0.85723 0.42408 0.71366 0.0
C1333 C 0.86124 0.49483 0.71427 0.0
C1334 C 0.8341 0.41283 0.72456 0.0
C1335 C 0.82169 0.44087 0.72981 0.0
H1336 H 0.4663 0.34296 0.7241 0.0
H1337 H 0.54747 0.31084 0.74557 0.0
H1338 H 0.60118 0.38841 0.74787 0.0
H1339 H 0.63405 0.46056 0.73806 0.0
H1340 H 0.55661 0.48878 0.71375 0.0
H1341 H 0.49218 0.41861 0.7184 0.0
C1342 C 0.49456 0.35328 0.72989 0.0
C1343 C 0.50333 0.32163 0.73458 0.0
C1344 C 0.52667 0.39755 0.73029 0.0
C1345 C 0.54003 0.33482 0.74195 0.0
C1346 C 0.57117 0.37919 0.74303 0.0
C1347 C 0.60244 0.4521 0.73431 0.0
C1348 C 0.59969 0.47938 0.72559 0.0
C1349 C 0.56637 0.41037 0.7364 0.0
C1350 C 0.5591 0.46812 0.72053 0.0
C1351 C 0.52245 0.42783 0.7231 0.0
H1352 H 0.68466 0.19509 0.69307 0.0
H1353 H 0.7204 0.23955 0.72956 0.0
H1354 H 0.64324 0.2094 0.73479 0.0
H1355 H 0.56925 0.1882 0.72739 0.0
H1356 H 0.53648 0.15041 0.69031 0.0
H1357 H 0.60816 0.15824 0.68694 0.0
C1358 C 0.67524 0.19661 0.70227 0.0
C1359 C 0.70763 0.21991 0.71089 0.0
C1360 C 0.63127 0.1806 0.70504 0.0
C1361 C 0.69566 0.22168 0.72281 0.0
C1362 C 0.65164 0.20484 0.72575 0.0
C1363 C 0.57723 0.17964 0.71877 0.0
C1364 C 0.54818 0.16916 0.70906 0.0
C1365 C 0.61949 0.1867 0.71674 0.0
C1366 C 0.55867 0.15863 0.69786 0.0
C1367 C 0.59977 0.16359 0.69591 0.0
H1368 H 0.58142 0.16973 0.23367 0.0
H1369 H 0.50044 0.08857 0.2047 0.0
H1370 H 0.43916 0.09515 0.21216 0.0
H1371 H 0.41961 0.14445 0.22211 0.0
H1372 H 0.50658 0.23691 0.24815 0.0
H1373 H 0.55301 0.20414 0.24736 0.0
C1374 C 0.54972 0.1518 0.22935 0.0
C1375 C 0.54555 0.12959 0.2185 0.0
C1376 C 0.51569 0.15851 0.23318 0.0
C1377 C 0.50444 0.10645 0.21296 0.0
C1378 C 0.4695 0.11047 0.21719 0.0
C1379 C 0.44718 0.15537 0.22819 0.0
C1380 C 0.46051 0.19362 0.23491 0.0
C1381 C 0.47605 0.13943 0.22663 0.0
C1382 C 0.49596 0.20763 0.24282 0.0
C1383 C 0.52317 0.18957 0.24211 0.0
H1384 H 0.73972 0.32022 0.18701 0.0
H1385 H 0.7441 0.32 0.22574 0.0
H1386 H 0.77486 0.39963 0.22594 0.0
H1387 H 0.78949 0.46699 0.21498 0.0
H1388 H 0.78044 0.46386 0.17627 0.0
H1389 H 0.76348 0.38803 0.17613 0.0
C1390 C 0.748 0.33769 0.19551 0.0
C1391 C 0.73895 0.31436 0.20635 0.0
C1392 C 0.76482 0.38287 0.19552 0.0
C1393 C 0.75062 0.33735 0.21728 0.0
C1394 C 0.76796 0.38278 0.21738 0.0
C1395 C 0.78522 0.45001 0.20653 0.0
C1396 C 0.78607 0.47079 0.19563 0.0
C1397 C 0.77376 0.40567 0.20655 0.0
C1398 C 0.77984 0.4484 0.18474 0.0
C1399 C 0.76986 0.405 0.18466 0.0
H1400 H 0.63302 0.56095 0.21275 0.0
H1401 H 0.709 0.52456 0.23518 0.0
H1402 H 0.64275 0.45861 0.24142 0.0
H1403 H 0.56915 0.40199 0.23495 0.0
H1404 H 0.49458 0.43604 0.21124 0.0
H1405 H 0.55381 0.51217 0.21104 0.0
C1406 C 0.63468 0.53974 0.21953 0.0
C1407 C 0.67578 0.54666 0.22319 0.0
C1408 C 0.59671 0.50058 0.22246 0.0
C1409 C 0.67777 0.51966 0.23212 0.0
C1410 C 0.63987 0.48138 0.23549 0.0
C1411 C 0.56523 0.42667 0.23023 0.0
C1412 C 0.52812 0.41386 0.22302 0.0
C1413 C 0.59996 0.46989 0.22988 0.0
C1414 C 0.52298 0.44554 0.21686 0.0
C1415 C 0.55702 0.48891 0.21667 0.0
H1416 H 0.587 0.17953 0.9642 0.0
H1417 H 0.65263 0.21741 0.93003 0.0
H1418 H 0.62104 0.26433 0.92623 0.0
H1419 H 0.58787 0.30573 0.93484 0.0
H1420 H 0.52756 0.27054 0.96977 0.0
H1421 H 0.54277 0.2105 0.97103 0.0
C1422 C 0.59313 0.19701 0.95575 0.0
C1423 C 0.62224 0.19568 0.94745 0.0
C1424 C 0.57602 0.2246 0.95386 0.0
C1425 C 0.6301 0.21806 0.9365 0.0
C1426 C 0.61241 0.24515 0.93441 0.0
C1427 C 0.57654 0.28361 0.94245 0.0
C1428 C 0.5565 0.29197 0.95219 0.0
C1429 C 0.58716 0.25034 0.94331 0.0
C1430 C 0.54269 0.26411 0.96217 0.0
C1431 C 0.55175 0.23015 0.96293 0.0
H1432 H 0.92912 0.39684 0.95456 0.0
H1433 H 0.85802 0.38406 0.92198 0.0
H1434 H 0.82518 0.30463 0.92273 0.0
H1435 H 0.8002 0.24115 0.936 0.0
H1436 H 0.86258 0.25602 0.97039 0.0
H1437 H 0.91626 0.33154 0.96553 0.0
C1438 C 0.90842 0.37662 0.94727 0.0
C1439 C 0.89594 0.39586 0.93822 0.0
C1440 C 0.88709 0.33103 0.94834 0.0
C1441 C 0.86841 0.36976 0.92893 0.0
C1442 C 0.84903 0.32429 0.9295 0.0
C1443 C 0.82682 0.26032 0.94218 0.0
C1444 C 0.82709 0.24345 0.95363 0.0
C1445 C 0.85555 0.30464 0.93967 0.0
C1446 C 0.86155 0.26858 0.96158 0.0
C1447 C 0.89197 0.31189 0.95884 0.0
H1448 H 0.81068 0.58146 0.94332 0.0
H1449 H 0.79867 0.47706 0.92082 0.0
H1450 H 0.72583 0.46051 0.91454 0.0
H1451 H 0.65943 0.45994 0.92142 0.0
H1452 H 0.67096 0.56195 0.94483 0.0
H1453 H 0.75024 0.59713 0.94419 0.0
C1454 C 0.79312 0.55699 0.93646 0.0
C1455 C 0.80944 0.53013 0.93263 0.0
C1456 C 0.75066 0.54681 0.9332 0.0
C1457 C 0.78656 0.49818 0.92384 0.0
C1458 C 0.74461 0.48831 0.92038 0.0
C1459 C 0.67942 0.49151 0.92566 0.0
C1460 C 0.65968 0.50764 0.93349 0.0
C1461 C 0.72508 0.51005 0.92582 0.0
C1462 C 0.68566 0.54869 0.93887 0.0
C1463 C 0.73109 0.5683 0.93874 0.0
H1464 H 0.3686 0.81964 0.79014 0.0
H1465 H 0.33038 0.77957 0.82688 0.0
H1466 H 0.38939 0.76344 0.82911 0.0
H1467 H 0.44459 0.75112 0.81992 0.0
H1468 H 0.48149 0.78649 0.78291 0.0
H1469 H 0.43081 0.81479 0.7815 0.0
C1470 C 0.37401 0.80848 0.79871 0.0
C1471 C 0.34501 0.80052 0.80832 0.0
C1472 C 0.40732 0.79786 0.79981 0.0
C1473 C 0.35207 0.78566 0.81934 0.0
C1474 C 0.3857 0.77628 0.82061 0.0
C1475 C 0.44201 0.76552 0.81156 0.0
C1476 C 0.46619 0.76605 0.80147 0.0
C1477 C 0.41235 0.78067 0.81078 0.0
C1478 C 0.46311 0.78557 0.79079 0.0
C1479 C 0.43393 0.80148 0.78998 0.0
H1480 H 0.11238 0.65541 0.78371 0.0
H1481 H 0.22892 0.73623 0.76326 0.0
H1482 H 0.22787 0.67129 0.75542 0.0
H1483 H 0.20744 0.59499 0.75977 0.0
H1484 H 0.09508 0.5156 0.78175 0.0
H1485 H 0.08023 0.57589 0.7835 0.0
C1486 C 0.13633 0.65868 0.77708 0.0
C1487 C 0.17147 0.70044 0.77437 0.0
C1488 C 0.13685 0.62124 0.77316 0.0
C1489 C 0.20181 0.70444 0.76561 0.0
C1490 C 0.20163 0.66722 0.76127 0.0
C1491 C 0.17844 0.59039 0.76439 0.0
C1492 C 0.15232 0.55129 0.77064 0.0
C1493 C 0.1714 0.62585 0.76578 0.0
C1494 C 0.11525 0.54545 0.7768 0.0
C1495 C 0.10714 0.5801 0.77791 0.0
H1496 H 0.46464 0.6207 0.76964 0.0
H1497 H 0.45074 0.53008 0.79757 0.0
H1498 H 0.38619 0.47222 0.78755 0.0
H1499 H 0.32299 0.45636 0.77516 0.0
H1500 H 0.33009 0.55235 0.75016 0.0
H1501 H 0.40824 0.59807 0.75406 0.0
C1502 C 0.44853 0.5878 0.77324 0.0
C1503 C 0.46162 0.57976 0.78446 0.0
C1504 C 0.40961 0.55566 0.76791 0.0
C1505 C 0.44066 0.53708 0.78905 0.0
C1506 C 0.40364 0.50408 0.78334 0.0
C1507 C 0.34244 0.48604 0.77002 0.0
C1508 C 0.3211 0.50148 0.76255 0.0
C1509 C 0.38601 0.51405 0.77335 0.0
C1510 C 0.34603 0.5399 0.75595 0.0
C1511 C 0.39053 0.56653 0.75843 0.0
H1512 H 0.52114 0.84811 0.04132 0.0
H1513 H 0.42498 0.80307 0.06947 0.0
H1514 H 0.44053 0.74471 0.07442 0.0
H1515 H 0.46558 0.69557 0.06657 0.0
H1516 H 0.55454 0.73699 0.03665 0.0
H1517 H 0.55895 0.80816 0.03666 0.0
C1518 C 0.50521 0.82672 0.04892 0.0
C1519 C 0.47167 0.82917 0.05494 0.0
C1520 C 0.51255 0.79201 0.05118 0.0
C1521 C 0.45103 0.80166 0.06477 0.0
C1522 C 0.45945 0.76789 0.06745 0.0
C1523 C 0.48751 0.72113 0.06048 0.0
C1524 C 0.50979 0.7116 0.05162 0.0
C1525 C 0.48779 0.76096 0.06012 0.0
C1526 C 0.53746 0.74413 0.04356 0.0
C1527 C 0.53958 0.78456 0.0435 0.0
H1528 H 0.15664 0.63784 0.02805 0.0
H1529 H 0.18747 0.62737 0.06492 0.0
H1530 H 0.23789 0.70656 0.06569 0.0
H1531 H 0.28447 0.77457 0.05428 0.0
H1532 H 0.2564 0.78159 0.01687 0.0
H1533 H 0.19268 0.70848 0.01793 0.0
C1534 C 0.17338 0.65324 0.03636 0.0
C1535 C 0.16903 0.62715 0.04636 0.0
C1536 C 0.20306 0.69817 0.03656 0.0
C1537 C 0.19042 0.64705 0.05714 0.0
C1538 C 0.21953 0.69221 0.05751 0.0
C1539 C 0.26321 0.76072 0.04654 0.0
C1540 C 0.27505 0.78311 0.03548 0.0
C1541 C 0.22781 0.71766 0.04707 0.0
C1542 C 0.2478 0.76476 0.02544 0.0
C1543 C 0.21165 0.72284 0.02602 0.0
H1544 H 0.33205 0.44869 0.05066 0.0
H1545 H 0.35765 0.54594 0.07756 0.0
H1546 H 0.27993 0.52259 0.07845 0.0
H1547 H 0.21174 0.49223 0.06664 0.0
H1548 H 0.1913 0.40447 0.0373 0.0
H1549 H 0.25877 0.4051 0.04235 0.0
C1550 C 0.32004 0.46278 0.05725 0.0
C1551 C 0.35024 0.49912 0.06394 0.0
C1552 C 0.27605 0.45169 0.05689 0.0
C1553 C 0.33483 0.51769 0.07238 0.0
C1554 C 0.29045 0.50496 0.07266 0.0
C1555 C 0.22113 0.47162 0.06177 0.0
C1556 C 0.19708 0.44859 0.05157 0.0
C1557 C 0.26158 0.47463 0.06423 0.0
C1558 C 0.20958 0.42248 0.04516 0.0
C1559 C 0.24834 0.42317 0.04799 0.0
H1560 H 0.16449 0.55915 0.57023 0.0
H1561 H 0.07008 0.46289 0.54617 0.0
H1562 H 0.11011 0.42338 0.54616 0.0
H1563 H 0.18351 0.43187 0.54764 0.0
H1564 H 0.27794 0.52778 0.57186 0.0
H1565 H 0.22618 0.55124 0.57745 0.0
C1566 C 0.1512 0.52792 0.56567 0.0
C1567 C 0.11502 0.51419 0.55805 0.0
C1568 C 0.17534 0.50624 0.5654 0.0
C1569 C 0.09798 0.47391 0.55211 0.0
C1570 C 0.12139 0.45179 0.5519 0.0
C1571 C 0.19181 0.45634 0.55459 0.0
C1572 C 0.23458 0.47892 0.5591 0.0
C1573 C 0.16198 0.46989 0.55768 0.0
C1574 C 0.24515 0.51022 0.5682 0.0
C1575 C 0.21571 0.52398 0.57131 0.0
H1576 H 0.46282 0.63981 0.53146 0.0
H1577 H 0.4148 0.64219 0.56681 0.0
H1578 H 0.4402 0.72035 0.56464 0.0
H1579 H 0.45869 0.78158 0.55057 0.0
H1580 H 0.49832 0.77444 0.51442 0.0
H1581 H 0.49492 0.70532 0.51899 0.0
C1582 C 0.45989 0.65809 0.53889 0.0
C1583 C 0.43718 0.63571 0.54926 0.0
C1584 C 0.47242 0.7021 0.53728 0.0
C1585 C 0.43277 0.65911 0.55881 0.0
C1586 C 0.44667 0.7036 0.55747 0.0
C1587 C 0.46843 0.76569 0.54391 0.0
C1588 C 0.47875 0.78276 0.53218 0.0
C1589 C 0.46405 0.72468 0.54645 0.0
C1590 C 0.49044 0.76173 0.5235 0.0
C1591 C 0.48813 0.72208 0.52609 0.0
H1592 H 0.29962 0.86317 0.52846 0.0
H1593 H 0.35477 0.83069 0.5585 0.0
H1594 H 0.28172 0.77588 0.56516 0.0
H1595 H 0.2071 0.72296 0.55832 0.0
H1596 H 0.15416 0.75208 0.52713 0.0
H1597 H 0.22054 0.82302 0.52516 0.0
C1598 C 0.2953 0.8458 0.53685 0.0
C1599 C 0.33219 0.85019 0.54289 0.0
C1600 C 0.25342 0.81287 0.54021 0.0
C1601 C 0.32669 0.82777 0.55374 0.0
C1602 C 0.2849 0.79583 0.55741 0.0
C1603 C 0.20929 0.74607 0.55155 0.0
C1604 C 0.17617 0.73267 0.54286 0.0
C1605 C 0.24853 0.78582 0.55015 0.0
C1606 C 0.17928 0.76214 0.53395 0.0
C1607 C 0.2175 0.8024 0.53274 0.0
H1608 H 0.18289 0.54662 0.26175 0.0
H1609 H 0.10528 0.47412 0.29216 0.0
H1610 H 0.07228 0.52023 0.29308 0.0
H1611 H 0.08297 0.59318 0.28904 0.0
H1612 H 0.16166 0.66723 0.25893 0.0
H1613 H 0.17612 0.60841 0.25388 0.0
C1614 C 0.15681 0.53939 0.26808 0.0
C1615 C 0.14662 0.50741 0.27693 0.0
C1616 C 0.13929 0.56732 0.26885 0.0
C1617 C 0.11335 0.49855 0.28523 0.0
C1618 C 0.09502 0.5254 0.28589 0.0
C1619 C 0.10165 0.59548 0.28107 0.0
C1620 C 0.12203 0.63462 0.27453 0.0
C1621 C 0.11032 0.56183 0.27834 0.0
C1622 C 0.14582 0.63735 0.26413 0.0
C1623 C 0.15447 0.60388 0.26131 0.0
H1624 H 0.50538 0.69931 0.28639 0.0
H1625 H 0.44768 0.7457 0.26048 0.0
H1626 H 0.3898 0.67063 0.25644 0.0
H1627 H 0.34574 0.5963 0.26483 0.0
H1628 H 0.40027 0.55327 0.29265 0.0
H1629 H 0.4697 0.62168 0.29127 0.0
C1630 C 0.48139 0.69256 0.27939 0.0
C1631 C 0.48038 0.72751 0.27376 0.0
C1632 C 0.44703 0.64978 0.27772 0.0
C1633 C 0.44913 0.71902 0.26482 0.0
C1634 C 0.41563 0.67615 0.26268 0.0
C1635 C 0.37366 0.60129 0.27012 0.0
C1636 C 0.36838 0.57022 0.27882 0.0
C1637 C 0.41262 0.64176 0.26973 0.0
C1638 C 0.40407 0.57692 0.28587 0.0
C1639 C 0.44353 0.61615 0.28515 0.0
H1640 H 0.43401 0.86165 0.27285 0.0
H1641 H 0.43793 0.9047 0.30933 0.0
H1642 H 0.36761 0.90071 0.30651 0.0
H1643 H 0.29865 0.86775 0.29552 0.0
H1644 H 0.29023 0.81647 0.2599 0.0
H1645 H 0.36873 0.84169 0.2603 0.0
C1646 C 0.42022 0.87194 0.27998 0.0
C1647 C 0.44082 0.88328 0.29131 0.0
C1648 C 0.37853 0.8672 0.27847 0.0
C1649 C 0.42249 0.89584 0.30056 0.0
C1650 C 0.38216 0.89321 0.29897 0.0
C1651 C 0.31453 0.86383 0.28765 0.0
C1652 C 0.28906 0.8403 0.27772 0.0
C1653 C 0.35883 0.8764 0.28824 0.0
C1654 C 0.30947 0.83493 0.26759 0.0
C1655 C 0.35419 0.84879 0.26791 0.0
loop_
_geom_bond_atom_site_label_1
_geom_bond_atom_site_label_2
_geom_bond_distance
_geom_bond_site_symmetry_2
_ccdc_geom_bond_type
Zn0 O3 2.031 . S
Zn0 O5 2.049 . S
Zn0 O10 2.067 . S
Zn1 O2 1.962 1_545 S
Zn1 O4 1.986 . S
Zn1 O6 1.996 . S
Zn1 O9 1.943 . S
O2 Zn1 1.962 1_565 S
O2 C7 1.254 . S
O3 Zn0 2.031 . S
O3 C7 1.269 1_545 S
O4 Zn1 1.986 . S
O4 C11 1.262 . S
O5 Zn0 2.049 . S
O5 C13 1.260 . S
O6 Zn1 1.996 . S
O6 C13 1.257 . S
C7 O2 1.254 . S
C7 O3 1.269 1_565 S
C8 O9 1.249 . S
C8 O10 1.270 . S
O9 Zn1 1.943 . S
O9 C8 1.249 . S
O10 Zn0 2.067 . S
O10 C8 1.270 . S
C11 O4 1.262 . S
C11 O12 1.232 . S
O12 C11 1.232 . S
C13 O5 1.260 . S
C13 O6 1.257 . S
Zn14 O17 2.031 . S
Zn14 O19 2.049 . S
Zn14 O24 2.067 . S
Zn15 O16 1.962 1_655 S
Zn15 O18 1.986 . S
Zn15 O20 1.996 . S
Zn15 O23 1.943 . S
O16 Zn15 1.962 1_455 S
O16 C21 1.254 . S
O17 Zn14 2.031 . S
O17 C21 1.269 1_655 S
O18 Zn15 1.986 . S
O18 C25 1.262 . S
O19 Zn14 2.049 . S
O19 C27 1.260 . S
O20 Zn15 1.996 . S
O20 C27 1.257 . S
C21 O16 1.254 . S
C21 O17 1.269 1_455 S
C22 O23 1.249 . S
C22 O24 1.270 . S
O23 Zn15 1.943 . S
O23 C22 1.249 . S
O24 Zn14 2.067 . S
O24 C22 1.270 . S
C25 O18 1.262 . S
C25 O26 1.232 . S
O26 C25 1.232 . S
C27 O19 1.260 . S
C27 O20 1.257 . S
Zn28 O31 2.031 . S
Zn28 O33 2.049 . S
Zn28 O38 2.067 . S
Zn29 O30 1.962 . S
Zn29 O32 1.986 . S
Zn29 O34 1.996 . S
Zn29 O37 1.943 . S
O30 Zn29 1.962 . S
O30 C35 1.254 . S
O31 Zn28 2.031 . S
O31 C35 1.269 . S
O32 Zn29 1.986 . S
O32 C39 1.262 . S
O33 Zn28 2.049 . S
O33 C41 1.260 . S
O34 Zn29 1.996 . S
O34 C41 1.257 . S
C35 O30 1.254 . S
C35 O31 1.269 . S
C36 O37 1.249 . S
C36 O38 1.270 . S
O37 Zn29 1.943 . S
O37 C36 1.249 . S
O38 Zn28 2.067 . S
O38 C36 1.270 . S
C39 O32 1.262 . S
C39 O40 1.232 . S
O40 C39 1.232 . S
C41 O33 1.260 . S
C41 O34 1.257 . S
Zn42 O45 2.031 . S
Zn42 O47 2.049 . S
Zn42 O52 2.067 . S
Zn43 O44 1.962 1_455 S
Zn43 O46 1.986 . S
Zn43 O48 1.996 . S
Zn43 O51 1.943 . S
O44 Zn43 1.962 1_655 S
O44 C49 1.254 . S
O45 Zn42 2.031 . S
O45 C49 1.269 1_455 S
O46 Zn43 1.986 . S
O46 C53 1.262 . S
O47 Zn42 2.049 . S
O47 C55 1.260 . S
O48 Zn43 1.996 . S
O48 C55 1.257 . S
C49 O44 1.254 . S
C49 O45 1.269 1_655 S
C50 O51 1.249 . S
C50 O52 1.270 . S
O51 Zn43 1.943 . S
O51 C50 1.249 . S
O52 Zn42 2.067 . S
O52 C50 1.270 . S
C53 O46 1.262 . S
C53 O54 1.232 . S
O54 C53 1.232 . S
C55 O47 1.260 . S
C55 O48 1.257 . S
Zn56 O59 2.031 . S
Zn56 O61 2.049 . S
Zn56 O66 2.067 . S
Zn57 O58 1.962 . S
Zn57 O60 1.986 . S
Zn57 O62 1.996 . S
Zn57 O65 1.943 . S
O58 Zn57 1.962 . S
O58 C63 1.254 . S
O59 Zn56 2.031 . S
O59 C63 1.269 . S
O60 Zn57 1.986 . S
O60 C67 1.262 . S
O61 Zn56 2.049 . S
O61 C69 1.260 . S
O62 Zn57 1.996 . S
O62 C69 1.257 . S
C63 O58 1.254 . S
C63 O59 1.269 . S
C64 O65 1.249 . S
C64 O66 1.270 . S
O65 Zn57 1.943 . S
O65 C64 1.249 . S
O66 Zn56 2.067 . S
O66 C64 1.270 . S
C67 O60 1.262 . S
C67 O68 1.232 . S
O68 C67 1.232 . S
C69 O61 1.260 . S
C69 O62 1.257 . S
Zn70 O73 2.031 . S
Zn70 O75 2.049 . S
Zn70 O80 2.067 . S
Zn71 O72 1.962 1_565 S
Zn71 O74 1.986 . S
Zn71 O76 1.996 . S
Zn71 O79 1.943 . S
O72 Zn71 1.962 1_545 S
O72 C77 1.254 . S
O73 Zn70 2.031 . S
O73 C77 1.269 1_565 S
O74 Zn71 1.986 . S
O74 C81 1.262 . S
O75 Zn70 2.049 . S
O75 C83 1.260 . S
O76 Zn71 1.996 . S
O76 C83 1.257 . S
C77 O72 1.254 . S
C77 O73 1.269 1_545 S
C78 O79 1.249 . S
C78 O80 1.270 . S
O79 Zn71 1.943 . S
O79 C78 1.249 . S
O80 Zn70 2.067 . S
O80 C78 1.270 . S
C81 O74 1.262 . S
C81 O82 1.232 . S
O82 C81 1.232 . S
C83 O75 1.260 . S
C83 O76 1.257 . S
Zn84 O87 2.031 . S
Zn84 O89 2.049 . S
Zn84 O94 2.067 . S
Zn85 O86 1.962 1_565 S
Zn85 O88 1.986 . S
Zn85 O90 1.996 . S
Zn85 O93 1.943 . S
O86 Zn85 1.962 1_545 S
O86 C91 1.254 . S
O87 Zn84 2.031 . S
O87 C91 1.269 1_565 S
O88 Zn85 1.986 . S
O88 C95 1.262 . S
O89 Zn84 2.049 . S
O89 C97 1.260 . S
O90 Zn85 1.996 . S
O90 C97 1.257 . S
C91 O86 1.254 . S
C91 O87 1.269 1_545 S
C92 O93 1.249 . S
C92 O94 1.270 . S
O93 Zn85 1.943 . S
O93 C92 1.249 . S
O94 Zn84 2.067 . S
O94 C92 1.270 . S
C95 O88 1.262 . S
C95 O96 1.232 . S
O96 C95 1.232 . S
C97 O89 1.260 . S
C97 O90 1.257 . S
Zn98 O101 2.031 . S
Zn98 O103 2.049 . S
Zn98 O108 2.067 . S
Zn99 O100 1.962 1_455 S
Zn99 O102 1.986 . S
Zn99 O104 1.996 . S
Zn99 O107 1.943 . S
O100 Zn99 1.962 1_655 S
O100 C105 1.254 . S
O101 Zn98 2.031 . S
O101 C105 1.269 1_455 S
O102 Zn99 1.986 . S
O102 C109 1.262 . S
O103 Zn98 2.049 . S
O103 C111 1.260 . S
O104 Zn99 1.996 . S
O104 C111 1.257 . S
C105 O100 1.254 . S
C105 O101 1.269 1_655 S
C106 O107 1.249 . S
C106 O108 1.270 . S
O107 Zn99 1.943 . S
O107 C106 1.249 . S
O108 Zn98 2.067 . S
O108 C106 1.270 . S
C109 O102 1.262 . S
C109 O110 1.232 . S
O110 C109 1.232 . S
C111 O103 1.260 . S
C111 O104 1.257 . S
Zn112 O115 2.031 . S
Zn112 O117 2.049 . S
Zn112 O122 2.067 . S
Zn113 O114 1.962 . S
Zn113 O116 1.986 . S
Zn113 O118 1.996 . S
Zn113 O121 1.943 . S
O114 Zn113 1.962 . S
O114 C119 1.254 . S
O115 Zn112 2.031 . S
O115 C119 1.269 . S
O116 Zn113 1.986 . S
O116 C123 1.262 . S
O117 Zn112 2.049 . S
O117 C125 1.260 . S
O118 Zn113 1.996 . S
O118 C125 1.257 . S
C119 O114 1.254 . S
C119 O115 1.269 . S
C120 O121 1.249 . S
C120 O122 1.270 . S
O121 Zn113 1.943 . S
O121 C120 1.249 . S
O122 Zn112 2.067 . S
O122 C120 1.270 . S
C123 O116 1.262 . S
C123 O124 1.232 . S
O124 C123 1.232 . S
C125 O117 1.260 . S
C125 O118 1.257 . S
Zn126 O129 2.031 . S
Zn126 O131 2.049 . S
Zn126 O136 2.067 . S
Zn127 O128 1.962 1_655 S
Zn127 O130 1.986 . S
Zn127 O132 1.996 . S
Zn127 O135 1.943 . S
O128 Zn127 1.962 1_455 S
O128 C133 1.254 . S
O129 Zn126 2.031 . S
O129 C133 1.269 1_655 S
O130 Zn127 1.986 . S
O130 C137 1.262 . S
O131 Zn126 2.049 . S
O131 C139 1.260 . S
O132 Zn127 1.996 . S
O132 C139 1.257 . S
C133 O128 1.254 . S
C133 O129 1.269 1_455 S
C134 O135 1.249 . S
C134 O136 1.270 . S
O135 Zn127 1.943 . S
O135 C134 1.249 . S
O136 Zn126 2.067 . S
O136 C134 1.270 . S
C137 O130 1.262 . S
C137 O138 1.232 . S
O138 C137 1.232 . S
C139 O131 1.260 . S
C139 O132 1.257 . S
Zn140 O143 2.031 . S
Zn140 O145 2.049 . S
Zn140 O150 2.067 . S
Zn141 O142 1.962 . S
Zn141 O144 1.986 . S
Zn141 O146 1.996 . S
Zn141 O149 1.943 . S
O142 Zn141 1.962 . S
O142 C147 1.254 . S
O143 Zn140 2.031 . S
O143 C147 1.269 . S
O144 Zn141 1.986 . S
O144 C151 1.262 . S
O145 Zn140 2.049 . S
O145 C153 1.260 . S
O146 Zn141 1.996 . S
O146 C153 1.257 . S
C147 O142 1.254 . S
C147 O143 1.269 . S
C148 O149 1.249 . S
C148 O150 1.270 . S
O149 Zn141 1.943 . S
O149 C148 1.249 . S
O150 Zn140 2.067 . S
O150 C148 1.270 . S
C151 O144 1.262 . S
C151 O152 1.232 . S
O152 C151 1.232 . S
C153 O145 1.260 . S
C153 O146 1.257 . S
Zn154 O157 2.031 . S
Zn154 O159 2.049 . S
Zn154 O164 2.067 . S
Zn155 O156 1.962 1_545 S
Zn155 O158 1.986 . S
Zn155 O160 1.996 . S
Zn155 O163 1.943 . S
O156 Zn155 1.962 1_565 S
O156 C161 1.254 . S
O157 Zn154 2.031 . S
O157 C161 1.269 1_545 S
O158 Zn155 1.986 . S
O158 C165 1.262 . S
O159 Zn154 2.049 . S
O159 C167 1.260 . S
O160 Zn155 1.996 . S
O160 C167 1.257 . S
C161 O156 1.254 . S
C161 O157 1.269 1_565 S
C162 O163 1.249 . S
C162 O164 1.270 . S
O163 Zn155 1.943 . S
O163 C162 1.249 . S
O164 Zn154 2.067 . S
O164 C162 1.270 . S
C165 O158 1.262 . S
C165 O166 1.232 . S
O166 C165 1.232 . S
C167 O159 1.260 . S
C167 O160 1.257 . S
Zn168 O171 2.031 . S
Zn168 O173 2.049 . S
Zn168 O178 2.067 . S
Zn169 O170 1.962 . S
Zn169 O172 1.986 . S
Zn169 O174 1.996 . S
Zn169 O177 1.943 . S
O170 Zn169 1.962 . S
O170 C175 1.254 . S
O171 Zn168 2.031 . S
O171 C175 1.269 . S
O172 Zn169 1.986 . S
O172 C179 1.262 . S
O173 Zn168 2.049 . S
O173 C181 1.260 . S
O174 Zn169 1.996 . S
O174 C181 1.257 . S
C175 O170 1.254 . S
C175 O171 1.269 . S
C176 O177 1.249 . S
C176 O178 1.270 . S
O177 Zn169 1.943 . S
O177 C176 1.249 . S
O178 Zn168 2.067 . S
O178 C176 1.270 . S
C179 O172 1.262 . S
C179 O180 1.232 . S
O180 C179 1.232 . S
C181 O173 1.260 . S
C181 O174 1.257 . S
Zn182 O185 2.031 . S
Zn182 O187 2.049 . S
Zn182 O192 2.067 . S
Zn183 O184 1.962 . S
Zn183 O186 1.986 . S
Zn183 O188 1.996 . S
Zn183 O191 1.943 . S
O184 Zn183 1.962 . S
O184 C189 1.254 . S
O185 Zn182 2.031 . S
O185 C189 1.269 . S
O186 Zn183 1.986 . S
O186 C193 1.262 . S
O187 Zn182 2.049 . S
O187 C195 1.260 . S
O188 Zn183 1.996 . S
O188 C195 1.257 . S
C189 O184 1.254 . S
C189 O185 1.269 . S
C190 O191 1.249 . S
C190 O192 1.270 . S
O191 Zn183 1.943 . S
O191 C190 1.249 . S
O192 Zn182 2.067 . S
O192 C190 1.270 . S
C193 O186 1.262 . S
C193 O194 1.232 . S
O194 C193 1.232 . S
C195 O187 1.260 . S
C195 O188 1.257 . S
Zn196 O199 2.031 . S
Zn196 O201 2.049 . S
Zn196 O206 2.067 . S
Zn197 O198 1.962 . S
Zn197 O200 1.986 . S
Zn197 O202 1.996 . S
Zn197 O205 1.943 . S
O198 Zn197 1.962 . S
O198 C203 1.254 . S
O199 Zn196 2.031 . S
O199 C203 1.269 . S
O200 Zn197 1.986 . S
O200 C207 1.262 . S
O201 Zn196 2.049 . S
O201 C209 1.260 . S
O202 Zn197 1.996 . S
O202 C209 1.257 . S
C203 O198 1.254 . S
C203 O199 1.269 . S
C204 O205 1.249 . S
C204 O206 1.270 . S
O205 Zn197 1.943 . S
O205 C204 1.249 . S
O206 Zn196 2.067 . S
O206 C204 1.270 . S
C207 O200 1.262 . S
C207 O208 1.232 . S
O208 C207 1.232 . S
C209 O201 1.260 . S
C209 O202 1.257 . S
Zn210 O213 2.031 . S
Zn210 O215 2.049 . S
Zn210 O220 2.067 . S
Zn211 O212 1.962 . S
Zn211 O214 1.986 . S
Zn211 O216 1.996 . S
Zn211 O219 1.943 . S
O212 Zn211 1.962 . S
O212 C217 1.254 . S
O213 Zn210 2.031 . S
O213 C217 1.269 . S
O214 Zn211 1.986 . S
O214 C221 1.262 . S
O215 Zn210 2.049 . S
O215 C223 1.260 . S
O216 Zn211 1.996 . S
O216 C223 1.257 . S
C217 O212 1.254 . S
C217 O213 1.269 . S
C218 O219 1.249 . S
C218 O220 1.270 . S
O219 Zn211 1.943 . S
O219 C218 1.249 . S
O220 Zn210 2.067 . S
O220 C218 1.270 . S
C221 O214 1.262 . S
C221 O222 1.232 . S
O222 C221 1.232 . S
C223 O215 1.260 . S
C223 O216 1.257 . S
Zn224 O227 2.031 . S
Zn224 O229 2.049 . S
Zn224 O234 2.067 . S
Zn225 O226 1.962 . S
Zn225 O228 1.986 . S
Zn225 O230 1.996 . S
Zn225 O233 1.943 . S
O226 Zn225 1.962 . S
O226 C231 1.254 . S
O227 Zn224 2.031 . S
O227 C231 1.269 . S
O228 Zn225 1.986 . S
O228 C235 1.262 . S
O229 Zn224 2.049 . S
O229 C237 1.260 . S
O230 Zn225 1.996 . S
O230 C237 1.257 . S
C231 O226 1.254 . S
C231 O227 1.269 . S
C232 O233 1.249 . S
C232 O234 1.270 . S
O233 Zn225 1.943 . S
O233 C232 1.249 . S
O234 Zn224 2.067 . S
O234 C232 1.270 . S
C235 O228 1.262 . S
C235 O236 1.232 . S
O236 C235 1.232 . S
C237 O229 1.260 . S
C237 O230 1.257 . S
Zn238 O241 2.031 . S
Zn238 O243 2.049 . S
Zn238 O248 2.067 . S
Zn239 O240 1.962 . S
Zn239 O242 1.986 . S
Zn239 O244 1.996 . S
Zn239 O247 1.943 . S
O240 Zn239 1.962 . S
O240 C245 1.254 . S
O241 Zn238 2.031 . S
O241 C245 1.269 . S
O242 Zn239 1.986 . S
O242 C249 1.262 . S
O243 Zn238 2.049 . S
O243 C251 1.260 . S
O244 Zn239 1.996 . S
O244 C251 1.257 . S
C245 O240 1.254 . S
C245 O241 1.269 . S
C246 O247 1.249 . S
C246 O248 1.270 . S
O247 Zn239 1.943 . S
O247 C246 1.249 . S
O248 Zn238 2.067 . S
O248 C246 1.270 . S
C249 O242 1.262 . S
C249 O250 1.232 . S
O250 C249 1.232 . S
C251 O243 1.260 . S
C251 O244 1.257 . S
Zn252 O255 2.031 . S
Zn252 O257 2.049 . S
Zn252 O262 2.067 . S
Zn253 O254 1.962 . S
Zn253 O256 1.986 . S
Zn253 O258 1.996 . S
Zn253 O261 1.943 . S
O254 Zn253 1.962 . S
O254 C259 1.254 . S
O255 Zn252 2.031 . S
O255 C259 1.269 . S
O256 Zn253 1.986 . S
O256 C263 1.262 . S
O257 Zn252 2.049 . S
O257 C265 1.260 . S
O258 Zn253 1.996 . S
O258 C265 1.257 . S
C259 O254 1.254 . S
C259 O255 1.269 . S
C260 O261 1.249 . S
C260 O262 1.270 . S
O261 Zn253 1.943 . S
O261 C260 1.249 . S
O262 Zn252 2.067 . S
O262 C260 1.270 . S
C263 O256 1.262 . S
C263 O264 1.232 . S
O264 C263 1.232 . S
C265 O257 1.260 . S
C265 O258 1.257 . S
Zn266 O269 2.031 . S
Zn266 O271 2.049 . S
Zn266 O276 2.067 . S
Zn267 O268 1.962 . S
Zn267 O270 1.986 . S
Zn267 O272 1.996 . S
Zn267 O275 1.943 . S
O268 Zn267 1.962 . S
O268 C273 1.254 . S
O269 Zn266 2.031 . S
O269 C273 1.269 . S
O270 Zn267 1.986 . S
O270 C277 1.262 . S
O271 Zn266 2.049 . S
O271 C279 1.260 . S
O272 Zn267 1.996 . S
O272 C279 1.257 . S
C273 O268 1.254 . S
C273 O269 1.269 . S
C274 O275 1.249 . S
C274 O276 1.270 . S
O275 Zn267 1.943 . S
O275 C274 1.249 . S
O276 Zn266 2.067 . S
O276 C274 1.270 . S
C277 O270 1.262 . S
C277 O278 1.232 . S
O278 C277 1.232 . S
C279 O271 1.260 . S
C279 O272 1.257 . S
Zn280 O283 2.031 . S
Zn280 O285 2.049 . S
Zn280 O290 2.067 . S
Zn281 O282 1.962 . S
Zn281 O284 1.986 . S
Zn281 O286 1.996 . S
Zn281 O289 1.943 . S
O282 Zn281 1.962 . S
O282 C287 1.254 . S
O283 Zn280 2.031 . S
O283 C287 1.269 . S
O284 Zn281 1.986 . S
O284 C291 1.262 . S
O285 Zn280 2.049 . S
O285 C293 1.260 . S
O286 Zn281 1.996 . S
O286 C293 1.257 . S
C287 O282 1.254 . S
C287 O283 1.269 . S
C288 O289 1.249 . S
C288 O290 1.270 . S
O289 Zn281 1.943 . S
O289 C288 1.249 . S
O290 Zn280 2.067 . S
O290 C288 1.270 . S
C291 O284 1.262 . S
C291 O292 1.232 . S
O292 C291 1.232 . S
C293 O285 1.260 . S
C293 O286 1.257 . S
Zn294 O297 2.031 . S
Zn294 O299 2.049 . S
Zn294 O304 2.067 . S
Zn295 O296 1.962 . S
Zn295 O298 1.986 . S
Zn295 O300 1.996 . S
Zn295 O303 1.943 . S
O296 Zn295 1.962 . S
O296 C301 1.254 . S
O297 Zn294 2.031 . S
O297 C301 1.269 . S
O298 Zn295 1.986 . S
O298 C305 1.262 . S
O299 Zn294 2.049 . S
O299 C307 1.260 . S
O300 Zn295 1.996 . S
O300 C307 1.257 . S
C301 O296 1.254 . S
C301 O297 1.269 . S
C302 O303 1.249 . S
C302 O304 1.270 . S
O303 Zn295 1.943 . S
O303 C302 1.249 . S
O304 Zn294 2.067 . S
O304 C302 1.270 . S
C305 O298 1.262 . S
C305 O306 1.232 . S
O306 C305 1.232 . S
C307 O299 1.260 . S
C307 O300 1.257 . S
Zn308 O311 2.031 . S
Zn308 O313 2.049 . S
Zn308 O318 2.067 . S
Zn309 O310 1.962 . S
Zn309 O312 1.986 . S
Zn309 O314 1.996 . S
Zn309 O317 1.943 . S
O310 Zn309 1.962 . S
O310 C315 1.254 . S
O311 Zn308 2.031 . S
O311 C315 1.269 . S
O312 Zn309 1.986 . S
O312 C319 1.262 . S
O313 Zn308 2.049 . S
O313 C321 1.260 . S
O314 Zn309 1.996 . S
O314 C321 1.257 . S
C315 O310 1.254 . S
C315 O311 1.269 . S
C316 O317 1.249 . S
C316 O318 1.270 . S
O317 Zn309 1.943 . S
O317 C316 1.249 . S
O318 Zn308 2.067 . S
O318 C316 1.270 . S
C319 O312 1.262 . S
C319 O320 1.232 . S
O320 C319 1.232 . S
C321 O313 1.260 . S
C321 O314 1.257 . S
Zn322 O325 2.031 . S
Zn322 O327 2.049 . S
Zn322 O332 2.067 . S
Zn323 O324 1.962 . S
Zn323 O326 1.986 . S
Zn323 O328 1.996 . S
Zn323 O331 1.943 . S
O324 Zn323 1.962 . S
O324 C329 1.254 . S
O325 Zn322 2.031 . S
O325 C329 1.269 . S
O326 Zn323 1.986 . S
O326 C333 1.262 . S
O327 Zn322 2.049 . S
O327 C335 1.260 . S
O328 Zn323 1.996 . S
O328 C335 1.257 . S
C329 O324 1.254 . S
C329 O325 1.269 . S
C330 O331 1.249 . S
C330 O332 1.270 . S
O331 Zn323 1.943 . S
O331 C330 1.249 . S
O332 Zn322 2.067 . S
O332 C330 1.270 . S
C333 O326 1.262 . S
C333 O334 1.232 . S
O334 C333 1.232 . S
C335 O327 1.260 . S
C335 O328 1.257 . S
Zn336 O339 2.031 . S
Zn336 O341 2.049 . S
Zn336 O346 2.067 . S
Zn337 O338 1.962 . S
Zn337 O340 1.986 . S
Zn337 O342 1.996 . S
Zn337 O345 1.943 . S
O338 Zn337 1.962 . S
O338 C343 1.254 . S
O339 Zn336 2.031 . S
O339 C343 1.269 . S
O340 Zn337 1.986 . S
O340 C347 1.262 . S
O341 Zn336 2.049 . S
O341 C349 1.260 . S
O342 Zn337 1.996 . S
O342 C349 1.257 . S
C343 O338 1.254 . S
C343 O339 1.269 . S
C344 O345 1.249 . S
C344 O346 1.270 . S
O345 Zn337 1.943 . S
O345 C344 1.249 . S
O346 Zn336 2.067 . S
O346 C344 1.270 . S
C347 O340 1.262 . S
C347 O348 1.232 . S
O348 C347 1.232 . S
C349 O341 1.260 . S
C349 O342 1.257 . S
Zn350 O353 2.031 . S
Zn350 O355 2.049 . S
Zn350 O360 2.067 . S
Zn351 O352 1.962 . S
Zn351 O354 1.986 . S
Zn351 O356 1.996 . S
Zn351 O359 1.943 . S
O352 Zn351 1.962 . S
O352 C357 1.254 . S
O353 Zn350 2.031 . S
O353 C357 1.269 . S
O354 Zn351 1.986 . S
O354 C361 1.262 . S
O355 Zn350 2.049 . S
O355 C363 1.260 . S
O356 Zn351 1.996 . S
O356 C363 1.257 . S
C357 O352 1.254 . S
C357 O353 1.269 . S
C358 O359 1.249 . S
C358 O360 1.270 . S
O359 Zn351 1.943 . S
O359 C358 1.249 . S
O360 Zn350 2.067 . S
O360 C358 1.270 . S
C361 O354 1.262 . S
C361 O362 1.232 . S
O362 C361 1.232 . S
C363 O355 1.260 . S
C363 O356 1.257 . S
Zn364 O367 2.031 . S
Zn364 O369 2.049 . S
Zn364 O374 2.067 . S
Zn365 O366 1.962 . S
Zn365 O368 1.986 . S
Zn365 O370 1.996 . S
Zn365 O373 1.943 . S
O366 Zn365 1.962 . S
O366 C371 1.254 . S
O367 Zn364 2.031 . S
O367 C371 1.269 . S
O368 Zn365 1.986 . S
O368 C375 1.262 . S
O369 Zn364 2.049 . S
O369 C377 1.260 . S
O370 Zn365 1.996 . S
O370 C377 1.257 . S
C371 O366 1.254 . S
C371 O367 1.269 . S
C372 O373 1.249 . S
C372 O374 1.270 . S
O373 Zn365 1.943 . S
O373 C372 1.249 . S
O374 Zn364 2.067 . S
O374 C372 1.270 . S
C375 O368 1.262 . S
C375 O376 1.232 . S
O376 C375 1.232 . S
C377 O369 1.260 . S
C377 O370 1.257 . S
Zn378 O381 2.031 . S
Zn378 O383 2.049 . S
Zn378 O388 2.067 . S
Zn379 O380 1.962 . S
Zn379 O382 1.986 . S
Zn379 O384 1.996 . S
Zn379 O387 1.943 . S
O380 Zn379 1.962 . S
O380 C385 1.254 . S
O381 Zn378 2.031 . S
O381 C385 1.269 . S
O382 Zn379 1.986 . S
O382 C389 1.262 . S
O383 Zn378 2.049 . S
O383 C391 1.260 . S
O384 Zn379 1.996 . S
O384 C391 1.257 . S
C385 O380 1.254 . S
C385 O381 1.269 . S
C386 O387 1.249 . S
C386 O388 1.270 . S
O387 Zn379 1.943 . S
O387 C386 1.249 . S
O388 Zn378 2.067 . S
O388 C386 1.270 . S
C389 O382 1.262 . S
C389 O390 1.232 . S
O390 C389 1.232 . S
C391 O383 1.260 . S
C391 O384 1.257 . S
Zn392 O395 2.031 . S
Zn392 O397 2.049 . S
Zn392 O402 2.067 . S
Zn393 O394 1.962 . S
Zn393 O396 1.986 . S
Zn393 O398 1.996 . S
Zn393 O401 1.943 . S
O394 Zn393 1.962 . S
O394 C399 1.254 . S
O395 Zn392 2.031 . S
O395 C399 1.269 . S
O396 Zn393 1.986 . S
O396 C403 1.262 . S
O397 Zn392 2.049 . S
O397 C405 1.260 . S
O398 Zn393 1.996 . S
O398 C405 1.257 . S
C399 O394 1.254 . S
C399 O395 1.269 . S
C400 O401 1.249 . S
C400 O402 1.270 . S
O401 Zn393 1.943 . S
O401 C400 1.249 . S
O402 Zn392 2.067 . S
O402 C400 1.270 . S
C403 O396 1.262 . S
C403 O404 1.232 . S
O404 C403 1.232 . S
C405 O397 1.260 . S
C405 O398 1.257 . S
Zn406 O409 2.031 . S
Zn406 O411 2.049 . S
Zn406 O416 2.067 . S
Zn407 O408 1.962 . S
Zn407 O410 1.986 . S
Zn407 O412 1.996 . S
Zn407 O415 1.943 . S
O408 Zn407 1.962 . S
O408 C413 1.254 . S
O409 Zn406 2.031 . S
O409 C413 1.269 . S
O410 Zn407 1.986 . S
O410 C417 1.262 . S
O411 Zn406 2.049 . S
O411 C419 1.260 . S
O412 Zn407 1.996 . S
O412 C419 1.257 . S
C413 O408 1.254 . S
C413 O409 1.269 . S
C414 O415 1.249 . S
C414 O416 1.270 . S
O415 Zn407 1.943 . S
O415 C414 1.249 . S
O416 Zn406 2.067 . S
O416 C414 1.270 . S
C417 O410 1.262 . S
C417 O418 1.232 . S
O418 C417 1.232 . S
C419 O411 1.260 . S
C419 O412 1.257 . S
Zn420 O423 2.031 . S
Zn420 O425 2.049 . S
Zn420 O430 2.067 . S
Zn421 O422 1.962 . S
Zn421 O424 1.986 . S
Zn421 O426 1.996 . S
Zn421 O429 1.943 . S
O422 Zn421 1.962 . S
O422 C427 1.254 . S
O423 Zn420 2.031 . S
O423 C427 1.269 . S
O424 Zn421 1.986 . S
O424 C431 1.262 . S
O425 Zn420 2.049 . S
O425 C433 1.260 . S
O426 Zn421 1.996 . S
O426 C433 1.257 . S
C427 O422 1.254 . S
C427 O423 1.269 . S
C428 O429 1.249 . S
C428 O430 1.270 . S
O429 Zn421 1.943 . S
O429 C428 1.249 . S
O430 Zn420 2.067 . S
O430 C428 1.270 . S
C431 O424 1.262 . S
C431 O432 1.232 . S
O432 C431 1.232 . S
C433 O425 1.260 . S
C433 O426 1.257 . S
Zn434 O437 2.031 . S
Zn434 O439 2.049 . S
Zn434 O444 2.067 . S
Zn435 O436 1.962 . S
Zn435 O438 1.986 . S
Zn435 O440 1.996 . S
Zn435 O443 1.943 . S
O436 Zn435 1.962 . S
O436 C441 1.254 . S
O437 Zn434 2.031 . S
O437 C441 1.269 . S
O438 Zn435 1.986 . S
O438 C445 1.262 . S
O439 Zn434 2.049 . S
O439 C447 1.260 . S
O440 Zn435 1.996 . S
O440 C447 1.257 . S
C441 O436 1.254 . S
C441 O437 1.269 . S
C442 O443 1.249 . S
C442 O444 1.270 . S
O443 Zn435 1.943 . S
O443 C442 1.249 . S
O444 Zn434 2.067 . S
O444 C442 1.270 . S
C445 O438 1.262 . S
C445 O446 1.232 . S
O446 C445 1.232 . S
C447 O439 1.260 . S
C447 O440 1.257 . S
Zn448 O451 2.031 . S
Zn448 O453 2.049 . S
Zn448 O458 2.067 . S
Zn449 O450 1.962 . S
Zn449 O452 1.986 . S
Zn449 O454 1.996 . S
Zn449 O457 1.943 . S
O450 Zn449 1.962 . S
O450 C455 1.254 . S
O451 Zn448 2.031 . S
O451 C455 1.269 . S
O452 Zn449 1.986 . S
O452 C459 1.262 . S
O453 Zn448 2.049 . S
O453 C461 1.260 . S
O454 Zn449 1.996 . S
O454 C461 1.257 . S
C455 O450 1.254 . S
C455 O451 1.269 . S
C456 O457 1.249 . S
C456 O458 1.270 . S
O457 Zn449 1.943 . S
O457 C456 1.249 . S
O458 Zn448 2.067 . S
O458 C456 1.270 . S
C459 O452 1.262 . S
C459 O460 1.232 . S
O460 C459 1.232 . S
C461 O453 1.260 . S
C461 O454 1.257 . S
Zn462 O465 2.031 . S
Zn462 O467 2.049 . S
Zn462 O472 2.067 . S
Zn463 O464 1.962 . S
Zn463 O466 1.986 . S
Zn463 O468 1.996 . S
Zn463 O471 1.943 . S
O464 Zn463 1.962 . S
O464 C469 1.254 . S
O465 Zn462 2.031 . S
O465 C469 1.269 . S
O466 Zn463 1.986 . S
O466 C473 1.262 . S
O467 Zn462 2.049 . S
O467 C475 1.260 . S
O468 Zn463 1.996 . S
O468 C475 1.257 . S
C469 O464 1.254 . S
C469 O465 1.269 . S
C470 O471 1.249 . S
C470 O472 1.270 . S
O471 Zn463 1.943 . S
O471 C470 1.249 . S
O472 Zn462 2.067 . S
O472 C470 1.270 . S
C473 O466 1.262 . S
C473 O474 1.232 . S
O474 C473 1.232 . S
C475 O467 1.260 . S
C475 O468 1.257 . S
Zn476 O479 2.031 . S
Zn476 O481 2.049 . S
Zn476 O486 2.067 . S
Zn477 O478 1.962 . S
Zn477 O480 1.986 . S
Zn477 O482 1.996 . S
Zn477 O485 1.943 . S
O478 Zn477 1.962 . S
O478 C483 1.254 . S
O479 Zn476 2.031 . S
O479 C483 1.269 . S
O480 Zn477 1.986 . S
O480 C487 1.262 . S
O481 Zn476 2.049 . S
O481 C489 1.260 . S
O482 Zn477 1.996 . S
O482 C489 1.257 . S
C483 O478 1.254 . S
C483 O479 1.269 . S
C484 O485 1.249 . S
C484 O486 1.270 . S
O485 Zn477 1.943 . S
O485 C484 1.249 . S
O486 Zn476 2.067 . S
O486 C484 1.270 . S
C487 O480 1.262 . S
C487 O488 1.232 . S
O488 C487 1.232 . S
C489 O481 1.260 . S
C489 O482 1.257 . S
Zn490 O493 2.031 . S
Zn490 O495 2.049 . S
Zn490 O500 2.067 . S
Zn491 O492 1.962 . S
Zn491 O494 1.986 . S
Zn491 O496 1.996 . S
Zn491 O499 1.943 . S
O492 Zn491 1.962 . S
O492 C497 1.254 . S
O493 Zn490 2.031 . S
O493 C497 1.269 . S
O494 Zn491 1.986 . S
O494 C501 1.262 . S
O495 Zn490 2.049 . S
O495 C503 1.260 . S
O496 Zn491 1.996 . S
O496 C503 1.257 . S
C497 O492 1.254 . S
C497 O493 1.269 . S
C498 O499 1.249 . S
C498 O500 1.270 . S
O499 Zn491 1.943 . S
O499 C498 1.249 . S
O500 Zn490 2.067 . S
O500 C498 1.270 . S
C501 O494 1.262 . S
C501 O502 1.232 . S
O502 C501 1.232 . S
C503 O495 1.260 . S
C503 O496 1.257 . S
H504 C510 0.930 . S
H505 C513 0.930 . S
H506 C514 0.930 . S
H507 C515 0.930 . S
H508 C518 0.930 . S
H509 C519 0.930 . S
C510 H504 0.930 . S
C510 C511 1.355 . S
C510 C512 1.415 . S
C511 C510 1.355 . S
C511 C513 1.419 . S
C512 C510 1.415 . S
C512 C517 1.425 . S
C512 C519 1.409 . S
C513 H505 0.930 . S
C513 C511 1.419 . S
C513 C514 1.362 . S
C514 H506 0.930 . S
C514 C513 1.362 . S
C514 C517 1.409 . S
C515 H507 0.930 . S
C515 C516 1.355 . S
C515 C517 1.415 . S
C516 C515 1.355 . S
C516 C518 1.419 . S
C517 C512 1.425 . S
C517 C514 1.409 . S
C517 C515 1.415 . S
C518 H508 0.930 . S
C518 C516 1.419 . S
C518 C519 1.362 . S
C519 H509 0.930 . S
C519 C512 1.409 . S
C519 C518 1.362 . S
H520 C526 0.930 . S
H521 C529 0.930 . S
H522 C530 0.930 . S
H523 C531 0.930 . S
H524 C534 0.930 . S
H525 C535 0.930 . S
C526 H520 0.930 . S
C526 C527 1.355 . S
C526 C528 1.415 . S
C527 C526 1.355 . S
C527 C529 1.419 . S
C528 C526 1.415 . S
C528 C533 1.425 . S
C528 C535 1.409 . S
C529 H521 0.930 . S
C529 C527 1.419 . S
C529 C530 1.362 . S
C530 H522 0.930 . S
C530 C529 1.362 . S
C530 C533 1.409 . S
C531 H523 0.930 . S
C531 C532 1.355 . S
C531 C533 1.415 . S
C532 C531 1.355 . S
C532 C534 1.419 . S
C533 C528 1.425 . S
C533 C530 1.409 . S
C533 C531 1.415 . S
C534 H524 0.930 . S
C534 C532 1.419 . S
C534 C535 1.362 . S
C535 H525 0.930 . S
C535 C528 1.409 . S
C535 C534 1.362 . S
H536 C542 0.930 . S
H537 C545 0.930 . S
H538 C546 0.930 . S
H539 C547 0.930 . S
H540 C550 0.930 . S
H541 C551 0.930 . S
C542 H536 0.930 . S
C542 C543 1.355 . S
C542 C544 1.415 . S
C543 C542 1.355 . S
C543 C545 1.419 . S
C544 C542 1.415 . S
C544 C549 1.425 . S
C544 C551 1.409 . S
C545 H537 0.930 . S
C545 C543 1.419 . S
C545 C546 1.362 . S
C546 H538 0.930 . S
C546 C545 1.362 . S
C546 C549 1.409 . S
C547 H539 0.930 . S
C547 C548 1.355 . S
C547 C549 1.415 . S
C548 C547 1.355 . S
C548 C550 1.419 . S
C549 C544 1.425 . S
C549 C546 1.409 . S
C549 C547 1.415 . S
C550 H540 0.930 . S
C550 C548 1.419 . S
C550 C551 1.362 . S
C551 H541 0.930 . S
C551 C544 1.409 . S
C551 C550 1.362 . S
H552 C558 0.930 . S
H553 C561 0.930 . S
H554 C562 0.930 . S
H555 C563 0.930 . S
H556 C566 0.930 . S
H557 C567 0.930 . S
C558 H552 0.930 . S
C558 C559 1.355 . S
C558 C560 1.415 . S
C559 C558 1.355 . S
C559 C561 1.419 . S
C560 C558 1.415 . S
C560 C565 1.425 . S
C560 C567 1.409 . S
C561 H553 0.930 . S
C561 C559 1.419 . S
C561 C562 1.362 . S
C562 H554 0.930 . S
C562 C561 1.362 . S
C562 C565 1.409 . S
C563 H555 0.930 . S
C563 C564 1.355 . S
C563 C565 1.415 . S
C564 C563 1.355 . S
C564 C566 1.419 . S
C565 C560 1.425 . S
C565 C562 1.409 . S
C565 C563 1.415 . S
C566 H556 0.930 . S
C566 C564 1.419 . S
C566 C567 1.362 . S
C567 H557 0.930 . S
C567 C560 1.409 . S
C567 C566 1.362 . S
H568 C574 0.930 . S
H569 C577 0.930 . S
H570 C578 0.930 . S
H571 C579 0.930 . S
H572 C582 0.930 . S
H573 C583 0.930 . S
C574 H568 0.930 . S
C574 C575 1.355 . S
C574 C576 1.415 . S
C575 C574 1.355 . S
C575 C577 1.419 . S
C576 C574 1.415 . S
C576 C581 1.425 . S
C576 C583 1.409 . S
C577 H569 0.930 . S
C577 C575 1.419 . S
C577 C578 1.362 . S
C578 H570 0.930 . S
C578 C577 1.362 . S
C578 C581 1.409 . S
C579 H571 0.930 . S
C579 C580 1.355 . S
C579 C581 1.415 . S
C580 C579 1.355 . S
C580 C582 1.419 . S
C581 C576 1.425 . S
C581 C578 1.409 . S
C581 C579 1.415 . S
C582 H572 0.930 . S
C582 C580 1.419 . S
C582 C583 1.362 . S
C583 H573 0.930 . S
C583 C576 1.409 . S
C583 C582 1.362 . S
H584 C590 0.930 . S
H585 C593 0.930 . S
H586 C594 0.930 . S
H587 C595 0.930 . S
H588 C598 0.930 . S
H589 C599 0.930 . S
C590 H584 0.930 . S
C590 C591 1.355 . S
C590 C592 1.415 . S
C591 C590 1.355 . S
C591 C593 1.419 . S
C592 C590 1.415 . S
C592 C597 1.425 . S
C592 C599 1.409 . S
C593 H585 0.930 . S
C593 C591 1.419 . S
C593 C594 1.362 . S
C594 H586 0.930 . S
C594 C593 1.362 . S
C594 C597 1.409 . S
C595 H587 0.930 . S
C595 C596 1.355 . S
C595 C597 1.415 . S
C596 C595 1.355 . S
C596 C598 1.419 . S
C597 C592 1.425 . S
C597 C594 1.409 . S
C597 C595 1.415 . S
C598 H588 0.930 . S
C598 C596 1.419 . S
C598 C599 1.362 . S
C599 H589 0.930 . S
C599 C592 1.409 . S
C599 C598 1.362 . S
H600 C606 0.930 . S
H601 C609 0.930 . S
H602 C610 0.930 . S
H603 C611 0.930 . S
H604 C614 0.930 . S
H605 C615 0.930 . S
C606 H600 0.930 . S
C606 C607 1.355 . S
C606 C608 1.415 . S
C607 C606 1.355 . S
C607 C609 1.419 . S
C608 C606 1.415 . S
C608 C613 1.425 . S
C608 C615 1.409 . S
C609 H601 0.930 . S
C609 C607 1.419 . S
C609 C610 1.362 . S
C610 H602 0.930 . S
C610 C609 1.362 . S
C610 C613 1.409 . S
C611 H603 0.930 . S
C611 C612 1.355 . S
C611 C613 1.415 . S
C612 C611 1.355 . S
C612 C614 1.419 . S
C613 C608 1.425 . S
C613 C610 1.409 . S
C613 C611 1.415 . S
C614 H604 0.930 . S
C614 C612 1.419 . S
C614 C615 1.362 . S
C615 H605 0.930 . S
C615 C608 1.409 . S
C615 C614 1.362 . S
H616 C622 0.930 . S
H617 C625 0.930 . S
H618 C626 0.930 . S
H619 C627 0.930 . S
H620 C630 0.930 . S
H621 C631 0.930 . S
C622 H616 0.930 . S
C622 C623 1.355 . S
C622 C624 1.415 . S
C623 C622 1.355 . S
C623 C625 1.419 . S
C624 C622 1.415 . S
C624 C629 1.425 . S
C624 C631 1.409 . S
C625 H617 0.930 . S
C625 C623 1.419 . S
C625 C626 1.362 . S
C626 H618 0.930 . S
C626 C625 1.362 . S
C626 C629 1.409 . S
C627 H619 0.930 . S
C627 C628 1.355 . S
C627 C629 1.415 . S
C628 C627 1.355 . S
C628 C630 1.419 . S
C629 C624 1.425 . S
C629 C626 1.409 . S
C629 C627 1.415 . S
C630 H620 0.930 . S
C630 C628 1.419 . S
C630 C631 1.362 . S
C631 H621 0.930 . S
C631 C624 1.409 . S
C631 C630 1.362 . S
H632 C638 0.930 . S
H633 C641 0.930 . S
H634 C642 0.930 . S
H635 C643 0.930 . S
H636 C646 0.930 . S
H637 C647 0.930 . S
C638 H632 0.930 . S
C638 C639 1.355 . S
C638 C640 1.415 . S
C639 C638 1.355 . S
C639 C641 1.419 . S
C640 C638 1.415 . S
C640 C645 1.425 . S
C640 C647 1.409 . S
C641 H633 0.930 . S
C641 C639 1.419 . S
C641 C642 1.362 . S
C642 H634 0.930 . S
C642 C641 1.362 . S
C642 C645 1.409 . S
C643 H635 0.930 . S
C643 C644 1.355 . S
C643 C645 1.415 . S
C644 C643 1.355 . S
C644 C646 1.419 . S
C645 C640 1.425 . S
C645 C642 1.409 . S
C645 C643 1.415 . S
C646 H636 0.930 . S
C646 C644 1.419 . S
C646 C647 1.362 . S
C647 H637 0.930 . S
C647 C640 1.409 . S
C647 C646 1.362 . S
H648 C654 0.930 . S
H649 C657 0.930 . S
H650 C658 0.930 . S
H651 C659 0.930 . S
H652 C662 0.930 . S
H653 C663 0.930 . S
C654 H648 0.930 . S
C654 C655 1.355 . S
C654 C656 1.415 . S
C655 C654 1.355 . S
C655 C657 1.419 . S
C656 C654 1.415 . S
C656 C661 1.425 . S
C656 C663 1.409 . S
C657 H649 0.930 . S
C657 C655 1.419 . S
C657 C658 1.362 . S
C658 H650 0.930 . S
C658 C657 1.362 . S
C658 C661 1.409 . S
C659 H651 0.930 . S
C659 C660 1.355 . S
C659 C661 1.415 . S
C660 C659 1.355 . S
C660 C662 1.419 . S
C661 C656 1.425 . S
C661 C658 1.409 . S
C661 C659 1.415 . S
C662 H652 0.930 . S
C662 C660 1.419 . S
C662 C663 1.362 . S
C663 H653 0.930 . S
C663 C656 1.409 . S
C663 C662 1.362 . S
H664 C670 0.930 . S
H665 C673 0.930 . S
H666 C674 0.930 . S
H667 C675 0.930 . S
H668 C678 0.930 . S
H669 C679 0.930 . S
C670 H664 0.930 . S
C670 C671 1.355 . S
C670 C672 1.415 . S
C671 C670 1.355 . S
C671 C673 1.419 . S
C672 C670 1.415 . S
C672 C677 1.425 . S
C672 C679 1.409 . S
C673 H665 0.930 . S
C673 C671 1.419 . S
C673 C674 1.362 . S
C674 H666 0.930 . S
C674 C673 1.362 . S
C674 C677 1.409 . S
C675 H667 0.930 . S
C675 C676 1.355 . S
C675 C677 1.415 . S
C676 C675 1.355 . S
C676 C678 1.419 . S
C677 C672 1.425 . S
C677 C674 1.409 . S
C677 C675 1.415 . S
C678 H668 0.930 . S
C678 C676 1.419 . S
C678 C679 1.362 . S
C679 H669 0.930 . S
C679 C672 1.409 . S
C679 C678 1.362 . S
H680 C686 0.930 . S
H681 C689 0.930 . S
H682 C690 0.930 . S
H683 C691 0.930 . S
H684 C694 0.930 . S
H685 C695 0.930 . S
C686 H680 0.930 . S
C686 C687 1.355 . S
C686 C688 1.415 . S
C687 C686 1.355 . S
C687 C689 1.419 . S
C688 C686 1.415 . S
C688 C693 1.425 . S
C688 C695 1.409 . S
C689 H681 0.930 . S
C689 C687 1.419 . S
C689 C690 1.362 . S
C690 H682 0.930 . S
C690 C689 1.362 . S
C690 C693 1.409 . S
C691 H683 0.930 . S
C691 C692 1.355 . S
C691 C693 1.415 . S
C692 C691 1.355 . S
C692 C694 1.419 . S
C693 C688 1.425 . S
C693 C690 1.409 . S
C693 C691 1.415 . S
C694 H684 0.930 . S
C694 C692 1.419 . S
C694 C695 1.362 . S
C695 H685 0.930 . S
C695 C688 1.409 . S
C695 C694 1.362 . S
H696 C702 0.930 . S
H697 C705 0.930 . S
H698 C706 0.930 . S
H699 C707 0.930 . S
H700 C710 0.930 . S
H701 C711 0.930 . S
C702 H696 0.930 . S
C702 C703 1.355 . S
C702 C704 1.415 1_455 S
C703 C702 1.355 . S
C703 C705 1.419 . S
C704 C702 1.415 1_655 S
C704 C709 1.425 1_655 S
C704 C711 1.409 . S
C705 H697 0.930 . S
C705 C703 1.419 . S
C705 C706 1.362 . S
C706 H698 0.930 . S
C706 C705 1.362 . S
C706 C709 1.409 . S
C707 H699 0.930 . S
C707 C708 1.355 . S
C707 C709 1.415 1_655 S
C708 C707 1.355 . S
C708 C710 1.419 . S
C709 C704 1.425 1_455 S
C709 C706 1.409 . S
C709 C707 1.415 1_455 S
C710 H700 0.930 . S
C710 C708 1.419 . S
C710 C711 1.362 . S
C711 H701 0.930 . S
C711 C704 1.409 . S
C711 C710 1.362 . S
H712 C718 0.930 . S
H713 C721 0.930 . S
H714 C722 0.930 . S
H715 C723 0.930 . S
H716 C726 0.930 . S
H717 C727 0.930 . S
C718 H712 0.930 . S
C718 C719 1.355 . S
C718 C720 1.415 . S
C719 C718 1.355 . S
C719 C721 1.419 . S
C720 C718 1.415 . S
C720 C725 1.425 . S
C720 C727 1.409 . S
C721 H713 0.930 . S
C721 C719 1.419 . S
C721 C722 1.362 . S
C722 H714 0.930 . S
C722 C721 1.362 . S
C722 C725 1.409 . S
C723 H715 0.930 . S
C723 C724 1.355 . S
C723 C725 1.415 . S
C724 C723 1.355 . S
C724 C726 1.419 . S
C725 C720 1.425 . S
C725 C722 1.409 . S
C725 C723 1.415 . S
C726 H716 0.930 . S
C726 C724 1.419 . S
C726 C727 1.362 . S
C727 H717 0.930 . S
C727 C720 1.409 . S
C727 C726 1.362 . S
H728 C734 0.930 . S
H729 C737 0.930 . S
H730 C738 0.930 . S
H731 C739 0.930 . S
H732 C742 0.930 . S
H733 C743 0.930 . S
C734 H728 0.930 . S
C734 C735 1.355 . S
C734 C736 1.415 1_545 S
C735 C734 1.355 . S
C735 C737 1.419 . S
C736 C734 1.415 1_565 S
C736 C741 1.425 1_565 S
C736 C743 1.409 . S
C737 H729 0.930 . S
C737 C735 1.419 . S
C737 C738 1.362 . S
C738 H730 0.930 . S
C738 C737 1.362 . S
C738 C741 1.409 . S
C739 H731 0.930 . S
C739 C740 1.355 . S
C739 C741 1.415 1_565 S
C740 C739 1.355 . S
C740 C742 1.419 . S
C741 C736 1.425 1_545 S
C741 C738 1.409 . S
C741 C739 1.415 1_545 S
C742 H732 0.930 . S
C742 C740 1.419 . S
C742 C743 1.362 . S
C743 H733 0.930 . S
C743 C736 1.409 . S
C743 C742 1.362 . S
H744 C750 0.930 . S
H745 C753 0.930 . S
H746 C754 0.930 . S
H747 C755 0.930 . S
H748 C758 0.930 . S
H749 C759 0.930 . S
C750 H744 0.930 . S
C750 C751 1.355 . S
C750 C752 1.415 1_554 S
C751 C750 1.355 . S
C751 C753 1.419 . S
C752 C750 1.415 1_556 S
C752 C757 1.425 1_566 S
C752 C759 1.409 . S
C753 H745 0.930 . S
C753 C751 1.419 . S
C753 C754 1.362 1_565 S
C754 H746 0.930 . S
C754 C753 1.362 1_545 S
C754 C757 1.409 . S
C755 H747 0.930 . S
C755 C756 1.355 . S
C755 C757 1.415 1_556 S
C756 C755 1.355 . S
C756 C758 1.419 . S
C757 C752 1.425 1_544 S
C757 C754 1.409 . S
C757 C755 1.415 1_554 S
C758 H748 0.930 . S
C758 C756 1.419 . S
C758 C759 1.362 1_545 S
C759 H749 0.930 . S
C759 C752 1.409 . S
C759 C758 1.362 1_565 S
H760 C766 0.930 1_455 S
H761 C769 0.930 . S
H762 C770 0.930 . S
H763 C771 0.930 1_655 S
H764 C774 0.930 . S
H765 C775 0.930 . S
C766 H760 0.930 1_655 S
C766 C767 1.355 . S
C766 C768 1.415 1_655 S
C767 C766 1.355 . S
C767 C769 1.419 . S
C768 C766 1.415 1_455 S
C768 C773 1.425 1_456 S
C768 C775 1.409 . S
C769 H761 0.930 . S
C769 C767 1.419 . S
C769 C770 1.362 1_556 S
C770 H762 0.930 . S
C770 C769 1.362 1_554 S
C770 C773 1.409 . S
C771 H763 0.930 1_455 S
C771 C772 1.355 . S
C771 C773 1.415 1_455 S
C772 C771 1.355 . S
C772 C774 1.419 . S
C773 C768 1.425 1_654 S
C773 C770 1.409 . S
C773 C771 1.415 1_655 S
C774 H764 0.930 . S
C774 C772 1.419 . S
C774 C775 1.362 1_554 S
C775 H765 0.930 . S
C775 C768 1.409 . S
C775 C774 1.362 1_556 S
H776 C782 0.930 . S
H777 C785 0.930 . S
H778 C786 0.930 . S
H779 C787 0.930 . S
H780 C790 0.930 . S
H781 C791 0.930 . S
C782 H776 0.930 . S
C782 C783 1.355 . S
C782 C784 1.415 1_556 S
C783 C782 1.355 . S
C783 C785 1.419 . S
C784 C782 1.415 1_554 S
C784 C789 1.425 1_554 S
C784 C791 1.409 . S
C785 H777 0.930 . S
C785 C783 1.419 . S
C785 C786 1.362 . S
C786 H778 0.930 . S
C786 C785 1.362 . S
C786 C789 1.409 . S
C787 H779 0.930 . S
C787 C788 1.355 . S
C787 C789 1.415 1_554 S
C788 C787 1.355 . S
C788 C790 1.419 . S
C789 C784 1.425 1_556 S
C789 C786 1.409 . S
C789 C787 1.415 1_556 S
C790 H780 0.930 . S
C790 C788 1.419 . S
C790 C791 1.362 . S
C791 H781 0.930 . S
C791 C784 1.409 . S
C791 C790 1.362 . S
H792 C798 0.930 . S
H793 C801 0.930 . S
H794 C802 0.930 . S
H795 C803 0.930 . S
H796 C806 0.930 . S
H797 C807 0.930 1_545 S
C798 H792 0.930 . S
C798 C799 1.355 . S
C798 C800 1.415 . S
C799 C798 1.355 . S
C799 C801 1.419 . S
C800 C798 1.415 . S
C800 C805 1.425 1_545 S
C800 C807 1.409 1_545 S
C801 H793 0.930 . S
C801 C799 1.419 . S
C801 C802 1.362 1_545 S
C802 H794 0.930 . S
C802 C801 1.362 1_565 S
C802 C805 1.409 . S
C803 H795 0.930 . S
C803 C804 1.355 . S
C803 C805 1.415 . S
C804 C803 1.355 . S
C804 C806 1.419 . S
C805 C800 1.425 1_565 S
C805 C802 1.409 . S
C805 C803 1.415 . S
C806 H796 0.930 . S
C806 C804 1.419 . S
C806 C807 1.362 . S
C807 H797 0.930 1_565 S
C807 C800 1.409 1_565 S
C807 C806 1.362 . S
H808 C814 0.930 . S
H809 C817 0.930 . S
H810 C818 0.930 . S
H811 C819 0.930 . S
H812 C822 0.930 . S
H813 C823 0.930 . S
C814 H808 0.930 . S
C814 C815 1.355 . S
C814 C816 1.415 . S
C815 C814 1.355 . S
C815 C817 1.419 1_455 S
C816 C814 1.415 . S
C816 C821 1.425 1_455 S
C816 C823 1.409 . S
C817 H809 0.930 . S
C817 C815 1.419 1_655 S
C817 C818 1.362 . S
C818 H810 0.930 . S
C818 C817 1.362 . S
C818 C821 1.409 . S
C819 H811 0.930 . S
C819 C820 1.355 . S
C819 C821 1.415 . S
C820 C819 1.355 . S
C820 C822 1.419 1_655 S
C821 C816 1.425 1_655 S
C821 C818 1.409 . S
C821 C819 1.415 . S
C822 H812 0.930 . S
C822 C820 1.419 1_455 S
C822 C823 1.362 . S
C823 H813 0.930 . S
C823 C816 1.409 . S
C823 C822 1.362 . S
H824 C830 0.930 . S
H825 C833 0.930 . S
H826 C834 0.930 . S
H827 C835 0.930 . S
H828 C838 0.930 . S
H829 C839 0.930 . S
C830 H824 0.930 . S
C830 C831 1.355 . S
C830 C832 1.415 . S
C831 C830 1.355 . S
C831 C833 1.419 . S
C832 C830 1.415 . S
C832 C837 1.425 . S
C832 C839 1.409 . S
C833 H825 0.930 . S
C833 C831 1.419 . S
C833 C834 1.362 . S
C834 H826 0.930 . S
C834 C833 1.362 . S
C834 C837 1.409 . S
C835 H827 0.930 . S
C835 C836 1.355 . S
C835 C837 1.415 . S
C836 C835 1.355 . S
C836 C838 1.419 . S
C837 C832 1.425 . S
C837 C834 1.409 . S
C837 C835 1.415 . S
C838 H828 0.930 . S
C838 C836 1.419 . S
C838 C839 1.362 . S
C839 H829 0.930 . S
C839 C832 1.409 . S
C839 C838 1.362 . S
H840 C846 0.930 . S
H841 C849 0.930 . S
H842 C850 0.930 . S
H843 C851 0.930 . S
H844 C854 0.930 . S
H845 C855 0.930 . S
C846 H840 0.930 . S
C846 C847 1.355 . S
C846 C848 1.415 . S
C847 C846 1.355 . S
C847 C849 1.419 1_655 S
C848 C846 1.415 . S
C848 C853 1.425 1_655 S
C848 C855 1.409 . S
C849 H841 0.930 . S
C849 C847 1.419 1_455 S
C849 C850 1.362 . S
C850 H842 0.930 . S
C850 C849 1.362 . S
C850 C853 1.409 . S
C851 H843 0.930 . S
C851 C852 1.355 . S
C851 C853 1.415 . S
C852 C851 1.355 . S
C852 C854 1.419 1_455 S
C853 C848 1.425 1_455 S
C853 C850 1.409 . S
C853 C851 1.415 . S
C854 H844 0.930 . S
C854 C852 1.419 1_655 S
C854 C855 1.362 . S
C855 H845 0.930 . S
C855 C848 1.409 . S
C855 C854 1.362 . S
H856 C862 0.930 . S
H857 C865 0.930 . S
H858 C866 0.930 . S
H859 C867 0.930 . S
H860 C870 0.930 . S
H861 C871 0.930 . S
C862 H856 0.930 . S
C862 C863 1.355 . S
C862 C864 1.415 . S
C863 C862 1.355 . S
C863 C865 1.419 . S
C864 C862 1.415 . S
C864 C869 1.425 . S
C864 C871 1.409 . S
C865 H857 0.930 . S
C865 C863 1.419 . S
C865 C866 1.362 . S
C866 H858 0.930 . S
C866 C865 1.362 . S
C866 C869 1.409 . S
C867 H859 0.930 . S
C867 C868 1.355 . S
C867 C869 1.415 . S
C868 C867 1.355 . S
C868 C870 1.419 . S
C869 C864 1.425 . S
C869 C866 1.409 . S
C869 C867 1.415 . S
C870 H860 0.930 . S
C870 C868 1.419 . S
C870 C871 1.362 . S
C871 H861 0.930 . S
C871 C864 1.409 . S
C871 C870 1.362 . S
H872 C878 0.930 1_565 S
H873 C881 0.930 . S
H874 C882 0.930 . S
H875 C883 0.930 . S
H876 C886 0.930 . S
H877 C887 0.930 . S
C878 H872 0.930 1_545 S
C878 C879 1.355 . S
C878 C880 1.415 1_545 S
C879 C878 1.355 . S
C879 C881 1.419 . S
C880 C878 1.415 1_565 S
C880 C885 1.425 1_565 S
C880 C887 1.409 . S
C881 H873 0.930 . S
C881 C879 1.419 . S
C881 C882 1.362 . S
C882 H874 0.930 . S
C882 C881 1.362 . S
C882 C885 1.409 . S
C883 H875 0.930 . S
C883 C884 1.355 1_545 S
C883 C885 1.415 . S
C884 C883 1.355 1_565 S
C884 C886 1.419 . S
C885 C880 1.425 1_545 S
C885 C882 1.409 . S
C885 C883 1.415 . S
C886 H876 0.930 . S
C886 C884 1.419 . S
C886 C887 1.362 . S
C887 H877 0.930 . S
C887 C880 1.409 . S
C887 C886 1.362 . S
H888 C894 0.930 . S
H889 C897 0.930 . S
H890 C898 0.930 . S
H891 C899 0.930 . S
H892 C902 0.930 . S
H893 C903 0.930 . S
C894 H888 0.930 . S
C894 C895 1.355 . S
C894 C896 1.415 . S
C895 C894 1.355 . S
C895 C897 1.419 1_565 S
C896 C894 1.415 . S
C896 C901 1.425 1_565 S
C896 C903 1.409 . S
C897 H889 0.930 . S
C897 C895 1.419 1_545 S
C897 C898 1.362 . S
C898 H890 0.930 . S
C898 C897 1.362 . S
C898 C901 1.409 . S
C899 H891 0.930 . S
C899 C900 1.355 . S
C899 C901 1.415 . S
C900 C899 1.355 . S
C900 C902 1.419 1_545 S
C901 C896 1.425 1_545 S
C901 C898 1.409 . S
C901 C899 1.415 . S
C902 H892 0.930 . S
C902 C900 1.419 1_565 S
C902 C903 1.362 . S
C903 H893 0.930 . S
C903 C896 1.409 . S
C903 C902 1.362 . S
H904 C910 0.930 . S
H905 C913 0.930 . S
H906 C914 0.930 . S
H907 C915 0.930 . S
H908 C918 0.930 . S
H909 C919 0.930 1_655 S
C910 H904 0.930 . S
C910 C911 1.355 . S
C910 C912 1.415 . S
C911 C910 1.355 . S
C911 C913 1.419 . S
C912 C910 1.415 . S
C912 C917 1.425 . S
C912 C919 1.409 1_655 S
C913 H905 0.930 . S
C913 C911 1.419 . S
C913 C914 1.362 . S
C914 H906 0.930 . S
C914 C913 1.362 . S
C914 C917 1.409 . S
C915 H907 0.930 . S
C915 C916 1.355 . S
C915 C917 1.415 1_455 S
C916 C915 1.355 . S
C916 C918 1.419 . S
C917 C912 1.425 . S
C917 C914 1.409 . S
C917 C915 1.415 1_655 S
C918 H908 0.930 . S
C918 C916 1.419 . S
C918 C919 1.362 . S
C919 H909 0.930 1_455 S
C919 C912 1.409 1_455 S
C919 C918 1.362 . S
H920 C926 0.930 . S
H921 C929 0.930 . S
H922 C930 0.930 . S
H923 C931 0.930 . S
H924 C934 0.930 . S
H925 C935 0.930 . S
C926 H920 0.930 . S
C926 C927 1.355 . S
C926 C928 1.415 . S
C927 C926 1.355 . S
C927 C929 1.419 . S
C928 C926 1.415 . S
C928 C933 1.425 . S
C928 C935 1.409 . S
C929 H921 0.930 . S
C929 C927 1.419 . S
C929 C930 1.362 . S
C930 H922 0.930 . S
C930 C929 1.362 . S
C930 C933 1.409 . S
C931 H923 0.930 . S
C931 C932 1.355 . S
C931 C933 1.415 . S
C932 C931 1.355 . S
C932 C934 1.419 . S
C933 C928 1.425 . S
C933 C930 1.409 . S
C933 C931 1.415 . S
C934 H924 0.930 . S
C934 C932 1.419 . S
C934 C935 1.362 . S
C935 H925 0.930 . S
C935 C928 1.409 . S
C935 C934 1.362 . S
H936 C942 0.930 . S
H937 C945 0.930 . S
H938 C946 0.930 . S
H939 C947 0.930 1_655 S
H940 C950 0.930 . S
H941 C951 0.930 . S
C942 H936 0.930 . S
C942 C943 1.355 1_455 S
C942 C944 1.415 . S
C943 C942 1.355 1_655 S
C943 C945 1.419 . S
C944 C942 1.415 . S
C944 C949 1.425 1_455 S
C944 C951 1.409 . S
C945 H937 0.930 . S
C945 C943 1.419 . S
C945 C946 1.362 . S
C946 H938 0.930 . S
C946 C945 1.362 . S
C946 C949 1.409 . S
C947 H939 0.930 1_455 S
C947 C948 1.355 . S
C947 C949 1.415 1_455 S
C948 C947 1.355 . S
C948 C950 1.419 . S
C949 C944 1.425 1_655 S
C949 C946 1.409 . S
C949 C947 1.415 1_655 S
C950 H940 0.930 . S
C950 C948 1.419 . S
C950 C951 1.362 . S
C951 H941 0.930 . S
C951 C944 1.409 . S
C951 C950 1.362 . S
H952 C958 0.930 . S
H953 C961 0.930 . S
H954 C962 0.930 . S
H955 C963 0.930 . S
H956 C966 0.930 . S
H957 C967 0.930 . S
C958 H952 0.930 . S
C958 C959 1.355 . S
C958 C960 1.415 . S
C959 C958 1.355 . S
C959 C961 1.419 . S
C960 C958 1.415 . S
C960 C965 1.425 . S
C960 C967 1.409 . S
C961 H953 0.930 . S
C961 C959 1.419 . S
C961 C962 1.362 . S
C962 H954 0.930 . S
C962 C961 1.362 . S
C962 C965 1.409 . S
C963 H955 0.930 . S
C963 C964 1.355 . S
C963 C965 1.415 . S
C964 C963 1.355 . S
C964 C966 1.419 . S
C965 C960 1.425 . S
C965 C962 1.409 . S
C965 C963 1.415 . S
C966 H956 0.930 . S
C966 C964 1.419 . S
C966 C967 1.362 . S
C967 H957 0.930 . S
C967 C960 1.409 . S
C967 C966 1.362 . S
H968 C974 0.930 . S
H969 C977 0.930 . S
H970 C978 0.930 . S
H971 C979 0.930 1_545 S
H972 C982 0.930 . S
H973 C983 0.930 . S
C974 H968 0.930 . S
C974 C975 1.355 1_565 S
C974 C976 1.415 . S
C975 C974 1.355 1_545 S
C975 C977 1.419 . S
C976 C974 1.415 . S
C976 C981 1.425 1_565 S
C976 C983 1.409 . S
C977 H969 0.930 . S
C977 C975 1.419 . S
C977 C978 1.362 . S
C978 H970 0.930 . S
C978 C977 1.362 . S
C978 C981 1.409 . S
C979 H971 0.930 1_565 S
C979 C980 1.355 . S
C979 C981 1.415 1_565 S
C980 C979 1.355 . S
C980 C982 1.419 . S
C981 C976 1.425 1_545 S
C981 C978 1.409 . S
C981 C979 1.415 1_545 S
C982 H972 0.930 . S
C982 C980 1.419 . S
C982 C983 1.362 . S
C983 H973 0.930 . S
C983 C976 1.409 . S
C983 C982 1.362 . S
H984 C990 0.930 . S
H985 C993 0.930 . S
H986 C994 0.930 . S
H987 C995 0.930 . S
H988 C998 0.930 . S
H989 C999 0.930 . S
C990 H984 0.930 . S
C990 C991 1.355 . S
C990 C992 1.415 . S
C991 C990 1.355 . S
C991 C993 1.419 . S
C992 C990 1.415 . S
C992 C997 1.425 . S
C992 C999 1.409 . S
C993 H985 0.930 . S
C993 C991 1.419 . S
C993 C994 1.362 . S
C994 H986 0.930 . S
C994 C993 1.362 . S
C994 C997 1.409 . S
C995 H987 0.930 . S
C995 C996 1.355 . S
C995 C997 1.415 . S
C996 C995 1.355 . S
C996 C998 1.419 . S
C997 C992 1.425 . S
C997 C994 1.409 . S
C997 C995 1.415 . S
C998 H988 0.930 . S
C998 C996 1.419 . S
C998 C999 1.362 . S
C999 H989 0.930 . S
C999 C992 1.409 . S
C999 C998 1.362 . S
H1000 C1006 0.930 . S
H1001 C1009 0.930 . S
H1002 C1010 0.930 . S
H1003 C1011 0.930 . S
H1004 C1014 0.930 . S
H1005 C1015 0.930 . S
C1006 H1000 0.930 . S
C1006 C1007 1.355 . S
C1006 C1008 1.415 . S
C1007 C1006 1.355 . S
C1007 C1009 1.419 . S
C1008 C1006 1.415 . S
C1008 C1013 1.425 1_545 S
C1008 C1015 1.409 1_545 S
C1009 H1001 0.930 . S
C1009 C1007 1.419 . S
C1009 C1010 1.362 . S
C1010 H1002 0.930 . S
C1010 C1009 1.362 . S
C1010 C1013 1.409 1_545 S
C1011 H1003 0.930 . S
C1011 C1012 1.355 . S
C1011 C1013 1.415 . S
C1012 C1011 1.355 . S
C1012 C1014 1.419 . S
C1013 C1008 1.425 1_565 S
C1013 C1010 1.409 1_565 S
C1013 C1011 1.415 . S
C1014 H1004 0.930 . S
C1014 C1012 1.419 . S
C1014 C1015 1.362 . S
C1015 H1005 0.930 . S
C1015 C1008 1.409 1_565 S
C1015 C1014 1.362 . S
H1016 C1022 0.930 . S
H1017 C1025 0.930 . S
H1018 C1026 0.930 . S
H1019 C1027 0.930 . S
H1020 C1030 0.930 . S
H1021 C1031 0.930 . S
C1022 H1016 0.930 . S
C1022 C1023 1.355 . S
C1022 C1024 1.415 1_655 S
C1023 C1022 1.355 . S
C1023 C1025 1.419 . S
C1024 C1022 1.415 1_455 S
C1024 C1029 1.425 1_455 S
C1024 C1031 1.409 . S
C1025 H1017 0.930 . S
C1025 C1023 1.419 . S
C1025 C1026 1.362 . S
C1026 H1018 0.930 . S
C1026 C1025 1.362 . S
C1026 C1029 1.409 . S
C1027 H1019 0.930 . S
C1027 C1028 1.355 . S
C1027 C1029 1.415 1_455 S
C1028 C1027 1.355 . S
C1028 C1030 1.419 . S
C1029 C1024 1.425 1_655 S
C1029 C1026 1.409 . S
C1029 C1027 1.415 1_655 S
C1030 H1020 0.930 . S
C1030 C1028 1.419 . S
C1030 C1031 1.362 . S
C1031 H1021 0.930 . S
C1031 C1024 1.409 . S
C1031 C1030 1.362 . S
H1032 C1038 0.930 . S
H1033 C1041 0.930 . S
H1034 C1042 0.930 . S
H1035 C1043 0.930 . S
H1036 C1046 0.930 . S
H1037 C1047 0.930 . S
C1038 H1032 0.930 . S
C1038 C1039 1.355 . S
C1038 C1040 1.415 . S
C1039 C1038 1.355 . S
C1039 C1041 1.419 . S
C1040 C1038 1.415 . S
C1040 C1045 1.425 . S
C1040 C1047 1.409 . S
C1041 H1033 0.930 . S
C1041 C1039 1.419 . S
C1041 C1042 1.362 . S
C1042 H1034 0.930 . S
C1042 C1041 1.362 . S
C1042 C1045 1.409 . S
C1043 H1035 0.930 . S
C1043 C1044 1.355 . S
C1043 C1045 1.415 . S
C1044 C1043 1.355 . S
C1044 C1046 1.419 . S
C1045 C1040 1.425 . S
C1045 C1042 1.409 . S
C1045 C1043 1.415 . S
C1046 H1036 0.930 . S
C1046 C1044 1.419 . S
C1046 C1047 1.362 . S
C1047 H1037 0.930 . S
C1047 C1040 1.409 . S
C1047 C1046 1.362 . S
H1048 C1054 0.930 . S
H1049 C1057 0.930 . S
H1050 C1058 0.930 1_545 S
H1051 C1059 0.930 . S
H1052 C1062 0.930 . S
H1053 C1063 0.930 1_565 S
C1054 H1048 0.930 . S
C1054 C1055 1.355 . S
C1054 C1056 1.415 . S
C1055 C1054 1.355 . S
C1055 C1057 1.419 . S
C1056 C1054 1.415 . S
C1056 C1061 1.425 1_565 S
C1056 C1063 1.409 1_565 S
C1057 H1049 0.930 . S
C1057 C1055 1.419 . S
C1057 C1058 1.362 . S
C1058 H1050 0.930 1_565 S
C1058 C1057 1.362 . S
C1058 C1061 1.409 1_565 S
C1059 H1051 0.930 . S
C1059 C1060 1.355 . S
C1059 C1061 1.415 . S
C1060 C1059 1.355 . S
C1060 C1062 1.419 . S
C1061 C1056 1.425 1_545 S
C1061 C1058 1.409 1_545 S
C1061 C1059 1.415 . S
C1062 H1052 0.930 . S
C1062 C1060 1.419 . S
C1062 C1063 1.362 . S
C1063 H1053 0.930 1_545 S
C1063 C1056 1.409 1_545 S
C1063 C1062 1.362 . S
H1064 C1070 0.930 . S
H1065 C1073 0.930 . S
H1066 C1074 0.930 1_455 S
H1067 C1075 0.930 . S
H1068 C1078 0.930 . S
H1069 C1079 0.930 1_655 S
C1070 H1064 0.930 . S
C1070 C1071 1.355 . S
C1070 C1072 1.415 . S
C1071 C1070 1.355 . S
C1071 C1073 1.419 . S
C1072 C1070 1.415 . S
C1072 C1077 1.425 1_655 S
C1072 C1079 1.409 1_655 S
C1073 H1065 0.930 . S
C1073 C1071 1.419 . S
C1073 C1074 1.362 . S
C1074 H1066 0.930 1_655 S
C1074 C1073 1.362 . S
C1074 C1077 1.409 1_655 S
C1075 H1067 0.930 . S
C1075 C1076 1.355 . S
C1075 C1077 1.415 . S
C1076 C1075 1.355 . S
C1076 C1078 1.419 . S
C1077 C1072 1.425 1_455 S
C1077 C1074 1.409 1_455 S
C1077 C1075 1.415 . S
C1078 H1068 0.930 . S
C1078 C1076 1.419 . S
C1078 C1079 1.362 . S
C1079 H1069 0.930 1_455 S
C1079 C1072 1.409 1_455 S
C1079 C1078 1.362 . S
H1080 C1086 0.930 . S
H1081 C1089 0.930 . S
H1082 C1090 0.930 . S
H1083 C1091 0.930 . S
H1084 C1094 0.930 . S
H1085 C1095 0.930 . S
C1086 H1080 0.930 . S
C1086 C1087 1.355 . S
C1086 C1088 1.415 . S
C1087 C1086 1.355 . S
C1087 C1089 1.419 . S
C1088 C1086 1.415 . S
C1088 C1093 1.425 . S
C1088 C1095 1.409 . S
C1089 H1081 0.930 . S
C1089 C1087 1.419 . S
C1089 C1090 1.362 . S
C1090 H1082 0.930 . S
C1090 C1089 1.362 . S
C1090 C1093 1.409 . S
C1091 H1083 0.930 . S
C1091 C1092 1.355 . S
C1091 C1093 1.415 . S
C1092 C1091 1.355 . S
C1092 C1094 1.419 . S
C1093 C1088 1.425 . S
C1093 C1090 1.409 . S
C1093 C1091 1.415 . S
C1094 H1084 0.930 . S
C1094 C1092 1.419 . S
C1094 C1095 1.362 . S
C1095 H1085 0.930 . S
C1095 C1088 1.409 . S
C1095 C1094 1.362 . S
H1096 C1102 0.930 . S
H1097 C1105 0.930 . S
H1098 C1106 0.930 . S
H1099 C1107 0.930 . S
H1100 C1110 0.930 . S
H1101 C1111 0.930 . S
C1102 H1096 0.930 . S
C1102 C1103 1.355 . S
C1102 C1104 1.415 1_545 S
C1103 C1102 1.355 . S
C1103 C1105 1.419 . S
C1104 C1102 1.415 1_565 S
C1104 C1109 1.425 . S
C1104 C1111 1.409 . S
C1105 H1097 0.930 . S
C1105 C1103 1.419 . S
C1105 C1106 1.362 1_545 S
C1106 H1098 0.930 . S
C1106 C1105 1.362 1_565 S
C1106 C1109 1.409 . S
C1107 H1099 0.930 . S
C1107 C1108 1.355 . S
C1107 C1109 1.415 . S
C1108 C1107 1.355 . S
C1108 C1110 1.419 . S
C1109 C1104 1.425 . S
C1109 C1106 1.409 . S
C1109 C1107 1.415 . S
C1110 H1100 0.930 . S
C1110 C1108 1.419 . S
C1110 C1111 1.362 . S
C1111 H1101 0.930 . S
C1111 C1104 1.409 . S
C1111 C1110 1.362 . S
H1112 C1118 0.930 . S
H1113 C1121 0.930 . S
H1114 C1122 0.930 . S
H1115 C1123 0.930 . S
H1116 C1126 0.930 . S
H1117 C1127 0.930 . S
C1118 H1112 0.930 . S
C1118 C1119 1.355 . S
C1118 C1120 1.415 1_655 S
C1119 C1118 1.355 . S
C1119 C1121 1.419 . S
C1120 C1118 1.415 1_455 S
C1120 C1125 1.425 . S
C1120 C1127 1.409 . S
C1121 H1113 0.930 . S
C1121 C1119 1.419 . S
C1121 C1122 1.362 . S
C1122 H1114 0.930 . S
C1122 C1121 1.362 . S
C1122 C1125 1.409 1_655 S
C1123 H1115 0.930 . S
C1123 C1124 1.355 . S
C1123 C1125 1.415 . S
C1124 C1123 1.355 . S
C1124 C1126 1.419 . S
C1125 C1120 1.425 . S
C1125 C1122 1.409 1_455 S
C1125 C1123 1.415 . S
C1126 H1116 0.930 . S
C1126 C1124 1.419 . S
C1126 C1127 1.362 . S
C1127 H1117 0.930 . S
C1127 C1120 1.409 . S
C1127 C1126 1.362 . S
H1128 C1134 0.930 . S
H1129 C1137 0.930 . S
H1130 C1138 0.930 . S
H1131 C1139 0.930 . S
H1132 C1142 0.930 . S
H1133 C1143 0.930 . S
C1134 H1128 0.930 . S
C1134 C1135 1.355 . S
C1134 C1136 1.415 . S
C1135 C1134 1.355 . S
C1135 C1137 1.419 . S
C1136 C1134 1.415 . S
C1136 C1141 1.425 . S
C1136 C1143 1.409 . S
C1137 H1129 0.930 . S
C1137 C1135 1.419 . S
C1137 C1138 1.362 . S
C1138 H1130 0.930 . S
C1138 C1137 1.362 . S
C1138 C1141 1.409 . S
C1139 H1131 0.930 . S
C1139 C1140 1.355 . S
C1139 C1141 1.415 . S
C1140 C1139 1.355 . S
C1140 C1142 1.419 . S
C1141 C1136 1.425 . S
C1141 C1138 1.409 . S
C1141 C1139 1.415 . S
C1142 H1132 0.930 . S
C1142 C1140 1.419 . S
C1142 C1143 1.362 . S
C1143 H1133 0.930 . S
C1143 C1136 1.409 . S
C1143 C1142 1.362 . S
H1144 C1150 0.930 . S
H1145 C1153 0.930 . S
H1146 C1154 0.930 . S
H1147 C1155 0.930 . S
H1148 C1158 0.930 . S
H1149 C1159 0.930 . S
C1150 H1144 0.930 . S
C1150 C1151 1.355 . S
C1150 C1152 1.415 . S
C1151 C1150 1.355 . S
C1151 C1153 1.419 . S
C1152 C1150 1.415 . S
C1152 C1157 1.425 . S
C1152 C1159 1.409 . S
C1153 H1145 0.930 . S
C1153 C1151 1.419 . S
C1153 C1154 1.362 . S
C1154 H1146 0.930 . S
C1154 C1153 1.362 . S
C1154 C1157 1.409 . S
C1155 H1147 0.930 . S
C1155 C1156 1.355 . S
C1155 C1157 1.415 1_565 S
C1156 C1155 1.355 . S
C1156 C1158 1.419 . S
C1157 C1152 1.425 . S
C1157 C1154 1.409 . S
C1157 C1155 1.415 1_545 S
C1158 H1148 0.930 . S
C1158 C1156 1.419 . S
C1158 C1159 1.362 1_565 S
C1159 H1149 0.930 . S
C1159 C1152 1.409 . S
C1159 C1158 1.362 1_545 S
H1160 C1166 0.930 . S
H1161 C1169 0.930 . S
H1162 C1170 0.930 . S
H1163 C1171 0.930 . S
H1164 C1174 0.930 . S
H1165 C1175 0.930 . S
C1166 H1160 0.930 . S
C1166 C1167 1.355 . S
C1166 C1168 1.415 1_455 S
C1167 C1166 1.355 . S
C1167 C1169 1.419 . S
C1168 C1166 1.415 1_655 S
C1168 C1173 1.425 . S
C1168 C1175 1.409 . S
C1169 H1161 0.930 . S
C1169 C1167 1.419 . S
C1169 C1170 1.362 . S
C1170 H1162 0.930 . S
C1170 C1169 1.362 . S
C1170 C1173 1.409 1_455 S
C1171 H1163 0.930 . S
C1171 C1172 1.355 . S
C1171 C1173 1.415 . S
C1172 C1171 1.355 . S
C1172 C1174 1.419 . S
C1173 C1168 1.425 . S
C1173 C1170 1.409 1_655 S
C1173 C1171 1.415 . S
C1174 H1164 0.930 . S
C1174 C1172 1.419 . S
C1174 C1175 1.362 . S
C1175 H1165 0.930 . S
C1175 C1168 1.409 . S
C1175 C1174 1.362 . S
H1176 C1182 0.930 . S
H1177 C1185 0.930 . S
H1178 C1186 0.930 . S
H1179 C1187 0.930 . S
H1180 C1190 0.951 . S
H1181 C1191 0.930 . S
C1182 H1176 0.930 . S
C1182 C1183 1.355 . S
C1182 C1184 1.415 . S
C1183 C1182 1.355 . S
C1183 C1185 1.419 . S
C1184 C1182 1.415 . S
C1184 C1189 1.425 . S
C1184 C1191 1.409 . S
C1185 H1177 0.930 . S
C1185 C1183 1.419 . S
C1185 C1186 1.362 . S
C1186 H1178 0.930 . S
C1186 C1185 1.362 . S
C1186 C1189 1.409 . S
C1187 H1179 0.930 . S
C1187 C1188 1.355 . S
C1187 C1189 1.415 . S
C1188 C1187 1.355 . S
C1188 C1190 1.419 . S
C1189 C1184 1.425 . S
C1189 C1186 1.409 . S
C1189 C1187 1.415 . S
C1190 H1180 0.951 . S
C1190 C1188 1.419 . S
C1190 C1191 1.362 . S
C1191 H1181 0.930 . S
C1191 C1184 1.409 . S
C1191 C1190 1.362 . S
H1192 C1198 0.930 . S
H1193 C1201 0.930 . S
H1194 C1202 0.930 . S
H1195 C1203 0.930 . S
H1196 C1206 0.930 . S
H1197 C1207 0.930 . S
C1198 H1192 0.930 . S
C1198 C1199 1.355 . S
C1198 C1200 1.415 1_565 S
C1199 C1198 1.355 . S
C1199 C1201 1.419 . S
C1200 C1198 1.415 1_545 S
C1200 C1205 1.425 . S
C1200 C1207 1.409 . S
C1201 H1193 0.930 . S
C1201 C1199 1.419 . S
C1201 C1202 1.362 1_565 S
C1202 H1194 0.930 . S
C1202 C1201 1.362 1_545 S
C1202 C1205 1.409 . S
C1203 H1195 0.930 . S
C1203 C1204 1.355 . S
C1203 C1205 1.415 . S
C1204 C1203 1.355 . S
C1204 C1206 1.419 . S
C1205 C1200 1.425 . S
C1205 C1202 1.409 . S
C1205 C1203 1.415 . S
C1206 H1196 0.930 . S
C1206 C1204 1.419 . S
C1206 C1207 1.362 . S
C1207 H1197 0.930 . S
C1207 C1200 1.409 . S
C1207 C1206 1.362 . S
H1208 C1214 0.930 . S
H1209 C1217 0.930 . S
H1210 C1218 0.930 . S
H1211 C1219 0.930 . S
H1212 C1222 0.930 1_565 S
H1213 C1223 0.930 . S
C1214 H1208 0.930 . S
C1214 C1215 1.355 . S
C1214 C1216 1.415 1_455 S
C1215 C1214 1.355 . S
C1215 C1217 1.419 . S
C1216 C1214 1.415 1_655 S
C1216 C1221 1.425 . S
C1216 C1223 1.409 . S
C1217 H1209 0.930 . S
C1217 C1215 1.419 . S
C1217 C1218 1.362 1_455 S
C1218 H1210 0.930 . S
C1218 C1217 1.362 1_655 S
C1218 C1221 1.409 . S
C1219 H1211 0.930 . S
C1219 C1220 1.355 . S
C1219 C1221 1.415 . S
C1220 C1219 1.355 . S
C1220 C1222 1.419 . S
C1221 C1216 1.425 . S
C1221 C1218 1.409 . S
C1221 C1219 1.415 . S
C1222 H1212 0.930 1_545 S
C1222 C1220 1.419 . S
C1222 C1223 1.362 . S
C1223 H1213 0.930 . S
C1223 C1216 1.409 . S
C1223 C1222 1.362 . S
H1224 C1230 0.930 . S
H1225 C1233 0.930 . S
H1226 C1234 0.930 . S
H1227 C1235 0.930 . S
H1228 C1238 0.930 . S
H1229 C1239 0.930 . S
C1230 H1224 0.930 . S
C1230 C1231 1.355 . S
C1230 C1232 1.415 . S
C1231 C1230 1.355 . S
C1231 C1233 1.419 . S
C1232 C1230 1.415 . S
C1232 C1237 1.425 . S
C1232 C1239 1.409 . S
C1233 H1225 0.930 . S
C1233 C1231 1.419 . S
C1233 C1234 1.362 . S
C1234 H1226 0.930 . S
C1234 C1233 1.362 . S
C1234 C1237 1.409 . S
C1235 H1227 0.930 . S
C1235 C1236 1.355 . S
C1235 C1237 1.415 . S
C1236 C1235 1.355 . S
C1236 C1238 1.419 . S
C1237 C1232 1.425 . S
C1237 C1234 1.409 . S
C1237 C1235 1.415 . S
C1238 H1228 0.930 . S
C1238 C1236 1.419 . S
C1238 C1239 1.362 . S
C1239 H1229 0.930 . S
C1239 C1232 1.409 . S
C1239 C1238 1.362 . S
H1240 C1246 0.930 . S
H1241 C1249 0.930 . S
H1242 C1250 0.930 . S
H1243 C1251 0.930 . S
H1244 C1254 0.930 . S
H1245 C1255 0.930 . S
C1246 H1240 0.930 . S
C1246 C1247 1.355 . S
C1246 C1248 1.415 1_545 S
C1247 C1246 1.355 . S
C1247 C1249 1.419 . S
C1248 C1246 1.415 1_565 S
C1248 C1253 1.425 . S
C1248 C1255 1.409 . S
C1249 H1241 0.930 . S
C1249 C1247 1.419 . S
C1249 C1250 1.362 . S
C1250 H1242 0.930 . S
C1250 C1249 1.362 . S
C1250 C1253 1.409 1_545 S
C1251 H1243 0.930 . S
C1251 C1252 1.355 . S
C1251 C1253 1.415 . S
C1252 C1251 1.355 . S
C1252 C1254 1.419 . S
C1253 C1248 1.425 . S
C1253 C1250 1.409 1_565 S
C1253 C1251 1.415 . S
C1254 H1244 0.930 . S
C1254 C1252 1.419 . S
C1254 C1255 1.362 . S
C1255 H1245 0.930 . S
C1255 C1248 1.409 . S
C1255 C1254 1.362 . S
H1256 C1262 0.930 . S
H1257 C1265 0.930 . S
H1258 C1266 0.930 . S
H1259 C1267 0.930 . S
H1260 C1270 0.930 . S
H1261 C1271 0.930 . S
C1262 H1256 0.930 . S
C1262 C1263 1.355 . S
C1262 C1264 1.415 . S
C1263 C1262 1.355 . S
C1263 C1265 1.419 . S
C1264 C1262 1.415 . S
C1264 C1269 1.425 . S
C1264 C1271 1.409 1_455 S
C1265 H1257 0.930 . S
C1265 C1263 1.419 . S
C1265 C1266 1.362 . S
C1266 H1258 0.930 . S
C1266 C1265 1.362 . S
C1266 C1269 1.409 . S
C1267 H1259 0.930 . S
C1267 C1268 1.355 . S
C1267 C1269 1.415 1_655 S
C1268 C1267 1.355 . S
C1268 C1270 1.419 . S
C1269 C1264 1.425 . S
C1269 C1266 1.409 . S
C1269 C1267 1.415 1_455 S
C1270 H1260 0.930 . S
C1270 C1268 1.419 . S
C1270 C1271 1.362 . S
C1271 H1261 0.930 . S
C1271 C1264 1.409 1_655 S
C1271 C1270 1.362 . S
H1272 C1278 0.930 . S
H1273 C1281 0.930 . S
H1274 C1282 0.930 . S
H1275 C1283 0.930 . S
H1276 C1286 0.930 . S
H1277 C1287 0.930 . S
C1278 H1272 0.930 . S
C1278 C1279 1.355 . S
C1278 C1280 1.415 . S
C1279 C1278 1.355 . S
C1279 C1281 1.419 . S
C1280 C1278 1.415 . S
C1280 C1285 1.425 . S
C1280 C1287 1.409 . S
C1281 H1273 0.930 . S
C1281 C1279 1.419 . S
C1281 C1282 1.362 . S
C1282 H1274 0.930 . S
C1282 C1281 1.362 . S
C1282 C1285 1.409 . S
C1283 H1275 0.930 . S
C1283 C1284 1.355 . S
C1283 C1285 1.415 . S
C1284 C1283 1.355 . S
C1284 C1286 1.419 . S
C1285 C1280 1.425 . S
C1285 C1282 1.409 . S
C1285 C1283 1.415 . S
C1286 H1276 0.930 . S
C1286 C1284 1.419 . S
C1286 C1287 1.362 . S
C1287 H1277 0.930 . S
C1287 C1280 1.409 . S
C1287 C1286 1.362 . S
H1288 C1294 0.930 . S
H1289 C1297 0.930 . S
H1290 C1298 0.930 . S
H1291 C1299 0.930 . S
H1292 C1302 0.930 . S
H1293 C1303 0.930 . S
C1294 H1288 0.930 . S
C1294 C1295 1.355 . S
C1294 C1296 1.415 . S
C1295 C1294 1.355 . S
C1295 C1297 1.419 . S
C1296 C1294 1.415 . S
C1296 C1301 1.425 . S
C1296 C1303 1.409 . S
C1297 H1289 0.930 . S
C1297 C1295 1.419 . S
C1297 C1298 1.362 . S
C1298 H1290 0.930 . S
C1298 C1297 1.362 . S
C1298 C1301 1.409 . S
C1299 H1291 0.930 . S
C1299 C1300 1.355 . S
C1299 C1301 1.415 . S
C1300 C1299 1.355 . S
C1300 C1302 1.419 . S
C1301 C1296 1.425 . S
C1301 C1298 1.409 . S
C1301 C1299 1.415 . S
C1302 H1292 0.930 . S
C1302 C1300 1.419 . S
C1302 C1303 1.362 . S
C1303 H1293 0.930 . S
C1303 C1296 1.409 . S
C1303 C1302 1.362 . S
H1304 C1310 0.930 . S
H1305 C1313 0.930 . S
H1306 C1314 0.930 . S
H1307 C1315 0.930 . S
H1308 C1318 0.930 . S
H1309 C1319 0.930 . S
C1310 H1304 0.930 . S
C1310 C1311 1.355 . S
C1310 C1312 1.415 . S
C1311 C1310 1.355 . S
C1311 C1313 1.419 . S
C1312 C1310 1.415 . S
C1312 C1317 1.425 . S
C1312 C1319 1.409 . S
C1313 H1305 0.930 . S
C1313 C1311 1.419 . S
C1313 C1314 1.362 . S
C1314 H1306 0.930 . S
C1314 C1313 1.362 . S
C1314 C1317 1.409 . S
C1315 H1307 0.930 . S
C1315 C1316 1.355 . S
C1315 C1317 1.415 . S
C1316 C1315 1.355 . S
C1316 C1318 1.419 . S
C1317 C1312 1.425 . S
C1317 C1314 1.409 . S
C1317 C1315 1.415 . S
C1318 H1308 0.930 . S
C1318 C1316 1.419 . S
C1318 C1319 1.362 . S
C1319 H1309 0.930 . S
C1319 C1312 1.409 . S
C1319 C1318 1.362 . S
H1320 C1326 0.930 . S
H1321 C1329 0.930 . S
H1322 C1330 0.930 . S
H1323 C1331 0.930 . S
H1324 C1334 0.930 . S
H1325 C1335 0.930 . S
C1326 H1320 0.930 . S
C1326 C1327 1.355 . S
C1326 C1328 1.415 . S
C1327 C1326 1.355 . S
C1327 C1329 1.419 . S
C1328 C1326 1.415 . S
C1328 C1333 1.425 . S
C1328 C1335 1.409 . S
C1329 H1321 0.930 . S
C1329 C1327 1.419 . S
C1329 C1330 1.362 . S
C1330 H1322 0.930 . S
C1330 C1329 1.362 . S
C1330 C1333 1.409 . S
C1331 H1323 0.930 . S
C1331 C1332 1.355 . S
C1331 C1333 1.415 . S
C1332 C1331 1.355 . S
C1332 C1334 1.419 . S
C1333 C1328 1.425 . S
C1333 C1330 1.409 . S
C1333 C1331 1.415 . S
C1334 H1324 0.930 . S
C1334 C1332 1.419 . S
C1334 C1335 1.362 . S
C1335 H1325 0.930 . S
C1335 C1328 1.409 . S
C1335 C1334 1.362 . S
H1336 C1342 0.930 . S
H1337 C1345 0.930 . S
H1338 C1346 0.930 . S
H1339 C1347 0.930 . S
H1340 C1350 0.930 . S
H1341 C1351 0.930 . S
C1342 H1336 0.930 . S
C1342 C1343 1.355 . S
C1342 C1344 1.415 . S
C1343 C1342 1.355 . S
C1343 C1345 1.419 . S
C1344 C1342 1.415 . S
C1344 C1349 1.425 . S
C1344 C1351 1.409 . S
C1345 H1337 0.930 . S
C1345 C1343 1.419 . S
C1345 C1346 1.362 . S
C1346 H1338 0.930 . S
C1346 C1345 1.362 . S
C1346 C1349 1.409 . S
C1347 H1339 0.930 . S
C1347 C1348 1.355 . S
C1347 C1349 1.415 . S
C1348 C1347 1.355 . S
C1348 C1350 1.419 . S
C1349 C1344 1.425 . S
C1349 C1346 1.409 . S
C1349 C1347 1.415 . S
C1350 H1340 0.930 . S
C1350 C1348 1.419 . S
C1350 C1351 1.362 . S
C1351 H1341 0.930 . S
C1351 C1344 1.409 . S
C1351 C1350 1.362 . S
H1352 C1358 0.930 . S
H1353 C1361 0.930 . S
H1354 C1362 0.930 . S
H1355 C1363 0.930 . S
H1356 C1366 0.930 . S
H1357 C1367 0.930 . S
C1358 H1352 0.930 . S
C1358 C1359 1.355 . S
C1358 C1360 1.415 . S
C1359 C1358 1.355 . S
C1359 C1361 1.419 . S
C1360 C1358 1.415 . S
C1360 C1365 1.425 . S
C1360 C1367 1.409 . S
C1361 H1353 0.930 . S
C1361 C1359 1.419 . S
C1361 C1362 1.362 . S
C1362 H1354 0.930 . S
C1362 C1361 1.362 . S
C1362 C1365 1.409 . S
C1363 H1355 0.930 . S
C1363 C1364 1.355 . S
C1363 C1365 1.415 . S
C1364 C1363 1.355 . S
C1364 C1366 1.419 . S
C1365 C1360 1.425 . S
C1365 C1362 1.409 . S
C1365 C1363 1.415 . S
C1366 H1356 0.930 . S
C1366 C1364 1.419 . S
C1366 C1367 1.362 . S
C1367 H1357 0.930 . S
C1367 C1360 1.409 . S
C1367 C1366 1.362 . S
H1368 C1374 0.930 . S
H1369 C1377 0.930 . S
H1370 C1378 0.930 . S
H1371 C1379 0.930 . S
H1372 C1382 0.930 . S
H1373 C1383 0.930 . S
C1374 H1368 0.930 . S
C1374 C1375 1.355 . S
C1374 C1376 1.415 . S
C1375 C1374 1.355 . S
C1375 C1377 1.419 . S
C1376 C1374 1.415 . S
C1376 C1381 1.425 . S
C1376 C1383 1.409 . S
C1377 H1369 0.930 . S
C1377 C1375 1.419 . S
C1377 C1378 1.362 . S
C1378 H1370 0.930 . S
C1378 C1377 1.362 . S
C1378 C1381 1.409 . S
C1379 H1371 0.930 . S
C1379 C1380 1.355 . S
C1379 C1381 1.415 . S
C1380 C1379 1.355 . S
C1380 C1382 1.419 . S
C1381 C1376 1.425 . S
C1381 C1378 1.409 . S
C1381 C1379 1.415 . S
C1382 H1372 0.930 . S
C1382 C1380 1.419 . S
C1382 C1383 1.362 . S
C1383 H1373 0.930 . S
C1383 C1376 1.409 . S
C1383 C1382 1.362 . S
H1384 C1390 0.930 . S
H1385 C1393 0.930 . S
H1386 C1394 0.930 . S
H1387 C1395 0.930 . S
H1388 C1398 0.930 . S
H1389 C1399 0.930 . S
C1390 H1384 0.930 . S
C1390 C1391 1.355 . S
C1390 C1392 1.415 . S
C1391 C1390 1.355 . S
C1391 C1393 1.419 . S
C1392 C1390 1.415 . S
C1392 C1397 1.425 . S
C1392 C1399 1.409 . S
C1393 H1385 0.930 . S
C1393 C1391 1.419 . S
C1393 C1394 1.362 . S
C1394 H1386 0.930 . S
C1394 C1393 1.362 . S
C1394 C1397 1.409 . S
C1395 H1387 0.930 . S
C1395 C1396 1.355 . S
C1395 C1397 1.415 . S
C1396 C1395 1.355 . S
C1396 C1398 1.419 . S
C1397 C1392 1.425 . S
C1397 C1394 1.409 . S
C1397 C1395 1.415 . S
C1398 H1388 0.930 . S
C1398 C1396 1.419 . S
C1398 C1399 1.362 . S
C1399 H1389 0.930 . S
C1399 C1392 1.409 . S
C1399 C1398 1.362 . S
H1400 C1406 0.930 . S
H1401 C1409 0.930 . S
H1402 C1410 0.930 . S
H1403 C1411 0.930 . S
H1404 C1414 0.930 . S
H1405 C1415 0.930 . S
C1406 H1400 0.930 . S
C1406 C1407 1.355 . S
C1406 C1408 1.415 . S
C1407 C1406 1.355 . S
C1407 C1409 1.419 . S
C1408 C1406 1.415 . S
C1408 C1413 1.425 . S
C1408 C1415 1.409 . S
C1409 H1401 0.930 . S
C1409 C1407 1.419 . S
C1409 C1410 1.362 . S
C1410 H1402 0.930 . S
C1410 C1409 1.362 . S
C1410 C1413 1.409 . S
C1411 H1403 0.930 . S
C1411 C1412 1.355 . S
C1411 C1413 1.415 . S
C1412 C1411 1.355 . S
C1412 C1414 1.419 . S
C1413 C1408 1.425 . S
C1413 C1410 1.409 . S
C1413 C1411 1.415 . S
C1414 H1404 0.930 . S
C1414 C1412 1.419 . S
C1414 C1415 1.362 . S
C1415 H1405 0.930 . S
C1415 C1408 1.409 . S
C1415 C1414 1.362 . S
H1416 C1422 0.930 . S
H1417 C1425 0.930 . S
H1418 C1426 0.930 . S
H1419 C1427 0.930 . S
H1420 C1430 0.930 . S
H1421 C1431 0.930 . S
C1422 H1416 0.930 . S
C1422 C1423 1.355 . S
C1422 C1424 1.415 . S
C1423 C1422 1.355 . S
C1423 C1425 1.419 . S
C1424 C1422 1.415 . S
C1424 C1429 1.425 . S
C1424 C1431 1.409 . S
C1425 H1417 0.930 . S
C1425 C1423 1.419 . S
C1425 C1426 1.362 . S
C1426 H1418 0.930 . S
C1426 C1425 1.362 . S
C1426 C1429 1.409 . S
C1427 H1419 0.930 . S
C1427 C1428 1.355 . S
C1427 C1429 1.415 . S
C1428 C1427 1.355 . S
C1428 C1430 1.419 . S
C1429 C1424 1.425 . S
C1429 C1426 1.409 . S
C1429 C1427 1.415 . S
C1430 H1420 0.930 . S
C1430 C1428 1.419 . S
C1430 C1431 1.362 . S
C1431 H1421 0.930 . S
C1431 C1424 1.409 . S
C1431 C1430 1.362 . S
H1432 C1438 0.930 . S
H1433 C1441 0.930 . S
H1434 C1442 0.930 . S
H1435 C1443 0.930 . S
H1436 C1446 0.930 . S
H1437 C1447 0.930 . S
C1438 H1432 0.930 . S
C1438 C1439 1.355 . S
C1438 C1440 1.415 . S
C1439 C1438 1.355 . S
C1439 C1441 1.419 . S
C1440 C1438 1.415 . S
C1440 C1445 1.425 . S
C1440 C1447 1.409 . S
C1441 H1433 0.930 . S
C1441 C1439 1.419 . S
C1441 C1442 1.362 . S
C1442 H1434 0.930 . S
C1442 C1441 1.362 . S
C1442 C1445 1.409 . S
C1443 H1435 0.930 . S
C1443 C1444 1.355 . S
C1443 C1445 1.415 . S
C1444 C1443 1.355 . S
C1444 C1446 1.419 . S
C1445 C1440 1.425 . S
C1445 C1442 1.409 . S
C1445 C1443 1.415 . S
C1446 H1436 0.930 . S
C1446 C1444 1.419 . S
C1446 C1447 1.362 . S
C1447 H1437 0.930 . S
C1447 C1440 1.409 . S
C1447 C1446 1.362 . S
H1448 C1454 0.930 . S
H1449 C1457 0.930 . S
H1450 C1458 0.930 . S
H1451 C1459 0.930 . S
H1452 C1462 0.930 . S
H1453 C1463 0.930 . S
C1454 H1448 0.930 . S
C1454 C1455 1.355 . S
C1454 C1456 1.415 . S
C1455 C1454 1.355 . S
C1455 C1457 1.419 . S
C1456 C1454 1.415 . S
C1456 C1461 1.425 . S
C1456 C1463 1.409 . S
C1457 H1449 0.930 . S
C1457 C1455 1.419 . S
C1457 C1458 1.362 . S
C1458 H1450 0.930 . S
C1458 C1457 1.362 . S
C1458 C1461 1.409 . S
C1459 H1451 0.930 . S
C1459 C1460 1.355 . S
C1459 C1461 1.415 . S
C1460 C1459 1.355 . S
C1460 C1462 1.419 . S
C1461 C1456 1.425 . S
C1461 C1458 1.409 . S
C1461 C1459 1.415 . S
C1462 H1452 0.930 . S
C1462 C1460 1.419 . S
C1462 C1463 1.362 . S
C1463 H1453 0.930 . S
C1463 C1456 1.409 . S
C1463 C1462 1.362 . S
H1464 C1470 0.930 . S
H1465 C1473 0.930 . S
H1466 C1474 0.930 . S
H1467 C1475 0.930 . S
H1468 C1478 0.930 . S
H1469 C1479 0.930 . S
C1470 H1464 0.930 . S
C1470 C1471 1.355 . S
C1470 C1472 1.415 . S
C1471 C1470 1.355 . S
C1471 C1473 1.419 . S
C1472 C1470 1.415 . S
C1472 C1477 1.425 . S
C1472 C1479 1.409 . S
C1473 H1465 0.930 . S
C1473 C1471 1.419 . S
C1473 C1474 1.362 . S
C1474 H1466 0.930 . S
C1474 C1473 1.362 . S
C1474 C1477 1.409 . S
C1475 H1467 0.930 . S
C1475 C1476 1.355 . S
C1475 C1477 1.415 . S
C1476 C1475 1.355 . S
C1476 C1478 1.419 . S
C1477 C1472 1.425 . S
C1477 C1474 1.409 . S
C1477 C1475 1.415 . S
C1478 H1468 0.930 . S
C1478 C1476 1.419 . S
C1478 C1479 1.362 . S
C1479 H1469 0.930 . S
C1479 C1472 1.409 . S
C1479 C1478 1.362 . S
H1480 C1486 0.930 . S
H1481 C1489 0.930 . S
H1482 C1490 0.930 . S
H1483 C1491 0.930 . S
H1484 C1494 0.930 . S
H1485 C1495 0.930 . S
C1486 H1480 0.930 . S
C1486 C1487 1.355 . S
C1486 C1488 1.415 . S
C1487 C1486 1.355 . S
C1487 C1489 1.419 . S
C1488 C1486 1.415 . S
C1488 C1493 1.425 . S
C1488 C1495 1.409 . S
C1489 H1481 0.930 . S
C1489 C1487 1.419 . S
C1489 C1490 1.362 . S
C1490 H1482 0.930 . S
C1490 C1489 1.362 . S
C1490 C1493 1.409 . S
C1491 H1483 0.930 . S
C1491 C1492 1.355 . S
C1491 C1493 1.415 . S
C1492 C1491 1.355 . S
C1492 C1494 1.419 . S
C1493 C1488 1.425 . S
C1493 C1490 1.409 . S
C1493 C1491 1.415 . S
C1494 H1484 0.930 . S
C1494 C1492 1.419 . S
C1494 C1495 1.362 . S
C1495 H1485 0.930 . S
C1495 C1488 1.409 . S
C1495 C1494 1.362 . S
H1496 C1502 0.930 . S
H1497 C1505 0.930 . S
H1498 C1506 0.930 . S
H1499 C1507 0.930 . S
H1500 C1510 0.930 . S
H1501 C1511 0.930 . S
C1502 H1496 0.930 . S
C1502 C1503 1.355 . S
C1502 C1504 1.415 . S
C1503 C1502 1.355 . S
C1503 C1505 1.419 . S
C1504 C1502 1.415 . S
C1504 C1509 1.425 . S
C1504 C1511 1.409 . S
C1505 H1497 0.930 . S
C1505 C1503 1.419 . S
C1505 C1506 1.362 . S
C1506 H1498 0.930 . S
C1506 C1505 1.362 . S
C1506 C1509 1.409 . S
C1507 H1499 0.930 . S
C1507 C1508 1.355 . S
C1507 C1509 1.415 . S
C1508 C1507 1.355 . S
C1508 C1510 1.419 . S
C1509 C1504 1.425 . S
C1509 C1506 1.409 . S
C1509 C1507 1.415 . S
C1510 H1500 0.930 . S
C1510 C1508 1.419 . S
C1510 C1511 1.362 . S
C1511 H1501 0.930 . S
C1511 C1504 1.409 . S
C1511 C1510 1.362 . S
H1512 C1518 0.930 . S
H1513 C1521 0.930 . S
H1514 C1522 0.930 . S
H1515 C1523 0.930 . S
H1516 C1526 0.930 . S
H1517 C1527 0.930 . S
C1518 H1512 0.930 . S
C1518 C1519 1.355 . S
C1518 C1520 1.415 . S
C1519 C1518 1.355 . S
C1519 C1521 1.419 . S
C1520 C1518 1.415 . S
C1520 C1525 1.425 . S
C1520 C1527 1.409 . S
C1521 H1513 0.930 . S
C1521 C1519 1.419 . S
C1521 C1522 1.362 . S
C1522 H1514 0.930 . S
C1522 C1521 1.362 . S
C1522 C1525 1.409 . S
C1523 H1515 0.930 . S
C1523 C1524 1.355 . S
C1523 C1525 1.415 . S
C1524 C1523 1.355 . S
C1524 C1526 1.419 . S
C1525 C1520 1.425 . S
C1525 C1522 1.409 . S
C1525 C1523 1.415 . S
C1526 H1516 0.930 . S
C1526 C1524 1.419 . S
C1526 C1527 1.362 . S
C1527 H1517 0.930 . S
C1527 C1520 1.409 . S
C1527 C1526 1.362 . S
H1528 C1534 0.930 . S
H1529 C1537 0.930 . S
H1530 C1538 0.930 . S
H1531 C1539 0.930 . S
H1532 C1542 0.930 . S
H1533 C1543 0.930 . S
C1534 H1528 0.930 . S
C1534 C1535 1.355 . S
C1534 C1536 1.415 . S
C1535 C1534 1.355 . S
C1535 C1537 1.419 . S
C1536 C1534 1.415 . S
C1536 C1541 1.425 . S
C1536 C1543 1.409 . S
C1537 H1529 0.930 . S
C1537 C1535 1.419 . S
C1537 C1538 1.362 . S
C1538 H1530 0.930 . S
C1538 C1537 1.362 . S
C1538 C1541 1.409 . S
C1539 H1531 0.930 . S
C1539 C1540 1.355 . S
C1539 C1541 1.415 . S
C1540 C1539 1.355 . S
C1540 C1542 1.419 . S
C1541 C1536 1.425 . S
C1541 C1538 1.409 . S
C1541 C1539 1.415 . S
C1542 H1532 0.930 . S
C1542 C1540 1.419 . S
C1542 C1543 1.362 . S
C1543 H1533 0.930 . S
C1543 C1536 1.409 . S
C1543 C1542 1.362 . S
H1544 C1550 0.930 . S
H1545 C1553 0.930 . S
H1546 C1554 0.930 . S
H1547 C1555 0.930 . S
H1548 C1558 0.930 . S
H1549 C1559 0.930 . S
C1550 H1544 0.930 . S
C1550 C1551 1.355 . S
C1550 C1552 1.415 . S
C1551 C1550 1.355 . S
C1551 C1553 1.419 . S
C1552 C1550 1.415 . S
C1552 C1557 1.425 . S
C1552 C1559 1.409 . S
C1553 H1545 0.930 . S
C1553 C1551 1.419 . S
C1553 C1554 1.362 . S
C1554 H1546 0.930 . S
C1554 C1553 1.362 . S
C1554 C1557 1.409 . S
C1555 H1547 0.930 . S
C1555 C1556 1.355 . S
C1555 C1557 1.415 . S
C1556 C1555 1.355 . S
C1556 C1558 1.419 . S
C1557 C1552 1.425 . S
C1557 C1554 1.409 . S
C1557 C1555 1.415 . S
C1558 H1548 0.930 . S
C1558 C1556 1.419 . S
C1558 C1559 1.362 . S
C1559 H1549 0.930 . S
C1559 C1552 1.409 . S
C1559 C1558 1.362 . S
H1560 C1566 0.930 . S
H1561 C1569 0.930 . S
H1562 C1570 0.930 . S
H1563 C1571 0.930 . S
H1564 C1574 0.930 . S
H1565 C1575 0.930 . S
C1566 H1560 0.930 . S
C1566 C1567 1.355 . S
C1566 C1568 1.415 . S
C1567 C1566 1.355 . S
C1567 C1569 1.419 . S
C1568 C1566 1.415 . S
C1568 C1573 1.425 . S
C1568 C1575 1.409 . S
C1569 H1561 0.930 . S
C1569 C1567 1.419 . S
C1569 C1570 1.362 . S
C1570 H1562 0.930 . S
C1570 C1569 1.362 . S
C1570 C1573 1.409 . S
C1571 H1563 0.930 . S
C1571 C1572 1.355 . S
C1571 C1573 1.415 . S
C1572 C1571 1.355 . S
C1572 C1574 1.419 . S
C1573 C1568 1.425 . S
C1573 C1570 1.409 . S
C1573 C1571 1.415 . S
C1574 H1564 0.930 . S
C1574 C1572 1.419 . S
C1574 C1575 1.362 . S
C1575 H1565 0.930 . S
C1575 C1568 1.409 . S
C1575 C1574 1.362 . S
H1576 C1582 0.930 . S
H1577 C1585 0.930 . S
H1578 C1586 0.930 . S
H1579 C1587 0.930 . S
H1580 C1590 0.930 . S
H1581 C1591 0.930 . S
C1582 H1576 0.930 . S
C1582 C1583 1.355 . S
C1582 C1584 1.415 . S
C1583 C1582 1.355 . S
C1583 C1585 1.419 . S
C1584 C1582 1.415 . S
C1584 C1589 1.425 . S
C1584 C1591 1.409 . S
C1585 H1577 0.930 . S
C1585 C1583 1.419 . S
C1585 C1586 1.362 . S
C1586 H1578 0.930 . S
C1586 C1585 1.362 . S
C1586 C1589 1.409 . S
C1587 H1579 0.930 . S
C1587 C1588 1.355 . S
C1587 C1589 1.415 . S
C1588 C1587 1.355 . S
C1588 C1590 1.419 . S
C1589 C1584 1.425 . S
C1589 C1586 1.409 . S
C1589 C1587 1.415 . S
C1590 H1580 0.930 . S
C1590 C1588 1.419 . S
C1590 C1591 1.362 . S
C1591 H1581 0.930 . S
C1591 C1584 1.409 . S
C1591 C1590 1.362 . S
H1592 C1598 0.930 . S
H1593 C1601 0.930 . S
H1594 C1602 0.930 . S
H1595 C1603 0.930 . S
H1596 C1606 0.930 . S
H1597 C1607 0.930 . S
C1598 H1592 0.930 . S
C1598 C1599 1.355 . S
C1598 C1600 1.415 . S
C1599 C1598 1.355 . S
C1599 C1601 1.419 . S
C1600 C1598 1.415 . S
C1600 C1605 1.425 . S
C1600 C1607 1.409 . S
C1601 H1593 0.930 . S
C1601 C1599 1.419 . S
C1601 C1602 1.362 . S
C1602 H1594 0.930 . S
C1602 C1601 1.362 . S
C1602 C1605 1.409 . S
C1603 H1595 0.930 . S
C1603 C1604 1.355 . S
C1603 C1605 1.415 . S
C1604 C1603 1.355 . S
C1604 C1606 1.419 . S
C1605 C1600 1.425 . S
C1605 C1602 1.409 . S
C1605 C1603 1.415 . S
C1606 H1596 0.930 . S
C1606 C1604 1.419 . S
C1606 C1607 1.362 . S
C1607 H1597 0.930 . S
C1607 C1600 1.409 . S
C1607 C1606 1.362 . S
H1608 C1614 0.930 . S
H1609 C1617 0.930 . S
H1610 C1618 0.930 . S
H1611 C1619 0.930 . S
H1612 C1622 0.930 . S
H1613 C1623 0.930 . S
C1614 H1608 0.930 . S
C1614 C1615 1.355 . S
C1614 C1616 1.415 . S
C1615 C1614 1.355 . S
C1615 C1617 1.419 . S
C1616 C1614 1.415 . S
C1616 C1621 1.425 . S
C1616 C1623 1.409 . S
C1617 H1609 0.930 . S
C1617 C1615 1.419 . S
C1617 C1618 1.362 . S
C1618 H1610 0.930 . S
C1618 C1617 1.362 . S
C1618 C1621 1.409 . S
C1619 H1611 0.930 . S
C1619 C1620 1.355 . S
C1619 C1621 1.415 . S
C1620 C1619 1.355 . S
C1620 C1622 1.419 . S
C1621 C1616 1.425 . S
C1621 C1618 1.409 . S
C1621 C1619 1.415 . S
C1622 H1612 0.930 . S
C1622 C1620 1.419 . S
C1622 C1623 1.362 . S
C1623 H1613 0.930 . S
C1623 C1616 1.409 . S
C1623 C1622 1.362 . S
H1624 C1630 0.930 . S
H1625 C1633 0.930 . S
H1626 C1634 0.930 . S
H1627 C1635 0.930 . S
H1628 C1638 0.930 . S
H1629 C1639 0.930 . S
C1630 H1624 0.930 . S
C1630 C1631 1.355 . S
C1630 C1632 1.415 . S
C1631 C1630 1.355 . S
C1631 C1633 1.419 . S
C1632 C1630 1.415 . S
C1632 C1637 1.425 . S
C1632 C1639 1.409 . S
C1633 H1625 0.930 . S
C1633 C1631 1.419 . S
C1633 C1634 1.362 . S
C1634 H1626 0.930 . S
C1634 C1633 1.362 . S
C1634 C1637 1.409 . S
C1635 H1627 0.930 . S
C1635 C1636 1.355 . S
C1635 C1637 1.415 . S
C1636 C1635 1.355 . S
C1636 C1638 1.419 . S
C1637 C1632 1.425 . S
C1637 C1634 1.409 . S
C1637 C1635 1.415 . S
C1638 H1628 0.930 . S
C1638 C1636 1.419 . S
C1638 C1639 1.362 . S
C1639 H1629 0.930 . S
C1639 C1632 1.409 . S
C1639 C1638 1.362 . S
H1640 C1646 0.930 . S
H1641 C1649 0.930 . S
H1642 C1650 0.930 . S
H1643 C1651 0.930 . S
H1644 C1654 0.930 . S
H1645 C1655 0.930 . S
C1646 H1640 0.930 . S
C1646 C1647 1.355 . S
C1646 C1648 1.415 . S
C1647 C1646 1.355 . S
C1647 C1649 1.419 . S
C1648 C1646 1.415 . S
C1648 C1653 1.425 . S
C1648 C1655 1.409 . S
C1649 H1641 0.930 . S
C1649 C1647 1.419 . S
C1649 C1650 1.362 . S
C1650 H1642 0.930 . S
C1650 C1649 1.362 . S
C1650 C1653 1.409 . S
C1651 H1643 0.930 . S
C1651 C1652 1.355 . S
C1651 C1653 1.415 . S
C1652 C1651 1.355 . S
C1652 C1654 1.419 . S
C1653 C1648 1.425 . S
C1653 C1650 1.409 . S
C1653 C1651 1.415 . S
C1654 H1644 0.930 . S
C1654 C1652 1.419 . S
C1654 C1655 1.362 . S
C1655 H1645 0.930 . S
C1655 C1648 1.409 . S
C1655 C1654 1.362 . S
C511 C13 1.306 . S
C516 C265 1.306 . S
C527 C279 1.251 . S
C532 C27 1.251 . S
C543 C293 1.337 . S
C548 C41 1.337 . S
C559 C55 1.262 . S
C564 C475 1.262 . S
C575 C69 1.334 . S
C580 C489 1.334 . S
C591 C83 1.342 . S
C596 C503 1.342 . S
C607 C349 1.338 . S
C612 C97 1.338 . S
C623 C111 1.325 . S
C628 C363 1.325 . S
C639 C125 1.244 . S
C644 C377 1.244 . S
C655 C223 1.337 . S
C660 C139 1.337 . S
C671 C237 1.279 . S
C676 C153 1.279 . S
C687 C251 1.331 . S
C692 C167 1.331 . S
C703 C433 1.248 . S
C708 C181 1.248 . S
C719 C447 1.340 . S
C724 C195 1.340 . S
C735 C209 1.301 . S
C740 C461 1.301 . S
C751 C391 1.307 . S
C756 C307 1.307 . S
C767 C321 1.231 . S
C772 C405 1.231 . S
C783 C335 1.329 . S
C788 C419 1.329 . S
C799 C11 1.461 . S
C804 C389 1.474 . S
C815 C403 1.444 . S
C820 C25 1.413 . S
C831 C417 1.472 . S
C836 C39 1.464 . S
C847 C179 1.458 . S
C852 C53 1.411 . S
C863 C193 1.418 . S
C868 C67 1.474 . S
C879 C207 1.423 . S
C884 C81 1.478 . S
C895 C95 1.411 . S
C900 C305 1.457 . S
C911 C319 1.427 . S
C916 C109 1.423 . S
C927 C333 1.436 . S
C932 C123 1.416 . S
C943 C137 1.481 . S
C948 C431 1.442 . S
C959 C151 1.468 . S
C964 C445 1.468 . S
C975 C165 1.481 . S
C980 C459 1.443 . S
C991 C221 1.480 . S
C996 C347 1.431 . S
C1007 C235 1.474 . S
C1012 C361 1.418 . S
C1023 C249 1.470 . S
C1028 C375 1.467 . S
C1039 C263 1.479 . S
C1044 C473 1.451 . S
C1055 C487 1.412 . S
C1060 C277 1.445 . S
C1071 C291 1.470 . S
C1076 C501 1.415 . S
C1087 C21 1.150 . S
C1092 C8 1.072 . S
C1103 C22 1.016 . S
C1108 C35 1.096 . S
C1119 C36 0.973 . S
C1124 C7 1.136 . S
C1135 C50 1.094 . S
C1140 C77 1.128 . S
C1151 C49 1.139 . S
C1156 C64 1.097 . S
C1167 C78 0.950 . S
C1172 C63 1.095 . S
C1183 C92 1.040 . S
C1188 C105 1.101 . S
C1199 C106 1.076 . S
C1204 C119 1.150 . S
C1215 C120 0.987 . S
C1220 C91 1.093 . S
C1231 C161 1.117 . S
C1236 C134 1.080 . S
C1247 C148 1.034 . S
C1252 C133 1.150 . S
C1263 C147 1.104 . S
C1268 C162 0.931 . S
C1279 C189 1.123 . S
C1284 C176 1.089 . S
C1295 C203 1.149 . S
C1300 C190 1.078 . S
C1311 C175 1.143 . S
C1316 C204 1.094 . S
C1327 C218 1.045 . S
C1332 C245 1.103 . S
C1343 C232 0.941 . S
C1348 C217 1.122 . S
C1359 C246 1.083 . S
C1364 C231 1.148 . S
C1375 C273 1.148 . S
C1380 C260 1.024 . S
C1391 C274 0.948 . S
C1396 C287 1.126 . S
C1407 C288 1.007 . S
C1412 C259 1.146 . S
C1423 C302 1.013 . S
C1428 C329 1.147 . S
C1439 C316 1.041 . S
C1444 C301 1.150 . S
C1455 C315 1.124 . S
C1460 C330 1.090 . S
C1471 C357 1.146 . S
C1476 C344 1.089 . S
C1487 C358 0.965 . S
C1492 C371 1.134 . S
C1503 C343 1.148 . S
C1508 C372 1.021 . S
C1519 C386 0.934 . S
C1524 C413 1.115 . S
C1535 C400 1.027 . S
C1540 C385 1.149 . S
C1551 C414 1.009 . S
C1556 C399 1.146 . S
C1567 C428 0.930 . S
C1572 C441 1.111 . S
C1583 C442 1.075 . S
C1588 C455 1.114 . S
C1599 C456 1.027 . S
C1604 C427 1.149 . S
C1615 C470 0.948 . S
C1620 C497 1.095 . S
C1631 C484 0.965 . S
C1636 C469 1.133 . S
C1647 C483 1.146 . S
C1652 C498 1.007 . S
