# Generated by pormake.
# Topology wmi, (6)-cn, num edge types: 1
# Building blocks:
#     Node 0, Type 0, BuildingBlock: MAKGUD_clean_sbu_1, # of connection points: 6
#     Node 1, Type 0, BuildingBlock: MAKGUD_clean_sbu_1, # of connection points: 6
#     Node 2, Type 0, BuildingBlock: MAKGUD_clean_sbu_1, # of connection points: 6
#     Node 3, Type 0, BuildingBlock: MAKGUD_clean_sbu_1, # of connection points: 6
#     Node 4, Type 0, BuildingBlock: MAKGUD_clean_sbu_1, # of connection points: 6
#     Node 5, Type 0, BuildingBlock: MAKGUD_clean_sbu_1, # of connection points: 6
#     Node 6, Type 0, BuildingBlock: MAKGUD_clean_sbu_1, # of connection points: 6
#     Node 7, Type 0, BuildingBlock: MAKGUD_clean_sbu_1, # of connection points: 6
#     Node 8, Type 0, BuildingBlock: MAKGUD_clean_sbu_1, # of connection points: 6
#     Node 9, Type 0, BuildingBlock: MAKGUD_clean_sbu_1, # of connection points: 6
#     Node 10, Type 0, BuildingBlock: MAKGUD_clean_sbu_1, # of connection points: 6
#     Node 11, Type 0, BuildingBlock: MAKGUD_clean_sbu_1, # of connection points: 6
#     Node 12, Type 0, BuildingBlock: MAKGUD_clean_sbu_1, # of connection points: 6
#     Node 13, Type 0, BuildingBlock: MAKGUD_clean_sbu_1, # of connection points: 6
#     Node 14, Type 0, BuildingBlock: MAKGUD_clean_sbu_1, # of connection points: 6
#     Node 15, Type 0, BuildingBlock: MAKGUD_clean_sbu_1, # of connection points: 6
#     Node 16, Type 0, BuildingBlock: MAKGUD_clean_sbu_1, # of connection points: 6
#     Node 17, Type 0, BuildingBlock: MAKGUD_clean_sbu_1, # of connection points: 6
#     Edge 18, Type (0, 0), BuildingBlock: UVAHIK_clean_linker_0, # of connection points: 2
#     Edge 19, Type (0, 0), BuildingBlock: UVAHIK_clean_linker_0, # of connection points: 2
#     Edge 20, Type (0, 0), BuildingBlock: UVAHIK_clean_linker_0, # of connection points: 2
#     Edge 21, Type (0, 0), BuildingBlock: UVAHIK_clean_linker_0, # of connection points: 2
#     Edge 22, Type (0, 0), BuildingBlock: UVAHIK_clean_linker_0, # of connection points: 2
#     Edge 23, Type (0, 0), BuildingBlock: UVAHIK_clean_linker_0, # of connection points: 2
#     Edge 24, Type (0, 0), BuildingBlock: UVAHIK_clean_linker_0, # of connection points: 2
#     Edge 25, Type (0, 0), BuildingBlock: UVAHIK_clean_linker_0, # of connection points: 2
#     Edge 26, Type (0, 0), BuildingBlock: UVAHIK_clean_linker_0, # of connection points: 2
#     Edge 27, Type (0, 0), BuildingBlock: UVAHIK_clean_linker_0, # of connection points: 2
#     Edge 28, Type (0, 0), BuildingBlock: UVAHIK_clean_linker_0, # of connection points: 2
#     Edge 29, Type (0, 0), BuildingBlock: UVAHIK_clean_linker_0, # of connection points: 2
#     Edge 30, Type (0, 0), BuildingBlock: UVAHIK_clean_linker_0, # of connection points: 2
#     Edge 31, Type (0, 0), BuildingBlock: UVAHIK_clean_linker_0, # of connection points: 2
#     Edge 32, Type (0, 0), BuildingBlock: UVAHIK_clean_linker_0, # of connection points: 2
#     Edge 33, Type (0, 0), BuildingBlock: UVAHIK_clean_linker_0, # of connection points: 2
#     Edge 34, Type (0, 0), BuildingBlock: UVAHIK_clean_linker_0, # of connection points: 2
#     Edge 35, Type (0, 0), BuildingBlock: UVAHIK_clean_linker_0, # of connection points: 2
#     Edge 36, Type (0, 0), BuildingBlock: UVAHIK_clean_linker_0, # of connection points: 2
#     Edge 37, Type (0, 0), BuildingBlock: UVAHIK_clean_linker_0, # of connection points: 2
#     Edge 38, Type (0, 0), BuildingBlock: UVAHIK_clean_linker_0, # of connection points: 2
#     Edge 39, Type (0, 0), BuildingBlock: UVAHIK_clean_linker_0, # of connection points: 2
#     Edge 40, Type (0, 0), BuildingBlock: UVAHIK_clean_linker_0, # of connection points: 2
#     Edge 41, Type (0, 0), BuildingBlock: UVAHIK_clean_linker_0, # of connection points: 2
#     Edge 42, Type (0, 0), BuildingBlock: UVAHIK_clean_linker_0, # of connection points: 2
#     Edge 43, Type (0, 0), BuildingBlock: UVAHIK_clean_linker_0, # of connection points: 2
#     Edge 44, Type (0, 0), BuildingBlock: UVAHIK_clean_linker_0, # of connection points: 2
#     Edge 45, Type (0, 0), BuildingBlock: UVAHIK_clean_linker_0, # of connection points: 2
#     Edge 46, Type (0, 0), BuildingBlock: UVAHIK_clean_linker_0, # of connection points: 2
#     Edge 47, Type (0, 0), BuildingBlock: UVAHIK_clean_linker_0, # of connection points: 2
#     Edge 48, Type (0, 0), BuildingBlock: UVAHIK_clean_linker_0, # of connection points: 2
#     Edge 49, Type (0, 0), BuildingBlock: UVAHIK_clean_linker_0, # of connection points: 2
#     Edge 50, Type (0, 0), BuildingBlock: UVAHIK_clean_linker_0, # of connection points: 2
#     Edge 51, Type (0, 0), BuildingBlock: UVAHIK_clean_linker_0, # of connection points: 2
#     Edge 52, Type (0, 0), BuildingBlock: UVAHIK_clean_linker_0, # of connection points: 2
#     Edge 53, Type (0, 0), BuildingBlock: UVAHIK_clean_linker_0, # of connection points: 2
#     Edge 54, Type (0, 0), BuildingBlock: UVAHIK_clean_linker_0, # of connection points: 2
#     Edge 55, Type (0, 0), BuildingBlock: UVAHIK_clean_linker_0, # of connection points: 2
#     Edge 56, Type (0, 0), BuildingBlock: UVAHIK_clean_linker_0, # of connection points: 2
#     Edge 57, Type (0, 0), BuildingBlock: UVAHIK_clean_linker_0, # of connection points: 2
#     Edge 58, Type (0, 0), BuildingBlock: UVAHIK_clean_linker_0, # of connection points: 2
#     Edge 59, Type (0, 0), BuildingBlock: UVAHIK_clean_linker_0, # of connection points: 2
#     Edge 60, Type (0, 0), BuildingBlock: UVAHIK_clean_linker_0, # of connection points: 2
#     Edge 61, Type (0, 0), BuildingBlock: UVAHIK_clean_linker_0, # of connection points: 2
#     Edge 62, Type (0, 0), BuildingBlock: UVAHIK_clean_linker_0, # of connection points: 2
#     Edge 63, Type (0, 0), BuildingBlock: UVAHIK_clean_linker_0, # of connection points: 2
#     Edge 64, Type (0, 0), BuildingBlock: UVAHIK_clean_linker_0, # of connection points: 2
#     Edge 65, Type (0, 0), BuildingBlock: UVAHIK_clean_linker_0, # of connection points: 2
#     Edge 66, Type (0, 0), BuildingBlock: UVAHIK_clean_linker_0, # of connection points: 2
#     Edge 67, Type (0, 0), BuildingBlock: UVAHIK_clean_linker_0, # of connection points: 2
#     Edge 68, Type (0, 0), BuildingBlock: UVAHIK_clean_linker_0, # of connection points: 2
#     Edge 69, Type (0, 0), BuildingBlock: UVAHIK_clean_linker_0, # of connection points: 2
#     Edge 70, Type (0, 0), BuildingBlock: UVAHIK_clean_linker_0, # of connection points: 2
#     Edge 71, Type (0, 0), BuildingBlock: UVAHIK_clean_linker_0, # of connection points: 2
# Relax obj value: 0.144
# Max RMSD: 0.266
# Mean RMSD: 0.266
data_MOF--net-wmi--node1-MAKGUD_clean_sbu_1--edge1-UVAHIK_clean_linker_0
_symmetry_space_group_name_H-M    P1
_symmetry_Int_Tables_number       1
_symmetry_cell_setting            triclinic
loop_
_symmetry_equiv_pos_as_xyz
'x, y, z'
_cell_length_a     45.37032
_cell_length_b     45.361265
_cell_length_c     102.40065
_cell_angle_alpha  90.043484
_cell_angle_beta   89.82677
_cell_angle_gamma 119.97656
loop_
_atom_site_label
_atom_site_type_symbol
_atom_site_fract_x
_atom_site_fract_y
_atom_site_fract_z
_atom_type_partial_charge
O0 O 0.54754 0.17022 0.09495 0.0
Tb1 Tb 0.55531 0.12978 0.08693 0.0
C2 C 0.53135 0.07135 0.0663 0.0
O3 O 0.49699 0.06016 0.09473 0.0
Tb4 Tb 0.49196 1.01401 0.08648 0.0
C5 C 0.42737 0.96553 0.0842 0.0
O6 O 0.5364 0.10458 0.1059 0.0
O7 O 0.52337 0.99378 0.09373 0.0
C8 C 0.50972 0.96485 0.1002 0.0
O9 O 0.47761 0.95044 0.10371 0.0
O10 O 0.52161 0.08831 0.07391 0.0
O11 O 0.5186 0.03847 0.06844 0.0
O12 O 0.60886 0.145 0.08574 0.0
C13 C 0.51132 0.07287 0.10594 0.0
C14 C 0.54774 0.18398 0.08378 0.0
O15 O 0.44192 0.98116 0.09497 0.0
O16 O 0.44922 0.97744 0.07461 0.0
C17 C 0.62558 0.15722 0.07473 0.0
O18 O 0.60883 0.15767 0.06437 0.0
O19 O 0.55199 0.16707 0.07443 0.0
O20 O 0.97849 0.42784 0.09707 0.0
Tb21 Tb 1.01892 0.4772 0.09034 0.0
C22 C 0.08484 0.51152 0.07232 0.0
O23 O 0.08669 0.52991 0.10302 0.0
Tb24 Tb 0.13604 0.5504 0.0935 0.0
C25 C 0.18302 0.53604 0.1019 0.0
O26 O 1.04151 0.48058 0.1095 0.0
O27 O 0.15981 0.6042 0.0893 0.0
C28 C 0.16417 0.62633 0.09843 0.0
O29 O 0.15341 0.61555 0.11035 0.0
O30 O 0.06938 0.49263 0.08257 0.0
O31 O 0.11699 0.53507 0.07371 0.0
O32 O 0.99945 0.51243 0.08908 0.0
C33 C 0.07339 0.50453 0.11136 0.0
C34 C 0.96973 0.41401 0.08555 0.0
O35 O 0.16378 0.52256 0.09167 0.0
O36 O 0.17486 0.55671 0.10758 0.0
C37 C 0.9842 0.51365 0.07833 0.0
O38 O 0.98452 0.49629 0.0681 0.0
O39 O 0.98916 0.43572 0.07667 0.0
O40 O 0.70876 0.60734 0.09382 0.0
Tb41 Tb 0.65867 0.59504 0.08629 0.0
C42 C 0.62181 0.62161 0.0683 0.0
O43 O 0.63929 0.64535 0.09869 0.0
Tb44 Tb 0.59683 0.6496 0.09115 0.0
C45 C 0.60783 0.71316 0.09037 0.0
O46 O 0.64949 0.60509 0.10632 0.0
O47 O 0.54594 0.6155 0.09886 0.0
C48 C 0.53078 0.62755 0.10639 0.0
O49 O 0.54837 0.65915 0.11048 0.0
O50 O 0.64873 0.63102 0.07572 0.0
O51 O 0.59859 0.62955 0.07189 0.0
O52 O 0.62081 0.54144 0.0849 0.0
C53 C 0.63847 0.62653 0.10858 0.0
C54 C 0.7203 0.60175 0.083 0.0
O55 O 0.61594 0.69988 0.09997 0.0
O56 O 0.59425 0.69084 0.08105 0.0
C57 C 0.61548 0.52494 0.07381 0.0
O58 O 0.63068 0.54207 0.06318 0.0
O59 O 0.6974 0.59331 0.07393 0.0
O60 O 0.17305 0.55297 0.90408 0.0
Tb61 Tb 0.12033 0.52838 0.91104 0.0
C62 C 0.06872 0.50529 0.93497 0.0
O63 O 1.04689 0.46556 0.90488 0.0
Tb64 Tb 1.01252 0.47897 0.91432 0.0
C65 C 0.95975 0.42146 0.92312 0.0
O66 O 0.0909 0.50593 0.89336 0.0
O67 O 0.99408 0.50772 0.90346 0.0
C68 C 0.96445 0.49197 0.89751 0.0
O69 O 0.94914 0.45876 0.89616 0.0
O70 O 0.09641 0.5069 0.92997 0.0
O71 O 1.04998 0.51407 0.92805 0.0
O72 O 0.13179 0.58065 0.91342 0.0
C73 C 0.06051 0.47878 0.89358 0.0
C74 C 0.18032 0.5307 0.90866 0.0
O75 O 0.9771 0.42458 0.9126 0.0
O76 O 0.97238 0.45093 0.92891 0.0
C77 C 0.14904 0.59829 0.92366 0.0
O78 O 0.15475 0.58244 0.9332 0.0
O79 O 0.15368 0.50689 0.91464 0.0
O80 O 0.5843 0.67955 0.89908 0.0
Tb81 Tb 0.59898 0.64351 0.90629 0.0
C82 C 0.62393 0.61409 0.92942 0.0
O83 O 0.6268 0.59683 0.89348 0.0
Tb84 Tb 0.64811 0.58101 0.90896 0.0
C85 C 0.70825 0.58611 0.90388 0.0
O86 O 0.63818 0.65124 0.89212 0.0
O87 O 0.61179 0.52877 0.91413 0.0
C88 C 0.59722 0.5076 0.90435 0.0
O89 O 0.60345 0.52006 0.89243 0.0
O90 O 0.60089 0.62143 0.9251 0.0
O91 O 0.65021 0.61972 0.92215 0.0
O92 O 0.54622 0.60681 0.90145 0.0
C93 C 0.64481 0.62738 0.8885 0.0
C94 C 0.59907 0.70227 0.90814 0.0
O95 O 0.6831 0.57574 0.89572 0.0
O96 O 0.69972 0.5942 0.9149 0.0
C97 C 0.52317 0.59446 0.91084 0.0
O98 O 0.5333 0.60096 0.92303 0.0
O99 O 0.61399 0.69194 0.91631 0.0
O100 O 0.43707 0.95204 0.90399 0.0
Tb101 Tb 0.47676 1.00037 0.9119 0.0
C102 C 0.50857 0.05586 0.9333 0.0
O103 O 0.52731 0.08054 0.90059 0.0
Tb104 Tb 0.53902 0.11841 0.91565 0.0
C105 C 0.52092 0.16529 0.9132 0.0
O106 O 0.47369 0.03517 0.89776 0.0
O107 O 0.59221 0.14128 0.92112 0.0
C108 C 0.61462 0.15999 0.91216 0.0
O109 O 0.60336 0.16144 0.9005 0.0
O110 O 0.49807 1.02373 0.93078 0.0
O111 O 0.50066 0.07285 0.9251 0.0
O112 O 0.51283 0.98296 0.90796 0.0
C113 C 0.49744 0.06666 0.89489 0.0
C114 C 0.41609 0.94395 0.91376 0.0
O115 O 0.53165 0.15397 0.90362 0.0
O116 O 0.51975 0.14958 0.92402 0.0
C117 C 0.52249 0.97099 0.91777 0.0
O118 O 0.51199 0.97237 0.9296 0.0
O119 O 0.42916 0.96785 0.92255 0.0
O120 O 0.26009 0.49198 0.42743 0.0
Tb121 Tb 0.24037 0.4389 0.42165 0.0
C122 C 0.21623 0.3902 0.39532 0.0
O123 O 0.16513 0.36872 0.42798 0.0
Tb124 Tb 0.19255 0.34441 0.42096 0.0
C125 C 0.1504 0.27742 0.42406 0.0
O126 O 0.21035 0.4104 0.43875 0.0
O127 O 0.24378 0.36646 0.42872 0.0
C128 C 0.25924 0.35032 0.43304 0.0
O129 O 0.2892 0.36852 0.43852 0.0
O130 O 0.23568 0.41934 0.40156 0.0
O131 O 0.1964 0.3605 0.40095 0.0
O132 O 0.29481 0.45817 0.42443 0.0
C133 C 0.1774 0.38893 0.43805 0.0
C134 C 0.23811 0.49704 0.42124 0.0
O135 O 0.16001 0.30023 0.43324 0.0
O136 O 0.16568 0.29231 0.41321 0.0
C137 C 0.3162 0.47375 0.4147 0.0
O138 O 0.30382 0.47245 0.403 0.0
O139 O 0.21693 0.46905 0.4152 0.0
O140 O 0.64872 0.80321 0.42658 0.0
Tb141 Tb 0.70188 0.83804 0.4213 0.0
C142 C 0.75739 0.85904 0.39599 0.0
O143 O 0.76331 0.83436 0.42974 0.0
Tb144 Tb 0.80825 0.87432 0.42075 0.0
C145 C 0.86006 0.86259 0.42279 0.0
O146 O 0.72695 0.84529 0.44016 0.0
O147 O 0.83009 0.92923 0.42315 0.0
C148 C 0.84846 0.94511 0.43349 0.0
O149 O 0.84724 0.92704 0.44371 0.0
O150 O 0.72789 0.85025 0.40201 0.0
O151 O 0.78708 0.8672 0.40138 0.0
O152 O 0.68134 0.87225 0.41925 0.0
C153 C 0.75292 0.84038 0.44073 0.0
C154 C 0.64631 0.77577 0.4216 0.0
O155 O 0.84637 0.87034 0.43239 0.0
O156 O 0.84419 0.86093 0.41199 0.0
C157 C 0.6612 0.86767 0.40926 0.0
O158 O 0.65729 0.84504 0.40039 0.0
O159 O 0.6755 0.78328 0.41637 0.0
O160 O 0.37424 0.93782 0.42595 0.0
Tb161 Tb 0.32013 0.91281 0.42136 0.0
C162 C 0.29838 0.95105 0.40089 0.0
O163 O 0.31508 0.97819 0.42806 0.0
Tb164 Tb 0.27445 0.98531 0.42003 0.0
C165 C 0.27739 0.0455 0.4217 0.0
O166 O 0.31875 0.9378 0.43964 0.0
O167 O 0.2221 0.94475 0.42242 0.0
C168 C 0.20421 0.94412 0.43265 0.0
O169 O 0.21968 0.96568 0.44222 0.0
O170 O 0.2893 0.92978 0.41085 0.0
O171 O 0.29003 0.97501 0.40134 0.0
O172 O 0.2956 0.85794 0.42498 0.0
C173 C 0.31441 0.96459 0.43945 0.0
C174 C 0.38456 0.93387 0.41456 0.0
O175 O 0.27838 1.02787 0.43158 0.0
O176 O 0.2759 1.02965 0.41087 0.0
C177 C 0.2839 0.83626 0.41516 0.0
O178 O 0.28443 0.84803 0.40339 0.0
O179 O 0.35849 0.91922 0.40672 0.0
O180 O 0.8522 0.86583 0.23473 0.0
Tb181 Tb 0.81062 0.87327 0.24126 0.0
C182 C 0.74097 0.83945 0.2573 0.0
O183 O 0.74369 0.85668 0.22647 0.0
Tb184 Tb 0.69315 0.82421 0.23459 0.0
C185 C 0.6539 0.76229 0.22491 0.0
O186 O 0.79182 0.8561 0.22147 0.0
O187 O 0.66207 0.84735 0.23817 0.0
C188 C 0.63943 0.83447 0.24763 0.0
O189 O 0.63708 0.80871 0.25435 0.0
O190 O 0.75922 0.83699 0.24781 0.0
O191 O 0.70868 0.8284 0.25486 0.0
O192 O 0.82863 0.9274 0.24345 0.0
C193 C 0.75986 0.84638 0.2187 0.0
C194 C 0.86012 0.85963 0.24621 0.0
O195 O 0.65871 0.79049 0.21965 0.0
O196 O 0.6719 0.76908 0.23556 0.0
C197 C 0.84311 0.94275 0.25446 0.0
O198 O 0.84302 0.92418 0.26432 0.0
O199 O 0.83973 0.86066 0.25498 0.0
O200 O 0.24435 0.99442 0.23367 0.0
Tb201 Tb 0.26593 0.9635 0.24058 0.0
C202 C 0.28902 0.93443 0.26435 0.0
O203 O 0.32557 0.95064 0.23429 0.0
Tb204 Tb 0.312 0.90254 0.24336 0.0
C205 C 0.37033 0.90821 0.25128 0.0
O206 O 0.28723 0.95638 0.22254 0.0
O207 O 0.28287 0.85461 0.23289 0.0
C208 C 0.29897 0.84228 0.22608 0.0
O209 O 0.33177 0.86183 0.22401 0.0
O210 O 0.29012 0.96132 0.25882 0.0
O211 O 0.27891 0.90593 0.2579 0.0
O212 O 0.21367 0.92412 0.24424 0.0
C213 C 0.31341 0.95162 0.22287 0.0
C214 C 0.26618 1.02259 0.23932 0.0
O215 O 0.36543 0.91911 0.24024 0.0
O216 O 0.34218 0.89417 0.25807 0.0
C217 C 0.19863 0.92499 0.25512 0.0
O218 O 0.21698 0.94707 0.26418 0.0
O219 O 0.28812 1.01759 0.24564 0.0
O220 O 0.11511 0.30312 0.23412 0.0
Tb221 Tb 0.16783 0.34006 0.23875 0.0
C222 C 0.21751 0.40513 0.2551 0.0
O223 O 0.21625 0.40298 0.22469 0.0
Tb224 Tb 0.24791 0.45471 0.23131 0.0
C225 C 0.22825 0.50102 0.22954 0.0
O226 O 0.16443 0.36068 0.21997 0.0
O227 O 0.30133 0.47631 0.22629 0.0
C228 C 0.31527 0.49875 0.21683 0.0
O229 O 0.29595 0.50646 0.20976 0.0
O230 O 0.18918 0.39015 0.24819 0.0
O231 O 0.24307 0.43469 0.25106 0.0
O232 O 0.20057 0.31829 0.23584 0.0
C233 C 0.18952 0.39115 0.21713 0.0
C234 C 0.10618 0.29033 0.24579 0.0
O235 O 0.22764 0.48168 0.21999 0.0
O236 O 0.23899 0.49344 0.24011 0.0
C237 C 0.21203 0.30888 0.24587 0.0
O238 O 0.20713 0.31679 0.25771 0.0
O239 O 0.13191 0.30638 0.25369 0.0
O240 O 0.9324 0.82857 0.76595 0.0
Tb241 Tb 0.92386 0.7789 0.75968 0.0
C242 C 0.89459 0.73539 0.73333 0.0
O243 O 0.85023 0.72255 0.76766 0.0
Tb244 Tb 0.84871 0.68448 0.7547 0.0
C245 C 0.78584 0.63036 0.7551 0.0
O246 O 0.90138 0.74862 0.7774 0.0
O247 O 0.88445 0.66566 0.75651 0.0
C248 C 0.8788 0.64221 0.76532 0.0
O249 O 0.85506 0.63495 0.77415 0.0
O250 O 0.92127 0.75326 0.74102 0.0
O251 O 0.86315 0.7173 0.73776 0.0
O252 O 0.97942 0.80657 0.76111 0.0
C253 C 0.86818 0.7294 0.7783 0.0
C254 C 0.90991 0.82976 0.75853 0.0
O255 O 0.80381 0.64636 0.76527 0.0
O256 O 0.80307 0.64538 0.74456 0.0
C257 C 0.99813 0.82486 0.75114 0.0
O258 O 0.98301 0.82296 0.74 0.0
O259 O 0.89465 0.80182 0.75166 0.0
O260 O 0.32587 0.15507 0.76723 0.0
Tb261 Tb 0.37498 0.19597 0.76034 0.0
C262 C 0.41729 0.20508 0.73466 0.0
O263 O 0.4372 0.1847 0.77225 0.0
Tb264 Tb 0.46842 0.2153 0.75616 0.0
C265 C 0.52412 0.20894 0.75516 0.0
O266 O 0.40526 0.20878 0.77824 0.0
O267 O 0.48606 0.26956 0.75773 0.0
C268 C 0.50823 0.28774 0.76683 0.0
O269 O 0.51515 0.2718 0.77597 0.0
O270 O 0.40089 0.21694 0.74164 0.0
O271 O 0.43334 0.19089 0.74015 0.0
O272 O 0.34611 0.22281 0.76033 0.0
C273 C 0.42563 0.19691 0.78124 0.0
C274 C 0.32515 0.13062 0.7604 0.0
O275 O 0.50518 0.20397 0.76538 0.0
O276 O 0.51129 0.21695 0.74535 0.0
C277 C 0.32814 0.22156 0.75001 0.0
O278 O 0.33091 0.20718 0.73929 0.0
O279 O 0.35307 0.14282 0.75349 0.0
O280 O 0.9978 0.22166 0.76243 0.0
Tb281 Tb 0.95712 0.22993 0.75544 0.0
C282 C 0.94342 0.25807 0.7288 0.0
O283 O 0.97578 0.30493 0.76363 0.0
Tb284 Tb 0.94005 0.30541 0.74996 0.0
C285 C 0.94959 0.36865 0.74873 0.0
O286 O 0.94845 0.25275 0.77284 0.0
O287 O 0.88639 0.27161 0.75461 0.0
C288 C 0.87133 0.283 0.76252 0.0
O289 O 0.89039 0.31175 0.76871 0.0
O290 O 0.93432 0.23169 0.73669 0.0
O291 O 0.95739 0.28971 0.73301 0.0
O292 O 0.92926 0.17441 0.75705 0.0
C293 C 0.96407 0.28602 0.77407 0.0
C294 C 1.02185 0.24353 0.75492 0.0
O295 O 0.95786 0.35588 0.75846 0.0
O296 O 0.93663 0.34597 0.73949 0.0
C297 C 0.92929 0.15569 0.74718 0.0
O298 O 0.94295 0.17078 0.73605 0.0
O299 O 1.00958 0.25838 0.74757 0.0
O300 O 0.49294 0.19791 0.5707 0.0
Tb301 Tb 0.4549 0.20821 0.57913 0.0
C302 C 0.3859 0.17455 0.59771 0.0
O303 O 0.38437 0.14172 0.56793 0.0
Tb304 Tb 0.33625 0.13365 0.5766 0.0
C305 C 0.28266 0.07046 0.57577 0.0
O306 O 0.43096 0.18962 0.55986 0.0
O307 O 0.31809 0.16864 0.57187 0.0
C308 C 0.30026 0.16505 0.56127 0.0
O309 O 0.2979 0.14341 0.55226 0.0
O310 O 0.40417 0.17835 0.58724 0.0
O311 O 0.35318 0.15339 0.59624 0.0
O312 O 0.47938 0.26362 0.58094 0.0
C313 C 0.40053 0.16216 0.55799 0.0
C314 C 0.50164 0.18937 0.58153 0.0
O315 O 0.29698 0.09029 0.56582 0.0
O316 O 0.29925 0.08584 0.58632 0.0
C317 C 0.50144 0.27903 0.59043 0.0
O318 O 0.50568 0.26023 0.59914 0.0
O319 O 0.48322 0.19056 0.59113 0.0
O320 O 0.91712 0.33372 0.56379 0.0
Tb321 Tb 0.91098 0.28586 0.5713 0.0
C322 C 0.9272 0.24065 0.58953 0.0
O323 O 0.96975 0.27261 0.56208 0.0
Tb324 Tb 0.95698 0.22057 0.56576 0.0
C325 C 1.01352 0.21661 0.56624 0.0
O326 O 0.93328 0.28584 0.55235 0.0
O327 O 0.92008 0.18842 0.55119 0.0
C328 C 0.90645 0.15523 0.54971 0.0
O329 O 0.88249 0.1401 0.5409 0.0
O330 O 0.94037 0.27061 0.58373 0.0
O331 O 0.93221 0.21663 0.58447 0.0
O332 O 0.85641 0.25062 0.57216 0.0
C333 C 0.95883 0.27998 0.55143 0.0
C334 C 0.92119 0.34878 0.57497 0.0
O335 O 1.00843 0.23705 0.55895 0.0
O336 O 0.98656 0.1981 0.57335 0.0
C337 C 0.84035 0.24622 0.58335 0.0
O338 O 0.8584 0.26044 0.59388 0.0
O339 O 0.92007 0.3285 0.58421 0.0
O340 O 0.78733 0.6402 0.57247 0.0
Tb341 Tb 0.83935 0.67691 0.57837 0.0
C342 C 0.89205 0.73894 0.59492 0.0
O343 O 0.8515 0.74973 0.5691 0.0
Tb344 Tb 0.90398 0.78844 0.57225 0.0
C345 C 0.91343 0.85153 0.57351 0.0
O346 O 0.83686 0.69892 0.5597 0.0
O347 O 0.92094 0.77605 0.55424 0.0
C348 C 0.95101 0.79248 0.54855 0.0
O349 O 0.95441 0.78141 0.5371 0.0
O350 O 0.86068 0.72327 0.59028 0.0
O351 O 0.91483 0.76838 0.58972 0.0
O352 O 0.87143 0.65394 0.57636 0.0
C353 C 0.84321 0.73055 0.55864 0.0
C354 C 0.77646 0.6259 0.58379 0.0
O355 O 0.937 0.84392 0.57099 0.0
O356 O 0.88464 0.82357 0.57545 0.0
C357 C 0.87753 0.64081 0.58678 0.0
O358 O 0.86751 0.64576 0.59822 0.0
O359 O 0.80085 0.64124 0.59229 0.0
C360 C 0.55992 0.95733 0.09538 0.0
C361 C 0.52832 0.94586 0.10157 0.0
C362 C 0.57498 0.93688 0.09509 0.0
C363 C 0.57121 0.86024 0.11002 0.0
H364 H 0.60486 0.8512 0.07626 0.0
C365 C 0.62018 0.76619 0.10228 0.0
C366 C 0.60819 0.74587 0.09104 0.0
C367 C 0.61638 0.79479 0.10371 0.0
C368 C 0.59555 0.85341 0.08575 0.0
H369 H 0.48865 0.90463 0.11288 0.0
H370 H 0.51473 0.86907 0.11234 0.0
H371 H 0.58688 0.89325 0.07922 0.0
H372 H 0.58403 0.74012 0.07227 0.0
H373 H 0.57709 0.78983 0.07478 0.0
H374 H 0.57844 0.81943 0.1164 0.0
C375 C 0.52806 0.8939 0.10776 0.0
C376 C 0.58562 0.87782 0.0875 0.0
C377 C 0.51298 0.91427 0.10802 0.0
C378 C 0.59364 0.75544 0.08101 0.0
C379 C 0.58979 0.78403 0.08245 0.0
C380 C 0.58115 0.83587 0.10827 0.0
C381 C 0.55886 0.90459 0.10104 0.0
C382 C 0.57276 0.88113 0.09959 0.0
C383 C 0.60045 0.80364 0.09394 0.0
C384 C 0.59292 0.83174 0.09606 0.0
H385 H 0.57248 0.98158 0.09035 0.0
H386 H 0.59897 0.9461 0.09 0.0
H387 H 0.56178 0.86235 0.1195 0.0
H388 H 0.63156 0.7594 0.11015 0.0
H389 H 0.62538 0.80962 0.11259 0.0
C390 C 0.3733 0.92329 0.09491 0.0
C391 C 0.39305 0.93554 0.08352 0.0
C392 C 0.34288 0.89223 0.09481 0.0
C393 C 0.30413 0.81119 0.07733 0.0
H394 H 0.22612 0.79009 0.09924 0.0
C395 C 0.19381 0.67413 0.08252 0.0
C396 C 0.18329 0.66311 0.0954 0.0
C397 C 0.21446 0.70868 0.07973 0.0
C398 C 0.24776 0.79562 0.0931 0.0
H399 H 0.39574 0.92623 0.06292 0.0
H400 H 0.34222 0.87197 0.06268 0.0
H401 H 0.27096 0.8493 0.09638 0.0
H402 H 0.18495 0.67981 0.11537 0.0
H403 H 0.22146 0.74018 0.11053 0.0
H404 H 0.2816 0.75764 0.07434 0.0
C405 C 0.35051 0.88609 0.07174 0.0
C406 C 0.2734 0.82949 0.09145 0.0
C407 C 0.381 0.9172 0.07185 0.0
C408 C 0.19269 0.68749 0.10535 0.0
C409 C 0.21343 0.7221 0.10256 0.0
C410 C 0.27853 0.77742 0.07896 0.0
C411 C 0.3316 0.87282 0.08331 0.0
C412 C 0.3022 0.83758 0.08375 0.0
C413 C 0.22512 0.73299 0.08976 0.0
C414 C 0.25036 0.76918 0.08705 0.0
H415 H 0.38206 0.937 0.10404 0.0
H416 H 0.32918 0.88263 0.10392 0.0
H417 H 0.32622 0.81642 0.07153 0.0
H418 H 0.18672 0.65603 0.07459 0.0
H419 H 0.22258 0.71631 0.06974 0.0
C420 C 0.23587 0.55423 0.11496 0.0
C421 C 0.21388 0.53404 0.10497 0.0
C422 C 0.26777 0.5569 0.11654 0.0
C423 C 0.33217 0.54782 0.09732 0.0
H424 H 0.37813 0.56575 0.13068 0.0
C425 C 0.47225 0.57926 0.10099 0.0
C426 C 0.49333 0.60814 0.10853 0.0
C427 C 0.43672 0.56421 0.10167 0.0
C428 C 0.36567 0.56083 0.12128 0.0
H429 H 0.20716 0.49917 0.0893 0.0
H430 H 0.26245 0.50308 0.09222 0.0
H431 H 0.31811 0.54949 0.12995 0.0
H432 H 0.49343 0.64265 0.12322 0.0
H433 H 0.43179 0.61641 0.12446 0.0
H434 H 0.37985 0.55965 0.08864 0.0
C435 C 0.2555 0.51759 0.09866 0.0
C436 C 0.33122 0.55157 0.12085 0.0
C437 C 0.22363 0.51505 0.09705 0.0
C438 C 0.47801 0.62048 0.11725 0.0
C439 C 0.44256 0.6053 0.11801 0.0
C440 C 0.36653 0.55688 0.09776 0.0
C441 C 0.27845 0.53931 0.10819 0.0
C442 C 0.31411 0.54558 0.10884 0.0
C443 C 0.42144 0.57748 0.11 0.0
C444 C 0.38393 0.56415 0.10972 0.0
H445 H 0.22907 0.56921 0.12121 0.0
H446 H 0.28467 0.57412 0.12391 0.0
H447 H 0.32021 0.544 0.08785 0.0
H448 H 0.48316 0.56908 0.09416 0.0
H449 H 0.4212 0.54255 0.09548 0.0
C450 C 0.91558 0.49475 0.88737 0.0
C451 C 0.94524 0.50998 0.89502 0.0
C452 C 0.89429 0.50884 0.88679 0.0
C453 C 0.86661 0.55577 0.90717 0.0
H454 H 0.82612 0.5673 0.87572 0.0
C455 C 0.76673 0.59897 0.91038 0.0
C456 C 0.73965 0.58459 0.9015 0.0
C457 C 0.79512 0.59486 0.90866 0.0
C458 C 0.83677 0.56382 0.88464 0.0
H459 H 0.97644 0.5528 0.90765 0.0
H460 H 0.93888 0.57694 0.90682 0.0
H461 H 0.86947 0.55058 0.87406 0.0
H462 H 0.72125 0.55528 0.88369 0.0
H463 H 0.76971 0.54672 0.88095 0.0
H464 H 0.83294 0.56696 0.91786 0.0
C465 C 0.93227 0.55419 0.90122 0.0
C466 C 0.86184 0.55448 0.88365 0.0
C467 C 0.95389 0.54047 0.90161 0.0
C468 C 0.74185 0.56676 0.89068 0.0
C469 C 0.76989 0.56209 0.88907 0.0
C470 C 0.84113 0.56447 0.90819 0.0
C471 C 0.90189 0.53813 0.89403 0.0
C472 C 0.8769 0.5502 0.89491 0.0
C473 C 0.79683 0.57567 0.89813 0.0
C474 C 0.82557 0.56842 0.89694 0.0
H475 H 0.90819 0.47125 0.88219 0.0
H476 H 0.87098 0.49584 0.8812 0.0
H477 H 0.87741 0.55217 0.91603 0.0
H478 H 0.76579 0.61306 0.91877 0.0
H479 H 0.81557 0.60652 0.91568 0.0
C480 C 0.52031 0.21231 0.90062 0.0
C481 C 0.5166 0.19541 0.91252 0.0
C482 C 0.52107 0.24355 0.90038 0.0
C483 C 0.5463 0.31764 0.92112 0.0
H484 H 0.50344 0.34499 0.89483 0.0
C485 C 0.57316 0.45593 0.91886 0.0
C486 C 0.57855 0.47023 0.90631 0.0
C487 C 0.55907 0.42072 0.92044 0.0
C488 C 0.51582 0.33788 0.9022 0.0
H489 H 0.50907 0.19689 0.93337 0.0
H490 H 0.51062 0.25145 0.93295 0.0
H491 H 0.49084 0.286 0.89567 0.0
H492 H 0.57206 0.4586 0.8856 0.0
H493 H 0.54866 0.39792 0.88829 0.0
H494 H 0.57258 0.36952 0.9273 0.0
C495 C 0.51314 0.24074 0.92384 0.0
C496 C 0.50847 0.30403 0.90268 0.0
C497 C 0.51206 0.20942 0.92406 0.0
C498 C 0.56828 0.44848 0.89542 0.0
C499 C 0.55454 0.41347 0.89698 0.0
C500 C 0.55398 0.35152 0.92054 0.0
C501 C 0.51845 0.25852 0.91204 0.0
C502 C 0.52395 0.29366 0.91206 0.0
C503 C 0.55032 0.39911 0.90949 0.0
C504 C 0.53925 0.36227 0.91095 0.0
H505 H 0.52385 0.20201 0.89158 0.0
H506 H 0.52536 0.25676 0.89115 0.0
H507 H 0.55899 0.31051 0.92836 0.0
H508 H 0.5806 0.47197 0.92745 0.0
H509 H 0.5556 0.41054 0.93024 0.0
C510 C 0.66412 0.18342 0.92782 0.0
C511 C 0.65134 0.18159 0.91516 0.0
C512 C 0.69863 0.20574 0.93055 0.0
C513 C 0.78255 0.25699 0.91399 0.0
H514 H 0.80844 0.31114 0.9456 0.0
C515 C 0.9215 0.35891 0.92155 0.0
C516 C 0.92758 0.39034 0.92643 0.0
C517 C 0.88923 0.33008 0.92255 0.0
C518 C 0.80166 0.29633 0.93669 0.0
H519 H 0.66495 0.2016 0.89546 0.0
H520 H 0.72426 0.24042 0.90021 0.0
H521 H 0.74914 0.2672 0.94233 0.0
H522 H 0.9053 0.4162 0.93671 0.0
H523 H 0.84837 0.36619 0.938 0.0
H524 H 0.83416 0.28705 0.9079 0.0
C525 C 0.70809 0.22435 0.90802 0.0
C526 C 0.76768 0.27079 0.9349 0.0
C527 C 0.67385 0.20214 0.90531 0.0
C528 C 0.90127 0.39213 0.93294 0.0
C529 C 0.86865 0.36337 0.9337 0.0
C530 C 0.81628 0.28258 0.91572 0.0
C531 C 0.72103 0.22658 0.92067 0.0
C532 C 0.75759 0.25125 0.92338 0.0
C533 C 0.86193 0.33217 0.92814 0.0
C534 C 0.82634 0.30299 0.92701 0.0
H535 H 0.64742 0.16797 0.93564 0.0
H536 H 0.70778 0.2066 0.94038 0.0
H537 H 0.77593 0.24208 0.9051 0.0
H538 H 0.9415 0.35682 0.91658 0.0
H539 H 0.88549 0.30637 0.91853 0.0
C540 C 0.27354 0.09005 0.43494 0.0
C541 C 0.27406 0.07638 0.42269 0.0
C542 C 0.26812 0.11781 0.43595 0.0
C543 C 0.23363 0.16523 0.41779 0.0
H544 H 0.28513 0.23542 0.44328 0.0
C545 C 0.24014 0.29752 0.41969 0.0
C546 C 0.24536 0.31319 0.43196 0.0
C547 C 0.2383 0.26573 0.41849 0.0
C548 C 0.26999 0.21581 0.43625 0.0
H549 H 0.26946 0.08125 0.40186 0.0
H550 H 0.26048 0.13 0.40357 0.0
H551 H 0.29414 0.1872 0.44126 0.0
H552 H 0.25015 0.30702 0.45264 0.0
H553 H 0.24531 0.25125 0.4507 0.0
H554 H 0.20972 0.19431 0.41272 0.0
C555 C 0.26382 0.11903 0.41244 0.0
C556 C 0.27529 0.18807 0.43507 0.0
C557 C 0.26931 0.09129 0.41145 0.0
C558 C 0.2459 0.29538 0.44307 0.0
C559 C 0.2437 0.26364 0.44191 0.0
C560 C 0.22828 0.19309 0.41898 0.0
C561 C 0.26302 0.13265 0.42472 0.0
C562 C 0.25718 0.1623 0.42585 0.0
C563 C 0.24165 0.24911 0.42956 0.0
C564 C 0.2463 0.21874 0.42828 0.0
H565 H 0.27684 0.07896 0.44379 0.0
H566 H 0.26728 0.12723 0.44558 0.0
H567 H 0.21892 0.14572 0.41066 0.0
H568 H 0.24034 0.31104 0.41094 0.0
H569 H 0.2367 0.25541 0.40881 0.0
C570 C 0.10699 0.22212 0.41401 0.0
C571 C 0.12183 0.24186 0.42522 0.0
C572 C 0.07729 0.19024 0.41495 0.0
C573 C 1.00432 0.13856 0.43764 0.0
H574 H 0.98622 0.06586 0.41337 0.0
C575 C 0.89338 0.99918 0.44395 0.0
C576 C 0.87544 0.98164 0.4327 0.0
C577 C 0.92211 1.03176 0.44303 0.0
C578 C 0.9907 0.08603 0.42014 0.0
H579 H 0.11794 0.24307 0.44626 0.0
H580 H 0.06708 0.18703 0.44801 0.0
H581 H 1.03992 0.11938 0.41203 0.0
H582 H 0.87328 0.98532 0.41164 0.0
H583 H 0.92348 0.04206 0.41004 0.0
H584 H 0.95529 0.10462 0.44593 0.0
C585 C 0.07757 0.19644 0.4384 0.0
C586 C 1.02159 0.11687 0.41937 0.0
C587 C 0.10706 0.22848 0.43744 0.0
C588 C 0.88631 0.99807 0.42053 0.0
C589 C 0.91533 1.03049 0.41959 0.0
C590 C 0.97361 0.10756 0.4385 0.0
C591 C 0.06178 0.17703 0.42715 0.0
C592 C 1.02894 0.14372 0.42809 0.0
C593 C 0.93396 0.04753 0.43081 0.0
C594 C 0.96634 0.0809 0.42974 0.0
H595 H 0.11761 0.23187 0.40444 0.0
H596 H 0.06591 0.17653 0.40601 0.0
H597 H 1.00845 0.15866 0.44437 0.0
H598 H 0.88582 0.98731 0.45348 0.0
H599 H 0.93588 0.04404 0.45186 0.0
C600 C 0.14951 0.90697 0.42085 0.0
C601 C 0.16651 0.92393 0.43232 0.0
C602 C 0.11421 0.89255 0.41981 0.0
C603 C 1.03481 0.866 0.43868 0.0
H604 H 1.00598 0.89276 0.40744 0.0
C605 C 0.90831 0.86685 0.43587 0.0
C606 C 0.89132 0.86032 0.42386 0.0
C607 C 0.93975 0.86831 0.43673 0.0
C608 C 1.0133 0.88438 0.41612 0.0
H609 H 0.15942 0.93715 0.45199 0.0
H610 H 0.09791 0.91191 0.45019 0.0
H611 H 0.06463 0.90565 0.40938 0.0
H612 H 0.893 0.84869 0.40346 0.0
H613 H 0.94765 0.85045 0.40498 0.0
H614 H 0.98355 0.84511 0.4455 0.0
C615 C 0.11184 0.90976 0.44198 0.0
C616 C 1.04704 0.89184 0.41723 0.0
C617 C 0.14716 0.92436 0.44299 0.0
C618 C 0.90567 0.85393 0.41283 0.0
C619 C 0.93709 0.85519 0.4137 0.0
C620 C 1.00096 0.85831 0.43753 0.0
C621 C 0.09507 0.89452 0.43025 0.0
C622 C 0.05836 0.88328 0.42861 0.0
C623 C 0.95487 0.86307 0.42562 0.0
C624 C 0.9899 0.86798 0.42633 0.0
H625 H 0.16358 0.90603 0.41245 0.0
H626 H 0.10197 0.88056 0.41071 0.0
H627 H 1.04265 0.85868 0.4475 0.0
H628 H 0.89784 0.87195 0.44454 0.0
H629 H 0.95278 0.87489 0.44604 0.0
C630 C 0.40319 0.88894 0.26503 0.0
C631 C 0.40185 0.90798 0.25449 0.0
C632 C 0.43178 0.88524 0.26679 0.0
C633 C 0.52167 0.91906 0.25615 0.0
H634 H 0.50103 0.82601 0.26132 0.0
C635 C 0.61501 0.87204 0.24242 0.0
C636 C 0.61591 0.84741 0.25045 0.0
C637 C 0.59121 0.88252 0.24474 0.0
C638 C 0.50739 0.85225 0.26009 0.0
H639 H 0.42974 0.93946 0.23794 0.0
H640 H 0.4793 0.93295 0.24094 0.0
H641 H 0.45561 0.83959 0.26278 0.0
H642 H 0.59345 0.81545 0.26752 0.0
H643 H 0.55236 0.83397 0.27162 0.0
H644 H 0.57337 0.93149 0.25312 0.0
C645 C 0.45864 0.92105 0.24793 0.0
C646 C 0.48131 0.86005 0.26096 0.0
C647 C 0.43011 0.92461 0.24615 0.0
C648 C 0.59323 0.83424 0.26106 0.0
C649 C 0.56955 0.84475 0.26339 0.0
C650 C 0.54778 0.91125 0.25528 0.0
C651 C 0.45952 0.90068 0.25807 0.0
C652 C 0.48801 0.89343 0.25877 0.0
C653 C 0.56789 0.86862 0.25516 0.0
C654 C 0.54083 0.87764 0.25703 0.0
H655 H 0.38169 0.87589 0.2716 0.0
H656 H 0.43188 0.86969 0.27479 0.0
H657 H 0.52775 0.94512 0.25458 0.0
H658 H 0.63214 0.88266 0.23416 0.0
H659 H 0.59038 0.9007 0.23812 0.0
C660 C 0.30109 0.79219 0.21686 0.0
C661 C 0.28238 0.80533 0.22303 0.0
C662 C 0.28792 0.75707 0.21581 0.0
C663 C 0.22626 0.67688 0.23215 0.0
H664 H 0.25208 0.6367 0.20415 0.0
C665 C 0.22977 0.55262 0.23887 0.0
C666 C 0.22361 0.53095 0.22817 0.0
C667 C 0.23008 0.58341 0.23733 0.0
C668 C 0.24407 0.64721 0.21197 0.0
H669 H 0.23413 0.7916 0.23227 0.0
H670 H 0.21079 0.73021 0.23021 0.0
H671 H 0.26434 0.69522 0.20222 0.0
H672 H 0.21135 0.52369 0.20757 0.0
H673 H 0.21121 0.57727 0.20488 0.0
H674 H 0.20583 0.62883 0.24188 0.0
C675 C 0.23606 0.74715 0.22642 0.0
C676 C 0.25156 0.68106 0.21094 0.0
C677 C 0.24932 0.7824 0.22749 0.0
C678 C 0.21626 0.53997 0.21599 0.0
C679 C 0.21648 0.57081 0.21444 0.0
C680 C 0.21862 0.64299 0.23316 0.0
C681 C 0.25554 0.73398 0.22086 0.0
C682 C 0.24354 0.69667 0.22116 0.0
C683 C 0.22411 0.59332 0.22504 0.0
C684 C 0.2282 0.62791 0.22324 0.0
H685 H 0.32665 0.80903 0.2133 0.0
H686 H 0.30394 0.74811 0.2116 0.0
H687 H 0.21984 0.68793 0.24028 0.0
H688 H 0.23566 0.54642 0.24836 0.0
H689 H 0.23654 0.6001 0.24569 0.0
C690 C 0.61815 0.69974 0.22888 0.0
C691 C 0.62658 0.72817 0.221 0.0
C692 C 0.58805 0.669 0.22669 0.0
C693 C 0.51495 0.62343 0.20365 0.0
H694 H 0.46391 0.58622 0.23569 0.0
C695 C 0.36809 0.54412 0.20587 0.0
C696 C 0.35276 0.51791 0.21518 0.0
C697 C 0.4035 0.56472 0.2053 0.0
C698 C 0.47793 0.59577 0.22664 0.0
H699 H 0.61185 0.74615 0.20401 0.0
H700 H 0.5592 0.69289 0.20028 0.0
H701 H 0.5231 0.63075 0.23677 0.0
H702 H 0.36279 0.49167 0.23073 0.0
H703 H 0.42451 0.52746 0.22967 0.0
H704 H 0.46904 0.58914 0.19355 0.0
C705 C 0.57569 0.69398 0.20812 0.0
C706 C 0.51203 0.62135 0.22725 0.0
C707 C 0.60583 0.72464 0.21029 0.0
C708 C 0.37372 0.51179 0.2235 0.0
C709 C 0.40912 0.53242 0.22294 0.0
C710 C 0.48071 0.59786 0.20303 0.0
C711 C 0.56576 0.66616 0.2166 0.0
C712 C 0.53086 0.63597 0.21578 0.0
C713 C 0.42441 0.55961 0.21403 0.0
C714 C 0.46164 0.58416 0.21453 0.0
H715 H 0.63386 0.70172 0.23716 0.0
H716 H 0.5816 0.64785 0.23322 0.0
H717 H 0.52878 0.63376 0.19461 0.0
H718 H 0.35272 0.5495 0.19929 0.0
H719 H 0.41439 0.58562 0.1984 0.0
C720 C 0.88461 0.59276 0.7728 0.0
C721 C 0.89441 0.62018 0.76413 0.0
C722 C 0.89558 0.56922 0.77094 0.0
C723 C 0.92935 0.53549 0.74534 0.0
H724 H 0.94093 0.48938 0.77503 0.0
C725 C 0.93155 0.409 0.74005 0.0
C726 C 0.95017 0.40163 0.7491 0.0
C727 C 0.92894 0.43841 0.74139 0.0
C728 C 0.93837 0.50221 0.76657 0.0
H729 H 0.92461 0.64487 0.74691 0.0
H730 H 0.94464 0.60426 0.74385 0.0
H731 H 0.93089 0.53645 0.7786 0.0
H732 H 0.98193 0.42 0.7663 0.0
H733 H 0.97867 0.47182 0.76836 0.0
H734 H 0.93777 0.50173 0.7333 0.0
C735 C 0.92775 0.60053 0.75196 0.0
C736 C 0.93201 0.52904 0.76864 0.0
C737 C 0.91655 0.62408 0.75379 0.0
C738 C 0.96724 0.42492 0.7592 0.0
C739 C 0.96504 0.45452 0.76045 0.0
C740 C 0.93604 0.5088 0.74325 0.0
C741 C 0.917 0.57242 0.7604 0.0
C742 C 0.9268 0.54576 0.75808 0.0
C743 C 0.94521 0.4614 0.75174 0.0
C744 C 0.9402 0.49139 0.75384 0.0
H745 H 0.86744 0.58873 0.78085 0.0
H746 H 0.88617 0.54777 0.77755 0.0
H747 H 0.92522 0.54741 0.73693 0.0
H748 H 0.91791 0.39138 0.73222 0.0
H749 H 0.91308 0.44237 0.73456 0.0
C750 C 0.73498 0.58174 0.74426 0.0
C751 C 0.75281 0.59805 0.75566 0.0
C752 C 0.70492 0.55002 0.74495 0.0
C753 C 0.63868 0.48974 0.76862 0.0
H754 H 0.62322 0.4224 0.74216 0.0
C755 C 0.5499 0.34481 0.77612 0.0
C756 C 0.52955 0.32536 0.76561 0.0
C757 C 0.5735 0.37947 0.77455 0.0
C758 C 0.62688 0.44104 0.74954 0.0
H759 H 0.75302 0.59412 0.77674 0.0
H760 H 0.70152 0.53884 0.77797 0.0
H761 H 0.67139 0.47999 0.73999 0.0
H762 H 0.51751 0.32751 0.74528 0.0
H763 H 0.55902 0.38804 0.74253 0.0
H764 H 0.59483 0.45021 0.7784 0.0
C765 C 0.70995 0.55057 0.76847 0.0
C766 C 0.65454 0.47421 0.74829 0.0
C767 C 0.73974 0.5823 0.76777 0.0
C768 C 0.53263 0.34173 0.7536 0.0
C769 C 0.55663 0.37636 0.75199 0.0
C770 C 0.61128 0.45649 0.76994 0.0
C771 C 0.69213 0.53376 0.75707 0.0
C772 C 0.66116 0.499 0.7579 0.0
C773 C 0.57772 0.39554 0.76239 0.0
C774 C 0.60524 0.4316 0.76049 0.0
H775 H 0.74444 0.5933 0.73479 0.0
H776 H 0.69177 0.53827 0.73597 0.0
H777 H 0.64229 0.50815 0.77609 0.0
H778 H 0.54824 0.33302 0.78549 0.0
H779 H 0.58946 0.39338 0.78275 0.0
C780 C 0.56616 0.19694 0.76618 0.0
C781 C 0.55688 0.20907 0.75523 0.0
C782 C 0.59821 0.19954 0.76685 0.0
C783 C 0.67563 0.21889 0.747 0.0
H784 H 0.71887 0.24057 0.78096 0.0
C785 C 0.81231 0.24055 0.75454 0.0
C786 C 0.83362 0.26752 0.76287 0.0
C787 C 0.77728 0.22919 0.7539 0.0
C788 C 0.70738 0.23475 0.77136 0.0
H789 H 0.57365 0.23291 0.73629 0.0
H790 H 0.62999 0.23847 0.73757 0.0
H791 H 0.66117 0.22992 0.77883 0.0
H792 H 0.8344 0.30294 0.7773 0.0
H793 H 0.7742 0.28377 0.77604 0.0
H794 H 0.7227 0.22553 0.73947 0.0
C795 C 0.61233 0.22617 0.74556 0.0
C796 C 0.67386 0.22807 0.77016 0.0
C797 C 0.58004 0.22316 0.74482 0.0
C798 C 0.81887 0.28203 0.7708 0.0
C799 C 0.78407 0.27083 0.77013 0.0
C800 C 0.70934 0.22586 0.74819 0.0
C801 C 0.62213 0.21484 0.75668 0.0
C802 C 0.65748 0.22031 0.75795 0.0
C803 C 0.76273 0.24453 0.76156 0.0
C804 C 0.72589 0.23433 0.76038 0.0
H805 H 0.54876 0.18576 0.77433 0.0
H806 H 0.60426 0.18973 0.77545 0.0
H807 H 0.66389 0.21253 0.73746 0.0
H808 H 0.82279 0.22881 0.74827 0.0
H809 H 0.76167 0.20855 0.74731 0.0
C810 C 0.07325 0.23847 0.55887 0.0
C811 C 1.045 0.21463 0.5661 0.0
C812 C 0.10309 0.2367 0.55845 0.0
C813 C 0.14909 0.19956 0.57544 0.0
H814 H 0.19751 0.21748 0.54249 0.0
C815 C 0.27496 0.19778 0.57145 0.0
C816 C 0.27751 0.17973 0.56075 0.0
C817 C 0.24937 0.20643 0.57189 0.0
C818 C 0.18427 0.21231 0.55176 0.0
H819 H 1.02554 0.17013 0.57851 0.0
H820 H 0.07758 0.16653 0.57763 0.0
H821 H 0.14622 0.22179 0.54386 0.0
H822 H 0.25642 0.15845 0.54178 0.0
H823 H 0.21184 0.17324 0.54259 0.0
H824 H 0.18644 0.18881 0.58321 0.0
C825 C 0.07695 0.18705 0.57247 0.0
C826 C 0.15501 0.21513 0.55259 0.0
C827 C 1.04709 0.18896 0.57294 0.0
C828 C 0.25518 0.1723 0.55018 0.0
C829 C 0.22962 0.18091 0.55063 0.0
C830 C 0.17832 0.19667 0.5746 0.0
C831 C 0.10531 0.21087 0.56518 0.0
C832 C 0.1369 0.20857 0.56442 0.0
C833 C 0.22581 0.19727 0.56164 0.0
C834 C 0.19614 0.20275 0.56273 0.0
H835 H 0.07235 0.25863 0.55354 0.0
H836 H 0.12453 0.25577 0.55292 0.0
H837 H 0.13605 0.19474 0.58474 0.0
H838 H 0.29184 0.20406 0.57974 0.0
H839 H 0.24758 0.21964 0.58041 0.0
C840 C 0.89097 0.8915 0.57679 0.0
C841 C 0.91814 0.88635 0.57351 0.0
C842 C 0.89488 0.92415 0.57637 0.0
C843 C 0.94639 1.0084 0.56085 0.0
H844 H 0.90298 0.03669 0.58671 0.0
C845 C 0.94793 0.13613 0.55534 0.0
C846 C 0.91629 0.13394 0.55737 0.0
C847 C 0.95352 0.10985 0.55957 0.0
C848 C 0.91518 1.02921 0.57936 0.0
H849 H 0.97086 0.91141 0.56732 0.0
H850 H 0.97775 0.96851 0.56652 0.0
H851 H 0.90181 0.98269 0.58939 0.0
H852 H 0.86594 0.10306 0.56552 0.0
H853 H 0.87539 0.05749 0.57291 0.0
H854 H 0.95881 0.05431 0.55059 0.0
C855 C 0.95332 0.94729 0.56938 0.0
C856 C 0.91446 0.99816 0.5809 0.0
C857 C 0.94945 0.91461 0.5699 0.0
C858 C 0.89088 0.1058 0.56416 0.0
C859 C 0.89637 0.07961 0.56837 0.0
C860 C 0.94697 0.03941 0.55928 0.0
C861 C 0.92604 0.95249 0.57257 0.0
C862 C 0.92947 0.98699 0.57153 0.0
C863 C 0.92737 0.08065 0.56577 0.0
C864 C 0.93077 0.04997 0.56838 0.0
H865 H 0.8665 0.87021 0.57957 0.0
H866 H 0.87316 0.92703 0.5787 0.0
H867 H 0.95797 1.00055 0.55338 0.0
H868 H 0.96754 0.157 0.54973 0.0
H869 H 0.97785 0.1118 0.55751 0.0
C870 C 0.235 1.02578 0.56281 0.0
C871 C 0.2499 0.03806 0.57506 0.0
C872 C 0.20264 0.99717 0.56182 0.0
C873 C 0.12237 0.94576 0.58003 0.0
H874 H 0.10305 0.88501 0.55061 0.0
C875 C 0.99004 0.8239 0.56739 0.0
C876 C 0.98099 0.82249 0.55419 0.0
C877 C 1.02204 0.84964 0.57178 0.0
C878 C 0.10802 0.90175 0.55888 0.0
H879 H 0.24279 1.02975 0.59593 0.0
H880 H 0.18596 0.97904 0.59421 0.0
H881 H 0.16139 0.92898 0.55494 0.0
H882 H 0.99747 0.84748 0.53541 0.0
H883 H 0.05276 0.89193 0.54298 0.0
H884 H 0.06845 0.91806 0.58384 0.0
C885 C 0.19933 0.99186 0.58536 0.0
C886 C 0.14148 0.92706 0.56135 0.0
C887 C 0.23196 1.02068 0.58635 0.0
C888 C 1.00375 0.84791 0.54563 0.0
C889 C 1.0355 0.87327 0.54995 0.0
C890 C 0.0887 0.92006 0.57761 0.0
C891 C 0.1842 0.97986 0.57306 0.0
C892 C 0.14906 0.95011 0.5717 0.0
C893 C 1.04548 0.87388 0.56296 0.0
C894 C 0.08114 0.89848 0.56676 0.0
H895 H 0.24804 0.03879 0.55393 0.0
H896 H 0.19169 0.98922 0.55219 0.0
H897 H 0.12724 0.96311 0.58807 0.0
H898 H 0.97319 0.80426 0.57413 0.0
H899 H 1.02913 0.84953 0.58186 0.0
C900 C 0.55822 0.0676 0.04553 0.0
C901 C 0.54629 0.085 0.05331 0.0
C902 C 0.56645 0.07629 0.03242 0.0
C903 C 0.5411 0.11273 0.00578 0.0
H904 H 0.60332 0.09507 0.98576 0.0
C905 C 0.5396 0.05424 0.95316 0.0
C906 C 0.52762 0.07161 0.94543 0.0
C907 C 0.55245 0.06601 0.96564 0.0
C908 C 0.58597 0.1003 0.99123 0.0
H909 H 0.53582 0.12668 0.05362 0.0
H910 H 0.5512 0.14259 0.03085 0.0
H911 H 0.60763 0.09853 0.00956 0.0
H912 H 0.52171 0.11608 0.94441 0.0
H913 H 0.54435 0.13679 0.96618 0.0
H914 H 0.51861 0.11326 0.98755 0.0
C915 C 0.55352 0.12171 0.03482 0.0
C916 C 0.58836 0.10221 0.00485 0.0
C917 C 0.54503 0.11283 0.04793 0.0
C918 C 0.5308 0.10219 0.9501 0.0
C919 C 0.54354 0.11392 0.96262 0.0
C920 C 0.53884 0.11103 0.99218 0.0
C921 C 0.56306 0.1027 0.02677 0.0
C922 C 0.56517 0.10726 0.01232 0.0
C923 C 0.55346 0.09533 0.97068 0.0
C924 C 0.56048 0.10364 0.98478 0.0
H925 H 0.5596 0.04611 0.04941 0.0
H926 H 0.57338 0.06083 0.02654 0.0
H927 H 0.52245 0.11616 0.01116 0.0
H928 H 0.53767 1.03068 0.94981 0.0
H929 H 0.55959 0.05091 0.97162 0.0
C930 C 1.03381 0.4996 0.95485 0.0
C931 C 0.06177 0.49899 0.94916 0.0
C932 C 1.02829 0.49571 0.96834 0.0
C933 C 0.05186 0.46694 0.99844 0.0
H934 H 1.03297 0.53198 0.01562 0.0
C935 C 1.0475 0.47339 0.05457 0.0
C936 C 0.06851 0.50631 0.05946 0.0
C937 C 1.03823 0.46855 0.04136 0.0
C938 C 1.03802 0.5135 0.01097 0.0
H939 H 0.10521 0.49267 0.9532 0.0
H940 H 0.09575 0.48621 0.97672 0.0
H941 H 1.03439 0.53031 0.99184 0.0
H942 H 0.09493 0.55999 0.05469 0.0
H943 H 0.07867 0.55174 0.03177 0.0
H944 H 0.05703 0.45121 0.01759 0.0
C945 C 0.07791 0.48941 0.97073 0.0
C946 C 1.03858 0.51235 0.99733 0.0
C947 C 0.08348 0.49336 0.95724 0.0
C948 C 0.07848 0.53435 0.05116 0.0
C949 C 0.06903 0.52958 0.03804 0.0
C950 C 0.05117 0.46801 0.01209 0.0
C951 C 0.05051 0.49101 0.97646 0.0
C952 C 1.0463 0.4896 0.99091 0.0
C953 C 1.04974 0.49661 0.03288 0.0
C954 C 1.04505 0.49187 0.01851 0.0
H955 H 1.01636 0.50358 0.94893 0.0
H956 H 1.00669 0.49661 0.97242 0.0
H957 H 0.05742 0.44882 0.99379 0.0
H958 H 1.04028 0.45136 0.06069 0.0
H959 H 1.0232 0.44285 0.03769 0.0
C960 C 0.59502 0.59899 0.95129 0.0
C961 C 0.62359 0.60641 0.94355 0.0
C962 C 0.5953 0.5942 0.96476 0.0
C963 C 0.65414 0.61785 0.99243 0.0
H964 H 0.57357 0.5517 0.01111 0.0
C965 C 0.65078 0.61282 0.04888 0.0
C966 C 0.62144 0.61032 0.05465 0.0
C967 C 0.65153 0.60655 0.03551 0.0
C968 C 0.59626 0.57044 0.00606 0.0
H969 H 0.6745 0.61339 0.94395 0.0
H970 H 0.675 0.60515 0.96753 0.0
H971 H 0.57402 0.55161 0.98729 0.0
H972 H 0.56935 0.5976 0.05098 0.0
H973 H 0.57075 0.58718 0.02778 0.0
H974 H 0.67602 0.63745 0.01115 0.0
C975 C 0.65247 0.60333 0.96313 0.0
C976 C 0.59652 0.57035 0.9924 0.0
C977 C 0.65211 0.60789 0.9496 0.0
C978 C 0.59242 0.59988 0.04686 0.0
C979 C 0.59316 0.59364 0.03353 0.0
C980 C 0.65384 0.61804 0.0061 0.0
C981 C 0.6242 0.59681 0.9709 0.0
C982 C 0.62522 0.59449 0.9854 0.0
C983 C 0.62294 0.59762 0.02759 0.0
C984 C 0.62464 0.59477 0.01311 0.0
H985 H 0.57252 0.59745 0.94698 0.0
H986 H 0.57321 0.58957 0.97044 0.0
H987 H 0.67654 0.63704 0.98736 0.0
H988 H 0.6736 0.62079 0.05458 0.0
H989 H 0.67473 0.60934 0.03132 0.0
C990 C 0.24443 0.41593 0.37383 0.0
C991 C 0.21671 0.39047 0.38083 0.0
C992 C 0.24494 0.41525 0.36016 0.0
C993 C 0.20244 0.35778 0.33161 0.0
H994 H 0.24476 0.44292 0.31248 0.0
C995 C 0.1877 0.37301 0.27559 0.0
C996 C 0.21782 0.39566 0.26895 0.0
C997 C 0.18782 0.36911 0.28918 0.0
C998 C 0.23306 0.41892 0.3177 0.0
H999 H 0.16738 0.34479 0.37889 0.0
H1000 H 0.16764 0.34436 0.3552 0.0
H1001 H 0.24418 0.44376 0.33623 0.0
H1002 H 0.27209 0.43002 0.27128 0.0
H1003 H 0.27206 0.42353 0.29485 0.0
H1004 H 0.19036 0.33315 0.31288 0.0
C1005 C 0.18961 0.36424 0.36019 0.0
C1006 C 0.23288 0.41937 0.33134 0.0
C1007 C 0.18935 0.36463 0.37383 0.0
C1008 C 0.24831 0.4127 0.27608 0.0
C1009 C 0.24834 0.4091 0.2896 0.0
C1010 C 0.20218 0.35737 0.31792 0.0
C1011 C 0.21749 0.3894 0.35312 0.0
C1012 C 0.2177 0.38882 0.33852 0.0
C1013 C 0.21798 0.38806 0.29635 0.0
C1014 C 0.2177 0.38796 0.31085 0.0
H1015 H 0.26605 0.43603 0.37891 0.0
H1016 H 0.26716 0.43479 0.35513 0.0
H1017 H 0.19101 0.33369 0.33673 0.0
H1018 H 0.16377 0.35964 0.27043 0.0
H1019 H 0.16404 0.35267 0.29416 0.0
C1020 C 0.78239 0.85521 0.37473 0.0
C1021 C 0.75773 0.8595 0.3815 0.0
C1022 C 0.78408 0.85663 0.36114 0.0
C1023 C 0.7632 0.89076 0.3326 0.0
H1024 H 0.77038 0.82037 0.31377 0.0
C1025 C 0.73865 0.86824 0.2775 0.0
C1026 C 0.7544 0.8535 0.27032 0.0
C1027 C 0.74472 0.87443 0.29083 0.0
C1028 C 0.76921 0.84072 0.31884 0.0
H1029 H 0.71538 0.8685 0.37922 0.0
H1030 H 0.71859 0.87126 0.35528 0.0
H1031 H 0.76735 0.81862 0.33751 0.0
H1032 H 0.78995 0.83499 0.27132 0.0
H1033 H 0.80201 0.84727 0.29458 0.0
H1034 H 0.76533 0.91309 0.31397 0.0
C1035 C 0.7366 0.86686 0.36063 0.0
C1036 C 0.76714 0.83949 0.33246 0.0
C1037 C 0.73459 0.86501 0.3743 0.0
C1038 C 0.77817 0.84717 0.27654 0.0
C1039 C 0.78445 0.85354 0.28993 0.0
C1040 C 0.76567 0.89223 0.31896 0.0
C1041 C 0.76139 0.86264 0.35393 0.0
C1042 C 0.76373 0.86427 0.33947 0.0
C1043 C 0.76677 0.86604 0.29734 0.0
C1044 C 0.76825 0.86696 0.31189 0.0
H1045 H 0.80049 0.85064 0.37993 0.0
H1046 H 0.80357 0.85349 0.35626 0.0
H1047 H 0.76118 0.91051 0.33777 0.0
H1048 H 0.72007 0.87326 0.27294 0.0
H1049 H 0.73033 0.88372 0.29614 0.0
C1050 C 0.28814 0.90603 0.28551 0.0
C1051 C 0.29789 0.93599 0.27836 0.0
C1052 C 0.29504 0.90749 0.29889 0.0
C1053 C 0.31476 0.96535 0.32724 0.0
H1054 H 0.33123 0.89936 0.34494 0.0
C1055 C 0.33639 0.97632 0.38182 0.0
C1056 C 0.31353 0.947 0.38876 0.0
C1057 C 0.34228 0.97444 0.36855 0.0
C1058 C 0.32673 0.91797 0.3401 0.0
H1059 H 0.32409 0.99104 0.2795 0.0
H1060 H 0.33715 0.99372 0.30263 0.0
H1061 H 0.32619 0.89783 0.3211 0.0
H1062 H 0.28081 0.89244 0.38758 0.0
H1063 H 0.29126 0.88894 0.3643 0.0
H1064 H 0.31515 0.98542 0.34613 0.0
C1065 C 0.32309 0.96895 0.29808 0.0
C1066 C 0.32363 0.91703 0.32645 0.0
C1067 C 0.31575 0.96746 0.28476 0.0
C1068 C 0.29917 0.91526 0.38252 0.0
C1069 C 0.30494 0.91336 0.36916 0.0
C1070 C 0.31823 0.96651 0.34078 0.0
C1071 C 0.31226 0.93897 0.3054 0.0
C1072 C 0.31736 0.9406 0.31985 0.0
C1073 C 0.3251 0.94322 0.36191 0.0
C1074 C 0.32408 0.94279 0.3474 0.0
H1075 H 0.27432 0.88134 0.28087 0.0
H1076 H 0.2859 0.88383 0.30418 0.0
H1077 H 0.30901 0.98336 0.32263 0.0
H1078 H 0.34772 1.00112 0.38643 0.0
H1079 H 0.35848 0.9978 0.36329 0.0
C1080 C 0.87219 0.71184 0.71114 0.0
C1081 C 0.8998 0.73391 0.71906 0.0
C1082 C 0.87641 0.70989 0.69774 0.0
C1083 C 0.93004 0.75852 0.6701 0.0
H1084 H 0.88081 0.67158 0.65235 0.0
C1085 C 0.93066 0.7505 0.61404 0.0
C1086 C 0.89828 0.73129 0.60837 0.0
C1087 C 0.93538 0.74772 0.62738 0.0
C1088 C 0.89467 0.69605 0.65715 0.0
H1089 H 0.9537 0.77117 0.71898 0.0
H1090 H 0.96101 0.76783 0.69542 0.0
H1091 H 0.88112 0.67352 0.67616 0.0
H1092 H 0.84602 0.69223 0.61213 0.0
H1093 H 0.85418 0.6875 0.63534 0.0
H1094 H 0.94276 0.78117 0.6511 0.0
C1095 C 0.93605 0.7521 0.69969 0.0
C1096 C 0.89485 0.69718 0.67079 0.0
C1097 C 0.93187 0.75396 0.71319 0.0
C1098 C 0.87127 0.70752 0.61616 0.0
C1099 C 0.876 0.70472 0.6295 0.0
C1100 C 0.92985 0.75739 0.65644 0.0
C1101 C 0.90832 0.72997 0.69183 0.0
C1102 C 0.91184 0.7285 0.67742 0.0
C1103 C 0.90786 0.72557 0.63534 0.0
C1104 C 0.91152 0.72621 0.6498 0.0
H1105 H 0.84707 0.69593 0.71526 0.0
H1106 H 0.85436 0.69305 0.69196 0.0
H1107 H 0.94309 0.78307 0.67489 0.0
H1108 H 0.95216 0.76875 0.6083 0.0
H1109 H 0.9604 0.76362 0.63152 0.0
C1110 C 0.37513 0.1924 0.61919 0.0
C1111 C 0.3987 0.19189 0.6104 0.0
C1112 C 0.38431 0.20347 0.63198 0.0
C1113 C 0.44559 0.21118 0.65712 0.0
H1114 H 0.39523 0.24415 0.67709 0.0
C1115 C 0.42516 0.18751 0.71239 0.0
C1116 C 0.41985 0.2097 0.72032 0.0
C1117 C 0.42821 0.19194 0.69886 0.0
C1118 C 0.41017 0.23556 0.67176 0.0
H1119 H 0.4509 0.20427 0.60798 0.0
H1120 H 0.4677 0.22474 0.63043 0.0
H1121 H 0.39354 0.24466 0.6535 0.0
H1122 H 0.41452 0.25455 0.72035 0.0
H1123 H 0.42141 0.26338 0.69681 0.0
H1124 H 0.46321 0.20321 0.67538 0.0
C1125 C 0.44176 0.21591 0.62742 0.0
C1126 C 0.40876 0.23537 0.65813 0.0
C1127 C 0.43236 0.20459 0.61451 0.0
C1128 C 0.41814 0.23676 0.71446 0.0
C1129 C 0.422 0.24171 0.70092 0.0
C1130 C 0.44761 0.21206 0.67077 0.0
C1131 C 0.41753 0.2147 0.63642 0.0
C1132 C 0.42519 0.22176 0.65063 0.0
C1133 C 0.42685 0.2192 0.69288 0.0
C1134 C 0.42881 0.22296 0.67832 0.0
H1135 H 0.34893 0.18294 0.61634 0.0
H1136 H 0.36463 0.20143 0.63854 0.0
H1137 H 0.45866 0.20054 0.65173 0.0
H1138 H 0.42637 0.16627 0.71663 0.0
H1139 H 0.43094 0.17343 0.69309 0.0
C1140 C 0.90684 0.20689 0.61026 0.0
C1141 C 0.91826 0.23786 0.6036 0.0
C1142 C 0.90305 0.20521 0.62384 0.0
C1143 C 0.89913 0.25238 0.65292 0.0
H1144 H 0.93844 0.20476 0.67074 0.0
C1145 C 0.94255 0.27954 0.70636 0.0
C1146 C 0.93648 0.2522 0.71459 0.0
C1147 C 0.93576 0.27451 0.69302 0.0
C1148 C 0.92685 0.2177 0.66594 0.0
H1149 H 0.93257 0.2909 0.60596 0.0
H1150 H 0.9263 0.28807 0.62961 0.0
H1151 H 0.93344 0.20174 0.64703 0.0
H1152 H 0.91837 0.19799 0.71511 0.0
H1153 H 0.90664 0.18925 0.69168 0.0
H1154 H 0.8934 0.26906 0.67184 0.0
C1155 C 0.92012 0.26498 0.62435 0.0
C1156 C 0.92393 0.21596 0.65233 0.0
C1157 C 0.92387 0.26665 0.61076 0.0
C1158 C 0.92343 0.21963 0.70908 0.0
C1159 C 0.91679 0.21463 0.69565 0.0
C1160 C 0.90212 0.25418 0.66653 0.0
C1161 C 0.91052 0.23445 0.63109 0.0
C1162 C 0.91056 0.23374 0.64563 0.0
C1163 C 0.92279 0.24204 0.68748 0.0
C1164 C 0.91659 0.23737 0.67318 0.0
H1165 H 0.90181 0.18407 0.60503 0.0
H1166 H 0.8949 0.18112 0.62868 0.0
H1167 H 0.88816 0.26589 0.64811 0.0
H1168 H 0.95256 0.30502 0.7102 0.0
H1169 H 0.94125 0.29628 0.68699 0.0
C1170 C 0.36889 0.96687 0.21208 0.0
C1171 C 0.33434 0.95736 0.21098 0.0
C1172 C 0.38968 0.97561 0.201 0.0
C1173 C 0.38944 0.96641 0.16544 0.0
H1174 H 0.47193 0.05455 0.166 0.0
C1175 C 0.45893 1.03335 0.11824 0.0
C1176 C 0.49433 0.05519 0.11819 0.0
C1177 C 0.44155 1.01842 0.1298 0.0
C1178 C 0.44945 1.02954 0.16572 0.0
H1179 H 0.29425 0.94823 0.19733 0.0
H1180 H 0.33053 0.96283 0.1779 0.0
H1181 H 0.43711 1.03314 0.18567 0.0
H1182 H 0.53942 0.07861 0.13024 0.0
H1183 H 0.50919 0.05167 0.15057 0.0
H1184 H 0.40173 0.96237 0.14561 0.0
C1185 C 0.34147 0.96374 0.18738 0.0
C1186 C 0.42939 1.01738 0.17699 0.0
C1187 C 0.32076 0.95551 0.19849 0.0
C1188 C 0.51214 0.06165 0.13 0.0
C1189 C 0.49472 0.04638 0.14163 0.0
C1190 C 0.40976 0.97829 0.15423 0.0
C1191 C 0.37629 0.97449 0.18855 0.0
C1192 C 0.39885 0.986 0.17689 0.0
C1193 C 0.45907 1.02479 0.1417 0.0
C1194 C 0.43966 1.0104 0.1541 0.0
H1195 H 0.38026 0.96874 0.22154 0.0
H1196 H 0.41635 0.98356 0.20217 0.0
H1197 H 0.36628 0.9419 0.16516 0.0
H1198 H 0.44426 1.02899 0.10941 0.0
H1199 H 0.41411 1.00292 0.12942 0.0
C1200 C 0.11874 0.52739 0.12844 0.0
C1201 C 0.09432 0.4997 0.12117 0.0
C1202 C 0.13639 0.52217 0.13855 0.0
C1203 C 0.14283 0.49296 0.16524 0.0
H1204 H 0.18551 0.4378 0.16076 0.0
C1205 C 0.15397 0.41016 0.20539 0.0
C1206 C 0.1855 0.41193 0.20702 0.0
C1207 C 0.14913 0.42782 0.19523 0.0
C1208 C 0.17412 0.45364 0.16213 0.0
H1209 H 0.06983 0.44516 0.11841 0.0
H1210 H 0.10132 0.43615 0.13581 0.0
H1211 H 0.16603 0.45555 0.14158 0.0
H1212 H 0.23675 0.43335 0.19943 0.0
H1213 H 0.22786 0.46346 0.18124 0.0
H1214 H 0.14907 0.48933 0.18584 0.0
C1215 C 0.10669 0.4618 0.13376 0.0
C1216 C 0.16285 0.46361 0.15118 0.0
C1217 C 0.08856 0.46692 0.12388 0.0
C1218 C 0.21227 0.43184 0.19838 0.0
C1219 C 0.2072 0.44895 0.18801 0.0
C1220 C 0.15349 0.48242 0.1762 0.0
C1221 C 0.13033 0.48927 0.14133 0.0
C1222 C 0.14654 0.48282 0.15267 0.0
C1223 C 0.17548 0.44687 0.18631 0.0
C1224 C 0.16865 0.46213 0.17475 0.0
H1225 H 0.12337 0.55286 0.12658 0.0
H1226 H 0.15447 0.54372 0.14428 0.0
H1227 H 0.1301 0.50756 0.16664 0.0
H1228 H 0.13293 0.39485 0.21192 0.0
H1229 H 0.12433 0.4255 0.19404 0.0
C1230 C 0.75067 0.79416 0.20705 0.0
C1231 C 0.7416 0.81924 0.20895 0.0
C1232 C 0.73446 0.76905 0.19755 0.0
C1233 C 0.65927 0.72816 0.17554 0.0
H1234 H 0.71852 0.70686 0.15526 0.0
C1235 C 0.6246 0.6587 0.1252 0.0
C1236 C 0.63884 0.63826 0.12215 0.0
C1237 C 0.63194 0.67627 0.1371 0.0
C1238 C 0.70141 0.71198 0.16095 0.0
H1239 H 0.70873 0.83802 0.20238 0.0
H1240 H 0.68055 0.79431 0.18554 0.0
H1241 H 0.74185 0.74687 0.17319 0.0
H1242 H 0.66877 0.61704 0.12988 0.0
H1243 H 0.68089 0.64687 0.15065 0.0
H1244 H 0.61895 0.69363 0.16292 0.0
C1245 C 0.69969 0.79358 0.1916 0.0
C1246 C 0.71484 0.73503 0.17127 0.0
C1247 C 0.71589 0.81869 0.20119 0.0
C1248 C 0.65772 0.63298 0.13179 0.0
C1249 C 0.665 0.65039 0.14367 0.0
C1250 C 0.64579 0.70506 0.16512 0.0
C1251 C 0.7091 0.76867 0.18955 0.0
C1252 C 0.69403 0.74347 0.17872 0.0
C1253 C 0.6535 0.67345 0.14623 0.0
C1254 C 0.66675 0.69668 0.15771 0.0
H1255 H 0.7703 0.79387 0.21295 0.0
H1256 H 0.74197 0.74996 0.19643 0.0
H1257 H 0.64243 0.73382 0.18115 0.0
H1258 H 0.60878 0.66201 0.11821 0.0
H1259 H 0.6223 0.6935 0.13879 0.0
C1260 C 1.01971 0.42466 0.8821 0.0
C1261 C 1.04632 0.45867 0.88148 0.0
C1262 C 1.00861 0.40459 0.87083 0.0
C1263 C 1.03869 0.40023 0.8376 0.0
H1264 H 0.94421 0.33256 0.83148 0.0
C1265 C 0.99193 0.33856 0.78764 0.0
C1266 C 0.97087 0.303 0.78698 0.0
C1267 C 0.99953 0.35544 0.79958 0.0
C1268 C 0.97072 0.35108 0.83316 0.0
H1269 H 0.0809 0.49874 0.86841 0.0
H1270 H 0.06103 0.46411 0.84873 0.0
H1271 H 0.95984 0.36735 0.8513 0.0
H1272 H 0.94064 0.25737 0.79843 0.0
H1273 H 0.95387 0.28728 0.81953 0.0
H1274 H 1.04948 0.38451 0.81937 0.0
C1275 C 1.04937 0.45256 0.85798 0.0
C1276 C 0.97972 0.37105 0.84449 0.0
C1277 C 0.06061 0.47254 0.86926 0.0
C1278 C 0.95706 0.28474 0.79862 0.0
C1279 C 0.96449 0.30184 0.81066 0.0
C1280 C 1.02967 0.38052 0.82628 0.0
C1281 C 1.02372 0.4181 0.85865 0.0
C1282 C 1.01381 0.39619 0.84677 0.0
C1283 C 0.98618 0.33735 0.81124 0.0
C1284 C 0.99558 0.35603 0.82384 0.0
H1285 H 1.00817 0.41309 0.89136 0.0
H1286 H 0.98901 0.37815 0.87176 0.0
H1287 H 0.06529 0.41859 0.83917 0.0
H1288 H 1.00296 0.3536 0.7789 0.0
H1289 H 1.01586 0.38284 0.79968 0.0
C1290 C 0.69681 0.66957 0.8762 0.0
C1291 C 0.67286 0.63554 0.87911 0.0
C1292 C 0.722 0.67746 0.86674 0.0
C1293 C 0.73993 0.63935 0.83784 0.0
H1294 H 0.82656 0.72353 0.83865 0.0
C1295 C 0.81429 0.69892 0.79105 0.0
C1296 C 0.85007 0.7166 0.79095 0.0
C1297 C 0.79616 0.687 0.80267 0.0
C1298 C 0.80276 0.69964 0.83834 0.0
H1299 H 0.65646 0.5831 0.87424 0.0
H1300 H 0.70147 0.59666 0.85835 0.0
H1301 H 0.78951 0.70611 0.85779 0.0
H1302 H 0.89488 0.73544 0.80312 0.0
H1303 H 0.86289 0.71405 0.82365 0.0
H1304 H 0.75335 0.63246 0.81854 0.0
C1305 C 0.70054 0.61743 0.86316 0.0
C1306 C 0.78119 0.68986 0.84927 0.0
C1307 C 0.67498 0.60958 0.87246 0.0
C1308 C 0.86734 0.72192 0.80286 0.0
C1309 C 0.849 0.70978 0.81461 0.0
C1310 C 0.76159 0.6489 0.82702 0.0
C1311 C 0.72409 0.65152 0.85998 0.0
C1312 C 0.74902 0.66003 0.84904 0.0
C1313 C 0.81311 0.69208 0.81463 0.0
C1314 C 0.79279 0.67971 0.82694 0.0
H1315 H 0.69576 0.69024 0.88106 0.0
H1316 H 0.73908 0.70399 0.86444 0.0
H1317 H 0.7154 0.61637 0.83714 0.0
H1318 H 0.79997 0.69457 0.78212 0.0
H1319 H 0.76866 0.67436 0.80226 0.0
C1320 C 0.40748 0.18302 0.80473 0.0
C1321 C 0.43266 0.19299 0.79503 0.0
C1322 C 0.41321 0.17464 0.8173 0.0
C1323 C 0.47969 0.18423 0.84035 0.0
H1324 H 0.41555 0.09206 0.85121 0.0
C1325 C 0.51498 0.11272 0.87816 0.0
C1326 C 0.48929 0.0869 0.88578 0.0
C1327 C 0.50689 0.12963 0.86863 0.0
C1328 C 0.43342 0.11816 0.84858 0.0
H1329 H 0.48407 0.20394 0.79102 0.0
H1330 H 0.49439 0.1904 0.81298 0.0
H1331 H 0.40328 0.11597 0.83213 0.0
H1332 H 0.43516 0.05958 0.88982 0.0
H1333 H 0.42111 0.08988 0.87362 0.0
H1334 H 0.50988 0.1867 0.85677 0.0
C1335 C 0.47017 0.18864 0.81089 0.0
C1336 C 0.42633 0.1318 0.83758 0.0
C1337 C 0.46419 0.19622 0.7983 0.0
C1338 C 0.45549 0.07918 0.88401 0.0
C1339 C 0.44744 0.09645 0.87463 0.0
C1340 C 0.48654 0.17083 0.8515 0.0
C1341 C 0.44449 0.17696 0.82043 0.0
C1342 C 0.44975 0.16466 0.83317 0.0
C1343 C 0.47291 0.12141 0.86658 0.0
C1344 C 0.46393 0.13724 0.8556 0.0
H1345 H 0.38288 0.18011 0.80243 0.0
H1346 H 0.393 0.16572 0.8245 0.0
H1347 H 0.49808 0.20975 0.83721 0.0
H1348 H 0.54124 0.11902 0.87924 0.0
H1349 H 0.52726 0.14822 0.86255 0.0
C1350 C 0.96571 0.2896 0.52716 0.0
C1351 C 0.9795 0.28875 0.53933 0.0
C1352 C 0.98631 0.30039 0.51595 0.0
C1353 C 0.07469 0.35513 0.50575 0.0
H1354 H 1.04892 0.30242 0.4738 0.0
C1355 C 0.16836 0.3892 0.46229 0.0
C1356 C 0.155 0.3816 0.44959 0.0
C1357 C 0.14658 0.37892 0.47315 0.0
C1358 C 0.05634 0.3179 0.48254 0.0
H1359 H 1.0258 0.29892 0.54929 0.0
H1360 H 0.06155 0.31783 0.52982 0.0
H1361 H 1.01094 0.28197 0.49265 0.0
H1362 H 0.10847 0.35884 0.4383 0.0
H1363 H 0.07067 0.34238 0.4571 0.0
H1364 H 0.11961 0.39153 0.49568 0.0
C1365 C 1.03482 0.30994 0.52892 0.0
C1366 C 1.03455 0.30598 0.49337 0.0
C1367 C 1.0142 0.29869 0.54004 0.0
C1368 C 0.11953 0.36475 0.44797 0.0
C1369 C 0.09782 0.355 0.45879 0.0
C1370 C 0.09625 0.36735 0.49487 0.0
C1371 C 1.0212 0.31117 0.51678 0.0
C1372 C 1.04365 0.32432 0.50512 0.0
C1373 C 0.11094 0.3613 0.47157 0.0
C1374 C 0.08753 0.34881 0.48311 0.0
H1375 H 0.9391 0.28223 0.52632 0.0
H1376 H 0.97519 0.3012 0.50671 0.0
H1377 H 0.08215 0.37 0.51466 0.0
H1378 H 0.19558 0.40194 0.46385 0.0
H1379 H 0.15779 0.38392 0.48279 0.0
C1380 C 0.78917 0.82296 0.45298 0.0
C1381 C 0.76562 0.8345 0.45324 0.0
C1382 C 0.79951 0.81439 0.46446 0.0
C1383 C 0.79873 0.81993 0.50074 0.0
H1384 H 0.81368 0.74309 0.49813 0.0
C1385 C 0.85094 0.77851 0.54418 0.0
C1386 C 0.83797 0.74347 0.54609 0.0
C1387 C 0.84342 0.79053 0.53282 0.0
C1388 C 0.80929 0.76435 0.49912 0.0
H1389 H 0.73436 0.84601 0.4659 0.0
H1390 H 0.75143 0.82967 0.48607 0.0
H1391 H 0.79674 0.76207 0.47896 0.0
H1392 H 0.80719 0.69358 0.53748 0.0
H1393 H 0.79325 0.71427 0.51787 0.0
H1394 H 0.80973 0.82104 0.5211 0.0
C1395 C 0.76274 0.82829 0.47693 0.0
C1396 C 0.80008 0.77568 0.48802 0.0
C1397 C 0.75279 0.83751 0.46537 0.0
C1398 C 0.81786 0.72076 0.53626 0.0
C1399 C 0.80994 0.73271 0.52498 0.0
C1400 C 0.80758 0.80831 0.51191 0.0
C1401 C 0.78587 0.81608 0.47658 0.0
C1402 C 0.79494 0.80381 0.48862 0.0
C1403 C 0.82236 0.76777 0.52314 0.0
C1404 C 0.8131 0.7804 0.51125 0.0
H1405 H 0.79892 0.81937 0.44383 0.0
H1406 H 0.81792 0.80589 0.46375 0.0
H1407 H 0.79524 0.84178 0.50159 0.0
H1408 H 0.8668 0.79671 0.5515 0.0
H1409 H 0.85415 0.81772 0.53166 0.0
C1410 C 0.32751 1.01871 0.45076 0.0
C1411 C 0.31828 0.98422 0.45157 0.0
C1412 C 0.33466 0.03863 0.46199 0.0
C1413 C 0.32702 0.03404 0.49832 0.0
H1414 H 0.39858 0.12845 0.4959 0.0
C1415 C 0.35665 0.12448 0.54185 0.0
C1416 C 0.3907 0.14795 0.54461 0.0
C1417 C 0.34731 0.10649 0.5301 0.0
C1418 C 0.37874 0.1021 0.49681 0.0
H1419 H 0.30982 0.94372 0.46493 0.0
H1420 H 0.32334 0.97868 0.48458 0.0
H1421 H 0.38339 0.09216 0.47673 0.0
H1422 H 0.44204 0.17197 0.53684 0.0
H1423 H 0.42612 0.1401 0.51637 0.0
H1424 H 0.32345 0.04351 0.51853 0.0
C1425 C 0.32399 0.99017 0.47524 0.0
C1426 C 0.3696 0.0813 0.48572 0.0
C1427 C 0.31637 0.97008 0.46396 0.0
C1428 C 0.4154 0.15424 0.535 0.0
C1429 C 0.40621 0.13587 0.52324 0.0
C1430 C 0.33637 0.05474 0.50942 0.0
C1431 C 0.33363 1.02489 0.47439 0.0
C1432 C 0.34348 0.04698 0.48629 0.0
C1433 C 0.37205 0.11108 0.52077 0.0
C1434 C 0.36225 0.08915 0.50884 0.0
H1435 H 0.33062 1.03088 0.44138 0.0
H1436 H 0.34142 0.06501 0.46087 0.0
H1437 H 0.30661 1.00792 0.49917 0.0
H1438 H 0.33727 0.11953 0.54892 0.0
H1439 H 0.32064 0.08853 0.52845 0.0
C1440 C 0.59373 0.46938 0.06209 0.0
C1441 C 0.59752 0.48724 0.07376 0.0
C1442 C 0.58152 0.43433 0.06229 0.0
C1443 C 0.53965 0.3568 0.08329 0.0
H1444 H 0.59246 0.32879 0.06218 0.0
C1445 C 0.54424 0.23337 0.09284 0.0
C1446 C 0.54619 0.21545 0.082 0.0
C1447 C 0.54538 0.26453 0.09115 0.0
C1448 C 0.57703 0.33596 0.06799 0.0
H1449 H 0.58958 0.48188 0.09473 0.0
H1450 H 0.56879 0.42097 0.0951 0.0
H1451 H 0.60258 0.38651 0.0603 0.0
H1452 H 0.54964 0.21526 0.0609 0.0
H1453 H 0.55134 0.26949 0.05792 0.0
H1454 H 0.51475 0.30629 0.09122 0.0
C1455 C 0.57494 0.43391 0.08576 0.0
C1456 C 0.5828 0.36912 0.06689 0.0
C1457 C 0.58704 0.46894 0.08555 0.0
C1458 C 0.54827 0.22867 0.06943 0.0
C1459 C 0.54942 0.25981 0.06774 0.0
C1460 C 0.53392 0.32358 0.08441 0.0
C1461 C 0.57291 0.41633 0.07417 0.0
C1462 C 0.56447 0.38011 0.07462 0.0
C1463 C 0.54853 0.27839 0.07859 0.0
C1464 C 0.55281 0.31289 0.07686 0.0
H1465 H 0.60129 0.48265 0.05282 0.0
H1466 H 0.57962 0.42146 0.05315 0.0
H1467 H 0.52477 0.36428 0.08928 0.0
H1468 H 0.54266 0.22372 0.10264 0.0
H1469 H 0.545 0.27833 0.09973 0.0
C1470 C 0.6809 0.18743 0.06258 0.0
C1471 C 0.66323 0.17458 0.0744 0.0
C1472 C 0.71635 0.20767 0.06244 0.0
C1473 C 0.79427 0.23673 0.08267 0.0
H1474 H 0.8283 0.31866 0.06177 0.0
C1475 C 0.91997 0.36007 0.09344 0.0
C1476 C 0.93931 0.38068 0.08297 0.0
C1477 C 0.88885 0.33056 0.0912 0.0
C1478 C 0.81944 0.29564 0.06747 0.0
H1479 H 0.66911 0.17148 0.09528 0.0
H1480 H 0.73083 0.20717 0.09508 0.0
H1481 H 0.76894 0.27458 0.06004 0.0
H1482 H 0.94219 0.38595 0.06191 0.0
H1483 H 0.88769 0.33417 0.05795 0.0
H1484 H 0.84471 0.25855 0.09042 0.0
C1485 C 0.71739 0.20135 0.08587 0.0
C1486 C 0.78531 0.27028 0.06648 0.0
C1487 C 0.68193 0.18099 0.086 0.0
C1488 C 0.92771 0.3705 0.07016 0.0
C1489 C 0.89645 0.341 0.06791 0.0
C1490 C 0.82843 0.26217 0.08368 0.0
C1491 C 0.73498 0.21563 0.07413 0.0
C1492 C 0.77212 0.24077 0.07424 0.0
C1493 C 0.87632 0.32108 0.07843 0.0
C1494 C 0.84126 0.29222 0.07627 0.0
H1495 H 0.66729 0.18269 0.05344 0.0
H1496 H 0.72911 0.21767 0.05319 0.0
H1497 H 0.78511 0.21408 0.08863 0.0
H1498 H 0.92832 0.36736 0.10342 0.0
H1499 H 0.87387 0.31606 0.09953 0.0
C1500 C 0.76068 0.59107 0.0698 0.0
C1501 C 0.75203 0.60011 0.08174 0.0
C1502 C 0.78867 0.586 0.06893 0.0
C1503 C 0.86727 0.60076 0.08632 0.0
H1504 H 0.85442 0.52328 0.06588 0.0
C1505 C 0.95686 0.54338 0.08968 0.0
C1506 C 0.96301 0.53027 0.07818 0.0
C1507 C 0.93367 0.55534 0.08974 0.0
C1508 C 0.85875 0.54534 0.07148 0.0
H1509 H 0.76644 0.61182 0.10203 0.0
H1510 H 0.81503 0.60268 0.10059 0.0
H1511 H 0.80974 0.53795 0.06656 0.0
H1512 H 0.95069 0.52105 0.05759 0.0
H1513 H 0.91086 0.54223 0.05766 0.0
H1514 H 0.91621 0.60771 0.09138 0.0
C1515 C 0.80054 0.59987 0.09183 0.0
C1516 C 0.83303 0.5538 0.07187 0.0
C1517 C 0.77257 0.60501 0.09269 0.0
C1518 C 0.94644 0.5307 0.06665 0.0
C1519 C 0.92333 0.54264 0.06671 0.0
C1520 C 0.89305 0.59223 0.08595 0.0
C1521 C 0.80867 0.58972 0.07999 0.0
C1522 C 0.83682 0.58159 0.0793 0.0
C1523 C 0.91605 0.55448 0.0783 0.0
C1524 C 0.88912 0.56435 0.07853 0.0
H1525 H 0.74536 0.58717 0.06119 0.0
H1526 H 0.79444 0.57883 0.05959 0.0
H1527 H 0.87135 0.62257 0.09203 0.0
H1528 H 0.96908 0.54338 0.09874 0.0
H1529 H 0.9286 0.56406 0.09887 0.0
C1530 C 0.4621 0.5593 0.9175 0.0
C1531 C 0.48635 0.5792 0.90798 0.0
C1532 C 0.42781 0.5497 0.91596 0.0
C1533 C 0.37583 0.58118 0.90153 0.0
H1534 H 0.29953 0.49179 0.90933 0.0
C1535 C 0.23798 0.55569 0.89846 0.0
C1536 C 0.21389 0.53287 0.9074 0.0
C1537 C 0.27015 0.55874 0.8974 0.0
C1538 C 0.32048 0.51707 0.9073 0.0
H1539 H 0.49338 0.60362 0.88915 0.0
H1540 H 0.43343 0.58731 0.88656 0.0
H1541 H 0.35725 0.5007 0.90927 0.0
H1542 H 0.20445 0.49525 0.92226 0.0
H1543 H 0.26105 0.5015 0.9209 0.0
H1544 H 0.33982 0.59827 0.9002 0.0
C1545 C 0.44104 0.57899 0.89518 0.0
C1546 C 0.35358 0.52205 0.90716 0.0
C1547 C 0.47529 0.58806 0.89661 0.0
C1548 C 0.22251 0.51294 0.91523 0.0
C1549 C 0.25497 0.51641 0.91436 0.0
C1550 C 0.34287 0.57639 0.90188 0.0
C1551 C 0.41706 0.56031 0.90497 0.0
C1552 C 0.38163 0.55419 0.90429 0.0
C1553 C 0.27942 0.53952 0.90546 0.0
C1554 C 0.3146 0.54427 0.9048 0.0
H1555 H 0.46984 0.55212 0.92639 0.0
H1556 H 0.41001 0.53546 0.9237 0.0
H1557 H 0.39697 0.6064 0.89952 0.0
H1558 H 0.23192 0.57118 0.89221 0.0
H1559 H 0.28769 0.57618 0.8902 0.0
C1560 C 0.55719 0.94644 0.92618 0.0
C1561 C 0.54066 0.95186 0.91565 0.0
C1562 C 0.56977 0.92404 0.92502 0.0
C1563 C 0.58818 0.8727 0.90123 0.0
H1564 H 0.57069 0.81437 0.93137 0.0
C1565 C 0.58368 0.74331 0.89862 0.0
C1566 C 0.59809 0.73432 0.9089 0.0
C1567 C 0.58139 0.77287 0.89931 0.0
C1568 C 0.57626 0.83075 0.92293 0.0
H1569 H 0.5257 0.9392 0.89545 0.0
H1570 H 0.54691 0.89936 0.89346 0.0
H1571 H 0.55859 0.86081 0.93255 0.0
H1572 H 0.62186 0.74935 0.9279 0.0
H1573 H 0.61759 0.80111 0.9292 0.0
H1574 H 0.60472 0.8416 0.89151 0.0
C1575 C 0.55073 0.91286 0.90258 0.0
C1576 C 0.56938 0.85752 0.9236 0.0
C1577 C 0.5385 0.93569 0.9037 0.0
C1578 C 0.61059 0.75569 0.91985 0.0
C1579 C 0.60802 0.7852 0.9206 0.0
C1580 C 0.59481 0.84572 0.90054 0.0
C1581 C 0.56571 0.90604 0.91335 0.0
C1582 C 0.575 0.87876 0.91274 0.0
C1583 C 0.59323 0.79402 0.91035 0.0
C1584 C 0.58863 0.82424 0.91135 0.0
H1585 H 0.5596 0.95884 0.93548 0.0
H1586 H 0.58199 0.92026 0.9334 0.0
H1587 H 0.59333 0.88877 0.89274 0.0
H1588 H 0.57382 0.7273 0.89006 0.0
H1589 H 0.56947 0.77865 0.89134 0.0
C1590 C 0.36877 0.89187 0.90366 0.0
C1591 C 0.38363 0.9115 0.91486 0.0
C1592 C 0.33944 0.85994 0.90462 0.0
C1593 C 0.26994 0.80182 0.92763 0.0
H1594 H 0.26442 0.733 0.90367 0.0
C1595 C 0.1845 0.65506 0.93442 0.0
C1596 C 0.16774 0.63603 0.92325 0.0
C1597 C 0.20676 0.69022 0.93355 0.0
C1598 C 0.26536 0.75203 0.91033 0.0
H1599 H 0.37932 0.91359 0.93585 0.0
H1600 H 0.32892 0.8571 0.93769 0.0
H1601 H 0.31163 0.79085 0.90196 0.0
H1602 H 0.15995 0.63937 0.90254 0.0
H1603 H 0.19919 0.70057 0.901 0.0
H1604 H 0.22422 0.76189 0.93637 0.0
C1605 C 0.33919 0.86661 0.92807 0.0
C1606 C 0.29242 0.78538 0.90933 0.0
C1607 C 0.36822 0.89896 0.92705 0.0
C1608 C 0.17241 0.65321 0.91133 0.0
C1609 C 0.19504 0.68824 0.91043 0.0
C1610 C 0.2431 0.76818 0.92877 0.0
C1611 C 0.32462 0.8464 0.91687 0.0
C1612 C 0.29515 0.81089 0.91793 0.0
C1613 C 0.21308 0.70695 0.92145 0.0
C1614 C 0.24053 0.74299 0.92009 0.0
H1615 H 0.37996 0.90112 0.89411 0.0
H1616 H 0.32858 0.8458 0.89572 0.0
H1617 H 0.27075 0.82068 0.93432 0.0
H1618 H 0.1814 0.6426 0.94376 0.0
H1619 H 0.22041 0.70399 0.9422 0.0
C1620 C 0.28374 0.78845 0.42784 0.0
C1621 C 0.27344 0.79967 0.41689 0.0
C1622 C 0.27688 0.75467 0.42867 0.0
C1623 C 0.25308 0.67815 0.40759 0.0
H1624 H 0.24109 0.63311 0.44093 0.0
C1625 C 0.21859 0.53617 0.41214 0.0
C1626 C 0.23831 0.52992 0.42107 0.0
C1627 C 0.22043 0.56805 0.41179 0.0
C1628 C 0.2445 0.64538 0.43154 0.0
H1629 H 0.24645 0.7836 0.3985 0.0
H1630 H 0.23325 0.72477 0.40017 0.0
H1631 H 0.24795 0.68995 0.44022 0.0
H1632 H 0.27494 0.55198 0.43676 0.0
H1633 H 0.27765 0.60709 0.4363 0.0
H1634 H 0.24908 0.63316 0.39896 0.0
C1635 C 0.24775 0.74213 0.40795 0.0
C1636 C 0.24864 0.67818 0.43111 0.0
C1637 C 0.25504 0.77595 0.40704 0.0
C1638 C 0.25937 0.55596 0.42977 0.0
C1639 C 0.26082 0.58753 0.42955 0.0
C1640 C 0.24848 0.64519 0.40802 0.0
C1641 C 0.25912 0.731 0.41865 0.0
C1642 C 0.25334 0.69531 0.41914 0.0
C1643 C 0.2416 0.59416 0.4205 0.0
C1644 C 0.24447 0.62848 0.42 0.0
H1645 H 0.29821 0.80608 0.43556 0.0
H1646 H 0.28655 0.74752 0.43701 0.0
H1647 H 0.2573 0.69044 0.39817 0.0
H1648 H 0.20218 0.51663 0.4053 0.0
H1649 H 0.20514 0.57223 0.40474 0.0
C1650 C 0.58898 0.73565 0.43088 0.0
C1651 C 0.61483 0.74191 0.42186 0.0
C1652 C 0.55845 0.70449 0.431 0.0
C1653 C 0.51588 0.61525 0.41737 0.0
H1654 H 0.43434 0.61627 0.42807 0.0
C1655 C 0.37654 0.5077 0.40679 0.0
C1656 C 0.35288 0.4981 0.41709 0.0
C1657 C 0.40993 0.53474 0.40825 0.0
C1658 C 0.45693 0.61546 0.4252 0.0
H1659 H 0.62902 0.72033 0.40587 0.0
H1660 H 0.57511 0.66646 0.40555 0.0
H1661 H 0.48881 0.66876 0.42835 0.0
H1662 H 0.34615 0.50897 0.43713 0.0
H1663 H 0.40433 0.55675 0.43958 0.0
H1664 H 0.48299 0.56192 0.41355 0.0
C1665 C 0.57863 0.6851 0.41289 0.0
C1666 C 0.48843 0.64566 0.42541 0.0
C1667 C 0.60959 0.71614 0.41299 0.0
C1668 C 0.3638 0.51545 0.42905 0.0
C1669 C 0.39703 0.54301 0.43042 0.0
C1670 C 0.48416 0.58514 0.41691 0.0
C1671 C 0.55236 0.6788 0.42186 0.0
C1672 C 0.51859 0.64616 0.42157 0.0
C1673 C 0.4203 0.55336 0.41995 0.0
C1674 C 0.45433 0.58487 0.42087 0.0
H1675 H 0.59239 0.7549 0.43794 0.0
H1676 H 0.53969 0.70069 0.43835 0.0
H1677 H 0.53827 0.61408 0.41454 0.0
H1678 H 0.36889 0.49495 0.39743 0.0
H1679 H 0.42716 0.54216 0.39998 0.0
C1680 C 0.63813 0.90297 0.41927 0.0
C1681 C 0.63949 0.88369 0.40877 0.0
C1682 C 0.61463 0.91454 0.41929 0.0
C1683 C 0.55475 0.92686 0.39787 0.0
H1684 H 0.50665 0.91695 0.43036 0.0
C1685 C 0.42516 0.924 0.40102 0.0
C1686 C 0.41864 0.93788 0.41218 0.0
C1687 C 0.4553 0.92259 0.39999 0.0
C1688 C 0.52013 0.92045 0.42123 0.0
H1689 H 0.61795 0.86266 0.38982 0.0
H1690 H 0.57707 0.88237 0.38991 0.0
H1691 H 0.5536 0.90553 0.42985 0.0
H1692 H 0.43937 0.96292 0.43065 0.0
H1693 H 0.49201 0.96109 0.42877 0.0
H1694 H 0.52061 0.94105 0.38921 0.0
C1695 C 0.59427 0.88895 0.3981 0.0
C1696 C 0.5472 0.91391 0.42094 0.0
C1697 C 0.61768 0.87742 0.39809 0.0
C1698 C 0.4436 0.95194 0.42195 0.0
C1699 C 0.47367 0.95059 0.42092 0.0
C1700 C 0.52758 0.93334 0.39815 0.0
C1701 C 0.59193 0.90717 0.40879 0.0
C1702 C 0.56473 0.91669 0.40924 0.0
C1703 C 0.47955 0.93504 0.41011 0.0
C1704 C 0.50971 0.92997 0.40982 0.0
H1705 H 0.65456 0.90833 0.42765 0.0
H1706 H 0.61399 0.92896 0.42761 0.0
H1707 H 0.56792 0.92979 0.3887 0.0
H1708 H 0.40629 0.91277 0.39337 0.0
H1709 H 0.45881 0.91026 0.39155 0.0
C1710 C 0.90842 0.85277 0.23836 0.0
C1711 C 0.89009 0.85589 0.24883 0.0
C1712 C 0.93876 0.8527 0.24057 0.0
C1713 C 1.00955 0.88558 0.26354 0.0
H1714 H 1.03606 0.82933 0.24391 0.0
C1715 C 0.14503 0.90641 0.26794 0.0
C1716 C 0.16098 0.90642 0.25615 0.0
C1717 C 0.10991 0.89376 0.26844 0.0
C1718 C 1.02917 0.8454 0.24942 0.0
H1719 H 0.88845 0.86033 0.26984 0.0
H1720 H 0.94186 0.86051 0.27373 0.0
H1721 H 0.978 0.81907 0.24222 0.0
H1722 H 0.1522 0.89155 0.23577 0.0
H1723 H 0.09123 0.87023 0.23655 0.0
H1724 H 0.06086 0.91291 0.27032 0.0
C1725 C 0.93272 0.85815 0.26381 0.0
C1726 C 0.99584 0.83942 0.24848 0.0
C1727 C 0.9021 0.85787 0.2616 0.0
C1728 C 0.14074 0.89184 0.24503 0.0
C1729 C 0.10564 0.87947 0.2455 0.0
C1730 C 1.04292 0.89174 0.26441 0.0
C1731 C 0.95164 0.85606 0.25329 0.0
C1732 C 0.98581 0.85981 0.25536 0.0
C1733 C 0.08987 0.88108 0.25713 0.0
C1734 C 0.05338 0.8721 0.25719 0.0
H1735 H 0.89974 0.85123 0.22841 0.0
H1736 H 0.95286 0.85142 0.23224 0.0
H1737 H 1.0028 0.90206 0.26883 0.0
H1738 H 0.15985 0.91717 0.27672 0.0
H1739 H 0.0986 0.89469 0.27765 0.0
C1740 C 0.28319 0.08045 0.24821 0.0
C1741 C 0.26502 0.05461 0.23906 0.0
C1742 C 0.28037 0.10986 0.24838 0.0
C1743 C 0.22444 0.14271 0.23612 0.0
H1744 H 0.2988 0.2296 0.24763 0.0
C1745 C 0.21901 0.26677 0.23225 0.0
C1746 C 0.22507 0.28495 0.244 0.0
C1747 C 0.22689 0.24072 0.23109 0.0
C1748 C 0.27783 0.20545 0.24441 0.0
H1749 H 0.23069 0.03965 0.22261 0.0
H1750 H 0.227 0.09136 0.22242 0.0
H1751 H 0.3068 0.18024 0.2464 0.0
H1752 H 0.24582 0.29118 0.26351 0.0
H1753 H 0.26037 0.24618 0.26133 0.0
H1754 H 0.19586 0.16831 0.23385 0.0
C1755 C 0.24242 0.08869 0.22985 0.0
C1756 C 0.28227 0.17702 0.24378 0.0
C1757 C 0.24475 0.05907 0.22985 0.0
C1758 C 0.24079 0.27763 0.25433 0.0
C1759 C 0.2492 0.25194 0.25308 0.0
C1760 C 0.22026 0.17122 0.23653 0.0
C1761 C 0.25974 0.11436 0.23924 0.0
C1762 C 0.25555 0.14511 0.23967 0.0
C1763 C 0.24154 0.23264 0.24156 0.0
C1764 C 0.24682 0.20286 0.24073 0.0
H1765 H 0.29887 0.07755 0.25547 0.0
H1766 H 0.29374 0.12861 0.25591 0.0
H1767 H 0.20289 0.11861 0.23323 0.0
H1768 H 0.20687 0.27165 0.22411 0.0
H1769 H 0.22099 0.22647 0.22205 0.0
C1770 C 0.8809 0.99642 0.26678 0.0
C1771 C 0.86346 0.98049 0.25523 0.0
C1772 C 0.90341 1.03156 0.26713 0.0
C1773 C 0.92997 0.11279 0.24954 0.0
H1774 H 1.01721 0.141 0.26576 0.0
C1775 C 1.04961 0.2426 0.23892 0.0
C1776 C 0.07392 0.25874 0.24879 0.0
C1777 C 1.02114 0.21049 0.241 0.0
C1778 C 0.99282 0.1338 0.2614 0.0
H1779 H 0.85502 0.9894 0.23514 0.0
H1780 H 0.89435 0.0507 0.23575 0.0
H1781 H 0.97246 0.08168 0.26692 0.0
H1782 H 0.0868 0.25457 0.26878 0.0
H1783 H 1.03666 0.19857 0.27256 0.0
H1784 H 0.95055 0.16489 0.24387 0.0
C1785 C 0.89048 0.03602 0.24457 0.0
C1786 C 0.96709 0.09965 0.26205 0.0
C1787 C 0.86798 1.00081 0.2442 0.0
C1788 C 0.06846 0.24272 0.261 0.0
C1789 C 1.03989 0.2105 0.2631 0.0
C1790 C 0.95569 0.147 0.24893 0.0
C1791 C 0.90904 0.05174 0.25596 0.0
C1792 C 0.93547 0.08859 0.25599 0.0
C1793 C 1.01618 0.19364 0.25303 0.0
C1794 C 0.98765 0.1579 0.2547 0.0
H1795 H 0.87791 0.98164 0.27549 0.0
H1796 H 0.91678 0.04286 0.27614 0.0
H1797 H 0.90578 0.10528 0.24494 0.0
H1798 H 0.05319 0.25427 0.22939 0.0
H1799 H 1.00379 0.19827 0.23296 0.0
C1800 C 0.89116 0.86645 0.74672 0.0
C1801 C 0.90464 0.8595 0.75786 0.0
C1802 C 0.88994 0.8968 0.74584 0.0
C1803 C 0.92812 0.98335 0.76144 0.0
H1804 H 0.8606 0.99089 0.74089 0.0
C1805 C 0.91827 0.10585 0.76139 0.0
C1806 C 0.91871 0.11912 0.74894 0.0
C1807 C 0.91305 0.07279 0.76278 0.0
C1808 C 0.87963 0.98914 0.74667 0.0
H1809 H 0.92573 0.87785 0.77705 0.0
H1810 H 0.92189 0.92925 0.77591 0.0
H1811 H 0.85777 0.93581 0.74284 0.0
H1812 H 0.91231 0.10737 0.72826 0.0
H1813 H 0.90229 0.04945 0.73075 0.0
H1814 H 0.94947 0.03654 0.76546 0.0
C1815 C 0.91365 0.91248 0.76753 0.0
C1816 C 0.8782 0.95756 0.74772 0.0
C1817 C 0.91551 0.88267 0.76827 0.0
C1818 C 0.91216 0.09796 0.73799 0.0
C1819 C 0.90631 0.06471 0.73941 0.0
C1820 C 0.92915 1.01466 0.76057 0.0
C1821 C 0.90166 0.9206 0.75618 0.0
C1822 C 0.90251 0.95412 0.75511 0.0
C1823 C 0.90749 0.05198 0.75179 0.0
C1824 C 0.90505 1.01804 0.75313 0.0
H1825 H 0.8828 0.84913 0.7385 0.0
H1826 H 0.88082 0.90199 0.73687 0.0
H1827 H 0.948 0.98241 0.76692 0.0
H1828 H 0.92341 0.12149 0.77001 0.0
H1829 H 0.91386 0.06363 0.77247 0.0
C1830 C 0.2725 0.08397 0.77062 0.0
C1831 C 0.29558 0.09547 0.76013 0.0
C1832 C 0.24259 0.05233 0.77014 0.0
C1833 C 0.19674 0.97067 0.75094 0.0
H1834 H 0.11826 0.96472 0.76864 0.0
C1835 C 0.0559 0.86481 0.74175 0.0
C1836 C 1.03475 0.8508 0.75276 0.0
C1837 C 0.08925 0.89209 0.74303 0.0
C1838 C 0.14 0.96579 0.76376 0.0
H1839 H 0.30567 0.08257 0.74093 0.0
H1840 H 0.25268 1.02782 0.73976 0.0
H1841 H 0.17268 1.01707 0.76979 0.0
H1842 H 1.03251 0.85416 0.77382 0.0
H1843 H 0.09053 0.90227 0.77602 0.0
H1844 H 0.16297 0.91955 0.74441 0.0
C1845 C 0.25801 0.04271 0.74859 0.0
C1846 C 0.17149 0.9959 0.76447 0.0
C1847 C 0.28845 0.07423 0.74921 0.0
C1848 C 1.04813 0.86417 0.76514 0.0
C1849 C 0.0813 0.8919 0.76639 0.0
C1850 C 0.16498 0.94069 0.75005 0.0
C1851 C 0.23426 1.03146 0.75899 0.0
C1852 C 0.20055 0.9989 0.75814 0.0
C1853 C 0.10211 0.90651 0.75533 0.0
C1854 C 0.13625 0.93785 0.7565 0.0
H1855 H 0.27744 0.09966 0.77922 0.0
H1856 H 0.22589 0.04447 0.77856 0.0
H1857 H 0.21833 0.97147 0.74607 0.0
H1858 H 1.04642 0.85515 0.73207 0.0
H1859 H 0.10451 0.90282 0.73431 0.0
C1860 C 0.2882 0.23387 0.76297 0.0
C1861 C 0.30177 0.23191 0.75084 0.0
C1862 C 0.26029 0.23919 0.76359 0.0
C1863 C 0.21121 0.27072 0.74545 0.0
H1864 H 0.13509 0.20538 0.76628 0.0
C1865 C 0.07762 0.26058 0.74354 0.0
C1866 C 0.0568 0.24857 0.75468 0.0
C1867 C 0.10904 0.26138 0.74315 0.0
C1868 C 0.15619 0.22444 0.76062 0.0
H1869 H 0.29753 0.23561 0.7299 0.0
H1870 H 0.24948 0.2458 0.73103 0.0
H1871 H 0.18751 0.20328 0.76585 0.0
H1872 H 0.05327 0.22977 0.77437 0.0
H1873 H 0.10826 0.23298 0.77405 0.0
H1874 H 0.18028 0.29244 0.74041 0.0
C1875 C 0.26023 0.2429 0.74004 0.0
C1876 C 0.18633 0.22304 0.76034 0.0
C1877 C 0.28772 0.23696 0.7394 0.0
C1878 C 0.06861 0.23883 0.76558 0.0
C1879 C 0.10014 0.2403 0.76532 0.0
C1880 C 0.1812 0.27256 0.74591 0.0
C1881 C 0.24567 0.24332 0.75213 0.0
C1882 C 0.2142 0.24605 0.75273 0.0
C1883 C 0.1206 0.25073 0.75399 0.0
C1884 C 0.15309 0.24937 0.75349 0.0
H1885 H 0.29825 0.22993 0.77196 0.0
H1886 H 0.24982 0.23963 0.77306 0.0
H1887 H 0.2323 0.28891 0.73952 0.0
H1888 H 0.06904 0.26804 0.73495 0.0
H1889 H 0.12365 0.2693 0.73418 0.0
C1890 C 0.54494 0.18403 0.59502 0.0
C1891 C 0.53147 0.18458 0.58275 0.0
C1892 C 0.57584 0.18411 0.59593 0.0
C1893 C 0.63824 0.17073 0.57669 0.0
H1894 H 0.70372 0.23529 0.60115 0.0
C1895 C 0.78339 0.22218 0.57236 0.0
C1896 C 0.80269 0.23016 0.58387 0.0
C1897 C 0.74855 0.21132 0.57288 0.0
C1898 C 0.68565 0.21666 0.59441 0.0
H1899 H 0.53896 0.18425 0.56185 0.0
H1900 H 0.59255 0.18439 0.56342 0.0
H1901 H 0.64577 0.22515 0.60111 0.0
H1902 H 0.80001 0.23113 0.60501 0.0
H1903 H 0.73937 0.21167 0.60593 0.0
H1904 H 0.67838 0.16274 0.56983 0.0
C1905 C 0.57937 0.18366 0.57236 0.0
C1906 C 0.65231 0.21083 0.5944 0.0
C1907 C 0.54868 0.18374 0.57145 0.0
C1908 C 0.78601 0.22549 0.59594 0.0
C1909 C 0.75122 0.21455 0.59646 0.0
C1910 C 0.67161 0.17652 0.57671 0.0
C1911 C 0.59375 0.18455 0.5846 0.0
C1912 C 0.62827 0.18816 0.58542 0.0
C1913 C 0.73215 0.20808 0.58494 0.0
C1914 C 0.69591 0.19991 0.58546 0.0
H1915 H 0.53225 0.18475 0.60389 0.0
H1916 H 0.58597 0.18438 0.60552 0.0
H1917 H 0.62027 0.15272 0.56976 0.0
H1918 H 0.79542 0.22558 0.5629 0.0
H1919 H 0.73483 0.20687 0.56379 0.0
C1920 C 0.92306 0.40067 0.56573 0.0
C1921 C 0.92341 0.38229 0.57671 0.0
C1922 C 0.92267 0.43116 0.56718 0.0
C1923 C 0.89954 0.47785 0.59096 0.0
H1924 H 0.94643 0.5525 0.56651 0.0
C1925 C 0.89633 0.60267 0.59696 0.0
C1926 C 0.89051 0.61657 0.58564 0.0
C1927 C 0.90429 0.57664 0.59611 0.0
C1928 C 0.93296 0.53181 0.57336 0.0
H1929 H 0.92442 0.38183 0.59784 0.0
H1930 H 0.92416 0.4354 0.60043 0.0
H1931 H 0.95337 0.50262 0.56483 0.0
H1932 H 0.8899 0.61476 0.56449 0.0
H1933 H 0.90368 0.56919 0.56298 0.0
H1934 H 0.87884 0.50679 0.59941 0.0
C1935 C 0.92372 0.42601 0.59066 0.0
C1936 C 0.93694 0.50314 0.57241 0.0
C1937 C 0.92412 0.39544 0.5892 0.0
C1938 C 0.8943 0.60473 0.57341 0.0
C1939 C 0.90228 0.57861 0.57255 0.0
C1940 C 0.89561 0.5065 0.59193 0.0
C1941 C 0.92262 0.44413 0.57966 0.0
C1942 C 0.92005 0.47561 0.58113 0.0
C1943 C 0.90665 0.5637 0.5839 0.0
C1944 C 0.91208 0.53381 0.5831 0.0
H1945 H 0.92238 0.39113 0.55597 0.0
H1946 H 0.92135 0.444 0.55848 0.0
H1947 H 0.88563 0.457 0.59771 0.0
H1948 H 0.8939 0.61129 0.60656 0.0
H1949 H 0.90819 0.56634 0.60505 0.0
C1950 C 0.54452 0.33223 0.60175 0.0
C1951 C 0.52417 0.31668 0.59072 0.0
C1952 C 0.56885 0.3669 0.60171 0.0
C1953 C 0.59787 0.4489 0.58401 0.0
H1954 H 0.68426 0.47311 0.60016 0.0
C1955 C 0.72073 0.57902 0.57554 0.0
C1956 C 0.74386 0.59371 0.58589 0.0
C1957 C 0.69188 0.54668 0.57682 0.0
C1958 C 0.66017 0.46702 0.59578 0.0
H1959 H 0.51284 0.32593 0.57112 0.0
H1960 H 0.55568 0.38652 0.57097 0.0
H1961 H 0.63803 0.41445 0.60088 0.0
H1962 H 0.75428 0.58642 0.60588 0.0
H1963 H 0.70367 0.53005 0.60823 0.0
H1964 H 0.62043 0.50157 0.57873 0.0
C1965 C 0.55254 0.3719 0.57974 0.0
C1966 C 0.63352 0.43321 0.59618 0.0
C1967 C 0.52796 0.33708 0.5798 0.0
C1968 C 0.7369 0.5758 0.59773 0.0
C1969 C 0.70804 0.54335 0.59902 0.0
C1970 C 0.62462 0.48278 0.58359 0.0
C1971 C 0.57382 0.38716 0.59062 0.0
C1972 C 0.60195 0.42357 0.5903 0.0
C1973 C 0.68541 0.52806 0.5885 0.0
C1974 C 0.65621 0.49231 0.58944 0.0
H1975 H 0.54211 0.31744 0.6104 0.0
H1976 H 0.58404 0.37776 0.6104 0.0
H1977 H 0.57387 0.44265 0.57951 0.0
H1978 H 0.72546 0.59211 0.56626 0.0
H1979 H 0.67536 0.53575 0.56846 0.0
loop_
_geom_bond_atom_site_label_1
_geom_bond_atom_site_label_2
_geom_bond_distance
_geom_bond_site_symmetry_2
_ccdc_geom_bond_type
O0 Tb1 2.506 . S
O0 C14 1.265 . S
Tb1 O0 2.506 . S
Tb1 O6 2.312 . S
Tb1 O10 2.271 . S
Tb1 O12 2.338 . S
Tb1 O19 2.441 . S
C2 O10 1.252 . S
C2 O11 1.253 1_545 S
O3 Tb4 2.271 . S
O3 C13 1.252 . S
Tb4 O3 2.271 . S
Tb4 O7 2.338 . S
Tb4 O11 2.312 . S
Tb4 O15 2.441 . S
Tb4 O16 2.506 . S
C5 O15 1.244 . S
C5 O16 1.265 . S
O6 Tb1 2.312 . S
O6 C13 1.253 1_545 S
O7 Tb4 2.338 . S
O7 C8 1.258 . S
C8 O7 1.258 . S
C8 O9 1.251 . S
O9 C8 1.251 . S
O10 Tb1 2.271 . S
O10 C2 1.252 . S
O11 C2 1.253 1_565 S
O11 Tb4 2.312 . S
O12 Tb1 2.338 . S
O12 C17 1.258 . S
C13 O3 1.252 . S
C13 O6 1.253 1_565 S
C14 O0 1.265 . S
C14 O19 1.244 . S
O15 Tb4 2.441 . S
O15 C5 1.244 . S
O16 Tb4 2.506 . S
O16 C5 1.265 . S
C17 O12 1.258 . S
C17 O18 1.251 . S
O18 C17 1.251 . S
O19 Tb1 2.441 . S
O19 C14 1.244 . S
O20 Tb21 2.506 . S
O20 C34 1.265 . S
Tb21 O20 2.506 . S
Tb21 O26 2.312 1_655 S
Tb21 O30 2.271 1_655 S
Tb21 O32 2.338 . S
Tb21 O39 2.441 . S
C22 O30 1.252 . S
C22 O31 1.253 . S
O23 Tb24 2.271 . S
O23 C33 1.252 . S
Tb24 O23 2.271 . S
Tb24 O27 2.338 . S
Tb24 O31 2.312 . S
Tb24 O35 2.441 . S
Tb24 O36 2.506 . S
C25 O35 1.244 . S
C25 O36 1.265 . S
O26 Tb21 2.312 1_455 S
O26 C33 1.253 . S
O27 Tb24 2.338 . S
O27 C28 1.258 . S
C28 O27 1.258 . S
C28 O29 1.251 . S
O29 C28 1.251 . S
O30 Tb21 2.271 1_455 S
O30 C22 1.252 . S
O31 C22 1.253 . S
O31 Tb24 2.312 . S
O32 Tb21 2.338 . S
O32 C37 1.258 . S
C33 O23 1.252 . S
C33 O26 1.253 . S
C34 O20 1.265 . S
C34 O39 1.244 . S
O35 Tb24 2.441 . S
O35 C25 1.244 . S
O36 Tb24 2.506 . S
O36 C25 1.265 . S
C37 O32 1.258 . S
C37 O38 1.251 . S
O38 C37 1.251 . S
O39 Tb21 2.441 . S
O39 C34 1.244 . S
O40 Tb41 2.506 . S
O40 C54 1.265 . S
Tb41 O40 2.506 . S
Tb41 O46 2.312 . S
Tb41 O50 2.271 . S
Tb41 O52 2.338 . S
Tb41 O59 2.441 . S
C42 O50 1.252 . S
C42 O51 1.253 . S
O43 Tb44 2.271 . S
O43 C53 1.252 . S
Tb44 O43 2.271 . S
Tb44 O47 2.338 . S
Tb44 O51 2.312 . S
Tb44 O55 2.441 . S
Tb44 O56 2.506 . S
C45 O55 1.244 . S
C45 O56 1.265 . S
O46 Tb41 2.312 . S
O46 C53 1.253 . S
O47 Tb44 2.338 . S
O47 C48 1.258 . S
C48 O47 1.258 . S
C48 O49 1.251 . S
O49 C48 1.251 . S
O50 Tb41 2.271 . S
O50 C42 1.252 . S
O51 C42 1.253 . S
O51 Tb44 2.312 . S
O52 Tb41 2.338 . S
O52 C57 1.258 . S
C53 O43 1.252 . S
C53 O46 1.253 . S
C54 O40 1.265 . S
C54 O59 1.244 . S
O55 Tb44 2.441 . S
O55 C45 1.244 . S
O56 Tb44 2.506 . S
O56 C45 1.265 . S
C57 O52 1.258 . S
C57 O58 1.251 . S
O58 C57 1.251 . S
O59 Tb41 2.441 . S
O59 C54 1.244 . S
O60 Tb61 2.506 . S
O60 C74 1.265 . S
Tb61 O60 2.506 . S
Tb61 O66 2.312 . S
Tb61 O70 2.271 . S
Tb61 O72 2.338 . S
Tb61 O79 2.441 . S
C62 O70 1.252 . S
C62 O71 1.253 1_455 S
O63 Tb64 2.271 . S
O63 C73 1.252 . S
Tb64 O63 2.271 . S
Tb64 O67 2.338 . S
Tb64 O71 2.312 . S
Tb64 O75 2.441 . S
Tb64 O76 2.506 . S
C65 O75 1.244 . S
C65 O76 1.265 . S
O66 Tb61 2.312 . S
O66 C73 1.253 1_455 S
O67 Tb64 2.338 . S
O67 C68 1.258 . S
C68 O67 1.258 . S
C68 O69 1.251 . S
O69 C68 1.251 . S
O70 Tb61 2.271 . S
O70 C62 1.252 . S
O71 C62 1.253 1_655 S
O71 Tb64 2.312 . S
O72 Tb61 2.338 . S
O72 C77 1.258 . S
C73 O63 1.252 . S
C73 O66 1.253 1_655 S
C74 O60 1.265 . S
C74 O79 1.244 . S
O75 Tb64 2.441 . S
O75 C65 1.244 . S
O76 Tb64 2.506 . S
O76 C65 1.265 . S
C77 O72 1.258 . S
C77 O78 1.251 . S
O78 C77 1.251 . S
O79 Tb61 2.441 . S
O79 C74 1.244 . S
O80 Tb81 2.506 . S
O80 C94 1.265 . S
Tb81 O80 2.506 . S
Tb81 O86 2.312 . S
Tb81 O90 2.271 . S
Tb81 O92 2.338 . S
Tb81 O99 2.441 . S
C82 O90 1.252 . S
C82 O91 1.253 . S
O83 Tb84 2.271 . S
O83 C93 1.252 . S
Tb84 O83 2.271 . S
Tb84 O87 2.338 . S
Tb84 O91 2.312 . S
Tb84 O95 2.441 . S
Tb84 O96 2.506 . S
C85 O95 1.244 . S
C85 O96 1.265 . S
O86 Tb81 2.312 . S
O86 C93 1.253 . S
O87 Tb84 2.338 . S
O87 C88 1.258 . S
C88 O87 1.258 . S
C88 O89 1.251 . S
O89 C88 1.251 . S
O90 Tb81 2.271 . S
O90 C82 1.252 . S
O91 C82 1.253 . S
O91 Tb84 2.312 . S
O92 Tb81 2.338 . S
O92 C97 1.258 . S
C93 O83 1.252 . S
C93 O86 1.253 . S
C94 O80 1.265 . S
C94 O99 1.244 . S
O95 Tb84 2.441 . S
O95 C85 1.244 . S
O96 Tb84 2.506 . S
O96 C85 1.265 . S
C97 O92 1.258 . S
C97 O98 1.251 . S
O98 C97 1.251 . S
O99 Tb81 2.441 . S
O99 C94 1.244 . S
O100 Tb101 2.506 . S
O100 C114 1.265 . S
Tb101 O100 2.506 . S
Tb101 O106 2.312 1_565 S
Tb101 O110 2.271 1_565 S
Tb101 O112 2.338 . S
Tb101 O119 2.441 . S
C102 O110 1.252 . S
C102 O111 1.253 . S
O103 Tb104 2.271 . S
O103 C113 1.252 . S
Tb104 O103 2.271 . S
Tb104 O107 2.338 . S
Tb104 O111 2.312 . S
Tb104 O115 2.441 . S
Tb104 O116 2.506 . S
C105 O115 1.244 . S
C105 O116 1.265 . S
O106 Tb101 2.312 1_545 S
O106 C113 1.253 . S
O107 Tb104 2.338 . S
O107 C108 1.258 . S
C108 O107 1.258 . S
C108 O109 1.251 . S
O109 C108 1.251 . S
O110 Tb101 2.271 1_545 S
O110 C102 1.252 . S
O111 C102 1.253 . S
O111 Tb104 2.312 . S
O112 Tb101 2.338 . S
O112 C117 1.258 . S
C113 O103 1.252 . S
C113 O106 1.253 . S
C114 O100 1.265 . S
C114 O119 1.244 . S
O115 Tb104 2.441 . S
O115 C105 1.244 . S
O116 Tb104 2.506 . S
O116 C105 1.265 . S
C117 O112 1.258 . S
C117 O118 1.251 . S
O118 C117 1.251 . S
O119 Tb101 2.441 . S
O119 C114 1.244 . S
O120 Tb121 2.506 . S
O120 C134 1.265 . S
Tb121 O120 2.506 . S
Tb121 O126 2.312 . S
Tb121 O130 2.271 . S
Tb121 O132 2.338 . S
Tb121 O139 2.441 . S
C122 O130 1.252 . S
C122 O131 1.253 . S
O123 Tb124 2.271 . S
O123 C133 1.252 . S
Tb124 O123 2.271 . S
Tb124 O127 2.338 . S
Tb124 O131 2.312 . S
Tb124 O135 2.441 . S
Tb124 O136 2.506 . S
C125 O135 1.244 . S
C125 O136 1.265 . S
O126 Tb121 2.312 . S
O126 C133 1.253 . S
O127 Tb124 2.338 . S
O127 C128 1.258 . S
C128 O127 1.258 . S
C128 O129 1.251 . S
O129 C128 1.251 . S
O130 Tb121 2.271 . S
O130 C122 1.252 . S
O131 C122 1.253 . S
O131 Tb124 2.312 . S
O132 Tb121 2.338 . S
O132 C137 1.258 . S
C133 O123 1.252 . S
C133 O126 1.253 . S
C134 O120 1.265 . S
C134 O139 1.244 . S
O135 Tb124 2.441 . S
O135 C125 1.244 . S
O136 Tb124 2.506 . S
O136 C125 1.265 . S
C137 O132 1.258 . S
C137 O138 1.251 . S
O138 C137 1.251 . S
O139 Tb121 2.441 . S
O139 C134 1.244 . S
O140 Tb141 2.506 . S
O140 C154 1.265 . S
Tb141 O140 2.506 . S
Tb141 O146 2.312 . S
Tb141 O150 2.271 . S
Tb141 O152 2.338 . S
Tb141 O159 2.441 . S
C142 O150 1.252 . S
C142 O151 1.253 . S
O143 Tb144 2.271 . S
O143 C153 1.252 . S
Tb144 O143 2.271 . S
Tb144 O147 2.338 . S
Tb144 O151 2.312 . S
Tb144 O155 2.441 . S
Tb144 O156 2.506 . S
C145 O155 1.244 . S
C145 O156 1.265 . S
O146 Tb141 2.312 . S
O146 C153 1.253 . S
O147 Tb144 2.338 . S
O147 C148 1.258 . S
C148 O147 1.258 . S
C148 O149 1.251 . S
O149 C148 1.251 . S
O150 Tb141 2.271 . S
O150 C142 1.252 . S
O151 C142 1.253 . S
O151 Tb144 2.312 . S
O152 Tb141 2.338 . S
O152 C157 1.258 . S
C153 O143 1.252 . S
C153 O146 1.253 . S
C154 O140 1.265 . S
C154 O159 1.244 . S
O155 Tb144 2.441 . S
O155 C145 1.244 . S
O156 Tb144 2.506 . S
O156 C145 1.265 . S
C157 O152 1.258 . S
C157 O158 1.251 . S
O158 C157 1.251 . S
O159 Tb141 2.441 . S
O159 C154 1.244 . S
O160 Tb161 2.506 . S
O160 C174 1.265 . S
Tb161 O160 2.506 . S
Tb161 O166 2.312 . S
Tb161 O170 2.271 . S
Tb161 O172 2.338 . S
Tb161 O179 2.441 . S
C162 O170 1.252 . S
C162 O171 1.253 . S
O163 Tb164 2.271 . S
O163 C173 1.252 . S
Tb164 O163 2.271 . S
Tb164 O167 2.338 . S
Tb164 O171 2.312 . S
Tb164 O175 2.441 . S
Tb164 O176 2.506 . S
C165 O175 1.244 . S
C165 O176 1.265 . S
O166 Tb161 2.312 . S
O166 C173 1.253 . S
O167 Tb164 2.338 . S
O167 C168 1.258 . S
C168 O167 1.258 . S
C168 O169 1.251 . S
O169 C168 1.251 . S
O170 Tb161 2.271 . S
O170 C162 1.252 . S
O171 C162 1.253 . S
O171 Tb164 2.312 . S
O172 Tb161 2.338 . S
O172 C177 1.258 . S
C173 O163 1.252 . S
C173 O166 1.253 . S
C174 O160 1.265 . S
C174 O179 1.244 . S
O175 Tb164 2.441 . S
O175 C165 1.244 . S
O176 Tb164 2.506 . S
O176 C165 1.265 . S
C177 O172 1.258 . S
C177 O178 1.251 . S
O178 C177 1.251 . S
O179 Tb161 2.441 . S
O179 C174 1.244 . S
O180 Tb181 2.506 . S
O180 C194 1.265 . S
Tb181 O180 2.506 . S
Tb181 O186 2.312 . S
Tb181 O190 2.271 . S
Tb181 O192 2.338 . S
Tb181 O199 2.441 . S
C182 O190 1.252 . S
C182 O191 1.253 . S
O183 Tb184 2.271 . S
O183 C193 1.252 . S
Tb184 O183 2.271 . S
Tb184 O187 2.338 . S
Tb184 O191 2.312 . S
Tb184 O195 2.441 . S
Tb184 O196 2.506 . S
C185 O195 1.244 . S
C185 O196 1.265 . S
O186 Tb181 2.312 . S
O186 C193 1.253 . S
O187 Tb184 2.338 . S
O187 C188 1.258 . S
C188 O187 1.258 . S
C188 O189 1.251 . S
O189 C188 1.251 . S
O190 Tb181 2.271 . S
O190 C182 1.252 . S
O191 C182 1.253 . S
O191 Tb184 2.312 . S
O192 Tb181 2.338 . S
O192 C197 1.258 . S
C193 O183 1.252 . S
C193 O186 1.253 . S
C194 O180 1.265 . S
C194 O199 1.244 . S
O195 Tb184 2.441 . S
O195 C185 1.244 . S
O196 Tb184 2.506 . S
O196 C185 1.265 . S
C197 O192 1.258 . S
C197 O198 1.251 . S
O198 C197 1.251 . S
O199 Tb181 2.441 . S
O199 C194 1.244 . S
O200 Tb201 2.506 . S
O200 C214 1.265 . S
Tb201 O200 2.506 . S
Tb201 O206 2.312 . S
Tb201 O210 2.271 . S
Tb201 O212 2.338 . S
Tb201 O219 2.441 . S
C202 O210 1.252 . S
C202 O211 1.253 . S
O203 Tb204 2.271 . S
O203 C213 1.252 . S
Tb204 O203 2.271 . S
Tb204 O207 2.338 . S
Tb204 O211 2.312 . S
Tb204 O215 2.441 . S
Tb204 O216 2.506 . S
C205 O215 1.244 . S
C205 O216 1.265 . S
O206 Tb201 2.312 . S
O206 C213 1.253 . S
O207 Tb204 2.338 . S
O207 C208 1.258 . S
C208 O207 1.258 . S
C208 O209 1.251 . S
O209 C208 1.251 . S
O210 Tb201 2.271 . S
O210 C202 1.252 . S
O211 C202 1.253 . S
O211 Tb204 2.312 . S
O212 Tb201 2.338 . S
O212 C217 1.258 . S
C213 O203 1.252 . S
C213 O206 1.253 . S
C214 O200 1.265 . S
C214 O219 1.244 . S
O215 Tb204 2.441 . S
O215 C205 1.244 . S
O216 Tb204 2.506 . S
O216 C205 1.265 . S
C217 O212 1.258 . S
C217 O218 1.251 . S
O218 C217 1.251 . S
O219 Tb201 2.441 . S
O219 C214 1.244 . S
O220 Tb221 2.506 . S
O220 C234 1.265 . S
Tb221 O220 2.506 . S
Tb221 O226 2.312 . S
Tb221 O230 2.271 . S
Tb221 O232 2.338 . S
Tb221 O239 2.441 . S
C222 O230 1.252 . S
C222 O231 1.253 . S
O223 Tb224 2.271 . S
O223 C233 1.252 . S
Tb224 O223 2.271 . S
Tb224 O227 2.338 . S
Tb224 O231 2.312 . S
Tb224 O235 2.441 . S
Tb224 O236 2.506 . S
C225 O235 1.244 . S
C225 O236 1.265 . S
O226 Tb221 2.312 . S
O226 C233 1.253 . S
O227 Tb224 2.338 . S
O227 C228 1.258 . S
C228 O227 1.258 . S
C228 O229 1.251 . S
O229 C228 1.251 . S
O230 Tb221 2.271 . S
O230 C222 1.252 . S
O231 C222 1.253 . S
O231 Tb224 2.312 . S
O232 Tb221 2.338 . S
O232 C237 1.258 . S
C233 O223 1.252 . S
C233 O226 1.253 . S
C234 O220 1.265 . S
C234 O239 1.244 . S
O235 Tb224 2.441 . S
O235 C225 1.244 . S
O236 Tb224 2.506 . S
O236 C225 1.265 . S
C237 O232 1.258 . S
C237 O238 1.251 . S
O238 C237 1.251 . S
O239 Tb221 2.441 . S
O239 C234 1.244 . S
O240 Tb241 2.506 . S
O240 C254 1.265 . S
Tb241 O240 2.506 . S
Tb241 O246 2.312 . S
Tb241 O250 2.271 . S
Tb241 O252 2.338 . S
Tb241 O259 2.441 . S
C242 O250 1.252 . S
C242 O251 1.253 . S
O243 Tb244 2.271 . S
O243 C253 1.252 . S
Tb244 O243 2.271 . S
Tb244 O247 2.338 . S
Tb244 O251 2.312 . S
Tb244 O255 2.441 . S
Tb244 O256 2.506 . S
C245 O255 1.244 . S
C245 O256 1.265 . S
O246 Tb241 2.312 . S
O246 C253 1.253 . S
O247 Tb244 2.338 . S
O247 C248 1.258 . S
C248 O247 1.258 . S
C248 O249 1.251 . S
O249 C248 1.251 . S
O250 Tb241 2.271 . S
O250 C242 1.252 . S
O251 C242 1.253 . S
O251 Tb244 2.312 . S
O252 Tb241 2.338 . S
O252 C257 1.258 . S
C253 O243 1.252 . S
C253 O246 1.253 . S
C254 O240 1.265 . S
C254 O259 1.244 . S
O255 Tb244 2.441 . S
O255 C245 1.244 . S
O256 Tb244 2.506 . S
O256 C245 1.265 . S
C257 O252 1.258 . S
C257 O258 1.251 . S
O258 C257 1.251 . S
O259 Tb241 2.441 . S
O259 C254 1.244 . S
O260 Tb261 2.506 . S
O260 C274 1.265 . S
Tb261 O260 2.506 . S
Tb261 O266 2.312 . S
Tb261 O270 2.271 . S
Tb261 O272 2.338 . S
Tb261 O279 2.441 . S
C262 O270 1.252 . S
C262 O271 1.253 . S
O263 Tb264 2.271 . S
O263 C273 1.252 . S
Tb264 O263 2.271 . S
Tb264 O267 2.338 . S
Tb264 O271 2.312 . S
Tb264 O275 2.441 . S
Tb264 O276 2.506 . S
C265 O275 1.244 . S
C265 O276 1.265 . S
O266 Tb261 2.312 . S
O266 C273 1.253 . S
O267 Tb264 2.338 . S
O267 C268 1.258 . S
C268 O267 1.258 . S
C268 O269 1.251 . S
O269 C268 1.251 . S
O270 Tb261 2.271 . S
O270 C262 1.252 . S
O271 C262 1.253 . S
O271 Tb264 2.312 . S
O272 Tb261 2.338 . S
O272 C277 1.258 . S
C273 O263 1.252 . S
C273 O266 1.253 . S
C274 O260 1.265 . S
C274 O279 1.244 . S
O275 Tb264 2.441 . S
O275 C265 1.244 . S
O276 Tb264 2.506 . S
O276 C265 1.265 . S
C277 O272 1.258 . S
C277 O278 1.251 . S
O278 C277 1.251 . S
O279 Tb261 2.441 . S
O279 C274 1.244 . S
O280 Tb281 2.506 . S
O280 C294 1.265 . S
Tb281 O280 2.506 . S
Tb281 O286 2.312 . S
Tb281 O290 2.271 . S
Tb281 O292 2.338 . S
Tb281 O299 2.441 . S
C282 O290 1.252 . S
C282 O291 1.253 . S
O283 Tb284 2.271 . S
O283 C293 1.252 . S
Tb284 O283 2.271 . S
Tb284 O287 2.338 . S
Tb284 O291 2.312 . S
Tb284 O295 2.441 . S
Tb284 O296 2.506 . S
C285 O295 1.244 . S
C285 O296 1.265 . S
O286 Tb281 2.312 . S
O286 C293 1.253 . S
O287 Tb284 2.338 . S
O287 C288 1.258 . S
C288 O287 1.258 . S
C288 O289 1.251 . S
O289 C288 1.251 . S
O290 Tb281 2.271 . S
O290 C282 1.252 . S
O291 C282 1.253 . S
O291 Tb284 2.312 . S
O292 Tb281 2.338 . S
O292 C297 1.258 . S
C293 O283 1.252 . S
C293 O286 1.253 . S
C294 O280 1.265 . S
C294 O299 1.244 . S
O295 Tb284 2.441 . S
O295 C285 1.244 . S
O296 Tb284 2.506 . S
O296 C285 1.265 . S
C297 O292 1.258 . S
C297 O298 1.251 . S
O298 C297 1.251 . S
O299 Tb281 2.441 . S
O299 C294 1.244 . S
O300 Tb301 2.506 . S
O300 C314 1.265 . S
Tb301 O300 2.506 . S
Tb301 O306 2.312 . S
Tb301 O310 2.271 . S
Tb301 O312 2.338 . S
Tb301 O319 2.441 . S
C302 O310 1.252 . S
C302 O311 1.253 . S
O303 Tb304 2.271 . S
O303 C313 1.252 . S
Tb304 O303 2.271 . S
Tb304 O307 2.338 . S
Tb304 O311 2.312 . S
Tb304 O315 2.441 . S
Tb304 O316 2.506 . S
C305 O315 1.244 . S
C305 O316 1.265 . S
O306 Tb301 2.312 . S
O306 C313 1.253 . S
O307 Tb304 2.338 . S
O307 C308 1.258 . S
C308 O307 1.258 . S
C308 O309 1.251 . S
O309 C308 1.251 . S
O310 Tb301 2.271 . S
O310 C302 1.252 . S
O311 C302 1.253 . S
O311 Tb304 2.312 . S
O312 Tb301 2.338 . S
O312 C317 1.258 . S
C313 O303 1.252 . S
C313 O306 1.253 . S
C314 O300 1.265 . S
C314 O319 1.244 . S
O315 Tb304 2.441 . S
O315 C305 1.244 . S
O316 Tb304 2.506 . S
O316 C305 1.265 . S
C317 O312 1.258 . S
C317 O318 1.251 . S
O318 C317 1.251 . S
O319 Tb301 2.441 . S
O319 C314 1.244 . S
O320 Tb321 2.506 . S
O320 C334 1.265 . S
Tb321 O320 2.506 . S
Tb321 O326 2.312 . S
Tb321 O330 2.271 . S
Tb321 O332 2.338 . S
Tb321 O339 2.441 . S
C322 O330 1.252 . S
C322 O331 1.253 . S
O323 Tb324 2.271 . S
O323 C333 1.252 . S
Tb324 O323 2.271 . S
Tb324 O327 2.338 . S
Tb324 O331 2.312 . S
Tb324 O335 2.441 . S
Tb324 O336 2.506 . S
C325 O335 1.244 . S
C325 O336 1.265 . S
O326 Tb321 2.312 . S
O326 C333 1.253 . S
O327 Tb324 2.338 . S
O327 C328 1.258 . S
C328 O327 1.258 . S
C328 O329 1.251 . S
O329 C328 1.251 . S
O330 Tb321 2.271 . S
O330 C322 1.252 . S
O331 C322 1.253 . S
O331 Tb324 2.312 . S
O332 Tb321 2.338 . S
O332 C337 1.258 . S
C333 O323 1.252 . S
C333 O326 1.253 . S
C334 O320 1.265 . S
C334 O339 1.244 . S
O335 Tb324 2.441 . S
O335 C325 1.244 . S
O336 Tb324 2.506 . S
O336 C325 1.265 . S
C337 O332 1.258 . S
C337 O338 1.251 . S
O338 C337 1.251 . S
O339 Tb321 2.441 . S
O339 C334 1.244 . S
O340 Tb341 2.506 . S
O340 C354 1.265 . S
Tb341 O340 2.506 . S
Tb341 O346 2.312 . S
Tb341 O350 2.271 . S
Tb341 O352 2.338 . S
Tb341 O359 2.441 . S
C342 O350 1.252 . S
C342 O351 1.253 . S
O343 Tb344 2.271 . S
O343 C353 1.252 . S
Tb344 O343 2.271 . S
Tb344 O347 2.338 . S
Tb344 O351 2.312 . S
Tb344 O355 2.441 . S
Tb344 O356 2.506 . S
C345 O355 1.244 . S
C345 O356 1.265 . S
O346 Tb341 2.312 . S
O346 C353 1.253 . S
O347 Tb344 2.338 . S
O347 C348 1.258 . S
C348 O347 1.258 . S
C348 O349 1.251 . S
O349 C348 1.251 . S
O350 Tb341 2.271 . S
O350 C342 1.252 . S
O351 C342 1.253 . S
O351 Tb344 2.312 . S
O352 Tb341 2.338 . S
O352 C357 1.258 . S
C353 O343 1.252 . S
C353 O346 1.253 . S
C354 O340 1.265 . S
C354 O359 1.244 . S
O355 Tb344 2.441 . S
O355 C345 1.244 . S
O356 Tb344 2.506 . S
O356 C345 1.265 . S
C357 O352 1.258 . S
C357 O358 1.251 . S
O358 C357 1.251 . S
O359 Tb341 2.441 . S
O359 C354 1.244 . S
C360 C361 1.349 . S
C360 C362 1.327 . S
C360 H385 0.950 . S
C361 C360 1.349 . S
C361 C377 1.349 . S
C362 C360 1.327 . S
C362 C381 1.429 . S
C362 H386 0.950 . S
C363 C380 1.574 . S
C363 C382 1.368 . S
C363 H387 0.949 . S
H364 C368 0.949 . S
C365 C366 1.349 . S
C365 C367 1.327 . S
C365 H388 0.950 . S
C366 C365 1.349 . S
C366 C378 1.349 . S
C367 C365 1.327 . S
C367 C383 1.429 . S
C367 H389 0.950 . S
C368 H364 0.949 . S
C368 C376 1.574 . S
C368 C384 1.368 . S
H369 C377 0.950 . S
H370 C375 0.950 . S
H371 C376 0.949 . S
H372 C378 0.950 . S
H373 C379 0.950 . S
H374 C380 0.949 . S
C375 H370 0.950 . S
C375 C377 1.327 . S
C375 C381 1.429 . S
C376 C368 1.574 . S
C376 H371 0.949 . S
C376 C382 1.368 . S
C377 C361 1.349 . S
C377 H369 0.950 . S
C377 C375 1.327 . S
C378 C366 1.349 . S
C378 H372 0.950 . S
C378 C379 1.327 . S
C379 H373 0.950 . S
C379 C378 1.327 . S
C379 C383 1.429 . S
C380 C363 1.574 . S
C380 H374 0.949 . S
C380 C384 1.368 . S
C381 C362 1.429 . S
C381 C375 1.429 . S
C381 C382 1.523 . S
C382 C363 1.368 . S
C382 C376 1.368 . S
C382 C381 1.523 . S
C383 C367 1.429 . S
C383 C379 1.429 . S
C383 C384 1.523 . S
C384 C368 1.368 . S
C384 C380 1.368 . S
C384 C383 1.523 . S
H385 C360 0.950 . S
H386 C362 0.950 . S
H387 C363 0.949 . S
H388 C365 0.950 . S
H389 C367 0.950 . S
C390 C391 1.349 . S
C390 C392 1.327 . S
C390 H415 0.950 . S
C391 C390 1.349 . S
C391 C407 1.349 . S
C392 C390 1.327 . S
C392 C411 1.429 . S
C392 H416 0.950 . S
C393 C410 1.574 . S
C393 C412 1.368 . S
C393 H417 0.949 . S
H394 C398 0.949 . S
C395 C396 1.349 . S
C395 C397 1.327 . S
C395 H418 0.950 . S
C396 C395 1.349 . S
C396 C408 1.349 . S
C397 C395 1.327 . S
C397 C413 1.429 . S
C397 H419 0.950 . S
C398 H394 0.949 . S
C398 C406 1.574 . S
C398 C414 1.368 . S
H399 C407 0.950 . S
H400 C405 0.950 . S
H401 C406 0.949 . S
H402 C408 0.950 . S
H403 C409 0.950 . S
H404 C410 0.949 . S
C405 H400 0.950 . S
C405 C407 1.327 . S
C405 C411 1.429 . S
C406 C398 1.574 . S
C406 H401 0.949 . S
C406 C412 1.368 . S
C407 C391 1.349 . S
C407 H399 0.950 . S
C407 C405 1.327 . S
C408 C396 1.349 . S
C408 H402 0.950 . S
C408 C409 1.327 . S
C409 H403 0.950 . S
C409 C408 1.327 . S
C409 C413 1.429 . S
C410 C393 1.574 . S
C410 H404 0.949 . S
C410 C414 1.368 . S
C411 C392 1.429 . S
C411 C405 1.429 . S
C411 C412 1.523 . S
C412 C393 1.368 . S
C412 C406 1.368 . S
C412 C411 1.523 . S
C413 C397 1.429 . S
C413 C409 1.429 . S
C413 C414 1.523 . S
C414 C398 1.368 . S
C414 C410 1.368 . S
C414 C413 1.523 . S
H415 C390 0.950 . S
H416 C392 0.950 . S
H417 C393 0.949 . S
H418 C395 0.950 . S
H419 C397 0.950 . S
C420 C421 1.349 . S
C420 C422 1.327 . S
C420 H445 0.950 . S
C421 C420 1.349 . S
C421 C437 1.349 . S
C422 C420 1.327 . S
C422 C441 1.429 . S
C422 H446 0.950 . S
C423 C440 1.574 . S
C423 C442 1.368 . S
C423 H447 0.949 . S
H424 C428 0.949 . S
C425 C426 1.349 . S
C425 C427 1.327 . S
C425 H448 0.950 . S
C426 C425 1.349 . S
C426 C438 1.349 . S
C427 C425 1.327 . S
C427 C443 1.429 . S
C427 H449 0.950 . S
C428 H424 0.949 . S
C428 C436 1.574 . S
C428 C444 1.368 . S
H429 C437 0.950 . S
H430 C435 0.950 . S
H431 C436 0.949 . S
H432 C438 0.950 . S
H433 C439 0.950 . S
H434 C440 0.949 . S
C435 H430 0.950 . S
C435 C437 1.327 . S
C435 C441 1.429 . S
C436 C428 1.574 . S
C436 H431 0.949 . S
C436 C442 1.368 . S
C437 C421 1.349 . S
C437 H429 0.950 . S
C437 C435 1.327 . S
C438 C426 1.349 . S
C438 H432 0.950 . S
C438 C439 1.327 . S
C439 H433 0.950 . S
C439 C438 1.327 . S
C439 C443 1.429 . S
C440 C423 1.574 . S
C440 H434 0.949 . S
C440 C444 1.368 . S
C441 C422 1.429 . S
C441 C435 1.429 . S
C441 C442 1.523 . S
C442 C423 1.368 . S
C442 C436 1.368 . S
C442 C441 1.523 . S
C443 C427 1.429 . S
C443 C439 1.429 . S
C443 C444 1.523 . S
C444 C428 1.368 . S
C444 C440 1.368 . S
C444 C443 1.523 . S
H445 C420 0.950 . S
H446 C422 0.950 . S
H447 C423 0.949 . S
H448 C425 0.950 . S
H449 C427 0.950 . S
C450 C451 1.349 . S
C450 C452 1.327 . S
C450 H475 0.950 . S
C451 C450 1.349 . S
C451 C467 1.349 . S
C452 C450 1.327 . S
C452 C471 1.429 . S
C452 H476 0.950 . S
C453 C470 1.574 . S
C453 C472 1.368 . S
C453 H477 0.949 . S
H454 C458 0.949 . S
C455 C456 1.349 . S
C455 C457 1.327 . S
C455 H478 0.950 . S
C456 C455 1.349 . S
C456 C468 1.349 . S
C457 C455 1.327 . S
C457 C473 1.429 . S
C457 H479 0.950 . S
C458 H454 0.949 . S
C458 C466 1.574 . S
C458 C474 1.368 . S
H459 C467 0.950 . S
H460 C465 0.950 . S
H461 C466 0.949 . S
H462 C468 0.950 . S
H463 C469 0.950 . S
H464 C470 0.949 . S
C465 H460 0.950 . S
C465 C467 1.327 . S
C465 C471 1.429 . S
C466 C458 1.574 . S
C466 H461 0.949 . S
C466 C472 1.368 . S
C467 C451 1.349 . S
C467 H459 0.950 . S
C467 C465 1.327 . S
C468 C456 1.349 . S
C468 H462 0.950 . S
C468 C469 1.327 . S
C469 H463 0.950 . S
C469 C468 1.327 . S
C469 C473 1.429 . S
C470 C453 1.574 . S
C470 H464 0.949 . S
C470 C474 1.368 . S
C471 C452 1.429 . S
C471 C465 1.429 . S
C471 C472 1.523 . S
C472 C453 1.368 . S
C472 C466 1.368 . S
C472 C471 1.523 . S
C473 C457 1.429 . S
C473 C469 1.429 . S
C473 C474 1.523 . S
C474 C458 1.368 . S
C474 C470 1.368 . S
C474 C473 1.523 . S
H475 C450 0.950 . S
H476 C452 0.950 . S
H477 C453 0.949 . S
H478 C455 0.950 . S
H479 C457 0.950 . S
C480 C481 1.349 . S
C480 C482 1.327 . S
C480 H505 0.950 . S
C481 C480 1.349 . S
C481 C497 1.349 . S
C482 C480 1.327 . S
C482 C501 1.429 . S
C482 H506 0.950 . S
C483 C500 1.574 . S
C483 C502 1.368 . S
C483 H507 0.949 . S
H484 C488 0.949 . S
C485 C486 1.349 . S
C485 C487 1.327 . S
C485 H508 0.950 . S
C486 C485 1.349 . S
C486 C498 1.349 . S
C487 C485 1.327 . S
C487 C503 1.429 . S
C487 H509 0.950 . S
C488 H484 0.949 . S
C488 C496 1.574 . S
C488 C504 1.368 . S
H489 C497 0.950 . S
H490 C495 0.950 . S
H491 C496 0.949 . S
H492 C498 0.950 . S
H493 C499 0.950 . S
H494 C500 0.949 . S
C495 H490 0.950 . S
C495 C497 1.327 . S
C495 C501 1.429 . S
C496 C488 1.574 . S
C496 H491 0.949 . S
C496 C502 1.368 . S
C497 C481 1.349 . S
C497 H489 0.950 . S
C497 C495 1.327 . S
C498 C486 1.349 . S
C498 H492 0.950 . S
C498 C499 1.327 . S
C499 H493 0.950 . S
C499 C498 1.327 . S
C499 C503 1.429 . S
C500 C483 1.574 . S
C500 H494 0.949 . S
C500 C504 1.368 . S
C501 C482 1.429 . S
C501 C495 1.429 . S
C501 C502 1.523 . S
C502 C483 1.368 . S
C502 C496 1.368 . S
C502 C501 1.523 . S
C503 C487 1.429 . S
C503 C499 1.429 . S
C503 C504 1.523 . S
C504 C488 1.368 . S
C504 C500 1.368 . S
C504 C503 1.523 . S
H505 C480 0.950 . S
H506 C482 0.950 . S
H507 C483 0.949 . S
H508 C485 0.950 . S
H509 C487 0.950 . S
C510 C511 1.349 . S
C510 C512 1.327 . S
C510 H535 0.950 . S
C511 C510 1.349 . S
C511 C527 1.349 . S
C512 C510 1.327 . S
C512 C531 1.429 . S
C512 H536 0.950 . S
C513 C530 1.574 . S
C513 C532 1.368 . S
C513 H537 0.949 . S
H514 C518 0.949 . S
C515 C516 1.349 . S
C515 C517 1.327 . S
C515 H538 0.950 . S
C516 C515 1.349 . S
C516 C528 1.349 . S
C517 C515 1.327 . S
C517 C533 1.429 . S
C517 H539 0.950 . S
C518 H514 0.949 . S
C518 C526 1.574 . S
C518 C534 1.368 . S
H519 C527 0.950 . S
H520 C525 0.950 . S
H521 C526 0.949 . S
H522 C528 0.950 . S
H523 C529 0.950 . S
H524 C530 0.949 . S
C525 H520 0.950 . S
C525 C527 1.327 . S
C525 C531 1.429 . S
C526 C518 1.574 . S
C526 H521 0.949 . S
C526 C532 1.368 . S
C527 C511 1.349 . S
C527 H519 0.950 . S
C527 C525 1.327 . S
C528 C516 1.349 . S
C528 H522 0.950 . S
C528 C529 1.327 . S
C529 H523 0.950 . S
C529 C528 1.327 . S
C529 C533 1.429 . S
C530 C513 1.574 . S
C530 H524 0.949 . S
C530 C534 1.368 . S
C531 C512 1.429 . S
C531 C525 1.429 . S
C531 C532 1.523 . S
C532 C513 1.368 . S
C532 C526 1.368 . S
C532 C531 1.523 . S
C533 C517 1.429 . S
C533 C529 1.429 . S
C533 C534 1.523 . S
C534 C518 1.368 . S
C534 C530 1.368 . S
C534 C533 1.523 . S
H535 C510 0.950 . S
H536 C512 0.950 . S
H537 C513 0.949 . S
H538 C515 0.950 . S
H539 C517 0.950 . S
C540 C541 1.349 . S
C540 C542 1.327 . S
C540 H565 0.950 . S
C541 C540 1.349 . S
C541 C557 1.350 . S
C542 C540 1.327 . S
C542 C561 1.429 . S
C542 H566 0.950 . S
C543 C560 1.574 . S
C543 C562 1.368 . S
C543 H567 0.949 . S
H544 C548 0.949 . S
C545 C546 1.349 . S
C545 C547 1.327 . S
C545 H568 0.950 . S
C546 C545 1.349 . S
C546 C558 1.349 . S
C547 C545 1.327 . S
C547 C563 1.429 . S
C547 H569 0.950 . S
C548 H544 0.949 . S
C548 C556 1.574 . S
C548 C564 1.368 . S
H549 C557 0.948 1_565 S
H550 C555 0.950 . S
H551 C556 0.949 . S
H552 C558 0.950 . S
H553 C559 0.950 . S
H554 C560 0.949 . S
C555 H550 0.950 . S
C555 C557 1.327 . S
C555 C561 1.429 . S
C556 C548 1.574 . S
C556 H551 0.949 . S
C556 C562 1.368 . S
C557 C541 1.350 . S
C557 H549 0.948 1_545 S
C557 C555 1.327 . S
C558 C546 1.349 . S
C558 H552 0.950 . S
C558 C559 1.327 . S
C559 H553 0.950 . S
C559 C558 1.327 . S
C559 C563 1.429 . S
C560 C543 1.574 . S
C560 H554 0.949 . S
C560 C564 1.368 . S
C561 C542 1.429 . S
C561 C555 1.429 . S
C561 C562 1.523 . S
C562 C543 1.368 . S
C562 C556 1.368 . S
C562 C561 1.523 . S
C563 C547 1.429 . S
C563 C559 1.429 . S
C563 C564 1.523 . S
C564 C548 1.368 . S
C564 C560 1.368 . S
C564 C563 1.523 . S
H565 C540 0.950 . S
H566 C542 0.950 . S
H567 C543 0.949 . S
H568 C545 0.950 . S
H569 C547 0.950 . S
C570 C571 1.349 . S
C570 C572 1.327 . S
C570 H595 0.950 . S
C571 C570 1.349 . S
C571 C587 1.349 . S
C572 C570 1.327 . S
C572 C591 1.463 . S
C572 H596 0.950 . S
C573 C590 1.574 . S
C573 C592 1.368 . S
C573 H597 0.949 . S
H574 C578 0.949 . S
C575 C576 1.349 . S
C575 C577 1.327 1_565 S
C575 H598 0.950 . S
C576 C575 1.349 . S
C576 C588 1.349 . S
C577 C575 1.327 1_545 S
C577 C593 1.429 . S
C577 H599 0.950 . S
C578 H574 0.949 . S
C578 C586 1.574 . S
C578 C594 1.368 . S
H579 C587 0.950 . S
H580 C585 0.950 1_655 S
H581 C586 0.949 . S
H582 C588 0.950 . S
H583 C589 0.950 . S
H584 C590 0.949 . S
C585 H580 0.950 1_455 S
C585 C587 1.327 . S
C585 C591 1.415 . S
C586 C578 1.574 . S
C586 H581 0.949 . S
C586 C592 1.368 . S
C587 C571 1.349 . S
C587 H579 0.950 . S
C587 C585 1.327 . S
C588 C576 1.349 . S
C588 H582 0.950 . S
C588 C589 1.327 . S
C589 H583 0.950 . S
C589 C588 1.327 . S
C589 C593 1.429 1_565 S
C590 C573 1.574 . S
C590 H584 0.949 . S
C590 C594 1.368 . S
C591 C572 1.463 . S
C591 C585 1.415 . S
C591 C592 1.504 1_455 S
C592 C573 1.368 . S
C592 C586 1.368 . S
C592 C591 1.504 1_655 S
C593 C577 1.429 . S
C593 C589 1.429 1_545 S
C593 C594 1.523 . S
C594 C578 1.368 . S
C594 C590 1.368 . S
C594 C593 1.523 . S
H595 C570 0.950 . S
H596 C572 0.950 . S
H597 C573 0.949 . S
H598 C575 0.950 . S
H599 C577 0.950 . S
C600 C601 1.349 . S
C600 C602 1.327 . S
C600 H625 0.950 . S
C601 C600 1.349 . S
C601 C617 1.349 . S
C602 C600 1.327 . S
C602 C621 1.429 . S
C602 H626 0.950 . S
C603 C620 1.574 . S
C603 C622 1.368 1_655 S
C603 H627 0.949 . S
H604 C608 0.949 . S
C605 C606 1.349 . S
C605 C607 1.327 . S
C605 H628 0.950 . S
C606 C605 1.349 . S
C606 C618 1.349 . S
C607 C605 1.327 . S
C607 C623 1.429 . S
C607 H629 0.950 . S
C608 H604 0.949 . S
C608 C616 1.574 1_655 S
C608 C624 1.368 . S
H609 C617 0.950 . S
H610 C615 0.950 . S
H611 C616 0.949 . S
H612 C618 0.950 . S
H613 C619 0.950 . S
H614 C620 0.949 . S
C615 H610 0.950 . S
C615 C617 1.327 . S
C615 C621 1.429 . S
C616 C608 1.574 1_455 S
C616 H611 0.949 . S
C616 C622 1.368 . S
C617 C601 1.349 . S
C617 H609 0.950 . S
C617 C615 1.327 . S
C618 C606 1.349 . S
C618 H612 0.950 . S
C618 C619 1.327 . S
C619 H613 0.950 . S
C619 C618 1.327 . S
C619 C623 1.429 . S
C620 C603 1.574 . S
C620 H614 0.949 . S
C620 C624 1.368 . S
C621 C602 1.429 . S
C621 C615 1.429 . S
C621 C622 1.523 . S
C622 C603 1.368 1_455 S
C622 C616 1.368 . S
C622 C621 1.523 . S
C623 C607 1.429 . S
C623 C619 1.429 . S
C623 C624 1.523 . S
C624 C608 1.368 . S
C624 C620 1.368 . S
C624 C623 1.523 . S
H625 C600 0.950 . S
H626 C602 0.950 . S
H627 C603 0.949 . S
H628 C605 0.950 . S
H629 C607 0.950 . S
C630 C631 1.349 . S
C630 C632 1.327 . S
C630 H655 0.950 . S
C631 C630 1.349 . S
C631 C647 1.349 . S
C632 C630 1.327 . S
C632 C651 1.429 . S
C632 H656 0.950 . S
C633 C650 1.574 . S
C633 C652 1.368 . S
C633 H657 0.949 . S
H634 C638 0.949 . S
C635 C636 1.349 . S
C635 C637 1.327 . S
C635 H658 0.950 . S
C636 C635 1.349 . S
C636 C648 1.349 . S
C637 C635 1.327 . S
C637 C653 1.429 . S
C637 H659 0.950 . S
C638 H634 0.949 . S
C638 C646 1.574 . S
C638 C654 1.368 . S
H639 C647 0.950 . S
H640 C645 0.950 . S
H641 C646 0.949 . S
H642 C648 0.950 . S
H643 C649 0.950 . S
H644 C650 0.949 . S
C645 H640 0.950 . S
C645 C647 1.327 . S
C645 C651 1.429 . S
C646 C638 1.574 . S
C646 H641 0.949 . S
C646 C652 1.368 . S
C647 C631 1.349 . S
C647 H639 0.950 . S
C647 C645 1.327 . S
C648 C636 1.349 . S
C648 H642 0.950 . S
C648 C649 1.327 . S
C649 H643 0.950 . S
C649 C648 1.327 . S
C649 C653 1.429 . S
C650 C633 1.574 . S
C650 H644 0.949 . S
C650 C654 1.368 . S
C651 C632 1.429 . S
C651 C645 1.429 . S
C651 C652 1.523 . S
C652 C633 1.368 . S
C652 C646 1.368 . S
C652 C651 1.523 . S
C653 C637 1.429 . S
C653 C649 1.429 . S
C653 C654 1.523 . S
C654 C638 1.368 . S
C654 C650 1.368 . S
C654 C653 1.523 . S
H655 C630 0.950 . S
H656 C632 0.950 . S
H657 C633 0.949 . S
H658 C635 0.950 . S
H659 C637 0.950 . S
C660 C661 1.349 . S
C660 C662 1.327 . S
C660 H685 0.950 . S
C661 C660 1.349 . S
C661 C677 1.349 . S
C662 C660 1.327 . S
C662 C681 1.429 . S
C662 H686 0.950 . S
C663 C680 1.574 . S
C663 C682 1.368 . S
C663 H687 0.949 . S
H664 C668 0.949 . S
C665 C666 1.349 . S
C665 C667 1.327 . S
C665 H688 0.950 . S
C666 C665 1.349 . S
C666 C678 1.349 . S
C667 C665 1.327 . S
C667 C683 1.429 . S
C667 H689 0.950 . S
C668 H664 0.949 . S
C668 C676 1.574 . S
C668 C684 1.368 . S
H669 C677 0.950 . S
H670 C675 0.950 . S
H671 C676 0.949 . S
H672 C678 0.950 . S
H673 C679 0.950 . S
H674 C680 0.949 . S
C675 H670 0.950 . S
C675 C677 1.327 . S
C675 C681 1.429 . S
C676 C668 1.574 . S
C676 H671 0.949 . S
C676 C682 1.368 . S
C677 C661 1.349 . S
C677 H669 0.950 . S
C677 C675 1.327 . S
C678 C666 1.349 . S
C678 H672 0.950 . S
C678 C679 1.327 . S
C679 H673 0.950 . S
C679 C678 1.327 . S
C679 C683 1.429 . S
C680 C663 1.574 . S
C680 H674 0.949 . S
C680 C684 1.368 . S
C681 C662 1.429 . S
C681 C675 1.429 . S
C681 C682 1.523 . S
C682 C663 1.368 . S
C682 C676 1.368 . S
C682 C681 1.523 . S
C683 C667 1.429 . S
C683 C679 1.429 . S
C683 C684 1.523 . S
C684 C668 1.368 . S
C684 C680 1.368 . S
C684 C683 1.523 . S
H685 C660 0.950 . S
H686 C662 0.950 . S
H687 C663 0.949 . S
H688 C665 0.950 . S
H689 C667 0.950 . S
C690 C691 1.349 . S
C690 C692 1.327 . S
C690 H715 0.950 . S
C691 C690 1.349 . S
C691 C707 1.349 . S
C692 C690 1.327 . S
C692 C711 1.429 . S
C692 H716 0.950 . S
C693 C710 1.574 . S
C693 C712 1.368 . S
C693 H717 0.949 . S
H694 C698 0.949 . S
C695 C696 1.349 . S
C695 C697 1.327 . S
C695 H718 0.950 . S
C696 C695 1.349 . S
C696 C708 1.349 . S
C697 C695 1.327 . S
C697 C713 1.429 . S
C697 H719 0.950 . S
C698 H694 0.949 . S
C698 C706 1.574 . S
C698 C714 1.368 . S
H699 C707 0.950 . S
H700 C705 0.950 . S
H701 C706 0.949 . S
H702 C708 0.950 . S
H703 C709 0.950 . S
H704 C710 0.949 . S
C705 H700 0.950 . S
C705 C707 1.327 . S
C705 C711 1.429 . S
C706 C698 1.574 . S
C706 H701 0.949 . S
C706 C712 1.368 . S
C707 C691 1.349 . S
C707 H699 0.950 . S
C707 C705 1.327 . S
C708 C696 1.349 . S
C708 H702 0.950 . S
C708 C709 1.327 . S
C709 H703 0.950 . S
C709 C708 1.327 . S
C709 C713 1.429 . S
C710 C693 1.574 . S
C710 H704 0.949 . S
C710 C714 1.368 . S
C711 C692 1.429 . S
C711 C705 1.429 . S
C711 C712 1.523 . S
C712 C693 1.368 . S
C712 C706 1.368 . S
C712 C711 1.523 . S
C713 C697 1.429 . S
C713 C709 1.429 . S
C713 C714 1.523 . S
C714 C698 1.368 . S
C714 C710 1.368 . S
C714 C713 1.523 . S
H715 C690 0.950 . S
H716 C692 0.950 . S
H717 C693 0.949 . S
H718 C695 0.950 . S
H719 C697 0.950 . S
C720 C721 1.349 . S
C720 C722 1.327 . S
C720 H745 0.950 . S
C721 C720 1.349 . S
C721 C737 1.349 . S
C722 C720 1.327 . S
C722 C741 1.429 . S
C722 H746 0.950 . S
C723 C740 1.574 . S
C723 C742 1.368 . S
C723 H747 0.949 . S
H724 C728 0.949 . S
C725 C726 1.349 . S
C725 C727 1.327 . S
C725 H748 0.950 . S
C726 C725 1.349 . S
C726 C738 1.349 . S
C727 C725 1.327 . S
C727 C743 1.429 . S
C727 H749 0.950 . S
C728 H724 0.949 . S
C728 C736 1.574 . S
C728 C744 1.368 . S
H729 C737 0.950 . S
H730 C735 0.950 . S
H731 C736 0.949 . S
H732 C738 0.950 . S
H733 C739 0.950 . S
H734 C740 0.949 . S
C735 H730 0.950 . S
C735 C737 1.327 . S
C735 C741 1.429 . S
C736 C728 1.574 . S
C736 H731 0.949 . S
C736 C742 1.368 . S
C737 C721 1.349 . S
C737 H729 0.950 . S
C737 C735 1.327 . S
C738 C726 1.349 . S
C738 H732 0.950 . S
C738 C739 1.327 . S
C739 H733 0.950 . S
C739 C738 1.327 . S
C739 C743 1.429 . S
C740 C723 1.574 . S
C740 H734 0.949 . S
C740 C744 1.368 . S
C741 C722 1.429 . S
C741 C735 1.429 . S
C741 C742 1.523 . S
C742 C723 1.368 . S
C742 C736 1.368 . S
C742 C741 1.523 . S
C743 C727 1.429 . S
C743 C739 1.429 . S
C743 C744 1.523 . S
C744 C728 1.368 . S
C744 C740 1.368 . S
C744 C743 1.523 . S
H745 C720 0.950 . S
H746 C722 0.950 . S
H747 C723 0.949 . S
H748 C725 0.950 . S
H749 C727 0.950 . S
C750 C751 1.349 . S
C750 C752 1.327 . S
C750 H775 0.950 . S
C751 C750 1.349 . S
C751 C767 1.349 . S
C752 C750 1.327 . S
C752 C771 1.429 . S
C752 H776 0.950 . S
C753 C770 1.574 . S
C753 C772 1.368 . S
C753 H777 0.949 . S
H754 C758 0.949 . S
C755 C756 1.349 . S
C755 C757 1.327 . S
C755 H778 0.950 . S
C756 C755 1.349 . S
C756 C768 1.349 . S
C757 C755 1.327 . S
C757 C773 1.429 . S
C757 H779 0.950 . S
C758 H754 0.949 . S
C758 C766 1.574 . S
C758 C774 1.368 . S
H759 C767 0.950 . S
H760 C765 0.950 . S
H761 C766 0.949 . S
H762 C768 0.950 . S
H763 C769 0.950 . S
H764 C770 0.949 . S
C765 H760 0.950 . S
C765 C767 1.327 . S
C765 C771 1.429 . S
C766 C758 1.574 . S
C766 H761 0.949 . S
C766 C772 1.368 . S
C767 C751 1.349 . S
C767 H759 0.950 . S
C767 C765 1.327 . S
C768 C756 1.349 . S
C768 H762 0.950 . S
C768 C769 1.327 . S
C769 H763 0.950 . S
C769 C768 1.327 . S
C769 C773 1.429 . S
C770 C753 1.574 . S
C770 H764 0.949 . S
C770 C774 1.368 . S
C771 C752 1.429 . S
C771 C765 1.429 . S
C771 C772 1.523 . S
C772 C753 1.368 . S
C772 C766 1.368 . S
C772 C771 1.523 . S
C773 C757 1.429 . S
C773 C769 1.429 . S
C773 C774 1.523 . S
C774 C758 1.368 . S
C774 C770 1.368 . S
C774 C773 1.523 . S
H775 C750 0.950 . S
H776 C752 0.950 . S
H777 C753 0.949 . S
H778 C755 0.950 . S
H779 C757 0.950 . S
C780 C781 1.349 . S
C780 C782 1.327 . S
C780 H805 0.950 . S
C781 C780 1.349 . S
C781 C797 1.349 . S
C782 C780 1.327 . S
C782 C801 1.429 . S
C782 H806 0.950 . S
C783 C800 1.574 . S
C783 C802 1.368 . S
C783 H807 0.949 . S
H784 C788 0.949 . S
C785 C786 1.349 . S
C785 C787 1.327 . S
C785 H808 0.950 . S
C786 C785 1.349 . S
C786 C798 1.349 . S
C787 C785 1.327 . S
C787 C803 1.429 . S
C787 H809 0.950 . S
C788 H784 0.949 . S
C788 C796 1.574 . S
C788 C804 1.368 . S
H789 C797 0.950 . S
H790 C795 0.950 . S
H791 C796 0.949 . S
H792 C798 0.950 . S
H793 C799 0.950 . S
H794 C800 0.949 . S
C795 H790 0.950 . S
C795 C797 1.327 . S
C795 C801 1.429 . S
C796 C788 1.574 . S
C796 H791 0.949 . S
C796 C802 1.368 . S
C797 C781 1.349 . S
C797 H789 0.950 . S
C797 C795 1.327 . S
C798 C786 1.349 . S
C798 H792 0.950 . S
C798 C799 1.327 . S
C799 H793 0.950 . S
C799 C798 1.327 . S
C799 C803 1.429 . S
C800 C783 1.574 . S
C800 H794 0.949 . S
C800 C804 1.368 . S
C801 C782 1.429 . S
C801 C795 1.429 . S
C801 C802 1.523 . S
C802 C783 1.368 . S
C802 C796 1.368 . S
C802 C801 1.523 . S
C803 C787 1.429 . S
C803 C799 1.429 . S
C803 C804 1.523 . S
C804 C788 1.368 . S
C804 C800 1.368 . S
C804 C803 1.523 . S
H805 C780 0.950 . S
H806 C782 0.950 . S
H807 C783 0.949 . S
H808 C785 0.950 . S
H809 C787 0.950 . S
C810 C811 1.349 1_655 S
C810 C812 1.327 1_655 S
C810 H835 0.950 . S
C811 C810 1.349 1_455 S
C811 C827 1.349 . S
C812 C810 1.327 1_455 S
C812 C831 1.429 . S
C812 H836 0.950 . S
C813 C830 1.574 . S
C813 C832 1.368 . S
C813 H837 0.949 . S
H814 C818 0.949 . S
C815 C816 1.349 . S
C815 C817 1.327 . S
C815 H838 0.950 . S
C816 C815 1.349 . S
C816 C828 1.349 . S
C817 C815 1.327 . S
C817 C833 1.429 . S
C817 H839 0.950 . S
C818 H814 0.949 . S
C818 C826 1.574 . S
C818 C834 1.368 . S
H819 C827 0.950 . S
H820 C825 0.950 . S
H821 C826 0.949 . S
H822 C828 0.950 . S
H823 C829 0.950 . S
H824 C830 0.949 . S
C825 H820 0.950 . S
C825 C827 1.327 . S
C825 C831 1.429 . S
C826 C818 1.574 . S
C826 H821 0.949 . S
C826 C832 1.368 . S
C827 C811 1.349 . S
C827 H819 0.950 . S
C827 C825 1.327 . S
C828 C816 1.349 . S
C828 H822 0.950 . S
C828 C829 1.327 . S
C829 H823 0.950 . S
C829 C828 1.327 . S
C829 C833 1.429 . S
C830 C813 1.574 . S
C830 H824 0.949 . S
C830 C834 1.368 . S
C831 C812 1.429 . S
C831 C825 1.429 . S
C831 C832 1.523 . S
C832 C813 1.368 . S
C832 C826 1.368 . S
C832 C831 1.523 . S
C833 C817 1.429 . S
C833 C829 1.429 . S
C833 C834 1.523 . S
C834 C818 1.368 . S
C834 C830 1.368 . S
C834 C833 1.523 . S
H835 C810 0.950 . S
H836 C812 0.950 . S
H837 C813 0.949 . S
H838 C815 0.950 . S
H839 C817 0.950 . S
C840 C841 1.349 . S
C840 C842 1.327 . S
C840 H865 0.950 . S
C841 C840 1.349 . S
C841 C857 1.349 . S
C842 C840 1.327 . S
C842 C861 1.429 . S
C842 H866 0.950 . S
C843 C860 1.574 . S
C843 C862 1.368 . S
C843 H867 0.949 . S
H844 C848 0.949 . S
C845 C846 1.349 . S
C845 C847 1.327 . S
C845 H868 0.950 . S
C846 C845 1.349 . S
C846 C858 1.349 . S
C847 C845 1.327 . S
C847 C863 1.429 . S
C847 H869 0.950 . S
C848 H844 0.949 . S
C848 C856 1.574 1_545 S
C848 C864 1.368 . S
H849 C857 0.950 . S
H850 C855 0.950 . S
H851 C856 0.949 . S
H852 C858 0.950 . S
H853 C859 0.950 . S
H854 C860 0.949 . S
C855 H850 0.950 . S
C855 C857 1.327 . S
C855 C861 1.429 . S
C856 C848 1.574 1_565 S
C856 H851 0.949 . S
C856 C862 1.368 . S
C857 C841 1.349 . S
C857 H849 0.950 . S
C857 C855 1.327 . S
C858 C846 1.349 . S
C858 H852 0.950 . S
C858 C859 1.327 . S
C859 H853 0.950 . S
C859 C858 1.327 . S
C859 C863 1.429 . S
C860 C843 1.574 . S
C860 H854 0.949 . S
C860 C864 1.368 1_565 S
C861 C842 1.429 . S
C861 C855 1.429 . S
C861 C862 1.523 . S
C862 C843 1.368 . S
C862 C856 1.368 . S
C862 C861 1.523 . S
C863 C847 1.429 . S
C863 C859 1.429 . S
C863 C864 1.523 . S
C864 C848 1.368 . S
C864 C860 1.368 1_545 S
C864 C863 1.523 . S
H865 C840 0.950 . S
H866 C842 0.950 . S
H867 C843 0.949 . S
H868 C845 0.950 . S
H869 C847 0.950 . S
C870 C871 1.349 . S
C870 C872 1.327 . S
C870 H895 0.950 . S
C871 C870 1.349 . S
C871 C887 1.349 . S
C872 C870 1.327 . S
C872 C891 1.427 . S
C872 H896 0.950 . S
C873 C890 1.574 . S
C873 C892 1.368 . S
C873 H897 0.949 . S
H874 C878 0.949 . S
C875 C876 1.349 . S
C875 C877 1.327 . S
C875 H898 0.950 . S
C876 C875 1.349 . S
C876 C888 1.349 . S
C877 C875 1.327 . S
C877 C893 1.429 1_655 S
C877 H899 0.950 . S
C878 H874 0.949 . S
C878 C886 1.574 . S
C878 C894 1.368 . S
H879 C887 0.950 . S
H880 C885 0.950 . S
H881 C886 0.949 . S
H882 C888 0.950 . S
H883 C889 0.950 . S
H884 C890 0.949 . S
C885 H880 0.950 . S
C885 C887 1.327 . S
C885 C891 1.451 . S
C886 C878 1.574 . S
C886 H881 0.949 . S
C886 C892 1.368 . S
C887 C871 1.349 . S
C887 H879 0.950 . S
C887 C885 1.327 . S
C888 C876 1.349 . S
C888 H882 0.950 . S
C888 C889 1.327 1_655 S
C889 H883 0.950 . S
C889 C888 1.327 1_455 S
C889 C893 1.429 . S
C890 C873 1.574 . S
C890 H884 0.949 . S
C890 C894 1.368 . S
C891 C872 1.427 . S
C891 C885 1.451 . S
C891 C892 1.504 1_545 S
C892 C873 1.368 . S
C892 C886 1.368 . S
C892 C891 1.504 1_565 S
C893 C877 1.429 1_455 S
C893 C889 1.429 . S
C893 C894 1.523 . S
C894 C878 1.368 . S
C894 C890 1.368 . S
C894 C893 1.523 . S
H895 C870 0.950 . S
H896 C872 0.950 . S
H897 C873 0.949 . S
H898 C875 0.950 . S
H899 C877 0.950 . S
C900 C901 1.349 . S
C900 C902 1.327 . S
C900 H925 0.950 . S
C901 C900 1.349 . S
C901 C917 1.349 . S
C902 C900 1.327 . S
C902 C921 1.429 . S
C902 H926 0.950 . S
C903 C920 1.574 1_554 S
C903 C922 1.368 . S
C903 H927 0.949 1_545 S
H904 C908 0.949 . S
C905 C906 1.349 . S
C905 C907 1.327 . S
C905 H928 0.950 1_545 S
C906 C905 1.349 . S
C906 C918 1.349 . S
C907 C905 1.327 . S
C907 C923 1.429 . S
C907 H929 0.950 1_545 S
C908 H904 0.949 . S
C908 C916 1.574 1_556 S
C908 C924 1.368 . S
H909 C917 0.950 1_565 S
H910 C915 0.950 1_565 S
H911 C916 0.949 . S
H912 C918 0.950 . S
H913 C919 0.950 . S
H914 C920 0.949 1_565 S
C915 H910 0.950 1_545 S
C915 C917 1.327 . S
C915 C921 1.429 . S
C916 C908 1.574 1_554 S
C916 H911 0.949 . S
C916 C922 1.368 . S
C917 C901 1.349 . S
C917 H909 0.950 1_545 S
C917 C915 1.327 . S
C918 C906 1.349 . S
C918 H912 0.950 . S
C918 C919 1.327 . S
C919 H913 0.950 . S
C919 C918 1.327 . S
C919 C923 1.429 . S
C920 C903 1.574 1_556 S
C920 H914 0.949 1_545 S
C920 C924 1.368 . S
C921 C902 1.429 . S
C921 C915 1.429 . S
C921 C922 1.523 . S
C922 C903 1.368 . S
C922 C916 1.368 . S
C922 C921 1.523 . S
C923 C907 1.429 . S
C923 C919 1.429 . S
C923 C924 1.523 . S
C924 C908 1.368 . S
C924 C920 1.368 . S
C924 C923 1.523 . S
H925 C900 0.950 . S
H926 C902 0.950 . S
H927 C903 0.949 1_565 S
H928 C905 0.950 1_565 S
H929 C907 0.950 1_565 S
C930 C931 1.349 . S
C930 C932 1.327 . S
C930 H955 0.950 . S
C931 C930 1.349 . S
C931 C947 1.349 . S
C932 C930 1.327 . S
C932 C951 1.429 . S
C932 H956 0.950 . S
C933 C950 1.574 1_556 S
C933 C952 1.368 . S
C933 H957 0.949 . S
H934 C938 0.949 . S
C935 C936 1.349 . S
C935 C937 1.327 . S
C935 H958 0.950 . S
C936 C935 1.349 . S
C936 C948 1.349 . S
C937 C935 1.327 . S
C937 C953 1.429 . S
C937 H959 0.950 . S
C938 H934 0.949 . S
C938 C946 1.574 1_554 S
C938 C954 1.368 . S
H939 C947 0.950 . S
H940 C945 0.950 . S
H941 C946 0.949 . S
H942 C948 0.950 . S
H943 C949 0.950 . S
H944 C950 0.949 . S
C945 H940 0.950 . S
C945 C947 1.327 . S
C945 C951 1.429 . S
C946 C938 1.574 1_556 S
C946 H941 0.949 . S
C946 C952 1.368 . S
C947 C931 1.349 . S
C947 H939 0.950 . S
C947 C945 1.327 . S
C948 C936 1.349 . S
C948 H942 0.950 . S
C948 C949 1.327 . S
C949 H943 0.950 . S
C949 C948 1.327 . S
C949 C953 1.429 . S
C950 C933 1.574 1_554 S
C950 H944 0.949 . S
C950 C954 1.368 . S
C951 C932 1.429 . S
C951 C945 1.429 . S
C951 C952 1.523 . S
C952 C933 1.368 . S
C952 C946 1.368 . S
C952 C951 1.523 . S
C953 C937 1.429 . S
C953 C949 1.429 . S
C953 C954 1.523 . S
C954 C938 1.368 . S
C954 C950 1.368 . S
C954 C953 1.523 . S
H955 C930 0.950 . S
H956 C932 0.950 . S
H957 C933 0.949 . S
H958 C935 0.950 . S
H959 C937 0.950 . S
C960 C961 1.349 . S
C960 C962 1.327 . S
C960 H985 0.950 . S
C961 C960 1.349 . S
C961 C977 1.349 . S
C962 C960 1.327 . S
C962 C981 1.429 . S
C962 H986 0.950 . S
C963 C980 1.574 1_556 S
C963 C982 1.368 . S
C963 H987 0.949 . S
H964 C968 0.949 . S
C965 C966 1.349 . S
C965 C967 1.327 . S
C965 H988 0.950 . S
C966 C965 1.349 . S
C966 C978 1.349 . S
C967 C965 1.327 . S
C967 C983 1.429 . S
C967 H989 0.950 . S
C968 H964 0.949 . S
C968 C976 1.574 1_554 S
C968 C984 1.368 . S
H969 C977 0.950 . S
H970 C975 0.950 . S
H971 C976 0.949 . S
H972 C978 0.950 . S
H973 C979 0.950 . S
H974 C980 0.949 . S
C975 H970 0.950 . S
C975 C977 1.327 . S
C975 C981 1.429 . S
C976 C968 1.574 1_556 S
C976 H971 0.949 . S
C976 C982 1.368 . S
C977 C961 1.349 . S
C977 H969 0.950 . S
C977 C975 1.327 . S
C978 C966 1.349 . S
C978 H972 0.950 . S
C978 C979 1.327 . S
C979 H973 0.950 . S
C979 C978 1.327 . S
C979 C983 1.429 . S
C980 C963 1.574 1_554 S
C980 H974 0.949 . S
C980 C984 1.368 . S
C981 C962 1.429 . S
C981 C975 1.429 . S
C981 C982 1.523 . S
C982 C963 1.368 . S
C982 C976 1.368 . S
C982 C981 1.523 . S
C983 C967 1.429 . S
C983 C979 1.429 . S
C983 C984 1.523 . S
C984 C968 1.368 . S
C984 C980 1.368 . S
C984 C983 1.523 . S
H985 C960 0.950 . S
H986 C962 0.950 . S
H987 C963 0.949 . S
H988 C965 0.950 . S
H989 C967 0.950 . S
C990 C991 1.349 . S
C990 C992 1.327 . S
C990 H1015 0.950 . S
C991 C990 1.349 . S
C991 C1007 1.349 . S
C992 C990 1.327 . S
C992 C1011 1.429 . S
C992 H1016 0.950 . S
C993 C1010 1.574 . S
C993 C1012 1.368 . S
C993 H1017 0.949 . S
H994 C998 0.949 . S
C995 C996 1.349 . S
C995 C997 1.327 . S
C995 H1018 0.950 . S
C996 C995 1.349 . S
C996 C1008 1.349 . S
C997 C995 1.327 . S
C997 C1013 1.429 . S
C997 H1019 0.950 . S
C998 H994 0.949 . S
C998 C1006 1.574 . S
C998 C1014 1.368 . S
H999 C1007 0.950 . S
H1000 C1005 0.950 . S
H1001 C1006 0.949 . S
H1002 C1008 0.950 . S
H1003 C1009 0.950 . S
H1004 C1010 0.949 . S
C1005 H1000 0.950 . S
C1005 C1007 1.327 . S
C1005 C1011 1.429 . S
C1006 C998 1.574 . S
C1006 H1001 0.949 . S
C1006 C1012 1.368 . S
C1007 C991 1.349 . S
C1007 H999 0.950 . S
C1007 C1005 1.327 . S
C1008 C996 1.349 . S
C1008 H1002 0.950 . S
C1008 C1009 1.327 . S
C1009 H1003 0.950 . S
C1009 C1008 1.327 . S
C1009 C1013 1.429 . S
C1010 C993 1.574 . S
C1010 H1004 0.949 . S
C1010 C1014 1.368 . S
C1011 C992 1.429 . S
C1011 C1005 1.429 . S
C1011 C1012 1.523 . S
C1012 C993 1.368 . S
C1012 C1006 1.368 . S
C1012 C1011 1.523 . S
C1013 C997 1.429 . S
C1013 C1009 1.429 . S
C1013 C1014 1.523 . S
C1014 C998 1.368 . S
C1014 C1010 1.368 . S
C1014 C1013 1.523 . S
H1015 C990 0.950 . S
H1016 C992 0.950 . S
H1017 C993 0.949 . S
H1018 C995 0.950 . S
H1019 C997 0.950 . S
C1020 C1021 1.349 . S
C1020 C1022 1.327 . S
C1020 H1045 0.950 . S
C1021 C1020 1.349 . S
C1021 C1037 1.349 . S
C1022 C1020 1.327 . S
C1022 C1041 1.429 . S
C1022 H1046 0.950 . S
C1023 C1040 1.574 . S
C1023 C1042 1.368 . S
C1023 H1047 0.949 . S
H1024 C1028 0.949 . S
C1025 C1026 1.349 . S
C1025 C1027 1.327 . S
C1025 H1048 0.950 . S
C1026 C1025 1.349 . S
C1026 C1038 1.349 . S
C1027 C1025 1.327 . S
C1027 C1043 1.429 . S
C1027 H1049 0.950 . S
C1028 H1024 0.949 . S
C1028 C1036 1.574 . S
C1028 C1044 1.368 . S
H1029 C1037 0.950 . S
H1030 C1035 0.950 . S
H1031 C1036 0.949 . S
H1032 C1038 0.950 . S
H1033 C1039 0.950 . S
H1034 C1040 0.949 . S
C1035 H1030 0.950 . S
C1035 C1037 1.327 . S
C1035 C1041 1.429 . S
C1036 C1028 1.574 . S
C1036 H1031 0.949 . S
C1036 C1042 1.368 . S
C1037 C1021 1.349 . S
C1037 H1029 0.950 . S
C1037 C1035 1.327 . S
C1038 C1026 1.349 . S
C1038 H1032 0.950 . S
C1038 C1039 1.327 . S
C1039 H1033 0.950 . S
C1039 C1038 1.327 . S
C1039 C1043 1.429 . S
C1040 C1023 1.574 . S
C1040 H1034 0.949 . S
C1040 C1044 1.368 . S
C1041 C1022 1.429 . S
C1041 C1035 1.429 . S
C1041 C1042 1.523 . S
C1042 C1023 1.368 . S
C1042 C1036 1.368 . S
C1042 C1041 1.523 . S
C1043 C1027 1.429 . S
C1043 C1039 1.429 . S
C1043 C1044 1.523 . S
C1044 C1028 1.368 . S
C1044 C1040 1.368 . S
C1044 C1043 1.523 . S
H1045 C1020 0.950 . S
H1046 C1022 0.950 . S
H1047 C1023 0.949 . S
H1048 C1025 0.950 . S
H1049 C1027 0.950 . S
C1050 C1051 1.349 . S
C1050 C1052 1.327 . S
C1050 H1075 0.950 . S
C1051 C1050 1.349 . S
C1051 C1067 1.349 . S
C1052 C1050 1.327 . S
C1052 C1071 1.429 . S
C1052 H1076 0.950 . S
C1053 C1070 1.574 . S
C1053 C1072 1.368 . S
C1053 H1077 0.949 . S
H1054 C1058 0.949 . S
C1055 C1056 1.349 . S
C1055 C1057 1.327 . S
C1055 H1078 0.950 . S
C1056 C1055 1.349 . S
C1056 C1068 1.349 . S
C1057 C1055 1.327 . S
C1057 C1073 1.429 . S
C1057 H1079 0.950 . S
C1058 H1054 0.949 . S
C1058 C1066 1.574 . S
C1058 C1074 1.368 . S
H1059 C1067 0.950 . S
H1060 C1065 0.950 . S
H1061 C1066 0.949 . S
H1062 C1068 0.950 . S
H1063 C1069 0.950 . S
H1064 C1070 0.949 . S
C1065 H1060 0.950 . S
C1065 C1067 1.327 . S
C1065 C1071 1.429 . S
C1066 C1058 1.574 . S
C1066 H1061 0.949 . S
C1066 C1072 1.368 . S
C1067 C1051 1.349 . S
C1067 H1059 0.950 . S
C1067 C1065 1.327 . S
C1068 C1056 1.349 . S
C1068 H1062 0.950 . S
C1068 C1069 1.327 . S
C1069 H1063 0.950 . S
C1069 C1068 1.327 . S
C1069 C1073 1.429 . S
C1070 C1053 1.574 . S
C1070 H1064 0.949 . S
C1070 C1074 1.368 . S
C1071 C1052 1.429 . S
C1071 C1065 1.429 . S
C1071 C1072 1.523 . S
C1072 C1053 1.368 . S
C1072 C1066 1.368 . S
C1072 C1071 1.523 . S
C1073 C1057 1.429 . S
C1073 C1069 1.429 . S
C1073 C1074 1.523 . S
C1074 C1058 1.368 . S
C1074 C1070 1.368 . S
C1074 C1073 1.523 . S
H1075 C1050 0.950 . S
H1076 C1052 0.950 . S
H1077 C1053 0.949 . S
H1078 C1055 0.950 . S
H1079 C1057 0.950 . S
C1080 C1081 1.349 . S
C1080 C1082 1.327 . S
C1080 H1105 0.950 . S
C1081 C1080 1.349 . S
C1081 C1097 1.349 . S
C1082 C1080 1.327 . S
C1082 C1101 1.429 . S
C1082 H1106 0.950 . S
C1083 C1100 1.574 . S
C1083 C1102 1.368 . S
C1083 H1107 0.949 . S
H1084 C1088 0.949 . S
C1085 C1086 1.349 . S
C1085 C1087 1.327 . S
C1085 H1108 0.950 . S
C1086 C1085 1.349 . S
C1086 C1098 1.349 . S
C1087 C1085 1.327 . S
C1087 C1103 1.429 . S
C1087 H1109 0.950 . S
C1088 H1084 0.949 . S
C1088 C1096 1.574 . S
C1088 C1104 1.368 . S
H1089 C1097 0.950 . S
H1090 C1095 0.950 . S
H1091 C1096 0.949 . S
H1092 C1098 0.950 . S
H1093 C1099 0.950 . S
H1094 C1100 0.949 . S
C1095 H1090 0.950 . S
C1095 C1097 1.327 . S
C1095 C1101 1.429 . S
C1096 C1088 1.574 . S
C1096 H1091 0.949 . S
C1096 C1102 1.368 . S
C1097 C1081 1.349 . S
C1097 H1089 0.950 . S
C1097 C1095 1.327 . S
C1098 C1086 1.349 . S
C1098 H1092 0.950 . S
C1098 C1099 1.327 . S
C1099 H1093 0.950 . S
C1099 C1098 1.327 . S
C1099 C1103 1.429 . S
C1100 C1083 1.574 . S
C1100 H1094 0.949 . S
C1100 C1104 1.368 . S
C1101 C1082 1.429 . S
C1101 C1095 1.429 . S
C1101 C1102 1.523 . S
C1102 C1083 1.368 . S
C1102 C1096 1.368 . S
C1102 C1101 1.523 . S
C1103 C1087 1.429 . S
C1103 C1099 1.429 . S
C1103 C1104 1.523 . S
C1104 C1088 1.368 . S
C1104 C1100 1.368 . S
C1104 C1103 1.523 . S
H1105 C1080 0.950 . S
H1106 C1082 0.950 . S
H1107 C1083 0.949 . S
H1108 C1085 0.950 . S
H1109 C1087 0.950 . S
C1110 C1111 1.349 . S
C1110 C1112 1.327 . S
C1110 H1135 0.950 . S
C1111 C1110 1.349 . S
C1111 C1127 1.349 . S
C1112 C1110 1.327 . S
C1112 C1131 1.429 . S
C1112 H1136 0.950 . S
C1113 C1130 1.574 . S
C1113 C1132 1.368 . S
C1113 H1137 0.949 . S
H1114 C1118 0.949 . S
C1115 C1116 1.349 . S
C1115 C1117 1.327 . S
C1115 H1138 0.950 . S
C1116 C1115 1.349 . S
C1116 C1128 1.349 . S
C1117 C1115 1.327 . S
C1117 C1133 1.429 . S
C1117 H1139 0.950 . S
C1118 H1114 0.949 . S
C1118 C1126 1.574 . S
C1118 C1134 1.368 . S
H1119 C1127 0.950 . S
H1120 C1125 0.950 . S
H1121 C1126 0.949 . S
H1122 C1128 0.950 . S
H1123 C1129 0.950 . S
H1124 C1130 0.949 . S
C1125 H1120 0.950 . S
C1125 C1127 1.327 . S
C1125 C1131 1.429 . S
C1126 C1118 1.574 . S
C1126 H1121 0.949 . S
C1126 C1132 1.368 . S
C1127 C1111 1.349 . S
C1127 H1119 0.950 . S
C1127 C1125 1.327 . S
C1128 C1116 1.349 . S
C1128 H1122 0.950 . S
C1128 C1129 1.327 . S
C1129 H1123 0.950 . S
C1129 C1128 1.327 . S
C1129 C1133 1.429 . S
C1130 C1113 1.574 . S
C1130 H1124 0.949 . S
C1130 C1134 1.368 . S
C1131 C1112 1.429 . S
C1131 C1125 1.429 . S
C1131 C1132 1.523 . S
C1132 C1113 1.368 . S
C1132 C1126 1.368 . S
C1132 C1131 1.523 . S
C1133 C1117 1.429 . S
C1133 C1129 1.429 . S
C1133 C1134 1.523 . S
C1134 C1118 1.368 . S
C1134 C1130 1.368 . S
C1134 C1133 1.523 . S
H1135 C1110 0.950 . S
H1136 C1112 0.950 . S
H1137 C1113 0.949 . S
H1138 C1115 0.950 . S
H1139 C1117 0.950 . S
C1140 C1141 1.349 . S
C1140 C1142 1.327 . S
C1140 H1165 0.950 . S
C1141 C1140 1.349 . S
C1141 C1157 1.349 . S
C1142 C1140 1.327 . S
C1142 C1161 1.429 . S
C1142 H1166 0.950 . S
C1143 C1160 1.574 . S
C1143 C1162 1.368 . S
C1143 H1167 0.949 . S
H1144 C1148 0.949 . S
C1145 C1146 1.349 . S
C1145 C1147 1.327 . S
C1145 H1168 0.950 . S
C1146 C1145 1.349 . S
C1146 C1158 1.349 . S
C1147 C1145 1.327 . S
C1147 C1163 1.429 . S
C1147 H1169 0.950 . S
C1148 H1144 0.949 . S
C1148 C1156 1.574 . S
C1148 C1164 1.368 . S
H1149 C1157 0.950 . S
H1150 C1155 0.950 . S
H1151 C1156 0.949 . S
H1152 C1158 0.950 . S
H1153 C1159 0.950 . S
H1154 C1160 0.949 . S
C1155 H1150 0.950 . S
C1155 C1157 1.327 . S
C1155 C1161 1.429 . S
C1156 C1148 1.574 . S
C1156 H1151 0.949 . S
C1156 C1162 1.368 . S
C1157 C1141 1.349 . S
C1157 H1149 0.950 . S
C1157 C1155 1.327 . S
C1158 C1146 1.349 . S
C1158 H1152 0.950 . S
C1158 C1159 1.327 . S
C1159 H1153 0.950 . S
C1159 C1158 1.327 . S
C1159 C1163 1.429 . S
C1160 C1143 1.574 . S
C1160 H1154 0.949 . S
C1160 C1164 1.368 . S
C1161 C1142 1.429 . S
C1161 C1155 1.429 . S
C1161 C1162 1.523 . S
C1162 C1143 1.368 . S
C1162 C1156 1.368 . S
C1162 C1161 1.523 . S
C1163 C1147 1.429 . S
C1163 C1159 1.429 . S
C1163 C1164 1.523 . S
C1164 C1148 1.368 . S
C1164 C1160 1.368 . S
C1164 C1163 1.523 . S
H1165 C1140 0.950 . S
H1166 C1142 0.950 . S
H1167 C1143 0.949 . S
H1168 C1145 0.950 . S
H1169 C1147 0.950 . S
C1170 C1171 1.349 . S
C1170 C1172 1.327 . S
C1170 H1195 0.950 . S
C1171 C1170 1.349 . S
C1171 C1187 1.349 . S
C1172 C1170 1.327 . S
C1172 C1191 1.429 . S
C1172 H1196 0.950 . S
C1173 C1190 1.574 . S
C1173 C1192 1.368 . S
C1173 H1197 0.949 . S
H1174 C1178 0.949 . S
C1175 C1176 1.349 . S
C1175 C1177 1.327 . S
C1175 H1198 0.950 . S
C1176 C1175 1.349 . S
C1176 C1188 1.349 . S
C1177 C1175 1.327 . S
C1177 C1193 1.429 . S
C1177 H1199 0.950 . S
C1178 H1174 0.949 . S
C1178 C1186 1.574 . S
C1178 C1194 1.368 . S
H1179 C1187 0.950 . S
H1180 C1185 0.950 . S
H1181 C1186 0.949 . S
H1182 C1188 0.950 1_545 S
H1183 C1189 0.950 . S
H1184 C1190 0.949 . S
C1185 H1180 0.950 . S
C1185 C1187 1.327 . S
C1185 C1191 1.429 . S
C1186 C1178 1.574 . S
C1186 H1181 0.949 . S
C1186 C1192 1.368 . S
C1187 C1171 1.349 . S
C1187 H1179 0.950 . S
C1187 C1185 1.327 . S
C1188 C1176 1.349 . S
C1188 H1182 0.950 1_565 S
C1188 C1189 1.327 . S
C1189 H1183 0.950 . S
C1189 C1188 1.327 . S
C1189 C1193 1.429 . S
C1190 C1173 1.574 . S
C1190 H1184 0.949 . S
C1190 C1194 1.368 . S
C1191 C1172 1.429 . S
C1191 C1185 1.429 . S
C1191 C1192 1.523 . S
C1192 C1173 1.368 . S
C1192 C1186 1.368 . S
C1192 C1191 1.523 . S
C1193 C1177 1.429 . S
C1193 C1189 1.429 . S
C1193 C1194 1.523 . S
C1194 C1178 1.368 . S
C1194 C1190 1.368 . S
C1194 C1193 1.523 . S
H1195 C1170 0.950 . S
H1196 C1172 0.950 . S
H1197 C1173 0.949 . S
H1198 C1175 0.950 . S
H1199 C1177 0.950 . S
C1200 C1201 1.349 . S
C1200 C1202 1.327 . S
C1200 H1225 0.950 . S
C1201 C1200 1.349 . S
C1201 C1217 1.349 . S
C1202 C1200 1.327 . S
C1202 C1221 1.429 . S
C1202 H1226 0.950 . S
C1203 C1220 1.574 . S
C1203 C1222 1.368 . S
C1203 H1227 0.949 . S
H1204 C1208 0.949 . S
C1205 C1206 1.349 . S
C1205 C1207 1.327 . S
C1205 H1228 0.950 . S
C1206 C1205 1.349 . S
C1206 C1218 1.349 . S
C1207 C1205 1.327 . S
C1207 C1223 1.429 . S
C1207 H1229 0.950 . S
C1208 H1204 0.949 . S
C1208 C1216 1.574 . S
C1208 C1224 1.368 . S
H1209 C1217 0.950 . S
H1210 C1215 0.950 . S
H1211 C1216 0.949 . S
H1212 C1218 0.950 . S
H1213 C1219 0.950 . S
H1214 C1220 0.949 . S
C1215 H1210 0.950 . S
C1215 C1217 1.327 . S
C1215 C1221 1.429 . S
C1216 C1208 1.574 . S
C1216 H1211 0.949 . S
C1216 C1222 1.368 . S
C1217 C1201 1.349 . S
C1217 H1209 0.950 . S
C1217 C1215 1.327 . S
C1218 C1206 1.349 . S
C1218 H1212 0.950 . S
C1218 C1219 1.327 . S
C1219 H1213 0.950 . S
C1219 C1218 1.327 . S
C1219 C1223 1.429 . S
C1220 C1203 1.574 . S
C1220 H1214 0.949 . S
C1220 C1224 1.368 . S
C1221 C1202 1.429 . S
C1221 C1215 1.429 . S
C1221 C1222 1.523 . S
C1222 C1203 1.368 . S
C1222 C1216 1.368 . S
C1222 C1221 1.523 . S
C1223 C1207 1.429 . S
C1223 C1219 1.429 . S
C1223 C1224 1.523 . S
C1224 C1208 1.368 . S
C1224 C1220 1.368 . S
C1224 C1223 1.523 . S
H1225 C1200 0.950 . S
H1226 C1202 0.950 . S
H1227 C1203 0.949 . S
H1228 C1205 0.950 . S
H1229 C1207 0.950 . S
C1230 C1231 1.349 . S
C1230 C1232 1.327 . S
C1230 H1255 0.950 . S
C1231 C1230 1.349 . S
C1231 C1247 1.349 . S
C1232 C1230 1.327 . S
C1232 C1251 1.429 . S
C1232 H1256 0.950 . S
C1233 C1250 1.574 . S
C1233 C1252 1.368 . S
C1233 H1257 0.949 . S
H1234 C1238 0.949 . S
C1235 C1236 1.349 . S
C1235 C1237 1.327 . S
C1235 H1258 0.950 . S
C1236 C1235 1.349 . S
C1236 C1248 1.349 . S
C1237 C1235 1.327 . S
C1237 C1253 1.429 . S
C1237 H1259 0.950 . S
C1238 H1234 0.949 . S
C1238 C1246 1.574 . S
C1238 C1254 1.368 . S
H1239 C1247 0.950 . S
H1240 C1245 0.950 . S
H1241 C1246 0.949 . S
H1242 C1248 0.950 . S
H1243 C1249 0.950 . S
H1244 C1250 0.949 . S
C1245 H1240 0.950 . S
C1245 C1247 1.327 . S
C1245 C1251 1.429 . S
C1246 C1238 1.574 . S
C1246 H1241 0.949 . S
C1246 C1252 1.368 . S
C1247 C1231 1.349 . S
C1247 H1239 0.950 . S
C1247 C1245 1.327 . S
C1248 C1236 1.349 . S
C1248 H1242 0.950 . S
C1248 C1249 1.327 . S
C1249 H1243 0.950 . S
C1249 C1248 1.327 . S
C1249 C1253 1.429 . S
C1250 C1233 1.574 . S
C1250 H1244 0.949 . S
C1250 C1254 1.368 . S
C1251 C1232 1.429 . S
C1251 C1245 1.429 . S
C1251 C1252 1.523 . S
C1252 C1233 1.368 . S
C1252 C1246 1.368 . S
C1252 C1251 1.523 . S
C1253 C1237 1.429 . S
C1253 C1249 1.429 . S
C1253 C1254 1.523 . S
C1254 C1238 1.368 . S
C1254 C1250 1.368 . S
C1254 C1253 1.523 . S
H1255 C1230 0.950 . S
H1256 C1232 0.950 . S
H1257 C1233 0.949 . S
H1258 C1235 0.950 . S
H1259 C1237 0.950 . S
C1260 C1261 1.349 . S
C1260 C1262 1.327 . S
C1260 H1285 0.950 . S
C1261 C1260 1.349 . S
C1261 C1277 1.349 . S
C1262 C1260 1.327 . S
C1262 C1281 1.429 . S
C1262 H1286 0.950 . S
C1263 C1280 1.574 . S
C1263 C1282 1.368 . S
C1263 H1287 0.949 . S
H1264 C1268 0.949 . S
C1265 C1266 1.349 . S
C1265 C1267 1.327 . S
C1265 H1288 0.950 . S
C1266 C1265 1.349 . S
C1266 C1278 1.349 . S
C1267 C1265 1.327 . S
C1267 C1283 1.429 . S
C1267 H1289 0.950 . S
C1268 H1264 0.949 . S
C1268 C1276 1.574 . S
C1268 C1284 1.368 . S
H1269 C1277 0.950 1_455 S
H1270 C1275 0.950 . S
H1271 C1276 0.949 . S
H1272 C1278 0.950 . S
H1273 C1279 0.950 . S
H1274 C1280 0.949 . S
C1275 H1270 0.950 . S
C1275 C1277 1.327 . S
C1275 C1281 1.429 . S
C1276 C1268 1.574 . S
C1276 H1271 0.949 . S
C1276 C1282 1.368 . S
C1277 C1261 1.349 . S
C1277 H1269 0.950 1_655 S
C1277 C1275 1.327 . S
C1278 C1266 1.349 . S
C1278 H1272 0.950 . S
C1278 C1279 1.327 . S
C1279 H1273 0.950 . S
C1279 C1278 1.327 . S
C1279 C1283 1.429 . S
C1280 C1263 1.574 . S
C1280 H1274 0.949 . S
C1280 C1284 1.368 . S
C1281 C1262 1.429 . S
C1281 C1275 1.429 . S
C1281 C1282 1.523 . S
C1282 C1263 1.368 . S
C1282 C1276 1.368 . S
C1282 C1281 1.523 . S
C1283 C1267 1.429 . S
C1283 C1279 1.429 . S
C1283 C1284 1.523 . S
C1284 C1268 1.368 . S
C1284 C1280 1.368 . S
C1284 C1283 1.523 . S
H1285 C1260 0.950 . S
H1286 C1262 0.950 . S
H1287 C1263 0.949 . S
H1288 C1265 0.950 . S
H1289 C1267 0.950 . S
C1290 C1291 1.349 . S
C1290 C1292 1.327 . S
C1290 H1315 0.950 . S
C1291 C1290 1.349 . S
C1291 C1307 1.349 . S
C1292 C1290 1.327 . S
C1292 C1311 1.429 . S
C1292 H1316 0.950 . S
C1293 C1310 1.574 . S
C1293 C1312 1.368 . S
C1293 H1317 0.949 . S
H1294 C1298 0.949 . S
C1295 C1296 1.349 . S
C1295 C1297 1.327 . S
C1295 H1318 0.950 . S
C1296 C1295 1.349 . S
C1296 C1308 1.349 . S
C1297 C1295 1.327 . S
C1297 C1313 1.429 . S
C1297 H1319 0.950 . S
C1298 H1294 0.949 . S
C1298 C1306 1.574 . S
C1298 C1314 1.368 . S
H1299 C1307 0.950 . S
H1300 C1305 0.950 . S
H1301 C1306 0.949 . S
H1302 C1308 0.950 . S
H1303 C1309 0.950 . S
H1304 C1310 0.949 . S
C1305 H1300 0.950 . S
C1305 C1307 1.327 . S
C1305 C1311 1.429 . S
C1306 C1298 1.574 . S
C1306 H1301 0.949 . S
C1306 C1312 1.368 . S
C1307 C1291 1.349 . S
C1307 H1299 0.950 . S
C1307 C1305 1.327 . S
C1308 C1296 1.349 . S
C1308 H1302 0.950 . S
C1308 C1309 1.327 . S
C1309 H1303 0.950 . S
C1309 C1308 1.327 . S
C1309 C1313 1.429 . S
C1310 C1293 1.574 . S
C1310 H1304 0.949 . S
C1310 C1314 1.368 . S
C1311 C1292 1.429 . S
C1311 C1305 1.429 . S
C1311 C1312 1.523 . S
C1312 C1293 1.368 . S
C1312 C1306 1.368 . S
C1312 C1311 1.523 . S
C1313 C1297 1.429 . S
C1313 C1309 1.429 . S
C1313 C1314 1.523 . S
C1314 C1298 1.368 . S
C1314 C1310 1.368 . S
C1314 C1313 1.523 . S
H1315 C1290 0.950 . S
H1316 C1292 0.950 . S
H1317 C1293 0.949 . S
H1318 C1295 0.950 . S
H1319 C1297 0.950 . S
C1320 C1321 1.349 . S
C1320 C1322 1.327 . S
C1320 H1345 0.950 . S
C1321 C1320 1.349 . S
C1321 C1337 1.349 . S
C1322 C1320 1.327 . S
C1322 C1341 1.429 . S
C1322 H1346 0.950 . S
C1323 C1340 1.574 . S
C1323 C1342 1.368 . S
C1323 H1347 0.949 . S
H1324 C1328 0.949 . S
C1325 C1326 1.349 . S
C1325 C1327 1.327 . S
C1325 H1348 0.950 . S
C1326 C1325 1.349 . S
C1326 C1338 1.349 . S
C1327 C1325 1.327 . S
C1327 C1343 1.429 . S
C1327 H1349 0.950 . S
C1328 H1324 0.949 . S
C1328 C1336 1.574 . S
C1328 C1344 1.368 . S
H1329 C1337 0.950 . S
H1330 C1335 0.950 . S
H1331 C1336 0.949 . S
H1332 C1338 0.950 . S
H1333 C1339 0.950 . S
H1334 C1340 0.949 . S
C1335 H1330 0.950 . S
C1335 C1337 1.327 . S
C1335 C1341 1.429 . S
C1336 C1328 1.574 . S
C1336 H1331 0.949 . S
C1336 C1342 1.368 . S
C1337 C1321 1.349 . S
C1337 H1329 0.950 . S
C1337 C1335 1.327 . S
C1338 C1326 1.349 . S
C1338 H1332 0.950 . S
C1338 C1339 1.327 . S
C1339 H1333 0.950 . S
C1339 C1338 1.327 . S
C1339 C1343 1.429 . S
C1340 C1323 1.574 . S
C1340 H1334 0.949 . S
C1340 C1344 1.368 . S
C1341 C1322 1.429 . S
C1341 C1335 1.429 . S
C1341 C1342 1.523 . S
C1342 C1323 1.368 . S
C1342 C1336 1.368 . S
C1342 C1341 1.523 . S
C1343 C1327 1.429 . S
C1343 C1339 1.429 . S
C1343 C1344 1.523 . S
C1344 C1328 1.368 . S
C1344 C1340 1.368 . S
C1344 C1343 1.523 . S
H1345 C1320 0.950 . S
H1346 C1322 0.950 . S
H1347 C1323 0.949 . S
H1348 C1325 0.950 . S
H1349 C1327 0.950 . S
C1350 C1351 1.349 . S
C1350 C1352 1.327 . S
C1350 H1375 0.950 . S
C1351 C1350 1.349 . S
C1351 C1367 1.349 . S
C1352 C1350 1.327 . S
C1352 C1371 1.429 . S
C1352 H1376 0.950 . S
C1353 C1370 1.574 . S
C1353 C1372 1.368 . S
C1353 H1377 0.949 . S
H1354 C1358 0.949 . S
C1355 C1356 1.349 . S
C1355 C1357 1.327 . S
C1355 H1378 0.950 . S
C1356 C1355 1.349 . S
C1356 C1368 1.349 . S
C1357 C1355 1.327 . S
C1357 C1373 1.429 . S
C1357 H1379 0.950 . S
C1358 H1354 0.949 . S
C1358 C1366 1.574 1_455 S
C1358 C1374 1.368 . S
H1359 C1367 0.950 . S
H1360 C1365 0.950 1_455 S
H1361 C1366 0.949 . S
H1362 C1368 0.950 . S
H1363 C1369 0.950 . S
H1364 C1370 0.949 . S
C1365 H1360 0.950 1_655 S
C1365 C1367 1.327 . S
C1365 C1371 1.429 . S
C1366 C1358 1.574 1_655 S
C1366 H1361 0.949 . S
C1366 C1372 1.368 1_655 S
C1367 C1351 1.349 . S
C1367 H1359 0.950 . S
C1367 C1365 1.327 . S
C1368 C1356 1.349 . S
C1368 H1362 0.950 . S
C1368 C1369 1.327 . S
C1369 H1363 0.950 . S
C1369 C1368 1.327 . S
C1369 C1373 1.429 . S
C1370 C1353 1.574 . S
C1370 H1364 0.949 . S
C1370 C1374 1.368 . S
C1371 C1352 1.429 . S
C1371 C1365 1.429 . S
C1371 C1372 1.523 1_655 S
C1372 C1353 1.368 . S
C1372 C1366 1.368 1_455 S
C1372 C1371 1.523 1_455 S
C1373 C1357 1.429 . S
C1373 C1369 1.429 . S
C1373 C1374 1.523 . S
C1374 C1358 1.368 . S
C1374 C1370 1.368 . S
C1374 C1373 1.523 . S
H1375 C1350 0.950 . S
H1376 C1352 0.950 . S
H1377 C1353 0.949 . S
H1378 C1355 0.950 . S
H1379 C1357 0.950 . S
C1380 C1381 1.349 . S
C1380 C1382 1.327 . S
C1380 H1405 0.950 . S
C1381 C1380 1.349 . S
C1381 C1397 1.349 . S
C1382 C1380 1.327 . S
C1382 C1401 1.429 . S
C1382 H1406 0.950 . S
C1383 C1400 1.574 . S
C1383 C1402 1.368 . S
C1383 H1407 0.949 . S
H1384 C1388 0.949 . S
C1385 C1386 1.349 . S
C1385 C1387 1.327 . S
C1385 H1408 0.950 . S
C1386 C1385 1.349 . S
C1386 C1398 1.349 . S
C1387 C1385 1.327 . S
C1387 C1403 1.429 . S
C1387 H1409 0.950 . S
C1388 H1384 0.949 . S
C1388 C1396 1.574 . S
C1388 C1404 1.368 . S
H1389 C1397 0.950 . S
H1390 C1395 0.950 . S
H1391 C1396 0.949 . S
H1392 C1398 0.950 . S
H1393 C1399 0.950 . S
H1394 C1400 0.949 . S
C1395 H1390 0.950 . S
C1395 C1397 1.327 . S
C1395 C1401 1.429 . S
C1396 C1388 1.574 . S
C1396 H1391 0.949 . S
C1396 C1402 1.368 . S
C1397 C1381 1.349 . S
C1397 H1389 0.950 . S
C1397 C1395 1.327 . S
C1398 C1386 1.349 . S
C1398 H1392 0.950 . S
C1398 C1399 1.327 . S
C1399 H1393 0.950 . S
C1399 C1398 1.327 . S
C1399 C1403 1.429 . S
C1400 C1383 1.574 . S
C1400 H1394 0.949 . S
C1400 C1404 1.368 . S
C1401 C1382 1.429 . S
C1401 C1395 1.429 . S
C1401 C1402 1.523 . S
C1402 C1383 1.368 . S
C1402 C1396 1.368 . S
C1402 C1401 1.523 . S
C1403 C1387 1.429 . S
C1403 C1399 1.429 . S
C1403 C1404 1.523 . S
C1404 C1388 1.368 . S
C1404 C1400 1.368 . S
C1404 C1403 1.523 . S
H1405 C1380 0.950 . S
H1406 C1382 0.950 . S
H1407 C1383 0.949 . S
H1408 C1385 0.950 . S
H1409 C1387 0.950 . S
C1410 C1411 1.349 . S
C1410 C1412 1.327 . S
C1410 H1435 0.950 . S
C1411 C1410 1.349 . S
C1411 C1427 1.349 . S
C1412 C1410 1.327 . S
C1412 C1431 1.429 . S
C1412 H1436 0.950 1_565 S
C1413 C1430 1.574 1_565 S
C1413 C1432 1.368 1_565 S
C1413 H1437 0.949 . S
H1414 C1418 0.949 . S
C1415 C1416 1.349 . S
C1415 C1417 1.327 . S
C1415 H1438 0.950 . S
C1416 C1415 1.349 . S
C1416 C1428 1.349 . S
C1417 C1415 1.327 . S
C1417 C1433 1.429 . S
C1417 H1439 0.950 . S
C1418 H1414 0.949 . S
C1418 C1426 1.574 . S
C1418 C1434 1.368 . S
H1419 C1427 0.950 . S
H1420 C1425 0.950 . S
H1421 C1426 0.949 . S
H1422 C1428 0.950 . S
H1423 C1429 0.950 . S
H1424 C1430 0.949 . S
C1425 H1420 0.950 . S
C1425 C1427 1.327 . S
C1425 C1431 1.429 . S
C1426 C1418 1.574 . S
C1426 H1421 0.949 . S
C1426 C1432 1.368 . S
C1427 C1411 1.349 . S
C1427 H1419 0.950 . S
C1427 C1425 1.327 . S
C1428 C1416 1.349 . S
C1428 H1422 0.950 . S
C1428 C1429 1.327 . S
C1429 H1423 0.950 . S
C1429 C1428 1.327 . S
C1429 C1433 1.429 . S
C1430 C1413 1.574 1_545 S
C1430 H1424 0.949 . S
C1430 C1434 1.368 . S
C1431 C1412 1.429 . S
C1431 C1425 1.429 . S
C1431 C1432 1.523 1_565 S
C1432 C1413 1.368 1_545 S
C1432 C1426 1.368 . S
C1432 C1431 1.523 1_545 S
C1433 C1417 1.429 . S
C1433 C1429 1.429 . S
C1433 C1434 1.523 . S
C1434 C1418 1.368 . S
C1434 C1430 1.368 . S
C1434 C1433 1.523 . S
H1435 C1410 0.950 . S
H1436 C1412 0.950 1_545 S
H1437 C1413 0.949 . S
H1438 C1415 0.950 . S
H1439 C1417 0.950 . S
C1440 C1441 1.349 . S
C1440 C1442 1.327 . S
C1440 H1465 0.950 . S
C1441 C1440 1.349 . S
C1441 C1457 1.349 . S
C1442 C1440 1.327 . S
C1442 C1461 1.429 . S
C1442 H1466 0.950 . S
C1443 C1460 1.574 . S
C1443 C1462 1.368 . S
C1443 H1467 0.949 . S
H1444 C1448 0.949 . S
C1445 C1446 1.349 . S
C1445 C1447 1.327 . S
C1445 H1468 0.950 . S
C1446 C1445 1.349 . S
C1446 C1458 1.349 . S
C1447 C1445 1.327 . S
C1447 C1463 1.429 . S
C1447 H1469 0.950 . S
C1448 H1444 0.949 . S
C1448 C1456 1.574 . S
C1448 C1464 1.368 . S
H1449 C1457 0.950 . S
H1450 C1455 0.950 . S
H1451 C1456 0.949 . S
H1452 C1458 0.950 . S
H1453 C1459 0.950 . S
H1454 C1460 0.949 . S
C1455 H1450 0.950 . S
C1455 C1457 1.327 . S
C1455 C1461 1.429 . S
C1456 C1448 1.574 . S
C1456 H1451 0.949 . S
C1456 C1462 1.368 . S
C1457 C1441 1.349 . S
C1457 H1449 0.950 . S
C1457 C1455 1.327 . S
C1458 C1446 1.349 . S
C1458 H1452 0.950 . S
C1458 C1459 1.327 . S
C1459 H1453 0.950 . S
C1459 C1458 1.327 . S
C1459 C1463 1.429 . S
C1460 C1443 1.574 . S
C1460 H1454 0.949 . S
C1460 C1464 1.368 . S
C1461 C1442 1.429 . S
C1461 C1455 1.429 . S
C1461 C1462 1.523 . S
C1462 C1443 1.368 . S
C1462 C1456 1.368 . S
C1462 C1461 1.523 . S
C1463 C1447 1.429 . S
C1463 C1459 1.429 . S
C1463 C1464 1.523 . S
C1464 C1448 1.368 . S
C1464 C1460 1.368 . S
C1464 C1463 1.523 . S
H1465 C1440 0.950 . S
H1466 C1442 0.950 . S
H1467 C1443 0.949 . S
H1468 C1445 0.950 . S
H1469 C1447 0.950 . S
C1470 C1471 1.349 . S
C1470 C1472 1.327 . S
C1470 H1495 0.950 . S
C1471 C1470 1.349 . S
C1471 C1487 1.349 . S
C1472 C1470 1.327 . S
C1472 C1491 1.429 . S
C1472 H1496 0.950 . S
C1473 C1490 1.574 . S
C1473 C1492 1.368 . S
C1473 H1497 0.949 . S
H1474 C1478 0.949 . S
C1475 C1476 1.349 . S
C1475 C1477 1.327 . S
C1475 H1498 0.950 . S
C1476 C1475 1.349 . S
C1476 C1488 1.349 . S
C1477 C1475 1.327 . S
C1477 C1493 1.429 . S
C1477 H1499 0.950 . S
C1478 H1474 0.949 . S
C1478 C1486 1.574 . S
C1478 C1494 1.368 . S
H1479 C1487 0.950 . S
H1480 C1485 0.950 . S
H1481 C1486 0.949 . S
H1482 C1488 0.950 . S
H1483 C1489 0.950 . S
H1484 C1490 0.949 . S
C1485 H1480 0.950 . S
C1485 C1487 1.327 . S
C1485 C1491 1.429 . S
C1486 C1478 1.574 . S
C1486 H1481 0.949 . S
C1486 C1492 1.368 . S
C1487 C1471 1.349 . S
C1487 H1479 0.950 . S
C1487 C1485 1.327 . S
C1488 C1476 1.349 . S
C1488 H1482 0.950 . S
C1488 C1489 1.327 . S
C1489 H1483 0.950 . S
C1489 C1488 1.327 . S
C1489 C1493 1.429 . S
C1490 C1473 1.574 . S
C1490 H1484 0.949 . S
C1490 C1494 1.368 . S
C1491 C1472 1.429 . S
C1491 C1485 1.429 . S
C1491 C1492 1.523 . S
C1492 C1473 1.368 . S
C1492 C1486 1.368 . S
C1492 C1491 1.523 . S
C1493 C1477 1.429 . S
C1493 C1489 1.429 . S
C1493 C1494 1.523 . S
C1494 C1478 1.368 . S
C1494 C1490 1.368 . S
C1494 C1493 1.523 . S
H1495 C1470 0.950 . S
H1496 C1472 0.950 . S
H1497 C1473 0.949 . S
H1498 C1475 0.950 . S
H1499 C1477 0.950 . S
C1500 C1501 1.349 . S
C1500 C1502 1.327 . S
C1500 H1525 0.950 . S
C1501 C1500 1.349 . S
C1501 C1517 1.349 . S
C1502 C1500 1.327 . S
C1502 C1521 1.429 . S
C1502 H1526 0.950 . S
C1503 C1520 1.574 . S
C1503 C1522 1.368 . S
C1503 H1527 0.949 . S
H1504 C1508 0.949 . S
C1505 C1506 1.349 . S
C1505 C1507 1.327 . S
C1505 H1528 0.950 . S
C1506 C1505 1.349 . S
C1506 C1518 1.349 . S
C1507 C1505 1.327 . S
C1507 C1523 1.429 . S
C1507 H1529 0.950 . S
C1508 H1504 0.949 . S
C1508 C1516 1.574 . S
C1508 C1524 1.368 . S
H1509 C1517 0.950 . S
H1510 C1515 0.950 . S
H1511 C1516 0.949 . S
H1512 C1518 0.950 . S
H1513 C1519 0.950 . S
H1514 C1520 0.949 . S
C1515 H1510 0.950 . S
C1515 C1517 1.327 . S
C1515 C1521 1.429 . S
C1516 C1508 1.574 . S
C1516 H1511 0.949 . S
C1516 C1522 1.368 . S
C1517 C1501 1.349 . S
C1517 H1509 0.950 . S
C1517 C1515 1.327 . S
C1518 C1506 1.349 . S
C1518 H1512 0.950 . S
C1518 C1519 1.327 . S
C1519 H1513 0.950 . S
C1519 C1518 1.327 . S
C1519 C1523 1.429 . S
C1520 C1503 1.574 . S
C1520 H1514 0.949 . S
C1520 C1524 1.368 . S
C1521 C1502 1.429 . S
C1521 C1515 1.429 . S
C1521 C1522 1.523 . S
C1522 C1503 1.368 . S
C1522 C1516 1.368 . S
C1522 C1521 1.523 . S
C1523 C1507 1.429 . S
C1523 C1519 1.429 . S
C1523 C1524 1.523 . S
C1524 C1508 1.368 . S
C1524 C1520 1.368 . S
C1524 C1523 1.523 . S
H1525 C1500 0.950 . S
H1526 C1502 0.950 . S
H1527 C1503 0.949 . S
H1528 C1505 0.950 . S
H1529 C1507 0.950 . S
C1530 C1531 1.349 . S
C1530 C1532 1.327 . S
C1530 H1555 0.950 . S
C1531 C1530 1.349 . S
C1531 C1547 1.349 . S
C1532 C1530 1.327 . S
C1532 C1551 1.429 . S
C1532 H1556 0.950 . S
C1533 C1550 1.574 . S
C1533 C1552 1.368 . S
C1533 H1557 0.949 . S
H1534 C1538 0.949 . S
C1535 C1536 1.349 . S
C1535 C1537 1.327 . S
C1535 H1558 0.950 . S
C1536 C1535 1.349 . S
C1536 C1548 1.349 . S
C1537 C1535 1.327 . S
C1537 C1553 1.429 . S
C1537 H1559 0.950 . S
C1538 H1534 0.949 . S
C1538 C1546 1.574 . S
C1538 C1554 1.368 . S
H1539 C1547 0.950 . S
H1540 C1545 0.950 . S
H1541 C1546 0.949 . S
H1542 C1548 0.950 . S
H1543 C1549 0.950 . S
H1544 C1550 0.949 . S
C1545 H1540 0.950 . S
C1545 C1547 1.327 . S
C1545 C1551 1.429 . S
C1546 C1538 1.574 . S
C1546 H1541 0.949 . S
C1546 C1552 1.368 . S
C1547 C1531 1.349 . S
C1547 H1539 0.950 . S
C1547 C1545 1.327 . S
C1548 C1536 1.349 . S
C1548 H1542 0.950 . S
C1548 C1549 1.327 . S
C1549 H1543 0.950 . S
C1549 C1548 1.327 . S
C1549 C1553 1.429 . S
C1550 C1533 1.574 . S
C1550 H1544 0.949 . S
C1550 C1554 1.368 . S
C1551 C1532 1.429 . S
C1551 C1545 1.429 . S
C1551 C1552 1.523 . S
C1552 C1533 1.368 . S
C1552 C1546 1.368 . S
C1552 C1551 1.523 . S
C1553 C1537 1.429 . S
C1553 C1549 1.429 . S
C1553 C1554 1.523 . S
C1554 C1538 1.368 . S
C1554 C1550 1.368 . S
C1554 C1553 1.523 . S
H1555 C1530 0.950 . S
H1556 C1532 0.950 . S
H1557 C1533 0.949 . S
H1558 C1535 0.950 . S
H1559 C1537 0.950 . S
C1560 C1561 1.349 . S
C1560 C1562 1.327 . S
C1560 H1585 0.950 . S
C1561 C1560 1.349 . S
C1561 C1577 1.349 . S
C1562 C1560 1.327 . S
C1562 C1581 1.429 . S
C1562 H1586 0.950 . S
C1563 C1580 1.574 . S
C1563 C1582 1.368 . S
C1563 H1587 0.949 . S
H1564 C1568 0.949 . S
C1565 C1566 1.349 . S
C1565 C1567 1.327 . S
C1565 H1588 0.950 . S
C1566 C1565 1.349 . S
C1566 C1578 1.349 . S
C1567 C1565 1.327 . S
C1567 C1583 1.429 . S
C1567 H1589 0.950 . S
C1568 H1564 0.949 . S
C1568 C1576 1.574 . S
C1568 C1584 1.368 . S
H1569 C1577 0.950 . S
H1570 C1575 0.950 . S
H1571 C1576 0.949 . S
H1572 C1578 0.950 . S
H1573 C1579 0.950 . S
H1574 C1580 0.949 . S
C1575 H1570 0.950 . S
C1575 C1577 1.327 . S
C1575 C1581 1.429 . S
C1576 C1568 1.574 . S
C1576 H1571 0.949 . S
C1576 C1582 1.368 . S
C1577 C1561 1.349 . S
C1577 H1569 0.950 . S
C1577 C1575 1.327 . S
C1578 C1566 1.349 . S
C1578 H1572 0.950 . S
C1578 C1579 1.327 . S
C1579 H1573 0.950 . S
C1579 C1578 1.327 . S
C1579 C1583 1.429 . S
C1580 C1563 1.574 . S
C1580 H1574 0.949 . S
C1580 C1584 1.368 . S
C1581 C1562 1.429 . S
C1581 C1575 1.429 . S
C1581 C1582 1.523 . S
C1582 C1563 1.368 . S
C1582 C1576 1.368 . S
C1582 C1581 1.523 . S
C1583 C1567 1.429 . S
C1583 C1579 1.429 . S
C1583 C1584 1.523 . S
C1584 C1568 1.368 . S
C1584 C1580 1.368 . S
C1584 C1583 1.523 . S
H1585 C1560 0.950 . S
H1586 C1562 0.950 . S
H1587 C1563 0.949 . S
H1588 C1565 0.950 . S
H1589 C1567 0.950 . S
C1590 C1591 1.349 . S
C1590 C1592 1.327 . S
C1590 H1615 0.950 . S
C1591 C1590 1.349 . S
C1591 C1607 1.349 . S
C1592 C1590 1.327 . S
C1592 C1611 1.429 . S
C1592 H1616 0.950 . S
C1593 C1610 1.574 . S
C1593 C1612 1.368 . S
C1593 H1617 0.949 . S
H1594 C1598 0.949 . S
C1595 C1596 1.349 . S
C1595 C1597 1.327 . S
C1595 H1618 0.950 . S
C1596 C1595 1.349 . S
C1596 C1608 1.349 . S
C1597 C1595 1.327 . S
C1597 C1613 1.429 . S
C1597 H1619 0.950 . S
C1598 H1594 0.949 . S
C1598 C1606 1.574 . S
C1598 C1614 1.368 . S
H1599 C1607 0.950 . S
H1600 C1605 0.950 . S
H1601 C1606 0.949 . S
H1602 C1608 0.950 . S
H1603 C1609 0.950 . S
H1604 C1610 0.949 . S
C1605 H1600 0.950 . S
C1605 C1607 1.327 . S
C1605 C1611 1.429 . S
C1606 C1598 1.574 . S
C1606 H1601 0.949 . S
C1606 C1612 1.368 . S
C1607 C1591 1.349 . S
C1607 H1599 0.950 . S
C1607 C1605 1.327 . S
C1608 C1596 1.349 . S
C1608 H1602 0.950 . S
C1608 C1609 1.327 . S
C1609 H1603 0.950 . S
C1609 C1608 1.327 . S
C1609 C1613 1.429 . S
C1610 C1593 1.574 . S
C1610 H1604 0.949 . S
C1610 C1614 1.368 . S
C1611 C1592 1.429 . S
C1611 C1605 1.429 . S
C1611 C1612 1.523 . S
C1612 C1593 1.368 . S
C1612 C1606 1.368 . S
C1612 C1611 1.523 . S
C1613 C1597 1.429 . S
C1613 C1609 1.429 . S
C1613 C1614 1.523 . S
C1614 C1598 1.368 . S
C1614 C1610 1.368 . S
C1614 C1613 1.523 . S
H1615 C1590 0.950 . S
H1616 C1592 0.950 . S
H1617 C1593 0.949 . S
H1618 C1595 0.950 . S
H1619 C1597 0.950 . S
C1620 C1621 1.349 . S
C1620 C1622 1.327 . S
C1620 H1645 0.950 . S
C1621 C1620 1.349 . S
C1621 C1637 1.349 . S
C1622 C1620 1.327 . S
C1622 C1641 1.429 . S
C1622 H1646 0.950 . S
C1623 C1640 1.574 . S
C1623 C1642 1.368 . S
C1623 H1647 0.949 . S
H1624 C1628 0.949 . S
C1625 C1626 1.349 . S
C1625 C1627 1.327 . S
C1625 H1648 0.950 . S
C1626 C1625 1.349 . S
C1626 C1638 1.349 . S
C1627 C1625 1.327 . S
C1627 C1643 1.429 . S
C1627 H1649 0.950 . S
C1628 H1624 0.949 . S
C1628 C1636 1.574 . S
C1628 C1644 1.368 . S
H1629 C1637 0.950 . S
H1630 C1635 0.950 . S
H1631 C1636 0.949 . S
H1632 C1638 0.950 . S
H1633 C1639 0.950 . S
H1634 C1640 0.949 . S
C1635 H1630 0.950 . S
C1635 C1637 1.327 . S
C1635 C1641 1.429 . S
C1636 C1628 1.574 . S
C1636 H1631 0.949 . S
C1636 C1642 1.368 . S
C1637 C1621 1.349 . S
C1637 H1629 0.950 . S
C1637 C1635 1.327 . S
C1638 C1626 1.349 . S
C1638 H1632 0.950 . S
C1638 C1639 1.327 . S
C1639 H1633 0.950 . S
C1639 C1638 1.327 . S
C1639 C1643 1.429 . S
C1640 C1623 1.574 . S
C1640 H1634 0.949 . S
C1640 C1644 1.368 . S
C1641 C1622 1.429 . S
C1641 C1635 1.429 . S
C1641 C1642 1.523 . S
C1642 C1623 1.368 . S
C1642 C1636 1.368 . S
C1642 C1641 1.523 . S
C1643 C1627 1.429 . S
C1643 C1639 1.429 . S
C1643 C1644 1.523 . S
C1644 C1628 1.368 . S
C1644 C1640 1.368 . S
C1644 C1643 1.523 . S
H1645 C1620 0.950 . S
H1646 C1622 0.950 . S
H1647 C1623 0.949 . S
H1648 C1625 0.950 . S
H1649 C1627 0.950 . S
C1650 C1651 1.349 . S
C1650 C1652 1.327 . S
C1650 H1675 0.950 . S
C1651 C1650 1.349 . S
C1651 C1667 1.349 . S
C1652 C1650 1.327 . S
C1652 C1671 1.429 . S
C1652 H1676 0.950 . S
C1653 C1670 1.574 . S
C1653 C1672 1.368 . S
C1653 H1677 0.949 . S
H1654 C1658 0.949 . S
C1655 C1656 1.349 . S
C1655 C1657 1.327 . S
C1655 H1678 0.950 . S
C1656 C1655 1.349 . S
C1656 C1668 1.349 . S
C1657 C1655 1.327 . S
C1657 C1673 1.429 . S
C1657 H1679 0.950 . S
C1658 H1654 0.949 . S
C1658 C1666 1.574 . S
C1658 C1674 1.368 . S
H1659 C1667 0.950 . S
H1660 C1665 0.950 . S
H1661 C1666 0.949 . S
H1662 C1668 0.950 . S
H1663 C1669 0.950 . S
H1664 C1670 0.949 . S
C1665 H1660 0.950 . S
C1665 C1667 1.327 . S
C1665 C1671 1.429 . S
C1666 C1658 1.574 . S
C1666 H1661 0.949 . S
C1666 C1672 1.368 . S
C1667 C1651 1.349 . S
C1667 H1659 0.950 . S
C1667 C1665 1.327 . S
C1668 C1656 1.349 . S
C1668 H1662 0.950 . S
C1668 C1669 1.327 . S
C1669 H1663 0.950 . S
C1669 C1668 1.327 . S
C1669 C1673 1.429 . S
C1670 C1653 1.574 . S
C1670 H1664 0.949 . S
C1670 C1674 1.368 . S
C1671 C1652 1.429 . S
C1671 C1665 1.429 . S
C1671 C1672 1.523 . S
C1672 C1653 1.368 . S
C1672 C1666 1.368 . S
C1672 C1671 1.523 . S
C1673 C1657 1.429 . S
C1673 C1669 1.429 . S
C1673 C1674 1.523 . S
C1674 C1658 1.368 . S
C1674 C1670 1.368 . S
C1674 C1673 1.523 . S
H1675 C1650 0.950 . S
H1676 C1652 0.950 . S
H1677 C1653 0.949 . S
H1678 C1655 0.950 . S
H1679 C1657 0.950 . S
C1680 C1681 1.349 . S
C1680 C1682 1.327 . S
C1680 H1705 0.950 . S
C1681 C1680 1.349 . S
C1681 C1697 1.349 . S
C1682 C1680 1.327 . S
C1682 C1701 1.429 . S
C1682 H1706 0.950 . S
C1683 C1700 1.574 . S
C1683 C1702 1.368 . S
C1683 H1707 0.949 . S
H1684 C1688 0.949 . S
C1685 C1686 1.349 . S
C1685 C1687 1.327 . S
C1685 H1708 0.950 . S
C1686 C1685 1.349 . S
C1686 C1698 1.349 . S
C1687 C1685 1.327 . S
C1687 C1703 1.429 . S
C1687 H1709 0.950 . S
C1688 H1684 0.949 . S
C1688 C1696 1.574 . S
C1688 C1704 1.368 . S
H1689 C1697 0.950 . S
H1690 C1695 0.950 . S
H1691 C1696 0.949 . S
H1692 C1698 0.950 . S
H1693 C1699 0.950 . S
H1694 C1700 0.949 . S
C1695 H1690 0.950 . S
C1695 C1697 1.327 . S
C1695 C1701 1.429 . S
C1696 C1688 1.574 . S
C1696 H1691 0.949 . S
C1696 C1702 1.368 . S
C1697 C1681 1.349 . S
C1697 H1689 0.950 . S
C1697 C1695 1.327 . S
C1698 C1686 1.349 . S
C1698 H1692 0.950 . S
C1698 C1699 1.327 . S
C1699 H1693 0.950 . S
C1699 C1698 1.327 . S
C1699 C1703 1.429 . S
C1700 C1683 1.574 . S
C1700 H1694 0.949 . S
C1700 C1704 1.368 . S
C1701 C1682 1.429 . S
C1701 C1695 1.429 . S
C1701 C1702 1.523 . S
C1702 C1683 1.368 . S
C1702 C1696 1.368 . S
C1702 C1701 1.523 . S
C1703 C1687 1.429 . S
C1703 C1699 1.429 . S
C1703 C1704 1.523 . S
C1704 C1688 1.368 . S
C1704 C1700 1.368 . S
C1704 C1703 1.523 . S
H1705 C1680 0.950 . S
H1706 C1682 0.950 . S
H1707 C1683 0.949 . S
H1708 C1685 0.950 . S
H1709 C1687 0.950 . S
C1710 C1711 1.349 . S
C1710 C1712 1.327 . S
C1710 H1735 0.950 . S
C1711 C1710 1.349 . S
C1711 C1727 1.349 . S
C1712 C1710 1.327 . S
C1712 C1731 1.429 . S
C1712 H1736 0.950 . S
C1713 C1730 1.574 . S
C1713 C1732 1.368 . S
C1713 H1737 0.949 . S
H1714 C1718 0.949 . S
C1715 C1716 1.349 . S
C1715 C1717 1.327 . S
C1715 H1738 0.950 . S
C1716 C1715 1.349 . S
C1716 C1728 1.349 . S
C1717 C1715 1.327 . S
C1717 C1733 1.429 . S
C1717 H1739 0.950 . S
C1718 H1714 0.949 . S
C1718 C1726 1.574 . S
C1718 C1734 1.368 . S
H1719 C1727 0.950 . S
H1720 C1725 0.950 . S
H1721 C1726 0.949 . S
H1722 C1728 0.950 . S
H1723 C1729 0.950 . S
H1724 C1730 0.949 1_455 S
C1725 H1720 0.950 . S
C1725 C1727 1.327 . S
C1725 C1731 1.429 . S
C1726 C1718 1.574 . S
C1726 H1721 0.949 . S
C1726 C1732 1.368 . S
C1727 C1711 1.349 . S
C1727 H1719 0.950 . S
C1727 C1725 1.327 . S
C1728 C1716 1.349 . S
C1728 H1722 0.950 . S
C1728 C1729 1.327 . S
C1729 H1723 0.950 . S
C1729 C1728 1.327 . S
C1729 C1733 1.429 . S
C1730 C1713 1.574 . S
C1730 H1724 0.949 1_655 S
C1730 C1734 1.368 . S
C1731 C1712 1.429 . S
C1731 C1725 1.429 . S
C1731 C1732 1.523 . S
C1732 C1713 1.368 . S
C1732 C1726 1.368 . S
C1732 C1731 1.523 . S
C1733 C1717 1.429 . S
C1733 C1729 1.429 . S
C1733 C1734 1.523 1_455 S
C1734 C1718 1.368 . S
C1734 C1730 1.368 . S
C1734 C1733 1.523 1_655 S
H1735 C1710 0.950 . S
H1736 C1712 0.950 . S
H1737 C1713 0.949 . S
H1738 C1715 0.950 . S
H1739 C1717 0.950 . S
C1740 C1741 1.349 . S
C1740 C1742 1.327 . S
C1740 H1765 0.950 . S
C1741 C1740 1.349 . S
C1741 C1757 1.349 . S
C1742 C1740 1.327 . S
C1742 C1761 1.429 . S
C1742 H1766 0.950 . S
C1743 C1760 1.574 . S
C1743 C1762 1.368 . S
C1743 H1767 0.949 . S
H1744 C1748 0.949 . S
C1745 C1746 1.349 . S
C1745 C1747 1.327 . S
C1745 H1768 0.950 . S
C1746 C1745 1.349 . S
C1746 C1758 1.349 . S
C1747 C1745 1.327 . S
C1747 C1763 1.429 . S
C1747 H1769 0.950 . S
C1748 H1744 0.949 . S
C1748 C1756 1.574 . S
C1748 C1764 1.368 . S
H1749 C1757 0.950 . S
H1750 C1755 0.950 . S
H1751 C1756 0.949 . S
H1752 C1758 0.950 . S
H1753 C1759 0.950 . S
H1754 C1760 0.949 . S
C1755 H1750 0.950 . S
C1755 C1757 1.327 . S
C1755 C1761 1.429 . S
C1756 C1748 1.574 . S
C1756 H1751 0.949 . S
C1756 C1762 1.368 . S
C1757 C1741 1.349 . S
C1757 H1749 0.950 . S
C1757 C1755 1.327 . S
C1758 C1746 1.349 . S
C1758 H1752 0.950 . S
C1758 C1759 1.327 . S
C1759 H1753 0.950 . S
C1759 C1758 1.327 . S
C1759 C1763 1.429 . S
C1760 C1743 1.574 . S
C1760 H1754 0.949 . S
C1760 C1764 1.368 . S
C1761 C1742 1.429 . S
C1761 C1755 1.429 . S
C1761 C1762 1.523 . S
C1762 C1743 1.368 . S
C1762 C1756 1.368 . S
C1762 C1761 1.523 . S
C1763 C1747 1.429 . S
C1763 C1759 1.429 . S
C1763 C1764 1.523 . S
C1764 C1748 1.368 . S
C1764 C1760 1.368 . S
C1764 C1763 1.523 . S
H1765 C1740 0.950 . S
H1766 C1742 0.950 . S
H1767 C1743 0.949 . S
H1768 C1745 0.950 . S
H1769 C1747 0.950 . S
C1770 C1771 1.349 . S
C1770 C1772 1.327 1_565 S
C1770 H1795 0.950 . S
C1771 C1770 1.349 . S
C1771 C1787 1.349 . S
C1772 C1770 1.327 1_545 S
C1772 C1791 1.429 . S
C1772 H1796 0.950 . S
C1773 C1790 1.574 . S
C1773 C1792 1.368 . S
C1773 H1797 0.949 . S
H1774 C1778 0.949 . S
C1775 C1776 1.349 . S
C1775 C1777 1.327 1_455 S
C1775 H1798 0.950 . S
C1776 C1775 1.349 . S
C1776 C1788 1.349 . S
C1777 C1775 1.327 1_655 S
C1777 C1793 1.429 . S
C1777 H1799 0.950 . S
C1778 H1774 0.949 . S
C1778 C1786 1.574 . S
C1778 C1794 1.368 . S
H1779 C1787 0.950 . S
H1780 C1785 0.950 . S
H1781 C1786 0.949 . S
H1782 C1788 0.950 . S
H1783 C1789 0.950 . S
H1784 C1790 0.949 . S
C1785 H1780 0.950 . S
C1785 C1787 1.327 1_545 S
C1785 C1791 1.429 . S
C1786 C1778 1.574 . S
C1786 H1781 0.949 . S
C1786 C1792 1.368 . S
C1787 C1771 1.349 . S
C1787 H1779 0.950 . S
C1787 C1785 1.327 1_565 S
C1788 C1776 1.349 . S
C1788 H1782 0.950 . S
C1788 C1789 1.327 . S
C1789 H1783 0.950 . S
C1789 C1788 1.327 . S
C1789 C1793 1.429 1_455 S
C1790 C1773 1.574 . S
C1790 H1784 0.949 . S
C1790 C1794 1.368 . S
C1791 C1772 1.429 . S
C1791 C1785 1.429 . S
C1791 C1792 1.523 . S
C1792 C1773 1.368 . S
C1792 C1786 1.368 . S
C1792 C1791 1.523 . S
C1793 C1777 1.429 . S
C1793 C1789 1.429 1_655 S
C1793 C1794 1.523 . S
C1794 C1778 1.368 . S
C1794 C1790 1.368 . S
C1794 C1793 1.523 . S
H1795 C1770 0.950 . S
H1796 C1772 0.950 . S
H1797 C1773 0.949 . S
H1798 C1775 0.950 . S
H1799 C1777 0.950 . S
C1800 C1801 1.349 . S
C1800 C1802 1.327 . S
C1800 H1825 0.950 . S
C1801 C1800 1.349 . S
C1801 C1817 1.349 . S
C1802 C1800 1.327 . S
C1802 C1821 1.429 . S
C1802 H1826 0.950 . S
C1803 C1820 1.574 . S
C1803 C1822 1.368 . S
C1803 H1827 0.949 . S
H1804 C1808 0.949 . S
C1805 C1806 1.349 . S
C1805 C1807 1.327 . S
C1805 H1828 0.950 . S
C1806 C1805 1.349 . S
C1806 C1818 1.349 . S
C1807 C1805 1.327 . S
C1807 C1823 1.429 . S
C1807 H1829 0.950 . S
C1808 H1804 0.949 . S
C1808 C1816 1.574 . S
C1808 C1824 1.368 . S
H1809 C1817 0.950 . S
H1810 C1815 0.950 . S
H1811 C1816 0.949 . S
H1812 C1818 0.950 . S
H1813 C1819 0.950 . S
H1814 C1820 0.949 1_545 S
C1815 H1810 0.950 . S
C1815 C1817 1.327 . S
C1815 C1821 1.429 . S
C1816 C1808 1.574 . S
C1816 H1811 0.949 . S
C1816 C1822 1.368 . S
C1817 C1801 1.349 . S
C1817 H1809 0.950 . S
C1817 C1815 1.327 . S
C1818 C1806 1.349 . S
C1818 H1812 0.950 . S
C1818 C1819 1.327 . S
C1819 H1813 0.950 . S
C1819 C1818 1.327 . S
C1819 C1823 1.429 . S
C1820 C1803 1.574 . S
C1820 H1814 0.949 1_565 S
C1820 C1824 1.368 . S
C1821 C1802 1.429 . S
C1821 C1815 1.429 . S
C1821 C1822 1.523 . S
C1822 C1803 1.368 . S
C1822 C1816 1.368 . S
C1822 C1821 1.523 . S
C1823 C1807 1.429 . S
C1823 C1819 1.429 . S
C1823 C1824 1.523 1_545 S
C1824 C1808 1.368 . S
C1824 C1820 1.368 . S
C1824 C1823 1.523 1_565 S
H1825 C1800 0.950 . S
H1826 C1802 0.950 . S
H1827 C1803 0.949 . S
H1828 C1805 0.950 . S
H1829 C1807 0.950 . S
C1830 C1831 1.349 . S
C1830 C1832 1.327 . S
C1830 H1855 0.950 . S
C1831 C1830 1.349 . S
C1831 C1847 1.349 . S
C1832 C1830 1.327 . S
C1832 C1851 1.429 1_545 S
C1832 H1856 0.950 . S
C1833 C1850 1.574 . S
C1833 C1852 1.368 . S
C1833 H1857 0.949 . S
H1834 C1838 0.949 . S
C1835 C1836 1.349 . S
C1835 C1837 1.327 1_655 S
C1835 H1858 0.950 . S
C1836 C1835 1.349 . S
C1836 C1848 1.349 . S
C1837 C1835 1.327 1_455 S
C1837 C1853 1.429 . S
C1837 H1859 0.950 . S
C1838 H1834 0.949 . S
C1838 C1846 1.574 . S
C1838 C1854 1.368 . S
H1839 C1847 0.950 . S
H1840 C1845 0.950 . S
H1841 C1846 0.949 . S
H1842 C1848 0.950 . S
H1843 C1849 0.950 . S
H1844 C1850 0.949 . S
C1845 H1840 0.950 . S
C1845 C1847 1.327 1_565 S
C1845 C1851 1.429 . S
C1846 C1838 1.574 . S
C1846 H1841 0.949 . S
C1846 C1852 1.368 . S
C1847 C1831 1.349 . S
C1847 H1839 0.950 . S
C1847 C1845 1.327 1_545 S
C1848 C1836 1.349 . S
C1848 H1842 0.950 . S
C1848 C1849 1.327 1_655 S
C1849 H1843 0.950 . S
C1849 C1848 1.327 1_455 S
C1849 C1853 1.429 . S
C1850 C1833 1.574 . S
C1850 H1844 0.949 . S
C1850 C1854 1.368 . S
C1851 C1832 1.429 1_565 S
C1851 C1845 1.429 . S
C1851 C1852 1.523 . S
C1852 C1833 1.368 . S
C1852 C1846 1.368 . S
C1852 C1851 1.523 . S
C1853 C1837 1.429 . S
C1853 C1849 1.429 . S
C1853 C1854 1.523 . S
C1854 C1838 1.368 . S
C1854 C1850 1.368 . S
C1854 C1853 1.523 . S
H1855 C1830 0.950 . S
H1856 C1832 0.950 . S
H1857 C1833 0.949 . S
H1858 C1835 0.950 . S
H1859 C1837 0.950 . S
C1860 C1861 1.349 . S
C1860 C1862 1.327 . S
C1860 H1885 0.950 . S
C1861 C1860 1.349 . S
C1861 C1877 1.349 . S
C1862 C1860 1.327 . S
C1862 C1881 1.429 . S
C1862 H1886 0.950 . S
C1863 C1880 1.574 . S
C1863 C1882 1.368 . S
C1863 H1887 0.949 . S
H1864 C1868 0.949 . S
C1865 C1866 1.349 . S
C1865 C1867 1.327 . S
C1865 H1888 0.950 . S
C1866 C1865 1.349 . S
C1866 C1878 1.349 . S
C1867 C1865 1.327 . S
C1867 C1883 1.429 . S
C1867 H1889 0.950 . S
C1868 H1864 0.949 . S
C1868 C1876 1.574 . S
C1868 C1884 1.368 . S
H1869 C1877 0.950 . S
H1870 C1875 0.950 . S
H1871 C1876 0.949 . S
H1872 C1878 0.950 1_655 S
H1873 C1879 0.950 . S
H1874 C1880 0.949 . S
C1875 H1870 0.950 . S
C1875 C1877 1.327 . S
C1875 C1881 1.429 . S
C1876 C1868 1.574 . S
C1876 H1871 0.949 . S
C1876 C1882 1.368 . S
C1877 C1861 1.349 . S
C1877 H1869 0.950 . S
C1877 C1875 1.327 . S
C1878 C1866 1.349 . S
C1878 H1872 0.950 1_455 S
C1878 C1879 1.327 . S
C1879 H1873 0.950 . S
C1879 C1878 1.327 . S
C1879 C1883 1.429 . S
C1880 C1863 1.574 . S
C1880 H1874 0.949 . S
C1880 C1884 1.368 . S
C1881 C1862 1.429 . S
C1881 C1875 1.429 . S
C1881 C1882 1.523 . S
C1882 C1863 1.368 . S
C1882 C1876 1.368 . S
C1882 C1881 1.523 . S
C1883 C1867 1.429 . S
C1883 C1879 1.429 . S
C1883 C1884 1.523 . S
C1884 C1868 1.368 . S
C1884 C1880 1.368 . S
C1884 C1883 1.523 . S
H1885 C1860 0.950 . S
H1886 C1862 0.950 . S
H1887 C1863 0.949 . S
H1888 C1865 0.950 . S
H1889 C1867 0.950 . S
C1890 C1891 1.349 . S
C1890 C1892 1.327 . S
C1890 H1915 0.950 . S
C1891 C1890 1.349 . S
C1891 C1907 1.349 . S
C1892 C1890 1.327 . S
C1892 C1911 1.429 . S
C1892 H1916 0.950 . S
C1893 C1910 1.574 . S
C1893 C1912 1.368 . S
C1893 H1917 0.949 . S
H1894 C1898 0.949 . S
C1895 C1896 1.349 . S
C1895 C1897 1.327 . S
C1895 H1918 0.950 . S
C1896 C1895 1.349 . S
C1896 C1908 1.349 . S
C1897 C1895 1.327 . S
C1897 C1913 1.429 . S
C1897 H1919 0.950 . S
C1898 H1894 0.949 . S
C1898 C1906 1.574 . S
C1898 C1914 1.368 . S
H1899 C1907 0.950 . S
H1900 C1905 0.950 . S
H1901 C1906 0.949 . S
H1902 C1908 0.950 . S
H1903 C1909 0.950 . S
H1904 C1910 0.949 . S
C1905 H1900 0.950 . S
C1905 C1907 1.327 . S
C1905 C1911 1.429 . S
C1906 C1898 1.574 . S
C1906 H1901 0.949 . S
C1906 C1912 1.368 . S
C1907 C1891 1.349 . S
C1907 H1899 0.950 . S
C1907 C1905 1.327 . S
C1908 C1896 1.349 . S
C1908 H1902 0.950 . S
C1908 C1909 1.327 . S
C1909 H1903 0.950 . S
C1909 C1908 1.327 . S
C1909 C1913 1.429 . S
C1910 C1893 1.574 . S
C1910 H1904 0.949 . S
C1910 C1914 1.368 . S
C1911 C1892 1.429 . S
C1911 C1905 1.429 . S
C1911 C1912 1.523 . S
C1912 C1893 1.368 . S
C1912 C1906 1.368 . S
C1912 C1911 1.523 . S
C1913 C1897 1.429 . S
C1913 C1909 1.429 . S
C1913 C1914 1.523 . S
C1914 C1898 1.368 . S
C1914 C1910 1.368 . S
C1914 C1913 1.523 . S
H1915 C1890 0.950 . S
H1916 C1892 0.950 . S
H1917 C1893 0.949 . S
H1918 C1895 0.950 . S
H1919 C1897 0.950 . S
C1920 C1921 1.349 . S
C1920 C1922 1.327 . S
C1920 H1945 0.950 . S
C1921 C1920 1.349 . S
C1921 C1937 1.349 . S
C1922 C1920 1.327 . S
C1922 C1941 1.429 . S
C1922 H1946 0.950 . S
C1923 C1940 1.574 . S
C1923 C1942 1.368 . S
C1923 H1947 0.949 . S
H1924 C1928 0.949 . S
C1925 C1926 1.349 . S
C1925 C1927 1.327 . S
C1925 H1948 0.950 . S
C1926 C1925 1.349 . S
C1926 C1938 1.349 . S
C1927 C1925 1.327 . S
C1927 C1943 1.429 . S
C1927 H1949 0.950 . S
C1928 H1924 0.949 . S
C1928 C1936 1.574 . S
C1928 C1944 1.368 . S
H1929 C1937 0.950 . S
H1930 C1935 0.950 . S
H1931 C1936 0.949 . S
H1932 C1938 0.950 . S
H1933 C1939 0.950 . S
H1934 C1940 0.949 . S
C1935 H1930 0.950 . S
C1935 C1937 1.327 . S
C1935 C1941 1.429 . S
C1936 C1928 1.574 . S
C1936 H1931 0.949 . S
C1936 C1942 1.368 . S
C1937 C1921 1.349 . S
C1937 H1929 0.950 . S
C1937 C1935 1.327 . S
C1938 C1926 1.349 . S
C1938 H1932 0.950 . S
C1938 C1939 1.327 . S
C1939 H1933 0.950 . S
C1939 C1938 1.327 . S
C1939 C1943 1.429 . S
C1940 C1923 1.574 . S
C1940 H1934 0.949 . S
C1940 C1944 1.368 . S
C1941 C1922 1.429 . S
C1941 C1935 1.429 . S
C1941 C1942 1.523 . S
C1942 C1923 1.368 . S
C1942 C1936 1.368 . S
C1942 C1941 1.523 . S
C1943 C1927 1.429 . S
C1943 C1939 1.429 . S
C1943 C1944 1.523 . S
C1944 C1928 1.368 . S
C1944 C1940 1.368 . S
C1944 C1943 1.523 . S
H1945 C1920 0.950 . S
H1946 C1922 0.950 . S
H1947 C1923 0.949 . S
H1948 C1925 0.950 . S
H1949 C1927 0.950 . S
C1950 C1951 1.349 . S
C1950 C1952 1.327 . S
C1950 H1975 0.950 . S
C1951 C1950 1.349 . S
C1951 C1967 1.349 . S
C1952 C1950 1.327 . S
C1952 C1971 1.429 . S
C1952 H1976 0.950 . S
C1953 C1970 1.574 . S
C1953 C1972 1.368 . S
C1953 H1977 0.949 . S
H1954 C1958 0.949 . S
C1955 C1956 1.349 . S
C1955 C1957 1.327 . S
C1955 H1978 0.950 . S
C1956 C1955 1.349 . S
C1956 C1968 1.349 . S
C1957 C1955 1.327 . S
C1957 C1973 1.429 . S
C1957 H1979 0.950 . S
C1958 H1954 0.949 . S
C1958 C1966 1.574 . S
C1958 C1974 1.368 . S
H1959 C1967 0.950 . S
H1960 C1965 0.950 . S
H1961 C1966 0.949 . S
H1962 C1968 0.950 . S
H1963 C1969 0.950 . S
H1964 C1970 0.949 . S
C1965 H1960 0.950 . S
C1965 C1967 1.327 . S
C1965 C1971 1.429 . S
C1966 C1958 1.574 . S
C1966 H1961 0.949 . S
C1966 C1972 1.368 . S
C1967 C1951 1.349 . S
C1967 H1959 0.950 . S
C1967 C1965 1.327 . S
C1968 C1956 1.349 . S
C1968 H1962 0.950 . S
C1968 C1969 1.327 . S
C1969 H1963 0.950 . S
C1969 C1968 1.327 . S
C1969 C1973 1.429 . S
C1970 C1953 1.574 . S
C1970 H1964 0.949 . S
C1970 C1974 1.368 . S
C1971 C1952 1.429 . S
C1971 C1965 1.429 . S
C1971 C1972 1.523 . S
C1972 C1953 1.368 . S
C1972 C1966 1.368 . S
C1972 C1971 1.523 . S
C1973 C1957 1.429 . S
C1973 C1969 1.429 . S
C1973 C1974 1.523 . S
C1974 C1958 1.368 . S
C1974 C1970 1.368 . S
C1974 C1973 1.523 . S
H1975 C1950 0.950 . S
H1976 C1952 0.950 . S
H1977 C1953 0.949 . S
H1978 C1955 0.950 . S
H1979 C1957 0.950 . S
C361 C8 1.166 . S
C366 C45 1.356 . S
C391 C5 1.356 . S
C396 C28 1.167 . S
C421 C25 1.356 . S
C426 C48 1.167 . S
C451 C68 1.166 . S
C456 C85 1.356 . S
C481 C105 1.356 . S
C486 C88 1.167 . S
C511 C108 1.167 . S
C516 C65 1.356 . S
C541 C165 1.355 1_545 S
C546 C128 1.167 . S
C571 C125 1.357 . S
C576 C148 1.167 . S
C601 C168 1.166 . S
C606 C145 1.356 . S
C631 C205 1.356 . S
C636 C188 1.166 . S
C661 C208 1.167 . S
C666 C225 1.356 . S
C691 C185 1.356 . S
C696 C228 1.167 . S
C721 C248 1.166 . S
C726 C285 1.356 . S
C751 C245 1.356 . S
C756 C268 1.167 . S
C781 C265 1.356 . S
C786 C288 1.167 . S
C811 C325 1.355 1_455 S
C816 C308 1.166 . S
C841 C345 1.356 . S
C846 C328 1.166 . S
C871 C305 1.357 . S
C876 C348 1.167 . S
C901 C2 1.795 . S
C906 C102 1.795 . S
C931 C62 1.795 . S
C936 C22 1.795 . S
C961 C82 1.795 . S
C966 C42 1.795 . S
C991 C122 1.795 . S
C996 C222 1.795 . S
C1021 C142 1.795 . S
C1026 C182 1.795 . S
C1051 C202 1.795 . S
C1056 C162 1.795 . S
C1081 C242 1.795 . S
C1086 C342 1.795 . S
C1111 C302 1.795 . S
C1116 C262 1.795 . S
C1141 C322 1.795 . S
C1146 C282 1.795 . S
C1171 C213 1.831 . S
C1176 C13 1.831 . S
C1201 C33 1.831 . S
C1206 C233 1.831 . S
C1231 C193 1.831 . S
C1236 C53 1.831 . S
C1261 C73 1.831 . S
C1266 C293 1.831 . S
C1291 C93 1.831 . S
C1296 C253 1.831 . S
C1321 C273 1.831 . S
C1326 C113 1.831 . S
C1351 C333 1.831 . S
C1356 C133 1.831 . S
C1381 C153 1.831 . S
C1386 C353 1.831 . S
C1411 C173 1.831 . S
C1416 C313 1.831 . S
C1441 C57 2.512 . S
C1446 C14 2.639 . S
C1471 C17 2.512 . S
C1476 C34 2.639 . S
C1501 C54 2.639 . S
C1506 C37 2.511 . S
C1531 C97 2.512 . S
C1536 C74 2.639 . S
C1561 C117 2.511 . S
C1566 C94 2.639 . S
C1591 C114 2.639 . S
C1596 C77 2.512 . S
C1621 C177 2.511 . S
C1626 C134 2.639 . S
C1651 C154 2.639 . S
C1656 C137 2.511 . S
C1681 C157 2.512 . S
C1686 C174 2.639 . S
C1711 C194 2.639 . S
C1716 C217 2.512 . S
C1741 C214 2.639 1_545 S
C1746 C237 2.511 . S
C1771 C197 2.511 . S
C1776 C234 2.639 . S
C1801 C254 2.639 . S
C1806 C297 2.512 . S
C1831 C274 2.639 . S
C1836 C257 2.511 . S
C1861 C277 2.511 . S
C1866 C294 2.639 1_455 S
C1891 C314 2.639 . S
C1896 C337 2.511 . S
C1921 C334 2.639 . S
C1926 C357 2.512 . S
C1951 C317 2.511 . S
C1956 C354 2.639 . S
