# Generated by pormake.
# Topology wiu, (6)-cn, num edge types: 1
# Building blocks:
#     Node 0, Type 0, BuildingBlock: KUMBOL_clean_sbu_1, # of connection points: 6
#     Node 1, Type 0, BuildingBlock: KUMBOL_clean_sbu_1, # of connection points: 6
#     Node 2, Type 0, BuildingBlock: KUMBOL_clean_sbu_1, # of connection points: 6
#     Node 3, Type 0, BuildingBlock: KUMBOL_clean_sbu_1, # of connection points: 6
#     Node 4, Type 0, BuildingBlock: KUMBOL_clean_sbu_1, # of connection points: 6
#     Node 5, Type 0, BuildingBlock: KUMBOL_clean_sbu_1, # of connection points: 6
#     Node 6, Type 0, BuildingBlock: KUMBOL_clean_sbu_1, # of connection points: 6
#     Node 7, Type 0, BuildingBlock: KUMBOL_clean_sbu_1, # of connection points: 6
#     Node 8, Type 0, BuildingBlock: KUMBOL_clean_sbu_1, # of connection points: 6
#     Node 9, Type 0, BuildingBlock: KUMBOL_clean_sbu_1, # of connection points: 6
#     Node 10, Type 0, BuildingBlock: KUMBOL_clean_sbu_1, # of connection points: 6
#     Node 11, Type 0, BuildingBlock: KUMBOL_clean_sbu_1, # of connection points: 6
#     Node 12, Type 0, BuildingBlock: KUMBOL_clean_sbu_1, # of connection points: 6
#     Node 13, Type 0, BuildingBlock: KUMBOL_clean_sbu_1, # of connection points: 6
#     Node 14, Type 0, BuildingBlock: KUMBOL_clean_sbu_1, # of connection points: 6
#     Node 15, Type 0, BuildingBlock: KUMBOL_clean_sbu_1, # of connection points: 6
#     Edge 16, Type (0, 0), BuildingBlock: MIFKUJ_clean_linker_0, # of connection points: 2
#     Edge 17, Type (0, 0), BuildingBlock: MIFKUJ_clean_linker_0, # of connection points: 2
#     Edge 18, Type (0, 0), BuildingBlock: MIFKUJ_clean_linker_0, # of connection points: 2
#     Edge 19, Type (0, 0), BuildingBlock: MIFKUJ_clean_linker_0, # of connection points: 2
#     Edge 20, Type (0, 0), BuildingBlock: MIFKUJ_clean_linker_0, # of connection points: 2
#     Edge 21, Type (0, 0), BuildingBlock: MIFKUJ_clean_linker_0, # of connection points: 2
#     Edge 22, Type (0, 0), BuildingBlock: MIFKUJ_clean_linker_0, # of connection points: 2
#     Edge 23, Type (0, 0), BuildingBlock: MIFKUJ_clean_linker_0, # of connection points: 2
#     Edge 24, Type (0, 0), BuildingBlock: MIFKUJ_clean_linker_0, # of connection points: 2
#     Edge 25, Type (0, 0), BuildingBlock: MIFKUJ_clean_linker_0, # of connection points: 2
#     Edge 26, Type (0, 0), BuildingBlock: MIFKUJ_clean_linker_0, # of connection points: 2
#     Edge 27, Type (0, 0), BuildingBlock: MIFKUJ_clean_linker_0, # of connection points: 2
#     Edge 28, Type (0, 0), BuildingBlock: MIFKUJ_clean_linker_0, # of connection points: 2
#     Edge 29, Type (0, 0), BuildingBlock: MIFKUJ_clean_linker_0, # of connection points: 2
#     Edge 30, Type (0, 0), BuildingBlock: MIFKUJ_clean_linker_0, # of connection points: 2
#     Edge 31, Type (0, 0), BuildingBlock: MIFKUJ_clean_linker_0, # of connection points: 2
#     Edge 32, Type (0, 0), BuildingBlock: MIFKUJ_clean_linker_0, # of connection points: 2
#     Edge 33, Type (0, 0), BuildingBlock: MIFKUJ_clean_linker_0, # of connection points: 2
#     Edge 34, Type (0, 0), BuildingBlock: MIFKUJ_clean_linker_0, # of connection points: 2
#     Edge 35, Type (0, 0), BuildingBlock: MIFKUJ_clean_linker_0, # of connection points: 2
#     Edge 36, Type (0, 0), BuildingBlock: MIFKUJ_clean_linker_0, # of connection points: 2
#     Edge 37, Type (0, 0), BuildingBlock: MIFKUJ_clean_linker_0, # of connection points: 2
#     Edge 38, Type (0, 0), BuildingBlock: MIFKUJ_clean_linker_0, # of connection points: 2
#     Edge 39, Type (0, 0), BuildingBlock: MIFKUJ_clean_linker_0, # of connection points: 2
#     Edge 40, Type (0, 0), BuildingBlock: MIFKUJ_clean_linker_0, # of connection points: 2
#     Edge 41, Type (0, 0), BuildingBlock: MIFKUJ_clean_linker_0, # of connection points: 2
#     Edge 42, Type (0, 0), BuildingBlock: MIFKUJ_clean_linker_0, # of connection points: 2
#     Edge 43, Type (0, 0), BuildingBlock: MIFKUJ_clean_linker_0, # of connection points: 2
#     Edge 44, Type (0, 0), BuildingBlock: MIFKUJ_clean_linker_0, # of connection points: 2
#     Edge 45, Type (0, 0), BuildingBlock: MIFKUJ_clean_linker_0, # of connection points: 2
#     Edge 46, Type (0, 0), BuildingBlock: MIFKUJ_clean_linker_0, # of connection points: 2
#     Edge 47, Type (0, 0), BuildingBlock: MIFKUJ_clean_linker_0, # of connection points: 2
#     Edge 48, Type (0, 0), BuildingBlock: MIFKUJ_clean_linker_0, # of connection points: 2
#     Edge 49, Type (0, 0), BuildingBlock: MIFKUJ_clean_linker_0, # of connection points: 2
#     Edge 50, Type (0, 0), BuildingBlock: MIFKUJ_clean_linker_0, # of connection points: 2
#     Edge 51, Type (0, 0), BuildingBlock: MIFKUJ_clean_linker_0, # of connection points: 2
#     Edge 52, Type (0, 0), BuildingBlock: MIFKUJ_clean_linker_0, # of connection points: 2
#     Edge 53, Type (0, 0), BuildingBlock: MIFKUJ_clean_linker_0, # of connection points: 2
#     Edge 54, Type (0, 0), BuildingBlock: MIFKUJ_clean_linker_0, # of connection points: 2
#     Edge 55, Type (0, 0), BuildingBlock: MIFKUJ_clean_linker_0, # of connection points: 2
#     Edge 56, Type (0, 0), BuildingBlock: MIFKUJ_clean_linker_0, # of connection points: 2
#     Edge 57, Type (0, 0), BuildingBlock: MIFKUJ_clean_linker_0, # of connection points: 2
#     Edge 58, Type (0, 0), BuildingBlock: MIFKUJ_clean_linker_0, # of connection points: 2
#     Edge 59, Type (0, 0), BuildingBlock: MIFKUJ_clean_linker_0, # of connection points: 2
#     Edge 60, Type (0, 0), BuildingBlock: MIFKUJ_clean_linker_0, # of connection points: 2
#     Edge 61, Type (0, 0), BuildingBlock: MIFKUJ_clean_linker_0, # of connection points: 2
#     Edge 62, Type (0, 0), BuildingBlock: MIFKUJ_clean_linker_0, # of connection points: 2
#     Edge 63, Type (0, 0), BuildingBlock: MIFKUJ_clean_linker_0, # of connection points: 2
# Relax obj value: 0.285
# Max RMSD: 0.274
# Mean RMSD: 0.274
data_MOF--net-wiu--node1-KUMBOL_clean_sbu_1--edge1-MIFKUJ_clean_linker_0
_symmetry_space_group_name_H-M    P1
_symmetry_Int_Tables_number       1
_symmetry_cell_setting            triclinic
loop_
_symmetry_equiv_pos_as_xyz
'x, y, z'
_cell_length_a     47.15231
_cell_length_b     47.181723
_cell_length_c     74.524049
_cell_angle_alpha  89.816619
_cell_angle_beta   89.914831
_cell_angle_gamma 90.045438
loop_
_atom_site_label
_atom_site_type_symbol
_atom_site_fract_x
_atom_site_fract_y
_atom_site_fract_z
_atom_type_partial_charge
C0 C 0.28739 0.20205 0.12449 0.0
C1 C 0.23595 0.20582 0.1233 0.0
C2 C 0.2607 0.19463 0.1312 0.0
C3 C 0.23825 0.22645 0.10977 0.0
C4 C 0.2895 0.22112 0.10991 0.0
C5 C 0.26496 0.23418 0.10315 0.0
N6 N 0.31065 0.18756 0.13054 0.0
C7 C 0.33584 0.18975 0.12157 0.0
C8 C 0.31594 0.2252 0.1018 0.0
C9 C 0.33901 0.20895 0.10737 0.0
Gd10 Gd 0.34324 0.09641 0.14492 0.0
Gd11 Gd 0.30238 0.16246 0.15767 0.0
N12 N 0.25904 0.17361 0.14377 0.0
C13 C 0.20964 0.19462 0.12838 0.0
C14 C 0.23348 0.16199 0.14837 0.0
C15 C 0.20847 0.17226 0.14066 0.0
H16 H 0.23236 0.14573 0.15856 0.0
H17 H 0.1882 0.16316 0.14422 0.0
H18 H 0.41006 0.10542 0.15937 0.0
H19 H 0.35345 0.17642 0.12477 0.0
H20 H 0.44362 0.08214 0.17996 0.0
H21 H 0.19018 0.20241 0.12244 0.0
H22 H 0.21944 0.23558 0.10374 0.0
H23 H 0.29388 0.04628 0.13476 0.0
H24 H 0.31842 0.23967 0.09058 0.0
H25 H 0.3592 0.21089 0.10054 0.0
H26 H 0.39579 0.9967 0.19791 0.0
H27 H 0.26629 0.24916 0.09212 0.0
H28 H 0.30756 0.97499 0.16922 0.0
H29 H 0.2793 0.99935 0.14588 0.0
N30 N 0.32961 0.04942 0.15219 0.0
C31 C 0.34623 0.0356 0.16424 0.0
C32 C 0.3064 0.03616 0.14508 0.0
C33 C 0.31405 0.99573 0.16445 0.0
C34 C 0.29807 0.0094 0.15128 0.0
C35 C 0.33877 0.00855 0.17086 0.0
H36 H 0.35092 0.97434 0.18876 0.0
N37 N 0.37826 0.0737 0.16227 0.0
C38 C 0.37148 0.04803 0.16934 0.0
C39 C 0.416 0.0467 0.18532 0.0
C40 C 0.38996 0.034 0.18127 0.0
C41 C 0.40419 0.08556 0.16551 0.0
C42 C 0.42331 0.0724 0.17719 0.0
O43 O 0.28901 0.1452 0.12889 0.0
O44 O 0.30701 0.10073 0.12412 0.0
O45 O 0.35929 0.11001 0.1189 0.0
O46 O 0.36658 0.06681 0.12881 0.0
O47 O 0.28391 0.12378 0.17019 0.0
O48 O 0.29541 0.09252 0.14826 0.0
O49 O 0.34842 0.10232 0.17523 0.0
O50 O 0.31438 0.13493 0.18352 0.0
O51 O 0.26978 0.18485 0.17225 0.0
O52 O 0.31172 0.20282 0.1707 0.0
O53 O 0.37321 0.13586 0.14759 0.0
O54 O 0.34917 0.17419 0.15917 0.0
C55 C 0.29126 0.1223 0.11851 0.0
C56 C 0.27874 0.10071 0.1613 0.0
C57 C 0.35649 0.07187 0.09811 0.0
C58 C 0.37496 0.05722 1.06958 0.0
C59 C 0.33493 0.03215 0.08265 0.0
C60 C 0.33743 0.04895 0.09797 0.0
C61 C 0.35444 0.0355 1.06867 0.0
C62 C 0.37108 0.07861 0.08244 0.0
C63 C 0.36689 0.084 0.11504 0.0
C64 C 0.38205 0.00766 0.18854 0.0
C65 C 0.35649 0.99495 0.18335 0.0
H66 H 0.43081 0.0366 0.19442 0.0
C67 C 0.33321 0.11456 0.18784 0.0
C68 C 0.37305 0.1622 0.15401 0.0
C69 C 0.28128 0.21721 0.19459 0.0
C70 C 0.25417 0.24963 0.2134 0.0
C71 C 0.29037 0.21905 0.2265 0.0
C72 C 0.29638 0.2077 0.2096 0.0
C73 C 0.26953 0.23999 0.22842 0.0
C74 C 0.25998 0.23757 0.1966 0.0
C75 C 0.28591 0.20582 0.17661 0.0
H76 H 0.32017 0.01456 0.08253 0.0
H77 H 0.32532 0.04347 0.10978 0.0
H78 H 0.35545 0.01915 1.05855 0.0
H79 H 0.38501 0.09691 0.0825 0.0
H80 H 0.30212 0.21187 0.23812 0.0
H81 H 0.31261 0.19159 0.20826 0.0
H82 H 0.26607 0.24913 0.24155 0.0
H83 H 0.24795 0.2441 0.1849 0.0
C84 C 0.559 0.53879 0.37818 0.0
C85 C 0.55828 0.48726 0.37851 0.0
C86 C 0.56764 0.5132 0.3858 0.0
C87 C 0.53934 0.4873 0.364 0.0
C88 C 0.53997 0.53876 0.36355 0.0
C89 C 0.5301 0.51296 0.35661 0.0
N90 N 0.5701 0.56356 0.38466 0.0
C91 C 0.56108 0.58879 0.37772 0.0
C92 C 0.53147 0.56468 0.35623 0.0
C93 C 0.54192 0.58977 0.36345 0.0
Gd94 Gd 0.66573 0.59841 0.39623 0.0
Gd95 Gd 0.59901 0.55878 0.41063 0.0
N96 N 0.58681 0.51373 0.39948 0.0
C97 C 0.56887 0.462 0.3857 0.0
C98 C 0.59704 0.48911 0.40661 0.0
C99 C 0.58836 0.46294 0.39975 0.0
H100 H 0.61159 0.48965 0.41779 0.0
H101 H 0.59661 0.44345 0.40529 0.0
H102 H 0.65243 0.6662 0.40511 0.0
H103 H 0.56763 0.6084 0.38326 0.0
H104 H 0.67161 0.70431 0.42422 0.0
H105 H 0.56234 0.44167 0.38039 0.0
H106 H 0.53196 0.46756 0.35825 0.0
H107 H 0.71689 0.54648 0.39656 0.0
H108 H 0.51671 0.56555 0.34511 0.0
H109 H 0.53499 0.60999 0.35814 0.0
H110 H 0.75044 0.66095 0.45441 0.0
H111 H 0.51557 0.51261 0.34536 0.0
H112 H 0.77587 0.56662 0.43788 0.0
H113 H 0.75843 0.53393 0.41454 0.0
N114 N 0.70762 0.58423 0.41129 0.0
C115 C 0.71814 0.60348 0.42317 0.0
C116 C 0.72279 0.56023 0.40747 0.0
C117 C 0.75681 0.57185 0.43048 0.0
C118 C 0.74698 0.5533 0.41736 0.0
C119 C 0.74293 0.59768 0.43312 0.0
H120 H 0.77283 0.61413 0.45255 0.0
N121 N 0.6819 0.63538 0.41432 0.0
C122 C 0.70533 0.62999 0.42441 0.0
C123 C 0.70446 0.67805 0.4355 0.0
C124 C 0.71697 0.65112 0.43551 0.0
C125 C 0.67015 0.66178 0.41382 0.0
C126 C 0.68106 0.68342 0.42454 0.0
O127 O 0.61488 0.54348 0.38181 0.0
O128 O 0.65364 0.56916 0.37257 0.0
O129 O 0.66648 0.62404 0.37192 0.0
O130 O 0.70577 0.61014 0.3842 0.0
O131 O 0.6387 0.53834 0.42051 0.0
O132 O 0.66763 0.55002 0.39712 0.0
O133 O 0.65217 0.60698 0.42577 0.0
O134 O 0.63125 0.56572 0.43453 0.0
O135 O 0.57732 0.53152 0.42988 0.0
O136 O 0.5598 0.57237 0.42332 0.0
O137 O 0.62492 0.62534 0.39233 0.0
O138 O 0.59426 0.60743 0.41334 0.0
C139 C 0.63409 0.54974 0.36919 0.0
C140 C 0.65987 0.53244 0.40991 0.0
C141 C 0.70366 0.60942 0.35286 0.0
C142 C 0.72004 0.61897 0.3226 0.0
C143 C 0.72311 0.57136 0.33465 0.0
C144 C 0.71149 0.58082 0.35087 0.0
C145 C 0.72796 0.59053 0.32061 0.0
C146 C 0.70722 0.62802 0.33856 0.0
C147 C 0.69381 0.62085 0.37006 0.0
C148 C 0.74108 0.645 0.44585 0.0
C149 C 0.75387 0.6183 0.44477 0.0
H150 H 0.71308 0.69506 0.44352 0.0
C151 C 0.64757 0.58796 0.43853 0.0
C152 C 0.60295 0.62886 0.40324 0.0
C153 C 0.52794 0.53396 0.42702 0.0
C154 C 0.49329 0.49713 0.43375 0.0
C155 C 0.48934 0.52459 0.40628 0.0
C156 C 0.51299 0.54043 0.41121 0.0
C157 C 0.47963 0.50288 0.4174 0.0
C158 C 0.51763 0.51257 0.43848 0.0
C159 C 0.55526 0.54783 0.43087 0.0
H160 H 0.7293 0.5494 0.33321 0.0
H161 H 0.70898 0.56594 0.36185 0.0
H162 H 0.73871 0.5835 0.30856 0.0
H163 H 0.70218 0.65029 0.3404 0.0
H164 H 0.47831 0.52938 0.39391 0.0
H165 H 0.51973 0.55752 0.40251 0.0
H166 H 0.4607 0.49135 0.4136 0.0
H167 H 0.52851 0.50788 0.45095 0.0
C168 C 0.20983 0.8082 0.626 0.0
C169 C 0.25953 0.8066 0.61721 0.0
C170 C 0.23786 0.81612 0.6288 0.0
C171 C 0.25254 0.78986 0.60234 0.0
C172 C 0.20319 0.78961 0.61177 0.0
C173 C 0.22442 0.78139 0.59962 0.0
N174 N 0.18972 0.81615 0.63819 0.0
C175 C 0.16502 0.80102 0.63898 0.0
C176 C 0.17585 0.77825 0.61088 0.0
C177 C 0.15701 0.78315 0.62494 0.0
Gd178 Gd 0.16975 0.91546 0.64333 0.0
Gd179 Gd 0.20524 0.84815 0.66079 0.0
N180 N 0.24397 0.83314 0.64302 0.0
C181 C 0.28767 0.81373 0.62111 0.0
C182 C 0.27156 0.83843 0.64755 0.0
C183 C 0.29374 0.82929 0.63653 0.0
H184 H 0.27647 0.85009 0.65958 0.0
H185 H 0.31548 0.83427 0.63994 0.0
H186 H 0.10043 0.89916 0.63477 0.0
H187 H 0.1521 0.80119 0.65084 0.0
H188 H 0.05347 0.91491 0.64455 0.0
H189 H 0.30489 0.80677 0.61256 0.0
H190 H 0.26884 0.78262 0.59317 0.0
H191 H 0.21561 0.96374 0.66006 0.0
H192 H 0.1699 0.76386 0.60022 0.0
H193 H 0.13681 0.77224 0.62538 0.0
H194 H 0.0719 0.99617 0.68101 0.0
H195 H 0.21954 0.76746 0.58851 0.0
H196 H 0.16797 0.02714 0.68698 0.0
H197 H 0.21393 0.00772 0.67722 0.0
N198 N 0.17096 0.95633 0.66126 0.0
C199 C 0.14533 0.96711 0.66612 0.0
C200 C 0.19537 0.97088 0.66493 0.0
C201 C 0.16854 0.00709 0.68005 0.0
C202 C 0.19454 0.99625 0.67447 0.0
C203 C 0.14354 0.99245 0.67607 0.0
H204 H 0.11524 0.02192 0.68928 0.0
N205 N 0.12303 0.92901 0.6508 0.0
C206 C 0.1208 0.95271 0.66114 0.0
C207 C 0.06966 0.94892 0.66076 0.0
C208 C 0.09403 0.96321 0.66641 0.0
C209 C 0.09915 0.91613 0.64435 0.0
C210 C 0.07225 0.92549 0.64952 0.0
O211 O 0.22514 0.86934 0.63428 0.0
O212 O 0.18595 0.88649 0.62084 0.0
O213 O 0.14757 0.93717 0.62176 0.0
O214 O 0.1924 0.94675 0.62728 0.0
O215 O 0.22572 0.88683 0.67186 0.0
O216 O 0.21753 0.91691 0.64844 0.0
O217 O 0.16678 0.91481 0.67443 0.0
O218 O 0.19053 0.87566 0.68572 0.0
O219 O 0.23767 0.83237 0.67882 0.0
O220 O 0.20038 0.80711 0.67393 0.0
O221 O 0.14259 0.87434 0.63963 0.0
O222 O 0.15635 0.84767 0.66368 0.0
C223 C 0.21291 0.87941 0.61938 0.0
C224 C 0.23266 0.90899 0.6624 0.0
C225 C 0.17026 0.97277 0.60306 0.0
C226 C 0.14369 0.99096 0.57752 0.0
C227 C 0.17857 0.02068 0.59287 0.0
C228 C 0.18412 0.9988 0.60498 0.0
C229 C 0.15789 0.01722 0.5796 0.0
C230 C 0.15264 0.9682 0.58837 0.0
C231 C 0.17005 0.95197 0.61765 0.0
C232 C 0.09229 0.98793 0.67681 0.0
C233 C 0.11696 1.00261 0.68151 0.0
H234 H 0.04875 0.95628 0.66456 0.0
C235 C 0.17602 0.89983 0.68835 0.0
C236 C 0.13664 0.85443 0.65176 0.0
C237 C 0.22841 0.79565 0.69945 0.0
C238 C 0.25311 0.7599 0.71721 0.0
C239 C 0.2141 0.78703 0.73014 0.0
C240 C 0.21048 0.8016 0.71393 0.0
C241 C 0.235 0.76607 0.73175 0.0
C242 C 0.25015 0.77578 0.70136 0.0
C243 C 0.22491 0.80857 0.68177 0.0
H244 H 0.18881 0.04104 0.59454 0.0
H245 H 0.19808 1.00261 0.61626 0.0
H246 H 0.15228 0.03576 0.57188 0.0
H247 H 0.14427 0.9471 0.58665 0.0
H248 H 0.20014 0.7914 0.74133 0.0
H249 H 0.1937 0.81713 0.71262 0.0
H250 H 0.23617 0.75409 0.74414 0.0
H251 H 0.26429 0.77218 0.69011 0.0
C252 C 0.96028 0.45594 0.8785 0.0
C253 C 0.94995 0.4976 0.86025 0.0
C254 C 0.94304 0.47911 0.87453 0.0
C255 C 0.97338 0.4916 0.84929 0.0
C256 C 0.98506 0.45126 0.86826 0.0
C257 C 0.99091 0.46852 0.8533 0.0
N258 N 0.95436 0.43975 0.89328 0.0
C259 C 0.97428 0.42123 0.89967 0.0
C260 C 1.00411 0.43038 0.87391 0.0
C261 C 0.99909 0.41588 0.88994 0.0
Gd262 Gd 0.84115 0.41485 0.89492 0.0
Gd263 Gd 0.91173 0.45118 0.90847 0.0
N264 N 0.9204 0.48463 0.88546 0.0
C265 C 0.93374 0.52216 0.85783 0.0
C266 C 0.90618 0.50975 0.88404 0.0
C267 C 0.91211 0.52846 0.86999 0.0
H268 H 0.88976 0.51493 0.89343 0.0
H269 H 0.89991 0.54763 0.86854 0.0
H270 H 0.85218 0.35034 0.91296 0.0
H271 H 0.9711 0.41024 0.91226 0.0
H272 H 0.82717 0.31636 0.93252 0.0
H273 H 0.93829 0.53682 0.84698 0.0
H274 H 0.97875 0.50532 0.8381 0.0
H275 H 0.79247 0.46314 0.88273 0.0
H276 H 0.02342 0.42625 0.86646 0.0
H277 H 0.01433 0.40057 0.89484 0.0
H278 H 0.73656 0.35972 0.94299 0.0
H279 H 0.00961 0.46488 0.84516 0.0
H280 H 0.71624 0.44672 0.91218 0.0
H281 H 0.74345 0.47617 0.89067 0.0
N282 N 0.79349 0.42715 0.90002 0.0
C283 C 0.77856 0.41016 0.91132 0.0
C284 C 0.78097 0.45021 0.89225 0.0
C285 C 0.73783 0.44095 0.9088 0.0
C286 C 0.75311 0.45762 0.89665 0.0
C287 C 0.75037 0.41666 0.91612 0.0
H288 H 0.71395 0.40332 0.9318 0.0
N289 N 0.81836 0.38007 0.91253 0.0
C290 C 0.79126 0.38566 0.9176 0.0
C291 C 0.78943 0.34188 0.93445 0.0
C292 C 0.77618 0.36693 0.92889 0.0
C293 C 0.83101 0.35518 0.91737 0.0
C294 C 0.81686 0.33585 0.9285 0.0
O295 O 0.8956 0.4524 0.87762 0.0
O296 O 0.84789 0.45546 0.87865 0.0
O297 O 0.85468 0.40006 0.86862 0.0
O298 O 0.81083 0.39488 0.87747 0.0
O299 O 0.87169 0.46731 0.92052 0.0
O300 O 0.83856 0.46278 0.89898 0.0
O301 O 0.8443 0.41257 0.92552 0.0
O302 O 0.88742 0.43182 0.93437 0.0
O303 O 0.92057 0.49137 0.92142 0.0
O304 O 0.94847 0.45622 0.92616 0.0
O305 O 0.88036 0.38365 0.8959 0.0
O306 O 0.92022 0.40375 0.9089 0.0
C307 C 0.87137 0.46103 0.86988 0.0
C308 C 0.85077 0.47794 0.91151 0.0
C309 C 0.81772 0.40468 0.84703 0.0
C310 C 0.79348 0.39347 0.81927 0.0
C311 C 0.79504 0.44197 0.82952 0.0
C312 C 0.8099 0.43322 0.84481 0.0
C313 C 0.78616 0.42199 0.81692 0.0
C314 C 0.81021 0.38522 0.83392 0.0
C315 C 0.82864 0.39356 0.86412 0.0
C316 C 0.74839 0.3737 0.93417 0.0
C317 C 0.73552 0.39853 0.92781 0.0
H318 H 0.77858 0.32693 0.94313 0.0
C319 C 0.86209 0.41965 0.93845 0.0
C320 C 0.9071 0.38174 0.90186 0.0
C321 C 0.96858 0.50255 0.92689 0.0
C322 C 0.00607 0.53177 0.93985 0.0
C323 C 0.99807 0.53234 0.90774 0.0
C324 C 0.97575 0.51348 0.90997 0.0
C325 C 0.01316 0.5415 0.92257 0.0
C326 C 0.98406 0.51173 0.94199 0.0
C327 C 0.94406 0.48309 0.92885 0.0
H328 H 0.78894 0.46396 0.82802 0.0
H329 H 0.81384 0.44847 0.85516 0.0
H330 H 0.77269 0.42848 0.80589 0.0
H331 H 0.81481 0.36294 0.83612 0.0
H332 H 1.00342 0.54018 0.89449 0.0
H333 H 0.96381 0.50817 0.89843 0.0
H334 H 0.03055 0.55621 0.92053 0.0
H335 H 0.97867 0.5039 0.95525 0.0
C336 C 0.65541 0.96763 0.97038 0.0
C337 C 0.60463 0.96891 0.96462 0.0
C338 C 0.62818 0.95715 0.97365 0.0
C339 C 0.60865 0.99126 0.95241 0.0
C340 C 0.6593 0.99036 0.95821 0.0
C341 C 0.63588 1.00191 0.9492 0.0
N342 N 0.67796 0.95575 0.97906 0.0
C343 C 0.70422 0.96806 0.97756 0.0
C344 C 0.68659 1.00119 0.95558 0.0
C345 C 0.70904 0.99029 0.96552 0.0
Gd346 Gd 0.70049 0.84895 0.98437 0.0
Gd347 Gd 0.66613 0.91826 0.9991 0.0
N348 N 0.62484 0.93467 0.98501 0.0
C349 C 0.57773 0.95742 0.96782 0.0
C350 C 0.59855 0.92377 0.98842 0.0
C351 C 0.57468 0.93484 0.97981 0.0
H352 H 0.59575 0.90681 0.99799 0.0
H353 H 0.5539 0.92602 0.98248 0.0
H354 H 0.771 0.85537 0.98238 0.0
H355 H 0.72158 0.96213 0.98609 0.0
H356 H 0.81327 0.83951 0.99919 0.0
H357 H 0.55917 0.96583 0.9611 0.0
H358 H 0.59082 1.00039 0.94529 0.0
H359 H 0.64715 0.80672 1.00024 0.0
H360 H 0.69039 0.0186 0.94636 0.0
H361 H 0.73001 0.99948 0.96427 0.0
H362 H 0.7753 0.78088 1.04616 0.0
H363 H 0.63859 0.01924 0.93977 0.0
H364 H 0.6751 0.76538 1.04759 0.0
H365 H 0.63653 0.77809 1.0267 0.0
N366 N 0.68857 0.81833 1.00862 0.0
C367 C 0.71087 0.80881 1.01866 0.0
C368 C 0.66284 0.80536 1.01053 0.0
C369 C 0.67924 0.77999 1.03665 0.0
C370 C 0.65737 0.78728 1.025 0.0
C371 C 0.70666 0.78982 1.03313 0.0
H372 H 0.72707 0.76578 1.05432 0.0
N373 N 0.74184 0.83445 0.99956 0.0
C374 C 0.7383 0.81643 1.01372 0.0
C375 C 0.78902 0.8152 1.01835 0.0
C376 C 0.76182 0.8066 1.0236 0.0
C377 C 0.76836 0.84228 0.99412 0.0
C378 C 0.7923 0.83301 1.00349 0.0
O379 O 0.65613 0.90722 0.96936 0.0
O380 O 0.69331 0.87994 0.95979 0.0
O381 O 0.72948 0.82756 0.9661 0.0
O382 O 0.6876 0.81078 0.97032 0.0
O383 O 0.63749 0.87866 1.005 0.0
O384 O 0.65164 0.8496 0.98218 0.0
O385 O 0.71949 0.86809 1.01155 0.0
O386 O 0.68349 0.89384 1.02383 0.0
O387 O 0.63835 0.93767 1.01866 0.0
O388 O 0.67906 0.95661 1.0128 0.0
O389 O 0.72237 0.88717 0.97374 0.0
O390 O 0.71437 0.91676 0.99721 0.0
C391 C 0.67289 0.89877 0.95614 0.0
C392 C 0.632 0.85727 0.99389 0.0
C393 C 0.72515 0.7781 0.96699 0.0
C394 C 0.75896 0.7413 0.95908 0.0
C395 C 0.73179 0.73747 0.98665 0.0
C396 C 0.71801 0.76275 0.98256 0.0
C397 C 0.75233 0.72689 0.97505 0.0
C398 C 0.74541 0.76702 0.95507 0.0
C399 C 0.71267 0.8062 0.96363 0.0
C400 C 0.7575 0.78864 1.0384 0.0
C401 C 0.73001 0.78022 1.04313 0.0
H402 H 0.80761 0.8081 1.02561 0.0
C403 C 0.70864 0.88167 1.02572 0.0
C404 C 0.73094 0.90722 0.98438 0.0
C405 C 0.66256 0.95987 1.04268 0.0
C406 C 0.64357 0.95826 0.07312 0.0
C407 C 0.69226 0.97293 1.06803 0.0
C408 C 0.68879 0.96908 1.04951 0.0
C409 C 0.66968 0.96774 0.07984 0.0
C410 C 0.64035 0.95475 1.05455 0.0
C411 C 0.65709 0.95664 1.02329 0.0
H412 H 0.72636 0.72594 0.99876 0.0
H413 H 0.70183 0.7702 0.99162 0.0
H414 H 0.76249 0.70698 0.97826 0.0
H415 H 0.75068 0.77834 0.94283 0.0
H416 H 0.71236 0.98038 0.07319 0.0
H417 H 0.7064 0.97364 1.04061 0.0
H418 H 0.6724 0.97157 0.09406 0.0
H419 H 0.61979 0.9492 1.04907 0.0
C420 C 0.28446 0.41637 0.7269 0.0
C421 C 0.28001 0.37215 0.71075 0.0
C422 C 0.29501 0.39004 0.72252 0.0
C423 C 0.25518 0.38211 0.70247 0.0
C424 C 0.25868 0.42589 0.71942 0.0
C425 C 0.24459 0.40901 0.70675 0.0
N426 N 0.29833 0.43167 0.73954 0.0
C427 C 0.28595 0.45548 0.7465 0.0
C428 C 0.24731 0.45155 0.72542 0.0
C429 C 0.26074 0.46612 0.73927 0.0
Gd430 Gd 0.41296 0.45214 0.7367 0.0
Gd431 Gd 0.34335 0.41421 0.74856 0.0
N432 N 0.31914 0.38125 0.73065 0.0
C433 C 0.29007 0.34458 0.70805 0.0
C434 C 0.32839 0.35401 0.72873 0.0
C435 C 0.31414 0.33534 0.7173 0.0
H436 H 0.34705 0.34685 0.73579 0.0
H437 H 0.3218 0.3139 0.71557 0.0
H438 H 0.38914 0.5197 0.7397 0.0
H439 H 0.29571 0.46686 0.75741 0.0
H440 H 0.39355 0.56036 0.76007 0.0
H441 H 0.27913 0.33013 0.69915 0.0
H442 H 0.24362 0.36889 0.69314 0.0
H443 H 0.46951 0.41024 0.74538 0.0
H444 H 0.22765 0.4597 0.71995 0.0
H445 H 0.25164 0.48549 0.74446 0.0
H446 H 0.46701 0.53246 0.80081 0.0
H447 H 0.22498 0.41613 0.70067 0.0
H448 H 0.51288 0.44351 0.79087 0.0
H449 H 0.50748 0.4065 0.76774 0.0
N450 N 0.4505 0.44659 0.75725 0.0
C451 C 0.45492 0.46876 0.76863 0.0
C452 C 0.47016 0.42545 0.75613 0.0
C453 C 0.49549 0.44478 0.78141 0.0
C454 C 0.4924 0.42374 0.76847 0.0
C455 C 0.47712 0.46805 0.78132 0.0
H456 H 0.49771 0.49054 0.80301 0.0
N457 N 0.41718 0.49345 0.75435 0.0
C458 C 0.43793 0.49285 0.76712 0.0
C459 C 0.42541 0.54028 0.77641 0.0
C460 C 0.44228 0.51615 0.77863 0.0
C461 C 0.40238 0.51779 0.75127 0.0
C462 C 0.40572 0.54127 0.76246 0.0
O463 O 0.35595 0.40484 0.71926 0.0
O464 O 0.38366 0.4427 0.711 0.0
O465 O 0.43777 0.48697 0.7262 0.0
O466 O 0.44808 0.44418 0.71825 0.0
O467 O 0.38155 0.38259 0.74861 0.0
O468 O 0.42158 0.40451 0.73722 0.0
O469 O 0.39816 0.45279 0.76762 0.0
O470 O 0.3502 0.45363 0.76653 0.0
O471 O 0.35345 0.39822 0.7752 0.0
O472 O 0.31097 0.39324 0.76405 0.0
O473 O 0.37535 0.47277 0.72395 0.0
O474 O 0.34279 0.46205 0.74537 0.0
C475 C 0.36473 0.42244 0.70658 0.0
C476 C 0.40856 0.38173 0.74338 0.0
C477 C 0.46316 0.48242 0.69944 0.0
C478 C 0.49656 0.51196 0.68262 0.0
C479 C 0.4551 0.49169 0.6679 0.0
C480 C 0.44668 0.47886 0.684 0.0
C481 C 0.47984 0.50811 0.66717 0.0
C482 C 0.48781 0.49904 0.69873 0.0
C483 C 0.45453 0.47098 0.7169 0.0
C484 C 0.46351 0.51483 0.79179 0.0
C485 C 0.48094 0.49091 0.79309 0.0
H486 H 0.4281 0.55858 0.78498 0.0
C487 C 0.37359 0.46044 0.77528 0.0
C488 C 0.35128 0.47784 0.73194 0.0
C489 C 0.31394 0.40236 0.7947 0.0
C490 C 0.28953 0.38977 0.82223 0.0
C491 C 0.28312 0.43651 0.80929 0.0
C492 C 0.30146 0.42935 0.79527 0.0
C493 C 0.27623 0.41631 0.82234 0.0
C494 C 0.30916 0.38341 0.80869 0.0
C495 C 0.32697 0.39148 0.77826 0.0
H496 H 0.44241 0.48889 0.65594 0.0
H497 H 0.42734 0.46647 0.68444 0.0
H498 H 0.48608 0.51737 0.65445 0.0
H499 H 0.49991 0.50228 0.71091 0.0
H500 H 0.27281 0.457 0.80935 0.0
H501 H 0.30451 0.44417 0.78441 0.0
H502 H 0.25966 0.42075 0.83197 0.0
H503 H 0.31814 0.36233 0.80785 0.0
C504 C 0.87048 0.04732 0.4713 0.0
C505 C 0.92179 0.05201 0.47117 0.0
C506 C 0.89498 0.06044 0.4777 0.0
C507 C 0.92366 0.03065 0.45814 0.0
C508 C 0.8724 0.02578 0.45823 0.0
C509 C 0.89906 0.01759 0.4517 0.0
N510 N 0.84475 0.05642 0.47733 0.0
C511 C 0.82049 0.04308 0.47189 0.0
C512 C 0.84744 0.0133 0.45191 0.0
C513 C 0.82141 0.02182 0.4589 0.0
Gd514 Gd 0.80575 0.15922 0.48507 0.0
Gd515 Gd 0.84611 0.09229 0.49936 0.0
N516 N 0.89263 0.08146 0.49014 0.0
C517 C 0.94605 0.06525 0.47796 0.0
C518 C 0.91638 0.09356 0.49731 0.0
C519 C 0.94333 0.08593 0.49118 0.0
H520 H 0.91481 0.10857 0.50814 0.0
H521 H 0.96202 0.09578 0.49682 0.0
H522 H 0.7356 0.1473 0.48752 0.0
H523 H 0.8003 0.04798 0.47773 0.0
H524 H 0.69508 0.16 0.50697 0.0
H525 H 0.96699 0.05935 0.47327 0.0
H526 H 0.94408 0.02403 0.45296 0.0
H527 H 0.85691 0.20691 0.49713 0.0
H528 H 0.84805 0.99683 0.44182 0.0
H529 H 0.80202 0.01175 0.45447 0.0
H530 H 0.73609 0.21854 0.55259 0.0
H531 H 0.90088 1.0012 0.44161 0.0
H532 H 0.83387 0.24364 0.547 0.0
H533 H 0.86905 0.23646 0.52285 0.0
N534 N 0.81875 0.19076 0.50848 0.0
C535 C 0.79758 0.19765 0.52024 0.0
C536 C 0.84303 0.20658 0.50851 0.0
C537 C 0.82924 0.22906 0.53619 0.0
C538 C 0.84927 0.2248 0.52272 0.0
C539 C 0.80254 0.21645 0.53464 0.0
H540 H 0.78398 0.23742 0.55767 0.0
N541 N 0.76588 0.16961 0.50318 0.0
C542 C 0.77025 0.1876 0.51719 0.0
C543 C 0.72049 0.18496 0.525 0.0
C544 C 0.74774 0.19518 0.52871 0.0
C545 C 0.73913 0.16029 0.49922 0.0
C546 C 0.71613 0.16769 0.51008 0.0
O547 O 0.85138 0.10108 0.46876 0.0
O548 O 0.8152 0.13068 0.45963 0.0
O549 O 0.77121 0.17902 0.4708 0.0
O550 O 0.81207 0.19903 0.47021 0.0
O551 O 0.87143 0.13388 0.50471 0.0
O552 O 0.85476 0.16233 0.48214 0.0
O553 O 0.78968 0.13681 0.51194 0.0
O554 O 0.829 0.11668 0.52409 0.0
O555 O 0.87088 0.07009 0.51946 0.0
O556 O 0.82977 0.05392 0.5116 0.0
O557 O 0.78595 0.11985 0.47436 0.0
O558 O 0.79795 0.08919 0.49697 0.0
C559 C 0.83513 0.11132 0.45575 0.0
C560 C 0.87544 0.15544 0.49344 0.0
C561 C 0.7777 0.21265 0.44814 0.0
C562 C 0.74973 0.24773 0.43171 0.0
C563 C 0.77218 0.20845 0.41597 0.0
C564 C 0.78318 0.19816 0.43214 0.0
C565 C 0.75547 0.23298 0.41572 0.0
C566 C 0.76112 0.23735 0.44786 0.0
C567 C 0.78554 0.20084 0.46564 0.0
C568 C 0.75307 0.21268 0.54351 0.0
C569 C 0.78039 0.22327 0.54648 0.0
H570 H 0.70267 0.19043 0.5335 0.0
C571 C 0.80255 0.12554 0.52622 0.0
C572 C 0.78065 0.09755 0.48419 0.0
C573 C 0.84409 0.04568 0.54163 0.0
C574 C 0.86159 0.03741 0.57192 0.0
C575 C 0.81177 0.03093 0.56539 0.0
C576 C 0.81653 0.03877 0.54748 0.0
C577 C 0.83426 0.03004 0.57761 0.0
C578 C 0.86628 0.04488 0.55394 0.0
C579 C 0.85094 0.05157 0.52265 0.0
H580 H 0.77638 0.19724 0.4036 0.0
H581 H 0.79541 0.17873 0.43223 0.0
H582 H 0.74734 0.24059 0.403 0.0
H583 H 0.75629 0.24797 0.46039 0.0
H584 H 0.79074 0.02487 0.5697 0.0
H585 H 0.79885 0.03883 0.53822 0.0
H586 H 0.83044 0.02336 0.59132 0.0
H587 H 0.88773 0.04904 0.54931 0.0
C588 C 0.22569 0.59785 0.22404 0.0
C589 C 0.22684 0.64362 0.20918 0.0
C590 C 0.21387 0.62425 0.22106 0.0
C591 C 0.25098 0.6353 0.19948 0.0
C592 C 0.25076 0.58992 0.21502 0.0
C593 C 0.26283 0.60842 0.20231 0.0
N594 N 0.21374 0.58078 0.23668 0.0
C595 C 0.2277 0.55694 0.2423 0.0
C596 C 0.26354 0.56412 0.21953 0.0
C597 C 0.25228 0.54787 0.23351 0.0
Gd598 Gd 0.10227 0.55973 0.23505 0.0
Gd599 Gd 0.16985 0.59618 0.24866 0.0
N600 N 0.18997 0.63127 0.23021 0.0
C601 C 0.21522 0.67082 0.20754 0.0
C602 C 0.1792 0.65808 0.22927 0.0
C603 C 0.19151 0.67818 0.2178 0.0
H604 H 0.16083 0.66375 0.23715 0.0
H605 H 0.18263 0.69927 0.21683 0.0
H606 H 0.11783 0.49065 0.22879 0.0
H607 H 0.21999 0.54468 0.25357 0.0
H608 H 0.1089 0.44524 0.24388 0.0
H609 H 0.22458 0.68635 0.19858 0.0
H610 H 0.26094 0.64967 0.19001 0.0
H611 H 0.06523 0.60816 0.25927 0.0
H612 H 0.28274 0.55718 0.21286 0.0
H613 H 0.26271 0.52851 0.23767 0.0
H614 H 0.03802 0.46662 0.28787 0.0
H615 H 0.28184 0.60251 0.19506 0.0
H616 H 0.01318 0.56386 0.29678 0.0
H617 H 0.0297 0.60879 0.2832 0.0
N618 N 0.07036 0.56344 0.25944 0.0
C619 C 0.06059 0.53834 0.26625 0.0
C620 C 0.05912 0.58845 0.26523 0.0
C621 C 0.02904 0.56343 0.28624 0.0
C622 C 0.03848 0.58884 0.27872 0.0
C623 C 0.04018 0.53777 0.28012 0.0
H624 H 0.01624 0.51091 0.29831 0.0
N625 N 0.0924 0.5144 0.24682 0.0
C626 C 0.07252 0.51322 0.2601 0.0
C627 C 0.07826 0.46242 0.2622 0.0
C628 C 0.06479 0.48712 0.26803 0.0
C629 C 0.10424 0.49012 0.24039 0.0
C630 C 0.09822 0.46405 0.24842 0.0
O631 O 0.15798 0.60549 0.21894 0.0
O632 O 0.13401 0.56578 0.2106 0.0
O633 O 0.07765 0.53177 0.21799 0.0
O634 O 0.06596 0.57588 0.22046 0.0
O635 O 0.12955 0.62511 0.25206 0.0
O636 O 0.09806 0.60768 0.23166 0.0
O637 O 0.1142 0.55452 0.26632 0.0
O638 O 0.16225 0.55797 0.26772 0.0
O639 O 0.16412 0.61811 0.27394 0.0
O640 O 0.20648 0.61146 0.26314 0.0
O641 O 0.14062 0.53785 0.22421 0.0
O642 O 0.17096 0.5478 0.24691 0.0
C643 C 0.15135 0.58716 0.20622 0.0
C644 C 0.10661 0.62867 0.24188 0.0
C645 C 0.02917 0.54228 0.21697 0.0
C646 C 0.98969 0.51244 0.20821 0.0
C647 C 0.98443 0.54514 0.23303 0.0
C648 C 0.0123 0.5542 0.23057 0.0
C649 C 0.9731 0.52442 0.22185 0.0
C650 C 0.01775 0.5213 0.2058 0.0
C651 C 0.05878 0.55098 0.21445 0.0
C652 C 0.0443 0.4865 0.28172 0.0
C653 C 0.03189 0.51173 0.28766 0.0
H654 H 0.07337 0.44203 0.26819 0.0
C655 C 0.13832 0.54909 0.27518 0.0
C656 C 0.16254 0.53116 0.23392 0.0
C657 C 0.20105 0.60937 0.29448 0.0
C658 C 0.21319 0.62131 0.32526 0.0
C659 C 0.21956 0.57321 0.31455 0.0
C660 C 0.2096 0.58129 0.29758 0.0
C661 C 0.2217 0.59322 0.32834 0.0
C662 C 0.20269 0.62898 0.30829 0.0
C663 C 0.1914 0.61936 0.27686 0.0
H664 H 0.9715 0.55439 0.2435 0.0
H665 H 0.02052 0.57058 0.23923 0.0
H666 H 0.95125 0.518 0.22365 0.0
H667 H 0.03053 0.51208 0.1952 0.0
H668 H 0.22628 0.55157 0.31688 0.0
H669 H 0.20908 0.56588 0.28688 0.0
H670 H 0.23048 0.58698 0.34118 0.0
H671 H 0.19713 0.65084 0.3054 0.0
C672 C 0.78978 0.69929 0.62704 0.0
C673 C 0.73859 0.70586 0.62827 0.0
C674 C 0.76365 0.69376 0.6352 0.0
C675 C 0.74027 0.72526 0.61399 0.0
C676 C 0.79109 0.71723 0.61188 0.0
C677 C 0.76645 0.731 0.60586 0.0
N678 N 0.81299 0.68411 0.63247 0.0
C679 C 0.83731 0.68474 0.62252 0.0
C680 C 0.81674 0.71953 0.60255 0.0
C681 C 0.83972 0.70277 0.60767 0.0
Gd682 Gd 0.84868 0.59515 0.64626 0.0
Gd683 Gd 0.80673 0.66014 0.66016 0.0
N684 N 0.76247 0.6739 0.64849 0.0
C685 C 0.71245 0.69706 0.63531 0.0
C686 C 0.73698 0.66462 0.65503 0.0
C687 C 0.71165 0.67609 0.64856 0.0
H688 H 0.73636 0.64923 0.6658 0.0
H689 H 0.69153 0.66892 0.65393 0.0
H690 H 0.91609 0.60323 0.65869 0.0
H691 H 0.85466 0.6709 0.62547 0.0
H692 H 0.95147 0.57879 0.67752 0.0
H693 H 0.69275 0.70578 0.63027 0.0
H694 H 0.72128 0.73507 0.60866 0.0
H695 H 0.79682 0.54509 0.63886 0.0
H696 H 0.8186 0.7331 0.59084 0.0
H697 H 0.85922 0.7034 0.59999 0.0
H698 H 0.90292 0.49592 0.6989 0.0
H699 H 0.7672 0.74513 0.59437 0.0
H700 H 0.81122 0.47617 0.6748 0.0
H701 H 0.78206 0.49957 0.65159 0.0
N702 N 0.83258 0.54999 0.65626 0.0
C703 C 0.84997 0.53641 0.66808 0.0
C704 C 0.80927 0.53616 0.64962 0.0
C705 C 0.81748 0.49677 0.66967 0.0
C706 C 0.80096 0.5099 0.65658 0.0
C707 C 0.84277 0.50953 0.67515 0.0
H708 H 0.8563 0.47505 0.69242 0.0
N709 N 0.88338 0.57329 0.66403 0.0
C710 C 0.87633 0.54814 0.67179 0.0
C711 C 0.92315 0.5448 0.68483 0.0
C712 C 0.896 0.53334 0.68256 0.0
C713 C 0.91019 0.58396 0.66558 0.0
C714 C 0.93035 0.57007 0.67615 0.0
O715 O 0.78928 0.64284 0.63227 0.0
O716 O 0.8188 0.60726 0.62258 0.0
O717 O 0.87068 0.601 0.62079 0.0
O718 O 0.86705 0.55922 0.63289 0.0
O719 O 0.78821 0.62025 0.67125 0.0
O720 O 0.80037 0.59228 0.64786 0.0
O721 O 0.85629 0.60541 0.67631 0.0
O722 O 0.81648 0.62976 0.6849 0.0
O723 O 0.77712 0.6824 0.67731 0.0
O724 O 0.81848 0.70039 0.67253 0.0
O725 O 0.8787 0.63472 0.64736 0.0
O726 O 0.85431 0.6714 0.66077 0.0
C727 C 0.79739 0.62488 0.61939 0.0
C728 C 0.78295 0.59867 0.66096 0.0
C729 C 0.86298 0.56157 0.60177 0.0
C730 C 0.87367 0.54529 0.57162 0.0
C731 C 0.82747 0.53583 0.58467 0.0
C732 C 0.83594 0.54917 0.60052 0.0
C733 C 0.84636 0.53361 0.57028 0.0
C734 C 0.88143 0.55991 0.58729 0.0
C735 C 0.87349 0.57366 0.61861 0.0
C736 C 0.88823 0.50738 0.69039 0.0
C737 C 0.86164 0.49555 0.68674 0.0
H738 H 0.93886 0.53404 0.69298 0.0
C739 C 0.83802 0.6124 0.68908 0.0
C740 C 0.87827 0.66063 0.65448 0.0
C741 C 0.79134 0.71806 0.6973 0.0
C742 C 0.76574 0.75307 0.71525 0.0
C743 C 0.80865 0.73046 0.72676 0.0
C744 C 0.81145 0.71488 0.71093 0.0
C745 C 0.78625 0.74966 0.72885 0.0
C746 C 0.76825 0.73636 0.69972 0.0
C747 C 0.79371 0.70372 0.67996 0.0
H748 H 0.80656 0.52646 0.58376 0.0
H749 H 0.82136 0.54998 0.6117 0.0
H750 H 0.84018 0.52176 0.55848 0.0
H751 H 0.90284 0.56794 0.58893 0.0
H752 H 0.82432 0.72821 0.73727 0.0
H753 H 0.82929 0.70066 0.70929 0.0
H754 H 0.78567 0.76241 0.74088 0.0
H755 H 0.75253 0.73788 0.68918 0.0
C756 C 0.05182 0.05816 0.87279 0.0
C757 C 0.05605 0.01131 0.85942 0.0
C758 C 0.06381 0.03114 0.87267 0.0
C759 C 0.03581 0.01874 0.84645 0.0
C760 C 0.03056 0.06511 0.86019 0.0
C761 C 0.02305 0.04551 0.84687 0.0
N762 N 0.05913 0.07664 0.88611 0.0
C763 C 0.04309 0.10029 0.88883 0.0
C764 C 0.01638 0.09098 0.86191 0.0
C765 C 0.02221 0.10825 0.87659 0.0
Gd766 Gd 0.16433 0.09316 0.89395 0.0
Gd767 Gd 0.09384 0.06025 0.90654 0.0
N768 N 0.084 0.02474 0.88514 0.0
C769 C 0.06907 0.98466 0.85949 0.0
C770 C 0.09615 0.99854 0.8855 0.0
C771 C 0.08914 0.97823 0.87263 0.0
H772 H 0.11154 0.9935 0.89548 0.0
H773 H 0.09927 0.95765 0.87283 0.0
H774 H 0.15066 0.15736 0.91197 0.0
H775 H 0.04494 0.11222 0.90097 0.0
H776 H 0.1741 0.19152 0.93197 0.0
H777 H 0.06378 0.96891 0.84948 0.0
H778 H 0.02965 1.0038 0.83615 0.0
H779 H 0.21406 0.0459 0.88272 0.0
H780 H 0.99978 0.097 0.85261 0.0
H781 H 0.00996 0.12721 0.87894 0.0
H782 H 0.26565 0.15063 0.94316 0.0
H783 H 0.00691 0.05062 0.83704 0.0
H784 H 0.2893 0.06454 0.91252 0.0
H785 H 0.26332 0.03419 0.89106 0.0
N786 N 0.21205 0.08227 0.89944 0.0
C787 C 0.22615 0.09959 0.91088 0.0
C788 C 0.22518 0.0593 0.89209 0.0
C789 C 0.26768 0.06978 0.9089 0.0
C790 C 0.2531 0.05261 0.89677 0.0
C791 C 0.25432 0.09377 0.916 0.0
H792 H 0.28987 0.10791 0.93208 0.0
N793 N 0.18537 0.12855 0.91177 0.0
C794 C 0.21252 0.12364 0.91709 0.0
C795 C 0.21249 0.16704 0.93418 0.0
C796 C 0.22668 0.14253 0.92864 0.0
C797 C 0.17184 0.15298 0.91657 0.0
C798 C 0.18509 0.17243 0.92795 0.0
O799 O 0.11166 0.05722 0.87623 0.0
O800 O 0.15883 0.05183 0.87849 0.0
O801 O 0.15139 0.10772 0.86748 0.0
O802 O 0.19531 0.11217 0.87632 0.0
O803 O 0.13017 0.0379 0.9191 0.0
O804 O 0.16682 0.0453 0.89957 0.0
O805 O 0.1619 0.09519 0.92448 0.0
O806 O 0.11923 0.07465 0.93284 0.0
O807 O 0.07721 0.02351 0.92078 0.0
O808 O 0.05335 0.06241 0.92054 0.0
O809 O 0.1248 0.12412 0.89276 0.0
O810 O 0.09176 0.10722 0.91259 0.0
C811 C 0.13565 0.04643 0.86946 0.0
C812 C 0.15353 0.02947 0.91156 0.0
C813 C 0.18814 0.10285 0.84581 0.0
C814 C 0.21032 0.11486 0.81737 0.0
C815 C 0.21179 0.06647 0.82824 0.0
C816 C 0.19723 0.07471 0.84375 0.0
C817 C 0.21906 0.08668 0.81524 0.0
C818 C 0.1937 0.12235 0.83224 0.0
C819 C 0.17756 0.11382 0.86297 0.0
C820 C 0.25451 0.13648 0.93416 0.0
C821 C 0.2683 0.11215 0.92786 0.0
H822 H 0.22263 0.1821 0.94306 0.0
C823 C 0.14424 0.08684 0.93712 0.0
C824 C 0.10147 0.12811 0.90266 0.0
C825 C 0.02755 0.01927 0.92173 0.0
C826 C 0.99336 0.98344 0.93134 0.0
C827 C 0.98863 0.00604 0.90216 0.0
C828 C 0.01214 0.02289 0.90581 0.0
C829 C 0.97931 0.98632 0.91479 0.0
C830 C 0.01792 0.99962 0.93458 0.0
C831 C 0.05354 0.03577 0.92512 0.0
H832 H 0.219 0.04481 0.82685 0.0
H833 H 0.19436 0.05949 0.85438 0.0
H834 H 0.23256 0.08073 0.8041 0.0
H835 H 0.18789 0.1443 0.83425 0.0
H836 H 0.97707 0.0089 0.88975 0.0
H837 H 0.01779 0.03906 0.89634 0.0
H838 H 0.9601 0.97453 0.91201 0.0
H839 H 0.02909 0.99743 0.94722 0.0
C840 C 0.71787 0.30349 0.12868 0.0
C841 C 0.76938 0.30233 0.12693 0.0
C842 C 0.74422 0.31269 0.13483 0.0
C843 C 0.76783 0.28177 0.1134 0.0
C844 C 0.71639 0.28313 0.11485 0.0
C845 C 0.74144 0.27204 0.10749 0.0
N846 N 0.69385 0.31573 0.13548 0.0
C847 C 0.66795 0.30804 0.12889 0.0
C848 C 0.68978 0.27484 0.10854 0.0
C849 C 0.66551 0.28747 0.11553 0.0
Gd850 Gd 0.66736 0.41479 0.14697 0.0
Gd851 Gd 0.70131 0.34498 0.16095 0.0
N852 N 0.74517 0.33292 0.14785 0.0
C853 C 0.79541 0.31314 0.13273 0.0
C854 C 0.77056 0.34292 0.15381 0.0
C855 C 0.79598 0.33343 0.14628 0.0
H856 H 0.77127 0.35707 0.16497 0.0
H857 H 0.81602 0.34128 0.15125 0.0
H858 H 0.60044 0.40665 0.16219 0.0
H859 H 0.64888 0.31728 0.13371 0.0
H860 H 0.56694 0.43154 0.18193 0.0
H861 H 0.81517 0.3058 0.12694 0.0
H862 H 0.78695 0.27342 0.10731 0.0
H863 H 0.71819 0.46257 0.13688 0.0
H864 H 0.68776 0.25907 0.09808 0.0
H865 H 0.64479 0.28139 0.11061 0.0
H866 H 0.61562 0.51727 0.19782 0.0
H867 H 0.74061 0.25633 0.09693 0.0
H868 H 0.70538 0.53564 0.16976 0.0
H869 H 0.73393 0.50952 0.14737 0.0
N870 N 0.6819 0.4613 0.15388 0.0
C871 C 0.66521 0.47596 0.16544 0.0
C872 C 0.7058 0.47349 0.1469 0.0
C873 C 0.69849 0.51491 0.16531 0.0
C874 C 0.71466 0.50023 0.15268 0.0
C875 C 0.67314 0.50305 0.17161 0.0
H876 H 0.66122 0.53827 0.18864 0.0
N877 N 0.63256 0.4382 0.16417 0.0
C878 C 0.63955 0.46422 0.17057 0.0
C879 C 0.59486 0.46698 0.18635 0.0
C880 C 0.62112 0.47911 0.18208 0.0
C881 C 0.60648 0.42681 0.16771 0.0
C882 C 0.58738 0.44089 0.17893 0.0
O883 O 0.71191 0.35979 0.13089 0.0
O884 O 0.70563 0.40769 0.12823 0.0
O885 O 0.65098 0.4031 0.12079 0.0
O886 O 0.6491 0.44709 0.1302 0.0
O887 O 0.72308 0.38232 0.1727 0.0
O888 O 0.71526 0.41566 0.15108 0.0
O889 O 0.66251 0.41113 0.17746 0.0
O890 O 0.69025 0.37341 0.18661 0.0
O891 O 0.73038 0.32159 0.17821 0.0
O892 O 0.68806 0.30583 0.17382 0.0
O893 O 0.63472 0.37705 0.14746 0.0
O894 O 0.65366 0.33996 0.16353 0.0
C895 C 0.71562 0.38378 0.12154 0.0
C896 C 0.73098 0.40486 0.1639 0.0
C897 C 0.65851 0.44006 0.09943 0.0
C898 C 0.64077 0.44981 1.06976 0.0
C899 C 0.67881 0.47872 0.08228 0.0
C900 C 0.67683 0.46348 0.09834 0.0
C901 C 0.65992 0.47283 1.06829 0.0
C902 C 0.64525 0.4306 0.08394 0.0
C903 C 0.64697 0.42982 0.11662 0.0
C904 C 0.62936 0.50564 0.1888 0.0
C905 C 0.65534 0.51758 0.18359 0.0
H906 H 0.58007 0.47776 0.19513 0.0
C907 C 0.67453 0.3965 0.19046 0.0
C908 C 0.63176 0.35222 0.15586 0.0
C909 C 0.72526 0.27216 0.17558 0.0
C910 C 0.76154 0.23585 0.18017 0.0
C911 C 0.72512 0.22958 0.15738 0.0
C912 C 0.71314 0.2555 0.16199 0.0
C913 C 0.74903 0.21975 0.16639 0.0
C914 C 0.74948 0.26221 0.18466 0.0
C915 C 0.71329 0.3002 0.17997 0.0
H916 H 0.69266 0.49698 0.08142 0.0
H917 H 0.68827 0.47085 0.10998 0.0
H918 H 0.65894 0.4878 1.05732 0.0
H919 H 0.63388 0.41076 0.08469 0.0
H920 H 0.71561 0.21688 0.14692 0.0
H921 H 0.69441 0.26245 0.15485 0.0
H922 H 0.75716 0.19902 0.16291 0.0
H923 H 0.75887 0.27497 0.19517 0.0
C924 C 0.45564 0.96203 0.37701 0.0
C925 C 0.45203 0.01185 0.36858 0.0
C926 C 0.44289 0.98857 0.37904 0.0
C927 C 0.47403 0.00828 0.35609 0.0
C928 C 0.47809 0.95868 0.36461 0.0
C929 C 0.48698 0.9818 0.35411 0.0
N930 N 0.44651 0.93975 0.38732 0.0
C931 C 0.46157 0.91504 0.38734 0.0
C932 C 0.49152 0.93235 0.36343 0.0
C933 C 0.48355 0.91061 0.37507 0.0
Gd934 Gd 0.34319 0.91338 0.39335 0.0
Gd935 Gd 0.41055 0.95098 0.4083 0.0
N936 N 0.42093 0.99135 0.39086 0.0
C937 C 0.43863 0.03805 0.37087 0.0
C938 C 0.4088 0.01717 0.39372 0.0
C939 C 0.41709 0.04077 0.38361 0.0
H940 H 0.3939 0.01987 0.4045 0.0
H941 H 0.40727 0.06116 0.38592 0.0
H942 H 0.35939 0.84883 0.40936 0.0
H943 H 0.45818 0.8992 0.39741 0.0
H944 H 0.33697 0.81144 0.42774 0.0
H945 H 0.44508 0.05641 0.3631 0.0
H946 H 0.48126 0.02592 0.34793 0.0
H947 H 0.29179 0.96164 0.38532 0.0
H948 H 0.50884 0.92897 0.35411 0.0
H949 H 0.49496 0.89071 0.37503 0.0
H950 H 0.24405 0.84761 0.44018 0.0
H951 H 0.50413 0.9795 0.34453 0.0
H952 H 0.21887 0.93832 0.41616 0.0
H953 H 0.24323 0.97166 0.39561 0.0
N954 N 0.29602 0.92408 0.40108 0.0
C955 C 0.28271 0.90505 0.41194 0.0
C956 C 0.28187 0.94734 0.39478 0.0
C957 C 0.24048 0.93408 0.412 0.0
C958 C 0.25415 0.95295 0.4004 0.0
C959 C 0.25451 0.90949 0.41761 0.0
H960 H 0.21925 0.89182 0.43263 0.0
N961 N 0.32419 0.87683 0.41112 0.0
C962 C 0.29698 0.88045 0.4168 0.0
C963 C 0.298 0.83459 0.43129 0.0
C964 C 0.28327 0.85951 0.42716 0.0
C965 C 0.3383 0.85213 0.41452 0.0
C966 C 0.32558 0.83083 0.42486 0.0
O967 O 0.397 0.95661 0.37722 0.0
O968 O 0.34892 0.95297 0.37578 0.0
O969 O 0.35308 0.89545 0.3672 0.0
O970 O 0.31007 0.89394 0.37771 0.0
O971 O 0.37185 0.97339 0.41839 0.0
O972 O 0.3395 0.96124 0.39682 0.0
O973 O 0.34672 0.90936 0.42404 0.0
O974 O 0.38173 0.94012 0.43369 0.0
O975 O 0.43048 0.98596 0.42194 0.0
O976 O 0.44911 0.94439 0.4242 0.0
O977 O 0.38461 0.88623 0.39121 0.0
O978 O 0.4137 0.90311 0.41316 0.0
C979 C 0.37272 0.96218 0.36848 0.0
C980 C 0.34862 0.97838 0.40941 0.0
C981 C 0.31483 0.89892 0.34666 0.0
C982 C 0.29853 0.88498 0.31697 0.0
C983 C 0.28794 0.93199 0.32839 0.0
C984 C 0.30175 0.92537 0.34447 0.0
C985 C 0.28588 0.91173 0.31478 0.0
C986 C 0.31356 0.8792 0.33288 0.0
C987 C 0.32644 0.88972 0.36396 0.0
C988 C 0.25518 0.86383 0.43274 0.0
C989 C 0.24097 0.8889 0.42824 0.0
H990 H 0.28815 0.81796 0.43918 0.0
C991 C 0.35951 0.92303 0.43721 0.0
C992 C 0.40623 0.88236 0.40236 0.0
C993 C 0.46264 0.97996 0.44545 0.0
C994 C 0.49702 0.00914 0.46144 0.0
C995 C 0.45775 0.98694 0.47747 0.0
C996 C 0.44791 0.97499 0.46148 0.0
C997 C 0.48205 1.00405 0.47748 0.0
C998 C 0.48714 0.99682 0.44551 0.0
C999 C 0.45145 0.9712 0.42803 0.0
H1000 H 0.27773 0.95238 0.3268 0.0
H1001 H 0.30132 0.94034 0.35539 0.0
H1002 H 0.27362 0.91657 0.3029 0.0
H1003 H 0.32226 0.85829 0.33538 0.0
H1004 H 0.44637 0.98315 0.48988 0.0
H1005 H 0.42866 0.96245 0.46155 0.0
H1006 H 0.48933 0.01299 0.49002 0.0
H1007 H 0.49803 1.00115 0.43295 0.0
C1008 C 0.15939 0.47152 0.47677 0.0
C1009 C 0.11317 0.47164 0.46259 0.0
C1010 C 0.13366 0.45844 0.47352 0.0
C1011 C 0.11967 0.49749 0.45412 0.0
C1012 C 0.16553 0.49811 0.469 0.0
C1013 C 0.14587 0.51065 0.45726 0.0
N1014 N 0.17754 0.45913 0.48854 0.0
C1015 C 0.20105 0.47337 0.49428 0.0
C1016 C 0.19077 0.51176 0.47377 0.0
C1017 C 0.20836 0.49955 0.48671 0.0
Gd1018 Gd 0.1986 0.34448 0.48712 0.0
Gd1019 Gd 0.16494 0.41369 0.49908 0.0
N1020 N 0.12825 0.43322 0.48169 0.0
C1021 C 0.08659 0.4587 0.46079 0.0
C1022 C 0.10197 0.42115 0.48068 0.0
C1023 C 0.08086 0.43354 0.47007 0.0
H1024 H 0.09741 0.40182 0.48791 0.0
H1025 H 0.06019 0.42368 0.46907 0.0
H1026 H 0.2644 0.36429 0.50004 0.0
H1027 H 0.21417 0.46469 0.50481 0.0
H1028 H 0.30058 0.34947 0.52187 0.0
H1029 H 0.07022 0.4682 0.45256 0.0
H1030 H 0.10438 0.50777 0.44544 0.0
H1031 H 0.14599 0.2948 0.49087 0.0
H1032 H 0.19632 0.53218 0.46806 0.0
H1033 H 0.22737 0.51043 0.49102 0.0
H1034 H 0.25692 0.27291 0.55387 0.0
H1035 H 0.15034 0.53092 0.45099 0.0
H1036 H 0.16428 0.24312 0.53629 0.0
H1037 H 0.13251 0.25658 0.51139 0.0
N1038 N 0.18261 0.30713 0.50574 0.0
C1039 C 0.20174 0.29833 0.51837 0.0
C1040 C 0.15893 0.2912 0.50253 0.0
C1041 C 0.16978 0.26092 0.52775 0.0
C1042 C 0.15169 0.2686 0.5138 0.0
C1043 C 0.19552 0.27524 0.52987 0.0
H1044 H 0.21084 0.24892 0.55169 0.0
N1045 N 0.23392 0.33411 0.50849 0.0
C1046 C 0.22823 0.31159 0.51948 0.0
C1047 C 0.27457 0.31629 0.53304 0.0
C1048 C 0.24835 0.30248 0.53226 0.0
C1049 C 0.25971 0.34728 0.50906 0.0
C1050 C 0.28028 0.33878 0.52141 0.0
O1051 O 0.15546 0.4037 0.46932 0.0
O1052 O 0.19135 0.37378 0.46104 0.0
O1053 O 0.23628 0.3241 0.47674 0.0
O1054 O 0.19513 0.30675 0.47043 0.0
O1055 O 0.13648 0.37306 0.50355 0.0
O1056 O 0.15086 0.34267 0.48177 0.0
O1057 O 0.20234 0.36065 0.51795 0.0
O1058 O 0.20491 0.40836 0.51638 0.0
O1059 O 0.14621 0.40567 0.52524 0.0
O1060 O 0.14873 0.44861 0.51452 0.0
O1061 O 0.22089 0.38078 0.47461 0.0
O1062 O 0.21337 0.41565 0.49496 0.0
C1063 C 0.17214 0.39374 0.45656 0.0
C1064 C 0.13097 0.35111 0.49291 0.0
C1065 C 0.23368 0.29606 0.45096 0.0
C1066 C 0.26357 0.26381 0.4336 0.0
C1067 C 0.23908 0.30316 0.41898 0.0
C1068 C 0.22743 0.31147 0.43538 0.0
C1069 C 0.25686 0.27945 0.41803 0.0
C1070 C 0.252 0.27269 0.45008 0.0
C1071 C 0.22249 0.30427 0.46853 0.0
C1072 C 0.24174 0.28004 0.54392 0.0
C1073 C 0.21543 0.2665 0.54274 0.0
H1074 H 0.29062 0.30955 0.54247 0.0
C1075 C 0.21101 0.38513 0.52538 0.0
C1076 C 0.22963 0.40321 0.48297 0.0
C1077 C 0.15368 0.44322 0.54557 0.0
C1078 C 0.14179 0.46054 0.57525 0.0
C1079 C 0.18991 0.46507 0.56409 0.0
C1080 C 0.18169 0.4526 0.54788 0.0
C1081 C 0.1699 0.46952 0.57768 0.0
C1082 C 0.13418 0.4467 0.55933 0.0
C1083 C 0.14313 0.43273 0.52838 0.0
H1084 H 0.23411 0.31496 0.40691 0.0
H1085 H 0.21366 0.32982 0.43593 0.0
H1086 H 0.26477 0.2731 0.40501 0.0
H1087 H 0.2573 0.26156 0.46237 0.0
H1088 H 0.21147 0.47247 0.56578 0.0
H1089 H 0.1968 0.4512 0.53703 0.0
H1090 H 0.17597 0.48093 0.58967 0.0
H1091 H 0.11223 0.44089 0.5569 0.0
C1092 C 0.78279 0.90789 0.23344 0.0
C1093 C 0.78171 0.86315 0.21753 0.0
C1094 C 0.79631 0.88331 0.22793 0.0
C1095 C 0.75356 0.86846 0.21237 0.0
C1096 C 0.75441 0.91312 0.22851 0.0
C1097 C 0.74002 0.89348 0.21772 0.0
N1098 N 0.79708 0.92617 0.24418 0.0
C1099 C 0.78387 0.94948 0.25109 0.0
C1100 C 0.74115 0.93764 0.23489 0.0
C1101 C 0.75588 0.95576 0.24637 0.0
Gd1102 Gd 0.91267 0.94953 0.23592 0.0
Gd1103 Gd 0.84471 0.91509 0.25003 0.0
N1104 N 0.82371 0.879 0.23294 0.0
C1105 C 0.79573 0.83808 0.21287 0.0
C1106 C 0.8372 0.85423 0.22891 0.0
C1107 C 0.82352 0.83354 0.21868 0.0
H1108 H 0.8586 0.8505 0.23341 0.0
H1109 H 0.83438 0.81406 0.21532 0.0
H1110 H 0.89186 0.01587 0.2464 0.0
H1111 H 0.79487 0.9634 0.26021 0.0
H1112 H 0.90353 0.05268 0.26859 0.0
H1113 H 0.78516 0.8219 0.20507 0.0
H1114 H 0.74188 0.85319 0.2045 0.0
H1115 H 0.96314 0.89822 0.24157 0.0
H1116 H 0.7194 0.94247 0.23135 0.0
H1117 H 0.74565 0.97449 0.25166 0.0
H1118 H 0.98037 0.01306 0.30218 0.0
H1119 H 0.71823 0.89715 0.21375 0.0
H1120 H 0.01305 0.92034 0.28698 0.0
H1121 H 1.0009 0.88675 0.26284 0.0
N1122 N 0.95003 0.93572 0.25515 0.0
C1123 C 0.95815 0.9558 0.26732 0.0
C1124 C 0.96628 0.91202 0.25284 0.0
C1125 C 0.99555 0.92505 0.27804 0.0
C1126 C 0.9886 0.90592 0.26454 0.0
C1127 C 0.9808 0.95066 0.27929 0.0
H1128 H 0.00571 0.96763 0.3012 0.0
N1129 N 0.92197 0.98641 0.25629 0.0
C1130 C 0.94424 0.98196 0.26766 0.0
C1131 C 0.93716 0.02838 0.28054 0.0
C1132 C 0.95208 1.00278 0.28026 0.0
C1133 C 0.90806 0.01178 0.25614 0.0
C1134 C 0.91502 0.03285 0.26849 0.0
O1135 O 0.84717 0.91105 0.21929 0.0
O1136 O 0.88556 0.93763 0.20975 0.0
O1137 O 0.93098 0.9873 0.22413 0.0
O1138 O 0.95155 0.94688 0.22015 0.0
O1139 O 0.88527 0.88609 0.25213 0.0
O1140 O 0.91595 0.90196 0.23067 0.0
O1141 O 0.89759 0.95229 0.26702 0.0
O1142 O 0.85015 0.95611 0.26596 0.0
O1143 O 0.85696 0.89999 0.27653 0.0
O1144 O 0.81346 0.89543 0.26717 0.0
O1145 O 0.8756 0.97194 0.22409 0.0
O1146 O 0.84155 0.96289 0.24512 0.0
C1147 C 0.86192 0.92258 0.20604 0.0
C1148 C 0.90756 0.8816 0.24153 0.0
C1149 C 0.9619 0.98418 0.1996 0.0
C1150 C 0.99444 0.01454 0.18279 0.0
C1151 C 0.95976 0.9852 0.16719 0.0
C1152 C 0.94972 0.97474 0.18358 0.0
C1153 C 0.98208 0.0048 0.16674 0.0
C1154 C 0.98367 1.00437 0.19917 0.0
C1155 C 0.95237 0.97407 0.21716 0.0
C1156 C 0.97418 0.99732 0.29237 0.0
C1157 C 0.9885 0.97138 0.29187 0.0
H1158 H 0.94271 0.04489 0.28991 0.0
C1159 C 0.87363 0.96198 0.27461 0.0
C1160 C 0.85235 0.97898 0.23236 0.0
C1161 C 0.81954 0.90405 0.29775 0.0
C1162 C 0.7962 0.89189 0.32576 0.0
C1163 C 0.79549 0.9404 0.31511 0.0
C1164 C 0.81051 0.9322 0.29977 0.0
C1165 C 0.78772 0.92014 0.32794 0.0
C1166 C 0.81314 0.88433 0.31104 0.0
C1167 C 0.83079 0.89343 0.28069 0.0
H1168 H 0.95051 0.97779 0.15478 0.0
H1169 H 0.93263 0.95939 0.18378 0.0
H1170 H 0.99011 0.01164 0.15381 0.0
H1171 H 0.99232 0.01199 0.21174 0.0
H1172 H 0.78834 0.96209 0.31647 0.0
H1173 H 0.81366 0.94739 0.28917 0.0
H1174 H 0.77395 0.9261 0.33894 0.0
H1175 H 0.81855 0.86223 0.30885 0.0
C1176 C 0.35349 0.53455 0.97969 0.0
C1177 C 0.39985 0.53395 0.96568 0.0
C1178 C 0.37912 0.54761 0.97619 0.0
C1179 C 0.39375 0.50746 0.95804 0.0
C1180 C 0.34771 0.50738 0.97276 0.0
C1181 C 0.36769 0.49421 0.96154 0.0
N1182 N 0.3349 0.54777 0.99075 0.0
C1183 C 0.31107 0.53404 0.99654 0.0
C1184 C 0.32237 0.49399 0.97772 0.0
C1185 C 0.30419 0.50721 0.9899 0.0
Gd1186 Gd 0.31404 0.66375 0.98584 0.0
Gd1187 Gd 0.34611 0.59458 0.99906 0.0
N1188 N 0.3841 0.57338 0.98359 0.0
C1189 C 0.42622 0.54716 0.96343 0.0
C1190 C 0.41019 0.58576 0.98215 0.0
C1191 C 0.43153 0.57299 0.97191 0.0
H1192 H 0.41448 0.6057 0.98863 0.0
H1193 H 0.45201 0.58313 0.97053 0.0
H1194 H 0.24604 0.64957 0.99552 0.0
H1195 H 0.2972 0.54381 1.00624 0.0
H1196 H 0.20904 0.66507 1.01673 0.0
H1197 H 0.44274 0.53737 0.95546 0.0
H1198 H 0.40925 0.49679 0.9497 0.0
H1199 H 0.3677 0.7112 0.9917 0.0
H1200 H 0.31708 0.47314 0.97266 0.0
H1201 H 0.28495 0.4967 0.99425 0.0
H1202 H 0.25611 0.73346 1.05364 0.0
H1203 H 0.36349 0.4735 0.9559 0.0
H1204 H 0.3521 0.75751 1.03957 0.0
H1205 H 0.38348 0.74547 1.01416 0.0
N1206 N 0.33093 0.69841 1.00619 0.0
C1207 C 0.31199 0.70697 1.01897 0.0
C1208 C 0.35535 0.71355 1.00371 0.0
C1209 C 0.34584 0.74106 1.03027 0.0
C1210 C 0.36371 0.73416 1.01604 0.0
C1211 C 0.31915 0.72827 1.03147 0.0
H1212 H 0.30427 0.75341 1.05389 0.0
N1213 N 0.2779 0.67592 1.00632 0.0
C1214 C 0.2844 0.69637 1.01856 0.0
C1215 C 0.23661 0.69444 1.03026 0.0
C1216 C 0.26397 0.70584 1.03101 0.0
C1217 C 0.25116 0.66505 1.00545 0.0
C1218 C 0.23018 0.67394 1.01744 0.0
O1219 O 0.35659 0.60278 0.96934 0.0
O1220 O 0.32197 0.63377 0.96047 0.0
O1221 O 0.27929 0.68272 0.97101 0.0
O1222 O 0.32022 0.70299 0.97084 0.0
O1223 O 0.37577 0.63455 1.00232 0.0
O1224 O 0.36156 0.66388 0.97993 0.0
O1225 O 0.3079 0.6469 1.01634 0.0
O1226 O 0.30464 0.59933 1.01468 0.0
O1227 O 0.35915 0.60752 1.02578 0.0
O1228 O 0.36275 0.56323 1.01721 0.0
O1229 O 0.28883 0.6288 0.97408 0.0
O1230 O 0.29829 0.5916 0.99285 0.0
C1231 C 0.34062 0.61323 0.9564 0.0
C1232 C 0.38146 0.65592 0.99118 0.0
C1233 C 0.27941 0.73218 0.96876 0.0
C1234 C 0.24513 0.7671 0.95862 0.0
C1235 C 0.2678 0.7725 0.98757 0.0
C1236 C 0.28365 0.74812 0.9844 0.0
C1237 C 0.24844 0.78191 0.97479 0.0
C1238 C 0.26035 0.74203 0.9557 0.0
C1239 C 0.29373 0.70485 0.96613 0.0
C1240 C 0.2715 0.7261 1.04389 0.0
C1241 C 0.299 0.73726 1.04414 0.0
H1242 H 0.2203 0.70147 1.03944 0.0
C1243 C 0.29852 0.62252 1.02356 0.0
C1244 C 0.28137 0.605 0.98157 0.0
C1245 C 0.34927 0.57146 1.04731 0.0
C1246 C 0.36766 0.55673 0.0757 0.0
C1247 C 0.32739 0.53185 1.06275 0.0
C1248 C 0.32963 0.54906 1.04749 0.0
C1249 C 0.34747 0.5346 0.07648 0.0
C1250 C 0.36284 0.57854 1.06321 0.0
C1251 C 0.3629 0.58109 1.03058 0.0
H1252 H 0.27097 0.78444 0.99979 0.0
H1253 H 0.29936 0.74205 0.99405 0.0
H1254 H 0.23696 0.80144 0.97714 0.0
H1255 H 0.25763 0.73047 0.94327 0.0
H1256 H 0.31268 0.51422 1.06287 0.0
H1257 H 0.31773 0.54365 1.0356 0.0
H1258 H 0.3489 0.51779 0.08633 0.0
H1259 H 0.37596 0.5974 1.06334 0.0
C1260 C 0.72828 0.10371 0.73153 0.0
C1261 C 0.72828 0.14938 0.71651 0.0
C1262 C 0.71439 0.12853 0.72689 0.0
C1263 C 0.75598 0.14443 0.71032 0.0
C1264 C 0.7564 0.09899 0.72579 0.0
C1265 C 0.76997 0.11924 0.7149 0.0
N1266 N 0.71467 0.08469 0.74222 0.0
C1267 C 0.72859 0.06125 0.74847 0.0
C1268 C 0.77025 0.07432 0.73145 0.0
C1269 C 0.75637 0.05554 0.74301 0.0
Gd1270 Gd 0.59978 0.05856 0.73683 0.0
Gd1271 Gd 0.66717 0.09519 0.74947 0.0
N1272 N 0.6874 0.13248 0.7328 0.0
C1273 C 0.71411 0.17483 0.71298 0.0
C1274 C 0.67382 0.15762 0.72986 0.0
C1275 C 0.68687 0.17905 0.71981 0.0
H1276 H 0.65287 0.16126 0.73513 0.0
H1277 H 0.67593 0.19884 0.71737 0.0
H1278 H 0.62262 0.99063 0.74023 0.0
H1279 H 0.71836 0.04669 0.75761 0.0
H1280 H 0.61839 0.95078 0.76126 0.0
H1281 H 0.72421 0.19157 0.70534 0.0
H1282 H 0.76691 0.1601 0.70222 0.0
H1283 H 0.55388 0.10849 0.75219 0.0
H1284 H 0.79182 0.06989 0.7273 0.0
H1285 H 0.76709 0.03669 0.74777 0.0
H1286 H 0.54554 0.97992 0.80209 0.0
H1287 H 0.79148 0.11588 0.71025 0.0
H1288 H 0.50925 0.07418 0.79692 0.0
H1289 H 0.519 0.11401 0.7762 0.0
N1290 N 0.56666 0.06714 0.76 0.0
C1291 C 0.56017 0.04422 0.77052 0.0
C1292 C 0.55134 0.09153 0.76157 0.0
C1293 C 0.52518 0.07183 0.78653 0.0
C1294 C 0.53081 0.09444 0.77498 0.0
C1295 C 0.53972 0.04626 0.78432 0.0
H1296 H 0.51884 0.02411 0.80617 0.0
N1297 N 0.59485 0.01744 0.75469 0.0
C1298 C 0.5748 0.01882 0.76791 0.0
C1299 C 0.58605 0.97094 0.77712 0.0
C1300 C 0.56991 0.99552 0.77944 0.0
C1301 C 0.60928 0.99286 0.75176 0.0
C1302 C 0.6059 0.9697 0.76327 0.0
O1303 O 0.66172 0.10101 0.71907 0.0
O1304 O 0.62787 0.06829 0.71061 0.0
O1305 O 0.57606 0.02351 0.72594 0.0
O1306 O 0.56088 0.06623 0.72175 0.0
O1307 O 0.62676 0.12436 0.75106 0.0
O1308 O 0.59421 0.10572 0.73168 0.0
O1309 O 0.61507 0.05896 0.76755 0.0
O1310 O 0.66205 0.05378 0.76541 0.0
O1311 O 0.65618 0.10789 0.77675 0.0
O1312 O 0.69832 0.11587 0.76582 0.0
O1313 O 0.63656 0.03642 0.72431 0.0
O1314 O 0.67153 0.0476 0.74433 0.0
C1315 C 0.64939 0.08598 0.70633 0.0
C1316 C 0.60339 0.12727 0.74118 0.0
C1317 C 0.54669 0.03032 0.70126 0.0
C1318 C 0.51392 1.00065 0.68443 0.0
C1319 C 0.55171 0.02629 0.66904 0.0
C1320 C 0.56096 0.03749 0.68538 0.0
C1321 C 0.52836 0.00793 0.66852 0.0
C1322 C 0.52345 0.01193 0.70073 0.0
C1323 C 0.55662 0.03934 0.71888 0.0
C1324 C 0.54959 0.99764 0.79315 0.0
C1325 C 0.53444 0.02285 0.79551 0.0
H1326 H 0.58324 0.95276 0.78587 0.0
C1327 C 0.63887 0.04826 0.77455 0.0
C1328 C 0.66111 0.03127 0.73166 0.0
C1329 C 0.69628 0.10417 0.79603 0.0
C1330 C 0.72536 0.11627 0.82169 0.0
C1331 C 0.72795 0.06913 0.80906 0.0
C1332 C 0.70778 0.07673 0.7962 0.0
C1333 C 0.73758 0.08923 0.82136 0.0
C1334 C 0.70414 0.12327 0.80928 0.0
C1335 C 0.68231 0.11562 0.78004 0.0
H1336 H 0.56269 0.03181 0.65675 0.0
H1337 H 0.5793 0.05132 0.68567 0.0
H1338 H 0.52136 0.99982 0.65569 0.0
H1339 H 0.51311 0.00593 0.71319 0.0
H1340 H 0.73749 0.04828 0.80869 0.0
H1341 H 0.70277 0.06187 0.78576 0.0
H1342 H 0.7553 0.08425 0.83002 0.0
H1343 H 0.69626 0.14486 0.80852 0.0
H1344 H 0.43031 0.14876 0.14598 0.0
H1345 H 0.47222 0.17993 0.14524 0.0
H1346 H 0.41995 0.25114 0.15933 0.0
H1347 H 0.37827 0.22018 0.1603 0.0
H1348 H 0.45914 0.26832 0.13371 0.0
H1349 H 0.46754 0.21505 0.19021 0.0
H1350 H 0.47095 0.16986 0.20685 0.0
H1351 H 0.54455 0.14692 0.17617 0.0
H1352 H 0.54138 0.19183 0.15923 0.0
H1353 H 0.57459 0.3678 0.14798 0.0
H1354 H 0.53191 0.3382 0.14777 0.0
H1355 H 0.58311 0.26463 0.15926 0.0
H1356 H 0.62456 0.2946 0.1616 0.0
H1357 H 0.54281 0.24757 0.17146 0.0
H1358 H 0.538 0.29002 0.11338 0.0
H1359 H 0.53643 0.32753 0.09024 0.0
H1360 H 0.4619 0.36263 0.11475 0.0
H1361 H 0.46311 0.32537 0.13809 0.0
C1362 C 0.42752 0.17096 0.1491 0.0
C1363 C 0.40008 0.18117 0.1535 0.0
C1364 C 0.4519 0.18912 0.14866 0.0
C1365 C 0.45026 0.21862 0.15241 0.0
C1366 C 0.42276 0.22886 0.15638 0.0
C1367 C 0.39854 0.21072 0.15704 0.0
C1368 C 0.47668 0.23861 0.15254 0.0
C1369 C 0.47731 0.2638 0.14214 0.0
C1370 C 0.50166 0.23304 0.1627 0.0
C1371 C 0.50415 0.20671 0.17343 0.0
C1372 C 0.48444 0.20035 0.18703 0.0
C1373 C 0.48631 0.17478 0.19649 0.0
C1374 C 0.50793 0.15552 0.19255 0.0
C1375 C 0.52782 0.16186 0.17921 0.0
C1376 C 0.52602 0.18738 0.1697 0.0
C1377 C 0.57684 0.34536 0.15064 0.0
C1378 C 0.60397 0.33434 0.15491 0.0
C1379 C 0.55195 0.3278 0.15015 0.0
C1380 C 0.55279 0.29783 0.153 0.0
C1381 C 0.58015 0.28711 0.1571 0.0
C1382 C 0.60462 0.30471 0.15831 0.0
C1383 C 0.52606 0.27774 0.1523 0.0
C1384 C 0.5251 0.25246 0.16277 0.0
C1385 C 0.50145 0.28244 0.14134 0.0
C1386 C 0.50087 0.30515 0.1276 0.0
C1387 C 0.5214 0.30587 0.1139 0.0
C1388 C 0.52054 0.32704 0.10073 0.0
C1389 C 0.49915 0.34751 0.10107 0.0
C1390 C 0.4785 0.3468 0.11454 0.0
C1391 C 0.47924 0.32564 0.12772 0.0
H1392 H 0.49851 0.36388 0.09087 0.0
H1393 H 0.50928 0.13569 0.19985 0.0
H1394 H 0.5827 0.65909 0.37341 0.0
H1395 H 0.54912 0.69836 0.37202 0.0
H1396 H 0.54787 0.70201 0.42983 0.0
H1397 H 0.57866 0.66028 0.43097 0.0
H1398 H 0.50304 0.71988 0.42484 0.0
H1399 H 0.58145 0.75693 0.38969 0.0
H1400 H 0.61681 0.75736 0.36522 0.0
H1401 H 0.55014 0.75096 0.32624 0.0
H1402 H 0.51442 0.75035 0.35049 0.0
H1403 H 0.44343 0.86131 0.42818 0.0
H1404 H 0.47521 0.82024 0.42741 0.0
H1405 H 0.44536 0.79963 0.37454 0.0
H1406 H 0.41304 0.84079 0.37539 0.0
H1407 H 0.50414 0.79121 0.376 0.0
H1408 H 0.42651 0.75959 0.41296 0.0
H1409 H 0.39307 0.76341 0.43832 0.0
H1410 H 0.46268 0.76393 0.4754 0.0
H1411 H 0.49657 0.7605 0.45024 0.0
C1412 C 0.5755 0.66832 0.3859 0.0
C1413 C 0.58423 0.65594 0.40233 0.0
C1414 C 0.55616 0.69168 0.38514 0.0
C1415 C 0.54551 0.70542 0.40079 0.0
C1416 C 0.55473 0.693 0.41723 0.0
C1417 C 0.573 0.6688 0.41795 0.0
C1418 C 0.52457 0.73152 0.4003 0.0
C1419 C 0.50419 0.73547 0.41417 0.0
C1420 C 0.52395 0.75282 0.38645 0.0
C1421 C 0.54532 0.75333 0.37189 0.0
C1422 C 0.57437 0.75554 0.3759 0.0
C1423 C 0.59446 0.75583 0.36207 0.0
C1424 C 0.58573 0.75413 0.34419 0.0
C1425 C 0.55688 0.75225 0.34009 0.0
C1426 C 0.5367 0.75197 0.35387 0.0
C1427 C 0.44317 0.84802 0.41637 0.0
C1428 C 0.42476 0.85501 0.40195 0.0
C1429 C 0.46171 0.8241 0.41593 0.0
C1430 C 0.46336 0.8057 0.40095 0.0
C1431 C 0.44518 0.81277 0.38642 0.0
C1432 C 0.42621 0.83654 0.38697 0.0
C1433 C 0.48365 0.77946 0.40067 0.0
C1434 C 0.50357 0.77554 0.38666 0.0
C1435 C 0.48441 0.75861 0.41458 0.0
C1436 C 0.46407 0.75998 0.42972 0.0
C1437 C 0.43469 0.76063 0.42652 0.0
C1438 C 0.41565 0.76273 0.44086 0.0
C1439 C 0.42575 0.76395 0.45846 0.0
C1440 C 0.4549 0.76298 0.46176 0.0
C1441 C 0.47402 0.76093 0.44747 0.0
H1442 H 0.41098 0.76562 0.46954 0.0
H1443 H 0.60132 0.75432 0.33351 0.0
H1444 H 0.09486 0.84804 0.6245 0.0
H1445 H 0.05256 0.81778 0.62386 0.0
H1446 H 0.07253 0.78676 0.67674 0.0
H1447 H 0.11384 0.81797 0.67764 0.0
H1448 H 0.02177 0.78498 0.67799 0.0
H1449 H 1.00213 0.78978 0.60541 0.0
H1450 H 0.02439 0.79143 0.5754 0.0
H1451 H 0.0932 0.74001 0.59454 0.0
H1452 H 0.07149 0.73855 0.62476 0.0
H1453 H 0.88548 0.71588 0.66735 0.0
H1454 H 0.92639 0.74771 0.666 0.0
H1455 H 0.97455 0.68348 0.63877 0.0
H1456 H 0.93318 0.65149 0.6399 0.0
H1457 H 0.99086 0.73202 0.62423 0.0
H1458 H 0.9836 0.70693 0.68716 0.0
H1459 H 0.95887 0.7027 0.71625 0.0
H1460 H 0.94281 0.79228 0.71615 0.0
H1461 H 0.9672 0.79698 0.68697 0.0
C1462 C 0.09025 0.83506 0.63615 0.0
C1463 C 0.10867 0.83636 0.65119 0.0
C1464 C 0.06579 0.8168 0.63565 0.0
C1465 C 0.05821 0.7983 0.65008 0.0
C1466 C 0.07658 0.80005 0.66516 0.0
C1467 C 0.10083 0.81832 0.66568 0.0
C1468 C 0.03149 0.77799 0.65009 0.0
C1469 C 0.01545 0.77361 0.66604 0.0
C1470 C 0.02139 0.76227 0.63492 0.0
C1471 C 0.03546 0.76438 0.61729 0.0
C1472 C 0.02212 0.77902 0.6032 0.0
C1473 C 0.03463 0.77996 0.58619 0.0
C1474 C 0.06024 0.7659 0.58308 0.0
C1475 C 0.07348 0.75107 0.59702 0.0
C1476 C 0.0612 0.75035 0.61411 0.0
C1477 C 0.9047 0.7081 0.66112 0.0
C1478 C 0.9051 0.68022 0.65392 0.0
C1479 C 0.9287 0.72669 0.66043 0.0
C1480 C 0.95498 0.71878 0.65256 0.0
C1481 C 0.95532 0.69104 0.64509 0.0
C1482 C 0.93124 0.67232 0.64582 0.0
C1483 C 0.9815 0.73911 0.6521 0.0
C1484 C 0.9974 0.7434 0.63615 0.0
C1485 C 0.99127 0.75501 0.66722 0.0
C1486 C 0.97703 0.75226 0.68485 0.0
C1487 C 0.9747 0.72569 0.69333 0.0
C1488 C 0.96075 0.72322 0.70982 0.0
C1489 C 0.94923 0.7472 0.71803 0.0
C1490 C 0.95173 0.77372 0.70978 0.0
C1491 C 0.96564 0.77631 0.69328 0.0
H1492 H 0.93839 0.74523 0.73078 0.0
H1493 H 0.06977 0.76643 0.56986 0.0
H1494 H 0.05857 0.14601 0.92568 0.0
H1495 H 0.02629 0.18654 0.92365 0.0
H1496 H 0.07028 0.21599 0.87662 0.0
H1497 H 0.10213 0.17435 0.87815 0.0
H1498 H 0.05128 0.25863 0.91359 0.0
H1499 H 0.02127 0.20615 0.8614 0.0
H1500 H 1.0044 0.16546 0.84368 0.0
H1501 H 0.93398 0.15476 0.87967 0.0
H1502 H 0.95061 0.1953 0.8977 0.0
H1503 H 0.95911 0.37352 0.88535 0.0
H1504 H 0.9914 0.33301 0.88594 0.0
H1505 H 0.92728 0.28324 0.91237 0.0
H1506 H 0.89574 0.32505 0.9132 0.0
H1507 H 0.95639 0.25039 0.88554 0.0
H1508 H 0.98485 0.30644 0.93574 0.0
H1509 H 0.99994 0.34988 0.95136 0.0
H1510 H 0.07375 0.35522 0.9177 0.0
H1511 H 0.05886 0.31202 0.90168 0.0
C1512 C 0.06169 0.16092 0.91478 0.0
C1513 C 0.08358 0.15593 0.90202 0.0
C1514 C 0.04279 0.18446 0.91362 0.0
C1515 C 0.04487 0.20501 0.89985 0.0
C1516 C 0.06736 0.20083 0.8874 0.0
C1517 C 0.08604 0.17682 0.88837 0.0
C1518 C 0.02397 0.23057 0.89892 0.0
C1519 C 0.03077 0.2567 0.90716 0.0
C1520 C 0.9964 0.22897 0.89106 0.0
C1521 C 0.98747 0.20343 0.88107 0.0
C1522 C 1.00249 0.1948 0.86573 0.0
C1523 C 0.9928 0.17196 0.85551 0.0
C1524 C 0.96808 0.1576 0.86051 0.0
C1525 C 0.95311 0.16593 0.8758 0.0
C1526 C 0.96265 0.18884 0.88602 0.0
C1527 C 0.95208 0.35452 0.89203 0.0
C1528 C 0.92475 0.35398 0.89998 0.0
C1529 C 0.97065 0.33069 0.89202 0.0
C1530 C 0.96278 0.30422 0.89949 0.0
C1531 C 0.93476 0.30294 0.90657 0.0
C1532 C 0.91633 0.32721 0.90695 0.0
C1533 C 0.98383 0.27865 0.89998 0.0
C1534 C 0.97695 0.25241 0.89189 0.0
C1535 C 0.0115 0.28028 0.90776 0.0
C1536 C 0.02057 0.30617 0.91738 0.0
C1537 C 1.00417 0.31702 0.93156 0.0
C1538 C 0.0127 0.34157 0.94051 0.0
C1539 C 0.03774 0.35536 0.93549 0.0
C1540 C 0.05433 0.34456 0.92155 0.0
C1541 C 0.04586 0.32002 0.91254 0.0
H1542 H 0.04432 0.37436 0.94244 0.0
H1543 H 0.96061 0.13992 0.85258 0.0
H1544 H 0.59797 0.8403 1.02354 0.0
H1545 H 0.55783 0.80653 1.02444 0.0
H1546 H 0.56234 0.79779 0.96712 0.0
H1547 H 0.60296 0.8304 0.96629 0.0
H1548 H 0.50461 0.80234 0.97867 0.0
H1549 H 0.58431 0.74125 0.99418 0.0
H1550 H 0.62526 0.72538 1.01219 0.0
H1551 H 0.57382 0.72594 1.05979 0.0
H1552 H 0.5325 0.74152 1.04201 0.0
H1553 H 0.40758 0.68799 0.96453 0.0
H1554 H 0.44806 0.72017 0.96583 0.0
H1555 H 0.45885 0.70059 1.02187 0.0
H1556 H 0.41886 0.66693 1.02021 0.0
H1557 H 0.50822 0.7122 1.01283 0.0
H1558 H 0.4289 0.76951 1.00038 0.0
H1559 H 0.38552 0.78614 0.98522 0.0
H1560 H 0.4324 0.7986 0.93637 0.0
H1561 H 0.47598 0.78156 0.95117 0.0
C1562 C 0.5903 0.83161 1.01103 0.0
C1563 C 0.60422 0.83916 0.99477 0.0
C1564 C 0.56716 0.81171 1.01156 0.0
C1565 C 0.55609 0.7987 0.99584 0.0
C1566 C 0.5696 0.80687 0.97962 0.0
C1567 C 0.59316 0.82599 0.97915 0.0
C1568 C 0.53074 0.77713 0.99605 0.0
C1569 C 0.50581 0.7825 0.98601 0.0
C1570 C 0.53053 0.75123 1.00606 0.0
C1571 C 0.55546 0.7428 1.01682 0.0
C1572 C 0.58182 0.73817 1.00851 0.0
C1573 C 0.60502 0.72904 1.01865 0.0
C1574 C 0.60217 0.72473 1.03713 0.0
C1575 C 0.57603 0.72933 1.04549 0.0
C1576 C 0.55268 0.73819 1.03537 0.0
C1577 C 0.4186 0.69011 0.97719 0.0
C1578 C 0.40916 0.67405 0.9922 0.0
C1579 C 0.44198 0.70934 0.97806 0.0
C1580 C 0.4572 0.71465 0.99415 0.0
C1581 C 0.44827 0.69795 1.00911 0.0
C1582 C 0.42503 0.67822 1.00815 0.0
C1583 C 0.48195 0.7371 0.99518 0.0
C1584 C 0.5068 0.73197 1.00546 0.0
C1585 C 0.4817 0.76376 0.98585 0.0
C1586 C 0.45563 0.77396 0.97683 0.0
C1587 C 0.4299 0.77559 0.98636 0.0
C1588 C 0.40529 0.78511 0.97784 0.0
C1589 C 0.40619 0.79336 0.95982 0.0
C1590 C 0.43173 0.79215 0.95031 0.0
C1591 C 0.4564 0.78256 0.95876 0.0
H1592 H 0.38712 0.80076 0.95325 0.0
H1593 H 0.6202 0.7178 1.04496 0.0
H1594 H 0.61028 0.1792 0.75994 0.0
H1595 H 0.57906 0.22089 0.76067 0.0
H1596 H 0.52102 0.1791 0.72485 0.0
H1597 H 0.5529 0.1386 0.72323 0.0
H1598 H 0.51451 0.22772 0.71592 0.0
H1599 H 0.51389 0.19482 0.77717 0.0
H1600 H 0.53477 0.18134 0.80631 0.0
H1601 H 0.57122 0.26436 0.81139 0.0
H1602 H 0.55076 0.27824 0.7822 0.0
H1603 H 0.39935 0.32792 0.72797 0.0
H1604 H 0.43006 0.28575 0.72835 0.0
H1605 H 0.48982 0.32993 0.76178 0.0
H1606 H 0.45806 0.37073 0.76255 0.0
H1607 H 0.49538 0.28035 0.77197 0.0
H1608 H 0.49533 0.31247 0.71017 0.0
H1609 H 0.47278 0.32538 0.68142 0.0
H1610 H 0.43574 0.24239 0.67797 0.0
H1611 H 0.45789 0.22909 0.70678 0.0
C1612 C 0.59097 0.17879 0.75211 0.0
C1613 C 0.58473 0.15455 0.74161 0.0
C1614 C 0.57247 0.20293 0.75272 0.0
C1615 C 0.54625 0.20407 0.74322 0.0
C1616 C 0.54048 0.17997 0.73251 0.0
C1617 C 0.55911 0.15622 0.73164 0.0
C1618 C 0.52512 0.22976 0.744 0.0
C1619 C 0.51032 0.23869 0.72839 0.0
C1620 C 0.5189 0.24568 0.75987 0.0
C1621 C 0.53104 0.23746 0.77743 0.0
C1622 C 0.52646 0.21015 0.78447 0.0
C1623 C 0.53821 0.20244 0.801 0.0
C1624 C 0.55438 0.22196 0.81067 0.0
C1625 C 0.55873 0.24925 0.80387 0.0
C1626 C 0.54705 0.25706 0.78735 0.0
C1627 C 0.41892 0.32872 0.73553 0.0
C1628 C 0.42615 0.35396 0.7447 0.0
C1629 C 0.4371 0.30435 0.73552 0.0
C1630 C 0.46379 0.30388 0.74451 0.0
C1631 C 0.47019 0.32877 0.7543 0.0
C1632 C 0.45193 0.35287 0.75445 0.0
C1633 C 0.48481 0.27814 0.74391 0.0
C1634 C 0.4996 0.26927 0.75953 0.0
C1635 C 0.49088 0.26211 0.7281 0.0
C1636 C 0.47807 0.26988 0.71066 0.0
C1637 C 0.48232 0.29702 0.70328 0.0
C1638 C 0.46961 0.3044 0.68699 0.0
C1639 C 0.45279 0.28474 0.67789 0.0
C1640 C 0.44875 0.25761 0.68503 0.0
C1641 C 0.46141 0.25012 0.70132 0.0
H1642 H 0.44291 0.29051 0.6653 0.0
H1643 H 0.56347 0.21595 0.82345 0.0
H1644 H 0.09245 0.33589 0.4662 0.0
H1645 H 0.05074 0.30441 0.46753 0.0
H1646 H 0.06543 0.29042 0.52376 0.0
H1647 H 0.10625 0.32332 0.52265 0.0
H1648 H 0.05209 0.23636 0.5028 0.0
H1649 H 0.01174 0.32607 0.51533 0.0
H1650 H 1.00171 0.37684 0.51084 0.0
H1651 H 0.96224 0.35853 0.46029 0.0
H1652 H 0.97256 0.30762 0.46432 0.0
H1653 H 0.92045 0.15789 0.51874 0.0
H1654 H 0.96178 0.18964 0.51985 0.0
H1655 H 0.93474 0.22963 0.47084 0.0
H1656 H 0.89352 0.19801 0.46975 0.0
H1657 H 0.95513 0.27073 0.48939 0.0
H1658 H 0.9969 0.18023 0.477 0.0
H1659 H 0.00651 0.12953 0.48237 0.0
H1660 H 0.04313 0.14934 0.53355 0.0
H1661 H 0.03331 0.20015 0.5286 0.0
C1662 C 0.08666 0.32663 0.479 0.0
C1663 C 0.10316 0.33324 0.49436 0.0
C1664 C 0.06253 0.30815 0.47975 0.0
C1665 C 0.05401 0.29409 0.49574 0.0
C1666 C 0.07072 0.30039 0.51109 0.0
C1667 C 0.09426 0.31975 0.51048 0.0
C1668 C 0.02781 0.27355 0.49634 0.0
C1669 C 0.03093 0.24421 0.50007 0.0
C1670 C 0.9995 0.28253 0.49258 0.0
C1671 C 0.99329 0.31306 0.49001 0.0
C1672 C 1.00124 0.33289 0.50314 0.0
C1673 C 0.99544 0.36169 0.50071 0.0
C1674 C 0.98144 0.37092 0.48525 0.0
C1675 C 0.97316 0.35135 0.47223 0.0
C1676 C 0.97898 0.32251 0.47458 0.0
C1677 C 0.92329 0.17306 0.50796 0.0
C1678 C 0.90281 0.17438 0.49401 0.0
C1679 C 0.94745 0.19164 0.50859 0.0
C1680 C 0.95284 0.21277 0.49529 0.0
C1681 C 0.93221 0.21413 0.48146 0.0
C1682 C 0.90822 0.19552 0.48078 0.0
C1683 C 0.97925 0.23327 0.4957 0.0
C1684 C 0.97624 0.26273 0.4921 0.0
C1685 C 0.00765 0.22436 0.49964 0.0
C1686 C 0.01411 0.19396 0.50251 0.0
C1687 C 0.00688 0.17376 0.48944 0.0
C1688 C 0.01235 0.14501 0.49241 0.0
C1689 C 0.02535 0.13622 0.50831 0.0
C1690 C 0.03301 0.15618 0.52125 0.0
C1691 C 0.02751 0.18496 0.51837 0.0
H1692 H 0.02954 0.11394 0.5106 0.0
H1693 H 0.97693 0.39323 0.4834 0.0
H1694 H 0.06107 0.64359 0.22012 0.0
H1695 H 0.02909 0.68424 0.22109 0.0
H1696 H 0.07438 0.71725 0.26649 0.0
H1697 H 0.10684 0.67611 0.26553 0.0
H1698 H 0.01715 0.72716 0.27176 0.0
H1699 H 0.07867 0.74664 0.22136 0.0
H1700 H 0.10186 0.735 0.19262 0.0
H1701 H 0.02043 0.72474 0.16773 0.0
H1702 H 0.99676 0.73597 0.19639 0.0
H1703 H 0.93743 0.85887 0.27072 0.0
H1704 H 0.97154 0.82002 0.27168 0.0
H1705 H 0.95325 0.80096 0.21634 0.0
H1706 H 0.92189 0.84229 0.21501 0.0
H1707 H 0.99883 0.78343 0.21683 0.0
H1708 H 0.93592 0.75775 0.26549 0.0
H1709 H 0.90977 0.76444 0.29389 0.0
H1710 H 0.98801 0.7809 0.3214 0.0
H1711 H 0.01458 0.77442 0.29315 0.0
C1712 C 0.06473 0.65943 0.23033 0.0
C1713 C 0.08753 0.65577 0.2426 0.0
C1714 C 0.04604 0.68323 0.23085 0.0
C1715 C 0.04864 0.70514 0.24372 0.0
C1716 C 0.07115 0.7014 0.25622 0.0
C1717 C 0.09017 0.67756 0.2556 0.0
C1718 C 0.02817 0.7314 0.24392 0.0
C1719 C 0.01353 0.73955 0.2597 0.0
C1720 C 0.02176 0.74799 0.22835 0.0
C1721 C 0.03596 0.74198 0.21104 0.0
C1722 C 0.06572 0.74182 0.20976 0.0
C1723 C 0.07895 0.73528 0.19349 0.0
C1724 C 0.06263 0.72909 0.17837 0.0
C1725 C 0.03305 0.72953 0.17946 0.0
C1726 C 0.01971 0.73602 0.1957 0.0
C1727 C 0.94028 0.84621 0.25876 0.0
C1728 C 0.92582 0.85416 0.24286 0.0
C1729 C 0.96002 0.82311 0.25933 0.0
C1730 C 0.9655 0.80521 0.2443 0.0
C1731 C 0.95056 0.81322 0.22846 0.0
C1732 C 0.93187 0.83716 0.22768 0.0
C1733 C 0.98688 0.77931 0.24469 0.0
C1734 C 1.00196 0.77117 0.22897 0.0
C1735 C 0.99302 0.76219 0.26022 0.0
C1736 C 0.97716 0.76589 0.2772 0.0
C1737 C 0.9475 0.76288 0.2776 0.0
C1738 C 0.93262 0.76663 0.29366 0.0
C1739 C 0.94721 0.77319 0.30942 0.0
C1740 C 0.97673 0.77587 0.30918 0.0
C1741 C 0.99171 0.77211 0.29316 0.0
H1742 H 0.93565 0.77614 0.32183 0.0
H1743 H 0.07291 0.72398 0.16579 0.0
H1744 H 0.42401 0.07334 0.08652 0.0
H1745 H 0.46892 0.05227 0.08406 0.0
H1746 H 0.44157 1.00364 1.03835 0.0
H1747 H 0.3943 0.02533 1.04051 0.0
H1748 H 0.46407 0.97137 1.06671 0.0
H1749 H 0.49369 0.0538 1.03338 0.0
H1750 H 0.49255 0.10548 1.02837 0.0
H1751 H 0.53171 0.11908 0.07959 0.0
H1752 H 0.53273 0.06758 0.08505 0.0
H1753 H 0.60407 0.91634 0.07304 0.0
H1754 H 0.55535 0.93004 1.0703 0.0
H1755 H 0.57332 0.00766 0.09894 0.0
H1756 H 0.62364 0.99647 0.09771 0.0
H1757 H 0.55521 0.0232 1.07093 0.0
H1758 H 0.51758 0.94664 0.10828 0.0
H1759 H 0.51357 0.89658 0.11767 0.0
H1760 H 0.48542 0.87383 1.06486 0.0
H1761 H 0.48959 0.92364 1.05511 0.0
C1762 C 0.42696 0.05947 0.07516 0.0
C1763 C 0.40459 0.05121 1.06371 0.0
C1764 C 0.45329 0.04711 0.07393 0.0
C1765 C 0.45873 0.02664 1.06095 0.0
C1766 C 0.4376 0.01956 1.04849 0.0
C1767 C 0.41067 0.03202 1.04975 0.0
C1768 C 0.48562 0.011 1.06237 0.0
C1769 C 0.48429 0.98234 1.06726 0.0
C1770 C 0.51156 0.02582 1.06363 0.0
C1771 C 0.51353 0.05669 1.05954 0.0
C1772 C 0.5023 0.06778 1.04351 0.0
C1773 C 0.50155 0.09708 1.04063 0.0
C1774 C 0.51212 0.11554 1.05363 0.0
C1775 C 0.52367 0.10475 1.06948 0.0
C1776 C 0.52446 0.07549 0.07244 0.0
C1777 C 0.59741 0.93585 0.07943 0.0
C1778 C 0.61766 0.95631 0.08423 0.0
C1779 C 0.56909 0.94371 0.07798 0.0
C1780 C 0.56027 0.9706 0.08381 0.0
C1781 C 0.57971 0.98741 0.09346 0.0
C1782 C 0.60854 0.98065 0.09328 0.0
C1783 C 0.5337 0.98359 0.07674 0.0
C1784 C 0.53528 0.01176 1.07044 0.0
C1785 C 0.50781 0.96851 0.07476 0.0
C1786 C 0.50406 0.93884 0.08095 0.0
C1787 C 0.51052 0.93096 0.09869 0.0
C1788 C 0.50826 0.90262 0.10406 0.0
C1789 C 0.4993 0.88204 0.09186 0.0
C1790 C 0.49237 0.88978 0.0743 0.0
C1791 C 0.49462 0.91806 1.06885 0.0
H1792 H 0.49769 0.8601 0.09603 0.0
H1793 H 0.5113 0.13822 1.05143 0.0
H1794 H 0.68988 0.65387 0.30067 0.0
H1795 H 0.70237 0.70396 0.29761 0.0
H1796 H 0.78562 0.68561 0.31884 0.0
H1797 H 0.77386 0.63582 0.32033 0.0
H1798 H 0.70834 0.73088 0.32668 0.0
H1799 H 0.83052 0.73746 0.31711 0.0
H1800 H 0.86724 0.7144 0.29866 0.0
H1801 H 0.80583 0.69791 0.25751 0.0
H1802 H 0.76882 0.72133 0.27554 0.0
H1803 H 0.81998 0.85154 0.34701 0.0
H1804 H 0.8035 0.80242 0.3465 0.0
H1805 H 0.72513 0.82972 0.32208 0.0
H1806 H 0.74109 0.87863 0.32335 0.0
H1807 H 0.79813 0.78167 0.31374 0.0
H1808 H 0.67662 0.77752 0.32217 0.0
H1809 H 0.63961 0.80021 0.34061 0.0
H1810 H 0.69942 0.81199 0.38333 0.0
H1811 H 0.73668 0.789 0.36527 0.0
C1812 C 0.71155 0.66038 0.30319 0.0
C1813 C 0.73095 0.64129 0.31079 0.0
C1814 C 0.71851 0.68906 0.30186 0.0
C1815 C 0.74476 0.69875 0.3083 0.0
C1816 C 0.76541 0.67888 0.31346 0.0
C1817 C 0.75875 0.65018 0.31419 0.0
C1818 C 0.74869 0.72903 0.31291 0.0
C1819 C 0.72774 0.74221 0.32346 0.0
C1820 C 0.77432 0.74353 0.30926 0.0
C1821 C 0.79684 0.7311 0.29774 0.0
C1822 C 0.82491 0.72927 0.30402 0.0
C1823 C 0.84576 0.71603 0.29366 0.0
C1824 C 0.83886 0.70464 0.27694 0.0
C1825 C 0.81114 0.7067 0.27047 0.0
C1826 C 0.79021 0.71998 0.28075 0.0
C1827 C 0.79843 0.84714 0.34282 0.0
C1828 C 0.78182 0.8686 0.33512 0.0
C1829 C 0.78923 0.81908 0.34218 0.0
C1830 C 0.76339 0.8124 0.33387 0.0
C1831 C 0.74507 0.83433 0.32865 0.0
C1832 C 0.75408 0.86241 0.32957 0.0
C1833 C 0.75803 0.78315 0.32771 0.0
C1834 C 0.77869 0.77032 0.3168 0.0
C1835 C 0.73208 0.76908 0.33093 0.0
C1836 C 0.7095 0.7817 0.34229 0.0
C1837 C 0.68182 0.78472 0.33556 0.0
C1838 C 0.66081 0.7977 0.34593 0.0
C1839 C 0.66717 0.80759 0.36311 0.0
C1840 C 0.69453 0.80437 0.37 0.0
C1841 C 0.71561 0.79139 0.3597 0.0
H1842 H 0.6509 0.81771 0.37109 0.0
H1843 H 0.85499 0.69423 0.269 0.0
H1844 H 0.12029 0.02781 0.55184 0.0
H1845 H 0.06965 0.03462 0.54775 0.0
H1846 H 0.05301 0.95518 0.57428 0.0
H1847 H 0.10196 0.94851 0.57951 0.0
H1848 H 0.01 0.9714 0.55017 0.0
H1849 H 0.06529 0.009 0.60179 0.0
H1850 H 0.10594 0.03724 0.61253 0.0
H1851 H 0.0757 0.10954 0.58309 0.0
H1852 H 0.03505 0.08155 0.57204 0.0
H1853 H 0.88042 0.98964 0.58867 0.0
H1854 H 0.93101 0.97918 0.59151 0.0
H1855 H 0.95035 0.06711 0.5807 0.0
H1856 H 0.90013 0.07784 0.57976 0.0
H1857 H 0.99276 0.0473 0.5949 0.0
H1858 H 0.93352 0.0119 0.5458 0.0
H1859 H 0.89497 0.98301 0.53291 0.0
H1860 H 0.93301 0.9075 0.5544 0.0
H1861 H 0.97159 0.93602 0.56757 0.0
C1862 C 0.10618 0.01153 0.5568 0.0
C1863 C 0.11603 0.98891 0.56757 0.0
C1864 C 0.07711 0.01527 0.55403 0.0
C1865 C 0.05778 0.99594 0.56145 0.0
C1866 C 0.06769 0.97064 0.56878 0.0
C1867 C 0.09645 0.96712 0.57188 0.0
C1868 C 0.02867 0.0045 0.56598 0.0
C1869 C 0.00601 0.98816 0.55979 0.0
C1870 C 0.02378 0.02609 0.57871 0.0
C1871 C 0.04726 0.04327 0.58611 0.0
C1872 C 0.06731 0.03096 0.59769 0.0
C1873 C 0.09036 0.04688 0.60379 0.0
C1874 C 0.09339 0.07517 0.59851 0.0
C1875 C 0.07331 0.08764 0.58718 0.0
C1876 C 0.05025 0.07178 0.58102 0.0
C1877 C 0.89549 0.00699 0.58825 0.0
C1878 C 0.88672 0.03435 0.5834 0.0
C1879 C 0.92443 1.00091 0.58939 0.0
C1880 C 0.94442 0.02198 0.58499 0.0
C1881 C 0.93542 0.05025 0.58362 0.0
C1882 C 0.90662 0.05647 0.58322 0.0
C1883 C 0.9734 0.01455 0.57886 0.0
C1884 C 0.99629 0.03089 0.58498 0.0
C1885 C 0.97833 0.99317 0.56581 0.0
C1886 C 0.95523 0.97609 0.55779 0.0
C1887 C 0.93358 0.98915 0.54781 0.0
C1888 C 0.91173 0.97284 0.54047 0.0
C1889 C 0.91151 0.94344 0.54286 0.0
C1890 C 0.93318 0.93027 0.55257 0.0
C1891 C 0.95503 0.94649 0.55997 0.0
H1892 H 0.89459 0.93085 0.53717 0.0
H1893 H 0.1113 0.08744 0.60319 0.0
H1894 H 0.73856 0.37944 0.82255 0.0
H1895 H 0.7234 0.32992 0.82313 0.0
H1896 H 0.80156 0.30567 0.79721 0.0
H1897 H 0.81665 0.35515 0.79664 0.0
H1898 H 0.75853 0.26983 0.78914 0.0
H1899 H 0.80184 0.30806 0.84415 0.0
H1900 H 0.80653 0.33916 0.87048 0.0
H1901 H 0.71988 0.3228 0.88494 0.0
H1902 H 0.71508 0.29058 0.85903 0.0
H1903 H 0.77925 0.13443 0.81794 0.0
H1904 H 0.79141 0.18467 0.81869 0.0
H1905 H 0.71252 0.20257 0.84578 0.0
H1906 H 0.70059 0.15223 0.84533 0.0
H1907 H 0.75289 0.24187 0.85339 0.0
H1908 H 0.70985 0.20217 0.79968 0.0
H1909 H 0.70488 0.16983 0.77401 0.0
H1910 H 0.79002 0.18867 0.75732 0.0
H1911 H 0.79504 0.22219 0.78253 0.0
C1912 C 0.75156 0.36375 0.81586 0.0
C1913 C 0.77885 0.37076 0.80973 0.0
C1914 C 0.74319 0.33544 0.81658 0.0
C1915 C 0.76195 0.31426 0.81089 0.0
C1916 C 0.78703 0.3218 0.80192 0.0
C1917 C 0.79545 0.35007 0.8013 0.0
C1918 C 0.75771 0.28461 0.81642 0.0
C1919 C 0.75746 0.26371 0.80318 0.0
C1920 C 0.75583 0.27671 0.83475 0.0
C1921 C 0.75796 0.29745 0.84951 0.0
C1922 C 0.7837 0.31143 0.85282 0.0
C1923 C 0.78641 0.32915 0.86771 0.0
C1924 C 0.76337 0.33344 0.87919 0.0
C1925 C 0.73765 0.31967 0.87594 0.0
C1926 C 0.73497 0.30153 0.86124 0.0
C1927 C 0.76545 0.14882 0.82515 0.0
C1928 C 0.73874 0.13983 0.83125 0.0
C1929 C 0.77215 0.17756 0.82526 0.0
C1930 C 0.7522 0.19721 0.83154 0.0
C1931 C 0.7279 0.18765 0.84057 0.0
C1932 C 0.72125 0.15889 0.84052 0.0
C1933 C 0.75417 0.22715 0.82611 0.0
C1934 C 0.75385 0.24803 0.83935 0.0
C1935 C 0.75539 0.23508 0.80779 0.0
C1936 C 0.75296 0.21424 0.7931 0.0
C1937 C 0.72758 0.19919 0.79062 0.0
C1938 C 0.72473 0.18072 0.77612 0.0
C1939 C 0.74731 0.17671 0.76424 0.0
C1940 C 0.77263 0.19161 0.76662 0.0
C1941 C 0.77542 0.21052 0.78092 0.0
H1942 H 0.74515 0.1622 0.75314 0.0
H1943 H 0.76551 0.34722 0.89068 0.0
H1944 H 0.31844 0.35283 0.84362 0.0
H1945 H 0.30594 0.30256 0.84528 0.0
H1946 H 0.22322 0.32166 0.82368 0.0
H1947 H 0.2354 0.37165 0.82242 0.0
H1948 H 0.22071 0.27566 0.84321 0.0
H1949 H 0.28107 0.30809 0.79312 0.0
H1950 H 0.32373 0.32917 0.77917 0.0
H1951 H 0.37679 0.27326 0.80986 0.0
H1952 H 0.33435 0.25127 0.82355 0.0
H1953 H 0.18538 0.15564 0.79691 0.0
H1954 H 0.20145 0.20486 0.79821 0.0
H1955 H 0.28143 0.17715 0.82014 0.0
H1956 H 0.26572 0.12804 0.81833 0.0
H1957 H 0.28744 0.22609 0.80235 0.0
H1958 H 0.22496 0.19378 0.85226 0.0
H1959 H 0.18116 0.17427 0.86572 0.0
H1960 H 0.13098 0.23142 0.83403 0.0
H1961 H 0.17456 0.25204 0.82097 0.0
C1962 C 0.29701 0.34639 0.84032 0.0
C1963 C 0.27806 0.36578 0.83251 0.0
C1964 C 0.29009 0.31769 0.84094 0.0
C1965 C 0.26423 0.30843 0.83376 0.0
C1966 C 0.24353 0.32839 0.82896 0.0
C1967 C 0.25036 0.35707 0.82848 0.0
C1968 C 0.26008 0.27855 0.82868 0.0
C1969 C 0.23528 0.26486 0.83425 0.0
C1970 C 0.27918 0.2644 0.81707 0.0
C1971 C 0.30466 0.27833 0.80948 0.0
C1972 C 0.30186 0.30043 0.79694 0.0
C1973 C 0.32597 0.31239 0.789 0.0
C1974 C 0.35296 0.30275 0.79374 0.0
C1975 C 0.35588 0.28082 0.80626 0.0
C1976 C 0.33182 0.26847 0.81402 0.0
C1977 C 0.20707 0.16 0.80081 0.0
C1978 C 0.22418 0.13831 0.80782 0.0
C1979 C 0.21598 0.18811 0.80199 0.0
C1980 C 0.24199 0.19452 0.81015 0.0
C1981 C 0.26101 0.17258 0.81416 0.0
C1982 C 0.2522 0.14446 0.81281 0.0
C1983 C 0.24784 0.22342 0.81666 0.0
C1984 C 0.27301 0.23682 0.81142 0.0
C1985 C 0.22895 0.23748 0.82844 0.0
C1986 C 0.20286 0.22407 0.83547 0.0
C1987 C 0.20455 0.20201 0.8481 0.0
C1988 C 0.1798 0.19094 0.85576 0.0
C1989 C 0.15331 0.20134 0.85055 0.0
C1990 C 0.1515 0.22323 0.83794 0.0
C1991 C 0.1762 0.23478 0.83053 0.0
H1992 H 0.13419 0.19254 0.85633 0.0
H1993 H 0.37159 0.31216 0.78766 0.0
H1994 H 0.24738 0.87195 0.30123 0.0
H1995 H 0.23111 0.82312 0.29899 0.0
H1996 H 0.31706 0.79407 0.30667 0.0
H1997 H 0.33372 0.8425 0.30564 0.0
H1998 H 0.29154 0.75278 0.29774 0.0
H1999 H 0.263 0.8241 0.34447 0.0
H2000 H 0.23671 0.86719 0.35327 0.0
H2001 H 0.15992 0.83193 0.33181 0.0
H2002 H 0.18581 0.78876 0.32287 0.0
H2003 H 0.26314 0.6328 0.34245 0.0
H2004 H 0.27966 0.68159 0.34535 0.0
H2005 H 0.19416 0.71125 0.33655 0.0
H2006 H 0.17736 0.66287 0.3364 0.0
H2007 H 0.21986 0.75228 0.34654 0.0
H2008 H 0.24811 0.6816 0.29944 0.0
H2009 H 0.27402 0.63845 0.29034 0.0
H2010 H 0.35103 0.67249 0.31227 0.0
H2011 H 0.32549 0.7157 0.32155 0.0
C2012 C 0.26306 0.8552 0.30109 0.0
C2013 C 0.29164 0.86081 0.30509 0.0
C2014 C 0.2536 0.82715 0.30035 0.0
C2015 C 0.27242 0.80506 0.30468 0.0
C2016 C 0.30168 0.81068 0.30425 0.0
C2017 C 0.31129 0.83856 0.30369 0.0
C2018 C 0.26228 0.77817 0.31302 0.0
C2019 C 0.2759 0.7528 0.30844 0.0
C2020 C 0.2418 0.77779 0.32704 0.0
C2021 C 0.22631 0.80339 0.33294 0.0
C2022 C 0.24049 0.82556 0.34172 0.0
C2023 C 0.22568 0.84999 0.34669 0.0
C2024 C 0.19667 0.8523 0.34309 0.0
C2025 C 0.18237 0.83013 0.33459 0.0
C2026 C 0.19708 0.80568 0.3296 0.0
C2027 C 0.24762 0.64971 0.34259 0.0
C2028 C 0.21924 0.64439 0.33802 0.0
C2029 C 0.25718 0.67771 0.3437 0.0
C2030 C 0.23862 0.7 0.33933 0.0
C2031 C 0.20932 0.69451 0.33916 0.0
C2032 C 0.1996 0.66667 0.33916 0.0
C2033 C 0.24913 0.72693 0.33126 0.0
C2034 C 0.23557 0.75231 0.33589 0.0
C2035 C 0.26965 0.72733 0.31727 0.0
C2036 C 0.28491 0.70167 0.31126 0.0
C2037 C 0.27058 0.67984 0.30225 0.0
C2038 C 0.28518 0.65538 0.2971 0.0
C2039 C 0.31415 0.65272 0.30074 0.0
C2040 C 0.32861 0.67456 0.30947 0.0
C2041 C 0.3141 0.69902 0.31465 0.0
H2042 H 0.32541 0.63375 0.29679 0.0
H2043 H 0.18525 0.87125 0.34689 0.0
H2044 H 0.09968 0.42965 0.59086 0.0
H2045 H 0.05088 0.44677 0.58948 0.0
H2046 H 0.0813 0.53234 0.58298 0.0
H2047 H 0.13014 0.51516 0.58336 0.0
H2048 H 0.0179 0.50478 0.60457 0.0
H2049 H 0.07585 0.52945 0.55 0.0
H2050 H 0.1094 0.51972 0.52537 0.0
H2051 H 0.064 0.44357 0.5125 0.0
H2052 H 0.03069 0.45243 0.53745 0.0
H2053 H 0.91418 0.57891 0.55627 0.0
H2054 H 0.96339 0.56295 0.55606 0.0
H2055 H 0.93534 0.47614 0.55923 0.0
H2056 H 0.8862 0.49198 0.5606 0.0
H2057 H 0.99757 0.50419 0.53914 0.0
H2058 H 0.93993 0.47836 0.59275 0.0
H2059 H 0.90592 0.48617 0.61739 0.0
H2060 H 0.95001 0.56216 0.63227 0.0
H2061 H 0.98376 0.55526 0.60728 0.0
C2062 C 0.09596 0.4523 0.59027 0.0
C2063 C 0.11842 0.471 0.58649 0.0
C2064 C 0.06812 0.46196 0.58917 0.0
C2065 C 0.06292 0.4905 0.58522 0.0
C2066 C 0.08526 0.51005 0.58543 0.0
C2067 C 0.11314 0.50028 0.58608 0.0
C2068 C 0.03514 0.49875 0.57815 0.0
C2069 C 0.01348 0.50497 0.59028 0.0
C2070 C 0.02944 0.49815 0.5595 0.0
C2071 C 0.05129 0.4912 0.54591 0.0
C2072 C 0.07358 0.51017 0.54231 0.0
C2073 C 0.0924 0.50494 0.52819 0.0
C2074 C 0.08879 0.48107 0.51738 0.0
C2075 C 0.06679 0.46202 0.52092 0.0
C2076 C 0.04805 0.46705 0.53511 0.0
C2077 C 0.91845 0.55635 0.55584 0.0
C2078 C 0.8967 0.53673 0.55943 0.0
C2079 C 0.94654 0.54732 0.55595 0.0
C2080 C 0.95258 0.51858 0.55856 0.0
C2081 C 0.93074 0.49852 0.55778 0.0
C2082 C 0.90263 0.50762 0.55821 0.0
C2083 C 0.98041 0.51044 0.56555 0.0
C2084 C 1.00204 0.50414 0.55342 0.0
C2085 C 0.98603 0.51078 0.58422 0.0
C2086 C 0.96389 0.51669 0.59784 0.0
C2087 C 0.94182 0.49723 0.60088 0.0
C2088 C 0.92274 0.50135 0.61501 0.0
C2089 C 0.92587 0.52459 0.6264 0.0
C2090 C 0.94762 0.54418 0.62341 0.0
C2091 C 0.96661 0.54026 0.6092 0.0
H2092 H 0.91165 0.52724 0.63767 0.0
H2093 H 0.10287 0.47754 0.50615 0.0
H2094 H 0.62012 0.4839 1.04154 0.0
H2095 H 0.57166 0.50154 1.04032 0.0
H2096 H 0.54608 0.43803 0.07883 0.0
H2097 H 0.5919 0.41922 0.07927 0.0
H2098 H 0.50396 0.44956 1.06247 0.0
H2099 H 0.57793 0.51211 0.08962 0.0
H2100 H 0.6198 0.54354 0.08794 0.0
H2101 H 0.57904 0.59345 1.04717 0.0
H2102 H 0.53705 0.56223 1.04858 0.0
H2103 H 0.38888 0.52148 0.10283 0.0
H2104 H 0.43671 0.50126 0.10325 0.0
H2105 H 0.46196 0.55885 1.06109 0.0
H2106 H 0.41651 0.57868 1.06035 0.0
H2107 H 0.50416 0.55057 0.08049 0.0
H2108 H 0.42959 0.48763 1.05432 0.0
H2109 H 0.38792 0.45606 1.05675 0.0
H2110 H 0.43052 0.40653 0.09696 0.0
H2111 H 0.47227 0.43794 0.09484 0.0
C2112 C 0.60422 0.47321 1.04953 0.0
C2113 C 0.61151 0.45161 1.06185 0.0
C2114 C 0.57638 0.48348 1.04881 0.0
C2115 C 0.55569 0.47236 1.06045 0.0
C2116 C 0.56173 0.44768 1.07006 0.0
C2117 C 0.58895 0.43697 1.07037 0.0
C2118 C 0.52917 0.48757 1.06481 0.0
C2119 C 0.50409 0.47168 1.06643 0.0
C2120 C 0.52914 0.51639 1.07006 0.0
C2121 C 0.55459 0.53471 1.06907 0.0
C2122 C 0.57802 0.52971 0.08025 0.0
C2123 C 0.60174 0.5475 0.07936 0.0
C2124 C 0.60211 0.57044 1.06743 0.0
C2125 C 0.57876 0.57566 1.05638 0.0
C2126 C 0.55502 0.55795 1.05722 0.0
C2127 C 0.40476 0.5303 0.09394 0.0
C2128 C 0.39769 0.55137 0.08123 0.0
C2129 C 0.43211 0.51864 0.0942 0.0
C2130 C 0.45257 0.52798 0.08178 0.0
C2131 C 0.44658 0.55114 1.07079 0.0
C2132 C 0.41981 0.56277 1.07056 0.0
C2133 C 0.47912 0.51251 0.07819 0.0
C2134 C 0.50419 0.52838 0.07668 0.0
C2135 C 0.47918 0.48365 0.07317 0.0
C2136 C 0.45381 0.46529 0.07458 0.0
C2137 C 0.42992 0.47013 1.06376 0.0
C2138 C 0.40633 0.45224 1.06507 0.0
C2139 C 0.40653 0.42937 0.07704 0.0
C2140 C 0.43034 0.4243 0.08773 0.0
C2141 C 0.45394 0.44213 0.08649 0.0
H2142 H 0.38828 0.41553 0.07801 0.0
H2143 H 0.62046 0.5842 1.06678 0.0
H2144 H 0.24588 0.29243 0.18917 0.0
H2145 H 0.2188 0.33557 0.19322 0.0
H2146 H 0.19043 0.30628 0.24503 0.0
H2147 H 0.21674 0.2619 0.24083 0.0
H2148 H 0.15068 0.34784 0.21912 0.0
H2149 H 0.23935 0.33871 0.25384 0.0
H2150 H 0.28771 0.31879 0.25468 0.0
H2151 H 0.30944 0.36543 0.20702 0.0
H2152 H 0.26101 0.38527 0.20579 0.0
H2153 H 0.17145 0.49379 0.26134 0.0
H2154 H 0.17696 0.44214 0.25861 0.0
H2155 H 0.18104 0.45042 0.20106 0.0
H2156 H 0.17405 0.50176 0.20366 0.0
H2157 H 0.22739 0.4167 0.23278 0.0
H2158 H 0.13659 0.42665 0.19892 0.0
H2159 H 0.08614 0.4391 0.19578 0.0
H2160 H 0.06547 0.38594 0.2408 0.0
H2161 H 0.11606 0.37405 0.24464 0.0
C2162 C 0.23299 0.29436 0.20114 0.0
C2163 C 0.23392 0.27373 0.21482 0.0
C2164 C 0.2174 0.31913 0.20337 0.0
C2165 C 0.20274 0.32405 0.2194 0.0
C2166 C 0.20151 0.30267 0.2325 0.0
C2167 C 0.21702 0.27762 0.23022 0.0
C2168 C 0.19523 0.35355 0.22392 0.0
C2169 C 0.16721 0.36296 0.22239 0.0
C2170 C 0.21696 0.37303 0.22807 0.0
C2171 C 0.24674 0.36356 0.22979 0.0
C2172 C 0.25457 0.34487 0.24364 0.0
C2173 C 0.28191 0.3335 0.24414 0.0
C2174 C 0.30166 0.34089 0.23093 0.0
C2175 C 0.29415 0.35982 0.21727 0.0
C2176 C 0.26679 0.37119 0.2167 0.0
C2177 C 0.174 0.48458 0.24815 0.0
C2178 C 0.17256 0.50166 0.2327 0.0
C2179 C 0.17649 0.45509 0.24659 0.0
C2180 C 0.17795 0.44242 0.22959 0.0
C2181 C 0.17848 0.45968 0.21425 0.0
C2182 C 0.17524 0.489 0.21576 0.0
C2183 C 0.18263 0.41155 0.2279 0.0
C2184 C 0.2105 0.40177 0.22991 0.0
C2185 C 0.16052 0.39187 0.2243 0.0
C2186 C 0.13036 0.40034 0.22249 0.0
C2187 C 0.12151 0.41836 0.20853 0.0
C2188 C 0.09279 0.42508 0.2065 0.0
C2189 C 0.07262 0.41347 0.21815 0.0
C2190 C 0.08112 0.39502 0.23183 0.0
C2191 C 0.10983 0.38841 0.23398 0.0
H2192 H 0.05041 0.41868 0.21655 0.0
H2193 H 0.32277 0.33192 0.23126 0.0
H2194 H 0.47148 0.50946 0.46634 0.0
H2195 H 0.43372 0.48304 0.48124 0.0
H2196 H 0.44604 0.41368 0.44438 0.0
H2197 H 0.48297 0.44089 0.42893 0.0
H2198 H 0.39675 0.43395 0.44018 0.0
H2199 H 0.44697 0.40429 0.4916 0.0
H2200 H 0.47919 0.40803 0.51749 0.0
H2201 H 0.42409 0.46944 0.54171 0.0
H2202 H 0.39167 0.46635 0.51586 0.0
H2203 H 0.26832 0.37455 0.46317 0.0
H2204 H 0.3189 0.381 0.462 0.0
H2205 H 0.31192 0.4555 0.49511 0.0
H2206 H 0.26064 0.447 0.49832 0.0
H2207 H 0.36046 0.42656 0.50252 0.0
H2208 H 0.31208 0.45605 0.44814 0.0
H2209 H 0.27899 0.44603 0.4235 0.0
H2210 H 0.33432 0.38085 0.4039 0.0
H2211 H 0.36681 0.38904 0.42926 0.0
C2212 C 0.467 0.48803 0.46199 0.0
C2213 C 0.47967 0.47727 0.4464 0.0
C2214 C 0.44544 0.47282 0.47056 0.0
C2215 C 0.43668 0.44647 0.46379 0.0
C2216 C 0.4522 0.4341 0.44972 0.0
C2217 C 0.47335 0.44956 0.44093 0.0
C2218 C 0.40791 0.43564 0.46822 0.0
C2219 C 0.38914 0.43163 0.45385 0.0
C2220 C 0.39761 0.43335 0.48603 0.0
C2221 C 0.41694 0.43522 0.5017 0.0
C2222 C 0.4418 0.41875 0.50238 0.0
C2223 C 0.46009 0.42072 0.51707 0.0
C2224 C 0.45372 0.439 0.53122 0.0
C2225 C 0.429 0.45528 0.53073 0.0
C2226 C 0.41061 0.45338 0.51608 0.0
C2227 C 0.2772 0.39244 0.4703 0.0
C2228 C 0.26004 0.4106 0.48066 0.0
C2229 C 0.30639 0.39597 0.46964 0.0
C2230 C 0.31922 0.41917 0.47801 0.0
C2231 C 0.30241 0.4375 0.48842 0.0
C2232 C 0.27302 0.43302 0.48994 0.0
C2233 C 0.34964 0.42526 0.47446 0.0
C2234 C 0.36846 0.42853 0.48892 0.0
C2235 C 0.3603 0.42654 0.45667 0.0
C2236 C 0.34181 0.42307 0.44069 0.0
C2237 C 0.31721 0.43957 0.43859 0.0
C2238 C 0.29849 0.43413 0.42451 0.0
C2239 C 0.30468 0.41309 0.41196 0.0
C2240 C 0.32956 0.39722 0.41358 0.0
C2241 C 0.34804 0.40209 0.4279 0.0
H2242 H 0.29015 0.40901 0.40104 0.0
H2243 H 0.46793 0.44052 0.54257 0.0
H2244 H 0.28293 0.73789 0.74605 0.0
H2245 H 0.30769 0.69239 0.74729 0.0
H2246 H 0.29441 0.68139 0.6905 0.0
H2247 H 0.26789 0.72502 0.68933 0.0
H2248 H 0.27291 0.63946 0.70739 0.0
H2249 H 0.36148 0.68605 0.70813 0.0
H2250 H 0.39887 0.71962 0.71714 0.0
H2251 H 0.401 0.6824 0.76976 0.0
H2252 H 0.36334 0.64878 0.76115 0.0
H2253 H 0.35026 0.50873 0.70124 0.0
H2254 H 0.34018 0.55953 0.69849 0.0
H2255 H 0.31832 0.5627 0.75464 0.0
H2256 H 0.32761 0.51177 0.75741 0.0
H2257 H 0.36151 0.60824 0.73728 0.0
H2258 H 0.26719 0.56405 0.73399 0.0
H2259 H 0.23465 0.52849 0.72126 0.0
H2260 H 0.24866 0.56258 0.66849 0.0
H2261 H 0.28204 0.59777 0.68087 0.0
C2262 C 0.28535 0.72586 0.73381 0.0
C2263 C 0.27282 0.73516 0.71768 0.0
C2264 C 0.3 0.70007 0.73448 0.0
C2265 C 0.30272 0.6834 0.71899 0.0
C2266 C 0.29243 0.69383 0.70264 0.0
C2267 C 0.27739 0.71914 0.70201 0.0
C2268 C 0.31155 0.65333 0.72024 0.0
C2269 C 0.29255 0.63286 0.71371 0.0
C2270 C 0.33701 0.64452 0.72862 0.0
C2271 C 0.35925 0.6651 0.73405 0.0
C2272 C 0.36963 0.68523 0.7217 0.0
C2273 C 0.39097 0.70421 0.72672 0.0
C2274 C 0.40222 0.70321 0.74404 0.0
C2275 C 0.39221 0.68318 0.75636 0.0
C2276 C 0.37088 0.66413 0.75141 0.0
C2277 C 0.34265 0.52017 0.71287 0.0
C2278 C 0.33929 0.50634 0.72946 0.0
C2279 C 0.3374 0.54915 0.71136 0.0
C2280 C 0.32914 0.56473 0.72646 0.0
C2281 C 0.32509 0.55093 0.74294 0.0
C2282 C 0.32973 0.52178 0.74439 0.0
C2283 C 0.32266 0.59511 0.72463 0.0
C2284 C 0.34202 0.61534 0.73099 0.0
C2285 C 0.2979 0.60395 0.71569 0.0
C2286 C 0.2773 0.58331 0.70833 0.0
C2287 C 0.26356 0.56376 0.71965 0.0
C2288 C 0.24499 0.54366 0.7125 0.0
C2289 C 0.23972 0.54318 0.69406 0.0
C2290 C 0.25291 0.56287 0.68275 0.0
C2291 C 0.27167 0.58288 0.68982 0.0
H2292 H 0.22533 0.5276 0.68853 0.0
H2293 H 0.41876 0.7179 0.74789 0.0
H2294 H 0.03739 0.50068 0.96348 0.0
H2295 H 0.07969 0.51829 0.97893 0.0
H2296 H 0.05728 0.60394 0.96445 0.0
H2297 H 0.01487 0.58647 0.94929 0.0
H2298 H 0.10545 0.58265 0.94735 0.0
H2299 H 0.06936 0.59379 1.00592 0.0
H2300 H 0.04259 0.57966 1.03292 0.0
H2301 H 0.10051 0.51093 1.04197 0.0
H2302 H 0.12748 0.52444 1.01485 0.0
H2303 H 0.24058 0.63387 0.96347 0.0
H2304 H 0.19022 0.62687 0.96446 0.0
H2305 H 0.20181 0.54825 0.99329 0.0
H2306 H 0.25285 0.55794 0.99516 0.0
H2307 H 0.15649 0.57014 1.00498 0.0
H2308 H 0.18846 0.55748 0.94282 0.0
H2309 H 0.21313 0.57325 0.91529 0.0
H2310 H 0.15971 0.64681 0.91253 0.0
H2311 H 0.13491 0.6316 0.9401 0.0
C2312 C 0.04066 0.52334 0.96452 0.0
C2313 C 0.0233 0.54222 0.95498 0.0
C2314 C 0.06487 0.53341 0.97329 0.0
C2315 C 0.0718 0.56236 0.97253 0.0
C2316 C 0.05234 0.58153 0.96511 0.0
C2317 C 0.02813 0.57152 0.95648 0.0
C2318 C 0.10156 0.57133 0.97523 0.0
C2319 C 0.11654 0.58041 0.96004 0.0
C2320 C 0.11596 0.56782 0.99167 0.0
C2321 C 0.10035 0.56 1.00827 0.0
C2322 C 0.07633 0.57556 1.0136 0.0
C2323 C 0.06112 0.56768 1.02894 0.0
C2324 C 0.06981 0.54437 1.03914 0.0
C2325 C 0.09382 0.52899 1.03406 0.0
C2326 C 0.10912 0.53678 1.01872 0.0
C2327 C 0.23276 0.61492 0.97006 0.0
C2328 C 0.25118 0.59646 0.97929 0.0
C2329 C 0.2036 0.61079 0.97042 0.0
C2330 C 0.1919 0.58638 0.97824 0.0
C2331 C 0.21019 0.56722 0.987 0.0
C2332 C 0.23952 0.57247 0.98779 0.0
C2333 C 0.16076 0.5809 0.97689 0.0
C2334 C 0.14548 0.57246 0.9923 0.0
C2335 C 0.1458 0.58504 0.96055 0.0
C2336 C 0.15996 0.59345 0.94355 0.0
C2337 C 0.18197 0.57698 0.9363 0.0
C2338 C 0.19599 0.58585 0.92072 0.0
C2339 C 0.18801 0.61103 0.91218 0.0
C2340 C 0.16586 0.62731 0.91915 0.0
C2341 C 0.15178 0.61854 0.93472 0.0
H2342 H 0.19898 0.61792 0.90017 0.0
H2343 H 0.05797 0.53825 1.05098 0.0
H2344 H 0.81478 0.51177 0.89158 0.0
H2345 H 0.80941 0.56337 0.89374 0.0
H2346 H 0.87149 0.56494 0.93629 0.0
H2347 H 0.87456 0.51392 0.93549 0.0
H2348 H 0.83247 0.59282 0.94666 0.0
H2349 H 0.88491 0.60293 0.89118 0.0
H2350 H 0.89862 0.59616 0.85948 0.0
H2351 H 0.8133 0.61374 0.84288 0.0
H2352 H 0.79939 0.62191 0.87443 0.0
H2353 H 0.81581 0.73383 0.96245 0.0
H2354 H 0.84347 0.697 0.94733 0.0
H2355 H 0.77191 0.67858 0.91327 0.0
H2356 H 0.74483 0.71632 0.9278 0.0
H2357 H 0.82316 0.66277 0.89723 0.0
H2358 H 0.77411 0.64586 0.9567 0.0
H2359 H 0.76688 0.65671 0.9888 0.0
H2360 H 0.85681 0.65337 0.99758 0.0
H2361 H 0.86443 0.64179 0.96563 0.0
C2362 C 0.82686 0.52318 0.90158 0.0
C2363 C 0.84496 0.50863 0.91342 0.0
C2364 C 0.82436 0.55278 0.90249 0.0
C2365 C 0.84042 0.56833 0.91498 0.0
C2366 C 0.85878 0.55366 0.92653 0.0
C2367 C 0.86049 0.52428 0.92607 0.0
C2368 C 0.83546 0.59912 0.91797 0.0
C2369 C 0.83134 0.60805 0.93574 0.0
C2370 C 0.8334 0.61934 0.90392 0.0
C2371 C 0.84102 0.61255 0.88515 0.0
C2372 C 0.86901 0.60503 0.88078 0.0
C2373 C 0.87686 0.60118 0.86284 0.0
C2374 C 0.85675 0.60407 0.84921 0.0
C2375 C 0.82881 0.6113 0.85347 0.0
C2376 C 0.82099 0.61581 0.87135 0.0
C2377 C 0.80664 0.72289 0.95109 0.0
C2378 C 0.77827 0.72755 0.94629 0.0
C2379 C 0.82233 0.70179 0.94253 0.0
C2380 C 0.80937 0.68448 0.92959 0.0
C2381 C 0.78225 0.69157 0.92328 0.0
C2382 C 0.76677 0.71309 0.93159 0.0
C2383 C 0.82078 0.65589 0.92576 0.0
C2384 C 0.82543 0.64737 0.90797 0.0
C2385 C 0.82444 0.63601 0.93979 0.0
C2386 C 0.81981 0.64321 0.95886 0.0
C2387 C 0.79228 0.64747 0.96552 0.0
C2388 C 0.78813 0.65364 0.98367 0.0
C2389 C 0.81137 0.65593 0.99519 0.0
C2390 C 0.83882 0.65168 0.98864 0.0
C2391 C 0.84306 0.64514 0.97055 0.0
H2392 H 0.80811 0.66089 1.00921 0.0
H2393 H 0.86286 0.60095 0.83535 0.0
H2394 H 0.54662 0.50058 0.6998 0.0
H2395 H 0.59148 0.52573 0.69721 0.0
H2396 H 0.55307 0.58597 0.66103 0.0
H2397 H 0.50762 0.56116 0.66388 0.0
H2398 H 0.59901 0.56467 0.64679 0.0
H2399 H 0.57813 0.6085 0.70112 0.0
H2400 H 0.56259 0.61485 0.73243 0.0
H2401 H 0.63124 0.56254 0.75072 0.0
H2402 H 0.64698 0.55548 0.71949 0.0
H2403 H 0.7432 0.6103 0.63573 0.0
H2404 H 0.69238 0.60686 0.63945 0.0
H2405 H 0.70472 0.55817 0.68814 0.0
H2406 H 0.75574 0.5665 0.68585 0.0
H2407 H 0.66643 0.58817 0.6954 0.0
H2408 H 0.66994 0.53295 0.63529 0.0
H2409 H 0.67808 0.53002 0.60259 0.0
H2410 H 0.639 0.61141 0.59528 0.0
H2411 H 0.62984 0.61432 0.62785 0.0
C2412 C 0.54738 0.51959 0.69164 0.0
C2413 C 0.52343 0.52866 0.68194 0.0
C2414 C 0.57314 0.53405 0.69022 0.0
C2415 C 0.57567 0.55789 0.67903 0.0
C2416 C 0.55162 0.56762 0.66976 0.0
C2417 C 0.52573 0.55323 0.67126 0.0
C2418 C 0.60422 0.56993 0.67524 0.0
C2419 C 0.61372 0.57009 0.65744 0.0
C2420 C 0.62327 0.57759 0.68903 0.0
C2421 C 0.61362 0.58127 0.70788 0.0
C2422 C 0.58976 0.59808 0.71178 0.0
C2423 C 0.58095 0.60187 0.72953 0.0
C2424 C 0.59588 0.58906 0.74355 0.0
C2425 C 0.61967 0.57244 0.73984 0.0
C2426 C 0.62857 0.56856 0.72211 0.0
C2427 C 0.73501 0.59845 0.64706 0.0
C2428 C 0.75333 0.58871 0.66053 0.0
C2429 C 0.70559 0.59602 0.64909 0.0
C2430 C 0.69382 0.58163 0.66393 0.0
C2431 C 0.71267 0.56986 0.67666 0.0
C2432 C 0.74199 0.57406 0.67523 0.0
C2433 C 0.66231 0.57977 0.66702 0.0
C2434 C 0.65198 0.58231 0.68474 0.0
C2435 C 0.64225 0.57504 0.65313 0.0
C2436 C 0.64969 0.57402 0.63392 0.0
C2437 C 0.66343 0.55031 0.62669 0.0
C2438 C 0.66808 0.54861 0.60819 0.0
C2439 C 0.65933 0.57063 0.59688 0.0
C2440 C 0.64585 0.59441 0.60404 0.0
C2441 C 0.64077 0.59601 0.62248 0.0
H2442 H 0.66273 0.56917 0.58255 0.0
H2443 H 0.58905 0.59206 0.75729 0.0
H2444 H 0.70036 0.25813 0.41327 0.0
H2445 H 0.67494 0.30327 0.41065 0.0
H2446 H 0.73425 0.34189 0.44716 0.0
H2447 H 0.75961 0.29699 0.44991 0.0
H2448 H 0.67572 0.36203 0.45063 0.0
H2449 H 0.74767 0.34235 0.40156 0.0
H2450 H 0.76116 0.30891 0.37759 0.0
H2451 H 0.67833 0.3168 0.35422 0.0
H2452 H 0.66434 0.35008 0.37814 0.0
H2453 H 0.68684 0.50611 0.43725 0.0
H2454 H 0.69565 0.45532 0.44045 0.0
H2455 H 0.66055 0.44138 0.38765 0.0
H2456 H 0.65476 0.49258 0.38388 0.0
H2457 H 0.69465 0.40429 0.39071 0.0
H2458 H 0.62272 0.42827 0.42978 0.0
H2459 H 0.59559 0.45497 0.45238 0.0
H2460 H 0.6565 0.4321 0.49268 0.0
H2461 H 0.68432 0.4058 0.47014 0.0
C2462 C 0.70783 0.27619 0.42085 0.0
C2463 C 0.73235 0.2741 0.43153 0.0
C2464 C 0.69312 0.30189 0.41948 0.0
C2465 C 0.70293 0.32605 0.42854 0.0
C2466 C 0.72626 0.32352 0.44009 0.0
C2467 C 0.74083 0.29783 0.44157 0.0
C2468 C 0.69201 0.35477 0.42409 0.0
C2469 C 0.67989 0.37147 0.43761 0.0
C2470 C 0.69558 0.36643 0.40674 0.0
C2471 C 0.70507 0.34876 0.39151 0.0
C2472 C 0.7325 0.33718 0.39117 0.0
C2473 C 0.74016 0.31815 0.37766 0.0
C2474 C 0.72064 0.31078 0.36437 0.0
C2475 C 0.69347 0.3226 0.36448 0.0
C2476 C 0.68569 0.3416 0.37797 0.0
C2477 C 0.68191 0.49216 0.42616 0.0
C2478 C 0.67037 0.50309 0.41029 0.0
C2479 C 0.6863 0.46302 0.42811 0.0
C2480 C 0.67769 0.44401 0.41462 0.0
C2481 C 0.66732 0.45525 0.39837 0.0
C2482 C 0.66413 0.48459 0.39614 0.0
C2483 C 0.67962 0.41265 0.41761 0.0
C2484 C 0.68997 0.39526 0.40377 0.0
C2485 C 0.67243 0.39991 0.43435 0.0
C2486 C 0.65576 0.41532 0.44817 0.0
C2487 C 0.63044 0.42916 0.44341 0.0
C2488 C 0.61493 0.4442 0.45622 0.0
C2489 C 0.62436 0.44529 0.47396 0.0
C2490 C 0.64926 0.43126 0.47891 0.0
C2491 C 0.6649 0.41627 0.46611 0.0
H2492 H 0.61234 0.45695 0.48388 0.0
H2493 H 0.72654 0.29589 0.354 0.0
H2494 H 0.76358 0.43965 0.14226 0.0
H2495 H 0.8141 0.44984 0.14559 0.0
H2496 H 0.81605 0.39731 0.19327 0.0
H2497 H 0.76539 0.39173 0.19175 0.0
H2498 H 0.84651 0.43283 0.20038 0.0
H2499 H 0.84631 0.38065 0.14495 0.0
H2500 H 0.83483 0.36825 0.11358 0.0
H2501 H 0.86603 0.44916 0.09583 0.0
H2502 H 0.87729 0.46209 0.12704 0.0
H2503 H 0.98801 0.45521 0.2121 0.0
H2504 H 0.95293 0.42389 0.19806 0.0
H2505 H 0.92537 0.49302 0.16428 0.0
H2506 H 0.96086 0.52389 0.17793 0.0
H2507 H 0.91339 0.43959 0.14921 0.0
H2508 H 0.89815 0.4901 0.20915 0.0
H2509 H 0.91216 0.49719 0.2408 0.0
H2510 H 0.91417 0.4071 0.24899 0.0
H2511 H 0.89958 0.39957 0.21754 0.0
C2512 C 0.77471 0.43123 0.15379 0.0
C2513 C 0.76044 0.41473 0.16668 0.0
C2514 C 0.80392 0.43623 0.15537 0.0
C2515 C 0.81961 0.4236 0.16936 0.0
C2516 C 0.80494 0.40763 0.18235 0.0
C2517 C 0.77571 0.40433 0.18145 0.0
C2518 C 0.85074 0.42852 0.17156 0.0
C2519 C 0.86093 0.43313 0.18904 0.0
C2520 C 0.87029 0.42966 0.15701 0.0
C2521 C 0.86235 0.42238 0.13835 0.0
C2522 C 0.85033 0.39587 0.13436 0.0
C2523 C 0.84399 0.38874 0.11661 0.0
C2524 C 0.84974 0.40796 0.10276 0.0
C2525 C 0.86163 0.43434 0.1066 0.0
C2526 C 0.86799 0.44155 0.1243 0.0
C2527 C 0.97537 0.46313 0.20104 0.0
C2528 C 0.9766 0.49181 0.19612 0.0
C2529 C 0.95538 0.44533 0.19304 0.0
C2530 C 0.93609 0.45643 0.1805 0.0
C2531 C 0.93998 0.48409 0.17398 0.0
C2532 C 0.96011 0.50176 0.18182 0.0
C2533 C 0.90818 0.44291 0.17775 0.0
C2534 C 0.89862 0.43751 0.16031 0.0
C2535 C 0.88926 0.43965 0.19229 0.0
C2536 C 0.89798 0.44431 0.21109 0.0
C2537 C 0.90158 0.47187 0.21775 0.0
C2538 C 0.90959 0.47595 0.23562 0.0
C2539 C 0.91425 0.45262 0.24684 0.0
C2540 C 0.91063 0.42515 0.24028 0.0
C2541 C 0.90235 0.42096 0.22248 0.0
H2542 H 0.92057 0.45584 0.26064 0.0
H2543 H 0.84512 0.4025 0.08902 0.0
H2544 H 0.74175 0.78368 0.68756 0.0
H2545 H 0.71263 0.82563 0.68963 0.0
H2546 H 0.71173 0.81851 0.74727 0.0
H2547 H 0.73894 0.77453 0.7454 0.0
H2548 H 0.66232 0.84653 0.73259 0.0
H2549 H 0.76596 0.85102 0.72833 0.0
H2550 H 0.81053 0.83739 0.7133 0.0
H2551 H 0.78159 0.87572 0.66429 0.0
H2552 H 0.73661 0.88908 0.67897 0.0
H2553 H 0.68512 0.99591 0.75638 0.0
H2554 H 0.69259 0.94466 0.75304 0.0
H2555 H 0.66934 0.95047 0.69724 0.0
H2556 H 0.66079 1.00142 0.70065 0.0
H2557 H 0.72622 0.92229 0.70981 0.0
H2558 H 0.62564 0.92193 0.71271 0.0
H2559 H 0.57685 0.92936 0.72355 0.0
H2560 H 0.59539 0.88173 0.77128 0.0
H2561 H 0.64455 0.8745 0.7609 0.0
C2562 C 0.73445 0.7899 0.70073 0.0
C2563 C 0.74362 0.77576 0.71638 0.0
C2564 C 0.71777 0.81422 0.70184 0.0
C2565 C 0.71078 0.82564 0.71861 0.0
C2566 C 0.71725 0.81022 0.73419 0.0
C2567 C 0.73337 0.78536 0.73308 0.0
C2568 C 0.70227 0.85581 0.71989 0.0
C2569 C 0.67633 0.8632 0.72785 0.0
C2570 C 0.72027 0.87743 0.71318 0.0
C2571 C 0.74796 0.87095 0.70471 0.0
C2572 C 0.76916 0.85657 0.71436 0.0
C2573 C 0.79444 0.84882 0.70589 0.0
C2574 C 0.79889 0.85568 0.68785 0.0
C2575 C 0.77812 0.87043 0.67826 0.0
C2576 C 0.75274 0.87811 0.68665 0.0
C2577 C 0.68226 0.98635 0.74333 0.0
C2578 C 0.67274 1.00264 0.72871 0.0
C2579 C 0.68586 0.95704 0.74154 0.0
C2580 C 0.68065 0.9438 0.72504 0.0
C2581 C 0.67278 0.96028 0.71019 0.0
C2582 C 0.66845 0.98938 0.71206 0.0
C2583 C 0.68641 0.91326 0.72278 0.0
C2584 C 0.71209 0.90578 0.71467 0.0
C2585 C 0.66786 0.89177 0.72912 0.0
C2586 C 0.63907 0.89817 0.73617 0.0
C2587 C 0.61959 0.91361 0.72571 0.0
C2588 C 0.59173 0.91752 0.73169 0.0
C2589 C 0.58299 0.90595 0.74807 0.0
C2590 C 0.60217 0.89063 0.75858 0.0
C2591 C 0.63006 0.88668 0.75267 0.0
H2592 H 0.56142 0.90898 0.75267 0.0
H2593 H 0.81844 0.84958 0.68129 0.0
H2594 H 0.76277 0.932 1.0109 0.0
H2595 H 0.81431 0.94015 1.01062 0.0
H2596 H 0.81928 0.90576 0.95721 0.0
H2597 H 0.76801 0.89871 0.957 0.0
H2598 H 0.86405 0.88768 0.99102 0.0
H2599 H 0.83047 0.9598 0.94574 0.0
H2600 H 0.79444 0.99545 0.93744 0.0
H2601 H 0.80665 0.03745 0.9879 0.0
H2602 H 0.84257 1.00175 0.99652 0.0
H2603 H 0.97092 0.93003 0.92944 0.0
H2604 H 0.93389 0.9113 0.94913 0.0
H2605 H 0.94656 0.98125 0.98537 0.0
H2606 H 0.98337 1.00023 0.96563 0.0
H2607 H 0.89498 0.98182 0.96843 0.0
H2608 H 0.95008 0.91539 1.00152 0.0
H2609 H 0.9846 0.87683 1.00599 0.0
H2610 H 0.93146 0.82003 0.97621 0.0
H2611 H 0.89681 0.85834 0.97127 0.0
C2612 C 0.77483 0.92652 0.99903 0.0
C2613 C 0.76136 0.91474 0.98395 0.0
C2614 C 0.80423 0.93072 0.99903 0.0
C2615 C 0.82046 0.92284 0.98406 0.0
C2616 C 0.80707 0.91136 0.969 0.0
C2617 C 0.77776 0.9077 0.96884 0.0
C2618 C 0.85095 0.92954 0.98304 0.0
C2619 C 0.87111 0.90829 0.98631 0.0
C2620 C 0.85982 0.95636 0.97695 0.0
C2621 C 0.83903 0.97827 0.97175 0.0
C2622 C 0.82542 0.9767 0.95503 0.0
C2623 C 0.80502 0.99683 0.95028 0.0
C2624 C 0.79825 0.0187 0.96214 0.0
C2625 C 0.81192 0.02049 0.97874 0.0
C2626 C 0.83228 1.00032 0.98357 0.0
C2627 C 0.9666 0.94075 0.94199 0.0
C2628 C 0.97952 0.96689 0.94583 0.0
C2629 C 0.94558 0.92991 0.95331 0.0
C2630 C 0.93727 0.94509 0.96861 0.0
C2631 C 0.95268 0.96926 0.97361 0.0
C2632 C 0.97379 0.98004 0.96233 0.0
C2633 C 0.9088 0.93998 0.97637 0.0
C2634 C 0.88858 0.96151 0.974 0.0
C2635 C 0.90013 0.91313 0.98294 0.0
C2636 C 0.92084 0.88987 0.98595 0.0
C2637 C 0.94582 0.89475 0.99579 0.0
C2638 C 0.96541 0.8729 0.99843 0.0
C2639 C 0.96024 0.846 0.99137 0.0
C2640 C 0.93543 0.84087 0.98168 0.0
C2641 C 0.91577 0.86265 0.97899 0.0
H2642 H 0.97544 0.82913 0.99343 0.0
H2643 H 0.78242 0.03426 0.95846 0.0
H2644 H 0.86095 0.01323 0.20351 0.0
H2645 H 0.85547 0.06451 0.20215 0.0
H2646 H 0.81986 0.06415 0.25553 0.0
H2647 H 0.82448 0.01244 0.25671 0.0
H2648 H 0.79144 0.09828 0.23559 0.0
H2649 H 0.89032 0.08999 0.24699 0.0
H2650 H 0.93926 0.07214 0.24334 0.0
H2651 H 0.94107 0.10307 0.18917 0.0
H2652 H 0.89226 0.12109 0.19245 0.0
H2653 H 0.77024 0.23749 0.21664 0.0
H2654 H 0.79933 0.20428 0.23379 0.0
H2655 H 0.83451 0.17171 0.18455 0.0
H2656 H 0.8071 0.20608 0.16746 0.0
H2657 H 0.86914 0.15921 0.21224 0.0
H2658 H 0.76656 0.15056 0.1989 0.0
H2659 H 0.71815 0.17015 0.20108 0.0
H2660 H 0.72452 0.1709 0.25858 0.0
H2661 H 0.77315 0.15165 0.25666 0.0
C2662 C 0.85146 0.02399 0.21485 0.0
C2663 C 0.84308 0.00875 0.23021 0.0
C2664 C 0.84889 0.05342 0.21421 0.0
C2665 C 0.83828 0.0684 0.22901 0.0
C2666 C 0.82856 0.05312 0.24405 0.0
C2667 C 0.83082 0.02352 0.24462 0.0
C2668 C 0.83558 0.09979 0.22807 0.0
C2669 C 0.80875 0.11168 0.23104 0.0
C2670 C 0.85806 0.11747 0.22201 0.0
C2671 C 0.88751 0.1067 0.21995 0.0
C2672 C 0.90109 0.09278 0.23427 0.0
C2673 C 0.92881 0.08267 0.23227 0.0
C2674 C 0.94315 0.08628 0.21602 0.0
C2675 C 0.92991 0.10023 0.20175 0.0
C2676 C 0.90226 0.1105 0.2037 0.0
C2677 C 0.78523 0.22429 0.2095 0.0
C2678 C 0.78539 0.22345 0.19063 0.0
C2679 C 0.80182 0.2052 0.21935 0.0
C2680 C 0.81802 0.18459 0.2104 0.0
C2681 C 0.82169 0.18695 0.19177 0.0
C2682 C 0.80562 0.20636 0.18197 0.0
C2683 C 0.82488 0.15709 0.21914 0.0
C2684 C 0.85233 0.14589 0.21755 0.0
C2685 C 0.80305 0.13987 0.22643 0.0
C2686 C 0.77337 0.14981 0.22764 0.0
C2687 C 0.75751 0.15477 0.21199 0.0
C2688 C 0.73012 0.16591 0.21318 0.0
C2689 C 0.71826 0.17176 0.22996 0.0
C2690 C 0.73373 0.16635 0.24559 0.0
C2691 C 0.7612 0.15533 0.24447 0.0
H2692 H 0.69709 0.18047 0.23086 0.0
H2693 H 0.96456 0.07836 0.21449 0.0
H2694 H 0.75583 0.06983 0.45647 0.0
H2695 H 0.70529 0.05993 0.45297 0.0
H2696 H 0.68949 0.09597 0.50537 0.0
H2697 H 0.74042 0.10027 0.50994 0.0
H2698 H 0.65089 0.06711 0.50229 0.0
H2699 H 0.68067 0.13295 0.45966 0.0
H2700 H 0.71082 0.1543 0.43616 0.0
H2701 H 0.68757 0.08795 0.39971 0.0
H2702 H 0.65748 0.06601 0.42304 0.0
H2703 H 0.50611 0.06057 0.47762 0.0
H2704 H 0.55098 0.0868 0.47953 0.0
H2705 H 0.59171 0.02335 0.44691 0.0
H2706 H 0.54705 0.99745 0.4447 0.0
H2707 H 0.61274 0.08015 0.44081 0.0
H2708 H 0.58749 0.01684 0.49468 0.0
H2709 H 0.55239 0.00956 0.51893 0.0
H2710 H 0.56215 0.09628 0.53518 0.0
H2711 H 0.59713 0.10402 0.51097 0.0
C2712 C 0.74145 0.07457 0.46741 0.0
C2713 C 0.75169 0.08621 0.48338 0.0
C2714 C 0.71241 0.06975 0.46525 0.0
C2715 C 0.69285 0.07891 0.47836 0.0
C2716 C 0.70356 0.08894 0.4948 0.0
C2717 C 0.73278 0.09158 0.49746 0.0
C2718 C 0.66154 0.07811 0.47484 0.0
C2719 C 0.64288 0.07068 0.48886 0.0
C2720 C 0.64992 0.08396 0.4576 0.0
C2721 C 0.66687 0.09775 0.44315 0.0
C2722 C 0.68193 0.12292 0.44662 0.0
C2723 C 0.69905 0.13511 0.43334 0.0
C2724 C 0.70111 0.12247 0.41646 0.0
C2725 C 0.6859 0.09773 0.41279 0.0
C2726 C 0.66873 0.08545 0.42602 0.0
C2727 C 0.52461 0.05243 0.47071 0.0
C2728 C 0.52323 0.02667 0.4613 0.0
C2729 C 0.55013 0.06755 0.47168 0.0
C2730 C 0.5748 0.0568 0.46357 0.0
C2731 C 0.57295 0.03208 0.45323 0.0
C2732 C 0.54744 0.01718 0.45208 0.0
C2733 C 0.60331 0.0681 0.46803 0.0
C2734 C 0.62128 0.0775 0.45422 0.0
C2735 C 0.61389 0.06655 0.48572 0.0
C2736 C 0.59497 0.06091 0.50116 0.0
C2737 C 0.58236 0.03419 0.50359 0.0
C2738 C 0.5624 0.03005 0.51725 0.0
C2739 C 0.55509 0.05243 0.52861 0.0
C2740 C 0.56789 0.07894 0.52642 0.0
C2741 C 0.58783 0.08319 0.51278 0.0
H2742 H 0.53948 0.04924 0.53909 0.0
H2743 H 0.71449 0.13186 0.40622 0.0
H2744 H 0.25864 0.21503 0.45368 0.0
H2745 H 0.28396 0.17063 0.44992 0.0
H2746 H 0.33302 0.20729 0.40687 0.0
H2747 H 0.30881 0.25262 0.41113 0.0
H2748 H 0.30326 0.15965 0.397 0.0
H2749 H 0.368 0.18556 0.44176 0.0
H2750 H 0.38625 0.20329 0.47059 0.0
H2751 H 0.3443 0.13536 0.49844 0.0
H2752 H 0.32539 0.11744 0.46982 0.0
H2753 H 0.3475 0.01671 0.38242 0.0
H2754 H 0.34453 0.0677 0.38566 0.0
H2755 H 0.31847 0.05687 0.44097 0.0
H2756 H 0.3274 0.00602 0.43842 0.0
H2757 H 0.34854 0.09683 0.44193 0.0
H2758 H 0.27395 0.07997 0.39511 0.0
H2759 H 0.25883 0.06394 0.36506 0.0
H2760 H 0.3221 0.11698 0.34053 0.0
H2761 H 0.33763 0.13316 0.3704 0.0
C2762 C 0.27546 0.21421 0.44381 0.0
C2763 C 0.2813 0.23759 0.43257 0.0
C2764 C 0.28996 0.18863 0.44168 0.0
C2765 C 0.31038 0.18564 0.42813 0.0
C2766 C 0.31728 0.20917 0.41741 0.0
C2767 C 0.30311 0.23497 0.41972 0.0
C2768 C 0.32091 0.15693 0.42353 0.0
C2769 C 0.31347 0.14592 0.40676 0.0
C2770 C 0.33432 0.13916 0.43621 0.0
C2771 C 0.34502 0.15028 0.45359 0.0
C2772 C 0.36234 0.17458 0.45403 0.0
C2773 C 0.3729 0.18462 0.47035 0.0
C2774 C 0.36639 0.1705 0.48634 0.0
C2775 C 0.3493 0.1463 0.48605 0.0
C2776 C 0.33868 0.13618 0.46977 0.0
C2777 C 0.34056 0.02529 0.39515 0.0
C2778 C 0.3376 0.00754 0.41017 0.0
C2779 C 0.33852 0.05471 0.397 0.0
C2780 C 0.33039 0.0669 0.41347 0.0
C2781 C 0.32514 0.04856 0.42811 0.0
C2782 C 0.32958 0.01934 0.42662 0.0
C2783 C 0.32832 0.09845 0.41593 0.0
C2784 C 0.33795 0.11027 0.43221 0.0
C2785 C 0.31681 0.11707 0.40278 0.0
C2786 C 0.30706 0.10752 0.38494 0.0
C2787 C 0.28461 0.08814 0.38329 0.0
C2788 C 0.276 0.07904 0.3663 0.0
C2789 C 0.28955 0.08937 0.35091 0.0
C2790 C 0.31165 0.10895 0.35245 0.0
C2791 C 0.32033 0.11812 0.36939 0.0
H2792 H 0.28289 0.08226 0.33778 0.0
H2793 H 0.37463 0.17827 0.49895 0.0
H2794 H 0.00678 0.05821 0.15932 0.0
H2795 H 0.05221 0.08291 0.15602 0.0
H2796 H 0.08444 0.03928 0.20257 0.0
H2797 H 0.04004 0.01364 0.20557 0.0
H2798 H 0.10482 0.1005 0.19618 0.0
H2799 H 0.09414 0.00497 0.16691 0.0
H2800 H 0.06453 0.97561 0.14695 0.0
H2801 H 0.0711 0.03874 0.1055 0.0
H2802 H 0.10047 0.06858 0.12534 0.0
H2803 H 0.25093 0.08628 0.19174 0.0
H2804 H 0.20012 0.07731 0.19493 0.0
H2805 H 0.19011 0.08526 0.13749 0.0
H2806 H 0.24134 0.09138 0.13428 0.0
H2807 H 0.15471 0.05092 0.14664 0.0
H2808 H 0.17425 0.14078 0.16974 0.0
H2809 H 0.19855 0.17792 0.18718 0.0
H2810 H 0.17047 0.13874 0.23618 0.0
H2811 H 0.14652 0.10113 0.21892 0.0
C2812 C 0.0234 0.05407 0.16898 0.0
C2813 C 0.0198 0.03344 0.1825 0.0
C2814 C 0.04916 0.06858 0.16724 0.0
C2815 C 0.07159 0.06284 0.17906 0.0
C2816 C 0.06724 0.04422 0.19346 0.0
C2817 C 0.04172 0.02949 0.19509 0.0
C2818 C 0.10098 0.07096 0.17442 0.0
C2819 C 0.11592 0.08982 0.18539 0.0
C2820 C 0.11494 0.05784 0.15989 0.0
C2821 C 0.09952 0.03885 0.14752 0.0
C2822 C 0.08942 0.01242 0.15348 0.0
C2823 C 0.07259 0.99578 0.14223 0.0
C2824 C 0.06597 0.00529 0.12496 0.0
C2825 C 0.07631 0.03138 0.11886 0.0
C2826 C 0.09309 0.04813 0.13008 0.0
C2827 C 0.23788 0.08515 0.1798 0.0
C2828 C 0.24987 0.08932 0.16279 0.0
C2829 C 0.20876 0.08066 0.18162 0.0
C2830 C 0.19089 0.08177 0.16653 0.0
C2831 C 0.20322 0.08447 0.1494 0.0
C2832 C 0.23256 0.08778 0.14753 0.0
C2833 C 0.15947 0.08021 0.1687 0.0
C2834 C 0.14398 0.06233 0.15728 0.0
C2835 C 0.14484 0.09537 0.18235 0.0
C2836 C 0.15885 0.11803 0.19298 0.0
C2837 C 0.17347 0.14006 0.18421 0.0
C2838 C 0.18716 0.16117 0.19407 0.0
C2839 C 0.1861 0.16067 0.2128 0.0
C2840 C 0.17129 0.13908 0.22167 0.0
C2841 C 0.15764 0.11786 0.21183 0.0
H2842 H 0.19671 0.17702 0.22043 0.0
H2843 H 0.0528 0.99245 0.1163 0.0
H2844 H 0.12215 0.98966 0.92884 0.0
H2845 H 0.12756 0.9393 0.92794 0.0
H2846 H 0.20945 0.94888 0.9026 0.0
H2847 H 0.20113 1.00015 0.89997 0.0
H2848 H 0.18831 0.9045 0.89039 0.0
H2849 H 0.19145 0.93608 0.95408 0.0
H2850 H 0.17016 0.95963 0.98042 0.0
H2851 H 0.09691 0.90586 0.97655 0.0
H2852 H 0.11771 0.88214 0.95018 0.0
H2853 H 0.26587 0.79656 0.93073 0.0
H2854 H 0.24057 0.83333 0.9144 0.0
H2855 H 0.16169 0.80495 0.93798 0.0
H2856 H 0.18768 0.76918 0.95528 0.0
H2857 H 0.1706 0.85427 0.94783 0.0
H2858 H 0.17224 0.8141 0.89036 0.0
H2859 H 0.19142 0.78858 0.86423 0.0
H2860 H 0.25251 0.85477 0.85567 0.0
H2861 H 0.23408 0.88051 0.88193 0.0
C2862 C 0.14146 0.98139 0.92299 0.0
C2863 C 0.16114 0.99925 0.91432 0.0
C2864 C 0.1447 0.9522 0.92276 0.0
C2865 C 0.16954 0.93992 0.91604 0.0
C2866 C 0.19005 0.9577 0.90801 0.0
C2867 C 0.1856 0.98709 0.9068 0.0
C2868 C 0.17419 0.90876 0.91779 0.0
C2869 C 0.18484 0.89355 0.90302 0.0
C2870 C 0.16789 0.8938 0.93389 0.0
C2871 C 0.15605 0.90752 0.95013 0.0
C2872 C 0.17085 0.9293 0.9589 0.0
C2873 C 0.15884 0.94268 0.9738 0.0
C2874 C 0.13219 0.93428 0.98013 0.0
C2875 C 0.11755 0.91235 0.97164 0.0
C2876 C 0.12945 0.89889 0.95675 0.0
C2877 C 0.24295 0.79739 0.93172 0.0
C2878 C 0.22861 0.78042 0.94423 0.0
C2879 C 0.22837 0.81832 0.92227 0.0
C2880 C 0.19913 0.82218 0.92501 0.0
C2881 C 0.18427 0.80254 0.93574 0.0
C2882 C 0.19902 0.78206 0.94556 0.0
C2883 C 0.18631 0.85016 0.92077 0.0
C2884 C 0.17386 0.86489 0.93505 0.0
C2885 C 0.19084 0.86438 0.90425 0.0
C2886 C 0.20179 0.84922 0.88822 0.0
C2887 C 0.18987 0.82317 0.88299 0.0
C2888 C 0.20061 0.80866 0.86813 0.0
C2889 C 0.22319 0.82003 0.85831 0.0
C2890 C 0.23501 0.846 0.86329 0.0
C2891 C 0.22437 0.86059 0.87814 0.0
H2892 H 0.23151 0.80873 0.84684 0.0
H2893 H 0.12289 0.94475 0.99162 0.0
H2894 H 0.46494 0.00731 0.70342 0.0
H2895 H 0.42207 0.97883 0.70201 0.0
H2896 H 0.46194 0.92344 0.66353 0.0
H2897 H 0.50536 0.95197 0.66501 0.0
H2898 H 0.41462 0.94057 0.65102 0.0
H2899 H 0.43983 0.89706 0.70421 0.0
H2900 H 0.45725 0.88926 0.73498 0.0
H2901 H 0.38773 0.93765 0.75599 0.0
H2902 H 0.37009 0.94618 0.72533 0.0
H2903 H 0.2743 0.89395 0.63991 0.0
H2904 H 0.32422 0.89145 0.64725 0.0
H2905 H 0.30988 0.94613 0.69279 0.0
H2906 H 0.25848 0.94075 0.68833 0.0
H2907 H 0.35004 0.91528 0.70117 0.0
H2908 H 0.33449 0.96284 0.64094 0.0
H2909 H 0.31156 0.95212 0.61209 0.0
H2910 H 0.36825 0.88207 0.60408 0.0
H2911 H 0.39021 0.89117 0.63353 0.0
C2912 C 0.46492 0.98868 0.69497 0.0
C2913 C 0.48852 0.98204 0.68421 0.0
C2914 C 0.44038 0.97225 0.69427 0.0
C2915 C 0.43882 0.94878 0.68281 0.0
C2916 C 0.46269 0.94144 0.67251 0.0
C2917 C 0.48735 0.95791 0.67321 0.0
C2918 C 0.41092 0.93515 0.67964 0.0
C2919 C 0.40069 0.9347 0.66204 0.0
C2920 C 0.39283 0.9267 0.69386 0.0
C2921 C 0.40373 0.92246 0.71239 0.0
C2922 C 0.42841 0.90636 0.71536 0.0
C2923 C 0.43829 0.90173 0.7328 0.0
C2924 C 0.42364 0.913 0.74743 0.0
C2925 C 0.39907 0.92895 0.74464 0.0
C2926 C 0.3891 0.93367 0.72722 0.0
C2927 C 0.28182 0.90501 0.65165 0.0
C2928 C 0.26262 0.91727 0.66361 0.0
C2929 C 0.31066 0.90428 0.65563 0.0
C2930 C 0.32169 0.9201 0.66998 0.0
C2931 C 0.30236 0.93391 0.68148 0.0
C2932 C 0.27302 0.9316 0.67868 0.0
C2933 C 0.35307 0.9232 0.67274 0.0
C2934 C 0.36402 0.92134 0.69025 0.0
C2935 C 0.37228 0.92867 0.65839 0.0
C2936 C 0.36365 0.92749 0.63942 0.0
C2937 C 0.34243 0.94556 0.63282 0.0
C2938 C 0.32931 0.93944 0.61653 0.0
C2939 C 0.33837 0.91633 0.60636 0.0
C2940 C 0.36113 0.89977 0.61211 0.0
C2941 C 0.37378 0.90526 0.62865 0.0
H2942 H 0.32778 0.91126 0.59401 0.0
H2943 H 0.43128 0.90933 0.76092 0.0
H2944 H 0.29102 0.07828 0.09335 0.0
H2945 H 0.26692 0.07324 1.06451 0.0
H2946 H 0.2258 0.15342 0.07269 0.0
H2947 H 0.25122 0.15893 0.10136 0.0
H2948 H 0.1866 0.11426 1.05736 0.0
H2949 H 0.28154 0.14405 1.04063 0.0
H2950 H 0.33361 0.13926 1.04176 0.0
H2951 H 0.32745 0.0549 1.02069 0.0
H2952 H 0.2753 0.05912 1.01955 0.0
H2953 H 0.12212 0.11394 0.96834 0.0
H2954 H 0.14467 0.12196 0.99742 0.0
H2955 H 0.2163 0.07178 0.9807 0.0
H2956 H 0.19488 0.06672 0.9511 0.0
H2957 H 0.24072 0.09698 1.00154 0.0
H2958 H 0.15054 0.05999 1.02167 0.0
H2959 H 0.09842 0.05667 1.02425 0.0
H2960 H 0.09462 0.14343 1.04136 0.0
H2961 H 0.14672 0.14719 1.03891 0.0
C2962 C 0.2774 0.09528 0.0891 0.0
C2963 C 0.27432 0.11936 0.10037 0.0
C2964 C 0.26311 0.09227 0.07223 0.0
C2965 C 0.244 0.11292 1.06544 0.0
C2966 C 0.24012 0.13675 0.07688 0.0
C2967 C 0.25501 0.14 0.09365 0.0
C2968 C 0.22864 0.1096 1.04673 0.0
C2969 C 0.19869 0.11083 1.04518 0.0
C2970 C 0.24316 0.10388 1.03026 0.0
C2971 C 0.27452 0.10186 1.03008 0.0
C2972 C 0.2913 0.12449 1.03622 0.0
C2973 C 0.32082 0.12186 1.03688 0.0
C2974 C 0.33382 0.09677 1.03133 0.0
C2975 C 0.31734 0.07433 1.02498 0.0
C2976 C 0.28781 0.07685 1.02427 0.0
C2977 C 0.14249 0.10416 0.97086 0.0
C2978 C 0.15581 0.0889 0.95681 0.0
C2979 C 0.15575 0.10849 0.98809 0.0
C2980 C 0.18283 0.09689 0.99285 0.0
C2981 C 0.19582 0.08151 0.9786 0.0
C2982 C 0.18307 0.07812 0.96125 0.0
C2983 C 0.198 0.10116 1.01183 0.0
C2984 C 0.22817 0.10021 1.01353 0.0
C2985 C 0.18357 0.106 1.0286 0.0
C2986 C 0.15239 0.10395 1.02991 0.0
C2987 C 0.13853 0.07837 1.0259 0.0
C2988 C 0.10903 0.0764 1.02737 0.0
C2989 C 0.09322 0.09985 1.0329 0.0
C2990 C 0.10689 0.12529 1.03705 0.0
C2991 C 0.13639 0.12734 1.03567 0.0
H2992 H 0.07038 0.0983 1.03401 0.0
H2993 H 0.35667 0.09471 1.03195 0.0
H2994 H 0.68022 0.45261 0.20112 0.0
H2995 H 0.67389 0.47544 0.23037 0.0
H2996 H 0.65498 0.39453 0.25419 0.0
H2997 H 0.66227 0.37134 0.22474 0.0
H2998 H 0.61679 0.43758 0.26806 0.0
H2999 H 0.71696 0.42811 0.26345 0.0
H3000 H 0.76461 0.43302 0.25014 0.0
H3001 H 0.75616 0.52362 0.25039 0.0
H3002 H 0.70821 0.51926 0.26341 0.0
H3003 H 0.61412 0.49474 0.35946 0.0
H3004 H 0.621 0.46786 0.3316 0.0
H3005 H 0.66638 0.53841 0.30868 0.0
H3006 H 0.65965 0.56492 0.33655 0.0
H3007 H 0.69142 0.49826 0.29453 0.0
H3008 H 0.59064 0.50853 0.29733 0.0
H3009 H 0.54291 0.50448 0.31069 0.0
H3010 H 0.55163 0.41397 0.31317 0.0
H3011 H 0.59965 0.41752 0.30014 0.0
C3012 C 0.67488 0.43929 0.21248 0.0
C3013 C 0.6721 0.40954 0.20983 0.0
C3014 C 0.67122 0.45268 0.2296 0.0
C3015 C 0.66372 0.43746 0.24538 0.0
C3016 C 0.66065 0.40764 0.24279 0.0
C3017 C 0.66511 0.39406 0.22565 0.0
C3018 C 0.65935 0.45264 0.2641 0.0
C3019 C 0.63347 0.45047 0.27381 0.0
C3020 C 0.68016 0.4706 0.27227 0.0
C3021 C 0.7088 0.47334 0.2642 0.0
C3022 C 0.7251 0.44909 0.26047 0.0
C3023 C 0.7522 0.45177 0.25302 0.0
C3024 C 0.76337 0.47861 0.24937 0.0
C3025 C 0.74745 0.50283 0.25318 0.0
C3026 C 0.7203 0.50027 0.26059 0.0
C3027 C 0.62534 0.5049 0.34852 0.0
C3028 C 0.63635 0.53268 0.35107 0.0
C3029 C 0.62931 0.4892 0.33211 0.0
C3030 C 0.64413 0.50031 0.31687 0.0
C3031 C 0.65498 0.52814 0.31952 0.0
C3032 C 0.65114 0.54368 0.3359 0.0
C3033 C 0.64864 0.48355 0.29858 0.0
C3034 C 0.67461 0.48546 0.28886 0.0
C3035 C 0.62779 0.46558 0.29032 0.0
C3036 C 0.59887 0.46332 0.29796 0.0
C3037 C 0.58244 0.48778 0.30083 0.0
C3038 C 0.55534 0.48558 0.30835 0.0
C3039 C 0.54428 0.459 0.31283 0.0
C3040 C 0.56026 0.43456 0.30974 0.0
C3041 C 0.58743 0.43665 0.3023 0.0
H3042 H 0.52331 0.45734 0.31866 0.0
H3043 H 0.78438 0.48065 0.24364 0.0
H3044 H 0.27144 0.87178 0.61014 0.0
H3045 H 0.2965 0.87986 0.58147 0.0
H3046 H 0.2189 0.90846 0.55754 0.0
H3047 H 0.1937 0.89986 0.58592 0.0
H3048 H 0.24497 0.87622 0.53341 0.0
H3049 H 0.2782 0.95655 0.56545 0.0
H3050 H 0.30357 0.99163 0.58392 0.0
H3051 H 0.38266 0.95016 0.5728 0.0
H3052 H 0.3578 0.91478 0.55435 0.0
H3053 H 0.30269 0.91843 0.44694 0.0
H3054 H 0.27971 0.91228 0.47589 0.0
H3055 H 0.3614 0.91256 0.50165 0.0
H3056 H 0.3843 0.9206 0.47232 0.0
H3057 H 0.33361 0.93069 0.52535 0.0
H3058 H 0.2983 0.84755 0.49411 0.0
H3059 H 0.27193 0.81786 0.47259 0.0
H3060 H 0.19714 0.86799 0.48097 0.0
H3061 H 0.22303 0.8979 0.50254 0.0
C3062 C 0.25939 0.87988 0.59893 0.0
C3063 C 0.22971 0.88472 0.60119 0.0
C3064 C 0.27423 0.88515 0.58224 0.0
C3065 C 0.26065 0.89589 0.56655 0.0
C3066 C 0.23101 0.90055 0.56882 0.0
C3067 C 0.21621 0.89541 0.58547 0.0
C3068 C 0.27613 0.90023 0.54775 0.0
C3069 C 0.26435 0.8884 0.53194 0.0
C3070 C 0.30214 0.91554 0.54464 0.0
C3071 C 0.31597 0.93265 0.55877 0.0
C3072 C 0.30086 0.95439 0.56736 0.0
C3073 C 0.31525 0.97465 0.57757 0.0
C3074 C 0.34472 0.97325 0.57943 0.0
C3075 C 0.35986 0.95136 0.57128 0.0
C3076 C 0.34561 0.93114 0.56101 0.0
C3077 C 0.31612 0.91691 0.45863 0.0
C3078 C 0.34597 0.91982 0.45644 0.0
C3079 C 0.3026 0.91291 0.47572 0.0
C3080 C 0.31788 0.91057 0.49212 0.0
C3081 C 0.3479 0.91391 0.48995 0.0
C3082 C 0.36144 0.9186 0.47278 0.0
C3083 C 0.30301 0.90593 0.51114 0.0
C3084 C 0.31469 0.91789 0.52693 0.0
C3085 C 0.27702 0.89069 0.51429 0.0
C3086 C 0.26262 0.87498 0.49984 0.0
C3087 C 0.27636 0.85245 0.49115 0.0
C3088 C 0.26143 0.83547 0.47907 0.0
C3089 C 0.2328 0.84085 0.4756 0.0
C3090 C 0.21923 0.86369 0.4838 0.0
C3091 C 0.234 0.88065 0.49594 0.0
H3092 H 0.22114 0.82738 0.46648 0.0
H3093 H 0.35578 0.98896 0.58733 0.0
H3094 H 0.80189 0.6139 0.71984 0.0
H3095 H 0.80708 0.59072 0.74937 0.0
H3096 H 0.88702 0.5558 0.7327 0.0
H3097 H 0.88243 0.58008 0.70374 0.0
H3098 H 0.86221 0.51487 0.75171 0.0
H3099 H 0.8769 0.61279 0.76555 0.0
H3100 H 0.86513 0.66363 0.76706 0.0
H3101 H 0.79152 0.64458 0.79888 0.0
H3102 H 0.80259 0.59354 0.79732 0.0
H3103 H 0.90745 0.46141 0.83903 0.0
H3104 H 0.90235 0.48704 0.81033 0.0
H3105 H 0.82557 0.52563 0.82958 0.0
H3106 H 0.83089 0.50033 0.8582 0.0
H3107 H 0.84758 0.5647 0.80935 0.0
H3108 H 0.83053 0.46821 0.79537 0.0
H3109 H 0.84044 0.41692 0.79431 0.0
H3110 H 0.91535 0.43272 0.763 0.0
H3111 H 0.90613 0.48417 0.76409 0.0
C3112 C 0.82082 0.60156 0.72234 0.0
C3113 C 0.84144 0.59909 0.70844 0.0
C3114 C 0.82388 0.58797 0.73962 0.0
C3115 C 0.84766 0.57068 0.74423 0.0
C3116 C 0.86815 0.5683 0.73031 0.0
C3117 C 0.86534 0.58231 0.71325 0.0
C3118 C 0.85137 0.55531 0.76306 0.0
C3119 C 0.85931 0.52626 0.76418 0.0
C3120 C 0.84711 0.56865 0.78014 0.0
C3121 C 0.84037 0.59929 0.78111 0.0
C3122 C 0.85805 0.61941 0.77273 0.0
C3123 C 0.85153 0.64827 0.77361 0.0
C3124 C 0.82753 0.65732 0.78299 0.0
C3125 C 0.81006 0.63753 0.79157 0.0
C3126 C 0.81644 0.60862 0.79069 0.0
C3127 C 0.88944 0.47537 0.83734 0.0
C3128 C 0.86963 0.47799 0.85163 0.0
C3129 C 0.88625 0.49019 0.82049 0.0
C3130 C 0.86305 0.50874 0.8167 0.0
C3131 C 0.84376 0.51188 0.83123 0.0
C3132 C 0.84683 0.49696 0.84796 0.0
C3133 C 0.8587 0.52433 0.79798 0.0
C3134 C 0.85056 0.55335 0.79688 0.0
C3135 C 0.8624 0.51091 0.7809 0.0
C3136 C 0.86782 0.48005 0.77997 0.0
C3137 C 0.84921 0.46075 0.78834 0.0
C3138 C 0.85469 0.43166 0.78774 0.0
C3139 C 0.87854 0.42158 0.77864 0.0
C3140 C 0.89691 0.44057 0.77007 0.0
C3141 C 0.89157 0.4697 0.77066 0.0
H3142 H 0.88277 0.39905 0.7782 0.0
H3143 H 0.82253 0.67968 0.78366 0.0
H3144 H 0.80554 0.91535 0.19602 0.0
H3145 H 0.78276 0.91002 0.16709 0.0
H3146 H 0.8638 0.91694 0.14085 0.0
H3147 H 0.88671 0.92397 0.17038 0.0
H3148 H 0.83298 0.93329 0.11611 0.0
H3149 H 0.81227 0.84877 0.14694 0.0
H3150 H 0.79575 0.81516 0.17011 0.0
H3151 H 0.71196 0.85042 0.16716 0.0
H3152 H 0.72803 0.8844 0.14403 0.0
H3153 H 0.76725 0.87375 1.03352 0.0
H3154 H 0.79399 0.88134 1.06154 0.0
H3155 H 0.71711 0.90624 0.08817 0.0
H3156 H 0.69055 0.89934 1.06012 0.0
H3157 H 0.7479 0.87224 0.11154 0.0
H3158 H 0.77388 0.95337 0.07549 0.0
H3159 H 0.79444 0.97748 1.0491 0.0
H3160 H 0.87494 0.9383 1.05946 0.0
H3161 H 0.85473 0.91346 0.0857 0.0
C3162 C 0.81904 0.91544 0.18429 0.0
C3163 C 0.84874 0.91969 0.18654 0.0
C3164 C 0.8056 0.91198 0.16716 0.0
C3165 C 0.82067 0.91156 0.15057 0.0
C3166 C 0.85049 0.91655 0.15269 0.0
C3167 C 0.86401 0.92062 0.17001 0.0
C3168 C 0.80532 0.90638 0.13169 0.0
C3169 C 0.81459 0.91956 0.11542 0.0
C3170 C 0.78087 0.88846 0.12932 0.0
C3171 C 0.7714 0.86924 0.14387 0.0
C3172 C 0.79039 0.84953 0.15136 0.0
C3173 C 0.78108 0.83034 0.16442 0.0
C3174 C 0.75279 0.83055 0.17001 0.0
C3175 C 0.73383 0.85019 0.16273 0.0
C3176 C 0.74301 0.86942 0.14965 0.0
C3177 C 0.7557 0.88073 1.04526 0.0
C3178 C 0.7259 0.88542 1.0438 0.0
C3179 C 0.7714 0.88539 1.06165 0.0
C3180 C 0.75846 0.89469 0.07793 0.0
C3181 C 0.72865 0.89906 0.07647 0.0
C3182 C 0.71309 0.89498 1.06002 0.0
C3183 C 0.77525 0.8994 0.09622 0.0
C3184 C 0.76619 0.8861 0.11235 0.0
C3185 C 0.80051 0.9162 0.0982 0.0
C3186 C 0.81267 0.93127 0.08247 0.0
C3187 C 0.79589 0.94966 1.07206 0.0
C3188 C 0.8075 0.96349 1.05713 0.0
C3189 C 0.83595 0.95936 1.05258 0.0
C3190 C 0.85288 0.94143 1.06297 0.0
C3191 C 0.84136 0.92746 0.07787 0.0
H3192 H 0.84489 0.97009 1.04102 0.0
H3193 H 0.74557 0.81552 0.18003 0.0
H3194 H 0.3852 0.58153 0.94173 0.0
H3195 H 0.39046 0.55806 0.91272 0.0
H3196 H 0.30932 0.59048 0.89634 0.0
H3197 H 0.30388 0.61382 0.9258 0.0
H3198 H 0.31198 0.54009 0.88179 0.0
H3199 H 0.38074 0.61328 0.87838 0.0
H3200 H 0.42121 0.64195 0.88877 0.0
H3201 H 0.4745 0.56819 0.88823 0.0
H3202 H 0.4342 0.53898 0.87803 0.0
H3203 H 0.32723 0.4894 0.79025 0.0
H3204 H 0.32152 0.51487 0.81838 0.0
H3205 H 0.40819 0.49661 0.83205 0.0
H3206 H 0.41395 0.4712 0.80341 0.0
H3207 H 0.40243 0.54172 0.84801 0.0
H3208 H 0.33002 0.46827 0.86063 0.0
H3209 H 0.28644 0.43977 0.85779 0.0
H3210 H 0.23972 0.51414 0.84249 0.0
H3211 H 0.28287 0.54327 0.84618 0.0
C3212 C 0.36825 0.58399 0.93211 0.0
C3213 C 0.34406 0.60037 0.93694 0.0
C3214 C 0.37148 0.57042 0.91498 0.0
C3215 C 0.35071 0.57203 0.90116 0.0
C3216 C 0.32628 0.58824 0.906 0.0
C3217 C 0.32317 0.6021 0.92319 0.0
C3218 C 0.3543 0.5567 0.88228 0.0
C3219 C 0.33184 0.54107 0.87446 0.0
C3220 C 0.37999 0.55641 0.87189 0.0
C3221 C 0.40442 0.57391 0.87758 0.0
C3222 C 0.40107 0.60315 0.88054 0.0
C3223 C 0.42397 0.6195 0.8864 0.0
C3224 C 0.4504 0.60688 0.8892 0.0
C3225 C 0.454 0.57792 0.88607 0.0
C3226 C 0.43115 0.56146 0.88022 0.0
C3227 C 0.34527 0.4902 0.79918 0.0
C3228 C 0.37111 0.4771 0.79372 0.0
C3229 C 0.34181 0.50503 0.81592 0.0
C3230 C 0.36389 0.50801 0.82886 0.0
C3231 C 0.39004 0.49538 0.82323 0.0
C3232 C 0.39349 0.48046 0.80638 0.0
C3233 C 0.36007 0.52452 0.84747 0.0
C3234 C 0.38253 0.54061 0.85526 0.0
C3235 C 0.33433 0.52531 0.85791 0.0
C3236 C 0.30968 0.5077 0.85324 0.0
C3237 C 0.31054 0.47839 0.85633 0.0
C3238 C 0.28585 0.46223 0.85482 0.0
C3239 C 0.26035 0.47508 0.84976 0.0
C3240 C 0.25949 0.50418 0.84631 0.0
C3241 C 0.28399 0.52056 0.84826 0.0
H3242 H 0.24121 0.46254 0.84863 0.0
H3243 H 0.46809 0.61956 0.89376 0.0
H3244 H 0.70466 0.09938 0.69659 0.0
H3245 H 0.72784 0.10482 0.66778 0.0
H3246 H 0.65006 0.08279 0.64116 0.0
H3247 H 0.62673 0.07652 0.67073 0.0
H3248 H 0.68667 0.06579 0.61873 0.0
H3249 H 0.68695 0.15685 0.64392 0.0
H3250 H 0.69426 0.19545 0.66567 0.0
H3251 H 0.78386 0.17932 0.66553 0.0
H3252 H 0.77705 0.1403 0.644 0.0
H3253 H 0.74404 0.12984 0.53455 0.0
H3254 H 0.71816 0.12179 0.56273 0.0
H3255 H 0.7967 0.10339 0.58942 0.0
H3256 H 0.82258 0.11033 0.56093 0.0
H3257 H 0.7578 0.14212 0.61075 0.0
H3258 H 0.75272 0.05151 0.58179 0.0
H3259 H 0.74068 0.01791 0.55762 0.0
H3260 H 0.65273 0.04006 0.56252 0.0
H3261 H 0.66438 0.07418 0.58642 0.0
C3262 C 0.69186 0.09617 0.68482 0.0
C3263 C 0.66294 0.08821 0.68694 0.0
C3264 C 0.70554 0.09945 0.66777 0.0
C3265 C 0.69136 0.09556 0.65114 0.0
C3266 C 0.66248 0.08662 0.65311 0.0
C3267 C 0.64876 0.08298 0.6704 0.0
C3268 C 0.70682 0.10056 0.63236 0.0
C3269 C 0.70188 0.08286 0.61723 0.0
C3270 C 0.72726 0.12265 0.62912 0.0
C3271 C 0.73146 0.14551 0.64244 0.0
C3272 C 0.70819 0.16137 0.64865 0.0
C3273 C 0.71225 0.18335 0.66091 0.0
C3274 C 0.73953 0.18989 0.66691 0.0
C3275 C 0.76276 0.17427 0.66082 0.0
C3276 C 0.75882 0.15221 0.64859 0.0
C3277 C 0.75618 0.12404 0.54624 0.0
C3278 C 0.78617 0.12112 0.5446 0.0
C3279 C 0.74098 0.11927 0.56276 0.0
C3280 C 0.75465 0.11182 0.57911 0.0
C3281 C 0.78468 0.10917 0.5776 0.0
C3282 C 0.79981 0.11325 0.56093 0.0
C3283 C 0.73801 0.10712 0.59739 0.0
C3284 C 0.74267 0.125 0.61238 0.0
C3285 C 0.7166 0.0859 0.60022 0.0
C3286 C 0.70954 0.06569 0.58571 0.0
C3287 C 0.7309 0.04947 0.57752 0.0
C3288 C 0.72413 0.03028 0.56392 0.0
C3289 C 0.69598 0.02693 0.5585 0.0
C3290 C 0.67455 0.04273 0.56669 0.0
C3291 C 0.68124 0.06201 0.58026 0.0
H3292 H 0.69076 0.01202 0.548 0.0
H3293 H 0.74269 0.20712 0.67624 0.0
H3294 H 0.21029 0.39524 0.42639 0.0
H3295 H 0.20524 0.41863 0.39693 0.0
H3296 H 0.1219 0.44716 0.41183 0.0
H3297 H 0.1267 0.42305 0.44078 0.0
H3298 H 0.11589 0.4397 0.37873 0.0
H3299 H 0.19527 0.49099 0.40555 0.0
H3300 H 0.24352 0.49867 0.41744 0.0
H3301 H 0.27931 0.46072 0.37028 0.0
H3302 H 0.23133 0.4527 0.35816 0.0
H3303 H 0.09642 0.53604 0.30211 0.0
H3304 H 0.1013 0.51088 0.33086 0.0
H3305 H 0.18921 0.49478 0.31907 0.0
H3306 H 0.18449 0.52103 0.29099 0.0
H3307 H 0.19329 0.4948 0.35052 0.0
H3308 H 0.11958 0.44167 0.32292 0.0
H3309 H 0.07371 0.43247 0.30816 0.0
H3310 H 0.02962 0.46674 0.35363 0.0
H3311 H 0.07527 0.47646 0.36857 0.0
C3312 C 0.19069 0.40629 0.42353 0.0
C3313 C 0.1691 0.40675 0.43695 0.0
C3314 C 0.18782 0.42042 0.40631 0.0
C3315 C 0.16315 0.43619 0.40113 0.0
C3316 C 0.14148 0.43595 0.41448 0.0
C3317 C 0.14439 0.42197 0.4316 0.0
C3318 C 0.15937 0.45227 0.38232 0.0
C3319 C 0.13304 0.45198 0.37291 0.0
C3320 C 0.18114 0.46805 0.37315 0.0
C3321 C 0.20974 0.47112 0.38102 0.0
C3322 C 0.21343 0.48404 0.39782 0.0
C3323 C 0.24073 0.48859 0.40454 0.0
C3324 C 0.26444 0.48043 0.39453 0.0
C3325 C 0.26093 0.46721 0.37795 0.0
C3326 C 0.23371 0.46266 0.37115 0.0
C3327 C 0.1169 0.52714 0.30545 0.0
C3328 C 0.13996 0.53155 0.29338 0.0
C3329 C 0.1198 0.51199 0.32231 0.0
C3330 C 0.1458 0.49928 0.32826 0.0
C3331 C 0.16864 0.50366 0.31599 0.0
C3332 C 0.16584 0.51912 0.29938 0.0
C3333 C 0.14975 0.48238 0.34684 0.0
C3334 C 0.17608 0.48252 0.35624 0.0
C3335 C 0.12827 0.46569 0.35569 0.0
C3336 C 0.10083 0.46012 0.34675 0.0
C3337 C 0.1001 0.44742 0.32971 0.0
C3338 C 0.07414 0.44209 0.32132 0.0
C3339 C 0.04877 0.44911 0.32993 0.0
C3340 C 0.04929 0.46139 0.34696 0.0
C3341 C 0.0752 0.46682 0.3554 0.0
H3342 H 0.0287 0.44496 0.32341 0.0
H3343 H 0.28556 0.48425 0.39967 0.0
H3344 H 0.64006 0.63049 0.46451 0.0
H3345 H 0.66105 0.63601 0.49425 0.0
H3346 H 0.71092 0.56075 0.48586 0.0
H3347 H 0.68754 0.55398 0.4567 0.0
H3348 H 0.70887 0.55926 0.51792 0.0
H3349 H 0.73512 0.64902 0.4893 0.0
H3350 H 0.72664 0.69452 0.47374 0.0
H3351 H 0.66506 0.71751 0.51352 0.0
H3352 H 0.67405 0.67271 0.52977 0.0
H3353 H 0.81073 0.59422 0.58837 0.0
H3354 H 0.78469 0.58662 0.56046 0.0
H3355 H 0.7203 0.64442 0.5784 0.0
H3356 H 0.74577 0.65039 0.6071 0.0
H3357 H 0.72816 0.65441 0.54287 0.0
H3358 H 0.71344 0.56885 0.57492 0.0
H3359 H 0.72528 0.52479 0.59108 0.0
H3360 H 0.76636 0.49233 0.54405 0.0
H3361 H 0.75569 0.53658 0.52774 0.0
C3362 C 0.65541 0.6149 0.46891 0.0
C3363 C 0.66136 0.59154 0.45758 0.0
C3364 C 0.66831 0.61842 0.48626 0.0
C3365 C 0.68934 0.59962 0.4933 0.0
C3366 C 0.69524 0.5762 0.48178 0.0
C3367 C 0.6816 0.5722 0.46466 0.0
C3368 C 0.70455 0.60384 0.51225 0.0
C3369 C 0.7134 0.5803 0.52292 0.0
C3370 C 0.71058 0.63084 0.52033 0.0
C3371 C 0.70499 0.65749 0.51058 0.0
C3372 C 0.71971 0.66377 0.49466 0.0
C3373 C 0.71483 0.6894 0.48574 0.0
C3374 C 0.69499 0.70864 0.49244 0.0
C3375 C 0.68032 0.70253 0.50829 0.0
C3376 C 0.68547 0.67716 0.51745 0.0
C3377 C 0.79057 0.60459 0.58692 0.0
C3378 C 0.78067 0.62213 0.6011 0.0
C3379 C 0.77546 0.6005 0.57042 0.0
C3380 C 0.74945 0.61436 0.56649 0.0
C3381 C 0.73987 0.63284 0.58037 0.0
C3382 C 0.75478 0.63639 0.59715 0.0
C3383 C 0.73306 0.60994 0.54814 0.0
C3384 C 0.72387 0.63338 0.53771 0.0
C3385 C 0.72712 0.58282 0.54024 0.0
C3386 C 0.7339 0.55626 0.55011 0.0
C3387 C 0.72519 0.55245 0.56803 0.0
C3388 C 0.73166 0.52741 0.57723 0.0
C3389 C 0.74641 0.50574 0.56858 0.0
C3390 C 0.7549 0.50914 0.55074 0.0
C3391 C 0.74872 0.53425 0.54152 0.0
H3392 H 0.7513 0.48634 0.57571 0.0
H3393 H 0.69116 0.72839 0.48542 0.0
H3394 H 0.13696 0.94065 0.69997 0.0
H3395 H 0.12993 0.96294 0.72905 0.0
H3396 H 0.19716 0.91219 0.75122 0.0
H3397 H 0.20361 0.88909 0.72184 0.0
H3398 H 0.16754 0.91886 0.77815 0.0
H3399 H 0.19584 0.99708 0.74171 0.0
H3400 H 0.19693 0.03274 0.71743 0.0
H3401 H 0.10991 0.05382 0.72797 0.0
H3402 H 0.10841 0.01843 0.75242 0.0
H3403 H 0.17692 0.00798 0.85816 0.0
H3404 H 0.18331 0.98315 0.82962 0.0
H3405 H 0.10636 0.02057 0.80972 0.0
H3406 H 0.1002 0.04592 0.8384 0.0
H3407 H 0.14162 0.02027 0.78228 0.0
H3408 H 0.11902 0.94406 0.82289 0.0
H3409 H 0.12505 0.91379 0.84964 0.0
H3410 H 0.20883 0.89123 0.83218 0.0
H3411 H 0.20353 0.92179 0.80546 0.0
C3412 C 0.15065 0.93412 0.71083 0.0
C3413 C 0.1712 0.91263 0.70765 0.0
C3414 C 0.14671 0.94744 0.72795 0.0
C3415 C 0.16334 0.94078 0.74333 0.0
C3416 C 0.1836 0.91878 0.74027 0.0
C3417 C 0.1874 0.90521 0.72308 0.0
C3418 C 0.15922 0.95604 0.76217 0.0
C3419 C 0.16223 0.94117 0.77874 0.0
C3420 C 0.15187 0.98541 0.76426 0.0
C3421 C 0.15194 0.00497 0.74874 0.0
C3422 C 0.17686 0.00911 0.7387 0.0
C3423 C 0.17761 0.02942 0.72502 0.0
C3424 C 0.15353 0.04562 0.72123 0.0
C3425 C 0.12857 0.04134 0.73098 0.0
C3426 C 0.12777 0.02122 0.74477 0.0
C3427 C 0.16105 0.01104 0.84785 0.0
C3428 C 0.13786 0.02956 0.85133 0.0
C3429 C 0.16469 0.99632 0.83118 0.0
C3430 C 0.14534 0.99885 0.81665 0.0
C3431 C 0.12207 0.0174 0.8201 0.0
C3432 C 0.11832 0.03206 0.8369 0.0
C3433 C 0.14967 0.9831 0.7981 0.0
C3434 C 0.14674 0.9979 0.78162 0.0
C3435 C 0.15778 0.9539 0.79619 0.0
C3436 C 0.16096 0.93547 0.81223 0.0
C3437 C 0.13882 0.93283 0.82481 0.0
C3438 C 0.1421 0.9156 0.83997 0.0
C3439 C 0.16733 0.90065 0.84264 0.0
C3440 C 0.18932 0.90287 0.83012 0.0
C3441 C 0.18618 0.92014 0.81496 0.0
H3442 H 0.16983 0.88731 0.85438 0.0
H3443 H 0.15418 0.06146 0.71071 0.0
H3444 H 0.80645 0.41067 0.94956 0.0
H3445 H 0.78505 0.40402 0.97886 0.0
H3446 H 0.86651 0.415 1.00369 0.0
H3447 H 0.88855 0.42097 0.97366 0.0
H3448 H 0.83921 0.37655 1.02402 0.0
H3449 H 0.80437 0.46731 1.00395 0.0
H3450 H 0.78071 0.50041 0.9831 0.0
H3451 H 0.70494 0.44994 0.98514 0.0
H3452 H 0.72824 0.41641 1.00586 0.0
H3453 H 0.77406 0.37687 0.11364 0.0
H3454 H 0.7998 0.3832 0.08537 0.0
H3455 H 0.72104 0.39918 1.05807 0.0
H3456 H 0.69577 0.39454 0.08666 0.0
H3457 H 0.74947 0.42542 1.03886 0.0
H3458 H 0.78256 0.33323 1.05741 0.0
H3459 H 0.80557 0.29748 0.07675 0.0
H3460 H 0.88294 0.34552 0.07582 0.0
H3461 H 0.86032 0.38168 1.05667 0.0
C3462 C 0.82043 0.41139 0.961 0.0
C3463 C 0.85001 0.41609 0.95821 0.0
C3464 C 0.80764 0.40797 0.97833 0.0
C3465 C 0.82321 0.40926 0.99459 0.0
C3466 C 0.85298 0.41379 0.99199 0.0
C3467 C 0.86591 0.41736 0.97444 0.0
C3468 C 0.80842 0.40575 1.0137 0.0
C3469 C 0.81974 0.38767 1.02718 0.0
C3470 C 0.78217 0.419 1.01869 0.0
C3471 C 0.76813 0.43925 1.00634 0.0
C3472 C 0.78272 0.46321 0.99987 0.0
C3473 C 0.76936 0.48205 0.98809 0.0
C3474 C 0.74136 0.47725 0.98277 0.0
C3475 C 0.72663 0.45363 0.98926 0.0
C3476 C 0.73989 0.43473 1.00104 0.0
C3477 C 0.76197 0.38144 0.10164 0.0
C3478 C 0.73211 0.38475 0.10313 0.0
C3479 C 0.77707 0.38499 0.0849 0.0
C3480 C 0.76352 0.39137 1.06818 0.0
C3481 C 0.73349 0.3945 1.06989 0.0
C3482 C 0.71851 0.39158 0.08667 0.0
C3483 C 0.77978 0.39555 1.04944 0.0
C3484 C 0.7688 0.41396 1.03591 0.0
C3485 C 0.80605 0.38207 1.04429 0.0
C3486 C 0.81956 0.36043 1.05588 0.0
C3487 C 0.80441 0.33626 1.06145 0.0
C3488 C 0.8174 0.31592 0.07237 0.0
C3489 C 0.84565 0.3193 0.07759 0.0
C3490 C 0.86103 0.34296 1.07182 0.0
C3491 C 0.84814 0.36338 1.06093 0.0
H3492 H 0.85566 0.30354 0.08604 0.0
H3493 H 0.73107 0.49184 0.97364 0.0
H3494 H 0.32477 0.98159 0.35014 0.0
H3495 H 0.31935 0.00578 0.32129 0.0
H3496 H 0.4099 0.01105 0.31616 0.0
H3497 H 0.41541 0.98396 0.34441 0.0
H3498 H 0.37216 0.06764 0.30725 0.0
H3499 H 0.38449 0.96978 0.29029 0.0
H3500 H 0.37312 0.91878 0.28995 0.0
H3501 H 0.28907 0.93735 0.27127 0.0
H3502 H 0.29959 0.98853 0.27208 0.0
H3503 H 0.34654 0.14024 0.22121 0.0
H3504 H 0.35488 0.11914 0.24999 0.0
H3505 H 0.33444 0.03675 0.22814 0.0
H3506 H 0.32745 0.05869 0.19928 0.0
H3507 H 0.33738 0.01739 0.25363 0.0
H3508 H 0.3188 0.11138 0.28529 0.0
H3509 H 0.32505 0.16319 0.28824 0.0
H3510 H 0.41487 0.15392 0.28053 0.0
H3511 H 0.40903 0.10208 0.27743 0.0
C3512 C 0.34385 0.98688 0.34285 0.0
C3513 C 0.37068 0.97946 0.35031 0.0
C3514 C 0.34059 1.00152 0.32607 0.0
C3515 C 0.36398 0.01099 0.3157 0.0
C3516 C 0.39098 0.00452 0.32331 0.0
C3517 C 0.39422 0.98889 0.33989 0.0
C3518 C 0.35998 0.02695 0.29721 0.0
C3519 C 0.36494 0.05641 0.29542 0.0
C3520 C 0.34941 0.01377 0.28135 0.0
C3521 C 0.34277 0.98305 0.28142 0.0
C3522 C 0.36343 0.96304 0.2864 0.0
C3523 C 0.35716 0.93408 0.28607 0.0
C3524 C 0.33043 0.92484 0.28055 0.0
C3525 C 0.3098 0.94455 0.27551 0.0
C3526 C 0.31587 0.97354 0.27597 0.0
C3527 C 0.34336 0.1176 0.2226 0.0
C3528 C 0.33578 0.10182 0.20724 0.0
C3529 C 0.34821 0.10464 0.23987 0.0
C3530 C 0.34511 0.07476 0.2435 0.0
C3531 C 0.33722 0.0594 0.22769 0.0
C3532 C 0.33306 0.07229 0.2104 0.0
C3533 C 0.35013 0.05925 0.26264 0.0
C3534 C 0.34507 0.02945 0.26487 0.0
C3535 C 0.35977 0.07234 0.27913 0.0
C3536 C 0.36343 0.10314 0.28081 0.0
C3537 C 0.33983 0.12049 0.28421 0.0
C3538 C 0.3433 0.1498 0.28588 0.0
C3539 C 0.37033 0.16184 0.28448 0.0
C3540 C 0.39395 0.14458 0.2815 0.0
C3541 C 0.39059 0.11526 0.27976 0.0
H3542 H 0.37297 0.18453 0.28576 0.0
H3543 H 0.32568 0.9024 0.28018 0.0
H3544 H 0.36392 0.45997 0.67612 0.0
H3545 H 0.34066 0.45461 0.64674 0.0
H3546 H 0.31007 0.37237 0.66263 0.0
H3547 H 0.33462 0.37721 0.69133 0.0
H3548 H 0.31678 0.36535 0.62989 0.0
H3549 H 0.26871 0.44668 0.65592 0.0
H3550 H 0.26754 0.49474 0.66891 0.0
H3551 H 0.30624 0.52853 0.62123 0.0
H3552 H 0.30793 0.48066 0.60804 0.0
H3553 H 0.21875 0.34608 0.55473 0.0
H3554 H 0.24384 0.35208 0.58339 0.0
H3555 H 0.26809 0.43648 0.5677 0.0
H3556 H 0.24314 0.43035 0.53919 0.0
H3557 H 0.26489 0.44358 0.60025 0.0
H3558 H 0.31961 0.36794 0.57557 0.0
H3559 H 0.33082 0.32154 0.56219 0.0
H3560 H 0.28664 0.27937 0.60508 0.0
H3561 H 0.2759 0.3256 0.61899 0.0
C3562 C 0.35245 0.44055 0.67348 0.0
C3563 C 0.35155 0.41927 0.6871 0.0
C3564 C 0.33835 0.43752 0.65633 0.0
C3565 C 0.32193 0.41313 0.65149 0.0
C3566 C 0.32173 0.39176 0.66502 0.0
C3567 C 0.33591 0.39472 0.68201 0.0
C3568 C 0.30564 0.40928 0.63281 0.0
C3569 C 0.3051 0.38268 0.62383 0.0
C3570 C 0.29057 0.43124 0.62337 0.0
C3571 C 0.28864 0.46007 0.63106 0.0
C3572 C 0.27697 0.46437 0.64822 0.0
C3573 C 0.27625 0.49157 0.65562 0.0
C3574 C 0.28689 0.51465 0.64592 0.0
C3575 C 0.29805 0.51062 0.62874 0.0
C3576 C 0.29887 0.48348 0.62128 0.0
C3577 C 0.22958 0.36594 0.55711 0.0
C3578 C 0.22796 0.38759 0.54377 0.0
C3579 C 0.24453 0.3695 0.57395 0.0
C3580 C 0.25926 0.39494 0.57882 0.0
C3581 C 0.25753 0.41645 0.56539 0.0
C3582 C 0.24275 0.41285 0.54861 0.0
C3583 C 0.27572 0.39943 0.59743 0.0
C3584 C 0.27631 0.42616 0.60639 0.0
C3585 C 0.2914 0.37779 0.60672 0.0
C3586 C 0.29659 0.35014 0.59813 0.0
C3587 C 0.3121 0.34876 0.58205 0.0
C3588 C 0.31853 0.3225 0.57445 0.0
C3589 C 0.30919 0.29752 0.58267 0.0
C3590 C 0.29373 0.29874 0.59867 0.0
C3591 C 0.28763 0.32494 0.60648 0.0
H3592 H 0.31404 0.27722 0.57669 0.0
H3593 H 0.28652 0.53565 0.65169 0.0
H3594 H 0.79862 0.11153 0.42521 0.0
H3595 H 0.80467 0.08908 0.3957 0.0
H3596 H 0.88646 0.05789 0.41193 0.0
H3597 H 0.8811 0.08183 0.44078 0.0
H3598 H 0.894 0.06559 0.37934 0.0
H3599 H 0.81316 0.0167 0.40507 0.0
H3600 H 0.76533 0.01504 0.41851 0.0
H3601 H 0.73056 0.05442 0.37141 0.0
H3602 H 0.77825 0.05659 0.35776 0.0
H3603 H 0.91266 0.96787 0.30399 0.0
H3604 H 0.90688 0.99261 0.33282 0.0
H3605 H 0.82377 0.02017 0.31672 0.0
H3606 H 0.82964 0.99564 0.28813 0.0
H3607 H 0.81591 0.0143 0.34928 0.0
H3608 H 0.89265 0.06982 0.32529 0.0
H3609 H 0.93956 0.08129 0.31247 0.0
H3610 H 0.9802 0.03486 0.35487 0.0
H3611 H 0.93349 0.02401 0.3683 0.0
C3612 C 0.81809 0.10012 0.42261 0.0
C3613 C 0.83904 0.09875 0.4363 0.0
C3614 C 0.8215 0.0865 0.40541 0.0
C3615 C 0.84594 0.07016 0.4007 0.0
C3616 C 0.86707 0.06956 0.4143 0.0
C3617 C 0.86378 0.08335 0.43134 0.0
C3618 C 0.85 0.0543 0.38205 0.0
C3619 C 0.87672 0.05403 0.37317 0.0
C3620 C 0.82808 0.03938 0.37259 0.0
C3621 C 0.79929 0.03696 0.38044 0.0
C3622 C 0.7953 0.02497 0.39757 0.0
C3623 C 0.76823 0.02399 0.40524 0.0
C3624 C 0.74493 0.03467 0.39583 0.0
C3625 C 0.74863 0.04617 0.37868 0.0
C3626 C 0.77567 0.04724 0.37096 0.0
C3627 C 0.89317 0.97939 0.30634 0.0
C3628 C 0.87173 0.97887 0.29292 0.0
C3629 C 0.88975 0.99406 0.32323 0.0
C3630 C 0.86467 0.00945 0.32799 0.0
C3631 C 0.84346 0.00896 0.31444 0.0
C3632 C 0.84695 0.99452 0.29761 0.0
C3633 C 0.86011 0.02534 0.34664 0.0
C3634 C 0.83327 0.02563 0.35552 0.0
C3635 C 0.88178 0.04067 0.35602 0.0
C3636 C 0.90967 0.04573 0.3476 0.0
C3637 C 0.91161 0.06185 0.33176 0.0
C3638 C 0.93814 0.06839 0.32446 0.0
C3639 C 0.96283 0.05848 0.33271 0.0
C3640 C 0.96105 0.04236 0.34843 0.0
C3641 C 0.93458 0.03619 0.35597 0.0
H3642 H 0.98335 0.06346 0.32697 0.0
H3643 H 0.72401 0.03401 0.40182 0.0
H3644 H 0.1569 0.54758 0.17771 0.0
H3645 H 0.17929 0.55274 0.14807 0.0
H3646 H 0.20018 0.63934 0.16026 0.0
H3647 H 0.17609 0.63451 0.18929 0.0
H3648 H 0.19251 0.6419 0.12727 0.0
H3649 H 0.24983 0.57087 0.157 0.0
H3650 H 0.25794 0.52533 0.17251 0.0
H3651 H 0.22448 0.4804 0.1272 0.0
H3652 H 0.21583 0.5257 0.11151 0.0
H3653 H 0.28999 0.6625 1.05193 0.0
H3654 H 0.2656 0.65698 0.08091 0.0
H3655 H 0.24659 0.57022 1.06808 0.0
H3656 H 0.27074 0.57591 1.03915 0.0
H3657 H 0.25302 0.56687 0.10123 0.0
H3658 H 0.19307 0.63382 1.07213 0.0
H3659 H 0.17869 0.67746 1.05631 0.0
H3660 H 0.21256 0.72786 0.09913 0.0
H3661 H 0.22695 0.68442 0.11528 0.0
C3662 C 0.1661 0.56789 0.17421 0.0
C3663 C 0.16463 0.59037 0.18686 0.0
C3664 C 0.17966 0.57084 0.15693 0.0
C3665 C 0.19311 0.59642 0.15105 0.0
C3666 C 0.19088 0.61901 0.1636 0.0
C3667 C 0.17713 0.6161 0.18075 0.0
C3668 C 0.20876 0.60003 0.13223 0.0
C3669 C 0.2061 0.62539 0.12198 0.0
C3670 C 0.22626 0.57888 0.12388 0.0
C3671 C 0.23199 0.55168 0.13314 0.0
C3672 C 0.24414 0.55128 0.15037 0.0
C3673 C 0.24881 0.52551 0.1592 0.0
C3674 C 0.24168 0.49999 0.15086 0.0
C3675 C 0.22997 0.50018 0.13364 0.0
C3676 C 0.22519 0.52589 0.12477 0.0
C3677 C 0.28022 0.64231 1.05493 0.0
C3678 C 0.28263 0.61999 1.04222 0.0
C3679 C 0.26588 0.63899 1.07196 0.0
C3680 C 0.25288 0.61305 0.07764 0.0
C3681 C 0.25574 0.59071 1.06497 0.0
C3682 C 0.26989 0.59408 1.04796 0.0
C3683 C 0.23707 0.60896 0.09639 0.0
C3684 C 0.23964 0.58349 0.10659 0.0
C3685 C 0.21914 0.62982 0.10461 0.0
C3686 C 0.21141 0.65594 0.09477 0.0
C3687 C 0.19765 0.65423 0.07809 0.0
C3688 C 0.18937 0.67891 1.06912 0.0
C3689 C 0.19484 0.70543 0.07666 0.0
C3690 C 0.20843 0.7073 0.09327 0.0
C3691 C 0.21656 0.68267 0.10237 0.0
H3692 H 0.1885 0.72452 1.06966 0.0
H3693 H 0.24527 0.48007 0.15772 0.0
H3694 H 0.62669 0.92824 0.9415 0.0
H3695 H 0.62126 0.95288 0.91295 0.0
H3696 H 0.7029 0.92198 0.89609 0.0
H3697 H 0.70934 0.89949 0.92568 0.0
H3698 H 0.70083 0.96724 0.87994 0.0
H3699 H 0.62459 0.90037 0.87951 0.0
H3700 H 0.5823 0.87631 0.8918 0.0
H3701 H 0.53745 0.95548 0.89271 0.0
H3702 H 0.57959 0.98004 0.88057 0.0
H3703 H 0.68259 0.01423 0.78791 0.0
H3704 H 0.68791 0.98896 0.81619 0.0
H3705 H 0.60592 0.01856 0.83315 0.0
H3706 H 0.60027 0.04344 0.80421 0.0
H3707 H 0.6081 0.97277 0.84912 0.0
H3708 H 0.69129 0.03802 0.86121 0.0
H3709 H 0.73776 0.06053 0.85611 0.0
H3710 H 0.76987 0.98301 0.83385 0.0
H3711 H 0.72399 0.95955 0.84007 0.0
C3712 C 0.64393 0.92695 0.932 0.0
C3713 C 0.66877 0.91172 0.93683 0.0
C3714 C 0.64044 0.94077 0.91498 0.0
C3715 C 0.66111 0.93954 0.90105 0.0
C3716 C 0.68598 0.92401 0.90583 0.0
C3717 C 0.68968 0.91059 0.92308 0.0
C3718 C 0.65721 0.95458 0.88212 0.0
C3719 C 0.6804 0.96776 0.8733 0.0
C3720 C 0.63087 0.95682 0.87253 0.0
C3721 C 0.60526 0.94205 0.87925 0.0
C3722 C 0.6057 0.91263 0.88234 0.0
C3723 C 0.58178 0.89892 0.8893 0.0
C3724 C 0.55723 0.91437 0.89307 0.0
C3725 C 0.55649 0.94354 0.88979 0.0
C3726 C 0.58036 0.95736 0.88284 0.0
C3727 C 0.66554 0.01588 0.79759 0.0
C3728 C 0.641 0.03189 0.79302 0.0
C3729 C 0.66887 1.0013 0.8144 0.0
C3730 C 0.64805 1.00172 0.82826 0.0
C3731 C 0.62308 0.01723 0.82353 0.0
C3732 C 0.61969 0.03181 0.80657 0.0
C3733 C 0.65181 0.98565 0.84695 0.0
C3734 C 0.62854 0.97218 0.85573 0.0
C3735 C 0.67815 0.98282 0.85649 0.0
C3736 C 0.70408 0.99742 0.85051 0.0
C3737 C 0.70813 0.026 0.85491 0.0
C3738 C 0.73448 0.03877 0.85207 0.0
C3739 C 0.75664 0.0234 0.8443 0.0
C3740 C 0.75262 0.995 0.83969 0.0
C3741 C 0.72657 0.98185 0.84307 0.0
H3742 H 0.77698 0.03343 0.842 0.0
H3743 H 0.53876 0.90373 0.89851 0.0
loop_
_geom_bond_atom_site_label_1
_geom_bond_atom_site_label_2
_geom_bond_distance
_geom_bond_site_symmetry_2
_ccdc_geom_bond_type
C0 C2 1.422 . S
C0 C4 1.415 . S
C0 N6 1.369 . S
C1 C2 1.421 . S
C1 C3 1.417 . S
C1 C13 1.422 . S
C2 C0 1.422 . S
C2 C1 1.421 . S
C2 N12 1.359 . S
C3 C1 1.417 . S
C3 C5 1.329 . S
C3 H22 0.930 . S
C4 C0 1.415 . S
C4 C5 1.437 . S
C4 C8 1.413 . S
C5 C3 1.329 . S
C5 C4 1.437 . S
C5 H27 0.929 . S
N6 C0 1.369 . S
N6 C7 1.338 . S
N6 Gd11 2.622 . S
C7 N6 1.338 . S
C7 C9 1.378 . S
C7 H19 0.929 . S
C8 C4 1.413 . S
C8 C9 1.348 . S
C8 H24 0.931 . S
C9 C7 1.378 . S
C9 C8 1.348 . S
C9 H25 0.930 . S
Gd10 N30 2.622 . S
Gd10 N37 2.570 . S
Gd10 O44 2.353 . S
Gd10 O45 2.468 . S
Gd10 O46 2.427 . S
Gd10 O48 2.388 . S
Gd10 O49 2.386 . S
Gd10 O53 2.307 . S
Gd10 C63 2.805 . S
Gd11 N6 2.622 . S
Gd11 N12 2.570 . S
Gd11 O43 2.386 . S
Gd11 O47 2.307 . S
Gd11 O50 2.353 . S
Gd11 O51 2.468 . S
Gd11 O52 2.427 . S
Gd11 O54 2.388 . S
Gd11 C75 2.805 . S
N12 C2 1.359 . S
N12 Gd11 2.570 . S
N12 C14 1.343 . S
C13 C1 1.422 . S
C13 C15 1.321 . S
C13 H21 0.931 . S
C14 N12 1.343 . S
C14 C15 1.390 . S
C14 H16 0.931 . S
C15 C13 1.321 . S
C15 C14 1.390 . S
C15 H17 0.930 . S
H16 C14 0.931 . S
H17 C15 0.930 . S
H18 C41 0.931 . S
H19 C7 0.929 . S
H20 C42 0.930 . S
H21 C13 0.931 . S
H22 C3 0.930 . S
H23 C32 0.929 . S
H24 C8 0.931 . S
H25 C9 0.930 . S
H26 C64 0.930 . S
H27 C5 0.929 . S
H28 C33 0.931 . S
H29 C34 0.930 . S
N30 Gd10 2.622 . S
N30 C31 1.369 . S
N30 C32 1.338 . S
C31 N30 1.369 . S
C31 C35 1.415 . S
C31 C38 1.422 . S
C32 H23 0.929 . S
C32 N30 1.338 . S
C32 C34 1.378 . S
C33 H28 0.931 . S
C33 C34 1.348 . S
C33 C35 1.413 . S
C34 H29 0.930 . S
C34 C32 1.378 . S
C34 C33 1.348 . S
C35 C31 1.415 . S
C35 C33 1.413 . S
C35 C65 1.437 . S
H36 C65 0.929 . S
N37 Gd10 2.570 . S
N37 C38 1.359 . S
N37 C41 1.343 . S
C38 C31 1.422 . S
C38 N37 1.359 . S
C38 C40 1.421 . S
C39 C40 1.422 . S
C39 C42 1.321 . S
C39 H66 0.931 . S
C40 C38 1.421 . S
C40 C39 1.422 . S
C40 C64 1.417 . S
C41 H18 0.931 . S
C41 N37 1.343 . S
C41 C42 1.390 . S
C42 H20 0.930 . S
C42 C39 1.321 . S
C42 C41 1.390 . S
O43 Gd11 2.386 . S
O43 C55 1.265 . S
O44 Gd10 2.353 . S
O44 C55 1.242 . S
O45 Gd10 2.468 . S
O45 C63 1.263 . S
O46 Gd10 2.427 . S
O46 C63 1.252 . S
O47 Gd11 2.307 . S
O47 C56 1.261 . S
O48 Gd10 2.388 . S
O48 C56 1.252 . S
O49 Gd10 2.386 . S
O49 C67 1.265 . S
O50 Gd11 2.353 . S
O50 C67 1.242 . S
O51 Gd11 2.468 . S
O51 C75 1.263 . S
O52 Gd11 2.427 . S
O52 C75 1.252 . S
O53 Gd10 2.307 . S
O53 C68 1.261 . S
O54 Gd11 2.388 . S
O54 C68 1.252 . S
C55 O43 1.265 . S
C55 O44 1.242 . S
C56 O47 1.261 . S
C56 O48 1.252 . S
C57 C60 1.394 . S
C57 C62 1.370 . S
C57 C63 1.500 . S
C58 C61 1.383 . S
C58 C62 1.395 . S
C59 C60 1.396 . S
C59 C61 1.365 . S
C59 H76 0.929 1_545 S
C60 C57 1.394 . S
C60 C59 1.396 . S
C60 H77 0.930 . S
C61 C58 1.383 . S
C61 C59 1.365 . S
C61 H78 0.931 1_545 S
C62 C57 1.370 . S
C62 C58 1.395 . S
C62 H79 0.930 . S
C63 Gd10 2.805 . S
C63 O45 1.263 . S
C63 O46 1.252 . S
C63 C57 1.500 . S
C64 H26 0.930 . S
C64 C40 1.417 . S
C64 C65 1.329 . S
C65 C35 1.437 . S
C65 H36 0.929 . S
C65 C64 1.329 . S
H66 C39 0.931 . S
C67 O49 1.265 . S
C67 O50 1.242 . S
C68 O53 1.261 . S
C68 O54 1.252 . S
C69 C72 1.394 . S
C69 C74 1.370 . S
C69 C75 1.500 . S
C70 C73 1.383 . S
C70 C74 1.395 . S
C71 C72 1.396 . S
C71 C73 1.365 . S
C71 H80 0.929 . S
C72 C69 1.394 . S
C72 C71 1.396 . S
C72 H81 0.930 . S
C73 C70 1.383 . S
C73 C71 1.365 . S
C73 H82 0.931 . S
C74 C69 1.370 . S
C74 C70 1.395 . S
C74 H83 0.930 . S
C75 Gd11 2.805 . S
C75 O51 1.263 . S
C75 O52 1.252 . S
C75 C69 1.500 . S
H76 C59 0.929 1_565 S
H77 C60 0.930 . S
H78 C61 0.931 1_565 S
H79 C62 0.930 . S
H80 C71 0.929 . S
H81 C72 0.930 . S
H82 C73 0.931 . S
H83 C74 0.930 . S
C84 C86 1.422 . S
C84 C88 1.415 . S
C84 N90 1.369 . S
C85 C86 1.421 . S
C85 C87 1.417 . S
C85 C97 1.422 . S
C86 C84 1.422 . S
C86 C85 1.421 . S
C86 N96 1.359 . S
C87 C85 1.417 . S
C87 C89 1.329 . S
C87 H106 0.930 . S
C88 C84 1.415 . S
C88 C89 1.437 . S
C88 C92 1.413 . S
C89 C87 1.329 . S
C89 C88 1.437 . S
C89 H111 0.929 . S
N90 C84 1.369 . S
N90 C91 1.338 . S
N90 Gd95 2.622 . S
C91 N90 1.338 . S
C91 C93 1.378 . S
C91 H103 0.929 . S
C92 C88 1.413 . S
C92 C93 1.348 . S
C92 H108 0.931 . S
C93 C91 1.378 . S
C93 C92 1.348 . S
C93 H109 0.930 . S
Gd94 N114 2.622 . S
Gd94 N121 2.570 . S
Gd94 O128 2.353 . S
Gd94 O129 2.468 . S
Gd94 O130 2.427 . S
Gd94 O132 2.388 . S
Gd94 O133 2.386 . S
Gd94 O137 2.307 . S
Gd94 C147 2.805 . S
Gd95 N90 2.622 . S
Gd95 N96 2.570 . S
Gd95 O127 2.386 . S
Gd95 O131 2.307 . S
Gd95 O134 2.353 . S
Gd95 O135 2.468 . S
Gd95 O136 2.427 . S
Gd95 O138 2.388 . S
Gd95 C159 2.805 . S
N96 C86 1.359 . S
N96 Gd95 2.570 . S
N96 C98 1.343 . S
C97 C85 1.422 . S
C97 C99 1.321 . S
C97 H105 0.931 . S
C98 N96 1.343 . S
C98 C99 1.390 . S
C98 H100 0.931 . S
C99 C97 1.321 . S
C99 C98 1.390 . S
C99 H101 0.930 . S
H100 C98 0.931 . S
H101 C99 0.930 . S
H102 C125 0.931 . S
H103 C91 0.929 . S
H104 C126 0.930 . S
H105 C97 0.931 . S
H106 C87 0.930 . S
H107 C116 0.929 . S
H108 C92 0.931 . S
H109 C93 0.930 . S
H110 C148 0.930 . S
H111 C89 0.929 . S
H112 C117 0.931 . S
H113 C118 0.930 . S
N114 Gd94 2.622 . S
N114 C115 1.369 . S
N114 C116 1.338 . S
C115 N114 1.369 . S
C115 C119 1.415 . S
C115 C122 1.422 . S
C116 H107 0.929 . S
C116 N114 1.338 . S
C116 C118 1.378 . S
C117 H112 0.931 . S
C117 C118 1.348 . S
C117 C119 1.413 . S
C118 H113 0.930 . S
C118 C116 1.378 . S
C118 C117 1.348 . S
C119 C115 1.415 . S
C119 C117 1.413 . S
C119 C149 1.437 . S
H120 C149 0.929 . S
N121 Gd94 2.570 . S
N121 C122 1.359 . S
N121 C125 1.343 . S
C122 C115 1.422 . S
C122 N121 1.359 . S
C122 C124 1.421 . S
C123 C124 1.422 . S
C123 C126 1.321 . S
C123 H150 0.931 . S
C124 C122 1.421 . S
C124 C123 1.422 . S
C124 C148 1.417 . S
C125 H102 0.931 . S
C125 N121 1.343 . S
C125 C126 1.390 . S
C126 H104 0.930 . S
C126 C123 1.321 . S
C126 C125 1.390 . S
O127 Gd95 2.386 . S
O127 C139 1.265 . S
O128 Gd94 2.353 . S
O128 C139 1.242 . S
O129 Gd94 2.468 . S
O129 C147 1.263 . S
O130 Gd94 2.427 . S
O130 C147 1.252 . S
O131 Gd95 2.307 . S
O131 C140 1.261 . S
O132 Gd94 2.388 . S
O132 C140 1.252 . S
O133 Gd94 2.386 . S
O133 C151 1.265 . S
O134 Gd95 2.353 . S
O134 C151 1.242 . S
O135 Gd95 2.468 . S
O135 C159 1.263 . S
O136 Gd95 2.427 . S
O136 C159 1.252 . S
O137 Gd94 2.307 . S
O137 C152 1.261 . S
O138 Gd95 2.388 . S
O138 C152 1.252 . S
C139 O127 1.265 . S
C139 O128 1.242 . S
C140 O131 1.261 . S
C140 O132 1.252 . S
C141 C144 1.394 . S
C141 C146 1.370 . S
C141 C147 1.500 . S
C142 C145 1.383 . S
C142 C146 1.395 . S
C143 C144 1.396 . S
C143 C145 1.365 . S
C143 H160 0.929 . S
C144 C141 1.394 . S
C144 C143 1.396 . S
C144 H161 0.930 . S
C145 C142 1.383 . S
C145 C143 1.365 . S
C145 H162 0.931 . S
C146 C141 1.370 . S
C146 C142 1.395 . S
C146 H163 0.930 . S
C147 Gd94 2.805 . S
C147 O129 1.263 . S
C147 O130 1.252 . S
C147 C141 1.500 . S
C148 H110 0.930 . S
C148 C124 1.417 . S
C148 C149 1.329 . S
C149 C119 1.437 . S
C149 H120 0.929 . S
C149 C148 1.329 . S
H150 C123 0.931 . S
C151 O133 1.265 . S
C151 O134 1.242 . S
C152 O137 1.261 . S
C152 O138 1.252 . S
C153 C156 1.394 . S
C153 C158 1.370 . S
C153 C159 1.500 . S
C154 C157 1.383 . S
C154 C158 1.395 . S
C155 C156 1.396 . S
C155 C157 1.365 . S
C155 H164 0.929 . S
C156 C153 1.394 . S
C156 C155 1.396 . S
C156 H165 0.930 . S
C157 C154 1.383 . S
C157 C155 1.365 . S
C157 H166 0.931 . S
C158 C153 1.370 . S
C158 C154 1.395 . S
C158 H167 0.930 . S
C159 Gd95 2.805 . S
C159 O135 1.263 . S
C159 O136 1.252 . S
C159 C153 1.500 . S
H160 C143 0.929 . S
H161 C144 0.930 . S
H162 C145 0.931 . S
H163 C146 0.930 . S
H164 C155 0.929 . S
H165 C156 0.930 . S
H166 C157 0.931 . S
H167 C158 0.930 . S
C168 C170 1.422 . S
C168 C172 1.415 . S
C168 N174 1.369 . S
C169 C170 1.421 . S
C169 C171 1.417 . S
C169 C181 1.422 . S
C170 C168 1.422 . S
C170 C169 1.421 . S
C170 N180 1.359 . S
C171 C169 1.417 . S
C171 C173 1.329 . S
C171 H190 0.930 . S
C172 C168 1.415 . S
C172 C173 1.437 . S
C172 C176 1.413 . S
C173 C171 1.329 . S
C173 C172 1.437 . S
C173 H195 0.929 . S
N174 C168 1.369 . S
N174 C175 1.338 . S
N174 Gd179 2.622 . S
C175 N174 1.338 . S
C175 C177 1.378 . S
C175 H187 0.929 . S
C176 C172 1.413 . S
C176 C177 1.348 . S
C176 H192 0.931 . S
C177 C175 1.378 . S
C177 C176 1.348 . S
C177 H193 0.930 . S
Gd178 N198 2.622 . S
Gd178 N205 2.570 . S
Gd178 O212 2.353 . S
Gd178 O213 2.468 . S
Gd178 O214 2.427 . S
Gd178 O216 2.388 . S
Gd178 O217 2.386 . S
Gd178 O221 2.307 . S
Gd178 C231 2.805 . S
Gd179 N174 2.622 . S
Gd179 N180 2.570 . S
Gd179 O211 2.386 . S
Gd179 O215 2.307 . S
Gd179 O218 2.353 . S
Gd179 O219 2.468 . S
Gd179 O220 2.427 . S
Gd179 O222 2.388 . S
Gd179 C243 2.805 . S
N180 C170 1.359 . S
N180 Gd179 2.570 . S
N180 C182 1.343 . S
C181 C169 1.422 . S
C181 C183 1.321 . S
C181 H189 0.931 . S
C182 N180 1.343 . S
C182 C183 1.390 . S
C182 H184 0.931 . S
C183 C181 1.321 . S
C183 C182 1.390 . S
C183 H185 0.930 . S
H184 C182 0.931 . S
H185 C183 0.930 . S
H186 C209 0.931 . S
H187 C175 0.929 . S
H188 C210 0.930 . S
H189 C181 0.931 . S
H190 C171 0.930 . S
H191 C200 0.929 . S
H192 C176 0.931 . S
H193 C177 0.930 . S
H194 C232 0.930 . S
H195 C173 0.929 . S
H196 C201 0.931 . S
H197 C202 0.930 . S
N198 Gd178 2.622 . S
N198 C199 1.369 . S
N198 C200 1.338 . S
C199 N198 1.369 . S
C199 C203 1.415 . S
C199 C206 1.422 . S
C200 H191 0.929 . S
C200 N198 1.338 . S
C200 C202 1.378 . S
C201 H196 0.931 . S
C201 C202 1.348 . S
C201 C203 1.413 . S
C202 H197 0.930 . S
C202 C200 1.378 . S
C202 C201 1.348 . S
C203 C199 1.415 . S
C203 C201 1.413 . S
C203 C233 1.437 . S
H204 C233 0.929 . S
N205 Gd178 2.570 . S
N205 C206 1.359 . S
N205 C209 1.343 . S
C206 C199 1.422 . S
C206 N205 1.359 . S
C206 C208 1.421 . S
C207 C208 1.422 . S
C207 C210 1.321 . S
C207 H234 0.931 . S
C208 C206 1.421 . S
C208 C207 1.422 . S
C208 C232 1.417 . S
C209 H186 0.931 . S
C209 N205 1.343 . S
C209 C210 1.390 . S
C210 H188 0.930 . S
C210 C207 1.321 . S
C210 C209 1.390 . S
O211 Gd179 2.386 . S
O211 C223 1.265 . S
O212 Gd178 2.353 . S
O212 C223 1.242 . S
O213 Gd178 2.468 . S
O213 C231 1.263 . S
O214 Gd178 2.427 . S
O214 C231 1.252 . S
O215 Gd179 2.307 . S
O215 C224 1.261 . S
O216 Gd178 2.388 . S
O216 C224 1.252 . S
O217 Gd178 2.386 . S
O217 C235 1.265 . S
O218 Gd179 2.353 . S
O218 C235 1.242 . S
O219 Gd179 2.468 . S
O219 C243 1.263 . S
O220 Gd179 2.427 . S
O220 C243 1.252 . S
O221 Gd178 2.307 . S
O221 C236 1.261 . S
O222 Gd179 2.388 . S
O222 C236 1.252 . S
C223 O211 1.265 . S
C223 O212 1.242 . S
C224 O215 1.261 . S
C224 O216 1.252 . S
C225 C228 1.394 . S
C225 C230 1.370 . S
C225 C231 1.500 . S
C226 C229 1.383 . S
C226 C230 1.395 . S
C227 C228 1.396 . S
C227 C229 1.365 . S
C227 H244 0.929 1_565 S
C228 C225 1.394 . S
C228 C227 1.396 . S
C228 H245 0.930 . S
C229 C226 1.383 . S
C229 C227 1.365 . S
C229 H246 0.931 1_565 S
C230 C225 1.370 . S
C230 C226 1.395 . S
C230 H247 0.930 . S
C231 Gd178 2.805 . S
C231 O213 1.263 . S
C231 O214 1.252 . S
C231 C225 1.500 . S
C232 H194 0.930 . S
C232 C208 1.417 . S
C232 C233 1.329 . S
C233 C203 1.437 . S
C233 H204 0.929 . S
C233 C232 1.329 . S
H234 C207 0.931 . S
C235 O217 1.265 . S
C235 O218 1.242 . S
C236 O221 1.261 . S
C236 O222 1.252 . S
C237 C240 1.394 . S
C237 C242 1.370 . S
C237 C243 1.500 . S
C238 C241 1.383 . S
C238 C242 1.395 . S
C239 C240 1.396 . S
C239 C241 1.365 . S
C239 H248 0.929 . S
C240 C237 1.394 . S
C240 C239 1.396 . S
C240 H249 0.930 . S
C241 C238 1.383 . S
C241 C239 1.365 . S
C241 H250 0.931 . S
C242 C237 1.370 . S
C242 C238 1.395 . S
C242 H251 0.930 . S
C243 Gd179 2.805 . S
C243 O219 1.263 . S
C243 O220 1.252 . S
C243 C237 1.500 . S
H244 C227 0.929 1_545 S
H245 C228 0.930 . S
H246 C229 0.931 1_545 S
H247 C230 0.930 . S
H248 C239 0.929 . S
H249 C240 0.930 . S
H250 C241 0.931 . S
H251 C242 0.930 . S
C252 C254 1.422 . S
C252 C256 1.415 1_655 S
C252 N258 1.369 . S
C253 C254 1.421 . S
C253 C255 1.417 1_655 S
C253 C265 1.422 . S
C254 C252 1.422 . S
C254 C253 1.421 . S
C254 N264 1.359 . S
C255 C253 1.417 1_455 S
C255 C257 1.329 . S
C255 H274 0.930 . S
C256 C252 1.415 1_455 S
C256 C257 1.437 . S
C256 C260 1.413 . S
C257 C255 1.329 . S
C257 C256 1.437 . S
C257 H279 0.929 . S
N258 C252 1.369 . S
N258 C259 1.338 . S
N258 Gd263 2.622 . S
C259 N258 1.338 . S
C259 C261 1.378 1_655 S
C259 H271 0.929 . S
C260 C256 1.413 . S
C260 C261 1.348 . S
C260 H276 0.931 . S
C261 C259 1.378 1_455 S
C261 C260 1.348 . S
C261 H277 0.930 . S
Gd262 N282 2.622 . S
Gd262 N289 2.570 . S
Gd262 O296 2.353 . S
Gd262 O297 2.468 . S
Gd262 O298 2.427 . S
Gd262 O300 2.388 . S
Gd262 O301 2.386 . S
Gd262 O305 2.307 . S
Gd262 C315 2.805 . S
Gd263 N258 2.622 . S
Gd263 N264 2.570 . S
Gd263 O295 2.386 . S
Gd263 O299 2.307 . S
Gd263 O302 2.353 . S
Gd263 O303 2.468 . S
Gd263 O304 2.427 . S
Gd263 O306 2.388 . S
Gd263 C327 2.805 . S
N264 C254 1.359 . S
N264 Gd263 2.570 . S
N264 C266 1.343 . S
C265 C253 1.422 . S
C265 C267 1.321 . S
C265 H273 0.931 . S
C266 N264 1.343 . S
C266 C267 1.390 . S
C266 H268 0.931 . S
C267 C265 1.321 . S
C267 C266 1.390 . S
C267 H269 0.930 . S
H268 C266 0.931 . S
H269 C267 0.930 . S
H270 C293 0.931 . S
H271 C259 0.929 . S
H272 C294 0.930 . S
H273 C265 0.931 . S
H274 C255 0.930 . S
H275 C284 0.929 . S
H276 C260 0.931 . S
H277 C261 0.930 . S
H278 C316 0.930 . S
H279 C257 0.929 . S
H280 C285 0.931 . S
H281 C286 0.930 . S
N282 Gd262 2.622 . S
N282 C283 1.369 . S
N282 C284 1.338 . S
C283 N282 1.369 . S
C283 C287 1.415 . S
C283 C290 1.422 . S
C284 H275 0.929 . S
C284 N282 1.338 . S
C284 C286 1.378 . S
C285 H280 0.931 . S
C285 C286 1.348 . S
C285 C287 1.413 . S
C286 H281 0.930 . S
C286 C284 1.378 . S
C286 C285 1.348 . S
C287 C283 1.415 . S
C287 C285 1.413 . S
C287 C317 1.437 . S
H288 C317 0.929 . S
N289 Gd262 2.570 . S
N289 C290 1.359 . S
N289 C293 1.343 . S
C290 C283 1.422 . S
C290 N289 1.359 . S
C290 C292 1.421 . S
C291 C292 1.422 . S
C291 C294 1.321 . S
C291 H318 0.931 . S
C292 C290 1.421 . S
C292 C291 1.422 . S
C292 C316 1.417 . S
C293 H270 0.931 . S
C293 N289 1.343 . S
C293 C294 1.390 . S
C294 H272 0.930 . S
C294 C291 1.321 . S
C294 C293 1.390 . S
O295 Gd263 2.386 . S
O295 C307 1.265 . S
O296 Gd262 2.353 . S
O296 C307 1.242 . S
O297 Gd262 2.468 . S
O297 C315 1.263 . S
O298 Gd262 2.427 . S
O298 C315 1.252 . S
O299 Gd263 2.307 . S
O299 C308 1.261 . S
O300 Gd262 2.388 . S
O300 C308 1.252 . S
O301 Gd262 2.386 . S
O301 C319 1.265 . S
O302 Gd263 2.353 . S
O302 C319 1.242 . S
O303 Gd263 2.468 . S
O303 C327 1.263 . S
O304 Gd263 2.427 . S
O304 C327 1.252 . S
O305 Gd262 2.307 . S
O305 C320 1.261 . S
O306 Gd263 2.388 . S
O306 C320 1.252 . S
C307 O295 1.265 . S
C307 O296 1.242 . S
C308 O299 1.261 . S
C308 O300 1.252 . S
C309 C312 1.394 . S
C309 C314 1.370 . S
C309 C315 1.500 . S
C310 C313 1.383 . S
C310 C314 1.395 . S
C311 C312 1.396 . S
C311 C313 1.365 . S
C311 H328 0.929 . S
C312 C309 1.394 . S
C312 C311 1.396 . S
C312 H329 0.930 . S
C313 C310 1.383 . S
C313 C311 1.365 . S
C313 H330 0.931 . S
C314 C309 1.370 . S
C314 C310 1.395 . S
C314 H331 0.930 . S
C315 Gd262 2.805 . S
C315 O297 1.263 . S
C315 O298 1.252 . S
C315 C309 1.500 . S
C316 H278 0.930 . S
C316 C292 1.417 . S
C316 C317 1.329 . S
C317 C287 1.437 . S
C317 H288 0.929 . S
C317 C316 1.329 . S
H318 C291 0.931 . S
C319 O301 1.265 . S
C319 O302 1.242 . S
C320 O305 1.261 . S
C320 O306 1.252 . S
C321 C324 1.394 1_655 S
C321 C326 1.370 . S
C321 C327 1.500 . S
C322 C325 1.383 . S
C322 C326 1.395 1_455 S
C323 C324 1.396 . S
C323 C325 1.365 . S
C323 H332 0.929 . S
C324 C321 1.394 1_455 S
C324 C323 1.396 . S
C324 H333 0.930 . S
C325 C322 1.383 . S
C325 C323 1.365 . S
C325 H334 0.931 . S
C326 C321 1.370 . S
C326 C322 1.395 1_655 S
C326 H335 0.930 . S
C327 Gd263 2.805 . S
C327 O303 1.263 . S
C327 O304 1.252 . S
C327 C321 1.500 . S
H328 C311 0.929 . S
H329 C312 0.930 . S
H330 C313 0.931 . S
H331 C314 0.930 . S
H332 C323 0.929 . S
H333 C324 0.930 . S
H334 C325 0.931 . S
H335 C326 0.930 . S
C336 C338 1.422 . S
C336 C340 1.415 . S
C336 N342 1.369 . S
C337 C338 1.421 . S
C337 C339 1.417 . S
C337 C349 1.422 . S
C338 C336 1.422 . S
C338 C337 1.421 . S
C338 N348 1.359 . S
C339 C337 1.417 . S
C339 C341 1.329 . S
C339 H358 0.930 . S
C340 C336 1.415 . S
C340 C341 1.437 . S
C340 C344 1.413 . S
C341 C339 1.329 . S
C341 C340 1.437 . S
C341 H363 0.929 . S
N342 C336 1.369 . S
N342 C343 1.338 . S
N342 Gd347 2.622 . S
C343 N342 1.338 . S
C343 C345 1.378 . S
C343 H355 0.929 . S
C344 C340 1.413 . S
C344 C345 1.348 . S
C344 H360 0.931 . S
C345 C343 1.378 . S
C345 C344 1.348 . S
C345 H361 0.930 . S
Gd346 N366 2.622 . S
Gd346 N373 2.570 . S
Gd346 O380 2.353 . S
Gd346 O381 2.468 . S
Gd346 O382 2.427 . S
Gd346 O384 2.388 . S
Gd346 O385 2.386 . S
Gd346 O389 2.307 . S
Gd346 C399 2.805 . S
Gd347 N342 2.622 . S
Gd347 N348 2.570 . S
Gd347 O379 2.386 . S
Gd347 O383 2.307 . S
Gd347 O386 2.353 . S
Gd347 O387 2.468 . S
Gd347 O388 2.427 . S
Gd347 O390 2.388 . S
Gd347 C411 2.805 . S
N348 C338 1.359 . S
N348 Gd347 2.570 . S
N348 C350 1.343 . S
C349 C337 1.422 . S
C349 C351 1.321 . S
C349 H357 0.931 . S
C350 N348 1.343 . S
C350 C351 1.390 . S
C350 H352 0.931 . S
C351 C349 1.321 . S
C351 C350 1.390 . S
C351 H353 0.930 . S
H352 C350 0.931 . S
H353 C351 0.930 . S
H354 C377 0.931 . S
H355 C343 0.929 . S
H356 C378 0.930 . S
H357 C349 0.931 . S
H358 C339 0.930 . S
H359 C368 0.929 . S
H360 C344 0.931 . S
H361 C345 0.930 . S
H362 C400 0.930 . S
H363 C341 0.929 . S
H364 C369 0.931 . S
H365 C370 0.930 . S
N366 Gd346 2.622 . S
N366 C367 1.369 . S
N366 C368 1.338 . S
C367 N366 1.369 . S
C367 C371 1.415 . S
C367 C374 1.422 . S
C368 H359 0.929 . S
C368 N366 1.338 . S
C368 C370 1.378 . S
C369 H364 0.931 . S
C369 C370 1.348 . S
C369 C371 1.413 . S
C370 H365 0.930 . S
C370 C368 1.378 . S
C370 C369 1.348 . S
C371 C367 1.415 . S
C371 C369 1.413 . S
C371 C401 1.437 . S
H372 C401 0.929 . S
N373 Gd346 2.570 . S
N373 C374 1.359 . S
N373 C377 1.343 . S
C374 C367 1.422 . S
C374 N373 1.359 . S
C374 C376 1.421 . S
C375 C376 1.422 . S
C375 C378 1.321 . S
C375 H402 0.931 . S
C376 C374 1.421 . S
C376 C375 1.422 . S
C376 C400 1.417 . S
C377 H354 0.931 . S
C377 N373 1.343 . S
C377 C378 1.390 . S
C378 H356 0.930 . S
C378 C375 1.321 . S
C378 C377 1.390 . S
O379 Gd347 2.386 . S
O379 C391 1.265 . S
O380 Gd346 2.353 . S
O380 C391 1.242 . S
O381 Gd346 2.468 . S
O381 C399 1.263 . S
O382 Gd346 2.427 . S
O382 C399 1.252 . S
O383 Gd347 2.307 . S
O383 C392 1.261 . S
O384 Gd346 2.388 . S
O384 C392 1.252 . S
O385 Gd346 2.386 . S
O385 C403 1.265 . S
O386 Gd347 2.353 . S
O386 C403 1.242 . S
O387 Gd347 2.468 . S
O387 C411 1.263 . S
O388 Gd347 2.427 . S
O388 C411 1.252 . S
O389 Gd346 2.307 . S
O389 C404 1.261 . S
O390 Gd347 2.388 . S
O390 C404 1.252 . S
C391 O379 1.265 . S
C391 O380 1.242 . S
C392 O383 1.261 . S
C392 O384 1.252 . S
C393 C396 1.394 . S
C393 C398 1.370 . S
C393 C399 1.500 . S
C394 C397 1.383 . S
C394 C398 1.395 . S
C395 C396 1.396 . S
C395 C397 1.365 . S
C395 H412 0.929 . S
C396 C393 1.394 . S
C396 C395 1.396 . S
C396 H413 0.930 . S
C397 C394 1.383 . S
C397 C395 1.365 . S
C397 H414 0.931 . S
C398 C393 1.370 . S
C398 C394 1.395 . S
C398 H415 0.930 . S
C399 Gd346 2.805 . S
C399 O381 1.263 . S
C399 O382 1.252 . S
C399 C393 1.500 . S
C400 H362 0.930 . S
C400 C376 1.417 . S
C400 C401 1.329 . S
C401 C371 1.437 . S
C401 H372 0.929 . S
C401 C400 1.329 . S
H402 C375 0.931 . S
C403 O385 1.265 . S
C403 O386 1.242 . S
C404 O389 1.261 . S
C404 O390 1.252 . S
C405 C408 1.394 . S
C405 C410 1.370 . S
C405 C411 1.500 . S
C406 C409 1.383 . S
C406 C410 1.395 . S
C407 C408 1.396 . S
C407 C409 1.365 . S
C407 H416 0.929 1_565 S
C408 C405 1.394 . S
C408 C407 1.396 . S
C408 H417 0.930 . S
C409 C406 1.383 . S
C409 C407 1.365 . S
C409 H418 0.931 1_565 S
C410 C405 1.370 . S
C410 C406 1.395 . S
C410 H419 0.930 . S
C411 Gd347 2.805 . S
C411 O387 1.263 . S
C411 O388 1.252 . S
C411 C405 1.500 . S
H412 C395 0.929 . S
H413 C396 0.930 . S
H414 C397 0.931 . S
H415 C398 0.930 . S
H416 C407 0.929 1_545 S
H417 C408 0.930 . S
H418 C409 0.931 1_545 S
H419 C410 0.930 . S
C420 C422 1.422 . S
C420 C424 1.415 . S
C420 N426 1.369 . S
C421 C422 1.421 . S
C421 C423 1.417 . S
C421 C433 1.422 . S
C422 C420 1.422 . S
C422 C421 1.421 . S
C422 N432 1.359 . S
C423 C421 1.417 . S
C423 C425 1.329 . S
C423 H442 0.930 . S
C424 C420 1.415 . S
C424 C425 1.437 . S
C424 C428 1.413 . S
C425 C423 1.329 . S
C425 C424 1.437 . S
C425 H447 0.929 . S
N426 C420 1.369 . S
N426 C427 1.338 . S
N426 Gd431 2.622 . S
C427 N426 1.338 . S
C427 C429 1.378 . S
C427 H439 0.929 . S
C428 C424 1.413 . S
C428 C429 1.348 . S
C428 H444 0.931 . S
C429 C427 1.378 . S
C429 C428 1.348 . S
C429 H445 0.930 . S
Gd430 N450 2.622 . S
Gd430 N457 2.570 . S
Gd430 O464 2.353 . S
Gd430 O465 2.468 . S
Gd430 O466 2.427 . S
Gd430 O468 2.388 . S
Gd430 O469 2.386 . S
Gd430 O473 2.307 . S
Gd430 C483 2.805 . S
Gd431 N426 2.622 . S
Gd431 N432 2.570 . S
Gd431 O463 2.386 . S
Gd431 O467 2.307 . S
Gd431 O470 2.353 . S
Gd431 O471 2.468 . S
Gd431 O472 2.427 . S
Gd431 O474 2.388 . S
Gd431 C495 2.805 . S
N432 C422 1.359 . S
N432 Gd431 2.570 . S
N432 C434 1.343 . S
C433 C421 1.422 . S
C433 C435 1.321 . S
C433 H441 0.931 . S
C434 N432 1.343 . S
C434 C435 1.390 . S
C434 H436 0.931 . S
C435 C433 1.321 . S
C435 C434 1.390 . S
C435 H437 0.930 . S
H436 C434 0.931 . S
H437 C435 0.930 . S
H438 C461 0.931 . S
H439 C427 0.929 . S
H440 C462 0.930 . S
H441 C433 0.931 . S
H442 C423 0.930 . S
H443 C452 0.929 . S
H444 C428 0.931 . S
H445 C429 0.930 . S
H446 C484 0.930 . S
H447 C425 0.929 . S
H448 C453 0.931 . S
H449 C454 0.930 . S
N450 Gd430 2.622 . S
N450 C451 1.369 . S
N450 C452 1.338 . S
C451 N450 1.369 . S
C451 C455 1.415 . S
C451 C458 1.422 . S
C452 H443 0.929 . S
C452 N450 1.338 . S
C452 C454 1.378 . S
C453 H448 0.931 . S
C453 C454 1.348 . S
C453 C455 1.413 . S
C454 H449 0.930 . S
C454 C452 1.378 . S
C454 C453 1.348 . S
C455 C451 1.415 . S
C455 C453 1.413 . S
C455 C485 1.437 . S
H456 C485 0.929 . S
N457 Gd430 2.570 . S
N457 C458 1.359 . S
N457 C461 1.343 . S
C458 C451 1.422 . S
C458 N457 1.359 . S
C458 C460 1.421 . S
C459 C460 1.422 . S
C459 C462 1.321 . S
C459 H486 0.931 . S
C460 C458 1.421 . S
C460 C459 1.422 . S
C460 C484 1.417 . S
C461 H438 0.931 . S
C461 N457 1.343 . S
C461 C462 1.390 . S
C462 H440 0.930 . S
C462 C459 1.321 . S
C462 C461 1.390 . S
O463 Gd431 2.386 . S
O463 C475 1.265 . S
O464 Gd430 2.353 . S
O464 C475 1.242 . S
O465 Gd430 2.468 . S
O465 C483 1.263 . S
O466 Gd430 2.427 . S
O466 C483 1.252 . S
O467 Gd431 2.307 . S
O467 C476 1.261 . S
O468 Gd430 2.388 . S
O468 C476 1.252 . S
O469 Gd430 2.386 . S
O469 C487 1.265 . S
O470 Gd431 2.353 . S
O470 C487 1.242 . S
O471 Gd431 2.468 . S
O471 C495 1.263 . S
O472 Gd431 2.427 . S
O472 C495 1.252 . S
O473 Gd430 2.307 . S
O473 C488 1.261 . S
O474 Gd431 2.388 . S
O474 C488 1.252 . S
C475 O463 1.265 . S
C475 O464 1.242 . S
C476 O467 1.261 . S
C476 O468 1.252 . S
C477 C480 1.394 . S
C477 C482 1.370 . S
C477 C483 1.500 . S
C478 C481 1.383 . S
C478 C482 1.395 . S
C479 C480 1.396 . S
C479 C481 1.365 . S
C479 H496 0.929 . S
C480 C477 1.394 . S
C480 C479 1.396 . S
C480 H497 0.930 . S
C481 C478 1.383 . S
C481 C479 1.365 . S
C481 H498 0.931 . S
C482 C477 1.370 . S
C482 C478 1.395 . S
C482 H499 0.930 . S
C483 Gd430 2.805 . S
C483 O465 1.263 . S
C483 O466 1.252 . S
C483 C477 1.500 . S
C484 H446 0.930 . S
C484 C460 1.417 . S
C484 C485 1.329 . S
C485 C455 1.437 . S
C485 H456 0.929 . S
C485 C484 1.329 . S
H486 C459 0.931 . S
C487 O469 1.265 . S
C487 O470 1.242 . S
C488 O473 1.261 . S
C488 O474 1.252 . S
C489 C492 1.394 . S
C489 C494 1.370 . S
C489 C495 1.500 . S
C490 C493 1.383 . S
C490 C494 1.395 . S
C491 C492 1.396 . S
C491 C493 1.365 . S
C491 H500 0.929 . S
C492 C489 1.394 . S
C492 C491 1.396 . S
C492 H501 0.930 . S
C493 C490 1.383 . S
C493 C491 1.365 . S
C493 H502 0.931 . S
C494 C489 1.370 . S
C494 C490 1.395 . S
C494 H503 0.930 . S
C495 Gd431 2.805 . S
C495 O471 1.263 . S
C495 O472 1.252 . S
C495 C489 1.500 . S
H496 C479 0.929 . S
H497 C480 0.930 . S
H498 C481 0.931 . S
H499 C482 0.930 . S
H500 C491 0.929 . S
H501 C492 0.930 . S
H502 C493 0.931 . S
H503 C494 0.930 . S
C504 C506 1.422 . S
C504 C508 1.415 . S
C504 N510 1.369 . S
C505 C506 1.421 . S
C505 C507 1.417 . S
C505 C517 1.422 . S
C506 C504 1.422 . S
C506 C505 1.421 . S
C506 N516 1.359 . S
C507 C505 1.417 . S
C507 C509 1.329 . S
C507 H526 0.930 . S
C508 C504 1.415 . S
C508 C509 1.437 . S
C508 C512 1.413 . S
C509 C507 1.329 . S
C509 C508 1.437 . S
C509 H531 0.929 . S
N510 C504 1.369 . S
N510 C511 1.338 . S
N510 Gd515 2.622 . S
C511 N510 1.338 . S
C511 C513 1.378 . S
C511 H523 0.929 . S
C512 C508 1.413 . S
C512 C513 1.348 . S
C512 H528 0.931 . S
C513 C511 1.378 . S
C513 C512 1.348 . S
C513 H529 0.930 . S
Gd514 N534 2.622 . S
Gd514 N541 2.570 . S
Gd514 O548 2.353 . S
Gd514 O549 2.468 . S
Gd514 O550 2.427 . S
Gd514 O552 2.388 . S
Gd514 O553 2.386 . S
Gd514 O557 2.307 . S
Gd514 C567 2.805 . S
Gd515 N510 2.622 . S
Gd515 N516 2.570 . S
Gd515 O547 2.386 . S
Gd515 O551 2.307 . S
Gd515 O554 2.353 . S
Gd515 O555 2.468 . S
Gd515 O556 2.427 . S
Gd515 O558 2.388 . S
Gd515 C579 2.805 . S
N516 C506 1.359 . S
N516 Gd515 2.570 . S
N516 C518 1.343 . S
C517 C505 1.422 . S
C517 C519 1.321 . S
C517 H525 0.931 . S
C518 N516 1.343 . S
C518 C519 1.390 . S
C518 H520 0.931 . S
C519 C517 1.321 . S
C519 C518 1.390 . S
C519 H521 0.930 . S
H520 C518 0.931 . S
H521 C519 0.930 . S
H522 C545 0.931 . S
H523 C511 0.929 . S
H524 C546 0.930 . S
H525 C517 0.931 . S
H526 C507 0.930 . S
H527 C536 0.929 . S
H528 C512 0.931 . S
H529 C513 0.930 . S
H530 C568 0.930 . S
H531 C509 0.929 . S
H532 C537 0.931 . S
H533 C538 0.930 . S
N534 Gd514 2.622 . S
N534 C535 1.369 . S
N534 C536 1.338 . S
C535 N534 1.369 . S
C535 C539 1.415 . S
C535 C542 1.422 . S
C536 H527 0.929 . S
C536 N534 1.338 . S
C536 C538 1.378 . S
C537 H532 0.931 . S
C537 C538 1.348 . S
C537 C539 1.413 . S
C538 H533 0.930 . S
C538 C536 1.378 . S
C538 C537 1.348 . S
C539 C535 1.415 . S
C539 C537 1.413 . S
C539 C569 1.437 . S
H540 C569 0.929 . S
N541 Gd514 2.570 . S
N541 C542 1.359 . S
N541 C545 1.343 . S
C542 C535 1.422 . S
C542 N541 1.359 . S
C542 C544 1.421 . S
C543 C544 1.422 . S
C543 C546 1.321 . S
C543 H570 0.931 . S
C544 C542 1.421 . S
C544 C543 1.422 . S
C544 C568 1.417 . S
C545 H522 0.931 . S
C545 N541 1.343 . S
C545 C546 1.390 . S
C546 H524 0.930 . S
C546 C543 1.321 . S
C546 C545 1.390 . S
O547 Gd515 2.386 . S
O547 C559 1.265 . S
O548 Gd514 2.353 . S
O548 C559 1.242 . S
O549 Gd514 2.468 . S
O549 C567 1.263 . S
O550 Gd514 2.427 . S
O550 C567 1.252 . S
O551 Gd515 2.307 . S
O551 C560 1.261 . S
O552 Gd514 2.388 . S
O552 C560 1.252 . S
O553 Gd514 2.386 . S
O553 C571 1.265 . S
O554 Gd515 2.353 . S
O554 C571 1.242 . S
O555 Gd515 2.468 . S
O555 C579 1.263 . S
O556 Gd515 2.427 . S
O556 C579 1.252 . S
O557 Gd514 2.307 . S
O557 C572 1.261 . S
O558 Gd515 2.388 . S
O558 C572 1.252 . S
C559 O547 1.265 . S
C559 O548 1.242 . S
C560 O551 1.261 . S
C560 O552 1.252 . S
C561 C564 1.394 . S
C561 C566 1.370 . S
C561 C567 1.500 . S
C562 C565 1.383 . S
C562 C566 1.395 . S
C563 C564 1.396 . S
C563 C565 1.365 . S
C563 H580 0.929 . S
C564 C561 1.394 . S
C564 C563 1.396 . S
C564 H581 0.930 . S
C565 C562 1.383 . S
C565 C563 1.365 . S
C565 H582 0.931 . S
C566 C561 1.370 . S
C566 C562 1.395 . S
C566 H583 0.930 . S
C567 Gd514 2.805 . S
C567 O549 1.263 . S
C567 O550 1.252 . S
C567 C561 1.500 . S
C568 H530 0.930 . S
C568 C544 1.417 . S
C568 C569 1.329 . S
C569 C539 1.437 . S
C569 H540 0.929 . S
C569 C568 1.329 . S
H570 C543 0.931 . S
C571 O553 1.265 . S
C571 O554 1.242 . S
C572 O557 1.261 . S
C572 O558 1.252 . S
C573 C576 1.394 . S
C573 C578 1.370 . S
C573 C579 1.500 . S
C574 C577 1.383 . S
C574 C578 1.395 . S
C575 C576 1.396 . S
C575 C577 1.365 . S
C575 H584 0.929 1_545 S
C576 C573 1.394 . S
C576 C575 1.396 . S
C576 H585 0.930 . S
C577 C574 1.383 . S
C577 C575 1.365 . S
C577 H586 0.931 1_545 S
C578 C573 1.370 . S
C578 C574 1.395 . S
C578 H587 0.930 . S
C579 Gd515 2.805 . S
C579 O555 1.263 . S
C579 O556 1.252 . S
C579 C573 1.500 . S
H580 C563 0.929 . S
H581 C564 0.930 . S
H582 C565 0.931 . S
H583 C566 0.930 . S
H584 C575 0.929 1_565 S
H585 C576 0.930 . S
H586 C577 0.931 1_565 S
H587 C578 0.930 . S
C588 C590 1.422 . S
C588 C592 1.415 . S
C588 N594 1.369 . S
C589 C590 1.421 . S
C589 C591 1.417 . S
C589 C601 1.422 . S
C590 C588 1.422 . S
C590 C589 1.421 . S
C590 N600 1.359 . S
C591 C589 1.417 . S
C591 C593 1.329 . S
C591 H610 0.930 . S
C592 C588 1.415 . S
C592 C593 1.437 . S
C592 C596 1.413 . S
C593 C591 1.329 . S
C593 C592 1.437 . S
C593 H615 0.929 . S
N594 C588 1.369 . S
N594 C595 1.338 . S
N594 Gd599 2.622 . S
C595 N594 1.338 . S
C595 C597 1.378 . S
C595 H607 0.929 . S
C596 C592 1.413 . S
C596 C597 1.348 . S
C596 H612 0.931 . S
C597 C595 1.378 . S
C597 C596 1.348 . S
C597 H613 0.930 . S
Gd598 N618 2.622 . S
Gd598 N625 2.570 . S
Gd598 O632 2.353 . S
Gd598 O633 2.468 . S
Gd598 O634 2.427 . S
Gd598 O636 2.388 . S
Gd598 O637 2.386 . S
Gd598 O641 2.307 . S
Gd598 C651 2.805 . S
Gd599 N594 2.622 . S
Gd599 N600 2.570 . S
Gd599 O631 2.386 . S
Gd599 O635 2.307 . S
Gd599 O638 2.353 . S
Gd599 O639 2.468 . S
Gd599 O640 2.427 . S
Gd599 O642 2.388 . S
Gd599 C663 2.805 . S
N600 C590 1.359 . S
N600 Gd599 2.570 . S
N600 C602 1.343 . S
C601 C589 1.422 . S
C601 C603 1.321 . S
C601 H609 0.931 . S
C602 N600 1.343 . S
C602 C603 1.390 . S
C602 H604 0.931 . S
C603 C601 1.321 . S
C603 C602 1.390 . S
C603 H605 0.930 . S
H604 C602 0.931 . S
H605 C603 0.930 . S
H606 C629 0.931 . S
H607 C595 0.929 . S
H608 C630 0.930 . S
H609 C601 0.931 . S
H610 C591 0.930 . S
H611 C620 0.929 . S
H612 C596 0.931 . S
H613 C597 0.930 . S
H614 C652 0.930 . S
H615 C593 0.929 . S
H616 C621 0.931 . S
H617 C622 0.930 . S
N618 Gd598 2.622 . S
N618 C619 1.369 . S
N618 C620 1.338 . S
C619 N618 1.369 . S
C619 C623 1.415 1_455 S
C619 C626 1.422 . S
C620 H611 0.929 . S
C620 N618 1.338 . S
C620 C622 1.378 1_455 S
C621 H616 0.931 . S
C621 C622 1.348 . S
C621 C623 1.413 . S
C622 H617 0.930 . S
C622 C620 1.378 1_655 S
C622 C621 1.348 . S
C623 C619 1.415 1_655 S
C623 C621 1.413 . S
C623 C653 1.437 . S
H624 C653 0.929 . S
N625 Gd598 2.570 . S
N625 C626 1.359 . S
N625 C629 1.343 . S
C626 C619 1.422 . S
C626 N625 1.359 . S
C626 C628 1.421 . S
C627 C628 1.422 . S
C627 C630 1.321 . S
C627 H654 0.931 . S
C628 C626 1.421 . S
C628 C627 1.422 . S
C628 C652 1.417 1_455 S
C629 H606 0.931 . S
C629 N625 1.343 . S
C629 C630 1.390 . S
C630 H608 0.930 . S
C630 C627 1.321 . S
C630 C629 1.390 . S
O631 Gd599 2.386 . S
O631 C643 1.265 . S
O632 Gd598 2.353 . S
O632 C643 1.242 . S
O633 Gd598 2.468 . S
O633 C651 1.263 . S
O634 Gd598 2.427 . S
O634 C651 1.252 . S
O635 Gd599 2.307 . S
O635 C644 1.261 . S
O636 Gd598 2.388 . S
O636 C644 1.252 . S
O637 Gd598 2.386 . S
O637 C655 1.265 . S
O638 Gd599 2.353 . S
O638 C655 1.242 . S
O639 Gd599 2.468 . S
O639 C663 1.263 . S
O640 Gd599 2.427 . S
O640 C663 1.252 . S
O641 Gd598 2.307 . S
O641 C656 1.261 . S
O642 Gd599 2.388 . S
O642 C656 1.252 . S
C643 O631 1.265 . S
C643 O632 1.242 . S
C644 O635 1.261 . S
C644 O636 1.252 . S
C645 C648 1.394 1_455 S
C645 C650 1.370 . S
C645 C651 1.500 . S
C646 C649 1.383 . S
C646 C650 1.395 1_655 S
C647 C648 1.396 . S
C647 C649 1.365 . S
C647 H664 0.929 . S
C648 C645 1.394 1_655 S
C648 C647 1.396 . S
C648 H665 0.930 . S
C649 C646 1.383 . S
C649 C647 1.365 . S
C649 H666 0.931 . S
C650 C645 1.370 . S
C650 C646 1.395 1_455 S
C650 H667 0.930 . S
C651 Gd598 2.805 . S
C651 O633 1.263 . S
C651 O634 1.252 . S
C651 C645 1.500 . S
C652 H614 0.930 . S
C652 C628 1.417 1_655 S
C652 C653 1.329 . S
C653 C623 1.437 . S
C653 H624 0.929 . S
C653 C652 1.329 . S
H654 C627 0.931 . S
C655 O637 1.265 . S
C655 O638 1.242 . S
C656 O641 1.261 . S
C656 O642 1.252 . S
C657 C660 1.394 . S
C657 C662 1.370 . S
C657 C663 1.500 . S
C658 C661 1.383 . S
C658 C662 1.395 . S
C659 C660 1.396 . S
C659 C661 1.365 . S
C659 H668 0.929 . S
C660 C657 1.394 . S
C660 C659 1.396 . S
C660 H669 0.930 . S
C661 C658 1.383 . S
C661 C659 1.365 . S
C661 H670 0.931 . S
C662 C657 1.370 . S
C662 C658 1.395 . S
C662 H671 0.930 . S
C663 Gd599 2.805 . S
C663 O639 1.263 . S
C663 O640 1.252 . S
C663 C657 1.500 . S
H664 C647 0.929 . S
H665 C648 0.930 . S
H666 C649 0.931 . S
H667 C650 0.930 . S
H668 C659 0.929 . S
H669 C660 0.930 . S
H670 C661 0.931 . S
H671 C662 0.930 . S
C672 C674 1.422 . S
C672 C676 1.415 . S
C672 N678 1.369 . S
C673 C674 1.421 . S
C673 C675 1.417 . S
C673 C685 1.422 . S
C674 C672 1.422 . S
C674 C673 1.421 . S
C674 N684 1.359 . S
C675 C673 1.417 . S
C675 C677 1.329 . S
C675 H694 0.930 . S
C676 C672 1.415 . S
C676 C677 1.437 . S
C676 C680 1.413 . S
C677 C675 1.329 . S
C677 C676 1.437 . S
C677 H699 0.929 . S
N678 C672 1.369 . S
N678 C679 1.338 . S
N678 Gd683 2.622 . S
C679 N678 1.338 . S
C679 C681 1.378 . S
C679 H691 0.929 . S
C680 C676 1.413 . S
C680 C681 1.348 . S
C680 H696 0.931 . S
C681 C679 1.378 . S
C681 C680 1.348 . S
C681 H697 0.930 . S
Gd682 N702 2.622 . S
Gd682 N709 2.570 . S
Gd682 O716 2.353 . S
Gd682 O717 2.468 . S
Gd682 O718 2.427 . S
Gd682 O720 2.388 . S
Gd682 O721 2.386 . S
Gd682 O725 2.307 . S
Gd682 C735 2.805 . S
Gd683 N678 2.622 . S
Gd683 N684 2.570 . S
Gd683 O715 2.386 . S
Gd683 O719 2.307 . S
Gd683 O722 2.353 . S
Gd683 O723 2.468 . S
Gd683 O724 2.427 . S
Gd683 O726 2.388 . S
Gd683 C747 2.805 . S
N684 C674 1.359 . S
N684 Gd683 2.570 . S
N684 C686 1.343 . S
C685 C673 1.422 . S
C685 C687 1.321 . S
C685 H693 0.931 . S
C686 N684 1.343 . S
C686 C687 1.390 . S
C686 H688 0.931 . S
C687 C685 1.321 . S
C687 C686 1.390 . S
C687 H689 0.930 . S
H688 C686 0.931 . S
H689 C687 0.930 . S
H690 C713 0.931 . S
H691 C679 0.929 . S
H692 C714 0.930 . S
H693 C685 0.931 . S
H694 C675 0.930 . S
H695 C704 0.929 . S
H696 C680 0.931 . S
H697 C681 0.930 . S
H698 C736 0.930 . S
H699 C677 0.929 . S
H700 C705 0.931 . S
H701 C706 0.930 . S
N702 Gd682 2.622 . S
N702 C703 1.369 . S
N702 C704 1.338 . S
C703 N702 1.369 . S
C703 C707 1.415 . S
C703 C710 1.422 . S
C704 H695 0.929 . S
C704 N702 1.338 . S
C704 C706 1.378 . S
C705 H700 0.931 . S
C705 C706 1.348 . S
C705 C707 1.413 . S
C706 H701 0.930 . S
C706 C704 1.378 . S
C706 C705 1.348 . S
C707 C703 1.415 . S
C707 C705 1.413 . S
C707 C737 1.437 . S
H708 C737 0.929 . S
N709 Gd682 2.570 . S
N709 C710 1.359 . S
N709 C713 1.343 . S
C710 C703 1.422 . S
C710 N709 1.359 . S
C710 C712 1.421 . S
C711 C712 1.422 . S
C711 C714 1.321 . S
C711 H738 0.931 . S
C712 C710 1.421 . S
C712 C711 1.422 . S
C712 C736 1.417 . S
C713 H690 0.931 . S
C713 N709 1.343 . S
C713 C714 1.390 . S
C714 H692 0.930 . S
C714 C711 1.321 . S
C714 C713 1.390 . S
O715 Gd683 2.386 . S
O715 C727 1.265 . S
O716 Gd682 2.353 . S
O716 C727 1.242 . S
O717 Gd682 2.468 . S
O717 C735 1.263 . S
O718 Gd682 2.427 . S
O718 C735 1.252 . S
O719 Gd683 2.307 . S
O719 C728 1.261 . S
O720 Gd682 2.388 . S
O720 C728 1.252 . S
O721 Gd682 2.386 . S
O721 C739 1.265 . S
O722 Gd683 2.353 . S
O722 C739 1.242 . S
O723 Gd683 2.468 . S
O723 C747 1.263 . S
O724 Gd683 2.427 . S
O724 C747 1.252 . S
O725 Gd682 2.307 . S
O725 C740 1.261 . S
O726 Gd683 2.388 . S
O726 C740 1.252 . S
C727 O715 1.265 . S
C727 O716 1.242 . S
C728 O719 1.261 . S
C728 O720 1.252 . S
C729 C732 1.394 . S
C729 C734 1.370 . S
C729 C735 1.500 . S
C730 C733 1.383 . S
C730 C734 1.395 . S
C731 C732 1.396 . S
C731 C733 1.365 . S
C731 H748 0.929 . S
C732 C729 1.394 . S
C732 C731 1.396 . S
C732 H749 0.930 . S
C733 C730 1.383 . S
C733 C731 1.365 . S
C733 H750 0.931 . S
C734 C729 1.370 . S
C734 C730 1.395 . S
C734 H751 0.930 . S
C735 Gd682 2.805 . S
C735 O717 1.263 . S
C735 O718 1.252 . S
C735 C729 1.500 . S
C736 H698 0.930 . S
C736 C712 1.417 . S
C736 C737 1.329 . S
C737 C707 1.437 . S
C737 H708 0.929 . S
C737 C736 1.329 . S
H738 C711 0.931 . S
C739 O721 1.265 . S
C739 O722 1.242 . S
C740 O725 1.261 . S
C740 O726 1.252 . S
C741 C744 1.394 . S
C741 C746 1.370 . S
C741 C747 1.500 . S
C742 C745 1.383 . S
C742 C746 1.395 . S
C743 C744 1.396 . S
C743 C745 1.365 . S
C743 H752 0.929 . S
C744 C741 1.394 . S
C744 C743 1.396 . S
C744 H753 0.930 . S
C745 C742 1.383 . S
C745 C743 1.365 . S
C745 H754 0.931 . S
C746 C741 1.370 . S
C746 C742 1.395 . S
C746 H755 0.930 . S
C747 Gd683 2.805 . S
C747 O723 1.263 . S
C747 O724 1.252 . S
C747 C741 1.500 . S
H748 C731 0.929 . S
H749 C732 0.930 . S
H750 C733 0.931 . S
H751 C734 0.930 . S
H752 C743 0.929 . S
H753 C744 0.930 . S
H754 C745 0.931 . S
H755 C746 0.930 . S
C756 C758 1.422 1_545 S
C756 C760 1.415 1_455 S
C756 N762 1.369 . S
C757 C758 1.421 . S
C757 C759 1.417 1_455 S
C757 C769 1.422 . S
C758 C756 1.422 1_565 S
C758 C757 1.421 . S
C758 N768 1.359 . S
C759 C757 1.417 1_655 S
C759 C761 1.329 1_565 S
C759 H778 0.930 . S
C760 C756 1.415 1_655 S
C760 C761 1.437 . S
C760 C764 1.413 . S
C761 C759 1.329 1_545 S
C761 C760 1.437 . S
C761 H783 0.929 . S
N762 C756 1.369 . S
N762 C763 1.338 . S
N762 Gd767 2.622 . S
C763 N762 1.338 . S
C763 C765 1.378 1_455 S
C763 H775 0.929 . S
C764 C760 1.413 . S
C764 C765 1.348 . S
C764 H780 0.931 . S
C765 C763 1.378 1_655 S
C765 C764 1.348 . S
C765 H781 0.930 . S
Gd766 N786 2.622 . S
Gd766 N793 2.570 . S
Gd766 O800 2.353 . S
Gd766 O801 2.468 . S
Gd766 O802 2.427 . S
Gd766 O804 2.388 . S
Gd766 O805 2.386 . S
Gd766 O809 2.307 . S
Gd766 C819 2.805 . S
Gd767 N762 2.622 . S
Gd767 N768 2.570 1_545 S
Gd767 O799 2.386 . S
Gd767 O803 2.307 . S
Gd767 O806 2.353 . S
Gd767 O807 2.468 1_545 S
Gd767 O808 2.427 . S
Gd767 O810 2.388 . S
Gd767 C831 2.805 . S
N768 C758 1.359 . S
N768 Gd767 2.570 1_565 S
N768 C770 1.343 . S
C769 C757 1.422 . S
C769 C771 1.321 . S
C769 H777 0.931 . S
C770 N768 1.343 . S
C770 C771 1.390 . S
C770 H772 0.931 . S
C771 C769 1.321 . S
C771 C770 1.390 . S
C771 H773 0.930 . S
H772 C770 0.931 . S
H773 C771 0.930 . S
H774 C797 0.931 . S
H775 C763 0.929 . S
H776 C798 0.930 . S
H777 C769 0.931 . S
H778 C759 0.930 . S
H779 C788 0.929 . S
H780 C764 0.931 . S
H781 C765 0.930 . S
H782 C820 0.930 . S
H783 C761 0.929 . S
H784 C789 0.931 . S
H785 C790 0.930 1_565 S
N786 Gd766 2.622 . S
N786 C787 1.369 . S
N786 C788 1.338 . S
C787 N786 1.369 . S
C787 C791 1.415 . S
C787 C794 1.422 . S
C788 H779 0.929 . S
C788 N786 1.338 . S
C788 C790 1.378 . S
C789 H784 0.931 . S
C789 C790 1.348 . S
C789 C791 1.413 . S
C790 H785 0.930 1_545 S
C790 C788 1.378 . S
C790 C789 1.348 . S
C791 C787 1.415 . S
C791 C789 1.413 . S
C791 C821 1.437 . S
H792 C821 0.929 . S
N793 Gd766 2.570 . S
N793 C794 1.359 . S
N793 C797 1.343 . S
C794 C787 1.422 . S
C794 N793 1.359 . S
C794 C796 1.421 . S
C795 C796 1.422 . S
C795 C798 1.321 . S
C795 H822 0.931 . S
C796 C794 1.421 . S
C796 C795 1.422 . S
C796 C820 1.417 . S
C797 H774 0.931 . S
C797 N793 1.343 . S
C797 C798 1.390 . S
C798 H776 0.930 . S
C798 C795 1.321 . S
C798 C797 1.390 . S
O799 Gd767 2.386 . S
O799 C811 1.265 . S
O800 Gd766 2.353 . S
O800 C811 1.242 . S
O801 Gd766 2.468 . S
O801 C819 1.263 . S
O802 Gd766 2.427 . S
O802 C819 1.252 . S
O803 Gd767 2.307 . S
O803 C812 1.261 1_545 S
O804 Gd766 2.388 . S
O804 C812 1.252 1_545 S
O805 Gd766 2.386 . S
O805 C823 1.265 . S
O806 Gd767 2.353 . S
O806 C823 1.242 . S
O807 Gd767 2.468 1_565 S
O807 C831 1.263 1_565 S
O808 Gd767 2.427 . S
O808 C831 1.252 . S
O809 Gd766 2.307 . S
O809 C824 1.261 . S
O810 Gd767 2.388 . S
O810 C824 1.252 . S
C811 O799 1.265 . S
C811 O800 1.242 . S
C812 O803 1.261 1_565 S
C812 O804 1.252 1_565 S
C813 C816 1.394 . S
C813 C818 1.370 . S
C813 C819 1.500 . S
C814 C817 1.383 . S
C814 C818 1.395 . S
C815 C816 1.396 . S
C815 C817 1.365 . S
C815 H832 0.929 . S
C816 C813 1.394 . S
C816 C815 1.396 . S
C816 H833 0.930 . S
C817 C814 1.383 . S
C817 C815 1.365 . S
C817 H834 0.931 . S
C818 C813 1.370 . S
C818 C814 1.395 . S
C818 H835 0.930 . S
C819 Gd766 2.805 . S
C819 O801 1.263 . S
C819 O802 1.252 . S
C819 C813 1.500 . S
C820 H782 0.930 . S
C820 C796 1.417 . S
C820 C821 1.329 . S
C821 C791 1.437 . S
C821 H792 0.929 . S
C821 C820 1.329 . S
H822 C795 0.931 . S
C823 O805 1.265 . S
C823 O806 1.242 . S
C824 O809 1.261 . S
C824 O810 1.252 . S
C825 C828 1.394 1_465 S
C825 C830 1.370 . S
C825 C831 1.500 1_565 S
C826 C829 1.383 . S
C826 C830 1.395 1_655 S
C827 C828 1.396 1_565 S
C827 C829 1.365 . S
C827 H836 0.912 1_565 S
C828 C825 1.394 1_645 S
C828 C827 1.396 1_545 S
C828 H837 0.930 . S
C829 C826 1.383 . S
C829 C827 1.365 . S
C829 H838 0.931 . S
C830 C825 1.370 . S
C830 C826 1.395 1_455 S
C830 H839 0.930 . S
C831 Gd767 2.805 . S
C831 O807 1.263 1_545 S
C831 O808 1.252 . S
C831 C825 1.500 1_545 S
H832 C815 0.929 . S
H833 C816 0.930 . S
H834 C817 0.931 . S
H835 C818 0.930 . S
H836 C827 0.912 1_545 S
H837 C828 0.930 . S
H838 C829 0.931 . S
H839 C830 0.930 . S
C840 C842 1.422 . S
C840 C844 1.415 . S
C840 N846 1.369 . S
C841 C842 1.421 . S
C841 C843 1.417 . S
C841 C853 1.422 . S
C842 C840 1.422 . S
C842 C841 1.421 . S
C842 N852 1.359 . S
C843 C841 1.417 . S
C843 C845 1.329 . S
C843 H862 0.930 . S
C844 C840 1.415 . S
C844 C845 1.437 . S
C844 C848 1.413 . S
C845 C843 1.329 . S
C845 C844 1.437 . S
C845 H867 0.929 . S
N846 C840 1.369 . S
N846 C847 1.338 . S
N846 Gd851 2.622 . S
C847 N846 1.338 . S
C847 C849 1.378 . S
C847 H859 0.929 . S
C848 C844 1.413 . S
C848 C849 1.348 . S
C848 H864 0.931 . S
C849 C847 1.378 . S
C849 C848 1.348 . S
C849 H865 0.930 . S
Gd850 N870 2.622 . S
Gd850 N877 2.570 . S
Gd850 O884 2.353 . S
Gd850 O885 2.468 . S
Gd850 O886 2.427 . S
Gd850 O888 2.388 . S
Gd850 O889 2.386 . S
Gd850 O893 2.307 . S
Gd850 C903 2.805 . S
Gd851 N846 2.622 . S
Gd851 N852 2.570 . S
Gd851 O883 2.386 . S
Gd851 O887 2.307 . S
Gd851 O890 2.353 . S
Gd851 O891 2.468 . S
Gd851 O892 2.427 . S
Gd851 O894 2.388 . S
Gd851 C915 2.805 . S
N852 C842 1.359 . S
N852 Gd851 2.570 . S
N852 C854 1.343 . S
C853 C841 1.422 . S
C853 C855 1.321 . S
C853 H861 0.931 . S
C854 N852 1.343 . S
C854 C855 1.390 . S
C854 H856 0.931 . S
C855 C853 1.321 . S
C855 C854 1.390 . S
C855 H857 0.930 . S
H856 C854 0.931 . S
H857 C855 0.930 . S
H858 C881 0.931 . S
H859 C847 0.929 . S
H860 C882 0.930 . S
H861 C853 0.931 . S
H862 C843 0.930 . S
H863 C872 0.929 . S
H864 C848 0.931 . S
H865 C849 0.930 . S
H866 C904 0.930 . S
H867 C845 0.929 . S
H868 C873 0.931 . S
H869 C874 0.930 . S
N870 Gd850 2.622 . S
N870 C871 1.369 . S
N870 C872 1.338 . S
C871 N870 1.369 . S
C871 C875 1.415 . S
C871 C878 1.422 . S
C872 H863 0.929 . S
C872 N870 1.338 . S
C872 C874 1.378 . S
C873 H868 0.931 . S
C873 C874 1.348 . S
C873 C875 1.413 . S
C874 H869 0.930 . S
C874 C872 1.378 . S
C874 C873 1.348 . S
C875 C871 1.415 . S
C875 C873 1.413 . S
C875 C905 1.437 . S
H876 C905 0.929 . S
N877 Gd850 2.570 . S
N877 C878 1.359 . S
N877 C881 1.343 . S
C878 C871 1.422 . S
C878 N877 1.359 . S
C878 C880 1.421 . S
C879 C880 1.422 . S
C879 C882 1.321 . S
C879 H906 0.931 . S
C880 C878 1.421 . S
C880 C879 1.422 . S
C880 C904 1.417 . S
C881 H858 0.931 . S
C881 N877 1.343 . S
C881 C882 1.390 . S
C882 H860 0.930 . S
C882 C879 1.321 . S
C882 C881 1.390 . S
O883 Gd851 2.386 . S
O883 C895 1.265 . S
O884 Gd850 2.353 . S
O884 C895 1.242 . S
O885 Gd850 2.468 . S
O885 C903 1.263 . S
O886 Gd850 2.427 . S
O886 C903 1.252 . S
O887 Gd851 2.307 . S
O887 C896 1.261 . S
O888 Gd850 2.388 . S
O888 C896 1.252 . S
O889 Gd850 2.386 . S
O889 C907 1.265 . S
O890 Gd851 2.353 . S
O890 C907 1.242 . S
O891 Gd851 2.468 . S
O891 C915 1.263 . S
O892 Gd851 2.427 . S
O892 C915 1.252 . S
O893 Gd850 2.307 . S
O893 C908 1.261 . S
O894 Gd851 2.388 . S
O894 C908 1.252 . S
C895 O883 1.265 . S
C895 O884 1.242 . S
C896 O887 1.261 . S
C896 O888 1.252 . S
C897 C900 1.394 . S
C897 C902 1.370 . S
C897 C903 1.500 . S
C898 C901 1.383 . S
C898 C902 1.395 . S
C899 C900 1.396 . S
C899 C901 1.365 . S
C899 H916 0.929 . S
C900 C897 1.394 . S
C900 C899 1.396 . S
C900 H917 0.930 . S
C901 C898 1.383 . S
C901 C899 1.365 . S
C901 H918 0.931 . S
C902 C897 1.370 . S
C902 C898 1.395 . S
C902 H919 0.930 . S
C903 Gd850 2.805 . S
C903 O885 1.263 . S
C903 O886 1.252 . S
C903 C897 1.500 . S
C904 H866 0.930 . S
C904 C880 1.417 . S
C904 C905 1.329 . S
C905 C875 1.437 . S
C905 H876 0.929 . S
C905 C904 1.329 . S
H906 C879 0.931 . S
C907 O889 1.265 . S
C907 O890 1.242 . S
C908 O893 1.261 . S
C908 O894 1.252 . S
C909 C912 1.394 . S
C909 C914 1.370 . S
C909 C915 1.500 . S
C910 C913 1.383 . S
C910 C914 1.395 . S
C911 C912 1.396 . S
C911 C913 1.365 . S
C911 H920 0.929 . S
C912 C909 1.394 . S
C912 C911 1.396 . S
C912 H921 0.930 . S
C913 C910 1.383 . S
C913 C911 1.365 . S
C913 H922 0.931 . S
C914 C909 1.370 . S
C914 C910 1.395 . S
C914 H923 0.930 . S
C915 Gd851 2.805 . S
C915 O891 1.263 . S
C915 O892 1.252 . S
C915 C909 1.500 . S
H916 C899 0.929 . S
H917 C900 0.930 . S
H918 C901 0.931 . S
H919 C902 0.930 . S
H920 C911 0.929 . S
H921 C912 0.930 . S
H922 C913 0.931 . S
H923 C914 0.930 . S
C924 C926 1.422 1_565 S
C924 C928 1.415 . S
C924 N930 1.369 . S
C925 C926 1.421 . S
C925 C927 1.417 . S
C925 C937 1.422 . S
C926 C924 1.422 1_545 S
C926 C925 1.421 . S
C926 N936 1.359 . S
C927 C925 1.417 . S
C927 C929 1.329 1_545 S
C927 H946 0.930 . S
C928 C924 1.415 . S
C928 C929 1.437 . S
C928 C932 1.413 . S
C929 C927 1.329 1_565 S
C929 C928 1.437 . S
C929 H951 0.929 . S
N930 C924 1.369 . S
N930 C931 1.338 . S
N930 Gd935 2.622 . S
C931 N930 1.338 . S
C931 C933 1.378 . S
C931 H943 0.929 . S
C932 C928 1.413 . S
C932 C933 1.348 . S
C932 H948 0.931 . S
C933 C931 1.378 . S
C933 C932 1.348 . S
C933 H949 0.930 . S
Gd934 N954 2.622 . S
Gd934 N961 2.570 . S
Gd934 O968 2.353 . S
Gd934 O969 2.468 . S
Gd934 O970 2.427 . S
Gd934 O972 2.388 . S
Gd934 O973 2.386 . S
Gd934 O977 2.307 . S
Gd934 C987 2.805 . S
Gd935 N930 2.622 . S
Gd935 N936 2.570 1_565 S
Gd935 O967 2.386 . S
Gd935 O971 2.307 . S
Gd935 O974 2.353 . S
Gd935 O975 2.468 1_565 S
Gd935 O976 2.427 . S
Gd935 O978 2.388 . S
Gd935 C999 2.805 . S
N936 C926 1.359 . S
N936 Gd935 2.570 1_545 S
N936 C938 1.343 . S
C937 C925 1.422 . S
C937 C939 1.321 . S
C937 H945 0.931 . S
C938 N936 1.343 . S
C938 C939 1.390 . S
C938 H940 0.931 . S
C939 C937 1.321 . S
C939 C938 1.390 . S
C939 H941 0.930 . S
H940 C938 0.931 . S
H941 C939 0.930 . S
H942 C965 0.931 . S
H943 C931 0.929 . S
H944 C966 0.930 . S
H945 C937 0.931 . S
H946 C927 0.930 . S
H947 C956 0.929 . S
H948 C932 0.931 . S
H949 C933 0.930 . S
H950 C988 0.930 . S
H951 C929 0.929 . S
H952 C957 0.931 . S
H953 C958 0.930 1_545 S
N954 Gd934 2.622 . S
N954 C955 1.369 . S
N954 C956 1.338 . S
C955 N954 1.369 . S
C955 C959 1.415 . S
C955 C962 1.422 . S
C956 H947 0.929 . S
C956 N954 1.338 . S
C956 C958 1.378 . S
C957 H952 0.931 . S
C957 C958 1.348 . S
C957 C959 1.413 . S
C958 H953 0.930 1_565 S
C958 C956 1.378 . S
C958 C957 1.348 . S
C959 C955 1.415 . S
C959 C957 1.413 . S
C959 C989 1.437 . S
H960 C989 0.929 . S
N961 Gd934 2.570 . S
N961 C962 1.359 . S
N961 C965 1.343 . S
C962 C955 1.422 . S
C962 N961 1.359 . S
C962 C964 1.421 . S
C963 C964 1.422 . S
C963 C966 1.321 . S
C963 H990 0.931 . S
C964 C962 1.421 . S
C964 C963 1.422 . S
C964 C988 1.417 . S
C965 H942 0.931 . S
C965 N961 1.343 . S
C965 C966 1.390 . S
C966 H944 0.930 . S
C966 C963 1.321 . S
C966 C965 1.390 . S
O967 Gd935 2.386 . S
O967 C979 1.265 . S
O968 Gd934 2.353 . S
O968 C979 1.242 . S
O969 Gd934 2.468 . S
O969 C987 1.263 . S
O970 Gd934 2.427 . S
O970 C987 1.252 . S
O971 Gd935 2.307 . S
O971 C980 1.261 1_565 S
O972 Gd934 2.388 . S
O972 C980 1.252 1_565 S
O973 Gd934 2.386 . S
O973 C991 1.265 . S
O974 Gd935 2.353 . S
O974 C991 1.242 . S
O975 Gd935 2.468 1_545 S
O975 C999 1.263 1_545 S
O976 Gd935 2.427 . S
O976 C999 1.252 . S
O977 Gd934 2.307 . S
O977 C992 1.261 . S
O978 Gd935 2.388 . S
O978 C992 1.252 . S
C979 O967 1.265 . S
C979 O968 1.242 . S
C980 O971 1.261 1_545 S
C980 O972 1.252 1_545 S
C981 C984 1.394 . S
C981 C986 1.370 . S
C981 C987 1.500 . S
C982 C985 1.383 . S
C982 C986 1.395 . S
C983 C984 1.396 . S
C983 C985 1.365 . S
C983 H1000 0.929 . S
C984 C981 1.394 . S
C984 C983 1.396 . S
C984 H1001 0.930 . S
C985 C982 1.383 . S
C985 C983 1.365 . S
C985 H1002 0.931 . S
C986 C981 1.370 . S
C986 C982 1.395 . S
C986 H1003 0.930 . S
C987 Gd934 2.805 . S
C987 O969 1.263 . S
C987 O970 1.252 . S
C987 C981 1.500 . S
C988 H950 0.930 . S
C988 C964 1.417 . S
C988 C989 1.329 . S
C989 C959 1.437 . S
C989 H960 0.929 . S
C989 C988 1.329 . S
H990 C963 0.931 . S
C991 O973 1.265 . S
C991 O974 1.242 . S
C992 O977 1.261 . S
C992 O978 1.252 . S
C993 C996 1.394 1_545 S
C993 C998 1.370 . S
C993 C999 1.500 1_545 S
C994 C997 1.383 . S
C994 C998 1.395 . S
C995 C996 1.396 1_545 S
C995 C997 1.365 . S
C995 H1004 0.912 1_545 S
C996 C993 1.394 1_565 S
C996 C995 1.396 1_565 S
C996 H1005 0.930 . S
C997 C994 1.383 . S
C997 C995 1.365 . S
C997 H1006 0.931 . S
C998 C993 1.370 . S
C998 C994 1.395 . S
C998 H1007 0.930 . S
C999 Gd935 2.805 . S
C999 O975 1.263 1_565 S
C999 O976 1.252 . S
C999 C993 1.500 1_565 S
H1000 C983 0.929 . S
H1001 C984 0.930 . S
H1002 C985 0.931 . S
H1003 C986 0.930 . S
H1004 C995 0.912 1_565 S
H1005 C996 0.930 . S
H1006 C997 0.931 . S
H1007 C998 0.930 . S
C1008 C1010 1.422 . S
C1008 C1012 1.415 . S
C1008 N1014 1.369 . S
C1009 C1010 1.421 . S
C1009 C1011 1.417 . S
C1009 C1021 1.422 . S
C1010 C1008 1.422 . S
C1010 C1009 1.421 . S
C1010 N1020 1.359 . S
C1011 C1009 1.417 . S
C1011 C1013 1.329 . S
C1011 H1030 0.930 . S
C1012 C1008 1.415 . S
C1012 C1013 1.437 . S
C1012 C1016 1.413 . S
C1013 C1011 1.329 . S
C1013 C1012 1.437 . S
C1013 H1035 0.929 . S
N1014 C1008 1.369 . S
N1014 C1015 1.338 . S
N1014 Gd1019 2.622 . S
C1015 N1014 1.338 . S
C1015 C1017 1.378 . S
C1015 H1027 0.929 . S
C1016 C1012 1.413 . S
C1016 C1017 1.348 . S
C1016 H1032 0.931 . S
C1017 C1015 1.378 . S
C1017 C1016 1.348 . S
C1017 H1033 0.930 . S
Gd1018 N1038 2.622 . S
Gd1018 N1045 2.570 . S
Gd1018 O1052 2.353 . S
Gd1018 O1053 2.468 . S
Gd1018 O1054 2.427 . S
Gd1018 O1056 2.388 . S
Gd1018 O1057 2.386 . S
Gd1018 O1061 2.307 . S
Gd1018 C1071 2.805 . S
Gd1019 N1014 2.622 . S
Gd1019 N1020 2.570 . S
Gd1019 O1051 2.386 . S
Gd1019 O1055 2.307 . S
Gd1019 O1058 2.353 . S
Gd1019 O1059 2.468 . S
Gd1019 O1060 2.427 . S
Gd1019 O1062 2.388 . S
Gd1019 C1083 2.805 . S
N1020 C1010 1.359 . S
N1020 Gd1019 2.570 . S
N1020 C1022 1.343 . S
C1021 C1009 1.422 . S
C1021 C1023 1.321 . S
C1021 H1029 0.931 . S
C1022 N1020 1.343 . S
C1022 C1023 1.390 . S
C1022 H1024 0.931 . S
C1023 C1021 1.321 . S
C1023 C1022 1.390 . S
C1023 H1025 0.930 . S
H1024 C1022 0.931 . S
H1025 C1023 0.930 . S
H1026 C1049 0.931 . S
H1027 C1015 0.929 . S
H1028 C1050 0.930 . S
H1029 C1021 0.931 . S
H1030 C1011 0.930 . S
H1031 C1040 0.929 . S
H1032 C1016 0.931 . S
H1033 C1017 0.930 . S
H1034 C1072 0.930 . S
H1035 C1013 0.929 . S
H1036 C1041 0.931 . S
H1037 C1042 0.930 . S
N1038 Gd1018 2.622 . S
N1038 C1039 1.369 . S
N1038 C1040 1.338 . S
C1039 N1038 1.369 . S
C1039 C1043 1.415 . S
C1039 C1046 1.422 . S
C1040 H1031 0.929 . S
C1040 N1038 1.338 . S
C1040 C1042 1.378 . S
C1041 H1036 0.931 . S
C1041 C1042 1.348 . S
C1041 C1043 1.413 . S
C1042 H1037 0.930 . S
C1042 C1040 1.378 . S
C1042 C1041 1.348 . S
C1043 C1039 1.415 . S
C1043 C1041 1.413 . S
C1043 C1073 1.437 . S
H1044 C1073 0.929 . S
N1045 Gd1018 2.570 . S
N1045 C1046 1.359 . S
N1045 C1049 1.343 . S
C1046 C1039 1.422 . S
C1046 N1045 1.359 . S
C1046 C1048 1.421 . S
C1047 C1048 1.422 . S
C1047 C1050 1.321 . S
C1047 H1074 0.931 . S
C1048 C1046 1.421 . S
C1048 C1047 1.422 . S
C1048 C1072 1.417 . S
C1049 H1026 0.931 . S
C1049 N1045 1.343 . S
C1049 C1050 1.390 . S
C1050 H1028 0.930 . S
C1050 C1047 1.321 . S
C1050 C1049 1.390 . S
O1051 Gd1019 2.386 . S
O1051 C1063 1.265 . S
O1052 Gd1018 2.353 . S
O1052 C1063 1.242 . S
O1053 Gd1018 2.468 . S
O1053 C1071 1.263 . S
O1054 Gd1018 2.427 . S
O1054 C1071 1.252 . S
O1055 Gd1019 2.307 . S
O1055 C1064 1.261 . S
O1056 Gd1018 2.388 . S
O1056 C1064 1.252 . S
O1057 Gd1018 2.386 . S
O1057 C1075 1.265 . S
O1058 Gd1019 2.353 . S
O1058 C1075 1.242 . S
O1059 Gd1019 2.468 . S
O1059 C1083 1.263 . S
O1060 Gd1019 2.427 . S
O1060 C1083 1.252 . S
O1061 Gd1018 2.307 . S
O1061 C1076 1.261 . S
O1062 Gd1019 2.388 . S
O1062 C1076 1.252 . S
C1063 O1051 1.265 . S
C1063 O1052 1.242 . S
C1064 O1055 1.261 . S
C1064 O1056 1.252 . S
C1065 C1068 1.394 . S
C1065 C1070 1.370 . S
C1065 C1071 1.500 . S
C1066 C1069 1.383 . S
C1066 C1070 1.395 . S
C1067 C1068 1.396 . S
C1067 C1069 1.365 . S
C1067 H1084 0.929 . S
C1068 C1065 1.394 . S
C1068 C1067 1.396 . S
C1068 H1085 0.930 . S
C1069 C1066 1.383 . S
C1069 C1067 1.365 . S
C1069 H1086 0.931 . S
C1070 C1065 1.370 . S
C1070 C1066 1.395 . S
C1070 H1087 0.930 . S
C1071 Gd1018 2.805 . S
C1071 O1053 1.263 . S
C1071 O1054 1.252 . S
C1071 C1065 1.500 . S
C1072 H1034 0.930 . S
C1072 C1048 1.417 . S
C1072 C1073 1.329 . S
C1073 C1043 1.437 . S
C1073 H1044 0.929 . S
C1073 C1072 1.329 . S
H1074 C1047 0.931 . S
C1075 O1057 1.265 . S
C1075 O1058 1.242 . S
C1076 O1061 1.261 . S
C1076 O1062 1.252 . S
C1077 C1080 1.394 . S
C1077 C1082 1.370 . S
C1077 C1083 1.500 . S
C1078 C1081 1.383 . S
C1078 C1082 1.395 . S
C1079 C1080 1.396 . S
C1079 C1081 1.365 . S
C1079 H1088 0.929 . S
C1080 C1077 1.394 . S
C1080 C1079 1.396 . S
C1080 H1089 0.930 . S
C1081 C1078 1.383 . S
C1081 C1079 1.365 . S
C1081 H1090 0.931 . S
C1082 C1077 1.370 . S
C1082 C1078 1.395 . S
C1082 H1091 0.930 . S
C1083 Gd1019 2.805 . S
C1083 O1059 1.263 . S
C1083 O1060 1.252 . S
C1083 C1077 1.500 . S
H1084 C1067 0.929 . S
H1085 C1068 0.930 . S
H1086 C1069 0.931 . S
H1087 C1070 0.930 . S
H1088 C1079 0.929 . S
H1089 C1080 0.930 . S
H1090 C1081 0.931 . S
H1091 C1082 0.930 . S
C1092 C1094 1.422 . S
C1092 C1096 1.415 . S
C1092 N1098 1.369 . S
C1093 C1094 1.421 . S
C1093 C1095 1.417 . S
C1093 C1105 1.422 . S
C1094 C1092 1.422 . S
C1094 C1093 1.421 . S
C1094 N1104 1.359 . S
C1095 C1093 1.417 . S
C1095 C1097 1.329 . S
C1095 H1114 0.930 . S
C1096 C1092 1.415 . S
C1096 C1097 1.437 . S
C1096 C1100 1.413 . S
C1097 C1095 1.329 . S
C1097 C1096 1.437 . S
C1097 H1119 0.929 . S
N1098 C1092 1.369 . S
N1098 C1099 1.338 . S
N1098 Gd1103 2.622 . S
C1099 N1098 1.338 . S
C1099 C1101 1.378 . S
C1099 H1111 0.929 . S
C1100 C1096 1.413 . S
C1100 C1101 1.348 . S
C1100 H1116 0.931 . S
C1101 C1099 1.378 . S
C1101 C1100 1.348 . S
C1101 H1117 0.930 1_565 S
Gd1102 N1122 2.622 . S
Gd1102 N1129 2.570 1_565 S
Gd1102 O1136 2.353 . S
Gd1102 O1137 2.468 1_565 S
Gd1102 O1138 2.427 . S
Gd1102 O1140 2.388 . S
Gd1102 O1141 2.386 . S
Gd1102 O1145 2.307 . S
Gd1102 C1155 2.805 . S
Gd1103 N1098 2.622 . S
Gd1103 N1104 2.570 . S
Gd1103 O1135 2.386 . S
Gd1103 O1139 2.307 . S
Gd1103 O1142 2.353 . S
Gd1103 O1143 2.468 . S
Gd1103 O1144 2.427 . S
Gd1103 O1146 2.388 . S
Gd1103 C1167 2.805 . S
N1104 C1094 1.359 . S
N1104 Gd1103 2.570 . S
N1104 C1106 1.343 . S
C1105 C1093 1.422 . S
C1105 C1107 1.321 . S
C1105 H1113 0.931 . S
C1106 N1104 1.343 . S
C1106 C1107 1.390 . S
C1106 H1108 0.931 . S
C1107 C1105 1.321 . S
C1107 C1106 1.390 . S
C1107 H1109 0.930 . S
H1108 C1106 0.931 . S
H1109 C1107 0.930 . S
H1110 C1133 0.931 . S
H1111 C1099 0.929 . S
H1112 C1134 0.930 . S
H1113 C1105 0.931 . S
H1114 C1095 0.930 . S
H1115 C1124 0.929 . S
H1116 C1100 0.931 . S
H1117 C1101 0.930 1_545 S
H1118 C1156 0.930 . S
H1119 C1097 0.929 . S
H1120 C1125 0.931 . S
H1121 C1126 0.930 . S
N1122 Gd1102 2.622 . S
N1122 C1123 1.369 . S
N1122 C1124 1.338 . S
C1123 N1122 1.369 . S
C1123 C1127 1.415 1_655 S
C1123 C1130 1.422 1_565 S
C1124 H1115 0.929 . S
C1124 N1122 1.338 . S
C1124 C1126 1.378 1_655 S
C1125 H1120 0.931 . S
C1125 C1126 1.348 . S
C1125 C1127 1.413 . S
C1126 H1121 0.930 . S
C1126 C1124 1.378 1_455 S
C1126 C1125 1.348 . S
C1127 C1123 1.415 1_455 S
C1127 C1125 1.413 . S
C1127 C1157 1.437 . S
H1128 C1157 0.929 . S
N1129 Gd1102 2.570 1_545 S
N1129 C1130 1.359 . S
N1129 C1133 1.343 . S
C1130 C1123 1.422 1_545 S
C1130 N1129 1.359 . S
C1130 C1132 1.421 . S
C1131 C1132 1.422 . S
C1131 C1134 1.321 . S
C1131 H1158 0.931 . S
C1132 C1130 1.421 . S
C1132 C1131 1.422 . S
C1132 C1156 1.417 1_655 S
C1133 H1110 0.931 . S
C1133 N1129 1.343 . S
C1133 C1134 1.390 . S
C1134 H1112 0.930 . S
C1134 C1131 1.321 . S
C1134 C1133 1.390 . S
O1135 Gd1103 2.386 . S
O1135 C1147 1.265 . S
O1136 Gd1102 2.353 . S
O1136 C1147 1.242 . S
O1137 Gd1102 2.468 1_545 S
O1137 C1155 1.263 1_545 S
O1138 Gd1102 2.427 . S
O1138 C1155 1.252 . S
O1139 Gd1103 2.307 . S
O1139 C1148 1.261 . S
O1140 Gd1102 2.388 . S
O1140 C1148 1.252 . S
O1141 Gd1102 2.386 . S
O1141 C1159 1.265 . S
O1142 Gd1103 2.353 . S
O1142 C1159 1.242 . S
O1143 Gd1103 2.468 . S
O1143 C1167 1.263 . S
O1144 Gd1103 2.427 . S
O1144 C1167 1.252 . S
O1145 Gd1102 2.307 . S
O1145 C1160 1.261 1_565 S
O1146 Gd1103 2.388 . S
O1146 C1160 1.252 1_565 S
C1147 O1135 1.265 . S
C1147 O1136 1.242 . S
C1148 O1139 1.261 . S
C1148 O1140 1.252 . S
C1149 C1152 1.394 1_645 S
C1149 C1154 1.370 . S
C1149 C1155 1.500 1_545 S
C1150 C1153 1.383 . S
C1150 C1154 1.395 1_455 S
C1151 C1152 1.396 1_545 S
C1151 C1153 1.365 . S
C1151 H1168 0.912 1_545 S
C1152 C1149 1.394 1_465 S
C1152 C1151 1.396 1_565 S
C1152 H1169 0.930 . S
C1153 C1150 1.383 . S
C1153 C1151 1.365 . S
C1153 H1170 0.931 . S
C1154 C1149 1.370 . S
C1154 C1150 1.395 1_655 S
C1154 H1171 0.930 . S
C1155 Gd1102 2.805 . S
C1155 O1137 1.263 1_565 S
C1155 O1138 1.252 . S
C1155 C1149 1.500 1_565 S
C1156 H1118 0.930 . S
C1156 C1132 1.417 1_455 S
C1156 C1157 1.329 1_545 S
C1157 C1127 1.437 . S
C1157 H1128 0.929 . S
C1157 C1156 1.329 1_565 S
H1158 C1131 0.931 . S
C1159 O1141 1.265 . S
C1159 O1142 1.242 . S
C1160 O1145 1.261 1_545 S
C1160 O1146 1.252 1_545 S
C1161 C1164 1.394 . S
C1161 C1166 1.370 . S
C1161 C1167 1.500 . S
C1162 C1165 1.383 . S
C1162 C1166 1.395 . S
C1163 C1164 1.396 . S
C1163 C1165 1.365 . S
C1163 H1172 0.929 . S
C1164 C1161 1.394 . S
C1164 C1163 1.396 . S
C1164 H1173 0.930 . S
C1165 C1162 1.383 . S
C1165 C1163 1.365 . S
C1165 H1174 0.931 . S
C1166 C1161 1.370 . S
C1166 C1162 1.395 . S
C1166 H1175 0.930 . S
C1167 Gd1103 2.805 . S
C1167 O1143 1.263 . S
C1167 O1144 1.252 . S
C1167 C1161 1.500 . S
H1168 C1151 0.912 1_565 S
H1169 C1152 0.930 . S
H1170 C1153 0.931 . S
H1171 C1154 0.930 . S
H1172 C1163 0.929 . S
H1173 C1164 0.930 . S
H1174 C1165 0.931 . S
H1175 C1166 0.930 . S
C1176 C1178 1.422 . S
C1176 C1180 1.415 . S
C1176 N1182 1.369 . S
C1177 C1178 1.421 . S
C1177 C1179 1.417 . S
C1177 C1189 1.422 . S
C1178 C1176 1.422 . S
C1178 C1177 1.421 . S
C1178 N1188 1.359 . S
C1179 C1177 1.417 . S
C1179 C1181 1.329 . S
C1179 H1198 0.930 . S
C1180 C1176 1.415 . S
C1180 C1181 1.437 . S
C1180 C1184 1.413 . S
C1181 C1179 1.329 . S
C1181 C1180 1.437 . S
C1181 H1203 0.929 . S
N1182 C1176 1.369 . S
N1182 C1183 1.338 . S
N1182 Gd1187 2.622 . S
C1183 N1182 1.338 . S
C1183 C1185 1.378 . S
C1183 H1195 0.929 . S
C1184 C1180 1.413 . S
C1184 C1185 1.348 . S
C1184 H1200 0.931 . S
C1185 C1183 1.378 . S
C1185 C1184 1.348 . S
C1185 H1201 0.930 . S
Gd1186 N1206 2.622 . S
Gd1186 N1213 2.570 . S
Gd1186 O1220 2.353 . S
Gd1186 O1221 2.468 . S
Gd1186 O1222 2.427 . S
Gd1186 O1224 2.388 . S
Gd1186 O1225 2.386 . S
Gd1186 O1229 2.307 . S
Gd1186 C1239 2.805 . S
Gd1187 N1182 2.622 . S
Gd1187 N1188 2.570 . S
Gd1187 O1219 2.386 . S
Gd1187 O1223 2.307 . S
Gd1187 O1226 2.353 . S
Gd1187 O1227 2.468 . S
Gd1187 O1228 2.427 . S
Gd1187 O1230 2.388 . S
Gd1187 C1251 2.805 . S
N1188 C1178 1.359 . S
N1188 Gd1187 2.570 . S
N1188 C1190 1.343 . S
C1189 C1177 1.422 . S
C1189 C1191 1.321 . S
C1189 H1197 0.931 . S
C1190 N1188 1.343 . S
C1190 C1191 1.390 . S
C1190 H1192 0.931 . S
C1191 C1189 1.321 . S
C1191 C1190 1.390 . S
C1191 H1193 0.930 . S
H1192 C1190 0.931 . S
H1193 C1191 0.930 . S
H1194 C1217 0.931 . S
H1195 C1183 0.929 . S
H1196 C1218 0.930 . S
H1197 C1189 0.931 . S
H1198 C1179 0.930 . S
H1199 C1208 0.929 . S
H1200 C1184 0.931 . S
H1201 C1185 0.930 . S
H1202 C1240 0.930 . S
H1203 C1181 0.929 . S
H1204 C1209 0.931 . S
H1205 C1210 0.930 . S
N1206 Gd1186 2.622 . S
N1206 C1207 1.369 . S
N1206 C1208 1.338 . S
C1207 N1206 1.369 . S
C1207 C1211 1.415 . S
C1207 C1214 1.422 . S
C1208 H1199 0.929 . S
C1208 N1206 1.338 . S
C1208 C1210 1.378 . S
C1209 H1204 0.931 . S
C1209 C1210 1.348 . S
C1209 C1211 1.413 . S
C1210 H1205 0.930 . S
C1210 C1208 1.378 . S
C1210 C1209 1.348 . S
C1211 C1207 1.415 . S
C1211 C1209 1.413 . S
C1211 C1241 1.437 . S
H1212 C1241 0.929 . S
N1213 Gd1186 2.570 . S
N1213 C1214 1.359 . S
N1213 C1217 1.343 . S
C1214 C1207 1.422 . S
C1214 N1213 1.359 . S
C1214 C1216 1.421 . S
C1215 C1216 1.422 . S
C1215 C1218 1.321 . S
C1215 H1242 0.931 . S
C1216 C1214 1.421 . S
C1216 C1215 1.422 . S
C1216 C1240 1.417 . S
C1217 H1194 0.931 . S
C1217 N1213 1.343 . S
C1217 C1218 1.390 . S
C1218 H1196 0.930 . S
C1218 C1215 1.321 . S
C1218 C1217 1.390 . S
O1219 Gd1187 2.386 . S
O1219 C1231 1.265 . S
O1220 Gd1186 2.353 . S
O1220 C1231 1.242 . S
O1221 Gd1186 2.468 . S
O1221 C1239 1.263 . S
O1222 Gd1186 2.427 . S
O1222 C1239 1.252 . S
O1223 Gd1187 2.307 . S
O1223 C1232 1.261 . S
O1224 Gd1186 2.388 . S
O1224 C1232 1.252 . S
O1225 Gd1186 2.386 . S
O1225 C1243 1.265 . S
O1226 Gd1187 2.353 . S
O1226 C1243 1.242 . S
O1227 Gd1187 2.468 . S
O1227 C1251 1.263 . S
O1228 Gd1187 2.427 . S
O1228 C1251 1.252 . S
O1229 Gd1186 2.307 . S
O1229 C1244 1.261 . S
O1230 Gd1187 2.388 . S
O1230 C1244 1.252 . S
C1231 O1219 1.265 . S
C1231 O1220 1.242 . S
C1232 O1223 1.261 . S
C1232 O1224 1.252 . S
C1233 C1236 1.394 . S
C1233 C1238 1.370 . S
C1233 C1239 1.500 . S
C1234 C1237 1.383 . S
C1234 C1238 1.395 . S
C1235 C1236 1.396 . S
C1235 C1237 1.365 . S
C1235 H1252 0.929 . S
C1236 C1233 1.394 . S
C1236 C1235 1.396 . S
C1236 H1253 0.930 . S
C1237 C1234 1.383 . S
C1237 C1235 1.365 . S
C1237 H1254 0.931 . S
C1238 C1233 1.370 . S
C1238 C1234 1.395 . S
C1238 H1255 0.930 . S
C1239 Gd1186 2.805 . S
C1239 O1221 1.263 . S
C1239 O1222 1.252 . S
C1239 C1233 1.500 . S
C1240 H1202 0.930 . S
C1240 C1216 1.417 . S
C1240 C1241 1.329 . S
C1241 C1211 1.437 . S
C1241 H1212 0.929 . S
C1241 C1240 1.329 . S
H1242 C1215 0.931 . S
C1243 O1225 1.265 . S
C1243 O1226 1.242 . S
C1244 O1229 1.261 . S
C1244 O1230 1.252 . S
C1245 C1248 1.394 . S
C1245 C1250 1.370 . S
C1245 C1251 1.500 . S
C1246 C1249 1.383 . S
C1246 C1250 1.395 . S
C1247 C1248 1.396 . S
C1247 C1249 1.365 . S
C1247 H1256 0.929 . S
C1248 C1245 1.394 . S
C1248 C1247 1.396 . S
C1248 H1257 0.930 . S
C1249 C1246 1.383 . S
C1249 C1247 1.365 . S
C1249 H1258 0.931 . S
C1250 C1245 1.370 . S
C1250 C1246 1.395 . S
C1250 H1259 0.930 . S
C1251 Gd1187 2.805 . S
C1251 O1227 1.263 . S
C1251 O1228 1.252 . S
C1251 C1245 1.500 . S
H1252 C1235 0.929 . S
H1253 C1236 0.930 . S
H1254 C1237 0.931 . S
H1255 C1238 0.930 . S
H1256 C1247 0.929 . S
H1257 C1248 0.930 . S
H1258 C1249 0.931 . S
H1259 C1250 0.930 . S
C1260 C1262 1.422 . S
C1260 C1264 1.415 . S
C1260 N1266 1.369 . S
C1261 C1262 1.421 . S
C1261 C1263 1.417 . S
C1261 C1273 1.422 . S
C1262 C1260 1.422 . S
C1262 C1261 1.421 . S
C1262 N1272 1.359 . S
C1263 C1261 1.417 . S
C1263 C1265 1.329 . S
C1263 H1282 0.930 . S
C1264 C1260 1.415 . S
C1264 C1265 1.437 . S
C1264 C1268 1.413 . S
C1265 C1263 1.329 . S
C1265 C1264 1.437 . S
C1265 H1287 0.929 . S
N1266 C1260 1.369 . S
N1266 C1267 1.338 . S
N1266 Gd1271 2.622 . S
C1267 N1266 1.338 . S
C1267 C1269 1.378 . S
C1267 H1279 0.929 . S
C1268 C1264 1.413 . S
C1268 C1269 1.348 . S
C1268 H1284 0.931 . S
C1269 C1267 1.378 . S
C1269 C1268 1.348 . S
C1269 H1285 0.930 1_545 S
Gd1270 N1290 2.622 . S
Gd1270 N1297 2.570 1_545 S
Gd1270 O1304 2.353 . S
Gd1270 O1305 2.468 1_545 S
Gd1270 O1306 2.427 . S
Gd1270 O1308 2.388 . S
Gd1270 O1309 2.386 . S
Gd1270 O1313 2.307 . S
Gd1270 C1323 2.805 . S
Gd1271 N1266 2.622 . S
Gd1271 N1272 2.570 . S
Gd1271 O1303 2.386 . S
Gd1271 O1307 2.307 . S
Gd1271 O1310 2.353 . S
Gd1271 O1311 2.468 . S
Gd1271 O1312 2.427 . S
Gd1271 O1314 2.388 . S
Gd1271 C1335 2.805 . S
N1272 C1262 1.359 . S
N1272 Gd1271 2.570 . S
N1272 C1274 1.343 . S
C1273 C1261 1.422 . S
C1273 C1275 1.321 . S
C1273 H1281 0.931 . S
C1274 N1272 1.343 . S
C1274 C1275 1.390 . S
C1274 H1276 0.931 . S
C1275 C1273 1.321 . S
C1275 C1274 1.390 . S
C1275 H1277 0.930 . S
H1276 C1274 0.931 . S
H1277 C1275 0.930 . S
H1278 C1301 0.931 . S
H1279 C1267 0.929 . S
H1280 C1302 0.930 . S
H1281 C1273 0.931 . S
H1282 C1263 0.930 . S
H1283 C1292 0.929 . S
H1284 C1268 0.931 . S
H1285 C1269 0.930 1_565 S
H1286 C1324 0.930 . S
H1287 C1265 0.929 . S
H1288 C1293 0.931 . S
H1289 C1294 0.930 . S
N1290 Gd1270 2.622 . S
N1290 C1291 1.369 . S
N1290 C1292 1.338 . S
C1291 N1290 1.369 . S
C1291 C1295 1.415 . S
C1291 C1298 1.422 1_545 S
C1292 H1283 0.929 . S
C1292 N1290 1.338 . S
C1292 C1294 1.378 . S
C1293 H1288 0.931 . S
C1293 C1294 1.348 . S
C1293 C1295 1.413 . S
C1294 H1289 0.930 . S
C1294 C1292 1.378 . S
C1294 C1293 1.348 . S
C1295 C1291 1.415 . S
C1295 C1293 1.413 . S
C1295 C1325 1.437 . S
H1296 C1325 0.929 . S
N1297 Gd1270 2.570 1_565 S
N1297 C1298 1.359 . S
N1297 C1301 1.343 . S
C1298 C1291 1.422 1_565 S
C1298 N1297 1.359 . S
C1298 C1300 1.421 . S
C1299 C1300 1.422 . S
C1299 C1302 1.321 . S
C1299 H1326 0.931 . S
C1300 C1298 1.421 . S
C1300 C1299 1.422 . S
C1300 C1324 1.417 . S
C1301 H1278 0.931 . S
C1301 N1297 1.343 . S
C1301 C1302 1.390 . S
C1302 H1280 0.930 . S
C1302 C1299 1.321 . S
C1302 C1301 1.390 . S
O1303 Gd1271 2.386 . S
O1303 C1315 1.265 . S
O1304 Gd1270 2.353 . S
O1304 C1315 1.242 . S
O1305 Gd1270 2.468 1_565 S
O1305 C1323 1.263 1_565 S
O1306 Gd1270 2.427 . S
O1306 C1323 1.252 . S
O1307 Gd1271 2.307 . S
O1307 C1316 1.261 . S
O1308 Gd1270 2.388 . S
O1308 C1316 1.252 . S
O1309 Gd1270 2.386 . S
O1309 C1327 1.265 . S
O1310 Gd1271 2.353 . S
O1310 C1327 1.242 . S
O1311 Gd1271 2.468 . S
O1311 C1335 1.263 . S
O1312 Gd1271 2.427 . S
O1312 C1335 1.252 . S
O1313 Gd1270 2.307 . S
O1313 C1328 1.261 1_545 S
O1314 Gd1271 2.388 . S
O1314 C1328 1.252 1_545 S
C1315 O1303 1.265 . S
C1315 O1304 1.242 . S
C1316 O1307 1.261 . S
C1316 O1308 1.252 . S
C1317 C1320 1.394 1_565 S
C1317 C1322 1.370 . S
C1317 C1323 1.500 1_565 S
C1318 C1321 1.383 . S
C1318 C1322 1.395 . S
C1319 C1320 1.396 1_565 S
C1319 C1321 1.365 . S
C1319 H1336 0.912 1_565 S
C1320 C1317 1.394 1_545 S
C1320 C1319 1.396 1_545 S
C1320 H1337 0.930 . S
C1321 C1318 1.383 . S
C1321 C1319 1.365 . S
C1321 H1338 0.931 . S
C1322 C1317 1.370 . S
C1322 C1318 1.395 . S
C1322 H1339 0.930 . S
C1323 Gd1270 2.805 . S
C1323 O1305 1.263 1_545 S
C1323 O1306 1.252 . S
C1323 C1317 1.500 1_545 S
C1324 H1286 0.930 . S
C1324 C1300 1.417 . S
C1324 C1325 1.329 1_565 S
C1325 C1295 1.437 . S
C1325 H1296 0.929 . S
C1325 C1324 1.329 1_545 S
H1326 C1299 0.931 . S
C1327 O1309 1.265 . S
C1327 O1310 1.242 . S
C1328 O1313 1.261 1_565 S
C1328 O1314 1.252 1_565 S
C1329 C1332 1.394 . S
C1329 C1334 1.370 . S
C1329 C1335 1.500 . S
C1330 C1333 1.383 . S
C1330 C1334 1.395 . S
C1331 C1332 1.396 . S
C1331 C1333 1.365 . S
C1331 H1340 0.929 . S
C1332 C1329 1.394 . S
C1332 C1331 1.396 . S
C1332 H1341 0.930 . S
C1333 C1330 1.383 . S
C1333 C1331 1.365 . S
C1333 H1342 0.931 . S
C1334 C1329 1.370 . S
C1334 C1330 1.395 . S
C1334 H1343 0.930 . S
C1335 Gd1271 2.805 . S
C1335 O1311 1.263 . S
C1335 O1312 1.252 . S
C1335 C1329 1.500 . S
H1336 C1319 0.912 1_545 S
H1337 C1320 0.930 . S
H1338 C1321 0.931 . S
H1339 C1322 0.930 . S
H1340 C1331 0.929 . S
H1341 C1332 0.930 . S
H1342 C1333 0.931 . S
H1343 C1334 0.930 . S
H1344 C1362 0.951 . S
H1345 C1364 0.951 . S
H1346 C1366 0.950 . S
H1347 C1367 0.950 . S
H1348 C1369 0.950 . S
H1349 C1372 0.950 . S
H1350 C1373 0.950 . S
H1351 C1375 0.950 . S
H1352 C1376 0.950 . S
H1353 C1377 0.951 . S
H1354 C1379 0.951 . S
H1355 C1381 0.950 . S
H1356 C1382 0.950 . S
H1357 C1384 0.950 . S
H1358 C1387 0.950 . S
H1359 C1388 0.950 . S
H1360 C1390 0.950 . S
H1361 C1391 0.950 . S
C1362 H1344 0.951 . S
C1362 C1363 1.366 . S
C1362 C1364 1.388 . S
C1363 C1362 1.366 . S
C1363 C1367 1.385 . S
C1364 H1345 0.951 . S
C1364 C1362 1.388 . S
C1364 C1365 1.366 . S
C1365 C1364 1.366 . S
C1365 C1366 1.414 . S
C1365 C1368 1.499 . S
C1366 H1346 0.950 . S
C1366 C1365 1.414 . S
C1366 C1367 1.374 . S
C1367 H1347 0.950 . S
C1367 C1363 1.385 . S
C1367 C1366 1.374 . S
C1368 C1365 1.499 . S
C1368 C1369 1.373 . S
C1368 C1370 1.389 . S
C1369 H1348 0.950 . S
C1369 C1368 1.373 . S
C1369 C1385 1.377 . S
C1370 C1368 1.389 . S
C1370 C1371 1.524 . S
C1370 C1384 1.377 . S
C1371 C1370 1.524 . S
C1371 C1372 1.397 . S
C1371 C1376 1.363 . S
C1372 H1349 0.950 . S
C1372 C1371 1.397 . S
C1372 C1373 1.334 . S
C1373 H1350 0.950 . S
C1373 C1372 1.334 . S
C1373 C1374 1.287 . S
C1374 C1373 1.287 . S
C1374 C1375 1.524 . S
C1374 H1393 0.913 . S
C1375 H1351 0.950 . S
C1375 C1374 1.524 . S
C1375 C1376 1.415 . S
C1376 H1352 0.950 . S
C1376 C1371 1.363 . S
C1376 C1375 1.415 . S
C1377 H1353 0.951 . S
C1377 C1378 1.366 . S
C1377 C1379 1.388 . S
C1378 C1377 1.366 . S
C1378 C1382 1.385 . S
C1379 H1354 0.951 . S
C1379 C1377 1.388 . S
C1379 C1380 1.366 . S
C1380 C1379 1.366 . S
C1380 C1381 1.414 . S
C1380 C1383 1.499 . S
C1381 H1355 0.950 . S
C1381 C1380 1.414 . S
C1381 C1382 1.374 . S
C1382 H1356 0.950 . S
C1382 C1378 1.385 . S
C1382 C1381 1.374 . S
C1383 C1380 1.499 . S
C1383 C1384 1.373 . S
C1383 C1385 1.389 . S
C1384 H1357 0.950 . S
C1384 C1370 1.377 . S
C1384 C1383 1.373 . S
C1385 C1369 1.377 . S
C1385 C1383 1.389 . S
C1385 C1386 1.524 . S
C1386 C1385 1.524 . S
C1386 C1387 1.397 . S
C1386 C1391 1.363 . S
C1387 H1358 0.950 . S
C1387 C1386 1.397 . S
C1387 C1388 1.334 . S
C1388 H1359 0.950 . S
C1388 C1387 1.334 . S
C1388 C1389 1.287 . S
C1389 C1388 1.287 . S
C1389 C1390 1.524 . S
C1389 H1392 0.999 . S
C1390 H1360 0.950 . S
C1390 C1389 1.524 . S
C1390 C1391 1.415 . S
C1391 H1361 0.950 . S
C1391 C1386 1.363 . S
C1391 C1390 1.415 . S
H1392 C1389 0.999 . S
H1393 C1374 0.913 . S
H1394 C1412 0.951 . S
H1395 C1414 0.951 . S
H1396 C1416 0.950 . S
H1397 C1417 0.950 . S
H1398 C1419 0.950 . S
H1399 C1422 0.950 . S
H1400 C1423 0.950 . S
H1401 C1425 0.950 . S
H1402 C1426 0.950 . S
H1403 C1427 0.951 . S
H1404 C1429 0.951 . S
H1405 C1431 0.950 . S
H1406 C1432 0.950 . S
H1407 C1434 0.950 . S
H1408 C1437 0.950 . S
H1409 C1438 0.950 . S
H1410 C1440 0.950 . S
H1411 C1441 0.950 . S
C1412 H1394 0.951 . S
C1412 C1413 1.366 . S
C1412 C1414 1.388 . S
C1413 C1412 1.366 . S
C1413 C1417 1.385 . S
C1414 H1395 0.951 . S
C1414 C1412 1.388 . S
C1414 C1415 1.366 . S
C1415 C1414 1.366 . S
C1415 C1416 1.414 . S
C1415 C1418 1.499 . S
C1416 H1396 0.950 . S
C1416 C1415 1.414 . S
C1416 C1417 1.374 . S
C1417 H1397 0.950 . S
C1417 C1413 1.385 . S
C1417 C1416 1.374 . S
C1418 C1415 1.499 . S
C1418 C1419 1.373 . S
C1418 C1420 1.389 . S
C1419 H1398 0.950 . S
C1419 C1418 1.373 . S
C1419 C1435 1.377 . S
C1420 C1418 1.389 . S
C1420 C1421 1.524 . S
C1420 C1434 1.377 . S
C1421 C1420 1.524 . S
C1421 C1422 1.397 . S
C1421 C1426 1.363 . S
C1422 H1399 0.950 . S
C1422 C1421 1.397 . S
C1422 C1423 1.334 . S
C1423 H1400 0.950 . S
C1423 C1422 1.334 . S
C1423 C1424 1.287 . S
C1424 C1423 1.287 . S
C1424 C1425 1.524 . S
C1424 H1443 0.913 . S
C1425 H1401 0.950 . S
C1425 C1424 1.524 . S
C1425 C1426 1.415 . S
C1426 H1402 0.950 . S
C1426 C1421 1.363 . S
C1426 C1425 1.415 . S
C1427 H1403 0.951 . S
C1427 C1428 1.366 . S
C1427 C1429 1.388 . S
C1428 C1427 1.366 . S
C1428 C1432 1.385 . S
C1429 H1404 0.951 . S
C1429 C1427 1.388 . S
C1429 C1430 1.366 . S
C1430 C1429 1.366 . S
C1430 C1431 1.414 . S
C1430 C1433 1.499 . S
C1431 H1405 0.950 . S
C1431 C1430 1.414 . S
C1431 C1432 1.374 . S
C1432 H1406 0.950 . S
C1432 C1428 1.385 . S
C1432 C1431 1.374 . S
C1433 C1430 1.499 . S
C1433 C1434 1.373 . S
C1433 C1435 1.389 . S
C1434 H1407 0.950 . S
C1434 C1420 1.377 . S
C1434 C1433 1.373 . S
C1435 C1419 1.377 . S
C1435 C1433 1.389 . S
C1435 C1436 1.524 . S
C1436 C1435 1.524 . S
C1436 C1437 1.397 . S
C1436 C1441 1.363 . S
C1437 H1408 0.950 . S
C1437 C1436 1.397 . S
C1437 C1438 1.334 . S
C1438 H1409 0.950 . S
C1438 C1437 1.334 . S
C1438 C1439 1.287 . S
C1439 C1438 1.287 . S
C1439 C1440 1.524 . S
C1439 H1442 0.999 . S
C1440 H1410 0.950 . S
C1440 C1439 1.524 . S
C1440 C1441 1.415 . S
C1441 H1411 0.950 . S
C1441 C1436 1.363 . S
C1441 C1440 1.415 . S
H1442 C1439 0.999 . S
H1443 C1424 0.913 . S
H1444 C1462 0.951 . S
H1445 C1464 0.951 . S
H1446 C1466 0.950 . S
H1447 C1467 0.950 . S
H1448 C1469 0.950 . S
H1449 C1472 0.950 . S
H1450 C1473 0.950 . S
H1451 C1475 0.950 . S
H1452 C1476 0.950 . S
H1453 C1477 0.951 . S
H1454 C1479 0.951 . S
H1455 C1481 0.950 . S
H1456 C1482 0.950 . S
H1457 C1484 0.950 . S
H1458 C1487 0.950 . S
H1459 C1488 0.950 . S
H1460 C1490 0.950 . S
H1461 C1491 0.950 . S
C1462 H1444 0.951 . S
C1462 C1463 1.366 . S
C1462 C1464 1.388 . S
C1463 C1462 1.366 . S
C1463 C1467 1.385 . S
C1464 H1445 0.951 . S
C1464 C1462 1.388 . S
C1464 C1465 1.366 . S
C1465 C1464 1.366 . S
C1465 C1466 1.414 . S
C1465 C1468 1.499 . S
C1466 H1446 0.950 . S
C1466 C1465 1.414 . S
C1466 C1467 1.374 . S
C1467 H1447 0.950 . S
C1467 C1463 1.385 . S
C1467 C1466 1.374 . S
C1468 C1465 1.499 . S
C1468 C1469 1.373 . S
C1468 C1470 1.389 . S
C1469 H1448 0.950 . S
C1469 C1468 1.373 . S
C1469 C1485 1.377 1_455 S
C1470 C1468 1.389 . S
C1470 C1471 1.524 . S
C1470 C1484 1.377 1_455 S
C1471 C1470 1.524 . S
C1471 C1472 1.397 . S
C1471 C1476 1.363 . S
C1472 H1449 0.950 . S
C1472 C1471 1.397 . S
C1472 C1473 1.334 . S
C1473 H1450 0.950 . S
C1473 C1472 1.334 . S
C1473 C1474 1.287 . S
C1474 C1473 1.287 . S
C1474 C1475 1.524 . S
C1474 H1493 0.913 . S
C1475 H1451 0.950 . S
C1475 C1474 1.524 . S
C1475 C1476 1.415 . S
C1476 H1452 0.950 . S
C1476 C1471 1.363 . S
C1476 C1475 1.415 . S
C1477 H1453 0.951 . S
C1477 C1478 1.366 . S
C1477 C1479 1.388 . S
C1478 C1477 1.366 . S
C1478 C1482 1.385 . S
C1479 H1454 0.951 . S
C1479 C1477 1.388 . S
C1479 C1480 1.366 . S
C1480 C1479 1.366 . S
C1480 C1481 1.414 . S
C1480 C1483 1.499 . S
C1481 H1455 0.950 . S
C1481 C1480 1.414 . S
C1481 C1482 1.374 . S
C1482 H1456 0.950 . S
C1482 C1478 1.385 . S
C1482 C1481 1.374 . S
C1483 C1480 1.499 . S
C1483 C1484 1.373 . S
C1483 C1485 1.389 . S
C1484 H1457 0.950 . S
C1484 C1470 1.377 1_655 S
C1484 C1483 1.373 . S
C1485 C1469 1.377 1_655 S
C1485 C1483 1.389 . S
C1485 C1486 1.524 . S
C1486 C1485 1.524 . S
C1486 C1487 1.397 . S
C1486 C1491 1.363 . S
C1487 H1458 0.950 . S
C1487 C1486 1.397 . S
C1487 C1488 1.334 . S
C1488 H1459 0.950 . S
C1488 C1487 1.334 . S
C1488 C1489 1.287 . S
C1489 C1488 1.287 . S
C1489 C1490 1.524 . S
C1489 H1492 0.999 . S
C1490 H1460 0.950 . S
C1490 C1489 1.524 . S
C1490 C1491 1.415 . S
C1491 H1461 0.950 . S
C1491 C1486 1.363 . S
C1491 C1490 1.415 . S
H1492 C1489 0.999 . S
H1493 C1474 0.913 . S
H1494 C1512 0.951 . S
H1495 C1514 0.951 1_655 S
H1496 C1516 0.950 . S
H1497 C1517 0.950 . S
H1498 C1519 0.950 . S
H1499 C1522 0.950 1_455 S
H1500 C1523 0.950 . S
H1501 C1525 0.950 . S
H1502 C1526 0.950 . S
H1503 C1527 0.951 . S
H1504 C1529 0.951 1_455 S
H1505 C1531 0.950 . S
H1506 C1532 0.950 . S
H1507 C1534 0.950 . S
H1508 C1537 0.950 1_655 S
H1509 C1538 0.950 . S
H1510 C1540 0.950 . S
H1511 C1541 0.950 . S
C1512 H1494 0.951 . S
C1512 C1513 1.366 . S
C1512 C1514 1.388 . S
C1513 C1512 1.366 . S
C1513 C1517 1.385 . S
C1514 H1495 0.951 1_455 S
C1514 C1512 1.388 . S
C1514 C1515 1.366 . S
C1515 C1514 1.366 . S
C1515 C1516 1.414 . S
C1515 C1518 1.499 . S
C1516 H1496 0.950 . S
C1516 C1515 1.414 . S
C1516 C1517 1.374 . S
C1517 H1497 0.950 . S
C1517 C1513 1.385 . S
C1517 C1516 1.374 . S
C1518 C1515 1.499 . S
C1518 C1519 1.373 . S
C1518 C1520 1.389 1_455 S
C1519 H1498 0.950 . S
C1519 C1518 1.373 . S
C1519 C1535 1.377 . S
C1520 C1518 1.389 1_655 S
C1520 C1521 1.524 . S
C1520 C1534 1.377 . S
C1521 C1520 1.524 . S
C1521 C1522 1.397 . S
C1521 C1526 1.363 . S
C1522 H1499 0.950 1_655 S
C1522 C1521 1.397 . S
C1522 C1523 1.334 . S
C1523 H1500 0.950 . S
C1523 C1522 1.334 . S
C1523 C1524 1.287 . S
C1524 C1523 1.287 . S
C1524 C1525 1.524 . S
C1524 H1543 0.913 . S
C1525 H1501 0.950 . S
C1525 C1524 1.524 . S
C1525 C1526 1.415 . S
C1526 H1502 0.950 . S
C1526 C1521 1.363 . S
C1526 C1525 1.415 . S
C1527 H1503 0.951 . S
C1527 C1528 1.366 . S
C1527 C1529 1.388 . S
C1528 C1527 1.366 . S
C1528 C1532 1.385 . S
C1529 H1504 0.951 1_655 S
C1529 C1527 1.388 . S
C1529 C1530 1.366 . S
C1530 C1529 1.366 . S
C1530 C1531 1.414 . S
C1530 C1533 1.499 . S
C1531 H1505 0.950 . S
C1531 C1530 1.414 . S
C1531 C1532 1.374 . S
C1532 H1506 0.950 . S
C1532 C1528 1.385 . S
C1532 C1531 1.374 . S
C1533 C1530 1.499 . S
C1533 C1534 1.373 . S
C1533 C1535 1.389 1_655 S
C1534 H1507 0.950 . S
C1534 C1520 1.377 . S
C1534 C1533 1.373 . S
C1535 C1519 1.377 . S
C1535 C1533 1.389 1_455 S
C1535 C1536 1.524 . S
C1536 C1535 1.524 . S
C1536 C1537 1.397 . S
C1536 C1541 1.363 . S
C1537 H1508 0.950 1_455 S
C1537 C1536 1.397 . S
C1537 C1538 1.334 . S
C1538 H1509 0.950 . S
C1538 C1537 1.334 . S
C1538 C1539 1.287 . S
C1539 C1538 1.287 . S
C1539 C1540 1.524 . S
C1539 H1542 0.999 . S
C1540 H1510 0.950 . S
C1540 C1539 1.524 . S
C1540 C1541 1.415 . S
C1541 H1511 0.950 . S
C1541 C1536 1.363 . S
C1541 C1540 1.415 . S
H1542 C1539 0.999 . S
H1543 C1524 0.913 . S
H1544 C1562 0.951 . S
H1545 C1564 0.951 . S
H1546 C1566 0.950 . S
H1547 C1567 0.950 . S
H1548 C1569 0.950 . S
H1549 C1572 0.950 . S
H1550 C1573 0.950 . S
H1551 C1575 0.950 . S
H1552 C1576 0.950 . S
H1553 C1577 0.951 . S
H1554 C1579 0.951 . S
H1555 C1581 0.950 . S
H1556 C1582 0.950 . S
H1557 C1584 0.950 . S
H1558 C1587 0.950 . S
H1559 C1588 0.950 . S
H1560 C1590 0.950 . S
H1561 C1591 0.950 . S
C1562 H1544 0.951 . S
C1562 C1563 1.366 . S
C1562 C1564 1.388 . S
C1563 C1562 1.366 . S
C1563 C1567 1.385 . S
C1564 H1545 0.951 . S
C1564 C1562 1.388 . S
C1564 C1565 1.366 . S
C1565 C1564 1.366 . S
C1565 C1566 1.414 . S
C1565 C1568 1.499 . S
C1566 H1546 0.950 . S
C1566 C1565 1.414 . S
C1566 C1567 1.374 . S
C1567 H1547 0.950 . S
C1567 C1563 1.385 . S
C1567 C1566 1.374 . S
C1568 C1565 1.499 . S
C1568 C1569 1.373 . S
C1568 C1570 1.389 . S
C1569 H1548 0.950 . S
C1569 C1568 1.373 . S
C1569 C1585 1.377 . S
C1570 C1568 1.389 . S
C1570 C1571 1.524 . S
C1570 C1584 1.377 . S
C1571 C1570 1.524 . S
C1571 C1572 1.397 . S
C1571 C1576 1.363 . S
C1572 H1549 0.950 . S
C1572 C1571 1.397 . S
C1572 C1573 1.334 . S
C1573 H1550 0.950 . S
C1573 C1572 1.334 . S
C1573 C1574 1.287 . S
C1574 C1573 1.287 . S
C1574 C1575 1.524 . S
C1574 H1593 0.913 . S
C1575 H1551 0.950 . S
C1575 C1574 1.524 . S
C1575 C1576 1.415 . S
C1576 H1552 0.950 . S
C1576 C1571 1.363 . S
C1576 C1575 1.415 . S
C1577 H1553 0.951 . S
C1577 C1578 1.366 . S
C1577 C1579 1.388 . S
C1578 C1577 1.366 . S
C1578 C1582 1.385 . S
C1579 H1554 0.951 . S
C1579 C1577 1.388 . S
C1579 C1580 1.366 . S
C1580 C1579 1.366 . S
C1580 C1581 1.414 . S
C1580 C1583 1.499 . S
C1581 H1555 0.950 . S
C1581 C1580 1.414 . S
C1581 C1582 1.374 . S
C1582 H1556 0.950 . S
C1582 C1578 1.385 . S
C1582 C1581 1.374 . S
C1583 C1580 1.499 . S
C1583 C1584 1.373 . S
C1583 C1585 1.389 . S
C1584 H1557 0.950 . S
C1584 C1570 1.377 . S
C1584 C1583 1.373 . S
C1585 C1569 1.377 . S
C1585 C1583 1.389 . S
C1585 C1586 1.524 . S
C1586 C1585 1.524 . S
C1586 C1587 1.397 . S
C1586 C1591 1.363 . S
C1587 H1558 0.950 . S
C1587 C1586 1.397 . S
C1587 C1588 1.334 . S
C1588 H1559 0.950 . S
C1588 C1587 1.334 . S
C1588 C1589 1.287 . S
C1589 C1588 1.287 . S
C1589 C1590 1.524 . S
C1589 H1592 0.999 . S
C1590 H1560 0.950 . S
C1590 C1589 1.524 . S
C1590 C1591 1.415 . S
C1591 H1561 0.950 . S
C1591 C1586 1.363 . S
C1591 C1590 1.415 . S
H1592 C1589 0.999 . S
H1593 C1574 0.913 . S
H1594 C1612 0.951 . S
H1595 C1614 0.951 . S
H1596 C1616 0.950 . S
H1597 C1617 0.950 . S
H1598 C1619 0.950 . S
H1599 C1622 0.950 . S
H1600 C1623 0.950 . S
H1601 C1625 0.950 . S
H1602 C1626 0.950 . S
H1603 C1627 0.951 . S
H1604 C1629 0.951 . S
H1605 C1631 0.950 . S
H1606 C1632 0.950 . S
H1607 C1634 0.950 . S
H1608 C1637 0.950 . S
H1609 C1638 0.950 . S
H1610 C1640 0.950 . S
H1611 C1641 0.950 . S
C1612 H1594 0.951 . S
C1612 C1613 1.366 . S
C1612 C1614 1.388 . S
C1613 C1612 1.366 . S
C1613 C1617 1.385 . S
C1614 H1595 0.951 . S
C1614 C1612 1.388 . S
C1614 C1615 1.366 . S
C1615 C1614 1.366 . S
C1615 C1616 1.414 . S
C1615 C1618 1.499 . S
C1616 H1596 0.950 . S
C1616 C1615 1.414 . S
C1616 C1617 1.374 . S
C1617 H1597 0.950 . S
C1617 C1613 1.385 . S
C1617 C1616 1.374 . S
C1618 C1615 1.499 . S
C1618 C1619 1.373 . S
C1618 C1620 1.389 . S
C1619 H1598 0.950 . S
C1619 C1618 1.373 . S
C1619 C1635 1.377 . S
C1620 C1618 1.389 . S
C1620 C1621 1.524 . S
C1620 C1634 1.377 . S
C1621 C1620 1.524 . S
C1621 C1622 1.397 . S
C1621 C1626 1.363 . S
C1622 H1599 0.950 . S
C1622 C1621 1.397 . S
C1622 C1623 1.334 . S
C1623 H1600 0.950 . S
C1623 C1622 1.334 . S
C1623 C1624 1.287 . S
C1624 C1623 1.287 . S
C1624 C1625 1.524 . S
C1624 H1643 0.913 . S
C1625 H1601 0.950 . S
C1625 C1624 1.524 . S
C1625 C1626 1.415 . S
C1626 H1602 0.950 . S
C1626 C1621 1.363 . S
C1626 C1625 1.415 . S
C1627 H1603 0.951 . S
C1627 C1628 1.366 . S
C1627 C1629 1.388 . S
C1628 C1627 1.366 . S
C1628 C1632 1.385 . S
C1629 H1604 0.951 . S
C1629 C1627 1.388 . S
C1629 C1630 1.366 . S
C1630 C1629 1.366 . S
C1630 C1631 1.414 . S
C1630 C1633 1.499 . S
C1631 H1605 0.950 . S
C1631 C1630 1.414 . S
C1631 C1632 1.374 . S
C1632 H1606 0.950 . S
C1632 C1628 1.385 . S
C1632 C1631 1.374 . S
C1633 C1630 1.499 . S
C1633 C1634 1.373 . S
C1633 C1635 1.389 . S
C1634 H1607 0.950 . S
C1634 C1620 1.377 . S
C1634 C1633 1.373 . S
C1635 C1619 1.377 . S
C1635 C1633 1.389 . S
C1635 C1636 1.524 . S
C1636 C1635 1.524 . S
C1636 C1637 1.397 . S
C1636 C1641 1.363 . S
C1637 H1608 0.950 . S
C1637 C1636 1.397 . S
C1637 C1638 1.334 . S
C1638 H1609 0.950 . S
C1638 C1637 1.334 . S
C1638 C1639 1.287 . S
C1639 C1638 1.287 . S
C1639 C1640 1.524 . S
C1639 H1642 0.999 . S
C1640 H1610 0.950 . S
C1640 C1639 1.524 . S
C1640 C1641 1.415 . S
C1641 H1611 0.950 . S
C1641 C1636 1.363 . S
C1641 C1640 1.415 . S
H1642 C1639 0.999 . S
H1643 C1624 0.913 . S
H1644 C1662 0.951 . S
H1645 C1664 0.951 . S
H1646 C1666 0.950 . S
H1647 C1667 0.950 . S
H1648 C1669 0.950 . S
H1649 C1672 0.950 . S
H1650 C1673 0.950 . S
H1651 C1675 0.950 . S
H1652 C1676 0.950 . S
H1653 C1677 0.951 . S
H1654 C1679 0.951 . S
H1655 C1681 0.950 . S
H1656 C1682 0.950 . S
H1657 C1684 0.950 . S
H1658 C1687 0.950 . S
H1659 C1688 0.950 . S
H1660 C1690 0.950 . S
H1661 C1691 0.950 . S
C1662 H1644 0.951 . S
C1662 C1663 1.366 . S
C1662 C1664 1.388 . S
C1663 C1662 1.366 . S
C1663 C1667 1.385 . S
C1664 H1645 0.951 . S
C1664 C1662 1.388 . S
C1664 C1665 1.366 . S
C1665 C1664 1.366 . S
C1665 C1666 1.414 . S
C1665 C1668 1.499 . S
C1666 H1646 0.950 . S
C1666 C1665 1.414 . S
C1666 C1667 1.374 . S
C1667 H1647 0.950 . S
C1667 C1663 1.385 . S
C1667 C1666 1.374 . S
C1668 C1665 1.499 . S
C1668 C1669 1.373 . S
C1668 C1670 1.391 . S
C1669 H1648 0.950 . S
C1669 C1668 1.373 . S
C1669 C1685 1.375 1_455 S
C1670 C1668 1.391 . S
C1670 C1671 1.524 1_455 S
C1670 C1684 1.375 1_455 S
C1671 C1670 1.524 1_655 S
C1671 C1672 1.397 1_655 S
C1671 C1676 1.363 . S
C1672 H1649 0.950 . S
C1672 C1671 1.397 1_455 S
C1672 C1673 1.334 . S
C1673 H1650 0.950 . S
C1673 C1672 1.334 . S
C1673 C1674 1.287 1_455 S
C1674 C1673 1.287 1_655 S
C1674 C1675 1.524 . S
C1674 H1693 0.913 . S
C1675 H1651 0.950 . S
C1675 C1674 1.524 . S
C1675 C1676 1.415 . S
C1676 H1652 0.950 . S
C1676 C1671 1.363 . S
C1676 C1675 1.415 . S
C1677 H1653 0.951 . S
C1677 C1678 1.366 . S
C1677 C1679 1.388 . S
C1678 C1677 1.366 . S
C1678 C1682 1.385 . S
C1679 H1654 0.951 . S
C1679 C1677 1.388 . S
C1679 C1680 1.366 . S
C1680 C1679 1.366 . S
C1680 C1681 1.414 . S
C1680 C1683 1.499 . S
C1681 H1655 0.950 . S
C1681 C1680 1.414 . S
C1681 C1682 1.374 . S
C1682 H1656 0.950 . S
C1682 C1678 1.385 . S
C1682 C1681 1.374 . S
C1683 C1680 1.499 . S
C1683 C1684 1.373 . S
C1683 C1685 1.390 . S
C1684 H1657 0.950 . S
C1684 C1670 1.375 1_655 S
C1684 C1683 1.373 . S
C1685 C1669 1.375 1_655 S
C1685 C1683 1.390 . S
C1685 C1686 1.524 1_655 S
C1686 C1685 1.524 1_455 S
C1686 C1687 1.397 1_455 S
C1686 C1691 1.363 . S
C1687 H1658 0.950 . S
C1687 C1686 1.397 1_655 S
C1687 C1688 1.334 . S
C1688 H1659 0.950 . S
C1688 C1687 1.334 . S
C1688 C1689 1.287 1_655 S
C1689 C1688 1.287 1_455 S
C1689 C1690 1.524 . S
C1689 H1692 0.999 . S
C1690 H1660 0.950 . S
C1690 C1689 1.524 . S
C1690 C1691 1.415 . S
C1691 H1661 0.950 . S
C1691 C1686 1.363 . S
C1691 C1690 1.415 . S
H1692 C1689 0.999 . S
H1693 C1674 0.913 . S
H1694 C1712 0.951 . S
H1695 C1714 0.951 . S
H1696 C1716 0.950 . S
H1697 C1717 0.950 . S
H1698 C1719 0.950 . S
H1699 C1722 0.950 . S
H1700 C1723 0.950 . S
H1701 C1725 0.950 . S
H1702 C1726 0.950 1_655 S
H1703 C1727 0.951 . S
H1704 C1729 0.951 . S
H1705 C1731 0.950 . S
H1706 C1732 0.950 . S
H1707 C1734 0.950 . S
H1708 C1737 0.950 . S
H1709 C1738 0.950 . S
H1710 C1740 0.950 . S
H1711 C1741 0.950 1_455 S
C1712 H1694 0.951 . S
C1712 C1713 1.366 . S
C1712 C1714 1.388 . S
C1713 C1712 1.366 . S
C1713 C1717 1.385 . S
C1714 H1695 0.951 . S
C1714 C1712 1.388 . S
C1714 C1715 1.366 . S
C1715 C1714 1.366 . S
C1715 C1716 1.414 . S
C1715 C1718 1.499 . S
C1716 H1696 0.950 . S
C1716 C1715 1.414 . S
C1716 C1717 1.374 . S
C1717 H1697 0.950 . S
C1717 C1713 1.385 . S
C1717 C1716 1.374 . S
C1718 C1715 1.499 . S
C1718 C1719 1.373 . S
C1718 C1720 1.389 . S
C1719 H1698 0.950 . S
C1719 C1718 1.373 . S
C1719 C1735 1.377 1_455 S
C1720 C1718 1.389 . S
C1720 C1721 1.524 . S
C1720 C1734 1.377 1_455 S
C1721 C1720 1.524 . S
C1721 C1722 1.397 . S
C1721 C1726 1.363 . S
C1722 H1699 0.950 . S
C1722 C1721 1.397 . S
C1722 C1723 1.334 . S
C1723 H1700 0.950 . S
C1723 C1722 1.334 . S
C1723 C1724 1.287 . S
C1724 C1723 1.287 . S
C1724 C1725 1.524 . S
C1724 H1743 0.913 . S
C1725 H1701 0.950 . S
C1725 C1724 1.524 . S
C1725 C1726 1.415 . S
C1726 H1702 0.950 1_455 S
C1726 C1721 1.363 . S
C1726 C1725 1.415 . S
C1727 H1703 0.951 . S
C1727 C1728 1.366 . S
C1727 C1729 1.388 . S
C1728 C1727 1.366 . S
C1728 C1732 1.385 . S
C1729 H1704 0.951 . S
C1729 C1727 1.388 . S
C1729 C1730 1.366 . S
C1730 C1729 1.366 . S
C1730 C1731 1.414 . S
C1730 C1733 1.499 . S
C1731 H1705 0.950 . S
C1731 C1730 1.414 . S
C1731 C1732 1.374 . S
C1732 H1706 0.950 . S
C1732 C1728 1.385 . S
C1732 C1731 1.374 . S
C1733 C1730 1.499 . S
C1733 C1734 1.373 . S
C1733 C1735 1.389 . S
C1734 H1707 0.950 . S
C1734 C1720 1.377 1_655 S
C1734 C1733 1.373 . S
C1735 C1719 1.377 1_655 S
C1735 C1733 1.389 . S
C1735 C1736 1.524 . S
C1736 C1735 1.524 . S
C1736 C1737 1.397 . S
C1736 C1741 1.363 . S
C1737 H1708 0.950 . S
C1737 C1736 1.397 . S
C1737 C1738 1.334 . S
C1738 H1709 0.950 . S
C1738 C1737 1.334 . S
C1738 C1739 1.287 . S
C1739 C1738 1.287 . S
C1739 C1740 1.524 . S
C1739 H1742 0.999 . S
C1740 H1710 0.950 . S
C1740 C1739 1.524 . S
C1740 C1741 1.415 . S
C1741 H1711 0.950 1_655 S
C1741 C1736 1.363 . S
C1741 C1740 1.415 . S
H1742 C1739 0.999 . S
H1743 C1724 0.913 . S
H1744 C1762 0.951 . S
H1745 C1764 0.951 . S
H1746 C1766 0.950 1_566 S
H1747 C1767 0.950 . S
H1748 C1769 0.950 . S
H1749 C1772 0.950 . S
H1750 C1773 0.950 . S
H1751 C1775 0.954 . S
H1752 C1776 0.950 . S
H1753 C1777 0.951 . S
H1754 C1779 0.951 . S
H1755 C1781 0.950 1_544 S
H1756 C1782 0.950 . S
H1757 C1784 0.950 . S
H1758 C1787 0.950 . S
H1759 C1788 0.950 . S
H1760 C1790 0.954 . S
H1761 C1791 0.950 . S
C1762 H1744 0.951 . S
C1762 C1763 1.366 . S
C1762 C1764 1.388 . S
C1763 C1762 1.366 . S
C1763 C1767 1.385 . S
C1764 H1745 0.951 . S
C1764 C1762 1.388 . S
C1764 C1765 1.366 . S
C1765 C1764 1.366 . S
C1765 C1766 1.414 . S
C1765 C1768 1.499 . S
C1766 H1746 0.950 1_544 S
C1766 C1765 1.414 . S
C1766 C1767 1.374 . S
C1767 H1747 0.950 . S
C1767 C1763 1.385 . S
C1767 C1766 1.374 . S
C1768 C1765 1.499 . S
C1768 C1769 1.373 1_545 S
C1768 C1770 1.374 1_554 S
C1769 H1748 0.950 . S
C1769 C1768 1.373 1_565 S
C1769 C1785 1.391 . S
C1770 C1768 1.374 1_556 S
C1770 C1771 1.535 . S
C1770 C1784 1.391 . S
C1771 C1770 1.535 . S
C1771 C1772 1.397 . S
C1771 C1776 1.363 1_556 S
C1772 H1749 0.950 . S
C1772 C1771 1.397 . S
C1772 C1773 1.334 . S
C1773 H1750 0.950 . S
C1773 C1772 1.334 . S
C1773 C1774 1.287 . S
C1774 C1773 1.287 . S
C1774 C1775 1.517 1_556 S
C1774 H1793 0.913 . S
C1775 H1751 0.954 . S
C1775 C1774 1.517 1_554 S
C1775 C1776 1.417 . S
C1776 H1752 0.950 . S
C1776 C1771 1.363 1_554 S
C1776 C1775 1.417 . S
C1777 H1753 0.951 . S
C1777 C1778 1.366 . S
C1777 C1779 1.388 . S
C1778 C1777 1.366 . S
C1778 C1782 1.385 . S
C1779 H1754 0.951 . S
C1779 C1777 1.388 . S
C1779 C1780 1.366 . S
C1780 C1779 1.366 . S
C1780 C1781 1.414 . S
C1780 C1783 1.499 . S
C1781 H1755 0.950 1_566 S
C1781 C1780 1.414 . S
C1781 C1782 1.374 . S
C1782 H1756 0.950 . S
C1782 C1778 1.385 . S
C1782 C1781 1.374 . S
C1783 C1780 1.499 . S
C1783 C1784 1.373 1_565 S
C1783 C1785 1.374 1_556 S
C1784 H1757 0.950 . S
C1784 C1770 1.391 . S
C1784 C1783 1.373 1_545 S
C1785 C1769 1.391 . S
C1785 C1783 1.374 1_554 S
C1785 C1786 1.535 . S
C1786 C1785 1.535 . S
C1786 C1787 1.397 . S
C1786 C1791 1.363 1_554 S
C1787 H1758 0.950 . S
C1787 C1786 1.397 . S
C1787 C1788 1.334 . S
C1788 H1759 0.950 . S
C1788 C1787 1.334 . S
C1788 C1789 1.287 . S
C1789 C1788 1.287 . S
C1789 C1790 1.517 1_554 S
C1789 H1792 0.999 . S
C1790 H1760 0.954 . S
C1790 C1789 1.517 1_556 S
C1790 C1791 1.417 . S
C1791 H1761 0.950 . S
C1791 C1786 1.363 1_556 S
C1791 C1790 1.417 . S
H1792 C1789 0.999 . S
H1793 C1774 0.913 . S
H1794 C1812 0.951 . S
H1795 C1814 0.951 . S
H1796 C1816 0.950 . S
H1797 C1817 0.950 . S
H1798 C1819 0.950 . S
H1799 C1822 0.950 . S
H1800 C1823 0.950 . S
H1801 C1825 0.950 . S
H1802 C1826 0.950 . S
H1803 C1827 0.951 . S
H1804 C1829 0.951 . S
H1805 C1831 0.950 . S
H1806 C1832 0.950 . S
H1807 C1834 0.950 . S
H1808 C1837 0.950 . S
H1809 C1838 0.950 . S
H1810 C1840 0.950 . S
H1811 C1841 0.950 . S
C1812 H1794 0.951 . S
C1812 C1813 1.366 . S
C1812 C1814 1.388 . S
C1813 C1812 1.366 . S
C1813 C1817 1.385 . S
C1814 H1795 0.951 . S
C1814 C1812 1.388 . S
C1814 C1815 1.366 . S
C1815 C1814 1.366 . S
C1815 C1816 1.414 . S
C1815 C1818 1.499 . S
C1816 H1796 0.950 . S
C1816 C1815 1.414 . S
C1816 C1817 1.374 . S
C1817 H1797 0.950 . S
C1817 C1813 1.385 . S
C1817 C1816 1.374 . S
C1818 C1815 1.499 . S
C1818 C1819 1.373 . S
C1818 C1820 1.389 . S
C1819 H1798 0.950 . S
C1819 C1818 1.373 . S
C1819 C1835 1.377 . S
C1820 C1818 1.389 . S
C1820 C1821 1.524 . S
C1820 C1834 1.377 . S
C1821 C1820 1.524 . S
C1821 C1822 1.397 . S
C1821 C1826 1.363 . S
C1822 H1799 0.950 . S
C1822 C1821 1.397 . S
C1822 C1823 1.334 . S
C1823 H1800 0.950 . S
C1823 C1822 1.334 . S
C1823 C1824 1.287 . S
C1824 C1823 1.287 . S
C1824 C1825 1.524 . S
C1824 H1843 0.913 . S
C1825 H1801 0.950 . S
C1825 C1824 1.524 . S
C1825 C1826 1.415 . S
C1826 H1802 0.950 . S
C1826 C1821 1.363 . S
C1826 C1825 1.415 . S
C1827 H1803 0.951 . S
C1827 C1828 1.366 . S
C1827 C1829 1.388 . S
C1828 C1827 1.366 . S
C1828 C1832 1.385 . S
C1829 H1804 0.951 . S
C1829 C1827 1.388 . S
C1829 C1830 1.366 . S
C1830 C1829 1.366 . S
C1830 C1831 1.414 . S
C1830 C1833 1.499 . S
C1831 H1805 0.950 . S
C1831 C1830 1.414 . S
C1831 C1832 1.374 . S
C1832 H1806 0.950 . S
C1832 C1828 1.385 . S
C1832 C1831 1.374 . S
C1833 C1830 1.499 . S
C1833 C1834 1.373 . S
C1833 C1835 1.389 . S
C1834 H1807 0.950 . S
C1834 C1820 1.377 . S
C1834 C1833 1.373 . S
C1835 C1819 1.377 . S
C1835 C1833 1.389 . S
C1835 C1836 1.524 . S
C1836 C1835 1.524 . S
C1836 C1837 1.397 . S
C1836 C1841 1.363 . S
C1837 H1808 0.950 . S
C1837 C1836 1.397 . S
C1837 C1838 1.334 . S
C1838 H1809 0.950 . S
C1838 C1837 1.334 . S
C1838 C1839 1.287 . S
C1839 C1838 1.287 . S
C1839 C1840 1.524 . S
C1839 H1842 0.999 . S
C1840 H1810 0.950 . S
C1840 C1839 1.524 . S
C1840 C1841 1.415 . S
C1841 H1811 0.950 . S
C1841 C1836 1.363 . S
C1841 C1840 1.415 . S
H1842 C1839 0.999 . S
H1843 C1824 0.913 . S
H1844 C1862 0.951 . S
H1845 C1864 0.951 1_545 S
H1846 C1866 0.950 . S
H1847 C1867 0.950 . S
H1848 C1869 0.950 . S
H1849 C1872 0.950 . S
H1850 C1873 0.950 . S
H1851 C1875 0.950 . S
H1852 C1876 0.950 . S
H1853 C1877 0.951 . S
H1854 C1879 0.951 1_565 S
H1855 C1881 0.950 . S
H1856 C1882 0.950 . S
H1857 C1884 0.950 . S
H1858 C1887 0.950 . S
H1859 C1888 0.950 . S
H1860 C1890 0.950 . S
H1861 C1891 0.950 . S
C1862 H1844 0.951 . S
C1862 C1863 1.366 . S
C1862 C1864 1.388 . S
C1863 C1862 1.366 . S
C1863 C1867 1.385 . S
C1864 H1845 0.951 1_565 S
C1864 C1862 1.388 . S
C1864 C1865 1.366 . S
C1865 C1864 1.366 . S
C1865 C1866 1.414 . S
C1865 C1868 1.499 . S
C1866 H1846 0.950 . S
C1866 C1865 1.414 . S
C1866 C1867 1.374 . S
C1867 H1847 0.950 . S
C1867 C1863 1.385 . S
C1867 C1866 1.374 . S
C1868 C1865 1.499 . S
C1868 C1869 1.373 . S
C1868 C1870 1.389 1_565 S
C1869 H1848 0.950 . S
C1869 C1868 1.373 . S
C1869 C1885 1.377 1_455 S
C1870 C1868 1.389 1_545 S
C1870 C1871 1.524 . S
C1870 C1884 1.377 1_455 S
C1871 C1870 1.524 . S
C1871 C1872 1.397 . S
C1871 C1876 1.363 . S
C1872 H1849 0.950 . S
C1872 C1871 1.397 . S
C1872 C1873 1.334 . S
C1873 H1850 0.950 . S
C1873 C1872 1.334 . S
C1873 C1874 1.287 . S
C1874 C1873 1.287 . S
C1874 C1875 1.524 . S
C1874 H1893 0.913 . S
C1875 H1851 0.950 . S
C1875 C1874 1.524 . S
C1875 C1876 1.415 . S
C1876 H1852 0.950 . S
C1876 C1871 1.363 . S
C1876 C1875 1.415 . S
C1877 H1853 0.951 . S
C1877 C1878 1.366 . S
C1877 C1879 1.388 . S
C1878 C1877 1.366 . S
C1878 C1882 1.385 . S
C1879 H1854 0.951 1_545 S
C1879 C1877 1.388 . S
C1879 C1880 1.366 . S
C1880 C1879 1.366 . S
C1880 C1881 1.414 . S
C1880 C1883 1.499 . S
C1881 H1855 0.950 . S
C1881 C1880 1.414 . S
C1881 C1882 1.374 . S
C1882 H1856 0.950 . S
C1882 C1878 1.385 . S
C1882 C1881 1.374 . S
C1883 C1880 1.499 . S
C1883 C1884 1.373 . S
C1883 C1885 1.389 1_545 S
C1884 H1857 0.950 . S
C1884 C1870 1.377 1_655 S
C1884 C1883 1.373 . S
C1885 C1869 1.377 1_655 S
C1885 C1883 1.389 1_565 S
C1885 C1886 1.524 . S
C1886 C1885 1.524 . S
C1886 C1887 1.397 . S
C1886 C1891 1.363 . S
C1887 H1858 0.950 . S
C1887 C1886 1.397 . S
C1887 C1888 1.334 . S
C1888 H1859 0.950 . S
C1888 C1887 1.334 . S
C1888 C1889 1.287 . S
C1889 C1888 1.287 . S
C1889 C1890 1.524 . S
C1889 H1892 0.999 . S
C1890 H1860 0.950 . S
C1890 C1889 1.524 . S
C1890 C1891 1.415 . S
C1891 H1861 0.950 . S
C1891 C1886 1.363 . S
C1891 C1890 1.415 . S
H1892 C1889 0.999 . S
H1893 C1874 0.913 . S
H1894 C1912 0.951 . S
H1895 C1914 0.951 . S
H1896 C1916 0.950 . S
H1897 C1917 0.950 . S
H1898 C1919 0.950 . S
H1899 C1922 0.950 . S
H1900 C1923 0.950 . S
H1901 C1925 0.950 . S
H1902 C1926 0.950 . S
H1903 C1927 0.951 . S
H1904 C1929 0.951 . S
H1905 C1931 0.950 . S
H1906 C1932 0.950 . S
H1907 C1934 0.950 . S
H1908 C1937 0.950 . S
H1909 C1938 0.950 . S
H1910 C1940 0.950 . S
H1911 C1941 0.950 . S
C1912 H1894 0.951 . S
C1912 C1913 1.366 . S
C1912 C1914 1.388 . S
C1913 C1912 1.366 . S
C1913 C1917 1.385 . S
C1914 H1895 0.951 . S
C1914 C1912 1.388 . S
C1914 C1915 1.366 . S
C1915 C1914 1.366 . S
C1915 C1916 1.414 . S
C1915 C1918 1.499 . S
C1916 H1896 0.950 . S
C1916 C1915 1.414 . S
C1916 C1917 1.374 . S
C1917 H1897 0.950 . S
C1917 C1913 1.385 . S
C1917 C1916 1.374 . S
C1918 C1915 1.499 . S
C1918 C1919 1.373 . S
C1918 C1920 1.389 . S
C1919 H1898 0.950 . S
C1919 C1918 1.373 . S
C1919 C1935 1.377 . S
C1920 C1918 1.389 . S
C1920 C1921 1.524 . S
C1920 C1934 1.377 . S
C1921 C1920 1.524 . S
C1921 C1922 1.397 . S
C1921 C1926 1.363 . S
C1922 H1899 0.950 . S
C1922 C1921 1.397 . S
C1922 C1923 1.334 . S
C1923 H1900 0.950 . S
C1923 C1922 1.334 . S
C1923 C1924 1.287 . S
C1924 C1923 1.287 . S
C1924 C1925 1.524 . S
C1924 H1943 0.913 . S
C1925 H1901 0.950 . S
C1925 C1924 1.524 . S
C1925 C1926 1.415 . S
C1926 H1902 0.950 . S
C1926 C1921 1.363 . S
C1926 C1925 1.415 . S
C1927 H1903 0.951 . S
C1927 C1928 1.366 . S
C1927 C1929 1.388 . S
C1928 C1927 1.366 . S
C1928 C1932 1.385 . S
C1929 H1904 0.951 . S
C1929 C1927 1.388 . S
C1929 C1930 1.366 . S
C1930 C1929 1.366 . S
C1930 C1931 1.414 . S
C1930 C1933 1.499 . S
C1931 H1905 0.950 . S
C1931 C1930 1.414 . S
C1931 C1932 1.374 . S
C1932 H1906 0.950 . S
C1932 C1928 1.385 . S
C1932 C1931 1.374 . S
C1933 C1930 1.499 . S
C1933 C1934 1.373 . S
C1933 C1935 1.389 . S
C1934 H1907 0.950 . S
C1934 C1920 1.377 . S
C1934 C1933 1.373 . S
C1935 C1919 1.377 . S
C1935 C1933 1.389 . S
C1935 C1936 1.524 . S
C1936 C1935 1.524 . S
C1936 C1937 1.397 . S
C1936 C1941 1.363 . S
C1937 H1908 0.950 . S
C1937 C1936 1.397 . S
C1937 C1938 1.334 . S
C1938 H1909 0.950 . S
C1938 C1937 1.334 . S
C1938 C1939 1.287 . S
C1939 C1938 1.287 . S
C1939 C1940 1.524 . S
C1939 H1942 0.999 . S
C1940 H1910 0.950 . S
C1940 C1939 1.524 . S
C1940 C1941 1.415 . S
C1941 H1911 0.950 . S
C1941 C1936 1.363 . S
C1941 C1940 1.415 . S
H1942 C1939 0.999 . S
H1943 C1924 0.913 . S
H1944 C1962 0.951 . S
H1945 C1964 0.951 . S
H1946 C1966 0.950 . S
H1947 C1967 0.950 . S
H1948 C1969 0.950 . S
H1949 C1972 0.950 . S
H1950 C1973 0.950 . S
H1951 C1975 0.950 . S
H1952 C1976 0.950 . S
H1953 C1977 0.951 . S
H1954 C1979 0.951 . S
H1955 C1981 0.950 . S
H1956 C1982 0.950 . S
H1957 C1984 0.950 . S
H1958 C1987 0.950 . S
H1959 C1988 0.950 . S
H1960 C1990 0.950 . S
H1961 C1991 0.950 . S
C1962 H1944 0.951 . S
C1962 C1963 1.366 . S
C1962 C1964 1.388 . S
C1963 C1962 1.366 . S
C1963 C1967 1.385 . S
C1964 H1945 0.951 . S
C1964 C1962 1.388 . S
C1964 C1965 1.366 . S
C1965 C1964 1.366 . S
C1965 C1966 1.414 . S
C1965 C1968 1.499 . S
C1966 H1946 0.950 . S
C1966 C1965 1.414 . S
C1966 C1967 1.374 . S
C1967 H1947 0.950 . S
C1967 C1963 1.385 . S
C1967 C1966 1.374 . S
C1968 C1965 1.499 . S
C1968 C1969 1.373 . S
C1968 C1970 1.389 . S
C1969 H1948 0.950 . S
C1969 C1968 1.373 . S
C1969 C1985 1.377 . S
C1970 C1968 1.389 . S
C1970 C1971 1.524 . S
C1970 C1984 1.377 . S
C1971 C1970 1.524 . S
C1971 C1972 1.397 . S
C1971 C1976 1.363 . S
C1972 H1949 0.950 . S
C1972 C1971 1.397 . S
C1972 C1973 1.334 . S
C1973 H1950 0.950 . S
C1973 C1972 1.334 . S
C1973 C1974 1.287 . S
C1974 C1973 1.287 . S
C1974 C1975 1.524 . S
C1974 H1993 0.913 . S
C1975 H1951 0.950 . S
C1975 C1974 1.524 . S
C1975 C1976 1.415 . S
C1976 H1952 0.950 . S
C1976 C1971 1.363 . S
C1976 C1975 1.415 . S
C1977 H1953 0.951 . S
C1977 C1978 1.366 . S
C1977 C1979 1.388 . S
C1978 C1977 1.366 . S
C1978 C1982 1.385 . S
C1979 H1954 0.951 . S
C1979 C1977 1.388 . S
C1979 C1980 1.366 . S
C1980 C1979 1.366 . S
C1980 C1981 1.414 . S
C1980 C1983 1.499 . S
C1981 H1955 0.950 . S
C1981 C1980 1.414 . S
C1981 C1982 1.374 . S
C1982 H1956 0.950 . S
C1982 C1978 1.385 . S
C1982 C1981 1.374 . S
C1983 C1980 1.499 . S
C1983 C1984 1.373 . S
C1983 C1985 1.389 . S
C1984 H1957 0.950 . S
C1984 C1970 1.377 . S
C1984 C1983 1.373 . S
C1985 C1969 1.377 . S
C1985 C1983 1.389 . S
C1985 C1986 1.524 . S
C1986 C1985 1.524 . S
C1986 C1987 1.397 . S
C1986 C1991 1.363 . S
C1987 H1958 0.950 . S
C1987 C1986 1.397 . S
C1987 C1988 1.334 . S
C1988 H1959 0.950 . S
C1988 C1987 1.334 . S
C1988 C1989 1.287 . S
C1989 C1988 1.287 . S
C1989 C1990 1.524 . S
C1989 H1992 0.999 . S
C1990 H1960 0.950 . S
C1990 C1989 1.524 . S
C1990 C1991 1.415 . S
C1991 H1961 0.950 . S
C1991 C1986 1.363 . S
C1991 C1990 1.415 . S
H1992 C1989 0.999 . S
H1993 C1974 0.913 . S
H1994 C2012 0.951 . S
H1995 C2014 0.951 . S
H1996 C2016 0.950 . S
H1997 C2017 0.950 . S
H1998 C2019 0.950 . S
H1999 C2022 0.950 . S
H2000 C2023 0.950 . S
H2001 C2025 0.950 . S
H2002 C2026 0.950 . S
H2003 C2027 0.951 . S
H2004 C2029 0.951 . S
H2005 C2031 0.950 . S
H2006 C2032 0.950 . S
H2007 C2034 0.950 . S
H2008 C2037 0.950 . S
H2009 C2038 0.950 . S
H2010 C2040 0.950 . S
H2011 C2041 0.950 . S
C2012 H1994 0.951 . S
C2012 C2013 1.366 . S
C2012 C2014 1.388 . S
C2013 C2012 1.366 . S
C2013 C2017 1.385 . S
C2014 H1995 0.951 . S
C2014 C2012 1.388 . S
C2014 C2015 1.366 . S
C2015 C2014 1.366 . S
C2015 C2016 1.414 . S
C2015 C2018 1.499 . S
C2016 H1996 0.950 . S
C2016 C2015 1.414 . S
C2016 C2017 1.374 . S
C2017 H1997 0.950 . S
C2017 C2013 1.385 . S
C2017 C2016 1.374 . S
C2018 C2015 1.499 . S
C2018 C2019 1.373 . S
C2018 C2020 1.389 . S
C2019 H1998 0.950 . S
C2019 C2018 1.373 . S
C2019 C2035 1.377 . S
C2020 C2018 1.389 . S
C2020 C2021 1.524 . S
C2020 C2034 1.377 . S
C2021 C2020 1.524 . S
C2021 C2022 1.397 . S
C2021 C2026 1.363 . S
C2022 H1999 0.950 . S
C2022 C2021 1.397 . S
C2022 C2023 1.334 . S
C2023 H2000 0.950 . S
C2023 C2022 1.334 . S
C2023 C2024 1.287 . S
C2024 C2023 1.287 . S
C2024 C2025 1.524 . S
C2024 H2043 0.913 . S
C2025 H2001 0.950 . S
C2025 C2024 1.524 . S
C2025 C2026 1.415 . S
C2026 H2002 0.950 . S
C2026 C2021 1.363 . S
C2026 C2025 1.415 . S
C2027 H2003 0.951 . S
C2027 C2028 1.366 . S
C2027 C2029 1.388 . S
C2028 C2027 1.366 . S
C2028 C2032 1.385 . S
C2029 H2004 0.951 . S
C2029 C2027 1.388 . S
C2029 C2030 1.366 . S
C2030 C2029 1.366 . S
C2030 C2031 1.414 . S
C2030 C2033 1.499 . S
C2031 H2005 0.950 . S
C2031 C2030 1.414 . S
C2031 C2032 1.374 . S
C2032 H2006 0.950 . S
C2032 C2028 1.385 . S
C2032 C2031 1.374 . S
C2033 C2030 1.499 . S
C2033 C2034 1.373 . S
C2033 C2035 1.389 . S
C2034 H2007 0.950 . S
C2034 C2020 1.377 . S
C2034 C2033 1.373 . S
C2035 C2019 1.377 . S
C2035 C2033 1.389 . S
C2035 C2036 1.524 . S
C2036 C2035 1.524 . S
C2036 C2037 1.397 . S
C2036 C2041 1.363 . S
C2037 H2008 0.950 . S
C2037 C2036 1.397 . S
C2037 C2038 1.334 . S
C2038 H2009 0.950 . S
C2038 C2037 1.334 . S
C2038 C2039 1.287 . S
C2039 C2038 1.287 . S
C2039 C2040 1.524 . S
C2039 H2042 0.999 . S
C2040 H2010 0.950 . S
C2040 C2039 1.524 . S
C2040 C2041 1.415 . S
C2041 H2011 0.950 . S
C2041 C2036 1.363 . S
C2041 C2040 1.415 . S
H2042 C2039 0.999 . S
H2043 C2024 0.913 . S
H2044 C2062 0.951 . S
H2045 C2064 0.951 . S
H2046 C2066 0.950 . S
H2047 C2067 0.950 . S
H2048 C2069 0.950 . S
H2049 C2072 0.950 . S
H2050 C2073 0.950 . S
H2051 C2075 0.950 . S
H2052 C2076 0.950 . S
H2053 C2077 0.951 . S
H2054 C2079 0.951 . S
H2055 C2081 0.950 . S
H2056 C2082 0.950 . S
H2057 C2084 0.950 . S
H2058 C2087 0.950 . S
H2059 C2088 0.950 . S
H2060 C2090 0.950 . S
H2061 C2091 0.950 . S
C2062 H2044 0.951 . S
C2062 C2063 1.366 . S
C2062 C2064 1.388 . S
C2063 C2062 1.366 . S
C2063 C2067 1.385 . S
C2064 H2045 0.951 . S
C2064 C2062 1.388 . S
C2064 C2065 1.366 . S
C2065 C2064 1.366 . S
C2065 C2066 1.414 . S
C2065 C2068 1.499 . S
C2066 H2046 0.950 . S
C2066 C2065 1.414 . S
C2066 C2067 1.374 . S
C2067 H2047 0.950 . S
C2067 C2063 1.385 . S
C2067 C2066 1.374 . S
C2068 C2065 1.499 . S
C2068 C2069 1.373 . S
C2068 C2070 1.389 . S
C2069 H2048 0.950 . S
C2069 C2068 1.373 . S
C2069 C2085 1.377 1_455 S
C2070 C2068 1.389 . S
C2070 C2071 1.524 . S
C2070 C2084 1.377 1_455 S
C2071 C2070 1.524 . S
C2071 C2072 1.397 . S
C2071 C2076 1.363 1_455 S
C2072 H2049 0.950 . S
C2072 C2071 1.397 . S
C2072 C2073 1.334 . S
C2073 H2050 0.950 . S
C2073 C2072 1.334 . S
C2073 C2074 1.287 . S
C2074 C2073 1.287 . S
C2074 C2075 1.524 1_455 S
C2074 H2093 0.913 . S
C2075 H2051 0.950 . S
C2075 C2074 1.524 1_655 S
C2075 C2076 1.415 . S
C2076 H2052 0.950 . S
C2076 C2071 1.363 1_655 S
C2076 C2075 1.415 . S
C2077 H2053 0.951 . S
C2077 C2078 1.366 . S
C2077 C2079 1.388 . S
C2078 C2077 1.366 . S
C2078 C2082 1.385 . S
C2079 H2054 0.951 . S
C2079 C2077 1.388 . S
C2079 C2080 1.366 . S
C2080 C2079 1.366 . S
C2080 C2081 1.414 . S
C2080 C2083 1.499 . S
C2081 H2055 0.950 . S
C2081 C2080 1.414 . S
C2081 C2082 1.374 . S
C2082 H2056 0.950 . S
C2082 C2078 1.385 . S
C2082 C2081 1.374 . S
C2083 C2080 1.499 . S
C2083 C2084 1.373 . S
C2083 C2085 1.389 . S
C2084 H2057 0.950 . S
C2084 C2070 1.377 1_655 S
C2084 C2083 1.373 . S
C2085 C2069 1.377 1_655 S
C2085 C2083 1.389 . S
C2085 C2086 1.524 . S
C2086 C2085 1.524 . S
C2086 C2087 1.397 . S
C2086 C2091 1.363 1_655 S
C2087 H2058 0.950 . S
C2087 C2086 1.397 . S
C2087 C2088 1.334 . S
C2088 H2059 0.950 . S
C2088 C2087 1.334 . S
C2088 C2089 1.287 . S
C2089 C2088 1.287 . S
C2089 C2090 1.524 1_655 S
C2089 H2092 0.999 . S
C2090 H2060 0.950 . S
C2090 C2089 1.524 1_455 S
C2090 C2091 1.415 . S
C2091 H2061 0.950 . S
C2091 C2086 1.363 1_455 S
C2091 C2090 1.415 . S
H2092 C2089 0.999 . S
H2093 C2074 0.913 . S
H2094 C2112 0.951 1_556 S
H2095 C2114 1.016 . S
H2096 C2116 0.950 . S
H2097 C2117 0.950 . S
H2098 C2119 0.950 . S
H2099 C2122 0.950 . S
H2100 C2123 0.950 . S
H2101 C2125 0.950 . S
H2102 C2126 0.950 . S
H2103 C2127 0.951 1_554 S
H2104 C2129 1.016 . S
H2105 C2131 0.950 . S
H2106 C2132 0.950 . S
H2107 C2134 0.950 . S
H2108 C2137 0.950 . S
H2109 C2138 0.950 . S
H2110 C2140 0.950 . S
H2111 C2141 0.950 . S
C2112 H2094 0.951 1_554 S
C2112 C2113 1.366 . S
C2112 C2114 1.371 1_554 S
C2113 C2112 1.366 . S
C2113 C2117 1.385 . S
C2114 H2095 1.016 . S
C2114 C2112 1.371 1_556 S
C2114 C2115 1.321 1_556 S
C2115 C2114 1.321 1_554 S
C2115 C2116 1.414 . S
C2115 C2118 1.499 . S
C2116 H2096 0.950 . S
C2116 C2115 1.414 . S
C2116 C2117 1.374 . S
C2117 H2097 0.950 . S
C2117 C2113 1.385 . S
C2117 C2116 1.374 . S
C2118 C2115 1.499 . S
C2118 C2119 1.373 . S
C2118 C2120 1.389 1_554 S
C2119 H2098 0.950 . S
C2119 C2118 1.373 . S
C2119 C2135 1.377 . S
C2120 C2118 1.389 1_556 S
C2120 C2121 1.524 . S
C2120 C2134 1.377 . S
C2121 C2120 1.524 . S
C2121 C2122 1.397 1_556 S
C2121 C2126 1.363 . S
C2122 H2099 0.950 . S
C2122 C2121 1.397 1_554 S
C2122 C2123 1.334 . S
C2123 H2100 0.950 . S
C2123 C2122 1.334 . S
C2123 C2124 1.287 1_554 S
C2124 C2123 1.287 1_556 S
C2124 C2125 1.524 . S
C2124 H2143 0.913 . S
C2125 H2101 0.950 . S
C2125 C2124 1.524 . S
C2125 C2126 1.415 . S
C2126 H2102 0.950 . S
C2126 C2121 1.363 . S
C2126 C2125 1.415 . S
C2127 H2103 0.951 1_556 S
C2127 C2128 1.366 . S
C2127 C2129 1.371 1_556 S
C2128 C2127 1.366 . S
C2128 C2132 1.385 . S
C2129 H2104 1.016 . S
C2129 C2127 1.371 1_554 S
C2129 C2130 1.321 1_554 S
C2130 C2129 1.321 1_556 S
C2130 C2131 1.414 . S
C2130 C2133 1.499 . S
C2131 H2105 0.950 . S
C2131 C2130 1.414 . S
C2131 C2132 1.374 . S
C2132 H2106 0.950 . S
C2132 C2128 1.385 . S
C2132 C2131 1.374 . S
C2133 C2130 1.499 . S
C2133 C2134 1.373 . S
C2133 C2135 1.389 1_556 S
C2134 H2107 0.950 . S
C2134 C2120 1.377 . S
C2134 C2133 1.373 . S
C2135 C2119 1.377 . S
C2135 C2133 1.389 1_554 S
C2135 C2136 1.524 . S
C2136 C2135 1.524 . S
C2136 C2137 1.397 1_554 S
C2136 C2141 1.363 . S
C2137 H2108 0.950 . S
C2137 C2136 1.397 1_556 S
C2137 C2138 1.334 . S
C2138 H2109 0.950 . S
C2138 C2137 1.334 . S
C2138 C2139 1.287 1_556 S
C2139 C2138 1.287 1_554 S
C2139 C2140 1.524 . S
C2139 H2142 0.999 . S
C2140 H2110 0.950 . S
C2140 C2139 1.524 . S
C2140 C2141 1.415 . S
C2141 H2111 0.950 . S
C2141 C2136 1.363 . S
C2141 C2140 1.415 . S
H2142 C2139 0.999 . S
H2143 C2124 0.913 . S
H2144 C2162 0.951 . S
H2145 C2164 0.951 . S
H2146 C2166 0.950 . S
H2147 C2167 0.950 . S
H2148 C2169 0.950 . S
H2149 C2172 0.950 . S
H2150 C2173 0.950 . S
H2151 C2175 0.950 . S
H2152 C2176 0.950 . S
H2153 C2177 0.951 . S
H2154 C2179 0.951 . S
H2155 C2181 0.950 . S
H2156 C2182 0.950 . S
H2157 C2184 0.950 . S
H2158 C2187 0.950 . S
H2159 C2188 0.950 . S
H2160 C2190 0.950 . S
H2161 C2191 0.950 . S
C2162 H2144 0.951 . S
C2162 C2163 1.366 . S
C2162 C2164 1.388 . S
C2163 C2162 1.366 . S
C2163 C2167 1.385 . S
C2164 H2145 0.951 . S
C2164 C2162 1.388 . S
C2164 C2165 1.366 . S
C2165 C2164 1.366 . S
C2165 C2166 1.414 . S
C2165 C2168 1.499 . S
C2166 H2146 0.950 . S
C2166 C2165 1.414 . S
C2166 C2167 1.374 . S
C2167 H2147 0.950 . S
C2167 C2163 1.385 . S
C2167 C2166 1.374 . S
C2168 C2165 1.499 . S
C2168 C2169 1.373 . S
C2168 C2170 1.389 . S
C2169 H2148 0.950 . S
C2169 C2168 1.373 . S
C2169 C2185 1.377 . S
C2170 C2168 1.389 . S
C2170 C2171 1.524 . S
C2170 C2184 1.377 . S
C2171 C2170 1.524 . S
C2171 C2172 1.397 . S
C2171 C2176 1.363 . S
C2172 H2149 0.950 . S
C2172 C2171 1.397 . S
C2172 C2173 1.334 . S
C2173 H2150 0.950 . S
C2173 C2172 1.334 . S
C2173 C2174 1.287 . S
C2174 C2173 1.287 . S
C2174 C2175 1.524 . S
C2174 H2193 0.913 . S
C2175 H2151 0.950 . S
C2175 C2174 1.524 . S
C2175 C2176 1.415 . S
C2176 H2152 0.950 . S
C2176 C2171 1.363 . S
C2176 C2175 1.415 . S
C2177 H2153 0.951 . S
C2177 C2178 1.366 . S
C2177 C2179 1.388 . S
C2178 C2177 1.366 . S
C2178 C2182 1.385 . S
C2179 H2154 0.951 . S
C2179 C2177 1.388 . S
C2179 C2180 1.366 . S
C2180 C2179 1.366 . S
C2180 C2181 1.414 . S
C2180 C2183 1.499 . S
C2181 H2155 0.950 . S
C2181 C2180 1.414 . S
C2181 C2182 1.374 . S
C2182 H2156 0.950 . S
C2182 C2178 1.385 . S
C2182 C2181 1.374 . S
C2183 C2180 1.499 . S
C2183 C2184 1.373 . S
C2183 C2185 1.389 . S
C2184 H2157 0.950 . S
C2184 C2170 1.377 . S
C2184 C2183 1.373 . S
C2185 C2169 1.377 . S
C2185 C2183 1.389 . S
C2185 C2186 1.524 . S
C2186 C2185 1.524 . S
C2186 C2187 1.397 . S
C2186 C2191 1.363 . S
C2187 H2158 0.950 . S
C2187 C2186 1.397 . S
C2187 C2188 1.334 . S
C2188 H2159 0.950 . S
C2188 C2187 1.334 . S
C2188 C2189 1.287 . S
C2189 C2188 1.287 . S
C2189 C2190 1.524 . S
C2189 H2192 0.999 . S
C2190 H2160 0.950 . S
C2190 C2189 1.524 . S
C2190 C2191 1.415 . S
C2191 H2161 0.950 . S
C2191 C2186 1.363 . S
C2191 C2190 1.415 . S
H2192 C2189 0.999 . S
H2193 C2174 0.913 . S
H2194 C2212 0.951 . S
H2195 C2214 0.951 . S
H2196 C2216 0.950 . S
H2197 C2217 0.950 . S
H2198 C2219 0.950 . S
H2199 C2222 0.950 . S
H2200 C2223 0.950 . S
H2201 C2225 0.950 . S
H2202 C2226 0.950 . S
H2203 C2227 0.951 . S
H2204 C2229 0.951 . S
H2205 C2231 0.950 . S
H2206 C2232 0.950 . S
H2207 C2234 0.950 . S
H2208 C2237 0.950 . S
H2209 C2238 0.950 . S
H2210 C2240 0.950 . S
H2211 C2241 0.950 . S
C2212 H2194 0.951 . S
C2212 C2213 1.366 . S
C2212 C2214 1.388 . S
C2213 C2212 1.366 . S
C2213 C2217 1.385 . S
C2214 H2195 0.951 . S
C2214 C2212 1.388 . S
C2214 C2215 1.366 . S
C2215 C2214 1.366 . S
C2215 C2216 1.414 . S
C2215 C2218 1.499 . S
C2216 H2196 0.950 . S
C2216 C2215 1.414 . S
C2216 C2217 1.374 . S
C2217 H2197 0.950 . S
C2217 C2213 1.385 . S
C2217 C2216 1.374 . S
C2218 C2215 1.499 . S
C2218 C2219 1.373 . S
C2218 C2220 1.389 . S
C2219 H2198 0.950 . S
C2219 C2218 1.373 . S
C2219 C2235 1.377 . S
C2220 C2218 1.389 . S
C2220 C2221 1.524 . S
C2220 C2234 1.377 . S
C2221 C2220 1.524 . S
C2221 C2222 1.397 . S
C2221 C2226 1.363 . S
C2222 H2199 0.950 . S
C2222 C2221 1.397 . S
C2222 C2223 1.334 . S
C2223 H2200 0.950 . S
C2223 C2222 1.334 . S
C2223 C2224 1.287 . S
C2224 C2223 1.287 . S
C2224 C2225 1.524 . S
C2224 H2243 0.913 . S
C2225 H2201 0.950 . S
C2225 C2224 1.524 . S
C2225 C2226 1.415 . S
C2226 H2202 0.950 . S
C2226 C2221 1.363 . S
C2226 C2225 1.415 . S
C2227 H2203 0.951 . S
C2227 C2228 1.366 . S
C2227 C2229 1.388 . S
C2228 C2227 1.366 . S
C2228 C2232 1.385 . S
C2229 H2204 0.951 . S
C2229 C2227 1.388 . S
C2229 C2230 1.366 . S
C2230 C2229 1.366 . S
C2230 C2231 1.414 . S
C2230 C2233 1.499 . S
C2231 H2205 0.950 . S
C2231 C2230 1.414 . S
C2231 C2232 1.374 . S
C2232 H2206 0.950 . S
C2232 C2228 1.385 . S
C2232 C2231 1.374 . S
C2233 C2230 1.499 . S
C2233 C2234 1.373 . S
C2233 C2235 1.389 . S
C2234 H2207 0.950 . S
C2234 C2220 1.377 . S
C2234 C2233 1.373 . S
C2235 C2219 1.377 . S
C2235 C2233 1.389 . S
C2235 C2236 1.524 . S
C2236 C2235 1.524 . S
C2236 C2237 1.397 . S
C2236 C2241 1.363 . S
C2237 H2208 0.950 . S
C2237 C2236 1.397 . S
C2237 C2238 1.334 . S
C2238 H2209 0.950 . S
C2238 C2237 1.334 . S
C2238 C2239 1.287 . S
C2239 C2238 1.287 . S
C2239 C2240 1.524 . S
C2239 H2242 0.999 . S
C2240 H2210 0.950 . S
C2240 C2239 1.524 . S
C2240 C2241 1.415 . S
C2241 H2211 0.950 . S
C2241 C2236 1.363 . S
C2241 C2240 1.415 . S
H2242 C2239 0.999 . S
H2243 C2224 0.913 . S
H2244 C2262 0.951 . S
H2245 C2264 0.951 . S
H2246 C2266 0.950 . S
H2247 C2267 0.950 . S
H2248 C2269 0.950 . S
H2249 C2272 0.950 . S
H2250 C2273 0.950 . S
H2251 C2275 0.950 . S
H2252 C2276 0.950 . S
H2253 C2277 0.951 . S
H2254 C2279 0.951 . S
H2255 C2281 0.950 . S
H2256 C2282 0.950 . S
H2257 C2284 0.950 . S
H2258 C2287 0.950 . S
H2259 C2288 0.950 . S
H2260 C2290 0.950 . S
H2261 C2291 0.950 . S
C2262 H2244 0.951 . S
C2262 C2263 1.366 . S
C2262 C2264 1.388 . S
C2263 C2262 1.366 . S
C2263 C2267 1.385 . S
C2264 H2245 0.951 . S
C2264 C2262 1.388 . S
C2264 C2265 1.366 . S
C2265 C2264 1.366 . S
C2265 C2266 1.414 . S
C2265 C2268 1.499 . S
C2266 H2246 0.950 . S
C2266 C2265 1.414 . S
C2266 C2267 1.374 . S
C2267 H2247 0.950 . S
C2267 C2263 1.385 . S
C2267 C2266 1.374 . S
C2268 C2265 1.499 . S
C2268 C2269 1.373 . S
C2268 C2270 1.389 . S
C2269 H2248 0.950 . S
C2269 C2268 1.373 . S
C2269 C2285 1.377 . S
C2270 C2268 1.389 . S
C2270 C2271 1.524 . S
C2270 C2284 1.377 . S
C2271 C2270 1.524 . S
C2271 C2272 1.397 . S
C2271 C2276 1.363 . S
C2272 H2249 0.950 . S
C2272 C2271 1.397 . S
C2272 C2273 1.334 . S
C2273 H2250 0.950 . S
C2273 C2272 1.334 . S
C2273 C2274 1.287 . S
C2274 C2273 1.287 . S
C2274 C2275 1.524 . S
C2274 H2293 0.913 . S
C2275 H2251 0.950 . S
C2275 C2274 1.524 . S
C2275 C2276 1.415 . S
C2276 H2252 0.950 . S
C2276 C2271 1.363 . S
C2276 C2275 1.415 . S
C2277 H2253 0.951 . S
C2277 C2278 1.366 . S
C2277 C2279 1.388 . S
C2278 C2277 1.366 . S
C2278 C2282 1.385 . S
C2279 H2254 0.951 . S
C2279 C2277 1.388 . S
C2279 C2280 1.366 . S
C2280 C2279 1.366 . S
C2280 C2281 1.414 . S
C2280 C2283 1.499 . S
C2281 H2255 0.950 . S
C2281 C2280 1.414 . S
C2281 C2282 1.374 . S
C2282 H2256 0.950 . S
C2282 C2278 1.385 . S
C2282 C2281 1.374 . S
C2283 C2280 1.499 . S
C2283 C2284 1.373 . S
C2283 C2285 1.389 . S
C2284 H2257 0.950 . S
C2284 C2270 1.377 . S
C2284 C2283 1.373 . S
C2285 C2269 1.377 . S
C2285 C2283 1.389 . S
C2285 C2286 1.524 . S
C2286 C2285 1.524 . S
C2286 C2287 1.397 . S
C2286 C2291 1.363 . S
C2287 H2258 0.950 . S
C2287 C2286 1.397 . S
C2287 C2288 1.334 . S
C2288 H2259 0.950 . S
C2288 C2287 1.334 . S
C2288 C2289 1.287 . S
C2289 C2288 1.287 . S
C2289 C2290 1.524 . S
C2289 H2292 0.999 . S
C2290 H2260 0.950 . S
C2290 C2289 1.524 . S
C2290 C2291 1.415 . S
C2291 H2261 0.950 . S
C2291 C2286 1.363 . S
C2291 C2290 1.415 . S
H2292 C2289 0.999 . S
H2293 C2274 0.913 . S
H2294 C2312 0.951 . S
H2295 C2314 0.951 . S
H2296 C2316 0.950 . S
H2297 C2317 0.952 . S
H2298 C2319 0.950 . S
H2299 C2322 0.950 . S
H2300 C2323 0.950 . S
H2301 C2325 0.950 . S
H2302 C2326 0.950 . S
H2303 C2327 0.951 . S
H2304 C2329 0.951 . S
H2305 C2331 0.950 . S
H2306 C2332 0.950 . S
H2307 C2334 0.950 . S
H2308 C2337 0.950 . S
H2309 C2338 0.950 . S
H2310 C2340 0.950 . S
H2311 C2341 0.950 . S
C2312 H2294 0.951 . S
C2312 C2313 1.366 . S
C2312 C2314 1.388 . S
C2313 C2312 1.366 . S
C2313 C2317 1.385 . S
C2314 H2295 0.951 . S
C2314 C2312 1.388 . S
C2314 C2315 1.366 . S
C2315 C2314 1.366 . S
C2315 C2316 1.414 . S
C2315 C2318 1.499 . S
C2316 H2296 0.950 . S
C2316 C2315 1.414 . S
C2316 C2317 1.374 . S
C2317 H2297 0.952 . S
C2317 C2313 1.385 . S
C2317 C2316 1.374 . S
C2318 C2315 1.499 . S
C2318 C2319 1.373 . S
C2318 C2320 1.389 . S
C2319 H2298 0.950 . S
C2319 C2318 1.373 . S
C2319 C2335 1.377 . S
C2320 C2318 1.389 . S
C2320 C2321 1.524 . S
C2320 C2334 1.377 . S
C2321 C2320 1.524 . S
C2321 C2322 1.397 . S
C2321 C2326 1.363 . S
C2322 H2299 0.950 . S
C2322 C2321 1.397 . S
C2322 C2323 1.334 . S
C2323 H2300 0.950 . S
C2323 C2322 1.334 . S
C2323 C2324 1.287 . S
C2324 C2323 1.287 . S
C2324 C2325 1.524 . S
C2324 H2343 0.913 . S
C2325 H2301 0.950 . S
C2325 C2324 1.524 . S
C2325 C2326 1.415 . S
C2326 H2302 0.950 . S
C2326 C2321 1.363 . S
C2326 C2325 1.415 . S
C2327 H2303 0.951 . S
C2327 C2328 1.366 . S
C2327 C2329 1.388 . S
C2328 C2327 1.366 . S
C2328 C2332 1.385 . S
C2329 H2304 0.951 . S
C2329 C2327 1.388 . S
C2329 C2330 1.366 . S
C2330 C2329 1.366 . S
C2330 C2331 1.414 . S
C2330 C2333 1.499 . S
C2331 H2305 0.950 . S
C2331 C2330 1.414 . S
C2331 C2332 1.374 . S
C2332 H2306 0.950 . S
C2332 C2328 1.385 . S
C2332 C2331 1.374 . S
C2333 C2330 1.499 . S
C2333 C2334 1.373 . S
C2333 C2335 1.389 . S
C2334 H2307 0.950 . S
C2334 C2320 1.377 . S
C2334 C2333 1.373 . S
C2335 C2319 1.377 . S
C2335 C2333 1.389 . S
C2335 C2336 1.524 . S
C2336 C2335 1.524 . S
C2336 C2337 1.397 . S
C2336 C2341 1.363 . S
C2337 H2308 0.950 . S
C2337 C2336 1.397 . S
C2337 C2338 1.334 . S
C2338 H2309 0.950 . S
C2338 C2337 1.334 . S
C2338 C2339 1.287 . S
C2339 C2338 1.287 . S
C2339 C2340 1.524 . S
C2339 H2342 0.999 . S
C2340 H2310 0.950 . S
C2340 C2339 1.524 . S
C2340 C2341 1.415 . S
C2341 H2311 0.950 . S
C2341 C2336 1.363 . S
C2341 C2340 1.415 . S
H2342 C2339 0.999 . S
H2343 C2324 0.913 . S
H2344 C2362 0.951 . S
H2345 C2364 0.951 . S
H2346 C2366 0.950 . S
H2347 C2367 0.950 . S
H2348 C2369 0.950 . S
H2349 C2372 0.950 . S
H2350 C2373 0.950 . S
H2351 C2375 0.950 . S
H2352 C2376 0.950 . S
H2353 C2377 0.951 . S
H2354 C2379 0.951 . S
H2355 C2381 0.950 . S
H2356 C2382 0.950 . S
H2357 C2384 0.950 . S
H2358 C2387 0.950 . S
H2359 C2388 0.950 . S
H2360 C2390 0.950 . S
H2361 C2391 0.950 . S
C2362 H2344 0.951 . S
C2362 C2363 1.366 . S
C2362 C2364 1.388 . S
C2363 C2362 1.366 . S
C2363 C2367 1.385 . S
C2364 H2345 0.951 . S
C2364 C2362 1.388 . S
C2364 C2365 1.366 . S
C2365 C2364 1.366 . S
C2365 C2366 1.414 . S
C2365 C2368 1.499 . S
C2366 H2346 0.950 . S
C2366 C2365 1.414 . S
C2366 C2367 1.374 . S
C2367 H2347 0.950 . S
C2367 C2363 1.385 . S
C2367 C2366 1.374 . S
C2368 C2365 1.499 . S
C2368 C2369 1.373 . S
C2368 C2370 1.389 . S
C2369 H2348 0.950 . S
C2369 C2368 1.373 . S
C2369 C2385 1.377 . S
C2370 C2368 1.389 . S
C2370 C2371 1.524 . S
C2370 C2384 1.377 . S
C2371 C2370 1.524 . S
C2371 C2372 1.397 . S
C2371 C2376 1.363 . S
C2372 H2349 0.950 . S
C2372 C2371 1.397 . S
C2372 C2373 1.334 . S
C2373 H2350 0.950 . S
C2373 C2372 1.334 . S
C2373 C2374 1.287 . S
C2374 C2373 1.287 . S
C2374 C2375 1.524 . S
C2374 H2393 0.913 . S
C2375 H2351 0.950 . S
C2375 C2374 1.524 . S
C2375 C2376 1.415 . S
C2376 H2352 0.950 . S
C2376 C2371 1.363 . S
C2376 C2375 1.415 . S
C2377 H2353 0.951 . S
C2377 C2378 1.366 . S
C2377 C2379 1.388 . S
C2378 C2377 1.366 . S
C2378 C2382 1.385 . S
C2379 H2354 0.951 . S
C2379 C2377 1.388 . S
C2379 C2380 1.366 . S
C2380 C2379 1.366 . S
C2380 C2381 1.414 . S
C2380 C2383 1.499 . S
C2381 H2355 0.950 . S
C2381 C2380 1.414 . S
C2381 C2382 1.374 . S
C2382 H2356 0.950 . S
C2382 C2378 1.385 . S
C2382 C2381 1.374 . S
C2383 C2380 1.499 . S
C2383 C2384 1.373 . S
C2383 C2385 1.389 . S
C2384 H2357 0.950 . S
C2384 C2370 1.377 . S
C2384 C2383 1.373 . S
C2385 C2369 1.377 . S
C2385 C2383 1.389 . S
C2385 C2386 1.524 . S
C2386 C2385 1.524 . S
C2386 C2387 1.397 . S
C2386 C2391 1.363 . S
C2387 H2358 0.950 . S
C2387 C2386 1.397 . S
C2387 C2388 1.334 . S
C2388 H2359 0.950 . S
C2388 C2387 1.334 . S
C2388 C2389 1.287 . S
C2389 C2388 1.287 . S
C2389 C2390 1.524 . S
C2389 H2392 0.999 . S
C2390 H2360 0.950 . S
C2390 C2389 1.524 . S
C2390 C2391 1.415 . S
C2391 H2361 0.950 . S
C2391 C2386 1.363 . S
C2391 C2390 1.415 . S
H2392 C2389 0.999 . S
H2393 C2374 0.913 . S
H2394 C2412 0.951 . S
H2395 C2414 0.951 . S
H2396 C2416 0.950 . S
H2397 C2417 0.950 . S
H2398 C2419 0.950 . S
H2399 C2422 0.950 . S
H2400 C2423 0.950 . S
H2401 C2425 0.950 . S
H2402 C2426 0.950 . S
H2403 C2427 0.951 . S
H2404 C2429 0.951 . S
H2405 C2431 0.950 . S
H2406 C2432 0.950 . S
H2407 C2434 0.950 . S
H2408 C2437 0.950 . S
H2409 C2438 0.950 . S
H2410 C2440 0.950 . S
H2411 C2441 0.950 . S
C2412 H2394 0.951 . S
C2412 C2413 1.366 . S
C2412 C2414 1.388 . S
C2413 C2412 1.366 . S
C2413 C2417 1.385 . S
C2414 H2395 0.951 . S
C2414 C2412 1.388 . S
C2414 C2415 1.366 . S
C2415 C2414 1.366 . S
C2415 C2416 1.414 . S
C2415 C2418 1.499 . S
C2416 H2396 0.950 . S
C2416 C2415 1.414 . S
C2416 C2417 1.374 . S
C2417 H2397 0.950 . S
C2417 C2413 1.385 . S
C2417 C2416 1.374 . S
C2418 C2415 1.499 . S
C2418 C2419 1.373 . S
C2418 C2420 1.389 . S
C2419 H2398 0.950 . S
C2419 C2418 1.373 . S
C2419 C2435 1.377 . S
C2420 C2418 1.389 . S
C2420 C2421 1.524 . S
C2420 C2434 1.377 . S
C2421 C2420 1.524 . S
C2421 C2422 1.397 . S
C2421 C2426 1.363 . S
C2422 H2399 0.950 . S
C2422 C2421 1.397 . S
C2422 C2423 1.334 . S
C2423 H2400 0.950 . S
C2423 C2422 1.334 . S
C2423 C2424 1.287 . S
C2424 C2423 1.287 . S
C2424 C2425 1.524 . S
C2424 H2443 0.913 . S
C2425 H2401 0.950 . S
C2425 C2424 1.524 . S
C2425 C2426 1.415 . S
C2426 H2402 0.950 . S
C2426 C2421 1.363 . S
C2426 C2425 1.415 . S
C2427 H2403 0.951 . S
C2427 C2428 1.366 . S
C2427 C2429 1.388 . S
C2428 C2427 1.366 . S
C2428 C2432 1.385 . S
C2429 H2404 0.951 . S
C2429 C2427 1.388 . S
C2429 C2430 1.366 . S
C2430 C2429 1.366 . S
C2430 C2431 1.414 . S
C2430 C2433 1.499 . S
C2431 H2405 0.950 . S
C2431 C2430 1.414 . S
C2431 C2432 1.374 . S
C2432 H2406 0.950 . S
C2432 C2428 1.385 . S
C2432 C2431 1.374 . S
C2433 C2430 1.499 . S
C2433 C2434 1.373 . S
C2433 C2435 1.389 . S
C2434 H2407 0.950 . S
C2434 C2420 1.377 . S
C2434 C2433 1.373 . S
C2435 C2419 1.377 . S
C2435 C2433 1.389 . S
C2435 C2436 1.524 . S
C2436 C2435 1.524 . S
C2436 C2437 1.397 . S
C2436 C2441 1.363 . S
C2437 H2408 0.950 . S
C2437 C2436 1.397 . S
C2437 C2438 1.334 . S
C2438 H2409 0.950 . S
C2438 C2437 1.334 . S
C2438 C2439 1.287 . S
C2439 C2438 1.287 . S
C2439 C2440 1.524 . S
C2439 H2442 0.999 . S
C2440 H2410 0.950 . S
C2440 C2439 1.524 . S
C2440 C2441 1.415 . S
C2441 H2411 0.950 . S
C2441 C2436 1.363 . S
C2441 C2440 1.415 . S
H2442 C2439 0.999 . S
H2443 C2424 0.913 . S
H2444 C2462 0.951 . S
H2445 C2464 0.951 . S
H2446 C2466 0.950 . S
H2447 C2467 0.950 . S
H2448 C2469 0.950 . S
H2449 C2472 0.950 . S
H2450 C2473 0.950 . S
H2451 C2475 0.950 . S
H2452 C2476 0.950 . S
H2453 C2477 0.951 . S
H2454 C2479 0.951 . S
H2455 C2481 0.950 . S
H2456 C2482 0.950 . S
H2457 C2484 0.950 . S
H2458 C2487 0.950 . S
H2459 C2488 0.950 . S
H2460 C2490 0.950 . S
H2461 C2491 0.950 . S
C2462 H2444 0.951 . S
C2462 C2463 1.366 . S
C2462 C2464 1.388 . S
C2463 C2462 1.366 . S
C2463 C2467 1.385 . S
C2464 H2445 0.951 . S
C2464 C2462 1.388 . S
C2464 C2465 1.366 . S
C2465 C2464 1.366 . S
C2465 C2466 1.414 . S
C2465 C2468 1.499 . S
C2466 H2446 0.950 . S
C2466 C2465 1.414 . S
C2466 C2467 1.374 . S
C2467 H2447 0.950 . S
C2467 C2463 1.385 . S
C2467 C2466 1.374 . S
C2468 C2465 1.499 . S
C2468 C2469 1.373 . S
C2468 C2470 1.389 . S
C2469 H2448 0.950 . S
C2469 C2468 1.373 . S
C2469 C2485 1.377 . S
C2470 C2468 1.389 . S
C2470 C2471 1.524 . S
C2470 C2484 1.377 . S
C2471 C2470 1.524 . S
C2471 C2472 1.397 . S
C2471 C2476 1.363 . S
C2472 H2449 0.950 . S
C2472 C2471 1.397 . S
C2472 C2473 1.334 . S
C2473 H2450 0.950 . S
C2473 C2472 1.334 . S
C2473 C2474 1.287 . S
C2474 C2473 1.287 . S
C2474 C2475 1.524 . S
C2474 H2493 0.913 . S
C2475 H2451 0.950 . S
C2475 C2474 1.524 . S
C2475 C2476 1.415 . S
C2476 H2452 0.950 . S
C2476 C2471 1.363 . S
C2476 C2475 1.415 . S
C2477 H2453 0.951 . S
C2477 C2478 1.366 . S
C2477 C2479 1.388 . S
C2478 C2477 1.366 . S
C2478 C2482 1.385 . S
C2479 H2454 0.951 . S
C2479 C2477 1.388 . S
C2479 C2480 1.366 . S
C2480 C2479 1.366 . S
C2480 C2481 1.414 . S
C2480 C2483 1.499 . S
C2481 H2455 0.950 . S
C2481 C2480 1.414 . S
C2481 C2482 1.374 . S
C2482 H2456 0.950 . S
C2482 C2478 1.385 . S
C2482 C2481 1.374 . S
C2483 C2480 1.499 . S
C2483 C2484 1.373 . S
C2483 C2485 1.389 . S
C2484 H2457 0.950 . S
C2484 C2470 1.377 . S
C2484 C2483 1.373 . S
C2485 C2469 1.377 . S
C2485 C2483 1.389 . S
C2485 C2486 1.524 . S
C2486 C2485 1.524 . S
C2486 C2487 1.397 . S
C2486 C2491 1.363 . S
C2487 H2458 0.950 . S
C2487 C2486 1.397 . S
C2487 C2488 1.334 . S
C2488 H2459 0.950 . S
C2488 C2487 1.334 . S
C2488 C2489 1.287 . S
C2489 C2488 1.287 . S
C2489 C2490 1.524 . S
C2489 H2492 0.999 . S
C2490 H2460 0.950 . S
C2490 C2489 1.524 . S
C2490 C2491 1.415 . S
C2491 H2461 0.950 . S
C2491 C2486 1.363 . S
C2491 C2490 1.415 . S
H2492 C2489 0.999 . S
H2493 C2474 0.913 . S
H2494 C2512 0.951 . S
H2495 C2514 0.951 . S
H2496 C2516 0.950 . S
H2497 C2517 0.950 . S
H2498 C2519 0.950 . S
H2499 C2522 0.950 . S
H2500 C2523 0.950 . S
H2501 C2525 0.950 . S
H2502 C2526 0.950 . S
H2503 C2527 0.951 . S
H2504 C2529 0.951 . S
H2505 C2531 0.950 . S
H2506 C2532 0.950 . S
H2507 C2534 0.950 . S
H2508 C2537 0.950 . S
H2509 C2538 0.950 . S
H2510 C2540 0.950 . S
H2511 C2541 0.950 . S
C2512 H2494 0.951 . S
C2512 C2513 1.366 . S
C2512 C2514 1.388 . S
C2513 C2512 1.366 . S
C2513 C2517 1.385 . S
C2514 H2495 0.951 . S
C2514 C2512 1.388 . S
C2514 C2515 1.366 . S
C2515 C2514 1.366 . S
C2515 C2516 1.414 . S
C2515 C2518 1.499 . S
C2516 H2496 0.950 . S
C2516 C2515 1.414 . S
C2516 C2517 1.374 . S
C2517 H2497 0.950 . S
C2517 C2513 1.385 . S
C2517 C2516 1.374 . S
C2518 C2515 1.499 . S
C2518 C2519 1.373 . S
C2518 C2520 1.389 . S
C2519 H2498 0.950 . S
C2519 C2518 1.373 . S
C2519 C2535 1.377 . S
C2520 C2518 1.389 . S
C2520 C2521 1.524 . S
C2520 C2534 1.377 . S
C2521 C2520 1.524 . S
C2521 C2522 1.397 . S
C2521 C2526 1.363 . S
C2522 H2499 0.950 . S
C2522 C2521 1.397 . S
C2522 C2523 1.334 . S
C2523 H2500 0.950 . S
C2523 C2522 1.334 . S
C2523 C2524 1.287 . S
C2524 C2523 1.287 . S
C2524 C2525 1.524 . S
C2524 H2543 0.913 . S
C2525 H2501 0.950 . S
C2525 C2524 1.524 . S
C2525 C2526 1.415 . S
C2526 H2502 0.950 . S
C2526 C2521 1.363 . S
C2526 C2525 1.415 . S
C2527 H2503 0.951 . S
C2527 C2528 1.366 . S
C2527 C2529 1.388 . S
C2528 C2527 1.366 . S
C2528 C2532 1.385 . S
C2529 H2504 0.951 . S
C2529 C2527 1.388 . S
C2529 C2530 1.366 . S
C2530 C2529 1.366 . S
C2530 C2531 1.414 . S
C2530 C2533 1.499 . S
C2531 H2505 0.950 . S
C2531 C2530 1.414 . S
C2531 C2532 1.374 . S
C2532 H2506 0.950 . S
C2532 C2528 1.385 . S
C2532 C2531 1.374 . S
C2533 C2530 1.499 . S
C2533 C2534 1.373 . S
C2533 C2535 1.389 . S
C2534 H2507 0.950 . S
C2534 C2520 1.377 . S
C2534 C2533 1.373 . S
C2535 C2519 1.377 . S
C2535 C2533 1.389 . S
C2535 C2536 1.524 . S
C2536 C2535 1.524 . S
C2536 C2537 1.397 . S
C2536 C2541 1.363 . S
C2537 H2508 0.950 . S
C2537 C2536 1.397 . S
C2537 C2538 1.334 . S
C2538 H2509 0.950 . S
C2538 C2537 1.334 . S
C2538 C2539 1.287 . S
C2539 C2538 1.287 . S
C2539 C2540 1.524 . S
C2539 H2542 0.999 . S
C2540 H2510 0.950 . S
C2540 C2539 1.524 . S
C2540 C2541 1.415 . S
C2541 H2511 0.950 . S
C2541 C2536 1.363 . S
C2541 C2540 1.415 . S
H2542 C2539 0.999 . S
H2543 C2524 0.913 . S
H2544 C2562 0.951 . S
H2545 C2564 0.951 . S
H2546 C2566 0.950 . S
H2547 C2567 0.950 . S
H2548 C2569 0.950 . S
H2549 C2572 0.950 . S
H2550 C2573 0.950 . S
H2551 C2575 0.950 . S
H2552 C2576 0.950 . S
H2553 C2577 0.951 . S
H2554 C2579 0.951 . S
H2555 C2581 0.950 . S
H2556 C2582 0.950 . S
H2557 C2584 0.950 . S
H2558 C2587 0.950 . S
H2559 C2588 0.950 . S
H2560 C2590 0.950 . S
H2561 C2591 0.950 . S
C2562 H2544 0.951 . S
C2562 C2563 1.366 . S
C2562 C2564 1.388 . S
C2563 C2562 1.366 . S
C2563 C2567 1.385 . S
C2564 H2545 0.951 . S
C2564 C2562 1.388 . S
C2564 C2565 1.366 . S
C2565 C2564 1.366 . S
C2565 C2566 1.414 . S
C2565 C2568 1.499 . S
C2566 H2546 0.950 . S
C2566 C2565 1.414 . S
C2566 C2567 1.374 . S
C2567 H2547 0.950 . S
C2567 C2563 1.385 . S
C2567 C2566 1.374 . S
C2568 C2565 1.499 . S
C2568 C2569 1.373 . S
C2568 C2570 1.389 . S
C2569 H2548 0.950 . S
C2569 C2568 1.373 . S
C2569 C2585 1.377 . S
C2570 C2568 1.389 . S
C2570 C2571 1.524 . S
C2570 C2584 1.377 . S
C2571 C2570 1.524 . S
C2571 C2572 1.397 . S
C2571 C2576 1.363 . S
C2572 H2549 0.950 . S
C2572 C2571 1.397 . S
C2572 C2573 1.334 . S
C2573 H2550 0.950 . S
C2573 C2572 1.334 . S
C2573 C2574 1.287 . S
C2574 C2573 1.287 . S
C2574 C2575 1.524 . S
C2574 H2593 0.913 . S
C2575 H2551 0.950 . S
C2575 C2574 1.524 . S
C2575 C2576 1.415 . S
C2576 H2552 0.950 . S
C2576 C2571 1.363 . S
C2576 C2575 1.415 . S
C2577 H2553 0.951 . S
C2577 C2578 1.366 . S
C2577 C2579 1.388 . S
C2578 C2577 1.366 . S
C2578 C2582 1.385 . S
C2579 H2554 0.951 . S
C2579 C2577 1.388 . S
C2579 C2580 1.366 . S
C2580 C2579 1.366 . S
C2580 C2581 1.414 . S
C2580 C2583 1.499 . S
C2581 H2555 0.950 . S
C2581 C2580 1.414 . S
C2581 C2582 1.374 . S
C2582 H2556 0.950 . S
C2582 C2578 1.385 . S
C2582 C2581 1.374 . S
C2583 C2580 1.499 . S
C2583 C2584 1.373 . S
C2583 C2585 1.389 . S
C2584 H2557 0.950 . S
C2584 C2570 1.377 . S
C2584 C2583 1.373 . S
C2585 C2569 1.377 . S
C2585 C2583 1.389 . S
C2585 C2586 1.524 . S
C2586 C2585 1.524 . S
C2586 C2587 1.397 . S
C2586 C2591 1.363 . S
C2587 H2558 0.950 . S
C2587 C2586 1.397 . S
C2587 C2588 1.334 . S
C2588 H2559 0.950 . S
C2588 C2587 1.334 . S
C2588 C2589 1.287 . S
C2589 C2588 1.287 . S
C2589 C2590 1.524 . S
C2589 H2592 0.999 . S
C2590 H2560 0.950 . S
C2590 C2589 1.524 . S
C2590 C2591 1.415 . S
C2591 H2561 0.950 . S
C2591 C2586 1.363 . S
C2591 C2590 1.415 . S
H2592 C2589 0.999 . S
H2593 C2574 0.913 . S
H2594 C2612 0.951 . S
H2595 C2614 0.951 . S
H2596 C2616 0.950 . S
H2597 C2617 0.950 . S
H2598 C2619 0.950 . S
H2599 C2622 0.950 . S
H2600 C2623 0.950 . S
H2601 C2625 0.950 1_545 S
H2602 C2626 0.950 . S
H2603 C2627 0.951 . S
H2604 C2629 0.951 . S
H2605 C2631 0.950 . S
H2606 C2632 0.950 . S
H2607 C2634 0.950 . S
H2608 C2637 0.950 . S
H2609 C2638 0.950 . S
H2610 C2640 0.950 . S
H2611 C2641 0.950 . S
C2612 H2594 0.951 . S
C2612 C2613 1.366 . S
C2612 C2614 1.388 . S
C2613 C2612 1.366 . S
C2613 C2617 1.385 . S
C2614 H2595 0.951 . S
C2614 C2612 1.388 . S
C2614 C2615 1.366 . S
C2615 C2614 1.366 . S
C2615 C2616 1.414 . S
C2615 C2618 1.499 . S
C2616 H2596 0.950 . S
C2616 C2615 1.414 . S
C2616 C2617 1.374 . S
C2617 H2597 0.950 . S
C2617 C2613 1.385 . S
C2617 C2616 1.374 . S
C2618 C2615 1.499 . S
C2618 C2619 1.373 . S
C2618 C2620 1.389 . S
C2619 H2598 0.950 . S
C2619 C2618 1.373 . S
C2619 C2635 1.377 . S
C2620 C2618 1.389 . S
C2620 C2621 1.524 . S
C2620 C2634 1.377 . S
C2621 C2620 1.524 . S
C2621 C2622 1.397 . S
C2621 C2626 1.363 . S
C2622 H2599 0.950 . S
C2622 C2621 1.397 . S
C2622 C2623 1.334 . S
C2623 H2600 0.950 . S
C2623 C2622 1.334 . S
C2623 C2624 1.287 . S
C2624 C2623 1.287 . S
C2624 C2625 1.524 . S
C2624 H2643 0.913 . S
C2625 H2601 0.950 1_565 S
C2625 C2624 1.524 . S
C2625 C2626 1.415 . S
C2626 H2602 0.950 . S
C2626 C2621 1.363 . S
C2626 C2625 1.415 . S
C2627 H2603 0.951 . S
C2627 C2628 1.366 . S
C2627 C2629 1.388 . S
C2628 C2627 1.366 . S
C2628 C2632 1.385 . S
C2629 H2604 0.951 . S
C2629 C2627 1.388 . S
C2629 C2630 1.366 . S
C2630 C2629 1.366 . S
C2630 C2631 1.414 . S
C2630 C2633 1.499 . S
C2631 H2605 0.950 . S
C2631 C2630 1.414 . S
C2631 C2632 1.374 . S
C2632 H2606 0.950 . S
C2632 C2628 1.385 . S
C2632 C2631 1.374 . S
C2633 C2630 1.499 . S
C2633 C2634 1.373 . S
C2633 C2635 1.389 . S
C2634 H2607 0.950 . S
C2634 C2620 1.377 . S
C2634 C2633 1.373 . S
C2635 C2619 1.377 . S
C2635 C2633 1.389 . S
C2635 C2636 1.524 . S
C2636 C2635 1.524 . S
C2636 C2637 1.397 . S
C2636 C2641 1.363 . S
C2637 H2608 0.950 . S
C2637 C2636 1.397 . S
C2637 C2638 1.334 . S
C2638 H2609 0.950 . S
C2638 C2637 1.334 . S
C2638 C2639 1.287 . S
C2639 C2638 1.287 . S
C2639 C2640 1.524 . S
C2639 H2642 0.999 . S
C2640 H2610 0.950 . S
C2640 C2639 1.524 . S
C2640 C2641 1.415 . S
C2641 H2611 0.950 . S
C2641 C2636 1.363 . S
C2641 C2640 1.415 . S
H2642 C2639 0.999 . S
H2643 C2624 0.913 . S
H2644 C2662 0.951 . S
H2645 C2664 0.951 . S
H2646 C2666 0.950 . S
H2647 C2667 0.950 . S
H2648 C2669 0.950 . S
H2649 C2672 0.950 . S
H2650 C2673 0.950 . S
H2651 C2675 0.950 . S
H2652 C2676 0.950 . S
H2653 C2677 0.951 . S
H2654 C2679 0.951 . S
H2655 C2681 0.950 . S
H2656 C2682 0.950 . S
H2657 C2684 0.950 . S
H2658 C2687 0.950 . S
H2659 C2688 0.950 . S
H2660 C2690 0.950 . S
H2661 C2691 0.950 . S
C2662 H2644 0.951 . S
C2662 C2663 1.366 . S
C2662 C2664 1.388 . S
C2663 C2662 1.366 . S
C2663 C2667 1.385 . S
C2664 H2645 0.951 . S
C2664 C2662 1.388 . S
C2664 C2665 1.366 . S
C2665 C2664 1.366 . S
C2665 C2666 1.414 . S
C2665 C2668 1.499 . S
C2666 H2646 0.950 . S
C2666 C2665 1.414 . S
C2666 C2667 1.374 . S
C2667 H2647 0.950 . S
C2667 C2663 1.385 . S
C2667 C2666 1.374 . S
C2668 C2665 1.499 . S
C2668 C2669 1.373 . S
C2668 C2670 1.389 . S
C2669 H2648 0.950 . S
C2669 C2668 1.373 . S
C2669 C2685 1.377 . S
C2670 C2668 1.389 . S
C2670 C2671 1.524 . S
C2670 C2684 1.377 . S
C2671 C2670 1.524 . S
C2671 C2672 1.397 . S
C2671 C2676 1.363 . S
C2672 H2649 0.950 . S
C2672 C2671 1.397 . S
C2672 C2673 1.334 . S
C2673 H2650 0.950 . S
C2673 C2672 1.334 . S
C2673 C2674 1.287 . S
C2674 C2673 1.287 . S
C2674 C2675 1.524 . S
C2674 H2693 0.913 . S
C2675 H2651 0.950 . S
C2675 C2674 1.524 . S
C2675 C2676 1.415 . S
C2676 H2652 0.950 . S
C2676 C2671 1.363 . S
C2676 C2675 1.415 . S
C2677 H2653 0.951 . S
C2677 C2678 1.366 . S
C2677 C2679 1.388 . S
C2678 C2677 1.366 . S
C2678 C2682 1.385 . S
C2679 H2654 0.951 . S
C2679 C2677 1.388 . S
C2679 C2680 1.366 . S
C2680 C2679 1.366 . S
C2680 C2681 1.414 . S
C2680 C2683 1.499 . S
C2681 H2655 0.950 . S
C2681 C2680 1.414 . S
C2681 C2682 1.374 . S
C2682 H2656 0.950 . S
C2682 C2678 1.385 . S
C2682 C2681 1.374 . S
C2683 C2680 1.499 . S
C2683 C2684 1.373 . S
C2683 C2685 1.389 . S
C2684 H2657 0.950 . S
C2684 C2670 1.377 . S
C2684 C2683 1.373 . S
C2685 C2669 1.377 . S
C2685 C2683 1.389 . S
C2685 C2686 1.524 . S
C2686 C2685 1.524 . S
C2686 C2687 1.397 . S
C2686 C2691 1.363 . S
C2687 H2658 0.950 . S
C2687 C2686 1.397 . S
C2687 C2688 1.334 . S
C2688 H2659 0.950 . S
C2688 C2687 1.334 . S
C2688 C2689 1.287 . S
C2689 C2688 1.287 . S
C2689 C2690 1.524 . S
C2689 H2692 0.999 . S
C2690 H2660 0.950 . S
C2690 C2689 1.524 . S
C2690 C2691 1.415 . S
C2691 H2661 0.950 . S
C2691 C2686 1.363 . S
C2691 C2690 1.415 . S
H2692 C2689 0.999 . S
H2693 C2674 0.913 . S
H2694 C2712 0.951 . S
H2695 C2714 0.951 . S
H2696 C2716 0.950 . S
H2697 C2717 0.950 . S
H2698 C2719 0.950 . S
H2699 C2722 0.950 . S
H2700 C2723 0.950 . S
H2701 C2725 0.950 . S
H2702 C2726 0.950 . S
H2703 C2727 0.951 . S
H2704 C2729 0.951 . S
H2705 C2731 0.950 . S
H2706 C2732 0.950 . S
H2707 C2734 0.950 . S
H2708 C2737 0.950 . S
H2709 C2738 0.950 . S
H2710 C2740 0.950 . S
H2711 C2741 0.950 . S
C2712 H2694 0.951 . S
C2712 C2713 1.366 . S
C2712 C2714 1.388 . S
C2713 C2712 1.366 . S
C2713 C2717 1.385 . S
C2714 H2695 0.951 . S
C2714 C2712 1.388 . S
C2714 C2715 1.366 . S
C2715 C2714 1.366 . S
C2715 C2716 1.414 . S
C2715 C2718 1.499 . S
C2716 H2696 0.950 . S
C2716 C2715 1.414 . S
C2716 C2717 1.374 . S
C2717 H2697 0.950 . S
C2717 C2713 1.385 . S
C2717 C2716 1.374 . S
C2718 C2715 1.499 . S
C2718 C2719 1.373 . S
C2718 C2720 1.389 . S
C2719 H2698 0.950 . S
C2719 C2718 1.373 . S
C2719 C2735 1.377 . S
C2720 C2718 1.389 . S
C2720 C2721 1.524 . S
C2720 C2734 1.377 . S
C2721 C2720 1.524 . S
C2721 C2722 1.397 . S
C2721 C2726 1.363 . S
C2722 H2699 0.950 . S
C2722 C2721 1.397 . S
C2722 C2723 1.334 . S
C2723 H2700 0.950 . S
C2723 C2722 1.334 . S
C2723 C2724 1.287 . S
C2724 C2723 1.287 . S
C2724 C2725 1.524 . S
C2724 H2743 0.913 . S
C2725 H2701 0.950 . S
C2725 C2724 1.524 . S
C2725 C2726 1.415 . S
C2726 H2702 0.950 . S
C2726 C2721 1.363 . S
C2726 C2725 1.415 . S
C2727 H2703 0.951 . S
C2727 C2728 1.366 . S
C2727 C2729 1.388 . S
C2728 C2727 1.366 . S
C2728 C2732 1.385 . S
C2729 H2704 0.951 . S
C2729 C2727 1.388 . S
C2729 C2730 1.366 . S
C2730 C2729 1.366 . S
C2730 C2731 1.414 . S
C2730 C2733 1.499 . S
C2731 H2705 0.950 . S
C2731 C2730 1.414 . S
C2731 C2732 1.374 . S
C2732 H2706 0.950 . S
C2732 C2728 1.385 . S
C2732 C2731 1.374 . S
C2733 C2730 1.499 . S
C2733 C2734 1.373 . S
C2733 C2735 1.389 . S
C2734 H2707 0.950 . S
C2734 C2720 1.377 . S
C2734 C2733 1.373 . S
C2735 C2719 1.377 . S
C2735 C2733 1.389 . S
C2735 C2736 1.524 . S
C2736 C2735 1.524 . S
C2736 C2737 1.397 . S
C2736 C2741 1.363 . S
C2737 H2708 0.950 . S
C2737 C2736 1.397 . S
C2737 C2738 1.334 . S
C2738 H2709 0.950 . S
C2738 C2737 1.334 . S
C2738 C2739 1.287 . S
C2739 C2738 1.287 . S
C2739 C2740 1.524 . S
C2739 H2742 0.999 . S
C2740 H2710 0.950 . S
C2740 C2739 1.524 . S
C2740 C2741 1.415 . S
C2741 H2711 0.950 . S
C2741 C2736 1.363 . S
C2741 C2740 1.415 . S
H2742 C2739 0.999 . S
H2743 C2724 0.913 . S
H2744 C2762 0.951 . S
H2745 C2764 0.951 . S
H2746 C2766 0.950 . S
H2747 C2767 0.950 . S
H2748 C2769 0.950 . S
H2749 C2772 0.950 . S
H2750 C2773 0.950 . S
H2751 C2775 0.950 . S
H2752 C2776 0.950 . S
H2753 C2777 0.951 . S
H2754 C2779 0.951 . S
H2755 C2781 0.950 . S
H2756 C2782 0.950 . S
H2757 C2784 0.950 . S
H2758 C2787 0.950 . S
H2759 C2788 0.950 . S
H2760 C2790 0.950 . S
H2761 C2791 0.950 . S
C2762 H2744 0.951 . S
C2762 C2763 1.366 . S
C2762 C2764 1.388 . S
C2763 C2762 1.366 . S
C2763 C2767 1.385 . S
C2764 H2745 0.951 . S
C2764 C2762 1.388 . S
C2764 C2765 1.366 . S
C2765 C2764 1.366 . S
C2765 C2766 1.414 . S
C2765 C2768 1.499 . S
C2766 H2746 0.950 . S
C2766 C2765 1.414 . S
C2766 C2767 1.374 . S
C2767 H2747 0.950 . S
C2767 C2763 1.385 . S
C2767 C2766 1.374 . S
C2768 C2765 1.499 . S
C2768 C2769 1.373 . S
C2768 C2770 1.389 . S
C2769 H2748 0.950 . S
C2769 C2768 1.373 . S
C2769 C2785 1.377 . S
C2770 C2768 1.389 . S
C2770 C2771 1.524 . S
C2770 C2784 1.377 . S
C2771 C2770 1.524 . S
C2771 C2772 1.397 . S
C2771 C2776 1.363 . S
C2772 H2749 0.950 . S
C2772 C2771 1.397 . S
C2772 C2773 1.334 . S
C2773 H2750 0.950 . S
C2773 C2772 1.334 . S
C2773 C2774 1.287 . S
C2774 C2773 1.287 . S
C2774 C2775 1.524 . S
C2774 H2793 0.913 . S
C2775 H2751 0.950 . S
C2775 C2774 1.524 . S
C2775 C2776 1.415 . S
C2776 H2752 0.950 . S
C2776 C2771 1.363 . S
C2776 C2775 1.415 . S
C2777 H2753 0.951 . S
C2777 C2778 1.366 . S
C2777 C2779 1.388 . S
C2778 C2777 1.366 . S
C2778 C2782 1.385 . S
C2779 H2754 0.951 . S
C2779 C2777 1.388 . S
C2779 C2780 1.366 . S
C2780 C2779 1.366 . S
C2780 C2781 1.414 . S
C2780 C2783 1.499 . S
C2781 H2755 0.950 . S
C2781 C2780 1.414 . S
C2781 C2782 1.374 . S
C2782 H2756 0.950 . S
C2782 C2778 1.385 . S
C2782 C2781 1.374 . S
C2783 C2780 1.499 . S
C2783 C2784 1.373 . S
C2783 C2785 1.389 . S
C2784 H2757 0.950 . S
C2784 C2770 1.377 . S
C2784 C2783 1.373 . S
C2785 C2769 1.377 . S
C2785 C2783 1.389 . S
C2785 C2786 1.524 . S
C2786 C2785 1.524 . S
C2786 C2787 1.397 . S
C2786 C2791 1.363 . S
C2787 H2758 0.950 . S
C2787 C2786 1.397 . S
C2787 C2788 1.334 . S
C2788 H2759 0.950 . S
C2788 C2787 1.334 . S
C2788 C2789 1.287 . S
C2789 C2788 1.287 . S
C2789 C2790 1.524 . S
C2789 H2792 0.999 . S
C2790 H2760 0.950 . S
C2790 C2789 1.524 . S
C2790 C2791 1.415 . S
C2791 H2761 0.950 . S
C2791 C2786 1.363 . S
C2791 C2790 1.415 . S
H2792 C2789 0.999 . S
H2793 C2774 0.913 . S
H2794 C2812 0.951 1_655 S
H2795 C2814 0.951 . S
H2796 C2816 0.950 . S
H2797 C2817 0.950 . S
H2798 C2819 0.950 . S
H2799 C2822 0.950 . S
H2800 C2823 0.968 . S
H2801 C2825 0.950 . S
H2802 C2826 0.950 . S
H2803 C2827 0.951 . S
H2804 C2829 0.951 . S
H2805 C2831 0.950 . S
H2806 C2832 0.950 . S
H2807 C2834 0.950 . S
H2808 C2837 0.950 . S
H2809 C2838 0.950 . S
H2810 C2840 0.950 . S
H2811 C2841 0.950 . S
C2812 H2794 0.951 1_455 S
C2812 C2813 1.366 . S
C2812 C2814 1.388 . S
C2813 C2812 1.366 . S
C2813 C2817 1.385 . S
C2814 H2795 0.951 . S
C2814 C2812 1.388 . S
C2814 C2815 1.366 . S
C2815 C2814 1.366 . S
C2815 C2816 1.414 . S
C2815 C2818 1.499 . S
C2816 H2796 0.950 . S
C2816 C2815 1.414 . S
C2816 C2817 1.374 . S
C2817 H2797 0.950 . S
C2817 C2813 1.385 . S
C2817 C2816 1.374 . S
C2818 C2815 1.499 . S
C2818 C2819 1.373 . S
C2818 C2820 1.389 . S
C2819 H2798 0.950 . S
C2819 C2818 1.373 . S
C2819 C2835 1.377 . S
C2820 C2818 1.389 . S
C2820 C2821 1.524 . S
C2820 C2834 1.377 . S
C2821 C2820 1.524 . S
C2821 C2822 1.397 . S
C2821 C2826 1.363 . S
C2822 H2799 0.950 . S
C2822 C2821 1.397 . S
C2822 C2823 1.334 . S
C2823 H2800 0.968 . S
C2823 C2822 1.334 . S
C2823 C2824 1.287 . S
C2824 C2823 1.287 . S
C2824 C2825 1.524 . S
C2824 H2843 0.913 . S
C2825 H2801 0.950 . S
C2825 C2824 1.524 . S
C2825 C2826 1.415 . S
C2826 H2802 0.950 . S
C2826 C2821 1.363 . S
C2826 C2825 1.415 . S
C2827 H2803 0.951 . S
C2827 C2828 1.366 . S
C2827 C2829 1.388 . S
C2828 C2827 1.366 . S
C2828 C2832 1.385 . S
C2829 H2804 0.951 . S
C2829 C2827 1.388 . S
C2829 C2830 1.366 . S
C2830 C2829 1.366 . S
C2830 C2831 1.414 . S
C2830 C2833 1.499 . S
C2831 H2805 0.950 . S
C2831 C2830 1.414 . S
C2831 C2832 1.374 . S
C2832 H2806 0.950 . S
C2832 C2828 1.385 . S
C2832 C2831 1.374 . S
C2833 C2830 1.499 . S
C2833 C2834 1.373 . S
C2833 C2835 1.389 . S
C2834 H2807 0.950 . S
C2834 C2820 1.377 . S
C2834 C2833 1.373 . S
C2835 C2819 1.377 . S
C2835 C2833 1.389 . S
C2835 C2836 1.524 . S
C2836 C2835 1.524 . S
C2836 C2837 1.397 . S
C2836 C2841 1.363 . S
C2837 H2808 0.950 . S
C2837 C2836 1.397 . S
C2837 C2838 1.334 . S
C2838 H2809 0.950 . S
C2838 C2837 1.334 . S
C2838 C2839 1.287 . S
C2839 C2838 1.287 . S
C2839 C2840 1.524 . S
C2839 H2842 0.999 . S
C2840 H2810 0.950 . S
C2840 C2839 1.524 . S
C2840 C2841 1.415 . S
C2841 H2811 0.950 . S
C2841 C2836 1.363 . S
C2841 C2840 1.415 . S
H2842 C2839 0.999 . S
H2843 C2824 0.913 . S
H2844 C2862 0.951 . S
H2845 C2864 0.951 . S
H2846 C2866 0.950 . S
H2847 C2867 0.950 . S
H2848 C2869 0.950 . S
H2849 C2872 0.950 . S
H2850 C2873 0.950 . S
H2851 C2875 0.950 . S
H2852 C2876 0.950 . S
H2853 C2877 0.951 . S
H2854 C2879 0.951 . S
H2855 C2881 0.950 . S
H2856 C2882 0.950 . S
H2857 C2884 0.950 . S
H2858 C2887 0.950 . S
H2859 C2888 0.950 . S
H2860 C2890 0.950 . S
H2861 C2891 0.950 . S
C2862 H2844 0.951 . S
C2862 C2863 1.366 . S
C2862 C2864 1.388 . S
C2863 C2862 1.366 . S
C2863 C2867 1.385 . S
C2864 H2845 0.951 . S
C2864 C2862 1.388 . S
C2864 C2865 1.366 . S
C2865 C2864 1.366 . S
C2865 C2866 1.414 . S
C2865 C2868 1.499 . S
C2866 H2846 0.950 . S
C2866 C2865 1.414 . S
C2866 C2867 1.374 . S
C2867 H2847 0.950 . S
C2867 C2863 1.385 . S
C2867 C2866 1.374 . S
C2868 C2865 1.499 . S
C2868 C2869 1.373 . S
C2868 C2870 1.389 . S
C2869 H2848 0.950 . S
C2869 C2868 1.373 . S
C2869 C2885 1.377 . S
C2870 C2868 1.389 . S
C2870 C2871 1.524 . S
C2870 C2884 1.377 . S
C2871 C2870 1.524 . S
C2871 C2872 1.397 . S
C2871 C2876 1.363 . S
C2872 H2849 0.950 . S
C2872 C2871 1.397 . S
C2872 C2873 1.334 . S
C2873 H2850 0.950 . S
C2873 C2872 1.334 . S
C2873 C2874 1.287 . S
C2874 C2873 1.287 . S
C2874 C2875 1.524 . S
C2874 H2893 0.913 . S
C2875 H2851 0.950 . S
C2875 C2874 1.524 . S
C2875 C2876 1.415 . S
C2876 H2852 0.950 . S
C2876 C2871 1.363 . S
C2876 C2875 1.415 . S
C2877 H2853 0.951 . S
C2877 C2878 1.366 . S
C2877 C2879 1.388 . S
C2878 C2877 1.366 . S
C2878 C2882 1.385 . S
C2879 H2854 0.951 . S
C2879 C2877 1.388 . S
C2879 C2880 1.366 . S
C2880 C2879 1.366 . S
C2880 C2881 1.414 . S
C2880 C2883 1.499 . S
C2881 H2855 0.950 . S
C2881 C2880 1.414 . S
C2881 C2882 1.374 . S
C2882 H2856 0.950 . S
C2882 C2878 1.385 . S
C2882 C2881 1.374 . S
C2883 C2880 1.499 . S
C2883 C2884 1.373 . S
C2883 C2885 1.389 . S
C2884 H2857 0.950 . S
C2884 C2870 1.377 . S
C2884 C2883 1.373 . S
C2885 C2869 1.377 . S
C2885 C2883 1.389 . S
C2885 C2886 1.524 . S
C2886 C2885 1.524 . S
C2886 C2887 1.397 . S
C2886 C2891 1.363 . S
C2887 H2858 0.950 . S
C2887 C2886 1.397 . S
C2887 C2888 1.334 . S
C2888 H2859 0.950 . S
C2888 C2887 1.334 . S
C2888 C2889 1.287 . S
C2889 C2888 1.287 . S
C2889 C2890 1.524 . S
C2889 H2892 0.999 . S
C2890 H2860 0.950 . S
C2890 C2889 1.524 . S
C2890 C2891 1.415 . S
C2891 H2861 0.950 . S
C2891 C2886 1.363 . S
C2891 C2890 1.415 . S
H2892 C2889 0.999 . S
H2893 C2874 0.913 . S
H2894 C2912 0.951 . S
H2895 C2914 0.951 . S
H2896 C2916 0.950 . S
H2897 C2917 0.950 . S
H2898 C2919 0.950 . S
H2899 C2922 0.950 . S
H2900 C2923 0.950 . S
H2901 C2925 0.950 . S
H2902 C2926 0.950 . S
H2903 C2927 0.951 . S
H2904 C2929 0.951 . S
H2905 C2931 0.950 . S
H2906 C2932 0.950 . S
H2907 C2934 0.950 . S
H2908 C2937 0.950 . S
H2909 C2938 0.950 . S
H2910 C2940 0.950 . S
H2911 C2941 0.950 . S
C2912 H2894 0.951 . S
C2912 C2913 1.366 . S
C2912 C2914 1.388 . S
C2913 C2912 1.366 . S
C2913 C2917 1.385 . S
C2914 H2895 0.951 . S
C2914 C2912 1.388 . S
C2914 C2915 1.366 . S
C2915 C2914 1.366 . S
C2915 C2916 1.414 . S
C2915 C2918 1.499 . S
C2916 H2896 0.950 . S
C2916 C2915 1.414 . S
C2916 C2917 1.374 . S
C2917 H2897 0.950 . S
C2917 C2913 1.385 . S
C2917 C2916 1.374 . S
C2918 C2915 1.499 . S
C2918 C2919 1.373 . S
C2918 C2920 1.389 . S
C2919 H2898 0.950 . S
C2919 C2918 1.373 . S
C2919 C2935 1.377 . S
C2920 C2918 1.389 . S
C2920 C2921 1.524 . S
C2920 C2934 1.377 . S
C2921 C2920 1.524 . S
C2921 C2922 1.397 . S
C2921 C2926 1.363 . S
C2922 H2899 0.950 . S
C2922 C2921 1.397 . S
C2922 C2923 1.334 . S
C2923 H2900 0.950 . S
C2923 C2922 1.334 . S
C2923 C2924 1.287 . S
C2924 C2923 1.287 . S
C2924 C2925 1.524 . S
C2924 H2943 0.913 . S
C2925 H2901 0.950 . S
C2925 C2924 1.524 . S
C2925 C2926 1.415 . S
C2926 H2902 0.950 . S
C2926 C2921 1.363 . S
C2926 C2925 1.415 . S
C2927 H2903 0.951 . S
C2927 C2928 1.366 . S
C2927 C2929 1.388 . S
C2928 C2927 1.366 . S
C2928 C2932 1.385 . S
C2929 H2904 0.951 . S
C2929 C2927 1.388 . S
C2929 C2930 1.366 . S
C2930 C2929 1.366 . S
C2930 C2931 1.414 . S
C2930 C2933 1.499 . S
C2931 H2905 0.950 . S
C2931 C2930 1.414 . S
C2931 C2932 1.374 . S
C2932 H2906 0.950 . S
C2932 C2928 1.385 . S
C2932 C2931 1.374 . S
C2933 C2930 1.499 . S
C2933 C2934 1.373 . S
C2933 C2935 1.389 . S
C2934 H2907 0.950 . S
C2934 C2920 1.377 . S
C2934 C2933 1.373 . S
C2935 C2919 1.377 . S
C2935 C2933 1.389 . S
C2935 C2936 1.524 . S
C2936 C2935 1.524 . S
C2936 C2937 1.397 . S
C2936 C2941 1.363 . S
C2937 H2908 0.950 . S
C2937 C2936 1.397 . S
C2937 C2938 1.334 . S
C2938 H2909 0.950 . S
C2938 C2937 1.334 . S
C2938 C2939 1.287 . S
C2939 C2938 1.287 . S
C2939 C2940 1.524 . S
C2939 H2942 0.999 . S
C2940 H2910 0.950 . S
C2940 C2939 1.524 . S
C2940 C2941 1.415 . S
C2941 H2911 0.950 . S
C2941 C2936 1.363 . S
C2941 C2940 1.415 . S
H2942 C2939 0.999 . S
H2943 C2924 0.913 . S
H2944 C2962 0.951 1_554 S
H2945 C2964 0.951 . S
H2946 C2966 0.950 . S
H2947 C2967 0.938 1_554 S
H2948 C2969 0.950 . S
H2949 C2972 0.950 . S
H2950 C2973 0.950 . S
H2951 C2975 0.950 . S
H2952 C2976 0.950 . S
H2953 C2977 0.951 . S
H2954 C2979 0.951 . S
H2955 C2981 0.950 . S
H2956 C2982 0.950 . S
H2957 C2984 0.950 . S
H2958 C2987 0.950 . S
H2959 C2988 0.950 . S
H2960 C2990 0.950 . S
H2961 C2991 0.950 . S
C2962 H2944 0.951 1_556 S
C2962 C2963 1.366 1_556 S
C2962 C2964 1.388 . S
C2963 C2962 1.366 1_554 S
C2963 C2967 1.374 1_554 S
C2964 H2945 0.951 . S
C2964 C2962 1.388 . S
C2964 C2965 1.366 . S
C2965 C2964 1.366 . S
C2965 C2966 1.414 . S
C2965 C2968 1.499 . S
C2966 H2946 0.950 . S
C2966 C2965 1.414 . S
C2966 C2967 1.397 . S
C2967 H2947 0.938 1_556 S
C2967 C2963 1.374 1_556 S
C2967 C2966 1.397 . S
C2968 C2965 1.499 . S
C2968 C2969 1.373 . S
C2968 C2970 1.389 . S
C2969 H2948 0.950 . S
C2969 C2968 1.373 . S
C2969 C2985 1.377 . S
C2970 C2968 1.389 . S
C2970 C2971 1.524 . S
C2970 C2984 1.377 . S
C2971 C2970 1.524 . S
C2971 C2972 1.397 . S
C2971 C2976 1.363 . S
C2972 H2949 0.950 . S
C2972 C2971 1.397 . S
C2972 C2973 1.334 . S
C2973 H2950 0.950 . S
C2973 C2972 1.334 . S
C2973 C2974 1.287 . S
C2974 C2973 1.287 . S
C2974 C2975 1.524 . S
C2974 H2993 0.913 . S
C2975 H2951 0.950 . S
C2975 C2974 1.524 . S
C2975 C2976 1.415 . S
C2976 H2952 0.950 . S
C2976 C2971 1.363 . S
C2976 C2975 1.415 . S
C2977 H2953 0.951 . S
C2977 C2978 1.366 . S
C2977 C2979 1.388 . S
C2978 C2977 1.366 . S
C2978 C2982 1.385 . S
C2979 H2954 0.951 . S
C2979 C2977 1.388 . S
C2979 C2980 1.366 . S
C2980 C2979 1.366 . S
C2980 C2981 1.414 . S
C2980 C2983 1.499 . S
C2981 H2955 0.950 . S
C2981 C2980 1.414 . S
C2981 C2982 1.374 . S
C2982 H2956 0.950 . S
C2982 C2978 1.385 . S
C2982 C2981 1.374 . S
C2983 C2980 1.499 . S
C2983 C2984 1.373 . S
C2983 C2985 1.389 . S
C2984 H2957 0.950 . S
C2984 C2970 1.377 . S
C2984 C2983 1.373 . S
C2985 C2969 1.377 . S
C2985 C2983 1.389 . S
C2985 C2986 1.524 . S
C2986 C2985 1.524 . S
C2986 C2987 1.397 . S
C2986 C2991 1.363 . S
C2987 H2958 0.950 . S
C2987 C2986 1.397 . S
C2987 C2988 1.334 . S
C2988 H2959 0.950 . S
C2988 C2987 1.334 . S
C2988 C2989 1.287 . S
C2989 C2988 1.287 . S
C2989 C2990 1.524 . S
C2989 H2992 0.999 . S
C2990 H2960 0.950 . S
C2990 C2989 1.524 . S
C2990 C2991 1.415 . S
C2991 H2961 0.950 . S
C2991 C2986 1.363 . S
C2991 C2990 1.415 . S
H2992 C2989 0.999 . S
H2993 C2974 0.913 . S
H2994 C3012 0.951 . S
H2995 C3014 0.951 . S
H2996 C3016 0.950 . S
H2997 C3017 0.950 . S
H2998 C3019 0.950 . S
H2999 C3022 0.950 . S
H3000 C3023 0.950 . S
H3001 C3025 0.950 . S
H3002 C3026 0.950 . S
H3003 C3027 0.951 . S
H3004 C3029 0.951 . S
H3005 C3031 0.950 . S
H3006 C3032 0.950 . S
H3007 C3034 0.950 . S
H3008 C3037 0.950 . S
H3009 C3038 0.950 . S
H3010 C3040 0.950 . S
H3011 C3041 0.950 . S
C3012 H2994 0.951 . S
C3012 C3013 1.366 . S
C3012 C3014 1.388 . S
C3013 C3012 1.366 . S
C3013 C3017 1.385 . S
C3014 H2995 0.951 . S
C3014 C3012 1.388 . S
C3014 C3015 1.366 . S
C3015 C3014 1.366 . S
C3015 C3016 1.414 . S
C3015 C3018 1.499 . S
C3016 H2996 0.950 . S
C3016 C3015 1.414 . S
C3016 C3017 1.374 . S
C3017 H2997 0.950 . S
C3017 C3013 1.385 . S
C3017 C3016 1.374 . S
C3018 C3015 1.499 . S
C3018 C3019 1.373 . S
C3018 C3020 1.389 . S
C3019 H2998 0.950 . S
C3019 C3018 1.373 . S
C3019 C3035 1.377 . S
C3020 C3018 1.389 . S
C3020 C3021 1.524 . S
C3020 C3034 1.377 . S
C3021 C3020 1.524 . S
C3021 C3022 1.397 . S
C3021 C3026 1.363 . S
C3022 H2999 0.950 . S
C3022 C3021 1.397 . S
C3022 C3023 1.334 . S
C3023 H3000 0.950 . S
C3023 C3022 1.334 . S
C3023 C3024 1.287 . S
C3024 C3023 1.287 . S
C3024 C3025 1.524 . S
C3024 H3043 0.913 . S
C3025 H3001 0.950 . S
C3025 C3024 1.524 . S
C3025 C3026 1.415 . S
C3026 H3002 0.950 . S
C3026 C3021 1.363 . S
C3026 C3025 1.415 . S
C3027 H3003 0.951 . S
C3027 C3028 1.366 . S
C3027 C3029 1.388 . S
C3028 C3027 1.366 . S
C3028 C3032 1.385 . S
C3029 H3004 0.951 . S
C3029 C3027 1.388 . S
C3029 C3030 1.366 . S
C3030 C3029 1.366 . S
C3030 C3031 1.414 . S
C3030 C3033 1.499 . S
C3031 H3005 0.950 . S
C3031 C3030 1.414 . S
C3031 C3032 1.374 . S
C3032 H3006 0.950 . S
C3032 C3028 1.385 . S
C3032 C3031 1.374 . S
C3033 C3030 1.499 . S
C3033 C3034 1.373 . S
C3033 C3035 1.389 . S
C3034 H3007 0.950 . S
C3034 C3020 1.377 . S
C3034 C3033 1.373 . S
C3035 C3019 1.377 . S
C3035 C3033 1.389 . S
C3035 C3036 1.524 . S
C3036 C3035 1.524 . S
C3036 C3037 1.397 . S
C3036 C3041 1.363 . S
C3037 H3008 0.950 . S
C3037 C3036 1.397 . S
C3037 C3038 1.334 . S
C3038 H3009 0.950 . S
C3038 C3037 1.334 . S
C3038 C3039 1.287 . S
C3039 C3038 1.287 . S
C3039 C3040 1.524 . S
C3039 H3042 0.999 . S
C3040 H3010 0.950 . S
C3040 C3039 1.524 . S
C3040 C3041 1.415 . S
C3041 H3011 0.950 . S
C3041 C3036 1.363 . S
C3041 C3040 1.415 . S
H3042 C3039 0.999 . S
H3043 C3024 0.913 . S
H3044 C3062 0.951 . S
H3045 C3064 0.951 . S
H3046 C3066 0.950 . S
H3047 C3067 0.950 . S
H3048 C3069 0.950 . S
H3049 C3072 0.950 . S
H3050 C3073 0.950 . S
H3051 C3075 0.950 . S
H3052 C3076 0.950 . S
H3053 C3077 0.951 . S
H3054 C3079 0.951 . S
H3055 C3081 0.950 . S
H3056 C3082 0.950 . S
H3057 C3084 0.950 . S
H3058 C3087 0.950 . S
H3059 C3088 0.950 . S
H3060 C3090 0.950 . S
H3061 C3091 0.950 . S
C3062 H3044 0.951 . S
C3062 C3063 1.366 . S
C3062 C3064 1.388 . S
C3063 C3062 1.366 . S
C3063 C3067 1.385 . S
C3064 H3045 0.951 . S
C3064 C3062 1.388 . S
C3064 C3065 1.366 . S
C3065 C3064 1.366 . S
C3065 C3066 1.414 . S
C3065 C3068 1.499 . S
C3066 H3046 0.950 . S
C3066 C3065 1.414 . S
C3066 C3067 1.374 . S
C3067 H3047 0.950 . S
C3067 C3063 1.385 . S
C3067 C3066 1.374 . S
C3068 C3065 1.499 . S
C3068 C3069 1.373 . S
C3068 C3070 1.389 . S
C3069 H3048 0.950 . S
C3069 C3068 1.373 . S
C3069 C3085 1.377 . S
C3070 C3068 1.389 . S
C3070 C3071 1.524 . S
C3070 C3084 1.377 . S
C3071 C3070 1.524 . S
C3071 C3072 1.397 . S
C3071 C3076 1.363 . S
C3072 H3049 0.950 . S
C3072 C3071 1.397 . S
C3072 C3073 1.334 . S
C3073 H3050 0.950 . S
C3073 C3072 1.334 . S
C3073 C3074 1.287 . S
C3074 C3073 1.287 . S
C3074 C3075 1.524 . S
C3074 H3093 0.913 . S
C3075 H3051 0.950 . S
C3075 C3074 1.524 . S
C3075 C3076 1.415 . S
C3076 H3052 0.950 . S
C3076 C3071 1.363 . S
C3076 C3075 1.415 . S
C3077 H3053 0.951 . S
C3077 C3078 1.366 . S
C3077 C3079 1.388 . S
C3078 C3077 1.366 . S
C3078 C3082 1.385 . S
C3079 H3054 0.951 . S
C3079 C3077 1.388 . S
C3079 C3080 1.366 . S
C3080 C3079 1.366 . S
C3080 C3081 1.414 . S
C3080 C3083 1.499 . S
C3081 H3055 0.950 . S
C3081 C3080 1.414 . S
C3081 C3082 1.374 . S
C3082 H3056 0.950 . S
C3082 C3078 1.385 . S
C3082 C3081 1.374 . S
C3083 C3080 1.499 . S
C3083 C3084 1.373 . S
C3083 C3085 1.389 . S
C3084 H3057 0.950 . S
C3084 C3070 1.377 . S
C3084 C3083 1.373 . S
C3085 C3069 1.377 . S
C3085 C3083 1.389 . S
C3085 C3086 1.524 . S
C3086 C3085 1.524 . S
C3086 C3087 1.397 . S
C3086 C3091 1.363 . S
C3087 H3058 0.950 . S
C3087 C3086 1.397 . S
C3087 C3088 1.334 . S
C3088 H3059 0.950 . S
C3088 C3087 1.334 . S
C3088 C3089 1.287 . S
C3089 C3088 1.287 . S
C3089 C3090 1.524 . S
C3089 H3092 0.999 . S
C3090 H3060 0.950 . S
C3090 C3089 1.524 . S
C3090 C3091 1.415 . S
C3091 H3061 0.950 . S
C3091 C3086 1.363 . S
C3091 C3090 1.415 . S
H3092 C3089 0.999 . S
H3093 C3074 0.913 . S
H3094 C3112 0.951 . S
H3095 C3114 0.951 . S
H3096 C3116 0.950 . S
H3097 C3117 0.950 . S
H3098 C3119 0.950 . S
H3099 C3122 0.950 . S
H3100 C3123 0.950 . S
H3101 C3125 0.950 . S
H3102 C3126 0.950 . S
H3103 C3127 0.951 . S
H3104 C3129 0.951 . S
H3105 C3131 0.950 . S
H3106 C3132 0.950 . S
H3107 C3134 0.950 . S
H3108 C3137 0.950 . S
H3109 C3138 0.950 . S
H3110 C3140 0.950 . S
H3111 C3141 0.950 . S
C3112 H3094 0.951 . S
C3112 C3113 1.366 . S
C3112 C3114 1.388 . S
C3113 C3112 1.366 . S
C3113 C3117 1.385 . S
C3114 H3095 0.951 . S
C3114 C3112 1.388 . S
C3114 C3115 1.366 . S
C3115 C3114 1.366 . S
C3115 C3116 1.414 . S
C3115 C3118 1.499 . S
C3116 H3096 0.950 . S
C3116 C3115 1.414 . S
C3116 C3117 1.374 . S
C3117 H3097 0.950 . S
C3117 C3113 1.385 . S
C3117 C3116 1.374 . S
C3118 C3115 1.499 . S
C3118 C3119 1.373 . S
C3118 C3120 1.389 . S
C3119 H3098 0.950 . S
C3119 C3118 1.373 . S
C3119 C3135 1.377 . S
C3120 C3118 1.389 . S
C3120 C3121 1.524 . S
C3120 C3134 1.377 . S
C3121 C3120 1.524 . S
C3121 C3122 1.397 . S
C3121 C3126 1.363 . S
C3122 H3099 0.950 . S
C3122 C3121 1.397 . S
C3122 C3123 1.334 . S
C3123 H3100 0.950 . S
C3123 C3122 1.334 . S
C3123 C3124 1.287 . S
C3124 C3123 1.287 . S
C3124 C3125 1.524 . S
C3124 H3143 0.913 . S
C3125 H3101 0.950 . S
C3125 C3124 1.524 . S
C3125 C3126 1.415 . S
C3126 H3102 0.950 . S
C3126 C3121 1.363 . S
C3126 C3125 1.415 . S
C3127 H3103 0.951 . S
C3127 C3128 1.366 . S
C3127 C3129 1.388 . S
C3128 C3127 1.366 . S
C3128 C3132 1.385 . S
C3129 H3104 0.951 . S
C3129 C3127 1.388 . S
C3129 C3130 1.366 . S
C3130 C3129 1.366 . S
C3130 C3131 1.414 . S
C3130 C3133 1.499 . S
C3131 H3105 0.950 . S
C3131 C3130 1.414 . S
C3131 C3132 1.374 . S
C3132 H3106 0.950 . S
C3132 C3128 1.385 . S
C3132 C3131 1.374 . S
C3133 C3130 1.499 . S
C3133 C3134 1.373 . S
C3133 C3135 1.389 . S
C3134 H3107 0.950 . S
C3134 C3120 1.377 . S
C3134 C3133 1.373 . S
C3135 C3119 1.377 . S
C3135 C3133 1.389 . S
C3135 C3136 1.524 . S
C3136 C3135 1.524 . S
C3136 C3137 1.397 . S
C3136 C3141 1.363 . S
C3137 H3108 0.950 . S
C3137 C3136 1.397 . S
C3137 C3138 1.334 . S
C3138 H3109 0.950 . S
C3138 C3137 1.334 . S
C3138 C3139 1.287 . S
C3139 C3138 1.287 . S
C3139 C3140 1.524 . S
C3139 H3142 0.999 . S
C3140 H3110 0.950 . S
C3140 C3139 1.524 . S
C3140 C3141 1.415 . S
C3141 H3111 0.950 . S
C3141 C3136 1.363 . S
C3141 C3140 1.415 . S
H3142 C3139 0.999 . S
H3143 C3124 0.913 . S
H3144 C3162 0.951 . S
H3145 C3164 0.951 . S
H3146 C3166 0.950 . S
H3147 C3167 0.950 . S
H3148 C3169 0.950 . S
H3149 C3172 0.950 . S
H3150 C3173 0.950 . S
H3151 C3175 0.950 . S
H3152 C3176 0.950 . S
H3153 C3177 0.951 . S
H3154 C3179 0.951 . S
H3155 C3181 0.950 . S
H3156 C3182 0.950 . S
H3157 C3184 0.950 . S
H3158 C3187 0.950 . S
H3159 C3188 0.950 1_556 S
H3160 C3190 0.950 . S
H3161 C3191 0.950 . S
C3162 H3144 0.951 . S
C3162 C3163 1.366 . S
C3162 C3164 1.388 . S
C3163 C3162 1.366 . S
C3163 C3167 1.385 . S
C3164 H3145 0.951 . S
C3164 C3162 1.388 . S
C3164 C3165 1.366 . S
C3165 C3164 1.366 . S
C3165 C3166 1.414 . S
C3165 C3168 1.499 . S
C3166 H3146 0.950 . S
C3166 C3165 1.414 . S
C3166 C3167 1.374 . S
C3167 H3147 0.950 . S
C3167 C3163 1.385 . S
C3167 C3166 1.374 . S
C3168 C3165 1.499 . S
C3168 C3169 1.373 . S
C3168 C3170 1.389 . S
C3169 H3148 0.950 . S
C3169 C3168 1.373 . S
C3169 C3185 1.377 . S
C3170 C3168 1.389 . S
C3170 C3171 1.524 . S
C3170 C3184 1.377 . S
C3171 C3170 1.524 . S
C3171 C3172 1.397 . S
C3171 C3176 1.363 . S
C3172 H3149 0.950 . S
C3172 C3171 1.397 . S
C3172 C3173 1.334 . S
C3173 H3150 0.950 . S
C3173 C3172 1.334 . S
C3173 C3174 1.287 . S
C3174 C3173 1.287 . S
C3174 C3175 1.524 . S
C3174 H3193 0.913 . S
C3175 H3151 0.950 . S
C3175 C3174 1.524 . S
C3175 C3176 1.415 . S
C3176 H3152 0.950 . S
C3176 C3171 1.363 . S
C3176 C3175 1.415 . S
C3177 H3153 0.951 . S
C3177 C3178 1.366 . S
C3177 C3179 1.388 1_556 S
C3178 C3177 1.366 . S
C3178 C3182 1.385 1_556 S
C3179 H3154 0.951 . S
C3179 C3177 1.388 1_554 S
C3179 C3180 1.366 . S
C3180 C3179 1.366 . S
C3180 C3181 1.414 . S
C3180 C3183 1.499 . S
C3181 H3155 0.950 . S
C3181 C3180 1.414 . S
C3181 C3182 1.374 . S
C3182 H3156 0.950 . S
C3182 C3178 1.385 1_554 S
C3182 C3181 1.374 . S
C3183 C3180 1.499 . S
C3183 C3184 1.373 . S
C3183 C3185 1.389 . S
C3184 H3157 0.950 . S
C3184 C3170 1.377 . S
C3184 C3183 1.373 . S
C3185 C3169 1.377 . S
C3185 C3183 1.389 . S
C3185 C3186 1.524 . S
C3186 C3185 1.524 . S
C3186 C3187 1.397 . S
C3186 C3191 1.363 . S
C3187 H3158 0.950 . S
C3187 C3186 1.397 . S
C3187 C3188 1.334 . S
C3188 H3159 0.950 1_554 S
C3188 C3187 1.334 . S
C3188 C3189 1.287 1_554 S
C3189 C3188 1.287 1_556 S
C3189 C3190 1.524 1_556 S
C3189 H3192 0.999 . S
C3190 H3160 0.950 . S
C3190 C3189 1.524 1_554 S
C3190 C3191 1.415 . S
C3191 H3161 0.950 . S
C3191 C3186 1.363 . S
C3191 C3190 1.415 . S
H3192 C3189 0.999 . S
H3193 C3174 0.913 . S
H3194 C3212 0.951 . S
H3195 C3214 0.951 . S
H3196 C3216 0.950 . S
H3197 C3217 0.950 . S
H3198 C3219 0.950 . S
H3199 C3222 0.950 . S
H3200 C3223 0.950 . S
H3201 C3225 0.950 . S
H3202 C3226 0.950 . S
H3203 C3227 0.951 . S
H3204 C3229 0.951 . S
H3205 C3231 0.950 . S
H3206 C3232 0.950 . S
H3207 C3234 0.950 . S
H3208 C3237 0.950 . S
H3209 C3238 0.950 . S
H3210 C3240 0.950 . S
H3211 C3241 0.950 . S
C3212 H3194 0.951 . S
C3212 C3213 1.366 . S
C3212 C3214 1.388 . S
C3213 C3212 1.366 . S
C3213 C3217 1.385 . S
C3214 H3195 0.951 . S
C3214 C3212 1.388 . S
C3214 C3215 1.366 . S
C3215 C3214 1.366 . S
C3215 C3216 1.414 . S
C3215 C3218 1.499 . S
C3216 H3196 0.950 . S
C3216 C3215 1.414 . S
C3216 C3217 1.374 . S
C3217 H3197 0.950 . S
C3217 C3213 1.385 . S
C3217 C3216 1.374 . S
C3218 C3215 1.499 . S
C3218 C3219 1.373 . S
C3218 C3220 1.389 . S
C3219 H3198 0.950 . S
C3219 C3218 1.373 . S
C3219 C3235 1.377 . S
C3220 C3218 1.389 . S
C3220 C3221 1.524 . S
C3220 C3234 1.377 . S
C3221 C3220 1.524 . S
C3221 C3222 1.397 . S
C3221 C3226 1.363 . S
C3222 H3199 0.950 . S
C3222 C3221 1.397 . S
C3222 C3223 1.334 . S
C3223 H3200 0.950 . S
C3223 C3222 1.334 . S
C3223 C3224 1.287 . S
C3224 C3223 1.287 . S
C3224 C3225 1.524 . S
C3224 H3243 0.913 . S
C3225 H3201 0.950 . S
C3225 C3224 1.524 . S
C3225 C3226 1.415 . S
C3226 H3202 0.950 . S
C3226 C3221 1.363 . S
C3226 C3225 1.415 . S
C3227 H3203 0.951 . S
C3227 C3228 1.366 . S
C3227 C3229 1.388 . S
C3228 C3227 1.366 . S
C3228 C3232 1.385 . S
C3229 H3204 0.951 . S
C3229 C3227 1.388 . S
C3229 C3230 1.366 . S
C3230 C3229 1.366 . S
C3230 C3231 1.414 . S
C3230 C3233 1.499 . S
C3231 H3205 0.950 . S
C3231 C3230 1.414 . S
C3231 C3232 1.374 . S
C3232 H3206 0.950 . S
C3232 C3228 1.385 . S
C3232 C3231 1.374 . S
C3233 C3230 1.499 . S
C3233 C3234 1.373 . S
C3233 C3235 1.389 . S
C3234 H3207 0.950 . S
C3234 C3220 1.377 . S
C3234 C3233 1.373 . S
C3235 C3219 1.377 . S
C3235 C3233 1.389 . S
C3235 C3236 1.524 . S
C3236 C3235 1.524 . S
C3236 C3237 1.397 . S
C3236 C3241 1.363 . S
C3237 H3208 0.950 . S
C3237 C3236 1.397 . S
C3237 C3238 1.334 . S
C3238 H3209 0.950 . S
C3238 C3237 1.334 . S
C3238 C3239 1.287 . S
C3239 C3238 1.287 . S
C3239 C3240 1.524 . S
C3239 H3242 0.999 . S
C3240 H3210 0.950 . S
C3240 C3239 1.524 . S
C3240 C3241 1.415 . S
C3241 H3211 0.950 . S
C3241 C3236 1.363 . S
C3241 C3240 1.415 . S
H3242 C3239 0.999 . S
H3243 C3224 0.913 . S
H3244 C3262 0.951 . S
H3245 C3264 0.951 . S
H3246 C3266 0.950 . S
H3247 C3267 0.950 . S
H3248 C3269 0.950 . S
H3249 C3272 0.950 . S
H3250 C3273 0.950 . S
H3251 C3275 0.950 . S
H3252 C3276 0.950 . S
H3253 C3277 0.951 . S
H3254 C3279 0.951 . S
H3255 C3281 0.950 . S
H3256 C3282 0.950 . S
H3257 C3284 0.950 . S
H3258 C3287 0.950 . S
H3259 C3288 0.950 . S
H3260 C3290 0.950 . S
H3261 C3291 0.950 . S
C3262 H3244 0.951 . S
C3262 C3263 1.366 . S
C3262 C3264 1.388 . S
C3263 C3262 1.366 . S
C3263 C3267 1.385 . S
C3264 H3245 0.951 . S
C3264 C3262 1.388 . S
C3264 C3265 1.366 . S
C3265 C3264 1.366 . S
C3265 C3266 1.414 . S
C3265 C3268 1.499 . S
C3266 H3246 0.950 . S
C3266 C3265 1.414 . S
C3266 C3267 1.374 . S
C3267 H3247 0.950 . S
C3267 C3263 1.385 . S
C3267 C3266 1.374 . S
C3268 C3265 1.499 . S
C3268 C3269 1.373 . S
C3268 C3270 1.389 . S
C3269 H3248 0.950 . S
C3269 C3268 1.373 . S
C3269 C3285 1.377 . S
C3270 C3268 1.389 . S
C3270 C3271 1.524 . S
C3270 C3284 1.377 . S
C3271 C3270 1.524 . S
C3271 C3272 1.397 . S
C3271 C3276 1.363 . S
C3272 H3249 0.950 . S
C3272 C3271 1.397 . S
C3272 C3273 1.334 . S
C3273 H3250 0.950 . S
C3273 C3272 1.334 . S
C3273 C3274 1.287 . S
C3274 C3273 1.287 . S
C3274 C3275 1.524 . S
C3274 H3293 0.913 . S
C3275 H3251 0.950 . S
C3275 C3274 1.524 . S
C3275 C3276 1.415 . S
C3276 H3252 0.950 . S
C3276 C3271 1.363 . S
C3276 C3275 1.415 . S
C3277 H3253 0.951 . S
C3277 C3278 1.366 . S
C3277 C3279 1.388 . S
C3278 C3277 1.366 . S
C3278 C3282 1.385 . S
C3279 H3254 0.951 . S
C3279 C3277 1.388 . S
C3279 C3280 1.366 . S
C3280 C3279 1.366 . S
C3280 C3281 1.414 . S
C3280 C3283 1.499 . S
C3281 H3255 0.950 . S
C3281 C3280 1.414 . S
C3281 C3282 1.374 . S
C3282 H3256 0.950 . S
C3282 C3278 1.385 . S
C3282 C3281 1.374 . S
C3283 C3280 1.499 . S
C3283 C3284 1.373 . S
C3283 C3285 1.389 . S
C3284 H3257 0.950 . S
C3284 C3270 1.377 . S
C3284 C3283 1.373 . S
C3285 C3269 1.377 . S
C3285 C3283 1.389 . S
C3285 C3286 1.524 . S
C3286 C3285 1.524 . S
C3286 C3287 1.397 . S
C3286 C3291 1.363 . S
C3287 H3258 0.950 . S
C3287 C3286 1.397 . S
C3287 C3288 1.334 . S
C3288 H3259 0.950 . S
C3288 C3287 1.334 . S
C3288 C3289 1.287 . S
C3289 C3288 1.287 . S
C3289 C3290 1.524 . S
C3289 H3292 0.999 . S
C3290 H3260 0.950 . S
C3290 C3289 1.524 . S
C3290 C3291 1.415 . S
C3291 H3261 0.950 . S
C3291 C3286 1.363 . S
C3291 C3290 1.415 . S
H3292 C3289 0.999 . S
H3293 C3274 0.913 . S
H3294 C3312 0.951 . S
H3295 C3314 0.951 . S
H3296 C3316 0.950 . S
H3297 C3317 0.950 . S
H3298 C3319 0.950 . S
H3299 C3322 0.950 . S
H3300 C3323 0.950 . S
H3301 C3325 0.950 . S
H3302 C3326 0.950 . S
H3303 C3327 0.951 . S
H3304 C3329 0.951 . S
H3305 C3331 0.950 . S
H3306 C3332 0.950 . S
H3307 C3334 0.950 . S
H3308 C3337 0.950 . S
H3309 C3338 0.950 . S
H3310 C3340 0.950 . S
H3311 C3341 0.950 . S
C3312 H3294 0.951 . S
C3312 C3313 1.366 . S
C3312 C3314 1.388 . S
C3313 C3312 1.366 . S
C3313 C3317 1.385 . S
C3314 H3295 0.951 . S
C3314 C3312 1.388 . S
C3314 C3315 1.366 . S
C3315 C3314 1.366 . S
C3315 C3316 1.414 . S
C3315 C3318 1.499 . S
C3316 H3296 0.950 . S
C3316 C3315 1.414 . S
C3316 C3317 1.374 . S
C3317 H3297 0.950 . S
C3317 C3313 1.385 . S
C3317 C3316 1.374 . S
C3318 C3315 1.499 . S
C3318 C3319 1.373 . S
C3318 C3320 1.389 . S
C3319 H3298 0.950 . S
C3319 C3318 1.373 . S
C3319 C3335 1.377 . S
C3320 C3318 1.389 . S
C3320 C3321 1.524 . S
C3320 C3334 1.377 . S
C3321 C3320 1.524 . S
C3321 C3322 1.397 . S
C3321 C3326 1.363 . S
C3322 H3299 0.950 . S
C3322 C3321 1.397 . S
C3322 C3323 1.334 . S
C3323 H3300 0.950 . S
C3323 C3322 1.334 . S
C3323 C3324 1.287 . S
C3324 C3323 1.287 . S
C3324 C3325 1.524 . S
C3324 H3343 0.913 . S
C3325 H3301 0.950 . S
C3325 C3324 1.524 . S
C3325 C3326 1.415 . S
C3326 H3302 0.950 . S
C3326 C3321 1.363 . S
C3326 C3325 1.415 . S
C3327 H3303 0.951 . S
C3327 C3328 1.366 . S
C3327 C3329 1.388 . S
C3328 C3327 1.366 . S
C3328 C3332 1.385 . S
C3329 H3304 0.951 . S
C3329 C3327 1.388 . S
C3329 C3330 1.366 . S
C3330 C3329 1.366 . S
C3330 C3331 1.414 . S
C3330 C3333 1.499 . S
C3331 H3305 0.950 . S
C3331 C3330 1.414 . S
C3331 C3332 1.374 . S
C3332 H3306 0.950 . S
C3332 C3328 1.385 . S
C3332 C3331 1.374 . S
C3333 C3330 1.499 . S
C3333 C3334 1.373 . S
C3333 C3335 1.389 . S
C3334 H3307 0.950 . S
C3334 C3320 1.377 . S
C3334 C3333 1.373 . S
C3335 C3319 1.377 . S
C3335 C3333 1.389 . S
C3335 C3336 1.524 . S
C3336 C3335 1.524 . S
C3336 C3337 1.397 . S
C3336 C3341 1.363 . S
C3337 H3308 0.950 . S
C3337 C3336 1.397 . S
C3337 C3338 1.334 . S
C3338 H3309 0.950 . S
C3338 C3337 1.334 . S
C3338 C3339 1.287 . S
C3339 C3338 1.287 . S
C3339 C3340 1.524 . S
C3339 H3342 0.999 . S
C3340 H3310 0.950 . S
C3340 C3339 1.524 . S
C3340 C3341 1.415 . S
C3341 H3311 0.950 . S
C3341 C3336 1.363 . S
C3341 C3340 1.415 . S
H3342 C3339 0.999 . S
H3343 C3324 0.913 . S
H3344 C3362 0.951 . S
H3345 C3364 0.951 . S
H3346 C3366 0.950 . S
H3347 C3367 0.950 . S
H3348 C3369 0.950 . S
H3349 C3372 0.950 . S
H3350 C3373 0.950 . S
H3351 C3375 0.950 . S
H3352 C3376 0.950 . S
H3353 C3377 0.951 . S
H3354 C3379 0.951 . S
H3355 C3381 0.950 . S
H3356 C3382 0.950 . S
H3357 C3384 0.950 . S
H3358 C3387 0.950 . S
H3359 C3388 0.950 . S
H3360 C3390 0.950 . S
H3361 C3391 0.950 . S
C3362 H3344 0.951 . S
C3362 C3363 1.366 . S
C3362 C3364 1.388 . S
C3363 C3362 1.366 . S
C3363 C3367 1.385 . S
C3364 H3345 0.951 . S
C3364 C3362 1.388 . S
C3364 C3365 1.366 . S
C3365 C3364 1.366 . S
C3365 C3366 1.414 . S
C3365 C3368 1.499 . S
C3366 H3346 0.950 . S
C3366 C3365 1.414 . S
C3366 C3367 1.374 . S
C3367 H3347 0.950 . S
C3367 C3363 1.385 . S
C3367 C3366 1.374 . S
C3368 C3365 1.499 . S
C3368 C3369 1.373 . S
C3368 C3370 1.389 . S
C3369 H3348 0.950 . S
C3369 C3368 1.373 . S
C3369 C3385 1.377 . S
C3370 C3368 1.389 . S
C3370 C3371 1.524 . S
C3370 C3384 1.377 . S
C3371 C3370 1.524 . S
C3371 C3372 1.397 . S
C3371 C3376 1.363 . S
C3372 H3349 0.950 . S
C3372 C3371 1.397 . S
C3372 C3373 1.334 . S
C3373 H3350 0.950 . S
C3373 C3372 1.334 . S
C3373 C3374 1.287 . S
C3374 C3373 1.287 . S
C3374 C3375 1.524 . S
C3374 H3393 0.913 . S
C3375 H3351 0.950 . S
C3375 C3374 1.524 . S
C3375 C3376 1.415 . S
C3376 H3352 0.950 . S
C3376 C3371 1.363 . S
C3376 C3375 1.415 . S
C3377 H3353 0.951 . S
C3377 C3378 1.366 . S
C3377 C3379 1.388 . S
C3378 C3377 1.366 . S
C3378 C3382 1.385 . S
C3379 H3354 0.951 . S
C3379 C3377 1.388 . S
C3379 C3380 1.366 . S
C3380 C3379 1.366 . S
C3380 C3381 1.414 . S
C3380 C3383 1.499 . S
C3381 H3355 0.950 . S
C3381 C3380 1.414 . S
C3381 C3382 1.374 . S
C3382 H3356 0.950 . S
C3382 C3378 1.385 . S
C3382 C3381 1.374 . S
C3383 C3380 1.499 . S
C3383 C3384 1.373 . S
C3383 C3385 1.389 . S
C3384 H3357 0.950 . S
C3384 C3370 1.377 . S
C3384 C3383 1.373 . S
C3385 C3369 1.377 . S
C3385 C3383 1.389 . S
C3385 C3386 1.524 . S
C3386 C3385 1.524 . S
C3386 C3387 1.397 . S
C3386 C3391 1.363 . S
C3387 H3358 0.950 . S
C3387 C3386 1.397 . S
C3387 C3388 1.334 . S
C3388 H3359 0.950 . S
C3388 C3387 1.334 . S
C3388 C3389 1.287 . S
C3389 C3388 1.287 . S
C3389 C3390 1.524 . S
C3389 H3392 0.999 . S
C3390 H3360 0.950 . S
C3390 C3389 1.524 . S
C3390 C3391 1.415 . S
C3391 H3361 0.950 . S
C3391 C3386 1.363 . S
C3391 C3390 1.415 . S
H3392 C3389 0.999 . S
H3393 C3374 0.913 . S
H3394 C3412 0.951 . S
H3395 C3414 0.951 . S
H3396 C3416 0.950 . S
H3397 C3417 0.950 . S
H3398 C3419 0.950 . S
H3399 C3422 0.950 . S
H3400 C3423 0.950 . S
H3401 C3425 0.950 . S
H3402 C3426 0.950 . S
H3403 C3427 0.951 . S
H3404 C3429 0.951 . S
H3405 C3431 0.950 . S
H3406 C3432 0.950 1_545 S
H3407 C3434 0.950 . S
H3408 C3437 0.950 . S
H3409 C3438 0.950 . S
H3410 C3440 0.950 . S
H3411 C3441 0.950 . S
C3412 H3394 0.951 . S
C3412 C3413 1.366 . S
C3412 C3414 1.388 . S
C3413 C3412 1.366 . S
C3413 C3417 1.385 . S
C3414 H3395 0.951 . S
C3414 C3412 1.388 . S
C3414 C3415 1.366 . S
C3415 C3414 1.366 . S
C3415 C3416 1.414 . S
C3415 C3418 1.499 . S
C3416 H3396 0.950 . S
C3416 C3415 1.414 . S
C3416 C3417 1.374 . S
C3417 H3397 0.950 . S
C3417 C3413 1.385 . S
C3417 C3416 1.374 . S
C3418 C3415 1.499 . S
C3418 C3419 1.373 . S
C3418 C3420 1.389 . S
C3419 H3398 0.950 . S
C3419 C3418 1.373 . S
C3419 C3435 1.377 . S
C3420 C3418 1.389 . S
C3420 C3421 1.524 . S
C3420 C3434 1.377 . S
C3421 C3420 1.524 . S
C3421 C3422 1.397 . S
C3421 C3426 1.363 . S
C3422 H3399 0.950 . S
C3422 C3421 1.397 . S
C3422 C3423 1.334 . S
C3423 H3400 0.950 . S
C3423 C3422 1.334 . S
C3423 C3424 1.287 1_565 S
C3424 C3423 1.287 1_545 S
C3424 C3425 1.524 . S
C3424 H3443 0.913 . S
C3425 H3401 0.950 . S
C3425 C3424 1.524 . S
C3425 C3426 1.415 1_545 S
C3426 H3402 0.950 . S
C3426 C3421 1.363 . S
C3426 C3425 1.415 1_565 S
C3427 H3403 0.951 . S
C3427 C3428 1.366 . S
C3427 C3429 1.388 . S
C3428 C3427 1.366 . S
C3428 C3432 1.385 . S
C3429 H3404 0.951 . S
C3429 C3427 1.388 . S
C3429 C3430 1.366 . S
C3430 C3429 1.366 . S
C3430 C3431 1.414 . S
C3430 C3433 1.499 . S
C3431 H3405 0.950 . S
C3431 C3430 1.414 . S
C3431 C3432 1.374 . S
C3432 H3406 0.950 1_565 S
C3432 C3428 1.385 . S
C3432 C3431 1.374 . S
C3433 C3430 1.499 . S
C3433 C3434 1.373 . S
C3433 C3435 1.389 . S
C3434 H3407 0.950 . S
C3434 C3420 1.377 . S
C3434 C3433 1.373 . S
C3435 C3419 1.377 . S
C3435 C3433 1.389 . S
C3435 C3436 1.524 . S
C3436 C3435 1.524 . S
C3436 C3437 1.397 . S
C3436 C3441 1.363 . S
C3437 H3408 0.950 . S
C3437 C3436 1.397 . S
C3437 C3438 1.334 . S
C3438 H3409 0.950 . S
C3438 C3437 1.334 . S
C3438 C3439 1.287 . S
C3439 C3438 1.287 . S
C3439 C3440 1.524 . S
C3439 H3442 0.999 . S
C3440 H3410 0.950 . S
C3440 C3439 1.524 . S
C3440 C3441 1.415 . S
C3441 H3411 0.950 . S
C3441 C3436 1.363 . S
C3441 C3440 1.415 . S
H3442 C3439 0.999 . S
H3443 C3424 0.913 . S
H3444 C3462 0.951 . S
H3445 C3464 0.951 . S
H3446 C3466 0.950 . S
H3447 C3467 0.950 . S
H3448 C3469 0.950 . S
H3449 C3472 0.950 . S
H3450 C3473 0.950 . S
H3451 C3475 0.950 . S
H3452 C3476 0.950 . S
H3453 C3477 0.951 . S
H3454 C3479 0.951 . S
H3455 C3481 0.950 . S
H3456 C3482 0.950 . S
H3457 C3484 0.950 . S
H3458 C3487 0.950 . S
H3459 C3488 0.950 . S
H3460 C3490 0.950 . S
H3461 C3491 0.950 . S
C3462 H3444 0.951 . S
C3462 C3463 1.366 . S
C3462 C3464 1.388 . S
C3463 C3462 1.366 . S
C3463 C3467 1.385 . S
C3464 H3445 0.951 . S
C3464 C3462 1.388 . S
C3464 C3465 1.366 . S
C3465 C3464 1.366 . S
C3465 C3466 1.414 . S
C3465 C3468 1.499 . S
C3466 H3446 0.950 . S
C3466 C3465 1.414 . S
C3466 C3467 1.374 . S
C3467 H3447 0.950 . S
C3467 C3463 1.385 . S
C3467 C3466 1.374 . S
C3468 C3465 1.499 . S
C3468 C3469 1.373 . S
C3468 C3470 1.389 . S
C3469 H3448 0.950 . S
C3469 C3468 1.373 . S
C3469 C3485 1.377 . S
C3470 C3468 1.389 . S
C3470 C3471 1.524 . S
C3470 C3484 1.377 . S
C3471 C3470 1.524 . S
C3471 C3472 1.397 . S
C3471 C3476 1.363 . S
C3472 H3449 0.950 . S
C3472 C3471 1.397 . S
C3472 C3473 1.334 . S
C3473 H3450 0.950 . S
C3473 C3472 1.334 . S
C3473 C3474 1.287 . S
C3474 C3473 1.287 . S
C3474 C3475 1.524 . S
C3474 H3493 0.913 . S
C3475 H3451 0.950 . S
C3475 C3474 1.524 . S
C3475 C3476 1.415 . S
C3476 H3452 0.950 . S
C3476 C3471 1.363 . S
C3476 C3475 1.415 . S
C3477 H3453 0.951 . S
C3477 C3478 1.366 . S
C3477 C3479 1.388 1_554 S
C3478 C3477 1.366 . S
C3478 C3482 1.385 1_554 S
C3479 H3454 0.951 . S
C3479 C3477 1.388 1_556 S
C3479 C3480 1.366 . S
C3480 C3479 1.366 . S
C3480 C3481 1.414 . S
C3480 C3483 1.499 . S
C3481 H3455 0.950 . S
C3481 C3480 1.414 . S
C3481 C3482 1.374 . S
C3482 H3456 0.950 . S
C3482 C3478 1.385 1_556 S
C3482 C3481 1.374 . S
C3483 C3480 1.499 . S
C3483 C3484 1.373 . S
C3483 C3485 1.389 . S
C3484 H3457 0.950 . S
C3484 C3470 1.377 . S
C3484 C3483 1.373 . S
C3485 C3469 1.377 . S
C3485 C3483 1.389 . S
C3485 C3486 1.524 . S
C3486 C3485 1.524 . S
C3486 C3487 1.397 . S
C3486 C3491 1.363 . S
C3487 H3458 0.950 . S
C3487 C3486 1.397 . S
C3487 C3488 1.334 . S
C3488 H3459 0.950 . S
C3488 C3487 1.334 . S
C3488 C3489 1.287 . S
C3489 C3488 1.287 . S
C3489 C3490 1.524 . S
C3489 H3492 0.999 . S
C3490 H3460 0.950 . S
C3490 C3489 1.524 . S
C3490 C3491 1.415 . S
C3491 H3461 0.950 . S
C3491 C3486 1.363 . S
C3491 C3490 1.415 . S
H3492 C3489 0.999 . S
H3493 C3474 0.913 . S
H3494 C3512 0.947 1_565 S
H3495 C3514 0.951 . S
H3496 C3516 0.950 . S
H3497 C3517 0.950 . S
H3498 C3519 0.950 . S
H3499 C3522 0.950 . S
H3500 C3523 0.950 . S
H3501 C3525 0.950 . S
H3502 C3526 0.950 1_545 S
H3503 C3527 0.951 . S
H3504 C3529 0.951 . S
H3505 C3531 0.950 . S
H3506 C3532 0.950 . S
H3507 C3534 0.950 . S
H3508 C3537 0.950 . S
H3509 C3538 0.950 . S
H3510 C3540 0.950 . S
H3511 C3541 0.950 . S
C3512 H3494 0.947 1_545 S
C3512 C3513 1.366 . S
C3512 C3514 1.391 . S
C3513 C3512 1.366 . S
C3513 C3517 1.385 . S
C3514 H3495 0.951 . S
C3514 C3512 1.391 . S
C3514 C3515 1.366 . S
C3515 C3514 1.366 . S
C3515 C3516 1.414 . S
C3515 C3518 1.499 . S
C3516 H3496 0.950 . S
C3516 C3515 1.414 . S
C3516 C3517 1.374 . S
C3517 H3497 0.950 . S
C3517 C3513 1.385 . S
C3517 C3516 1.374 . S
C3518 C3515 1.499 . S
C3518 C3519 1.373 . S
C3518 C3520 1.389 . S
C3519 H3498 0.950 . S
C3519 C3518 1.373 . S
C3519 C3535 1.377 . S
C3520 C3518 1.389 . S
C3520 C3521 1.523 . S
C3520 C3534 1.377 . S
C3521 C3520 1.523 . S
C3521 C3522 1.397 1_545 S
C3521 C3526 1.363 1_545 S
C3522 H3499 0.950 . S
C3522 C3521 1.397 1_565 S
C3522 C3523 1.334 . S
C3523 H3500 0.950 . S
C3523 C3522 1.334 . S
C3523 C3524 1.287 . S
C3524 C3523 1.287 . S
C3524 C3525 1.524 . S
C3524 H3543 0.913 . S
C3525 H3501 0.950 . S
C3525 C3524 1.524 . S
C3525 C3526 1.415 . S
C3526 H3502 0.950 1_565 S
C3526 C3521 1.363 1_565 S
C3526 C3525 1.415 . S
C3527 H3503 0.951 . S
C3527 C3528 1.366 . S
C3527 C3529 1.388 . S
C3528 C3527 1.366 . S
C3528 C3532 1.385 . S
C3529 H3504 0.951 . S
C3529 C3527 1.388 . S
C3529 C3530 1.366 . S
C3530 C3529 1.366 . S
C3530 C3531 1.414 . S
C3530 C3533 1.499 . S
C3531 H3505 0.950 . S
C3531 C3530 1.414 . S
C3531 C3532 1.374 . S
C3532 H3506 0.950 . S
C3532 C3528 1.385 . S
C3532 C3531 1.374 . S
C3533 C3530 1.499 . S
C3533 C3534 1.373 . S
C3533 C3535 1.389 . S
C3534 H3507 0.950 . S
C3534 C3520 1.377 . S
C3534 C3533 1.373 . S
C3535 C3519 1.377 . S
C3535 C3533 1.389 . S
C3535 C3536 1.524 . S
C3536 C3535 1.524 . S
C3536 C3537 1.397 . S
C3536 C3541 1.363 . S
C3537 H3508 0.950 . S
C3537 C3536 1.397 . S
C3537 C3538 1.334 . S
C3538 H3509 0.950 . S
C3538 C3537 1.334 . S
C3538 C3539 1.287 . S
C3539 C3538 1.287 . S
C3539 C3540 1.524 . S
C3539 H3542 0.999 . S
C3540 H3510 0.950 . S
C3540 C3539 1.524 . S
C3540 C3541 1.415 . S
C3541 H3511 0.950 . S
C3541 C3536 1.363 . S
C3541 C3540 1.415 . S
H3542 C3539 0.999 . S
H3543 C3524 0.913 . S
H3544 C3562 0.951 . S
H3545 C3564 0.951 . S
H3546 C3566 0.950 . S
H3547 C3567 0.950 . S
H3548 C3569 0.950 . S
H3549 C3572 0.950 . S
H3550 C3573 0.950 . S
H3551 C3575 0.950 . S
H3552 C3576 0.950 . S
H3553 C3577 0.951 . S
H3554 C3579 0.951 . S
H3555 C3581 0.950 . S
H3556 C3582 0.950 . S
H3557 C3584 0.950 . S
H3558 C3587 0.950 . S
H3559 C3588 0.950 . S
H3560 C3590 0.950 . S
H3561 C3591 0.950 . S
C3562 H3544 0.951 . S
C3562 C3563 1.366 . S
C3562 C3564 1.388 . S
C3563 C3562 1.366 . S
C3563 C3567 1.385 . S
C3564 H3545 0.951 . S
C3564 C3562 1.388 . S
C3564 C3565 1.366 . S
C3565 C3564 1.366 . S
C3565 C3566 1.414 . S
C3565 C3568 1.499 . S
C3566 H3546 0.950 . S
C3566 C3565 1.414 . S
C3566 C3567 1.374 . S
C3567 H3547 0.950 . S
C3567 C3563 1.385 . S
C3567 C3566 1.374 . S
C3568 C3565 1.499 . S
C3568 C3569 1.373 . S
C3568 C3570 1.389 . S
C3569 H3548 0.950 . S
C3569 C3568 1.373 . S
C3569 C3585 1.377 . S
C3570 C3568 1.389 . S
C3570 C3571 1.524 . S
C3570 C3584 1.377 . S
C3571 C3570 1.524 . S
C3571 C3572 1.397 . S
C3571 C3576 1.363 . S
C3572 H3549 0.950 . S
C3572 C3571 1.397 . S
C3572 C3573 1.334 . S
C3573 H3550 0.950 . S
C3573 C3572 1.334 . S
C3573 C3574 1.287 . S
C3574 C3573 1.287 . S
C3574 C3575 1.524 . S
C3574 H3593 0.913 . S
C3575 H3551 0.950 . S
C3575 C3574 1.524 . S
C3575 C3576 1.415 . S
C3576 H3552 0.950 . S
C3576 C3571 1.363 . S
C3576 C3575 1.415 . S
C3577 H3553 0.951 . S
C3577 C3578 1.366 . S
C3577 C3579 1.388 . S
C3578 C3577 1.366 . S
C3578 C3582 1.385 . S
C3579 H3554 0.951 . S
C3579 C3577 1.388 . S
C3579 C3580 1.366 . S
C3580 C3579 1.366 . S
C3580 C3581 1.414 . S
C3580 C3583 1.499 . S
C3581 H3555 0.950 . S
C3581 C3580 1.414 . S
C3581 C3582 1.374 . S
C3582 H3556 0.950 . S
C3582 C3578 1.385 . S
C3582 C3581 1.374 . S
C3583 C3580 1.499 . S
C3583 C3584 1.373 . S
C3583 C3585 1.389 . S
C3584 H3557 0.950 . S
C3584 C3570 1.377 . S
C3584 C3583 1.373 . S
C3585 C3569 1.377 . S
C3585 C3583 1.389 . S
C3585 C3586 1.524 . S
C3586 C3585 1.524 . S
C3586 C3587 1.397 . S
C3586 C3591 1.363 . S
C3587 H3558 0.950 . S
C3587 C3586 1.397 . S
C3587 C3588 1.334 . S
C3588 H3559 0.950 . S
C3588 C3587 1.334 . S
C3588 C3589 1.287 . S
C3589 C3588 1.287 . S
C3589 C3590 1.524 . S
C3589 H3592 0.999 . S
C3590 H3560 0.950 . S
C3590 C3589 1.524 . S
C3590 C3591 1.415 . S
C3591 H3561 0.950 . S
C3591 C3586 1.363 . S
C3591 C3590 1.415 . S
H3592 C3589 0.999 . S
H3593 C3574 0.913 . S
H3594 C3612 0.951 . S
H3595 C3614 0.951 . S
H3596 C3616 0.950 . S
H3597 C3617 0.950 . S
H3598 C3619 0.950 . S
H3599 C3622 0.950 . S
H3600 C3623 0.950 . S
H3601 C3625 0.950 . S
H3602 C3626 0.950 . S
H3603 C3627 0.940 1_565 S
H3604 C3629 0.951 . S
H3605 C3631 0.950 . S
H3606 C3632 0.950 . S
H3607 C3634 0.950 . S
H3608 C3637 0.950 . S
H3609 C3638 0.950 . S
H3610 C3640 0.950 . S
H3611 C3641 0.950 . S
C3612 H3594 0.951 . S
C3612 C3613 1.366 . S
C3612 C3614 1.388 . S
C3613 C3612 1.366 . S
C3613 C3617 1.385 . S
C3614 H3595 0.951 . S
C3614 C3612 1.388 . S
C3614 C3615 1.366 . S
C3615 C3614 1.366 . S
C3615 C3616 1.414 . S
C3615 C3618 1.499 . S
C3616 H3596 0.950 . S
C3616 C3615 1.414 . S
C3616 C3617 1.374 . S
C3617 H3597 0.950 . S
C3617 C3613 1.385 . S
C3617 C3616 1.374 . S
C3618 C3615 1.499 . S
C3618 C3619 1.373 . S
C3618 C3620 1.389 . S
C3619 H3598 0.950 . S
C3619 C3618 1.373 . S
C3619 C3635 1.377 . S
C3620 C3618 1.389 . S
C3620 C3621 1.524 . S
C3620 C3634 1.377 . S
C3621 C3620 1.524 . S
C3621 C3622 1.397 . S
C3621 C3626 1.363 . S
C3622 H3599 0.950 . S
C3622 C3621 1.397 . S
C3622 C3623 1.334 . S
C3623 H3600 0.950 . S
C3623 C3622 1.334 . S
C3623 C3624 1.287 . S
C3624 C3623 1.287 . S
C3624 C3625 1.524 . S
C3624 H3643 0.913 . S
C3625 H3601 0.950 . S
C3625 C3624 1.524 . S
C3625 C3626 1.415 . S
C3626 H3602 0.950 . S
C3626 C3621 1.363 . S
C3626 C3625 1.415 . S
C3627 H3603 0.940 1_545 S
C3627 C3628 1.367 . S
C3627 C3629 1.397 . S
C3628 C3627 1.367 . S
C3628 C3632 1.385 . S
C3629 H3604 0.951 . S
C3629 C3627 1.397 . S
C3629 C3630 1.366 . S
C3630 C3629 1.366 . S
C3630 C3631 1.414 . S
C3630 C3633 1.499 . S
C3631 H3605 0.950 . S
C3631 C3630 1.414 . S
C3631 C3632 1.374 . S
C3632 H3606 0.950 . S
C3632 C3628 1.385 . S
C3632 C3631 1.374 . S
C3633 C3630 1.499 . S
C3633 C3634 1.373 . S
C3633 C3635 1.389 . S
C3634 H3607 0.950 . S
C3634 C3620 1.377 . S
C3634 C3633 1.373 . S
C3635 C3619 1.377 . S
C3635 C3633 1.389 . S
C3635 C3636 1.524 . S
C3636 C3635 1.524 . S
C3636 C3637 1.397 . S
C3636 C3641 1.363 . S
C3637 H3608 0.950 . S
C3637 C3636 1.397 . S
C3637 C3638 1.334 . S
C3638 H3609 0.950 . S
C3638 C3637 1.334 . S
C3638 C3639 1.287 . S
C3639 C3638 1.287 . S
C3639 C3640 1.524 . S
C3639 H3642 0.999 . S
C3640 H3610 0.950 . S
C3640 C3639 1.524 . S
C3640 C3641 1.415 . S
C3641 H3611 0.950 . S
C3641 C3636 1.363 . S
C3641 C3640 1.415 . S
H3642 C3639 0.999 . S
H3643 C3624 0.913 . S
H3644 C3662 0.951 . S
H3645 C3664 0.951 . S
H3646 C3666 0.950 . S
H3647 C3667 0.950 . S
H3648 C3669 0.950 . S
H3649 C3672 0.950 . S
H3650 C3673 0.950 . S
H3651 C3675 0.950 . S
H3652 C3676 0.950 . S
H3653 C3677 0.951 . S
H3654 C3679 0.951 . S
H3655 C3681 0.950 . S
H3656 C3682 0.950 . S
H3657 C3684 0.950 . S
H3658 C3687 0.950 . S
H3659 C3688 0.950 . S
H3660 C3690 0.950 . S
H3661 C3691 0.950 . S
C3662 H3644 0.951 . S
C3662 C3663 1.366 . S
C3662 C3664 1.388 . S
C3663 C3662 1.366 . S
C3663 C3667 1.385 . S
C3664 H3645 0.951 . S
C3664 C3662 1.388 . S
C3664 C3665 1.366 . S
C3665 C3664 1.366 . S
C3665 C3666 1.414 . S
C3665 C3668 1.499 . S
C3666 H3646 0.950 . S
C3666 C3665 1.414 . S
C3666 C3667 1.374 . S
C3667 H3647 0.950 . S
C3667 C3663 1.385 . S
C3667 C3666 1.374 . S
C3668 C3665 1.499 . S
C3668 C3669 1.373 . S
C3668 C3670 1.389 . S
C3669 H3648 0.950 . S
C3669 C3668 1.373 . S
C3669 C3685 1.377 . S
C3670 C3668 1.389 . S
C3670 C3671 1.524 . S
C3670 C3684 1.377 . S
C3671 C3670 1.524 . S
C3671 C3672 1.397 . S
C3671 C3676 1.363 . S
C3672 H3649 0.950 . S
C3672 C3671 1.397 . S
C3672 C3673 1.334 . S
C3673 H3650 0.950 . S
C3673 C3672 1.334 . S
C3673 C3674 1.287 . S
C3674 C3673 1.287 . S
C3674 C3675 1.524 . S
C3674 H3693 0.913 . S
C3675 H3651 0.950 . S
C3675 C3674 1.524 . S
C3675 C3676 1.415 . S
C3676 H3652 0.950 . S
C3676 C3671 1.363 . S
C3676 C3675 1.415 . S
C3677 H3653 0.951 . S
C3677 C3678 1.366 1_554 S
C3677 C3679 1.388 . S
C3678 C3677 1.366 1_556 S
C3678 C3682 1.385 . S
C3679 H3654 0.951 . S
C3679 C3677 1.388 . S
C3679 C3680 1.366 . S
C3680 C3679 1.366 . S
C3680 C3681 1.414 . S
C3680 C3683 1.499 . S
C3681 H3655 0.950 . S
C3681 C3680 1.414 . S
C3681 C3682 1.374 1_554 S
C3682 H3656 0.950 . S
C3682 C3678 1.385 . S
C3682 C3681 1.374 1_556 S
C3683 C3680 1.499 . S
C3683 C3684 1.373 . S
C3683 C3685 1.389 . S
C3684 H3657 0.950 . S
C3684 C3670 1.377 . S
C3684 C3683 1.373 . S
C3685 C3669 1.377 . S
C3685 C3683 1.389 . S
C3685 C3686 1.524 . S
C3686 C3685 1.524 . S
C3686 C3687 1.397 . S
C3686 C3691 1.363 . S
C3687 H3658 0.950 . S
C3687 C3686 1.397 . S
C3687 C3688 1.334 . S
C3688 H3659 0.950 . S
C3688 C3687 1.334 . S
C3688 C3689 1.287 . S
C3689 C3688 1.287 . S
C3689 C3690 1.524 . S
C3689 H3692 0.999 . S
C3690 H3660 0.950 . S
C3690 C3689 1.524 . S
C3690 C3691 1.415 . S
C3691 H3661 0.950 . S
C3691 C3686 1.363 . S
C3691 C3690 1.415 . S
H3692 C3689 0.999 . S
H3693 C3674 0.913 . S
H3694 C3712 0.951 . S
H3695 C3714 0.951 . S
H3696 C3716 0.950 . S
H3697 C3717 0.950 . S
H3698 C3719 0.950 . S
H3699 C3722 0.950 . S
H3700 C3723 0.950 . S
H3701 C3725 0.950 . S
H3702 C3726 0.950 . S
H3703 C3727 0.951 . S
H3704 C3729 0.951 . S
H3705 C3731 0.950 . S
H3706 C3732 0.950 . S
H3707 C3734 0.950 . S
H3708 C3737 0.950 1_545 S
H3709 C3738 0.950 . S
H3710 C3740 0.950 . S
H3711 C3741 0.950 . S
C3712 H3694 0.951 . S
C3712 C3713 1.366 . S
C3712 C3714 1.388 . S
C3713 C3712 1.366 . S
C3713 C3717 1.385 . S
C3714 H3695 0.951 . S
C3714 C3712 1.388 . S
C3714 C3715 1.366 . S
C3715 C3714 1.366 . S
C3715 C3716 1.414 . S
C3715 C3718 1.499 . S
C3716 H3696 0.950 . S
C3716 C3715 1.414 . S
C3716 C3717 1.374 . S
C3717 H3697 0.950 . S
C3717 C3713 1.385 . S
C3717 C3716 1.374 . S
C3718 C3715 1.499 . S
C3718 C3719 1.373 . S
C3718 C3720 1.389 . S
C3719 H3698 0.950 . S
C3719 C3718 1.373 . S
C3719 C3735 1.377 . S
C3720 C3718 1.389 . S
C3720 C3721 1.524 . S
C3720 C3734 1.377 . S
C3721 C3720 1.524 . S
C3721 C3722 1.397 . S
C3721 C3726 1.363 . S
C3722 H3699 0.950 . S
C3722 C3721 1.397 . S
C3722 C3723 1.334 . S
C3723 H3700 0.950 . S
C3723 C3722 1.334 . S
C3723 C3724 1.287 . S
C3724 C3723 1.287 . S
C3724 C3725 1.524 . S
C3724 H3743 0.913 . S
C3725 H3701 0.950 . S
C3725 C3724 1.524 . S
C3725 C3726 1.415 . S
C3726 H3702 0.950 . S
C3726 C3721 1.363 . S
C3726 C3725 1.415 . S
C3727 H3703 0.951 . S
C3727 C3728 1.366 . S
C3727 C3729 1.388 . S
C3728 C3727 1.366 . S
C3728 C3732 1.385 1_565 S
C3729 H3704 0.951 . S
C3729 C3727 1.388 . S
C3729 C3730 1.366 . S
C3730 C3729 1.366 . S
C3730 C3731 1.414 . S
C3730 C3733 1.499 . S
C3731 H3705 0.950 . S
C3731 C3730 1.414 . S
C3731 C3732 1.374 1_565 S
C3732 H3706 0.950 . S
C3732 C3728 1.385 1_545 S
C3732 C3731 1.374 1_545 S
C3733 C3730 1.499 . S
C3733 C3734 1.373 . S
C3733 C3735 1.389 . S
C3734 H3707 0.950 . S
C3734 C3720 1.377 . S
C3734 C3733 1.373 . S
C3735 C3719 1.377 . S
C3735 C3733 1.389 . S
C3735 C3736 1.524 . S
C3736 C3735 1.524 . S
C3736 C3737 1.397 . S
C3736 C3741 1.363 . S
C3737 H3708 0.950 1_565 S
C3737 C3736 1.397 . S
C3737 C3738 1.334 1_565 S
C3738 H3709 0.950 . S
C3738 C3737 1.334 1_545 S
C3738 C3739 1.287 1_545 S
C3739 C3738 1.287 1_565 S
C3739 C3740 1.524 . S
C3739 H3742 0.999 1_565 S
C3740 H3710 0.950 . S
C3740 C3739 1.524 . S
C3740 C3741 1.415 . S
C3741 H3711 0.950 . S
C3741 C3736 1.363 . S
C3741 C3740 1.415 . S
H3742 C3739 0.999 1_545 S
H3743 C3724 0.913 . S
C1363 C68 2.803 . S
C1378 C908 2.802 . S
C1413 C152 2.803 . S
C1428 C992 2.803 . S
C1463 C236 2.802 . S
C1478 C740 2.803 . S
C1513 C824 2.803 . S
C1528 C320 2.804 . S
C1563 C392 2.802 . S
C1578 C1232 2.803 . S
C1613 C1316 2.803 . S
C1628 C476 2.803 . S
C1663 C1064 2.802 . S
C1678 C560 2.802 . S
C1713 C644 2.803 . S
C1728 C1148 2.803 . S
C1763 C58 0.626 . S
C1778 C406 0.626 . S
C1813 C142 0.628 . S
C1828 C1162 0.628 . S
C1863 C226 0.629 . S
C1878 C574 0.629 . S
C1913 C310 0.627 . S
C1928 C1330 0.627 . S
C1963 C490 0.626 . S
C1978 C814 0.626 . S
C2013 C982 0.628 . S
C2028 C658 0.628 . S
C2063 C1078 0.628 . S
C2078 C730 0.628 . S
C2113 C898 0.629 . S
C2128 C1246 0.629 . S
C2163 C70 0.768 . S
C2178 C656 0.831 . S
C2213 C154 0.765 . S
C2228 C1076 0.831 . S
C2263 C238 0.765 . S
C2278 C488 0.832 . S
C2313 C322 0.766 . S
C2328 C1244 0.831 . S
C2363 C308 0.832 . S
C2378 C394 0.768 . S
C2413 C478 0.767 . S
C2428 C728 0.832 . S
C2463 C562 0.766 . S
C2478 C140 0.831 . S
C2513 C896 0.832 . S
C2528 C646 0.768 . S
C2563 C742 0.769 . S
C2578 C1328 0.832 . S
C2613 C404 0.832 . S
C2628 C826 0.765 . S
C2663 C1160 0.832 . S
C2678 C910 0.769 . S
C2713 C572 0.831 . S
C2728 C994 0.766 . S
C2763 C1066 0.767 . S
C2778 C980 0.832 . S
C2813 C1150 0.767 . S
C2828 C56 0.831 . S
C2863 C812 0.832 . S
C2878 C1234 0.766 . S
C2913 C1318 0.767 . S
C2928 C224 0.832 . S
C2963 C55 3.726 . S
C2978 C823 3.650 . S
C3013 C907 3.650 . S
C3028 C139 3.726 . S
C3063 C223 3.726 . S
C3078 C991 3.650 . S
C3113 C739 3.650 . S
C3128 C307 3.726 . S
C3163 C1147 3.650 . S
C3178 C403 3.726 . S
C3213 C1231 3.650 . S
C3228 C487 3.726 . S
C3263 C1315 3.650 . S
C3278 C571 3.726 . S
C3313 C1063 3.650 . S
C3328 C655 3.726 . S
C3363 C151 3.650 . S
C3378 C727 3.725 . S
C3413 C235 3.650 . S
C3428 C811 3.726 1_565 S
C3463 C319 3.650 . S
C3478 C895 3.725 . S
C3513 C979 3.725 1_545 S
C3528 C67 3.650 . S
C3563 C475 3.650 . S
C3578 C1075 3.725 . S
C3613 C559 3.650 . S
C3628 C1159 3.726 1_545 S
C3663 C643 3.650 . S
C3678 C1243 3.725 . S
C3713 C391 3.650 . S
C3728 C1327 3.726 1_565 S
