# Generated by pormake.
# Topology nov, (5)-cn, num edge types: 1
# Building blocks:
#     Node 0, Type 0, BuildingBlock: XOMCOT_clean_sbu_1, # of connection points: 5
#     Node 1, Type 0, BuildingBlock: XOMCOT_clean_sbu_1, # of connection points: 5
#     Node 2, Type 0, BuildingBlock: XOMCOT_clean_sbu_1, # of connection points: 5
#     Node 3, Type 0, BuildingBlock: XOMCOT_clean_sbu_1, # of connection points: 5
#     Node 4, Type 0, BuildingBlock: XOMCOT_clean_sbu_1, # of connection points: 5
#     Node 5, Type 0, BuildingBlock: XOMCOT_clean_sbu_1, # of connection points: 5
#     Node 6, Type 0, BuildingBlock: XOMCOT_clean_sbu_1, # of connection points: 5
#     Node 7, Type 0, BuildingBlock: XOMCOT_clean_sbu_1, # of connection points: 5
#     Edge 8, Type (0, 0), BuildingBlock: UVAHIK_clean_linker_0, # of connection points: 2
#     Edge 9, Type (0, 0), BuildingBlock: UVAHIK_clean_linker_0, # of connection points: 2
#     Edge 10, Type (0, 0), BuildingBlock: UVAHIK_clean_linker_0, # of connection points: 2
#     Edge 11, Type (0, 0), BuildingBlock: UVAHIK_clean_linker_0, # of connection points: 2
#     Edge 12, Type (0, 0), BuildingBlock: UVAHIK_clean_linker_0, # of connection points: 2
#     Edge 13, Type (0, 0), BuildingBlock: UVAHIK_clean_linker_0, # of connection points: 2
#     Edge 14, Type (0, 0), BuildingBlock: UVAHIK_clean_linker_0, # of connection points: 2
#     Edge 15, Type (0, 0), BuildingBlock: UVAHIK_clean_linker_0, # of connection points: 2
#     Edge 16, Type (0, 0), BuildingBlock: UVAHIK_clean_linker_0, # of connection points: 2
#     Edge 17, Type (0, 0), BuildingBlock: UVAHIK_clean_linker_0, # of connection points: 2
#     Edge 18, Type (0, 0), BuildingBlock: UVAHIK_clean_linker_0, # of connection points: 2
#     Edge 19, Type (0, 0), BuildingBlock: UVAHIK_clean_linker_0, # of connection points: 2
#     Edge 20, Type (0, 0), BuildingBlock: UVAHIK_clean_linker_0, # of connection points: 2
#     Edge 21, Type (0, 0), BuildingBlock: UVAHIK_clean_linker_0, # of connection points: 2
#     Edge 22, Type (0, 0), BuildingBlock: UVAHIK_clean_linker_0, # of connection points: 2
#     Edge 23, Type (0, 0), BuildingBlock: UVAHIK_clean_linker_0, # of connection points: 2
#     Edge 24, Type (0, 0), BuildingBlock: UVAHIK_clean_linker_0, # of connection points: 2
#     Edge 25, Type (0, 0), BuildingBlock: UVAHIK_clean_linker_0, # of connection points: 2
#     Edge 26, Type (0, 0), BuildingBlock: UVAHIK_clean_linker_0, # of connection points: 2
#     Edge 27, Type (0, 0), BuildingBlock: UVAHIK_clean_linker_0, # of connection points: 2
# Relax obj value: 0.132
# Max RMSD: 0.166
# Mean RMSD: 0.166
data_MOF--net-nov--node1-XOMCOT_clean_sbu_1--edge1-UVAHIK_clean_linker_0
_symmetry_space_group_name_H-M    P1
_symmetry_Int_Tables_number       1
_symmetry_cell_setting            triclinic
loop_
_symmetry_equiv_pos_as_xyz
'x, y, z'
_cell_length_a     34.722734
_cell_length_b     66.947243
_cell_length_c     35.1279
_cell_angle_alpha  90.013201
_cell_angle_beta   90.09938
_cell_angle_gamma 90.208215
loop_
_atom_site_label
_atom_site_type_symbol
_atom_site_fract_x
_atom_site_fract_y
_atom_site_fract_z
_atom_type_partial_charge
C0 C 0.06709 0.14369 0.06849 0.0
C1 C 0.0747 0.127 0.0471 0.0
N2 N 0.06732 0.11067 0.06839 0.0
N3 N 0.05437 0.13809 0.10311 0.0
C4 C 0.0559 0.11789 0.10257 0.0
H5 H 0.07097 0.15899 0.05938 0.0
Co6 Co 0.04208 0.15562 0.14295 0.0
C7 C 0.97143 0.12744 0.14558 0.0
O8 O 0.97505 0.1193 0.11177 0.0
N9 N 0.03005 0.17328 0.18293 0.0
C10 C 0.99612 0.19423 0.21872 0.0
C11 C 0.99442 0.18052 0.18969 0.0
C12 C 0.05289 0.18265 0.2087 0.0
N13 N 0.03284 0.19549 0.23065 0.0
O14 O 0.0744 0.14029 0.17644 0.0
H15 H 0.96887 0.17648 0.17375 0.0
H16 H 0.08374 0.18074 0.21059 0.0
O17 O 0.99587 0.14042 0.15723 0.0
C18 C 0.10783 0.14774 0.17073 0.0
O19 O 0.11101 0.16255 0.14633 0.0
N20 N 1.01507 0.17212 0.10882 0.0
C21 C 0.99649 0.19778 0.04904 0.0
C22 C 0.97492 0.1803 0.05527 0.0
C23 C 0.98479 0.16755 0.08546 0.0
C24 C 0.0345 0.18968 0.1045 0.0
C25 C 0.02547 0.20279 0.07516 0.0
H26 H 0.96968 0.15361 0.08817 0.0
H27 H 0.05886 0.19301 0.12268 0.0
H28 H 0.04806 0.10872 0.12671 0.0
H29 H 0.08534 0.12702 0.01818 0.0
H30 H 0.9723 0.20274 0.23007 0.0
H31 H 0.95241 0.17586 0.0356 0.0
H32 H 0.04247 0.21627 0.0718 0.0
C33 C 0.52681 0.87538 0.57374 0.0
C34 C 0.52317 0.89187 0.55079 0.0
N35 N 0.53019 0.90829 0.57192 0.0
N36 N 0.53683 0.88122 0.60916 0.0
C37 C 0.53751 0.90141 0.6074 0.0
H38 H 0.52201 0.86007 0.5651 0.0
Co39 Co 0.54348 0.86425 0.65133 0.0
C40 C 0.6189 0.88847 0.65313 0.0
O41 O 0.6165 0.89556 0.61836 0.0
N42 N 0.54972 0.84735 0.69325 0.0
C43 C 0.57644 0.82566 0.73311 0.0
C44 C 0.58312 0.83854 0.70345 0.0
C45 C 0.52316 0.8398 0.71749 0.0
N46 N 0.5388 0.8265 0.74188 0.0
O47 O 0.51355 0.88227 0.68217 0.0
H48 H 0.61044 0.84085 0.68934 0.0
H49 H 0.4928 0.84333 0.71634 0.0
O50 O 0.59232 0.87717 0.66634 0.0
C51 C 0.47839 0.87936 0.67275 0.0
O52 O 0.47091 0.86603 0.64624 0.0
N53 N 0.56812 0.84523 0.62019 0.0
C54 C 0.58424 0.81626 0.56511 0.0
C55 C 0.60777 0.83328 0.56901 0.0
C56 C 0.59933 0.84759 0.59697 0.0
C57 C 0.54626 0.82834 0.61793 0.0
C58 C 0.5543 0.81353 0.59138 0.0
H59 H 0.61636 0.86098 0.59787 0.0
H60 H 0.52108 0.82674 0.63576 0.0
H61 H 0.54421 0.91083 0.63159 0.0
H62 H 0.51536 0.89174 0.52096 0.0
H63 H 0.5975 0.81624 0.74698 0.0
H64 H 0.6311 0.83616 0.54935 0.0
H65 H 0.53598 0.80042 0.59057 0.0
C66 C 0.07016 0.87326 0.94027 0.0
C67 C 0.07765 0.88971 0.96256 0.0
N68 N 0.07252 0.90628 0.94132 0.0
N69 N 0.05966 0.8793 0.90518 0.0
C70 C 0.06259 0.89944 0.90636 0.0
H71 H 0.07225 0.85784 0.94915 0.0
Co72 Co 0.04759 0.8625 0.86406 0.0
C73 C 0.97921 0.89209 0.85883 0.0
O74 O 0.98298 0.90086 0.89207 0.0
N75 N 0.03568 0.84573 0.82265 0.0
C76 C 1.00054 0.82828 0.7814 0.0
C77 C 0.99965 0.83965 0.81382 0.0
C78 C 0.05811 0.8377 0.79512 0.0
N79 N 0.03729 0.82712 0.76944 0.0
O80 O 0.08246 0.87771 0.83267 0.0
H81 H 0.97411 0.84335 0.82991 0.0
H82 H 0.08889 0.83993 0.79331 0.0
O83 O 1.00292 0.87857 0.84853 0.0
C84 C 0.11544 0.87004 0.83936 0.0
O85 O 0.11707 0.85489 0.86314 0.0
N86 N 1.01743 0.84619 0.89622 0.0
C87 C 0.98838 0.82004 0.95108 0.0
C88 C 0.97357 0.83941 0.94748 0.0
C89 C 0.98837 0.85227 0.91963 0.0
C90 C 0.03156 0.82726 0.899 0.0
C91 C 1.01705 0.81385 0.92577 0.0
H92 H 0.97809 0.86735 0.91881 0.0
H93 H 0.05552 0.82279 0.88135 0.0
H94 H 0.05663 0.90887 0.88207 0.0
H95 H 0.08644 0.88936 0.9921 0.0
H96 H 0.97591 0.82135 0.76778 0.0
H97 H 0.95167 0.84477 0.96685 0.0
H98 H 0.02983 0.79916 0.92815 0.0
C99 C 0.49996 0.14055 0.42398 0.0
C100 C 0.49663 0.12369 0.44594 0.0
N101 N 0.5191 0.10936 0.43084 0.0
N102 N 0.5246 0.13701 0.39517 0.0
C103 C 0.53553 0.11779 0.3998 0.0
H104 H 0.48561 0.15463 0.42883 0.0
Co105 Co 0.5376 0.15614 0.35852 0.0
C106 C 0.62194 0.14426 0.35331 0.0
O107 O 0.63261 0.15864 0.37635 0.0
N108 N 0.54977 0.17532 0.32075 0.0
C109 C 0.58106 0.19737 0.28474 0.0
C110 C 0.5835 0.18513 0.31589 0.0
C111 C 0.52708 0.18217 0.29217 0.0
N112 N 0.54561 0.19547 0.2697 0.0
O113 O 0.50916 0.14078 0.32142 0.0
H114 H 0.60821 0.18406 0.33424 0.0
H115 H 0.49773 0.17732 0.28745 0.0
O116 O 0.58619 0.14174 0.345 0.0
C117 C 0.47356 0.1443 0.32751 0.0
O118 O 0.46458 0.15778 0.35317 0.0
N119 N 0.56062 0.17216 0.39747 0.0
C120 C 0.57783 0.19623 0.46052 0.0
C121 C 0.58802 0.17601 0.46013 0.0
C122 C 0.57866 0.16419 0.42867 0.0
C123 C 0.54981 0.19177 0.39799 0.0
C124 C 0.55893 0.20415 0.42871 0.0
H125 H 0.58554 0.14846 0.42968 0.0
H126 H 0.53225 0.1978 0.37536 0.0
H127 H 0.55559 0.11027 0.38118 0.0
H128 H 0.47863 0.12207 0.47088 0.0
H129 H 0.60352 0.2072 0.27435 0.0
H130 H 0.60221 0.16924 0.48436 0.0
H131 H 0.54915 0.21949 0.42849 0.0
C132 C 0.56432 0.64946 0.06763 0.0
C133 C 0.5716 0.63313 0.04508 0.0
N134 N 0.5666 0.61647 0.06611 0.0
N135 N 0.55407 0.64325 0.10269 0.0
C136 C 0.5569 0.62312 0.1012 0.0
H137 H 0.56648 0.66493 0.05901 0.0
Co138 Co 0.54276 0.65985 0.14415 0.0
C139 C 0.47403 0.63022 0.14965 0.0
O140 O 0.47723 0.62153 0.11629 0.0
N141 N 0.53165 0.67642 0.1859 0.0
C142 C 0.49745 0.6937 0.22785 0.0
C143 C 0.49586 0.68252 0.19521 0.0
C144 C 0.55462 0.68424 0.21335 0.0
N145 N 0.53439 0.69471 0.23946 0.0
O146 O 0.57783 0.64449 0.17498 0.0
H147 H 0.47003 0.67894 0.1793 0.0
H148 H 0.58537 0.68193 0.21482 0.0
O149 O 0.49807 0.64372 0.15985 0.0
C150 C 0.61088 0.6521 0.16804 0.0
O151 O 0.61252 0.66732 0.14441 0.0
N152 N 0.51242 0.67628 0.11253 0.0
C153 C 0.48352 0.70249 0.05778 0.0
C154 C 0.46836 0.68314 0.0614 0.0
C155 C 0.48309 0.67025 0.0892 0.0
C156 C 0.5268 0.69522 0.10982 0.0
C157 C 0.51238 0.70865 0.0831 0.0
H158 H 0.47259 0.65517 0.08997 0.0
H159 H 0.55097 0.69965 0.1274 0.0
H160 H 0.55115 0.61357 0.12537 0.0
H161 H 0.58026 0.63362 0.01553 0.0
H162 H 0.47316 0.70059 0.24187 0.0
H163 H 0.44631 0.67779 0.04204 0.0
H164 H 0.52543 0.72332 0.0807 0.0
C165 C 1.01751 0.37591 0.5682 0.0
C166 C 1.01125 0.39245 0.54595 0.0
N167 N 1.01869 0.40891 0.56688 0.0
N168 N 0.02947 0.38175 0.603 0.0
C169 C 0.02881 0.40194 0.60167 0.0
H170 H 1.01325 0.36055 0.55959 0.0
Co171 Co 0.03966 0.36449 0.64389 0.0
C172 C 0.11163 0.39209 0.6487 0.0
O173 O 0.10892 0.40062 0.61516 0.0
N174 N 0.04958 0.34728 0.68465 0.0
C175 C 0.08236 0.32815 0.72468 0.0
C176 C 0.08498 0.34058 0.69387 0.0
C177 C 0.02575 0.3386 0.71029 0.0
N178 N 0.04513 0.32692 0.73527 0.0
O179 O 1.00721 0.38065 0.67612 0.0
H180 H 0.11114 0.34425 0.67869 0.0
H181 H 0.99492 0.34087 0.71069 0.0
O182 O 0.08641 0.37929 0.65937 0.0
C183 C 0.97237 0.37651 0.66721 0.0
O184 O 0.96626 0.36289 0.6409 0.0
N185 N 0.06726 0.34736 0.61113 0.0
C186 C 0.08953 0.32122 0.55327 0.0
C187 C 0.10819 0.33968 0.55804 0.0
C188 C 0.09678 0.35253 0.5874 0.0
C189 C 0.04985 0.32915 0.60763 0.0
C190 C 0.06089 0.31575 0.5793 0.0
H191 H 0.10986 0.36704 0.589 0.0
H192 H 0.0256 0.32543 0.6256 0.0
H193 H 0.0362 0.41128 0.62575 0.0
H194 H 1.00144 0.39224 0.51671 0.0
H195 H 0.10612 0.32022 0.7376 0.0
H196 H 0.13029 0.34449 0.53829 0.0
H197 H 0.04523 0.30182 0.57619 0.0
C198 C 0.56798 0.3796 0.93567 0.0
C199 C 0.57524 0.39632 0.95722 0.0
N200 N 0.56623 0.4126 0.93646 0.0
N201 N 0.55392 0.38515 0.90152 0.0
C202 C 0.55416 0.40535 0.90246 0.0
H203 H 0.57294 0.36432 0.94431 0.0
Co204 Co 0.54128 0.36758 0.86186 0.0
C205 C 0.46934 0.39477 0.86011 0.0
O206 O 0.47252 0.40261 0.89424 0.0
N207 N 0.5286 0.34999 0.82212 0.0
C208 C 0.4936 0.32909 0.78696 0.0
C209 C 0.49253 0.34324 0.81513 0.0
C210 C 0.55112 0.33984 0.79741 0.0
N211 N 0.53039 0.32699 0.7759 0.0
O212 O 0.57342 0.383 0.82785 0.0
H213 H 0.46711 0.34776 0.83061 0.0
H214 H 0.58216 0.34107 0.79632 0.0
O215 O 0.49457 0.38245 0.84802 0.0
C216 C 0.6067 0.37545 0.83381 0.0
O217 O 0.60942 0.36104 0.85911 0.0
N218 N 0.51509 0.35079 0.89631 0.0
C219 C 0.49754 0.32351 0.95405 0.0
C220 C 0.47688 0.34146 0.95061 0.0
C221 C 0.48616 0.35499 0.92138 0.0
C222 C 0.53406 0.33305 0.89847 0.0
C223 C 0.52527 0.31912 0.92641 0.0
H224 H 0.47173 0.36913 0.92064 0.0
H225 H 0.55766 0.33002 0.87931 0.0
H226 H 0.545 0.41449 0.87875 0.0
H227 H 0.58675 0.39637 0.98585 0.0
H228 H 0.46933 0.32072 0.77581 0.0
H229 H 0.45535 0.34551 0.97145 0.0
H230 H 0.54139 0.3053 0.92718 0.0
C231 C 1.02015 0.64527 0.43349 0.0
C232 C 1.01485 0.62872 0.45596 0.0
N233 N 1.02244 0.61231 0.43505 0.0
N234 N 0.03167 0.63951 0.39854 0.0
C235 C 0.03177 0.61932 0.40008 0.0
H236 H 1.01518 0.66057 0.44199 0.0
Co237 Co 0.03954 0.65669 0.35688 0.0
C238 C 0.1143 0.63211 0.35546 0.0
O239 O 0.11137 0.62465 0.3899 0.0
N240 N 0.04694 0.67381 0.31542 0.0
C241 C 0.07496 0.69557 0.27648 0.0
C242 C 0.08076 0.68253 0.30605 0.0
C243 C 1.02103 0.68158 0.29077 0.0
N244 N 0.03746 0.69493 0.26692 0.0
O245 O 1.00942 0.63901 0.32519 0.0
H246 H 0.10777 0.68005 0.32066 0.0
H247 H 0.99055 0.67816 0.29122 0.0
O248 O 0.08815 0.64366 0.34239 0.0
C249 C 0.97429 0.64219 0.33411 0.0
O250 O 0.9671 0.65563 0.36044 0.0
N251 N 0.06438 0.67538 0.3889 0.0
C252 C 0.08109 0.70402 0.44466 0.0
C253 C 0.10368 0.68672 0.44112 0.0
C254 C 0.09493 0.67258 0.41285 0.0
C255 C 0.04338 0.6925 0.39094 0.0
C256 C 0.05174 0.70713 0.41783 0.0
H257 H 0.11114 0.65897 0.41222 0.0
H258 H 1.01863 0.69443 0.3726 0.0
H259 H 0.03909 0.61001 0.37601 0.0
H260 H 1.00532 0.62885 0.48525 0.0
H261 H 0.09653 0.70497 0.26318 0.0
H262 H 0.12648 0.68354 0.46125 0.0
H263 H 0.03414 0.72044 0.4184 0.0
C264 C 0.07252 0.93151 0.99317 0.0
C265 C 0.07461 0.92684 0.95411 0.0
C266 C 0.07315 0.95135 0.00561 0.0
C267 C 0.05254 1.00255 0.97367 0.0
H268 H 0.11263 0.01817 0.06203 0.0
C269 C 0.06937 0.08515 0.01724 0.0
C270 C 0.06944 0.09002 0.05624 0.0
C271 C 0.07077 0.06527 0.00521 0.0
C272 C 0.09527 0.01403 0.03762 0.0
H273 H 0.07983 0.93981 0.89769 0.0
H274 H 0.0804 0.97437 0.91945 0.0
H275 H 0.11415 0.98361 0.03998 0.0
H276 H 0.0714 0.07738 0.1131 0.0
H277 H 0.07274 0.0427 0.09211 0.0
H278 H 0.03314 0.0328 0.97152 0.0
C279 C 0.07796 0.96256 0.94037 0.0
C280 C 0.09625 0.99422 0.0249 0.0
C281 C 0.0776 0.94268 0.9279 0.0
C282 C 0.07098 0.07433 0.08288 0.0
C283 C 0.0722 0.05438 0.07079 0.0
C284 C 0.05137 0.02232 0.9865 0.0
C285 C 0.0756 0.96713 0.97938 0.0
C286 C 0.07497 0.98825 0.99271 0.0
C287 C 0.07198 0.04958 0.03176 0.0
C288 C 0.07282 0.02837 0.01858 0.0
H289 H 0.0695 0.91989 0.01434 0.0
H290 H 0.07073 0.95434 0.03581 0.0
H291 H 0.03529 0.99838 0.94919 0.0
H292 H 0.0677 0.09664 0.99571 0.0
H293 H 0.07115 0.06224 0.97493 0.0
C294 C 0.53327 0.07343 0.42106 0.0
C295 C 0.52412 0.08938 0.44542 0.0
C296 C 0.536 0.05392 0.43524 0.0
C297 C 0.50353 0.02274 0.51614 0.0
H298 H 0.58193 0.98604 0.48105 0.0
C299 C 0.52428 0.94469 0.58381 0.0
C300 C 0.53101 0.92872 0.5587 0.0
C301 C 0.52487 0.96443 0.57066 0.0
C302 C 0.55963 0.99605 0.4909 0.0
H303 H 0.51263 0.0974 0.50413 0.0
H304 H 0.51742 0.06358 0.52873 0.0
H305 H 0.58063 0.02012 0.45639 0.0
H306 H 0.54459 0.92117 0.50017 0.0
H307 H 0.54481 0.9554 0.47723 0.0
H308 H 0.48237 0.99869 0.55045 0.0
C309 C 0.52157 0.06601 0.49853 0.0
C310 C 0.55888 0.01558 0.47672 0.0
C311 C 0.51881 0.08543 0.48439 0.0
C312 C 0.5387 0.93302 0.52025 0.0
C313 C 0.53936 0.95272 0.50714 0.0
C314 C 0.50427 1.00323 0.53029 0.0
C315 C 0.5297 0.04995 0.4741 0.0
C316 C 0.53079 0.02916 0.48915 0.0
C317 C 0.53235 0.96868 0.53213 0.0
C318 C 0.53226 0.98962 0.51779 0.0
H319 H 0.53724 0.07593 0.39088 0.0
H320 H 0.542 0.04188 0.41556 0.0
H321 H 0.48108 0.03269 0.52586 0.0
H322 H 0.51804 0.94194 0.61352 0.0
H323 H 0.51972 0.97639 0.59077 0.0
C324 C 0.56622 0.59141 0.01402 0.0
C325 C 0.56887 0.59598 0.0531 0.0
C326 C 0.56721 0.57163 1.00136 0.0
C327 C 0.5489 0.52008 0.03297 0.0
H328 H 0.60806 0.50556 0.94366 0.0
C329 C 0.56815 0.4379 0.988 0.0
C330 C 0.56763 0.43321 0.94892 0.0
C331 C 0.56897 0.45774 1.00033 0.0
C332 C 0.59096 0.50938 0.96834 0.0
H333 H 0.57544 0.58293 0.1093 0.0
H334 H 0.57665 0.54844 0.08716 0.0
H335 H 0.60874 0.54005 0.96614 0.0
H336 H 0.56785 0.4461 0.89224 0.0
H337 H 0.5682 0.4807 0.91377 0.0
H338 H 0.53062 0.48956 0.03498 0.0
C339 C 0.57349 0.56028 0.0664 0.0
C340 C 0.59146 0.52916 0.9813 0.0
C341 C 0.57275 0.58011 0.0791 0.0
C342 C 0.56793 0.44903 0.92252 0.0
C343 C 0.56858 0.46893 0.9349 0.0
C344 C 0.54821 0.50034 0.0199 0.0
C345 C 0.57061 0.55581 0.02738 0.0
C346 C 0.5705 0.53473 0.01382 0.0
C347 C 0.569 0.47355 0.97401 0.0
C348 C 0.56933 0.49469 0.98748 0.0
H349 H 0.5625 0.60306 0.99304 0.0
H350 H 0.56436 0.56869 0.97116 0.0
H351 H 0.5319 0.52394 0.05771 0.0
H352 H 0.56742 0.42628 0.00935 0.0
H353 H 0.56984 0.46065 0.03064 0.0
C354 C 1.01885 0.43396 0.51485 0.0
C355 C 1.01768 0.42945 0.55401 0.0
C356 C 1.01854 0.45374 0.5022 0.0
C357 C 0.04136 0.50501 0.53229 0.0
H358 H 0.97746 0.52013 0.44641 0.0
C359 C 0.02369 0.58729 0.48705 0.0
C360 C 1.02154 0.59178 0.44795 0.0
C361 C 1.0229 0.56753 0.49979 0.0
C362 C 0.9959 0.51613 0.47008 0.0
H363 H 1.01486 0.44262 0.61043 0.0
H364 H 1.01489 0.47713 0.58825 0.0
H365 H 0.97628 0.48575 0.46935 0.0
H366 H 1.01679 0.57862 0.39166 0.0
H367 H 1.01656 0.54416 0.41381 0.0
H368 H 0.06148 0.53524 0.53277 0.0
C369 C 1.01624 0.46522 0.56743 0.0
C370 C 0.9951 0.49643 0.48332 0.0
C371 C 1.01627 0.44538 0.58014 0.0
C372 C 1.01879 0.57585 0.42192 0.0
C373 C 1.01819 0.55603 0.4347 0.0
C374 C 0.04236 0.52468 0.51891 0.0
C375 C 1.01737 0.46961 0.5283 0.0
C376 C 1.01778 0.49064 0.51461 0.0
C377 C 1.02024 0.55161 0.47383 0.0
C378 C 1.01957 0.53054 0.48768 0.0
H379 H 1.02075 0.42226 0.49374 0.0
H380 H 1.02005 0.45662 0.47189 0.0
H381 H 0.05963 0.50096 0.55606 0.0
H382 H 0.02639 0.59902 0.50806 0.0
H383 H 0.02401 0.56478 0.53014 0.0
C384 C 0.40841 0.12939 0.32894 0.0
C385 C 0.44179 0.13373 0.30799 0.0
C386 C 0.3745 0.12359 0.31068 0.0
C387 C 0.3263 0.13295 0.22034 0.0
H388 H 0.24364 0.10315 0.26862 0.0
C389 C 0.17114 0.15582 0.19885 0.0
C390 C 0.14296 0.14131 0.19103 0.0
C391 C 0.20773 0.15035 0.21107 0.0
C392 C 0.26649 0.11128 0.25442 0.0
H393 H 0.46689 0.1341 0.2517 0.0
H394 H 0.40718 0.12386 0.21923 0.0
H395 H 0.30993 0.09923 0.29122 0.0
H396 H 0.13027 0.10963 0.19167 0.0
H397 H 0.19513 0.09986 0.21363 0.0
H398 H 0.28297 0.14532 0.18417 0.0
C399 C 0.40725 0.12506 0.24997 0.0
C400 C 0.30447 0.10916 0.26749 0.0
C401 C 0.44153 0.13074 0.26847 0.0
C402 C 0.15145 0.12111 0.19782 0.0
C403 C 0.18856 0.11555 0.21008 0.0
C404 C 0.28851 0.13503 0.20732 0.0
C405 C 0.37294 0.12214 0.27081 0.0
C406 C 0.33464 0.12059 0.25159 0.0
C407 C 0.21743 0.13015 0.21557 0.0
C408 C 0.25793 0.12489 0.22523 0.0
H409 H 0.40793 0.13151 0.35953 0.0
H410 H 0.34883 0.12171 0.32778 0.0
H411 H 0.34852 0.14209 0.20745 0.0
H412 H 0.16525 0.17153 0.19433 0.0
H413 H 0.2288 0.16202 0.21626 0.0
C414 C 0.44612 0.89443 0.7303 0.0
C415 C 0.44544 0.88924 0.69159 0.0
C416 C 0.41177 0.89957 0.74904 0.0
C417 C 0.30596 0.90952 0.73223 0.0
H418 H 0.29418 0.88048 0.82681 0.0
C419 C 0.15663 0.89632 0.80675 0.0
C420 C 0.15167 0.8769 0.82118 0.0
C421 C 0.19296 0.90261 0.79339 0.0
C422 C 0.2969 0.8887 0.80039 0.0
H423 H 0.40922 0.88704 0.64145 0.0
H424 H 0.35009 0.89562 0.67363 0.0
H425 H 0.35776 0.88433 0.79926 0.0
H426 H 0.18027 0.84858 0.83094 0.0
H427 H 0.24225 0.85921 0.80723 0.0
H428 H 0.24445 0.91257 0.73225 0.0
C429 C 0.37658 0.89595 0.68993 0.0
C430 C 0.33363 0.89121 0.78484 0.0
C431 C 0.41061 0.89081 0.67142 0.0
C432 C 0.18315 0.86377 0.82067 0.0
C433 C 0.21897 0.86994 0.80733 0.0
C434 C 0.26907 0.90686 0.74769 0.0
C435 C 0.37628 0.89968 0.7293 0.0
C436 C 0.33858 0.90098 0.74976 0.0
C437 C 0.22476 0.88954 0.79427 0.0
C438 C 0.26396 0.89569 0.78118 0.0
H439 H 0.47255 0.8933 0.74656 0.0
H440 H 0.41281 0.90266 0.77928 0.0
H441 H 0.30868 0.91755 0.70562 0.0
H442 H 0.13291 0.90678 0.80688 0.0
H443 H 0.19637 0.91779 0.78329 0.0
C444 C 0.90951 0.90156 0.85468 0.0
C445 C 0.94323 0.89492 0.83658 0.0
C446 C 0.87446 0.90216 0.83496 0.0
C447 C 0.82957 0.90762 0.74298 0.0
H448 H 0.74687 0.87421 0.78128 0.0
C449 C 0.68976 0.89555 0.65603 0.0
C450 C 0.65514 0.89126 0.67504 0.0
C451 C 0.72456 0.89686 0.67604 0.0
C452 C 0.76915 0.884 0.77045 0.0
H453 H 0.96675 0.88428 0.78319 0.0
H454 H 0.90558 0.88616 0.74827 0.0
H455 H 0.80797 0.87571 0.81534 0.0
H456 H 0.62975 0.88553 0.73023 0.0
H457 H 0.68986 0.88899 0.76558 0.0
H458 H 0.79081 0.91671 0.69908 0.0
C459 C 0.9064 0.89061 0.77792 0.0
C460 C 0.80436 0.88468 0.78993 0.0
C461 C 0.94133 0.88954 0.79789 0.0
C462 C 0.65599 0.88878 0.71473 0.0
C463 C 0.6907 0.89056 0.73494 0.0
C464 C 0.79406 0.90734 0.72396 0.0
C465 C 0.87253 0.89659 0.79648 0.0
C466 C 0.83498 0.89635 0.7762 0.0
C467 C 0.72572 0.89438 0.71587 0.0
C468 C 0.76329 0.89536 0.73713 0.0
H469 H 0.90985 0.90564 0.88452 0.0
H470 H 0.84874 0.90687 0.84985 0.0
H471 H 0.85269 0.91687 0.73203 0.0
H472 H 0.69023 0.89728 0.62537 0.0
H473 H 0.75064 0.89934 0.65989 0.0
C474 C 0.65045 0.129 0.29411 0.0
C475 C 0.6531 0.13359 0.3331 0.0
C476 C 0.68381 0.12421 0.27335 0.0
C477 C 0.78495 0.13778 0.27536 0.0
H478 H 0.8035 0.09529 0.20286 0.0
C479 C 0.93376 0.12987 0.20627 0.0
C480 C 0.93569 0.12407 0.1679 0.0
C481 C 0.89913 0.12846 0.2264 0.0
C482 C 0.79866 0.10742 0.22265 0.0
H483 H 0.69176 0.13489 0.38155 0.0
H484 H 0.74931 0.12649 0.34565 0.0
H485 H 0.74195 0.09666 0.23692 0.0
H486 H 0.90274 0.11182 0.12082 0.0
H487 H 0.84207 0.11002 0.15544 0.0
H488 H 0.84037 0.14915 0.26064 0.0
C489 C 0.72189 0.12689 0.33089 0.0
C490 C 0.76341 0.10811 0.24222 0.0
C491 C 0.68886 0.1316 0.35147 0.0
C492 C 0.90234 0.11632 0.15043 0.0
C493 C 0.86748 0.11521 0.17041 0.0
C494 C 0.81973 0.13728 0.25554 0.0
C495 C 0.72008 0.12402 0.29137 0.0
C496 C 0.75648 0.12318 0.26915 0.0
C497 C 0.86518 0.12159 0.20855 0.0
C498 C 0.82746 0.12197 0.22921 0.0
H499 H 0.62334 0.13062 0.27915 0.0
H500 H 0.68162 0.12203 0.24286 0.0
H501 H 0.78011 0.14983 0.29538 0.0
H502 H 0.95898 0.13574 0.2207 0.0
H503 H 0.89901 0.13299 0.25598 0.0
C504 C 0.94166 0.6271 0.27653 0.0
C505 C 0.94112 0.63237 0.3152 0.0
C506 C 0.90719 0.62198 0.25775 0.0
C507 C 0.80121 0.61221 0.27448 0.0
H508 H 0.78975 0.64102 0.17962 0.0
C509 C 0.65176 0.62572 0.20045 0.0
C510 C 0.64721 0.64512 0.18581 0.0
C511 C 0.68804 0.61933 0.21361 0.0
C512 C 0.79238 0.63287 0.20613 0.0
H513 H 0.90499 0.63474 0.36523 0.0
H514 H 0.84568 0.62619 0.33298 0.0
H515 H 0.85334 0.63711 0.20723 0.0
H516 H 0.67657 0.67327 0.17539 0.0
H517 H 0.73847 0.66245 0.19878 0.0
H518 H 0.73964 0.60931 0.27452 0.0
C519 C 0.87213 0.62578 0.31674 0.0
C520 C 0.8291 0.63032 0.22171 0.0
C521 C 0.90628 0.6309 0.33529 0.0
C522 C 0.6791 0.6581 0.18584 0.0
C523 C 0.71488 0.65182 0.19899 0.0
C524 C 0.76433 0.61492 0.259 0.0
C525 C 0.87171 0.62195 0.27741 0.0
C526 C 0.83396 0.62065 0.2569 0.0
C527 C 0.72022 0.63226 0.21233 0.0
C528 C 0.75934 0.62602 0.22542 0.0
H529 H 0.96811 0.62814 0.26034 0.0
H530 H 0.90813 0.61882 0.22754 0.0
H531 H 0.80383 0.60424 0.30117 0.0
H532 H 0.62771 0.61538 0.20069 0.0
H533 H 0.6911 0.60418 0.22392 0.0
C534 C 0.90382 0.38683 0.66444 0.0
C535 C 0.93848 0.38607 0.68512 0.0
C536 C 0.86951 0.3925 0.68189 0.0
C537 C 0.82449 0.39075 0.77583 0.0
H538 H 0.73784 0.41327 0.72084 0.0
C539 C 0.67169 0.367 0.81015 0.0
C540 C 0.64213 0.38121 0.81291 0.0
C541 C 0.70771 0.37214 0.79585 0.0
C542 C 0.76181 0.40725 0.73686 0.0
H543 H 0.9648 0.39187 0.7399 0.0
H544 H 0.9044 0.40189 0.77086 0.0
H545 H 0.80288 0.41616 0.69457 0.0
H546 H 0.62673 0.41189 0.80101 0.0
H547 H 0.69061 0.42103 0.77524 0.0
H548 H 0.78349 0.38147 0.81766 0.0
C549 C 0.90386 0.39791 0.74099 0.0
C550 C 0.79909 0.40873 0.72169 0.0
C551 C 0.93853 0.39233 0.72327 0.0
C552 C 0.64895 0.40062 0.79912 0.0
C553 C 0.6855 0.40584 0.78461 0.0
C554 C 0.78736 0.38929 0.79093 0.0
C555 C 0.86869 0.39752 0.72071 0.0
C556 C 0.83073 0.39982 0.7403 0.0
C557 C 0.71558 0.39172 0.78388 0.0
C558 C 0.75535 0.39679 0.77093 0.0
H559 H 0.90287 0.38224 0.63487 0.0
H560 H 0.84321 0.39175 0.66532 0.0
H561 H 0.84789 0.38361 0.79098 0.0
H562 H 0.66727 0.3518 0.81983 0.0
H563 H 0.72967 0.36071 0.79451 0.0
C564 C 0.39865 0.4024 0.85675 0.0
C565 C 0.43314 0.39746 0.83805 0.0
C566 C 0.36372 0.40301 0.83675 0.0
C567 C 0.31948 0.41171 0.74521 0.0
H568 H 0.23889 0.37506 0.7765 0.0
C569 C 0.18169 0.40097 0.65418 0.0
C570 C 0.14725 0.39488 0.6717 0.0
C571 C 0.21609 0.40213 0.67496 0.0
C572 C 0.26053 0.38575 0.76768 0.0
H573 H 0.45804 0.38984 0.78342 0.0
H574 H 0.39706 0.39179 0.74818 0.0
H575 H 0.29932 0.37627 0.81176 0.0
H576 H 0.12176 0.38577 0.72517 0.0
H577 H 0.18096 0.38894 0.76202 0.0
H578 H 0.28068 0.42196 0.70228 0.0
C579 C 0.39719 0.39487 0.77845 0.0
C580 C 0.29539 0.38627 0.78783 0.0
C581 C 0.43202 0.39376 0.79863 0.0
C582 C 0.14784 0.39045 0.71078 0.0
C583 C 0.18209 0.39207 0.73183 0.0
C584 C 0.28427 0.41158 0.72559 0.0
C585 C 0.36262 0.39919 0.79745 0.0
C586 C 0.32532 0.39912 0.77659 0.0
C587 C 0.21701 0.39766 0.71419 0.0
C588 C 0.25424 0.39844 0.7362 0.0
H589 H 0.39839 0.40515 0.88713 0.0
H590 H 0.33746 0.40642 0.85202 0.0
H591 H 0.34201 0.42188 0.73619 0.0
H592 H 0.18241 0.40423 0.62399 0.0
H593 H 0.24212 0.40603 0.65976 0.0
C594 C 0.152 0.63252 0.29428 0.0
C595 C 0.1507 0.62951 0.3339 0.0
C596 C 0.18693 0.63099 0.2745 0.0
C597 C 0.28872 0.63937 0.28417 0.0
H598 H 0.30401 0.60127 0.2026 0.0
C599 C 0.43724 0.6324 0.21108 0.0
C600 C 0.43837 0.62731 0.17231 0.0
C601 C 0.40268 0.63125 0.23155 0.0
C602 C 0.30025 0.6123 0.22479 0.0
H603 H 0.1852 0.62268 0.38376 0.0
H604 H 0.24623 0.62071 0.3493 0.0
H605 H 0.24213 0.60261 0.23528 0.0
H606 H 0.40394 0.61707 0.1246 0.0
H607 H 0.34367 0.616 0.15937 0.0
H608 H 0.34564 0.64992 0.27291 0.0
C609 C 0.22008 0.62389 0.3336 0.0
C610 C 0.26474 0.61291 0.24368 0.0
C611 C 0.18509 0.62493 0.35322 0.0
C612 C 0.40423 0.62084 0.15458 0.0
C613 C 0.3695 0.62014 0.17476 0.0
C614 C 0.32389 0.63913 0.26473 0.0
C615 C 0.22135 0.62694 0.29409 0.0
C616 C 0.25873 0.62639 0.27364 0.0
C617 C 0.368 0.62546 0.21357 0.0
C618 C 0.33041 0.62552 0.23475 0.0
H619 H 0.12604 0.63612 0.27861 0.0
H620 H 0.18724 0.63347 0.24403 0.0
H621 H 0.28465 0.65003 0.30702 0.0
H622 H 0.4631 0.63739 0.2256 0.0
H623 H 0.40333 0.63499 0.26151 0.0
C624 C 0.992 0.30776 0.76603 0.0
C625 C 0.03022 0.31494 0.76615 0.0
C626 C 0.97937 0.29444 0.79433 0.0
C627 C 1.01538 0.25455 0.85101 0.0
H628 H 0.94313 0.26587 0.93222 0.0
C629 C 0.02577 0.21539 0.99365 0.0
C630 C 0.99244 0.20962 0.01349 0.0
C631 C 1.02323 0.22671 0.96055 0.0
C632 C 0.96269 0.26228 0.90926 0.0
H633 H 0.0839 0.31491 0.798 0.0
H634 H 0.06228 0.29136 0.84602 0.0
H635 H 0.95043 0.28956 0.87919 0.0
H636 H 0.93012 0.21097 0.01371 0.0
H637 H 0.92559 0.23103 0.95513 0.0
H638 H 0.02864 0.22767 0.88095 0.0
C639 C 0.04232 0.29589 0.82392 0.0
C640 C 0.96686 0.27584 0.87905 0.0
C641 C 0.05473 0.30927 0.79617 0.0
C642 C 0.95627 0.21523 0.99899 0.0
C643 C 0.95371 0.22677 0.96567 0.0
C644 C 1.01102 0.241 0.88081 0.0
C645 C 1.00488 0.28805 0.82285 0.0
C646 C 0.99425 0.27235 0.85048 0.0
C647 C 0.98727 0.23256 0.94606 0.0
C648 C 0.98583 0.24508 0.9111 0.0
H649 H 0.97237 0.31179 0.74338 0.0
H650 H 0.9503 0.28855 0.7931 0.0
H651 H 0.03648 0.25152 0.82908 0.0
H652 H 0.05406 0.21105 0.00366 0.0
H653 H 0.0497 0.23116 0.94658 0.0
C654 C 0.55518 0.79345 0.5161 0.0
C655 C 0.58831 0.8022 0.53233 0.0
C656 C 0.55808 0.78002 0.48601 0.0
C657 C 0.61103 0.76646 0.40323 0.0
H658 H 0.55808 0.71568 0.41435 0.0
C659 C 0.58611 0.71194 0.27598 0.0
C660 C 0.54836 0.70432 0.27361 0.0
C661 C 0.5986 0.72203 0.30881 0.0
C662 C 0.57296 0.72979 0.41068 0.0
H663 H 0.65063 0.80397 0.52817 0.0
H664 H 0.65536 0.78086 0.47402 0.0
H665 H 0.56624 0.7374 0.46949 0.0
H666 H 0.4948 0.70066 0.30455 0.0
H667 H 0.51596 0.71846 0.36078 0.0
H668 H 0.61561 0.75943 0.34384 0.0
C669 C 0.62729 0.78431 0.48564 0.0
C670 C 0.57784 0.74214 0.44233 0.0
C671 C 0.62449 0.79758 0.51648 0.0
C672 C 0.52381 0.70659 0.30505 0.0
C673 C 0.53622 0.71657 0.33766 0.0
C674 C 0.60576 0.75416 0.37131 0.0
C675 C 0.59406 0.77522 0.4706 0.0
C676 C 0.59583 0.76083 0.43867 0.0
C677 C 0.57368 0.72451 0.34 0.0
C678 C 0.58543 0.73599 0.37447 0.0
H679 H 0.52666 0.79713 0.52626 0.0
H680 H 0.53196 0.77354 0.47434 0.0
H681 H 0.62483 0.78088 0.39974 0.0
H682 H 0.60567 0.71051 0.25219 0.0
H683 H 0.6277 0.7279 0.30976 0.0
C684 C 0.98032 0.81431 0.02089 0.0
C685 C 0.97757 0.80703 0.98353 0.0
C686 C 0.97627 0.8014 0.05189 0.0
C687 C 0.98459 0.74742 0.07527 0.0
H688 H 0.95446 0.76612 0.17532 0.0
C689 C 0.9945 0.69825 0.21121 0.0
C690 C 1.01921 0.70693 0.23826 0.0
C691 C 0.98062 0.70963 0.18065 0.0
C692 C 0.96261 0.76066 0.14745 0.0
H693 H 0.96612 0.78083 0.94916 0.0
H694 H 0.95716 0.75837 0.00321 0.0
H695 H 0.9443 0.78748 0.11994 0.0
H696 H 0.04717 0.73429 0.25611 0.0
H697 H 1.02199 0.75436 0.20352 0.0
H698 H 1.00277 0.72056 0.10317 0.0
C699 C 0.96385 0.77391 0.00877 0.0
C700 C 0.95716 0.77294 0.1157 0.0
C701 C 0.96861 0.78678 0.97774 0.0
C702 C 0.02826 0.72732 0.23542 0.0
C703 C 1.0137 0.73877 0.20554 0.0
C704 C 0.98933 0.73501 0.10694 0.0
C705 C 0.96876 0.7809 0.04632 0.0
C706 C 0.9692 0.76676 0.07928 0.0
C707 C 0.99044 0.72996 0.17741 0.0
C708 C 0.9794 0.74174 0.14343 0.0
H709 H 0.98778 0.8298 0.02614 0.0
H710 H 0.98099 0.8074 0.08013 0.0
H711 H 0.99485 0.74214 0.048 0.0
H712 H 0.9874 0.68251 0.21284 0.0
H713 H 0.96275 0.70251 0.15924 0.0
C714 C 0.56949 0.31872 0.71951 0.0
C715 C 0.54416 0.31284 0.7485 0.0
C716 C 0.57872 0.30544 0.6901 0.0
C717 C 0.53939 0.25962 0.64446 0.0
H718 H 0.63663 0.25939 0.59035 0.0
C719 C 0.57201 0.20082 0.53091 0.0
C720 C 0.58297 0.20851 0.49532 0.0
C721 C 0.57225 0.21301 0.56314 0.0
C722 C 0.60935 0.25936 0.60527 0.0
H723 H 0.51097 0.28831 0.77152 0.0
H724 H 0.52838 0.26479 0.72163 0.0
H725 H 0.62829 0.2815 0.6453 0.0
H726 H 0.60465 0.23468 0.46589 0.0
H727 H 0.60537 0.25603 0.52259 0.0
H728 H 0.52067 0.23735 0.60487 0.0
C729 C 0.53983 0.27984 0.72021 0.0
C730 C 0.60446 0.27206 0.6366 0.0
C731 C 0.53005 0.29321 0.74899 0.0
C732 C 0.59586 0.22841 0.49295 0.0
C733 C 0.59652 0.24057 0.52536 0.0
C734 C 0.54448 0.24679 0.61366 0.0
C735 C 0.56323 0.28594 0.68964 0.0
C736 C 0.56936 0.27232 0.65664 0.0
C737 C 0.58379 0.2331 0.56054 0.0
C738 C 0.57945 0.24652 0.59375 0.0
H739 H 0.58053 0.33386 0.71867 0.0
H740 H 0.59663 0.31074 0.66699 0.0
H741 H 0.51154 0.25978 0.65828 0.0
H742 H 0.56157 0.18562 0.53358 0.0
H743 H 0.56253 0.20687 0.59 0.0
C744 C 0.52798 0.79424 0.77347 0.0
C745 C 0.5197 0.81467 0.77032 0.0
C746 C 0.51264 0.78295 0.80323 0.0
C747 C 0.48746 0.78714 0.90141 0.0
H748 H 0.44079 0.73488 0.88839 0.0
C749 C 0.46456 0.73574 0.03079 0.0
C750 C 0.47301 0.71546 0.02521 0.0
C751 C 0.46022 0.74857 0.99964 0.0
C752 C 0.45408 0.74936 0.89264 0.0
H753 H 0.48846 0.83935 0.79501 0.0
H754 H 0.46245 0.81964 0.84841 0.0
H755 H 0.45206 0.75605 0.83293 0.0
H756 H 0.48272 0.69257 0.98281 0.0
H757 H 0.47667 0.71488 0.92863 0.0
H758 H 0.49234 0.78012 0.96046 0.0
C759 C 0.48031 0.81236 0.82734 0.0
C760 C 0.46018 0.76153 0.86085 0.0
C761 C 0.49497 0.82357 0.79689 0.0
C762 C 0.47564 0.70809 0.98791 0.0
C763 C 0.47202 0.72095 0.95679 0.0
C764 C 0.48208 0.77483 0.93314 0.0
C765 C 0.48937 0.79198 0.83092 0.0
C766 C 0.47758 0.78037 0.86488 0.0
C767 C 0.46506 0.74149 0.96218 0.0
C768 C 0.4661 0.75556 0.92913 0.0
H769 H 0.5469 0.78711 0.75315 0.0
H770 H 0.52035 0.76733 0.80553 0.0
H771 H 0.50137 0.80152 0.9052 0.0
H772 H 0.46217 0.74175 0.05932 0.0
H773 H 0.45395 0.76414 0.00505 0.0
C774 C 0.10021 0.28797 0.52175 0.0
C775 C 0.09594 0.3088 0.51885 0.0
C776 C 0.10031 0.27602 0.48902 0.0
C777 C 0.05636 0.27438 0.3965 0.0
H778 H 0.13094 0.23381 0.3697 0.0
C779 C 0.03628 0.22881 0.25971 0.0
C780 C 0.04719 0.20869 0.2597 0.0
C781 C 0.0471 0.24143 0.28954 0.0
C782 C 0.1095 0.24486 0.37697 0.0
H783 H 0.08941 0.33347 0.47946 0.0
H784 H 0.08882 0.31253 0.42238 0.0
H785 H 0.14175 0.25479 0.42582 0.0
H786 H 0.07843 0.18589 0.29018 0.0
H787 H 0.09587 0.20756 0.34371 0.0
H788 H 1.02282 0.26406 0.34962 0.0
C789 C 0.09257 0.30552 0.44993 0.0
C790 C 0.11593 0.25695 0.40899 0.0
C791 C 0.0932 0.31749 0.48254 0.0
C792 C 0.06996 0.20144 0.28962 0.0
C793 C 0.08002 0.21394 0.32014 0.0
C794 C 0.0495 0.26207 0.36511 0.0
C795 C 0.09536 0.28465 0.45291 0.0
C796 C 0.0895 0.27191 0.41883 0.0
C797 C 0.06817 0.23408 0.32086 0.0
C798 C 0.07606 0.2472 0.35457 0.0
H799 H 0.10231 0.28091 0.54941 0.0
H800 H 0.1023 0.25995 0.49206 0.0
H801 H 0.03516 0.28556 0.40391 0.0
H802 H 1.01911 0.23474 0.23657 0.0
H803 H 0.03848 0.25693 0.28811 0.0
C804 C 0.45695 0.3054 0.00326 0.0
C805 C 0.49318 0.30999 0.98748 0.0
C806 C 0.45386 0.29157 0.03325 0.0
C807 C 0.50398 0.24831 0.07198 0.0
H808 H 0.4618 0.26106 0.17114 0.0
C809 C 0.55722 0.21024 0.2066 0.0
C810 C 0.53158 0.20545 0.2361 0.0
C811 C 0.5448 0.22092 0.17487 0.0
C812 C 0.47291 0.25709 0.14338 0.0
H813 H 0.55468 0.30479 0.99302 0.0
H814 H 0.54905 0.28052 0.04386 0.0
H815 H 0.45321 0.28445 0.11798 0.0
H816 H 0.47249 0.20784 0.25516 0.0
H817 H 0.45051 0.22673 0.19921 0.0
H818 H 0.52471 0.22135 0.09712 0.0
C819 C 0.52303 0.28724 0.0327 0.0
C820 C 0.46801 0.27048 0.11304 0.0
C821 C 0.52616 0.30111 0.00338 0.0
C822 C 0.49282 0.21125 0.23274 0.0
C823 C 0.48036 0.22217 0.20092 0.0
C824 C 0.50865 0.23495 0.10205 0.0
C825 C 0.48691 0.28206 0.04753 0.0
C826 C 0.48483 0.26652 0.0775 0.0
C827 C 0.50633 0.22716 0.17169 0.0
C828 C 0.49457 0.23953 0.13849 0.0
H829 H 0.43102 0.31203 0.99179 0.0
H830 H 0.42569 0.28788 0.04448 0.0
H831 H 0.51673 0.24479 0.04467 0.0
H832 H 0.58712 0.20578 0.20811 0.0
H833 H 0.56574 0.22474 0.15321 0.0
C834 C 0.05267 0.72713 0.49324 0.0
C835 C 0.0855 0.71802 0.47753 0.0
C836 C 0.05593 0.74059 0.52331 0.0
C837 C 0.1096 0.75402 0.60647 0.0
H838 H 0.058 0.80496 0.59482 0.0
C839 C 0.088 0.80943 0.73281 0.0
C840 C 0.05054 0.81726 0.73535 0.0
C841 C 0.09971 0.79905 0.70011 0.0
C842 C 0.0725 0.7908 0.59865 0.0
H843 H 0.14765 0.7156 0.48262 0.0
H844 H 0.15301 0.73877 0.53667 0.0
H845 H 0.06499 0.78296 0.54001 0.0
H846 H 0.99669 0.82099 0.70484 0.0
H847 H 1.01651 0.80271 0.64884 0.0
H848 H 0.11505 0.76134 0.6657 0.0
C849 C 0.12488 0.73558 0.5247 0.0
C850 C 0.07669 0.77828 0.56719 0.0
C851 C 0.12172 0.72228 0.4939 0.0
C852 C 0.0255 0.81491 0.7042 0.0
C853 C 0.03714 0.80464 0.67172 0.0
C854 C 0.10503 0.7665 0.63822 0.0
C855 C 0.09199 0.74505 0.53921 0.0
C856 C 0.0942 0.75954 0.57102 0.0
C857 C 0.0743 0.79649 0.66921 0.0
C858 C 0.08521 0.78474 0.63488 0.0
H859 H 0.02408 0.72374 0.48266 0.0
H860 H 0.03002 0.74735 0.53455 0.0
H861 H 0.12307 0.73958 0.61012 0.0
H862 H 0.10792 0.81092 0.75638 0.0
H863 H 0.12859 0.79303 0.69903 0.0
loop_
_geom_bond_atom_site_label_1
_geom_bond_atom_site_label_2
_geom_bond_distance
_geom_bond_site_symmetry_2
_ccdc_geom_bond_type
C0 C1 1.351 . S
C0 N3 1.368 . S
C0 H5 0.931 . S
C1 C0 1.351 . S
C1 N2 1.373 . S
C1 H29 0.930 . S
N2 C1 1.373 . S
N2 C4 1.340 1_455 S
N3 C0 1.368 . S
N3 C4 1.321 1_455 S
N3 Co6 2.135 . S
C4 N2 1.340 1_655 S
C4 N3 1.321 1_655 S
C4 H28 0.930 . S
H5 C0 0.931 . S
Co6 N3 2.135 . S
Co6 N9 2.121 . S
Co6 O14 2.055 . S
Co6 O17 2.039 1_455 S
Co6 N20 2.140 . S
C7 O8 1.227 . S
C7 O17 1.265 . S
O8 C7 1.227 . S
N9 Co6 2.121 . S
N9 C11 1.375 1_455 S
N9 C12 1.313 . S
C10 C11 1.338 . S
C10 N13 1.377 1_655 S
C10 H30 0.930 . S
C11 N9 1.375 1_655 S
C11 C10 1.338 . S
C11 H15 0.931 . S
C12 N9 1.313 . S
C12 N13 1.344 . S
C12 H16 0.930 . S
N13 C10 1.377 1_455 S
N13 C12 1.344 . S
O14 Co6 2.055 . S
O14 C18 1.253 . S
H15 C11 0.931 . S
H16 C12 0.930 . S
O17 Co6 2.039 1_655 S
O17 C7 1.265 . S
C18 O14 1.253 . S
C18 O19 1.227 . S
O19 C18 1.227 . S
N20 Co6 2.140 . S
N20 C23 1.346 1_455 S
N20 C24 1.345 . S
C21 C22 1.387 1_455 S
C21 C25 1.391 . S
C22 C21 1.387 1_655 S
C22 C23 1.369 . S
C22 H31 0.929 . S
C23 N20 1.346 1_655 S
C23 C22 1.369 . S
C23 H26 0.928 . S
C24 N20 1.345 . S
C24 C25 1.371 . S
C24 H27 0.931 . S
C25 C21 1.391 . S
C25 C24 1.371 . S
C25 H32 0.930 . S
H26 C23 0.928 . S
H27 C24 0.931 . S
H28 C4 0.930 . S
H29 C1 0.930 . S
H30 C10 0.930 . S
H31 C22 0.929 . S
H32 C25 0.930 . S
C33 C34 1.351 . S
C33 N36 1.368 . S
C33 H38 0.931 . S
C34 C33 1.351 . S
C34 N35 1.373 . S
C34 H62 0.930 . S
N35 C34 1.373 . S
N35 C37 1.340 . S
N36 C33 1.368 . S
N36 C37 1.321 . S
N36 Co39 2.135 . S
C37 N35 1.340 . S
C37 N36 1.321 . S
C37 H61 0.930 . S
H38 C33 0.931 . S
Co39 N36 2.135 . S
Co39 N42 2.121 . S
Co39 O47 2.055 . S
Co39 O50 2.039 . S
Co39 N53 2.140 . S
C40 O41 1.227 . S
C40 O50 1.265 . S
O41 C40 1.227 . S
N42 Co39 2.121 . S
N42 C44 1.375 . S
N42 C45 1.313 . S
C43 C44 1.338 . S
C43 N46 1.377 . S
C43 H63 0.930 . S
C44 N42 1.375 . S
C44 C43 1.338 . S
C44 H48 0.931 . S
C45 N42 1.313 . S
C45 N46 1.344 . S
C45 H49 0.930 . S
N46 C43 1.377 . S
N46 C45 1.344 . S
O47 Co39 2.055 . S
O47 C51 1.253 . S
H48 C44 0.931 . S
H49 C45 0.930 . S
O50 Co39 2.039 . S
O50 C40 1.265 . S
C51 O47 1.253 . S
C51 O52 1.227 . S
O52 C51 1.227 . S
N53 Co39 2.140 . S
N53 C56 1.346 . S
N53 C57 1.345 . S
C54 C55 1.387 . S
C54 C58 1.391 . S
C55 C54 1.387 . S
C55 C56 1.369 . S
C55 H64 0.929 . S
C56 N53 1.346 . S
C56 C55 1.369 . S
C56 H59 0.928 . S
C57 N53 1.345 . S
C57 C58 1.371 . S
C57 H60 0.931 . S
C58 C54 1.391 . S
C58 C57 1.371 . S
C58 H65 0.930 . S
H59 C56 0.928 . S
H60 C57 0.931 . S
H61 C37 0.930 . S
H62 C34 0.930 . S
H63 C43 0.930 . S
H64 C55 0.929 . S
H65 C58 0.930 . S
C66 C67 1.351 . S
C66 N69 1.368 . S
C66 H71 0.931 . S
C67 C66 1.351 . S
C67 N68 1.373 . S
C67 H95 0.930 . S
N68 C67 1.373 . S
N68 C70 1.340 1_455 S
N69 C66 1.368 . S
N69 C70 1.321 1_455 S
N69 Co72 2.135 . S
C70 N68 1.340 1_655 S
C70 N69 1.321 1_655 S
C70 H94 0.930 . S
H71 C66 0.931 . S
Co72 N69 2.135 . S
Co72 N75 2.121 . S
Co72 O80 2.055 . S
Co72 O83 2.039 1_455 S
Co72 N86 2.140 . S
C73 O74 1.227 . S
C73 O83 1.265 . S
O74 C73 1.227 . S
N75 Co72 2.121 . S
N75 C77 1.375 1_455 S
N75 C78 1.313 . S
C76 C77 1.338 . S
C76 N79 1.377 1_655 S
C76 H96 0.930 . S
C77 N75 1.375 1_655 S
C77 C76 1.338 . S
C77 H81 0.931 . S
C78 N75 1.313 . S
C78 N79 1.344 . S
C78 H82 0.930 . S
N79 C76 1.377 1_455 S
N79 C78 1.344 . S
O80 Co72 2.055 . S
O80 C84 1.253 . S
H81 C77 0.931 . S
H82 C78 0.930 . S
O83 Co72 2.039 1_655 S
O83 C73 1.265 . S
C84 O80 1.253 . S
C84 O85 1.227 . S
O85 C84 1.227 . S
N86 Co72 2.140 . S
N86 C89 1.346 1_455 S
N86 C90 1.345 . S
C87 C88 1.387 1_455 S
C87 C91 1.391 . S
C88 C87 1.387 1_655 S
C88 C89 1.369 . S
C88 H97 0.929 . S
C89 N86 1.346 1_655 S
C89 C88 1.369 . S
C89 H92 0.928 . S
C90 N86 1.345 . S
C90 C91 1.371 . S
C90 H93 0.931 . S
C91 C87 1.391 . S
C91 C90 1.371 . S
C91 H98 0.930 . S
H92 C89 0.928 . S
H93 C90 0.931 . S
H94 C70 0.930 . S
H95 C67 0.930 . S
H96 C76 0.930 . S
H97 C88 0.929 . S
H98 C91 0.930 . S
C99 C100 1.351 . S
C99 N102 1.368 . S
C99 H104 0.931 . S
C100 C99 1.351 . S
C100 N101 1.373 . S
C100 H128 0.930 . S
N101 C100 1.373 . S
N101 C103 1.340 . S
N102 C99 1.368 . S
N102 C103 1.321 . S
N102 Co105 2.135 . S
C103 N101 1.340 . S
C103 N102 1.321 . S
C103 H127 0.930 . S
H104 C99 0.931 . S
Co105 N102 2.135 . S
Co105 N108 2.121 . S
Co105 O113 2.055 . S
Co105 O116 2.039 . S
Co105 N119 2.140 . S
C106 O107 1.227 . S
C106 O116 1.265 . S
O107 C106 1.227 . S
N108 Co105 2.121 . S
N108 C110 1.375 . S
N108 C111 1.313 . S
C109 C110 1.338 . S
C109 N112 1.377 . S
C109 H129 0.930 . S
C110 N108 1.375 . S
C110 C109 1.338 . S
C110 H114 0.931 . S
C111 N108 1.313 . S
C111 N112 1.344 . S
C111 H115 0.930 . S
N112 C109 1.377 . S
N112 C111 1.344 . S
O113 Co105 2.055 . S
O113 C117 1.253 . S
H114 C110 0.931 . S
H115 C111 0.930 . S
O116 Co105 2.039 . S
O116 C106 1.265 . S
C117 O113 1.253 . S
C117 O118 1.227 . S
O118 C117 1.227 . S
N119 Co105 2.140 . S
N119 C122 1.346 . S
N119 C123 1.345 . S
C120 C121 1.387 . S
C120 C124 1.391 . S
C121 C120 1.387 . S
C121 C122 1.369 . S
C121 H130 0.929 . S
C122 N119 1.346 . S
C122 C121 1.369 . S
C122 H125 0.928 . S
C123 N119 1.345 . S
C123 C124 1.371 . S
C123 H126 0.931 . S
C124 C120 1.391 . S
C124 C123 1.371 . S
C124 H131 0.930 . S
H125 C122 0.928 . S
H126 C123 0.931 . S
H127 C103 0.930 . S
H128 C100 0.930 . S
H129 C109 0.930 . S
H130 C121 0.929 . S
H131 C124 0.930 . S
C132 C133 1.351 . S
C132 N135 1.368 . S
C132 H137 0.931 . S
C133 C132 1.351 . S
C133 N134 1.373 . S
C133 H161 0.930 . S
N134 C133 1.373 . S
N134 C136 1.340 . S
N135 C132 1.368 . S
N135 C136 1.321 . S
N135 Co138 2.135 . S
C136 N134 1.340 . S
C136 N135 1.321 . S
C136 H160 0.930 . S
H137 C132 0.931 . S
Co138 N135 2.135 . S
Co138 N141 2.121 . S
Co138 O146 2.055 . S
Co138 O149 2.039 . S
Co138 N152 2.140 . S
C139 O140 1.227 . S
C139 O149 1.265 . S
O140 C139 1.227 . S
N141 Co138 2.121 . S
N141 C143 1.375 . S
N141 C144 1.313 . S
C142 C143 1.338 . S
C142 N145 1.377 . S
C142 H162 0.930 . S
C143 N141 1.375 . S
C143 C142 1.338 . S
C143 H147 0.931 . S
C144 N141 1.313 . S
C144 N145 1.344 . S
C144 H148 0.930 . S
N145 C142 1.377 . S
N145 C144 1.344 . S
O146 Co138 2.055 . S
O146 C150 1.253 . S
H147 C143 0.931 . S
H148 C144 0.930 . S
O149 Co138 2.039 . S
O149 C139 1.265 . S
C150 O146 1.253 . S
C150 O151 1.227 . S
O151 C150 1.227 . S
N152 Co138 2.140 . S
N152 C155 1.346 . S
N152 C156 1.345 . S
C153 C154 1.387 . S
C153 C157 1.391 . S
C154 C153 1.387 . S
C154 C155 1.369 . S
C154 H163 0.929 . S
C155 N152 1.346 . S
C155 C154 1.369 . S
C155 H158 0.928 . S
C156 N152 1.345 . S
C156 C157 1.371 . S
C156 H159 0.931 . S
C157 C153 1.391 . S
C157 C156 1.371 . S
C157 H164 0.930 . S
H158 C155 0.928 . S
H159 C156 0.931 . S
H160 C136 0.930 . S
H161 C133 0.930 . S
H162 C142 0.930 . S
H163 C154 0.929 . S
H164 C157 0.930 . S
C165 C166 1.351 . S
C165 N168 1.368 1_655 S
C165 H170 0.931 . S
C166 C165 1.351 . S
C166 N167 1.373 1_655 S
C166 H194 0.930 . S
N167 C166 1.373 1_455 S
N167 C169 1.340 . S
N168 C165 1.368 1_455 S
N168 C169 1.321 . S
N168 Co171 2.135 . S
C169 N167 1.340 . S
C169 N168 1.321 . S
C169 H193 0.930 . S
H170 C165 0.931 . S
Co171 N168 2.135 . S
Co171 N174 2.121 . S
Co171 O179 2.055 1_455 S
Co171 O182 2.039 . S
Co171 N185 2.140 . S
C172 O173 1.227 . S
C172 O182 1.265 . S
O173 C172 1.227 . S
N174 Co171 2.121 . S
N174 C176 1.375 . S
N174 C177 1.313 . S
C175 C176 1.338 . S
C175 N178 1.377 . S
C175 H195 0.930 . S
C176 N174 1.375 . S
C176 C175 1.338 . S
C176 H180 0.931 . S
C177 N174 1.313 . S
C177 N178 1.344 . S
C177 H181 0.930 1_455 S
N178 C175 1.377 . S
N178 C177 1.344 . S
O179 Co171 2.055 1_655 S
O179 C183 1.253 . S
H180 C176 0.931 . S
H181 C177 0.930 1_655 S
O182 Co171 2.039 . S
O182 C172 1.265 . S
C183 O179 1.253 . S
C183 O184 1.227 . S
O184 C183 1.227 . S
N185 Co171 2.140 . S
N185 C188 1.346 . S
N185 C189 1.345 . S
C186 C187 1.387 . S
C186 C190 1.391 . S
C187 C186 1.387 . S
C187 C188 1.369 . S
C187 H196 0.929 . S
C188 N185 1.346 . S
C188 C187 1.369 . S
C188 H191 0.928 . S
C189 N185 1.345 . S
C189 C190 1.371 . S
C189 H192 0.931 1_455 S
C190 C186 1.391 . S
C190 C189 1.371 . S
C190 H197 0.930 1_455 S
H191 C188 0.928 . S
H192 C189 0.931 1_655 S
H193 C169 0.930 . S
H194 C166 0.930 . S
H195 C175 0.930 . S
H196 C187 0.929 . S
H197 C190 0.930 1_655 S
C198 C199 1.351 . S
C198 N201 1.368 . S
C198 H203 0.931 . S
C199 C198 1.351 . S
C199 N200 1.373 . S
C199 H227 0.930 . S
N200 C199 1.373 . S
N200 C202 1.340 . S
N201 C198 1.368 . S
N201 C202 1.321 . S
N201 Co204 2.135 . S
C202 N200 1.340 . S
C202 N201 1.321 . S
C202 H226 0.930 . S
H203 C198 0.931 . S
Co204 N201 2.135 . S
Co204 N207 2.121 . S
Co204 O212 2.055 . S
Co204 O215 2.039 . S
Co204 N218 2.140 . S
C205 O206 1.227 . S
C205 O215 1.265 . S
O206 C205 1.227 . S
N207 Co204 2.121 . S
N207 C209 1.375 . S
N207 C210 1.313 . S
C208 C209 1.338 . S
C208 N211 1.377 . S
C208 H228 0.930 . S
C209 N207 1.375 . S
C209 C208 1.338 . S
C209 H213 0.931 . S
C210 N207 1.313 . S
C210 N211 1.344 . S
C210 H214 0.930 . S
N211 C208 1.377 . S
N211 C210 1.344 . S
O212 Co204 2.055 . S
O212 C216 1.253 . S
H213 C209 0.931 . S
H214 C210 0.930 . S
O215 Co204 2.039 . S
O215 C205 1.265 . S
C216 O212 1.253 . S
C216 O217 1.227 . S
O217 C216 1.227 . S
N218 Co204 2.140 . S
N218 C221 1.346 . S
N218 C222 1.345 . S
C219 C220 1.387 . S
C219 C223 1.391 . S
C220 C219 1.387 . S
C220 C221 1.369 . S
C220 H229 0.929 . S
C221 N218 1.346 . S
C221 C220 1.369 . S
C221 H224 0.928 . S
C222 N218 1.345 . S
C222 C223 1.371 . S
C222 H225 0.931 . S
C223 C219 1.391 . S
C223 C222 1.371 . S
C223 H230 0.930 . S
H224 C221 0.928 . S
H225 C222 0.931 . S
H226 C202 0.930 . S
H227 C199 0.930 . S
H228 C208 0.930 . S
H229 C220 0.929 . S
H230 C223 0.930 . S
C231 C232 1.351 . S
C231 N234 1.368 1_655 S
C231 H236 0.931 . S
C232 C231 1.351 . S
C232 N233 1.373 1_655 S
C232 H260 0.930 . S
N233 C232 1.373 1_455 S
N233 C235 1.340 . S
N234 C231 1.368 1_455 S
N234 C235 1.321 . S
N234 Co237 2.135 . S
C235 N233 1.340 . S
C235 N234 1.321 . S
C235 H259 0.930 . S
H236 C231 0.931 . S
Co237 N234 2.135 . S
Co237 N240 2.121 . S
Co237 O245 2.055 1_455 S
Co237 O248 2.039 . S
Co237 N251 2.140 . S
C238 O239 1.227 . S
C238 O248 1.265 . S
O239 C238 1.227 . S
N240 Co237 2.121 . S
N240 C242 1.375 . S
N240 C243 1.313 . S
C241 C242 1.338 . S
C241 N244 1.377 . S
C241 H261 0.930 . S
C242 N240 1.375 . S
C242 C241 1.338 . S
C242 H246 0.931 . S
C243 N240 1.313 . S
C243 N244 1.344 . S
C243 H247 0.930 1_455 S
N244 C241 1.377 . S
N244 C243 1.344 . S
O245 Co237 2.055 1_655 S
O245 C249 1.253 . S
H246 C242 0.931 . S
H247 C243 0.930 1_655 S
O248 Co237 2.039 . S
O248 C238 1.265 . S
C249 O245 1.253 . S
C249 O250 1.227 . S
O250 C249 1.227 . S
N251 Co237 2.140 . S
N251 C254 1.346 . S
N251 C255 1.345 . S
C252 C253 1.387 . S
C252 C256 1.391 . S
C253 C252 1.387 . S
C253 C254 1.369 . S
C253 H262 0.929 . S
C254 N251 1.346 . S
C254 C253 1.369 . S
C254 H257 0.928 . S
C255 N251 1.345 . S
C255 C256 1.371 . S
C255 H258 0.931 1_455 S
C256 C252 1.391 . S
C256 C255 1.371 . S
C256 H263 0.930 1_455 S
H257 C254 0.928 . S
H258 C255 0.931 1_655 S
H259 C235 0.930 . S
H260 C232 0.930 . S
H261 C241 0.930 . S
H262 C253 0.929 . S
H263 C256 0.930 1_655 S
C264 C265 1.366 . S
C264 C266 1.327 . S
C264 H289 0.950 . S
C265 C264 1.366 . S
C265 C281 1.332 1_455 S
C266 C264 1.327 . S
C266 C285 1.445 . S
C266 H290 0.950 . S
C267 C284 1.574 1_565 S
C267 C286 1.351 1_655 S
C267 H291 0.949 . S
H268 C272 0.949 . S
C269 C270 1.332 1_655 S
C269 C271 1.327 . S
C269 H292 0.950 . S
C270 C269 1.332 1_455 S
C270 C282 1.366 . S
C271 C269 1.327 . S
C271 C287 1.413 1_655 S
C271 H293 0.950 . S
C272 H268 0.949 . S
C272 C280 1.574 1_545 S
C272 C288 1.386 . S
H273 C281 0.950 . S
H274 C279 0.950 . S
H275 C280 0.949 . S
H276 C282 0.950 . S
H277 C283 0.950 . S
H278 C284 0.949 . S
C279 H274 0.950 . S
C279 C281 1.327 . S
C279 C285 1.413 1_655 S
C280 C272 1.574 1_565 S
C280 H275 0.949 . S
C280 C286 1.386 1_554 S
C281 C265 1.332 1_655 S
C281 H273 0.950 . S
C281 C279 1.327 . S
C282 C270 1.366 . S
C282 H276 0.950 . S
C282 C283 1.327 . S
C283 H277 0.950 . S
C283 C282 1.327 . S
C283 C287 1.445 . S
C284 C267 1.574 1_545 S
C284 H278 0.949 . S
C284 C288 1.351 1_656 S
C285 C266 1.445 . S
C285 C279 1.413 1_455 S
C285 C286 1.523 . S
C286 C267 1.351 1_455 S
C286 C280 1.386 1_556 S
C286 C285 1.523 . S
C287 C271 1.413 1_455 S
C287 C283 1.445 . S
C287 C288 1.523 . S
C288 C272 1.386 . S
C288 C284 1.351 1_454 S
C288 C287 1.523 . S
H289 C264 0.950 . S
H290 C266 0.950 . S
H291 C267 0.949 . S
H292 C269 0.950 . S
H293 C271 0.950 . S
C294 C295 1.349 . S
C294 C296 1.327 . S
C294 H319 0.950 . S
C295 C294 1.349 . S
C295 C311 1.349 . S
C296 C294 1.327 . S
C296 C315 1.429 . S
C296 H320 0.950 . S
C297 C314 1.574 1_545 S
C297 C316 1.368 . S
C297 H321 0.949 . S
H298 C302 0.949 . S
C299 C300 1.349 . S
C299 C301 1.327 . S
C299 H322 0.950 . S
C300 C299 1.349 . S
C300 C312 1.349 . S
C301 C299 1.327 . S
C301 C317 1.429 . S
C301 H323 0.950 . S
C302 H298 0.949 . S
C302 C310 1.574 1_565 S
C302 C318 1.368 . S
H303 C311 0.950 . S
H304 C309 0.950 . S
H305 C310 0.949 . S
H306 C312 0.950 . S
H307 C313 0.950 . S
H308 C314 0.949 . S
C309 H304 0.950 . S
C309 C311 1.327 . S
C309 C315 1.429 . S
C310 C302 1.574 1_545 S
C310 H305 0.949 . S
C310 C316 1.368 . S
C311 C295 1.349 . S
C311 H303 0.950 . S
C311 C309 1.327 . S
C312 C300 1.349 . S
C312 H306 0.950 . S
C312 C313 1.327 . S
C313 H307 0.950 . S
C313 C312 1.327 . S
C313 C317 1.429 . S
C314 C297 1.574 1_565 S
C314 H308 0.949 . S
C314 C318 1.368 . S
C315 C296 1.429 . S
C315 C309 1.429 . S
C315 C316 1.523 . S
C316 C297 1.368 . S
C316 C310 1.368 . S
C316 C315 1.523 . S
C317 C301 1.429 . S
C317 C313 1.429 . S
C317 C318 1.523 . S
C318 C302 1.368 . S
C318 C314 1.368 . S
C318 C317 1.523 . S
H319 C294 0.950 . S
H320 C296 0.950 . S
H321 C297 0.949 . S
H322 C299 0.950 . S
H323 C301 0.950 . S
C324 C325 1.349 . S
C324 C326 1.327 . S
C324 H349 0.950 . S
C325 C324 1.349 . S
C325 C341 1.349 . S
C326 C324 1.327 . S
C326 C345 1.429 . S
C326 H350 0.950 1_554 S
C327 C344 1.574 . S
C327 C346 1.368 . S
C327 H351 0.949 . S
H328 C332 0.949 . S
C329 C330 1.349 . S
C329 C331 1.327 . S
C329 H352 0.950 . S
C330 C329 1.349 . S
C330 C342 1.349 . S
C331 C329 1.327 . S
C331 C347 1.429 . S
C331 H353 0.950 1_556 S
C332 H328 0.949 . S
C332 C340 1.574 . S
C332 C348 1.368 . S
H333 C341 0.950 . S
H334 C339 0.950 . S
H335 C340 0.949 . S
H336 C342 0.950 . S
H337 C343 0.950 . S
H338 C344 0.949 . S
C339 H334 0.950 . S
C339 C341 1.327 . S
C339 C345 1.429 . S
C340 C332 1.574 . S
C340 H335 0.949 . S
C340 C346 1.368 1_556 S
C341 C325 1.349 . S
C341 H333 0.950 . S
C341 C339 1.327 . S
C342 C330 1.349 . S
C342 H336 0.950 . S
C342 C343 1.327 . S
C343 H337 0.950 . S
C343 C342 1.327 . S
C343 C347 1.429 . S
C344 C327 1.574 . S
C344 H338 0.949 . S
C344 C348 1.368 1_554 S
C345 C326 1.429 . S
C345 C339 1.429 . S
C345 C346 1.523 . S
C346 C327 1.368 . S
C346 C340 1.368 1_554 S
C346 C345 1.523 . S
C347 C331 1.429 . S
C347 C343 1.429 . S
C347 C348 1.523 . S
C348 C332 1.368 . S
C348 C344 1.368 1_556 S
C348 C347 1.523 . S
H349 C324 0.950 . S
H350 C326 0.950 1_556 S
H351 C327 0.949 . S
H352 C329 0.950 . S
H353 C331 0.950 1_554 S
C354 C355 1.349 . S
C354 C356 1.327 . S
C354 H379 0.950 1_455 S
C355 C354 1.349 . S
C355 C371 1.349 . S
C356 C354 1.327 . S
C356 C375 1.429 . S
C356 H380 0.950 1_455 S
C357 C374 1.574 . S
C357 C376 1.368 . S
C357 H381 0.949 . S
H358 C362 0.949 1_655 S
C359 C360 1.349 . S
C359 C361 1.327 . S
C359 H382 0.950 . S
C360 C359 1.349 . S
C360 C372 1.349 . S
C361 C359 1.327 . S
C361 C377 1.429 . S
C361 H383 0.950 . S
C362 H358 0.949 1_455 S
C362 C370 1.574 . S
C362 C378 1.368 . S
H363 C371 0.950 . S
H364 C369 0.950 . S
H365 C370 0.949 1_655 S
H366 C372 0.950 1_655 S
H367 C373 0.950 1_655 S
H368 C374 0.949 . S
C369 H364 0.950 . S
C369 C371 1.327 . S
C369 C375 1.429 . S
C370 C362 1.574 . S
C370 H365 0.949 1_455 S
C370 C376 1.368 . S
C371 C355 1.349 . S
C371 H363 0.950 . S
C371 C369 1.327 . S
C372 C360 1.349 . S
C372 H366 0.950 1_455 S
C372 C373 1.327 . S
C373 H367 0.950 1_455 S
C373 C372 1.327 . S
C373 C377 1.429 . S
C374 C357 1.574 . S
C374 H368 0.949 . S
C374 C378 1.368 . S
C375 C356 1.429 . S
C375 C369 1.429 . S
C375 C376 1.523 . S
C376 C357 1.368 . S
C376 C370 1.368 . S
C376 C375 1.523 . S
C377 C361 1.429 . S
C377 C373 1.429 . S
C377 C378 1.523 . S
C378 C362 1.368 . S
C378 C374 1.368 . S
C378 C377 1.523 . S
H379 C354 0.950 1_655 S
H380 C356 0.950 1_655 S
H381 C357 0.949 . S
H382 C359 0.950 . S
H383 C361 0.950 . S
C384 C385 1.349 . S
C384 C386 1.327 . S
C384 H409 0.950 . S
C385 C384 1.349 . S
C385 C401 1.349 . S
C386 C384 1.327 . S
C386 C405 1.429 . S
C386 H410 0.950 . S
C387 C404 1.574 . S
C387 C406 1.368 . S
C387 H411 0.949 . S
H388 C392 0.949 . S
C389 C390 1.349 . S
C389 C391 1.327 . S
C389 H412 0.950 . S
C390 C389 1.349 . S
C390 C402 1.349 . S
C391 C389 1.327 . S
C391 C407 1.429 . S
C391 H413 0.950 . S
C392 H388 0.949 . S
C392 C400 1.574 . S
C392 C408 1.368 . S
H393 C401 0.950 . S
H394 C399 0.950 . S
H395 C400 0.949 . S
H396 C402 0.950 . S
H397 C403 0.950 . S
H398 C404 0.949 . S
C399 H394 0.950 . S
C399 C401 1.327 . S
C399 C405 1.429 . S
C400 C392 1.574 . S
C400 H395 0.949 . S
C400 C406 1.368 . S
C401 C385 1.349 . S
C401 H393 0.950 . S
C401 C399 1.327 . S
C402 C390 1.349 . S
C402 H396 0.950 . S
C402 C403 1.327 . S
C403 H397 0.950 . S
C403 C402 1.327 . S
C403 C407 1.429 . S
C404 C387 1.574 . S
C404 H398 0.949 . S
C404 C408 1.368 . S
C405 C386 1.429 . S
C405 C399 1.429 . S
C405 C406 1.523 . S
C406 C387 1.368 . S
C406 C400 1.368 . S
C406 C405 1.523 . S
C407 C391 1.429 . S
C407 C403 1.429 . S
C407 C408 1.523 . S
C408 C392 1.368 . S
C408 C404 1.368 . S
C408 C407 1.523 . S
H409 C384 0.950 . S
H410 C386 0.950 . S
H411 C387 0.949 . S
H412 C389 0.950 . S
H413 C391 0.950 . S
C414 C415 1.349 . S
C414 C416 1.327 . S
C414 H439 0.950 . S
C415 C414 1.349 . S
C415 C431 1.349 . S
C416 C414 1.327 . S
C416 C435 1.429 . S
C416 H440 0.950 . S
C417 C434 1.574 . S
C417 C436 1.368 . S
C417 H441 0.949 . S
H418 C422 0.949 . S
C419 C420 1.349 . S
C419 C421 1.327 . S
C419 H442 0.950 . S
C420 C419 1.349 . S
C420 C432 1.349 . S
C421 C419 1.327 . S
C421 C437 1.429 . S
C421 H443 0.950 . S
C422 H418 0.949 . S
C422 C430 1.574 . S
C422 C438 1.368 . S
H423 C431 0.950 . S
H424 C429 0.950 . S
H425 C430 0.949 . S
H426 C432 0.950 . S
H427 C433 0.950 . S
H428 C434 0.949 . S
C429 H424 0.950 . S
C429 C431 1.327 . S
C429 C435 1.429 . S
C430 C422 1.574 . S
C430 H425 0.949 . S
C430 C436 1.368 . S
C431 C415 1.349 . S
C431 H423 0.950 . S
C431 C429 1.327 . S
C432 C420 1.349 . S
C432 H426 0.950 . S
C432 C433 1.327 . S
C433 H427 0.950 . S
C433 C432 1.327 . S
C433 C437 1.429 . S
C434 C417 1.574 . S
C434 H428 0.949 . S
C434 C438 1.368 . S
C435 C416 1.429 . S
C435 C429 1.429 . S
C435 C436 1.523 . S
C436 C417 1.368 . S
C436 C430 1.368 . S
C436 C435 1.523 . S
C437 C421 1.429 . S
C437 C433 1.429 . S
C437 C438 1.523 . S
C438 C422 1.368 . S
C438 C434 1.368 . S
C438 C437 1.523 . S
H439 C414 0.950 . S
H440 C416 0.950 . S
H441 C417 0.949 . S
H442 C419 0.950 . S
H443 C421 0.950 . S
C444 C445 1.349 . S
C444 C446 1.327 . S
C444 H469 0.950 . S
C445 C444 1.349 . S
C445 C461 1.349 . S
C446 C444 1.327 . S
C446 C465 1.429 . S
C446 H470 0.950 . S
C447 C464 1.574 . S
C447 C466 1.368 . S
C447 H471 0.949 . S
H448 C452 0.949 . S
C449 C450 1.349 . S
C449 C451 1.327 . S
C449 H472 0.950 . S
C450 C449 1.349 . S
C450 C462 1.349 . S
C451 C449 1.327 . S
C451 C467 1.429 . S
C451 H473 0.950 . S
C452 H448 0.949 . S
C452 C460 1.574 . S
C452 C468 1.368 . S
H453 C461 0.950 . S
H454 C459 0.950 . S
H455 C460 0.949 . S
H456 C462 0.950 . S
H457 C463 0.950 . S
H458 C464 0.949 . S
C459 H454 0.950 . S
C459 C461 1.327 . S
C459 C465 1.429 . S
C460 C452 1.574 . S
C460 H455 0.949 . S
C460 C466 1.368 . S
C461 C445 1.349 . S
C461 H453 0.950 . S
C461 C459 1.327 . S
C462 C450 1.349 . S
C462 H456 0.950 . S
C462 C463 1.327 . S
C463 H457 0.950 . S
C463 C462 1.327 . S
C463 C467 1.429 . S
C464 C447 1.574 . S
C464 H458 0.949 . S
C464 C468 1.368 . S
C465 C446 1.429 . S
C465 C459 1.429 . S
C465 C466 1.523 . S
C466 C447 1.368 . S
C466 C460 1.368 . S
C466 C465 1.523 . S
C467 C451 1.429 . S
C467 C463 1.429 . S
C467 C468 1.523 . S
C468 C452 1.368 . S
C468 C464 1.368 . S
C468 C467 1.523 . S
H469 C444 0.950 . S
H470 C446 0.950 . S
H471 C447 0.949 . S
H472 C449 0.950 . S
H473 C451 0.950 . S
C474 C475 1.349 . S
C474 C476 1.327 . S
C474 H499 0.950 . S
C475 C474 1.349 . S
C475 C491 1.349 . S
C476 C474 1.327 . S
C476 C495 1.429 . S
C476 H500 0.950 . S
C477 C494 1.574 . S
C477 C496 1.368 . S
C477 H501 0.949 . S
H478 C482 0.949 . S
C479 C480 1.349 . S
C479 C481 1.327 . S
C479 H502 0.950 . S
C480 C479 1.349 . S
C480 C492 1.349 . S
C481 C479 1.327 . S
C481 C497 1.429 . S
C481 H503 0.950 . S
C482 H478 0.949 . S
C482 C490 1.574 . S
C482 C498 1.368 . S
H483 C491 0.950 . S
H484 C489 0.950 . S
H485 C490 0.949 . S
H486 C492 0.950 . S
H487 C493 0.950 . S
H488 C494 0.949 . S
C489 H484 0.950 . S
C489 C491 1.327 . S
C489 C495 1.429 . S
C490 C482 1.574 . S
C490 H485 0.949 . S
C490 C496 1.368 . S
C491 C475 1.349 . S
C491 H483 0.950 . S
C491 C489 1.327 . S
C492 C480 1.349 . S
C492 H486 0.950 . S
C492 C493 1.327 . S
C493 H487 0.950 . S
C493 C492 1.327 . S
C493 C497 1.429 . S
C494 C477 1.574 . S
C494 H488 0.949 . S
C494 C498 1.368 . S
C495 C476 1.429 . S
C495 C489 1.429 . S
C495 C496 1.523 . S
C496 C477 1.368 . S
C496 C490 1.368 . S
C496 C495 1.523 . S
C497 C481 1.429 . S
C497 C493 1.429 . S
C497 C498 1.523 . S
C498 C482 1.368 . S
C498 C494 1.368 . S
C498 C497 1.523 . S
H499 C474 0.950 . S
H500 C476 0.950 . S
H501 C477 0.949 . S
H502 C479 0.950 . S
H503 C481 0.950 . S
C504 C505 1.349 . S
C504 C506 1.327 . S
C504 H529 0.950 . S
C505 C504 1.349 . S
C505 C521 1.349 . S
C506 C504 1.327 . S
C506 C525 1.429 . S
C506 H530 0.950 . S
C507 C524 1.574 . S
C507 C526 1.368 . S
C507 H531 0.949 . S
H508 C512 0.949 . S
C509 C510 1.349 . S
C509 C511 1.327 . S
C509 H532 0.950 . S
C510 C509 1.349 . S
C510 C522 1.349 . S
C511 C509 1.327 . S
C511 C527 1.429 . S
C511 H533 0.950 . S
C512 H508 0.949 . S
C512 C520 1.574 . S
C512 C528 1.368 . S
H513 C521 0.950 . S
H514 C519 0.950 . S
H515 C520 0.949 . S
H516 C522 0.950 . S
H517 C523 0.950 . S
H518 C524 0.949 . S
C519 H514 0.950 . S
C519 C521 1.327 . S
C519 C525 1.429 . S
C520 C512 1.574 . S
C520 H515 0.949 . S
C520 C526 1.368 . S
C521 C505 1.349 . S
C521 H513 0.950 . S
C521 C519 1.327 . S
C522 C510 1.349 . S
C522 H516 0.950 . S
C522 C523 1.327 . S
C523 H517 0.950 . S
C523 C522 1.327 . S
C523 C527 1.429 . S
C524 C507 1.574 . S
C524 H518 0.949 . S
C524 C528 1.368 . S
C525 C506 1.429 . S
C525 C519 1.429 . S
C525 C526 1.523 . S
C526 C507 1.368 . S
C526 C520 1.368 . S
C526 C525 1.523 . S
C527 C511 1.429 . S
C527 C523 1.429 . S
C527 C528 1.523 . S
C528 C512 1.368 . S
C528 C524 1.368 . S
C528 C527 1.523 . S
H529 C504 0.950 . S
H530 C506 0.950 . S
H531 C507 0.949 . S
H532 C509 0.950 . S
H533 C511 0.950 . S
C534 C535 1.349 . S
C534 C536 1.327 . S
C534 H559 0.950 . S
C535 C534 1.349 . S
C535 C551 1.349 . S
C536 C534 1.327 . S
C536 C555 1.429 . S
C536 H560 0.950 . S
C537 C554 1.574 . S
C537 C556 1.368 . S
C537 H561 0.949 . S
H538 C542 0.949 . S
C539 C540 1.349 . S
C539 C541 1.327 . S
C539 H562 0.950 . S
C540 C539 1.349 . S
C540 C552 1.349 . S
C541 C539 1.327 . S
C541 C557 1.429 . S
C541 H563 0.950 . S
C542 H538 0.949 . S
C542 C550 1.574 . S
C542 C558 1.368 . S
H543 C551 0.950 . S
H544 C549 0.950 . S
H545 C550 0.949 . S
H546 C552 0.950 . S
H547 C553 0.950 . S
H548 C554 0.949 . S
C549 H544 0.950 . S
C549 C551 1.327 . S
C549 C555 1.429 . S
C550 C542 1.574 . S
C550 H545 0.949 . S
C550 C556 1.368 . S
C551 C535 1.349 . S
C551 H543 0.950 . S
C551 C549 1.327 . S
C552 C540 1.349 . S
C552 H546 0.950 . S
C552 C553 1.327 . S
C553 H547 0.950 . S
C553 C552 1.327 . S
C553 C557 1.429 . S
C554 C537 1.574 . S
C554 H548 0.949 . S
C554 C558 1.368 . S
C555 C536 1.429 . S
C555 C549 1.429 . S
C555 C556 1.523 . S
C556 C537 1.368 . S
C556 C550 1.368 . S
C556 C555 1.523 . S
C557 C541 1.429 . S
C557 C553 1.429 . S
C557 C558 1.523 . S
C558 C542 1.368 . S
C558 C554 1.368 . S
C558 C557 1.523 . S
H559 C534 0.950 . S
H560 C536 0.950 . S
H561 C537 0.949 . S
H562 C539 0.950 . S
H563 C541 0.950 . S
C564 C565 1.349 . S
C564 C566 1.327 . S
C564 H589 0.950 . S
C565 C564 1.349 . S
C565 C581 1.349 . S
C566 C564 1.327 . S
C566 C585 1.429 . S
C566 H590 0.950 . S
C567 C584 1.574 . S
C567 C586 1.368 . S
C567 H591 0.949 . S
H568 C572 0.949 . S
C569 C570 1.349 . S
C569 C571 1.327 . S
C569 H592 0.950 . S
C570 C569 1.349 . S
C570 C582 1.349 . S
C571 C569 1.327 . S
C571 C587 1.429 . S
C571 H593 0.950 . S
C572 H568 0.949 . S
C572 C580 1.574 . S
C572 C588 1.368 . S
H573 C581 0.950 . S
H574 C579 0.950 . S
H575 C580 0.949 . S
H576 C582 0.950 . S
H577 C583 0.950 . S
H578 C584 0.949 . S
C579 H574 0.950 . S
C579 C581 1.327 . S
C579 C585 1.429 . S
C580 C572 1.574 . S
C580 H575 0.949 . S
C580 C586 1.368 . S
C581 C565 1.349 . S
C581 H573 0.950 . S
C581 C579 1.327 . S
C582 C570 1.349 . S
C582 H576 0.950 . S
C582 C583 1.327 . S
C583 H577 0.950 . S
C583 C582 1.327 . S
C583 C587 1.429 . S
C584 C567 1.574 . S
C584 H578 0.949 . S
C584 C588 1.368 . S
C585 C566 1.429 . S
C585 C579 1.429 . S
C585 C586 1.523 . S
C586 C567 1.368 . S
C586 C580 1.368 . S
C586 C585 1.523 . S
C587 C571 1.429 . S
C587 C583 1.429 . S
C587 C588 1.523 . S
C588 C572 1.368 . S
C588 C584 1.368 . S
C588 C587 1.523 . S
H589 C564 0.950 . S
H590 C566 0.950 . S
H591 C567 0.949 . S
H592 C569 0.950 . S
H593 C571 0.950 . S
C594 C595 1.349 . S
C594 C596 1.327 . S
C594 H619 0.950 . S
C595 C594 1.349 . S
C595 C611 1.349 . S
C596 C594 1.327 . S
C596 C615 1.429 . S
C596 H620 0.950 . S
C597 C614 1.574 . S
C597 C616 1.368 . S
C597 H621 0.949 . S
H598 C602 0.949 . S
C599 C600 1.349 . S
C599 C601 1.327 . S
C599 H622 0.950 . S
C600 C599 1.349 . S
C600 C612 1.349 . S
C601 C599 1.327 . S
C601 C617 1.429 . S
C601 H623 0.950 . S
C602 H598 0.949 . S
C602 C610 1.574 . S
C602 C618 1.368 . S
H603 C611 0.950 . S
H604 C609 0.950 . S
H605 C610 0.949 . S
H606 C612 0.950 . S
H607 C613 0.950 . S
H608 C614 0.949 . S
C609 H604 0.950 . S
C609 C611 1.327 . S
C609 C615 1.429 . S
C610 C602 1.574 . S
C610 H605 0.949 . S
C610 C616 1.368 . S
C611 C595 1.349 . S
C611 H603 0.950 . S
C611 C609 1.327 . S
C612 C600 1.349 . S
C612 H606 0.950 . S
C612 C613 1.327 . S
C613 H607 0.950 . S
C613 C612 1.327 . S
C613 C617 1.429 . S
C614 C597 1.574 . S
C614 H608 0.949 . S
C614 C618 1.368 . S
C615 C596 1.429 . S
C615 C609 1.429 . S
C615 C616 1.523 . S
C616 C597 1.368 . S
C616 C610 1.368 . S
C616 C615 1.523 . S
C617 C601 1.429 . S
C617 C613 1.429 . S
C617 C618 1.523 . S
C618 C602 1.368 . S
C618 C614 1.368 . S
C618 C617 1.523 . S
H619 C594 0.950 . S
H620 C596 0.950 . S
H621 C597 0.949 . S
H622 C599 0.950 . S
H623 C601 0.950 . S
C624 C625 1.349 1_655 S
C624 C626 1.327 . S
C624 H649 0.950 . S
C625 C624 1.349 1_455 S
C625 C641 1.349 . S
C626 C624 1.327 . S
C626 C645 1.429 1_655 S
C626 H650 0.950 . S
C627 C644 1.574 . S
C627 C646 1.368 . S
C627 H651 0.949 . S
H628 C632 0.949 . S
C629 C630 1.349 . S
C629 C631 1.327 1_554 S
C629 H652 0.950 . S
C630 C629 1.349 . S
C630 C642 1.349 1_454 S
C631 C629 1.327 1_556 S
C631 C647 1.429 . S
C631 H653 0.950 . S
C632 H628 0.949 . S
C632 C640 1.574 . S
C632 C648 1.368 1_655 S
H633 C641 0.950 . S
H634 C639 0.950 . S
H635 C640 0.949 . S
H636 C642 0.950 . S
H637 C643 0.950 . S
H638 C644 0.949 . S
C639 H634 0.950 . S
C639 C641 1.327 . S
C639 C645 1.429 . S
C640 C632 1.574 . S
C640 H635 0.949 . S
C640 C646 1.368 1_655 S
C641 C625 1.349 . S
C641 H633 0.950 . S
C641 C639 1.327 . S
C642 C630 1.349 1_656 S
C642 H636 0.950 . S
C642 C643 1.327 . S
C643 H637 0.950 . S
C643 C642 1.327 . S
C643 C647 1.429 1_655 S
C644 C627 1.574 . S
C644 H638 0.949 . S
C644 C648 1.368 . S
C645 C626 1.429 1_455 S
C645 C639 1.429 . S
C645 C646 1.523 . S
C646 C627 1.368 . S
C646 C640 1.368 1_455 S
C646 C645 1.523 . S
C647 C631 1.429 . S
C647 C643 1.429 1_455 S
C647 C648 1.523 . S
C648 C632 1.368 1_455 S
C648 C644 1.368 . S
C648 C647 1.523 . S
H649 C624 0.950 . S
H650 C626 0.950 . S
H651 C627 0.949 . S
H652 C629 0.950 . S
H653 C631 0.950 . S
C654 C655 1.349 . S
C654 C656 1.327 . S
C654 H679 0.950 . S
C655 C654 1.349 . S
C655 C671 1.349 . S
C656 C654 1.327 . S
C656 C675 1.429 . S
C656 H680 0.950 . S
C657 C674 1.574 . S
C657 C676 1.368 . S
C657 H681 0.949 . S
H658 C662 0.949 . S
C659 C660 1.349 . S
C659 C661 1.327 . S
C659 H682 0.950 . S
C660 C659 1.349 . S
C660 C672 1.349 . S
C661 C659 1.327 . S
C661 C677 1.429 . S
C661 H683 0.950 . S
C662 H658 0.949 . S
C662 C670 1.574 . S
C662 C678 1.368 . S
H663 C671 0.950 . S
H664 C669 0.950 . S
H665 C670 0.949 . S
H666 C672 0.950 . S
H667 C673 0.950 . S
H668 C674 0.949 . S
C669 H664 0.950 . S
C669 C671 1.327 . S
C669 C675 1.429 . S
C670 C662 1.574 . S
C670 H665 0.949 . S
C670 C676 1.368 . S
C671 C655 1.349 . S
C671 H663 0.950 . S
C671 C669 1.327 . S
C672 C660 1.349 . S
C672 H666 0.950 . S
C672 C673 1.327 . S
C673 H667 0.950 . S
C673 C672 1.327 . S
C673 C677 1.429 . S
C674 C657 1.574 . S
C674 H668 0.949 . S
C674 C678 1.368 . S
C675 C656 1.429 . S
C675 C669 1.429 . S
C675 C676 1.523 . S
C676 C657 1.368 . S
C676 C670 1.368 . S
C676 C675 1.523 . S
C677 C661 1.429 . S
C677 C673 1.429 . S
C677 C678 1.523 . S
C678 C662 1.368 . S
C678 C674 1.368 . S
C678 C677 1.523 . S
H679 C654 0.950 . S
H680 C656 0.950 . S
H681 C657 0.949 . S
H682 C659 0.950 . S
H683 C661 0.950 . S
C684 C685 1.349 1_654 S
C684 C686 1.327 . S
C684 H709 0.950 . S
C685 C684 1.349 1_456 S
C685 C701 1.349 . S
C686 C684 1.327 . S
C686 C705 1.429 1_655 S
C686 H710 0.950 . S
C687 C704 1.574 . S
C687 C706 1.368 . S
C687 H711 0.949 . S
H688 C692 0.949 . S
C689 C690 1.349 . S
C689 C691 1.327 . S
C689 H712 0.950 . S
C690 C689 1.349 . S
C690 C702 1.349 1_455 S
C691 C689 1.327 . S
C691 C707 1.429 . S
C691 H713 0.950 . S
C692 H688 0.949 . S
C692 C700 1.574 . S
C692 C708 1.368 1_655 S
H693 C701 0.950 . S
H694 C699 0.950 . S
H695 C700 0.949 . S
H696 C702 0.950 . S
H697 C703 0.950 . S
H698 C704 0.949 . S
C699 H694 0.950 . S
C699 C701 1.327 1_554 S
C699 C705 1.429 . S
C700 C692 1.574 . S
C700 H695 0.949 . S
C700 C706 1.368 1_655 S
C701 C685 1.349 . S
C701 H693 0.950 . S
C701 C699 1.327 1_556 S
C702 C690 1.349 1_655 S
C702 H696 0.950 . S
C702 C703 1.327 . S
C703 H697 0.950 . S
C703 C702 1.327 . S
C703 C707 1.429 1_655 S
C704 C687 1.574 . S
C704 H698 0.949 . S
C704 C708 1.368 . S
C705 C686 1.429 1_455 S
C705 C699 1.429 . S
C705 C706 1.523 . S
C706 C687 1.368 . S
C706 C700 1.368 1_455 S
C706 C705 1.523 . S
C707 C691 1.429 . S
C707 C703 1.429 1_455 S
C707 C708 1.523 . S
C708 C692 1.368 1_455 S
C708 C704 1.368 . S
C708 C707 1.523 . S
H709 C684 0.950 . S
H710 C686 0.950 . S
H711 C687 0.949 . S
H712 C689 0.950 . S
H713 C691 0.950 . S
C714 C715 1.349 . S
C714 C716 1.327 . S
C714 H739 0.950 . S
C715 C714 1.349 . S
C715 C731 1.349 . S
C716 C714 1.327 . S
C716 C735 1.429 . S
C716 H740 0.950 . S
C717 C734 1.574 . S
C717 C736 1.368 . S
C717 H741 0.949 . S
H718 C722 0.949 . S
C719 C720 1.349 . S
C719 C721 1.327 . S
C719 H742 0.950 . S
C720 C719 1.349 . S
C720 C732 1.349 . S
C721 C719 1.327 . S
C721 C737 1.429 . S
C721 H743 0.950 . S
C722 H718 0.949 . S
C722 C730 1.574 . S
C722 C738 1.368 . S
H723 C731 0.950 . S
H724 C729 0.950 . S
H725 C730 0.949 . S
H726 C732 0.950 . S
H727 C733 0.950 . S
H728 C734 0.949 . S
C729 H724 0.950 . S
C729 C731 1.327 . S
C729 C735 1.429 . S
C730 C722 1.574 . S
C730 H725 0.949 . S
C730 C736 1.368 . S
C731 C715 1.349 . S
C731 H723 0.950 . S
C731 C729 1.327 . S
C732 C720 1.349 . S
C732 H726 0.950 . S
C732 C733 1.327 . S
C733 H727 0.950 . S
C733 C732 1.327 . S
C733 C737 1.429 . S
C734 C717 1.574 . S
C734 H728 0.949 . S
C734 C738 1.368 . S
C735 C716 1.429 . S
C735 C729 1.429 . S
C735 C736 1.523 . S
C736 C717 1.368 . S
C736 C730 1.368 . S
C736 C735 1.523 . S
C737 C721 1.429 . S
C737 C733 1.429 . S
C737 C738 1.523 . S
C738 C722 1.368 . S
C738 C734 1.368 . S
C738 C737 1.523 . S
H739 C714 0.950 . S
H740 C716 0.950 . S
H741 C717 0.949 . S
H742 C719 0.950 . S
H743 C721 0.950 . S
C744 C745 1.349 . S
C744 C746 1.327 . S
C744 H769 0.950 . S
C745 C744 1.349 . S
C745 C761 1.349 . S
C746 C744 1.327 . S
C746 C765 1.429 . S
C746 H770 0.950 . S
C747 C764 1.574 . S
C747 C766 1.368 . S
C747 H771 0.949 . S
H748 C752 0.949 . S
C749 C750 1.349 . S
C749 C751 1.327 1_554 S
C749 H772 0.950 . S
C750 C749 1.349 . S
C750 C762 1.349 1_554 S
C751 C749 1.327 1_556 S
C751 C767 1.429 . S
C751 H773 0.950 . S
C752 H748 0.949 . S
C752 C760 1.574 . S
C752 C768 1.368 . S
H753 C761 0.950 . S
H754 C759 0.950 . S
H755 C760 0.949 . S
H756 C762 0.950 . S
H757 C763 0.950 . S
H758 C764 0.949 . S
C759 H754 0.950 . S
C759 C761 1.327 . S
C759 C765 1.429 . S
C760 C752 1.574 . S
C760 H755 0.949 . S
C760 C766 1.368 . S
C761 C745 1.349 . S
C761 H753 0.950 . S
C761 C759 1.327 . S
C762 C750 1.349 1_556 S
C762 H756 0.950 . S
C762 C763 1.327 . S
C763 H757 0.950 . S
C763 C762 1.327 . S
C763 C767 1.429 . S
C764 C747 1.574 . S
C764 H758 0.949 . S
C764 C768 1.368 . S
C765 C746 1.429 . S
C765 C759 1.429 . S
C765 C766 1.523 . S
C766 C747 1.368 . S
C766 C760 1.368 . S
C766 C765 1.523 . S
C767 C751 1.429 . S
C767 C763 1.429 . S
C767 C768 1.523 . S
C768 C752 1.368 . S
C768 C764 1.368 . S
C768 C767 1.523 . S
H769 C744 0.950 . S
H770 C746 0.950 . S
H771 C747 0.949 . S
H772 C749 0.950 . S
H773 C751 0.950 . S
C774 C775 1.349 . S
C774 C776 1.327 . S
C774 H799 0.950 . S
C775 C774 1.349 . S
C775 C791 1.349 . S
C776 C774 1.327 . S
C776 C795 1.429 . S
C776 H800 0.950 . S
C777 C794 1.574 . S
C777 C796 1.368 . S
C777 H801 0.949 1_455 S
H778 C782 0.949 . S
C779 C780 1.349 . S
C779 C781 1.327 . S
C779 H802 0.950 1_455 S
C780 C779 1.349 . S
C780 C792 1.349 . S
C781 C779 1.327 . S
C781 C797 1.429 . S
C781 H803 0.950 1_455 S
C782 H778 0.949 . S
C782 C790 1.574 . S
C782 C798 1.368 . S
H783 C791 0.950 1_655 S
H784 C789 0.950 1_655 S
H785 C790 0.949 . S
H786 C792 0.950 . S
H787 C793 0.950 . S
H788 C794 0.949 1_655 S
C789 H784 0.950 1_455 S
C789 C791 1.327 . S
C789 C795 1.429 . S
C790 C782 1.574 . S
C790 H785 0.949 . S
C790 C796 1.368 . S
C791 C775 1.349 . S
C791 H783 0.950 1_455 S
C791 C789 1.327 . S
C792 C780 1.349 . S
C792 H786 0.950 . S
C792 C793 1.327 . S
C793 H787 0.950 . S
C793 C792 1.327 . S
C793 C797 1.429 . S
C794 C777 1.574 . S
C794 H788 0.949 1_455 S
C794 C798 1.368 . S
C795 C776 1.429 . S
C795 C789 1.429 . S
C795 C796 1.523 . S
C796 C777 1.368 . S
C796 C790 1.368 . S
C796 C795 1.523 . S
C797 C781 1.429 . S
C797 C793 1.429 . S
C797 C798 1.523 . S
C798 C782 1.368 . S
C798 C794 1.368 . S
C798 C797 1.523 . S
H799 C774 0.950 . S
H800 C776 0.950 . S
H801 C777 0.949 1_655 S
H802 C779 0.950 1_655 S
H803 C781 0.950 1_655 S
C804 C805 1.349 1_554 S
C804 C806 1.327 . S
C804 H829 0.950 . S
C805 C804 1.349 1_556 S
C805 C821 1.349 . S
C806 C804 1.327 . S
C806 C825 1.429 . S
C806 H830 0.950 . S
C807 C824 1.574 . S
C807 C826 1.368 . S
C807 H831 0.949 . S
H808 C812 0.949 . S
C809 C810 1.349 . S
C809 C811 1.327 . S
C809 H832 0.950 . S
C810 C809 1.349 . S
C810 C822 1.349 . S
C811 C809 1.327 . S
C811 C827 1.429 . S
C811 H833 0.950 . S
C812 H808 0.949 . S
C812 C820 1.574 . S
C812 C828 1.368 . S
H813 C821 0.950 . S
H814 C819 0.950 . S
H815 C820 0.949 . S
H816 C822 0.950 . S
H817 C823 0.950 . S
H818 C824 0.949 . S
C819 H814 0.950 . S
C819 C821 1.327 1_554 S
C819 C825 1.429 . S
C820 C812 1.574 . S
C820 H815 0.949 . S
C820 C826 1.368 . S
C821 C805 1.349 . S
C821 H813 0.950 . S
C821 C819 1.327 1_556 S
C822 C810 1.349 . S
C822 H816 0.950 . S
C822 C823 1.327 . S
C823 H817 0.950 . S
C823 C822 1.327 . S
C823 C827 1.429 . S
C824 C807 1.574 . S
C824 H818 0.949 . S
C824 C828 1.368 . S
C825 C806 1.429 . S
C825 C819 1.429 . S
C825 C826 1.523 . S
C826 C807 1.368 . S
C826 C820 1.368 . S
C826 C825 1.523 . S
C827 C811 1.429 . S
C827 C823 1.429 . S
C827 C828 1.523 . S
C828 C812 1.368 . S
C828 C824 1.368 . S
C828 C827 1.523 . S
H829 C804 0.950 . S
H830 C806 0.950 . S
H831 C807 0.949 . S
H832 C809 0.950 . S
H833 C811 0.950 . S
C834 C835 1.349 . S
C834 C836 1.327 . S
C834 H859 0.950 1_455 S
C835 C834 1.349 . S
C835 C851 1.349 . S
C836 C834 1.327 . S
C836 C855 1.429 . S
C836 H860 0.950 1_455 S
C837 C854 1.574 . S
C837 C856 1.368 . S
C837 H861 0.949 . S
H838 C842 0.949 1_655 S
C839 C840 1.349 . S
C839 C841 1.327 . S
C839 H862 0.950 . S
C840 C839 1.349 . S
C840 C852 1.349 . S
C841 C839 1.327 . S
C841 C857 1.429 . S
C841 H863 0.950 . S
C842 H838 0.949 1_455 S
C842 C850 1.574 . S
C842 C858 1.368 . S
H843 C851 0.950 . S
H844 C849 0.950 . S
H845 C850 0.949 1_655 S
H846 C852 0.950 1_655 S
H847 C853 0.950 1_655 S
H848 C854 0.949 . S
C849 H844 0.950 . S
C849 C851 1.327 . S
C849 C855 1.429 . S
C850 C842 1.574 . S
C850 H845 0.949 1_455 S
C850 C856 1.368 . S
C851 C835 1.349 . S
C851 H843 0.950 . S
C851 C849 1.327 . S
C852 C840 1.349 . S
C852 H846 0.950 1_455 S
C852 C853 1.327 . S
C853 H847 0.950 1_455 S
C853 C852 1.327 . S
C853 C857 1.429 . S
C854 C837 1.574 . S
C854 H848 0.949 . S
C854 C858 1.368 . S
C855 C836 1.429 . S
C855 C849 1.429 . S
C855 C856 1.523 . S
C856 C837 1.368 . S
C856 C850 1.368 . S
C856 C855 1.523 . S
C857 C841 1.429 . S
C857 C853 1.429 . S
C857 C858 1.523 . S
C858 C842 1.368 . S
C858 C854 1.368 . S
C858 C857 1.523 . S
H859 C834 0.950 1_655 S
H860 C836 0.950 1_655 S
H861 C837 0.949 . S
H862 C839 0.950 . S
H863 C841 0.950 . S
C265 N68 1.381 . S
C270 N2 1.381 . S
C295 N101 1.373 . S
C300 N35 1.373 . S
C325 N134 1.373 . S
C330 N200 1.373 . S
C355 N167 1.373 . S
C360 N233 1.373 . S
C385 C117 1.435 . S
C390 C18 1.435 . S
C415 C51 1.435 . S
C420 C84 1.435 . S
C445 C73 1.115 . S
C450 C40 1.115 . S
C475 C106 1.115 . S
C480 C7 1.115 . S
C505 C249 1.436 . S
C510 C150 1.436 . S
C535 C183 1.436 . S
C540 C216 1.436 . S
C565 C205 1.115 . S
C570 C172 1.115 . S
C595 C238 1.115 . S
C600 C139 1.115 . S
C625 N178 1.513 . S
C630 C21 1.565 . S
C655 C54 1.566 . S
C660 N145 1.513 . S
C685 C87 1.565 . S
C690 N244 1.513 . S
C715 N211 1.513 . S
C720 C120 1.566 . S
C745 N46 1.513 . S
C750 C153 1.565 . S
C775 C186 1.565 . S
C780 N13 1.513 . S
C805 C219 1.565 . S
C810 N112 1.513 . S
C835 C252 1.566 . S
C840 N79 1.513 . S
