# Generated by pormake.
# Topology fci, (5)-cn, num edge types: 1
# Building blocks:
#     Node 0, Type 0, BuildingBlock: BEQFEK_clean_sbu_0, # of connection points: 5
#     Node 1, Type 0, BuildingBlock: BEQFEK_clean_sbu_0, # of connection points: 5
#     Node 2, Type 0, BuildingBlock: BEQFEK_clean_sbu_0, # of connection points: 5
#     Node 3, Type 0, BuildingBlock: BEQFEK_clean_sbu_0, # of connection points: 5
#     Node 4, Type 0, BuildingBlock: BEQFEK_clean_sbu_0, # of connection points: 5
#     Node 5, Type 0, BuildingBlock: BEQFEK_clean_sbu_0, # of connection points: 5
#     Node 6, Type 0, BuildingBlock: BEQFEK_clean_sbu_0, # of connection points: 5
#     Node 7, Type 0, BuildingBlock: BEQFEK_clean_sbu_0, # of connection points: 5
#     Node 8, Type 0, BuildingBlock: BEQFEK_clean_sbu_0, # of connection points: 5
#     Node 9, Type 0, BuildingBlock: BEQFEK_clean_sbu_0, # of connection points: 5
#     Node 10, Type 0, BuildingBlock: BEQFEK_clean_sbu_0, # of connection points: 5
#     Node 11, Type 0, BuildingBlock: BEQFEK_clean_sbu_0, # of connection points: 5
#     Node 12, Type 0, BuildingBlock: BEQFEK_clean_sbu_0, # of connection points: 5
#     Node 13, Type 0, BuildingBlock: BEQFEK_clean_sbu_0, # of connection points: 5
#     Node 14, Type 0, BuildingBlock: BEQFEK_clean_sbu_0, # of connection points: 5
#     Node 15, Type 0, BuildingBlock: BEQFEK_clean_sbu_0, # of connection points: 5
#     Node 16, Type 0, BuildingBlock: BEQFEK_clean_sbu_0, # of connection points: 5
#     Node 17, Type 0, BuildingBlock: BEQFEK_clean_sbu_0, # of connection points: 5
#     Node 18, Type 0, BuildingBlock: BEQFEK_clean_sbu_0, # of connection points: 5
#     Node 19, Type 0, BuildingBlock: BEQFEK_clean_sbu_0, # of connection points: 5
#     Node 20, Type 0, BuildingBlock: BEQFEK_clean_sbu_0, # of connection points: 5
#     Node 21, Type 0, BuildingBlock: BEQFEK_clean_sbu_0, # of connection points: 5
#     Node 22, Type 0, BuildingBlock: BEQFEK_clean_sbu_0, # of connection points: 5
#     Node 23, Type 0, BuildingBlock: BEQFEK_clean_sbu_0, # of connection points: 5
#     Edge 24, Type (0, 0), BuildingBlock: KIFKEQ_clean_linker_1, # of connection points: 2
#     Edge 25, Type (0, 0), BuildingBlock: KIFKEQ_clean_linker_1, # of connection points: 2
#     Edge 26, Type (0, 0), BuildingBlock: KIFKEQ_clean_linker_1, # of connection points: 2
#     Edge 27, Type (0, 0), BuildingBlock: KIFKEQ_clean_linker_1, # of connection points: 2
#     Edge 28, Type (0, 0), BuildingBlock: KIFKEQ_clean_linker_1, # of connection points: 2
#     Edge 29, Type (0, 0), BuildingBlock: KIFKEQ_clean_linker_1, # of connection points: 2
#     Edge 30, Type (0, 0), BuildingBlock: KIFKEQ_clean_linker_1, # of connection points: 2
#     Edge 31, Type (0, 0), BuildingBlock: KIFKEQ_clean_linker_1, # of connection points: 2
#     Edge 32, Type (0, 0), BuildingBlock: KIFKEQ_clean_linker_1, # of connection points: 2
#     Edge 33, Type (0, 0), BuildingBlock: KIFKEQ_clean_linker_1, # of connection points: 2
#     Edge 34, Type (0, 0), BuildingBlock: KIFKEQ_clean_linker_1, # of connection points: 2
#     Edge 35, Type (0, 0), BuildingBlock: KIFKEQ_clean_linker_1, # of connection points: 2
#     Edge 36, Type (0, 0), BuildingBlock: KIFKEQ_clean_linker_1, # of connection points: 2
#     Edge 37, Type (0, 0), BuildingBlock: KIFKEQ_clean_linker_1, # of connection points: 2
#     Edge 38, Type (0, 0), BuildingBlock: KIFKEQ_clean_linker_1, # of connection points: 2
#     Edge 39, Type (0, 0), BuildingBlock: KIFKEQ_clean_linker_1, # of connection points: 2
#     Edge 40, Type (0, 0), BuildingBlock: KIFKEQ_clean_linker_1, # of connection points: 2
#     Edge 41, Type (0, 0), BuildingBlock: KIFKEQ_clean_linker_1, # of connection points: 2
#     Edge 42, Type (0, 0), BuildingBlock: KIFKEQ_clean_linker_1, # of connection points: 2
#     Edge 43, Type (0, 0), BuildingBlock: KIFKEQ_clean_linker_1, # of connection points: 2
#     Edge 44, Type (0, 0), BuildingBlock: KIFKEQ_clean_linker_1, # of connection points: 2
#     Edge 45, Type (0, 0), BuildingBlock: KIFKEQ_clean_linker_1, # of connection points: 2
#     Edge 46, Type (0, 0), BuildingBlock: KIFKEQ_clean_linker_1, # of connection points: 2
#     Edge 47, Type (0, 0), BuildingBlock: KIFKEQ_clean_linker_1, # of connection points: 2
#     Edge 48, Type (0, 0), BuildingBlock: KIFKEQ_clean_linker_1, # of connection points: 2
#     Edge 49, Type (0, 0), BuildingBlock: KIFKEQ_clean_linker_1, # of connection points: 2
#     Edge 50, Type (0, 0), BuildingBlock: KIFKEQ_clean_linker_1, # of connection points: 2
#     Edge 51, Type (0, 0), BuildingBlock: KIFKEQ_clean_linker_1, # of connection points: 2
#     Edge 52, Type (0, 0), BuildingBlock: KIFKEQ_clean_linker_1, # of connection points: 2
#     Edge 53, Type (0, 0), BuildingBlock: KIFKEQ_clean_linker_1, # of connection points: 2
#     Edge 54, Type (0, 0), BuildingBlock: KIFKEQ_clean_linker_1, # of connection points: 2
#     Edge 55, Type (0, 0), BuildingBlock: KIFKEQ_clean_linker_1, # of connection points: 2
#     Edge 56, Type (0, 0), BuildingBlock: KIFKEQ_clean_linker_1, # of connection points: 2
#     Edge 57, Type (0, 0), BuildingBlock: KIFKEQ_clean_linker_1, # of connection points: 2
#     Edge 58, Type (0, 0), BuildingBlock: KIFKEQ_clean_linker_1, # of connection points: 2
#     Edge 59, Type (0, 0), BuildingBlock: KIFKEQ_clean_linker_1, # of connection points: 2
#     Edge 60, Type (0, 0), BuildingBlock: KIFKEQ_clean_linker_1, # of connection points: 2
#     Edge 61, Type (0, 0), BuildingBlock: KIFKEQ_clean_linker_1, # of connection points: 2
#     Edge 62, Type (0, 0), BuildingBlock: KIFKEQ_clean_linker_1, # of connection points: 2
#     Edge 63, Type (0, 0), BuildingBlock: KIFKEQ_clean_linker_1, # of connection points: 2
#     Edge 64, Type (0, 0), BuildingBlock: KIFKEQ_clean_linker_1, # of connection points: 2
#     Edge 65, Type (0, 0), BuildingBlock: KIFKEQ_clean_linker_1, # of connection points: 2
#     Edge 66, Type (0, 0), BuildingBlock: KIFKEQ_clean_linker_1, # of connection points: 2
#     Edge 67, Type (0, 0), BuildingBlock: KIFKEQ_clean_linker_1, # of connection points: 2
#     Edge 68, Type (0, 0), BuildingBlock: KIFKEQ_clean_linker_1, # of connection points: 2
#     Edge 69, Type (0, 0), BuildingBlock: KIFKEQ_clean_linker_1, # of connection points: 2
#     Edge 70, Type (0, 0), BuildingBlock: KIFKEQ_clean_linker_1, # of connection points: 2
#     Edge 71, Type (0, 0), BuildingBlock: KIFKEQ_clean_linker_1, # of connection points: 2
#     Edge 72, Type (0, 0), BuildingBlock: KIFKEQ_clean_linker_1, # of connection points: 2
#     Edge 73, Type (0, 0), BuildingBlock: KIFKEQ_clean_linker_1, # of connection points: 2
#     Edge 74, Type (0, 0), BuildingBlock: KIFKEQ_clean_linker_1, # of connection points: 2
#     Edge 75, Type (0, 0), BuildingBlock: KIFKEQ_clean_linker_1, # of connection points: 2
#     Edge 76, Type (0, 0), BuildingBlock: KIFKEQ_clean_linker_1, # of connection points: 2
#     Edge 77, Type (0, 0), BuildingBlock: KIFKEQ_clean_linker_1, # of connection points: 2
#     Edge 78, Type (0, 0), BuildingBlock: KIFKEQ_clean_linker_1, # of connection points: 2
#     Edge 79, Type (0, 0), BuildingBlock: KIFKEQ_clean_linker_1, # of connection points: 2
#     Edge 80, Type (0, 0), BuildingBlock: KIFKEQ_clean_linker_1, # of connection points: 2
#     Edge 81, Type (0, 0), BuildingBlock: KIFKEQ_clean_linker_1, # of connection points: 2
#     Edge 82, Type (0, 0), BuildingBlock: KIFKEQ_clean_linker_1, # of connection points: 2
#     Edge 83, Type (0, 0), BuildingBlock: KIFKEQ_clean_linker_1, # of connection points: 2
# Relax obj value: 0.884
# Max RMSD: 0.352
# Mean RMSD: 0.317
data_MOF--net-fci--node1-BEQFEK_clean_sbu_0--edge1-KIFKEQ_clean_linker_1
_symmetry_space_group_name_H-M    P1
_symmetry_Int_Tables_number       1
_symmetry_cell_setting            triclinic
loop_
_symmetry_equiv_pos_as_xyz
'x, y, z'
_cell_length_a     54.887017
_cell_length_b     54.877681
_cell_length_c     54.886079
_cell_angle_alpha  89.213121
_cell_angle_beta   89.209304
_cell_angle_gamma 89.227857
loop_
_atom_site_label
_atom_site_type_symbol
_atom_site_fract_x
_atom_site_fract_y
_atom_site_fract_z
_atom_type_partial_charge
Co0 Co 0.19215 0.14973 0.61048 0.0
Co1 Co 0.23045 0.1336 0.57074 0.0
C2 C 0.20815 0.09844 0.6077 0.0
O3 O 0.19636 0.11556 0.61792 0.0
O4 O 0.22129 0.1022 0.58867 0.0
C5 C 0.15531 0.15264 0.64835 0.0
O6 O 0.15122 0.12972 0.64336 0.0
C7 C 0.28146 0.1231 0.56191 0.0
C8 C 0.28671 0.13448 0.52359 0.0
C9 C 0.29954 0.12837 0.54454 0.0
N10 N 0.25951 0.12727 0.552 0.0
N11 N 0.26271 0.1332 0.52881 0.0
C12 C 0.28445 0.11508 0.5879 0.0
H13 H 0.28334 0.13113 0.59995 0.0
H14 H 0.30216 0.10544 0.59045 0.0
H15 H 0.26944 0.10276 0.59338 0.0
C16 C 0.23045 0.18346 0.62312 0.0
N17 N 0.22235 0.16471 0.61015 0.0
N18 N 0.23763 0.16003 0.59212 0.0
C19 C 0.25529 0.17698 0.59218 0.0
C20 C 0.25157 0.192 0.61208 0.0
C21 C 0.21797 0.19295 0.64555 0.0
H22 H 0.20261 0.20511 0.64012 0.0
H23 H 0.21053 0.17757 0.65653 0.0
H24 H 0.23068 0.20329 0.65691 0.0
O25 O 0.17635 0.15489 0.57857 0.0
O26 O 0.20313 0.14472 0.54946 0.0
H27 H 0.2762 0.20162 0.56951 0.0
H28 H 0.29015 0.17249 0.57505 0.0
C29 C 0.27258 0.18182 0.57142 0.0
H30 H 0.26503 0.17529 0.55413 0.0
H31 H 0.24867 0.13855 0.51718 0.0
O32 O 0.17127 0.16425 0.63607 0.0
C33 C 0.18218 0.15281 0.5561 0.0
Co34 Co 0.53918 0.43221 0.29265 0.0
Co35 Co 0.5424 0.48027 0.26083 0.0
C36 C 0.58255 0.46412 0.29449 0.0
O37 O 0.57107 0.44519 0.30107 0.0
O38 O 0.57384 0.47927 0.27909 0.0
C39 C 0.54094 0.40511 0.33669 0.0
O40 O 0.55392 0.42398 0.34272 0.0
C41 C 0.53987 0.53253 0.26124 0.0
C42 C 0.52952 0.54283 0.22377 0.0
C43 C 0.53273 0.5523 0.24685 0.0
N44 N 0.5404 0.51247 0.24748 0.0
N45 N 0.5349 0.5188 0.2249 0.0
C46 C 0.5424 0.53178 0.28841 0.0
H47 H 0.54279 0.51276 0.29545 0.0
H48 H 0.52717 0.54191 0.29732 0.0
H49 H 0.55971 0.54055 0.29334 0.0
C50 C 0.49286 0.4557 0.30859 0.0
N51 N 0.51405 0.45592 0.29588 0.0
N52 N 0.51453 0.47532 0.28153 0.0
C53 C 0.49321 0.48767 0.28415 0.0
C54 C 0.47898 0.47585 0.30158 0.0
C55 C 0.48633 0.43668 0.32728 0.0
H56 H 0.48521 0.4187 0.3184 0.0
H57 H 0.50083 0.43554 0.3411 0.0
H58 H 0.46883 0.44088 0.33672 0.0
O59 O 0.54082 0.42116 0.2584 0.0
O60 O 0.54244 0.45481 0.23507 0.0
H61 H 0.46482 0.50886 0.26666 0.0
H62 H 0.49064 0.52585 0.27596 0.0
C63 C 0.48497 0.50838 0.26808 0.0
H64 H 0.49298 0.50655 0.24956 0.0
H65 H 0.5331 0.50649 0.21072 0.0
O66 O 0.53252 0.40422 0.31524 0.0
C67 C 0.54187 0.43161 0.23748 0.0
Co68 Co 0.30874 0.84475 0.10347 0.0
Co69 Co 0.27091 0.85729 0.06246 0.0
C70 C 0.29402 0.89592 0.09249 0.0
O71 O 0.30625 0.87994 0.10407 0.0
O72 O 0.27938 0.89029 0.07572 0.0
C73 C 0.32915 0.84572 0.15099 0.0
O74 O 0.31503 0.86511 0.15315 0.0
C75 C 0.22026 0.86708 0.05095 0.0
C76 C 0.2174 0.85236 0.01398 0.0
C77 C 0.20331 0.86059 0.03353 0.0
N78 N 0.24277 0.86162 0.04252 0.0
N79 N 0.24102 0.85367 0.02004 0.0
C80 C 0.21561 0.87758 0.07565 0.0
H81 H 0.2303 0.8904 0.08008 0.0
H82 H 0.21591 0.86284 0.08966 0.0
H83 H 0.19776 0.88732 0.07637 0.0
C84 C 0.26972 0.81261 0.12066 0.0
N85 N 0.27789 0.83065 0.10595 0.0
N86 N 0.26299 0.83372 0.08752 0.0
C87 C 0.24561 0.81654 0.08928 0.0
C88 C 0.24896 0.80321 0.11062 0.0
C89 C 0.28343 0.80232 0.1419 0.0
H90 H 0.30144 0.79532 0.13553 0.0
H91 H 0.28655 0.81697 0.15517 0.0
H92 H 0.27341 0.78729 0.15112 0.0
O93 O 0.32433 0.83397 0.07281 0.0
O94 O 0.29858 0.84316 0.04295 0.0
H95 H 0.22337 0.791 0.07001 0.0
H96 H 0.21131 0.82117 0.07197 0.0
C97 C 0.22833 0.8105 0.06944 0.0
H98 H 0.23652 0.81476 0.05137 0.0
H99 H 0.25574 0.84717 0.00964 0.0
O100 O 0.32938 0.83412 0.13109 0.0
C101 C 0.31879 0.83409 0.05032 0.0
Co102 Co 0.96658 0.56388 0.79447 0.0
Co103 Co 0.9556 0.51563 0.76714 0.0
C104 C 0.92487 0.53384 0.80986 0.0
O105 O 0.93863 0.5519 0.813 0.0
O106 O 0.92865 0.51914 0.79238 0.0
C107 C 0.96423 0.60843 0.82061 0.0
O108 O 0.94089 0.60706 0.81589 0.0
C109 C 0.9552 0.46344 0.77189 0.0
C110 C 0.95893 0.4505 0.73414 0.0
C111 C 0.95873 0.44251 0.75829 0.0
N112 N 0.95372 0.48272 0.7566 0.0
N113 N 0.95528 0.47486 0.73399 0.0
C114 C 0.95722 0.46573 0.79898 0.0
H115 H 0.96007 0.48491 0.80414 0.0
H116 H 0.9725 0.45429 0.80595 0.0
H117 H 0.94011 0.45934 0.8078 0.0
C118 C 0.01286 0.53803 0.80398 0.0
N119 N 0.99085 0.53956 0.79354 0.0
N120 N 0.98727 0.52 0.78059 0.0
C121 C 0.00765 0.50596 0.78127 0.0
C122 C 0.02439 0.51669 0.79642 0.0
C123 C 0.02128 0.55544 0.82279 0.0
H124 H 0.0292 0.57164 0.8135 0.0
H125 H 0.0056 0.56157 0.8342 0.0
H126 H 0.03515 0.547 0.83485 0.0
O127 O 0.95716 0.57368 0.76088 0.0
O128 O 0.95111 0.53973 0.74 0.0
H129 H 0.00198 0.48519 0.74895 0.0
H130 H 0.03175 0.48121 0.7622 0.0
C131 C 0.01201 0.48368 0.76629 0.0
H132 H 0.0058 0.46734 0.77655 0.0
H133 H 0.9556 0.48623 0.71858 0.0
O134 O 0.97877 0.59241 0.81203 0.0
C135 C 0.95205 0.56292 0.74115 0.0
Co136 Co 0.69538 0.34956 0.376 0.0
Co137 Co 0.73095 0.36473 0.4173 0.0
C138 C 0.70767 0.40134 0.38304 0.0
O139 O 0.69692 0.38451 0.37206 0.0
O140 O 0.72134 0.39693 0.40122 0.0
C141 C 0.67264 0.34818 0.32925 0.0
O142 O 0.68181 0.37004 0.32647 0.0
C143 C 0.78093 0.37437 0.43037 0.0
C144 C 0.78129 0.36405 0.46931 0.0
C145 C 0.79662 0.36975 0.44974 0.0
N146 N 0.75793 0.37038 0.43801 0.0
N147 N 0.75817 0.36499 0.4615 0.0
C148 C 0.78721 0.382 0.40477 0.0
H149 H 0.7723 0.39354 0.39721 0.0
H150 H 0.78905 0.36573 0.39312 0.0
H151 H 0.80452 0.39223 0.40414 0.0
C152 C 0.73558 0.31671 0.36339 0.0
N153 N 0.72666 0.3357 0.37604 0.0
N154 N 0.74068 0.33979 0.39474 0.0
C155 C 0.75829 0.32231 0.39537 0.0
C156 C 0.75583 0.30741 0.37531 0.0
C157 C 0.72402 0.30701 0.34103 0.0
H158 H 0.7076 0.29653 0.34637 0.0
H159 H 0.71828 0.32238 0.32901 0.0
H160 H 0.73681 0.29503 0.33072 0.0
O161 O 0.67863 0.34109 0.40703 0.0
O162 O 0.70317 0.35165 0.43696 0.0
H163 H 0.76461 0.32314 0.43398 0.0
H164 H 0.77695 0.29664 0.41902 0.0
C165 C 0.77365 0.31657 0.41711 0.0
H166 H 0.79157 0.32536 0.41479 0.0
H167 H 0.74279 0.36007 0.47173 0.0
O168 O 0.67616 0.33639 0.34903 0.0
C169 C 0.68334 0.3425 0.42965 0.0
Co170 Co 0.44628 0.93352 0.19269 0.0
Co171 Co 0.44038 0.97978 0.22557 0.0
C172 C 0.40273 0.966 0.18896 0.0
O173 O 0.41509 0.94751 0.18234 0.0
O174 O 0.40995 0.97996 0.20562 0.0
C175 C 0.44709 0.90686 0.14885 0.0
O176 O 0.43509 0.92635 0.14129 0.0
C177 C 0.44242 0.03207 0.22629 0.0
C178 C 0.45052 0.04034 0.26451 0.0
C179 C 0.44866 0.05099 0.24147 0.0
N180 N 0.44118 0.01138 0.23959 0.0
N181 N 0.44531 0.01651 0.26259 0.0
C182 C 0.44138 0.03265 0.19899 0.0
H183 H 0.44133 0.01398 0.19158 0.0
H184 H 0.45707 0.04273 0.19111 0.0
H185 H 0.42439 0.04217 0.1933 0.0
C186 C 0.49283 0.95715 0.17964 0.0
N187 N 0.47108 0.95692 0.19132 0.0
N188 N 0.46949 0.97556 0.20613 0.0
C189 C 0.49066 0.98785 0.2048 0.0
C190 C 0.50592 0.97683 0.18777 0.0
C191 C 0.50066 0.93893 0.16097 0.0
H192 H 0.50198 0.9206 0.16968 0.0
H193 H 0.48672 0.93824 0.1466 0.0
H194 H 0.5184 0.94356 0.15233 0.0
O195 O 0.44322 0.92116 0.22653 0.0
O196 O 0.4395 0.95315 0.25096 0.0
H197 H 0.48875 0.00517 0.23971 0.0
H198 H 0.51778 0.00769 0.22423 0.0
C199 C 0.49775 0.00767 0.2217 0.0
H200 H 0.4924 0.02561 0.21381 0.0
H201 H 0.44636 0.0035 0.2766 0.0
O202 O 0.45422 0.9058 0.1708 0.0
C203 C 0.44087 0.93013 0.24778 0.0
Co204 Co 0.80418 0.6505 0.88965 0.0
Co205 Co 0.76962 0.63196 0.9317 0.0
C206 C 0.7965 0.59751 0.89863 0.0
O207 O 0.80621 0.61536 0.88752 0.0
O208 O 0.78184 0.60056 0.91658 0.0
C209 C 0.82392 0.65301 0.84148 0.0
O210 O 0.81335 0.6318 0.83954 0.0
C211 C 0.72061 0.6182 0.94647 0.0
C212 C 0.7189 0.63068 0.98443 0.0
C213 C 0.70425 0.62287 0.96565 0.0
N214 N 0.74311 0.62437 0.95333 0.0
N215 N 0.74213 0.63094 0.97635 0.0
C216 C 0.71546 0.60851 0.92172 0.0
H217 H 0.73142 0.59785 0.91494 0.0
H218 H 0.71245 0.6238 0.90865 0.0
H219 H 0.69917 0.59675 0.92231 0.0
C220 C 0.76095 0.67815 0.87525 0.0
N221 N 0.77173 0.66085 0.88909 0.0
N222 N 0.75783 0.65575 0.90817 0.0
C223 C 0.73831 0.67109 0.90775 0.0
C224 C 0.73936 0.68508 0.88652 0.0
C225 C 0.77288 0.69041 0.85375 0.0
H226 H 0.78978 0.69934 0.85965 0.0
H227 H 0.77791 0.67654 0.84 0.0
H228 H 0.7608 0.70436 0.84521 0.0
O229 O 0.8188 0.66243 0.91982 0.0
O230 O 0.79617 0.6474 0.95042 0.0
H231 H 0.72973 0.67031 0.94613 0.0
H232 H 0.71451 0.69426 0.9293 0.0
C233 C 0.72095 0.67506 0.92863 0.0
H234 H 0.7047 0.66371 0.9262 0.0
H235 H 0.7569 0.63764 0.98586 0.0
O236 O 0.82239 0.66425 0.86155 0.0
C237 C 0.81421 0.65979 0.94252 0.0
Co238 Co 0.03677 0.06672 0.69897 0.0
Co239 Co 0.04295 0.01655 0.72721 0.0
C240 C 0.08022 0.03434 0.69077 0.0
O241 O 0.06736 0.05312 0.68612 0.0
O242 O 0.07369 0.01905 0.70708 0.0
C243 C 0.03345 0.09059 0.65482 0.0
O244 O 0.04065 0.06854 0.64877 0.0
C245 C 0.04867 0.96406 0.72544 0.0
C246 C 0.0256 0.95127 0.75601 0.0
C247 C 0.03757 0.94336 0.73504 0.0
N248 N 0.04225 0.98337 0.73908 0.0
N249 N 0.02936 0.97541 0.758 0.0
C250 C 0.06409 0.96581 0.70276 0.0
H251 H 0.05471 0.97745 0.689 0.0
H252 H 0.06833 0.9476 0.69512 0.0
H253 H 0.08163 0.97438 0.70717 0.0
C254 C 0.99009 0.04499 0.6854 0.0
N255 N 0.01163 0.04391 0.69689 0.0
N256 N 0.014 0.02264 0.7081 0.0
C257 C 0.99375 0.00957 0.70392 0.0
C258 C 0.97815 0.02327 0.68933 0.0
C259 C 0.98043 0.06674 0.6717 0.0
H260 H 0.98535 0.08372 0.68105 0.0
H261 H 0.98843 0.06699 0.65304 0.0
H262 H 0.9603 0.06604 0.67017 0.0
O263 O 0.04087 0.07595 0.73329 0.0
O264 O 0.04344 0.04086 0.75437 0.0
H265 H 0.9893 0.98381 0.73303 0.0
H266 H 0.97217 0.97674 0.70634 0.0
C267 C 0.98956 0.98414 0.71285 0.0
H268 H 0.00453 0.97232 0.70615 0.0
H269 H 0.0211 0.98675 0.77089 0.0
O270 O 0.02973 0.09518 0.67724 0.0
C271 C 0.04289 0.06419 0.75342 0.0
Co272 Co 0.60359 0.19291 0.15374 0.0
Co273 Co 0.56093 0.22762 0.1367 0.0
C274 C 0.59505 0.20243 0.10124 0.0
O275 O 0.6068 0.19285 0.11868 0.0
O276 O 0.57627 0.21588 0.10499 0.0
C277 C 0.65191 0.17368 0.1555 0.0
O278 O 0.6538 0.18483 0.13423 0.0
C279 C 0.54805 0.27672 0.1217 0.0
C280 C 0.51081 0.28112 0.13652 0.0
C281 C 0.53027 0.29442 0.12707 0.0
N282 N 0.53993 0.25479 0.12909 0.0
N283 N 0.51726 0.25736 0.13703 0.0
C284 C 0.57288 0.28006 0.1106 0.0
H285 H 0.58653 0.28155 0.1252 0.0
H286 H 0.57333 0.29656 0.09869 0.0
H287 H 0.57802 0.26391 0.09966 0.0
C288 C 0.61696 0.23541 0.18188 0.0
N289 N 0.60327 0.22481 0.16497 0.0
N290 N 0.58421 0.23874 0.16008 0.0
C291 C 0.5845 0.25806 0.17514 0.0
C292 C 0.60558 0.25687 0.18874 0.0
C293 C 0.63876 0.22367 0.19347 0.0
H294 H 0.63331 0.20635 0.20252 0.0
H295 H 0.65257 0.21937 0.17918 0.0
H296 H 0.647 0.23562 0.20717 0.0
O297 O 0.57312 0.17673 0.16435 0.0
O298 O 0.54221 0.20063 0.15261 0.0
H299 H 0.5632 0.28233 0.19799 0.0
H300 H 0.56626 0.29154 0.16689 0.0
C301 C 0.56374 0.27556 0.17905 0.0
H302 H 0.54621 0.26676 0.17526 0.0
H303 H 0.50708 0.24335 0.14496 0.0
O304 O 0.63175 0.17458 0.16715 0.0
C305 C 0.55031 0.18131 0.16314 0.0
Co306 Co 0.56303 0.79039 0.96547 0.0
Co307 Co 0.51705 0.75973 0.95355 0.0
C308 C 0.53617 0.79774 0.91872 0.0
O309 O 0.55317 0.80246 0.93325 0.0
O310 O 0.52092 0.7811 0.92369 0.0
C311 C 0.58739 0.83441 0.96934 0.0
O312 O 0.56764 0.84144 0.95783 0.0
C313 C 0.46506 0.75996 0.94925 0.0
C314 C 0.45487 0.72192 0.95719 0.0
C315 C 0.44509 0.74518 0.95362 0.0
N316 N 0.48544 0.74624 0.95068 0.0
N317 N 0.47927 0.72334 0.95463 0.0
C318 C 0.4652 0.78728 0.94781 0.0
H319 H 0.48381 0.79434 0.95024 0.0
H320 H 0.4529 0.79528 0.96187 0.0
H321 H 0.45858 0.79331 0.92967 0.0
C322 C 0.53306 0.80391 0.00845 0.0
N323 N 0.53644 0.79193 0.98739 0.0
N324 N 0.51763 0.77794 0.9835 0.0
C325 C 0.50198 0.78003 0.00267 0.0
C326 C 0.51105 0.79678 0.01885 0.0
C327 C 0.54997 0.82295 0.01736 0.0
H328 H 0.55072 0.83807 0.00382 0.0
H329 H 0.54406 0.83075 0.03498 0.0
H330 H 0.56856 0.81502 0.01915 0.0
O331 O 0.57496 0.7562 0.96441 0.0
O332 O 0.54302 0.73373 0.95477 0.0
H333 H 0.47646 0.76217 0.02692 0.0
H334 H 0.4638 0.77362 0.99911 0.0
C335 C 0.48005 0.76456 0.00707 0.0
H336 H 0.48279 0.74641 0.99886 0.0
H337 H 0.49173 0.70906 0.95751 0.0
O338 O 0.58971 0.81212 0.97565 0.0
C339 C 0.5655 0.7356 0.9601 0.0
Co340 Co 0.88661 0.80656 0.6537 0.0
Co341 Co 0.9257 0.7685 0.63497 0.0
C342 C 0.88916 0.79319 0.60182 0.0
O343 O 0.87964 0.80455 0.61955 0.0
O344 O 0.90751 0.77895 0.60447 0.0
C345 C 0.84868 0.8432 0.65787 0.0
O346 O 0.85404 0.84826 0.63497 0.0
C347 C 0.93506 0.71824 0.6221 0.0
C348 C 0.97325 0.71265 0.63287 0.0
C349 C 0.95256 0.70001 0.62641 0.0
N350 N 0.94463 0.73998 0.62724 0.0
N351 N 0.96776 0.73664 0.63275 0.0
C352 C 0.90928 0.71554 0.61407 0.0
H353 H 0.904 0.73123 0.60226 0.0
H354 H 0.89685 0.71566 0.63017 0.0
H355 H 0.90707 0.69842 0.60385 0.0
C356 C 0.87371 0.76636 0.68662 0.0
N357 N 0.88663 0.77538 0.66764 0.0
N358 N 0.90431 0.76005 0.66177 0.0
C359 C 0.90408 0.7414 0.67813 0.0
C360 C 0.88433 0.74453 0.69381 0.0
C361 C 0.85334 0.77975 0.69922 0.0
H362 H 0.86077 0.7959 0.70836 0.0
H363 H 0.83993 0.78628 0.68557 0.0
H364 H 0.84404 0.7681 0.71305 0.0
O365 O 0.91849 0.8217 0.65867 0.0
O366 O 0.94705 0.79511 0.64643 0.0
H367 H 0.92541 0.71608 0.69991 0.0
H368 H 0.91908 0.70647 0.66983 0.0
C369 C 0.92375 0.72245 0.68075 0.0
H370 H 0.94149 0.72979 0.67454 0.0
H371 H 0.97915 0.75042 0.63859 0.0
O372 O 0.86076 0.82671 0.66909 0.0
C373 C 0.9408 0.81557 0.65559 0.0
Co374 Co 0.92844 0.20077 0.45682 0.0
Co375 Co 0.97853 0.22667 0.44585 0.0
C376 C 0.9545 0.19386 0.40971 0.0
O377 O 0.93623 0.19021 0.42364 0.0
O378 O 0.97207 0.20716 0.41603 0.0
C379 C 0.88581 0.17076 0.45505 0.0
O380 O 0.88812 0.17392 0.43136 0.0
C381 C 0.02991 0.21705 0.4432 0.0
C382 C 0.04649 0.25099 0.45547 0.0
C383 C 0.05174 0.22659 0.45104 0.0
N384 N 0.01252 0.2345 0.44416 0.0
N385 N 0.02271 0.25505 0.45065 0.0
C386 C 0.02509 0.19131 0.43606 0.0
H387 H 0.01356 0.18234 0.45021 0.0
H388 H 0.04225 0.18073 0.43334 0.0
H389 H 0.01499 0.19134 0.41873 0.0
C390 C 0.95595 0.18149 0.49864 0.0
N391 N 0.95458 0.19451 0.47772 0.0
N392 N 0.97415 0.20785 0.47507 0.0
C393 C 0.98793 0.20486 0.49508 0.0
C394 C 0.97716 0.1877 0.51041 0.0
C395 C 0.93748 0.16318 0.50678 0.0
H396 H 0.92207 0.17277 0.51599 0.0
H397 H 0.93037 0.15354 0.4908 0.0
H398 H 0.94544 0.14957 0.51962 0.0
O399 O 0.92136 0.2363 0.45705 0.0
O400 O 0.95589 0.2556 0.44731 0.0
H401 H 0.00589 0.23938 0.49336 0.0
H402 H 0.00979 0.2228 0.52165 0.0
C403 C 0.00854 0.22101 0.50158 0.0
H404 H 0.02589 0.21299 0.49489 0.0
H405 H 0.01306 0.2712 0.45402 0.0
O406 O 0.90006 0.18186 0.46906 0.0
C407 C 0.93317 0.25588 0.45292 0.0
Co408 Co 0.10961 0.29365 0.84212 0.0
Co409 Co 0.067 0.26168 0.86261 0.0
C410 C 0.10548 0.28327 0.8948 0.0
O411 O 0.11652 0.29218 0.8764 0.0
O412 O 0.08556 0.2718 0.8927 0.0
C413 C 0.14453 0.33089 0.83233 0.0
O414 O 0.13246 0.34294 0.84924 0.0
C415 C 0.05513 0.2127 0.87677 0.0
C416 C 0.01682 0.20974 0.86604 0.0
C417 C 0.03712 0.19561 0.87228 0.0
N418 N 0.04627 0.23515 0.87184 0.0
N419 N 0.02303 0.2334 0.86641 0.0
C420 C 0.08085 0.20837 0.88468 0.0
H421 H 0.09314 0.20774 0.86848 0.0
H422 H 0.08249 0.19111 0.89534 0.0
H423 H 0.0868 0.22366 0.89606 0.0
C424 C 0.11756 0.25248 0.81031 0.0
N425 N 0.10676 0.26244 0.82995 0.0
N426 N 0.0875 0.24979 0.83638 0.0
C427 C 0.08477 0.23194 0.81989 0.0
C428 C 0.10398 0.23283 0.80325 0.0
C429 C 0.13904 0.26313 0.79711 0.0
H430 H 0.13319 0.27991 0.78717 0.0
H431 H 0.15305 0.26813 0.81046 0.0
H432 H 0.14714 0.25008 0.78393 0.0
O433 O 0.07923 0.31221 0.8354 0.0
O434 O 0.04804 0.29013 0.84919 0.0
H435 H 0.05899 0.21396 0.79706 0.0
H436 H 0.06349 0.20029 0.82638 0.0
C437 C 0.06189 0.21794 0.81658 0.0
H438 H 0.04594 0.22835 0.82359 0.0
H439 H 0.01216 0.24799 0.86047 0.0
O440 O 0.13728 0.31 0.8262 0.0
C441 C 0.05637 0.30918 0.83848 0.0
Co442 Co 0.4329 0.29751 0.5356 0.0
Co443 Co 0.48156 0.26845 0.54428 0.0
C444 C 0.46205 0.30823 0.57818 0.0
O445 O 0.44422 0.31357 0.56456 0.0
O446 O 0.47665 0.2907 0.5731 0.0
C447 C 0.38764 0.32391 0.53859 0.0
O448 O 0.38928 0.31909 0.56203 0.0
C449 C 0.53287 0.27611 0.54493 0.0
C450 C 0.54907 0.24157 0.53219 0.0
C451 C 0.55451 0.26582 0.53631 0.0
N452 N 0.51537 0.25925 0.54476 0.0
N453 N 0.52533 0.23832 0.53799 0.0
C454 C 0.52831 0.30211 0.55192 0.0
H455 H 0.51498 0.3107 0.53932 0.0
H456 H 0.54534 0.31275 0.552 0.0
H457 H 0.52036 0.30259 0.57057 0.0
C458 C 0.45843 0.31148 0.49007 0.0
N459 N 0.4571 0.29907 0.51136 0.0
N460 N 0.47643 0.28494 0.51368 0.0
C461 C 0.48994 0.28668 0.493 0.0
C462 C 0.47934 0.30398 0.47758 0.0
C463 C 0.44093 0.33141 0.48294 0.0
H464 H 0.4252 0.32334 0.47365 0.0
H465 H 0.43409 0.34099 0.49938 0.0
H466 H 0.44965 0.34487 0.47047 0.0
O467 O 0.42448 0.26299 0.54301 0.0
O468 O 0.45857 0.24071 0.547 0.0
H469 H 0.51226 0.26784 0.46646 0.0
H470 H 0.52783 0.27732 0.4931 0.0
C471 C 0.5106 0.26984 0.48652 0.0
H472 H 0.50769 0.25167 0.495 0.0
H473 H 0.51553 0.22248 0.53507 0.0
O474 O 0.40377 0.31543 0.52409 0.0
C475 C 0.43534 0.24254 0.54661 0.0
Co476 Co 0.38393 0.6982 0.34091 0.0
Co477 Co 0.42781 0.72944 0.35771 0.0
C478 C 0.39216 0.70658 0.39324 0.0
O479 O 0.38026 0.69805 0.37581 0.0
O480 O 0.41152 0.71871 0.38948 0.0
C481 C 0.33584 0.67939 0.33992 0.0
O482 O 0.33419 0.68928 0.36154 0.0
C483 C 0.44367 0.77829 0.36792 0.0
C484 C 0.48316 0.77562 0.36068 0.0
C485 C 0.46429 0.79248 0.36411 0.0
N486 N 0.44997 0.75469 0.36537 0.0
N487 N 0.47379 0.75311 0.36211 0.0
C488 C 0.41777 0.78686 0.37093 0.0
H489 H 0.40521 0.77121 0.37201 0.0
H490 H 0.41247 0.79921 0.35569 0.0
H491 H 0.4159 0.79723 0.38808 0.0
C492 C 0.37405 0.74058 0.31018 0.0
N493 N 0.38603 0.73 0.32877 0.0
N494 N 0.40601 0.74209 0.33307 0.0
C495 C 0.40813 0.76001 0.31599 0.0
C496 C 0.38772 0.75988 0.30128 0.0
C497 C 0.3508 0.73118 0.30019 0.0
H498 H 0.35483 0.7149 0.28899 0.0
H499 H 0.33848 0.72568 0.31541 0.0
H500 H 0.34141 0.7452 0.28883 0.0
O501 O 0.41378 0.67997 0.33103 0.0
O502 O 0.44563 0.70137 0.3428 0.0
H503 H 0.43409 0.77447 0.28997 0.0
H504 H 0.43024 0.79189 0.31701 0.0
C505 C 0.43133 0.77306 0.31001 0.0
H506 H 0.4472 0.76332 0.31796 0.0
H507 H 0.48326 0.73693 0.35849 0.0
O508 O 0.35552 0.68132 0.32759 0.0
C509 C 0.43675 0.68284 0.33243 0.0
Co510 Co 0.06614 0.69457 0.02688 0.0
Co511 Co 0.01835 0.7243 0.03749 0.0
C512 C 0.03561 0.68284 0.07024 0.0
O513 O 0.05356 0.67827 0.05613 0.0
O514 O 0.02106 0.70063 0.06592 0.0
C515 C 0.1095 0.66603 0.03042 0.0
O516 O 0.10745 0.6717 0.05354 0.0
C517 C 0.96591 0.72437 0.0392 0.0
C518 C 0.95595 0.76279 0.03175 0.0
C519 C 0.94624 0.73965 0.03427 0.0
N520 N 0.98622 0.73773 0.03929 0.0
N521 N 0.98011 0.76084 0.03559 0.0
C522 C 0.96601 0.69706 0.03963 0.0
H523 H 0.98475 0.68963 0.03715 0.0
H524 H 0.95416 0.68999 0.02519 0.0
H525 H 0.95864 0.6906 0.05747 0.0
C526 C 0.0415 0.68523 0.98077 0.0
N527 N 0.04215 0.69546 0.00289 0.0
N528 N 0.0223 0.70868 0.0065 0.0
C529 C 0.00872 0.70796 0.98615 0.0
C530 C 0.02031 0.69289 0.96934 0.0
C531 C 0.06019 0.66734 0.9716 0.0
H532 H 0.06488 0.65415 0.98635 0.0
H533 H 0.05361 0.65714 0.95575 0.0
H534 H 0.07698 0.67724 0.96627 0.0
O535 O 0.07693 0.72795 0.03426 0.0
O536 O 0.04321 0.75039 0.03986 0.0
H537 H 0.98377 0.72645 0.96186 0.0
H538 H 0.9701 0.71328 0.98872 0.0
C539 C 0.98629 0.72309 0.98166 0.0
H540 H 0.98758 0.74083 0.99087 0.0
H541 H 0.9926 0.77493 0.03372 0.0
O542 O 0.09426 0.67492 0.01541 0.0
C543 C 0.06639 0.74833 0.03852 0.0
Co544 Co 0.15714 0.60754 0.1938 0.0
Co545 Co 0.13688 0.56777 0.23023 0.0
C546 C 0.10375 0.60165 0.20233 0.0
O547 O 0.12204 0.61144 0.19206 0.0
O548 O 0.10612 0.58416 0.21769 0.0
C549 C 0.16087 0.65512 0.17323 0.0
O550 O 0.13938 0.6578 0.18375 0.0
C551 C 0.12281 0.5557 0.28024 0.0
C552 C 0.13344 0.51691 0.28284 0.0
C553 C 0.12668 0.53674 0.29708 0.0
N554 N 0.12841 0.54763 0.25777 0.0
N555 N 0.13388 0.52419 0.25934 0.0
C556 C 0.11438 0.5813 0.2849 0.0
H557 H 0.10402 0.58841 0.26903 0.0
H558 H 0.13027 0.59327 0.28712 0.0
H559 H 0.10269 0.58207 0.30153 0.0
C560 C 0.18437 0.62193 0.2364 0.0
N561 N 0.16698 0.6086 0.22615 0.0
N562 N 0.16122 0.59024 0.24069 0.0
C563 C 0.1763 0.59042 0.25998 0.0
C564 C 0.19065 0.61094 0.25822 0.0
C565 C 0.19719 0.64265 0.22394 0.0
H566 H 0.20641 0.636 0.20714 0.0
H567 H 0.18363 0.65686 0.21869 0.0
H568 H 0.21096 0.65086 0.23582 0.0
O569 O 0.16814 0.57602 0.17988 0.0
O570 O 0.15203 0.54737 0.20414 0.0
H571 H 0.17443 0.55224 0.26937 0.0
H572 H 0.1995 0.56785 0.28264 0.0
C573 C 0.18009 0.56959 0.27748 0.0
H574 H 0.16954 0.57306 0.2944 0.0
H575 H 0.13997 0.5137 0.2447 0.0
O576 O 0.17192 0.63466 0.17486 0.0
C577 C 0.16474 0.55367 0.18549 0.0
Co578 Co 0.65249 0.88311 0.80121 0.0
Co579 Co 0.63233 0.92733 0.77041 0.0
C580 C 0.59962 0.8883 0.79057 0.0
O581 O 0.61787 0.87758 0.79987 0.0
O582 O 0.60179 0.90833 0.77875 0.0
C583 C 0.65669 0.83356 0.81647 0.0
O584 O 0.63648 0.83179 0.80414 0.0
C585 C 0.6221 0.94804 0.72243 0.0
C586 C 0.6265 0.98727 0.72893 0.0
C587 C 0.62451 0.97043 0.7104 0.0
N588 N 0.62389 0.95156 0.74654 0.0
N589 N 0.62549 0.97517 0.75038 0.0
C590 C 0.62102 0.9233 0.71131 0.0
H591 H 0.62212 0.90877 0.72553 0.0
H592 H 0.63585 0.92075 0.69763 0.0
H593 H 0.60346 0.92159 0.70176 0.0
C594 C 0.68566 0.87815 0.75978 0.0
N595 N 0.66547 0.888 0.7699 0.0
N596 N 0.65922 0.90797 0.75783 0.0
C597 C 0.67639 0.91216 0.74035 0.0
C598 C 0.69323 0.89308 0.74072 0.0
C599 C 0.69886 0.85632 0.76992 0.0
H600 H 0.7074 0.86117 0.78738 0.0
H601 H 0.68571 0.84152 0.77363 0.0
H602 H 0.71317 0.84959 0.75711 0.0
O603 O 0.6594 0.91214 0.82092 0.0
O604 O 0.64457 0.94381 0.79984 0.0
H605 H 0.70013 0.94027 0.72653 0.0
H606 H 0.67352 0.9357 0.70899 0.0
C607 C 0.68038 0.93627 0.72785 0.0
H608 H 0.67114 0.95116 0.73794 0.0
H609 H 0.62817 0.98278 0.76744 0.0
O610 O 0.66723 0.85403 0.81735 0.0
C611 C 0.65554 0.93501 0.81841 0.0
Co612 Co 0.7906 0.96617 0.57122 0.0
Co613 Co 0.76312 0.95799 0.52194 0.0
C614 C 0.79304 0.9185 0.5449 0.0
O615 O 0.79721 0.93177 0.56309 0.0
O616 O 0.78066 0.92641 0.52704 0.0
C617 C 0.83426 0.96461 0.59647 0.0
O618 O 0.83949 0.9509 0.57763 0.0
C619 C 0.76429 0.95175 0.46973 0.0
C620 C 0.73112 0.97125 0.45771 0.0
C621 C 0.7528 0.96101 0.44909 0.0
N622 N 0.75078 0.95752 0.48948 0.0
N623 N 0.73048 0.96833 0.48214 0.0
C624 C 0.78799 0.93797 0.47103 0.0
H625 H 0.78554 0.92137 0.48244 0.0
H626 H 0.80186 0.9494 0.47973 0.0
H627 H 0.79447 0.93205 0.4528 0.0
C628 C 0.81006 0.00822 0.54318 0.0
N629 N 0.79694 0.98762 0.54465 0.0
N630 N 0.78486 0.985 0.52431 0.0
C631 C 0.78986 0.00412 0.50934 0.0
C632 C 0.80608 0.01928 0.52071 0.0
C633 C 0.82597 0.01712 0.56304 0.0
H634 H 0.81528 0.01836 0.58028 0.0
H635 H 0.84113 0.00389 0.56582 0.0
H636 H 0.83399 0.03508 0.55858 0.0
O637 O 0.75599 0.96993 0.58083 0.0
O638 O 0.73599 0.96169 0.5467 0.0
H639 H 0.77983 0.02875 0.47982 0.0
H640 H 0.78475 0.99749 0.47158 0.0
C641 C 0.77725 0.00959 0.48587 0.0
H642 H 0.75749 0.00644 0.48816 0.0
H643 H 0.71722 0.97561 0.49387 0.0
O644 O 0.81291 0.97379 0.5984 0.0
C645 C 0.73623 0.96709 0.56928 0.0
Co646 Co 0.83803 0.10466 0.30332 0.0
Co647 Co 0.85558 0.06483 0.26619 0.0
C648 C 0.89079 0.09557 0.29255 0.0
O649 O 0.87327 0.10562 0.304 0.0
O650 O 0.8873 0.07949 0.27652 0.0
C651 C 0.83763 0.15254 0.32108 0.0
O652 O 0.85688 0.15382 0.30663 0.0
C653 C 0.86854 0.05371 0.2162 0.0
C654 C 0.85519 0.0163 0.21258 0.0
C655 C 0.86326 0.0362 0.19886 0.0
N656 N 0.86244 0.04499 0.23844 0.0
N657 N 0.85539 0.02224 0.23628 0.0
C658 C 0.87848 0.07875 0.21221 0.0
H659 H 0.86333 0.09231 0.21172 0.0
H660 H 0.88921 0.07981 0.19494 0.0
H661 H 0.89028 0.08354 0.22762 0.0
C662 C 0.80878 0.12127 0.26205 0.0
N663 N 0.82676 0.10723 0.27136 0.0
N664 N 0.83159 0.08899 0.25665 0.0
C665 C 0.81556 0.09015 0.23816 0.0
C666 C 0.80128 0.111 0.24063 0.0
C667 C 0.7964 0.14174 0.27532 0.0
H668 H 0.78937 0.13496 0.29317 0.0
H669 H 0.8098 0.15619 0.2787 0.0
H670 H 0.78104 0.14971 0.26481 0.0
O671 O 0.82592 0.07386 0.31744 0.0
O672 O 0.84065 0.04476 0.29309 0.0
H673 H 0.7919 0.06971 0.21496 0.0
H674 H 0.82237 0.07302 0.20416 0.0
C675 C 0.81116 0.07 0.22073 0.0
H676 H 0.81584 0.05214 0.22913 0.0
H677 H 0.84859 0.01159 0.25066 0.0
O678 O 0.82615 0.1326 0.32278 0.0
C679 C 0.8284 0.05147 0.31185 0.0
Co680 Co 0.69262 0.02952 0.06871 0.0
Co681 Co 0.7211 0.03997 0.01995 0.0
C682 C 0.67935 0.07215 0.03797 0.0
O683 O 0.67557 0.05843 0.0564 0.0
O684 O 0.69678 0.06779 0.023 0.0
C685 C 0.66323 0.03174 0.11219 0.0
O686 O 0.66739 0.05522 0.11038 0.0
C687 C 0.71811 0.03989 0.96784 0.0
C688 C 0.75622 0.03486 0.95543 0.0
C689 C 0.73236 0.03536 0.94726 0.0
N690 N 0.73276 0.04153 0.98713 0.0
N691 N 0.75561 0.03924 0.97955 0.0
C692 C 0.69089 0.03856 0.97005 0.0
H693 H 0.68498 0.03686 0.98937 0.0
H694 H 0.68398 0.02285 0.95981 0.0
H695 H 0.68269 0.05546 0.96222 0.0
C696 C 0.68224 0.98368 0.04392 0.0
N697 N 0.69305 0.0055 0.04473 0.0
N698 N 0.70653 0.00875 0.02501 0.0
C699 C 0.70583 0.98829 0.01163 0.0
C700 C 0.69012 0.9719 0.02297 0.0
C701 C 0.66299 0.97556 0.06174 0.0
H702 H 0.67187 0.96808 0.07832 0.0
H703 H 0.65134 0.99133 0.06704 0.0
H704 H 0.65121 0.96144 0.05401 0.0
O705 O 0.72652 0.03727 0.07827 0.0
O706 O 0.74779 0.04316 0.04377 0.0
H707 H 0.73896 0.99318 0.99087 0.0
H708 H 0.7255 0.96351 0.98819 0.0
C709 C 0.72155 0.98333 0.9897 0.0
H710 H 0.71192 0.98927 0.97299 0.0
H711 H 0.77059 0.03878 0.99106 0.0
O712 O 0.67357 0.0174 0.09716 0.0
C713 C 0.74651 0.04179 0.06699 0.0
Co714 Co 0.34503 0.38217 0.69696 0.0
Co715 Co 0.36177 0.42345 0.73174 0.0
C716 C 0.397 0.38713 0.70941 0.0
O717 O 0.37966 0.37629 0.69936 0.0
O718 O 0.39331 0.40629 0.72189 0.0
C719 C 0.3407 0.33388 0.67978 0.0
O720 O 0.35881 0.32982 0.69477 0.0
C721 C 0.3741 0.43589 0.78118 0.0
C722 C 0.36252 0.47441 0.78308 0.0
C723 C 0.36952 0.45464 0.79764 0.0
N724 N 0.36869 0.44395 0.75862 0.0
N725 N 0.36265 0.46726 0.75973 0.0
C726 C 0.38273 0.41036 0.78634 0.0
H727 H 0.3942 0.40376 0.77094 0.0
H728 H 0.36691 0.39807 0.78803 0.0
H729 H 0.39344 0.40943 0.80335 0.0
C730 C 0.31126 0.37164 0.73717 0.0
N731 N 0.33061 0.38352 0.72789 0.0
N732 N 0.33595 0.40186 0.74198 0.0
C733 C 0.3191 0.40287 0.7602 0.0
C734 C 0.30342 0.38342 0.75801 0.0
C735 C 0.29845 0.35169 0.72436 0.0
H736 H 0.29336 0.35807 0.70584 0.0
H737 H 0.31099 0.3358 0.72249 0.0
H738 H 0.28174 0.34586 0.73429 0.0
O739 O 0.33842 0.4132 0.67945 0.0
O740 O 0.34927 0.44332 0.70365 0.0
H741 H 0.32141 0.44083 0.76882 0.0
H742 H 0.29716 0.42516 0.78462 0.0
C743 C 0.31614 0.42342 0.77769 0.0
H744 H 0.32777 0.4198 0.79364 0.0
H745 H 0.35659 0.47769 0.74491 0.0
O746 O 0.33169 0.35527 0.67788 0.0
C747 C 0.34039 0.43587 0.68374 0.0
Co748 Co 0.29611 0.52804 0.42762 0.0
Co749 Co 0.26876 0.54129 0.47647 0.0
C750 C 0.30722 0.57363 0.45308 0.0
O751 O 0.31123 0.55883 0.43588 0.0
O752 O 0.29084 0.56951 0.46919 0.0
C753 C 0.32292 0.52866 0.38268 0.0
O754 O 0.31677 0.55188 0.38264 0.0
C755 C 0.27716 0.54524 0.52755 0.0
C756 C 0.2426 0.53425 0.54501 0.0
C757 C 0.26701 0.53822 0.54984 0.0
N758 N 0.26005 0.54423 0.51033 0.0
N759 N 0.23912 0.53854 0.521 0.0
C760 C 0.30318 0.55164 0.5222 0.0
H761 H 0.3116 0.53778 0.51007 0.0
H762 H 0.31389 0.55321 0.53908 0.0
H763 H 0.30377 0.56949 0.51256 0.0
C764 C 0.30948 0.48414 0.45564 0.0
N765 N 0.29866 0.50621 0.45382 0.0
N766 N 0.28541 0.51037 0.47349 0.0
C767 C 0.28649 0.49032 0.48802 0.0
C768 C 0.30206 0.47328 0.47739 0.0
C769 C 0.32689 0.47402 0.43702 0.0
H770 H 0.31645 0.46722 0.4214 0.0
H771 H 0.33912 0.48862 0.43022 0.0
H772 H 0.33813 0.45889 0.44467 0.0
O773 O 0.26106 0.5319 0.41969 0.0
O774 O 0.2405 0.54183 0.45365 0.0
H775 H 0.25221 0.49471 0.50675 0.0
H776 H 0.26739 0.46592 0.5126 0.0
C777 C 0.27016 0.48574 0.50958 0.0
H778 H 0.27858 0.49304 0.52606 0.0
H779 H 0.22309 0.5353 0.51165 0.0
O780 O 0.31475 0.51482 0.39956 0.0
C781 C 0.24111 0.53699 0.4309 0.0
Co782 Co 0.20022 0.45502 0.93163 0.0
Co783 Co 0.22741 0.44457 0.98094 0.0
C784 C 0.19193 0.40922 0.96076 0.0
O785 O 0.18811 0.42331 0.94268 0.0
O786 O 0.20732 0.4145 0.9769 0.0
C787 C 0.15782 0.45897 0.90477 0.0
O788 O 0.14978 0.44894 0.92516 0.0
C789 C 0.22364 0.44184 0.03344 0.0
C790 C 0.2588 0.45615 0.04531 0.0
C791 C 0.23552 0.45056 0.05375 0.0
N792 N 0.23861 0.44369 0.01393 0.0
N793 N 0.25996 0.45133 0.02129 0.0
C794 C 0.19817 0.4325 0.03208 0.0
H795 H 0.19806 0.41577 0.02106 0.0
H796 H 0.18637 0.44635 0.02298 0.0
H797 H 0.1907 0.42783 0.05041 0.0
C798 C 0.18532 0.49997 0.95672 0.0
N799 N 0.19635 0.4779 0.95646 0.0
N800 N 0.20842 0.47435 0.97682 0.0
C801 C 0.2057 0.49458 0.99048 0.0
C802 C 0.19083 0.51121 0.97834 0.0
C803 C 0.16975 0.50991 0.93661 0.0
H804 H 0.18013 0.50943 0.91913 0.0
H805 H 0.15353 0.4983 0.93491 0.0
H806 H 0.16329 0.52877 0.94004 0.0
O807 O 0.23511 0.45362 0.92256 0.0
O808 O 0.25532 0.44518 0.95677 0.0
H809 H 0.23842 0.49275 0.01122 0.0
H810 H 0.21998 0.51941 0.01687 0.0
C811 C 0.21947 0.4996 0.01314 0.0
H812 H 0.21038 0.49047 0.02881 0.0
H813 H 0.27457 0.45539 0.00962 0.0
O814 O 0.18025 0.46431 0.90293 0.0
C815 C 0.25499 0.44978 0.93386 0.0
H816 H 0.3511 0.2853 0.68488 0.0
H817 H 0.30541 0.33637 0.6452 0.0
H818 H 0.33072 0.25153 0.66581 0.0
H819 H 0.28552 0.3026 0.62554 0.0
H820 H 0.23424 0.2372 0.62347 0.0
H821 H 0.25727 0.27171 0.63766 0.0
H822 H 0.32426 0.2303 0.6283 0.0
H823 H 0.30085 0.19528 0.61527 0.0
C824 C 0.33694 0.28933 0.67183 0.0
C825 C 0.3297 0.3135 0.66673 0.0
C826 C 0.32536 0.26996 0.66076 0.0
C827 C 0.30639 0.27435 0.64424 0.0
C828 C 0.29977 0.29858 0.63851 0.0
C829 C 0.31124 0.31794 0.6497 0.0
C830 C 0.25386 0.23546 0.62464 0.0
C831 C 0.26577 0.21351 0.61877 0.0
C832 C 0.26712 0.25534 0.63241 0.0
C833 C 0.29263 0.25375 0.63421 0.0
C834 C 0.30461 0.23199 0.62747 0.0
C835 C 0.29128 0.21204 0.61981 0.0
H836 H 0.3471 0.55406 0.34681 0.0
H837 H 0.34295 0.48281 0.38105 0.0
H838 H 0.38306 0.54082 0.32373 0.0
H839 H 0.37919 0.46984 0.35853 0.0
H840 H 0.43786 0.44838 0.30375 0.0
H841 H 0.39758 0.46055 0.31941 0.0
H842 H 0.4249 0.53227 0.33437 0.0
H843 H 0.46489 0.52004 0.31849 0.0
C844 C 0.35367 0.5355 0.34921 0.0
C845 C 0.34232 0.5196 0.36599 0.0
C846 C 0.37439 0.52796 0.33612 0.0
C847 C 0.38422 0.50438 0.33954 0.0
C848 C 0.37204 0.48807 0.35531 0.0
C849 C 0.3513 0.49558 0.36835 0.0
C850 C 0.43512 0.4667 0.31047 0.0
C851 C 0.45442 0.48321 0.3103 0.0
C852 C 0.41212 0.4737 0.31938 0.0
C853 C 0.408 0.49738 0.3282 0.0
C854 C 0.42729 0.51402 0.32739 0.0
C855 C 0.45023 0.50701 0.31846 0.0
H856 H 0.21885 0.79911 0.14976 0.0
H857 H 0.25015 0.75844 0.09015 0.0
H858 H 0.19698 0.76284 0.16387 0.0
H859 H 0.22796 0.72217 0.10377 0.0
H860 H 0.14249 0.70123 0.16729 0.0
H861 H 0.16349 0.7369 0.15109 0.0
H862 H 0.22806 0.69287 0.13795 0.0
H863 H 0.20697 0.65707 0.15381 0.0
C864 C 0.22083 0.78235 0.13966 0.0
C865 C 0.2358 0.78138 0.11884 0.0
C866 C 0.20826 0.76169 0.14757 0.0
C867 C 0.21063 0.7397 0.13482 0.0
C868 C 0.22589 0.7388 0.11405 0.0
C869 C 0.23841 0.75949 0.10615 0.0
C870 C 0.16111 0.69911 0.16079 0.0
C871 C 0.17309 0.67634 0.1619 0.0
C872 C 0.17318 0.71958 0.15166 0.0
C873 C 0.19747 0.71772 0.14341 0.0
C874 C 0.20927 0.69484 0.14397 0.0
C875 C 0.1972 0.67435 0.15314 0.0
H876 H 0.16678 0.48254 0.86106 0.0
H877 H 0.10946 0.44957 0.9045 0.0
H878 H 0.13696 0.49402 0.82998 0.0
H879 H 0.07994 0.46147 0.87415 0.0
H880 H 0.03153 0.47013 0.81249 0.0
H881 H 0.06658 0.45355 0.83395 0.0
H882 H 0.10291 0.52262 0.82551 0.0
H883 H 0.06828 0.53865 0.80245 0.0
C884 C 0.14789 0.47766 0.86392 0.0
C885 C 0.14046 0.46521 0.88525 0.0
C886 C 0.13083 0.48429 0.84619 0.0
C887 C 0.10609 0.47852 0.8495 0.0
C888 C 0.09889 0.46575 0.8707 0.0
C889 C 0.11584 0.45913 0.88828 0.0
C890 C 0.04734 0.4815 0.81442 0.0
C891 C 0.04713 0.50575 0.80604 0.0
C892 C 0.0673 0.47212 0.82706 0.0
C893 C 0.08732 0.48693 0.83194 0.0
C894 C 0.08781 0.5107 0.82206 0.0
C895 C 0.0679 0.51998 0.8091 0.0
H896 H 0.73616 0.26326 0.36617 0.0
H897 H 0.80488 0.29929 0.3744 0.0
H898 H 0.75749 0.22565 0.35572 0.0
H899 H 0.82654 0.26114 0.36525 0.0
H900 H 0.85312 0.19922 0.31456 0.0
H901 H 0.83447 0.23624 0.3305 0.0
H902 H 0.78205 0.19306 0.37099 0.0
H903 H 0.8002 0.15602 0.35427 0.0
C904 C 0.7559 0.26307 0.36572 0.0
C905 C 0.76893 0.28425 0.37044 0.0
C906 C 0.76816 0.2414 0.36017 0.0
C907 C 0.79377 0.24034 0.35958 0.0
C908 C 0.80681 0.26142 0.36517 0.0
C909 C 0.79447 0.28319 0.37056 0.0
C910 C 0.83775 0.1976 0.32703 0.0
C911 C 0.82794 0.17471 0.33292 0.0
C912 C 0.82715 0.21885 0.33633 0.0
C913 C 0.80662 0.21767 0.35187 0.0
C914 C 0.79753 0.19466 0.35865 0.0
C915 C 0.80801 0.17342 0.34918 0.0
H916 H 0.63614 0.0573 0.14566 0.0
H917 H 0.64549 0.98548 0.1153 0.0
H918 H 0.59988 0.04365 0.16777 0.0
H919 H 0.60885 0.97215 0.13652 0.0
H920 H 0.54798 0.94973 0.18759 0.0
H921 H 0.58847 0.96259 0.17382 0.0
H922 H 0.55927 0.03437 0.15697 0.0
H923 H 0.51917 0.02151 0.17137 0.0
C924 C 0.63061 0.03854 0.14388 0.0
C925 C 0.64355 0.02258 0.12847 0.0
C926 C 0.60969 0.03076 0.1564 0.0
C927 C 0.60117 0.00689 0.15365 0.0
C928 C 0.61491 0.99059 0.13926 0.0
C929 C 0.63591 0.99831 0.12693 0.0
C930 C 0.55039 0.96823 0.18094 0.0
C931 C 0.53056 0.98459 0.18019 0.0
C932 C 0.57351 0.97563 0.17305 0.0
C933 C 0.57718 0.99951 0.16417 0.0
C934 C 0.55729 0.01597 0.16404 0.0
C935 C 0.53426 0.00861 0.17209 0.0
H936 H 0.70029 0.82962 0.8398 0.0
H937 H 0.63683 0.78841 0.82097 0.0
H938 H 0.71811 0.79331 0.85888 0.0
H939 H 0.65444 0.75228 0.84049 0.0
H940 H 0.70964 0.68797 0.84785 0.0
H941 H 0.68806 0.72412 0.83237 0.0
H942 H 0.71348 0.76529 0.89341 0.0
H943 H 0.73557 0.72912 0.90835 0.0
C944 C 0.69005 0.81288 0.83993 0.0
C945 C 0.66723 0.81185 0.82876 0.0
C946 C 0.70018 0.79212 0.85101 0.0
C947 C 0.68767 0.76993 0.8512 0.0
C948 C 0.66466 0.76903 0.84037 0.0
C949 C 0.65455 0.78976 0.82925 0.0
C950 C 0.71014 0.7047 0.85808 0.0
C951 C 0.72381 0.7059 0.87937 0.0
C952 C 0.6978 0.72534 0.84932 0.0
C953 C 0.69908 0.74757 0.86167 0.0
C954 C 0.71234 0.74849 0.88338 0.0
C955 C 0.7247 0.72781 0.89211 0.0
H956 H 0.83166 0.99534 0.63571 0.0
H957 H 0.88171 0.95 0.59432 0.0
H958 H 0.86576 0.00967 0.65993 0.0
H959 H 0.91538 0.96436 0.61827 0.0
H960 H 0.97066 0.02087 0.64098 0.0
H961 H 0.93464 0.00627 0.6203 0.0
H962 H 0.89925 0.99316 0.68994 0.0
H963 H 0.93561 0.0079 0.71067 0.0
C964 C 0.84981 0.98824 0.63196 0.0
C965 C 0.854 0.97169 0.61296 0.0
C966 C 0.86927 0.9964 0.64583 0.0
C967 C 0.89319 0.98833 0.64071 0.0
C968 C 0.89717 0.97117 0.62232 0.0
C969 C 0.87782 0.96288 0.60868 0.0
C970 C 0.95511 0.01498 0.65181 0.0
C971 C 0.95581 0.01527 0.67731 0.0
C972 C 0.9346 0.00652 0.64004 0.0
C973 C 0.91428 0.9984 0.65356 0.0
C974 C 0.91468 0.99936 0.67913 0.0
C975 C 0.93541 0.00762 0.69094 0.0
H976 H 0.58441 0.2603 0.23356 0.0
H977 H 0.64317 0.28811 0.18882 0.0
H978 H 0.5982 0.28448 0.26784 0.0
H979 H 0.65735 0.31207 0.22304 0.0
H980 H 0.66439 0.36705 0.28369 0.0
H981 H 0.64575 0.34679 0.24944 0.0
H982 H 0.63404 0.28278 0.29454 0.0
H983 H 0.6524 0.30301 0.32882 0.0
C984 C 0.60009 0.2719 0.2311 0.0
C985 C 0.61268 0.27273 0.20873 0.0
C986 C 0.6081 0.28554 0.25066 0.0
C987 C 0.62885 0.30017 0.24811 0.0
C988 C 0.64111 0.30125 0.22546 0.0
C989 C 0.63313 0.28753 0.20595 0.0
C990 C 0.65767 0.34872 0.28635 0.0
C991 C 0.65998 0.33659 0.30894 0.0
C992 C 0.64709 0.33711 0.26671 0.0
C993 C 0.63851 0.3132 0.2693 0.0
C994 C 0.64023 0.30132 0.29206 0.0
C995 C 0.65089 0.31288 0.31166 0.0
H996 H 0.46485 0.81487 0.02172 0.0
H997 H 0.52899 0.80168 0.0647 0.0
H998 H 0.44612 0.8374 0.05524 0.0
H999 H 0.51112 0.82563 0.09772 0.0
H1000 H 0.43967 0.90702 0.09994 0.0
H1001 H 0.45251 0.87664 0.07069 0.0
H1002 H 0.48138 0.83155 0.12902 0.0
H1003 H 0.46924 0.86266 0.15838 0.0
C1004 C 0.47481 0.81659 0.0385 0.0
C1005 C 0.49856 0.80711 0.04049 0.0
C1006 C 0.46424 0.82976 0.0576 0.0
C1007 C 0.47733 0.83392 0.079 0.0
C1008 C 0.50046 0.82286 0.08157 0.0
C1009 C 0.51086 0.8094 0.06256 0.0
C1010 C 0.44861 0.89057 0.10661 0.0
C1011 C 0.45358 0.88736 0.13148 0.0
C1012 C 0.45579 0.87296 0.08981 0.0
C1013 C 0.46794 0.85151 0.09743 0.0
C1014 C 0.47234 0.84797 0.12245 0.0
C1015 C 0.4653 0.86575 0.13929 0.0
H1016 H 0.90841 0.73945 0.73648 0.0
H1017 H 0.84458 0.71639 0.69866 0.0
H1018 H 0.89598 0.71537 0.77238 0.0
H1019 H 0.83177 0.69259 0.73454 0.0
H1020 H 0.82736 0.6356 0.79515 0.0
H1021 H 0.84396 0.65633 0.75911 0.0
H1022 H 0.86274 0.7178 0.80312 0.0
H1023 H 0.84644 0.69705 0.83918 0.0
C1024 C 0.89183 0.729 0.73591 0.0
C1025 C 0.87746 0.72941 0.71501 0.0
C1026 C 0.88463 0.71541 0.75639 0.0
C1027 C 0.86294 0.70207 0.75621 0.0
C1028 C 0.84875 0.70238 0.73508 0.0
C1029 C 0.85593 0.71605 0.71466 0.0
C1030 C 0.83522 0.65345 0.79717 0.0
C1031 C 0.83548 0.66475 0.81999 0.0
C1032 C 0.84461 0.66534 0.77652 0.0
C1033 C 0.85453 0.6887 0.77831 0.0
C1034 C 0.85542 0.6997 0.80123 0.0
C1035 C 0.84596 0.68785 0.82186 0.0
H1036 H 0.95275 0.18011 0.55365 0.0
H1037 H 0.02362 0.17309 0.51919 0.0
H1038 H 0.96836 0.15979 0.59029 0.0
H1039 H 0.03959 0.15405 0.55609 0.0
H1040 H 0.04569 0.08742 0.60703 0.0
H1041 H 0.03346 0.11422 0.57389 0.0
H1042 H 0.99628 0.16151 0.62504 0.0
H1043 H 0.00824 0.13407 0.65857 0.0
C1044 C 0.9717 0.17441 0.55404 0.0
C1045 C 0.98689 0.17773 0.53351 0.0
C1046 C 0.98074 0.16313 0.57511 0.0
C1047 C 0.00516 0.15512 0.576 0.0
C1048 C 0.0206 0.15966 0.55584 0.0
C1049 C 0.01152 0.17075 0.53478 0.0
C1050 C 0.03507 0.10362 0.61133 0.0
C1051 C 0.0278 0.10856 0.6354 0.0
C1052 C 0.02824 0.11914 0.5923 0.0
C1053 C 0.01395 0.14005 0.59682 0.0
C1054 C 0.00715 0.14542 0.62099 0.0
C1055 C 0.01411 0.12983 0.64017 0.0
H1056 H 0.16157 0.19889 0.66405 0.0
H1057 H 0.12211 0.13292 0.68063 0.0
H1058 H 0.14524 0.21729 0.70069 0.0
H1059 H 0.10498 0.15182 0.71729 0.0
H1060 H 0.11034 0.18423 0.79593 0.0
H1061 H 0.11888 0.16417 0.75703 0.0
H1062 H 0.1092 0.23326 0.71928 0.0
H1063 H 0.10166 0.25314 0.75818 0.0
C1064 C 0.14909 0.18841 0.67534 0.0
C1065 C 0.14327 0.16438 0.66947 0.0
C1066 C 0.13953 0.19907 0.69632 0.0
C1067 C 0.1237 0.18608 0.71192 0.0
C1068 C 0.11731 0.16223 0.70576 0.0
C1069 C 0.127 0.15147 0.6847 0.0
C1070 C 0.10988 0.19491 0.77918 0.0
C1071 C 0.10602 0.22018 0.77983 0.0
C1072 C 0.11457 0.18348 0.75694 0.0
C1073 C 0.11516 0.19721 0.73507 0.0
C1074 C 0.10956 0.22228 0.73582 0.0
C1075 C 0.10518 0.23366 0.758 0.0
H1076 H 0.52648 0.31618 0.46845 0.0
H1077 H 0.45572 0.31522 0.43516 0.0
H1078 H 0.54329 0.33644 0.43244 0.0
H1079 H 0.4721 0.33708 0.39964 0.0
H1080 H 0.51178 0.36515 0.33204 0.0
H1081 H 0.49851 0.33697 0.36433 0.0
H1082 H 0.54059 0.37655 0.41633 0.0
H1083 H 0.55436 0.40393 0.3842 0.0
C1084 C 0.51457 0.32005 0.45328 0.0
C1085 C 0.48974 0.3143 0.45468 0.0
C1086 C 0.52412 0.33199 0.43275 0.0
C1087 C 0.50899 0.33879 0.41325 0.0
C1088 C 0.48434 0.33205 0.41423 0.0
C1089 C 0.47485 0.31982 0.43471 0.0
C1090 C 0.51842 0.36757 0.35033 0.0
C1091 C 0.53409 0.38681 0.35555 0.0
C1092 C 0.51069 0.35154 0.36886 0.0
C1093 C 0.51845 0.35445 0.39298 0.0
C1094 C 0.53455 0.3734 0.39796 0.0
C1095 C 0.54233 0.3893 0.37949 0.0
H1096 H 0.39003 0.80908 0.29417 0.0
H1097 H 0.37742 0.74188 0.25677 0.0
H1098 H 0.38055 0.83217 0.25684 0.0
H1099 H 0.36688 0.76463 0.22004 0.0
H1100 H 0.36266 0.80848 0.15188 0.0
H1101 H 0.38162 0.78974 0.18747 0.0
H1102 H 0.34424 0.84159 0.23385 0.0
H1103 H 0.32594 0.86084 0.19817 0.0
C1104 C 0.38529 0.79932 0.27792 0.0
C1105 C 0.38383 0.77381 0.2784 0.0
C1106 C 0.37972 0.81247 0.25663 0.0
C1107 C 0.37273 0.80027 0.23548 0.0
C1108 C 0.37237 0.77466 0.23586 0.0
C1109 C 0.37801 0.76159 0.25703 0.0
C1110 C 0.35873 0.81608 0.16964 0.0
C1111 C 0.34256 0.83595 0.17224 0.0
C1112 C 0.36953 0.80527 0.19007 0.0
C1113 C 0.36421 0.81395 0.21357 0.0
C1114 C 0.34893 0.83456 0.21602 0.0
C1115 C 0.33827 0.8455 0.19556 0.0
H1116 H 0.01051 0.61308 0.83752 0.0
H1117 H 0.93767 0.64327 0.84488 0.0
H1118 H 0.02358 0.6374 0.87149 0.0
H1119 H 0.95096 0.66812 0.8786 0.0
H1120 H 0.97563 0.67547 0.95894 0.0
H1121 H 0.96199 0.65929 0.92035 0.0
H1122 H 0.03131 0.6775 0.88697 0.0
H1123 H 0.04492 0.69345 0.92583 0.0
C1124 C 0.99738 0.62527 0.84606 0.0
C1125 C 0.97296 0.626 0.83866 0.0
C1126 C 0.00493 0.63936 0.8655 0.0
C1127 C 0.98826 0.65457 0.87794 0.0
C1128 C 0.96415 0.65627 0.86968 0.0
C1129 C 0.95657 0.64213 0.85025 0.0
C1130 C 0.98774 0.67637 0.94321 0.0
C1131 C 0.01137 0.68543 0.94532 0.0
C1132 C 0.97993 0.66719 0.92107 0.0
C1133 C 0.99561 0.66697 0.90056 0.0
C1134 C 0.01894 0.67702 0.9025 0.0
C1135 C 0.02673 0.68617 0.92468 0.0
H1136 H 0.29138 0.67211 0.36151 0.0
H1137 H 0.33261 0.65829 0.29532 0.0
H1138 H 0.25605 0.65268 0.34411 0.0
H1139 H 0.29717 0.63917 0.27787 0.0
H1140 H 0.23522 0.5891 0.26031 0.0
H1141 H 0.27079 0.6033 0.28231 0.0
H1142 H 0.22755 0.66302 0.31108 0.0
H1143 H 0.19208 0.64842 0.28935 0.0
C1144 C 0.29293 0.66489 0.34328 0.0
C1145 C 0.31474 0.66685 0.32972 0.0
C1146 C 0.27268 0.65382 0.33332 0.0
C1147 C 0.27386 0.64444 0.30965 0.0
C1148 C 0.29582 0.64595 0.29629 0.0
C1149 C 0.31606 0.65706 0.30622 0.0
C1150 C 0.23337 0.60492 0.27182 0.0
C1151 C 0.21112 0.6176 0.27358 0.0
C1152 C 0.25366 0.61318 0.28417 0.0
C1153 C 0.25193 0.63429 0.29837 0.0
C1154 C 0.22935 0.64652 0.30056 0.0
C1155 C 0.20912 0.63828 0.28815 0.0
H1156 H 0.73807 0.89459 0.76053 0.0
H1157 H 0.70128 0.88882 0.69202 0.0
H1158 H 0.77722 0.8873 0.7401 0.0
H1159 H 0.74036 0.88057 0.67141 0.0
H1160 H 0.81694 0.87736 0.63897 0.0
H1161 H 0.78036 0.89434 0.65861 0.0
H1162 H 0.79569 0.85162 0.7235 0.0
H1163 H 0.8323 0.83538 0.70432 0.0
C1164 C 0.73852 0.89187 0.74101 0.0
C1165 C 0.71688 0.89177 0.72778 0.0
C1166 C 0.76084 0.88759 0.72931 0.0
C1167 C 0.7619 0.88286 0.70419 0.0
C1168 C 0.74023 0.88423 0.69075 0.0
C1169 C 0.71788 0.8888 0.70248 0.0
C1170 C 0.81262 0.87188 0.65755 0.0
C1171 C 0.82751 0.85498 0.67007 0.0
C1172 C 0.7916 0.8815 0.66874 0.0
C1173 C 0.78509 0.87439 0.69265 0.0
C1174 C 0.80034 0.85789 0.70525 0.0
C1175 C 0.8213 0.84838 0.69415 0.0
H1176 H 0.83068 0.02701 0.47822 0.0
H1177 H 0.80254 0.06402 0.54163 0.0
H1178 H 0.84696 0.06537 0.46229 0.0
H1179 H 0.81863 0.1026 0.52576 0.0
H1180 H 0.87931 0.15709 0.50282 0.0
H1181 H 0.85806 0.12144 0.5186 0.0
H1182 H 0.83464 0.10497 0.44589 0.0
H1183 H 0.85636 0.14036 0.42999 0.0
C1184 C 0.82795 0.04346 0.48866 0.0
C1185 C 0.81573 0.04263 0.51125 0.0
C1186 C 0.83707 0.06544 0.47951 0.0
C1187 C 0.83409 0.08708 0.49276 0.0
C1188 C 0.82153 0.08622 0.51527 0.0
C1189 C 0.81237 0.06419 0.52438 0.0
C1190 C 0.86938 0.14606 0.49022 0.0
C1191 C 0.86979 0.15144 0.46509 0.0
C1192 C 0.8571 0.12565 0.4993 0.0
C1193 C 0.84489 0.11017 0.48347 0.0
C1194 C 0.84427 0.11626 0.45851 0.0
C1195 C 0.85657 0.13667 0.44942 0.0
H1196 H 0.7575 0.08863 0.23996 0.0
H1197 H 0.79679 0.15006 0.2105 0.0
H1198 H 0.7211 0.10182 0.21776 0.0
H1199 H 0.76038 0.16373 0.18865 0.0
H1200 H 0.69764 0.16909 0.13573 0.0
H1201 H 0.73392 0.15212 0.15508 0.0
H1202 H 0.69152 0.1356 0.21998 0.0
H1203 H 0.65516 0.15219 0.20055 0.0
C1204 C 0.75828 0.10484 0.22848 0.0
C1205 C 0.77977 0.11824 0.22648 0.0
C1206 C 0.7375 0.1125 0.21599 0.0
C1207 C 0.73791 0.13378 0.20142 0.0
C1208 C 0.75961 0.14706 0.1994 0.0
C1209 C 0.78036 0.13937 0.21193 0.0
C1210 C 0.69601 0.16168 0.15406 0.0
C1211 C 0.67355 0.16207 0.16665 0.0
C1212 C 0.71683 0.15208 0.16517 0.0
C1213 C 0.71559 0.14264 0.18907 0.0
C1214 C 0.693 0.1425 0.20144 0.0
C1215 C 0.67219 0.15212 0.19035 0.0
H1216 H 0.58595 0.88283 0.95887 0.0
H1217 H 0.63012 0.82737 0.99428 0.0
H1218 H 0.61464 0.9136 0.97022 0.0
H1219 H 0.65952 0.85846 0.00522 0.0
H1220 H 0.68388 0.9284 0.04696 0.0
H1221 H 0.66189 0.89307 0.03248 0.0
H1222 H 0.65479 0.92804 0.96182 0.0
H1223 H 0.67527 0.96375 0.97683 0.0
C1224 C 0.60197 0.87714 0.96889 0.0
C1225 C 0.60572 0.85264 0.97573 0.0
C1226 C 0.6186 0.89481 0.9752 0.0
C1227 C 0.63954 0.88848 0.98841 0.0
C1228 C 0.64349 0.86392 0.99511 0.0
C1229 C 0.62672 0.84613 0.9888 0.0
C1230 C 0.67772 0.92835 0.0283 0.0
C1231 C 0.68089 0.9489 0.01313 0.0
C1232 C 0.66538 0.90805 0.01991 0.0
C1233 C 0.65623 0.90792 0.99611 0.0
C1234 C 0.66113 0.92779 0.98043 0.0
C1235 C 0.67318 0.94813 0.9889 0.0
H1236 H 0.17615 0.30753 0.80166 0.0
H1237 H 0.16495 0.37558 0.8393 0.0
H1238 H 0.21506 0.32183 0.78596 0.0
H1239 H 0.20421 0.38993 0.82332 0.0
H1240 H 0.26223 0.41145 0.76162 0.0
H1241 H 0.22354 0.40019 0.78133 0.0
H1242 H 0.25568 0.33153 0.8044 0.0
H1243 H 0.29431 0.34301 0.78492 0.0
C1244 C 0.18193 0.32558 0.80655 0.0
C1245 C 0.16749 0.34038 0.82183 0.0
C1246 C 0.20433 0.33368 0.79767 0.0
C1247 C 0.21272 0.35684 0.80368 0.0
C1248 C 0.1981 0.37197 0.81846 0.0
C1249 C 0.1757 0.36374 0.82759 0.0
C1250 C 0.26108 0.39429 0.77152 0.0
C1251 C 0.28112 0.37816 0.77217 0.0
C1252 C 0.23902 0.38782 0.78269 0.0
C1253 C 0.23666 0.36497 0.79426 0.0
C1254 C 0.25699 0.34917 0.7954 0.0
C1255 C 0.27904 0.35573 0.78443 0.0
H1256 H 0.30154 0.42955 0.45445 0.0
H1257 H 0.31888 0.46295 0.52263 0.0
H1258 H 0.31723 0.39041 0.46972 0.0
H1259 H 0.33502 0.4241 0.53788 0.0
H1260 H 0.35275 0.34882 0.56477 0.0
H1261 H 0.32718 0.38269 0.5505 0.0
H1262 H 0.3571 0.37432 0.47779 0.0
H1263 H 0.38198 0.34022 0.49182 0.0
C1264 C 0.30868 0.42841 0.47274 0.0
C1265 C 0.30939 0.44918 0.48729 0.0
C1266 C 0.31766 0.40607 0.48149 0.0
C1267 C 0.3276 0.40414 0.50495 0.0
C1268 C 0.32724 0.42481 0.51985 0.0
C1269 C 0.31814 0.4471 0.51111 0.0
C1270 C 0.35352 0.35395 0.54565 0.0
C1271 C 0.3696 0.342 0.52949 0.0
C1272 C 0.33898 0.37345 0.53751 0.0
C1273 C 0.34026 0.3814 0.51305 0.0
C1274 C 0.35542 0.36857 0.49668 0.0
C1275 C 0.36986 0.34907 0.50479 0.0
H1276 H 0.19664 0.55483 0.95471 0.0
H1277 H 0.16802 0.52227 0.02089 0.0
H1278 H 0.18132 0.59482 0.96761 0.0
H1279 H 0.15261 0.56206 0.03389 0.0
H1280 H 0.14043 0.63871 0.05872 0.0
H1281 H 0.16424 0.60292 0.04654 0.0
H1282 H 0.14069 0.61335 0.9723 0.0
H1283 H 0.11726 0.64926 0.9843 0.0
C1284 C 0.18702 0.55633 0.972 0.0
C1285 C 0.18301 0.53558 0.98665 0.0
C1286 C 0.17833 0.57913 0.97941 0.0
C1287 C 0.16565 0.58157 0.0017 0.0
C1288 C 0.16254 0.56086 0.01675 0.0
C1289 C 0.17119 0.53808 0.00928 0.0
C1290 C 0.14068 0.63361 0.03972 0.0
C1291 C 0.12674 0.64667 0.02253 0.0
C1292 C 0.1542 0.61303 0.03279 0.0
C1293 C 0.15412 0.60516 0.00853 0.0
C1294 C 0.14128 0.61903 0.9911 0.0
C1295 C 0.12773 0.63956 0.99803 0.0
H1296 H 0.08751 0.04659 0.64354 0.0
H1297 H 0.12386 0.014 0.70537 0.0
H1298 H 0.12579 0.04849 0.62134 0.0
H1299 H 0.16289 0.01595 0.68292 0.0
H1300 H 0.21303 0.08234 0.65397 0.0
H1301 H 0.18549 0.05344 0.67312 0.0
H1302 H 0.16222 0.03087 0.60213 0.0
H1303 H 0.18977 0.06033 0.58302 0.0
C1304 C 0.10372 0.03929 0.65218 0.0
C1305 C 0.10284 0.03065 0.67635 0.0
C1306 C 0.12572 0.04002 0.63929 0.0
C1307 C 0.14754 0.03243 0.65033 0.0
C1308 C 0.1464 0.02199 0.67393 0.0
C1309 C 0.12413 0.0209 0.68679 0.0
C1310 C 0.20316 0.07011 0.64246 0.0
C1311 C 0.20317 0.07377 0.61709 0.0
C1312 C 0.18726 0.05349 0.65344 0.0
C1313 C 0.17102 0.04044 0.63916 0.0
C1314 C 0.17415 0.04111 0.61362 0.0
C1315 C 0.19016 0.05775 0.60262 0.0
H1316 H 0.59639 0.49452 0.33048 0.0
H1317 H 0.62301 0.43943 0.2813 0.0
H1318 H 0.63465 0.49169 0.35316 0.0
H1319 H 0.66086 0.43631 0.3036 0.0
H1320 H 0.72421 0.42469 0.34262 0.0
H1321 H 0.69847 0.4522 0.31863 0.0
H1322 H 0.64863 0.45859 0.37989 0.0
H1323 H 0.67493 0.43186 0.4039 0.0
C1324 C 0.61085 0.48251 0.32405 0.0
C1325 C 0.60706 0.46729 0.30417 0.0
C1326 C 0.63264 0.48076 0.33705 0.0
C1327 C 0.6509 0.46379 0.33026 0.0
C1328 C 0.64755 0.44995 0.30916 0.0
C1329 C 0.62579 0.45158 0.29639 0.0
C1330 C 0.70866 0.43341 0.35142 0.0
C1331 C 0.70149 0.42623 0.37504 0.0
C1332 C 0.69366 0.44884 0.33757 0.0
C1333 C 0.67104 0.45689 0.34704 0.0
C1334 C 0.66585 0.45272 0.37193 0.0
C1335 C 0.68105 0.43749 0.38585 0.0
H1336 H 0.36003 0.94581 0.20182 0.0
H1337 H 0.39348 0.9938 0.1488 0.0
H1338 H 0.32534 0.94098 0.17545 0.0
H1339 H 0.3583 0.98968 0.12223 0.0
H1340 H 0.3289 0.92515 0.07433 0.0
H1341 H 0.3496 0.95475 0.09876 0.0
H1342 H 0.29076 0.9522 0.1519 0.0
H1343 H 0.27058 0.92176 0.12749 0.0
C1344 C 0.35926 0.95632 0.18498 0.0
C1345 C 0.37918 0.97022 0.17728 0.0
C1346 C 0.33931 0.95367 0.16979 0.0
C1347 C 0.33904 0.96474 0.14646 0.0
C1348 C 0.35803 0.98066 0.13991 0.0
C1349 C 0.37806 0.98322 0.15515 0.0
C1350 C 0.31969 0.9321 0.09045 0.0
C1351 C 0.29822 0.92127 0.09908 0.0
C1352 C 0.33162 0.94906 0.10464 0.0
C1353 C 0.32222 0.95536 0.12776 0.0
C1354 C 0.2988 0.94729 0.13448 0.0
C1355 C 0.28699 0.93015 0.12033 0.0
H1356 H 0.82193 0.56326 0.92441 0.0
H1357 H 0.79092 0.57876 0.85411 0.0
H1358 H 0.85112 0.53494 0.90553 0.0
H1359 H 0.81999 0.55099 0.83514 0.0
H1360 H 0.88121 0.51159 0.80138 0.0
H1361 H 0.84424 0.51408 0.82694 0.0
H1362 H 0.88453 0.55205 0.88151 0.0
H1363 H 0.92095 0.54945 0.85632 0.0
C1364 C 0.8204 0.55946 0.90518 0.0
C1365 C 0.80438 0.5732 0.89063 0.0
C1366 C 0.8373 0.5435 0.89427 0.0
C1367 C 0.83836 0.54125 0.86872 0.0
C1368 C 0.81979 0.55221 0.85482 0.0
C1369 C 0.80302 0.56816 0.86569 0.0
C1370 C 0.8822 0.51984 0.81915 0.0
C1371 C 0.90379 0.5308 0.82665 0.0
C1372 C 0.86107 0.52126 0.83378 0.0
C1373 C 0.86134 0.53337 0.85625 0.0
C1374 C 0.88358 0.54232 0.86453 0.0
C1375 C 0.90448 0.54115 0.84988 0.0
H1376 H 0.63292 0.07767 0.05439 0.0
H1377 H 0.68959 0.11561 0.01462 0.0
H1378 H 0.60902 0.11494 0.05668 0.0
H1379 H 0.66535 0.15345 0.0168 0.0
H1380 H 0.6397 0.20716 0.08103 0.0
H1381 H 0.65773 0.17784 0.05322 0.0
H1382 H 0.58633 0.14928 0.03942 0.0
H1383 H 0.56838 0.1787 0.06778 0.0
C1384 C 0.64002 0.09394 0.04561 0.0
C1385 C 0.66336 0.09385 0.0348 0.0
C1386 C 0.62611 0.11534 0.0466 0.0
C1387 C 0.63526 0.13732 0.03701 0.0
C1388 C 0.65784 0.13684 0.02447 0.0
C1389 C 0.67172 0.11521 0.02323 0.0
C1390 C 0.62771 0.1956 0.0709 0.0
C1391 C 0.60274 0.19494 0.07669 0.0
C1392 C 0.63806 0.17868 0.05493 0.0
C1393 C 0.62355 0.16068 0.04466 0.0
C1394 C 0.59803 0.16261 0.04748 0.0
C1395 C 0.58767 0.17967 0.06346 0.0
H1396 H 0.54877 0.84487 0.91307 0.0
H1397 H 0.51879 0.78488 0.87382 0.0
H1398 H 0.55159 0.86864 0.87582 0.0
H1399 H 0.52159 0.80901 0.83581 0.0
H1400 H 0.58573 0.84188 0.78467 0.0
H1401 H 0.55859 0.82066 0.81277 0.0
H1402 H 0.53339 0.88975 0.84107 0.0
H1403 H 0.56115 0.91094 0.813 0.0
C1404 C 0.54238 0.83689 0.89644 0.0
C1405 C 0.53408 0.81281 0.89628 0.0
C1406 C 0.5436 0.85072 0.87503 0.0
C1407 C 0.53679 0.8408 0.85271 0.0
C1408 C 0.52702 0.81717 0.85272 0.0
C1409 C 0.52545 0.80335 0.87441 0.0
C1410 C 0.57333 0.85257 0.7959 0.0
C1411 C 0.57574 0.87798 0.79697 0.0
C1412 C 0.55773 0.84038 0.8121 0.0
C1413 C 0.54439 0.85347 0.82973 0.0
C1414 C 0.54389 0.87914 0.82803 0.0
C1415 C 0.55953 0.89135 0.81173 0.0
H1416 H 0.84611 0.77722 0.58627 0.0
H1417 H 0.90644 0.82305 0.56613 0.0
H1418 H 0.81874 0.80339 0.56265 0.0
H1419 H 0.8791 0.84921 0.5423 0.0
H1420 H 0.81733 0.89589 0.50748 0.0
H1421 H 0.84079 0.85735 0.51006 0.0
H1422 H 0.81583 0.84741 0.58443 0.0
H1423 H 0.79336 0.88594 0.58213 0.0
C1424 C 0.85383 0.79184 0.57528 0.0
C1425 C 0.8783 0.79822 0.57802 0.0
C1426 C 0.83811 0.80695 0.56196 0.0
C1427 C 0.84678 0.82851 0.55111 0.0
C1428 C 0.872 0.83262 0.55044 0.0
C1429 C 0.88772 0.81753 0.56393 0.0
C1430 C 0.81644 0.88505 0.5241 0.0
C1431 C 0.80359 0.89371 0.54463 0.0
C1432 C 0.82983 0.86312 0.52556 0.0
C1433 C 0.82978 0.84931 0.5473 0.0
C1434 C 0.81577 0.85745 0.56728 0.0
C1435 C 0.80305 0.87955 0.56606 0.0
H1436 H 0.92069 0.1986 0.3749 0.0
H1437 H 0.98846 0.16184 0.39168 0.0
H1438 H 0.91672 0.1739 0.33864 0.0
H1439 H 0.9841 0.13621 0.35552 0.0
H1440 H 0.92193 0.07776 0.32635 0.0
H1441 H 0.94788 0.10413 0.34999 0.0
H1442 H 0.9376 0.16192 0.2969 0.0
H1443 H 0.91188 0.13539 0.27322 0.0
C1444 C 0.93506 0.18563 0.37036 0.0
C1445 C 0.95491 0.18212 0.38582 0.0
C1446 C 0.9329 0.17158 0.34956 0.0
C1447 C 0.95025 0.15329 0.34416 0.0
C1448 C 0.97067 0.15038 0.35916 0.0
C1449 C 0.97316 0.165 0.37973 0.0
C1450 C 0.92672 0.09546 0.31886 0.0
C1451 C 0.9151 0.10456 0.29796 0.0
C1452 C 0.94144 0.11066 0.33247 0.0
C1453 C 0.94435 0.13518 0.32544 0.0
C1454 C 0.93555 0.14311 0.30273 0.0
C1455 C 0.92105 0.12784 0.28904 0.0
H1456 H 0.08156 0.30502 0.93272 0.0
H1457 H 0.15196 0.27777 0.90933 0.0
H1458 H 0.10133 0.33212 0.9612 0.0
H1459 H 0.17175 0.30484 0.93727 0.0
H1460 H 0.20517 0.3638 0.97862 0.0
H1461 H 0.18183 0.32607 0.97504 0.0
H1462 H 0.12204 0.36766 0.94421 0.0
H1463 H 0.14508 0.40463 0.94778 0.0
C1464 C 0.10116 0.30379 0.93471 0.0
C1465 C 0.1153 0.28961 0.91868 0.0
C1466 C 0.11254 0.31951 0.95079 0.0
C1467 C 0.13816 0.32119 0.95095 0.0
C1468 C 0.15204 0.30414 0.93764 0.0
C1469 C 0.14068 0.28856 0.92157 0.0
C1470 C 0.1868 0.36477 0.97168 0.0
C1471 C 0.17711 0.38699 0.96296 0.0
C1472 C 0.17344 0.34325 0.96964 0.0
C1473 C 0.15004 0.34378 0.9593 0.0
C1474 C 0.13979 0.36644 0.95257 0.0
C1475 C 0.15318 0.38769 0.95425 0.0
H1476 H 0.41458 0.34116 0.71323 0.0
H1477 H 0.43354 0.41337 0.68836 0.0
H1478 H 0.44317 0.32357 0.68411 0.0
H1479 H 0.46261 0.39582 0.65913 0.0
H1480 H 0.44764 0.35494 0.58541 0.0
H1481 H 0.44515 0.37645 0.62358 0.0
H1482 H 0.48066 0.31571 0.66013 0.0
H1483 H 0.48315 0.29396 0.62136 0.0
C1484 C 0.42608 0.3533 0.70256 0.0
C1485 C 0.42166 0.37856 0.70272 0.0
C1486 C 0.4425 0.34322 0.68576 0.0
C1487 C 0.45459 0.35828 0.66872 0.0
C1488 C 0.45313 0.38373 0.6717 0.0
C1489 C 0.43672 0.39384 0.68866 0.0
C1490 C 0.45544 0.34635 0.60146 0.0
C1491 C 0.4651 0.32256 0.60053 0.0
C1492 C 0.45435 0.35886 0.62336 0.0
C1493 C 0.46264 0.3478 0.64503 0.0
C1494 C 0.47404 0.32468 0.64377 0.0
C1495 C 0.47544 0.31223 0.62162 0.0
H1496 H 0.34787 0.71286 0.41421 0.0
H1497 H 0.41833 0.67934 0.42542 0.0
H1498 H 0.32897 0.68174 0.43976 0.0
H1499 H 0.3995 0.64808 0.45131 0.0
H1500 H 0.35149 0.58052 0.43174 0.0
H1501 H 0.37521 0.61738 0.42993 0.0
H1502 H 0.32163 0.65382 0.47545 0.0
H1503 H 0.29763 0.61637 0.47739 0.0
C1504 C 0.35951 0.69975 0.42355 0.0
C1505 C 0.38448 0.69829 0.41768 0.0
C1506 C 0.34866 0.68177 0.43812 0.0
C1507 C 0.36265 0.662 0.4469 0.0
C1508 C 0.38821 0.66286 0.44435 0.0
C1509 C 0.39908 0.68099 0.42983 0.0
C1510 C 0.34485 0.59624 0.44168 0.0
C1511 C 0.32245 0.59565 0.45434 0.0
C1512 C 0.3587 0.61733 0.44098 0.0
C1513 C 0.35043 0.63856 0.4527 0.0
C1514 C 0.32851 0.63773 0.4663 0.0
C1515 C 0.31474 0.61635 0.46732 0.0
H1516 H 0.01553 0.69561 0.11453 0.0
H1517 H 0.0502 0.63588 0.07648 0.0
H1518 H 0.01988 0.67302 0.15315 0.0
H1519 H 0.05464 0.61358 0.11456 0.0
H1520 H 0.06841 0.57561 0.18055 0.0
H1521 H 0.03948 0.59319 0.15141 0.0
H1522 H 0.05819 0.66541 0.17462 0.0
H1523 H 0.08663 0.64778 0.20361 0.0
C1524 C 0.02339 0.6774 0.11432 0.0
C1525 C 0.03296 0.66769 0.0926 0.0
C1526 C 0.02592 0.66448 0.13641 0.0
C1527 C 0.03777 0.64154 0.13703 0.0
C1528 C 0.04518 0.63102 0.11487 0.0
C1529 C 0.04291 0.64398 0.09299 0.0
C1530 C 0.06518 0.59513 0.18037 0.0
C1531 C 0.07974 0.6104 0.19415 0.0
C1532 C 0.04885 0.60525 0.16349 0.0
C1533 C 0.04696 0.63074 0.16024 0.0
C1534 C 0.05906 0.64575 0.17658 0.0
C1535 C 0.07541 0.63566 0.19327 0.0
H1536 H 0.32195 0.14296 0.58707 0.0
H1537 H 0.33587 0.13178 0.51022 0.0
H1538 H 0.35928 0.16482 0.59002 0.0
H1539 H 0.37348 0.15484 0.51334 0.0
H1540 H 0.44472 0.19554 0.53198 0.0
H1541 H 0.41624 0.1612 0.53376 0.0
H1542 H 0.36321 0.20683 0.57076 0.0
H1543 H 0.39114 0.24077 0.56866 0.0
C1544 C 0.33321 0.14401 0.5709 0.0
C1545 C 0.32541 0.1354 0.54827 0.0
C1546 C 0.35474 0.15703 0.57265 0.0
C1547 C 0.36906 0.16192 0.55186 0.0
C1548 C 0.36277 0.15132 0.52971 0.0
C1549 C 0.34114 0.1382 0.52794 0.0
C1550 C 0.42712 0.19796 0.54084 0.0
C1551 C 0.42006 0.22078 0.55013 0.0
C1552 C 0.41084 0.17841 0.54174 0.0
C1553 C 0.38761 0.18132 0.55253 0.0
C1554 C 0.38111 0.2039 0.56265 0.0
C1555 C 0.39705 0.22341 0.56131 0.0
H1556 H 0.49162 0.5756 0.23166 0.0
H1557 H 0.55096 0.5822 0.28186 0.0
H1558 H 0.47032 0.60934 0.25134 0.0
H1559 H 0.52907 0.61529 0.30241 0.0
H1560 H 0.48622 0.68552 0.32383 0.0
H1561 H 0.51182 0.65698 0.30058 0.0
H1562 H 0.44955 0.61104 0.29058 0.0
H1563 H 0.4241 0.63941 0.31323 0.0
C1564 C 0.50031 0.58452 0.24667 0.0
C1565 C 0.52265 0.57581 0.25566 0.0
C1566 C 0.48796 0.60365 0.25816 0.0
C1567 C 0.49767 0.61452 0.27889 0.0
C1568 C 0.52098 0.60717 0.28662 0.0
C1569 C 0.5334 0.58804 0.27502 0.0
C1570 C 0.47808 0.66924 0.31678 0.0
C1571 C 0.45306 0.66485 0.32029 0.0
C1572 C 0.49273 0.65292 0.30344 0.0
C1573 C 0.48263 0.63197 0.29335 0.0
C1574 C 0.45779 0.62734 0.2975 0.0
C1575 C 0.44322 0.64354 0.31073 0.0
H1576 H 0.05757 0.79534 0.02299 0.0
H1577 H 0.11034 0.74961 0.05999 0.0
H1578 H 0.08624 0.8295 0.02354 0.0
H1579 H 0.13841 0.78355 0.06111 0.0
H1580 H 0.17802 0.84914 0.07634 0.0
H1581 H 0.14042 0.8273 0.07966 0.0
H1582 H 0.13102 0.83354 0.002 0.0
H1583 H 0.16911 0.85601 0.99835 0.0
C1584 C 0.07503 0.79279 0.0317 0.0
C1585 C 0.08182 0.76989 0.04142 0.0
C1586 C 0.09139 0.81223 0.03191 0.0
C1587 C 0.11441 0.80915 0.04251 0.0
C1588 C 0.12066 0.78652 0.05311 0.0
C1589 C 0.10466 0.76706 0.05236 0.0
C1590 C 0.16779 0.84712 0.05992 0.0
C1591 C 0.1771 0.85435 0.03693 0.0
C1592 C 0.14609 0.83424 0.06193 0.0
C1593 C 0.13304 0.82843 0.04108 0.0
C1594 C 0.14076 0.83783 0.01839 0.0
C1595 C 0.16263 0.85063 0.01633 0.0
H1596 H 0.00615 0.30839 0.83615 0.0
H1597 H 0.06857 0.35192 0.81604 0.0
H1598 H 0.97952 0.33782 0.815 0.0
H1599 H 0.04219 0.38092 0.7953 0.0
H1600 H 0.99602 0.41576 0.73906 0.0
H1601 H 0.01735 0.3814 0.75807 0.0
H1602 H 0.96513 0.38171 0.81764 0.0
H1603 H 0.94325 0.41572 0.79811 0.0
C1604 C 0.01417 0.32425 0.82744 0.0
C1605 C 0.03954 0.32766 0.8277 0.0
C1606 C 0.99893 0.34105 0.81531 0.0
C1607 C 0.00883 0.36142 0.8031 0.0
C1608 C 0.03406 0.36509 0.80398 0.0
C1609 C 0.04918 0.3485 0.81611 0.0
C1610 C 0.9887 0.4081 0.75588 0.0
C1611 C 0.9683 0.41877 0.7674 0.0
C1612 C 0.00107 0.38859 0.76692 0.0
C1613 C 0.99326 0.37925 0.78966 0.0
C1614 C 0.97168 0.38861 0.80021 0.0
C1615 C 0.95929 0.4082 0.78914 0.0
H1616 H 0.82588 0.35436 0.41096 0.0
H1617 H 0.82756 0.36944 0.48805 0.0
H1618 H 0.86481 0.33389 0.41359 0.0
H1619 H 0.86672 0.34803 0.49062 0.0
H1620 H 0.89741 0.26671 0.48539 0.0
H1621 H 0.87036 0.30216 0.48544 0.0
H1622 H 0.91037 0.33297 0.42439 0.0
H1623 H 0.93799 0.29728 0.42466 0.0
C1624 C 0.83482 0.35448 0.42829 0.0
C1625 C 0.82317 0.36368 0.44935 0.0
C1626 C 0.85737 0.34248 0.42977 0.0
C1627 C 0.86869 0.3391 0.45235 0.0
C1628 C 0.85827 0.35019 0.47299 0.0
C1629 C 0.83582 0.36245 0.47148 0.0
C1630 C 0.90078 0.2813 0.47232 0.0
C1631 C 0.91962 0.2792 0.45488 0.0
C1632 C 0.88543 0.30172 0.47249 0.0
C1633 C 0.88827 0.32037 0.45495 0.0
C1634 C 0.90783 0.31886 0.43815 0.0
C1635 C 0.92361 0.29852 0.43831 0.0
H1636 H 0.43309 0.0829 0.20557 0.0
H1637 H 0.48829 0.07271 0.26019 0.0
H1638 H 0.45632 0.11632 0.18734 0.0
H1639 H 0.51082 0.1068 0.24283 0.0
H1640 H 0.56157 0.13757 0.18445 0.0
H1641 H 0.53461 0.10953 0.20547 0.0
H1642 H 0.4733 0.15745 0.19083 0.0
H1643 H 0.50048 0.1857 0.16918 0.0
C1644 C 0.45001 0.08799 0.21386 0.0
C1645 C 0.45928 0.07464 0.2338 0.0
C1646 C 0.46318 0.10734 0.2036 0.0
C1647 C 0.48574 0.11382 0.21326 0.0
C1648 C 0.49384 0.10182 0.23453 0.0
C1649 C 0.48075 0.08246 0.24468 0.0
C1650 C 0.54236 0.14227 0.18564 0.0
C1651 C 0.53325 0.164 0.17513 0.0
C1652 C 0.5269 0.12623 0.19794 0.0
C1653 C 0.50184 0.13141 0.20021 0.0
C1654 C 0.49253 0.15293 0.1894 0.0
C1655 C 0.5081 0.16911 0.17701 0.0
H1656 H 0.56155 0.6917 0.93683 0.0
H1657 H 0.60474 0.72969 0.98902 0.0
H1658 H 0.58988 0.65663 0.93937 0.0
H1659 H 0.63243 0.6949 0.99182 0.0
H1660 H 0.67324 0.62774 0.00444 0.0
H1661 H 0.63448 0.6499 0.00488 0.0
H1662 H 0.63556 0.65294 0.92635 0.0
H1663 H 0.67405 0.6315 0.92563 0.0
C1664 C 0.57683 0.6924 0.94906 0.0
C1665 C 0.58111 0.71352 0.9625 0.0
C1666 C 0.59297 0.67238 0.95053 0.0
C1667 C 0.6132 0.67296 0.96597 0.0
C1668 C 0.61679 0.69372 0.98008 0.0
C1669 C 0.60107 0.71379 0.97823 0.0
C1670 C 0.66493 0.63242 0.98718 0.0
C1671 C 0.67748 0.62814 0.96506 0.0
C1672 C 0.64269 0.64515 0.98749 0.0
C1673 C 0.63229 0.65356 0.96565 0.0
C1674 C 0.64315 0.64666 0.94348 0.0
C1675 C 0.66551 0.63415 0.94316 0.0
H1676 H 0.02962 0.8972 0.75286 0.0
H1677 H 0.02694 0.9405 0.68652 0.0
H1678 H 0.01008 0.86365 0.73155 0.0
H1679 H 0.00861 0.90729 0.66562 0.0
H1680 H 0.9371 0.86467 0.65702 0.0
H1681 H 0.96513 0.89294 0.67508 0.0
H1682 H 0.01424 0.83335 0.69266 0.0
H1683 H 0.98599 0.80469 0.6741 0.0
C1684 C 0.02573 0.89928 0.73364 0.0
C1685 C 0.03047 0.92142 0.72138 0.0
C1686 C 0.01467 0.88009 0.72146 0.0
C1687 C 0.00789 0.88297 0.69696 0.0
C1688 C 0.01372 0.90458 0.68449 0.0
C1689 C 0.02467 0.92359 0.69653 0.0
C1690 C 0.95401 0.85758 0.66442 0.0
C1691 C 0.95942 0.83252 0.66407 0.0
C1692 C 0.97007 0.87377 0.67473 0.0
C1693 C 0.99183 0.86529 0.68522 0.0
C1694 C 0.99753 0.84026 0.6847 0.0
C1695 C 0.98153 0.82398 0.67391 0.0
H1696 H 0.49449 0.32872 0.1345 0.0
H1697 H 0.57308 0.32087 0.13259 0.0
H1698 H 0.49863 0.36694 0.15629 0.0
H1699 H 0.57676 0.35855 0.15358 0.0
H1700 H 0.56328 0.38721 0.23343 0.0
H1701 H 0.56169 0.35938 0.19937 0.0
H1702 H 0.5192 0.41217 0.15855 0.0
H1703 H 0.52133 0.44062 0.1928 0.0
C1704 C 0.51263 0.33539 0.13775 0.0
C1705 C 0.53333 0.32096 0.132 0.0
C1706 C 0.51494 0.35738 0.15016 0.0
C1707 C 0.53801 0.36536 0.15699 0.0
C1708 C 0.55873 0.35261 0.14873 0.0
C1709 C 0.55646 0.33077 0.13631 0.0
C1710 C 0.55388 0.39306 0.21709 0.0
C1711 C 0.54242 0.41604 0.21574 0.0
C1712 C 0.5531 0.3772 0.19753 0.0
C1713 C 0.54045 0.38372 0.1763 0.0
C1714 C 0.52915 0.40681 0.17471 0.0
C1715 C 0.53045 0.42304 0.1942 0.0
H1716 H 0.41532 0.78087 0.9341 0.0
H1717 H 0.42048 0.7289 0.99364 0.0
H1718 H 0.38205 0.80212 0.95557 0.0
H1719 H 0.38692 0.74955 0.01461 0.0
H1720 H 0.36343 0.81455 0.06016 0.0
H1721 H 0.38969 0.79056 0.03374 0.0
H1722 H 0.33907 0.80058 0.97482 0.0
H1723 H 0.31232 0.82495 0.00151 0.0
C1724 C 0.40893 0.77365 0.95146 0.0
C1725 C 0.4209 0.75366 0.96252 0.0
C1726 C 0.38982 0.78571 0.96366 0.0
C1727 C 0.38238 0.77783 0.98702 0.0
C1728 C 0.3927 0.75634 0.99685 0.0
C1729 C 0.41173 0.74434 0.9847 0.0
C1730 C 0.35777 0.8118 0.04159 0.0
C1731 C 0.33561 0.82158 0.03305 0.0
C1732 C 0.37278 0.79782 0.02649 0.0
C1733 C 0.36615 0.79323 0.00239 0.0
C1734 C 0.3445 0.80371 0.9934 0.0
C1735 C 0.32927 0.81769 0.00865 0.0
H1736 H 0.96566 0.55358 0.69385 0.0
H1737 H 0.92966 0.60702 0.73929 0.0
H1738 H 0.96343 0.58214 0.65889 0.0
H1739 H 0.92693 0.63501 0.70464 0.0
H1740 H 0.90986 0.676 0.63996 0.0
H1741 H 0.90713 0.63818 0.66214 0.0
H1742 H 0.98431 0.62582 0.65221 0.0
H1743 H 0.98733 0.66407 0.62912 0.0
C1744 C 0.95678 0.57116 0.69618 0.0
C1745 C 0.94785 0.57818 0.71921 0.0
C1746 C 0.95561 0.58746 0.67628 0.0
C1747 C 0.94487 0.61067 0.67906 0.0
C1748 C 0.935 0.61712 0.70187 0.0
C1749 C 0.93668 0.60116 0.72175 0.0
C1750 C 0.92625 0.66513 0.64114 0.0
C1751 C 0.94899 0.67371 0.63275 0.0
C1752 C 0.92459 0.64326 0.65427 0.0
C1753 C 0.94554 0.62933 0.65929 0.0
C1754 C 0.96783 0.63626 0.64861 0.0
C1755 C 0.96953 0.65826 0.63546 0.0
H1756 H 0.09951 0.24036 0.45206 0.0
H1757 H 0.05137 0.18271 0.47557 0.0
H1758 H 0.13277 0.22056 0.47483 0.0
H1759 H 0.08424 0.16288 0.49699 0.0
H1760 H 0.13355 0.15958 0.56315 0.0
H1761 H 0.10395 0.1759 0.53468 0.0
H1762 H 0.15995 0.18154 0.47893 0.0
H1763 H 0.19006 0.16511 0.50779 0.0
C1764 C 0.09619 0.22318 0.4614 0.0
C1765 C 0.07286 0.21291 0.46136 0.0
C1766 C 0.11521 0.21182 0.47432 0.0
C1767 C 0.11105 0.1902 0.48772 0.0
C1768 C 0.088 0.17955 0.48691 0.0
C1769 C 0.06916 0.19082 0.47412 0.0
C1770 C 0.13965 0.1641 0.5448 0.0
C1771 C 0.16418 0.16099 0.53774 0.0
C1772 C 0.12261 0.17337 0.52842 0.0
C1773 C 0.12961 0.1799 0.50453 0.0
C1774 C 0.15411 0.17672 0.49728 0.0
C1775 C 0.17124 0.16714 0.51371 0.0
H1776 H 0.07956 0.1695 0.8599 0.0
H1777 H 0.0013 0.16211 0.86632 0.0
H1778 H 0.08215 0.13293 0.83691 0.0
H1779 H 0.00424 0.12516 0.84201 0.0
H1780 H 0.02439 0.05356 0.79916 0.0
H1781 H 0.02407 0.08041 0.83484 0.0
H1782 H 0.06507 0.13369 0.7934 0.0
H1783 H 0.06498 0.10746 0.75811 0.0
C1784 C 0.06287 0.15987 0.85764 0.0
C1785 C 0.04006 0.16948 0.86513 0.0
C1786 C 0.06448 0.1387 0.84394 0.0
C1787 C 0.0434 0.1265 0.83725 0.0
C1788 C 0.02083 0.13428 0.84689 0.0
C1789 C 0.01919 0.15555 0.86074 0.0
C1790 C 0.03361 0.07087 0.79794 0.0
C1791 C 0.04469 0.07849 0.77591 0.0
C1792 C 0.03331 0.08621 0.81824 0.0
C1793 C 0.04469 0.109 0.8169 0.0
C1794 C 0.05644 0.11609 0.79509 0.0
C1795 C 0.05627 0.10113 0.77482 0.0
H1796 H 0.60282 0.2524 0.53499 0.0
H1797 H 0.55251 0.30803 0.50942 0.0
H1798 H 0.63568 0.27192 0.5111 0.0
H1799 H 0.58486 0.32743 0.48663 0.0
H1800 H 0.63629 0.33083 0.42124 0.0
H1801 H 0.60698 0.31283 0.44937 0.0
H1802 H 0.66019 0.31289 0.50657 0.0
H1803 H 0.68999 0.33107 0.47814 0.0
C1804 C 0.59891 0.26903 0.52483 0.0
C1805 C 0.57517 0.27894 0.52468 0.0
C1806 C 0.61766 0.28021 0.51128 0.0
C1807 C 0.61275 0.30116 0.49703 0.0
C1808 C 0.58917 0.31128 0.49738 0.0
C1809 C 0.57064 0.30026 0.51086 0.0
C1810 C 0.64185 0.32713 0.4398 0.0
C1811 C 0.66547 0.33251 0.44746 0.0
C1812 C 0.62499 0.31686 0.45595 0.0
C1813 C 0.6313 0.31158 0.48017 0.0
C1814 C 0.65494 0.31673 0.48794 0.0
C1815 C 0.67186 0.3273 0.47175 0.0
H1816 H 0.43676 0.83318 0.37758 0.0
H1817 H 0.49248 0.809 0.32661 0.0
H1818 H 0.4298 0.86974 0.35218 0.0
H1819 H 0.48592 0.84546 0.30207 0.0
H1820 H 0.44828 0.94002 0.29636 0.0
H1821 H 0.45527 0.90998 0.32939 0.0
H1822 H 0.44209 0.85172 0.27948 0.0
H1823 H 0.43497 0.88114 0.24689 0.0
C1824 C 0.44776 0.83576 0.36128 0.0
C1825 C 0.46451 0.81763 0.35368 0.0
C1826 C 0.44395 0.85681 0.34694 0.0
C1827 C 0.45698 0.86 0.32498 0.0
C1828 C 0.4754 0.84318 0.31878 0.0
C1829 C 0.47923 0.82233 0.33301 0.0
C1830 C 0.44644 0.92081 0.29262 0.0
C1831 C 0.44147 0.91297 0.26888 0.0
C1832 C 0.45046 0.90371 0.31148 0.0
C1833 C 0.44966 0.87865 0.30672 0.0
C1834 C 0.44326 0.87097 0.28344 0.0
C1835 C 0.43917 0.88788 0.26479 0.0
H1836 H 0.9277 0.75148 0.99037 0.0
H1837 H 0.91285 0.70929 0.05559 0.0
H1838 H 0.89343 0.73322 0.97058 0.0
H1839 H 0.87722 0.69181 0.03641 0.0
H1840 H 0.8376 0.64189 0.98277 0.0
H1841 H 0.86697 0.66335 0.00751 0.0
H1842 H 0.85245 0.72959 0.96613 0.0
H1843 H 0.82486 0.70746 0.94048 0.0
C1844 C 0.91645 0.73889 0.00076 0.0
C1845 C 0.92275 0.73185 0.0245 0.0
C1846 C 0.89666 0.72838 0.98944 0.0
C1847 C 0.8823 0.71091 0.00179 0.0
C1848 C 0.88803 0.7048 0.02609 0.0
C1849 C 0.90823 0.715 0.03724 0.0
C1850 C 0.84071 0.66107 0.97924 0.0
C1851 C 0.82939 0.67302 0.95963 0.0
C1852 C 0.85739 0.6735 0.99348 0.0
C1853 C 0.86252 0.69826 0.98869 0.0
C1854 C 0.84976 0.7104 0.96995 0.0
C1855 C 0.83374 0.69782 0.95534 0.0
H1856 H 0.12918 0.4987 0.32932 0.0
H1857 H 0.13785 0.57691 0.32563 0.0
H1858 H 0.15128 0.49759 0.36751 0.0
H1859 H 0.15941 0.57557 0.36352 0.0
H1860 H 0.19895 0.56451 0.43603 0.0
H1861 H 0.16324 0.56422 0.40931 0.0
H1862 H 0.19663 0.506 0.36795 0.0
H1863 H 0.23197 0.50658 0.39401 0.0
C1864 C 0.13496 0.51578 0.3369 0.0
C1865 C 0.13206 0.53778 0.32368 0.0
C1866 C 0.14766 0.51509 0.35881 0.0
C1867 C 0.15753 0.53644 0.3682 0.0
C1868 C 0.15202 0.5588 0.35674 0.0
C1869 C 0.13946 0.55948 0.33472 0.0
C1870 C 0.19837 0.55147 0.42142 0.0
C1871 C 0.21831 0.53576 0.41691 0.0
C1872 C 0.17801 0.55131 0.40617 0.0
C1873 C 0.17706 0.53495 0.38667 0.0
C1874 C 0.19658 0.51854 0.38303 0.0
C1875 C 0.21698 0.51908 0.39781 0.0
H1876 H 0.70397 0.93209 0.58264 0.0
H1877 H 0.71772 0.00898 0.58737 0.0
H1878 H 0.67134 0.93589 0.61322 0.0
H1879 H 0.68424 0.01335 0.61677 0.0
H1880 H 0.6603 0.0012 0.69636 0.0
H1881 H 0.68209 0.00263 0.65798 0.0
H1882 H 0.63268 0.95032 0.62838 0.0
H1883 H 0.61075 0.94872 0.6675 0.0
C1884 C 0.6993 0.94995 0.58961 0.0
C1885 C 0.71324 0.97024 0.5829 0.0
C1886 C 0.68056 0.95222 0.60705 0.0
C1887 C 0.67535 0.97489 0.61785 0.0
C1888 C 0.68812 0.9955 0.60938 0.0
C1889 C 0.70713 0.99311 0.59239 0.0
C1890 C 0.65358 0.99041 0.68156 0.0
C1891 C 0.63404 0.97444 0.68523 0.0
C1892 C 0.66612 0.9913 0.65935 0.0
C1893 C 0.65934 0.97645 0.63997 0.0
C1894 C 0.63873 0.96164 0.64306 0.0
C1895 C 0.62616 0.9607 0.66548 0.0
H1896 H 0.84311 0.00472 0.32294 0.0
H1897 H 0.78519 0.05729 0.33545 0.0
H1898 H 0.82368 0.97664 0.35237 0.0
H1899 H 0.76562 0.02917 0.36412 0.0
H1900 H 0.72958 0.96722 0.40575 0.0
H1901 H 0.74657 0.98445 0.36778 0.0
H1902 H 0.81763 0.98613 0.40015 0.0
H1903 H 0.80081 0.97091 0.43806 0.0
C1904 C 0.82602 0.01002 0.33157 0.0
C1905 C 0.81581 0.03325 0.32727 0.0
C1906 C 0.81491 0.994 0.34828 0.0
C1907 C 0.7931 0.00076 0.3603 0.0
C1908 C 0.78223 0.02341 0.35485 0.0
C1909 C 0.79359 0.03959 0.33868 0.0
C1910 C 0.74894 0.97069 0.40453 0.0
C1911 C 0.76387 0.96675 0.42486 0.0
C1912 C 0.75863 0.98047 0.38282 0.0
C1913 C 0.78348 0.98616 0.381 0.0
C1914 C 0.79858 0.98119 0.40085 0.0
C1915 C 0.78885 0.97205 0.42263 0.0
H1916 H 0.79311 0.027 0.05559 0.0
H1917 H 0.74971 0.06227 0.1114 0.0
H1918 H 0.82869 0.02741 0.0824 0.0
H1919 H 0.78515 0.06334 0.13764 0.0
H1920 H 0.85298 0.07928 0.17307 0.0
H1921 H 0.82977 0.08266 0.13642 0.0
H1922 H 0.83429 0.00486 0.12746 0.0
H1923 H 0.85798 0.00105 0.16472 0.0
C1924 C 0.79135 0.03531 0.07332 0.0
C1925 C 0.76871 0.04458 0.08151 0.0
C1926 C 0.81162 0.03545 0.08861 0.0
C1927 C 0.80963 0.04556 0.11193 0.0
C1928 C 0.78723 0.05571 0.11961 0.0
C1929 C 0.76693 0.05499 0.10467 0.0
C1930 C 0.85029 0.06278 0.16318 0.0
C1931 C 0.85716 0.0397 0.17259 0.0
C1932 C 0.83665 0.06486 0.14198 0.0
C1933 C 0.82988 0.04402 0.12943 0.0
C1934 C 0.83925 0.02124 0.13689 0.0
C1935 C 0.85277 0.01911 0.15829 0.0
H1936 H 0.75174 0.99647 0.92348 0.0
H1937 H 0.6937 0.05017 0.91923 0.0
H1938 H 0.73349 0.97391 0.89063 0.0
H1939 H 0.67478 0.02702 0.88696 0.0
H1940 H 0.65737 0.98506 0.81667 0.0
H1941 H 0.67777 0.01171 0.84509 0.0
H1942 H 0.69713 0.9491 0.88965 0.0
H1943 H 0.67726 0.92255 0.86129 0.0
C1944 C 0.73529 0.00369 0.91523 0.0
C1945 C 0.72384 0.0248 0.92426 0.0
C1946 C 0.72464 0.99058 0.89664 0.0
C1947 C 0.70234 0.99832 0.88664 0.0
C1948 C 0.69188 0.02047 0.89439 0.0
C1949 C 0.70259 0.03362 0.91299 0.0
C1950 C 0.66583 0.97702 0.83264 0.0
C1951 C 0.66576 0.95163 0.83662 0.0
C1952 C 0.67753 0.9923 0.8489 0.0
C1953 C 0.68942 0.98249 0.86941 0.0
C1954 C 0.68871 0.9572 0.87369 0.0
C1955 C 0.67708 0.94198 0.85752 0.0
H1956 H 0.26393 0.48179 0.89726 0.0
H1957 H 0.2977 0.42327 0.93853 0.0
H1958 H 0.29951 0.48387 0.87055 0.0
H1959 H 0.3336 0.42502 0.91114 0.0
H1960 H 0.35744 0.41411 0.82647 0.0
H1961 H 0.33647 0.41467 0.86518 0.0
H1962 H 0.34507 0.49252 0.86853 0.0
H1963 H 0.36695 0.49214 0.82955 0.0
C1964 C 0.27917 0.46954 0.90077 0.0
C1965 C 0.27798 0.45219 0.91977 0.0
C1966 C 0.29969 0.47092 0.88563 0.0
C1967 C 0.31942 0.45471 0.88883 0.0
C1968 C 0.31866 0.43781 0.90836 0.0
C1969 C 0.29819 0.43679 0.92397 0.0
C1970 C 0.35625 0.43131 0.83562 0.0
C1971 C 0.36388 0.4532 0.82432 0.0
C1972 C 0.34395 0.43155 0.8581 0.0
C1973 C 0.33876 0.45366 0.86969 0.0
C1974 C 0.34857 0.47521 0.8598 0.0
C1975 C 0.36112 0.47495 0.83745 0.0
H1976 H 0.32959 0.48479 0.68885 0.0
H1977 H 0.33027 0.42659 0.63654 0.0
H1978 H 0.31267 0.51271 0.65778 0.0
H1979 H 0.3135 0.45413 0.60606 0.0
H1980 H 0.30942 0.51146 0.54956 0.0
H1981 H 0.32857 0.49039 0.58312 0.0
H1982 H 0.27248 0.51706 0.63217 0.0
H1983 H 0.25336 0.53942 0.59809 0.0
C1984 C 0.32632 0.47802 0.67076 0.0
C1985 C 0.33138 0.45349 0.66515 0.0
C1986 C 0.31647 0.49392 0.6531 0.0
C1987 C 0.31191 0.48561 0.62951 0.0
C1988 C 0.31711 0.46116 0.62399 0.0
C1989 C 0.32666 0.44533 0.64154 0.0
C1990 C 0.30154 0.51389 0.56753 0.0
C1991 C 0.28013 0.52784 0.57116 0.0
C1992 C 0.31239 0.50135 0.58678 0.0
C1993 C 0.30199 0.50198 0.61024 0.0
C1994 C 0.28102 0.51647 0.61427 0.0
C1995 C 0.27005 0.52915 0.59481 0.0
H1996 H 0.25833 0.45742 0.09699 0.0
H1997 H 0.18861 0.46775 0.06231 0.0
H1998 H 0.24235 0.47915 0.13274 0.0
H1999 H 0.1726 0.48725 0.09827 0.0
H2000 H 0.14846 0.50774 0.17653 0.0
H2001 H 0.16627 0.47812 0.14799 0.0
H2002 H 0.22518 0.52727 0.13184 0.0
H2003 H 0.20714 0.55712 0.15964 0.0
C2004 C 0.23943 0.46338 0.09726 0.0
C2005 C 0.22462 0.4598 0.07691 0.0
C2006 C 0.23034 0.47576 0.11769 0.0
C2007 C 0.20614 0.48438 0.11832 0.0
C2008 C 0.1911 0.48011 0.09849 0.0
C2009 C 0.20032 0.46841 0.07789 0.0
C2010 C 0.16535 0.51205 0.16708 0.0
C2011 C 0.17628 0.5348 0.17005 0.0
C2012 C 0.17553 0.49513 0.15087 0.0
C2013 C 0.19715 0.50043 0.13798 0.0
C2014 C 0.20866 0.52268 0.14183 0.0
C2015 C 0.1982 0.53981 0.15751 0.0
loop_
_geom_bond_atom_site_label_1
_geom_bond_atom_site_label_2
_geom_bond_distance
_geom_bond_site_symmetry_2
_ccdc_geom_bond_type
Co0 O3 1.970 . S
Co0 N17 1.989 . S
Co0 O25 1.967 . S
Co0 O32 1.920 . S
Co1 O4 1.966 . S
Co1 N10 2.022 . S
Co1 N18 1.993 . S
Co1 O26 1.941 . S
C2 O3 1.258 . S
C2 O4 1.263 . S
O3 Co0 1.970 . S
O3 C2 1.258 . S
O4 Co1 1.966 . S
O4 C2 1.263 . S
C5 O6 1.235 . S
C5 O32 1.289 . S
O6 C5 1.235 . S
C7 C9 1.400 . S
C7 N10 1.351 . S
C7 C12 1.501 . S
C8 C9 1.387 . S
C8 N11 1.341 . S
C9 C7 1.400 . S
C9 C8 1.387 . S
N10 Co1 2.022 . S
N10 C7 1.351 . S
N10 N11 1.365 . S
N11 C8 1.341 . S
N11 N10 1.365 . S
N11 H31 0.862 . S
C12 C7 1.501 . S
C12 H13 0.961 . S
C12 H14 0.961 . S
C12 H15 0.960 . S
H13 C12 0.961 . S
H14 C12 0.961 . S
H15 C12 0.960 . S
C16 N17 1.342 . S
C16 C20 1.401 . S
C16 C21 1.499 . S
N17 Co0 1.989 . S
N17 C16 1.342 . S
N17 N18 1.388 . S
N18 Co1 1.993 . S
N18 N17 1.388 . S
N18 C19 1.346 . S
C19 N18 1.346 . S
C19 C20 1.396 . S
C19 C29 1.510 . S
C20 C16 1.401 . S
C20 C19 1.396 . S
C21 C16 1.499 . S
C21 H22 0.959 . S
C21 H23 0.960 . S
C21 H24 0.961 . S
H22 C21 0.959 . S
H23 C21 0.960 . S
H24 C21 0.961 . S
O25 Co0 1.967 . S
O25 C33 1.258 . S
O26 Co1 1.941 . S
O26 C33 1.266 . S
H27 C29 0.959 . S
H28 C29 0.961 . S
C29 C19 1.510 . S
C29 H27 0.959 . S
C29 H28 0.961 . S
C29 H30 0.960 . S
H30 C29 0.960 . S
H31 N11 0.862 . S
O32 Co0 1.920 . S
O32 C5 1.289 . S
C33 O25 1.258 . S
C33 O26 1.266 . S
Co34 O37 1.970 . S
Co34 N51 1.989 . S
Co34 O59 1.967 . S
Co34 O66 1.920 . S
Co35 O38 1.966 . S
Co35 N44 2.022 . S
Co35 N52 1.993 . S
Co35 O60 1.941 . S
C36 O37 1.258 . S
C36 O38 1.263 . S
O37 Co34 1.970 . S
O37 C36 1.258 . S
O38 Co35 1.966 . S
O38 C36 1.263 . S
C39 O40 1.235 . S
C39 O66 1.289 . S
O40 C39 1.235 . S
C41 C43 1.400 . S
C41 N44 1.351 . S
C41 C46 1.501 . S
C42 C43 1.387 . S
C42 N45 1.341 . S
C43 C41 1.400 . S
C43 C42 1.387 . S
N44 Co35 2.022 . S
N44 C41 1.351 . S
N44 N45 1.365 . S
N45 C42 1.341 . S
N45 N44 1.365 . S
N45 H65 0.862 . S
C46 C41 1.501 . S
C46 H47 0.961 . S
C46 H48 0.961 . S
C46 H49 0.960 . S
H47 C46 0.961 . S
H48 C46 0.961 . S
H49 C46 0.960 . S
C50 N51 1.342 . S
C50 C54 1.401 . S
C50 C55 1.499 . S
N51 Co34 1.989 . S
N51 C50 1.342 . S
N51 N52 1.388 . S
N52 Co35 1.993 . S
N52 N51 1.388 . S
N52 C53 1.346 . S
C53 N52 1.346 . S
C53 C54 1.396 . S
C53 C63 1.510 . S
C54 C50 1.401 . S
C54 C53 1.396 . S
C55 C50 1.499 . S
C55 H56 0.959 . S
C55 H57 0.960 . S
C55 H58 0.961 . S
H56 C55 0.959 . S
H57 C55 0.960 . S
H58 C55 0.961 . S
O59 Co34 1.967 . S
O59 C67 1.258 . S
O60 Co35 1.941 . S
O60 C67 1.266 . S
H61 C63 0.959 . S
H62 C63 0.961 . S
C63 C53 1.510 . S
C63 H61 0.959 . S
C63 H62 0.961 . S
C63 H64 0.960 . S
H64 C63 0.960 . S
H65 N45 0.862 . S
O66 Co34 1.920 . S
O66 C39 1.289 . S
C67 O59 1.258 . S
C67 O60 1.266 . S
Co68 O71 1.970 . S
Co68 N85 1.989 . S
Co68 O93 1.967 . S
Co68 O100 1.920 . S
Co69 O72 1.966 . S
Co69 N78 2.022 . S
Co69 N86 1.993 . S
Co69 O94 1.941 . S
C70 O71 1.258 . S
C70 O72 1.263 . S
O71 Co68 1.970 . S
O71 C70 1.258 . S
O72 Co69 1.966 . S
O72 C70 1.263 . S
C73 O74 1.235 . S
C73 O100 1.289 . S
O74 C73 1.235 . S
C75 C77 1.400 . S
C75 N78 1.351 . S
C75 C80 1.501 . S
C76 C77 1.387 . S
C76 N79 1.341 . S
C77 C75 1.400 . S
C77 C76 1.387 . S
N78 Co69 2.022 . S
N78 C75 1.351 . S
N78 N79 1.365 . S
N79 C76 1.341 . S
N79 N78 1.365 . S
N79 H99 0.862 . S
C80 C75 1.501 . S
C80 H81 0.961 . S
C80 H82 0.961 . S
C80 H83 0.960 . S
H81 C80 0.961 . S
H82 C80 0.961 . S
H83 C80 0.960 . S
C84 N85 1.342 . S
C84 C88 1.401 . S
C84 C89 1.499 . S
N85 Co68 1.989 . S
N85 C84 1.342 . S
N85 N86 1.388 . S
N86 Co69 1.993 . S
N86 N85 1.388 . S
N86 C87 1.346 . S
C87 N86 1.346 . S
C87 C88 1.396 . S
C87 C97 1.510 . S
C88 C84 1.401 . S
C88 C87 1.396 . S
C89 C84 1.499 . S
C89 H90 0.959 . S
C89 H91 0.960 . S
C89 H92 0.961 . S
H90 C89 0.959 . S
H91 C89 0.960 . S
H92 C89 0.961 . S
O93 Co68 1.967 . S
O93 C101 1.258 . S
O94 Co69 1.941 . S
O94 C101 1.266 . S
H95 C97 0.959 . S
H96 C97 0.961 . S
C97 C87 1.510 . S
C97 H95 0.959 . S
C97 H96 0.961 . S
C97 H98 0.960 . S
H98 C97 0.960 . S
H99 N79 0.862 . S
O100 Co68 1.920 . S
O100 C73 1.289 . S
C101 O93 1.258 . S
C101 O94 1.266 . S
Co102 O105 1.970 . S
Co102 N119 1.989 1_655 S
Co102 O127 1.967 . S
Co102 O134 1.920 1_655 S
Co103 O106 1.966 . S
Co103 N112 2.022 . S
Co103 N120 1.993 1_655 S
Co103 O128 1.941 . S
C104 O105 1.258 . S
C104 O106 1.263 . S
O105 Co102 1.970 . S
O105 C104 1.258 . S
O106 Co103 1.966 . S
O106 C104 1.263 . S
C107 O108 1.232 1_455 S
C107 O134 1.289 . S
O108 C107 1.232 1_655 S
C109 C111 1.400 . S
C109 N112 1.351 . S
C109 C114 1.501 . S
C110 C111 1.387 1_455 S
C110 N113 1.341 . S
C111 C109 1.400 . S
C111 C110 1.387 1_655 S
N112 Co103 2.022 . S
N112 C109 1.351 . S
N112 N113 1.365 1_655 S
N113 C110 1.341 . S
N113 N112 1.365 1_455 S
N113 H133 0.862 . S
C114 C109 1.501 . S
C114 H115 0.961 . S
C114 H116 0.961 . S
C114 H117 0.960 . S
H115 C114 0.961 . S
H116 C114 0.961 . S
H117 C114 0.960 . S
C118 N119 1.342 . S
C118 C122 1.401 . S
C118 C123 1.499 . S
N119 Co102 1.989 1_455 S
N119 C118 1.342 . S
N119 N120 1.388 . S
N120 Co103 1.993 1_455 S
N120 N119 1.388 . S
N120 C121 1.346 . S
C121 N120 1.346 . S
C121 C122 1.396 . S
C121 C131 1.510 . S
C122 C118 1.401 . S
C122 C121 1.396 . S
C123 C118 1.499 . S
C123 H124 0.959 . S
C123 H125 0.960 . S
C123 H126 0.961 . S
H124 C123 0.959 . S
H125 C123 0.960 . S
H126 C123 0.961 . S
O127 Co102 1.967 . S
O127 C135 1.258 . S
O128 Co103 1.941 . S
O128 C135 1.266 . S
H129 C131 0.959 . S
H130 C131 0.961 . S
C131 C121 1.510 . S
C131 H129 0.959 . S
C131 H130 0.961 . S
C131 H132 0.960 . S
H132 C131 0.960 . S
H133 N113 0.862 . S
O134 Co102 1.920 1_455 S
O134 C107 1.289 . S
C135 O127 1.258 . S
C135 O128 1.266 . S
Co136 O139 1.970 . S
Co136 N153 1.989 . S
Co136 O161 1.967 . S
Co136 O168 1.920 . S
Co137 O140 1.966 . S
Co137 N146 2.022 . S
Co137 N154 1.993 . S
Co137 O162 1.941 . S
C138 O139 1.258 . S
C138 O140 1.263 . S
O139 Co136 1.970 . S
O139 C138 1.258 . S
O140 Co137 1.966 . S
O140 C138 1.263 . S
C141 O142 1.235 . S
C141 O168 1.289 . S
O142 C141 1.235 . S
C143 C145 1.400 . S
C143 N146 1.351 . S
C143 C148 1.501 . S
C144 C145 1.387 . S
C144 N147 1.341 . S
C145 C143 1.400 . S
C145 C144 1.387 . S
N146 Co137 2.022 . S
N146 C143 1.351 . S
N146 N147 1.365 . S
N147 C144 1.341 . S
N147 N146 1.365 . S
N147 H167 0.862 . S
C148 C143 1.501 . S
C148 H149 0.961 . S
C148 H150 0.961 . S
C148 H151 0.960 . S
H149 C148 0.961 . S
H150 C148 0.961 . S
H151 C148 0.960 . S
C152 N153 1.342 . S
C152 C156 1.401 . S
C152 C157 1.499 . S
N153 Co136 1.989 . S
N153 C152 1.342 . S
N153 N154 1.388 . S
N154 Co137 1.993 . S
N154 N153 1.388 . S
N154 C155 1.346 . S
C155 N154 1.346 . S
C155 C156 1.396 . S
C155 C165 1.510 . S
C156 C152 1.401 . S
C156 C155 1.396 . S
C157 C152 1.499 . S
C157 H158 0.959 . S
C157 H159 0.960 . S
C157 H160 0.961 . S
H158 C157 0.959 . S
H159 C157 0.960 . S
H160 C157 0.961 . S
O161 Co136 1.967 . S
O161 C169 1.258 . S
O162 Co137 1.941 . S
O162 C169 1.266 . S
H163 C165 0.959 . S
H164 C165 0.961 . S
C165 C155 1.510 . S
C165 H163 0.959 . S
C165 H164 0.961 . S
C165 H166 0.960 . S
H166 C165 0.960 . S
H167 N147 0.862 . S
O168 Co136 1.920 . S
O168 C141 1.289 . S
C169 O161 1.258 . S
C169 O162 1.266 . S
Co170 O173 1.970 . S
Co170 N187 1.989 . S
Co170 O195 1.967 . S
Co170 O202 1.920 . S
Co171 O174 1.966 . S
Co171 N180 2.022 1_565 S
Co171 N188 1.993 . S
Co171 O196 1.941 . S
C172 O173 1.258 . S
C172 O174 1.263 . S
O173 Co170 1.970 . S
O173 C172 1.258 . S
O174 Co171 1.966 . S
O174 C172 1.263 . S
C175 O176 1.235 . S
C175 O202 1.289 . S
O176 C175 1.235 . S
C177 C179 1.400 . S
C177 N180 1.351 . S
C177 C182 1.501 . S
C178 C179 1.387 . S
C178 N181 1.341 . S
C179 C177 1.400 . S
C179 C178 1.387 . S
N180 Co171 2.022 1_545 S
N180 C177 1.351 . S
N180 N181 1.365 . S
N181 C178 1.341 . S
N181 N180 1.365 . S
N181 H201 0.862 . S
C182 C177 1.501 . S
C182 H183 0.961 . S
C182 H184 0.961 . S
C182 H185 0.960 . S
H183 C182 0.961 . S
H184 C182 0.961 . S
H185 C182 0.960 . S
C186 N187 1.342 . S
C186 C190 1.401 . S
C186 C191 1.499 . S
N187 Co170 1.989 . S
N187 C186 1.342 . S
N187 N188 1.388 . S
N188 Co171 1.993 . S
N188 N187 1.388 . S
N188 C189 1.346 . S
C189 N188 1.346 . S
C189 C190 1.396 . S
C189 C199 1.510 1_565 S
C190 C186 1.401 . S
C190 C189 1.396 . S
C191 C186 1.499 . S
C191 H192 0.959 . S
C191 H193 0.960 . S
C191 H194 0.961 . S
H192 C191 0.959 . S
H193 C191 0.960 . S
H194 C191 0.961 . S
O195 Co170 1.967 . S
O195 C203 1.258 . S
O196 Co171 1.941 . S
O196 C203 1.266 . S
H197 C199 0.959 . S
H198 C199 0.961 . S
C199 C189 1.510 1_545 S
C199 H197 0.959 . S
C199 H198 0.961 . S
C199 H200 0.960 . S
H200 C199 0.960 . S
H201 N181 0.862 . S
O202 Co170 1.920 . S
O202 C175 1.289 . S
C203 O195 1.258 . S
C203 O196 1.266 . S
Co204 O207 1.970 . S
Co204 N221 1.989 . S
Co204 O229 1.967 . S
Co204 O236 1.920 . S
Co205 O208 1.966 . S
Co205 N214 2.022 . S
Co205 N222 1.993 . S
Co205 O230 1.941 . S
C206 O207 1.258 . S
C206 O208 1.263 . S
O207 Co204 1.970 . S
O207 C206 1.258 . S
O208 Co205 1.966 . S
O208 C206 1.263 . S
C209 O210 1.235 . S
C209 O236 1.289 . S
O210 C209 1.235 . S
C211 C213 1.400 . S
C211 N214 1.351 . S
C211 C216 1.501 . S
C212 C213 1.387 . S
C212 N215 1.341 . S
C213 C211 1.400 . S
C213 C212 1.387 . S
N214 Co205 2.022 . S
N214 C211 1.351 . S
N214 N215 1.365 . S
N215 C212 1.341 . S
N215 N214 1.365 . S
N215 H235 0.862 . S
C216 C211 1.501 . S
C216 H217 0.961 . S
C216 H218 0.961 . S
C216 H219 0.960 . S
H217 C216 0.961 . S
H218 C216 0.961 . S
H219 C216 0.960 . S
C220 N221 1.342 . S
C220 C224 1.401 . S
C220 C225 1.499 . S
N221 Co204 1.989 . S
N221 C220 1.342 . S
N221 N222 1.388 . S
N222 Co205 1.993 . S
N222 N221 1.388 . S
N222 C223 1.346 . S
C223 N222 1.346 . S
C223 C224 1.396 . S
C223 C233 1.510 . S
C224 C220 1.401 . S
C224 C223 1.396 . S
C225 C220 1.499 . S
C225 H226 0.959 . S
C225 H227 0.960 . S
C225 H228 0.961 . S
H226 C225 0.959 . S
H227 C225 0.960 . S
H228 C225 0.961 . S
O229 Co204 1.967 . S
O229 C237 1.258 . S
O230 Co205 1.941 . S
O230 C237 1.266 . S
H231 C233 0.959 . S
H232 C233 0.961 . S
C233 C223 1.510 . S
C233 H231 0.959 . S
C233 H232 0.961 . S
C233 H234 0.960 . S
H234 C233 0.960 . S
H235 N215 0.862 . S
O236 Co204 1.920 . S
O236 C209 1.289 . S
C237 O229 1.258 . S
C237 O230 1.266 . S
Co238 O241 1.970 . S
Co238 N255 1.989 1_455 S
Co238 O263 1.967 . S
Co238 O270 1.920 1_455 S
Co239 O242 1.966 . S
Co239 N248 2.022 1_545 S
Co239 N256 1.993 1_455 S
Co239 O264 1.941 . S
C240 O241 1.258 . S
C240 O242 1.263 . S
O241 Co238 1.970 . S
O241 C240 1.258 . S
O242 Co239 1.966 . S
O242 C240 1.263 . S
C243 O244 1.235 1_655 S
C243 O270 1.289 . S
O244 C243 1.235 1_455 S
C245 C247 1.400 . S
C245 N248 1.351 . S
C245 C250 1.501 . S
C246 C247 1.387 1_655 S
C246 N249 1.341 . S
C247 C245 1.400 . S
C247 C246 1.387 1_455 S
N248 Co239 2.022 1_565 S
N248 C245 1.351 . S
N248 N249 1.365 1_455 S
N249 C246 1.341 . S
N249 N248 1.365 1_655 S
N249 H269 0.862 . S
C250 C245 1.501 . S
C250 H251 0.961 . S
C250 H252 0.961 . S
C250 H253 0.960 . S
H251 C250 0.961 . S
H252 C250 0.961 . S
H253 C250 0.960 . S
C254 N255 1.342 . S
C254 C258 1.401 . S
C254 C259 1.499 . S
N255 Co238 1.989 1_655 S
N255 C254 1.342 . S
N255 N256 1.388 . S
N256 Co239 1.993 1_655 S
N256 N255 1.388 . S
N256 C257 1.346 . S
C257 N256 1.346 . S
C257 C258 1.396 . S
C257 C267 1.510 1_545 S
C258 C254 1.401 . S
C258 C257 1.396 . S
C259 C254 1.499 . S
C259 H260 0.959 . S
C259 H261 0.960 . S
C259 H262 0.961 . S
H260 C259 0.959 . S
H261 C259 0.960 . S
H262 C259 0.961 . S
O263 Co238 1.967 . S
O263 C271 1.258 . S
O264 Co239 1.941 . S
O264 C271 1.266 . S
H265 C267 0.959 . S
H266 C267 0.961 . S
C267 C257 1.510 1_565 S
C267 H265 0.959 . S
C267 H266 0.961 . S
C267 H268 0.960 . S
H268 C267 0.960 . S
H269 N249 0.862 . S
O270 Co238 1.920 1_655 S
O270 C243 1.289 . S
C271 O263 1.258 . S
C271 O264 1.266 . S
Co272 O275 1.970 . S
Co272 N289 1.989 . S
Co272 O297 1.967 . S
Co272 O304 1.920 . S
Co273 O276 1.966 . S
Co273 N282 2.022 . S
Co273 N290 1.993 . S
Co273 O298 1.941 . S
C274 O275 1.258 . S
C274 O276 1.263 . S
O275 Co272 1.970 . S
O275 C274 1.258 . S
O276 Co273 1.966 . S
O276 C274 1.263 . S
C277 O278 1.235 . S
C277 O304 1.289 . S
O278 C277 1.235 . S
C279 C281 1.400 . S
C279 N282 1.351 . S
C279 C284 1.501 . S
C280 C281 1.387 . S
C280 N283 1.341 . S
C281 C279 1.400 . S
C281 C280 1.387 . S
N282 Co273 2.022 . S
N282 C279 1.351 . S
N282 N283 1.365 . S
N283 C280 1.341 . S
N283 N282 1.365 . S
N283 H303 0.862 . S
C284 C279 1.501 . S
C284 H285 0.961 . S
C284 H286 0.961 . S
C284 H287 0.960 . S
H285 C284 0.961 . S
H286 C284 0.961 . S
H287 C284 0.960 . S
C288 N289 1.342 . S
C288 C292 1.401 . S
C288 C293 1.499 . S
N289 Co272 1.989 . S
N289 C288 1.342 . S
N289 N290 1.388 . S
N290 Co273 1.993 . S
N290 N289 1.388 . S
N290 C291 1.346 . S
C291 N290 1.346 . S
C291 C292 1.396 . S
C291 C301 1.510 . S
C292 C288 1.401 . S
C292 C291 1.396 . S
C293 C288 1.499 . S
C293 H294 0.959 . S
C293 H295 0.960 . S
C293 H296 0.961 . S
H294 C293 0.959 . S
H295 C293 0.960 . S
H296 C293 0.961 . S
O297 Co272 1.967 . S
O297 C305 1.258 . S
O298 Co273 1.941 . S
O298 C305 1.266 . S
H299 C301 0.959 . S
H300 C301 0.961 . S
C301 C291 1.510 . S
C301 H299 0.959 . S
C301 H300 0.961 . S
C301 H302 0.960 . S
H302 C301 0.960 . S
H303 N283 0.862 . S
O304 Co272 1.920 . S
O304 C277 1.289 . S
C305 O297 1.258 . S
C305 O298 1.266 . S
Co306 O309 1.970 . S
Co306 N323 1.989 1_556 S
Co306 O331 1.967 . S
Co306 O338 1.920 1_556 S
Co307 O310 1.966 . S
Co307 N316 2.022 . S
Co307 N324 1.993 1_556 S
Co307 O332 1.941 . S
C308 O309 1.258 . S
C308 O310 1.263 . S
O309 Co306 1.970 . S
O309 C308 1.258 . S
O310 Co307 1.966 . S
O310 C308 1.263 . S
C311 O312 1.232 1_554 S
C311 O338 1.289 . S
O312 C311 1.232 1_556 S
C313 C315 1.400 . S
C313 N316 1.351 . S
C313 C318 1.501 . S
C314 C315 1.387 1_554 S
C314 N317 1.341 . S
C315 C313 1.400 . S
C315 C314 1.387 1_556 S
N316 Co307 2.022 . S
N316 C313 1.351 . S
N316 N317 1.365 1_556 S
N317 C314 1.341 . S
N317 N316 1.365 1_554 S
N317 H337 0.862 . S
C318 C313 1.501 . S
C318 H319 0.961 . S
C318 H320 0.961 . S
C318 H321 0.960 . S
H319 C318 0.961 . S
H320 C318 0.961 . S
H321 C318 0.960 . S
C322 N323 1.342 . S
C322 C326 1.401 . S
C322 C327 1.499 . S
N323 Co306 1.989 1_554 S
N323 C322 1.342 . S
N323 N324 1.388 . S
N324 Co307 1.993 1_554 S
N324 N323 1.388 . S
N324 C325 1.346 . S
C325 N324 1.346 . S
C325 C326 1.396 . S
C325 C335 1.510 . S
C326 C322 1.401 . S
C326 C325 1.396 . S
C327 C322 1.499 . S
C327 H328 0.959 . S
C327 H329 0.960 . S
C327 H330 0.961 . S
H328 C327 0.959 . S
H329 C327 0.960 . S
H330 C327 0.961 . S
O331 Co306 1.967 . S
O331 C339 1.258 . S
O332 Co307 1.941 . S
O332 C339 1.266 . S
H333 C335 0.959 . S
H334 C335 0.961 . S
C335 C325 1.510 . S
C335 H333 0.959 . S
C335 H334 0.961 . S
C335 H336 0.960 . S
H336 C335 0.960 . S
H337 N317 0.862 . S
O338 Co306 1.920 1_554 S
O338 C311 1.289 . S
C339 O331 1.258 . S
C339 O332 1.266 . S
Co340 O343 1.970 . S
Co340 N357 1.989 . S
Co340 O365 1.967 . S
Co340 O372 1.920 . S
Co341 O344 1.966 . S
Co341 N350 2.022 . S
Co341 N358 1.993 . S
Co341 O366 1.941 . S
C342 O343 1.258 . S
C342 O344 1.263 . S
O343 Co340 1.970 . S
O343 C342 1.258 . S
O344 Co341 1.966 . S
O344 C342 1.263 . S
C345 O346 1.235 . S
C345 O372 1.289 . S
O346 C345 1.235 . S
C347 C349 1.400 . S
C347 N350 1.351 . S
C347 C352 1.501 . S
C348 C349 1.387 . S
C348 N351 1.341 . S
C349 C347 1.400 . S
C349 C348 1.387 . S
N350 Co341 2.022 . S
N350 C347 1.351 . S
N350 N351 1.365 . S
N351 C348 1.341 . S
N351 N350 1.365 . S
N351 H371 0.862 . S
C352 C347 1.501 . S
C352 H353 0.961 . S
C352 H354 0.961 . S
C352 H355 0.960 . S
H353 C352 0.961 . S
H354 C352 0.961 . S
H355 C352 0.960 . S
C356 N357 1.342 . S
C356 C360 1.401 . S
C356 C361 1.499 . S
N357 Co340 1.989 . S
N357 C356 1.342 . S
N357 N358 1.388 . S
N358 Co341 1.993 . S
N358 N357 1.388 . S
N358 C359 1.346 . S
C359 N358 1.346 . S
C359 C360 1.396 . S
C359 C369 1.510 . S
C360 C356 1.401 . S
C360 C359 1.396 . S
C361 C356 1.499 . S
C361 H362 0.959 . S
C361 H363 0.960 . S
C361 H364 0.961 . S
H362 C361 0.959 . S
H363 C361 0.960 . S
H364 C361 0.961 . S
O365 Co340 1.967 . S
O365 C373 1.258 . S
O366 Co341 1.941 . S
O366 C373 1.266 . S
H367 C369 0.959 . S
H368 C369 0.961 . S
C369 C359 1.510 . S
C369 H367 0.959 . S
C369 H368 0.961 . S
C369 H370 0.960 . S
H370 C369 0.960 . S
H371 N351 0.862 . S
O372 Co340 1.920 . S
O372 C345 1.289 . S
C373 O365 1.258 . S
C373 O366 1.266 . S
Co374 O377 1.970 . S
Co374 N391 1.989 . S
Co374 O399 1.967 . S
Co374 O406 1.920 . S
Co375 O378 1.966 . S
Co375 N384 2.022 1_655 S
Co375 N392 1.993 . S
Co375 O400 1.941 . S
C376 O377 1.258 . S
C376 O378 1.263 . S
O377 Co374 1.970 . S
O377 C376 1.258 . S
O378 Co375 1.966 . S
O378 C376 1.263 . S
C379 O380 1.235 . S
C379 O406 1.289 . S
O380 C379 1.235 . S
C381 C383 1.400 . S
C381 N384 1.351 . S
C381 C386 1.501 . S
C382 C383 1.387 . S
C382 N385 1.341 . S
C383 C381 1.400 . S
C383 C382 1.387 . S
N384 Co375 2.022 1_455 S
N384 C381 1.351 . S
N384 N385 1.365 . S
N385 C382 1.341 . S
N385 N384 1.365 . S
N385 H405 0.862 . S
C386 C381 1.501 . S
C386 H387 0.961 . S
C386 H388 0.961 . S
C386 H389 0.960 . S
H387 C386 0.961 . S
H388 C386 0.961 . S
H389 C386 0.960 . S
C390 N391 1.342 . S
C390 C394 1.401 . S
C390 C395 1.499 . S
N391 Co374 1.989 . S
N391 C390 1.342 . S
N391 N392 1.388 . S
N392 Co375 1.993 . S
N392 N391 1.388 . S
N392 C393 1.346 . S
C393 N392 1.346 . S
C393 C394 1.396 . S
C393 C403 1.510 1_655 S
C394 C390 1.401 . S
C394 C393 1.396 . S
C395 C390 1.499 . S
C395 H396 0.959 . S
C395 H397 0.960 . S
C395 H398 0.961 . S
H396 C395 0.959 . S
H397 C395 0.960 . S
H398 C395 0.961 . S
O399 Co374 1.967 . S
O399 C407 1.258 . S
O400 Co375 1.941 . S
O400 C407 1.266 . S
H401 C403 0.959 . S
H402 C403 0.961 . S
C403 C393 1.510 1_455 S
C403 H401 0.959 . S
C403 H402 0.961 . S
C403 H404 0.960 . S
H404 C403 0.960 . S
H405 N385 0.862 . S
O406 Co374 1.920 . S
O406 C379 1.289 . S
C407 O399 1.258 . S
C407 O400 1.266 . S
Co408 O411 1.970 . S
Co408 N425 1.989 . S
Co408 O433 1.967 . S
Co408 O440 1.920 . S
Co409 O412 1.966 . S
Co409 N418 2.022 . S
Co409 N426 1.993 . S
Co409 O434 1.941 . S
C410 O411 1.258 . S
C410 O412 1.263 . S
O411 Co408 1.970 . S
O411 C410 1.258 . S
O412 Co409 1.966 . S
O412 C410 1.263 . S
C413 O414 1.235 . S
C413 O440 1.289 . S
O414 C413 1.235 . S
C415 C417 1.400 . S
C415 N418 1.351 . S
C415 C420 1.501 . S
C416 C417 1.387 . S
C416 N419 1.341 . S
C417 C415 1.400 . S
C417 C416 1.387 . S
N418 Co409 2.022 . S
N418 C415 1.351 . S
N418 N419 1.365 . S
N419 C416 1.341 . S
N419 N418 1.365 . S
N419 H439 0.862 . S
C420 C415 1.501 . S
C420 H421 0.961 . S
C420 H422 0.961 . S
C420 H423 0.960 . S
H421 C420 0.961 . S
H422 C420 0.961 . S
H423 C420 0.960 . S
C424 N425 1.342 . S
C424 C428 1.401 . S
C424 C429 1.499 . S
N425 Co408 1.989 . S
N425 C424 1.342 . S
N425 N426 1.388 . S
N426 Co409 1.993 . S
N426 N425 1.388 . S
N426 C427 1.346 . S
C427 N426 1.346 . S
C427 C428 1.396 . S
C427 C437 1.510 . S
C428 C424 1.401 . S
C428 C427 1.396 . S
C429 C424 1.499 . S
C429 H430 0.959 . S
C429 H431 0.960 . S
C429 H432 0.961 . S
H430 C429 0.959 . S
H431 C429 0.960 . S
H432 C429 0.961 . S
O433 Co408 1.967 . S
O433 C441 1.258 . S
O434 Co409 1.941 . S
O434 C441 1.266 . S
H435 C437 0.959 . S
H436 C437 0.961 . S
C437 C427 1.510 . S
C437 H435 0.959 . S
C437 H436 0.961 . S
C437 H438 0.960 . S
H438 C437 0.960 . S
H439 N419 0.862 . S
O440 Co408 1.920 . S
O440 C413 1.289 . S
C441 O433 1.258 . S
C441 O434 1.266 . S
Co442 O445 1.970 . S
Co442 N459 1.989 . S
Co442 O467 1.967 . S
Co442 O474 1.920 . S
Co443 O446 1.966 . S
Co443 N452 2.022 . S
Co443 N460 1.993 . S
Co443 O468 1.941 . S
C444 O445 1.258 . S
C444 O446 1.263 . S
O445 Co442 1.970 . S
O445 C444 1.258 . S
O446 Co443 1.966 . S
O446 C444 1.263 . S
C447 O448 1.235 . S
C447 O474 1.289 . S
O448 C447 1.235 . S
C449 C451 1.400 . S
C449 N452 1.351 . S
C449 C454 1.501 . S
C450 C451 1.387 . S
C450 N453 1.341 . S
C451 C449 1.400 . S
C451 C450 1.387 . S
N452 Co443 2.022 . S
N452 C449 1.351 . S
N452 N453 1.365 . S
N453 C450 1.341 . S
N453 N452 1.365 . S
N453 H473 0.862 . S
C454 C449 1.501 . S
C454 H455 0.961 . S
C454 H456 0.961 . S
C454 H457 0.960 . S
H455 C454 0.961 . S
H456 C454 0.961 . S
H457 C454 0.960 . S
C458 N459 1.342 . S
C458 C462 1.401 . S
C458 C463 1.499 . S
N459 Co442 1.989 . S
N459 C458 1.342 . S
N459 N460 1.388 . S
N460 Co443 1.993 . S
N460 N459 1.388 . S
N460 C461 1.346 . S
C461 N460 1.346 . S
C461 C462 1.396 . S
C461 C471 1.510 . S
C462 C458 1.401 . S
C462 C461 1.396 . S
C463 C458 1.499 . S
C463 H464 0.959 . S
C463 H465 0.960 . S
C463 H466 0.961 . S
H464 C463 0.959 . S
H465 C463 0.960 . S
H466 C463 0.961 . S
O467 Co442 1.967 . S
O467 C475 1.258 . S
O468 Co443 1.941 . S
O468 C475 1.266 . S
H469 C471 0.959 . S
H470 C471 0.961 . S
C471 C461 1.510 . S
C471 H469 0.959 . S
C471 H470 0.961 . S
C471 H472 0.960 . S
H472 C471 0.960 . S
H473 N453 0.862 . S
O474 Co442 1.920 . S
O474 C447 1.289 . S
C475 O467 1.258 . S
C475 O468 1.266 . S
Co476 O479 1.970 . S
Co476 N493 1.989 . S
Co476 O501 1.967 . S
Co476 O508 1.920 . S
Co477 O480 1.966 . S
Co477 N486 2.022 . S
Co477 N494 1.993 . S
Co477 O502 1.941 . S
C478 O479 1.258 . S
C478 O480 1.263 . S
O479 Co476 1.970 . S
O479 C478 1.258 . S
O480 Co477 1.966 . S
O480 C478 1.263 . S
C481 O482 1.235 . S
C481 O508 1.289 . S
O482 C481 1.235 . S
C483 C485 1.400 . S
C483 N486 1.351 . S
C483 C488 1.501 . S
C484 C485 1.387 . S
C484 N487 1.341 . S
C485 C483 1.400 . S
C485 C484 1.387 . S
N486 Co477 2.022 . S
N486 C483 1.351 . S
N486 N487 1.365 . S
N487 C484 1.341 . S
N487 N486 1.365 . S
N487 H507 0.862 . S
C488 C483 1.501 . S
C488 H489 0.961 . S
C488 H490 0.961 . S
C488 H491 0.960 . S
H489 C488 0.961 . S
H490 C488 0.961 . S
H491 C488 0.960 . S
C492 N493 1.342 . S
C492 C496 1.401 . S
C492 C497 1.499 . S
N493 Co476 1.989 . S
N493 C492 1.342 . S
N493 N494 1.388 . S
N494 Co477 1.993 . S
N494 N493 1.388 . S
N494 C495 1.346 . S
C495 N494 1.346 . S
C495 C496 1.396 . S
C495 C505 1.510 . S
C496 C492 1.401 . S
C496 C495 1.396 . S
C497 C492 1.499 . S
C497 H498 0.959 . S
C497 H499 0.960 . S
C497 H500 0.961 . S
H498 C497 0.959 . S
H499 C497 0.960 . S
H500 C497 0.961 . S
O501 Co476 1.967 . S
O501 C509 1.258 . S
O502 Co477 1.941 . S
O502 C509 1.266 . S
H503 C505 0.959 . S
H504 C505 0.961 . S
C505 C495 1.510 . S
C505 H503 0.959 . S
C505 H504 0.961 . S
C505 H506 0.960 . S
H506 C505 0.960 . S
H507 N487 0.862 . S
O508 Co476 1.920 . S
O508 C481 1.289 . S
C509 O501 1.258 . S
C509 O502 1.266 . S
Co510 O513 1.970 . S
Co510 N527 1.989 1_554 S
Co510 O535 1.967 . S
Co510 O542 1.920 1_554 S
Co511 O514 1.966 . S
Co511 N520 2.022 1_455 S
Co511 N528 1.993 1_554 S
Co511 O536 1.941 . S
C512 O513 1.258 . S
C512 O514 1.263 . S
O513 Co510 1.970 . S
O513 C512 1.258 . S
O514 Co511 1.966 . S
O514 C512 1.263 . S
C515 O516 1.235 1_556 S
C515 O542 1.289 . S
O516 C515 1.235 1_554 S
C517 C519 1.400 . S
C517 N520 1.351 . S
C517 C522 1.501 . S
C518 C519 1.387 1_556 S
C518 N521 1.341 . S
C519 C517 1.400 . S
C519 C518 1.387 1_554 S
N520 Co511 2.022 1_655 S
N520 C517 1.351 . S
N520 N521 1.365 1_554 S
N521 C518 1.341 . S
N521 N520 1.365 1_556 S
N521 H541 0.862 . S
C522 C517 1.501 . S
C522 H523 0.961 . S
C522 H524 0.961 . S
C522 H525 0.960 . S
H523 C522 0.961 . S
H524 C522 0.961 . S
H525 C522 0.960 . S
C526 N527 1.342 . S
C526 C530 1.401 . S
C526 C531 1.499 . S
N527 Co510 1.989 1_556 S
N527 C526 1.342 . S
N527 N528 1.388 . S
N528 Co511 1.993 1_556 S
N528 N527 1.388 . S
N528 C529 1.346 . S
C529 N528 1.346 . S
C529 C530 1.396 . S
C529 C539 1.510 1_455 S
C530 C526 1.401 . S
C530 C529 1.396 . S
C531 C526 1.499 . S
C531 H532 0.959 . S
C531 H533 0.960 . S
C531 H534 0.961 . S
H532 C531 0.959 . S
H533 C531 0.960 . S
H534 C531 0.961 . S
O535 Co510 1.967 . S
O535 C543 1.258 . S
O536 Co511 1.941 . S
O536 C543 1.266 . S
H537 C539 0.959 . S
H538 C539 0.961 . S
C539 C529 1.510 1_655 S
C539 H537 0.959 . S
C539 H538 0.961 . S
C539 H540 0.960 . S
H540 C539 0.960 . S
H541 N521 0.862 . S
O542 Co510 1.920 1_556 S
O542 C515 1.289 . S
C543 O535 1.258 . S
C543 O536 1.266 . S
Co544 O547 1.970 . S
Co544 N561 1.989 . S
Co544 O569 1.967 . S
Co544 O576 1.920 . S
Co545 O548 1.966 . S
Co545 N554 2.022 . S
Co545 N562 1.993 . S
Co545 O570 1.941 . S
C546 O547 1.258 . S
C546 O548 1.263 . S
O547 Co544 1.970 . S
O547 C546 1.258 . S
O548 Co545 1.966 . S
O548 C546 1.263 . S
C549 O550 1.235 . S
C549 O576 1.289 . S
O550 C549 1.235 . S
C551 C553 1.400 . S
C551 N554 1.351 . S
C551 C556 1.501 . S
C552 C553 1.387 . S
C552 N555 1.341 . S
C553 C551 1.400 . S
C553 C552 1.387 . S
N554 Co545 2.022 . S
N554 C551 1.351 . S
N554 N555 1.365 . S
N555 C552 1.341 . S
N555 N554 1.365 . S
N555 H575 0.862 . S
C556 C551 1.501 . S
C556 H557 0.961 . S
C556 H558 0.961 . S
C556 H559 0.960 . S
H557 C556 0.961 . S
H558 C556 0.961 . S
H559 C556 0.960 . S
C560 N561 1.342 . S
C560 C564 1.401 . S
C560 C565 1.499 . S
N561 Co544 1.989 . S
N561 C560 1.342 . S
N561 N562 1.388 . S
N562 Co545 1.993 . S
N562 N561 1.388 . S
N562 C563 1.346 . S
C563 N562 1.346 . S
C563 C564 1.396 . S
C563 C573 1.510 . S
C564 C560 1.401 . S
C564 C563 1.396 . S
C565 C560 1.499 . S
C565 H566 0.959 . S
C565 H567 0.960 . S
C565 H568 0.961 . S
H566 C565 0.959 . S
H567 C565 0.960 . S
H568 C565 0.961 . S
O569 Co544 1.967 . S
O569 C577 1.258 . S
O570 Co545 1.941 . S
O570 C577 1.266 . S
H571 C573 0.959 . S
H572 C573 0.961 . S
C573 C563 1.510 . S
C573 H571 0.959 . S
C573 H572 0.961 . S
C573 H574 0.960 . S
H574 C573 0.960 . S
H575 N555 0.862 . S
O576 Co544 1.920 . S
O576 C549 1.289 . S
C577 O569 1.258 . S
C577 O570 1.266 . S
Co578 O581 1.970 . S
Co578 N595 1.989 . S
Co578 O603 1.967 . S
Co578 O610 1.920 . S
Co579 O582 1.966 . S
Co579 N588 2.022 . S
Co579 N596 1.993 . S
Co579 O604 1.941 . S
C580 O581 1.258 . S
C580 O582 1.263 . S
O581 Co578 1.970 . S
O581 C580 1.258 . S
O582 Co579 1.966 . S
O582 C580 1.263 . S
C583 O584 1.235 . S
C583 O610 1.289 . S
O584 C583 1.235 . S
C585 C587 1.400 . S
C585 N588 1.351 . S
C585 C590 1.501 . S
C586 C587 1.387 . S
C586 N589 1.341 . S
C587 C585 1.400 . S
C587 C586 1.387 . S
N588 Co579 2.022 . S
N588 C585 1.351 . S
N588 N589 1.365 . S
N589 C586 1.341 . S
N589 N588 1.365 . S
N589 H609 0.862 . S
C590 C585 1.501 . S
C590 H591 0.961 . S
C590 H592 0.961 . S
C590 H593 0.960 . S
H591 C590 0.961 . S
H592 C590 0.961 . S
H593 C590 0.960 . S
C594 N595 1.342 . S
C594 C598 1.401 . S
C594 C599 1.499 . S
N595 Co578 1.989 . S
N595 C594 1.342 . S
N595 N596 1.388 . S
N596 Co579 1.993 . S
N596 N595 1.388 . S
N596 C597 1.346 . S
C597 N596 1.346 . S
C597 C598 1.396 . S
C597 C607 1.510 . S
C598 C594 1.401 . S
C598 C597 1.396 . S
C599 C594 1.499 . S
C599 H600 0.959 . S
C599 H601 0.960 . S
C599 H602 0.961 . S
H600 C599 0.959 . S
H601 C599 0.960 . S
H602 C599 0.961 . S
O603 Co578 1.967 . S
O603 C611 1.258 . S
O604 Co579 1.941 . S
O604 C611 1.266 . S
H605 C607 0.959 . S
H606 C607 0.961 . S
C607 C597 1.510 . S
C607 H605 0.959 . S
C607 H606 0.961 . S
C607 H608 0.960 . S
H608 C607 0.960 . S
H609 N589 0.862 . S
O610 Co578 1.920 . S
O610 C583 1.289 . S
C611 O603 1.258 . S
C611 O604 1.266 . S
Co612 O615 1.970 . S
Co612 N629 1.989 1_565 S
Co612 O637 1.967 . S
Co612 O644 1.920 1_565 S
Co613 O616 1.966 . S
Co613 N622 2.022 . S
Co613 N630 1.993 1_565 S
Co613 O638 1.941 . S
C614 O615 1.258 . S
C614 O616 1.263 . S
O615 Co612 1.970 . S
O615 C614 1.258 . S
O616 Co613 1.966 . S
O616 C614 1.263 . S
C617 O618 1.232 1_545 S
C617 O644 1.289 . S
O618 C617 1.232 1_565 S
C619 C621 1.400 . S
C619 N622 1.351 . S
C619 C624 1.501 . S
C620 C621 1.387 1_545 S
C620 N623 1.341 . S
C621 C619 1.400 . S
C621 C620 1.387 1_565 S
N622 Co613 2.022 . S
N622 C619 1.351 . S
N622 N623 1.365 1_565 S
N623 C620 1.341 . S
N623 N622 1.365 1_545 S
N623 H643 0.862 . S
C624 C619 1.501 . S
C624 H625 0.961 . S
C624 H626 0.961 . S
C624 H627 0.960 . S
H625 C624 0.961 . S
H626 C624 0.961 . S
H627 C624 0.960 . S
C628 N629 1.342 . S
C628 C632 1.401 . S
C628 C633 1.499 . S
N629 Co612 1.989 1_545 S
N629 C628 1.342 . S
N629 N630 1.388 . S
N630 Co613 1.993 1_545 S
N630 N629 1.388 . S
N630 C631 1.346 . S
C631 N630 1.346 . S
C631 C632 1.396 . S
C631 C641 1.510 . S
C632 C628 1.401 . S
C632 C631 1.396 . S
C633 C628 1.499 . S
C633 H634 0.959 . S
C633 H635 0.960 . S
C633 H636 0.961 . S
H634 C633 0.959 . S
H635 C633 0.960 . S
H636 C633 0.961 . S
O637 Co612 1.967 . S
O637 C645 1.258 . S
O638 Co613 1.941 . S
O638 C645 1.266 . S
H639 C641 0.959 . S
H640 C641 0.961 . S
C641 C631 1.510 . S
C641 H639 0.959 . S
C641 H640 0.961 . S
C641 H642 0.960 . S
H642 C641 0.960 . S
H643 N623 0.862 . S
O644 Co612 1.920 1_545 S
O644 C617 1.289 . S
C645 O637 1.258 . S
C645 O638 1.266 . S
Co646 O649 1.970 . S
Co646 N663 1.989 . S
Co646 O671 1.967 . S
Co646 O678 1.920 . S
Co647 O650 1.966 . S
Co647 N656 2.022 . S
Co647 N664 1.993 . S
Co647 O672 1.941 . S
C648 O649 1.258 . S
C648 O650 1.263 . S
O649 Co646 1.970 . S
O649 C648 1.258 . S
O650 Co647 1.966 . S
O650 C648 1.263 . S
C651 O652 1.235 . S
C651 O678 1.289 . S
O652 C651 1.235 . S
C653 C655 1.400 . S
C653 N656 1.351 . S
C653 C658 1.501 . S
C654 C655 1.387 . S
C654 N657 1.341 . S
C655 C653 1.400 . S
C655 C654 1.387 . S
N656 Co647 2.022 . S
N656 C653 1.351 . S
N656 N657 1.365 . S
N657 C654 1.341 . S
N657 N656 1.365 . S
N657 H677 0.862 . S
C658 C653 1.501 . S
C658 H659 0.961 . S
C658 H660 0.961 . S
C658 H661 0.960 . S
H659 C658 0.961 . S
H660 C658 0.961 . S
H661 C658 0.960 . S
C662 N663 1.342 . S
C662 C666 1.401 . S
C662 C667 1.499 . S
N663 Co646 1.989 . S
N663 C662 1.342 . S
N663 N664 1.388 . S
N664 Co647 1.993 . S
N664 N663 1.388 . S
N664 C665 1.346 . S
C665 N664 1.346 . S
C665 C666 1.396 . S
C665 C675 1.510 . S
C666 C662 1.401 . S
C666 C665 1.396 . S
C667 C662 1.499 . S
C667 H668 0.959 . S
C667 H669 0.960 . S
C667 H670 0.961 . S
H668 C667 0.959 . S
H669 C667 0.960 . S
H670 C667 0.961 . S
O671 Co646 1.967 . S
O671 C679 1.258 . S
O672 Co647 1.941 . S
O672 C679 1.266 . S
H673 C675 0.959 . S
H674 C675 0.961 . S
C675 C665 1.510 . S
C675 H673 0.959 . S
C675 H674 0.961 . S
C675 H676 0.960 . S
H676 C675 0.960 . S
H677 N657 0.862 . S
O678 Co646 1.920 . S
O678 C651 1.289 . S
C679 O671 1.258 . S
C679 O672 1.266 . S
Co680 O683 1.970 . S
Co680 N697 1.989 1_545 S
Co680 O705 1.967 . S
Co680 O712 1.920 1_545 S
Co681 O684 1.966 . S
Co681 N690 2.022 1_554 S
Co681 N698 1.993 1_545 S
Co681 O706 1.941 . S
C682 O683 1.258 . S
C682 O684 1.263 . S
O683 Co680 1.970 . S
O683 C682 1.258 . S
O684 Co681 1.966 . S
O684 C682 1.263 . S
C685 O686 1.235 1_565 S
C685 O712 1.289 . S
O686 C685 1.235 1_545 S
C687 C689 1.400 . S
C687 N690 1.351 . S
C687 C692 1.501 . S
C688 C689 1.387 1_565 S
C688 N691 1.341 . S
C689 C687 1.400 . S
C689 C688 1.387 1_545 S
N690 Co681 2.022 1_556 S
N690 C687 1.351 . S
N690 N691 1.365 1_545 S
N691 C688 1.341 . S
N691 N690 1.365 1_565 S
N691 H711 0.862 . S
C692 C687 1.501 . S
C692 H693 0.961 . S
C692 H694 0.961 . S
C692 H695 0.960 . S
H693 C692 0.961 . S
H694 C692 0.961 . S
H695 C692 0.960 . S
C696 N697 1.342 . S
C696 C700 1.401 . S
C696 C701 1.499 . S
N697 Co680 1.989 1_565 S
N697 C696 1.342 . S
N697 N698 1.388 . S
N698 Co681 1.993 1_565 S
N698 N697 1.388 . S
N698 C699 1.346 . S
C699 N698 1.346 . S
C699 C700 1.396 . S
C699 C709 1.510 1_554 S
C700 C696 1.401 . S
C700 C699 1.396 . S
C701 C696 1.499 . S
C701 H702 0.959 . S
C701 H703 0.960 . S
C701 H704 0.961 . S
H702 C701 0.959 . S
H703 C701 0.960 . S
H704 C701 0.961 . S
O705 Co680 1.967 . S
O705 C713 1.258 . S
O706 Co681 1.941 . S
O706 C713 1.266 . S
H707 C709 0.959 . S
H708 C709 0.961 . S
C709 C699 1.510 1_556 S
C709 H707 0.959 . S
C709 H708 0.961 . S
C709 H710 0.960 . S
H710 C709 0.960 . S
H711 N691 0.862 . S
O712 Co680 1.920 1_565 S
O712 C685 1.289 . S
C713 O705 1.258 . S
C713 O706 1.266 . S
Co714 O717 1.970 . S
Co714 N731 1.989 . S
Co714 O739 1.967 . S
Co714 O746 1.920 . S
Co715 O718 1.966 . S
Co715 N724 2.022 . S
Co715 N732 1.993 . S
Co715 O740 1.941 . S
C716 O717 1.258 . S
C716 O718 1.263 . S
O717 Co714 1.970 . S
O717 C716 1.258 . S
O718 Co715 1.966 . S
O718 C716 1.263 . S
C719 O720 1.235 . S
C719 O746 1.289 . S
O720 C719 1.235 . S
C721 C723 1.400 . S
C721 N724 1.351 . S
C721 C726 1.501 . S
C722 C723 1.387 . S
C722 N725 1.341 . S
C723 C721 1.400 . S
C723 C722 1.387 . S
N724 Co715 2.022 . S
N724 C721 1.351 . S
N724 N725 1.365 . S
N725 C722 1.341 . S
N725 N724 1.365 . S
N725 H745 0.862 . S
C726 C721 1.501 . S
C726 H727 0.961 . S
C726 H728 0.961 . S
C726 H729 0.960 . S
H727 C726 0.961 . S
H728 C726 0.961 . S
H729 C726 0.960 . S
C730 N731 1.342 . S
C730 C734 1.401 . S
C730 C735 1.499 . S
N731 Co714 1.989 . S
N731 C730 1.342 . S
N731 N732 1.388 . S
N732 Co715 1.993 . S
N732 N731 1.388 . S
N732 C733 1.346 . S
C733 N732 1.346 . S
C733 C734 1.396 . S
C733 C743 1.510 . S
C734 C730 1.401 . S
C734 C733 1.396 . S
C735 C730 1.499 . S
C735 H736 0.959 . S
C735 H737 0.960 . S
C735 H738 0.961 . S
H736 C735 0.959 . S
H737 C735 0.960 . S
H738 C735 0.961 . S
O739 Co714 1.967 . S
O739 C747 1.258 . S
O740 Co715 1.941 . S
O740 C747 1.266 . S
H741 C743 0.959 . S
H742 C743 0.961 . S
C743 C733 1.510 . S
C743 H741 0.959 . S
C743 H742 0.961 . S
C743 H744 0.960 . S
H744 C743 0.960 . S
H745 N725 0.862 . S
O746 Co714 1.920 . S
O746 C719 1.289 . S
C747 O739 1.258 . S
C747 O740 1.266 . S
Co748 O751 1.970 . S
Co748 N765 1.989 . S
Co748 O773 1.967 . S
Co748 O780 1.920 . S
Co749 O752 1.966 . S
Co749 N758 2.022 . S
Co749 N766 1.993 . S
Co749 O774 1.941 . S
C750 O751 1.258 . S
C750 O752 1.263 . S
O751 Co748 1.970 . S
O751 C750 1.258 . S
O752 Co749 1.966 . S
O752 C750 1.263 . S
C753 O754 1.235 . S
C753 O780 1.289 . S
O754 C753 1.235 . S
C755 C757 1.400 . S
C755 N758 1.351 . S
C755 C760 1.501 . S
C756 C757 1.387 . S
C756 N759 1.341 . S
C757 C755 1.400 . S
C757 C756 1.387 . S
N758 Co749 2.022 . S
N758 C755 1.351 . S
N758 N759 1.365 . S
N759 C756 1.341 . S
N759 N758 1.365 . S
N759 H779 0.862 . S
C760 C755 1.501 . S
C760 H761 0.961 . S
C760 H762 0.961 . S
C760 H763 0.960 . S
H761 C760 0.961 . S
H762 C760 0.961 . S
H763 C760 0.960 . S
C764 N765 1.342 . S
C764 C768 1.401 . S
C764 C769 1.499 . S
N765 Co748 1.989 . S
N765 C764 1.342 . S
N765 N766 1.388 . S
N766 Co749 1.993 . S
N766 N765 1.388 . S
N766 C767 1.346 . S
C767 N766 1.346 . S
C767 C768 1.396 . S
C767 C777 1.510 . S
C768 C764 1.401 . S
C768 C767 1.396 . S
C769 C764 1.499 . S
C769 H770 0.959 . S
C769 H771 0.960 . S
C769 H772 0.961 . S
H770 C769 0.959 . S
H771 C769 0.960 . S
H772 C769 0.961 . S
O773 Co748 1.967 . S
O773 C781 1.258 . S
O774 Co749 1.941 . S
O774 C781 1.266 . S
H775 C777 0.959 . S
H776 C777 0.961 . S
C777 C767 1.510 . S
C777 H775 0.959 . S
C777 H776 0.961 . S
C777 H778 0.960 . S
H778 C777 0.960 . S
H779 N759 0.862 . S
O780 Co748 1.920 . S
O780 C753 1.289 . S
C781 O773 1.258 . S
C781 O774 1.266 . S
Co782 O785 1.970 . S
Co782 N799 1.989 . S
Co782 O807 1.967 . S
Co782 O814 1.920 . S
Co783 O786 1.966 . S
Co783 N792 2.022 1_556 S
Co783 N800 1.993 . S
Co783 O808 1.941 . S
C784 O785 1.258 . S
C784 O786 1.263 . S
O785 Co782 1.970 . S
O785 C784 1.258 . S
O786 Co783 1.966 . S
O786 C784 1.263 . S
C787 O788 1.235 . S
C787 O814 1.289 . S
O788 C787 1.235 . S
C789 C791 1.400 . S
C789 N792 1.351 . S
C789 C794 1.501 . S
C790 C791 1.387 . S
C790 N793 1.341 . S
C791 C789 1.400 . S
C791 C790 1.387 . S
N792 Co783 2.022 1_554 S
N792 C789 1.351 . S
N792 N793 1.365 . S
N793 C790 1.341 . S
N793 N792 1.365 . S
N793 H813 0.862 . S
C794 C789 1.501 . S
C794 H795 0.961 . S
C794 H796 0.961 . S
C794 H797 0.960 . S
H795 C794 0.961 . S
H796 C794 0.961 . S
H797 C794 0.960 . S
C798 N799 1.342 . S
C798 C802 1.401 . S
C798 C803 1.499 . S
N799 Co782 1.989 . S
N799 C798 1.342 . S
N799 N800 1.388 . S
N800 Co783 1.993 . S
N800 N799 1.388 . S
N800 C801 1.346 . S
C801 N800 1.346 . S
C801 C802 1.396 . S
C801 C811 1.510 1_556 S
C802 C798 1.401 . S
C802 C801 1.396 . S
C803 C798 1.499 . S
C803 H804 0.959 . S
C803 H805 0.960 . S
C803 H806 0.961 . S
H804 C803 0.959 . S
H805 C803 0.960 . S
H806 C803 0.961 . S
O807 Co782 1.967 . S
O807 C815 1.258 . S
O808 Co783 1.941 . S
O808 C815 1.266 . S
H809 C811 0.959 . S
H810 C811 0.961 . S
C811 C801 1.510 1_554 S
C811 H809 0.959 . S
C811 H810 0.961 . S
C811 H812 0.960 . S
H812 C811 0.960 . S
H813 N793 0.862 . S
O814 Co782 1.920 . S
O814 C787 1.289 . S
C815 O807 1.258 . S
C815 O808 1.266 . S
H816 C824 0.950 . S
H817 C829 0.950 . S
H818 C826 0.950 . S
H819 C828 0.950 . S
H820 C830 0.950 . S
H821 C832 0.950 . S
H822 C834 0.950 . S
H823 C835 0.950 . S
C824 H816 0.950 . S
C824 C825 1.386 . S
C824 C826 1.391 . S
C825 C824 1.386 . S
C825 C829 1.393 . S
C826 H818 0.950 . S
C826 C824 1.391 . S
C826 C827 1.400 . S
C827 C826 1.400 . S
C827 C828 1.398 . S
C827 C833 1.491 . S
C828 H819 0.950 . S
C828 C827 1.398 . S
C828 C829 1.391 . S
C829 H817 0.950 . S
C829 C825 1.393 . S
C829 C828 1.391 . S
C830 H820 0.950 . S
C830 C831 1.386 . S
C830 C832 1.391 . S
C831 C830 1.386 . S
C831 C835 1.393 . S
C832 H821 0.950 . S
C832 C830 1.391 . S
C832 C833 1.400 . S
C833 C827 1.491 . S
C833 C832 1.400 . S
C833 C834 1.398 . S
C834 H822 0.950 . S
C834 C833 1.398 . S
C834 C835 1.391 . S
C835 H823 0.950 . S
C835 C831 1.393 . S
C835 C834 1.391 . S
H836 C844 0.950 . S
H837 C849 0.950 . S
H838 C846 0.950 . S
H839 C848 0.950 . S
H840 C850 0.950 . S
H841 C852 0.950 . S
H842 C854 0.950 . S
H843 C855 0.950 . S
C844 H836 0.950 . S
C844 C845 1.386 . S
C844 C846 1.391 . S
C845 C844 1.386 . S
C845 C849 1.393 . S
C846 H838 0.950 . S
C846 C844 1.391 . S
C846 C847 1.400 . S
C847 C846 1.400 . S
C847 C848 1.398 . S
C847 C853 1.491 . S
C848 H839 0.950 . S
C848 C847 1.398 . S
C848 C849 1.391 . S
C849 H837 0.950 . S
C849 C845 1.393 . S
C849 C848 1.391 . S
C850 H840 0.950 . S
C850 C851 1.386 . S
C850 C852 1.391 . S
C851 C850 1.386 . S
C851 C855 1.393 . S
C852 H841 0.950 . S
C852 C850 1.391 . S
C852 C853 1.400 . S
C853 C847 1.491 . S
C853 C852 1.400 . S
C853 C854 1.398 . S
C854 H842 0.950 . S
C854 C853 1.398 . S
C854 C855 1.391 . S
C855 H843 0.950 . S
C855 C851 1.393 . S
C855 C854 1.391 . S
H856 C864 0.950 . S
H857 C869 0.950 . S
H858 C866 0.950 . S
H859 C868 0.950 . S
H860 C870 0.950 . S
H861 C872 0.950 . S
H862 C874 0.950 . S
H863 C875 0.950 . S
C864 H856 0.950 . S
C864 C865 1.386 . S
C864 C866 1.391 . S
C865 C864 1.386 . S
C865 C869 1.393 . S
C866 H858 0.950 . S
C866 C864 1.391 . S
C866 C867 1.400 . S
C867 C866 1.400 . S
C867 C868 1.398 . S
C867 C873 1.491 . S
C868 H859 0.950 . S
C868 C867 1.398 . S
C868 C869 1.391 . S
C869 H857 0.950 . S
C869 C865 1.393 . S
C869 C868 1.391 . S
C870 H860 0.950 . S
C870 C871 1.386 . S
C870 C872 1.391 . S
C871 C870 1.386 . S
C871 C875 1.393 . S
C872 H861 0.950 . S
C872 C870 1.391 . S
C872 C873 1.400 . S
C873 C867 1.491 . S
C873 C872 1.400 . S
C873 C874 1.398 . S
C874 H862 0.950 . S
C874 C873 1.398 . S
C874 C875 1.391 . S
C875 H863 0.950 . S
C875 C871 1.393 . S
C875 C874 1.391 . S
H876 C884 0.950 . S
H877 C889 0.950 . S
H878 C886 0.950 . S
H879 C888 0.950 . S
H880 C890 0.950 . S
H881 C892 0.950 . S
H882 C894 0.950 . S
H883 C895 0.950 . S
C884 H876 0.950 . S
C884 C885 1.386 . S
C884 C886 1.391 . S
C885 C884 1.386 . S
C885 C889 1.393 . S
C886 H878 0.950 . S
C886 C884 1.391 . S
C886 C887 1.400 . S
C887 C886 1.400 . S
C887 C888 1.398 . S
C887 C893 1.491 . S
C888 H879 0.950 . S
C888 C887 1.398 . S
C888 C889 1.391 . S
C889 H877 0.950 . S
C889 C885 1.393 . S
C889 C888 1.391 . S
C890 H880 0.950 . S
C890 C891 1.386 . S
C890 C892 1.391 . S
C891 C890 1.386 . S
C891 C895 1.393 . S
C892 H881 0.950 . S
C892 C890 1.391 . S
C892 C893 1.400 . S
C893 C887 1.491 . S
C893 C892 1.400 . S
C893 C894 1.398 . S
C894 H882 0.950 . S
C894 C893 1.398 . S
C894 C895 1.391 . S
C895 H883 0.950 . S
C895 C891 1.393 . S
C895 C894 1.391 . S
H896 C904 0.950 . S
H897 C909 0.950 . S
H898 C906 0.950 . S
H899 C908 0.950 . S
H900 C910 0.950 . S
H901 C912 0.950 . S
H902 C914 0.950 . S
H903 C915 0.950 . S
C904 H896 0.950 . S
C904 C905 1.386 . S
C904 C906 1.391 . S
C905 C904 1.386 . S
C905 C909 1.393 . S
C906 H898 0.950 . S
C906 C904 1.391 . S
C906 C907 1.400 . S
C907 C906 1.400 . S
C907 C908 1.398 . S
C907 C913 1.491 . S
C908 H899 0.950 . S
C908 C907 1.398 . S
C908 C909 1.391 . S
C909 H897 0.950 . S
C909 C905 1.393 . S
C909 C908 1.391 . S
C910 H900 0.950 . S
C910 C911 1.386 . S
C910 C912 1.391 . S
C911 C910 1.386 . S
C911 C915 1.393 . S
C912 H901 0.950 . S
C912 C910 1.391 . S
C912 C913 1.400 . S
C913 C907 1.491 . S
C913 C912 1.400 . S
C913 C914 1.398 . S
C914 H902 0.950 . S
C914 C913 1.398 . S
C914 C915 1.391 . S
C915 H903 0.950 . S
C915 C911 1.393 . S
C915 C914 1.391 . S
H916 C924 0.950 . S
H917 C929 0.950 . S
H918 C926 0.950 . S
H919 C928 0.950 . S
H920 C930 0.950 . S
H921 C932 0.950 . S
H922 C934 0.950 1_545 S
H923 C935 0.950 1_545 S
C924 H916 0.950 . S
C924 C925 1.386 1_545 S
C924 C926 1.391 . S
C925 C924 1.386 1_565 S
C925 C929 1.393 . S
C926 H918 0.950 . S
C926 C924 1.391 . S
C926 C927 1.400 1_545 S
C927 C926 1.400 1_565 S
C927 C928 1.398 . S
C927 C933 1.491 . S
C928 H919 0.950 . S
C928 C927 1.398 . S
C928 C929 1.391 . S
C929 H917 0.950 . S
C929 C925 1.393 . S
C929 C928 1.391 . S
C930 H920 0.950 . S
C930 C931 1.386 . S
C930 C932 1.391 . S
C931 C930 1.386 . S
C931 C935 1.393 . S
C932 H921 0.950 . S
C932 C930 1.391 . S
C932 C933 1.400 . S
C933 C927 1.491 . S
C933 C932 1.400 . S
C933 C934 1.398 . S
C934 H922 0.950 1_565 S
C934 C933 1.398 . S
C934 C935 1.391 . S
C935 H923 0.950 1_565 S
C935 C931 1.393 . S
C935 C934 1.391 . S
H936 C944 0.950 . S
H937 C949 0.950 . S
H938 C946 0.950 . S
H939 C948 0.950 . S
H940 C950 0.950 . S
H941 C952 0.950 . S
H942 C954 0.950 . S
H943 C955 0.950 . S
C944 H936 0.950 . S
C944 C945 1.386 . S
C944 C946 1.391 . S
C945 C944 1.386 . S
C945 C949 1.393 . S
C946 H938 0.950 . S
C946 C944 1.391 . S
C946 C947 1.400 . S
C947 C946 1.400 . S
C947 C948 1.398 . S
C947 C953 1.491 . S
C948 H939 0.950 . S
C948 C947 1.398 . S
C948 C949 1.391 . S
C949 H937 0.950 . S
C949 C945 1.393 . S
C949 C948 1.391 . S
C950 H940 0.950 . S
C950 C951 1.386 . S
C950 C952 1.391 . S
C951 C950 1.386 . S
C951 C955 1.393 . S
C952 H941 0.950 . S
C952 C950 1.391 . S
C952 C953 1.400 . S
C953 C947 1.491 . S
C953 C952 1.400 . S
C953 C954 1.398 . S
C954 H942 0.950 . S
C954 C953 1.398 . S
C954 C955 1.391 . S
C955 H943 0.950 . S
C955 C951 1.393 . S
C955 C954 1.391 . S
H956 C964 0.950 . S
H957 C969 0.950 . S
H958 C966 0.950 . S
H959 C968 0.950 1_565 S
H960 C970 0.950 . S
H961 C972 0.950 . S
H962 C974 0.950 . S
H963 C975 0.950 . S
C964 H956 0.950 . S
C964 C965 1.386 . S
C964 C966 1.391 . S
C965 C964 1.386 . S
C965 C969 1.393 1_545 S
C966 H958 0.950 . S
C966 C964 1.391 . S
C966 C967 1.400 . S
C967 C966 1.400 . S
C967 C968 1.398 . S
C967 C973 1.491 . S
C968 H959 0.950 1_545 S
C968 C967 1.398 . S
C968 C969 1.391 1_545 S
C969 H957 0.950 . S
C969 C965 1.393 1_565 S
C969 C968 1.391 1_565 S
C970 H960 0.950 . S
C970 C971 1.386 . S
C970 C972 1.391 . S
C971 C970 1.386 . S
C971 C975 1.393 . S
C972 H961 0.950 . S
C972 C970 1.391 . S
C972 C973 1.400 . S
C973 C967 1.491 . S
C973 C972 1.400 . S
C973 C974 1.398 . S
C974 H962 0.950 . S
C974 C973 1.398 . S
C974 C975 1.391 . S
C975 H963 0.950 . S
C975 C971 1.393 . S
C975 C974 1.391 . S
H976 C984 0.950 . S
H977 C989 0.950 . S
H978 C986 0.950 . S
H979 C988 0.950 . S
H980 C990 0.950 . S
H981 C992 0.950 . S
H982 C994 0.950 . S
H983 C995 0.950 . S
C984 H976 0.950 . S
C984 C985 1.386 . S
C984 C986 1.391 . S
C985 C984 1.386 . S
C985 C989 1.393 . S
C986 H978 0.950 . S
C986 C984 1.391 . S
C986 C987 1.400 . S
C987 C986 1.400 . S
C987 C988 1.398 . S
C987 C993 1.491 . S
C988 H979 0.950 . S
C988 C987 1.398 . S
C988 C989 1.391 . S
C989 H977 0.950 . S
C989 C985 1.393 . S
C989 C988 1.391 . S
C990 H980 0.950 . S
C990 C991 1.386 . S
C990 C992 1.391 . S
C991 C990 1.386 . S
C991 C995 1.393 . S
C992 H981 0.950 . S
C992 C990 1.391 . S
C992 C993 1.400 . S
C993 C987 1.491 . S
C993 C992 1.400 . S
C993 C994 1.398 . S
C994 H982 0.950 . S
C994 C993 1.398 . S
C994 C995 1.391 . S
C995 H983 0.950 . S
C995 C991 1.393 . S
C995 C994 1.391 . S
H996 C1004 0.950 . S
H997 C1009 0.950 . S
H998 C1006 0.950 . S
H999 C1008 0.950 . S
H1000 C1010 0.950 . S
H1001 C1012 0.950 . S
H1002 C1014 0.950 . S
H1003 C1015 0.950 . S
C1004 H996 0.950 . S
C1004 C1005 1.386 . S
C1004 C1006 1.391 . S
C1005 C1004 1.386 . S
C1005 C1009 1.393 . S
C1006 H998 0.950 . S
C1006 C1004 1.391 . S
C1006 C1007 1.400 . S
C1007 C1006 1.400 . S
C1007 C1008 1.398 . S
C1007 C1013 1.491 . S
C1008 H999 0.950 . S
C1008 C1007 1.398 . S
C1008 C1009 1.391 . S
C1009 H997 0.950 . S
C1009 C1005 1.393 . S
C1009 C1008 1.391 . S
C1010 H1000 0.950 . S
C1010 C1011 1.386 . S
C1010 C1012 1.391 . S
C1011 C1010 1.386 . S
C1011 C1015 1.393 . S
C1012 H1001 0.950 . S
C1012 C1010 1.391 . S
C1012 C1013 1.400 . S
C1013 C1007 1.491 . S
C1013 C1012 1.400 . S
C1013 C1014 1.398 . S
C1014 H1002 0.950 . S
C1014 C1013 1.398 . S
C1014 C1015 1.391 . S
C1015 H1003 0.950 . S
C1015 C1011 1.393 . S
C1015 C1014 1.391 . S
H1016 C1024 0.950 . S
H1017 C1029 0.950 . S
H1018 C1026 0.950 . S
H1019 C1028 0.950 . S
H1020 C1030 0.950 . S
H1021 C1032 0.950 . S
H1022 C1034 0.950 . S
H1023 C1035 0.950 . S
C1024 H1016 0.950 . S
C1024 C1025 1.386 . S
C1024 C1026 1.391 . S
C1025 C1024 1.386 . S
C1025 C1029 1.393 . S
C1026 H1018 0.950 . S
C1026 C1024 1.391 . S
C1026 C1027 1.400 . S
C1027 C1026 1.400 . S
C1027 C1028 1.398 . S
C1027 C1033 1.491 . S
C1028 H1019 0.950 . S
C1028 C1027 1.398 . S
C1028 C1029 1.391 . S
C1029 H1017 0.950 . S
C1029 C1025 1.393 . S
C1029 C1028 1.391 . S
C1030 H1020 0.950 . S
C1030 C1031 1.386 . S
C1030 C1032 1.391 . S
C1031 C1030 1.386 . S
C1031 C1035 1.393 . S
C1032 H1021 0.950 . S
C1032 C1030 1.391 . S
C1032 C1033 1.400 . S
C1033 C1027 1.491 . S
C1033 C1032 1.400 . S
C1033 C1034 1.398 . S
C1034 H1022 0.950 . S
C1034 C1033 1.398 . S
C1034 C1035 1.391 . S
C1035 H1023 0.950 . S
C1035 C1031 1.393 . S
C1035 C1034 1.391 . S
H1036 C1044 0.950 1_455 S
H1037 C1049 0.950 . S
H1038 C1046 0.950 1_455 S
H1039 C1048 0.950 . S
H1040 C1050 0.950 . S
H1041 C1052 0.950 . S
H1042 C1054 0.950 . S
H1043 C1055 0.950 . S
C1044 H1036 0.950 1_655 S
C1044 C1045 1.386 . S
C1044 C1046 1.391 . S
C1045 C1044 1.386 . S
C1045 C1049 1.393 . S
C1046 H1038 0.950 1_655 S
C1046 C1044 1.391 . S
C1046 C1047 1.400 . S
C1047 C1046 1.400 . S
C1047 C1048 1.398 . S
C1047 C1053 1.491 . S
C1048 H1039 0.950 . S
C1048 C1047 1.398 . S
C1048 C1049 1.391 . S
C1049 H1037 0.950 . S
C1049 C1045 1.393 . S
C1049 C1048 1.391 . S
C1050 H1040 0.950 . S
C1050 C1051 1.386 . S
C1050 C1052 1.391 . S
C1051 C1050 1.386 . S
C1051 C1055 1.393 1_655 S
C1052 H1041 0.950 . S
C1052 C1050 1.391 . S
C1052 C1053 1.400 . S
C1053 C1047 1.491 . S
C1053 C1052 1.400 . S
C1053 C1054 1.398 1_655 S
C1054 H1042 0.950 . S
C1054 C1053 1.398 1_455 S
C1054 C1055 1.391 . S
C1055 H1043 0.950 . S
C1055 C1051 1.393 1_455 S
C1055 C1054 1.391 . S
H1056 C1064 0.950 . S
H1057 C1069 0.950 . S
H1058 C1066 0.950 . S
H1059 C1068 0.950 . S
H1060 C1070 0.950 . S
H1061 C1072 0.950 . S
H1062 C1074 0.950 . S
H1063 C1075 0.950 . S
C1064 H1056 0.950 . S
C1064 C1065 1.386 . S
C1064 C1066 1.391 . S
C1065 C1064 1.386 . S
C1065 C1069 1.393 . S
C1066 H1058 0.950 . S
C1066 C1064 1.391 . S
C1066 C1067 1.400 . S
C1067 C1066 1.400 . S
C1067 C1068 1.398 . S
C1067 C1073 1.491 . S
C1068 H1059 0.950 . S
C1068 C1067 1.398 . S
C1068 C1069 1.391 . S
C1069 H1057 0.950 . S
C1069 C1065 1.393 . S
C1069 C1068 1.391 . S
C1070 H1060 0.950 . S
C1070 C1071 1.386 . S
C1070 C1072 1.391 . S
C1071 C1070 1.386 . S
C1071 C1075 1.393 . S
C1072 H1061 0.950 . S
C1072 C1070 1.391 . S
C1072 C1073 1.400 . S
C1073 C1067 1.491 . S
C1073 C1072 1.400 . S
C1073 C1074 1.398 . S
C1074 H1062 0.950 . S
C1074 C1073 1.398 . S
C1074 C1075 1.391 . S
C1075 H1063 0.950 . S
C1075 C1071 1.393 . S
C1075 C1074 1.391 . S
H1076 C1084 0.950 . S
H1077 C1089 0.950 . S
H1078 C1086 0.950 . S
H1079 C1088 0.950 . S
H1080 C1090 0.950 . S
H1081 C1092 0.950 . S
H1082 C1094 0.950 . S
H1083 C1095 0.950 . S
C1084 H1076 0.950 . S
C1084 C1085 1.386 . S
C1084 C1086 1.391 . S
C1085 C1084 1.386 . S
C1085 C1089 1.393 . S
C1086 H1078 0.950 . S
C1086 C1084 1.391 . S
C1086 C1087 1.400 . S
C1087 C1086 1.400 . S
C1087 C1088 1.398 . S
C1087 C1093 1.491 . S
C1088 H1079 0.950 . S
C1088 C1087 1.398 . S
C1088 C1089 1.391 . S
C1089 H1077 0.950 . S
C1089 C1085 1.393 . S
C1089 C1088 1.391 . S
C1090 H1080 0.950 . S
C1090 C1091 1.386 . S
C1090 C1092 1.391 . S
C1091 C1090 1.386 . S
C1091 C1095 1.393 . S
C1092 H1081 0.950 . S
C1092 C1090 1.391 . S
C1092 C1093 1.400 . S
C1093 C1087 1.491 . S
C1093 C1092 1.400 . S
C1093 C1094 1.398 . S
C1094 H1082 0.950 . S
C1094 C1093 1.398 . S
C1094 C1095 1.391 . S
C1095 H1083 0.950 . S
C1095 C1091 1.393 . S
C1095 C1094 1.391 . S
H1096 C1104 0.950 . S
H1097 C1109 0.950 . S
H1098 C1106 0.950 . S
H1099 C1108 0.950 . S
H1100 C1110 0.950 . S
H1101 C1112 0.950 . S
H1102 C1114 0.950 . S
H1103 C1115 0.950 . S
C1104 H1096 0.950 . S
C1104 C1105 1.386 . S
C1104 C1106 1.391 . S
C1105 C1104 1.386 . S
C1105 C1109 1.393 . S
C1106 H1098 0.950 . S
C1106 C1104 1.391 . S
C1106 C1107 1.400 . S
C1107 C1106 1.400 . S
C1107 C1108 1.398 . S
C1107 C1113 1.491 . S
C1108 H1099 0.950 . S
C1108 C1107 1.398 . S
C1108 C1109 1.391 . S
C1109 H1097 0.950 . S
C1109 C1105 1.393 . S
C1109 C1108 1.391 . S
C1110 H1100 0.950 . S
C1110 C1111 1.386 . S
C1110 C1112 1.391 . S
C1111 C1110 1.386 . S
C1111 C1115 1.393 . S
C1112 H1101 0.950 . S
C1112 C1110 1.391 . S
C1112 C1113 1.400 . S
C1113 C1107 1.491 . S
C1113 C1112 1.400 . S
C1113 C1114 1.398 . S
C1114 H1102 0.950 . S
C1114 C1113 1.398 . S
C1114 C1115 1.391 . S
C1115 H1103 0.950 . S
C1115 C1111 1.393 . S
C1115 C1114 1.391 . S
H1116 C1124 0.950 . S
H1117 C1129 0.950 . S
H1118 C1126 0.950 . S
H1119 C1128 0.950 . S
H1120 C1130 0.950 1_655 S
H1121 C1132 0.964 . S
H1122 C1134 0.950 . S
H1123 C1135 0.950 . S
C1124 H1116 0.950 . S
C1124 C1125 1.386 . S
C1124 C1126 1.391 . S
C1125 C1124 1.386 . S
C1125 C1129 1.393 1_455 S
C1126 H1118 0.950 . S
C1126 C1124 1.391 . S
C1126 C1127 1.400 . S
C1127 C1126 1.400 . S
C1127 C1128 1.398 1_455 S
C1127 C1133 1.491 . S
C1128 H1119 0.950 . S
C1128 C1127 1.398 1_655 S
C1128 C1129 1.391 . S
C1129 H1117 0.950 . S
C1129 C1125 1.393 1_655 S
C1129 C1128 1.391 . S
C1130 H1120 0.950 1_455 S
C1130 C1131 1.386 . S
C1130 C1132 1.388 1_455 S
C1131 C1130 1.386 . S
C1131 C1135 1.393 . S
C1132 H1121 0.964 . S
C1132 C1130 1.388 1_655 S
C1132 C1133 1.389 1_655 S
C1133 C1127 1.491 . S
C1133 C1132 1.389 1_455 S
C1133 C1134 1.398 . S
C1134 H1122 0.950 . S
C1134 C1133 1.398 . S
C1134 C1135 1.391 . S
C1135 H1123 0.950 . S
C1135 C1131 1.393 . S
C1135 C1134 1.391 . S
H1136 C1144 0.950 . S
H1137 C1149 0.950 . S
H1138 C1146 0.950 . S
H1139 C1148 0.950 . S
H1140 C1150 0.950 . S
H1141 C1152 0.950 . S
H1142 C1154 0.950 . S
H1143 C1155 0.950 . S
C1144 H1136 0.950 . S
C1144 C1145 1.386 . S
C1144 C1146 1.391 . S
C1145 C1144 1.386 . S
C1145 C1149 1.393 . S
C1146 H1138 0.950 . S
C1146 C1144 1.391 . S
C1146 C1147 1.400 . S
C1147 C1146 1.400 . S
C1147 C1148 1.398 . S
C1147 C1153 1.491 . S
C1148 H1139 0.950 . S
C1148 C1147 1.398 . S
C1148 C1149 1.391 . S
C1149 H1137 0.950 . S
C1149 C1145 1.393 . S
C1149 C1148 1.391 . S
C1150 H1140 0.950 . S
C1150 C1151 1.386 . S
C1150 C1152 1.391 . S
C1151 C1150 1.386 . S
C1151 C1155 1.393 . S
C1152 H1141 0.950 . S
C1152 C1150 1.391 . S
C1152 C1153 1.400 . S
C1153 C1147 1.491 . S
C1153 C1152 1.400 . S
C1153 C1154 1.398 . S
C1154 H1142 0.950 . S
C1154 C1153 1.398 . S
C1154 C1155 1.391 . S
C1155 H1143 0.950 . S
C1155 C1151 1.393 . S
C1155 C1154 1.391 . S
H1156 C1164 0.950 . S
H1157 C1169 0.950 . S
H1158 C1166 0.950 . S
H1159 C1168 0.950 . S
H1160 C1170 0.950 . S
H1161 C1172 0.950 . S
H1162 C1174 0.950 . S
H1163 C1175 0.950 . S
C1164 H1156 0.950 . S
C1164 C1165 1.386 . S
C1164 C1166 1.391 . S
C1165 C1164 1.386 . S
C1165 C1169 1.393 . S
C1166 H1158 0.950 . S
C1166 C1164 1.391 . S
C1166 C1167 1.400 . S
C1167 C1166 1.400 . S
C1167 C1168 1.398 . S
C1167 C1173 1.491 . S
C1168 H1159 0.950 . S
C1168 C1167 1.398 . S
C1168 C1169 1.391 . S
C1169 H1157 0.950 . S
C1169 C1165 1.393 . S
C1169 C1168 1.391 . S
C1170 H1160 0.950 . S
C1170 C1171 1.386 . S
C1170 C1172 1.391 . S
C1171 C1170 1.386 . S
C1171 C1175 1.393 . S
C1172 H1161 0.950 . S
C1172 C1170 1.391 . S
C1172 C1173 1.400 . S
C1173 C1167 1.491 . S
C1173 C1172 1.400 . S
C1173 C1174 1.398 . S
C1174 H1162 0.950 . S
C1174 C1173 1.398 . S
C1174 C1175 1.391 . S
C1175 H1163 0.950 . S
C1175 C1171 1.393 . S
C1175 C1174 1.391 . S
H1176 C1184 0.950 . S
H1177 C1189 0.950 . S
H1178 C1186 0.950 . S
H1179 C1188 0.950 . S
H1180 C1190 0.950 . S
H1181 C1192 0.950 . S
H1182 C1194 0.950 . S
H1183 C1195 0.950 . S
C1184 H1176 0.950 . S
C1184 C1185 1.386 . S
C1184 C1186 1.391 . S
C1185 C1184 1.386 . S
C1185 C1189 1.393 . S
C1186 H1178 0.950 . S
C1186 C1184 1.391 . S
C1186 C1187 1.400 . S
C1187 C1186 1.400 . S
C1187 C1188 1.398 . S
C1187 C1193 1.491 . S
C1188 H1179 0.950 . S
C1188 C1187 1.398 . S
C1188 C1189 1.391 . S
C1189 H1177 0.950 . S
C1189 C1185 1.393 . S
C1189 C1188 1.391 . S
C1190 H1180 0.950 . S
C1190 C1191 1.386 . S
C1190 C1192 1.391 . S
C1191 C1190 1.386 . S
C1191 C1195 1.393 . S
C1192 H1181 0.950 . S
C1192 C1190 1.391 . S
C1192 C1193 1.400 . S
C1193 C1187 1.491 . S
C1193 C1192 1.400 . S
C1193 C1194 1.398 . S
C1194 H1182 0.950 . S
C1194 C1193 1.398 . S
C1194 C1195 1.391 . S
C1195 H1183 0.950 . S
C1195 C1191 1.393 . S
C1195 C1194 1.391 . S
H1196 C1204 0.950 . S
H1197 C1209 0.950 . S
H1198 C1206 0.950 . S
H1199 C1208 0.950 . S
H1200 C1210 0.950 . S
H1201 C1212 0.950 . S
H1202 C1214 0.950 . S
H1203 C1215 0.950 . S
C1204 H1196 0.950 . S
C1204 C1205 1.386 . S
C1204 C1206 1.391 . S
C1205 C1204 1.386 . S
C1205 C1209 1.393 . S
C1206 H1198 0.950 . S
C1206 C1204 1.391 . S
C1206 C1207 1.400 . S
C1207 C1206 1.400 . S
C1207 C1208 1.398 . S
C1207 C1213 1.491 . S
C1208 H1199 0.950 . S
C1208 C1207 1.398 . S
C1208 C1209 1.391 . S
C1209 H1197 0.950 . S
C1209 C1205 1.393 . S
C1209 C1208 1.391 . S
C1210 H1200 0.950 . S
C1210 C1211 1.386 . S
C1210 C1212 1.391 . S
C1211 C1210 1.386 . S
C1211 C1215 1.393 . S
C1212 H1201 0.950 . S
C1212 C1210 1.391 . S
C1212 C1213 1.400 . S
C1213 C1207 1.491 . S
C1213 C1212 1.400 . S
C1213 C1214 1.398 . S
C1214 H1202 0.950 . S
C1214 C1213 1.398 . S
C1214 C1215 1.391 . S
C1215 H1203 0.950 . S
C1215 C1211 1.393 . S
C1215 C1214 1.391 . S
H1216 C1224 0.950 . S
H1217 C1229 0.950 . S
H1218 C1226 0.950 . S
H1219 C1228 0.950 . S
H1220 C1230 0.950 . S
H1221 C1232 0.950 . S
H1222 C1234 0.950 . S
H1223 C1235 0.950 . S
C1224 H1216 0.950 . S
C1224 C1225 1.386 . S
C1224 C1226 1.391 . S
C1225 C1224 1.386 . S
C1225 C1229 1.393 . S
C1226 H1218 0.950 . S
C1226 C1224 1.391 . S
C1226 C1227 1.400 . S
C1227 C1226 1.400 . S
C1227 C1228 1.398 . S
C1227 C1233 1.491 . S
C1228 H1219 0.950 . S
C1228 C1227 1.398 . S
C1228 C1229 1.391 . S
C1229 H1217 0.950 . S
C1229 C1225 1.393 . S
C1229 C1228 1.391 . S
C1230 H1220 0.950 . S
C1230 C1231 1.386 . S
C1230 C1232 1.391 . S
C1231 C1230 1.386 . S
C1231 C1235 1.393 . S
C1232 H1221 0.950 . S
C1232 C1230 1.391 . S
C1232 C1233 1.400 . S
C1233 C1227 1.491 . S
C1233 C1232 1.400 . S
C1233 C1234 1.398 . S
C1234 H1222 0.950 . S
C1234 C1233 1.398 . S
C1234 C1235 1.391 . S
C1235 H1223 0.950 . S
C1235 C1231 1.393 . S
C1235 C1234 1.391 . S
H1236 C1244 0.950 . S
H1237 C1249 0.950 . S
H1238 C1246 0.950 . S
H1239 C1248 0.950 . S
H1240 C1250 0.950 . S
H1241 C1252 0.950 . S
H1242 C1254 0.950 . S
H1243 C1255 0.950 . S
C1244 H1236 0.950 . S
C1244 C1245 1.386 . S
C1244 C1246 1.391 . S
C1245 C1244 1.386 . S
C1245 C1249 1.393 . S
C1246 H1238 0.950 . S
C1246 C1244 1.391 . S
C1246 C1247 1.400 . S
C1247 C1246 1.400 . S
C1247 C1248 1.398 . S
C1247 C1253 1.491 . S
C1248 H1239 0.950 . S
C1248 C1247 1.398 . S
C1248 C1249 1.391 . S
C1249 H1237 0.950 . S
C1249 C1245 1.393 . S
C1249 C1248 1.391 . S
C1250 H1240 0.950 . S
C1250 C1251 1.386 . S
C1250 C1252 1.391 . S
C1251 C1250 1.386 . S
C1251 C1255 1.393 . S
C1252 H1241 0.950 . S
C1252 C1250 1.391 . S
C1252 C1253 1.400 . S
C1253 C1247 1.491 . S
C1253 C1252 1.400 . S
C1253 C1254 1.398 . S
C1254 H1242 0.950 . S
C1254 C1253 1.398 . S
C1254 C1255 1.391 . S
C1255 H1243 0.950 . S
C1255 C1251 1.393 . S
C1255 C1254 1.391 . S
H1256 C1264 0.950 . S
H1257 C1269 0.950 . S
H1258 C1266 0.950 . S
H1259 C1268 0.950 . S
H1260 C1270 0.950 . S
H1261 C1272 0.950 . S
H1262 C1274 0.950 . S
H1263 C1275 0.950 . S
C1264 H1256 0.950 . S
C1264 C1265 1.386 . S
C1264 C1266 1.391 . S
C1265 C1264 1.386 . S
C1265 C1269 1.393 . S
C1266 H1258 0.950 . S
C1266 C1264 1.391 . S
C1266 C1267 1.400 . S
C1267 C1266 1.400 . S
C1267 C1268 1.398 . S
C1267 C1273 1.491 . S
C1268 H1259 0.950 . S
C1268 C1267 1.398 . S
C1268 C1269 1.391 . S
C1269 H1257 0.950 . S
C1269 C1265 1.393 . S
C1269 C1268 1.391 . S
C1270 H1260 0.950 . S
C1270 C1271 1.386 . S
C1270 C1272 1.391 . S
C1271 C1270 1.386 . S
C1271 C1275 1.393 . S
C1272 H1261 0.950 . S
C1272 C1270 1.391 . S
C1272 C1273 1.400 . S
C1273 C1267 1.491 . S
C1273 C1272 1.400 . S
C1273 C1274 1.398 . S
C1274 H1262 0.950 . S
C1274 C1273 1.398 . S
C1274 C1275 1.391 . S
C1275 H1263 0.950 . S
C1275 C1271 1.393 . S
C1275 C1274 1.391 . S
H1276 C1284 0.950 . S
H1277 C1289 0.950 . S
H1278 C1286 0.950 . S
H1279 C1288 0.950 1_554 S
H1280 C1290 0.950 . S
H1281 C1292 0.950 . S
H1282 C1294 0.950 . S
H1283 C1295 0.950 . S
C1284 H1276 0.950 . S
C1284 C1285 1.386 . S
C1284 C1286 1.391 . S
C1285 C1284 1.386 . S
C1285 C1289 1.393 . S
C1286 H1278 0.950 . S
C1286 C1284 1.391 . S
C1286 C1287 1.400 . S
C1287 C1286 1.400 . S
C1287 C1288 1.398 . S
C1287 C1293 1.491 . S
C1288 H1279 0.950 1_556 S
C1288 C1287 1.398 . S
C1288 C1289 1.391 . S
C1289 H1277 0.950 . S
C1289 C1285 1.393 . S
C1289 C1288 1.391 . S
C1290 H1280 0.950 . S
C1290 C1291 1.386 1_554 S
C1290 C1292 1.391 . S
C1291 C1290 1.386 1_556 S
C1291 C1295 1.393 . S
C1292 H1281 0.950 . S
C1292 C1290 1.391 . S
C1292 C1293 1.400 1_554 S
C1293 C1287 1.491 . S
C1293 C1292 1.400 1_556 S
C1293 C1294 1.398 . S
C1294 H1282 0.950 . S
C1294 C1293 1.398 . S
C1294 C1295 1.391 . S
C1295 H1283 0.950 . S
C1295 C1291 1.393 . S
C1295 C1294 1.391 . S
H1296 C1304 0.950 . S
H1297 C1309 0.950 . S
H1298 C1306 0.950 . S
H1299 C1308 0.950 . S
H1300 C1310 0.950 . S
H1301 C1312 0.950 . S
H1302 C1314 0.950 . S
H1303 C1315 0.950 . S
C1304 H1296 0.950 . S
C1304 C1305 1.386 . S
C1304 C1306 1.391 . S
C1305 C1304 1.386 . S
C1305 C1309 1.393 . S
C1306 H1298 0.950 . S
C1306 C1304 1.391 . S
C1306 C1307 1.400 . S
C1307 C1306 1.400 . S
C1307 C1308 1.398 . S
C1307 C1313 1.491 . S
C1308 H1299 0.950 . S
C1308 C1307 1.398 . S
C1308 C1309 1.391 . S
C1309 H1297 0.950 . S
C1309 C1305 1.393 . S
C1309 C1308 1.391 . S
C1310 H1300 0.950 . S
C1310 C1311 1.386 . S
C1310 C1312 1.391 . S
C1311 C1310 1.386 . S
C1311 C1315 1.393 . S
C1312 H1301 0.950 . S
C1312 C1310 1.391 . S
C1312 C1313 1.400 . S
C1313 C1307 1.491 . S
C1313 C1312 1.400 . S
C1313 C1314 1.398 . S
C1314 H1302 0.950 . S
C1314 C1313 1.398 . S
C1314 C1315 1.391 . S
C1315 H1303 0.950 . S
C1315 C1311 1.393 . S
C1315 C1314 1.391 . S
H1316 C1324 0.950 . S
H1317 C1329 0.950 . S
H1318 C1326 0.950 . S
H1319 C1328 0.950 . S
H1320 C1330 0.950 . S
H1321 C1332 0.950 . S
H1322 C1334 0.950 . S
H1323 C1335 0.950 . S
C1324 H1316 0.950 . S
C1324 C1325 1.386 . S
C1324 C1326 1.391 . S
C1325 C1324 1.386 . S
C1325 C1329 1.393 . S
C1326 H1318 0.950 . S
C1326 C1324 1.391 . S
C1326 C1327 1.400 . S
C1327 C1326 1.400 . S
C1327 C1328 1.398 . S
C1327 C1333 1.491 . S
C1328 H1319 0.950 . S
C1328 C1327 1.398 . S
C1328 C1329 1.391 . S
C1329 H1317 0.950 . S
C1329 C1325 1.393 . S
C1329 C1328 1.391 . S
C1330 H1320 0.950 . S
C1330 C1331 1.386 . S
C1330 C1332 1.391 . S
C1331 C1330 1.386 . S
C1331 C1335 1.393 . S
C1332 H1321 0.950 . S
C1332 C1330 1.391 . S
C1332 C1333 1.400 . S
C1333 C1327 1.491 . S
C1333 C1332 1.400 . S
C1333 C1334 1.398 . S
C1334 H1322 0.950 . S
C1334 C1333 1.398 . S
C1334 C1335 1.391 . S
C1335 H1323 0.950 . S
C1335 C1331 1.393 . S
C1335 C1334 1.391 . S
H1336 C1344 0.950 . S
H1337 C1349 0.950 . S
H1338 C1346 0.950 . S
H1339 C1348 0.950 . S
H1340 C1350 0.950 . S
H1341 C1352 0.950 . S
H1342 C1354 0.950 . S
H1343 C1355 0.950 . S
C1344 H1336 0.950 . S
C1344 C1345 1.386 . S
C1344 C1346 1.391 . S
C1345 C1344 1.386 . S
C1345 C1349 1.393 . S
C1346 H1338 0.950 . S
C1346 C1344 1.391 . S
C1346 C1347 1.400 . S
C1347 C1346 1.400 . S
C1347 C1348 1.398 . S
C1347 C1353 1.491 . S
C1348 H1339 0.950 . S
C1348 C1347 1.398 . S
C1348 C1349 1.391 . S
C1349 H1337 0.950 . S
C1349 C1345 1.393 . S
C1349 C1348 1.391 . S
C1350 H1340 0.950 . S
C1350 C1351 1.386 . S
C1350 C1352 1.391 . S
C1351 C1350 1.386 . S
C1351 C1355 1.393 . S
C1352 H1341 0.950 . S
C1352 C1350 1.391 . S
C1352 C1353 1.400 . S
C1353 C1347 1.491 . S
C1353 C1352 1.400 . S
C1353 C1354 1.398 . S
C1354 H1342 0.950 . S
C1354 C1353 1.398 . S
C1354 C1355 1.391 . S
C1355 H1343 0.950 . S
C1355 C1351 1.393 . S
C1355 C1354 1.391 . S
H1356 C1364 0.950 . S
H1357 C1369 0.950 . S
H1358 C1366 0.950 . S
H1359 C1368 0.950 . S
H1360 C1370 0.950 . S
H1361 C1372 0.950 . S
H1362 C1374 0.950 . S
H1363 C1375 0.950 . S
C1364 H1356 0.950 . S
C1364 C1365 1.386 . S
C1364 C1366 1.391 . S
C1365 C1364 1.386 . S
C1365 C1369 1.393 . S
C1366 H1358 0.950 . S
C1366 C1364 1.391 . S
C1366 C1367 1.400 . S
C1367 C1366 1.400 . S
C1367 C1368 1.398 . S
C1367 C1373 1.491 . S
C1368 H1359 0.950 . S
C1368 C1367 1.398 . S
C1368 C1369 1.391 . S
C1369 H1357 0.950 . S
C1369 C1365 1.393 . S
C1369 C1368 1.391 . S
C1370 H1360 0.950 . S
C1370 C1371 1.386 . S
C1370 C1372 1.391 . S
C1371 C1370 1.386 . S
C1371 C1375 1.393 . S
C1372 H1361 0.950 . S
C1372 C1370 1.391 . S
C1372 C1373 1.400 . S
C1373 C1367 1.491 . S
C1373 C1372 1.400 . S
C1373 C1374 1.398 . S
C1374 H1362 0.950 . S
C1374 C1373 1.398 . S
C1374 C1375 1.391 . S
C1375 H1363 0.950 . S
C1375 C1371 1.393 . S
C1375 C1374 1.391 . S
H1376 C1384 0.950 . S
H1377 C1389 0.950 . S
H1378 C1386 0.950 . S
H1379 C1388 0.950 . S
H1380 C1390 0.950 . S
H1381 C1392 0.950 . S
H1382 C1394 0.950 . S
H1383 C1395 0.950 . S
C1384 H1376 0.950 . S
C1384 C1385 1.386 . S
C1384 C1386 1.391 . S
C1385 C1384 1.386 . S
C1385 C1389 1.393 . S
C1386 H1378 0.950 . S
C1386 C1384 1.391 . S
C1386 C1387 1.400 . S
C1387 C1386 1.400 . S
C1387 C1388 1.398 . S
C1387 C1393 1.491 . S
C1388 H1379 0.950 . S
C1388 C1387 1.398 . S
C1388 C1389 1.391 . S
C1389 H1377 0.950 . S
C1389 C1385 1.393 . S
C1389 C1388 1.391 . S
C1390 H1380 0.950 . S
C1390 C1391 1.386 . S
C1390 C1392 1.391 . S
C1391 C1390 1.386 . S
C1391 C1395 1.393 . S
C1392 H1381 0.950 . S
C1392 C1390 1.391 . S
C1392 C1393 1.400 . S
C1393 C1387 1.491 . S
C1393 C1392 1.400 . S
C1393 C1394 1.398 . S
C1394 H1382 0.950 . S
C1394 C1393 1.398 . S
C1394 C1395 1.391 . S
C1395 H1383 0.950 . S
C1395 C1391 1.393 . S
C1395 C1394 1.391 . S
H1396 C1404 0.950 . S
H1397 C1409 0.950 . S
H1398 C1406 0.950 . S
H1399 C1408 0.950 . S
H1400 C1410 0.950 . S
H1401 C1412 0.950 . S
H1402 C1414 0.950 . S
H1403 C1415 0.950 . S
C1404 H1396 0.950 . S
C1404 C1405 1.386 . S
C1404 C1406 1.391 . S
C1405 C1404 1.386 . S
C1405 C1409 1.393 . S
C1406 H1398 0.950 . S
C1406 C1404 1.391 . S
C1406 C1407 1.400 . S
C1407 C1406 1.400 . S
C1407 C1408 1.398 . S
C1407 C1413 1.491 . S
C1408 H1399 0.950 . S
C1408 C1407 1.398 . S
C1408 C1409 1.391 . S
C1409 H1397 0.950 . S
C1409 C1405 1.393 . S
C1409 C1408 1.391 . S
C1410 H1400 0.950 . S
C1410 C1411 1.386 . S
C1410 C1412 1.391 . S
C1411 C1410 1.386 . S
C1411 C1415 1.393 . S
C1412 H1401 0.950 . S
C1412 C1410 1.391 . S
C1412 C1413 1.400 . S
C1413 C1407 1.491 . S
C1413 C1412 1.400 . S
C1413 C1414 1.398 . S
C1414 H1402 0.950 . S
C1414 C1413 1.398 . S
C1414 C1415 1.391 . S
C1415 H1403 0.950 . S
C1415 C1411 1.393 . S
C1415 C1414 1.391 . S
H1416 C1424 0.950 . S
H1417 C1429 0.950 . S
H1418 C1426 0.950 . S
H1419 C1428 0.950 . S
H1420 C1430 0.950 . S
H1421 C1432 0.950 . S
H1422 C1434 0.950 . S
H1423 C1435 0.950 . S
C1424 H1416 0.950 . S
C1424 C1425 1.386 . S
C1424 C1426 1.391 . S
C1425 C1424 1.386 . S
C1425 C1429 1.393 . S
C1426 H1418 0.950 . S
C1426 C1424 1.391 . S
C1426 C1427 1.400 . S
C1427 C1426 1.400 . S
C1427 C1428 1.398 . S
C1427 C1433 1.491 . S
C1428 H1419 0.950 . S
C1428 C1427 1.398 . S
C1428 C1429 1.391 . S
C1429 H1417 0.950 . S
C1429 C1425 1.393 . S
C1429 C1428 1.391 . S
C1430 H1420 0.950 . S
C1430 C1431 1.386 . S
C1430 C1432 1.391 . S
C1431 C1430 1.386 . S
C1431 C1435 1.393 . S
C1432 H1421 0.950 . S
C1432 C1430 1.391 . S
C1432 C1433 1.400 . S
C1433 C1427 1.491 . S
C1433 C1432 1.400 . S
C1433 C1434 1.398 . S
C1434 H1422 0.950 . S
C1434 C1433 1.398 . S
C1434 C1435 1.391 . S
C1435 H1423 0.950 . S
C1435 C1431 1.393 . S
C1435 C1434 1.391 . S
H1436 C1444 0.950 . S
H1437 C1449 0.950 . S
H1438 C1446 0.950 . S
H1439 C1448 0.950 . S
H1440 C1450 0.950 . S
H1441 C1452 0.950 . S
H1442 C1454 0.950 . S
H1443 C1455 0.950 . S
C1444 H1436 0.950 . S
C1444 C1445 1.386 . S
C1444 C1446 1.391 . S
C1445 C1444 1.386 . S
C1445 C1449 1.393 . S
C1446 H1438 0.950 . S
C1446 C1444 1.391 . S
C1446 C1447 1.400 . S
C1447 C1446 1.400 . S
C1447 C1448 1.398 . S
C1447 C1453 1.491 . S
C1448 H1439 0.950 . S
C1448 C1447 1.398 . S
C1448 C1449 1.391 . S
C1449 H1437 0.950 . S
C1449 C1445 1.393 . S
C1449 C1448 1.391 . S
C1450 H1440 0.950 . S
C1450 C1451 1.386 . S
C1450 C1452 1.391 . S
C1451 C1450 1.386 . S
C1451 C1455 1.393 . S
C1452 H1441 0.950 . S
C1452 C1450 1.391 . S
C1452 C1453 1.400 . S
C1453 C1447 1.491 . S
C1453 C1452 1.400 . S
C1453 C1454 1.398 . S
C1454 H1442 0.950 . S
C1454 C1453 1.398 . S
C1454 C1455 1.391 . S
C1455 H1443 0.950 . S
C1455 C1451 1.393 . S
C1455 C1454 1.391 . S
H1456 C1464 0.950 . S
H1457 C1469 0.950 . S
H1458 C1466 0.950 . S
H1459 C1468 0.950 . S
H1460 C1470 0.950 . S
H1461 C1472 0.950 . S
H1462 C1474 0.950 . S
H1463 C1475 0.950 . S
C1464 H1456 0.950 . S
C1464 C1465 1.386 . S
C1464 C1466 1.391 . S
C1465 C1464 1.386 . S
C1465 C1469 1.393 . S
C1466 H1458 0.950 . S
C1466 C1464 1.391 . S
C1466 C1467 1.400 . S
C1467 C1466 1.400 . S
C1467 C1468 1.398 . S
C1467 C1473 1.491 . S
C1468 H1459 0.950 . S
C1468 C1467 1.398 . S
C1468 C1469 1.391 . S
C1469 H1457 0.950 . S
C1469 C1465 1.393 . S
C1469 C1468 1.391 . S
C1470 H1460 0.950 . S
C1470 C1471 1.386 . S
C1470 C1472 1.391 . S
C1471 C1470 1.386 . S
C1471 C1475 1.393 . S
C1472 H1461 0.950 . S
C1472 C1470 1.391 . S
C1472 C1473 1.400 . S
C1473 C1467 1.491 . S
C1473 C1472 1.400 . S
C1473 C1474 1.398 . S
C1474 H1462 0.950 . S
C1474 C1473 1.398 . S
C1474 C1475 1.391 . S
C1475 H1463 0.950 . S
C1475 C1471 1.393 . S
C1475 C1474 1.391 . S
H1476 C1484 0.950 . S
H1477 C1489 0.950 . S
H1478 C1486 0.950 . S
H1479 C1488 0.950 . S
H1480 C1490 0.950 . S
H1481 C1492 0.950 . S
H1482 C1494 0.950 . S
H1483 C1495 0.950 . S
C1484 H1476 0.950 . S
C1484 C1485 1.386 . S
C1484 C1486 1.391 . S
C1485 C1484 1.386 . S
C1485 C1489 1.393 . S
C1486 H1478 0.950 . S
C1486 C1484 1.391 . S
C1486 C1487 1.400 . S
C1487 C1486 1.400 . S
C1487 C1488 1.398 . S
C1487 C1493 1.491 . S
C1488 H1479 0.950 . S
C1488 C1487 1.398 . S
C1488 C1489 1.391 . S
C1489 H1477 0.950 . S
C1489 C1485 1.393 . S
C1489 C1488 1.391 . S
C1490 H1480 0.950 . S
C1490 C1491 1.386 . S
C1490 C1492 1.391 . S
C1491 C1490 1.386 . S
C1491 C1495 1.393 . S
C1492 H1481 0.950 . S
C1492 C1490 1.391 . S
C1492 C1493 1.400 . S
C1493 C1487 1.491 . S
C1493 C1492 1.400 . S
C1493 C1494 1.398 . S
C1494 H1482 0.950 . S
C1494 C1493 1.398 . S
C1494 C1495 1.391 . S
C1495 H1483 0.950 . S
C1495 C1491 1.393 . S
C1495 C1494 1.391 . S
H1496 C1504 0.950 . S
H1497 C1509 0.950 . S
H1498 C1506 0.950 . S
H1499 C1508 0.950 . S
H1500 C1510 0.950 . S
H1501 C1512 0.950 . S
H1502 C1514 0.950 . S
H1503 C1515 0.950 . S
C1504 H1496 0.950 . S
C1504 C1505 1.386 . S
C1504 C1506 1.391 . S
C1505 C1504 1.386 . S
C1505 C1509 1.393 . S
C1506 H1498 0.950 . S
C1506 C1504 1.391 . S
C1506 C1507 1.400 . S
C1507 C1506 1.400 . S
C1507 C1508 1.398 . S
C1507 C1513 1.491 . S
C1508 H1499 0.950 . S
C1508 C1507 1.398 . S
C1508 C1509 1.391 . S
C1509 H1497 0.950 . S
C1509 C1505 1.393 . S
C1509 C1508 1.391 . S
C1510 H1500 0.950 . S
C1510 C1511 1.386 . S
C1510 C1512 1.391 . S
C1511 C1510 1.386 . S
C1511 C1515 1.393 . S
C1512 H1501 0.950 . S
C1512 C1510 1.391 . S
C1512 C1513 1.400 . S
C1513 C1507 1.491 . S
C1513 C1512 1.400 . S
C1513 C1514 1.398 . S
C1514 H1502 0.950 . S
C1514 C1513 1.398 . S
C1514 C1515 1.391 . S
C1515 H1503 0.950 . S
C1515 C1511 1.393 . S
C1515 C1514 1.391 . S
H1516 C1524 0.950 . S
H1517 C1529 0.950 . S
H1518 C1526 0.950 . S
H1519 C1528 0.950 . S
H1520 C1530 0.950 . S
H1521 C1532 0.950 . S
H1522 C1534 0.950 . S
H1523 C1535 0.950 . S
C1524 H1516 0.950 . S
C1524 C1525 1.386 . S
C1524 C1526 1.391 . S
C1525 C1524 1.386 . S
C1525 C1529 1.393 . S
C1526 H1518 0.950 . S
C1526 C1524 1.391 . S
C1526 C1527 1.400 . S
C1527 C1526 1.400 . S
C1527 C1528 1.398 . S
C1527 C1533 1.491 . S
C1528 H1519 0.950 . S
C1528 C1527 1.398 . S
C1528 C1529 1.391 . S
C1529 H1517 0.950 . S
C1529 C1525 1.393 . S
C1529 C1528 1.391 . S
C1530 H1520 0.950 . S
C1530 C1531 1.386 . S
C1530 C1532 1.391 . S
C1531 C1530 1.386 . S
C1531 C1535 1.393 . S
C1532 H1521 0.950 . S
C1532 C1530 1.391 . S
C1532 C1533 1.400 . S
C1533 C1527 1.491 . S
C1533 C1532 1.400 . S
C1533 C1534 1.398 . S
C1534 H1522 0.950 . S
C1534 C1533 1.398 . S
C1534 C1535 1.391 . S
C1535 H1523 0.950 . S
C1535 C1531 1.393 . S
C1535 C1534 1.391 . S
H1536 C1544 0.950 . S
H1537 C1549 0.950 . S
H1538 C1546 0.950 . S
H1539 C1548 0.950 . S
H1540 C1550 0.950 . S
H1541 C1552 0.950 . S
H1542 C1554 0.950 . S
H1543 C1555 0.950 . S
C1544 H1536 0.950 . S
C1544 C1545 1.386 . S
C1544 C1546 1.391 . S
C1545 C1544 1.386 . S
C1545 C1549 1.393 . S
C1546 H1538 0.950 . S
C1546 C1544 1.391 . S
C1546 C1547 1.400 . S
C1547 C1546 1.400 . S
C1547 C1548 1.398 . S
C1547 C1553 1.491 . S
C1548 H1539 0.950 . S
C1548 C1547 1.398 . S
C1548 C1549 1.391 . S
C1549 H1537 0.950 . S
C1549 C1545 1.393 . S
C1549 C1548 1.391 . S
C1550 H1540 0.950 . S
C1550 C1551 1.386 . S
C1550 C1552 1.391 . S
C1551 C1550 1.386 . S
C1551 C1555 1.393 . S
C1552 H1541 0.950 . S
C1552 C1550 1.391 . S
C1552 C1553 1.400 . S
C1553 C1547 1.491 . S
C1553 C1552 1.400 . S
C1553 C1554 1.398 . S
C1554 H1542 0.950 . S
C1554 C1553 1.398 . S
C1554 C1555 1.391 . S
C1555 H1543 0.950 . S
C1555 C1551 1.393 . S
C1555 C1554 1.391 . S
H1556 C1564 0.950 . S
H1557 C1569 0.950 . S
H1558 C1566 0.950 . S
H1559 C1568 0.950 . S
H1560 C1570 0.950 . S
H1561 C1572 0.950 . S
H1562 C1574 0.950 . S
H1563 C1575 0.950 . S
C1564 H1556 0.950 . S
C1564 C1565 1.386 . S
C1564 C1566 1.391 . S
C1565 C1564 1.386 . S
C1565 C1569 1.393 . S
C1566 H1558 0.950 . S
C1566 C1564 1.391 . S
C1566 C1567 1.400 . S
C1567 C1566 1.400 . S
C1567 C1568 1.398 . S
C1567 C1573 1.491 . S
C1568 H1559 0.950 . S
C1568 C1567 1.398 . S
C1568 C1569 1.391 . S
C1569 H1557 0.950 . S
C1569 C1565 1.393 . S
C1569 C1568 1.391 . S
C1570 H1560 0.950 . S
C1570 C1571 1.386 . S
C1570 C1572 1.391 . S
C1571 C1570 1.386 . S
C1571 C1575 1.393 . S
C1572 H1561 0.950 . S
C1572 C1570 1.391 . S
C1572 C1573 1.400 . S
C1573 C1567 1.491 . S
C1573 C1572 1.400 . S
C1573 C1574 1.398 . S
C1574 H1562 0.950 . S
C1574 C1573 1.398 . S
C1574 C1575 1.391 . S
C1575 H1563 0.950 . S
C1575 C1571 1.393 . S
C1575 C1574 1.391 . S
H1576 C1584 0.950 . S
H1577 C1589 0.950 . S
H1578 C1586 0.950 . S
H1579 C1588 0.950 . S
H1580 C1590 0.950 . S
H1581 C1592 0.950 . S
H1582 C1594 0.950 . S
H1583 C1595 0.950 . S
C1584 H1576 0.950 . S
C1584 C1585 1.386 . S
C1584 C1586 1.391 . S
C1585 C1584 1.386 . S
C1585 C1589 1.393 . S
C1586 H1578 0.950 . S
C1586 C1584 1.391 . S
C1586 C1587 1.400 . S
C1587 C1586 1.400 . S
C1587 C1588 1.398 . S
C1587 C1593 1.491 . S
C1588 H1579 0.950 . S
C1588 C1587 1.398 . S
C1588 C1589 1.391 . S
C1589 H1577 0.950 . S
C1589 C1585 1.393 . S
C1589 C1588 1.391 . S
C1590 H1580 0.950 . S
C1590 C1591 1.386 . S
C1590 C1592 1.391 . S
C1591 C1590 1.386 . S
C1591 C1595 1.393 . S
C1592 H1581 0.950 . S
C1592 C1590 1.391 . S
C1592 C1593 1.400 . S
C1593 C1587 1.491 . S
C1593 C1592 1.400 . S
C1593 C1594 1.398 . S
C1594 H1582 0.950 . S
C1594 C1593 1.398 . S
C1594 C1595 1.391 . S
C1595 H1583 0.950 . S
C1595 C1591 1.393 . S
C1595 C1594 1.391 . S
H1596 C1604 0.950 . S
H1597 C1609 0.950 . S
H1598 C1606 0.950 . S
H1599 C1608 0.950 . S
H1600 C1610 0.950 . S
H1601 C1612 0.950 . S
H1602 C1614 0.950 . S
H1603 C1615 0.950 . S
C1604 H1596 0.950 . S
C1604 C1605 1.386 . S
C1604 C1606 1.391 . S
C1605 C1604 1.386 . S
C1605 C1609 1.393 . S
C1606 H1598 0.950 . S
C1606 C1604 1.391 . S
C1606 C1607 1.400 . S
C1607 C1606 1.400 . S
C1607 C1608 1.398 . S
C1607 C1613 1.491 . S
C1608 H1599 0.950 . S
C1608 C1607 1.398 . S
C1608 C1609 1.391 . S
C1609 H1597 0.950 . S
C1609 C1605 1.393 . S
C1609 C1608 1.391 . S
C1610 H1600 0.950 . S
C1610 C1611 1.386 1_455 S
C1610 C1612 1.391 . S
C1611 C1610 1.386 1_655 S
C1611 C1615 1.393 . S
C1612 H1601 0.950 . S
C1612 C1610 1.391 . S
C1612 C1613 1.400 . S
C1613 C1607 1.491 . S
C1613 C1612 1.400 . S
C1613 C1614 1.398 1_455 S
C1614 H1602 0.950 . S
C1614 C1613 1.398 1_655 S
C1614 C1615 1.391 . S
C1615 H1603 0.950 . S
C1615 C1611 1.393 . S
C1615 C1614 1.391 . S
H1616 C1624 0.950 . S
H1617 C1629 0.950 . S
H1618 C1626 0.950 . S
H1619 C1628 0.950 . S
H1620 C1630 0.950 . S
H1621 C1632 0.950 . S
H1622 C1634 0.950 . S
H1623 C1635 0.950 . S
C1624 H1616 0.950 . S
C1624 C1625 1.386 . S
C1624 C1626 1.391 . S
C1625 C1624 1.386 . S
C1625 C1629 1.393 . S
C1626 H1618 0.950 . S
C1626 C1624 1.391 . S
C1626 C1627 1.400 . S
C1627 C1626 1.400 . S
C1627 C1628 1.398 . S
C1627 C1633 1.491 . S
C1628 H1619 0.950 . S
C1628 C1627 1.398 . S
C1628 C1629 1.391 . S
C1629 H1617 0.950 . S
C1629 C1625 1.393 . S
C1629 C1628 1.391 . S
C1630 H1620 0.950 . S
C1630 C1631 1.386 . S
C1630 C1632 1.391 . S
C1631 C1630 1.386 . S
C1631 C1635 1.393 . S
C1632 H1621 0.950 . S
C1632 C1630 1.391 . S
C1632 C1633 1.400 . S
C1633 C1627 1.491 . S
C1633 C1632 1.400 . S
C1633 C1634 1.398 . S
C1634 H1622 0.950 . S
C1634 C1633 1.398 . S
C1634 C1635 1.391 . S
C1635 H1623 0.950 . S
C1635 C1631 1.393 . S
C1635 C1634 1.391 . S
H1636 C1644 0.950 . S
H1637 C1649 0.950 . S
H1638 C1646 0.950 . S
H1639 C1648 0.950 . S
H1640 C1650 0.950 . S
H1641 C1652 0.950 . S
H1642 C1654 0.950 . S
H1643 C1655 0.950 . S
C1644 H1636 0.950 . S
C1644 C1645 1.386 . S
C1644 C1646 1.391 . S
C1645 C1644 1.386 . S
C1645 C1649 1.393 . S
C1646 H1638 0.950 . S
C1646 C1644 1.391 . S
C1646 C1647 1.400 . S
C1647 C1646 1.400 . S
C1647 C1648 1.398 . S
C1647 C1653 1.491 . S
C1648 H1639 0.950 . S
C1648 C1647 1.398 . S
C1648 C1649 1.391 . S
C1649 H1637 0.950 . S
C1649 C1645 1.393 . S
C1649 C1648 1.391 . S
C1650 H1640 0.950 . S
C1650 C1651 1.386 . S
C1650 C1652 1.391 . S
C1651 C1650 1.386 . S
C1651 C1655 1.393 . S
C1652 H1641 0.950 . S
C1652 C1650 1.391 . S
C1652 C1653 1.400 . S
C1653 C1647 1.491 . S
C1653 C1652 1.400 . S
C1653 C1654 1.398 . S
C1654 H1642 0.950 . S
C1654 C1653 1.398 . S
C1654 C1655 1.391 . S
C1655 H1643 0.950 . S
C1655 C1651 1.393 . S
C1655 C1654 1.391 . S
H1656 C1664 0.950 . S
H1657 C1669 0.945 1_554 S
H1658 C1666 0.950 . S
H1659 C1668 0.936 1_554 S
H1660 C1670 0.950 . S
H1661 C1672 0.950 . S
H1662 C1674 0.950 . S
H1663 C1675 0.950 . S
C1664 H1656 0.950 . S
C1664 C1665 1.386 . S
C1664 C1666 1.391 . S
C1665 C1664 1.386 . S
C1665 C1669 1.396 . S
C1666 H1658 0.950 . S
C1666 C1664 1.391 . S
C1666 C1667 1.400 . S
C1667 C1666 1.400 . S
C1667 C1668 1.398 . S
C1667 C1673 1.491 . S
C1668 H1659 0.936 1_556 S
C1668 C1667 1.398 . S
C1668 C1669 1.392 . S
C1669 H1657 0.945 1_556 S
C1669 C1665 1.396 . S
C1669 C1668 1.392 . S
C1670 H1660 0.950 . S
C1670 C1671 1.386 . S
C1670 C1672 1.391 . S
C1671 C1670 1.386 . S
C1671 C1675 1.393 . S
C1672 H1661 0.950 . S
C1672 C1670 1.391 . S
C1672 C1673 1.400 . S
C1673 C1667 1.491 . S
C1673 C1672 1.400 . S
C1673 C1674 1.398 . S
C1674 H1662 0.950 . S
C1674 C1673 1.398 . S
C1674 C1675 1.391 . S
C1675 H1663 0.950 . S
C1675 C1671 1.393 . S
C1675 C1674 1.391 . S
H1676 C1684 0.950 . S
H1677 C1689 0.950 . S
H1678 C1686 0.950 . S
H1679 C1688 0.950 . S
H1680 C1690 0.950 . S
H1681 C1692 0.950 . S
H1682 C1694 0.950 . S
H1683 C1695 0.950 . S
C1684 H1676 0.950 . S
C1684 C1685 1.386 . S
C1684 C1686 1.391 . S
C1685 C1684 1.386 . S
C1685 C1689 1.393 . S
C1686 H1678 0.950 . S
C1686 C1684 1.391 . S
C1686 C1687 1.400 . S
C1687 C1686 1.400 . S
C1687 C1688 1.398 . S
C1687 C1693 1.491 . S
C1688 H1679 0.950 . S
C1688 C1687 1.398 . S
C1688 C1689 1.391 . S
C1689 H1677 0.950 . S
C1689 C1685 1.393 . S
C1689 C1688 1.391 . S
C1690 H1680 0.950 . S
C1690 C1691 1.386 . S
C1690 C1692 1.391 . S
C1691 C1690 1.386 . S
C1691 C1695 1.393 . S
C1692 H1681 0.950 . S
C1692 C1690 1.391 . S
C1692 C1693 1.400 . S
C1693 C1687 1.491 . S
C1693 C1692 1.400 . S
C1693 C1694 1.398 . S
C1694 H1682 0.950 . S
C1694 C1693 1.398 . S
C1694 C1695 1.391 . S
C1695 H1683 0.950 . S
C1695 C1691 1.393 . S
C1695 C1694 1.391 . S
H1696 C1704 0.950 . S
H1697 C1709 0.950 . S
H1698 C1706 0.950 . S
H1699 C1708 0.950 . S
H1700 C1710 0.950 . S
H1701 C1712 0.950 . S
H1702 C1714 0.950 . S
H1703 C1715 0.950 . S
C1704 H1696 0.950 . S
C1704 C1705 1.386 . S
C1704 C1706 1.391 . S
C1705 C1704 1.386 . S
C1705 C1709 1.393 . S
C1706 H1698 0.950 . S
C1706 C1704 1.391 . S
C1706 C1707 1.400 . S
C1707 C1706 1.400 . S
C1707 C1708 1.398 . S
C1707 C1713 1.491 . S
C1708 H1699 0.950 . S
C1708 C1707 1.398 . S
C1708 C1709 1.391 . S
C1709 H1697 0.950 . S
C1709 C1705 1.393 . S
C1709 C1708 1.391 . S
C1710 H1700 0.950 . S
C1710 C1711 1.386 . S
C1710 C1712 1.391 . S
C1711 C1710 1.386 . S
C1711 C1715 1.393 . S
C1712 H1701 0.950 . S
C1712 C1710 1.391 . S
C1712 C1713 1.400 . S
C1713 C1707 1.491 . S
C1713 C1712 1.400 . S
C1713 C1714 1.398 . S
C1714 H1702 0.950 . S
C1714 C1713 1.398 . S
C1714 C1715 1.391 . S
C1715 H1703 0.950 . S
C1715 C1711 1.393 . S
C1715 C1714 1.391 . S
H1716 C1724 0.950 . S
H1717 C1729 0.950 . S
H1718 C1726 0.950 . S
H1719 C1728 0.950 . S
H1720 C1730 0.950 . S
H1721 C1732 0.950 . S
H1722 C1734 0.999 . S
H1723 C1735 0.950 . S
C1724 H1716 0.950 . S
C1724 C1725 1.386 . S
C1724 C1726 1.391 . S
C1725 C1724 1.386 . S
C1725 C1729 1.393 1_556 S
C1726 H1718 0.950 . S
C1726 C1724 1.391 . S
C1726 C1727 1.400 1_556 S
C1727 C1726 1.400 1_554 S
C1727 C1728 1.398 . S
C1727 C1733 1.491 . S
C1728 H1719 0.950 . S
C1728 C1727 1.398 . S
C1728 C1729 1.391 . S
C1729 H1717 0.950 . S
C1729 C1725 1.393 1_554 S
C1729 C1728 1.391 . S
C1730 H1720 0.950 . S
C1730 C1731 1.386 . S
C1730 C1732 1.391 . S
C1731 C1730 1.386 . S
C1731 C1735 1.393 . S
C1732 H1721 0.950 . S
C1732 C1730 1.391 . S
C1732 C1733 1.400 . S
C1733 C1727 1.491 . S
C1733 C1732 1.400 . S
C1733 C1734 1.398 . S
C1734 H1722 0.999 . S
C1734 C1733 1.398 . S
C1734 C1735 1.391 . S
C1735 H1723 0.950 . S
C1735 C1731 1.393 . S
C1735 C1734 1.391 . S
H1736 C1744 0.950 . S
H1737 C1749 0.950 . S
H1738 C1746 0.927 1_455 S
H1739 C1748 0.950 . S
H1740 C1750 0.950 . S
H1741 C1752 0.950 . S
H1742 C1754 0.950 1_455 S
H1743 C1755 0.950 . S
C1744 H1736 0.950 . S
C1744 C1745 1.386 1_455 S
C1744 C1746 1.384 1_455 S
C1745 C1744 1.386 1_655 S
C1745 C1749 1.393 . S
C1746 H1738 0.927 1_655 S
C1746 C1744 1.384 1_655 S
C1746 C1747 1.432 . S
C1747 C1746 1.432 . S
C1747 C1748 1.398 . S
C1747 C1753 1.491 . S
C1748 H1739 0.950 . S
C1748 C1747 1.398 . S
C1748 C1749 1.391 . S
C1749 H1737 0.950 . S
C1749 C1745 1.393 . S
C1749 C1748 1.391 . S
C1750 H1740 0.950 . S
C1750 C1751 1.386 . S
C1750 C1752 1.391 . S
C1751 C1750 1.386 . S
C1751 C1755 1.393 . S
C1752 H1741 0.950 . S
C1752 C1750 1.391 . S
C1752 C1753 1.400 . S
C1753 C1747 1.491 . S
C1753 C1752 1.400 . S
C1753 C1754 1.398 . S
C1754 H1742 0.950 1_655 S
C1754 C1753 1.398 . S
C1754 C1755 1.391 . S
C1755 H1743 0.950 . S
C1755 C1751 1.393 . S
C1755 C1754 1.391 . S
H1756 C1764 0.950 . S
H1757 C1769 0.950 . S
H1758 C1766 0.950 . S
H1759 C1768 0.950 . S
H1760 C1770 0.950 . S
H1761 C1772 0.950 . S
H1762 C1774 0.950 . S
H1763 C1775 0.950 . S
C1764 H1756 0.950 . S
C1764 C1765 1.386 . S
C1764 C1766 1.391 . S
C1765 C1764 1.386 . S
C1765 C1769 1.393 . S
C1766 H1758 0.950 . S
C1766 C1764 1.391 . S
C1766 C1767 1.400 . S
C1767 C1766 1.400 . S
C1767 C1768 1.398 . S
C1767 C1773 1.491 . S
C1768 H1759 0.950 . S
C1768 C1767 1.398 . S
C1768 C1769 1.391 . S
C1769 H1757 0.950 . S
C1769 C1765 1.393 . S
C1769 C1768 1.391 . S
C1770 H1760 0.950 . S
C1770 C1771 1.386 . S
C1770 C1772 1.391 . S
C1771 C1770 1.386 . S
C1771 C1775 1.393 . S
C1772 H1761 0.950 . S
C1772 C1770 1.391 . S
C1772 C1773 1.400 . S
C1773 C1767 1.491 . S
C1773 C1772 1.400 . S
C1773 C1774 1.398 . S
C1774 H1762 0.950 . S
C1774 C1773 1.398 . S
C1774 C1775 1.391 . S
C1775 H1763 0.950 . S
C1775 C1771 1.393 . S
C1775 C1774 1.391 . S
H1776 C1784 0.950 . S
H1777 C1789 0.950 1_655 S
H1778 C1786 0.950 . S
H1779 C1788 0.950 1_655 S
H1780 C1790 0.950 . S
H1781 C1792 0.950 . S
H1782 C1794 0.950 . S
H1783 C1795 0.950 . S
C1784 H1776 0.950 . S
C1784 C1785 1.386 . S
C1784 C1786 1.391 . S
C1785 C1784 1.386 . S
C1785 C1789 1.393 . S
C1786 H1778 0.950 . S
C1786 C1784 1.391 . S
C1786 C1787 1.400 . S
C1787 C1786 1.400 . S
C1787 C1788 1.398 . S
C1787 C1793 1.491 . S
C1788 H1779 0.950 1_455 S
C1788 C1787 1.398 . S
C1788 C1789 1.391 . S
C1789 H1777 0.950 1_455 S
C1789 C1785 1.393 . S
C1789 C1788 1.391 . S
C1790 H1780 0.950 . S
C1790 C1791 1.386 1_655 S
C1790 C1792 1.391 . S
C1791 C1790 1.386 1_455 S
C1791 C1795 1.393 . S
C1792 H1781 0.950 . S
C1792 C1790 1.391 . S
C1792 C1793 1.400 1_655 S
C1793 C1787 1.491 . S
C1793 C1792 1.400 1_455 S
C1793 C1794 1.398 . S
C1794 H1782 0.950 . S
C1794 C1793 1.398 . S
C1794 C1795 1.391 . S
C1795 H1783 0.950 . S
C1795 C1791 1.393 . S
C1795 C1794 1.391 . S
H1796 C1804 0.950 . S
H1797 C1809 0.950 . S
H1798 C1806 0.950 . S
H1799 C1808 0.950 . S
H1800 C1810 0.950 . S
H1801 C1812 0.950 . S
H1802 C1814 0.950 . S
H1803 C1815 0.950 . S
C1804 H1796 0.950 . S
C1804 C1805 1.386 . S
C1804 C1806 1.391 . S
C1805 C1804 1.386 . S
C1805 C1809 1.393 . S
C1806 H1798 0.950 . S
C1806 C1804 1.391 . S
C1806 C1807 1.400 . S
C1807 C1806 1.400 . S
C1807 C1808 1.398 . S
C1807 C1813 1.491 . S
C1808 H1799 0.950 . S
C1808 C1807 1.398 . S
C1808 C1809 1.391 . S
C1809 H1797 0.950 . S
C1809 C1805 1.393 . S
C1809 C1808 1.391 . S
C1810 H1800 0.950 . S
C1810 C1811 1.386 . S
C1810 C1812 1.391 . S
C1811 C1810 1.386 . S
C1811 C1815 1.393 . S
C1812 H1801 0.950 . S
C1812 C1810 1.391 . S
C1812 C1813 1.400 . S
C1813 C1807 1.491 . S
C1813 C1812 1.400 . S
C1813 C1814 1.398 . S
C1814 H1802 0.950 . S
C1814 C1813 1.398 . S
C1814 C1815 1.391 . S
C1815 H1803 0.950 . S
C1815 C1811 1.393 . S
C1815 C1814 1.391 . S
H1816 C1824 0.950 . S
H1817 C1829 0.950 . S
H1818 C1826 0.950 . S
H1819 C1828 0.950 . S
H1820 C1830 0.950 . S
H1821 C1832 0.950 . S
H1822 C1834 0.950 . S
H1823 C1835 0.950 . S
C1824 H1816 0.950 . S
C1824 C1825 1.386 . S
C1824 C1826 1.391 . S
C1825 C1824 1.386 . S
C1825 C1829 1.393 . S
C1826 H1818 0.950 . S
C1826 C1824 1.391 . S
C1826 C1827 1.400 . S
C1827 C1826 1.400 . S
C1827 C1828 1.398 . S
C1827 C1833 1.491 . S
C1828 H1819 0.950 . S
C1828 C1827 1.398 . S
C1828 C1829 1.391 . S
C1829 H1817 0.950 . S
C1829 C1825 1.393 . S
C1829 C1828 1.391 . S
C1830 H1820 0.950 . S
C1830 C1831 1.386 . S
C1830 C1832 1.391 . S
C1831 C1830 1.386 . S
C1831 C1835 1.393 . S
C1832 H1821 0.950 . S
C1832 C1830 1.391 . S
C1832 C1833 1.400 . S
C1833 C1827 1.491 . S
C1833 C1832 1.400 . S
C1833 C1834 1.398 . S
C1834 H1822 0.950 . S
C1834 C1833 1.398 . S
C1834 C1835 1.391 . S
C1835 H1823 0.950 . S
C1835 C1831 1.393 . S
C1835 C1834 1.391 . S
H1836 C1844 0.950 . S
H1837 C1849 0.950 . S
H1838 C1846 0.950 . S
H1839 C1848 0.950 1_554 S
H1840 C1850 0.950 . S
H1841 C1852 0.950 . S
H1842 C1854 0.950 . S
H1843 C1855 0.950 . S
C1844 H1836 0.950 . S
C1844 C1845 1.419 . S
C1844 C1846 1.391 . S
C1845 C1844 1.419 . S
C1845 C1849 1.379 1_556 S
C1846 H1838 0.950 . S
C1846 C1844 1.391 . S
C1846 C1847 1.400 . S
C1847 C1846 1.400 . S
C1847 C1848 1.398 . S
C1847 C1853 1.491 . S
C1848 H1839 0.950 1_556 S
C1848 C1847 1.398 . S
C1848 C1849 1.391 1_556 S
C1849 H1837 0.950 . S
C1849 C1845 1.379 1_554 S
C1849 C1848 1.391 1_554 S
C1850 H1840 0.950 . S
C1850 C1851 1.386 . S
C1850 C1852 1.391 . S
C1851 C1850 1.386 . S
C1851 C1855 1.393 . S
C1852 H1841 0.950 . S
C1852 C1850 1.391 . S
C1852 C1853 1.400 . S
C1853 C1847 1.491 . S
C1853 C1852 1.400 . S
C1853 C1854 1.398 . S
C1854 H1842 0.950 . S
C1854 C1853 1.398 . S
C1854 C1855 1.391 . S
C1855 H1843 0.950 . S
C1855 C1851 1.393 . S
C1855 C1854 1.391 . S
H1856 C1864 0.950 . S
H1857 C1869 0.950 . S
H1858 C1866 0.950 . S
H1859 C1868 0.950 . S
H1860 C1870 0.950 . S
H1861 C1872 0.950 . S
H1862 C1874 0.950 . S
H1863 C1875 0.950 . S
C1864 H1856 0.950 . S
C1864 C1865 1.386 . S
C1864 C1866 1.391 . S
C1865 C1864 1.386 . S
C1865 C1869 1.393 . S
C1866 H1858 0.950 . S
C1866 C1864 1.391 . S
C1866 C1867 1.400 . S
C1867 C1866 1.400 . S
C1867 C1868 1.398 . S
C1867 C1873 1.491 . S
C1868 H1859 0.950 . S
C1868 C1867 1.398 . S
C1868 C1869 1.391 . S
C1869 H1857 0.950 . S
C1869 C1865 1.393 . S
C1869 C1868 1.391 . S
C1870 H1860 0.950 . S
C1870 C1871 1.386 . S
C1870 C1872 1.391 . S
C1871 C1870 1.386 . S
C1871 C1875 1.393 . S
C1872 H1861 0.950 . S
C1872 C1870 1.391 . S
C1872 C1873 1.400 . S
C1873 C1867 1.491 . S
C1873 C1872 1.400 . S
C1873 C1874 1.398 . S
C1874 H1862 0.950 . S
C1874 C1873 1.398 . S
C1874 C1875 1.391 . S
C1875 H1863 0.950 . S
C1875 C1871 1.393 . S
C1875 C1874 1.391 . S
H1876 C1884 0.950 . S
H1877 C1889 0.950 . S
H1878 C1886 0.950 . S
H1879 C1888 0.950 . S
H1880 C1890 0.950 . S
H1881 C1892 0.950 . S
H1882 C1894 0.950 . S
H1883 C1895 0.950 . S
C1884 H1876 0.950 . S
C1884 C1885 1.386 . S
C1884 C1886 1.391 . S
C1885 C1884 1.386 . S
C1885 C1889 1.393 . S
C1886 H1878 0.950 . S
C1886 C1884 1.391 . S
C1886 C1887 1.400 . S
C1887 C1886 1.400 . S
C1887 C1888 1.398 . S
C1887 C1893 1.491 . S
C1888 H1879 0.950 . S
C1888 C1887 1.398 . S
C1888 C1889 1.391 . S
C1889 H1877 0.950 . S
C1889 C1885 1.393 . S
C1889 C1888 1.391 . S
C1890 H1880 0.950 . S
C1890 C1891 1.386 . S
C1890 C1892 1.391 . S
C1891 C1890 1.386 . S
C1891 C1895 1.393 . S
C1892 H1881 0.950 . S
C1892 C1890 1.391 . S
C1892 C1893 1.400 . S
C1893 C1887 1.491 . S
C1893 C1892 1.400 . S
C1893 C1894 1.398 . S
C1894 H1882 0.950 . S
C1894 C1893 1.398 . S
C1894 C1895 1.391 . S
C1895 H1883 0.950 . S
C1895 C1891 1.393 . S
C1895 C1894 1.391 . S
H1896 C1904 0.950 . S
H1897 C1909 0.950 . S
H1898 C1906 0.950 . S
H1899 C1908 0.950 . S
H1900 C1910 0.950 . S
H1901 C1912 0.950 . S
H1902 C1914 0.950 . S
H1903 C1915 0.950 . S
C1904 H1896 0.950 . S
C1904 C1905 1.386 . S
C1904 C1906 1.391 . S
C1905 C1904 1.386 . S
C1905 C1909 1.393 . S
C1906 H1898 0.950 . S
C1906 C1904 1.391 . S
C1906 C1907 1.400 . S
C1907 C1906 1.400 . S
C1907 C1908 1.398 . S
C1907 C1913 1.491 . S
C1908 H1899 0.950 . S
C1908 C1907 1.398 . S
C1908 C1909 1.391 . S
C1909 H1897 0.950 . S
C1909 C1905 1.393 . S
C1909 C1908 1.391 . S
C1910 H1900 0.950 . S
C1910 C1911 1.386 1_545 S
C1910 C1912 1.391 . S
C1911 C1910 1.386 1_565 S
C1911 C1915 1.393 . S
C1912 H1901 0.950 . S
C1912 C1910 1.391 . S
C1912 C1913 1.400 . S
C1913 C1907 1.491 . S
C1913 C1912 1.400 . S
C1913 C1914 1.398 . S
C1914 H1902 0.950 . S
C1914 C1913 1.398 . S
C1914 C1915 1.391 1_545 S
C1915 H1903 0.950 . S
C1915 C1911 1.393 . S
C1915 C1914 1.391 1_565 S
H1916 C1924 0.950 . S
H1917 C1929 0.950 . S
H1918 C1926 0.940 1_565 S
H1919 C1928 0.950 . S
H1920 C1930 0.950 . S
H1921 C1932 0.950 . S
H1922 C1934 0.950 1_565 S
H1923 C1935 0.958 . S
C1924 H1916 0.950 . S
C1924 C1925 1.386 1_565 S
C1924 C1926 1.389 1_565 S
C1925 C1924 1.386 1_545 S
C1925 C1929 1.393 . S
C1926 H1918 0.940 1_545 S
C1926 C1924 1.389 1_545 S
C1926 C1927 1.413 . S
C1927 C1926 1.413 . S
C1927 C1928 1.398 . S
C1927 C1933 1.491 . S
C1928 H1919 0.950 . S
C1928 C1927 1.398 . S
C1928 C1929 1.391 . S
C1929 H1917 0.950 . S
C1929 C1925 1.393 . S
C1929 C1928 1.391 . S
C1930 H1920 0.950 . S
C1930 C1931 1.386 . S
C1930 C1932 1.391 . S
C1931 C1930 1.386 . S
C1931 C1935 1.393 . S
C1932 H1921 0.950 . S
C1932 C1930 1.391 . S
C1932 C1933 1.400 . S
C1933 C1927 1.491 . S
C1933 C1932 1.400 . S
C1933 C1934 1.398 . S
C1934 H1922 0.950 1_545 S
C1934 C1933 1.398 . S
C1934 C1935 1.391 . S
C1935 H1923 0.958 . S
C1935 C1931 1.393 . S
C1935 C1934 1.391 . S
H1936 C1944 0.950 . S
H1937 C1949 0.950 . S
H1938 C1946 0.950 . S
H1939 C1948 0.959 . S
H1940 C1950 0.950 . S
H1941 C1952 0.950 . S
H1942 C1954 0.950 . S
H1943 C1955 0.950 . S
C1944 H1936 0.950 . S
C1944 C1945 1.392 . S
C1944 C1946 1.391 . S
C1945 C1944 1.392 . S
C1945 C1949 1.390 1_565 S
C1946 H1938 0.950 . S
C1946 C1944 1.391 . S
C1946 C1947 1.400 . S
C1947 C1946 1.400 . S
C1947 C1948 1.380 1_565 S
C1947 C1953 1.491 . S
C1948 H1939 0.959 . S
C1948 C1947 1.380 1_545 S
C1948 C1949 1.400 . S
C1949 H1937 0.950 . S
C1949 C1945 1.390 1_545 S
C1949 C1948 1.400 . S
C1950 H1940 0.950 . S
C1950 C1951 1.386 . S
C1950 C1952 1.391 . S
C1951 C1950 1.386 . S
C1951 C1955 1.393 . S
C1952 H1941 0.950 . S
C1952 C1950 1.391 . S
C1952 C1953 1.400 . S
C1953 C1947 1.491 . S
C1953 C1952 1.400 . S
C1953 C1954 1.398 . S
C1954 H1942 0.950 . S
C1954 C1953 1.398 . S
C1954 C1955 1.391 . S
C1955 H1943 0.950 . S
C1955 C1951 1.393 . S
C1955 C1954 1.391 . S
H1956 C1964 0.950 . S
H1957 C1969 0.950 . S
H1958 C1966 0.950 . S
H1959 C1968 0.950 . S
H1960 C1970 0.950 . S
H1961 C1972 0.950 . S
H1962 C1974 0.950 . S
H1963 C1975 0.950 . S
C1964 H1956 0.950 . S
C1964 C1965 1.386 . S
C1964 C1966 1.391 . S
C1965 C1964 1.386 . S
C1965 C1969 1.393 . S
C1966 H1958 0.950 . S
C1966 C1964 1.391 . S
C1966 C1967 1.400 . S
C1967 C1966 1.400 . S
C1967 C1968 1.398 . S
C1967 C1973 1.491 . S
C1968 H1959 0.950 . S
C1968 C1967 1.398 . S
C1968 C1969 1.391 . S
C1969 H1957 0.950 . S
C1969 C1965 1.393 . S
C1969 C1968 1.391 . S
C1970 H1960 0.950 . S
C1970 C1971 1.386 . S
C1970 C1972 1.391 . S
C1971 C1970 1.386 . S
C1971 C1975 1.393 . S
C1972 H1961 0.950 . S
C1972 C1970 1.391 . S
C1972 C1973 1.400 . S
C1973 C1967 1.491 . S
C1973 C1972 1.400 . S
C1973 C1974 1.398 . S
C1974 H1962 0.950 . S
C1974 C1973 1.398 . S
C1974 C1975 1.391 . S
C1975 H1963 0.950 . S
C1975 C1971 1.393 . S
C1975 C1974 1.391 . S
H1976 C1984 0.950 . S
H1977 C1989 0.950 . S
H1978 C1986 0.950 . S
H1979 C1988 0.950 . S
H1980 C1990 0.950 . S
H1981 C1992 0.950 . S
H1982 C1994 0.950 . S
H1983 C1995 0.950 . S
C1984 H1976 0.950 . S
C1984 C1985 1.386 . S
C1984 C1986 1.391 . S
C1985 C1984 1.386 . S
C1985 C1989 1.393 . S
C1986 H1978 0.950 . S
C1986 C1984 1.391 . S
C1986 C1987 1.400 . S
C1987 C1986 1.400 . S
C1987 C1988 1.398 . S
C1987 C1993 1.491 . S
C1988 H1979 0.950 . S
C1988 C1987 1.398 . S
C1988 C1989 1.391 . S
C1989 H1977 0.950 . S
C1989 C1985 1.393 . S
C1989 C1988 1.391 . S
C1990 H1980 0.950 . S
C1990 C1991 1.386 . S
C1990 C1992 1.391 . S
C1991 C1990 1.386 . S
C1991 C1995 1.393 . S
C1992 H1981 0.950 . S
C1992 C1990 1.391 . S
C1992 C1993 1.400 . S
C1993 C1987 1.491 . S
C1993 C1992 1.400 . S
C1993 C1994 1.398 . S
C1994 H1982 0.950 . S
C1994 C1993 1.398 . S
C1994 C1995 1.391 . S
C1995 H1983 0.950 . S
C1995 C1991 1.393 . S
C1995 C1994 1.391 . S
H1996 C2004 0.950 . S
H1997 C2009 0.950 . S
H1998 C2006 0.950 . S
H1999 C2008 0.950 . S
H2000 C2010 0.950 . S
H2001 C2012 0.950 . S
H2002 C2014 0.950 . S
H2003 C2015 0.950 . S
C2004 H1996 0.950 . S
C2004 C2005 1.386 . S
C2004 C2006 1.391 . S
C2005 C2004 1.386 . S
C2005 C2009 1.393 . S
C2006 H1998 0.950 . S
C2006 C2004 1.391 . S
C2006 C2007 1.400 . S
C2007 C2006 1.400 . S
C2007 C2008 1.398 . S
C2007 C2013 1.491 . S
C2008 H1999 0.950 . S
C2008 C2007 1.398 . S
C2008 C2009 1.391 . S
C2009 H1997 0.950 . S
C2009 C2005 1.393 . S
C2009 C2008 1.391 . S
C2010 H2000 0.950 . S
C2010 C2011 1.386 . S
C2010 C2012 1.391 . S
C2011 C2010 1.386 . S
C2011 C2015 1.393 . S
C2012 H2001 0.950 . S
C2012 C2010 1.391 . S
C2012 C2013 1.400 . S
C2013 C2007 1.491 . S
C2013 C2012 1.400 . S
C2013 C2014 1.398 . S
C2014 H2002 0.950 . S
C2014 C2013 1.398 . S
C2014 C2015 1.391 . S
C2015 H2003 0.950 . S
C2015 C2011 1.393 . S
C2015 C2014 1.391 . S
C825 C719 0.792 . S
C831 C20 0.818 . S
C845 C753 0.645 . S
C851 C54 0.680 . S
C865 C88 0.812 . S
C871 C549 0.818 . S
C885 C787 0.649 . S
C891 C122 0.678 . S
C905 C156 0.713 . S
C911 C651 0.716 . S
C925 C685 0.673 . S
C931 C190 0.694 . S
C945 C583 0.748 . S
C951 C224 0.717 . S
C965 C617 0.586 . S
C971 C258 0.525 . S
C985 C292 0.798 . S
C991 C141 0.822 . S
C1005 C326 0.686 . S
C1011 C175 0.643 . S
C1025 C360 0.716 . S
C1031 C209 0.743 . S
C1045 C394 0.686 . S
C1051 C243 0.672 . S
C1065 C5 0.817 . S
C1071 C428 0.799 . S
C1085 C462 0.671 . S
C1091 C39 0.662 . S
C1105 C496 0.731 . S
C1111 C73 0.705 . S
C1125 C107 0.613 . S
C1131 C530 0.511 . S
C1145 C481 0.793 . S
C1151 C564 0.818 . S
C1165 C598 0.718 . S
C1171 C345 0.748 . S
C1185 C632 0.688 . S
C1191 C379 0.639 . S
C1205 C666 0.801 . S
C1211 C277 0.825 . S
C1225 C311 0.583 . S
C1231 C700 0.537 . S
C1245 C413 0.734 . S
C1251 C734 0.719 . S
C1265 C768 0.652 . S
C1271 C447 0.689 . S
C1285 C802 0.664 . S
C1291 C515 0.710 . S
C1305 C240 2.124 . S
C1311 C2 1.904 . S
C1325 C36 1.855 . S
C1331 C138 1.706 . S
C1345 C172 2.055 . S
C1351 C70 1.835 . S
C1365 C206 1.912 . S
C1371 C104 2.129 . S
C1385 C682 2.120 . S
C1391 C274 1.909 . S
C1405 C308 2.134 . S
C1411 C580 1.903 . S
C1425 C342 1.881 . S
C1431 C614 2.142 . S
C1445 C376 2.056 . S
C1451 C648 1.836 . S
C1465 C410 1.864 . S
C1471 C784 2.047 . S
C1485 C716 1.673 . S
C1491 C444 1.865 . S
C1505 C478 1.670 . S
C1511 C750 1.868 . S
C1525 C512 2.128 . S
C1531 C546 1.876 . S
C1545 C9 1.307 . S
C1551 C475 1.648 . S
C1565 C43 1.560 . S
C1571 C509 1.735 . S
C1585 C543 1.392 . S
C1591 C77 1.094 . S
C1605 C441 1.613 . S
C1611 C111 1.488 . S
C1625 C145 1.118 . S
C1631 C407 1.379 . S
C1645 C179 1.559 . S
C1651 C305 1.747 . S
C1665 C339 1.511 . S
C1671 C213 1.228 . S
C1685 C247 1.514 1_655 S
C1691 C373 1.676 . S
C1705 C281 1.268 . S
C1711 C67 1.651 . S
C1725 C315 1.483 . S
C1731 C101 1.611 . S
C1745 C135 1.517 . S
C1751 C349 1.191 . S
C1765 C383 1.545 . S
C1771 C33 1.742 . S
C1785 C417 1.121 . S
C1791 C271 1.389 . S
C1805 C451 1.545 . S
C1811 C169 1.744 . S
C1825 C485 1.101 . S
C1831 C203 1.382 . S
C1845 C519 1.507 1_556 S
C1851 C237 1.671 . S
C1865 C553 1.261 . S
C1871 C781 1.653 . S
C1885 C645 1.512 . S
C1891 C587 1.216 . S
C1905 C679 1.606 . S
C1911 C621 1.490 . S
C1925 C713 1.390 . S
C1931 C655 1.087 . S
C1945 C689 1.524 1_565 S
C1951 C611 1.669 . S
C1965 C815 1.386 . S
C1971 C723 1.079 . S
C1985 C747 1.741 . S
C1991 C757 1.537 . S
C2005 C791 1.547 . S
C2011 C577 1.739 . S
