# Generated by pormake.
# Topology sod-e, (6)-cn, num edge types: 1
# Building blocks:
#     Node 0, Type 0, BuildingBlock: MAKGUD_clean_sbu_1, # of connection points: 6
#     Node 1, Type 0, BuildingBlock: MAKGUD_clean_sbu_1, # of connection points: 6
#     Node 2, Type 0, BuildingBlock: MAKGUD_clean_sbu_1, # of connection points: 6
#     Node 3, Type 0, BuildingBlock: MAKGUD_clean_sbu_1, # of connection points: 6
#     Node 4, Type 0, BuildingBlock: MAKGUD_clean_sbu_1, # of connection points: 6
#     Node 5, Type 0, BuildingBlock: MAKGUD_clean_sbu_1, # of connection points: 6
#     Node 6, Type 0, BuildingBlock: MAKGUD_clean_sbu_1, # of connection points: 6
#     Node 7, Type 0, BuildingBlock: MAKGUD_clean_sbu_1, # of connection points: 6
#     Node 8, Type 0, BuildingBlock: MAKGUD_clean_sbu_1, # of connection points: 6
#     Node 9, Type 0, BuildingBlock: MAKGUD_clean_sbu_1, # of connection points: 6
#     Node 10, Type 0, BuildingBlock: MAKGUD_clean_sbu_1, # of connection points: 6
#     Node 11, Type 0, BuildingBlock: MAKGUD_clean_sbu_1, # of connection points: 6
#     Node 12, Type 0, BuildingBlock: MAKGUD_clean_sbu_1, # of connection points: 6
#     Node 13, Type 0, BuildingBlock: MAKGUD_clean_sbu_1, # of connection points: 6
#     Node 14, Type 0, BuildingBlock: MAKGUD_clean_sbu_1, # of connection points: 6
#     Node 15, Type 0, BuildingBlock: MAKGUD_clean_sbu_1, # of connection points: 6
#     Node 16, Type 0, BuildingBlock: MAKGUD_clean_sbu_1, # of connection points: 6
#     Node 17, Type 0, BuildingBlock: MAKGUD_clean_sbu_1, # of connection points: 6
#     Node 18, Type 0, BuildingBlock: MAKGUD_clean_sbu_1, # of connection points: 6
#     Node 19, Type 0, BuildingBlock: MAKGUD_clean_sbu_1, # of connection points: 6
#     Node 20, Type 0, BuildingBlock: MAKGUD_clean_sbu_1, # of connection points: 6
#     Node 21, Type 0, BuildingBlock: MAKGUD_clean_sbu_1, # of connection points: 6
#     Node 22, Type 0, BuildingBlock: MAKGUD_clean_sbu_1, # of connection points: 6
#     Node 23, Type 0, BuildingBlock: MAKGUD_clean_sbu_1, # of connection points: 6
#     Edge 24, Type (0, 0), BuildingBlock: AJUNOK_clean_linker_0, # of connection points: 2
#     Edge 25, Type (0, 0), BuildingBlock: AJUNOK_clean_linker_0, # of connection points: 2
#     Edge 26, Type (0, 0), BuildingBlock: AJUNOK_clean_linker_0, # of connection points: 2
#     Edge 27, Type (0, 0), BuildingBlock: AJUNOK_clean_linker_0, # of connection points: 2
#     Edge 28, Type (0, 0), BuildingBlock: AJUNOK_clean_linker_0, # of connection points: 2
#     Edge 29, Type (0, 0), BuildingBlock: AJUNOK_clean_linker_0, # of connection points: 2
#     Edge 30, Type (0, 0), BuildingBlock: AJUNOK_clean_linker_0, # of connection points: 2
#     Edge 31, Type (0, 0), BuildingBlock: AJUNOK_clean_linker_0, # of connection points: 2
#     Edge 32, Type (0, 0), BuildingBlock: AJUNOK_clean_linker_0, # of connection points: 2
#     Edge 33, Type (0, 0), BuildingBlock: AJUNOK_clean_linker_0, # of connection points: 2
#     Edge 34, Type (0, 0), BuildingBlock: AJUNOK_clean_linker_0, # of connection points: 2
#     Edge 35, Type (0, 0), BuildingBlock: AJUNOK_clean_linker_0, # of connection points: 2
#     Edge 36, Type (0, 0), BuildingBlock: AJUNOK_clean_linker_0, # of connection points: 2
#     Edge 37, Type (0, 0), BuildingBlock: AJUNOK_clean_linker_0, # of connection points: 2
#     Edge 38, Type (0, 0), BuildingBlock: AJUNOK_clean_linker_0, # of connection points: 2
#     Edge 39, Type (0, 0), BuildingBlock: AJUNOK_clean_linker_0, # of connection points: 2
#     Edge 40, Type (0, 0), BuildingBlock: AJUNOK_clean_linker_0, # of connection points: 2
#     Edge 41, Type (0, 0), BuildingBlock: AJUNOK_clean_linker_0, # of connection points: 2
#     Edge 42, Type (0, 0), BuildingBlock: AJUNOK_clean_linker_0, # of connection points: 2
#     Edge 43, Type (0, 0), BuildingBlock: AJUNOK_clean_linker_0, # of connection points: 2
#     Edge 44, Type (0, 0), BuildingBlock: AJUNOK_clean_linker_0, # of connection points: 2
#     Edge 45, Type (0, 0), BuildingBlock: AJUNOK_clean_linker_0, # of connection points: 2
#     Edge 46, Type (0, 0), BuildingBlock: AJUNOK_clean_linker_0, # of connection points: 2
#     Edge 47, Type (0, 0), BuildingBlock: AJUNOK_clean_linker_0, # of connection points: 2
#     Edge 48, Type (0, 0), BuildingBlock: AJUNOK_clean_linker_0, # of connection points: 2
#     Edge 49, Type (0, 0), BuildingBlock: AJUNOK_clean_linker_0, # of connection points: 2
#     Edge 50, Type (0, 0), BuildingBlock: AJUNOK_clean_linker_0, # of connection points: 2
#     Edge 51, Type (0, 0), BuildingBlock: AJUNOK_clean_linker_0, # of connection points: 2
#     Edge 52, Type (0, 0), BuildingBlock: AJUNOK_clean_linker_0, # of connection points: 2
#     Edge 53, Type (0, 0), BuildingBlock: AJUNOK_clean_linker_0, # of connection points: 2
#     Edge 54, Type (0, 0), BuildingBlock: AJUNOK_clean_linker_0, # of connection points: 2
#     Edge 55, Type (0, 0), BuildingBlock: AJUNOK_clean_linker_0, # of connection points: 2
#     Edge 56, Type (0, 0), BuildingBlock: AJUNOK_clean_linker_0, # of connection points: 2
#     Edge 57, Type (0, 0), BuildingBlock: AJUNOK_clean_linker_0, # of connection points: 2
#     Edge 58, Type (0, 0), BuildingBlock: AJUNOK_clean_linker_0, # of connection points: 2
#     Edge 59, Type (0, 0), BuildingBlock: AJUNOK_clean_linker_0, # of connection points: 2
#     Edge 60, Type (0, 0), BuildingBlock: AJUNOK_clean_linker_0, # of connection points: 2
#     Edge 61, Type (0, 0), BuildingBlock: AJUNOK_clean_linker_0, # of connection points: 2
#     Edge 62, Type (0, 0), BuildingBlock: AJUNOK_clean_linker_0, # of connection points: 2
#     Edge 63, Type (0, 0), BuildingBlock: AJUNOK_clean_linker_0, # of connection points: 2
#     Edge 64, Type (0, 0), BuildingBlock: AJUNOK_clean_linker_0, # of connection points: 2
#     Edge 65, Type (0, 0), BuildingBlock: AJUNOK_clean_linker_0, # of connection points: 2
#     Edge 66, Type (0, 0), BuildingBlock: AJUNOK_clean_linker_0, # of connection points: 2
#     Edge 67, Type (0, 0), BuildingBlock: AJUNOK_clean_linker_0, # of connection points: 2
#     Edge 68, Type (0, 0), BuildingBlock: AJUNOK_clean_linker_0, # of connection points: 2
#     Edge 69, Type (0, 0), BuildingBlock: AJUNOK_clean_linker_0, # of connection points: 2
#     Edge 70, Type (0, 0), BuildingBlock: AJUNOK_clean_linker_0, # of connection points: 2
#     Edge 71, Type (0, 0), BuildingBlock: AJUNOK_clean_linker_0, # of connection points: 2
#     Edge 72, Type (0, 0), BuildingBlock: AJUNOK_clean_linker_0, # of connection points: 2
#     Edge 73, Type (0, 0), BuildingBlock: AJUNOK_clean_linker_0, # of connection points: 2
#     Edge 74, Type (0, 0), BuildingBlock: AJUNOK_clean_linker_0, # of connection points: 2
#     Edge 75, Type (0, 0), BuildingBlock: AJUNOK_clean_linker_0, # of connection points: 2
#     Edge 76, Type (0, 0), BuildingBlock: AJUNOK_clean_linker_0, # of connection points: 2
#     Edge 77, Type (0, 0), BuildingBlock: AJUNOK_clean_linker_0, # of connection points: 2
#     Edge 78, Type (0, 0), BuildingBlock: AJUNOK_clean_linker_0, # of connection points: 2
#     Edge 79, Type (0, 0), BuildingBlock: AJUNOK_clean_linker_0, # of connection points: 2
#     Edge 80, Type (0, 0), BuildingBlock: AJUNOK_clean_linker_0, # of connection points: 2
#     Edge 81, Type (0, 0), BuildingBlock: AJUNOK_clean_linker_0, # of connection points: 2
#     Edge 82, Type (0, 0), BuildingBlock: AJUNOK_clean_linker_0, # of connection points: 2
#     Edge 83, Type (0, 0), BuildingBlock: AJUNOK_clean_linker_0, # of connection points: 2
#     Edge 84, Type (0, 0), BuildingBlock: AJUNOK_clean_linker_0, # of connection points: 2
#     Edge 85, Type (0, 0), BuildingBlock: AJUNOK_clean_linker_0, # of connection points: 2
#     Edge 86, Type (0, 0), BuildingBlock: AJUNOK_clean_linker_0, # of connection points: 2
#     Edge 87, Type (0, 0), BuildingBlock: AJUNOK_clean_linker_0, # of connection points: 2
#     Edge 88, Type (0, 0), BuildingBlock: AJUNOK_clean_linker_0, # of connection points: 2
#     Edge 89, Type (0, 0), BuildingBlock: AJUNOK_clean_linker_0, # of connection points: 2
#     Edge 90, Type (0, 0), BuildingBlock: AJUNOK_clean_linker_0, # of connection points: 2
#     Edge 91, Type (0, 0), BuildingBlock: AJUNOK_clean_linker_0, # of connection points: 2
#     Edge 92, Type (0, 0), BuildingBlock: AJUNOK_clean_linker_0, # of connection points: 2
#     Edge 93, Type (0, 0), BuildingBlock: AJUNOK_clean_linker_0, # of connection points: 2
#     Edge 94, Type (0, 0), BuildingBlock: AJUNOK_clean_linker_0, # of connection points: 2
#     Edge 95, Type (0, 0), BuildingBlock: AJUNOK_clean_linker_0, # of connection points: 2
# Relax obj value: 0.121
# Max RMSD: 0.229
# Mean RMSD: 0.178
data_MOF--net-sod-e--node1-MAKGUD_clean_sbu_1--edge1-AJUNOK_clean_linker_0
_symmetry_space_group_name_H-M    P1
_symmetry_Int_Tables_number       1
_symmetry_cell_setting            triclinic
loop_
_symmetry_equiv_pos_as_xyz
'x, y, z'
_cell_length_a     46.231154
_cell_length_b     42.549424
_cell_length_c     41.961655
_cell_angle_alpha  89.826502
_cell_angle_beta   90.902318
_cell_angle_gamma 92.18106
loop_
_atom_site_label
_atom_site_type_symbol
_atom_site_fract_x
_atom_site_fract_y
_atom_site_fract_z
_atom_type_partial_charge
O0 O 0.11886 0.41271 0.34755 0.0
Tb1 Tb 0.11027 0.4311 0.39497 0.0
C2 C 0.10535 0.49353 0.43536 0.0
O3 O 0.14516 0.41757 0.46834 0.0
Tb4 Tb 0.10217 0.43357 0.47894 0.0
C5 C 0.102 0.43569 0.54236 0.0
O6 O 0.12962 0.38986 0.42496 0.0
O7 O 0.06365 0.40418 0.46801 0.0
C8 C 0.06462 0.37334 0.47019 0.0
O9 O 0.08998 0.36056 0.47218 0.0
O10 O 0.12039 0.47827 0.41427 0.0
O11 O 0.09153 0.47881 0.45854 0.0
O12 O 0.06735 0.44983 0.37275 0.0
C13 C 0.14751 0.39228 0.45103 0.0
C14 C 0.14284 0.42922 0.34332 0.0
O15 O 0.10024 0.41045 0.52516 0.0
O16 O 0.10372 0.46019 0.52379 0.0
C17 C 0.06488 0.46352 0.34326 0.0
O18 O 0.08792 0.46408 0.3254 0.0
O19 O 0.14842 0.44632 0.36844 0.0
O20 O 0.79682 1.01943 0.41104 0.0
Tb21 Tb 0.75257 1.02622 0.42735 0.0
C22 C 0.72117 1.03869 0.48886 0.0
O23 O 0.67918 1.00585 0.41145 0.0
Tb24 Tb 0.68375 0.05382 0.43034 0.0
C25 C 0.63258 0.07536 0.44504 0.0
O26 O 0.72272 1.00794 0.38608 0.0
O27 O 0.68848 0.07865 0.38518 0.0
C28 C 0.66832 0.07083 0.36375 0.0
O29 O 0.65124 0.04621 0.36969 0.0
O30 O 0.73271 1.01583 0.47312 0.0
O31 O 0.71066 0.06228 0.47275 0.0
O32 O 0.77015 0.07417 0.44592 0.0
C33 C 0.6951 0.99635 0.38783 0.0
C34 C 0.80139 0.99392 0.42738 0.0
O35 O 0.63988 0.04623 0.44837 0.0
O36 O 0.65422 0.09209 0.43403 0.0
C37 C 0.79463 0.07684 0.46411 0.0
O38 O 0.80824 0.05094 0.47013 0.0
O39 O 0.77786 0.98602 0.44256 0.0
O40 O 0.0635 0.69775 0.3324 0.0
Tb41 Tb 0.08694 0.68978 0.37724 0.0
C42 C 0.09814 0.63105 0.426 0.0
O43 O 1.054 0.71142 0.44754 0.0
Tb44 Tb 0.09558 0.69489 0.46419 0.0
C45 C 0.09056 0.69547 0.52743 0.0
O46 O 0.07107 0.73528 0.40303 0.0
O47 O 0.12519 0.73352 0.45116 0.0
C48 C 0.11951 0.76178 0.4613 0.0
O49 O 0.09554 0.76578 0.4769 0.0
O50 O 0.08594 0.64287 0.40008 0.0
O51 O 0.10806 0.64844 0.44994 0.0
O52 O 0.12546 0.67375 0.34553 0.0
C53 C 1.0532 0.73593 0.42868 0.0
C54 C 1.04007 0.68189 0.34061 0.0
O55 O 0.06958 0.6905 0.50696 0.0
O56 O 0.11471 0.69972 0.5123 0.0
C57 C 0.12589 0.6456 0.3296 0.0
O58 O 0.10255 0.62725 0.33196 0.0
O59 O 1.04349 0.67019 0.36896 0.0
O60 O 0.3487 0.13619 0.38965 0.0
Tb61 Tb 0.38189 0.10105 0.38791 0.0
C62 C 0.41496 0.08755 0.44882 0.0
O63 O 0.44776 0.1467 0.37632 0.0
Tb64 Tb 0.46057 0.10677 0.40393 0.0
C65 C 0.51404 0.10774 0.42785 0.0
O66 O 0.41218 0.12032 0.3465 0.0
O67 O 0.45654 0.06324 0.37718 0.0
C68 C 0.46897 0.06225 0.34931 0.0
O69 O 0.47951 0.08856 0.33697 0.0
O70 O 0.40266 0.07273 0.42459 0.0
O71 O 0.4331 0.11104 0.44377 0.0
O72 O 0.34336 0.06503 0.39858 0.0
C73 C 0.43481 0.14234 0.34863 0.0
C74 C 0.36097 0.15312 0.41231 0.0
O75 O 0.50589 0.12348 0.40278 0.0
O76 O 0.49195 0.09224 0.4395 0.0
C77 C 0.33308 0.05862 0.42855 0.0
O78 O 0.34585 0.07409 0.45219 0.0
O79 O 0.38523 0.1408 0.42088 0.0
O80 O 0.06981 0.64238 0.71135 0.0
Tb81 Tb 0.07354 0.69089 0.72691 0.0
C82 C 1.02332 0.71337 0.76693 0.0
O83 O 1.04443 0.72965 0.66814 0.0
Tb84 Tb 1.04073 0.76212 0.707 0.0
C85 C 0.99977 0.8007 0.69067 0.0
O86 O 0.08882 0.71548 0.68448 0.0
O87 O 0.08104 0.78936 0.68778 0.0
C88 C 0.07936 0.81107 0.66402 0.0
O89 O 1.05346 0.81729 0.65314 0.0
O90 O 1.05078 0.70627 0.76894 0.0
O91 O 1.01531 0.73328 0.74398 0.0
O92 O 0.11022 0.67113 0.75162 0.0
C93 C 0.06996 0.71956 0.66125 0.0
C94 C 1.04194 0.64103 0.70713 0.0
O95 O 1.00297 0.77287 0.67892 0.0
O96 O 1.0201 0.80716 0.71181 0.0
C97 C 0.11773 0.67821 0.78112 0.0
O98 O 0.10672 0.70271 0.79474 0.0
O99 O 1.0317 0.66814 0.71398 0.0
O100 O 0.43358 0.111 0.77129 0.0
Tb101 Tb 0.43475 0.0847 0.72672 0.0
C102 C 0.47734 0.05964 0.67855 0.0
O103 O 0.40958 0.1068 0.65153 0.0
Tb104 Tb 0.41823 0.05718 0.64401 0.0
C105 C 0.42245 0.05966 0.58135 0.0
O106 O 0.39316 0.10425 0.70242 0.0
O107 O 0.37536 1.03421 0.64974 0.0
C108 C 0.35356 0.04745 0.63482 0.0
O109 O 0.35845 0.07481 0.62097 0.0
O110 O 0.468 0.08565 0.69069 0.0
O111 O 0.45861 1.03992 0.66446 0.0
O112 O 0.45591 1.04244 0.75375 0.0
C113 C 0.39136 0.11666 0.67254 0.0
C114 C 0.45263 0.13278 0.76294 0.0
O115 O 0.42959 0.08222 0.60092 0.0
O116 O 0.41454 1.03457 0.59717 0.0
C117 C 0.47247 1.04423 0.78123 0.0
O118 O 0.47429 0.07153 0.79569 0.0
O119 O 0.46075 0.12757 0.73405 0.0
O120 O 0.09824 0.34352 0.73922 0.0
Tb121 Tb 0.07677 0.38857 0.73678 0.0
C122 C 0.08366 0.43438 0.67845 0.0
O123 O 0.09493 0.468 0.76807 0.0
Tb124 Tb 1.05808 0.46192 0.73642 0.0
C125 C 1.02855 0.51345 0.72824 0.0
O126 O 0.09641 0.41516 0.78103 0.0
O127 O 1.03023 0.42046 0.74397 0.0
C128 C 1.00458 0.42156 0.757 0.0
O129 O 0.98774 0.39602 0.75759 0.0
O130 O 0.07018 0.4092 0.68967 0.0
O131 O 0.08557 0.45971 0.69574 0.0
O132 O 1.03492 0.35965 0.72475 0.0
C133 C 0.10578 0.44558 0.78551 0.0
C134 C 0.11991 0.35227 0.72121 0.0
O135 O 1.04003 0.50441 0.75515 0.0
O136 O 1.0337 0.49322 0.7061 0.0
C137 C 1.03028 0.34623 0.69574 0.0
O138 O 1.05129 0.34885 0.67516 0.0
O139 O 0.11736 0.38147 0.71289 0.0
O140 O 0.78687 0.07706 0.69152 0.0
Tb141 Tb 0.75049 1.04426 0.68342 0.0
C142 C 0.7058 1.03919 0.62695 0.0
O143 O 0.68397 0.08353 0.70373 0.0
Tb144 Tb 0.66146 1.0433 0.68145 0.0
C145 C 0.60356 0.04762 0.67862 0.0
O146 O 0.72361 0.06142 0.72838 0.0
O147 O 0.67072 1.00319 0.71187 0.0
C148 C 0.66381 1.00562 0.74204 0.0
O149 O 0.6532 1.03199 0.75191 0.0
O150 O 0.72068 1.02282 0.64778 0.0
O151 O 0.68046 0.04959 0.63477 0.0
O152 O 0.786 1.00914 0.66498 0.0
C153 C 0.7 0.08063 0.72967 0.0
C154 C 0.77853 0.09835 0.67136 0.0
O155 O 0.62149 0.06603 0.69483 0.0
O156 O 0.61843 1.02716 0.66351 0.0
C157 C 0.79726 1.00848 0.6346 0.0
O158 O 0.78707 1.02952 0.61488 0.0
O159 O 0.75441 0.08878 0.6571 0.0
O160 O 0.42462 0.33854 0.07394 0.0
Tb161 Tb 0.43149 0.37709 0.03998 0.0
C162 C 0.4786 0.42799 1.01869 0.0
O163 O 0.407 0.4511 0.06787 0.0
Tb164 Tb 0.42427 0.46429 1.02158 0.0
C165 C 0.43484 0.5263 1.02412 0.0
O166 O 0.38853 0.40229 0.05357 0.0
O167 O 0.38777 0.45306 0.99049 0.0
C168 C 0.39016 0.45828 0.95976 0.0
O169 O 0.41569 0.46648 0.94843 0.0
O170 O 0.46991 0.40824 0.04089 0.0
O171 O 0.45998 0.44151 1.00003 0.0
O172 O 0.45188 0.33953 1.00534 0.0
C173 C 0.38601 0.42972 0.07044 0.0
C174 C 0.43854 0.35277 0.09738 0.0
O175 O 0.44644 0.50564 0.04277 0.0
O176 O 0.41749 0.51193 1.00381 0.0
C177 C 0.48069 0.33553 0.99845 0.0
O178 O 0.49933 0.3565 1.01046 0.0
O179 O 0.44907 0.37978 0.0879 0.0
O180 O 0.3673 0.70803 0.12421 0.0
Tb181 Tb 0.40587 0.706 0.09485 0.0
C182 C 0.43205 0.65912 0.05299 0.0
O183 O 0.47539 0.7484 0.08327 0.0
Tb184 Tb 0.46426 0.71891 0.04193 0.0
C185 C 0.51073 0.68444 0.04062 0.0
O186 O 0.4358 0.74502 0.11682 0.0
O187 O 0.46924 0.75395 1.0044 0.0
C188 C 0.46997 0.78426 1.01058 0.0
O189 O 0.45946 0.79387 0.03761 0.0
O190 O 0.43171 0.6666 0.08318 0.0
O191 O 0.43187 0.68208 1.03211 0.0
O192 O 0.37591 0.69091 0.0525 0.0
C193 C 0.463 0.75565 0.1103 0.0
C194 C 0.37433 0.68555 0.14378 0.0
O195 O 0.49432 0.68776 0.0651 0.0
O196 O 0.50115 0.70106 1.01694 0.0
C197 C 0.35712 0.66577 0.05514 0.0
O198 O 0.35504 0.65302 0.08357 0.0
O199 O 0.39943 0.67543 0.13598 0.0
O200 O 0.76743 0.4394 0.08565 0.0
Tb201 Tb 0.72365 0.45195 0.0708 0.0
C202 C 0.69443 0.51448 0.05728 0.0
O203 O 0.65342 0.43518 0.09335 0.0
Tb204 Tb 0.65429 0.45514 0.04496 0.0
C205 C 0.59881 0.46573 1.0328 0.0
O206 O 0.6949 0.40921 0.08701 0.0
O207 O 0.65995 0.40972 1.02124 0.0
C208 C 0.63853 0.38885 1.02631 0.0
O209 O 0.61829 0.39679 0.04606 0.0
O210 O 0.70564 0.49773 0.08032 0.0
O211 O 0.67878 0.49972 0.035 0.0
O212 O 0.74525 0.46994 1.02456 0.0
C213 C 0.66857 0.4105 0.10045 0.0
C214 C 0.76803 0.45539 0.11215 0.0
O215 O 0.61183 0.46885 0.06036 0.0
O216 O 0.61748 0.45769 1.01174 0.0
C217 C 0.76606 0.4934 1.02487 0.0
O218 O 0.77295 0.50581 0.0527 0.0
O219 O 0.74316 0.46805 0.11556 0.0
O220 O 0.63695 0.69234 0.08608 0.0
Tb221 Tb 0.67971 0.70798 0.0708 0.0
C222 C 0.69717 0.76582 1.02403 0.0
O223 O 0.73022 0.66896 0.03683 0.0
Tb224 Tb 0.75072 0.71606 0.04568 0.0
C225 C 0.78431 0.71736 0.99507 0.0
O226 O 0.70668 0.66858 0.08296 0.0
O227 O 0.78037 0.69848 0.08773 0.0
C228 C 0.79966 0.67489 0.08553 0.0
O229 O 0.80143 0.66147 0.05753 0.0
O230 O 0.67739 0.74476 0.03347 0.0
O231 O 0.72539 0.76164 1.03286 0.0
O232 O 0.67579 0.73282 0.11562 0.0
C233 C 0.71751 0.65273 0.05967 0.0
C234 C 0.62974 0.67723 0.06014 0.0
O235 O 0.75849 0.70451 0.99642 0.0
O236 O 0.79166 0.72931 1.02274 0.0
C237 C 0.68869 0.76009 0.12224 0.0
O238 O 0.7064 0.77307 0.10141 0.0
O239 O 0.65069 0.6797 0.03992 0.0
O240 O 0.61278 0.91227 0.85061 0.0
Tb241 Tb 0.60475 0.92583 0.9001 0.0
C242 C 0.6055 0.99108 0.9404 0.0
O243 O 0.636 0.90277 0.97652 0.0
Tb244 Tb 0.59674 0.92934 0.98228 0.0
C245 C 0.58817 0.92977 0.04507 0.0
O246 O 0.6216 0.88129 0.9286 0.0
O247 O 0.56289 0.89717 0.9636 0.0
C248 C 0.56287 0.86773 0.97333 0.0
O249 O 0.58485 0.85844 0.99066 0.0
O250 O 0.61582 0.97412 0.91702 0.0
O251 O 0.59412 0.97798 0.96601 0.0
O252 O 0.56195 0.94466 0.87698 0.0
C253 C 0.63732 0.87911 0.95658 0.0
C254 C 0.63766 0.92755 0.8481 0.0
O255 O 0.61288 0.93491 1.03129 0.0
O256 O 0.56821 0.92484 1.0234 0.0
C257 C 0.56113 0.96306 0.85 0.0
O258 O 0.58608 0.96954 0.83653 0.0
O259 O 0.64434 0.94019 0.87555 0.0
O260 O 0.28067 0.53054 0.90221 0.0
Tb261 Tb 0.23935 0.5408 0.92376 0.0
C262 C 0.21123 0.54676 0.98879 0.0
O263 O 0.16862 0.51442 0.913 0.0
Tb264 Tb 0.1693 0.56036 0.93587 0.0
C265 C 0.11585 0.56478 0.95699 0.0
O266 O 0.20784 0.52634 0.88287 0.0
O267 O 0.17448 0.59084 0.89469 0.0
C268 C 0.15689 0.58529 0.87027 0.0
O269 O 0.13884 0.56073 0.87146 0.0
O270 O 0.22342 0.52643 0.97039 0.0
O271 O 0.19777 0.57013 0.97594 0.0
O272 O 0.26364 0.58393 0.94591 0.0
C273 C 0.18245 0.51015 0.88646 0.0
C274 C 0.28276 0.50278 0.91507 0.0
O275 O 0.13062 0.53947 0.95727 0.0
O276 O 0.13141 0.58779 0.94488 0.0
C277 C 0.28394 0.57878 0.96869 0.0
O278 O 0.28677 0.54906 0.97615 0.0
O279 O 0.2601 0.49652 0.93222 0.0
O280 O 0.56481 0.19634 0.83879 0.0
Tb281 Tb 0.58833 0.18726 0.88337 0.0
C282 C 0.60222 0.13031 0.93142 0.0
O283 O 0.55568 0.20766 0.95662 0.0
Tb284 Tb 0.59879 0.19349 0.97199 0.0
C285 C 0.59734 0.18798 0.0354 0.0
O286 O 0.57062 0.23125 0.91051 0.0
O287 O 0.61966 0.2406 0.96708 0.0
C288 C 0.60799 0.2623 0.98485 0.0
O289 O 0.58523 0.25368 1.00158 0.0
O290 O 0.58612 0.1416 0.9081 0.0
O291 O 0.61461 0.14877 0.95351 0.0
O292 O 0.62729 0.17071 0.85179 0.0
C293 C 0.55299 0.23122 0.93656 0.0
C294 C 0.5416 0.1799 0.84664 0.0
O295 O 0.57561 0.18234 1.01588 0.0
O296 O 0.62011 0.19584 1.01898 0.0
C297 C 0.62658 0.14653 0.82985 0.0
O298 O 0.60126 0.13238 0.82449 0.0
O299 O 0.54537 0.16697 0.87433 0.0
O300 O 0.85098 0.64041 0.88937 0.0
Tb301 Tb 0.88815 0.61061 0.89473 0.0
C302 C 0.91697 0.57303 0.94403 0.0
O303 O 0.96027 0.60446 0.85835 0.0
Tb304 Tb 0.95142 0.56277 0.88774 0.0
C305 C 0.99688 0.56316 0.92697 0.0
O306 O 0.91626 0.62945 0.85369 0.0
O307 O 0.95773 0.52416 0.85525 0.0
C308 C 0.95886 0.52686 0.82411 0.0
O309 O 0.95124 0.55292 0.81 0.0
O310 O 0.91475 0.60245 0.93611 0.0
O311 O 0.91716 0.55256 0.92092 0.0
O312 O 0.85677 0.5705 0.91163 0.0
C313 C 0.94471 0.62761 0.84718 0.0
C314 C 0.86015 0.66145 0.9101 0.0
O315 O 0.98216 0.58758 0.91963 0.0
O316 O 0.9864 0.5388 0.91158 0.0
C317 C 0.84052 0.57402 0.93799 0.0
O318 O 0.84306 0.60152 0.95209 0.0
O319 O 0.88509 0.6537 0.92174 0.0
O320 O 0.60264 0.14595 0.2028 0.0
Tb321 Tb 0.58033 0.18512 0.22321 0.0
C322 C 0.52174 0.20606 0.25768 0.0
O323 O 0.55509 0.23573 0.17148 0.0
Tb324 Tb 0.54902 0.26527 0.21221 0.0
C325 C 0.50122 0.29227 0.19322 0.0
O326 O 0.59747 0.22032 0.19068 0.0
O327 O 0.58652 0.30067 0.1973 0.0
C328 C 0.59243 0.30956 0.16662 0.0
O329 O 0.5764 0.29608 0.14406 0.0
O330 O 0.53656 0.18441 0.24323 0.0
O331 O 0.52981 0.2371 0.25497 0.0
O332 O 0.6067 0.17331 0.26483 0.0
C333 C 0.58063 0.22528 0.16605 0.0
C334 C 0.58029 0.13289 0.18838 0.0
O335 O 0.50927 0.26479 0.18455 0.0
O336 O 0.52055 0.30513 0.2126 0.0
C337 C 0.60252 0.14439 0.27559 0.0
O338 O 0.58057 0.12746 0.26371 0.0
O339 O 0.55797 0.14975 0.19329 0.0
O340 O 0.93643 0.6069 0.26492 0.0
Tb341 Tb 0.93882 0.58249 0.21931 0.0
C342 C 0.98687 0.55874 0.17718 0.0
O343 O 0.91301 0.60117 0.14321 0.0
Tb344 Tb 0.93021 0.55405 0.13958 0.0
C345 C 0.93815 0.54959 0.07707 0.0
O346 O 0.89594 0.59714 0.19382 0.0
O347 O 0.89517 0.52187 0.15367 0.0
C348 C 0.8686 0.52871 0.14556 0.0
O349 O 0.86402 0.55558 0.13128 0.0
O350 O 0.97652 0.58454 0.18866 0.0
O351 O 0.96916 0.53813 0.16328 0.0
O352 O 0.95868 0.54149 0.24878 0.0
C353 C 0.89331 0.60883 0.16373 0.0
C354 C 0.95241 0.6314 0.25655 0.0
O355 O 0.95172 0.56935 0.09609 0.0
O356 O 0.92048 0.53174 0.09351 0.0
C357 C 0.98109 0.5457 0.27025 0.0
O358 O 0.99107 0.57472 0.27438 0.0
O359 O 0.95958 0.62846 0.22696 0.0
O360 O 0.61512 0.8251 0.23694 0.0
Tb361 Tb 0.59583 0.87167 0.23748 0.0
C362 C 0.57812 0.90981 0.18127 0.0
O363 O 0.60775 0.94982 0.26851 0.0
Tb364 Tb 0.56847 0.94801 0.238 0.0
C365 C 0.57185 1.00226 0.20677 0.0
O366 O 0.61187 0.89744 0.28299 0.0
O367 O 0.53229 0.95152 0.27008 0.0
C368 C 0.53591 0.96472 0.29821 0.0
O369 O 0.56223 0.96852 0.31013 0.0
O370 O 0.60138 0.90175 0.19647 0.0
O371 O 0.55627 0.91746 0.19845 0.0
O372 O 0.55331 0.84754 0.21814 0.0
C373 C 0.61943 0.9283 0.28693 0.0
C374 C 0.63764 0.83388 0.22019 0.0
O375 O 0.59223 0.98215 0.20833 0.0
O376 O 0.55003 0.99217 0.22347 0.0
C377 C 0.55307 0.83207 0.18991 0.0
O378 O 0.57789 0.83279 0.17505 0.0
O379 O 0.63676 0.8638 0.21476 0.0
O380 O 0.29386 0.56827 0.20258 0.0
Tb381 Tb 0.2521 0.54623 0.18793 0.0
C382 C 0.21033 0.53661 0.12642 0.0
O383 O 0.18678 0.58357 0.20567 0.0
Tb384 Tb 0.16964 0.53993 0.18506 0.0
C385 C 0.11196 0.54408 0.17992 0.0
O386 O 0.22435 0.56115 0.23194 0.0
O387 O 0.18072 0.50878 0.22391 0.0
C388 C 0.17458 0.47843 0.22185 0.0
O389 O 0.16403 0.46691 0.19488 0.0
O390 O 0.23168 0.55248 0.14105 0.0
O391 O 0.18776 0.52401 0.14103 0.0
O392 O 0.27977 0.50511 0.16756 0.0
C393 C 0.20223 0.58179 0.23195 0.0
C394 C 0.28987 0.59494 0.18807 0.0
O395 O 0.13096 0.56641 0.17338 0.0
O396 O 0.12553 0.51932 0.18903 0.0
C397 C 0.29686 0.50765 0.14101 0.0
O398 O 0.29738 0.53525 0.1269 0.0
O399 O 0.26482 0.59383 0.17362 0.0
O400 O 0.94321 0.85674 0.56624 0.0
Tb401 Tb 0.94745 0.89465 0.53191 0.0
C402 C 1.0047 0.94012 0.53263 0.0
O403 O 0.92157 0.95401 0.58184 0.0
Tb404 Tb 0.9483 0.9753 0.54534 0.0
C405 C 0.95118 1.03592 0.55932 0.0
O406 O 0.90285 0.91761 0.54706 0.0
O407 O 0.91985 0.97728 0.503 0.0
C408 C 0.9092 0.95486 0.48413 0.0
O409 O 0.91777 0.92593 0.48694 0.0
O410 O 0.98872 0.91903 0.51608 0.0
O411 O 0.99204 0.95953 0.5516 0.0
O412 O 0.96159 0.85474 0.49661 0.0
C413 C 0.89865 0.93779 0.57224 0.0
C414 C 0.95772 0.87147 0.58889 0.0
O415 O 0.9396 1.01396 0.57702 0.0
O416 O 0.96206 1.02358 0.53413 0.0
C417 C 0.98858 0.84201 0.49545 0.0
O418 O 1.0077 0.85218 0.51682 0.0
O419 O 0.96755 0.89875 0.57894 0.0
O420 O 0.85012 0.22084 0.61123 0.0
Tb421 Tb 0.89415 0.21903 0.59267 0.0
C422 C 0.93125 0.16849 0.56925 0.0
O423 O 0.96723 0.24631 0.60734 0.0
Tb424 Tb 0.96777 0.22631 0.55952 0.0
C425 C 1.01981 0.20183 0.55842 0.0
O426 O 0.92005 0.2626 0.61093 0.0
O427 O 0.97045 0.26699 0.52785 0.0
C428 C 0.98375 0.29324 0.53756 0.0
O429 O 0.99013 0.29659 0.56798 0.0
O430 O 0.92258 0.18042 0.59584 0.0
O431 O 0.93877 0.18756 0.54609 0.0
O432 O 0.87268 0.19783 0.54735 0.0
C433 C 0.94824 0.26449 0.62018 0.0
C434 C 0.85435 0.20211 0.6354 0.0
O435 O 1.00726 0.21554 0.53454 0.0
O436 O 1.00295 0.20194 0.58281 0.0
C437 C 0.85336 0.17302 0.54877 0.0
O438 O 0.84721 0.16174 0.57709 0.0
O439 O 0.88143 0.19497 0.63623 0.0
O440 O 0.20294 0.87622 0.5125 0.0
Tb441 Tb 0.19182 0.92496 0.52215 0.0
C442 C 0.13338 0.95821 0.52903 0.0
O443 O 0.21113 1.00079 0.49652 0.0
Tb444 Tb 0.18948 1.00056 0.54286 0.0
C445 C 0.18441 0.0615 0.55485 0.0
O446 O 0.23241 0.9542 0.50543 0.0
O447 O 0.22683 0.98877 0.57288 0.0
C448 C 0.25043 1.00695 0.56946 0.0
O449 O 0.25032 1.02865 0.54715 0.0
O450 O 0.14939 0.94298 0.50909 0.0
O451 O 0.14622 0.9779 0.54948 0.0
O452 O 0.17455 0.90518 0.56974 0.0
C453 C 0.23311 0.98286 0.49121 0.0
C454 C 0.18829 0.87349 0.48574 0.0
O455 O 0.18186 0.04837 0.52697 0.0
O456 O 0.189 1.04 0.57618 0.0
C457 C 0.15581 0.87981 0.57085 0.0
O458 O 0.14796 0.86689 0.54354 0.0
O459 O 0.17727 0.90039 0.47905 0.0
O460 O 0.15095 0.22647 0.59805 0.0
Tb461 Tb 0.19244 0.24287 0.57898 0.0
C462 C 0.21439 0.29063 0.52417 0.0
O463 O 0.24172 0.20078 0.5454 0.0
Tb464 Tb 0.26878 0.24302 0.54855 0.0
C465 C 0.29978 0.23161 0.49708 0.0
O466 O 0.22269 0.20813 0.59307 0.0
O467 O 0.29742 0.22393 0.59084 0.0
C468 C 0.30466 0.19326 0.59586 0.0
O469 O 0.29296 0.1721 0.57643 0.0
O470 O 0.19402 0.27141 0.53558 0.0
O471 O 0.24286 0.28737 0.53305 0.0
O472 O 0.18965 0.27811 0.61592 0.0
C473 C 0.22888 0.18891 0.57032 0.0
C474 C 0.14189 0.21155 0.57266 0.0
O475 O 0.27294 0.22304 0.5014 0.0
O476 O 0.30946 0.24737 0.52193 0.0
C477 C 0.18643 0.26878 0.64565 0.0
O478 O 0.18921 0.23887 0.65239 0.0
O479 O 0.16134 0.21429 0.55077 0.0
C480 C 0.09527 0.46386 0.59387 0.0
C481 C 0.10034 0.43591 0.5774 0.0
C482 C 0.09091 0.46359 0.62694 0.0
C483 C 0.09141 0.43532 0.64443 0.0
H484 H 0.09377 0.48588 0.58103 0.0
H485 H 0.08607 0.48541 0.6386 0.0
S486 S 0.10785 0.35662 0.61296 0.0
N487 N 0.10836 0.37987 0.58142 0.0
N488 N 0.10041 0.3794 0.64327 0.0
C489 C 0.09794 0.40759 0.62836 0.0
C490 C 0.10234 0.40786 0.59489 0.0
C491 C 0.7097 0.06496 0.54038 0.0
C492 C 0.71983 1.03849 0.52446 0.0
C493 C 0.70608 0.06507 0.57352 0.0
C494 C 0.71275 1.03891 0.59243 0.0
H495 H 0.70395 0.08575 0.52711 0.0
H496 H 0.69765 0.08581 0.58444 0.0
S497 S 0.7398 0.96347 0.56309 0.0
N498 N 0.73654 0.98519 0.53063 0.0
N499 N 0.73001 0.9857 0.59296 0.0
C500 C 0.7236 1.01253 0.57715 0.0
C501 C 0.72707 1.01225 0.54321 0.0
C502 C 1.05404 0.71371 0.60455 0.0
C503 C 0.07645 0.71233 0.62759 0.0
C504 C 1.05887 0.70746 0.57246 0.0
C505 C 0.08641 0.70002 0.56186 0.0
H506 H 1.0324 0.71971 0.61122 0.0
H507 H 1.04091 0.70915 0.55571 0.0
S508 S 0.15226 0.69156 0.6122 0.0
N509 N 0.12714 0.70137 0.63751 0.0
N510 N 0.1363 0.69045 0.57669 0.0
C511 C 0.10906 0.69819 0.58442 0.0
C512 C 0.10405 0.70409 0.6174 0.0
C513 C 0.4166 0.04756 0.49216 0.0
C514 C 0.41021 0.07796 0.48174 0.0
C515 C 0.41965 1.04107 0.52485 0.0
C516 C 0.41668 0.06501 0.54744 0.0
H517 H 0.42105 1.02942 0.47504 0.0
H518 H 0.42575 1.01783 0.53238 0.0
S519 S 0.39395 0.14639 0.53169 0.0
N520 N 0.39677 0.13053 0.4961 0.0
N521 N 0.40243 0.1186 0.55733 0.0
C522 C 0.40797 0.09467 0.53715 0.0
C523 C 0.40473 0.10109 0.50421 0.0
C524 C 0.56671 0.12061 0.42319 0.0
C525 C 0.54428 0.1027 0.43741 0.0
C526 C 0.5956 0.11273 0.42764 0.0
C527 C 0.60288 0.08636 0.44598 0.0
H528 H 0.56188 0.14004 0.40748 0.0
H529 H 0.61215 0.12633 0.41508 0.0
S530 S 0.5525 1.034 0.49117 0.0
N531 N 0.53147 0.05933 0.47321 0.0
N532 N 0.58586 1.0441 0.48071 0.0
C533 C 0.58087 0.06934 0.46175 0.0
C534 C 0.55148 0.07766 0.45771 0.0
C535 C 0.10137 0.57693 0.40144 0.0
C536 C 0.10019 0.59599 0.42882 0.0
C537 C 0.10378 0.54403 0.40368 0.0
C538 C 0.10424 0.52858 0.43342 0.0
H539 H 0.10065 0.58748 0.37803 0.0
H540 H 0.10463 0.53052 0.38188 0.0
S541 S 0.10074 0.56704 0.51252 0.0
N542 N 0.09937 0.5964 0.4868 0.0
N543 N 0.10302 0.53491 0.4909 0.0
C544 C 0.10267 0.54722 0.46097 0.0
C545 C 0.10087 0.58074 0.45872 0.0
C546 C 0.52814 0.07631 0.69506 0.0
C547 C 0.50934 0.05488 0.67848 0.0
C548 C 0.55835 0.07364 0.69498 0.0
C549 C 0.57134 0.04944 0.67829 0.0
H550 H 0.51954 0.09559 0.70828 0.0
H551 H 0.57164 0.09088 0.70804 0.0
S552 S 0.53238 0.98613 0.63223 0.0
N553 N 0.50632 1.00778 0.64571 0.0
N554 N 0.56304 1.00284 0.64555 0.0
C555 C 0.55295 1.02747 0.66203 0.0
C556 C 0.52205 1.03013 0.66215 0.0
C557 C 1.02211 0.55751 0.69043 0.0
C558 C 1.02017 0.54578 0.72176 0.0
C559 C 1.02544 0.58988 0.6848 0.0
C560 C 1.0258 0.61114 0.71022 0.0
H561 H 1.02441 0.54166 0.67055 0.0
H562 H 1.03053 0.59802 0.66097 0.0
S563 S 1.01614 0.59244 0.79567 0.0
N564 N 1.01483 0.55794 0.77779 0.0
N565 N 1.02006 0.61887 0.767 0.0
C566 C 1.02 0.5999 0.741 0.0
C567 C 1.01731 0.56702 0.74685 0.0
C568 C 0.44776 0.57258 0.05818 0.0
C569 C 0.43713 0.56068 1.02891 0.0
C570 C 0.44652 0.60459 0.06538 0.0
C571 C 0.43507 0.62602 0.04338 0.0
H572 H 0.45606 0.55689 0.07623 0.0
H573 H 0.45424 0.6125 0.08862 0.0
S574 S 0.40586 0.60694 0.96263 0.0
N575 N 0.41577 0.57282 0.97722 0.0
N576 N 0.41402 0.63326 0.99052 0.0
C577 C 0.42561 0.61468 1.0134 0.0
C578 C 0.42648 0.58191 1.00623 0.0
C579 C 0.52606 0.44396 0.99492 0.0
C580 C 0.50807 0.44195 1.02153 0.0
C581 C 0.5553 0.45369 0.99836 0.0
C582 C 0.56715 0.46216 1.02839 0.0
H583 H 0.51789 0.4365 0.97171 0.0
H584 H 0.56896 0.45323 0.97764 0.0
S585 S 0.52744 0.46508 0.10446 0.0
N586 N 0.50304 0.45199 0.07808 0.0
N587 N 0.55768 0.47093 0.08452 0.0
C588 C 0.54869 0.46232 0.05469 0.0
C589 C 0.51918 0.45196 0.05126 0.0
C590 C 0.70518 0.56638 0.08561 0.0
C591 C 0.69999 0.5498 0.05682 0.0
C592 C 0.71078 0.59932 0.08621 0.0
C593 C 0.71249 0.6174 0.058 0.0
H594 H 0.70452 0.55383 0.1081 0.0
H595 H 0.71409 0.61069 0.1091 0.0
S596 S 0.7017 0.58576 0.97605 0.0
N597 N 0.69713 0.55451 0.99917 0.0
N598 N 0.70888 0.61575 1.0002 0.0
C599 C 0.70794 0.60109 1.02898 0.0
C600 C 0.70135 0.56762 1.02842 0.0
C601 C 0.58068 0.66183 0.07758 0.0
C602 C 0.59985 0.66732 0.05241 0.0
C603 C 0.55089 0.66363 0.07266 0.0
C604 C 0.53962 0.67152 0.04254 0.0
H605 H 0.58885 0.65887 0.10171 0.0
H606 H 0.53701 0.6619 0.0932 0.0
S607 S 0.58043 0.68041 0.96754 0.0
N608 N 0.60542 0.67472 0.9953 0.0
N609 N 0.54915 0.67872 0.98608 0.0
C610 C 0.55824 0.67292 1.01642 0.0
C611 C 0.5886 0.67064 1.02137 0.0
C612 C 0.60862 0.92923 0.10016 0.0
C613 C 0.58424 0.92677 0.07983 0.0
C614 C 0.60622 0.92411 0.13296 0.0
C615 C 0.57928 0.9167 0.14679 0.0
H616 H 0.62991 0.93453 0.09063 0.0
H617 H 0.62575 0.92585 0.14755 0.0
S618 S 0.50872 0.9076 0.10407 0.0
N619 N 0.53215 0.9165 0.0758 0.0
N620 N 0.52765 0.9073 0.13778 0.0
C621 C 0.55457 0.91481 0.1269 0.0
C622 C 0.55705 0.91971 0.09332 0.0
C623 C 0.23458 0.53048 0.07409 0.0
C624 C 0.20966 0.53708 0.09129 0.0
C625 C 0.23475 0.53255 0.04068 0.0
C626 C 0.21025 0.54221 1.0236 0.0
H627 H 0.25402 0.52358 0.0865 0.0
H628 H 0.2544 0.52748 1.02829 0.0
S629 S 0.13934 0.56123 0.05742 0.0
N630 N 0.15959 0.55245 0.08873 0.0
N631 N 0.16013 0.55733 1.02616 0.0
C632 C 0.18511 0.54848 0.04053 0.0
C633 C 0.18474 0.54563 0.07435 0.0
C634 C 0.5669 0.19202 0.08341 0.0
C635 C 0.59463 0.1925 0.07017 0.0
C636 C 0.56282 0.20161 0.11483 0.0
C637 C 0.58634 0.21162 0.13447 0.0
H638 H 0.54797 0.18557 0.06897 0.0
H639 H 0.54089 0.20184 0.12352 0.0
S640 S 0.66365 0.21441 0.11226 0.0
N641 N 0.64628 0.20191 0.07971 0.0
N642 N 0.63854 0.21935 0.13919 0.0
C643 C 0.61436 0.21048 0.1222 0.0
C644 C 0.61852 0.20108 0.08993 0.0
C645 C 0.914 0.53769 0.99134 0.0
C646 C 0.92624 0.56453 0.97647 0.0
C647 C 0.9193 0.53185 1.02379 0.0
C648 C 0.93747 0.55235 0.04205 0.0
H649 H 0.89902 0.52212 0.9783 0.0
H650 H 0.90812 0.51195 0.03491 0.0
S651 S 0.97841 0.623 1.01254 0.0
N652 N 0.95947 0.60997 0.98131 0.0
N653 N 0.9704 0.59835 0.04184 0.0
C654 C 0.9516 0.57786 1.0267 0.0
C655 C 0.94568 0.58417 0.99397 0.0
C656 C 1.04054 0.59276 0.94699 0.0
C657 C 1.02463 0.56411 0.94424 0.0
C658 C 0.0701 0.59318 0.95459 0.0
C659 C 0.0843 0.565 0.95999 0.0
H660 H 1.03079 0.61469 0.94051 0.0
H661 H 0.08228 0.61543 0.95367 0.0
S662 S 1.05025 0.48475 0.96354 0.0
N663 N 1.02362 0.50762 0.95313 0.0
N664 N 0.07916 0.50839 0.96813 0.0
C665 C 0.06773 0.53667 0.96145 0.0
C666 C 1.03777 0.53623 0.9533 0.0
C667 C 0.60843 0.07932 0.96285 0.0
C668 C 0.60505 0.09492 0.93333 0.0
C669 C 0.60874 0.04602 0.96501 0.0
C670 C 0.60658 1.02662 0.93769 0.0
H671 H 0.60997 0.09287 0.98466 0.0
H672 H 0.6107 1.03539 0.98839 0.0
S673 S 0.59815 0.05524 0.85448 0.0
N674 N 0.59962 0.08765 0.87608 0.0
N675 N 0.60142 1.02602 0.88006 0.0
C676 C 0.60399 1.04197 0.90803 0.0
C677 C 0.6029 0.0757 0.90589 0.0
C678 C 1.03805 0.58049 0.17616 0.0
C679 C 1.01861 0.55426 0.17762 0.0
C680 C 0.06815 0.57691 0.17634 0.0
C681 C 0.08003 0.54701 0.17876 0.0
H682 H 1.02995 0.60401 0.17446 0.0
H683 H 0.08223 0.5978 0.17499 0.0
S684 S 1.03856 0.47088 0.18487 0.0
N685 N 1.01344 0.49739 0.18216 0.0
N686 N 0.06993 0.49072 0.18349 0.0
C687 C 0.06085 0.52062 0.18073 0.0
C688 C 1.03018 0.52422 0.17989 0.0
C689 C 0.54912 0.05109 0.18906 0.0
C690 C 0.57418 1.03367 0.19243 0.0
C691 C 0.55108 0.0834 0.18311 0.0
C692 C 0.57821 0.09921 0.18104 0.0
H693 H 0.52796 1.04014 0.19321 0.0
H694 H 0.53137 0.09639 0.1834 0.0
S695 S 0.64984 0.06297 0.18126 0.0
N696 N 0.62652 1.03333 0.18765 0.0
N697 N 0.63027 0.09445 0.17714 0.0
C698 C 0.60319 0.08145 0.18058 0.0
C699 C 0.60116 0.04845 0.18624 0.0
C700 C 0.96092 0.09137 0.54295 0.0
C701 C 0.94749 0.06968 0.56382 0.0
C702 C 0.95546 0.12341 0.54468 0.0
C703 C 0.93638 0.1347 0.56734 0.0
H704 H 0.97548 0.08352 0.52489 0.0
H705 H 0.96634 0.13939 0.52823 0.0
S706 S 0.89477 0.08717 0.62655 0.0
N707 N 0.91388 0.06146 0.6074 0.0
N708 N 0.9034 0.12165 0.61051 0.0
C709 C 0.9228 0.11321 0.58836 0.0
C710 C 0.92845 0.08066 0.58667 0.0
C711 C 0.08335 0.97056 0.54897 0.0
C712 C 0.10061 0.95301 0.52874 0.0
C713 C 1.05291 0.96607 0.54971 0.0
C714 C 1.03757 0.94367 0.53024 0.0
H715 H 0.09342 0.98813 0.56465 0.0
H716 H 1.04133 0.98048 0.566 0.0
S717 S 0.07226 0.89092 0.47296 0.0
N718 N 0.09974 0.91163 0.48881 0.0
N719 N 1.04285 0.90367 0.48978 0.0
C720 C 1.05454 0.9259 0.50978 0.0
C721 C 0.08576 0.9304 0.50913 0.0
C722 C 0.19758 0.1141 0.53316 0.0
C723 C 0.19035 0.09541 0.55969 0.0
C724 C 0.20928 0.1446 0.53696 0.0
C725 C 0.21375 0.15782 0.56742 0.0
H726 H 0.1957 0.10459 0.50927 0.0
H727 H 0.21547 0.15758 0.51573 0.0
S728 S 0.1942 0.12021 0.64433 0.0
N729 N 0.18568 0.09312 0.61729 0.0
N730 N 0.20718 0.15108 0.62445 0.0
C731 C 0.20469 0.14021 0.59408 0.0
C732 C 0.1931 0.10882 0.59021 0.0
C733 C 0.09412 0.19529 0.59409 0.0
C734 C 0.1118 0.20028 0.56754 0.0
C735 C 0.06403 0.19262 0.59053 0.0
C736 C 1.05078 0.19546 0.56035 0.0
H737 H 0.10344 0.19541 0.61795 0.0
H738 H 1.05111 0.19083 0.61182 0.0
S739 S 0.08783 0.20315 0.48288 0.0
N740 N 0.11434 0.20338 0.50973 0.0
N741 N 1.05754 0.1991 0.5031 0.0
C742 C 0.06831 0.19747 0.53336 0.0
C743 C 0.09901 0.19969 0.53695 0.0
C744 C 0.17743 0.30978 0.4806 0.0
C745 C 0.20173 0.31692 0.50146 0.0
C746 C 0.16134 0.33302 0.46314 0.0
C747 C 0.16752 0.36594 0.46552 0.0
H748 H 0.17007 0.28543 0.47818 0.0
H749 H 0.14293 0.32495 0.44871 0.0
S750 S 0.22837 0.39923 0.51655 0.0
N751 N 0.23062 0.36097 0.52237 0.0
N752 N 0.20103 0.40374 0.49131 0.0
C753 C 0.19198 0.37345 0.48604 0.0
C754 C 0.20869 0.34964 0.50329 0.0
C755 C 0.85337 0.13531 0.50054 0.0
C756 C 0.83822 0.15563 0.5204 0.0
C757 C 0.8389 0.11189 0.48093 0.0
C758 C 0.8082 0.10722 0.4793 0.0
H759 H 0.87681 0.13594 0.50178 0.0
H760 H 0.85219 0.09611 0.46786 0.0
S761 S 0.75777 0.15361 0.5265 0.0
N762 N 0.79002 0.16873 0.53689 0.0
N763 N 0.76347 0.12597 0.49999 0.0
C764 C 0.79276 0.1281 0.49813 0.0
C765 C 0.8075 0.15163 0.51855 0.0
C766 C 1.01586 0.75905 0.46827 0.0
C767 C 1.0342 0.764 0.44126 0.0
C768 C 0.99963 0.78315 0.48336 0.0
C769 C 0.99934 0.81495 0.47282 0.0
H770 H 1.01447 0.73587 0.47898 0.0
H771 H 0.98789 0.77679 0.5047 0.0
S772 S 1.04314 0.84311 0.40341 0.0
N773 N 1.05035 0.80537 0.40509 0.0
N774 N 1.02049 0.84958 0.43259 0.0
C775 C 1.01733 0.82047 0.44562 0.0
C776 C 1.03411 0.79573 0.43017 0.0
C777 C 0.27828 1.03831 0.43142 0.0
C778 C 0.3081 1.03435 0.43868 0.0
C779 C 0.25502 1.02104 0.44735 0.0
C780 C 0.25933 0.99789 0.47168 0.0
H781 H 0.2726 0.05626 0.41435 0.0
H782 H 0.23305 1.02663 0.44087 0.0
S783 S 0.33282 0.97878 0.50173 0.0
N784 N 0.33976 1.0055 0.47394 0.0
N785 N 0.29725 0.97323 0.50206 0.0
C786 C 0.28903 0.99336 0.47877 0.0
C787 C 0.31268 1.01138 0.46306 0.0
C788 C 0.12291 0.8791 0.62082 0.0
C789 C 0.14264 0.86396 0.60101 0.0
C790 C 0.10456 0.86212 0.64283 0.0
C791 C 0.10492 0.82887 0.64731 0.0
H792 H 0.12006 0.90407 0.61775 0.0
H793 H 0.08872 0.8752 0.65549 0.0
S794 S 0.15189 0.77733 0.60113 0.0
N795 N 0.16055 0.81288 0.58757 0.0
N796 N 0.12733 0.78195 0.62874 0.0
C797 C 0.12518 0.81367 0.62837 0.0
C798 C 0.14346 0.83082 0.60554 0.0
C799 C 0.3384 0.13803 0.66256 0.0
C800 C 0.36901 0.14117 0.65933 0.0
C801 C 0.31819 0.15627 0.644 0.0
C802 C 0.32664 0.18024 0.62154 0.0
H803 H 0.32975 0.11991 0.67826 0.0
H804 H 0.29531 0.15062 0.64656 0.0
S805 S 0.40391 0.19939 0.60364 0.0
N806 N 0.40604 0.17136 0.63081 0.0
N807 N 0.36908 0.20527 0.59811 0.0
C808 C 0.35713 0.1843 0.61898 0.0
C809 C 0.37766 0.16523 0.63713 0.0
C810 C 0.97853 0.27608 0.67098 0.0
C811 C 0.9615 0.28766 0.64526 0.0
C812 C 0.99816 0.2956 0.68969 0.0
C813 C 1.00254 0.32823 0.68388 0.0
H814 H 0.97795 0.25101 0.67562 0.0
H815 H 1.01164 0.28445 0.70743 0.0
S816 S 0.9649 0.37111 0.61879 0.0
N817 N 0.95118 0.33481 0.61536 0.0
N818 N 0.98792 0.3708 0.64932 0.0
C819 C 0.98527 0.34025 0.65863 0.0
C820 C 0.96495 0.32041 0.63986 0.0
C821 C 0.84309 0.96994 0.63678 0.0
C822 C 0.82101 0.98586 0.61964 0.0
C823 C 0.86618 0.95316 0.62148 0.0
C824 C 0.86919 0.94931 0.58755 0.0
H825 H 0.8435 0.97155 0.66252 0.0
H826 H 0.88268 0.9436 0.63688 0.0
S827 S 0.81871 0.98655 0.53001 0.0
N828 N 0.8057 0.99642 0.56486 0.0
N829 N 0.84694 0.96507 0.5379 0.0
C830 C 0.84709 0.96463 0.57024 0.0
C831 C 0.82402 0.98237 0.58559 0.0
C832 C 0.4841 0.16111 0.27386 0.0
C833 C 0.49605 0.19241 0.27879 0.0
C834 C 0.46248 0.14598 0.29385 0.0
C835 C 0.45102 0.16066 0.32099 0.0
H836 H 0.49207 0.14746 0.25435 0.0
H837 H 0.4559 0.12181 0.28879 0.0
S838 S 0.47285 0.24284 0.34522 0.0
N839 N 0.49245 0.23755 0.31323 0.0
N840 N 0.45353 0.20982 0.3505 0.0
C841 C 0.46216 0.19227 0.32565 0.0
C842 C 0.48384 0.2078 0.30497 0.0
C843 C 1.02903 0.47391 0.29576 0.0
C844 C 1.03781 0.47974 0.32819 0.0
C845 C 1.00903 0.4929 0.27801 0.0
C846 C 0.99663 0.52006 0.2909 0.0
H847 H 1.03872 0.45483 0.28326 0.0
H848 H 1.00474 0.48725 0.25321 0.0
S849 S 1.01287 0.5481 0.37389 0.0
N850 N 1.03188 0.51611 0.37156 0.0
N851 N 0.99598 0.55156 0.33913 0.0
C852 C 1.00515 0.52604 0.32336 0.0
C853 C 1.025 0.50629 0.34155 0.0
C854 C 0.68021 0.98253 0.32865 0.0
C855 C 0.67927 0.9754 0.36169 0.0
C856 C 0.66183 0.96657 0.3053 0.0
C857 C 0.6416 0.94148 0.31275 0.0
H858 H 0.69431 1.00182 0.32077 0.0
H859 H 0.66319 0.97455 0.28082 0.0
S860 S 0.63001 0.91266 0.39549 0.0
N861 N 0.6553 0.94087 0.40011 0.0
N862 N 0.62258 0.91074 0.35688 0.0
C863 C 0.64103 0.93353 0.34555 0.0
C864 C 0.65915 0.95037 0.36951 0.0
C865 C 0.16431 0.64751 0.2826 0.0
C866 C 0.15106 0.63183 0.30897 0.0
C867 C 0.1821 0.6318 0.25976 0.0
C868 C 0.18906 0.59923 0.26148 0.0
H869 H 0.15952 0.67187 0.27828 0.0
H870 H 0.18973 0.64538 0.2395 0.0
S871 S 0.15977 0.54609 0.32485 0.0
N872 N 0.1466 0.58038 0.33411 0.0
N873 N 0.17951 0.55229 0.2928 0.0
C874 C 0.17646 0.58355 0.28806 0.0
C875 C 0.15793 0.59928 0.31097 0.0
C876 C 0.5129 0.99535 0.84843 0.0
C877 C 0.53406 0.97787 0.83275 0.0
C878 C 0.4924 1.01457 0.83156 0.0
C879 C 0.49055 1.01753 0.79751 0.0
H880 H 0.51317 0.9958 0.87422 0.0
H881 H 0.47822 1.02835 0.84577 0.0
S882 S 0.54087 0.97769 0.74392 0.0
N883 N 0.55132 0.96605 0.77977 0.0
N884 N 0.51329 1.00054 0.74935 0.0
C885 C 0.51106 0.99958 0.78156 0.0
C886 C 0.53232 0.98052 0.79865 0.0
C887 C 0.14934 0.48153 0.8038 0.0
C888 C 0.12827 0.4573 0.81125 0.0
C889 C 0.16784 0.49702 0.82721 0.0
C890 C 0.1661 0.49016 0.86018 0.0
H891 H 0.15119 0.48929 0.77929 0.0
H892 H 0.18268 0.51568 0.81941 0.0
S893 S 0.1146 0.4293 0.89374 0.0
N894 N 0.10756 0.42752 0.85505 0.0
N895 N 0.1408 0.45647 0.89853 0.0
C896 C 0.14527 0.46574 0.86795 0.0
C897 C 0.12694 0.4495 0.84395 0.0
C898 C 0.6721 0.12789 0.75299 0.0
C899 C 0.68784 0.09997 0.75914 0.0
C900 C 0.65522 0.14404 0.7762 0.0
C901 C 0.65221 0.13438 0.80853 0.0
H902 H 0.67177 0.13711 0.72891 0.0
H903 H 0.64304 0.16381 0.76797 0.0
S904 S 0.68708 0.06224 0.83954 0.0
N905 N 0.69809 0.06375 0.80224 0.0
N906 N 0.66675 0.09292 0.84463 0.0
C907 C 0.66796 0.10662 0.81543 0.0
C908 C 0.68552 0.09016 0.79163 0.0
C909 C 1.0111 0.67733 0.81491 0.0
C910 C 1.00119 0.69505 0.78853 0.0
C911 C 0.99252 0.65714 0.83338 0.0
C912 C 0.9623 0.65255 0.82718 0.0
H913 H 1.03392 0.67842 0.82118 0.0
H914 H 1.00243 0.64437 0.85279 0.0
S915 S 0.92384 0.69374 0.76164 0.0
N916 N 0.95777 0.70684 0.75797 0.0
N917 N 0.92338 0.66933 0.79239 0.0
C918 C 0.95167 0.67084 0.8015 0.0
C919 C 0.97078 0.69165 0.78244 0.0
C920 C 0.32119 0.48437 0.09062 0.0
C921 C 0.31569 0.48179 0.12409 0.0
C922 C 0.34136 0.46572 0.07358 0.0
C923 C 0.35825 0.44202 0.08791 0.0
H924 H 0.31028 0.50222 0.07706 0.0
H925 H 0.34472 0.47116 0.04864 0.0
S926 S 0.355 0.42509 0.17531 0.0
N927 N 0.33088 0.45255 0.17077 0.0
N928 N 0.3682 0.41861 0.13961 0.0
C929 C 0.35305 0.43886 0.12142 0.0
C930 C 0.33217 0.45792 0.13895 0.0
C931 C 0.31981 0.65759 1.00671 0.0
C932 C 0.34181 0.64655 1.02773 0.0
C933 C 0.30168 0.6367 0.98692 0.0
C934 C 0.30421 0.60336 0.98702 0.0
H935 H 0.31558 0.68244 1.00655 0.0
H936 H 0.28493 0.64677 0.97223 0.0
S937 S 0.35861 0.56216 0.03747 0.0
N938 N 0.36445 0.59953 0.04653 0.0
N939 N 0.33242 0.56158 1.0104 0.0
C940 C 0.3268 0.59261 1.00743 0.0
C941 C 0.34478 0.61359 1.02731 0.0
C942 C 0.50962 0.252 0.97063 0.0
C943 C 0.53207 0.25835 0.94782 0.0
C944 C 0.49178 0.27565 0.98469 0.0
C945 C 0.49474 0.30845 0.97781 0.0
H946 H 0.50598 0.22796 0.97854 0.0
H947 H 0.47635 0.26803 1.00252 0.0
S948 S 0.5501 0.34014 0.92062 0.0
N949 N 0.55512 0.30191 0.91948 0.0
N950 N 0.52358 0.34522 0.94585 0.0
C951 C 0.51703 0.31518 0.95494 0.0
C952 C 0.53477 0.29094 0.94008 0.0
C953 C 0.79464 0.5611 0.97 0.0
C954 C 0.81874 0.54968 0.95345 0.0
C955 C 0.77662 0.54203 0.99025 0.0
C956 C 0.78065 0.50959 0.9956 0.0
H957 H 0.79021 0.58588 0.96847 0.0
H958 H 0.76003 0.55348 1.00335 0.0
S959 S 0.84078 0.46662 0.95951 0.0
N960 N 0.84538 0.5025 0.9447 0.0
N961 N 0.81197 0.46712 0.98237 0.0
C962 C 0.80427 0.49738 0.97873 0.0
C963 C 0.82287 0.51702 0.95787 0.0
C964 C 0.69133 0.82732 1.01023 0.0
C965 C 0.68505 0.79486 1.00363 0.0
C966 C 0.67671 0.85307 0.9945 0.0
C967 C 0.65473 0.84943 0.96988 0.0
H968 H 0.70703 0.83317 1.02889 0.0
H969 H 0.68268 0.87666 1.00237 0.0
S970 S 0.62983 0.76975 0.94161 0.0
N971 N 0.65423 0.76158 0.9693 0.0
N972 N 0.62868 0.8085 0.93997 0.0
C973 C 0.64883 0.81711 0.96244 0.0
C974 C 0.66319 0.79079 0.97901 0.0
C975 C 0.87409 0.64949 0.12269 0.0
C976 C 0.86825 0.62958 0.14948 0.0
C977 C 0.85235 0.66552 0.10468 0.0
C978 C 0.82229 0.66375 0.11156 0.0
H979 H 0.89616 0.6521 0.11453 0.0
H980 H 0.8593 0.67876 0.08389 0.0
S981 S 0.79296 0.61363 0.17769 0.0
N982 N 0.82822 0.60878 0.18095 0.0
N983 N 0.78811 0.63819 0.1476 0.0
C984 C 0.8158 0.64412 0.13848 0.0
C985 C 0.83822 0.62761 0.1571 0.0
C986 C 0.53451 0.79313 0.14716 0.0
C987 C 0.52755 0.81269 0.1731 0.0
C988 C 0.51367 0.77561 0.12854 0.0
C989 C 0.48336 0.77552 0.13368 0.0
H990 H 0.55692 0.79109 0.14061 0.0
H991 H 0.52197 0.7616 0.10947 0.0
S992 S 0.45147 0.82221 0.1986 0.0
N993 N 0.48658 0.83045 0.20293 0.0
N994 N 0.4476 0.79749 0.16831 0.0
C995 C 0.47557 0.79454 0.15996 0.0
C996 C 0.49729 0.81289 0.17926 0.0
C997 C 0.61691 0.36663 0.16288 0.0
C998 C 0.61637 0.33414 0.15488 0.0
C999 C 0.63432 0.39025 0.14625 0.0
C1000 C 0.65324 0.38349 0.12069 0.0
H1001 H 0.60248 0.37434 0.18111 0.0
H1002 H 0.63235 0.41454 0.15322 0.0
S1003 S 0.65981 0.30265 0.08863 0.0
N1004 N 0.63645 0.29743 0.11775 0.0
N1005 N 0.66916 0.34052 0.08845 0.0
C1006 C 0.65332 0.35105 0.11292 0.0
C1007 C 0.63508 0.32713 0.12925 0.0
C1008 C 0.95938 0.81209 0.6547 0.0
C1009 C 0.98253 0.8237 0.67382 0.0
C1010 C 0.94998 0.829 0.62829 0.0
C1011 C 0.96345 0.85801 0.62038 0.0
H1012 H 0.95034 0.78849 0.65836 0.0
H1013 H 0.93349 0.81823 0.61279 0.0
S1014 S 1.02061 0.90154 0.66707 0.0
N1015 N 1.01534 0.86807 0.68654 0.0
N1016 N 0.99755 0.90018 0.63659 0.0
C1017 C 0.98412 0.87165 0.64154 0.0
C1018 C 0.99363 0.85439 0.6686 0.0
C1019 C 0.32475 1.00337 0.6083 0.0
C1020 C 0.32552 1.03054 0.62751 0.0
C1021 C 0.29917 0.99335 0.59175 0.0
C1022 C 0.27349 1.00987 0.59435 0.0
H1023 H 0.3446 0.99156 0.60365 0.0
H1024 H 0.30013 0.97413 0.57498 0.0
S1025 S 0.26361 0.08058 0.6437 0.0
N1026 N 0.29785 0.07222 0.64971 0.0
N1027 N 0.25004 0.05323 0.6193 0.0
C1028 C 0.27358 1.03554 0.61531 0.0
C1029 C 0.29951 0.04589 0.63173 0.0
C1030 C 0.15811 0.34287 0.68161 0.0
C1031 C 0.14068 0.33127 0.70655 0.0
C1032 C 0.17412 0.32267 0.66308 0.0
C1033 C 0.17372 0.29014 0.66909 0.0
H1034 H 0.15827 0.36756 0.6752 0.0
H1035 H 0.18604 0.33252 0.64315 0.0
S1036 S 0.13433 0.24861 0.73437 0.0
N1037 N 0.12587 0.28575 0.73815 0.0
N1038 N 0.15642 0.24767 0.70387 0.0
C1039 C 0.15799 0.27856 0.69548 0.0
C1040 C 0.14135 0.29916 0.71408 0.0
C1041 C 0.84059 0.15871 0.67222 0.0
C1042 C 0.8318 0.18132 0.64996 0.0
C1043 C 0.82264 0.13266 0.67977 0.0
C1044 C 0.79515 0.12811 0.66534 0.0
H1045 H 0.86226 0.16006 0.68248 0.0
H1046 H 0.83099 0.11523 0.69601 0.0
S1047 S 0.75978 0.18326 0.60987 0.0
N1048 N 0.79227 0.19963 0.61667 0.0
N1049 N 0.7584 0.1504 0.63096 0.0
C1050 C 0.7851 0.15173 0.64497 0.0
C1051 C 0.80343 0.17849 0.63735 0.0
C1052 C 1.00147 0.34702 0.52112 0.0
C1053 C 0.99853 0.31465 0.51453 0.0
C1054 C 1.02094 0.36672 0.50419 0.0
C1055 C 1.03885 0.35453 0.48075 0.0
H1056 H 0.98969 0.35689 0.5406 0.0
H1057 H 1.02363 0.39111 0.51136 0.0
S1058 S 1.03832 0.27185 0.45314 0.0
N1059 N 1.01366 0.2718 0.4812 0.0
N1060 N 1.05107 0.30854 0.45043 0.0
C1061 C 1.03506 0.32257 0.47283 0.0
C1062 C 1.01467 0.30269 0.48944 0.0
C1063 C 0.83269 0.95172 0.44944 0.0
C1064 C 0.83037 0.98169 0.43545 0.0
C1065 C 0.85906 0.94199 0.4628 0.0
C1066 C 0.88386 0.96225 0.4635 0.0
H1067 H 0.81368 0.93616 0.45127 0.0
H1068 H 0.85943 0.91935 0.47465 0.0
S1069 S 0.88987 1.04224 0.42826 0.0
N1070 N 0.85595 1.03053 0.42102 0.0
N1071 N 0.90488 1.01283 0.44728 0.0
C1072 C 0.88214 0.99167 0.44837 0.0
C1073 C 0.85558 1.00123 0.43403 0.0
C1074 C 0.1338 0.81681 0.44746 0.0
C1075 C 0.14135 0.78781 0.46048 0.0
C1076 C 0.15111 0.84405 0.45302 0.0
C1077 C 0.17605 0.84342 0.47276 0.0
H1078 H 0.1136 0.81876 0.43427 0.0
H1079 H 0.14355 0.86615 0.44382 0.0
S1080 S 0.20577 0.77264 0.51099 0.0
N1081 N 0.17625 0.75933 0.49195 0.0
N1082 N 0.20836 0.81078 0.50349 0.0
C1083 C 0.18467 0.81415 0.48441 0.0
C1084 C 0.16734 0.78626 0.47808 0.0
C1085 C 0.34652 0.21226 0.477 0.0
C1086 C 0.31722 0.21843 0.47152 0.0
C1087 C 0.36125 0.1926 0.45642 0.0
C1088 C 0.34714 0.1786 0.42973 0.0
H1089 H 0.35755 0.22083 0.49842 0.0
H1090 H 0.38335 0.18706 0.4624 0.0
S1091 S 0.27193 0.19184 0.40225 0.0
N1092 N 0.27572 0.21233 0.43551 0.0
N1093 N 0.30336 0.17562 0.39685 0.0
C1094 C 0.31862 0.18682 0.42262 0.0
C1095 C 0.30365 0.20667 0.44357 0.0
C1096 C 0.67305 0.96224 0.81919 0.0
C1097 C 0.6501 0.93953 0.81777 0.0
C1098 C 0.67957 0.98162 0.79298 0.0
C1099 C 0.66376 0.97869 0.76426 0.0
H1100 H 0.68454 0.96693 0.84147 0.0
H1101 H 0.69585 1.00039 0.7959 0.0
S1102 S 0.60493 0.91963 0.74625 0.0
N1103 N 0.61401 0.91261 0.78378 0.0
N1104 N 0.62658 0.94907 0.73448 0.0
C1105 C 0.64281 0.95407 0.76139 0.0
C1106 C 0.63595 0.93439 0.78817 0.0
C1107 C 0.14557 0.66382 0.83047 0.0
C1108 C 0.13324 0.65496 0.80078 0.0
C1109 C 0.15555 0.64121 0.85205 0.0
C1110 C 0.15301 0.60895 0.84488 0.0
H1111 H 0.14639 0.68826 0.83768 0.0
H1112 H 0.16346 0.64894 0.87528 0.0
S1113 S 0.12526 0.57339 0.76932 0.0
N1114 N 0.12165 0.61154 0.76435 0.0
N1115 N 0.13981 0.56936 0.80519 0.0
C1116 C 0.14241 0.5999 0.81463 0.0
C1117 C 0.1327 0.62283 0.79247 0.0
C1118 C 0.51652 0.18087 0.79383 0.0
C1119 C 0.51562 0.1743 0.82656 0.0
C1120 C 0.4941 0.17006 0.77343 0.0
C1121 C 0.47017 0.15243 0.78522 0.0
H1122 H 0.53545 0.19255 0.78361 0.0
H1123 H 0.49662 0.17353 0.74802 0.0
S1124 S 0.45493 0.13503 0.87001 0.0
N1125 N 0.48691 0.15368 0.87061 0.0
N1126 N 0.44474 0.13339 0.83215 0.0
C1127 C 0.46762 0.14872 0.81828 0.0
C1128 C 0.49048 0.15958 0.83903 0.0
C1129 C 0.95917 0.49094 0.77684 0.0
C1130 C 0.97171 0.50144 0.80582 0.0
C1131 C 0.9703 0.46529 0.76062 0.0
C1132 C 0.99489 0.45026 0.77231 0.0
H1133 H 0.94011 0.50188 0.76728 0.0
H1134 H 0.9595 0.45699 0.73896 0.0
S1135 S 1.0373 0.47074 0.84538 0.0
N1136 N 1.01094 0.4959 0.84456 0.0
N1137 N 1.03223 0.44847 0.81345 0.0
C1138 C 1.00824 0.46128 0.80052 0.0
C1139 C 0.99659 0.48679 0.8174 0.0
C1140 C 0.62853 0.09633 0.29018 0.0
C1141 C 0.62425 0.12843 0.29568 0.0
C1142 C 0.64558 0.07867 0.3108 0.0
C1143 C 0.65909 0.09225 0.33794 0.0
H1144 H 0.61772 0.08435 0.2703 0.0
H1145 H 0.64677 0.05365 0.30649 0.0
S1146 S 0.65677 0.17599 0.3618 0.0
N1147 N 0.63677 0.17377 0.32882 0.0
N1148 N 0.66863 0.14031 0.36816 0.0
C1149 C 0.65668 0.12481 0.34265 0.0
C1150 C 0.63928 0.14297 0.32137 0.0
C1151 C 0.99204 0.65499 0.33176 0.0
C1152 C 1.01441 0.67505 0.32021 0.0
C1153 C 0.9698 0.64344 0.31152 0.0
C1154 C 0.96931 0.65153 0.27906 0.0
H1155 H 0.99255 0.64665 0.35618 0.0
H1156 H 0.95428 0.62619 0.32086 0.0
S1157 S 1.01972 0.70804 0.2386 0.0
N1158 N 1.03243 0.70612 0.27553 0.0
N1159 N 0.99054 0.68442 0.23734 0.0
C1160 C 0.98993 0.67398 0.26798 0.0
C1161 C 1.01261 0.68571 0.28861 0.0
C1162 C 0.51147 0.98871 0.34444 0.0
C1163 C 0.51268 0.98368 0.31137 0.0
C1164 C 0.49457 1.01232 0.35699 0.0
C1165 C 0.47903 1.03229 0.33679 0.0
H1166 H 0.52488 0.97542 0.36058 0.0
H1167 H 0.49564 1.01665 0.38243 0.0
S1168 S 0.47308 1.02755 0.24885 0.0
N1169 N 0.49459 0.99894 0.25895 0.0
N1170 N 0.46421 1.04429 0.28259 0.0
C1171 C 0.47875 1.02643 0.30394 0.0
C1172 C 0.4952 1.00181 0.2912 0.0
C1173 C 0.14974 0.43668 0.25432 0.0
C1174 C 0.17214 0.45982 0.25151 0.0
C1175 C 0.14193 0.42455 0.28419 0.0
C1176 C 0.15635 0.43507 0.31213 0.0
H1177 H 0.13664 0.42969 0.23373 0.0
H1178 H 0.12313 0.40863 0.28555 0.0
S1179 S 0.22105 0.48928 0.31652 0.0
N1180 N 0.21192 0.48845 0.27831 0.0
N1181 N 0.19732 0.46557 0.33451 0.0
C1182 C 0.18076 0.45556 0.30921 0.0
C1183 C 0.18862 0.46799 0.27884 0.0
C1184 C 0.83397 0.71408 0.97405 0.0
C1185 C 0.80395 0.71215 0.96861 0.0
C1186 C 0.85271 0.70031 0.95278 0.0
C1187 C 0.84188 0.68426 0.92556 0.0
H1188 H 0.84286 0.72382 0.9961 0.0
H1189 H 0.8755 0.69998 0.95914 0.0
S1190 S 0.76562 0.67973 0.89695 0.0
N1191 N 0.76468 0.69843 0.93132 0.0
N1192 N 0.79999 0.67241 0.89134 0.0
C1193 C 0.81232 0.68566 0.91794 0.0
C1194 C 0.79326 0.69965 0.93958 0.0
C1195 C 0.7929 0.4943 0.14803 0.0
C1196 C 0.79465 0.46756 0.12854 0.0
C1197 C 0.81762 0.51281 0.15592 0.0
C1198 C 0.845 0.50461 0.14554 0.0
H1199 H 0.77206 0.50265 0.15493 0.0
H1200 H 0.81508 0.53472 0.16849 0.0
S1201 S 0.86192 0.43435 0.0984 0.0
N1202 N 0.82637 0.43196 0.10207 0.0
N1203 N 0.87308 0.4663 0.11798 0.0
C1204 C 0.84749 0.47626 0.12892 0.0
C1205 C 0.82219 0.45774 0.12021 0.0
C1206 C 0.64633 0.78174 0.19552 0.0
C1207 C 0.65555 0.81308 0.20108 0.0
C1208 C 0.65836 0.76421 0.17107 0.0
C1209 C 0.68006 0.77738 0.15121 0.0
H1210 H 0.62841 0.77131 0.2087 0.0
H1211 H 0.64948 0.74066 0.16678 0.0
S1212 S 0.7148 0.8571 0.15958 0.0
N1213 N 0.69001 0.8554 0.18749 0.0
N1214 N 0.71259 0.82262 0.14161 0.0
C1215 C 0.69101 0.80791 0.15827 0.0
C1216 C 0.67877 0.8257 0.18319 0.0
C1217 C 0.32368 0.6715 0.15879 0.0
C1218 C 0.35342 0.66692 0.16305 0.0
C1219 C 0.3031 0.64882 0.16898 0.0
C1220 C 0.31153 0.62096 0.18404 0.0
H1221 H 0.31626 0.69153 0.14539 0.0
H1222 H 0.28049 0.6524 0.16342 0.0
S1223 S 0.38648 0.60048 0.20587 0.0
N1224 N 0.39017 0.63451 0.18706 0.0
N1225 N 0.35134 0.59199 0.20648 0.0
C1226 C 0.341 0.61751 0.19117 0.0
C1227 C 0.36202 0.64053 0.1806 0.0
C1228 C 0.44427 0.30578 0.13138 0.0
C1229 C 0.44661 0.33851 0.12787 0.0
C1230 C 0.45979 0.2909 0.15551 0.0
C1231 C 0.47795 0.30841 0.17665 0.0
H1232 H 0.43259 0.2914 0.11382 0.0
H1233 H 0.45949 0.26542 0.15581 0.0
S1234 S 0.48505 0.39518 0.18227 0.0
N1235 N 0.46343 0.38842 0.15115 0.0
N1236 N 0.49284 0.36023 0.19651 0.0
C1237 C 0.4773 0.34128 0.17601 0.0
C1238 C 0.46152 0.35646 0.15143 0.0
C1239 C 0.31076 0.46053 0.94012 0.0
C1240 C 0.30976 0.48569 0.91838 0.0
C1241 C 0.33721 0.44969 0.95133 0.0
C1242 C 0.36354 0.46335 0.94088 0.0
H1243 H 0.29107 0.45078 0.95053 0.0
H1244 H 0.33699 0.43193 0.96991 0.0
S1245 S 0.37242 0.52569 0.87932 0.0
N1246 N 0.33705 0.52085 0.88326 0.0
N1247 N 0.38695 0.50019 0.90398 0.0
C1248 C 0.36279 0.48609 0.91645 0.0
C1249 C 0.33578 0.49735 0.90526 0.0
C1250 C 0.60501 0.34915 1.00111 0.0
C1251 C 0.63381 0.35867 1.00855 0.0
C1252 C 0.5976 0.31858 0.99103 0.0
C1253 C 0.61855 0.29582 0.98732 0.0
H1254 H 0.58761 0.36508 1.00473 0.0
H1255 H 0.57486 0.31221 0.98791 0.0
S1256 S 0.69749 0.30891 1.00145 0.0
N1257 N 0.68387 0.34329 1.00973 0.0
N1258 N 0.66985 0.28544 0.9903 0.0
C1259 C 0.64777 0.30539 0.99259 0.0
C1260 C 0.65542 0.3369 1.00322 0.0
C1261 C 0.51075 0.85928 0.98618 0.0
C1262 C 0.53607 0.84775 0.97313 0.0
C1263 C 0.48812 0.83862 0.99597 0.0
C1264 C 0.48984 0.80581 0.9925 0.0
H1265 H 0.50948 0.88409 0.99148 0.0
H1266 H 0.46999 0.8483 1.00813 0.0
S1267 S 0.55006 0.76463 0.95507 0.0
N1268 N 0.56046 0.80217 0.95422 0.0
N1269 N 0.51777 0.76334 0.97135 0.0
C1270 C 0.51395 0.79441 0.97659 0.0
C1271 C 0.53715 0.8154 0.9673 0.0
loop_
_geom_bond_atom_site_label_1
_geom_bond_atom_site_label_2
_geom_bond_distance
_geom_bond_site_symmetry_2
_ccdc_geom_bond_type
O0 Tb1 2.506 . S
O0 C14 1.265 . S
Tb1 O0 2.506 . S
Tb1 O6 2.312 . S
Tb1 O10 2.271 . S
Tb1 O12 2.338 . S
Tb1 O19 2.441 . S
C2 O10 1.252 . S
C2 O11 1.253 . S
O3 Tb4 2.271 . S
O3 C13 1.252 . S
Tb4 O3 2.271 . S
Tb4 O7 2.338 1_455 S
Tb4 O11 2.312 . S
Tb4 O15 2.441 . S
Tb4 O16 2.506 . S
C5 O15 1.244 . S
C5 O16 1.265 . S
O6 Tb1 2.312 . S
O6 C13 1.253 . S
O7 Tb4 2.338 1_655 S
O7 C8 1.258 . S
C8 O7 1.258 . S
C8 O9 1.251 . S
O9 C8 1.251 . S
O10 Tb1 2.271 . S
O10 C2 1.252 . S
O11 C2 1.253 . S
O11 Tb4 2.312 . S
O12 Tb1 2.338 . S
O12 C17 1.258 . S
C13 O3 1.252 . S
C13 O6 1.253 . S
C14 O0 1.265 . S
C14 O19 1.244 . S
O15 Tb4 2.441 . S
O15 C5 1.244 . S
O16 Tb4 2.506 . S
O16 C5 1.265 . S
C17 O12 1.258 . S
C17 O18 1.251 1_455 S
O18 C17 1.251 1_655 S
O19 Tb1 2.441 . S
O19 C14 1.244 . S
O20 Tb21 2.506 . S
O20 C34 1.265 . S
Tb21 O20 2.506 . S
Tb21 O26 2.312 . S
Tb21 O30 2.271 . S
Tb21 O32 2.338 1_565 S
Tb21 O39 2.441 . S
C22 O30 1.252 1_545 S
C22 O31 1.253 . S
O23 Tb24 2.271 1_565 S
O23 C33 1.252 . S
Tb24 O23 2.271 1_545 S
Tb24 O27 2.338 . S
Tb24 O31 2.312 . S
Tb24 O35 2.441 1_545 S
Tb24 O36 2.506 . S
C25 O35 1.244 1_545 S
C25 O36 1.265 . S
O26 Tb21 2.312 . S
O26 C33 1.253 . S
O27 Tb24 2.338 . S
O27 C28 1.258 . S
C28 O27 1.258 . S
C28 O29 1.251 . S
O29 C28 1.251 . S
O30 Tb21 2.271 . S
O30 C22 1.252 1_565 S
O31 C22 1.253 . S
O31 Tb24 2.312 . S
O32 Tb21 2.338 1_545 S
O32 C37 1.258 . S
C33 O23 1.252 . S
C33 O26 1.253 . S
C34 O20 1.265 . S
C34 O39 1.244 . S
O35 Tb24 2.441 1_565 S
O35 C25 1.244 1_565 S
O36 Tb24 2.506 . S
O36 C25 1.265 . S
C37 O32 1.258 . S
C37 O38 1.251 . S
O38 C37 1.251 . S
O39 Tb21 2.441 . S
O39 C34 1.244 . S
O40 Tb41 2.506 1_655 S
O40 C54 1.265 . S
Tb41 O40 2.506 1_455 S
Tb41 O46 2.314 . S
Tb41 O50 2.271 . S
Tb41 O52 2.338 . S
Tb41 O59 2.441 1_455 S
C42 O50 1.252 . S
C42 O51 1.253 . S
O43 Tb44 2.271 . S
O43 C53 1.252 . S
Tb44 O43 2.271 . S
Tb44 O47 2.338 . S
Tb44 O51 2.312 . S
Tb44 O55 2.441 . S
Tb44 O56 2.506 . S
C45 O55 1.244 . S
C45 O56 1.265 . S
O46 Tb41 2.314 . S
O46 C53 1.256 . S
O47 Tb44 2.338 . S
O47 C48 1.258 . S
C48 O47 1.258 . S
C48 O49 1.251 . S
O49 C48 1.251 . S
O50 Tb41 2.271 . S
O50 C42 1.252 . S
O51 C42 1.253 . S
O51 Tb44 2.312 . S
O52 Tb41 2.338 . S
O52 C57 1.258 . S
C53 O43 1.252 . S
C53 O46 1.256 . S
C54 O40 1.265 . S
C54 O59 1.244 . S
O55 Tb44 2.441 . S
O55 C45 1.244 . S
O56 Tb44 2.506 . S
O56 C45 1.265 . S
C57 O52 1.258 . S
C57 O58 1.251 . S
O58 C57 1.251 . S
O59 Tb41 2.441 1_655 S
O59 C54 1.244 . S
O60 Tb61 2.506 . S
O60 C74 1.265 . S
Tb61 O60 2.506 . S
Tb61 O66 2.312 . S
Tb61 O70 2.271 . S
Tb61 O72 2.338 . S
Tb61 O79 2.441 . S
C62 O70 1.252 . S
C62 O71 1.253 . S
O63 Tb64 2.271 . S
O63 C73 1.252 . S
Tb64 O63 2.271 . S
Tb64 O67 2.338 1_545 S
Tb64 O71 2.312 . S
Tb64 O75 2.441 . S
Tb64 O76 2.506 . S
C65 O75 1.244 . S
C65 O76 1.265 . S
O66 Tb61 2.312 . S
O66 C73 1.253 . S
O67 Tb64 2.338 1_565 S
O67 C68 1.258 . S
C68 O67 1.258 . S
C68 O69 1.251 . S
O69 C68 1.251 . S
O70 Tb61 2.271 . S
O70 C62 1.252 . S
O71 C62 1.253 . S
O71 Tb64 2.312 . S
O72 Tb61 2.338 . S
O72 C77 1.258 . S
C73 O63 1.252 . S
C73 O66 1.253 . S
C74 O60 1.265 . S
C74 O79 1.244 . S
O75 Tb64 2.441 . S
O75 C65 1.244 . S
O76 Tb64 2.506 . S
O76 C65 1.265 . S
C77 O72 1.258 . S
C77 O78 1.251 1_545 S
O78 C77 1.251 1_565 S
O79 Tb61 2.441 . S
O79 C74 1.244 . S
O80 Tb81 2.506 . S
O80 C94 1.265 . S
Tb81 O80 2.506 . S
Tb81 O86 2.312 . S
Tb81 O90 2.271 1_455 S
Tb81 O92 2.338 . S
Tb81 O99 2.441 1_455 S
C82 O90 1.252 . S
C82 O91 1.253 . S
O83 Tb84 2.271 . S
O83 C93 1.252 1_655 S
Tb84 O83 2.271 . S
Tb84 O87 2.338 1_655 S
Tb84 O91 2.312 . S
Tb84 O95 2.441 . S
Tb84 O96 2.506 . S
C85 O95 1.244 . S
C85 O96 1.265 . S
O86 Tb81 2.312 . S
O86 C93 1.253 . S
O87 Tb84 2.338 1_455 S
O87 C88 1.258 . S
C88 O87 1.258 . S
C88 O89 1.251 . S
O89 C88 1.251 . S
O90 Tb81 2.271 1_655 S
O90 C82 1.252 . S
O91 C82 1.253 . S
O91 Tb84 2.312 . S
O92 Tb81 2.338 . S
O92 C97 1.258 . S
C93 O83 1.252 1_455 S
C93 O86 1.253 . S
C94 O80 1.265 . S
C94 O99 1.244 1_455 S
O95 Tb84 2.441 . S
O95 C85 1.244 . S
O96 Tb84 2.506 . S
O96 C85 1.265 . S
C97 O92 1.258 . S
C97 O98 1.251 . S
O98 C97 1.251 . S
O99 Tb81 2.441 1_655 S
O99 C94 1.244 1_655 S
O100 Tb101 2.506 . S
O100 C114 1.265 . S
Tb101 O100 2.506 . S
Tb101 O106 2.312 . S
Tb101 O110 2.271 . S
Tb101 O112 2.338 . S
Tb101 O119 2.441 . S
C102 O110 1.252 . S
C102 O111 1.253 . S
O103 Tb104 2.271 . S
O103 C113 1.252 . S
Tb104 O103 2.271 . S
Tb104 O107 2.338 1_545 S
Tb104 O111 2.312 . S
Tb104 O115 2.441 . S
Tb104 O116 2.506 . S
C105 O115 1.244 . S
C105 O116 1.265 . S
O106 Tb101 2.312 . S
O106 C113 1.253 . S
O107 Tb104 2.338 1_565 S
O107 C108 1.258 . S
C108 O107 1.258 . S
C108 O109 1.251 . S
O109 C108 1.251 . S
O110 Tb101 2.271 . S
O110 C102 1.252 . S
O111 C102 1.253 . S
O111 Tb104 2.312 . S
O112 Tb101 2.338 . S
O112 C117 1.258 1_545 S
C113 O103 1.252 . S
C113 O106 1.253 . S
C114 O100 1.265 . S
C114 O119 1.244 . S
O115 Tb104 2.441 . S
O115 C105 1.244 . S
O116 Tb104 2.506 . S
O116 C105 1.265 . S
C117 O112 1.258 1_565 S
C117 O118 1.251 . S
O118 C117 1.251 . S
O119 Tb101 2.441 . S
O119 C114 1.244 . S
O120 Tb121 2.506 . S
O120 C134 1.265 . S
Tb121 O120 2.506 . S
Tb121 O126 2.312 . S
Tb121 O130 2.271 . S
Tb121 O132 2.338 . S
Tb121 O139 2.441 . S
C122 O130 1.252 . S
C122 O131 1.253 . S
O123 Tb124 2.271 . S
O123 C133 1.252 . S
Tb124 O123 2.271 . S
Tb124 O127 2.338 1_455 S
Tb124 O131 2.312 . S
Tb124 O135 2.441 . S
Tb124 O136 2.506 1_455 S
C125 O135 1.244 . S
C125 O136 1.265 1_455 S
O126 Tb121 2.312 . S
O126 C133 1.253 . S
O127 Tb124 2.338 1_655 S
O127 C128 1.258 . S
C128 O127 1.258 . S
C128 O129 1.251 . S
O129 C128 1.251 . S
O130 Tb121 2.271 . S
O130 C122 1.252 . S
O131 C122 1.253 . S
O131 Tb124 2.312 . S
O132 Tb121 2.338 . S
O132 C137 1.258 1_455 S
C133 O123 1.252 . S
C133 O126 1.253 . S
C134 O120 1.265 . S
C134 O139 1.244 . S
O135 Tb124 2.441 . S
O135 C125 1.244 . S
O136 Tb124 2.506 1_655 S
O136 C125 1.265 1_655 S
C137 O132 1.258 1_655 S
C137 O138 1.251 . S
O138 C137 1.251 . S
O139 Tb121 2.441 . S
O139 C134 1.244 . S
O140 Tb141 2.506 . S
O140 C154 1.265 . S
Tb141 O140 2.506 . S
Tb141 O146 2.312 . S
Tb141 O150 2.271 . S
Tb141 O152 2.338 1_545 S
Tb141 O159 2.441 . S
C142 O150 1.252 1_565 S
C142 O151 1.253 . S
O143 Tb144 2.271 1_545 S
O143 C153 1.252 . S
Tb144 O143 2.271 1_565 S
Tb144 O147 2.338 . S
Tb144 O151 2.312 . S
Tb144 O155 2.441 1_565 S
Tb144 O156 2.506 . S
C145 O155 1.244 1_565 S
C145 O156 1.265 . S
O146 Tb141 2.312 . S
O146 C153 1.253 . S
O147 Tb144 2.338 . S
O147 C148 1.258 . S
C148 O147 1.258 . S
C148 O149 1.251 . S
O149 C148 1.251 . S
O150 Tb141 2.271 . S
O150 C142 1.252 1_545 S
O151 C142 1.253 . S
O151 Tb144 2.312 . S
O152 Tb141 2.338 1_565 S
O152 C157 1.258 . S
C153 O143 1.252 . S
C153 O146 1.253 . S
C154 O140 1.265 . S
C154 O159 1.244 . S
O155 Tb144 2.441 1_545 S
O155 C145 1.244 1_545 S
O156 Tb144 2.506 . S
O156 C145 1.265 . S
C157 O152 1.258 . S
C157 O158 1.251 . S
O158 C157 1.251 . S
O159 Tb141 2.441 . S
O159 C154 1.244 . S
O160 Tb161 2.506 . S
O160 C174 1.265 . S
Tb161 O160 2.506 . S
Tb161 O166 2.312 . S
Tb161 O170 2.271 . S
Tb161 O172 2.338 1_554 S
Tb161 O179 2.441 . S
C162 O170 1.252 1_556 S
C162 O171 1.253 . S
O163 Tb164 2.271 1_554 S
O163 C173 1.252 . S
Tb164 O163 2.271 1_556 S
Tb164 O167 2.338 . S
Tb164 O171 2.312 . S
Tb164 O175 2.441 1_556 S
Tb164 O176 2.506 . S
C165 O175 1.244 1_556 S
C165 O176 1.265 . S
O166 Tb161 2.312 . S
O166 C173 1.253 . S
O167 Tb164 2.338 . S
O167 C168 1.258 . S
C168 O167 1.258 . S
C168 O169 1.251 . S
O169 C168 1.251 . S
O170 Tb161 2.271 . S
O170 C162 1.252 1_554 S
O171 C162 1.253 . S
O171 Tb164 2.312 . S
O172 Tb161 2.338 1_556 S
O172 C177 1.258 . S
C173 O163 1.252 . S
C173 O166 1.253 . S
C174 O160 1.265 . S
C174 O179 1.244 . S
O175 Tb164 2.441 1_554 S
O175 C165 1.244 1_554 S
O176 Tb164 2.506 . S
O176 C165 1.265 . S
C177 O172 1.258 . S
C177 O178 1.251 . S
O178 C177 1.251 . S
O179 Tb161 2.441 . S
O179 C174 1.244 . S
O180 Tb181 2.506 . S
O180 C194 1.265 . S
Tb181 O180 2.506 . S
Tb181 O186 2.312 . S
Tb181 O190 2.271 . S
Tb181 O192 2.338 . S
Tb181 O199 2.441 . S
C182 O190 1.252 . S
C182 O191 1.253 . S
O183 Tb184 2.271 . S
O183 C193 1.252 . S
Tb184 O183 2.271 . S
Tb184 O187 2.338 1_554 S
Tb184 O191 2.312 . S
Tb184 O195 2.441 . S
Tb184 O196 2.506 . S
C185 O195 1.244 . S
C185 O196 1.265 . S
O186 Tb181 2.312 . S
O186 C193 1.253 . S
O187 Tb184 2.338 1_556 S
O187 C188 1.258 . S
C188 O187 1.258 . S
C188 O189 1.251 . S
O189 C188 1.251 . S
O190 Tb181 2.271 . S
O190 C182 1.252 . S
O191 C182 1.253 . S
O191 Tb184 2.312 . S
O192 Tb181 2.338 . S
O192 C197 1.258 . S
C193 O183 1.252 . S
C193 O186 1.253 . S
C194 O180 1.265 . S
C194 O199 1.244 . S
O195 Tb184 2.441 . S
O195 C185 1.244 . S
O196 Tb184 2.506 . S
O196 C185 1.265 . S
C197 O192 1.258 . S
C197 O198 1.251 1_554 S
O198 C197 1.251 1_556 S
O199 Tb181 2.441 . S
O199 C194 1.244 . S
O200 Tb201 2.506 . S
O200 C214 1.265 . S
Tb201 O200 2.506 . S
Tb201 O206 2.312 . S
Tb201 O210 2.271 . S
Tb201 O212 2.338 . S
Tb201 O219 2.441 . S
C202 O210 1.252 . S
C202 O211 1.253 . S
O203 Tb204 2.273 1_554 S
O203 C213 1.252 . S
Tb204 O203 2.273 1_556 S
Tb204 O207 2.337 . S
Tb204 O211 2.312 1_556 S
Tb204 O215 2.443 1_556 S
Tb204 O216 2.506 . S
C205 O215 1.244 . S
C205 O216 1.265 1_554 S
O206 Tb201 2.312 . S
O206 C213 1.253 . S
O207 Tb204 2.337 . S
O207 C208 1.258 . S
C208 O207 1.258 . S
C208 O209 1.251 . S
O209 C208 1.251 . S
O210 Tb201 2.271 . S
O210 C202 1.252 . S
O211 C202 1.253 . S
O211 Tb204 2.312 1_554 S
O212 Tb201 2.338 . S
O212 C217 1.258 1_554 S
C213 O203 1.252 . S
C213 O206 1.253 . S
C214 O200 1.265 . S
C214 O219 1.244 . S
O215 Tb204 2.443 1_554 S
O215 C205 1.244 . S
O216 Tb204 2.506 . S
O216 C205 1.265 1_556 S
C217 O212 1.258 1_556 S
C217 O218 1.251 . S
O218 C217 1.251 . S
O219 Tb201 2.441 . S
O219 C214 1.244 . S
O220 Tb221 2.506 . S
O220 C234 1.265 . S
Tb221 O220 2.506 . S
Tb221 O226 2.312 . S
Tb221 O230 2.271 . S
Tb221 O232 2.338 . S
Tb221 O239 2.441 . S
C222 O230 1.252 . S
C222 O231 1.253 1_554 S
O223 Tb224 2.271 1_554 S
O223 C233 1.252 . S
Tb224 O223 2.271 1_556 S
Tb224 O227 2.338 1_556 S
Tb224 O231 2.312 . S
Tb224 O235 2.441 . S
Tb224 O236 2.506 . S
C225 O235 1.244 . S
C225 O236 1.265 . S
O226 Tb221 2.312 . S
O226 C233 1.253 . S
O227 Tb224 2.338 1_554 S
O227 C228 1.258 . S
C228 O227 1.258 . S
C228 O229 1.251 . S
O229 C228 1.251 . S
O230 Tb221 2.271 . S
O230 C222 1.252 . S
O231 C222 1.253 1_556 S
O231 Tb224 2.312 . S
O232 Tb221 2.338 . S
O232 C237 1.258 . S
C233 O223 1.252 . S
C233 O226 1.253 . S
C234 O220 1.265 . S
C234 O239 1.244 . S
O235 Tb224 2.441 . S
O235 C225 1.244 . S
O236 Tb224 2.506 . S
O236 C225 1.265 . S
C237 O232 1.258 . S
C237 O238 1.251 . S
O238 C237 1.251 . S
O239 Tb221 2.441 . S
O239 C234 1.244 . S
O240 Tb241 2.506 . S
O240 C254 1.265 . S
Tb241 O240 2.506 . S
Tb241 O246 2.312 . S
Tb241 O250 2.271 . S
Tb241 O252 2.338 . S
Tb241 O259 2.441 . S
C242 O250 1.252 . S
C242 O251 1.253 . S
O243 Tb244 2.271 . S
O243 C253 1.252 . S
Tb244 O243 2.271 . S
Tb244 O247 2.338 . S
Tb244 O251 2.312 . S
Tb244 O255 2.441 1_556 S
Tb244 O256 2.506 1_556 S
C245 O255 1.244 . S
C245 O256 1.265 . S
O246 Tb241 2.312 . S
O246 C253 1.253 . S
O247 Tb244 2.338 . S
O247 C248 1.258 . S
C248 O247 1.258 . S
C248 O249 1.251 . S
O249 C248 1.251 . S
O250 Tb241 2.271 . S
O250 C242 1.252 . S
O251 C242 1.253 . S
O251 Tb244 2.312 . S
O252 Tb241 2.338 . S
O252 C257 1.258 . S
C253 O243 1.252 . S
C253 O246 1.253 . S
C254 O240 1.265 . S
C254 O259 1.244 . S
O255 Tb244 2.441 1_554 S
O255 C245 1.244 . S
O256 Tb244 2.506 1_554 S
O256 C245 1.265 . S
C257 O252 1.258 . S
C257 O258 1.251 . S
O258 C257 1.251 . S
O259 Tb241 2.441 . S
O259 C254 1.244 . S
O260 Tb261 2.506 . S
O260 C274 1.265 . S
Tb261 O260 2.506 . S
Tb261 O266 2.312 . S
Tb261 O270 2.271 . S
Tb261 O272 2.338 . S
Tb261 O279 2.441 . S
C262 O270 1.252 . S
C262 O271 1.253 . S
O263 Tb264 2.271 . S
O263 C273 1.252 . S
Tb264 O263 2.271 . S
Tb264 O267 2.338 . S
Tb264 O271 2.312 . S
Tb264 O275 2.441 . S
Tb264 O276 2.506 . S
C265 O275 1.244 . S
C265 O276 1.265 . S
O266 Tb261 2.312 . S
O266 C273 1.253 . S
O267 Tb264 2.338 . S
O267 C268 1.258 . S
C268 O267 1.258 . S
C268 O269 1.251 . S
O269 C268 1.251 . S
O270 Tb261 2.271 . S
O270 C262 1.252 . S
O271 C262 1.253 . S
O271 Tb264 2.312 . S
O272 Tb261 2.338 . S
O272 C277 1.258 . S
C273 O263 1.252 . S
C273 O266 1.253 . S
C274 O260 1.265 . S
C274 O279 1.244 . S
O275 Tb264 2.441 . S
O275 C265 1.244 . S
O276 Tb264 2.506 . S
O276 C265 1.265 . S
C277 O272 1.258 . S
C277 O278 1.251 . S
O278 C277 1.251 . S
O279 Tb261 2.441 . S
O279 C274 1.244 . S
O280 Tb281 2.506 . S
O280 C294 1.265 . S
Tb281 O280 2.506 . S
Tb281 O286 2.312 . S
Tb281 O290 2.271 . S
Tb281 O292 2.338 . S
Tb281 O299 2.441 . S
C282 O290 1.252 . S
C282 O291 1.253 . S
O283 Tb284 2.271 . S
O283 C293 1.252 . S
Tb284 O283 2.271 . S
Tb284 O287 2.338 . S
Tb284 O291 2.312 . S
Tb284 O295 2.441 . S
Tb284 O296 2.506 1_556 S
C285 O295 1.244 1_554 S
C285 O296 1.265 . S
O286 Tb281 2.312 . S
O286 C293 1.253 . S
O287 Tb284 2.338 . S
O287 C288 1.258 . S
C288 O287 1.258 . S
C288 O289 1.251 . S
O289 C288 1.251 . S
O290 Tb281 2.271 . S
O290 C282 1.252 . S
O291 C282 1.253 . S
O291 Tb284 2.312 . S
O292 Tb281 2.338 . S
O292 C297 1.258 . S
C293 O283 1.252 . S
C293 O286 1.253 . S
C294 O280 1.265 . S
C294 O299 1.244 . S
O295 Tb284 2.441 . S
O295 C285 1.244 1_556 S
O296 Tb284 2.506 1_554 S
O296 C285 1.265 . S
C297 O292 1.258 . S
C297 O298 1.251 . S
O298 C297 1.251 . S
O299 Tb281 2.441 . S
O299 C294 1.244 . S
O300 Tb301 2.506 . S
O300 C314 1.265 . S
Tb301 O300 2.506 . S
Tb301 O306 2.312 . S
Tb301 O310 2.271 . S
Tb301 O312 2.338 . S
Tb301 O319 2.441 . S
C302 O310 1.252 . S
C302 O311 1.253 . S
O303 Tb304 2.271 . S
O303 C313 1.252 . S
Tb304 O303 2.271 . S
Tb304 O307 2.338 . S
Tb304 O311 2.312 . S
Tb304 O315 2.441 . S
Tb304 O316 2.506 . S
C305 O315 1.244 . S
C305 O316 1.265 . S
O306 Tb301 2.312 . S
O306 C313 1.253 . S
O307 Tb304 2.338 . S
O307 C308 1.258 . S
C308 O307 1.258 . S
C308 O309 1.251 . S
O309 C308 1.251 . S
O310 Tb301 2.271 . S
O310 C302 1.252 . S
O311 C302 1.253 . S
O311 Tb304 2.312 . S
O312 Tb301 2.338 . S
O312 C317 1.258 . S
C313 O303 1.252 . S
C313 O306 1.253 . S
C314 O300 1.265 . S
C314 O319 1.244 . S
O315 Tb304 2.441 . S
O315 C305 1.244 . S
O316 Tb304 2.506 . S
O316 C305 1.265 . S
C317 O312 1.258 . S
C317 O318 1.251 . S
O318 C317 1.251 . S
O319 Tb301 2.441 . S
O319 C314 1.244 . S
O320 Tb321 2.506 . S
O320 C334 1.265 . S
Tb321 O320 2.506 . S
Tb321 O326 2.312 . S
Tb321 O330 2.271 . S
Tb321 O332 2.338 . S
Tb321 O339 2.441 . S
C322 O330 1.252 . S
C322 O331 1.253 . S
O323 Tb324 2.271 . S
O323 C333 1.252 . S
Tb324 O323 2.271 . S
Tb324 O327 2.338 . S
Tb324 O331 2.312 . S
Tb324 O335 2.441 . S
Tb324 O336 2.506 . S
C325 O335 1.244 . S
C325 O336 1.265 . S
O326 Tb321 2.312 . S
O326 C333 1.253 . S
O327 Tb324 2.338 . S
O327 C328 1.258 . S
C328 O327 1.258 . S
C328 O329 1.251 . S
O329 C328 1.251 . S
O330 Tb321 2.271 . S
O330 C322 1.252 . S
O331 C322 1.253 . S
O331 Tb324 2.312 . S
O332 Tb321 2.338 . S
O332 C337 1.258 . S
C333 O323 1.252 . S
C333 O326 1.253 . S
C334 O320 1.265 . S
C334 O339 1.244 . S
O335 Tb324 2.441 . S
O335 C325 1.244 . S
O336 Tb324 2.506 . S
O336 C325 1.265 . S
C337 O332 1.258 . S
C337 O338 1.251 . S
O338 C337 1.251 . S
O339 Tb321 2.441 . S
O339 C334 1.244 . S
O340 Tb341 2.506 . S
O340 C354 1.265 . S
Tb341 O340 2.506 . S
Tb341 O346 2.312 . S
Tb341 O350 2.271 . S
Tb341 O352 2.338 . S
Tb341 O359 2.441 . S
C342 O350 1.252 . S
C342 O351 1.253 . S
O343 Tb344 2.271 . S
O343 C353 1.252 . S
Tb344 O343 2.271 . S
Tb344 O347 2.338 . S
Tb344 O351 2.312 . S
Tb344 O355 2.441 . S
Tb344 O356 2.506 . S
C345 O355 1.244 . S
C345 O356 1.265 . S
O346 Tb341 2.312 . S
O346 C353 1.253 . S
O347 Tb344 2.338 . S
O347 C348 1.258 . S
C348 O347 1.258 . S
C348 O349 1.251 . S
O349 C348 1.251 . S
O350 Tb341 2.271 . S
O350 C342 1.252 . S
O351 C342 1.253 . S
O351 Tb344 2.312 . S
O352 Tb341 2.338 . S
O352 C357 1.258 . S
C353 O343 1.252 . S
C353 O346 1.253 . S
C354 O340 1.265 . S
C354 O359 1.244 . S
O355 Tb344 2.441 . S
O355 C345 1.244 . S
O356 Tb344 2.506 . S
O356 C345 1.265 . S
C357 O352 1.258 . S
C357 O358 1.251 . S
O358 C357 1.251 . S
O359 Tb341 2.441 . S
O359 C354 1.244 . S
O360 Tb361 2.506 . S
O360 C374 1.265 . S
Tb361 O360 2.506 . S
Tb361 O366 2.312 . S
Tb361 O370 2.271 . S
Tb361 O372 2.338 . S
Tb361 O379 2.441 . S
C362 O370 1.252 . S
C362 O371 1.253 . S
O363 Tb364 2.271 . S
O363 C373 1.252 . S
Tb364 O363 2.271 . S
Tb364 O367 2.338 . S
Tb364 O371 2.312 . S
Tb364 O375 2.441 . S
Tb364 O376 2.506 . S
C365 O375 1.244 . S
C365 O376 1.265 . S
O366 Tb361 2.312 . S
O366 C373 1.253 . S
O367 Tb364 2.338 . S
O367 C368 1.258 . S
C368 O367 1.258 . S
C368 O369 1.251 . S
O369 C368 1.251 . S
O370 Tb361 2.271 . S
O370 C362 1.252 . S
O371 C362 1.253 . S
O371 Tb364 2.312 . S
O372 Tb361 2.338 . S
O372 C377 1.258 . S
C373 O363 1.252 . S
C373 O366 1.253 . S
C374 O360 1.265 . S
C374 O379 1.244 . S
O375 Tb364 2.441 . S
O375 C365 1.244 . S
O376 Tb364 2.506 . S
O376 C365 1.265 . S
C377 O372 1.258 . S
C377 O378 1.251 . S
O378 C377 1.251 . S
O379 Tb361 2.441 . S
O379 C374 1.244 . S
O380 Tb381 2.506 . S
O380 C394 1.265 . S
Tb381 O380 2.506 . S
Tb381 O386 2.312 . S
Tb381 O390 2.271 . S
Tb381 O392 2.338 . S
Tb381 O399 2.441 . S
C382 O390 1.252 . S
C382 O391 1.253 . S
O383 Tb384 2.271 . S
O383 C393 1.252 . S
Tb384 O383 2.271 . S
Tb384 O387 2.338 . S
Tb384 O391 2.312 . S
Tb384 O395 2.441 . S
Tb384 O396 2.506 . S
C385 O395 1.244 . S
C385 O396 1.265 . S
O386 Tb381 2.312 . S
O386 C393 1.253 . S
O387 Tb384 2.338 . S
O387 C388 1.258 . S
C388 O387 1.258 . S
C388 O389 1.251 . S
O389 C388 1.251 . S
O390 Tb381 2.271 . S
O390 C382 1.252 . S
O391 C382 1.253 . S
O391 Tb384 2.312 . S
O392 Tb381 2.338 . S
O392 C397 1.258 . S
C393 O383 1.252 . S
C393 O386 1.253 . S
C394 O380 1.265 . S
C394 O399 1.244 . S
O395 Tb384 2.441 . S
O395 C385 1.244 . S
O396 Tb384 2.506 . S
O396 C385 1.265 . S
C397 O392 1.258 . S
C397 O398 1.251 . S
O398 C397 1.251 . S
O399 Tb381 2.441 . S
O399 C394 1.244 . S
O400 Tb401 2.506 . S
O400 C414 1.265 . S
Tb401 O400 2.506 . S
Tb401 O406 2.312 . S
Tb401 O410 2.271 . S
Tb401 O412 2.338 . S
Tb401 O419 2.441 . S
C402 O410 1.252 . S
C402 O411 1.253 . S
O403 Tb404 2.271 . S
O403 C413 1.252 . S
Tb404 O403 2.271 . S
Tb404 O407 2.338 . S
Tb404 O411 2.312 . S
Tb404 O415 2.441 . S
Tb404 O416 2.506 1_565 S
C405 O415 1.244 1_545 S
C405 O416 1.265 . S
O406 Tb401 2.312 . S
O406 C413 1.253 . S
O407 Tb404 2.338 . S
O407 C408 1.258 . S
C408 O407 1.258 . S
C408 O409 1.251 . S
O409 C408 1.251 . S
O410 Tb401 2.271 . S
O410 C402 1.252 . S
O411 C402 1.253 . S
O411 Tb404 2.312 . S
O412 Tb401 2.338 . S
O412 C417 1.258 . S
C413 O403 1.252 . S
C413 O406 1.253 . S
C414 O400 1.265 . S
C414 O419 1.244 . S
O415 Tb404 2.441 . S
O415 C405 1.244 1_565 S
O416 Tb404 2.506 1_545 S
O416 C405 1.265 . S
C417 O412 1.258 . S
C417 O418 1.251 . S
O418 C417 1.251 . S
O419 Tb401 2.441 . S
O419 C414 1.244 . S
O420 Tb421 2.506 . S
O420 C434 1.265 . S
Tb421 O420 2.506 . S
Tb421 O426 2.312 . S
Tb421 O430 2.271 . S
Tb421 O432 2.338 . S
Tb421 O439 2.441 . S
C422 O430 1.252 . S
C422 O431 1.253 . S
O423 Tb424 2.271 . S
O423 C433 1.252 . S
Tb424 O423 2.271 . S
Tb424 O427 2.338 . S
Tb424 O431 2.312 . S
Tb424 O435 2.441 . S
Tb424 O436 2.506 . S
C425 O435 1.244 . S
C425 O436 1.265 . S
O426 Tb421 2.312 . S
O426 C433 1.253 . S
O427 Tb424 2.338 . S
O427 C428 1.258 . S
C428 O427 1.258 . S
C428 O429 1.251 . S
O429 C428 1.251 . S
O430 Tb421 2.271 . S
O430 C422 1.252 . S
O431 C422 1.253 . S
O431 Tb424 2.312 . S
O432 Tb421 2.338 . S
O432 C437 1.258 . S
C433 O423 1.252 . S
C433 O426 1.253 . S
C434 O420 1.265 . S
C434 O439 1.244 . S
O435 Tb424 2.441 . S
O435 C425 1.244 . S
O436 Tb424 2.506 . S
O436 C425 1.265 . S
C437 O432 1.258 . S
C437 O438 1.251 . S
O438 C437 1.251 . S
O439 Tb421 2.441 . S
O439 C434 1.244 . S
O440 Tb441 2.506 . S
O440 C454 1.265 . S
Tb441 O440 2.506 . S
Tb441 O446 2.312 . S
Tb441 O450 2.271 . S
Tb441 O452 2.338 . S
Tb441 O459 2.441 . S
C442 O450 1.252 . S
C442 O451 1.253 . S
O443 Tb444 2.271 . S
O443 C453 1.252 . S
Tb444 O443 2.271 . S
Tb444 O447 2.338 . S
Tb444 O451 2.312 . S
Tb444 O455 2.441 1_565 S
Tb444 O456 2.506 1_565 S
C445 O455 1.244 . S
C445 O456 1.265 . S
O446 Tb441 2.312 . S
O446 C453 1.253 . S
O447 Tb444 2.338 . S
O447 C448 1.258 . S
C448 O447 1.258 . S
C448 O449 1.251 . S
O449 C448 1.251 . S
O450 Tb441 2.271 . S
O450 C442 1.252 . S
O451 C442 1.253 . S
O451 Tb444 2.312 . S
O452 Tb441 2.338 . S
O452 C457 1.258 . S
C453 O443 1.252 . S
C453 O446 1.253 . S
C454 O440 1.265 . S
C454 O459 1.244 . S
O455 Tb444 2.441 1_545 S
O455 C445 1.244 . S
O456 Tb444 2.506 1_545 S
O456 C445 1.265 . S
C457 O452 1.258 . S
C457 O458 1.251 . S
O458 C457 1.251 . S
O459 Tb441 2.441 . S
O459 C454 1.244 . S
O460 Tb461 2.506 . S
O460 C474 1.265 . S
Tb461 O460 2.506 . S
Tb461 O466 2.312 . S
Tb461 O470 2.271 . S
Tb461 O472 2.338 . S
Tb461 O479 2.441 . S
C462 O470 1.252 . S
C462 O471 1.253 . S
O463 Tb464 2.271 . S
O463 C473 1.252 . S
Tb464 O463 2.271 . S
Tb464 O467 2.338 . S
Tb464 O471 2.312 . S
Tb464 O475 2.441 . S
Tb464 O476 2.506 . S
C465 O475 1.244 . S
C465 O476 1.265 . S
O466 Tb461 2.312 . S
O466 C473 1.253 . S
O467 Tb464 2.338 . S
O467 C468 1.258 . S
C468 O467 1.258 . S
C468 O469 1.251 . S
O469 C468 1.251 . S
O470 Tb461 2.271 . S
O470 C462 1.252 . S
O471 C462 1.253 . S
O471 Tb464 2.312 . S
O472 Tb461 2.338 . S
O472 C477 1.258 . S
C473 O463 1.252 . S
C473 O466 1.253 . S
C474 O460 1.265 . S
C474 O479 1.244 . S
O475 Tb464 2.441 . S
O475 C465 1.244 . S
O476 Tb464 2.506 . S
O476 C465 1.265 . S
C477 O472 1.258 . S
C477 O478 1.251 . S
O478 C477 1.251 . S
O479 Tb461 2.441 . S
O479 C474 1.244 . S
C480 C481 1.369 . S
C480 C482 1.419 . S
C480 H484 0.930 . S
C481 C480 1.369 . S
C481 C490 1.429 . S
C482 C480 1.419 . S
C482 C483 1.363 . S
C482 H485 0.929 . S
C483 C482 1.363 . S
C483 C489 1.428 . S
H484 C480 0.930 . S
H485 C482 0.929 . S
S486 N487 1.613 . S
S486 N488 1.610 . S
N487 S486 1.613 . S
N487 C490 1.350 . S
N488 S486 1.610 . S
N488 C489 1.351 . S
C489 C483 1.428 . S
C489 N488 1.351 . S
C489 C490 1.434 . S
C490 C481 1.429 . S
C490 N487 1.350 . S
C490 C489 1.434 . S
C491 C492 1.369 . S
C491 C493 1.419 . S
C491 H495 0.930 . S
C492 C491 1.369 . S
C492 C501 1.429 1_545 S
C493 C491 1.419 . S
C493 C494 1.363 1_545 S
C493 H496 0.929 . S
C494 C493 1.363 1_565 S
C494 C500 1.428 . S
H495 C491 0.930 . S
H496 C493 0.929 . S
S497 N498 1.613 . S
S497 N499 1.610 . S
N498 S497 1.613 . S
N498 C501 1.350 . S
N499 S497 1.610 . S
N499 C500 1.351 . S
C500 C494 1.428 . S
C500 N499 1.351 . S
C500 C501 1.434 . S
C501 C492 1.429 1_565 S
C501 N498 1.350 . S
C501 C500 1.434 . S
C502 C503 1.369 . S
C502 C504 1.419 . S
C502 H506 0.930 1_455 S
C503 C502 1.369 . S
C503 C512 1.429 . S
C504 C502 1.419 . S
C504 C505 1.363 . S
C504 H507 0.929 1_455 S
C505 C504 1.363 . S
C505 C511 1.428 . S
H506 C502 0.930 1_655 S
H507 C504 0.929 1_655 S
S508 N509 1.613 . S
S508 N510 1.610 . S
N509 S508 1.613 . S
N509 C512 1.350 . S
N510 S508 1.610 . S
N510 C511 1.351 . S
C511 C505 1.428 . S
C511 N510 1.351 . S
C511 C512 1.434 . S
C512 C503 1.429 . S
C512 N509 1.350 . S
C512 C511 1.434 . S
C513 C514 1.369 . S
C513 C515 1.419 . S
C513 H517 0.930 . S
C514 C513 1.369 . S
C514 C523 1.429 . S
C515 C513 1.419 . S
C515 C516 1.363 . S
C515 H518 0.929 . S
C516 C515 1.363 . S
C516 C522 1.428 . S
H517 C513 0.930 . S
H518 C515 0.929 . S
S519 N520 1.613 . S
S519 N521 1.610 . S
N520 S519 1.613 . S
N520 C523 1.350 . S
N521 S519 1.610 . S
N521 C522 1.351 . S
C522 C516 1.428 . S
C522 N521 1.351 . S
C522 C523 1.434 . S
C523 C514 1.429 . S
C523 N520 1.350 . S
C523 C522 1.434 . S
C524 C525 1.369 . S
C524 C526 1.419 . S
C524 H528 0.930 . S
C525 C524 1.369 . S
C525 C534 1.429 . S
C526 C524 1.419 . S
C526 C527 1.363 . S
C526 H529 0.929 . S
C527 C526 1.363 . S
C527 C533 1.428 1_545 S
H528 C524 0.930 . S
H529 C526 0.929 . S
S530 N531 1.613 . S
S530 N532 1.610 . S
N531 S530 1.613 . S
N531 C534 1.350 1_565 S
N532 S530 1.610 . S
N532 C533 1.351 . S
C533 C527 1.428 1_565 S
C533 N532 1.351 . S
C533 C534 1.434 1_565 S
C534 C525 1.429 . S
C534 N531 1.350 1_545 S
C534 C533 1.434 1_545 S
C535 C536 1.369 . S
C535 C537 1.419 . S
C535 H539 0.930 . S
C536 C535 1.369 . S
C536 C545 1.429 . S
C537 C535 1.419 . S
C537 C538 1.363 . S
C537 H540 0.929 . S
C538 C537 1.363 . S
C538 C544 1.428 . S
H539 C535 0.930 . S
H540 C537 0.929 . S
S541 N542 1.613 . S
S541 N543 1.610 . S
N542 S541 1.613 . S
N542 C545 1.350 . S
N543 S541 1.610 . S
N543 C544 1.351 . S
C544 C538 1.428 . S
C544 N543 1.351 . S
C544 C545 1.434 . S
C545 C536 1.429 . S
C545 N542 1.350 . S
C545 C544 1.434 . S
C546 C547 1.369 . S
C546 C548 1.419 . S
C546 H550 0.930 . S
C547 C546 1.369 . S
C547 C556 1.429 1_545 S
C548 C546 1.419 . S
C548 C549 1.363 1_545 S
C548 H551 0.929 . S
C549 C548 1.363 1_565 S
C549 C555 1.428 . S
H550 C546 0.930 . S
H551 C548 0.929 . S
S552 N553 1.613 . S
S552 N554 1.610 . S
N553 S552 1.613 . S
N553 C556 1.350 . S
N554 S552 1.610 . S
N554 C555 1.351 . S
C555 C549 1.428 . S
C555 N554 1.351 . S
C555 C556 1.434 . S
C556 C547 1.429 1_565 S
C556 N553 1.350 . S
C556 C555 1.434 . S
C557 C558 1.381 . S
C557 C559 1.411 1_455 S
C557 H561 0.926 1_455 S
C558 C557 1.381 . S
C558 C567 1.429 . S
C559 C557 1.411 1_655 S
C559 C560 1.365 . S
C559 H562 0.929 . S
C560 C559 1.365 . S
C560 C566 1.424 1_655 S
H561 C557 0.926 1_655 S
H562 C559 0.929 . S
S563 N564 1.613 . S
S563 N565 1.610 . S
N564 S563 1.613 . S
N564 C567 1.350 . S
N565 S563 1.610 . S
N565 C566 1.351 . S
C566 C560 1.424 1_455 S
C566 N565 1.351 . S
C566 C567 1.434 . S
C567 C558 1.429 . S
C567 N564 1.350 . S
C567 C566 1.434 . S
C568 C569 1.389 . S
C568 C570 1.419 . S
C568 H572 0.930 . S
C569 C568 1.389 . S
C569 C578 1.416 1_554 S
C570 C568 1.419 . S
C570 C571 1.363 . S
C570 H573 0.929 . S
C571 C570 1.363 . S
C571 C577 1.428 1_554 S
H572 C568 0.930 . S
H573 C570 0.929 . S
S574 N575 1.613 . S
S574 N576 1.610 . S
N575 S574 1.613 . S
N575 C578 1.350 . S
N576 S574 1.610 . S
N576 C577 1.351 . S
C577 C571 1.428 1_556 S
C577 N576 1.351 . S
C577 C578 1.434 . S
C578 C569 1.416 1_556 S
C578 N575 1.350 . S
C578 C577 1.434 . S
C579 C580 1.369 . S
C579 C581 1.419 . S
C579 H583 0.930 . S
C580 C579 1.369 . S
C580 C589 1.429 1_556 S
C581 C579 1.419 . S
C581 C582 1.363 1_556 S
C581 H584 0.929 . S
C582 C581 1.363 1_554 S
C582 C588 1.428 . S
H583 C579 0.930 . S
H584 C581 0.929 . S
S585 N586 1.613 . S
S585 N587 1.610 . S
N586 S585 1.613 . S
N586 C589 1.350 . S
N587 S585 1.610 . S
N587 C588 1.351 . S
C588 C582 1.428 . S
C588 N587 1.351 . S
C588 C589 1.434 . S
C589 C580 1.429 1_554 S
C589 N586 1.350 . S
C589 C588 1.434 . S
C590 C591 1.369 . S
C590 C592 1.419 . S
C590 H594 0.930 . S
C591 C590 1.369 . S
C591 C600 1.429 1_554 S
C592 C590 1.419 . S
C592 C593 1.363 . S
C592 H595 0.929 . S
C593 C592 1.363 . S
C593 C599 1.409 1_554 S
H594 C590 0.930 . S
H595 C592 0.929 . S
S596 N597 1.613 . S
S596 N598 1.610 . S
N597 S596 1.613 . S
N597 C600 1.350 . S
N598 S596 1.610 . S
N598 C599 1.367 . S
C599 C593 1.409 1_556 S
C599 N598 1.367 . S
C599 C600 1.440 . S
C600 C591 1.429 1_556 S
C600 N597 1.350 . S
C600 C599 1.440 . S
C601 C602 1.369 . S
C601 C603 1.419 . S
C601 H605 0.930 . S
C602 C601 1.369 . S
C602 C611 1.429 . S
C603 C601 1.419 . S
C603 C604 1.363 . S
C603 H606 0.929 . S
C604 C603 1.363 . S
C604 C610 1.428 . S
H605 C601 0.930 . S
H606 C603 0.929 . S
S607 N608 1.613 . S
S607 N609 1.610 1_556 S
N608 S607 1.613 . S
N608 C611 1.350 1_556 S
N609 S607 1.610 1_554 S
N609 C610 1.351 . S
C610 C604 1.428 . S
C610 N609 1.351 . S
C610 C611 1.434 . S
C611 C602 1.429 . S
C611 N608 1.350 1_554 S
C611 C610 1.434 . S
C612 C613 1.369 . S
C612 C614 1.419 . S
C612 H616 0.930 . S
C613 C612 1.369 . S
C613 C622 1.429 . S
C614 C612 1.419 . S
C614 C615 1.363 . S
C614 H617 0.929 . S
C615 C614 1.363 . S
C615 C621 1.428 . S
H616 C612 0.930 . S
H617 C614 0.929 . S
S618 N619 1.613 . S
S618 N620 1.610 . S
N619 S618 1.613 . S
N619 C622 1.350 . S
N620 S618 1.610 . S
N620 C621 1.351 . S
C621 C615 1.428 . S
C621 N620 1.351 . S
C621 C622 1.434 . S
C622 C613 1.429 . S
C622 N619 1.350 . S
C622 C621 1.434 . S
C623 C624 1.369 . S
C623 C625 1.419 . S
C623 H627 0.930 . S
C624 C623 1.369 . S
C624 C633 1.429 . S
C625 C623 1.419 . S
C625 C626 1.363 1_554 S
C625 H628 0.936 . S
C626 C625 1.363 1_556 S
C626 C632 1.428 . S
H627 C623 0.930 . S
H628 C625 0.936 . S
S629 N630 1.613 1_556 S
S629 N631 1.610 . S
N630 S629 1.613 1_554 S
N630 C633 1.350 . S
N631 S629 1.610 . S
N631 C632 1.351 . S
C632 C626 1.428 . S
C632 N631 1.351 . S
C632 C633 1.434 1_556 S
C633 C624 1.429 . S
C633 N630 1.350 . S
C633 C632 1.434 1_554 S
C634 C635 1.369 . S
C634 C636 1.419 . S
C634 H638 0.930 . S
C635 C634 1.369 . S
C635 C644 1.429 . S
C636 C634 1.419 . S
C636 C637 1.363 . S
C636 H639 0.929 . S
C637 C636 1.363 . S
C637 C643 1.428 . S
H638 C634 0.930 . S
H639 C636 0.929 . S
S640 N641 1.613 . S
S640 N642 1.610 . S
N641 S640 1.613 . S
N641 C644 1.350 . S
N642 S640 1.610 . S
N642 C643 1.351 . S
C643 C637 1.428 . S
C643 N642 1.351 . S
C643 C644 1.434 . S
C644 C635 1.429 . S
C644 N641 1.350 . S
C644 C643 1.434 . S
C645 C646 1.369 . S
C645 C647 1.419 . S
C645 H649 0.930 . S
C646 C645 1.369 . S
C646 C655 1.429 . S
C647 C645 1.419 . S
C647 C648 1.363 . S
C647 H650 0.929 . S
C648 C647 1.363 . S
C648 C654 1.428 . S
H649 C645 0.930 . S
H650 C647 0.929 . S
S651 N652 1.613 . S
S651 N653 1.610 . S
N652 S651 1.613 . S
N652 C655 1.350 . S
N653 S651 1.610 . S
N653 C654 1.351 . S
C654 C648 1.428 . S
C654 N653 1.351 . S
C654 C655 1.434 . S
C655 C646 1.429 . S
C655 N652 1.350 . S
C655 C654 1.434 . S
C656 C657 1.369 1_455 S
C656 C658 1.419 . S
C656 H660 0.930 . S
C657 C656 1.369 1_655 S
C657 C666 1.429 . S
C658 C656 1.419 . S
C658 C659 1.363 . S
C658 H661 0.929 . S
C659 C658 1.363 . S
C659 C665 1.428 . S
H660 C656 0.930 . S
H661 C658 0.929 . S
S662 N663 1.613 . S
S662 N664 1.610 . S
N663 S662 1.613 . S
N663 C666 1.350 . S
N664 S662 1.610 . S
N664 C665 1.351 1_655 S
C665 C659 1.428 . S
C665 N664 1.351 1_455 S
C665 C666 1.434 1_455 S
C666 C657 1.429 . S
C666 N663 1.350 . S
C666 C665 1.434 1_655 S
C667 C668 1.369 . S
C667 C669 1.419 . S
C667 H671 0.930 . S
C668 C667 1.369 . S
C668 C677 1.429 . S
C669 C667 1.419 . S
C669 C670 1.363 1_545 S
C669 H672 0.929 1_545 S
C670 C669 1.363 1_565 S
C670 C676 1.428 . S
H671 C667 0.930 . S
H672 C669 0.929 1_565 S
S673 N674 1.613 . S
S673 N675 1.610 1_545 S
N674 S673 1.613 . S
N674 C677 1.350 . S
N675 S673 1.610 1_565 S
N675 C676 1.351 . S
C676 C670 1.428 . S
C676 N675 1.351 . S
C676 C677 1.434 1_565 S
C677 C668 1.429 . S
C677 N674 1.350 . S
C677 C676 1.434 1_545 S
C678 C679 1.369 . S
C678 C680 1.419 . S
C678 H682 0.930 . S
C679 C678 1.369 . S
C679 C688 1.429 . S
C680 C678 1.419 . S
C680 C681 1.363 1_655 S
C680 H683 0.929 . S
C681 C680 1.363 1_455 S
C681 C687 1.428 1_455 S
H682 C678 0.930 . S
H683 C680 0.929 . S
S684 N685 1.613 . S
S684 N686 1.610 1_655 S
N685 S684 1.613 . S
N685 C688 1.350 . S
N686 S684 1.610 1_455 S
N686 C687 1.351 1_455 S
C687 C681 1.428 1_655 S
C687 N686 1.351 1_655 S
C687 C688 1.434 . S
C688 C679 1.429 . S
C688 N685 1.350 . S
C688 C687 1.434 . S
C689 C690 1.370 . S
C689 C691 1.417 1_565 S
C689 H693 0.931 . S
C690 C689 1.370 . S
C690 C699 1.429 1_565 S
C691 C689 1.417 1_545 S
C691 C692 1.363 . S
C691 H694 0.929 . S
C692 C691 1.363 . S
C692 C698 1.428 . S
H693 C689 0.931 . S
H694 C691 0.929 . S
S695 N696 1.647 . S
S695 N697 1.610 . S
N696 S695 1.647 . S
N696 C699 1.361 . S
N697 S695 1.610 . S
N697 C698 1.351 . S
C698 C692 1.428 . S
C698 N697 1.351 . S
C698 C699 1.434 . S
C699 C690 1.429 1_545 S
C699 N696 1.361 . S
C699 C698 1.434 . S
C700 C701 1.369 . S
C700 C702 1.419 . S
C700 H704 0.930 . S
C701 C700 1.369 . S
C701 C710 1.429 . S
C702 C700 1.419 . S
C702 C703 1.363 . S
C702 H705 0.929 . S
C703 C702 1.363 . S
C703 C709 1.428 . S
H704 C700 0.930 . S
H705 C702 0.929 . S
S706 N707 1.613 . S
S706 N708 1.610 . S
N707 S706 1.613 . S
N707 C710 1.350 . S
N708 S706 1.610 . S
N708 C709 1.351 . S
C709 C703 1.428 . S
C709 N708 1.351 . S
C709 C710 1.434 . S
C710 C701 1.429 . S
C710 N707 1.350 . S
C710 C709 1.434 . S
C711 C712 1.369 . S
C711 C713 1.419 1_455 S
C711 H715 0.930 . S
C712 C711 1.369 . S
C712 C721 1.429 . S
C713 C711 1.419 1_655 S
C713 C714 1.363 . S
C713 H716 0.929 . S
C714 C713 1.363 . S
C714 C720 1.428 1_655 S
H715 C711 0.930 . S
H716 C713 0.929 . S
S717 N718 1.613 . S
S717 N719 1.635 . S
N718 S717 1.613 . S
N718 C721 1.350 . S
N719 S717 1.635 . S
N719 C720 1.356 . S
C720 C714 1.428 1_455 S
C720 N719 1.356 . S
C720 C721 1.434 . S
C721 C712 1.429 . S
C721 N718 1.350 . S
C721 C720 1.434 . S
C722 C723 1.369 . S
C722 C724 1.419 . S
C722 H726 0.930 . S
C723 C722 1.369 . S
C723 C732 1.429 . S
C724 C722 1.419 . S
C724 C725 1.363 . S
C724 H727 0.929 . S
C725 C724 1.363 . S
C725 C731 1.428 . S
H726 C722 0.930 . S
H727 C724 0.929 . S
S728 N729 1.613 . S
S728 N730 1.610 . S
N729 S728 1.613 . S
N729 C732 1.350 . S
N730 S728 1.610 . S
N730 C731 1.351 . S
C731 C725 1.428 . S
C731 N730 1.351 . S
C731 C732 1.434 . S
C732 C723 1.429 . S
C732 N729 1.350 . S
C732 C731 1.434 . S
C733 C734 1.369 . S
C733 C735 1.419 . S
C733 H737 0.930 . S
C734 C733 1.369 . S
C734 C743 1.429 . S
C735 C733 1.419 . S
C735 C736 1.363 . S
C735 H738 0.929 . S
C736 C735 1.363 . S
C736 C742 1.428 . S
H737 C733 0.930 . S
H738 C735 0.929 . S
S739 N740 1.613 . S
S739 N741 1.593 1_455 S
N740 S739 1.613 . S
N740 C743 1.350 . S
N741 S739 1.593 1_655 S
N741 C742 1.333 1_655 S
C742 C736 1.428 . S
C742 N741 1.333 1_455 S
C742 C743 1.434 . S
C743 C734 1.429 . S
C743 N740 1.350 . S
C743 C742 1.434 . S
C744 C745 1.369 . S
C744 C746 1.419 . S
C744 H748 0.930 . S
C745 C744 1.369 . S
C745 C754 1.429 . S
C746 C744 1.419 . S
C746 C747 1.363 . S
C746 H749 0.929 . S
C747 C746 1.363 . S
C747 C753 1.428 . S
H748 C744 0.930 . S
H749 C746 0.929 . S
S750 N751 1.613 . S
S750 N752 1.610 . S
N751 S750 1.613 . S
N751 C754 1.350 . S
N752 S750 1.610 . S
N752 C753 1.351 . S
C753 C747 1.428 . S
C753 N752 1.351 . S
C753 C754 1.434 . S
C754 C745 1.429 . S
C754 N751 1.350 . S
C754 C753 1.434 . S
C755 C756 1.369 . S
C755 C757 1.419 . S
C755 H759 0.930 . S
C756 C755 1.369 . S
C756 C765 1.429 . S
C757 C755 1.419 . S
C757 C758 1.363 . S
C757 H760 0.929 . S
C758 C757 1.363 . S
C758 C764 1.428 . S
H759 C755 0.930 . S
H760 C757 0.929 . S
S761 N762 1.613 . S
S761 N763 1.610 . S
N762 S761 1.613 . S
N762 C765 1.350 . S
N763 S761 1.610 . S
N763 C764 1.351 . S
C764 C758 1.428 . S
C764 N763 1.351 . S
C764 C765 1.434 . S
C765 C756 1.429 . S
C765 N762 1.350 . S
C765 C764 1.434 . S
C766 C767 1.369 . S
C766 C768 1.419 . S
C766 H770 0.930 1_655 S
C767 C766 1.369 . S
C767 C776 1.429 . S
C768 C766 1.419 . S
C768 C769 1.363 . S
C768 H771 0.929 . S
C769 C768 1.363 . S
C769 C775 1.428 . S
H770 C766 0.930 1_455 S
H771 C768 0.929 . S
S772 N773 1.613 . S
S772 N774 1.610 . S
N773 S772 1.613 . S
N773 C776 1.350 . S
N774 S772 1.610 . S
N774 C775 1.351 . S
C775 C769 1.428 . S
C775 N774 1.351 . S
C775 C776 1.434 . S
C776 C767 1.429 . S
C776 N773 1.350 . S
C776 C775 1.434 . S
C777 C778 1.369 . S
C777 C779 1.419 . S
C777 H781 0.930 1_565 S
C778 C777 1.369 . S
C778 C787 1.429 . S
C779 C777 1.419 . S
C779 C780 1.363 . S
C779 H782 0.929 . S
C780 C779 1.363 . S
C780 C786 1.428 . S
H781 C777 0.930 1_545 S
H782 C779 0.929 . S
S783 N784 1.613 . S
S783 N785 1.610 . S
N784 S783 1.613 . S
N784 C787 1.350 . S
N785 S783 1.610 . S
N785 C786 1.351 . S
C786 C780 1.428 . S
C786 N785 1.351 . S
C786 C787 1.434 . S
C787 C778 1.429 . S
C787 N784 1.350 . S
C787 C786 1.434 . S
C788 C789 1.369 . S
C788 C790 1.419 . S
C788 H792 0.930 . S
C789 C788 1.369 . S
C789 C798 1.429 . S
C790 C788 1.419 . S
C790 C791 1.363 . S
C790 H793 0.929 . S
C791 C790 1.363 . S
C791 C797 1.428 . S
H792 C788 0.930 . S
H793 C790 0.929 . S
S794 N795 1.613 . S
S794 N796 1.610 . S
N795 S794 1.613 . S
N795 C798 1.350 . S
N796 S794 1.610 . S
N796 C797 1.351 . S
C797 C791 1.428 . S
C797 N796 1.351 . S
C797 C798 1.434 . S
C798 C789 1.429 . S
C798 N795 1.350 . S
C798 C797 1.434 . S
C799 C800 1.369 . S
C799 C801 1.419 . S
C799 H803 0.930 . S
C800 C799 1.369 . S
C800 C809 1.429 . S
C801 C799 1.419 . S
C801 C802 1.363 . S
C801 H804 0.929 . S
C802 C801 1.363 . S
C802 C808 1.428 . S
H803 C799 0.930 . S
H804 C801 0.929 . S
S805 N806 1.613 . S
S805 N807 1.610 . S
N806 S805 1.613 . S
N806 C809 1.350 . S
N807 S805 1.610 . S
N807 C808 1.351 . S
C808 C802 1.428 . S
C808 N807 1.351 . S
C808 C809 1.434 . S
C809 C800 1.429 . S
C809 N806 1.350 . S
C809 C808 1.434 . S
C810 C811 1.369 . S
C810 C812 1.419 . S
C810 H814 0.930 . S
C811 C810 1.369 . S
C811 C820 1.429 . S
C812 C810 1.419 . S
C812 C813 1.363 . S
C812 H815 0.929 . S
C813 C812 1.363 . S
C813 C819 1.428 . S
H814 C810 0.930 . S
H815 C812 0.929 . S
S816 N817 1.613 . S
S816 N818 1.610 . S
N817 S816 1.613 . S
N817 C820 1.350 . S
N818 S816 1.610 . S
N818 C819 1.351 . S
C819 C813 1.428 . S
C819 N818 1.351 . S
C819 C820 1.434 . S
C820 C811 1.429 . S
C820 N817 1.350 . S
C820 C819 1.434 . S
C821 C822 1.369 . S
C821 C823 1.419 . S
C821 H825 0.930 . S
C822 C821 1.369 . S
C822 C831 1.429 . S
C823 C821 1.419 . S
C823 C824 1.363 . S
C823 H826 0.929 . S
C824 C823 1.363 . S
C824 C830 1.428 . S
H825 C821 0.930 . S
H826 C823 0.929 . S
S827 N828 1.613 . S
S827 N829 1.610 . S
N828 S827 1.613 . S
N828 C831 1.350 . S
N829 S827 1.610 . S
N829 C830 1.351 . S
C830 C824 1.428 . S
C830 N829 1.351 . S
C830 C831 1.434 . S
C831 C822 1.429 . S
C831 N828 1.350 . S
C831 C830 1.434 . S
C832 C833 1.369 . S
C832 C834 1.419 . S
C832 H836 0.930 . S
C833 C832 1.369 . S
C833 C842 1.429 . S
C834 C832 1.419 . S
C834 C835 1.363 . S
C834 H837 0.929 . S
C835 C834 1.363 . S
C835 C841 1.428 . S
H836 C832 0.930 . S
H837 C834 0.929 . S
S838 N839 1.613 . S
S838 N840 1.610 . S
N839 S838 1.613 . S
N839 C842 1.350 . S
N840 S838 1.610 . S
N840 C841 1.351 . S
C841 C835 1.428 . S
C841 N840 1.351 . S
C841 C842 1.434 . S
C842 C833 1.429 . S
C842 N839 1.350 . S
C842 C841 1.434 . S
C843 C844 1.369 . S
C843 C845 1.419 . S
C843 H847 0.930 . S
C844 C843 1.369 . S
C844 C853 1.429 . S
C845 C843 1.419 . S
C845 C846 1.363 . S
C845 H848 0.929 . S
C846 C845 1.363 . S
C846 C852 1.428 . S
H847 C843 0.930 . S
H848 C845 0.929 . S
S849 N850 1.613 . S
S849 N851 1.610 . S
N850 S849 1.613 . S
N850 C853 1.350 . S
N851 S849 1.610 . S
N851 C852 1.351 . S
C852 C846 1.428 . S
C852 N851 1.351 . S
C852 C853 1.434 . S
C853 C844 1.429 . S
C853 N850 1.350 . S
C853 C852 1.434 . S
C854 C855 1.369 . S
C854 C856 1.419 . S
C854 H858 0.930 . S
C855 C854 1.369 . S
C855 C864 1.429 . S
C856 C854 1.419 . S
C856 C857 1.363 . S
C856 H859 0.929 . S
C857 C856 1.363 . S
C857 C863 1.428 . S
H858 C854 0.930 . S
H859 C856 0.929 . S
S860 N861 1.613 . S
S860 N862 1.610 . S
N861 S860 1.613 . S
N861 C864 1.350 . S
N862 S860 1.610 . S
N862 C863 1.351 . S
C863 C857 1.428 . S
C863 N862 1.351 . S
C863 C864 1.434 . S
C864 C855 1.429 . S
C864 N861 1.350 . S
C864 C863 1.434 . S
C865 C866 1.369 . S
C865 C867 1.419 . S
C865 H869 0.930 . S
C866 C865 1.369 . S
C866 C875 1.429 . S
C867 C865 1.419 . S
C867 C868 1.363 . S
C867 H870 0.929 . S
C868 C867 1.363 . S
C868 C874 1.428 . S
H869 C865 0.930 . S
H870 C867 0.929 . S
S871 N872 1.613 . S
S871 N873 1.610 . S
N872 S871 1.613 . S
N872 C875 1.350 . S
N873 S871 1.610 . S
N873 C874 1.351 . S
C874 C868 1.428 . S
C874 N873 1.351 . S
C874 C875 1.434 . S
C875 C866 1.429 . S
C875 N872 1.350 . S
C875 C874 1.434 . S
C876 C877 1.369 . S
C876 C878 1.419 . S
C876 H880 0.930 . S
C877 C876 1.369 . S
C877 C886 1.429 . S
C878 C876 1.419 . S
C878 C879 1.363 . S
C878 H881 0.929 . S
C879 C878 1.363 . S
C879 C885 1.428 . S
H880 C876 0.930 . S
H881 C878 0.929 . S
S882 N883 1.613 . S
S882 N884 1.610 . S
N883 S882 1.613 . S
N883 C886 1.350 . S
N884 S882 1.610 . S
N884 C885 1.351 . S
C885 C879 1.428 . S
C885 N884 1.351 . S
C885 C886 1.434 . S
C886 C877 1.429 . S
C886 N883 1.350 . S
C886 C885 1.434 . S
C887 C888 1.369 . S
C887 C889 1.419 . S
C887 H891 0.930 . S
C888 C887 1.369 . S
C888 C897 1.429 . S
C889 C887 1.419 . S
C889 C890 1.363 . S
C889 H892 0.929 . S
C890 C889 1.363 . S
C890 C896 1.428 . S
H891 C887 0.930 . S
H892 C889 0.929 . S
S893 N894 1.613 . S
S893 N895 1.610 . S
N894 S893 1.613 . S
N894 C897 1.350 . S
N895 S893 1.610 . S
N895 C896 1.351 . S
C896 C890 1.428 . S
C896 N895 1.351 . S
C896 C897 1.434 . S
C897 C888 1.429 . S
C897 N894 1.350 . S
C897 C896 1.434 . S
C898 C899 1.369 . S
C898 C900 1.419 . S
C898 H902 0.930 . S
C899 C898 1.369 . S
C899 C908 1.429 . S
C900 C898 1.419 . S
C900 C901 1.363 . S
C900 H903 0.929 . S
C901 C900 1.363 . S
C901 C907 1.428 . S
H902 C898 0.930 . S
H903 C900 0.929 . S
S904 N905 1.613 . S
S904 N906 1.610 . S
N905 S904 1.613 . S
N905 C908 1.350 . S
N906 S904 1.610 . S
N906 C907 1.351 . S
C907 C901 1.428 . S
C907 N906 1.351 . S
C907 C908 1.434 . S
C908 C899 1.429 . S
C908 N905 1.350 . S
C908 C907 1.434 . S
C909 C910 1.369 . S
C909 C911 1.419 . S
C909 H913 0.930 . S
C910 C909 1.369 . S
C910 C919 1.429 . S
C911 C909 1.419 . S
C911 C912 1.363 . S
C911 H914 0.929 . S
C912 C911 1.363 . S
C912 C918 1.428 . S
H913 C909 0.930 . S
H914 C911 0.929 . S
S915 N916 1.613 . S
S915 N917 1.610 . S
N916 S915 1.613 . S
N916 C919 1.350 . S
N917 S915 1.610 . S
N917 C918 1.351 . S
C918 C912 1.428 . S
C918 N917 1.351 . S
C918 C919 1.434 . S
C919 C910 1.429 . S
C919 N916 1.350 . S
C919 C918 1.434 . S
C920 C921 1.369 . S
C920 C922 1.419 . S
C920 H924 0.930 . S
C921 C920 1.369 . S
C921 C930 1.429 . S
C922 C920 1.419 . S
C922 C923 1.363 . S
C922 H925 0.929 . S
C923 C922 1.363 . S
C923 C929 1.428 . S
H924 C920 0.930 . S
H925 C922 0.929 . S
S926 N927 1.613 . S
S926 N928 1.610 . S
N927 S926 1.613 . S
N927 C930 1.350 . S
N928 S926 1.610 . S
N928 C929 1.351 . S
C929 C923 1.428 . S
C929 N928 1.351 . S
C929 C930 1.434 . S
C930 C921 1.429 . S
C930 N927 1.350 . S
C930 C929 1.434 . S
C931 C932 1.369 . S
C931 C933 1.419 . S
C931 H935 0.930 . S
C932 C931 1.369 . S
C932 C941 1.429 . S
C933 C931 1.419 . S
C933 C934 1.363 . S
C933 H936 0.929 . S
C934 C933 1.363 . S
C934 C940 1.428 . S
H935 C931 0.930 . S
H936 C933 0.929 . S
S937 N938 1.613 . S
S937 N939 1.610 . S
N938 S937 1.613 . S
N938 C941 1.350 . S
N939 S937 1.610 . S
N939 C940 1.351 . S
C940 C934 1.428 . S
C940 N939 1.351 . S
C940 C941 1.434 . S
C941 C932 1.429 . S
C941 N938 1.350 . S
C941 C940 1.434 . S
C942 C943 1.369 . S
C942 C944 1.419 . S
C942 H946 0.930 . S
C943 C942 1.369 . S
C943 C952 1.429 . S
C944 C942 1.419 . S
C944 C945 1.363 . S
C944 H947 0.929 . S
C945 C944 1.363 . S
C945 C951 1.428 . S
H946 C942 0.930 . S
H947 C944 0.929 . S
S948 N949 1.613 . S
S948 N950 1.610 . S
N949 S948 1.613 . S
N949 C952 1.350 . S
N950 S948 1.610 . S
N950 C951 1.351 . S
C951 C945 1.428 . S
C951 N950 1.351 . S
C951 C952 1.434 . S
C952 C943 1.429 . S
C952 N949 1.350 . S
C952 C951 1.434 . S
C953 C954 1.369 . S
C953 C955 1.419 . S
C953 H957 0.930 . S
C954 C953 1.369 . S
C954 C963 1.429 . S
C955 C953 1.419 . S
C955 C956 1.363 . S
C955 H958 0.929 . S
C956 C955 1.363 . S
C956 C962 1.428 . S
H957 C953 0.930 . S
H958 C955 0.929 . S
S959 N960 1.613 . S
S959 N961 1.610 . S
N960 S959 1.613 . S
N960 C963 1.350 . S
N961 S959 1.610 . S
N961 C962 1.351 . S
C962 C956 1.428 . S
C962 N961 1.351 . S
C962 C963 1.434 . S
C963 C954 1.429 . S
C963 N960 1.350 . S
C963 C962 1.434 . S
C964 C965 1.369 . S
C964 C966 1.419 . S
C964 H968 0.930 1_556 S
C965 C964 1.369 . S
C965 C974 1.429 . S
C966 C964 1.419 . S
C966 C967 1.363 . S
C966 H969 0.929 . S
C967 C966 1.363 . S
C967 C973 1.428 . S
H968 C964 0.930 1_554 S
H969 C966 0.929 . S
S970 N971 1.613 . S
S970 N972 1.610 . S
N971 S970 1.613 . S
N971 C974 1.350 . S
N972 S970 1.610 . S
N972 C973 1.351 . S
C973 C967 1.428 . S
C973 N972 1.351 . S
C973 C974 1.434 . S
C974 C965 1.429 . S
C974 N971 1.350 . S
C974 C973 1.434 . S
C975 C976 1.369 . S
C975 C977 1.419 . S
C975 H979 0.930 . S
C976 C975 1.369 . S
C976 C985 1.429 . S
C977 C975 1.419 . S
C977 C978 1.363 . S
C977 H980 0.929 . S
C978 C977 1.363 . S
C978 C984 1.428 . S
H979 C975 0.930 . S
H980 C977 0.929 . S
S981 N982 1.613 . S
S981 N983 1.610 . S
N982 S981 1.613 . S
N982 C985 1.350 . S
N983 S981 1.610 . S
N983 C984 1.351 . S
C984 C978 1.428 . S
C984 N983 1.351 . S
C984 C985 1.434 . S
C985 C976 1.429 . S
C985 N982 1.350 . S
C985 C984 1.434 . S
C986 C987 1.369 . S
C986 C988 1.419 . S
C986 H990 0.930 . S
C987 C986 1.369 . S
C987 C996 1.429 . S
C988 C986 1.419 . S
C988 C989 1.363 . S
C988 H991 0.929 . S
C989 C988 1.363 . S
C989 C995 1.428 . S
H990 C986 0.930 . S
H991 C988 0.929 . S
S992 N993 1.613 . S
S992 N994 1.610 . S
N993 S992 1.613 . S
N993 C996 1.350 . S
N994 S992 1.610 . S
N994 C995 1.351 . S
C995 C989 1.428 . S
C995 N994 1.351 . S
C995 C996 1.434 . S
C996 C987 1.429 . S
C996 N993 1.350 . S
C996 C995 1.434 . S
C997 C998 1.369 . S
C997 C999 1.419 . S
C997 H1001 0.930 . S
C998 C997 1.369 . S
C998 C1007 1.429 . S
C999 C997 1.419 . S
C999 C1000 1.363 . S
C999 H1002 0.929 . S
C1000 C999 1.363 . S
C1000 C1006 1.428 . S
H1001 C997 0.930 . S
H1002 C999 0.929 . S
S1003 N1004 1.613 . S
S1003 N1005 1.610 . S
N1004 S1003 1.613 . S
N1004 C1007 1.350 . S
N1005 S1003 1.610 . S
N1005 C1006 1.351 . S
C1006 C1000 1.428 . S
C1006 N1005 1.351 . S
C1006 C1007 1.434 . S
C1007 C998 1.429 . S
C1007 N1004 1.350 . S
C1007 C1006 1.434 . S
C1008 C1009 1.369 . S
C1008 C1010 1.419 . S
C1008 H1012 0.930 . S
C1009 C1008 1.369 . S
C1009 C1018 1.429 . S
C1010 C1008 1.419 . S
C1010 C1011 1.363 . S
C1010 H1013 0.929 . S
C1011 C1010 1.363 . S
C1011 C1017 1.428 . S
H1012 C1008 0.930 . S
H1013 C1010 0.929 . S
S1014 N1015 1.613 . S
S1014 N1016 1.610 . S
N1015 S1014 1.613 . S
N1015 C1018 1.350 . S
N1016 S1014 1.610 . S
N1016 C1017 1.351 . S
C1017 C1011 1.428 . S
C1017 N1016 1.351 . S
C1017 C1018 1.434 . S
C1018 C1009 1.429 . S
C1018 N1015 1.350 . S
C1018 C1017 1.434 . S
C1019 C1020 1.369 . S
C1019 C1021 1.419 . S
C1019 H1023 0.930 . S
C1020 C1019 1.369 . S
C1020 C1029 1.429 1_565 S
C1021 C1019 1.419 . S
C1021 C1022 1.363 . S
C1021 H1024 0.929 . S
C1022 C1021 1.363 . S
C1022 C1028 1.428 1_565 S
H1023 C1019 0.930 . S
H1024 C1021 0.929 . S
S1025 N1026 1.613 . S
S1025 N1027 1.610 . S
N1026 S1025 1.613 . S
N1026 C1029 1.350 . S
N1027 S1025 1.610 . S
N1027 C1028 1.351 . S
C1028 C1022 1.428 1_545 S
C1028 N1027 1.351 . S
C1028 C1029 1.434 . S
C1029 C1020 1.429 1_545 S
C1029 N1026 1.350 . S
C1029 C1028 1.434 . S
C1030 C1031 1.369 . S
C1030 C1032 1.419 . S
C1030 H1034 0.930 . S
C1031 C1030 1.369 . S
C1031 C1040 1.429 . S
C1032 C1030 1.419 . S
C1032 C1033 1.363 . S
C1032 H1035 0.929 . S
C1033 C1032 1.363 . S
C1033 C1039 1.428 . S
H1034 C1030 0.930 . S
H1035 C1032 0.929 . S
S1036 N1037 1.613 . S
S1036 N1038 1.610 . S
N1037 S1036 1.613 . S
N1037 C1040 1.350 . S
N1038 S1036 1.610 . S
N1038 C1039 1.351 . S
C1039 C1033 1.428 . S
C1039 N1038 1.351 . S
C1039 C1040 1.434 . S
C1040 C1031 1.429 . S
C1040 N1037 1.350 . S
C1040 C1039 1.434 . S
C1041 C1042 1.369 . S
C1041 C1043 1.419 . S
C1041 H1045 0.930 . S
C1042 C1041 1.369 . S
C1042 C1051 1.429 . S
C1043 C1041 1.419 . S
C1043 C1044 1.363 . S
C1043 H1046 0.929 . S
C1044 C1043 1.363 . S
C1044 C1050 1.428 . S
H1045 C1041 0.930 . S
H1046 C1043 0.929 . S
S1047 N1048 1.613 . S
S1047 N1049 1.610 . S
N1048 S1047 1.613 . S
N1048 C1051 1.350 . S
N1049 S1047 1.610 . S
N1049 C1050 1.351 . S
C1050 C1044 1.428 . S
C1050 N1049 1.351 . S
C1050 C1051 1.434 . S
C1051 C1042 1.429 . S
C1051 N1048 1.350 . S
C1051 C1050 1.434 . S
C1052 C1053 1.369 . S
C1052 C1054 1.419 . S
C1052 H1056 0.930 . S
C1053 C1052 1.369 . S
C1053 C1062 1.429 . S
C1054 C1052 1.419 . S
C1054 C1055 1.363 . S
C1054 H1057 0.929 . S
C1055 C1054 1.363 . S
C1055 C1061 1.428 . S
H1056 C1052 0.930 . S
H1057 C1054 0.929 . S
S1058 N1059 1.613 1_455 S
S1058 N1060 1.610 . S
N1059 S1058 1.613 1_655 S
N1059 C1062 1.350 . S
N1060 S1058 1.610 . S
N1060 C1061 1.351 1_455 S
C1061 C1055 1.428 . S
C1061 N1060 1.351 1_655 S
C1061 C1062 1.434 . S
C1062 C1053 1.429 . S
C1062 N1059 1.350 . S
C1062 C1061 1.434 . S
C1063 C1064 1.369 . S
C1063 C1065 1.419 . S
C1063 H1067 0.930 . S
C1064 C1063 1.369 . S
C1064 C1073 1.429 . S
C1065 C1063 1.419 . S
C1065 C1066 1.363 . S
C1065 H1068 0.929 . S
C1066 C1065 1.363 . S
C1066 C1072 1.428 . S
H1067 C1063 0.930 . S
H1068 C1065 0.929 . S
S1069 N1070 1.613 . S
S1069 N1071 1.610 . S
N1070 S1069 1.613 . S
N1070 C1073 1.350 . S
N1071 S1069 1.610 . S
N1071 C1072 1.351 . S
C1072 C1066 1.428 . S
C1072 N1071 1.351 . S
C1072 C1073 1.434 . S
C1073 C1064 1.429 . S
C1073 N1070 1.350 . S
C1073 C1072 1.434 . S
C1074 C1075 1.369 . S
C1074 C1076 1.419 . S
C1074 H1078 0.930 . S
C1075 C1074 1.369 . S
C1075 C1084 1.429 . S
C1076 C1074 1.419 . S
C1076 C1077 1.363 . S
C1076 H1079 0.929 . S
C1077 C1076 1.363 . S
C1077 C1083 1.428 . S
H1078 C1074 0.930 . S
H1079 C1076 0.929 . S
S1080 N1081 1.613 . S
S1080 N1082 1.610 . S
N1081 S1080 1.613 . S
N1081 C1084 1.350 . S
N1082 S1080 1.610 . S
N1082 C1083 1.351 . S
C1083 C1077 1.428 . S
C1083 N1082 1.351 . S
C1083 C1084 1.434 . S
C1084 C1075 1.429 . S
C1084 N1081 1.350 . S
C1084 C1083 1.434 . S
C1085 C1086 1.369 . S
C1085 C1087 1.419 . S
C1085 H1089 0.930 . S
C1086 C1085 1.369 . S
C1086 C1095 1.429 . S
C1087 C1085 1.419 . S
C1087 C1088 1.363 . S
C1087 H1090 0.929 . S
C1088 C1087 1.363 . S
C1088 C1094 1.428 . S
H1089 C1085 0.930 . S
H1090 C1087 0.929 . S
S1091 N1092 1.613 . S
S1091 N1093 1.610 . S
N1092 S1091 1.613 . S
N1092 C1095 1.350 . S
N1093 S1091 1.610 . S
N1093 C1094 1.351 . S
C1094 C1088 1.428 . S
C1094 N1093 1.351 . S
C1094 C1095 1.434 . S
C1095 C1086 1.429 . S
C1095 N1092 1.350 . S
C1095 C1094 1.434 . S
C1096 C1097 1.369 . S
C1096 C1098 1.419 . S
C1096 H1100 0.930 . S
C1097 C1096 1.369 . S
C1097 C1106 1.429 . S
C1098 C1096 1.419 . S
C1098 C1099 1.363 . S
C1098 H1101 0.929 . S
C1099 C1098 1.363 . S
C1099 C1105 1.428 . S
H1100 C1096 0.930 . S
H1101 C1098 0.929 . S
S1102 N1103 1.613 . S
S1102 N1104 1.610 . S
N1103 S1102 1.613 . S
N1103 C1106 1.350 . S
N1104 S1102 1.610 . S
N1104 C1105 1.351 . S
C1105 C1099 1.428 . S
C1105 N1104 1.351 . S
C1105 C1106 1.434 . S
C1106 C1097 1.429 . S
C1106 N1103 1.350 . S
C1106 C1105 1.434 . S
C1107 C1108 1.369 . S
C1107 C1109 1.419 . S
C1107 H1111 0.930 . S
C1108 C1107 1.369 . S
C1108 C1117 1.429 . S
C1109 C1107 1.419 . S
C1109 C1110 1.363 . S
C1109 H1112 0.929 . S
C1110 C1109 1.363 . S
C1110 C1116 1.428 . S
H1111 C1107 0.930 . S
H1112 C1109 0.929 . S
S1113 N1114 1.613 . S
S1113 N1115 1.610 . S
N1114 S1113 1.613 . S
N1114 C1117 1.350 . S
N1115 S1113 1.610 . S
N1115 C1116 1.351 . S
C1116 C1110 1.428 . S
C1116 N1115 1.351 . S
C1116 C1117 1.434 . S
C1117 C1108 1.429 . S
C1117 N1114 1.350 . S
C1117 C1116 1.434 . S
C1118 C1119 1.369 . S
C1118 C1120 1.419 . S
C1118 H1122 0.930 . S
C1119 C1118 1.369 . S
C1119 C1128 1.429 . S
C1120 C1118 1.419 . S
C1120 C1121 1.363 . S
C1120 H1123 0.929 . S
C1121 C1120 1.363 . S
C1121 C1127 1.428 . S
H1122 C1118 0.930 . S
H1123 C1120 0.929 . S
S1124 N1125 1.613 . S
S1124 N1126 1.610 . S
N1125 S1124 1.613 . S
N1125 C1128 1.350 . S
N1126 S1124 1.610 . S
N1126 C1127 1.351 . S
C1127 C1121 1.428 . S
C1127 N1126 1.351 . S
C1127 C1128 1.434 . S
C1128 C1119 1.429 . S
C1128 N1125 1.350 . S
C1128 C1127 1.434 . S
C1129 C1130 1.369 . S
C1129 C1131 1.419 . S
C1129 H1133 0.930 . S
C1130 C1129 1.369 . S
C1130 C1139 1.429 . S
C1131 C1129 1.419 . S
C1131 C1132 1.363 . S
C1131 H1134 0.929 . S
C1132 C1131 1.363 . S
C1132 C1138 1.428 . S
H1133 C1129 0.930 . S
H1134 C1131 0.929 . S
S1135 N1136 1.613 1_455 S
S1135 N1137 1.610 . S
N1136 S1135 1.613 1_655 S
N1136 C1139 1.350 . S
N1137 S1135 1.610 . S
N1137 C1138 1.351 1_455 S
C1138 C1132 1.428 . S
C1138 N1137 1.351 1_655 S
C1138 C1139 1.434 . S
C1139 C1130 1.429 . S
C1139 N1136 1.350 . S
C1139 C1138 1.434 . S
C1140 C1141 1.369 . S
C1140 C1142 1.419 . S
C1140 H1144 0.930 . S
C1141 C1140 1.369 . S
C1141 C1150 1.429 . S
C1142 C1140 1.419 . S
C1142 C1143 1.363 . S
C1142 H1145 0.929 . S
C1143 C1142 1.363 . S
C1143 C1149 1.428 . S
H1144 C1140 0.930 . S
H1145 C1142 0.929 . S
S1146 N1147 1.613 . S
S1146 N1148 1.610 . S
N1147 S1146 1.613 . S
N1147 C1150 1.350 . S
N1148 S1146 1.610 . S
N1148 C1149 1.351 . S
C1149 C1143 1.428 . S
C1149 N1148 1.351 . S
C1149 C1150 1.434 . S
C1150 C1141 1.429 . S
C1150 N1147 1.350 . S
C1150 C1149 1.434 . S
C1151 C1152 1.369 . S
C1151 C1153 1.419 . S
C1151 H1155 0.930 . S
C1152 C1151 1.369 . S
C1152 C1161 1.429 . S
C1153 C1151 1.419 . S
C1153 C1154 1.363 . S
C1153 H1156 0.929 . S
C1154 C1153 1.363 . S
C1154 C1160 1.428 . S
H1155 C1151 0.930 . S
H1156 C1153 0.929 . S
S1157 N1158 1.619 . S
S1157 N1159 1.610 . S
N1158 S1157 1.619 . S
N1158 C1161 1.378 . S
N1159 S1157 1.610 . S
N1159 C1160 1.351 . S
C1160 C1154 1.428 . S
C1160 N1159 1.351 . S
C1160 C1161 1.434 . S
C1161 C1152 1.429 . S
C1161 N1158 1.378 . S
C1161 C1160 1.434 . S
C1162 C1163 1.369 . S
C1162 C1164 1.419 . S
C1162 H1166 0.930 . S
C1163 C1162 1.369 . S
C1163 C1172 1.429 . S
C1164 C1162 1.419 . S
C1164 C1165 1.363 . S
C1164 H1167 0.929 . S
C1165 C1164 1.363 . S
C1165 C1171 1.428 . S
H1166 C1162 0.930 . S
H1167 C1164 0.929 . S
S1168 N1169 1.613 . S
S1168 N1170 1.610 . S
N1169 S1168 1.613 . S
N1169 C1172 1.350 . S
N1170 S1168 1.610 . S
N1170 C1171 1.351 . S
C1171 C1165 1.428 . S
C1171 N1170 1.351 . S
C1171 C1172 1.434 . S
C1172 C1163 1.429 . S
C1172 N1169 1.350 . S
C1172 C1171 1.434 . S
C1173 C1174 1.369 . S
C1173 C1175 1.419 . S
C1173 H1177 0.930 . S
C1174 C1173 1.369 . S
C1174 C1183 1.429 . S
C1175 C1173 1.419 . S
C1175 C1176 1.363 . S
C1175 H1178 0.929 . S
C1176 C1175 1.363 . S
C1176 C1182 1.428 . S
H1177 C1173 0.930 . S
H1178 C1175 0.929 . S
S1179 N1180 1.613 . S
S1179 N1181 1.610 . S
N1180 S1179 1.613 . S
N1180 C1183 1.350 . S
N1181 S1179 1.610 . S
N1181 C1182 1.351 . S
C1182 C1176 1.428 . S
C1182 N1181 1.351 . S
C1182 C1183 1.434 . S
C1183 C1174 1.429 . S
C1183 N1180 1.350 . S
C1183 C1182 1.434 . S
C1184 C1185 1.369 . S
C1184 C1186 1.419 . S
C1184 H1188 0.930 . S
C1185 C1184 1.369 . S
C1185 C1194 1.429 . S
C1186 C1184 1.419 . S
C1186 C1187 1.363 . S
C1186 H1189 0.929 . S
C1187 C1186 1.363 . S
C1187 C1193 1.428 . S
H1188 C1184 0.930 . S
H1189 C1186 0.929 . S
S1190 N1191 1.613 . S
S1190 N1192 1.610 . S
N1191 S1190 1.613 . S
N1191 C1194 1.350 . S
N1192 S1190 1.610 . S
N1192 C1193 1.351 . S
C1193 C1187 1.428 . S
C1193 N1192 1.351 . S
C1193 C1194 1.434 . S
C1194 C1185 1.429 . S
C1194 N1191 1.350 . S
C1194 C1193 1.434 . S
C1195 C1196 1.369 . S
C1195 C1197 1.419 . S
C1195 H1199 0.930 . S
C1196 C1195 1.369 . S
C1196 C1205 1.429 . S
C1197 C1195 1.419 . S
C1197 C1198 1.363 . S
C1197 H1200 0.929 . S
C1198 C1197 1.363 . S
C1198 C1204 1.428 . S
H1199 C1195 0.930 . S
H1200 C1197 0.929 . S
S1201 N1202 1.613 . S
S1201 N1203 1.610 . S
N1202 S1201 1.613 . S
N1202 C1205 1.350 . S
N1203 S1201 1.610 . S
N1203 C1204 1.351 . S
C1204 C1198 1.428 . S
C1204 N1203 1.351 . S
C1204 C1205 1.434 . S
C1205 C1196 1.429 . S
C1205 N1202 1.350 . S
C1205 C1204 1.434 . S
C1206 C1207 1.369 . S
C1206 C1208 1.419 . S
C1206 H1210 0.930 . S
C1207 C1206 1.369 . S
C1207 C1216 1.429 . S
C1208 C1206 1.419 . S
C1208 C1209 1.363 . S
C1208 H1211 0.929 . S
C1209 C1208 1.363 . S
C1209 C1215 1.428 . S
H1210 C1206 0.930 . S
H1211 C1208 0.929 . S
S1212 N1213 1.613 . S
S1212 N1214 1.610 . S
N1213 S1212 1.613 . S
N1213 C1216 1.350 . S
N1214 S1212 1.610 . S
N1214 C1215 1.351 . S
C1215 C1209 1.428 . S
C1215 N1214 1.351 . S
C1215 C1216 1.434 . S
C1216 C1207 1.429 . S
C1216 N1213 1.350 . S
C1216 C1215 1.434 . S
C1217 C1218 1.369 . S
C1217 C1219 1.419 . S
C1217 H1221 0.930 . S
C1218 C1217 1.369 . S
C1218 C1227 1.429 . S
C1219 C1217 1.419 . S
C1219 C1220 1.363 . S
C1219 H1222 0.929 . S
C1220 C1219 1.363 . S
C1220 C1226 1.428 . S
H1221 C1217 0.930 . S
H1222 C1219 0.929 . S
S1223 N1224 1.613 . S
S1223 N1225 1.610 . S
N1224 S1223 1.613 . S
N1224 C1227 1.350 . S
N1225 S1223 1.610 . S
N1225 C1226 1.351 . S
C1226 C1220 1.428 . S
C1226 N1225 1.351 . S
C1226 C1227 1.434 . S
C1227 C1218 1.429 . S
C1227 N1224 1.350 . S
C1227 C1226 1.434 . S
C1228 C1229 1.369 . S
C1228 C1230 1.419 . S
C1228 H1232 0.930 . S
C1229 C1228 1.369 . S
C1229 C1238 1.429 . S
C1230 C1228 1.419 . S
C1230 C1231 1.363 . S
C1230 H1233 0.929 . S
C1231 C1230 1.363 . S
C1231 C1237 1.428 . S
H1232 C1228 0.930 . S
H1233 C1230 0.929 . S
S1234 N1235 1.613 . S
S1234 N1236 1.610 . S
N1235 S1234 1.613 . S
N1235 C1238 1.350 . S
N1236 S1234 1.610 . S
N1236 C1237 1.351 . S
C1237 C1231 1.428 . S
C1237 N1236 1.351 . S
C1237 C1238 1.434 . S
C1238 C1229 1.429 . S
C1238 N1235 1.350 . S
C1238 C1237 1.434 . S
C1239 C1240 1.369 . S
C1239 C1241 1.419 . S
C1239 H1243 0.930 . S
C1240 C1239 1.369 . S
C1240 C1249 1.429 . S
C1241 C1239 1.419 . S
C1241 C1242 1.363 . S
C1241 H1244 0.929 . S
C1242 C1241 1.363 . S
C1242 C1248 1.428 . S
H1243 C1239 0.930 . S
H1244 C1241 0.929 . S
S1245 N1246 1.613 . S
S1245 N1247 1.610 . S
N1246 S1245 1.613 . S
N1246 C1249 1.350 . S
N1247 S1245 1.610 . S
N1247 C1248 1.351 . S
C1248 C1242 1.428 . S
C1248 N1247 1.351 . S
C1248 C1249 1.434 . S
C1249 C1240 1.429 . S
C1249 N1246 1.350 . S
C1249 C1248 1.434 . S
C1250 C1251 1.369 . S
C1250 C1252 1.419 . S
C1250 H1254 0.930 . S
C1251 C1250 1.369 . S
C1251 C1260 1.429 . S
C1252 C1250 1.419 . S
C1252 C1253 1.363 . S
C1252 H1255 0.929 . S
C1253 C1252 1.363 . S
C1253 C1259 1.428 . S
H1254 C1250 0.930 . S
H1255 C1252 0.929 . S
S1256 N1257 1.613 . S
S1256 N1258 1.610 . S
N1257 S1256 1.613 . S
N1257 C1260 1.350 . S
N1258 S1256 1.610 . S
N1258 C1259 1.351 . S
C1259 C1253 1.428 . S
C1259 N1258 1.351 . S
C1259 C1260 1.434 . S
C1260 C1251 1.429 . S
C1260 N1257 1.350 . S
C1260 C1259 1.434 . S
C1261 C1262 1.353 1_554 S
C1261 C1263 1.425 . S
C1261 H1265 0.941 . S
C1262 C1261 1.353 1_556 S
C1262 C1271 1.429 . S
C1263 C1261 1.425 . S
C1263 C1264 1.363 1_554 S
C1263 H1266 0.929 . S
C1264 C1263 1.363 1_556 S
C1264 C1270 1.428 . S
H1265 C1261 0.941 . S
H1266 C1263 0.929 . S
S1267 N1268 1.613 . S
S1267 N1269 1.610 . S
N1268 S1267 1.613 . S
N1268 C1271 1.350 . S
N1269 S1267 1.610 . S
N1269 C1270 1.351 . S
C1270 C1264 1.428 . S
C1270 N1269 1.351 . S
C1270 C1271 1.434 . S
C1271 C1262 1.429 . S
C1271 N1268 1.350 . S
C1271 C1270 1.434 . S
C481 C5 1.608 . S
C483 C122 1.547 . S
C492 C22 2.074 . S
C494 C142 2.092 . S
C503 C93 1.646 . S
C505 C45 1.632 . S
C514 C62 1.174 . S
C516 C105 1.181 . S
C525 C65 1.058 . S
C527 C25 1.123 . S
C536 C42 2.358 . S
C538 C2 2.363 . S
C547 C102 1.894 . S
C549 C145 1.851 . S
C558 C125 0.737 . S
C560 C94 0.727 1_655 S
C569 C165 1.417 1_554 S
C571 C182 1.527 . S
C580 C162 1.409 . S
C582 C205 1.450 . S
C591 C202 2.386 . S
C593 C233 2.346 . S
C602 C234 0.696 . S
C604 C185 0.687 . S
C613 C245 1.615 . S
C615 C362 1.572 . S
C624 C382 2.060 . S
C626 C262 2.034 . S
C635 C285 1.579 . S
C637 C333 1.550 . S
C646 C302 1.285 . S
C648 C345 1.254 1_556 S
C657 C305 0.873 . S
C659 C265 0.931 . S
C668 C282 2.566 . S
C670 C242 2.583 . S
C679 C342 1.685 . S
C681 C385 1.642 . S
C690 C365 0.914 . S
C692 C334 0.918 . S
C701 C405 1.268 . S
C703 C422 1.317 . S
C712 C442 2.591 . S
C714 C402 2.585 . S
C723 C445 1.334 . S
C725 C473 1.288 . S
C734 C474 0.867 . S
C736 C425 0.887 1_455 S
C745 C462 2.885 . S
C747 C13 2.915 . S
C756 C437 2.330 . S
C758 C37 2.256 . S
C767 C53 2.714 1_655 S
C769 C417 2.718 . S
C778 C77 2.752 1_565 S
C780 C453 2.698 . S
C789 C457 2.286 . S
C791 C88 2.358 . S
C800 C113 2.520 . S
C802 C468 2.593 . S
C811 C433 2.274 . S
C813 C137 2.332 . S
C822 C157 2.949 . S
C824 C413 2.946 . S
C833 C322 2.744 . S
C835 C73 2.747 . S
C844 C17 2.207 1_655 S
C846 C357 2.319 . S
C855 C33 2.763 . S
C857 C373 2.747 . S
C866 C57 2.756 . S
C868 C393 2.751 . S
C877 C257 2.378 . S
C879 C117 2.465 . S
C888 C133 2.592 . S
C890 C273 2.611 . S
C899 C153 2.927 . S
C901 C297 2.936 . S
C910 C82 2.354 . S
C912 C313 2.373 . S
C921 C397 2.763 . S
C923 C173 2.736 . S
C932 C197 2.198 1_556 S
C934 C277 2.122 . S
C943 C293 2.658 . S
C945 C177 2.723 . S
C954 C317 2.252 . S
C956 C217 2.206 . S
C965 C222 3.072 1_556 S
C967 C253 3.090 . S
C976 C353 2.528 . S
C978 C228 2.542 . S
C987 C377 2.458 . S
C989 C193 2.413 . S
C998 C328 2.794 . S
C1000 C213 2.712 . S
C1009 C85 0.897 . S
C1011 C414 0.854 . S
C1020 C108 1.766 . S
C1022 C448 1.720 . S
C1031 C134 1.328 . S
C1033 C477 1.156 . S
C1042 C434 0.898 . S
C1044 C154 0.873 . S
C1053 C428 1.266 . S
C1055 C8 1.204 . S
C1064 C34 1.267 . S
C1066 C408 1.255 . S
C1075 C48 1.318 . S
C1077 C454 1.303 . S
C1086 C465 1.066 . S
C1088 C74 1.071 . S
C1097 C254 1.216 . S
C1099 C148 1.192 . S
C1108 C97 1.294 . S
C1110 C268 1.301 . S
C1119 C294 0.773 . S
C1121 C114 0.782 . S
C1130 C308 1.265 . S
C1132 C128 1.306 . S
C1141 C337 1.406 . S
C1143 C28 1.348 . S
C1152 C54 0.823 . S
C1154 C354 0.836 . S
C1163 C368 1.298 . S
C1165 C68 1.328 . S
C1174 C388 1.183 . S
C1176 C14 1.203 . S
C1185 C225 0.746 . S
C1187 C314 0.755 . S
C1196 C214 1.290 . S
C1198 C348 1.302 . S
C1207 C374 1.346 . S
C1209 C237 1.206 . S
C1218 C194 0.878 . S
C1220 C394 0.866 . S
C1229 C174 0.988 . S
C1231 C325 1.020 . S
C1240 C274 0.888 . S
C1242 C168 0.886 . S
C1251 C208 1.698 . S
C1253 C288 1.761 . S
C1262 C248 1.272 . S
C1264 C188 1.332 . S
