# Generated by pormake.
# Topology wnd, (6)-cn, num edge types: 1
# Building blocks:
#     Node 0, Type 0, BuildingBlock: JUFBIX_clean_sbu_0, # of connection points: 6
#     Node 1, Type 0, BuildingBlock: JUFBIX_clean_sbu_0, # of connection points: 6
#     Node 2, Type 0, BuildingBlock: JUFBIX_clean_sbu_0, # of connection points: 6
#     Node 3, Type 0, BuildingBlock: JUFBIX_clean_sbu_0, # of connection points: 6
#     Node 4, Type 0, BuildingBlock: JUFBIX_clean_sbu_0, # of connection points: 6
#     Node 5, Type 0, BuildingBlock: JUFBIX_clean_sbu_0, # of connection points: 6
#     Node 6, Type 0, BuildingBlock: JUFBIX_clean_sbu_0, # of connection points: 6
#     Node 7, Type 0, BuildingBlock: JUFBIX_clean_sbu_0, # of connection points: 6
#     Node 8, Type 0, BuildingBlock: JUFBIX_clean_sbu_0, # of connection points: 6
#     Node 9, Type 0, BuildingBlock: JUFBIX_clean_sbu_0, # of connection points: 6
#     Node 10, Type 0, BuildingBlock: JUFBIX_clean_sbu_0, # of connection points: 6
#     Node 11, Type 0, BuildingBlock: JUFBIX_clean_sbu_0, # of connection points: 6
#     Node 12, Type 0, BuildingBlock: JUFBIX_clean_sbu_0, # of connection points: 6
#     Node 13, Type 0, BuildingBlock: JUFBIX_clean_sbu_0, # of connection points: 6
#     Node 14, Type 0, BuildingBlock: JUFBIX_clean_sbu_0, # of connection points: 6
#     Node 15, Type 0, BuildingBlock: JUFBIX_clean_sbu_0, # of connection points: 6
#     Node 16, Type 0, BuildingBlock: JUFBIX_clean_sbu_0, # of connection points: 6
#     Node 17, Type 0, BuildingBlock: JUFBIX_clean_sbu_0, # of connection points: 6
#     Node 18, Type 0, BuildingBlock: JUFBIX_clean_sbu_0, # of connection points: 6
#     Node 19, Type 0, BuildingBlock: JUFBIX_clean_sbu_0, # of connection points: 6
#     Node 20, Type 0, BuildingBlock: JUFBIX_clean_sbu_0, # of connection points: 6
#     Node 21, Type 0, BuildingBlock: JUFBIX_clean_sbu_0, # of connection points: 6
#     Node 22, Type 0, BuildingBlock: JUFBIX_clean_sbu_0, # of connection points: 6
#     Node 23, Type 0, BuildingBlock: JUFBIX_clean_sbu_0, # of connection points: 6
#     Node 24, Type 0, BuildingBlock: JUFBIX_clean_sbu_0, # of connection points: 6
#     Node 25, Type 0, BuildingBlock: JUFBIX_clean_sbu_0, # of connection points: 6
#     Node 26, Type 0, BuildingBlock: JUFBIX_clean_sbu_0, # of connection points: 6
#     Node 27, Type 0, BuildingBlock: JUFBIX_clean_sbu_0, # of connection points: 6
#     Node 28, Type 0, BuildingBlock: JUFBIX_clean_sbu_0, # of connection points: 6
#     Node 29, Type 0, BuildingBlock: JUFBIX_clean_sbu_0, # of connection points: 6
#     Node 30, Type 0, BuildingBlock: JUFBIX_clean_sbu_0, # of connection points: 6
#     Node 31, Type 0, BuildingBlock: JUFBIX_clean_sbu_0, # of connection points: 6
#     Node 32, Type 0, BuildingBlock: JUFBIX_clean_sbu_0, # of connection points: 6
#     Node 33, Type 0, BuildingBlock: JUFBIX_clean_sbu_0, # of connection points: 6
#     Node 34, Type 0, BuildingBlock: JUFBIX_clean_sbu_0, # of connection points: 6
#     Node 35, Type 0, BuildingBlock: JUFBIX_clean_sbu_0, # of connection points: 6
#     Edge 36, Type (0, 0), BuildingBlock: XIVTED_clean_linker_0, # of connection points: 2
#     Edge 37, Type (0, 0), BuildingBlock: XIVTED_clean_linker_0, # of connection points: 2
#     Edge 38, Type (0, 0), BuildingBlock: XIVTED_clean_linker_0, # of connection points: 2
#     Edge 39, Type (0, 0), BuildingBlock: XIVTED_clean_linker_0, # of connection points: 2
#     Edge 40, Type (0, 0), BuildingBlock: XIVTED_clean_linker_0, # of connection points: 2
#     Edge 41, Type (0, 0), BuildingBlock: XIVTED_clean_linker_0, # of connection points: 2
#     Edge 42, Type (0, 0), BuildingBlock: XIVTED_clean_linker_0, # of connection points: 2
#     Edge 43, Type (0, 0), BuildingBlock: XIVTED_clean_linker_0, # of connection points: 2
#     Edge 44, Type (0, 0), BuildingBlock: XIVTED_clean_linker_0, # of connection points: 2
#     Edge 45, Type (0, 0), BuildingBlock: XIVTED_clean_linker_0, # of connection points: 2
#     Edge 46, Type (0, 0), BuildingBlock: XIVTED_clean_linker_0, # of connection points: 2
#     Edge 47, Type (0, 0), BuildingBlock: XIVTED_clean_linker_0, # of connection points: 2
#     Edge 48, Type (0, 0), BuildingBlock: XIVTED_clean_linker_0, # of connection points: 2
#     Edge 49, Type (0, 0), BuildingBlock: XIVTED_clean_linker_0, # of connection points: 2
#     Edge 50, Type (0, 0), BuildingBlock: XIVTED_clean_linker_0, # of connection points: 2
#     Edge 51, Type (0, 0), BuildingBlock: XIVTED_clean_linker_0, # of connection points: 2
#     Edge 52, Type (0, 0), BuildingBlock: XIVTED_clean_linker_0, # of connection points: 2
#     Edge 53, Type (0, 0), BuildingBlock: XIVTED_clean_linker_0, # of connection points: 2
#     Edge 54, Type (0, 0), BuildingBlock: XIVTED_clean_linker_0, # of connection points: 2
#     Edge 55, Type (0, 0), BuildingBlock: XIVTED_clean_linker_0, # of connection points: 2
#     Edge 56, Type (0, 0), BuildingBlock: XIVTED_clean_linker_0, # of connection points: 2
#     Edge 57, Type (0, 0), BuildingBlock: XIVTED_clean_linker_0, # of connection points: 2
#     Edge 58, Type (0, 0), BuildingBlock: XIVTED_clean_linker_0, # of connection points: 2
#     Edge 59, Type (0, 0), BuildingBlock: XIVTED_clean_linker_0, # of connection points: 2
#     Edge 60, Type (0, 0), BuildingBlock: XIVTED_clean_linker_0, # of connection points: 2
#     Edge 61, Type (0, 0), BuildingBlock: XIVTED_clean_linker_0, # of connection points: 2
#     Edge 62, Type (0, 0), BuildingBlock: XIVTED_clean_linker_0, # of connection points: 2
#     Edge 63, Type (0, 0), BuildingBlock: XIVTED_clean_linker_0, # of connection points: 2
#     Edge 64, Type (0, 0), BuildingBlock: XIVTED_clean_linker_0, # of connection points: 2
#     Edge 65, Type (0, 0), BuildingBlock: XIVTED_clean_linker_0, # of connection points: 2
#     Edge 66, Type (0, 0), BuildingBlock: XIVTED_clean_linker_0, # of connection points: 2
#     Edge 67, Type (0, 0), BuildingBlock: XIVTED_clean_linker_0, # of connection points: 2
#     Edge 68, Type (0, 0), BuildingBlock: XIVTED_clean_linker_0, # of connection points: 2
#     Edge 69, Type (0, 0), BuildingBlock: XIVTED_clean_linker_0, # of connection points: 2
#     Edge 70, Type (0, 0), BuildingBlock: XIVTED_clean_linker_0, # of connection points: 2
#     Edge 71, Type (0, 0), BuildingBlock: XIVTED_clean_linker_0, # of connection points: 2
#     Edge 72, Type (0, 0), BuildingBlock: XIVTED_clean_linker_0, # of connection points: 2
#     Edge 73, Type (0, 0), BuildingBlock: XIVTED_clean_linker_0, # of connection points: 2
#     Edge 74, Type (0, 0), BuildingBlock: XIVTED_clean_linker_0, # of connection points: 2
#     Edge 75, Type (0, 0), BuildingBlock: XIVTED_clean_linker_0, # of connection points: 2
#     Edge 76, Type (0, 0), BuildingBlock: XIVTED_clean_linker_0, # of connection points: 2
#     Edge 77, Type (0, 0), BuildingBlock: XIVTED_clean_linker_0, # of connection points: 2
#     Edge 78, Type (0, 0), BuildingBlock: XIVTED_clean_linker_0, # of connection points: 2
#     Edge 79, Type (0, 0), BuildingBlock: XIVTED_clean_linker_0, # of connection points: 2
#     Edge 80, Type (0, 0), BuildingBlock: XIVTED_clean_linker_0, # of connection points: 2
#     Edge 81, Type (0, 0), BuildingBlock: XIVTED_clean_linker_0, # of connection points: 2
#     Edge 82, Type (0, 0), BuildingBlock: XIVTED_clean_linker_0, # of connection points: 2
#     Edge 83, Type (0, 0), BuildingBlock: XIVTED_clean_linker_0, # of connection points: 2
#     Edge 84, Type (0, 0), BuildingBlock: XIVTED_clean_linker_0, # of connection points: 2
#     Edge 85, Type (0, 0), BuildingBlock: XIVTED_clean_linker_0, # of connection points: 2
#     Edge 86, Type (0, 0), BuildingBlock: XIVTED_clean_linker_0, # of connection points: 2
#     Edge 87, Type (0, 0), BuildingBlock: XIVTED_clean_linker_0, # of connection points: 2
#     Edge 88, Type (0, 0), BuildingBlock: XIVTED_clean_linker_0, # of connection points: 2
#     Edge 89, Type (0, 0), BuildingBlock: XIVTED_clean_linker_0, # of connection points: 2
#     Edge 90, Type (0, 0), BuildingBlock: XIVTED_clean_linker_0, # of connection points: 2
#     Edge 91, Type (0, 0), BuildingBlock: XIVTED_clean_linker_0, # of connection points: 2
#     Edge 92, Type (0, 0), BuildingBlock: XIVTED_clean_linker_0, # of connection points: 2
#     Edge 93, Type (0, 0), BuildingBlock: XIVTED_clean_linker_0, # of connection points: 2
#     Edge 94, Type (0, 0), BuildingBlock: XIVTED_clean_linker_0, # of connection points: 2
#     Edge 95, Type (0, 0), BuildingBlock: XIVTED_clean_linker_0, # of connection points: 2
#     Edge 96, Type (0, 0), BuildingBlock: XIVTED_clean_linker_0, # of connection points: 2
#     Edge 97, Type (0, 0), BuildingBlock: XIVTED_clean_linker_0, # of connection points: 2
#     Edge 98, Type (0, 0), BuildingBlock: XIVTED_clean_linker_0, # of connection points: 2
#     Edge 99, Type (0, 0), BuildingBlock: XIVTED_clean_linker_0, # of connection points: 2
#     Edge 100, Type (0, 0), BuildingBlock: XIVTED_clean_linker_0, # of connection points: 2
#     Edge 101, Type (0, 0), BuildingBlock: XIVTED_clean_linker_0, # of connection points: 2
#     Edge 102, Type (0, 0), BuildingBlock: XIVTED_clean_linker_0, # of connection points: 2
#     Edge 103, Type (0, 0), BuildingBlock: XIVTED_clean_linker_0, # of connection points: 2
#     Edge 104, Type (0, 0), BuildingBlock: XIVTED_clean_linker_0, # of connection points: 2
#     Edge 105, Type (0, 0), BuildingBlock: XIVTED_clean_linker_0, # of connection points: 2
#     Edge 106, Type (0, 0), BuildingBlock: XIVTED_clean_linker_0, # of connection points: 2
#     Edge 107, Type (0, 0), BuildingBlock: XIVTED_clean_linker_0, # of connection points: 2
#     Edge 108, Type (0, 0), BuildingBlock: XIVTED_clean_linker_0, # of connection points: 2
#     Edge 109, Type (0, 0), BuildingBlock: XIVTED_clean_linker_0, # of connection points: 2
#     Edge 110, Type (0, 0), BuildingBlock: XIVTED_clean_linker_0, # of connection points: 2
#     Edge 111, Type (0, 0), BuildingBlock: XIVTED_clean_linker_0, # of connection points: 2
#     Edge 112, Type (0, 0), BuildingBlock: XIVTED_clean_linker_0, # of connection points: 2
#     Edge 113, Type (0, 0), BuildingBlock: XIVTED_clean_linker_0, # of connection points: 2
#     Edge 114, Type (0, 0), BuildingBlock: XIVTED_clean_linker_0, # of connection points: 2
#     Edge 115, Type (0, 0), BuildingBlock: XIVTED_clean_linker_0, # of connection points: 2
#     Edge 116, Type (0, 0), BuildingBlock: XIVTED_clean_linker_0, # of connection points: 2
#     Edge 117, Type (0, 0), BuildingBlock: XIVTED_clean_linker_0, # of connection points: 2
#     Edge 118, Type (0, 0), BuildingBlock: XIVTED_clean_linker_0, # of connection points: 2
#     Edge 119, Type (0, 0), BuildingBlock: XIVTED_clean_linker_0, # of connection points: 2
#     Edge 120, Type (0, 0), BuildingBlock: XIVTED_clean_linker_0, # of connection points: 2
#     Edge 121, Type (0, 0), BuildingBlock: XIVTED_clean_linker_0, # of connection points: 2
#     Edge 122, Type (0, 0), BuildingBlock: XIVTED_clean_linker_0, # of connection points: 2
#     Edge 123, Type (0, 0), BuildingBlock: XIVTED_clean_linker_0, # of connection points: 2
#     Edge 124, Type (0, 0), BuildingBlock: XIVTED_clean_linker_0, # of connection points: 2
#     Edge 125, Type (0, 0), BuildingBlock: XIVTED_clean_linker_0, # of connection points: 2
#     Edge 126, Type (0, 0), BuildingBlock: XIVTED_clean_linker_0, # of connection points: 2
#     Edge 127, Type (0, 0), BuildingBlock: XIVTED_clean_linker_0, # of connection points: 2
#     Edge 128, Type (0, 0), BuildingBlock: XIVTED_clean_linker_0, # of connection points: 2
#     Edge 129, Type (0, 0), BuildingBlock: XIVTED_clean_linker_0, # of connection points: 2
#     Edge 130, Type (0, 0), BuildingBlock: XIVTED_clean_linker_0, # of connection points: 2
#     Edge 131, Type (0, 0), BuildingBlock: XIVTED_clean_linker_0, # of connection points: 2
#     Edge 132, Type (0, 0), BuildingBlock: XIVTED_clean_linker_0, # of connection points: 2
#     Edge 133, Type (0, 0), BuildingBlock: XIVTED_clean_linker_0, # of connection points: 2
#     Edge 134, Type (0, 0), BuildingBlock: XIVTED_clean_linker_0, # of connection points: 2
#     Edge 135, Type (0, 0), BuildingBlock: XIVTED_clean_linker_0, # of connection points: 2
#     Edge 136, Type (0, 0), BuildingBlock: XIVTED_clean_linker_0, # of connection points: 2
#     Edge 137, Type (0, 0), BuildingBlock: XIVTED_clean_linker_0, # of connection points: 2
#     Edge 138, Type (0, 0), BuildingBlock: XIVTED_clean_linker_0, # of connection points: 2
#     Edge 139, Type (0, 0), BuildingBlock: XIVTED_clean_linker_0, # of connection points: 2
#     Edge 140, Type (0, 0), BuildingBlock: XIVTED_clean_linker_0, # of connection points: 2
#     Edge 141, Type (0, 0), BuildingBlock: XIVTED_clean_linker_0, # of connection points: 2
#     Edge 142, Type (0, 0), BuildingBlock: XIVTED_clean_linker_0, # of connection points: 2
#     Edge 143, Type (0, 0), BuildingBlock: XIVTED_clean_linker_0, # of connection points: 2
# Relax obj value: 0.304
# Max RMSD: 0.231
# Mean RMSD: 0.230
data_MOF--net-wnd--node1-JUFBIX_clean_sbu_0--edge1-XIVTED_clean_linker_0
_symmetry_space_group_name_H-M    P1
_symmetry_Int_Tables_number       1
_symmetry_cell_setting            triclinic
loop_
_symmetry_equiv_pos_as_xyz
'x, y, z'
_cell_length_a     33.355954
_cell_length_b     33.34425
_cell_length_c     168.91171
_cell_angle_alpha  89.980912
_cell_angle_beta   89.971671
_cell_angle_gamma 120.00746
loop_
_atom_site_label
_atom_site_type_symbol
_atom_site_fract_x
_atom_site_fract_y
_atom_site_fract_z
_atom_type_partial_charge
Co0 Co 0.45398 0.02593 0.04671 0.0
C1 C 0.47929 0.98895 0.03468 0.0
Co2 Co 0.48555 0.98605 0.05125 0.0
C3 C 0.44565 0.10595 0.04582 0.0
C4 C 0.40516 0.05848 0.03669 0.0
N5 N 0.43068 0.06267 0.04316 0.0
N6 N 0.43163 0.12946 0.0412 0.0
C7 C 0.40607 0.09987 0.03542 0.0
H8 H 0.46995 0.12142 0.05065 0.0
H9 H 0.38976 0.0286 0.03283 0.0
C10 C 0.45884 0.0253 0.06313 0.0
N11 N 0.51212 0.95175 0.0548 0.0
C12 C 0.51342 0.91615 0.05122 0.0
C13 C 0.53904 0.96106 0.06126 0.0
N14 N 0.54044 0.90319 0.05517 0.0
C15 C 0.55638 0.93135 0.06151 0.0
C16 C 0.55025 0.07624 0.04846 0.0
O17 O 0.44914 0.04178 0.05716 0.0
O18 O 0.47468 0.99795 0.06208 0.0
O19 O 0.54392 0.03867 0.05141 0.0
O20 O 0.51573 0.07861 0.04587 0.0
O21 O 0.49572 0.97539 0.04023 0.0
H22 H 0.54673 0.98865 0.06542 0.0
H23 H 0.49623 0.9012 0.04567 0.0
O24 O 0.45836 0.01053 0.03641 0.0
O25 O 0.39312 0.97233 0.04742 0.0
O26 O 0.42704 0.93314 0.05116 0.0
C27 C 0.39051 0.93426 0.04948 0.0
H28 H 0.39101 0.10823 0.03046 0.0
H29 H 0.57913 0.93076 0.06602 0.0
Co30 Co 0.99172 0.40981 0.04276 0.0
C31 C 0.02738 0.47591 0.03096 0.0
Co32 Co 0.037 0.48 0.04736 0.0
C33 C 0.91052 0.32274 0.04214 0.0
C34 C 0.95149 0.33145 0.03186 0.0
N35 N 0.95192 0.3514 0.03884 0.0
N36 N 0.88389 0.28617 0.03752 0.0
C37 C 0.90922 0.29132 0.031 0.0
H38 H 0.89852 0.33049 0.04758 0.0
H39 H 0.97881 0.34645 0.02748 0.0
C40 C -0.00086 0.4102 0.059 0.0
N41 N 0.07365 0.53866 0.05161 0.0
C42 C 0.10991 0.57758 0.04862 0.0
C43 C 0.06537 0.55136 0.05873 0.0
N44 N 0.12458 0.61365 0.05369 0.0
C45 C 0.09658 0.59709 0.06004 0.0
C46 C 0.94674 0.45927 0.04619 0.0
O47 O 0.97891 0.38562 0.05302 0.0
O48 O 0.02794 0.45307 0.05798 0.0
O49 O 0.98647 0.48817 0.04872 0.0
O50 O 0.94032 0.42143 0.04324 0.0
O51 O 0.04504 0.50499 0.03663 0.0
H52 H 0.03747 0.52906 0.06268 0.0
H53 H 0.12514 0.57943 0.04288 0.0
O54 O 0.00411 0.43315 0.03255 0.0
O55 O 0.04417 0.39999 0.04221 0.0
O56 O 0.08818 0.47266 0.04591 0.0
C57 C 0.08423 0.43458 0.04364 0.0
H58 H 0.89742 0.26875 0.02588 0.0
H59 H 0.09779 0.617 0.06519 0.0
Co60 Co 0.60684 0.56455 0.04447 0.0
C61 C 0.54816 0.54182 0.0319 0.0
Co62 Co 0.535 0.53564 0.04839 0.0
C63 C 0.69055 0.56377 0.04324 0.0
C64 C 0.69601 0.62085 0.03658 0.0
N65 N 0.66735 0.58594 0.04142 0.0
N66 N 0.73183 0.58234 0.03962 0.0
C67 C 0.7361 0.61884 0.03549 0.0
H68 H 0.67704 0.53369 0.04705 0.0
H69 H 0.68758 0.64493 0.0338 0.0
C70 C 0.59793 0.55941 0.06076 0.0
N71 N 0.4738 0.51072 0.05158 0.0
C72 C 0.4371 0.50708 0.04756 0.0
C73 C 0.45563 0.48624 0.05829 0.0
N74 N 0.39679 0.48086 0.05147 0.0
C75 C 0.40851 0.46802 0.05825 0.0
C76 C 0.55739 0.46821 0.04633 0.0
O77 O 0.62493 0.56697 0.05499 0.0
O78 O 0.55581 0.54738 0.05938 0.0
O79 O 0.5272 0.47657 0.04909 0.0
O80 O 0.59474 0.50137 0.04358 0.0
O81 O 0.51664 0.52486 0.03722 0.0
H82 H 0.47513 0.48043 0.06281 0.0
H83 H 0.43967 0.5217 0.04174 0.0
O84 O 0.59016 0.56246 0.03399 0.0
O85 O 0.6166 0.62698 0.04529 0.0
O86 O 0.5419 0.59451 0.0477 0.0
C87 C 0.58067 0.63065 0.04643 0.0
H88 H 0.76502 0.64098 0.0317 0.0
H89 H 0.38472 0.44659 0.06283 0.0
Co90 Co 0.00034 0.44251 0.46163 0.0
C91 C 0.02046 0.45618 0.44562 0.0
Co92 Co 0.0513 0.51506 0.45868 0.0
C93 C 0.91333 0.36076 0.4607 0.0
C94 C 0.95624 0.35092 0.46896 0.0
N95 N 0.95599 0.38218 0.46392 0.0
N96 N 0.88658 0.31781 0.46357 0.0
C97 C 0.91341 0.31098 0.46873 0.0
H98 H 0.9019 0.37642 0.45629 0.0
H99 H 0.98527 0.35705 0.47265 0.0
C100 C 0.03321 0.49931 0.47487 0.0
N101 N 0.0928 0.57629 0.456 0.0
C102 C 0.12331 0.6119 0.46056 0.0
C103 C 0.09148 0.59625 0.44912 0.0
N104 N 0.14024 0.65301 0.4568 0.0
C105 C 0.12057 0.64314 0.44958 0.0
C106 C 0.96215 0.49899 0.45893 0.0
O107 O 0.00624 0.45809 0.47254 0.0
O108 O 0.05644 0.53056 0.46975 0.0
O109 O 0.00395 0.529 0.45766 0.0
O110 O 0.95221 0.45809 0.46072 0.0
O111 O 0.04607 0.4979 0.44779 0.0
H112 H 0.0688 0.57836 0.4442 0.0
H113 H 0.1309 0.60818 0.46665 0.0
O114 O 0.99519 0.42631 0.45073 0.0
O115 O 0.04914 0.42837 0.46252 0.0
O116 O 0.09892 0.50128 0.45959 0.0
C117 C 0.09044 0.46039 0.46109 0.0
H118 H 0.90243 0.28002 0.47224 0.0
H119 H 0.12599 0.6682 0.44503 0.0
Co120 Co 0.61074 0.59984 0.46385 0.0
C121 C 0.57675 0.61028 0.44907 0.0
Co122 Co 0.53673 0.57835 0.46349 0.0
C123 C 0.69212 0.59076 0.46458 0.0
C124 C 0.70643 0.65642 0.45997 0.0
N125 N 0.67233 0.6167 0.46308 0.0
N126 N 0.73717 0.61252 0.46245 0.0
C127 C 0.74628 0.654 0.45959 0.0
H128 H 0.67343 0.55611 0.46701 0.0
H129 H 0.70209 0.68451 0.45778 0.0
C130 C 0.57192 0.57137 0.47835 0.0
N131 N 0.47518 0.56172 0.46466 0.0
C132 C 0.43634 0.5285 0.46112 0.0
C133 C 0.45994 0.57676 0.47075 0.0
N134 N 0.39793 0.5219 0.46494 0.0
C135 C 0.41265 0.55236 0.47094 0.0
C136 C 0.55021 0.50523 0.46057 0.0
O137 O 0.61087 0.58797 0.4749 0.0
O138 O 0.53678 0.56397 0.47433 0.0
O139 O 0.51962 0.51716 0.46087 0.0
O140 O 0.59252 0.53597 0.46157 0.0
O141 O 0.53764 0.59386 0.45253 0.0
H142 H 0.48192 0.60232 0.47506 0.0
H143 H 0.43621 0.50804 0.45613 0.0
O144 O 0.61086 0.61285 0.45288 0.0
O145 O 0.62775 0.6628 0.46617 0.0
O146 O 0.55364 0.63931 0.46619 0.0
C147 C 0.59505 0.67147 0.46707 0.0
H148 H 0.77871 0.6799 0.457 0.0
H149 H 0.39063 0.5563 0.47521 0.0
Co150 Co 0.46264 0.05672 0.45939 0.0
C151 C 0.44244 0.02099 0.44417 0.0
Co152 Co 0.48924 0.00932 0.4568 0.0
C153 C 0.46703 0.14369 0.46284 0.0
C154 C 0.39826 0.09047 0.46 0.0
N155 N 0.44122 0.0978 0.46134 0.0
N156 N 0.44232 0.16566 0.46227 0.0
C157 C 0.39879 0.13193 0.46057 0.0
H158 H 0.50383 0.16098 0.46397 0.0
H159 H 0.36914 0.05775 0.45817 0.0
C160 C 0.50499 0.04194 0.47226 0.0
N161 N 0.51286 0.9708 0.45449 0.0
C162 C 0.52277 0.94507 0.45943 0.0
C163 C 0.53027 0.96824 0.44742 0.0
N164 N 0.54621 0.92716 0.45572 0.0
C165 C 0.55063 0.94143 0.44815 0.0
C166 C 0.55374 0.10037 0.45392 0.0
O167 O 0.4835 0.06247 0.47001 0.0
O168 O 0.5132 0.01832 0.46728 0.0
O169 O 0.54499 0.059 0.45331 0.0
O170 O 0.52209 0.10793 0.45637 0.0
O171 O 0.46348 1e-05 0.44641 0.0
H172 H 0.52985 0.98624 0.44212 0.0
H173 H 0.51477 0.94126 0.46569 0.0
O174 O 0.44053 0.04987 0.44883 0.0
O175 O 0.40412 0.00426 0.46246 0.0
O176 O 0.43402 0.95935 0.4604 0.0
C177 C 0.40034 0.96423 0.46261 0.0
H178 H 0.3699 0.13705 0.45929 0.0
H179 H 0.56773 0.93345 0.44348 0.0
Co180 Co 0.56061 0.03362 0.9609 0.0
C181 C 0.5902 0.99856 0.94882 0.0
Co182 Co 0.59055 0.99185 0.96512 0.0
C183 C 0.53377 0.10464 0.96095 0.0
C184 C 0.50804 0.05911 0.95098 0.0
N185 N 0.53473 0.06861 0.95748 0.0
N186 N 0.50708 0.11754 0.95689 0.0
C187 C 0.49106 0.089 0.95059 0.0
H188 H 0.5511 0.12011 0.96647 0.0
H189 H 0.50043 0.03137 0.94686 0.0
C190 C 0.56168 0.02408 0.97739 0.0
N191 N 0.61253 0.95318 0.96833 0.0
C192 C 0.59928 0.91211 0.96482 0.0
C193 C 0.6334 0.95197 0.9751 0.0
N194 N 0.61 0.88491 0.96913 0.0
C195 C 0.63144 0.90962 0.97564 0.0
C196 C 0.65484 0.08507 0.96368 0.0
O197 O 0.54607 0.03911 0.97193 0.0
O198 O 0.58381 0.00385 0.97552 0.0
O199 O 0.65196 0.0459 0.96496 0.0
O200 O 0.61854 0.08671 0.96202 0.0
O201 O 0.59753 0.97957 0.95467 0.0
H202 H 0.64592 0.97847 0.97962 0.0
H203 H 0.57795 0.90037 0.95955 0.0
O204 O 0.57566 0.02683 0.95001 0.0
O205 O 0.50278 0.98092 0.95979 0.0
O206 O 0.52847 0.93887 0.96532 0.0
C207 C 0.49523 0.94225 0.96238 0.0
H208 H 0.46873 0.08973 0.94602 0.0
H209 H 0.6427 0.89712 0.9806 0.0
Co210 Co 0.00897 0.53627 0.957 0.0
C211 C 0.04437 0.59973 0.94457 0.0
Co212 Co 0.05053 0.60855 0.96095 0.0
C213 C 0.93836 0.43918 0.9578 0.0
C214 C 0.98064 0.45543 0.94744 0.0
N215 N 0.97335 0.47485 0.95388 0.0
N216 N 0.92388 0.39821 0.95411 0.0
C217 C 0.95036 0.40845 0.94757 0.0
H218 H 0.92495 0.44304 0.96341 0.0
H219 H 0.00721 0.47406 0.94305 0.0
C220 C 0.01853 0.54836 0.97349 0.0
N221 N 0.08817 0.66916 0.9641 0.0
C222 C 0.13118 0.69669 0.96125 0.0
C223 C 0.08509 0.69154 0.97052 0.0
N224 N 0.15565 0.73464 0.96573 0.0
C225 C 0.12691 0.73177 0.97159 0.0
C226 C 0.95742 0.57934 0.95953 0.0
O227 O 0.00297 0.51746 0.96809 0.0
O228 O 0.03884 0.59055 0.9715 0.0
O229 O 0.99649 0.61573 0.96075 0.0
O230 O 0.95598 0.54145 0.95792 0.0
O231 O 0.06302 0.62734 0.95032 0.0
H232 H 0.05578 0.67779 0.97451 0.0
H233 H 0.14582 0.68686 0.95642 0.0
O234 O 0.01654 0.55699 0.94602 0.0
O235 O 0.06139 0.5306 0.95611 0.0
O236 O 0.10351 0.59958 0.96123 0.0
C237 C 0.10008 0.56231 0.95858 0.0
H238 H 0.94819 0.38379 0.94318 0.0
H239 H 0.13625 0.75566 0.9765 0.0
Co240 Co 0.50547 0.48502 0.95708 0.0
C241 C 0.44129 0.45395 0.94472 0.0
Co242 Co 0.4333 0.45368 0.96106 0.0
C243 C 0.60302 0.51227 0.95748 0.0
C244 C 0.58494 0.53872 0.94738 0.0
N245 N 0.56667 0.5116 0.95382 0.0
N246 N 0.64329 0.53911 0.9536 0.0
C247 C 0.63188 0.55563 0.94723 0.0
H248 H 0.60014 0.49454 0.963 0.0
H249 H 0.56547 0.54657 0.94316 0.0
C250 C 0.49351 0.48297 0.97356 0.0
N251 N 0.37262 0.43013 0.96423 0.0
C252 C 0.34439 0.44377 0.96105 0.0
C253 C 0.35055 0.40644 0.97082 0.0
N254 N 0.30623 0.43078 0.96544 0.0
C255 C 0.30974 0.40726 0.97163 0.0
C256 C 0.46399 0.39082 0.95988 0.0
O257 O 0.52473 0.49894 0.96819 0.0
O258 O 0.45147 0.4609 0.97152 0.0
O259 O 0.42723 0.39292 0.96104 0.0
O260 O 0.50148 0.42745 0.95816 0.0
O261 O 0.41417 0.44599 0.9505 0.0
H262 H 0.36479 0.39266 0.97507 0.0
H263 H 0.35379 0.46679 0.956 0.0
O264 O 0.48429 0.47012 0.94609 0.0
O265 O 0.51006 0.54286 0.95605 0.0
O266 O 0.4412 0.51528 0.96124 0.0
C267 C 0.47823 0.54949 0.9586 0.0
H268 H 0.65571 0.57822 0.94275 0.0
H269 H 0.28587 0.39385 0.97656 0.0
Co270 Co 0.01039 0.54494 0.54873 0.0
C271 C 0.04429 0.5647 0.53327 0.0
Co272 Co 0.05793 0.6191 0.54656 0.0
C273 C 0.9397 0.45035 0.54573 0.0
C274 C 0.97213 0.45951 0.55705 0.0
N275 N 0.97126 0.48288 0.55059 0.0
N276 N 0.92147 0.40757 0.54887 0.0
C277 C 0.94164 0.41317 0.556 0.0
H278 H 0.93147 0.45771 0.5399 0.0
H279 H 0.99449 0.47509 0.56211 0.0
C280 C 0.02135 0.60015 0.56186 0.0
N281 N 0.09882 0.68149 0.54497 0.0
C282 C 0.1447 0.7012 0.54362 0.0
C283 C 0.09182 0.71717 0.54653 0.0
N284 N 0.16698 0.74749 0.54458 0.0
C285 C 0.1337 0.7578 0.54632 0.0
C286 C 0.96657 0.59127 0.54345 0.0
O287 O 0.00114 0.55862 0.55936 0.0
O288 O 0.04969 0.6322 0.5573 0.0
O289 O 0.007 0.62658 0.54356 0.0
O290 O 0.96067 0.55198 0.54545 0.0
O291 O 0.06518 0.60622 0.5358 0.0
H292 H 0.05907 0.71362 0.54833 0.0
H293 H 0.16214 0.68165 0.54265 0.0
O294 O 0.01925 0.53212 0.53805 0.0
O295 O 0.05986 0.53728 0.55194 0.0
O296 O 0.10854 0.61014 0.54957 0.0
C297 C 0.1011 0.57042 0.55165 0.0
H298 H 0.93477 0.3857 0.56015 0.0
H299 H 0.13946 0.79185 0.54781 0.0
Co300 Co 0.53348 0.51914 0.55265 0.0
C301 C 0.51606 0.52922 0.53685 0.0
Co302 Co 0.4596 0.4893 0.54977 0.0
C303 C 0.62875 0.5469 0.55023 0.0
C304 C 0.61756 0.56969 0.56144 0.0
N305 N 0.5953 0.54491 0.55496 0.0
N306 N 0.67114 0.57238 0.55345 0.0
C307 C 0.66428 0.58669 0.56052 0.0
H308 H 0.62219 0.53112 0.54443 0.0
H309 H 0.60094 0.57584 0.56642 0.0
C310 C 0.4752 0.47488 0.56532 0.0
N311 N 0.3968 0.46445 0.54766 0.0
C312 C 0.37424 0.48821 0.54657 0.0
C313 C 0.36292 0.41994 0.54847 0.0
N314 N 0.32785 0.46076 0.54691 0.0
C315 C 0.32058 0.41757 0.54801 0.0
C316 C 0.49276 0.42847 0.54788 0.0
O317 O 0.51759 0.49686 0.56327 0.0
O318 O 0.44462 0.47059 0.5604 0.0
O319 O 0.45603 0.43116 0.54749 0.0
O320 O 0.53052 0.46376 0.54988 0.0
O321 O 0.47415 0.50692 0.53912 0.0
H322 H 0.36845 0.39142 0.54986 0.0
H323 H 0.39139 0.52551 0.54616 0.0
O324 O 0.54819 0.53979 0.54189 0.0
O325 O 0.53748 0.57511 0.55542 0.0
O326 O 0.46542 0.54849 0.55203 0.0
C327 C 0.50376 0.58179 0.55442 0.0
H328 H 0.69104 0.60774 0.56474 0.0
H329 H 0.2872 0.38675 0.54885 0.0
Co330 Co 0.55973 0.05286 0.54605 0.0
C331 C 0.5499 0.01865 0.53046 0.0
Co332 Co 0.59312 0.01153 0.54357 0.0
C333 C 0.53994 0.12842 0.54868 0.0
C334 C 0.48048 0.06296 0.546 0.0
N335 N 0.52655 0.08354 0.5473 0.0
N336 N 0.50379 0.13614 0.54835 0.0
C337 C 0.46647 0.09489 0.54669 0.0
H338 H 0.57554 0.155 0.54968 0.0
H339 H 0.45845 0.02726 0.54426 0.0
C340 C 0.60652 0.04832 0.559 0.0
N341 N 0.62286 0.97767 0.54225 0.0
C342 C 0.60169 0.93167 0.54095 0.0
C343 C 0.66636 0.98975 0.54441 0.0
N344 N 0.6292 0.91392 0.54261 0.0
C345 C 0.67032 0.95057 0.54467 0.0
C346 C 0.64832 0.10574 0.54056 0.0
O347 O 0.58299 0.06667 0.55666 0.0
O348 O 0.61231 0.02173 0.55433 0.0
O349 O 0.64807 0.06743 0.54076 0.0
O350 O 0.61212 0.10693 0.5425 0.0
O351 O 0.57501 0.00238 0.53283 0.0
H352 H 0.69205 0.02387 0.54643 0.0
H353 H 0.56516 0.91067 0.53967 0.0
O354 O 0.53783 0.03955 0.53537 0.0
O355 O 0.50779 -0.00104 0.54967 0.0
O356 O 0.53688 0.95576 0.54635 0.0
C357 C 0.50336 0.95928 0.54905 0.0
H358 H 0.43186 0.08867 0.54558 0.0
H359 H 0.69996 0.94881 0.54682 0.0
Co360 Co 0.1036 0.37456 0.37752 0.0
C361 C 0.13153 0.34108 0.36533 0.0
Co362 Co 0.13251 0.33253 0.38188 0.0
C363 C 0.10343 0.45859 0.37621 0.0
C364 C 0.04986 0.40779 0.36889 0.0
N365 N 0.0826 0.41355 0.37418 0.0
N366 N 0.08619 0.48164 0.3723 0.0
C367 C 0.05186 0.44986 0.36774 0.0
H368 H 0.13173 0.47468 0.3804 0.0
H369 H 0.02746 0.37573 0.36582 0.0
C370 C 0.1037 0.36933 0.39386 0.0
N371 N 0.15713 0.2966 0.38539 0.0
C372 C 0.16126 0.26334 0.38154 0.0
C373 C 0.18034 0.30295 0.39224 0.0
N374 N 0.18652 0.24907 0.3857 0.0
C375 C 0.1983 0.27381 0.39246 0.0
C376 C 0.19937 0.42267 0.38019 0.0
O377 O 0.09774 0.38899 0.38795 0.0
O378 O 0.11698 0.33997 0.39273 0.0
O379 O 0.1909 0.38433 0.38307 0.0
O380 O 0.16657 0.42618 0.3771 0.0
O381 O 0.14732 0.32662 0.37085 0.0
H382 H 0.18529 0.32829 0.3967 0.0
H383 H 0.14751 0.25115 0.37568 0.0
O384 O 0.10908 0.36107 0.36714 0.0
O385 O 0.04148 0.32148 0.37787 0.0
O386 O 0.07421 0.27999 0.38071 0.0
C387 C 0.03812 0.28207 0.3791 0.0
H388 H 0.03131 0.45697 0.36363 0.0
H389 H 0.21863 0.27127 0.39721 0.0
Co390 Co 0.64182 0.75756 0.37937 0.0
C391 C 0.67294 0.81865 0.36692 0.0
Co392 Co 0.68252 0.82982 0.38341 0.0
C393 C 0.56281 0.66834 0.37919 0.0
C394 C 0.60766 0.67534 0.36958 0.0
N395 N 0.60503 0.69696 0.37615 0.0
N396 N 0.53837 0.63038 0.37471 0.0
C397 C 0.5663 0.63442 0.36863 0.0
H398 H 0.54849 0.67733 0.38418 0.0
H399 H 0.63622 0.68997 0.36543 0.0
C400 C 0.64848 0.7656 0.39576 0.0
N401 N 0.71721 0.89115 0.38666 0.0
C402 C 0.75252 0.92743 0.3829 0.0
C403 C 0.70892 0.90969 0.39311 0.0
N404 N 0.76628 0.96792 0.38672 0.0
C405 C 0.73894 0.95671 0.39317 0.0
C406 C 0.5909 0.80197 0.38191 0.0
O407 O 0.63006 0.73811 0.38999 0.0
O408 O 0.67543 0.80856 0.39434 0.0
O409 O 0.62937 0.8342 0.38437 0.0
O410 O 0.58817 0.7651 0.37924 0.0
O411 O 0.6883 0.84925 0.37237 0.0
H412 H 0.68196 0.89038 0.39741 0.0
H413 H 0.76681 0.92433 0.37733 0.0
O414 O 0.6529 0.77634 0.36884 0.0
O415 O 0.69648 0.75172 0.3794 0.0
O416 O 0.73606 0.82584 0.3824 0.0
C417 C 0.73522 0.78842 0.38064 0.0
H418 H 0.55663 0.61084 0.36367 0.0
H419 H 0.74047 0.98072 0.39764 0.0
Co420 Co 0.26011 0.91483 0.37828 0.0
C421 C 0.19936 0.89043 0.36591 0.0
Co422 Co 0.18867 0.88822 0.38235 0.0
C423 C 0.34691 0.92006 0.37817 0.0
C424 C 0.34274 0.95869 0.36841 0.0
N425 N 0.31991 0.93513 0.37496 0.0
N426 N 0.38515 0.93231 0.37385 0.0
C427 C 0.38289 0.95654 0.36766 0.0
H428 H 0.33679 0.89706 0.38323 0.0
H429 H 0.32967 0.97376 0.36419 0.0
C430 C 0.25336 0.91412 0.39455 0.0
N431 N 0.12823 0.86458 0.38581 0.0
C432 C 0.09157 0.86288 0.3821 0.0
C433 C 0.11051 0.83922 0.39245 0.0
N434 N 0.05169 0.837 0.38613 0.0
C435 C 0.06363 0.82232 0.39267 0.0
C436 C 0.20936 0.819 0.38046 0.0
O437 O 0.27975 0.92087 0.38873 0.0
O438 O 0.21089 0.90098 0.39328 0.0
O439 O 0.17988 0.82891 0.38305 0.0
O440 O 0.2481 0.85155 0.37799 0.0
O441 O 0.16842 0.87639 0.3713 0.0
H442 H 0.13014 0.83195 0.39673 0.0
H443 H 0.09379 0.87867 0.37639 0.0
O444 O 0.24143 0.90917 0.36788 0.0
O445 O 0.27028 0.97733 0.37845 0.0
O446 O 0.19657 0.94726 0.38153 0.0
C447 C 0.23525 0.98226 0.37976 0.0
H448 H 0.40736 0.96995 0.36281 0.0
H449 H 0.04012 0.80061 0.39726 0.0
Co450 Co 0.66849 0.75702 0.79806 0.0
C451 C 0.71348 0.78893 0.78322 0.0
Co452 Co 0.72015 0.83126 0.79737 0.0
C453 C 0.57818 0.67472 0.79795 0.0
C454 C 0.6325 0.65984 0.79568 0.0
N455 N 0.62468 0.69467 0.79756 0.0
N456 N 0.5567 0.62907 0.79627 0.0
C457 C 0.59089 0.61954 0.79492 0.0
H458 H 0.56032 0.69377 0.79902 0.0
H459 H 0.66618 0.6637 0.79457 0.0
C460 C 0.67708 0.79847 0.81228 0.0
N461 N 0.76401 0.8932 0.79824 0.0
C462 C 0.77033 0.93072 0.79414 0.0
C463 C 0.79287 0.91048 0.80451 0.0
N464 N 0.80113 0.97036 0.79777 0.0
C465 C 0.81555 0.95776 0.80424 0.0
C466 C 0.63312 0.81556 0.79407 0.0
O467 O 0.65557 0.75875 0.80906 0.0
O468 O 0.70488 0.83292 0.80812 0.0
O469 O 0.67542 0.84674 0.79436 0.0
O470 O 0.6222 0.77365 0.79535 0.0
O471 O 0.73541 0.82864 0.78651 0.0
H472 H 0.79584 0.88993 0.80918 0.0
H473 H 0.75144 0.9291 0.78883 0.0
O474 O 0.68219 0.75507 0.78713 0.0
O475 O 0.71527 0.742 0.80077 0.0
O476 O 0.76508 0.81626 0.80044 0.0
C477 C 0.75644 0.7752 0.80157 0.0
H478 H 0.58629 0.58615 0.79326 0.0
H479 H 0.84078 0.98124 0.80847 0.0
Co480 Co 0.2687 0.89842 0.79124 0.0
C481 C 0.25379 0.92004 0.77607 0.0
Co482 Co 0.19497 0.87243 0.78855 0.0
C483 C 0.35121 0.89379 0.79472 0.0
C484 C 0.36668 0.96271 0.792 0.0
N485 N 0.33107 0.91953 0.79321 0.0
N486 N 0.39796 0.91885 0.79431 0.0
C487 C 0.40766 0.96244 0.79268 0.0
H488 H 0.33175 0.85688 0.79577 0.0
H489 H 0.36308 0.99193 0.79022 0.0
C490 C 0.21098 0.85477 0.80395 0.0
N491 N 0.13304 0.84957 0.78632 0.0
C492 C 0.09858 0.84188 0.79137 0.0
C493 C 0.11174 0.831 0.77939 0.0
N494 N 0.05656 0.81862 0.7879 0.0
C495 C 0.06477 0.812 0.78034 0.0
C496 C 0.22114 0.80785 0.78556 0.0
O497 O 0.25317 0.87651 0.80179 0.0
O498 O 0.17961 0.84755 0.79895 0.0
O499 O 0.18863 0.81674 0.78493 0.0
O500 O 0.2603 0.83927 0.78807 0.0
O501 O 0.21161 0.89886 0.77823 0.0
H502 H 0.1291 0.8298 0.77406 0.0
H503 H 0.10407 0.85135 0.79756 0.0
O504 O 0.28425 0.92139 0.78074 0.0
O505 O 0.27507 0.95678 0.79445 0.0
O506 O 0.20056 0.92763 0.79227 0.0
C507 C 0.23911 0.96099 0.79455 0.0
H508 H 0.44172 0.99166 0.79153 0.0
H509 H 0.03872 0.79432 0.77583 0.0
Co510 Co 0.12451 0.36497 0.79365 0.0
C511 C 0.11974 0.34657 0.77752 0.0
Co512 Co 0.14922 0.31684 0.79047 0.0
C513 C 0.12606 0.44998 0.79268 0.0
C514 C 0.07453 0.40636 0.80107 0.0
N515 N 0.1062 0.40749 0.79596 0.0
N516 N 0.109 0.47586 0.79559 0.0
C517 C 0.07605 0.44859 0.80083 0.0
H518 H 0.15298 0.46199 0.78823 0.0
H519 H 0.05259 0.37723 0.80483 0.0
C520 C 0.1502 0.33323 0.80676 0.0
N521 N 0.17096 0.27719 0.78779 0.0
C522 C 0.17373 0.24478 0.79218 0.0
C523 C 0.19505 0.28094 0.78113 0.0
N524 N 0.19916 0.22886 0.78856 0.0
C525 C 0.21227 0.25132 0.78158 0.0
C526 C 0.21953 0.40711 0.79089 0.0
O527 O 0.13396 0.35872 0.80454 0.0
O528 O 0.15997 0.3118 0.80155 0.0
O529 O 0.20977 0.36604 0.78945 0.0
O530 O 0.18734 0.41479 0.79289 0.0
O531 O 0.13707 0.32183 0.77958 0.0
H532 H 0.20167 0.30532 0.7764 0.0
H533 H 0.15946 0.2348 0.79808 0.0
O534 O 0.11379 0.37045 0.78274 0.0
O535 O 0.0625 0.31471 0.79438 0.0
O536 O 0.08852 0.26746 0.79136 0.0
C537 C 0.05491 0.27409 0.79285 0.0
H538 H 0.05579 0.45894 0.80439 0.0
H539 H 0.23345 0.24718 0.77717 0.0
Co540 Co 0.20974 0.38301 0.29123 0.0
C541 C 0.24334 0.35303 0.27886 0.0
Co542 Co 0.24578 0.34609 0.29521 0.0
C543 C 0.18118 0.45256 0.2914 0.0
C544 C 0.15089 0.40393 0.28192 0.0
N545 N 0.18064 0.41551 0.28804 0.0
N546 N 0.15262 0.46426 0.28765 0.0
C547 C 0.13366 0.43371 0.28167 0.0
H548 H 0.20127 0.46983 0.29662 0.0
H549 H 0.14171 0.37511 0.27797 0.0
C550 C 0.2137 0.37433 0.30771 0.0
N551 N 0.27173 0.31079 0.29831 0.0
C552 C 0.25945 0.26929 0.29507 0.0
C553 C 0.29427 0.31225 0.30503 0.0
N554 N 0.27186 0.24404 0.29958 0.0
C555 C 0.29394 0.27086 0.30587 0.0
C556 C 0.30474 0.43966 0.29346 0.0
O557 O 0.19808 0.38989 0.30235 0.0
O558 O 0.23634 0.35486 0.3057 0.0
O559 O 0.3047 0.40259 0.29538 0.0
O560 O 0.26692 0.43788 0.29164 0.0
O561 O 0.25607 0.33746 0.28457 0.0
H562 H 0.30634 0.33966 0.30938 0.0
H563 H 0.2372 0.2557 0.28993 0.0
O564 O 0.22168 0.37471 0.28027 0.0
O565 O 0.15319 0.32889 0.29075 0.0
O566 O 0.18556 0.29012 0.29513 0.0
C567 C 0.14964 0.291 0.2929 0.0
H568 H 0.10932 0.43307 0.27737 0.0
H569 H 0.30626 0.2602 0.31093 0.0
Co570 Co 0.66485 0.89133 0.29289 0.0
C571 C 0.70025 0.96025 0.2812 0.0
Co572 Co 0.70749 0.96196 0.29752 0.0
C573 C 0.59259 0.79377 0.29209 0.0
C574 C 0.63589 0.81792 0.2818 0.0
N575 N 0.62878 0.83193 0.28889 0.0
N576 N 0.57676 0.75689 0.28719 0.0
C577 C 0.60388 0.77207 0.28072 0.0
H578 H 0.57782 0.79316 0.29782 0.0
H579 H 0.66305 0.83956 0.27769 0.0
C580 C 0.67431 0.8967 0.30938 0.0
N581 N 0.74653 0.02105 0.30129 0.0
C582 C 0.78794 0.04935 0.29795 0.0
C583 C 0.74755 0.04106 0.30829 0.0
N584 N 0.81527 0.08558 0.30258 0.0
C585 C 0.79022 0.08073 0.30914 0.0
C586 C 0.61483 0.93474 0.29648 0.0
O587 O 0.65815 0.86749 0.3037 0.0
O588 O 0.69565 0.9395 0.30778 0.0
O589 O 0.65422 0.97025 0.29793 0.0
O590 O 0.61254 0.89713 0.29435 0.0
O591 O 0.7197 0.98518 0.28719 0.0
H592 H 0.72061 0.02606 0.31273 0.0
H593 H 0.79971 0.0411 0.29254 0.0
O594 O 0.67252 0.91709 0.28221 0.0
O595 O 0.71681 0.88501 0.29146 0.0
O596 O 0.75973 0.95199 0.29717 0.0
C597 C 0.75575 0.91549 0.29406 0.0
H598 H 0.60107 0.75125 0.2756 0.0
H599 H 0.80266 0.10284 0.3143 0.0
Co600 Co 0.16488 0.84 0.29108 0.0
C601 C 0.10244 0.8139 0.27862 0.0
Co602 Co 0.09244 0.80907 0.29491 0.0
C603 C 0.26191 0.86674 0.29193 0.0
C604 C 0.24598 0.89395 0.28169 0.0
N605 N 0.22638 0.86637 0.28804 0.0
N606 N 0.30297 0.89385 0.2883 0.0
C607 C 0.29294 0.91083 0.28184 0.0
H608 H 0.25789 0.84876 0.29747 0.0
H609 H 0.22746 0.90233 0.27735 0.0
C610 C 0.15121 0.83466 0.30752 0.0
N611 N 0.0315 0.7856 0.29791 0.0
C612 C 0.00384 0.80042 0.29489 0.0
C613 C 0.00835 0.75965 0.30425 0.0
N614 N 0.96494 0.78587 0.29915 0.0
C615 C 0.96743 0.76021 0.30508 0.0
C616 C 0.12183 0.74512 0.29322 0.0
O617 O 0.18279 0.85112 0.30223 0.0
O618 O 0.1093 0.81351 0.3054 0.0
O619 O 0.08534 0.74767 0.29444 0.0
O620 O 0.15979 0.78181 0.29175 0.0
O621 O 0.0747 0.8045 0.28434 0.0
H622 H 0.02179 0.74421 0.30833 0.0
H623 H 0.01396 0.82497 0.29006 0.0
O624 O 0.14504 0.82831 0.28005 0.0
O625 O 0.17058 0.89825 0.29042 0.0
O626 O 0.10141 0.87121 0.29547 0.0
C627 C 0.13894 0.90525 0.29293 0.0
H628 H 0.31773 0.93391 0.27752 0.0
H629 H 0.94265 0.74495 0.30986 0.0
Co630 Co 0.66115 0.84351 0.88668 0.0
C631 C 0.68259 0.85973 0.87057 0.0
Co632 Co 0.70877 0.9169 0.88362 0.0
C633 C 0.58962 0.74836 0.88438 0.0
C634 C 0.62352 0.75927 0.89558 0.0
N635 N 0.62169 0.78175 0.88907 0.0
N636 N 0.5719 0.70587 0.88765 0.0
C637 C 0.59298 0.71268 0.89472 0.0
H638 H 0.58103 0.75485 0.87852 0.0
H639 H 0.64691 0.77548 0.90049 0.0
C640 C 0.68498 0.90231 0.89953 0.0
N641 N 0.75 0.97898 0.88141 0.0
C642 C 0.79576 0.99839 0.8799 0.0
C643 C 0.7432 0.01521 0.88252 0.0
N644 N 0.81803 0.045 0.88028 0.0
C645 C 0.78489 0.05576 0.88184 0.0
C646 C 0.6165 0.8923 0.88344 0.0
O647 O 0.66243 0.85993 0.8975 0.0
O648 O 0.70958 0.93256 0.89441 0.0
O649 O 0.65703 0.92582 0.88207 0.0
O650 O 0.61079 0.85281 0.88524 0.0
O651 O 0.70714 0.90153 0.87282 0.0
H652 H 0.71076 0.01247 0.88429 0.0
H653 H 0.81329 0.97878 0.87916 0.0
O654 O 0.65984 0.82847 0.87569 0.0
O655 O 0.71127 0.83392 0.88823 0.0
O656 O 0.75951 0.90619 0.88527 0.0
C657 C 0.75241 0.86639 0.8872 0.0
H658 H 0.58723 0.68589 0.89894 0.0
H659 H 0.79062 0.09029 0.88285 0.0
Co660 Co 0.17346 0.78858 0.87716 0.0
C661 C 0.14372 0.79899 0.862 0.0
Co662 Co 0.09937 0.76648 0.87597 0.0
C663 C 0.27231 0.83561 0.88097 0.0
C664 C 0.2532 0.79386 0.87049 0.0
N665 N 0.23528 0.80557 0.87665 0.0
N666 N 0.3123 0.84359 0.87758 0.0
C667 C 0.30037 0.81722 0.87104 0.0
H668 H 0.27017 0.85261 0.88628 0.0
H669 H 0.23324 0.77103 0.8657 0.0
C670 C 0.12804 0.75308 0.89107 0.0
N671 N 0.03683 0.749 0.87612 0.0
C672 C 0.01811 0.77663 0.87677 0.0
C673 C 0.00043 0.70555 0.87675 0.0
N674 N 0.97192 0.7523 0.87791 0.0
C675 C 0.96062 0.70749 0.87783 0.0
C676 C 0.11739 0.69641 0.87271 0.0
O677 O 0.16841 0.77059 0.88804 0.0
O678 O 0.09511 0.75066 0.8869 0.0
O679 O 0.08411 0.70443 0.8733 0.0
O680 O 0.15813 0.7285 0.87416 0.0
O681 O 0.10344 0.78125 0.86499 0.0
H682 H 0.00256 0.67426 0.87682 0.0
H683 H 0.03812 0.81401 0.87688 0.0
O684 O 0.1773 0.80556 0.86638 0.0
O685 O 0.18948 0.84903 0.88005 0.0
O686 O 0.11687 0.82983 0.87857 0.0
C687 C 0.15861 0.86059 0.88002 0.0
H688 H 0.32425 0.81503 0.86695 0.0
H689 H 0.92628 0.67816 0.87874 0.0
Co690 Co 0.21948 0.35402 0.88051 0.0
C691 C 0.20631 0.32025 0.86506 0.0
Co692 Co 0.24788 0.3077 0.87836 0.0
C693 C 0.18575 0.41786 0.87743 0.0
C694 C 0.17415 0.39246 0.88934 0.0
N695 N 0.1941 0.39135 0.88245 0.0
N696 N 0.16093 0.43495 0.88091 0.0
C697 C 0.15391 0.41923 0.88842 0.0
H698 H 0.19617 0.42307 0.87128 0.0
H699 H 0.17304 0.37371 0.89464 0.0
C700 C 0.26466 0.34434 0.89361 0.0
N701 N 0.27106 0.26774 0.87682 0.0
C702 C 0.24625 0.22167 0.87544 0.0
C703 C 0.31398 0.27602 0.87855 0.0
N704 N 0.27143 0.20048 0.87647 0.0
C705 C 0.31435 0.23492 0.87832 0.0
C706 C 0.3098 0.40069 0.87539 0.0
O707 O 0.24325 0.36428 0.89105 0.0
O708 O 0.26839 0.31572 0.88914 0.0
O709 O 0.30628 0.36079 0.87556 0.0
O710 O 0.27502 0.40484 0.87714 0.0
O711 O 0.22851 0.30083 0.86754 0.0
H712 H 0.34227 0.30915 0.88043 0.0
H713 H 0.20968 0.20366 0.87409 0.0
O714 O 0.19719 0.34397 0.86988 0.0
O715 O 0.16377 0.30359 0.88386 0.0
O716 O 0.18856 0.25564 0.88121 0.0
C717 C 0.15628 0.26258 0.88351 0.0
H718 H 0.13539 0.42649 0.89294 0.0
H719 H 0.34325 0.23053 0.87998 0.0
Co720 Co 0.79832 0.73092 0.71323 0.0
C721 C 0.82538 0.69877 0.70056 0.0
Co722 Co 0.82895 0.68928 0.71706 0.0
C723 C 0.79582 0.81395 0.71201 0.0
C724 C 0.74178 0.76154 0.70497 0.0
N725 N 0.77544 0.7687 0.71017 0.0
N726 N 0.77749 0.83581 0.70804 0.0
C727 C 0.74287 0.80301 0.70366 0.0
H728 H 0.82496 0.83116 0.71601 0.0
H729 H 0.71973 0.72903 0.702 0.0
C730 C 0.80119 0.72465 0.72958 0.0
N731 N 0.85482 0.65365 0.72017 0.0
C732 C 0.8586 0.62094 0.71606 0.0
C733 C 0.87899 0.65932 0.72688 0.0
N734 N 0.88453 0.6063 0.71991 0.0
C735 C 0.89712 0.6303 0.72675 0.0
C736 C 0.89427 0.78001 0.7154 0.0
O737 O 0.79308 0.74417 0.72387 0.0
O738 O 0.81548 0.69638 0.72808 0.0
O739 O 0.88718 0.74151 0.718 0.0
O740 O 0.86045 0.78329 0.71274 0.0
O741 O 0.8416 0.68364 0.7059 0.0
H742 H 0.88437 0.68406 0.73148 0.0
H743 H 0.84401 0.60935 0.71022 0.0
O744 O 0.80334 0.71874 0.70265 0.0
O745 O 0.73699 0.67715 0.7136 0.0
O746 O 0.77091 0.63641 0.71611 0.0
C747 C 0.73441 0.63799 0.71465 0.0
H748 H 0.72184 0.80911 0.6995 0.0
H749 H 0.91813 0.62734 0.73134 0.0
Co750 Co 0.33601 0.11367 0.71137 0.0
C751 C 0.37171 0.17588 0.69924 0.0
Co752 Co 0.37944 0.18479 0.71568 0.0
C753 C 0.25544 0.02593 0.71109 0.0
C754 C 0.29835 0.03231 0.7012 0.0
N755 N 0.29728 0.05403 0.70788 0.0
N756 N 0.22996 0.98804 0.70667 0.0
C757 C 0.2565 0.99171 0.7004 0.0
H758 H 0.24228 0.03497 0.71624 0.0
H759 H 0.32637 0.04645 0.69695 0.0
C760 C 0.34133 0.11881 0.72765 0.0
N761 N 0.41553 0.24504 0.7193 0.0
C762 C 0.45067 0.28214 0.71569 0.0
C763 C 0.40751 0.26202 0.72599 0.0
N764 N 0.46447 0.32162 0.71984 0.0
C765 C 0.43747 0.30892 0.72634 0.0
C766 C 0.28933 0.16259 0.71383 0.0
O767 O 0.32204 0.09301 0.72176 0.0
O768 O 0.37053 0.16148 0.72652 0.0
O769 O 0.32822 0.19217 0.71658 0.0
O770 O 0.28428 0.12478 0.7111 0.0
O771 O 0.3872 0.20623 0.70473 0.0
H772 H 0.38049 0.24184 0.73022 0.0
H773 H 0.4646 0.28049 0.70999 0.0
O774 O 0.34955 0.13347 0.70104 0.0
O775 O 0.38862 0.10434 0.71151 0.0
O776 O 0.43126 0.17809 0.71467 0.0
C777 C 0.42824 0.13979 0.71282 0.0
H778 H 0.24573 0.96786 0.69546 0.0
H779 H 0.43906 0.33188 0.73101 0.0
Co780 Co 0.95216 0.27039 0.70955 0.0
C781 C 0.88945 0.24614 0.69752 0.0
Co782 Co 0.88219 0.24685 0.71403 0.0
C783 C 0.03271 0.26391 0.70767 0.0
C784 C 0.03952 0.3214 0.70096 0.0
N785 N 0.01075 0.28744 0.70594 0.0
N786 N 0.07344 0.28095 0.7039 0.0
C787 C 0.07854 0.31766 0.69974 0.0
H788 H 0.01915 0.2346 0.71166 0.0
H789 H 0.03221 0.34652 0.69828 0.0
C790 C 0.94914 0.27221 0.72584 0.0
N791 N 0.82281 0.22627 0.71785 0.0
C792 C 0.78492 0.22063 0.71397 0.0
C793 C 0.80688 0.2063 0.72498 0.0
N794 N 0.74607 0.19745 0.71838 0.0
C795 C 0.75992 0.18874 0.72533 0.0
C796 C 0.89804 0.17488 0.71223 0.0
O797 O 0.97375 0.27616 0.71988 0.0
O798 O 0.90706 0.26132 0.72478 0.0
O799 O 0.87072 0.18686 0.7151 0.0
O800 O 0.93623 0.20581 0.70931 0.0
O801 O 0.85978 0.23317 0.70312 0.0
H802 H 0.82761 0.20265 0.72953 0.0
H803 H 0.78543 0.23123 0.7079 0.0
O804 O 0.932 0.26506 0.69921 0.0
O805 O 0.96564 0.33414 0.70974 0.0
O806 O 0.89242 0.3067 0.71291 0.0
C807 C 0.93166 0.34072 0.71108 0.0
H808 H 0.10764 0.33929 0.69594 0.0
H809 H 0.73765 0.17034 0.73028 0.0
Co810 Co 0.32557 0.08883 0.12929 0.0
C811 C 0.35974 0.10622 0.1139 0.0
Co812 Co 0.37106 0.16333 0.1267 0.0
C813 C 0.23951 0.00395 0.13206 0.0
C814 C 0.29493 0.99123 0.12951 0.0
N815 N 0.28599 0.0256 0.1311 0.0
N816 N 0.21874 0.95775 0.13081 0.0
C817 C 0.25387 0.94967 0.12934 0.0
H818 H 0.22094 0.02224 0.13314 0.0
H819 H 0.32851 0.99641 0.12785 0.0
C820 C 0.33984 0.14516 0.1423 0.0
N821 N 0.40753 0.2257 0.12436 0.0
C822 C 0.43549 0.26183 0.12904 0.0
C823 C 0.40622 0.24501 0.11741 0.0
N824 N 0.45108 0.30282 0.12529 0.0
C825 C 0.43291 0.29222 0.11796 0.0
C826 C 0.27915 0.13382 0.12407 0.0
O827 O 0.32007 0.10312 0.14002 0.0
O828 O 0.36258 0.17732 0.1373 0.0
O829 O 0.31989 0.16755 0.12347 0.0
O830 O 0.27304 0.09521 0.12652 0.0
O831 O 0.37984 0.14808 0.1162 0.0
H832 H 0.38588 0.22602 0.11233 0.0
H833 H 0.44287 0.25823 0.13516 0.0
O834 O 0.33225 0.0747 0.1186 0.0
O835 O 0.37939 0.08465 0.13206 0.0
O836 O 0.42257 0.15971 0.12997 0.0
C837 C 0.41903 0.12142 0.13203 0.0
H838 H 0.2502 0.91681 0.12758 0.0
H839 H 0.43852 0.31683 0.11331 0.0
Co840 Co 0.93863 0.23892 0.12754 0.0
C841 C 0.92252 0.24697 0.1116 0.0
Co842 Co 0.86497 0.21317 0.12476 0.0
C843 C 0.02054 0.23402 0.13097 0.0
C844 C 0.03684 0.30318 0.12826 0.0
N845 N 0.00087 0.26023 0.12957 0.0
N846 N 0.067 0.2583 0.13029 0.0
C847 C 0.07748 0.30209 0.12869 0.0
H848 H 0.0011 0.1969 0.13176 0.0
H849 H 0.03376 0.33267 0.12647 0.0
C850 C 0.88259 0.20849 0.14088 0.0
N851 N 0.80296 0.19003 0.12242 0.0
C852 C 0.76854 0.18759 0.12699 0.0
C853 C 0.7816 0.16544 0.11587 0.0
N854 N 0.72661 0.16189 0.12357 0.0
C855 C 0.73482 0.1482 0.11655 0.0
C856 C 0.88808 0.14495 0.12404 0.0
O857 O 0.92414 0.22556 0.13847 0.0
O858 O 0.85086 0.2001 0.13584 0.0
O859 O 0.85562 0.15376 0.12326 0.0
O860 O 0.9281 0.17738 0.12591 0.0
O861 O 0.88051 0.22757 0.11382 0.0
H862 H 0.79873 0.15883 0.11103 0.0
H863 H 0.77387 0.20253 0.13285 0.0
O864 O 0.95343 0.25331 0.11663 0.0
O865 O 0.94747 0.29955 0.12899 0.0
O866 O 0.87411 0.27269 0.12607 0.0
C867 C 0.91401 0.30659 0.12761 0.0
H868 H 0.11175 0.33068 0.12742 0.0
H869 H 0.7088 0.12681 0.11225 0.0
Co870 Co 0.78945 0.69384 0.12675 0.0
C871 C 0.77377 0.64918 0.11192 0.0
Co872 Co 0.81106 0.64159 0.12575 0.0
C873 C 0.79965 0.78482 0.12742 0.0
C874 C 0.73055 0.73244 0.12451 0.0
N875 N 0.77239 0.73865 0.12653 0.0
N876 N 0.77671 0.80774 0.12591 0.0
C877 C 0.73306 0.77477 0.12414 0.0
H878 H 0.83623 0.80151 0.12874 0.0
H879 H 0.70058 0.69946 0.12306 0.0
C880 C 0.82341 0.68387 0.14066 0.0
N881 N 0.82789 0.59671 0.12643 0.0
C882 C 0.86189 0.59277 0.12281 0.0
C883 C 0.81359 0.56574 0.13244 0.0
N884 N 0.86964 0.56141 0.12649 0.0
C885 C 0.83912 0.5441 0.13248 0.0
C886 C 0.88309 0.72819 0.12255 0.0
O887 O 0.80545 0.70601 0.13761 0.0
O888 O 0.82926 0.65597 0.1364 0.0
O889 O 0.87141 0.6857 0.12262 0.0
O890 O 0.85237 0.73934 0.12391 0.0
O891 O 0.79174 0.62688 0.11499 0.0
H892 H 0.78818 0.56122 0.13685 0.0
H893 H 0.88224 0.61414 0.11789 0.0
O894 O 0.77238 0.68074 0.11593 0.0
O895 O 0.72758 0.64804 0.12971 0.0
O896 O 0.75106 0.59758 0.12901 0.0
C897 C 0.71939 0.60677 0.1305 0.0
H898 H 0.70513 0.78075 0.1225 0.0
H899 H 0.83619 0.51815 0.13666 0.0
Co900 Co 0.89069 0.7084 0.62584 0.0
C901 C 0.91994 0.67223 0.61355 0.0
Co902 Co 0.917 0.66328 0.62986 0.0
C903 C 0.86551 0.78033 0.62604 0.0
C904 C 0.8424 0.73788 0.61566 0.0
N905 N 0.86727 0.74531 0.62235 0.0
N906 N 0.84003 0.79454 0.62194 0.0
C907 C 0.82569 0.76802 0.61539 0.0
H908 H 0.881 0.79383 0.63176 0.0
H909 H 0.83544 0.71109 0.61137 0.0
C910 C 0.88933 0.69713 0.64231 0.0
N911 N 0.93729 0.62388 0.63319 0.0
C912 C 0.92314 0.58225 0.62988 0.0
C913 C 0.95982 0.62411 0.63984 0.0
N914 N 0.93489 0.55599 0.63422 0.0
C915 C 0.95791 0.58191 0.64054 0.0
C916 C 0.9841 0.756 0.62889 0.0
O917 O 0.87664 0.71513 0.63689 0.0
O918 O 0.90865 0.67429 0.64033 0.0
O919 O 0.97916 0.71598 0.63011 0.0
O920 O 0.9493 0.75973 0.627 0.0
O921 O 0.92577 0.6517 0.61934 0.0
H922 H 0.97389 0.65178 0.64416 0.0
H923 H 0.90098 0.56979 0.62472 0.0
O924 O 0.9057 0.70067 0.6149 0.0
O925 O 0.83175 0.65766 0.62478 0.0
O926 O 0.85399 0.61148 0.62971 0.0
C927 C 0.82171 0.61783 0.62716 0.0
H928 H 0.8044 0.77004 0.61076 0.0
H929 H 0.97051 0.57042 0.64545 0.0
Co930 Co 0.33412 0.20797 0.62521 0.0
C931 C 0.3738 0.2725 0.61324 0.0
Co932 Co 0.37625 0.27886 0.62955 0.0
C933 C 0.26439 0.11046 0.62573 0.0
C934 C 0.30432 0.12953 0.61506 0.0
N935 N 0.29793 0.14729 0.6218 0.0
N936 N 0.25 0.07042 0.62173 0.0
C937 C 0.27493 0.08245 0.61499 0.0
H938 H 0.25214 0.11276 0.63155 0.0
H939 H 0.32994 0.14929 0.61059 0.0
C940 C 0.33979 0.21851 0.64174 0.0
N941 N 0.41556 0.33897 0.6328 0.0
C942 C 0.46092 0.36235 0.63096 0.0
C943 C 0.4094 0.36729 0.63773 0.0
N944 N 0.48373 0.40348 0.63463 0.0
C945 C 0.45152 0.40737 0.63884 0.0
C946 C 0.28442 0.25321 0.62746 0.0
O947 O 0.3265 0.18799 0.63627 0.0
O948 O 0.36058 0.2609 0.63989 0.0
O949 O 0.32393 0.28907 0.62872 0.0
O950 O 0.28202 0.21468 0.62604 0.0
O951 O 0.39286 0.29817 0.61916 0.0
H952 H 0.3769 0.35875 0.64053 0.0
H953 H 0.47731 0.34916 0.62704 0.0
O954 O 0.34326 0.23022 0.61433 0.0
O955 O 0.38548 0.20042 0.62436 0.0
O956 O 0.42702 0.26625 0.63046 0.0
C957 C 0.42344 0.22977 0.62742 0.0
H958 H 0.27245 0.05894 0.61035 0.0
H959 H 0.45825 0.43615 0.64265 0.0
Co960 Co 0.83223 0.15732 0.62393 0.0
C961 C 0.76675 0.1262 0.61184 0.0
Co962 Co 0.76041 0.1251 0.62822 0.0
C963 C 0.92995 0.18528 0.62416 0.0
C964 C 0.91125 0.2107 0.61401 0.0
N965 N 0.89333 0.18414 0.62051 0.0
N966 N 0.97008 0.21185 0.62021 0.0
C967 C 0.95826 0.22771 0.6138 0.0
H968 H 0.92734 0.16807 0.62972 0.0
H969 H 0.89153 0.21811 0.60976 0.0
C970 C 0.82243 0.15635 0.64044 0.0
N971 N 0.70007 0.10118 0.63164 0.0
C972 C 0.67127 0.11505 0.6288 0.0
C973 C 0.67899 0.07656 0.63822 0.0
N974 N 0.63371 0.10135 0.6334 0.0
C975 C 0.6382 0.07701 0.63935 0.0
C976 C 0.79172 0.06316 0.62683 0.0
O977 O 0.85263 0.17202 0.63492 0.0
O978 O 0.78005 0.13304 0.63864 0.0
O979 O 0.75488 0.0648 0.62816 0.0
O980 O 0.8288 0.09994 0.62499 0.0
O981 O 0.74004 0.11714 0.61772 0.0
H982 H 0.69391 0.06232 0.64223 0.0
H983 H 0.67984 0.13858 0.62384 0.0
O984 O 0.80991 0.14237 0.61305 0.0
O985 O 0.836 0.2145 0.62291 0.0
O986 O 0.76769 0.18621 0.62839 0.0
C987 C 0.80392 0.22045 0.62555 0.0
H988 H 0.98182 0.24996 0.60927 0.0
H989 H 0.61498 0.06269 0.64436 0.0
Co990 Co 0.32377 0.20727 0.21555 0.0
C991 C 0.3578 0.22501 0.20011 0.0
Co992 Co 0.37206 0.28114 0.21311 0.0
C993 C 0.25945 0.10974 0.21279 0.0
C994 C 0.28326 0.12482 0.22477 0.0
N995 N 0.28545 0.1451 0.21775 0.0
N996 N 0.24167 0.06824 0.21644 0.0
C997 C 0.25636 0.07771 0.22399 0.0
H998 H 0.2552 0.11425 0.20656 0.0
H999 H 0.30148 0.14303 0.23007 0.0
C1000 C 0.33547 0.26459 0.22833 0.0
N1001 N 0.41297 0.34404 0.21138 0.0
C1002 C 0.45946 0.36527 0.21049 0.0
C1003 C 0.40413 0.37888 0.21253 0.0
N1004 N 0.48021 0.4118 0.21127 0.0
C1005 C 0.44517 0.42037 0.21245 0.0
C1006 C 0.27941 0.25143 0.20983 0.0
O1007 O 0.31297 0.22294 0.22593 0.0
O1008 O 0.36547 0.29528 0.22379 0.0
O1009 O 0.31949 0.28748 0.21017 0.0
O1010 O 0.27413 0.2124 0.21183 0.0
O1011 O 0.37793 0.26702 0.20239 0.0
H1012 H 0.37048 0.37432 0.21394 0.0
H1013 H 0.47798 0.34668 0.20969 0.0
O1014 O 0.3341 0.19301 0.20507 0.0
O1015 O 0.37331 0.20122 0.21921 0.0
O1016 O 0.42305 0.27256 0.21601 0.0
C1017 C 0.41487 0.23337 0.21857 0.0
H1018 H 0.24841 0.05241 0.22863 0.0
H1019 H 0.44889 0.45382 0.21377 0.0
Co1020 Co 0.8322 0.15365 0.21557 0.0
C1021 C 0.81472 0.15476 0.1994 0.0
Co1022 Co 0.75912 0.13051 0.21285 0.0
C1023 C 0.92889 0.17902 0.21338 0.0
C1024 C 0.91468 0.19727 0.22476 0.0
N1025 N 0.89388 0.17462 0.21802 0.0
N1026 N 0.97049 0.20408 0.21694 0.0
C1027 C 0.96153 0.21519 0.22412 0.0
H1028 H 0.92433 0.16644 0.20735 0.0
H1029 H 0.89733 0.20275 0.2297 0.0
C1030 C 0.77488 0.12566 0.22886 0.0
N1031 N 0.69826 0.11306 0.21074 0.0
C1032 C 0.67642 0.13413 0.21387 0.0
C1033 C 0.66701 0.08047 0.20585 0.0
N1034 N 0.63323 0.11683 0.21105 0.0
C1035 C 0.62668 0.0826 0.20605 0.0
C1036 C 0.7786 0.05945 0.21349 0.0
O1037 O 0.81645 0.14246 0.22654 0.0
O1038 O 0.74418 0.11997 0.22384 0.0
O1039 O 0.74609 0.068 0.21209 0.0
O1040 O 0.81946 0.0925 0.21478 0.0
O1041 O 0.77354 0.13976 0.20184 0.0
H1042 H 0.67347 0.05748 0.20225 0.0
H1043 H 0.69202 0.16205 0.21813 0.0
O1044 O 0.84642 0.16339 0.20445 0.0
O1045 O 0.84507 0.21465 0.21648 0.0
O1046 O 0.77348 0.19385 0.21367 0.0
C1047 C 0.81431 0.22552 0.2153 0.0
H1048 H 0.98714 0.2357 0.22854 0.0
H1049 H 0.5957 0.06183 0.20261 0.0
Co1050 Co 0.88899 0.72831 0.21373 0.0
C1051 C 0.8771 0.68566 0.19888 0.0
Co1052 Co 0.91112 0.67642 0.21284 0.0
C1053 C 0.83852 0.77759 0.21679 0.0
C1054 C 0.88506 0.80315 0.20691 0.0
N1055 N 0.87157 0.7728 0.213 0.0
N1056 N 0.83055 0.80893 0.21314 0.0
C1057 C 0.85995 0.82527 0.20699 0.0
H1058 H 0.81905 0.75692 0.22183 0.0
H1059 H 0.9098 0.80713 0.2024 0.0
C1060 C 0.92631 0.72152 0.22761 0.0
N1061 N 0.92885 0.63226 0.21314 0.0
C1062 C 0.90333 0.58669 0.21149 0.0
C1063 C 0.96961 0.63841 0.21581 0.0
N1064 N 0.92643 0.56401 0.2131 0.0
C1065 C 0.96826 0.5966 0.21579 0.0
C1066 C 0.98079 0.7636 0.20908 0.0
O1067 O 0.90825 0.74356 0.22448 0.0
O1068 O 0.92785 0.68986 0.22366 0.0
O1069 O 0.97279 0.72244 0.20992 0.0
O1070 O 0.94886 0.77261 0.21046 0.0
O1071 O 0.89539 0.66393 0.20197 0.0
H1072 H 0.99785 0.6709 0.21794 0.0
H1073 H 0.86815 0.57039 0.20931 0.0
O1074 O 0.87085 0.71341 0.2031 0.0
O1075 O 0.82887 0.68378 0.2169 0.0
O1076 O 0.84859 0.63051 0.21568 0.0
C1077 C 0.81767 0.64139 0.21705 0.0
H1078 H 0.86253 0.851 0.20279 0.0
H1079 H 0.99526 0.59043 0.21794 0.0
H1080 H 0.40635 0.1639 0.10153 0.0
H1081 H 0.43654 0.97475 0.07702 0.0
H1082 H 0.34396 0.02119 0.10894 0.0
H1083 H 0.45924 0.10396 0.06721 0.0
H1084 H 0.41188 0.99391 0.08954 0.0
H1085 H 0.4339 0.14473 0.0895 0.0
C1086 C 0.39808 0.12843 0.1006 0.0
C1087 C 0.37249 0.09406 0.10623 0.0
C1088 C 0.42257 0.01809 0.08464 0.0
C1089 C 0.40481 0.07199 0.09252 0.0
C1090 C 0.43705 0.00737 0.07754 0.0
C1091 C 0.44981 0.03775 0.07108 0.0
C1092 C 0.42158 0.0597 0.08527 0.0
C1093 C 0.4494 0.07939 0.07204 0.0
C1094 C 0.41396 0.11751 0.09374 0.0
C1095 C 0.36314 0.0487 0.10471 0.0
N1096 N 0.43553 0.08908 0.07897 0.0
N1097 N 0.37953 0.03902 0.09803 0.0
H1098 H 0.0088 0.3118 0.10632 0.0
H1099 H 0.92255 0.32963 0.06309 0.0
H1100 H 0.86655 0.2316 0.09873 0.0
H1101 H 0.05037 0.43862 0.07286 0.0
H1102 H 0.9051 0.28892 0.07568 0.0
H1103 H 0.0284 0.35317 0.09364 0.0
C1104 C 0.98179 0.30234 0.10195 0.0
C1105 C 0.93591 0.26792 0.10359 0.0
C1106 C 0.9369 0.3218 0.07511 0.0
C1107 C 0.9582 0.31553 0.0891 0.0
C1108 C 0.94702 0.34515 0.0679 0.0
C1109 C 0.9881 0.38771 0.0669 0.0
C1110 C 0.96828 0.34058 0.08141 0.0
C1111 C 0.01824 0.40604 0.07339 0.0
C1112 C 0.99299 0.32635 0.09475 0.0
C1113 C 0.90235 0.2577 0.09773 0.0
N1114 N 0.0079 0.38217 0.08036 0.0
N1115 N 0.91418 0.2813 0.09076 0.0
H1116 H 0.57401 0.5891 0.07429 0.0
H1117 H 0.77428 0.58932 0.1007 0.0
H1118 H 0.66707 0.54485 0.0655 0.0
H1119 H 0.71493 0.67567 0.10576 0.0
H1120 H 0.72728 0.56256 0.08861 0.0
H1121 H 0.61615 0.60941 0.08698 0.0
C1122 C 0.60268 0.5829 0.07509 0.0
C1123 C 0.61725 0.56554 0.06884 0.0
C1124 C 0.72475 0.5875 0.09237 0.0
C1125 C 0.6655 0.58866 0.08323 0.0
C1126 C 0.75172 0.60291 0.09925 0.0
C1127 C 0.749 0.63515 0.10422 0.0
C1128 C 0.69426 0.60382 0.09052 0.0
C1129 C 0.71867 0.65119 0.10207 0.0
C1130 C 0.62697 0.59485 0.08228 0.0
C1131 C 0.65493 0.55852 0.07014 0.0
N1132 N 0.69237 0.63521 0.09542 0.0
N1133 N 0.67773 0.57011 0.07717 0.0
H1134 H 0.99149 0.36794 0.44038 0.0
H1135 H 0.11359 0.45164 0.39818 0.0
H1136 H 0.06551 0.51077 0.43284 0.0
H1137 H 0.07258 0.316 0.4075 0.0
H1138 H 0.09074 0.47165 0.41055 0.0
H1139 H 0.01335 0.34573 0.42797 0.0
C1140 C 0.01159 0.39456 0.43606 0.0
C1141 C 0.02654 0.44136 0.43765 0.0
C1142 C 0.08693 0.43758 0.40996 0.0
C1143 C 0.05218 0.41613 0.42351 0.0
C1144 C 0.10005 0.42609 0.40288 0.0
C1145 C 0.09495 0.38203 0.40181 0.0
C1146 C 0.06788 0.40466 0.41604 0.0
C1147 C 0.07737 0.35044 0.40811 0.0
C1148 C 0.0245 0.38185 0.42902 0.0
C1149 C 0.05306 0.47432 0.43188 0.0
N1150 N 0.064 0.36223 0.41496 0.0
N1151 N 0.06502 0.46107 0.42508 0.0
H1152 H 0.51311 0.59965 0.43759 0.0
H1153 H 0.70019 0.79919 0.40942 0.0
H1154 H 0.65977 0.67143 0.44246 0.0
H1155 H 0.57079 0.68785 0.40061 0.0
H1156 H 0.68161 0.76165 0.42253 0.0
H1157 H 0.52961 0.63988 0.42475 0.0
C1158 C 0.54868 0.62361 0.43595 0.0
C1159 C 0.58507 0.6317 0.44108 0.0
C1160 C 0.65728 0.74567 0.41771 0.0
C1161 C 0.60406 0.67871 0.42654 0.0
C1162 C 0.66776 0.76722 0.41027 0.0
C1163 C 0.63721 0.74647 0.40391 0.0
C1164 C 0.61555 0.70368 0.41884 0.0
C1165 C 0.59561 0.70486 0.40533 0.0
C1166 C 0.55807 0.64661 0.42865 0.0
C1167 C 0.63056 0.66355 0.43867 0.0
N1168 N 0.58596 0.68495 0.41262 0.0
N1169 N 0.6387 0.68604 0.43163 0.0
H1170 H 0.31888 0.89518 0.39946 0.0
H1171 H 0.37939 0.04534 0.43904 0.0
H1172 H 0.23675 0.95387 0.4076 0.0
H1173 H 0.44206 0.96399 0.43247 0.0
H1174 H 0.32866 0.01525 0.42746 0.0
H1175 H 0.36416 0.92078 0.41157 0.0
C1176 C 0.30993 0.91292 0.40389 0.0
C1177 C 0.27397 0.92236 0.40254 0.0
C1178 C 0.35359 0.00412 0.42855 0.0
C1179 C 0.32668 0.95299 0.41642 0.0
C1180 C 0.38293 0.02162 0.43511 0.0
C1181 C 0.41531 0.00739 0.43672 0.0
C1182 C 0.35681 0.97235 0.42351 0.0
C1183 C 0.41784 0.97613 0.43147 0.0
C1184 C 0.33598 0.92774 0.4108 0.0
C1185 C 0.26392 0.94553 0.40846 0.0
N1186 N 0.38906 0.95976 0.42512 0.0
N1187 N 0.29059 0.96063 0.41512 0.0
H1188 H 0.62925 0.05381 0.93563 0.0
H1189 H 0.63509 0.8478 0.91201 0.0
H1190 H 0.57106 0.91378 0.9442 0.0
H1191 H 0.71148 0.9905 0.90441 0.0
H1192 H 0.60879 0.8717 0.92361 0.0
H1193 H 0.65457 0.03119 0.92353 0.0
C1194 C 0.62097 0.01822 0.93488 0.0
C1195 C 0.59821 0.9856 0.94089 0.0
C1196 C 0.63161 0.89792 0.91944 0.0
C1197 C 0.62748 0.95977 0.92728 0.0
C1198 C 0.64696 0.88426 0.91284 0.0
C1199 C 0.67567 0.91714 0.90724 0.0
C1200 C 0.64472 0.94479 0.92044 0.0
C1201 C 0.6896 0.96395 0.90861 0.0
C1202 C 0.63587 0.00543 0.92805 0.0
C1203 C 0.58882 0.94006 0.93972 0.0
N1204 N 0.67372 0.97636 0.91504 0.0
N1205 N 0.60361 0.92859 0.93309 0.0
H1206 H 0.18838 0.76379 0.90314 0.0
H1207 H 0.9943 0.56605 0.93072 0.0
H1208 H 0.04326 0.69121 0.89708 0.0
H1209 H 0.12315 0.67664 0.93986 0.0
H1210 H 0.01543 0.60279 0.91755 0.0
H1211 H 0.1686 0.72393 0.91601 0.0
C1212 C 0.15244 0.73967 0.90452 0.0
C1213 C 0.11746 0.73126 0.89904 0.0
C1214 C 0.03905 0.61878 0.92246 0.0
C1215 C 0.09469 0.68476 0.91366 0.0
C1216 C 0.02711 0.5977 0.92994 0.0
C1217 C 0.0568 0.61846 0.93641 0.0
C1218 C 0.08135 0.66031 0.92141 0.0
C1219 C 0.09894 0.65963 0.93507 0.0
C1220 C 0.14116 0.71689 0.91185 0.0
C1221 C 0.0714 0.69927 0.90114 0.0
N1222 N 0.10997 0.67906 0.92774 0.0
N1223 N 0.06141 0.67705 0.90824 0.0
H1224 H 0.46982 0.42616 0.93141 0.0
H1225 H 0.25376 0.39378 0.90549 0.0
H1226 H 0.36517 0.45578 0.93978 0.0
H1227 H 0.33351 0.32909 0.89914 0.0
H1228 H 0.2999 0.42361 0.91752 0.0
H1229 H 0.42706 0.39869 0.91881 0.0
C1230 C 0.43839 0.4276 0.93055 0.0
C1231 C 0.42098 0.44316 0.93666 0.0
C1232 C 0.30723 0.40268 0.91352 0.0
C1233 C 0.37195 0.41171 0.92236 0.0
C1234 C 0.28072 0.38547 0.90666 0.0
C1235 C 0.28942 0.35852 0.90131 0.0
C1236 C 0.34331 0.3935 0.91506 0.0
C1237 C 0.32519 0.34926 0.90313 0.0
C1238 C 0.41377 0.41152 0.92341 0.0
C1239 C 0.37978 0.44382 0.93526 0.0
N1240 N 0.35099 0.36692 0.90983 0.0
N1241 N 0.35681 0.42837 0.9283 0.0
H1242 H 0.94668 0.72754 0.60009 0.0
H1243 H 0.97284 0.54066 0.57394 0.0
H1244 H 0.91883 0.59423 0.60871 0.0
H1245 H 0.03829 0.68488 0.56737 0.0
H1246 H 0.94572 0.55839 0.58617 0.0
H1247 H 0.9722 0.711 0.58739 0.0
C1248 C 0.94534 0.69467 0.59928 0.0
C1249 C 0.93072 0.66232 0.60548 0.0
C1250 C 0.96621 0.58628 0.58208 0.0
C1251 C 0.95984 0.64324 0.59104 0.0
C1252 C 0.98184 0.57616 0.57509 0.0
C1253 C 0.00825 0.61134 0.56963 0.0
C1254 C 0.97639 0.63189 0.58362 0.0
C1255 C 0.01847 0.6567 0.57145 0.0
C1256 C 0.96027 0.6854 0.59207 0.0
C1257 C 0.93008 0.62039 0.60413 0.0
N1258 N 0.00233 0.66564 0.57826 0.0
N1259 N 0.94433 0.61213 0.5971 0.0
H1260 H 0.53015 0.47226 0.57715 0.0
H1261 H 0.32011 0.25977 0.60003 0.0
H1262 H 0.38707 0.4135 0.5702 0.0
H1263 H 0.46012 0.33573 0.60878 0.0
H1264 H 0.3448 0.30949 0.58816 0.0
H1265 H 0.50551 0.41825 0.58828 0.0
C1266 C 0.49352 0.44849 0.57803 0.0
C1267 C 0.46069 0.44766 0.57275 0.0
C1268 C 0.37014 0.31481 0.59265 0.0
C1269 C 0.43221 0.38485 0.58538 0.0
C1270 C 0.35615 0.28608 0.59935 0.0
C1271 C 0.38816 0.29385 0.60536 0.0
C1272 C 0.41638 0.35105 0.592 0.0
C1273 C 0.43435 0.32883 0.60428 0.0
C1274 C 0.47945 0.41735 0.58435 0.0
C1275 C 0.41365 0.41565 0.57414 0.0
N1276 N 0.447 0.35622 0.59777 0.0
N1277 N 0.40084 0.38538 0.58029 0.0
H1278 H 0.68806 0.12571 0.60771 0.0
H1279 H 0.67425 0.03101 0.56403 0.0
H1280 H 0.79828 0.10969 0.5977 0.0
H1281 H 0.59444 0.09352 0.57164 0.0
H1282 H 0.71615 0.05328 0.57659 0.0
H1283 H 0.65026 0.10864 0.59484 0.0
C1284 C 0.70446 0.11869 0.60278 0.0
C1285 C 0.74639 0.1189 0.6038 0.0
C1286 C 0.68954 0.06218 0.57551 0.0
C1287 C 0.70267 0.09879 0.58899 0.0
C1288 C 0.66525 0.04916 0.56836 0.0
C1289 C 0.63042 0.06014 0.56678 0.0
C1290 C 0.67864 0.08584 0.5812 0.0
C1291 C 0.62081 0.08417 0.5726 0.0
C1292 C 0.68282 0.10909 0.59542 0.0
C1293 C 0.76607 0.10995 0.59717 0.0
N1294 N 0.64457 0.09593 0.57957 0.0
N1295 N 0.74375 0.09972 0.59005 0.0
H1296 H 0.80558 0.80401 0.73467 0.0
H1297 H 0.69063 0.70535 0.77665 0.0
H1298 H 0.77852 0.67064 0.7431 0.0
H1299 H 0.7677 0.85197 0.77173 0.0
H1300 H 0.71569 0.69038 0.76395 0.0
H1301 H 0.78633 0.82075 0.74776 0.0
C1302 C 0.79582 0.77827 0.7393 0.0
C1303 C 0.79358 0.73574 0.73778 0.0
C1304 C 0.72714 0.72582 0.76564 0.0
C1305 C 0.77067 0.75459 0.75279 0.0
C1306 C 0.71252 0.73449 0.77287 0.0
C1307 C 0.72678 0.78011 0.77527 0.0
C1308 C 0.75573 0.76289 0.76066 0.0
C1309 C 0.75566 0.8163 0.77013 0.0
C1310 C 0.78492 0.78797 0.74678 0.0
C1311 C 0.7809 0.70389 0.74402 0.0
N1312 N 0.76889 0.80689 0.76305 0.0
N1313 N 0.76935 0.71372 0.75123 0.0
H1314 H 0.34179 0.98259 0.77115 0.0
H1315 H 0.25593 0.05528 0.73246 0.0
H1316 H 0.19827 0.92372 0.7645 0.0
H1317 H 0.39727 0.13137 0.74056 0.0
H1318 H 0.23485 0.00752 0.74431 0.0
H1319 H 0.3638 0.03592 0.75991 0.0
C1320 C 0.31492 0.98042 0.76727 0.0
C1321 C 0.26803 0.94837 0.76875 0.0
C1322 C 0.27041 0.03493 0.74359 0.0
C1323 C 0.29309 0.00989 0.75596 0.0
C1324 C 0.28242 0.06242 0.73684 0.0
C1325 C 0.32837 0.09735 0.73556 0.0
C1326 C 0.30472 0.04177 0.74909 0.0
C1327 C 0.36138 0.10506 0.74138 0.0
C1328 C 0.32754 0.01124 0.7609 0.0
C1329 C 0.23479 0.94762 0.76358 0.0
N1330 N 0.34901 0.077 0.74788 0.0
N1331 N 0.24797 0.97788 0.75743 0.0
H1332 H 0.92424 0.29842 0.73972 0.0
H1333 H 0.13277 0.30576 0.76447 0.0
H1334 H 0.02489 0.26705 0.7299 0.0
H1335 H 0.05836 0.37316 0.7725 0.0
H1336 H 0.08973 0.28678 0.75204 0.0
H1337 H 0.96774 0.3197 0.75228 0.0
C1338 C 0.95508 0.29555 0.74023 0.0
C1339 C 0.97104 0.28112 0.73376 0.0
C1340 C 0.08308 0.30611 0.75649 0.0
C1341 C 0.02083 0.30542 0.748 0.0
C1342 C 0.10787 0.31717 0.76357 0.0
C1343 C 0.0994 0.3413 0.76953 0.0
C1344 C 0.049 0.31864 0.75536 0.0
C1345 C 0.06634 0.35484 0.76805 0.0
C1346 C 0.98009 0.30805 0.74736 0.0
C1347 C 0.01142 0.27831 0.73472 0.0
N1348 N 0.04203 0.34296 0.76115 0.0
N1349 N 0.03477 0.29027 0.74167 0.0
H1350 H 0.18653 0.31133 0.2661 0.0
H1351 H 0.38967 0.3411 0.23735 0.0
H1352 H 0.32905 0.37841 0.27356 0.0
H1353 H 0.25318 0.22054 0.23636 0.0
H1354 H 0.36671 0.36657 0.24928 0.0
H1355 H 0.20898 0.28998 0.25354 0.0
C1356 C 0.22261 0.32249 0.26499 0.0
C1357 C 0.25615 0.34691 0.27079 0.0
C1358 C 0.3419 0.33447 0.24645 0.0
C1359 C 0.28188 0.32271 0.2566 0.0
C1360 C 0.35499 0.31985 0.23967 0.0
C1361 C 0.32347 0.27836 0.23591 0.0
C1362 C 0.29659 0.30807 0.24938 0.0
C1363 C 0.27878 0.2524 0.23914 0.0
C1364 C 0.2353 0.3099 0.2579 0.0
C1365 C 0.30231 0.35977 0.26919 0.0
N1366 N 0.26651 0.26787 0.24565 0.0
N1367 N 0.31389 0.34771 0.26223 0.0
H1368 H 0.77719 0.04017 0.27707 0.0
H1369 H 0.68828 0.06255 0.23431 0.0
H1370 H 0.64794 0.9329 0.26743 0.0
H1371 H 0.83109 0.14087 0.24166 0.0
H1372 H 0.669 0.02056 0.24693 0.0
H1373 H 0.79386 0.08199 0.2646 0.0
C1374 C 0.75227 0.02524 0.2723 0.0
C1375 C 0.71101 0.98286 0.27331 0.0
C1376 C 0.70445 0.04717 0.24579 0.0
C1377 C 0.72988 0.03131 0.25895 0.0
C1378 C 0.71545 0.07159 0.23863 0.0
C1379 C 0.76143 0.10554 0.23693 0.0
C1380 C 0.73955 0.05714 0.25134 0.0
C1381 C 0.79522 0.11516 0.24272 0.0
C1382 C 0.76191 0.04924 0.26517 0.0
C1383 C 0.68025 0.96529 0.26689 0.0
N1384 N 0.7836 0.09114 0.24965 0.0
N1385 N 0.69013 0.98981 0.25999 0.0
H1386 H 0.92597 0.78215 0.23867 0.0
H1387 H 0.12716 0.78471 0.26512 0.0
H1388 H 0.98535 0.69557 0.23384 0.0
H1389 H 0.03336 0.82821 0.27384 0.0
H1390 H 0.08509 0.76401 0.25242 0.0
H1391 H 0.97344 0.81 0.2507 0.0
C1392 C 0.94863 0.76874 0.24016 0.0
C1393 C 0.95123 0.73612 0.23527 0.0
C1394 C 0.07412 0.77853 0.25711 0.0
C1395 C 0.0065 0.76869 0.24888 0.0
C1396 C 0.09837 0.79071 0.2643 0.0
C1397 C 0.0835 0.80789 0.27052 0.0
C1398 C 0.03538 0.78437 0.25614 0.0
C1399 C 0.04569 0.81466 0.2692 0.0
C1400 C 0.97587 0.78478 0.247 0.0
C1401 C 0.98171 0.72033 0.23746 0.0
N1402 N 0.02293 0.80285 0.26218 0.0
N1403 N 0.00826 0.73692 0.24407 0.0
H1404 H 0.42509 0.98468 0.02244 0.0
H1405 H 0.61417 0.02528 0.98967 0.0
H1406 H 0.55272 0.98683 0.02766 0.0
H1407 H 0.48711 0.02425 0.98441 0.0
H1408 H 0.59259 0.01222 0.00358 0.0
H1409 H 0.44574 0.996 0.00846 0.0
C1410 C 0.45719 0.9867 0.02061 0.0
C1411 C 0.48737 0.98491 0.02621 0.0
C1412 C 0.56949 0.01517 0.99943 0.0
C1413 C 0.51169 -0.00104 0.0102 0.0
C1414 C 0.58191 0.02298 0.99148 0.0
C1415 C 0.55227 0.02576 0.98587 0.0
C1416 C 0.52691 0.00983 1.00183 0.0
C1417 C 0.51107 0.02268 0.98855 0.0
C1418 C 0.4691 0.99356 0.01263 0.0
C1419 C 0.52837 0.98766 0.02352 0.0
N1420 N 0.49938 0.01445 0.99635 0.0
N1421 N 0.53958 0.99503 0.0157 0.0
H1422 H 0.03883 0.60717 0.98597 0.0
H1423 H 0.01348 0.421 0.01825 0.0
H1424 H 0.9952 0.46466 0.9805 0.0
H1425 H 0.0491 0.56068 0.02435 0.0
H1426 H 0.00985 0.43802 0.00441 0.0
H1427 H 0.04371 0.5916 0.99992 0.0
C1428 C 0.02992 0.57239 0.98771 0.0
C1429 C 0.01664 0.5371 0.98203 0.0
C1430 C 0.01861 0.46512 0.00873 0.0
C1431 C 0.02269 0.51929 0.99807 0.0
C1432 C 0.02085 0.45553 0.01668 0.0
C1433 C 0.03131 0.48944 0.02251 0.0
C1434 C 0.02684 0.50906 0.00651 0.0
C1435 C 0.041 0.53357 0.02006 0.0
C1436 C 0.03289 0.56366 0.99569 0.0
C1437 C 0.00544 0.49284 0.98466 0.0
N1438 N 0.03825 0.54206 0.01223 0.0
N1439 N 0.00895 0.48528 0.99249 0.0
H1440 H 0.60754 0.58974 0.01996 0.0
H1441 H 0.43461 0.43653 0.9856 0.0
H1442 H 0.46691 0.48113 0.0242 0.0
H1443 H 0.57455 0.54611 0.98115 0.0
H1444 H 0.44642 0.45229 0.99968 0.0
H1445 H 0.59569 0.57544 0.00581 0.0
C1446 C 0.5739 0.56299 0.01791 0.0
C1447 C 0.53813 0.53633 0.0233 0.0
C1448 C 0.47468 0.4729 0.99566 0.0
C1449 C 0.52461 0.51959 0.007 0.0
C1450 C 0.46809 0.4639 0.98758 0.0
C1451 C 0.50367 0.49026 0.98214 0.0
C1452 C 0.51722 0.50864 0.9984 0.0
C1453 C 0.54626 0.52489 0.98512 0.0
C1454 C 0.5673 0.55482 0.0098 0.0
C1455 C 0.49535 0.50252 0.02027 0.0
N1456 N 0.55179 0.53324 0.99306 0.0
N1457 N 0.48988 0.49491 0.01231 0.0
H1458 H 0.00118 0.48033 0.52586 0.0
H1459 H 0.08556 0.58378 0.4822 0.0
H1460 H 0.09167 0.62594 0.52123 0.0
H1461 H 0.99053 0.43955 0.48719 0.0
H1462 H 0.09119 0.59999 0.49644 0.0
H1463 H 0.00043 0.46473 0.51173 0.0
C1464 C 0.0212 0.50905 0.52189 0.0
C1465 C 0.04647 0.55456 0.52477 0.0
C1466 C 0.06916 0.56481 0.49441 0.0
C1467 C 0.04548 0.5369 0.50849 0.0
C1468 C 0.0659 0.55552 0.48627 0.0
C1469 C 0.03742 0.51023 0.48347 0.0
C1470 C 0.04384 0.52855 0.49979 0.0
C1471 C 0.01284 0.47503 0.48905 0.0
C1472 C 0.02064 0.50011 0.5138 0.0
C1473 C 0.07166 0.5903 0.51929 0.0
N1474 N 0.01661 0.48494 0.49691 0.0
N1475 N 0.07039 0.58074 0.51143 0.0
H1476 H 0.63979 0.59425 0.48968 0.0
H1477 H 0.45544 0.51633 0.52503 0.0
H1478 H 0.4918 0.53092 0.48674 0.0
H1479 H 0.6002 0.56452 0.52924 0.0
H1480 H 0.47069 0.52612 0.51091 0.0
H1481 H 0.62835 0.5862 0.50412 0.0
C1482 C 0.60499 0.57831 0.49206 0.0
C1483 C 0.56673 0.56338 0.48699 0.0
C1484 C 0.4993 0.53471 0.51489 0.0
C1485 C 0.55353 0.55466 0.50341 0.0
C1486 C 0.4906 0.52927 0.52299 0.0
C1487 C 0.52655 0.53945 0.52834 0.0
C1488 C 0.54435 0.55043 0.51206 0.0
C1489 C 0.57145 0.5563 0.52532 0.0
C1490 C 0.59851 0.57394 0.50028 0.0
C1491 C 0.52241 0.54316 0.49038 0.0
N1492 N 0.57911 0.56112 0.51736 0.0
N1493 N 0.51715 0.53962 0.49835 0.0
H1494 H 0.50202 0.05559 0.52333 0.0
H1495 H 0.54749 0.99873 0.47926 0.0
H1496 H 0.5745 0.98168 0.51814 0.0
H1497 H 0.48542 0.08227 0.48466 0.0
H1498 H 0.55673 0.99088 0.49343 0.0
H1499 H 0.49256 0.06243 0.50916 0.0
C1500 C 0.51555 0.04035 0.51921 0.0
C1501 C 0.53919 0.01809 0.52194 0.0
C1502 C 0.54132 0.01113 0.49152 0.0
C1503 C 0.52893 0.02632 0.50567 0.0
C1504 C 0.53625 0.01585 0.48342 0.0
C1505 C 0.51564 0.04123 0.48075 0.0
C1506 C 0.52552 0.03177 0.497 0.0
C1507 C 0.50155 0.06243 0.48643 0.0
C1508 C 0.51037 0.04454 0.51111 0.0
C1509 C 0.55604 -0.00086 0.51631 0.0
N1510 N 0.50655 0.05703 0.49427 0.0
N1511 N 0.55073 0.00384 0.50845 0.0
H1512 H 0.14579 0.38641 0.31477 0.0
H1513 H 0.20066 0.33006 0.35846 0.0
H1514 H 0.25791 0.36128 0.32008 0.0
H1515 H 0.08533 0.34959 0.35284 0.0
H1516 H 0.22191 0.34019 0.34436 0.0
H1517 H 0.12434 0.37523 0.32884 0.0
C1518 C 0.16625 0.37925 0.3189 0.0
C1519 C 0.20352 0.37463 0.31624 0.0
C1520 C 0.19176 0.34193 0.34623 0.0
C1521 C 0.17891 0.361 0.33228 0.0
C1522 C 0.17943 0.33567 0.35426 0.0
C1523 C 0.14138 0.3392 0.35683 0.0
C1524 C 0.16579 0.35174 0.34078 0.0
C1525 C 0.11525 0.34698 0.35113 0.0
C1526 C 0.1538 0.3724 0.32692 0.0
C1527 C 0.22865 0.36486 0.32185 0.0
N1528 N 0.12807 0.35325 0.34341 0.0
N1529 N 0.21581 0.3582 0.32958 0.0
H1530 H 0.64975 0.75989 0.35435 0.0
H1531 H 0.69368 0.95283 0.32214 0.0
H1532 H 0.70115 0.90377 0.36 0.0
H1533 H 0.64749 0.81059 0.31598 0.0
H1534 H 0.69462 0.93438 0.33598 0.0
H1535 H 0.64829 0.77725 0.34039 0.0
C1536 C 0.66099 0.79531 0.35266 0.0
C1537 C 0.67555 0.8305 0.3584 0.0
C1538 C 0.68417 0.90705 0.33164 0.0
C1539 C 0.67357 0.85041 0.34232 0.0
C1540 C 0.68351 0.91747 0.32369 0.0
C1541 C 0.67067 0.88319 0.31783 0.0
C1542 C 0.67192 0.86189 0.33386 0.0
C1543 C 0.65756 0.83806 0.32028 0.0
C1544 C 0.66002 0.80508 0.34466 0.0
C1545 C 0.68976 0.8756 0.35581 0.0
N1546 N 0.65869 0.82873 0.32812 0.0
N1547 N 0.68825 0.88421 0.34796 0.0
H1548 H 0.23282 0.8952 0.3151 0.0
H1549 H 0.11708 0.83011 0.35844 0.0
H1550 H 0.09109 0.78965 0.31952 0.0
H1551 H 0.25826 0.9365 0.35387 0.0
H1552 H 0.10592 0.81557 0.34411 0.0
H1553 H 0.24332 0.91013 0.3294 0.0
C1554 C 0.20417 0.87489 0.31907 0.0
C1555 C 0.16106 0.84138 0.3161 0.0
C1556 C 0.13927 0.84225 0.34627 0.0
C1557 C 0.17238 0.8585 0.3324 0.0
C1558 C 0.14542 0.85073 0.35443 0.0
C1559 C 0.18865 0.88425 0.35735 0.0
C1560 C 0.17661 0.86759 0.34105 0.0
C1561 C 0.22441 0.9099 0.3519 0.0
C1562 C 0.20997 0.88358 0.32722 0.0
C1563 C 0.12492 0.81615 0.32152 0.0
N1564 N 0.21766 0.90089 0.34404 0.0
N1565 N 0.13134 0.82534 0.32938 0.0
H1566 H 0.71164 0.88072 0.81994 0.0
H1567 H 0.63417 0.77411 0.86344 0.0
H1568 H 0.63306 0.73327 0.8241 0.0
H1569 H 0.72398 0.91915 0.85822 0.0
H1570 H 0.62904 0.75724 0.8492 0.0
H1571 H 0.7109 0.89414 0.83401 0.0
C1572 C 0.69393 0.851 0.82382 0.0
C1573 C 0.67257 0.8057 0.82081 0.0
C1574 C 0.64985 0.79269 0.8512 0.0
C1575 C 0.67192 0.82104 0.8371 0.0
C1576 C 0.65287 0.80237 0.85932 0.0
C1577 C 0.67964 0.84816 0.86204 0.0
C1578 C 0.6736 0.8291 0.84578 0.0
C1579 C 0.703 0.88335 0.85643 0.0
C1580 C 0.69364 0.85876 0.83189 0.0
C1581 C 0.64998 0.76874 0.82617 0.0
N1582 N 0.69936 0.87306 0.8486 0.0
N1583 N 0.65043 0.77721 0.83408 0.0
H1584 H 0.22712 0.84318 0.85458 0.0
H1585 H 0.12483 0.81342 0.81082 0.0
H1586 H 0.08043 0.77793 0.84992 0.0
H1587 H 0.26947 0.8681 0.81626 0.0
H1588 H 0.10686 0.80018 0.82497 0.0
H1589 H 0.24225 0.85446 0.84048 0.0
C1590 C 0.19796 0.83141 0.85059 0.0
C1591 C 0.15233 0.80941 0.85345 0.0
C1592 C 0.14245 0.81482 0.82305 0.0
C1593 C 0.16963 0.82201 0.83718 0.0
C1594 C 0.15276 0.82221 0.81498 0.0
C1595 C 0.1988 0.842 0.81235 0.0
C1596 C 0.17845 0.82744 0.82853 0.0
C1597 C 0.23352 0.85284 0.818 0.0
C1598 C 0.2067 0.83774 0.84251 0.0
C1599 C 0.11612 0.79512 0.84797 0.0
N1600 N 0.22263 0.84561 0.82581 0.0
N1601 N 0.12553 0.80153 0.84007 0.0
H1602 H 0.18639 0.28378 0.81385 0.0
H1603 H 0.16099 0.35974 0.85783 0.0
H1604 H 0.12981 0.37212 0.81926 0.0
H1605 H 0.22388 0.27653 0.85284 0.0
H1606 H 0.1458 0.36085 0.84373 0.0
H1607 H 0.19757 0.27756 0.82806 0.0
C1608 C 0.17629 0.30184 0.81801 0.0
C1609 C 0.15724 0.32864 0.81533 0.0
C1610 C 0.16276 0.34215 0.84571 0.0
C1611 C 0.16981 0.32152 0.83162 0.0
C1612 C 0.17135 0.34138 0.85378 0.0
C1613 C 0.19386 0.31806 0.85655 0.0
C1614 C 0.17677 0.31949 0.8403 0.0
C1615 C 0.20646 0.29498 0.85098 0.0
C1616 C 0.18266 0.29825 0.82613 0.0
C1617 C 0.14474 0.35117 0.82102 0.0
N1618 N 0.1979 0.29641 0.84313 0.0
N1619 N 0.15126 0.34711 0.82886 0.0
H1620 H 0.78817 0.72258 0.68833 0.0
H1621 H 0.92563 0.67313 0.65459 0.0
H1622 H 0.88047 0.6698 0.69309 0.0
H1623 H 0.83515 0.72787 0.64968 0.0
H1624 H 0.90967 0.67235 0.66862 0.0
H1625 H 0.80418 0.72396 0.67426 0.0
C1626 C 0.81175 0.71102 0.68643 0.0
C1627 C 0.83312 0.69609 0.69195 0.0
C1628 C 0.8933 0.68466 0.66451 0.0
C1629 C 0.85177 0.69792 0.67571 0.0
C1630 C 0.90241 0.68522 0.65646 0.0
C1631 C 0.88152 0.70046 0.65089 0.0
C1632 C 0.86291 0.69936 0.66713 0.0
C1633 C 0.85206 0.71591 0.65373 0.0
C1634 C 0.82091 0.71197 0.67835 0.0
C1635 C 0.86315 0.68148 0.68907 0.0
N1636 N 0.84347 0.71477 0.66166 0.0
N1637 N 0.87167 0.6829 0.68114 0.0
H1638 H 0.33355 0.2685 0.65376 0.0
H1639 H 0.378 0.12621 0.6872 0.0
H1640 H 0.34031 0.14492 0.64902 0.0
H1641 H 0.3712 0.2497 0.69201 0.0
H1642 H 0.36646 0.13389 0.67318 0.0
H1643 H 0.34511 0.26096 0.6678 0.0
C1644 C 0.33666 0.2392 0.65572 0.0
C1645 C 0.33608 0.20726 0.65023 0.0
C1646 C 0.3679 0.15962 0.67726 0.0
C1647 C 0.3504 0.19907 0.66629 0.0
C1648 C 0.37489 0.15553 0.68526 0.0
C1649 C 0.37548 0.18741 0.69076 0.0
C1650 C 0.36114 0.19577 0.67471 0.0
C1651 C 0.37135 0.22467 0.68795 0.0
C1652 C 0.34365 0.23519 0.66372 0.0
C1653 C 0.34019 0.17003 0.65306 0.0
N1654 N 0.36387 0.22759 0.6801 0.0
N1655 N 0.34766 0.1672 0.66092 0.0
H1656 H 0.76708 0.11353 0.6531 0.0
H1657 H 0.94373 0.29074 0.68489 0.0
H1658 H 0.90371 0.2247 0.6471 0.0
H1659 H 0.80685 0.18017 0.69089 0.0
H1660 H 0.92862 0.26857 0.67103 0.0
H1661 H 0.78124 0.13718 0.6669 0.0
C1662 C 0.80036 0.14277 0.65469 0.0
C1663 C 0.8343 0.1673 0.64891 0.0
C1664 C 0.90169 0.24927 0.67534 0.0
C1665 C 0.85045 0.19492 0.66479 0.0
C1666 C 0.91015 0.26201 0.68327 0.0
C1667 C 0.8765 0.23706 0.68907 0.0
C1668 C 0.85926 0.21106 0.67314 0.0
C1669 C 0.83364 0.20043 0.68661 0.0
C1670 C 0.80827 0.15636 0.6626 0.0
C1671 C 0.87671 0.20469 0.65136 0.0
N1672 N 0.82637 0.18826 0.67882 0.0
N1673 N 0.88349 0.21753 0.65912 0.0
H1674 H 0.40161 0.28464 0.18775 0.0
H1675 H 0.29703 0.08539 0.15468 0.0
H1676 H 0.31441 0.13938 0.19309 0.0
H1677 H 0.38331 0.23077 0.14933 0.0
H1678 H 0.30265 0.10452 0.16876 0.0
H1679 H 0.39636 0.26547 0.17368 0.0
C1680 C 0.38167 0.24867 0.18598 0.0
C1681 C 0.35844 0.2136 0.19163 0.0
C1682 C 0.32022 0.13227 0.1645 0.0
C1683 C 0.35187 0.19141 0.17548 0.0
C1684 C 0.31687 0.12138 0.15645 0.0
C1685 C 0.3397 0.1565 0.15079 0.0
C1686 C 0.34668 0.17864 0.16695 0.0
C1687 C 0.36504 0.20251 0.15346 0.0
C1688 C 0.37852 0.23776 0.17793 0.0
C1689 C 0.33299 0.1676 0.18896 0.0
N1690 N 0.36794 0.21219 0.16134 0.0
N1691 N 0.33028 0.15789 0.18109 0.0
H1692 H 0.79809 0.17392 0.14825 0.0
H1693 H 0.89884 0.18702 0.19199 0.0
H1694 H 0.94212 0.22202 0.15313 0.0
H1695 H 0.75494 0.13952 0.18711 0.0
H1696 H 0.91525 0.19932 0.17779 0.0
H1697 H 0.78147 0.16027 0.16243 0.0
C1698 C 0.82624 0.18154 0.15229 0.0
C1699 C 0.87161 0.19919 0.14946 0.0
C1700 C 0.88007 0.18618 0.17982 0.0
C1701 C 0.85278 0.18366 0.16576 0.0
C1702 C 0.87066 0.17914 0.18794 0.0
C1703 C 0.82541 0.16221 0.19078 0.0
C1704 C 0.84401 0.17626 0.17446 0.0
C1705 C 0.79036 0.15264 0.18522 0.0
C1706 C 0.81672 0.17376 0.1604 0.0
C1707 C 0.90661 0.20841 0.15501 0.0
N1708 N 0.80039 0.1598 0.17736 0.0
N1709 N 0.89648 0.2006 0.16287 0.0
H1710 H 0.8669 0.64459 0.14834 0.0
H1711 H 0.83278 0.7239 0.19117 0.0
H1712 H 0.80455 0.7294 0.15233 0.0
H1713 H 0.89694 0.64069 0.18722 0.0
H1714 H 0.82105 0.72503 0.17699 0.0
H1715 H 0.87875 0.64336 0.16252 0.0
C1716 C 0.85598 0.6633 0.1522 0.0
C1717 C 0.83455 0.68709 0.14915 0.0
C1718 C 0.83754 0.70637 0.17921 0.0
C1719 C 0.84772 0.68536 0.16543 0.0
C1720 C 0.84413 0.70552 0.18732 0.0
C1721 C 0.86603 0.68221 0.19038 0.0
C1722 C 0.85298 0.68382 0.1741 0.0
C1723 C 0.87987 0.659 0.18511 0.0
C1724 C 0.86265 0.6624 0.16031 0.0
C1725 C 0.82124 0.7107 0.15443 0.0
N1726 N 0.87327 0.66056 0.1772 0.0
N1727 N 0.82787 0.70906 0.16233 0.0
H1728 H 0.61663 0.89762 0.05923 0.0
H1729 H 0.5136 0.64514 0.04075 0.0
H1730 H 0.48882 0.82718 0.04608 0.0
H1731 H 0.64866 0.71715 0.05157 0.0
H1732 H 0.50754 0.71452 0.04191 0.0
H1733 H 0.63179 0.8349 0.05601 0.0
C1734 C 0.59168 0.86901 0.05568 0.0
C1735 C 0.55104 0.86758 0.053 0.0
C1736 C 0.5388 0.71562 0.04397 0.0
C1737 C 0.56862 0.79584 0.04921 0.0
C1738 C 0.54232 0.67594 0.0433 0.0
C1739 C 0.58158 0.67536 0.04612 0.0
C1740 C 0.57451 0.75519 0.04761 0.0
C1741 C 0.61786 0.71629 0.04931 0.0
C1742 C 0.60062 0.83338 0.05379 0.0
C1743 C 0.52063 0.83004 0.04826 0.0
N1744 N 0.61319 0.75452 0.05008 0.0
N1745 N 0.52988 0.79563 0.04658 0.0
H1746 H 0.1541 0.66423 0.04009 0.0
H1747 H 0.36392 0.87705 0.06196 0.0
H1748 H 0.1797 0.67004 0.06519 0.0
H1749 H 0.31806 0.89303 0.03893 0.0
H1750 H 0.2971 0.7995 0.06289 0.0
H1751 H 0.21576 0.74595 0.03899 0.0
C1752 C 0.17286 0.68262 0.04534 0.0
C1753 C 0.16185 0.6605 0.05274 0.0
C1754 C 0.30105 0.81993 0.05766 0.0
C1755 C 0.23155 0.75329 0.05157 0.0
C1756 C 0.33912 0.86424 0.05715 0.0
C1757 C 0.34606 0.89124 0.05039 0.0
C1758 C 0.27003 0.80189 0.05128 0.0
C1759 C 0.31332 0.87319 0.04428 0.0
C1760 C 0.20755 0.72922 0.04473 0.0
C1761 C 0.18671 0.68588 0.05939 0.0
N1762 N 0.27678 0.82913 0.04482 0.0
N1763 N 0.22039 0.73071 0.05864 0.0
H1764 H 0.16291 0.50017 0.0369 0.0
H1765 H 0.31636 0.4034 0.05548 0.0
H1766 H 0.10331 0.36641 0.04814 0.0
H1767 H 0.37148 0.5284 0.04155 0.0
H1768 H 0.23806 0.38523 0.05193 0.0
H1769 H 0.23872 0.50633 0.03731 0.0
C1770 C 0.16584 0.47167 0.03934 0.0
C1771 C 0.12707 0.43284 0.04253 0.0
C1772 C 0.26729 0.41638 0.04959 0.0
C1773 C 0.21408 0.44011 0.04323 0.0
C1774 C 0.31205 0.42704 0.05167 0.0
C1775 C 0.35064 0.46795 0.04891 0.0
C1776 C 0.26096 0.44698 0.04475 0.0
C1777 C 0.34288 0.49657 0.04382 0.0
C1778 C 0.20916 0.47523 0.03959 0.0
C1779 C 0.1325 0.39681 0.0456 0.0
N1780 N 0.29896 0.4858 0.04198 0.0
N1781 N 0.17553 0.40166 0.046 0.0
H1782 H 0.97544 0.58448 0.4556 0.0
H1783 H 0.714 0.52151 0.46238 0.0
H1784 H 0.86877 0.44662 0.4622 0.0
H1785 H 0.83097 0.66073 0.46232 0.0
H1786 H 0.7674 0.49153 0.46138 0.0
H1787 H 0.91967 0.61068 0.45661 0.0
C1788 C 0.94012 0.55954 0.45722 0.0
C1789 C 0.92682 0.51328 0.45887 0.0
C1790 C 0.78121 0.52861 0.46161 0.0
C1791 C 0.86259 0.5434 0.46009 0.0
C1792 C 0.7508 0.54583 0.46224 0.0
C1793 C 0.76794 0.59389 0.46239 0.0
C1794 C 0.82896 0.55965 0.46107 0.0
C1795 C 0.81602 0.62356 0.46207 0.0
C1796 C 0.90831 0.57467 0.45784 0.0
C1797 C 0.88047 0.48262 0.4609 0.0
N1798 N 0.84474 0.60597 0.46139 0.0
N1799 N 0.8499 0.49828 0.46148 0.0
H1800 H 0.53207 0.23556 0.46038 0.0
H1801 H 0.4623 0.43245 0.45899 0.0
H1802 H 0.393 0.2101 0.46399 0.0
H1803 H 0.60422 0.46392 0.46087 0.0
H1804 H 0.43698 0.35023 0.45942 0.0
H1805 H 0.55953 0.31834 0.45959 0.0
C1806 C 0.50719 0.24706 0.46109 0.0
C1807 C 0.45982 0.21516 0.46224 0.0
C1808 C 0.47369 0.37501 0.45971 0.0
C1809 C 0.49138 0.31051 0.46116 0.0
C1810 C 0.48829 0.42213 0.45942 0.0
C1811 C 0.53556 0.45536 0.45991 0.0
C1812 C 0.50646 0.36059 0.46048 0.0
C1813 C 0.56745 0.43959 0.46046 0.0
C1814 C 0.52303 0.29455 0.46058 0.0
C1815 C 0.42959 0.23286 0.46298 0.0
N1816 N 0.55231 0.39331 0.46075 0.0
N1817 N 0.44583 0.27914 0.46239 0.0
H1818 H 0.84251 0.22463 0.46199 0.0
H1819 H 0.59162 0.19273 0.4577 0.0
H1820 H 0.82171 0.34211 0.46089 0.0
H1821 H 0.62726 0.09285 0.44893 0.0
H1822 H 0.67439 0.24829 0.45946 0.0
H1823 H 0.76112 0.17407 0.4583 0.0
C1824 C 0.82066 0.2396 0.46101 0.0
C1825 C 0.83864 0.2874 0.4617 0.0
C1826 C 0.66391 0.21439 0.45704 0.0
C1827 C 0.74602 0.2303 0.4575 0.0
C1828 C 0.61676 0.18283 0.45598 0.0
C1829 C 0.60244 0.1379 0.45325 0.0
C1830 C 0.69658 0.20052 0.45546 0.0
C1831 C 0.63659 0.1269 0.45114 0.0
C1832 C 0.77448 0.21098 0.45883 0.0
C1833 C 0.80913 0.30539 0.46032 0.0
N1834 N 0.68196 0.15767 0.45242 0.0
N1835 N 0.76411 0.27678 0.45833 0.0
H1836 H 0.39263 0.30038 0.95833 0.0
H1837 H 0.56268 0.19772 0.96465 0.0
H1838 H 0.5386 0.38267 0.96345 0.0
H1839 H 0.42929 0.1207 0.95337 0.0
H1840 H 0.54825 0.26204 0.9667 0.0
H1841 H 0.39973 0.23028 0.95879 0.0
C1842 C 0.42592 0.30361 0.95963 0.0
C1843 C 0.46516 0.34733 0.96075 0.0
C1844 C 0.522 0.23093 0.96382 0.0
C1845 C 0.47348 0.26793 0.96136 0.0
C1846 C 0.53015 0.19414 0.96269 0.0
C1847 C 0.49745 0.15407 0.95874 0.0
C1848 C 0.48071 0.22755 0.96102 0.0
C1849 C 0.45588 0.15138 0.95629 0.0
C1850 C 0.43002 0.26377 0.95987 0.0
C1851 C 0.50754 0.3497 0.96242 0.0
N1852 N 0.44876 0.18771 0.95743 0.0
N1853 N 0.51056 0.31068 0.96266 0.0
H1854 H 0.84924 0.37731 0.96333 0.0
H1855 H 0.7428 0.10229 0.96001 0.0
H1856 H 0.91734 0.31522 0.95081 0.0
H1857 H 0.66716 0.16868 0.96785 0.0
H1858 H 0.81265 0.17923 0.95868 0.0
H1859 H 0.78766 0.30014 0.96709 0.0
C1860 C 0.8515 0.34751 0.96143 0.0
C1861 C 0.88834 0.35286 0.95667 0.0
C1862 C 0.78081 0.17674 0.96078 0.0
C1863 C 0.81763 0.26409 0.96093 0.0
C1864 C 0.74116 0.13292 0.96159 0.0
C1865 C 0.69919 0.12927 0.96397 0.0
C1866 C 0.77826 0.21678 0.96246 0.0
C1867 C 0.69873 0.16999 0.9659 0.0
C1868 C 0.81618 0.30337 0.96355 0.0
C1869 C 0.88915 0.31276 0.95434 0.0
N1870 N 0.73749 0.21191 0.96507 0.0
N1871 N 0.85424 0.27007 0.95646 0.0
H1872 H 0.66572 0.48367 0.96197 0.0
H1873 H 0.9399 0.65111 0.95699 0.0
H1874 H 0.72552 0.61594 0.95014 0.0
H1875 H 0.87386 0.50642 0.96327 0.0
H1876 H 0.86307 0.64487 0.95662 0.0
H1877 H 0.74356 0.49779 0.96475 0.0
C1878 C 0.69519 0.51589 0.96003 0.0
C1879 C 0.68901 0.54837 0.95573 0.0
C1880 C 0.86565 0.6147 0.95814 0.0
C1881 C 0.77841 0.56475 0.95885 0.0
C1882 C 0.9094 0.61833 0.95839 0.0
C1883 C 0.9131 0.57912 0.96007 0.0
C1884 C 0.82577 0.57175 0.9597 0.0
C1885 C 0.87254 0.5374 0.96184 0.0
C1886 C 0.73968 0.52387 0.96158 0.0
C1887 C 0.72865 0.5895 0.95332 0.0
N1888 N 0.83071 0.53481 0.96158 0.0
N1889 N 0.77167 0.59644 0.95488 0.0
H1890 H 0.24526 0.41767 0.55464 0.0
H1891 H 0.19148 0.62299 0.54679 0.0
H1892 H 0.33494 0.54007 0.54107 0.0
H1893 H 0.09676 0.49382 0.55822 0.0
H1894 H 0.24858 0.59737 0.54592 0.0
H1895 H 0.19295 0.44769 0.55678 0.0
C1896 C 0.25376 0.45058 0.55202 0.0
C1897 C 0.29467 0.47627 0.54765 0.0
C1898 C 0.21547 0.5749 0.5487 0.0
C1899 C 0.23519 0.51151 0.55024 0.0
C1900 C 0.18307 0.58971 0.54927 0.0
C1901 C 0.13921 0.56034 0.55253 0.0
C1902 C 0.20385 0.53053 0.55143 0.0
C1903 C 0.13003 0.51744 0.5556 0.0
C1904 C 0.22406 0.46801 0.55332 0.0
C1905 C 0.30412 0.51927 0.54455 0.0
N1906 N 0.16189 0.5037 0.55492 0.0
N1907 N 0.27465 0.53555 0.54591 0.0
H1908 H 0.45767 0.61792 0.5464 0.0
H1909 H 0.66181 0.87803 0.55365 0.0
H1910 H 0.57263 0.65517 0.56221 0.0
H1911 H 0.55761 0.83958 0.53555 0.0
H1912 H 0.62606 0.79712 0.55762 0.0
H1913 H 0.48751 0.70025 0.5437 0.0
C1914 C 0.48838 0.64345 0.54948 0.0
C1915 C 0.51297 0.62982 0.55448 0.0
C1916 C 0.61107 0.80633 0.55276 0.0
C1917 C 0.54786 0.7236 0.55127 0.0
C1918 C 0.63191 0.85254 0.55041 0.0
C1919 C 0.61274 0.86573 0.54424 0.0
C1920 C 0.57068 0.77297 0.54893 0.0
C1921 C 0.57327 0.83103 0.54038 0.0
C1922 C 0.50579 0.69037 0.54785 0.0
C1923 C 0.55285 0.66427 0.55826 0.0
N1924 N 0.55343 0.78628 0.54281 0.0
N1925 N 0.56934 0.70954 0.55651 0.0
H1926 H 0.46428 0.8748 0.54165 0.0
H1927 H 0.21155 0.82199 0.55423 0.0
H1928 H 0.43656 0.95333 0.55888 0.0
H1929 H 0.23491 0.73883 0.53732 0.0
H1930 H 0.29445 0.8671 0.55659 0.0
H1931 H 0.381 0.81863 0.54105 0.0
C1932 C 0.44083 0.87938 0.54549 0.0
C1933 C 0.45705 0.91886 0.55027 0.0
C1934 C 0.28157 0.83899 0.55235 0.0
C1935 C 0.36228 0.85588 0.54947 0.0
C1936 C 0.23416 0.8136 0.55092 0.0
C1937 C 0.21623 0.77681 0.54551 0.0
C1938 C 0.31153 0.82779 0.54832 0.0
C1939 C 0.2473 0.76683 0.54156 0.0
C1940 C 0.39332 0.84771 0.54507 0.0
C1941 C 0.42531 0.92353 0.55506 0.0
N1942 N 0.2935 0.79228 0.54302 0.0
N1943 N 0.37943 0.8928 0.55446 0.0
H1944 H 0.30463 0.06978 0.38402 0.0
H1945 H 0.1403 0.17675 0.37565 0.0
H1946 H 0.16868 0.99563 0.37356 0.0
H1947 H 0.2617 0.24383 0.39047 0.0
H1948 H 0.15915 0.11662 0.37258 0.0
H1949 H 0.29821 0.14038 0.38423 0.0
C1950 C 0.27397 0.06869 0.38163 0.0
C1951 C 0.23691 0.02698 0.37886 0.0
C1952 C 0.18186 0.14466 0.37647 0.0
C1953 C 0.22926 0.10667 0.37906 0.0
C1954 C 0.17118 0.17915 0.37819 0.0
C1955 C 0.19901 0.21508 0.38342 0.0
C1956 C 0.22071 0.14599 0.37999 0.0
C1957 C 0.2386 0.21618 0.38657 0.0
C1958 C 0.27014 0.10871 0.38179 0.0
C1959 C 0.19777 0.02707 0.37585 0.0
N1960 N 0.24811 0.18195 0.38485 0.0
N1961 N 0.19488 0.06613 0.37607 0.0
H1962 H 0.94979 0.26478 0.38257 0.0
H1963 H 0.84233 0.99022 0.37779 0.0
H1964 H 0.02582 0.19886 0.3747 0.0
H1965 H 0.77253 0.05043 0.39034 0.0
H1966 H 0.90485 0.06793 0.37456 0.0
H1967 H 0.87941 0.18785 0.38343 0.0
C1968 C 0.95144 0.23428 0.3809 0.0
C1969 C 0.99365 0.23803 0.37864 0.0
C1970 C 0.87575 0.06419 0.378 0.0
C1971 C 0.91397 0.15055 0.3796 0.0
C1972 C 0.83989 0.01973 0.37981 0.0
C1973 C 0.80228 0.01365 0.38442 0.0
C1974 C 0.87411 0.10308 0.38079 0.0
C1975 C 0.80128 0.05342 0.38691 0.0
C1976 C 0.91149 0.19046 0.38144 0.0
C1977 C 0.99409 0.19747 0.37657 0.0
N1978 N 0.83674 0.09643 0.3851 0.0
N1979 N 0.95504 0.15558 0.37713 0.0
H1980 H 0.75464 0.71796 0.38305 0.0
H1981 H 0.02738 0.88948 0.37733 0.0
H1982 H 0.81735 0.86209 0.37654 0.0
H1983 H 0.97081 0.75937 0.38979 0.0
H1984 H 0.94871 0.87286 0.37448 0.0
H1985 H 0.83218 0.72584 0.38312 0.0
C1986 C 0.78457 0.75094 0.38153 0.0
C1987 C 0.77982 0.78957 0.3799 0.0
C1988 C 0.95352 0.8478 0.3778 0.0
C1989 C 0.86781 0.79877 0.37991 0.0
C1990 C -0.00157 0.85721 0.37939 0.0
C1991 C 0.00566 0.82612 0.3839 0.0
C1992 C 0.91552 0.80689 0.3807 0.0
C1993 C 0.96677 0.7848 0.38645 0.0
C1994 C 0.82869 0.75551 0.38161 0.0
C1995 C 0.81959 0.8316 0.37796 0.0
N1996 N 0.92334 0.77647 0.38485 0.0
N1997 N 0.86182 0.8351 0.37805 0.0
H1998 H 0.37929 0.82937 0.79254 0.0
H1999 H 0.64687 0.90266 0.79196 0.0
H2000 H 0.49147 0.96905 0.79632 0.0
H2001 H 0.5379 0.76025 0.79427 0.0
H2002 H 0.58901 0.92672 0.792 0.0
H2003 H 0.43542 0.80282 0.79207 0.0
C2004 C 0.4155 0.85457 0.79335 0.0
C2005 C 0.43034 0.90185 0.79445 0.0
C2006 C 0.57762 0.89017 0.79247 0.0
C2007 C 0.49504 0.87135 0.79373 0.0
C2008 C 0.61069 0.87629 0.79239 0.0
C2009 C 0.59734 0.82927 0.79314 0.0
C2010 C 0.53057 0.85692 0.79325 0.0
C2011 C 0.54981 0.79685 0.79368 0.0
C2012 C 0.44761 0.83925 0.79302 0.0
C2013 C 0.4781 0.93252 0.79533 0.0
N2014 N 0.51811 0.81129 0.79375 0.0
N2015 N 0.50858 0.91679 0.79491 0.0
H2016 H 0.27624 0.77044 0.78907 0.0
H2017 H 0.05853 0.51854 0.794 0.0
H2018 H 0.13939 0.73387 0.78091 0.0
H2019 H 0.1977 0.54182 0.79294 0.0
H2020 H 0.08816 0.5997 0.7902 0.0
H2021 H 0.24951 0.68793 0.79097 0.0
C2022 C 0.24097 0.74512 0.78751 0.0
C2023 C 0.2099 0.75913 0.78491 0.0
C2024 C 0.11215 0.58691 0.79077 0.0
C2025 C 0.17891 0.66521 0.78729 0.0
C2026 C 0.09528 0.54089 0.79301 0.0
C2027 C 0.12571 0.52368 0.79374 0.0
C2028 C 0.15984 0.61594 0.7894 0.0
C2029 C 0.17309 0.55379 0.79234 0.0
C2030 C 0.22565 0.6981 0.78865 0.0
C2031 C 0.16448 0.72476 0.78301 0.0
N2032 N 0.18879 0.59857 0.79028 0.0
N2033 N 0.15016 0.67948 0.78436 0.0
H2034 H 0.51562 0.55282 0.78693 0.0
H2035 H 0.25784 0.49488 0.79709 0.0
H2036 H 0.48581 0.63589 0.80284 0.0
H2037 H 0.29222 0.40369 0.7844 0.0
H2038 H 0.3407 0.55209 0.79801 0.0
H2039 H 0.43318 0.50208 0.78489 0.0
C2040 C 0.49179 0.56022 0.79006 0.0
C2041 C 0.50782 0.5985 0.79513 0.0
C2042 C 0.32993 0.51964 0.79498 0.0
C2043 C 0.41289 0.54072 0.79271 0.0
C2044 C 0.28274 0.48716 0.79442 0.0
C2045 C 0.26828 0.44438 0.79073 0.0
C2046 C 0.36252 0.50917 0.79178 0.0
C2047 C 0.30187 0.43605 0.78737 0.0
C2048 C 0.44458 0.53138 0.78884 0.0
C2049 C 0.47505 0.60692 0.79885 0.0
N2050 N 0.34736 0.46804 0.78801 0.0
N2051 N 0.42905 0.57815 0.79758 0.0
H2052 H 0.07487 0.46881 0.28462 0.0
H2053 H 0.19514 0.73475 0.29674 0.0
H2054 H 0.21112 0.54553 0.29492 0.0
H2055 H 0.05029 0.65542 0.29067 0.0
H2056 H 0.19993 0.66452 0.29637 0.0
H2057 H 0.06366 0.535 0.28695 0.0
C2058 C 0.10244 0.49954 0.28738 0.0
C2059 C 0.14427 0.50173 0.2895 0.0
C2060 C 0.16691 0.66213 0.29517 0.0
C2061 C 0.13144 0.57754 0.29223 0.0
C2062 C 0.16413 0.70235 0.29535 0.0
C2063 C 0.12228 0.70102 0.29366 0.0
C2064 C 0.12772 0.61992 0.29316 0.0
C2065 C 0.08321 0.65793 0.292 0.0
C2066 C 0.09583 0.53718 0.28876 0.0
C2067 C 0.17831 0.54211 0.29321 0.0
N2068 N 0.08699 0.61904 0.2917 0.0
N2069 N 0.1713 0.57847 0.29438 0.0
H2070 H 0.38608 0.47369 0.30204 0.0
H2071 H 0.51531 0.70329 0.27615 0.0
H2072 H 0.32082 0.50831 0.28329 0.0
H2073 H 0.55088 0.7058 0.30074 0.0
H2074 H 0.45135 0.62426 0.27782 0.0
H2075 H 0.45472 0.55209 0.30087 0.0
C2076 C 0.38639 0.49756 0.29766 0.0
C2077 C 0.34782 0.48473 0.29278 0.0
C2078 C 0.47309 0.64203 0.28287 0.0
C2079 C 0.42543 0.57314 0.29136 0.0
C2080 C 0.5096 0.687 0.2819 0.0
C2081 C 0.53816 0.71097 0.28832 0.0
C2082 C 0.4653 0.62038 0.29028 0.0
C2083 C 0.52916 0.68845 0.29568 0.0
C2084 C 0.4252 0.54216 0.29704 0.0
C2085 C 0.34967 0.51688 0.28722 0.0
N2086 N 0.49352 0.64407 0.29647 0.0
N2087 N 0.38781 0.55935 0.28664 0.0
H2088 H 0.32365 0.83893 0.29722 0.0
H2089 H 0.59836 0.00671 0.29359 0.0
H2090 H 0.38585 0.97088 0.28524 0.0
H2091 H 0.53161 0.86341 0.30076 0.0
H2092 H 0.52172 0.00064 0.29279 0.0
H2093 H 0.40074 0.85389 0.30084 0.0
C2094 C 0.35346 0.87125 0.29542 0.0
C2095 C 0.3482 0.9034 0.29084 0.0
C2096 C 0.52407 0.97079 0.29463 0.0
C2097 C 0.43682 0.92074 0.29492 0.0
C2098 C 0.56772 0.97437 0.29515 0.0
C2099 C 0.57109 0.93539 0.29716 0.0
C2100 C 0.48399 0.92811 0.29625 0.0
C2101 C 0.53042 0.89415 0.29908 0.0
C2102 C 0.39755 0.87973 0.29745 0.0
C2103 C 0.38828 0.94466 0.28863 0.0
N2104 N 0.48866 0.89155 0.29853 0.0
N2105 N 0.43092 0.95206 0.29065 0.0
H2106 H 0.89379 0.71132 0.88682 0.0
H2107 H 0.84087 0.91868 0.88142 0.0
H2108 H 0.9826 0.83573 0.87364 0.0
H2109 H 0.74986 0.78945 0.8932 0.0
H2110 H 0.89799 0.8935 0.87983 0.0
H2111 H 0.84438 0.74308 0.89021 0.0
C2112 C 0.90273 0.74518 0.88457 0.0
C2113 C 0.94219 0.77066 0.87986 0.0
C2114 C 0.8657 0.87094 0.88284 0.0
C2115 C 0.88599 0.80775 0.88385 0.0
C2116 C 0.83325 0.88541 0.8838 0.0
C2117 C 0.7904 0.85588 0.88737 0.0
C2118 C 0.8551 0.82675 0.88549 0.0
C2119 C 0.78227 0.81312 0.89032 0.0
C2120 C 0.8747 0.76355 0.88658 0.0
C2121 C 0.95263 0.81497 0.87731 0.0
N2122 N 0.81413 0.79972 0.88926 0.0
N2123 N 0.92455 0.83205 0.87931 0.0
H2124 H 0.32199 0.15695 0.87563 0.0
H2125 H 0.10399 0.901 0.87913 0.0
H2126 H 0.18186 0.1302 0.87825 0.0
H2127 H 0.24588 0.93396 0.88202 0.0
H2128 H 0.13069 0.98412 0.87834 0.0
H2129 H 0.29366 0.07443 0.8772 0.0
C2130 C 0.28531 0.13396 0.87654 0.0
C2131 C 0.25454 0.15116 0.87683 0.0
C2132 C 0.15586 0.97305 0.87921 0.0
C2133 C 0.22161 0.05589 0.87858 0.0
C2134 C 0.14062 0.92561 0.8797 0.0
C2135 C 0.17269 0.91034 0.88062 0.0
C2136 C 0.20351 0.00537 0.87957 0.0
C2137 C 0.2198 0.94394 0.88129 0.0
C2138 C 0.26911 0.08666 0.87744 0.0
C2139 C 0.20711 0.11902 0.87789 0.0
N2140 N 0.23373 0.98968 0.88069 0.0
N2141 N 0.19218 0.07305 0.87872 0.0
H2142 H 0.88474 0.03265 0.87338 0.0
H2143 H 0.08942 0.26439 0.89234 0.0
H2144 H 0.86464 0.12568 0.88844 0.0
H2145 H 0.11412 0.17504 0.87713 0.0
H2146 H 0.00684 0.20898 0.89196 0.0
H2147 H 0.96849 0.08083 0.87523 0.0
C2148 C 0.89788 0.06322 0.87706 0.0
C2149 C 0.86748 0.07516 0.88073 0.0
C2150 C 0.03019 0.20104 0.88877 0.0
C2151 C 0.96321 0.13026 0.88291 0.0
C2152 C 0.07743 0.23256 0.88904 0.0
C2153 C 0.10854 0.22438 0.88472 0.0
C2154 C 0.01369 0.16114 0.88408 0.0
C2155 C 0.09121 0.18255 0.88056 0.0
C2156 C 0.94568 0.09064 0.87812 0.0
C2157 C 0.88654 0.11541 0.88538 0.0
N2158 N 0.04472 0.15267 0.88024 0.0
N2159 N 0.93307 0.14137 0.88634 0.0
H2160 H 0.00029 0.4256 0.71653 0.0
H2161 H 0.83871 0.53677 0.7093 0.0
H2162 H 0.86961 0.35857 0.70423 0.0
H2163 H 0.95924 0.5992 0.72439 0.0
H2164 H 0.85793 0.47795 0.70547 0.0
H2165 H 0.99449 0.49635 0.7175 0.0
C2166 C 0.97111 0.42627 0.71386 0.0
C2167 C 0.93522 0.38639 0.71035 0.0
C2168 C 0.88038 0.50467 0.70959 0.0
C2169 C 0.92801 0.46619 0.71149 0.0
C2170 C 0.86947 0.53847 0.71176 0.0
C2171 C 0.89697 0.57278 0.71726 0.0
C2172 C 0.91908 0.50495 0.71295 0.0
C2173 C 0.93635 0.57284 0.72027 0.0
C2174 C 0.96754 0.46634 0.71447 0.0
C2175 C 0.89781 0.38862 0.70705 0.0
N2176 N 0.94605 0.53927 0.71812 0.0
N2177 N 0.89502 0.42761 0.70775 0.0
H2178 H 0.541 0.3466 0.71092 0.0
H2179 H 0.64518 0.61912 0.71771 0.0
H2180 H 0.46886 0.40251 0.72397 0.0
H2181 H 0.72422 0.55599 0.71002 0.0
H2182 H 0.57505 0.54182 0.71783 0.0
H2183 H 0.60335 0.42536 0.70824 0.0
C2184 C 0.53804 0.37542 0.71315 0.0
C2185 C 0.49996 0.36789 0.71776 0.0
C2186 C 0.60779 0.54517 0.71605 0.0
C2187 C 0.57136 0.45827 0.71477 0.0
C2188 C 0.6476 0.58917 0.71595 0.0
C2189 C 0.69049 0.59372 0.71396 0.0
C2190 C 0.61116 0.50599 0.71403 0.0
C2191 C 0.69192 0.55392 0.71172 0.0
C2192 C 0.57375 0.42042 0.71166 0.0
C2193 C 0.49809 0.40669 0.72054 0.0
N2194 N 0.65297 0.51184 0.71184 0.0
N2195 N 0.53341 0.45023 0.71904 0.0
H2196 H 0.44835 0.07195 0.71712 0.0
H2197 H 0.71788 0.2391 0.70774 0.0
H2198 H 0.5067 0.20675 0.70626 0.0
H2199 H 0.66717 0.12256 0.72368 0.0
H2200 H 0.63805 0.21738 0.70465 0.0
H2201 H 0.52601 0.07997 0.71711 0.0
C2202 C 0.4773 0.10267 0.7146 0.0
C2203 C 0.47159 0.13901 0.71179 0.0
C2204 C 0.64439 0.19636 0.70879 0.0
C2205 C 0.55954 0.14842 0.71173 0.0
C2206 C 0.68998 0.20867 0.71053 0.0
C2207 C 0.69924 0.18312 0.71608 0.0
C2208 C 0.60773 0.15813 0.71261 0.0
C2209 C 0.66161 0.14397 0.71952 0.0
C2210 C 0.52149 0.1074 0.71463 0.0
C2211 C 0.50998 0.17825 0.70859 0.0
N2212 N 0.61746 0.13284 0.71778 0.0
N2213 N 0.5523 0.18202 0.70869 0.0
H2214 H 0.27783 0.20049 0.11509 0.0
H2215 H 0.05669 0.18012 0.1372 0.0
H2216 H 0.19394 0.08941 0.13124 0.0
H2217 H 0.14401 0.29046 0.12116 0.0
H2218 H 0.1026 0.14291 0.1345 0.0
H2219 H 0.22324 0.2285 0.11617 0.0
C2220 C 0.24726 0.18141 0.11874 0.0
C2221 C 0.2405 0.14284 0.12313 0.0
C2222 C 0.11168 0.17529 0.13158 0.0
C2223 C 0.17846 0.17547 0.12459 0.0
C2224 C 0.0856 0.19661 0.13314 0.0
C2225 C 0.09659 0.23861 0.12943 0.0
C2226 C 0.14899 0.19609 0.12627 0.0
C2227 C 0.13464 0.2586 0.12426 0.0
C2228 C 0.21628 0.19763 0.11941 0.0
C2229 C 0.20031 0.11927 0.12775 0.0
N2230 N 0.15934 0.23712 0.12284 0.0
N2231 N 0.17107 0.13643 0.12846 0.0
H2232 H 0.81653 0.07641 0.11599 0.0
H2233 H 0.85312 0.87485 0.13341 0.0
H2234 H 0.93527 0.10395 0.13016 0.0
H2235 H 0.74545 0.85374 0.11692 0.0
H2236 H 0.88589 0.95864 0.13209 0.0
H2237 H 0.79263 0.99467 0.11589 0.0
C2238 C 0.83783 0.06519 0.11903 0.0
C2239 C 0.8777 0.09682 0.12315 0.0
C2240 C 0.85518 0.93556 0.12875 0.0
C2241 C 0.85015 0.00291 0.12315 0.0
C2242 C 0.83646 0.88775 0.1295 0.0
C2243 C 0.79617 0.8571 0.12533 0.0
C2244 C 0.83338 0.95273 0.12381 0.0
C2245 C 0.77587 0.87581 0.12039 0.0
C2246 C 0.82415 0.01844 0.11897 0.0
C2247 C 0.90425 0.08053 0.12692 0.0
N2248 N 0.79462 0.92231 0.11979 0.0
N2249 N 0.88966 0.03441 0.12692 0.0
H2250 H 0.14955 0.97822 0.12841 0.0
H2251 H 0.95669 0.71441 0.12064 0.0
H2252 H 0.17457 0.86332 0.13039 0.0
H2253 H 0.9236 0.82291 0.12409 0.0
H2254 H 0.03842 0.77088 0.12248 0.0
H2255 H 0.06848 0.92381 0.12565 0.0
C2256 C 0.13832 0.94169 0.12836 0.0
C2257 C 0.16971 0.92573 0.12966 0.0
C2258 C 0.01337 0.78247 0.12278 0.0
C2259 C 0.07619 0.863 0.12627 0.0
C2260 C 0.9666 0.75027 0.12166 0.0
C2261 C 0.93299 0.7638 0.12224 0.0
C2262 C 0.02698 0.82876 0.12447 0.0
C2263 C 0.94819 0.81085 0.12359 0.0
C2264 C 0.09177 0.91057 0.1267 0.0
C2265 C 0.15228 0.87766 0.12934 0.0
N2266 N 0.99404 0.84158 0.1247 0.0
N2267 N 0.10691 0.84816 0.12765 0.0
H2268 H 0.89302 0.87201 0.63053 0.0
H2269 H 0.72119 0.97286 0.6249 0.0
H2270 H 0.76243 0.79768 0.6183 0.0
H2271 H 0.86649 0.05556 0.63049 0.0
H2272 H 0.72924 0.90329 0.62497 0.0
H2273 H 0.87687 0.93468 0.63319 0.0
C2274 C 0.86074 0.86866 0.62849 0.0
C2275 C 0.82937 0.82995 0.62409 0.0
C2276 C 0.75914 0.93673 0.62624 0.0
C2277 C 0.81065 0.90144 0.62707 0.0
C2278 C 0.7545 0.97624 0.62623 0.0
C2279 C 0.79334 0.01993 0.62758 0.0
C2280 C 0.80271 0.9412 0.62774 0.0
C2281 C 0.83578 0.02258 0.62929 0.0
C2282 C 0.85161 0.90449 0.62996 0.0
C2283 C 0.78804 0.82743 0.62155 0.0
N2284 N 0.83934 0.98386 0.6293 0.0
N2285 N 0.77994 0.86282 0.62304 0.0
H2286 H 0.17793 0.04587 0.63179 0.0
H2287 H 0.07137 0.77354 0.62469 0.0
H2288 H 0.24464 0.98928 0.61739 0.0
H2289 H 0.99768 0.83636 0.63497 0.0
H2290 H 0.14185 0.85052 0.62422 0.0
H2291 H 0.11822 0.96739 0.63526 0.0
C2292 C 0.18032 0.017 0.62941 0.0
C2293 C 0.21605 0.02428 0.62419 0.0
C2294 C 0.11034 0.84717 0.62669 0.0
C2295 C 0.14744 0.93406 0.62809 0.0
C2296 C 0.07039 0.80333 0.627 0.0
C2297 C 0.02883 0.79897 0.62979 0.0
C2298 C 0.10837 0.88632 0.62927 0.0
C2299 C 0.02903 0.83849 0.63268 0.0
C2300 C 0.14608 0.97211 0.63137 0.0
C2301 C 0.21715 0.98533 0.62128 0.0
N2302 N 0.06801 0.88045 0.6323 0.0
N2303 N 0.18316 0.94188 0.62322 0.0
H2304 H 0.26737 0.32412 0.6236 0.0
H2305 H 0.99304 0.15863 0.62915 0.0
H2306 H 0.20121 0.18314 0.63202 0.0
H2307 H 0.05246 0.28747 0.61623 0.0
H2308 H 0.07086 0.17371 0.63217 0.0
H2309 H 0.19053 0.31785 0.62273 0.0
C2310 C 0.23686 0.29225 0.62538 0.0
C2311 C 0.2405 0.25397 0.6278 0.0
C2312 C 0.06694 0.19884 0.6287 0.0
C2313 C 0.15316 0.2465 0.62685 0.0
C2314 C 0.02239 0.19031 0.62701 0.0
C2315 C 0.01601 0.22154 0.62236 0.0
C2316 C 0.10566 0.23899 0.62574 0.0
C2317 C 0.05564 0.26194 0.6197 0.0
C2318 C 0.19309 0.28854 0.62484 0.0
C2319 C 0.19993 0.21334 0.63002 0.0
N2320 N 0.09875 0.26942 0.6214 0.0
N2321 N 0.15813 0.21067 0.62946 0.0
H2322 H 0.50765 0.28709 0.21505 0.0
H2323 H 0.54014 0.06742 0.21271 0.0
H2324 H 0.40604 0.15224 0.22385 0.0
H2325 H 0.65688 0.20631 0.21315 0.0
H2326 H 0.48903 0.09843 0.21587 0.0
H2327 H 0.56326 0.25958 0.21388 0.0
C2328 C 0.49734 0.25212 0.21689 0.0
C2329 C 0.45199 0.22179 0.21947 0.0
C2330 C 0.5259 0.12208 0.21532 0.0
C2331 C 0.51474 0.18992 0.21795 0.0
C2332 C 0.55484 0.1044 0.21345 0.0
C2333 C 0.60257 0.13435 0.21271 0.0
C2334 C 0.54486 0.17011 0.2163 0.0
C2335 C 0.62021 0.18207 0.21377 0.0
C2336 C 0.52895 0.23636 0.21618 0.0
C2337 C 0.44046 0.17673 0.22175 0.0
N2338 N 0.59131 0.19858 0.21546 0.0
N2339 N 0.47136 0.16197 0.22082 0.0
H2340 H 0.97655 0.52085 0.21174 0.0
H2341 H 0.75908 0.26426 0.21288 0.0
H2342 H 0.83637 0.49455 0.21378 0.0
H2343 H 0.90026 0.2993 0.21757 0.0
H2344 H 0.78506 0.34735 0.21197 0.0
H2345 H 0.94749 0.43798 0.21233 0.0
C2346 C 0.93964 0.49769 0.21233 0.0
C2347 C 0.909 0.51487 0.2128 0.0
C2348 C 0.81013 0.3366 0.21323 0.0
C2349 C 0.87528 0.41956 0.21342 0.0
C2350 C 0.79536 0.28932 0.21377 0.0
C2351 C 0.82756 0.27486 0.21529 0.0
C2352 C 0.85736 0.36924 0.21415 0.0
C2353 C 0.87415 0.30873 0.21637 0.0
C2354 C 0.92302 0.45029 0.21265 0.0
C2355 C 0.8613 0.48294 0.21335 0.0
N2356 N 0.8876 0.3542 0.21574 0.0
N2357 N 0.84586 0.43672 0.21368 0.0
H2358 H 0.52357 0.50584 0.21015 0.0
H2359 H 0.77854 0.5465 0.21644 0.0
H2360 H 0.55011 0.39328 0.21426 0.0
H2361 H 0.7434 0.65435 0.21854 0.0
H2362 H 0.69591 0.48937 0.21519 0.0
H2363 H 0.60522 0.56058 0.21242 0.0
C2364 C 0.5463 0.49243 0.21154 0.0
C2365 C 0.52927 0.44451 0.21204 0.0
C2366 C 0.70636 0.52551 0.21601 0.0
C2367 C 0.62362 0.50755 0.21459 0.0
C2368 C 0.7535 0.55812 0.21676 0.0
C2369 C 0.76805 0.60539 0.21758 0.0
C2370 C 0.67363 0.54035 0.21598 0.0
C2371 C 0.73397 0.61837 0.21791 0.0
C2372 C 0.59312 0.52386 0.21283 0.0
C2373 C 0.56118 0.42964 0.21371 0.0
N2374 N 0.68853 0.58617 0.21703 0.0
N2375 N 0.60671 0.461 0.21492 0.0
H2376 H 0.51121 0.4025 0.05736 0.0
H2377 H 0.4587 0.1915 0.02916 0.0
H2378 H 0.57714 0.42392 0.03457 0.0
H2379 H 0.44434 0.17851 0.05452 0.0
H2380 H 0.4951 0.27609 0.0305 0.0
H2381 H 0.48122 0.31946 0.05608 0.0
C2382 C 0.51994 0.3896 0.05213 0.0
C2383 C 0.54675 0.41984 0.04607 0.0
C2384 C 0.4839 0.25461 0.03576 0.0
C2385 C 0.51147 0.32482 0.04446 0.0
C2386 C 0.46261 0.2065 0.03499 0.0
C2387 C 0.44834 0.17827 0.04175 0.0
C2388 C 0.49016 0.27424 0.04333 0.0
C2389 C 0.45494 0.19924 0.04918 0.0
C2390 C 0.50272 0.34226 0.0514 0.0
C2391 C 0.55694 0.40156 0.0394 0.0
N2392 N 0.47518 0.24593 0.04978 0.0
N2393 N 0.53865 0.35491 0.0387 0.0
H2394 H 0.84626 0.2462 0.05143 0.0
H2395 H 0.58542 0.1402 0.03647 0.0
H2396 H 0.81277 0.25429 0.02707 0.0
H2397 H 0.62377 0.0965 0.05781 0.0
H2398 H 0.66802 0.19249 0.03361 0.0
H2399 H 0.7638 0.19922 0.05443 0.0
C2400 C 0.82131 0.2375 0.0467 0.0
C2401 C 0.83602 0.25364 0.039 0.0
C2402 C 0.65815 0.17173 0.03895 0.0
C2403 C 0.74176 0.20086 0.04238 0.0
C2404 C 0.61119 0.14249 0.04064 0.0
C2405 C 0.59805 0.11418 0.04738 0.0
C2406 C 0.69172 0.17286 0.04411 0.0
C2407 C 0.6326 0.11774 0.05253 0.0
C2408 C 0.77436 0.21092 0.04841 0.0
C2409 C 0.80259 0.24178 0.03306 0.0
N2410 N 0.67783 0.14643 0.05078 0.0
N2411 N 0.75678 0.21628 0.03489 0.0
H2412 H 0.9549 0.53949 0.0517 0.0
H2413 H 0.70692 0.4921 0.03881 0.0
H2414 H 0.85878 0.41275 0.03974 0.0
H2415 H 0.82517 0.62932 0.04084 0.0
H2416 H 0.75778 0.4593 0.04047 0.0
H2417 H 0.90252 0.56907 0.04953 0.0
C2418 C 0.92248 0.51753 0.04868 0.0
C2419 C 0.91136 0.47352 0.04585 0.0
C2420 C 0.77262 0.49655 0.04048 0.0
C2421 C 0.85123 0.50774 0.04333 0.0
C2422 C 0.74374 0.51525 0.03957 0.0
C2423 C 0.76212 0.56342 0.03975 0.0
C2424 C 0.82003 0.52629 0.04173 0.0
C2425 C 0.80992 0.59206 0.04065 0.0
C2426 C 0.89281 0.53477 0.04739 0.0
C2427 C 0.86871 0.44682 0.04202 0.0
N2428 N 0.83727 0.57301 0.04171 0.0
N2429 N 0.84004 0.4644 0.04087 0.0
H2430 H 0.33161 0.46647 0.4752 0.0
H2431 H 0.15266 0.48829 0.44928 0.0
H2432 H 0.35629 0.50701 0.45069 0.0
H2433 H 0.11352 0.40956 0.47096 0.0
H2434 H 0.22261 0.48265 0.44871 0.0
H2435 H 0.24834 0.43126 0.47298 0.0
C2436 C 0.31911 0.46664 0.46929 0.0
C2437 C 0.35038 0.49026 0.46314 0.0
C2438 C 0.1985 0.46577 0.45353 0.0
C2439 C 0.25575 0.45138 0.46059 0.0
C2440 C 0.15878 0.46932 0.45389 0.0
C2441 C 0.12822 0.45028 0.46028 0.0
C2442 C 0.20843 0.44422 0.45975 0.0
C2443 C 0.13682 0.42518 0.466 0.0
C2444 C 0.27169 0.44658 0.46801 0.0
C2445 C 0.333 0.48932 0.45557 0.0
N2446 N 0.17692 0.42385 0.46572 0.0
N2447 N 0.28672 0.4713 0.45454 0.0
H2448 H 0.54617 0.69685 0.4765 0.0
H2449 H 0.62096 0.92172 0.45086 0.0
H2450 H 0.66066 0.75192 0.46013 0.0
H2451 H 0.51231 0.86962 0.4684 0.0
H2452 H 0.64524 0.86832 0.45577 0.0
H2453 H 0.54418 0.76877 0.47559 0.0
C2454 C 0.57178 0.72481 0.47288 0.0
C2455 C 0.60337 0.71858 0.46833 0.0
C2456 C 0.61647 0.86897 0.45862 0.0
C2457 C 0.60028 0.80029 0.46701 0.0
C2458 C 0.60227 0.89914 0.45576 0.0
C2459 C 0.56384 0.8994 0.45911 0.0
C2460 C 0.59183 0.83851 0.46482 0.0
C2461 C 0.54191 0.87043 0.46561 0.0
C2462 C 0.57049 0.76577 0.47232 0.0
C2463 C 0.63585 0.75561 0.46374 0.0
N2464 N 0.5558 0.84069 0.46818 0.0
N2465 N 0.6328 0.79467 0.46305 0.0
H2466 H 0.3912 0.88844 0.4701 0.0
H2467 H 0.13874 0.73163 0.4535 0.0
H2468 H 0.31127 0.94441 0.45982 0.0
H2469 H 0.21099 0.67826 0.46714 0.0
H2470 H 0.19664 0.81015 0.45735 0.0
H2471 H 0.32141 0.81269 0.47094 0.0
C2472 C 0.35857 0.88484 0.46817 0.0
C2473 C 0.35688 0.92238 0.46479 0.0
C2474 C 0.19959 0.78133 0.4596 0.0
C2475 C 0.27706 0.83556 0.46555 0.0
C2476 C 0.16676 0.73652 0.45735 0.0
C2477 C 0.17078 0.69857 0.45987 0.0
C2478 C 0.23712 0.78834 0.46433 0.0
C2479 C 0.20691 0.70665 0.46503 0.0
C2480 C 0.31874 0.84158 0.46864 0.0
C2481 C 0.31389 0.91618 0.46244 0.0
N2482 N 0.23919 0.75077 0.46698 0.0
N2483 N 0.2757 0.8732 0.46271 0.0
H2484 H 0.44997 0.58651 0.97034 0.0
H2485 H 0.60776 0.84655 0.95503 0.0
H2486 H 0.53144 0.62188 0.94896 0.0
H2487 H 0.57122 0.81367 0.97959 0.0
H2488 H 0.56972 0.76374 0.95202 0.0
H2489 H 0.48187 0.66954 0.973 0.0
C2490 C 0.47354 0.61172 0.9661 0.0
C2491 C 0.48811 0.59755 0.95941 0.0
C2492 C 0.57025 0.77457 0.95808 0.0
C2493 C 0.52499 0.69186 0.96246 0.0
C2494 C 0.59209 0.82169 0.95979 0.0
C2495 C 0.59296 0.8367 0.96757 0.0
C2496 C 0.5484 0.74212 0.96417 0.0
C2497 C 0.5719 0.80332 0.97355 0.0
C2498 C 0.4922 0.65895 0.96768 0.0
C2499 C 0.51937 0.63149 0.95418 0.0
N2500 N 0.55009 0.75742 0.97171 0.0
N2501 N 0.53684 0.67705 0.95583 0.0
H2502 H 0.20483 0.76925 0.95236 0.0
H2503 H 0.4505 0.87682 0.9739 0.0
H2504 H 0.21801 0.76774 0.97771 0.0
H2505 H 0.43097 0.92207 0.95104 0.0
H2506 H 0.3663 0.82368 0.97477 0.0
H2507 H 0.28926 0.81458 0.95122 0.0
C2508 C 0.22569 0.77891 0.95768 0.0
C2509 C 0.2047 0.76534 0.96513 0.0
C2510 C 0.3807 0.84487 0.96953 0.0
C2511 C 0.30097 0.81606 0.9639 0.0
C2512 C 0.42859 0.87459 0.96899 0.0
C2513 C 0.44733 0.9036 0.96239 0.0
C2514 C 0.35196 0.84394 0.96336 0.0
C2515 C 0.41765 0.90021 0.95623 0.0
C2516 C 0.2737 0.80454 0.95704 0.0
C2517 C 0.23302 0.77834 0.97188 0.0
N2518 N 0.37142 0.871 0.95687 0.0
N2519 N 0.27989 0.80282 0.9711 0.0
H2520 H 0.16557 0.58714 0.9702 0.0
H2521 H 0.26997 0.43819 0.9517 0.0
H2522 H 0.11951 0.51338 0.94808 0.0
H2523 H 0.27348 0.46473 0.97672 0.0
H2524 H 0.22472 0.47672 0.94964 0.0
H2525 H 0.21777 0.55553 0.97195 0.0
C2526 C 0.16744 0.56534 0.96562 0.0
C2527 C 0.13845 0.55273 0.95899 0.0
C2528 C 0.2351 0.47387 0.95559 0.0
C2529 C 0.19698 0.51632 0.96098 0.0
C2530 C 0.26063 0.45177 0.95676 0.0
C2531 C 0.27483 0.44795 0.96439 0.0
C2532 C 0.22431 0.49298 0.96209 0.0
C2533 C 0.26236 0.46634 0.97077 0.0
C2534 C 0.1966 0.54685 0.96667 0.0
C2535 C 0.14137 0.52378 0.95328 0.0
N2536 N 0.23799 0.48844 0.96948 0.0
N2537 N 0.17002 0.50646 0.95442 0.0
H2538 H 0.75551 0.64797 0.55591 0.0
H2539 H 0.88375 0.52544 0.53763 0.0
H2540 H 0.6857 0.51849 0.54322 0.0
H2541 H 0.95633 0.66659 0.54598 0.0
H2542 H 0.81145 0.52682 0.53795 0.0
H2543 H 0.82964 0.65979 0.55103 0.0
C2544 C 0.7558 0.62215 0.55207 0.0
C2545 C 0.71452 0.58182 0.55008 0.0
C2546 C 0.84322 0.55787 0.53957 0.0
C2547 C 0.79894 0.5952 0.54442 0.0
C2548 C 0.88448 0.55706 0.53938 0.0
C2549 C 0.92571 0.59573 0.54189 0.0
C2550 C 0.84313 0.59728 0.54247 0.0
C2551 C 0.92506 0.636 0.54403 0.0
C2552 C 0.79804 0.62913 0.54922 0.0
C2553 C 0.71669 0.55003 0.54492 0.0
N2554 N 0.8841 0.63543 0.54444 0.0
N2555 N 0.75827 0.5571 0.54236 0.0
H2556 H 0.57488 0.22137 0.54444 0.0
H2557 H 0.41832 0.34024 0.54852 0.0
H2558 H 0.43348 0.14976 0.55271 0.0
H2559 H 0.56622 0.41687 0.54483 0.0
H2560 H 0.42127 0.26824 0.54854 0.0
H2561 H 0.57143 0.29281 0.54358 0.0
C2562 C 0.54335 0.22078 0.54616 0.0
C2563 C 0.50433 0.1795 0.5486 0.0
C2564 C 0.453 0.30085 0.54767 0.0
C2565 C 0.49973 0.26062 0.54746 0.0
C2566 C 0.45121 0.3418 0.54759 0.0
C2567 C 0.49209 0.38442 0.54673 0.0
C2568 C 0.4959 0.30278 0.54685 0.0
C2569 C 0.53391 0.38467 0.54559 0.0
C2570 C 0.5412 0.26142 0.5456 0.0
C2571 C 0.4641 0.18062 0.55067 0.0
N2572 N 0.53478 0.34448 0.54572 0.0
N2573 N 0.46276 0.22044 0.55002 0.0
H2574 H 0.91689 0.32475 0.55023 0.0
H2575 H 0.6571 0.18908 0.53666 0.0
H2576 H 0.84893 0.39262 0.53967 0.0
H2577 H 0.73716 0.12189 0.54085 0.0
H2578 H 0.72851 0.2638 0.53641 0.0
H2579 H 0.85374 0.25018 0.54572 0.0
C2580 C 0.88871 0.32383 0.5469 0.0
C2581 C 0.8875 0.36456 0.54542 0.0
C2582 C 0.7306 0.23268 0.53723 0.0
C2583 C 0.81519 0.27966 0.54027 0.0
C2584 C 0.68983 0.19003 0.5374 0.0
C2585 C 0.69128 0.14941 0.53891 0.0
C2586 C 0.77295 0.23474 0.53875 0.0
C2587 C 0.73454 0.15248 0.53973 0.0
C2588 C 0.85288 0.28139 0.54427 0.0
C2589 C 0.85088 0.36185 0.54094 0.0
N2590 N 0.7737 0.1946 0.5398 0.0
N2591 N 0.81564 0.31992 0.53864 0.0
H2592 H 0.03789 0.52695 0.37201 0.0
H2593 H 0.26063 0.78005 0.37507 0.0
H2594 H 0.17619 0.54802 0.37322 0.0
H2595 H 0.12449 0.74512 0.38343 0.0
H2596 H 0.23118 0.6973 0.3724 0.0
H2597 H 0.06991 0.61063 0.37378 0.0
C2598 C 0.07497 0.54935 0.37256 0.0
C2599 C 0.10442 0.5308 0.37258 0.0
C2600 C 0.20806 0.70808 0.37485 0.0
C2601 C 0.14128 0.6259 0.37459 0.0
C2602 C 0.22485 0.75511 0.3764 0.0
C2603 C 0.19509 0.76957 0.37949 0.0
C2604 C 0.16114 0.67578 0.37627 0.0
C2605 C 0.14888 0.73577 0.38106 0.0
C2606 C 0.09323 0.59687 0.37363 0.0
C2607 C 0.15233 0.5611 0.37333 0.0
N2608 N 0.13332 0.69067 0.37938 0.0
N2609 N 0.16935 0.60724 0.37431 0.0
H2610 H 0.49254 0.59324 0.38827 0.0
H2611 H 0.24216 0.48847 0.36864 0.0
H2612 H 0.47353 0.59763 0.36313 0.0
H2613 H 0.26663 0.4407 0.39087 0.0
H2614 H 0.3262 0.54067 0.36721 0.0
H2615 H 0.40848 0.54692 0.38993 0.0
C2616 C 0.47047 0.58391 0.3831 0.0
C2617 C 0.48969 0.59865 0.37556 0.0
C2618 C 0.31294 0.51904 0.37243 0.0
C2619 C 0.39383 0.5469 0.37739 0.0
C2620 C 0.26515 0.48983 0.37329 0.0
C2621 C 0.24776 0.4604 0.37987 0.0
C2622 C 0.34301 0.51909 0.37827 0.0
C2623 C 0.27883 0.46282 0.38569 0.0
C2624 C 0.42267 0.55774 0.38404 0.0
C2625 C 0.45988 0.58612 0.36902 0.0
N2626 N 0.32495 0.49159 0.38475 0.0
N2627 N 0.41323 0.56117 0.37009 0.0
H2628 H 0.41982 0.92524 0.38777 0.0
H2629 H 0.52574 0.77566 0.37024 0.0
H2630 H 0.4188 0.89782 0.36283 0.0
H2631 H 0.57024 0.85072 0.39227 0.0
H2632 H 0.47329 0.80666 0.36821 0.0
H2633 H 0.46454 0.88653 0.39018 0.0
C2634 C 0.42958 0.9114 0.38281 0.0
C2635 C 0.41624 0.91499 0.3751 0.0
C2636 C 0.49414 0.81573 0.37353 0.0
C2637 C 0.46617 0.86982 0.37779 0.0
C2638 C 0.52343 0.79758 0.37474 0.0
C2639 C 0.5521 0.8108 0.38143 0.0
C2640 C 0.49333 0.84654 0.37912 0.0
C2641 C 0.54863 0.83987 0.38703 0.0
C2642 C 0.45481 0.8892 0.38417 0.0
C2643 C 0.42926 0.89633 0.36884 0.0
N2644 N 0.51988 0.85691 0.38574 0.0
N2645 N 0.45335 0.87415 0.37032 0.0
H2646 H 0.97423 0.74428 0.78372 0.0
H2647 H 0.83436 0.82818 0.81 0.0
H2648 H 0.03736 0.85654 0.80051 0.0
H2649 H 0.76855 0.70663 0.79523 0.0
H2650 H 0.90782 0.82979 0.80849 0.0
H2651 H 0.8984 0.72222 0.7893 0.0
C2652 C 0.97217 0.76424 0.7886 0.0
C2653 C 0.01215 0.80291 0.79155 0.0
C2654 C 0.87724 0.80206 0.80572 0.0
C2655 C 0.92548 0.77749 0.79803 0.0
C2656 C 0.83526 0.80099 0.80662 0.0
C2657 C 0.79569 0.76746 0.80267 0.0
C2658 C 0.87984 0.77002 0.80066 0.0
C2659 C 0.79844 0.733 0.79838 0.0
C2660 C 0.92889 0.75131 0.79183 0.0
C2661 C 0.00752 0.82663 0.79803 0.0
N2662 N 0.84019 0.73578 0.79732 0.0
N2663 N 0.96492 0.81393 0.80097 0.0
H2664 H 0.17176 0.97148 0.80148 0.0
H2665 H 0.27845 0.22767 0.78569 0.0
H2666 H 0.31039 0.0496 0.79215 0.0
H2667 H 0.1488 0.15587 0.79828 0.0
H2668 H 0.29539 0.16711 0.78951 0.0
H2669 H 0.1677 0.04235 0.80217 0.0
C2670 C 0.20175 0.0039 0.79973 0.0
C2671 C 0.24128 0.00481 0.79666 0.0
C2672 C 0.2635 0.16482 0.79154 0.0
C2673 C 0.2365 0.0859 0.79725 0.0
C2674 C 0.25361 0.19918 0.78929 0.0
C2675 C 0.21167 0.1962 0.79154 0.0
C2676 C 0.23095 0.12686 0.79598 0.0
C2677 C 0.18137 0.1593 0.79639 0.0
C2678 C 0.19941 0.04436 0.80011 0.0
C2679 C 0.27928 0.04757 0.79453 0.0
N2680 N 0.19127 0.12566 0.79835 0.0
N2681 N 0.27561 0.08642 0.79471 0.0
H2682 H 0.02538 0.20449 0.78229 0.0
H2683 H 0.80963 0.04066 0.80674 0.0
H2684 H 0.97706 0.25598 0.80128 0.0
H2685 H 0.83366 0.0063 0.78332 0.0
H2686 H 0.86131 0.12272 0.80387 0.0
H2687 H 0.94923 0.13558 0.7815 0.0
C2688 C -0.00155 0.2012 0.78628 0.0
C2689 C 0.00757 0.23509 0.79201 0.0
C2690 C 0.85426 0.09753 0.79925 0.0
C2691 C 0.92033 0.15623 0.79118 0.0
C2692 C 0.82478 0.05083 0.80089 0.0
C2693 C 0.8184 0.01717 0.79529 0.0
C2694 C 0.87834 0.11024 0.79204 0.0
C2695 C 0.83819 0.03151 0.78779 0.0
C2696 C 0.9548 0.16212 0.78577 0.0
C2697 C 0.97135 0.23004 0.79688 0.0
N2698 N 0.86844 0.07708 0.78644 0.0
N2699 N 0.9294 0.1906 0.79649 0.0
H2700 H 0.11524 0.94649 0.30466 0.0
H2701 H 0.26522 0.19968 0.28593 0.0
H2702 H 0.18753 0.97357 0.28239 0.0
H2703 H 0.23666 0.17746 0.31092 0.0
H2704 H 0.22662 0.1158 0.28397 0.0
H2705 H 0.14731 0.03046 0.3064 0.0
C2706 C 0.13681 0.97004 0.30006 0.0
C2707 C 0.1488 0.95339 0.29338 0.0
C2708 C 0.22903 0.12921 0.28989 0.0
C2709 C 0.18583 0.04862 0.29534 0.0
C2710 C 0.25119 0.17695 0.29101 0.0
C2711 C 0.25449 0.19529 0.29859 0.0
C2712 C 0.20935 0.09947 0.29641 0.0
C2713 C 0.23549 0.16456 0.305 0.0
C2714 C 0.15558 0.01781 0.30109 0.0
C2715 C 0.17754 0.98519 0.28763 0.0
N2716 N 0.21338 0.118 0.30375 0.0
N2717 N 0.19514 0.03124 0.28875 0.0
H2718 H 0.11377 0.22779 0.30494 0.0
H2719 H 0.85518 0.12354 0.28868 0.0
H2720 H 0.07918 0.26548 0.28262 0.0
H2721 H 0.88545 0.11541 0.31322 0.0
H2722 H 0.93802 0.16684 0.28584 0.0
H2723 H 0.03077 0.17494 0.30742 0.0
C2724 C 0.08877 0.22371 0.30047 0.0
C2725 C 0.10295 0.25068 0.29357 0.0
C2726 C 0.9267 0.1559 0.29187 0.0
C2727 C 0.00884 0.19173 0.2964 0.0
C2728 C 0.87951 0.13145 0.29348 0.0
C2729 C 0.86371 0.11638 0.30119 0.0
C2730 C 0.9585 0.16508 0.298 0.0
C2731 C 0.89644 0.12719 0.30723 0.0
C2732 C 0.04154 0.19425 0.30193 0.0
C2733 C 0.06941 0.24512 0.28801 0.0
N2734 N 0.94248 0.15076 0.3055 0.0
N2735 N 0.02391 0.21647 0.28956 0.0
H2736 H 0.92976 0.79655 0.28552 0.0
H2737 H 0.82344 0.94022 0.30525 0.0
H2738 H 0.93042 0.81608 0.31074 0.0
H2739 H 0.77242 0.86519 0.28334 0.0
H2740 H 0.87616 0.90897 0.30651 0.0
H2741 H 0.88294 0.83388 0.28387 0.0
C2742 C 0.91954 0.80838 0.2907 0.0
C2743 C 0.93329 0.80288 0.29827 0.0
C2744 C 0.85373 0.89989 0.30139 0.0
C2745 C 0.88117 0.84658 0.29645 0.0
C2746 C 0.82421 0.91813 0.30062 0.0
C2747 C 0.79372 0.90514 0.29418 0.0
C2748 C 0.85308 0.86928 0.29561 0.0
C2749 C 0.79541 0.87588 0.2884 0.0
C2750 C 0.8931 0.82975 0.28977 0.0
C2751 C 0.91969 0.81904 0.30482 0.0
N2752 N 0.82456 0.85889 0.28925 0.0
N2753 N 0.89459 0.84058 0.30376 0.0
H2754 H 0.34484 0.84372 0.89218 0.0
H2755 H 0.60192 0.95494 0.87516 0.0
H2756 H 0.3851 0.9054 0.86905 0.0
H2757 H 0.54124 0.84704 0.8928 0.0
H2758 H 0.53135 0.96112 0.87549 0.0
H2759 H 0.42663 0.87203 0.89528 0.0
C2760 C 0.37119 0.86483 0.88789 0.0
C2761 C 0.35876 0.87172 0.88032 0.0
C2762 C 0.53402 0.93667 0.87936 0.0
C2763 C 0.45133 0.90328 0.8837 0.0
C2764 C 0.57397 0.93298 0.87914 0.0
C2765 C 0.57655 0.89951 0.88378 0.0
C2766 C 0.49727 0.90735 0.88438 0.0
C2767 C 0.53993 0.87235 0.88895 0.0
C2768 C 0.41764 0.88057 0.88961 0.0
C2769 C 0.3938 0.89895 0.87491 0.0
N2770 N 0.50168 0.87667 0.88908 0.0
N2771 N 0.43862 0.91311 0.87664 0.0
H2772 H 0.04583 0.61198 0.87739 0.0
H2773 H 0.20033 0.49594 0.8688 0.0
H2774 H 0.174 0.67644 0.86429 0.0
H2775 H 0.08514 0.4403 0.88507 0.0
H2776 H 0.17851 0.55189 0.86422 0.0
H2777 H 0.04699 0.53885 0.87729 0.0
C2778 C 0.07335 0.61026 0.87428 0.0
C2779 C 0.11023 0.65014 0.87095 0.0
C2780 C 0.15765 0.52705 0.86873 0.0
C2781 C 0.11221 0.56755 0.87088 0.0
C2782 C 0.17005 0.495 0.87132 0.0
C2783 C 0.14521 0.46416 0.87746 0.0
C2784 C 0.12021 0.52828 0.87231 0.0
C2785 C 0.10614 0.46445 0.8805 0.0
C2786 C 0.07427 0.56877 0.87427 0.0
C2787 C 0.14529 0.64643 0.86703 0.0
N2788 N 0.09519 0.49643 0.87797 0.0
N2789 N 0.14576 0.60605 0.86719 0.0
H2790 H 0.39621 0.41516 0.87891 0.0
H2791 H 0.50509 0.68988 0.8769 0.0
H2792 H 0.32505 0.48335 0.86973 0.0
H2793 H 0.56429 0.62201 0.89031 0.0
H2794 H 0.44724 0.61475 0.8716 0.0
H2795 H 0.46669 0.49092 0.88026 0.0
C2796 C 0.39585 0.44593 0.87695 0.0
C2797 C 0.35478 0.44323 0.87429 0.0
C2798 C 0.47313 0.61635 0.87566 0.0
C2799 C 0.43458 0.52959 0.87592 0.0
C2800 C 0.50623 0.65926 0.87867 0.0
C2801 C 0.53914 0.66217 0.88415 0.0
C2802 C 0.47299 0.57604 0.87812 0.0
C2803 C 0.53886 0.62125 0.88625 0.0
C2804 C 0.43587 0.48915 0.8778 0.0
C2805 C 0.35596 0.4841 0.8719 0.0
N2806 N 0.5061 0.57984 0.88327 0.0
N2807 N 0.39505 0.52565 0.87286 0.0
H2808 H 0.86773 0.90199 0.70826 0.0
H2809 H 0.8122 0.10362 0.71555 0.0
H2810 H 0.72955 0.8814 0.70732 0.0
H2811 H 0.94686 0.13226 0.70743 0.0
H2812 H 0.78322 0.02146 0.71384 0.0
H2813 H 0.89894 0.98574 0.70895 0.0
C2814 C 0.84401 0.91526 0.7082 0.0
C2815 C 0.79597 0.88497 0.70784 0.0
C2816 C 0.81907 0.04562 0.71242 0.0
C2817 C 0.83135 0.98035 0.70864 0.0
C2818 C 0.83591 0.09266 0.71345 0.0
C2819 C 0.88221 0.12499 0.71164 0.0
C2820 C 0.84872 0.03039 0.70964 0.0
C2821 C 0.911 0.1085 0.7089 0.0
C2822 C 0.86185 0.96295 0.70854 0.0
C2823 C 0.76672 0.90374 0.70761 0.0
N2824 N 0.89379 0.06212 0.70802 0.0
N2825 N 0.78487 0.95033 0.70811 0.0
H2826 H 0.9325 0.84642 0.70387 0.0
H2827 H 0.18939 0.95021 0.72053 0.0
H2828 H 0.96505 0.79811 0.72528 0.0
H2829 H 0.16123 0.9553 0.69578 0.0
H2830 H 0.10617 0.90399 0.72307 0.0
H2831 H 0.01581 0.89867 0.70162 0.0
C2832 C 0.95715 0.84773 0.70818 0.0
C2833 C 0.94224 0.81809 0.71476 0.0
C2834 C 0.11814 0.9149 0.71707 0.0
C2835 C 0.03661 0.87674 0.71221 0.0
C2836 C 0.16544 0.94098 0.71563 0.0
C2837 C 0.1818 0.95594 0.70794 0.0
C2838 C 0.08694 0.90435 0.71079 0.0
C2839 C 0.14971 0.9436 0.70176 0.0
C2840 C 0.00449 0.87694 0.70685 0.0
C2841 C 0.97534 0.82041 0.72013 0.0
N2842 N 0.10356 0.91871 0.70332 0.0
N2843 N 0.02101 0.84915 0.71872 0.0
H2844 H 0.29529 0.24323 0.71851 0.0
H2845 H 0.04872 0.1906 0.70394 0.0
H2846 H 0.20276 0.11376 0.70692 0.0
H2847 H 0.16674 0.32848 0.70501 0.0
H2848 H 0.09984 0.15868 0.70634 0.0
H2849 H 0.24263 0.27128 0.71541 0.0
C2850 C 0.26359 0.22036 0.71538 0.0
C2851 C 0.25358 0.17603 0.71292 0.0
C2852 C 0.11455 0.19586 0.70596 0.0
C2853 C 0.19314 0.20848 0.70933 0.0
C2854 C 0.08554 0.21405 0.70463 0.0
C2855 C 0.10379 0.26219 0.70434 0.0
C2856 C 0.1619 0.22613 0.70718 0.0
C2857 C 0.15158 0.29123 0.70517 0.0
C2858 C 0.23377 0.23672 0.71355 0.0
C2859 C 0.21181 0.14813 0.70892 0.0
N2860 N 0.179 0.27274 0.70666 0.0
N2861 N 0.18294 0.16486 0.70724 0.0
H2862 H 0.64526 0.08287 0.12105 0.0
H2863 H 0.49919 0.19078 0.13804 0.0
H2864 H 0.70608 0.21345 0.13339 0.0
H2865 H 0.43667 0.05055 0.1294 0.0
H2866 H 0.57458 0.1957 0.13794 0.0
H2867 H 0.56865 0.06665 0.12532 0.0
C2868 C 0.64245 0.10807 0.12469 0.0
C2869 C 0.68198 0.15 0.12675 0.0
C2870 C 0.54438 0.1635 0.1362 0.0
C2871 C 0.59439 0.13155 0.1317 0.0
C2872 C 0.50131 0.16066 0.13626 0.0
C2873 C 0.46186 0.12036 0.13363 0.0
C2874 C 0.54822 0.12607 0.13334 0.0
C2875 C 0.46635 0.08225 0.13146 0.0
C2876 C 0.59873 0.0986 0.12719 0.0
C2877 C 0.67649 0.18084 0.13165 0.0
N2878 N 0.50902 0.08634 0.1312 0.0
N2879 N 0.63342 0.17131 0.13386 0.0
H2880 H 0.87489 0.33244 0.11632 0.0
H2881 H 0.93244 0.56068 0.13629 0.0
H2882 H 0.97453 0.38749 0.13529 0.0
H2883 H 0.87802 0.52653 0.11265 0.0
H2884 H 0.9629 0.50788 0.13497 0.0
H2885 H 0.88638 0.40917 0.11386 0.0
C2886 C 0.89909 0.3609 0.12001 0.0
C2887 C 0.92262 0.35362 0.1262 0.0
C2888 C 0.94592 0.51313 0.12994 0.0
C2889 C 0.93624 0.44183 0.12339 0.0
C2890 C 0.92881 0.5434 0.13069 0.0
C2891 C 0.90213 0.54686 0.12461 0.0
C2892 C 0.93493 0.48545 0.12314 0.0
C2893 C 0.89817 0.52421 0.11746 0.0
C2894 C 0.90626 0.4049 0.11851 0.0
C2895 C 0.95495 0.39178 0.13059 0.0
N2896 N 0.91315 0.49319 0.117 0.0
N2897 N 0.96002 0.43432 0.12923 0.0
H2898 H 0.70113 0.53408 0.13988 0.0
H2899 H 0.45299 0.3822 0.12108 0.0
H2900 H 0.63416 0.59158 0.12584 0.0
H2901 H 0.51824 0.32817 0.13639 0.0
H2902 H 0.51197 0.46076 0.12471 0.0
H2903 H 0.62799 0.46151 0.14089 0.0
C2904 C 0.67057 0.53158 0.13715 0.0
C2905 C 0.67354 0.56839 0.13269 0.0
C2906 C 0.51306 0.43177 0.12737 0.0
C2907 C 0.58999 0.48508 0.13362 0.0
C2908 C 0.47959 0.3869 0.12525 0.0
C2909 C 0.48142 0.34864 0.12829 0.0
C2910 C 0.54889 0.43847 0.13252 0.0
C2911 C 0.51575 0.35666 0.13386 0.0
C2912 C 0.62883 0.49012 0.13771 0.0
C2913 C 0.6331 0.56379 0.12932 0.0
N2914 N 0.5486 0.40072 0.1357 0.0
N2915 N 0.59302 0.52235 0.12971 0.0
H2916 H 0.77803 0.25864 0.6374 0.0
H2917 H 0.9294 0.51519 0.62027 0.0
H2918 H 0.85166 0.29024 0.6152 0.0
H2919 H 0.89901 0.48711 0.64511 0.0
H2920 H 0.89031 0.43193 0.61769 0.0
H2921 H 0.80918 0.34199 0.63958 0.0
C2922 C 0.79964 0.28308 0.63289 0.0
C2923 C 0.81246 0.26795 0.62612 0.0
C2924 C 0.89242 0.44391 0.62372 0.0
C2925 C 0.84847 0.36237 0.62861 0.0
C2926 C 0.91486 0.49125 0.62518 0.0
C2927 C 0.91768 0.50766 0.63291 0.0
C2928 C 0.87209 0.41273 0.63003 0.0
C2929 C 0.89813 0.47556 0.6391 0.0
C2930 C 0.81789 0.33047 0.63419 0.0
C2931 C 0.84114 0.30076 0.62051 0.0
N2932 N 0.87578 0.4294 0.63752 0.0
N2933 N 0.85836 0.34649 0.62189 0.0
H2934 H 0.78235 0.52806 0.63281 0.0
H2935 H 0.52882 0.49711 0.63422 0.0
H2936 H 0.74801 0.62728 0.62321 0.0
H2937 H 0.55031 0.37996 0.63436 0.0
H2938 H 0.61249 0.54852 0.63244 0.0
H2939 H 0.69931 0.47466 0.63519 0.0
C2940 C 0.75748 0.53841 0.63114 0.0
C2941 C 0.77221 0.5822 0.62782 0.0
C2942 C 0.59883 0.51152 0.63288 0.0
C2943 C 0.67803 0.52225 0.63071 0.0
C2944 C 0.5513 0.48241 0.63396 0.0
C2945 C 0.53287 0.43445 0.63434 0.0
C2946 C 0.62801 0.49244 0.63231 0.0
C2947 C 0.5633 0.41683 0.63395 0.0
C2948 C 0.71027 0.50812 0.63253 0.0
C2949 C 0.73847 0.59396 0.6258 0.0
N2950 N 0.60945 0.44582 0.63296 0.0
N2951 N 0.69317 0.5644 0.62734 0.0
H2952 H 0.59882 0.12956 0.64528 0.0
H2953 H 0.4441 0.18421 0.61642 0.0
H2954 H 0.59739 0.11293 0.61997 0.0
H2955 H 0.48569 0.24797 0.63942 0.0
H2956 H 0.49621 0.15326 0.61791 0.0
H2957 H 0.55124 0.16641 0.64372 0.0
C2958 C 0.58781 0.13303 0.63942 0.0
C2959 C 0.60164 0.11803 0.63273 0.0
C2960 C 0.49449 0.1745 0.6226 0.0
C2961 C 0.5482 0.16046 0.6309 0.0
C2962 C 0.46491 0.19228 0.62174 0.0
C2963 C 0.46089 0.21874 0.6278 0.0
C2964 C 0.51956 0.18236 0.62965 0.0
C2965 C 0.48831 0.22807 0.63459 0.0
C2966 C 0.56133 0.15459 0.63852 0.0
C2967 C 0.58737 0.12411 0.62525 0.0
N2968 N 0.51616 0.20928 0.63539 0.0
N2969 N 0.5613 0.1447 0.62453 0.0
H2970 H 0.0499 0.2842 0.21989 0.0
H2971 H 0.20286 0.18596 0.20234 0.0
H2972 H 0.99398 0.15719 0.20657 0.0
H2973 H 0.26092 0.32127 0.21295 0.0
H2974 H 0.12747 0.18092 0.20184 0.0
H2975 H 0.12768 0.30396 0.21571 0.0
C2976 C 0.05405 0.26056 0.21605 0.0
C2977 C 0.0156 0.21846 0.21371 0.0
C2978 C 0.15674 0.21217 0.20413 0.0
C2979 C 0.10453 0.24096 0.20887 0.0
C2980 C 0.19981 0.21509 0.20441 0.0
C2981 C 0.23783 0.25385 0.20778 0.0
C2982 C 0.15143 0.24787 0.20742 0.0
C2983 C 0.2323 0.29077 0.21032 0.0
C2984 C 0.09844 0.27205 0.21361 0.0
C2985 C 0.02275 0.18978 0.20855 0.0
N2986 N 0.18952 0.28646 0.21025 0.0
N2987 N 0.06647 0.20119 0.2064 0.0
H2988 H 0.71749 0.98023 0.20549 0.0
H2989 H 0.8219 0.84108 0.22728 0.0
H2990 H 0.81619 0.03079 0.22463 0.0
H2991 H 0.76895 0.81324 0.20348 0.0
H2992 H 0.78914 0.89201 0.2291 0.0
H2993 H 0.70879 0.90283 0.20727 0.0
C2994 C 0.73675 0.97478 0.21012 0.0
C2995 C 0.76872 0.01185 0.21475 0.0
C2996 C 0.78333 0.87349 0.22357 0.0
C2997 C 0.75795 0.92424 0.21699 0.0
C2998 C 0.8016 0.84422 0.22258 0.0
C2999 C 0.79869 0.8241 0.21519 0.0
C3000 C 0.76233 0.88239 0.2171 0.0
C3001 C 0.77237 0.82913 0.20922 0.0
C3002 C 0.73162 0.93082 0.21116 0.0
C3003 C 0.79233 0.00324 0.22077 0.0
N3004 N 0.75596 0.85867 0.21023 0.0
N3005 N 0.78676 0.96042 0.22167 0.0
H3006 H 0.06505 0.77625 0.21371 0.0
H3007 H 0.1823 0.04564 0.20408 0.0
H3008 H 0.0009 0.8392 0.20032 0.0
H3009 H 0.23588 0.98755 0.22104 0.0
H3010 H 0.12679 0.96743 0.19963 0.0
H3011 H 0.13852 0.85011 0.21332 0.0
C3012 C 0.0669 0.80521 0.21048 0.0
C3013 C 0.02703 0.8022 0.20716 0.0
C3014 C 0.15112 0.97184 0.20426 0.0
C3015 C 0.11 0.88625 0.20675 0.0
C3016 C 0.18289 0.0165 0.20678 0.0
C3017 C 0.21293 0.02304 0.21308 0.0
C3018 C 0.14938 0.9335 0.20807 0.0
C3019 C 0.21228 0.98397 0.21635 0.0
C3020 C 0.10859 0.84736 0.21031 0.0
C3021 C 0.03089 0.84057 0.20307 0.0
N3022 N 0.18056 0.94082 0.21388 0.0
N3023 N 0.07149 0.88121 0.20307 0.0
loop_
_geom_bond_atom_site_label_1
_geom_bond_atom_site_label_2
_geom_bond_distance
_geom_bond_site_symmetry_2
_ccdc_geom_bond_type
Co0 N5 2.057 . S
Co0 O17 2.021 . S
Co0 O20 2.062 . S
Co0 O24 2.117 . S
Co0 O25 2.020 . S
C1 O21 1.259 1_545 S
C1 O24 1.258 . S
Co2 N11 2.057 . S
Co2 O18 2.117 1_565 S
Co2 O19 2.020 1_565 S
Co2 O21 2.021 . S
Co2 O26 2.062 . S
C3 N5 1.316 . S
C3 N6 1.347 . S
C3 H8 0.931 . S
C4 N5 1.375 . S
C4 C7 1.350 . S
C4 H9 0.930 . S
N5 Co0 2.057 . S
N5 C3 1.316 . S
N5 C4 1.375 . S
N6 C3 1.347 . S
N6 C7 1.373 . S
C7 C4 1.350 . S
C7 N6 1.373 . S
C7 H28 0.931 . S
H8 C3 0.931 . S
H9 C4 0.930 . S
C10 O17 1.259 . S
C10 O18 1.258 . S
N11 Co2 2.057 . S
N11 C12 1.316 . S
N11 C13 1.375 . S
C12 N11 1.316 . S
C12 N14 1.347 . S
C12 H23 0.931 . S
C13 N11 1.375 . S
C13 C15 1.350 . S
C13 H22 0.930 . S
N14 C12 1.347 . S
N14 C15 1.373 . S
C15 C13 1.350 . S
C15 N14 1.373 . S
C15 H29 0.931 . S
C16 O19 1.256 . S
C16 O20 1.255 . S
O17 Co0 2.021 . S
O17 C10 1.259 . S
O18 Co2 2.117 1_545 S
O18 C10 1.258 . S
O19 Co2 2.020 1_545 S
O19 C16 1.256 . S
O20 Co0 2.062 . S
O20 C16 1.255 . S
O21 C1 1.259 1_565 S
O21 Co2 2.021 . S
H22 C13 0.930 . S
H23 C12 0.931 . S
O24 Co0 2.117 . S
O24 C1 1.258 . S
O25 Co0 2.020 . S
O25 C27 1.256 1_545 S
O26 Co2 2.062 . S
O26 C27 1.255 . S
C27 O25 1.256 1_565 S
C27 O26 1.255 . S
H28 C7 0.931 . S
H29 C15 0.931 . S
Co30 N35 2.057 . S
Co30 O47 2.021 . S
Co30 O50 2.062 . S
Co30 O54 2.117 . S
Co30 O55 2.020 1_655 S
C31 O51 1.259 . S
C31 O54 1.258 1_455 S
Co32 N41 2.057 . S
Co32 O48 2.117 . S
Co32 O49 2.020 1_455 S
Co32 O51 2.021 . S
Co32 O56 2.062 . S
C33 N35 1.316 . S
C33 N36 1.347 . S
C33 H38 0.931 . S
C34 N35 1.375 . S
C34 C37 1.350 . S
C34 H39 0.930 . S
N35 Co30 2.057 . S
N35 C33 1.316 . S
N35 C34 1.375 . S
N36 C33 1.347 . S
N36 C37 1.373 . S
C37 C34 1.350 . S
C37 N36 1.373 . S
C37 H58 0.931 . S
H38 C33 0.931 . S
H39 C34 0.930 . S
C40 O47 1.259 1_455 S
C40 O48 1.258 . S
N41 Co32 2.057 . S
N41 C42 1.316 . S
N41 C43 1.375 . S
C42 N41 1.316 . S
C42 N44 1.347 . S
C42 H53 0.931 . S
C43 N41 1.375 . S
C43 C45 1.350 . S
C43 H52 0.930 . S
N44 C42 1.347 . S
N44 C45 1.373 . S
C45 C43 1.350 . S
C45 N44 1.373 . S
C45 H59 0.931 . S
C46 O49 1.256 . S
C46 O50 1.255 . S
O47 Co30 2.021 . S
O47 C40 1.259 1_655 S
O48 Co32 2.117 . S
O48 C40 1.258 . S
O49 Co32 2.020 1_655 S
O49 C46 1.256 . S
O50 Co30 2.062 . S
O50 C46 1.255 . S
O51 C31 1.259 . S
O51 Co32 2.021 . S
H52 C43 0.930 . S
H53 C42 0.931 . S
O54 Co30 2.117 . S
O54 C31 1.258 1_655 S
O55 Co30 2.020 1_455 S
O55 C57 1.256 . S
O56 Co32 2.062 . S
O56 C57 1.255 . S
C57 O55 1.256 . S
C57 O56 1.255 . S
H58 C37 0.931 . S
H59 C45 0.931 . S
Co60 N65 2.057 . S
Co60 O77 2.021 . S
Co60 O80 2.062 . S
Co60 O84 2.117 . S
Co60 O85 2.020 . S
C61 O81 1.259 . S
C61 O84 1.258 . S
Co62 N71 2.057 . S
Co62 O78 2.117 . S
Co62 O79 2.020 . S
Co62 O81 2.021 . S
Co62 O86 2.062 . S
C63 N65 1.316 . S
C63 N66 1.347 . S
C63 H68 0.931 . S
C64 N65 1.375 . S
C64 C67 1.350 . S
C64 H69 0.930 . S
N65 Co60 2.057 . S
N65 C63 1.316 . S
N65 C64 1.375 . S
N66 C63 1.347 . S
N66 C67 1.373 . S
C67 C64 1.350 . S
C67 N66 1.373 . S
C67 H88 0.931 . S
H68 C63 0.931 . S
H69 C64 0.930 . S
C70 O77 1.259 . S
C70 O78 1.258 . S
N71 Co62 2.057 . S
N71 C72 1.316 . S
N71 C73 1.375 . S
C72 N71 1.316 . S
C72 N74 1.347 . S
C72 H83 0.931 . S
C73 N71 1.375 . S
C73 C75 1.350 . S
C73 H82 0.930 . S
N74 C72 1.347 . S
N74 C75 1.373 . S
C75 C73 1.350 . S
C75 N74 1.373 . S
C75 H89 0.931 . S
C76 O79 1.256 . S
C76 O80 1.255 . S
O77 Co60 2.021 . S
O77 C70 1.259 . S
O78 Co62 2.117 . S
O78 C70 1.258 . S
O79 Co62 2.020 . S
O79 C76 1.256 . S
O80 Co60 2.062 . S
O80 C76 1.255 . S
O81 C61 1.259 . S
O81 Co62 2.021 . S
H82 C73 0.930 . S
H83 C72 0.931 . S
O84 Co60 2.117 . S
O84 C61 1.258 . S
O85 Co60 2.020 . S
O85 C87 1.256 . S
O86 Co62 2.062 . S
O86 C87 1.255 . S
C87 O85 1.256 . S
C87 O86 1.255 . S
H88 C67 0.931 . S
H89 C75 0.931 . S
Co90 N95 2.057 . S
Co90 O107 2.021 . S
Co90 O110 2.062 . S
Co90 O114 2.117 1_655 S
Co90 O115 2.020 1_655 S
C91 O111 1.259 . S
C91 O114 1.258 . S
Co92 N101 2.057 . S
Co92 O108 2.117 . S
Co92 O109 2.020 . S
Co92 O111 2.021 . S
Co92 O116 2.062 . S
C93 N95 1.316 . S
C93 N96 1.347 . S
C93 H98 0.931 . S
C94 N95 1.375 . S
C94 C97 1.350 . S
C94 H99 0.930 . S
N95 Co90 2.057 . S
N95 C93 1.316 . S
N95 C94 1.375 . S
N96 C93 1.347 . S
N96 C97 1.373 . S
C97 C94 1.350 . S
C97 N96 1.373 . S
C97 H118 0.931 . S
H98 C93 0.931 . S
H99 C94 0.930 . S
C100 O107 1.259 1_455 S
C100 O108 1.258 . S
N101 Co92 2.057 . S
N101 C102 1.316 . S
N101 C103 1.375 . S
C102 N101 1.316 . S
C102 N104 1.347 . S
C102 H113 0.931 . S
C103 N101 1.375 . S
C103 C105 1.350 . S
C103 H112 0.930 . S
N104 C102 1.347 . S
N104 C105 1.373 . S
C105 C103 1.350 . S
C105 N104 1.373 . S
C105 H119 0.931 . S
C106 O109 1.256 1_655 S
C106 O110 1.255 . S
O107 Co90 2.021 . S
O107 C100 1.259 1_655 S
O108 Co92 2.117 . S
O108 C100 1.258 . S
O109 Co92 2.020 . S
O109 C106 1.256 1_455 S
O110 Co90 2.062 . S
O110 C106 1.255 . S
O111 C91 1.259 . S
O111 Co92 2.021 . S
H112 C103 0.930 . S
H113 C102 0.931 . S
O114 Co90 2.117 1_455 S
O114 C91 1.258 . S
O115 Co90 2.020 1_455 S
O115 C117 1.256 . S
O116 Co92 2.062 . S
O116 C117 1.255 . S
C117 O115 1.256 . S
C117 O116 1.255 . S
H118 C97 0.931 . S
H119 C105 0.931 . S
Co120 N125 2.057 . S
Co120 O137 2.021 . S
Co120 O140 2.062 . S
Co120 O144 2.117 . S
Co120 O145 2.020 . S
C121 O141 1.259 . S
C121 O144 1.258 . S
Co122 N131 2.057 . S
Co122 O138 2.117 . S
Co122 O139 2.020 . S
Co122 O141 2.021 . S
Co122 O146 2.062 . S
C123 N125 1.316 . S
C123 N126 1.347 . S
C123 H128 0.931 . S
C124 N125 1.375 . S
C124 C127 1.350 . S
C124 H129 0.930 . S
N125 Co120 2.057 . S
N125 C123 1.316 . S
N125 C124 1.375 . S
N126 C123 1.347 . S
N126 C127 1.373 . S
C127 C124 1.350 . S
C127 N126 1.373 . S
C127 H148 0.931 . S
H128 C123 0.931 . S
H129 C124 0.930 . S
C130 O137 1.259 . S
C130 O138 1.258 . S
N131 Co122 2.057 . S
N131 C132 1.316 . S
N131 C133 1.375 . S
C132 N131 1.316 . S
C132 N134 1.347 . S
C132 H143 0.931 . S
C133 N131 1.375 . S
C133 C135 1.350 . S
C133 H142 0.930 . S
N134 C132 1.347 . S
N134 C135 1.373 . S
C135 C133 1.350 . S
C135 N134 1.373 . S
C135 H149 0.931 . S
C136 O139 1.256 . S
C136 O140 1.255 . S
O137 Co120 2.021 . S
O137 C130 1.259 . S
O138 Co122 2.117 . S
O138 C130 1.258 . S
O139 Co122 2.020 . S
O139 C136 1.256 . S
O140 Co120 2.062 . S
O140 C136 1.255 . S
O141 C121 1.259 . S
O141 Co122 2.021 . S
H142 C133 0.930 . S
H143 C132 0.931 . S
O144 Co120 2.117 . S
O144 C121 1.258 . S
O145 Co120 2.020 . S
O145 C147 1.256 . S
O146 Co122 2.062 . S
O146 C147 1.255 . S
C147 O145 1.256 . S
C147 O146 1.255 . S
H148 C127 0.931 . S
H149 C135 0.931 . S
Co150 N155 2.057 . S
Co150 O167 2.021 . S
Co150 O170 2.062 . S
Co150 O174 2.117 . S
Co150 O175 2.020 1_545 S
C151 O171 1.259 1_545 S
C151 O174 1.258 . S
Co152 N161 2.057 . S
Co152 O168 2.117 . S
Co152 O169 2.020 1_565 S
Co152 O171 2.021 . S
Co152 O176 2.062 . S
C153 N155 1.316 . S
C153 N156 1.347 . S
C153 H158 0.931 . S
C154 N155 1.375 . S
C154 C157 1.350 . S
C154 H159 0.930 . S
N155 Co150 2.057 . S
N155 C153 1.316 . S
N155 C154 1.375 . S
N156 C153 1.347 . S
N156 C157 1.373 . S
C157 C154 1.350 . S
C157 N156 1.373 . S
C157 H178 0.931 . S
H158 C153 0.931 . S
H159 C154 0.930 . S
C160 O167 1.259 . S
C160 O168 1.258 1_545 S
N161 Co152 2.057 . S
N161 C162 1.316 . S
N161 C163 1.375 . S
C162 N161 1.316 . S
C162 N164 1.347 . S
C162 H173 0.931 . S
C163 N161 1.375 . S
C163 C165 1.350 . S
C163 H172 0.930 . S
N164 C162 1.347 . S
N164 C165 1.373 . S
C165 C163 1.350 . S
C165 N164 1.373 . S
C165 H179 0.931 . S
C166 O169 1.256 . S
C166 O170 1.255 . S
O167 Co150 2.021 . S
O167 C160 1.259 . S
O168 Co152 2.117 . S
O168 C160 1.258 1_565 S
O169 Co152 2.020 1_545 S
O169 C166 1.256 . S
O170 Co150 2.062 . S
O170 C166 1.255 . S
O171 C151 1.259 1_565 S
O171 Co152 2.021 . S
H172 C163 0.930 . S
H173 C162 0.931 . S
O174 Co150 2.117 . S
O174 C151 1.258 . S
O175 Co150 2.020 1_565 S
O175 C177 1.256 . S
O176 Co152 2.062 . S
O176 C177 1.255 . S
C177 O175 1.256 . S
C177 O176 1.255 . S
H178 C157 0.931 . S
H179 C165 0.931 . S
Co180 N185 2.057 . S
Co180 O197 2.021 . S
Co180 O200 2.062 . S
Co180 O204 2.117 . S
Co180 O205 2.020 1_545 S
C181 O201 1.259 1_545 S
C181 O204 1.258 . S
Co182 N191 2.057 . S
Co182 O198 2.117 . S
Co182 O199 2.020 1_565 S
Co182 O201 2.021 . S
Co182 O206 2.062 . S
C183 N185 1.316 . S
C183 N186 1.347 . S
C183 H188 0.931 . S
C184 N185 1.375 . S
C184 C187 1.350 . S
C184 H189 0.930 . S
N185 Co180 2.057 . S
N185 C183 1.316 . S
N185 C184 1.375 . S
N186 C183 1.347 . S
N186 C187 1.373 . S
C187 C184 1.350 . S
C187 N186 1.373 . S
C187 H208 0.931 . S
H188 C183 0.931 . S
H189 C184 0.930 . S
C190 O197 1.259 . S
C190 O198 1.258 1_545 S
N191 Co182 2.057 . S
N191 C192 1.316 . S
N191 C193 1.375 . S
C192 N191 1.316 . S
C192 N194 1.347 . S
C192 H203 0.931 . S
C193 N191 1.375 . S
C193 C195 1.350 . S
C193 H202 0.930 . S
N194 C192 1.347 . S
N194 C195 1.373 . S
C195 C193 1.350 . S
C195 N194 1.373 . S
C195 H209 0.931 . S
C196 O199 1.256 . S
C196 O200 1.255 . S
O197 Co180 2.021 . S
O197 C190 1.259 . S
O198 Co182 2.117 . S
O198 C190 1.258 1_565 S
O199 Co182 2.020 1_545 S
O199 C196 1.256 . S
O200 Co180 2.062 . S
O200 C196 1.255 . S
O201 C181 1.259 1_565 S
O201 Co182 2.021 . S
H202 C193 0.930 . S
H203 C192 0.931 . S
O204 Co180 2.117 . S
O204 C181 1.258 . S
O205 Co180 2.020 1_565 S
O205 C207 1.256 . S
O206 Co182 2.062 . S
O206 C207 1.255 . S
C207 O205 1.256 . S
C207 O206 1.255 . S
H208 C187 0.931 . S
H209 C195 0.931 . S
Co210 N215 2.057 . S
Co210 O227 2.021 . S
Co210 O230 2.062 . S
Co210 O234 2.117 1_655 S
Co210 O235 2.020 1_655 S
C211 O231 1.259 . S
C211 O234 1.258 . S
Co212 N221 2.057 . S
Co212 O228 2.117 . S
Co212 O229 2.020 . S
Co212 O231 2.021 . S
Co212 O236 2.062 . S
C213 N215 1.316 . S
C213 N216 1.347 . S
C213 H218 0.931 . S
C214 N215 1.375 . S
C214 C217 1.350 . S
C214 H219 0.930 . S
N215 Co210 2.057 . S
N215 C213 1.316 . S
N215 C214 1.375 . S
N216 C213 1.347 . S
N216 C217 1.373 . S
C217 C214 1.350 . S
C217 N216 1.373 . S
C217 H238 0.931 . S
H218 C213 0.931 . S
H219 C214 0.930 . S
C220 O227 1.259 1_455 S
C220 O228 1.258 . S
N221 Co212 2.057 . S
N221 C222 1.316 . S
N221 C223 1.375 . S
C222 N221 1.316 . S
C222 N224 1.347 . S
C222 H233 0.931 . S
C223 N221 1.375 . S
C223 C225 1.350 . S
C223 H232 0.930 . S
N224 C222 1.347 . S
N224 C225 1.373 . S
C225 C223 1.350 . S
C225 N224 1.373 . S
C225 H239 0.931 . S
C226 O229 1.256 1_655 S
C226 O230 1.255 . S
O227 Co210 2.021 . S
O227 C220 1.259 1_655 S
O228 Co212 2.117 . S
O228 C220 1.258 . S
O229 Co212 2.020 . S
O229 C226 1.256 1_455 S
O230 Co210 2.062 . S
O230 C226 1.255 . S
O231 C211 1.259 . S
O231 Co212 2.021 . S
H232 C223 0.930 . S
H233 C222 0.931 . S
O234 Co210 2.117 1_455 S
O234 C211 1.258 . S
O235 Co210 2.020 1_455 S
O235 C237 1.256 . S
O236 Co212 2.062 . S
O236 C237 1.255 . S
C237 O235 1.256 . S
C237 O236 1.255 . S
H238 C217 0.931 . S
H239 C225 0.931 . S
Co240 N245 2.057 . S
Co240 O257 2.021 . S
Co240 O260 2.062 . S
Co240 O264 2.117 . S
Co240 O265 2.020 . S
C241 O261 1.259 . S
C241 O264 1.258 . S
Co242 N251 2.057 . S
Co242 O258 2.117 . S
Co242 O259 2.020 . S
Co242 O261 2.021 . S
Co242 O266 2.062 . S
C243 N245 1.316 . S
C243 N246 1.347 . S
C243 H248 0.931 . S
C244 N245 1.375 . S
C244 C247 1.350 . S
C244 H249 0.930 . S
N245 Co240 2.057 . S
N245 C243 1.316 . S
N245 C244 1.375 . S
N246 C243 1.347 . S
N246 C247 1.373 . S
C247 C244 1.350 . S
C247 N246 1.373 . S
C247 H268 0.931 . S
H248 C243 0.931 . S
H249 C244 0.930 . S
C250 O257 1.259 . S
C250 O258 1.258 . S
N251 Co242 2.057 . S
N251 C252 1.316 . S
N251 C253 1.375 . S
C252 N251 1.316 . S
C252 N254 1.347 . S
C252 H263 0.931 . S
C253 N251 1.375 . S
C253 C255 1.350 . S
C253 H262 0.930 . S
N254 C252 1.347 . S
N254 C255 1.373 . S
C255 C253 1.350 . S
C255 N254 1.373 . S
C255 H269 0.931 . S
C256 O259 1.256 . S
C256 O260 1.255 . S
O257 Co240 2.021 . S
O257 C250 1.259 . S
O258 Co242 2.117 . S
O258 C250 1.258 . S
O259 Co242 2.020 . S
O259 C256 1.256 . S
O260 Co240 2.062 . S
O260 C256 1.255 . S
O261 C241 1.259 . S
O261 Co242 2.021 . S
H262 C253 0.930 . S
H263 C252 0.931 . S
O264 Co240 2.117 . S
O264 C241 1.258 . S
O265 Co240 2.020 . S
O265 C267 1.256 . S
O266 Co242 2.062 . S
O266 C267 1.255 . S
C267 O265 1.256 . S
C267 O266 1.255 . S
H268 C247 0.931 . S
H269 C255 0.931 . S
Co270 N275 2.057 . S
Co270 O287 2.021 . S
Co270 O290 2.062 . S
Co270 O294 2.117 . S
Co270 O295 2.020 1_655 S
C271 O291 1.259 . S
C271 O294 1.258 1_455 S
Co272 N281 2.057 . S
Co272 O288 2.117 . S
Co272 O289 2.020 1_455 S
Co272 O291 2.021 . S
Co272 O296 2.062 . S
C273 N275 1.316 . S
C273 N276 1.347 . S
C273 H278 0.931 . S
C274 N275 1.375 . S
C274 C277 1.350 . S
C274 H279 0.930 . S
N275 Co270 2.057 . S
N275 C273 1.316 . S
N275 C274 1.375 . S
N276 C273 1.347 . S
N276 C277 1.373 . S
C277 C274 1.350 . S
C277 N276 1.373 . S
C277 H298 0.931 . S
H278 C273 0.931 . S
H279 C274 0.930 . S
C280 O287 1.259 1_455 S
C280 O288 1.258 . S
N281 Co272 2.057 . S
N281 C282 1.316 . S
N281 C283 1.375 . S
C282 N281 1.316 . S
C282 N284 1.347 . S
C282 H293 0.931 . S
C283 N281 1.375 . S
C283 C285 1.350 . S
C283 H292 0.930 . S
N284 C282 1.347 . S
N284 C285 1.373 . S
C285 C283 1.350 . S
C285 N284 1.373 . S
C285 H299 0.931 . S
C286 O289 1.256 . S
C286 O290 1.255 . S
O287 Co270 2.021 . S
O287 C280 1.259 1_655 S
O288 Co272 2.117 . S
O288 C280 1.258 . S
O289 Co272 2.020 1_655 S
O289 C286 1.256 . S
O290 Co270 2.062 . S
O290 C286 1.255 . S
O291 C271 1.259 . S
O291 Co272 2.021 . S
H292 C283 0.930 . S
H293 C282 0.931 . S
O294 Co270 2.117 . S
O294 C271 1.258 1_655 S
O295 Co270 2.020 1_455 S
O295 C297 1.256 . S
O296 Co272 2.062 . S
O296 C297 1.255 . S
C297 O295 1.256 . S
C297 O296 1.255 . S
H298 C277 0.931 . S
H299 C285 0.931 . S
Co300 N305 2.057 . S
Co300 O317 2.021 . S
Co300 O320 2.062 . S
Co300 O324 2.117 . S
Co300 O325 2.020 . S
C301 O321 1.259 . S
C301 O324 1.258 . S
Co302 N311 2.057 . S
Co302 O318 2.117 . S
Co302 O319 2.020 . S
Co302 O321 2.021 . S
Co302 O326 2.062 . S
C303 N305 1.316 . S
C303 N306 1.347 . S
C303 H308 0.931 . S
C304 N305 1.375 . S
C304 C307 1.350 . S
C304 H309 0.930 . S
N305 Co300 2.057 . S
N305 C303 1.316 . S
N305 C304 1.375 . S
N306 C303 1.347 . S
N306 C307 1.373 . S
C307 C304 1.350 . S
C307 N306 1.373 . S
C307 H328 0.931 . S
H308 C303 0.931 . S
H309 C304 0.930 . S
C310 O317 1.259 . S
C310 O318 1.258 . S
N311 Co302 2.057 . S
N311 C312 1.316 . S
N311 C313 1.375 . S
C312 N311 1.316 . S
C312 N314 1.347 . S
C312 H323 0.931 . S
C313 N311 1.375 . S
C313 C315 1.350 . S
C313 H322 0.930 . S
N314 C312 1.347 . S
N314 C315 1.373 . S
C315 C313 1.350 . S
C315 N314 1.373 . S
C315 H329 0.931 . S
C316 O319 1.256 . S
C316 O320 1.255 . S
O317 Co300 2.021 . S
O317 C310 1.259 . S
O318 Co302 2.117 . S
O318 C310 1.258 . S
O319 Co302 2.020 . S
O319 C316 1.256 . S
O320 Co300 2.062 . S
O320 C316 1.255 . S
O321 C301 1.259 . S
O321 Co302 2.021 . S
H322 C313 0.930 . S
H323 C312 0.931 . S
O324 Co300 2.117 . S
O324 C301 1.258 . S
O325 Co300 2.020 . S
O325 C327 1.256 . S
O326 Co302 2.062 . S
O326 C327 1.255 . S
C327 O325 1.256 . S
C327 O326 1.255 . S
H328 C307 0.931 . S
H329 C315 0.931 . S
Co330 N335 2.057 . S
Co330 O347 2.021 . S
Co330 O350 2.062 . S
Co330 O354 2.117 . S
Co330 O355 2.020 . S
C331 O351 1.259 1_545 S
C331 O354 1.258 . S
Co332 N341 2.057 . S
Co332 O348 2.117 1_565 S
Co332 O349 2.020 1_565 S
Co332 O351 2.021 . S
Co332 O356 2.062 . S
C333 N335 1.316 . S
C333 N336 1.347 . S
C333 H338 0.931 . S
C334 N335 1.375 . S
C334 C337 1.350 . S
C334 H339 0.930 . S
N335 Co330 2.057 . S
N335 C333 1.316 . S
N335 C334 1.375 . S
N336 C333 1.347 . S
N336 C337 1.373 . S
C337 C334 1.350 . S
C337 N336 1.373 . S
C337 H358 0.931 . S
H338 C333 0.931 . S
H339 C334 0.930 . S
C340 O347 1.259 . S
C340 O348 1.258 . S
N341 Co332 2.057 . S
N341 C342 1.316 . S
N341 C343 1.375 . S
C342 N341 1.316 . S
C342 N344 1.347 . S
C342 H353 0.931 . S
C343 N341 1.375 . S
C343 C345 1.350 . S
C343 H352 0.930 . S
N344 C342 1.347 . S
N344 C345 1.373 . S
C345 C343 1.350 . S
C345 N344 1.373 . S
C345 H359 0.931 . S
C346 O349 1.256 . S
C346 O350 1.255 . S
O347 Co330 2.021 . S
O347 C340 1.259 . S
O348 Co332 2.117 1_545 S
O348 C340 1.258 . S
O349 Co332 2.020 1_545 S
O349 C346 1.256 . S
O350 Co330 2.062 . S
O350 C346 1.255 . S
O351 C331 1.259 1_565 S
O351 Co332 2.021 . S
H352 C343 0.930 . S
H353 C342 0.931 . S
O354 Co330 2.117 . S
O354 C331 1.258 . S
O355 Co330 2.020 . S
O355 C357 1.256 1_545 S
O356 Co332 2.062 . S
O356 C357 1.255 . S
C357 O355 1.256 1_565 S
C357 O356 1.255 . S
H358 C337 0.931 . S
H359 C345 0.931 . S
Co360 N365 2.057 . S
Co360 O377 2.021 . S
Co360 O380 2.062 . S
Co360 O384 2.117 . S
Co360 O385 2.020 . S
C361 O381 1.259 . S
C361 O384 1.258 . S
Co362 N371 2.057 . S
Co362 O378 2.117 . S
Co362 O379 2.020 . S
Co362 O381 2.021 . S
Co362 O386 2.062 . S
C363 N365 1.316 . S
C363 N366 1.347 . S
C363 H368 0.931 . S
C364 N365 1.375 . S
C364 C367 1.350 . S
C364 H369 0.930 . S
N365 Co360 2.057 . S
N365 C363 1.316 . S
N365 C364 1.375 . S
N366 C363 1.347 . S
N366 C367 1.373 . S
C367 C364 1.350 . S
C367 N366 1.373 . S
C367 H388 0.931 . S
H368 C363 0.931 . S
H369 C364 0.930 . S
C370 O377 1.259 . S
C370 O378 1.258 . S
N371 Co362 2.057 . S
N371 C372 1.316 . S
N371 C373 1.375 . S
C372 N371 1.316 . S
C372 N374 1.347 . S
C372 H383 0.931 . S
C373 N371 1.375 . S
C373 C375 1.350 . S
C373 H382 0.930 . S
N374 C372 1.347 . S
N374 C375 1.373 . S
C375 C373 1.350 . S
C375 N374 1.373 . S
C375 H389 0.931 . S
C376 O379 1.256 . S
C376 O380 1.255 . S
O377 Co360 2.021 . S
O377 C370 1.259 . S
O378 Co362 2.117 . S
O378 C370 1.258 . S
O379 Co362 2.020 . S
O379 C376 1.256 . S
O380 Co360 2.062 . S
O380 C376 1.255 . S
O381 C361 1.259 . S
O381 Co362 2.021 . S
H382 C373 0.930 . S
H383 C372 0.931 . S
O384 Co360 2.117 . S
O384 C361 1.258 . S
O385 Co360 2.020 . S
O385 C387 1.256 . S
O386 Co362 2.062 . S
O386 C387 1.255 . S
C387 O385 1.256 . S
C387 O386 1.255 . S
H388 C367 0.931 . S
H389 C375 0.931 . S
Co390 N395 2.057 . S
Co390 O407 2.021 . S
Co390 O410 2.062 . S
Co390 O414 2.117 . S
Co390 O415 2.020 . S
C391 O411 1.259 . S
C391 O414 1.258 . S
Co392 N401 2.057 . S
Co392 O408 2.117 . S
Co392 O409 2.020 . S
Co392 O411 2.021 . S
Co392 O416 2.062 . S
C393 N395 1.316 . S
C393 N396 1.347 . S
C393 H398 0.931 . S
C394 N395 1.375 . S
C394 C397 1.350 . S
C394 H399 0.930 . S
N395 Co390 2.057 . S
N395 C393 1.316 . S
N395 C394 1.375 . S
N396 C393 1.347 . S
N396 C397 1.373 . S
C397 C394 1.350 . S
C397 N396 1.373 . S
C397 H418 0.931 . S
H398 C393 0.931 . S
H399 C394 0.930 . S
C400 O407 1.259 . S
C400 O408 1.258 . S
N401 Co392 2.057 . S
N401 C402 1.316 . S
N401 C403 1.375 . S
C402 N401 1.316 . S
C402 N404 1.347 1_565 S
C402 H413 0.931 . S
C403 N401 1.375 . S
C403 C405 1.350 . S
C403 H412 0.930 . S
N404 C402 1.347 1_545 S
N404 C405 1.373 1_545 S
C405 C403 1.350 . S
C405 N404 1.373 1_565 S
C405 H419 0.931 1_565 S
C406 O409 1.256 . S
C406 O410 1.255 . S
O407 Co390 2.021 . S
O407 C400 1.259 . S
O408 Co392 2.117 . S
O408 C400 1.258 . S
O409 Co392 2.020 . S
O409 C406 1.256 . S
O410 Co390 2.062 . S
O410 C406 1.255 . S
O411 C391 1.259 . S
O411 Co392 2.021 . S
H412 C403 0.930 . S
H413 C402 0.931 . S
O414 Co390 2.117 . S
O414 C391 1.258 . S
O415 Co390 2.020 . S
O415 C417 1.256 . S
O416 Co392 2.062 . S
O416 C417 1.255 . S
C417 O415 1.256 . S
C417 O416 1.255 . S
H418 C397 0.931 . S
H419 C405 0.931 1_545 S
Co420 N425 2.057 . S
Co420 O437 2.021 . S
Co420 O440 2.062 . S
Co420 O444 2.117 . S
Co420 O445 2.020 . S
C421 O441 1.259 . S
C421 O444 1.258 . S
Co422 N431 2.057 . S
Co422 O438 2.117 . S
Co422 O439 2.020 . S
Co422 O441 2.021 . S
Co422 O446 2.062 . S
C423 N425 1.316 . S
C423 N426 1.347 . S
C423 H428 0.931 . S
C424 N425 1.375 . S
C424 C427 1.350 . S
C424 H429 0.930 . S
N425 Co420 2.057 . S
N425 C423 1.316 . S
N425 C424 1.375 . S
N426 C423 1.347 . S
N426 C427 1.373 . S
C427 C424 1.350 . S
C427 N426 1.373 . S
C427 H448 0.931 . S
H428 C423 0.931 . S
H429 C424 0.930 . S
C430 O437 1.259 . S
C430 O438 1.258 . S
N431 Co422 2.057 . S
N431 C432 1.316 . S
N431 C433 1.375 . S
C432 N431 1.316 . S
C432 N434 1.347 . S
C432 H443 0.931 . S
C433 N431 1.375 . S
C433 C435 1.350 . S
C433 H442 0.930 . S
N434 C432 1.347 . S
N434 C435 1.373 . S
C435 C433 1.350 . S
C435 N434 1.373 . S
C435 H449 0.931 . S
C436 O439 1.256 . S
C436 O440 1.255 . S
O437 Co420 2.021 . S
O437 C430 1.259 . S
O438 Co422 2.117 . S
O438 C430 1.258 . S
O439 Co422 2.020 . S
O439 C436 1.256 . S
O440 Co420 2.062 . S
O440 C436 1.255 . S
O441 C421 1.259 . S
O441 Co422 2.021 . S
H442 C433 0.930 . S
H443 C432 0.931 . S
O444 Co420 2.117 . S
O444 C421 1.258 . S
O445 Co420 2.020 . S
O445 C447 1.256 . S
O446 Co422 2.062 . S
O446 C447 1.255 . S
C447 O445 1.256 . S
C447 O446 1.255 . S
H448 C427 0.931 . S
H449 C435 0.931 . S
Co450 N455 2.057 . S
Co450 O467 2.021 . S
Co450 O470 2.062 . S
Co450 O474 2.117 . S
Co450 O475 2.020 . S
C451 O471 1.259 . S
C451 O474 1.258 . S
Co452 N461 2.057 . S
Co452 O468 2.117 . S
Co452 O469 2.020 . S
Co452 O471 2.021 . S
Co452 O476 2.062 . S
C453 N455 1.316 . S
C453 N456 1.347 . S
C453 H458 0.931 . S
C454 N455 1.375 . S
C454 C457 1.350 . S
C454 H459 0.930 . S
N455 Co450 2.057 . S
N455 C453 1.316 . S
N455 C454 1.375 . S
N456 C453 1.347 . S
N456 C457 1.373 . S
C457 C454 1.350 . S
C457 N456 1.373 . S
C457 H478 0.931 . S
H458 C453 0.931 . S
H459 C454 0.930 . S
C460 O467 1.259 . S
C460 O468 1.258 . S
N461 Co452 2.057 . S
N461 C462 1.316 . S
N461 C463 1.375 . S
C462 N461 1.316 . S
C462 N464 1.347 1_565 S
C462 H473 0.931 . S
C463 N461 1.375 . S
C463 C465 1.350 1_565 S
C463 H472 0.930 . S
N464 C462 1.347 1_545 S
N464 C465 1.373 . S
C465 C463 1.350 1_545 S
C465 N464 1.373 . S
C465 H479 0.931 . S
C466 O469 1.256 . S
C466 O470 1.255 . S
O467 Co450 2.021 . S
O467 C460 1.259 . S
O468 Co452 2.117 . S
O468 C460 1.258 . S
O469 Co452 2.020 . S
O469 C466 1.256 . S
O470 Co450 2.062 . S
O470 C466 1.255 . S
O471 C451 1.259 . S
O471 Co452 2.021 . S
H472 C463 0.930 . S
H473 C462 0.931 . S
O474 Co450 2.117 . S
O474 C451 1.258 . S
O475 Co450 2.020 . S
O475 C477 1.256 . S
O476 Co452 2.062 . S
O476 C477 1.255 . S
C477 O475 1.256 . S
C477 O476 1.255 . S
H478 C457 0.931 . S
H479 C465 0.931 . S
Co480 N485 2.057 . S
Co480 O497 2.021 . S
Co480 O500 2.062 . S
Co480 O504 2.117 . S
Co480 O505 2.020 . S
C481 O501 1.259 . S
C481 O504 1.258 . S
Co482 N491 2.057 . S
Co482 O498 2.117 . S
Co482 O499 2.020 . S
Co482 O501 2.021 . S
Co482 O506 2.062 . S
C483 N485 1.316 . S
C483 N486 1.347 . S
C483 H488 0.931 . S
C484 N485 1.375 . S
C484 C487 1.350 . S
C484 H489 0.930 . S
N485 Co480 2.057 . S
N485 C483 1.316 . S
N485 C484 1.375 . S
N486 C483 1.347 . S
N486 C487 1.373 . S
C487 C484 1.350 . S
C487 N486 1.373 . S
C487 H508 0.931 . S
H488 C483 0.931 . S
H489 C484 0.930 . S
C490 O497 1.259 . S
C490 O498 1.258 . S
N491 Co482 2.057 . S
N491 C492 1.316 . S
N491 C493 1.375 . S
C492 N491 1.316 . S
C492 N494 1.347 . S
C492 H503 0.931 . S
C493 N491 1.375 . S
C493 C495 1.350 . S
C493 H502 0.930 . S
N494 C492 1.347 . S
N494 C495 1.373 . S
C495 C493 1.350 . S
C495 N494 1.373 . S
C495 H509 0.931 . S
C496 O499 1.256 . S
C496 O500 1.255 . S
O497 Co480 2.021 . S
O497 C490 1.259 . S
O498 Co482 2.117 . S
O498 C490 1.258 . S
O499 Co482 2.020 . S
O499 C496 1.256 . S
O500 Co480 2.062 . S
O500 C496 1.255 . S
O501 C481 1.259 . S
O501 Co482 2.021 . S
H502 C493 0.930 . S
H503 C492 0.931 . S
O504 Co480 2.117 . S
O504 C481 1.258 . S
O505 Co480 2.020 . S
O505 C507 1.256 . S
O506 Co482 2.062 . S
O506 C507 1.255 . S
C507 O505 1.256 . S
C507 O506 1.255 . S
H508 C487 0.931 . S
H509 C495 0.931 . S
Co510 N515 2.057 . S
Co510 O527 2.021 . S
Co510 O530 2.062 . S
Co510 O534 2.117 . S
Co510 O535 2.020 . S
C511 O531 1.259 . S
C511 O534 1.258 . S
Co512 N521 2.057 . S
Co512 O528 2.117 . S
Co512 O529 2.020 . S
Co512 O531 2.021 . S
Co512 O536 2.062 . S
C513 N515 1.316 . S
C513 N516 1.347 . S
C513 H518 0.931 . S
C514 N515 1.375 . S
C514 C517 1.350 . S
C514 H519 0.930 . S
N515 Co510 2.057 . S
N515 C513 1.316 . S
N515 C514 1.375 . S
N516 C513 1.347 . S
N516 C517 1.373 . S
C517 C514 1.350 . S
C517 N516 1.373 . S
C517 H538 0.931 . S
H518 C513 0.931 . S
H519 C514 0.930 . S
C520 O527 1.259 . S
C520 O528 1.258 . S
N521 Co512 2.057 . S
N521 C522 1.316 . S
N521 C523 1.375 . S
C522 N521 1.316 . S
C522 N524 1.347 . S
C522 H533 0.931 . S
C523 N521 1.375 . S
C523 C525 1.350 . S
C523 H532 0.930 . S
N524 C522 1.347 . S
N524 C525 1.373 . S
C525 C523 1.350 . S
C525 N524 1.373 . S
C525 H539 0.931 . S
C526 O529 1.256 . S
C526 O530 1.255 . S
O527 Co510 2.021 . S
O527 C520 1.259 . S
O528 Co512 2.117 . S
O528 C520 1.258 . S
O529 Co512 2.020 . S
O529 C526 1.256 . S
O530 Co510 2.062 . S
O530 C526 1.255 . S
O531 C511 1.259 . S
O531 Co512 2.021 . S
H532 C523 0.930 . S
H533 C522 0.931 . S
O534 Co510 2.117 . S
O534 C511 1.258 . S
O535 Co510 2.020 . S
O535 C537 1.256 . S
O536 Co512 2.062 . S
O536 C537 1.255 . S
C537 O535 1.256 . S
C537 O536 1.255 . S
H538 C517 0.931 . S
H539 C525 0.931 . S
Co540 N545 2.057 . S
Co540 O557 2.021 . S
Co540 O560 2.062 . S
Co540 O564 2.117 . S
Co540 O565 2.020 . S
C541 O561 1.259 . S
C541 O564 1.258 . S
Co542 N551 2.057 . S
Co542 O558 2.117 . S
Co542 O559 2.020 . S
Co542 O561 2.021 . S
Co542 O566 2.062 . S
C543 N545 1.316 . S
C543 N546 1.347 . S
C543 H548 0.931 . S
C544 N545 1.375 . S
C544 C547 1.350 . S
C544 H549 0.930 . S
N545 Co540 2.057 . S
N545 C543 1.316 . S
N545 C544 1.375 . S
N546 C543 1.347 . S
N546 C547 1.373 . S
C547 C544 1.350 . S
C547 N546 1.373 . S
C547 H568 0.931 . S
H548 C543 0.931 . S
H549 C544 0.930 . S
C550 O557 1.259 . S
C550 O558 1.258 . S
N551 Co542 2.057 . S
N551 C552 1.316 . S
N551 C553 1.375 . S
C552 N551 1.316 . S
C552 N554 1.347 . S
C552 H563 0.931 . S
C553 N551 1.375 . S
C553 C555 1.350 . S
C553 H562 0.930 . S
N554 C552 1.347 . S
N554 C555 1.373 . S
C555 C553 1.350 . S
C555 N554 1.373 . S
C555 H569 0.931 . S
C556 O559 1.256 . S
C556 O560 1.255 . S
O557 Co540 2.021 . S
O557 C550 1.259 . S
O558 Co542 2.117 . S
O558 C550 1.258 . S
O559 Co542 2.020 . S
O559 C556 1.256 . S
O560 Co540 2.062 . S
O560 C556 1.255 . S
O561 C541 1.259 . S
O561 Co542 2.021 . S
H562 C553 0.930 . S
H563 C552 0.931 . S
O564 Co540 2.117 . S
O564 C541 1.258 . S
O565 Co540 2.020 . S
O565 C567 1.256 . S
O566 Co542 2.062 . S
O566 C567 1.255 . S
C567 O565 1.256 . S
C567 O566 1.255 . S
H568 C547 0.931 . S
H569 C555 0.931 . S
Co570 N575 2.057 . S
Co570 O587 2.021 . S
Co570 O590 2.062 . S
Co570 O594 2.117 . S
Co570 O595 2.020 . S
C571 O591 1.259 . S
C571 O594 1.258 . S
Co572 N581 2.057 . S
Co572 O588 2.117 . S
Co572 O589 2.020 . S
Co572 O591 2.021 . S
Co572 O596 2.062 . S
C573 N575 1.316 . S
C573 N576 1.347 . S
C573 H578 0.931 . S
C574 N575 1.375 . S
C574 C577 1.350 . S
C574 H579 0.930 . S
N575 Co570 2.057 . S
N575 C573 1.316 . S
N575 C574 1.375 . S
N576 C573 1.347 . S
N576 C577 1.373 . S
C577 C574 1.350 . S
C577 N576 1.373 . S
C577 H598 0.931 . S
H578 C573 0.931 . S
H579 C574 0.930 . S
C580 O587 1.259 . S
C580 O588 1.258 . S
N581 Co572 2.057 . S
N581 C582 1.316 1_565 S
N581 C583 1.375 1_565 S
C582 N581 1.316 1_545 S
C582 N584 1.347 . S
C582 H593 0.931 . S
C583 N581 1.375 1_545 S
C583 C585 1.350 . S
C583 H592 0.930 1_545 S
N584 C582 1.347 . S
N584 C585 1.373 . S
C585 C583 1.350 . S
C585 N584 1.373 . S
C585 H599 0.931 . S
C586 O589 1.256 . S
C586 O590 1.255 . S
O587 Co570 2.021 . S
O587 C580 1.259 . S
O588 Co572 2.117 . S
O588 C580 1.258 . S
O589 Co572 2.020 . S
O589 C586 1.256 . S
O590 Co570 2.062 . S
O590 C586 1.255 . S
O591 C571 1.259 . S
O591 Co572 2.021 . S
H592 C583 0.930 1_565 S
H593 C582 0.931 . S
O594 Co570 2.117 . S
O594 C571 1.258 . S
O595 Co570 2.020 . S
O595 C597 1.256 . S
O596 Co572 2.062 . S
O596 C597 1.255 . S
C597 O595 1.256 . S
C597 O596 1.255 . S
H598 C577 0.931 . S
H599 C585 0.931 . S
Co600 N605 2.057 . S
Co600 O617 2.021 . S
Co600 O620 2.062 . S
Co600 O624 2.117 . S
Co600 O625 2.020 . S
C601 O621 1.259 . S
C601 O624 1.258 . S
Co602 N611 2.057 . S
Co602 O618 2.117 . S
Co602 O619 2.020 . S
Co602 O621 2.021 . S
Co602 O626 2.062 . S
C603 N605 1.316 . S
C603 N606 1.347 . S
C603 H608 0.931 . S
C604 N605 1.375 . S
C604 C607 1.350 . S
C604 H609 0.930 . S
N605 Co600 2.057 . S
N605 C603 1.316 . S
N605 C604 1.375 . S
N606 C603 1.347 . S
N606 C607 1.373 . S
C607 C604 1.350 . S
C607 N606 1.373 . S
C607 H628 0.931 . S
H608 C603 0.931 . S
H609 C604 0.930 . S
C610 O617 1.259 . S
C610 O618 1.258 . S
N611 Co602 2.057 . S
N611 C612 1.316 . S
N611 C613 1.375 . S
C612 N611 1.316 . S
C612 N614 1.347 1_455 S
C612 H623 0.931 . S
C613 N611 1.375 . S
C613 C615 1.350 1_455 S
C613 H622 0.930 . S
N614 C612 1.347 1_655 S
N614 C615 1.373 . S
C615 C613 1.350 1_655 S
C615 N614 1.373 . S
C615 H629 0.931 . S
C616 O619 1.256 . S
C616 O620 1.255 . S
O617 Co600 2.021 . S
O617 C610 1.259 . S
O618 Co602 2.117 . S
O618 C610 1.258 . S
O619 Co602 2.020 . S
O619 C616 1.256 . S
O620 Co600 2.062 . S
O620 C616 1.255 . S
O621 C601 1.259 . S
O621 Co602 2.021 . S
H622 C613 0.930 . S
H623 C612 0.931 . S
O624 Co600 2.117 . S
O624 C601 1.258 . S
O625 Co600 2.020 . S
O625 C627 1.256 . S
O626 Co602 2.062 . S
O626 C627 1.255 . S
C627 O625 1.256 . S
C627 O626 1.255 . S
H628 C607 0.931 . S
H629 C615 0.931 . S
Co630 N635 2.057 . S
Co630 O647 2.021 . S
Co630 O650 2.062 . S
Co630 O654 2.117 . S
Co630 O655 2.020 . S
C631 O651 1.259 . S
C631 O654 1.258 . S
Co632 N641 2.057 . S
Co632 O648 2.117 . S
Co632 O649 2.020 . S
Co632 O651 2.021 . S
Co632 O656 2.062 . S
C633 N635 1.316 . S
C633 N636 1.347 . S
C633 H638 0.931 . S
C634 N635 1.375 . S
C634 C637 1.350 . S
C634 H639 0.930 . S
N635 Co630 2.057 . S
N635 C633 1.316 . S
N635 C634 1.375 . S
N636 C633 1.347 . S
N636 C637 1.373 . S
C637 C634 1.350 . S
C637 N636 1.373 . S
C637 H658 0.931 . S
H638 C633 0.931 . S
H639 C634 0.930 . S
C640 O647 1.259 . S
C640 O648 1.258 . S
N641 Co632 2.057 . S
N641 C642 1.316 1_565 S
N641 C643 1.375 1_565 S
C642 N641 1.316 1_545 S
C642 N644 1.347 . S
C642 H653 0.931 . S
C643 N641 1.375 1_545 S
C643 C645 1.350 . S
C643 H652 0.930 . S
N644 C642 1.347 . S
N644 C645 1.373 . S
C645 C643 1.350 . S
C645 N644 1.373 . S
C645 H659 0.931 . S
C646 O649 1.256 . S
C646 O650 1.255 . S
O647 Co630 2.021 . S
O647 C640 1.259 . S
O648 Co632 2.117 . S
O648 C640 1.258 . S
O649 Co632 2.020 . S
O649 C646 1.256 . S
O650 Co630 2.062 . S
O650 C646 1.255 . S
O651 C631 1.259 . S
O651 Co632 2.021 . S
H652 C643 0.930 . S
H653 C642 0.931 . S
O654 Co630 2.117 . S
O654 C631 1.258 . S
O655 Co630 2.020 . S
O655 C657 1.256 . S
O656 Co632 2.062 . S
O656 C657 1.255 . S
C657 O655 1.256 . S
C657 O656 1.255 . S
H658 C637 0.931 . S
H659 C645 0.931 . S
Co660 N665 2.057 . S
Co660 O677 2.021 . S
Co660 O680 2.062 . S
Co660 O684 2.117 . S
Co660 O685 2.020 . S
C661 O681 1.259 . S
C661 O684 1.258 . S
Co662 N671 2.057 . S
Co662 O678 2.117 . S
Co662 O679 2.020 . S
Co662 O681 2.021 . S
Co662 O686 2.062 . S
C663 N665 1.316 . S
C663 N666 1.347 . S
C663 H668 0.931 . S
C664 N665 1.375 . S
C664 C667 1.350 . S
C664 H669 0.930 . S
N665 Co660 2.057 . S
N665 C663 1.316 . S
N665 C664 1.375 . S
N666 C663 1.347 . S
N666 C667 1.373 . S
C667 C664 1.350 . S
C667 N666 1.373 . S
C667 H688 0.931 . S
H668 C663 0.931 . S
H669 C664 0.930 . S
C670 O677 1.259 . S
C670 O678 1.258 . S
N671 Co662 2.057 . S
N671 C672 1.316 . S
N671 C673 1.375 . S
C672 N671 1.316 . S
C672 N674 1.347 1_455 S
C672 H683 0.931 . S
C673 N671 1.375 . S
C673 C675 1.350 1_455 S
C673 H682 0.930 . S
N674 C672 1.347 1_655 S
N674 C675 1.373 . S
C675 C673 1.350 1_655 S
C675 N674 1.373 . S
C675 H689 0.931 . S
C676 O679 1.256 . S
C676 O680 1.255 . S
O677 Co660 2.021 . S
O677 C670 1.259 . S
O678 Co662 2.117 . S
O678 C670 1.258 . S
O679 Co662 2.020 . S
O679 C676 1.256 . S
O680 Co660 2.062 . S
O680 C676 1.255 . S
O681 C661 1.259 . S
O681 Co662 2.021 . S
H682 C673 0.930 . S
H683 C672 0.931 . S
O684 Co660 2.117 . S
O684 C661 1.258 . S
O685 Co660 2.020 . S
O685 C687 1.256 . S
O686 Co662 2.062 . S
O686 C687 1.255 . S
C687 O685 1.256 . S
C687 O686 1.255 . S
H688 C667 0.931 . S
H689 C675 0.931 . S
Co690 N695 2.057 . S
Co690 O707 2.021 . S
Co690 O710 2.062 . S
Co690 O714 2.117 . S
Co690 O715 2.020 . S
C691 O711 1.259 . S
C691 O714 1.258 . S
Co692 N701 2.057 . S
Co692 O708 2.117 . S
Co692 O709 2.020 . S
Co692 O711 2.021 . S
Co692 O716 2.062 . S
C693 N695 1.316 . S
C693 N696 1.347 . S
C693 H698 0.931 . S
C694 N695 1.375 . S
C694 C697 1.350 . S
C694 H699 0.930 . S
N695 Co690 2.057 . S
N695 C693 1.316 . S
N695 C694 1.375 . S
N696 C693 1.347 . S
N696 C697 1.373 . S
C697 C694 1.350 . S
C697 N696 1.373 . S
C697 H718 0.931 . S
H698 C693 0.931 . S
H699 C694 0.930 . S
C700 O707 1.259 . S
C700 O708 1.258 . S
N701 Co692 2.057 . S
N701 C702 1.316 . S
N701 C703 1.375 . S
C702 N701 1.316 . S
C702 N704 1.347 . S
C702 H713 0.931 . S
C703 N701 1.375 . S
C703 C705 1.350 . S
C703 H712 0.930 . S
N704 C702 1.347 . S
N704 C705 1.373 . S
C705 C703 1.350 . S
C705 N704 1.373 . S
C705 H719 0.931 . S
C706 O709 1.256 . S
C706 O710 1.255 . S
O707 Co690 2.021 . S
O707 C700 1.259 . S
O708 Co692 2.117 . S
O708 C700 1.258 . S
O709 Co692 2.020 . S
O709 C706 1.256 . S
O710 Co690 2.062 . S
O710 C706 1.255 . S
O711 C691 1.259 . S
O711 Co692 2.021 . S
H712 C703 0.930 . S
H713 C702 0.931 . S
O714 Co690 2.117 . S
O714 C691 1.258 . S
O715 Co690 2.020 . S
O715 C717 1.256 . S
O716 Co692 2.062 . S
O716 C717 1.255 . S
C717 O715 1.256 . S
C717 O716 1.255 . S
H718 C697 0.931 . S
H719 C705 0.931 . S
Co720 N725 2.057 . S
Co720 O737 2.021 . S
Co720 O740 2.062 . S
Co720 O744 2.117 . S
Co720 O745 2.020 . S
C721 O741 1.259 . S
C721 O744 1.258 . S
Co722 N731 2.057 . S
Co722 O738 2.117 . S
Co722 O739 2.020 . S
Co722 O741 2.021 . S
Co722 O746 2.062 . S
C723 N725 1.316 . S
C723 N726 1.347 . S
C723 H728 0.931 . S
C724 N725 1.375 . S
C724 C727 1.350 . S
C724 H729 0.930 . S
N725 Co720 2.057 . S
N725 C723 1.316 . S
N725 C724 1.375 . S
N726 C723 1.347 . S
N726 C727 1.373 . S
C727 C724 1.350 . S
C727 N726 1.373 . S
C727 H748 0.931 . S
H728 C723 0.931 . S
H729 C724 0.930 . S
C730 O737 1.259 . S
C730 O738 1.258 . S
N731 Co722 2.057 . S
N731 C732 1.316 . S
N731 C733 1.375 . S
C732 N731 1.316 . S
C732 N734 1.347 . S
C732 H743 0.931 . S
C733 N731 1.375 . S
C733 C735 1.350 . S
C733 H742 0.930 . S
N734 C732 1.347 . S
N734 C735 1.373 . S
C735 C733 1.350 . S
C735 N734 1.373 . S
C735 H749 0.931 . S
C736 O739 1.256 . S
C736 O740 1.255 . S
O737 Co720 2.021 . S
O737 C730 1.259 . S
O738 Co722 2.117 . S
O738 C730 1.258 . S
O739 Co722 2.020 . S
O739 C736 1.256 . S
O740 Co720 2.062 . S
O740 C736 1.255 . S
O741 C721 1.259 . S
O741 Co722 2.021 . S
H742 C733 0.930 . S
H743 C732 0.931 . S
O744 Co720 2.117 . S
O744 C721 1.258 . S
O745 Co720 2.020 . S
O745 C747 1.256 . S
O746 Co722 2.062 . S
O746 C747 1.255 . S
C747 O745 1.256 . S
C747 O746 1.255 . S
H748 C727 0.931 . S
H749 C735 0.931 . S
Co750 N755 2.057 . S
Co750 O767 2.021 . S
Co750 O770 2.062 . S
Co750 O774 2.117 . S
Co750 O775 2.020 . S
C751 O771 1.259 . S
C751 O774 1.258 . S
Co752 N761 2.057 . S
Co752 O768 2.117 . S
Co752 O769 2.020 . S
Co752 O771 2.021 . S
Co752 O776 2.062 . S
C753 N755 1.316 . S
C753 N756 1.347 1_545 S
C753 H758 0.931 . S
C754 N755 1.375 . S
C754 C757 1.350 1_545 S
C754 H759 0.930 . S
N755 Co750 2.057 . S
N755 C753 1.316 . S
N755 C754 1.375 . S
N756 C753 1.347 1_565 S
N756 C757 1.373 . S
C757 C754 1.350 1_565 S
C757 N756 1.373 . S
C757 H778 0.931 . S
H758 C753 0.931 . S
H759 C754 0.930 . S
C760 O767 1.259 . S
C760 O768 1.258 . S
N761 Co752 2.057 . S
N761 C762 1.316 . S
N761 C763 1.375 . S
C762 N761 1.316 . S
C762 N764 1.347 . S
C762 H773 0.931 . S
C763 N761 1.375 . S
C763 C765 1.350 . S
C763 H772 0.930 . S
N764 C762 1.347 . S
N764 C765 1.373 . S
C765 C763 1.350 . S
C765 N764 1.373 . S
C765 H779 0.931 . S
C766 O769 1.256 . S
C766 O770 1.255 . S
O767 Co750 2.021 . S
O767 C760 1.259 . S
O768 Co752 2.117 . S
O768 C760 1.258 . S
O769 Co752 2.020 . S
O769 C766 1.256 . S
O770 Co750 2.062 . S
O770 C766 1.255 . S
O771 C751 1.259 . S
O771 Co752 2.021 . S
H772 C763 0.930 . S
H773 C762 0.931 . S
O774 Co750 2.117 . S
O774 C751 1.258 . S
O775 Co750 2.020 . S
O775 C777 1.256 . S
O776 Co752 2.062 . S
O776 C777 1.255 . S
C777 O775 1.256 . S
C777 O776 1.255 . S
H778 C757 0.931 . S
H779 C765 0.931 . S
Co780 N785 2.057 . S
Co780 O797 2.021 . S
Co780 O800 2.062 . S
Co780 O804 2.117 . S
Co780 O805 2.020 . S
C781 O801 1.259 . S
C781 O804 1.258 . S
Co782 N791 2.057 . S
Co782 O798 2.117 . S
Co782 O799 2.020 . S
Co782 O801 2.021 . S
Co782 O806 2.062 . S
C783 N785 1.316 1_455 S
C783 N786 1.347 . S
C783 H788 0.931 . S
C784 N785 1.375 1_455 S
C784 C787 1.350 . S
C784 H789 0.930 1_455 S
N785 Co780 2.057 . S
N785 C783 1.316 1_655 S
N785 C784 1.375 1_655 S
N786 C783 1.347 . S
N786 C787 1.373 . S
C787 C784 1.350 . S
C787 N786 1.373 . S
C787 H808 0.931 . S
H788 C783 0.931 . S
H789 C784 0.930 1_655 S
C790 O797 1.259 . S
C790 O798 1.258 . S
N791 Co782 2.057 . S
N791 C792 1.316 . S
N791 C793 1.375 . S
C792 N791 1.316 . S
C792 N794 1.347 . S
C792 H803 0.931 . S
C793 N791 1.375 . S
C793 C795 1.350 . S
C793 H802 0.930 . S
N794 C792 1.347 . S
N794 C795 1.373 . S
C795 C793 1.350 . S
C795 N794 1.373 . S
C795 H809 0.931 . S
C796 O799 1.256 . S
C796 O800 1.255 . S
O797 Co780 2.021 . S
O797 C790 1.259 . S
O798 Co782 2.117 . S
O798 C790 1.258 . S
O799 Co782 2.020 . S
O799 C796 1.256 . S
O800 Co780 2.062 . S
O800 C796 1.255 . S
O801 C781 1.259 . S
O801 Co782 2.021 . S
H802 C793 0.930 . S
H803 C792 0.931 . S
O804 Co780 2.117 . S
O804 C781 1.258 . S
O805 Co780 2.020 . S
O805 C807 1.256 . S
O806 Co782 2.062 . S
O806 C807 1.255 . S
C807 O805 1.256 . S
C807 O806 1.255 . S
H808 C787 0.931 . S
H809 C795 0.931 . S
Co810 N815 2.057 . S
Co810 O827 2.021 . S
Co810 O830 2.062 . S
Co810 O834 2.117 . S
Co810 O835 2.020 . S
C811 O831 1.259 . S
C811 O834 1.258 . S
Co812 N821 2.057 . S
Co812 O828 2.117 . S
Co812 O829 2.020 . S
Co812 O831 2.021 . S
Co812 O836 2.062 . S
C813 N815 1.316 . S
C813 N816 1.347 1_545 S
C813 H818 0.931 . S
C814 N815 1.375 . S
C814 C817 1.350 1_545 S
C814 H819 0.930 . S
N815 Co810 2.057 . S
N815 C813 1.316 . S
N815 C814 1.375 . S
N816 C813 1.347 1_565 S
N816 C817 1.373 . S
C817 C814 1.350 1_565 S
C817 N816 1.373 . S
C817 H838 0.931 . S
H818 C813 0.931 . S
H819 C814 0.930 . S
C820 O827 1.259 . S
C820 O828 1.258 . S
N821 Co812 2.057 . S
N821 C822 1.316 . S
N821 C823 1.375 . S
C822 N821 1.316 . S
C822 N824 1.347 . S
C822 H833 0.931 . S
C823 N821 1.375 . S
C823 C825 1.350 . S
C823 H832 0.930 . S
N824 C822 1.347 . S
N824 C825 1.373 . S
C825 C823 1.350 . S
C825 N824 1.373 . S
C825 H839 0.931 . S
C826 O829 1.256 . S
C826 O830 1.255 . S
O827 Co810 2.021 . S
O827 C820 1.259 . S
O828 Co812 2.117 . S
O828 C820 1.258 . S
O829 Co812 2.020 . S
O829 C826 1.256 . S
O830 Co810 2.062 . S
O830 C826 1.255 . S
O831 C811 1.259 . S
O831 Co812 2.021 . S
H832 C823 0.930 . S
H833 C822 0.931 . S
O834 Co810 2.117 . S
O834 C811 1.258 . S
O835 Co810 2.020 . S
O835 C837 1.256 . S
O836 Co812 2.062 . S
O836 C837 1.255 . S
C837 O835 1.256 . S
C837 O836 1.255 . S
H838 C817 0.931 . S
H839 C825 0.931 . S
Co840 N845 2.057 . S
Co840 O857 2.021 . S
Co840 O860 2.062 . S
Co840 O864 2.117 . S
Co840 O865 2.020 . S
C841 O861 1.259 . S
C841 O864 1.258 . S
Co842 N851 2.057 . S
Co842 O858 2.117 . S
Co842 O859 2.020 . S
Co842 O861 2.021 . S
Co842 O866 2.062 . S
C843 N845 1.316 1_455 S
C843 N846 1.347 . S
C843 H848 0.931 . S
C844 N845 1.375 1_455 S
C844 C847 1.350 . S
C844 H849 0.930 . S
N845 Co840 2.057 . S
N845 C843 1.316 1_655 S
N845 C844 1.375 1_655 S
N846 C843 1.347 . S
N846 C847 1.373 . S
C847 C844 1.350 . S
C847 N846 1.373 . S
C847 H868 0.931 . S
H848 C843 0.931 . S
H849 C844 0.930 . S
C850 O857 1.259 . S
C850 O858 1.258 . S
N851 Co842 2.057 . S
N851 C852 1.316 . S
N851 C853 1.375 . S
C852 N851 1.316 . S
C852 N854 1.347 . S
C852 H863 0.931 . S
C853 N851 1.375 . S
C853 C855 1.350 . S
C853 H862 0.930 . S
N854 C852 1.347 . S
N854 C855 1.373 . S
C855 C853 1.350 . S
C855 N854 1.373 . S
C855 H869 0.931 . S
C856 O859 1.256 . S
C856 O860 1.255 . S
O857 Co840 2.021 . S
O857 C850 1.259 . S
O858 Co842 2.117 . S
O858 C850 1.258 . S
O859 Co842 2.020 . S
O859 C856 1.256 . S
O860 Co840 2.062 . S
O860 C856 1.255 . S
O861 C841 1.259 . S
O861 Co842 2.021 . S
H862 C853 0.930 . S
H863 C852 0.931 . S
O864 Co840 2.117 . S
O864 C841 1.258 . S
O865 Co840 2.020 . S
O865 C867 1.256 . S
O866 Co842 2.062 . S
O866 C867 1.255 . S
C867 O865 1.256 . S
C867 O866 1.255 . S
H868 C847 0.931 . S
H869 C855 0.931 . S
Co870 N875 2.057 . S
Co870 O887 2.021 . S
Co870 O890 2.062 . S
Co870 O894 2.117 . S
Co870 O895 2.020 . S
C871 O891 1.259 . S
C871 O894 1.258 . S
Co872 N881 2.057 . S
Co872 O888 2.117 . S
Co872 O889 2.020 . S
Co872 O891 2.021 . S
Co872 O896 2.062 . S
C873 N875 1.316 . S
C873 N876 1.347 . S
C873 H878 0.931 . S
C874 N875 1.375 . S
C874 C877 1.350 . S
C874 H879 0.930 . S
N875 Co870 2.057 . S
N875 C873 1.316 . S
N875 C874 1.375 . S
N876 C873 1.347 . S
N876 C877 1.373 . S
C877 C874 1.350 . S
C877 N876 1.373 . S
C877 H898 0.931 . S
H878 C873 0.931 . S
H879 C874 0.930 . S
C880 O887 1.259 . S
C880 O888 1.258 . S
N881 Co872 2.057 . S
N881 C882 1.316 . S
N881 C883 1.375 . S
C882 N881 1.316 . S
C882 N884 1.347 . S
C882 H893 0.931 . S
C883 N881 1.375 . S
C883 C885 1.350 . S
C883 H892 0.930 . S
N884 C882 1.347 . S
N884 C885 1.373 . S
C885 C883 1.350 . S
C885 N884 1.373 . S
C885 H899 0.931 . S
C886 O889 1.256 . S
C886 O890 1.255 . S
O887 Co870 2.021 . S
O887 C880 1.259 . S
O888 Co872 2.117 . S
O888 C880 1.258 . S
O889 Co872 2.020 . S
O889 C886 1.256 . S
O890 Co870 2.062 . S
O890 C886 1.255 . S
O891 C871 1.259 . S
O891 Co872 2.021 . S
H892 C883 0.930 . S
H893 C882 0.931 . S
O894 Co870 2.117 . S
O894 C871 1.258 . S
O895 Co870 2.020 . S
O895 C897 1.256 . S
O896 Co872 2.062 . S
O896 C897 1.255 . S
C897 O895 1.256 . S
C897 O896 1.255 . S
H898 C877 0.931 . S
H899 C885 0.931 . S
Co900 N905 2.057 . S
Co900 O917 2.021 . S
Co900 O920 2.062 . S
Co900 O924 2.117 . S
Co900 O925 2.020 . S
C901 O921 1.259 . S
C901 O924 1.258 . S
Co902 N911 2.057 . S
Co902 O918 2.117 . S
Co902 O919 2.020 . S
Co902 O921 2.021 . S
Co902 O926 2.062 . S
C903 N905 1.316 . S
C903 N906 1.347 . S
C903 H908 0.931 . S
C904 N905 1.375 . S
C904 C907 1.350 . S
C904 H909 0.930 . S
N905 Co900 2.057 . S
N905 C903 1.316 . S
N905 C904 1.375 . S
N906 C903 1.347 . S
N906 C907 1.373 . S
C907 C904 1.350 . S
C907 N906 1.373 . S
C907 H928 0.931 . S
H908 C903 0.931 . S
H909 C904 0.930 . S
C910 O917 1.259 . S
C910 O918 1.258 . S
N911 Co902 2.057 . S
N911 C912 1.316 . S
N911 C913 1.375 . S
C912 N911 1.316 . S
C912 N914 1.347 . S
C912 H923 0.931 . S
C913 N911 1.375 . S
C913 C915 1.350 . S
C913 H922 0.930 . S
N914 C912 1.347 . S
N914 C915 1.373 . S
C915 C913 1.350 . S
C915 N914 1.373 . S
C915 H929 0.931 . S
C916 O919 1.256 . S
C916 O920 1.255 . S
O917 Co900 2.021 . S
O917 C910 1.259 . S
O918 Co902 2.117 . S
O918 C910 1.258 . S
O919 Co902 2.020 . S
O919 C916 1.256 . S
O920 Co900 2.062 . S
O920 C916 1.255 . S
O921 C901 1.259 . S
O921 Co902 2.021 . S
H922 C913 0.930 . S
H923 C912 0.931 . S
O924 Co900 2.117 . S
O924 C901 1.258 . S
O925 Co900 2.020 . S
O925 C927 1.256 . S
O926 Co902 2.062 . S
O926 C927 1.255 . S
C927 O925 1.256 . S
C927 O926 1.255 . S
H928 C907 0.931 . S
H929 C915 0.931 . S
Co930 N935 2.057 . S
Co930 O947 2.021 . S
Co930 O950 2.062 . S
Co930 O954 2.117 . S
Co930 O955 2.020 . S
C931 O951 1.259 . S
C931 O954 1.258 . S
Co932 N941 2.057 . S
Co932 O948 2.117 . S
Co932 O949 2.020 . S
Co932 O951 2.021 . S
Co932 O956 2.062 . S
C933 N935 1.316 . S
C933 N936 1.347 . S
C933 H938 0.931 . S
C934 N935 1.375 . S
C934 C937 1.350 . S
C934 H939 0.930 . S
N935 Co930 2.057 . S
N935 C933 1.316 . S
N935 C934 1.375 . S
N936 C933 1.347 . S
N936 C937 1.373 . S
C937 C934 1.350 . S
C937 N936 1.373 . S
C937 H958 0.931 . S
H938 C933 0.931 . S
H939 C934 0.930 . S
C940 O947 1.259 . S
C940 O948 1.258 . S
N941 Co932 2.057 . S
N941 C942 1.316 . S
N941 C943 1.375 . S
C942 N941 1.316 . S
C942 N944 1.347 . S
C942 H953 0.931 . S
C943 N941 1.375 . S
C943 C945 1.350 . S
C943 H952 0.930 . S
N944 C942 1.347 . S
N944 C945 1.373 . S
C945 C943 1.350 . S
C945 N944 1.373 . S
C945 H959 0.931 . S
C946 O949 1.256 . S
C946 O950 1.255 . S
O947 Co930 2.021 . S
O947 C940 1.259 . S
O948 Co932 2.117 . S
O948 C940 1.258 . S
O949 Co932 2.020 . S
O949 C946 1.256 . S
O950 Co930 2.062 . S
O950 C946 1.255 . S
O951 C931 1.259 . S
O951 Co932 2.021 . S
H952 C943 0.930 . S
H953 C942 0.931 . S
O954 Co930 2.117 . S
O954 C931 1.258 . S
O955 Co930 2.020 . S
O955 C957 1.256 . S
O956 Co932 2.062 . S
O956 C957 1.255 . S
C957 O955 1.256 . S
C957 O956 1.255 . S
H958 C937 0.931 . S
H959 C945 0.931 . S
Co960 N965 2.057 . S
Co960 O977 2.021 . S
Co960 O980 2.062 . S
Co960 O984 2.117 . S
Co960 O985 2.020 . S
C961 O981 1.259 . S
C961 O984 1.258 . S
Co962 N971 2.057 . S
Co962 O978 2.117 . S
Co962 O979 2.020 . S
Co962 O981 2.021 . S
Co962 O986 2.062 . S
C963 N965 1.316 . S
C963 N966 1.347 1_655 S
C963 H968 0.931 . S
C964 N965 1.375 . S
C964 C967 1.350 . S
C964 H969 0.930 . S
N965 Co960 2.057 . S
N965 C963 1.316 . S
N965 C964 1.375 . S
N966 C963 1.347 1_455 S
N966 C967 1.373 1_455 S
C967 C964 1.350 . S
C967 N966 1.373 1_655 S
C967 H988 0.931 1_655 S
H968 C963 0.931 . S
H969 C964 0.930 . S
C970 O977 1.259 . S
C970 O978 1.258 . S
N971 Co962 2.057 . S
N971 C972 1.316 . S
N971 C973 1.375 . S
C972 N971 1.316 . S
C972 N974 1.347 . S
C972 H983 0.931 . S
C973 N971 1.375 . S
C973 C975 1.350 . S
C973 H982 0.930 . S
N974 C972 1.347 . S
N974 C975 1.373 . S
C975 C973 1.350 . S
C975 N974 1.373 . S
C975 H989 0.931 . S
C976 O979 1.256 . S
C976 O980 1.255 . S
O977 Co960 2.021 . S
O977 C970 1.259 . S
O978 Co962 2.117 . S
O978 C970 1.258 . S
O979 Co962 2.020 . S
O979 C976 1.256 . S
O980 Co960 2.062 . S
O980 C976 1.255 . S
O981 C961 1.259 . S
O981 Co962 2.021 . S
H982 C973 0.930 . S
H983 C972 0.931 . S
O984 Co960 2.117 . S
O984 C961 1.258 . S
O985 Co960 2.020 . S
O985 C987 1.256 . S
O986 Co962 2.062 . S
O986 C987 1.255 . S
C987 O985 1.256 . S
C987 O986 1.255 . S
H988 C967 0.931 1_455 S
H989 C975 0.931 . S
Co990 N995 2.057 . S
Co990 O1007 2.021 . S
Co990 O1010 2.062 . S
Co990 O1014 2.117 . S
Co990 O1015 2.020 . S
C991 O1011 1.259 . S
C991 O1014 1.258 . S
Co992 N1001 2.057 . S
Co992 O1008 2.117 . S
Co992 O1009 2.020 . S
Co992 O1011 2.021 . S
Co992 O1016 2.062 . S
C993 N995 1.316 . S
C993 N996 1.347 . S
C993 H998 0.931 . S
C994 N995 1.375 . S
C994 C997 1.350 . S
C994 H999 0.930 . S
N995 Co990 2.057 . S
N995 C993 1.316 . S
N995 C994 1.375 . S
N996 C993 1.347 . S
N996 C997 1.373 . S
C997 C994 1.350 . S
C997 N996 1.373 . S
C997 H1018 0.931 . S
H998 C993 0.931 . S
H999 C994 0.930 . S
C1000 O1007 1.259 . S
C1000 O1008 1.258 . S
N1001 Co992 2.057 . S
N1001 C1002 1.316 . S
N1001 C1003 1.375 . S
C1002 N1001 1.316 . S
C1002 N1004 1.347 . S
C1002 H1013 0.931 . S
C1003 N1001 1.375 . S
C1003 C1005 1.350 . S
C1003 H1012 0.930 . S
N1004 C1002 1.347 . S
N1004 C1005 1.373 . S
C1005 C1003 1.350 . S
C1005 N1004 1.373 . S
C1005 H1019 0.931 . S
C1006 O1009 1.256 . S
C1006 O1010 1.255 . S
O1007 Co990 2.021 . S
O1007 C1000 1.259 . S
O1008 Co992 2.117 . S
O1008 C1000 1.258 . S
O1009 Co992 2.020 . S
O1009 C1006 1.256 . S
O1010 Co990 2.062 . S
O1010 C1006 1.255 . S
O1011 C991 1.259 . S
O1011 Co992 2.021 . S
H1012 C1003 0.930 . S
H1013 C1002 0.931 . S
O1014 Co990 2.117 . S
O1014 C991 1.258 . S
O1015 Co990 2.020 . S
O1015 C1017 1.256 . S
O1016 Co992 2.062 . S
O1016 C1017 1.255 . S
C1017 O1015 1.256 . S
C1017 O1016 1.255 . S
H1018 C997 0.931 . S
H1019 C1005 0.931 . S
Co1020 N1025 2.057 . S
Co1020 O1037 2.021 . S
Co1020 O1040 2.062 . S
Co1020 O1044 2.117 . S
Co1020 O1045 2.020 . S
C1021 O1041 1.259 . S
C1021 O1044 1.258 . S
Co1022 N1031 2.057 . S
Co1022 O1038 2.117 . S
Co1022 O1039 2.020 . S
Co1022 O1041 2.021 . S
Co1022 O1046 2.062 . S
C1023 N1025 1.316 . S
C1023 N1026 1.347 1_655 S
C1023 H1028 0.931 . S
C1024 N1025 1.375 . S
C1024 C1027 1.350 1_655 S
C1024 H1029 0.930 . S
N1025 Co1020 2.057 . S
N1025 C1023 1.316 . S
N1025 C1024 1.375 . S
N1026 C1023 1.347 1_455 S
N1026 C1027 1.373 . S
C1027 C1024 1.350 1_455 S
C1027 N1026 1.373 . S
C1027 H1048 0.931 . S
H1028 C1023 0.931 . S
H1029 C1024 0.930 . S
C1030 O1037 1.259 . S
C1030 O1038 1.258 . S
N1031 Co1022 2.057 . S
N1031 C1032 1.316 . S
N1031 C1033 1.375 . S
C1032 N1031 1.316 . S
C1032 N1034 1.347 . S
C1032 H1043 0.931 . S
C1033 N1031 1.375 . S
C1033 C1035 1.350 . S
C1033 H1042 0.930 . S
N1034 C1032 1.347 . S
N1034 C1035 1.373 . S
C1035 C1033 1.350 . S
C1035 N1034 1.373 . S
C1035 H1049 0.931 . S
C1036 O1039 1.256 . S
C1036 O1040 1.255 . S
O1037 Co1020 2.021 . S
O1037 C1030 1.259 . S
O1038 Co1022 2.117 . S
O1038 C1030 1.258 . S
O1039 Co1022 2.020 . S
O1039 C1036 1.256 . S
O1040 Co1020 2.062 . S
O1040 C1036 1.255 . S
O1041 C1021 1.259 . S
O1041 Co1022 2.021 . S
H1042 C1033 0.930 . S
H1043 C1032 0.931 . S
O1044 Co1020 2.117 . S
O1044 C1021 1.258 . S
O1045 Co1020 2.020 . S
O1045 C1047 1.256 . S
O1046 Co1022 2.062 . S
O1046 C1047 1.255 . S
C1047 O1045 1.256 . S
C1047 O1046 1.255 . S
H1048 C1027 0.931 . S
H1049 C1035 0.931 . S
Co1050 N1055 2.057 . S
Co1050 O1067 2.021 . S
Co1050 O1070 2.062 . S
Co1050 O1074 2.117 . S
Co1050 O1075 2.020 . S
C1051 O1071 1.259 . S
C1051 O1074 1.258 . S
Co1052 N1061 2.057 . S
Co1052 O1068 2.117 . S
Co1052 O1069 2.020 . S
Co1052 O1071 2.021 . S
Co1052 O1076 2.062 . S
C1053 N1055 1.316 . S
C1053 N1056 1.347 . S
C1053 H1058 0.931 . S
C1054 N1055 1.375 . S
C1054 C1057 1.350 . S
C1054 H1059 0.930 . S
N1055 Co1050 2.057 . S
N1055 C1053 1.316 . S
N1055 C1054 1.375 . S
N1056 C1053 1.347 . S
N1056 C1057 1.373 . S
C1057 C1054 1.350 . S
C1057 N1056 1.373 . S
C1057 H1078 0.931 . S
H1058 C1053 0.931 . S
H1059 C1054 0.930 . S
C1060 O1067 1.259 . S
C1060 O1068 1.258 . S
N1061 Co1052 2.057 . S
N1061 C1062 1.316 . S
N1061 C1063 1.375 . S
C1062 N1061 1.316 . S
C1062 N1064 1.347 . S
C1062 H1073 0.931 . S
C1063 N1061 1.375 . S
C1063 C1065 1.350 . S
C1063 H1072 0.930 . S
N1064 C1062 1.347 . S
N1064 C1065 1.373 . S
C1065 C1063 1.350 . S
C1065 N1064 1.373 . S
C1065 H1079 0.931 . S
C1066 O1069 1.256 . S
C1066 O1070 1.255 . S
O1067 Co1050 2.021 . S
O1067 C1060 1.259 . S
O1068 Co1052 2.117 . S
O1068 C1060 1.258 . S
O1069 Co1052 2.020 . S
O1069 C1066 1.256 . S
O1070 Co1050 2.062 . S
O1070 C1066 1.255 . S
O1071 C1051 1.259 . S
O1071 Co1052 2.021 . S
H1072 C1063 0.930 . S
H1073 C1062 0.931 . S
O1074 Co1050 2.117 . S
O1074 C1051 1.258 . S
O1075 Co1050 2.020 . S
O1075 C1077 1.256 . S
O1076 Co1052 2.062 . S
O1076 C1077 1.255 . S
C1077 O1075 1.256 . S
C1077 O1076 1.255 . S
H1078 C1057 0.931 . S
H1079 C1065 0.931 . S
H1080 C1086 0.930 . S
H1081 C1090 0.930 . S
H1082 C1095 0.929 . S
H1083 C1093 0.929 . S
H1084 C1088 0.929 . S
H1085 C1094 0.929 . S
C1086 H1080 0.930 . S
C1086 C1087 1.367 . S
C1086 C1094 1.378 . S
C1087 C1086 1.367 . S
C1087 C1095 1.433 . S
C1088 H1084 0.929 . S
C1088 C1090 1.378 . S
C1088 C1092 1.350 . S
C1089 C1092 1.463 . S
C1089 C1094 1.350 . S
C1089 N1097 1.427 . S
C1090 H1081 0.930 . S
C1090 C1088 1.378 . S
C1090 C1091 1.367 . S
C1091 C1090 1.367 . S
C1091 C1093 1.433 . S
C1092 C1088 1.350 . S
C1092 C1089 1.463 . S
C1092 N1096 1.427 . S
C1093 H1083 0.929 . S
C1093 C1091 1.433 . S
C1093 N1096 1.384 . S
C1094 H1085 0.929 . S
C1094 C1086 1.378 . S
C1094 C1089 1.350 . S
C1095 H1082 0.929 . S
C1095 C1087 1.433 . S
C1095 N1097 1.384 . S
N1096 C1092 1.427 . S
N1096 C1093 1.384 . S
N1097 C1089 1.427 . S
N1097 C1095 1.384 . S
H1098 C1104 0.930 . S
H1099 C1108 0.930 . S
H1100 C1113 0.929 . S
H1101 C1111 0.929 . S
H1102 C1106 0.929 . S
H1103 C1112 0.929 . S
C1104 H1098 0.930 . S
C1104 C1105 1.367 . S
C1104 C1112 1.378 . S
C1105 C1104 1.367 . S
C1105 C1113 1.433 . S
C1106 H1102 0.929 . S
C1106 C1108 1.378 . S
C1106 C1110 1.350 . S
C1107 C1110 1.463 . S
C1107 C1112 1.350 . S
C1107 N1115 1.427 . S
C1108 H1099 0.930 . S
C1108 C1106 1.378 . S
C1108 C1109 1.367 . S
C1109 C1108 1.367 . S
C1109 C1111 1.433 1_655 S
C1110 C1106 1.350 . S
C1110 C1107 1.463 . S
C1110 N1114 1.427 . S
C1111 H1101 0.929 . S
C1111 C1109 1.433 1_455 S
C1111 N1114 1.384 1_455 S
C1112 H1103 0.929 . S
C1112 C1104 1.378 . S
C1112 C1107 1.350 . S
C1113 H1100 0.929 . S
C1113 C1105 1.433 . S
C1113 N1115 1.384 . S
N1114 C1110 1.427 . S
N1114 C1111 1.384 1_655 S
N1115 C1107 1.427 . S
N1115 C1113 1.384 . S
H1116 C1122 0.930 . S
H1117 C1126 0.930 . S
H1118 C1131 0.929 . S
H1119 C1129 0.929 . S
H1120 C1124 0.929 . S
H1121 C1130 0.929 . S
C1122 H1116 0.930 . S
C1122 C1123 1.367 . S
C1122 C1130 1.378 . S
C1123 C1122 1.367 . S
C1123 C1131 1.433 . S
C1124 H1120 0.929 . S
C1124 C1126 1.378 . S
C1124 C1128 1.350 . S
C1125 C1128 1.463 . S
C1125 C1130 1.350 . S
C1125 N1133 1.427 . S
C1126 H1117 0.930 . S
C1126 C1124 1.378 . S
C1126 C1127 1.367 . S
C1127 C1126 1.367 . S
C1127 C1129 1.433 . S
C1128 C1124 1.350 . S
C1128 C1125 1.463 . S
C1128 N1132 1.427 . S
C1129 H1119 0.929 . S
C1129 C1127 1.433 . S
C1129 N1132 1.384 . S
C1130 H1121 0.929 . S
C1130 C1122 1.378 . S
C1130 C1125 1.350 . S
C1131 H1118 0.929 . S
C1131 C1123 1.433 . S
C1131 N1133 1.384 . S
N1132 C1128 1.427 . S
N1132 C1129 1.384 . S
N1133 C1125 1.427 . S
N1133 C1131 1.384 . S
H1134 C1140 0.930 . S
H1135 C1144 0.930 . S
H1136 C1149 0.929 . S
H1137 C1147 0.929 . S
H1138 C1142 0.929 . S
H1139 C1148 0.929 . S
C1140 H1134 0.930 . S
C1140 C1141 1.367 . S
C1140 C1148 1.378 . S
C1141 C1140 1.367 . S
C1141 C1149 1.433 . S
C1142 H1138 0.929 . S
C1142 C1144 1.378 . S
C1142 C1146 1.350 . S
C1143 C1146 1.463 . S
C1143 C1148 1.350 . S
C1143 N1151 1.427 . S
C1144 H1135 0.930 . S
C1144 C1142 1.378 . S
C1144 C1145 1.367 . S
C1145 C1144 1.367 . S
C1145 C1147 1.433 . S
C1146 C1142 1.350 . S
C1146 C1143 1.463 . S
C1146 N1150 1.427 . S
C1147 H1137 0.929 . S
C1147 C1145 1.433 . S
C1147 N1150 1.384 . S
C1148 H1139 0.929 . S
C1148 C1140 1.378 . S
C1148 C1143 1.350 . S
C1149 H1136 0.929 . S
C1149 C1141 1.433 . S
C1149 N1151 1.384 . S
N1150 C1146 1.427 . S
N1150 C1147 1.384 . S
N1151 C1143 1.427 . S
N1151 C1149 1.384 . S
H1152 C1158 0.930 . S
H1153 C1162 0.930 . S
H1154 C1167 0.929 . S
H1155 C1165 0.929 . S
H1156 C1160 0.929 . S
H1157 C1166 0.929 . S
C1158 H1152 0.930 . S
C1158 C1159 1.367 . S
C1158 C1166 1.378 . S
C1159 C1158 1.367 . S
C1159 C1167 1.433 . S
C1160 H1156 0.929 . S
C1160 C1162 1.378 . S
C1160 C1164 1.350 . S
C1161 C1164 1.463 . S
C1161 C1166 1.350 . S
C1161 N1169 1.427 . S
C1162 H1153 0.930 . S
C1162 C1160 1.378 . S
C1162 C1163 1.367 . S
C1163 C1162 1.367 . S
C1163 C1165 1.433 . S
C1164 C1160 1.350 . S
C1164 C1161 1.463 . S
C1164 N1168 1.427 . S
C1165 H1155 0.929 . S
C1165 C1163 1.433 . S
C1165 N1168 1.384 . S
C1166 H1157 0.929 . S
C1166 C1158 1.378 . S
C1166 C1161 1.350 . S
C1167 H1154 0.929 . S
C1167 C1159 1.433 . S
C1167 N1169 1.384 . S
N1168 C1164 1.427 . S
N1168 C1165 1.384 . S
N1169 C1161 1.427 . S
N1169 C1167 1.384 . S
H1170 C1176 0.930 . S
H1171 C1180 0.930 . S
H1172 C1185 0.929 . S
H1173 C1183 0.929 . S
H1174 C1178 0.929 1_545 S
H1175 C1184 0.929 . S
C1176 H1170 0.930 . S
C1176 C1177 1.367 . S
C1176 C1184 1.378 . S
C1177 C1176 1.367 . S
C1177 C1185 1.433 . S
C1178 H1174 0.929 1_565 S
C1178 C1180 1.378 1_565 S
C1178 C1182 1.350 . S
C1179 C1182 1.463 . S
C1179 C1184 1.350 . S
C1179 N1187 1.427 . S
C1180 H1171 0.930 . S
C1180 C1178 1.378 1_545 S
C1180 C1181 1.367 1_545 S
C1181 C1180 1.367 1_565 S
C1181 C1183 1.433 . S
C1182 C1178 1.350 . S
C1182 C1179 1.463 . S
C1182 N1186 1.427 . S
C1183 H1173 0.929 . S
C1183 C1181 1.433 . S
C1183 N1186 1.384 . S
C1184 H1175 0.929 . S
C1184 C1176 1.378 . S
C1184 C1179 1.350 . S
C1185 H1172 0.929 . S
C1185 C1177 1.433 . S
C1185 N1187 1.384 . S
N1186 C1182 1.427 . S
N1186 C1183 1.384 . S
N1187 C1179 1.427 . S
N1187 C1185 1.384 . S
H1188 C1194 0.930 . S
H1189 C1198 0.930 . S
H1190 C1203 0.929 . S
H1191 C1201 0.929 . S
H1192 C1196 0.929 . S
H1193 C1202 0.929 1_545 S
C1194 H1188 0.930 . S
C1194 C1195 1.367 1_545 S
C1194 C1202 1.378 1_545 S
C1195 C1194 1.367 1_565 S
C1195 C1203 1.433 . S
C1196 H1192 0.929 . S
C1196 C1198 1.378 . S
C1196 C1200 1.350 . S
C1197 C1200 1.463 . S
C1197 C1202 1.350 . S
C1197 N1205 1.427 . S
C1198 H1189 0.930 . S
C1198 C1196 1.378 . S
C1198 C1199 1.367 . S
C1199 C1198 1.367 . S
C1199 C1201 1.433 . S
C1200 C1196 1.350 . S
C1200 C1197 1.463 . S
C1200 N1204 1.427 . S
C1201 H1191 0.929 . S
C1201 C1199 1.433 . S
C1201 N1204 1.384 . S
C1202 H1193 0.929 1_565 S
C1202 C1194 1.378 1_565 S
C1202 C1197 1.350 . S
C1203 H1190 0.929 . S
C1203 C1195 1.433 . S
C1203 N1205 1.384 . S
N1204 C1200 1.427 . S
N1204 C1201 1.384 . S
N1205 C1197 1.427 . S
N1205 C1203 1.384 . S
H1206 C1212 0.930 . S
H1207 C1216 0.930 1_655 S
H1208 C1221 0.929 . S
H1209 C1219 0.929 . S
H1210 C1214 0.929 . S
H1211 C1220 0.929 . S
C1212 H1206 0.930 . S
C1212 C1213 1.367 . S
C1212 C1220 1.378 . S
C1213 C1212 1.367 . S
C1213 C1221 1.433 . S
C1214 H1210 0.929 . S
C1214 C1216 1.378 . S
C1214 C1218 1.350 . S
C1215 C1218 1.463 . S
C1215 C1220 1.350 . S
C1215 N1223 1.427 . S
C1216 H1207 0.930 1_455 S
C1216 C1214 1.378 . S
C1216 C1217 1.367 . S
C1217 C1216 1.367 . S
C1217 C1219 1.433 . S
C1218 C1214 1.350 . S
C1218 C1215 1.463 . S
C1218 N1222 1.427 . S
C1219 H1209 0.929 . S
C1219 C1217 1.433 . S
C1219 N1222 1.384 . S
C1220 H1211 0.929 . S
C1220 C1212 1.378 . S
C1220 C1215 1.350 . S
C1221 H1208 0.929 . S
C1221 C1213 1.433 . S
C1221 N1223 1.384 . S
N1222 C1218 1.427 . S
N1222 C1219 1.384 . S
N1223 C1215 1.427 . S
N1223 C1221 1.384 . S
H1224 C1230 0.930 . S
H1225 C1234 0.930 . S
H1226 C1239 0.929 . S
H1227 C1237 0.929 . S
H1228 C1232 0.929 . S
H1229 C1238 0.929 . S
C1230 H1224 0.930 . S
C1230 C1231 1.367 . S
C1230 C1238 1.378 . S
C1231 C1230 1.367 . S
C1231 C1239 1.433 . S
C1232 H1228 0.929 . S
C1232 C1234 1.378 . S
C1232 C1236 1.350 . S
C1233 C1236 1.463 . S
C1233 C1238 1.350 . S
C1233 N1241 1.427 . S
C1234 H1225 0.930 . S
C1234 C1232 1.378 . S
C1234 C1235 1.367 . S
C1235 C1234 1.367 . S
C1235 C1237 1.433 . S
C1236 C1232 1.350 . S
C1236 C1233 1.463 . S
C1236 N1240 1.427 . S
C1237 H1227 0.929 . S
C1237 C1235 1.433 . S
C1237 N1240 1.384 . S
C1238 H1229 0.929 . S
C1238 C1230 1.378 . S
C1238 C1233 1.350 . S
C1239 H1226 0.929 . S
C1239 C1231 1.433 . S
C1239 N1241 1.384 . S
N1240 C1236 1.427 . S
N1240 C1237 1.384 . S
N1241 C1233 1.427 . S
N1241 C1239 1.384 . S
H1242 C1248 0.930 . S
H1243 C1252 0.930 . S
H1244 C1257 0.929 . S
H1245 C1255 0.929 . S
H1246 C1250 0.929 . S
H1247 C1256 0.929 . S
C1248 H1242 0.930 . S
C1248 C1249 1.367 . S
C1248 C1256 1.378 . S
C1249 C1248 1.367 . S
C1249 C1257 1.433 . S
C1250 H1246 0.929 . S
C1250 C1252 1.378 . S
C1250 C1254 1.350 . S
C1251 C1254 1.463 . S
C1251 C1256 1.350 . S
C1251 N1259 1.427 . S
C1252 H1243 0.930 . S
C1252 C1250 1.378 . S
C1252 C1253 1.367 . S
C1253 C1252 1.367 . S
C1253 C1255 1.433 1_655 S
C1254 C1250 1.350 . S
C1254 C1251 1.463 . S
C1254 N1258 1.427 1_655 S
C1255 H1245 0.929 . S
C1255 C1253 1.433 1_455 S
C1255 N1258 1.384 . S
C1256 H1247 0.929 . S
C1256 C1248 1.378 . S
C1256 C1251 1.350 . S
C1257 H1244 0.929 . S
C1257 C1249 1.433 . S
C1257 N1259 1.384 . S
N1258 C1254 1.427 1_455 S
N1258 C1255 1.384 . S
N1259 C1251 1.427 . S
N1259 C1257 1.384 . S
H1260 C1266 0.930 . S
H1261 C1270 0.930 . S
H1262 C1275 0.929 . S
H1263 C1273 0.929 . S
H1264 C1268 0.929 . S
H1265 C1274 0.929 . S
C1266 H1260 0.930 . S
C1266 C1267 1.367 . S
C1266 C1274 1.378 . S
C1267 C1266 1.367 . S
C1267 C1275 1.433 . S
C1268 H1264 0.929 . S
C1268 C1270 1.378 . S
C1268 C1272 1.350 . S
C1269 C1272 1.463 . S
C1269 C1274 1.350 . S
C1269 N1277 1.427 . S
C1270 H1261 0.930 . S
C1270 C1268 1.378 . S
C1270 C1271 1.367 . S
C1271 C1270 1.367 . S
C1271 C1273 1.433 . S
C1272 C1268 1.350 . S
C1272 C1269 1.463 . S
C1272 N1276 1.427 . S
C1273 H1263 0.929 . S
C1273 C1271 1.433 . S
C1273 N1276 1.384 . S
C1274 H1265 0.929 . S
C1274 C1266 1.378 . S
C1274 C1269 1.350 . S
C1275 H1262 0.929 . S
C1275 C1267 1.433 . S
C1275 N1277 1.384 . S
N1276 C1272 1.427 . S
N1276 C1273 1.384 . S
N1277 C1269 1.427 . S
N1277 C1275 1.384 . S
H1278 C1284 0.930 . S
H1279 C1288 0.930 . S
H1280 C1293 0.929 . S
H1281 C1291 0.929 . S
H1282 C1286 0.929 . S
H1283 C1292 0.929 . S
C1284 H1278 0.930 . S
C1284 C1285 1.367 . S
C1284 C1292 1.378 . S
C1285 C1284 1.367 . S
C1285 C1293 1.433 . S
C1286 H1282 0.929 . S
C1286 C1288 1.378 . S
C1286 C1290 1.350 . S
C1287 C1290 1.463 . S
C1287 C1292 1.350 . S
C1287 N1295 1.427 . S
C1288 H1279 0.930 . S
C1288 C1286 1.378 . S
C1288 C1289 1.367 . S
C1289 C1288 1.367 . S
C1289 C1291 1.433 . S
C1290 C1286 1.350 . S
C1290 C1287 1.463 . S
C1290 N1294 1.427 . S
C1291 H1281 0.929 . S
C1291 C1289 1.433 . S
C1291 N1294 1.384 . S
C1292 H1283 0.929 . S
C1292 C1284 1.378 . S
C1292 C1287 1.350 . S
C1293 H1280 0.929 . S
C1293 C1285 1.433 . S
C1293 N1295 1.384 . S
N1294 C1290 1.427 . S
N1294 C1291 1.384 . S
N1295 C1287 1.427 . S
N1295 C1293 1.384 . S
H1296 C1302 0.930 . S
H1297 C1306 0.930 . S
H1298 C1311 0.929 . S
H1299 C1309 0.929 . S
H1300 C1304 0.929 . S
H1301 C1310 0.929 . S
C1302 H1296 0.930 . S
C1302 C1303 1.367 . S
C1302 C1310 1.378 . S
C1303 C1302 1.367 . S
C1303 C1311 1.433 . S
C1304 H1300 0.929 . S
C1304 C1306 1.378 . S
C1304 C1308 1.350 . S
C1305 C1308 1.463 . S
C1305 C1310 1.350 . S
C1305 N1313 1.427 . S
C1306 H1297 0.930 . S
C1306 C1304 1.378 . S
C1306 C1307 1.367 . S
C1307 C1306 1.367 . S
C1307 C1309 1.433 . S
C1308 C1304 1.350 . S
C1308 C1305 1.463 . S
C1308 N1312 1.427 . S
C1309 H1299 0.929 . S
C1309 C1307 1.433 . S
C1309 N1312 1.384 . S
C1310 H1301 0.929 . S
C1310 C1302 1.378 . S
C1310 C1305 1.350 . S
C1311 H1298 0.929 . S
C1311 C1303 1.433 . S
C1311 N1313 1.384 . S
N1312 C1308 1.427 . S
N1312 C1309 1.384 . S
N1313 C1305 1.427 . S
N1313 C1311 1.384 . S
H1314 C1320 0.930 . S
H1315 C1324 0.930 . S
H1316 C1329 0.929 . S
H1317 C1327 0.929 . S
H1318 C1322 0.929 . S
H1319 C1328 0.929 . S
C1320 H1314 0.930 . S
C1320 C1321 1.367 . S
C1320 C1328 1.378 1_565 S
C1321 C1320 1.367 . S
C1321 C1329 1.433 . S
C1322 H1318 0.929 . S
C1322 C1324 1.378 . S
C1322 C1326 1.350 . S
C1323 C1326 1.463 . S
C1323 C1328 1.350 . S
C1323 N1331 1.427 1_545 S
C1324 H1315 0.930 . S
C1324 C1322 1.378 . S
C1324 C1325 1.367 . S
C1325 C1324 1.367 . S
C1325 C1327 1.433 . S
C1326 C1322 1.350 . S
C1326 C1323 1.463 . S
C1326 N1330 1.427 . S
C1327 H1317 0.929 . S
C1327 C1325 1.433 . S
C1327 N1330 1.384 . S
C1328 H1319 0.929 . S
C1328 C1320 1.378 1_545 S
C1328 C1323 1.350 . S
C1329 H1316 0.929 . S
C1329 C1321 1.433 . S
C1329 N1331 1.384 . S
N1330 C1326 1.427 . S
N1330 C1327 1.384 . S
N1331 C1323 1.427 1_565 S
N1331 C1329 1.384 . S
H1332 C1338 0.930 . S
H1333 C1342 0.930 . S
H1334 C1347 0.929 . S
H1335 C1345 0.929 . S
H1336 C1340 0.929 . S
H1337 C1346 0.929 . S
C1338 H1332 0.930 . S
C1338 C1339 1.367 . S
C1338 C1346 1.378 . S
C1339 C1338 1.367 . S
C1339 C1347 1.433 . S
C1340 H1336 0.929 . S
C1340 C1342 1.378 . S
C1340 C1344 1.350 . S
C1341 C1344 1.463 . S
C1341 C1346 1.350 1_455 S
C1341 N1349 1.427 . S
C1342 H1333 0.930 . S
C1342 C1340 1.378 . S
C1342 C1343 1.367 . S
C1343 C1342 1.367 . S
C1343 C1345 1.433 . S
C1344 C1340 1.350 . S
C1344 C1341 1.463 . S
C1344 N1348 1.427 . S
C1345 H1335 0.929 . S
C1345 C1343 1.433 . S
C1345 N1348 1.384 . S
C1346 H1337 0.929 . S
C1346 C1338 1.378 . S
C1346 C1341 1.350 1_655 S
C1347 H1334 0.929 . S
C1347 C1339 1.433 . S
C1347 N1349 1.384 1_655 S
N1348 C1344 1.427 . S
N1348 C1345 1.384 . S
N1349 C1341 1.427 . S
N1349 C1347 1.384 1_455 S
H1350 C1356 0.930 . S
H1351 C1360 0.930 . S
H1352 C1365 0.929 . S
H1353 C1363 0.929 . S
H1354 C1358 0.929 . S
H1355 C1364 0.929 . S
C1356 H1350 0.930 . S
C1356 C1357 1.367 . S
C1356 C1364 1.378 . S
C1357 C1356 1.367 . S
C1357 C1365 1.433 . S
C1358 H1354 0.929 . S
C1358 C1360 1.378 . S
C1358 C1362 1.350 . S
C1359 C1362 1.463 . S
C1359 C1364 1.350 . S
C1359 N1367 1.427 . S
C1360 H1351 0.930 . S
C1360 C1358 1.378 . S
C1360 C1361 1.367 . S
C1361 C1360 1.367 . S
C1361 C1363 1.433 . S
C1362 C1358 1.350 . S
C1362 C1359 1.463 . S
C1362 N1366 1.427 . S
C1363 H1353 0.929 . S
C1363 C1361 1.433 . S
C1363 N1366 1.384 . S
C1364 H1355 0.929 . S
C1364 C1356 1.378 . S
C1364 C1359 1.350 . S
C1365 H1352 0.929 . S
C1365 C1357 1.433 . S
C1365 N1367 1.384 . S
N1366 C1362 1.427 . S
N1366 C1363 1.384 . S
N1367 C1359 1.427 . S
N1367 C1365 1.384 . S
H1368 C1374 0.930 . S
H1369 C1378 0.930 . S
H1370 C1383 0.929 . S
H1371 C1381 0.929 . S
H1372 C1376 0.929 . S
H1373 C1382 0.929 . S
C1374 H1368 0.930 . S
C1374 C1375 1.367 . S
C1374 C1382 1.378 1_565 S
C1375 C1374 1.367 . S
C1375 C1383 1.433 . S
C1376 H1372 0.929 . S
C1376 C1378 1.378 . S
C1376 C1380 1.350 . S
C1377 C1380 1.463 . S
C1377 C1382 1.350 . S
C1377 N1385 1.427 1_545 S
C1378 H1369 0.930 . S
C1378 C1376 1.378 . S
C1378 C1379 1.367 . S
C1379 C1378 1.367 . S
C1379 C1381 1.433 . S
C1380 C1376 1.350 . S
C1380 C1377 1.463 . S
C1380 N1384 1.427 . S
C1381 H1371 0.929 . S
C1381 C1379 1.433 . S
C1381 N1384 1.384 . S
C1382 H1373 0.929 . S
C1382 C1374 1.378 1_545 S
C1382 C1377 1.350 . S
C1383 H1370 0.929 . S
C1383 C1375 1.433 . S
C1383 N1385 1.384 . S
N1384 C1380 1.427 . S
N1384 C1381 1.384 . S
N1385 C1377 1.427 1_565 S
N1385 C1383 1.384 . S
H1386 C1392 0.930 . S
H1387 C1396 0.930 . S
H1388 C1401 0.929 . S
H1389 C1399 0.929 . S
H1390 C1394 0.929 . S
H1391 C1400 0.929 . S
C1392 H1386 0.930 . S
C1392 C1393 1.367 . S
C1392 C1400 1.378 1_655 S
C1393 C1392 1.367 . S
C1393 C1401 1.433 . S
C1394 H1390 0.929 . S
C1394 C1396 1.378 . S
C1394 C1398 1.350 . S
C1395 C1398 1.463 . S
C1395 C1400 1.350 . S
C1395 N1403 1.427 1_455 S
C1396 H1387 0.930 . S
C1396 C1394 1.378 . S
C1396 C1397 1.367 . S
C1397 C1396 1.367 . S
C1397 C1399 1.433 . S
C1398 C1394 1.350 . S
C1398 C1395 1.463 . S
C1398 N1402 1.427 . S
C1399 H1389 0.929 . S
C1399 C1397 1.433 . S
C1399 N1402 1.384 . S
C1400 H1391 0.929 . S
C1400 C1392 1.378 1_455 S
C1400 C1395 1.350 . S
C1401 H1388 0.929 . S
C1401 C1393 1.433 . S
C1401 N1403 1.384 . S
N1402 C1398 1.427 . S
N1402 C1399 1.384 . S
N1403 C1395 1.427 1_655 S
N1403 C1401 1.384 . S
H1404 C1410 0.930 . S
H1405 C1414 0.930 . S
H1406 C1419 0.929 . S
H1407 C1417 0.929 . S
H1408 C1412 0.929 . S
H1409 C1418 0.929 . S
C1410 H1404 0.930 . S
C1410 C1411 1.367 1_565 S
C1410 C1418 1.378 . S
C1411 C1410 1.367 1_545 S
C1411 C1419 1.433 . S
C1412 H1408 0.929 . S
C1412 C1414 1.378 . S
C1412 C1416 1.350 . S
C1413 C1416 1.463 1_554 S
C1413 C1418 1.350 1_545 S
C1413 N1421 1.427 . S
C1414 H1405 0.930 . S
C1414 C1412 1.378 . S
C1414 C1415 1.367 . S
C1415 C1414 1.367 . S
C1415 C1417 1.433 1_545 S
C1416 C1412 1.350 . S
C1416 C1413 1.463 1_556 S
C1416 N1420 1.427 1_545 S
C1417 H1407 0.929 . S
C1417 C1415 1.433 1_565 S
C1417 N1420 1.384 . S
C1418 H1409 0.929 . S
C1418 C1410 1.378 . S
C1418 C1413 1.350 1_565 S
C1419 H1406 0.929 . S
C1419 C1411 1.433 . S
C1419 N1421 1.384 . S
N1420 C1416 1.427 1_565 S
N1420 C1417 1.384 . S
N1421 C1413 1.427 . S
N1421 C1419 1.384 . S
H1422 C1428 0.930 . S
H1423 C1432 0.930 . S
H1424 C1437 0.929 . S
H1425 C1435 0.929 . S
H1426 C1430 0.929 . S
H1427 C1436 0.929 . S
C1428 H1422 0.930 . S
C1428 C1429 1.367 . S
C1428 C1436 1.378 . S
C1429 C1428 1.367 . S
C1429 C1437 1.433 . S
C1430 H1426 0.929 . S
C1430 C1432 1.378 . S
C1430 C1434 1.350 . S
C1431 C1434 1.463 1_556 S
C1431 C1436 1.350 . S
C1431 N1439 1.427 . S
C1432 H1423 0.930 . S
C1432 C1430 1.378 . S
C1432 C1433 1.367 . S
C1433 C1432 1.367 . S
C1433 C1435 1.433 . S
C1434 C1430 1.350 . S
C1434 C1431 1.463 1_554 S
C1434 N1438 1.427 . S
C1435 H1425 0.929 . S
C1435 C1433 1.433 . S
C1435 N1438 1.384 . S
C1436 H1427 0.929 . S
C1436 C1428 1.378 . S
C1436 C1431 1.350 . S
C1437 H1424 0.929 . S
C1437 C1429 1.433 . S
C1437 N1439 1.384 . S
N1438 C1434 1.427 . S
N1438 C1435 1.384 . S
N1439 C1431 1.427 . S
N1439 C1437 1.384 . S
H1440 C1446 0.930 . S
H1441 C1450 0.930 . S
H1442 C1455 0.929 . S
H1443 C1453 0.929 . S
H1444 C1448 0.929 . S
H1445 C1454 0.929 . S
C1446 H1440 0.930 . S
C1446 C1447 1.367 . S
C1446 C1454 1.378 . S
C1447 C1446 1.367 . S
C1447 C1455 1.433 . S
C1448 H1444 0.929 . S
C1448 C1450 1.378 . S
C1448 C1452 1.350 . S
C1449 C1452 1.463 1_554 S
C1449 C1454 1.350 . S
C1449 N1457 1.427 . S
C1450 H1441 0.930 . S
C1450 C1448 1.378 . S
C1450 C1451 1.367 . S
C1451 C1450 1.367 . S
C1451 C1453 1.433 . S
C1452 C1448 1.350 . S
C1452 C1449 1.463 1_556 S
C1452 N1456 1.427 . S
C1453 H1443 0.929 . S
C1453 C1451 1.433 . S
C1453 N1456 1.384 . S
C1454 H1445 0.929 . S
C1454 C1446 1.378 . S
C1454 C1449 1.350 . S
C1455 H1442 0.929 . S
C1455 C1447 1.433 . S
C1455 N1457 1.384 . S
N1456 C1452 1.427 . S
N1456 C1453 1.384 . S
N1457 C1449 1.427 . S
N1457 C1455 1.384 . S
H1458 C1464 0.930 . S
H1459 C1468 0.930 . S
H1460 C1473 0.929 . S
H1461 C1471 0.929 . S
H1462 C1466 0.929 . S
H1463 C1472 0.929 . S
C1464 H1458 0.930 . S
C1464 C1465 1.367 1_655 S
C1464 C1472 1.378 . S
C1465 C1464 1.367 1_455 S
C1465 C1473 1.433 . S
C1466 H1462 0.929 . S
C1466 C1468 1.378 . S
C1466 C1470 1.350 . S
C1467 C1470 1.463 . S
C1467 C1472 1.350 1_455 S
C1467 N1475 1.427 . S
C1468 H1459 0.930 . S
C1468 C1466 1.378 . S
C1468 C1469 1.367 . S
C1469 C1468 1.367 . S
C1469 C1471 1.433 1_455 S
C1470 C1466 1.350 . S
C1470 C1467 1.463 . S
C1470 N1474 1.427 1_455 S
C1471 H1461 0.929 . S
C1471 C1469 1.433 1_655 S
C1471 N1474 1.384 . S
C1472 H1463 0.929 . S
C1472 C1464 1.378 . S
C1472 C1467 1.350 1_655 S
C1473 H1460 0.929 . S
C1473 C1465 1.433 . S
C1473 N1475 1.384 . S
N1474 C1470 1.427 1_655 S
N1474 C1471 1.384 . S
N1475 C1467 1.427 . S
N1475 C1473 1.384 . S
H1476 C1482 0.930 . S
H1477 C1486 0.930 . S
H1478 C1491 0.929 . S
H1479 C1489 0.929 . S
H1480 C1484 0.929 . S
H1481 C1490 0.929 . S
C1482 H1476 0.930 . S
C1482 C1483 1.367 . S
C1482 C1490 1.378 . S
C1483 C1482 1.367 . S
C1483 C1491 1.433 . S
C1484 H1480 0.929 . S
C1484 C1486 1.378 . S
C1484 C1488 1.350 . S
C1485 C1488 1.463 . S
C1485 C1490 1.350 . S
C1485 N1493 1.427 . S
C1486 H1477 0.930 . S
C1486 C1484 1.378 . S
C1486 C1487 1.367 . S
C1487 C1486 1.367 . S
C1487 C1489 1.433 . S
C1488 C1484 1.350 . S
C1488 C1485 1.463 . S
C1488 N1492 1.427 . S
C1489 H1479 0.929 . S
C1489 C1487 1.433 . S
C1489 N1492 1.384 . S
C1490 H1481 0.929 . S
C1490 C1482 1.378 . S
C1490 C1485 1.350 . S
C1491 H1478 0.929 . S
C1491 C1483 1.433 . S
C1491 N1493 1.384 . S
N1492 C1488 1.427 . S
N1492 C1489 1.384 . S
N1493 C1485 1.427 . S
N1493 C1491 1.384 . S
H1494 C1500 0.930 . S
H1495 C1504 0.930 . S
H1496 C1509 0.929 . S
H1497 C1507 0.929 . S
H1498 C1502 0.929 . S
H1499 C1508 0.929 . S
C1500 H1494 0.930 . S
C1500 C1501 1.367 . S
C1500 C1508 1.378 . S
C1501 C1500 1.367 . S
C1501 C1509 1.433 1_545 S
C1502 H1498 0.929 . S
C1502 C1504 1.378 . S
C1502 C1506 1.350 1_565 S
C1503 C1506 1.463 . S
C1503 C1508 1.350 . S
C1503 N1511 1.427 1_545 S
C1504 H1495 0.930 . S
C1504 C1502 1.378 . S
C1504 C1505 1.367 1_565 S
C1505 C1504 1.367 1_545 S
C1505 C1507 1.433 . S
C1506 C1502 1.350 1_545 S
C1506 C1503 1.463 . S
C1506 N1510 1.427 . S
C1507 H1497 0.929 . S
C1507 C1505 1.433 . S
C1507 N1510 1.384 . S
C1508 H1499 0.929 . S
C1508 C1500 1.378 . S
C1508 C1503 1.350 . S
C1509 H1496 0.929 . S
C1509 C1501 1.433 1_565 S
C1509 N1511 1.384 . S
N1510 C1506 1.427 . S
N1510 C1507 1.384 . S
N1511 C1503 1.427 1_565 S
N1511 C1509 1.384 . S
H1512 C1518 0.930 . S
H1513 C1522 0.930 . S
H1514 C1527 0.929 . S
H1515 C1525 0.929 . S
H1516 C1520 0.929 . S
H1517 C1526 0.929 . S
C1518 H1512 0.930 . S
C1518 C1519 1.367 . S
C1518 C1526 1.378 . S
C1519 C1518 1.367 . S
C1519 C1527 1.433 . S
C1520 H1516 0.929 . S
C1520 C1522 1.378 . S
C1520 C1524 1.350 . S
C1521 C1524 1.463 . S
C1521 C1526 1.350 . S
C1521 N1529 1.427 . S
C1522 H1513 0.930 . S
C1522 C1520 1.378 . S
C1522 C1523 1.367 . S
C1523 C1522 1.367 . S
C1523 C1525 1.433 . S
C1524 C1520 1.350 . S
C1524 C1521 1.463 . S
C1524 N1528 1.427 . S
C1525 H1515 0.929 . S
C1525 C1523 1.433 . S
C1525 N1528 1.384 . S
C1526 H1517 0.929 . S
C1526 C1518 1.378 . S
C1526 C1521 1.350 . S
C1527 H1514 0.929 . S
C1527 C1519 1.433 . S
C1527 N1529 1.384 . S
N1528 C1524 1.427 . S
N1528 C1525 1.384 . S
N1529 C1521 1.427 . S
N1529 C1527 1.384 . S
H1530 C1536 0.930 . S
H1531 C1540 0.930 . S
H1532 C1545 0.929 . S
H1533 C1543 0.929 . S
H1534 C1538 0.929 . S
H1535 C1544 0.929 . S
C1536 H1530 0.930 . S
C1536 C1537 1.367 . S
C1536 C1544 1.378 . S
C1537 C1536 1.367 . S
C1537 C1545 1.433 . S
C1538 H1534 0.929 . S
C1538 C1540 1.378 . S
C1538 C1542 1.350 . S
C1539 C1542 1.463 . S
C1539 C1544 1.350 . S
C1539 N1547 1.427 . S
C1540 H1531 0.930 . S
C1540 C1538 1.378 . S
C1540 C1541 1.367 . S
C1541 C1540 1.367 . S
C1541 C1543 1.433 . S
C1542 C1538 1.350 . S
C1542 C1539 1.463 . S
C1542 N1546 1.427 . S
C1543 H1533 0.929 . S
C1543 C1541 1.433 . S
C1543 N1546 1.384 . S
C1544 H1535 0.929 . S
C1544 C1536 1.378 . S
C1544 C1539 1.350 . S
C1545 H1532 0.929 . S
C1545 C1537 1.433 . S
C1545 N1547 1.384 . S
N1546 C1542 1.427 . S
N1546 C1543 1.384 . S
N1547 C1539 1.427 . S
N1547 C1545 1.384 . S
H1548 C1554 0.930 . S
H1549 C1558 0.930 . S
H1550 C1563 0.929 . S
H1551 C1561 0.929 . S
H1552 C1556 0.929 . S
H1553 C1562 0.929 . S
C1554 H1548 0.930 . S
C1554 C1555 1.367 . S
C1554 C1562 1.378 . S
C1555 C1554 1.367 . S
C1555 C1563 1.433 . S
C1556 H1552 0.929 . S
C1556 C1558 1.378 . S
C1556 C1560 1.350 . S
C1557 C1560 1.463 . S
C1557 C1562 1.350 . S
C1557 N1565 1.427 . S
C1558 H1549 0.930 . S
C1558 C1556 1.378 . S
C1558 C1559 1.367 . S
C1559 C1558 1.367 . S
C1559 C1561 1.433 . S
C1560 C1556 1.350 . S
C1560 C1557 1.463 . S
C1560 N1564 1.427 . S
C1561 H1551 0.929 . S
C1561 C1559 1.433 . S
C1561 N1564 1.384 . S
C1562 H1553 0.929 . S
C1562 C1554 1.378 . S
C1562 C1557 1.350 . S
C1563 H1550 0.929 . S
C1563 C1555 1.433 . S
C1563 N1565 1.384 . S
N1564 C1560 1.427 . S
N1564 C1561 1.384 . S
N1565 C1557 1.427 . S
N1565 C1563 1.384 . S
H1566 C1572 0.930 . S
H1567 C1576 0.930 . S
H1568 C1581 0.929 . S
H1569 C1579 0.929 . S
H1570 C1574 0.929 . S
H1571 C1580 0.929 . S
C1572 H1566 0.930 . S
C1572 C1573 1.367 . S
C1572 C1580 1.378 . S
C1573 C1572 1.367 . S
C1573 C1581 1.433 . S
C1574 H1570 0.929 . S
C1574 C1576 1.378 . S
C1574 C1578 1.350 . S
C1575 C1578 1.463 . S
C1575 C1580 1.350 . S
C1575 N1583 1.427 . S
C1576 H1567 0.930 . S
C1576 C1574 1.378 . S
C1576 C1577 1.367 . S
C1577 C1576 1.367 . S
C1577 C1579 1.433 . S
C1578 C1574 1.350 . S
C1578 C1575 1.463 . S
C1578 N1582 1.427 . S
C1579 H1569 0.929 . S
C1579 C1577 1.433 . S
C1579 N1582 1.384 . S
C1580 H1571 0.929 . S
C1580 C1572 1.378 . S
C1580 C1575 1.350 . S
C1581 H1568 0.929 . S
C1581 C1573 1.433 . S
C1581 N1583 1.384 . S
N1582 C1578 1.427 . S
N1582 C1579 1.384 . S
N1583 C1575 1.427 . S
N1583 C1581 1.384 . S
H1584 C1590 0.930 . S
H1585 C1594 0.930 . S
H1586 C1599 0.929 . S
H1587 C1597 0.929 . S
H1588 C1592 0.929 . S
H1589 C1598 0.929 . S
C1590 H1584 0.930 . S
C1590 C1591 1.367 . S
C1590 C1598 1.378 . S
C1591 C1590 1.367 . S
C1591 C1599 1.433 . S
C1592 H1588 0.929 . S
C1592 C1594 1.378 . S
C1592 C1596 1.350 . S
C1593 C1596 1.463 . S
C1593 C1598 1.350 . S
C1593 N1601 1.427 . S
C1594 H1585 0.930 . S
C1594 C1592 1.378 . S
C1594 C1595 1.367 . S
C1595 C1594 1.367 . S
C1595 C1597 1.433 . S
C1596 C1592 1.350 . S
C1596 C1593 1.463 . S
C1596 N1600 1.427 . S
C1597 H1587 0.929 . S
C1597 C1595 1.433 . S
C1597 N1600 1.384 . S
C1598 H1589 0.929 . S
C1598 C1590 1.378 . S
C1598 C1593 1.350 . S
C1599 H1586 0.929 . S
C1599 C1591 1.433 . S
C1599 N1601 1.384 . S
N1600 C1596 1.427 . S
N1600 C1597 1.384 . S
N1601 C1593 1.427 . S
N1601 C1599 1.384 . S
H1602 C1608 0.930 . S
H1603 C1612 0.930 . S
H1604 C1617 0.929 . S
H1605 C1615 0.929 . S
H1606 C1610 0.929 . S
H1607 C1616 0.929 . S
C1608 H1602 0.930 . S
C1608 C1609 1.367 . S
C1608 C1616 1.378 . S
C1609 C1608 1.367 . S
C1609 C1617 1.433 . S
C1610 H1606 0.929 . S
C1610 C1612 1.378 . S
C1610 C1614 1.350 . S
C1611 C1614 1.463 . S
C1611 C1616 1.350 . S
C1611 N1619 1.427 . S
C1612 H1603 0.930 . S
C1612 C1610 1.378 . S
C1612 C1613 1.367 . S
C1613 C1612 1.367 . S
C1613 C1615 1.433 . S
C1614 C1610 1.350 . S
C1614 C1611 1.463 . S
C1614 N1618 1.427 . S
C1615 H1605 0.929 . S
C1615 C1613 1.433 . S
C1615 N1618 1.384 . S
C1616 H1607 0.929 . S
C1616 C1608 1.378 . S
C1616 C1611 1.350 . S
C1617 H1604 0.929 . S
C1617 C1609 1.433 . S
C1617 N1619 1.384 . S
N1618 C1614 1.427 . S
N1618 C1615 1.384 . S
N1619 C1611 1.427 . S
N1619 C1617 1.384 . S
H1620 C1626 0.930 . S
H1621 C1630 0.930 . S
H1622 C1635 0.929 . S
H1623 C1633 0.929 . S
H1624 C1628 0.929 . S
H1625 C1634 0.929 . S
C1626 H1620 0.930 . S
C1626 C1627 1.367 . S
C1626 C1634 1.378 . S
C1627 C1626 1.367 . S
C1627 C1635 1.433 . S
C1628 H1624 0.929 . S
C1628 C1630 1.378 . S
C1628 C1632 1.350 . S
C1629 C1632 1.463 . S
C1629 C1634 1.350 . S
C1629 N1637 1.427 . S
C1630 H1621 0.930 . S
C1630 C1628 1.378 . S
C1630 C1631 1.367 . S
C1631 C1630 1.367 . S
C1631 C1633 1.433 . S
C1632 C1628 1.350 . S
C1632 C1629 1.463 . S
C1632 N1636 1.427 . S
C1633 H1623 0.929 . S
C1633 C1631 1.433 . S
C1633 N1636 1.384 . S
C1634 H1625 0.929 . S
C1634 C1626 1.378 . S
C1634 C1629 1.350 . S
C1635 H1622 0.929 . S
C1635 C1627 1.433 . S
C1635 N1637 1.384 . S
N1636 C1632 1.427 . S
N1636 C1633 1.384 . S
N1637 C1629 1.427 . S
N1637 C1635 1.384 . S
H1638 C1644 0.930 . S
H1639 C1648 0.930 . S
H1640 C1653 0.929 . S
H1641 C1651 0.929 . S
H1642 C1646 0.929 . S
H1643 C1652 0.929 . S
C1644 H1638 0.930 . S
C1644 C1645 1.367 . S
C1644 C1652 1.378 . S
C1645 C1644 1.367 . S
C1645 C1653 1.433 . S
C1646 H1642 0.929 . S
C1646 C1648 1.378 . S
C1646 C1650 1.350 . S
C1647 C1650 1.463 . S
C1647 C1652 1.350 . S
C1647 N1655 1.427 . S
C1648 H1639 0.930 . S
C1648 C1646 1.378 . S
C1648 C1649 1.367 . S
C1649 C1648 1.367 . S
C1649 C1651 1.433 . S
C1650 C1646 1.350 . S
C1650 C1647 1.463 . S
C1650 N1654 1.427 . S
C1651 H1641 0.929 . S
C1651 C1649 1.433 . S
C1651 N1654 1.384 . S
C1652 H1643 0.929 . S
C1652 C1644 1.378 . S
C1652 C1647 1.350 . S
C1653 H1640 0.929 . S
C1653 C1645 1.433 . S
C1653 N1655 1.384 . S
N1654 C1650 1.427 . S
N1654 C1651 1.384 . S
N1655 C1647 1.427 . S
N1655 C1653 1.384 . S
H1656 C1662 0.930 . S
H1657 C1666 0.930 . S
H1658 C1671 0.929 . S
H1659 C1669 0.929 . S
H1660 C1664 0.929 . S
H1661 C1670 0.929 . S
C1662 H1656 0.930 . S
C1662 C1663 1.367 . S
C1662 C1670 1.378 . S
C1663 C1662 1.367 . S
C1663 C1671 1.433 . S
C1664 H1660 0.929 . S
C1664 C1666 1.378 . S
C1664 C1668 1.350 . S
C1665 C1668 1.463 . S
C1665 C1670 1.350 . S
C1665 N1673 1.427 . S
C1666 H1657 0.930 . S
C1666 C1664 1.378 . S
C1666 C1667 1.367 . S
C1667 C1666 1.367 . S
C1667 C1669 1.433 . S
C1668 C1664 1.350 . S
C1668 C1665 1.463 . S
C1668 N1672 1.427 . S
C1669 H1659 0.929 . S
C1669 C1667 1.433 . S
C1669 N1672 1.384 . S
C1670 H1661 0.929 . S
C1670 C1662 1.378 . S
C1670 C1665 1.350 . S
C1671 H1658 0.929 . S
C1671 C1663 1.433 . S
C1671 N1673 1.384 . S
N1672 C1668 1.427 . S
N1672 C1669 1.384 . S
N1673 C1665 1.427 . S
N1673 C1671 1.384 . S
H1674 C1680 0.930 . S
H1675 C1684 0.930 . S
H1676 C1689 0.929 . S
H1677 C1687 0.929 . S
H1678 C1682 0.929 . S
H1679 C1688 0.929 . S
C1680 H1674 0.930 . S
C1680 C1681 1.367 . S
C1680 C1688 1.378 . S
C1681 C1680 1.367 . S
C1681 C1689 1.433 . S
C1682 H1678 0.929 . S
C1682 C1684 1.378 . S
C1682 C1686 1.350 . S
C1683 C1686 1.463 . S
C1683 C1688 1.350 . S
C1683 N1691 1.427 . S
C1684 H1675 0.930 . S
C1684 C1682 1.378 . S
C1684 C1685 1.367 . S
C1685 C1684 1.367 . S
C1685 C1687 1.433 . S
C1686 C1682 1.350 . S
C1686 C1683 1.463 . S
C1686 N1690 1.427 . S
C1687 H1677 0.929 . S
C1687 C1685 1.433 . S
C1687 N1690 1.384 . S
C1688 H1679 0.929 . S
C1688 C1680 1.378 . S
C1688 C1683 1.350 . S
C1689 H1676 0.929 . S
C1689 C1681 1.433 . S
C1689 N1691 1.384 . S
N1690 C1686 1.427 . S
N1690 C1687 1.384 . S
N1691 C1683 1.427 . S
N1691 C1689 1.384 . S
H1692 C1698 0.930 . S
H1693 C1702 0.930 . S
H1694 C1707 0.929 . S
H1695 C1705 0.929 . S
H1696 C1700 0.929 . S
H1697 C1706 0.929 . S
C1698 H1692 0.930 . S
C1698 C1699 1.367 . S
C1698 C1706 1.378 . S
C1699 C1698 1.367 . S
C1699 C1707 1.433 . S
C1700 H1696 0.929 . S
C1700 C1702 1.378 . S
C1700 C1704 1.350 . S
C1701 C1704 1.463 . S
C1701 C1706 1.350 . S
C1701 N1709 1.427 . S
C1702 H1693 0.930 . S
C1702 C1700 1.378 . S
C1702 C1703 1.367 . S
C1703 C1702 1.367 . S
C1703 C1705 1.433 . S
C1704 C1700 1.350 . S
C1704 C1701 1.463 . S
C1704 N1708 1.427 . S
C1705 H1695 0.929 . S
C1705 C1703 1.433 . S
C1705 N1708 1.384 . S
C1706 H1697 0.929 . S
C1706 C1698 1.378 . S
C1706 C1701 1.350 . S
C1707 H1694 0.929 . S
C1707 C1699 1.433 . S
C1707 N1709 1.384 . S
N1708 C1704 1.427 . S
N1708 C1705 1.384 . S
N1709 C1701 1.427 . S
N1709 C1707 1.384 . S
H1710 C1716 0.930 . S
H1711 C1720 0.930 . S
H1712 C1725 0.929 . S
H1713 C1723 0.929 . S
H1714 C1718 0.929 . S
H1715 C1724 0.929 . S
C1716 H1710 0.930 . S
C1716 C1717 1.367 . S
C1716 C1724 1.378 . S
C1717 C1716 1.367 . S
C1717 C1725 1.433 . S
C1718 H1714 0.929 . S
C1718 C1720 1.378 . S
C1718 C1722 1.350 . S
C1719 C1722 1.463 . S
C1719 C1724 1.350 . S
C1719 N1727 1.427 . S
C1720 H1711 0.930 . S
C1720 C1718 1.378 . S
C1720 C1721 1.367 . S
C1721 C1720 1.367 . S
C1721 C1723 1.433 . S
C1722 C1718 1.350 . S
C1722 C1719 1.463 . S
C1722 N1726 1.427 . S
C1723 H1713 0.929 . S
C1723 C1721 1.433 . S
C1723 N1726 1.384 . S
C1724 H1715 0.929 . S
C1724 C1716 1.378 . S
C1724 C1719 1.350 . S
C1725 H1712 0.929 . S
C1725 C1717 1.433 . S
C1725 N1727 1.384 . S
N1726 C1722 1.427 . S
N1726 C1723 1.384 . S
N1727 C1719 1.427 . S
N1727 C1725 1.384 . S
H1728 C1734 0.930 . S
H1729 C1738 0.930 . S
H1730 C1743 0.929 . S
H1731 C1741 0.929 . S
H1732 C1736 0.929 . S
H1733 C1742 0.929 . S
C1734 H1728 0.930 . S
C1734 C1735 1.367 . S
C1734 C1742 1.378 . S
C1735 C1734 1.367 . S
C1735 C1743 1.433 . S
C1736 H1732 0.929 . S
C1736 C1738 1.378 . S
C1736 C1740 1.350 . S
C1737 C1740 1.463 . S
C1737 C1742 1.350 . S
C1737 N1745 1.427 . S
C1738 H1729 0.930 . S
C1738 C1736 1.378 . S
C1738 C1739 1.367 . S
C1739 C1738 1.367 . S
C1739 C1741 1.433 . S
C1740 C1736 1.350 . S
C1740 C1737 1.463 . S
C1740 N1744 1.427 . S
C1741 H1731 0.929 . S
C1741 C1739 1.433 . S
C1741 N1744 1.384 . S
C1742 H1733 0.929 . S
C1742 C1734 1.378 . S
C1742 C1737 1.350 . S
C1743 H1730 0.929 . S
C1743 C1735 1.433 . S
C1743 N1745 1.384 . S
N1744 C1740 1.427 . S
N1744 C1741 1.384 . S
N1745 C1737 1.427 . S
N1745 C1743 1.384 . S
H1746 C1752 0.930 . S
H1747 C1756 0.930 . S
H1748 C1761 0.929 . S
H1749 C1759 0.929 . S
H1750 C1754 0.929 . S
H1751 C1760 0.929 . S
C1752 H1746 0.930 . S
C1752 C1753 1.367 . S
C1752 C1760 1.378 . S
C1753 C1752 1.367 . S
C1753 C1761 1.433 . S
C1754 H1750 0.929 . S
C1754 C1756 1.378 . S
C1754 C1758 1.350 . S
C1755 C1758 1.463 . S
C1755 C1760 1.350 . S
C1755 N1763 1.427 . S
C1756 H1747 0.930 . S
C1756 C1754 1.378 . S
C1756 C1757 1.367 . S
C1757 C1756 1.367 . S
C1757 C1759 1.433 . S
C1758 C1754 1.350 . S
C1758 C1755 1.463 . S
C1758 N1762 1.427 . S
C1759 H1749 0.929 . S
C1759 C1757 1.433 . S
C1759 N1762 1.384 . S
C1760 H1751 0.929 . S
C1760 C1752 1.378 . S
C1760 C1755 1.350 . S
C1761 H1748 0.929 . S
C1761 C1753 1.433 . S
C1761 N1763 1.384 . S
N1762 C1758 1.427 . S
N1762 C1759 1.384 . S
N1763 C1755 1.427 . S
N1763 C1761 1.384 . S
H1764 C1770 0.930 . S
H1765 C1774 0.930 . S
H1766 C1779 0.929 . S
H1767 C1777 0.929 . S
H1768 C1772 0.929 . S
H1769 C1778 0.929 . S
C1770 H1764 0.930 . S
C1770 C1771 1.367 . S
C1770 C1778 1.378 . S
C1771 C1770 1.367 . S
C1771 C1779 1.433 . S
C1772 H1768 0.929 . S
C1772 C1774 1.378 . S
C1772 C1776 1.350 . S
C1773 C1776 1.463 . S
C1773 C1778 1.350 . S
C1773 N1781 1.427 . S
C1774 H1765 0.930 . S
C1774 C1772 1.378 . S
C1774 C1775 1.367 . S
C1775 C1774 1.367 . S
C1775 C1777 1.433 . S
C1776 C1772 1.350 . S
C1776 C1773 1.463 . S
C1776 N1780 1.427 . S
C1777 H1767 0.929 . S
C1777 C1775 1.433 . S
C1777 N1780 1.384 . S
C1778 H1769 0.929 . S
C1778 C1770 1.378 . S
C1778 C1773 1.350 . S
C1779 H1766 0.929 . S
C1779 C1771 1.433 . S
C1779 N1781 1.384 . S
N1780 C1776 1.427 . S
N1780 C1777 1.384 . S
N1781 C1773 1.427 . S
N1781 C1779 1.384 . S
H1782 C1788 0.930 . S
H1783 C1792 0.930 . S
H1784 C1797 0.929 . S
H1785 C1795 0.929 . S
H1786 C1790 0.929 . S
H1787 C1796 0.929 . S
C1788 H1782 0.930 . S
C1788 C1789 1.367 . S
C1788 C1796 1.378 . S
C1789 C1788 1.367 . S
C1789 C1797 1.433 . S
C1790 H1786 0.929 . S
C1790 C1792 1.378 . S
C1790 C1794 1.350 . S
C1791 C1794 1.463 . S
C1791 C1796 1.350 . S
C1791 N1799 1.427 . S
C1792 H1783 0.930 . S
C1792 C1790 1.378 . S
C1792 C1793 1.367 . S
C1793 C1792 1.367 . S
C1793 C1795 1.433 . S
C1794 C1790 1.350 . S
C1794 C1791 1.463 . S
C1794 N1798 1.427 . S
C1795 H1785 0.929 . S
C1795 C1793 1.433 . S
C1795 N1798 1.384 . S
C1796 H1787 0.929 . S
C1796 C1788 1.378 . S
C1796 C1791 1.350 . S
C1797 H1784 0.929 . S
C1797 C1789 1.433 . S
C1797 N1799 1.384 . S
N1798 C1794 1.427 . S
N1798 C1795 1.384 . S
N1799 C1791 1.427 . S
N1799 C1797 1.384 . S
H1800 C1806 0.930 . S
H1801 C1810 0.930 . S
H1802 C1815 0.929 . S
H1803 C1813 0.929 . S
H1804 C1808 0.929 . S
H1805 C1814 0.929 . S
C1806 H1800 0.930 . S
C1806 C1807 1.367 . S
C1806 C1814 1.378 . S
C1807 C1806 1.367 . S
C1807 C1815 1.433 . S
C1808 H1804 0.929 . S
C1808 C1810 1.378 . S
C1808 C1812 1.350 . S
C1809 C1812 1.463 . S
C1809 C1814 1.350 . S
C1809 N1817 1.427 . S
C1810 H1801 0.930 . S
C1810 C1808 1.378 . S
C1810 C1811 1.367 . S
C1811 C1810 1.367 . S
C1811 C1813 1.433 . S
C1812 C1808 1.350 . S
C1812 C1809 1.463 . S
C1812 N1816 1.427 . S
C1813 H1803 0.929 . S
C1813 C1811 1.433 . S
C1813 N1816 1.384 . S
C1814 H1805 0.929 . S
C1814 C1806 1.378 . S
C1814 C1809 1.350 . S
C1815 H1802 0.929 . S
C1815 C1807 1.433 . S
C1815 N1817 1.384 . S
N1816 C1812 1.427 . S
N1816 C1813 1.384 . S
N1817 C1809 1.427 . S
N1817 C1815 1.384 . S
H1818 C1824 0.930 . S
H1819 C1828 0.930 . S
H1820 C1833 0.929 . S
H1821 C1831 0.929 . S
H1822 C1826 0.929 . S
H1823 C1832 0.929 . S
C1824 H1818 0.930 . S
C1824 C1825 1.367 . S
C1824 C1832 1.378 . S
C1825 C1824 1.367 . S
C1825 C1833 1.433 . S
C1826 H1822 0.929 . S
C1826 C1828 1.378 . S
C1826 C1830 1.350 . S
C1827 C1830 1.463 . S
C1827 C1832 1.350 . S
C1827 N1835 1.427 . S
C1828 H1819 0.930 . S
C1828 C1826 1.378 . S
C1828 C1829 1.367 . S
C1829 C1828 1.367 . S
C1829 C1831 1.433 . S
C1830 C1826 1.350 . S
C1830 C1827 1.463 . S
C1830 N1834 1.427 . S
C1831 H1821 0.929 . S
C1831 C1829 1.433 . S
C1831 N1834 1.384 . S
C1832 H1823 0.929 . S
C1832 C1824 1.378 . S
C1832 C1827 1.350 . S
C1833 H1820 0.929 . S
C1833 C1825 1.433 . S
C1833 N1835 1.384 . S
N1834 C1830 1.427 . S
N1834 C1831 1.384 . S
N1835 C1827 1.427 . S
N1835 C1833 1.384 . S
H1836 C1842 0.930 . S
H1837 C1846 0.930 . S
H1838 C1851 0.929 . S
H1839 C1849 0.929 . S
H1840 C1844 0.929 . S
H1841 C1850 0.929 . S
C1842 H1836 0.930 . S
C1842 C1843 1.367 . S
C1842 C1850 1.378 . S
C1843 C1842 1.367 . S
C1843 C1851 1.433 . S
C1844 H1840 0.929 . S
C1844 C1846 1.378 . S
C1844 C1848 1.350 . S
C1845 C1848 1.463 . S
C1845 C1850 1.350 . S
C1845 N1853 1.427 . S
C1846 H1837 0.930 . S
C1846 C1844 1.378 . S
C1846 C1847 1.367 . S
C1847 C1846 1.367 . S
C1847 C1849 1.433 . S
C1848 C1844 1.350 . S
C1848 C1845 1.463 . S
C1848 N1852 1.427 . S
C1849 H1839 0.929 . S
C1849 C1847 1.433 . S
C1849 N1852 1.384 . S
C1850 H1841 0.929 . S
C1850 C1842 1.378 . S
C1850 C1845 1.350 . S
C1851 H1838 0.929 . S
C1851 C1843 1.433 . S
C1851 N1853 1.384 . S
N1852 C1848 1.427 . S
N1852 C1849 1.384 . S
N1853 C1845 1.427 . S
N1853 C1851 1.384 . S
H1854 C1860 0.930 . S
H1855 C1864 0.930 . S
H1856 C1869 0.929 . S
H1857 C1867 0.929 . S
H1858 C1862 0.929 . S
H1859 C1868 0.929 . S
C1860 H1854 0.930 . S
C1860 C1861 1.367 . S
C1860 C1868 1.378 . S
C1861 C1860 1.367 . S
C1861 C1869 1.433 . S
C1862 H1858 0.929 . S
C1862 C1864 1.378 . S
C1862 C1866 1.350 . S
C1863 C1866 1.463 . S
C1863 C1868 1.350 . S
C1863 N1871 1.427 . S
C1864 H1855 0.930 . S
C1864 C1862 1.378 . S
C1864 C1865 1.367 . S
C1865 C1864 1.367 . S
C1865 C1867 1.433 . S
C1866 C1862 1.350 . S
C1866 C1863 1.463 . S
C1866 N1870 1.427 . S
C1867 H1857 0.929 . S
C1867 C1865 1.433 . S
C1867 N1870 1.384 . S
C1868 H1859 0.929 . S
C1868 C1860 1.378 . S
C1868 C1863 1.350 . S
C1869 H1856 0.929 . S
C1869 C1861 1.433 . S
C1869 N1871 1.384 . S
N1870 C1866 1.427 . S
N1870 C1867 1.384 . S
N1871 C1863 1.427 . S
N1871 C1869 1.384 . S
H1872 C1878 0.930 . S
H1873 C1882 0.930 . S
H1874 C1887 0.929 . S
H1875 C1885 0.929 . S
H1876 C1880 0.929 . S
H1877 C1886 0.929 . S
C1878 H1872 0.930 . S
C1878 C1879 1.367 . S
C1878 C1886 1.378 . S
C1879 C1878 1.367 . S
C1879 C1887 1.433 . S
C1880 H1876 0.929 . S
C1880 C1882 1.378 . S
C1880 C1884 1.350 . S
C1881 C1884 1.463 . S
C1881 C1886 1.350 . S
C1881 N1889 1.427 . S
C1882 H1873 0.930 . S
C1882 C1880 1.378 . S
C1882 C1883 1.367 . S
C1883 C1882 1.367 . S
C1883 C1885 1.433 . S
C1884 C1880 1.350 . S
C1884 C1881 1.463 . S
C1884 N1888 1.427 . S
C1885 H1875 0.929 . S
C1885 C1883 1.433 . S
C1885 N1888 1.384 . S
C1886 H1877 0.929 . S
C1886 C1878 1.378 . S
C1886 C1881 1.350 . S
C1887 H1874 0.929 . S
C1887 C1879 1.433 . S
C1887 N1889 1.384 . S
N1888 C1884 1.427 . S
N1888 C1885 1.384 . S
N1889 C1881 1.427 . S
N1889 C1887 1.384 . S
H1890 C1896 0.930 . S
H1891 C1900 0.930 . S
H1892 C1905 0.929 . S
H1893 C1903 0.929 . S
H1894 C1898 0.929 . S
H1895 C1904 0.929 . S
C1896 H1890 0.930 . S
C1896 C1897 1.367 . S
C1896 C1904 1.378 . S
C1897 C1896 1.367 . S
C1897 C1905 1.433 . S
C1898 H1894 0.929 . S
C1898 C1900 1.378 . S
C1898 C1902 1.350 . S
C1899 C1902 1.463 . S
C1899 C1904 1.350 . S
C1899 N1907 1.427 . S
C1900 H1891 0.930 . S
C1900 C1898 1.378 . S
C1900 C1901 1.367 . S
C1901 C1900 1.367 . S
C1901 C1903 1.433 . S
C1902 C1898 1.350 . S
C1902 C1899 1.463 . S
C1902 N1906 1.427 . S
C1903 H1893 0.929 . S
C1903 C1901 1.433 . S
C1903 N1906 1.384 . S
C1904 H1895 0.929 . S
C1904 C1896 1.378 . S
C1904 C1899 1.350 . S
C1905 H1892 0.929 . S
C1905 C1897 1.433 . S
C1905 N1907 1.384 . S
N1906 C1902 1.427 . S
N1906 C1903 1.384 . S
N1907 C1899 1.427 . S
N1907 C1905 1.384 . S
H1908 C1914 0.930 . S
H1909 C1918 0.930 . S
H1910 C1923 0.929 . S
H1911 C1921 0.929 . S
H1912 C1916 0.929 . S
H1913 C1922 0.929 . S
C1914 H1908 0.930 . S
C1914 C1915 1.367 . S
C1914 C1922 1.378 . S
C1915 C1914 1.367 . S
C1915 C1923 1.433 . S
C1916 H1912 0.929 . S
C1916 C1918 1.378 . S
C1916 C1920 1.350 . S
C1917 C1920 1.463 . S
C1917 C1922 1.350 . S
C1917 N1925 1.427 . S
C1918 H1909 0.930 . S
C1918 C1916 1.378 . S
C1918 C1919 1.367 . S
C1919 C1918 1.367 . S
C1919 C1921 1.433 . S
C1920 C1916 1.350 . S
C1920 C1917 1.463 . S
C1920 N1924 1.427 . S
C1921 H1911 0.929 . S
C1921 C1919 1.433 . S
C1921 N1924 1.384 . S
C1922 H1913 0.929 . S
C1922 C1914 1.378 . S
C1922 C1917 1.350 . S
C1923 H1910 0.929 . S
C1923 C1915 1.433 . S
C1923 N1925 1.384 . S
N1924 C1920 1.427 . S
N1924 C1921 1.384 . S
N1925 C1917 1.427 . S
N1925 C1923 1.384 . S
H1926 C1932 0.930 . S
H1927 C1936 0.930 . S
H1928 C1941 0.929 . S
H1929 C1939 0.929 . S
H1930 C1934 0.929 . S
H1931 C1940 0.929 . S
C1932 H1926 0.930 . S
C1932 C1933 1.367 . S
C1932 C1940 1.378 . S
C1933 C1932 1.367 . S
C1933 C1941 1.433 . S
C1934 H1930 0.929 . S
C1934 C1936 1.378 . S
C1934 C1938 1.350 . S
C1935 C1938 1.463 . S
C1935 C1940 1.350 . S
C1935 N1943 1.427 . S
C1936 H1927 0.930 . S
C1936 C1934 1.378 . S
C1936 C1937 1.367 . S
C1937 C1936 1.367 . S
C1937 C1939 1.433 . S
C1938 C1934 1.350 . S
C1938 C1935 1.463 . S
C1938 N1942 1.427 . S
C1939 H1929 0.929 . S
C1939 C1937 1.433 . S
C1939 N1942 1.384 . S
C1940 H1931 0.929 . S
C1940 C1932 1.378 . S
C1940 C1935 1.350 . S
C1941 H1928 0.929 . S
C1941 C1933 1.433 . S
C1941 N1943 1.384 . S
N1942 C1938 1.427 . S
N1942 C1939 1.384 . S
N1943 C1935 1.427 . S
N1943 C1941 1.384 . S
H1944 C1950 0.930 . S
H1945 C1954 0.930 . S
H1946 C1959 0.944 . S
H1947 C1957 0.929 . S
H1948 C1952 0.929 . S
H1949 C1958 0.929 . S
C1950 H1944 0.930 . S
C1950 C1951 1.367 1_545 S
C1950 C1958 1.378 . S
C1951 C1950 1.367 1_565 S
C1951 C1959 1.446 . S
C1952 H1948 0.929 . S
C1952 C1954 1.378 . S
C1952 C1956 1.350 . S
C1953 C1956 1.463 . S
C1953 C1958 1.350 . S
C1953 N1961 1.427 . S
C1954 H1945 0.930 . S
C1954 C1952 1.378 . S
C1954 C1955 1.367 . S
C1955 C1954 1.367 . S
C1955 C1957 1.433 . S
C1956 C1952 1.350 . S
C1956 C1953 1.463 . S
C1956 N1960 1.427 . S
C1957 H1947 0.929 . S
C1957 C1955 1.433 . S
C1957 N1960 1.384 . S
C1958 H1949 0.929 . S
C1958 C1950 1.378 . S
C1958 C1953 1.350 . S
C1959 H1946 0.944 . S
C1959 C1951 1.446 . S
C1959 N1961 1.356 1_565 S
N1960 C1956 1.427 . S
N1960 C1957 1.384 . S
N1961 C1953 1.427 . S
N1961 C1959 1.356 1_545 S
H1962 C1968 0.930 . S
H1963 C1972 0.930 . S
H1964 C1977 0.929 . S
H1965 C1975 0.929 . S
H1966 C1970 0.929 . S
H1967 C1976 0.929 . S
C1968 H1962 0.930 . S
C1968 C1969 1.367 . S
C1968 C1976 1.378 1_455 S
C1969 C1968 1.367 . S
C1969 C1977 1.433 . S
C1970 H1966 0.929 . S
C1970 C1972 1.378 . S
C1970 C1974 1.350 . S
C1971 C1974 1.463 . S
C1971 C1976 1.350 . S
C1971 N1979 1.427 1_655 S
C1972 H1963 0.930 . S
C1972 C1970 1.378 . S
C1972 C1973 1.367 . S
C1973 C1972 1.367 . S
C1973 C1975 1.433 . S
C1974 C1970 1.350 . S
C1974 C1971 1.463 . S
C1974 N1978 1.427 . S
C1975 H1965 0.929 . S
C1975 C1973 1.433 . S
C1975 N1978 1.384 . S
C1976 H1967 0.929 . S
C1976 C1968 1.378 1_655 S
C1976 C1971 1.350 . S
C1977 H1964 0.929 . S
C1977 C1969 1.433 . S
C1977 N1979 1.384 . S
N1978 C1974 1.427 . S
N1978 C1975 1.384 . S
N1979 C1971 1.427 1_455 S
N1979 C1977 1.384 . S
H1980 C1986 0.930 . S
H1981 C1990 0.930 1_455 S
H1982 C1995 0.929 . S
H1983 C1993 0.929 . S
H1984 C1988 0.929 . S
H1985 C1994 0.929 . S
C1986 H1980 0.930 . S
C1986 C1987 1.367 . S
C1986 C1994 1.378 . S
C1987 C1986 1.367 . S
C1987 C1995 1.433 . S
C1988 H1984 0.929 . S
C1988 C1990 1.378 . S
C1988 C1992 1.350 . S
C1989 C1992 1.463 . S
C1989 C1994 1.350 . S
C1989 N1997 1.427 . S
C1990 H1981 0.930 1_655 S
C1990 C1988 1.378 . S
C1990 C1991 1.367 1_655 S
C1991 C1990 1.367 1_455 S
C1991 C1993 1.433 1_455 S
C1992 C1988 1.350 . S
C1992 C1989 1.463 . S
C1992 N1996 1.427 . S
C1993 H1983 0.929 . S
C1993 C1991 1.433 1_655 S
C1993 N1996 1.384 . S
C1994 H1985 0.929 . S
C1994 C1986 1.378 . S
C1994 C1989 1.350 . S
C1995 H1982 0.929 . S
C1995 C1987 1.433 . S
C1995 N1997 1.384 . S
N1996 C1992 1.427 . S
N1996 C1993 1.384 . S
N1997 C1989 1.427 . S
N1997 C1995 1.384 . S
H1998 C2004 0.930 . S
H1999 C2008 0.930 . S
H2000 C2013 0.929 . S
H2001 C2011 0.929 . S
H2002 C2006 0.929 . S
H2003 C2012 0.929 . S
C2004 H1998 0.930 . S
C2004 C2005 1.367 . S
C2004 C2012 1.378 . S
C2005 C2004 1.367 . S
C2005 C2013 1.433 . S
C2006 H2002 0.929 . S
C2006 C2008 1.378 . S
C2006 C2010 1.350 . S
C2007 C2010 1.463 . S
C2007 C2012 1.350 . S
C2007 N2015 1.427 . S
C2008 H1999 0.930 . S
C2008 C2006 1.378 . S
C2008 C2009 1.367 . S
C2009 C2008 1.367 . S
C2009 C2011 1.433 . S
C2010 C2006 1.350 . S
C2010 C2007 1.463 . S
C2010 N2014 1.427 . S
C2011 H2001 0.929 . S
C2011 C2009 1.433 . S
C2011 N2014 1.384 . S
C2012 H2003 0.929 . S
C2012 C2004 1.378 . S
C2012 C2007 1.350 . S
C2013 H2000 0.929 . S
C2013 C2005 1.433 . S
C2013 N2015 1.384 . S
N2014 C2010 1.427 . S
N2014 C2011 1.384 . S
N2015 C2007 1.427 . S
N2015 C2013 1.384 . S
H2016 C2022 0.930 . S
H2017 C2026 0.930 . S
H2018 C2031 0.929 . S
H2019 C2029 0.929 . S
H2020 C2024 0.929 . S
H2021 C2030 0.929 . S
C2022 H2016 0.930 . S
C2022 C2023 1.367 . S
C2022 C2030 1.378 . S
C2023 C2022 1.367 . S
C2023 C2031 1.433 . S
C2024 H2020 0.929 . S
C2024 C2026 1.378 . S
C2024 C2028 1.350 . S
C2025 C2028 1.463 . S
C2025 C2030 1.350 . S
C2025 N2033 1.427 . S
C2026 H2017 0.930 . S
C2026 C2024 1.378 . S
C2026 C2027 1.367 . S
C2027 C2026 1.367 . S
C2027 C2029 1.433 . S
C2028 C2024 1.350 . S
C2028 C2025 1.463 . S
C2028 N2032 1.427 . S
C2029 H2019 0.929 . S
C2029 C2027 1.433 . S
C2029 N2032 1.384 . S
C2030 H2021 0.929 . S
C2030 C2022 1.378 . S
C2030 C2025 1.350 . S
C2031 H2018 0.929 . S
C2031 C2023 1.433 . S
C2031 N2033 1.384 . S
N2032 C2028 1.427 . S
N2032 C2029 1.384 . S
N2033 C2025 1.427 . S
N2033 C2031 1.384 . S
H2034 C2040 0.930 . S
H2035 C2044 0.930 . S
H2036 C2049 0.929 . S
H2037 C2047 0.929 . S
H2038 C2042 0.929 . S
H2039 C2048 0.929 . S
C2040 H2034 0.930 . S
C2040 C2041 1.367 . S
C2040 C2048 1.378 . S
C2041 C2040 1.367 . S
C2041 C2049 1.433 . S
C2042 H2038 0.929 . S
C2042 C2044 1.378 . S
C2042 C2046 1.350 . S
C2043 C2046 1.463 . S
C2043 C2048 1.350 . S
C2043 N2051 1.427 . S
C2044 H2035 0.930 . S
C2044 C2042 1.378 . S
C2044 C2045 1.367 . S
C2045 C2044 1.367 . S
C2045 C2047 1.433 . S
C2046 C2042 1.350 . S
C2046 C2043 1.463 . S
C2046 N2050 1.427 . S
C2047 H2037 0.929 . S
C2047 C2045 1.433 . S
C2047 N2050 1.384 . S
C2048 H2039 0.929 . S
C2048 C2040 1.378 . S
C2048 C2043 1.350 . S
C2049 H2036 0.929 . S
C2049 C2041 1.433 . S
C2049 N2051 1.384 . S
N2050 C2046 1.427 . S
N2050 C2047 1.384 . S
N2051 C2043 1.427 . S
N2051 C2049 1.384 . S
H2052 C2058 0.930 . S
H2053 C2062 0.930 . S
H2054 C2067 0.929 . S
H2055 C2065 0.929 . S
H2056 C2060 0.929 . S
H2057 C2066 0.929 . S
C2058 H2052 0.930 . S
C2058 C2059 1.367 . S
C2058 C2066 1.378 . S
C2059 C2058 1.367 . S
C2059 C2067 1.433 . S
C2060 H2056 0.929 . S
C2060 C2062 1.378 . S
C2060 C2064 1.350 . S
C2061 C2064 1.463 . S
C2061 C2066 1.350 . S
C2061 N2069 1.427 . S
C2062 H2053 0.930 . S
C2062 C2060 1.378 . S
C2062 C2063 1.367 . S
C2063 C2062 1.367 . S
C2063 C2065 1.433 . S
C2064 C2060 1.350 . S
C2064 C2061 1.463 . S
C2064 N2068 1.427 . S
C2065 H2055 0.929 . S
C2065 C2063 1.433 . S
C2065 N2068 1.384 . S
C2066 H2057 0.929 . S
C2066 C2058 1.378 . S
C2066 C2061 1.350 . S
C2067 H2054 0.929 . S
C2067 C2059 1.433 . S
C2067 N2069 1.384 . S
N2068 C2064 1.427 . S
N2068 C2065 1.384 . S
N2069 C2061 1.427 . S
N2069 C2067 1.384 . S
H2070 C2076 0.930 . S
H2071 C2080 0.930 . S
H2072 C2085 0.929 . S
H2073 C2083 0.929 . S
H2074 C2078 0.929 . S
H2075 C2084 0.929 . S
C2076 H2070 0.930 . S
C2076 C2077 1.367 . S
C2076 C2084 1.378 . S
C2077 C2076 1.367 . S
C2077 C2085 1.433 . S
C2078 H2074 0.929 . S
C2078 C2080 1.378 . S
C2078 C2082 1.350 . S
C2079 C2082 1.463 . S
C2079 C2084 1.350 . S
C2079 N2087 1.427 . S
C2080 H2071 0.930 . S
C2080 C2078 1.378 . S
C2080 C2081 1.367 . S
C2081 C2080 1.367 . S
C2081 C2083 1.433 . S
C2082 C2078 1.350 . S
C2082 C2079 1.463 . S
C2082 N2086 1.427 . S
C2083 H2073 0.929 . S
C2083 C2081 1.433 . S
C2083 N2086 1.384 . S
C2084 H2075 0.929 . S
C2084 C2076 1.378 . S
C2084 C2079 1.350 . S
C2085 H2072 0.929 . S
C2085 C2077 1.433 . S
C2085 N2087 1.384 . S
N2086 C2082 1.427 . S
N2086 C2083 1.384 . S
N2087 C2079 1.427 . S
N2087 C2085 1.384 . S
H2088 C2094 0.930 . S
H2089 C2098 0.930 . S
H2090 C2103 0.929 . S
H2091 C2101 0.929 . S
H2092 C2096 0.929 . S
H2093 C2102 0.929 . S
C2094 H2088 0.930 . S
C2094 C2095 1.367 . S
C2094 C2102 1.378 . S
C2095 C2094 1.367 . S
C2095 C2103 1.433 . S
C2096 H2092 0.929 . S
C2096 C2098 1.378 . S
C2096 C2100 1.350 . S
C2097 C2100 1.463 . S
C2097 C2102 1.350 . S
C2097 N2105 1.427 . S
C2098 H2089 0.930 . S
C2098 C2096 1.378 . S
C2098 C2099 1.367 . S
C2099 C2098 1.367 . S
C2099 C2101 1.433 . S
C2100 C2096 1.350 . S
C2100 C2097 1.463 . S
C2100 N2104 1.427 . S
C2101 H2091 0.929 . S
C2101 C2099 1.433 . S
C2101 N2104 1.384 . S
C2102 H2093 0.929 . S
C2102 C2094 1.378 . S
C2102 C2097 1.350 . S
C2103 H2090 0.929 . S
C2103 C2095 1.433 . S
C2103 N2105 1.384 . S
N2104 C2100 1.427 . S
N2104 C2101 1.384 . S
N2105 C2097 1.427 . S
N2105 C2103 1.384 . S
H2106 C2112 0.930 . S
H2107 C2116 0.930 . S
H2108 C2121 0.929 . S
H2109 C2119 0.929 . S
H2110 C2114 0.929 . S
H2111 C2120 0.929 . S
C2112 H2106 0.930 . S
C2112 C2113 1.367 . S
C2112 C2120 1.378 . S
C2113 C2112 1.367 . S
C2113 C2121 1.433 . S
C2114 H2110 0.929 . S
C2114 C2116 1.378 . S
C2114 C2118 1.350 . S
C2115 C2118 1.463 . S
C2115 C2120 1.350 . S
C2115 N2123 1.427 . S
C2116 H2107 0.930 . S
C2116 C2114 1.378 . S
C2116 C2117 1.367 . S
C2117 C2116 1.367 . S
C2117 C2119 1.433 . S
C2118 C2114 1.350 . S
C2118 C2115 1.463 . S
C2118 N2122 1.427 . S
C2119 H2109 0.929 . S
C2119 C2117 1.433 . S
C2119 N2122 1.384 . S
C2120 H2111 0.929 . S
C2120 C2112 1.378 . S
C2120 C2115 1.350 . S
C2121 H2108 0.929 . S
C2121 C2113 1.433 . S
C2121 N2123 1.384 . S
N2122 C2118 1.427 . S
N2122 C2119 1.384 . S
N2123 C2115 1.427 . S
N2123 C2121 1.384 . S
H2124 C2130 0.930 . S
H2125 C2134 0.930 . S
H2126 C2139 0.929 . S
H2127 C2137 0.929 . S
H2128 C2132 0.929 . S
H2129 C2138 0.929 . S
C2130 H2124 0.930 . S
C2130 C2131 1.367 . S
C2130 C2138 1.378 . S
C2131 C2130 1.367 . S
C2131 C2139 1.433 . S
C2132 H2128 0.929 . S
C2132 C2134 1.378 1_545 S
C2132 C2136 1.350 . S
C2133 C2136 1.463 . S
C2133 C2138 1.350 . S
C2133 N2141 1.427 . S
C2134 H2125 0.930 . S
C2134 C2132 1.378 1_565 S
C2134 C2135 1.367 . S
C2135 C2134 1.367 . S
C2135 C2137 1.433 . S
C2136 C2132 1.350 . S
C2136 C2133 1.463 . S
C2136 N2140 1.427 . S
C2137 H2127 0.929 . S
C2137 C2135 1.433 . S
C2137 N2140 1.384 1_565 S
C2138 H2129 0.929 . S
C2138 C2130 1.378 . S
C2138 C2133 1.350 . S
C2139 H2126 0.929 . S
C2139 C2131 1.433 . S
C2139 N2141 1.384 . S
N2140 C2136 1.427 . S
N2140 C2137 1.384 1_545 S
N2141 C2133 1.427 . S
N2141 C2139 1.384 . S
H2142 C2148 0.930 . S
H2143 C2152 0.930 . S
H2144 C2157 0.929 . S
H2145 C2155 0.929 . S
H2146 C2150 0.935 . S
H2147 C2156 0.929 . S
C2148 H2142 0.930 . S
C2148 C2149 1.367 . S
C2148 C2156 1.378 . S
C2149 C2148 1.367 . S
C2149 C2157 1.433 . S
C2150 H2146 0.935 . S
C2150 C2152 1.378 . S
C2150 C2154 1.350 . S
C2151 C2154 1.463 1_655 S
C2151 C2156 1.350 . S
C2151 N2159 1.427 . S
C2152 H2143 0.930 . S
C2152 C2150 1.378 . S
C2152 C2153 1.367 . S
C2153 C2152 1.367 . S
C2153 C2155 1.433 . S
C2154 C2150 1.350 . S
C2154 C2151 1.463 1_455 S
C2154 N2158 1.427 . S
C2155 H2145 0.929 . S
C2155 C2153 1.433 . S
C2155 N2158 1.384 . S
C2156 H2147 0.929 . S
C2156 C2148 1.378 . S
C2156 C2151 1.350 . S
C2157 H2144 0.929 . S
C2157 C2149 1.433 . S
C2157 N2159 1.384 . S
N2158 C2154 1.427 . S
N2158 C2155 1.384 . S
N2159 C2151 1.427 . S
N2159 C2157 1.384 . S
H2160 C2166 0.930 . S
H2161 C2170 0.930 . S
H2162 C2175 0.929 . S
H2163 C2173 0.929 . S
H2164 C2168 0.929 . S
H2165 C2174 0.929 . S
C2166 H2160 0.930 . S
C2166 C2167 1.367 . S
C2166 C2174 1.378 . S
C2167 C2166 1.367 . S
C2167 C2175 1.433 . S
C2168 H2164 0.929 . S
C2168 C2170 1.378 . S
C2168 C2172 1.350 . S
C2169 C2172 1.463 . S
C2169 C2174 1.350 . S
C2169 N2177 1.427 . S
C2170 H2161 0.930 . S
C2170 C2168 1.378 . S
C2170 C2171 1.367 . S
C2171 C2170 1.367 . S
C2171 C2173 1.433 . S
C2172 C2168 1.350 . S
C2172 C2169 1.463 . S
C2172 N2176 1.427 . S
C2173 H2163 0.929 . S
C2173 C2171 1.433 . S
C2173 N2176 1.384 . S
C2174 H2165 0.929 . S
C2174 C2166 1.378 . S
C2174 C2169 1.350 . S
C2175 H2162 0.929 . S
C2175 C2167 1.433 . S
C2175 N2177 1.384 . S
N2176 C2172 1.427 . S
N2176 C2173 1.384 . S
N2177 C2169 1.427 . S
N2177 C2175 1.384 . S
H2178 C2184 0.930 . S
H2179 C2188 0.930 . S
H2180 C2193 0.929 . S
H2181 C2191 0.929 . S
H2182 C2186 0.929 . S
H2183 C2192 0.929 . S
C2184 H2178 0.930 . S
C2184 C2185 1.367 . S
C2184 C2192 1.378 . S
C2185 C2184 1.367 . S
C2185 C2193 1.433 . S
C2186 H2182 0.929 . S
C2186 C2188 1.378 . S
C2186 C2190 1.350 . S
C2187 C2190 1.463 . S
C2187 C2192 1.350 . S
C2187 N2195 1.427 . S
C2188 H2179 0.930 . S
C2188 C2186 1.378 . S
C2188 C2189 1.367 . S
C2189 C2188 1.367 . S
C2189 C2191 1.433 . S
C2190 C2186 1.350 . S
C2190 C2187 1.463 . S
C2190 N2194 1.427 . S
C2191 H2181 0.929 . S
C2191 C2189 1.433 . S
C2191 N2194 1.384 . S
C2192 H2183 0.929 . S
C2192 C2184 1.378 . S
C2192 C2187 1.350 . S
C2193 H2180 0.929 . S
C2193 C2185 1.433 . S
C2193 N2195 1.384 . S
N2194 C2190 1.427 . S
N2194 C2191 1.384 . S
N2195 C2187 1.427 . S
N2195 C2193 1.384 . S
H2196 C2202 0.930 . S
H2197 C2206 0.930 . S
H2198 C2211 0.929 . S
H2199 C2209 0.929 . S
H2200 C2204 0.929 . S
H2201 C2210 0.929 . S
C2202 H2196 0.930 . S
C2202 C2203 1.367 . S
C2202 C2210 1.378 . S
C2203 C2202 1.367 . S
C2203 C2211 1.433 . S
C2204 H2200 0.929 . S
C2204 C2206 1.378 . S
C2204 C2208 1.350 . S
C2205 C2208 1.463 . S
C2205 C2210 1.350 . S
C2205 N2213 1.427 . S
C2206 H2197 0.930 . S
C2206 C2204 1.378 . S
C2206 C2207 1.367 . S
C2207 C2206 1.367 . S
C2207 C2209 1.433 . S
C2208 C2204 1.350 . S
C2208 C2205 1.463 . S
C2208 N2212 1.427 . S
C2209 H2199 0.929 . S
C2209 C2207 1.433 . S
C2209 N2212 1.384 . S
C2210 H2201 0.929 . S
C2210 C2202 1.378 . S
C2210 C2205 1.350 . S
C2211 H2198 0.929 . S
C2211 C2203 1.433 . S
C2211 N2213 1.384 . S
N2212 C2208 1.427 . S
N2212 C2209 1.384 . S
N2213 C2205 1.427 . S
N2213 C2211 1.384 . S
H2214 C2220 0.930 . S
H2215 C2224 0.930 . S
H2216 C2229 0.929 . S
H2217 C2227 0.929 . S
H2218 C2222 0.929 . S
H2219 C2228 0.929 . S
C2220 H2214 0.930 . S
C2220 C2221 1.367 . S
C2220 C2228 1.378 . S
C2221 C2220 1.367 . S
C2221 C2229 1.433 . S
C2222 H2218 0.929 . S
C2222 C2224 1.378 . S
C2222 C2226 1.350 . S
C2223 C2226 1.463 . S
C2223 C2228 1.350 . S
C2223 N2231 1.427 . S
C2224 H2215 0.930 . S
C2224 C2222 1.378 . S
C2224 C2225 1.367 . S
C2225 C2224 1.367 . S
C2225 C2227 1.433 . S
C2226 C2222 1.350 . S
C2226 C2223 1.463 . S
C2226 N2230 1.427 . S
C2227 H2217 0.929 . S
C2227 C2225 1.433 . S
C2227 N2230 1.384 . S
C2228 H2219 0.929 . S
C2228 C2220 1.378 . S
C2228 C2223 1.350 . S
C2229 H2216 0.929 . S
C2229 C2221 1.433 . S
C2229 N2231 1.384 . S
N2230 C2226 1.427 . S
N2230 C2227 1.384 . S
N2231 C2223 1.427 . S
N2231 C2229 1.384 . S
H2232 C2238 0.930 . S
H2233 C2242 0.930 . S
H2234 C2247 0.929 . S
H2235 C2245 0.929 . S
H2236 C2240 0.929 . S
H2237 C2246 0.929 . S
C2238 H2232 0.930 . S
C2238 C2239 1.367 . S
C2238 C2246 1.378 . S
C2239 C2238 1.367 . S
C2239 C2247 1.433 . S
C2240 H2236 0.929 . S
C2240 C2242 1.378 . S
C2240 C2244 1.350 . S
C2241 C2244 1.463 1_545 S
C2241 C2246 1.350 . S
C2241 N2249 1.427 . S
C2242 H2233 0.930 . S
C2242 C2240 1.378 . S
C2242 C2243 1.367 . S
C2243 C2242 1.367 . S
C2243 C2245 1.433 . S
C2244 C2240 1.350 . S
C2244 C2241 1.463 1_565 S
C2244 N2248 1.427 . S
C2245 H2235 0.929 . S
C2245 C2243 1.433 . S
C2245 N2248 1.384 . S
C2246 H2237 0.929 . S
C2246 C2238 1.378 . S
C2246 C2241 1.350 . S
C2247 H2234 0.929 . S
C2247 C2239 1.433 . S
C2247 N2249 1.384 . S
N2248 C2244 1.427 . S
N2248 C2245 1.384 . S
N2249 C2241 1.427 . S
N2249 C2247 1.384 . S
H2250 C2256 0.930 . S
H2251 C2260 0.930 . S
H2252 C2265 0.929 . S
H2253 C2263 0.929 . S
H2254 C2258 0.929 . S
H2255 C2264 0.929 . S
C2256 H2250 0.930 . S
C2256 C2257 1.367 . S
C2256 C2264 1.378 . S
C2257 C2256 1.367 . S
C2257 C2265 1.433 . S
C2258 H2254 0.929 . S
C2258 C2260 1.378 1_455 S
C2258 C2262 1.350 . S
C2259 C2262 1.463 . S
C2259 C2264 1.350 . S
C2259 N2267 1.427 . S
C2260 H2251 0.930 . S
C2260 C2258 1.378 1_655 S
C2260 C2261 1.367 . S
C2261 C2260 1.367 . S
C2261 C2263 1.433 . S
C2262 C2258 1.350 . S
C2262 C2259 1.463 . S
C2262 N2266 1.427 . S
C2263 H2253 0.929 . S
C2263 C2261 1.433 . S
C2263 N2266 1.384 1_655 S
C2264 H2255 0.929 . S
C2264 C2256 1.378 . S
C2264 C2259 1.350 . S
C2265 H2252 0.929 . S
C2265 C2257 1.433 . S
C2265 N2267 1.384 . S
N2266 C2262 1.427 . S
N2266 C2263 1.384 1_455 S
N2267 C2259 1.427 . S
N2267 C2265 1.384 . S
H2268 C2274 0.930 . S
H2269 C2278 0.930 . S
H2270 C2283 0.929 . S
H2271 C2281 0.929 . S
H2272 C2276 0.929 . S
H2273 C2282 0.929 . S
C2274 H2268 0.930 . S
C2274 C2275 1.367 . S
C2274 C2282 1.378 . S
C2275 C2274 1.367 . S
C2275 C2283 1.433 . S
C2276 H2272 0.929 . S
C2276 C2278 1.378 1_565 S
C2276 C2280 1.350 . S
C2277 C2280 1.463 . S
C2277 C2282 1.350 . S
C2277 N2285 1.427 . S
C2278 H2269 0.930 . S
C2278 C2276 1.378 1_545 S
C2278 C2279 1.367 . S
C2279 C2278 1.367 . S
C2279 C2281 1.433 . S
C2280 C2276 1.350 . S
C2280 C2277 1.463 . S
C2280 N2284 1.427 1_565 S
C2281 H2271 0.929 . S
C2281 C2279 1.433 . S
C2281 N2284 1.384 . S
C2282 H2273 0.929 . S
C2282 C2274 1.378 . S
C2282 C2277 1.350 . S
C2283 H2270 0.929 . S
C2283 C2275 1.433 . S
C2283 N2285 1.384 . S
N2284 C2280 1.427 1_545 S
N2284 C2281 1.384 . S
N2285 C2277 1.427 . S
N2285 C2283 1.384 . S
H2286 C2292 0.930 1_545 S
H2287 C2296 0.930 . S
H2288 C2301 0.929 . S
H2289 C2299 0.929 1_655 S
H2290 C2294 0.929 . S
H2291 C2300 0.929 . S
C2292 H2286 0.930 1_565 S
C2292 C2293 1.367 1_565 S
C2292 C2300 1.378 . S
C2293 C2292 1.367 1_545 S
C2293 C2301 1.433 1_545 S
C2294 H2290 0.929 . S
C2294 C2296 1.378 . S
C2294 C2298 1.350 . S
C2295 C2298 1.463 . S
C2295 C2300 1.350 . S
C2295 N2303 1.427 . S
C2296 H2287 0.930 . S
C2296 C2294 1.378 . S
C2296 C2297 1.367 1_455 S
C2297 C2296 1.367 1_655 S
C2297 C2299 1.433 1_655 S
C2298 C2294 1.350 . S
C2298 C2295 1.463 . S
C2298 N2302 1.427 . S
C2299 H2289 0.929 1_455 S
C2299 C2297 1.433 1_455 S
C2299 N2302 1.384 . S
C2300 H2291 0.929 . S
C2300 C2292 1.378 . S
C2300 C2295 1.350 . S
C2301 H2288 0.929 . S
C2301 C2293 1.433 1_565 S
C2301 N2303 1.384 . S
N2302 C2298 1.427 . S
N2302 C2299 1.384 . S
N2303 C2295 1.427 . S
N2303 C2301 1.384 . S
H2304 C2310 0.930 . S
H2305 C2314 0.930 . S
H2306 C2319 0.929 . S
H2307 C2317 0.929 . S
H2308 C2312 0.929 . S
H2309 C2318 0.929 . S
C2310 H2304 0.930 . S
C2310 C2311 1.367 . S
C2310 C2318 1.378 . S
C2311 C2310 1.367 . S
C2311 C2319 1.433 . S
C2312 H2308 0.929 . S
C2312 C2314 1.378 . S
C2312 C2316 1.350 . S
C2313 C2316 1.463 . S
C2313 C2318 1.350 . S
C2313 N2321 1.427 . S
C2314 H2305 0.930 . S
C2314 C2312 1.378 . S
C2314 C2315 1.367 . S
C2315 C2314 1.367 . S
C2315 C2317 1.433 . S
C2316 C2312 1.350 . S
C2316 C2313 1.463 . S
C2316 N2320 1.427 . S
C2317 H2307 0.929 . S
C2317 C2315 1.433 . S
C2317 N2320 1.384 . S
C2318 H2309 0.929 . S
C2318 C2310 1.378 . S
C2318 C2313 1.350 . S
C2319 H2306 0.929 . S
C2319 C2311 1.433 . S
C2319 N2321 1.384 . S
N2320 C2316 1.427 . S
N2320 C2317 1.384 . S
N2321 C2313 1.427 . S
N2321 C2319 1.384 . S
H2322 C2328 0.930 . S
H2323 C2332 0.930 . S
H2324 C2337 0.929 . S
H2325 C2335 0.929 . S
H2326 C2330 0.929 . S
H2327 C2336 0.929 . S
C2328 H2322 0.930 . S
C2328 C2329 1.367 . S
C2328 C2336 1.378 . S
C2329 C2328 1.367 . S
C2329 C2337 1.433 . S
C2330 H2326 0.929 . S
C2330 C2332 1.378 . S
C2330 C2334 1.350 . S
C2331 C2334 1.463 . S
C2331 C2336 1.350 . S
C2331 N2339 1.427 . S
C2332 H2323 0.930 . S
C2332 C2330 1.378 . S
C2332 C2333 1.367 . S
C2333 C2332 1.367 . S
C2333 C2335 1.433 . S
C2334 C2330 1.350 . S
C2334 C2331 1.463 . S
C2334 N2338 1.427 . S
C2335 H2325 0.929 . S
C2335 C2333 1.433 . S
C2335 N2338 1.384 . S
C2336 H2327 0.929 . S
C2336 C2328 1.378 . S
C2336 C2331 1.350 . S
C2337 H2324 0.929 . S
C2337 C2329 1.433 . S
C2337 N2339 1.384 . S
N2338 C2334 1.427 . S
N2338 C2335 1.384 . S
N2339 C2331 1.427 . S
N2339 C2337 1.384 . S
H2340 C2346 0.930 . S
H2341 C2350 0.930 . S
H2342 C2355 0.929 . S
H2343 C2353 0.929 . S
H2344 C2348 0.929 . S
H2345 C2354 0.929 . S
C2346 H2340 0.930 . S
C2346 C2347 1.367 . S
C2346 C2354 1.378 . S
C2347 C2346 1.367 . S
C2347 C2355 1.433 . S
C2348 H2344 0.929 . S
C2348 C2350 1.378 . S
C2348 C2352 1.350 . S
C2349 C2352 1.463 . S
C2349 C2354 1.350 . S
C2349 N2357 1.427 . S
C2350 H2341 0.930 . S
C2350 C2348 1.378 . S
C2350 C2351 1.367 . S
C2351 C2350 1.367 . S
C2351 C2353 1.433 . S
C2352 C2348 1.350 . S
C2352 C2349 1.463 . S
C2352 N2356 1.427 . S
C2353 H2343 0.929 . S
C2353 C2351 1.433 . S
C2353 N2356 1.384 . S
C2354 H2345 0.929 . S
C2354 C2346 1.378 . S
C2354 C2349 1.350 . S
C2355 H2342 0.929 . S
C2355 C2347 1.433 . S
C2355 N2357 1.384 . S
N2356 C2352 1.427 . S
N2356 C2353 1.384 . S
N2357 C2349 1.427 . S
N2357 C2355 1.384 . S
H2358 C2364 0.930 . S
H2359 C2368 0.930 . S
H2360 C2373 0.929 . S
H2361 C2371 0.929 . S
H2362 C2366 0.929 . S
H2363 C2372 0.929 . S
C2364 H2358 0.930 . S
C2364 C2365 1.367 . S
C2364 C2372 1.378 . S
C2365 C2364 1.367 . S
C2365 C2373 1.433 . S
C2366 H2362 0.929 . S
C2366 C2368 1.378 . S
C2366 C2370 1.350 . S
C2367 C2370 1.463 . S
C2367 C2372 1.350 . S
C2367 N2375 1.427 . S
C2368 H2359 0.930 . S
C2368 C2366 1.378 . S
C2368 C2369 1.367 . S
C2369 C2368 1.367 . S
C2369 C2371 1.433 . S
C2370 C2366 1.350 . S
C2370 C2367 1.463 . S
C2370 N2374 1.427 . S
C2371 H2361 0.929 . S
C2371 C2369 1.433 . S
C2371 N2374 1.384 . S
C2372 H2363 0.929 . S
C2372 C2364 1.378 . S
C2372 C2367 1.350 . S
C2373 H2360 0.929 . S
C2373 C2365 1.433 . S
C2373 N2375 1.384 . S
N2374 C2370 1.427 . S
N2374 C2371 1.384 . S
N2375 C2367 1.427 . S
N2375 C2373 1.384 . S
H2376 C2382 0.930 . S
H2377 C2386 0.930 . S
H2378 C2391 0.929 . S
H2379 C2389 0.929 . S
H2380 C2384 0.929 . S
H2381 C2390 0.929 . S
C2382 H2376 0.930 . S
C2382 C2383 1.367 . S
C2382 C2390 1.378 . S
C2383 C2382 1.367 . S
C2383 C2391 1.433 . S
C2384 H2380 0.929 . S
C2384 C2386 1.378 . S
C2384 C2388 1.350 . S
C2385 C2388 1.463 . S
C2385 C2390 1.350 . S
C2385 N2393 1.427 . S
C2386 H2377 0.930 . S
C2386 C2384 1.378 . S
C2386 C2387 1.367 . S
C2387 C2386 1.367 . S
C2387 C2389 1.433 . S
C2388 C2384 1.350 . S
C2388 C2385 1.463 . S
C2388 N2392 1.427 . S
C2389 H2379 0.929 . S
C2389 C2387 1.433 . S
C2389 N2392 1.384 . S
C2390 H2381 0.929 . S
C2390 C2382 1.378 . S
C2390 C2385 1.350 . S
C2391 H2378 0.929 . S
C2391 C2383 1.433 . S
C2391 N2393 1.384 . S
N2392 C2388 1.427 . S
N2392 C2389 1.384 . S
N2393 C2385 1.427 . S
N2393 C2391 1.384 . S
H2394 C2400 0.930 . S
H2395 C2404 0.930 . S
H2396 C2409 0.929 . S
H2397 C2407 0.929 . S
H2398 C2402 0.929 . S
H2399 C2408 0.929 . S
C2400 H2394 0.930 . S
C2400 C2401 1.367 . S
C2400 C2408 1.378 . S
C2401 C2400 1.367 . S
C2401 C2409 1.433 . S
C2402 H2398 0.929 . S
C2402 C2404 1.378 . S
C2402 C2406 1.350 . S
C2403 C2406 1.463 . S
C2403 C2408 1.350 . S
C2403 N2411 1.427 . S
C2404 H2395 0.930 . S
C2404 C2402 1.378 . S
C2404 C2405 1.367 . S
C2405 C2404 1.367 . S
C2405 C2407 1.433 . S
C2406 C2402 1.350 . S
C2406 C2403 1.463 . S
C2406 N2410 1.427 . S
C2407 H2397 0.929 . S
C2407 C2405 1.433 . S
C2407 N2410 1.384 . S
C2408 H2399 0.929 . S
C2408 C2400 1.378 . S
C2408 C2403 1.350 . S
C2409 H2396 0.929 . S
C2409 C2401 1.433 . S
C2409 N2411 1.384 . S
N2410 C2406 1.427 . S
N2410 C2407 1.384 . S
N2411 C2403 1.427 . S
N2411 C2409 1.384 . S
H2412 C2418 0.930 . S
H2413 C2422 0.930 . S
H2414 C2427 0.929 . S
H2415 C2425 0.929 . S
H2416 C2420 0.929 . S
H2417 C2426 0.929 . S
C2418 H2412 0.930 . S
C2418 C2419 1.367 . S
C2418 C2426 1.378 . S
C2419 C2418 1.367 . S
C2419 C2427 1.433 . S
C2420 H2416 0.929 . S
C2420 C2422 1.378 . S
C2420 C2424 1.350 . S
C2421 C2424 1.463 . S
C2421 C2426 1.350 . S
C2421 N2429 1.427 . S
C2422 H2413 0.930 . S
C2422 C2420 1.378 . S
C2422 C2423 1.367 . S
C2423 C2422 1.367 . S
C2423 C2425 1.433 . S
C2424 C2420 1.350 . S
C2424 C2421 1.463 . S
C2424 N2428 1.427 . S
C2425 H2415 0.929 . S
C2425 C2423 1.433 . S
C2425 N2428 1.384 . S
C2426 H2417 0.929 . S
C2426 C2418 1.378 . S
C2426 C2421 1.350 . S
C2427 H2414 0.929 . S
C2427 C2419 1.433 . S
C2427 N2429 1.384 . S
N2428 C2424 1.427 . S
N2428 C2425 1.384 . S
N2429 C2421 1.427 . S
N2429 C2427 1.384 . S
H2430 C2436 0.930 . S
H2431 C2440 0.930 . S
H2432 C2445 0.929 . S
H2433 C2443 0.929 . S
H2434 C2438 0.929 . S
H2435 C2444 0.929 . S
C2436 H2430 0.930 . S
C2436 C2437 1.367 . S
C2436 C2444 1.378 . S
C2437 C2436 1.367 . S
C2437 C2445 1.433 . S
C2438 H2434 0.929 . S
C2438 C2440 1.378 . S
C2438 C2442 1.350 . S
C2439 C2442 1.463 . S
C2439 C2444 1.350 . S
C2439 N2447 1.427 . S
C2440 H2431 0.930 . S
C2440 C2438 1.378 . S
C2440 C2441 1.367 . S
C2441 C2440 1.367 . S
C2441 C2443 1.433 . S
C2442 C2438 1.350 . S
C2442 C2439 1.463 . S
C2442 N2446 1.427 . S
C2443 H2433 0.929 . S
C2443 C2441 1.433 . S
C2443 N2446 1.384 . S
C2444 H2435 0.929 . S
C2444 C2436 1.378 . S
C2444 C2439 1.350 . S
C2445 H2432 0.929 . S
C2445 C2437 1.433 . S
C2445 N2447 1.384 . S
N2446 C2442 1.427 . S
N2446 C2443 1.384 . S
N2447 C2439 1.427 . S
N2447 C2445 1.384 . S
H2448 C2454 0.930 . S
H2449 C2458 0.930 . S
H2450 C2463 0.929 . S
H2451 C2461 0.929 . S
H2452 C2456 0.929 . S
H2453 C2462 0.929 . S
C2454 H2448 0.930 . S
C2454 C2455 1.367 . S
C2454 C2462 1.378 . S
C2455 C2454 1.367 . S
C2455 C2463 1.433 . S
C2456 H2452 0.929 . S
C2456 C2458 1.378 . S
C2456 C2460 1.350 . S
C2457 C2460 1.463 . S
C2457 C2462 1.350 . S
C2457 N2465 1.427 . S
C2458 H2449 0.930 . S
C2458 C2456 1.378 . S
C2458 C2459 1.367 . S
C2459 C2458 1.367 . S
C2459 C2461 1.433 . S
C2460 C2456 1.350 . S
C2460 C2457 1.463 . S
C2460 N2464 1.427 . S
C2461 H2451 0.929 . S
C2461 C2459 1.433 . S
C2461 N2464 1.384 . S
C2462 H2453 0.929 . S
C2462 C2454 1.378 . S
C2462 C2457 1.350 . S
C2463 H2450 0.929 . S
C2463 C2455 1.433 . S
C2463 N2465 1.384 . S
N2464 C2460 1.427 . S
N2464 C2461 1.384 . S
N2465 C2457 1.427 . S
N2465 C2463 1.384 . S
H2466 C2472 0.930 . S
H2467 C2476 0.930 . S
H2468 C2481 0.929 . S
H2469 C2479 0.929 . S
H2470 C2474 0.929 . S
H2471 C2480 0.929 . S
C2472 H2466 0.930 . S
C2472 C2473 1.367 . S
C2472 C2480 1.378 . S
C2473 C2472 1.367 . S
C2473 C2481 1.433 . S
C2474 H2470 0.929 . S
C2474 C2476 1.378 . S
C2474 C2478 1.350 . S
C2475 C2478 1.463 . S
C2475 C2480 1.350 . S
C2475 N2483 1.427 . S
C2476 H2467 0.930 . S
C2476 C2474 1.378 . S
C2476 C2477 1.367 . S
C2477 C2476 1.367 . S
C2477 C2479 1.433 . S
C2478 C2474 1.350 . S
C2478 C2475 1.463 . S
C2478 N2482 1.427 . S
C2479 H2469 0.929 . S
C2479 C2477 1.433 . S
C2479 N2482 1.384 . S
C2480 H2471 0.929 . S
C2480 C2472 1.378 . S
C2480 C2475 1.350 . S
C2481 H2468 0.929 . S
C2481 C2473 1.433 . S
C2481 N2483 1.384 . S
N2482 C2478 1.427 . S
N2482 C2479 1.384 . S
N2483 C2475 1.427 . S
N2483 C2481 1.384 . S
H2484 C2490 0.930 . S
H2485 C2494 0.930 . S
H2486 C2499 0.929 . S
H2487 C2497 0.929 . S
H2488 C2492 0.929 . S
H2489 C2498 0.929 . S
C2490 H2484 0.930 . S
C2490 C2491 1.367 . S
C2490 C2498 1.378 . S
C2491 C2490 1.367 . S
C2491 C2499 1.433 . S
C2492 H2488 0.929 . S
C2492 C2494 1.378 . S
C2492 C2496 1.350 . S
C2493 C2496 1.463 . S
C2493 C2498 1.350 . S
C2493 N2501 1.427 . S
C2494 H2485 0.930 . S
C2494 C2492 1.378 . S
C2494 C2495 1.367 . S
C2495 C2494 1.367 . S
C2495 C2497 1.433 . S
C2496 C2492 1.350 . S
C2496 C2493 1.463 . S
C2496 N2500 1.427 . S
C2497 H2487 0.929 . S
C2497 C2495 1.433 . S
C2497 N2500 1.384 . S
C2498 H2489 0.929 . S
C2498 C2490 1.378 . S
C2498 C2493 1.350 . S
C2499 H2486 0.929 . S
C2499 C2491 1.433 . S
C2499 N2501 1.384 . S
N2500 C2496 1.427 . S
N2500 C2497 1.384 . S
N2501 C2493 1.427 . S
N2501 C2499 1.384 . S
H2502 C2508 0.930 . S
H2503 C2512 0.930 . S
H2504 C2517 0.929 . S
H2505 C2515 0.929 . S
H2506 C2510 0.929 . S
H2507 C2516 0.929 . S
C2508 H2502 0.930 . S
C2508 C2509 1.367 . S
C2508 C2516 1.378 . S
C2509 C2508 1.367 . S
C2509 C2517 1.433 . S
C2510 H2506 0.929 . S
C2510 C2512 1.378 . S
C2510 C2514 1.350 . S
C2511 C2514 1.463 . S
C2511 C2516 1.350 . S
C2511 N2519 1.427 . S
C2512 H2503 0.930 . S
C2512 C2510 1.378 . S
C2512 C2513 1.367 . S
C2513 C2512 1.367 . S
C2513 C2515 1.433 . S
C2514 C2510 1.350 . S
C2514 C2511 1.463 . S
C2514 N2518 1.427 . S
C2515 H2505 0.929 . S
C2515 C2513 1.433 . S
C2515 N2518 1.384 . S
C2516 H2507 0.929 . S
C2516 C2508 1.378 . S
C2516 C2511 1.350 . S
C2517 H2504 0.929 . S
C2517 C2509 1.433 . S
C2517 N2519 1.384 . S
N2518 C2514 1.427 . S
N2518 C2515 1.384 . S
N2519 C2511 1.427 . S
N2519 C2517 1.384 . S
H2520 C2526 0.930 . S
H2521 C2530 0.930 . S
H2522 C2535 0.929 . S
H2523 C2533 0.929 . S
H2524 C2528 0.929 . S
H2525 C2534 0.929 . S
C2526 H2520 0.930 . S
C2526 C2527 1.367 . S
C2526 C2534 1.378 . S
C2527 C2526 1.367 . S
C2527 C2535 1.433 . S
C2528 H2524 0.929 . S
C2528 C2530 1.378 . S
C2528 C2532 1.350 . S
C2529 C2532 1.463 . S
C2529 C2534 1.350 . S
C2529 N2537 1.427 . S
C2530 H2521 0.930 . S
C2530 C2528 1.378 . S
C2530 C2531 1.367 . S
C2531 C2530 1.367 . S
C2531 C2533 1.433 . S
C2532 C2528 1.350 . S
C2532 C2529 1.463 . S
C2532 N2536 1.427 . S
C2533 H2523 0.929 . S
C2533 C2531 1.433 . S
C2533 N2536 1.384 . S
C2534 H2525 0.929 . S
C2534 C2526 1.378 . S
C2534 C2529 1.350 . S
C2535 H2522 0.929 . S
C2535 C2527 1.433 . S
C2535 N2537 1.384 . S
N2536 C2532 1.427 . S
N2536 C2533 1.384 . S
N2537 C2529 1.427 . S
N2537 C2535 1.384 . S
H2538 C2544 0.930 . S
H2539 C2548 0.930 . S
H2540 C2553 0.929 . S
H2541 C2551 0.929 . S
H2542 C2546 0.929 . S
H2543 C2552 0.929 . S
C2544 H2538 0.930 . S
C2544 C2545 1.367 . S
C2544 C2552 1.378 . S
C2545 C2544 1.367 . S
C2545 C2553 1.433 . S
C2546 H2542 0.929 . S
C2546 C2548 1.378 . S
C2546 C2550 1.350 . S
C2547 C2550 1.463 . S
C2547 C2552 1.350 . S
C2547 N2555 1.427 . S
C2548 H2539 0.930 . S
C2548 C2546 1.378 . S
C2548 C2549 1.367 . S
C2549 C2548 1.367 . S
C2549 C2551 1.433 . S
C2550 C2546 1.350 . S
C2550 C2547 1.463 . S
C2550 N2554 1.427 . S
C2551 H2541 0.929 . S
C2551 C2549 1.433 . S
C2551 N2554 1.384 . S
C2552 H2543 0.929 . S
C2552 C2544 1.378 . S
C2552 C2547 1.350 . S
C2553 H2540 0.929 . S
C2553 C2545 1.433 . S
C2553 N2555 1.384 . S
N2554 C2550 1.427 . S
N2554 C2551 1.384 . S
N2555 C2547 1.427 . S
N2555 C2553 1.384 . S
H2556 C2562 0.930 . S
H2557 C2566 0.930 . S
H2558 C2571 0.929 . S
H2559 C2569 0.929 . S
H2560 C2564 0.929 . S
H2561 C2570 0.929 . S
C2562 H2556 0.930 . S
C2562 C2563 1.367 . S
C2562 C2570 1.378 . S
C2563 C2562 1.367 . S
C2563 C2571 1.433 . S
C2564 H2560 0.929 . S
C2564 C2566 1.378 . S
C2564 C2568 1.350 . S
C2565 C2568 1.463 . S
C2565 C2570 1.350 . S
C2565 N2573 1.427 . S
C2566 H2557 0.930 . S
C2566 C2564 1.378 . S
C2566 C2567 1.367 . S
C2567 C2566 1.367 . S
C2567 C2569 1.433 . S
C2568 C2564 1.350 . S
C2568 C2565 1.463 . S
C2568 N2572 1.427 . S
C2569 H2559 0.929 . S
C2569 C2567 1.433 . S
C2569 N2572 1.384 . S
C2570 H2561 0.929 . S
C2570 C2562 1.378 . S
C2570 C2565 1.350 . S
C2571 H2558 0.929 . S
C2571 C2563 1.433 . S
C2571 N2573 1.384 . S
N2572 C2568 1.427 . S
N2572 C2569 1.384 . S
N2573 C2565 1.427 . S
N2573 C2571 1.384 . S
H2574 C2580 0.930 . S
H2575 C2584 0.930 . S
H2576 C2589 0.929 . S
H2577 C2587 0.929 . S
H2578 C2582 0.929 . S
H2579 C2588 0.929 . S
C2580 H2574 0.930 . S
C2580 C2581 1.367 . S
C2580 C2588 1.378 . S
C2581 C2580 1.367 . S
C2581 C2589 1.433 . S
C2582 H2578 0.929 . S
C2582 C2584 1.378 . S
C2582 C2586 1.350 . S
C2583 C2586 1.463 . S
C2583 C2588 1.350 . S
C2583 N2591 1.427 . S
C2584 H2575 0.930 . S
C2584 C2582 1.378 . S
C2584 C2585 1.367 . S
C2585 C2584 1.367 . S
C2585 C2587 1.433 . S
C2586 C2582 1.350 . S
C2586 C2583 1.463 . S
C2586 N2590 1.427 . S
C2587 H2577 0.929 . S
C2587 C2585 1.433 . S
C2587 N2590 1.384 . S
C2588 H2579 0.929 . S
C2588 C2580 1.378 . S
C2588 C2583 1.350 . S
C2589 H2576 0.929 . S
C2589 C2581 1.433 . S
C2589 N2591 1.384 . S
N2590 C2586 1.427 . S
N2590 C2587 1.384 . S
N2591 C2583 1.427 . S
N2591 C2589 1.384 . S
H2592 C2598 0.930 . S
H2593 C2602 0.930 . S
H2594 C2607 0.929 . S
H2595 C2605 0.929 . S
H2596 C2600 0.929 . S
H2597 C2606 0.929 . S
C2598 H2592 0.930 . S
C2598 C2599 1.367 . S
C2598 C2606 1.378 . S
C2599 C2598 1.367 . S
C2599 C2607 1.433 . S
C2600 H2596 0.929 . S
C2600 C2602 1.378 . S
C2600 C2604 1.350 . S
C2601 C2604 1.463 . S
C2601 C2606 1.350 . S
C2601 N2609 1.427 . S
C2602 H2593 0.930 . S
C2602 C2600 1.378 . S
C2602 C2603 1.367 . S
C2603 C2602 1.367 . S
C2603 C2605 1.433 . S
C2604 C2600 1.350 . S
C2604 C2601 1.463 . S
C2604 N2608 1.427 . S
C2605 H2595 0.929 . S
C2605 C2603 1.433 . S
C2605 N2608 1.384 . S
C2606 H2597 0.929 . S
C2606 C2598 1.378 . S
C2606 C2601 1.350 . S
C2607 H2594 0.929 . S
C2607 C2599 1.433 . S
C2607 N2609 1.384 . S
N2608 C2604 1.427 . S
N2608 C2605 1.384 . S
N2609 C2601 1.427 . S
N2609 C2607 1.384 . S
H2610 C2616 0.930 . S
H2611 C2620 0.930 . S
H2612 C2625 0.929 . S
H2613 C2623 0.929 . S
H2614 C2618 0.929 . S
H2615 C2624 0.929 . S
C2616 H2610 0.930 . S
C2616 C2617 1.367 . S
C2616 C2624 1.378 . S
C2617 C2616 1.367 . S
C2617 C2625 1.433 . S
C2618 H2614 0.929 . S
C2618 C2620 1.378 . S
C2618 C2622 1.350 . S
C2619 C2622 1.463 . S
C2619 C2624 1.350 . S
C2619 N2627 1.427 . S
C2620 H2611 0.930 . S
C2620 C2618 1.378 . S
C2620 C2621 1.367 . S
C2621 C2620 1.367 . S
C2621 C2623 1.433 . S
C2622 C2618 1.350 . S
C2622 C2619 1.463 . S
C2622 N2626 1.427 . S
C2623 H2613 0.929 . S
C2623 C2621 1.433 . S
C2623 N2626 1.384 . S
C2624 H2615 0.929 . S
C2624 C2616 1.378 . S
C2624 C2619 1.350 . S
C2625 H2612 0.929 . S
C2625 C2617 1.433 . S
C2625 N2627 1.384 . S
N2626 C2622 1.427 . S
N2626 C2623 1.384 . S
N2627 C2619 1.427 . S
N2627 C2625 1.384 . S
H2628 C2634 0.930 . S
H2629 C2638 0.930 . S
H2630 C2643 0.929 . S
H2631 C2641 0.929 . S
H2632 C2636 0.929 . S
H2633 C2642 0.929 . S
C2634 H2628 0.930 . S
C2634 C2635 1.367 . S
C2634 C2642 1.378 . S
C2635 C2634 1.367 . S
C2635 C2643 1.433 . S
C2636 H2632 0.929 . S
C2636 C2638 1.378 . S
C2636 C2640 1.350 . S
C2637 C2640 1.463 . S
C2637 C2642 1.350 . S
C2637 N2645 1.427 . S
C2638 H2629 0.930 . S
C2638 C2636 1.378 . S
C2638 C2639 1.367 . S
C2639 C2638 1.367 . S
C2639 C2641 1.433 . S
C2640 C2636 1.350 . S
C2640 C2637 1.463 . S
C2640 N2644 1.427 . S
C2641 H2631 0.929 . S
C2641 C2639 1.433 . S
C2641 N2644 1.384 . S
C2642 H2633 0.929 . S
C2642 C2634 1.378 . S
C2642 C2637 1.350 . S
C2643 H2630 0.929 . S
C2643 C2635 1.433 . S
C2643 N2645 1.384 . S
N2644 C2640 1.427 . S
N2644 C2641 1.384 . S
N2645 C2637 1.427 . S
N2645 C2643 1.384 . S
H2646 C2652 0.930 . S
H2647 C2656 0.930 . S
H2648 C2661 0.929 1_455 S
H2649 C2659 0.929 . S
H2650 C2654 0.929 . S
H2651 C2660 0.929 . S
C2652 H2646 0.930 . S
C2652 C2653 1.367 1_655 S
C2652 C2660 1.378 . S
C2653 C2652 1.367 1_455 S
C2653 C2661 1.433 1_455 S
C2654 H2650 0.929 . S
C2654 C2656 1.378 . S
C2654 C2658 1.350 . S
C2655 C2658 1.463 . S
C2655 C2660 1.350 . S
C2655 N2663 1.427 . S
C2656 H2647 0.930 . S
C2656 C2654 1.378 . S
C2656 C2657 1.367 . S
C2657 C2656 1.367 . S
C2657 C2659 1.433 . S
C2658 C2654 1.350 . S
C2658 C2655 1.463 . S
C2658 N2662 1.427 . S
C2659 H2649 0.929 . S
C2659 C2657 1.433 . S
C2659 N2662 1.384 . S
C2660 H2651 0.929 . S
C2660 C2652 1.378 . S
C2660 C2655 1.350 . S
C2661 H2648 0.929 1_655 S
C2661 C2653 1.433 1_655 S
C2661 N2663 1.384 . S
N2662 C2658 1.427 . S
N2662 C2659 1.384 . S
N2663 C2655 1.427 . S
N2663 C2661 1.384 . S
H2664 C2670 0.930 . S
H2665 C2674 0.930 . S
H2666 C2679 0.929 1_565 S
H2667 C2677 0.929 . S
H2668 C2672 0.929 . S
H2669 C2678 0.929 . S
C2670 H2664 0.930 . S
C2670 C2671 1.367 1_545 S
C2670 C2678 1.378 . S
C2671 C2670 1.367 1_565 S
C2671 C2679 1.433 1_565 S
C2672 H2668 0.929 . S
C2672 C2674 1.378 . S
C2672 C2676 1.350 . S
C2673 C2676 1.463 . S
C2673 C2678 1.350 . S
C2673 N2681 1.427 . S
C2674 H2665 0.930 . S
C2674 C2672 1.378 . S
C2674 C2675 1.367 . S
C2675 C2674 1.367 . S
C2675 C2677 1.433 . S
C2676 C2672 1.350 . S
C2676 C2673 1.463 . S
C2676 N2680 1.427 . S
C2677 H2667 0.929 . S
C2677 C2675 1.433 . S
C2677 N2680 1.384 . S
C2678 H2669 0.929 . S
C2678 C2670 1.378 . S
C2678 C2673 1.350 . S
C2679 H2666 0.929 1_545 S
C2679 C2671 1.433 1_545 S
C2679 N2681 1.384 . S
N2680 C2676 1.427 . S
N2680 C2677 1.384 . S
N2681 C2673 1.427 . S
N2681 C2679 1.384 . S
H2682 C2688 0.930 . S
H2683 C2692 0.930 . S
H2684 C2697 0.929 . S
H2685 C2695 0.929 . S
H2686 C2690 0.929 . S
H2687 C2696 0.929 . S
C2688 H2682 0.930 . S
C2688 C2689 1.367 . S
C2688 C2696 1.378 . S
C2689 C2688 1.367 . S
C2689 C2697 1.433 . S
C2690 H2686 0.929 . S
C2690 C2692 1.378 . S
C2690 C2694 1.350 . S
C2691 C2694 1.463 . S
C2691 C2696 1.350 1_655 S
C2691 N2699 1.427 . S
C2692 H2683 0.930 . S
C2692 C2690 1.378 . S
C2692 C2693 1.367 . S
C2693 C2692 1.367 . S
C2693 C2695 1.433 . S
C2694 C2690 1.350 . S
C2694 C2691 1.463 . S
C2694 N2698 1.427 . S
C2695 H2685 0.929 . S
C2695 C2693 1.433 . S
C2695 N2698 1.384 . S
C2696 H2687 0.929 . S
C2696 C2688 1.378 . S
C2696 C2691 1.350 1_455 S
C2697 H2684 0.929 . S
C2697 C2689 1.433 . S
C2697 N2699 1.384 1_455 S
N2698 C2694 1.427 . S
N2698 C2695 1.384 . S
N2699 C2691 1.427 . S
N2699 C2697 1.384 1_655 S
H2700 C2706 0.930 . S
H2701 C2710 0.930 . S
H2702 C2715 0.929 . S
H2703 C2713 0.929 . S
H2704 C2708 0.929 . S
H2705 C2714 0.929 . S
C2706 H2700 0.930 . S
C2706 C2707 1.367 . S
C2706 C2714 1.378 1_565 S
C2707 C2706 1.367 . S
C2707 C2715 1.433 . S
C2708 H2704 0.929 . S
C2708 C2710 1.378 . S
C2708 C2712 1.350 . S
C2709 C2712 1.463 . S
C2709 C2714 1.350 . S
C2709 N2717 1.427 . S
C2710 H2701 0.930 . S
C2710 C2708 1.378 . S
C2710 C2711 1.367 . S
C2711 C2710 1.367 . S
C2711 C2713 1.433 . S
C2712 C2708 1.350 . S
C2712 C2709 1.463 . S
C2712 N2716 1.427 . S
C2713 H2703 0.929 . S
C2713 C2711 1.433 . S
C2713 N2716 1.384 . S
C2714 H2705 0.929 . S
C2714 C2706 1.378 1_545 S
C2714 C2709 1.350 . S
C2715 H2702 0.929 . S
C2715 C2707 1.433 . S
C2715 N2717 1.384 1_565 S
N2716 C2712 1.427 . S
N2716 C2713 1.384 . S
N2717 C2709 1.427 . S
N2717 C2715 1.384 1_545 S
H2718 C2724 0.930 . S
H2719 C2728 0.930 . S
H2720 C2733 0.929 . S
H2721 C2731 0.929 . S
H2722 C2726 0.929 . S
H2723 C2732 0.929 . S
C2724 H2718 0.930 . S
C2724 C2725 1.367 . S
C2724 C2732 1.378 . S
C2725 C2724 1.367 . S
C2725 C2733 1.433 . S
C2726 H2722 0.929 . S
C2726 C2728 1.378 . S
C2726 C2730 1.350 . S
C2727 C2730 1.463 1_455 S
C2727 C2732 1.350 . S
C2727 N2735 1.427 . S
C2728 H2719 0.930 . S
C2728 C2726 1.378 . S
C2728 C2729 1.367 . S
C2729 C2728 1.367 . S
C2729 C2731 1.433 . S
C2730 C2726 1.350 . S
C2730 C2727 1.463 1_655 S
C2730 N2734 1.427 . S
C2731 H2721 0.929 . S
C2731 C2729 1.433 . S
C2731 N2734 1.384 . S
C2732 H2723 0.929 . S
C2732 C2724 1.378 . S
C2732 C2727 1.350 . S
C2733 H2720 0.929 . S
C2733 C2725 1.433 . S
C2733 N2735 1.384 . S
N2734 C2730 1.427 . S
N2734 C2731 1.384 . S
N2735 C2727 1.427 . S
N2735 C2733 1.384 . S
H2736 C2742 0.930 . S
H2737 C2746 0.930 . S
H2738 C2751 0.929 . S
H2739 C2749 0.929 . S
H2740 C2744 0.929 . S
H2741 C2750 0.929 . S
C2742 H2736 0.930 . S
C2742 C2743 1.367 . S
C2742 C2750 1.378 . S
C2743 C2742 1.367 . S
C2743 C2751 1.433 . S
C2744 H2740 0.929 . S
C2744 C2746 1.378 . S
C2744 C2748 1.350 . S
C2745 C2748 1.463 . S
C2745 C2750 1.350 . S
C2745 N2753 1.427 . S
C2746 H2737 0.930 . S
C2746 C2744 1.378 . S
C2746 C2747 1.367 . S
C2747 C2746 1.367 . S
C2747 C2749 1.433 . S
C2748 C2744 1.350 . S
C2748 C2745 1.463 . S
C2748 N2752 1.427 . S
C2749 H2739 0.929 . S
C2749 C2747 1.433 . S
C2749 N2752 1.384 . S
C2750 H2741 0.929 . S
C2750 C2742 1.378 . S
C2750 C2745 1.350 . S
C2751 H2738 0.929 . S
C2751 C2743 1.433 . S
C2751 N2753 1.384 . S
N2752 C2748 1.427 . S
N2752 C2749 1.384 . S
N2753 C2745 1.427 . S
N2753 C2751 1.384 . S
H2754 C2760 0.930 . S
H2755 C2764 0.930 . S
H2756 C2769 0.929 . S
H2757 C2767 0.929 . S
H2758 C2762 0.929 . S
H2759 C2768 0.929 . S
C2760 H2754 0.930 . S
C2760 C2761 1.367 . S
C2760 C2768 1.378 . S
C2761 C2760 1.367 . S
C2761 C2769 1.433 . S
C2762 H2758 0.929 . S
C2762 C2764 1.378 . S
C2762 C2766 1.350 . S
C2763 C2766 1.463 . S
C2763 C2768 1.350 . S
C2763 N2771 1.427 . S
C2764 H2755 0.930 . S
C2764 C2762 1.378 . S
C2764 C2765 1.367 . S
C2765 C2764 1.367 . S
C2765 C2767 1.433 . S
C2766 C2762 1.350 . S
C2766 C2763 1.463 . S
C2766 N2770 1.427 . S
C2767 H2757 0.929 . S
C2767 C2765 1.433 . S
C2767 N2770 1.384 . S
C2768 H2759 0.929 . S
C2768 C2760 1.378 . S
C2768 C2763 1.350 . S
C2769 H2756 0.929 . S
C2769 C2761 1.433 . S
C2769 N2771 1.384 . S
N2770 C2766 1.427 . S
N2770 C2767 1.384 . S
N2771 C2763 1.427 . S
N2771 C2769 1.384 . S
H2772 C2778 0.930 . S
H2773 C2782 0.930 . S
H2774 C2787 0.929 . S
H2775 C2785 0.929 . S
H2776 C2780 0.929 . S
H2777 C2786 0.929 . S
C2778 H2772 0.930 . S
C2778 C2779 1.367 . S
C2778 C2786 1.378 . S
C2779 C2778 1.367 . S
C2779 C2787 1.433 . S
C2780 H2776 0.929 . S
C2780 C2782 1.378 . S
C2780 C2784 1.350 . S
C2781 C2784 1.463 . S
C2781 C2786 1.350 . S
C2781 N2789 1.427 . S
C2782 H2773 0.930 . S
C2782 C2780 1.378 . S
C2782 C2783 1.367 . S
C2783 C2782 1.367 . S
C2783 C2785 1.433 . S
C2784 C2780 1.350 . S
C2784 C2781 1.463 . S
C2784 N2788 1.427 . S
C2785 H2775 0.929 . S
C2785 C2783 1.433 . S
C2785 N2788 1.384 . S
C2786 H2777 0.929 . S
C2786 C2778 1.378 . S
C2786 C2781 1.350 . S
C2787 H2774 0.929 . S
C2787 C2779 1.433 . S
C2787 N2789 1.384 . S
N2788 C2784 1.427 . S
N2788 C2785 1.384 . S
N2789 C2781 1.427 . S
N2789 C2787 1.384 . S
H2790 C2796 0.930 . S
H2791 C2800 0.930 . S
H2792 C2805 0.929 . S
H2793 C2803 0.929 . S
H2794 C2798 0.929 . S
H2795 C2804 0.929 . S
C2796 H2790 0.930 . S
C2796 C2797 1.367 . S
C2796 C2804 1.378 . S
C2797 C2796 1.367 . S
C2797 C2805 1.433 . S
C2798 H2794 0.929 . S
C2798 C2800 1.378 . S
C2798 C2802 1.350 . S
C2799 C2802 1.463 . S
C2799 C2804 1.350 . S
C2799 N2807 1.427 . S
C2800 H2791 0.930 . S
C2800 C2798 1.378 . S
C2800 C2801 1.367 . S
C2801 C2800 1.367 . S
C2801 C2803 1.433 . S
C2802 C2798 1.350 . S
C2802 C2799 1.463 . S
C2802 N2806 1.427 . S
C2803 H2793 0.929 . S
C2803 C2801 1.433 . S
C2803 N2806 1.384 . S
C2804 H2795 0.929 . S
C2804 C2796 1.378 . S
C2804 C2799 1.350 . S
C2805 H2792 0.929 . S
C2805 C2797 1.433 . S
C2805 N2807 1.384 . S
N2806 C2802 1.427 . S
N2806 C2803 1.384 . S
N2807 C2799 1.427 . S
N2807 C2805 1.384 . S
H2808 C2814 0.930 . S
H2809 C2818 0.930 . S
H2810 C2823 0.929 . S
H2811 C2821 0.929 . S
H2812 C2816 0.929 . S
H2813 C2822 0.929 . S
C2814 H2808 0.930 . S
C2814 C2815 1.367 . S
C2814 C2822 1.378 . S
C2815 C2814 1.367 . S
C2815 C2823 1.433 . S
C2816 H2812 0.929 . S
C2816 C2818 1.378 . S
C2816 C2820 1.350 . S
C2817 C2820 1.463 1_565 S
C2817 C2822 1.350 . S
C2817 N2825 1.427 . S
C2818 H2809 0.930 . S
C2818 C2816 1.378 . S
C2818 C2819 1.367 . S
C2819 C2818 1.367 . S
C2819 C2821 1.433 . S
C2820 C2816 1.350 . S
C2820 C2817 1.463 1_545 S
C2820 N2824 1.427 . S
C2821 H2811 0.929 . S
C2821 C2819 1.433 . S
C2821 N2824 1.384 . S
C2822 H2813 0.929 . S
C2822 C2814 1.378 . S
C2822 C2817 1.350 . S
C2823 H2810 0.929 . S
C2823 C2815 1.433 . S
C2823 N2825 1.384 . S
N2824 C2820 1.427 . S
N2824 C2821 1.384 . S
N2825 C2817 1.427 . S
N2825 C2823 1.384 . S
H2826 C2832 0.930 . S
H2827 C2836 0.930 . S
H2828 C2841 0.929 . S
H2829 C2839 0.929 . S
H2830 C2834 0.929 . S
H2831 C2840 0.929 . S
C2832 H2826 0.930 . S
C2832 C2833 1.367 . S
C2832 C2840 1.378 1_655 S
C2833 C2832 1.367 . S
C2833 C2841 1.433 . S
C2834 H2830 0.929 . S
C2834 C2836 1.378 . S
C2834 C2838 1.350 . S
C2835 C2838 1.463 . S
C2835 C2840 1.350 . S
C2835 N2843 1.427 . S
C2836 H2827 0.930 . S
C2836 C2834 1.378 . S
C2836 C2837 1.367 . S
C2837 C2836 1.367 . S
C2837 C2839 1.433 . S
C2838 C2834 1.350 . S
C2838 C2835 1.463 . S
C2838 N2842 1.427 . S
C2839 H2829 0.929 . S
C2839 C2837 1.433 . S
C2839 N2842 1.384 . S
C2840 H2831 0.929 . S
C2840 C2832 1.378 1_455 S
C2840 C2835 1.350 . S
C2841 H2828 0.929 . S
C2841 C2833 1.433 . S
C2841 N2843 1.384 1_655 S
N2842 C2838 1.427 . S
N2842 C2839 1.384 . S
N2843 C2835 1.427 . S
N2843 C2841 1.384 1_455 S
H2844 C2850 0.930 . S
H2845 C2854 0.930 . S
H2846 C2859 0.929 . S
H2847 C2857 0.929 . S
H2848 C2852 0.929 . S
H2849 C2858 0.929 . S
C2850 H2844 0.930 . S
C2850 C2851 1.367 . S
C2850 C2858 1.378 . S
C2851 C2850 1.367 . S
C2851 C2859 1.433 . S
C2852 H2848 0.929 . S
C2852 C2854 1.378 . S
C2852 C2856 1.350 . S
C2853 C2856 1.463 . S
C2853 C2858 1.350 . S
C2853 N2861 1.427 . S
C2854 H2845 0.930 . S
C2854 C2852 1.378 . S
C2854 C2855 1.367 . S
C2855 C2854 1.367 . S
C2855 C2857 1.433 . S
C2856 C2852 1.350 . S
C2856 C2853 1.463 . S
C2856 N2860 1.427 . S
C2857 H2847 0.929 . S
C2857 C2855 1.433 . S
C2857 N2860 1.384 . S
C2858 H2849 0.929 . S
C2858 C2850 1.378 . S
C2858 C2853 1.350 . S
C2859 H2846 0.929 . S
C2859 C2851 1.433 . S
C2859 N2861 1.384 . S
N2860 C2856 1.427 . S
N2860 C2857 1.384 . S
N2861 C2853 1.427 . S
N2861 C2859 1.384 . S
H2862 C2868 0.930 . S
H2863 C2872 0.930 . S
H2864 C2877 0.929 . S
H2865 C2875 0.929 . S
H2866 C2870 0.929 . S
H2867 C2876 0.929 . S
C2868 H2862 0.930 . S
C2868 C2869 1.367 . S
C2868 C2876 1.378 . S
C2869 C2868 1.367 . S
C2869 C2877 1.433 . S
C2870 H2866 0.929 . S
C2870 C2872 1.378 . S
C2870 C2874 1.350 . S
C2871 C2874 1.463 . S
C2871 C2876 1.350 . S
C2871 N2879 1.427 . S
C2872 H2863 0.930 . S
C2872 C2870 1.378 . S
C2872 C2873 1.367 . S
C2873 C2872 1.367 . S
C2873 C2875 1.433 . S
C2874 C2870 1.350 . S
C2874 C2871 1.463 . S
C2874 N2878 1.427 . S
C2875 H2865 0.929 . S
C2875 C2873 1.433 . S
C2875 N2878 1.384 . S
C2876 H2867 0.929 . S
C2876 C2868 1.378 . S
C2876 C2871 1.350 . S
C2877 H2864 0.929 . S
C2877 C2869 1.433 . S
C2877 N2879 1.384 . S
N2878 C2874 1.427 . S
N2878 C2875 1.384 . S
N2879 C2871 1.427 . S
N2879 C2877 1.384 . S
H2880 C2886 0.930 . S
H2881 C2890 0.930 . S
H2882 C2895 0.929 . S
H2883 C2893 0.929 . S
H2884 C2888 0.929 . S
H2885 C2894 0.929 . S
C2886 H2880 0.930 . S
C2886 C2887 1.367 . S
C2886 C2894 1.378 . S
C2887 C2886 1.367 . S
C2887 C2895 1.433 . S
C2888 H2884 0.929 . S
C2888 C2890 1.378 . S
C2888 C2892 1.350 . S
C2889 C2892 1.463 . S
C2889 C2894 1.350 . S
C2889 N2897 1.427 . S
C2890 H2881 0.930 . S
C2890 C2888 1.378 . S
C2890 C2891 1.367 . S
C2891 C2890 1.367 . S
C2891 C2893 1.433 . S
C2892 C2888 1.350 . S
C2892 C2889 1.463 . S
C2892 N2896 1.427 . S
C2893 H2883 0.929 . S
C2893 C2891 1.433 . S
C2893 N2896 1.384 . S
C2894 H2885 0.929 . S
C2894 C2886 1.378 . S
C2894 C2889 1.350 . S
C2895 H2882 0.929 . S
C2895 C2887 1.433 . S
C2895 N2897 1.384 . S
N2896 C2892 1.427 . S
N2896 C2893 1.384 . S
N2897 C2889 1.427 . S
N2897 C2895 1.384 . S
H2898 C2904 0.930 . S
H2899 C2908 0.930 . S
H2900 C2913 0.929 . S
H2901 C2911 0.929 . S
H2902 C2906 0.929 . S
H2903 C2912 0.929 . S
C2904 H2898 0.930 . S
C2904 C2905 1.367 . S
C2904 C2912 1.378 . S
C2905 C2904 1.367 . S
C2905 C2913 1.433 . S
C2906 H2902 0.929 . S
C2906 C2908 1.378 . S
C2906 C2910 1.350 . S
C2907 C2910 1.463 . S
C2907 C2912 1.350 . S
C2907 N2915 1.427 . S
C2908 H2899 0.930 . S
C2908 C2906 1.378 . S
C2908 C2909 1.367 . S
C2909 C2908 1.367 . S
C2909 C2911 1.433 . S
C2910 C2906 1.350 . S
C2910 C2907 1.463 . S
C2910 N2914 1.427 . S
C2911 H2901 0.929 . S
C2911 C2909 1.433 . S
C2911 N2914 1.384 . S
C2912 H2903 0.929 . S
C2912 C2904 1.378 . S
C2912 C2907 1.350 . S
C2913 H2900 0.929 . S
C2913 C2905 1.433 . S
C2913 N2915 1.384 . S
N2914 C2910 1.427 . S
N2914 C2911 1.384 . S
N2915 C2907 1.427 . S
N2915 C2913 1.384 . S
H2916 C2922 0.930 . S
H2917 C2926 0.930 . S
H2918 C2931 0.929 . S
H2919 C2929 0.929 . S
H2920 C2924 0.929 . S
H2921 C2930 0.929 . S
C2922 H2916 0.930 . S
C2922 C2923 1.367 . S
C2922 C2930 1.378 . S
C2923 C2922 1.367 . S
C2923 C2931 1.433 . S
C2924 H2920 0.929 . S
C2924 C2926 1.378 . S
C2924 C2928 1.350 . S
C2925 C2928 1.463 . S
C2925 C2930 1.350 . S
C2925 N2933 1.427 . S
C2926 H2917 0.930 . S
C2926 C2924 1.378 . S
C2926 C2927 1.367 . S
C2927 C2926 1.367 . S
C2927 C2929 1.433 . S
C2928 C2924 1.350 . S
C2928 C2925 1.463 . S
C2928 N2932 1.427 . S
C2929 H2919 0.929 . S
C2929 C2927 1.433 . S
C2929 N2932 1.384 . S
C2930 H2921 0.929 . S
C2930 C2922 1.378 . S
C2930 C2925 1.350 . S
C2931 H2918 0.929 . S
C2931 C2923 1.433 . S
C2931 N2933 1.384 . S
N2932 C2928 1.427 . S
N2932 C2929 1.384 . S
N2933 C2925 1.427 . S
N2933 C2931 1.384 . S
H2934 C2940 0.930 . S
H2935 C2944 0.930 . S
H2936 C2949 0.929 . S
H2937 C2947 0.929 . S
H2938 C2942 0.929 . S
H2939 C2948 0.929 . S
C2940 H2934 0.930 . S
C2940 C2941 1.367 . S
C2940 C2948 1.378 . S
C2941 C2940 1.367 . S
C2941 C2949 1.433 . S
C2942 H2938 0.929 . S
C2942 C2944 1.378 . S
C2942 C2946 1.350 . S
C2943 C2946 1.463 . S
C2943 C2948 1.350 . S
C2943 N2951 1.427 . S
C2944 H2935 0.930 . S
C2944 C2942 1.378 . S
C2944 C2945 1.367 . S
C2945 C2944 1.367 . S
C2945 C2947 1.433 . S
C2946 C2942 1.350 . S
C2946 C2943 1.463 . S
C2946 N2950 1.427 . S
C2947 H2937 0.929 . S
C2947 C2945 1.433 . S
C2947 N2950 1.384 . S
C2948 H2939 0.929 . S
C2948 C2940 1.378 . S
C2948 C2943 1.350 . S
C2949 H2936 0.929 . S
C2949 C2941 1.433 . S
C2949 N2951 1.384 . S
N2950 C2946 1.427 . S
N2950 C2947 1.384 . S
N2951 C2943 1.427 . S
N2951 C2949 1.384 . S
H2952 C2958 0.930 . S
H2953 C2962 0.930 . S
H2954 C2967 0.929 . S
H2955 C2965 0.929 . S
H2956 C2960 0.929 . S
H2957 C2966 0.929 . S
C2958 H2952 0.930 . S
C2958 C2959 1.367 . S
C2958 C2966 1.378 . S
C2959 C2958 1.367 . S
C2959 C2967 1.433 . S
C2960 H2956 0.929 . S
C2960 C2962 1.378 . S
C2960 C2964 1.350 . S
C2961 C2964 1.463 . S
C2961 C2966 1.350 . S
C2961 N2969 1.427 . S
C2962 H2953 0.930 . S
C2962 C2960 1.378 . S
C2962 C2963 1.367 . S
C2963 C2962 1.367 . S
C2963 C2965 1.433 . S
C2964 C2960 1.350 . S
C2964 C2961 1.463 . S
C2964 N2968 1.427 . S
C2965 H2955 0.929 . S
C2965 C2963 1.433 . S
C2965 N2968 1.384 . S
C2966 H2957 0.929 . S
C2966 C2958 1.378 . S
C2966 C2961 1.350 . S
C2967 H2954 0.929 . S
C2967 C2959 1.433 . S
C2967 N2969 1.384 . S
N2968 C2964 1.427 . S
N2968 C2965 1.384 . S
N2969 C2961 1.427 . S
N2969 C2967 1.384 . S
H2970 C2976 0.930 . S
H2971 C2980 0.930 . S
H2972 C2985 0.929 . S
H2973 C2983 0.929 . S
H2974 C2978 0.929 . S
H2975 C2984 0.929 . S
C2976 H2970 0.930 . S
C2976 C2977 1.367 . S
C2976 C2984 1.378 . S
C2977 C2976 1.367 . S
C2977 C2985 1.433 . S
C2978 H2974 0.929 . S
C2978 C2980 1.378 . S
C2978 C2982 1.350 . S
C2979 C2982 1.463 . S
C2979 C2984 1.350 . S
C2979 N2987 1.427 . S
C2980 H2971 0.930 . S
C2980 C2978 1.378 . S
C2980 C2981 1.367 . S
C2981 C2980 1.367 . S
C2981 C2983 1.433 . S
C2982 C2978 1.350 . S
C2982 C2979 1.463 . S
C2982 N2986 1.427 . S
C2983 H2973 0.929 . S
C2983 C2981 1.433 . S
C2983 N2986 1.384 . S
C2984 H2975 0.929 . S
C2984 C2976 1.378 . S
C2984 C2979 1.350 . S
C2985 H2972 0.929 . S
C2985 C2977 1.433 . S
C2985 N2987 1.384 . S
N2986 C2982 1.427 . S
N2986 C2983 1.384 . S
N2987 C2979 1.427 . S
N2987 C2985 1.384 . S
H2988 C2994 0.930 . S
H2989 C2998 0.930 . S
H2990 C3003 0.929 . S
H2991 C3001 0.929 . S
H2992 C2996 0.929 . S
H2993 C3002 0.929 . S
C2994 H2988 0.930 . S
C2994 C2995 1.367 . S
C2994 C3002 1.378 1_545 S
C2995 C2994 1.367 . S
C2995 C3003 1.433 . S
C2996 H2992 0.929 . S
C2996 C2998 1.378 . S
C2996 C3000 1.350 . S
C2997 C3000 1.463 . S
C2997 C3002 1.350 . S
C2997 N3005 1.427 1_565 S
C2998 H2989 0.930 . S
C2998 C2996 1.378 . S
C2998 C2999 1.367 . S
C2999 C2998 1.367 . S
C2999 C3001 1.433 . S
C3000 C2996 1.350 . S
C3000 C2997 1.463 . S
C3000 N3004 1.427 . S
C3001 H2991 0.929 . S
C3001 C2999 1.433 . S
C3001 N3004 1.384 . S
C3002 H2993 0.929 . S
C3002 C2994 1.378 1_565 S
C3002 C2997 1.350 . S
C3003 H2990 0.929 . S
C3003 C2995 1.433 . S
C3003 N3005 1.384 . S
N3004 C3000 1.427 . S
N3004 C3001 1.384 . S
N3005 C2997 1.427 1_545 S
N3005 C3003 1.384 . S
H3006 C3012 0.930 . S
H3007 C3016 0.930 1_545 S
H3008 C3021 0.929 1_655 S
H3009 C3019 0.929 . S
H3010 C3014 0.929 . S
H3011 C3020 0.929 . S
C3012 H3006 0.930 . S
C3012 C3013 1.367 1_455 S
C3012 C3020 1.378 . S
C3013 C3012 1.367 1_655 S
C3013 C3021 1.433 1_655 S
C3014 H3010 0.929 . S
C3014 C3016 1.378 . S
C3014 C3018 1.350 . S
C3015 C3018 1.463 . S
C3015 C3020 1.350 . S
C3015 N3023 1.427 . S
C3016 H3007 0.930 1_565 S
C3016 C3014 1.378 . S
C3016 C3017 1.367 1_565 S
C3017 C3016 1.367 1_545 S
C3017 C3019 1.433 1_545 S
C3018 C3014 1.350 . S
C3018 C3015 1.463 . S
C3018 N3022 1.427 . S
C3019 H3009 0.929 . S
C3019 C3017 1.433 1_565 S
C3019 N3022 1.384 . S
C3020 H3011 0.929 . S
C3020 C3012 1.378 . S
C3020 C3015 1.350 . S
C3021 H3008 0.929 1_455 S
C3021 C3013 1.433 1_455 S
C3021 N3023 1.384 . S
N3022 C3018 1.427 . S
N3022 C3019 1.384 . S
N3023 C3015 1.427 . S
N3023 C3021 1.384 . S
C1087 C811 1.892 . S
C1091 C10 1.828 . S
C1105 C841 1.891 . S
C1109 C40 1.824 1_655 S
C1123 C70 1.832 . S
C1127 C871 1.895 . S
C1141 C91 1.892 . S
C1145 C370 1.825 . S
C1159 C121 1.900 . S
C1163 C400 1.838 . S
C1177 C430 1.828 . S
C1181 C151 1.894 1_565 S
C1195 C181 1.830 1_565 S
C1199 C640 1.894 . S
C1213 C670 1.896 . S
C1217 C211 1.833 . S
C1231 C241 1.832 . S
C1235 C700 1.895 . S
C1249 C901 1.829 . S
C1253 C280 1.893 1_655 S
C1267 C310 1.891 . S
C1271 C931 1.824 . S
C1285 C961 1.822 . S
C1289 C340 1.889 . S
C1303 C730 1.825 . S
C1307 C451 1.892 . S
C1321 C481 1.891 . S
C1325 C760 1.824 . S
C1339 C790 1.837 . S
C1343 C511 1.899 . S
C1357 C541 1.837 . S
C1361 C1000 1.900 . S
C1375 C571 1.824 . S
C1379 C1030 1.891 . S
C1393 C1060 1.890 . S
C1397 C601 1.824 . S
C1411 C1 1.621 . S
C1415 C190 1.621 . S
C1429 C220 1.620 . S
C1433 C31 1.620 . S
C1447 C61 1.620 . S
C1451 C250 1.620 . S
C1465 C271 1.609 . S
C1469 C100 1.609 . S
C1483 C130 1.610 . S
C1487 C301 1.610 . S
C1501 C331 1.607 . S
C1505 C160 1.607 . S
C1519 C550 1.621 . S
C1523 C361 1.621 . S
C1537 C391 1.621 . S
C1541 C580 1.621 . S
C1555 C610 1.619 . S
C1559 C421 1.619 . S
C1573 C460 1.611 . S
C1577 C631 1.611 . S
C1591 C661 1.611 . S
C1595 C490 1.611 . S
C1609 C520 1.607 . S
C1613 C691 1.607 . S
C1627 C721 1.620 . S
C1631 C910 1.620 . S
C1645 C940 1.620 . S
C1649 C751 1.620 . S
C1663 C970 1.621 . S
C1667 C781 1.621 . S
C1681 C991 1.608 . S
C1685 C820 1.608 . S
C1699 C850 1.610 . S
C1703 C1021 1.610 . S
C1717 C880 1.610 . S
C1721 C1051 1.611 . S
C1735 N14 1.211 . S
C1739 C87 1.201 . S
C1753 N44 1.211 . S
C1757 C27 1.191 . S
C1771 C57 1.193 . S
C1775 N74 1.210 . S
C1789 C106 1.286 . S
C1793 N126 1.255 . S
C1807 N156 1.244 . S
C1811 C136 1.280 . S
C1825 N96 1.248 . S
C1829 C166 1.283 . S
C1843 C256 1.194 . S
C1847 N186 1.214 . S
C1861 N216 1.215 . S
C1865 C196 1.197 . S
C1879 N246 1.213 . S
C1883 C226 1.193 . S
C1897 N314 1.244 . S
C1901 C297 1.280 . S
C1915 C327 1.281 . S
C1919 N344 1.245 . S
C1933 C357 1.280 . S
C1937 N284 1.244 . S
C1951 C447 1.199 . S
C1955 N374 1.215 . S
C1969 C387 1.198 . S
C1973 N404 1.215 . S
C1987 C417 1.194 . S
C1991 N434 1.214 . S
C2005 N486 1.250 . S
C2009 C466 1.283 . S
C2023 C496 1.280 . S
C2027 N516 1.244 . S
C2041 N456 1.244 . S
C2045 C526 1.280 . S
C2059 N546 1.209 . S
C2063 C616 1.198 . S
C2077 C556 1.203 . S
C2081 N576 1.213 . S
C2095 N606 1.214 . S
C2099 C586 1.202 . S
C2113 N674 1.244 . S
C2117 C657 1.280 . S
C2131 N704 1.260 . S
C2135 C687 1.289 . S
C2149 N644 1.261 . S
C2153 C717 1.289 . S
C2167 C807 1.197 . S
C2171 N734 1.215 . S
C2185 N764 1.215 . S
C2189 C747 1.196 . S
C2203 C777 1.202 . S
C2207 N794 1.214 . S
C2221 C826 1.286 . S
C2225 N846 1.256 . S
C2239 C856 1.290 . S
C2243 N876 1.261 . S
C2257 N816 1.244 . S
C2261 C886 1.280 . S
C2275 N906 1.215 . S
C2279 C976 1.199 . S
C2293 N936 1.215 . S
C2297 C916 1.197 . S
C2311 C946 1.202 . S
C2315 N966 1.215 . S
C2329 C1017 1.285 . S
C2333 N1034 1.253 . S
C2347 N1064 1.248 . S
C2351 C1047 1.283 . S
C2365 N1004 1.261 . S
C2369 C1077 1.290 . S
C2383 C76 0.898 . S
C2387 N6 0.889 . S
C2401 N36 0.900 . S
C2405 C16 0.893 . S
C2419 C46 0.892 . S
C2423 N66 0.888 . S
C2437 N134 0.751 . S
C2441 C117 0.756 . S
C2455 C147 0.777 . S
C2459 N164 0.781 . S
C2473 C177 0.777 . S
C2477 N104 0.781 . S
C2491 C267 0.891 . S
C2495 N194 0.897 . S
C2509 N224 0.900 . S
C2513 C207 0.893 . S
C2527 C237 0.890 . S
C2531 N254 0.896 . S
C2545 N306 0.781 . S
C2549 C286 0.776 . S
C2563 N336 0.766 . S
C2567 C316 0.772 . S
C2581 N276 0.781 . S
C2585 C346 0.777 . S
C2599 N366 0.896 . S
C2603 C436 0.901 . S
C2617 N396 0.894 . S
C2621 C376 0.890 . S
C2635 N426 0.900 . S
C2639 C406 0.894 . S
C2653 N494 0.781 . S
C2657 C477 0.777 . S
C2671 C507 0.776 . S
C2675 N524 0.780 . S
C2689 C537 0.757 . S
C2693 N464 0.750 . S
C2707 C627 0.890 . S
C2711 N554 0.894 . S
C2725 C567 0.889 . S
C2729 N584 0.894 . S
C2743 N614 0.899 . S
C2747 C597 0.892 . S
C2761 N666 0.781 . S
C2765 C646 0.779 . S
C2779 C676 0.773 . S
C2783 N696 0.769 . S
C2797 C706 0.761 . S
C2801 N636 0.753 . S
C2815 N726 0.892 . S
C2819 C796 0.890 . S
C2833 C736 0.890 . S
C2837 N756 0.897 . S
C2851 C766 0.894 . S
C2855 N786 0.888 . S
C2869 N854 0.780 . S
C2873 C837 0.775 . S
C2887 C867 0.756 . S
C2891 N884 0.751 . S
C2905 C897 0.757 . S
C2909 N824 0.754 . S
C2923 C987 0.890 . S
C2927 N914 0.895 . S
C2941 C927 0.901 . S
C2945 N944 0.897 . S
C2959 N974 0.889 . S
C2963 C957 0.898 . S
C2977 N1026 0.780 . S
C2981 C1006 0.776 . S
C2995 C1036 0.778 . S
C2999 N1056 0.781 . S
C3013 C1066 0.764 . S
C3017 N996 0.756 . S
