# Generated by pormake.
# Topology snp, (6)-cn, num edge types: 1
# Building blocks:
#     Node 0, Type 0, BuildingBlock: BETGAK_clean_sbu_0, # of connection points: 6
#     Node 1, Type 0, BuildingBlock: BETGAK_clean_sbu_0, # of connection points: 6
#     Node 2, Type 0, BuildingBlock: BETGAK_clean_sbu_0, # of connection points: 6
#     Node 3, Type 0, BuildingBlock: BETGAK_clean_sbu_0, # of connection points: 6
#     Edge 4, Type (0, 0), BuildingBlock: FUNLAD_clean_linker_0, # of connection points: 2
#     Edge 5, Type (0, 0), BuildingBlock: FUNLAD_clean_linker_0, # of connection points: 2
#     Edge 6, Type (0, 0), BuildingBlock: FUNLAD_clean_linker_0, # of connection points: 2
#     Edge 7, Type (0, 0), BuildingBlock: FUNLAD_clean_linker_0, # of connection points: 2
#     Edge 8, Type (0, 0), BuildingBlock: FUNLAD_clean_linker_0, # of connection points: 2
#     Edge 9, Type (0, 0), BuildingBlock: FUNLAD_clean_linker_0, # of connection points: 2
#     Edge 10, Type (0, 0), BuildingBlock: FUNLAD_clean_linker_0, # of connection points: 2
#     Edge 11, Type (0, 0), BuildingBlock: FUNLAD_clean_linker_0, # of connection points: 2
#     Edge 12, Type (0, 0), BuildingBlock: FUNLAD_clean_linker_0, # of connection points: 2
#     Edge 13, Type (0, 0), BuildingBlock: FUNLAD_clean_linker_0, # of connection points: 2
#     Edge 14, Type (0, 0), BuildingBlock: FUNLAD_clean_linker_0, # of connection points: 2
#     Edge 15, Type (0, 0), BuildingBlock: FUNLAD_clean_linker_0, # of connection points: 2
# Relax obj value: 0.626
# Max RMSD: 0.176
# Mean RMSD: 0.176
data_MOF--net-snp--node1-BETGAK_clean_sbu_0--edge1-FUNLAD_clean_linker_0
_symmetry_space_group_name_H-M    P1
_symmetry_Int_Tables_number       1
_symmetry_cell_setting            triclinic
loop_
_symmetry_equiv_pos_as_xyz
'x, y, z'
_cell_length_a     28.874199
_cell_length_b     29.05291
_cell_length_c     31.832458
_cell_angle_alpha  89.874268
_cell_angle_beta   89.918987
_cell_angle_gamma 90.309302
loop_
_atom_site_label
_atom_site_type_symbol
_atom_site_fract_x
_atom_site_fract_y
_atom_site_fract_z
_atom_type_partial_charge
La0 La 0.27681 0.13232 0.20783 0.0
La1 La 0.2464 0.0414 1.17475 0.0
C2 C 0.28913 0.21118 0.23786 0.0
C3 C 0.27626 0.24827 0.26706 0.0
C4 C 0.23324 0.27039 0.26359 0.0
C5 C 0.22624 0.31319 0.28238 0.0
C6 C 0.26197 0.33459 0.30525 0.0
C7 C 0.30368 0.31066 0.31133 0.0
C8 C 0.31082 0.26805 0.2922 0.0
C9 C 0.34442 0.08582 1.16989 0.0
C10 C 0.2439 0.05209 0.27399 0.0
C11 C 0.24657 0.95721 1.15552 0.0
C12 C 0.27524 0.92784 1.1288 0.0
C13 C 0.30356 0.94702 1.09748 0.0
C14 C 0.33153 0.9187 1.0729 0.0
C15 C 0.33203 0.87074 1.07954 0.0
C16 C 0.30445 0.85197 1.11185 0.0
C17 C 0.27625 0.88033 1.13622 0.0
C18 C 0.17834 0.1016 0.19157 0.0
C19 C 0.25184 0.12119 1.1117 0.0
O20 O 0.31173 0.17496 0.2515 0.0
O21 O 0.25991 0.20159 0.20759 0.0
O22 O 0.33876 0.12966 1.16884 0.0
O23 O 0.31304 0.06928 0.19314 0.0
O24 O 0.26031 0.09512 0.26862 0.0
O25 O 0.2353 0.02563 0.24107 0.0
O26 O 0.22105 0.98801 1.13653 0.0
O27 O 0.26799 0.97426 0.18806 0.0
O28 O 0.17464 0.06824 1.16456 0.0
O29 O 0.21593 0.09499 0.2092 0.0
O30 O 0.26346 0.07759 1.11665 0.0
O31 O 0.24732 0.14811 1.14514 0.0
H32 H 0.20593 0.25613 0.24419 0.0
H33 H 0.1937 0.33055 0.27692 0.0
H34 H 0.33148 0.32552 0.32974 0.0
H35 H 0.3444 0.25187 0.29508 0.0
H36 H 0.30372 0.98382 1.09182 0.0
H37 H 0.35166 0.93431 1.04788 0.0
H38 H 0.30441 0.81532 1.11814 0.0
H39 H 0.25519 0.86516 1.16088 0.0
La40 La 0.01335 0.24495 0.69406 0.0
La41 La 0.10994 0.26285 0.66336 0.0
C42 C 0.93736 0.22253 0.72768 0.0
C43 C 0.89395 0.24603 0.73945 0.0
C44 C 0.85426 0.24158 0.7142 0.0
C45 C 0.81209 0.26046 0.727 0.0
C46 C 0.80869 0.28387 0.76548 0.0
C47 C 0.8489 0.28962 0.78991 0.0
C48 C 0.89096 0.27092 0.7771 0.0
C49 C 0.03051 0.33121 0.66886 0.0
C50 C 0.09657 0.24876 0.76113 0.0
C51 C 0.17674 0.3074 0.63265 0.0
C52 C 0.18117 0.34426 0.60132 0.0
C53 C 0.15242 0.34562 0.5659 0.0
C54 C 0.15496 0.38279 0.53812 0.0
C55 C 0.18584 0.41957 0.54556 0.0
C56 C 0.21402 0.4183 0.58152 0.0
C57 C 0.21172 0.38091 0.60909 0.0
C58 C 0.09814 0.17789 0.69013 0.0
C59 C 0.03172 0.22674 0.59909 0.0
O60 O 0.94589 0.2185 0.68757 0.0
O61 O 0.97463 0.23329 0.74887 0.0
O62 O 0.99106 0.31065 0.66553 0.0
O63 O 0.05672 0.30492 0.68889 0.0
O64 O 0.05295 0.23752 0.75273 0.0
O65 O 0.1252 0.26332 0.73116 0.0
O66 O 0.16427 0.26642 0.61937 0.0
O67 O 0.1545 0.31958 0.6666 0.0
O68 O 0.13823 0.19842 0.68738 0.0
O69 O 0.06851 0.20308 0.67231 0.0
O70 O 0.06994 0.25238 0.60372 0.0
O71 O 0.00813 0.21296 0.63247 0.0
H72 H 0.8555 0.22245 0.68505 0.0
H73 H 0.78188 0.25559 0.70735 0.0
H74 H 0.84751 0.30645 0.82021 0.0
H75 H 0.92073 0.27476 0.79748 0.0
H76 H 0.12794 0.31808 0.55973 0.0
H77 H 0.13335 0.38217 0.51035 0.0
H78 H 0.23774 0.44625 0.58847 0.0
H79 H 0.23342 0.38086 0.63684 0.0
La80 La 0.84306 0.9659 0.20841 0.0
La81 La 0.85079 0.06094 1.17161 0.0
C82 C 0.85074 0.89004 0.2459 0.0
C83 C 0.83964 0.84082 0.23984 0.0
C84 C 0.86637 0.81276 0.21335 0.0
C85 C 0.86085 0.76489 0.21428 0.0
C86 C 0.82872 0.74427 0.24185 0.0
C87 C 0.79953 0.7728 0.26567 0.0
C88 C 0.80508 0.82047 0.26478 0.0
C89 C 0.76426 0.99948 0.18052 0.0
C90 C 0.86167 0.0552 0.26878 0.0
C91 C 0.83081 0.13632 1.13724 0.0
C92 C 0.79866 0.15387 1.10544 0.0
C93 C 0.78605 0.1277 1.07027 0.0
C94 C 0.75478 0.1454 1.04097 0.0
C95 C 0.73533 0.18937 1.04657 0.0
C96 C 0.74724 0.21476 1.08255 0.0
C97 C 0.77868 0.19717 1.11161 0.0
C98 C 0.93074 0.02332 0.19354 0.0
C99 C 0.85258 0.97457 1.10963 0.0
O100 O 0.88346 0.90815 0.2225 0.0
O101 O 0.81575 0.91791 0.25117 0.0
O102 O 0.77613 0.95664 1.17846 0.0
O103 O 0.79546 0.02185 0.19976 0.0
O104 O 0.85888 0.0097 0.26448 0.0
O105 O 0.85522 0.08288 0.23652 0.0
O106 O 0.86492 0.11004 1.12461 0.0
O107 O 0.81101 0.1208 1.17144 0.0
O108 O 0.92364 0.0674 0.19227 0.0
O109 O 0.89561 1.00377 1.1792 0.0
O110 O 0.84176 0.01864 1.11471 0.0
O111 O 0.85858 0.9471 1.1427 0.0
H112 H 0.89317 0.82746 0.19353 0.0
H113 H 0.88356 0.7439 0.19526 0.0
H114 H 0.77489 0.75834 0.2878 0.0
H115 H 0.78412 0.84122 0.28562 0.0
H116 H 0.80063 0.09387 1.06527 0.0
H117 H 0.74694 0.12519 1.01331 0.0
H118 H 0.73249 0.24839 1.08813 0.0
H119 H 0.78749 0.21749 1.13901 0.0
La120 La 0.08252 0.84655 0.69332 0.0
La121 La 0.98796 0.8284 0.65944 0.0
C122 C 0.15812 0.8674 0.72794 0.0
C123 C 0.19506 0.84111 0.74895 0.0
C124 C 0.23998 0.84136 0.732 0.0
C125 C 0.27557 0.81698 0.75158 0.0
C126 C 0.26698 0.79213 0.78878 0.0
C127 C 0.22167 0.79133 0.80521 0.0
C128 C 0.18609 0.81536 0.78545 0.0
C129 C 0.0656 0.75922 0.66997 0.0
C130 C 0.99802 0.83911 0.75825 0.0
C131 C 0.92006 0.78687 0.62706 0.0
C132 C 0.909 0.75449 0.59312 0.0
C133 C 0.93155 0.75617 0.55411 0.0
C134 C 0.91966 0.7247 0.52264 0.0
C135 C 0.88529 0.6909 0.52982 0.0
C136 C 0.86377 0.68883 0.5694 0.0
C137 C 0.87549 0.72037 0.60066 0.0
C138 C 0.99779 0.91269 0.68819 0.0
C139 C 0.06759 0.86791 0.5987 0.0
O140 O 0.15372 0.86009 0.68768 0.0
O141 O 0.11794 0.86962 0.74692 0.0
O142 O 0.10496 0.77988 0.66659 0.0
O143 O 0.03908 0.78652 0.68831 0.0
O144 O 0.04181 0.85112 0.75158 0.0
O145 O 0.97106 0.82463 0.72706 0.0
O146 O 0.9323 0.829 0.61686 0.0
O147 O 0.94539 0.77 0.65735 0.0
O148 O 0.95829 0.89133 0.68493 0.0
O149 O 0.02829 0.88874 0.67013 0.0
O150 O 0.03135 0.83918 0.60143 0.0
O151 O 0.08744 0.88277 0.63354 0.0
H152 H 0.24763 0.86073 0.70367 0.0
H153 H 0.30989 0.81806 0.73786 0.0
H154 H 0.21384 0.77349 0.83428 0.0
H155 H 0.15177 0.81426 0.79922 0.0
H156 H 0.95789 0.78198 0.54782 0.0
H157 H 0.93647 0.72771 0.49232 0.0
H158 H 0.83767 0.66294 0.57618 0.0
H159 H 0.85817 0.71824 0.63084 0.0
C160 C 0.01455 0.00978 0.20344 0.0
C161 C 0.969 1.00134 0.21651 0.0
C162 C 0.0504 0.00877 0.23286 0.0
C163 C 0.03933 0.00532 0.27578 0.0
C164 C 0.99626 0.98717 0.28725 0.0
C165 C 0.96158 0.98324 0.25696 0.0
C166 C 0.06276 0.038 0.30416 0.0
C167 C 0.04552 0.08129 0.30374 0.0
C168 C 0.07054 0.11437 0.27659 0.0
C169 C 0.05857 0.11514 0.23369 0.0
C170 C 0.09369 0.11608 0.2033 0.0
C171 C 0.13976 0.12102 0.21614 0.0
H172 H 0.12434 0.13028 0.32137 0.0
C173 C 0.14886 0.13435 0.25797 0.0
C174 C 0.11467 0.12917 0.28851 0.0
H175 H 0.18379 0.14156 0.26839 0.0
H176 H 0.0217 0.02209 1.17192 0.0
H177 H 0.08453 0.02029 0.22318 0.0
H178 H 0.98777 0.9817 0.32003 0.0
H179 H 0.92815 0.97128 0.26693 0.0
H180 H 0.10024 0.03427 0.30469 0.0
H181 H 0.00801 0.08475 0.30275 0.0
H182 H 0.02382 0.10581 0.22399 0.0
H183 H 0.08543 0.10754 1.17106 0.0
C184 C 0.97091 0.95713 0.75017 0.0
C185 C 1.00681 0.94595 0.72212 0.0
C186 C 0.9801 0.98262 0.7863 0.0
C187 C 0.02501 0.99843 0.79437 0.0
C188 C 0.06078 0.98853 0.76579 0.0
C189 C 0.05173 0.96242 0.72986 0.0
C190 C 0.03439 0.0242 0.83345 0.0
C191 C 0.05539 0.06554 0.83401 0.0
C192 C 0.06637 0.09198 0.79553 0.0
C193 C 0.03178 0.10223 0.76593 0.0
C194 C 0.04238 0.12846 0.7303 0.0
C195 C 0.08772 0.14451 0.72378 0.0
H196 H 0.1386 0.10037 0.81151 0.0
C197 C 0.12242 0.13312 0.75293 0.0
C198 C 0.11162 0.10774 0.78888 0.0
H199 H 0.1576 0.14553 0.74894 0.0
H200 H 0.93599 0.9445 0.74519 0.0
H201 H 0.9522 0.98974 0.8081 0.0
H202 H 0.09591 0.99996 0.77185 0.0
H203 H 0.08 0.95392 0.70892 0.0
H204 H 0.02402 0.00867 0.8631 0.0
H205 H 0.06454 0.08052 0.86413 0.0
H206 H 0.99639 0.09091 0.77091 0.0
H207 H 0.01497 0.13732 0.70858 0.0
C208 C 0.68268 0.98285 1.15893 0.0
C209 C 0.71564 0.01449 1.17421 0.0
C210 C 0.63592 0.99477 1.15553 0.0
C211 C 0.62077 0.03884 1.16733 0.0
C212 C 0.65405 0.07101 0.18124 0.0
C213 C 0.70093 0.05893 0.18491 0.0
C214 C 0.57103 0.05279 1.16442 0.0
C215 C 0.53484 0.02288 1.16532 0.0
C216 C 0.48526 0.03754 1.16334 0.0
C217 C 0.45052 0.0096 0.1815 0.0
C218 C 0.40403 0.0238 0.18212 0.0
C219 C 0.39137 0.06609 1.16414 0.0
H220 H 0.49707 0.10019 1.12744 0.0
C221 C 0.42565 0.09258 1.14378 0.0
C222 C 0.47191 0.07858 1.14335 0.0
H223 H 0.41692 0.12506 1.12906 0.0
H224 H 0.69293 0.94842 1.14997 0.0
H225 H 0.61196 0.96942 1.14327 0.0
H226 H 0.64363 0.10544 0.19003 0.0
H227 H 0.72543 0.0841 0.19669 0.0
H228 H 0.56414 0.08948 1.16366 0.0
H229 H 0.54135 0.98648 1.17011 0.0
H230 H 0.45957 0.97736 0.19647 0.0
H231 H 0.37841 1.00253 0.19786 0.0
C232 C 0.06736 0.40693 0.68894 0.0
C233 C 0.03795 0.38147 0.66238 0.0
C234 C 0.07173 0.45493 0.68433 0.0
C235 C 0.04788 0.4783 0.65223 0.0
C236 C 0.0199 0.45251 0.62477 0.0
C237 C 0.01427 0.40482 0.63029 0.0
C238 C 0.05258 0.52921 0.64612 0.0
C239 C 0.04974 0.5594 0.67824 0.0
C240 C 0.05192 0.61059 0.67282 0.0
C241 C 0.02379 0.6386 0.69809 0.0
C242 C 0.02694 0.68676 0.69584 0.0
C243 C 0.05949 0.70824 0.66927 0.0
H244 H 0.10617 0.61152 0.6257 0.0
C245 C 0.08761 0.68035 0.64381 0.0
C246 C 0.08349 0.63204 0.64515 0.0
H247 H 0.11308 0.6959 0.6231 0.0
H248 H 0.0861 0.3899 0.71394 0.0
H249 H 0.0942 0.4737 0.70554 0.0
H250 H 1.00147 0.46948 0.59954 0.0
H251 H 0.99157 0.38609 0.60925 0.0
H252 H 0.05486 0.54222 0.61415 0.0
H253 H 0.0426 0.54623 0.70959 0.0
H254 H 0.99933 0.62312 0.71984 0.0
H255 H 1.0049 0.70718 0.71601 0.0
C256 C 0.15213 0.47324 0.49188 0.0
C257 C 0.19083 0.45714 0.51415 0.0
C258 C 0.15798 0.50106 0.45644 0.0
C259 C 0.20258 0.51328 0.44253 0.0
C260 C 0.24082 0.50189 0.46787 0.0
C261 C 0.235 0.47378 0.5031 0.0
C262 C 0.20846 0.52938 0.3984 0.0
C263 C 0.24649 0.51681 0.37704 0.0
C264 C 0.2475 0.47263 0.35335 0.0
C265 C 0.28965 0.45798 0.33608 0.0
C266 C 0.29412 0.41355 0.31992 0.0
C267 C 0.25659 0.38245 0.32101 0.0
H268 H 0.17622 0.45157 0.36602 0.0
C269 C 0.21392 0.3976 0.33691 0.0
C270 C 0.2093 0.44215 0.35267 0.0
H271 H 0.18435 0.37458 0.33851 0.0
H272 H 0.11746 0.46232 0.50049 0.0
H273 H 0.12775 0.50994 0.43805 0.0
H274 H 0.27568 0.51167 0.45901 0.0
H275 H 0.26559 0.46244 0.51972 0.0
H276 H 0.17642 0.5301 0.38049 0.0
H277 H 0.27981 0.52752 0.38957 0.0
H278 H 0.31966 0.48053 0.3362 0.0
H279 H 0.32719 0.40351 0.30684 0.0
C280 C 0.75877 0.33547 0.80932 0.0
C281 C 0.76295 0.29661 0.78338 0.0
C282 C 0.72143 0.33926 0.83698 0.0
C283 C 0.68776 0.30429 0.83917 0.0
C284 C 0.68784 0.26976 0.80822 0.0
C285 C 0.72543 0.26567 0.78083 0.0
C286 C 0.66145 0.29923 0.87913 0.0
C287 C 0.65343 0.25714 0.89565 0.0
C288 C 0.66339 0.24541 0.94025 0.0
C289 C 0.6536 0.20045 0.95412 0.0
C290 C 0.67458 0.18294 0.99029 0.0
C291 C 0.70594 0.21006 1.01331 0.0
H292 H 0.7009 0.30839 0.95606 0.0
C293 C 0.7125 0.2563 1.00158 0.0
C294 C 0.69151 0.27384 0.96554 0.0
H295 H 0.73667 0.27814 1.01837 0.0
H296 H 0.7863 0.36089 0.81086 0.0
H297 H 0.72173 0.36695 0.85974 0.0
H298 H 0.66115 0.2435 0.80739 0.0
H299 H 0.72695 0.23574 0.76068 0.0
H300 H 0.6615 0.32884 0.89987 0.0
H301 H 0.65054 0.22771 0.87487 0.0
H302 H 0.63219 0.1777 0.93536 0.0
H303 H 0.66794 0.14747 0.99906 0.0
C304 C 0.90165 0.6426 0.4661 0.0
C305 C 0.86978 0.66015 0.49525 0.0
C306 C 0.8863 0.62015 0.42986 0.0
C307 C 0.8385 0.61466 0.42204 0.0
C308 C 0.80699 0.62871 0.45306 0.0
C309 C 0.82235 0.65127 0.48917 0.0
C310 C 0.81994 0.60455 0.37938 0.0
C311 C 0.84679 0.59344 0.34626 0.0
C312 C 0.84016 0.61751 0.30552 0.0
C313 C 0.87959 0.63673 0.28641 0.0
C314 C 0.8755 0.67524 0.26045 0.0
C315 C 0.83177 0.69462 0.25284 0.0
H316 H 0.76498 0.6159 0.30428 0.0
C317 C 0.79203 0.67001 0.26552 0.0
C318 C 0.79617 0.63155 0.29168 0.0
H319 H 0.75779 0.68314 0.25878 0.0
H320 H 0.9385 0.64797 0.47037 0.0
H321 H 0.91215 0.61028 0.40709 0.0
H322 H 0.77003 0.62525 0.44798 0.0
H323 H 0.79673 0.66442 0.51086 0.0
H324 H 0.78534 0.61758 0.37355 0.0
H325 H 0.88069 0.57871 0.35178 0.0
H326 H 0.91392 0.626 0.29588 0.0
H327 H 0.90694 0.69285 0.25087 0.0
C328 C 0.34793 0.7946 0.81735 0.0
C329 C 0.30548 0.77114 0.81307 0.0
C330 C 0.37935 0.7817 0.84849 0.0
C331 C 0.36831 0.74573 0.8766 0.0
C332 C 0.32917 0.71836 0.86826 0.0
C333 C 0.29803 0.73091 0.8368 0.0
C334 C 0.38955 0.74206 0.91908 0.0
C335 C 0.40877 0.77893 0.93804 0.0
C336 C 0.39682 0.7927 0.9817 0.0
C337 C 0.35654 0.77593 1.00174 0.0
C338 C 0.33735 0.79958 1.03559 0.0
C339 C 0.35791 0.84039 1.05031 0.0
H340 H 0.45076 0.84463 0.98439 0.0
C341 C 0.4006 0.85444 1.03313 0.0
C342 C 0.41974 0.8309 0.99909 0.0
H343 H 0.41796 0.88512 1.04447 0.0
H344 H 0.35536 0.82529 0.79916 0.0
H345 H 0.41034 0.8023 0.85219 0.0
H346 H 0.3202 0.68974 0.88866 0.0
H347 H 0.26652 0.71093 0.83313 0.0
H348 H 0.37748 0.71373 0.93862 0.0
H349 H 0.42451 0.80588 0.91915 0.0
H350 H 0.33706 0.74717 0.98928 0.0
H351 H 0.30432 0.78782 1.04783 0.0
C352 C 0.87405 0.91146 1.05737 0.0
C353 C 0.86444 0.95808 1.06609 0.0
C354 C 0.89 0.8977 1.01729 0.0
C355 C 0.89748 0.93035 0.98505 0.0
C356 C 0.8871 0.97661 0.99371 0.0
C357 C 0.87042 0.99017 1.03322 0.0
C358 C 0.91937 0.91875 0.94336 0.0
C359 C 0.91521 0.87787 0.92316 0.0
C360 C 0.93706 0.86812 0.88101 0.0
C361 C 0.91507 0.83792 0.85266 0.0
C362 C 0.93467 0.82816 0.81308 0.0
C363 C 0.97767 0.84722 0.80113 0.0
H364 H 0.99879 0.90976 0.89016 0.0
C365 C 1.00027 0.87646 0.83003 0.0
C366 C 0.98014 0.88712 0.86909 0.0
H367 H 0.03329 0.8921 0.82213 0.0
H368 H 0.87025 0.88569 1.08178 0.0
H369 H 0.89822 0.86183 1.01221 0.0
H370 H 0.89256 1.00274 0.96985 0.0
H371 H 0.86386 0.02639 1.03836 0.0
H372 H 0.93807 0.9464 0.92761 0.0
H373 H 0.89304 0.8514 0.93672 0.0
H374 H 0.88209 0.82236 0.86086 0.0
H375 H 0.91612 0.80556 0.79187 0.0
C376 C 0.20997 0.98872 0.31946 0.0
C377 C 0.22694 0.03436 0.31601 0.0
C378 C 0.19018 0.97185 0.35691 0.0
C379 C 0.18642 0.99994 0.39273 0.0
C380 C 0.20408 0.04536 0.38961 0.0
C381 C 0.22377 0.06241 0.35188 0.0
C382 C 0.16639 0.98275 0.43406 0.0
C383 C 0.13903 0.94457 0.43893 0.0
C384 C 0.12022 0.92632 0.48038 0.0
C385 C 0.08425 0.89304 0.48049 0.0
C386 C 0.06678 0.87398 0.51831 0.0
C387 C 0.08506 0.88727 0.55744 0.0
H388 H 0.16665 0.96396 0.52167 0.0
C389 C 0.12117 0.92037 0.55725 0.0
C390 C 0.1384 0.93949 0.51962 0.0
H391 H 0.13661 0.9317 0.58646 0.0
H392 H 0.2116 0.96562 0.29286 0.0
H393 H 0.17846 0.93645 0.35758 0.0
H394 H 0.20225 0.06809 0.41648 0.0
H395 H 0.23584 0.09774 0.35069 0.0
H396 H 0.17398 1.00351 0.46149 0.0
H397 H 0.12875 0.92572 0.41106 0.0
H398 H 0.06945 0.8816 0.45103 0.0
H399 H 0.03913 0.84871 0.51683 0.0
C400 C 0.16197 0.23465 0.8132 0.0
C401 C 0.11432 0.23983 0.80479 0.0
C402 C 0.17771 0.22272 0.85378 0.0
C403 C 0.14621 0.21617 0.88727 0.0
C404 C 0.09879 0.22221 0.87884 0.0
C405 C 0.08308 0.23329 0.83832 0.0
C406 C 0.16099 0.20468 0.93154 0.0
C407 C 0.20001 0.18141 0.9418 0.0
C408 C 0.21302 0.16748 0.98598 0.0
C409 C 0.24099 0.12849 0.99204 0.0
C410 C 0.25385 0.11395 1.03254 0.0
C411 C 0.24009 0.13855 1.06849 0.0
H412 H 0.17883 0.22325 1.01881 0.0
C413 C 0.21307 0.17833 1.06252 0.0
C414 C 0.19947 0.19246 1.02191 0.0
H415 H 0.20163 0.19816 1.08933 0.0
H416 H 0.18713 0.23892 0.78822 0.0
H417 H 0.21457 0.21927 0.85889 0.0
H418 H 0.07351 0.21772 0.90371 0.0
H419 H 0.04616 0.23671 0.83332 0.0
H420 H 0.13691 0.21331 0.95651 0.0
H421 H 0.2221 0.16921 0.91658 0.0
H422 H 0.25244 0.10859 0.96525 0.0
H423 H 0.27467 0.08323 1.03563 0.0
C424 C 0.90393 0.05265 0.3393 0.0
C425 C 0.87653 0.07657 0.30984 0.0
C426 C 0.92207 0.07501 0.37522 0.0
C427 C 0.91194 0.12158 0.38347 0.0
C428 C 0.88329 0.14485 0.35479 0.0
C429 C 0.86665 0.12309 0.3183 0.0
C430 C 0.92729 0.14598 0.42299 0.0
C431 C 0.96996 0.14241 0.44067 0.0
C432 C 0.98477 0.16778 0.48001 0.0
C433 C 0.03167 0.18017 0.48603 0.0
C434 C 0.04686 0.20141 0.52355 0.0
C435 C 0.01578 0.20968 0.55678 0.0
H436 H 0.91738 0.16783 0.5101 0.0
C437 C 0.96886 0.19757 0.55059 0.0
C438 C 0.95353 0.17741 0.51283 0.0
H439 H 0.94378 0.20313 0.57539 0.0
H440 H 0.91205 0.0168 0.33428 0.0
H441 H 0.94313 0.05556 0.39698 0.0
H442 H 0.8742 0.18046 0.36031 0.0
H443 H 0.84577 0.1429 0.29665 0.0
H444 H 0.90303 0.17029 0.43648 0.0
H445 H 0.99575 0.12155 0.42485 0.0
H446 H 0.05684 0.17309 0.46165 0.0
H447 H 0.08325 0.2097 0.52713 0.0
loop_
_geom_bond_atom_site_label_1
_geom_bond_atom_site_label_2
_geom_bond_distance
_geom_bond_site_symmetry_2
_ccdc_geom_bond_type
La0 C2 2.928 . S
La0 O20 2.521 . S
La0 O21 2.628 . S
La0 O22 2.554 . S
La0 O23 2.757 1_554 S
La0 O24 2.470 . S
La0 O29 2.482 . S
La0 O31 2.503 1_554 S
La1 C11 2.928 1_545 S
La1 O23 2.482 . S
La1 O25 2.503 1_556 S
La1 O26 2.521 1_545 S
La1 O27 2.628 . S
La1 O28 2.554 . S
La1 O29 2.757 1_556 S
La1 O30 2.470 . S
C2 La0 2.928 . S
C2 C3 1.503 . S
C2 O20 1.261 . S
C2 O21 1.243 . S
C3 C2 1.503 . S
C3 C4 1.394 . S
C3 C8 1.373 . S
C4 C3 1.394 . S
C4 C5 1.380 . S
C4 H32 0.930 . S
C5 C4 1.380 . S
C5 C6 1.376 . S
C5 H33 0.930 . S
C6 C5 1.376 . S
C6 C7 1.370 . S
C7 C6 1.370 . S
C7 C8 1.396 . S
C7 H34 0.929 . S
C8 C3 1.373 . S
C8 C7 1.396 . S
C8 H35 0.929 . S
C9 O22 1.240 . S
C9 O23 1.289 1_554 S
C10 O24 1.258 . S
C10 O25 1.256 . S
C11 La1 2.928 1_565 S
C11 C12 1.503 . S
C11 O26 1.261 . S
C11 O27 1.243 1_565 S
C12 C11 1.503 . S
C12 C13 1.394 . S
C12 C17 1.373 . S
C13 C12 1.394 . S
C13 C14 1.380 . S
C13 H36 0.930 . S
C14 C13 1.380 . S
C14 C15 1.376 . S
C14 H37 0.930 . S
C15 C14 1.376 . S
C15 C16 1.370 . S
C16 C15 1.370 . S
C16 C17 1.396 . S
C16 H38 0.929 . S
C17 C12 1.373 . S
C17 C16 1.396 . S
C17 H39 0.929 . S
C18 O28 1.221 1_554 S
C18 O29 1.301 . S
C19 O30 1.258 . S
C19 O31 1.256 . S
O20 La0 2.521 . S
O20 C2 1.261 . S
O21 La0 2.628 . S
O21 C2 1.243 . S
O22 La0 2.554 . S
O22 C9 1.240 . S
O23 La0 2.757 1_556 S
O23 La1 2.482 . S
O23 C9 1.289 1_556 S
O24 La0 2.470 . S
O24 C10 1.258 . S
O25 La1 2.503 1_554 S
O25 C10 1.256 . S
O26 La1 2.521 1_565 S
O26 C11 1.261 . S
O27 La1 2.628 . S
O27 C11 1.243 1_545 S
O28 La1 2.554 . S
O28 C18 1.221 1_556 S
O29 La0 2.482 . S
O29 La1 2.757 1_554 S
O29 C18 1.301 . S
O30 La1 2.470 . S
O30 C19 1.258 . S
O31 La0 2.503 1_556 S
O31 C19 1.256 . S
H32 C4 0.930 . S
H33 C5 0.930 . S
H34 C7 0.929 . S
H35 C8 0.929 . S
H36 C13 0.930 . S
H37 C14 0.930 . S
H38 C16 0.929 . S
H39 C17 0.929 . S
La40 C42 2.928 . S
La40 O60 2.521 . S
La40 O61 2.628 . S
La40 O62 2.554 . S
La40 O63 2.757 1_655 S
La40 O64 2.470 1_655 S
La40 O69 2.482 . S
La40 O71 2.503 . S
La41 C51 2.928 . S
La41 O63 2.482 . S
La41 O65 2.503 . S
La41 O66 2.521 . S
La41 O67 2.628 . S
La41 O68 2.554 . S
La41 O69 2.757 1_455 S
La41 O70 2.470 1_455 S
C42 La40 2.928 . S
C42 C43 1.503 . S
C42 O60 1.261 . S
C42 O61 1.243 . S
C43 C42 1.503 . S
C43 C44 1.394 . S
C43 C48 1.373 . S
C44 C43 1.394 . S
C44 C45 1.380 . S
C44 H72 0.930 . S
C45 C44 1.380 . S
C45 C46 1.376 . S
C45 H73 0.930 . S
C46 C45 1.376 . S
C46 C47 1.370 . S
C47 C46 1.370 . S
C47 C48 1.396 . S
C47 H74 0.929 . S
C48 C43 1.373 . S
C48 C47 1.396 . S
C48 H75 0.929 . S
C49 O62 1.240 . S
C49 O63 1.289 1_655 S
C50 O64 1.258 . S
C50 O65 1.256 . S
C51 La41 2.928 . S
C51 C52 1.503 . S
C51 O66 1.261 . S
C51 O67 1.243 . S
C52 C51 1.503 . S
C52 C53 1.394 . S
C52 C57 1.373 . S
C53 C52 1.394 . S
C53 C54 1.380 . S
C53 H76 0.930 . S
C54 C53 1.380 . S
C54 C55 1.376 . S
C54 H77 0.930 . S
C55 C54 1.376 . S
C55 C56 1.370 . S
C56 C55 1.370 . S
C56 C57 1.396 . S
C56 H78 0.929 . S
C57 C52 1.373 . S
C57 C56 1.396 . S
C57 H79 0.929 . S
C58 O68 1.240 . S
C58 O69 1.289 1_455 S
C59 O70 1.258 . S
C59 O71 1.256 . S
O60 La40 2.521 . S
O60 C42 1.261 . S
O61 La40 2.628 . S
O61 C42 1.243 . S
O62 La40 2.554 . S
O62 C49 1.240 . S
O63 La40 2.757 1_455 S
O63 La41 2.482 . S
O63 C49 1.289 1_455 S
O64 La40 2.470 1_455 S
O64 C50 1.258 . S
O65 La41 2.503 . S
O65 C50 1.256 . S
O66 La41 2.521 . S
O66 C51 1.261 . S
O67 La41 2.628 . S
O67 C51 1.243 . S
O68 La41 2.554 . S
O68 C58 1.240 . S
O69 La40 2.482 . S
O69 La41 2.757 1_655 S
O69 C58 1.289 1_655 S
O70 La41 2.470 1_655 S
O70 C59 1.258 . S
O71 La40 2.503 . S
O71 C59 1.256 . S
H72 C44 0.930 . S
H73 C45 0.930 . S
H74 C47 0.929 . S
H75 C48 0.929 . S
H76 C53 0.930 . S
H77 C54 0.930 . S
H78 C56 0.929 . S
H79 C57 0.929 . S
La80 C82 2.928 . S
La80 O100 2.521 . S
La80 O101 2.628 . S
La80 O102 2.554 . S
La80 O103 2.757 1_564 S
La80 O104 2.470 1_565 S
La80 O109 2.482 . S
La80 O111 2.503 1_554 S
La81 C91 2.928 . S
La81 O103 2.482 . S
La81 O105 2.503 1_556 S
La81 O106 2.521 . S
La81 O107 2.628 . S
La81 O108 2.554 . S
La81 O109 2.757 1_546 S
La81 O110 2.470 1_545 S
C82 La80 2.928 . S
C82 C83 1.503 . S
C82 O100 1.261 . S
C82 O101 1.243 . S
C83 C82 1.503 . S
C83 C84 1.394 . S
C83 C88 1.373 . S
C84 C83 1.394 . S
C84 C85 1.380 . S
C84 H112 0.930 . S
C85 C84 1.380 . S
C85 C86 1.376 . S
C85 H113 0.930 . S
C86 C85 1.376 . S
C86 C87 1.370 . S
C87 C86 1.370 . S
C87 C88 1.396 . S
C87 H114 0.929 . S
C88 C83 1.373 . S
C88 C87 1.396 . S
C88 H115 0.929 . S
C89 O102 1.240 . S
C89 O103 1.289 1_564 S
C90 O104 1.258 . S
C90 O105 1.256 . S
C91 La81 2.928 . S
C91 C92 1.503 . S
C91 O106 1.261 . S
C91 O107 1.243 . S
C92 C91 1.503 . S
C92 C93 1.394 . S
C92 C97 1.373 . S
C93 C92 1.394 . S
C93 C94 1.380 . S
C93 H116 0.930 . S
C94 C93 1.380 . S
C94 C95 1.376 . S
C94 H117 0.930 . S
C95 C94 1.376 . S
C95 C96 1.370 . S
C96 C95 1.370 . S
C96 C97 1.396 . S
C96 H118 0.929 . S
C97 C92 1.373 . S
C97 C96 1.396 . S
C97 H119 0.929 . S
C98 O108 1.221 1_554 S
C98 O109 1.301 1_545 S
C99 O110 1.258 . S
C99 O111 1.256 . S
O100 La80 2.521 . S
O100 C82 1.261 . S
O101 La80 2.628 . S
O101 C82 1.243 . S
O102 La80 2.554 . S
O102 C89 1.240 . S
O103 La80 2.757 1_546 S
O103 La81 2.482 . S
O103 C89 1.289 1_546 S
O104 La80 2.470 1_545 S
O104 C90 1.258 . S
O105 La81 2.503 1_554 S
O105 C90 1.256 . S
O106 La81 2.521 . S
O106 C91 1.261 . S
O107 La81 2.628 . S
O107 C91 1.243 . S
O108 La81 2.554 . S
O108 C98 1.221 1_556 S
O109 La80 2.482 . S
O109 La81 2.757 1_564 S
O109 C98 1.301 1_565 S
O110 La81 2.470 1_565 S
O110 C99 1.258 . S
O111 La80 2.503 1_556 S
O111 C99 1.256 . S
H112 C84 0.930 . S
H113 C85 0.930 . S
H114 C87 0.929 . S
H115 C88 0.929 . S
H116 C93 0.930 . S
H117 C94 0.930 . S
H118 C96 0.929 . S
H119 C97 0.929 . S
La120 C122 2.928 . S
La120 O140 2.521 . S
La120 O141 2.628 . S
La120 O142 2.554 . S
La120 O143 2.757 . S
La120 O144 2.470 . S
La120 O149 2.482 . S
La120 O151 2.503 . S
La121 C131 2.928 1_455 S
La121 O143 2.482 . S
La121 O145 2.503 . S
La121 O146 2.521 1_455 S
La121 O147 2.628 . S
La121 O148 2.554 . S
La121 O149 2.757 . S
La121 O150 2.470 . S
C122 La120 2.928 . S
C122 C123 1.503 . S
C122 O140 1.261 . S
C122 O141 1.243 . S
C123 C122 1.503 . S
C123 C124 1.394 . S
C123 C128 1.373 . S
C124 C123 1.394 . S
C124 C125 1.380 . S
C124 H152 0.930 . S
C125 C124 1.380 . S
C125 C126 1.376 . S
C125 H153 0.930 . S
C126 C125 1.376 . S
C126 C127 1.370 . S
C127 C126 1.370 . S
C127 C128 1.396 . S
C127 H154 0.929 . S
C128 C123 1.373 . S
C128 C127 1.396 . S
C128 H155 0.929 . S
C129 O142 1.240 . S
C129 O143 1.289 . S
C130 O144 1.258 . S
C130 O145 1.256 . S
C131 La121 2.928 1_655 S
C131 C132 1.503 . S
C131 O146 1.261 . S
C131 O147 1.243 1_655 S
C132 C131 1.503 . S
C132 C133 1.394 . S
C132 C137 1.373 . S
C133 C132 1.394 . S
C133 C134 1.380 . S
C133 H156 0.930 . S
C134 C133 1.380 . S
C134 C135 1.376 . S
C134 H157 0.930 . S
C135 C134 1.376 . S
C135 C136 1.370 . S
C136 C135 1.370 . S
C136 C137 1.396 . S
C136 H158 0.929 . S
C137 C132 1.373 . S
C137 C136 1.396 . S
C137 H159 0.929 . S
C138 O148 1.240 . S
C138 O149 1.289 . S
C139 O150 1.258 . S
C139 O151 1.256 . S
O140 La120 2.521 . S
O140 C122 1.261 . S
O141 La120 2.628 . S
O141 C122 1.243 . S
O142 La120 2.554 . S
O142 C129 1.240 . S
O143 La120 2.757 . S
O143 La121 2.482 . S
O143 C129 1.289 . S
O144 La120 2.470 . S
O144 C130 1.258 . S
O145 La121 2.503 . S
O145 C130 1.256 . S
O146 La121 2.521 1_655 S
O146 C131 1.261 . S
O147 La121 2.628 . S
O147 C131 1.243 1_455 S
O148 La121 2.554 . S
O148 C138 1.240 . S
O149 La120 2.482 . S
O149 La121 2.757 . S
O149 C138 1.289 . S
O150 La121 2.470 . S
O150 C139 1.258 . S
O151 La120 2.503 . S
O151 C139 1.256 . S
H152 C124 0.930 . S
H153 C125 0.930 . S
H154 C127 0.929 . S
H155 C128 0.929 . S
H156 C133 0.930 . S
H157 C134 0.930 . S
H158 C136 0.929 . S
H159 C137 0.929 . S
C160 C161 1.389 1_556 S
C160 C162 1.383 1_565 S
C160 H176 0.951 . S
C161 C160 1.389 1_554 S
C161 C165 1.372 1_565 S
C162 C160 1.383 1_545 S
C162 C163 1.402 1_556 S
C162 H177 0.951 . S
C163 C162 1.402 1_554 S
C163 C164 1.375 . S
C163 C166 1.481 1_655 S
C164 C163 1.375 . S
C164 C165 1.367 . S
C164 H178 0.951 . S
C165 C161 1.372 1_545 S
C165 C164 1.367 . S
C165 H179 0.950 . S
C166 C163 1.481 1_455 S
C166 C167 1.297 1_554 S
C166 H180 0.950 . S
C167 C166 1.297 1_556 S
C167 C168 1.479 . S
C167 H181 0.950 . S
C168 C167 1.479 . S
C168 C169 1.375 . S
C168 C174 1.404 1_556 S
C169 C168 1.375 . S
C169 C170 1.369 . S
C169 H182 0.950 . S
C170 C169 1.369 . S
C170 C171 1.392 1_556 S
C170 H183 0.951 . S
C171 C170 1.392 1_554 S
C171 C173 1.384 . S
H172 C174 0.949 . S
C173 C171 1.384 . S
C173 C174 1.385 . S
C173 H175 0.950 . S
C174 C168 1.404 1_554 S
C174 H172 0.949 . S
C174 C173 1.385 . S
H175 C173 0.950 . S
H176 C160 0.951 . S
H177 C162 0.951 . S
H178 C164 0.951 . S
H179 C165 0.950 . S
H180 C166 0.950 . S
H181 C167 0.950 . S
H182 C169 0.950 . S
H183 C170 0.951 . S
C184 C185 1.386 . S
C184 C186 1.383 . S
C184 H200 0.951 . S
C185 C184 1.386 . S
C185 C189 1.383 . S
C186 C184 1.383 . S
C186 C187 1.402 . S
C186 H201 0.951 . S
C187 C186 1.402 . S
C187 C188 1.375 . S
C187 C190 1.481 1_565 S
C188 C187 1.375 . S
C188 C189 1.367 . S
C188 H202 0.951 . S
C189 C185 1.383 . S
C189 C188 1.367 . S
C189 H203 0.950 . S
C190 C187 1.481 1_545 S
C190 C191 1.297 . S
C190 H204 0.950 . S
C191 C190 1.297 . S
C191 C192 1.479 . S
C191 H205 0.950 1_455 S
C192 C191 1.479 . S
C192 C193 1.375 1_455 S
C192 C198 1.404 . S
C193 C192 1.375 1_655 S
C193 C194 1.369 . S
C193 H206 0.950 . S
C194 C193 1.369 . S
C194 C195 1.392 . S
C194 H207 0.951 . S
C195 C194 1.392 . S
C195 C197 1.384 1_655 S
H196 C198 0.949 . S
C197 C195 1.384 1_455 S
C197 C198 1.385 . S
C197 H199 0.950 . S
C198 C192 1.404 . S
C198 H196 0.949 . S
C198 C197 1.385 . S
H199 C197 0.950 . S
H200 C184 0.951 . S
H201 C186 0.951 . S
H202 C188 0.951 . S
H203 C189 0.950 . S
H204 C190 0.950 . S
H205 C191 0.950 1_655 S
H206 C193 0.950 . S
H207 C194 0.951 . S
C208 C209 1.386 1_544 S
C208 C210 1.383 . S
C208 H224 0.951 . S
C209 C208 1.386 1_566 S
C209 C213 1.383 . S
C210 C208 1.383 . S
C210 C211 1.402 1_554 S
C210 H225 0.951 . S
C211 C210 1.402 1_556 S
C211 C212 1.375 . S
C211 C214 1.481 . S
C212 C211 1.375 . S
C212 C213 1.367 1_545 S
C212 H226 0.951 . S
C213 C209 1.383 . S
C213 C212 1.367 1_565 S
C213 H227 0.950 . S
C214 C211 1.481 . S
C214 C215 1.298 . S
C214 H228 0.950 . S
C215 C214 1.298 . S
C215 C216 1.480 . S
C215 H229 0.949 1_556 S
C216 C215 1.480 . S
C216 C217 1.375 1_556 S
C216 C222 1.404 . S
C217 C216 1.375 1_554 S
C217 C218 1.369 . S
C217 H230 0.950 . S
C218 C217 1.369 . S
C218 C219 1.392 1_554 S
C218 H231 0.951 . S
C219 C218 1.392 1_556 S
C219 C221 1.384 . S
H220 C222 0.949 . S
C221 C219 1.384 . S
C221 C222 1.385 . S
C221 H223 0.950 . S
C222 C216 1.404 . S
C222 H220 0.949 . S
C222 C221 1.385 . S
H223 C221 0.950 . S
H224 C208 0.951 . S
H225 C210 0.951 . S
H226 C212 0.951 . S
H227 C213 0.950 . S
H228 C214 0.950 . S
H229 C215 0.949 1_554 S
H230 C217 0.950 . S
H231 C218 0.951 . S
C232 C233 1.386 1_455 S
C232 C234 1.383 . S
C232 H248 0.951 1_455 S
C233 C232 1.386 1_655 S
C233 C237 1.383 1_655 S
C234 C232 1.383 . S
C234 C235 1.402 . S
C234 H249 0.951 . S
C235 C234 1.402 . S
C235 C236 1.375 . S
C235 C238 1.481 . S
C236 C235 1.375 . S
C236 C237 1.367 . S
C236 H250 0.951 . S
C237 C233 1.383 1_455 S
C237 C236 1.367 . S
C237 H251 0.950 . S
C238 C235 1.481 . S
C238 C239 1.297 . S
C238 H252 0.950 . S
C239 C238 1.297 . S
C239 C240 1.479 . S
C239 H253 0.950 . S
C240 C239 1.479 . S
C240 C241 1.375 . S
C240 C246 1.404 . S
C241 C240 1.375 . S
C241 C242 1.369 . S
C241 H254 0.950 . S
C242 C241 1.369 . S
C242 C243 1.392 . S
C242 H255 0.951 . S
C243 C242 1.392 . S
C243 C245 1.384 . S
H244 C246 0.949 . S
C245 C243 1.384 . S
C245 C246 1.385 . S
C245 H247 0.950 . S
C246 C240 1.404 . S
C246 H244 0.949 . S
C246 C245 1.385 . S
H247 C245 0.950 . S
H248 C232 0.951 1_655 S
H249 C234 0.951 . S
H250 C236 0.951 . S
H251 C237 0.950 . S
H252 C238 0.950 . S
H253 C239 0.950 . S
H254 C241 0.950 . S
H255 C242 0.951 . S
C256 C257 1.386 . S
C256 C258 1.383 . S
C256 H272 0.951 . S
C257 C256 1.386 . S
C257 C261 1.383 . S
C258 C256 1.383 . S
C258 C259 1.402 . S
C258 H273 0.951 . S
C259 C258 1.402 . S
C259 C260 1.375 . S
C259 C262 1.481 . S
C260 C259 1.375 . S
C260 C261 1.367 . S
C260 H274 0.951 . S
C261 C257 1.383 . S
C261 C260 1.367 . S
C261 H275 0.950 . S
C262 C259 1.481 . S
C262 C263 1.297 . S
C262 H276 0.950 . S
C263 C262 1.297 . S
C263 C264 1.479 . S
C263 H277 0.950 . S
C264 C263 1.479 . S
C264 C265 1.375 . S
C264 C270 1.404 . S
C265 C264 1.375 . S
C265 C266 1.369 . S
C265 H278 0.950 . S
C266 C265 1.369 . S
C266 C267 1.392 . S
C266 H279 0.951 . S
C267 C266 1.392 . S
C267 C269 1.384 . S
H268 C270 0.949 . S
C269 C267 1.384 . S
C269 C270 1.385 . S
C269 H271 0.950 . S
C270 C264 1.404 . S
C270 H268 0.949 . S
C270 C269 1.385 . S
H271 C269 0.950 . S
H272 C256 0.951 . S
H273 C258 0.951 . S
H274 C260 0.951 . S
H275 C261 0.950 . S
H276 C262 0.950 . S
H277 C263 0.950 . S
H278 C265 0.950 . S
H279 C266 0.951 . S
C280 C281 1.386 . S
C280 C282 1.383 . S
C280 H296 0.951 . S
C281 C280 1.386 . S
C281 C285 1.383 . S
C282 C280 1.383 . S
C282 C283 1.402 . S
C282 H297 0.951 . S
C283 C282 1.402 . S
C283 C284 1.375 . S
C283 C286 1.481 . S
C284 C283 1.375 . S
C284 C285 1.367 . S
C284 H298 0.951 . S
C285 C281 1.383 . S
C285 C284 1.367 . S
C285 H299 0.950 . S
C286 C283 1.481 . S
C286 C287 1.297 . S
C286 H300 0.950 . S
C287 C286 1.297 . S
C287 C288 1.479 . S
C287 H301 0.950 . S
C288 C287 1.479 . S
C288 C289 1.375 . S
C288 C294 1.404 . S
C289 C288 1.375 . S
C289 C290 1.369 . S
C289 H302 0.950 . S
C290 C289 1.369 . S
C290 C291 1.392 . S
C290 H303 0.951 . S
C291 C290 1.392 . S
C291 C293 1.384 . S
H292 C294 0.949 . S
C293 C291 1.384 . S
C293 C294 1.385 . S
C293 H295 0.950 . S
C294 C288 1.404 . S
C294 H292 0.949 . S
C294 C293 1.385 . S
H295 C293 0.950 . S
H296 C280 0.951 . S
H297 C282 0.951 . S
H298 C284 0.951 . S
H299 C285 0.950 . S
H300 C286 0.950 . S
H301 C287 0.950 . S
H302 C289 0.950 . S
H303 C290 0.951 . S
C304 C305 1.386 . S
C304 C306 1.383 . S
C304 H320 0.951 . S
C305 C304 1.386 . S
C305 C309 1.383 . S
C306 C304 1.383 . S
C306 C307 1.402 . S
C306 H321 0.951 . S
C307 C306 1.402 . S
C307 C308 1.375 . S
C307 C310 1.481 . S
C308 C307 1.375 . S
C308 C309 1.367 . S
C308 H322 0.951 . S
C309 C305 1.383 . S
C309 C308 1.367 . S
C309 H323 0.950 . S
C310 C307 1.481 . S
C310 C311 1.297 . S
C310 H324 0.950 . S
C311 C310 1.297 . S
C311 C312 1.479 . S
C311 H325 0.950 . S
C312 C311 1.479 . S
C312 C313 1.375 . S
C312 C318 1.404 . S
C313 C312 1.375 . S
C313 C314 1.369 . S
C313 H326 0.950 . S
C314 C313 1.369 . S
C314 C315 1.392 . S
C314 H327 0.951 . S
C315 C314 1.392 . S
C315 C317 1.384 . S
H316 C318 0.949 . S
C317 C315 1.384 . S
C317 C318 1.385 . S
C317 H319 0.950 . S
C318 C312 1.404 . S
C318 H316 0.949 . S
C318 C317 1.385 . S
H319 C317 0.950 . S
H320 C304 0.951 . S
H321 C306 0.951 . S
H322 C308 0.951 . S
H323 C309 0.950 . S
H324 C310 0.950 . S
H325 C311 0.950 . S
H326 C313 0.950 . S
H327 C314 0.951 . S
C328 C329 1.386 . S
C328 C330 1.383 . S
C328 H344 0.951 . S
C329 C328 1.386 . S
C329 C333 1.383 . S
C330 C328 1.383 . S
C330 C331 1.402 . S
C330 H345 0.951 . S
C331 C330 1.402 . S
C331 C332 1.375 . S
C331 C334 1.481 . S
C332 C331 1.375 . S
C332 C333 1.367 . S
C332 H346 0.951 . S
C333 C329 1.383 . S
C333 C332 1.367 . S
C333 H347 0.950 . S
C334 C331 1.481 . S
C334 C335 1.297 . S
C334 H348 0.950 . S
C335 C334 1.297 . S
C335 C336 1.479 . S
C335 H349 0.950 . S
C336 C335 1.479 . S
C336 C337 1.375 . S
C336 C342 1.404 . S
C337 C336 1.375 . S
C337 C338 1.369 . S
C337 H350 0.950 . S
C338 C337 1.369 . S
C338 C339 1.392 . S
C338 H351 0.951 . S
C339 C338 1.392 . S
C339 C341 1.384 . S
H340 C342 0.949 . S
C341 C339 1.384 . S
C341 C342 1.385 . S
C341 H343 0.950 . S
C342 C336 1.404 . S
C342 H340 0.949 . S
C342 C341 1.385 . S
H343 C341 0.950 . S
H344 C328 0.951 . S
H345 C330 0.951 . S
H346 C332 0.951 . S
H347 C333 0.950 . S
H348 C334 0.950 . S
H349 C335 0.950 . S
H350 C337 0.950 . S
H351 C338 0.951 . S
C352 C353 1.386 . S
C352 C354 1.383 . S
C352 H368 0.951 . S
C353 C352 1.386 . S
C353 C357 1.383 . S
C354 C352 1.383 . S
C354 C355 1.402 . S
C354 H369 0.951 . S
C355 C354 1.402 . S
C355 C356 1.375 . S
C355 C358 1.481 . S
C356 C355 1.375 . S
C356 C357 1.367 . S
C356 H370 0.951 . S
C357 C353 1.383 . S
C357 C356 1.367 . S
C357 H371 0.950 . S
C358 C355 1.481 . S
C358 C359 1.297 . S
C358 H372 0.950 . S
C359 C358 1.297 . S
C359 C360 1.479 . S
C359 H373 0.950 . S
C360 C359 1.479 . S
C360 C361 1.375 . S
C360 C366 1.404 . S
C361 C360 1.375 . S
C361 C362 1.369 . S
C361 H374 0.950 . S
C362 C361 1.369 . S
C362 C363 1.392 . S
C362 H375 0.951 . S
C363 C362 1.392 . S
C363 C365 1.384 . S
H364 C366 0.949 . S
C365 C363 1.384 . S
C365 C366 1.385 . S
C365 H367 0.950 . S
C366 C360 1.404 . S
C366 H364 0.949 . S
C366 C365 1.385 . S
H367 C365 0.950 . S
H368 C352 0.951 . S
H369 C354 0.951 . S
H370 C356 0.951 . S
H371 C357 0.950 . S
H372 C358 0.950 . S
H373 C359 0.950 . S
H374 C361 0.950 . S
H375 C362 0.951 . S
C376 C377 1.386 . S
C376 C378 1.383 . S
C376 H392 0.951 . S
C377 C376 1.386 . S
C377 C381 1.383 . S
C378 C376 1.383 . S
C378 C379 1.402 . S
C378 H393 0.951 . S
C379 C378 1.402 . S
C379 C380 1.375 . S
C379 C382 1.481 . S
C380 C379 1.375 . S
C380 C381 1.367 . S
C380 H394 0.951 1_565 S
C381 C377 1.383 . S
C381 C380 1.367 . S
C381 H395 0.950 1_565 S
C382 C379 1.481 . S
C382 C383 1.297 . S
C382 H396 0.950 . S
C383 C382 1.297 . S
C383 C384 1.479 . S
C383 H397 0.950 . S
C384 C383 1.479 . S
C384 C385 1.375 . S
C384 C390 1.404 . S
C385 C384 1.375 . S
C385 C386 1.369 . S
C385 H398 0.950 . S
C386 C385 1.369 . S
C386 C387 1.392 . S
C386 H399 0.951 . S
C387 C386 1.392 . S
C387 C389 1.384 . S
H388 C390 0.949 . S
C389 C387 1.384 . S
C389 C390 1.385 . S
C389 H391 0.950 . S
C390 C384 1.404 . S
C390 H388 0.949 . S
C390 C389 1.385 . S
H391 C389 0.950 . S
H392 C376 0.951 . S
H393 C378 0.951 . S
H394 C380 0.951 1_545 S
H395 C381 0.950 1_545 S
H396 C382 0.950 . S
H397 C383 0.950 . S
H398 C385 0.950 . S
H399 C386 0.951 . S
C400 C401 1.386 . S
C400 C402 1.383 . S
C400 H416 0.951 . S
C401 C400 1.386 . S
C401 C405 1.383 . S
C402 C400 1.383 . S
C402 C403 1.402 . S
C402 H417 0.951 . S
C403 C402 1.402 . S
C403 C404 1.375 . S
C403 C406 1.481 . S
C404 C403 1.375 . S
C404 C405 1.367 . S
C404 H418 0.951 . S
C405 C401 1.383 . S
C405 C404 1.367 . S
C405 H419 0.950 . S
C406 C403 1.481 . S
C406 C407 1.297 . S
C406 H420 0.950 . S
C407 C406 1.297 . S
C407 C408 1.479 . S
C407 H421 0.950 . S
C408 C407 1.479 . S
C408 C409 1.375 . S
C408 C414 1.404 . S
C409 C408 1.375 . S
C409 C410 1.369 . S
C409 H422 0.950 . S
C410 C409 1.369 . S
C410 C411 1.392 . S
C410 H423 0.951 . S
C411 C410 1.392 . S
C411 C413 1.384 . S
H412 C414 0.949 . S
C413 C411 1.384 . S
C413 C414 1.385 . S
C413 H415 0.950 . S
C414 C408 1.404 . S
C414 H412 0.949 . S
C414 C413 1.385 . S
H415 C413 0.950 . S
H416 C400 0.951 . S
H417 C402 0.951 . S
H418 C404 0.951 . S
H419 C405 0.950 . S
H420 C406 0.950 . S
H421 C407 0.950 . S
H422 C409 0.950 . S
H423 C410 0.951 . S
C424 C425 1.386 . S
C424 C426 1.383 . S
C424 H440 0.951 . S
C425 C424 1.386 . S
C425 C429 1.383 . S
C426 C424 1.383 . S
C426 C427 1.402 . S
C426 H441 0.951 . S
C427 C426 1.402 . S
C427 C428 1.375 . S
C427 C430 1.481 . S
C428 C427 1.375 . S
C428 C429 1.367 . S
C428 H442 0.951 . S
C429 C425 1.383 . S
C429 C428 1.367 . S
C429 H443 0.950 . S
C430 C427 1.481 . S
C430 C431 1.297 . S
C430 H444 0.950 . S
C431 C430 1.297 . S
C431 C432 1.479 . S
C431 H445 0.950 . S
C432 C431 1.479 . S
C432 C433 1.375 . S
C432 C438 1.404 . S
C433 C432 1.375 . S
C433 C434 1.369 . S
C433 H446 0.950 . S
C434 C433 1.369 . S
C434 C435 1.392 . S
C434 H447 0.951 . S
C435 C434 1.392 . S
C435 C437 1.384 . S
H436 C438 0.949 . S
C437 C435 1.384 . S
C437 C438 1.385 . S
C437 H439 0.950 . S
C438 C432 1.404 . S
C438 H436 0.949 . S
C438 C437 1.385 . S
H439 C437 0.950 . S
H440 C424 0.951 . S
H441 C426 0.951 . S
H442 C428 0.951 . S
H443 C429 0.950 . S
H444 C430 0.950 . S
H445 C431 0.950 . S
H446 C433 0.950 . S
H447 C434 0.951 . S
C161 C98 0.626 1_565 S
C171 C18 0.783 . S
C185 C138 0.729 . S
C195 C58 0.833 1_655 S
C209 C89 0.837 1_556 S
C219 C9 0.787 1_556 S
C233 C49 0.835 . S
C243 C129 0.764 . S
C257 C55 1.122 . S
C267 C6 1.068 . S
C281 C46 1.123 . S
C291 C95 1.090 . S
C305 C135 1.087 . S
C315 C86 1.152 . S
C329 C126 1.088 . S
C339 C15 1.101 . S
C353 C99 4.525 . S
C363 C130 4.640 1_655 S
C377 C10 4.653 1_565 S
C387 C139 4.525 . S
C401 C50 4.653 . S
C411 C19 4.522 . S
C425 C90 4.653 . S
C435 C59 4.522 . S
