# Generated by pormake.
# Topology can, (4)-cn, num edge types: 1
# Building blocks:
#     Node 0, Type 0, BuildingBlock: UXUYUI_clean_sbu_0, # of connection points: 4
#     Node 1, Type 0, BuildingBlock: UXUYUI_clean_sbu_0, # of connection points: 4
#     Node 2, Type 0, BuildingBlock: UXUYUI_clean_sbu_0, # of connection points: 4
#     Node 3, Type 0, BuildingBlock: UXUYUI_clean_sbu_0, # of connection points: 4
#     Node 4, Type 0, BuildingBlock: UXUYUI_clean_sbu_0, # of connection points: 4
#     Node 5, Type 0, BuildingBlock: UXUYUI_clean_sbu_0, # of connection points: 4
#     Node 6, Type 0, BuildingBlock: UXUYUI_clean_sbu_0, # of connection points: 4
#     Node 7, Type 0, BuildingBlock: UXUYUI_clean_sbu_0, # of connection points: 4
#     Node 8, Type 0, BuildingBlock: UXUYUI_clean_sbu_0, # of connection points: 4
#     Node 9, Type 0, BuildingBlock: UXUYUI_clean_sbu_0, # of connection points: 4
#     Node 10, Type 0, BuildingBlock: UXUYUI_clean_sbu_0, # of connection points: 4
#     Node 11, Type 0, BuildingBlock: UXUYUI_clean_sbu_0, # of connection points: 4
#     Edge 12, Type (0, 0), BuildingBlock: AJUNOK_clean_linker_0, # of connection points: 2
#     Edge 13, Type (0, 0), BuildingBlock: AJUNOK_clean_linker_0, # of connection points: 2
#     Edge 14, Type (0, 0), BuildingBlock: AJUNOK_clean_linker_0, # of connection points: 2
#     Edge 15, Type (0, 0), BuildingBlock: AJUNOK_clean_linker_0, # of connection points: 2
#     Edge 16, Type (0, 0), BuildingBlock: AJUNOK_clean_linker_0, # of connection points: 2
#     Edge 17, Type (0, 0), BuildingBlock: AJUNOK_clean_linker_0, # of connection points: 2
#     Edge 18, Type (0, 0), BuildingBlock: AJUNOK_clean_linker_0, # of connection points: 2
#     Edge 19, Type (0, 0), BuildingBlock: AJUNOK_clean_linker_0, # of connection points: 2
#     Edge 20, Type (0, 0), BuildingBlock: AJUNOK_clean_linker_0, # of connection points: 2
#     Edge 21, Type (0, 0), BuildingBlock: AJUNOK_clean_linker_0, # of connection points: 2
#     Edge 22, Type (0, 0), BuildingBlock: AJUNOK_clean_linker_0, # of connection points: 2
#     Edge 23, Type (0, 0), BuildingBlock: AJUNOK_clean_linker_0, # of connection points: 2
#     Edge 24, Type (0, 0), BuildingBlock: AJUNOK_clean_linker_0, # of connection points: 2
#     Edge 25, Type (0, 0), BuildingBlock: AJUNOK_clean_linker_0, # of connection points: 2
#     Edge 26, Type (0, 0), BuildingBlock: AJUNOK_clean_linker_0, # of connection points: 2
#     Edge 27, Type (0, 0), BuildingBlock: AJUNOK_clean_linker_0, # of connection points: 2
#     Edge 28, Type (0, 0), BuildingBlock: AJUNOK_clean_linker_0, # of connection points: 2
#     Edge 29, Type (0, 0), BuildingBlock: AJUNOK_clean_linker_0, # of connection points: 2
#     Edge 30, Type (0, 0), BuildingBlock: AJUNOK_clean_linker_0, # of connection points: 2
#     Edge 31, Type (0, 0), BuildingBlock: AJUNOK_clean_linker_0, # of connection points: 2
#     Edge 32, Type (0, 0), BuildingBlock: AJUNOK_clean_linker_0, # of connection points: 2
#     Edge 33, Type (0, 0), BuildingBlock: AJUNOK_clean_linker_0, # of connection points: 2
#     Edge 34, Type (0, 0), BuildingBlock: AJUNOK_clean_linker_0, # of connection points: 2
#     Edge 35, Type (0, 0), BuildingBlock: AJUNOK_clean_linker_0, # of connection points: 2
# Relax obj value: 0.136
# Max RMSD: 0.111
# Mean RMSD: 0.111
data_MOF--net-can--node1-UXUYUI_clean_sbu_0--edge1-AJUNOK_clean_linker_0
_symmetry_space_group_name_H-M    P1
_symmetry_Int_Tables_number       1
_symmetry_cell_setting            triclinic
loop_
_symmetry_equiv_pos_as_xyz
'x, y, z'
_cell_length_a     70.821729
_cell_length_b     70.815488
_cell_length_c     30.869845
_cell_angle_alpha  89.988219
_cell_angle_beta   89.989239
_cell_angle_gamma 119.99453
loop_
_atom_site_label
_atom_site_type_symbol
_atom_site_fract_x
_atom_site_fract_y
_atom_site_fract_z
_atom_type_partial_charge
Li0 Li 0.08844 0.43729 0.2564 0.0
Li1 Li 0.06813 0.40131 0.29571 0.0
Li2 Li 0.10352 0.41348 0.25464 0.0
Li3 Li 0.07076 0.40332 0.21626 0.0
C4 C 0.10592 0.44394 0.3348 0.0
N5 N 0.12097 0.47932 0.38992 0.0
C6 C 0.09466 0.44241 0.37304 0.0
C7 C 0.12494 0.46343 0.32479 0.0
C8 C 0.10252 0.46048 0.40045 0.0
C9 C 0.13224 0.48115 0.35299 0.0
C10 C 0.0395 0.41238 0.2331 0.0
C11 C 1.00161 0.3906 0.2134 0.0
N12 N 1.00432 0.40581 0.18337 0.0
C13 C 0.0419 0.42786 0.2022 0.0
C14 C 0.01921 0.39363 0.2389 0.0
C15 C 0.02392 0.42421 0.17731 0.0
C16 C 0.10465 0.48088 0.2268 0.0
N17 N 0.09304 0.46619 0.2583 0.0
C18 C 0.08497 0.49163 0.29241 0.0
C19 C 0.08311 0.47108 0.29052 0.0
C20 C 0.09687 0.5072 0.26039 0.0
C21 C 0.10677 0.5016 0.2272 0.0
H22 H 0.1118 0.47634 0.20078 0.0
H23 H 0.07351 0.45888 0.31452 0.0
C24 C 0.05647 0.37613 0.37333 0.0
N25 N 0.05123 0.38799 0.34634 0.0
C26 C 0.04525 0.36813 0.41244 0.0
C27 C 0.02329 0.38442 0.39482 0.0
C28 C 0.03495 0.39215 0.35619 0.0
C29 C 0.02861 0.37252 0.42382 0.0
H30 H 0.06963 0.37324 0.36482 0.0
H31 H 0.03142 0.40201 0.33459 0.0
C32 C 0.11811 0.43432 0.18316 0.0
N33 N 0.15612 0.44365 0.14049 0.0
C34 C 0.11784 0.42031 0.15095 0.0
C35 C 0.13769 0.45314 0.19347 0.0
C36 C 0.13723 0.42531 0.12976 0.0
C37 C 0.15674 0.45755 0.17161 0.0
C38 C 0.06375 0.36378 0.23921 0.0
C39 C 0.06973 0.35797 0.20044 0.0
C40 C 0.04493 0.34849 0.26094 0.0
C41 C 0.05669 0.33698 0.1839 0.0
C42 C 0.03235 0.32764 0.24337 0.0
N43 N 0.03843 0.32237 0.20553 0.0
C44 C 0.14689 0.42677 0.28183 0.0
C45 C 0.13254 0.39836 0.22991 0.0
C46 C 0.16683 0.42718 0.28171 0.0
N47 N 0.1303 0.41266 0.2558 0.0
C48 C 0.15222 0.39827 0.22865 0.0
C49 C 0.16976 0.41297 0.25448 0.0
H50 H 0.14472 0.43783 0.30246 0.0
H51 H 0.11914 0.38719 0.20976 0.0
C52 C 0.06171 0.40435 0.12796 0.0
N53 N 0.05422 0.39133 0.16357 0.0
C54 C 0.05039 0.39775 0.08879 0.0
C55 C 0.02349 0.36454 0.1235 0.0
C56 C 0.03524 0.37189 0.16217 0.0
C57 C 0.03112 0.37748 0.08602 0.0
H58 H 0.07629 0.42015 0.13018 0.0
H59 H 0.02895 0.36221 0.19116 0.0
O60 O 0.09833 0.42649 0.30728 0.0
O61 O 0.05707 0.41534 0.2568 0.0
O62 O 0.0994 0.42939 0.20509 0.0
O63 O 0.07637 0.38418 0.25622 0.0
H64 H 0.07999 0.42747 0.38149 0.0
H65 H 0.13379 0.46499 0.29525 0.0
H66 H 0.09393 0.45953 0.43008 0.0
H67 H 0.14683 0.49637 0.34545 0.0
H68 H 0.98584 0.3761 0.21732 0.0
H69 H 0.05756 0.44238 0.19713 0.0
H70 H 0.01717 0.38138 0.26237 0.0
H71 H 0.02555 0.43598 0.15308 0.0
H72 H 0.07705 0.49525 0.3185 0.0
H73 H 0.11552 0.51286 0.20114 0.0
H74 H 0.04965 0.35877 0.43369 0.0
H75 H 0.01071 0.38832 0.40259 0.0
H76 H 0.10289 0.40556 0.1428 0.0
H77 H 0.13824 0.46412 0.21839 0.0
H78 H 0.13728 0.41455 0.10497 0.0
H79 H 0.17204 0.47199 0.17947 0.0
H80 H 0.08402 0.36965 0.18282 0.0
H81 H 0.04002 0.35268 0.29092 0.0
H82 H 0.06103 0.33232 0.15376 0.0
H83 H 0.01772 0.31567 0.25978 0.0
H84 H 0.17995 0.43874 0.3022 0.0
H85 H 0.15364 0.38672 0.20787 0.0
H86 H 0.05642 0.40867 0.06126 0.0
H87 H 0.00854 0.34893 0.12299 0.0
Li88 Li 0.65585 0.08554 0.75438 0.0
Li89 Li 0.67225 0.06602 0.79366 0.0
Li90 Li 0.69487 0.10169 0.75347 0.0
Li91 Li 0.67321 0.06889 0.71431 0.0
C92 C 0.66577 0.10284 0.8328 0.0
N93 N 0.64403 0.11668 0.88704 0.0
C94 C 0.65619 0.09148 0.87105 0.0
C95 C 0.66435 0.1213 0.82227 0.0
C96 C 0.64528 0.09874 0.89802 0.0
C97 C 0.65326 0.12801 0.85005 0.0
C98 C 0.63311 0.03712 0.72905 0.0
C99 C 0.61882 1.00014 0.70432 0.0
N100 N 0.60546 1.00278 0.6764 0.0
C101 C 0.61921 0.03946 0.70019 0.0
C102 C 0.63292 0.01731 0.73123 0.0
C103 C 0.60536 0.0219 0.67382 0.0
C104 C 0.62789 0.10102 0.72454 0.0
N105 N 0.6311 0.08943 0.75588 0.0
C106 C 0.59744 0.08083 0.7899 0.0
C107 C 0.61624 0.07919 0.7879 0.0
C108 C 0.59363 0.09274 0.7581 0.0
C109 C 0.60913 0.10284 0.72495 0.0
H110 H 0.63965 0.10843 0.6987 0.0
H111 H 0.61896 0.06964 0.81179 0.0
C112 C 0.68493 0.05674 0.87473 0.0
N113 N 0.66903 0.0491 0.84403 0.0
C114 C 0.68173 0.04525 0.91347 0.0
C115 C 0.64614 0.01805 0.88768 0.0
C116 C 0.6499 0.03017 0.84978 0.0
C117 C 0.6621 0.02565 0.92022 0.0
H118 H 0.69985 0.07202 0.86953 0.0
H119 H 0.63728 0.02479 0.82547 0.0
C120 C 0.68895 0.11573 0.68139 0.0
N121 N 0.71821 0.15344 0.63863 0.0
C122 C 0.70343 0.11532 0.65115 0.0
C123 C 0.68924 0.13528 0.68969 0.0
C124 C 0.71812 0.13457 0.6299 0.0
C125 C 0.70419 0.15418 0.66779 0.0
C126 C 0.70622 0.0626 0.73897 0.0
C127 C 0.71875 0.06874 0.70112 0.0
C128 C 0.70253 0.04386 0.76123 0.0
C129 C 0.72729 0.05594 0.68606 0.0
C130 C 0.71137 0.03151 0.74513 0.0
N131 N 0.72346 0.03775 0.70819 0.0
C132 C 0.72323 0.14645 0.77517 0.0
C133 C 0.73981 0.13027 0.73463 0.0
C134 C 0.74255 0.16657 0.77457 0.0
N135 N 0.72211 0.12886 0.75494 0.0
C136 C 0.75947 0.15005 0.73329 0.0
C137 C 0.76095 0.16861 0.75302 0.0
H138 H 0.70905 0.14497 0.79133 0.0
H139 H 0.73864 0.11608 0.71912 0.0
C140 C 0.66232 0.05983 0.62686 0.0
N141 N 0.66938 0.05295 0.66111 0.0
C142 C 0.65755 0.04881 0.58737 0.0
C143 C 0.66726 0.0236 0.61878 0.0
C144 C 0.67153 0.03494 0.65795 0.0
C145 C 0.66025 0.03057 0.5827 0.0
H146 H 0.65984 0.07361 0.63052 0.0
H147 H 0.67605 0.02898 0.68597 0.0
O148 O 0.67629 0.09581 0.8057 0.0
O149 O 0.64725 0.05433 0.75417 0.0
O150 O 0.67497 0.09721 0.70361 0.0
O151 O 0.69793 0.07504 0.75467 0.0
H152 H 0.65706 0.07715 0.87977 0.0
H153 H 0.67128 0.13007 0.79246 0.0
H154 H 0.63774 0.09006 0.92765 0.0
H155 H 0.65188 0.14214 0.84207 0.0
H156 H 0.61861 0.98477 0.70543 0.0
H157 H 0.61931 0.05475 0.69778 0.0
H158 H 0.64385 0.01535 0.75284 0.0
H159 H 0.59459 0.02351 0.65118 0.0
H160 H 0.58593 0.07277 0.81599 0.0
H161 H 0.60653 0.11157 0.69899 0.0
H162 H 0.69432 0.05168 0.93806 0.0
H163 H 0.6306 1.00328 0.89219 0.0
H164 H 0.70351 0.10037 0.64452 0.0
H165 H 0.67828 0.13593 0.71326 0.0
H166 H 0.72951 0.13453 0.60661 0.0
H167 H 0.70472 0.16946 0.67413 0.0
H168 H 0.72155 0.08299 0.68309 0.0
H169 H 0.69291 0.03885 0.79057 0.0
H170 H 0.73689 0.06042 0.65666 0.0
H171 H 0.7086 0.01695 0.76198 0.0
H172 H 0.743 0.18047 0.79023 0.0
H173 H 0.77341 0.15076 0.71724 0.0
H174 H 0.65128 0.05423 0.56112 0.0
H175 H 0.66929 0.00945 0.61685 0.0
Li176 Li 0.60798 0.66901 0.294 0.0
Li177 Li 0.57202 0.65274 0.25426 0.0
Li178 Li 0.60629 0.66968 0.21476 0.0
Li179 Li 0.59533 0.69203 0.25267 0.0
C180 C 0.59864 0.63 0.23166 0.0
N181 N 0.60785 0.60312 0.18216 0.0
C182 C 0.58338 0.6157 0.20175 0.0
C183 C 0.61852 0.63054 0.23666 0.0
C184 C 0.58836 0.60226 0.17697 0.0
C185 C 0.62288 0.61683 0.21126 0.0
C186 C 0.5651 0.66449 0.33284 0.0
C187 C 0.52876 0.65619 0.35233 0.0
N188 N 0.52995 0.64606 0.38882 0.0
C189 C 0.56604 0.65415 0.37069 0.0
C190 C 0.54639 0.66567 0.32371 0.0
C191 C 0.54807 0.64489 0.39853 0.0
C192 C 0.63306 0.68254 0.37194 0.0
N193 N 0.62143 0.6656 0.34447 0.0
C194 C 0.62579 0.6412 0.3914 0.0
C195 C 0.61769 0.64522 0.35344 0.0
C196 C 0.6378 0.65832 0.42054 0.0
C197 C 0.64142 0.67923 0.41048 0.0
H198 H 0.63552 0.69852 0.36423 0.0
H199 H 0.60793 0.63194 0.33157 0.0
C200 C 0.53007 0.62433 0.21997 0.0
N201 N 0.54318 0.62836 0.25502 0.0
C202 C 0.50963 0.60544 0.21823 0.0
C203 C 0.5164 0.5954 0.28898 0.0
C204 C 0.53685 0.61428 0.28904 0.0
C205 C 0.50271 0.5907 0.25297 0.0
H206 H 0.53574 0.63547 0.19284 0.0
H207 H 0.5479 0.61744 0.31574 0.0
C208 C 0.64521 0.70429 0.23768 0.0
N209 N 0.68679 0.72429 0.20332 0.0
C210 C 0.64985 0.71639 0.19945 0.0
C211 C 0.66172 0.70244 0.25859 0.0
C212 C 0.67097 0.72634 0.18254 0.0
C213 C 0.68264 0.71267 0.24067 0.0
C214 C 0.57324 0.68351 0.17944 0.0
C215 C 0.58532 0.69555 0.14359 0.0
C216 C 0.55414 0.68352 0.19074 0.0
C217 C 0.57818 0.70761 0.11987 0.0
C218 C 0.54756 0.69581 0.16626 0.0
N219 N 0.55962 0.70751 0.13164 0.0
C220 C 0.60493 0.65757 0.12794 0.0
C221 C 0.63913 0.66828 0.16031 0.0
C222 C 0.61157 0.65229 0.08945 0.0
N223 N 0.61869 0.6655 0.1624 0.0
C224 C 0.64655 0.66346 0.12224 0.0
C225 C 0.63259 0.65507 0.08629 0.0
H226 H 0.58851 0.65477 0.13074 0.0
H227 H 0.64955 0.6737 0.18844 0.0
C228 C 0.58578 0.7234 0.28783 0.0
N229 N 0.59547 0.71926 0.25397 0.0
C230 C 0.58503 0.74275 0.2893 0.0
C231 C 0.60446 0.75342 0.22131 0.0
C232 C 0.60506 0.73399 0.22142 0.0
C233 C 0.59417 0.75794 0.25537 0.0
H234 H 0.5787 0.71171 0.31386 0.0
H235 H 0.613 0.73061 0.19521 0.0
O236 O 0.59437 0.64382 0.25508 0.0
O237 O 0.58245 0.67348 0.30499 0.0
O238 O 0.62472 0.69455 0.255 0.0
O239 O 0.58006 0.67175 0.2033 0.0
H240 H 0.56797 0.61519 0.19735 0.0
H241 H 0.63059 0.64171 0.25936 0.0
H242 H 0.57678 0.59121 0.15347 0.0
H243 H 0.63827 0.6172 0.2145 0.0
H244 H 0.51413 0.65688 0.34553 0.0
H245 H 0.5804 0.65315 0.37839 0.0
H246 H 0.54546 0.67376 0.29476 0.0
H247 H 0.54852 0.63673 0.42782 0.0
H248 H 0.62213 0.62473 0.3985 0.0
H249 H 0.65049 0.69279 0.4323 0.0
H250 H 0.49946 0.60222 0.18988 0.0
H251 H 0.51166 0.58419 0.31603 0.0
H252 H 0.63722 0.71778 0.18264 0.0
H253 H 0.65839 0.69313 0.28821 0.0
H254 H 0.67477 0.73563 0.15281 0.0
H255 H 0.69557 0.71133 0.25642 0.0
H256 H 0.60024 0.69587 0.13454 0.0
H257 H 0.54451 0.67416 0.21816 0.0
H258 H 0.58745 0.71712 0.09223 0.0
H259 H 0.53286 0.69604 0.17477 0.0
H260 H 0.60016 0.64558 0.06278 0.0
H261 H 0.663 0.66617 0.12111 0.0
H262 H 0.57755 0.74584 0.31693 0.0
H263 H 0.61176 0.76466 0.19452 0.0
Li264 Li 0.92312 0.57035 0.75661 0.0
Li265 Li 0.94241 0.6054 0.79452 0.0
Li266 Li 0.90825 0.59552 0.75255 0.0
Li267 Li 0.943 0.60616 0.71576 0.0
C268 C 0.89504 0.56426 0.82604 0.0
N269 N 0.86044 0.53032 0.86889 0.0
C270 C 0.89696 0.5603 0.86974 0.0
C271 C 0.87543 0.55114 0.80436 0.0
C272 C 0.87931 0.54301 0.89078 0.0
C273 C 0.85815 0.53403 0.82651 0.0
C274 C 0.97367 0.59638 0.77438 0.0
C275 C 0.01123 0.62128 0.79269 0.0
N276 N 0.01181 0.60522 0.81578 0.0
C277 C 0.9747 0.58006 0.7979 0.0
C278 C 0.99212 0.61711 0.77139 0.0
C279 C 0.99411 0.58487 0.81874 0.0
C280 C 0.91669 0.53124 0.71947 0.0
N281 N 0.91723 0.54107 0.75764 0.0
C282 C 0.91341 0.51041 0.79745 0.0
C283 C 0.91563 0.53113 0.79623 0.0
C284 C 0.91294 0.49991 0.75857 0.0
C285 C 0.91446 0.5105 0.71917 0.0
H286 H 0.9186 0.53979 0.6893 0.0
H287 H 0.91687 0.53958 0.82614 0.0
C288 C 0.96935 0.63918 0.85558 0.0
N289 N 0.95849 0.61746 0.84671 0.0
C290 C 0.9815 0.64694 0.89383 0.0
C291 C 0.97094 0.60983 0.91282 0.0
C292 C 0.95894 0.60283 0.87455 0.0
C293 C 0.98244 0.63214 0.92287 0.0
H294 H 0.96873 0.65049 0.83288 0.0
H295 H 0.95017 0.58565 0.86665 0.0
C296 C 0.89795 0.56989 0.67421 0.0
N297 N 0.86591 0.54892 0.61224 0.0
C298 C 0.89883 0.58034 0.63521 0.0
C299 C 0.88099 0.54858 0.68124 0.0
C300 C 0.88242 0.56953 0.60442 0.0
C301 C 0.8649 0.5383 0.64964 0.0
C302 C 0.94471 0.64389 0.73565 0.0
C303 C 0.93107 0.64992 0.71451 0.0
C304 C 0.96722 0.65816 0.73586 0.0
C305 C 0.94025 0.67003 0.69329 0.0
C306 C 0.97578 0.67809 0.7142 0.0
N307 N 0.96223 0.68356 0.69351 0.0
C308 C 0.8717 0.59576 0.78946 0.0
C309 C 0.87339 0.59871 0.71298 0.0
C310 C 0.85193 0.5957 0.78993 0.0
N311 N 0.88179 0.59682 0.75129 0.0
C312 C 0.85369 0.59876 0.71194 0.0
C313 C 0.84253 0.59691 0.75073 0.0
H314 H 0.8789 0.59472 0.81962 0.0
H315 H 0.88205 0.60039 0.6832 0.0
C316 C 0.97622 0.61407 0.65674 0.0
N317 N 0.96018 0.61885 0.66464 0.0
C318 C 0.98863 0.62138 0.61892 0.0
C319 C 0.96779 0.63836 0.59761 0.0
C320 C 0.95576 0.63073 0.63596 0.0
C321 C 0.98449 0.6337 0.58875 0.0
H322 H 0.97907 0.60412 0.67936 0.0
H323 H 0.9426 0.63389 0.64227 0.0
O324 O 0.91227 0.58099 0.80482 0.0
O325 O 0.95467 0.59211 0.75447 0.0
O326 O 0.91402 0.58021 0.70456 0.0
O327 O 0.93602 0.62424 0.75641 0.0
H328 H 0.91191 0.57043 0.88724 0.0
H329 H 0.87347 0.55432 0.77096 0.0
H330 H 0.88062 0.53969 0.92452 0.0
H331 H 0.84288 0.52375 0.81005 0.0
H332 H 0.02559 0.63729 0.79086 0.0
H333 H 0.96062 0.5639 0.80039 0.0
H334 H 0.99168 0.62983 0.75286 0.0
H335 H 0.9951 0.57244 0.83732 0.0
H336 H 0.91244 0.50283 0.82847 0.0
H337 H 0.91473 0.50318 0.68854 0.0
H338 H 0.99037 0.66429 0.90023 0.0
H339 H 0.97116 0.5979 0.93447 0.0
H340 H 0.9119 0.59673 0.62897 0.0
H341 H 0.88035 0.53991 0.71051 0.0
H342 H 0.88281 0.57753 0.57431 0.0
H343 H 0.85166 0.52184 0.65477 0.0
H344 H 0.9136 0.63918 0.71434 0.0
H345 H 0.97798 0.65386 0.75245 0.0
H346 H 0.92989 0.67485 0.67661 0.0
H347 H 0.99319 0.68923 0.71387 0.0
H348 H 0.84391 0.59438 0.82058 0.0
H349 H 0.84736 0.60043 0.68112 0.0
H350 H 1.00094 0.6169 0.61279 0.0
H351 H 0.964 0.6477 0.57501 0.0
Li352 Li 0.34145 0.94301 0.29379 0.0
Li353 Li 0.35706 0.9228 0.25271 0.0
Li354 Li 0.34042 0.9401 0.21591 0.0
Li355 Li 0.31689 0.90693 0.25353 0.0
C356 C 0.37993 0.97212 0.22993 0.0
N357 N 0.40568 0.00791 0.17861 0.0
C358 C 0.393 0.97076 0.19757 0.0
C359 C 0.38005 0.99172 0.23638 0.0
C360 C 0.40587 0.98902 0.17189 0.0
C361 C 0.39318 0.00963 0.21008 0.0
C362 C 0.34094 0.90423 0.3395 0.0
C363 C 0.33497 0.8732 0.38235 0.0
N364 N 0.3488 0.88692 0.41304 0.0
C365 C 0.35496 0.918 0.37166 0.0
C366 C 0.33073 0.88163 0.34505 0.0
C367 C 0.35878 0.90894 0.40851 0.0
C368 C 0.32808 0.95246 0.3739 0.0
N369 N 0.34477 0.95941 0.34508 0.0
C370 C 0.36839 0.98837 0.39249 0.0
C371 C 0.36464 0.97703 0.35353 0.0
C372 C 0.35165 0.9813 0.42334 0.0
C373 C 0.33119 0.96323 0.41354 0.0
H374 H 0.31253 0.93824 0.36652 0.0
H375 H 0.3778 0.98185 0.33061 0.0
C376 C 0.38751 0.9134 0.21324 0.0
N377 N 0.381 0.91737 0.25198 0.0
C378 C 0.40609 0.91134 0.21065 0.0
C379 C 0.41088 0.91728 0.2879 0.0
C380 C 0.39226 0.91932 0.28896 0.0
C381 C 0.41818 0.91361 0.24825 0.0
H382 H 0.37863 0.91244 0.18407 0.0
H383 H 0.3873 0.9232 0.31907 0.0
C384 C 0.30426 0.94208 0.23384 0.0
N385 N 0.28118 0.95763 0.18872 0.0
C386 C 0.29285 0.93145 0.19634 0.0
C387 C 0.30377 0.96047 0.24872 0.0
C388 C 0.28134 0.93962 0.17388 0.0
C389 C 0.29203 0.96811 0.22537 0.0
C390 C 0.3327 0.89076 0.191 0.0
C391 C 0.32721 0.88376 0.14815 0.0
C392 C 0.3343 0.87699 0.22137 0.0
C393 C 0.32343 0.86309 0.13643 0.0
C394 C 0.33042 0.85647 0.20841 0.0
N395 N 0.3251 0.84999 0.16655 0.0
C396 C 0.34858 0.94867 0.12708 0.0
C397 C 0.34233 0.97473 0.16248 0.0
C398 C 0.35306 0.9602 0.08819 0.0
N399 N 0.34347 0.95611 0.16331 0.0
C400 C 0.34666 0.98676 0.12421 0.0
C401 C 0.35245 0.97969 0.08659 0.0
H402 H 0.34988 0.93413 0.12873 0.0
H403 H 0.33877 0.98067 0.19179 0.0
C404 C 0.28027 0.8717 0.29424 0.0
N405 N 0.2894 0.88057 0.25533 0.0
C406 C 0.26055 0.85197 0.2961 0.0
C407 C 0.25966 0.85121 0.21784 0.0
C408 C 0.2794 0.87091 0.2175 0.0
C409 C 0.25012 0.84136 0.25751 0.0
H410 H 0.28837 0.87992 0.32385 0.0
H411 H 0.28683 0.87844 0.18697 0.0
O412 O 0.36676 0.95422 0.25456 0.0
O413 O 0.33661 0.91282 0.30361 0.0
O414 O 0.31572 0.93445 0.25613 0.0
O415 O 0.33608 0.91083 0.20299 0.0
H416 H 0.39299 0.95569 0.19196 0.0
H417 H 0.36977 0.99297 0.26082 0.0
H418 H 0.41594 0.98816 0.14652 0.0
H419 H 0.3933 0.02485 0.21446 0.0
H420 H 0.32722 0.85575 0.38697 0.0
H421 H 0.3631 0.9355 0.36797 0.0
H422 H 0.31955 0.87065 0.32094 0.0
H423 H 0.3697 0.91943 0.43348 0.0
H424 H 0.38445 1.00207 0.3991 0.0
H425 H 0.31784 0.9574 0.43643 0.0
H426 H 0.41116 0.90837 0.1795 0.0
H427 H 0.41996 0.9194 0.31748 0.0
H428 H 0.29313 0.91722 0.18445 0.0
H429 H 0.31249 0.96881 0.27781 0.0
H430 H 0.27257 0.93167 0.14461 0.0
H431 H 0.29159 0.98239 0.23633 0.0
H432 H 0.3257 0.8941 0.12425 0.0
H433 H 0.33868 0.88217 0.25446 0.0
H434 H 0.31912 0.85746 0.10341 0.0
H435 H 0.33167 0.84569 0.23162 0.0
H436 H 0.35767 0.95431 0.06001 0.0
H437 H 0.34576 1.00158 0.12422 0.0
H438 H 0.25347 0.84515 0.32735 0.0
H439 H 0.2521 0.84357 0.18739 0.0
Li440 Li 0.44061 0.35443 0.7578 0.0
Li441 Li 0.40523 0.33864 0.79565 0.0
Li442 Li 0.41647 0.31524 0.75337 0.0
Li443 Li 0.40558 0.33842 0.7149 0.0
C444 C 0.44724 0.33968 0.83339 0.0
N445 N 0.48293 0.35386 0.88736 0.0
C446 C 0.4466 0.34669 0.8754 0.0
C447 C 0.46594 0.33964 0.81902 0.0
C448 C 0.46484 0.35386 0.90216 0.0
C449 C 0.48384 0.34695 0.84672 0.0
C450 C 0.4132 0.37959 0.76089 0.0
C451 C 0.38769 0.39261 0.75416 0.0
N452 N 0.40264 0.41197 0.77185 0.0
C453 C 0.42843 0.39976 0.77838 0.0
C454 C 0.39275 0.37609 0.74818 0.0
C455 C 0.42274 0.41586 0.78393 0.0
C456 C 0.48268 0.3844 0.72498 0.0
N457 N 0.4696 0.37856 0.76051 0.0
C458 C 0.49641 0.40956 0.79951 0.0
C459 C 0.47609 0.39063 0.79741 0.0
C460 C 0.50998 0.41649 0.76287 0.0
C461 C 0.50309 0.40342 0.72548 0.0
H462 H 0.47698 0.37465 0.69585 0.0
H463 H 0.46522 0.38588 0.82492 0.0
C464 C 0.37399 0.32605 0.8652 0.0
N465 N 0.39247 0.34247 0.8472 0.0
C466 C 0.36573 0.32954 0.90375 0.0
C467 C 0.39579 0.36661 0.9046 0.0
C468 C 0.40348 0.36238 0.86634 0.0
C469 C 0.37668 0.3501 0.9239 0.0
H470 H 0.36581 0.31018 0.84996 0.0
H471 H 0.41857 0.37488 0.85241 0.0
C472 C 0.43721 0.32392 0.67807 0.0
N473 N 0.447 0.29859 0.62494 0.0
C474 C 0.42326 0.31213 0.64404 0.0
C475 C 0.45629 0.32307 0.68473 0.0
C476 C 0.42846 0.29936 0.61761 0.0
C477 C 0.46091 0.3101 0.65763 0.0
C478 C 0.36562 0.30494 0.74655 0.0
C479 C 0.35411 0.28489 0.72531 0.0
C480 C 0.35467 0.31582 0.7595 0.0
C481 C 0.33197 0.27633 0.71642 0.0
C482 C 0.33252 0.30674 0.75006 0.0
N483 N 0.32172 0.28736 0.72882 0.0
C484 C 0.42715 0.2835 0.78164 0.0
C485 C 0.40361 0.27268 0.72092 0.0
C486 C 0.4272 0.2638 0.78091 0.0
N487 N 0.4156 0.28765 0.75174 0.0
C488 C 0.40306 0.25267 0.71919 0.0
C489 C 0.4151 0.24806 0.74929 0.0
H490 H 0.43634 0.29545 0.80617 0.0
H491 H 0.3945 0.27628 0.69756 0.0
C492 C 0.40355 0.36422 0.64912 0.0
N493 N 0.39349 0.34324 0.66336 0.0
C494 C 0.39628 0.36974 0.61181 0.0
C495 C 0.36889 0.33182 0.60317 0.0
C496 C 0.37658 0.32705 0.64101 0.0
C497 C 0.37865 0.35346 0.58848 0.0
H498 H 0.41734 0.37671 0.66676 0.0
H499 H 0.36926 0.3104 0.65207 0.0
O500 O 0.42963 0.33285 0.80656 0.0
O501 O 0.41857 0.36365 0.75513 0.0
O502 O 0.43219 0.33619 0.70476 0.0
O503 O 0.38735 0.31358 0.75538 0.0
H504 H 0.43219 0.34659 0.88728 0.0
H505 H 0.46667 0.33419 0.7867 0.0
H506 H 0.4646 0.35941 0.93469 0.0
H507 H 0.49846 0.34713 0.8359 0.0
H508 H 0.3719 0.39007 0.7445 0.0
H509 H 0.44444 0.40293 0.78787 0.0
H510 H 0.38102 0.36094 0.73316 0.0
H511 H 0.43432 0.43146 0.79777 0.0
H512 H 0.50127 0.41889 0.82928 0.0
H513 H 0.51304 0.40823 0.69649 0.0
H514 H 0.35128 0.31617 0.91813 0.0
H515 H 0.40481 0.38265 0.91909 0.0
H516 H 0.40844 0.31261 0.63844 0.0
H517 H 0.4674 0.33231 0.71055 0.0
H518 H 0.41772 0.29001 0.59137 0.0
H519 H 0.47556 0.30919 0.66255 0.0
H520 H 0.36219 0.27606 0.71551 0.0
H521 H 0.3631 0.33102 0.77704 0.0
H522 H 0.32292 0.26091 0.69968 0.0
H523 H 0.32389 0.31506 0.75978 0.0
H524 H 0.43676 0.26098 0.80471 0.0
H525 H 0.39308 0.24085 0.69489 0.0
H526 H 0.40459 0.38653 0.60091 0.0
H527 H 0.35539 0.3188 0.58573 0.0
Li528 Li 0.60385 0.94133 0.29313 0.0
Li529 Li 0.59195 0.90543 0.25491 0.0
Li530 Li 0.60458 0.94107 0.21247 0.0
Li531 Li 0.57135 0.92389 0.25273 0.0
C532 C 0.6402 0.93483 0.26856 0.0
N533 N 0.67847 0.93789 0.29804 0.0
C534 C 0.63956 0.91982 0.29874 0.0
C535 C 0.66029 0.95125 0.25296 0.0
C536 C 0.65909 0.92168 0.31338 0.0
C537 C 0.67946 0.95257 0.26839 0.0
C538 C 0.55968 0.90418 0.32725 0.0
C539 C 0.52424 0.87452 0.34709 0.0
N540 N 0.5207 0.88852 0.37122 0.0
C541 C 0.55575 0.91826 0.3524 0.0
C542 C 0.54385 0.88211 0.32462 0.0
C543 C 0.53591 0.91004 0.3743 0.0
C544 C 0.61175 0.97345 0.35587 0.0
N545 N 0.6168 0.95783 0.34527 0.0
C546 C 0.63761 0.96496 0.41052 0.0
C547 C 0.62924 0.95323 0.37205 0.0
C548 C 0.63318 0.98161 0.42125 0.0
C549 C 0.62004 0.98577 0.39351 0.0
H550 H 0.60093 0.97615 0.3355 0.0
H551 H 0.63238 0.94024 0.36414 0.0
C552 C 0.59938 0.87283 0.21982 0.0
N553 N 0.59225 0.87865 0.25555 0.0
C554 C 0.59974 0.85326 0.21926 0.0
C555 C 0.58541 0.84606 0.29221 0.0
C556 C 0.5855 0.86584 0.29151 0.0
C557 C 0.59249 0.83953 0.25566 0.0
H558 H 0.60475 0.8834 0.19176 0.0
H559 H 0.58035 0.87107 0.3198 0.0
C560 C 0.6079 0.97742 0.24967 0.0
N561 N 0.63759 0.02163 0.24571 0.0
C562 C 0.60078 0.99234 0.24208 0.0
C563 C 0.63017 0.98507 0.25501 0.0
C564 C 0.61602 0.0146 0.24024 0.0
C565 C 0.6449 0.00744 0.25301 0.0
C566 C 0.56112 0.90141 0.17819 0.0
C567 C 0.55479 0.91389 0.15366 0.0
C568 C 0.54863 0.87867 0.17711 0.0
C569 C 0.53576 0.90337 0.12891 0.0
C570 C 0.52974 0.86876 0.15184 0.0
N571 N 0.52373 0.88121 0.12853 0.0
C572 C 0.63459 0.95496 0.14091 0.0
C573 C 0.61056 0.96915 0.14377 0.0
C574 C 0.64369 0.96623 0.10221 0.0
N575 N 0.61833 0.95664 0.16073 0.0
C576 C 0.61934 0.98085 0.10564 0.0
C577 C 0.636 0.97935 0.08423 0.0
H578 H 0.64034 0.94475 0.15492 0.0
H579 H 0.59733 0.96986 0.15965 0.0
C580 C 0.54054 0.93747 0.25649 0.0
N581 N 0.54213 0.91924 0.25174 0.0
C582 C 0.52028 0.93623 0.25498 0.0
C583 C 0.50334 0.89725 0.24524 0.0
C584 C 0.52402 0.89928 0.24673 0.0
C585 C 0.50141 0.91597 0.24872 0.0
H586 H 0.55504 0.95303 0.26159 0.0
H587 H 0.52557 0.88492 0.24378 0.0
O588 O 0.62125 0.93304 0.25315 0.0
O589 O 0.57884 0.91203 0.30494 0.0
O590 O 0.59307 0.95551 0.25097 0.0
O591 O 0.57959 0.91136 0.20286 0.0
H592 H 0.62418 0.90707 0.3113 0.0
H593 H 0.66109 0.96283 0.22911 0.0
H594 H 0.65883 0.91026 0.33698 0.0
H595 H 0.69513 0.96524 0.25672 0.0
H596 H 0.51177 0.85751 0.34512 0.0
H597 H 0.56778 0.9354 0.35456 0.0
H598 H 0.54648 0.87104 0.30479 0.0
H599 H 0.53259 0.92078 0.39367 0.0
H600 H 0.64747 0.96113 0.43159 0.0
H601 H 0.61582 0.99812 0.40137 0.0
H602 H 0.60534 0.84876 0.1905 0.0
H603 H 0.58009 0.8361 0.32117 0.0
H604 H 0.58367 0.98682 0.23731 0.0
H605 H 0.63606 0.97394 0.26106 0.0
H606 H 0.61071 0.02628 0.23436 0.0
H607 H 0.66216 0.01353 0.25728 0.0
H608 H 0.5643 0.93151 0.15422 0.0
H609 H 0.55339 0.8688 0.19586 0.0
H610 H 0.53053 0.91281 0.11005 0.0
H611 H 0.51982 0.85118 0.15086 0.0
H612 H 0.65659 0.96477 0.08658 0.0
H613 H 0.61283 0.99061 0.09247 0.0
H614 H 0.51937 0.95095 0.25893 0.0
H615 H 0.48908 0.88132 0.24075 0.0
Li616 Li 0.6685 0.60321 0.79353 0.0
Li617 Li 0.69249 0.59398 0.75638 0.0
Li618 Li 0.66855 0.60581 0.71553 0.0
Li619 Li 0.65239 0.56964 0.75505 0.0
C620 C 0.7067 0.64122 0.77736 0.0
N621 N 0.73306 0.67888 0.82315 0.0
C622 C 0.7174 0.64038 0.81471 0.0
C623 C 0.7095 0.66118 0.76304 0.0
C624 C 0.73062 0.65961 0.8375 0.0
C625 C 0.72289 0.68005 0.78672 0.0
C626 C 0.67537 0.56102 0.81737 0.0
C627 C 0.67873 0.52974 0.79889 0.0
N628 N 0.68153 0.5269 0.8415 0.0
C629 C 0.67824 0.55777 0.86098 0.0
C630 C 0.6756 0.54689 0.78606 0.0
C631 C 0.68135 0.54044 0.87253 0.0
C632 C 0.65577 0.60081 0.87969 0.0
N633 N 0.66479 0.61529 0.8466 0.0
C634 C 0.66561 0.64361 0.89031 0.0
C635 C 0.66956 0.63635 0.85105 0.0
C636 C 0.65643 0.62902 0.92516 0.0
C637 C 0.6513 0.60729 0.91926 0.0
H638 H 0.65155 0.58402 0.87497 0.0
H639 H 0.67601 0.64744 0.82399 0.0
C640 C 0.73012 0.59759 0.71647 0.0
N641 N 0.72006 0.59524 0.75523 0.0
C642 C 0.75002 0.59796 0.71436 0.0
C643 C 0.74914 0.59406 0.79222 0.0
C644 C 0.72924 0.59372 0.79282 0.0
C645 C 0.75967 0.59597 0.75257 0.0
H646 H 0.72263 0.59912 0.68715 0.0
H647 H 0.72108 0.59216 0.82331 0.0
C648 C 0.63083 0.59894 0.77494 0.0
N649 N 0.60777 0.61453 0.82012 0.0
C650 C 0.61453 0.58543 0.80408 0.0
C651 C 0.63533 0.62035 0.76858 0.0
C652 C 0.60308 0.59363 0.82669 0.0
C653 C 0.62349 0.62792 0.79173 0.0
C654 C 0.66949 0.56885 0.66795 0.0
C655 C 0.65447 0.56825 0.63781 0.0
C656 C 0.68072 0.55771 0.65923 0.0
C657 C 0.65091 0.55648 0.59944 0.0
C658 C 0.67667 0.54609 0.62053 0.0
N659 N 0.66199 0.54573 0.59168 0.0
C660 C 0.68316 0.63028 0.63733 0.0
C661 C 0.64599 0.61685 0.65481 0.0
C662 C 0.68058 0.63851 0.59791 0.0
N663 N 0.66591 0.61954 0.66458 0.0
C664 C 0.64272 0.62488 0.61595 0.0
C665 C 0.66006 0.63557 0.58663 0.0
H666 H 0.69877 0.63201 0.6458 0.0
H667 H 0.63244 0.60784 0.6766 0.0
C668 C 0.61867 0.53279 0.79442 0.0
N669 N 0.62885 0.54012 0.75562 0.0
C670 C 0.60002 0.51226 0.79771 0.0
C671 C 0.6032 0.50667 0.72145 0.0
C672 C 0.62172 0.52738 0.71959 0.0
C673 C 0.59185 0.49913 0.76068 0.0
H674 H 0.6248 0.54317 0.82268 0.0
H675 H 0.63 0.53335 0.68914 0.0
O676 O 0.69354 0.62259 0.75482 0.0
O677 O 0.6725 0.57806 0.80575 0.0
O678 O 0.64265 0.59143 0.7534 0.0
O679 O 0.67351 0.58062 0.70538 0.0
H680 H 0.71526 0.62501 0.82627 0.0
H681 H 0.70131 0.66203 0.73413 0.0
H682 H 0.73889 0.65921 0.86663 0.0
H683 H 0.72515 0.69562 0.77617 0.0
H684 H 0.67893 0.51868 0.77496 0.0
H685 H 0.67816 0.56861 0.88563 0.0
H686 H 0.67331 0.54907 0.75226 0.0
H687 H 0.68364 0.53777 0.90616 0.0
H688 H 0.66963 0.66045 0.89331 0.0
H689 H 0.64346 0.59527 0.94459 0.0
H690 H 0.75786 0.59995 0.68323 0.0
H691 H 0.75606 0.59253 0.82239 0.0
H692 H 0.61085 0.56885 0.80945 0.0
H693 H 0.64811 0.63112 0.74659 0.0
H694 H 0.59051 0.58339 0.84954 0.0
H695 H 0.6269 0.64449 0.78736 0.0
H696 H 0.64538 0.57648 0.64423 0.0
H697 H 0.69244 0.558 0.6821 0.0
H698 H 0.63928 0.55582 0.57591 0.0
H699 H 0.68523 0.53737 0.61342 0.0
H700 H 0.69441 0.64689 0.57635 0.0
H701 H 0.62661 0.62211 0.60824 0.0
H702 H 0.59189 0.50682 0.8287 0.0
H703 H 0.59735 0.49697 0.69222 0.0
Li704 Li 0.10327 0.69078 0.25678 0.0
Li705 Li 0.06959 0.66647 0.29445 0.0
Li706 Li 0.0891 0.65128 0.25395 0.0
Li707 Li 0.06948 0.66678 0.21502 0.0
C708 C 0.11752 0.67476 0.32623 0.0
N709 N 0.15552 0.68379 0.36838 0.0
C710 C 0.12039 0.68075 0.36991 0.0
C711 C 0.13385 0.67315 0.3041 0.0
C712 C 0.13976 0.68532 0.39061 0.0
C713 C 0.15298 0.67783 0.32595 0.0
C714 C 0.07757 0.70891 0.27835 0.0
C715 C 0.07436 0.74115 0.28412 0.0
N716 N 0.08297 0.74465 0.32468 0.0
C717 C 0.08637 0.71281 0.3201 0.0
C718 C 0.0715 0.72316 0.26017 0.0
C719 C 0.08897 0.73097 0.343 0.0
C720 C 0.1382 0.72893 0.21971 0.0
N721 N 0.1294 0.71873 0.25791 0.0
C722 C 0.15834 0.74793 0.29737 0.0
C723 C 0.13889 0.72797 0.29637 0.0
C724 C 0.1682 0.75849 0.25841 0.0
C725 C 0.15773 0.74889 0.21919 0.0
H726 H 0.13019 0.72139 0.18957 0.0
H727 H 0.1314 0.71991 0.3264 0.0
C728 C 0.05675 0.65099 0.37814 0.0
N729 N 0.05303 0.66186 0.34606 0.0
C730 C 0.04597 0.64719 0.41776 0.0
C731 C 0.02731 0.66548 0.39044 0.0
C732 C 0.03852 0.66897 0.35122 0.0
C733 C 0.03122 0.65469 0.42449 0.0
H734 H 0.06819 0.64531 0.37288 0.0
H735 H 0.03577 0.67747 0.32506 0.0
C736 C 0.11216 0.67105 0.17405 0.0
N737 N 0.13769 0.66776 0.11011 0.0
C738 C 0.10254 0.65919 0.13633 0.0
C739 C 0.13479 0.68138 0.17909 0.0
C740 C 0.11572 0.65769 0.10441 0.0
C741 C 0.1474 0.67947 0.14645 0.0
C742 C 0.03517 0.63027 0.25738 0.0
C743 C 0.02376 0.60795 0.2663 0.0
C744 C 0.0238 0.64155 0.25221 0.0
C745 C 1.00106 0.5972 0.26974 0.0
C746 C 1.00111 0.63022 0.25592 0.0
N747 N 0.9903 0.60847 0.26453 0.0
C748 C 0.08601 0.61391 0.2892 0.0
C749 C 0.10553 0.62348 0.22295 0.0
C750 C 0.08749 0.59501 0.29212 0.0
N751 N 0.09479 0.62758 0.25483 0.0
C752 C 0.10741 0.60477 0.22459 0.0
C753 C 0.09817 0.59018 0.25935 0.0
H754 H 0.07747 0.61752 0.31398 0.0
H755 H 0.11226 0.63435 0.19574 0.0
C756 C 0.0537 0.67988 0.1419 0.0
N757 N 0.05323 0.66284 0.16319 0.0
C758 C 0.04245 0.67642 0.10271 0.0
C759 C 0.03036 0.638 0.10862 0.0
C760 C 0.04183 0.64219 0.14745 0.0
C761 C 0.03065 0.65523 0.08555 0.0
H762 H 0.0631 0.69619 0.15497 0.0
H763 H 0.04195 0.62897 0.16477 0.0
O764 O 0.09871 0.67043 0.30551 0.0
O765 O 0.07489 0.69128 0.25515 0.0
O766 O 0.09951 0.67278 0.20552 0.0
O767 O 0.05741 0.64104 0.25437 0.0
H768 H 0.10785 0.68204 0.3875 0.0
H769 H 0.13176 0.66827 0.2705 0.0
H770 H 0.14226 0.6901 0.42434 0.0
H771 H 0.16579 0.67669 0.30919 0.0
H772 H 0.06974 0.75232 0.27045 0.0
H773 H 0.09111 0.70194 0.33475 0.0
H774 H 0.06466 0.72034 0.22788 0.0
H775 H 0.09576 0.73419 0.37533 0.0
H776 H 0.16552 0.75507 0.32836 0.0
H777 H 0.16475 0.75654 0.18843 0.0
H778 H 0.04902 0.63832 0.44277 0.0
H779 H 0.01598 0.67141 0.39436 0.0
H780 H 0.08509 0.65112 0.13181 0.0
H781 H 0.14257 0.69078 0.20784 0.0
H782 H 0.10849 0.6485 0.07512 0.0
H783 H 0.16491 0.68733 0.14999 0.0
H784 H 0.03237 0.59903 0.27056 0.0
H785 H 0.0324 0.65887 0.24555 0.0
H786 H 0.99199 0.57991 0.27661 0.0
H787 H 0.99209 0.63873 0.25202 0.0
H788 H 0.08019 0.58418 0.3195 0.0
H789 H 0.1154 0.60141 0.19824 0.0
H790 H 0.0434 0.69021 0.08557 0.0
H791 H 0.0214 0.62141 0.09666 0.0
Li792 Li 0.4179 0.10055 0.7564 0.0
Li793 Li 0.40674 0.06745 0.79517 0.0
Li794 Li 0.44227 0.08541 0.75739 0.0
Li795 Li 0.40601 0.06704 0.7156 0.0
C796 C 0.44474 0.11045 0.83732 0.0
N797 N 0.46966 0.13992 0.90084 0.0
C798 C 0.43553 0.1102 0.87754 0.0
C799 C 0.46668 0.12556 0.82958 0.0
C800 C 0.44838 0.12527 0.90918 0.0
C801 C 0.47899 0.14037 0.86206 0.0
C802 C 0.3732 0.07627 0.7786 0.0
C803 C 0.33613 0.06789 0.79017 0.0
N804 N 0.34263 0.08093 0.82581 0.0
C805 C 0.37952 0.0896 0.81528 0.0
C806 C 0.35135 0.06535 0.76584 0.0
C807 C 0.36383 0.09175 0.83873 0.0
C808 C 0.40231 0.12857 0.72929 0.0
N809 N 0.41723 0.12752 0.75545 0.0
C810 C 0.4307 0.16435 0.77841 0.0
C811 C 0.43133 0.14496 0.7797 0.0
C812 C 0.41565 0.16594 0.7514 0.0
C813 C 0.40132 0.14777 0.72654 0.0
H814 H 0.39125 0.11448 0.71033 0.0
H815 H 0.44322 0.14402 0.79987 0.0
C816 C 0.409 0.05262 0.87707 0.0
N817 N 0.39429 0.0513 0.84723 0.0
C818 C 0.40202 0.04153 0.91636 0.0
C819 C 0.36473 0.02757 0.89347 0.0
C820 C 0.37247 0.03894 0.85441 0.0
C821 C 0.37962 0.029 0.92522 0.0
H822 H 0.42625 0.06222 0.8701 0.0
H823 H 0.36107 0.03782 0.82985 0.0
C824 C 0.43964 0.11508 0.68459 0.0
N825 N 0.45196 0.15434 0.64407 0.0
C826 C 0.4271 0.1161 0.65072 0.0
C827 C 0.45855 0.13396 0.6976 0.0
C828 C 0.43358 0.13612 0.63068 0.0
C829 C 0.46447 0.15367 0.67678 0.0
C830 C 0.40949 0.03344 0.77155 0.0
C831 C 0.42172 0.02716 0.79702 0.0
C832 C 0.38735 0.01883 0.76453 0.0
C833 C 0.41153 0.00632 0.81532 0.0
C834 C 0.37777 0.99814 0.78338 0.0
N835 N 0.38995 0.99237 0.8082 0.0
C836 C 0.47732 0.08339 0.79438 0.0
C837 C 0.48439 0.09875 0.72384 0.0
C838 C 0.49774 0.08492 0.79564 0.0
N839 N 0.47101 0.09002 0.75864 0.0
C840 C 0.50508 0.10081 0.72393 0.0
C841 C 0.51181 0.0936 0.76 0.0
H842 H 0.46631 0.07661 0.8216 0.0
H843 H 0.47883 0.1037 0.69572 0.0
C844 C 0.37883 0.0539 0.64015 0.0
N845 N 0.3928 0.05046 0.66463 0.0
C846 C 0.37028 0.04218 0.6017 0.0
C847 C 0.39028 0.02336 0.61506 0.0
C848 C 0.39861 0.03557 0.65287 0.0
C849 C 0.37597 0.02664 0.58889 0.0
H850 H 0.37457 0.06594 0.6502 0.0
H851 H 0.40997 0.03336 0.67262 0.0
O852 O 0.43249 0.09561 0.80612 0.0
O853 O 0.38819 0.07373 0.75526 0.0
O854 O 0.43314 0.0958 0.70565 0.0
O855 O 0.41892 0.05402 0.7546 0.0
H856 H 0.41865 0.09846 0.88437 0.0
H857 H 0.47412 0.12599 0.79875 0.0
H858 H 0.44145 0.12528 0.9404 0.0
H859 H 0.49596 0.15221 0.85643 0.0
H860 H 0.31914 0.0595 0.78073 0.0
H861 H 0.39635 0.09826 0.82542 0.0
H862 H 0.34621 0.05495 0.7375 0.0
H863 H 0.36851 0.10203 0.86718 0.0
H864 H 0.44209 0.17809 0.79787 0.0
H865 H 0.38935 0.14836 0.70561 0.0
H866 H 0.41403 0.04253 0.93934 0.0
H867 H 0.34732 0.01792 0.89896 0.0
H868 H 0.41238 0.10164 0.64037 0.0
H869 H 0.46839 0.13344 0.72385 0.0
H870 H 0.42395 0.1372 0.60463 0.0
H871 H 0.47898 0.16845 0.68674 0.0
H872 H 0.43884 0.03829 0.80286 0.0
H873 H 0.37761 0.02355 0.74524 0.0
H874 H 0.42077 1.00126 0.83527 0.0
H875 H 0.36063 0.9867 0.77844 0.0
H876 H 0.50245 0.07925 0.82403 0.0
H877 H 0.51543 0.10733 0.69565 0.0
H878 H 0.35934 0.04521 0.5822 0.0
H879 H 0.39542 0.01186 0.60581 0.0
Li880 Li 0.34183 0.40348 0.29498 0.0
Li881 Li 0.31942 0.41479 0.25693 0.0
Li882 Li 0.34098 0.40113 0.21577 0.0
Li883 Li 0.35983 0.43782 0.25408 0.0
C884 C 0.30037 0.36682 0.27519 0.0
N885 N 0.26781 0.32924 0.31305 0.0
C886 C 0.28653 0.36801 0.30596 0.0
C887 C 0.29746 0.34651 0.26313 0.0
C888 C 0.27023 0.34883 0.32489 0.0
C889 C 0.28095 0.32769 0.2828 0.0
C890 C 0.33508 0.43687 0.34117 0.0
C891 C 0.33795 0.46569 0.38727 0.0
N892 N 0.3244 0.45055 0.4164 0.0
C893 C 0.32123 0.4216 0.37163 0.0
C894 C 0.34358 0.45911 0.34911 0.0
C895 C 0.31603 0.42884 0.40945 0.0
C896 C 0.36019 0.40685 0.37625 0.0
N897 N 0.3454 0.3917 0.34869 0.0
C898 C 0.33902 0.36309 0.39826 0.0
C899 C 0.33492 0.3701 0.35881 0.0
C900 C 0.35406 0.37845 0.42748 0.0
C901 C 0.36485 0.40058 0.41583 0.0
H902 H 0.36861 0.42388 0.36711 0.0
H903 H 0.32364 0.35823 0.33622 0.0
C904 C 0.27635 0.40067 0.23031 0.0
N905 N 0.29254 0.41522 0.2565 0.0
C906 C 0.2563 0.40002 0.22853 0.0
C907 C 0.26993 0.42935 0.28069 0.0
C908 C 0.28973 0.4295 0.28132 0.0
C909 C 0.25293 0.41453 0.25394 0.0
H910 H 0.27902 0.38948 0.21093 0.0
H911 H 0.30284 0.44113 0.30146 0.0
C912 C 0.38051 0.40866 0.27567 0.0
N913 N 0.4068 0.39758 0.32256 0.0
C914 C 0.40035 0.42493 0.29246 0.0
C915 C 0.37413 0.38674 0.28244 0.0
C916 C 0.4134 0.419 0.31612 0.0
C917 C 0.38761 0.38148 0.30635 0.0
C918 C 0.33608 0.44475 0.18871 0.0
C919 C 0.33417 0.4469 0.14416 0.0
C920 C 0.33572 0.45993 0.21711 0.0
C921 C 0.33185 0.46419 0.12878 0.0
C922 C 0.33334 0.47697 0.20049 0.0
N923 N 0.33147 0.47873 0.15703 0.0
C924 C 0.3337 0.38891 0.12729 0.0
C925 C 0.35441 0.3764 0.16523 0.0
C926 C 0.33718 0.38114 0.08814 0.0
N927 N 0.34262 0.38676 0.16465 0.0
C928 C 0.35809 0.36819 0.12701 0.0
C929 C 0.34976 0.37084 0.08759 0.0
H930 H 0.3245 0.39733 0.12766 0.0
H931 H 0.36156 0.37508 0.19508 0.0
C932 C 0.39513 0.47538 0.28987 0.0
N933 N 0.38418 0.46661 0.25237 0.0
C934 C 0.41394 0.4959 0.28982 0.0
C935 C 0.40938 0.49832 0.21281 0.0
C936 C 0.39087 0.4776 0.21423 0.0
C937 C 0.42146 0.50756 0.2508 0.0
H938 H 0.38953 0.46616 0.31967 0.0
H939 H 0.38198 0.47021 0.18477 0.0
O940 O 0.31642 0.38535 0.25617 0.0
O941 O 0.3406 0.43023 0.30403 0.0
O942 O 0.36728 0.41417 0.25323 0.0
O943 O 0.33839 0.42792 0.20432 0.0
H944 H 0.28825 0.38353 0.31496 0.0
H945 H 0.30796 0.34534 0.23909 0.0
H946 H 0.25946 0.34951 0.34889 0.0
H947 H 0.27858 0.31186 0.27402 0.0
H948 H 0.34435 0.48285 0.39374 0.0
H949 H 0.31477 0.40437 0.36645 0.0
H950 H 0.35434 0.47117 0.32592 0.0
H951 H 0.30537 0.4172 0.43333 0.0
H952 H 0.33048 0.34585 0.40589 0.0
H953 H 0.37704 0.4129 0.43678 0.0
H954 H 0.24349 0.38811 0.20797 0.0
H955 H 0.268 0.44089 0.30055 0.0
H956 H 0.40564 0.44195 0.28728 0.0
H957 H 0.35861 0.37392 0.27047 0.0
H958 H 0.42878 0.43144 0.32938 0.0
H959 H 0.38274 0.36459 0.31227 0.0
H960 H 0.33458 0.4354 0.12164 0.0
H961 H 0.33732 0.45863 0.25161 0.0
H962 H 0.33037 0.46605 0.09437 0.0
H963 H 0.333 0.48881 0.22214 0.0
H964 H 0.33085 0.38402 0.05847 0.0
H965 H 0.3678 0.36028 0.12813 0.0
H966 H 0.4228 0.50233 0.31981 0.0
H967 H 0.41422 0.50695 0.18223 0.0
Li968 Li 0.90829 0.3185 0.75702 0.0
Li969 Li 0.94113 0.33953 0.79583 0.0
Li970 Li 0.92455 0.35828 0.75875 0.0
Li971 Li 0.94294 0.34023 0.71665 0.0
C972 C 0.89987 0.32691 0.84148 0.0
N973 N 0.87339 0.30481 0.91094 0.0
C974 C 0.90187 0.31042 0.86199 0.0
C975 C 0.88452 0.33228 0.85641 0.0
C976 C 0.88832 0.29941 0.89704 0.0
C977 C 0.87124 0.32087 0.89152 0.0
C978 C 0.94353 0.30295 0.76607 0.0
C979 C 0.97298 0.29525 0.76018 0.0
N980 N 0.96231 0.27819 0.78792 0.0
C981 C 0.93271 0.28515 0.794 0.0
C982 C 0.9637 0.30791 0.74856 0.0
C983 C 0.94254 0.27291 0.80487 0.0
C984 C 0.88082 0.27399 0.73694 0.0
N985 N 0.88108 0.29162 0.75505 0.0
C986 C 0.84289 0.27059 0.77024 0.0
C987 C 0.86259 0.29034 0.77119 0.0
C988 C 0.84216 0.2521 0.7519 0.0
C989 C 0.86142 0.25396 0.73497 0.0
H990 H 0.89572 0.2755 0.72409 0.0
H991 H 0.86309 0.30466 0.78458 0.0
C992 C 0.95405 0.35439 0.88019 0.0
N993 N 0.95698 0.34261 0.8488 0.0
C994 C 0.96575 0.3593 0.9189 0.0
C995 C 0.98308 0.33951 0.89301 0.0
C996 C 0.97115 0.33512 0.85458 0.0
C997 C 0.98069 0.35204 0.92556 0.0
H998 H 0.94299 0.36051 0.87463 0.0
H999 H 0.97367 0.32618 0.82923 0.0
C1000 C 0.89413 0.32926 0.68772 0.0
N1001 N 0.85316 0.30876 0.65067 0.0
C1002 C 0.88942 0.31463 0.65357 0.0
C1003 C 0.87804 0.3335 0.70303 0.0
C1004 C 0.86859 0.30442 0.63526 0.0
C1005 C 0.85742 0.32296 0.68387 0.0
C1006 C 0.97471 0.3779 0.77885 0.0
C1007 C 0.9769 0.39439 0.80681 0.0
C1008 C 0.99177 0.37348 0.7747 0.0
C1009 C 0.99613 0.40607 0.83063 0.0
C1010 C 0.01072 0.38551 0.7991 0.0
N1011 N 0.01248 0.4014 0.82636 0.0
C1012 C 0.91816 0.39061 0.79764 0.0
C1013 C 0.91925 0.39139 0.72082 0.0
C1014 C 0.91565 0.40895 0.79855 0.0
N1015 N 0.91997 0.38234 0.75916 0.0
C1016 C 0.91672 0.40972 0.72021 0.0
C1017 C 0.91492 0.41873 0.75946 0.0
H1018 H 0.91897 0.38312 0.82759 0.0
H1019 H 0.92093 0.38451 0.69077 0.0
C1020 C 0.95317 0.32666 0.63713 0.0
N1021 N 0.95939 0.34342 0.66555 0.0
C1022 C 0.96471 0.32981 0.59844 0.0
C1023 C 0.98892 0.36723 0.61945 0.0
C1024 C 0.97687 0.36342 0.65748 0.0
C1025 C 0.98286 0.35033 0.58928 0.0
H1026 H 0.93908 0.31097 0.64425 0.0
H1027 H 0.98123 0.37656 0.68025 0.0
O1028 O 0.91292 0.33791 0.80706 0.0
O1029 O 0.93407 0.31495 0.75463 0.0
O1030 O 0.91424 0.33906 0.70675 0.0
O1031 O 0.95572 0.36575 0.75649 0.0
H1032 H 0.91384 0.30627 0.85112 0.0
H1033 H 0.88278 0.34503 0.84081 0.0
H1034 H 0.88968 0.2866 0.91324 0.0
H1035 H 0.85921 0.32479 0.90332 0.0
H1036 H 0.98865 0.29899 0.74715 0.0
H1037 H 0.91682 0.28071 0.8069 0.0
H1038 H 0.97216 0.32147 0.72645 0.0
H1039 H 0.93441 0.25916 0.82664 0.0
H1040 H 0.82832 0.26982 0.7833 0.0
H1041 H 0.86155 0.24 0.72098 0.0
H1042 H 0.96353 0.36916 0.94295 0.0
H1043 H 0.99412 0.33324 0.89709 0.0
H1044 H 0.90169 0.31111 0.64154 0.0
H1045 H 0.88135 0.34458 0.72983 0.0
H1046 H 0.86468 0.29302 0.60885 0.0
H1047 H 0.84477 0.32599 0.69552 0.0
H1048 H 0.96379 0.39794 0.81048 0.0
H1049 H 0.99026 0.36068 0.75335 0.0
H1050 H 0.998 0.41878 0.85264 0.0
H1051 H 0.02399 0.38215 0.79652 0.0
H1052 H 0.91435 0.41546 0.82944 0.0
H1053 H 0.91671 0.41707 0.68945 0.0
H1054 H 0.95949 0.31641 0.57586 0.0
H1055 H 1.00247 0.38343 0.61314 0.0
C1056 C 0.99585 0.36182 0.04504 0.0
C1057 C 0.01856 0.37029 0.04477 0.0
C1058 C 0.98375 0.35576 0.00648 0.0
C1059 C 0.99384 0.35787 0.96607 0.0
H1060 H 0.98738 0.36024 0.07523 0.0
H1061 H 0.96632 0.34939 0.00835 0.0
S1062 S 0.05282 0.37882 0.94759 0.0
N1063 N 0.05057 0.37983 1.00066 0.0
N1064 N 0.02796 0.36916 0.92815 0.0
C1065 C 0.01651 0.36614 0.96534 0.0
C1066 C 0.02882 0.37222 1.00463 0.0
C1067 C 0.63613 0.98352 0.50211 0.0
C1068 C 0.64158 0.99423 0.46186 0.0
C1069 C 0.64254 0.99536 0.54101 0.0
C1070 C 0.65481 0.01833 0.54103 0.0
H1071 H 0.62629 0.96591 0.50353 0.0
H1072 H 0.63731 0.98645 0.57126 0.0
S1073 S 0.6753 0.05376 0.44364 0.0
N1074 N 0.66104 0.02881 0.42399 0.0
N1075 N 0.67374 0.0511 0.49687 0.0
C1076 C 0.66105 0.02911 0.50077 0.0
C1077 C 0.65428 0.01706 0.46128 0.0
C1078 C 0.63524 0.65494 1.00524 0.0
C1079 C 0.6396 0.64887 0.04582 0.0
C1080 C 0.64102 0.64874 0.96654 0.0
C1081 C 0.65138 0.63619 0.96681 0.0
H1082 H 0.62726 0.66458 1.00332 0.0
H1083 H 0.63693 0.65347 0.93614 0.0
S1084 S 0.66678 0.61633 0.06446 0.0
N1085 N 0.65481 0.62943 0.08386 0.0
N1086 N 0.66644 0.61853 0.01126 0.0
C1087 C 0.65613 0.63026 0.00718 0.0
C1088 C 0.65011 0.63646 0.0466 0.0
C1089 C 0.99696 0.6416 0.46803 0.0
C1090 C 0.01976 0.6509 0.46671 0.0
C1091 C 0.98571 0.63658 0.50763 0.0
C1092 C 0.99686 0.6407 0.54736 0.0
H1093 H 0.98767 0.63758 0.43822 0.0
H1094 H 0.96809 0.6288 0.5071 0.0
S1095 S 0.05679 0.66738 0.56161 0.0
N1096 N 0.05325 0.66578 0.50859 0.0
N1097 N 0.03214 0.65636 0.5829 0.0
C1098 C 0.01973 0.65074 0.54646 0.0
C1099 C 0.03116 0.65584 0.5062 0.0
C1100 C 0.35614 0.99477 0.96731 0.0
C1101 C 0.37195 0.01707 0.967 0.0
C1102 C 0.3497 0.98287 0.00614 0.0
C1103 C 0.35866 0.99287 0.04617 0.0
H1104 H 0.3491 0.98631 0.93719 0.0
H1105 H 0.33769 0.96566 1.00481 0.0
S1106 S 0.40011 0.05103 0.06313 0.0
N1107 N 0.39583 0.04887 0.01032 0.0
N1108 N 0.38406 0.02643 0.08309 0.0
C1109 C 0.37419 0.01524 0.04638 0.0
C1110 C 0.38077 0.02734 0.00687 0.0
C1111 C 0.36335 0.35411 0.47063 0.0
C1112 C 0.35897 0.37144 0.4694 0.0
C1113 C 0.3692 0.34803 0.50945 0.0
C1114 C 0.37096 0.35911 0.5484 0.0
H1115 H 0.36283 0.34556 0.44116 0.0
H1116 H 0.37297 0.33497 0.50875 0.0
S1117 S 0.35876 0.40386 0.56366 0.0
N1118 N 0.35499 0.39831 0.51137 0.0
N1119 N 0.36624 0.38704 0.58408 0.0
C1120 C 0.36597 0.37598 0.54789 0.0
C1121 C 0.35992 0.3821 0.50849 0.0
C1122 C 0.01009 0.63213 0.97323 0.0
C1123 C 0.99559 0.63963 0.96325 0.0
C1124 C 0.02165 0.63766 0.01235 0.0
C1125 C 0.01915 0.65088 0.04321 0.0
H1126 H 0.01243 0.62176 0.95065 0.0
H1127 H 0.03259 0.63142 0.01858 0.0
S1128 S 0.98278 0.67433 0.03318 0.0
N1129 N 0.97921 0.66085 0.98744 0.0
N1130 N 1.00087 0.67118 0.06124 0.0
C1131 C 1.00494 0.65878 0.03339 0.0
C1132 C 0.99318 0.65317 0.99339 0.0
C1133 C 0.36542 0.01511 0.46843 0.0
C1134 C 0.35602 0.99231 0.46612 0.0
C1135 C 0.3711 0.02602 0.5084 0.0
C1136 C 0.3679 0.01455 0.54745 0.0
H1137 H 0.36861 0.0246 0.43904 0.0
H1138 H 0.3787 0.04363 0.50864 0.0
S1139 S 0.34342 0.95469 0.55914 0.0
N1140 N 0.34338 0.9586 0.5064 0.0
N1141 N 0.35409 0.9791 0.58146 0.0
C1142 C 0.35817 0.99172 0.54564 0.0
C1143 C 0.35219 0.9806 0.50501 0.0
C1144 C 0.384 0.36508 0.99934 0.0
C1145 C 0.36897 0.35432 0.96572 0.0
C1146 C 0.37753 0.37003 0.03859 0.0
C1147 C 0.35573 0.36444 0.04602 0.0
H1148 H 0.40098 0.36975 0.99531 0.0
H1149 H 0.38986 0.37871 0.06304 0.0
S1150 S 0.30982 0.3357 0.96886 0.0
N1151 N 0.33122 0.33816 0.94247 0.0
N1152 N 0.31893 0.34694 0.01681 0.0
C1153 C 0.34043 0.35342 0.01292 0.0
C1154 C 0.34706 0.34841 0.97277 0.0
C1155 C 0.98332 0.34925 0.50811 0.0
C1156 C 0.99481 0.35452 0.54755 0.0
C1157 C 0.99434 0.35477 0.46825 0.0
C1158 C 0.01726 0.36551 0.4663 0.0
H1159 H 0.96569 0.34141 0.50807 0.0
H1160 H 0.98486 0.35076 0.43869 0.0
S1161 S 0.05488 0.38209 0.56027 0.0
N1162 N 0.03032 0.37035 0.58217 0.0
N1163 N 0.05103 0.38086 0.50735 0.0
C1164 C 0.02891 0.37036 0.50549 0.0
C1165 C 0.01769 0.36488 0.54605 0.0
C1166 C 0.65881 0.02491 1.00093 0.0
C1167 C 0.65753 0.01391 0.96215 0.0
C1168 C 0.65235 0.0137 0.0405 0.0
C1169 C 0.64473 0.99117 0.0428 0.0
H1170 H 0.66407 0.04214 1.00044 0.0
H1171 H 0.65298 0.02264 0.06945 0.0
S1172 S 0.63941 0.95514 0.95089 0.0
N1173 N 0.64888 0.97946 0.92867 0.0
N1174 N 0.63692 0.95842 1.00317 0.0
C1175 C 0.6441 0.98015 1.00451 0.0
C1176 C 0.65041 0.9915 0.96414 0.0
C1177 C 0.6403 0.66056 0.50153 0.0
C1178 C 0.64539 0.65398 0.46231 0.0
C1179 C 0.64552 0.65495 0.54157 0.0
C1180 C 0.65627 0.64279 0.5439 0.0
H1181 H 0.63157 0.6695 0.50131 0.0
H1182 H 0.64089 0.65995 0.57098 0.0
S1183 S 0.67404 0.62246 0.4506 0.0
N1184 N 0.66254 0.63542 0.42826 0.0
N1185 N 0.67219 0.62472 0.50347 0.0
C1186 C 0.66198 0.63663 0.50492 0.0
C1187 C 0.65654 0.64223 0.46417 0.0
C1188 C 0.07911 0.54964 0.26769 0.0
C1189 C 0.09854 0.5694 0.26031 0.0
C1190 C 0.07878 0.5297 0.26776 0.0
C1191 C 0.0979 0.5287 0.2606 0.0
H1192 H 0.06392 0.54954 0.27269 0.0
H1193 H 0.06333 0.51489 0.27278 0.0
S1194 S 0.15333 0.57596 0.2429 0.0
N1195 N 0.13757 0.58688 0.24759 0.0
N1196 N 0.13703 0.54938 0.2481 0.0
C1197 C 0.11752 0.54838 0.25378 0.0
C1198 C 0.11783 0.56871 0.25356 0.0
C1199 C 0.53343 0.07473 0.76751 0.0
C1200 C 0.53294 0.09403 0.75967 0.0
C1201 C 0.55309 0.07451 0.76681 0.0
C1202 C 0.57307 0.09363 0.75862 0.0
H1203 H 0.51842 0.0596 0.77359 0.0
H1204 H 0.55256 0.05914 0.77218 0.0
S1205 S 0.58065 0.14874 0.73929 0.0
N1206 N 0.55404 0.13288 0.74503 0.0
N1207 N 0.59116 0.13266 0.74471 0.0
C1208 C 0.57281 0.11313 0.75133 0.0
C1209 C 0.55272 0.11328 0.75163 0.0
C1210 C 0.46592 0.56458 0.28317 0.0
C1211 C 0.48177 0.56989 0.25087 0.0
C1212 C 0.44633 0.54456 0.28252 0.0
C1213 C 0.44202 0.52902 0.24984 0.0
H1214 H 0.46867 0.57602 0.30902 0.0
H1215 H 0.43447 0.54124 0.30782 0.0
S1216 S 0.47932 0.53464 0.15987 0.0
N1217 N 0.49242 0.55796 0.18635 0.0
N1218 N 0.45598 0.52006 0.18568 0.0
C1219 C 0.45795 0.53414 0.21761 0.0
C1220 C 0.47774 0.55463 0.21803 0.0
C1221 C 0.92695 0.47601 0.78612 0.0
C1222 C 0.91239 0.47868 0.75932 0.0
C1223 C 0.92743 0.45648 0.78635 0.0
C1224 C 0.91338 0.43887 0.75976 0.0
H1225 H 0.93842 0.4893 0.80641 0.0
H1226 H 0.93925 0.45533 0.80681 0.0
S1227 S 0.87089 0.43688 0.68656 0.0
N1228 N 0.88269 0.46166 0.70746 0.0
N1229 N 0.88359 0.42488 0.70788 0.0
C1230 C 0.89843 0.44116 0.73347 0.0
C1231 C 0.89794 0.46107 0.73324 0.0
C1232 C 0.44279 0.89998 0.27407 0.0
C1233 C 0.43899 0.9134 0.24603 0.0
C1234 C 0.46282 0.9004 0.27392 0.0
C1235 C 0.47982 0.91452 0.2462 0.0
H1236 H 0.43021 0.88915 0.29642 0.0
H1237 H 0.46522 0.89006 0.29645 0.0
S1238 S 0.47804 0.95266 0.16617 0.0
N1239 N 0.45382 0.941 0.18952 0.0
N1240 N 0.49138 0.94172 0.18914 0.0
C1241 C 0.47612 0.92778 0.21762 0.0
C1242 C 0.45572 0.92723 0.21753 0.0
C1243 C 0.56976 0.45895 0.74618 0.0
C1244 C 0.57102 0.47811 0.76238 0.0
C1245 C 0.55002 0.43905 0.74665 0.0
C1246 C 0.53081 0.43764 0.76313 0.0
H1247 H 0.58418 0.45933 0.73331 0.0
H1248 H 0.54983 0.42464 0.73429 0.0
S1249 S 0.52513 0.48364 0.8054 0.0
N1250 N 0.55123 0.49474 0.79308 0.0
N1251 N 0.51409 0.45752 0.79338 0.0
C1252 C 0.53183 0.45681 0.77873 0.0
C1253 C 0.55193 0.47699 0.7785 0.0
C1254 C 0.20116 0.41307 0.29233 0.0
C1255 C 0.19097 0.41338 0.25342 0.0
C1256 C 0.22115 0.41343 0.29218 0.0
C1257 C 0.23172 0.41409 0.25311 0.0
H1258 H 0.1935 0.41229 0.32317 0.0
H1259 H 0.22827 0.41293 0.32291 0.0
S1260 S 0.2128 0.41702 0.14257 0.0
N1261 N 0.19356 0.41565 0.17487 0.0
N1262 N 0.23108 0.41625 0.17459 0.0
C1263 C 0.22184 0.41469 0.214 0.0
C1264 C 0.2015 0.41435 0.21415 0.0
C1265 C 0.80936 0.22245 0.78953 0.0
C1266 C 0.82143 0.23089 0.75117 0.0
C1267 C 0.78985 0.20235 0.78982 0.0
C1268 C 0.78162 0.18995 0.75172 0.0
H1269 H 0.8152 0.23132 0.8197 0.0
H1270 H 0.78129 0.19634 0.82026 0.0
S1271 S 0.8061 0.20585 0.64206 0.0
N1272 N 0.82322 0.22595 0.67372 0.0
N1273 N 0.78644 0.1883 0.67407 0.0
C1274 C 0.79337 0.19842 0.71299 0.0
C1275 C 0.81328 0.21884 0.71276 0.0
C1276 C 0.61194 0.79848 0.24487 0.0
C1277 C 0.59328 0.77853 0.25562 0.0
C1278 C 0.61153 0.81809 0.24471 0.0
C1279 C 0.59248 0.81855 0.25561 0.0
H1280 H 0.6271 0.79901 0.23699 0.0
H1281 H 0.62632 0.83307 0.23659 0.0
S1282 S 0.53876 0.77079 0.28275 0.0
N1283 N 0.55481 0.76042 0.2748 0.0
N1284 N 0.55423 0.79733 0.27533 0.0
C1285 C 0.57366 0.79877 0.26598 0.0
C1286 C 0.57401 0.77877 0.26581 0.0
C1287 C 0.81766 0.60977 0.77907 0.0
C1288 C 0.82129 0.59643 0.75045 0.0
C1289 C 0.79774 0.60955 0.77949 0.0
C1290 C 0.78068 0.596 0.75128 0.0
H1291 H 0.83042 0.62066 0.80103 0.0
H1292 H 0.79576 0.62025 0.80178 0.0
S1293 S 0.7812 0.55665 0.67266 0.0
N1294 N 0.80568 0.56841 0.69488 0.0
N1295 N 0.7683 0.56806 0.6956 0.0
C1296 C 0.78398 0.5824 0.72287 0.0
C1297 C 0.80425 0.5826 0.72248 0.0
C1298 C 0.21155 0.81704 0.23307 0.0
C1299 C 0.22938 0.82013 0.25845 0.0
C1300 C 0.19186 0.79709 0.23319 0.0
C1301 C 0.18927 0.77945 0.25865 0.0
H1302 H 0.21273 0.83023 0.2133 0.0
H1303 H 0.17848 0.79556 0.2136 0.0
S1304 S 0.23166 0.77854 0.32782 0.0
N1305 N 0.24359 0.8035 0.3078 0.0
N1306 N 0.20668 0.76601 0.30789 0.0
C1307 C 0.2071 0.78223 0.28365 0.0
C1308 C 0.22711 0.80255 0.28359 0.0
C1309 C 0.41245 0.21553 0.78755 0.0
C1310 C 0.41481 0.22686 0.74856 0.0
C1311 C 0.4126 0.19581 0.7881 0.0
C1312 C 0.41492 0.18651 0.74967 0.0
H1313 H 0.41035 0.2219 0.81795 0.0
H1314 H 0.41077 0.18768 0.81885 0.0
S1315 S 0.42292 0.21003 0.6394 0.0
N1316 N 0.42055 0.22766 0.67069 0.0
N1317 N 0.42034 0.19032 0.67181 0.0
C1318 C 0.41726 0.19756 0.71047 0.0
C1319 C 0.41731 0.21777 0.70989 0.0
loop_
_geom_bond_atom_site_label_1
_geom_bond_atom_site_label_2
_geom_bond_distance
_geom_bond_site_symmetry_2
_ccdc_geom_bond_type
Li0 N17 1.990 . S
Li0 O60 1.956 . S
Li0 O61 1.970 . S
Li0 O62 1.961 . S
Li1 N25 1.990 . S
Li1 O60 1.970 . S
Li1 O61 1.956 . S
Li1 O63 1.961 . S
Li2 N47 1.990 . S
Li2 O60 1.961 . S
Li2 O62 1.956 . S
Li2 O63 1.970 . S
Li3 N53 1.990 . S
Li3 O61 1.961 . S
Li3 O62 1.970 . S
Li3 O63 1.956 . S
C4 C6 1.348 . S
C4 C7 1.356 . S
C4 O60 1.325 . S
N5 C8 1.314 . S
N5 C9 1.279 . S
C6 C4 1.348 . S
C6 C8 1.353 . S
C6 H64 0.929 . S
C7 C4 1.356 . S
C7 C9 1.358 . S
C7 H65 0.930 . S
C8 N5 1.314 . S
C8 C6 1.353 . S
C8 H66 0.930 . S
C9 N5 1.279 . S
C9 C7 1.358 . S
C9 H67 0.930 . S
C10 C13 1.348 . S
C10 C14 1.356 . S
C10 O61 1.325 . S
C11 N12 1.279 . S
C11 C14 1.358 1_655 S
C11 H68 0.930 . S
N12 C11 1.279 . S
N12 C15 1.314 1_655 S
C13 C10 1.348 . S
C13 C15 1.353 . S
C13 H69 0.929 . S
C14 C10 1.356 . S
C14 C11 1.358 1_455 S
C14 H70 0.930 . S
C15 N12 1.314 1_455 S
C15 C13 1.353 . S
C15 H71 0.930 . S
C16 N17 1.314 . S
C16 C21 1.353 . S
C16 H22 0.930 . S
N17 Li0 1.990 . S
N17 C16 1.314 . S
N17 C19 1.279 . S
C18 C19 1.358 . S
C18 C20 1.356 . S
C18 H72 0.930 . S
C19 N17 1.279 . S
C19 C18 1.358 . S
C19 H23 0.930 . S
C20 C18 1.356 . S
C20 C21 1.348 . S
C21 C16 1.353 . S
C21 C20 1.348 . S
C21 H73 0.929 . S
H22 C16 0.930 . S
H23 C19 0.930 . S
C24 N25 1.314 . S
C24 C26 1.353 . S
C24 H30 0.930 . S
N25 Li1 1.990 . S
N25 C24 1.314 . S
N25 C28 1.279 . S
C26 C24 1.353 . S
C26 C29 1.348 . S
C26 H74 0.929 . S
C27 C28 1.358 . S
C27 C29 1.356 . S
C27 H75 0.930 . S
C28 N25 1.279 . S
C28 C27 1.358 . S
C28 H31 0.930 . S
C29 C26 1.348 . S
C29 C27 1.356 . S
H30 C24 0.930 . S
H31 C28 0.930 . S
C32 C34 1.348 . S
C32 C35 1.356 . S
C32 O62 1.325 . S
N33 C36 1.314 . S
N33 C37 1.279 . S
C34 C32 1.348 . S
C34 C36 1.353 . S
C34 H76 0.929 . S
C35 C32 1.356 . S
C35 C37 1.358 . S
C35 H77 0.930 . S
C36 N33 1.314 . S
C36 C34 1.353 . S
C36 H78 0.930 . S
C37 N33 1.279 . S
C37 C35 1.358 . S
C37 H79 0.930 . S
C38 C39 1.348 . S
C38 C40 1.356 . S
C38 O63 1.325 . S
C39 C38 1.348 . S
C39 C41 1.353 . S
C39 H80 0.929 . S
C40 C38 1.356 . S
C40 C42 1.358 . S
C40 H81 0.930 . S
C41 C39 1.353 . S
C41 N43 1.314 . S
C41 H82 0.930 . S
C42 C40 1.358 . S
C42 N43 1.279 . S
C42 H83 0.930 . S
N43 C41 1.314 . S
N43 C42 1.279 . S
C44 C46 1.353 . S
C44 N47 1.314 . S
C44 H50 0.930 . S
C45 N47 1.279 . S
C45 C48 1.358 . S
C45 H51 0.930 . S
C46 C44 1.353 . S
C46 C49 1.348 . S
C46 H84 0.929 . S
N47 Li2 1.990 . S
N47 C44 1.314 . S
N47 C45 1.279 . S
C48 C45 1.358 . S
C48 C49 1.356 . S
C48 H85 0.930 . S
C49 C46 1.348 . S
C49 C48 1.356 . S
H50 C44 0.930 . S
H51 C45 0.930 . S
C52 N53 1.314 . S
C52 C54 1.353 . S
C52 H58 0.930 . S
N53 Li3 1.990 . S
N53 C52 1.314 . S
N53 C56 1.279 . S
C54 C52 1.353 . S
C54 C57 1.348 . S
C54 H86 0.929 . S
C55 C56 1.358 . S
C55 C57 1.356 . S
C55 H87 0.930 . S
C56 N53 1.279 . S
C56 C55 1.358 . S
C56 H59 0.930 . S
C57 C54 1.348 . S
C57 C55 1.356 . S
H58 C52 0.930 . S
H59 C56 0.930 . S
O60 Li0 1.956 . S
O60 Li1 1.970 . S
O60 Li2 1.961 . S
O60 C4 1.325 . S
O61 Li0 1.970 . S
O61 Li1 1.956 . S
O61 Li3 1.961 . S
O61 C10 1.325 . S
O62 Li0 1.961 . S
O62 Li2 1.956 . S
O62 Li3 1.970 . S
O62 C32 1.325 . S
O63 Li1 1.961 . S
O63 Li2 1.970 . S
O63 Li3 1.956 . S
O63 C38 1.325 . S
H64 C6 0.929 . S
H65 C7 0.930 . S
H66 C8 0.930 . S
H67 C9 0.930 . S
H68 C11 0.930 . S
H69 C13 0.929 . S
H70 C14 0.930 . S
H71 C15 0.930 . S
H72 C18 0.930 . S
H73 C21 0.929 . S
H74 C26 0.929 . S
H75 C27 0.930 . S
H76 C34 0.929 . S
H77 C35 0.930 . S
H78 C36 0.930 . S
H79 C37 0.930 . S
H80 C39 0.929 . S
H81 C40 0.930 . S
H82 C41 0.930 . S
H83 C42 0.930 . S
H84 C46 0.929 . S
H85 C48 0.930 . S
H86 C54 0.929 . S
H87 C55 0.930 . S
Li88 N105 1.990 . S
Li88 O148 1.956 . S
Li88 O149 1.970 . S
Li88 O150 1.961 . S
Li89 N113 1.990 . S
Li89 O148 1.970 . S
Li89 O149 1.956 . S
Li89 O151 1.961 . S
Li90 N135 1.990 . S
Li90 O148 1.961 . S
Li90 O150 1.956 . S
Li90 O151 1.970 . S
Li91 N141 1.990 . S
Li91 O149 1.961 . S
Li91 O150 1.970 . S
Li91 O151 1.956 . S
C92 C94 1.348 . S
C92 C95 1.356 . S
C92 O148 1.325 . S
N93 C96 1.314 . S
N93 C97 1.279 . S
C94 C92 1.348 . S
C94 C96 1.353 . S
C94 H152 0.929 . S
C95 C92 1.356 . S
C95 C97 1.358 . S
C95 H153 0.930 . S
C96 N93 1.314 . S
C96 C94 1.353 . S
C96 H154 0.930 . S
C97 N93 1.279 . S
C97 C95 1.358 . S
C97 H155 0.930 . S
C98 C101 1.348 . S
C98 C102 1.356 . S
C98 O149 1.325 . S
C99 N100 1.279 . S
C99 C102 1.358 1_565 S
C99 H156 0.930 . S
N100 C99 1.279 . S
N100 C103 1.314 1_565 S
C101 C98 1.348 . S
C101 C103 1.353 . S
C101 H157 0.929 . S
C102 C98 1.356 . S
C102 C99 1.358 1_545 S
C102 H158 0.930 . S
C103 N100 1.314 1_545 S
C103 C101 1.353 . S
C103 H159 0.930 . S
C104 N105 1.314 . S
C104 C109 1.353 . S
C104 H110 0.930 . S
N105 Li88 1.990 . S
N105 C104 1.314 . S
N105 C107 1.279 . S
C106 C107 1.358 . S
C106 C108 1.356 . S
C106 H160 0.930 . S
C107 N105 1.279 . S
C107 C106 1.358 . S
C107 H111 0.930 . S
C108 C106 1.356 . S
C108 C109 1.348 . S
C109 C104 1.353 . S
C109 C108 1.348 . S
C109 H161 0.929 . S
H110 C104 0.930 . S
H111 C107 0.930 . S
C112 N113 1.314 . S
C112 C114 1.353 . S
C112 H118 0.930 . S
N113 Li89 1.990 . S
N113 C112 1.314 . S
N113 C116 1.279 . S
C114 C112 1.353 . S
C114 C117 1.348 . S
C114 H162 0.929 . S
C115 C116 1.358 . S
C115 C117 1.356 . S
C115 H163 0.930 . S
C116 N113 1.279 . S
C116 C115 1.358 . S
C116 H119 0.930 . S
C117 C114 1.348 . S
C117 C115 1.356 . S
H118 C112 0.930 . S
H119 C116 0.930 . S
C120 C122 1.348 . S
C120 C123 1.356 . S
C120 O150 1.325 . S
N121 C124 1.314 . S
N121 C125 1.279 . S
C122 C120 1.348 . S
C122 C124 1.353 . S
C122 H164 0.929 . S
C123 C120 1.356 . S
C123 C125 1.358 . S
C123 H165 0.930 . S
C124 N121 1.314 . S
C124 C122 1.353 . S
C124 H166 0.930 . S
C125 N121 1.279 . S
C125 C123 1.358 . S
C125 H167 0.930 . S
C126 C127 1.348 . S
C126 C128 1.356 . S
C126 O151 1.325 . S
C127 C126 1.348 . S
C127 C129 1.353 . S
C127 H168 0.929 . S
C128 C126 1.356 . S
C128 C130 1.358 . S
C128 H169 0.930 . S
C129 C127 1.353 . S
C129 N131 1.314 . S
C129 H170 0.930 . S
C130 C128 1.358 . S
C130 N131 1.279 . S
C130 H171 0.930 . S
N131 C129 1.314 . S
N131 C130 1.279 . S
C132 C134 1.353 . S
C132 N135 1.314 . S
C132 H138 0.930 . S
C133 N135 1.279 . S
C133 C136 1.358 . S
C133 H139 0.930 . S
C134 C132 1.353 . S
C134 C137 1.348 . S
C134 H172 0.929 . S
N135 Li90 1.990 . S
N135 C132 1.314 . S
N135 C133 1.279 . S
C136 C133 1.358 . S
C136 C137 1.356 . S
C136 H173 0.930 . S
C137 C134 1.348 . S
C137 C136 1.356 . S
H138 C132 0.930 . S
H139 C133 0.930 . S
C140 N141 1.314 . S
C140 C142 1.353 . S
C140 H146 0.930 . S
N141 Li91 1.990 . S
N141 C140 1.314 . S
N141 C144 1.279 . S
C142 C140 1.353 . S
C142 C145 1.348 . S
C142 H174 0.929 . S
C143 C144 1.358 . S
C143 C145 1.356 . S
C143 H175 0.930 . S
C144 N141 1.279 . S
C144 C143 1.358 . S
C144 H147 0.930 . S
C145 C142 1.348 . S
C145 C143 1.356 . S
H146 C140 0.930 . S
H147 C144 0.930 . S
O148 Li88 1.956 . S
O148 Li89 1.970 . S
O148 Li90 1.961 . S
O148 C92 1.325 . S
O149 Li88 1.970 . S
O149 Li89 1.956 . S
O149 Li91 1.961 . S
O149 C98 1.325 . S
O150 Li88 1.961 . S
O150 Li90 1.956 . S
O150 Li91 1.970 . S
O150 C120 1.325 . S
O151 Li89 1.961 . S
O151 Li90 1.970 . S
O151 Li91 1.956 . S
O151 C126 1.325 . S
H152 C94 0.929 . S
H153 C95 0.930 . S
H154 C96 0.930 . S
H155 C97 0.930 . S
H156 C99 0.930 . S
H157 C101 0.929 . S
H158 C102 0.930 . S
H159 C103 0.930 . S
H160 C106 0.930 . S
H161 C109 0.929 . S
H162 C114 0.929 . S
H163 C115 0.930 . S
H164 C122 0.929 . S
H165 C123 0.930 . S
H166 C124 0.930 . S
H167 C125 0.930 . S
H168 C127 0.929 . S
H169 C128 0.930 . S
H170 C129 0.930 . S
H171 C130 0.930 . S
H172 C134 0.929 . S
H173 C136 0.930 . S
H174 C142 0.929 . S
H175 C143 0.930 . S
Li176 N193 1.990 . S
Li176 O236 1.956 . S
Li176 O237 1.970 . S
Li176 O238 1.961 . S
Li177 N201 1.990 . S
Li177 O236 1.970 . S
Li177 O237 1.956 . S
Li177 O239 1.961 . S
Li178 N223 1.990 . S
Li178 O236 1.961 . S
Li178 O238 1.956 . S
Li178 O239 1.970 . S
Li179 N229 1.990 . S
Li179 O237 1.961 . S
Li179 O238 1.970 . S
Li179 O239 1.956 . S
C180 C182 1.348 . S
C180 C183 1.356 . S
C180 O236 1.325 . S
N181 C184 1.314 . S
N181 C185 1.279 . S
C182 C180 1.348 . S
C182 C184 1.353 . S
C182 H240 0.929 . S
C183 C180 1.356 . S
C183 C185 1.358 . S
C183 H241 0.930 . S
C184 N181 1.314 . S
C184 C182 1.353 . S
C184 H242 0.930 . S
C185 N181 1.279 . S
C185 C183 1.358 . S
C185 H243 0.930 . S
C186 C189 1.348 . S
C186 C190 1.356 . S
C186 O237 1.325 . S
C187 N188 1.279 . S
C187 C190 1.358 . S
C187 H244 0.930 . S
N188 C187 1.279 . S
N188 C191 1.314 . S
C189 C186 1.348 . S
C189 C191 1.353 . S
C189 H245 0.929 . S
C190 C186 1.356 . S
C190 C187 1.358 . S
C190 H246 0.930 . S
C191 N188 1.314 . S
C191 C189 1.353 . S
C191 H247 0.930 . S
C192 N193 1.314 . S
C192 C197 1.353 . S
C192 H198 0.930 . S
N193 Li176 1.990 . S
N193 C192 1.314 . S
N193 C195 1.279 . S
C194 C195 1.358 . S
C194 C196 1.356 . S
C194 H248 0.930 . S
C195 N193 1.279 . S
C195 C194 1.358 . S
C195 H199 0.930 . S
C196 C194 1.356 . S
C196 C197 1.348 . S
C197 C192 1.353 . S
C197 C196 1.348 . S
C197 H249 0.929 . S
H198 C192 0.930 . S
H199 C195 0.930 . S
C200 N201 1.314 . S
C200 C202 1.353 . S
C200 H206 0.930 . S
N201 Li177 1.990 . S
N201 C200 1.314 . S
N201 C204 1.279 . S
C202 C200 1.353 . S
C202 C205 1.348 . S
C202 H250 0.929 . S
C203 C204 1.358 . S
C203 C205 1.356 . S
C203 H251 0.930 . S
C204 N201 1.279 . S
C204 C203 1.358 . S
C204 H207 0.930 . S
C205 C202 1.348 . S
C205 C203 1.356 . S
H206 C200 0.930 . S
H207 C204 0.930 . S
C208 C210 1.348 . S
C208 C211 1.356 . S
C208 O238 1.325 . S
N209 C212 1.314 . S
N209 C213 1.279 . S
C210 C208 1.348 . S
C210 C212 1.353 . S
C210 H252 0.929 . S
C211 C208 1.356 . S
C211 C213 1.358 . S
C211 H253 0.930 . S
C212 N209 1.314 . S
C212 C210 1.353 . S
C212 H254 0.930 . S
C213 N209 1.279 . S
C213 C211 1.358 . S
C213 H255 0.930 . S
C214 C215 1.348 . S
C214 C216 1.356 . S
C214 O239 1.325 . S
C215 C214 1.348 . S
C215 C217 1.353 . S
C215 H256 0.929 . S
C216 C214 1.356 . S
C216 C218 1.358 . S
C216 H257 0.930 . S
C217 C215 1.353 . S
C217 N219 1.314 . S
C217 H258 0.930 . S
C218 C216 1.358 . S
C218 N219 1.279 . S
C218 H259 0.930 . S
N219 C217 1.314 . S
N219 C218 1.279 . S
C220 C222 1.353 . S
C220 N223 1.314 . S
C220 H226 0.930 . S
C221 N223 1.279 . S
C221 C224 1.358 . S
C221 H227 0.930 . S
C222 C220 1.353 . S
C222 C225 1.348 . S
C222 H260 0.929 . S
N223 Li178 1.990 . S
N223 C220 1.314 . S
N223 C221 1.279 . S
C224 C221 1.358 . S
C224 C225 1.356 . S
C224 H261 0.930 . S
C225 C222 1.348 . S
C225 C224 1.356 . S
H226 C220 0.930 . S
H227 C221 0.930 . S
C228 N229 1.314 . S
C228 C230 1.353 . S
C228 H234 0.930 . S
N229 Li179 1.990 . S
N229 C228 1.314 . S
N229 C232 1.279 . S
C230 C228 1.353 . S
C230 C233 1.348 . S
C230 H262 0.929 . S
C231 C232 1.358 . S
C231 C233 1.356 . S
C231 H263 0.930 . S
C232 N229 1.279 . S
C232 C231 1.358 . S
C232 H235 0.930 . S
C233 C230 1.348 . S
C233 C231 1.356 . S
H234 C228 0.930 . S
H235 C232 0.930 . S
O236 Li176 1.956 . S
O236 Li177 1.970 . S
O236 Li178 1.961 . S
O236 C180 1.325 . S
O237 Li176 1.970 . S
O237 Li177 1.956 . S
O237 Li179 1.961 . S
O237 C186 1.325 . S
O238 Li176 1.961 . S
O238 Li178 1.956 . S
O238 Li179 1.970 . S
O238 C208 1.325 . S
O239 Li177 1.961 . S
O239 Li178 1.970 . S
O239 Li179 1.956 . S
O239 C214 1.325 . S
H240 C182 0.929 . S
H241 C183 0.930 . S
H242 C184 0.930 . S
H243 C185 0.930 . S
H244 C187 0.930 . S
H245 C189 0.929 . S
H246 C190 0.930 . S
H247 C191 0.930 . S
H248 C194 0.930 . S
H249 C197 0.929 . S
H250 C202 0.929 . S
H251 C203 0.930 . S
H252 C210 0.929 . S
H253 C211 0.930 . S
H254 C212 0.930 . S
H255 C213 0.930 . S
H256 C215 0.929 . S
H257 C216 0.930 . S
H258 C217 0.930 . S
H259 C218 0.930 . S
H260 C222 0.929 . S
H261 C224 0.930 . S
H262 C230 0.929 . S
H263 C231 0.930 . S
Li264 N281 1.990 . S
Li264 O324 1.956 . S
Li264 O325 1.970 . S
Li264 O326 1.961 . S
Li265 N289 1.990 . S
Li265 O324 1.970 . S
Li265 O325 1.956 . S
Li265 O327 1.961 . S
Li266 N311 1.990 . S
Li266 O324 1.961 . S
Li266 O326 1.956 . S
Li266 O327 1.970 . S
Li267 N317 1.990 . S
Li267 O325 1.961 . S
Li267 O326 1.970 . S
Li267 O327 1.956 . S
C268 C270 1.348 . S
C268 C271 1.356 . S
C268 O324 1.325 . S
N269 C272 1.314 . S
N269 C273 1.279 . S
C270 C268 1.348 . S
C270 C272 1.353 . S
C270 H328 0.929 . S
C271 C268 1.356 . S
C271 C273 1.358 . S
C271 H329 0.930 . S
C272 N269 1.314 . S
C272 C270 1.353 . S
C272 H330 0.930 . S
C273 N269 1.279 . S
C273 C271 1.358 . S
C273 H331 0.930 . S
C274 C277 1.348 . S
C274 C278 1.356 . S
C274 O325 1.325 . S
C275 N276 1.279 . S
C275 C278 1.358 1_455 S
C275 H332 0.930 . S
N276 C275 1.279 . S
N276 C279 1.314 1_455 S
C277 C274 1.348 . S
C277 C279 1.353 . S
C277 H333 0.929 . S
C278 C274 1.356 . S
C278 C275 1.358 1_655 S
C278 H334 0.930 . S
C279 N276 1.314 1_655 S
C279 C277 1.353 . S
C279 H335 0.930 . S
C280 N281 1.314 . S
C280 C285 1.353 . S
C280 H286 0.930 . S
N281 Li264 1.990 . S
N281 C280 1.314 . S
N281 C283 1.279 . S
C282 C283 1.358 . S
C282 C284 1.356 . S
C282 H336 0.930 . S
C283 N281 1.279 . S
C283 C282 1.358 . S
C283 H287 0.930 . S
C284 C282 1.356 . S
C284 C285 1.348 . S
C285 C280 1.353 . S
C285 C284 1.348 . S
C285 H337 0.929 . S
H286 C280 0.930 . S
H287 C283 0.930 . S
C288 N289 1.314 . S
C288 C290 1.353 . S
C288 H294 0.930 . S
N289 Li265 1.990 . S
N289 C288 1.314 . S
N289 C292 1.279 . S
C290 C288 1.353 . S
C290 C293 1.348 . S
C290 H338 0.929 . S
C291 C292 1.358 . S
C291 C293 1.356 . S
C291 H339 0.930 . S
C292 N289 1.279 . S
C292 C291 1.358 . S
C292 H295 0.930 . S
C293 C290 1.348 . S
C293 C291 1.356 . S
H294 C288 0.930 . S
H295 C292 0.930 . S
C296 C298 1.348 . S
C296 C299 1.356 . S
C296 O326 1.325 . S
N297 C300 1.314 . S
N297 C301 1.279 . S
C298 C296 1.348 . S
C298 C300 1.353 . S
C298 H340 0.929 . S
C299 C296 1.356 . S
C299 C301 1.358 . S
C299 H341 0.930 . S
C300 N297 1.314 . S
C300 C298 1.353 . S
C300 H342 0.930 . S
C301 N297 1.279 . S
C301 C299 1.358 . S
C301 H343 0.930 . S
C302 C303 1.348 . S
C302 C304 1.356 . S
C302 O327 1.325 . S
C303 C302 1.348 . S
C303 C305 1.353 . S
C303 H344 0.929 . S
C304 C302 1.356 . S
C304 C306 1.358 . S
C304 H345 0.930 . S
C305 C303 1.353 . S
C305 N307 1.314 . S
C305 H346 0.930 . S
C306 C304 1.358 . S
C306 N307 1.279 . S
C306 H347 0.930 . S
N307 C305 1.314 . S
N307 C306 1.279 . S
C308 C310 1.353 . S
C308 N311 1.314 . S
C308 H314 0.930 . S
C309 N311 1.279 . S
C309 C312 1.358 . S
C309 H315 0.930 . S
C310 C308 1.353 . S
C310 C313 1.348 . S
C310 H348 0.929 . S
N311 Li266 1.990 . S
N311 C308 1.314 . S
N311 C309 1.279 . S
C312 C309 1.358 . S
C312 C313 1.356 . S
C312 H349 0.930 . S
C313 C310 1.348 . S
C313 C312 1.356 . S
H314 C308 0.930 . S
H315 C309 0.930 . S
C316 N317 1.314 . S
C316 C318 1.353 . S
C316 H322 0.930 . S
N317 Li267 1.990 . S
N317 C316 1.314 . S
N317 C320 1.279 . S
C318 C316 1.353 . S
C318 C321 1.348 . S
C318 H350 0.929 . S
C319 C320 1.358 . S
C319 C321 1.356 . S
C319 H351 0.930 . S
C320 N317 1.279 . S
C320 C319 1.358 . S
C320 H323 0.930 . S
C321 C318 1.348 . S
C321 C319 1.356 . S
H322 C316 0.930 . S
H323 C320 0.930 . S
O324 Li264 1.956 . S
O324 Li265 1.970 . S
O324 Li266 1.961 . S
O324 C268 1.325 . S
O325 Li264 1.970 . S
O325 Li265 1.956 . S
O325 Li267 1.961 . S
O325 C274 1.325 . S
O326 Li264 1.961 . S
O326 Li266 1.956 . S
O326 Li267 1.970 . S
O326 C296 1.325 . S
O327 Li265 1.961 . S
O327 Li266 1.970 . S
O327 Li267 1.956 . S
O327 C302 1.325 . S
H328 C270 0.929 . S
H329 C271 0.930 . S
H330 C272 0.930 . S
H331 C273 0.930 . S
H332 C275 0.930 . S
H333 C277 0.929 . S
H334 C278 0.930 . S
H335 C279 0.930 . S
H336 C282 0.930 . S
H337 C285 0.929 . S
H338 C290 0.929 . S
H339 C291 0.930 . S
H340 C298 0.929 . S
H341 C299 0.930 . S
H342 C300 0.930 . S
H343 C301 0.930 . S
H344 C303 0.929 . S
H345 C304 0.930 . S
H346 C305 0.930 . S
H347 C306 0.930 . S
H348 C310 0.929 . S
H349 C312 0.930 . S
H350 C318 0.929 . S
H351 C319 0.930 . S
Li352 N369 1.990 . S
Li352 O412 1.956 . S
Li352 O413 1.970 . S
Li352 O414 1.961 . S
Li353 N377 1.990 . S
Li353 O412 1.970 . S
Li353 O413 1.956 . S
Li353 O415 1.961 . S
Li354 N399 1.990 . S
Li354 O412 1.961 . S
Li354 O414 1.956 . S
Li354 O415 1.970 . S
Li355 N405 1.990 . S
Li355 O413 1.961 . S
Li355 O414 1.970 . S
Li355 O415 1.956 . S
C356 C358 1.348 . S
C356 C359 1.356 . S
C356 O412 1.325 . S
N357 C360 1.314 1_545 S
N357 C361 1.279 . S
C358 C356 1.348 . S
C358 C360 1.353 . S
C358 H416 0.929 . S
C359 C356 1.356 . S
C359 C361 1.358 1_565 S
C359 H417 0.930 . S
C360 N357 1.314 1_565 S
C360 C358 1.353 . S
C360 H418 0.930 . S
C361 N357 1.279 . S
C361 C359 1.358 1_545 S
C361 H419 0.930 . S
C362 C365 1.348 . S
C362 C366 1.356 . S
C362 O413 1.325 . S
C363 N364 1.279 . S
C363 C366 1.358 . S
C363 H420 0.930 . S
N364 C363 1.279 . S
N364 C367 1.314 . S
C365 C362 1.348 . S
C365 C367 1.353 . S
C365 H421 0.929 . S
C366 C362 1.356 . S
C366 C363 1.358 . S
C366 H422 0.930 . S
C367 N364 1.314 . S
C367 C365 1.353 . S
C367 H423 0.930 . S
C368 N369 1.314 . S
C368 C373 1.353 . S
C368 H374 0.930 . S
N369 Li352 1.990 . S
N369 C368 1.314 . S
N369 C371 1.279 . S
C370 C371 1.358 . S
C370 C372 1.356 . S
C370 H424 0.930 . S
C371 N369 1.279 . S
C371 C370 1.358 . S
C371 H375 0.930 . S
C372 C370 1.356 . S
C372 C373 1.348 . S
C373 C368 1.353 . S
C373 C372 1.348 . S
C373 H425 0.929 . S
H374 C368 0.930 . S
H375 C371 0.930 . S
C376 N377 1.314 . S
C376 C378 1.353 . S
C376 H382 0.930 . S
N377 Li353 1.990 . S
N377 C376 1.314 . S
N377 C380 1.279 . S
C378 C376 1.353 . S
C378 C381 1.348 . S
C378 H426 0.929 . S
C379 C380 1.358 . S
C379 C381 1.356 . S
C379 H427 0.930 . S
C380 N377 1.279 . S
C380 C379 1.358 . S
C380 H383 0.930 . S
C381 C378 1.348 . S
C381 C379 1.356 . S
H382 C376 0.930 . S
H383 C380 0.930 . S
C384 C386 1.348 . S
C384 C387 1.356 . S
C384 O414 1.325 . S
N385 C388 1.314 . S
N385 C389 1.279 . S
C386 C384 1.348 . S
C386 C388 1.353 . S
C386 H428 0.929 . S
C387 C384 1.356 . S
C387 C389 1.358 . S
C387 H429 0.930 . S
C388 N385 1.314 . S
C388 C386 1.353 . S
C388 H430 0.930 . S
C389 N385 1.279 . S
C389 C387 1.358 . S
C389 H431 0.930 . S
C390 C391 1.348 . S
C390 C392 1.356 . S
C390 O415 1.325 . S
C391 C390 1.348 . S
C391 C393 1.353 . S
C391 H432 0.929 . S
C392 C390 1.356 . S
C392 C394 1.358 . S
C392 H433 0.930 . S
C393 C391 1.353 . S
C393 N395 1.314 . S
C393 H434 0.930 . S
C394 C392 1.358 . S
C394 N395 1.279 . S
C394 H435 0.930 . S
N395 C393 1.314 . S
N395 C394 1.279 . S
C396 C398 1.353 . S
C396 N399 1.314 . S
C396 H402 0.930 . S
C397 N399 1.279 . S
C397 C400 1.358 . S
C397 H403 0.930 . S
C398 C396 1.353 . S
C398 C401 1.348 . S
C398 H436 0.929 . S
N399 Li354 1.990 . S
N399 C396 1.314 . S
N399 C397 1.279 . S
C400 C397 1.358 . S
C400 C401 1.356 . S
C400 H437 0.930 . S
C401 C398 1.348 . S
C401 C400 1.356 . S
H402 C396 0.930 . S
H403 C397 0.930 . S
C404 N405 1.314 . S
C404 C406 1.353 . S
C404 H410 0.930 . S
N405 Li355 1.990 . S
N405 C404 1.314 . S
N405 C408 1.279 . S
C406 C404 1.353 . S
C406 C409 1.348 . S
C406 H438 0.929 . S
C407 C408 1.358 . S
C407 C409 1.356 . S
C407 H439 0.930 . S
C408 N405 1.279 . S
C408 C407 1.358 . S
C408 H411 0.930 . S
C409 C406 1.348 . S
C409 C407 1.356 . S
H410 C404 0.930 . S
H411 C408 0.930 . S
O412 Li352 1.956 . S
O412 Li353 1.970 . S
O412 Li354 1.961 . S
O412 C356 1.325 . S
O413 Li352 1.970 . S
O413 Li353 1.956 . S
O413 Li355 1.961 . S
O413 C362 1.325 . S
O414 Li352 1.961 . S
O414 Li354 1.956 . S
O414 Li355 1.970 . S
O414 C384 1.325 . S
O415 Li353 1.961 . S
O415 Li354 1.970 . S
O415 Li355 1.956 . S
O415 C390 1.325 . S
H416 C358 0.929 . S
H417 C359 0.930 . S
H418 C360 0.930 . S
H419 C361 0.930 . S
H420 C363 0.930 . S
H421 C365 0.929 . S
H422 C366 0.930 . S
H423 C367 0.930 . S
H424 C370 0.930 . S
H425 C373 0.929 . S
H426 C378 0.929 . S
H427 C379 0.930 . S
H428 C386 0.929 . S
H429 C387 0.930 . S
H430 C388 0.930 . S
H431 C389 0.930 . S
H432 C391 0.929 . S
H433 C392 0.930 . S
H434 C393 0.930 . S
H435 C394 0.930 . S
H436 C398 0.929 . S
H437 C400 0.930 . S
H438 C406 0.929 . S
H439 C407 0.930 . S
Li440 N457 1.990 . S
Li440 O500 1.956 . S
Li440 O501 1.970 . S
Li440 O502 1.961 . S
Li441 N465 1.990 . S
Li441 O500 1.970 . S
Li441 O501 1.956 . S
Li441 O503 1.961 . S
Li442 N487 1.990 . S
Li442 O500 1.961 . S
Li442 O502 1.956 . S
Li442 O503 1.970 . S
Li443 N493 1.990 . S
Li443 O501 1.961 . S
Li443 O502 1.970 . S
Li443 O503 1.956 . S
C444 C446 1.348 . S
C444 C447 1.356 . S
C444 O500 1.325 . S
N445 C448 1.314 . S
N445 C449 1.279 . S
C446 C444 1.348 . S
C446 C448 1.353 . S
C446 H504 0.929 . S
C447 C444 1.356 . S
C447 C449 1.358 . S
C447 H505 0.930 . S
C448 N445 1.314 . S
C448 C446 1.353 . S
C448 H506 0.930 . S
C449 N445 1.279 . S
C449 C447 1.358 . S
C449 H507 0.930 . S
C450 C453 1.348 . S
C450 C454 1.356 . S
C450 O501 1.325 . S
C451 N452 1.279 . S
C451 C454 1.358 . S
C451 H508 0.930 . S
N452 C451 1.279 . S
N452 C455 1.314 . S
C453 C450 1.348 . S
C453 C455 1.353 . S
C453 H509 0.929 . S
C454 C450 1.356 . S
C454 C451 1.358 . S
C454 H510 0.930 . S
C455 N452 1.314 . S
C455 C453 1.353 . S
C455 H511 0.930 . S
C456 N457 1.314 . S
C456 C461 1.353 . S
C456 H462 0.930 . S
N457 Li440 1.990 . S
N457 C456 1.314 . S
N457 C459 1.279 . S
C458 C459 1.358 . S
C458 C460 1.356 . S
C458 H512 0.930 . S
C459 N457 1.279 . S
C459 C458 1.358 . S
C459 H463 0.930 . S
C460 C458 1.356 . S
C460 C461 1.348 . S
C461 C456 1.353 . S
C461 C460 1.348 . S
C461 H513 0.929 . S
H462 C456 0.930 . S
H463 C459 0.930 . S
C464 N465 1.314 . S
C464 C466 1.353 . S
C464 H470 0.930 . S
N465 Li441 1.990 . S
N465 C464 1.314 . S
N465 C468 1.279 . S
C466 C464 1.353 . S
C466 C469 1.348 . S
C466 H514 0.929 . S
C467 C468 1.358 . S
C467 C469 1.356 . S
C467 H515 0.930 . S
C468 N465 1.279 . S
C468 C467 1.358 . S
C468 H471 0.930 . S
C469 C466 1.348 . S
C469 C467 1.356 . S
H470 C464 0.930 . S
H471 C468 0.930 . S
C472 C474 1.348 . S
C472 C475 1.356 . S
C472 O502 1.325 . S
N473 C476 1.314 . S
N473 C477 1.279 . S
C474 C472 1.348 . S
C474 C476 1.353 . S
C474 H516 0.929 . S
C475 C472 1.356 . S
C475 C477 1.358 . S
C475 H517 0.930 . S
C476 N473 1.314 . S
C476 C474 1.353 . S
C476 H518 0.930 . S
C477 N473 1.279 . S
C477 C475 1.358 . S
C477 H519 0.930 . S
C478 C479 1.348 . S
C478 C480 1.356 . S
C478 O503 1.325 . S
C479 C478 1.348 . S
C479 C481 1.353 . S
C479 H520 0.929 . S
C480 C478 1.356 . S
C480 C482 1.358 . S
C480 H521 0.930 . S
C481 C479 1.353 . S
C481 N483 1.314 . S
C481 H522 0.930 . S
C482 C480 1.358 . S
C482 N483 1.279 . S
C482 H523 0.930 . S
N483 C481 1.314 . S
N483 C482 1.279 . S
C484 C486 1.353 . S
C484 N487 1.314 . S
C484 H490 0.930 . S
C485 N487 1.279 . S
C485 C488 1.358 . S
C485 H491 0.930 . S
C486 C484 1.353 . S
C486 C489 1.348 . S
C486 H524 0.929 . S
N487 Li442 1.990 . S
N487 C484 1.314 . S
N487 C485 1.279 . S
C488 C485 1.358 . S
C488 C489 1.356 . S
C488 H525 0.930 . S
C489 C486 1.348 . S
C489 C488 1.356 . S
H490 C484 0.930 . S
H491 C485 0.930 . S
C492 N493 1.314 . S
C492 C494 1.353 . S
C492 H498 0.930 . S
N493 Li443 1.990 . S
N493 C492 1.314 . S
N493 C496 1.279 . S
C494 C492 1.353 . S
C494 C497 1.348 . S
C494 H526 0.929 . S
C495 C496 1.358 . S
C495 C497 1.356 . S
C495 H527 0.930 . S
C496 N493 1.279 . S
C496 C495 1.358 . S
C496 H499 0.930 . S
C497 C494 1.348 . S
C497 C495 1.356 . S
H498 C492 0.930 . S
H499 C496 0.930 . S
O500 Li440 1.956 . S
O500 Li441 1.970 . S
O500 Li442 1.961 . S
O500 C444 1.325 . S
O501 Li440 1.970 . S
O501 Li441 1.956 . S
O501 Li443 1.961 . S
O501 C450 1.325 . S
O502 Li440 1.961 . S
O502 Li442 1.956 . S
O502 Li443 1.970 . S
O502 C472 1.325 . S
O503 Li441 1.961 . S
O503 Li442 1.970 . S
O503 Li443 1.956 . S
O503 C478 1.325 . S
H504 C446 0.929 . S
H505 C447 0.930 . S
H506 C448 0.930 . S
H507 C449 0.930 . S
H508 C451 0.930 . S
H509 C453 0.929 . S
H510 C454 0.930 . S
H511 C455 0.930 . S
H512 C458 0.930 . S
H513 C461 0.929 . S
H514 C466 0.929 . S
H515 C467 0.930 . S
H516 C474 0.929 . S
H517 C475 0.930 . S
H518 C476 0.930 . S
H519 C477 0.930 . S
H520 C479 0.929 . S
H521 C480 0.930 . S
H522 C481 0.930 . S
H523 C482 0.930 . S
H524 C486 0.929 . S
H525 C488 0.930 . S
H526 C494 0.929 . S
H527 C495 0.930 . S
Li528 N545 1.990 . S
Li528 O588 1.956 . S
Li528 O589 1.970 . S
Li528 O590 1.961 . S
Li529 N553 1.990 . S
Li529 O588 1.970 . S
Li529 O589 1.956 . S
Li529 O591 1.961 . S
Li530 N575 1.990 . S
Li530 O588 1.961 . S
Li530 O590 1.956 . S
Li530 O591 1.970 . S
Li531 N581 1.990 . S
Li531 O589 1.961 . S
Li531 O590 1.970 . S
Li531 O591 1.956 . S
C532 C534 1.348 . S
C532 C535 1.356 . S
C532 O588 1.325 . S
N533 C536 1.314 . S
N533 C537 1.279 . S
C534 C532 1.348 . S
C534 C536 1.353 . S
C534 H592 0.929 . S
C535 C532 1.356 . S
C535 C537 1.358 . S
C535 H593 0.930 . S
C536 N533 1.314 . S
C536 C534 1.353 . S
C536 H594 0.930 . S
C537 N533 1.279 . S
C537 C535 1.358 . S
C537 H595 0.930 . S
C538 C541 1.348 . S
C538 C542 1.356 . S
C538 O589 1.325 . S
C539 N540 1.279 . S
C539 C542 1.358 . S
C539 H596 0.930 . S
N540 C539 1.279 . S
N540 C543 1.314 . S
C541 C538 1.348 . S
C541 C543 1.353 . S
C541 H597 0.929 . S
C542 C538 1.356 . S
C542 C539 1.358 . S
C542 H598 0.930 . S
C543 N540 1.314 . S
C543 C541 1.353 . S
C543 H599 0.930 . S
C544 N545 1.314 . S
C544 C549 1.353 . S
C544 H550 0.930 . S
N545 Li528 1.990 . S
N545 C544 1.314 . S
N545 C547 1.279 . S
C546 C547 1.358 . S
C546 C548 1.356 . S
C546 H600 0.930 . S
C547 N545 1.279 . S
C547 C546 1.358 . S
C547 H551 0.930 . S
C548 C546 1.356 . S
C548 C549 1.348 . S
C549 C544 1.353 . S
C549 C548 1.348 . S
C549 H601 0.929 . S
H550 C544 0.930 . S
H551 C547 0.930 . S
C552 N553 1.314 . S
C552 C554 1.353 . S
C552 H558 0.930 . S
N553 Li529 1.990 . S
N553 C552 1.314 . S
N553 C556 1.279 . S
C554 C552 1.353 . S
C554 C557 1.348 . S
C554 H602 0.929 . S
C555 C556 1.358 . S
C555 C557 1.356 . S
C555 H603 0.930 . S
C556 N553 1.279 . S
C556 C555 1.358 . S
C556 H559 0.930 . S
C557 C554 1.348 . S
C557 C555 1.356 . S
H558 C552 0.930 . S
H559 C556 0.930 . S
C560 C562 1.348 . S
C560 C563 1.356 . S
C560 O590 1.325 . S
N561 C564 1.314 1_545 S
N561 C565 1.279 . S
C562 C560 1.348 . S
C562 C564 1.353 . S
C562 H604 0.929 . S
C563 C560 1.356 . S
C563 C565 1.358 1_565 S
C563 H605 0.930 . S
C564 N561 1.314 1_565 S
C564 C562 1.353 . S
C564 H606 0.930 . S
C565 N561 1.279 . S
C565 C563 1.358 1_545 S
C565 H607 0.930 . S
C566 C567 1.348 . S
C566 C568 1.356 . S
C566 O591 1.325 . S
C567 C566 1.348 . S
C567 C569 1.353 . S
C567 H608 0.929 . S
C568 C566 1.356 . S
C568 C570 1.358 . S
C568 H609 0.930 . S
C569 C567 1.353 . S
C569 N571 1.314 . S
C569 H610 0.930 . S
C570 C568 1.358 . S
C570 N571 1.279 . S
C570 H611 0.930 . S
N571 C569 1.314 . S
N571 C570 1.279 . S
C572 C574 1.353 . S
C572 N575 1.314 . S
C572 H578 0.930 . S
C573 N575 1.279 . S
C573 C576 1.358 . S
C573 H579 0.930 . S
C574 C572 1.353 . S
C574 C577 1.348 . S
C574 H612 0.929 . S
N575 Li530 1.990 . S
N575 C572 1.314 . S
N575 C573 1.279 . S
C576 C573 1.358 . S
C576 C577 1.356 . S
C576 H613 0.930 . S
C577 C574 1.348 . S
C577 C576 1.356 . S
H578 C572 0.930 . S
H579 C573 0.930 . S
C580 N581 1.314 . S
C580 C582 1.353 . S
C580 H586 0.930 . S
N581 Li531 1.990 . S
N581 C580 1.314 . S
N581 C584 1.279 . S
C582 C580 1.353 . S
C582 C585 1.348 . S
C582 H614 0.929 . S
C583 C584 1.358 . S
C583 C585 1.356 . S
C583 H615 0.930 . S
C584 N581 1.279 . S
C584 C583 1.358 . S
C584 H587 0.930 . S
C585 C582 1.348 . S
C585 C583 1.356 . S
H586 C580 0.930 . S
H587 C584 0.930 . S
O588 Li528 1.956 . S
O588 Li529 1.970 . S
O588 Li530 1.961 . S
O588 C532 1.325 . S
O589 Li528 1.970 . S
O589 Li529 1.956 . S
O589 Li531 1.961 . S
O589 C538 1.325 . S
O590 Li528 1.961 . S
O590 Li530 1.956 . S
O590 Li531 1.970 . S
O590 C560 1.325 . S
O591 Li529 1.961 . S
O591 Li530 1.970 . S
O591 Li531 1.956 . S
O591 C566 1.325 . S
H592 C534 0.929 . S
H593 C535 0.930 . S
H594 C536 0.930 . S
H595 C537 0.930 . S
H596 C539 0.930 . S
H597 C541 0.929 . S
H598 C542 0.930 . S
H599 C543 0.930 . S
H600 C546 0.930 . S
H601 C549 0.929 . S
H602 C554 0.929 . S
H603 C555 0.930 . S
H604 C562 0.929 . S
H605 C563 0.930 . S
H606 C564 0.930 . S
H607 C565 0.930 . S
H608 C567 0.929 . S
H609 C568 0.930 . S
H610 C569 0.930 . S
H611 C570 0.930 . S
H612 C574 0.929 . S
H613 C576 0.930 . S
H614 C582 0.929 . S
H615 C583 0.930 . S
Li616 N633 1.990 . S
Li616 O676 1.956 . S
Li616 O677 1.970 . S
Li616 O678 1.961 . S
Li617 N641 1.990 . S
Li617 O676 1.970 . S
Li617 O677 1.956 . S
Li617 O679 1.961 . S
Li618 N663 1.990 . S
Li618 O676 1.961 . S
Li618 O678 1.956 . S
Li618 O679 1.970 . S
Li619 N669 1.990 . S
Li619 O677 1.961 . S
Li619 O678 1.970 . S
Li619 O679 1.956 . S
C620 C622 1.348 . S
C620 C623 1.356 . S
C620 O676 1.325 . S
N621 C624 1.314 . S
N621 C625 1.279 . S
C622 C620 1.348 . S
C622 C624 1.353 . S
C622 H680 0.929 . S
C623 C620 1.356 . S
C623 C625 1.358 . S
C623 H681 0.930 . S
C624 N621 1.314 . S
C624 C622 1.353 . S
C624 H682 0.930 . S
C625 N621 1.279 . S
C625 C623 1.358 . S
C625 H683 0.930 . S
C626 C629 1.348 . S
C626 C630 1.356 . S
C626 O677 1.325 . S
C627 N628 1.279 . S
C627 C630 1.358 . S
C627 H684 0.930 . S
N628 C627 1.279 . S
N628 C631 1.314 . S
C629 C626 1.348 . S
C629 C631 1.353 . S
C629 H685 0.929 . S
C630 C626 1.356 . S
C630 C627 1.358 . S
C630 H686 0.930 . S
C631 N628 1.314 . S
C631 C629 1.353 . S
C631 H687 0.930 . S
C632 N633 1.314 . S
C632 C637 1.353 . S
C632 H638 0.930 . S
N633 Li616 1.990 . S
N633 C632 1.314 . S
N633 C635 1.279 . S
C634 C635 1.358 . S
C634 C636 1.356 . S
C634 H688 0.930 . S
C635 N633 1.279 . S
C635 C634 1.358 . S
C635 H639 0.930 . S
C636 C634 1.356 . S
C636 C637 1.348 . S
C637 C632 1.353 . S
C637 C636 1.348 . S
C637 H689 0.929 . S
H638 C632 0.930 . S
H639 C635 0.930 . S
C640 N641 1.314 . S
C640 C642 1.353 . S
C640 H646 0.930 . S
N641 Li617 1.990 . S
N641 C640 1.314 . S
N641 C644 1.279 . S
C642 C640 1.353 . S
C642 C645 1.348 . S
C642 H690 0.929 . S
C643 C644 1.358 . S
C643 C645 1.356 . S
C643 H691 0.930 . S
C644 N641 1.279 . S
C644 C643 1.358 . S
C644 H647 0.930 . S
C645 C642 1.348 . S
C645 C643 1.356 . S
H646 C640 0.930 . S
H647 C644 0.930 . S
C648 C650 1.348 . S
C648 C651 1.356 . S
C648 O678 1.325 . S
N649 C652 1.314 . S
N649 C653 1.279 . S
C650 C648 1.348 . S
C650 C652 1.353 . S
C650 H692 0.929 . S
C651 C648 1.356 . S
C651 C653 1.358 . S
C651 H693 0.930 . S
C652 N649 1.314 . S
C652 C650 1.353 . S
C652 H694 0.930 . S
C653 N649 1.279 . S
C653 C651 1.358 . S
C653 H695 0.930 . S
C654 C655 1.348 . S
C654 C656 1.356 . S
C654 O679 1.325 . S
C655 C654 1.348 . S
C655 C657 1.353 . S
C655 H696 0.929 . S
C656 C654 1.356 . S
C656 C658 1.358 . S
C656 H697 0.930 . S
C657 C655 1.353 . S
C657 N659 1.314 . S
C657 H698 0.930 . S
C658 C656 1.358 . S
C658 N659 1.279 . S
C658 H699 0.930 . S
N659 C657 1.314 . S
N659 C658 1.279 . S
C660 C662 1.353 . S
C660 N663 1.314 . S
C660 H666 0.930 . S
C661 N663 1.279 . S
C661 C664 1.358 . S
C661 H667 0.930 . S
C662 C660 1.353 . S
C662 C665 1.348 . S
C662 H700 0.929 . S
N663 Li618 1.990 . S
N663 C660 1.314 . S
N663 C661 1.279 . S
C664 C661 1.358 . S
C664 C665 1.356 . S
C664 H701 0.930 . S
C665 C662 1.348 . S
C665 C664 1.356 . S
H666 C660 0.930 . S
H667 C661 0.930 . S
C668 N669 1.314 . S
C668 C670 1.353 . S
C668 H674 0.930 . S
N669 Li619 1.990 . S
N669 C668 1.314 . S
N669 C672 1.279 . S
C670 C668 1.353 . S
C670 C673 1.348 . S
C670 H702 0.929 . S
C671 C672 1.358 . S
C671 C673 1.356 . S
C671 H703 0.930 . S
C672 N669 1.279 . S
C672 C671 1.358 . S
C672 H675 0.930 . S
C673 C670 1.348 . S
C673 C671 1.356 . S
H674 C668 0.930 . S
H675 C672 0.930 . S
O676 Li616 1.956 . S
O676 Li617 1.970 . S
O676 Li618 1.961 . S
O676 C620 1.325 . S
O677 Li616 1.970 . S
O677 Li617 1.956 . S
O677 Li619 1.961 . S
O677 C626 1.325 . S
O678 Li616 1.961 . S
O678 Li618 1.956 . S
O678 Li619 1.970 . S
O678 C648 1.325 . S
O679 Li617 1.961 . S
O679 Li618 1.970 . S
O679 Li619 1.956 . S
O679 C654 1.325 . S
H680 C622 0.929 . S
H681 C623 0.930 . S
H682 C624 0.930 . S
H683 C625 0.930 . S
H684 C627 0.930 . S
H685 C629 0.929 . S
H686 C630 0.930 . S
H687 C631 0.930 . S
H688 C634 0.930 . S
H689 C637 0.929 . S
H690 C642 0.929 . S
H691 C643 0.930 . S
H692 C650 0.929 . S
H693 C651 0.930 . S
H694 C652 0.930 . S
H695 C653 0.930 . S
H696 C655 0.929 . S
H697 C656 0.930 . S
H698 C657 0.930 . S
H699 C658 0.930 . S
H700 C662 0.929 . S
H701 C664 0.930 . S
H702 C670 0.929 . S
H703 C671 0.930 . S
Li704 N721 1.990 . S
Li704 O764 1.956 . S
Li704 O765 1.970 . S
Li704 O766 1.961 . S
Li705 N729 1.990 . S
Li705 O764 1.970 . S
Li705 O765 1.956 . S
Li705 O767 1.961 . S
Li706 N751 1.990 . S
Li706 O764 1.961 . S
Li706 O766 1.956 . S
Li706 O767 1.970 . S
Li707 N757 1.990 . S
Li707 O765 1.961 . S
Li707 O766 1.970 . S
Li707 O767 1.956 . S
C708 C710 1.348 . S
C708 C711 1.356 . S
C708 O764 1.325 . S
N709 C712 1.314 . S
N709 C713 1.279 . S
C710 C708 1.348 . S
C710 C712 1.353 . S
C710 H768 0.929 . S
C711 C708 1.356 . S
C711 C713 1.358 . S
C711 H769 0.930 . S
C712 N709 1.314 . S
C712 C710 1.353 . S
C712 H770 0.930 . S
C713 N709 1.279 . S
C713 C711 1.358 . S
C713 H771 0.930 . S
C714 C717 1.348 . S
C714 C718 1.356 . S
C714 O765 1.325 . S
C715 N716 1.279 . S
C715 C718 1.358 . S
C715 H772 0.930 . S
N716 C715 1.279 . S
N716 C719 1.314 . S
C717 C714 1.348 . S
C717 C719 1.353 . S
C717 H773 0.929 . S
C718 C714 1.356 . S
C718 C715 1.358 . S
C718 H774 0.930 . S
C719 N716 1.314 . S
C719 C717 1.353 . S
C719 H775 0.930 . S
C720 N721 1.314 . S
C720 C725 1.353 . S
C720 H726 0.930 . S
N721 Li704 1.990 . S
N721 C720 1.314 . S
N721 C723 1.279 . S
C722 C723 1.358 . S
C722 C724 1.356 . S
C722 H776 0.930 . S
C723 N721 1.279 . S
C723 C722 1.358 . S
C723 H727 0.930 . S
C724 C722 1.356 . S
C724 C725 1.348 . S
C725 C720 1.353 . S
C725 C724 1.348 . S
C725 H777 0.929 . S
H726 C720 0.930 . S
H727 C723 0.930 . S
C728 N729 1.314 . S
C728 C730 1.353 . S
C728 H734 0.930 . S
N729 Li705 1.990 . S
N729 C728 1.314 . S
N729 C732 1.279 . S
C730 C728 1.353 . S
C730 C733 1.348 . S
C730 H778 0.929 . S
C731 C732 1.358 . S
C731 C733 1.356 . S
C731 H779 0.930 . S
C732 N729 1.279 . S
C732 C731 1.358 . S
C732 H735 0.930 . S
C733 C730 1.348 . S
C733 C731 1.356 . S
H734 C728 0.930 . S
H735 C732 0.930 . S
C736 C738 1.348 . S
C736 C739 1.356 . S
C736 O766 1.325 . S
N737 C740 1.314 . S
N737 C741 1.279 . S
C738 C736 1.348 . S
C738 C740 1.353 . S
C738 H780 0.929 . S
C739 C736 1.356 . S
C739 C741 1.358 . S
C739 H781 0.930 . S
C740 N737 1.314 . S
C740 C738 1.353 . S
C740 H782 0.930 . S
C741 N737 1.279 . S
C741 C739 1.358 . S
C741 H783 0.930 . S
C742 C743 1.348 . S
C742 C744 1.356 . S
C742 O767 1.325 . S
C743 C742 1.348 . S
C743 C745 1.353 . S
C743 H784 0.929 . S
C744 C742 1.356 . S
C744 C746 1.358 1_455 S
C744 H785 0.930 . S
C745 C743 1.353 . S
C745 N747 1.314 1_455 S
C745 H786 0.930 . S
C746 C744 1.358 1_655 S
C746 N747 1.279 . S
C746 H787 0.930 . S
N747 C745 1.314 1_655 S
N747 C746 1.279 . S
C748 C750 1.353 . S
C748 N751 1.314 . S
C748 H754 0.930 . S
C749 N751 1.279 . S
C749 C752 1.358 . S
C749 H755 0.930 . S
C750 C748 1.353 . S
C750 C753 1.348 . S
C750 H788 0.929 . S
N751 Li706 1.990 . S
N751 C748 1.314 . S
N751 C749 1.279 . S
C752 C749 1.358 . S
C752 C753 1.356 . S
C752 H789 0.930 . S
C753 C750 1.348 . S
C753 C752 1.356 . S
H754 C748 0.930 . S
H755 C749 0.930 . S
C756 N757 1.314 . S
C756 C758 1.353 . S
C756 H762 0.930 . S
N757 Li707 1.990 . S
N757 C756 1.314 . S
N757 C760 1.279 . S
C758 C756 1.353 . S
C758 C761 1.348 . S
C758 H790 0.929 . S
C759 C760 1.358 . S
C759 C761 1.356 . S
C759 H791 0.930 . S
C760 N757 1.279 . S
C760 C759 1.358 . S
C760 H763 0.930 . S
C761 C758 1.348 . S
C761 C759 1.356 . S
H762 C756 0.930 . S
H763 C760 0.930 . S
O764 Li704 1.956 . S
O764 Li705 1.970 . S
O764 Li706 1.961 . S
O764 C708 1.325 . S
O765 Li704 1.970 . S
O765 Li705 1.956 . S
O765 Li707 1.961 . S
O765 C714 1.325 . S
O766 Li704 1.961 . S
O766 Li706 1.956 . S
O766 Li707 1.970 . S
O766 C736 1.325 . S
O767 Li705 1.961 . S
O767 Li706 1.970 . S
O767 Li707 1.956 . S
O767 C742 1.325 . S
H768 C710 0.929 . S
H769 C711 0.930 . S
H770 C712 0.930 . S
H771 C713 0.930 . S
H772 C715 0.930 . S
H773 C717 0.929 . S
H774 C718 0.930 . S
H775 C719 0.930 . S
H776 C722 0.930 . S
H777 C725 0.929 . S
H778 C730 0.929 . S
H779 C731 0.930 . S
H780 C738 0.929 . S
H781 C739 0.930 . S
H782 C740 0.930 . S
H783 C741 0.930 . S
H784 C743 0.929 . S
H785 C744 0.930 . S
H786 C745 0.930 . S
H787 C746 0.930 . S
H788 C750 0.929 . S
H789 C752 0.930 . S
H790 C758 0.929 . S
H791 C759 0.930 . S
Li792 N809 1.990 . S
Li792 O852 1.956 . S
Li792 O853 1.970 . S
Li792 O854 1.961 . S
Li793 N817 1.990 . S
Li793 O852 1.970 . S
Li793 O853 1.956 . S
Li793 O855 1.961 . S
Li794 N839 1.990 . S
Li794 O852 1.961 . S
Li794 O854 1.956 . S
Li794 O855 1.970 . S
Li795 N845 1.990 . S
Li795 O853 1.961 . S
Li795 O854 1.970 . S
Li795 O855 1.956 . S
C796 C798 1.348 . S
C796 C799 1.356 . S
C796 O852 1.325 . S
N797 C800 1.314 . S
N797 C801 1.279 . S
C798 C796 1.348 . S
C798 C800 1.353 . S
C798 H856 0.929 . S
C799 C796 1.356 . S
C799 C801 1.358 . S
C799 H857 0.930 . S
C800 N797 1.314 . S
C800 C798 1.353 . S
C800 H858 0.930 . S
C801 N797 1.279 . S
C801 C799 1.358 . S
C801 H859 0.930 . S
C802 C805 1.348 . S
C802 C806 1.356 . S
C802 O853 1.325 . S
C803 N804 1.279 . S
C803 C806 1.358 . S
C803 H860 0.930 . S
N804 C803 1.279 . S
N804 C807 1.314 . S
C805 C802 1.348 . S
C805 C807 1.353 . S
C805 H861 0.929 . S
C806 C802 1.356 . S
C806 C803 1.358 . S
C806 H862 0.930 . S
C807 N804 1.314 . S
C807 C805 1.353 . S
C807 H863 0.930 . S
C808 N809 1.314 . S
C808 C813 1.353 . S
C808 H814 0.930 . S
N809 Li792 1.990 . S
N809 C808 1.314 . S
N809 C811 1.279 . S
C810 C811 1.358 . S
C810 C812 1.356 . S
C810 H864 0.930 . S
C811 N809 1.279 . S
C811 C810 1.358 . S
C811 H815 0.930 . S
C812 C810 1.356 . S
C812 C813 1.348 . S
C813 C808 1.353 . S
C813 C812 1.348 . S
C813 H865 0.929 . S
H814 C808 0.930 . S
H815 C811 0.930 . S
C816 N817 1.314 . S
C816 C818 1.353 . S
C816 H822 0.930 . S
N817 Li793 1.990 . S
N817 C816 1.314 . S
N817 C820 1.279 . S
C818 C816 1.353 . S
C818 C821 1.348 . S
C818 H866 0.929 . S
C819 C820 1.358 . S
C819 C821 1.356 . S
C819 H867 0.930 . S
C820 N817 1.279 . S
C820 C819 1.358 . S
C820 H823 0.930 . S
C821 C818 1.348 . S
C821 C819 1.356 . S
H822 C816 0.930 . S
H823 C820 0.930 . S
C824 C826 1.348 . S
C824 C827 1.356 . S
C824 O854 1.325 . S
N825 C828 1.314 . S
N825 C829 1.279 . S
C826 C824 1.348 . S
C826 C828 1.353 . S
C826 H868 0.929 . S
C827 C824 1.356 . S
C827 C829 1.358 . S
C827 H869 0.930 . S
C828 N825 1.314 . S
C828 C826 1.353 . S
C828 H870 0.930 . S
C829 N825 1.279 . S
C829 C827 1.358 . S
C829 H871 0.930 . S
C830 C831 1.348 . S
C830 C832 1.356 . S
C830 O855 1.325 . S
C831 C830 1.348 . S
C831 C833 1.353 . S
C831 H872 0.929 . S
C832 C830 1.356 . S
C832 C834 1.358 1_545 S
C832 H873 0.930 . S
C833 C831 1.353 . S
C833 N835 1.314 1_545 S
C833 H874 0.930 . S
C834 C832 1.358 1_565 S
C834 N835 1.279 . S
C834 H875 0.930 . S
N835 C833 1.314 1_565 S
N835 C834 1.279 . S
C836 C838 1.353 . S
C836 N839 1.314 . S
C836 H842 0.930 . S
C837 N839 1.279 . S
C837 C840 1.358 . S
C837 H843 0.930 . S
C838 C836 1.353 . S
C838 C841 1.348 . S
C838 H876 0.929 . S
N839 Li794 1.990 . S
N839 C836 1.314 . S
N839 C837 1.279 . S
C840 C837 1.358 . S
C840 C841 1.356 . S
C840 H877 0.930 . S
C841 C838 1.348 . S
C841 C840 1.356 . S
H842 C836 0.930 . S
H843 C837 0.930 . S
C844 N845 1.314 . S
C844 C846 1.353 . S
C844 H850 0.930 . S
N845 Li795 1.990 . S
N845 C844 1.314 . S
N845 C848 1.279 . S
C846 C844 1.353 . S
C846 C849 1.348 . S
C846 H878 0.929 . S
C847 C848 1.358 . S
C847 C849 1.356 . S
C847 H879 0.930 . S
C848 N845 1.279 . S
C848 C847 1.358 . S
C848 H851 0.930 . S
C849 C846 1.348 . S
C849 C847 1.356 . S
H850 C844 0.930 . S
H851 C848 0.930 . S
O852 Li792 1.956 . S
O852 Li793 1.970 . S
O852 Li794 1.961 . S
O852 C796 1.325 . S
O853 Li792 1.970 . S
O853 Li793 1.956 . S
O853 Li795 1.961 . S
O853 C802 1.325 . S
O854 Li792 1.961 . S
O854 Li794 1.956 . S
O854 Li795 1.970 . S
O854 C824 1.325 . S
O855 Li793 1.961 . S
O855 Li794 1.970 . S
O855 Li795 1.956 . S
O855 C830 1.325 . S
H856 C798 0.929 . S
H857 C799 0.930 . S
H858 C800 0.930 . S
H859 C801 0.930 . S
H860 C803 0.930 . S
H861 C805 0.929 . S
H862 C806 0.930 . S
H863 C807 0.930 . S
H864 C810 0.930 . S
H865 C813 0.929 . S
H866 C818 0.929 . S
H867 C819 0.930 . S
H868 C826 0.929 . S
H869 C827 0.930 . S
H870 C828 0.930 . S
H871 C829 0.930 . S
H872 C831 0.929 . S
H873 C832 0.930 . S
H874 C833 0.930 . S
H875 C834 0.930 . S
H876 C838 0.929 . S
H877 C840 0.930 . S
H878 C846 0.929 . S
H879 C847 0.930 . S
Li880 N897 1.990 . S
Li880 O940 1.956 . S
Li880 O941 1.970 . S
Li880 O942 1.961 . S
Li881 N905 1.990 . S
Li881 O940 1.970 . S
Li881 O941 1.956 . S
Li881 O943 1.961 . S
Li882 N927 1.990 . S
Li882 O940 1.961 . S
Li882 O942 1.956 . S
Li882 O943 1.970 . S
Li883 N933 1.990 . S
Li883 O941 1.961 . S
Li883 O942 1.970 . S
Li883 O943 1.956 . S
C884 C886 1.348 . S
C884 C887 1.356 . S
C884 O940 1.325 . S
N885 C888 1.314 . S
N885 C889 1.279 . S
C886 C884 1.348 . S
C886 C888 1.353 . S
C886 H944 0.929 . S
C887 C884 1.356 . S
C887 C889 1.358 . S
C887 H945 0.930 . S
C888 N885 1.314 . S
C888 C886 1.353 . S
C888 H946 0.930 . S
C889 N885 1.279 . S
C889 C887 1.358 . S
C889 H947 0.930 . S
C890 C893 1.348 . S
C890 C894 1.356 . S
C890 O941 1.325 . S
C891 N892 1.279 . S
C891 C894 1.358 . S
C891 H948 0.930 . S
N892 C891 1.279 . S
N892 C895 1.314 . S
C893 C890 1.348 . S
C893 C895 1.353 . S
C893 H949 0.929 . S
C894 C890 1.356 . S
C894 C891 1.358 . S
C894 H950 0.930 . S
C895 N892 1.314 . S
C895 C893 1.353 . S
C895 H951 0.930 . S
C896 N897 1.314 . S
C896 C901 1.353 . S
C896 H902 0.930 . S
N897 Li880 1.990 . S
N897 C896 1.314 . S
N897 C899 1.279 . S
C898 C899 1.358 . S
C898 C900 1.356 . S
C898 H952 0.930 . S
C899 N897 1.279 . S
C899 C898 1.358 . S
C899 H903 0.930 . S
C900 C898 1.356 . S
C900 C901 1.348 . S
C901 C896 1.353 . S
C901 C900 1.348 . S
C901 H953 0.929 . S
H902 C896 0.930 . S
H903 C899 0.930 . S
C904 N905 1.314 . S
C904 C906 1.353 . S
C904 H910 0.930 . S
N905 Li881 1.990 . S
N905 C904 1.314 . S
N905 C908 1.279 . S
C906 C904 1.353 . S
C906 C909 1.348 . S
C906 H954 0.929 . S
C907 C908 1.358 . S
C907 C909 1.356 . S
C907 H955 0.930 . S
C908 N905 1.279 . S
C908 C907 1.358 . S
C908 H911 0.930 . S
C909 C906 1.348 . S
C909 C907 1.356 . S
H910 C904 0.930 . S
H911 C908 0.930 . S
C912 C914 1.348 . S
C912 C915 1.356 . S
C912 O942 1.325 . S
N913 C916 1.314 . S
N913 C917 1.279 . S
C914 C912 1.348 . S
C914 C916 1.353 . S
C914 H956 0.929 . S
C915 C912 1.356 . S
C915 C917 1.358 . S
C915 H957 0.930 . S
C916 N913 1.314 . S
C916 C914 1.353 . S
C916 H958 0.930 . S
C917 N913 1.279 . S
C917 C915 1.358 . S
C917 H959 0.930 . S
C918 C919 1.348 . S
C918 C920 1.356 . S
C918 O943 1.325 . S
C919 C918 1.348 . S
C919 C921 1.353 . S
C919 H960 0.929 . S
C920 C918 1.356 . S
C920 C922 1.358 . S
C920 H961 0.930 . S
C921 C919 1.353 . S
C921 N923 1.314 . S
C921 H962 0.930 . S
C922 C920 1.358 . S
C922 N923 1.279 . S
C922 H963 0.930 . S
N923 C921 1.314 . S
N923 C922 1.279 . S
C924 C926 1.353 . S
C924 N927 1.314 . S
C924 H930 0.930 . S
C925 N927 1.279 . S
C925 C928 1.358 . S
C925 H931 0.930 . S
C926 C924 1.353 . S
C926 C929 1.348 . S
C926 H964 0.929 . S
N927 Li882 1.990 . S
N927 C924 1.314 . S
N927 C925 1.279 . S
C928 C925 1.358 . S
C928 C929 1.356 . S
C928 H965 0.930 . S
C929 C926 1.348 . S
C929 C928 1.356 . S
H930 C924 0.930 . S
H931 C925 0.930 . S
C932 N933 1.314 . S
C932 C934 1.353 . S
C932 H938 0.930 . S
N933 Li883 1.990 . S
N933 C932 1.314 . S
N933 C936 1.279 . S
C934 C932 1.353 . S
C934 C937 1.348 . S
C934 H966 0.929 . S
C935 C936 1.358 . S
C935 C937 1.356 . S
C935 H967 0.930 . S
C936 N933 1.279 . S
C936 C935 1.358 . S
C936 H939 0.930 . S
C937 C934 1.348 . S
C937 C935 1.356 . S
H938 C932 0.930 . S
H939 C936 0.930 . S
O940 Li880 1.956 . S
O940 Li881 1.970 . S
O940 Li882 1.961 . S
O940 C884 1.325 . S
O941 Li880 1.970 . S
O941 Li881 1.956 . S
O941 Li883 1.961 . S
O941 C890 1.325 . S
O942 Li880 1.961 . S
O942 Li882 1.956 . S
O942 Li883 1.970 . S
O942 C912 1.325 . S
O943 Li881 1.961 . S
O943 Li882 1.970 . S
O943 Li883 1.956 . S
O943 C918 1.325 . S
H944 C886 0.929 . S
H945 C887 0.930 . S
H946 C888 0.930 . S
H947 C889 0.930 . S
H948 C891 0.930 . S
H949 C893 0.929 . S
H950 C894 0.930 . S
H951 C895 0.930 . S
H952 C898 0.930 . S
H953 C901 0.929 . S
H954 C906 0.929 . S
H955 C907 0.930 . S
H956 C914 0.929 . S
H957 C915 0.930 . S
H958 C916 0.930 . S
H959 C917 0.930 . S
H960 C919 0.929 . S
H961 C920 0.930 . S
H962 C921 0.930 . S
H963 C922 0.930 . S
H964 C926 0.929 . S
H965 C928 0.930 . S
H966 C934 0.929 . S
H967 C935 0.930 . S
Li968 N985 1.990 . S
Li968 O1028 1.956 . S
Li968 O1029 1.970 . S
Li968 O1030 1.961 . S
Li969 N993 1.990 . S
Li969 O1028 1.970 . S
Li969 O1029 1.956 . S
Li969 O1031 1.961 . S
Li970 N1015 1.990 . S
Li970 O1028 1.961 . S
Li970 O1030 1.956 . S
Li970 O1031 1.970 . S
Li971 N1021 1.990 . S
Li971 O1029 1.961 . S
Li971 O1030 1.970 . S
Li971 O1031 1.956 . S
C972 C974 1.348 . S
C972 C975 1.356 . S
C972 O1028 1.325 . S
N973 C976 1.314 . S
N973 C977 1.279 . S
C974 C972 1.348 . S
C974 C976 1.353 . S
C974 H1032 0.929 . S
C975 C972 1.356 . S
C975 C977 1.358 . S
C975 H1033 0.930 . S
C976 N973 1.314 . S
C976 C974 1.353 . S
C976 H1034 0.930 . S
C977 N973 1.279 . S
C977 C975 1.358 . S
C977 H1035 0.930 . S
C978 C981 1.348 . S
C978 C982 1.356 . S
C978 O1029 1.325 . S
C979 N980 1.279 . S
C979 C982 1.358 . S
C979 H1036 0.930 . S
N980 C979 1.279 . S
N980 C983 1.314 . S
C981 C978 1.348 . S
C981 C983 1.353 . S
C981 H1037 0.929 . S
C982 C978 1.356 . S
C982 C979 1.358 . S
C982 H1038 0.930 . S
C983 N980 1.314 . S
C983 C981 1.353 . S
C983 H1039 0.930 . S
C984 N985 1.314 . S
C984 C989 1.353 . S
C984 H990 0.930 . S
N985 Li968 1.990 . S
N985 C984 1.314 . S
N985 C987 1.279 . S
C986 C987 1.358 . S
C986 C988 1.356 . S
C986 H1040 0.930 . S
C987 N985 1.279 . S
C987 C986 1.358 . S
C987 H991 0.930 . S
C988 C986 1.356 . S
C988 C989 1.348 . S
C989 C984 1.353 . S
C989 C988 1.348 . S
C989 H1041 0.929 . S
H990 C984 0.930 . S
H991 C987 0.930 . S
C992 N993 1.314 . S
C992 C994 1.353 . S
C992 H998 0.930 . S
N993 Li969 1.990 . S
N993 C992 1.314 . S
N993 C996 1.279 . S
C994 C992 1.353 . S
C994 C997 1.348 . S
C994 H1042 0.929 . S
C995 C996 1.358 . S
C995 C997 1.356 . S
C995 H1043 0.930 . S
C996 N993 1.279 . S
C996 C995 1.358 . S
C996 H999 0.930 . S
C997 C994 1.348 . S
C997 C995 1.356 . S
H998 C992 0.930 . S
H999 C996 0.930 . S
C1000 C1002 1.348 . S
C1000 C1003 1.356 . S
C1000 O1030 1.325 . S
N1001 C1004 1.314 . S
N1001 C1005 1.279 . S
C1002 C1000 1.348 . S
C1002 C1004 1.353 . S
C1002 H1044 0.929 . S
C1003 C1000 1.356 . S
C1003 C1005 1.358 . S
C1003 H1045 0.930 . S
C1004 N1001 1.314 . S
C1004 C1002 1.353 . S
C1004 H1046 0.930 . S
C1005 N1001 1.279 . S
C1005 C1003 1.358 . S
C1005 H1047 0.930 . S
C1006 C1007 1.348 . S
C1006 C1008 1.356 . S
C1006 O1031 1.325 . S
C1007 C1006 1.348 . S
C1007 C1009 1.353 . S
C1007 H1048 0.929 . S
C1008 C1006 1.356 . S
C1008 C1010 1.358 1_655 S
C1008 H1049 0.930 . S
C1009 C1007 1.353 . S
C1009 N1011 1.314 1_655 S
C1009 H1050 0.930 . S
C1010 C1008 1.358 1_455 S
C1010 N1011 1.279 . S
C1010 H1051 0.930 . S
N1011 C1009 1.314 1_455 S
N1011 C1010 1.279 . S
C1012 C1014 1.353 . S
C1012 N1015 1.314 . S
C1012 H1018 0.930 . S
C1013 N1015 1.279 . S
C1013 C1016 1.358 . S
C1013 H1019 0.930 . S
C1014 C1012 1.353 . S
C1014 C1017 1.348 . S
C1014 H1052 0.929 . S
N1015 Li970 1.990 . S
N1015 C1012 1.314 . S
N1015 C1013 1.279 . S
C1016 C1013 1.358 . S
C1016 C1017 1.356 . S
C1016 H1053 0.930 . S
C1017 C1014 1.348 . S
C1017 C1016 1.356 . S
H1018 C1012 0.930 . S
H1019 C1013 0.930 . S
C1020 N1021 1.314 . S
C1020 C1022 1.353 . S
C1020 H1026 0.930 . S
N1021 Li971 1.990 . S
N1021 C1020 1.314 . S
N1021 C1024 1.279 . S
C1022 C1020 1.353 . S
C1022 C1025 1.348 . S
C1022 H1054 0.929 . S
C1023 C1024 1.358 . S
C1023 C1025 1.356 . S
C1023 H1055 0.930 . S
C1024 N1021 1.279 . S
C1024 C1023 1.358 . S
C1024 H1027 0.930 . S
C1025 C1022 1.348 . S
C1025 C1023 1.356 . S
H1026 C1020 0.930 . S
H1027 C1024 0.930 . S
O1028 Li968 1.956 . S
O1028 Li969 1.970 . S
O1028 Li970 1.961 . S
O1028 C972 1.325 . S
O1029 Li968 1.970 . S
O1029 Li969 1.956 . S
O1029 Li971 1.961 . S
O1029 C978 1.325 . S
O1030 Li968 1.961 . S
O1030 Li970 1.956 . S
O1030 Li971 1.970 . S
O1030 C1000 1.325 . S
O1031 Li969 1.961 . S
O1031 Li970 1.970 . S
O1031 Li971 1.956 . S
O1031 C1006 1.325 . S
H1032 C974 0.929 . S
H1033 C975 0.930 . S
H1034 C976 0.930 . S
H1035 C977 0.930 . S
H1036 C979 0.930 . S
H1037 C981 0.929 . S
H1038 C982 0.930 . S
H1039 C983 0.930 . S
H1040 C986 0.930 . S
H1041 C989 0.929 . S
H1042 C994 0.929 . S
H1043 C995 0.930 . S
H1044 C1002 0.929 . S
H1045 C1003 0.930 . S
H1046 C1004 0.930 . S
H1047 C1005 0.930 . S
H1048 C1007 0.929 . S
H1049 C1008 0.930 . S
H1050 C1009 0.930 . S
H1051 C1010 0.930 . S
H1052 C1014 0.929 . S
H1053 C1016 0.930 . S
H1054 C1022 0.929 . S
H1055 C1023 0.930 . S
C1056 C1057 1.369 1_655 S
C1056 C1058 1.419 1_554 S
C1056 H1060 0.930 . S
C1057 C1056 1.369 1_455 S
C1057 C1066 1.429 . S
C1058 C1056 1.419 1_556 S
C1058 C1059 1.363 . S
C1058 H1061 0.929 . S
C1059 C1058 1.363 . S
C1059 C1065 1.428 1_655 S
H1060 C1056 0.930 . S
H1061 C1058 0.929 . S
S1062 N1063 1.613 1_556 S
S1062 N1064 1.610 . S
N1063 S1062 1.613 1_554 S
N1063 C1066 1.350 . S
N1064 S1062 1.610 . S
N1064 C1065 1.351 . S
C1065 C1059 1.428 1_455 S
C1065 N1064 1.351 . S
C1065 C1066 1.434 1_556 S
C1066 C1057 1.429 . S
C1066 N1063 1.350 . S
C1066 C1065 1.434 1_554 S
C1067 C1068 1.369 . S
C1067 C1069 1.419 . S
C1067 H1071 0.930 . S
C1068 C1067 1.369 . S
C1068 C1077 1.429 1_565 S
C1069 C1067 1.419 . S
C1069 C1070 1.363 1_565 S
C1069 H1072 0.929 . S
C1070 C1069 1.363 1_545 S
C1070 C1076 1.428 . S
H1071 C1067 0.930 . S
H1072 C1069 0.929 . S
S1073 N1074 1.613 . S
S1073 N1075 1.610 . S
N1074 S1073 1.613 . S
N1074 C1077 1.350 . S
N1075 S1073 1.610 . S
N1075 C1076 1.351 . S
C1076 C1070 1.428 . S
C1076 N1075 1.351 . S
C1076 C1077 1.434 . S
C1077 C1068 1.429 1_545 S
C1077 N1074 1.350 . S
C1077 C1076 1.434 . S
C1078 C1079 1.369 . S
C1078 C1080 1.419 1_554 S
C1078 H1082 0.930 . S
C1079 C1078 1.369 . S
C1079 C1088 1.429 . S
C1080 C1078 1.419 1_556 S
C1080 C1081 1.363 . S
C1080 H1083 0.929 . S
C1081 C1080 1.363 . S
C1081 C1087 1.428 . S
H1082 C1078 0.930 . S
H1083 C1080 0.929 . S
S1084 N1085 1.613 . S
S1084 N1086 1.610 1_554 S
N1085 S1084 1.613 . S
N1085 C1088 1.350 . S
N1086 S1084 1.610 1_556 S
N1086 C1087 1.351 . S
C1087 C1081 1.428 . S
C1087 N1086 1.351 . S
C1087 C1088 1.434 1_556 S
C1088 C1079 1.429 . S
C1088 N1085 1.350 . S
C1088 C1087 1.434 1_554 S
C1089 C1090 1.369 1_655 S
C1089 C1091 1.419 . S
C1089 H1093 0.930 . S
C1090 C1089 1.369 1_455 S
C1090 C1099 1.429 . S
C1091 C1089 1.419 . S
C1091 C1092 1.363 . S
C1091 H1094 0.929 . S
C1092 C1091 1.363 . S
C1092 C1098 1.428 1_655 S
H1093 C1089 0.930 . S
H1094 C1091 0.929 . S
S1095 N1096 1.613 . S
S1095 N1097 1.610 . S
N1096 S1095 1.613 . S
N1096 C1099 1.350 . S
N1097 S1095 1.610 . S
N1097 C1098 1.351 . S
C1098 C1092 1.428 1_455 S
C1098 N1097 1.351 . S
C1098 C1099 1.434 . S
C1099 C1090 1.429 . S
C1099 N1096 1.350 . S
C1099 C1098 1.434 . S
C1100 C1101 1.369 1_565 S
C1100 C1102 1.419 1_556 S
C1100 H1104 0.930 . S
C1101 C1100 1.369 1_545 S
C1101 C1110 1.429 . S
C1102 C1100 1.419 1_554 S
C1102 C1103 1.363 . S
C1102 H1105 0.929 . S
C1103 C1102 1.363 . S
C1103 C1109 1.428 1_565 S
H1104 C1100 0.930 . S
H1105 C1102 0.929 . S
S1106 N1107 1.611 1_554 S
S1106 N1108 1.610 . S
N1107 S1106 1.611 1_556 S
N1107 C1110 1.350 . S
N1108 S1106 1.610 . S
N1108 C1109 1.351 . S
C1109 C1103 1.428 1_545 S
C1109 N1108 1.351 . S
C1109 C1110 1.434 1_554 S
C1110 C1101 1.429 . S
C1110 N1107 1.350 . S
C1110 C1109 1.434 1_556 S
C1111 C1112 1.369 . S
C1111 C1113 1.419 . S
C1111 H1115 0.930 . S
C1112 C1111 1.369 . S
C1112 C1121 1.429 . S
C1113 C1111 1.419 . S
C1113 C1114 1.363 . S
C1113 H1116 0.929 . S
C1114 C1113 1.363 . S
C1114 C1120 1.428 . S
H1115 C1111 0.930 . S
H1116 C1113 0.929 . S
S1117 N1118 1.613 . S
S1117 N1119 1.610 . S
N1118 S1117 1.613 . S
N1118 C1121 1.350 . S
N1119 S1117 1.610 . S
N1119 C1120 1.351 . S
C1120 C1114 1.428 . S
C1120 N1119 1.351 . S
C1120 C1121 1.434 . S
C1121 C1112 1.429 . S
C1121 N1118 1.350 . S
C1121 C1120 1.434 . S
C1122 C1123 1.369 1_455 S
C1122 C1124 1.419 1_556 S
C1122 H1126 0.930 . S
C1123 C1122 1.369 1_655 S
C1123 C1132 1.429 . S
C1124 C1122 1.419 1_554 S
C1124 C1125 1.363 . S
C1124 H1127 0.929 . S
C1125 C1124 1.363 . S
C1125 C1131 1.428 1_455 S
H1126 C1122 0.930 . S
H1127 C1124 0.929 . S
S1128 N1129 1.613 1_554 S
S1128 N1130 1.610 . S
N1129 S1128 1.613 1_556 S
N1129 C1132 1.350 . S
N1130 S1128 1.610 . S
N1130 C1131 1.351 . S
C1131 C1125 1.428 1_655 S
C1131 N1130 1.351 . S
C1131 C1132 1.434 1_554 S
C1132 C1123 1.429 . S
C1132 N1129 1.350 . S
C1132 C1131 1.434 1_556 S
C1133 C1134 1.369 1_545 S
C1133 C1135 1.419 . S
C1133 H1137 0.930 . S
C1134 C1133 1.369 1_565 S
C1134 C1143 1.429 . S
C1135 C1133 1.419 . S
C1135 C1136 1.363 . S
C1135 H1138 0.929 . S
C1136 C1135 1.363 . S
C1136 C1142 1.428 1_545 S
H1137 C1133 0.930 . S
H1138 C1135 0.929 . S
S1139 N1140 1.613 . S
S1139 N1141 1.610 . S
N1140 S1139 1.613 . S
N1140 C1143 1.350 . S
N1141 S1139 1.610 . S
N1141 C1142 1.351 . S
C1142 C1136 1.428 1_565 S
C1142 N1141 1.351 . S
C1142 C1143 1.434 . S
C1143 C1134 1.429 . S
C1143 N1140 1.350 . S
C1143 C1142 1.434 . S
C1144 C1145 1.369 . S
C1144 C1146 1.419 1_556 S
C1144 H1148 0.930 . S
C1145 C1144 1.369 . S
C1145 C1154 1.429 . S
C1146 C1144 1.419 1_554 S
C1146 C1147 1.363 . S
C1146 H1149 0.929 . S
C1147 C1146 1.363 . S
C1147 C1153 1.428 . S
H1148 C1144 0.930 . S
H1149 C1146 0.929 . S
S1150 N1151 1.613 . S
S1150 N1152 1.610 1_556 S
N1151 S1150 1.613 . S
N1151 C1154 1.350 . S
N1152 S1150 1.610 1_554 S
N1152 C1153 1.351 . S
C1153 C1147 1.428 . S
C1153 N1152 1.351 . S
C1153 C1154 1.434 1_554 S
C1154 C1145 1.429 . S
C1154 N1151 1.350 . S
C1154 C1153 1.434 1_556 S
C1155 C1156 1.369 . S
C1155 C1157 1.419 . S
C1155 H1159 0.930 . S
C1156 C1155 1.369 . S
C1156 C1165 1.429 1_655 S
C1157 C1155 1.419 . S
C1157 C1158 1.363 1_655 S
C1157 H1160 0.929 . S
C1158 C1157 1.363 1_455 S
C1158 C1164 1.428 . S
H1159 C1155 0.930 . S
H1160 C1157 0.929 . S
S1161 N1162 1.613 . S
S1161 N1163 1.610 . S
N1162 S1161 1.613 . S
N1162 C1165 1.350 . S
N1163 S1161 1.610 . S
N1163 C1164 1.351 . S
C1164 C1158 1.428 . S
C1164 N1163 1.351 . S
C1164 C1165 1.434 . S
C1165 C1156 1.429 1_455 S
C1165 N1162 1.350 . S
C1165 C1164 1.434 . S
C1166 C1167 1.369 . S
C1166 C1168 1.419 1_556 S
C1166 H1170 0.930 . S
C1167 C1166 1.369 . S
C1167 C1176 1.429 1_545 S
C1168 C1166 1.419 1_554 S
C1168 C1169 1.363 1_545 S
C1168 H1171 0.929 . S
C1169 C1168 1.363 1_565 S
C1169 C1175 1.428 . S
H1170 C1166 0.930 . S
H1171 C1168 0.929 . S
S1172 N1173 1.613 . S
S1172 N1174 1.603 1_556 S
N1173 S1172 1.613 . S
N1173 C1176 1.350 . S
N1174 S1172 1.603 1_554 S
N1174 C1175 1.352 . S
C1175 C1169 1.428 . S
C1175 N1174 1.352 . S
C1175 C1176 1.434 1_554 S
C1176 C1167 1.429 1_565 S
C1176 N1173 1.350 . S
C1176 C1175 1.434 1_556 S
C1177 C1178 1.369 . S
C1177 C1179 1.419 . S
C1177 H1181 0.930 . S
C1178 C1177 1.369 . S
C1178 C1187 1.429 . S
C1179 C1177 1.419 . S
C1179 C1180 1.363 . S
C1179 H1182 0.929 . S
C1180 C1179 1.363 . S
C1180 C1186 1.428 . S
H1181 C1177 0.930 . S
H1182 C1179 0.929 . S
S1183 N1184 1.613 . S
S1183 N1185 1.610 . S
N1184 S1183 1.613 . S
N1184 C1187 1.350 . S
N1185 S1183 1.610 . S
N1185 C1186 1.351 . S
C1186 C1180 1.428 . S
C1186 N1185 1.351 . S
C1186 C1187 1.434 . S
C1187 C1178 1.429 . S
C1187 N1184 1.350 . S
C1187 C1186 1.434 . S
C1188 C1189 1.369 . S
C1188 C1190 1.419 . S
C1188 H1192 0.930 . S
C1189 C1188 1.369 . S
C1189 C1198 1.429 . S
C1190 C1188 1.419 . S
C1190 C1191 1.363 . S
C1190 H1193 0.929 . S
C1191 C1190 1.363 . S
C1191 C1197 1.428 . S
H1192 C1188 0.930 . S
H1193 C1190 0.929 . S
S1194 N1195 1.613 . S
S1194 N1196 1.610 . S
N1195 S1194 1.613 . S
N1195 C1198 1.350 . S
N1196 S1194 1.610 . S
N1196 C1197 1.351 . S
C1197 C1191 1.428 . S
C1197 N1196 1.351 . S
C1197 C1198 1.434 . S
C1198 C1189 1.429 . S
C1198 N1195 1.350 . S
C1198 C1197 1.434 . S
C1199 C1200 1.369 . S
C1199 C1201 1.419 . S
C1199 H1203 0.930 . S
C1200 C1199 1.369 . S
C1200 C1209 1.429 . S
C1201 C1199 1.419 . S
C1201 C1202 1.363 . S
C1201 H1204 0.929 . S
C1202 C1201 1.363 . S
C1202 C1208 1.428 . S
H1203 C1199 0.930 . S
H1204 C1201 0.929 . S
S1205 N1206 1.613 . S
S1205 N1207 1.610 . S
N1206 S1205 1.613 . S
N1206 C1209 1.350 . S
N1207 S1205 1.610 . S
N1207 C1208 1.351 . S
C1208 C1202 1.428 . S
C1208 N1207 1.351 . S
C1208 C1209 1.434 . S
C1209 C1200 1.429 . S
C1209 N1206 1.350 . S
C1209 C1208 1.434 . S
C1210 C1211 1.369 . S
C1210 C1212 1.419 . S
C1210 H1214 0.930 . S
C1211 C1210 1.369 . S
C1211 C1220 1.429 . S
C1212 C1210 1.419 . S
C1212 C1213 1.363 . S
C1212 H1215 0.929 . S
C1213 C1212 1.363 . S
C1213 C1219 1.428 . S
H1214 C1210 0.930 . S
H1215 C1212 0.929 . S
S1216 N1217 1.613 . S
S1216 N1218 1.610 . S
N1217 S1216 1.613 . S
N1217 C1220 1.350 . S
N1218 S1216 1.610 . S
N1218 C1219 1.351 . S
C1219 C1213 1.428 . S
C1219 N1218 1.351 . S
C1219 C1220 1.434 . S
C1220 C1211 1.429 . S
C1220 N1217 1.350 . S
C1220 C1219 1.434 . S
C1221 C1222 1.369 . S
C1221 C1223 1.419 . S
C1221 H1225 0.930 . S
C1222 C1221 1.369 . S
C1222 C1231 1.429 . S
C1223 C1221 1.419 . S
C1223 C1224 1.363 . S
C1223 H1226 0.929 . S
C1224 C1223 1.363 . S
C1224 C1230 1.428 . S
H1225 C1221 0.930 . S
H1226 C1223 0.929 . S
S1227 N1228 1.613 . S
S1227 N1229 1.610 . S
N1228 S1227 1.613 . S
N1228 C1231 1.350 . S
N1229 S1227 1.610 . S
N1229 C1230 1.351 . S
C1230 C1224 1.428 . S
C1230 N1229 1.351 . S
C1230 C1231 1.434 . S
C1231 C1222 1.429 . S
C1231 N1228 1.350 . S
C1231 C1230 1.434 . S
C1232 C1233 1.369 . S
C1232 C1234 1.419 . S
C1232 H1236 0.930 . S
C1233 C1232 1.369 . S
C1233 C1242 1.429 . S
C1234 C1232 1.419 . S
C1234 C1235 1.363 . S
C1234 H1237 0.929 . S
C1235 C1234 1.363 . S
C1235 C1241 1.428 . S
H1236 C1232 0.930 . S
H1237 C1234 0.929 . S
S1238 N1239 1.613 . S
S1238 N1240 1.610 . S
N1239 S1238 1.613 . S
N1239 C1242 1.350 . S
N1240 S1238 1.610 . S
N1240 C1241 1.351 . S
C1241 C1235 1.428 . S
C1241 N1240 1.351 . S
C1241 C1242 1.434 . S
C1242 C1233 1.429 . S
C1242 N1239 1.350 . S
C1242 C1241 1.434 . S
C1243 C1244 1.369 . S
C1243 C1245 1.419 . S
C1243 H1247 0.930 . S
C1244 C1243 1.369 . S
C1244 C1253 1.429 . S
C1245 C1243 1.419 . S
C1245 C1246 1.363 . S
C1245 H1248 0.929 . S
C1246 C1245 1.363 . S
C1246 C1252 1.428 . S
H1247 C1243 0.930 . S
H1248 C1245 0.929 . S
S1249 N1250 1.613 . S
S1249 N1251 1.610 . S
N1250 S1249 1.613 . S
N1250 C1253 1.350 . S
N1251 S1249 1.610 . S
N1251 C1252 1.351 . S
C1252 C1246 1.428 . S
C1252 N1251 1.351 . S
C1252 C1253 1.434 . S
C1253 C1244 1.429 . S
C1253 N1250 1.350 . S
C1253 C1252 1.434 . S
C1254 C1255 1.369 . S
C1254 C1256 1.419 . S
C1254 H1258 0.930 . S
C1255 C1254 1.369 . S
C1255 C1264 1.429 . S
C1256 C1254 1.419 . S
C1256 C1257 1.363 . S
C1256 H1259 0.929 . S
C1257 C1256 1.363 . S
C1257 C1263 1.428 . S
H1258 C1254 0.930 . S
H1259 C1256 0.929 . S
S1260 N1261 1.613 . S
S1260 N1262 1.610 . S
N1261 S1260 1.613 . S
N1261 C1264 1.350 . S
N1262 S1260 1.610 . S
N1262 C1263 1.351 . S
C1263 C1257 1.428 . S
C1263 N1262 1.351 . S
C1263 C1264 1.434 . S
C1264 C1255 1.429 . S
C1264 N1261 1.350 . S
C1264 C1263 1.434 . S
C1265 C1266 1.369 . S
C1265 C1267 1.419 . S
C1265 H1269 0.930 . S
C1266 C1265 1.369 . S
C1266 C1275 1.429 . S
C1267 C1265 1.419 . S
C1267 C1268 1.363 . S
C1267 H1270 0.929 . S
C1268 C1267 1.363 . S
C1268 C1274 1.428 . S
H1269 C1265 0.930 . S
H1270 C1267 0.929 . S
S1271 N1272 1.613 . S
S1271 N1273 1.610 . S
N1272 S1271 1.613 . S
N1272 C1275 1.350 . S
N1273 S1271 1.610 . S
N1273 C1274 1.351 . S
C1274 C1268 1.428 . S
C1274 N1273 1.351 . S
C1274 C1275 1.434 . S
C1275 C1266 1.429 . S
C1275 N1272 1.350 . S
C1275 C1274 1.434 . S
C1276 C1277 1.369 . S
C1276 C1278 1.419 . S
C1276 H1280 0.930 . S
C1277 C1276 1.369 . S
C1277 C1286 1.429 . S
C1278 C1276 1.419 . S
C1278 C1279 1.363 . S
C1278 H1281 0.929 . S
C1279 C1278 1.363 . S
C1279 C1285 1.428 . S
H1280 C1276 0.930 . S
H1281 C1278 0.929 . S
S1282 N1283 1.613 . S
S1282 N1284 1.610 . S
N1283 S1282 1.613 . S
N1283 C1286 1.350 . S
N1284 S1282 1.610 . S
N1284 C1285 1.351 . S
C1285 C1279 1.428 . S
C1285 N1284 1.351 . S
C1285 C1286 1.434 . S
C1286 C1277 1.429 . S
C1286 N1283 1.350 . S
C1286 C1285 1.434 . S
C1287 C1288 1.369 . S
C1287 C1289 1.419 . S
C1287 H1291 0.930 . S
C1288 C1287 1.369 . S
C1288 C1297 1.429 . S
C1289 C1287 1.419 . S
C1289 C1290 1.363 . S
C1289 H1292 0.929 . S
C1290 C1289 1.363 . S
C1290 C1296 1.428 . S
H1291 C1287 0.930 . S
H1292 C1289 0.929 . S
S1293 N1294 1.613 . S
S1293 N1295 1.610 . S
N1294 S1293 1.613 . S
N1294 C1297 1.350 . S
N1295 S1293 1.610 . S
N1295 C1296 1.351 . S
C1296 C1290 1.428 . S
C1296 N1295 1.351 . S
C1296 C1297 1.434 . S
C1297 C1288 1.429 . S
C1297 N1294 1.350 . S
C1297 C1296 1.434 . S
C1298 C1299 1.369 . S
C1298 C1300 1.419 . S
C1298 H1302 0.930 . S
C1299 C1298 1.369 . S
C1299 C1308 1.429 . S
C1300 C1298 1.419 . S
C1300 C1301 1.363 . S
C1300 H1303 0.929 . S
C1301 C1300 1.363 . S
C1301 C1307 1.428 . S
H1302 C1298 0.930 . S
H1303 C1300 0.929 . S
S1304 N1305 1.613 . S
S1304 N1306 1.610 . S
N1305 S1304 1.613 . S
N1305 C1308 1.350 . S
N1306 S1304 1.610 . S
N1306 C1307 1.351 . S
C1307 C1301 1.428 . S
C1307 N1306 1.351 . S
C1307 C1308 1.434 . S
C1308 C1299 1.429 . S
C1308 N1305 1.350 . S
C1308 C1307 1.434 . S
C1309 C1310 1.369 . S
C1309 C1311 1.419 . S
C1309 H1313 0.930 . S
C1310 C1309 1.369 . S
C1310 C1319 1.429 . S
C1311 C1309 1.419 . S
C1311 C1312 1.363 . S
C1311 H1314 0.929 . S
C1312 C1311 1.363 . S
C1312 C1318 1.428 . S
H1313 C1309 0.930 . S
H1314 C1311 0.929 . S
S1315 N1316 1.613 . S
S1315 N1317 1.610 . S
N1316 S1315 1.613 . S
N1316 C1319 1.350 . S
N1317 S1315 1.610 . S
N1317 C1318 1.351 . S
C1318 C1312 1.428 . S
C1318 N1317 1.351 . S
C1318 C1319 1.434 . S
C1319 C1310 1.429 . S
C1319 N1316 1.350 . S
C1319 C1318 1.434 . S
C1057 C57 1.493 . S
C1059 C997 1.494 . S
C1068 C548 1.493 . S
C1070 C145 1.493 . S
C1079 C225 1.495 . S
C1081 C636 1.494 . S
C1090 C733 1.491 . S
C1092 C321 1.492 . S
C1101 C821 1.493 . S
C1103 C401 1.493 . S
C1112 C900 1.491 . S
C1114 C497 1.492 . S
C1123 C293 1.496 . S
C1125 C761 1.495 . S
C1134 C372 1.494 . S
C1136 C849 1.494 . S
C1145 C469 1.495 . S
C1147 C929 1.495 . S
C1156 C1025 1.492 . S
C1158 C29 1.493 . S
C1167 C117 1.494 . S
C1169 C577 1.494 . S
C1178 C196 1.493 . S
C1180 C665 1.493 . S
C1189 C753 1.488 . S
C1191 C20 1.488 . S
C1200 C841 1.488 . S
C1202 C108 1.488 . S
C1211 C205 1.485 . S
C1213 C937 1.486 . S
C1222 C284 1.488 . S
C1224 C1017 1.488 . S
C1233 C381 1.486 . S
C1235 C585 1.486 . S
C1244 C673 1.486 . S
C1246 C460 1.486 . S
C1255 C49 1.115 . S
C1257 C909 1.115 . S
C1266 C988 1.114 . S
C1268 C137 1.114 . S
C1277 C233 1.114 . S
C1279 C557 1.114 . S
C1288 C313 1.114 . S
C1290 C645 1.115 . S
C1299 C409 1.114 . S
C1301 C724 1.114 . S
C1310 C489 1.115 . S
C1312 C812 1.115 . S
