# Generated by pormake.
# Topology umq, (4)-cn, num edge types: 1
# Building blocks:
#     Node 0, Type 0, BuildingBlock: KUFVIS_clean_sbu_0, # of connection points: 4
#     Node 1, Type 0, BuildingBlock: KUFVIS_clean_sbu_0, # of connection points: 4
#     Node 2, Type 0, BuildingBlock: KUFVIS_clean_sbu_0, # of connection points: 4
#     Node 3, Type 0, BuildingBlock: KUFVIS_clean_sbu_0, # of connection points: 4
#     Node 4, Type 0, BuildingBlock: KUFVIS_clean_sbu_0, # of connection points: 4
#     Node 5, Type 0, BuildingBlock: KUFVIS_clean_sbu_0, # of connection points: 4
#     Node 6, Type 0, BuildingBlock: KUFVIS_clean_sbu_0, # of connection points: 4
#     Node 7, Type 0, BuildingBlock: KUFVIS_clean_sbu_0, # of connection points: 4
#     Node 8, Type 0, BuildingBlock: KUFVIS_clean_sbu_0, # of connection points: 4
#     Node 9, Type 0, BuildingBlock: KUFVIS_clean_sbu_0, # of connection points: 4
#     Node 10, Type 0, BuildingBlock: KUFVIS_clean_sbu_0, # of connection points: 4
#     Node 11, Type 0, BuildingBlock: KUFVIS_clean_sbu_0, # of connection points: 4
#     Node 12, Type 0, BuildingBlock: KUFVIS_clean_sbu_0, # of connection points: 4
#     Node 13, Type 0, BuildingBlock: KUFVIS_clean_sbu_0, # of connection points: 4
#     Node 14, Type 0, BuildingBlock: KUFVIS_clean_sbu_0, # of connection points: 4
#     Node 15, Type 0, BuildingBlock: KUFVIS_clean_sbu_0, # of connection points: 4
#     Node 16, Type 0, BuildingBlock: KUFVIS_clean_sbu_0, # of connection points: 4
#     Node 17, Type 0, BuildingBlock: KUFVIS_clean_sbu_0, # of connection points: 4
#     Node 18, Type 0, BuildingBlock: KUFVIS_clean_sbu_0, # of connection points: 4
#     Node 19, Type 0, BuildingBlock: KUFVIS_clean_sbu_0, # of connection points: 4
#     Node 20, Type 0, BuildingBlock: KUFVIS_clean_sbu_0, # of connection points: 4
#     Node 21, Type 0, BuildingBlock: KUFVIS_clean_sbu_0, # of connection points: 4
#     Node 22, Type 0, BuildingBlock: KUFVIS_clean_sbu_0, # of connection points: 4
#     Node 23, Type 0, BuildingBlock: KUFVIS_clean_sbu_0, # of connection points: 4
#     Node 24, Type 0, BuildingBlock: KUFVIS_clean_sbu_0, # of connection points: 4
#     Node 25, Type 0, BuildingBlock: KUFVIS_clean_sbu_0, # of connection points: 4
#     Node 26, Type 0, BuildingBlock: KUFVIS_clean_sbu_0, # of connection points: 4
#     Node 27, Type 0, BuildingBlock: KUFVIS_clean_sbu_0, # of connection points: 4
#     Node 28, Type 0, BuildingBlock: KUFVIS_clean_sbu_0, # of connection points: 4
#     Node 29, Type 0, BuildingBlock: KUFVIS_clean_sbu_0, # of connection points: 4
#     Node 30, Type 0, BuildingBlock: KUFVIS_clean_sbu_0, # of connection points: 4
#     Node 31, Type 0, BuildingBlock: KUFVIS_clean_sbu_0, # of connection points: 4
#     Edge 32, Type (0, 0), BuildingBlock: OJICUG_clean_linker_0, # of connection points: 2
#     Edge 33, Type (0, 0), BuildingBlock: OJICUG_clean_linker_0, # of connection points: 2
#     Edge 34, Type (0, 0), BuildingBlock: OJICUG_clean_linker_0, # of connection points: 2
#     Edge 35, Type (0, 0), BuildingBlock: OJICUG_clean_linker_0, # of connection points: 2
#     Edge 36, Type (0, 0), BuildingBlock: OJICUG_clean_linker_0, # of connection points: 2
#     Edge 37, Type (0, 0), BuildingBlock: OJICUG_clean_linker_0, # of connection points: 2
#     Edge 38, Type (0, 0), BuildingBlock: OJICUG_clean_linker_0, # of connection points: 2
#     Edge 39, Type (0, 0), BuildingBlock: OJICUG_clean_linker_0, # of connection points: 2
#     Edge 40, Type (0, 0), BuildingBlock: OJICUG_clean_linker_0, # of connection points: 2
#     Edge 41, Type (0, 0), BuildingBlock: OJICUG_clean_linker_0, # of connection points: 2
#     Edge 42, Type (0, 0), BuildingBlock: OJICUG_clean_linker_0, # of connection points: 2
#     Edge 43, Type (0, 0), BuildingBlock: OJICUG_clean_linker_0, # of connection points: 2
#     Edge 44, Type (0, 0), BuildingBlock: OJICUG_clean_linker_0, # of connection points: 2
#     Edge 45, Type (0, 0), BuildingBlock: OJICUG_clean_linker_0, # of connection points: 2
#     Edge 46, Type (0, 0), BuildingBlock: OJICUG_clean_linker_0, # of connection points: 2
#     Edge 47, Type (0, 0), BuildingBlock: OJICUG_clean_linker_0, # of connection points: 2
#     Edge 48, Type (0, 0), BuildingBlock: OJICUG_clean_linker_0, # of connection points: 2
#     Edge 49, Type (0, 0), BuildingBlock: OJICUG_clean_linker_0, # of connection points: 2
#     Edge 50, Type (0, 0), BuildingBlock: OJICUG_clean_linker_0, # of connection points: 2
#     Edge 51, Type (0, 0), BuildingBlock: OJICUG_clean_linker_0, # of connection points: 2
#     Edge 52, Type (0, 0), BuildingBlock: OJICUG_clean_linker_0, # of connection points: 2
#     Edge 53, Type (0, 0), BuildingBlock: OJICUG_clean_linker_0, # of connection points: 2
#     Edge 54, Type (0, 0), BuildingBlock: OJICUG_clean_linker_0, # of connection points: 2
#     Edge 55, Type (0, 0), BuildingBlock: OJICUG_clean_linker_0, # of connection points: 2
#     Edge 56, Type (0, 0), BuildingBlock: OJICUG_clean_linker_0, # of connection points: 2
#     Edge 57, Type (0, 0), BuildingBlock: OJICUG_clean_linker_0, # of connection points: 2
#     Edge 58, Type (0, 0), BuildingBlock: OJICUG_clean_linker_0, # of connection points: 2
#     Edge 59, Type (0, 0), BuildingBlock: OJICUG_clean_linker_0, # of connection points: 2
#     Edge 60, Type (0, 0), BuildingBlock: OJICUG_clean_linker_0, # of connection points: 2
#     Edge 61, Type (0, 0), BuildingBlock: OJICUG_clean_linker_0, # of connection points: 2
#     Edge 62, Type (0, 0), BuildingBlock: OJICUG_clean_linker_0, # of connection points: 2
#     Edge 63, Type (0, 0), BuildingBlock: OJICUG_clean_linker_0, # of connection points: 2
#     Edge 64, Type (0, 0), BuildingBlock: OJICUG_clean_linker_0, # of connection points: 2
#     Edge 65, Type (0, 0), BuildingBlock: OJICUG_clean_linker_0, # of connection points: 2
#     Edge 66, Type (0, 0), BuildingBlock: OJICUG_clean_linker_0, # of connection points: 2
#     Edge 67, Type (0, 0), BuildingBlock: OJICUG_clean_linker_0, # of connection points: 2
#     Edge 68, Type (0, 0), BuildingBlock: OJICUG_clean_linker_0, # of connection points: 2
#     Edge 69, Type (0, 0), BuildingBlock: OJICUG_clean_linker_0, # of connection points: 2
#     Edge 70, Type (0, 0), BuildingBlock: OJICUG_clean_linker_0, # of connection points: 2
#     Edge 71, Type (0, 0), BuildingBlock: OJICUG_clean_linker_0, # of connection points: 2
#     Edge 72, Type (0, 0), BuildingBlock: OJICUG_clean_linker_0, # of connection points: 2
#     Edge 73, Type (0, 0), BuildingBlock: OJICUG_clean_linker_0, # of connection points: 2
#     Edge 74, Type (0, 0), BuildingBlock: OJICUG_clean_linker_0, # of connection points: 2
#     Edge 75, Type (0, 0), BuildingBlock: OJICUG_clean_linker_0, # of connection points: 2
#     Edge 76, Type (0, 0), BuildingBlock: OJICUG_clean_linker_0, # of connection points: 2
#     Edge 77, Type (0, 0), BuildingBlock: OJICUG_clean_linker_0, # of connection points: 2
#     Edge 78, Type (0, 0), BuildingBlock: OJICUG_clean_linker_0, # of connection points: 2
#     Edge 79, Type (0, 0), BuildingBlock: OJICUG_clean_linker_0, # of connection points: 2
#     Edge 80, Type (0, 0), BuildingBlock: OJICUG_clean_linker_0, # of connection points: 2
#     Edge 81, Type (0, 0), BuildingBlock: OJICUG_clean_linker_0, # of connection points: 2
#     Edge 82, Type (0, 0), BuildingBlock: OJICUG_clean_linker_0, # of connection points: 2
#     Edge 83, Type (0, 0), BuildingBlock: OJICUG_clean_linker_0, # of connection points: 2
#     Edge 84, Type (0, 0), BuildingBlock: OJICUG_clean_linker_0, # of connection points: 2
#     Edge 85, Type (0, 0), BuildingBlock: OJICUG_clean_linker_0, # of connection points: 2
#     Edge 86, Type (0, 0), BuildingBlock: OJICUG_clean_linker_0, # of connection points: 2
#     Edge 87, Type (0, 0), BuildingBlock: OJICUG_clean_linker_0, # of connection points: 2
#     Edge 88, Type (0, 0), BuildingBlock: OJICUG_clean_linker_0, # of connection points: 2
#     Edge 89, Type (0, 0), BuildingBlock: OJICUG_clean_linker_0, # of connection points: 2
#     Edge 90, Type (0, 0), BuildingBlock: OJICUG_clean_linker_0, # of connection points: 2
#     Edge 91, Type (0, 0), BuildingBlock: OJICUG_clean_linker_0, # of connection points: 2
#     Edge 92, Type (0, 0), BuildingBlock: OJICUG_clean_linker_0, # of connection points: 2
#     Edge 93, Type (0, 0), BuildingBlock: OJICUG_clean_linker_0, # of connection points: 2
#     Edge 94, Type (0, 0), BuildingBlock: OJICUG_clean_linker_0, # of connection points: 2
#     Edge 95, Type (0, 0), BuildingBlock: OJICUG_clean_linker_0, # of connection points: 2
# Relax obj value: 0.074
# Max RMSD: 0.055
# Mean RMSD: 0.055
data_MOF--net-umq--node1-KUFVIS_clean_sbu_0--edge1-OJICUG_clean_linker_0
_symmetry_space_group_name_H-M    P1
_symmetry_Int_Tables_number       1
_symmetry_cell_setting            triclinic
loop_
_symmetry_equiv_pos_as_xyz
'x, y, z'
_cell_length_a     48.338763
_cell_length_b     48.331041
_cell_length_c     31.465097
_cell_angle_alpha  90.011245
_cell_angle_beta   90.01223
_cell_angle_gamma 89.926557
loop_
_atom_site_label
_atom_site_type_symbol
_atom_site_fract_x
_atom_site_fract_y
_atom_site_fract_z
_atom_type_partial_charge
Mn0 Mn 0.24249 0.10372 0.19621 0.0
Mn1 Mn 0.22199 0.15696 0.13268 0.0
C2 C 0.2099 0.1349 0.22297 0.0
C3 C 0.24033 0.05825 0.22232 0.0
C4 C 0.27798 0.15393 0.17586 0.0
O5 O 0.25398 0.09101 0.13644 0.0
O6 O 0.23433 0.12523 0.09804 0.0
C7 C 0.17336 0.13387 0.08794 0.0
N8 N 0.18534 0.15455 0.11075 0.0
C9 C 0.14655 0.18482 0.09885 0.0
C10 C 0.13375 0.16386 0.07506 0.0
C11 C 0.14715 0.13823 0.06984 0.0
C12 C 0.1728 0.17941 0.11562 0.0
H13 H 0.18386 0.11434 0.08341 0.0
C14 C 0.24711 0.10218 0.10119 0.0
O15 O 0.26292 0.07258 0.22279 0.0
O16 O 0.21886 0.06986 0.20484 0.0
N17 N 0.20962 0.18976 0.16055 0.0
C18 C 0.22278 0.20562 0.19005 0.0
C19 C 0.21105 0.23104 0.20218 0.0
C20 C 0.18614 0.23992 0.18353 0.0
C21 C 0.17298 0.22316 0.15323 0.0
C22 C 0.18574 0.19817 0.14218 0.0
H23 H 0.24207 0.19892 0.20405 0.0
O24 O 0.22559 0.12007 0.24754 0.0
O25 O 0.21386 0.13173 0.18193 0.0
O26 O 0.27401 0.13232 0.19795 0.0
O27 O 0.26016 0.16362 0.1503 0.0
C28 C 0.1471 0.2296 0.13508 0.0
C29 C 0.1339 0.21045 0.1079 0.0
H30 H 0.11345 0.16704 0.0613 0.0
H31 H 0.1373 0.1219 0.05186 0.0
H32 H 0.22121 0.24379 0.22574 0.0
H33 H 0.17702 0.25938 0.19334 0.0
H34 H 0.13675 0.24883 0.14287 0.0
H35 H 0.11365 0.21531 0.09515 0.0
Mn36 Mn 0.90881 0.24021 0.18326 0.0
Mn37 Mn 0.85909 0.21332 0.11888 0.0
C38 C 0.87767 0.20882 0.21283 0.0
C39 C 0.95332 0.23988 0.21335 0.0
C40 C 0.85794 0.27213 0.15294 0.0
O41 O 0.92341 0.24847 0.12352 0.0
O42 O 0.89164 0.22502 0.08548 0.0
C43 C 0.88629 0.16341 0.08375 0.0
N44 N 0.86423 0.1756 0.10305 0.0
C45 C 0.83639 0.13477 0.09407 0.0
C46 C 0.85882 0.12174 0.07401 0.0
C47 C 0.8839 0.13609 0.06898 0.0
C48 C 0.83986 0.16214 0.10747 0.0
H49 H 0.9054 0.17461 0.07931 0.0
C50 C 0.91399 0.23894 0.08863 0.0
O51 O 0.93898 0.26244 0.20962 0.0
O52 O 0.94238 0.21756 0.1977 0.0
N53 N 0.82571 0.20112 0.14511 0.0
C54 C 0.80787 0.21533 0.17053 0.0
C55 C 0.78254 0.20316 0.18181 0.0
C56 C 0.77576 0.1767 0.16642 0.0
C57 C 0.79452 0.1625 0.14023 0.0
C58 C 0.81931 0.17576 0.1298 0.0
H59 H 0.81295 0.23579 0.18196 0.0
O60 O 0.89114 0.22664 0.2356 0.0
O61 O 0.88224 0.2098 0.17162 0.0
O62 O 0.87914 0.27083 0.17697 0.0
O63 O 0.84995 0.25197 0.13022 0.0
C64 C 0.79015 0.13529 0.12561 0.0
C65 C 0.81104 0.12146 0.10247 0.0
H66 H 0.85713 0.1006 0.06284 0.0
H67 H 0.90128 0.12615 0.05355 0.0
H68 H 0.76824 0.21415 0.20221 0.0
H69 H 0.75634 0.16727 0.17557 0.0
H70 H 0.77111 0.12452 0.13298 0.0
H71 H 0.80768 0.10031 0.09229 0.0
Mn72 Mn 0.77393 0.91065 0.1823 0.0
Mn73 Mn 0.80212 0.86089 0.11929 0.0
C74 C 0.80515 0.87966 0.21343 0.0
C75 C 0.77328 0.95558 0.21099 0.0
C76 C 0.74274 0.8598 0.15108 0.0
O77 O 0.76642 0.92478 0.12195 0.0
O78 O 0.79171 0.89369 0.0853 0.0
C79 C 0.85327 0.88754 0.08783 0.0
N80 N 0.84026 0.8655 0.10578 0.0
C81 C 0.88112 0.83728 0.09988 0.0
C82 C 0.895 0.85966 0.08117 0.0
C83 C 0.88103 0.88492 0.07525 0.0
C84 C 0.85334 0.84096 0.11102 0.0
H85 H 0.84242 0.90683 0.08291 0.0
C86 C 0.77728 0.9158 0.08768 0.0
O87 O 0.75096 0.94096 0.20711 0.0
O88 O 0.79596 0.94456 0.19664 0.0
N89 N 0.81329 0.82736 0.14629 0.0
C90 C 0.79829 0.80977 0.17098 0.0
C91 C 0.80993 0.78433 0.18315 0.0
C92 C 0.83671 0.77721 0.16949 0.0
C93 C 0.85173 0.79573 0.14409 0.0
C94 C 0.83896 0.82061 0.13258 0.0
H95 H 0.77763 0.81512 0.18117 0.0
O96 O 0.78711 0.89341 0.23545 0.0
O97 O 0.80463 0.88404 0.17217 0.0
O98 O 0.74382 0.8807 0.17572 0.0
O99 O 0.76305 0.85217 0.12832 0.0
C100 C 0.87932 0.79108 0.13145 0.0
C101 C 0.894 0.81182 0.10934 0.0
H102 H 0.91649 0.85783 0.07186 0.0
H103 H 0.89163 0.90228 0.06094 0.0
H104 H 0.79829 0.77022 0.20296 0.0
H105 H 0.84573 0.75772 0.1794 0.0
H106 H 0.88974 0.77196 0.13972 0.0
H107 H 0.91543 0.8083 0.10089 0.0
Mn108 Mn 0.10463 0.77265 0.18911 0.0
Mn109 Mn 0.15348 0.79976 0.12378 0.0
C110 C 0.13594 0.804 0.21884 0.0
C111 C 0.05981 0.77308 0.2181 0.0
C112 C 0.15469 0.74069 0.15711 0.0
O113 O 0.09004 0.76419 0.12939 0.0
O114 O 0.1199 0.7899 0.0913 0.0
C115 C 0.12716 0.85132 0.093 0.0
N116 N 0.14933 0.83791 0.10994 0.0
C117 C 0.17823 0.87805 0.10186 0.0
C118 C 0.15571 0.89234 0.08417 0.0
C119 C 0.13006 0.87894 0.07984 0.0
C120 C 0.17425 0.85043 0.11358 0.0
H121 H 0.10755 0.84088 0.08928 0.0
C122 C 0.09811 0.77515 0.09473 0.0
O123 O 0.07419 0.75049 0.21516 0.0
O124 O 0.07104 0.79533 0.20278 0.0
N125 N 0.18776 0.81034 0.14898 0.0
C126 C 0.20552 0.79517 0.1732 0.0
C127 C 0.23144 0.8063 0.18387 0.0
C128 C 0.23883 0.83277 0.16927 0.0
C129 C 0.22012 0.84801 0.14443 0.0
C130 C 0.19479 0.83569 0.13427 0.0
H131 H 0.19995 0.77475 0.18415 0.0
O132 O 0.12217 0.78638 0.24154 0.0
O133 O 0.13133 0.803 0.17761 0.0
O134 O 0.13453 0.74231 0.18311 0.0
O135 O 0.16166 0.76056 0.13299 0.0
C136 C 0.22504 0.87541 0.13112 0.0
C137 C 0.20412 0.89041 0.10982 0.0
H138 H 0.15776 0.91375 0.07446 0.0
H139 H 0.11259 0.88986 0.06632 0.0
H140 H 0.2457 0.7945 0.20327 0.0
H141 H 0.25868 0.84142 0.17809 0.0
H142 H 0.2445 0.88546 0.13831 0.0
H143 H 0.20788 0.91172 0.10088 0.0
Mn144 Mn 0.23926 0.90885 0.3422 0.0
Mn145 Mn 0.21278 0.85868 0.40596 0.0
C146 C 0.20893 0.87694 0.3117 0.0
C147 C 0.23865 0.9534 0.31236 0.0
C148 C 0.27204 0.85895 0.37374 0.0
O149 O 0.24637 0.9237 0.40223 0.0
O150 O 0.22267 0.8918 0.4396 0.0
C151 C 0.16123 0.88441 0.43796 0.0
N152 N 0.17462 0.86257 0.41998 0.0
C153 C 0.1344 0.83361 0.42643 0.0
C154 C 0.12013 0.85577 0.44519 0.0
C155 C 0.13359 0.88129 0.45086 0.0
C156 C 0.16204 0.83777 0.41501 0.0
H157 H 0.17168 0.90391 0.44265 0.0
C158 C 0.23622 0.91441 0.43679 0.0
O159 O 0.26134 0.93937 0.31674 0.0
O160 O 0.21624 0.94207 0.32703 0.0
N161 N 0.20221 0.82485 0.37935 0.0
C162 C 0.21745 0.8075 0.35452 0.0
C163 C 0.20629 0.78184 0.34255 0.0
C164 C 0.17973 0.77425 0.35652 0.0
C165 C 0.16444 0.79253 0.38205 0.0
C166 C 0.17676 0.81765 0.39339 0.0
H167 H 0.23794 0.81324 0.34406 0.0
O168 O 0.22668 0.89085 0.28945 0.0
O169 O 0.20933 0.88158 0.35292 0.0
O170 O 0.27032 0.87985 0.34922 0.0
O171 O 0.25198 0.85072 0.39645 0.0
C172 C 0.13701 0.7874 0.39497 0.0
C173 C 0.122 0.80791 0.41717 0.0
H174 H 0.09871 0.85357 0.45472 0.0
H175 H 0.12268 0.89849 0.46519 0.0
H176 H 0.21813 0.76792 0.32264 0.0
H177 H 0.17107 0.7546 0.34675 0.0
H178 H 0.12695 0.7681 0.38684 0.0
H179 H 0.10068 0.80402 0.42584 0.0
Mn180 Mn 0.10302 0.24266 0.33132 0.0
Mn181 Mn 0.15722 0.22143 0.39245 0.0
C182 C 0.13414 0.21067 0.30275 0.0
C183 C 0.05743 0.24077 0.30555 0.0
C184 C 0.1535 0.27801 0.3514 0.0
O185 O 0.09078 0.25285 0.39196 0.0
O186 O 0.12605 0.23348 0.42846 0.0
C187 C 0.13458 0.17235 0.43659 0.0
N188 N 0.15495 0.18451 0.41337 0.0
C189 C 0.18508 0.14531 0.42269 0.0
C190 C 0.16444 0.13234 0.44689 0.0
C191 C 0.13903 0.14585 0.45359 0.0
C192 C 0.17959 0.17182 0.40699 0.0
H193 H 0.11522 0.18293 0.44225 0.0
C194 C 0.10271 0.24583 0.42659 0.0
O195 O 0.07162 0.26344 0.3061 0.0
O196 O 0.06921 0.21904 0.32201 0.0
N197 N 0.18949 0.20922 0.36297 0.0
C198 C 0.20498 0.2227 0.33338 0.0
C199 C 0.23009 0.21095 0.31986 0.0
C200 C 0.23907 0.1857 0.33727 0.0
C201 C 0.22269 0.17222 0.36772 0.0
C202 C 0.19797 0.18498 0.3801 0.0
H203 H 0.19822 0.24225 0.32034 0.0
O204 O 0.11914 0.2267 0.27896 0.0
O205 O 0.13125 0.21399 0.34393 0.0
O206 O 0.13137 0.2744 0.3304 0.0
O207 O 0.1638 0.25977 0.37567 0.0
C208 C 0.22925 0.14605 0.38478 0.0
C209 C 0.21046 0.13261 0.41224 0.0
H210 H 0.1677 0.11183 0.45984 0.0
H211 H 0.12293 0.13587 0.47187 0.0
H212 H 0.24254 0.22137 0.2962 0.0
H213 H 0.25829 0.17658 0.32642 0.0
H214 H 0.24828 0.1357 0.37594 0.0
H215 H 0.21538 0.11216 0.42414 0.0
Mn216 Mn 0.77141 0.10521 0.33075 0.0
Mn217 Mn 0.79888 0.15305 0.39767 0.0
C218 C 0.80415 0.13562 0.30264 0.0
C219 C 0.77142 0.06052 0.30118 0.0
C220 C 0.74046 0.15616 0.36197 0.0
O221 O 0.76138 0.09074 0.38982 0.0
O222 O 0.78709 0.11982 0.42933 0.0
C223 C 0.84862 0.12497 0.43165 0.0
N224 N 0.83652 0.1475 0.4135 0.0
C225 C 0.87717 0.17519 0.42498 0.0
C226 C 0.89013 0.15228 0.44384 0.0
C227 C 0.87582 0.12705 0.44706 0.0
C228 C 0.84991 0.17202 0.41093 0.0
H229 H 0.83742 0.10574 0.43476 0.0
C230 C 0.77174 0.09853 0.42506 0.0
O231 O 0.74907 0.07535 0.30327 0.0
O232 O 0.79354 0.07117 0.31781 0.0
N233 N 0.81118 0.18704 0.37346 0.0
C234 C 0.79715 0.20546 0.34881 0.0
C235 C 0.80933 0.2311 0.33932 0.0
C236 C 0.83562 0.23756 0.35566 0.0
C237 C 0.84965 0.2182 0.38101 0.0
C238 C 0.83635 0.19315 0.38977 0.0
H239 H 0.77683 0.20062 0.33662 0.0
O240 O 0.78651 0.12248 0.27913 0.0
O241 O 0.80234 0.13097 0.3438 0.0
O242 O 0.74173 0.13595 0.33595 0.0
O243 O 0.76028 0.16256 0.38654 0.0
C244 C 0.87675 0.22223 0.39633 0.0
C245 C 0.89047 0.20078 0.4184 0.0
H246 H 0.91117 0.15372 0.45548 0.0
H247 H 0.88568 0.10931 0.46161 0.0
H248 H 0.79847 0.24588 0.31956 0.0
H249 H 0.84507 0.25723 0.34785 0.0
H250 H 0.88752 0.24147 0.39028 0.0
H251 H 0.91153 0.20392 0.42912 0.0
Mn252 Mn 0.90941 0.7747 0.33541 0.0
Mn253 Mn 0.86106 0.80204 0.40151 0.0
C254 C 0.87828 0.80658 0.30616 0.0
C255 C 0.95417 0.77435 0.30617 0.0
C256 C 0.85942 0.74307 0.36777 0.0
O257 O 0.92406 0.7658 0.39499 0.0
O258 O 0.89482 0.79203 0.43347 0.0
C259 C 0.88761 0.85347 0.43205 0.0
N260 N 0.86531 0.84014 0.41547 0.0
C261 C 0.83642 0.88029 0.42444 0.0
C262 C 0.85907 0.89451 0.44176 0.0
C263 C 0.88479 0.88106 0.44546 0.0
C264 C 0.84034 0.85269 0.41245 0.0
H265 H 0.90726 0.843 0.4353 0.0
C266 C 0.91637 0.77691 0.42977 0.0
O267 O 0.93941 0.75205 0.30909 0.0
O268 O 0.94333 0.79682 0.32158 0.0
N269 N 0.8266 0.81275 0.37694 0.0
C270 C 0.8087 0.79769 0.35286 0.0
C271 C 0.78269 0.80889 0.34276 0.0
C272 C 0.77536 0.83531 0.35777 0.0
C273 C 0.79422 0.85042 0.38246 0.0
C274 C 0.81963 0.83803 0.39209 0.0
H275 H 0.81424 0.77733 0.34157 0.0
O276 O 0.89187 0.78891 0.28322 0.0
O277 O 0.88297 0.80532 0.34737 0.0
O278 O 0.87931 0.74474 0.34133 0.0
O279 O 0.85277 0.76284 0.39232 0.0
C280 C 0.78938 0.87779 0.39608 0.0
C281 C 0.81045 0.8927 0.41709 0.0
H282 H 0.85709 0.91588 0.45166 0.0
H283 H 0.90235 0.89192 0.4587 0.0
H284 H 0.76832 0.7972 0.32346 0.0
H285 H 0.75544 0.84402 0.34937 0.0
H286 H 0.76985 0.88789 0.38931 0.0
H287 H 0.80674 0.91399 0.42625 0.0
Mn288 Mn 0.77016 0.90421 0.82475 0.0
Mn289 Mn 0.80144 0.85882 0.89105 0.0
C290 C 0.79866 0.86987 0.79722 0.0
C291 C 0.76998 0.94765 0.79189 0.0
C292 C 0.74067 0.85525 0.86555 0.0
O293 O 0.76461 0.92164 0.88367 0.0
O294 O 0.79181 0.89305 0.92185 0.0
C295 C 0.85272 0.89086 0.90558 0.0
N296 N 0.84008 0.86708 0.89291 0.0
C297 C 0.88384 0.84578 0.87677 0.0
C298 C 0.89735 0.86998 0.88989 0.0
C299 C 0.8817 0.89265 0.90424 0.0
C300 C 0.8549 0.84534 0.87835 0.0
H301 H 0.84076 0.90836 0.91647 0.0
C302 C 0.77681 0.91467 0.91802 0.0
O303 O 0.74731 0.93382 0.79799 0.0
O304 O 0.79272 0.93641 0.80542 0.0
N305 N 0.81233 0.82418 0.86673 0.0
C306 C 0.7963 0.80145 0.85956 0.0
C307 C 0.80882 0.77646 0.84718 0.0
C308 C 0.83773 0.77489 0.84335 0.0
C309 C 0.85388 0.79818 0.85274 0.0
C310 C 0.84025 0.82241 0.86538 0.0
H311 H 0.77411 0.80233 0.86319 0.0
O312 O 0.78157 0.88302 0.7727 0.0
O313 O 0.79944 0.878 0.83646 0.0
O314 O 0.74084 0.87495 0.83849 0.0
O315 O 0.76163 0.84877 0.88857 0.0
C316 C 0.883 0.79814 0.85081 0.0
C317 C 0.89797 0.82202 0.86243 0.0
H318 H 0.91971 0.87138 0.88913 0.0
H319 H 0.89196 0.91143 0.91431 0.0
H320 H 0.79621 0.75846 0.8407 0.0
H321 H 0.8473 0.75564 0.83359 0.0
H322 H 0.89411 0.77981 0.84068 0.0
H323 H 0.92035 0.82175 0.86082 0.0
Mn324 Mn 0.10566 0.76422 0.83218 0.0
Mn325 Mn 0.15083 0.79821 0.89551 0.0
C326 C 0.13874 0.79309 0.80206 0.0
C327 C 0.06147 0.76285 0.80161 0.0
C328 C 0.1561 0.73708 0.87262 0.0
O329 O 0.08946 0.75914 0.89197 0.0
O330 O 0.11714 0.78858 0.9275 0.0
C331 C 0.11749 0.84902 0.9076 0.0
N332 N 0.14156 0.83666 0.89544 0.0
C333 C 0.16184 0.88058 0.87759 0.0
C334 C 0.13733 0.8938 0.89018 0.0
C335 C 0.11502 0.87792 0.90509 0.0
C336 C 0.16292 0.85168 0.8802 0.0
H337 H 0.10029 0.83688 0.91899 0.0
C338 C 0.09616 0.77265 0.92524 0.0
O339 O 0.07583 0.74042 0.80744 0.0
O340 O 0.07269 0.78586 0.81391 0.0
N341 N 0.18503 0.80936 0.87013 0.0
C342 C 0.20816 0.7937 0.8637 0.0
C343 C 0.23286 0.80653 0.85096 0.0
C344 C 0.23379 0.8354 0.8461 0.0
C345 C 0.21011 0.85122 0.85477 0.0
C346 C 0.18616 0.83728 0.86772 0.0
H347 H 0.20781 0.77157 0.86828 0.0
O348 O 0.12557 0.77535 0.77873 0.0
O349 O 0.13125 0.79432 0.84156 0.0
O350 O 0.13616 0.73603 0.84593 0.0
O351 O 0.16187 0.75862 0.89479 0.0
C352 C 0.20953 0.88031 0.85196 0.0
C353 C 0.1853 0.89496 0.8629 0.0
H354 H 0.13543 0.91611 0.8886 0.0
H355 H 0.09601 0.88796 0.91475 0.0
H356 H 0.25117 0.7942 0.84507 0.0
H357 H 0.25284 0.84522 0.83613 0.0
H358 H 0.22766 0.89164 0.8417 0.0
H359 H 0.18509 0.91732 0.86056 0.0
Mn360 Mn 0.24547 0.10188 0.83459 0.0
Mn361 Mn 0.22334 0.15607 0.89449 0.0
C362 C 0.21318 0.13216 0.80473 0.0
C363 C 0.24406 0.05558 0.81262 0.0
C364 C 0.28013 0.15263 0.85376 0.0
O365 O 0.25641 0.09099 0.89537 0.0
O366 O 0.2348 0.12506 0.93147 0.0
C367 C 0.17365 0.13382 0.93743 0.0
N368 N 0.18613 0.154 0.9142 0.0
C369 C 0.1468 0.18418 0.92156 0.0
C370 C 0.13349 0.16375 0.94572 0.0
C371 C 0.14691 0.1384 0.95343 0.0
C372 C 0.17353 0.17857 0.90688 0.0
H373 H 0.18414 0.11452 0.94387 0.0
C374 C 0.24828 0.10233 0.92982 0.0
O375 O 0.26651 0.07011 0.81108 0.0
O376 O 0.22226 0.06767 0.82825 0.0
N377 N 0.2116 0.18817 0.86409 0.0
C378 C 0.22554 0.2035 0.83478 0.0
C379 C 0.21401 0.22851 0.82046 0.0
C380 C 0.18847 0.23757 0.83673 0.0
C381 C 0.17452 0.22138 0.86689 0.0
C382 C 0.18708 0.19675 0.88014 0.0
H383 H 0.24529 0.19669 0.82259 0.0
O384 O 0.22904 0.11657 0.7816 0.0
O385 O 0.21651 0.12992 0.84605 0.0
O386 O 0.27653 0.13085 0.83188 0.0
O387 O 0.26198 0.16239 0.87875 0.0
C388 C 0.1481 0.22805 0.88288 0.0
C389 C 0.13425 0.20946 0.91018 0.0
H390 H 0.11279 0.1671 0.95789 0.0
H391 H 0.13667 0.12247 0.97171 0.0
H392 H 0.22481 0.24086 0.79708 0.0
H393 H 0.17953 0.25673 0.82526 0.0
H394 H 0.13788 0.24702 0.87334 0.0
H395 H 0.11363 0.21447 0.92127 0.0
Mn396 Mn 0.90751 0.23959 0.82409 0.0
Mn397 Mn 0.85468 0.2206 0.88905 0.0
C398 C 0.87502 0.2084 0.79766 0.0
C399 C 0.9526 0.23632 0.79731 0.0
C400 C 0.85924 0.27692 0.84713 0.0
O401 O 0.92145 0.25006 0.88352 0.0
O402 O 0.88746 0.23098 0.92288 0.0
C403 C 0.87583 0.17066 0.93284 0.0
N404 N 0.85568 0.18362 0.91008 0.0
C405 C 0.8238 0.1462 0.92188 0.0
C406 C 0.84421 0.13241 0.94553 0.0
C407 C 0.87035 0.14466 0.95091 0.0
C408 C 0.83027 0.17228 0.90539 0.0
H409 H 0.89576 0.18027 0.9375 0.0
C410 C 0.91086 0.24297 0.91901 0.0
O411 O 0.93878 0.25926 0.7973 0.0
O412 O 0.94056 0.21493 0.81424 0.0
N413 N 0.8211 0.21005 0.86168 0.0
C414 C 0.80562 0.22418 0.83274 0.0
C415 C 0.77972 0.21366 0.82062 0.0
C416 C 0.76997 0.18891 0.8387 0.0
C417 C 0.78636 0.17473 0.86841 0.0
C418 C 0.81189 0.1863 0.87945 0.0
H419 H 0.81301 0.24332 0.81915 0.0
O420 O 0.89002 0.22379 0.77297 0.0
O421 O 0.87884 0.21183 0.83872 0.0
O422 O 0.88006 0.27211 0.82372 0.0
O423 O 0.84942 0.25931 0.87287 0.0
C424 C 0.77896 0.14898 0.88607 0.0
C425 C 0.79764 0.13476 0.91285 0.0
H426 H 0.84017 0.11224 0.9592 0.0
H427 H 0.8862 0.13413 0.96906 0.0
H428 H 0.76726 0.22461 0.7975 0.0
H429 H 0.75011 0.18073 0.82892 0.0
H430 H 0.75928 0.13955 0.8783 0.0
H431 H 0.79197 0.11467 0.92535 0.0
Mn432 Mn 0.7669 0.10186 0.68904 0.0
Mn433 Mn 0.78902 0.15468 0.6264 0.0
C434 C 0.79903 0.13279 0.7174 0.0
C435 C 0.76859 0.056 0.71302 0.0
C436 C 0.73199 0.1519 0.66651 0.0
O437 O 0.75635 0.08948 0.62892 0.0
O438 O 0.77812 0.12267 0.59125 0.0
C439 C 0.83888 0.13238 0.5838 0.0
N440 N 0.8263 0.15261 0.60689 0.0
C441 C 0.86506 0.18324 0.59781 0.0
C442 C 0.87849 0.16273 0.57388 0.0
C443 C 0.86536 0.13717 0.56696 0.0
C444 C 0.83852 0.17748 0.61308 0.0
H445 H 0.82862 0.11291 0.57792 0.0
C446 C 0.76481 0.09992 0.59406 0.0
O447 O 0.74604 0.07048 0.71399 0.0
O448 O 0.79035 0.06795 0.69712 0.0
N449 N 0.80027 0.18748 0.65535 0.0
C450 C 0.78616 0.20313 0.6841 0.0
C451 C 0.79739 0.22846 0.69753 0.0
C452 C 0.82281 0.23751 0.68088 0.0
C453 C 0.83696 0.22097 0.65132 0.0
C454 C 0.82472 0.19599 0.63906 0.0
H455 H 0.76649 0.19631 0.69657 0.0
O456 O 0.78309 0.1178 0.74128 0.0
O457 O 0.79581 0.12964 0.67622 0.0
O458 O 0.7356 0.13078 0.68988 0.0
O459 O 0.75029 0.16104 0.64131 0.0
C460 C 0.86325 0.22768 0.63495 0.0
C461 C 0.87727 0.20885 0.60816 0.0
H462 H 0.89899 0.16624 0.56111 0.0
H463 H 0.87559 0.12125 0.54853 0.0
H464 H 0.78645 0.24103 0.72052 0.0
H465 H 0.83151 0.25694 0.69161 0.0
H466 H 0.87322 0.24691 0.6437 0.0
H467 H 0.89774 0.21397 0.59663 0.0
Mn468 Mn 0.90874 0.76471 0.69226 0.0
Mn469 Mn 0.86339 0.79869 0.62907 0.0
C470 C 0.87564 0.79364 0.72249 0.0
C471 C 0.95296 0.76318 0.72273 0.0
C472 C 0.85826 0.7376 0.6521 0.0
O473 O 0.9249 0.75964 0.63242 0.0
O474 O 0.89702 0.78897 0.59694 0.0
C475 C 0.89665 0.84943 0.6167 0.0
N476 N 0.87262 0.83713 0.62899 0.0
C477 C 0.85233 0.88111 0.64681 0.0
C478 C 0.87679 0.89427 0.63408 0.0
C479 C 0.89909 0.87834 0.61911 0.0
C480 C 0.85127 0.85221 0.64429 0.0
H481 H 0.91384 0.83726 0.60527 0.0
C482 C 0.91808 0.77309 0.59915 0.0
O483 O 0.93857 0.74081 0.71688 0.0
O484 O 0.94175 0.78624 0.71052 0.0
N485 N 0.82922 0.80993 0.65454 0.0
C486 C 0.8061 0.79433 0.66101 0.0
C487 C 0.78139 0.80721 0.67378 0.0
C488 C 0.78046 0.83609 0.67862 0.0
C489 C 0.80411 0.85185 0.66987 0.0
C490 C 0.82806 0.83786 0.65689 0.0
H491 H 0.80645 0.77219 0.65646 0.0
O492 O 0.88887 0.77588 0.74577 0.0
O493 O 0.88308 0.79486 0.68296 0.0
O494 O 0.87827 0.73657 0.67864 0.0
O495 O 0.85238 0.75912 0.62992 0.0
C496 C 0.80467 0.88095 0.67261 0.0
C497 C 0.82887 0.89555 0.66155 0.0
H498 H 0.87867 0.91658 0.63558 0.0
H499 H 0.91807 0.88833 0.60934 0.0
H500 H 0.76309 0.79492 0.67971 0.0
H501 H 0.7614 0.84595 0.6886 0.0
H502 H 0.78655 0.89232 0.68289 0.0
H503 H 0.82906 0.91791 0.66382 0.0
Mn504 Mn 0.24333 0.9041 0.69969 0.0
Mn505 Mn 0.2123 0.85849 0.63352 0.0
C506 C 0.21517 0.8696 0.7273 0.0
C507 C 0.24324 0.94748 0.73287 0.0
C508 C 0.27312 0.85523 0.65882 0.0
O509 O 0.2486 0.92158 0.64072 0.0
O510 O 0.22168 0.89272 0.60266 0.0
C511 C 0.1608 0.89031 0.61903 0.0
N512 N 0.17361 0.86659 0.63173 0.0
C513 C 0.13 0.8451 0.6479 0.0
C514 C 0.11632 0.86923 0.63477 0.0
C515 C 0.1318 0.89196 0.62039 0.0
C516 C 0.15894 0.84479 0.64631 0.0
H517 H 0.17263 0.90785 0.60811 0.0
C518 C 0.23645 0.91447 0.6064 0.0
O519 O 0.266 0.93379 0.72649 0.0
O520 O 0.22056 0.93618 0.71929 0.0
N521 N 0.20166 0.82383 0.65791 0.0
C522 C 0.21785 0.80116 0.66507 0.0
C523 C 0.20552 0.77613 0.67747 0.0
C524 C 0.17662 0.77443 0.68133 0.0
C525 C 0.1603 0.79765 0.67195 0.0
C526 C 0.17376 0.82193 0.65929 0.0
H527 H 0.24003 0.80214 0.6614 0.0
O528 O 0.23222 0.88282 0.75174 0.0
O529 O 0.21422 0.87775 0.68807 0.0
O530 O 0.27285 0.875 0.68578 0.0
O531 O 0.25218 0.8486 0.63592 0.0
C532 C 0.13118 0.79748 0.67389 0.0
C533 C 0.11605 0.82128 0.66226 0.0
H534 H 0.09395 0.87053 0.63553 0.0
H535 H 0.12141 0.91069 0.6103 0.0
H536 H 0.21825 0.75818 0.68394 0.0
H537 H 0.16718 0.75514 0.6911 0.0
H538 H 0.12021 0.7791 0.68403 0.0
H539 H 0.09366 0.82091 0.66388 0.0
Mn540 Mn 0.10631 0.23901 0.69331 0.0
Mn541 Mn 0.16053 0.21992 0.63116 0.0
C542 C 0.13795 0.20737 0.72123 0.0
C543 C 0.06059 0.23606 0.7174 0.0
C544 C 0.15549 0.27591 0.67403 0.0
O545 O 0.09407 0.25026 0.63326 0.0
O546 O 0.12876 0.23109 0.59541 0.0
C547 C 0.13937 0.17031 0.58666 0.0
N548 N 0.15945 0.18306 0.60977 0.0
C549 C 0.19081 0.14492 0.59973 0.0
C550 C 0.1705 0.13135 0.57565 0.0
C551 C 0.14462 0.14403 0.56935 0.0
C552 C 0.18454 0.1712 0.61569 0.0
H553 H 0.11963 0.18025 0.58134 0.0
C554 C 0.10547 0.24349 0.59818 0.0
O555 O 0.07457 0.25885 0.71853 0.0
O556 O 0.07284 0.21466 0.70076 0.0
N557 N 0.19336 0.20869 0.6601 0.0
C558 C 0.2085 0.22252 0.68976 0.0
C559 C 0.23403 0.21156 0.70292 0.0
C560 C 0.24375 0.18668 0.68518 0.0
C561 C 0.22772 0.17281 0.65471 0.0
C562 C 0.2026 0.18485 0.64255 0.0
H563 H 0.20114 0.24177 0.70312 0.0
O564 O 0.12232 0.22264 0.74522 0.0
O565 O 0.13517 0.2111 0.68002 0.0
O566 O 0.13403 0.27113 0.69601 0.0
O567 O 0.16582 0.25849 0.64837 0.0
C568 C 0.23503 0.14691 0.63739 0.0
C569 C 0.2166 0.13299 0.60992 0.0
H570 H 0.17435 0.11099 0.56253 0.0
H571 H 0.12876 0.13357 0.55119 0.0
H572 H 0.24625 0.22228 0.72657 0.0
H573 H 0.2633 0.17814 0.69581 0.0
H574 H 0.2544 0.13712 0.64605 0.0
H575 H 0.22212 0.11273 0.59783 0.0
Mn576 Mn 0.73891 0.60653 0.68212 0.0
Mn577 Mn 0.71201 0.65573 0.61707 0.0
C578 C 0.70799 0.63818 0.712 0.0
C579 C 0.7387 0.5621 0.71209 0.0
C580 C 0.77117 0.6563 0.64987 0.0
O581 O 0.7468 0.59154 0.62247 0.0
O582 O 0.72208 0.62226 0.58429 0.0
C583 C 0.66059 0.62946 0.58593 0.0
N584 N 0.67389 0.65159 0.60312 0.0
C585 C 0.63359 0.68041 0.5955 0.0
C586 C 0.6194 0.65795 0.57754 0.0
C587 C 0.63294 0.63235 0.57286 0.0
C588 C 0.66124 0.67645 0.60711 0.0
H589 H 0.67112 0.6099 0.58196 0.0
C590 C 0.73633 0.60009 0.58769 0.0
O591 O 0.76124 0.57637 0.70813 0.0
O592 O 0.71624 0.57314 0.697 0.0
N593 N 0.7013 0.6899 0.64254 0.0
C594 C 0.71642 0.70758 0.66692 0.0
C595 C 0.70517 0.73342 0.67793 0.0
C596 C 0.67864 0.74081 0.6635 0.0
C597 C 0.66346 0.72218 0.63848 0.0
C598 C 0.6759 0.69693 0.62798 0.0
H599 H 0.73688 0.70199 0.67775 0.0
O600 O 0.72581 0.62449 0.73452 0.0
O601 O 0.70864 0.63342 0.67078 0.0
O602 O 0.7695 0.63587 0.67529 0.0
O603 O 0.75119 0.6639 0.6264 0.0
C604 C 0.63602 0.72709 0.6253 0.0
C605 C 0.62111 0.70623 0.60379 0.0
H606 H 0.59798 0.65999 0.5679 0.0
H607 H 0.6221 0.61493 0.55914 0.0
H608 H 0.71691 0.74761 0.69748 0.0
H609 H 0.66989 0.76059 0.67259 0.0
H610 H 0.62588 0.74649 0.63276 0.0
H611 H 0.59977 0.70998 0.59495 0.0
Mn612 Mn 0.40968 0.74175 0.68867 0.0
Mn613 Mn 0.36135 0.71367 0.6234 0.0
C614 C 0.37866 0.71026 0.71869 0.0
C615 C 0.45434 0.74207 0.71807 0.0
C616 C 0.35937 0.77291 0.65591 0.0
O617 O 0.42433 0.75002 0.62896 0.0
O618 O 0.39492 0.72371 0.59101 0.0
C619 C 0.38838 0.66222 0.59367 0.0
N620 N 0.366 0.67548 0.6102 0.0
C621 C 0.33761 0.63493 0.60256 0.0
C622 C 0.36035 0.62078 0.5853 0.0
C623 C 0.38586 0.63447 0.58095 0.0
C624 C 0.34122 0.66268 0.61385 0.0
H625 H 0.40788 0.67286 0.58995 0.0
C626 C 0.41652 0.73876 0.59439 0.0
O627 O 0.43972 0.76448 0.71464 0.0
O628 O 0.44346 0.71958 0.70294 0.0
N629 N 0.32711 0.70285 0.64848 0.0
C630 C 0.3091 0.71799 0.67231 0.0
C631 C 0.28328 0.70662 0.68295 0.0
C632 C 0.27625 0.67996 0.66872 0.0
C633 C 0.29522 0.66477 0.64428 0.0
C634 C 0.32043 0.67732 0.63411 0.0
H635 H 0.3144 0.73854 0.68299 0.0
O636 O 0.39217 0.72819 0.74118 0.0
O637 O 0.38336 0.71102 0.67747 0.0
O638 O 0.37949 0.77166 0.68203 0.0
O639 O 0.35268 0.75284 0.63198 0.0
C640 C 0.29068 0.63722 0.63139 0.0
C641 C 0.31184 0.62232 0.61051 0.0
H642 H 0.3586 0.59929 0.57593 0.0
H643 H 0.4035 0.62366 0.56777 0.0
H644 H 0.26882 0.71838 0.70205 0.0
H645 H 0.25648 0.67113 0.67752 0.0
H646 H 0.27132 0.62699 0.63859 0.0
H647 H 0.30837 0.6009 0.6019 0.0
Mn648 Mn 0.2701 0.41183 0.69497 0.0
Mn649 Mn 0.29129 0.35807 0.63302 0.0
C650 C 0.3021 0.38069 0.72313 0.0
C651 C 0.27246 0.45731 0.72082 0.0
C652 C 0.23491 0.36129 0.67477 0.0
O653 O 0.2595 0.42431 0.63475 0.0
O654 O 0.27889 0.3894 0.59753 0.0
C655 C 0.34005 0.38133 0.58886 0.0
N656 N 0.3281 0.36071 0.61183 0.0
C657 C 0.36745 0.33089 0.60166 0.0
C658 C 0.3802 0.35179 0.57772 0.0
C659 C 0.36651 0.37717 0.57155 0.0
C660 C 0.34096 0.3361 0.61767 0.0
H661 H 0.32933 0.40066 0.58361 0.0
C662 C 0.26636 0.41263 0.59989 0.0
O663 O 0.24966 0.4433 0.72069 0.0
O664 O 0.29396 0.44543 0.70391 0.0
N665 N 0.30377 0.32563 0.66178 0.0
C666 C 0.29048 0.30982 0.69118 0.0
C667 C 0.30241 0.28467 0.70413 0.0
C668 C 0.32766 0.27598 0.68636 0.0
C669 C 0.34094 0.29268 0.65613 0.0
C670 C 0.32799 0.31742 0.64428 0.0
H671 H 0.27094 0.31636 0.7045 0.0
O672 O 0.28615 0.39566 0.74705 0.0
O673 O 0.29877 0.38368 0.68195 0.0
O674 O 0.23843 0.38337 0.69597 0.0
O675 O 0.2531 0.35121 0.65019 0.0
C676 C 0.3671 0.28643 0.63879 0.0
C677 C 0.38034 0.30552 0.61158 0.0
H678 H 0.40069 0.34876 0.56454 0.0
H679 H 0.37632 0.39346 0.55346 0.0
H680 H 0.29214 0.27197 0.72764 0.0
H681 H 0.33692 0.25672 0.69678 0.0
H682 H 0.3776 0.2674 0.64721 0.0
H683 H 0.40078 0.30081 0.59944 0.0
Mn684 Mn 0.60395 0.27499 0.68691 0.0
Mn685 Mn 0.65824 0.29458 0.62519 0.0
C686 C 0.63647 0.30522 0.71585 0.0
C687 C 0.55884 0.27793 0.71389 0.0
C688 C 0.65252 0.23768 0.66465 0.0
O689 O 0.59069 0.26617 0.62625 0.0
O690 O 0.62615 0.28473 0.58932 0.0
C691 C 0.63788 0.34533 0.58278 0.0
N692 N 0.65765 0.33191 0.60568 0.0
C693 C 0.68943 0.36986 0.59798 0.0
C694 C 0.66942 0.38414 0.57421 0.0
C695 C 0.64352 0.37184 0.56667 0.0
C696 C 0.68283 0.34332 0.61249 0.0
H697 H 0.61812 0.33575 0.5766 0.0
C698 C 0.60235 0.27332 0.59148 0.0
O699 O 0.57239 0.25489 0.71201 0.0
O700 O 0.57096 0.29963 0.698 0.0
N701 N 0.6912 0.30468 0.65472 0.0
C702 C 0.7061 0.29 0.68373 0.0
C703 C 0.73165 0.30037 0.6978 0.0
C704 C 0.74164 0.32557 0.6816 0.0
C705 C 0.72584 0.34032 0.65178 0.0
C706 C 0.70066 0.32886 0.63874 0.0
H707 H 0.69853 0.27054 0.69594 0.0
O708 O 0.6211 0.28943 0.73938 0.0
O709 O 0.63308 0.3027 0.67458 0.0
O710 O 0.63098 0.24221 0.68653 0.0
O711 O 0.66321 0.25561 0.64029 0.0
C712 C 0.73345 0.36652 0.63599 0.0
C713 C 0.71526 0.38127 0.60911 0.0
H714 H 0.67356 0.40471 0.56214 0.0
H715 H 0.62799 0.38275 0.5484 0.0
H716 H 0.74365 0.28897 0.72097 0.0
H717 H 0.7612 0.33364 0.69289 0.0
H718 H 0.75286 0.37589 0.64538 0.0
H719 H 0.72103 0.40171 0.59816 0.0
Mn720 Mn 0.74341 0.41176 0.82752 0.0
Mn721 Mn 0.7226 0.35848 0.89036 0.0
C722 C 0.71202 0.38004 0.79925 0.0
C723 C 0.74091 0.45715 0.80148 0.0
C724 C 0.77938 0.36228 0.84977 0.0
O725 O 0.75345 0.42474 0.88778 0.0
O726 O 0.73314 0.39067 0.92553 0.0
C727 C 0.67233 0.3803 0.9324 0.0
N728 N 0.68535 0.36001 0.91003 0.0
C729 C 0.64689 0.32898 0.91897 0.0
C730 C 0.63303 0.34955 0.9422 0.0
C731 C 0.64578 0.37533 0.94884 0.0
C732 C 0.67349 0.33494 0.90409 0.0
H733 H 0.68228 0.39998 0.9379 0.0
C734 C 0.74567 0.41387 0.92278 0.0
O735 O 0.76377 0.44319 0.80192 0.0
O736 O 0.71933 0.44519 0.81795 0.0
N737 N 0.7118 0.32542 0.8617 0.0
C738 C 0.7261 0.30992 0.83297 0.0
C739 C 0.71525 0.28437 0.81979 0.0
C740 C 0.68998 0.27499 0.83654 0.0
C741 C 0.67562 0.2914 0.86603 0.0
C742 C 0.68755 0.31654 0.87824 0.0
H743 H 0.74562 0.31701 0.82035 0.0
O744 O 0.72786 0.39515 0.77543 0.0
O745 O 0.71502 0.38336 0.84047 0.0
O746 O 0.77532 0.38358 0.82702 0.0
O747 O 0.76138 0.35264 0.87504 0.0
C748 C 0.64936 0.28444 0.88225 0.0
C749 C 0.63501 0.30321 0.9087 0.0
H750 H 0.61243 0.34592 0.95453 0.0
H751 H 0.63519 0.39129 0.96669 0.0
H752 H 0.72635 0.27189 0.79687 0.0
H753 H 0.68154 0.25543 0.82591 0.0
H754 H 0.63963 0.26508 0.87352 0.0
H755 H 0.61451 0.29794 0.91997 0.0
Mn756 Mn 0.60407 0.74185 0.83687 0.0
Mn757 Mn 0.65309 0.71351 0.90082 0.0
C758 C 0.63503 0.71057 0.80606 0.0
C759 C 0.55925 0.74216 0.80804 0.0
C760 C 0.65472 0.77285 0.8688 0.0
O761 O 0.58978 0.7498 0.89689 0.0
O762 O 0.61995 0.72383 0.93412 0.0
C763 C 0.6261 0.66227 0.93121 0.0
N764 N 0.64835 0.67533 0.914 0.0
C765 C 0.67652 0.63448 0.92049 0.0
C766 C 0.65392 0.62053 0.93844 0.0
C767 C 0.62858 0.63447 0.9437 0.0
C768 C 0.67296 0.66228 0.90942 0.0
H769 H 0.60675 0.6731 0.93563 0.0
C770 C 0.59815 0.73869 0.93129 0.0
O771 O 0.57375 0.76461 0.81155 0.0
O772 O 0.57033 0.71965 0.82283 0.0
N773 N 0.68695 0.70242 0.87472 0.0
C774 C 0.70482 0.71747 0.8506 0.0
C775 C 0.73042 0.70589 0.83915 0.0
C776 C 0.7374 0.6791 0.85291 0.0
C777 C 0.71859 0.664 0.87771 0.0
C778 C 0.69357 0.67675 0.8886 0.0
H779 H 0.69957 0.73814 0.8403 0.0
O780 O 0.62133 0.72858 0.78394 0.0
O781 O 0.63054 0.71112 0.84733 0.0
O782 O 0.63418 0.77181 0.84344 0.0
O783 O 0.66185 0.7526 0.89209 0.0
C784 C 0.7231 0.63638 0.89031 0.0
C785 C 0.70209 0.62164 0.91171 0.0
H786 H 0.65564 0.59901 0.94767 0.0
H787 H 0.61105 0.62382 0.95742 0.0
H788 H 0.74476 0.71758 0.8198 0.0
H789 H 0.75701 0.67011 0.84353 0.0
H790 H 0.74231 0.62599 0.88253 0.0
H791 H 0.70553 0.60018 0.92014 0.0
Mn792 Mn 0.27559 0.60578 0.84304 0.0
Mn793 Mn 0.30274 0.65538 0.90719 0.0
C794 C 0.30609 0.63753 0.81257 0.0
C795 C 0.27556 0.56141 0.81269 0.0
C796 C 0.24339 0.65578 0.87536 0.0
O797 O 0.26849 0.59075 0.90295 0.0
O798 O 0.29274 0.62215 0.94048 0.0
C799 C 0.35423 0.62907 0.93829 0.0
N800 N 0.34092 0.65112 0.9208 0.0
C801 C 0.38135 0.67978 0.92748 0.0
C802 C 0.39553 0.65739 0.94573 0.0
C803 C 0.38193 0.63191 0.95104 0.0
C804 C 0.35364 0.67587 0.91618 0.0
H805 H 0.34366 0.6096 0.94273 0.0
C806 C 0.2789 0.59972 0.93753 0.0
O807 O 0.25305 0.57566 0.81746 0.0
O808 O 0.29817 0.57239 0.82732 0.0
N809 N 0.31344 0.68931 0.88104 0.0
C810 C 0.29823 0.70693 0.85664 0.0
C811 C 0.3095 0.73262 0.84507 0.0
C812 C 0.33615 0.73994 0.85901 0.0
C813 C 0.35141 0.72138 0.88409 0.0
C814 C 0.33896 0.69626 0.89508 0.0
H815 H 0.27767 0.70141 0.84621 0.0
O816 O 0.28812 0.62384 0.79038 0.0
O817 O 0.30583 0.63274 0.85377 0.0
O818 O 0.24489 0.63502 0.85056 0.0
O819 O 0.26355 0.6637 0.89814 0.0
C820 C 0.37892 0.72624 0.8969 0.0
C821 C 0.39387 0.70547 0.91861 0.0
H822 H 0.41699 0.65939 0.95515 0.0
H823 H 0.39277 0.61454 0.96499 0.0
H824 H 0.29768 0.74676 0.82551 0.0
H825 H 0.3449 0.75962 0.84954 0.0
H826 H 0.38907 0.74554 0.88905 0.0
H827 H 0.41525 0.70917 0.9272 0.0
Mn828 Mn 0.40959 0.27413 0.83215 0.0
Mn829 Mn 0.35549 0.29379 0.89441 0.0
C830 C 0.37773 0.30548 0.80435 0.0
C831 C 0.45476 0.2771 0.80549 0.0
C832 C 0.36012 0.23755 0.85255 0.0
O833 O 0.42252 0.26378 0.89228 0.0
O834 O 0.38713 0.28202 0.92981 0.0
C835 C 0.37756 0.34299 0.93892 0.0
N836 N 0.35723 0.33061 0.91588 0.0
C837 C 0.32653 0.36926 0.92612 0.0
C838 C 0.34711 0.38246 0.95015 0.0
C839 C 0.37279 0.36934 0.95631 0.0
C840 C 0.33233 0.3429 0.91006 0.0
H841 H 0.39713 0.33272 0.94415 0.0
C842 C 0.41068 0.27012 0.92725 0.0
O843 O 0.44103 0.25415 0.80619 0.0
O844 O 0.4428 0.29855 0.82249 0.0
N845 N 0.32279 0.30559 0.86567 0.0
C846 C 0.30739 0.29204 0.83602 0.0
C847 C 0.28203 0.30346 0.82293 0.0
C848 C 0.27274 0.32846 0.84081 0.0
C849 C 0.28904 0.34202 0.87128 0.0
C850 C 0.31399 0.32957 0.88327 0.0
H851 H 0.31442 0.2727 0.82259 0.0
O852 O 0.39285 0.28977 0.78026 0.0
O853 O 0.3809 0.30216 0.84552 0.0
O854 O 0.38202 0.24178 0.83131 0.0
O855 O 0.34951 0.25543 0.87713 0.0
C856 C 0.28218 0.36802 0.8887 0.0
C857 C 0.30091 0.38162 0.9161 0.0
H858 H 0.34362 0.40287 0.96335 0.0
H859 H 0.38885 0.37951 0.97443 0.0
H860 H 0.26965 0.29299 0.79922 0.0
H861 H 0.25333 0.33734 0.83026 0.0
H862 H 0.26296 0.37814 0.88017 0.0
H863 H 0.29574 0.40195 0.92827 0.0
Mn864 Mn 0.27103 0.41122 0.33338 0.0
Mn865 Mn 0.29232 0.35748 0.3949 0.0
C866 C 0.30388 0.38083 0.30496 0.0
C867 C 0.2724 0.45752 0.31111 0.0
C868 C 0.23597 0.36083 0.35253 0.0
O869 O 0.2592 0.42239 0.39367 0.0
O870 O 0.28081 0.3889 0.43098 0.0
C871 C 0.34179 0.37962 0.43859 0.0
N872 N 0.32932 0.35934 0.41554 0.0
C873 C 0.36814 0.32873 0.42486 0.0
C874 C 0.38144 0.34927 0.44885 0.0
C875 C 0.36828 0.37488 0.45548 0.0
C876 C 0.34165 0.33451 0.4093 0.0
H877 H 0.33148 0.39914 0.4442 0.0
C878 C 0.26717 0.41149 0.42854 0.0
O879 O 0.25013 0.44277 0.30891 0.0
O880 O 0.29412 0.44562 0.32738 0.0
N881 N 0.30404 0.325 0.36547 0.0
C882 C 0.29031 0.30959 0.33603 0.0
C883 C 0.30169 0.28428 0.32263 0.0
C884 C 0.32688 0.27505 0.33993 0.0
C885 C 0.34064 0.29134 0.37019 0.0
C886 C 0.3282 0.31624 0.38255 0.0
H887 H 0.27081 0.31654 0.32304 0.0
O888 O 0.28831 0.39631 0.28116 0.0
O889 O 0.29991 0.38323 0.34613 0.0
O890 O 0.24006 0.38219 0.32994 0.0
O891 O 0.25374 0.35136 0.37844 0.0
C892 C 0.36677 0.28451 0.38713 0.0
C893 C 0.38051 0.30319 0.41443 0.0
H894 H 0.40195 0.3458 0.46168 0.0
H895 H 0.37852 0.3909 0.4736 0.0
H896 H 0.29104 0.27185 0.29918 0.0
H897 H 0.33573 0.25568 0.32915 0.0
H898 H 0.37687 0.26533 0.3783 0.0
H899 H 0.40093 0.29805 0.42622 0.0
Mn900 Mn 0.60907 0.27378 0.32586 0.0
Mn901 Mn 0.6562 0.30364 0.39079 0.0
C902 C 0.64275 0.30262 0.29738 0.0
C903 C 0.56491 0.27435 0.29507 0.0
C904 C 0.65907 0.24337 0.36224 0.0
O905 O 0.59322 0.26708 0.38569 0.0
O906 O 0.62289 0.2933 0.4234 0.0
C907 C 0.62442 0.35453 0.40988 0.0
N908 N 0.64784 0.34221 0.39494 0.0
C909 C 0.66837 0.38632 0.379 0.0
C910 C 0.64453 0.3995 0.3944 0.0
C911 C 0.62244 0.38352 0.40981 0.0
C912 C 0.66901 0.35736 0.37938 0.0
H913 H 0.60737 0.34232 0.42161 0.0
C914 C 0.60123 0.27836 0.42028 0.0
O915 O 0.57879 0.25154 0.29972 0.0
O916 O 0.57639 0.29679 0.30925 0.0
N917 N 0.69015 0.31509 0.36502 0.0
C918 C 0.71291 0.29931 0.35656 0.0
C919 C 0.7375 0.31213 0.3433 0.0
C920 C 0.7387 0.34109 0.33999 0.0
C921 C 0.71547 0.35698 0.35094 0.0
C922 C 0.69165 0.34303 0.36442 0.0
H923 H 0.71233 0.27708 0.35982 0.0
O924 O 0.62885 0.28604 0.27306 0.0
O925 O 0.63569 0.30275 0.33719 0.0
O926 O 0.63864 0.24409 0.33648 0.0
O927 O 0.66622 0.26388 0.38573 0.0
C928 C 0.71524 0.38612 0.34998 0.0
C929 C 0.6916 0.40078 0.36364 0.0
H930 H 0.64299 0.42186 0.39465 0.0
H931 H 0.60395 0.39353 0.42168 0.0
H932 H 0.7555 0.29973 0.33572 0.0
H933 H 0.75764 0.35092 0.32956 0.0
H934 H 0.73322 0.39747 0.33918 0.0
H935 H 0.6917 0.42319 0.36288 0.0
Mn936 Mn 0.74711 0.60863 0.32503 0.0
Mn937 Mn 0.71449 0.65414 0.38975 0.0
C938 C 0.71801 0.6422 0.29612 0.0
C939 C 0.74831 0.56453 0.29392 0.0
C940 C 0.77536 0.65853 0.36511 0.0
O941 O 0.75263 0.59209 0.38461 0.0
O942 O 0.72408 0.62021 0.42118 0.0
C943 C 0.6634 0.62162 0.4033 0.0
N944 N 0.67592 0.64551 0.39086 0.0
C945 C 0.63207 0.66655 0.37447 0.0
C946 C 0.61868 0.64223 0.38736 0.0
C947 C 0.63444 0.61964 0.40169 0.0
C948 C 0.661 0.66716 0.37621 0.0
H949 H 0.67544 0.60419 0.41422 0.0
C950 C 0.73961 0.59893 0.4183 0.0
O951 O 0.77069 0.57891 0.29955 0.0
O952 O 0.72533 0.5757 0.30663 0.0
N953 N 0.70348 0.68859 0.36492 0.0
C954 C 0.71937 0.71147 0.35808 0.0
C955 C 0.70672 0.73641 0.34584 0.0
C956 C 0.67781 0.73782 0.34188 0.0
C957 C 0.66178 0.71439 0.35095 0.0
C958 C 0.67555 0.69019 0.3634 0.0
H959 H 0.74154 0.71075 0.36195 0.0
O960 O 0.73539 0.62898 0.27215 0.0
O961 O 0.71728 0.63454 0.33557 0.0
O962 O 0.77571 0.63871 0.33822 0.0
O963 O 0.75422 0.66459 0.388 0.0
C964 C 0.63266 0.71428 0.34896 0.0
C965 C 0.61783 0.69027 0.36028 0.0
H966 H 0.59634 0.6407 0.38645 0.0
H967 H 0.62427 0.60077 0.41158 0.0
H968 H 0.71922 0.75453 0.33963 0.0
H969 H 0.66813 0.75705 0.33227 0.0
H970 H 0.62147 0.7326 0.33905 0.0
H971 H 0.59544 0.69042 0.3586 0.0
Mn972 Mn 0.40968 0.74988 0.33162 0.0
Mn973 Mn 0.36401 0.7166 0.39497 0.0
C974 C 0.37647 0.72106 0.30153 0.0
C975 C 0.45411 0.75075 0.30164 0.0
C976 C 0.35932 0.77767 0.37132 0.0
O977 O 0.42565 0.75517 0.39155 0.0
O978 O 0.39771 0.72601 0.42706 0.0
C979 C 0.3968 0.66551 0.4077 0.0
N980 N 0.37287 0.67806 0.39534 0.0
C981 C 0.35212 0.63426 0.37802 0.0
C982 C 0.37648 0.62085 0.39082 0.0
C983 C 0.39895 0.63657 0.40557 0.0
C984 C 0.35136 0.66319 0.38023 0.0
H985 H 0.41413 0.67752 0.41898 0.0
C986 C 0.41879 0.7418 0.42485 0.0
O987 O 0.43985 0.7733 0.30696 0.0
O988 O 0.44263 0.7279 0.31401 0.0
N989 N 0.32973 0.7057 0.36955 0.0
C990 C 0.30676 0.72156 0.36296 0.0
C991 C 0.28191 0.70893 0.3504 0.0
C992 C 0.28067 0.68005 0.34592 0.0
C993 C 0.30417 0.66402 0.35478 0.0
C994 C 0.32829 0.67777 0.36752 0.0
H995 H 0.30734 0.74371 0.36728 0.0
O996 O 0.38991 0.73853 0.27808 0.0
O997 O 0.38378 0.72005 0.34112 0.0
O998 O 0.37929 0.7784 0.34465 0.0
O999 O 0.35339 0.75631 0.39379 0.0
C1000 C 0.30443 0.63491 0.3524 0.0
C1001 C 0.3285 0.62006 0.36353 0.0
H1002 H 0.37813 0.59852 0.38954 0.0
H1003 H 0.41785 0.62638 0.41539 0.0
H1004 H 0.26373 0.72143 0.34437 0.0
H1005 H 0.2615 0.67038 0.33611 0.0
H1006 H 0.28616 0.62372 0.34233 0.0
H1007 H 0.32845 0.59768 0.36151 0.0
Mn1008 Mn 0.27147 0.60981 0.20039 0.0
Mn1009 Mn 0.30165 0.65577 0.13389 0.0
C1010 C 0.2996 0.64451 0.22769 0.0
C1011 C 0.27215 0.56628 0.23323 0.0
C1012 C 0.24096 0.65846 0.1601 0.0
O1013 O 0.26593 0.59239 0.1414 0.0
O1014 O 0.29249 0.62145 0.10313 0.0
C1015 C 0.35342 0.62453 0.1187 0.0
N1016 N 0.34042 0.6481 0.13157 0.0
C1017 C 0.38388 0.6701 0.1471 0.0
C1018 C 0.39775 0.64612 0.13378 0.0
C1019 C 0.38244 0.62321 0.11963 0.0
C1020 C 0.35493 0.67007 0.14594 0.0
H1021 H 0.34172 0.60685 0.10795 0.0
C1022 C 0.2779 0.5996 0.10698 0.0
O1023 O 0.24925 0.57983 0.22738 0.0
O1024 O 0.29464 0.57783 0.21943 0.0
N1025 N 0.31204 0.69055 0.15815 0.0
C1026 C 0.29564 0.71303 0.1655 0.0
C1027 C 0.30776 0.73822 0.17767 0.0
C1028 C 0.33666 0.74026 0.18109 0.0
C1029 C 0.35319 0.71722 0.17152 0.0
C1030 C 0.33993 0.69276 0.15912 0.0
H1031 H 0.27345 0.7118 0.16214 0.0
O1032 O 0.28286 0.63109 0.25237 0.0
O1033 O 0.30026 0.63645 0.18841 0.0
O1034 O 0.24159 0.63874 0.18714 0.0
O1035 O 0.26167 0.6652 0.13682 0.0
C1036 C 0.38232 0.71772 0.17303 0.0
C1037 C 0.39765 0.69409 0.16122 0.0
H1038 H 0.42013 0.64508 0.13422 0.0
H1039 H 0.39298 0.6046 0.1094 0.0
H1040 H 0.29487 0.75603 0.18429 0.0
H1041 H 0.34594 0.75967 0.19068 0.0
H1042 H 0.39314 0.73624 0.18297 0.0
H1043 H 0.42003 0.69472 0.1625 0.0
Mn1044 Mn 0.41008 0.27277 0.19405 0.0
Mn1045 Mn 0.3558 0.29363 0.1332 0.0
C1046 C 0.37941 0.30522 0.22284 0.0
C1047 C 0.45633 0.27443 0.21652 0.0
C1048 C 0.35984 0.23727 0.17527 0.0
O1049 O 0.42132 0.26144 0.13351 0.0
O1050 O 0.38708 0.28227 0.09675 0.0
C1051 C 0.37747 0.3432 0.08925 0.0
N1052 N 0.35737 0.33064 0.11252 0.0
C1053 C 0.32657 0.36935 0.10367 0.0
C1054 C 0.34692 0.38274 0.07943 0.0
C1055 C 0.37253 0.36968 0.07247 0.0
C1056 C 0.33254 0.34288 0.11913 0.0
H1057 H 0.39699 0.33297 0.08338 0.0
C1058 C 0.40999 0.26916 0.09882 0.0
O1059 O 0.44178 0.25202 0.21826 0.0
O1060 O 0.44428 0.29615 0.20048 0.0
N1061 N 0.32343 0.30522 0.16303 0.0
C1062 C 0.30823 0.2914 0.19262 0.0
C1063 C 0.28296 0.30268 0.20634 0.0
C1064 C 0.27354 0.32785 0.18922 0.0
C1065 C 0.28961 0.34169 0.15879 0.0
C1066 C 0.31449 0.32936 0.14611 0.0
H1067 H 0.31533 0.27192 0.20547 0.0
O1068 O 0.39501 0.28966 0.24648 0.0
O1069 O 0.38178 0.30141 0.18163 0.0
O1070 O 0.38145 0.24144 0.19725 0.0
O1071 O 0.34994 0.25502 0.14974 0.0
C1072 C 0.28258 0.3678 0.14196 0.0
C1073 C 0.30104 0.38162 0.11444 0.0
H1074 H 0.34329 0.40324 0.06667 0.0
H1075 H 0.38841 0.38 0.05418 0.0
H1076 H 0.2707 0.29196 0.22991 0.0
H1077 H 0.25419 0.33661 0.20025 0.0
H1078 H 0.26341 0.37782 0.15104 0.0
H1079 H 0.29575 0.40203 0.10273 0.0
Mn1080 Mn 0.74834 0.41053 0.18828 0.0
Mn1081 Mn 0.71533 0.36396 0.12612 0.0
C1082 C 0.71867 0.37844 0.21922 0.0
C1083 C 0.74934 0.45551 0.21633 0.0
C1084 C 0.77593 0.35885 0.15239 0.0
O1085 O 0.75495 0.42495 0.12769 0.0
O1086 O 0.72606 0.39662 0.09233 0.0
C1087 C 0.66524 0.39749 0.10929 0.0
N1088 N 0.67702 0.37368 0.12376 0.0
C1089 C 0.63254 0.35465 0.14152 0.0
C1090 C 0.6199 0.37891 0.12661 0.0
C1091 C 0.63634 0.40046 0.11055 0.0
C1092 C 0.66144 0.35306 0.14006 0.0
H1093 H 0.67781 0.41412 0.09701 0.0
C1094 C 0.74231 0.41738 0.09404 0.0
O1095 O 0.77178 0.4409 0.21236 0.0
O1096 O 0.72656 0.44415 0.2034 0.0
N1097 N 0.70323 0.33056 0.15291 0.0
C1098 C 0.71836 0.30725 0.16065 0.0
C1099 C 0.70495 0.28307 0.17433 0.0
C1100 C 0.67603 0.28283 0.17872 0.0
C1101 C 0.66076 0.30659 0.16847 0.0
C1102 C 0.67527 0.32998 0.15458 0.0
H1103 H 0.74052 0.30708 0.15645 0.0
O1104 O 0.73597 0.39225 0.24243 0.0
O1105 O 0.71828 0.3848 0.17916 0.0
O1106 O 0.7766 0.37946 0.17792 0.0
O1107 O 0.75478 0.35261 0.12961 0.0
C1108 C 0.63166 0.30774 0.17039 0.0
C1109 C 0.61757 0.33187 0.15736 0.0
H1110 H 0.59761 0.38118 0.12721 0.0
H1111 H 0.62676 0.41927 0.09905 0.0
H1112 H 0.71686 0.26465 0.18134 0.0
H1113 H 0.66576 0.26418 0.18941 0.0
H1114 H 0.61989 0.29009 0.18143 0.0
H1115 H 0.59519 0.33249 0.15889 0.0
Mn1116 Mn 0.60753 0.74849 0.19408 0.0
Mn1117 Mn 0.65269 0.71552 0.12928 0.0
C1118 C 0.64092 0.71921 0.22298 0.0
C1119 C 0.56336 0.7498 0.22491 0.0
C1120 C 0.65755 0.7764 0.15387 0.0
O1121 O 0.59105 0.75421 0.13455 0.0
O1122 O 0.61877 0.7253 0.09795 0.0
C1123 C 0.61978 0.66464 0.11603 0.0
N1124 N 0.64379 0.677 0.12831 0.0
C1125 C 0.66451 0.63302 0.14485 0.0
C1126 C 0.64008 0.6198 0.13212 0.0
C1127 C 0.61758 0.63569 0.11779 0.0
C1128 C 0.66534 0.66195 0.14296 0.0
H1129 H 0.60242 0.67679 0.10512 0.0
C1130 C 0.59768 0.74109 0.10086 0.0
O1131 O 0.57783 0.77215 0.21955 0.0
O1132 O 0.57451 0.72681 0.21221 0.0
N1133 N 0.68711 0.7043 0.15398 0.0
C1134 C 0.71013 0.72003 0.1606 0.0
C1135 C 0.735 0.70721 0.17278 0.0
C1136 C 0.73619 0.6783 0.1769 0.0
C1137 C 0.71262 0.66243 0.16803 0.0
C1138 C 0.6885 0.67636 0.15562 0.0
H1139 H 0.70957 0.7422 0.15661 0.0
O1140 O 0.62777 0.73664 0.24697 0.0
O1141 O 0.63326 0.71854 0.18353 0.0
O1142 O 0.6378 0.77692 0.18089 0.0
O1143 O 0.66339 0.7552 0.13097 0.0
C1144 C 0.71229 0.63332 0.17017 0.0
C1145 C 0.68815 0.61863 0.15903 0.0
H1146 H 0.63837 0.59746 0.13315 0.0
H1147 H 0.59862 0.62565 0.10803 0.0
H1148 H 0.75323 0.71959 0.17883 0.0
H1149 H 0.75537 0.66849 0.18646 0.0
H1150 H 0.73053 0.622 0.18008 0.0
H1151 H 0.68813 0.59625 0.16083 0.0
C1152 C 0.33652 0.1983 0.1398 0.0
C1153 C 0.34495 0.21076 0.17789 0.0
H1154 H 0.30904 0.16979 0.10983 0.0
C1155 C 0.33472 0.20057 0.21669 0.0
H1156 H 0.34417 0.2058 0.10954 0.0
C1157 C 0.31439 0.17976 0.21687 0.0
C1158 C 0.30432 0.16914 0.17825 0.0
H1159 H 0.3407 0.2102 0.24639 0.0
H1160 H 0.30498 0.17372 0.24669 0.0
C1161 C 0.31647 0.17771 0.13998 0.0
C1162 C 0.8389 0.31633 0.18495 0.0
C1163 C 0.84048 0.29741 0.15111 0.0
H1164 H 0.81712 0.35092 0.21202 0.0
C1165 C 0.82286 0.30115 0.11593 0.0
H1166 H 0.85215 0.314 0.21248 0.0
C1167 C 0.80294 0.32197 0.11569 0.0
C1168 C 0.80006 0.33986 0.15051 0.0
H1169 H 0.82378 0.28731 0.08888 0.0
H1170 H 0.78917 0.32345 0.08861 0.0
C1171 C 0.81883 0.33744 0.18464 0.0
C1172 C 0.67802 0.82039 0.18371 0.0
C1173 C 0.67616 0.80075 0.15068 0.0
H1174 H 0.70058 0.85473 0.20997 0.0
C1175 C 0.6942 0.80309 0.11595 0.0
H1176 H 0.66442 0.81916 0.21099 0.0
C1177 C 0.71464 0.82338 0.11534 0.0
C1178 C 0.71781 0.8419 0.14953 0.0
H1179 H 0.69317 0.78863 0.08968 0.0
H1180 H 0.72868 0.82385 0.08851 0.0
C1181 C 0.6987 0.8408 0.18316 0.0
C1182 C 0.21145 0.69244 0.12117 0.0
C1183 C 0.2157 0.67587 0.15718 0.0
H1184 H 0.18841 0.72507 0.09254 0.0
C1185 C 0.19707 0.67819 0.19148 0.0
H1186 H 0.2251 0.69095 0.09395 0.0
C1187 C 0.17584 0.69811 0.19084 0.0
C1188 C 0.17289 0.71591 0.1558 0.0
H1189 H 0.1998 0.6657 0.21975 0.0
H1190 H 0.16284 0.70058 0.21861 0.0
C1191 C 0.19031 0.71205 0.12041 0.0
C1192 C 0.30156 0.82385 0.40998 0.0
C1193 C 0.29758 0.84185 0.37535 0.0
H1194 H 0.32422 0.78997 0.4361 0.0
C1195 C 0.31649 0.84092 0.34144 0.0
H1196 H 0.2877 0.82425 0.43703 0.0
C1197 C 0.33776 0.82105 0.34102 0.0
C1198 C 0.34041 0.80183 0.37448 0.0
H1199 H 0.31398 0.85447 0.3143 0.0
H1200 H 0.35115 0.81981 0.31348 0.0
C1201 C 0.3226 0.80413 0.40952 0.0
C1202 C 0.19764 0.33655 0.38814 0.0
C1203 C 0.20965 0.34558 0.35003 0.0
H1204 H 0.16976 0.30836 0.41795 0.0
C1205 C 0.19919 0.33569 0.31118 0.0
H1206 H 0.2053 0.34395 0.41847 0.0
C1207 C 0.17861 0.31512 0.31089 0.0
C1208 C 0.16848 0.30448 0.34945 0.0
H1209 H 0.20844 0.34214 0.28143 0.0
H1210 H 0.17236 0.30602 0.28093 0.0
C1211 C 0.1773 0.31624 0.38785 0.0
C1212 C 0.69835 0.17858 0.32855 0.0
C1213 C 0.71603 0.17482 0.36354 0.0
H1214 H 0.66617 0.20338 0.30061 0.0
C1215 C 0.71236 0.19174 0.39957 0.0
H1216 H 0.70068 0.16597 0.30032 0.0
C1217 C 0.69304 0.21312 0.39961 0.0
C1218 C 0.67652 0.21811 0.36381 0.0
H1219 H 0.72527 0.18919 0.42746 0.0
H1220 H 0.69164 0.22631 0.42739 0.0
C1221 C 0.67866 0.20005 0.32874 0.0
C1222 C 0.80275 0.69457 0.40326 0.0
C1223 C 0.79986 0.67693 0.36814 0.0
H1224 H 0.82412 0.72854 0.43105 0.0
C1225 C 0.81909 0.679 0.33461 0.0
H1226 H 0.78858 0.69335 0.42987 0.0
C1227 C 0.83965 0.69953 0.3351 0.0
C1228 C 0.84134 0.71824 0.36921 0.0
H1229 H 0.81742 0.66571 0.30701 0.0
H1230 H 0.85325 0.70159 0.30794 0.0
C1231 C 0.82322 0.71482 0.40386 0.0
C1232 C 0.71226 0.82024 0.90414 0.0
C1233 C 0.71568 0.83756 0.86877 0.0
H1234 H 0.68995 0.787 0.93228 0.0
C1235 C 0.69637 0.83587 0.83526 0.0
H1236 H 0.72644 0.82122 0.93076 0.0
C1237 C 0.67524 0.81593 0.83598 0.0
C1238 C 0.67308 0.79744 0.87028 0.0
H1239 H 0.69842 0.84896 0.8075 0.0
H1240 H 0.66164 0.81404 0.80878 0.0
C1241 C 0.69123 0.80057 0.90495 0.0
C1242 C 0.19345 0.71135 0.9106 0.0
C1243 C 0.17517 0.71308 0.87605 0.0
H1244 H 0.22869 0.69166 0.93778 0.0
C1245 C 0.17741 0.69337 0.84319 0.0
H1246 H 0.19215 0.7259 0.93673 0.0
C1247 C 0.19868 0.67353 0.84367 0.0
C1248 C 0.21802 0.6731 0.87705 0.0
H1249 H 0.16365 0.69416 0.81604 0.0
H1250 H 0.20081 0.65955 0.81697 0.0
C1251 C 0.21449 0.69164 0.91114 0.0
C1252 C 0.33765 0.19853 0.88901 0.0
C1253 C 0.34592 0.21066 0.8506 0.0
H1254 H 0.31063 0.16988 0.91964 0.0
C1255 C 0.33609 0.19973 0.81205 0.0
H1256 H 0.34501 0.20661 0.9191 0.0
C1257 C 0.31622 0.1785 0.81236 0.0
C1258 C 0.30622 0.16821 0.85122 0.0
H1259 H 0.34196 0.20909 0.7821 0.0
H1260 H 0.30705 0.17186 0.78264 0.0
C1261 C 0.31803 0.17752 0.88931 0.0
C1262 C 0.83546 0.31538 0.80742 0.0
C1263 C 0.84507 0.30392 0.84577 0.0
H1264 H 0.80666 0.34376 0.77847 0.0
C1265 C 0.83672 0.31576 0.8844 0.0
H1266 H 0.84141 0.30632 0.77728 0.0
C1267 C 0.8172 0.33691 0.88507 0.0
C1268 C 0.80554 0.34671 0.84713 0.0
H1269 H 0.84396 0.30736 0.91436 0.0
H1270 H 0.80973 0.34429 0.91553 0.0
C1271 C 0.81569 0.33676 0.80811 0.0
C1272 C 0.67591 0.19887 0.62859 0.0
C1273 C 0.66663 0.21069 0.66669 0.0
H1274 H 0.70342 0.17015 0.5991 0.0
C1275 C 0.67516 0.19914 0.70559 0.0
H1276 H 0.66951 0.20736 0.59824 0.0
C1277 C 0.69484 0.17767 0.70612 0.0
C1278 C 0.70591 0.1677 0.66773 0.0
H1279 H 0.66845 0.20819 0.73536 0.0
H1280 H 0.70304 0.1706 0.73627 0.0
C1281 C 0.69527 0.17758 0.62911 0.0
C1282 C 0.81571 0.67429 0.68169 0.0
C1283 C 0.79649 0.67364 0.64817 0.0
H1284 H 0.85061 0.69507 0.70926 0.0
C1285 C 0.80007 0.69197 0.61384 0.0
H1286 H 0.81354 0.66047 0.70857 0.0
C1287 C 0.82106 0.71168 0.61425 0.0
C1288 C 0.83923 0.71361 0.64889 0.0
H1289 H 0.78597 0.69181 0.58707 0.0
H1290 H 0.82241 0.72607 0.58793 0.0
C1291 C 0.83694 0.69412 0.68203 0.0
C1292 C 0.3174 0.83588 0.68933 0.0
C1293 C 0.2982 0.8376 0.65568 0.0
H1294 H 0.35209 0.81402 0.71602 0.0
C1295 C 0.30179 0.82033 0.62027 0.0
H1296 H 0.3152 0.84891 0.71713 0.0
C1297 C 0.32288 0.80068 0.61954 0.0
C1298 C 0.34093 0.7975 0.65436 0.0
H1299 H 0.28768 0.82134 0.59355 0.0
H1300 H 0.32429 0.78714 0.59217 0.0
C1301 C 0.33858 0.81594 0.68871 0.0
C1302 C 0.17958 0.31323 0.71556 0.0
C1303 C 0.16958 0.30285 0.67674 0.0
H1304 H 0.20861 0.34083 0.7456 0.0
C1305 C 0.1774 0.31576 0.63872 0.0
H1306 H 0.17405 0.30328 0.74521 0.0
C1307 C 0.19674 0.33703 0.63896 0.0
C1308 C 0.20876 0.34581 0.67721 0.0
H1309 H 0.1699 0.30813 0.60844 0.0
H1310 H 0.20386 0.34527 0.60884 0.0
C1311 C 0.19922 0.33468 0.71579 0.0
C1312 C 0.23231 0.07657 0.03761 0.0
C1313 C 0.25391 0.08899 0.06048 0.0
H1314 H 0.21406 0.07037 0.97628 0.0
C1315 C 0.27734 0.09837 0.03842 0.0
H1316 H 0.21372 0.06991 0.0539 0.0
C1317 C 0.27753 0.09867 0.99391 0.0
C1318 C 0.2543 0.08955 0.97114 0.0
H1319 H 0.29386 0.10877 0.05535 0.0
H1320 H 0.29423 0.10919 0.97761 0.0
C1321 C 0.23248 0.07688 0.99316 0.0
C1322 C 0.91877 0.27126 0.98306 0.0
C1323 C 0.92568 0.2478 0.959 0.0
H1324 H 0.91084 0.28712 0.04552 0.0
C1325 C 0.93726 0.22477 0.97952 0.0
H1326 H 0.90916 0.28897 0.96791 0.0
C1327 C 0.93802 0.22361 0.02388 0.0
C1328 C 0.92739 0.24557 0.04808 0.0
H1329 H 0.94216 0.20624 0.96162 0.0
H1330 H 0.94347 0.20423 0.03905 0.0
C1331 C 0.91975 0.2702 0.02751 0.0
C1332 C 0.79525 0.93947 0.98 0.0
C1333 C 0.77198 0.92984 0.95781 0.0
H1334 H 0.81478 0.94341 0.04071 0.0
C1335 C 0.7475 0.92453 0.98039 0.0
H1336 H 0.81446 0.94333 0.96329 0.0
C1337 C 0.7477 0.92451 0.02496 0.0
C1338 C 0.77236 0.92992 0.04702 0.0
H1339 H 0.72949 0.9165 0.964 0.0
H1340 H 0.72982 0.91659 0.04176 0.0
C1341 C 0.79545 0.93946 0.02438 0.0
C1342 C 0.08737 0.74406 0.98873 0.0
C1343 C 0.08167 0.7683 0.96571 0.0
H1344 H 0.09647 0.72712 0.05022 0.0
C1345 C 0.07242 0.79186 0.98763 0.0
H1346 H 0.09507 0.72583 0.97252 0.0
C1347 C 0.07335 0.79264 0.03194 0.0
C1348 C 0.08333 0.7698 0.05479 0.0
H1349 H 0.06823 0.81087 0.97054 0.0
H1350 H 0.06975 0.81219 0.04788 0.0
C1351 C 0.08825 0.74483 0.03326 0.0
C1352 C 0.26558 0.92385 0.49948 0.0
C1353 C 0.24089 0.92886 0.47724 0.0
H1354 H 0.28382 0.91651 0.5606 0.0
C1355 C 0.21766 0.93836 0.49965 0.0
H1356 H 0.28357 0.91596 0.48287 0.0
C1357 C 0.21782 0.93875 0.54404 0.0
C1358 C 0.24117 0.92951 0.56648 0.0
H1359 H 0.19831 0.94199 0.48318 0.0
H1360 H 0.19854 0.94255 0.56061 0.0
C1361 C 0.26574 0.92425 0.54405 0.0
C1362 C 0.10072 0.27387 0.53548 0.0
C1363 C 0.09217 0.25009 0.55741 0.0
H1364 H 0.10963 0.29164 0.47457 0.0
C1365 C 0.07936 0.22863 0.53475 0.0
H1366 H 0.11135 0.29032 0.55223 0.0
C1367 C 0.07823 0.22946 0.49032 0.0
C1368 C 0.09005 0.25168 0.46808 0.0
H1369 H 0.07329 0.2098 0.55092 0.0
H1370 H 0.07144 0.21117 0.47335 0.0
C1371 C 0.09965 0.27467 0.491 0.0
C1372 C 0.73736 0.09314 0.52888 0.0
C1373 C 0.76026 0.08554 0.55369 0.0
H1374 H 0.72281 0.10204 0.466 0.0
C1375 C 0.78339 0.07363 0.53388 0.0
H1376 H 0.7196 0.10297 0.54353 0.0
C1377 C 0.78536 0.07337 0.48962 0.0
C1378 C 0.76409 0.08477 0.46484 0.0
H1379 H 0.80147 0.06812 0.55244 0.0
H1380 H 0.8049 0.06771 0.47514 0.0
C1381 C 0.73921 0.0926 0.48449 0.0
C1382 C 0.94206 0.79255 0.53724 0.0
C1383 C 0.93264 0.7689 0.55867 0.0
H1384 H 0.94491 0.81336 0.4774 0.0
C1385 C 0.92684 0.7449 0.53515 0.0
H1386 H 0.94634 0.81139 0.55471 0.0
C1387 C 0.92606 0.74602 0.49063 0.0
C1388 C 0.93113 0.77113 0.4696 0.0
H1389 H 0.91901 0.7266 0.55098 0.0
H1390 H 0.91778 0.72851 0.4733 0.0
C1391 C 0.9412 0.7937 0.49294 0.0
C1392 C 0.76694 0.59052 0.52646 0.0
C1393 C 0.74186 0.58551 0.54762 0.0
H1394 H 0.78625 0.59757 0.46606 0.0
C1395 C 0.7192 0.57559 0.52438 0.0
H1396 H 0.78451 0.59869 0.54374 0.0
C1397 C 0.72026 0.57473 0.48006 0.0
C1398 C 0.7439 0.58408 0.45851 0.0
H1399 H 0.69957 0.57194 0.54002 0.0
H1400 H 0.70136 0.57057 0.46268 0.0
C1401 C 0.76797 0.58976 0.48193 0.0
C1402 C 0.42745 0.7702 0.48861 0.0
C1403 C 0.43324 0.74605 0.46539 0.0
H1404 H 0.41818 0.78691 0.55019 0.0
C1405 C 0.44242 0.72241 0.48717 0.0
H1406 H 0.41979 0.78849 0.47251 0.0
C1407 C 0.44131 0.72145 0.53146 0.0
C1408 C 0.43127 0.7442 0.55445 0.0
H1409 H 0.44668 0.70347 0.46993 0.0
H1410 H 0.44486 0.70183 0.54725 0.0
C1411 C 0.42643 0.76926 0.53312 0.0
C1412 C 0.28217 0.43737 0.49193 0.0
C1413 C 0.26062 0.42456 0.46945 0.0
H1414 H 0.30024 0.44469 0.55307 0.0
C1415 C 0.23717 0.41549 0.49171 0.0
H1416 H 0.30076 0.44383 0.47546 0.0
C1417 C 0.23688 0.41596 0.53621 0.0
C1418 C 0.26003 0.42552 0.55878 0.0
H1419 H 0.22068 0.40485 0.47507 0.0
H1420 H 0.2202 0.4056 0.5528 0.0
C1421 C 0.28185 0.4379 0.53637 0.0
C1422 C 0.59481 0.24588 0.52606 0.0
C1423 C 0.58838 0.26939 0.55037 0.0
H1424 H 0.60263 0.23 0.46352 0.0
C1425 C 0.57795 0.29295 0.52975 0.0
H1426 H 0.60359 0.22775 0.5412 0.0
C1427 C 0.57766 0.29435 0.48535 0.0
C1428 C 0.58757 0.27211 0.46097 0.0
H1429 H 0.57344 0.31153 0.54777 0.0
H1430 H 0.57298 0.31398 0.47032 0.0
C1431 C 0.59422 0.24717 0.48152 0.0
C1432 C 0.72704 0.43927 0.98418 0.0
C1433 C 0.75022 0.42816 0.96343 0.0
H1434 H 0.70671 0.44549 0.04386 0.0
C1435 C 0.77387 0.42169 0.98737 0.0
H1436 H 0.70838 0.44387 0.96643 0.0
C1437 C 0.77303 0.42292 0.03189 0.0
C1438 C 0.74839 0.43026 0.05273 0.0
H1439 H 0.79171 0.41241 0.97211 0.0
H1440 H 0.79023 0.41449 0.04981 0.0
C1441 C 0.7261 0.44024 0.02855 0.0
C1442 C 0.58851 0.76979 0.0376 0.0
C1443 C 0.58283 0.74561 0.06073 0.0
H1444 H 0.59722 0.78667 0.97596 0.0
C1445 C 0.57329 0.72213 0.03895 0.0
H1446 H 0.59645 0.78796 0.05368 0.0
C1447 C 0.57391 0.72133 0.99462 0.0
C1448 C 0.58383 0.74409 0.97161 0.0
H1449 H 0.56912 0.70315 0.05611 0.0
H1450 H 0.57008 0.70181 0.97874 0.0
C1451 C 0.58905 0.76902 0.99306 0.0
C1452 C 0.29673 0.57519 0.04493 0.0
C1453 C 0.27328 0.58444 0.06711 0.0
H1454 H 0.31657 0.57206 0.98433 0.0
C1455 C 0.24884 0.58976 0.04438 0.0
H1456 H 0.31592 0.57135 0.06174 0.0
C1457 C 0.24922 0.5902 0.99982 0.0
C1458 C 0.27403 0.58523 0.97788 0.0
H1459 H 0.23069 0.59751 0.06075 0.0
H1460 H 0.23132 0.59813 0.98302 0.0
C1461 C 0.29713 0.57567 1.00055 0.0
C1462 C 0.43578 0.28537 0.99117 0.0
C1463 C 0.42364 0.26363 0.96828 0.0
H1464 H 0.44176 0.30366 0.05253 0.0
C1465 C 0.41447 0.2401 0.99032 0.0
H1466 H 0.44225 0.30403 0.9749 0.0
C1467 C 0.41416 0.23989 0.03483 0.0
C1468 C 0.42303 0.2632 0.05765 0.0
H1469 H 0.40429 0.22346 0.97336 0.0
H1470 H 0.40379 0.22308 0.05109 0.0
C1471 C 0.43546 0.28516 0.03564 0.0
C1472 C 0.21402 0.01804 0.25387 0.0
C1473 C 0.23928 0.03079 0.2435 0.0
H1474 H 0.19389 0.98375 0.28447 0.0
C1475 C 0.26404 0.01791 0.25617 0.0
H1476 H 0.19458 0.02755 0.24488 0.0
C1477 C 0.26366 0.993 0.27868 0.0
C1478 C 0.2385 0.98034 0.28959 0.0
H1479 H 0.28388 0.02715 0.24883 0.0
H1480 H 0.2832 0.98373 0.28773 0.0
C1481 C 0.21363 0.9931 0.27688 0.0
C1482 C 0.99233 0.26465 0.2492 0.0
C1483 C 0.98006 0.2396 0.23672 0.0
H1484 H 0.026 0.28457 0.28083 0.0
C1485 C 0.99297 0.21461 0.2485 0.0
H1486 H 0.98292 0.28428 0.24093 0.0
C1487 C 0.01768 0.21476 0.2721 0.0
C1488 C 0.03007 0.23991 0.28401 0.0
H1489 H 0.98392 0.19494 0.23972 0.0
H1490 H 0.02732 0.19523 0.28028 0.0
C1491 C 0.01703 0.2648 0.27232 0.0
C1492 C 0.79722 0.02053 0.26861 0.0
C1493 C 0.77195 0.03344 0.27871 0.0
H1494 H 0.81751 0.98613 0.23871 0.0
C1495 C 0.74722 0.02076 0.26563 0.0
H1496 H 0.81667 0.02983 0.27793 0.0
C1497 C 0.7477 0.99566 0.24333 0.0
C1498 C 0.77295 0.98279 0.23305 0.0
H1499 H 0.7274 0.03017 0.27275 0.0
H1500 H 0.72824 0.98635 0.2341 0.0
C1501 C 0.79772 0.99557 0.24583 0.0
C1502 C 0.01939 0.74873 0.25135 0.0
C1503 C 0.03252 0.77357 0.23989 0.0
H1504 H 0.9845 0.7295 0.2811 0.0
C1505 C 0.01982 0.79877 0.25097 0.0
H1506 H 0.02862 0.72895 0.24343 0.0
C1507 C 0.99465 0.79909 0.27317 0.0
C1508 C 0.98146 0.77421 0.28438 0.0
H1509 H 0.02947 0.81829 0.24288 0.0
H1510 H 0.98538 0.81884 0.28114 0.0
C1511 C 0.9941 0.74904 0.27307 0.0
C1512 C 0.79475 0.98802 0.75877 0.0
C1513 C 0.76986 0.975 0.77048 0.0
H1514 H 0.81394 0.02372 0.73085 0.0
C1515 C 0.74472 0.9884 0.76163 0.0
H1516 H 0.81447 0.97815 0.76496 0.0
C1517 C 0.74444 0.01445 0.74236 0.0
C1518 C 0.76928 0.02766 0.73104 0.0
H1519 H 0.72518 0.97894 0.77012 0.0
H1520 H 0.72467 0.02434 0.73659 0.0
C1521 C 0.79446 0.01405 0.73905 0.0
C1522 C 0.99422 0.78768 0.75256 0.0
C1523 C 0.98075 0.76272 0.74279 0.0
H1524 H 0.03001 0.80726 0.77884 0.0
C1525 C 0.99406 0.73762 0.7526 0.0
H1526 H 0.98457 0.8074 0.74554 0.0
C1527 C 0.02032 0.73753 0.77162 0.0
C1528 C 0.03369 0.76255 0.7815 0.0
H1529 H 0.98423 0.71803 0.74546 0.0
H1530 H 0.03008 0.71789 0.77871 0.0
C1531 C 0.0203 0.7876 0.77177 0.0
C1532 C 0.26826 0.988 0.76411 0.0
C1533 C 0.24319 0.97467 0.75475 0.0
H1534 H 0.28813 0.02379 0.78978 0.0
C1535 C 0.21822 0.98763 0.76645 0.0
H1536 H 0.28785 0.97858 0.75569 0.0
C1537 C 0.21837 0.01356 0.78653 0.0
C1538 C 0.24348 0.02713 0.79491 0.0
H1539 H 0.19855 0.97782 0.75991 0.0
H1540 H 0.19884 0.02323 0.79456 0.0
C1541 C 0.2684 0.01394 0.78374 0.0
C1542 C 0.99343 0.26012 0.76617 0.0
C1543 C 0.9804 0.23521 0.7774 0.0
H1544 H 0.02846 0.27976 0.73834 0.0
C1545 C 0.99366 0.21005 0.76766 0.0
H1546 H 0.98384 0.27989 0.77305 0.0
C1547 C 0.0195 0.20998 0.747 0.0
C1548 C 0.0325 0.23506 0.73625 0.0
H1549 H 0.98402 0.19052 0.77563 0.0
H1550 H 0.02946 0.1904 0.74012 0.0
C1551 C 0.01909 0.26004 0.74608 0.0
C1552 C 0.7139 0.52204 0.7466 0.0
C1553 C 0.73872 0.53515 0.73476 0.0
H1554 H 0.69499 0.48725 0.77774 0.0
C1555 C 0.76394 0.52282 0.74634 0.0
H1556 H 0.69411 0.53114 0.73845 0.0
C1557 C 0.76443 0.49786 0.76869 0.0
C1558 C 0.73971 0.48462 0.78046 0.0
H1559 H 0.78345 0.53239 0.73795 0.0
H1560 H 0.78432 0.48887 0.77658 0.0
C1561 C 0.71439 0.49705 0.76943 0.0
C1562 C 0.51934 0.717 0.77438 0.0
C1563 C 0.5321 0.74205 0.78589 0.0
H1564 H 0.48507 0.69733 0.74339 0.0
C1565 C 0.51923 0.76705 0.77437 0.0
H1566 H 0.5288 0.69737 0.7825 0.0
C1567 C 0.49413 0.76703 0.7521 0.0
C1568 C 0.48145 0.742 0.74036 0.0
H1569 H 0.52853 0.78671 0.7826 0.0
H1570 H 0.4847 0.78668 0.74401 0.0
C1571 C 0.49437 0.71697 0.75168 0.0
C1572 C 0.24924 0.49775 0.75521 0.0
C1573 C 0.27383 0.48462 0.74238 0.0
H1574 H 0.23056 0.53195 0.78741 0.0
C1575 C 0.29926 0.49691 0.75307 0.0
H1576 H 0.22928 0.48885 0.74766 0.0
C1577 C 0.3 0.52164 0.77655 0.0
C1578 C 0.27532 0.53465 0.78945 0.0
H1579 H 0.31857 0.48719 0.74397 0.0
H1580 H 0.31987 0.53064 0.78437 0.0
C1581 C 0.24997 0.52246 0.77823 0.0
C1582 C 0.49452 0.30361 0.77241 0.0
C1583 C 0.48186 0.27837 0.78339 0.0
H1584 H 0.52875 0.32348 0.74094 0.0
C1585 C 0.49442 0.25357 0.77037 0.0
H1586 H 0.48518 0.32308 0.78163 0.0
C1587 C 0.51893 0.2538 0.74712 0.0
C1588 C 0.53171 0.27885 0.73594 0.0
H1589 H 0.48527 0.23374 0.77804 0.0
H1590 H 0.52792 0.23413 0.73801 0.0
C1591 C 0.51924 0.30385 0.74872 0.0
C1592 C 0.24761 0.52524 0.26373 0.0
C1593 C 0.27253 0.5389 0.25464 0.0
H1594 H 0.2281 0.48905 0.28869 0.0
C1595 C 0.29763 0.52608 0.26606 0.0
H1596 H 0.22791 0.53453 0.2555 0.0
C1597 C 0.29775 0.49998 0.28565 0.0
C1598 C 0.27278 0.48608 0.29376 0.0
H1599 H 0.3172 0.53615 0.2597 0.0
H1600 H 0.31738 0.49043 0.29352 0.0
C1601 C 0.24774 0.49913 0.28283 0.0
C1602 C 0.52402 0.24979 0.26413 0.0
C1603 C 0.53743 0.27474 0.27396 0.0
H1604 H 0.48814 0.23022 0.23826 0.0
C1605 C 0.52442 0.29985 0.26306 0.0
H1606 H 0.53346 0.23009 0.27191 0.0
C1607 C 0.49841 0.29994 0.24317 0.0
C1608 C 0.4848 0.27492 0.23422 0.0
H1609 H 0.53431 0.31944 0.26995 0.0
H1610 H 0.48872 0.31956 0.23567 0.0
C1611 C 0.49801 0.24989 0.24473 0.0
C1612 C 0.72396 0.52328 0.26339 0.0
C1613 C 0.74882 0.53673 0.27379 0.0
H1614 H 0.70466 0.48735 0.23692 0.0
C1615 C 0.774 0.52334 0.26472 0.0
H1616 H 0.7042 0.533 0.26981 0.0
C1617 C 0.77428 0.49699 0.24601 0.0
C1618 C 0.74938 0.48357 0.23561 0.0
H1619 H 0.79353 0.53313 0.27235 0.0
H1620 H 0.79399 0.48715 0.23966 0.0
C1621 C 0.72424 0.49709 0.2444 0.0
C1622 C 0.49546 0.72568 0.27273 0.0
C1623 C 0.4821 0.75081 0.28214 0.0
H1624 H 0.53134 0.70567 0.24723 0.0
C1625 C 0.49574 0.77574 0.27259 0.0
H1626 H 0.48555 0.70609 0.27957 0.0
C1627 C 0.52218 0.77549 0.25419 0.0
C1628 C 0.53544 0.75032 0.24463 0.0
H1629 H 0.48604 0.79545 0.27946 0.0
H1630 H 0.53216 0.79503 0.24727 0.0
C1631 C 0.52173 0.72544 0.25409 0.0
C1632 C 0.16685 0.16458 0.21889 0.0
C1633 C 0.18675 0.15068 0.24274 0.0
H1634 H 0.13697 0.19745 0.21785 0.0
C1635 C 0.1826 0.14991 0.28696 0.0
H1636 H 0.16393 0.15924 0.18638 0.0
C1637 C 0.16247 0.16681 0.30571 0.0
C1638 C 0.14986 0.18777 0.28228 0.0
H1639 H 0.19423 0.13582 0.30687 0.0
H1640 H 0.15645 0.16343 0.33793 0.0
C1641 C 0.15016 0.18484 0.23781 0.0
C1642 C 0.86308 0.18522 0.28036 0.0
C1643 C 0.86237 0.18661 0.23566 0.0
H1644 H 0.85147 0.16071 0.33396 0.0
C1645 C 0.84919 0.16497 0.21476 0.0
H1646 H 0.87668 0.19844 0.29864 0.0
C1647 C 0.82955 0.14883 0.23599 0.0
C1648 C 0.82678 0.15078 0.28046 0.0
H1649 H 0.85479 0.16017 0.18293 0.0
H1650 H 0.81742 0.13418 0.21783 0.0
C1651 C 0.84717 0.16548 0.30178 0.0
C1652 C 0.84722 0.84891 0.30393 0.0
C1653 C 0.86268 0.82875 0.28327 0.0
H1654 H 0.81393 0.87809 0.29965 0.0
C1655 C 0.8651 0.83147 0.23885 0.0
H1656 H 0.85157 0.85343 0.33609 0.0
C1657 C 0.849 0.85097 0.21703 0.0
C1658 C 0.82692 0.86405 0.23709 0.0
H1659 H 0.88023 0.81957 0.22123 0.0
H1660 H 0.85432 0.85672 0.1855 0.0
C1661 C 0.82755 0.8646 0.28182 0.0
C1662 C 0.18609 0.86229 0.2435 0.0
C1663 C 0.18722 0.86123 0.28819 0.0
H1664 H 0.16176 0.85133 0.18944 0.0
C1665 C 0.16566 0.84753 0.30845 0.0
H1666 H 0.19925 0.87621 0.22571 0.0
C1667 C 0.14969 0.82803 0.28653 0.0
C1668 C 0.15162 0.82592 0.24197 0.0
H1669 H 0.16055 0.85285 0.34022 0.0
H1670 H 0.135 0.81568 0.30423 0.0
C1671 C 0.16648 0.84656 0.22145 0.0
C1672 C 0.8642 0.84009 0.75133 0.0
C1673 C 0.85593 0.813 0.74172 0.0
H1674 H 0.85232 0.87928 0.77796 0.0
C1675 C 0.82908 0.80438 0.75181 0.0
H1676 H 0.88502 0.84695 0.74422 0.0
C1677 C 0.81006 0.82322 0.76867 0.0
C1678 C 0.81845 0.85007 0.77925 0.0
H1679 H 0.82261 0.78334 0.74546 0.0
H1680 H 0.78894 0.81669 0.7742 0.0
C1681 C 0.84563 0.85845 0.77053 0.0
C1682 C 0.16831 0.858 0.75404 0.0
C1683 C 0.19554 0.84974 0.74535 0.0
H1684 H 0.129 0.84634 0.78032 0.0
C1685 C 0.20414 0.82294 0.75596 0.0
H1686 H 0.16146 0.87879 0.74657 0.0
C1687 C 0.18524 0.80403 0.77281 0.0
C1688 C 0.15833 0.81253 0.78286 0.0
H1689 H 0.2253 0.8165 0.75042 0.0
H1690 H 0.19185 0.78301 0.77916 0.0
C1691 C 0.14987 0.83957 0.77324 0.0
C1692 C 0.15274 0.18079 0.78612 0.0
C1693 C 0.15408 0.18471 0.74184 0.0
H1694 H 0.1656 0.15504 0.83796 0.0
C1695 C 0.16875 0.16498 0.71877 0.0
H1696 H 0.13824 0.19237 0.80539 0.0
C1697 C 0.18875 0.14847 0.7387 0.0
C1698 C 0.19081 0.14816 0.78331 0.0
H1699 H 0.16409 0.1619 0.68605 0.0
H1700 H 0.20183 0.13537 0.71931 0.0
C1701 C 0.16948 0.16088 0.80579 0.0
C1702 C 0.84426 0.16619 0.80161 0.0
C1703 C 0.85868 0.18569 0.77782 0.0
H1704 H 0.81113 0.13674 0.80249 0.0
C1705 C 0.85955 0.18144 0.73359 0.0
H1706 H 0.84936 0.16327 0.83417 0.0
C1707 C 0.84267 0.16137 0.71477 0.0
C1708 C 0.82156 0.14892 0.73799 0.0
H1709 H 0.87386 0.19282 0.71376 0.0
H1710 H 0.84632 0.15512 0.68274 0.0
C1711 C 0.82401 0.14963 0.78252 0.0
C1712 C 0.68404 0.65147 0.77999 0.0
C1713 C 0.68602 0.65363 0.73544 0.0
H1714 H 0.65925 0.66195 0.83389 0.0
C1715 C 0.66522 0.66849 0.7152 0.0
H1716 H 0.69653 0.63674 0.79744 0.0
C1717 C 0.64942 0.68792 0.73759 0.0
C1718 C 0.65062 0.68886 0.7823 0.0
H1719 H 0.6604 0.66395 0.68313 0.0
H1720 H 0.63539 0.70113 0.72002 0.0
C1721 C 0.66451 0.66726 0.80221 0.0
C1722 C 0.32896 0.65175 0.74421 0.0
C1723 C 0.3278 0.65311 0.78889 0.0
H1724 H 0.35322 0.6625 0.68999 0.0
C1725 C 0.34927 0.66709 0.80893 0.0
H1726 H 0.31589 0.63762 0.72662 0.0
C1727 C 0.3651 0.68655 0.78672 0.0
C1728 C 0.36317 0.68834 0.74213 0.0
H1729 H 0.35445 0.66197 0.84072 0.0
H1730 H 0.3797 0.69913 0.80425 0.0
C1731 C 0.34847 0.66746 0.72192 0.0
C1732 C 0.34819 0.34857 0.80739 0.0
C1733 C 0.36186 0.3283 0.78397 0.0
H1734 H 0.3156 0.37868 0.80787 0.0
C1735 C 0.36246 0.33185 0.73961 0.0
H1736 H 0.35353 0.35176 0.83988 0.0
C1737 C 0.34569 0.3519 0.72043 0.0
C1738 C 0.32496 0.36499 0.74369 0.0
H1739 H 0.37638 0.31985 0.71992 0.0
H1740 H 0.34905 0.35757 0.68809 0.0
C1741 C 0.32803 0.36519 0.78814 0.0
C1742 C 0.66631 0.34808 0.71424 0.0
C1743 C 0.65278 0.32744 0.73701 0.0
H1744 H 0.69858 0.37845 0.7145 0.0
C1745 C 0.65251 0.3302 0.78152 0.0
H1746 H 0.6608 0.3518 0.68195 0.0
C1747 C 0.6691 0.35017 0.80123 0.0
C1748 C 0.68952 0.36394 0.77835 0.0
H1749 H 0.63879 0.31783 0.80093 0.0
H1750 H 0.66556 0.35554 0.83359 0.0
C1751 C 0.68638 0.36457 0.7339 0.0
C1752 C 0.34985 0.34842 0.22046 0.0
C1753 C 0.36337 0.32789 0.24359 0.0
H1754 H 0.31762 0.37895 0.22027 0.0
C1755 C 0.36371 0.33105 0.28804 0.0
H1756 H 0.35529 0.35179 0.18804 0.0
C1757 C 0.34702 0.35113 0.30747 0.0
C1758 C 0.32658 0.36477 0.28432 0.0
H1759 H 0.37743 0.31877 0.30764 0.0
H1760 H 0.35039 0.35656 0.33988 0.0
C1761 C 0.32982 0.36516 0.23988 0.0
C1762 C 0.65412 0.34938 0.26951 0.0
C1763 C 0.66248 0.32224 0.27882 0.0
H1764 H 0.66548 0.38837 0.2417 0.0
C1765 C 0.68912 0.31353 0.26754 0.0
H1766 H 0.63342 0.3563 0.27733 0.0
C1767 C 0.70784 0.33224 0.2497 0.0
C1768 C 0.69924 0.359 0.23895 0.0
H1769 H 0.69558 0.29239 0.27324 0.0
H1770 H 0.72882 0.32557 0.24317 0.0
C1771 C 0.67231 0.36758 0.24916 0.0
C1772 C 0.6711 0.65377 0.26899 0.0
C1773 C 0.69833 0.662 0.27773 0.0
H1774 H 0.63161 0.66562 0.24336 0.0
C1775 C 0.70676 0.68891 0.26756 0.0
H1776 H 0.66436 0.63292 0.27618 0.0
C1777 C 0.6877 0.70795 0.25126 0.0
C1778 C 0.66075 0.69954 0.24134 0.0
H1779 H 0.72788 0.69538 0.27323 0.0
H1780 H 0.69419 0.72905 0.24541 0.0
C1781 C 0.65249 0.67236 0.25035 0.0
C1782 C 0.34658 0.6561 0.25403 0.0
C1783 C 0.31933 0.66439 0.24548 0.0
H1784 H 0.38601 0.66774 0.27997 0.0
C1785 C 0.31086 0.69125 0.25596 0.0
H1786 H 0.35335 0.63526 0.24665 0.0
C1787 C 0.32987 0.71018 0.27249 0.0
C1788 C 0.35679 0.70165 0.28244 0.0
H1789 H 0.28968 0.69771 0.2506 0.0
H1790 H 0.32334 0.73124 0.2787 0.0
C1791 C 0.36514 0.67454 0.27296 0.0
loop_
_geom_bond_atom_site_label_1
_geom_bond_atom_site_label_2
_geom_bond_distance
_geom_bond_site_symmetry_2
_ccdc_geom_bond_type
Mn0 O5 2.095 . S
Mn0 O15 2.162 . S
Mn0 O16 2.297 . S
Mn0 O24 2.385 . S
Mn0 O25 2.209 . S
Mn0 O26 2.094 . S
Mn1 O6 2.121 . S
Mn1 N8 2.257 . S
Mn1 N17 2.282 . S
Mn1 O25 2.215 . S
Mn1 O27 2.117 . S
C2 O24 1.234 . S
C2 O25 1.283 . S
C3 O15 1.281 . S
C3 O16 1.236 . S
C4 O26 1.240 . S
C4 O27 1.264 . S
O5 Mn0 2.095 . S
O5 C14 1.250 . S
O6 Mn1 2.121 . S
O6 C14 1.258 . S
C7 N8 1.326 . S
C7 C11 1.460 . S
C7 H13 0.929 . S
N8 Mn1 2.257 . S
N8 C7 1.326 . S
N8 C12 1.362 . S
C9 C10 1.258 . S
C9 C12 1.431 . S
C9 C29 1.449 . S
C10 C9 1.258 . S
C10 C11 1.477 . S
C10 H30 0.931 . S
C11 C7 1.460 . S
C11 C10 1.477 . S
C11 H31 0.930 . S
C12 N8 1.362 . S
C12 C9 1.431 . S
C12 C22 1.476 . S
H13 C7 0.929 . S
C14 O5 1.250 . S
C14 O6 1.258 . S
O15 Mn0 2.162 . S
O15 C3 1.281 . S
O16 Mn0 2.297 . S
O16 C3 1.236 . S
N17 Mn1 2.282 . S
N17 C18 1.328 . S
N17 C22 1.318 . S
C18 N17 1.328 . S
C18 C19 1.457 . S
C18 H23 0.929 . S
C19 C18 1.457 . S
C19 C20 1.291 . S
C19 H32 0.931 . S
C20 C19 1.291 . S
C20 C21 1.373 . S
C20 H33 0.929 . S
C21 C20 1.373 . S
C21 C22 1.396 . S
C21 C28 1.403 . S
C22 C12 1.476 . S
C22 N17 1.318 . S
C22 C21 1.396 . S
H23 C18 0.929 . S
O24 Mn0 2.385 . S
O24 C2 1.234 . S
O25 Mn0 2.209 . S
O25 Mn1 2.215 . S
O25 C2 1.283 . S
O26 Mn0 2.094 . S
O26 C4 1.240 . S
O27 Mn1 2.117 . S
O27 C4 1.264 . S
C28 C21 1.403 . S
C28 C29 1.399 . S
C28 H34 0.929 . S
C29 C9 1.449 . S
C29 C28 1.399 . S
C29 H35 0.930 . S
H30 C10 0.931 . S
H31 C11 0.930 . S
H32 C19 0.931 . S
H33 C20 0.929 . S
H34 C28 0.929 . S
H35 C29 0.930 . S
Mn36 O41 2.095 . S
Mn36 O51 2.162 . S
Mn36 O52 2.297 . S
Mn36 O60 2.385 . S
Mn36 O61 2.209 . S
Mn36 O62 2.094 . S
Mn37 O42 2.121 . S
Mn37 N44 2.257 . S
Mn37 N53 2.282 . S
Mn37 O61 2.215 . S
Mn37 O63 2.117 . S
C38 O60 1.234 . S
C38 O61 1.283 . S
C39 O51 1.281 . S
C39 O52 1.236 . S
C40 O62 1.240 . S
C40 O63 1.264 . S
O41 Mn36 2.095 . S
O41 C50 1.250 . S
O42 Mn37 2.121 . S
O42 C50 1.258 . S
C43 N44 1.326 . S
C43 C47 1.460 . S
C43 H49 0.929 . S
N44 Mn37 2.257 . S
N44 C43 1.326 . S
N44 C48 1.362 . S
C45 C46 1.258 . S
C45 C48 1.431 . S
C45 C65 1.449 . S
C46 C45 1.258 . S
C46 C47 1.477 . S
C46 H66 0.931 . S
C47 C43 1.460 . S
C47 C46 1.477 . S
C47 H67 0.930 . S
C48 N44 1.362 . S
C48 C45 1.431 . S
C48 C58 1.476 . S
H49 C43 0.929 . S
C50 O41 1.250 . S
C50 O42 1.258 . S
O51 Mn36 2.162 . S
O51 C39 1.281 . S
O52 Mn36 2.297 . S
O52 C39 1.236 . S
N53 Mn37 2.282 . S
N53 C54 1.328 . S
N53 C58 1.318 . S
C54 N53 1.328 . S
C54 C55 1.457 . S
C54 H59 0.929 . S
C55 C54 1.457 . S
C55 C56 1.291 . S
C55 H68 0.931 . S
C56 C55 1.291 . S
C56 C57 1.373 . S
C56 H69 0.929 . S
C57 C56 1.373 . S
C57 C58 1.396 . S
C57 C64 1.403 . S
C58 C48 1.476 . S
C58 N53 1.318 . S
C58 C57 1.396 . S
H59 C54 0.929 . S
O60 Mn36 2.385 . S
O60 C38 1.234 . S
O61 Mn36 2.209 . S
O61 Mn37 2.215 . S
O61 C38 1.283 . S
O62 Mn36 2.094 . S
O62 C40 1.240 . S
O63 Mn37 2.117 . S
O63 C40 1.264 . S
C64 C57 1.403 . S
C64 C65 1.399 . S
C64 H70 0.929 . S
C65 C45 1.449 . S
C65 C64 1.399 . S
C65 H71 0.930 . S
H66 C46 0.931 . S
H67 C47 0.930 . S
H68 C55 0.931 . S
H69 C56 0.929 . S
H70 C64 0.929 . S
H71 C65 0.930 . S
Mn72 O77 2.095 . S
Mn72 O87 2.162 . S
Mn72 O88 2.297 . S
Mn72 O96 2.385 . S
Mn72 O97 2.209 . S
Mn72 O98 2.094 . S
Mn73 O78 2.121 . S
Mn73 N80 2.257 . S
Mn73 N89 2.282 . S
Mn73 O97 2.215 . S
Mn73 O99 2.117 . S
C74 O96 1.234 . S
C74 O97 1.283 . S
C75 O87 1.281 . S
C75 O88 1.236 . S
C76 O98 1.240 . S
C76 O99 1.264 . S
O77 Mn72 2.095 . S
O77 C86 1.250 . S
O78 Mn73 2.121 . S
O78 C86 1.258 . S
C79 N80 1.326 . S
C79 C83 1.460 . S
C79 H85 0.929 . S
N80 Mn73 2.257 . S
N80 C79 1.326 . S
N80 C84 1.362 . S
C81 C82 1.258 . S
C81 C84 1.431 . S
C81 C101 1.449 . S
C82 C81 1.258 . S
C82 C83 1.477 . S
C82 H102 0.931 . S
C83 C79 1.460 . S
C83 C82 1.477 . S
C83 H103 0.930 . S
C84 N80 1.362 . S
C84 C81 1.431 . S
C84 C94 1.476 . S
H85 C79 0.929 . S
C86 O77 1.250 . S
C86 O78 1.258 . S
O87 Mn72 2.162 . S
O87 C75 1.281 . S
O88 Mn72 2.297 . S
O88 C75 1.236 . S
N89 Mn73 2.282 . S
N89 C90 1.328 . S
N89 C94 1.318 . S
C90 N89 1.328 . S
C90 C91 1.457 . S
C90 H95 0.929 . S
C91 C90 1.457 . S
C91 C92 1.291 . S
C91 H104 0.931 . S
C92 C91 1.291 . S
C92 C93 1.373 . S
C92 H105 0.929 . S
C93 C92 1.373 . S
C93 C94 1.396 . S
C93 C100 1.403 . S
C94 C84 1.476 . S
C94 N89 1.318 . S
C94 C93 1.396 . S
H95 C90 0.929 . S
O96 Mn72 2.385 . S
O96 C74 1.234 . S
O97 Mn72 2.209 . S
O97 Mn73 2.215 . S
O97 C74 1.283 . S
O98 Mn72 2.094 . S
O98 C76 1.240 . S
O99 Mn73 2.117 . S
O99 C76 1.264 . S
C100 C93 1.403 . S
C100 C101 1.399 . S
C100 H106 0.929 . S
C101 C81 1.449 . S
C101 C100 1.399 . S
C101 H107 0.930 . S
H102 C82 0.931 . S
H103 C83 0.930 . S
H104 C91 0.931 . S
H105 C92 0.929 . S
H106 C100 0.929 . S
H107 C101 0.930 . S
Mn108 O113 2.095 . S
Mn108 O123 2.162 . S
Mn108 O124 2.297 . S
Mn108 O132 2.385 . S
Mn108 O133 2.209 . S
Mn108 O134 2.094 . S
Mn109 O114 2.121 . S
Mn109 N116 2.257 . S
Mn109 N125 2.282 . S
Mn109 O133 2.215 . S
Mn109 O135 2.117 . S
C110 O132 1.234 . S
C110 O133 1.283 . S
C111 O123 1.281 . S
C111 O124 1.236 . S
C112 O134 1.240 . S
C112 O135 1.264 . S
O113 Mn108 2.095 . S
O113 C122 1.250 . S
O114 Mn109 2.121 . S
O114 C122 1.258 . S
C115 N116 1.326 . S
C115 C119 1.460 . S
C115 H121 0.929 . S
N116 Mn109 2.257 . S
N116 C115 1.326 . S
N116 C120 1.362 . S
C117 C118 1.258 . S
C117 C120 1.431 . S
C117 C137 1.449 . S
C118 C117 1.258 . S
C118 C119 1.477 . S
C118 H138 0.931 . S
C119 C115 1.460 . S
C119 C118 1.477 . S
C119 H139 0.930 . S
C120 N116 1.362 . S
C120 C117 1.431 . S
C120 C130 1.476 . S
H121 C115 0.929 . S
C122 O113 1.250 . S
C122 O114 1.258 . S
O123 Mn108 2.162 . S
O123 C111 1.281 . S
O124 Mn108 2.297 . S
O124 C111 1.236 . S
N125 Mn109 2.282 . S
N125 C126 1.328 . S
N125 C130 1.318 . S
C126 N125 1.328 . S
C126 C127 1.457 . S
C126 H131 0.929 . S
C127 C126 1.457 . S
C127 C128 1.291 . S
C127 H140 0.931 . S
C128 C127 1.291 . S
C128 C129 1.373 . S
C128 H141 0.929 . S
C129 C128 1.373 . S
C129 C130 1.396 . S
C129 C136 1.403 . S
C130 C120 1.476 . S
C130 N125 1.318 . S
C130 C129 1.396 . S
H131 C126 0.929 . S
O132 Mn108 2.385 . S
O132 C110 1.234 . S
O133 Mn108 2.209 . S
O133 Mn109 2.215 . S
O133 C110 1.283 . S
O134 Mn108 2.094 . S
O134 C112 1.240 . S
O135 Mn109 2.117 . S
O135 C112 1.264 . S
C136 C129 1.403 . S
C136 C137 1.399 . S
C136 H142 0.929 . S
C137 C117 1.449 . S
C137 C136 1.399 . S
C137 H143 0.930 . S
H138 C118 0.931 . S
H139 C119 0.930 . S
H140 C127 0.931 . S
H141 C128 0.929 . S
H142 C136 0.929 . S
H143 C137 0.930 . S
Mn144 O149 2.095 . S
Mn144 O159 2.162 . S
Mn144 O160 2.297 . S
Mn144 O168 2.385 . S
Mn144 O169 2.209 . S
Mn144 O170 2.094 . S
Mn145 O150 2.121 . S
Mn145 N152 2.257 . S
Mn145 N161 2.282 . S
Mn145 O169 2.215 . S
Mn145 O171 2.117 . S
C146 O168 1.234 . S
C146 O169 1.283 . S
C147 O159 1.281 . S
C147 O160 1.236 . S
C148 O170 1.240 . S
C148 O171 1.264 . S
O149 Mn144 2.095 . S
O149 C158 1.250 . S
O150 Mn145 2.121 . S
O150 C158 1.258 . S
C151 N152 1.326 . S
C151 C155 1.460 . S
C151 H157 0.929 . S
N152 Mn145 2.257 . S
N152 C151 1.326 . S
N152 C156 1.362 . S
C153 C154 1.258 . S
C153 C156 1.431 . S
C153 C173 1.449 . S
C154 C153 1.258 . S
C154 C155 1.477 . S
C154 H174 0.931 . S
C155 C151 1.460 . S
C155 C154 1.477 . S
C155 H175 0.930 . S
C156 N152 1.362 . S
C156 C153 1.431 . S
C156 C166 1.476 . S
H157 C151 0.929 . S
C158 O149 1.250 . S
C158 O150 1.258 . S
O159 Mn144 2.162 . S
O159 C147 1.281 . S
O160 Mn144 2.297 . S
O160 C147 1.236 . S
N161 Mn145 2.282 . S
N161 C162 1.328 . S
N161 C166 1.318 . S
C162 N161 1.328 . S
C162 C163 1.457 . S
C162 H167 0.929 . S
C163 C162 1.457 . S
C163 C164 1.291 . S
C163 H176 0.931 . S
C164 C163 1.291 . S
C164 C165 1.373 . S
C164 H177 0.929 . S
C165 C164 1.373 . S
C165 C166 1.396 . S
C165 C172 1.403 . S
C166 C156 1.476 . S
C166 N161 1.318 . S
C166 C165 1.396 . S
H167 C162 0.929 . S
O168 Mn144 2.385 . S
O168 C146 1.234 . S
O169 Mn144 2.209 . S
O169 Mn145 2.215 . S
O169 C146 1.283 . S
O170 Mn144 2.094 . S
O170 C148 1.240 . S
O171 Mn145 2.117 . S
O171 C148 1.264 . S
C172 C165 1.403 . S
C172 C173 1.399 . S
C172 H178 0.929 . S
C173 C153 1.449 . S
C173 C172 1.399 . S
C173 H179 0.930 . S
H174 C154 0.931 . S
H175 C155 0.930 . S
H176 C163 0.931 . S
H177 C164 0.929 . S
H178 C172 0.929 . S
H179 C173 0.930 . S
Mn180 O185 2.095 . S
Mn180 O195 2.162 . S
Mn180 O196 2.297 . S
Mn180 O204 2.385 . S
Mn180 O205 2.209 . S
Mn180 O206 2.094 . S
Mn181 O186 2.121 . S
Mn181 N188 2.257 . S
Mn181 N197 2.282 . S
Mn181 O205 2.215 . S
Mn181 O207 2.117 . S
C182 O204 1.234 . S
C182 O205 1.283 . S
C183 O195 1.281 . S
C183 O196 1.236 . S
C184 O206 1.240 . S
C184 O207 1.264 . S
O185 Mn180 2.095 . S
O185 C194 1.250 . S
O186 Mn181 2.121 . S
O186 C194 1.258 . S
C187 N188 1.326 . S
C187 C191 1.460 . S
C187 H193 0.929 . S
N188 Mn181 2.257 . S
N188 C187 1.326 . S
N188 C192 1.362 . S
C189 C190 1.258 . S
C189 C192 1.431 . S
C189 C209 1.449 . S
C190 C189 1.258 . S
C190 C191 1.477 . S
C190 H210 0.931 . S
C191 C187 1.460 . S
C191 C190 1.477 . S
C191 H211 0.930 . S
C192 N188 1.362 . S
C192 C189 1.431 . S
C192 C202 1.476 . S
H193 C187 0.929 . S
C194 O185 1.250 . S
C194 O186 1.258 . S
O195 Mn180 2.162 . S
O195 C183 1.281 . S
O196 Mn180 2.297 . S
O196 C183 1.236 . S
N197 Mn181 2.282 . S
N197 C198 1.328 . S
N197 C202 1.318 . S
C198 N197 1.328 . S
C198 C199 1.457 . S
C198 H203 0.929 . S
C199 C198 1.457 . S
C199 C200 1.291 . S
C199 H212 0.931 . S
C200 C199 1.291 . S
C200 C201 1.373 . S
C200 H213 0.929 . S
C201 C200 1.373 . S
C201 C202 1.396 . S
C201 C208 1.403 . S
C202 C192 1.476 . S
C202 N197 1.318 . S
C202 C201 1.396 . S
H203 C198 0.929 . S
O204 Mn180 2.385 . S
O204 C182 1.234 . S
O205 Mn180 2.209 . S
O205 Mn181 2.215 . S
O205 C182 1.283 . S
O206 Mn180 2.094 . S
O206 C184 1.240 . S
O207 Mn181 2.117 . S
O207 C184 1.264 . S
C208 C201 1.403 . S
C208 C209 1.399 . S
C208 H214 0.929 . S
C209 C189 1.449 . S
C209 C208 1.399 . S
C209 H215 0.930 . S
H210 C190 0.931 . S
H211 C191 0.930 . S
H212 C199 0.931 . S
H213 C200 0.929 . S
H214 C208 0.929 . S
H215 C209 0.930 . S
Mn216 O221 2.095 . S
Mn216 O231 2.162 . S
Mn216 O232 2.297 . S
Mn216 O240 2.385 . S
Mn216 O241 2.209 . S
Mn216 O242 2.094 . S
Mn217 O222 2.121 . S
Mn217 N224 2.257 . S
Mn217 N233 2.282 . S
Mn217 O241 2.215 . S
Mn217 O243 2.117 . S
C218 O240 1.234 . S
C218 O241 1.283 . S
C219 O231 1.281 . S
C219 O232 1.236 . S
C220 O242 1.240 . S
C220 O243 1.264 . S
O221 Mn216 2.095 . S
O221 C230 1.250 . S
O222 Mn217 2.121 . S
O222 C230 1.258 . S
C223 N224 1.326 . S
C223 C227 1.460 . S
C223 H229 0.929 . S
N224 Mn217 2.257 . S
N224 C223 1.326 . S
N224 C228 1.362 . S
C225 C226 1.258 . S
C225 C228 1.431 . S
C225 C245 1.449 . S
C226 C225 1.258 . S
C226 C227 1.477 . S
C226 H246 0.931 . S
C227 C223 1.460 . S
C227 C226 1.477 . S
C227 H247 0.930 . S
C228 N224 1.362 . S
C228 C225 1.431 . S
C228 C238 1.476 . S
H229 C223 0.929 . S
C230 O221 1.250 . S
C230 O222 1.258 . S
O231 Mn216 2.162 . S
O231 C219 1.281 . S
O232 Mn216 2.297 . S
O232 C219 1.236 . S
N233 Mn217 2.282 . S
N233 C234 1.328 . S
N233 C238 1.318 . S
C234 N233 1.328 . S
C234 C235 1.457 . S
C234 H239 0.929 . S
C235 C234 1.457 . S
C235 C236 1.291 . S
C235 H248 0.931 . S
C236 C235 1.291 . S
C236 C237 1.373 . S
C236 H249 0.929 . S
C237 C236 1.373 . S
C237 C238 1.396 . S
C237 C244 1.403 . S
C238 C228 1.476 . S
C238 N233 1.318 . S
C238 C237 1.396 . S
H239 C234 0.929 . S
O240 Mn216 2.385 . S
O240 C218 1.234 . S
O241 Mn216 2.209 . S
O241 Mn217 2.215 . S
O241 C218 1.283 . S
O242 Mn216 2.094 . S
O242 C220 1.240 . S
O243 Mn217 2.117 . S
O243 C220 1.264 . S
C244 C237 1.403 . S
C244 C245 1.399 . S
C244 H250 0.929 . S
C245 C225 1.449 . S
C245 C244 1.399 . S
C245 H251 0.930 . S
H246 C226 0.931 . S
H247 C227 0.930 . S
H248 C235 0.931 . S
H249 C236 0.929 . S
H250 C244 0.929 . S
H251 C245 0.930 . S
Mn252 O257 2.095 . S
Mn252 O267 2.162 . S
Mn252 O268 2.297 . S
Mn252 O276 2.385 . S
Mn252 O277 2.209 . S
Mn252 O278 2.094 . S
Mn253 O258 2.121 . S
Mn253 N260 2.257 . S
Mn253 N269 2.282 . S
Mn253 O277 2.215 . S
Mn253 O279 2.117 . S
C254 O276 1.234 . S
C254 O277 1.283 . S
C255 O267 1.281 . S
C255 O268 1.236 . S
C256 O278 1.240 . S
C256 O279 1.264 . S
O257 Mn252 2.095 . S
O257 C266 1.250 . S
O258 Mn253 2.121 . S
O258 C266 1.258 . S
C259 N260 1.326 . S
C259 C263 1.460 . S
C259 H265 0.929 . S
N260 Mn253 2.257 . S
N260 C259 1.326 . S
N260 C264 1.362 . S
C261 C262 1.258 . S
C261 C264 1.431 . S
C261 C281 1.449 . S
C262 C261 1.258 . S
C262 C263 1.477 . S
C262 H282 0.931 . S
C263 C259 1.460 . S
C263 C262 1.477 . S
C263 H283 0.930 . S
C264 N260 1.362 . S
C264 C261 1.431 . S
C264 C274 1.476 . S
H265 C259 0.929 . S
C266 O257 1.250 . S
C266 O258 1.258 . S
O267 Mn252 2.162 . S
O267 C255 1.281 . S
O268 Mn252 2.297 . S
O268 C255 1.236 . S
N269 Mn253 2.282 . S
N269 C270 1.328 . S
N269 C274 1.318 . S
C270 N269 1.328 . S
C270 C271 1.457 . S
C270 H275 0.929 . S
C271 C270 1.457 . S
C271 C272 1.291 . S
C271 H284 0.931 . S
C272 C271 1.291 . S
C272 C273 1.373 . S
C272 H285 0.929 . S
C273 C272 1.373 . S
C273 C274 1.396 . S
C273 C280 1.403 . S
C274 C264 1.476 . S
C274 N269 1.318 . S
C274 C273 1.396 . S
H275 C270 0.929 . S
O276 Mn252 2.385 . S
O276 C254 1.234 . S
O277 Mn252 2.209 . S
O277 Mn253 2.215 . S
O277 C254 1.283 . S
O278 Mn252 2.094 . S
O278 C256 1.240 . S
O279 Mn253 2.117 . S
O279 C256 1.264 . S
C280 C273 1.403 . S
C280 C281 1.399 . S
C280 H286 0.929 . S
C281 C261 1.449 . S
C281 C280 1.399 . S
C281 H287 0.930 . S
H282 C262 0.931 . S
H283 C263 0.930 . S
H284 C271 0.931 . S
H285 C272 0.929 . S
H286 C280 0.929 . S
H287 C281 0.930 . S
Mn288 O293 2.095 . S
Mn288 O303 2.162 . S
Mn288 O304 2.297 . S
Mn288 O312 2.385 . S
Mn288 O313 2.209 . S
Mn288 O314 2.094 . S
Mn289 O294 2.121 . S
Mn289 N296 2.257 . S
Mn289 N305 2.282 . S
Mn289 O313 2.215 . S
Mn289 O315 2.117 . S
C290 O312 1.234 . S
C290 O313 1.283 . S
C291 O303 1.281 . S
C291 O304 1.236 . S
C292 O314 1.240 . S
C292 O315 1.264 . S
O293 Mn288 2.095 . S
O293 C302 1.250 . S
O294 Mn289 2.121 . S
O294 C302 1.258 . S
C295 N296 1.326 . S
C295 C299 1.460 . S
C295 H301 0.929 . S
N296 Mn289 2.257 . S
N296 C295 1.326 . S
N296 C300 1.362 . S
C297 C298 1.258 . S
C297 C300 1.431 . S
C297 C317 1.449 . S
C298 C297 1.258 . S
C298 C299 1.477 . S
C298 H318 0.931 . S
C299 C295 1.460 . S
C299 C298 1.477 . S
C299 H319 0.930 . S
C300 N296 1.362 . S
C300 C297 1.431 . S
C300 C310 1.476 . S
H301 C295 0.929 . S
C302 O293 1.250 . S
C302 O294 1.258 . S
O303 Mn288 2.162 . S
O303 C291 1.281 . S
O304 Mn288 2.297 . S
O304 C291 1.236 . S
N305 Mn289 2.282 . S
N305 C306 1.328 . S
N305 C310 1.318 . S
C306 N305 1.328 . S
C306 C307 1.457 . S
C306 H311 0.929 . S
C307 C306 1.457 . S
C307 C308 1.291 . S
C307 H320 0.931 . S
C308 C307 1.291 . S
C308 C309 1.373 . S
C308 H321 0.929 . S
C309 C308 1.373 . S
C309 C310 1.396 . S
C309 C316 1.403 . S
C310 C300 1.476 . S
C310 N305 1.318 . S
C310 C309 1.396 . S
H311 C306 0.929 . S
O312 Mn288 2.385 . S
O312 C290 1.234 . S
O313 Mn288 2.209 . S
O313 Mn289 2.215 . S
O313 C290 1.283 . S
O314 Mn288 2.094 . S
O314 C292 1.240 . S
O315 Mn289 2.117 . S
O315 C292 1.264 . S
C316 C309 1.403 . S
C316 C317 1.399 . S
C316 H322 0.929 . S
C317 C297 1.449 . S
C317 C316 1.399 . S
C317 H323 0.930 . S
H318 C298 0.931 . S
H319 C299 0.930 . S
H320 C307 0.931 . S
H321 C308 0.929 . S
H322 C316 0.929 . S
H323 C317 0.930 . S
Mn324 O329 2.095 . S
Mn324 O339 2.162 . S
Mn324 O340 2.297 . S
Mn324 O348 2.385 . S
Mn324 O349 2.209 . S
Mn324 O350 2.094 . S
Mn325 O330 2.121 . S
Mn325 N332 2.257 . S
Mn325 N341 2.282 . S
Mn325 O349 2.215 . S
Mn325 O351 2.117 . S
C326 O348 1.234 . S
C326 O349 1.283 . S
C327 O339 1.281 . S
C327 O340 1.236 . S
C328 O350 1.240 . S
C328 O351 1.264 . S
O329 Mn324 2.095 . S
O329 C338 1.250 . S
O330 Mn325 2.121 . S
O330 C338 1.258 . S
C331 N332 1.326 . S
C331 C335 1.460 . S
C331 H337 0.929 . S
N332 Mn325 2.257 . S
N332 C331 1.326 . S
N332 C336 1.362 . S
C333 C334 1.258 . S
C333 C336 1.431 . S
C333 C353 1.449 . S
C334 C333 1.258 . S
C334 C335 1.477 . S
C334 H354 0.931 . S
C335 C331 1.460 . S
C335 C334 1.477 . S
C335 H355 0.930 . S
C336 N332 1.362 . S
C336 C333 1.431 . S
C336 C346 1.476 . S
H337 C331 0.929 . S
C338 O329 1.250 . S
C338 O330 1.258 . S
O339 Mn324 2.162 . S
O339 C327 1.281 . S
O340 Mn324 2.297 . S
O340 C327 1.236 . S
N341 Mn325 2.282 . S
N341 C342 1.328 . S
N341 C346 1.318 . S
C342 N341 1.328 . S
C342 C343 1.457 . S
C342 H347 0.929 . S
C343 C342 1.457 . S
C343 C344 1.291 . S
C343 H356 0.931 . S
C344 C343 1.291 . S
C344 C345 1.373 . S
C344 H357 0.929 . S
C345 C344 1.373 . S
C345 C346 1.396 . S
C345 C352 1.403 . S
C346 C336 1.476 . S
C346 N341 1.318 . S
C346 C345 1.396 . S
H347 C342 0.929 . S
O348 Mn324 2.385 . S
O348 C326 1.234 . S
O349 Mn324 2.209 . S
O349 Mn325 2.215 . S
O349 C326 1.283 . S
O350 Mn324 2.094 . S
O350 C328 1.240 . S
O351 Mn325 2.117 . S
O351 C328 1.264 . S
C352 C345 1.403 . S
C352 C353 1.399 . S
C352 H358 0.929 . S
C353 C333 1.449 . S
C353 C352 1.399 . S
C353 H359 0.930 . S
H354 C334 0.931 . S
H355 C335 0.930 . S
H356 C343 0.931 . S
H357 C344 0.929 . S
H358 C352 0.929 . S
H359 C353 0.930 . S
Mn360 O365 2.095 . S
Mn360 O375 2.162 . S
Mn360 O376 2.297 . S
Mn360 O384 2.385 . S
Mn360 O385 2.209 . S
Mn360 O386 2.094 . S
Mn361 O366 2.121 . S
Mn361 N368 2.257 . S
Mn361 N377 2.282 . S
Mn361 O385 2.215 . S
Mn361 O387 2.117 . S
C362 O384 1.234 . S
C362 O385 1.283 . S
C363 O375 1.281 . S
C363 O376 1.236 . S
C364 O386 1.240 . S
C364 O387 1.264 . S
O365 Mn360 2.095 . S
O365 C374 1.250 . S
O366 Mn361 2.121 . S
O366 C374 1.258 . S
C367 N368 1.326 . S
C367 C371 1.460 . S
C367 H373 0.929 . S
N368 Mn361 2.257 . S
N368 C367 1.326 . S
N368 C372 1.362 . S
C369 C370 1.258 . S
C369 C372 1.431 . S
C369 C389 1.449 . S
C370 C369 1.258 . S
C370 C371 1.477 . S
C370 H390 0.931 . S
C371 C367 1.460 . S
C371 C370 1.477 . S
C371 H391 0.930 . S
C372 N368 1.362 . S
C372 C369 1.431 . S
C372 C382 1.476 . S
H373 C367 0.929 . S
C374 O365 1.250 . S
C374 O366 1.258 . S
O375 Mn360 2.162 . S
O375 C363 1.281 . S
O376 Mn360 2.297 . S
O376 C363 1.236 . S
N377 Mn361 2.282 . S
N377 C378 1.328 . S
N377 C382 1.318 . S
C378 N377 1.328 . S
C378 C379 1.457 . S
C378 H383 0.929 . S
C379 C378 1.457 . S
C379 C380 1.291 . S
C379 H392 0.931 . S
C380 C379 1.291 . S
C380 C381 1.373 . S
C380 H393 0.929 . S
C381 C380 1.373 . S
C381 C382 1.396 . S
C381 C388 1.403 . S
C382 C372 1.476 . S
C382 N377 1.318 . S
C382 C381 1.396 . S
H383 C378 0.929 . S
O384 Mn360 2.385 . S
O384 C362 1.234 . S
O385 Mn360 2.209 . S
O385 Mn361 2.215 . S
O385 C362 1.283 . S
O386 Mn360 2.094 . S
O386 C364 1.240 . S
O387 Mn361 2.117 . S
O387 C364 1.264 . S
C388 C381 1.403 . S
C388 C389 1.399 . S
C388 H394 0.929 . S
C389 C369 1.449 . S
C389 C388 1.399 . S
C389 H395 0.930 . S
H390 C370 0.931 . S
H391 C371 0.930 . S
H392 C379 0.931 . S
H393 C380 0.929 . S
H394 C388 0.929 . S
H395 C389 0.930 . S
Mn396 O401 2.095 . S
Mn396 O411 2.162 . S
Mn396 O412 2.297 . S
Mn396 O420 2.385 . S
Mn396 O421 2.209 . S
Mn396 O422 2.094 . S
Mn397 O402 2.121 . S
Mn397 N404 2.257 . S
Mn397 N413 2.282 . S
Mn397 O421 2.215 . S
Mn397 O423 2.117 . S
C398 O420 1.234 . S
C398 O421 1.283 . S
C399 O411 1.281 . S
C399 O412 1.236 . S
C400 O422 1.240 . S
C400 O423 1.264 . S
O401 Mn396 2.095 . S
O401 C410 1.250 . S
O402 Mn397 2.121 . S
O402 C410 1.258 . S
C403 N404 1.326 . S
C403 C407 1.460 . S
C403 H409 0.929 . S
N404 Mn397 2.257 . S
N404 C403 1.326 . S
N404 C408 1.362 . S
C405 C406 1.258 . S
C405 C408 1.431 . S
C405 C425 1.449 . S
C406 C405 1.258 . S
C406 C407 1.477 . S
C406 H426 0.931 . S
C407 C403 1.460 . S
C407 C406 1.477 . S
C407 H427 0.930 . S
C408 N404 1.362 . S
C408 C405 1.431 . S
C408 C418 1.476 . S
H409 C403 0.929 . S
C410 O401 1.250 . S
C410 O402 1.258 . S
O411 Mn396 2.162 . S
O411 C399 1.281 . S
O412 Mn396 2.297 . S
O412 C399 1.236 . S
N413 Mn397 2.282 . S
N413 C414 1.328 . S
N413 C418 1.318 . S
C414 N413 1.328 . S
C414 C415 1.457 . S
C414 H419 0.929 . S
C415 C414 1.457 . S
C415 C416 1.291 . S
C415 H428 0.931 . S
C416 C415 1.291 . S
C416 C417 1.373 . S
C416 H429 0.929 . S
C417 C416 1.373 . S
C417 C418 1.396 . S
C417 C424 1.403 . S
C418 C408 1.476 . S
C418 N413 1.318 . S
C418 C417 1.396 . S
H419 C414 0.929 . S
O420 Mn396 2.385 . S
O420 C398 1.234 . S
O421 Mn396 2.209 . S
O421 Mn397 2.215 . S
O421 C398 1.283 . S
O422 Mn396 2.094 . S
O422 C400 1.240 . S
O423 Mn397 2.117 . S
O423 C400 1.264 . S
C424 C417 1.403 . S
C424 C425 1.399 . S
C424 H430 0.929 . S
C425 C405 1.449 . S
C425 C424 1.399 . S
C425 H431 0.930 . S
H426 C406 0.931 . S
H427 C407 0.930 . S
H428 C415 0.931 . S
H429 C416 0.929 . S
H430 C424 0.929 . S
H431 C425 0.930 . S
Mn432 O437 2.095 . S
Mn432 O447 2.162 . S
Mn432 O448 2.297 . S
Mn432 O456 2.385 . S
Mn432 O457 2.209 . S
Mn432 O458 2.094 . S
Mn433 O438 2.121 . S
Mn433 N440 2.257 . S
Mn433 N449 2.282 . S
Mn433 O457 2.215 . S
Mn433 O459 2.117 . S
C434 O456 1.234 . S
C434 O457 1.283 . S
C435 O447 1.281 . S
C435 O448 1.236 . S
C436 O458 1.240 . S
C436 O459 1.264 . S
O437 Mn432 2.095 . S
O437 C446 1.250 . S
O438 Mn433 2.121 . S
O438 C446 1.258 . S
C439 N440 1.326 . S
C439 C443 1.460 . S
C439 H445 0.929 . S
N440 Mn433 2.257 . S
N440 C439 1.326 . S
N440 C444 1.362 . S
C441 C442 1.258 . S
C441 C444 1.431 . S
C441 C461 1.449 . S
C442 C441 1.258 . S
C442 C443 1.477 . S
C442 H462 0.931 . S
C443 C439 1.460 . S
C443 C442 1.477 . S
C443 H463 0.930 . S
C444 N440 1.362 . S
C444 C441 1.431 . S
C444 C454 1.476 . S
H445 C439 0.929 . S
C446 O437 1.250 . S
C446 O438 1.258 . S
O447 Mn432 2.162 . S
O447 C435 1.281 . S
O448 Mn432 2.297 . S
O448 C435 1.236 . S
N449 Mn433 2.282 . S
N449 C450 1.328 . S
N449 C454 1.318 . S
C450 N449 1.328 . S
C450 C451 1.457 . S
C450 H455 0.929 . S
C451 C450 1.457 . S
C451 C452 1.291 . S
C451 H464 0.931 . S
C452 C451 1.291 . S
C452 C453 1.373 . S
C452 H465 0.929 . S
C453 C452 1.373 . S
C453 C454 1.396 . S
C453 C460 1.403 . S
C454 C444 1.476 . S
C454 N449 1.318 . S
C454 C453 1.396 . S
H455 C450 0.929 . S
O456 Mn432 2.385 . S
O456 C434 1.234 . S
O457 Mn432 2.209 . S
O457 Mn433 2.215 . S
O457 C434 1.283 . S
O458 Mn432 2.094 . S
O458 C436 1.240 . S
O459 Mn433 2.117 . S
O459 C436 1.264 . S
C460 C453 1.403 . S
C460 C461 1.399 . S
C460 H466 0.929 . S
C461 C441 1.449 . S
C461 C460 1.399 . S
C461 H467 0.930 . S
H462 C442 0.931 . S
H463 C443 0.930 . S
H464 C451 0.931 . S
H465 C452 0.929 . S
H466 C460 0.929 . S
H467 C461 0.930 . S
Mn468 O473 2.095 . S
Mn468 O483 2.162 . S
Mn468 O484 2.297 . S
Mn468 O492 2.385 . S
Mn468 O493 2.209 . S
Mn468 O494 2.094 . S
Mn469 O474 2.121 . S
Mn469 N476 2.257 . S
Mn469 N485 2.282 . S
Mn469 O493 2.215 . S
Mn469 O495 2.117 . S
C470 O492 1.234 . S
C470 O493 1.283 . S
C471 O483 1.281 . S
C471 O484 1.236 . S
C472 O494 1.240 . S
C472 O495 1.264 . S
O473 Mn468 2.095 . S
O473 C482 1.250 . S
O474 Mn469 2.121 . S
O474 C482 1.258 . S
C475 N476 1.326 . S
C475 C479 1.460 . S
C475 H481 0.929 . S
N476 Mn469 2.257 . S
N476 C475 1.326 . S
N476 C480 1.362 . S
C477 C478 1.258 . S
C477 C480 1.431 . S
C477 C497 1.449 . S
C478 C477 1.258 . S
C478 C479 1.477 . S
C478 H498 0.931 . S
C479 C475 1.460 . S
C479 C478 1.477 . S
C479 H499 0.930 . S
C480 N476 1.362 . S
C480 C477 1.431 . S
C480 C490 1.476 . S
H481 C475 0.929 . S
C482 O473 1.250 . S
C482 O474 1.258 . S
O483 Mn468 2.162 . S
O483 C471 1.281 . S
O484 Mn468 2.297 . S
O484 C471 1.236 . S
N485 Mn469 2.282 . S
N485 C486 1.328 . S
N485 C490 1.318 . S
C486 N485 1.328 . S
C486 C487 1.457 . S
C486 H491 0.929 . S
C487 C486 1.457 . S
C487 C488 1.291 . S
C487 H500 0.931 . S
C488 C487 1.291 . S
C488 C489 1.373 . S
C488 H501 0.929 . S
C489 C488 1.373 . S
C489 C490 1.396 . S
C489 C496 1.403 . S
C490 C480 1.476 . S
C490 N485 1.318 . S
C490 C489 1.396 . S
H491 C486 0.929 . S
O492 Mn468 2.385 . S
O492 C470 1.234 . S
O493 Mn468 2.209 . S
O493 Mn469 2.215 . S
O493 C470 1.283 . S
O494 Mn468 2.094 . S
O494 C472 1.240 . S
O495 Mn469 2.117 . S
O495 C472 1.264 . S
C496 C489 1.403 . S
C496 C497 1.399 . S
C496 H502 0.929 . S
C497 C477 1.449 . S
C497 C496 1.399 . S
C497 H503 0.930 . S
H498 C478 0.931 . S
H499 C479 0.930 . S
H500 C487 0.931 . S
H501 C488 0.929 . S
H502 C496 0.929 . S
H503 C497 0.930 . S
Mn504 O509 2.095 . S
Mn504 O519 2.162 . S
Mn504 O520 2.297 . S
Mn504 O528 2.385 . S
Mn504 O529 2.209 . S
Mn504 O530 2.094 . S
Mn505 O510 2.121 . S
Mn505 N512 2.257 . S
Mn505 N521 2.282 . S
Mn505 O529 2.215 . S
Mn505 O531 2.117 . S
C506 O528 1.234 . S
C506 O529 1.283 . S
C507 O519 1.281 . S
C507 O520 1.236 . S
C508 O530 1.240 . S
C508 O531 1.264 . S
O509 Mn504 2.095 . S
O509 C518 1.250 . S
O510 Mn505 2.121 . S
O510 C518 1.258 . S
C511 N512 1.326 . S
C511 C515 1.460 . S
C511 H517 0.929 . S
N512 Mn505 2.257 . S
N512 C511 1.326 . S
N512 C516 1.362 . S
C513 C514 1.258 . S
C513 C516 1.431 . S
C513 C533 1.449 . S
C514 C513 1.258 . S
C514 C515 1.477 . S
C514 H534 0.931 . S
C515 C511 1.460 . S
C515 C514 1.477 . S
C515 H535 0.930 . S
C516 N512 1.362 . S
C516 C513 1.431 . S
C516 C526 1.476 . S
H517 C511 0.929 . S
C518 O509 1.250 . S
C518 O510 1.258 . S
O519 Mn504 2.162 . S
O519 C507 1.281 . S
O520 Mn504 2.297 . S
O520 C507 1.236 . S
N521 Mn505 2.282 . S
N521 C522 1.328 . S
N521 C526 1.318 . S
C522 N521 1.328 . S
C522 C523 1.457 . S
C522 H527 0.929 . S
C523 C522 1.457 . S
C523 C524 1.291 . S
C523 H536 0.931 . S
C524 C523 1.291 . S
C524 C525 1.373 . S
C524 H537 0.929 . S
C525 C524 1.373 . S
C525 C526 1.396 . S
C525 C532 1.403 . S
C526 C516 1.476 . S
C526 N521 1.318 . S
C526 C525 1.396 . S
H527 C522 0.929 . S
O528 Mn504 2.385 . S
O528 C506 1.234 . S
O529 Mn504 2.209 . S
O529 Mn505 2.215 . S
O529 C506 1.283 . S
O530 Mn504 2.094 . S
O530 C508 1.240 . S
O531 Mn505 2.117 . S
O531 C508 1.264 . S
C532 C525 1.403 . S
C532 C533 1.399 . S
C532 H538 0.929 . S
C533 C513 1.449 . S
C533 C532 1.399 . S
C533 H539 0.930 . S
H534 C514 0.931 . S
H535 C515 0.930 . S
H536 C523 0.931 . S
H537 C524 0.929 . S
H538 C532 0.929 . S
H539 C533 0.930 . S
Mn540 O545 2.095 . S
Mn540 O555 2.162 . S
Mn540 O556 2.297 . S
Mn540 O564 2.385 . S
Mn540 O565 2.209 . S
Mn540 O566 2.094 . S
Mn541 O546 2.121 . S
Mn541 N548 2.257 . S
Mn541 N557 2.282 . S
Mn541 O565 2.215 . S
Mn541 O567 2.117 . S
C542 O564 1.234 . S
C542 O565 1.283 . S
C543 O555 1.281 . S
C543 O556 1.236 . S
C544 O566 1.240 . S
C544 O567 1.264 . S
O545 Mn540 2.095 . S
O545 C554 1.250 . S
O546 Mn541 2.121 . S
O546 C554 1.258 . S
C547 N548 1.326 . S
C547 C551 1.460 . S
C547 H553 0.929 . S
N548 Mn541 2.257 . S
N548 C547 1.326 . S
N548 C552 1.362 . S
C549 C550 1.258 . S
C549 C552 1.431 . S
C549 C569 1.449 . S
C550 C549 1.258 . S
C550 C551 1.477 . S
C550 H570 0.931 . S
C551 C547 1.460 . S
C551 C550 1.477 . S
C551 H571 0.930 . S
C552 N548 1.362 . S
C552 C549 1.431 . S
C552 C562 1.476 . S
H553 C547 0.929 . S
C554 O545 1.250 . S
C554 O546 1.258 . S
O555 Mn540 2.162 . S
O555 C543 1.281 . S
O556 Mn540 2.297 . S
O556 C543 1.236 . S
N557 Mn541 2.282 . S
N557 C558 1.328 . S
N557 C562 1.318 . S
C558 N557 1.328 . S
C558 C559 1.457 . S
C558 H563 0.929 . S
C559 C558 1.457 . S
C559 C560 1.291 . S
C559 H572 0.931 . S
C560 C559 1.291 . S
C560 C561 1.373 . S
C560 H573 0.929 . S
C561 C560 1.373 . S
C561 C562 1.396 . S
C561 C568 1.403 . S
C562 C552 1.476 . S
C562 N557 1.318 . S
C562 C561 1.396 . S
H563 C558 0.929 . S
O564 Mn540 2.385 . S
O564 C542 1.234 . S
O565 Mn540 2.209 . S
O565 Mn541 2.215 . S
O565 C542 1.283 . S
O566 Mn540 2.094 . S
O566 C544 1.240 . S
O567 Mn541 2.117 . S
O567 C544 1.264 . S
C568 C561 1.403 . S
C568 C569 1.399 . S
C568 H574 0.929 . S
C569 C549 1.449 . S
C569 C568 1.399 . S
C569 H575 0.930 . S
H570 C550 0.931 . S
H571 C551 0.930 . S
H572 C559 0.931 . S
H573 C560 0.929 . S
H574 C568 0.929 . S
H575 C569 0.930 . S
Mn576 O581 2.095 . S
Mn576 O591 2.162 . S
Mn576 O592 2.297 . S
Mn576 O600 2.385 . S
Mn576 O601 2.209 . S
Mn576 O602 2.094 . S
Mn577 O582 2.121 . S
Mn577 N584 2.257 . S
Mn577 N593 2.282 . S
Mn577 O601 2.215 . S
Mn577 O603 2.117 . S
C578 O600 1.234 . S
C578 O601 1.283 . S
C579 O591 1.281 . S
C579 O592 1.236 . S
C580 O602 1.240 . S
C580 O603 1.264 . S
O581 Mn576 2.095 . S
O581 C590 1.250 . S
O582 Mn577 2.121 . S
O582 C590 1.258 . S
C583 N584 1.326 . S
C583 C587 1.460 . S
C583 H589 0.929 . S
N584 Mn577 2.257 . S
N584 C583 1.326 . S
N584 C588 1.362 . S
C585 C586 1.258 . S
C585 C588 1.431 . S
C585 C605 1.449 . S
C586 C585 1.258 . S
C586 C587 1.477 . S
C586 H606 0.931 . S
C587 C583 1.460 . S
C587 C586 1.477 . S
C587 H607 0.930 . S
C588 N584 1.362 . S
C588 C585 1.431 . S
C588 C598 1.476 . S
H589 C583 0.929 . S
C590 O581 1.250 . S
C590 O582 1.258 . S
O591 Mn576 2.162 . S
O591 C579 1.281 . S
O592 Mn576 2.297 . S
O592 C579 1.236 . S
N593 Mn577 2.282 . S
N593 C594 1.328 . S
N593 C598 1.318 . S
C594 N593 1.328 . S
C594 C595 1.457 . S
C594 H599 0.929 . S
C595 C594 1.457 . S
C595 C596 1.291 . S
C595 H608 0.931 . S
C596 C595 1.291 . S
C596 C597 1.373 . S
C596 H609 0.929 . S
C597 C596 1.373 . S
C597 C598 1.396 . S
C597 C604 1.403 . S
C598 C588 1.476 . S
C598 N593 1.318 . S
C598 C597 1.396 . S
H599 C594 0.929 . S
O600 Mn576 2.385 . S
O600 C578 1.234 . S
O601 Mn576 2.209 . S
O601 Mn577 2.215 . S
O601 C578 1.283 . S
O602 Mn576 2.094 . S
O602 C580 1.240 . S
O603 Mn577 2.117 . S
O603 C580 1.264 . S
C604 C597 1.403 . S
C604 C605 1.399 . S
C604 H610 0.929 . S
C605 C585 1.449 . S
C605 C604 1.399 . S
C605 H611 0.930 . S
H606 C586 0.931 . S
H607 C587 0.930 . S
H608 C595 0.931 . S
H609 C596 0.929 . S
H610 C604 0.929 . S
H611 C605 0.930 . S
Mn612 O617 2.095 . S
Mn612 O627 2.162 . S
Mn612 O628 2.297 . S
Mn612 O636 2.385 . S
Mn612 O637 2.209 . S
Mn612 O638 2.094 . S
Mn613 O618 2.121 . S
Mn613 N620 2.257 . S
Mn613 N629 2.282 . S
Mn613 O637 2.215 . S
Mn613 O639 2.117 . S
C614 O636 1.234 . S
C614 O637 1.283 . S
C615 O627 1.281 . S
C615 O628 1.236 . S
C616 O638 1.240 . S
C616 O639 1.264 . S
O617 Mn612 2.095 . S
O617 C626 1.250 . S
O618 Mn613 2.121 . S
O618 C626 1.258 . S
C619 N620 1.326 . S
C619 C623 1.460 . S
C619 H625 0.929 . S
N620 Mn613 2.257 . S
N620 C619 1.326 . S
N620 C624 1.362 . S
C621 C622 1.258 . S
C621 C624 1.431 . S
C621 C641 1.449 . S
C622 C621 1.258 . S
C622 C623 1.477 . S
C622 H642 0.931 . S
C623 C619 1.460 . S
C623 C622 1.477 . S
C623 H643 0.930 . S
C624 N620 1.362 . S
C624 C621 1.431 . S
C624 C634 1.476 . S
H625 C619 0.929 . S
C626 O617 1.250 . S
C626 O618 1.258 . S
O627 Mn612 2.162 . S
O627 C615 1.281 . S
O628 Mn612 2.297 . S
O628 C615 1.236 . S
N629 Mn613 2.282 . S
N629 C630 1.328 . S
N629 C634 1.318 . S
C630 N629 1.328 . S
C630 C631 1.457 . S
C630 H635 0.929 . S
C631 C630 1.457 . S
C631 C632 1.291 . S
C631 H644 0.931 . S
C632 C631 1.291 . S
C632 C633 1.373 . S
C632 H645 0.929 . S
C633 C632 1.373 . S
C633 C634 1.396 . S
C633 C640 1.403 . S
C634 C624 1.476 . S
C634 N629 1.318 . S
C634 C633 1.396 . S
H635 C630 0.929 . S
O636 Mn612 2.385 . S
O636 C614 1.234 . S
O637 Mn612 2.209 . S
O637 Mn613 2.215 . S
O637 C614 1.283 . S
O638 Mn612 2.094 . S
O638 C616 1.240 . S
O639 Mn613 2.117 . S
O639 C616 1.264 . S
C640 C633 1.403 . S
C640 C641 1.399 . S
C640 H646 0.929 . S
C641 C621 1.449 . S
C641 C640 1.399 . S
C641 H647 0.930 . S
H642 C622 0.931 . S
H643 C623 0.930 . S
H644 C631 0.931 . S
H645 C632 0.929 . S
H646 C640 0.929 . S
H647 C641 0.930 . S
Mn648 O653 2.095 . S
Mn648 O663 2.162 . S
Mn648 O664 2.297 . S
Mn648 O672 2.385 . S
Mn648 O673 2.209 . S
Mn648 O674 2.094 . S
Mn649 O654 2.121 . S
Mn649 N656 2.257 . S
Mn649 N665 2.282 . S
Mn649 O673 2.215 . S
Mn649 O675 2.117 . S
C650 O672 1.234 . S
C650 O673 1.283 . S
C651 O663 1.281 . S
C651 O664 1.236 . S
C652 O674 1.240 . S
C652 O675 1.264 . S
O653 Mn648 2.095 . S
O653 C662 1.250 . S
O654 Mn649 2.121 . S
O654 C662 1.258 . S
C655 N656 1.326 . S
C655 C659 1.460 . S
C655 H661 0.929 . S
N656 Mn649 2.257 . S
N656 C655 1.326 . S
N656 C660 1.362 . S
C657 C658 1.258 . S
C657 C660 1.431 . S
C657 C677 1.449 . S
C658 C657 1.258 . S
C658 C659 1.477 . S
C658 H678 0.931 . S
C659 C655 1.460 . S
C659 C658 1.477 . S
C659 H679 0.930 . S
C660 N656 1.362 . S
C660 C657 1.431 . S
C660 C670 1.476 . S
H661 C655 0.929 . S
C662 O653 1.250 . S
C662 O654 1.258 . S
O663 Mn648 2.162 . S
O663 C651 1.281 . S
O664 Mn648 2.297 . S
O664 C651 1.236 . S
N665 Mn649 2.282 . S
N665 C666 1.328 . S
N665 C670 1.318 . S
C666 N665 1.328 . S
C666 C667 1.457 . S
C666 H671 0.929 . S
C667 C666 1.457 . S
C667 C668 1.291 . S
C667 H680 0.931 . S
C668 C667 1.291 . S
C668 C669 1.373 . S
C668 H681 0.929 . S
C669 C668 1.373 . S
C669 C670 1.396 . S
C669 C676 1.403 . S
C670 C660 1.476 . S
C670 N665 1.318 . S
C670 C669 1.396 . S
H671 C666 0.929 . S
O672 Mn648 2.385 . S
O672 C650 1.234 . S
O673 Mn648 2.209 . S
O673 Mn649 2.215 . S
O673 C650 1.283 . S
O674 Mn648 2.094 . S
O674 C652 1.240 . S
O675 Mn649 2.117 . S
O675 C652 1.264 . S
C676 C669 1.403 . S
C676 C677 1.399 . S
C676 H682 0.929 . S
C677 C657 1.449 . S
C677 C676 1.399 . S
C677 H683 0.930 . S
H678 C658 0.931 . S
H679 C659 0.930 . S
H680 C667 0.931 . S
H681 C668 0.929 . S
H682 C676 0.929 . S
H683 C677 0.930 . S
Mn684 O689 2.095 . S
Mn684 O699 2.162 . S
Mn684 O700 2.297 . S
Mn684 O708 2.385 . S
Mn684 O709 2.209 . S
Mn684 O710 2.094 . S
Mn685 O690 2.121 . S
Mn685 N692 2.257 . S
Mn685 N701 2.282 . S
Mn685 O709 2.215 . S
Mn685 O711 2.117 . S
C686 O708 1.234 . S
C686 O709 1.283 . S
C687 O699 1.281 . S
C687 O700 1.236 . S
C688 O710 1.240 . S
C688 O711 1.264 . S
O689 Mn684 2.095 . S
O689 C698 1.250 . S
O690 Mn685 2.121 . S
O690 C698 1.258 . S
C691 N692 1.326 . S
C691 C695 1.460 . S
C691 H697 0.929 . S
N692 Mn685 2.257 . S
N692 C691 1.326 . S
N692 C696 1.362 . S
C693 C694 1.258 . S
C693 C696 1.431 . S
C693 C713 1.449 . S
C694 C693 1.258 . S
C694 C695 1.477 . S
C694 H714 0.931 . S
C695 C691 1.460 . S
C695 C694 1.477 . S
C695 H715 0.930 . S
C696 N692 1.362 . S
C696 C693 1.431 . S
C696 C706 1.476 . S
H697 C691 0.929 . S
C698 O689 1.250 . S
C698 O690 1.258 . S
O699 Mn684 2.162 . S
O699 C687 1.281 . S
O700 Mn684 2.297 . S
O700 C687 1.236 . S
N701 Mn685 2.282 . S
N701 C702 1.328 . S
N701 C706 1.318 . S
C702 N701 1.328 . S
C702 C703 1.457 . S
C702 H707 0.929 . S
C703 C702 1.457 . S
C703 C704 1.291 . S
C703 H716 0.931 . S
C704 C703 1.291 . S
C704 C705 1.373 . S
C704 H717 0.929 . S
C705 C704 1.373 . S
C705 C706 1.396 . S
C705 C712 1.403 . S
C706 C696 1.476 . S
C706 N701 1.318 . S
C706 C705 1.396 . S
H707 C702 0.929 . S
O708 Mn684 2.385 . S
O708 C686 1.234 . S
O709 Mn684 2.209 . S
O709 Mn685 2.215 . S
O709 C686 1.283 . S
O710 Mn684 2.094 . S
O710 C688 1.240 . S
O711 Mn685 2.117 . S
O711 C688 1.264 . S
C712 C705 1.403 . S
C712 C713 1.399 . S
C712 H718 0.929 . S
C713 C693 1.449 . S
C713 C712 1.399 . S
C713 H719 0.930 . S
H714 C694 0.931 . S
H715 C695 0.930 . S
H716 C703 0.931 . S
H717 C704 0.929 . S
H718 C712 0.929 . S
H719 C713 0.930 . S
Mn720 O725 2.095 . S
Mn720 O735 2.162 . S
Mn720 O736 2.297 . S
Mn720 O744 2.385 . S
Mn720 O745 2.209 . S
Mn720 O746 2.094 . S
Mn721 O726 2.121 . S
Mn721 N728 2.257 . S
Mn721 N737 2.282 . S
Mn721 O745 2.215 . S
Mn721 O747 2.117 . S
C722 O744 1.234 . S
C722 O745 1.283 . S
C723 O735 1.281 . S
C723 O736 1.236 . S
C724 O746 1.240 . S
C724 O747 1.264 . S
O725 Mn720 2.095 . S
O725 C734 1.250 . S
O726 Mn721 2.121 . S
O726 C734 1.258 . S
C727 N728 1.326 . S
C727 C731 1.460 . S
C727 H733 0.929 . S
N728 Mn721 2.257 . S
N728 C727 1.326 . S
N728 C732 1.362 . S
C729 C730 1.258 . S
C729 C732 1.431 . S
C729 C749 1.449 . S
C730 C729 1.258 . S
C730 C731 1.477 . S
C730 H750 0.931 . S
C731 C727 1.460 . S
C731 C730 1.477 . S
C731 H751 0.930 . S
C732 N728 1.362 . S
C732 C729 1.431 . S
C732 C742 1.476 . S
H733 C727 0.929 . S
C734 O725 1.250 . S
C734 O726 1.258 . S
O735 Mn720 2.162 . S
O735 C723 1.281 . S
O736 Mn720 2.297 . S
O736 C723 1.236 . S
N737 Mn721 2.282 . S
N737 C738 1.328 . S
N737 C742 1.318 . S
C738 N737 1.328 . S
C738 C739 1.457 . S
C738 H743 0.929 . S
C739 C738 1.457 . S
C739 C740 1.291 . S
C739 H752 0.931 . S
C740 C739 1.291 . S
C740 C741 1.373 . S
C740 H753 0.929 . S
C741 C740 1.373 . S
C741 C742 1.396 . S
C741 C748 1.403 . S
C742 C732 1.476 . S
C742 N737 1.318 . S
C742 C741 1.396 . S
H743 C738 0.929 . S
O744 Mn720 2.385 . S
O744 C722 1.234 . S
O745 Mn720 2.209 . S
O745 Mn721 2.215 . S
O745 C722 1.283 . S
O746 Mn720 2.094 . S
O746 C724 1.240 . S
O747 Mn721 2.117 . S
O747 C724 1.264 . S
C748 C741 1.403 . S
C748 C749 1.399 . S
C748 H754 0.929 . S
C749 C729 1.449 . S
C749 C748 1.399 . S
C749 H755 0.930 . S
H750 C730 0.931 . S
H751 C731 0.930 . S
H752 C739 0.931 . S
H753 C740 0.929 . S
H754 C748 0.929 . S
H755 C749 0.930 . S
Mn756 O761 2.095 . S
Mn756 O771 2.162 . S
Mn756 O772 2.297 . S
Mn756 O780 2.385 . S
Mn756 O781 2.209 . S
Mn756 O782 2.094 . S
Mn757 O762 2.121 . S
Mn757 N764 2.257 . S
Mn757 N773 2.282 . S
Mn757 O781 2.215 . S
Mn757 O783 2.117 . S
C758 O780 1.234 . S
C758 O781 1.283 . S
C759 O771 1.281 . S
C759 O772 1.236 . S
C760 O782 1.240 . S
C760 O783 1.264 . S
O761 Mn756 2.095 . S
O761 C770 1.250 . S
O762 Mn757 2.121 . S
O762 C770 1.258 . S
C763 N764 1.326 . S
C763 C767 1.460 . S
C763 H769 0.929 . S
N764 Mn757 2.257 . S
N764 C763 1.326 . S
N764 C768 1.362 . S
C765 C766 1.258 . S
C765 C768 1.431 . S
C765 C785 1.449 . S
C766 C765 1.258 . S
C766 C767 1.477 . S
C766 H786 0.931 . S
C767 C763 1.460 . S
C767 C766 1.477 . S
C767 H787 0.930 . S
C768 N764 1.362 . S
C768 C765 1.431 . S
C768 C778 1.476 . S
H769 C763 0.929 . S
C770 O761 1.250 . S
C770 O762 1.258 . S
O771 Mn756 2.162 . S
O771 C759 1.281 . S
O772 Mn756 2.297 . S
O772 C759 1.236 . S
N773 Mn757 2.282 . S
N773 C774 1.328 . S
N773 C778 1.318 . S
C774 N773 1.328 . S
C774 C775 1.457 . S
C774 H779 0.929 . S
C775 C774 1.457 . S
C775 C776 1.291 . S
C775 H788 0.931 . S
C776 C775 1.291 . S
C776 C777 1.373 . S
C776 H789 0.929 . S
C777 C776 1.373 . S
C777 C778 1.396 . S
C777 C784 1.403 . S
C778 C768 1.476 . S
C778 N773 1.318 . S
C778 C777 1.396 . S
H779 C774 0.929 . S
O780 Mn756 2.385 . S
O780 C758 1.234 . S
O781 Mn756 2.209 . S
O781 Mn757 2.215 . S
O781 C758 1.283 . S
O782 Mn756 2.094 . S
O782 C760 1.240 . S
O783 Mn757 2.117 . S
O783 C760 1.264 . S
C784 C777 1.403 . S
C784 C785 1.399 . S
C784 H790 0.929 . S
C785 C765 1.449 . S
C785 C784 1.399 . S
C785 H791 0.930 . S
H786 C766 0.931 . S
H787 C767 0.930 . S
H788 C775 0.931 . S
H789 C776 0.929 . S
H790 C784 0.929 . S
H791 C785 0.930 . S
Mn792 O797 2.095 . S
Mn792 O807 2.162 . S
Mn792 O808 2.297 . S
Mn792 O816 2.385 . S
Mn792 O817 2.209 . S
Mn792 O818 2.094 . S
Mn793 O798 2.121 . S
Mn793 N800 2.257 . S
Mn793 N809 2.282 . S
Mn793 O817 2.215 . S
Mn793 O819 2.117 . S
C794 O816 1.234 . S
C794 O817 1.283 . S
C795 O807 1.281 . S
C795 O808 1.236 . S
C796 O818 1.240 . S
C796 O819 1.264 . S
O797 Mn792 2.095 . S
O797 C806 1.250 . S
O798 Mn793 2.121 . S
O798 C806 1.258 . S
C799 N800 1.326 . S
C799 C803 1.460 . S
C799 H805 0.929 . S
N800 Mn793 2.257 . S
N800 C799 1.326 . S
N800 C804 1.362 . S
C801 C802 1.258 . S
C801 C804 1.431 . S
C801 C821 1.449 . S
C802 C801 1.258 . S
C802 C803 1.477 . S
C802 H822 0.931 . S
C803 C799 1.460 . S
C803 C802 1.477 . S
C803 H823 0.930 . S
C804 N800 1.362 . S
C804 C801 1.431 . S
C804 C814 1.476 . S
H805 C799 0.929 . S
C806 O797 1.250 . S
C806 O798 1.258 . S
O807 Mn792 2.162 . S
O807 C795 1.281 . S
O808 Mn792 2.297 . S
O808 C795 1.236 . S
N809 Mn793 2.282 . S
N809 C810 1.328 . S
N809 C814 1.318 . S
C810 N809 1.328 . S
C810 C811 1.457 . S
C810 H815 0.929 . S
C811 C810 1.457 . S
C811 C812 1.291 . S
C811 H824 0.931 . S
C812 C811 1.291 . S
C812 C813 1.373 . S
C812 H825 0.929 . S
C813 C812 1.373 . S
C813 C814 1.396 . S
C813 C820 1.403 . S
C814 C804 1.476 . S
C814 N809 1.318 . S
C814 C813 1.396 . S
H815 C810 0.929 . S
O816 Mn792 2.385 . S
O816 C794 1.234 . S
O817 Mn792 2.209 . S
O817 Mn793 2.215 . S
O817 C794 1.283 . S
O818 Mn792 2.094 . S
O818 C796 1.240 . S
O819 Mn793 2.117 . S
O819 C796 1.264 . S
C820 C813 1.403 . S
C820 C821 1.399 . S
C820 H826 0.929 . S
C821 C801 1.449 . S
C821 C820 1.399 . S
C821 H827 0.930 . S
H822 C802 0.931 . S
H823 C803 0.930 . S
H824 C811 0.931 . S
H825 C812 0.929 . S
H826 C820 0.929 . S
H827 C821 0.930 . S
Mn828 O833 2.095 . S
Mn828 O843 2.162 . S
Mn828 O844 2.297 . S
Mn828 O852 2.385 . S
Mn828 O853 2.209 . S
Mn828 O854 2.094 . S
Mn829 O834 2.121 . S
Mn829 N836 2.257 . S
Mn829 N845 2.282 . S
Mn829 O853 2.215 . S
Mn829 O855 2.117 . S
C830 O852 1.234 . S
C830 O853 1.283 . S
C831 O843 1.281 . S
C831 O844 1.236 . S
C832 O854 1.240 . S
C832 O855 1.264 . S
O833 Mn828 2.095 . S
O833 C842 1.250 . S
O834 Mn829 2.121 . S
O834 C842 1.258 . S
C835 N836 1.326 . S
C835 C839 1.460 . S
C835 H841 0.929 . S
N836 Mn829 2.257 . S
N836 C835 1.326 . S
N836 C840 1.362 . S
C837 C838 1.258 . S
C837 C840 1.431 . S
C837 C857 1.449 . S
C838 C837 1.258 . S
C838 C839 1.477 . S
C838 H858 0.931 . S
C839 C835 1.460 . S
C839 C838 1.477 . S
C839 H859 0.930 . S
C840 N836 1.362 . S
C840 C837 1.431 . S
C840 C850 1.476 . S
H841 C835 0.929 . S
C842 O833 1.250 . S
C842 O834 1.258 . S
O843 Mn828 2.162 . S
O843 C831 1.281 . S
O844 Mn828 2.297 . S
O844 C831 1.236 . S
N845 Mn829 2.282 . S
N845 C846 1.328 . S
N845 C850 1.318 . S
C846 N845 1.328 . S
C846 C847 1.457 . S
C846 H851 0.929 . S
C847 C846 1.457 . S
C847 C848 1.291 . S
C847 H860 0.931 . S
C848 C847 1.291 . S
C848 C849 1.373 . S
C848 H861 0.929 . S
C849 C848 1.373 . S
C849 C850 1.396 . S
C849 C856 1.403 . S
C850 C840 1.476 . S
C850 N845 1.318 . S
C850 C849 1.396 . S
H851 C846 0.929 . S
O852 Mn828 2.385 . S
O852 C830 1.234 . S
O853 Mn828 2.209 . S
O853 Mn829 2.215 . S
O853 C830 1.283 . S
O854 Mn828 2.094 . S
O854 C832 1.240 . S
O855 Mn829 2.117 . S
O855 C832 1.264 . S
C856 C849 1.403 . S
C856 C857 1.399 . S
C856 H862 0.929 . S
C857 C837 1.449 . S
C857 C856 1.399 . S
C857 H863 0.930 . S
H858 C838 0.931 . S
H859 C839 0.930 . S
H860 C847 0.931 . S
H861 C848 0.929 . S
H862 C856 0.929 . S
H863 C857 0.930 . S
Mn864 O869 2.095 . S
Mn864 O879 2.162 . S
Mn864 O880 2.297 . S
Mn864 O888 2.385 . S
Mn864 O889 2.209 . S
Mn864 O890 2.094 . S
Mn865 O870 2.121 . S
Mn865 N872 2.257 . S
Mn865 N881 2.282 . S
Mn865 O889 2.215 . S
Mn865 O891 2.117 . S
C866 O888 1.234 . S
C866 O889 1.283 . S
C867 O879 1.281 . S
C867 O880 1.236 . S
C868 O890 1.240 . S
C868 O891 1.264 . S
O869 Mn864 2.095 . S
O869 C878 1.250 . S
O870 Mn865 2.121 . S
O870 C878 1.258 . S
C871 N872 1.326 . S
C871 C875 1.460 . S
C871 H877 0.929 . S
N872 Mn865 2.257 . S
N872 C871 1.326 . S
N872 C876 1.362 . S
C873 C874 1.258 . S
C873 C876 1.431 . S
C873 C893 1.449 . S
C874 C873 1.258 . S
C874 C875 1.477 . S
C874 H894 0.931 . S
C875 C871 1.460 . S
C875 C874 1.477 . S
C875 H895 0.930 . S
C876 N872 1.362 . S
C876 C873 1.431 . S
C876 C886 1.476 . S
H877 C871 0.929 . S
C878 O869 1.250 . S
C878 O870 1.258 . S
O879 Mn864 2.162 . S
O879 C867 1.281 . S
O880 Mn864 2.297 . S
O880 C867 1.236 . S
N881 Mn865 2.282 . S
N881 C882 1.328 . S
N881 C886 1.318 . S
C882 N881 1.328 . S
C882 C883 1.457 . S
C882 H887 0.929 . S
C883 C882 1.457 . S
C883 C884 1.291 . S
C883 H896 0.931 . S
C884 C883 1.291 . S
C884 C885 1.373 . S
C884 H897 0.929 . S
C885 C884 1.373 . S
C885 C886 1.396 . S
C885 C892 1.403 . S
C886 C876 1.476 . S
C886 N881 1.318 . S
C886 C885 1.396 . S
H887 C882 0.929 . S
O888 Mn864 2.385 . S
O888 C866 1.234 . S
O889 Mn864 2.209 . S
O889 Mn865 2.215 . S
O889 C866 1.283 . S
O890 Mn864 2.094 . S
O890 C868 1.240 . S
O891 Mn865 2.117 . S
O891 C868 1.264 . S
C892 C885 1.403 . S
C892 C893 1.399 . S
C892 H898 0.929 . S
C893 C873 1.449 . S
C893 C892 1.399 . S
C893 H899 0.930 . S
H894 C874 0.931 . S
H895 C875 0.930 . S
H896 C883 0.931 . S
H897 C884 0.929 . S
H898 C892 0.929 . S
H899 C893 0.930 . S
Mn900 O905 2.095 . S
Mn900 O915 2.162 . S
Mn900 O916 2.297 . S
Mn900 O924 2.385 . S
Mn900 O925 2.209 . S
Mn900 O926 2.094 . S
Mn901 O906 2.121 . S
Mn901 N908 2.257 . S
Mn901 N917 2.282 . S
Mn901 O925 2.215 . S
Mn901 O927 2.117 . S
C902 O924 1.234 . S
C902 O925 1.283 . S
C903 O915 1.281 . S
C903 O916 1.236 . S
C904 O926 1.240 . S
C904 O927 1.264 . S
O905 Mn900 2.095 . S
O905 C914 1.250 . S
O906 Mn901 2.121 . S
O906 C914 1.258 . S
C907 N908 1.326 . S
C907 C911 1.460 . S
C907 H913 0.929 . S
N908 Mn901 2.257 . S
N908 C907 1.326 . S
N908 C912 1.362 . S
C909 C910 1.258 . S
C909 C912 1.431 . S
C909 C929 1.449 . S
C910 C909 1.258 . S
C910 C911 1.477 . S
C910 H930 0.931 . S
C911 C907 1.460 . S
C911 C910 1.477 . S
C911 H931 0.930 . S
C912 N908 1.362 . S
C912 C909 1.431 . S
C912 C922 1.476 . S
H913 C907 0.929 . S
C914 O905 1.250 . S
C914 O906 1.258 . S
O915 Mn900 2.162 . S
O915 C903 1.281 . S
O916 Mn900 2.297 . S
O916 C903 1.236 . S
N917 Mn901 2.282 . S
N917 C918 1.328 . S
N917 C922 1.318 . S
C918 N917 1.328 . S
C918 C919 1.457 . S
C918 H923 0.929 . S
C919 C918 1.457 . S
C919 C920 1.291 . S
C919 H932 0.931 . S
C920 C919 1.291 . S
C920 C921 1.373 . S
C920 H933 0.929 . S
C921 C920 1.373 . S
C921 C922 1.396 . S
C921 C928 1.403 . S
C922 C912 1.476 . S
C922 N917 1.318 . S
C922 C921 1.396 . S
H923 C918 0.929 . S
O924 Mn900 2.385 . S
O924 C902 1.234 . S
O925 Mn900 2.209 . S
O925 Mn901 2.215 . S
O925 C902 1.283 . S
O926 Mn900 2.094 . S
O926 C904 1.240 . S
O927 Mn901 2.117 . S
O927 C904 1.264 . S
C928 C921 1.403 . S
C928 C929 1.399 . S
C928 H934 0.929 . S
C929 C909 1.449 . S
C929 C928 1.399 . S
C929 H935 0.930 . S
H930 C910 0.931 . S
H931 C911 0.930 . S
H932 C919 0.931 . S
H933 C920 0.929 . S
H934 C928 0.929 . S
H935 C929 0.930 . S
Mn936 O941 2.095 . S
Mn936 O951 2.162 . S
Mn936 O952 2.297 . S
Mn936 O960 2.385 . S
Mn936 O961 2.209 . S
Mn936 O962 2.094 . S
Mn937 O942 2.121 . S
Mn937 N944 2.257 . S
Mn937 N953 2.282 . S
Mn937 O961 2.215 . S
Mn937 O963 2.117 . S
C938 O960 1.234 . S
C938 O961 1.283 . S
C939 O951 1.281 . S
C939 O952 1.236 . S
C940 O962 1.240 . S
C940 O963 1.264 . S
O941 Mn936 2.095 . S
O941 C950 1.250 . S
O942 Mn937 2.121 . S
O942 C950 1.258 . S
C943 N944 1.326 . S
C943 C947 1.460 . S
C943 H949 0.929 . S
N944 Mn937 2.257 . S
N944 C943 1.326 . S
N944 C948 1.362 . S
C945 C946 1.258 . S
C945 C948 1.431 . S
C945 C965 1.449 . S
C946 C945 1.258 . S
C946 C947 1.477 . S
C946 H966 0.931 . S
C947 C943 1.460 . S
C947 C946 1.477 . S
C947 H967 0.930 . S
C948 N944 1.362 . S
C948 C945 1.431 . S
C948 C958 1.476 . S
H949 C943 0.929 . S
C950 O941 1.250 . S
C950 O942 1.258 . S
O951 Mn936 2.162 . S
O951 C939 1.281 . S
O952 Mn936 2.297 . S
O952 C939 1.236 . S
N953 Mn937 2.282 . S
N953 C954 1.328 . S
N953 C958 1.318 . S
C954 N953 1.328 . S
C954 C955 1.457 . S
C954 H959 0.929 . S
C955 C954 1.457 . S
C955 C956 1.291 . S
C955 H968 0.931 . S
C956 C955 1.291 . S
C956 C957 1.373 . S
C956 H969 0.929 . S
C957 C956 1.373 . S
C957 C958 1.396 . S
C957 C964 1.403 . S
C958 C948 1.476 . S
C958 N953 1.318 . S
C958 C957 1.396 . S
H959 C954 0.929 . S
O960 Mn936 2.385 . S
O960 C938 1.234 . S
O961 Mn936 2.209 . S
O961 Mn937 2.215 . S
O961 C938 1.283 . S
O962 Mn936 2.094 . S
O962 C940 1.240 . S
O963 Mn937 2.117 . S
O963 C940 1.264 . S
C964 C957 1.403 . S
C964 C965 1.399 . S
C964 H970 0.929 . S
C965 C945 1.449 . S
C965 C964 1.399 . S
C965 H971 0.930 . S
H966 C946 0.931 . S
H967 C947 0.930 . S
H968 C955 0.931 . S
H969 C956 0.929 . S
H970 C964 0.929 . S
H971 C965 0.930 . S
Mn972 O977 2.095 . S
Mn972 O987 2.162 . S
Mn972 O988 2.297 . S
Mn972 O996 2.385 . S
Mn972 O997 2.209 . S
Mn972 O998 2.094 . S
Mn973 O978 2.121 . S
Mn973 N980 2.257 . S
Mn973 N989 2.282 . S
Mn973 O997 2.215 . S
Mn973 O999 2.117 . S
C974 O996 1.234 . S
C974 O997 1.283 . S
C975 O987 1.281 . S
C975 O988 1.236 . S
C976 O998 1.240 . S
C976 O999 1.264 . S
O977 Mn972 2.095 . S
O977 C986 1.250 . S
O978 Mn973 2.121 . S
O978 C986 1.258 . S
C979 N980 1.326 . S
C979 C983 1.460 . S
C979 H985 0.929 . S
N980 Mn973 2.257 . S
N980 C979 1.326 . S
N980 C984 1.362 . S
C981 C982 1.258 . S
C981 C984 1.431 . S
C981 C1001 1.449 . S
C982 C981 1.258 . S
C982 C983 1.477 . S
C982 H1002 0.931 . S
C983 C979 1.460 . S
C983 C982 1.477 . S
C983 H1003 0.930 . S
C984 N980 1.362 . S
C984 C981 1.431 . S
C984 C994 1.476 . S
H985 C979 0.929 . S
C986 O977 1.250 . S
C986 O978 1.258 . S
O987 Mn972 2.162 . S
O987 C975 1.281 . S
O988 Mn972 2.297 . S
O988 C975 1.236 . S
N989 Mn973 2.282 . S
N989 C990 1.328 . S
N989 C994 1.318 . S
C990 N989 1.328 . S
C990 C991 1.457 . S
C990 H995 0.929 . S
C991 C990 1.457 . S
C991 C992 1.291 . S
C991 H1004 0.931 . S
C992 C991 1.291 . S
C992 C993 1.373 . S
C992 H1005 0.929 . S
C993 C992 1.373 . S
C993 C994 1.396 . S
C993 C1000 1.403 . S
C994 C984 1.476 . S
C994 N989 1.318 . S
C994 C993 1.396 . S
H995 C990 0.929 . S
O996 Mn972 2.385 . S
O996 C974 1.234 . S
O997 Mn972 2.209 . S
O997 Mn973 2.215 . S
O997 C974 1.283 . S
O998 Mn972 2.094 . S
O998 C976 1.240 . S
O999 Mn973 2.117 . S
O999 C976 1.264 . S
C1000 C993 1.403 . S
C1000 C1001 1.399 . S
C1000 H1006 0.929 . S
C1001 C981 1.449 . S
C1001 C1000 1.399 . S
C1001 H1007 0.930 . S
H1002 C982 0.931 . S
H1003 C983 0.930 . S
H1004 C991 0.931 . S
H1005 C992 0.929 . S
H1006 C1000 0.929 . S
H1007 C1001 0.930 . S
Mn1008 O1013 2.095 . S
Mn1008 O1023 2.162 . S
Mn1008 O1024 2.297 . S
Mn1008 O1032 2.385 . S
Mn1008 O1033 2.209 . S
Mn1008 O1034 2.094 . S
Mn1009 O1014 2.121 . S
Mn1009 N1016 2.257 . S
Mn1009 N1025 2.282 . S
Mn1009 O1033 2.215 . S
Mn1009 O1035 2.117 . S
C1010 O1032 1.234 . S
C1010 O1033 1.283 . S
C1011 O1023 1.281 . S
C1011 O1024 1.236 . S
C1012 O1034 1.240 . S
C1012 O1035 1.264 . S
O1013 Mn1008 2.095 . S
O1013 C1022 1.250 . S
O1014 Mn1009 2.121 . S
O1014 C1022 1.258 . S
C1015 N1016 1.326 . S
C1015 C1019 1.460 . S
C1015 H1021 0.929 . S
N1016 Mn1009 2.257 . S
N1016 C1015 1.326 . S
N1016 C1020 1.362 . S
C1017 C1018 1.258 . S
C1017 C1020 1.431 . S
C1017 C1037 1.449 . S
C1018 C1017 1.258 . S
C1018 C1019 1.477 . S
C1018 H1038 0.931 . S
C1019 C1015 1.460 . S
C1019 C1018 1.477 . S
C1019 H1039 0.930 . S
C1020 N1016 1.362 . S
C1020 C1017 1.431 . S
C1020 C1030 1.476 . S
H1021 C1015 0.929 . S
C1022 O1013 1.250 . S
C1022 O1014 1.258 . S
O1023 Mn1008 2.162 . S
O1023 C1011 1.281 . S
O1024 Mn1008 2.297 . S
O1024 C1011 1.236 . S
N1025 Mn1009 2.282 . S
N1025 C1026 1.328 . S
N1025 C1030 1.318 . S
C1026 N1025 1.328 . S
C1026 C1027 1.457 . S
C1026 H1031 0.929 . S
C1027 C1026 1.457 . S
C1027 C1028 1.291 . S
C1027 H1040 0.931 . S
C1028 C1027 1.291 . S
C1028 C1029 1.373 . S
C1028 H1041 0.929 . S
C1029 C1028 1.373 . S
C1029 C1030 1.396 . S
C1029 C1036 1.403 . S
C1030 C1020 1.476 . S
C1030 N1025 1.318 . S
C1030 C1029 1.396 . S
H1031 C1026 0.929 . S
O1032 Mn1008 2.385 . S
O1032 C1010 1.234 . S
O1033 Mn1008 2.209 . S
O1033 Mn1009 2.215 . S
O1033 C1010 1.283 . S
O1034 Mn1008 2.094 . S
O1034 C1012 1.240 . S
O1035 Mn1009 2.117 . S
O1035 C1012 1.264 . S
C1036 C1029 1.403 . S
C1036 C1037 1.399 . S
C1036 H1042 0.929 . S
C1037 C1017 1.449 . S
C1037 C1036 1.399 . S
C1037 H1043 0.930 . S
H1038 C1018 0.931 . S
H1039 C1019 0.930 . S
H1040 C1027 0.931 . S
H1041 C1028 0.929 . S
H1042 C1036 0.929 . S
H1043 C1037 0.930 . S
Mn1044 O1049 2.095 . S
Mn1044 O1059 2.162 . S
Mn1044 O1060 2.297 . S
Mn1044 O1068 2.385 . S
Mn1044 O1069 2.209 . S
Mn1044 O1070 2.094 . S
Mn1045 O1050 2.121 . S
Mn1045 N1052 2.257 . S
Mn1045 N1061 2.282 . S
Mn1045 O1069 2.215 . S
Mn1045 O1071 2.117 . S
C1046 O1068 1.234 . S
C1046 O1069 1.283 . S
C1047 O1059 1.281 . S
C1047 O1060 1.236 . S
C1048 O1070 1.240 . S
C1048 O1071 1.264 . S
O1049 Mn1044 2.095 . S
O1049 C1058 1.250 . S
O1050 Mn1045 2.121 . S
O1050 C1058 1.258 . S
C1051 N1052 1.326 . S
C1051 C1055 1.460 . S
C1051 H1057 0.929 . S
N1052 Mn1045 2.257 . S
N1052 C1051 1.326 . S
N1052 C1056 1.362 . S
C1053 C1054 1.258 . S
C1053 C1056 1.431 . S
C1053 C1073 1.449 . S
C1054 C1053 1.258 . S
C1054 C1055 1.477 . S
C1054 H1074 0.931 . S
C1055 C1051 1.460 . S
C1055 C1054 1.477 . S
C1055 H1075 0.930 . S
C1056 N1052 1.362 . S
C1056 C1053 1.431 . S
C1056 C1066 1.476 . S
H1057 C1051 0.929 . S
C1058 O1049 1.250 . S
C1058 O1050 1.258 . S
O1059 Mn1044 2.162 . S
O1059 C1047 1.281 . S
O1060 Mn1044 2.297 . S
O1060 C1047 1.236 . S
N1061 Mn1045 2.282 . S
N1061 C1062 1.328 . S
N1061 C1066 1.318 . S
C1062 N1061 1.328 . S
C1062 C1063 1.457 . S
C1062 H1067 0.929 . S
C1063 C1062 1.457 . S
C1063 C1064 1.291 . S
C1063 H1076 0.931 . S
C1064 C1063 1.291 . S
C1064 C1065 1.373 . S
C1064 H1077 0.929 . S
C1065 C1064 1.373 . S
C1065 C1066 1.396 . S
C1065 C1072 1.403 . S
C1066 C1056 1.476 . S
C1066 N1061 1.318 . S
C1066 C1065 1.396 . S
H1067 C1062 0.929 . S
O1068 Mn1044 2.385 . S
O1068 C1046 1.234 . S
O1069 Mn1044 2.209 . S
O1069 Mn1045 2.215 . S
O1069 C1046 1.283 . S
O1070 Mn1044 2.094 . S
O1070 C1048 1.240 . S
O1071 Mn1045 2.117 . S
O1071 C1048 1.264 . S
C1072 C1065 1.403 . S
C1072 C1073 1.399 . S
C1072 H1078 0.929 . S
C1073 C1053 1.449 . S
C1073 C1072 1.399 . S
C1073 H1079 0.930 . S
H1074 C1054 0.931 . S
H1075 C1055 0.930 . S
H1076 C1063 0.931 . S
H1077 C1064 0.929 . S
H1078 C1072 0.929 . S
H1079 C1073 0.930 . S
Mn1080 O1085 2.095 . S
Mn1080 O1095 2.162 . S
Mn1080 O1096 2.297 . S
Mn1080 O1104 2.385 . S
Mn1080 O1105 2.209 . S
Mn1080 O1106 2.094 . S
Mn1081 O1086 2.121 . S
Mn1081 N1088 2.257 . S
Mn1081 N1097 2.282 . S
Mn1081 O1105 2.215 . S
Mn1081 O1107 2.117 . S
C1082 O1104 1.234 . S
C1082 O1105 1.283 . S
C1083 O1095 1.281 . S
C1083 O1096 1.236 . S
C1084 O1106 1.240 . S
C1084 O1107 1.264 . S
O1085 Mn1080 2.095 . S
O1085 C1094 1.250 . S
O1086 Mn1081 2.121 . S
O1086 C1094 1.258 . S
C1087 N1088 1.326 . S
C1087 C1091 1.460 . S
C1087 H1093 0.929 . S
N1088 Mn1081 2.257 . S
N1088 C1087 1.326 . S
N1088 C1092 1.362 . S
C1089 C1090 1.258 . S
C1089 C1092 1.431 . S
C1089 C1109 1.449 . S
C1090 C1089 1.258 . S
C1090 C1091 1.477 . S
C1090 H1110 0.931 . S
C1091 C1087 1.460 . S
C1091 C1090 1.477 . S
C1091 H1111 0.930 . S
C1092 N1088 1.362 . S
C1092 C1089 1.431 . S
C1092 C1102 1.476 . S
H1093 C1087 0.929 . S
C1094 O1085 1.250 . S
C1094 O1086 1.258 . S
O1095 Mn1080 2.162 . S
O1095 C1083 1.281 . S
O1096 Mn1080 2.297 . S
O1096 C1083 1.236 . S
N1097 Mn1081 2.282 . S
N1097 C1098 1.328 . S
N1097 C1102 1.318 . S
C1098 N1097 1.328 . S
C1098 C1099 1.457 . S
C1098 H1103 0.929 . S
C1099 C1098 1.457 . S
C1099 C1100 1.291 . S
C1099 H1112 0.931 . S
C1100 C1099 1.291 . S
C1100 C1101 1.373 . S
C1100 H1113 0.929 . S
C1101 C1100 1.373 . S
C1101 C1102 1.396 . S
C1101 C1108 1.403 . S
C1102 C1092 1.476 . S
C1102 N1097 1.318 . S
C1102 C1101 1.396 . S
H1103 C1098 0.929 . S
O1104 Mn1080 2.385 . S
O1104 C1082 1.234 . S
O1105 Mn1080 2.209 . S
O1105 Mn1081 2.215 . S
O1105 C1082 1.283 . S
O1106 Mn1080 2.094 . S
O1106 C1084 1.240 . S
O1107 Mn1081 2.117 . S
O1107 C1084 1.264 . S
C1108 C1101 1.403 . S
C1108 C1109 1.399 . S
C1108 H1114 0.929 . S
C1109 C1089 1.449 . S
C1109 C1108 1.399 . S
C1109 H1115 0.930 . S
H1110 C1090 0.931 . S
H1111 C1091 0.930 . S
H1112 C1099 0.931 . S
H1113 C1100 0.929 . S
H1114 C1108 0.929 . S
H1115 C1109 0.930 . S
Mn1116 O1121 2.095 . S
Mn1116 O1131 2.162 . S
Mn1116 O1132 2.297 . S
Mn1116 O1140 2.385 . S
Mn1116 O1141 2.209 . S
Mn1116 O1142 2.094 . S
Mn1117 O1122 2.121 . S
Mn1117 N1124 2.257 . S
Mn1117 N1133 2.282 . S
Mn1117 O1141 2.215 . S
Mn1117 O1143 2.117 . S
C1118 O1140 1.234 . S
C1118 O1141 1.283 . S
C1119 O1131 1.281 . S
C1119 O1132 1.236 . S
C1120 O1142 1.240 . S
C1120 O1143 1.264 . S
O1121 Mn1116 2.095 . S
O1121 C1130 1.250 . S
O1122 Mn1117 2.121 . S
O1122 C1130 1.258 . S
C1123 N1124 1.326 . S
C1123 C1127 1.460 . S
C1123 H1129 0.929 . S
N1124 Mn1117 2.257 . S
N1124 C1123 1.326 . S
N1124 C1128 1.362 . S
C1125 C1126 1.258 . S
C1125 C1128 1.431 . S
C1125 C1145 1.449 . S
C1126 C1125 1.258 . S
C1126 C1127 1.477 . S
C1126 H1146 0.931 . S
C1127 C1123 1.460 . S
C1127 C1126 1.477 . S
C1127 H1147 0.930 . S
C1128 N1124 1.362 . S
C1128 C1125 1.431 . S
C1128 C1138 1.476 . S
H1129 C1123 0.929 . S
C1130 O1121 1.250 . S
C1130 O1122 1.258 . S
O1131 Mn1116 2.162 . S
O1131 C1119 1.281 . S
O1132 Mn1116 2.297 . S
O1132 C1119 1.236 . S
N1133 Mn1117 2.282 . S
N1133 C1134 1.328 . S
N1133 C1138 1.318 . S
C1134 N1133 1.328 . S
C1134 C1135 1.457 . S
C1134 H1139 0.929 . S
C1135 C1134 1.457 . S
C1135 C1136 1.291 . S
C1135 H1148 0.931 . S
C1136 C1135 1.291 . S
C1136 C1137 1.373 . S
C1136 H1149 0.929 . S
C1137 C1136 1.373 . S
C1137 C1138 1.396 . S
C1137 C1144 1.403 . S
C1138 C1128 1.476 . S
C1138 N1133 1.318 . S
C1138 C1137 1.396 . S
H1139 C1134 0.929 . S
O1140 Mn1116 2.385 . S
O1140 C1118 1.234 . S
O1141 Mn1116 2.209 . S
O1141 Mn1117 2.215 . S
O1141 C1118 1.283 . S
O1142 Mn1116 2.094 . S
O1142 C1120 1.240 . S
O1143 Mn1117 2.117 . S
O1143 C1120 1.264 . S
C1144 C1137 1.403 . S
C1144 C1145 1.399 . S
C1144 H1150 0.929 . S
C1145 C1125 1.449 . S
C1145 C1144 1.399 . S
C1145 H1151 0.930 . S
H1146 C1126 0.931 . S
H1147 C1127 0.930 . S
H1148 C1135 0.931 . S
H1149 C1136 0.929 . S
H1150 C1144 0.929 . S
H1151 C1145 0.930 . S
C1152 C1153 1.387 . S
C1152 H1156 0.950 . S
C1152 C1161 1.390 . S
C1153 C1152 1.387 . S
C1153 C1155 1.387 . S
H1154 C1161 0.950 . S
C1155 C1153 1.387 . S
C1155 C1157 1.390 . S
C1155 H1159 0.950 . S
H1156 C1152 0.950 . S
C1157 C1155 1.390 . S
C1157 C1158 1.387 . S
C1157 H1160 0.950 . S
C1158 C1157 1.387 . S
C1158 C1161 1.387 . S
H1159 C1155 0.950 . S
H1160 C1157 0.950 . S
C1161 C1152 1.390 . S
C1161 H1154 0.950 . S
C1161 C1158 1.387 . S
C1162 C1163 1.387 . S
C1162 H1166 0.950 . S
C1162 C1171 1.390 . S
C1163 C1162 1.387 . S
C1163 C1165 1.387 . S
H1164 C1171 0.950 . S
C1165 C1163 1.387 . S
C1165 C1167 1.390 . S
C1165 H1169 0.950 . S
H1166 C1162 0.950 . S
C1167 C1165 1.390 . S
C1167 C1168 1.387 . S
C1167 H1170 0.950 . S
C1168 C1167 1.387 . S
C1168 C1171 1.387 . S
H1169 C1165 0.950 . S
H1170 C1167 0.950 . S
C1171 C1162 1.390 . S
C1171 H1164 0.950 . S
C1171 C1168 1.387 . S
C1172 C1173 1.387 . S
C1172 H1176 0.950 . S
C1172 C1181 1.390 . S
C1173 C1172 1.387 . S
C1173 C1175 1.387 . S
H1174 C1181 0.950 . S
C1175 C1173 1.387 . S
C1175 C1177 1.390 . S
C1175 H1179 0.950 . S
H1176 C1172 0.950 . S
C1177 C1175 1.390 . S
C1177 C1178 1.387 . S
C1177 H1180 0.950 . S
C1178 C1177 1.387 . S
C1178 C1181 1.387 . S
H1179 C1175 0.950 . S
H1180 C1177 0.950 . S
C1181 C1172 1.390 . S
C1181 H1174 0.950 . S
C1181 C1178 1.387 . S
C1182 C1183 1.387 . S
C1182 H1186 0.950 . S
C1182 C1191 1.390 . S
C1183 C1182 1.387 . S
C1183 C1185 1.387 . S
H1184 C1191 0.950 . S
C1185 C1183 1.387 . S
C1185 C1187 1.390 . S
C1185 H1189 0.950 . S
H1186 C1182 0.950 . S
C1187 C1185 1.390 . S
C1187 C1188 1.387 . S
C1187 H1190 0.950 . S
C1188 C1187 1.387 . S
C1188 C1191 1.387 . S
H1189 C1185 0.950 . S
H1190 C1187 0.950 . S
C1191 C1182 1.390 . S
C1191 H1184 0.950 . S
C1191 C1188 1.387 . S
C1192 C1193 1.387 . S
C1192 H1196 0.950 . S
C1192 C1201 1.390 . S
C1193 C1192 1.387 . S
C1193 C1195 1.387 . S
H1194 C1201 0.950 . S
C1195 C1193 1.387 . S
C1195 C1197 1.390 . S
C1195 H1199 0.950 . S
H1196 C1192 0.950 . S
C1197 C1195 1.390 . S
C1197 C1198 1.387 . S
C1197 H1200 0.950 . S
C1198 C1197 1.387 . S
C1198 C1201 1.387 . S
H1199 C1195 0.950 . S
H1200 C1197 0.950 . S
C1201 C1192 1.390 . S
C1201 H1194 0.950 . S
C1201 C1198 1.387 . S
C1202 C1203 1.387 . S
C1202 H1206 0.950 . S
C1202 C1211 1.390 . S
C1203 C1202 1.387 . S
C1203 C1205 1.387 . S
H1204 C1211 0.950 . S
C1205 C1203 1.387 . S
C1205 C1207 1.390 . S
C1205 H1209 0.950 . S
H1206 C1202 0.950 . S
C1207 C1205 1.390 . S
C1207 C1208 1.387 . S
C1207 H1210 0.950 . S
C1208 C1207 1.387 . S
C1208 C1211 1.387 . S
H1209 C1205 0.950 . S
H1210 C1207 0.950 . S
C1211 C1202 1.390 . S
C1211 H1204 0.950 . S
C1211 C1208 1.387 . S
C1212 C1213 1.387 . S
C1212 H1216 0.950 . S
C1212 C1221 1.390 . S
C1213 C1212 1.387 . S
C1213 C1215 1.387 . S
H1214 C1221 0.950 . S
C1215 C1213 1.387 . S
C1215 C1217 1.390 . S
C1215 H1219 0.950 . S
H1216 C1212 0.950 . S
C1217 C1215 1.390 . S
C1217 C1218 1.387 . S
C1217 H1220 0.950 . S
C1218 C1217 1.387 . S
C1218 C1221 1.387 . S
H1219 C1215 0.950 . S
H1220 C1217 0.950 . S
C1221 C1212 1.390 . S
C1221 H1214 0.950 . S
C1221 C1218 1.387 . S
C1222 C1223 1.387 . S
C1222 H1226 0.950 . S
C1222 C1231 1.390 . S
C1223 C1222 1.387 . S
C1223 C1225 1.387 . S
H1224 C1231 0.950 . S
C1225 C1223 1.387 . S
C1225 C1227 1.390 . S
C1225 H1229 0.950 . S
H1226 C1222 0.950 . S
C1227 C1225 1.390 . S
C1227 C1228 1.387 . S
C1227 H1230 0.950 . S
C1228 C1227 1.387 . S
C1228 C1231 1.387 . S
H1229 C1225 0.950 . S
H1230 C1227 0.950 . S
C1231 C1222 1.390 . S
C1231 H1224 0.950 . S
C1231 C1228 1.387 . S
C1232 C1233 1.387 . S
C1232 H1236 0.950 . S
C1232 C1241 1.390 . S
C1233 C1232 1.387 . S
C1233 C1235 1.387 . S
H1234 C1241 0.950 . S
C1235 C1233 1.387 . S
C1235 C1237 1.390 . S
C1235 H1239 0.950 . S
H1236 C1232 0.950 . S
C1237 C1235 1.390 . S
C1237 C1238 1.387 . S
C1237 H1240 0.950 . S
C1238 C1237 1.387 . S
C1238 C1241 1.387 . S
H1239 C1235 0.950 . S
H1240 C1237 0.950 . S
C1241 C1232 1.390 . S
C1241 H1234 0.950 . S
C1241 C1238 1.387 . S
C1242 C1243 1.387 . S
C1242 H1246 0.950 . S
C1242 C1251 1.390 . S
C1243 C1242 1.387 . S
C1243 C1245 1.387 . S
H1244 C1251 0.950 . S
C1245 C1243 1.387 . S
C1245 C1247 1.390 . S
C1245 H1249 0.950 . S
H1246 C1242 0.950 . S
C1247 C1245 1.390 . S
C1247 C1248 1.387 . S
C1247 H1250 0.950 . S
C1248 C1247 1.387 . S
C1248 C1251 1.387 . S
H1249 C1245 0.950 . S
H1250 C1247 0.950 . S
C1251 C1242 1.390 . S
C1251 H1244 0.950 . S
C1251 C1248 1.387 . S
C1252 C1253 1.387 . S
C1252 H1256 0.950 . S
C1252 C1261 1.390 . S
C1253 C1252 1.387 . S
C1253 C1255 1.387 . S
H1254 C1261 0.950 . S
C1255 C1253 1.387 . S
C1255 C1257 1.390 . S
C1255 H1259 0.950 . S
H1256 C1252 0.950 . S
C1257 C1255 1.390 . S
C1257 C1258 1.387 . S
C1257 H1260 0.950 . S
C1258 C1257 1.387 . S
C1258 C1261 1.387 . S
H1259 C1255 0.950 . S
H1260 C1257 0.950 . S
C1261 C1252 1.390 . S
C1261 H1254 0.950 . S
C1261 C1258 1.387 . S
C1262 C1263 1.387 . S
C1262 H1266 0.950 . S
C1262 C1271 1.390 . S
C1263 C1262 1.387 . S
C1263 C1265 1.387 . S
H1264 C1271 0.950 . S
C1265 C1263 1.387 . S
C1265 C1267 1.390 . S
C1265 H1269 0.950 . S
H1266 C1262 0.950 . S
C1267 C1265 1.390 . S
C1267 C1268 1.387 . S
C1267 H1270 0.950 . S
C1268 C1267 1.387 . S
C1268 C1271 1.387 . S
H1269 C1265 0.950 . S
H1270 C1267 0.950 . S
C1271 C1262 1.390 . S
C1271 H1264 0.950 . S
C1271 C1268 1.387 . S
C1272 C1273 1.387 . S
C1272 H1276 0.950 . S
C1272 C1281 1.390 . S
C1273 C1272 1.387 . S
C1273 C1275 1.387 . S
H1274 C1281 0.950 . S
C1275 C1273 1.387 . S
C1275 C1277 1.390 . S
C1275 H1279 0.950 . S
H1276 C1272 0.950 . S
C1277 C1275 1.390 . S
C1277 C1278 1.387 . S
C1277 H1280 0.950 . S
C1278 C1277 1.387 . S
C1278 C1281 1.387 . S
H1279 C1275 0.950 . S
H1280 C1277 0.950 . S
C1281 C1272 1.390 . S
C1281 H1274 0.950 . S
C1281 C1278 1.387 . S
C1282 C1283 1.387 . S
C1282 H1286 0.950 . S
C1282 C1291 1.390 . S
C1283 C1282 1.387 . S
C1283 C1285 1.387 . S
H1284 C1291 0.950 . S
C1285 C1283 1.387 . S
C1285 C1287 1.390 . S
C1285 H1289 0.950 . S
H1286 C1282 0.950 . S
C1287 C1285 1.390 . S
C1287 C1288 1.387 . S
C1287 H1290 0.950 . S
C1288 C1287 1.387 . S
C1288 C1291 1.387 . S
H1289 C1285 0.950 . S
H1290 C1287 0.950 . S
C1291 C1282 1.390 . S
C1291 H1284 0.950 . S
C1291 C1288 1.387 . S
C1292 C1293 1.387 . S
C1292 H1296 0.950 . S
C1292 C1301 1.390 . S
C1293 C1292 1.387 . S
C1293 C1295 1.387 . S
H1294 C1301 0.950 . S
C1295 C1293 1.387 . S
C1295 C1297 1.390 . S
C1295 H1299 0.950 . S
H1296 C1292 0.950 . S
C1297 C1295 1.390 . S
C1297 C1298 1.387 . S
C1297 H1300 0.950 . S
C1298 C1297 1.387 . S
C1298 C1301 1.387 . S
H1299 C1295 0.950 . S
H1300 C1297 0.950 . S
C1301 C1292 1.390 . S
C1301 H1294 0.950 . S
C1301 C1298 1.387 . S
C1302 C1303 1.387 . S
C1302 H1306 0.950 . S
C1302 C1311 1.390 . S
C1303 C1302 1.387 . S
C1303 C1305 1.387 . S
H1304 C1311 0.950 . S
C1305 C1303 1.387 . S
C1305 C1307 1.390 . S
C1305 H1309 0.950 . S
H1306 C1302 0.950 . S
C1307 C1305 1.390 . S
C1307 C1308 1.387 . S
C1307 H1310 0.950 . S
C1308 C1307 1.387 . S
C1308 C1311 1.387 . S
H1309 C1305 0.950 . S
H1310 C1307 0.950 . S
C1311 C1302 1.390 . S
C1311 H1304 0.950 . S
C1311 C1308 1.387 . S
C1312 C1313 1.387 . S
C1312 H1316 0.950 . S
C1312 C1321 1.390 1_554 S
C1313 C1312 1.387 . S
C1313 C1315 1.387 . S
H1314 C1321 0.950 . S
C1315 C1313 1.387 . S
C1315 C1317 1.390 1_554 S
C1315 H1319 0.950 . S
H1316 C1312 0.950 . S
C1317 C1315 1.390 1_556 S
C1317 C1318 1.387 . S
C1317 H1320 0.950 . S
C1318 C1317 1.387 . S
C1318 C1321 1.387 . S
H1319 C1315 0.950 . S
H1320 C1317 0.950 . S
C1321 C1312 1.390 1_556 S
C1321 H1314 0.950 . S
C1321 C1318 1.387 . S
C1322 C1323 1.387 . S
C1322 H1326 0.950 . S
C1322 C1331 1.390 1_556 S
C1323 C1322 1.387 . S
C1323 C1325 1.387 . S
H1324 C1331 0.950 . S
C1325 C1323 1.387 . S
C1325 C1327 1.390 1_556 S
C1325 H1329 0.950 . S
H1326 C1322 0.950 . S
C1327 C1325 1.390 1_554 S
C1327 C1328 1.387 . S
C1327 H1330 0.950 . S
C1328 C1327 1.387 . S
C1328 C1331 1.387 . S
H1329 C1325 0.950 . S
H1330 C1327 0.950 . S
C1331 C1322 1.390 1_554 S
C1331 H1324 0.950 . S
C1331 C1328 1.387 . S
C1332 C1333 1.387 . S
C1332 H1336 0.950 . S
C1332 C1341 1.390 1_556 S
C1333 C1332 1.387 . S
C1333 C1335 1.387 . S
H1334 C1341 0.950 . S
C1335 C1333 1.387 . S
C1335 C1337 1.390 1_556 S
C1335 H1339 0.950 . S
H1336 C1332 0.950 . S
C1337 C1335 1.390 1_554 S
C1337 C1338 1.387 . S
C1337 H1340 0.950 . S
C1338 C1337 1.387 . S
C1338 C1341 1.387 . S
H1339 C1335 0.950 . S
H1340 C1337 0.950 . S
C1341 C1332 1.390 1_554 S
C1341 H1334 0.950 . S
C1341 C1338 1.387 . S
C1342 C1343 1.387 . S
C1342 H1346 0.950 . S
C1342 C1351 1.390 1_556 S
C1343 C1342 1.387 . S
C1343 C1345 1.387 . S
H1344 C1351 0.950 . S
C1345 C1343 1.387 . S
C1345 C1347 1.390 1_556 S
C1345 H1349 0.950 . S
H1346 C1342 0.950 . S
C1347 C1345 1.390 1_554 S
C1347 C1348 1.387 . S
C1347 H1350 0.950 . S
C1348 C1347 1.387 . S
C1348 C1351 1.387 . S
H1349 C1345 0.950 . S
H1350 C1347 0.950 . S
C1351 C1342 1.390 1_554 S
C1351 H1344 0.950 . S
C1351 C1348 1.387 . S
C1352 C1353 1.387 . S
C1352 H1356 0.950 . S
C1352 C1361 1.390 . S
C1353 C1352 1.387 . S
C1353 C1355 1.387 . S
H1354 C1361 0.950 . S
C1355 C1353 1.387 . S
C1355 C1357 1.390 . S
C1355 H1359 0.950 . S
H1356 C1352 0.950 . S
C1357 C1355 1.390 . S
C1357 C1358 1.387 . S
C1357 H1360 0.950 . S
C1358 C1357 1.387 . S
C1358 C1361 1.387 . S
H1359 C1355 0.950 . S
H1360 C1357 0.950 . S
C1361 C1352 1.390 . S
C1361 H1354 0.950 . S
C1361 C1358 1.387 . S
C1362 C1363 1.387 . S
C1362 H1366 0.950 . S
C1362 C1371 1.390 . S
C1363 C1362 1.387 . S
C1363 C1365 1.387 . S
H1364 C1371 0.950 . S
C1365 C1363 1.387 . S
C1365 C1367 1.390 . S
C1365 H1369 0.950 . S
H1366 C1362 0.950 . S
C1367 C1365 1.390 . S
C1367 C1368 1.387 . S
C1367 H1370 0.950 . S
C1368 C1367 1.387 . S
C1368 C1371 1.387 . S
H1369 C1365 0.950 . S
H1370 C1367 0.950 . S
C1371 C1362 1.390 . S
C1371 H1364 0.950 . S
C1371 C1368 1.387 . S
C1372 C1373 1.387 . S
C1372 H1376 0.950 . S
C1372 C1381 1.390 . S
C1373 C1372 1.387 . S
C1373 C1375 1.387 . S
H1374 C1381 0.950 . S
C1375 C1373 1.387 . S
C1375 C1377 1.390 . S
C1375 H1379 0.950 . S
H1376 C1372 0.950 . S
C1377 C1375 1.390 . S
C1377 C1378 1.387 . S
C1377 H1380 0.950 . S
C1378 C1377 1.387 . S
C1378 C1381 1.387 . S
H1379 C1375 0.950 . S
H1380 C1377 0.950 . S
C1381 C1372 1.390 . S
C1381 H1374 0.950 . S
C1381 C1378 1.387 . S
C1382 C1383 1.387 . S
C1382 H1386 0.950 . S
C1382 C1391 1.390 . S
C1383 C1382 1.387 . S
C1383 C1385 1.387 . S
H1384 C1391 0.950 . S
C1385 C1383 1.387 . S
C1385 C1387 1.390 . S
C1385 H1389 0.950 . S
H1386 C1382 0.950 . S
C1387 C1385 1.390 . S
C1387 C1388 1.387 . S
C1387 H1390 0.950 . S
C1388 C1387 1.387 . S
C1388 C1391 1.387 . S
H1389 C1385 0.950 . S
H1390 C1387 0.950 . S
C1391 C1382 1.390 . S
C1391 H1384 0.950 . S
C1391 C1388 1.387 . S
C1392 C1393 1.387 . S
C1392 H1396 0.950 . S
C1392 C1401 1.390 . S
C1393 C1392 1.387 . S
C1393 C1395 1.387 . S
H1394 C1401 0.950 . S
C1395 C1393 1.387 . S
C1395 C1397 1.390 . S
C1395 H1399 0.950 . S
H1396 C1392 0.950 . S
C1397 C1395 1.390 . S
C1397 C1398 1.387 . S
C1397 H1400 0.950 . S
C1398 C1397 1.387 . S
C1398 C1401 1.387 . S
H1399 C1395 0.950 . S
H1400 C1397 0.950 . S
C1401 C1392 1.390 . S
C1401 H1394 0.950 . S
C1401 C1398 1.387 . S
C1402 C1403 1.387 . S
C1402 H1406 0.950 . S
C1402 C1411 1.390 . S
C1403 C1402 1.387 . S
C1403 C1405 1.387 . S
H1404 C1411 0.950 . S
C1405 C1403 1.387 . S
C1405 C1407 1.390 . S
C1405 H1409 0.950 . S
H1406 C1402 0.950 . S
C1407 C1405 1.390 . S
C1407 C1408 1.387 . S
C1407 H1410 0.950 . S
C1408 C1407 1.387 . S
C1408 C1411 1.387 . S
H1409 C1405 0.950 . S
H1410 C1407 0.950 . S
C1411 C1402 1.390 . S
C1411 H1404 0.950 . S
C1411 C1408 1.387 . S
C1412 C1413 1.387 . S
C1412 H1416 0.950 . S
C1412 C1421 1.390 . S
C1413 C1412 1.387 . S
C1413 C1415 1.387 . S
H1414 C1421 0.950 . S
C1415 C1413 1.387 . S
C1415 C1417 1.390 . S
C1415 H1419 0.950 . S
H1416 C1412 0.950 . S
C1417 C1415 1.390 . S
C1417 C1418 1.387 . S
C1417 H1420 0.950 . S
C1418 C1417 1.387 . S
C1418 C1421 1.387 . S
H1419 C1415 0.950 . S
H1420 C1417 0.950 . S
C1421 C1412 1.390 . S
C1421 H1414 0.950 . S
C1421 C1418 1.387 . S
C1422 C1423 1.387 . S
C1422 H1426 0.950 . S
C1422 C1431 1.390 . S
C1423 C1422 1.387 . S
C1423 C1425 1.387 . S
H1424 C1431 0.950 . S
C1425 C1423 1.387 . S
C1425 C1427 1.390 . S
C1425 H1429 0.950 . S
H1426 C1422 0.950 . S
C1427 C1425 1.390 . S
C1427 C1428 1.387 . S
C1427 H1430 0.950 . S
C1428 C1427 1.387 . S
C1428 C1431 1.387 . S
H1429 C1425 0.950 . S
H1430 C1427 0.950 . S
C1431 C1422 1.390 . S
C1431 H1424 0.950 . S
C1431 C1428 1.387 . S
C1432 C1433 1.387 . S
C1432 H1436 0.950 . S
C1432 C1441 1.390 1_556 S
C1433 C1432 1.387 . S
C1433 C1435 1.387 . S
H1434 C1441 0.950 . S
C1435 C1433 1.387 . S
C1435 C1437 1.390 1_556 S
C1435 H1439 0.950 . S
H1436 C1432 0.950 . S
C1437 C1435 1.390 1_554 S
C1437 C1438 1.387 . S
C1437 H1440 0.950 . S
C1438 C1437 1.387 . S
C1438 C1441 1.387 . S
H1439 C1435 0.950 . S
H1440 C1437 0.950 . S
C1441 C1432 1.390 1_554 S
C1441 H1434 0.950 . S
C1441 C1438 1.387 . S
C1442 C1443 1.387 . S
C1442 H1446 0.950 . S
C1442 C1451 1.390 1_554 S
C1443 C1442 1.387 . S
C1443 C1445 1.387 . S
H1444 C1451 0.950 . S
C1445 C1443 1.387 . S
C1445 C1447 1.390 1_554 S
C1445 H1449 0.950 . S
H1446 C1442 0.950 . S
C1447 C1445 1.390 1_556 S
C1447 C1448 1.387 . S
C1447 H1450 0.950 . S
C1448 C1447 1.387 . S
C1448 C1451 1.387 . S
H1449 C1445 0.950 . S
H1450 C1447 0.950 . S
C1451 C1442 1.390 1_556 S
C1451 H1444 0.950 . S
C1451 C1448 1.387 . S
C1452 C1453 1.387 . S
C1452 H1456 0.950 . S
C1452 C1461 1.390 1_554 S
C1453 C1452 1.387 . S
C1453 C1455 1.387 . S
H1454 C1461 0.950 . S
C1455 C1453 1.387 . S
C1455 C1457 1.390 1_554 S
C1455 H1459 0.950 . S
H1456 C1452 0.950 . S
C1457 C1455 1.390 1_556 S
C1457 C1458 1.387 . S
C1457 H1460 0.950 . S
C1458 C1457 1.387 . S
C1458 C1461 1.387 . S
H1459 C1455 0.950 . S
H1460 C1457 0.950 . S
C1461 C1452 1.390 1_556 S
C1461 H1454 0.950 . S
C1461 C1458 1.387 . S
C1462 C1463 1.387 . S
C1462 H1466 0.950 . S
C1462 C1471 1.390 1_556 S
C1463 C1462 1.387 . S
C1463 C1465 1.387 . S
H1464 C1471 0.950 . S
C1465 C1463 1.387 . S
C1465 C1467 1.390 1_556 S
C1465 H1469 0.950 . S
H1466 C1462 0.950 . S
C1467 C1465 1.390 1_554 S
C1467 C1468 1.387 . S
C1467 H1470 0.950 . S
C1468 C1467 1.387 . S
C1468 C1471 1.387 . S
H1469 C1465 0.950 . S
H1470 C1467 0.950 . S
C1471 C1462 1.390 1_554 S
C1471 H1464 0.950 . S
C1471 C1468 1.387 . S
C1472 C1473 1.387 . S
C1472 H1476 0.950 . S
C1472 C1481 1.390 1_545 S
C1473 C1472 1.387 . S
C1473 C1475 1.387 . S
H1474 C1481 0.950 . S
C1475 C1473 1.387 . S
C1475 C1477 1.390 1_545 S
C1475 H1479 0.950 . S
H1476 C1472 0.950 . S
C1477 C1475 1.390 1_565 S
C1477 C1478 1.387 . S
C1477 H1480 0.950 . S
C1478 C1477 1.387 . S
C1478 C1481 1.387 . S
H1479 C1475 0.950 . S
H1480 C1477 0.950 . S
C1481 C1472 1.390 1_565 S
C1481 H1474 0.950 . S
C1481 C1478 1.387 . S
C1482 C1483 1.387 . S
C1482 H1486 0.950 . S
C1482 C1491 1.390 1_655 S
C1483 C1482 1.387 . S
C1483 C1485 1.387 . S
H1484 C1491 0.950 . S
C1485 C1483 1.387 . S
C1485 C1487 1.390 1_655 S
C1485 H1489 0.950 . S
H1486 C1482 0.950 . S
C1487 C1485 1.390 1_455 S
C1487 C1488 1.387 . S
C1487 H1490 0.950 . S
C1488 C1487 1.387 . S
C1488 C1491 1.387 . S
H1489 C1485 0.950 . S
H1490 C1487 0.950 . S
C1491 C1482 1.390 1_455 S
C1491 H1484 0.950 . S
C1491 C1488 1.387 . S
C1492 C1493 1.387 . S
C1492 H1496 0.950 . S
C1492 C1501 1.390 1_545 S
C1493 C1492 1.387 . S
C1493 C1495 1.387 . S
H1494 C1501 0.950 . S
C1495 C1493 1.387 . S
C1495 C1497 1.390 1_545 S
C1495 H1499 0.950 . S
H1496 C1492 0.950 . S
C1497 C1495 1.390 1_565 S
C1497 C1498 1.387 . S
C1497 H1500 0.950 . S
C1498 C1497 1.387 . S
C1498 C1501 1.387 . S
H1499 C1495 0.950 . S
H1500 C1497 0.950 . S
C1501 C1492 1.390 1_565 S
C1501 H1494 0.950 . S
C1501 C1498 1.387 . S
C1502 C1503 1.387 . S
C1502 H1506 0.950 . S
C1502 C1511 1.390 1_455 S
C1503 C1502 1.387 . S
C1503 C1505 1.387 . S
H1504 C1511 0.950 . S
C1505 C1503 1.387 . S
C1505 C1507 1.390 1_455 S
C1505 H1509 0.950 . S
H1506 C1502 0.950 . S
C1507 C1505 1.390 1_655 S
C1507 C1508 1.387 . S
C1507 H1510 0.950 . S
C1508 C1507 1.387 . S
C1508 C1511 1.387 . S
H1509 C1505 0.950 . S
H1510 C1507 0.950 . S
C1511 C1502 1.390 1_655 S
C1511 H1504 0.950 . S
C1511 C1508 1.387 . S
C1512 C1513 1.387 . S
C1512 H1516 0.950 . S
C1512 C1521 1.390 1_565 S
C1513 C1512 1.387 . S
C1513 C1515 1.387 . S
H1514 C1521 0.950 . S
C1515 C1513 1.387 . S
C1515 C1517 1.390 1_565 S
C1515 H1519 0.950 . S
H1516 C1512 0.950 . S
C1517 C1515 1.390 1_545 S
C1517 C1518 1.387 . S
C1517 H1520 0.950 . S
C1518 C1517 1.387 . S
C1518 C1521 1.387 . S
H1519 C1515 0.950 . S
H1520 C1517 0.950 . S
C1521 C1512 1.390 1_545 S
C1521 H1514 0.950 . S
C1521 C1518 1.387 . S
C1522 C1523 1.387 . S
C1522 H1526 0.950 . S
C1522 C1531 1.390 1_655 S
C1523 C1522 1.387 . S
C1523 C1525 1.387 . S
H1524 C1531 0.950 . S
C1525 C1523 1.387 . S
C1525 C1527 1.390 1_655 S
C1525 H1529 0.950 . S
H1526 C1522 0.950 . S
C1527 C1525 1.390 1_455 S
C1527 C1528 1.387 . S
C1527 H1530 0.950 . S
C1528 C1527 1.387 . S
C1528 C1531 1.387 . S
H1529 C1525 0.950 . S
H1530 C1527 0.950 . S
C1531 C1522 1.390 1_455 S
C1531 H1524 0.950 . S
C1531 C1528 1.387 . S
C1532 C1533 1.387 . S
C1532 H1536 0.950 . S
C1532 C1541 1.390 1_565 S
C1533 C1532 1.387 . S
C1533 C1535 1.387 . S
H1534 C1541 0.950 . S
C1535 C1533 1.387 . S
C1535 C1537 1.390 1_565 S
C1535 H1539 0.950 . S
H1536 C1532 0.950 . S
C1537 C1535 1.390 1_545 S
C1537 C1538 1.387 . S
C1537 H1540 0.950 . S
C1538 C1537 1.387 . S
C1538 C1541 1.387 . S
H1539 C1535 0.950 . S
H1540 C1537 0.950 . S
C1541 C1532 1.390 1_545 S
C1541 H1534 0.950 . S
C1541 C1538 1.387 . S
C1542 C1543 1.387 . S
C1542 H1546 0.950 . S
C1542 C1551 1.390 1_655 S
C1543 C1542 1.387 . S
C1543 C1545 1.387 . S
H1544 C1551 0.950 . S
C1545 C1543 1.387 . S
C1545 C1547 1.390 1_655 S
C1545 H1549 0.950 . S
H1546 C1542 0.950 . S
C1547 C1545 1.390 1_455 S
C1547 C1548 1.387 . S
C1547 H1550 0.950 . S
C1548 C1547 1.387 . S
C1548 C1551 1.387 . S
H1549 C1545 0.950 . S
H1550 C1547 0.950 . S
C1551 C1542 1.390 1_455 S
C1551 H1544 0.950 . S
C1551 C1548 1.387 . S
C1552 C1553 1.387 . S
C1552 H1556 0.950 . S
C1552 C1561 1.390 . S
C1553 C1552 1.387 . S
C1553 C1555 1.387 . S
H1554 C1561 0.950 . S
C1555 C1553 1.387 . S
C1555 C1557 1.390 . S
C1555 H1559 0.950 . S
H1556 C1552 0.950 . S
C1557 C1555 1.390 . S
C1557 C1558 1.387 . S
C1557 H1560 0.950 . S
C1558 C1557 1.387 . S
C1558 C1561 1.387 . S
H1559 C1555 0.950 . S
H1560 C1557 0.950 . S
C1561 C1552 1.390 . S
C1561 H1554 0.950 . S
C1561 C1558 1.387 . S
C1562 C1563 1.387 . S
C1562 H1566 0.950 . S
C1562 C1571 1.390 . S
C1563 C1562 1.387 . S
C1563 C1565 1.387 . S
H1564 C1571 0.950 . S
C1565 C1563 1.387 . S
C1565 C1567 1.390 . S
C1565 H1569 0.950 . S
H1566 C1562 0.950 . S
C1567 C1565 1.390 . S
C1567 C1568 1.387 . S
C1567 H1570 0.950 . S
C1568 C1567 1.387 . S
C1568 C1571 1.387 . S
H1569 C1565 0.950 . S
H1570 C1567 0.950 . S
C1571 C1562 1.390 . S
C1571 H1564 0.950 . S
C1571 C1568 1.387 . S
C1572 C1573 1.387 . S
C1572 H1576 0.950 . S
C1572 C1581 1.390 . S
C1573 C1572 1.387 . S
C1573 C1575 1.387 . S
H1574 C1581 0.950 . S
C1575 C1573 1.387 . S
C1575 C1577 1.390 . S
C1575 H1579 0.950 . S
H1576 C1572 0.950 . S
C1577 C1575 1.390 . S
C1577 C1578 1.387 . S
C1577 H1580 0.950 . S
C1578 C1577 1.387 . S
C1578 C1581 1.387 . S
H1579 C1575 0.950 . S
H1580 C1577 0.950 . S
C1581 C1572 1.390 . S
C1581 H1574 0.950 . S
C1581 C1578 1.387 . S
C1582 C1583 1.387 . S
C1582 H1586 0.950 . S
C1582 C1591 1.390 . S
C1583 C1582 1.387 . S
C1583 C1585 1.387 . S
H1584 C1591 0.950 . S
C1585 C1583 1.387 . S
C1585 C1587 1.390 . S
C1585 H1589 0.950 . S
H1586 C1582 0.950 . S
C1587 C1585 1.390 . S
C1587 C1588 1.387 . S
C1587 H1590 0.950 . S
C1588 C1587 1.387 . S
C1588 C1591 1.387 . S
H1589 C1585 0.950 . S
H1590 C1587 0.950 . S
C1591 C1582 1.390 . S
C1591 H1584 0.950 . S
C1591 C1588 1.387 . S
C1592 C1593 1.387 . S
C1592 H1596 0.950 . S
C1592 C1601 1.390 . S
C1593 C1592 1.387 . S
C1593 C1595 1.387 . S
H1594 C1601 0.950 . S
C1595 C1593 1.387 . S
C1595 C1597 1.390 . S
C1595 H1599 0.950 . S
H1596 C1592 0.950 . S
C1597 C1595 1.390 . S
C1597 C1598 1.387 . S
C1597 H1600 0.950 . S
C1598 C1597 1.387 . S
C1598 C1601 1.387 . S
H1599 C1595 0.950 . S
H1600 C1597 0.950 . S
C1601 C1592 1.390 . S
C1601 H1594 0.950 . S
C1601 C1598 1.387 . S
C1602 C1603 1.387 . S
C1602 H1606 0.950 . S
C1602 C1611 1.390 . S
C1603 C1602 1.387 . S
C1603 C1605 1.387 . S
H1604 C1611 0.950 . S
C1605 C1603 1.387 . S
C1605 C1607 1.390 . S
C1605 H1609 0.950 . S
H1606 C1602 0.950 . S
C1607 C1605 1.390 . S
C1607 C1608 1.387 . S
C1607 H1610 0.950 . S
C1608 C1607 1.387 . S
C1608 C1611 1.387 . S
H1609 C1605 0.950 . S
H1610 C1607 0.950 . S
C1611 C1602 1.390 . S
C1611 H1604 0.950 . S
C1611 C1608 1.387 . S
C1612 C1613 1.387 . S
C1612 H1616 0.950 . S
C1612 C1621 1.390 . S
C1613 C1612 1.387 . S
C1613 C1615 1.387 . S
H1614 C1621 0.950 . S
C1615 C1613 1.387 . S
C1615 C1617 1.390 . S
C1615 H1619 0.950 . S
H1616 C1612 0.950 . S
C1617 C1615 1.390 . S
C1617 C1618 1.387 . S
C1617 H1620 0.950 . S
C1618 C1617 1.387 . S
C1618 C1621 1.387 . S
H1619 C1615 0.950 . S
H1620 C1617 0.950 . S
C1621 C1612 1.390 . S
C1621 H1614 0.950 . S
C1621 C1618 1.387 . S
C1622 C1623 1.387 . S
C1622 H1626 0.950 . S
C1622 C1631 1.390 . S
C1623 C1622 1.387 . S
C1623 C1625 1.387 . S
H1624 C1631 0.950 . S
C1625 C1623 1.387 . S
C1625 C1627 1.390 . S
C1625 H1629 0.950 . S
H1626 C1622 0.950 . S
C1627 C1625 1.390 . S
C1627 C1628 1.387 . S
C1627 H1630 0.950 . S
C1628 C1627 1.387 . S
C1628 C1631 1.387 . S
H1629 C1625 0.950 . S
H1630 C1627 0.950 . S
C1631 C1622 1.390 . S
C1631 H1624 0.950 . S
C1631 C1628 1.387 . S
C1632 C1633 1.387 . S
C1632 H1636 0.950 . S
C1632 C1641 1.390 . S
C1633 C1632 1.387 . S
C1633 C1635 1.387 . S
H1634 C1641 0.950 . S
C1635 C1633 1.387 . S
C1635 C1637 1.390 . S
C1635 H1639 0.950 . S
H1636 C1632 0.950 . S
C1637 C1635 1.390 . S
C1637 C1638 1.387 . S
C1637 H1640 0.950 . S
C1638 C1637 1.387 . S
C1638 C1641 1.387 . S
H1639 C1635 0.950 . S
H1640 C1637 0.950 . S
C1641 C1632 1.390 . S
C1641 H1634 0.950 . S
C1641 C1638 1.387 . S
C1642 C1643 1.387 . S
C1642 H1646 0.950 . S
C1642 C1651 1.390 . S
C1643 C1642 1.387 . S
C1643 C1645 1.387 . S
H1644 C1651 0.950 . S
C1645 C1643 1.387 . S
C1645 C1647 1.390 . S
C1645 H1649 0.950 . S
H1646 C1642 0.950 . S
C1647 C1645 1.390 . S
C1647 C1648 1.387 . S
C1647 H1650 0.950 . S
C1648 C1647 1.387 . S
C1648 C1651 1.387 . S
H1649 C1645 0.950 . S
H1650 C1647 0.950 . S
C1651 C1642 1.390 . S
C1651 H1644 0.950 . S
C1651 C1648 1.387 . S
C1652 C1653 1.387 . S
C1652 H1656 0.950 . S
C1652 C1661 1.390 . S
C1653 C1652 1.387 . S
C1653 C1655 1.387 . S
H1654 C1661 0.950 . S
C1655 C1653 1.387 . S
C1655 C1657 1.390 . S
C1655 H1659 0.950 . S
H1656 C1652 0.950 . S
C1657 C1655 1.390 . S
C1657 C1658 1.387 . S
C1657 H1660 0.950 . S
C1658 C1657 1.387 . S
C1658 C1661 1.387 . S
H1659 C1655 0.950 . S
H1660 C1657 0.950 . S
C1661 C1652 1.390 . S
C1661 H1654 0.950 . S
C1661 C1658 1.387 . S
C1662 C1663 1.387 . S
C1662 H1666 0.950 . S
C1662 C1671 1.390 . S
C1663 C1662 1.387 . S
C1663 C1665 1.387 . S
H1664 C1671 0.950 . S
C1665 C1663 1.387 . S
C1665 C1667 1.390 . S
C1665 H1669 0.950 . S
H1666 C1662 0.950 . S
C1667 C1665 1.390 . S
C1667 C1668 1.387 . S
C1667 H1670 0.950 . S
C1668 C1667 1.387 . S
C1668 C1671 1.387 . S
H1669 C1665 0.950 . S
H1670 C1667 0.950 . S
C1671 C1662 1.390 . S
C1671 H1664 0.950 . S
C1671 C1668 1.387 . S
C1672 C1673 1.387 . S
C1672 H1676 0.950 . S
C1672 C1681 1.390 . S
C1673 C1672 1.387 . S
C1673 C1675 1.387 . S
H1674 C1681 0.950 . S
C1675 C1673 1.387 . S
C1675 C1677 1.390 . S
C1675 H1679 0.950 . S
H1676 C1672 0.950 . S
C1677 C1675 1.390 . S
C1677 C1678 1.387 . S
C1677 H1680 0.950 . S
C1678 C1677 1.387 . S
C1678 C1681 1.387 . S
H1679 C1675 0.950 . S
H1680 C1677 0.950 . S
C1681 C1672 1.390 . S
C1681 H1674 0.950 . S
C1681 C1678 1.387 . S
C1682 C1683 1.387 . S
C1682 H1686 0.950 . S
C1682 C1691 1.390 . S
C1683 C1682 1.387 . S
C1683 C1685 1.387 . S
H1684 C1691 0.950 . S
C1685 C1683 1.387 . S
C1685 C1687 1.390 . S
C1685 H1689 0.950 . S
H1686 C1682 0.950 . S
C1687 C1685 1.390 . S
C1687 C1688 1.387 . S
C1687 H1690 0.950 . S
C1688 C1687 1.387 . S
C1688 C1691 1.387 . S
H1689 C1685 0.950 . S
H1690 C1687 0.950 . S
C1691 C1682 1.390 . S
C1691 H1684 0.950 . S
C1691 C1688 1.387 . S
C1692 C1693 1.387 . S
C1692 H1696 0.950 . S
C1692 C1701 1.390 . S
C1693 C1692 1.387 . S
C1693 C1695 1.387 . S
H1694 C1701 0.950 . S
C1695 C1693 1.387 . S
C1695 C1697 1.390 . S
C1695 H1699 0.950 . S
H1696 C1692 0.950 . S
C1697 C1695 1.390 . S
C1697 C1698 1.387 . S
C1697 H1700 0.950 . S
C1698 C1697 1.387 . S
C1698 C1701 1.387 . S
H1699 C1695 0.950 . S
H1700 C1697 0.950 . S
C1701 C1692 1.390 . S
C1701 H1694 0.950 . S
C1701 C1698 1.387 . S
C1702 C1703 1.387 . S
C1702 H1706 0.950 . S
C1702 C1711 1.390 . S
C1703 C1702 1.387 . S
C1703 C1705 1.387 . S
H1704 C1711 0.950 . S
C1705 C1703 1.387 . S
C1705 C1707 1.390 . S
C1705 H1709 0.950 . S
H1706 C1702 0.950 . S
C1707 C1705 1.390 . S
C1707 C1708 1.387 . S
C1707 H1710 0.950 . S
C1708 C1707 1.387 . S
C1708 C1711 1.387 . S
H1709 C1705 0.950 . S
H1710 C1707 0.950 . S
C1711 C1702 1.390 . S
C1711 H1704 0.950 . S
C1711 C1708 1.387 . S
C1712 C1713 1.387 . S
C1712 H1716 0.950 . S
C1712 C1721 1.390 . S
C1713 C1712 1.387 . S
C1713 C1715 1.387 . S
H1714 C1721 0.950 . S
C1715 C1713 1.387 . S
C1715 C1717 1.390 . S
C1715 H1719 0.950 . S
H1716 C1712 0.950 . S
C1717 C1715 1.390 . S
C1717 C1718 1.387 . S
C1717 H1720 0.950 . S
C1718 C1717 1.387 . S
C1718 C1721 1.387 . S
H1719 C1715 0.950 . S
H1720 C1717 0.950 . S
C1721 C1712 1.390 . S
C1721 H1714 0.950 . S
C1721 C1718 1.387 . S
C1722 C1723 1.387 . S
C1722 H1726 0.950 . S
C1722 C1731 1.390 . S
C1723 C1722 1.387 . S
C1723 C1725 1.387 . S
H1724 C1731 0.950 . S
C1725 C1723 1.387 . S
C1725 C1727 1.390 . S
C1725 H1729 0.950 . S
H1726 C1722 0.950 . S
C1727 C1725 1.390 . S
C1727 C1728 1.387 . S
C1727 H1730 0.950 . S
C1728 C1727 1.387 . S
C1728 C1731 1.387 . S
H1729 C1725 0.950 . S
H1730 C1727 0.950 . S
C1731 C1722 1.390 . S
C1731 H1724 0.950 . S
C1731 C1728 1.387 . S
C1732 C1733 1.387 . S
C1732 H1736 0.950 . S
C1732 C1741 1.390 . S
C1733 C1732 1.387 . S
C1733 C1735 1.387 . S
H1734 C1741 0.950 . S
C1735 C1733 1.387 . S
C1735 C1737 1.390 . S
C1735 H1739 0.950 . S
H1736 C1732 0.950 . S
C1737 C1735 1.390 . S
C1737 C1738 1.387 . S
C1737 H1740 0.950 . S
C1738 C1737 1.387 . S
C1738 C1741 1.387 . S
H1739 C1735 0.950 . S
H1740 C1737 0.950 . S
C1741 C1732 1.390 . S
C1741 H1734 0.950 . S
C1741 C1738 1.387 . S
C1742 C1743 1.387 . S
C1742 H1746 0.950 . S
C1742 C1751 1.390 . S
C1743 C1742 1.387 . S
C1743 C1745 1.387 . S
H1744 C1751 0.950 . S
C1745 C1743 1.387 . S
C1745 C1747 1.390 . S
C1745 H1749 0.950 . S
H1746 C1742 0.950 . S
C1747 C1745 1.390 . S
C1747 C1748 1.387 . S
C1747 H1750 0.950 . S
C1748 C1747 1.387 . S
C1748 C1751 1.387 . S
H1749 C1745 0.950 . S
H1750 C1747 0.950 . S
C1751 C1742 1.390 . S
C1751 H1744 0.950 . S
C1751 C1748 1.387 . S
C1752 C1753 1.387 . S
C1752 H1756 0.950 . S
C1752 C1761 1.390 . S
C1753 C1752 1.387 . S
C1753 C1755 1.387 . S
H1754 C1761 0.950 . S
C1755 C1753 1.387 . S
C1755 C1757 1.390 . S
C1755 H1759 0.950 . S
H1756 C1752 0.950 . S
C1757 C1755 1.390 . S
C1757 C1758 1.387 . S
C1757 H1760 0.950 . S
C1758 C1757 1.387 . S
C1758 C1761 1.387 . S
H1759 C1755 0.950 . S
H1760 C1757 0.950 . S
C1761 C1752 1.390 . S
C1761 H1754 0.950 . S
C1761 C1758 1.387 . S
C1762 C1763 1.387 . S
C1762 H1766 0.950 . S
C1762 C1771 1.390 . S
C1763 C1762 1.387 . S
C1763 C1765 1.387 . S
H1764 C1771 0.950 . S
C1765 C1763 1.387 . S
C1765 C1767 1.390 . S
C1765 H1769 0.950 . S
H1766 C1762 0.950 . S
C1767 C1765 1.390 . S
C1767 C1768 1.387 . S
C1767 H1770 0.950 . S
C1768 C1767 1.387 . S
C1768 C1771 1.387 . S
H1769 C1765 0.950 . S
H1770 C1767 0.950 . S
C1771 C1762 1.390 . S
C1771 H1764 0.950 . S
C1771 C1768 1.387 . S
C1772 C1773 1.387 . S
C1772 H1776 0.950 . S
C1772 C1781 1.390 . S
C1773 C1772 1.387 . S
C1773 C1775 1.387 . S
H1774 C1781 0.950 . S
C1775 C1773 1.387 . S
C1775 C1777 1.390 . S
C1775 H1779 0.950 . S
H1776 C1772 0.950 . S
C1777 C1775 1.390 . S
C1777 C1778 1.387 . S
C1777 H1780 0.950 . S
C1778 C1777 1.387 . S
C1778 C1781 1.387 . S
H1779 C1775 0.950 . S
H1780 C1777 0.950 . S
C1781 C1772 1.390 . S
C1781 H1774 0.950 . S
C1781 C1778 1.387 . S
C1782 C1783 1.387 . S
C1782 H1786 0.950 . S
C1782 C1791 1.390 . S
C1783 C1782 1.387 . S
C1783 C1785 1.387 . S
H1784 C1791 0.950 . S
C1785 C1783 1.387 . S
C1785 C1787 1.390 . S
C1785 H1789 0.950 . S
H1786 C1782 0.950 . S
C1787 C1785 1.390 . S
C1787 C1788 1.387 . S
C1787 H1790 0.950 . S
C1788 C1787 1.387 . S
C1788 C1791 1.387 . S
H1789 C1785 0.950 . S
H1790 C1787 0.950 . S
C1791 C1782 1.390 . S
C1791 H1784 0.950 . S
C1791 C1788 1.387 . S
C1153 C1048 1.514 . S
C1158 C4 1.516 . S
C1163 C40 1.514 . S
C1168 C1084 1.516 . S
C1173 C1120 1.516 . S
C1178 C76 1.514 . S
C1183 C1012 1.514 . S
C1188 C112 1.516 . S
C1193 C148 1.516 . S
C1198 C976 1.514 . S
C1203 C868 1.514 . S
C1208 C184 1.516 . S
C1213 C220 1.514 . S
C1218 C904 1.516 . S
C1223 C940 1.514 . S
C1228 C256 1.516 . S
C1233 C292 1.514 . S
C1238 C760 1.516 . S
C1243 C328 1.514 . S
C1248 C796 1.516 . S
C1253 C832 1.516 . S
C1258 C364 1.514 . S
C1263 C400 1.516 . S
C1268 C724 1.514 . S
C1273 C688 1.516 . S
C1278 C436 1.514 . S
C1283 C580 1.514 . S
C1288 C472 1.516 . S
C1293 C508 1.516 . S
C1298 C616 1.514 . S
C1303 C544 1.516 . S
C1308 C652 1.514 . S
C1313 C14 1.347 . S
C1318 C374 1.348 . S
C1323 C410 1.348 . S
C1328 C50 1.347 . S
C1333 C302 1.348 . S
C1338 C86 1.347 . S
C1343 C338 1.349 . S
C1348 C122 1.346 . S
C1353 C158 1.345 . S
C1358 C518 1.350 . S
C1363 C554 1.348 . S
C1368 C194 1.347 . S
C1373 C446 1.349 . S
C1378 C230 1.346 . S
C1383 C482 1.346 . S
C1388 C266 1.349 . S
C1393 C590 1.348 . S
C1398 C950 1.347 . S
C1403 C986 1.349 . S
C1408 C626 1.345 . S
C1413 C878 1.348 . S
C1418 C662 1.347 . S
C1423 C698 1.346 . S
C1428 C914 1.349 . S
C1433 C734 1.348 . S
C1438 C1094 1.347 . S
C1443 C1130 1.349 . S
C1448 C770 1.346 . S
C1453 C1022 1.346 . S
C1458 C806 1.349 . S
C1463 C842 1.347 . S
C1468 C1058 1.348 . S
C1473 C3 1.463 . S
C1478 C147 1.463 . S
C1483 C39 1.464 . S
C1488 C183 1.464 . S
C1493 C219 1.463 . S
C1498 C75 1.463 . S
C1503 C111 1.464 . S
C1508 C255 1.464 . S
C1513 C291 1.464 . S
C1518 C435 1.464 . S
C1523 C471 1.464 . S
C1528 C327 1.464 . S
C1533 C507 1.463 . S
C1538 C363 1.463 . S
C1543 C399 1.463 . S
C1548 C543 1.463 . S
C1553 C579 1.463 . S
C1558 C723 1.463 . S
C1563 C759 1.463 . S
C1568 C615 1.463 . S
C1573 C651 1.464 . S
C1578 C795 1.464 . S
C1583 C831 1.463 . S
C1588 C687 1.463 . S
C1593 C1011 1.463 . S
C1598 C867 1.463 . S
C1603 C903 1.463 . S
C1608 C1047 1.463 . S
C1613 C939 1.464 . S
C1618 C1083 1.464 . S
C1623 C975 1.464 . S
C1628 C1119 1.464 . S
C1633 C2 1.402 . S
C1638 C182 1.404 . S
C1643 C38 1.404 . S
C1648 C218 1.403 . S
C1653 C254 1.402 . S
C1658 C74 1.404 . S
C1663 C146 1.404 . S
C1668 C110 1.402 . S
C1673 C470 1.403 . S
C1678 C290 1.402 . S
C1683 C506 1.403 . S
C1688 C326 1.403 . S
C1693 C542 1.403 . S
C1698 C362 1.404 . S
C1703 C398 1.404 . S
C1708 C434 1.402 . S
C1713 C578 1.404 . S
C1718 C758 1.403 . S
C1723 C794 1.404 . S
C1728 C614 1.403 . S
C1733 C830 1.402 . S
C1738 C650 1.404 . S
C1743 C686 1.403 . S
C1748 C722 1.404 . S
C1753 C1046 1.404 . S
C1758 C866 1.402 . S
C1763 C902 1.402 . S
C1768 C1082 1.403 . S
C1773 C938 1.402 . S
C1778 C1118 1.403 . S
C1783 C1010 1.402 . S
C1788 C974 1.403 . S
