# Generated by pormake.
# Topology yft, (5)-cn, num edge types: 1
# Building blocks:
#     Node 0, Type 0, BuildingBlock: XOMCOT_clean_sbu_0, # of connection points: 5
#     Node 1, Type 0, BuildingBlock: XOMCOT_clean_sbu_0, # of connection points: 5
#     Node 2, Type 0, BuildingBlock: XOMCOT_clean_sbu_0, # of connection points: 5
#     Node 3, Type 0, BuildingBlock: XOMCOT_clean_sbu_0, # of connection points: 5
#     Node 4, Type 0, BuildingBlock: XOMCOT_clean_sbu_0, # of connection points: 5
#     Node 5, Type 0, BuildingBlock: XOMCOT_clean_sbu_0, # of connection points: 5
#     Node 6, Type 0, BuildingBlock: XOMCOT_clean_sbu_0, # of connection points: 5
#     Node 7, Type 0, BuildingBlock: XOMCOT_clean_sbu_0, # of connection points: 5
#     Node 8, Type 0, BuildingBlock: XOMCOT_clean_sbu_0, # of connection points: 5
#     Node 9, Type 0, BuildingBlock: XOMCOT_clean_sbu_0, # of connection points: 5
#     Node 10, Type 0, BuildingBlock: XOMCOT_clean_sbu_0, # of connection points: 5
#     Node 11, Type 0, BuildingBlock: XOMCOT_clean_sbu_0, # of connection points: 5
#     Node 12, Type 0, BuildingBlock: XOMCOT_clean_sbu_0, # of connection points: 5
#     Node 13, Type 0, BuildingBlock: XOMCOT_clean_sbu_0, # of connection points: 5
#     Node 14, Type 0, BuildingBlock: XOMCOT_clean_sbu_0, # of connection points: 5
#     Node 15, Type 0, BuildingBlock: XOMCOT_clean_sbu_0, # of connection points: 5
#     Node 16, Type 0, BuildingBlock: XOMCOT_clean_sbu_0, # of connection points: 5
#     Node 17, Type 0, BuildingBlock: XOMCOT_clean_sbu_0, # of connection points: 5
#     Node 18, Type 0, BuildingBlock: XOMCOT_clean_sbu_0, # of connection points: 5
#     Node 19, Type 0, BuildingBlock: XOMCOT_clean_sbu_0, # of connection points: 5
#     Node 20, Type 0, BuildingBlock: XOMCOT_clean_sbu_0, # of connection points: 5
#     Node 21, Type 0, BuildingBlock: XOMCOT_clean_sbu_0, # of connection points: 5
#     Node 22, Type 0, BuildingBlock: XOMCOT_clean_sbu_0, # of connection points: 5
#     Node 23, Type 0, BuildingBlock: XOMCOT_clean_sbu_0, # of connection points: 5
#     Node 24, Type 0, BuildingBlock: XOMCOT_clean_sbu_0, # of connection points: 5
#     Node 25, Type 0, BuildingBlock: XOMCOT_clean_sbu_0, # of connection points: 5
#     Node 26, Type 0, BuildingBlock: XOMCOT_clean_sbu_0, # of connection points: 5
#     Node 27, Type 0, BuildingBlock: XOMCOT_clean_sbu_0, # of connection points: 5
#     Node 28, Type 0, BuildingBlock: XOMCOT_clean_sbu_0, # of connection points: 5
#     Node 29, Type 0, BuildingBlock: XOMCOT_clean_sbu_0, # of connection points: 5
#     Node 30, Type 0, BuildingBlock: XOMCOT_clean_sbu_0, # of connection points: 5
#     Node 31, Type 0, BuildingBlock: XOMCOT_clean_sbu_0, # of connection points: 5
#     Edge 32, Type (0, 0), None
#     Edge 33, Type (0, 0), None
#     Edge 34, Type (0, 0), None
#     Edge 35, Type (0, 0), None
#     Edge 36, Type (0, 0), None
#     Edge 37, Type (0, 0), None
#     Edge 38, Type (0, 0), None
#     Edge 39, Type (0, 0), None
#     Edge 40, Type (0, 0), None
#     Edge 41, Type (0, 0), None
#     Edge 42, Type (0, 0), None
#     Edge 43, Type (0, 0), None
#     Edge 44, Type (0, 0), None
#     Edge 45, Type (0, 0), None
#     Edge 46, Type (0, 0), None
#     Edge 47, Type (0, 0), None
#     Edge 48, Type (0, 0), None
#     Edge 49, Type (0, 0), None
#     Edge 50, Type (0, 0), None
#     Edge 51, Type (0, 0), None
#     Edge 52, Type (0, 0), None
#     Edge 53, Type (0, 0), None
#     Edge 54, Type (0, 0), None
#     Edge 55, Type (0, 0), None
#     Edge 56, Type (0, 0), None
#     Edge 57, Type (0, 0), None
#     Edge 58, Type (0, 0), None
#     Edge 59, Type (0, 0), None
#     Edge 60, Type (0, 0), None
#     Edge 61, Type (0, 0), None
#     Edge 62, Type (0, 0), None
#     Edge 63, Type (0, 0), None
#     Edge 64, Type (0, 0), None
#     Edge 65, Type (0, 0), None
#     Edge 66, Type (0, 0), None
#     Edge 67, Type (0, 0), None
#     Edge 68, Type (0, 0), None
#     Edge 69, Type (0, 0), None
#     Edge 70, Type (0, 0), None
#     Edge 71, Type (0, 0), None
#     Edge 72, Type (0, 0), None
#     Edge 73, Type (0, 0), None
#     Edge 74, Type (0, 0), None
#     Edge 75, Type (0, 0), None
#     Edge 76, Type (0, 0), None
#     Edge 77, Type (0, 0), None
#     Edge 78, Type (0, 0), None
#     Edge 79, Type (0, 0), None
#     Edge 80, Type (0, 0), None
#     Edge 81, Type (0, 0), None
#     Edge 82, Type (0, 0), None
#     Edge 83, Type (0, 0), None
#     Edge 84, Type (0, 0), None
#     Edge 85, Type (0, 0), None
#     Edge 86, Type (0, 0), None
#     Edge 87, Type (0, 0), None
#     Edge 88, Type (0, 0), None
#     Edge 89, Type (0, 0), None
#     Edge 90, Type (0, 0), None
#     Edge 91, Type (0, 0), None
#     Edge 92, Type (0, 0), None
#     Edge 93, Type (0, 0), None
#     Edge 94, Type (0, 0), None
#     Edge 95, Type (0, 0), None
#     Edge 96, Type (0, 0), None
#     Edge 97, Type (0, 0), None
#     Edge 98, Type (0, 0), None
#     Edge 99, Type (0, 0), None
#     Edge 100, Type (0, 0), None
#     Edge 101, Type (0, 0), None
#     Edge 102, Type (0, 0), None
#     Edge 103, Type (0, 0), None
#     Edge 104, Type (0, 0), None
#     Edge 105, Type (0, 0), None
#     Edge 106, Type (0, 0), None
#     Edge 107, Type (0, 0), None
#     Edge 108, Type (0, 0), None
#     Edge 109, Type (0, 0), None
#     Edge 110, Type (0, 0), None
#     Edge 111, Type (0, 0), None
# Relax obj value: 0.370
# Max RMSD: 0.278
# Mean RMSD: 0.278
data_MOF--net-yft--node1-XOMCOT_clean_sbu_0--edge1-none
_symmetry_space_group_name_H-M    P1
_symmetry_Int_Tables_number       1
_symmetry_cell_setting            triclinic
loop_
_symmetry_equiv_pos_as_xyz
'x, y, z'
_cell_length_a     22.422334
_cell_length_b     22.422316
_cell_length_c     48.922998
_cell_angle_alpha  90.000023
_cell_angle_beta   90.000001
_cell_angle_gamma 90.000045
loop_
_atom_site_label
_atom_site_type_symbol
_atom_site_fract_x
_atom_site_fract_y
_atom_site_fract_z
_atom_type_partial_charge
Co0 Co 0.35463 0.19325 0.17058 0.0
C1 C 0.23601 0.14651 0.16207 0.0
C2 C 0.27045 0.17832 0.12382 0.0
C3 C 0.21757 0.14801 0.11905 0.0
N4 N 0.28137 0.178 0.15092 0.0
N5 N 0.19636 0.12811 0.14325 0.0
H6 H 0.23522 0.13213 0.18314 0.0
H7 H 0.30073 0.19535 0.10847 0.0
C8 C 0.33173 0.32173 0.1466 0.0
O9 O 0.28623 0.307 0.13118 0.0
N10 N 0.42534 0.20345 0.19246 0.0
C11 C 0.45825 0.16052 0.20478 0.0
C12 C 0.49988 0.18693 0.22119 0.0
C13 C 0.44591 0.25485 0.20263 0.0
N14 N 0.49234 0.24626 0.21951 0.0
C15 C 0.32348 0.17281 0.22667 0.0
C16 C 0.25485 0.27436 0.23198 0.0
C17 C 0.27632 0.24712 0.25606 0.0
C18 C 0.30898 0.19365 0.25276 0.0
C19 C 0.27236 0.25315 0.20633 0.0
N20 N 0.30937 0.20521 0.20406 0.0
H21 H 0.35024 0.13299 0.22474 0.0
H22 H 0.25812 0.27692 0.18828 0.0
H23 H 0.45327 0.11299 0.20219 0.0
H24 H 0.43126 0.29843 0.19608 0.0
O25 O 0.37224 0.10697 0.17005 0.0
O26 O 0.40333 0.17174 0.13944 0.0
O27 O 0.35539 0.28341 0.16287 0.0
C28 C 0.40669 0.11809 0.14901 0.0
H29 H 0.19867 0.13807 0.09923 0.0
H30 H 0.53692 0.16489 0.23117 0.0
H31 H 0.22589 0.31278 0.23242 0.0
H32 H 0.32599 0.16834 0.26977 0.0
Co33 Co 0.0822 0.1008 0.42077 0.0
C34 C 0.12784 0.98303 0.41063 0.0
C35 C 0.10034 0.02183 0.3726 0.0
C36 C 0.13344 0.97094 0.36724 0.0
N37 N 0.09642 0.02896 0.39991 0.0
N38 N 0.1508 0.94709 0.39132 0.0
H39 H 0.1401 0.98021 0.43194 0.0
H40 H 0.08541 0.05412 0.35766 0.0
C41 C 0.95527 0.08481 0.39458 0.0
O42 O 0.97056 0.04167 0.37789 0.0
N43 N 0.07361 0.16963 0.44395 0.0
C44 C 0.11716 0.19669 0.45859 0.0
C45 C 0.09249 0.24116 0.47397 0.0
C46 C 0.02304 0.19639 0.45164 0.0
N47 N 0.03346 0.24046 0.4696 0.0
C48 C 0.10245 0.05924 0.47578 0.0
C49 C 0.99194 1.00574 0.48054 0.0
C50 C 0.0238 0.01796 0.50475 0.0
C51 C 0.08187 0.04172 0.5016 0.0
C52 C 1.01505 0.0222 0.45518 0.0
N53 N 0.06724 0.05299 0.45328 0.0
H54 H 0.14532 0.08092 0.47405 0.0
H55 H 0.98894 1.01294 0.43718 0.0
H56 H 0.16415 0.18627 0.45796 0.0
H57 H 0.97989 0.18821 0.44259 0.0
O58 O 0.16902 0.11621 0.42109 0.0
O59 O 0.1059 0.15137 0.39071 0.0
O60 O 0.99261 0.10521 0.41219 0.0
C61 C 0.15931 0.15249 0.40056 0.0
H62 H 0.14759 0.95583 0.34727 0.0
H63 H 0.11631 0.27501 0.48536 0.0
H64 H 0.94827 0.98572 0.48052 0.0
H65 H 0.11136 0.04862 0.51874 0.0
Co66 Co 0.17765 0.83903 0.67058 0.0
C67 C 0.29627 0.88576 0.66207 0.0
C68 C 0.26182 0.85395 0.62382 0.0
C69 C 0.3147 0.88426 0.61905 0.0
N70 N 0.2509 0.85427 0.65092 0.0
N71 N 0.33591 0.90416 0.64325 0.0
H72 H 0.29706 0.90014 0.68314 0.0
H73 H 0.23154 0.83693 0.60847 0.0
C74 C 0.20054 0.71054 0.64661 0.0
O75 O 0.24604 0.72528 0.63118 0.0
N76 N 0.10694 0.82882 0.69246 0.0
C77 C 0.07403 0.87176 0.70478 0.0
C78 C 0.03239 0.84534 0.72119 0.0
C79 C 0.08637 0.77743 0.70263 0.0
N80 N 0.03993 0.78602 0.71951 0.0
C81 C 0.20881 0.85946 0.72667 0.0
C82 C 0.27742 0.75791 0.73198 0.0
C83 C 0.25596 0.78515 0.75606 0.0
C84 C 0.22331 0.83863 0.75276 0.0
C85 C 0.25991 0.77912 0.70633 0.0
N86 N 0.2229 0.82706 0.70407 0.0
H87 H 0.18205 0.89929 0.72474 0.0
H88 H 0.27415 0.75535 0.68828 0.0
H89 H 0.07901 0.91928 0.7022 0.0
H90 H 0.10101 0.73384 0.69608 0.0
O91 O 0.16003 0.9253 0.67005 0.0
O92 O 0.12894 0.86053 0.63944 0.0
O93 O 0.17688 0.74886 0.66287 0.0
C94 C 0.12558 0.91418 0.64901 0.0
H95 H 0.33359 0.89421 0.59922 0.0
H96 H 0.99536 0.86738 0.73117 0.0
H97 H 0.30638 0.71949 0.73242 0.0
H98 H 0.20629 0.86394 0.76977 0.0
Co99 Co 0.45007 0.93147 0.92077 0.0
C100 C 0.40443 0.04924 0.91064 0.0
C101 C 0.43193 1.01045 0.8726 0.0
C102 C 0.39884 0.06133 0.86724 0.0
N103 N 0.43584 1.00332 0.89991 0.0
N104 N 0.38147 0.08519 0.89132 0.0
H105 H 0.39217 0.05206 0.93194 0.0
H106 H 0.44686 0.97815 0.85767 0.0
C107 C 0.577 0.94747 0.89458 0.0
O108 O 0.56171 0.99061 0.8779 0.0
N109 N 0.45866 0.86264 0.94395 0.0
C110 C 0.41511 0.83557 0.95859 0.0
C111 C 0.43978 0.79111 0.97397 0.0
C112 C 0.50923 0.83588 0.95165 0.0
N113 N 0.49881 0.79182 0.9696 0.0
C114 C 0.42982 0.97303 0.97578 0.0
C115 C 0.54032 0.02654 0.98054 0.0
C116 C 0.50847 1.01431 1.00475 0.0
C117 C 0.45041 0.99055 1.00161 0.0
C118 C 0.51722 1.01008 0.95518 0.0
N119 N 0.46502 0.97929 0.95328 0.0
H120 H 0.38696 0.95134 0.97405 0.0
H121 H 0.54332 0.01935 0.93718 0.0
H122 H 0.36812 0.846 0.95796 0.0
H123 H 0.55238 0.84407 0.94259 0.0
O124 O 0.36325 0.91607 0.92109 0.0
O125 O 0.42637 0.88091 0.89071 0.0
O126 O 0.53966 0.92707 0.91219 0.0
C127 C 0.37296 0.87978 0.90056 0.0
H128 H 0.38468 0.07645 0.84727 0.0
H129 H 0.41596 0.75726 0.98536 0.0
H130 H 0.58399 0.04657 0.98052 0.0
H131 H 0.42091 0.98364 1.01874 0.0
Co132 Co 0.35464 0.83906 0.36815 0.0
C133 C 0.23605 0.88588 0.37666 0.0
C134 C 0.27043 0.85396 0.41491 0.0
C135 C 0.21756 0.88428 0.41968 0.0
N136 N 0.28139 0.85434 0.38781 0.0
N137 N 0.19643 0.90429 0.39549 0.0
H138 H 0.23526 0.90024 0.35559 0.0
H139 H 0.30067 0.83685 0.43025 0.0
C140 C 0.33171 0.71057 0.39213 0.0
O141 O 0.28619 0.7253 0.40754 0.0
N142 N 0.42535 0.82884 0.34627 0.0
C143 C 0.45827 0.87177 0.33396 0.0
C144 C 0.4999 0.84534 0.31755 0.0
C145 C 0.44591 0.77744 0.33611 0.0
N146 N 0.49235 0.78602 0.31923 0.0
C147 C 0.3235 0.85948 0.31205 0.0
C148 C 0.25484 0.75794 0.30676 0.0
C149 C 0.27632 0.78516 0.28268 0.0
C150 C 0.30899 0.83863 0.28597 0.0
C151 C 0.27236 0.77916 0.33241 0.0
N152 N 0.30938 0.82709 0.33467 0.0
H153 H 0.35027 0.89929 0.31398 0.0
H154 H 0.25811 0.75541 0.35046 0.0
H155 H 0.4533 0.9193 0.33654 0.0
H156 H 0.43125 0.73386 0.34266 0.0
O157 O 0.37228 0.92534 0.36868 0.0
O158 O 0.40334 0.86056 0.39929 0.0
O159 O 0.35539 0.7489 0.37587 0.0
C160 C 0.40672 0.91422 0.38973 0.0
H161 H 0.19859 0.89412 0.4395 0.0
H162 H 0.53694 0.86738 0.30757 0.0
H163 H 0.22587 0.71953 0.30633 0.0
H164 H 0.32601 0.86392 0.26896 0.0
Co165 Co 0.45003 0.10082 0.61796 0.0
C166 C 0.40432 0.98309 0.62809 0.0
C167 C 0.43193 0.02182 0.66612 0.0
C168 C 0.39882 0.97094 0.67149 0.0
N169 N 0.43579 0.02898 0.63881 0.0
N170 N 0.38133 0.94718 0.64741 0.0
H171 H 0.39207 0.98026 0.60679 0.0
H172 H 0.44694 0.05407 0.68106 0.0
C173 C 0.57697 0.08479 0.64415 0.0
O174 O 0.56169 0.04163 0.66082 0.0
N175 N 0.45864 0.16965 0.59479 0.0
C176 C 0.41509 0.19674 0.58015 0.0
C177 C 0.43977 0.24119 0.56476 0.0
C178 C 0.50922 0.19639 0.58708 0.0
N179 N 0.49881 0.24046 0.56913 0.0
C180 C 0.42981 0.05929 0.56294 0.0
C181 C 0.54029 1.00572 0.55819 0.0
C182 C 0.50846 0.01797 0.53398 0.0
C183 C 0.4504 0.04176 0.53712 0.0
C184 C 0.51717 0.02219 0.58355 0.0
N185 N 0.46499 0.05301 0.58544 0.0
H186 H 0.38695 0.08099 0.56467 0.0
H187 H 0.54326 1.01291 0.60155 0.0
H188 H 0.3681 0.18633 0.58078 0.0
H189 H 0.55237 0.18819 0.59613 0.0
O190 O 0.36321 0.11625 0.61764 0.0
O191 O 0.42634 0.15138 0.64803 0.0
O192 O 0.53963 0.10521 0.62654 0.0
C193 C 0.37294 0.15252 0.63817 0.0
H194 H 0.38476 0.95575 0.69146 0.0
H195 H 0.41596 0.27505 0.55337 0.0
H196 H 0.58395 0.98568 0.55822 0.0
H197 H 0.42093 0.04869 0.51998 0.0
Co198 Co 0.17764 0.19321 0.86815 0.0
C199 C 0.29622 0.1464 0.87667 0.0
C200 C 0.26184 0.17832 0.91491 0.0
C201 C 0.31471 0.148 0.91968 0.0
N202 N 0.25089 0.17794 0.88781 0.0
N203 N 0.33584 0.12798 0.89549 0.0
H204 H 0.29702 0.13204 0.85559 0.0
H205 H 0.2316 0.19543 0.93025 0.0
C206 C 0.20057 0.32171 0.89213 0.0
O207 O 0.24608 0.30698 0.90754 0.0
N208 N 0.10693 0.20344 0.84627 0.0
C209 C 0.07401 0.16051 0.83395 0.0
C210 C 0.03238 0.18693 0.81754 0.0
C211 C 0.08637 0.25484 0.83611 0.0
N212 N 0.03993 0.24625 0.81922 0.0
C213 C 0.20878 0.1728 0.81205 0.0
C214 C 0.27743 0.27434 0.80676 0.0
C215 C 0.25596 0.24712 0.78268 0.0
C216 C 0.22329 0.19365 0.78597 0.0
C217 C 0.25992 0.25312 0.83241 0.0
N218 N 0.2229 0.20518 0.83467 0.0
H219 H 0.18201 0.13299 0.81398 0.0
H220 H 0.27416 0.27687 0.85046 0.0
H221 H 0.07898 0.11298 0.83654 0.0
H222 H 0.10102 0.29842 0.84266 0.0
O223 O 0.16 0.10694 0.86868 0.0
O224 O 0.12893 0.17171 0.89929 0.0
O225 O 0.17689 0.28338 0.87587 0.0
C226 C 0.12556 0.11806 0.88972 0.0
H227 H 0.33368 0.13816 0.9395 0.0
H228 H 0.99534 0.1649 0.80756 0.0
H229 H 0.3064 0.31275 0.80633 0.0
H230 H 0.20627 0.16835 0.76896 0.0
Co231 Co 0.08223 0.93146 0.11796 0.0
C232 C 0.12795 0.04919 0.12809 0.0
C233 C 0.10035 1.01046 0.16613 0.0
C234 C 0.13345 0.06134 0.17149 0.0
N235 N 0.09648 1.0033 0.13881 0.0
N236 N 0.15094 0.0851 0.14741 0.0
H237 H 0.14019 0.05202 0.10679 0.0
H238 H 0.08533 0.97821 0.18106 0.0
C239 C 0.9553 0.94748 0.14415 0.0
O240 O 0.97058 0.99064 0.16082 0.0
N241 N 0.07363 0.86263 0.09479 0.0
C242 C 0.11718 0.83555 0.08015 0.0
C243 C 0.0925 0.79109 0.06476 0.0
C244 C 0.02305 0.83588 0.08708 0.0
N245 N 0.03346 0.79181 0.06913 0.0
C246 C 0.10246 0.973 0.06294 0.0
C247 C 0.99198 0.02655 0.05819 0.0
C248 C 0.02381 1.0143 0.03398 0.0
C249 C 0.08187 0.99052 0.03712 0.0
C250 C 1.01509 1.01008 0.08355 0.0
N251 N 0.06728 0.97927 0.08545 0.0
H252 H 0.14532 0.95129 0.06467 0.0
H253 H 0.989 0.01936 0.10155 0.0
H254 H 0.16417 0.84596 0.08078 0.0
H255 H 0.9799 0.84408 0.09614 0.0
O256 O 0.16906 0.91603 0.11764 0.0
O257 O 0.10593 0.8809 0.14803 0.0
O258 O 0.99264 0.92707 0.12654 0.0
C259 C 0.15933 0.87976 0.13817 0.0
H260 H 0.14752 0.07652 0.19146 0.0
H261 H 0.11631 0.75723 0.05337 0.0
H262 H 0.94832 0.04659 0.05822 0.0
H263 H 0.11135 0.9836 0.01998 0.0
Co264 Co 0.68145 0.8322 0.86796 0.0
C265 C 0.79922 0.87784 0.87811 0.0
C266 C 0.7604 0.85035 0.91614 0.0
C267 C 0.81129 0.88344 0.9215 0.0
N268 N 0.75329 0.84642 0.88883 0.0
N269 N 0.83515 0.9008 0.89743 0.0
H270 H 0.80205 0.89009 0.85681 0.0
H271 H 0.7281 0.83542 0.93107 0.0
C272 C 0.69744 0.70527 0.89416 0.0
O273 O 0.74055 0.72058 0.91086 0.0
N274 N 0.61263 0.82359 0.84478 0.0
C275 C 0.58557 0.86715 0.83014 0.0
C276 C 0.54111 0.84248 0.81475 0.0
C277 C 0.58586 0.77302 0.83709 0.0
N278 N 0.5418 0.78344 0.81913 0.0
C279 C 0.72302 0.85246 0.81296 0.0
C280 C 0.77653 0.74196 0.80819 0.0
C281 C 0.7643 0.77382 0.78398 0.0
C282 C 0.74054 0.83188 0.78713 0.0
C283 C 0.76007 0.76506 0.83355 0.0
N284 N 0.72927 0.81725 0.83546 0.0
H285 H 0.70133 0.89533 0.81469 0.0
H286 H 0.76933 0.73894 0.85155 0.0
H287 H 0.596 0.91413 0.83076 0.0
H288 H 0.59403 0.72988 0.84615 0.0
O289 O 0.66604 0.91902 0.86764 0.0
O290 O 0.63087 0.85588 0.89803 0.0
O291 O 0.67706 0.7426 0.87654 0.0
C292 C 0.62974 0.90928 0.88816 0.0
H293 H 0.8264 0.8976 0.94147 0.0
H294 H 0.50726 0.86629 0.80336 0.0
H295 H 0.79656 0.6983 0.80821 0.0
H296 H 0.73363 0.86139 0.77 0.0
Co297 Co 0.94322 0.92766 0.61814 0.0
C298 C 0.89648 0.04628 0.62666 0.0
C299 C 0.9283 1.01183 0.6649 0.0
C300 C 0.89799 0.06471 0.66967 0.0
N301 N 0.92797 1.00091 0.6378 0.0
N302 N 0.87808 0.08592 0.64548 0.0
H303 H 0.8821 0.04707 0.60558 0.0
H304 H 0.94533 0.98155 0.68025 0.0
C305 C 0.07171 0.95059 0.64211 0.0
O306 O 0.05698 0.99607 0.65754 0.0
N307 N 0.95344 0.85696 0.59625 0.0
C308 C 0.9105 0.82405 0.58393 0.0
C309 C 0.93692 0.78241 0.56753 0.0
C310 C 1.00483 0.83638 0.5861 0.0
N311 N 0.99624 0.78994 0.56921 0.0
C312 C 0.9228 0.95883 0.56204 0.0
C313 C 0.02435 0.02746 0.55675 0.0
C314 C 0.99712 1.00601 0.53267 0.0
C315 C 0.94364 0.97335 0.53596 0.0
C316 C 1.00313 1.00994 0.5824 0.0
N317 N 0.9552 0.97293 0.58466 0.0
H318 H 0.88298 0.93207 0.56397 0.0
H319 H 0.02689 0.02418 0.60045 0.0
H320 H 0.86297 0.82904 0.58651 0.0
H321 H 0.04842 0.85101 0.59265 0.0
O322 O 0.85695 0.91004 0.61867 0.0
O323 O 0.92172 0.87896 0.64928 0.0
O324 O 0.03339 0.92691 0.62585 0.0
C325 C 0.86807 0.87559 0.63971 0.0
H326 H 0.88804 0.08361 0.6895 0.0
H327 H 0.91488 0.74537 0.55755 0.0
H328 H 0.06276 0.05643 0.55632 0.0
H329 H 0.91833 0.95635 0.51895 0.0
Co330 Co 0.85082 0.20009 0.36796 0.0
C331 C 0.73306 0.15444 0.37811 0.0
C332 C 0.77187 0.18193 0.41614 0.0
C333 C 0.72099 0.14884 0.4215 0.0
N334 N 0.77899 0.18586 0.38883 0.0
N335 N 0.69712 0.13148 0.39743 0.0
H336 H 0.73022 0.14219 0.35681 0.0
H337 H 0.80417 0.19685 0.43107 0.0
C338 C 0.83484 0.32701 0.39416 0.0
O339 O 0.79173 0.3117 0.41086 0.0
N340 N 0.91964 0.20869 0.34478 0.0
C341 C 0.9467 0.16513 0.33013 0.0
C342 C 0.99116 0.1898 0.31475 0.0
C343 C 0.94641 0.25926 0.33709 0.0
N344 N 0.99047 0.24884 0.31913 0.0
C345 C 0.80924 0.17982 0.31296 0.0
C346 C 0.75575 0.29033 0.30819 0.0
C347 C 0.76797 0.25846 0.28398 0.0
C348 C 0.79172 0.2004 0.28713 0.0
C349 C 0.77221 0.26723 0.33355 0.0
N350 N 0.803 0.21503 0.33545 0.0
H351 H 0.83092 0.13695 0.31469 0.0
H352 H 0.76295 0.29335 0.35155 0.0
H353 H 0.93626 0.11815 0.33076 0.0
H354 H 0.93825 0.3024 0.34615 0.0
O355 O 0.86623 0.11326 0.36764 0.0
O356 O 0.9014 0.1764 0.39803 0.0
O357 O 0.85522 0.28968 0.37654 0.0
C358 C 0.90253 0.123 0.38816 0.0
H359 H 0.70588 0.13467 0.44147 0.0
H360 H 0.025 0.16599 0.30335 0.0
H361 H 0.73572 0.33399 0.30821 0.0
H362 H 0.79862 0.17089 0.27 0.0
Co363 Co 0.58905 0.10461 0.11814 0.0
C364 C 0.6358 0.986 0.12665 0.0
C365 C 0.60397 0.02044 0.1649 0.0
C366 C 0.63429 0.96757 0.16967 0.0
N367 N 0.6043 0.03136 0.1378 0.0
N368 N 0.65419 0.94635 0.14547 0.0
H369 H 0.65018 0.98521 0.10558 0.0
H370 H 0.58695 0.05072 0.18025 0.0
C371 C 0.46057 0.08168 0.14211 0.0
O372 O 0.47529 0.0362 0.15754 0.0
N373 N 0.57884 0.17532 0.09625 0.0
C374 C 0.62177 0.20823 0.08393 0.0
C375 C 0.59535 0.24987 0.06753 0.0
C376 C 0.52744 0.1959 0.0861 0.0
N377 N 0.53603 0.24233 0.06921 0.0
C378 C 0.60947 0.07344 0.06204 0.0
C379 C 0.50792 1.00481 0.05675 0.0
C380 C 0.53516 0.02627 0.03267 0.0
C381 C 0.58863 0.05892 0.03596 0.0
C382 C 0.52914 0.02233 0.0824 0.0
N383 N 0.57708 0.05935 0.08466 0.0
H384 H 0.64929 0.10021 0.06397 0.0
H385 H 0.50538 1.00809 0.10045 0.0
H386 H 0.6693 0.20324 0.08651 0.0
H387 H 0.48386 0.18126 0.09265 0.0
O388 O 0.67533 0.12223 0.11867 0.0
O389 O 0.61056 0.15332 0.14928 0.0
O390 O 0.49889 0.10537 0.12585 0.0
C391 C 0.66421 0.15669 0.13971 0.0
H392 H 0.64423 0.94867 0.1895 0.0
H393 H 0.61739 0.2869 0.05755 0.0
H394 H 0.46951 0.97585 0.05632 0.0
H395 H 0.61394 0.07592 1.01895 0.0
Co396 Co 0.68143 0.20005 0.67078 0.0
C397 C 0.79916 0.15433 0.66064 0.0
C398 C 0.76042 0.18192 0.6226 0.0
C399 C 0.81129 0.14882 0.61724 0.0
N400 N 0.75327 0.18579 0.64992 0.0
N401 N 0.83506 0.13134 0.64131 0.0
H402 H 0.80201 0.14209 0.68194 0.0
H403 H 0.72816 0.19693 0.60767 0.0
C404 C 0.69746 0.32697 0.64458 0.0
O405 O 0.74059 0.31167 0.62789 0.0
N406 N 0.61261 0.20866 0.69395 0.0
C407 C 0.58553 0.16511 0.7086 0.0
C408 C 0.54108 0.18979 0.72398 0.0
C409 C 0.58586 0.25924 0.70165 0.0
N410 N 0.5418 0.24883 0.71961 0.0
C411 C 0.72298 0.1798 0.72579 0.0
C412 C 0.77654 0.29028 0.73054 0.0
C413 C 0.76429 0.25844 0.75476 0.0
C414 C 0.7405 0.20039 0.75161 0.0
C415 C 0.76007 0.26717 0.70519 0.0
N416 N 0.72925 0.21499 0.70329 0.0
H417 H 0.70128 0.13694 0.72406 0.0
H418 H 0.76934 0.29327 0.68718 0.0
H419 H 0.59594 0.11813 0.70796 0.0
H420 H 0.59405 0.30239 0.69259 0.0
O421 O 0.666 0.11323 0.6711 0.0
O422 O 0.63086 0.17637 0.64071 0.0
O423 O 0.67706 0.28964 0.66219 0.0
C424 C 0.62971 0.12297 0.65058 0.0
H425 H 0.82647 0.13475 0.59726 0.0
H426 H 0.50723 0.16598 0.73537 0.0
H427 H 0.79659 0.33394 0.73052 0.0
H428 H 0.73357 0.1709 0.76875 0.0
Co429 Co 0.58909 0.92765 0.4206 0.0
C430 C 0.63591 0.04623 0.41208 0.0
C431 C 0.60398 1.01185 0.37384 0.0
C432 C 0.6343 0.06472 0.36907 0.0
N433 N 0.60437 1.0009 0.40093 0.0
N434 N 0.65432 0.08585 0.39326 0.0
H435 H 0.65028 0.04703 0.43316 0.0
H436 H 0.58687 0.98162 0.3585 0.0
C437 C 0.46059 0.95061 0.39663 0.0
O438 O 0.47531 0.99612 0.38121 0.0
N439 N 0.57886 0.85694 0.44248 0.0
C440 C 0.62178 0.82403 0.4548 0.0
C441 C 0.59536 0.78239 0.47121 0.0
C442 C 0.52746 0.83638 0.45264 0.0
N443 N 0.53604 0.78994 0.46952 0.0
C444 C 0.60948 0.95881 0.4767 0.0
C445 C 0.50795 0.02747 0.48197 0.0
C446 C 0.53516 1.00601 0.50606 0.0
C447 C 0.58863 0.97334 0.50278 0.0
C448 C 0.52918 1.00995 0.45633 0.0
N449 N 0.57711 0.97292 0.45408 0.0
H450 H 0.6493 0.93204 0.47478 0.0
H451 H 0.50544 0.0242 0.43828 0.0
H452 H 0.66931 0.829 0.45222 0.0
H453 H 0.48387 0.85102 0.44608 0.0
O454 O 0.67536 0.91001 0.42007 0.0
O455 O 0.61059 0.87894 0.38946 0.0
O456 O 0.49892 0.92691 0.41288 0.0
C457 C 0.66424 0.87557 0.39903 0.0
H458 H 0.64414 0.08369 0.34924 0.0
H459 H 0.61739 0.74535 0.48118 0.0
H460 H 0.46954 0.05645 0.4824 0.0
H461 H 0.61392 0.95634 0.5198 0.0
Co462 Co 0.85084 0.83222 0.17078 0.0
C463 C 0.73311 0.87794 0.16064 0.0
C464 C 0.77186 0.85035 0.1226 0.0
C465 C 0.72098 0.88346 0.11724 0.0
N466 N 0.779 0.84648 0.14992 0.0
N467 N 0.69721 0.90093 0.14131 0.0
H468 H 0.73026 0.89018 0.18194 0.0
H469 H 0.80412 0.83534 0.10767 0.0
C470 C 0.83482 0.7053 0.14458 0.0
O471 O 0.79169 0.7206 0.12789 0.0
N472 N 0.91966 0.82361 0.19395 0.0
C473 C 0.94673 0.86716 0.2086 0.0
C474 C 0.99118 0.84248 0.22399 0.0
C475 C 0.94641 0.77303 0.20165 0.0
N476 N 0.99048 0.78345 0.21961 0.0
C477 C 0.80928 0.85247 0.22579 0.0
C478 C 0.75574 0.74198 0.23054 0.0
C479 C 0.76798 0.77383 0.25476 0.0
C480 C 0.79176 0.83188 0.25161 0.0
C481 C 0.7722 0.76509 0.20519 0.0
N482 N 0.80301 0.81728 0.20329 0.0
H483 H 0.83098 0.89533 0.22406 0.0
H484 H 0.76293 0.73899 0.18718 0.0
H485 H 0.93631 0.91414 0.20797 0.0
H486 H 0.93823 0.72989 0.19259 0.0
O487 O 0.86627 0.91904 0.1711 0.0
O488 O 0.90141 0.8559 0.14071 0.0
O489 O 0.85522 0.74263 0.1622 0.0
C490 C 0.90256 0.9093 0.15058 0.0
H491 H 0.70581 0.89753 0.09726 0.0
H492 H 0.02504 0.86629 0.23538 0.0
H493 H 0.73569 0.69833 0.23052 0.0
H494 H 0.79868 0.86137 0.26875 0.0
Co495 Co 0.94319 0.10462 0.9206 0.0
C496 C 0.89637 0.98604 0.91208 0.0
C497 C 0.9283 0.02042 0.87384 0.0
C498 C 0.89797 0.96755 0.86907 0.0
N499 N 0.92791 0.03138 0.90093 0.0
N500 N 0.87795 0.94643 0.89326 0.0
H501 H 0.882 0.98525 0.93316 0.0
H502 H 0.94541 0.05066 0.8585 0.0
C503 C 0.07168 0.08166 0.89663 0.0
O504 O 0.05696 0.03616 0.88121 0.0
N505 N 0.95342 0.17533 0.94248 0.0
C506 C 0.91049 0.20825 0.9548 0.0
C507 C 0.93692 0.24988 0.9712 0.0
C508 C 1.00482 0.1959 0.95264 0.0
N509 N 0.99624 0.24234 0.96952 0.0
C510 C 0.92279 0.07346 0.9767 0.0
C511 C 0.02432 1.0048 0.98197 0.0
C512 C 0.99711 0.02627 1.00606 0.0
C513 C 0.94365 0.05894 1.00278 0.0
C514 C 1.00309 0.02233 0.95633 0.0
N515 N 0.95517 0.05936 0.95408 0.0
H516 H 0.88298 0.10024 0.97478 0.0
H517 H 0.02684 1.00808 0.93828 0.0
H518 H 0.86296 0.20327 0.95222 0.0
H519 H 0.0484 0.18125 0.94608 0.0
O520 O 0.85692 0.12226 0.92007 0.0
O521 O 0.92169 0.15333 0.88946 0.0
O522 O 0.03335 0.10537 0.91288 0.0
C523 C 0.86804 0.15671 0.89903 0.0
H524 H 0.88813 0.94858 0.84924 0.0
H525 H 0.91489 0.28692 0.98118 0.0
H526 H 0.06273 0.97583 0.9824 0.0
H527 H 0.91835 0.07594 0.0198 0.0
Co528 Co 0.85458 0.69324 0.67059 0.0
C529 C 0.73596 0.6465 0.66208 0.0
C530 C 0.7704 0.67831 0.62383 0.0
C531 C 0.71753 0.64799 0.61906 0.0
N532 N 0.78132 0.67799 0.65093 0.0
N533 N 0.69631 0.6281 0.64326 0.0
H534 H 0.73517 0.63213 0.68315 0.0
H535 H 0.80068 0.69533 0.60848 0.0
C536 C 0.83166 0.82172 0.64661 0.0
O537 O 0.78618 0.80698 0.63117 0.0
N538 N 0.92529 0.70344 0.69247 0.0
C539 C 0.95813 0.6605 0.70483 0.0
C540 C 0.99983 0.68689 0.72122 0.0
C541 C 0.94597 0.75486 0.70257 0.0
N542 N 0.99238 0.7462 0.71945 0.0
C543 C 0.82338 0.67281 0.72668 0.0
C544 C 0.75481 0.7744 0.73198 0.0
C545 C 0.77624 0.74714 0.75606 0.0
C546 C 0.80886 0.69364 0.75277 0.0
C547 C 0.77233 0.75318 0.70633 0.0
N548 N 0.80932 0.70523 0.70407 0.0
H549 H 0.8501 0.63296 0.72475 0.0
H550 H 0.7581 0.77696 0.68829 0.0
H551 H 0.95304 0.61296 0.7023 0.0
H552 H 0.93143 0.79844 0.69598 0.0
O553 O 0.87219 0.60697 0.67006 0.0
O554 O 0.90328 0.67173 0.63945 0.0
O555 O 0.85534 0.78341 0.66287 0.0
C556 C 0.90665 0.61808 0.64902 0.0
H557 H 0.69863 0.63804 0.59924 0.0
H558 H 0.03681 0.66484 0.73124 0.0
H559 H 0.72587 0.81283 0.73241 0.0
H560 H 0.82582 0.6683 0.76978 0.0
Co561 Co 0.58216 0.60081 0.92077 0.0
C562 C 0.62779 0.48304 0.91062 0.0
C563 C 0.60033 0.52187 0.87259 0.0
C564 C 0.63342 0.47099 0.86723 0.0
N565 N 0.59638 0.52898 0.8999 0.0
N566 N 0.65076 0.44711 0.8913 0.0
H567 H 0.64003 0.4802 0.93193 0.0
H568 H 0.58541 0.55418 0.85766 0.0
C569 C 0.45525 0.58484 0.89456 0.0
O570 O 0.47055 0.54173 0.87787 0.0
N571 N 0.57358 0.66963 0.94395 0.0
C572 C 0.61713 0.69657 0.95866 0.0
C573 C 0.59251 0.74111 0.97402 0.0
C574 C 0.52304 0.69655 0.95157 0.0
N575 N 0.53352 0.74056 0.96954 0.0
C576 C 0.60245 0.55916 0.97576 0.0
C577 C 0.49188 0.50579 0.98055 0.0
C578 C 0.52379 0.51795 1.00475 0.0
C579 C 0.58188 0.54164 1.00159 0.0
C580 C 0.51498 0.52224 0.95519 0.0
N581 N 0.5672 0.55298 0.95328 0.0
H582 H 0.64535 0.58078 0.97402 0.0
H583 H 0.48883 0.51302 0.93719 0.0
H584 H 0.66408 0.68599 0.95809 0.0
H585 H 0.47992 0.68851 0.94245 0.0
O586 O 0.66899 0.61622 0.9211 0.0
O587 O 0.60585 0.6514 0.89071 0.0
O588 O 0.49257 0.60523 0.91219 0.0
C589 C 0.65925 0.65253 0.90058 0.0
H590 H 0.64759 0.45589 0.84726 0.0
H591 H 0.61633 0.77487 0.98547 0.0
H592 H 0.44819 0.48582 0.98054 0.0
H593 H 0.61141 0.54848 1.01872 0.0
Co594 Co 0.6777 0.33904 0.17059 0.0
C595 C 0.79632 0.38578 0.16208 0.0
C596 C 0.76188 0.35397 0.12383 0.0
C597 C 0.81475 0.38428 0.11906 0.0
N598 N 0.75095 0.35429 0.15093 0.0
N599 N 0.83597 0.40418 0.14326 0.0
H600 H 0.7971 0.40015 0.18315 0.0
H601 H 0.7316 0.33695 0.10848 0.0
C602 C 0.70061 0.21056 0.14661 0.0
O603 O 0.74609 0.22529 0.13117 0.0
N604 N 0.60698 0.32883 0.19247 0.0
C605 C 0.57414 0.37178 0.20483 0.0
C606 C 0.53244 0.34538 0.22121 0.0
C607 C 0.5863 0.27742 0.20257 0.0
N608 N 0.53989 0.28608 0.21945 0.0
C609 C 0.70889 0.35947 0.22668 0.0
C610 C 0.77746 0.25788 0.23198 0.0
C611 C 0.75602 0.28514 0.25606 0.0
C612 C 0.7234 0.33864 0.25276 0.0
C613 C 0.75995 0.2791 0.20633 0.0
N614 N 0.72296 0.32705 0.20407 0.0
H615 H 0.68216 0.39931 0.22475 0.0
H616 H 0.77417 0.25532 0.18829 0.0
H617 H 0.57923 0.41931 0.20229 0.0
H618 H 0.60085 0.23383 0.19598 0.0
O619 O 0.66008 0.42531 0.17006 0.0
O620 O 0.62899 0.36055 0.13945 0.0
O621 O 0.67694 0.24887 0.16287 0.0
C622 C 0.62562 0.4142 0.14902 0.0
H623 H 0.83365 0.39423 0.09924 0.0
H624 H 0.49546 0.36743 0.23123 0.0
H625 H 0.8064 0.21945 0.23241 0.0
H626 H 0.70644 0.36397 0.26978 0.0
Co627 Co 0.95012 0.43147 0.42077 0.0
C628 C 0.9045 0.54924 0.41062 0.0
C629 C 0.93195 0.5104 0.37259 0.0
C630 C 0.89886 0.56129 0.36723 0.0
N631 N 0.9359 0.5033 0.3999 0.0
N632 N 0.88152 0.58517 0.3913 0.0
H633 H 0.89226 0.55208 0.43192 0.0
H634 H 0.94686 0.4781 0.35766 0.0
C635 C 0.07703 0.44743 0.39456 0.0
O636 O 0.06173 0.49054 0.37787 0.0
N637 N 0.9587 0.36265 0.44395 0.0
C638 C 0.91515 0.33571 0.45866 0.0
C639 C 0.93977 0.29117 0.47402 0.0
C640 C 1.00924 0.33572 0.45157 0.0
N641 N 0.99876 0.29171 0.46954 0.0
C642 C 0.92983 0.47312 0.47576 0.0
C643 C 0.0404 0.52648 0.48055 0.0
C644 C 1.00849 0.51432 0.50475 0.0
C645 C 0.9504 0.49064 0.50159 0.0
C646 C 0.01731 0.51003 0.45519 0.0
N647 N 0.96508 0.4793 0.45327 0.0
H648 H 0.88693 0.45151 0.47402 0.0
H649 H 0.04345 0.51925 0.43719 0.0
H650 H 0.8682 0.3463 0.45809 0.0
H651 H 0.05236 0.34376 0.44245 0.0
O652 O 0.86329 0.41606 0.4211 0.0
O653 O 0.92642 0.38088 0.39071 0.0
O654 O 0.03971 0.42705 0.41219 0.0
C655 C 0.87303 0.37975 0.40058 0.0
H656 H 0.88468 0.57639 0.34726 0.0
H657 H 0.91595 0.25742 0.48547 0.0
H658 H 0.0841 0.54644 0.48054 0.0
H659 H 0.92087 0.48381 0.51872 0.0
Co660 Co 0.85459 0.33907 0.86814 0.0
C661 C 0.736 0.38588 0.87665 0.0
C662 C 0.77038 0.35397 0.9149 0.0
C663 C 0.71751 0.3843 0.91967 0.0
N664 N 0.78134 0.35435 0.8878 0.0
N665 N 0.69639 0.40431 0.89548 0.0
H666 H 0.73521 0.40024 0.85558 0.0
H667 H 0.80062 0.33687 0.93024 0.0
C668 C 0.83164 0.21058 0.89213 0.0
O669 O 0.78614 0.22531 0.90755 0.0
N670 N 0.9253 0.32885 0.84627 0.0
C671 C 0.95815 0.37179 0.8339 0.0
C672 C 0.99985 0.34538 0.81752 0.0
C673 C 0.94597 0.27743 0.83617 0.0
N674 N 0.99238 0.28608 0.81928 0.0
C675 C 0.8234 0.35948 0.81205 0.0
C676 C 0.7548 0.2579 0.80676 0.0
C677 C 0.77624 0.28514 0.78267 0.0
C678 C 0.80887 0.33863 0.78596 0.0
C679 C 0.77232 0.27913 0.8324 0.0
N680 N 0.80933 0.32708 0.83466 0.0
H681 H 0.85014 0.39931 0.81397 0.0
H682 H 0.75809 0.25537 0.85046 0.0
H683 H 0.95307 0.41932 0.83644 0.0
H684 H 0.93142 0.23385 0.84276 0.0
O685 O 0.87223 0.42534 0.86867 0.0
O686 O 0.90329 0.36058 0.89928 0.0
O687 O 0.85533 0.2489 0.87587 0.0
C688 C 0.90667 0.41422 0.88971 0.0
H689 H 0.69854 0.39415 0.93949 0.0
H690 H 0.03683 0.36743 0.8075 0.0
H691 H 0.72586 0.21948 0.80633 0.0
H692 H 0.82584 0.36396 0.76895 0.0
Co693 Co 0.95008 0.60083 0.11796 0.0
C694 C 0.90439 0.48309 0.1281 0.0
C695 C 0.93195 0.52186 0.16614 0.0
C696 C 0.89884 0.47098 0.1715 0.0
N697 N 0.93584 0.52899 0.13882 0.0
N698 N 0.88138 0.4472 0.14743 0.0
H699 H 0.89216 0.48024 0.1068 0.0
H700 H 0.94694 0.55412 0.18107 0.0
C701 C 0.077 0.58483 0.14417 0.0
O702 O 0.0617 0.54169 0.16085 0.0
N703 N 0.95868 0.66964 0.09478 0.0
C704 C 0.91513 0.6966 0.08008 0.0
C705 C 0.93976 0.74113 0.06471 0.0
C706 C 1.00923 0.69655 0.08716 0.0
N707 N 0.99875 0.74057 0.06919 0.0
C708 C 0.92982 0.55919 0.06296 0.0
C709 C 0.04037 0.50578 0.05819 0.0
C710 C 1.00848 0.51796 0.03398 0.0
C711 C 0.9504 0.54167 0.03713 0.0
C712 C 0.01726 0.52224 0.08355 0.0
N713 N 0.96505 0.553 0.08545 0.0
H714 H 0.88692 0.58083 0.06469 0.0
H715 H 0.04339 0.513 0.10154 0.0
H716 H 0.86818 0.68603 0.08065 0.0
H717 H 0.05235 0.6885 0.09627 0.0
O718 O 0.86326 0.61625 0.11763 0.0
O719 O 0.9264 0.65141 0.14802 0.0
O720 O 0.03968 0.60523 0.12655 0.0
C721 C 0.873 0.65255 0.13815 0.0
H722 H 0.88476 0.45581 0.19148 0.0
H723 H 0.91595 0.77489 0.05327 0.0
H724 H 0.08405 0.4858 0.0582 0.0
H725 H 0.92088 0.54853 0.02 0.0
Co726 Co 0.67769 0.6932 0.36815 0.0
C727 C 0.79627 0.64639 0.37665 0.0
C728 C 0.76189 0.6783 0.4149 0.0
C729 C 0.81477 0.64798 0.41967 0.0
N730 N 0.75094 0.67792 0.3878 0.0
N731 N 0.83589 0.62797 0.39548 0.0
H732 H 0.79706 0.63203 0.35558 0.0
H733 H 0.73166 0.6954 0.43024 0.0
C734 C 0.70064 0.82169 0.39213 0.0
O735 O 0.74613 0.80696 0.40755 0.0
N736 N 0.60697 0.70342 0.34627 0.0
C737 C 0.57412 0.66048 0.33391 0.0
C738 C 0.53242 0.68689 0.31752 0.0
C739 C 0.5863 0.75484 0.33617 0.0
N740 N 0.53989 0.7462 0.31929 0.0
C741 C 0.70887 0.67279 0.31205 0.0
C742 C 0.77747 0.77437 0.30676 0.0
C743 C 0.75603 0.74713 0.28267 0.0
C744 C 0.72339 0.69364 0.28597 0.0
C745 C 0.75995 0.75314 0.33241 0.0
N746 N 0.72295 0.70519 0.33466 0.0
H747 H 0.68213 0.63296 0.31397 0.0
H748 H 0.77418 0.7769 0.35046 0.0
H749 H 0.5792 0.61295 0.33644 0.0
H750 H 0.60086 0.79842 0.34276 0.0
O751 O 0.66005 0.60693 0.36867 0.0
O752 O 0.62898 0.67169 0.39929 0.0
O753 O 0.67694 0.78337 0.37587 0.0
C754 C 0.6256 0.61805 0.38971 0.0
H755 H 0.83374 0.63813 0.43949 0.0
H756 H 0.49544 0.66485 0.30751 0.0
H757 H 0.80642 0.81279 0.30633 0.0
H758 H 0.70642 0.66832 0.26895 0.0
Co759 Co 0.5822 0.43145 0.61796 0.0
C760 C 0.62789 0.54918 0.6281 0.0
C761 C 0.60033 0.51042 0.66614 0.0
C762 C 0.63343 0.56129 0.6715 0.0
N763 N 0.59644 0.50328 0.63882 0.0
N764 N 0.6509 0.58507 0.64743 0.0
H765 H 0.64012 0.55203 0.6068 0.0
H766 H 0.58533 0.47815 0.68107 0.0
C767 C 0.45527 0.44745 0.64416 0.0
O768 O 0.47057 0.49059 0.66085 0.0
N769 N 0.5736 0.36263 0.59478 0.0
C770 C 0.61715 0.33567 0.58008 0.0
C771 C 0.59252 0.29114 0.56472 0.0
C772 C 0.52305 0.33572 0.58716 0.0
N773 N 0.53353 0.29171 0.56919 0.0
C774 C 0.60246 0.47308 0.56296 0.0
C775 C 0.49192 0.5265 0.55819 0.0
C776 C 0.5238 0.51431 0.53398 0.0
C777 C 0.58188 0.4906 0.53713 0.0
C778 C 0.51502 0.51004 0.58355 0.0
N779 N 0.56723 0.47928 0.58545 0.0
H780 H 0.64535 0.45144 0.56469 0.0
H781 H 0.4889 0.51928 0.60155 0.0
H782 H 0.6641 0.34623 0.58065 0.0
H783 H 0.47993 0.34378 0.59627 0.0
O784 O 0.66902 0.41602 0.61763 0.0
O785 O 0.60588 0.38087 0.64802 0.0
O786 O 0.4926 0.42705 0.62654 0.0
C787 C 0.65927 0.37972 0.63815 0.0
H788 H 0.64751 0.57647 0.69148 0.0
H789 H 0.61633 0.25738 0.55327 0.0
H790 H 0.44823 0.54648 0.5582 0.0
H791 H 0.61139 0.48374 0.52 0.0
Co792 Co 0.1815 0.33216 0.36795 0.0
C793 C 0.29927 0.37779 0.3781 0.0
C794 C 0.26044 0.35033 0.41613 0.0
C795 C 0.31132 0.38342 0.4215 0.0
N796 N 0.25333 0.34638 0.38882 0.0
N797 N 0.33519 0.40077 0.39742 0.0
H798 H 0.30211 0.39003 0.3568 0.0
H799 H 0.22813 0.33541 0.43107 0.0
C800 C 0.19749 0.20524 0.39415 0.0
O801 O 0.24058 0.22055 0.41086 0.0
N802 N 0.11269 0.32358 0.34477 0.0
C803 C 0.08575 0.36713 0.33006 0.0
C804 C 0.0412 0.34252 0.31471 0.0
C805 C 0.08574 0.27304 0.33716 0.0
N806 N 0.04173 0.28353 0.31919 0.0
C807 C 0.22316 0.35245 0.31296 0.0
C808 C 0.27654 0.24188 0.30818 0.0
C809 C 0.26438 0.27379 0.28397 0.0
C810 C 0.24069 0.33188 0.28713 0.0
C811 C 0.26008 0.26498 0.33354 0.0
N812 N 0.22934 0.3172 0.33545 0.0
H813 H 0.20154 0.39535 0.3147 0.0
H814 H 0.26931 0.23885 0.35154 0.0
H815 H 0.09635 0.41408 0.33062 0.0
H816 H 0.09377 0.22993 0.34628 0.0
O817 O 0.16609 0.41899 0.36763 0.0
O818 O 0.13091 0.35585 0.39801 0.0
O819 O 0.17709 0.24257 0.37653 0.0
C820 C 0.12978 0.40924 0.38814 0.0
H821 H 0.32642 0.3976 0.44147 0.0
H822 H 1.00745 0.36634 0.30325 0.0
H823 H 0.2965 0.19819 0.30819 0.0
H824 H 0.23385 0.3614 0.27 0.0
Co825 Co 0.44327 0.42769 0.11815 0.0
C826 C 0.39653 0.54631 0.12666 0.0
C827 C 0.42833 0.51186 0.16491 0.0
C828 C 0.39801 0.56473 0.16968 0.0
N829 N 0.42802 0.50094 0.13782 0.0
N830 N 0.37812 0.58595 0.14548 0.0
H831 H 0.38216 0.5471 0.10559 0.0
H832 H 0.44534 0.48157 0.18026 0.0
C833 C 0.57174 0.4506 0.14213 0.0
O834 O 0.55699 0.49605 0.15758 0.0
N835 N 0.45347 0.35698 0.09627 0.0
C836 C 0.41052 0.32414 0.0839 0.0
C837 C 0.43691 0.28244 0.06752 0.0
C838 C 0.50488 0.33629 0.08617 0.0
N839 N 0.49622 0.28989 0.06928 0.0
C840 C 0.42281 0.45888 0.06206 0.0
C841 C 0.52439 0.52745 0.05675 0.0
C842 C 0.49712 0.50601 0.03267 0.0
C843 C 0.44363 0.47339 0.03597 0.0
C844 C 0.50319 0.50994 0.0824 0.0
N845 N 0.45523 0.47295 0.08467 0.0
H846 H 0.38296 0.43215 0.064 0.0
H847 H 0.52697 0.52417 0.10044 0.0
H848 H 0.36299 0.32923 0.08644 0.0
H849 H 0.54847 0.35083 0.09276 0.0
O850 O 0.35699 0.41007 0.11868 0.0
O851 O 0.42178 0.37898 0.14929 0.0
O852 O 0.53344 0.42694 0.12586 0.0
C853 C 0.36814 0.3756 0.13971 0.0
H854 H 0.38805 0.58362 0.18951 0.0
H855 H 0.41485 0.24547 0.0575 0.0
H856 H 0.56282 0.5564 0.05631 0.0
H857 H 0.4183 0.4564 1.01896 0.0
Co858 Co 0.35078 0.70011 0.86795 0.0
C859 C 0.23301 0.65448 0.8781 0.0
C860 C 0.27184 0.68195 0.91613 0.0
C861 C 0.22095 0.64885 0.9215 0.0
N862 N 0.27895 0.68589 0.88882 0.0
N863 N 0.19708 0.6315 0.89742 0.0
H864 H 0.23017 0.64224 0.8568 0.0
H865 H 0.30414 0.69686 0.93107 0.0
C866 C 0.33478 0.82703 0.89415 0.0
O867 O 0.29169 0.81172 0.91086 0.0
N868 N 0.41959 0.70869 0.84477 0.0
C869 C 0.44653 0.66514 0.83006 0.0
C870 C 0.49108 0.68976 0.81471 0.0
C871 C 0.44653 0.75923 0.83716 0.0
N872 N 0.49055 0.74874 0.81919 0.0
C873 C 0.30913 0.67982 0.81296 0.0
C874 C 0.25574 0.79038 0.80818 0.0
C875 C 0.26791 0.75848 0.78397 0.0
C876 C 0.2916 0.7004 0.78713 0.0
C877 C 0.27219 0.76728 0.83354 0.0
N878 N 0.30294 0.71506 0.83545 0.0
H879 H 0.33075 0.63693 0.81469 0.0
H880 H 0.26296 0.79342 0.85154 0.0
H881 H 0.43595 0.61819 0.83063 0.0
H882 H 0.4385 0.80235 0.84628 0.0
O883 O 0.36619 0.61328 0.86763 0.0
O884 O 0.40136 0.67643 0.89801 0.0
O885 O 0.35518 0.7897 0.87653 0.0
C886 C 0.4025 0.62303 0.88815 0.0
H887 H 0.20585 0.63468 0.94147 0.0
H888 H 0.52484 0.66593 0.80326 0.0
H889 H 0.23577 0.83408 0.80819 0.0
H890 H 0.29845 0.67087 0.77 0.0
Co891 Co 0.089 0.60458 0.61815 0.0
C892 C 0.13574 0.48596 0.62666 0.0
C893 C 0.10395 0.52042 0.66491 0.0
C894 C 0.13426 0.46754 0.66968 0.0
N895 N 0.10425 0.53133 0.63782 0.0
N896 N 0.15415 0.44632 0.64548 0.0
H897 H 0.15011 0.48517 0.60559 0.0
H898 H 0.08694 0.5507 0.68026 0.0
C899 C 0.96053 0.58168 0.64213 0.0
O900 O 0.97528 0.53623 0.65759 0.0
N901 N 0.0788 0.6753 0.59627 0.0
C902 C 0.12176 0.70813 0.5839 0.0
C903 C 0.09537 0.74983 0.56752 0.0
C904 C 0.0274 0.69598 0.58617 0.0
N905 N 0.03606 0.74238 0.56928 0.0
C906 C 0.10947 0.57339 0.56206 0.0
C907 C 1.00788 0.50482 0.55675 0.0
C908 C 0.03515 0.52627 0.53267 0.0
C909 C 0.08864 0.55889 0.53598 0.0
C910 C 0.02908 0.52233 0.5824 0.0
N911 N 0.07704 0.55932 0.58467 0.0
H912 H 0.14931 0.60012 0.564 0.0
H913 H 1.0053 0.50811 0.60044 0.0
H914 H 0.16929 0.70304 0.58644 0.0
H915 H 0.98381 0.68145 0.59276 0.0
O916 O 0.17528 0.6222 0.61868 0.0
O917 O 0.1105 0.65329 0.64929 0.0
O918 O 0.99884 0.60534 0.62586 0.0
C919 C 0.16414 0.65667 0.63971 0.0
H920 H 0.14422 0.44865 0.68951 0.0
H921 H 0.11742 0.7868 0.5575 0.0
H922 H 0.96945 0.47588 0.55631 0.0
H923 H 0.11398 0.57587 0.51897 0.0
Co924 Co 0.18148 0.70008 0.17079 0.0
C925 C 0.29921 0.65438 0.16064 0.0
C926 C 0.26045 0.68195 0.12261 0.0
C927 C 0.31132 0.64884 0.11724 0.0
N928 N 0.25331 0.68583 0.14992 0.0
N929 N 0.3351 0.63137 0.14132 0.0
H930 H 0.30207 0.64215 0.18195 0.0
H931 H 0.22819 0.69694 0.10767 0.0
C932 C 0.19751 0.827 0.14459 0.0
O933 O 0.24062 0.81171 0.12789 0.0
N934 N 0.11267 0.70868 0.19397 0.0
C935 C 0.08572 0.66513 0.20867 0.0
C936 C 0.04118 0.68975 0.22403 0.0
C937 C 0.08574 0.75922 0.20158 0.0
N938 N 0.04173 0.74874 0.21955 0.0
C939 C 0.22312 0.67981 0.22579 0.0
C940 C 0.27655 0.79036 0.23055 0.0
C941 C 0.26436 0.75848 0.25476 0.0
C942 C 0.24065 0.7004 0.25161 0.0
C943 C 0.26009 0.76725 0.2052 0.0
N944 N 0.22932 0.71504 0.20329 0.0
H945 H 0.20148 0.63692 0.22406 0.0
H946 H 0.26933 0.79337 0.1872 0.0
H947 H 0.09629 0.61817 0.2081 0.0
H948 H 0.09379 0.80234 0.19246 0.0
O949 O 0.16605 0.61326 0.17111 0.0
O950 O 0.1309 0.6764 0.14072 0.0
O951 O 0.17709 0.78968 0.16221 0.0
C952 C 0.12975 0.62301 0.15059 0.0
H953 H 0.32649 0.63475 0.09727 0.0
H954 H 1.00742 0.66593 0.23548 0.0
H955 H 0.29653 0.83404 0.23054 0.0
H956 H 0.23379 0.67089 0.26875 0.0
Co957 Co 0.08904 0.42768 0.92058 0.0
C958 C 0.13585 0.54627 0.91207 0.0
C959 C 0.10395 0.51187 0.87383 0.0
C960 C 0.13428 0.56474 0.86906 0.0
N961 N 0.10432 0.50093 0.90092 0.0
N962 N 0.15428 0.58588 0.89325 0.0
H963 H 0.1502 0.54707 0.93315 0.0
H964 H 0.08686 0.48163 0.85848 0.0
C965 C 0.96056 0.45062 0.8966 0.0
O966 O 0.9753 0.49608 0.88116 0.0
N967 N 0.07882 0.35697 0.94247 0.0
C968 C 0.12177 0.32412 0.95483 0.0
C969 C 0.09537 0.28243 0.97122 0.0
C970 C 0.02741 0.33629 0.95257 0.0
N971 N 0.03606 0.28989 0.96945 0.0
C972 C 0.10948 0.45886 0.97668 0.0
C973 C 1.00791 0.52746 0.98198 0.0
C974 C 0.03516 0.50601 1.00606 0.0
C975 C 0.08864 0.47337 1.00276 0.0
C976 C 0.02912 0.50995 0.95633 0.0
N977 N 0.07707 0.47294 0.95407 0.0
H978 H 0.14931 0.43212 0.97475 0.0
H979 H 1.00535 0.52418 0.93828 0.0
H980 H 0.1693 0.3292 0.95229 0.0
H981 H 0.98382 0.35084 0.94597 0.0
O982 O 0.17531 0.41004 0.92006 0.0
O983 O 0.11053 0.37897 0.88944 0.0
O984 O 0.99887 0.42694 0.91287 0.0
C985 C 0.16416 0.37558 0.89903 0.0
H986 H 0.14413 0.58371 0.84923 0.0
H987 H 0.11742 0.24545 0.98123 0.0
H988 H 0.96948 0.55641 0.98242 0.0
H989 H 0.11396 0.45638 0.01978 0.0
Co990 Co 0.35079 0.3322 0.67079 0.0
C991 C 0.23306 0.3779 0.66064 0.0
C992 C 0.27182 0.35033 0.62261 0.0
C993 C 0.22095 0.38344 0.61724 0.0
N994 N 0.27896 0.34645 0.64992 0.0
N995 N 0.19717 0.4009 0.64132 0.0
H996 H 0.23021 0.39013 0.68195 0.0
H997 H 0.30409 0.33533 0.60767 0.0
C998 C 0.33476 0.20528 0.64459 0.0
O999 O 0.29165 0.22057 0.62789 0.0
N1000 N 0.41961 0.3236 0.69396 0.0
C1001 C 0.44657 0.36715 0.70867 0.0
C1002 C 0.49111 0.34253 0.72403 0.0
C1003 C 0.44653 0.27306 0.70158 0.0
N1004 N 0.49055 0.28354 0.71955 0.0
C1005 C 0.30917 0.35247 0.72579 0.0
C1006 C 0.25573 0.24193 0.73055 0.0
C1007 C 0.26792 0.2738 0.75476 0.0
C1008 C 0.29164 0.33188 0.75161 0.0
C1009 C 0.27219 0.26504 0.7052 0.0
N1010 N 0.30296 0.31725 0.70329 0.0
H1011 H 0.33081 0.39535 0.72406 0.0
H1012 H 0.26294 0.23892 0.6872 0.0
H1013 H 0.436 0.41411 0.7081 0.0
H1014 H 0.43848 0.22994 0.69247 0.0
O1015 O 0.36623 0.41902 0.67111 0.0
O1016 O 0.40138 0.35587 0.64072 0.0
O1017 O 0.35518 0.2426 0.66221 0.0
C1018 C 0.40253 0.40927 0.65059 0.0
H1019 H 0.20578 0.39752 0.59727 0.0
H1020 H 0.52487 0.36634 0.73547 0.0
H1021 H 0.23574 0.19824 0.73053 0.0
H1022 H 0.2985 0.36139 0.76875 0.0
Co1023 Co 0.44323 0.6046 0.42059 0.0
C1024 C 0.39642 0.48601 0.41207 0.0
C1025 C 0.42832 0.5204 0.37383 0.0
C1026 C 0.398 0.46753 0.36906 0.0
N1027 N 0.42795 0.53135 0.40092 0.0
N1028 N 0.37799 0.4464 0.39325 0.0
H1029 H 0.38207 0.48521 0.43315 0.0
H1030 H 0.44542 0.55064 0.35848 0.0
C1031 C 0.57171 0.58165 0.3966 0.0
O1032 O 0.55697 0.53619 0.38117 0.0
N1033 N 0.45345 0.67531 0.44247 0.0
C1034 C 0.41051 0.70815 0.45483 0.0
C1035 C 0.43691 0.74985 0.47122 0.0
C1036 C 0.50486 0.69598 0.45257 0.0
N1037 N 0.49621 0.74239 0.46945 0.0
C1038 C 0.4228 0.57341 0.47668 0.0
C1039 C 0.52437 0.50481 0.48198 0.0
C1040 C 0.49712 0.52626 0.50606 0.0
C1041 C 0.44364 0.5589 0.50276 0.0
C1042 C 0.50315 0.52233 0.45633 0.0
N1043 N 0.4552 0.55933 0.45407 0.0
H1044 H 0.38296 0.60015 0.47475 0.0
H1045 H 0.52692 0.50809 0.43828 0.0
H1046 H 0.36297 0.70308 0.45229 0.0
H1047 H 0.54845 0.68144 0.44598 0.0
O1048 O 0.35696 0.62223 0.42006 0.0
O1049 O 0.42175 0.65331 0.38944 0.0
O1050 O 0.5334 0.60533 0.41287 0.0
C1051 C 0.36811 0.6567 0.39903 0.0
H1052 H 0.38814 0.44857 0.34923 0.0
H1053 H 0.41486 0.78683 0.48124 0.0
H1054 H 0.56279 0.47586 0.48242 0.0
H1055 H 0.41832 0.57589 0.51978 0.0
loop_
_geom_bond_atom_site_label_1
_geom_bond_atom_site_label_2
_geom_bond_distance
_geom_bond_site_symmetry_2
_ccdc_geom_bond_type
Co0 N4 2.148 . S
Co0 N10 2.128 . S
Co0 N20 2.194 . S
Co0 O25 2.351 . S
Co0 O26 2.155 . S
Co0 O27 2.096 . S
C1 N4 1.301 . S
C1 N5 1.328 . S
C1 H6 0.930 . S
C2 C3 1.333 . S
C2 N4 1.317 . S
C2 H7 0.930 . S
C3 C2 1.333 . S
C3 N5 1.350 . S
C3 H29 0.931 . S
N4 Co0 2.148 . S
N4 C1 1.301 . S
N4 C2 1.317 . S
N5 C1 1.328 . S
N5 C3 1.350 . S
H6 C1 0.930 . S
H7 C2 0.930 . S
C8 O9 1.224 . S
C8 O27 1.247 . S
O9 C8 1.224 . S
N10 Co0 2.128 . S
N10 C11 1.355 . S
N10 C13 1.311 . S
C11 N10 1.355 . S
C11 C12 1.363 . S
C11 H23 0.929 . S
C12 C11 1.363 . S
C12 N14 1.375 . S
C12 H30 0.931 . S
C13 N10 1.311 . S
C13 N14 1.347 . S
C13 H24 0.929 . S
N14 C12 1.375 . S
N14 C13 1.347 . S
C15 C18 1.365 . S
C15 N20 1.328 . S
C15 H21 0.929 . S
C16 C17 1.362 . S
C16 C19 1.378 . S
C16 H31 0.929 . S
C17 C16 1.362 . S
C17 C18 1.366 . S
C18 C15 1.365 . S
C18 C17 1.366 . S
C18 H32 0.930 . S
C19 C16 1.378 . S
C19 N20 1.315 . S
C19 H22 0.930 . S
N20 Co0 2.194 . S
N20 C15 1.328 . S
N20 C19 1.315 . S
H21 C15 0.929 . S
H22 C19 0.930 . S
H23 C11 0.929 . S
H24 C13 0.929 . S
O25 Co0 2.351 . S
O25 C28 1.244 . S
O26 Co0 2.155 . S
O26 C28 1.240 . S
O27 Co0 2.096 . S
O27 C8 1.247 . S
C28 O25 1.244 . S
C28 O26 1.240 . S
H29 C3 0.931 . S
H30 C12 0.931 . S
H31 C16 0.929 . S
H32 C18 0.930 . S
Co33 N37 2.148 1_545 S
Co33 N43 2.128 . S
Co33 N53 2.194 . S
Co33 O58 2.351 . S
Co33 O59 2.155 . S
Co33 O60 2.096 1_455 S
C34 N37 1.301 . S
C34 N38 1.328 . S
C34 H39 0.930 . S
C35 C36 1.333 . S
C35 N37 1.317 . S
C35 H40 0.930 1_455 S
C36 C35 1.333 . S
C36 N38 1.350 . S
C36 H62 0.931 . S
N37 Co33 2.148 1_565 S
N37 C34 1.301 . S
N37 C35 1.317 . S
N38 C34 1.328 . S
N38 C36 1.350 . S
H39 C34 0.930 . S
H40 C35 0.930 1_655 S
C41 O42 1.224 . S
C41 O60 1.247 . S
O42 C41 1.224 . S
N43 Co33 2.128 . S
N43 C44 1.355 . S
N43 C46 1.311 1_455 S
C44 N43 1.355 . S
C44 C45 1.363 . S
C44 H56 0.929 . S
C45 C44 1.363 . S
C45 N47 1.375 1_455 S
C45 H63 0.931 . S
C46 N43 1.311 1_655 S
C46 N47 1.347 . S
C46 H57 0.929 . S
N47 C45 1.375 1_655 S
N47 C46 1.347 . S
C48 C51 1.365 . S
C48 N53 1.328 . S
C48 H54 0.929 . S
C49 C50 1.362 1_655 S
C49 C52 1.378 1_565 S
C49 H64 0.929 . S
C50 C49 1.362 1_455 S
C50 C51 1.366 1_565 S
C51 C48 1.365 . S
C51 C50 1.366 1_545 S
C51 H65 0.930 . S
C52 C49 1.378 1_545 S
C52 N53 1.315 1_655 S
C52 H55 0.930 . S
N53 Co33 2.194 . S
N53 C48 1.328 . S
N53 C52 1.315 1_455 S
H54 C48 0.929 . S
H55 C52 0.930 . S
H56 C44 0.929 . S
H57 C46 0.929 . S
O58 Co33 2.351 . S
O58 C61 1.244 . S
O59 Co33 2.155 . S
O59 C61 1.240 . S
O60 Co33 2.096 1_655 S
O60 C41 1.247 . S
C61 O58 1.244 . S
C61 O59 1.240 . S
H62 C36 0.931 . S
H63 C45 0.931 . S
H64 C49 0.929 . S
H65 C51 0.930 . S
Co66 N70 2.148 . S
Co66 N76 2.128 . S
Co66 N86 2.194 . S
Co66 O91 2.351 . S
Co66 O92 2.155 . S
Co66 O93 2.096 . S
C67 N70 1.301 . S
C67 N71 1.328 . S
C67 H72 0.930 . S
C68 C69 1.333 . S
C68 N70 1.317 . S
C68 H73 0.930 . S
C69 C68 1.333 . S
C69 N71 1.350 . S
C69 H95 0.931 . S
N70 Co66 2.148 . S
N70 C67 1.301 . S
N70 C68 1.317 . S
N71 C67 1.328 . S
N71 C69 1.350 . S
H72 C67 0.930 . S
H73 C68 0.930 . S
C74 O75 1.224 . S
C74 O93 1.247 . S
O75 C74 1.224 . S
N76 Co66 2.128 . S
N76 C77 1.355 . S
N76 C79 1.311 . S
C77 N76 1.355 . S
C77 C78 1.363 . S
C77 H89 0.929 . S
C78 C77 1.363 . S
C78 N80 1.375 . S
C78 H96 0.931 . S
C79 N76 1.311 . S
C79 N80 1.347 . S
C79 H90 0.929 . S
N80 C78 1.375 . S
N80 C79 1.347 . S
C81 C84 1.365 . S
C81 N86 1.328 . S
C81 H87 0.929 . S
C82 C83 1.362 . S
C82 C85 1.378 . S
C82 H97 0.929 . S
C83 C82 1.362 . S
C83 C84 1.366 . S
C84 C81 1.365 . S
C84 C83 1.366 . S
C84 H98 0.930 . S
C85 C82 1.378 . S
C85 N86 1.315 . S
C85 H88 0.930 . S
N86 Co66 2.194 . S
N86 C81 1.328 . S
N86 C85 1.315 . S
H87 C81 0.929 . S
H88 C85 0.930 . S
H89 C77 0.929 . S
H90 C79 0.929 . S
O91 Co66 2.351 . S
O91 C94 1.244 . S
O92 Co66 2.155 . S
O92 C94 1.240 . S
O93 Co66 2.096 . S
O93 C74 1.247 . S
C94 O91 1.244 . S
C94 O92 1.240 . S
H95 C69 0.931 . S
H96 C78 0.931 . S
H97 C82 0.929 . S
H98 C84 0.930 . S
Co99 N103 2.148 1_565 S
Co99 N109 2.128 . S
Co99 N119 2.194 . S
Co99 O124 2.351 . S
Co99 O125 2.155 . S
Co99 O126 2.096 . S
C100 N103 1.301 . S
C100 N104 1.328 . S
C100 H105 0.930 . S
C101 C102 1.333 . S
C101 N103 1.317 . S
C101 H106 0.930 . S
C102 C101 1.333 . S
C102 N104 1.350 . S
C102 H128 0.931 . S
N103 Co99 2.148 1_545 S
N103 C100 1.301 . S
N103 C101 1.317 . S
N104 C100 1.328 . S
N104 C102 1.350 . S
H105 C100 0.930 . S
H106 C101 0.930 . S
C107 O108 1.224 . S
C107 O126 1.247 . S
O108 C107 1.224 . S
N109 Co99 2.128 . S
N109 C110 1.355 . S
N109 C112 1.311 . S
C110 N109 1.355 . S
C110 C111 1.363 . S
C110 H122 0.929 . S
C111 C110 1.363 . S
C111 N113 1.375 . S
C111 H129 0.931 . S
C112 N109 1.311 . S
C112 N113 1.347 . S
C112 H123 0.929 . S
N113 C111 1.375 . S
N113 C112 1.347 . S
C114 C117 1.365 . S
C114 N119 1.328 . S
C114 H120 0.929 . S
C115 C116 1.362 . S
C115 C118 1.378 1_545 S
C115 H130 0.929 . S
C116 C115 1.362 . S
C116 C117 1.366 1_545 S
C117 C114 1.365 . S
C117 C116 1.366 1_565 S
C117 H131 0.930 . S
C118 C115 1.378 1_565 S
C118 N119 1.315 . S
C118 H121 0.930 . S
N119 Co99 2.194 . S
N119 C114 1.328 . S
N119 C118 1.315 . S
H120 C114 0.929 . S
H121 C118 0.930 . S
H122 C110 0.929 . S
H123 C112 0.929 . S
O124 Co99 2.351 . S
O124 C127 1.244 . S
O125 Co99 2.155 . S
O125 C127 1.240 . S
O126 Co99 2.096 . S
O126 C107 1.247 . S
C127 O124 1.244 . S
C127 O125 1.240 . S
H128 C102 0.931 . S
H129 C111 0.931 . S
H130 C115 0.929 . S
H131 C117 0.930 . S
Co132 N136 2.148 . S
Co132 N142 2.128 . S
Co132 N152 2.194 . S
Co132 O157 2.351 . S
Co132 O158 2.155 . S
Co132 O159 2.096 . S
C133 N136 1.301 . S
C133 N137 1.328 . S
C133 H138 0.930 . S
C134 C135 1.333 . S
C134 N136 1.317 . S
C134 H139 0.930 . S
C135 C134 1.333 . S
C135 N137 1.350 . S
C135 H161 0.931 . S
N136 Co132 2.148 . S
N136 C133 1.301 . S
N136 C134 1.317 . S
N137 C133 1.328 . S
N137 C135 1.350 . S
H138 C133 0.930 . S
H139 C134 0.930 . S
C140 O141 1.224 . S
C140 O159 1.247 . S
O141 C140 1.224 . S
N142 Co132 2.128 . S
N142 C143 1.355 . S
N142 C145 1.311 . S
C143 N142 1.355 . S
C143 C144 1.363 . S
C143 H155 0.929 . S
C144 C143 1.363 . S
C144 N146 1.375 . S
C144 H162 0.931 . S
C145 N142 1.311 . S
C145 N146 1.347 . S
C145 H156 0.929 . S
N146 C144 1.375 . S
N146 C145 1.347 . S
C147 C150 1.365 . S
C147 N152 1.328 . S
C147 H153 0.929 . S
C148 C149 1.362 . S
C148 C151 1.378 . S
C148 H163 0.929 . S
C149 C148 1.362 . S
C149 C150 1.366 . S
C150 C147 1.365 . S
C150 C149 1.366 . S
C150 H164 0.930 . S
C151 C148 1.378 . S
C151 N152 1.315 . S
C151 H154 0.930 . S
N152 Co132 2.194 . S
N152 C147 1.328 . S
N152 C151 1.315 . S
H153 C147 0.929 . S
H154 C151 0.930 . S
H155 C143 0.929 . S
H156 C145 0.929 . S
O157 Co132 2.351 . S
O157 C160 1.244 . S
O158 Co132 2.155 . S
O158 C160 1.240 . S
O159 Co132 2.096 . S
O159 C140 1.247 . S
C160 O157 1.244 . S
C160 O158 1.240 . S
H161 C135 0.931 . S
H162 C144 0.931 . S
H163 C148 0.929 . S
H164 C150 0.930 . S
Co165 N169 2.148 1_545 S
Co165 N175 2.128 . S
Co165 N185 2.194 . S
Co165 O190 2.351 . S
Co165 O191 2.155 . S
Co165 O192 2.096 . S
C166 N169 1.301 . S
C166 N170 1.328 . S
C166 H171 0.930 . S
C167 C168 1.333 . S
C167 N169 1.317 . S
C167 H172 0.930 . S
C168 C167 1.333 . S
C168 N170 1.350 . S
C168 H194 0.931 . S
N169 Co165 2.148 1_565 S
N169 C166 1.301 . S
N169 C167 1.317 . S
N170 C166 1.328 . S
N170 C168 1.350 . S
H171 C166 0.930 . S
H172 C167 0.930 . S
C173 O174 1.224 . S
C173 O192 1.247 . S
O174 C173 1.224 . S
N175 Co165 2.128 . S
N175 C176 1.355 . S
N175 C178 1.311 . S
C176 N175 1.355 . S
C176 C177 1.363 . S
C176 H188 0.929 . S
C177 C176 1.363 . S
C177 N179 1.375 . S
C177 H195 0.931 . S
C178 N175 1.311 . S
C178 N179 1.347 . S
C178 H189 0.929 . S
N179 C177 1.375 . S
N179 C178 1.347 . S
C180 C183 1.365 . S
C180 N185 1.328 . S
C180 H186 0.929 . S
C181 C182 1.362 . S
C181 C184 1.378 1_565 S
C181 H196 0.929 . S
C182 C181 1.362 . S
C182 C183 1.366 1_565 S
C183 C180 1.365 . S
C183 C182 1.366 1_545 S
C183 H197 0.930 . S
C184 C181 1.378 1_545 S
C184 N185 1.315 . S
C184 H187 0.930 . S
N185 Co165 2.194 . S
N185 C180 1.328 . S
N185 C184 1.315 . S
H186 C180 0.929 . S
H187 C184 0.930 . S
H188 C176 0.929 . S
H189 C178 0.929 . S
O190 Co165 2.351 . S
O190 C193 1.244 . S
O191 Co165 2.155 . S
O191 C193 1.240 . S
O192 Co165 2.096 . S
O192 C173 1.247 . S
C193 O190 1.244 . S
C193 O191 1.240 . S
H194 C168 0.931 . S
H195 C177 0.931 . S
H196 C181 0.929 . S
H197 C183 0.930 . S
Co198 N202 2.148 . S
Co198 N208 2.128 . S
Co198 N218 2.194 . S
Co198 O223 2.351 . S
Co198 O224 2.155 . S
Co198 O225 2.096 . S
C199 N202 1.301 . S
C199 N203 1.328 . S
C199 H204 0.930 . S
C200 C201 1.333 . S
C200 N202 1.317 . S
C200 H205 0.930 . S
C201 C200 1.333 . S
C201 N203 1.350 . S
C201 H227 0.931 . S
N202 Co198 2.148 . S
N202 C199 1.301 . S
N202 C200 1.317 . S
N203 C199 1.328 . S
N203 C201 1.350 . S
H204 C199 0.930 . S
H205 C200 0.930 . S
C206 O207 1.224 . S
C206 O225 1.247 . S
O207 C206 1.224 . S
N208 Co198 2.128 . S
N208 C209 1.355 . S
N208 C211 1.311 . S
C209 N208 1.355 . S
C209 C210 1.363 . S
C209 H221 0.929 . S
C210 C209 1.363 . S
C210 N212 1.375 . S
C210 H228 0.931 . S
C211 N208 1.311 . S
C211 N212 1.347 . S
C211 H222 0.929 . S
N212 C210 1.375 . S
N212 C211 1.347 . S
C213 C216 1.365 . S
C213 N218 1.328 . S
C213 H219 0.929 . S
C214 C215 1.362 . S
C214 C217 1.378 . S
C214 H229 0.929 . S
C215 C214 1.362 . S
C215 C216 1.366 . S
C216 C213 1.365 . S
C216 C215 1.366 . S
C216 H230 0.930 . S
C217 C214 1.378 . S
C217 N218 1.315 . S
C217 H220 0.930 . S
N218 Co198 2.194 . S
N218 C213 1.328 . S
N218 C217 1.315 . S
H219 C213 0.929 . S
H220 C217 0.930 . S
H221 C209 0.929 . S
H222 C211 0.929 . S
O223 Co198 2.351 . S
O223 C226 1.244 . S
O224 Co198 2.155 . S
O224 C226 1.240 . S
O225 Co198 2.096 . S
O225 C206 1.247 . S
C226 O223 1.244 . S
C226 O224 1.240 . S
H227 C201 0.931 . S
H228 C210 0.931 . S
H229 C214 0.929 . S
H230 C216 0.930 . S
Co231 N235 2.148 1_565 S
Co231 N241 2.128 . S
Co231 N251 2.194 . S
Co231 O256 2.351 . S
Co231 O257 2.155 . S
Co231 O258 2.096 1_455 S
C232 N235 1.301 . S
C232 N236 1.328 . S
C232 H237 0.930 . S
C233 C234 1.333 . S
C233 N235 1.317 . S
C233 H238 0.930 1_455 S
C234 C233 1.333 . S
C234 N236 1.350 . S
C234 H260 0.931 . S
N235 Co231 2.148 1_545 S
N235 C232 1.301 . S
N235 C233 1.317 . S
N236 C232 1.328 . S
N236 C234 1.350 . S
H237 C232 0.930 . S
H238 C233 0.930 1_655 S
C239 O240 1.224 . S
C239 O258 1.247 . S
O240 C239 1.224 . S
N241 Co231 2.128 . S
N241 C242 1.355 . S
N241 C244 1.311 1_455 S
C242 N241 1.355 . S
C242 C243 1.363 . S
C242 H254 0.929 . S
C243 C242 1.363 . S
C243 N245 1.375 1_455 S
C243 H261 0.931 . S
C244 N241 1.311 1_655 S
C244 N245 1.347 . S
C244 H255 0.929 . S
N245 C243 1.375 1_655 S
N245 C244 1.347 . S
C246 C249 1.365 . S
C246 N251 1.328 . S
C246 H252 0.929 . S
C247 C248 1.362 1_655 S
C247 C250 1.378 1_545 S
C247 H262 0.929 . S
C248 C247 1.362 1_455 S
C248 C249 1.366 1_545 S
C249 C246 1.365 . S
C249 C248 1.366 1_565 S
C249 H263 0.930 . S
C250 C247 1.378 1_565 S
C250 N251 1.315 1_655 S
C250 H253 0.930 . S
N251 Co231 2.194 . S
N251 C246 1.328 . S
N251 C250 1.315 1_455 S
H252 C246 0.929 . S
H253 C250 0.930 . S
H254 C242 0.929 . S
H255 C244 0.929 . S
O256 Co231 2.351 . S
O256 C259 1.244 . S
O257 Co231 2.155 . S
O257 C259 1.240 . S
O258 Co231 2.096 1_655 S
O258 C239 1.247 . S
C259 O256 1.244 . S
C259 O257 1.240 . S
H260 C234 0.931 . S
H261 C243 0.931 . S
H262 C247 0.929 . S
H263 C249 0.930 . S
Co264 N268 2.148 . S
Co264 N274 2.128 . S
Co264 N284 2.194 . S
Co264 O289 2.351 . S
Co264 O290 2.155 . S
Co264 O291 2.096 . S
C265 N268 1.301 . S
C265 N269 1.328 . S
C265 H270 0.930 . S
C266 C267 1.333 . S
C266 N268 1.317 . S
C266 H271 0.930 . S
C267 C266 1.333 . S
C267 N269 1.350 . S
C267 H293 0.931 . S
N268 Co264 2.148 . S
N268 C265 1.301 . S
N268 C266 1.317 . S
N269 C265 1.328 . S
N269 C267 1.350 . S
H270 C265 0.930 . S
H271 C266 0.930 . S
C272 O273 1.224 . S
C272 O291 1.247 . S
O273 C272 1.224 . S
N274 Co264 2.128 . S
N274 C275 1.355 . S
N274 C277 1.311 . S
C275 N274 1.355 . S
C275 C276 1.363 . S
C275 H287 0.929 . S
C276 C275 1.363 . S
C276 N278 1.375 . S
C276 H294 0.931 . S
C277 N274 1.311 . S
C277 N278 1.347 . S
C277 H288 0.929 . S
N278 C276 1.375 . S
N278 C277 1.347 . S
C279 C282 1.365 . S
C279 N284 1.328 . S
C279 H285 0.929 . S
C280 C281 1.362 . S
C280 C283 1.378 . S
C280 H295 0.929 . S
C281 C280 1.362 . S
C281 C282 1.366 . S
C282 C279 1.365 . S
C282 C281 1.366 . S
C282 H296 0.930 . S
C283 C280 1.378 . S
C283 N284 1.315 . S
C283 H286 0.930 . S
N284 Co264 2.194 . S
N284 C279 1.328 . S
N284 C283 1.315 . S
H285 C279 0.929 . S
H286 C283 0.930 . S
H287 C275 0.929 . S
H288 C277 0.929 . S
O289 Co264 2.351 . S
O289 C292 1.244 . S
O290 Co264 2.155 . S
O290 C292 1.240 . S
O291 Co264 2.096 . S
O291 C272 1.247 . S
C292 O289 1.244 . S
C292 O290 1.240 . S
H293 C267 0.931 . S
H294 C276 0.931 . S
H295 C280 0.929 . S
H296 C282 0.930 . S
Co297 N301 2.148 1_565 S
Co297 N307 2.128 . S
Co297 N317 2.194 . S
Co297 O322 2.351 . S
Co297 O323 2.155 . S
Co297 O324 2.096 1_655 S
C298 N301 1.301 . S
C298 N302 1.328 . S
C298 H303 0.930 . S
C299 C300 1.333 . S
C299 N301 1.317 . S
C299 H304 0.930 1_655 S
C300 C299 1.333 . S
C300 N302 1.350 . S
C300 H326 0.931 . S
N301 Co297 2.148 1_545 S
N301 C298 1.301 . S
N301 C299 1.317 . S
N302 C298 1.328 . S
N302 C300 1.350 . S
H303 C298 0.930 . S
H304 C299 0.930 1_455 S
C305 O306 1.224 . S
C305 O324 1.247 . S
O306 C305 1.224 . S
N307 Co297 2.128 . S
N307 C308 1.355 . S
N307 C310 1.311 1_655 S
C308 N307 1.355 . S
C308 C309 1.363 . S
C308 H320 0.929 . S
C309 C308 1.363 . S
C309 N311 1.375 1_655 S
C309 H327 0.931 . S
C310 N307 1.311 1_455 S
C310 N311 1.347 . S
C310 H321 0.929 . S
N311 C309 1.375 1_455 S
N311 C310 1.347 . S
C312 C315 1.365 . S
C312 N317 1.328 . S
C312 H318 0.929 . S
C313 C314 1.362 1_455 S
C313 C316 1.378 1_545 S
C313 H328 0.929 . S
C314 C313 1.362 1_655 S
C314 C315 1.366 1_545 S
C315 C312 1.365 . S
C315 C314 1.366 1_565 S
C315 H329 0.930 . S
C316 C313 1.378 1_565 S
C316 N317 1.315 1_455 S
C316 H319 0.930 . S
N317 Co297 2.194 . S
N317 C312 1.328 . S
N317 C316 1.315 1_655 S
H318 C312 0.929 . S
H319 C316 0.930 . S
H320 C308 0.929 . S
H321 C310 0.929 . S
O322 Co297 2.351 . S
O322 C325 1.244 . S
O323 Co297 2.155 . S
O323 C325 1.240 . S
O324 Co297 2.096 1_455 S
O324 C305 1.247 . S
C325 O322 1.244 . S
C325 O323 1.240 . S
H326 C300 0.931 . S
H327 C309 0.931 . S
H328 C313 0.929 . S
H329 C315 0.930 . S
Co330 N334 2.148 . S
Co330 N340 2.128 . S
Co330 N350 2.194 . S
Co330 O355 2.351 . S
Co330 O356 2.155 . S
Co330 O357 2.096 . S
C331 N334 1.301 . S
C331 N335 1.328 . S
C331 H336 0.930 . S
C332 C333 1.333 . S
C332 N334 1.317 . S
C332 H337 0.930 . S
C333 C332 1.333 . S
C333 N335 1.350 . S
C333 H359 0.931 . S
N334 Co330 2.148 . S
N334 C331 1.301 . S
N334 C332 1.317 . S
N335 C331 1.328 . S
N335 C333 1.350 . S
H336 C331 0.930 . S
H337 C332 0.930 . S
C338 O339 1.224 . S
C338 O357 1.247 . S
O339 C338 1.224 . S
N340 Co330 2.128 . S
N340 C341 1.355 . S
N340 C343 1.311 . S
C341 N340 1.355 . S
C341 C342 1.363 . S
C341 H353 0.929 . S
C342 C341 1.363 . S
C342 N344 1.375 . S
C342 H360 0.931 . S
C343 N340 1.311 . S
C343 N344 1.347 . S
C343 H354 0.929 . S
N344 C342 1.375 . S
N344 C343 1.347 . S
C345 C348 1.365 . S
C345 N350 1.328 . S
C345 H351 0.929 . S
C346 C347 1.362 . S
C346 C349 1.378 . S
C346 H361 0.929 . S
C347 C346 1.362 . S
C347 C348 1.366 . S
C348 C345 1.365 . S
C348 C347 1.366 . S
C348 H362 0.930 . S
C349 C346 1.378 . S
C349 N350 1.315 . S
C349 H352 0.930 . S
N350 Co330 2.194 . S
N350 C345 1.328 . S
N350 C349 1.315 . S
H351 C345 0.929 . S
H352 C349 0.930 . S
H353 C341 0.929 . S
H354 C343 0.929 . S
O355 Co330 2.351 . S
O355 C358 1.244 . S
O356 Co330 2.155 . S
O356 C358 1.240 . S
O357 Co330 2.096 . S
O357 C338 1.247 . S
C358 O355 1.244 . S
C358 O356 1.240 . S
H359 C333 0.931 . S
H360 C342 0.931 . S
H361 C346 0.929 . S
H362 C348 0.930 . S
Co363 N367 2.148 1_545 S
Co363 N373 2.128 . S
Co363 N383 2.194 . S
Co363 O388 2.351 . S
Co363 O389 2.155 . S
Co363 O390 2.096 . S
C364 N367 1.301 . S
C364 N368 1.328 . S
C364 H369 0.930 . S
C365 C366 1.333 . S
C365 N367 1.317 . S
C365 H370 0.930 . S
C366 C365 1.333 . S
C366 N368 1.350 . S
C366 H392 0.931 . S
N367 Co363 2.148 1_565 S
N367 C364 1.301 . S
N367 C365 1.317 . S
N368 C364 1.328 . S
N368 C366 1.350 . S
H369 C364 0.930 . S
H370 C365 0.930 . S
C371 O372 1.224 . S
C371 O390 1.247 . S
O372 C371 1.224 . S
N373 Co363 2.128 . S
N373 C374 1.355 . S
N373 C376 1.311 . S
C374 N373 1.355 . S
C374 C375 1.363 . S
C374 H386 0.929 . S
C375 C374 1.363 . S
C375 N377 1.375 . S
C375 H393 0.931 . S
C376 N373 1.311 . S
C376 N377 1.347 . S
C376 H387 0.929 . S
N377 C375 1.375 . S
N377 C376 1.347 . S
C378 C381 1.365 . S
C378 N383 1.328 . S
C378 H384 0.929 . S
C379 C380 1.362 . S
C379 C382 1.378 1_565 S
C379 H394 0.929 . S
C380 C379 1.362 . S
C380 C381 1.366 1_565 S
C381 C378 1.365 . S
C381 C380 1.366 1_545 S
C381 H395 0.930 . S
C382 C379 1.378 1_545 S
C382 N383 1.315 . S
C382 H385 0.930 . S
N383 Co363 2.194 . S
N383 C378 1.328 . S
N383 C382 1.315 . S
H384 C378 0.929 . S
H385 C382 0.930 . S
H386 C374 0.929 . S
H387 C376 0.929 . S
O388 Co363 2.351 . S
O388 C391 1.244 . S
O389 Co363 2.155 . S
O389 C391 1.240 . S
O390 Co363 2.096 . S
O390 C371 1.247 . S
C391 O388 1.244 . S
C391 O389 1.240 . S
H392 C366 0.931 . S
H393 C375 0.931 . S
H394 C379 0.929 . S
H395 C381 0.930 . S
Co396 N400 2.148 . S
Co396 N406 2.128 . S
Co396 N416 2.194 . S
Co396 O421 2.351 . S
Co396 O422 2.155 . S
Co396 O423 2.096 . S
C397 N400 1.301 . S
C397 N401 1.328 . S
C397 H402 0.930 . S
C398 C399 1.333 . S
C398 N400 1.317 . S
C398 H403 0.930 . S
C399 C398 1.333 . S
C399 N401 1.350 . S
C399 H425 0.931 . S
N400 Co396 2.148 . S
N400 C397 1.301 . S
N400 C398 1.317 . S
N401 C397 1.328 . S
N401 C399 1.350 . S
H402 C397 0.930 . S
H403 C398 0.930 . S
C404 O405 1.224 . S
C404 O423 1.247 . S
O405 C404 1.224 . S
N406 Co396 2.128 . S
N406 C407 1.355 . S
N406 C409 1.311 . S
C407 N406 1.355 . S
C407 C408 1.363 . S
C407 H419 0.929 . S
C408 C407 1.363 . S
C408 N410 1.375 . S
C408 H426 0.931 . S
C409 N406 1.311 . S
C409 N410 1.347 . S
C409 H420 0.929 . S
N410 C408 1.375 . S
N410 C409 1.347 . S
C411 C414 1.365 . S
C411 N416 1.328 . S
C411 H417 0.929 . S
C412 C413 1.362 . S
C412 C415 1.378 . S
C412 H427 0.929 . S
C413 C412 1.362 . S
C413 C414 1.366 . S
C414 C411 1.365 . S
C414 C413 1.366 . S
C414 H428 0.930 . S
C415 C412 1.378 . S
C415 N416 1.315 . S
C415 H418 0.930 . S
N416 Co396 2.194 . S
N416 C411 1.328 . S
N416 C415 1.315 . S
H417 C411 0.929 . S
H418 C415 0.930 . S
H419 C407 0.929 . S
H420 C409 0.929 . S
O421 Co396 2.351 . S
O421 C424 1.244 . S
O422 Co396 2.155 . S
O422 C424 1.240 . S
O423 Co396 2.096 . S
O423 C404 1.247 . S
C424 O421 1.244 . S
C424 O422 1.240 . S
H425 C399 0.931 . S
H426 C408 0.931 . S
H427 C412 0.929 . S
H428 C414 0.930 . S
Co429 N433 2.148 1_565 S
Co429 N439 2.128 . S
Co429 N449 2.194 . S
Co429 O454 2.351 . S
Co429 O455 2.155 . S
Co429 O456 2.096 . S
C430 N433 1.301 . S
C430 N434 1.328 . S
C430 H435 0.930 . S
C431 C432 1.333 . S
C431 N433 1.317 . S
C431 H436 0.930 . S
C432 C431 1.333 . S
C432 N434 1.350 . S
C432 H458 0.931 . S
N433 Co429 2.148 1_545 S
N433 C430 1.301 . S
N433 C431 1.317 . S
N434 C430 1.328 . S
N434 C432 1.350 . S
H435 C430 0.930 . S
H436 C431 0.930 . S
C437 O438 1.224 . S
C437 O456 1.247 . S
O438 C437 1.224 . S
N439 Co429 2.128 . S
N439 C440 1.355 . S
N439 C442 1.311 . S
C440 N439 1.355 . S
C440 C441 1.363 . S
C440 H452 0.929 . S
C441 C440 1.363 . S
C441 N443 1.375 . S
C441 H459 0.931 . S
C442 N439 1.311 . S
C442 N443 1.347 . S
C442 H453 0.929 . S
N443 C441 1.375 . S
N443 C442 1.347 . S
C444 C447 1.365 . S
C444 N449 1.328 . S
C444 H450 0.929 . S
C445 C446 1.362 . S
C445 C448 1.378 1_545 S
C445 H460 0.929 . S
C446 C445 1.362 . S
C446 C447 1.366 1_545 S
C447 C444 1.365 . S
C447 C446 1.366 1_565 S
C447 H461 0.930 . S
C448 C445 1.378 1_565 S
C448 N449 1.315 . S
C448 H451 0.930 . S
N449 Co429 2.194 . S
N449 C444 1.328 . S
N449 C448 1.315 . S
H450 C444 0.929 . S
H451 C448 0.930 . S
H452 C440 0.929 . S
H453 C442 0.929 . S
O454 Co429 2.351 . S
O454 C457 1.244 . S
O455 Co429 2.155 . S
O455 C457 1.240 . S
O456 Co429 2.096 . S
O456 C437 1.247 . S
C457 O454 1.244 . S
C457 O455 1.240 . S
H458 C432 0.931 . S
H459 C441 0.931 . S
H460 C445 0.929 . S
H461 C447 0.930 . S
Co462 N466 2.148 . S
Co462 N472 2.128 . S
Co462 N482 2.194 . S
Co462 O487 2.351 . S
Co462 O488 2.155 . S
Co462 O489 2.096 . S
C463 N466 1.301 . S
C463 N467 1.328 . S
C463 H468 0.930 . S
C464 C465 1.333 . S
C464 N466 1.317 . S
C464 H469 0.930 . S
C465 C464 1.333 . S
C465 N467 1.350 . S
C465 H491 0.931 . S
N466 Co462 2.148 . S
N466 C463 1.301 . S
N466 C464 1.317 . S
N467 C463 1.328 . S
N467 C465 1.350 . S
H468 C463 0.930 . S
H469 C464 0.930 . S
C470 O471 1.224 . S
C470 O489 1.247 . S
O471 C470 1.224 . S
N472 Co462 2.128 . S
N472 C473 1.355 . S
N472 C475 1.311 . S
C473 N472 1.355 . S
C473 C474 1.363 . S
C473 H485 0.929 . S
C474 C473 1.363 . S
C474 N476 1.375 . S
C474 H492 0.931 . S
C475 N472 1.311 . S
C475 N476 1.347 . S
C475 H486 0.929 . S
N476 C474 1.375 . S
N476 C475 1.347 . S
C477 C480 1.365 . S
C477 N482 1.328 . S
C477 H483 0.929 . S
C478 C479 1.362 . S
C478 C481 1.378 . S
C478 H493 0.929 . S
C479 C478 1.362 . S
C479 C480 1.366 . S
C480 C477 1.365 . S
C480 C479 1.366 . S
C480 H494 0.930 . S
C481 C478 1.378 . S
C481 N482 1.315 . S
C481 H484 0.930 . S
N482 Co462 2.194 . S
N482 C477 1.328 . S
N482 C481 1.315 . S
H483 C477 0.929 . S
H484 C481 0.930 . S
H485 C473 0.929 . S
H486 C475 0.929 . S
O487 Co462 2.351 . S
O487 C490 1.244 . S
O488 Co462 2.155 . S
O488 C490 1.240 . S
O489 Co462 2.096 . S
O489 C470 1.247 . S
C490 O487 1.244 . S
C490 O488 1.240 . S
H491 C465 0.931 . S
H492 C474 0.931 . S
H493 C478 0.929 . S
H494 C480 0.930 . S
Co495 N499 2.148 1_545 S
Co495 N505 2.128 . S
Co495 N515 2.194 . S
Co495 O520 2.351 . S
Co495 O521 2.155 . S
Co495 O522 2.096 1_655 S
C496 N499 1.301 . S
C496 N500 1.328 . S
C496 H501 0.930 . S
C497 C498 1.333 . S
C497 N499 1.317 . S
C497 H502 0.930 1_655 S
C498 C497 1.333 . S
C498 N500 1.350 . S
C498 H524 0.931 . S
N499 Co495 2.148 1_565 S
N499 C496 1.301 . S
N499 C497 1.317 . S
N500 C496 1.328 . S
N500 C498 1.350 . S
H501 C496 0.930 . S
H502 C497 0.930 1_455 S
C503 O504 1.224 . S
C503 O522 1.247 . S
O504 C503 1.224 . S
N505 Co495 2.128 . S
N505 C506 1.355 . S
N505 C508 1.311 1_655 S
C506 N505 1.355 . S
C506 C507 1.363 . S
C506 H518 0.929 . S
C507 C506 1.363 . S
C507 N509 1.375 1_655 S
C507 H525 0.931 . S
C508 N505 1.311 1_455 S
C508 N509 1.347 . S
C508 H519 0.929 . S
N509 C507 1.375 1_455 S
N509 C508 1.347 . S
C510 C513 1.365 . S
C510 N515 1.328 . S
C510 H516 0.929 . S
C511 C512 1.362 1_455 S
C511 C514 1.378 1_565 S
C511 H526 0.929 . S
C512 C511 1.362 1_655 S
C512 C513 1.366 1_565 S
C513 C510 1.365 . S
C513 C512 1.366 1_545 S
C513 H527 0.930 . S
C514 C511 1.378 1_545 S
C514 N515 1.315 1_455 S
C514 H517 0.930 . S
N515 Co495 2.194 . S
N515 C510 1.328 . S
N515 C514 1.315 1_655 S
H516 C510 0.929 . S
H517 C514 0.930 . S
H518 C506 0.929 . S
H519 C508 0.929 . S
O520 Co495 2.351 . S
O520 C523 1.244 . S
O521 Co495 2.155 . S
O521 C523 1.240 . S
O522 Co495 2.096 1_455 S
O522 C503 1.247 . S
C523 O520 1.244 . S
C523 O521 1.240 . S
H524 C498 0.931 . S
H525 C507 0.931 . S
H526 C511 0.929 . S
H527 C513 0.930 . S
Co528 N532 2.148 . S
Co528 N538 2.128 . S
Co528 N548 2.194 . S
Co528 O553 2.351 . S
Co528 O554 2.155 . S
Co528 O555 2.096 . S
C529 N532 1.301 . S
C529 N533 1.328 . S
C529 H534 0.930 . S
C530 C531 1.333 . S
C530 N532 1.317 . S
C530 H535 0.930 . S
C531 C530 1.333 . S
C531 N533 1.350 . S
C531 H557 0.931 . S
N532 Co528 2.148 . S
N532 C529 1.301 . S
N532 C530 1.317 . S
N533 C529 1.328 . S
N533 C531 1.350 . S
H534 C529 0.930 . S
H535 C530 0.930 . S
C536 O537 1.224 . S
C536 O555 1.247 . S
O537 C536 1.224 . S
N538 Co528 2.128 . S
N538 C539 1.355 . S
N538 C541 1.311 . S
C539 N538 1.355 . S
C539 C540 1.363 . S
C539 H551 0.929 . S
C540 C539 1.363 . S
C540 N542 1.375 . S
C540 H558 0.931 . S
C541 N538 1.311 . S
C541 N542 1.347 . S
C541 H552 0.929 . S
N542 C540 1.375 . S
N542 C541 1.347 . S
C543 C546 1.365 . S
C543 N548 1.328 . S
C543 H549 0.929 . S
C544 C545 1.362 . S
C544 C547 1.378 . S
C544 H559 0.929 . S
C545 C544 1.362 . S
C545 C546 1.366 . S
C546 C543 1.365 . S
C546 C545 1.366 . S
C546 H560 0.930 . S
C547 C544 1.378 . S
C547 N548 1.315 . S
C547 H550 0.930 . S
N548 Co528 2.194 . S
N548 C543 1.328 . S
N548 C547 1.315 . S
H549 C543 0.929 . S
H550 C547 0.930 . S
H551 C539 0.929 . S
H552 C541 0.929 . S
O553 Co528 2.351 . S
O553 C556 1.244 . S
O554 Co528 2.155 . S
O554 C556 1.240 . S
O555 Co528 2.096 . S
O555 C536 1.247 . S
C556 O553 1.244 . S
C556 O554 1.240 . S
H557 C531 0.931 . S
H558 C540 0.931 . S
H559 C544 0.929 . S
H560 C546 0.930 . S
Co561 N565 2.148 . S
Co561 N571 2.128 . S
Co561 N581 2.194 . S
Co561 O586 2.351 . S
Co561 O587 2.155 . S
Co561 O588 2.096 . S
C562 N565 1.301 . S
C562 N566 1.328 . S
C562 H567 0.930 . S
C563 C564 1.333 . S
C563 N565 1.317 . S
C563 H568 0.930 . S
C564 C563 1.333 . S
C564 N566 1.350 . S
C564 H590 0.931 . S
N565 Co561 2.148 . S
N565 C562 1.301 . S
N565 C563 1.317 . S
N566 C562 1.328 . S
N566 C564 1.350 . S
H567 C562 0.930 . S
H568 C563 0.930 . S
C569 O570 1.224 . S
C569 O588 1.247 . S
O570 C569 1.224 . S
N571 Co561 2.128 . S
N571 C572 1.355 . S
N571 C574 1.311 . S
C572 N571 1.355 . S
C572 C573 1.363 . S
C572 H584 0.929 . S
C573 C572 1.363 . S
C573 N575 1.375 . S
C573 H591 0.931 . S
C574 N571 1.311 . S
C574 N575 1.347 . S
C574 H585 0.929 . S
N575 C573 1.375 . S
N575 C574 1.347 . S
C576 C579 1.365 . S
C576 N581 1.328 . S
C576 H582 0.929 . S
C577 C578 1.362 . S
C577 C580 1.378 . S
C577 H592 0.929 . S
C578 C577 1.362 . S
C578 C579 1.366 . S
C579 C576 1.365 . S
C579 C578 1.366 . S
C579 H593 0.930 . S
C580 C577 1.378 . S
C580 N581 1.315 . S
C580 H583 0.930 . S
N581 Co561 2.194 . S
N581 C576 1.328 . S
N581 C580 1.315 . S
H582 C576 0.929 . S
H583 C580 0.930 . S
H584 C572 0.929 . S
H585 C574 0.929 . S
O586 Co561 2.351 . S
O586 C589 1.244 . S
O587 Co561 2.155 . S
O587 C589 1.240 . S
O588 Co561 2.096 . S
O588 C569 1.247 . S
C589 O586 1.244 . S
C589 O587 1.240 . S
H590 C564 0.931 . S
H591 C573 0.931 . S
H592 C577 0.929 . S
H593 C579 0.930 . S
Co594 N598 2.148 . S
Co594 N604 2.128 . S
Co594 N614 2.194 . S
Co594 O619 2.351 . S
Co594 O620 2.155 . S
Co594 O621 2.096 . S
C595 N598 1.301 . S
C595 N599 1.328 . S
C595 H600 0.930 . S
C596 C597 1.333 . S
C596 N598 1.317 . S
C596 H601 0.930 . S
C597 C596 1.333 . S
C597 N599 1.350 . S
C597 H623 0.931 . S
N598 Co594 2.148 . S
N598 C595 1.301 . S
N598 C596 1.317 . S
N599 C595 1.328 . S
N599 C597 1.350 . S
H600 C595 0.930 . S
H601 C596 0.930 . S
C602 O603 1.224 . S
C602 O621 1.247 . S
O603 C602 1.224 . S
N604 Co594 2.128 . S
N604 C605 1.355 . S
N604 C607 1.311 . S
C605 N604 1.355 . S
C605 C606 1.363 . S
C605 H617 0.929 . S
C606 C605 1.363 . S
C606 N608 1.375 . S
C606 H624 0.931 . S
C607 N604 1.311 . S
C607 N608 1.347 . S
C607 H618 0.929 . S
N608 C606 1.375 . S
N608 C607 1.347 . S
C609 C612 1.365 . S
C609 N614 1.328 . S
C609 H615 0.929 . S
C610 C611 1.362 . S
C610 C613 1.378 . S
C610 H625 0.929 . S
C611 C610 1.362 . S
C611 C612 1.366 . S
C612 C609 1.365 . S
C612 C611 1.366 . S
C612 H626 0.930 . S
C613 C610 1.378 . S
C613 N614 1.315 . S
C613 H616 0.930 . S
N614 Co594 2.194 . S
N614 C609 1.328 . S
N614 C613 1.315 . S
H615 C609 0.929 . S
H616 C613 0.930 . S
H617 C605 0.929 . S
H618 C607 0.929 . S
O619 Co594 2.351 . S
O619 C622 1.244 . S
O620 Co594 2.155 . S
O620 C622 1.240 . S
O621 Co594 2.096 . S
O621 C602 1.247 . S
C622 O619 1.244 . S
C622 O620 1.240 . S
H623 C597 0.931 . S
H624 C606 0.931 . S
H625 C610 0.929 . S
H626 C612 0.930 . S
Co627 N631 2.148 . S
Co627 N637 2.128 . S
Co627 N647 2.194 . S
Co627 O652 2.351 . S
Co627 O653 2.155 . S
Co627 O654 2.096 1_655 S
C628 N631 1.301 . S
C628 N632 1.328 . S
C628 H633 0.930 . S
C629 C630 1.333 . S
C629 N631 1.317 . S
C629 H634 0.930 1_655 S
C630 C629 1.333 . S
C630 N632 1.350 . S
C630 H656 0.931 . S
N631 Co627 2.148 . S
N631 C628 1.301 . S
N631 C629 1.317 . S
N632 C628 1.328 . S
N632 C630 1.350 . S
H633 C628 0.930 . S
H634 C629 0.930 1_455 S
C635 O636 1.224 . S
C635 O654 1.247 . S
O636 C635 1.224 . S
N637 Co627 2.128 . S
N637 C638 1.355 . S
N637 C640 1.311 1_655 S
C638 N637 1.355 . S
C638 C639 1.363 . S
C638 H650 0.929 . S
C639 C638 1.363 . S
C639 N641 1.375 1_655 S
C639 H657 0.931 . S
C640 N637 1.311 1_455 S
C640 N641 1.347 . S
C640 H651 0.929 . S
N641 C639 1.375 1_455 S
N641 C640 1.347 . S
C642 C645 1.365 . S
C642 N647 1.328 . S
C642 H648 0.929 . S
C643 C644 1.362 1_455 S
C643 C646 1.378 . S
C643 H658 0.929 . S
C644 C643 1.362 1_655 S
C644 C645 1.366 . S
C645 C642 1.365 . S
C645 C644 1.366 . S
C645 H659 0.930 . S
C646 C643 1.378 . S
C646 N647 1.315 1_455 S
C646 H649 0.930 . S
N647 Co627 2.194 . S
N647 C642 1.328 . S
N647 C646 1.315 1_655 S
H648 C642 0.929 . S
H649 C646 0.930 . S
H650 C638 0.929 . S
H651 C640 0.929 . S
O652 Co627 2.351 . S
O652 C655 1.244 . S
O653 Co627 2.155 . S
O653 C655 1.240 . S
O654 Co627 2.096 1_455 S
O654 C635 1.247 . S
C655 O652 1.244 . S
C655 O653 1.240 . S
H656 C630 0.931 . S
H657 C639 0.931 . S
H658 C643 0.929 . S
H659 C645 0.930 . S
Co660 N664 2.148 . S
Co660 N670 2.128 . S
Co660 N680 2.194 . S
Co660 O685 2.351 . S
Co660 O686 2.155 . S
Co660 O687 2.096 . S
C661 N664 1.301 . S
C661 N665 1.328 . S
C661 H666 0.930 . S
C662 C663 1.333 . S
C662 N664 1.317 . S
C662 H667 0.930 . S
C663 C662 1.333 . S
C663 N665 1.350 . S
C663 H689 0.931 . S
N664 Co660 2.148 . S
N664 C661 1.301 . S
N664 C662 1.317 . S
N665 C661 1.328 . S
N665 C663 1.350 . S
H666 C661 0.930 . S
H667 C662 0.930 . S
C668 O669 1.224 . S
C668 O687 1.247 . S
O669 C668 1.224 . S
N670 Co660 2.128 . S
N670 C671 1.355 . S
N670 C673 1.311 . S
C671 N670 1.355 . S
C671 C672 1.363 . S
C671 H683 0.929 . S
C672 C671 1.363 . S
C672 N674 1.375 . S
C672 H690 0.931 . S
C673 N670 1.311 . S
C673 N674 1.347 . S
C673 H684 0.929 . S
N674 C672 1.375 . S
N674 C673 1.347 . S
C675 C678 1.365 . S
C675 N680 1.328 . S
C675 H681 0.929 . S
C676 C677 1.362 . S
C676 C679 1.378 . S
C676 H691 0.929 . S
C677 C676 1.362 . S
C677 C678 1.366 . S
C678 C675 1.365 . S
C678 C677 1.366 . S
C678 H692 0.930 . S
C679 C676 1.378 . S
C679 N680 1.315 . S
C679 H682 0.930 . S
N680 Co660 2.194 . S
N680 C675 1.328 . S
N680 C679 1.315 . S
H681 C675 0.929 . S
H682 C679 0.930 . S
H683 C671 0.929 . S
H684 C673 0.929 . S
O685 Co660 2.351 . S
O685 C688 1.244 . S
O686 Co660 2.155 . S
O686 C688 1.240 . S
O687 Co660 2.096 . S
O687 C668 1.247 . S
C688 O685 1.244 . S
C688 O686 1.240 . S
H689 C663 0.931 . S
H690 C672 0.931 . S
H691 C676 0.929 . S
H692 C678 0.930 . S
Co693 N697 2.148 . S
Co693 N703 2.128 . S
Co693 N713 2.194 . S
Co693 O718 2.351 . S
Co693 O719 2.155 . S
Co693 O720 2.096 1_655 S
C694 N697 1.301 . S
C694 N698 1.328 . S
C694 H699 0.930 . S
C695 C696 1.333 . S
C695 N697 1.317 . S
C695 H700 0.930 1_655 S
C696 C695 1.333 . S
C696 N698 1.350 . S
C696 H722 0.931 . S
N697 Co693 2.148 . S
N697 C694 1.301 . S
N697 C695 1.317 . S
N698 C694 1.328 . S
N698 C696 1.350 . S
H699 C694 0.930 . S
H700 C695 0.930 1_455 S
C701 O702 1.224 . S
C701 O720 1.247 . S
O702 C701 1.224 . S
N703 Co693 2.128 . S
N703 C704 1.355 . S
N703 C706 1.311 1_655 S
C704 N703 1.355 . S
C704 C705 1.363 . S
C704 H716 0.929 . S
C705 C704 1.363 . S
C705 N707 1.375 1_655 S
C705 H723 0.931 . S
C706 N703 1.311 1_455 S
C706 N707 1.347 . S
C706 H717 0.929 . S
N707 C705 1.375 1_455 S
N707 C706 1.347 . S
C708 C711 1.365 . S
C708 N713 1.328 . S
C708 H714 0.929 . S
C709 C710 1.362 1_455 S
C709 C712 1.378 . S
C709 H724 0.929 . S
C710 C709 1.362 1_655 S
C710 C711 1.366 . S
C711 C708 1.365 . S
C711 C710 1.366 . S
C711 H725 0.930 . S
C712 C709 1.378 . S
C712 N713 1.315 1_455 S
C712 H715 0.930 . S
N713 Co693 2.194 . S
N713 C708 1.328 . S
N713 C712 1.315 1_655 S
H714 C708 0.929 . S
H715 C712 0.930 . S
H716 C704 0.929 . S
H717 C706 0.929 . S
O718 Co693 2.351 . S
O718 C721 1.244 . S
O719 Co693 2.155 . S
O719 C721 1.240 . S
O720 Co693 2.096 1_455 S
O720 C701 1.247 . S
C721 O718 1.244 . S
C721 O719 1.240 . S
H722 C696 0.931 . S
H723 C705 0.931 . S
H724 C709 0.929 . S
H725 C711 0.930 . S
Co726 N730 2.148 . S
Co726 N736 2.128 . S
Co726 N746 2.194 . S
Co726 O751 2.351 . S
Co726 O752 2.155 . S
Co726 O753 2.096 . S
C727 N730 1.301 . S
C727 N731 1.328 . S
C727 H732 0.930 . S
C728 C729 1.333 . S
C728 N730 1.317 . S
C728 H733 0.930 . S
C729 C728 1.333 . S
C729 N731 1.350 . S
C729 H755 0.931 . S
N730 Co726 2.148 . S
N730 C727 1.301 . S
N730 C728 1.317 . S
N731 C727 1.328 . S
N731 C729 1.350 . S
H732 C727 0.930 . S
H733 C728 0.930 . S
C734 O735 1.224 . S
C734 O753 1.247 . S
O735 C734 1.224 . S
N736 Co726 2.128 . S
N736 C737 1.355 . S
N736 C739 1.311 . S
C737 N736 1.355 . S
C737 C738 1.363 . S
C737 H749 0.929 . S
C738 C737 1.363 . S
C738 N740 1.375 . S
C738 H756 0.931 . S
C739 N736 1.311 . S
C739 N740 1.347 . S
C739 H750 0.929 . S
N740 C738 1.375 . S
N740 C739 1.347 . S
C741 C744 1.365 . S
C741 N746 1.328 . S
C741 H747 0.929 . S
C742 C743 1.362 . S
C742 C745 1.378 . S
C742 H757 0.929 . S
C743 C742 1.362 . S
C743 C744 1.366 . S
C744 C741 1.365 . S
C744 C743 1.366 . S
C744 H758 0.930 . S
C745 C742 1.378 . S
C745 N746 1.315 . S
C745 H748 0.930 . S
N746 Co726 2.194 . S
N746 C741 1.328 . S
N746 C745 1.315 . S
H747 C741 0.929 . S
H748 C745 0.930 . S
H749 C737 0.929 . S
H750 C739 0.929 . S
O751 Co726 2.351 . S
O751 C754 1.244 . S
O752 Co726 2.155 . S
O752 C754 1.240 . S
O753 Co726 2.096 . S
O753 C734 1.247 . S
C754 O751 1.244 . S
C754 O752 1.240 . S
H755 C729 0.931 . S
H756 C738 0.931 . S
H757 C742 0.929 . S
H758 C744 0.930 . S
Co759 N763 2.148 . S
Co759 N769 2.128 . S
Co759 N779 2.194 . S
Co759 O784 2.351 . S
Co759 O785 2.155 . S
Co759 O786 2.096 . S
C760 N763 1.301 . S
C760 N764 1.328 . S
C760 H765 0.930 . S
C761 C762 1.333 . S
C761 N763 1.317 . S
C761 H766 0.930 . S
C762 C761 1.333 . S
C762 N764 1.350 . S
C762 H788 0.931 . S
N763 Co759 2.148 . S
N763 C760 1.301 . S
N763 C761 1.317 . S
N764 C760 1.328 . S
N764 C762 1.350 . S
H765 C760 0.930 . S
H766 C761 0.930 . S
C767 O768 1.224 . S
C767 O786 1.247 . S
O768 C767 1.224 . S
N769 Co759 2.128 . S
N769 C770 1.355 . S
N769 C772 1.311 . S
C770 N769 1.355 . S
C770 C771 1.363 . S
C770 H782 0.929 . S
C771 C770 1.363 . S
C771 N773 1.375 . S
C771 H789 0.931 . S
C772 N769 1.311 . S
C772 N773 1.347 . S
C772 H783 0.929 . S
N773 C771 1.375 . S
N773 C772 1.347 . S
C774 C777 1.365 . S
C774 N779 1.328 . S
C774 H780 0.929 . S
C775 C776 1.362 . S
C775 C778 1.378 . S
C775 H790 0.929 . S
C776 C775 1.362 . S
C776 C777 1.366 . S
C777 C774 1.365 . S
C777 C776 1.366 . S
C777 H791 0.930 . S
C778 C775 1.378 . S
C778 N779 1.315 . S
C778 H781 0.930 . S
N779 Co759 2.194 . S
N779 C774 1.328 . S
N779 C778 1.315 . S
H780 C774 0.929 . S
H781 C778 0.930 . S
H782 C770 0.929 . S
H783 C772 0.929 . S
O784 Co759 2.351 . S
O784 C787 1.244 . S
O785 Co759 2.155 . S
O785 C787 1.240 . S
O786 Co759 2.096 . S
O786 C767 1.247 . S
C787 O784 1.244 . S
C787 O785 1.240 . S
H788 C762 0.931 . S
H789 C771 0.931 . S
H790 C775 0.929 . S
H791 C777 0.930 . S
Co792 N796 2.148 . S
Co792 N802 2.128 . S
Co792 N812 2.194 . S
Co792 O817 2.351 . S
Co792 O818 2.155 . S
Co792 O819 2.096 . S
C793 N796 1.301 . S
C793 N797 1.328 . S
C793 H798 0.930 . S
C794 C795 1.333 . S
C794 N796 1.317 . S
C794 H799 0.930 . S
C795 C794 1.333 . S
C795 N797 1.350 . S
C795 H821 0.931 . S
N796 Co792 2.148 . S
N796 C793 1.301 . S
N796 C794 1.317 . S
N797 C793 1.328 . S
N797 C795 1.350 . S
H798 C793 0.930 . S
H799 C794 0.930 . S
C800 O801 1.224 . S
C800 O819 1.247 . S
O801 C800 1.224 . S
N802 Co792 2.128 . S
N802 C803 1.355 . S
N802 C805 1.311 . S
C803 N802 1.355 . S
C803 C804 1.363 . S
C803 H815 0.929 . S
C804 C803 1.363 . S
C804 N806 1.375 . S
C804 H822 0.931 . S
C805 N802 1.311 . S
C805 N806 1.347 . S
C805 H816 0.929 . S
N806 C804 1.375 . S
N806 C805 1.347 . S
C807 C810 1.365 . S
C807 N812 1.328 . S
C807 H813 0.929 . S
C808 C809 1.362 . S
C808 C811 1.378 . S
C808 H823 0.929 . S
C809 C808 1.362 . S
C809 C810 1.366 . S
C810 C807 1.365 . S
C810 C809 1.366 . S
C810 H824 0.930 . S
C811 C808 1.378 . S
C811 N812 1.315 . S
C811 H814 0.930 . S
N812 Co792 2.194 . S
N812 C807 1.328 . S
N812 C811 1.315 . S
H813 C807 0.929 . S
H814 C811 0.930 . S
H815 C803 0.929 . S
H816 C805 0.929 . S
O817 Co792 2.351 . S
O817 C820 1.244 . S
O818 Co792 2.155 . S
O818 C820 1.240 . S
O819 Co792 2.096 . S
O819 C800 1.247 . S
C820 O817 1.244 . S
C820 O818 1.240 . S
H821 C795 0.931 . S
H822 C804 0.931 . S
H823 C808 0.929 . S
H824 C810 0.930 . S
Co825 N829 2.148 . S
Co825 N835 2.128 . S
Co825 N845 2.194 . S
Co825 O850 2.351 . S
Co825 O851 2.155 . S
Co825 O852 2.096 . S
C826 N829 1.301 . S
C826 N830 1.328 . S
C826 H831 0.930 . S
C827 C828 1.333 . S
C827 N829 1.317 . S
C827 H832 0.930 . S
C828 C827 1.333 . S
C828 N830 1.350 . S
C828 H854 0.931 . S
N829 Co825 2.148 . S
N829 C826 1.301 . S
N829 C827 1.317 . S
N830 C826 1.328 . S
N830 C828 1.350 . S
H831 C826 0.930 . S
H832 C827 0.930 . S
C833 O834 1.224 . S
C833 O852 1.247 . S
O834 C833 1.224 . S
N835 Co825 2.128 . S
N835 C836 1.355 . S
N835 C838 1.311 . S
C836 N835 1.355 . S
C836 C837 1.363 . S
C836 H848 0.929 . S
C837 C836 1.363 . S
C837 N839 1.375 . S
C837 H855 0.931 . S
C838 N835 1.311 . S
C838 N839 1.347 . S
C838 H849 0.929 . S
N839 C837 1.375 . S
N839 C838 1.347 . S
C840 C843 1.365 . S
C840 N845 1.328 . S
C840 H846 0.929 . S
C841 C842 1.362 . S
C841 C844 1.378 . S
C841 H856 0.929 . S
C842 C841 1.362 . S
C842 C843 1.366 . S
C843 C840 1.365 . S
C843 C842 1.366 . S
C843 H857 0.930 . S
C844 C841 1.378 . S
C844 N845 1.315 . S
C844 H847 0.930 . S
N845 Co825 2.194 . S
N845 C840 1.328 . S
N845 C844 1.315 . S
H846 C840 0.929 . S
H847 C844 0.930 . S
H848 C836 0.929 . S
H849 C838 0.929 . S
O850 Co825 2.351 . S
O850 C853 1.244 . S
O851 Co825 2.155 . S
O851 C853 1.240 . S
O852 Co825 2.096 . S
O852 C833 1.247 . S
C853 O850 1.244 . S
C853 O851 1.240 . S
H854 C828 0.931 . S
H855 C837 0.931 . S
H856 C841 0.929 . S
H857 C843 0.930 . S
Co858 N862 2.148 . S
Co858 N868 2.128 . S
Co858 N878 2.194 . S
Co858 O883 2.351 . S
Co858 O884 2.155 . S
Co858 O885 2.096 . S
C859 N862 1.301 . S
C859 N863 1.328 . S
C859 H864 0.930 . S
C860 C861 1.333 . S
C860 N862 1.317 . S
C860 H865 0.930 . S
C861 C860 1.333 . S
C861 N863 1.350 . S
C861 H887 0.931 . S
N862 Co858 2.148 . S
N862 C859 1.301 . S
N862 C860 1.317 . S
N863 C859 1.328 . S
N863 C861 1.350 . S
H864 C859 0.930 . S
H865 C860 0.930 . S
C866 O867 1.224 . S
C866 O885 1.247 . S
O867 C866 1.224 . S
N868 Co858 2.128 . S
N868 C869 1.355 . S
N868 C871 1.311 . S
C869 N868 1.355 . S
C869 C870 1.363 . S
C869 H881 0.929 . S
C870 C869 1.363 . S
C870 N872 1.375 . S
C870 H888 0.931 . S
C871 N868 1.311 . S
C871 N872 1.347 . S
C871 H882 0.929 . S
N872 C870 1.375 . S
N872 C871 1.347 . S
C873 C876 1.365 . S
C873 N878 1.328 . S
C873 H879 0.929 . S
C874 C875 1.362 . S
C874 C877 1.378 . S
C874 H889 0.929 . S
C875 C874 1.362 . S
C875 C876 1.366 . S
C876 C873 1.365 . S
C876 C875 1.366 . S
C876 H890 0.930 . S
C877 C874 1.378 . S
C877 N878 1.315 . S
C877 H880 0.930 . S
N878 Co858 2.194 . S
N878 C873 1.328 . S
N878 C877 1.315 . S
H879 C873 0.929 . S
H880 C877 0.930 . S
H881 C869 0.929 . S
H882 C871 0.929 . S
O883 Co858 2.351 . S
O883 C886 1.244 . S
O884 Co858 2.155 . S
O884 C886 1.240 . S
O885 Co858 2.096 . S
O885 C866 1.247 . S
C886 O883 1.244 . S
C886 O884 1.240 . S
H887 C861 0.931 . S
H888 C870 0.931 . S
H889 C874 0.929 . S
H890 C876 0.930 . S
Co891 N895 2.148 . S
Co891 N901 2.128 . S
Co891 N911 2.194 . S
Co891 O916 2.351 . S
Co891 O917 2.155 . S
Co891 O918 2.096 1_455 S
C892 N895 1.301 . S
C892 N896 1.328 . S
C892 H897 0.930 . S
C893 C894 1.333 . S
C893 N895 1.317 . S
C893 H898 0.930 1_455 S
C894 C893 1.333 . S
C894 N896 1.350 . S
C894 H920 0.931 . S
N895 Co891 2.148 . S
N895 C892 1.301 . S
N895 C893 1.317 . S
N896 C892 1.328 . S
N896 C894 1.350 . S
H897 C892 0.930 . S
H898 C893 0.930 1_655 S
C899 O900 1.224 . S
C899 O918 1.247 . S
O900 C899 1.224 . S
N901 Co891 2.128 . S
N901 C902 1.355 . S
N901 C904 1.311 1_455 S
C902 N901 1.355 . S
C902 C903 1.363 . S
C902 H914 0.929 . S
C903 C902 1.363 . S
C903 N905 1.375 1_455 S
C903 H921 0.931 . S
C904 N901 1.311 1_655 S
C904 N905 1.347 . S
C904 H915 0.929 . S
N905 C903 1.375 1_655 S
N905 C904 1.347 . S
C906 C909 1.365 . S
C906 N911 1.328 . S
C906 H912 0.929 . S
C907 C908 1.362 1_655 S
C907 C910 1.378 . S
C907 H922 0.929 . S
C908 C907 1.362 1_455 S
C908 C909 1.366 . S
C909 C906 1.365 . S
C909 C908 1.366 . S
C909 H923 0.930 . S
C910 C907 1.378 . S
C910 N911 1.315 1_655 S
C910 H913 0.930 . S
N911 Co891 2.194 . S
N911 C906 1.328 . S
N911 C910 1.315 1_455 S
H912 C906 0.929 . S
H913 C910 0.930 . S
H914 C902 0.929 . S
H915 C904 0.929 . S
O916 Co891 2.351 . S
O916 C919 1.244 . S
O917 Co891 2.155 . S
O917 C919 1.240 . S
O918 Co891 2.096 1_655 S
O918 C899 1.247 . S
C919 O916 1.244 . S
C919 O917 1.240 . S
H920 C894 0.931 . S
H921 C903 0.931 . S
H922 C907 0.929 . S
H923 C909 0.930 . S
Co924 N928 2.148 . S
Co924 N934 2.128 . S
Co924 N944 2.194 . S
Co924 O949 2.351 . S
Co924 O950 2.155 . S
Co924 O951 2.096 . S
C925 N928 1.301 . S
C925 N929 1.328 . S
C925 H930 0.930 . S
C926 C927 1.333 . S
C926 N928 1.317 . S
C926 H931 0.930 . S
C927 C926 1.333 . S
C927 N929 1.350 . S
C927 H953 0.931 . S
N928 Co924 2.148 . S
N928 C925 1.301 . S
N928 C926 1.317 . S
N929 C925 1.328 . S
N929 C927 1.350 . S
H930 C925 0.930 . S
H931 C926 0.930 . S
C932 O933 1.224 . S
C932 O951 1.247 . S
O933 C932 1.224 . S
N934 Co924 2.128 . S
N934 C935 1.355 . S
N934 C937 1.311 . S
C935 N934 1.355 . S
C935 C936 1.363 . S
C935 H947 0.929 . S
C936 C935 1.363 . S
C936 N938 1.375 . S
C936 H954 0.931 . S
C937 N934 1.311 . S
C937 N938 1.347 . S
C937 H948 0.929 . S
N938 C936 1.375 . S
N938 C937 1.347 . S
C939 C942 1.365 . S
C939 N944 1.328 . S
C939 H945 0.929 . S
C940 C941 1.362 . S
C940 C943 1.378 . S
C940 H955 0.929 . S
C941 C940 1.362 . S
C941 C942 1.366 . S
C942 C939 1.365 . S
C942 C941 1.366 . S
C942 H956 0.930 . S
C943 C940 1.378 . S
C943 N944 1.315 . S
C943 H946 0.930 . S
N944 Co924 2.194 . S
N944 C939 1.328 . S
N944 C943 1.315 . S
H945 C939 0.929 . S
H946 C943 0.930 . S
H947 C935 0.929 . S
H948 C937 0.929 . S
O949 Co924 2.351 . S
O949 C952 1.244 . S
O950 Co924 2.155 . S
O950 C952 1.240 . S
O951 Co924 2.096 . S
O951 C932 1.247 . S
C952 O949 1.244 . S
C952 O950 1.240 . S
H953 C927 0.931 . S
H954 C936 0.931 . S
H955 C940 0.929 . S
H956 C942 0.930 . S
Co957 N961 2.148 . S
Co957 N967 2.128 . S
Co957 N977 2.194 . S
Co957 O982 2.351 . S
Co957 O983 2.155 . S
Co957 O984 2.096 1_455 S
C958 N961 1.301 . S
C958 N962 1.328 . S
C958 H963 0.930 . S
C959 C960 1.333 . S
C959 N961 1.317 . S
C959 H964 0.930 1_455 S
C960 C959 1.333 . S
C960 N962 1.350 . S
C960 H986 0.931 . S
N961 Co957 2.148 . S
N961 C958 1.301 . S
N961 C959 1.317 . S
N962 C958 1.328 . S
N962 C960 1.350 . S
H963 C958 0.930 . S
H964 C959 0.930 1_655 S
C965 O966 1.224 . S
C965 O984 1.247 . S
O966 C965 1.224 . S
N967 Co957 2.128 . S
N967 C968 1.355 . S
N967 C970 1.311 1_455 S
C968 N967 1.355 . S
C968 C969 1.363 . S
C968 H980 0.929 . S
C969 C968 1.363 . S
C969 N971 1.375 1_455 S
C969 H987 0.931 . S
C970 N967 1.311 1_655 S
C970 N971 1.347 . S
C970 H981 0.929 . S
N971 C969 1.375 1_655 S
N971 C970 1.347 . S
C972 C975 1.365 . S
C972 N977 1.328 . S
C972 H978 0.929 . S
C973 C974 1.362 1_655 S
C973 C976 1.378 . S
C973 H988 0.929 . S
C974 C973 1.362 1_455 S
C974 C975 1.366 . S
C975 C972 1.365 . S
C975 C974 1.366 . S
C975 H989 0.930 . S
C976 C973 1.378 . S
C976 N977 1.315 1_655 S
C976 H979 0.930 . S
N977 Co957 2.194 . S
N977 C972 1.328 . S
N977 C976 1.315 1_455 S
H978 C972 0.929 . S
H979 C976 0.930 . S
H980 C968 0.929 . S
H981 C970 0.929 . S
O982 Co957 2.351 . S
O982 C985 1.244 . S
O983 Co957 2.155 . S
O983 C985 1.240 . S
O984 Co957 2.096 1_655 S
O984 C965 1.247 . S
C985 O982 1.244 . S
C985 O983 1.240 . S
H986 C960 0.931 . S
H987 C969 0.931 . S
H988 C973 0.929 . S
H989 C975 0.930 . S
Co990 N994 2.148 . S
Co990 N1000 2.128 . S
Co990 N1010 2.194 . S
Co990 O1015 2.351 . S
Co990 O1016 2.155 . S
Co990 O1017 2.096 . S
C991 N994 1.301 . S
C991 N995 1.328 . S
C991 H996 0.930 . S
C992 C993 1.333 . S
C992 N994 1.317 . S
C992 H997 0.930 . S
C993 C992 1.333 . S
C993 N995 1.350 . S
C993 H1019 0.931 . S
N994 Co990 2.148 . S
N994 C991 1.301 . S
N994 C992 1.317 . S
N995 C991 1.328 . S
N995 C993 1.350 . S
H996 C991 0.930 . S
H997 C992 0.930 . S
C998 O999 1.224 . S
C998 O1017 1.247 . S
O999 C998 1.224 . S
N1000 Co990 2.128 . S
N1000 C1001 1.355 . S
N1000 C1003 1.311 . S
C1001 N1000 1.355 . S
C1001 C1002 1.363 . S
C1001 H1013 0.929 . S
C1002 C1001 1.363 . S
C1002 N1004 1.375 . S
C1002 H1020 0.931 . S
C1003 N1000 1.311 . S
C1003 N1004 1.347 . S
C1003 H1014 0.929 . S
N1004 C1002 1.375 . S
N1004 C1003 1.347 . S
C1005 C1008 1.365 . S
C1005 N1010 1.328 . S
C1005 H1011 0.929 . S
C1006 C1007 1.362 . S
C1006 C1009 1.378 . S
C1006 H1021 0.929 . S
C1007 C1006 1.362 . S
C1007 C1008 1.366 . S
C1008 C1005 1.365 . S
C1008 C1007 1.366 . S
C1008 H1022 0.930 . S
C1009 C1006 1.378 . S
C1009 N1010 1.315 . S
C1009 H1012 0.930 . S
N1010 Co990 2.194 . S
N1010 C1005 1.328 . S
N1010 C1009 1.315 . S
H1011 C1005 0.929 . S
H1012 C1009 0.930 . S
H1013 C1001 0.929 . S
H1014 C1003 0.929 . S
O1015 Co990 2.351 . S
O1015 C1018 1.244 . S
O1016 Co990 2.155 . S
O1016 C1018 1.240 . S
O1017 Co990 2.096 . S
O1017 C998 1.247 . S
C1018 O1015 1.244 . S
C1018 O1016 1.240 . S
H1019 C993 0.931 . S
H1020 C1002 0.931 . S
H1021 C1006 0.929 . S
H1022 C1008 0.930 . S
Co1023 N1027 2.148 . S
Co1023 N1033 2.128 . S
Co1023 N1043 2.194 . S
Co1023 O1048 2.351 . S
Co1023 O1049 2.155 . S
Co1023 O1050 2.096 . S
C1024 N1027 1.301 . S
C1024 N1028 1.328 . S
C1024 H1029 0.930 . S
C1025 C1026 1.333 . S
C1025 N1027 1.317 . S
C1025 H1030 0.930 . S
C1026 C1025 1.333 . S
C1026 N1028 1.350 . S
C1026 H1052 0.931 . S
N1027 Co1023 2.148 . S
N1027 C1024 1.301 . S
N1027 C1025 1.317 . S
N1028 C1024 1.328 . S
N1028 C1026 1.350 . S
H1029 C1024 0.930 . S
H1030 C1025 0.930 . S
C1031 O1032 1.224 . S
C1031 O1050 1.247 . S
O1032 C1031 1.224 . S
N1033 Co1023 2.128 . S
N1033 C1034 1.355 . S
N1033 C1036 1.311 . S
C1034 N1033 1.355 . S
C1034 C1035 1.363 . S
C1034 H1046 0.929 . S
C1035 C1034 1.363 . S
C1035 N1037 1.375 . S
C1035 H1053 0.931 . S
C1036 N1033 1.311 . S
C1036 N1037 1.347 . S
C1036 H1047 0.929 . S
N1037 C1035 1.375 . S
N1037 C1036 1.347 . S
C1038 C1041 1.365 . S
C1038 N1043 1.328 . S
C1038 H1044 0.929 . S
C1039 C1040 1.362 . S
C1039 C1042 1.378 . S
C1039 H1054 0.929 . S
C1040 C1039 1.362 . S
C1040 C1041 1.366 . S
C1041 C1038 1.365 . S
C1041 C1040 1.366 . S
C1041 H1055 0.930 . S
C1042 C1039 1.378 . S
C1042 N1043 1.315 . S
C1042 H1045 0.930 . S
N1043 Co1023 2.194 . S
N1043 C1038 1.328 . S
N1043 C1042 1.315 . S
H1044 C1038 0.929 . S
H1045 C1042 0.930 . S
H1046 C1034 0.929 . S
H1047 C1036 0.929 . S
O1048 Co1023 2.351 . S
O1048 C1051 1.244 . S
O1049 Co1023 2.155 . S
O1049 C1051 1.240 . S
O1050 Co1023 2.096 . S
O1050 C1031 1.247 . S
C1051 O1048 1.244 . S
C1051 O1049 1.240 . S
H1052 C1026 0.931 . S
H1053 C1035 0.931 . S
H1054 C1039 0.929 . S
H1055 C1041 0.930 . S
N608 N14 1.909 . S
N47 N641 1.908 1_655 S
N80 N542 1.909 1_455 S
N575 N113 1.908 . S
N146 N740 1.909 . S
N773 N179 1.908 . S
N212 N674 1.909 1_455 S
N245 N707 1.908 1_655 S
N278 N872 1.909 . S
N905 N311 1.908 1_655 S
N344 N806 1.909 1_655 S
N377 N839 1.908 . S
N410 N1004 1.909 . S
N1037 N443 1.908 . S
N938 N476 1.909 1_455 S
N971 N509 1.908 1_655 S
C371 C28 1.643 . S
C800 C61 1.643 . S
C94 C305 1.643 . S
C866 C127 1.643 . S
C437 C160 1.643 . S
C193 C998 1.643 . S
C503 C226 1.643 . S
C932 C259 1.642 . S
C107 C292 1.643 . S
C325 C536 1.643 . S
C358 C41 1.643 . S
C602 C391 1.643 . S
C424 C173 1.643 . S
C734 C457 1.643 . S
C490 C239 1.643 . S
C523 C668 1.642 . S
C899 C556 1.643 . S
C589 C272 1.643 . S
C622 C833 1.643 . S
C338 C655 1.642 . S
C688 C965 1.643 . S
C721 C470 1.643 . S
C1031 C754 1.643 . S
C404 C787 1.643 . S
C635 C820 1.643 . S
C853 C8 1.643 . S
C886 C569 1.643 . S
C74 C919 1.642 . S
C952 C701 1.643 . S
C985 C206 1.643 . S
C767 C1018 1.643 . S
C140 C1051 1.643 . S
N236 N5 2.325 . S
N137 N38 2.325 . S
N71 N170 2.325 . S
N203 N104 2.325 . S
N500 N269 2.325 . S
N302 N401 2.325 . S
N434 N335 2.325 . S
N467 N368 2.325 . S
N764 N533 2.325 . S
N665 N566 2.325 . S
N698 N599 2.325 . S
N731 N632 2.325 . S
N797 N1028 2.325 . S
N830 N929 2.325 . S
N863 N962 2.325 . S
N995 N896 2.325 . S
C17 C809 1.928 . S
C314 C50 1.928 1_645 S
C875 C83 1.928 . S
C116 C380 1.928 1_546 S
C149 C941 1.928 . S
C182 C446 1.928 1_565 S
C1007 C215 1.928 . S
C248 C512 1.928 1_444 S
C545 C281 1.928 . S
C611 C347 1.928 . S
C413 C677 1.928 . S
C479 C743 1.928 . S
C842 C578 1.928 1_554 S
C908 C644 1.928 1_455 S
C974 C710 1.928 1_456 S
C1040 C776 1.928 . S
