# Generated by pormake.
# Topology irl, (4)-cn, num edge types: 1
# Building blocks:
#     Node 0, Type 0, BuildingBlock: TATPOV_clean_sbu_0, # of connection points: 4
#     Node 1, Type 0, BuildingBlock: TATPOV_clean_sbu_0, # of connection points: 4
#     Node 2, Type 0, BuildingBlock: TATPOV_clean_sbu_0, # of connection points: 4
#     Node 3, Type 0, BuildingBlock: TATPOV_clean_sbu_0, # of connection points: 4
#     Node 4, Type 0, BuildingBlock: TATPOV_clean_sbu_0, # of connection points: 4
#     Node 5, Type 0, BuildingBlock: TATPOV_clean_sbu_0, # of connection points: 4
#     Node 6, Type 0, BuildingBlock: TATPOV_clean_sbu_0, # of connection points: 4
#     Node 7, Type 0, BuildingBlock: TATPOV_clean_sbu_0, # of connection points: 4
#     Edge 8, Type (0, 0), BuildingBlock: MIFKUJ_clean_linker_0, # of connection points: 2
#     Edge 9, Type (0, 0), BuildingBlock: MIFKUJ_clean_linker_0, # of connection points: 2
#     Edge 10, Type (0, 0), BuildingBlock: MIFKUJ_clean_linker_0, # of connection points: 2
#     Edge 11, Type (0, 0), BuildingBlock: MIFKUJ_clean_linker_0, # of connection points: 2
#     Edge 12, Type (0, 0), BuildingBlock: MIFKUJ_clean_linker_0, # of connection points: 2
#     Edge 13, Type (0, 0), BuildingBlock: MIFKUJ_clean_linker_0, # of connection points: 2
#     Edge 14, Type (0, 0), BuildingBlock: MIFKUJ_clean_linker_0, # of connection points: 2
#     Edge 15, Type (0, 0), BuildingBlock: MIFKUJ_clean_linker_0, # of connection points: 2
#     Edge 16, Type (0, 0), BuildingBlock: MIFKUJ_clean_linker_0, # of connection points: 2
#     Edge 17, Type (0, 0), BuildingBlock: MIFKUJ_clean_linker_0, # of connection points: 2
#     Edge 18, Type (0, 0), BuildingBlock: MIFKUJ_clean_linker_0, # of connection points: 2
#     Edge 19, Type (0, 0), BuildingBlock: MIFKUJ_clean_linker_0, # of connection points: 2
#     Edge 20, Type (0, 0), BuildingBlock: MIFKUJ_clean_linker_0, # of connection points: 2
#     Edge 21, Type (0, 0), BuildingBlock: MIFKUJ_clean_linker_0, # of connection points: 2
#     Edge 22, Type (0, 0), BuildingBlock: MIFKUJ_clean_linker_0, # of connection points: 2
#     Edge 23, Type (0, 0), BuildingBlock: MIFKUJ_clean_linker_0, # of connection points: 2
# Relax obj value: 0.142
# Max RMSD: 0.156
# Mean RMSD: 0.156
data_MOF--net-irl--node1-TATPOV_clean_sbu_0--edge1-MIFKUJ_clean_linker_0
_symmetry_space_group_name_H-M    P1
_symmetry_Int_Tables_number       1
_symmetry_cell_setting            triclinic
loop_
_symmetry_equiv_pos_as_xyz
'x, y, z'
_cell_length_a     51.586993
_cell_length_b     40.197672
_cell_length_c     35.606569
_cell_angle_alpha  89.873174
_cell_angle_beta   90.071604
_cell_angle_gamma 89.88477
loop_
_atom_site_label
_atom_site_type_symbol
_atom_site_fract_x
_atom_site_fract_y
_atom_site_fract_z
_atom_type_partial_charge
Zn0 Zn 0.02164 0.24868 0.00212 0.0
Zn1 Zn 0.07218 0.24139 0.00419 0.0
O2 O 0.06457 0.26612 0.95358 0.0
O3 O 0.02249 0.27511 0.95552 0.0
O4 O 0.11176 0.23827 0.00579 0.0
O5 O 0.02063 0.27279 0.05029 0.0
O6 O 0.06305 0.26701 0.05343 0.0
C7 C 0.04401 0.27845 0.93909 0.0
C8 C 0.03655 0.18008 0.00174 0.0
O9 O 0.05934 0.19228 0.00424 0.0
O10 O 0.01708 0.19923 -8e-05 0.0
C11 C 0.12545 0.26345 -0.00302 0.0
O12 O 0.11364 0.29105 0.98689 0.0
C13 C 0.04178 0.27775 0.06727 0.0
Zn14 Zn 0.998 0.76144 0.01142 0.0
Zn15 Zn 0.94702 0.7675 0.01052 0.0
O16 O 0.95607 0.74455 0.95966 0.0
O17 O 0.99847 0.73798 0.96273 0.0
O18 O 0.90735 0.76784 0.01197 0.0
O19 O 0.99855 0.73423 0.05745 0.0
O20 O 0.95623 0.74115 0.05956 0.0
C21 C 0.97728 0.73403 0.94553 0.0
C22 C 0.98115 0.82982 0.01377 0.0
O23 O 0.95851 0.81709 0.0119 0.0
O24 O 1.00096 0.81117 0.01431 0.0
C25 C 0.89297 0.76849 0.98285 0.0
O26 O 0.90388 0.77051 0.94961 0.0
C27 C 0.97713 0.72937 0.07363 0.0
Zn28 Zn 0.02861 0.7488 0.51012 0.0
Zn29 Zn 0.07882 0.76057 0.50303 0.0
O30 O 0.07392 0.7399 0.55644 0.0
O31 O 0.03282 0.7251 0.55838 0.0
O32 O 0.11815 0.76559 0.49887 0.0
O33 O 0.02737 0.72201 0.46371 0.0
O34 O 0.06905 0.7319 0.45637 0.0
C35 C 0.05499 0.72605 0.57337 0.0
C36 C 0.04059 0.81877 0.50274 0.0
O37 O 0.06383 0.80825 0.49913 0.0
O38 O 0.02233 0.79838 0.5086 0.0
C39 C 0.13257 0.74136 0.50888 0.0
O40 O 0.12157 0.71398 0.52119 0.0
C41 C 0.048 0.71853 0.44505 0.0
Zn42 Zn 0.99764 0.23192 0.48789 0.0
Zn43 Zn 0.94842 0.2303 0.49631 0.0
O44 O 0.96212 0.24946 0.54723 0.0
O45 O 1.00432 0.2444 0.54043 0.0
O46 O 0.90897 0.23115 0.50132 0.0
O47 O 0.99687 0.2677 0.44988 0.0
O48 O 0.95466 0.26018 0.44909 0.0
C49 C 0.98508 0.25235 0.5604 0.0
C50 C 0.97904 0.16659 0.47759 0.0
O51 O 0.95792 0.18022 0.4884 0.0
O52 O 0.99904 0.18421 0.47268 0.0
C53 C 0.89761 0.2579 0.51121 0.0
O54 O 0.9118 0.28413 0.51893 0.0
C55 C 0.97492 0.27417 0.43595 0.0
Zn56 Zn 0.51068 0.72102 0.01597 0.0
Zn57 Zn 0.56143 0.72338 0.01031 0.0
O58 O 0.54862 0.74239 0.95917 0.0
O59 O 0.50617 0.74021 0.96508 0.0
O60 O 0.60079 0.72882 0.00811 0.0
O61 O 0.50959 0.75133 0.05957 0.0
O62 O 0.55211 0.75342 0.05598 0.0
C63 C 0.52594 0.74762 0.94591 0.0
C64 C 0.53305 0.65639 0.02197 0.0
O65 O 0.55422 0.67235 0.01713 0.0
O66 O 0.51175 0.67197 0.02309 0.0
C67 C 0.61711 0.70747 -0.00369 0.0
O68 O 0.60872 0.67864 0.984 0.0
C69 C 0.53095 0.76236 0.07158 0.0
Zn70 Zn 0.50993 0.23331 0.01021 0.0
Zn71 Zn 0.45902 0.24144 0.01289 0.0
O72 O 0.46605 0.21839 0.96155 0.0
O73 O 0.50814 0.20907 0.96205 0.0
O74 O 0.41947 0.24375 0.01516 0.0
O75 O 0.51061 0.20702 0.05718 0.0
O76 O 0.46838 0.21423 0.06092 0.0
C77 C 0.48636 0.20648 0.94608 0.0
C78 C 0.49503 0.30233 0.01352 0.0
O79 O 0.47211 0.29034 0.0148 0.0
O80 O 0.51437 0.28299 0.01117 0.0
C81 C 0.40584 0.26595 -0.00114 0.0
O82 O 0.41758 0.2895 0.97973 0.0
C83 C 0.48946 0.20228 0.07418 0.0
Zn84 Zn 0.51358 0.28999 0.50297 0.0
Zn85 Zn 0.56422 0.28648 0.50397 0.0
O86 O 0.55304 0.26646 0.55562 0.0
O87 O 0.51053 0.27119 0.55395 0.0
O88 O 0.60366 0.28132 0.504 0.0
O89 O 0.51068 0.25993 0.45913 0.0
O90 O 0.55328 0.25754 0.45832 0.0
C91 C 0.53091 0.26238 0.57101 0.0
C92 C 0.53573 0.354 0.49465 0.0
O93 O 0.55695 0.33761 0.4972 0.0
O94 O 0.51429 0.33889 0.49608 0.0
C95 C 0.61937 0.30227 0.5181 0.0
O96 O 0.61009 0.32937 0.53371 0.0
C97 C 0.53137 0.24912 0.44462 0.0
Zn98 Zn 0.5165 0.77375 0.48539 0.0
Zn99 Zn 0.46542 0.76753 0.48457 0.0
O100 O 0.47378 0.78376 0.5385 0.0
O101 O 0.51637 0.78698 0.53897 0.0
O102 O 0.4259 0.76593 0.48347 0.0
O103 O 0.51603 0.80885 0.44619 0.0
O104 O 0.47406 0.80031 0.4411 0.0
C105 C 0.49493 0.78987 0.55579 0.0
C106 C 0.50043 0.70683 0.47014 0.0
O107 O 0.47781 0.71904 0.47521 0.0
O108 O 0.52014 0.72551 0.47165 0.0
C109 C 0.41273 0.74422 0.50115 0.0
O110 O 0.42499 0.72127 0.52065 0.0
C111 C 0.49465 0.81507 0.4303 0.0
H112 H 0.02479 0.86268 0.03474 0.0
H113 H 0.03293 0.92227 0.0334 0.0
H114 H 0.95507 0.93977 -0.00633 0.0
H115 H 0.94663 0.87956 -0.00502 0.0
H116 H 0.99299 0.97377 0.95233 0.0
H117 H 0.96907 0.95949 0.08089 0.0
H118 H 0.97015 0.93399 0.1439 0.0
H119 H 0.05037 0.9604 0.15554 0.0
H120 H 0.04988 0.98564 0.09232 0.0
H121 H 0.99254 0.14791 0.98086 0.0
H122 H 0.98375 0.08847 0.98251 0.0
H123 H 0.06124 0.06981 0.02305 0.0
H124 H 0.07033 0.12982 0.02148 0.0
H125 H 0.02313 0.03648 0.06404 0.0
H126 H 0.04715 0.0505 0.93545 0.0
H127 H 0.04613 0.07614 0.87251 0.0
H128 H 0.96581 0.05027 0.86092 0.0
H129 H 0.96624 0.02488 0.92408 0.0
C130 C 1.00926 0.87911 0.02589 0.0
C131 C 0.98503 0.86633 0.0149 0.0
C132 C 0.01396 0.91323 0.0253 0.0
C133 C 0.99458 0.93546 0.01365 0.0
C134 C 0.97027 0.92297 0.00282 0.0
C135 C 0.96543 0.88864 0.00376 0.0
C136 C 1.0003 0.97159 0.01183 0.0
C137 C 0.99914 0.98766 0.97686 0.0
C138 C 1.0091 0.98937 0.04365 0.0
C139 C 1.0095 0.97418 0.08169 0.0
C140 C 0.98701 0.9596 0.09673 0.0
C141 C 0.9875 0.94524 0.13252 0.0
C142 C 1.01033 0.94549 0.15367 0.0
C143 C 0.0327 0.96018 0.1391 0.0
C144 C 0.03232 0.97455 0.1033 0.0
C145 C 1.00784 0.13126 -0.00999 0.0
C146 C 0.03216 0.14365 0.00114 0.0
C147 C 1.00277 0.09722 -0.00924 0.0
C148 C 0.02187 0.07471 0.00267 0.0
C149 C 0.04625 0.08683 0.0137 0.0
C150 C 0.05145 0.12105 0.01264 0.0
C151 C 0.01585 0.03866 0.00454 0.0
C152 C 0.01695 0.0226 0.03952 0.0
C153 C 1.00701 0.0209 0.97272 0.0
C154 C 1.00667 0.03607 0.93467 0.0
C155 C 0.0292 0.05053 0.91963 0.0
C156 C 0.02874 0.06497 0.88388 0.0
C157 C 1.0059 0.06492 0.86277 0.0
C158 C 0.98348 0.05033 0.87733 0.0
C159 C 0.98383 0.03589 0.91309 0.0
H160 H 1.00558 0.0761 0.8351 0.0
H161 H 1.01067 0.93438 0.18138 0.0
H162 H 0.07027 0.86868 0.47239 0.0
H163 H 0.05837 0.92736 0.46495 0.0
H164 H 0.98516 0.90854 0.51945 0.0
H165 H 0.9965 0.84993 0.52573 0.0
H166 H 0.97702 0.94628 0.46178 0.0
H167 H 0.03741 0.94826 0.56454 0.0
H168 H 0.07883 0.93732 0.597 0.0
H169 H 0.11929 0.99511 0.51425 0.0
H170 H 0.07813 0.00606 0.48103 0.0
H171 H 0.94681 0.11762 0.50473 0.0
H172 H 0.95544 0.05752 0.50554 0.0
H173 H 0.02558 0.07331 0.44218 0.0
H174 H 0.01727 0.13294 0.44148 0.0
H175 H 0.03476 0.03722 0.50425 0.0
H176 H 0.97301 0.03612 0.40267 0.0
H177 H 0.93095 0.04745 0.37219 0.0
H178 H 0.8922 0.98854 0.45565 0.0
H179 H 0.93401 0.97721 0.48693 0.0
C180 C 0.05171 0.87713 0.48294 0.0
C181 C 0.03436 0.85466 0.49969 0.0
C182 C 0.04493 0.9107 0.47877 0.0
C183 C 0.02093 0.92252 0.49199 0.0
C184 C 1.00371 0.90008 0.50889 0.0
C185 C 1.0103 0.86655 0.51259 0.0
C186 C 0.01353 0.95816 0.48805 0.0
C187 C 0.98953 0.96614 0.4715 0.0
C188 C 0.02996 0.9842 0.50013 0.0
C189 C 0.05473 0.97769 0.5201 0.0
C190 C 0.05516 0.95843 0.55312 0.0
C191 C 0.07859 0.95227 0.57168 0.0
C192 C 0.10169 0.96544 0.55764 0.0
C193 C 0.10139 0.98488 0.52506 0.0
C194 C 0.07802 0.9911 0.50638 0.0
C195 C 0.96377 0.10816 0.49036 0.0
C196 C 0.98147 0.13007 0.47338 0.0
C197 C 0.9687 0.07384 0.49085 0.0
C198 C 0.99126 0.06096 0.47408 0.0
C199 C 1.0082 0.0827 0.45558 0.0
C200 C 1.00336 0.11681 0.45517 0.0
C201 C 0.99835 0.02529 0.47786 0.0
C202 C 0.02228 0.01733 0.49449 0.0
C203 C 0.98176 0.99934 0.46617 0.0
C204 C 0.95662 0.0061 0.44736 0.0
C205 C 0.9555 0.02582 0.41471 0.0
C206 C 0.93171 0.03219 0.39725 0.0
C207 C 0.90891 0.0188 0.41203 0.0
C208 C 0.90987 0.99893 0.44426 0.0
C209 C 0.93361 0.9925 0.46185 0.0
H210 H 0.89051 0.02376 0.39847 0.0
H211 H 0.1198 0.96064 0.57205 0.0
H212 H 0.49113 0.61796 0.03734 0.0
H213 H 0.48815 0.55786 0.03838 0.0
H214 H 0.56995 0.55014 0.01488 0.0
H215 H 0.57309 0.61122 0.01296 0.0
H216 H 0.54195 0.50854 0.97117 0.0
H217 H 0.54643 0.53117 0.1022 0.0
H218 H 0.53533 0.55916 0.1616 0.0
H219 H 0.45701 0.52405 0.15278 0.0
H220 H 0.46753 0.49622 0.09303 0.0
H221 H 0.54121 0.33449 0.006 0.0
H222 H 0.54961 0.39397 0.00917 0.0
H223 H 0.46824 0.41267 0.02724 0.0
H224 H 0.45954 0.3527 0.02434 0.0
H225 H 0.49949 0.4479 0.07586 0.0
H226 H 0.49492 0.42801 0.94287 0.0
H227 H 0.50633 0.40001 0.88359 0.0
H228 H 0.58568 0.42985 0.89688 0.0
H229 H 0.57481 0.45764 0.95656 0.0
C230 C 0.50866 0.60371 0.03262 0.0
C231 C 0.53241 0.61956 0.02508 0.0
C232 C 0.5069 0.56917 0.03346 0.0
C233 C 0.52887 0.5494 0.02727 0.0
C234 C 0.55275 0.56496 0.01994 0.0
C235 C 0.55455 0.59981 0.01902 0.0
C236 C 0.5262 0.51258 0.02697 0.0
C237 C 0.53317 0.49516 -0.00561 0.0
C238 C 0.51414 0.49523 0.05689 0.0
C239 C 0.50775 0.51178 0.09297 0.0
C240 C 0.52679 0.5296 0.11278 0.0
C241 C 0.52061 0.54541 0.14654 0.0
C242 C 0.49547 0.54343 0.16092 0.0
C243 C 0.47647 0.52556 0.14161 0.0
C244 C 0.48255 0.50973 0.10781 0.0
C245 C 0.52499 0.35114 0.01059 0.0
C246 C 0.49964 0.33874 0.01487 0.0
C247 C 0.52987 0.38522 0.01224 0.0
C248 C 0.50955 0.40779 0.01807 0.0
C249 C 0.48421 0.39563 0.02263 0.0
C250 C 0.47925 0.36139 0.02084 0.0
C251 C 0.51494 0.44403 0.01992 0.0
C252 C 0.50847 0.46127 0.05281 0.0
C253 C 0.52755 0.46117 -0.00964 0.0
C254 C 0.5341 0.44461 0.95439 0.0
C255 C 0.51485 0.42837 0.93332 0.0
C256 C 0.52121 0.41258 0.89961 0.0
C257 C 0.54673 0.41307 0.88653 0.0
C258 C 0.56593 0.42944 0.90708 0.0
C259 C 0.55968 0.44524 0.94083 0.0
H260 H 0.55162 0.40083 0.86043 0.0
H261 H 0.49072 0.55569 0.18706 0.0
H262 H 0.49386 0.3945 0.50069 0.0
H263 H 0.49131 0.45402 0.49054 0.0
H264 H 0.57331 0.45711 0.46736 0.0
H265 H 0.57621 0.39666 0.47821 0.0
H266 H 0.55775 0.50856 0.51222 0.0
H267 H 0.53032 0.46284 0.39555 0.0
H268 H 0.50567 0.42566 0.35374 0.0
H269 H 0.43422 0.46839 0.39248 0.0
H270 H 0.45841 0.50551 0.43494 0.0
H271 H 0.54516 0.67509 0.4506 0.0
H272 H 0.5534 0.61542 0.44885 0.0
H273 H 0.47345 0.59642 0.4767 0.0
H274 H 0.46487 0.65645 0.47819 0.0
H275 H 0.49197 0.55311 0.42338 0.0
H276 H 0.51939 0.59443 0.54421 0.0
H277 H 0.54385 0.63125 0.58667 0.0
H278 H 0.61552 0.59639 0.53965 0.0
H279 H 0.59144 0.55968 0.49652 0.0
C280 C 0.51147 0.40761 0.49338 0.0
C281 C 0.53525 0.39065 0.48986 0.0
C282 C 0.5099 0.44176 0.48741 0.0
C283 C 0.53196 0.45993 0.47729 0.0
C284 C 0.55598 0.44344 0.47478 0.0
C285 C 0.55762 0.40898 0.48098 0.0
C286 C 0.52948 0.49618 0.47002 0.0
C287 C 0.5438 0.51832 0.49219 0.0
C288 C 0.51085 0.50892 0.44441 0.0
C289 C 0.4962 0.48685 0.41861 0.0
C290 C 0.50934 0.46418 0.39533 0.0
C291 C 0.49545 0.44313 0.37149 0.0
C292 C 0.4684 0.44463 0.37049 0.0
C293 C 0.45518 0.46725 0.39328 0.0
C294 C 0.46898 0.48835 0.4172 0.0
C295 C 0.5292 0.6583 0.45606 0.0
C296 C 0.50437 0.67059 0.46496 0.0
C297 C 0.53401 0.62415 0.45512 0.0
C298 C 0.51418 0.6015 0.46334 0.0
C299 C 0.48907 0.61353 0.47046 0.0
C300 C 0.48419 0.64782 0.47131 0.0
C301 C 0.51993 0.56537 0.46601 0.0
C302 C 0.50619 0.54332 0.44299 0.0
C303 C 0.53911 0.55272 0.49078 0.0
C304 C 0.55361 0.57459 0.51688 0.0
C305 C 0.54036 0.59481 0.54274 0.0
C306 C 0.55415 0.61562 0.56695 0.0
C307 C 0.58122 0.61623 0.56578 0.0
C308 C 0.59455 0.59594 0.54047 0.0
C309 C 0.58084 0.57511 0.51616 0.0
H310 H 0.59187 0.63237 0.58455 0.0
H311 H 0.45768 0.4283 0.35203 0.0
H312 H 1.00488 0.32 0.09272 0.0
H313 H 0.99653 0.33507 0.15767 0.0
H314 H 0.06729 0.28601 0.19165 0.0
H315 H 0.07563 0.27037 0.12617 0.0
H316 H 0.02673 0.26094 0.22695 0.0
H317 H 0.05876 0.36974 0.20577 0.0
H318 H 0.06427 0.42365 0.17367 0.0
H319 H 0.98371 0.44603 0.19047 0.0
H320 H 0.97758 0.39202 0.22216 0.0
H321 H 1.00611 0.32572 0.41738 0.0
H322 H 0.01669 0.34278 0.35341 0.0
H323 H 0.95408 0.28254 0.31114 0.0
H324 H 0.94336 0.26536 0.37529 0.0
H325 H 0.99554 0.36642 0.28359 0.0
H326 H 0.98342 0.22727 0.25334 0.0
H327 H 0.98008 0.17437 0.28838 0.0
H328 H 0.02701 0.21462 0.37694 0.0
H329 H 0.03104 0.26745 0.34207 0.0
C330 C 0.01906 0.31317 0.11387 0.0
C331 C 0.04071 0.29355 0.10456 0.0
C332 C 0.01435 0.32207 0.151 0.0
C333 C 0.03124 0.31163 0.17954 0.0
C334 C 0.05401 0.29431 0.16996 0.0
C335 C 0.05882 0.28549 0.1326 0.0
C336 C 0.02276 0.31395 0.21916 0.0
C337 C 0.0202 0.28413 0.23933 0.0
C338 C 0.01415 0.34417 0.2354 0.0
C339 C 0.01768 0.37666 0.21616 0.0
C340 C 0.04215 0.38601 0.20234 0.0
C341 C 0.0454 0.41663 0.18427 0.0
C342 C 0.02435 0.43823 0.17998 0.0
C343 C 1.0 0.42927 0.1938 0.0
C344 C 0.99664 0.39866 0.21187 0.0
C345 C 0.99385 0.31734 0.39456 0.0
C346 C 0.97427 0.29373 0.40101 0.0
C347 C 0.99986 0.32723 0.35806 0.0
C348 C 0.98653 0.3133 0.32768 0.0
C349 C 0.96469 0.29331 0.3344 0.0
C350 C 0.95851 0.28359 0.37103 0.0
C351 C 0.99891 0.31339 0.2903 0.0
C352 C 1.00223 0.34346 0.27089 0.0
C353 C 1.00869 0.28353 0.27481 0.0
C354 C 1.00728 0.25138 0.29528 0.0
C355 C 0.99316 0.22471 0.28017 0.0
C356 C 0.99114 0.19476 0.3 0.0
C357 C 1.00325 0.19118 0.33492 0.0
C358 C 0.01758 0.21745 0.34994 0.0
C359 C 0.01974 0.24739 0.33015 0.0
H360 H 1.00158 0.16803 0.3503 0.0
H361 H 0.02691 0.46194 0.16601 0.0
H362 H 0.07661 0.73216 0.38235 0.0
H363 H 0.06352 0.71973 0.31771 0.0
H364 H 1.00106 0.65865 0.35901 0.0
H365 H 0.01403 0.67085 0.42344 0.0
H366 H 0.02056 0.63661 0.28944 0.0
H367 H 0.98832 0.73605 0.34911 0.0
H368 H 0.99318 0.78874 0.38374 0.0
H369 H 0.03918 0.82868 0.29396 0.0
H370 H 0.03496 0.77596 0.25909 0.0
H371 H 0.94308 0.73707 0.13204 0.0
H372 H 0.9508 0.72038 0.19745 0.0
H373 H 0.0205 0.66898 0.16381 0.0
H374 H 1.01275 0.6851 0.0989 0.0
H375 H 0.99185 0.74365 0.23324 0.0
H376 H 0.03802 0.61091 0.22804 0.0
H377 H 0.03077 0.55744 0.19594 0.0
H378 H 0.95075 0.58284 0.17873 0.0
H379 H 0.95738 0.63624 0.21123 0.0
C380 C 0.06081 0.71495 0.37761 0.0
C381 C 0.04602 0.70294 0.40777 0.0
C382 C 0.05328 0.70799 0.34073 0.0
C383 C 0.03101 0.68886 0.33378 0.0
C384 C 0.01821 0.67358 0.36384 0.0
C385 C 0.02559 0.6807 0.40061 0.0
C386 C 0.0184 0.68969 0.29649 0.0
C387 C 0.01438 0.65992 0.27688 0.0
C388 C 1.00937 0.72003 0.2811 0.0
C389 C 1.01153 0.75197 0.30167 0.0
C390 C 0.99961 0.756 0.33687 0.0
C391 C 1.00224 0.78587 0.35654 0.0
C392 C 0.01653 0.81202 0.3411 0.0
C393 C 0.02815 0.80838 0.30591 0.0
C394 C 0.02564 0.77852 0.28618 0.0
C395 C 0.95948 0.72118 0.13849 0.0
C396 C 0.97752 0.71277 0.11059 0.0
C397 C 0.96395 0.71179 0.17583 0.0
C398 C 0.98628 0.69354 0.18551 0.0
C399 C 1.003 0.68271 0.15705 0.0
C400 C 0.99864 0.69219 0.11994 0.0
C401 C 0.9946 0.69059 0.22519 0.0
C402 C 0.99784 0.72013 0.24554 0.0
C403 C 1.00249 0.65994 0.24132 0.0
C404 C 0.99828 0.62775 0.22186 0.0
C405 C 0.01884 0.60505 0.21757 0.0
C406 C 0.01485 0.57474 0.19927 0.0
C407 C 0.99034 0.56678 0.18522 0.0
C408 C 0.96975 0.58909 0.18951 0.0
C409 C 0.97364 0.61941 0.20781 0.0
H410 H 0.98729 0.54331 0.17107 0.0
H411 H 0.01856 0.83512 0.35638 0.0
H412 H 0.03824 0.66786 0.60268 0.0
H413 H 0.02778 0.65801 0.66874 0.0
H414 H 0.06278 0.75195 0.69788 0.0
H415 H 0.0745 0.76087 0.63203 0.0
H416 H 0.06664 0.71178 0.75493 0.0
H417 H 0.99798 0.74614 0.6724 0.0
H418 H 0.96975 0.74216 0.61663 0.0
H419 H 0.94151 0.64756 0.65489 0.0
H420 H 0.96988 0.65079 0.71064 0.0
H421 H 0.95358 0.75745 0.88238 0.0
H422 H 0.96742 0.74565 0.81787 0.0
H423 H 0.01792 0.66787 0.85887 0.0
H424 H 1.00495 0.68058 0.92323 0.0
H425 H 0.97137 0.69764 0.76705 0.0
H426 H 0.0766 0.67565 0.81872 0.0
H427 H 0.10394 0.6892 0.87353 0.0
H428 H 0.0572 0.77547 0.89563 0.0
H429 H 0.02987 0.76271 0.84067 0.0
C430 C 0.04474 0.68558 0.62354 0.0
C431 C 0.05706 0.71514 0.61256 0.0
C432 C 0.03852 0.68015 0.66115 0.0
C433 C 0.04365 0.70481 0.68798 0.0
C434 C 0.05842 0.73271 0.67759 0.0
C435 C 0.06525 0.73774 0.64002 0.0
C436 C 0.03083 0.70378 0.72522 0.0
C437 C 0.04587 0.7083 0.75758 0.0
C438 C 1.00355 0.70034 0.72866 0.0
C439 C 0.98623 0.69855 0.69546 0.0
C440 C 0.98584 0.72442 0.6688 0.0
C441 C 0.96982 0.7223 0.63721 0.0
C442 C 0.95389 0.69459 0.63217 0.0
C443 C 0.95389 0.66899 0.65879 0.0
C444 C 0.96993 0.67094 0.6904 0.0
C445 C 0.96689 0.73705 0.87735 0.0
C446 C 0.97846 0.72011 0.90751 0.0
C447 C 0.97487 0.73039 0.84058 0.0
C448 C 0.99427 0.70654 0.83378 0.0
C449 C 1.00342 0.68694 0.86363 0.0
C450 C 0.99587 0.69402 0.90029 0.0
C451 C 1.00725 0.70509 0.79672 0.0
C452 C 0.99221 0.70038 0.76441 0.0
C453 C 0.03439 0.70972 0.79319 0.0
C454 C 0.05104 0.71797 0.82586 0.0
C455 C 0.07225 0.69757 0.83521 0.0
C456 C 0.08773 0.70511 0.8663 0.0
C457 C 0.08226 0.73311 0.88812 0.0
C458 C 0.06137 0.75373 0.87879 0.0
C459 C 0.04588 0.74634 0.84769 0.0
H460 H 0.09423 0.73887 0.91222 0.0
H461 H 0.94151 0.69299 0.60769 0.0
H462 H 1.00817 0.32071 0.91025 0.0
H463 H 0.99976 0.33073 0.84387 0.0
H464 H 0.07029 0.27914 0.81508 0.0
H465 H 0.0788 0.2685 0.8819 0.0
H466 H 0.05043 0.33993 0.76483 0.0
H467 H 0.02817 0.23022 0.81745 0.0
H468 H 1.00868 0.19549 0.86713 0.0
H469 H 0.93548 0.24457 0.85091 0.0
H470 H 0.95472 0.27998 0.80154 0.0
H471 H 0.0319 0.25972 0.59409 0.0
H472 H 0.04113 0.278 0.65737 0.0
H473 H 0.95942 0.29227 0.6777 0.0
H474 H 0.94977 0.27307 0.61367 0.0
H475 H 0.9813 0.25873 0.7333 0.0
H476 H 1.0007 0.35946 0.67073 0.0
H477 H 0.01946 0.39616 0.62238 0.0
H478 H 0.09618 0.36792 0.65698 0.0
H479 H 0.0779 0.33064 0.70519 0.0
C480 C 0.02238 0.31241 0.88992 0.0
C481 C 0.04384 0.29312 0.90111 0.0
C482 C 0.01758 0.31836 0.85205 0.0
C483 C 0.03423 0.30528 0.82482 0.0
C484 C 0.05729 0.28945 0.83593 0.0
C485 C 0.06211 0.28335 0.87404 0.0
C486 C 0.02484 0.30215 0.7859 0.0
C487 C 0.0355 0.32208 0.75763 0.0
C488 C 1.00466 0.27971 0.77718 0.0
C489 C 0.99293 0.25794 0.80617 0.0
C490 C 1.00797 0.23376 0.82471 0.0
C491 C 0.99697 0.21394 0.85276 0.0
C492 C 0.97087 0.21788 0.86225 0.0
C493 C 0.9557 0.24158 0.84358 0.0
C494 C 0.96664 0.26151 0.81556 0.0
C495 C 0.01575 0.26694 0.61172 0.0
C496 C 0.99002 0.26484 0.59877 0.0
C497 C 0.02116 0.27775 0.64792 0.0
C498 C 1.00104 0.28717 0.67204 0.0
C499 C 0.97526 0.28539 0.65932 0.0
C500 C 0.96976 0.27439 0.62284 0.0
C501 C 1.00726 0.296 0.71139 0.0
C502 C 0.99598 0.27706 0.74011 0.0
C503 C 0.02673 0.31957 0.72037 0.0
C504 C 0.0379 0.34208 0.69149 0.0
C505 C 0.02157 0.36088 0.66788 0.0
C506 C 0.03212 0.38182 0.64051 0.0
C507 C 0.05899 0.38434 0.63658 0.0
C508 C 0.07537 0.36595 0.66006 0.0
C509 C 0.06492 0.34495 0.68747 0.0
H510 H 0.06712 0.40056 0.61537 0.0
H511 H 0.96239 0.20253 0.88399 0.0
H512 H 0.48873 0.78775 0.10692 0.0
H513 H 0.4874 0.82019 0.16398 0.0
H514 H 0.57103 0.82233 0.16724 0.0
H515 H 0.57255 0.78863 0.10988 0.0
H516 H 0.55333 0.80162 0.23063 0.0
H517 H 0.53459 0.89596 0.15795 0.0
H518 H 0.51476 0.93017 0.10806 0.0
H519 H 0.43968 0.91632 0.1575 0.0
H520 H 0.45895 0.88158 0.20739 0.0
H521 H 0.53176 0.85898 0.40844 0.0
H522 H 0.54042 0.87584 0.3439 0.0
H523 H 0.46765 0.83341 0.30891 0.0
H524 H 0.45879 0.81627 0.37354 0.0
H525 H 0.48961 0.89029 0.26108 0.0
H526 H 0.51029 0.77926 0.31569 0.0
H527 H 0.5298 0.74568 0.36655 0.0
H528 H 0.60286 0.79442 0.34946 0.0
H529 H 0.58358 0.82867 0.29889 0.0
C530 C 0.50694 0.79541 0.11932 0.0
C531 C 0.53078 0.78517 0.10409 0.0
C532 C 0.50612 0.81451 0.1518 0.0
C533 C 0.5291 0.82425 0.16968 0.0
C534 C 0.55304 0.8153 0.15372 0.0
C535 C 0.55389 0.79596 0.12107 0.0
C536 C 0.5276 0.83894 0.20776 0.0
C537 C 0.54012 0.82186 0.23701 0.0
C538 C 0.51012 0.86512 0.21639 0.0
C539 C 0.49827 0.88605 0.18646 0.0
C540 C 0.51382 0.90001 0.15809 0.0
C541 C 0.50268 0.91954 0.1298 0.0
C542 C 0.47598 0.92541 0.12961 0.0
C543 C 0.46037 0.91179 0.15772 0.0
C544 C 0.47141 0.89223 0.18608 0.0
C545 C 0.51706 0.85445 0.38731 0.0
C546 C 0.49498 0.83534 0.39571 0.0
C547 C 0.52198 0.86439 0.3505 0.0
C548 C 0.5049 0.85528 0.32173 0.0
C549 C 0.48104 0.84064 0.33088 0.0
C550 C 0.47607 0.83067 0.36781 0.0
C551 C 0.5147 0.85219 0.28301 0.0
C552 C 0.50363 0.87115 0.25412 0.0
C553 C 0.53368 0.82795 0.27444 0.0
C554 C 0.54548 0.80666 0.30386 0.0
C555 C 0.53049 0.78286 0.32292 0.0
C556 C 0.54148 0.76374 0.35168 0.0
C557 C 0.56754 0.76796 0.36127 0.0
C558 C 0.58267 0.79122 0.34203 0.0
C559 C 0.57173 0.81049 0.31333 0.0
H560 H 0.57602 0.75316 0.38357 0.0
H561 H 0.46739 0.94053 0.10768 0.0
H562 H 0.48746 0.2264 0.41124 0.0
H563 H 0.48344 0.19862 0.35129 0.0
H564 H 0.56678 0.19523 0.34102 0.0
H565 H 0.571 0.22433 0.40117 0.0
H566 H 0.5471 0.2216 0.28182 0.0
H567 H 0.5292 0.1223 0.3468 0.0
H568 H 0.50992 0.08509 0.39419 0.0
H569 H 0.4341 0.10404 0.34901 0.0
H570 H 0.45284 0.14178 0.30167 0.0
H571 H 0.52792 0.16312 0.10198 0.0
H572 H 0.5359 0.15053 0.16793 0.0
H573 H 0.46173 0.19267 0.1971 0.0
H574 H 0.45354 0.20568 0.13084 0.0
H575 H 0.48322 0.13495 0.24617 0.0
H576 H 0.50323 0.24593 0.19433 0.0
H577 H 0.52325 0.28171 0.14607 0.0
H578 H 0.59742 0.23695 0.16799 0.0
H579 H 0.57767 0.20049 0.21596 0.0
C580 C 0.50504 0.21935 0.39665 0.0
C581 C 0.52958 0.22805 0.41074 0.0
C582 C 0.50268 0.20296 0.36246 0.0
C583 C 0.52479 0.19442 0.34175 0.0
C584 C 0.54944 0.20148 0.35664 0.0
C585 C 0.55183 0.21815 0.39093 0.0
C586 C 0.52173 0.18304 0.30243 0.0
C587 C 0.53372 0.20192 0.27424 0.0
C588 C 0.50395 0.15772 0.29227 0.0
C589 C 0.49246 0.13503 0.32072 0.0
C590 C 0.50839 0.11874 0.34711 0.0
C591 C 0.49755 0.09751 0.37395 0.0
C592 C 0.4708 0.09223 0.37463 0.0
C593 C 0.45483 0.10814 0.34843 0.0
C594 C 0.46556 0.12941 0.32153 0.0
C595 C 0.51289 0.16877 0.12222 0.0
C596 C 0.49039 0.1862 0.11145 0.0
C597 C 0.51743 0.16127 0.15984 0.0
C598 C 0.49955 0.17109 0.1872 0.0
C599 C 0.47569 0.18485 0.17618 0.0
C600 C 0.4711 0.19242 0.13837 0.0
C601 C 0.50813 0.17407 0.22655 0.0
C602 C 0.49712 0.15383 0.25428 0.0
C603 C 0.527 0.19791 0.23653 0.0
C604 C 0.53895 0.22027 0.20833 0.0
C605 C 0.52377 0.24357 0.18863 0.0
C606 C 0.53506 0.26398 0.16137 0.0
C607 C 0.56158 0.26154 0.15389 0.0
C608 C 0.57687 0.23876 0.17376 0.0
C609 C 0.56564 0.21823 0.20097 0.0
H610 H 0.57029 0.27735 0.13277 0.0
H611 H 0.46245 0.07578 0.39544 0.0
H612 H 0.52038 0.16306 0.91499 0.0
H613 H 0.52772 0.15473 0.848 0.0
H614 H 0.45938 0.21259 0.82275 0.0
H615 H 0.45176 0.22089 0.89 0.0
H616 H 0.47123 0.16033 0.76869 0.0
H617 H 0.51231 0.25365 0.83423 0.0
H618 H 0.5394 0.27673 0.88499 0.0
H619 H 0.60334 0.21582 0.84968 0.0
H620 H 0.57644 0.19203 0.79903 0.0
H621 H 0.48779 0.26152 0.61431 0.0
H622 H 0.48182 0.23558 0.67507 0.0
H623 H 0.56124 0.20167 0.67405 0.0
H624 H 0.56765 0.22856 0.61263 0.0
H625 H 0.54921 0.22794 0.7397 0.0
H626 H 0.51095 0.14561 0.66356 0.0
H627 H 0.48386 0.12243 0.61295 0.0
H628 H 0.41544 0.16023 0.66666 0.0
H629 H 0.44212 0.18408 0.71733 0.0
C630 C 0.5064 0.17305 0.89521 0.0
C631 C 0.48582 0.19327 0.90754 0.0
C632 C 0.5106 0.16816 0.857 0.0
C633 C 0.49441 0.18365 0.83062 0.0
C634 C 0.47211 0.20053 0.84284 0.0
C635 C 0.46779 0.20529 0.88123 0.0
C636 C 0.50328 0.18777 0.79149 0.0
C637 C 0.48825 0.17502 0.76214 0.0
C638 C 0.52602 0.20604 0.78326 0.0
C639 C 0.54232 0.22082 0.81317 0.0
C640 C 0.5321 0.24505 0.83746 0.0
C641 C 0.54741 0.25827 0.86618 0.0
C642 C 0.57306 0.24768 0.87062 0.0
C643 C 0.58346 0.22395 0.84625 0.0
C644 C 0.5682 0.2106 0.81754 0.0
C645 C 0.50406 0.24843 0.62672 0.0
C646 C 0.52821 0.24698 0.60851 0.0
C647 C 0.5005 0.23328 0.66142 0.0
C648 C 0.52084 0.21584 0.67863 0.0
C649 C 0.54518 0.21463 0.66093 0.0
C650 C 0.54885 0.2301 0.62602 0.0
C651 C 0.51672 0.20135 0.71642 0.0
C652 C 0.53261 0.2123 0.74582 0.0
C653 C 0.49485 0.18124 0.72453 0.0
C654 C 0.4786 0.16674 0.69424 0.0
C655 C 0.49014 0.14916 0.66449 0.0
C656 C 0.47485 0.13587 0.63579 0.0
C657 C 0.44795 0.13987 0.63657 0.0
C658 C 0.43628 0.15712 0.66611 0.0
C659 C 0.45148 0.17047 0.69488 0.0
H660 H 0.43614 0.12958 0.61431 0.0
H661 H 0.58488 0.25793 0.89288 0.0
H662 H 0.56259 0.76095 0.89181 0.0
H663 H 0.55453 0.77965 0.82716 0.0
H664 H 0.47253 0.78466 0.85 0.0
H665 H 0.48023 0.76606 0.91403 0.0
H666 H 0.48355 0.74732 0.78869 0.0
H667 H 0.50558 0.85486 0.83712 0.0
H668 H 0.53271 0.89591 0.87017 0.0
H669 H 0.59415 0.87999 0.79094 0.0
H670 H 0.56752 0.83848 0.7577 0.0
H671 H 0.45342 0.79587 0.60378 0.0
H672 H 0.45521 0.80096 0.67232 0.0
H673 H 0.53874 0.8051 0.66755 0.0
H674 H 0.53713 0.80138 0.59964 0.0
H675 H 0.52271 0.8432 0.72184 0.0
H676 H 0.50528 0.73053 0.68057 0.0
H677 H 0.48049 0.68714 0.64739 0.0
H678 H 0.41319 0.71009 0.7134 0.0
H679 H 0.43755 0.75388 0.74668 0.0
C680 C 0.54291 0.76645 0.88314 0.0
C681 C 0.52206 0.76163 0.90791 0.0
C682 C 0.53835 0.77727 0.84632 0.0
C683 C 0.51292 0.78353 0.83395 0.0
C684 C 0.49226 0.77987 0.85903 0.0
C685 C 0.49676 0.76914 0.89562 0.0
C686 C 0.50744 0.79097 0.79407 0.0
C687 C 0.49171 0.76866 0.77423 0.0
C688 C 0.51856 0.81838 0.77518 0.0
C689 C 0.53462 0.84334 0.79511 0.0
C690 C 0.52496 0.8599 0.82693 0.0
C691 C 0.54023 0.8833 0.84566 0.0
C692 C 0.56516 0.8905 0.83271 0.0
C693 C 0.57485 0.87436 0.80096 0.0
C694 C 0.55966 0.85093 0.78214 0.0
C695 C 0.47211 0.79855 0.61734 0.0
C696 C 0.49513 0.79764 0.59632 0.0
C697 C 0.47311 0.80135 0.65647 0.0
C698 C 0.49716 0.80269 0.67506 0.0
C699 C 0.51998 0.80401 0.65388 0.0
C700 C 0.519 0.80163 0.61494 0.0
C701 C 0.49906 0.79932 0.71639 0.0
C702 C 0.51418 0.82223 0.7365 0.0
C703 C 0.48771 0.77214 0.73556 0.0
C704 C 0.47312 0.7457 0.71577 0.0
C705 C 0.48515 0.72643 0.68782 0.0
C706 C 0.47119 0.70177 0.66903 0.0
C707 C 0.44525 0.69594 0.67819 0.0
C708 C 0.43326 0.71469 0.70627 0.0
C709 C 0.44713 0.73942 0.72512 0.0
H710 H 0.43447 0.67683 0.66361 0.0
H711 H 0.57695 0.90863 0.84725 0.0
H712 H 0.37128 0.31169 0.97124 0.0
H713 H 0.32396 0.30971 0.97335 0.0
H714 H 0.32755 0.21612 0.03255 0.0
H715 H 0.37499 0.21781 0.0304 0.0
H716 H 0.2916 0.21475 0.9762 0.0
H717 H 0.31239 0.28668 0.07908 0.0
H718 H 0.33311 0.33454 0.11014 0.0
H719 H 0.29258 0.40163 0.03659 0.0
H720 H 0.27188 0.35413 0.00472 0.0
H721 H 0.15682 0.213 0.02323 0.0
H722 H 0.20428 0.21194 0.02577 0.0
H723 H 0.20675 0.30951 0.97522 0.0
H724 H 0.1595 0.31107 0.97347 0.0
H725 H 0.23995 0.30711 0.03032 0.0
H726 H 0.22077 0.23625 0.92541 0.0
H727 H 0.20037 0.18899 0.89276 0.0
H728 H 0.23798 0.12069 0.96813 0.0
H729 H 0.25835 0.16759 0.00154 0.0
C730 C 0.36206 0.29069 0.98481 0.0
C731 C 0.37702 0.26495 0.00074 0.0
C732 C 0.33495 0.28966 0.98611 0.0
C733 C 0.32212 0.26291 0.00342 0.0
C734 C 0.33697 0.23704 0.01909 0.0
C735 C 0.36412 0.23812 0.01795 0.0
C736 C 0.29323 0.26185 0.00475 0.0
C737 C 0.2803 0.2347 0.98856 0.0
C738 C 0.2784 0.2882 0.02011 0.0
C739 C 0.29077 0.31682 0.03929 0.0
C740 C 0.30805 0.31163 0.06933 0.0
C741 C 0.31976 0.33869 0.08712 0.0
C742 C 0.31421 0.3711 0.07529 0.0
C743 C 0.29688 0.37651 0.04569 0.0
C744 C 0.28514 0.34953 0.02778 0.0
C745 C 0.16748 0.2342 0.01259 0.0
C746 C 0.15428 0.2621 -0.0019 0.0
C747 C 0.19466 0.23351 0.0139 0.0
C748 C 0.20925 0.26052 0.00032 0.0
C749 C 0.19605 0.28837 0.98595 0.0
C750 C 0.16894 0.28917 0.98486 0.0
C751 C 0.23822 0.26016 0.00137 0.0
C752 C 0.25119 0.28706 0.01807 0.0
C753 C 0.25307 0.23367 0.98626 0.0
C754 C 0.24085 0.20545 0.96622 0.0
C755 C 0.22452 0.21116 0.9352 0.0
C756 C 0.21299 0.18444 0.91653 0.0
C757 C 0.21781 0.15186 0.92843 0.0
C758 C 0.23423 0.14594 0.95898 0.0
C759 C 0.24578 0.17258 0.97778 0.0
H760 H 0.20888 0.13121 0.91393 0.0
H761 H 0.32329 0.39202 0.0891 0.0
H762 H 0.65734 0.66707 0.97487 0.0
H763 H 0.70368 0.67969 0.97525 0.0
H764 H 0.68741 0.77755 0.01876 0.0
H765 H 0.64098 0.76527 0.01808 0.0
H766 H 0.72277 0.78133 0.96467 0.0
H767 H 0.71145 0.71639 0.07579 0.0
H768 H 0.69739 0.66824 0.11357 0.0
H769 H 0.74696 0.60403 0.04939 0.0
H770 H 0.76106 0.65176 0.01086 0.0
H771 H 0.86375 0.76281 0.04702 0.0
H772 H 0.81677 0.75547 0.05185 0.0
H773 H 0.8104 0.75831 0.9311 0.0
H774 H 0.85718 0.76621 0.92606 0.0
H775 H 0.78594 0.70739 0.029 0.0
H776 H 0.75254 0.79109 0.90497 0.0
H777 H 0.7662 0.84245 0.87258 0.0
H778 H 0.80547 0.87499 0.97231 0.0
H779 H 0.79176 0.82406 0.00544 0.0
C780 C 0.66357 0.69129 0.98455 0.0
C781 C 0.64535 0.7151 -0.00346 0.0
C782 C 0.69014 0.69843 0.9849 0.0
C783 C 0.69915 0.72948 -0.0026 0.0
C784 C 0.68099 0.75342 0.00901 0.0
C785 C 0.65442 0.74629 0.00871 0.0
C786 C 0.72747 0.73703 -0.00188 0.0
C787 C 0.73657 0.76514 0.97873 0.0
C788 C 0.74553 0.71637 0.0171 0.0
C789 C 0.73713 0.68761 0.04021 0.0
C790 C 0.7192 0.69196 0.06954 0.0
C791 C 0.71125 0.66475 0.09112 0.0
C792 C 0.72123 0.63308 0.08383 0.0
C793 C 0.73923 0.62857 0.05498 0.0
C794 C 0.74722 0.6557 0.03328 0.0
C795 C 0.85234 0.76213 0.02148 0.0
C796 C 0.86431 0.76523 0.98614 0.0
C797 C 0.82545 0.75779 0.02429 0.0
C798 C 0.80989 0.7566 -0.00812 0.0
C799 C 0.82183 0.7597 0.95659 0.0
C800 C 0.84867 0.7641 0.95375 0.0
C801 C 0.78132 0.75131 -0.00515 0.0
C802 C 0.77217 0.7236 0.01492 0.0
C803 C 0.76316 0.77272 0.97712 0.0
C804 C 0.77132 0.80359 0.95755 0.0
C805 C 0.76401 0.80927 0.92003 0.0
C806 C 0.77178 0.83829 0.90153 0.0
C807 C 0.78677 0.86192 0.92034 0.0
C808 C 0.79395 0.85661 0.95773 0.0
C809 C 0.78621 0.82765 0.97636 0.0
H810 H 0.79277 0.88436 0.90596 0.0
H811 H 0.71506 0.61205 0.10058 0.0
H812 H 0.16251 0.79121 0.47835 0.0
H813 H 0.20999 0.79409 0.47598 0.0
H814 H 0.21511 0.69971 0.53333 0.0
H815 H 0.16791 0.69665 0.53585 0.0
H816 H 0.24848 0.74496 0.56299 0.0
H817 H 0.22555 0.70475 0.43996 0.0
H818 H 0.20305 0.70653 0.37884 0.0
H819 H 0.23978 0.79954 0.35291 0.0
H820 H 0.26224 0.79853 0.41414 0.0
H821 H 0.37904 0.69986 0.533 0.0
H822 H 0.33174 0.70188 0.5332 0.0
H823 H 0.33353 0.79288 0.46886 0.0
H824 H 0.38096 0.79067 0.46787 0.0
H825 H 0.29656 0.75329 0.44277 0.0
H826 H 0.32086 0.793 0.56413 0.0
H827 H 0.34346 0.79191 0.62518 0.0
H828 H 0.30409 0.70158 0.65473 0.0
H829 H 0.28151 0.70187 0.59361 0.0
C830 C 0.17375 0.77107 0.49044 0.0
C831 C 0.16134 0.74366 0.50721 0.0
C832 C 0.2009 0.7727 0.48896 0.0
C833 C 0.21617 0.747 0.50428 0.0
C834 C 0.20379 0.71984 0.52134 0.0
C835 C 0.17674 0.71809 0.52262 0.0
C836 C 0.24504 0.74824 0.50284 0.0
C837 C 0.25899 0.74645 0.53667 0.0
C838 C 0.25881 0.75112 0.46861 0.0
C839 C 0.24534 0.75175 0.4318 0.0
C840 C 0.22865 0.72573 0.42136 0.0
C841 C 0.21594 0.72657 0.38668 0.0
C842 C 0.21992 0.75318 0.36206 0.0
C843 C 0.23668 0.77897 0.37204 0.0
C844 C 0.24942 0.77827 0.40672 0.0
C845 C 0.36943 0.72033 0.51883 0.0
C846 C 0.38389 0.7452 0.50058 0.0
C847 C 0.34231 0.72153 0.51912 0.0
C848 C 0.32896 0.74784 0.50157 0.0
C849 C 0.34332 0.77239 0.48272 0.0
C850 C 0.37048 0.77112 0.48226 0.0
C851 C 0.30006 0.74962 0.50294 0.0
C852 C 0.28609 0.75201 0.46913 0.0
C853 C 0.28623 0.74747 0.53724 0.0
C854 C 0.29966 0.74731 0.57413 0.0
C855 C 0.31716 0.77277 0.58353 0.0
C856 C 0.32994 0.77232 0.61817 0.0
C857 C 0.32526 0.74665 0.64378 0.0
C858 C 0.30772 0.72143 0.63485 0.0
C859 C 0.2949 0.72174 0.60022 0.0
H860 H 0.33519 0.74634 0.67058 0.0
H861 H 0.21007 0.75378 0.33521 0.0
H862 H 0.64521 0.24703 0.49228 0.0
H863 H 0.69208 0.23743 0.49067 0.0
H864 H 0.70492 0.33391 0.53992 0.0
H865 H 0.65817 0.3438 0.54143 0.0
H866 H 0.73728 0.32316 0.48149 0.0
H867 H 0.71082 0.26296 0.59203 0.0
H868 H 0.68532 0.22179 0.62766 0.0
H869 H 0.715 0.1434 0.55807 0.0
H870 H 0.74042 0.18419 0.52169 0.0
H871 H 0.86824 0.31033 0.53513 0.0
H872 H 0.82113 0.31539 0.5356 0.0
H873 H 0.8143 0.21625 0.49065 0.0
H874 H 0.86166 0.21073 0.49076 0.0
H875 H 0.77864 0.22618 0.54397 0.0
H876 H 0.80588 0.28514 0.43442 0.0
H877 H 0.83128 0.32569 0.39779 0.0
H878 H 0.79987 0.40559 0.46351 0.0
H879 H 0.77454 0.36544 0.5009 0.0
C880 C 0.65799 0.26622 0.50281 0.0
C881 C 0.64784 0.29619 0.51705 0.0
C882 C 0.68481 0.26062 0.50202 0.0
C883 C 0.7021 0.28482 0.51548 0.0
C884 C 0.69202 0.31484 0.5294 0.0
C885 C 0.66523 0.32042 0.53033 0.0
C886 C 0.73069 0.27918 0.51468 0.0
C887 C 0.74633 0.30217 0.49555 0.0
C888 C 0.74252 0.25123 0.532 0.0
C889 C 0.7273 0.22667 0.55389 0.0
C890 C 0.71174 0.23698 0.58413 0.0
C891 C 0.69733 0.21371 0.60449 0.0
C892 C 0.69848 0.18001 0.59506 0.0
C893 C 0.7141 0.16951 0.56531 0.0
C894 C 0.72852 0.19269 0.54482 0.0
C895 C 0.85679 0.2895 0.52539 0.0
C896 C 0.86882 0.26018 0.51267 0.0
C897 C 0.82977 0.29251 0.52552 0.0
C898 C 0.81405 0.26644 0.51252 0.0
C899 C 0.82596 0.23678 0.50066 0.0
C900 C 0.85307 0.23369 0.50067 0.0
C901 C 0.78528 0.27042 0.51117 0.0
C902 C 0.76959 0.24712 0.5298 0.0
C903 C 0.77335 0.298 0.49319 0.0
C904 C 0.78849 0.32224 0.47068 0.0
C905 C 0.80453 0.31133 0.44124 0.0
C906 C 0.8189 0.33425 0.42032 0.0
C907 C 0.81724 0.36819 0.42838 0.0
C908 C 0.80116 0.37928 0.45733 0.0
C909 C 0.78677 0.35646 0.47838 0.0
H910 H 0.82837 0.38589 0.41214 0.0
H911 H 0.68732 0.16203 0.61087 0.0
loop_
_geom_bond_atom_site_label_1
_geom_bond_atom_site_label_2
_geom_bond_distance
_geom_bond_site_symmetry_2
_ccdc_geom_bond_type
Zn0 O3 2.031 1_554 S
Zn0 O5 2.049 . S
Zn0 O10 2.067 . S
Zn1 O2 1.962 1_554 S
Zn1 O4 1.986 . S
Zn1 O6 1.996 . S
Zn1 O9 1.943 . S
O2 Zn1 1.962 1_556 S
O2 C7 1.254 . S
O3 Zn0 2.031 1_556 S
O3 C7 1.269 . S
O4 Zn1 1.986 . S
O4 C11 1.262 . S
O5 Zn0 2.049 . S
O5 C13 1.260 . S
O6 Zn1 1.996 . S
O6 C13 1.257 . S
C7 O2 1.254 . S
C7 O3 1.269 . S
C8 O9 1.249 . S
C8 O10 1.270 . S
O9 Zn1 1.943 . S
O9 C8 1.249 . S
O10 Zn0 2.067 . S
O10 C8 1.270 . S
C11 O4 1.262 . S
C11 O12 1.232 1_554 S
O12 C11 1.232 1_556 S
C13 O5 1.260 . S
C13 O6 1.257 . S
Zn14 O17 2.031 1_554 S
Zn14 O19 2.049 . S
Zn14 O24 2.067 . S
Zn15 O16 1.962 1_554 S
Zn15 O18 1.986 . S
Zn15 O20 1.996 . S
Zn15 O23 1.943 . S
O16 Zn15 1.962 1_556 S
O16 C21 1.254 . S
O17 Zn14 2.031 1_556 S
O17 C21 1.269 . S
O18 Zn15 1.986 . S
O18 C25 1.262 . S
O19 Zn14 2.049 . S
O19 C27 1.260 . S
O20 Zn15 1.996 . S
O20 C27 1.257 . S
C21 O16 1.254 . S
C21 O17 1.269 . S
C22 O23 1.249 . S
C22 O24 1.270 . S
O23 Zn15 1.943 . S
O23 C22 1.249 . S
O24 Zn14 2.067 . S
O24 C22 1.270 . S
C25 O18 1.262 . S
C25 O26 1.232 1_554 S
O26 C25 1.232 1_556 S
C27 O19 1.260 . S
C27 O20 1.257 . S
Zn28 O31 2.031 . S
Zn28 O33 2.049 . S
Zn28 O38 2.067 . S
Zn29 O30 1.962 . S
Zn29 O32 1.986 . S
Zn29 O34 1.996 . S
Zn29 O37 1.943 . S
O30 Zn29 1.962 . S
O30 C35 1.254 . S
O31 Zn28 2.031 . S
O31 C35 1.269 . S
O32 Zn29 1.986 . S
O32 C39 1.262 . S
O33 Zn28 2.049 . S
O33 C41 1.260 . S
O34 Zn29 1.996 . S
O34 C41 1.257 . S
C35 O30 1.254 . S
C35 O31 1.269 . S
C36 O37 1.249 . S
C36 O38 1.270 . S
O37 Zn29 1.943 . S
O37 C36 1.249 . S
O38 Zn28 2.067 . S
O38 C36 1.270 . S
C39 O32 1.262 . S
C39 O40 1.232 . S
O40 C39 1.232 . S
C41 O33 1.260 . S
C41 O34 1.257 . S
Zn42 O45 2.031 . S
Zn42 O47 2.049 . S
Zn42 O52 2.067 . S
Zn43 O44 1.962 . S
Zn43 O46 1.986 . S
Zn43 O48 1.996 . S
Zn43 O51 1.943 . S
O44 Zn43 1.962 . S
O44 C49 1.254 . S
O45 Zn42 2.031 . S
O45 C49 1.269 . S
O46 Zn43 1.986 . S
O46 C53 1.262 . S
O47 Zn42 2.049 . S
O47 C55 1.260 . S
O48 Zn43 1.996 . S
O48 C55 1.257 . S
C49 O44 1.254 . S
C49 O45 1.269 . S
C50 O51 1.249 . S
C50 O52 1.270 . S
O51 Zn43 1.943 . S
O51 C50 1.249 . S
O52 Zn42 2.067 . S
O52 C50 1.270 . S
C53 O46 1.262 . S
C53 O54 1.232 . S
O54 C53 1.232 . S
C55 O47 1.260 . S
C55 O48 1.257 . S
Zn56 O59 2.031 1_554 S
Zn56 O61 2.049 . S
Zn56 O66 2.067 . S
Zn57 O58 1.962 1_554 S
Zn57 O60 1.986 . S
Zn57 O62 1.996 . S
Zn57 O65 1.943 . S
O58 Zn57 1.962 1_556 S
O58 C63 1.254 . S
O59 Zn56 2.031 1_556 S
O59 C63 1.269 . S
O60 Zn57 1.986 . S
O60 C67 1.262 . S
O61 Zn56 2.049 . S
O61 C69 1.260 . S
O62 Zn57 1.996 . S
O62 C69 1.257 . S
C63 O58 1.254 . S
C63 O59 1.269 . S
C64 O65 1.249 . S
C64 O66 1.270 . S
O65 Zn57 1.943 . S
O65 C64 1.249 . S
O66 Zn56 2.067 . S
O66 C64 1.270 . S
C67 O60 1.262 . S
C67 O68 1.232 1_554 S
O68 C67 1.232 1_556 S
C69 O61 1.260 . S
C69 O62 1.257 . S
Zn70 O73 2.031 1_554 S
Zn70 O75 2.049 . S
Zn70 O80 2.067 . S
Zn71 O72 1.962 1_554 S
Zn71 O74 1.986 . S
Zn71 O76 1.996 . S
Zn71 O79 1.943 . S
O72 Zn71 1.962 1_556 S
O72 C77 1.254 . S
O73 Zn70 2.031 1_556 S
O73 C77 1.269 . S
O74 Zn71 1.986 . S
O74 C81 1.262 . S
O75 Zn70 2.049 . S
O75 C83 1.260 . S
O76 Zn71 1.996 . S
O76 C83 1.257 . S
C77 O72 1.254 . S
C77 O73 1.269 . S
C78 O79 1.249 . S
C78 O80 1.270 . S
O79 Zn71 1.943 . S
O79 C78 1.249 . S
O80 Zn70 2.067 . S
O80 C78 1.270 . S
C81 O74 1.262 . S
C81 O82 1.232 1_554 S
O82 C81 1.232 1_556 S
C83 O75 1.260 . S
C83 O76 1.257 . S
Zn84 O87 2.031 . S
Zn84 O89 2.049 . S
Zn84 O94 2.067 . S
Zn85 O86 1.962 . S
Zn85 O88 1.986 . S
Zn85 O90 1.996 . S
Zn85 O93 1.943 . S
O86 Zn85 1.962 . S
O86 C91 1.254 . S
O87 Zn84 2.031 . S
O87 C91 1.269 . S
O88 Zn85 1.986 . S
O88 C95 1.262 . S
O89 Zn84 2.049 . S
O89 C97 1.260 . S
O90 Zn85 1.996 . S
O90 C97 1.257 . S
C91 O86 1.254 . S
C91 O87 1.269 . S
C92 O93 1.249 . S
C92 O94 1.270 . S
O93 Zn85 1.943 . S
O93 C92 1.249 . S
O94 Zn84 2.067 . S
O94 C92 1.270 . S
C95 O88 1.262 . S
C95 O96 1.232 . S
O96 C95 1.232 . S
C97 O89 1.260 . S
C97 O90 1.257 . S
Zn98 O101 2.031 . S
Zn98 O103 2.049 . S
Zn98 O108 2.067 . S
Zn99 O100 1.962 . S
Zn99 O102 1.986 . S
Zn99 O104 1.996 . S
Zn99 O107 1.943 . S
O100 Zn99 1.962 . S
O100 C105 1.254 . S
O101 Zn98 2.031 . S
O101 C105 1.269 . S
O102 Zn99 1.986 . S
O102 C109 1.262 . S
O103 Zn98 2.049 . S
O103 C111 1.260 . S
O104 Zn99 1.996 . S
O104 C111 1.257 . S
C105 O100 1.254 . S
C105 O101 1.269 . S
C106 O107 1.249 . S
C106 O108 1.270 . S
O107 Zn99 1.943 . S
O107 C106 1.249 . S
O108 Zn98 2.067 . S
O108 C106 1.270 . S
C109 O102 1.262 . S
C109 O110 1.232 . S
O110 C109 1.232 . S
C111 O103 1.260 . S
C111 O104 1.257 . S
H112 C130 0.951 . S
H113 C132 0.951 1_455 S
H114 C134 0.950 . S
H115 C135 0.950 . S
H116 C137 0.950 . S
H117 C140 0.950 . S
H118 C141 0.950 . S
H119 C143 0.950 . S
H120 C144 0.950 1_455 S
H121 C145 0.951 . S
H122 C147 0.951 1_655 S
H123 C149 0.950 . S
H124 C150 0.950 . S
H125 C152 0.950 . S
H126 C155 0.950 . S
H127 C156 0.950 . S
H128 C158 0.950 . S
H129 C159 0.950 1_655 S
C130 H112 0.951 . S
C130 C131 1.366 . S
C130 C132 1.388 . S
C131 C130 1.366 . S
C131 C135 1.385 1_554 S
C132 H113 0.951 1_655 S
C132 C130 1.388 . S
C132 C133 1.366 . S
C133 C132 1.366 . S
C133 C134 1.414 1_554 S
C133 C136 1.499 . S
C134 H114 0.950 . S
C134 C133 1.414 1_556 S
C134 C135 1.374 . S
C135 H115 0.950 . S
C135 C131 1.385 1_556 S
C135 C134 1.374 . S
C136 C133 1.499 . S
C136 C137 1.373 1_554 S
C136 C138 1.389 . S
C137 H116 0.950 . S
C137 C136 1.373 1_556 S
C137 C153 1.377 1_665 S
C138 C136 1.389 . S
C138 C139 1.524 . S
C138 C152 1.377 1_665 S
C139 C138 1.524 . S
C139 C140 1.397 . S
C139 C144 1.363 . S
C140 H117 0.950 . S
C140 C139 1.397 . S
C140 C141 1.334 . S
C141 H118 0.950 . S
C141 C140 1.334 . S
C141 C142 1.287 . S
C142 C141 1.287 . S
C142 C143 1.524 . S
C142 H161 0.913 . S
C143 H119 0.950 . S
C143 C142 1.524 . S
C143 C144 1.415 . S
C144 H120 0.950 1_655 S
C144 C139 1.363 . S
C144 C143 1.415 . S
C145 H121 0.951 . S
C145 C146 1.366 1_556 S
C145 C147 1.388 . S
C146 C145 1.366 1_554 S
C146 C150 1.385 . S
C147 H122 0.951 1_455 S
C147 C145 1.388 . S
C147 C148 1.366 1_556 S
C148 C147 1.366 1_554 S
C148 C149 1.414 . S
C148 C151 1.499 . S
C149 H123 0.950 . S
C149 C148 1.414 . S
C149 C150 1.374 . S
C150 H124 0.950 . S
C150 C146 1.385 . S
C150 C149 1.374 . S
C151 C148 1.499 . S
C151 C152 1.373 . S
C151 C153 1.389 1_554 S
C152 H125 0.950 . S
C152 C138 1.377 1_445 S
C152 C151 1.373 . S
C153 C137 1.377 1_445 S
C153 C151 1.389 1_556 S
C153 C154 1.524 . S
C154 C153 1.524 . S
C154 C155 1.397 . S
C154 C159 1.363 . S
C155 H126 0.950 . S
C155 C154 1.397 . S
C155 C156 1.334 . S
C156 H127 0.950 . S
C156 C155 1.334 . S
C156 C157 1.287 . S
C157 C156 1.287 . S
C157 C158 1.524 . S
C157 H160 0.999 . S
C158 H128 0.950 . S
C158 C157 1.524 . S
C158 C159 1.415 . S
C159 H129 0.950 1_455 S
C159 C154 1.363 . S
C159 C158 1.415 . S
H160 C157 0.999 . S
H161 C142 0.913 . S
H162 C180 0.951 . S
H163 C182 0.951 . S
H164 C184 0.950 1_655 S
H165 C185 0.950 . S
H166 C187 0.950 . S
H167 C190 0.950 . S
H168 C191 0.950 . S
H169 C193 0.950 . S
H170 C194 0.950 . S
H171 C195 0.951 . S
H172 C197 0.951 . S
H173 C199 0.950 1_455 S
H174 C200 0.950 . S
H175 C202 0.950 . S
H176 C205 0.950 . S
H177 C206 0.950 . S
H178 C208 0.950 . S
H179 C209 0.950 . S
C180 H162 0.951 . S
C180 C181 1.366 . S
C180 C182 1.388 . S
C181 C180 1.366 . S
C181 C185 1.385 . S
C182 H163 0.951 . S
C182 C180 1.388 . S
C182 C183 1.366 . S
C183 C182 1.366 . S
C183 C184 1.414 . S
C183 C186 1.499 . S
C184 H164 0.950 1_455 S
C184 C183 1.414 . S
C184 C185 1.374 . S
C185 H165 0.950 . S
C185 C181 1.385 . S
C185 C184 1.374 . S
C186 C183 1.499 . S
C186 C187 1.373 1_455 S
C186 C188 1.389 . S
C187 H166 0.950 . S
C187 C186 1.373 1_655 S
C187 C203 1.377 1_565 S
C188 C186 1.389 . S
C188 C189 1.524 . S
C188 C202 1.377 1_565 S
C189 C188 1.524 . S
C189 C190 1.397 . S
C189 C194 1.363 1_565 S
C190 H167 0.950 . S
C190 C189 1.397 . S
C190 C191 1.334 . S
C191 H168 0.950 . S
C191 C190 1.334 . S
C191 C192 1.287 . S
C192 C191 1.287 . S
C192 C193 1.524 1_565 S
C192 H211 0.913 . S
C193 H169 0.950 . S
C193 C192 1.524 1_545 S
C193 C194 1.415 . S
C194 H170 0.950 . S
C194 C189 1.363 1_545 S
C194 C193 1.415 . S
C195 H171 0.951 . S
C195 C196 1.366 . S
C195 C197 1.388 . S
C196 C195 1.366 . S
C196 C200 1.385 . S
C197 H172 0.951 . S
C197 C195 1.388 . S
C197 C198 1.366 . S
C198 C197 1.366 . S
C198 C199 1.414 . S
C198 C201 1.499 . S
C199 H173 0.950 1_655 S
C199 C198 1.414 . S
C199 C200 1.374 . S
C200 H174 0.950 . S
C200 C196 1.385 . S
C200 C199 1.374 . S
C201 C198 1.499 . S
C201 C202 1.373 1_655 S
C201 C203 1.389 . S
C202 H175 0.950 . S
C202 C188 1.377 1_545 S
C202 C201 1.373 1_455 S
C203 C187 1.377 1_545 S
C203 C201 1.389 . S
C203 C204 1.524 . S
C204 C203 1.524 . S
C204 C205 1.397 . S
C204 C209 1.363 1_545 S
C205 H176 0.950 . S
C205 C204 1.397 . S
C205 C206 1.334 . S
C206 H177 0.950 . S
C206 C205 1.334 . S
C206 C207 1.287 . S
C207 C206 1.287 . S
C207 C208 1.524 1_545 S
C207 H210 0.999 . S
C208 H178 0.950 . S
C208 C207 1.524 1_565 S
C208 C209 1.415 . S
C209 H179 0.950 . S
C209 C204 1.363 1_565 S
C209 C208 1.415 . S
H210 C207 0.999 . S
H211 C192 0.913 . S
H212 C230 0.951 . S
H213 C232 0.951 . S
H214 C234 0.950 . S
H215 C235 0.950 . S
H216 C237 0.950 . S
H217 C240 0.950 . S
H218 C241 0.950 . S
H219 C243 0.950 . S
H220 C244 0.950 . S
H221 C245 0.951 . S
H222 C247 0.951 . S
H223 C249 0.950 . S
H224 C250 0.950 . S
H225 C252 0.950 . S
H226 C255 0.950 . S
H227 C256 0.950 . S
H228 C258 0.950 . S
H229 C259 0.950 . S
C230 H212 0.951 . S
C230 C231 1.366 . S
C230 C232 1.388 . S
C231 C230 1.366 . S
C231 C235 1.385 . S
C232 H213 0.951 . S
C232 C230 1.388 . S
C232 C233 1.366 . S
C233 C232 1.366 . S
C233 C234 1.414 . S
C233 C236 1.499 . S
C234 H214 0.950 . S
C234 C233 1.414 . S
C234 C235 1.374 . S
C235 H215 0.950 . S
C235 C231 1.385 . S
C235 C234 1.374 . S
C236 C233 1.499 . S
C236 C237 1.373 1_554 S
C236 C238 1.389 . S
C237 H216 0.950 . S
C237 C236 1.373 1_556 S
C237 C253 1.377 . S
C238 C236 1.389 . S
C238 C239 1.524 . S
C238 C252 1.377 . S
C239 C238 1.524 . S
C239 C240 1.397 . S
C239 C244 1.363 . S
C240 H217 0.950 . S
C240 C239 1.397 . S
C240 C241 1.334 . S
C241 H218 0.950 . S
C241 C240 1.334 . S
C241 C242 1.287 . S
C242 C241 1.287 . S
C242 C243 1.524 . S
C242 H261 0.913 . S
C243 H219 0.950 . S
C243 C242 1.524 . S
C243 C244 1.415 . S
C244 H220 0.950 . S
C244 C239 1.363 . S
C244 C243 1.415 . S
C245 H221 0.951 . S
C245 C246 1.366 . S
C245 C247 1.388 . S
C246 C245 1.366 . S
C246 C250 1.385 . S
C247 H222 0.951 . S
C247 C245 1.388 . S
C247 C248 1.366 . S
C248 C247 1.366 . S
C248 C249 1.414 . S
C248 C251 1.499 . S
C249 H223 0.950 . S
C249 C248 1.414 . S
C249 C250 1.374 . S
C250 H224 0.950 . S
C250 C246 1.385 . S
C250 C249 1.374 . S
C251 C248 1.499 . S
C251 C252 1.373 . S
C251 C253 1.389 1_554 S
C252 H225 0.950 . S
C252 C238 1.377 . S
C252 C251 1.373 . S
C253 C237 1.377 . S
C253 C251 1.389 1_556 S
C253 C254 1.524 . S
C254 C253 1.524 . S
C254 C255 1.397 . S
C254 C259 1.363 . S
C255 H226 0.950 . S
C255 C254 1.397 . S
C255 C256 1.334 . S
C256 H227 0.950 . S
C256 C255 1.334 . S
C256 C257 1.287 . S
C257 C256 1.287 . S
C257 C258 1.524 . S
C257 H260 0.999 . S
C258 H228 0.950 . S
C258 C257 1.524 . S
C258 C259 1.415 . S
C259 H229 0.950 . S
C259 C254 1.363 . S
C259 C258 1.415 . S
H260 C257 0.999 . S
H261 C242 0.913 . S
H262 C280 0.951 . S
H263 C282 0.951 . S
H264 C284 0.950 . S
H265 C285 0.950 . S
H266 C287 0.950 . S
H267 C290 0.950 . S
H268 C291 0.950 . S
H269 C293 0.950 . S
H270 C294 0.950 . S
H271 C295 0.951 . S
H272 C297 0.951 . S
H273 C299 0.950 . S
H274 C300 0.950 . S
H275 C302 0.950 . S
H276 C305 0.950 . S
H277 C306 0.950 . S
H278 C308 0.950 . S
H279 C309 0.950 . S
C280 H262 0.951 . S
C280 C281 1.366 . S
C280 C282 1.388 . S
C281 C280 1.366 . S
C281 C285 1.385 . S
C282 H263 0.951 . S
C282 C280 1.388 . S
C282 C283 1.366 . S
C283 C282 1.366 . S
C283 C284 1.414 . S
C283 C286 1.499 . S
C284 H264 0.950 . S
C284 C283 1.414 . S
C284 C285 1.374 . S
C285 H265 0.950 . S
C285 C281 1.385 . S
C285 C284 1.374 . S
C286 C283 1.499 . S
C286 C287 1.373 . S
C286 C288 1.389 . S
C287 H266 0.950 . S
C287 C286 1.373 . S
C287 C303 1.377 . S
C288 C286 1.389 . S
C288 C289 1.524 . S
C288 C302 1.377 . S
C289 C288 1.524 . S
C289 C290 1.397 . S
C289 C294 1.363 . S
C290 H267 0.950 . S
C290 C289 1.397 . S
C290 C291 1.334 . S
C291 H268 0.950 . S
C291 C290 1.334 . S
C291 C292 1.287 . S
C292 C291 1.287 . S
C292 C293 1.524 . S
C292 H311 0.913 . S
C293 H269 0.950 . S
C293 C292 1.524 . S
C293 C294 1.415 . S
C294 H270 0.950 . S
C294 C289 1.363 . S
C294 C293 1.415 . S
C295 H271 0.951 . S
C295 C296 1.366 . S
C295 C297 1.388 . S
C296 C295 1.366 . S
C296 C300 1.385 . S
C297 H272 0.951 . S
C297 C295 1.388 . S
C297 C298 1.366 . S
C298 C297 1.366 . S
C298 C299 1.414 . S
C298 C301 1.499 . S
C299 H273 0.950 . S
C299 C298 1.414 . S
C299 C300 1.374 . S
C300 H274 0.950 . S
C300 C296 1.385 . S
C300 C299 1.374 . S
C301 C298 1.499 . S
C301 C302 1.373 . S
C301 C303 1.389 . S
C302 H275 0.950 . S
C302 C288 1.377 . S
C302 C301 1.373 . S
C303 C287 1.377 . S
C303 C301 1.389 . S
C303 C304 1.524 . S
C304 C303 1.524 . S
C304 C305 1.397 . S
C304 C309 1.363 . S
C305 H276 0.950 . S
C305 C304 1.397 . S
C305 C306 1.334 . S
C306 H277 0.950 . S
C306 C305 1.334 . S
C306 C307 1.287 . S
C307 C306 1.287 . S
C307 C308 1.524 . S
C307 H310 0.999 . S
C308 H278 0.950 . S
C308 C307 1.524 . S
C308 C309 1.415 . S
C309 H279 0.950 . S
C309 C304 1.363 . S
C309 C308 1.415 . S
H310 C307 0.999 . S
H311 C292 0.913 . S
H312 C330 0.972 . S
H313 C332 0.951 1_655 S
H314 C334 0.950 . S
H315 C335 0.950 . S
H316 C337 0.950 . S
H317 C340 0.950 . S
H318 C341 0.950 . S
H319 C343 0.950 . S
H320 C344 0.950 . S
H321 C345 0.972 . S
H322 C347 0.951 1_455 S
H323 C349 0.950 . S
H324 C350 0.950 . S
H325 C352 0.950 . S
H326 C355 0.950 . S
H327 C356 0.950 . S
H328 C358 0.950 . S
H329 C359 0.950 . S
C330 H312 0.972 . S
C330 C331 1.366 . S
C330 C332 1.388 . S
C331 C330 1.366 . S
C331 C335 1.385 . S
C332 H313 0.951 1_455 S
C332 C330 1.388 . S
C332 C333 1.366 . S
C333 C332 1.366 . S
C333 C334 1.414 . S
C333 C336 1.499 . S
C334 H314 0.950 . S
C334 C333 1.414 . S
C334 C335 1.374 . S
C335 H315 0.950 . S
C335 C331 1.385 . S
C335 C334 1.374 . S
C336 C333 1.499 . S
C336 C337 1.373 . S
C336 C338 1.389 . S
C337 H316 0.950 . S
C337 C336 1.373 . S
C337 C353 1.377 1_455 S
C338 C336 1.389 . S
C338 C339 1.524 . S
C338 C352 1.377 1_455 S
C339 C338 1.524 . S
C339 C340 1.397 . S
C339 C344 1.363 1_455 S
C340 H317 0.950 . S
C340 C339 1.397 . S
C340 C341 1.334 . S
C341 H318 0.950 . S
C341 C340 1.334 . S
C341 C342 1.287 . S
C342 C341 1.287 . S
C342 C343 1.524 1_455 S
C342 H361 0.913 . S
C343 H319 0.950 . S
C343 C342 1.524 1_655 S
C343 C344 1.415 . S
C344 H320 0.950 . S
C344 C339 1.363 1_655 S
C344 C343 1.415 . S
C345 H321 0.972 . S
C345 C346 1.366 . S
C345 C347 1.388 . S
C346 C345 1.366 . S
C346 C350 1.385 . S
C347 H322 0.951 1_655 S
C347 C345 1.388 . S
C347 C348 1.366 . S
C348 C347 1.366 . S
C348 C349 1.414 . S
C348 C351 1.499 . S
C349 H323 0.950 . S
C349 C348 1.414 . S
C349 C350 1.374 . S
C350 H324 0.950 . S
C350 C346 1.385 . S
C350 C349 1.374 . S
C351 C348 1.499 . S
C351 C352 1.373 . S
C351 C353 1.389 . S
C352 H325 0.950 . S
C352 C338 1.377 1_655 S
C352 C351 1.373 . S
C353 C337 1.377 1_655 S
C353 C351 1.389 . S
C353 C354 1.524 . S
C354 C353 1.524 . S
C354 C355 1.397 . S
C354 C359 1.363 1_655 S
C355 H326 0.950 . S
C355 C354 1.397 . S
C355 C356 1.334 . S
C356 H327 0.950 . S
C356 C355 1.334 . S
C356 C357 1.287 . S
C357 C356 1.287 . S
C357 C358 1.524 1_655 S
C357 H360 0.999 . S
C358 H328 0.950 . S
C358 C357 1.524 1_455 S
C358 C359 1.415 . S
C359 H329 0.950 . S
C359 C354 1.363 1_455 S
C359 C358 1.415 . S
H360 C357 0.999 . S
H361 C342 0.913 . S
H362 C380 0.951 . S
H363 C382 0.951 . S
H364 C384 0.950 1_655 S
H365 C385 0.950 . S
H366 C387 0.950 . S
H367 C390 0.950 . S
H368 C391 0.950 . S
H369 C393 0.950 . S
H370 C394 0.950 . S
H371 C395 0.951 . S
H372 C397 0.951 . S
H373 C399 0.950 1_455 S
H374 C400 0.950 . S
H375 C402 0.950 . S
H376 C405 0.950 . S
H377 C406 0.950 . S
H378 C408 0.950 . S
H379 C409 0.950 . S
C380 H362 0.951 . S
C380 C381 1.366 . S
C380 C382 1.388 . S
C381 C380 1.366 . S
C381 C385 1.385 . S
C382 H363 0.951 . S
C382 C380 1.388 . S
C382 C383 1.366 . S
C383 C382 1.366 . S
C383 C384 1.414 . S
C383 C386 1.499 . S
C384 H364 0.950 1_455 S
C384 C383 1.414 . S
C384 C385 1.374 . S
C385 H365 0.950 . S
C385 C381 1.385 . S
C385 C384 1.374 . S
C386 C383 1.499 . S
C386 C387 1.373 . S
C386 C388 1.389 . S
C387 H366 0.950 . S
C387 C386 1.373 . S
C387 C403 1.377 1_455 S
C388 C386 1.389 . S
C388 C389 1.524 . S
C388 C402 1.377 1_455 S
C389 C388 1.524 . S
C389 C390 1.397 1_455 S
C389 C394 1.363 . S
C390 H367 0.950 . S
C390 C389 1.397 1_655 S
C390 C391 1.334 . S
C391 H368 0.950 . S
C391 C390 1.334 . S
C391 C392 1.287 . S
C392 C391 1.287 . S
C392 C393 1.524 1_655 S
C392 H411 0.913 . S
C393 H369 0.950 . S
C393 C392 1.524 1_455 S
C393 C394 1.415 . S
C394 H370 0.950 . S
C394 C389 1.363 . S
C394 C393 1.415 . S
C395 H371 0.951 . S
C395 C396 1.366 . S
C395 C397 1.388 . S
C396 C395 1.366 . S
C396 C400 1.385 . S
C397 H372 0.951 . S
C397 C395 1.388 . S
C397 C398 1.366 . S
C398 C397 1.366 . S
C398 C399 1.414 . S
C398 C401 1.499 . S
C399 H373 0.950 1_655 S
C399 C398 1.414 . S
C399 C400 1.374 . S
C400 H374 0.950 . S
C400 C396 1.385 . S
C400 C399 1.374 . S
C401 C398 1.499 . S
C401 C402 1.373 . S
C401 C403 1.389 . S
C402 H375 0.950 . S
C402 C388 1.377 1_655 S
C402 C401 1.373 . S
C403 C387 1.377 1_655 S
C403 C401 1.389 . S
C403 C404 1.524 . S
C404 C403 1.524 . S
C404 C405 1.397 1_655 S
C404 C409 1.363 . S
C405 H376 0.950 . S
C405 C404 1.397 1_455 S
C405 C406 1.334 . S
C406 H377 0.950 . S
C406 C405 1.334 . S
C406 C407 1.287 . S
C407 C406 1.287 . S
C407 C408 1.524 1_455 S
C407 H410 0.999 . S
C408 H378 0.950 . S
C408 C407 1.524 1_655 S
C408 C409 1.415 . S
C409 H379 0.950 . S
C409 C404 1.363 . S
C409 C408 1.415 . S
H410 C407 0.999 . S
H411 C392 0.913 . S
H412 C430 0.951 . S
H413 C432 0.951 . S
H414 C434 0.950 . S
H415 C435 0.950 . S
H416 C437 0.950 . S
H417 C440 0.950 . S
H418 C441 0.950 . S
H419 C443 0.950 . S
H420 C444 0.950 . S
H421 C445 0.951 . S
H422 C447 0.951 . S
H423 C449 0.950 . S
H424 C450 0.950 . S
H425 C452 0.950 . S
H426 C455 0.950 . S
H427 C456 0.950 . S
H428 C458 0.950 . S
H429 C459 0.950 . S
C430 H412 0.951 . S
C430 C431 1.366 . S
C430 C432 1.388 . S
C431 C430 1.366 . S
C431 C435 1.385 . S
C432 H413 0.951 . S
C432 C430 1.388 . S
C432 C433 1.366 . S
C433 C432 1.366 . S
C433 C434 1.414 . S
C433 C436 1.499 . S
C434 H414 0.950 . S
C434 C433 1.414 . S
C434 C435 1.374 . S
C435 H415 0.950 . S
C435 C431 1.385 . S
C435 C434 1.374 . S
C436 C433 1.499 . S
C436 C437 1.373 . S
C436 C438 1.389 1_455 S
C437 H416 0.950 . S
C437 C436 1.373 . S
C437 C453 1.377 . S
C438 C436 1.389 1_655 S
C438 C439 1.524 . S
C438 C452 1.377 . S
C439 C438 1.524 . S
C439 C440 1.397 . S
C439 C444 1.363 . S
C440 H417 0.950 . S
C440 C439 1.397 . S
C440 C441 1.334 . S
C441 H418 0.950 . S
C441 C440 1.334 . S
C441 C442 1.287 . S
C442 C441 1.287 . S
C442 C443 1.524 . S
C442 H461 0.913 . S
C443 H419 0.950 . S
C443 C442 1.524 . S
C443 C444 1.415 . S
C444 H420 0.950 . S
C444 C439 1.363 . S
C444 C443 1.415 . S
C445 H421 0.951 . S
C445 C446 1.366 . S
C445 C447 1.388 . S
C446 C445 1.366 . S
C446 C450 1.385 . S
C447 H422 0.951 . S
C447 C445 1.388 . S
C447 C448 1.366 . S
C448 C447 1.366 . S
C448 C449 1.414 . S
C448 C451 1.499 . S
C449 H423 0.950 . S
C449 C448 1.414 . S
C449 C450 1.374 . S
C450 H424 0.950 . S
C450 C446 1.385 . S
C450 C449 1.374 . S
C451 C448 1.499 . S
C451 C452 1.373 . S
C451 C453 1.389 1_655 S
C452 H425 0.950 . S
C452 C438 1.377 . S
C452 C451 1.373 . S
C453 C437 1.377 . S
C453 C451 1.389 1_455 S
C453 C454 1.524 . S
C454 C453 1.524 . S
C454 C455 1.397 . S
C454 C459 1.363 . S
C455 H426 0.950 . S
C455 C454 1.397 . S
C455 C456 1.334 . S
C456 H427 0.950 . S
C456 C455 1.334 . S
C456 C457 1.287 . S
C457 C456 1.287 . S
C457 C458 1.524 . S
C457 H460 0.999 . S
C458 H428 0.950 . S
C458 C457 1.524 . S
C458 C459 1.415 . S
C459 H429 0.950 . S
C459 C454 1.363 . S
C459 C458 1.415 . S
H460 C457 0.999 . S
H461 C442 0.913 . S
H462 C480 0.951 1_655 S
H463 C482 0.951 . S
H464 C484 0.950 . S
H465 C485 0.950 . S
H466 C487 0.950 . S
H467 C490 0.950 1_455 S
H468 C491 0.969 . S
H469 C493 0.950 . S
H470 C494 0.950 . S
H471 C495 0.951 1_455 S
H472 C497 0.951 . S
H473 C499 0.950 . S
H474 C500 0.950 . S
H475 C502 0.950 . S
H476 C505 0.950 1_655 S
H477 C506 0.969 . S
H478 C508 0.950 . S
H479 C509 0.950 . S
C480 H462 0.951 1_455 S
C480 C481 1.366 . S
C480 C482 1.388 1_455 S
C481 C480 1.366 . S
C481 C485 1.385 . S
C482 H463 0.951 . S
C482 C480 1.388 1_655 S
C482 C483 1.366 1_655 S
C483 C482 1.366 1_455 S
C483 C484 1.414 . S
C483 C486 1.499 . S
C484 H464 0.950 . S
C484 C483 1.414 . S
C484 C485 1.374 . S
C485 H465 0.950 . S
C485 C481 1.385 . S
C485 C484 1.374 . S
C486 C483 1.499 . S
C486 C487 1.373 . S
C486 C488 1.389 1_455 S
C487 H466 0.950 . S
C487 C486 1.373 . S
C487 C503 1.377 . S
C488 C486 1.389 1_655 S
C488 C489 1.524 . S
C488 C502 1.377 . S
C489 C488 1.524 . S
C489 C490 1.397 . S
C489 C494 1.363 . S
C490 H467 0.950 1_655 S
C490 C489 1.397 . S
C490 C491 1.334 . S
C491 H468 0.969 . S
C491 C490 1.334 . S
C491 C492 1.287 . S
C492 C491 1.287 . S
C492 C493 1.524 . S
C492 H511 0.913 . S
C493 H469 0.950 . S
C493 C492 1.524 . S
C493 C494 1.415 . S
C494 H470 0.950 . S
C494 C489 1.363 . S
C494 C493 1.415 . S
C495 H471 0.951 1_655 S
C495 C496 1.366 . S
C495 C497 1.388 1_655 S
C496 C495 1.366 . S
C496 C500 1.385 . S
C497 H472 0.951 . S
C497 C495 1.388 1_455 S
C497 C498 1.366 1_455 S
C498 C497 1.366 1_655 S
C498 C499 1.414 . S
C498 C501 1.499 . S
C499 H473 0.950 . S
C499 C498 1.414 . S
C499 C500 1.374 . S
C500 H474 0.950 . S
C500 C496 1.385 . S
C500 C499 1.374 . S
C501 C498 1.499 . S
C501 C502 1.373 . S
C501 C503 1.389 1_655 S
C502 H475 0.950 . S
C502 C488 1.377 . S
C502 C501 1.373 . S
C503 C487 1.377 . S
C503 C501 1.389 1_455 S
C503 C504 1.524 . S
C504 C503 1.524 . S
C504 C505 1.397 . S
C504 C509 1.363 . S
C505 H476 0.950 1_455 S
C505 C504 1.397 . S
C505 C506 1.334 . S
C506 H477 0.969 . S
C506 C505 1.334 . S
C506 C507 1.287 . S
C507 C506 1.287 . S
C507 C508 1.524 . S
C507 H510 0.999 . S
C508 H478 0.950 . S
C508 C507 1.524 . S
C508 C509 1.415 . S
C509 H479 0.950 . S
C509 C504 1.363 . S
C509 C508 1.415 . S
H510 C507 0.999 . S
H511 C492 0.913 . S
H512 C530 0.951 . S
H513 C532 0.951 . S
H514 C534 0.950 . S
H515 C535 0.950 . S
H516 C537 0.950 . S
H517 C540 0.950 . S
H518 C541 0.950 . S
H519 C543 0.950 . S
H520 C544 0.950 . S
H521 C545 0.951 . S
H522 C547 0.951 . S
H523 C549 0.950 . S
H524 C550 0.950 . S
H525 C552 0.950 . S
H526 C555 0.950 . S
H527 C556 0.950 . S
H528 C558 0.950 . S
H529 C559 0.950 . S
C530 H512 0.951 . S
C530 C531 1.366 . S
C530 C532 1.388 . S
C531 C530 1.366 . S
C531 C535 1.385 . S
C532 H513 0.951 . S
C532 C530 1.388 . S
C532 C533 1.366 . S
C533 C532 1.366 . S
C533 C534 1.414 . S
C533 C536 1.499 . S
C534 H514 0.950 . S
C534 C533 1.414 . S
C534 C535 1.374 . S
C535 H515 0.950 . S
C535 C531 1.385 . S
C535 C534 1.374 . S
C536 C533 1.499 . S
C536 C537 1.373 . S
C536 C538 1.389 . S
C537 H516 0.950 . S
C537 C536 1.373 . S
C537 C553 1.377 . S
C538 C536 1.389 . S
C538 C539 1.524 . S
C538 C552 1.377 . S
C539 C538 1.524 . S
C539 C540 1.397 . S
C539 C544 1.363 . S
C540 H517 0.950 . S
C540 C539 1.397 . S
C540 C541 1.334 . S
C541 H518 0.950 . S
C541 C540 1.334 . S
C541 C542 1.287 . S
C542 C541 1.287 . S
C542 C543 1.524 . S
C542 H561 0.913 . S
C543 H519 0.950 . S
C543 C542 1.524 . S
C543 C544 1.415 . S
C544 H520 0.950 . S
C544 C539 1.363 . S
C544 C543 1.415 . S
C545 H521 0.951 . S
C545 C546 1.366 . S
C545 C547 1.388 . S
C546 C545 1.366 . S
C546 C550 1.385 . S
C547 H522 0.951 . S
C547 C545 1.388 . S
C547 C548 1.366 . S
C548 C547 1.366 . S
C548 C549 1.414 . S
C548 C551 1.499 . S
C549 H523 0.950 . S
C549 C548 1.414 . S
C549 C550 1.374 . S
C550 H524 0.950 . S
C550 C546 1.385 . S
C550 C549 1.374 . S
C551 C548 1.499 . S
C551 C552 1.373 . S
C551 C553 1.389 . S
C552 H525 0.950 . S
C552 C538 1.377 . S
C552 C551 1.373 . S
C553 C537 1.377 . S
C553 C551 1.389 . S
C553 C554 1.524 . S
C554 C553 1.524 . S
C554 C555 1.397 . S
C554 C559 1.363 . S
C555 H526 0.950 . S
C555 C554 1.397 . S
C555 C556 1.334 . S
C556 H527 0.950 . S
C556 C555 1.334 . S
C556 C557 1.287 . S
C557 C556 1.287 . S
C557 C558 1.524 . S
C557 H560 0.999 . S
C558 H528 0.950 . S
C558 C557 1.524 . S
C558 C559 1.415 . S
C559 H529 0.950 . S
C559 C554 1.363 . S
C559 C558 1.415 . S
H560 C557 0.999 . S
H561 C542 0.913 . S
H562 C580 0.951 . S
H563 C582 0.951 . S
H564 C584 0.950 . S
H565 C585 0.950 . S
H566 C587 0.950 . S
H567 C590 0.950 . S
H568 C591 0.950 . S
H569 C593 0.950 . S
H570 C594 0.950 . S
H571 C595 0.951 . S
H572 C597 0.951 . S
H573 C599 0.950 . S
H574 C600 0.950 . S
H575 C602 0.950 . S
H576 C605 0.950 . S
H577 C606 0.950 . S
H578 C608 0.950 . S
H579 C609 0.950 . S
C580 H562 0.951 . S
C580 C581 1.366 . S
C580 C582 1.388 . S
C581 C580 1.366 . S
C581 C585 1.385 . S
C582 H563 0.951 . S
C582 C580 1.388 . S
C582 C583 1.366 . S
C583 C582 1.366 . S
C583 C584 1.414 . S
C583 C586 1.499 . S
C584 H564 0.950 . S
C584 C583 1.414 . S
C584 C585 1.374 . S
C585 H565 0.950 . S
C585 C581 1.385 . S
C585 C584 1.374 . S
C586 C583 1.499 . S
C586 C587 1.373 . S
C586 C588 1.389 . S
C587 H566 0.950 . S
C587 C586 1.373 . S
C587 C603 1.377 . S
C588 C586 1.389 . S
C588 C589 1.524 . S
C588 C602 1.377 . S
C589 C588 1.524 . S
C589 C590 1.397 . S
C589 C594 1.363 . S
C590 H567 0.950 . S
C590 C589 1.397 . S
C590 C591 1.334 . S
C591 H568 0.950 . S
C591 C590 1.334 . S
C591 C592 1.287 . S
C592 C591 1.287 . S
C592 C593 1.524 . S
C592 H611 0.913 . S
C593 H569 0.950 . S
C593 C592 1.524 . S
C593 C594 1.415 . S
C594 H570 0.950 . S
C594 C589 1.363 . S
C594 C593 1.415 . S
C595 H571 0.951 . S
C595 C596 1.366 . S
C595 C597 1.388 . S
C596 C595 1.366 . S
C596 C600 1.385 . S
C597 H572 0.951 . S
C597 C595 1.388 . S
C597 C598 1.366 . S
C598 C597 1.366 . S
C598 C599 1.414 . S
C598 C601 1.499 . S
C599 H573 0.950 . S
C599 C598 1.414 . S
C599 C600 1.374 . S
C600 H574 0.950 . S
C600 C596 1.385 . S
C600 C599 1.374 . S
C601 C598 1.499 . S
C601 C602 1.373 . S
C601 C603 1.389 . S
C602 H575 0.950 . S
C602 C588 1.377 . S
C602 C601 1.373 . S
C603 C587 1.377 . S
C603 C601 1.389 . S
C603 C604 1.524 . S
C604 C603 1.524 . S
C604 C605 1.397 . S
C604 C609 1.363 . S
C605 H576 0.950 . S
C605 C604 1.397 . S
C605 C606 1.334 . S
C606 H577 0.950 . S
C606 C605 1.334 . S
C606 C607 1.287 . S
C607 C606 1.287 . S
C607 C608 1.524 . S
C607 H610 0.999 . S
C608 H578 0.950 . S
C608 C607 1.524 . S
C608 C609 1.415 . S
C609 H579 0.950 . S
C609 C604 1.363 . S
C609 C608 1.415 . S
H610 C607 0.999 . S
H611 C592 0.913 . S
H612 C630 0.951 . S
H613 C632 0.951 . S
H614 C634 0.950 . S
H615 C635 0.950 . S
H616 C637 0.950 . S
H617 C640 0.950 . S
H618 C641 0.950 . S
H619 C643 0.950 . S
H620 C644 0.950 . S
H621 C645 0.951 . S
H622 C647 0.951 . S
H623 C649 0.950 . S
H624 C650 0.950 . S
H625 C652 0.950 . S
H626 C655 0.950 . S
H627 C656 0.950 . S
H628 C658 0.950 . S
H629 C659 0.950 . S
C630 H612 0.951 . S
C630 C631 1.366 . S
C630 C632 1.388 . S
C631 C630 1.366 . S
C631 C635 1.385 . S
C632 H613 0.951 . S
C632 C630 1.388 . S
C632 C633 1.366 . S
C633 C632 1.366 . S
C633 C634 1.414 . S
C633 C636 1.499 . S
C634 H614 0.950 . S
C634 C633 1.414 . S
C634 C635 1.374 . S
C635 H615 0.950 . S
C635 C631 1.385 . S
C635 C634 1.374 . S
C636 C633 1.499 . S
C636 C637 1.373 . S
C636 C638 1.389 . S
C637 H616 0.950 . S
C637 C636 1.373 . S
C637 C653 1.377 . S
C638 C636 1.389 . S
C638 C639 1.524 . S
C638 C652 1.377 . S
C639 C638 1.524 . S
C639 C640 1.397 . S
C639 C644 1.363 . S
C640 H617 0.950 . S
C640 C639 1.397 . S
C640 C641 1.334 . S
C641 H618 0.950 . S
C641 C640 1.334 . S
C641 C642 1.287 . S
C642 C641 1.287 . S
C642 C643 1.524 . S
C642 H661 0.913 . S
C643 H619 0.950 . S
C643 C642 1.524 . S
C643 C644 1.415 . S
C644 H620 0.950 . S
C644 C639 1.363 . S
C644 C643 1.415 . S
C645 H621 0.951 . S
C645 C646 1.366 . S
C645 C647 1.388 . S
C646 C645 1.366 . S
C646 C650 1.385 . S
C647 H622 0.951 . S
C647 C645 1.388 . S
C647 C648 1.366 . S
C648 C647 1.366 . S
C648 C649 1.414 . S
C648 C651 1.499 . S
C649 H623 0.950 . S
C649 C648 1.414 . S
C649 C650 1.374 . S
C650 H624 0.950 . S
C650 C646 1.385 . S
C650 C649 1.374 . S
C651 C648 1.499 . S
C651 C652 1.373 . S
C651 C653 1.389 . S
C652 H625 0.950 . S
C652 C638 1.377 . S
C652 C651 1.373 . S
C653 C637 1.377 . S
C653 C651 1.389 . S
C653 C654 1.524 . S
C654 C653 1.524 . S
C654 C655 1.397 . S
C654 C659 1.363 . S
C655 H626 0.950 . S
C655 C654 1.397 . S
C655 C656 1.334 . S
C656 H627 0.950 . S
C656 C655 1.334 . S
C656 C657 1.287 . S
C657 C656 1.287 . S
C657 C658 1.524 . S
C657 H660 0.999 . S
C658 H628 0.950 . S
C658 C657 1.524 . S
C658 C659 1.415 . S
C659 H629 0.950 . S
C659 C654 1.363 . S
C659 C658 1.415 . S
H660 C657 0.999 . S
H661 C642 0.913 . S
H662 C680 0.951 . S
H663 C682 0.951 . S
H664 C684 0.950 . S
H665 C685 0.950 . S
H666 C687 0.950 . S
H667 C690 0.950 . S
H668 C691 0.950 . S
H669 C693 0.950 . S
H670 C694 0.950 . S
H671 C695 0.951 . S
H672 C697 0.951 . S
H673 C699 0.950 . S
H674 C700 0.950 . S
H675 C702 0.950 . S
H676 C705 0.950 . S
H677 C706 0.950 . S
H678 C708 0.950 . S
H679 C709 0.950 . S
C680 H662 0.951 . S
C680 C681 1.366 . S
C680 C682 1.388 . S
C681 C680 1.366 . S
C681 C685 1.385 . S
C682 H663 0.951 . S
C682 C680 1.388 . S
C682 C683 1.366 . S
C683 C682 1.366 . S
C683 C684 1.414 . S
C683 C686 1.499 . S
C684 H664 0.950 . S
C684 C683 1.414 . S
C684 C685 1.374 . S
C685 H665 0.950 . S
C685 C681 1.385 . S
C685 C684 1.374 . S
C686 C683 1.499 . S
C686 C687 1.373 . S
C686 C688 1.389 . S
C687 H666 0.950 . S
C687 C686 1.373 . S
C687 C703 1.377 . S
C688 C686 1.389 . S
C688 C689 1.524 . S
C688 C702 1.377 . S
C689 C688 1.524 . S
C689 C690 1.397 . S
C689 C694 1.363 . S
C690 H667 0.950 . S
C690 C689 1.397 . S
C690 C691 1.334 . S
C691 H668 0.950 . S
C691 C690 1.334 . S
C691 C692 1.287 . S
C692 C691 1.287 . S
C692 C693 1.524 . S
C692 H711 0.913 . S
C693 H669 0.950 . S
C693 C692 1.524 . S
C693 C694 1.415 . S
C694 H670 0.950 . S
C694 C689 1.363 . S
C694 C693 1.415 . S
C695 H671 0.951 . S
C695 C696 1.366 . S
C695 C697 1.388 . S
C696 C695 1.366 . S
C696 C700 1.385 . S
C697 H672 0.951 . S
C697 C695 1.388 . S
C697 C698 1.366 . S
C698 C697 1.366 . S
C698 C699 1.414 . S
C698 C701 1.499 . S
C699 H673 0.950 . S
C699 C698 1.414 . S
C699 C700 1.374 . S
C700 H674 0.950 . S
C700 C696 1.385 . S
C700 C699 1.374 . S
C701 C698 1.499 . S
C701 C702 1.373 . S
C701 C703 1.389 . S
C702 H675 0.950 . S
C702 C688 1.377 . S
C702 C701 1.373 . S
C703 C687 1.377 . S
C703 C701 1.389 . S
C703 C704 1.524 . S
C704 C703 1.524 . S
C704 C705 1.397 . S
C704 C709 1.363 . S
C705 H676 0.950 . S
C705 C704 1.397 . S
C705 C706 1.334 . S
C706 H677 0.950 . S
C706 C705 1.334 . S
C706 C707 1.287 . S
C707 C706 1.287 . S
C707 C708 1.524 . S
C707 H710 0.999 . S
C708 H678 0.950 . S
C708 C707 1.524 . S
C708 C709 1.415 . S
C709 H679 0.950 . S
C709 C704 1.363 . S
C709 C708 1.415 . S
H710 C707 0.999 . S
H711 C692 0.913 . S
H712 C730 0.961 . S
H713 C732 0.952 1_556 S
H714 C734 0.950 . S
H715 C735 0.950 . S
H716 C737 0.953 . S
H717 C740 0.950 . S
H718 C741 0.950 . S
H719 C743 0.950 . S
H720 C744 0.950 . S
H721 C745 0.951 . S
H722 C747 0.951 . S
H723 C749 0.950 . S
H724 C750 0.950 . S
H725 C752 0.950 . S
H726 C755 0.950 . S
H727 C756 0.950 . S
H728 C758 0.950 . S
H729 C759 0.950 1_554 S
C730 H712 0.961 . S
C730 C731 1.357 1_556 S
C730 C732 1.387 1_556 S
C731 C730 1.357 1_554 S
C731 C735 1.385 . S
C732 H713 0.952 1_554 S
C732 C730 1.387 1_554 S
C732 C733 1.364 . S
C733 C732 1.364 . S
C733 C734 1.414 . S
C733 C736 1.499 . S
C734 H714 0.950 . S
C734 C733 1.414 . S
C734 C735 1.374 . S
C735 H715 0.950 . S
C735 C731 1.385 . S
C735 C734 1.374 . S
C736 C733 1.499 . S
C736 C737 1.370 1_554 S
C736 C738 1.389 . S
C737 H716 0.953 . S
C737 C736 1.370 1_556 S
C737 C753 1.377 . S
C738 C736 1.389 . S
C738 C739 1.524 . S
C738 C752 1.377 . S
C739 C738 1.524 . S
C739 C740 1.397 . S
C739 C744 1.363 . S
C740 H717 0.950 . S
C740 C739 1.397 . S
C740 C741 1.334 . S
C741 H718 0.950 . S
C741 C740 1.334 . S
C741 C742 1.287 . S
C742 C741 1.287 . S
C742 C743 1.524 . S
C742 H761 0.913 . S
C743 H719 0.950 . S
C743 C742 1.524 . S
C743 C744 1.415 . S
C744 H720 0.950 . S
C744 C739 1.363 . S
C744 C743 1.415 . S
C745 H721 0.951 . S
C745 C746 1.366 . S
C745 C747 1.388 . S
C746 C745 1.366 . S
C746 C750 1.385 1_554 S
C747 H722 0.951 . S
C747 C745 1.388 . S
C747 C748 1.366 . S
C748 C747 1.366 . S
C748 C749 1.414 1_554 S
C748 C751 1.499 . S
C749 H723 0.950 . S
C749 C748 1.414 1_556 S
C749 C750 1.374 . S
C750 H724 0.950 . S
C750 C746 1.385 1_556 S
C750 C749 1.374 . S
C751 C748 1.499 . S
C751 C752 1.373 . S
C751 C753 1.389 1_554 S
C752 H725 0.950 . S
C752 C738 1.377 . S
C752 C751 1.373 . S
C753 C737 1.377 . S
C753 C751 1.389 1_556 S
C753 C754 1.524 . S
C754 C753 1.524 . S
C754 C755 1.397 . S
C754 C759 1.363 . S
C755 H726 0.950 . S
C755 C754 1.397 . S
C755 C756 1.334 . S
C756 H727 0.950 . S
C756 C755 1.334 . S
C756 C757 1.287 . S
C757 C756 1.287 . S
C757 C758 1.524 . S
C757 H760 0.999 . S
C758 H728 0.950 . S
C758 C757 1.524 . S
C758 C759 1.415 . S
C759 H729 0.950 1_556 S
C759 C754 1.363 . S
C759 C758 1.415 . S
H760 C757 0.999 . S
H761 C742 0.913 . S
H762 C780 0.951 1_556 S
H763 C782 0.951 1_556 S
H764 C784 0.950 . S
H765 C785 0.950 . S
H766 C787 0.950 . S
H767 C790 0.950 . S
H768 C791 0.950 . S
H769 C793 0.950 . S
H770 C794 0.950 . S
H771 C795 0.951 . S
H772 C797 0.951 . S
H773 C799 0.950 1_556 S
H774 C800 0.950 1_556 S
H775 C802 0.950 . S
H776 C805 0.950 . S
H777 C806 0.950 . S
H778 C808 0.950 . S
H779 C809 0.950 . S
C780 H762 0.951 1_554 S
C780 C781 1.366 . S
C780 C782 1.388 . S
C781 C780 1.366 . S
C781 C785 1.385 . S
C782 H763 0.951 1_554 S
C782 C780 1.388 . S
C782 C783 1.366 . S
C783 C782 1.366 . S
C783 C784 1.414 . S
C783 C786 1.499 . S
C784 H764 0.950 . S
C784 C783 1.414 . S
C784 C785 1.374 . S
C785 H765 0.950 . S
C785 C781 1.385 . S
C785 C784 1.374 . S
C786 C783 1.499 . S
C786 C787 1.373 1_554 S
C786 C788 1.389 . S
C787 H766 0.950 . S
C787 C786 1.373 1_556 S
C787 C803 1.377 . S
C788 C786 1.389 . S
C788 C789 1.524 . S
C788 C802 1.377 . S
C789 C788 1.524 . S
C789 C790 1.397 . S
C789 C794 1.363 . S
C790 H767 0.950 . S
C790 C789 1.397 . S
C790 C791 1.334 . S
C791 H768 0.950 . S
C791 C790 1.334 . S
C791 C792 1.287 . S
C792 C791 1.287 . S
C792 C793 1.524 . S
C792 H811 0.913 . S
C793 H769 0.950 . S
C793 C792 1.524 . S
C793 C794 1.415 . S
C794 H770 0.950 . S
C794 C789 1.363 . S
C794 C793 1.415 . S
C795 H771 0.951 . S
C795 C796 1.366 . S
C795 C797 1.388 . S
C796 C795 1.366 . S
C796 C800 1.385 . S
C797 H772 0.951 . S
C797 C795 1.388 . S
C797 C798 1.366 . S
C798 C797 1.366 . S
C798 C799 1.414 . S
C798 C801 1.499 . S
C799 H773 0.950 1_554 S
C799 C798 1.414 . S
C799 C800 1.374 . S
C800 H774 0.950 1_554 S
C800 C796 1.385 . S
C800 C799 1.374 . S
C801 C798 1.499 . S
C801 C802 1.373 . S
C801 C803 1.389 1_554 S
C802 H775 0.950 . S
C802 C788 1.377 . S
C802 C801 1.373 . S
C803 C787 1.377 . S
C803 C801 1.389 1_556 S
C803 C804 1.524 . S
C804 C803 1.524 . S
C804 C805 1.397 . S
C804 C809 1.363 . S
C805 H776 0.950 . S
C805 C804 1.397 . S
C805 C806 1.334 . S
C806 H777 0.950 . S
C806 C805 1.334 . S
C806 C807 1.287 . S
C807 C806 1.287 . S
C807 C808 1.524 . S
C807 H810 0.999 . S
C808 H778 0.950 . S
C808 C807 1.524 . S
C808 C809 1.415 . S
C809 H779 0.950 . S
C809 C804 1.363 . S
C809 C808 1.415 . S
H810 C807 0.999 . S
H811 C792 0.913 . S
H812 C830 0.951 . S
H813 C832 0.951 . S
H814 C834 0.950 . S
H815 C835 0.950 . S
H816 C837 0.950 . S
H817 C840 0.950 . S
H818 C841 0.950 . S
H819 C843 0.950 . S
H820 C844 0.950 . S
H821 C845 0.951 . S
H822 C847 0.951 . S
H823 C849 0.950 . S
H824 C850 0.950 . S
H825 C852 0.950 . S
H826 C855 0.950 . S
H827 C856 0.950 . S
H828 C858 0.950 . S
H829 C859 0.950 . S
C830 H812 0.951 . S
C830 C831 1.366 . S
C830 C832 1.388 . S
C831 C830 1.366 . S
C831 C835 1.385 . S
C832 H813 0.951 . S
C832 C830 1.388 . S
C832 C833 1.366 . S
C833 C832 1.366 . S
C833 C834 1.414 . S
C833 C836 1.499 . S
C834 H814 0.950 . S
C834 C833 1.414 . S
C834 C835 1.374 . S
C835 H815 0.950 . S
C835 C831 1.385 . S
C835 C834 1.374 . S
C836 C833 1.499 . S
C836 C837 1.373 . S
C836 C838 1.389 . S
C837 H816 0.950 . S
C837 C836 1.373 . S
C837 C853 1.377 . S
C838 C836 1.389 . S
C838 C839 1.524 . S
C838 C852 1.377 . S
C839 C838 1.524 . S
C839 C840 1.397 . S
C839 C844 1.363 . S
C840 H817 0.950 . S
C840 C839 1.397 . S
C840 C841 1.334 . S
C841 H818 0.950 . S
C841 C840 1.334 . S
C841 C842 1.287 . S
C842 C841 1.287 . S
C842 C843 1.524 . S
C842 H861 0.913 . S
C843 H819 0.950 . S
C843 C842 1.524 . S
C843 C844 1.415 . S
C844 H820 0.950 . S
C844 C839 1.363 . S
C844 C843 1.415 . S
C845 H821 0.951 . S
C845 C846 1.366 . S
C845 C847 1.388 . S
C846 C845 1.366 . S
C846 C850 1.385 . S
C847 H822 0.951 . S
C847 C845 1.388 . S
C847 C848 1.366 . S
C848 C847 1.366 . S
C848 C849 1.414 . S
C848 C851 1.499 . S
C849 H823 0.950 . S
C849 C848 1.414 . S
C849 C850 1.374 . S
C850 H824 0.950 . S
C850 C846 1.385 . S
C850 C849 1.374 . S
C851 C848 1.499 . S
C851 C852 1.373 . S
C851 C853 1.389 . S
C852 H825 0.950 . S
C852 C838 1.377 . S
C852 C851 1.373 . S
C853 C837 1.377 . S
C853 C851 1.389 . S
C853 C854 1.524 . S
C854 C853 1.524 . S
C854 C855 1.397 . S
C854 C859 1.363 . S
C855 H826 0.950 . S
C855 C854 1.397 . S
C855 C856 1.334 . S
C856 H827 0.950 . S
C856 C855 1.334 . S
C856 C857 1.287 . S
C857 C856 1.287 . S
C857 C858 1.524 . S
C857 H860 0.999 . S
C858 H828 0.950 . S
C858 C857 1.524 . S
C858 C859 1.415 . S
C859 H829 0.950 . S
C859 C854 1.363 . S
C859 C858 1.415 . S
H860 C857 0.999 . S
H861 C842 0.913 . S
H862 C880 0.951 . S
H863 C882 0.951 . S
H864 C884 0.950 . S
H865 C885 0.950 . S
H866 C887 0.950 . S
H867 C890 0.950 . S
H868 C891 0.950 . S
H869 C893 0.950 . S
H870 C894 0.950 . S
H871 C895 0.951 . S
H872 C897 0.951 . S
H873 C899 0.950 . S
H874 C900 0.950 . S
H875 C902 0.950 . S
H876 C905 0.950 . S
H877 C906 0.950 . S
H878 C908 0.950 . S
H879 C909 0.950 . S
C880 H862 0.951 . S
C880 C881 1.366 . S
C880 C882 1.388 . S
C881 C880 1.366 . S
C881 C885 1.385 . S
C882 H863 0.951 . S
C882 C880 1.388 . S
C882 C883 1.366 . S
C883 C882 1.366 . S
C883 C884 1.414 . S
C883 C886 1.499 . S
C884 H864 0.950 . S
C884 C883 1.414 . S
C884 C885 1.374 . S
C885 H865 0.950 . S
C885 C881 1.385 . S
C885 C884 1.374 . S
C886 C883 1.499 . S
C886 C887 1.373 . S
C886 C888 1.389 . S
C887 H866 0.950 . S
C887 C886 1.373 . S
C887 C903 1.377 . S
C888 C886 1.389 . S
C888 C889 1.524 . S
C888 C902 1.377 . S
C889 C888 1.524 . S
C889 C890 1.397 . S
C889 C894 1.363 . S
C890 H867 0.950 . S
C890 C889 1.397 . S
C890 C891 1.334 . S
C891 H868 0.950 . S
C891 C890 1.334 . S
C891 C892 1.287 . S
C892 C891 1.287 . S
C892 C893 1.524 . S
C892 H911 0.913 . S
C893 H869 0.950 . S
C893 C892 1.524 . S
C893 C894 1.415 . S
C894 H870 0.950 . S
C894 C889 1.363 . S
C894 C893 1.415 . S
C895 H871 0.951 . S
C895 C896 1.366 . S
C895 C897 1.388 . S
C896 C895 1.366 . S
C896 C900 1.385 . S
C897 H872 0.951 . S
C897 C895 1.388 . S
C897 C898 1.366 . S
C898 C897 1.366 . S
C898 C899 1.414 . S
C898 C901 1.499 . S
C899 H873 0.950 . S
C899 C898 1.414 . S
C899 C900 1.374 . S
C900 H874 0.950 . S
C900 C896 1.385 . S
C900 C899 1.374 . S
C901 C898 1.499 . S
C901 C902 1.373 . S
C901 C903 1.389 . S
C902 H875 0.950 . S
C902 C888 1.377 . S
C902 C901 1.373 . S
C903 C887 1.377 . S
C903 C901 1.389 . S
C903 C904 1.524 . S
C904 C903 1.524 . S
C904 C905 1.397 . S
C904 C909 1.363 . S
C905 H876 0.950 . S
C905 C904 1.397 . S
C905 C906 1.334 . S
C906 H877 0.950 . S
C906 C905 1.334 . S
C906 C907 1.287 . S
C907 C906 1.287 . S
C907 C908 1.524 . S
C907 H910 0.999 . S
C908 H878 0.950 . S
C908 C907 1.524 . S
C908 C909 1.415 . S
C909 H879 0.950 . S
C909 C904 1.363 . S
C909 C908 1.415 . S
H910 C907 0.999 . S
H911 C892 0.913 . S
C131 C22 1.459 . S
C146 C8 1.458 . S
C181 C36 1.458 . S
C196 C50 1.458 . S
C231 C64 1.459 . S
C246 C78 1.458 . S
C281 C92 1.459 . S
C296 C106 1.458 . S
C331 C13 1.079 . S
C346 C55 1.080 . S
C381 C41 1.081 . S
C396 C27 1.080 . S
C431 C35 1.063 . S
C446 C21 1.064 . S
C481 C7 1.064 . S
C496 C49 1.063 . S
C531 C69 1.080 . S
C546 C111 1.081 . S
C581 C97 1.080 . S
C596 C83 1.081 . S
C631 C77 1.064 . S
C646 C91 1.063 . S
C681 C63 1.063 . S
C696 C105 1.064 . S
C731 C81 1.561 . S
C746 C11 1.561 . S
C781 C67 1.561 . S
C796 C25 1.561 . S
C831 C39 1.561 . S
C846 C109 1.561 . S
C881 C95 1.561 . S
C896 C53 1.561 . S
