# Generated by pormake.
# Topology smd, (6)-cn, num edge types: 1
# Building blocks:
#     Node 0, Type 0, BuildingBlock: GEDQOX_clean_sbu_0, # of connection points: 6
#     Node 1, Type 0, BuildingBlock: GEDQOX_clean_sbu_0, # of connection points: 6
#     Node 2, Type 0, BuildingBlock: GEDQOX_clean_sbu_0, # of connection points: 6
#     Node 3, Type 0, BuildingBlock: GEDQOX_clean_sbu_0, # of connection points: 6
#     Node 4, Type 0, BuildingBlock: GEDQOX_clean_sbu_0, # of connection points: 6
#     Node 5, Type 0, BuildingBlock: GEDQOX_clean_sbu_0, # of connection points: 6
#     Node 6, Type 0, BuildingBlock: GEDQOX_clean_sbu_0, # of connection points: 6
#     Node 7, Type 0, BuildingBlock: GEDQOX_clean_sbu_0, # of connection points: 6
#     Node 8, Type 0, BuildingBlock: GEDQOX_clean_sbu_0, # of connection points: 6
#     Node 9, Type 0, BuildingBlock: GEDQOX_clean_sbu_0, # of connection points: 6
#     Node 10, Type 0, BuildingBlock: GEDQOX_clean_sbu_0, # of connection points: 6
#     Node 11, Type 0, BuildingBlock: GEDQOX_clean_sbu_0, # of connection points: 6
#     Node 12, Type 0, BuildingBlock: GEDQOX_clean_sbu_0, # of connection points: 6
#     Node 13, Type 0, BuildingBlock: GEDQOX_clean_sbu_0, # of connection points: 6
#     Node 14, Type 0, BuildingBlock: GEDQOX_clean_sbu_0, # of connection points: 6
#     Node 15, Type 0, BuildingBlock: GEDQOX_clean_sbu_0, # of connection points: 6
#     Node 16, Type 0, BuildingBlock: GEDQOX_clean_sbu_0, # of connection points: 6
#     Node 17, Type 0, BuildingBlock: GEDQOX_clean_sbu_0, # of connection points: 6
#     Edge 18, Type (0, 0), BuildingBlock: EZIPEK_clean_linker_0, # of connection points: 2
#     Edge 19, Type (0, 0), BuildingBlock: EZIPEK_clean_linker_0, # of connection points: 2
#     Edge 20, Type (0, 0), BuildingBlock: EZIPEK_clean_linker_0, # of connection points: 2
#     Edge 21, Type (0, 0), BuildingBlock: EZIPEK_clean_linker_0, # of connection points: 2
#     Edge 22, Type (0, 0), BuildingBlock: EZIPEK_clean_linker_0, # of connection points: 2
#     Edge 23, Type (0, 0), BuildingBlock: EZIPEK_clean_linker_0, # of connection points: 2
#     Edge 24, Type (0, 0), BuildingBlock: EZIPEK_clean_linker_0, # of connection points: 2
#     Edge 25, Type (0, 0), BuildingBlock: EZIPEK_clean_linker_0, # of connection points: 2
#     Edge 26, Type (0, 0), BuildingBlock: EZIPEK_clean_linker_0, # of connection points: 2
#     Edge 27, Type (0, 0), BuildingBlock: EZIPEK_clean_linker_0, # of connection points: 2
#     Edge 28, Type (0, 0), BuildingBlock: EZIPEK_clean_linker_0, # of connection points: 2
#     Edge 29, Type (0, 0), BuildingBlock: EZIPEK_clean_linker_0, # of connection points: 2
#     Edge 30, Type (0, 0), BuildingBlock: EZIPEK_clean_linker_0, # of connection points: 2
#     Edge 31, Type (0, 0), BuildingBlock: EZIPEK_clean_linker_0, # of connection points: 2
#     Edge 32, Type (0, 0), BuildingBlock: EZIPEK_clean_linker_0, # of connection points: 2
#     Edge 33, Type (0, 0), BuildingBlock: EZIPEK_clean_linker_0, # of connection points: 2
#     Edge 34, Type (0, 0), BuildingBlock: EZIPEK_clean_linker_0, # of connection points: 2
#     Edge 35, Type (0, 0), BuildingBlock: EZIPEK_clean_linker_0, # of connection points: 2
#     Edge 36, Type (0, 0), BuildingBlock: EZIPEK_clean_linker_0, # of connection points: 2
#     Edge 37, Type (0, 0), BuildingBlock: EZIPEK_clean_linker_0, # of connection points: 2
#     Edge 38, Type (0, 0), BuildingBlock: EZIPEK_clean_linker_0, # of connection points: 2
#     Edge 39, Type (0, 0), BuildingBlock: EZIPEK_clean_linker_0, # of connection points: 2
#     Edge 40, Type (0, 0), BuildingBlock: EZIPEK_clean_linker_0, # of connection points: 2
#     Edge 41, Type (0, 0), BuildingBlock: EZIPEK_clean_linker_0, # of connection points: 2
#     Edge 42, Type (0, 0), BuildingBlock: EZIPEK_clean_linker_0, # of connection points: 2
#     Edge 43, Type (0, 0), BuildingBlock: EZIPEK_clean_linker_0, # of connection points: 2
#     Edge 44, Type (0, 0), BuildingBlock: EZIPEK_clean_linker_0, # of connection points: 2
#     Edge 45, Type (0, 0), BuildingBlock: EZIPEK_clean_linker_0, # of connection points: 2
#     Edge 46, Type (0, 0), BuildingBlock: EZIPEK_clean_linker_0, # of connection points: 2
#     Edge 47, Type (0, 0), BuildingBlock: EZIPEK_clean_linker_0, # of connection points: 2
#     Edge 48, Type (0, 0), BuildingBlock: EZIPEK_clean_linker_0, # of connection points: 2
#     Edge 49, Type (0, 0), BuildingBlock: EZIPEK_clean_linker_0, # of connection points: 2
#     Edge 50, Type (0, 0), BuildingBlock: EZIPEK_clean_linker_0, # of connection points: 2
#     Edge 51, Type (0, 0), BuildingBlock: EZIPEK_clean_linker_0, # of connection points: 2
#     Edge 52, Type (0, 0), BuildingBlock: EZIPEK_clean_linker_0, # of connection points: 2
#     Edge 53, Type (0, 0), BuildingBlock: EZIPEK_clean_linker_0, # of connection points: 2
#     Edge 54, Type (0, 0), BuildingBlock: EZIPEK_clean_linker_0, # of connection points: 2
#     Edge 55, Type (0, 0), BuildingBlock: EZIPEK_clean_linker_0, # of connection points: 2
#     Edge 56, Type (0, 0), BuildingBlock: EZIPEK_clean_linker_0, # of connection points: 2
#     Edge 57, Type (0, 0), BuildingBlock: EZIPEK_clean_linker_0, # of connection points: 2
#     Edge 58, Type (0, 0), BuildingBlock: EZIPEK_clean_linker_0, # of connection points: 2
#     Edge 59, Type (0, 0), BuildingBlock: EZIPEK_clean_linker_0, # of connection points: 2
#     Edge 60, Type (0, 0), BuildingBlock: EZIPEK_clean_linker_0, # of connection points: 2
#     Edge 61, Type (0, 0), BuildingBlock: EZIPEK_clean_linker_0, # of connection points: 2
#     Edge 62, Type (0, 0), BuildingBlock: EZIPEK_clean_linker_0, # of connection points: 2
#     Edge 63, Type (0, 0), BuildingBlock: EZIPEK_clean_linker_0, # of connection points: 2
#     Edge 64, Type (0, 0), BuildingBlock: EZIPEK_clean_linker_0, # of connection points: 2
#     Edge 65, Type (0, 0), BuildingBlock: EZIPEK_clean_linker_0, # of connection points: 2
#     Edge 66, Type (0, 0), BuildingBlock: EZIPEK_clean_linker_0, # of connection points: 2
#     Edge 67, Type (0, 0), BuildingBlock: EZIPEK_clean_linker_0, # of connection points: 2
#     Edge 68, Type (0, 0), BuildingBlock: EZIPEK_clean_linker_0, # of connection points: 2
#     Edge 69, Type (0, 0), BuildingBlock: EZIPEK_clean_linker_0, # of connection points: 2
#     Edge 70, Type (0, 0), BuildingBlock: EZIPEK_clean_linker_0, # of connection points: 2
#     Edge 71, Type (0, 0), BuildingBlock: EZIPEK_clean_linker_0, # of connection points: 2
# Relax obj value: 0.284
# Max RMSD: 0.261
# Mean RMSD: 0.260
data_MOF--net-smd--node1-GEDQOX_clean_sbu_0--edge1-EZIPEK_clean_linker_0
_symmetry_space_group_name_H-M    P1
_symmetry_Int_Tables_number       1
_symmetry_cell_setting            triclinic
loop_
_symmetry_equiv_pos_as_xyz
'x, y, z'
_cell_length_a     76.175951
_cell_length_b     76.205298
_cell_length_c     11.592152
_cell_angle_alpha  89.958268
_cell_angle_beta   89.835087
_cell_angle_gamma 120.05442
loop_
_atom_site_label
_atom_site_type_symbol
_atom_site_fract_x
_atom_site_fract_y
_atom_site_fract_z
_atom_type_partial_charge
Nd0 Nd 0.04803 0.23664 0.57296 0.0
Nd1 Nd 0.01419 0.24965 0.57134 0.0
C2 C 0.0809 0.23379 0.54987 0.0
C3 C 0.09933 0.23238 0.53184 0.0
C4 C 0.10776 0.23486 0.42107 0.0
C5 C 0.12585 0.23457 0.40471 0.0
C6 C 0.13559 0.23142 0.49862 0.0
C7 C 0.12688 0.2285 0.60912 0.0
C8 C 0.10901 0.22919 0.62575 0.0
C9 C 1.00843 0.20559 0.60274 0.0
C10 C 0.02982 0.24171 0.32484 0.0
C11 C 0.97996 0.25028 0.58928 0.0
C12 C 0.97246 0.26268 0.64612 0.0
C13 C 0.95456 0.25307 0.71214 0.0
C14 C 0.94675 0.26439 0.76332 0.0
C15 C 0.95664 0.2855 0.74845 0.0
C16 C 0.97478 0.29519 0.68465 0.0
C17 C 0.98267 0.28391 0.63411 0.0
C18 C 0.05236 0.28424 0.56545 0.0
C19 C 0.03228 0.24402 0.82054 0.0
O20 O 0.08025 0.247 0.61944 0.0
O21 O 0.06417 0.22223 0.49301 0.0
O22 O 0.02405 0.2055 0.64669 0.0
O23 O 0.01434 0.22066 0.53659 0.0
O24 O 0.04547 0.24259 0.38003 0.0
O25 O 0.01431 0.24116 0.38044 0.0
O26 O 0.98449 0.23934 0.65704 0.0
O27 O 0.99272 0.25858 0.50299 0.0
O28 O 0.03554 0.28458 0.56682 0.0
O29 O 0.04829 0.26606 0.57006 0.0
O30 O 0.01762 0.24499 0.76518 0.0
O31 O 0.047 0.24291 0.76624 0.0
H32 H 0.10058 0.23746 0.34764 0.0
H33 H 0.13236 0.23695 0.31895 0.0
H34 H 0.13416 0.22608 0.68268 0.0
H35 H 0.10275 0.22726 0.71192 0.0
H36 H 0.9465 0.23676 0.72315 0.0
H37 H 0.93282 0.25667 0.81292 0.0
H38 H 0.9827 0.3115 0.67297 0.0
H39 H 0.99662 0.29178 0.58481 0.0
Nd40 Nd 0.82786 0.83644 0.5682 0.0
Nd41 Nd 0.81527 0.78892 0.56698 0.0
C42 C 0.82547 0.86988 0.58444 0.0
C43 C 0.82774 0.88925 0.54201 0.0
C44 C 0.81032 0.89107 0.53399 0.0
C45 C 0.81191 0.90981 0.51097 0.0
C46 C 0.83097 0.92717 0.49492 0.0
C47 C 0.84844 0.92534 0.49914 0.0
C48 C 0.84686 0.90654 0.52325 0.0
C49 C 0.86157 0.8312 0.55092 0.0
C50 C 0.8241 0.81354 0.32015 0.0
C51 C 0.81397 0.75375 0.59414 0.0
C52 C 0.80248 0.73457 0.65805 0.0
C53 C 0.81007 0.72119 0.66371 0.0
C54 C 0.79836 0.70188 0.71211 0.0
C55 C 0.77893 0.69575 0.7558 0.0
C56 C 0.77168 0.70947 0.75452 0.0
C57 C 0.7834 0.72879 0.7061 0.0
C58 C 0.78381 0.7962 0.53992 0.0
C59 C 0.82168 0.8126 0.81722 0.0
O60 O 0.81093 0.85285 0.54259 0.0
O61 O 0.84144 0.8689 0.61658 0.0
O62 O 0.86294 0.84894 0.55154 0.0
O63 O 0.8431 0.8183 0.55514 0.0
O64 O 0.82372 0.8288 0.37321 0.0
O65 O 0.82421 0.79841 0.3763 0.0
O66 O 0.82597 0.76994 0.65392 0.0
O67 O 0.80403 0.75722 0.51396 0.0
O68 O 0.78373 0.78016 0.50214 0.0
O69 O 0.79898 0.80634 0.60508 0.0
O70 O 0.81664 0.79544 0.76265 0.0
O71 O 0.82606 0.82965 0.76326 0.0
H72 H 0.79542 0.87806 0.5496 0.0
H73 H 0.79826 0.91088 0.5081 0.0
H74 H 0.8633 0.93856 0.48683 0.0
H75 H 0.86058 0.90567 0.53008 0.0
H76 H 0.82475 0.72542 0.62684 0.0
H77 H 0.80407 0.69142 0.7112 0.0
H78 H 0.75662 0.7049 0.78677 0.0
H79 H 0.77729 0.73893 0.70243 0.0
Nd80 Nd 0.2287 0.015 0.57563 0.0
Nd81 Nd 0.27716 0.05278 0.57348 0.0
C82 C 0.19646 0.97819 0.58431 0.0
C83 C 0.17604 0.96295 0.54157 0.0
C84 C 0.17391 0.95019 0.44916 0.0
C85 C 0.1548 0.9342 0.41801 0.0
C86 C 0.13676 0.93089 0.47374 0.0
C87 C 0.13956 0.94271 0.57377 0.0
C88 C 0.15867 0.95871 0.60503 0.0
C89 C 0.23322 0.05368 0.56472 0.0
C90 C 0.25101 0.03516 0.32724 0.0
C91 C 0.31094 0.08815 0.58825 0.0
C92 C 0.33094 0.0955 0.64202 0.0
C93 C 0.3437 0.1163 0.66207 0.0
C94 C 0.36305 0.1235 0.70901 0.0
C95 C 0.36982 0.10995 0.73675 0.0
C96 C 0.35684 0.08908 0.71937 0.0
C97 C 0.33751 0.08189 0.67279 0.0
C98 C 0.27401 0.0148 0.57448 0.0
C99 C 0.25355 0.03348 0.82152 0.0
O100 O 0.21233 0.98299 0.51874 0.0
O101 O 0.19831 0.99336 0.64718 0.0
O102 O 0.21556 0.03716 0.55928 0.0
O103 O 0.24633 0.04845 0.57367 0.0
O104 O 0.23571 0.01969 0.3815 0.0
O105 O 0.26665 0.05039 0.38211 0.0
O106 O 0.29562 0.08249 0.6594 0.0
O107 O 0.30668 0.07585 0.50023 0.0
O108 O 0.29117 0.03175 0.57596 0.0
O109 O 0.25997 0.01901 0.57812 0.0
O110 O 0.26876 0.04898 0.76698 0.0
O111 O 0.2383 0.01807 0.76709 0.0
H112 H 0.18713 0.952 0.40331 0.0
H113 H 0.15473 0.92408 0.35296 0.0
H114 H 0.12735 0.93938 0.63302 0.0
H115 H 0.15991 0.96725 0.68228 0.0
H116 H 0.33883 0.12699 0.63961 0.0
H117 H 0.37292 0.13965 0.72118 0.0
H118 H 0.36187 0.07842 0.7397 0.0
H119 H 0.32783 0.06576 0.65899 0.0
Nd120 Nd 0.05876 0.81187 0.43777 0.0
Nd121 Nd 0.02307 0.82199 0.43793 0.0
C122 C 0.09403 0.8133 0.42169 0.0
C123 C 0.10181 0.80091 0.36868 0.0
C124 C 0.11935 0.81032 0.29975 0.0
C125 C 0.12713 0.79891 0.24979 0.0
C126 C 0.11756 0.77793 0.26906 0.0
C127 C 0.0998 0.76842 0.33607 0.0
C128 C 0.09192 0.77979 0.38523 0.0
C129 C 0.02201 0.77599 0.44418 0.0
C130 C 0.03866 0.8155 0.19025 0.0
C131 C 0.9897 0.82374 0.46566 0.0
C132 C 0.97095 0.82466 0.48139 0.0
C133 C 0.95389 0.80849 0.53414 0.0
C134 C 0.9362 0.80945 0.55099 0.0
C135 C 0.93514 0.82642 0.51339 0.0
C136 C 0.95211 0.8425 0.45927 0.0
C137 C 0.96997 0.84172 0.44467 0.0
C138 C 0.06202 0.85443 0.40933 0.0
C139 C 0.04104 0.81707 0.6869 0.0
O140 O 0.0884 0.82286 0.3503 0.0
O141 O 0.08181 0.8055 0.51049 0.0
O142 O 0.03941 0.77685 0.43787 0.0
O143 O 0.02498 0.79376 0.43714 0.0
O144 O 0.05455 0.81674 0.24427 0.0
O145 O 0.02302 0.81451 0.24612 0.0
O146 O 0.9894 0.80678 0.44209 0.0
O147 O 1.00776 0.83978 0.47404 0.0
O148 O 0.04612 0.85279 0.35802 0.0
O149 O 0.05683 0.83975 0.47783 0.0
O150 O 0.02625 0.81776 0.63153 0.0
O151 O 0.05639 0.81705 0.63253 0.0
H152 H 0.12709 0.82654 0.28503 0.0
H153 H 0.14076 0.80644 0.19753 0.0
H154 H 0.09213 0.75221 0.35098 0.0
H155 H 0.0782 0.77207 0.4366 0.0
H156 H 0.95433 0.79522 0.56351 0.0
H157 H 0.92324 0.79687 0.59251 0.0
H158 H 0.95154 0.85565 0.42903 0.0
H159 H 0.98293 0.85435 0.40346 0.0
Nd160 Nd 0.25547 0.27265 0.44554 0.0
Nd161 Nd 0.24512 0.2243 0.44967 0.0
C162 C 0.25342 0.30601 0.42517 0.0
C163 C 0.26601 0.32591 0.36918 0.0
C164 C 0.25687 0.33381 0.29682 0.0
C165 C 0.26858 0.35267 0.24312 0.0
C166 C 0.28957 0.36389 0.2618 0.0
C167 C 0.29879 0.35591 0.33252 0.0
C168 C 0.28714 0.33701 0.38536 0.0
C169 C 0.2901 0.2696 0.44992 0.0
C170 C 0.25051 0.24832 0.20008 0.0
C171 C 0.25068 0.19277 0.44234 0.0
C172 C 0.24784 0.17302 0.48133 0.0
C173 C 0.26453 0.16996 0.47555 0.0
C174 C 0.26217 0.15083 0.49671 0.0
C175 C 0.24307 0.13437 0.52515 0.0
C176 C 0.22643 0.1375 0.5352 0.0
C177 C 0.22876 0.15669 0.51275 0.0
C178 C 0.21063 0.22863 0.46226 0.0
C179 C 0.24888 0.24743 0.69572 0.0
O180 O 0.24387 0.2905 0.35567 0.0
O181 O 0.26112 0.30199 0.51579 0.0
O182 O 0.2904 0.28681 0.44886 0.0
O183 O 0.27198 0.25574 0.43477 0.0
O184 O 0.25159 0.26426 0.25284 0.0
O185 O 0.24978 0.23267 0.25538 0.0
O186 O 0.26248 0.20922 0.50147 0.0
O187 O 0.23574 0.1933 0.38925 0.0
O188 O 0.20983 0.21109 0.46596 0.0
O189 O 0.22905 0.24176 0.4555 0.0
O190 O 0.24789 0.23152 0.64277 0.0
O191 O 0.2499 0.2633 0.64036 0.0
H192 H 0.24065 0.32542 0.28236 0.0
H193 H 0.26127 0.35867 0.18877 0.0
H194 H 0.315 0.36441 0.34754 0.0
H195 H 0.29466 0.33118 0.43929 0.0
H196 H 0.27933 0.18228 0.45057 0.0
H197 H 0.27516 0.14873 0.4882 0.0
H198 H 0.21155 0.12495 0.55659 0.0
H199 H 0.21562 0.15862 0.51702 0.0
Nd200 Nd 0.79628 0.01096 0.46027 0.0
Nd201 Nd 0.84033 0.04319 0.45469 0.0
C202 C 0.76004 0.97806 0.43641 0.0
C203 C 0.74094 0.97023 0.37114 0.0
C204 C 0.72838 0.94921 0.35799 0.0
C205 C 0.70901 0.94121 0.31002 0.0
C206 C 0.70193 0.95415 0.27402 0.0
C207 C 0.71484 0.97524 0.28271 0.0
C208 C 0.73422 0.98325 0.33068 0.0
C209 C 0.80205 0.04921 0.48829 0.0
C210 C 0.81893 0.02812 0.2065 0.0
C211 C 0.87746 0.07511 0.46579 0.0
C212 C 0.89472 0.09428 0.50972 0.0
C213 C 0.89477 0.11276 0.5035 0.0
C214 C 0.91259 0.13118 0.52547 0.0
C215 C 0.93063 0.13141 0.55372 0.0
C216 C 0.93041 0.11296 0.564 0.0
C217 C 0.91265 0.09459 0.54214 0.0
C218 C 0.83306 1.0039 0.43456 0.0
C219 C 0.81799 0.02648 0.70419 0.0
O220 O 0.77616 0.98075 0.3806 0.0
O221 O 0.76404 0.99244 0.51079 0.0
O222 O 0.78764 0.03309 0.53642 0.0
O223 O 0.81194 0.04476 0.41779 0.0
O224 O 0.80273 0.01449 0.26331 0.0
O225 O 0.8352 0.042 0.25996 0.0
O226 O 0.86232 0.07535 0.41444 0.0
O227 O 0.87248 0.05772 0.51438 0.0
O228 O 0.847 0.01918 0.37752 0.0
O229 O 0.82429 0.00976 0.50342 0.0
O230 O 0.83151 0.04269 0.64681 0.0
O231 O 0.80464 0.01 0.64912 0.0
H232 H 0.73327 0.93893 0.389 0.0
H233 H 0.69922 0.92492 0.3053 0.0
H234 H 0.70958 0.98547 0.2565 0.0
H235 H 0.74364 0.99952 0.34003 0.0
H236 H 0.88128 0.11307 0.4775 0.0
H237 H 0.91248 0.14528 0.51677 0.0
H238 H 0.94418 0.11283 0.58525 0.0
H239 H 0.91318 0.08065 0.54576 0.0
Nd240 Nd 0.71424 0.5699 0.91238 0.0
Nd241 Nd 0.67975 0.58196 0.91286 0.0
C242 C 0.74669 0.56565 0.90035 0.0
C243 C 0.76614 0.56797 0.8566 0.0
C244 C 0.78473 0.58601 0.87367 0.0
C245 C 0.80321 0.58677 0.85045 0.0
C246 C 0.80347 0.56952 0.81022 0.0
C247 C 0.78497 0.55172 0.78972 0.0
C248 C 0.76652 0.55094 0.81278 0.0
C249 C 0.67442 0.5385 0.93659 0.0
C250 C 0.6979 0.57687 0.66421 0.0
C251 C 0.64483 0.58152 0.92546 0.0
C252 C 0.63731 0.59397 0.98024 0.0
C253 C 0.61638 0.58674 0.98625 0.0
C254 C 0.60908 0.59887 0.03253 0.0
C255 C 0.62265 0.61837 0.07382 0.0
C256 C 0.64358 0.62539 0.07045 0.0
C257 C 0.65086 0.61326 0.02431 0.0
C258 C 0.71705 0.61702 0.90761 0.0
C259 C 0.69872 0.57707 0.16044 0.0
O260 O 0.74652 0.58082 0.95267 0.0
O261 O 0.72941 0.55297 0.85153 0.0
O262 O 0.68981 0.53885 0.98684 0.0
O263 O 0.6806 0.55366 0.87144 0.0
O264 O 0.71292 0.5766 0.71998 0.0
O265 O 0.68229 0.57644 0.71852 0.0
O266 O 0.6497 0.57113 0.99523 0.0
O267 O 0.65787 0.5901 0.84089 0.0
O268 O 0.69993 0.61669 0.91511 0.0
O269 O 0.7138 0.59909 0.91271 0.0
O270 O 0.68335 0.57696 0.10668 0.0
O271 O 0.71379 0.57696 0.10459 0.0
H272 H 0.78504 0.59932 0.90881 0.0
H273 H 0.81732 0.60064 0.86716 0.0
H274 H 0.78483 0.53822 0.75906 0.0
H275 H 0.75253 0.53673 0.80062 0.0
H276 H 0.6057 0.57187 0.95296 0.0
H277 H 0.59291 0.59329 0.03328 0.0
H278 H 0.65429 0.64047 0.10085 0.0
H279 H 0.66707 0.6191 0.0209 0.0
Nd280 Nd 0.49505 0.16842 0.90955 0.0
Nd281 Nd 0.48208 0.12173 0.90642 0.0
C282 C 0.49877 0.20484 0.90059 0.0
C283 C 0.49685 0.2223 0.85978 0.0
C284 C 0.47868 0.22268 0.87391 0.0
C285 C 0.47811 0.24053 0.85289 0.0
C286 C 0.49569 0.25832 0.81787 0.0
C287 C 0.51367 0.25781 0.80056 0.0
C288 C 0.51425 0.24001 0.82145 0.0
C289 C 0.52639 0.16034 0.93432 0.0
C290 C 0.48876 0.1453 0.65971 0.0
C291 C 0.4832 0.0877 0.92228 0.0
C292 C 0.47132 0.06794 0.98068 0.0
C293 C 0.47868 0.05436 0.98403 0.0
C294 C 0.46687 0.03497 0.03178 0.0
C295 C 0.44755 0.02895 0.07708 0.0
C296 C 0.44043 0.04277 0.07662 0.0
C297 C 0.45224 0.06215 0.02905 0.0
C298 C 0.44738 0.12453 0.89646 0.0
C299 C 0.48698 0.14469 0.1566 0.0
O300 O 0.48328 0.18912 0.94906 0.0
O301 O 0.51197 0.20074 0.85333 0.0
O302 O 0.52586 0.17532 0.98416 0.0
O303 O 0.51118 0.15097 0.86939 0.0
O304 O 0.49101 0.16149 0.71532 0.0
O305 O 0.48699 0.12913 0.71343 0.0
O306 O 0.49391 0.10343 0.98868 0.0
O307 O 0.47393 0.09146 0.83906 0.0
O308 O 0.44737 0.10751 0.90012 0.0
O309 O 0.46543 0.13909 0.90437 0.0
O310 O 0.48291 0.12802 0.10045 0.0
O311 O 0.491 0.16165 0.10343 0.0
H312 H 0.46507 0.20941 0.90479 0.0
H313 H 0.46409 0.24063 0.86683 0.0
H314 H 0.5274 0.27138 0.77376 0.0
H315 H 0.52856 0.24032 0.8117 0.0
H316 H 0.49335 0.05857 0.94709 0.0
H317 H 0.4725 0.02444 0.03019 0.0
H318 H 0.42547 0.03831 0.11007 0.0
H319 H 0.4463 0.07243 0.0274 0.0
Nd320 Nd 0.89734 0.35147 0.90122 0.0
Nd321 Nd 0.94147 0.38289 0.89514 0.0
C322 C 0.85991 0.32001 0.89063 0.0
C323 C 0.84245 0.30069 0.84972 0.0
C324 C 0.84231 0.28219 0.85873 0.0
C325 C 0.82443 0.26373 0.83855 0.0
C326 C 0.80641 0.26345 0.80916 0.0
C327 C 0.8067 0.28191 0.79652 0.0
C328 C 0.82452 0.30033 0.81683 0.0
C329 C 0.90541 0.39117 0.92019 0.0
C330 C 0.91964 0.36744 0.65183 0.0
C331 C 0.97817 0.41516 0.91748 0.0
C332 C 0.99679 0.42287 0.98684 0.0
C333 C 1.00897 0.44385 1.00384 0.0
C334 C 0.02796 0.45183 0.05654 0.0
C335 C 0.03497 0.43889 0.09328 0.0
C336 C 0.02239 0.41782 0.08121 0.0
C337 C 1.00339 0.40984 0.02864 0.0
C338 C 0.9349 0.34438 0.86594 0.0
C339 C 0.91873 0.366 0.14936 0.0
O340 O 0.87475 0.31974 0.94534 0.0
O341 O 0.86534 0.33718 0.83786 0.0
O342 O 0.89133 0.37605 0.97762 0.0
O343 O 0.91396 0.38497 0.85181 0.0
O344 O 0.90615 0.35131 0.70981 0.0
O345 O 0.93297 0.38398 0.70651 0.0
O346 O 0.96208 0.41348 0.96835 0.0
O347 O 0.97398 0.4001 0.84784 0.0
O348 O 0.94927 0.36036 0.81655 0.0
O349 O 0.92532 0.34905 0.93766 0.0
O350 O 0.93505 0.37947 0.09255 0.0
O351 O 0.90234 0.35242 0.09571 0.0
H352 H 0.8558 0.2819 0.88503 0.0
H353 H 0.82453 0.24965 0.84861 0.0
H354 H 0.79297 0.28202 0.77391 0.0
H355 H 0.82408 0.31429 0.81105 0.0
H356 H 1.00412 0.45413 0.97223 0.0
H357 H 0.03754 0.46811 0.06409 0.0
H358 H 0.02765 0.40763 0.10818 0.0
H359 H 0.99421 0.39359 0.01683 0.0
Nd360 Nd 0.72365 0.14439 0.77429 0.0
Nd361 Nd 0.68987 0.15707 0.77378 0.0
C362 C 0.75822 0.14431 0.76133 0.0
C363 C 0.76575 0.13185 0.70597 0.0
C364 C 0.78363 0.14134 0.63979 0.0
C365 C 0.79127 0.12989 0.58857 0.0
C366 C 0.78121 0.10879 0.60371 0.0
C367 C 0.76312 0.09922 0.6678 0.0
C368 C 0.75539 0.11063 0.71826 0.0
C369 C 0.68617 0.10954 0.78128 0.0
C370 C 0.70495 0.14938 0.52615 0.0
C371 C 0.65797 0.16213 0.78419 0.0
C372 C 0.63871 0.16028 0.82639 0.0
C373 C 0.62062 0.14144 0.83273 0.0
C374 C 0.60206 0.14053 0.85585 0.0
C375 C 0.60132 0.15842 0.87197 0.0
C376 C 0.61941 0.17714 0.86855 0.0
C377 C 0.63791 0.17806 0.84615 0.0
C378 C 0.7299 0.18808 0.74856 0.0
C379 C 0.7058 0.14986 0.02251 0.0
O380 O 0.75367 0.15502 0.6921 0.0
O381 O 0.74532 0.13607 0.84691 0.0
O382 O 0.7032 0.10967 0.77318 0.0
O383 O 0.68958 0.12752 0.77504 0.0
O384 O 0.72023 0.14937 0.58013 0.0
O385 O 0.68999 0.14969 0.58196 0.0
O386 O 0.65776 0.14666 0.73352 0.0
O387 O 0.6753 0.17468 0.83297 0.0
O388 O 0.71464 0.18778 0.69708 0.0
O389 O 0.72346 0.17305 0.81497 0.0
O390 O 0.69095 0.1504 0.96648 0.0
O391 O 0.72129 0.15002 0.9684 0.0
H392 H 0.79176 0.15765 0.62842 0.0
H393 H 0.80518 0.13749 0.53871 0.0
H394 H 0.75508 0.08292 0.67963 0.0
H395 H 0.74142 0.10285 0.7675 0.0
H396 H 0.6207 0.12749 0.81664 0.0
H397 H 0.58824 0.12594 0.85812 0.0
H398 H 0.61914 0.1911 0.88077 0.0
H399 H 0.65155 0.19277 0.84011 0.0
Nd400 Nd 0.92243 0.60525 0.77823 0.0
Nd401 Nd 0.90953 0.55879 0.77545 0.0
C402 C 0.9223 0.6398 0.76363 0.0
C403 C 0.93475 0.65952 0.7063 0.0
C404 C 0.92818 0.67374 0.705 0.0
C405 C 0.94045 0.69301 0.65689 0.0
C406 C 0.95942 0.69824 0.60926 0.0
C407 C 0.96573 0.68379 0.60763 0.0
C408 C 0.95345 0.66452 0.65551 0.0
C409 C 0.95735 0.6024 0.77877 0.0
C410 C 0.91749 0.58212 0.52853 0.0
C411 C 0.90439 0.52179 0.78482 0.0
C412 C 0.90614 0.50413 0.82331 0.0
C413 C 0.9239 0.50321 0.80285 0.0
C414 C 0.92416 0.48516 0.82199 0.0
C415 C 0.90669 0.46771 0.8617 0.0
C416 C 0.88916 0.46876 0.88529 0.0
C417 C 0.88887 0.48676 0.86599 0.0
C418 C 0.87849 0.56759 0.74891 0.0
C419 C 0.91629 0.58202 0.02496 0.0
O420 O 0.91157 0.62432 0.6958 0.0
O421 O 0.93106 0.63555 0.84763 0.0
O422 O 0.95723 0.61933 0.77574 0.0
O423 O 0.93926 0.58789 0.7763 0.0
O424 O 0.9177 0.59737 0.58408 0.0
O425 O 0.9167 0.56651 0.5831 0.0
O426 O 0.91958 0.53695 0.73104 0.0
O427 O 0.89224 0.52673 0.83748 0.0
O428 O 0.87884 0.5525 0.69969 0.0
O429 O 0.89339 0.57629 0.81607 0.0
O430 O 0.91588 0.56667 0.96882 0.0
O431 O 0.91633 0.5974 0.97138 0.0
H432 H 0.91377 0.6701 0.74352 0.0
H433 H 0.93545 0.70404 0.65991 0.0
H434 H 0.98041 0.68764 0.57219 0.0
H435 H 0.95873 0.6537 0.65523 0.0
H436 H 0.93739 0.51621 0.76859 0.0
H437 H 0.93785 0.48467 0.80338 0.0
H438 H 0.87554 0.45547 0.91596 0.0
H439 H 0.87488 0.48687 0.88065 0.0
Nd440 Nd 0.46045 0.34191 0.7811 0.0
Nd441 Nd 0.50734 0.37526 0.77988 0.0
C442 C 0.42571 0.30729 0.76755 0.0
C443 C 0.40593 0.29949 0.71047 0.0
C444 C 0.39255 0.27851 0.70477 0.0
C445 C 0.37317 0.27086 0.6576 0.0
C446 C 0.36698 0.28415 0.61507 0.0
C447 C 0.38061 0.30515 0.61764 0.0
C448 C 0.39999 0.31278 0.66473 0.0
C449 C 0.46432 0.3801 0.77742 0.0
C450 C 0.48451 0.36043 0.53227 0.0
C451 C 0.54475 0.40652 0.79098 0.0
C452 C 0.56211 0.42596 0.83116 0.0
C453 C 0.56235 0.44445 0.81889 0.0
C454 C 0.58018 0.46292 0.83949 0.0
C455 C 0.59806 0.4632 0.87239 0.0
C456 C 0.59768 0.44476 0.888 0.0
C457 C 0.57989 0.42633 0.86742 0.0
C458 C 0.49774 0.33514 0.75536 0.0
C459 C 0.4832 0.3593 0.02863 0.0
O460 O 0.44126 0.31185 0.70014 0.0
O461 O 0.42986 0.32061 0.84972 0.0
O462 O 0.44711 0.36325 0.7773 0.0
O463 O 0.47839 0.37595 0.77702 0.0
O464 O 0.46891 0.34539 0.58669 0.0
O465 O 0.50005 0.37513 0.58755 0.0
O466 O 0.53023 0.40666 0.73129 0.0
O467 O 0.53897 0.38962 0.84792 0.0
O468 O 0.51301 0.35033 0.70482 0.0
O469 O 0.48918 0.34168 0.82134 0.0
O470 O 0.49861 0.37434 0.97246 0.0
O471 O 0.46801 0.34382 0.97477 0.0
H472 H 0.39692 0.26804 0.73938 0.0
H473 H 0.36279 0.25465 0.65752 0.0
H474 H 0.37602 0.31564 0.58629 0.0
H475 H 0.41013 0.32903 0.66793 0.0
H476 H 0.54897 0.44471 0.78996 0.0
H477 H 0.58018 0.47701 0.82713 0.0
H478 H 0.6113 0.44465 0.91334 0.0
H479 H 0.58026 0.41236 0.8758 0.0
Nd480 Nd 0.38467 0.90635 0.24692 0.0
Nd481 Nd 0.3472 0.91746 0.25081 0.0
C482 C 0.42149 0.9109 0.25247 0.0
C483 C 0.43791 0.90678 0.2175 0.0
C484 C 0.45582 0.92249 0.16814 0.0
C485 C 0.47279 0.92021 0.1506 0.0
C486 C 0.47225 0.90215 0.18211 0.0
C487 C 0.45422 0.8862 0.22868 0.0
C488 C 0.43723 0.8885 0.24658 0.0
C489 C 0.34552 0.87216 0.23977 0.0
C490 C 0.36544 0.9104 1.00066 0.0
C491 C 0.31217 0.91633 0.27076 0.0
C492 C 0.30506 0.92912 0.32705 0.0
C493 C 0.28989 0.92071 0.41251 0.0
C494 C 0.28293 0.93254 0.4664 0.0
C495 C 0.29098 0.95294 0.43516 0.0
C496 C 0.30625 0.96145 0.35078 0.0
C497 C 0.31331 0.94969 0.29745 0.0
C498 C 0.38516 0.95193 0.24585 0.0
C499 C 0.36663 0.91269 0.49598 0.0
O500 O 0.41672 0.92176 0.18527 0.0
O501 O 0.40629 0.89754 0.3155 0.0
O502 O 0.3621 0.87107 0.23635 0.0
O503 O 0.35105 0.89066 0.24275 0.0
O504 O 0.38024 0.90919 0.05358 0.0
O505 O 0.35063 0.91154 0.05621 0.0
O506 O 0.31765 0.9063 0.33982 0.0
O507 O 0.32407 0.92393 0.18032 0.0
O508 O 0.36831 0.95232 0.25036 0.0
O509 O 0.38081 0.9337 0.25587 0.0
O510 O 0.35151 0.91329 0.44343 0.0
O511 O 0.38168 0.91225 0.44024 0.0
H512 H 0.45695 0.93686 0.14662 0.0
H513 H 0.48652 0.9327 0.11459 0.0
H514 H 0.45345 0.87213 0.2535 0.0
H515 H 0.42381 0.87618 0.28611 0.0
H516 H 0.28336 0.90494 0.43718 0.0
H517 H 0.27108 0.92574 0.53112 0.0
H518 H 0.31259 0.97718 0.32559 0.0
H519 H 0.32514 0.95671 0.23277 0.0
Nd520 Nd 0.16121 0.50229 0.26421 0.0
Nd521 Nd 0.1492 0.45622 0.26141 0.0
C522 C 0.1652 0.53877 0.25356 0.0
C523 C 0.1638 0.55657 0.21448 0.0
C524 C 0.14547 0.55684 0.21975 0.0
C525 C 0.14521 0.57484 0.19816 0.0
C526 C 0.16327 0.59285 0.172 0.0
C527 C 0.18146 0.59249 0.16435 0.0
C528 C 0.18172 0.57454 0.1853 0.0
C529 C 0.19312 0.49504 0.28951 0.0
C530 C 0.15503 0.47929 0.01451 0.0
C531 C 0.15052 0.42241 0.28048 0.0
C532 C 0.13814 0.40267 0.33877 0.0
C533 C 0.14762 0.39289 0.39004 0.0
C534 C 0.13601 0.37369 0.44041 0.0
C535 C 0.11475 0.36401 0.43964 0.0
C536 C 0.10527 0.37403 0.39157 0.0
C537 C 0.11686 0.39326 0.34207 0.0
C538 C 0.11386 0.45769 0.25181 0.0
C539 C 0.15315 0.47881 0.51144 0.0
O540 O 0.14956 0.52317 0.30186 0.0
O541 O 0.17831 0.53452 0.20676 0.0
O542 O 0.19201 0.50956 0.34098 0.0
O543 O 0.17807 0.48557 0.22371 0.0
O544 O 0.15643 0.49511 0.07026 0.0
O545 O 0.15409 0.4635 0.06826 0.0
O546 O 0.16099 0.43814 0.34735 0.0
O547 O 0.14205 0.42631 0.19333 0.0
O548 O 0.11453 0.44105 0.25677 0.0
O549 O 0.13165 0.47278 0.25885 0.0
O550 O 0.1497 0.46236 0.45521 0.0
O551 O 0.15686 0.49565 0.45807 0.0
H552 H 0.13146 0.54332 0.24342 0.0
H553 H 0.13103 0.57486 0.20448 0.0
H554 H 0.19554 0.60622 0.14427 0.0
H555 H 0.19611 0.57489 0.18241 0.0
H556 H 0.164 0.39993 0.38909 0.0
H557 H 0.14354 0.3661 0.47668 0.0
H558 H 0.08887 0.36674 0.39005 0.0
H559 H 0.10916 0.40057 0.30436 0.0
Nd560 Nd 0.56411 0.6821 0.24047 0.0
Nd561 Nd 0.61269 0.71947 0.24393 0.0
C562 C 0.53205 0.64523 0.24473 0.0
C563 C 0.512 0.62886 0.20443 0.0
C564 C 0.51034 0.61074 0.16326 0.0
C565 C 0.49132 0.59366 0.14368 0.0
C566 C 0.47355 0.59438 0.16469 0.0
C567 C 0.47509 0.61266 0.20139 0.0
C568 C 0.49416 0.62977 0.22144 0.0
C569 C 0.5691 0.72121 0.22995 0.0
C570 C 0.58762 0.70133 0.99398 0.0
C571 C 0.64622 0.75471 0.26625 0.0
C572 C 0.66566 0.76197 0.32653 0.0
C573 C 0.67488 0.78092 0.38134 0.0
C574 C 0.69364 0.78832 0.43592 0.0
C575 C 0.70342 0.77686 0.43587 0.0
C576 C 0.69389 0.75761 0.38471 0.0
C577 C 0.67509 0.75015 0.33082 0.0
C578 C 0.60905 0.68148 0.23969 0.0
C579 C 0.58825 0.69994 0.48961 0.0
O580 O 0.54831 0.64998 0.18292 0.0
O581 O 0.53318 0.66047 0.30384 0.0
O582 O 0.55142 0.70462 0.22582 0.0
O583 O 0.58203 0.71566 0.23541 0.0
O584 O 0.57151 0.68661 0.04727 0.0
O585 O 0.60362 0.71605 0.04907 0.0
O586 O 0.63028 0.74906 0.33242 0.0
O587 O 0.64271 0.74269 0.17758 0.0
O588 O 0.62638 0.69829 0.24285 0.0
O589 O 0.59526 0.68595 0.25059 0.0
O590 O 0.60426 0.71478 0.43672 0.0
O591 O 0.57251 0.68519 0.43438 0.0
H592 H 0.52378 0.60949 0.15114 0.0
H593 H 0.49043 0.57966 0.11621 0.0
H594 H 0.46151 0.61343 0.21887 0.0
H595 H 0.49488 0.64341 0.25435 0.0
H596 H 0.66773 0.79013 0.38014 0.0
H597 H 0.70085 0.80324 0.47473 0.0
H598 H 0.70128 0.74861 0.38371 0.0
H599 H 0.66812 0.73534 0.2908 0.0
Nd600 Nd 0.39106 0.47576 0.13241 0.0
Nd601 Nd 0.35451 0.48813 0.13673 0.0
C602 C 0.42572 0.47588 0.11599 0.0
C603 C 0.43318 0.46357 0.05755 0.0
C604 C 0.4518 0.47328 0.99823 0.0
C605 C 0.45919 0.46194 0.94273 0.0
C606 C 0.44812 0.44067 0.94628 0.0
C607 C 0.4294 0.43091 1.00448 0.0
C608 C 0.42196 0.44224 0.05943 0.0
C609 C 0.35245 0.44201 0.12365 0.0
C610 C 0.37241 0.48185 0.88793 0.0
C611 C 0.31782 0.48379 0.13592 0.0
C612 C 0.30154 0.48762 0.17677 0.0
C613 C 0.28396 0.47158 0.22691 0.0
C614 C 0.26699 0.47357 0.24997 0.0
C615 C 0.26723 0.49165 0.22344 0.0
C616 C 0.28496 0.50795 0.17654 0.0
C617 C 0.30195 0.50593 0.15291 0.0
C618 C 0.39355 0.5218 0.14999 0.0
C619 C 0.37352 0.4831 0.38293 0.0
O620 O 0.42113 0.4869 0.0493 0.0
O621 O 0.41287 0.46732 0.20163 0.0
O622 O 0.36891 0.44091 0.12011 0.0
O623 O 0.35752 0.46047 0.12423 0.0
O624 O 0.38792 0.48203 0.94094 0.0
O625 O 0.35699 0.48144 0.94425 0.0
O626 O 0.32261 0.47246 0.19864 0.0
O627 O 0.33298 0.49759 0.07429 0.0
O628 O 0.37718 0.52324 0.14664 0.0
O629 O 0.38816 0.50329 0.14557 0.0
O630 O 0.35965 0.48599 0.33066 0.0
O631 O 0.38734 0.4804 0.32717 0.0
H632 H 0.46063 0.48968 0.99483 0.0
H633 H 0.47354 0.46973 0.89717 0.0
H634 H 0.42055 0.41451 1.00712 0.0
H635 H 0.40744 0.43432 0.10326 0.0
H636 H 0.28306 0.45719 0.24453 0.0
H637 H 0.25348 0.46082 0.28603 0.0
H638 H 0.28545 0.52203 0.15551 0.0
H639 H 0.31514 0.51849 0.11298 0.0
Nd640 Nd 0.58867 0.93963 0.10891 0.0
Nd641 Nd 0.57964 0.89207 0.11291 0.0
C642 C 0.58588 0.97271 0.08845 0.0
C643 C 0.59821 0.99264 0.03298 0.0
C644 C 0.59161 1.00683 0.03405 0.0
C645 C 0.60393 0.02632 0.98852 0.0
C646 C 0.623 0.03179 0.94131 0.0
C647 C 0.62939 0.01741 0.93791 0.0
C648 C 0.61707 0.99796 0.98326 0.0
C649 C 0.62354 0.93729 0.12166 0.0
C650 C 0.58493 0.91624 0.86295 0.0
C651 C 0.58524 0.86039 0.10959 0.0
C652 C 0.58042 0.83979 0.14903 0.0
C653 C 0.59434 0.83762 0.2185 0.0
C654 C 0.59195 0.81842 0.24023 0.0
C655 C 0.57561 0.80093 0.19263 0.0
C656 C 0.56129 0.80291 0.12639 0.0
C657 C 0.56367 0.82213 0.1046 0.0
C658 C 0.54424 0.89413 0.13313 0.0
C659 C 0.58256 0.91537 0.35835 0.0
O660 O 0.57659 0.9571 0.01933 0.0
O661 O 0.59427 0.9691 0.17697 0.0
O662 O 0.62326 0.95415 0.13077 0.0
O663 O 0.60629 0.92367 0.08627 0.0
O664 O 0.58721 0.9326 0.91624 0.0
O665 O 0.58298 0.9 0.91775 0.0
O666 O 0.5955 0.87611 0.17733 0.0
O667 O 0.57233 0.86214 0.04254 0.0
O668 O 0.5443 0.87707 0.1326 0.0
O669 O 0.56226 0.90837 0.12333 0.0
O670 O 0.58188 0.89956 0.30593 0.0
O671 O 0.58338 0.93096 0.30175 0.0
H672 H 0.57714 1.003 0.07248 0.0
H673 H 0.59889 0.0373 0.99316 0.0
H674 H 0.64416 0.02146 0.90307 0.0
H675 H 0.62245 0.98721 0.98203 0.0
H676 H 0.60758 0.85086 0.25243 0.0
H677 H 0.60322 0.81726 0.29122 0.0
H678 H 0.54861 0.78963 0.08848 0.0
H679 H 0.55278 0.82317 0.04945 0.0
Nd680 Nd 0.13059 0.67927 0.13576 0.0
Nd681 Nd 0.17508 0.70991 0.12522 0.0
C682 C 0.09358 0.64756 0.11173 0.0
C683 C 0.0745 0.64035 0.04532 0.0
C684 C 0.06866 0.62488 0.96286 0.0
C685 C 0.04979 0.61662 0.90788 0.0
C686 C 0.03636 0.62358 0.93521 0.0
C687 C 0.04225 0.63926 0.01573 0.0
C688 C 0.06112 0.64758 0.07024 0.0
C689 C 0.13836 0.71819 0.16398 0.0
C690 C 0.15204 0.69511 0.87994 0.0
C691 C 0.21257 0.74133 0.13018 0.0
C692 C 0.23099 0.76032 0.16544 0.0
C693 C 0.23013 0.7771 0.20881 0.0
C694 C 0.24809 0.7955 0.22998 0.0
C695 C 0.26717 0.79751 0.20648 0.0
C696 C 0.26793 0.78061 0.16466 0.0
C697 C 0.25005 0.76222 0.14491 0.0
C698 C 0.1666 0.6702 0.10684 0.0
C699 C 0.15292 0.69391 0.37768 0.0
O700 O 0.10949 0.64915 0.05811 0.0
O701 O 0.09828 0.66208 0.18641 0.0
O702 O 0.12394 0.70251 0.2157 0.0
O703 O 0.14742 0.71299 0.09177 0.0
O704 O 0.13532 0.68388 0.93963 0.0
O705 O 0.1695 0.70703 0.93062 0.0
O706 O 0.19718 0.7421 0.08614 0.0
O707 O 0.20772 0.72385 0.17699 0.0
O708 O 0.18061 0.68521 0.04824 0.0
O709 O 0.15807 0.67651 0.17534 0.0
O710 O 0.16738 0.70943 0.31952 0.0
O711 O 0.13839 0.67812 0.32358 0.0
H712 H 0.07853 0.61888 0.94248 0.0
H713 H 0.04552 0.60459 0.84547 0.0
H714 H 0.03213 0.6449 0.03732 0.0
H715 H 0.065 0.6594 0.13352 0.0
H716 H 0.21563 0.7761 0.2245 0.0
H717 H 0.24711 0.80831 0.26249 0.0
H718 H 0.2824 0.78174 0.1459 0.0
H719 H 0.25111 0.74957 0.11038 0.0
C720 C 0.09618 0.32684 0.39838 0.0
C721 C 0.10218 0.34268 0.4796 0.0
C722 C 0.08108 0.31784 0.62734 0.0
C723 C 0.07238 0.30269 0.54122 0.0
N724 N 0.07104 0.29298 0.34235 0.0
N725 N 0.10065 0.3538 0.67175 0.0
C726 C 0.08007 0.30714 0.42653 0.0
C727 C 0.0949 0.33831 0.59482 0.0
N728 N 0.10573 0.33069 0.2936 0.0
N729 N 0.07622 0.31249 0.74028 0.0
H730 H 0.11126 0.36881 0.65148 0.0
H731 H 0.09419 0.35201 0.75326 0.0
H732 H 0.06678 0.29744 0.76513 0.0
H733 H 0.08302 0.32237 0.80905 0.0
H734 H 0.10359 0.31938 0.23546 0.0
H735 H 0.11715 0.34509 0.26845 0.0
H736 H 0.07393 0.29592 0.25454 0.0
H737 H 0.05953 0.27846 0.36078 0.0
C738 C 0.74854 0.78389 0.61232 0.0
C739 C 0.76476 0.79708 0.53864 0.0
C740 C 0.74083 0.7994 0.40729 0.0
C741 C 0.72454 0.78571 0.47868 0.0
N742 N 0.7127 0.76846 0.66064 0.0
N743 N 0.77691 0.8217 0.38568 0.0
C744 C 0.72837 0.77918 0.58552 0.0
C745 C 0.76103 0.80635 0.44315 0.0
N746 N 0.75238 0.77514 0.70447 0.0
N747 N 0.73702 0.80468 0.30131 0.0
H748 H 0.79176 0.82632 0.40743 0.0
H749 H 0.77539 0.83074 0.32367 0.0
H750 H 0.72246 0.80007 0.27131 0.0
H751 H 0.7482 0.81241 0.23916 0.0
H752 H 0.74113 0.76353 0.75394 0.0
H753 H 0.76707 0.77908 0.72895 0.0
H754 H 0.71458 0.76465 0.74409 0.0
H755 H 0.69782 0.76472 0.64232 0.0
C756 C 0.26373 0.98293 0.45672 0.0
C757 C 0.2727 0.9947 0.55742 0.0
C758 C 0.29139 0.97655 0.58864 0.0
C759 C 0.28288 0.96537 0.48621 0.0
N760 N 0.25709 0.95381 0.34012 0.0
N761 N 0.29001 0.9984 0.73647 0.0
C762 C 0.26768 0.96716 0.42643 0.0
C763 C 0.28488 0.99003 0.62903 0.0
N764 N 0.25257 0.98767 0.38535 0.0
N765 N 0.30626 0.97489 0.64462 0.0
H766 H 0.28484 1.00779 0.76862 0.0
H767 H 0.29745 0.99445 0.79736 0.0
H768 H 0.31091 0.96471 0.6193 0.0
H769 H 0.31478 0.98437 0.7118 0.0
H770 H 0.24821 0.98191 0.30239 0.0
H771 H 0.2485 0.99821 0.40819 0.0
H772 H 0.24437 0.95292 0.30125 0.0
H773 H 0.25993 0.94236 0.3141 0.0
C774 C 0.39698 0.12333 0.8905 0.0
C775 C 0.39109 0.11751 0.77434 0.0
C776 C 0.42349 0.11929 0.7344 0.0
C777 C 0.42972 0.12555 0.84993 0.0
N778 N 0.42431 0.13751 0.03061 0.0
N779 N 0.40079 0.11566 0.57875 0.0
C780 C 0.41709 0.12901 0.92538 0.0
C781 C 0.40507 0.1174 0.69405 0.0
N782 N 0.38308 0.1225 0.96841 0.0
N783 N 0.43464 0.11413 0.66435 0.0
H784 H 0.38736 0.11417 0.54607 0.0
H785 H 0.41135 0.11772 0.51513 0.0
H786 H 0.44852 0.11578 0.68843 0.0
H787 H 0.42954 0.10705 0.5848 0.0
H788 H 0.38567 0.12435 0.05685 0.0
H789 H 0.36836 0.11865 0.94528 0.0
H790 H 0.41663 0.14203 0.08682 0.0
H791 H 0.43894 0.14168 0.05656 0.0
C792 C 0.92384 0.30999 0.78863 0.0
C793 C 0.93587 0.32544 0.86788 0.0
C794 C 0.95766 0.31053 0.89345 0.0
C795 C 0.94799 0.29761 0.79797 0.0
N796 N 0.92228 0.28544 0.65017 0.0
N797 N 0.96362 0.34032 1.00165 0.0
C798 C 0.93093 0.29716 0.7455 0.0
C799 C 0.95243 0.32546 0.92352 0.0
N800 N 0.90572 0.30778 0.75426 0.0
N801 N 0.97171 0.30838 0.95537 0.0
H802 H 0.95932 0.35061 0.03043 0.0
H803 H 0.97741 0.34293 0.03474 0.0
H804 H 0.97579 0.29754 0.93529 0.0
H805 H 0.97808 0.31608 0.03182 0.0
H806 H 0.89534 0.29585 0.70333 0.0
H807 H 0.90024 0.31684 0.78743 0.0
H808 H 0.91136 0.28626 0.60031 0.0
H809 H 0.92703 0.27589 0.61551 0.0
C810 C 0.7493 0.66173 0.71147 0.0
C811 C 0.76506 0.67421 0.78838 0.0
C812 C 0.75293 0.64584 0.92563 0.0
C813 C 0.73526 0.63482 0.8581 0.0
N814 N 0.71607 0.6324 0.68687 0.0
N815 N 0.78198 0.67878 0.9705 0.0
C816 C 0.73338 0.64275 0.75059 0.0
C817 C 0.76709 0.66637 0.8956 0.0
N818 N 0.74981 0.66782 0.59987 0.0
N819 N 0.75606 0.63669 0.01827 0.0
H820 H 0.79264 0.69378 0.95058 0.0
H821 H 0.78299 0.67468 0.05483 0.0
H822 H 0.74605 0.62158 0.03959 0.0
H823 H 0.76933 0.64331 0.0666 0.0
H824 H 0.74 0.6584 0.53621 0.0
H825 H 0.76129 0.68165 0.56773 0.0
H826 H 0.71258 0.63874 0.61723 0.0
H827 H 0.70481 0.6176 0.7055 0.0
C828 C 1.00603 0.75068 0.60425 0.0
C829 C 1.00396 0.75822 0.4958 0.0
C830 C 0.97152 0.72694 0.46469 0.0
C831 C 0.97372 0.71948 0.57281 0.0
N832 N 0.98987 0.7263 0.75876 0.0
N833 N 0.98269 0.75606 0.33733 0.0
C834 C 0.99001 0.73201 0.64669 0.0
C835 C 0.98594 0.74718 0.43089 0.0
N836 N 0.02352 0.76119 0.66626 0.0
N837 N 0.95616 0.71442 0.39256 0.0
H838 H 0.99287 0.77096 0.31301 0.0
H839 H 0.96919 0.74948 0.29109 0.0
H840 H 0.94526 0.69964 0.41532 0.0
H841 H 0.95495 0.71814 0.30768 0.0
H842 H 0.02716 0.75509 0.73645 0.0
H843 H 0.03476 0.77592 0.64599 0.0
H844 H 1.00006 0.73582 0.8207 0.0
H845 H 0.97838 0.71269 0.7931 0.0
C846 C 0.31404 0.27684 0.61439 0.0
C847 C 0.30674 0.26772 0.5047 0.0
C848 C 0.33818 0.26695 0.47183 0.0
C849 C 0.34552 0.27641 0.58043 0.0
N850 N 0.33814 0.28446 0.76886 0.0
N851 N 0.30906 0.24888 0.34535 0.0
C852 C 0.33267 0.27944 0.65615 0.0
C853 C 0.31788 0.26094 0.43899 0.0
N854 N 0.30348 0.28365 0.67758 0.0
N855 N 0.35087 0.26457 0.3982 0.0
H856 H 0.29403 0.24387 0.32309 0.0
H857 H 0.31577 0.24219 0.29787 0.0
H858 H 0.3657 0.26865 0.42008 0.0
H859 H 0.34717 0.2598 0.31312 0.0
H860 H 0.30941 0.29301 0.74932 0.0
H861 H 0.28893 0.28047 0.6562 0.0
H862 H 0.32842 0.28467 0.83151 0.0
H863 H 0.35171 0.28647 0.80261 0.0
C864 C 0.80668 0.09687 0.60656 0.0
C865 C 0.78965 0.09651 0.55436 0.0
C866 C 0.78456 0.06818 0.43131 0.0
C867 C 0.80113 0.06815 0.48653 0.0
N868 N 0.83157 0.08588 0.59794 0.0
N869 N 0.76572 0.08567 0.39802 0.0
C870 C 0.81347 0.08377 0.56417 0.0
C871 C 0.7797 0.08341 0.46004 0.0
N872 N 0.81555 0.10872 0.70114 0.0
N873 N 0.77305 0.05313 0.35486 0.0
H874 H 0.76192 0.09674 0.41716 0.0
H875 H 0.75916 0.07781 0.32226 0.0
H876 H 0.77701 0.04254 0.32725 0.0
H877 H 0.75927 0.05065 0.32224 0.0
H878 H 0.82643 0.10782 0.75092 0.0
H879 H 0.811 0.11847 0.73541 0.0
H880 H 0.84217 0.09796 0.64724 0.0
H881 H 0.8368 0.07654 0.56607 0.0
C882 C 0.64784 0.94392 0.28338 0.0
C883 C 0.64045 0.93527 0.17272 0.0
C884 C 0.67289 0.93679 0.13176 0.0
C885 C 0.68023 0.94575 0.24147 0.0
N886 N 0.67262 0.95183 0.43417 0.0
N887 N 0.64362 0.91813 1.00716 0.0
C888 C 0.667 0.94735 0.32124 0.0
C889 C 0.65222 0.92984 0.10216 0.0
N890 N 0.63686 0.9496 0.35135 0.0
N891 N 0.68588 0.93574 0.05428 0.0
H892 H 0.62832 0.91221 0.9884 0.0
H893 H 0.65086 0.91248 0.95549 0.0
H894 H 0.70099 0.94053 0.07373 0.0
H895 H 0.68212 0.93139 0.96868 0.0
H896 H 0.64271 0.9587 0.42412 0.0
H897 H 0.62204 0.94582 0.33284 0.0
H898 H 0.66276 0.951 0.49913 0.0
H899 H 0.68656 0.95443 0.46533 0.0
C900 C 0.11576 0.75199 0.1291 0.0
C901 C 0.12608 0.7657 0.22043 0.0
C902 C 0.15016 0.7533 0.231 0.0
C903 C 0.13746 0.7371 0.1576 0.0
N904 N 0.10896 0.72121 0.02917 0.0
N905 N 0.15282 0.77921 0.36237 0.0
C906 C 0.12066 0.73671 0.10274 0.0
C907 C 0.14349 0.76662 0.27103 0.0
N908 N 0.10139 0.75371 0.06782 0.0
N909 N 0.16845 0.75571 0.26325 0.0
H910 H 0.14838 0.78915 0.39483 0.0
H911 H 0.16403 0.77878 0.41138 0.0
H912 H 0.17338 0.74589 0.23519 0.0
H913 H 0.1793 0.76821 0.3088 0.0
H914 H 0.09447 0.74533 0.99406 0.0
H915 H 0.09758 0.76483 0.08531 0.0
H916 H 0.09503 0.71843 0.9974 0.0
H917 H 0.11299 0.71059 1.00284 0.0
C918 C 0.32598 0.40722 0.06611 0.0
C919 C 0.33195 0.42384 0.14183 0.0
C920 C 0.30506 0.40148 0.27748 0.0
C921 C 0.30201 0.38451 0.21211 0.0
N922 N 0.30909 0.37067 0.04334 0.0
N923 N 0.32695 0.43686 0.32082 0.0
C924 C 0.31214 0.38722 0.10519 0.0
C925 C 0.32108 0.42108 0.24666 0.0
N926 N 0.33347 0.41074 0.95618 0.0
N927 N 0.29273 0.39881 0.3698 0.0
H928 H 0.33768 0.45144 0.29786 0.0
H929 H 0.32192 0.43538 0.40578 0.0
H930 H 0.28123 0.38458 0.39681 0.0
H931 H 0.29272 0.41072 0.41371 0.0
H932 H 0.32867 0.39961 0.8929 0.0
H933 H 0.343 0.42539 0.92532 0.0
H934 H 0.31775 0.37151 0.97172 0.0
H935 H 0.2985 0.35587 0.06754 0.0
C936 C 0.07023 0.44649 0.05061 0.0
C937 C 0.05645 0.44733 0.12947 0.0
C938 C 0.08334 0.46193 0.27573 0.0
C939 C 0.09583 0.45774 0.20349 0.0
N940 N 0.10047 0.44431 0.02411 0.0
N941 N 0.04926 0.4553 0.31852 0.0
C942 C 0.08915 0.44971 0.09105 0.0
C943 C 0.0629 0.45517 0.24222 0.0
N944 N 0.06534 0.4429 0.93629 0.0
N945 N 0.091 0.47211 0.37661 0.0
H946 H 0.03431 0.45067 0.29605 0.0
H947 H 0.05233 0.45879 0.40558 0.0
H948 H 0.10588 0.47709 0.40183 0.0
H949 H 0.08335 0.47712 0.42959 0.0
H950 H 0.07568 0.44436 0.87264 0.0
H951 H 0.05156 0.44043 0.90321 0.0
H952 H 0.09509 0.43583 0.94878 0.0
H953 H 0.11497 0.44742 0.04638 0.0
C954 C 0.60601 0.63049 0.21852 0.0
C955 C 0.61529 0.63239 0.10916 0.0
C956 C 0.61627 0.66457 0.07566 0.0
C957 C 0.60721 0.6629 0.18573 0.0
N958 N 0.58832 0.64192 0.34614 0.0
N959 N 0.62343 0.64778 0.92049 0.0
C960 C 0.60029 0.64498 0.25183 0.0
C961 C 0.61853 0.64834 0.03352 0.0
N962 N 0.60351 0.61542 0.29235 0.0
N963 N 0.62331 0.68197 1.01237 0.0
H964 H 0.62519 0.63607 0.8865 0.0
H965 H 0.62378 0.65777 0.85798 0.0
H966 H 0.62042 0.69353 0.03422 0.0
H967 H 0.6326 0.68525 0.94007 0.0
H968 H 0.59889 0.6145 0.37781 0.0
H969 H 0.60738 0.60451 0.27021 0.0
H970 H 0.58154 0.62855 0.39404 0.0
H971 H 0.58348 0.65207 0.36858 0.0
C972 C 0.43588 1.00025 0.22195 0.0
C973 C 0.43374 1.00753 0.113 0.0
C974 C 0.40173 0.97604 0.08118 0.0
C975 C 0.40362 0.96878 0.19098 0.0
N976 N 0.42473 0.97127 0.35058 0.0
N977 N 0.41808 1.00014 0.92558 0.0
C978 C 0.42154 0.97999 0.25617 0.0
C979 C 0.41775 0.99467 0.03834 0.0
N980 N 0.45104 0.01297 0.2945 0.0
N981 N 0.38429 0.96545 0.01897 0.0
H982 H 0.42959 0.01372 0.89112 0.0
H983 H 0.40808 0.99042 0.86355 0.0
H984 H 0.37289 0.95091 0.04128 0.0
H985 H 0.3808 0.97134 0.94718 0.0
H986 H 0.45217 0.00935 0.37975 0.0
H987 H 0.46187 0.02775 0.27147 0.0
H988 H 0.43812 0.97801 0.3979 0.0
H989 H 0.41465 0.95628 0.37401 0.0
C990 C 0.6698 0.08407 0.94002 0.0
C991 C 0.66789 0.09194 0.8323 0.0
C992 C 0.6353 0.06093 0.79937 0.0
C993 C 0.63732 0.05316 0.90689 0.0
N994 N 0.65334 0.05944 0.09301 0.0
N995 N 0.64694 0.09031 0.67344 0.0
C996 C 0.65361 0.06542 0.98141 0.0
C997 C 0.64992 0.08119 0.76675 0.0
N998 N 0.68734 0.09419 1.00203 0.0
N999 N 0.61993 0.04867 0.72655 0.0
H1000 H 0.65733 0.10519 0.64959 0.0
H1001 H 0.6335 0.08396 0.62672 0.0
H1002 H 0.6089 0.0339 0.74844 0.0
H1003 H 0.61883 0.0526 0.64197 0.0
H1004 H 0.69081 0.08781 0.07154 0.0
H1005 H 0.6988 0.10885 0.98224 0.0
H1006 H 0.66357 0.06876 0.15541 0.0
H1007 H 0.64171 0.04583 0.12654 0.0
C1008 C 0.99901 0.59773 0.93197 0.0
C1009 C 0.01601 0.61459 0.87989 0.0
C1010 C 0.99381 0.61602 0.73207 0.0
C1011 C 0.97655 0.60182 0.79565 0.0
N1012 N 0.96237 0.57674 0.94632 0.0
N1013 N 0.03003 0.63977 0.72933 0.0
C1014 C 0.97905 0.59167 0.89164 0.0
C1015 C 0.01356 0.62354 0.77854 0.0
N1016 N 1.00205 0.5875 0.01946 0.0
N1017 N 0.99113 0.62193 0.62552 0.0
H1018 H 0.04481 0.64519 0.75829 0.0
H1019 H 0.029 0.64859 0.66398 0.0
H1020 H 0.97679 0.61587 0.5887 0.0
H1021 H 1.00294 0.63094 0.56927 0.0
H1022 H 0.99067 0.57404 0.05518 0.0
H1023 H 0.01639 0.59182 0.05213 0.0
H1024 H 0.96261 0.57097 0.02729 0.0
H1025 H 0.94815 0.56982 0.90828 0.0
C1026 C 0.44637 0.41823 0.78256 0.0
C1027 C 0.45573 0.42843 0.88637 0.0
C1028 C 0.47813 0.41389 0.87875 0.0
C1029 C 0.46566 0.40025 0.7921 0.0
N1030 N 0.44009 0.39145 0.64676 0.0
N1031 N 0.48045 0.43592 0.036 0.0
C1032 C 0.45059 0.40326 0.73863 0.0
C1033 C 0.47184 0.42651 0.93431 0.0
N1034 N 0.43367 0.42309 0.72566 0.0
N1035 N 0.49606 0.41505 0.90677 0.0
H1036 H 0.4763 0.44529 0.07928 0.0
H1037 H 0.49064 0.43327 0.08179 0.0
H1038 H 0.50162 0.40698 0.86264 0.0
H1039 H 0.50652 0.42578 0.96333 0.0
H1040 H 0.42762 0.41756 0.64458 0.0
H1041 H 0.43039 0.43404 0.7557 0.0
H1042 H 0.42712 0.39073 0.61271 0.0
H1043 H 0.44429 0.38194 0.60543 0.0
C1044 C 0.15571 0.21569 0.42431 0.0
C1045 C 0.15531 0.23189 0.48176 0.0
C1046 C 0.19226 0.24847 0.51283 0.0
C1047 C 0.19247 0.23167 0.45881 0.0
N1048 N 0.17588 0.2043 0.32241 0.0
N1049 N 0.17279 0.26428 0.57611 0.0
C1050 C 0.17459 0.21668 0.40313 0.0
C1051 C 0.17355 0.24853 0.52397 0.0
N1052 N 0.13792 0.19885 0.39379 0.0
N1053 N 0.20994 0.26471 0.54945 0.0
H1054 H 0.1598 0.26558 0.57714 0.0
H1055 H 0.18465 0.27602 0.62072 0.0
H1056 H 0.22387 0.2658 0.53926 0.0
H1057 H 0.21141 0.27795 0.5839 0.0
H1058 H 0.13711 0.18555 0.36444 0.0
H1059 H 0.12373 0.19744 0.40744 0.0
H1060 H 0.16375 0.19443 0.27083 0.0
H1061 H 0.18965 0.20583 0.29543 0.0
C1062 C 0.82302 0.9688 0.3664 0.0
C1063 C 0.83301 0.98449 0.44852 0.0
C1064 C 0.84079 0.96231 0.56456 0.0
C1065 C 0.83245 0.94728 0.47708 0.0
N1066 N 0.81906 0.93774 0.28469 0.0
N1067 N 0.85493 0.99774 0.61398 0.0
C1068 C 0.82456 0.95098 0.37494 0.0
C1069 C 0.84296 0.98171 0.54418 0.0
N1070 N 0.81146 0.97058 0.28245 0.0
N1071 N 0.84581 0.95779 0.66918 0.0
H1072 H 0.85684 0.01218 0.60226 0.0
H1073 H 0.86424 0.99715 0.67765 0.0
H1074 H 0.84421 0.94369 0.68843 0.0
H1075 H 0.84978 0.96737 0.74029 0.0
H1076 H 0.80207 0.95878 0.22755 0.0
H1077 H 0.80986 0.98333 0.27436 0.0
H1078 H 0.81515 0.94065 0.20378 0.0
H1079 H 0.82023 0.92468 0.28719 0.0
C1080 C 0.09711 0.88046 0.34318 0.0
C1081 C 0.08088 0.87442 0.42249 0.0
C1082 C 0.0978 0.90905 0.49931 0.0
C1083 C 0.11577 0.91364 0.4376 0.0
N1084 N 0.12366 0.90913 0.24246 0.0
N1085 N 0.06605 0.88312 0.58112 0.0
C1086 C 0.11322 0.90089 0.34228 0.0
C1087 C 0.0813 0.88876 0.50218 0.0
N1088 N 0.09742 0.86676 0.269 0.0
N1089 N 0.09491 0.92443 0.53584 0.0
H1090 H 0.05351 0.86852 0.58523 0.0
H1091 H 0.06682 0.8926 0.64816 0.0
H1092 H 0.10492 0.93946 0.51258 0.0
H1093 H 0.08135 0.92205 0.57217 0.0
H1094 H 0.10995 0.87008 0.2174 0.0
H1095 H 0.08583 0.85173 0.26643 0.0
H1096 H 0.12107 0.90085 0.16662 0.0
H1097 H 0.13253 0.92481 0.23155 0.0
C1098 C 0.24634 0.10795 0.64016 0.0
C1099 C 0.24049 0.11367 0.53686 0.0
C1100 C 0.23318 0.08151 0.44735 0.0
C1101 C 0.23705 0.07488 0.55374 0.0
N1102 N 0.2463 0.08115 0.75422 0.0
N1103 N 0.22667 0.10539 0.34467 0.0
C1104 C 0.24352 0.08801 0.65079 0.0
C1105 C 0.23335 0.10025 0.44137 0.0
N1106 N 0.25483 0.1217 0.72758 0.0
N1107 N 0.23051 0.07037 0.35016 0.0
H1108 H 0.22756 0.1194 0.33391 0.0
H1109 H 0.21897 0.09529 0.27805 0.0
H1110 H 0.23136 0.05721 0.35172 0.0
H1111 H 0.2297 0.07517 0.26725 0.0
H1112 H 0.26165 0.11951 0.7995 0.0
H1113 H 0.25612 0.13599 0.7253 0.0
H1114 H 0.24862 0.08885 0.8318 0.0
H1115 H 0.24516 0.06703 0.76386 0.0
C1116 C 0.96449 0.15765 0.47375 0.0
C1117 C 0.95015 0.15096 0.56539 0.0
C1118 C 0.97341 0.18103 0.67843 0.0
C1119 C 0.98835 0.18675 0.59067 0.0
N1120 N 0.9996 0.17846 0.41508 0.0
N1121 N 0.94158 0.15475 0.76036 0.0
C1122 C 0.98427 0.17452 0.49092 0.0
C1123 C 0.95475 0.16229 0.66919 0.0
N1124 N 0.95903 0.1481 0.36925 0.0
N1125 N 0.97693 0.19367 0.7698 0.0
H1126 H 0.92769 0.14128 0.756 0.0
H1127 H 0.94494 0.16102 0.84265 0.0
H1128 H 0.9907 0.207 0.78168 0.0
H1129 H 0.96588 0.19168 0.82975 0.0
H1130 H 0.968 0.1536 0.29539 0.0
H1131 H 0.94474 0.13561 0.3535 0.0
H1132 H 0.99817 0.16897 0.34683 0.0
H1133 H 0.01441 0.19023 0.42714 0.0
C1134 C 0.89863 0.81356 0.46406 0.0
C1135 C 0.91598 0.82701 0.52867 0.0
C1136 C 0.89639 0.84065 0.62388 0.0
C1137 C 0.87922 0.82757 0.5559 0.0
N1138 N 0.86223 0.79595 0.45102 0.0
N1139 N 0.93192 0.8534 0.67079 0.0
C1140 C 0.87976 0.81235 0.48756 0.0
C1141 C 0.91499 0.84055 0.60922 0.0
N1142 N 0.90032 0.80249 0.37636 0.0
N1143 N 0.89429 0.85187 0.70928 0.0
H1144 H 0.9452 0.85263 0.66905 0.0
H1145 H 0.93329 0.86532 0.72087 0.0
H1146 H 0.8804 0.85065 0.73009 0.0
H1147 H 0.90558 0.86094 0.76738 0.0
H1148 H 0.88877 0.79434 0.31726 0.0
H1149 H 0.9139 0.80304 0.35502 0.0
H1150 H 0.86169 0.78363 0.40884 0.0
H1151 H 0.84813 0.79298 0.47938 0.0
C1152 C 0.84624 0.55785 0.85811 0.0
C1153 C 0.85934 0.56822 0.76386 0.0
C1154 C 0.83523 0.57854 0.69549 0.0
C1155 C 0.82306 0.56964 0.79522 0.0
N1156 N 0.81862 0.55375 0.98126 0.0
N1157 N 0.86735 0.58977 0.59699 0.0
C1158 C 0.82907 0.56015 0.87941 0.0
C1159 C 0.85412 0.57897 0.68375 0.0
N1160 N 0.84969 0.54506 0.92442 0.0
N1161 N 0.82834 0.58591 0.61005 0.0
H1162 H 0.88068 0.58946 0.58212 0.0
H1163 H 0.86576 0.59991 0.54398 0.0
H1164 H 0.81476 0.58607 0.6164 0.0
H1165 H 0.83527 0.59057 0.52961 0.0
H1166 H 0.83961 0.53547 0.987 0.0
H1167 H 0.86173 0.54252 0.90931 0.0
H1168 H 0.82355 0.54881 0.05124 0.0
H1169 H 0.8059 0.55503 0.99983 0.0
C1170 C 0.50661 0.31245 0.86869 0.0
C1171 C 0.49666 0.31524 0.7729 0.0
C1172 C 0.48689 0.28105 0.70347 0.0
C1173 C 0.49557 0.27775 0.80341 0.0
N1174 N 0.51051 0.28882 0.99144 0.0
N1175 N 0.47446 0.30114 0.60958 0.0
C1176 C 0.50453 0.29305 0.88904 0.0
C1177 C 0.48596 0.29922 0.69328 0.0
N1178 N 0.5186 0.32852 0.93835 0.0
N1179 N 0.48012 0.26711 0.6164 0.0
H1180 H 0.47356 0.31423 0.59937 0.0
H1181 H 0.46453 0.28927 0.55673 0.0
H1182 H 0.48035 0.25356 0.62124 0.0
H1183 H 0.47577 0.26963 0.53587 0.0
H1184 H 0.52806 0.32807 1.00147 0.0
H1185 H 0.52028 0.34288 0.92776 0.0
H1186 H 0.51502 0.29849 0.0623 0.0
H1187 H 0.50931 0.27485 1.00933 0.0
C1188 C 0.75234 0.2198 0.86153 0.0
C1189 C 0.74971 0.20707 0.76583 0.0
C1190 C 0.78385 0.23177 0.69566 0.0
C1191 C 0.787 0.24381 0.79516 0.0
N1192 N 0.7758 0.24748 0.98373 0.0
N1193 N 0.76448 0.19887 0.6056 0.0
C1194 C 0.77166 0.2373 0.8813 0.0
C1195 C 0.76591 0.21247 0.68684 0.0
N1196 N 0.73623 0.21544 0.93208 0.0
N1197 N 0.7977 0.23906 0.60761 0.0
H1198 H 0.7517 0.18458 0.59773 0.0
H1199 H 0.77655 0.20096 0.55354 0.0
H1200 H 0.81105 0.25307 0.61096 0.0
H1201 H 0.79517 0.23204 0.52749 0.0
H1202 H 0.73653 0.22529 0.99528 0.0
H1203 H 0.72197 0.20259 0.92223 0.0
H1204 H 0.76611 0.24225 0.05483 0.0
H1205 H 0.78974 0.26031 1.00145 0.0
C1206 C 0.91701 0.44555 0.96961 0.0
C1207 C 0.90656 0.44815 0.87596 0.0
C1208 C 0.89407 0.41285 0.8167 0.0
C1209 C 0.90585 0.4108 0.90479 0.0
N1210 N 0.93123 0.42623 0.05262 0.0
N1211 N 0.88807 0.43558 0.69819 0.0
C1212 C 0.9181 0.42747 0.97766 0.0
C1213 C 0.89588 0.43214 0.79605 0.0
N1214 N 0.92531 0.46008 0.05324 0.0
N1215 N 0.88078 0.39624 0.75446 0.0
H1216 H 0.88913 0.44948 0.67991 0.0
H1217 H 0.88212 0.42529 0.63044 0.0
H1218 H 0.8793 0.38197 0.76537 0.0
H1219 H 0.87016 0.39621 0.69798 0.0
H1220 H 0.93112 0.4581 0.13023 0.0
H1221 H 0.92487 0.47354 0.05032 0.0
H1222 H 0.94222 0.43855 0.09873 0.0
H1223 H 0.93223 0.41318 0.06162 0.0
C1224 C 0.63292 0.48934 0.80214 0.0
C1225 C 0.61743 0.48281 0.88732 0.0
C1226 C 0.63837 0.51401 0.99704 0.0
C1227 C 0.65469 0.51946 0.91884 0.0
N1228 N 0.66842 0.51128 0.75295 0.0
N1229 N 0.60637 0.48743 0.07407 0.0
C1230 C 0.65221 0.50683 0.82288 0.0
C1231 C 0.62041 0.49476 0.98702 0.0
N1232 N 0.62897 0.47917 0.69973 0.0
N1233 N 0.63973 0.52752 0.07868 0.0
H1234 H 0.59296 0.47348 0.06963 0.0
H1235 H 0.60874 0.49435 0.15441 0.0
H1236 H 0.65254 0.54175 0.08758 0.0
H1237 H 0.62759 0.52541 0.13014 0.0
H1238 H 0.63877 0.48441 0.62912 0.0
H1239 H 0.61506 0.46632 0.68152 0.0
H1240 H 0.66823 0.50152 0.68958 0.0
H1241 H 0.68264 0.52417 0.76339 0.0
C1242 C 0.57092 0.15885 0.79145 0.0
C1243 C 0.58161 0.15786 0.88891 0.0
C1244 C 0.55609 0.15845 0.01726 0.0
C1245 C 0.54577 0.16009 0.9194 0.0
N1246 N 0.54758 0.16891 0.71803 0.0
N1247 N 0.58607 0.15908 0.09477 0.0
C1248 C 0.55424 0.1621 0.80749 0.0
C1249 C 0.57463 0.15828 1.00204 0.0
N1250 N 0.57669 0.15669 0.68305 0.0
N1251 N 0.5481 0.15698 0.12485 0.0
H1252 H 0.59922 0.15814 0.08693 0.0
H1253 H 0.58328 0.16176 0.17896 0.0
H1254 H 0.53574 0.15899 0.14021 0.0
H1255 H 0.55315 0.15308 0.19855 0.0
H1256 H 0.56806 0.15494 0.60983 0.0
H1257 H 0.58922 0.15495 0.66721 0.0
H1258 H 0.55463 0.17275 0.63748 0.0
H1259 H 0.5364 0.17288 0.72734 0.0
C1260 C 0.51813 0.89645 0.25608 0.0
C1261 C 0.52571 0.89605 0.14485 0.0
C1262 C 0.49686 0.89732 0.0574 0.0
C1263 C 0.49073 0.9001 0.16866 0.0
N1264 N 0.49734 0.90538 0.37278 0.0
N1265 N 0.52203 0.895 0.9387 0.0
C1266 C 0.50186 0.90048 0.2677 0.0
C1267 C 0.51501 0.89626 0.04511 0.0
N1268 N 0.52581 0.89196 0.35071 0.0
N1269 N 0.48483 0.89487 0.96435 0.0
H1270 H 0.53408 0.89232 0.92756 0.0
H1271 H 0.51649 0.89723 0.86151 0.0
H1272 H 0.47146 0.89543 0.97049 0.0
H1273 H 0.48719 0.89096 0.88219 0.0
H1274 H 0.51936 0.88968 0.43264 0.0
H1275 H 0.53769 0.88891 0.34583 0.0
H1276 H 0.50636 0.90814 0.44549 0.0
H1277 H 0.48557 0.90845 0.38515 0.0
C1278 C 0.17058 0.64529 0.23163 0.0
C1279 C 0.16641 0.65063 0.12193 0.0
C1280 C 0.16169 0.61858 0.04218 0.0
C1281 C 0.16346 0.61235 0.15493 0.0
N1282 N 0.16716 0.61861 0.35975 0.0
N1283 N 0.15872 0.64294 0.9207 0.0
C1284 C 0.16712 0.62535 0.25049 0.0
C1285 C 0.16226 0.63744 0.02643 0.0
N1286 N 0.17944 0.65974 0.31518 0.0
N1287 N 0.16002 0.60666 0.94994 0.0
H1288 H 0.16096 0.65734 0.90395 0.0
H1289 H 0.15301 0.63318 0.85055 0.0
H1290 H 0.15881 0.59246 0.95876 0.0
H1291 H 0.16094 0.61114 0.86433 0.0
H1292 H 0.18482 0.65733 0.3926 0.0
H1293 H 0.18329 0.67482 0.3028 0.0
H1294 H 0.1674 0.62653 0.43353 0.0
H1295 H 0.16528 0.60433 0.37703 0.0
C1296 C 0.44183 0.57038 0.05559 0.0
C1297 C 0.45339 0.57544 0.1584 0.0
C1298 C 0.4274 0.54374 0.24825 0.0
C1299 C 0.41483 0.53947 0.14958 0.0
N1300 N 0.40955 0.54931 0.96089 0.0
N1301 N 0.45651 0.56835 0.35745 0.0
C1302 C 0.42194 0.553 0.05366 0.0
C1303 C 0.44602 0.56244 0.25583 0.0
N1304 N 0.45013 0.58198 0.95896 0.0
N1305 N 0.42161 0.52986 0.3351 0.0
H1306 H 0.47044 0.58166 0.36601 0.0
H1307 H 0.45079 0.56093 0.43573 0.0
H1308 H 0.40768 0.51669 0.33548 0.0
H1309 H 0.43102 0.53067 0.40226 0.0
H1310 H 0.4436 0.57803 0.87751 0.0
H1311 H 0.4644 0.59504 0.95842 0.0
H1312 H 0.41262 0.55965 0.89441 0.0
H1313 H 0.39556 0.53613 0.95295 0.0
C1314 C 0.58853 0.75862 0.16783 0.0
C1315 C 0.57261 0.74262 0.23277 0.0
C1316 C 0.56033 0.76617 0.28556 0.0
C1317 C 0.5743 0.78073 0.20652 0.0
N1318 N 0.59963 0.78953 0.05845 0.0
N1319 N 0.54438 0.73206 0.36425 0.0
C1320 C 0.58781 0.77658 0.144 0.0
C1321 C 0.55875 0.74668 0.29432 0.0
N1322 N 0.60491 0.75732 0.13248 0.0
N1323 N 0.54917 0.77133 0.35573 0.0
H1324 H 0.54489 0.71923 0.39024 0.0
H1325 H 0.53188 0.73257 0.39658 0.0
H1326 H 0.54987 0.78534 0.3509 0.0
H1327 H 0.54025 0.76244 0.42401 0.0
H1328 H 0.61782 0.7694 0.09581 0.0
H1329 H 0.60684 0.7452 0.15231 0.0
H1330 H 0.6079 0.78606 1.00032 0.0
H1331 H 0.59967 0.80289 0.03816 0.0
C1332 C 0.32004 0.83708 0.31458 0.0
C1333 C 0.32415 0.8543 0.24621 0.0
C1334 C 0.29071 0.83436 0.15451 0.0
C1335 C 0.28645 0.81731 0.22369 0.0
N1336 N 0.29505 0.80386 0.38821 0.0
N1337 N 0.30936 0.87073 0.13673 0.0
C1338 C 0.30059 0.81907 0.30904 0.0
C1339 C 0.30827 0.85343 0.17733 0.0
N1340 N 0.33457 0.83805 0.38742 0.0
N1341 N 0.27849 0.83226 0.0632 0.0
H1342 H 0.32106 0.88503 0.15765 0.0
H1343 H 0.29737 0.87096 0.09508 0.0
H1344 H 0.26568 0.81853 0.04171 0.0
H1345 H 0.28222 0.84365 1.00211 0.0
H1346 H 0.33391 0.82535 0.42548 0.0
H1347 H 0.34753 0.85162 0.40903 0.0
H1348 H 0.30372 0.80491 0.45987 0.0
H1349 H 0.28084 0.79073 0.38824 0.0
C1350 C 0.24217 0.4944 0.35489 0.0
C1351 C 0.24862 0.49323 0.24145 0.0
C1352 C 0.22113 0.49741 0.16197 0.0
C1353 C 0.2128 0.49542 0.27414 0.0
N1354 N 0.21556 0.49245 0.47941 0.0
N1355 N 0.24226 0.49039 0.03646 0.0
C1356 C 0.22344 0.49412 0.37134 0.0
C1357 C 0.23754 0.49382 0.14482 0.0
N1358 N 0.25436 0.49658 0.44655 0.0
N1359 N 0.21445 0.50426 0.07293 0.0
H1360 H 0.25408 0.48756 0.01982 0.0
H1361 H 0.23325 0.4885 0.96479 0.0
H1362 H 0.20339 0.50839 0.08309 0.0
H1363 H 0.22143 0.50797 0.99214 0.0
H1364 H 0.25168 0.49964 0.53018 0.0
H1365 H 0.26818 0.49697 0.43764 0.0
H1366 H 0.22094 0.48867 0.55226 0.0
H1367 H 0.20295 0.49399 0.49569 0.0
C1368 C 0.02982 0.25834 0.1353 0.0
C1369 C 0.03022 0.24224 0.19562 0.0
C1370 C 0.03032 0.2266 1.00984 0.0
C1371 C 0.03168 0.2435 0.94974 0.0
N1372 N 0.0354 0.27681 0.95551 0.0
N1373 N 0.0337 0.21241 0.18948 0.0
C1374 C 0.03203 0.25968 1.01261 0.0
C1375 C 0.03146 0.22688 0.13255 0.0
N1376 N 0.02743 0.27249 0.19489 0.0
N1377 N 0.02665 0.20964 0.95016 0.0
H1378 H 0.03325 0.21105 0.2788 0.0
H1379 H 0.03743 0.20257 0.14831 0.0
H1380 H 0.0252 0.20856 0.86096 0.0
H1381 H 0.02301 0.19593 0.98939 0.0
H1382 H 0.02425 0.28287 0.15559 0.0
H1383 H 0.02749 0.27331 0.28456 0.0
H1384 H 0.03855 0.29021 0.99664 0.0
H1385 H 0.03662 0.27825 0.86608 0.0
C1386 C 0.84132 0.81776 0.12682 0.0
C1387 C 0.82356 0.8129 0.1912 0.0
C1388 C 0.80504 0.80917 1.01065 0.0
C1389 C 0.82236 0.81274 0.94598 0.0
N1390 N 0.85627 0.81795 0.9406 0.0
N1391 N 0.78738 0.79917 0.19425 0.0
C1392 C 0.84031 0.81628 1.00368 0.0
C1393 C 0.8051 0.80733 0.13301 0.0
N1394 N 0.85925 0.82427 0.18341 0.0
N1395 N 0.78857 0.80778 0.95524 0.0
H1396 H 0.78676 0.79651 0.28272 0.0
H1397 H 0.77314 0.79309 0.15633 0.0
H1398 H 0.78781 0.8086 0.86571 0.0
H1399 H 0.77639 0.80745 0.99825 0.0
H1400 H 0.87321 0.83006 0.14201 0.0
H1401 H 0.86041 0.82516 0.27313 0.0
H1402 H 0.86897 0.8184 0.9769 0.0
H1403 H 0.85625 0.81751 0.85063 0.0
C1404 C 0.23463 0.03199 0.13066 0.0
C1405 C 0.25145 0.03453 0.19746 0.0
C1406 C 0.26936 0.03525 0.01719 0.0
C1407 C 0.25296 0.03378 0.95101 0.0
N1408 N 0.22193 0.035 0.94477 0.0
N1409 N 0.28242 0.03318 0.20476 0.0
C1410 C 0.23608 0.03314 1.00784 0.0
C1411 C 0.26831 0.03496 0.14065 0.0
N1412 N 0.21679 0.0276 0.1833 0.0
N1413 N 0.28607 0.03705 0.9619 0.0
H1414 H 0.28172 0.03177 0.29432 0.0
H1415 H 0.29384 0.0311 0.1699 0.0
H1416 H 0.28679 0.03553 0.87302 0.0
H1417 H 0.29972 0.04109 1.00265 0.0
H1418 H 0.20329 0.02274 0.13865 0.0
H1419 H 0.21464 0.02691 0.27202 0.0
H1420 H 0.21101 0.0377 0.98143 0.0
H1421 H 0.22216 0.03585 0.85505 0.0
C1422 C 0.05524 0.83342 0.87959 0.0
C1423 C 0.04035 0.81668 0.81578 0.0
C1424 C 0.02483 0.79874 0.9977 0.0
C1425 C 0.03884 0.81601 0.0612 0.0
N1426 N 0.06393 0.85151 0.06134 0.0
N1427 N 1.00837 0.78509 0.81476 0.0
C1428 C 0.0532 0.83381 1.00179 0.0
C1429 C 0.02431 0.79988 0.87504 0.0
N1430 N 0.07114 0.8492 0.82358 0.0
N1431 N 1.01257 0.78094 0.05414 0.0
H1432 H 1.00749 0.78491 0.72513 0.0
H1433 H 0.99522 0.77378 0.85392 0.0
H1434 H 0.01278 0.77948 0.14343 0.0
H1435 H 1.0036 0.76722 1.01208 0.0
H1436 H 0.08373 0.86056 0.8662 0.0
H1437 H 0.07239 0.85037 0.73397 0.0
H1438 H 0.07334 0.86548 0.02236 0.0
H1439 H 0.0616 0.85263 0.14892 0.0
C1440 C 0.26616 0.24838 1.00766 0.0
C1441 C 0.25001 0.24801 0.071 0.0
C1442 C 0.23355 0.24835 0.88856 0.0
C1443 C 0.24914 0.24749 0.82514 0.0
N1444 N 0.27883 0.24366 0.82539 0.0
N1445 N 0.21698 0.24498 0.07375 0.0
C1446 C 0.26493 0.24649 0.8851 0.0
C1447 C 0.2334 0.24744 1.0119 0.0
N1448 N 0.28329 0.25173 0.0643 0.0
N1449 N 0.21861 0.24963 0.83076 0.0
H1450 H 0.21618 0.24397 0.16355 0.0
H1451 H 0.20346 0.24239 0.03682 0.0
H1452 H 0.21676 0.24792 0.74173 0.0
H1453 H 0.20843 0.25311 0.87002 0.0
H1454 H 0.29658 0.2545 0.02286 0.0
H1455 H 0.28495 0.25373 0.15327 0.0
H1456 H 0.28892 0.24008 0.86465 0.0
H1457 H 0.27962 0.2436 0.73579 0.0
C1458 C 0.82572 0.01626 0.01764 0.0
C1459 C 0.81881 0.02788 0.07793 0.0
C1460 C 0.81255 0.03965 0.89303 0.0
C1461 C 0.81796 0.02675 0.83298 0.0
N1462 N 0.82696 1.00057 0.83823 0.0
N1463 N 0.80377 0.04912 0.07554 0.0
C1464 C 0.82364 0.01433 0.89546 0.0
C1465 C 0.81173 0.03919 0.0162 0.0
N1466 N 0.83505 1.00769 0.07677 0.0
N1467 N 0.80821 0.05239 0.83224 0.0
H1468 H 0.80355 0.04964 0.16544 0.0
H1469 H 0.79624 0.05578 0.03662 0.0
H1470 H 0.80711 0.05207 0.74268 0.0
H1471 H 0.80669 0.06397 0.8696 0.0
H1472 H 0.84239 1.00086 0.03726 0.0
H1473 H 0.83711 0.00904 0.16569 0.0
H1474 H 0.82875 0.98942 0.87949 0.0
H1475 H 0.82646 0.99924 0.74877 0.0
C1476 C 0.68481 0.55922 0.35072 0.0
C1477 C 0.69882 0.57693 0.28943 0.0
C1478 C 0.71402 0.59357 0.47355 0.0
C1479 C 0.69829 0.57687 0.53507 0.0
N1480 N 0.66757 0.5442 0.53103 0.0
N1481 N 0.72494 0.61207 0.29259 0.0
C1482 C 0.68322 0.5599 0.47313 0.0
C1483 C 0.71297 0.5944 0.35094 0.0
N1484 N 0.67395 0.54137 0.29267 0.0
N1485 N 0.73016 0.60854 0.53154 0.0
H1486 H 0.72438 0.61327 0.20327 0.0
H1487 H 0.73399 0.62591 0.33322 0.0
H1488 H 0.73148 0.60885 0.62095 0.0
H1489 H 0.74309 0.61985 0.49053 0.0
H1490 H 0.66481 0.52747 0.33301 0.0
H1491 H 0.6759 0.54008 0.20474 0.0
H1492 H 0.65487 0.5327 0.48993 0.0
H1493 H 0.6666 0.54322 0.62071 0.0
C1494 C 0.47523 0.15065 0.47176 0.0
C1495 C 0.4881 0.1451 0.53103 0.0
C1496 C 0.49886 0.13767 0.34595 0.0
C1497 C 0.48697 0.14435 0.28568 0.0
N1498 N 0.46147 0.15428 0.29038 0.0
N1499 N 0.51534 0.13754 0.52322 0.0
C1500 C 0.47475 0.15037 0.34856 0.0
C1501 C 0.5006 0.13957 0.46786 0.0
N1502 N 0.4634 0.15618 0.53328 0.0
N1503 N 0.50829 0.12904 0.28795 0.0
H1504 H 0.5175 0.13885 0.61198 0.0
H1505 H 0.52686 0.13657 0.48043 0.0
H1506 H 0.50915 0.12851 0.19877 0.0
H1507 H 0.51423 0.121 0.32887 0.0
H1508 H 0.45606 0.16333 0.4983 0.0
H1509 H 0.46099 0.15402 0.6218 0.0
H1510 H 0.45049 0.15665 0.32868 0.0
H1511 H 0.46039 0.15395 0.20115 0.0
C1512 C 0.91467 0.38004 0.33806 0.0
C1513 C 0.91871 0.36618 0.27809 0.0
C1514 C 0.924 0.35358 0.46283 0.0
C1515 C 0.91945 0.36709 0.52305 0.0
N1516 N 0.90823 0.39157 0.52053 0.0
N1517 N 0.92433 0.33778 0.28117 0.0
C1518 C 0.91436 0.38003 0.46121 0.0
C1519 C 0.9225 0.35234 0.34001 0.0
N1520 N 0.91085 0.39308 0.27666 0.0
N1521 N 0.93065 0.34259 0.52294 0.0
H1522 H 0.92411 0.33692 0.19132 0.0
H1523 H 0.92471 0.32571 0.32071 0.0
H1524 H 0.93207 0.3432 0.61235 0.0
H1525 H 0.93624 0.33403 0.48462 0.0
H1526 H 0.91064 0.40551 0.31201 0.0
H1527 H 0.90832 0.39168 0.18812 0.0
H1528 H 0.90229 0.3998 0.4822 0.0
H1529 H 0.90786 0.39201 0.61028 0.0
C1530 C 0.72063 0.16659 0.21371 0.0
C1531 C 0.70538 0.1498 0.15157 0.0
C1532 C 0.6905 0.13227 0.33542 0.0
C1533 C 0.70488 0.14958 0.39717 0.0
N1534 N 0.73016 0.18502 0.3944 0.0
N1535 N 0.67325 0.1184 0.15455 0.0
C1536 C 0.71908 0.16722 0.33612 0.0
C1537 C 0.68949 0.1332 0.21283 0.0
N1538 N 0.73644 0.18217 0.15602 0.0
N1539 N 0.67825 0.11465 0.39355 0.0
H1540 H 0.67198 0.11815 0.06512 0.0
H1541 H 0.66023 0.10719 0.1953 0.0
H1542 H 0.67872 0.11339 0.48289 0.0
H1543 H 0.669 0.10086 0.35276 0.0
H1544 H 0.74925 0.19349 0.19726 0.0
H1545 H 0.7374 0.18323 0.06635 0.0
H1546 H 0.73946 0.19889 0.35424 0.0
H1547 H 0.72822 0.18632 0.48232 0.0
C1548 C 0.89997 0.56655 0.21631 0.0
C1549 C 0.91666 0.58195 0.15372 0.0
C1550 C 0.9339 0.59762 0.33629 0.0
C1551 C 0.91726 0.58213 0.39921 0.0
N1552 N 0.88293 0.55406 0.40015 0.0
N1553 N 0.95096 0.60995 0.15149 0.0
C1554 C 0.89998 0.56704 0.33934 0.0
C1555 C 0.93396 0.59701 0.21308 0.0
N1556 N 0.88415 0.55124 0.15782 0.0
N1557 N 0.9495 0.61322 0.39442 0.0
H1558 H 0.95169 0.60981 0.06165 0.0
H1559 H 0.96493 0.61975 0.18857 0.0
H1560 H 0.95045 0.61384 0.48398 0.0
H1561 H 0.96086 0.62627 0.35498 0.0
H1562 H 0.87284 0.53805 0.19634 0.0
H1563 H 0.88285 0.55108 0.06849 0.0
H1564 H 0.86896 0.5443 0.36304 0.0
H1565 H 0.88215 0.55415 0.48955 0.0
C1566 C 0.47961 0.37357 0.21859 0.0
C1567 C 0.48328 0.35951 0.15774 0.0
C1568 C 0.48975 0.34763 0.34181 0.0
C1569 C 0.48465 0.3606 0.40316 0.0
N1570 N 0.4733 0.38492 0.4024 0.0
N1571 N 0.48915 0.33121 0.16125 0.0
C1572 C 0.47929 0.37339 0.34205 0.0
C1573 C 0.48747 0.34591 0.21948 0.0
N1574 N 0.47636 0.38707 0.15798 0.0
N1575 N 0.49778 0.33771 0.4001 0.0
H1576 H 0.4884 0.32994 0.07167 0.0
H1577 H 0.48981 0.31936 0.20173 0.0
H1578 H 0.50037 0.33925 0.48864 0.0
H1579 H 0.50371 0.32957 0.36007 0.0
H1580 H 0.47601 0.39932 0.19499 0.0
H1581 H 0.47476 0.38646 0.06861 0.0
H1582 H 0.46703 0.39292 0.36473 0.0
H1583 H 0.47354 0.38564 0.49228 0.0
C1584 C 0.35054 0.89515 0.68415 0.0
C1585 C 0.36639 0.91205 0.6251 0.0
C1586 C 0.38252 0.92687 0.81125 0.0
C1587 C 0.36577 0.91084 0.87112 0.0
N1588 N 0.33324 0.88014 0.86467 0.0
N1589 N 0.39549 0.94564 0.63234 0.0
C1590 C 0.34953 0.8952 0.80737 0.0
C1591 C 0.38191 0.9283 0.68868 0.0
N1592 N 0.33704 0.87853 0.62251 0.0
N1593 N 0.39916 0.94077 0.87101 0.0
H1594 H 0.39518 0.9474 0.54339 0.0
H1595 H 0.40577 0.95895 0.67413 0.0
H1596 H 0.40001 0.94125 0.96062 0.0
H1597 H 0.41278 0.95113 0.83163 0.0
H1598 H 0.32645 0.86483 0.65992 0.0
H1599 H 0.33744 0.87777 0.53276 0.0
H1600 H 0.31967 0.86996 0.82476 0.0
H1601 H 0.33297 0.87826 0.95372 0.0
C1602 C 0.14064 0.48343 0.82692 0.0
C1603 C 0.15445 0.47919 0.88591 0.0
C1604 C 0.1654 0.47212 0.7005 0.0
C1605 C 0.15313 0.47838 0.64047 0.0
N1606 N 0.12982 0.49122 0.64766 0.0
N1607 N 0.18266 0.47312 0.87692 0.0
C1608 C 0.14112 0.48456 0.70412 0.0
C1609 C 0.16745 0.47439 0.82223 0.0
N1610 N 0.12614 0.48517 0.88749 0.0
N1611 N 0.17519 0.46386 0.64255 0.0
H1612 H 0.18487 0.47451 0.96562 0.0
H1613 H 0.19438 0.4726 0.83347 0.0
H1614 H 0.1761 0.46335 0.55339 0.0
H1615 H 0.18153 0.4562 0.6838 0.0
H1616 H 0.114 0.48555 0.84904 0.0
H1617 H 0.12491 0.4843 0.977 0.0
H1618 H 0.12346 0.49892 0.68829 0.0
H1619 H 0.1274 0.48987 0.5591 0.0
C1620 C 0.58658 0.68408 0.80518 0.0
C1621 C 0.58771 0.701 0.86454 0.0
C1622 C 0.58727 0.71624 0.67728 0.0
C1623 C 0.5879 0.70018 0.61865 0.0
N1624 N 0.59182 0.67078 0.62631 0.0
N1625 N 0.59018 0.7338 0.85715 0.0
C1626 C 0.58842 0.68457 0.68253 0.0
C1627 C 0.58854 0.71734 0.80037 0.0
N1628 N 0.58365 0.66738 0.86551 0.0
N1629 N 0.58439 0.72989 0.61541 0.0
H1630 H 0.58878 0.7342 0.94631 0.0
H1631 H 0.59373 0.74738 0.81663 0.0
H1632 H 0.58311 0.72944 0.52575 0.0
H1633 H 0.58161 0.74068 0.65266 0.0
H1634 H 0.58006 0.65368 0.82666 0.0
H1635 H 0.58347 0.6666 0.95516 0.0
H1636 H 0.59471 0.6604 0.66817 0.0
H1637 H 0.59375 0.67101 0.53724 0.0
C1638 C 0.37269 0.46609 0.69553 0.0
C1639 C 0.37233 0.48198 0.75831 0.0
C1640 C 0.37475 0.4995 0.57468 0.0
C1641 C 0.37347 0.48287 0.51208 0.0
N1642 N 0.36702 0.44848 0.51308 0.0
N1643 N 0.36988 0.51243 0.75541 0.0
C1644 C 0.37141 0.4657 0.57256 0.0
C1645 C 0.37231 0.4982 0.69712 0.0
N1646 N 0.37416 0.45121 0.75302 0.0
N1647 N 0.37924 0.51701 0.51785 0.0
H1648 H 0.369 0.51281 0.8448 0.0
H1649 H 0.36717 0.52302 0.71475 0.0
H1650 H 0.38107 0.51871 0.4287 0.0
H1651 H 0.38297 0.53052 0.55965 0.0
H1652 H 0.37717 0.44084 0.7121 0.0
H1653 H 0.37368 0.44992 0.84252 0.0
H1654 H 0.36289 0.43468 0.55276 0.0
H1655 H 0.36558 0.44733 0.42362 0.0
C1656 C 0.57031 0.91995 0.67535 0.0
C1657 C 0.58455 0.91631 0.73395 0.0
C1658 C 0.59731 0.91182 0.54724 0.0
C1659 C 0.58341 0.91606 0.48786 0.0
N1660 N 0.55891 0.92755 0.49811 0.0
N1661 N 0.61452 0.91334 0.72588 0.0
C1662 C 0.57067 0.92121 0.55263 0.0
C1663 C 0.59871 0.91328 0.66992 0.0
N1664 N 0.55569 0.92133 0.73668 0.0
N1665 N 0.6097 0.9069 0.48688 0.0
H1666 H 0.61653 0.91525 0.8146 0.0
H1667 H 0.62678 0.9136 0.68435 0.0
H1668 H 0.61211 0.90887 0.39832 0.0
H1669 H 0.61736 0.90027 0.52464 0.0
H1670 H 0.54298 0.9207 0.69932 0.0
H1671 H 0.55531 0.92164 0.82623 0.0
H1672 H 0.55217 0.93472 0.54052 0.0
H1673 H 0.5565 0.92676 0.40973 0.0
C1674 C 0.1481 0.67664 0.57068 0.0
C1675 C 0.15251 0.69428 0.50648 0.0
C1676 C 0.15705 0.71274 0.68814 0.0
C1677 C 0.15108 0.69462 0.75151 0.0
N1678 N 0.13516 0.65795 0.748 0.0
N1679 N 0.15501 0.72715 0.50613 0.0
C1680 C 0.14474 0.67614 0.69143 0.0
C1681 C 0.15545 0.71189 0.56565 0.0
N1682 N 0.14797 0.66053 0.51802 0.0
N1683 N 0.16363 0.7307 0.74454 0.0
H1684 H 0.15175 0.72616 0.4185 0.0
H1685 H 0.15528 0.73955 0.5456 0.0
H1686 H 0.16295 0.73179 0.8339 0.0
H1687 H 0.17066 0.74468 0.70241 0.0
H1688 H 0.14728 0.6484 0.5635 0.0
H1689 H 0.15066 0.66014 0.43041 0.0
H1690 H 0.12825 0.64408 0.70513 0.0
H1691 H 0.13228 0.65643 0.83615 0.0
loop_
_geom_bond_atom_site_label_1
_geom_bond_atom_site_label_2
_geom_bond_distance
_geom_bond_site_symmetry_2
_ccdc_geom_bond_type
Nd0 C2 2.836 . S
Nd0 O20 2.500 . S
Nd0 O21 2.492 . S
Nd0 O22 2.487 . S
Nd0 O23 2.682 . S
Nd0 O24 2.410 . S
Nd0 O29 2.414 . S
Nd0 O31 2.424 . S
Nd1 C11 2.836 1_455 S
Nd1 O23 2.414 . S
Nd1 O25 2.424 . S
Nd1 O26 2.500 1_455 S
Nd1 O27 2.492 1_455 S
Nd1 O28 2.487 . S
Nd1 O29 2.682 . S
Nd1 O30 2.410 . S
C2 Nd0 2.836 . S
C2 C3 1.498 . S
C2 O20 1.258 . S
C2 O21 1.239 . S
C3 C2 1.498 . S
C3 C4 1.366 . S
C3 C8 1.407 . S
C4 C3 1.366 . S
C4 C5 1.392 . S
C4 H32 0.930 . S
C5 C4 1.392 . S
C5 C6 1.398 . S
C5 H33 0.929 . S
C6 C5 1.398 . S
C6 C7 1.352 . S
C7 C6 1.352 . S
C7 C8 1.384 . S
C7 H34 0.930 . S
C8 C3 1.407 . S
C8 C7 1.384 . S
C8 H35 0.929 . S
C9 O22 1.251 . S
C9 O23 1.270 . S
C10 O24 1.251 . S
C10 O25 1.268 . S
C11 Nd1 2.836 1_655 S
C11 C12 1.498 . S
C11 O26 1.258 . S
C11 O27 1.239 . S
C12 C11 1.498 . S
C12 C13 1.366 . S
C12 C17 1.407 . S
C13 C12 1.366 . S
C13 C14 1.392 . S
C13 H36 0.930 . S
C14 C13 1.392 . S
C14 C15 1.398 . S
C14 H37 0.929 1_556 S
C15 C14 1.398 . S
C15 C16 1.352 . S
C16 C15 1.352 . S
C16 C17 1.384 . S
C16 H38 0.930 . S
C17 C12 1.407 . S
C17 C16 1.384 . S
C17 H39 0.929 . S
C18 O28 1.241 . S
C18 O29 1.273 . S
C19 O30 1.251 . S
C19 O31 1.268 . S
O20 Nd0 2.500 . S
O20 C2 1.258 . S
O21 Nd0 2.492 . S
O21 C2 1.239 . S
O22 Nd0 2.487 . S
O22 C9 1.251 . S
O23 Nd0 2.682 . S
O23 Nd1 2.414 . S
O23 C9 1.270 . S
O24 Nd0 2.410 . S
O24 C10 1.251 . S
O25 Nd1 2.424 . S
O25 C10 1.268 . S
O26 Nd1 2.500 1_655 S
O26 C11 1.258 . S
O27 Nd1 2.492 1_655 S
O27 C11 1.239 . S
O28 Nd1 2.487 . S
O28 C18 1.241 . S
O29 Nd0 2.414 . S
O29 Nd1 2.682 . S
O29 C18 1.273 . S
O30 Nd1 2.410 . S
O30 C19 1.251 . S
O31 Nd0 2.424 . S
O31 C19 1.268 . S
H32 C4 0.930 . S
H33 C5 0.929 . S
H34 C7 0.930 . S
H35 C8 0.929 . S
H36 C13 0.930 . S
H37 C14 0.929 1_554 S
H38 C16 0.930 . S
H39 C17 0.929 . S
Nd40 C42 2.836 . S
Nd40 O60 2.500 . S
Nd40 O61 2.492 . S
Nd40 O62 2.487 . S
Nd40 O63 2.682 . S
Nd40 O64 2.410 . S
Nd40 O69 2.414 . S
Nd40 O71 2.424 . S
Nd41 C51 2.836 . S
Nd41 O63 2.414 . S
Nd41 O65 2.424 . S
Nd41 O66 2.500 . S
Nd41 O67 2.492 . S
Nd41 O68 2.487 . S
Nd41 O69 2.682 . S
Nd41 O70 2.410 . S
C42 Nd40 2.836 . S
C42 C43 1.498 . S
C42 O60 1.258 . S
C42 O61 1.239 . S
C43 C42 1.498 . S
C43 C44 1.366 . S
C43 C48 1.407 . S
C44 C43 1.366 . S
C44 C45 1.392 . S
C44 H72 0.930 . S
C45 C44 1.392 . S
C45 C46 1.398 . S
C45 H73 0.929 . S
C46 C45 1.398 . S
C46 C47 1.352 . S
C47 C46 1.352 . S
C47 C48 1.384 . S
C47 H74 0.930 . S
C48 C43 1.407 . S
C48 C47 1.384 . S
C48 H75 0.929 . S
C49 O62 1.241 . S
C49 O63 1.273 . S
C50 O64 1.251 . S
C50 O65 1.268 . S
C51 Nd41 2.836 . S
C51 C52 1.498 . S
C51 O66 1.258 . S
C51 O67 1.239 . S
C52 C51 1.498 . S
C52 C53 1.366 . S
C52 C57 1.407 . S
C53 C52 1.366 . S
C53 C54 1.392 . S
C53 H76 0.930 . S
C54 C53 1.392 . S
C54 C55 1.398 . S
C54 H77 0.929 1_556 S
C55 C54 1.398 . S
C55 C56 1.352 . S
C56 C55 1.352 . S
C56 C57 1.384 . S
C56 H78 0.930 . S
C57 C52 1.407 . S
C57 C56 1.384 . S
C57 H79 0.929 . S
C58 O68 1.241 . S
C58 O69 1.273 . S
C59 O70 1.251 . S
C59 O71 1.268 . S
O60 Nd40 2.500 . S
O60 C42 1.258 . S
O61 Nd40 2.492 . S
O61 C42 1.239 . S
O62 Nd40 2.487 . S
O62 C49 1.241 . S
O63 Nd40 2.682 . S
O63 Nd41 2.414 . S
O63 C49 1.273 . S
O64 Nd40 2.410 . S
O64 C50 1.251 . S
O65 Nd41 2.424 . S
O65 C50 1.268 . S
O66 Nd41 2.500 . S
O66 C51 1.258 . S
O67 Nd41 2.492 . S
O67 C51 1.239 . S
O68 Nd41 2.487 . S
O68 C58 1.241 . S
O69 Nd40 2.414 . S
O69 Nd41 2.682 . S
O69 C58 1.273 . S
O70 Nd41 2.410 . S
O70 C59 1.251 . S
O71 Nd40 2.424 . S
O71 C59 1.268 . S
H72 C44 0.930 . S
H73 C45 0.929 . S
H74 C47 0.930 . S
H75 C48 0.929 . S
H76 C53 0.930 . S
H77 C54 0.929 1_554 S
H78 C56 0.930 . S
H79 C57 0.929 . S
Nd80 C82 2.836 1_545 S
Nd80 O100 2.500 1_545 S
Nd80 O101 2.492 1_545 S
Nd80 O102 2.487 . S
Nd80 O103 2.682 . S
Nd80 O104 2.410 . S
Nd80 O109 2.426 . S
Nd80 O111 2.424 . S
Nd81 C91 2.836 . S
Nd81 O103 2.414 . S
Nd81 O105 2.424 . S
Nd81 O106 2.500 . S
Nd81 O107 2.492 . S
Nd81 O108 2.487 . S
Nd81 O109 2.698 . S
Nd81 O110 2.410 . S
C82 Nd80 2.836 1_565 S
C82 C83 1.498 . S
C82 O100 1.258 . S
C82 O101 1.239 . S
C83 C82 1.498 . S
C83 C84 1.366 . S
C83 C88 1.407 . S
C84 C83 1.366 . S
C84 C85 1.392 . S
C84 H112 0.930 . S
C85 C84 1.392 . S
C85 C86 1.398 . S
C85 H113 0.929 . S
C86 C85 1.398 . S
C86 C87 1.352 . S
C87 C86 1.352 . S
C87 C88 1.384 . S
C87 H114 0.930 . S
C88 C83 1.407 . S
C88 C87 1.384 . S
C88 H115 0.929 . S
C89 O102 1.241 . S
C89 O103 1.273 . S
C90 O104 1.251 . S
C90 O105 1.268 . S
C91 Nd81 2.836 . S
C91 C92 1.498 . S
C91 O106 1.258 . S
C91 O107 1.239 . S
C92 C91 1.498 . S
C92 C93 1.366 . S
C92 C97 1.407 . S
C93 C92 1.366 . S
C93 C94 1.392 . S
C93 H116 0.930 . S
C94 C93 1.392 . S
C94 C95 1.398 . S
C94 H117 0.929 1_556 S
C95 C94 1.398 . S
C95 C96 1.352 . S
C96 C95 1.352 . S
C96 C97 1.384 . S
C96 H118 0.930 . S
C97 C92 1.407 . S
C97 C96 1.384 . S
C97 H119 0.929 . S
C98 O108 1.241 1_565 S
C98 O109 1.257 1_565 S
C99 O110 1.251 . S
C99 O111 1.268 . S
O100 Nd80 2.500 1_565 S
O100 C82 1.258 . S
O101 Nd80 2.492 1_565 S
O101 C82 1.239 . S
O102 Nd80 2.487 . S
O102 C89 1.241 . S
O103 Nd80 2.682 . S
O103 Nd81 2.414 . S
O103 C89 1.273 . S
O104 Nd80 2.410 . S
O104 C90 1.251 . S
O105 Nd81 2.424 . S
O105 C90 1.268 . S
O106 Nd81 2.500 . S
O106 C91 1.258 . S
O107 Nd81 2.492 . S
O107 C91 1.239 . S
O108 Nd81 2.487 . S
O108 C98 1.241 1_545 S
O109 Nd80 2.426 . S
O109 Nd81 2.698 . S
O109 C98 1.257 1_545 S
O110 Nd81 2.410 . S
O110 C99 1.251 . S
O111 Nd80 2.424 . S
O111 C99 1.268 . S
H112 C84 0.930 . S
H113 C85 0.929 . S
H114 C87 0.930 . S
H115 C88 0.929 . S
H116 C93 0.930 . S
H117 C94 0.929 1_554 S
H118 C96 0.930 . S
H119 C97 0.929 . S
Nd120 C122 2.836 . S
Nd120 O140 2.500 . S
Nd120 O141 2.492 . S
Nd120 O142 2.487 . S
Nd120 O143 2.682 . S
Nd120 O144 2.410 . S
Nd120 O149 2.414 . S
Nd120 O151 2.424 . S
Nd121 C131 2.836 1_455 S
Nd121 O143 2.414 . S
Nd121 O145 2.424 . S
Nd121 O146 2.500 1_455 S
Nd121 O147 2.492 1_455 S
Nd121 O148 2.487 . S
Nd121 O149 2.682 . S
Nd121 O150 2.410 . S
C122 Nd120 2.836 . S
C122 C123 1.498 . S
C122 O140 1.258 . S
C122 O141 1.239 . S
C123 C122 1.498 . S
C123 C124 1.366 . S
C123 C128 1.407 . S
C124 C123 1.366 . S
C124 C125 1.392 . S
C124 H152 0.930 . S
C125 C124 1.392 . S
C125 C126 1.398 . S
C125 H153 0.929 1_554 S
C126 C125 1.398 . S
C126 C127 1.352 . S
C127 C126 1.352 . S
C127 C128 1.384 . S
C127 H154 0.930 . S
C128 C123 1.407 . S
C128 C127 1.384 . S
C128 H155 0.929 . S
C129 O142 1.241 1_655 S
C129 O143 1.273 1_655 S
C130 O144 1.251 . S
C130 O145 1.268 . S
C131 Nd121 2.836 1_655 S
C131 C132 1.498 . S
C131 O146 1.258 . S
C131 O147 1.239 . S
C132 C131 1.498 . S
C132 C133 1.366 . S
C132 C137 1.407 . S
C133 C132 1.366 . S
C133 C134 1.392 . S
C133 H156 0.930 . S
C134 C133 1.392 . S
C134 C135 1.398 . S
C134 H157 0.929 . S
C135 C134 1.398 . S
C135 C136 1.352 . S
C136 C135 1.352 . S
C136 C137 1.384 . S
C136 H158 0.930 . S
C137 C132 1.407 . S
C137 C136 1.384 . S
C137 H159 0.929 . S
C138 O148 1.241 . S
C138 O149 1.273 . S
C139 O150 1.251 . S
C139 O151 1.268 . S
O140 Nd120 2.500 . S
O140 C122 1.258 . S
O141 Nd120 2.492 . S
O141 C122 1.239 . S
O142 Nd120 2.487 . S
O142 C129 1.241 1_455 S
O143 Nd120 2.682 . S
O143 Nd121 2.414 . S
O143 C129 1.273 1_455 S
O144 Nd120 2.410 . S
O144 C130 1.251 . S
O145 Nd121 2.424 . S
O145 C130 1.268 . S
O146 Nd121 2.500 1_655 S
O146 C131 1.258 . S
O147 Nd121 2.492 1_655 S
O147 C131 1.239 . S
O148 Nd121 2.487 . S
O148 C138 1.241 . S
O149 Nd120 2.414 . S
O149 Nd121 2.682 . S
O149 C138 1.273 . S
O150 Nd121 2.410 . S
O150 C139 1.251 . S
O151 Nd120 2.424 . S
O151 C139 1.268 . S
H152 C124 0.930 . S
H153 C125 0.929 1_556 S
H154 C127 0.930 . S
H155 C128 0.929 . S
H156 C133 0.930 . S
H157 C134 0.929 . S
H158 C136 0.930 . S
H159 C137 0.929 . S
Nd160 C162 2.836 . S
Nd160 O180 2.500 . S
Nd160 O181 2.492 . S
Nd160 O182 2.487 . S
Nd160 O183 2.682 . S
Nd160 O184 2.410 . S
Nd160 O189 2.414 . S
Nd160 O191 2.424 . S
Nd161 C171 2.836 . S
Nd161 O183 2.414 . S
Nd161 O185 2.424 . S
Nd161 O186 2.500 . S
Nd161 O187 2.492 . S
Nd161 O188 2.487 . S
Nd161 O189 2.682 . S
Nd161 O190 2.410 . S
C162 Nd160 2.836 . S
C162 C163 1.498 . S
C162 O180 1.258 . S
C162 O181 1.239 . S
C163 C162 1.498 . S
C163 C164 1.366 . S
C163 C168 1.407 . S
C164 C163 1.366 . S
C164 C165 1.392 . S
C164 H192 0.930 . S
C165 C164 1.392 . S
C165 C166 1.398 . S
C165 H193 0.929 1_554 S
C166 C165 1.398 . S
C166 C167 1.352 . S
C167 C166 1.352 . S
C167 C168 1.384 . S
C167 H194 0.930 . S
C168 C163 1.407 . S
C168 C167 1.384 . S
C168 H195 0.929 . S
C169 O182 1.241 . S
C169 O183 1.273 . S
C170 O184 1.251 . S
C170 O185 1.268 . S
C171 Nd161 2.836 . S
C171 C172 1.498 . S
C171 O186 1.258 . S
C171 O187 1.239 . S
C172 C171 1.498 . S
C172 C173 1.366 . S
C172 C177 1.407 . S
C173 C172 1.366 . S
C173 C174 1.392 . S
C173 H196 0.930 . S
C174 C173 1.392 . S
C174 C175 1.398 . S
C174 H197 0.929 . S
C175 C174 1.398 . S
C175 C176 1.352 . S
C176 C175 1.352 . S
C176 C177 1.384 . S
C176 H198 0.930 . S
C177 C172 1.407 . S
C177 C176 1.384 . S
C177 H199 0.929 . S
C178 O188 1.241 . S
C178 O189 1.273 . S
C179 O190 1.251 . S
C179 O191 1.268 . S
O180 Nd160 2.500 . S
O180 C162 1.258 . S
O181 Nd160 2.492 . S
O181 C162 1.239 . S
O182 Nd160 2.487 . S
O182 C169 1.241 . S
O183 Nd160 2.682 . S
O183 Nd161 2.414 . S
O183 C169 1.273 . S
O184 Nd160 2.410 . S
O184 C170 1.251 . S
O185 Nd161 2.424 . S
O185 C170 1.268 . S
O186 Nd161 2.500 . S
O186 C171 1.258 . S
O187 Nd161 2.492 . S
O187 C171 1.239 . S
O188 Nd161 2.487 . S
O188 C178 1.241 . S
O189 Nd160 2.414 . S
O189 Nd161 2.682 . S
O189 C178 1.273 . S
O190 Nd161 2.410 . S
O190 C179 1.251 . S
O191 Nd160 2.424 . S
O191 C179 1.268 . S
H192 C164 0.930 . S
H193 C165 0.929 1_556 S
H194 C167 0.930 . S
H195 C168 0.929 . S
H196 C173 0.930 . S
H197 C174 0.929 . S
H198 C176 0.930 . S
H199 C177 0.929 . S
Nd200 C202 2.836 1_545 S
Nd200 O220 2.500 1_545 S
Nd200 O221 2.492 1_545 S
Nd200 O222 2.487 . S
Nd200 O223 2.682 . S
Nd200 O224 2.410 . S
Nd200 O229 2.414 . S
Nd200 O231 2.424 . S
Nd201 C211 2.836 . S
Nd201 O223 2.414 . S
Nd201 O225 2.424 . S
Nd201 O226 2.500 . S
Nd201 O227 2.492 . S
Nd201 O228 2.487 . S
Nd201 O229 2.682 . S
Nd201 O230 2.410 . S
C202 Nd200 2.836 1_565 S
C202 C203 1.498 . S
C202 O220 1.258 . S
C202 O221 1.239 . S
C203 C202 1.498 . S
C203 C204 1.366 . S
C203 C208 1.407 . S
C204 C203 1.366 . S
C204 C205 1.392 . S
C204 H232 0.930 . S
C205 C204 1.392 . S
C205 C206 1.398 . S
C205 H233 0.929 1_554 S
C206 C205 1.398 . S
C206 C207 1.352 . S
C207 C206 1.352 . S
C207 C208 1.384 . S
C207 H234 0.930 . S
C208 C203 1.407 . S
C208 C207 1.384 . S
C208 H235 0.929 . S
C209 O222 1.241 . S
C209 O223 1.273 . S
C210 O224 1.251 . S
C210 O225 1.268 . S
C211 Nd201 2.836 . S
C211 C212 1.498 . S
C211 O226 1.258 . S
C211 O227 1.239 . S
C212 C211 1.498 . S
C212 C213 1.366 . S
C212 C217 1.407 . S
C213 C212 1.366 . S
C213 C214 1.392 . S
C213 H236 0.930 . S
C214 C213 1.392 . S
C214 C215 1.398 . S
C214 H237 0.929 . S
C215 C214 1.398 . S
C215 C216 1.352 . S
C216 C215 1.352 . S
C216 C217 1.384 . S
C216 H238 0.930 . S
C217 C212 1.407 . S
C217 C216 1.384 . S
C217 H239 0.929 . S
C218 O228 1.226 1_565 S
C218 O229 1.225 1_565 S
C219 O230 1.251 . S
C219 O231 1.268 . S
O220 Nd200 2.500 1_565 S
O220 C202 1.258 . S
O221 Nd200 2.492 1_565 S
O221 C202 1.239 . S
O222 Nd200 2.487 . S
O222 C209 1.241 . S
O223 Nd200 2.682 . S
O223 Nd201 2.414 . S
O223 C209 1.273 . S
O224 Nd200 2.410 . S
O224 C210 1.251 . S
O225 Nd201 2.424 . S
O225 C210 1.268 . S
O226 Nd201 2.500 . S
O226 C211 1.258 . S
O227 Nd201 2.492 . S
O227 C211 1.239 . S
O228 Nd201 2.487 . S
O228 C218 1.226 1_545 S
O229 Nd200 2.414 . S
O229 Nd201 2.682 . S
O229 C218 1.225 1_545 S
O230 Nd201 2.410 . S
O230 C219 1.251 . S
O231 Nd200 2.424 . S
O231 C219 1.268 . S
H232 C204 0.930 . S
H233 C205 0.929 1_556 S
H234 C207 0.930 . S
H235 C208 0.929 . S
H236 C213 0.930 . S
H237 C214 0.929 . S
H238 C216 0.930 . S
H239 C217 0.929 . S
Nd240 C242 2.836 1_554 S
Nd240 O260 2.500 1_554 S
Nd240 O261 2.492 1_554 S
Nd240 O262 2.487 . S
Nd240 O263 2.682 . S
Nd240 O264 2.410 1_554 S
Nd240 O269 2.414 1_554 S
Nd240 O271 2.424 . S
Nd241 C251 2.836 1_556 S
Nd241 O263 2.414 1_556 S
Nd241 O265 2.424 . S
Nd241 O266 2.500 1_556 S
Nd241 O267 2.492 1_556 S
Nd241 O268 2.487 . S
Nd241 O269 2.682 . S
Nd241 O270 2.410 1_556 S
C242 Nd240 2.836 1_556 S
C242 C243 1.498 . S
C242 O260 1.258 . S
C242 O261 1.239 . S
C243 C242 1.498 . S
C243 C244 1.366 . S
C243 C248 1.407 . S
C244 C243 1.366 . S
C244 C245 1.392 . S
C244 H272 0.930 . S
C245 C244 1.392 . S
C245 C246 1.398 . S
C245 H273 0.929 . S
C246 C245 1.398 . S
C246 C247 1.352 . S
C247 C246 1.352 . S
C247 C248 1.384 . S
C247 H274 0.930 . S
C248 C243 1.407 . S
C248 C247 1.384 . S
C248 H275 0.929 . S
C249 O262 1.241 . S
C249 O263 1.273 . S
C250 O264 1.251 . S
C250 O265 1.268 . S
C251 Nd241 2.836 1_554 S
C251 C252 1.498 . S
C251 O266 1.258 . S
C251 O267 1.239 . S
C252 C251 1.498 . S
C252 C253 1.366 . S
C252 C257 1.407 . S
C253 C252 1.366 . S
C253 C254 1.392 . S
C253 H276 0.930 . S
C254 C253 1.392 . S
C254 C255 1.398 . S
C254 H277 0.929 . S
C255 C254 1.398 . S
C255 C256 1.352 . S
C256 C255 1.352 . S
C256 C257 1.384 . S
C256 H278 0.930 . S
C257 C252 1.407 . S
C257 C256 1.384 . S
C257 H279 0.929 . S
C258 O268 1.241 . S
C258 O269 1.273 . S
C259 O270 1.251 . S
C259 O271 1.268 . S
O260 Nd240 2.500 1_556 S
O260 C242 1.258 . S
O261 Nd240 2.492 1_556 S
O261 C242 1.239 . S
O262 Nd240 2.487 . S
O262 C249 1.241 . S
O263 Nd240 2.682 . S
O263 Nd241 2.414 1_554 S
O263 C249 1.273 . S
O264 Nd240 2.410 1_556 S
O264 C250 1.251 . S
O265 Nd241 2.424 . S
O265 C250 1.268 . S
O266 Nd241 2.500 1_554 S
O266 C251 1.258 . S
O267 Nd241 2.492 1_554 S
O267 C251 1.239 . S
O268 Nd241 2.487 . S
O268 C258 1.241 . S
O269 Nd240 2.414 1_556 S
O269 Nd241 2.682 . S
O269 C258 1.273 . S
O270 Nd241 2.410 1_554 S
O270 C259 1.251 . S
O271 Nd240 2.424 . S
O271 C259 1.268 . S
H272 C244 0.930 . S
H273 C245 0.929 . S
H274 C247 0.930 . S
H275 C248 0.929 . S
H276 C253 0.930 . S
H277 C254 0.929 . S
H278 C256 0.930 . S
H279 C257 0.929 . S
Nd280 C282 2.836 1_554 S
Nd280 O300 2.500 1_554 S
Nd280 O301 2.492 1_554 S
Nd280 O302 2.487 . S
Nd280 O303 2.682 . S
Nd280 O304 2.410 1_554 S
Nd280 O309 2.414 1_554 S
Nd280 O311 2.424 . S
Nd281 C291 2.836 1_556 S
Nd281 O303 2.414 1_556 S
Nd281 O305 2.424 . S
Nd281 O306 2.500 1_556 S
Nd281 O307 2.492 1_556 S
Nd281 O308 2.487 . S
Nd281 O309 2.682 . S
Nd281 O310 2.410 1_556 S
C282 Nd280 2.836 1_556 S
C282 C283 1.498 . S
C282 O300 1.258 . S
C282 O301 1.239 . S
C283 C282 1.498 . S
C283 C284 1.366 . S
C283 C288 1.407 . S
C284 C283 1.366 . S
C284 C285 1.392 . S
C284 H312 0.930 . S
C285 C284 1.392 . S
C285 C286 1.398 . S
C285 H313 0.929 . S
C286 C285 1.398 . S
C286 C287 1.352 . S
C287 C286 1.352 . S
C287 C288 1.384 . S
C287 H314 0.930 . S
C288 C283 1.407 . S
C288 C287 1.384 . S
C288 H315 0.929 . S
C289 O302 1.241 . S
C289 O303 1.273 . S
C290 O304 1.251 . S
C290 O305 1.268 . S
C291 Nd281 2.836 1_554 S
C291 C292 1.498 . S
C291 O306 1.258 . S
C291 O307 1.239 . S
C292 C291 1.498 . S
C292 C293 1.366 . S
C292 C297 1.407 . S
C293 C292 1.366 . S
C293 C294 1.392 . S
C293 H316 0.930 . S
C294 C293 1.392 . S
C294 C295 1.398 . S
C294 H317 0.929 . S
C295 C294 1.398 . S
C295 C296 1.352 . S
C296 C295 1.352 . S
C296 C297 1.384 . S
C296 H318 0.930 . S
C297 C292 1.407 . S
C297 C296 1.384 . S
C297 H319 0.929 . S
C298 O308 1.241 . S
C298 O309 1.273 . S
C299 O310 1.251 . S
C299 O311 1.268 . S
O300 Nd280 2.500 1_556 S
O300 C282 1.258 . S
O301 Nd280 2.492 1_556 S
O301 C282 1.239 . S
O302 Nd280 2.487 . S
O302 C289 1.241 . S
O303 Nd280 2.682 . S
O303 Nd281 2.414 1_554 S
O303 C289 1.273 . S
O304 Nd280 2.410 1_556 S
O304 C290 1.251 . S
O305 Nd281 2.424 . S
O305 C290 1.268 . S
O306 Nd281 2.500 1_554 S
O306 C291 1.258 . S
O307 Nd281 2.492 1_554 S
O307 C291 1.239 . S
O308 Nd281 2.487 . S
O308 C298 1.241 . S
O309 Nd280 2.414 1_556 S
O309 Nd281 2.682 . S
O309 C298 1.273 . S
O310 Nd281 2.410 1_554 S
O310 C299 1.251 . S
O311 Nd280 2.424 . S
O311 C299 1.268 . S
H312 C284 0.930 . S
H313 C285 0.929 . S
H314 C287 0.930 . S
H315 C288 0.929 . S
H316 C293 0.930 . S
H317 C294 0.929 . S
H318 C296 0.930 . S
H319 C297 0.929 . S
Nd320 C322 2.836 1_554 S
Nd320 O340 2.500 1_554 S
Nd320 O341 2.492 1_554 S
Nd320 O342 2.487 . S
Nd320 O343 2.682 . S
Nd320 O344 2.410 1_554 S
Nd320 O349 2.414 1_554 S
Nd320 O351 2.424 . S
Nd321 C331 2.836 1_556 S
Nd321 O343 2.414 1_556 S
Nd321 O345 2.424 . S
Nd321 O346 2.500 1_556 S
Nd321 O347 2.492 1_556 S
Nd321 O348 2.487 . S
Nd321 O349 2.682 . S
Nd321 O350 2.410 1_556 S
C322 Nd320 2.836 1_556 S
C322 C323 1.498 . S
C322 O340 1.258 . S
C322 O341 1.239 . S
C323 C322 1.498 . S
C323 C324 1.366 . S
C323 C328 1.407 . S
C324 C323 1.366 . S
C324 C325 1.392 . S
C324 H352 0.930 . S
C325 C324 1.392 . S
C325 C326 1.398 . S
C325 H353 0.929 . S
C326 C325 1.398 . S
C326 C327 1.352 . S
C327 C326 1.352 . S
C327 C328 1.384 . S
C327 H354 0.930 . S
C328 C323 1.407 . S
C328 C327 1.384 . S
C328 H355 0.929 . S
C329 O342 1.241 . S
C329 O343 1.273 . S
C330 O344 1.251 . S
C330 O345 1.268 . S
C331 Nd321 2.836 1_554 S
C331 C332 1.498 . S
C331 O346 1.258 . S
C331 O347 1.239 . S
C332 C331 1.498 . S
C332 C333 1.366 . S
C332 C337 1.407 . S
C333 C332 1.366 . S
C333 C334 1.392 . S
C333 H356 0.930 . S
C334 C333 1.392 . S
C334 C335 1.398 1_655 S
C334 H357 0.929 . S
C335 C334 1.398 1_455 S
C335 C336 1.352 . S
C336 C335 1.352 . S
C336 C337 1.384 1_455 S
C336 H358 0.930 . S
C337 C332 1.407 . S
C337 C336 1.384 1_655 S
C337 H359 0.929 . S
C338 O348 1.241 . S
C338 O349 1.273 . S
C339 O350 1.251 . S
C339 O351 1.268 . S
O340 Nd320 2.500 1_556 S
O340 C322 1.258 . S
O341 Nd320 2.492 1_556 S
O341 C322 1.239 . S
O342 Nd320 2.487 . S
O342 C329 1.241 . S
O343 Nd320 2.682 . S
O343 Nd321 2.414 1_554 S
O343 C329 1.273 . S
O344 Nd320 2.410 1_556 S
O344 C330 1.251 . S
O345 Nd321 2.424 . S
O345 C330 1.268 . S
O346 Nd321 2.500 1_554 S
O346 C331 1.258 . S
O347 Nd321 2.492 1_554 S
O347 C331 1.239 . S
O348 Nd321 2.487 . S
O348 C338 1.241 . S
O349 Nd320 2.414 1_556 S
O349 Nd321 2.682 . S
O349 C338 1.273 . S
O350 Nd321 2.410 1_554 S
O350 C339 1.251 . S
O351 Nd320 2.424 . S
O351 C339 1.268 . S
H352 C324 0.930 . S
H353 C325 0.929 . S
H354 C327 0.930 . S
H355 C328 0.929 . S
H356 C333 0.930 . S
H357 C334 0.929 . S
H358 C336 0.930 . S
H359 C337 0.929 . S
Nd360 C362 2.836 . S
Nd360 O380 2.500 . S
Nd360 O381 2.492 . S
Nd360 O382 2.487 . S
Nd360 O383 2.682 . S
Nd360 O384 2.410 . S
Nd360 O389 2.414 . S
Nd360 O391 2.424 . S
Nd361 C371 2.836 . S
Nd361 O383 2.414 . S
Nd361 O385 2.424 . S
Nd361 O386 2.500 . S
Nd361 O387 2.492 . S
Nd361 O388 2.487 . S
Nd361 O389 2.682 . S
Nd361 O390 2.410 . S
C362 Nd360 2.836 . S
C362 C363 1.498 . S
C362 O380 1.258 . S
C362 O381 1.239 . S
C363 C362 1.498 . S
C363 C364 1.366 . S
C363 C368 1.407 . S
C364 C363 1.366 . S
C364 C365 1.392 . S
C364 H392 0.930 . S
C365 C364 1.392 . S
C365 C366 1.398 . S
C365 H393 0.929 . S
C366 C365 1.398 . S
C366 C367 1.352 . S
C367 C366 1.352 . S
C367 C368 1.384 . S
C367 H394 0.930 . S
C368 C363 1.407 . S
C368 C367 1.384 . S
C368 H395 0.929 . S
C369 O382 1.241 . S
C369 O383 1.273 . S
C370 O384 1.251 . S
C370 O385 1.268 . S
C371 Nd361 2.836 . S
C371 C372 1.498 . S
C371 O386 1.258 . S
C371 O387 1.239 . S
C372 C371 1.498 . S
C372 C373 1.366 . S
C372 C377 1.407 . S
C373 C372 1.366 . S
C373 C374 1.392 . S
C373 H396 0.930 . S
C374 C373 1.392 . S
C374 C375 1.398 . S
C374 H397 0.929 . S
C375 C374 1.398 . S
C375 C376 1.352 . S
C376 C375 1.352 . S
C376 C377 1.384 . S
C376 H398 0.930 . S
C377 C372 1.407 . S
C377 C376 1.384 . S
C377 H399 0.929 . S
C378 O388 1.241 . S
C378 O389 1.273 . S
C379 O390 1.251 . S
C379 O391 1.268 . S
O380 Nd360 2.500 . S
O380 C362 1.258 . S
O381 Nd360 2.492 . S
O381 C362 1.239 . S
O382 Nd360 2.487 . S
O382 C369 1.241 . S
O383 Nd360 2.682 . S
O383 Nd361 2.414 . S
O383 C369 1.273 . S
O384 Nd360 2.410 . S
O384 C370 1.251 . S
O385 Nd361 2.424 . S
O385 C370 1.268 . S
O386 Nd361 2.500 . S
O386 C371 1.258 . S
O387 Nd361 2.492 . S
O387 C371 1.239 . S
O388 Nd361 2.487 . S
O388 C378 1.241 . S
O389 Nd360 2.414 . S
O389 Nd361 2.682 . S
O389 C378 1.273 . S
O390 Nd361 2.410 . S
O390 C379 1.251 . S
O391 Nd360 2.424 . S
O391 C379 1.268 . S
H392 C364 0.930 . S
H393 C365 0.929 . S
H394 C367 0.930 . S
H395 C368 0.929 . S
H396 C373 0.930 . S
H397 C374 0.929 . S
H398 C376 0.930 . S
H399 C377 0.929 . S
Nd400 C402 2.836 . S
Nd400 O420 2.500 . S
Nd400 O421 2.492 . S
Nd400 O422 2.487 . S
Nd400 O423 2.682 . S
Nd400 O424 2.410 . S
Nd400 O429 2.414 . S
Nd400 O431 2.424 . S
Nd401 C411 2.836 . S
Nd401 O423 2.414 . S
Nd401 O425 2.424 . S
Nd401 O426 2.500 . S
Nd401 O427 2.492 . S
Nd401 O428 2.487 . S
Nd401 O429 2.682 . S
Nd401 O430 2.410 . S
C402 Nd400 2.836 . S
C402 C403 1.498 . S
C402 O420 1.258 . S
C402 O421 1.239 . S
C403 C402 1.498 . S
C403 C404 1.366 . S
C403 C408 1.407 . S
C404 C403 1.366 . S
C404 C405 1.392 . S
C404 H432 0.930 . S
C405 C404 1.392 . S
C405 C406 1.398 . S
C405 H433 0.929 . S
C406 C405 1.398 . S
C406 C407 1.352 . S
C407 C406 1.352 . S
C407 C408 1.384 . S
C407 H434 0.930 . S
C408 C403 1.407 . S
C408 C407 1.384 . S
C408 H435 0.929 . S
C409 O422 1.241 . S
C409 O423 1.273 . S
C410 O424 1.251 . S
C410 O425 1.268 . S
C411 Nd401 2.836 . S
C411 C412 1.498 . S
C411 O426 1.258 . S
C411 O427 1.239 . S
C412 C411 1.498 . S
C412 C413 1.366 . S
C412 C417 1.407 . S
C413 C412 1.366 . S
C413 C414 1.392 . S
C413 H436 0.930 . S
C414 C413 1.392 . S
C414 C415 1.398 . S
C414 H437 0.929 . S
C415 C414 1.398 . S
C415 C416 1.352 . S
C416 C415 1.352 . S
C416 C417 1.384 . S
C416 H438 0.930 . S
C417 C412 1.407 . S
C417 C416 1.384 . S
C417 H439 0.929 . S
C418 O428 1.241 . S
C418 O429 1.273 . S
C419 O430 1.251 . S
C419 O431 1.268 . S
O420 Nd400 2.500 . S
O420 C402 1.258 . S
O421 Nd400 2.492 . S
O421 C402 1.239 . S
O422 Nd400 2.487 . S
O422 C409 1.241 . S
O423 Nd400 2.682 . S
O423 Nd401 2.414 . S
O423 C409 1.273 . S
O424 Nd400 2.410 . S
O424 C410 1.251 . S
O425 Nd401 2.424 . S
O425 C410 1.268 . S
O426 Nd401 2.500 . S
O426 C411 1.258 . S
O427 Nd401 2.492 . S
O427 C411 1.239 . S
O428 Nd401 2.487 . S
O428 C418 1.241 . S
O429 Nd400 2.414 . S
O429 Nd401 2.682 . S
O429 C418 1.273 . S
O430 Nd401 2.410 . S
O430 C419 1.251 . S
O431 Nd400 2.424 . S
O431 C419 1.268 . S
H432 C404 0.930 . S
H433 C405 0.929 . S
H434 C407 0.930 . S
H435 C408 0.929 . S
H436 C413 0.930 . S
H437 C414 0.929 . S
H438 C416 0.930 . S
H439 C417 0.929 . S
Nd440 C442 2.836 . S
Nd440 O460 2.500 . S
Nd440 O461 2.492 . S
Nd440 O462 2.487 . S
Nd440 O463 2.682 . S
Nd440 O464 2.410 . S
Nd440 O469 2.414 . S
Nd440 O471 2.424 . S
Nd441 C451 2.836 . S
Nd441 O463 2.414 . S
Nd441 O465 2.424 . S
Nd441 O466 2.500 . S
Nd441 O467 2.492 . S
Nd441 O468 2.487 . S
Nd441 O469 2.682 . S
Nd441 O470 2.410 . S
C442 Nd440 2.836 . S
C442 C443 1.498 . S
C442 O460 1.258 . S
C442 O461 1.239 . S
C443 C442 1.498 . S
C443 C444 1.366 . S
C443 C448 1.407 . S
C444 C443 1.366 . S
C444 C445 1.392 . S
C444 H472 0.930 . S
C445 C444 1.392 . S
C445 C446 1.398 . S
C445 H473 0.929 . S
C446 C445 1.398 . S
C446 C447 1.352 . S
C447 C446 1.352 . S
C447 C448 1.384 . S
C447 H474 0.930 . S
C448 C443 1.407 . S
C448 C447 1.384 . S
C448 H475 0.929 . S
C449 O462 1.241 . S
C449 O463 1.273 . S
C450 O464 1.251 . S
C450 O465 1.268 . S
C451 Nd441 2.836 . S
C451 C452 1.498 . S
C451 O466 1.258 . S
C451 O467 1.239 . S
C452 C451 1.498 . S
C452 C453 1.366 . S
C452 C457 1.407 . S
C453 C452 1.366 . S
C453 C454 1.392 . S
C453 H476 0.930 . S
C454 C453 1.392 . S
C454 C455 1.398 . S
C454 H477 0.929 . S
C455 C454 1.398 . S
C455 C456 1.352 . S
C456 C455 1.352 . S
C456 C457 1.384 . S
C456 H478 0.930 . S
C457 C452 1.407 . S
C457 C456 1.384 . S
C457 H479 0.929 . S
C458 O468 1.241 . S
C458 O469 1.273 . S
C459 O470 1.251 . S
C459 O471 1.268 . S
O460 Nd440 2.500 . S
O460 C442 1.258 . S
O461 Nd440 2.492 . S
O461 C442 1.239 . S
O462 Nd440 2.487 . S
O462 C449 1.241 . S
O463 Nd440 2.682 . S
O463 Nd441 2.414 . S
O463 C449 1.273 . S
O464 Nd440 2.410 . S
O464 C450 1.251 . S
O465 Nd441 2.424 . S
O465 C450 1.268 . S
O466 Nd441 2.500 . S
O466 C451 1.258 . S
O467 Nd441 2.492 . S
O467 C451 1.239 . S
O468 Nd441 2.487 . S
O468 C458 1.241 . S
O469 Nd440 2.414 . S
O469 Nd441 2.682 . S
O469 C458 1.273 . S
O470 Nd441 2.410 . S
O470 C459 1.251 . S
O471 Nd440 2.424 . S
O471 C459 1.268 . S
H472 C444 0.930 . S
H473 C445 0.929 . S
H474 C447 0.930 . S
H475 C448 0.929 . S
H476 C453 0.930 . S
H477 C454 0.929 . S
H478 C456 0.930 . S
H479 C457 0.929 . S
Nd480 C482 2.836 . S
Nd480 O500 2.500 . S
Nd480 O501 2.492 . S
Nd480 O502 2.487 . S
Nd480 O503 2.682 . S
Nd480 O504 2.410 . S
Nd480 O509 2.414 . S
Nd480 O511 2.424 . S
Nd481 C491 2.836 . S
Nd481 O503 2.414 . S
Nd481 O505 2.424 . S
Nd481 O506 2.500 . S
Nd481 O507 2.492 . S
Nd481 O508 2.487 . S
Nd481 O509 2.682 . S
Nd481 O510 2.410 . S
C482 Nd480 2.836 . S
C482 C483 1.498 . S
C482 O500 1.258 . S
C482 O501 1.239 . S
C483 C482 1.498 . S
C483 C484 1.366 . S
C483 C488 1.407 . S
C484 C483 1.366 . S
C484 C485 1.392 . S
C484 H512 0.930 . S
C485 C484 1.392 . S
C485 C486 1.398 . S
C485 H513 0.929 . S
C486 C485 1.398 . S
C486 C487 1.352 . S
C487 C486 1.352 . S
C487 C488 1.384 . S
C487 H514 0.930 . S
C488 C483 1.407 . S
C488 C487 1.384 . S
C488 H515 0.929 . S
C489 O502 1.241 . S
C489 O503 1.273 . S
C490 O504 1.251 . S
C490 O505 1.268 . S
C491 Nd481 2.836 . S
C491 C492 1.498 . S
C491 O506 1.258 . S
C491 O507 1.239 . S
C492 C491 1.498 . S
C492 C493 1.366 . S
C492 C497 1.407 . S
C493 C492 1.366 . S
C493 C494 1.392 . S
C493 H516 0.930 . S
C494 C493 1.392 . S
C494 C495 1.398 . S
C494 H517 0.929 . S
C495 C494 1.398 . S
C495 C496 1.352 . S
C496 C495 1.352 . S
C496 C497 1.384 . S
C496 H518 0.930 . S
C497 C492 1.407 . S
C497 C496 1.384 . S
C497 H519 0.929 . S
C498 O508 1.241 . S
C498 O509 1.273 . S
C499 O510 1.251 . S
C499 O511 1.268 . S
O500 Nd480 2.500 . S
O500 C482 1.258 . S
O501 Nd480 2.492 . S
O501 C482 1.239 . S
O502 Nd480 2.487 . S
O502 C489 1.241 . S
O503 Nd480 2.682 . S
O503 Nd481 2.414 . S
O503 C489 1.273 . S
O504 Nd480 2.410 . S
O504 C490 1.251 . S
O505 Nd481 2.424 . S
O505 C490 1.268 . S
O506 Nd481 2.500 . S
O506 C491 1.258 . S
O507 Nd481 2.492 . S
O507 C491 1.239 . S
O508 Nd481 2.487 . S
O508 C498 1.241 . S
O509 Nd480 2.414 . S
O509 Nd481 2.682 . S
O509 C498 1.273 . S
O510 Nd481 2.410 . S
O510 C499 1.251 . S
O511 Nd480 2.424 . S
O511 C499 1.268 . S
H512 C484 0.930 . S
H513 C485 0.929 . S
H514 C487 0.930 . S
H515 C488 0.929 . S
H516 C493 0.930 . S
H517 C494 0.929 . S
H518 C496 0.930 . S
H519 C497 0.929 . S
Nd520 C522 2.836 . S
Nd520 O540 2.500 . S
Nd520 O541 2.492 . S
Nd520 O542 2.487 . S
Nd520 O543 2.682 . S
Nd520 O544 2.410 . S
Nd520 O549 2.414 . S
Nd520 O551 2.424 . S
Nd521 C531 2.836 . S
Nd521 O543 2.414 . S
Nd521 O545 2.424 . S
Nd521 O546 2.500 . S
Nd521 O547 2.492 . S
Nd521 O548 2.487 . S
Nd521 O549 2.682 . S
Nd521 O550 2.410 . S
C522 Nd520 2.836 . S
C522 C523 1.498 . S
C522 O540 1.258 . S
C522 O541 1.239 . S
C523 C522 1.498 . S
C523 C524 1.366 . S
C523 C528 1.407 . S
C524 C523 1.366 . S
C524 C525 1.392 . S
C524 H552 0.930 . S
C525 C524 1.392 . S
C525 C526 1.398 . S
C525 H553 0.929 . S
C526 C525 1.398 . S
C526 C527 1.352 . S
C527 C526 1.352 . S
C527 C528 1.384 . S
C527 H554 0.930 . S
C528 C523 1.407 . S
C528 C527 1.384 . S
C528 H555 0.929 . S
C529 O542 1.241 . S
C529 O543 1.273 . S
C530 O544 1.251 . S
C530 O545 1.268 . S
C531 Nd521 2.836 . S
C531 C532 1.498 . S
C531 O546 1.258 . S
C531 O547 1.239 . S
C532 C531 1.498 . S
C532 C533 1.366 . S
C532 C537 1.407 . S
C533 C532 1.366 . S
C533 C534 1.392 . S
C533 H556 0.930 . S
C534 C533 1.392 . S
C534 C535 1.398 . S
C534 H557 0.929 . S
C535 C534 1.398 . S
C535 C536 1.352 . S
C536 C535 1.352 . S
C536 C537 1.384 . S
C536 H558 0.930 . S
C537 C532 1.407 . S
C537 C536 1.384 . S
C537 H559 0.929 . S
C538 O548 1.241 . S
C538 O549 1.273 . S
C539 O550 1.251 . S
C539 O551 1.268 . S
O540 Nd520 2.500 . S
O540 C522 1.258 . S
O541 Nd520 2.492 . S
O541 C522 1.239 . S
O542 Nd520 2.487 . S
O542 C529 1.241 . S
O543 Nd520 2.682 . S
O543 Nd521 2.414 . S
O543 C529 1.273 . S
O544 Nd520 2.410 . S
O544 C530 1.251 . S
O545 Nd521 2.424 . S
O545 C530 1.268 . S
O546 Nd521 2.500 . S
O546 C531 1.258 . S
O547 Nd521 2.492 . S
O547 C531 1.239 . S
O548 Nd521 2.487 . S
O548 C538 1.241 . S
O549 Nd520 2.414 . S
O549 Nd521 2.682 . S
O549 C538 1.273 . S
O550 Nd521 2.410 . S
O550 C539 1.251 . S
O551 Nd520 2.424 . S
O551 C539 1.268 . S
H552 C524 0.930 . S
H553 C525 0.929 . S
H554 C527 0.930 . S
H555 C528 0.929 . S
H556 C533 0.930 . S
H557 C534 0.929 . S
H558 C536 0.930 . S
H559 C537 0.929 . S
Nd560 C562 2.836 . S
Nd560 O580 2.500 . S
Nd560 O581 2.492 . S
Nd560 O582 2.487 . S
Nd560 O583 2.682 . S
Nd560 O584 2.410 . S
Nd560 O589 2.414 . S
Nd560 O591 2.424 . S
Nd561 C571 2.836 . S
Nd561 O583 2.414 . S
Nd561 O585 2.424 . S
Nd561 O586 2.500 . S
Nd561 O587 2.492 . S
Nd561 O588 2.487 . S
Nd561 O589 2.682 . S
Nd561 O590 2.410 . S
C562 Nd560 2.836 . S
C562 C563 1.498 . S
C562 O580 1.258 . S
C562 O581 1.239 . S
C563 C562 1.498 . S
C563 C564 1.366 . S
C563 C568 1.407 . S
C564 C563 1.366 . S
C564 C565 1.392 . S
C564 H592 0.930 . S
C565 C564 1.392 . S
C565 C566 1.398 . S
C565 H593 0.929 . S
C566 C565 1.398 . S
C566 C567 1.352 . S
C567 C566 1.352 . S
C567 C568 1.384 . S
C567 H594 0.930 . S
C568 C563 1.407 . S
C568 C567 1.384 . S
C568 H595 0.929 . S
C569 O582 1.241 . S
C569 O583 1.273 . S
C570 O584 1.251 . S
C570 O585 1.268 . S
C571 Nd561 2.836 . S
C571 C572 1.498 . S
C571 O586 1.258 . S
C571 O587 1.239 . S
C572 C571 1.498 . S
C572 C573 1.366 . S
C572 C577 1.407 . S
C573 C572 1.366 . S
C573 C574 1.392 . S
C573 H596 0.930 . S
C574 C573 1.392 . S
C574 C575 1.398 . S
C574 H597 0.929 . S
C575 C574 1.398 . S
C575 C576 1.352 . S
C576 C575 1.352 . S
C576 C577 1.384 . S
C576 H598 0.930 . S
C577 C572 1.407 . S
C577 C576 1.384 . S
C577 H599 0.929 . S
C578 O588 1.241 . S
C578 O589 1.273 . S
C579 O590 1.251 . S
C579 O591 1.268 . S
O580 Nd560 2.500 . S
O580 C562 1.258 . S
O581 Nd560 2.492 . S
O581 C562 1.239 . S
O582 Nd560 2.487 . S
O582 C569 1.241 . S
O583 Nd560 2.682 . S
O583 Nd561 2.414 . S
O583 C569 1.273 . S
O584 Nd560 2.410 . S
O584 C570 1.251 . S
O585 Nd561 2.424 . S
O585 C570 1.268 . S
O586 Nd561 2.500 . S
O586 C571 1.258 . S
O587 Nd561 2.492 . S
O587 C571 1.239 . S
O588 Nd561 2.487 . S
O588 C578 1.241 . S
O589 Nd560 2.414 . S
O589 Nd561 2.682 . S
O589 C578 1.273 . S
O590 Nd561 2.410 . S
O590 C579 1.251 . S
O591 Nd560 2.424 . S
O591 C579 1.268 . S
H592 C564 0.930 . S
H593 C565 0.929 . S
H594 C567 0.930 . S
H595 C568 0.929 . S
H596 C573 0.930 . S
H597 C574 0.929 . S
H598 C576 0.930 . S
H599 C577 0.929 . S
Nd600 C602 2.836 1_554 S
Nd600 O620 2.500 1_554 S
Nd600 O621 2.492 1_554 S
Nd600 O622 2.487 . S
Nd600 O623 2.682 . S
Nd600 O624 2.410 1_554 S
Nd600 O629 2.414 1_554 S
Nd600 O631 2.424 . S
Nd601 C611 2.836 1_556 S
Nd601 O623 2.414 1_556 S
Nd601 O625 2.424 . S
Nd601 O626 2.500 1_556 S
Nd601 O627 2.492 1_556 S
Nd601 O628 2.487 . S
Nd601 O629 2.682 . S
Nd601 O630 2.410 1_556 S
C602 Nd600 2.836 1_556 S
C602 C603 1.498 . S
C602 O620 1.258 . S
C602 O621 1.239 . S
C603 C602 1.498 . S
C603 C604 1.366 . S
C603 C608 1.407 . S
C604 C603 1.366 . S
C604 C605 1.392 . S
C604 H632 0.930 . S
C605 C604 1.392 . S
C605 C606 1.398 . S
C605 H633 0.929 . S
C606 C605 1.398 . S
C606 C607 1.352 . S
C607 C606 1.352 . S
C607 C608 1.384 . S
C607 H634 0.930 . S
C608 C603 1.407 . S
C608 C607 1.384 . S
C608 H635 0.929 . S
C609 O622 1.241 . S
C609 O623 1.273 . S
C610 O624 1.251 . S
C610 O625 1.268 . S
C611 Nd601 2.836 1_554 S
C611 C612 1.498 . S
C611 O626 1.258 . S
C611 O627 1.239 . S
C612 C611 1.498 . S
C612 C613 1.366 . S
C612 C617 1.407 . S
C613 C612 1.366 . S
C613 C614 1.392 . S
C613 H636 0.930 . S
C614 C613 1.392 . S
C614 C615 1.398 . S
C614 H637 0.929 . S
C615 C614 1.398 . S
C615 C616 1.352 . S
C616 C615 1.352 . S
C616 C617 1.384 . S
C616 H638 0.930 . S
C617 C612 1.407 . S
C617 C616 1.384 . S
C617 H639 0.929 . S
C618 O628 1.241 . S
C618 O629 1.273 . S
C619 O630 1.251 . S
C619 O631 1.268 . S
O620 Nd600 2.500 1_556 S
O620 C602 1.258 . S
O621 Nd600 2.492 1_556 S
O621 C602 1.239 . S
O622 Nd600 2.487 . S
O622 C609 1.241 . S
O623 Nd600 2.682 . S
O623 Nd601 2.414 1_554 S
O623 C609 1.273 . S
O624 Nd600 2.410 1_556 S
O624 C610 1.251 . S
O625 Nd601 2.424 . S
O625 C610 1.268 . S
O626 Nd601 2.500 1_554 S
O626 C611 1.258 . S
O627 Nd601 2.492 1_554 S
O627 C611 1.239 . S
O628 Nd601 2.487 . S
O628 C618 1.241 . S
O629 Nd600 2.414 1_556 S
O629 Nd601 2.682 . S
O629 C618 1.273 . S
O630 Nd601 2.410 1_554 S
O630 C619 1.251 . S
O631 Nd600 2.424 . S
O631 C619 1.268 . S
H632 C604 0.930 . S
H633 C605 0.929 . S
H634 C607 0.930 . S
H635 C608 0.929 . S
H636 C613 0.930 . S
H637 C614 0.929 . S
H638 C616 0.930 . S
H639 C617 0.929 . S
Nd640 C642 2.836 1_554 S
Nd640 O660 2.500 1_554 S
Nd640 O661 2.492 1_554 S
Nd640 O662 2.487 . S
Nd640 O663 2.682 . S
Nd640 O664 2.410 1_554 S
Nd640 O669 2.414 1_554 S
Nd640 O671 2.424 . S
Nd641 C651 2.836 1_556 S
Nd641 O663 2.414 1_556 S
Nd641 O665 2.424 . S
Nd641 O666 2.500 1_556 S
Nd641 O667 2.492 1_556 S
Nd641 O668 2.487 . S
Nd641 O669 2.682 . S
Nd641 O670 2.410 1_556 S
C642 Nd640 2.836 1_556 S
C642 C643 1.498 . S
C642 O660 1.258 . S
C642 O661 1.239 . S
C643 C642 1.498 . S
C643 C644 1.366 . S
C643 C648 1.407 . S
C644 C643 1.366 . S
C644 C645 1.392 . S
C644 H672 0.930 . S
C645 C644 1.392 . S
C645 C646 1.398 1_565 S
C645 H673 0.929 . S
C646 C645 1.398 1_545 S
C646 C647 1.352 . S
C647 C646 1.352 . S
C647 C648 1.384 1_545 S
C647 H674 0.930 . S
C648 C643 1.407 . S
C648 C647 1.384 1_565 S
C648 H675 0.929 . S
C649 O662 1.241 . S
C649 O663 1.273 . S
C650 O664 1.251 . S
C650 O665 1.268 . S
C651 Nd641 2.836 1_554 S
C651 C652 1.498 . S
C651 O666 1.258 . S
C651 O667 1.239 . S
C652 C651 1.498 . S
C652 C653 1.366 . S
C652 C657 1.407 . S
C653 C652 1.366 . S
C653 C654 1.392 . S
C653 H676 0.930 . S
C654 C653 1.392 . S
C654 C655 1.398 . S
C654 H677 0.929 . S
C655 C654 1.398 . S
C655 C656 1.352 . S
C656 C655 1.352 . S
C656 C657 1.384 . S
C656 H678 0.930 . S
C657 C652 1.407 . S
C657 C656 1.384 . S
C657 H679 0.929 . S
C658 O668 1.241 . S
C658 O669 1.273 . S
C659 O670 1.251 . S
C659 O671 1.268 . S
O660 Nd640 2.500 1_556 S
O660 C642 1.258 . S
O661 Nd640 2.492 1_556 S
O661 C642 1.239 . S
O662 Nd640 2.487 . S
O662 C649 1.241 . S
O663 Nd640 2.682 . S
O663 Nd641 2.414 1_554 S
O663 C649 1.273 . S
O664 Nd640 2.410 1_556 S
O664 C650 1.251 . S
O665 Nd641 2.424 . S
O665 C650 1.268 . S
O666 Nd641 2.500 1_554 S
O666 C651 1.258 . S
O667 Nd641 2.492 1_554 S
O667 C651 1.239 . S
O668 Nd641 2.487 . S
O668 C658 1.241 . S
O669 Nd640 2.414 1_556 S
O669 Nd641 2.682 . S
O669 C658 1.273 . S
O670 Nd641 2.410 1_554 S
O670 C659 1.251 . S
O671 Nd640 2.424 . S
O671 C659 1.268 . S
H672 C644 0.930 . S
H673 C645 0.929 . S
H674 C647 0.930 . S
H675 C648 0.929 . S
H676 C653 0.930 . S
H677 C654 0.929 . S
H678 C656 0.930 . S
H679 C657 0.929 . S
Nd680 C682 2.836 1_554 S
Nd680 O700 2.500 1_554 S
Nd680 O701 2.492 1_554 S
Nd680 O702 2.487 . S
Nd680 O703 2.682 . S
Nd680 O704 2.410 1_554 S
Nd680 O709 2.414 1_554 S
Nd680 O711 2.424 . S
Nd681 C691 2.836 1_556 S
Nd681 O703 2.414 1_556 S
Nd681 O705 2.424 . S
Nd681 O706 2.500 1_556 S
Nd681 O707 2.492 1_556 S
Nd681 O708 2.487 . S
Nd681 O709 2.682 . S
Nd681 O710 2.410 1_556 S
C682 Nd680 2.836 1_556 S
C682 C683 1.498 . S
C682 O700 1.258 . S
C682 O701 1.239 . S
C683 C682 1.498 . S
C683 C684 1.366 . S
C683 C688 1.407 . S
C684 C683 1.366 . S
C684 C685 1.392 . S
C684 H712 0.930 . S
C685 C684 1.392 . S
C685 C686 1.398 . S
C685 H713 0.929 . S
C686 C685 1.398 . S
C686 C687 1.352 . S
C687 C686 1.352 . S
C687 C688 1.384 . S
C687 H714 0.930 . S
C688 C683 1.407 . S
C688 C687 1.384 . S
C688 H715 0.929 . S
C689 O702 1.241 . S
C689 O703 1.273 . S
C690 O704 1.251 . S
C690 O705 1.268 . S
C691 Nd681 2.836 1_554 S
C691 C692 1.498 . S
C691 O706 1.258 . S
C691 O707 1.239 . S
C692 C691 1.498 . S
C692 C693 1.366 . S
C692 C697 1.407 . S
C693 C692 1.366 . S
C693 C694 1.392 . S
C693 H716 0.930 . S
C694 C693 1.392 . S
C694 C695 1.398 . S
C694 H717 0.929 . S
C695 C694 1.398 . S
C695 C696 1.352 . S
C696 C695 1.352 . S
C696 C697 1.384 . S
C696 H718 0.930 . S
C697 C692 1.407 . S
C697 C696 1.384 . S
C697 H719 0.929 . S
C698 O708 1.241 . S
C698 O709 1.273 . S
C699 O710 1.251 . S
C699 O711 1.268 . S
O700 Nd680 2.500 1_556 S
O700 C682 1.258 . S
O701 Nd680 2.492 1_556 S
O701 C682 1.239 . S
O702 Nd680 2.487 . S
O702 C689 1.241 . S
O703 Nd680 2.682 . S
O703 Nd681 2.414 1_554 S
O703 C689 1.273 . S
O704 Nd680 2.410 1_556 S
O704 C690 1.251 . S
O705 Nd681 2.424 . S
O705 C690 1.268 . S
O706 Nd681 2.500 1_554 S
O706 C691 1.258 . S
O707 Nd681 2.492 1_554 S
O707 C691 1.239 . S
O708 Nd681 2.487 . S
O708 C698 1.241 . S
O709 Nd680 2.414 1_556 S
O709 Nd681 2.682 . S
O709 C698 1.273 . S
O710 Nd681 2.410 1_554 S
O710 C699 1.251 . S
O711 Nd680 2.424 . S
O711 C699 1.268 . S
H712 C684 0.930 . S
H713 C685 0.929 . S
H714 C687 0.930 . S
H715 C688 0.929 . S
H716 C693 0.930 . S
H717 C694 0.929 . S
H718 C696 0.930 . S
H719 C697 0.929 . S
C720 C721 1.363 . S
C720 C726 1.379 . S
C720 N728 1.356 . S
C721 C720 1.363 . S
C721 C727 1.363 . S
C722 C723 1.363 . S
C722 C727 1.379 . S
C722 N729 1.356 . S
C723 C722 1.363 . S
C723 C726 1.363 . S
N724 C726 1.356 . S
N724 H736 0.984 . S
N724 H737 0.985 . S
N725 C727 1.356 . S
N725 H730 0.984 . S
N725 H731 0.985 . S
C726 C720 1.379 . S
C726 C723 1.363 . S
C726 N724 1.356 . S
C727 C721 1.363 . S
C727 C722 1.379 . S
C727 N725 1.356 . S
N728 C720 1.356 . S
N728 H734 0.984 . S
N728 H735 0.984 . S
N729 C722 1.356 . S
N729 H732 0.984 . S
N729 H733 0.985 . S
H730 N725 0.984 . S
H731 N725 0.985 . S
H732 N729 0.984 . S
H733 N729 0.985 . S
H734 N728 0.984 . S
H735 N728 0.984 . S
H736 N724 0.984 . S
H737 N724 0.985 . S
C738 C739 1.363 . S
C738 C744 1.379 . S
C738 N746 1.356 . S
C739 C738 1.363 . S
C739 C745 1.363 . S
C740 C741 1.363 . S
C740 C745 1.379 . S
C740 N747 1.356 . S
C741 C740 1.363 . S
C741 C744 1.363 . S
N742 C744 1.356 . S
N742 H754 0.984 . S
N742 H755 0.985 . S
N743 C745 1.356 . S
N743 H748 0.984 . S
N743 H749 0.985 . S
C744 C738 1.379 . S
C744 C741 1.363 . S
C744 N742 1.356 . S
C745 C739 1.363 . S
C745 C740 1.379 . S
C745 N743 1.356 . S
N746 C738 1.356 . S
N746 H752 0.984 . S
N746 H753 0.984 . S
N747 C740 1.356 . S
N747 H750 0.984 . S
N747 H751 0.985 . S
H748 N743 0.984 . S
H749 N743 0.985 . S
H750 N747 0.984 . S
H751 N747 0.985 . S
H752 N746 0.984 . S
H753 N746 0.984 . S
H754 N742 0.984 . S
H755 N742 0.985 . S
C756 C757 1.363 . S
C756 C762 1.379 . S
C756 N764 1.356 . S
C757 C756 1.363 . S
C757 C763 1.363 . S
C758 C759 1.363 . S
C758 C763 1.379 . S
C758 N765 1.356 . S
C759 C758 1.363 . S
C759 C762 1.363 . S
N760 C762 1.356 . S
N760 H772 0.984 . S
N760 H773 0.985 . S
N761 C763 1.356 . S
N761 H766 0.984 . S
N761 H767 0.985 . S
C762 C756 1.379 . S
C762 C759 1.363 . S
C762 N760 1.356 . S
C763 C757 1.363 . S
C763 C758 1.379 . S
C763 N761 1.356 . S
N764 C756 1.356 . S
N764 H770 0.984 . S
N764 H771 0.984 . S
N765 C758 1.356 . S
N765 H768 0.984 . S
N765 H769 0.985 . S
H766 N761 0.984 . S
H767 N761 0.985 . S
H768 N765 0.984 . S
H769 N765 0.985 . S
H770 N764 0.984 . S
H771 N764 0.984 . S
H772 N760 0.984 . S
H773 N760 0.985 . S
C774 C775 1.363 . S
C774 C780 1.379 . S
C774 N782 1.356 . S
C775 C774 1.363 . S
C775 C781 1.363 1_554 S
C776 C777 1.363 . S
C776 C781 1.379 . S
C776 N783 1.356 . S
C777 C776 1.363 . S
C777 C780 1.363 1_556 S
N778 C780 1.356 . S
N778 H790 0.984 . S
N778 H791 0.985 . S
N779 C781 1.356 . S
N779 H784 0.984 . S
N779 H785 0.985 . S
C780 C774 1.379 . S
C780 C777 1.363 1_554 S
C780 N778 1.356 . S
C781 C775 1.363 1_556 S
C781 C776 1.379 . S
C781 N779 1.356 . S
N782 C774 1.356 . S
N782 H788 0.984 . S
N782 H789 0.984 . S
N783 C776 1.356 . S
N783 H786 0.984 . S
N783 H787 0.985 . S
H784 N779 0.984 . S
H785 N779 0.985 . S
H786 N783 0.984 . S
H787 N783 0.985 . S
H788 N782 0.984 . S
H789 N782 0.984 . S
H790 N778 0.984 . S
H791 N778 0.985 . S
C792 C793 1.363 . S
C792 C798 1.379 . S
C792 N800 1.356 . S
C793 C792 1.363 . S
C793 C799 1.363 1_556 S
C794 C795 1.363 . S
C794 C799 1.379 . S
C794 N801 1.356 . S
C795 C794 1.363 . S
C795 C798 1.363 1_554 S
N796 C798 1.356 . S
N796 H808 0.984 . S
N796 H809 0.985 . S
N797 C799 1.356 . S
N797 H802 0.984 . S
N797 H803 0.985 . S
C798 C792 1.379 . S
C798 C795 1.363 1_556 S
C798 N796 1.356 . S
C799 C793 1.363 1_554 S
C799 C794 1.379 . S
C799 N797 1.356 . S
N800 C792 1.356 . S
N800 H806 0.984 . S
N800 H807 0.984 . S
N801 C794 1.356 . S
N801 H804 0.984 . S
N801 H805 0.985 . S
H802 N797 0.984 . S
H803 N797 0.985 . S
H804 N801 0.984 . S
H805 N801 0.985 . S
H806 N800 0.984 . S
H807 N800 0.984 . S
H808 N796 0.984 . S
H809 N796 0.985 . S
C810 C811 1.363 1_556 S
C810 C816 1.379 . S
C810 N818 1.356 . S
C811 C810 1.363 1_554 S
C811 C817 1.363 . S
C812 C813 1.363 1_554 S
C812 C817 1.379 . S
C812 N819 1.356 . S
C813 C812 1.363 1_556 S
C813 C816 1.363 . S
N814 C816 1.356 . S
N814 H826 0.984 . S
N814 H827 0.985 . S
N815 C817 1.356 . S
N815 H820 0.984 . S
N815 H821 0.985 . S
C816 C810 1.379 . S
C816 C813 1.363 . S
C816 N814 1.356 . S
C817 C811 1.363 . S
C817 C812 1.379 . S
C817 N815 1.356 . S
N818 C810 1.356 . S
N818 H824 0.984 . S
N818 H825 0.984 . S
N819 C812 1.356 . S
N819 H822 0.984 . S
N819 H823 0.985 . S
H820 N815 0.984 . S
H821 N815 0.985 . S
H822 N819 0.984 . S
H823 N819 0.985 . S
H824 N818 0.984 . S
H825 N818 0.984 . S
H826 N814 0.984 . S
H827 N814 0.985 . S
C828 C829 1.363 . S
C828 C834 1.379 . S
C828 N836 1.356 . S
C829 C828 1.363 . S
C829 C835 1.363 . S
C830 C831 1.363 . S
C830 C835 1.379 . S
C830 N837 1.356 . S
C831 C830 1.363 . S
C831 C834 1.363 . S
N832 C834 1.356 . S
N832 H844 0.984 . S
N832 H845 0.985 . S
N833 C835 1.356 . S
N833 H838 0.984 . S
N833 H839 0.985 . S
C834 C828 1.379 . S
C834 C831 1.363 . S
C834 N832 1.356 . S
C835 C829 1.363 . S
C835 C830 1.379 . S
C835 N833 1.356 . S
N836 C828 1.356 . S
N836 H842 0.984 . S
N836 H843 0.984 . S
N837 C830 1.356 . S
N837 H840 0.984 . S
N837 H841 0.985 . S
H838 N833 0.984 . S
H839 N833 0.985 . S
H840 N837 0.984 . S
H841 N837 0.985 . S
H842 N836 0.984 . S
H843 N836 0.984 . S
H844 N832 0.984 . S
H845 N832 0.985 . S
C846 C847 1.363 . S
C846 C852 1.379 . S
C846 N854 1.356 . S
C847 C846 1.363 . S
C847 C853 1.363 . S
C848 C849 1.363 . S
C848 C853 1.379 . S
C848 N855 1.356 . S
C849 C848 1.363 . S
C849 C852 1.363 . S
N850 C852 1.356 . S
N850 H862 0.984 . S
N850 H863 0.985 . S
N851 C853 1.356 . S
N851 H856 0.984 . S
N851 H857 0.985 . S
C852 C846 1.379 . S
C852 C849 1.363 . S
C852 N850 1.356 . S
C853 C847 1.363 . S
C853 C848 1.379 . S
C853 N851 1.356 . S
N854 C846 1.356 . S
N854 H860 0.984 . S
N854 H861 0.984 . S
N855 C848 1.356 . S
N855 H858 0.984 . S
N855 H859 0.985 . S
H856 N851 0.984 . S
H857 N851 0.985 . S
H858 N855 0.984 . S
H859 N855 0.985 . S
H860 N854 0.984 . S
H861 N854 0.984 . S
H862 N850 0.984 . S
H863 N850 0.985 . S
C864 C865 1.363 . S
C864 C870 1.379 . S
C864 N872 1.356 . S
C865 C864 1.363 . S
C865 C871 1.363 . S
C866 C867 1.363 . S
C866 C871 1.379 . S
C866 N873 1.356 . S
C867 C866 1.363 . S
C867 C870 1.363 . S
N868 C870 1.356 . S
N868 H880 0.984 . S
N868 H881 0.985 . S
N869 C871 1.356 . S
N869 H874 0.984 . S
N869 H875 0.985 . S
C870 C864 1.379 . S
C870 C867 1.363 . S
C870 N868 1.356 . S
C871 C865 1.363 . S
C871 C866 1.379 . S
C871 N869 1.356 . S
N872 C864 1.356 . S
N872 H878 0.984 . S
N872 H879 0.984 . S
N873 C866 1.356 . S
N873 H876 0.984 . S
N873 H877 0.985 . S
H874 N869 0.984 . S
H875 N869 0.985 . S
H876 N873 0.984 . S
H877 N873 0.985 . S
H878 N872 0.984 . S
H879 N872 0.984 . S
H880 N868 0.984 . S
H881 N868 0.985 . S
C882 C883 1.363 . S
C882 C888 1.379 . S
C882 N890 1.356 . S
C883 C882 1.363 . S
C883 C889 1.363 1_554 S
C884 C885 1.363 . S
C884 C889 1.379 . S
C884 N891 1.356 . S
C885 C884 1.363 . S
C885 C888 1.363 1_556 S
N886 C888 1.356 . S
N886 H898 0.984 . S
N886 H899 0.985 . S
N887 C889 1.356 . S
N887 H892 0.984 . S
N887 H893 0.985 . S
C888 C882 1.379 . S
C888 C885 1.363 1_554 S
C888 N886 1.356 . S
C889 C883 1.363 1_556 S
C889 C884 1.379 . S
C889 N887 1.356 . S
N890 C882 1.356 . S
N890 H896 0.984 . S
N890 H897 0.984 . S
N891 C884 1.356 . S
N891 H894 0.984 . S
N891 H895 0.985 . S
H892 N887 0.984 . S
H893 N887 0.985 . S
H894 N891 0.984 . S
H895 N891 0.985 . S
H896 N890 0.984 . S
H897 N890 0.984 . S
H898 N886 0.984 . S
H899 N886 0.985 . S
C900 C901 1.363 . S
C900 C906 1.379 . S
C900 N908 1.356 . S
C901 C900 1.363 . S
C901 C907 1.363 1_556 S
C902 C903 1.363 . S
C902 C907 1.379 . S
C902 N909 1.356 . S
C903 C902 1.363 . S
C903 C906 1.363 1_554 S
N904 C906 1.356 . S
N904 H916 0.984 . S
N904 H917 0.985 . S
N905 C907 1.356 . S
N905 H910 0.984 . S
N905 H911 0.985 . S
C906 C900 1.379 . S
C906 C903 1.363 1_556 S
C906 N904 1.356 . S
C907 C901 1.363 1_554 S
C907 C902 1.379 . S
C907 N905 1.356 . S
N908 C900 1.356 . S
N908 H914 0.984 . S
N908 H915 0.984 . S
N909 C902 1.356 . S
N909 H912 0.984 . S
N909 H913 0.985 . S
H910 N905 0.984 . S
H911 N905 0.985 . S
H912 N909 0.984 . S
H913 N909 0.985 . S
H914 N908 0.984 . S
H915 N908 0.984 . S
H916 N904 0.984 . S
H917 N904 0.985 . S
C918 C919 1.363 1_556 S
C918 C924 1.379 . S
C918 N926 1.356 . S
C919 C918 1.363 1_554 S
C919 C925 1.363 . S
C920 C921 1.363 1_554 S
C920 C925 1.379 . S
C920 N927 1.356 . S
C921 C920 1.363 1_556 S
C921 C924 1.363 . S
N922 C924 1.356 . S
N922 H934 0.984 . S
N922 H935 0.985 . S
N923 C925 1.356 . S
N923 H928 0.984 . S
N923 H929 0.985 . S
C924 C918 1.379 . S
C924 C921 1.363 . S
C924 N922 1.356 . S
C925 C919 1.363 . S
C925 C920 1.379 . S
C925 N923 1.356 . S
N926 C918 1.356 . S
N926 H932 0.984 . S
N926 H933 0.984 . S
N927 C920 1.356 . S
N927 H930 0.984 . S
N927 H931 0.985 . S
H928 N923 0.984 . S
H929 N923 0.985 . S
H930 N927 0.984 . S
H931 N927 0.985 . S
H932 N926 0.984 . S
H933 N926 0.984 . S
H934 N922 0.984 . S
H935 N922 0.985 . S
C936 C937 1.363 . S
C936 C942 1.379 . S
C936 N944 1.356 . S
C937 C936 1.363 . S
C937 C943 1.363 . S
C938 C939 1.363 . S
C938 C943 1.379 . S
C938 N945 1.356 . S
C939 C938 1.363 . S
C939 C942 1.363 . S
N940 C942 1.356 . S
N940 H952 0.984 . S
N940 H953 0.985 . S
N941 C943 1.356 . S
N941 H946 0.984 . S
N941 H947 0.985 . S
C942 C936 1.379 . S
C942 C939 1.363 . S
C942 N940 1.356 . S
C943 C937 1.363 . S
C943 C938 1.379 . S
C943 N941 1.356 . S
N944 C936 1.356 . S
N944 H950 0.984 . S
N944 H951 0.984 . S
N945 C938 1.356 . S
N945 H948 0.984 . S
N945 H949 0.985 . S
H946 N941 0.984 . S
H947 N941 0.985 . S
H948 N945 0.984 . S
H949 N945 0.985 . S
H950 N944 0.984 . S
H951 N944 0.984 . S
H952 N940 0.984 . S
H953 N940 0.985 . S
C954 C955 1.363 . S
C954 C960 1.379 . S
C954 N962 1.356 . S
C955 C954 1.363 . S
C955 C961 1.363 . S
C956 C957 1.363 . S
C956 C961 1.379 . S
C956 N963 1.356 . S
C957 C956 1.363 . S
C957 C960 1.363 . S
N958 C960 1.356 . S
N958 H970 0.984 . S
N958 H971 0.985 . S
N959 C961 1.356 . S
N959 H964 0.984 . S
N959 H965 0.985 . S
C960 C954 1.379 . S
C960 C957 1.363 . S
C960 N958 1.356 . S
C961 C955 1.363 . S
C961 C956 1.379 . S
C961 N959 1.356 . S
N962 C954 1.356 . S
N962 H968 0.984 . S
N962 H969 0.984 . S
N963 C956 1.356 . S
N963 H966 0.984 . S
N963 H967 0.985 . S
H964 N959 0.984 . S
H965 N959 0.985 . S
H966 N963 0.984 . S
H967 N963 0.985 . S
H968 N962 0.984 . S
H969 N962 0.984 . S
H970 N958 0.984 . S
H971 N958 0.985 . S
C972 C973 1.363 1_565 S
C972 C978 1.379 . S
C972 N980 1.356 1_565 S
C973 C972 1.363 1_545 S
C973 C979 1.363 1_545 S
C974 C975 1.363 . S
C974 C979 1.417 . S
C974 N981 1.356 . S
C975 C974 1.363 . S
C975 C978 1.363 . S
N976 C978 1.356 . S
N976 H988 0.984 . S
N976 H989 0.985 . S
N977 C979 1.314 1_545 S
N977 H982 0.984 . S
N977 H983 0.985 . S
C978 C972 1.379 . S
C978 C975 1.363 . S
C978 N976 1.356 . S
C979 C973 1.363 1_565 S
C979 C974 1.417 . S
C979 N977 1.314 1_565 S
N980 C972 1.356 1_545 S
N980 H986 1.008 . S
N980 H987 0.984 . S
N981 C974 1.356 . S
N981 H984 0.984 . S
N981 H985 0.985 . S
H982 N977 0.984 . S
H983 N977 0.985 . S
H984 N981 0.984 . S
H985 N981 0.985 . S
H986 N980 1.008 . S
H987 N980 0.984 . S
H988 N976 0.984 . S
H989 N976 0.985 . S
C990 C991 1.363 . S
C990 C996 1.379 . S
C990 N998 1.356 . S
C991 C990 1.363 . S
C991 C997 1.363 . S
C992 C993 1.363 . S
C992 C997 1.379 . S
C992 N999 1.356 . S
C993 C992 1.363 . S
C993 C996 1.363 . S
N994 C996 1.356 . S
N994 H1006 0.984 . S
N994 H1007 0.985 . S
N995 C997 1.356 . S
N995 H1000 0.984 . S
N995 H1001 0.985 . S
C996 C990 1.379 . S
C996 C993 1.363 . S
C996 N994 1.356 . S
C997 C991 1.363 . S
C997 C992 1.379 . S
C997 N995 1.356 . S
N998 C990 1.356 . S
N998 H1004 0.984 . S
N998 H1005 0.984 . S
N999 C992 1.356 . S
N999 H1002 0.984 . S
N999 H1003 0.985 . S
H1000 N995 0.984 . S
H1001 N995 0.985 . S
H1002 N999 0.984 . S
H1003 N999 0.985 . S
H1004 N998 0.984 . S
H1005 N998 0.984 . S
H1006 N994 0.984 . S
H1007 N994 0.985 . S
C1008 C1009 1.363 1_655 S
C1008 C1014 1.379 . S
C1008 N1016 1.356 1_655 S
C1009 C1008 1.363 1_455 S
C1009 C1015 1.375 . S
C1010 C1011 1.363 . S
C1010 C1015 1.361 1_655 S
C1010 N1017 1.356 . S
C1011 C1010 1.363 . S
C1011 C1014 1.363 . S
N1012 C1014 1.356 . S
N1012 H1024 0.984 . S
N1012 H1025 0.985 . S
N1013 C1015 1.368 . S
N1013 H1018 0.984 . S
N1013 H1019 0.985 . S
C1014 C1008 1.379 . S
C1014 C1011 1.363 . S
C1014 N1012 1.356 . S
C1015 C1009 1.375 . S
C1015 C1010 1.361 1_455 S
C1015 N1013 1.368 . S
N1016 C1008 1.356 1_455 S
N1016 H1022 0.984 . S
N1016 H1023 0.984 . S
N1017 C1010 1.356 . S
N1017 H1020 0.984 . S
N1017 H1021 0.985 . S
H1018 N1013 0.984 . S
H1019 N1013 0.985 . S
H1020 N1017 0.984 . S
H1021 N1017 0.985 . S
H1022 N1016 0.984 . S
H1023 N1016 0.984 . S
H1024 N1012 0.984 . S
H1025 N1012 0.985 . S
C1026 C1027 1.363 . S
C1026 C1032 1.379 . S
C1026 N1034 1.356 . S
C1027 C1026 1.363 . S
C1027 C1033 1.363 . S
C1028 C1029 1.363 . S
C1028 C1033 1.379 . S
C1028 N1035 1.356 . S
C1029 C1028 1.363 . S
C1029 C1032 1.363 . S
N1030 C1032 1.356 . S
N1030 H1042 0.984 . S
N1030 H1043 0.985 . S
N1031 C1033 1.356 . S
N1031 H1036 0.984 . S
N1031 H1037 0.985 . S
C1032 C1026 1.379 . S
C1032 C1029 1.363 . S
C1032 N1030 1.356 . S
C1033 C1027 1.363 . S
C1033 C1028 1.379 . S
C1033 N1031 1.356 . S
N1034 C1026 1.356 . S
N1034 H1040 0.984 . S
N1034 H1041 0.984 . S
N1035 C1028 1.356 . S
N1035 H1038 0.984 . S
N1035 H1039 0.985 . S
H1036 N1031 0.984 . S
H1037 N1031 0.985 . S
H1038 N1035 0.984 . S
H1039 N1035 0.985 . S
H1040 N1034 0.984 . S
H1041 N1034 0.984 . S
H1042 N1030 0.984 . S
H1043 N1030 0.985 . S
C1044 C1045 1.363 . S
C1044 C1050 1.379 . S
C1044 N1052 1.356 . S
C1045 C1044 1.363 . S
C1045 C1051 1.363 . S
C1046 C1047 1.363 . S
C1046 C1051 1.379 . S
C1046 N1053 1.356 . S
C1047 C1046 1.363 . S
C1047 C1050 1.363 . S
N1048 C1050 1.356 . S
N1048 H1060 0.984 . S
N1048 H1061 0.985 . S
N1049 C1051 1.356 . S
N1049 H1054 0.984 . S
N1049 H1055 0.985 . S
C1050 C1044 1.379 . S
C1050 C1047 1.363 . S
C1050 N1048 1.356 . S
C1051 C1045 1.363 . S
C1051 C1046 1.379 . S
C1051 N1049 1.356 . S
N1052 C1044 1.356 . S
N1052 H1058 0.984 . S
N1052 H1059 0.984 . S
N1053 C1046 1.356 . S
N1053 H1056 0.984 . S
N1053 H1057 0.985 . S
H1054 N1049 0.984 . S
H1055 N1049 0.985 . S
H1056 N1053 0.984 . S
H1057 N1053 0.985 . S
H1058 N1052 0.984 . S
H1059 N1052 0.984 . S
H1060 N1048 0.984 . S
H1061 N1048 0.985 . S
C1062 C1063 1.363 . S
C1062 C1068 1.379 . S
C1062 N1070 1.356 . S
C1063 C1062 1.363 . S
C1063 C1069 1.363 . S
C1064 C1065 1.363 . S
C1064 C1069 1.379 . S
C1064 N1071 1.356 . S
C1065 C1064 1.363 . S
C1065 C1068 1.363 . S
N1066 C1068 1.356 . S
N1066 H1078 0.984 . S
N1066 H1079 0.985 . S
N1067 C1069 1.356 . S
N1067 H1072 0.984 . S
N1067 H1073 0.985 . S
C1068 C1062 1.379 . S
C1068 C1065 1.363 . S
C1068 N1066 1.356 . S
C1069 C1063 1.363 . S
C1069 C1064 1.379 . S
C1069 N1067 1.356 . S
N1070 C1062 1.356 . S
N1070 H1076 0.984 . S
N1070 H1077 0.984 . S
N1071 C1064 1.356 . S
N1071 H1074 0.984 . S
N1071 H1075 0.985 . S
H1072 N1067 0.984 . S
H1073 N1067 0.985 . S
H1074 N1071 0.984 . S
H1075 N1071 0.985 . S
H1076 N1070 0.984 . S
H1077 N1070 0.984 . S
H1078 N1066 0.984 . S
H1079 N1066 0.985 . S
C1080 C1081 1.363 . S
C1080 C1086 1.379 . S
C1080 N1088 1.356 . S
C1081 C1080 1.363 . S
C1081 C1087 1.363 . S
C1082 C1083 1.363 . S
C1082 C1087 1.379 . S
C1082 N1089 1.356 . S
C1083 C1082 1.363 . S
C1083 C1086 1.363 . S
N1084 C1086 1.356 . S
N1084 H1096 0.984 . S
N1084 H1097 0.985 . S
N1085 C1087 1.356 . S
N1085 H1090 0.984 . S
N1085 H1091 0.985 . S
C1086 C1080 1.379 . S
C1086 C1083 1.363 . S
C1086 N1084 1.356 . S
C1087 C1081 1.363 . S
C1087 C1082 1.379 . S
C1087 N1085 1.356 . S
N1088 C1080 1.356 . S
N1088 H1094 0.984 . S
N1088 H1095 0.984 . S
N1089 C1082 1.356 . S
N1089 H1092 0.984 . S
N1089 H1093 0.985 . S
H1090 N1085 0.984 . S
H1091 N1085 0.985 . S
H1092 N1089 0.984 . S
H1093 N1089 0.985 . S
H1094 N1088 0.984 . S
H1095 N1088 0.984 . S
H1096 N1084 0.984 . S
H1097 N1084 0.985 . S
C1098 C1099 1.363 . S
C1098 C1104 1.379 . S
C1098 N1106 1.356 . S
C1099 C1098 1.363 . S
C1099 C1105 1.363 . S
C1100 C1101 1.363 . S
C1100 C1105 1.379 . S
C1100 N1107 1.356 . S
C1101 C1100 1.363 . S
C1101 C1104 1.363 . S
N1102 C1104 1.356 . S
N1102 H1114 0.984 . S
N1102 H1115 0.985 . S
N1103 C1105 1.356 . S
N1103 H1108 0.984 . S
N1103 H1109 0.985 . S
C1104 C1098 1.379 . S
C1104 C1101 1.363 . S
C1104 N1102 1.356 . S
C1105 C1099 1.363 . S
C1105 C1100 1.379 . S
C1105 N1103 1.356 . S
N1106 C1098 1.356 . S
N1106 H1112 0.984 . S
N1106 H1113 0.984 . S
N1107 C1100 1.356 . S
N1107 H1110 0.984 . S
N1107 H1111 0.985 . S
H1108 N1103 0.984 . S
H1109 N1103 0.985 . S
H1110 N1107 0.984 . S
H1111 N1107 0.985 . S
H1112 N1106 0.984 . S
H1113 N1106 0.984 . S
H1114 N1102 0.984 . S
H1115 N1102 0.985 . S
C1116 C1117 1.363 . S
C1116 C1122 1.379 . S
C1116 N1124 1.356 . S
C1117 C1116 1.363 . S
C1117 C1123 1.363 . S
C1118 C1119 1.363 . S
C1118 C1123 1.379 . S
C1118 N1125 1.356 . S
C1119 C1118 1.363 . S
C1119 C1122 1.363 . S
N1120 C1122 1.356 . S
N1120 H1132 0.984 . S
N1120 H1133 0.985 1_655 S
N1121 C1123 1.356 . S
N1121 H1126 0.984 . S
N1121 H1127 0.985 . S
C1122 C1116 1.379 . S
C1122 C1119 1.363 . S
C1122 N1120 1.356 . S
C1123 C1117 1.363 . S
C1123 C1118 1.379 . S
C1123 N1121 1.356 . S
N1124 C1116 1.356 . S
N1124 H1130 0.984 . S
N1124 H1131 0.984 . S
N1125 C1118 1.356 . S
N1125 H1128 0.984 . S
N1125 H1129 0.985 . S
H1126 N1121 0.984 . S
H1127 N1121 0.985 . S
H1128 N1125 0.984 . S
H1129 N1125 0.985 . S
H1130 N1124 0.984 . S
H1131 N1124 0.984 . S
H1132 N1120 0.984 . S
H1133 N1120 0.985 1_455 S
C1134 C1135 1.363 . S
C1134 C1140 1.379 . S
C1134 N1142 1.356 . S
C1135 C1134 1.363 . S
C1135 C1141 1.363 . S
C1136 C1137 1.363 . S
C1136 C1141 1.379 . S
C1136 N1143 1.356 . S
C1137 C1136 1.363 . S
C1137 C1140 1.363 . S
N1138 C1140 1.356 . S
N1138 H1150 0.984 . S
N1138 H1151 0.985 . S
N1139 C1141 1.356 . S
N1139 H1144 0.984 . S
N1139 H1145 0.985 . S
C1140 C1134 1.379 . S
C1140 C1137 1.363 . S
C1140 N1138 1.356 . S
C1141 C1135 1.363 . S
C1141 C1136 1.379 . S
C1141 N1139 1.356 . S
N1142 C1134 1.356 . S
N1142 H1148 0.984 . S
N1142 H1149 0.984 . S
N1143 C1136 1.356 . S
N1143 H1146 0.984 . S
N1143 H1147 0.985 . S
H1144 N1139 0.984 . S
H1145 N1139 0.985 . S
H1146 N1143 0.984 . S
H1147 N1143 0.985 . S
H1148 N1142 0.984 . S
H1149 N1142 0.984 . S
H1150 N1138 0.984 . S
H1151 N1138 0.985 . S
C1152 C1153 1.363 . S
C1152 C1158 1.379 . S
C1152 N1160 1.356 . S
C1153 C1152 1.363 . S
C1153 C1159 1.363 . S
C1154 C1155 1.363 . S
C1154 C1159 1.379 . S
C1154 N1161 1.356 . S
C1155 C1154 1.363 . S
C1155 C1158 1.363 . S
N1156 C1158 1.356 . S
N1156 H1168 0.984 . S
N1156 H1169 0.985 . S
N1157 C1159 1.356 . S
N1157 H1162 0.984 . S
N1157 H1163 0.985 . S
C1158 C1152 1.379 . S
C1158 C1155 1.363 . S
C1158 N1156 1.356 . S
C1159 C1153 1.363 . S
C1159 C1154 1.379 . S
C1159 N1157 1.356 . S
N1160 C1152 1.356 . S
N1160 H1166 0.984 . S
N1160 H1167 0.984 . S
N1161 C1154 1.356 . S
N1161 H1164 0.984 . S
N1161 H1165 0.985 . S
H1162 N1157 0.984 . S
H1163 N1157 0.985 . S
H1164 N1161 0.984 . S
H1165 N1161 0.985 . S
H1166 N1160 0.984 . S
H1167 N1160 0.984 . S
H1168 N1156 0.984 . S
H1169 N1156 0.985 . S
C1170 C1171 1.363 . S
C1170 C1176 1.379 . S
C1170 N1178 1.356 . S
C1171 C1170 1.363 . S
C1171 C1177 1.363 . S
C1172 C1173 1.363 . S
C1172 C1177 1.379 . S
C1172 N1179 1.356 . S
C1173 C1172 1.363 . S
C1173 C1176 1.363 . S
N1174 C1176 1.356 . S
N1174 H1186 0.984 . S
N1174 H1187 0.985 . S
N1175 C1177 1.356 . S
N1175 H1180 0.984 . S
N1175 H1181 0.985 . S
C1176 C1170 1.379 . S
C1176 C1173 1.363 . S
C1176 N1174 1.356 . S
C1177 C1171 1.363 . S
C1177 C1172 1.379 . S
C1177 N1175 1.356 . S
N1178 C1170 1.356 . S
N1178 H1184 0.984 . S
N1178 H1185 0.984 . S
N1179 C1172 1.356 . S
N1179 H1182 0.984 . S
N1179 H1183 0.985 . S
H1180 N1175 0.984 . S
H1181 N1175 0.985 . S
H1182 N1179 0.984 . S
H1183 N1179 0.985 . S
H1184 N1178 0.984 . S
H1185 N1178 0.984 . S
H1186 N1174 0.984 . S
H1187 N1174 0.985 . S
C1188 C1189 1.363 . S
C1188 C1194 1.379 . S
C1188 N1196 1.356 . S
C1189 C1188 1.363 . S
C1189 C1195 1.363 . S
C1190 C1191 1.363 . S
C1190 C1195 1.379 . S
C1190 N1197 1.356 . S
C1191 C1190 1.363 . S
C1191 C1194 1.363 . S
N1192 C1194 1.356 . S
N1192 H1204 0.984 . S
N1192 H1205 0.985 . S
N1193 C1195 1.356 . S
N1193 H1198 0.984 . S
N1193 H1199 0.985 . S
C1194 C1188 1.379 . S
C1194 C1191 1.363 . S
C1194 N1192 1.356 . S
C1195 C1189 1.363 . S
C1195 C1190 1.379 . S
C1195 N1193 1.356 . S
N1196 C1188 1.356 . S
N1196 H1202 0.984 . S
N1196 H1203 0.984 . S
N1197 C1190 1.356 . S
N1197 H1200 0.984 . S
N1197 H1201 0.985 . S
H1198 N1193 0.984 . S
H1199 N1193 0.985 . S
H1200 N1197 0.984 . S
H1201 N1197 0.985 . S
H1202 N1196 0.984 . S
H1203 N1196 0.984 . S
H1204 N1192 0.984 . S
H1205 N1192 0.985 . S
C1206 C1207 1.363 1_554 S
C1206 C1212 1.379 . S
C1206 N1214 1.356 . S
C1207 C1206 1.363 1_556 S
C1207 C1213 1.363 . S
C1208 C1209 1.363 1_556 S
C1208 C1213 1.379 . S
C1208 N1215 1.356 . S
C1209 C1208 1.363 1_554 S
C1209 C1212 1.363 . S
N1210 C1212 1.356 . S
N1210 H1222 0.984 . S
N1210 H1223 0.985 . S
N1211 C1213 1.356 . S
N1211 H1216 0.984 . S
N1211 H1217 0.985 . S
C1212 C1206 1.379 . S
C1212 C1209 1.363 . S
C1212 N1210 1.356 . S
C1213 C1207 1.363 . S
C1213 C1208 1.379 . S
C1213 N1211 1.356 . S
N1214 C1206 1.356 . S
N1214 H1220 0.984 . S
N1214 H1221 0.984 . S
N1215 C1208 1.356 . S
N1215 H1218 0.984 . S
N1215 H1219 0.985 . S
H1216 N1211 0.984 . S
H1217 N1211 0.985 . S
H1218 N1215 0.984 . S
H1219 N1215 0.985 . S
H1220 N1214 0.984 . S
H1221 N1214 0.984 . S
H1222 N1210 0.984 . S
H1223 N1210 0.985 . S
C1224 C1225 1.363 . S
C1224 C1230 1.379 . S
C1224 N1232 1.356 . S
C1225 C1224 1.363 . S
C1225 C1231 1.363 1_556 S
C1226 C1227 1.363 . S
C1226 C1231 1.379 . S
C1226 N1233 1.356 . S
C1227 C1226 1.363 . S
C1227 C1230 1.363 1_554 S
N1228 C1230 1.356 . S
N1228 H1240 0.984 . S
N1228 H1241 0.985 . S
N1229 C1231 1.356 . S
N1229 H1234 0.984 . S
N1229 H1235 0.985 . S
C1230 C1224 1.379 . S
C1230 C1227 1.363 1_556 S
C1230 N1228 1.356 . S
C1231 C1225 1.363 1_554 S
C1231 C1226 1.379 . S
C1231 N1229 1.356 . S
N1232 C1224 1.356 . S
N1232 H1238 0.984 . S
N1232 H1239 0.984 . S
N1233 C1226 1.356 . S
N1233 H1236 0.984 . S
N1233 H1237 0.985 . S
H1234 N1229 0.984 . S
H1235 N1229 0.985 . S
H1236 N1233 0.984 . S
H1237 N1233 0.985 . S
H1238 N1232 0.984 . S
H1239 N1232 0.984 . S
H1240 N1228 0.984 . S
H1241 N1228 0.985 . S
C1242 C1243 1.363 . S
C1242 C1248 1.379 . S
C1242 N1250 1.356 . S
C1243 C1242 1.363 . S
C1243 C1249 1.363 1_556 S
C1244 C1245 1.363 . S
C1244 C1249 1.379 . S
C1244 N1251 1.356 . S
C1245 C1244 1.363 . S
C1245 C1248 1.363 1_554 S
N1246 C1248 1.356 . S
N1246 H1258 0.984 . S
N1246 H1259 0.985 . S
N1247 C1249 1.356 . S
N1247 H1252 0.984 . S
N1247 H1253 0.985 . S
C1248 C1242 1.379 . S
C1248 C1245 1.363 1_556 S
C1248 N1246 1.356 . S
C1249 C1243 1.363 1_554 S
C1249 C1244 1.379 . S
C1249 N1247 1.356 . S
N1250 C1242 1.356 . S
N1250 H1256 0.984 . S
N1250 H1257 0.984 . S
N1251 C1244 1.356 . S
N1251 H1254 0.984 . S
N1251 H1255 0.985 . S
H1252 N1247 0.984 . S
H1253 N1247 0.985 . S
H1254 N1251 0.984 . S
H1255 N1251 0.985 . S
H1256 N1250 0.984 . S
H1257 N1250 0.984 . S
H1258 N1246 0.984 . S
H1259 N1246 0.985 . S
C1260 C1261 1.363 1_554 S
C1260 C1266 1.379 . S
C1260 N1268 1.356 . S
C1261 C1260 1.363 1_556 S
C1261 C1267 1.363 . S
C1262 C1263 1.363 1_556 S
C1262 C1267 1.379 . S
C1262 N1269 1.356 . S
C1263 C1262 1.363 1_554 S
C1263 C1266 1.363 . S
N1264 C1266 1.356 . S
N1264 H1276 0.984 . S
N1264 H1277 0.985 . S
N1265 C1267 1.356 . S
N1265 H1270 0.984 . S
N1265 H1271 0.985 . S
C1266 C1260 1.379 . S
C1266 C1263 1.363 . S
C1266 N1264 1.356 . S
C1267 C1261 1.363 . S
C1267 C1262 1.379 . S
C1267 N1265 1.356 . S
N1268 C1260 1.356 . S
N1268 H1274 0.984 . S
N1268 H1275 0.984 . S
N1269 C1262 1.356 . S
N1269 H1272 0.984 . S
N1269 H1273 0.985 . S
H1270 N1265 0.984 . S
H1271 N1265 0.985 . S
H1272 N1269 0.984 . S
H1273 N1269 0.985 . S
H1274 N1268 0.984 . S
H1275 N1268 0.984 . S
H1276 N1264 0.984 . S
H1277 N1264 0.985 . S
C1278 C1279 1.363 1_554 S
C1278 C1284 1.379 . S
C1278 N1286 1.356 . S
C1279 C1278 1.363 1_556 S
C1279 C1285 1.363 . S
C1280 C1281 1.363 1_556 S
C1280 C1285 1.379 . S
C1280 N1287 1.356 . S
C1281 C1280 1.363 1_554 S
C1281 C1284 1.363 . S
N1282 C1284 1.356 . S
N1282 H1294 0.984 . S
N1282 H1295 0.985 . S
N1283 C1285 1.356 . S
N1283 H1288 0.984 . S
N1283 H1289 0.985 . S
C1284 C1278 1.379 . S
C1284 C1281 1.363 . S
C1284 N1282 1.356 . S
C1285 C1279 1.363 . S
C1285 C1280 1.379 . S
C1285 N1283 1.356 . S
N1286 C1278 1.356 . S
N1286 H1292 0.984 . S
N1286 H1293 0.984 . S
N1287 C1280 1.356 . S
N1287 H1290 0.984 . S
N1287 H1291 0.985 . S
H1288 N1283 0.984 . S
H1289 N1283 0.985 . S
H1290 N1287 0.984 . S
H1291 N1287 0.985 . S
H1292 N1286 0.984 . S
H1293 N1286 0.984 . S
H1294 N1282 0.984 . S
H1295 N1282 0.985 . S
C1296 C1297 1.363 1_556 S
C1296 C1302 1.379 . S
C1296 N1304 1.356 . S
C1297 C1296 1.363 1_554 S
C1297 C1303 1.363 . S
C1298 C1299 1.363 1_554 S
C1298 C1303 1.379 . S
C1298 N1305 1.356 . S
C1299 C1298 1.363 1_556 S
C1299 C1302 1.363 . S
N1300 C1302 1.356 . S
N1300 H1312 0.984 . S
N1300 H1313 0.985 . S
N1301 C1303 1.356 . S
N1301 H1306 0.984 . S
N1301 H1307 0.985 . S
C1302 C1296 1.379 . S
C1302 C1299 1.363 . S
C1302 N1300 1.356 . S
C1303 C1297 1.363 . S
C1303 C1298 1.379 . S
C1303 N1301 1.356 . S
N1304 C1296 1.356 . S
N1304 H1310 0.984 . S
N1304 H1311 0.984 . S
N1305 C1298 1.356 . S
N1305 H1308 0.984 . S
N1305 H1309 0.985 . S
H1306 N1301 0.984 . S
H1307 N1301 0.985 . S
H1308 N1305 0.984 . S
H1309 N1305 0.985 . S
H1310 N1304 0.984 . S
H1311 N1304 0.984 . S
H1312 N1300 0.984 . S
H1313 N1300 0.985 . S
C1314 C1315 1.363 . S
C1314 C1320 1.379 . S
C1314 N1322 1.356 . S
C1315 C1314 1.363 . S
C1315 C1321 1.363 . S
C1316 C1317 1.363 . S
C1316 C1321 1.379 . S
C1316 N1323 1.356 . S
C1317 C1316 1.363 . S
C1317 C1320 1.363 . S
N1318 C1320 1.356 . S
N1318 H1330 0.984 . S
N1318 H1331 0.985 . S
N1319 C1321 1.356 . S
N1319 H1324 0.984 . S
N1319 H1325 0.985 . S
C1320 C1314 1.379 . S
C1320 C1317 1.363 . S
C1320 N1318 1.356 . S
C1321 C1315 1.363 . S
C1321 C1316 1.379 . S
C1321 N1319 1.356 . S
N1322 C1314 1.356 . S
N1322 H1328 0.984 . S
N1322 H1329 0.984 . S
N1323 C1316 1.356 . S
N1323 H1326 0.984 . S
N1323 H1327 0.985 . S
H1324 N1319 0.984 . S
H1325 N1319 0.985 . S
H1326 N1323 0.984 . S
H1327 N1323 0.985 . S
H1328 N1322 0.984 . S
H1329 N1322 0.984 . S
H1330 N1318 0.984 . S
H1331 N1318 0.985 . S
C1332 C1333 1.363 . S
C1332 C1338 1.379 . S
C1332 N1340 1.356 . S
C1333 C1332 1.363 . S
C1333 C1339 1.363 . S
C1334 C1335 1.363 . S
C1334 C1339 1.379 . S
C1334 N1341 1.356 . S
C1335 C1334 1.363 . S
C1335 C1338 1.363 . S
N1336 C1338 1.356 . S
N1336 H1348 0.984 . S
N1336 H1349 0.985 . S
N1337 C1339 1.356 . S
N1337 H1342 0.984 . S
N1337 H1343 0.985 . S
C1338 C1332 1.379 . S
C1338 C1335 1.363 . S
C1338 N1336 1.356 . S
C1339 C1333 1.363 . S
C1339 C1334 1.379 . S
C1339 N1337 1.356 . S
N1340 C1332 1.356 . S
N1340 H1346 0.984 . S
N1340 H1347 0.984 . S
N1341 C1334 1.356 . S
N1341 H1344 0.984 . S
N1341 H1345 0.985 . S
H1342 N1337 0.984 . S
H1343 N1337 0.985 . S
H1344 N1341 0.984 . S
H1345 N1341 0.985 . S
H1346 N1340 0.984 . S
H1347 N1340 0.984 . S
H1348 N1336 0.984 . S
H1349 N1336 0.985 . S
C1350 C1351 1.363 . S
C1350 C1356 1.379 . S
C1350 N1358 1.356 . S
C1351 C1350 1.363 . S
C1351 C1357 1.363 . S
C1352 C1353 1.363 . S
C1352 C1357 1.379 . S
C1352 N1359 1.356 . S
C1353 C1352 1.363 . S
C1353 C1356 1.363 . S
N1354 C1356 1.356 . S
N1354 H1366 0.984 . S
N1354 H1367 0.985 . S
N1355 C1357 1.356 . S
N1355 H1360 0.984 . S
N1355 H1361 0.985 . S
C1356 C1350 1.379 . S
C1356 C1353 1.363 . S
C1356 N1354 1.356 . S
C1357 C1351 1.363 . S
C1357 C1352 1.379 . S
C1357 N1355 1.356 . S
N1358 C1350 1.356 . S
N1358 H1364 0.984 . S
N1358 H1365 0.984 . S
N1359 C1352 1.356 . S
N1359 H1362 0.984 . S
N1359 H1363 0.985 . S
H1360 N1355 0.984 . S
H1361 N1355 0.985 . S
H1362 N1359 0.984 . S
H1363 N1359 0.985 . S
H1364 N1358 0.984 . S
H1365 N1358 0.984 . S
H1366 N1354 0.984 . S
H1367 N1354 0.985 . S
C1368 C1369 1.363 . S
C1368 C1374 1.379 . S
C1368 N1376 1.356 . S
C1369 C1368 1.363 . S
C1369 C1375 1.363 . S
C1370 C1371 1.363 . S
C1370 C1375 1.379 . S
C1370 N1377 1.356 . S
C1371 C1370 1.363 . S
C1371 C1374 1.363 . S
N1372 C1374 1.356 . S
N1372 H1384 0.984 . S
N1372 H1385 0.985 . S
N1373 C1375 1.356 . S
N1373 H1378 0.984 . S
N1373 H1379 0.985 . S
C1374 C1368 1.379 . S
C1374 C1371 1.363 . S
C1374 N1372 1.356 . S
C1375 C1369 1.363 . S
C1375 C1370 1.379 . S
C1375 N1373 1.356 . S
N1376 C1368 1.356 . S
N1376 H1382 0.984 . S
N1376 H1383 0.984 . S
N1377 C1370 1.356 . S
N1377 H1380 0.984 1_554 S
N1377 H1381 0.985 . S
H1378 N1373 0.984 . S
H1379 N1373 0.985 . S
H1380 N1377 0.984 1_556 S
H1381 N1377 0.985 . S
H1382 N1376 0.984 . S
H1383 N1376 0.984 . S
H1384 N1372 0.984 . S
H1385 N1372 0.985 . S
C1386 C1387 1.363 . S
C1386 C1392 1.379 . S
C1386 N1394 1.356 . S
C1387 C1386 1.363 . S
C1387 C1393 1.363 . S
C1388 C1389 1.363 . S
C1388 C1393 1.379 . S
C1388 N1395 1.356 . S
C1389 C1388 1.363 . S
C1389 C1392 1.363 . S
N1390 C1392 1.356 . S
N1390 H1402 0.984 . S
N1390 H1403 0.985 . S
N1391 C1393 1.356 . S
N1391 H1396 0.984 . S
N1391 H1397 0.985 . S
C1392 C1386 1.379 . S
C1392 C1389 1.363 . S
C1392 N1390 1.356 . S
C1393 C1387 1.363 . S
C1393 C1388 1.379 . S
C1393 N1391 1.356 . S
N1394 C1386 1.356 . S
N1394 H1400 0.984 . S
N1394 H1401 0.984 . S
N1395 C1388 1.356 . S
N1395 H1398 0.984 1_554 S
N1395 H1399 0.985 . S
H1396 N1391 0.984 . S
H1397 N1391 0.985 . S
H1398 N1395 0.984 1_556 S
H1399 N1395 0.985 . S
H1400 N1394 0.984 . S
H1401 N1394 0.984 . S
H1402 N1390 0.984 . S
H1403 N1390 0.985 . S
C1404 C1405 1.363 . S
C1404 C1410 1.379 . S
C1404 N1412 1.354 1_545 S
C1405 C1404 1.363 . S
C1405 C1411 1.363 . S
C1406 C1407 1.363 . S
C1406 C1411 1.379 . S
C1406 N1413 1.356 . S
C1407 C1406 1.363 . S
C1407 C1410 1.363 . S
N1408 C1410 1.356 . S
N1408 H1420 0.984 . S
N1408 H1421 0.985 1_554 S
N1409 C1411 1.356 . S
N1409 H1414 0.984 . S
N1409 H1415 0.985 . S
C1410 C1404 1.379 . S
C1410 C1407 1.363 . S
C1410 N1408 1.356 . S
C1411 C1405 1.363 . S
C1411 C1406 1.379 . S
C1411 N1409 1.356 . S
N1412 C1404 1.354 1_565 S
N1412 H1418 0.984 . S
N1412 H1419 0.988 . S
N1413 C1406 1.356 . S
N1413 H1416 0.984 . S
N1413 H1417 0.985 . S
H1414 N1409 0.984 . S
H1415 N1409 0.985 . S
H1416 N1413 0.984 . S
H1417 N1413 0.985 . S
H1418 N1412 0.984 . S
H1419 N1412 0.988 . S
H1420 N1408 0.984 . S
H1421 N1408 0.985 1_556 S
C1422 C1423 1.363 . S
C1422 C1428 1.379 . S
C1422 N1430 1.356 . S
C1423 C1422 1.363 . S
C1423 C1429 1.363 . S
C1424 C1425 1.363 . S
C1424 C1429 1.379 . S
C1424 N1431 1.357 1_455 S
C1425 C1424 1.363 . S
C1425 C1428 1.363 . S
N1426 C1428 1.356 . S
N1426 H1438 0.984 . S
N1426 H1439 0.975 1_556 S
N1427 C1429 1.356 1_655 S
N1427 H1432 0.984 . S
N1427 H1433 0.985 . S
C1428 C1422 1.379 . S
C1428 C1425 1.363 . S
C1428 N1426 1.356 . S
C1429 C1423 1.363 . S
C1429 C1424 1.379 . S
C1429 N1427 1.356 1_455 S
N1430 C1422 1.356 . S
N1430 H1436 0.984 . S
N1430 H1437 0.984 . S
N1431 C1424 1.357 1_655 S
N1431 H1434 0.987 1_656 S
N1431 H1435 0.981 . S
H1432 N1427 0.984 . S
H1433 N1427 0.985 . S
H1434 N1431 0.987 1_454 S
H1435 N1431 0.981 . S
H1436 N1430 0.984 . S
H1437 N1430 0.984 . S
H1438 N1426 0.984 . S
H1439 N1426 0.975 1_554 S
C1440 C1441 1.363 . S
C1440 C1446 1.379 . S
C1440 N1448 1.356 . S
C1441 C1440 1.363 . S
C1441 C1447 1.363 . S
C1442 C1443 1.363 . S
C1442 C1447 1.379 . S
C1442 N1449 1.356 . S
C1443 C1442 1.363 . S
C1443 C1446 1.363 . S
N1444 C1446 1.356 . S
N1444 H1456 0.984 . S
N1444 H1457 0.985 . S
N1445 C1447 1.356 . S
N1445 H1450 0.984 . S
N1445 H1451 0.985 . S
C1446 C1440 1.379 . S
C1446 C1443 1.363 . S
C1446 N1444 1.356 . S
C1447 C1441 1.363 . S
C1447 C1442 1.379 . S
C1447 N1445 1.356 . S
N1448 C1440 1.356 . S
N1448 H1454 0.984 . S
N1448 H1455 0.984 1_556 S
N1449 C1442 1.356 . S
N1449 H1452 0.984 . S
N1449 H1453 0.985 . S
H1450 N1445 0.984 . S
H1451 N1445 0.985 . S
H1452 N1449 0.984 . S
H1453 N1449 0.985 . S
H1454 N1448 0.984 . S
H1455 N1448 0.984 1_554 S
H1456 N1444 0.984 . S
H1457 N1444 0.985 . S
C1458 C1459 1.363 . S
C1458 C1464 1.379 . S
C1458 N1466 1.356 1_545 S
C1459 C1458 1.363 . S
C1459 C1465 1.363 . S
C1460 C1461 1.363 . S
C1460 C1465 1.379 . S
C1460 N1467 1.356 . S
C1461 C1460 1.363 . S
C1461 C1464 1.363 . S
N1462 C1464 1.356 . S
N1462 H1474 0.984 1_545 S
N1462 H1475 0.985 . S
N1463 C1465 1.356 . S
N1463 H1468 0.984 1_556 S
N1463 H1469 0.985 . S
C1464 C1458 1.379 . S
C1464 C1461 1.363 . S
C1464 N1462 1.356 . S
C1465 C1459 1.363 . S
C1465 C1460 1.379 . S
C1465 N1463 1.356 . S
N1466 C1458 1.356 1_565 S
N1466 H1472 0.984 . S
N1466 H1473 0.984 1_556 S
N1467 C1460 1.356 . S
N1467 H1470 0.984 . S
N1467 H1471 0.985 . S
H1468 N1463 0.984 1_554 S
H1469 N1463 0.985 . S
H1470 N1467 0.984 . S
H1471 N1467 0.985 . S
H1472 N1466 0.984 . S
H1473 N1466 0.984 1_554 S
H1474 N1462 0.984 1_565 S
H1475 N1462 0.985 . S
C1476 C1477 1.363 . S
C1476 C1482 1.379 . S
C1476 N1484 1.356 . S
C1477 C1476 1.363 . S
C1477 C1483 1.363 . S
C1478 C1479 1.363 . S
C1478 C1483 1.379 . S
C1478 N1485 1.356 . S
C1479 C1478 1.363 . S
C1479 C1482 1.363 . S
N1480 C1482 1.356 . S
N1480 H1492 0.984 . S
N1480 H1493 0.985 . S
N1481 C1483 1.356 . S
N1481 H1486 0.984 . S
N1481 H1487 0.985 . S
C1482 C1476 1.379 . S
C1482 C1479 1.363 . S
C1482 N1480 1.356 . S
C1483 C1477 1.363 . S
C1483 C1478 1.379 . S
C1483 N1481 1.356 . S
N1484 C1476 1.356 . S
N1484 H1490 0.984 . S
N1484 H1491 0.984 . S
N1485 C1478 1.356 . S
N1485 H1488 0.984 . S
N1485 H1489 0.985 . S
H1486 N1481 0.984 . S
H1487 N1481 0.985 . S
H1488 N1485 0.984 . S
H1489 N1485 0.985 . S
H1490 N1484 0.984 . S
H1491 N1484 0.984 . S
H1492 N1480 0.984 . S
H1493 N1480 0.985 . S
C1494 C1495 1.363 . S
C1494 C1500 1.379 . S
C1494 N1502 1.356 . S
C1495 C1494 1.363 . S
C1495 C1501 1.363 . S
C1496 C1497 1.363 . S
C1496 C1501 1.379 . S
C1496 N1503 1.356 . S
C1497 C1496 1.363 . S
C1497 C1500 1.363 . S
N1498 C1500 1.356 . S
N1498 H1510 0.984 . S
N1498 H1511 0.985 . S
N1499 C1501 1.356 . S
N1499 H1504 0.984 . S
N1499 H1505 0.985 . S
C1500 C1494 1.379 . S
C1500 C1497 1.363 . S
C1500 N1498 1.356 . S
C1501 C1495 1.363 . S
C1501 C1496 1.379 . S
C1501 N1499 1.356 . S
N1502 C1494 1.356 . S
N1502 H1508 0.984 . S
N1502 H1509 0.984 . S
N1503 C1496 1.356 . S
N1503 H1506 0.984 . S
N1503 H1507 0.985 . S
H1504 N1499 0.984 . S
H1505 N1499 0.985 . S
H1506 N1503 0.984 . S
H1507 N1503 0.985 . S
H1508 N1502 0.984 . S
H1509 N1502 0.984 . S
H1510 N1498 0.984 . S
H1511 N1498 0.985 . S
C1512 C1513 1.363 . S
C1512 C1518 1.379 . S
C1512 N1520 1.356 . S
C1513 C1512 1.363 . S
C1513 C1519 1.363 . S
C1514 C1515 1.363 . S
C1514 C1519 1.379 . S
C1514 N1521 1.356 . S
C1515 C1514 1.363 . S
C1515 C1518 1.363 . S
N1516 C1518 1.356 . S
N1516 H1528 0.984 . S
N1516 H1529 0.985 . S
N1517 C1519 1.356 . S
N1517 H1522 0.984 . S
N1517 H1523 0.985 . S
C1518 C1512 1.379 . S
C1518 C1515 1.363 . S
C1518 N1516 1.356 . S
C1519 C1513 1.363 . S
C1519 C1514 1.379 . S
C1519 N1517 1.356 . S
N1520 C1512 1.356 . S
N1520 H1526 0.984 . S
N1520 H1527 0.984 . S
N1521 C1514 1.356 . S
N1521 H1524 0.984 . S
N1521 H1525 0.985 . S
H1522 N1517 0.984 . S
H1523 N1517 0.985 . S
H1524 N1521 0.984 . S
H1525 N1521 0.985 . S
H1526 N1520 0.984 . S
H1527 N1520 0.984 . S
H1528 N1516 0.984 . S
H1529 N1516 0.985 . S
C1530 C1531 1.363 . S
C1530 C1536 1.379 . S
C1530 N1538 1.356 1_554 S
C1531 C1530 1.363 . S
C1531 C1537 1.363 . S
C1532 C1533 1.363 . S
C1532 C1537 1.379 . S
C1532 N1539 1.356 . S
C1533 C1532 1.363 . S
C1533 C1536 1.363 . S
N1534 C1536 1.356 . S
N1534 H1546 0.984 . S
N1534 H1547 0.985 . S
N1535 C1537 1.356 . S
N1535 H1540 0.984 1_554 S
N1535 H1541 0.985 . S
C1536 C1530 1.379 . S
C1536 C1533 1.363 . S
C1536 N1534 1.356 . S
C1537 C1531 1.363 . S
C1537 C1532 1.379 . S
C1537 N1535 1.356 . S
N1538 C1530 1.356 1_556 S
N1538 H1544 0.984 . S
N1538 H1545 0.984 . S
N1539 C1532 1.356 . S
N1539 H1542 0.984 . S
N1539 H1543 0.985 . S
H1540 N1535 0.984 1_556 S
H1541 N1535 0.985 . S
H1542 N1539 0.984 . S
H1543 N1539 0.985 . S
H1544 N1538 0.984 . S
H1545 N1538 0.984 . S
H1546 N1534 0.984 . S
H1547 N1534 0.985 . S
C1548 C1549 1.363 . S
C1548 C1554 1.379 . S
C1548 N1556 1.356 . S
C1549 C1548 1.363 . S
C1549 C1555 1.363 . S
C1550 C1551 1.363 . S
C1550 C1555 1.379 . S
C1550 N1557 1.356 . S
C1551 C1550 1.363 . S
C1551 C1554 1.363 . S
N1552 C1554 1.356 . S
N1552 H1564 0.984 . S
N1552 H1565 0.985 . S
N1553 C1555 1.356 1_556 S
N1553 H1558 0.984 . S
N1553 H1559 0.985 . S
C1554 C1548 1.379 . S
C1554 C1551 1.363 . S
C1554 N1552 1.356 . S
C1555 C1549 1.363 . S
C1555 C1550 1.379 . S
C1555 N1553 1.356 1_554 S
N1556 C1548 1.356 . S
N1556 H1562 0.984 . S
N1556 H1563 0.984 1_554 S
N1557 C1550 1.356 . S
N1557 H1560 0.984 . S
N1557 H1561 0.985 . S
H1558 N1553 0.984 . S
H1559 N1553 0.985 . S
H1560 N1557 0.984 . S
H1561 N1557 0.985 . S
H1562 N1556 0.984 . S
H1563 N1556 0.984 1_556 S
H1564 N1552 0.984 . S
H1565 N1552 0.985 . S
C1566 C1567 1.363 . S
C1566 C1572 1.379 . S
C1566 N1574 1.356 . S
C1567 C1566 1.363 . S
C1567 C1573 1.363 . S
C1568 C1569 1.363 . S
C1568 C1573 1.379 . S
C1568 N1575 1.356 . S
C1569 C1568 1.363 . S
C1569 C1572 1.363 . S
N1570 C1572 1.356 . S
N1570 H1582 0.984 . S
N1570 H1583 0.985 . S
N1571 C1573 1.356 1_556 S
N1571 H1576 0.984 . S
N1571 H1577 0.985 . S
C1572 C1566 1.379 . S
C1572 C1569 1.363 . S
C1572 N1570 1.356 . S
C1573 C1567 1.363 . S
C1573 C1568 1.379 . S
C1573 N1571 1.356 1_554 S
N1574 C1566 1.356 . S
N1574 H1580 0.984 . S
N1574 H1581 0.984 1_554 S
N1575 C1568 1.356 . S
N1575 H1578 0.984 . S
N1575 H1579 0.985 . S
H1576 N1571 0.984 . S
H1577 N1571 0.985 . S
H1578 N1575 0.984 . S
H1579 N1575 0.985 . S
H1580 N1574 0.984 . S
H1581 N1574 0.984 1_556 S
H1582 N1570 0.984 . S
H1583 N1570 0.985 . S
C1584 C1585 1.363 . S
C1584 C1590 1.379 . S
C1584 N1592 1.356 . S
C1585 C1584 1.363 . S
C1585 C1591 1.363 . S
C1586 C1587 1.363 . S
C1586 C1591 1.379 . S
C1586 N1593 1.356 . S
C1587 C1586 1.363 . S
C1587 C1590 1.363 . S
N1588 C1590 1.356 1_554 S
N1588 H1600 0.984 . S
N1588 H1601 0.985 . S
N1589 C1591 1.356 . S
N1589 H1594 0.984 . S
N1589 H1595 0.985 . S
C1590 C1584 1.379 . S
C1590 C1587 1.363 . S
C1590 N1588 1.356 1_556 S
C1591 C1585 1.363 . S
C1591 C1586 1.379 . S
C1591 N1589 1.356 . S
N1592 C1584 1.356 . S
N1592 H1598 0.984 . S
N1592 H1599 0.984 . S
N1593 C1586 1.356 . S
N1593 H1596 0.984 1_556 S
N1593 H1597 0.985 . S
H1594 N1589 0.984 . S
H1595 N1589 0.985 . S
H1596 N1593 0.984 1_554 S
H1597 N1593 0.985 . S
H1598 N1592 0.984 . S
H1599 N1592 0.984 . S
H1600 N1588 0.984 . S
H1601 N1588 0.985 . S
C1602 C1603 1.363 . S
C1602 C1608 1.379 . S
C1602 N1610 1.356 . S
C1603 C1602 1.363 . S
C1603 C1609 1.363 . S
C1604 C1605 1.363 . S
C1604 C1609 1.379 . S
C1604 N1611 1.356 . S
C1605 C1604 1.363 . S
C1605 C1608 1.363 . S
N1606 C1608 1.356 . S
N1606 H1618 0.984 . S
N1606 H1619 0.985 . S
N1607 C1609 1.356 1_554 S
N1607 H1612 0.984 . S
N1607 H1613 0.985 . S
C1608 C1602 1.379 . S
C1608 C1605 1.363 . S
C1608 N1606 1.356 . S
C1609 C1603 1.363 . S
C1609 C1604 1.379 . S
C1609 N1607 1.356 1_556 S
N1610 C1602 1.356 . S
N1610 H1616 0.984 . S
N1610 H1617 0.984 1_556 S
N1611 C1604 1.356 . S
N1611 H1614 0.984 . S
N1611 H1615 0.985 . S
H1612 N1607 0.984 . S
H1613 N1607 0.985 . S
H1614 N1611 0.984 . S
H1615 N1611 0.985 . S
H1616 N1610 0.984 . S
H1617 N1610 0.984 1_554 S
H1618 N1606 0.984 . S
H1619 N1606 0.985 . S
C1620 C1621 1.363 . S
C1620 C1626 1.379 . S
C1620 N1628 1.356 . S
C1621 C1620 1.363 . S
C1621 C1627 1.363 . S
C1622 C1623 1.363 . S
C1622 C1627 1.379 . S
C1622 N1629 1.356 . S
C1623 C1622 1.363 . S
C1623 C1626 1.363 . S
N1624 C1626 1.356 . S
N1624 H1636 0.984 . S
N1624 H1637 0.985 . S
N1625 C1627 1.356 1_554 S
N1625 H1630 0.984 . S
N1625 H1631 0.985 . S
C1626 C1620 1.379 . S
C1626 C1623 1.363 . S
C1626 N1624 1.356 . S
C1627 C1621 1.363 . S
C1627 C1622 1.379 . S
C1627 N1625 1.356 1_556 S
N1628 C1620 1.356 . S
N1628 H1634 0.984 . S
N1628 H1635 0.984 1_556 S
N1629 C1622 1.356 . S
N1629 H1632 0.984 . S
N1629 H1633 0.985 . S
H1630 N1625 0.984 . S
H1631 N1625 0.985 . S
H1632 N1629 0.984 . S
H1633 N1629 0.985 . S
H1634 N1628 0.984 . S
H1635 N1628 0.984 1_554 S
H1636 N1624 0.984 . S
H1637 N1624 0.985 . S
C1638 C1639 1.363 . S
C1638 C1644 1.379 . S
C1638 N1646 1.356 . S
C1639 C1638 1.363 . S
C1639 C1645 1.363 . S
C1640 C1641 1.363 . S
C1640 C1645 1.379 . S
C1640 N1647 1.356 . S
C1641 C1640 1.363 . S
C1641 C1644 1.363 . S
N1642 C1644 1.356 . S
N1642 H1654 0.984 . S
N1642 H1655 0.985 . S
N1643 C1645 1.356 . S
N1643 H1648 0.984 . S
N1643 H1649 0.985 . S
C1644 C1638 1.379 . S
C1644 C1641 1.363 . S
C1644 N1642 1.356 . S
C1645 C1639 1.363 . S
C1645 C1640 1.379 . S
C1645 N1643 1.356 . S
N1646 C1638 1.356 . S
N1646 H1652 0.984 . S
N1646 H1653 0.984 . S
N1647 C1640 1.356 . S
N1647 H1650 0.984 . S
N1647 H1651 0.985 . S
H1648 N1643 0.984 . S
H1649 N1643 0.985 . S
H1650 N1647 0.984 . S
H1651 N1647 0.985 . S
H1652 N1646 0.984 . S
H1653 N1646 0.984 . S
H1654 N1642 0.984 . S
H1655 N1642 0.985 . S
C1656 C1657 1.363 . S
C1656 C1662 1.379 . S
C1656 N1664 1.356 . S
C1657 C1656 1.363 . S
C1657 C1663 1.363 . S
C1658 C1659 1.363 . S
C1658 C1663 1.379 . S
C1658 N1665 1.356 . S
C1659 C1658 1.363 . S
C1659 C1662 1.363 . S
N1660 C1662 1.356 . S
N1660 H1672 0.984 . S
N1660 H1673 0.985 . S
N1661 C1663 1.356 . S
N1661 H1666 0.984 . S
N1661 H1667 0.985 . S
C1662 C1656 1.379 . S
C1662 C1659 1.363 . S
C1662 N1660 1.356 . S
C1663 C1657 1.363 . S
C1663 C1658 1.379 . S
C1663 N1661 1.356 . S
N1664 C1656 1.356 . S
N1664 H1670 0.984 . S
N1664 H1671 0.984 . S
N1665 C1658 1.356 . S
N1665 H1668 0.984 . S
N1665 H1669 0.985 . S
H1666 N1661 0.984 . S
H1667 N1661 0.985 . S
H1668 N1665 0.984 . S
H1669 N1665 0.985 . S
H1670 N1664 0.984 . S
H1671 N1664 0.984 . S
H1672 N1660 0.984 . S
H1673 N1660 0.985 . S
C1674 C1675 1.363 . S
C1674 C1680 1.379 . S
C1674 N1682 1.356 . S
C1675 C1674 1.363 . S
C1675 C1681 1.363 . S
C1676 C1677 1.363 . S
C1676 C1681 1.379 . S
C1676 N1683 1.356 . S
C1677 C1676 1.363 . S
C1677 C1680 1.363 . S
N1678 C1680 1.356 . S
N1678 H1690 0.984 . S
N1678 H1691 0.985 . S
N1679 C1681 1.356 . S
N1679 H1684 0.984 . S
N1679 H1685 0.985 . S
C1680 C1674 1.379 . S
C1680 C1677 1.363 . S
C1680 N1678 1.356 . S
C1681 C1675 1.363 . S
C1681 C1676 1.379 . S
C1681 N1679 1.356 . S
N1682 C1674 1.356 . S
N1682 H1688 0.984 . S
N1682 H1689 0.984 . S
N1683 C1676 1.356 . S
N1683 H1686 0.984 . S
N1683 H1687 0.985 . S
H1684 N1679 0.984 . S
H1685 N1679 0.985 . S
H1686 N1683 0.984 . S
H1687 N1683 0.985 . S
H1688 N1682 0.984 . S
H1689 N1682 0.984 . S
H1690 N1678 0.984 . S
H1691 N1678 0.985 . S
C721 C535 1.763 . S
C723 C18 1.854 . S
C739 C58 1.854 . S
C741 C575 1.762 . S
C757 C98 1.854 . S
C759 C495 1.763 . S
C775 C95 1.776 1_554 S
C777 C298 1.884 . S
C793 C338 1.884 . S
C795 C15 1.776 1_554 S
C811 C55 1.776 1_554 S
C813 C258 1.884 . S
C829 C129 1.854 . S
C831 C406 1.762 . S
C847 C169 1.854 . S
C849 C446 1.762 . S
C865 C366 1.763 . S
C867 C209 1.854 . S
C883 C649 1.884 . S
C885 C206 1.775 1_556 S
C901 C126 1.776 1_556 S
C903 C689 1.884 . S
C919 C609 1.884 . S
C921 C166 1.776 1_556 S
C937 C335 1.778 . S
C939 C538 1.861 . S
C955 C255 1.778 . S
C957 C578 1.861 . S
C973 C295 1.778 . S
C975 C498 1.860 . S
C991 C369 1.860 . S
C993 C646 1.778 . S
C1009 C686 1.777 . S
C1011 C409 1.860 . S
C1027 C606 1.778 . S
C1029 C449 1.860 . S
C1045 C6 1.845 . S
C1047 C178 1.850 . S
C1063 C218 1.920 . S
C1065 C46 1.845 . S
C1081 C138 1.851 . S
C1083 C86 1.845 . S
C1099 C175 1.845 . S
C1101 C89 1.850 . S
C1117 C215 1.845 . S
C1119 C9 1.846 1_655 S
C1135 C135 1.845 . S
C1137 C49 1.850 . S
C1153 C418 1.883 . S
C1155 C246 1.863 . S
C1171 C458 1.883 . S
C1173 C286 1.863 . S
C1189 C378 1.883 . S
C1191 C326 1.863 . S
C1207 C415 1.838 . S
C1209 C329 1.855 . S
C1225 C455 1.839 . S
C1227 C249 1.856 . S
C1243 C375 1.838 . S
C1245 C289 1.855 . S
C1261 C658 1.856 . S
C1263 C486 1.838 . S
C1279 C698 1.855 . S
C1281 C526 1.838 . S
C1297 C566 1.839 . S
C1299 C618 1.856 . S
C1315 C569 1.883 . S
C1317 C655 1.863 . S
C1333 C489 1.883 . S
C1335 C695 1.863 . S
C1351 C615 1.864 . S
C1353 C529 1.883 . S
C1369 C10 1.866 . S
C1371 C19 1.866 1_554 S
C1387 C50 1.866 . S
C1389 C59 1.866 1_554 S
C1405 C90 1.866 . S
C1407 C99 1.866 1_554 S
C1423 C139 1.866 . S
C1425 C130 1.866 1_556 S
C1441 C170 1.866 1_556 S
C1443 C179 1.866 . S
C1459 C210 1.866 1_556 S
C1461 C219 1.866 . S
C1477 C259 1.858 . S
C1479 C250 1.858 . S
C1495 C290 1.858 . S
C1497 C299 1.858 . S
C1513 C339 1.858 . S
C1515 C330 1.858 . S
C1531 C379 1.865 1_554 S
C1533 C370 1.865 . S
C1549 C419 1.865 1_554 S
C1551 C410 1.865 . S
C1567 C459 1.865 1_554 S
C1569 C450 1.865 . S
C1585 C499 1.865 . S
C1587 C490 1.865 1_556 S
C1603 C530 1.865 1_556 S
C1605 C539 1.865 . S
C1621 C570 1.865 1_556 S
C1623 C579 1.865 . S
C1639 C610 1.858 . S
C1641 C619 1.858 . S
C1657 C650 1.858 . S
C1659 C659 1.858 . S
C1675 C699 1.858 . S
C1677 C690 1.858 . S
