# Generated by pormake.
# Topology uou, (4)-cn, num edge types: 1
# Building blocks:
#     Node 0, Type 0, BuildingBlock: UXUYUI_clean_sbu_0, # of connection points: 4
#     Node 1, Type 0, BuildingBlock: UXUYUI_clean_sbu_0, # of connection points: 4
#     Node 2, Type 0, BuildingBlock: UXUYUI_clean_sbu_0, # of connection points: 4
#     Node 3, Type 0, BuildingBlock: UXUYUI_clean_sbu_0, # of connection points: 4
#     Node 4, Type 0, BuildingBlock: UXUYUI_clean_sbu_0, # of connection points: 4
#     Node 5, Type 0, BuildingBlock: UXUYUI_clean_sbu_0, # of connection points: 4
#     Node 6, Type 0, BuildingBlock: UXUYUI_clean_sbu_0, # of connection points: 4
#     Node 7, Type 0, BuildingBlock: UXUYUI_clean_sbu_0, # of connection points: 4
#     Node 8, Type 0, BuildingBlock: UXUYUI_clean_sbu_0, # of connection points: 4
#     Node 9, Type 0, BuildingBlock: UXUYUI_clean_sbu_0, # of connection points: 4
#     Node 10, Type 0, BuildingBlock: UXUYUI_clean_sbu_0, # of connection points: 4
#     Node 11, Type 0, BuildingBlock: UXUYUI_clean_sbu_0, # of connection points: 4
#     Node 12, Type 0, BuildingBlock: UXUYUI_clean_sbu_0, # of connection points: 4
#     Node 13, Type 0, BuildingBlock: UXUYUI_clean_sbu_0, # of connection points: 4
#     Node 14, Type 0, BuildingBlock: UXUYUI_clean_sbu_0, # of connection points: 4
#     Node 15, Type 0, BuildingBlock: UXUYUI_clean_sbu_0, # of connection points: 4
#     Edge 16, Type (0, 0), BuildingBlock: AJUNOK_clean_linker_0, # of connection points: 2
#     Edge 17, Type (0, 0), BuildingBlock: AJUNOK_clean_linker_0, # of connection points: 2
#     Edge 18, Type (0, 0), BuildingBlock: AJUNOK_clean_linker_0, # of connection points: 2
#     Edge 19, Type (0, 0), BuildingBlock: AJUNOK_clean_linker_0, # of connection points: 2
#     Edge 20, Type (0, 0), BuildingBlock: AJUNOK_clean_linker_0, # of connection points: 2
#     Edge 21, Type (0, 0), BuildingBlock: AJUNOK_clean_linker_0, # of connection points: 2
#     Edge 22, Type (0, 0), BuildingBlock: AJUNOK_clean_linker_0, # of connection points: 2
#     Edge 23, Type (0, 0), BuildingBlock: AJUNOK_clean_linker_0, # of connection points: 2
#     Edge 24, Type (0, 0), BuildingBlock: AJUNOK_clean_linker_0, # of connection points: 2
#     Edge 25, Type (0, 0), BuildingBlock: AJUNOK_clean_linker_0, # of connection points: 2
#     Edge 26, Type (0, 0), BuildingBlock: AJUNOK_clean_linker_0, # of connection points: 2
#     Edge 27, Type (0, 0), BuildingBlock: AJUNOK_clean_linker_0, # of connection points: 2
#     Edge 28, Type (0, 0), BuildingBlock: AJUNOK_clean_linker_0, # of connection points: 2
#     Edge 29, Type (0, 0), BuildingBlock: AJUNOK_clean_linker_0, # of connection points: 2
#     Edge 30, Type (0, 0), BuildingBlock: AJUNOK_clean_linker_0, # of connection points: 2
#     Edge 31, Type (0, 0), BuildingBlock: AJUNOK_clean_linker_0, # of connection points: 2
#     Edge 32, Type (0, 0), BuildingBlock: AJUNOK_clean_linker_0, # of connection points: 2
#     Edge 33, Type (0, 0), BuildingBlock: AJUNOK_clean_linker_0, # of connection points: 2
#     Edge 34, Type (0, 0), BuildingBlock: AJUNOK_clean_linker_0, # of connection points: 2
#     Edge 35, Type (0, 0), BuildingBlock: AJUNOK_clean_linker_0, # of connection points: 2
#     Edge 36, Type (0, 0), BuildingBlock: AJUNOK_clean_linker_0, # of connection points: 2
#     Edge 37, Type (0, 0), BuildingBlock: AJUNOK_clean_linker_0, # of connection points: 2
#     Edge 38, Type (0, 0), BuildingBlock: AJUNOK_clean_linker_0, # of connection points: 2
#     Edge 39, Type (0, 0), BuildingBlock: AJUNOK_clean_linker_0, # of connection points: 2
#     Edge 40, Type (0, 0), BuildingBlock: AJUNOK_clean_linker_0, # of connection points: 2
#     Edge 41, Type (0, 0), BuildingBlock: AJUNOK_clean_linker_0, # of connection points: 2
#     Edge 42, Type (0, 0), BuildingBlock: AJUNOK_clean_linker_0, # of connection points: 2
#     Edge 43, Type (0, 0), BuildingBlock: AJUNOK_clean_linker_0, # of connection points: 2
#     Edge 44, Type (0, 0), BuildingBlock: AJUNOK_clean_linker_0, # of connection points: 2
#     Edge 45, Type (0, 0), BuildingBlock: AJUNOK_clean_linker_0, # of connection points: 2
#     Edge 46, Type (0, 0), BuildingBlock: AJUNOK_clean_linker_0, # of connection points: 2
#     Edge 47, Type (0, 0), BuildingBlock: AJUNOK_clean_linker_0, # of connection points: 2
# Relax obj value: 0.194
# Max RMSD: 0.198
# Mean RMSD: 0.197
data_MOF--net-uou--node1-UXUYUI_clean_sbu_0--edge1-AJUNOK_clean_linker_0
_symmetry_space_group_name_H-M    P1
_symmetry_Int_Tables_number       1
_symmetry_cell_setting            triclinic
loop_
_symmetry_equiv_pos_as_xyz
'x, y, z'
_cell_length_a     47.05644
_cell_length_b     45.688181
_cell_length_c     64.205443
_cell_angle_alpha  90.000326
_cell_angle_beta   89.990945
_cell_angle_gamma 89.996533
loop_
_atom_site_label
_atom_site_type_symbol
_atom_site_fract_x
_atom_site_fract_y
_atom_site_fract_z
_atom_type_partial_charge
Li0 Li 0.05392 0.05052 0.10365 0.0
Li1 Li 0.09615 0.05973 0.12374 0.0
Li2 Li 0.05107 0.05372 0.14058 0.0
Li3 Li 0.05838 0.09756 0.12087 0.0
C4 C 0.08632 0.00199 0.11433 0.0
N5 N 0.11588 0.95777 0.0945 0.0
C6 C 0.09961 0.00727 0.09521 0.0
C7 C 0.0881 0.97423 0.12336 0.0
C8 C 0.11443 0.98463 0.08543 0.0
C9 C 0.10313 0.95216 0.11309 0.0
C10 C 0.10163 0.10214 0.09193 0.0
C11 C 0.13654 0.13921 0.09974 0.0
N12 N 0.13962 0.14455 0.07902 0.0
C13 C 0.10514 0.108 0.07072 0.0
C14 C 0.11745 0.11786 0.10658 0.0
C15 C 0.12445 0.12952 0.06451 0.0
C16 C 0.03633 0.05358 0.0628 0.0
N17 N 0.0396 0.03416 0.07864 0.0
C18 C 0.02365 0.99492 0.05701 0.0
C19 C 0.03324 0.00532 0.07624 0.0
C20 C 0.02055 0.01448 0.04027 0.0
C21 C 0.02676 0.04418 0.04339 0.0
H22 H 0.04137 0.07642 0.06528 0.0
H23 H 0.03573 0.9904 0.08919 0.0
C24 C 0.14434 0.0361 0.14309 0.0
N25 N 0.13561 0.04995 0.12548 0.0
C26 C 0.17172 0.02441 0.14438 0.0
C27 C 0.18069 0.04148 0.10937 0.0
C28 C 0.15316 0.05285 0.10876 0.0
C29 C 0.19011 0.02661 0.12722 0.0
H30 H 0.12964 0.03312 0.15584 0.0
H31 H 0.14548 0.06278 0.09459 0.0
C32 C 0.9998 0.05638 0.11909 0.0
N33 N 0.94917 0.02589 0.11673 0.0
C34 C 0.97442 0.07117 0.11497 0.0
C35 C 0.9994 0.02606 0.12208 0.0
C36 C 0.94905 0.05537 0.11383 0.0
C37 C 0.9736 0.01105 0.1208 0.0
C38 C 0.07493 0.0931 0.16593 0.0
C39 C 0.05179 0.11106 0.17079 0.0
C40 C 0.09254 0.08291 0.18188 0.0
C41 C 0.04664 0.11847 0.19156 0.0
C42 C 0.08664 0.09076 0.20247 0.0
N43 N 0.06402 0.10824 0.20683 0.0
C44 C 0.04768 0.02156 0.1783 0.0
C45 C 0.0096 0.05446 0.17208 0.0
C46 C 0.03803 0.01655 0.1986 0.0
N47 N 0.03376 0.04078 0.16575 0.0
C48 C 0.99929 0.05015 0.19219 0.0
C49 C 0.01409 0.03174 0.20589 0.0
H50 H 0.06713 0.01142 0.17294 0.0
H51 H 0.99931 0.07012 0.16197 0.0
C52 C 0.02467 0.14315 0.10691 0.0
N53 N 0.04824 0.13762 0.11846 0.0
C54 C 0.01321 0.17128 0.10619 0.0
C55 C 0.05135 0.18788 0.12848 0.0
C56 C 0.062 0.15931 0.12888 0.0
C57 C 0.02621 0.19396 0.11744 0.0
H58 H 0.01428 0.12543 0.09874 0.0
H59 H 0.08072 0.15425 0.13797 0.0
O60 O 0.07208 0.02386 0.1245 0.0
O61 O 0.08264 0.0812 0.09815 0.0
O62 O 0.02478 0.07168 0.12014 0.0
O63 O 0.08005 0.08522 0.14571 0.0
H64 H 0.09859 0.0286 0.08797 0.0
H65 H 0.07804 0.96984 0.1382 0.0
H66 H 0.12481 0.98842 0.07064 0.0
H67 H 0.1047 0.93057 0.11992 0.0
H68 H 0.14893 0.15152 0.11091 0.0
H69 H 0.09307 0.09601 0.05918 0.0
H70 H 0.1152 0.1136 0.12305 0.0
H71 H 0.12739 0.13427 0.04814 0.0
H72 H 0.01854 0.97194 0.05528 0.0
H73 H 0.02464 0.05989 0.03085 0.0
H74 H 0.17827 0.01338 0.15851 0.0
H75 H 0.1941 0.0433 0.09572 0.0
H76 H 0.97431 0.09465 0.1127 0.0
H77 H 0.01871 0.01416 0.12537 0.0
H78 H 0.92926 0.06656 0.11064 0.0
H79 H 0.97301 0.98759 0.12305 0.0
H80 H 0.03761 0.11873 0.15871 0.0
H81 H 0.11053 0.06903 0.17844 0.0
H82 H 0.0287 0.13217 0.19555 0.0
H83 H 0.10003 0.08294 0.21497 0.0
H84 H 0.05002 0.00233 0.20884 0.0
H85 H 0.98065 0.06208 0.19729 0.0
H86 H 0.99381 0.175 0.0975 0.0
H87 H 0.06241 0.20491 0.13695 0.0
Li88 Li 0.4343 0.90416 0.12208 0.0
Li89 Li 0.44424 0.95074 0.14214 0.0
Li90 Li 0.39738 0.94273 0.12284 0.0
Li91 Li 0.44061 0.95021 0.10436 0.0
C92 C 0.40587 0.9006 0.1613 0.0
N93 N 0.39021 0.85977 0.19091 0.0
C94 C 0.42187 0.89735 0.1795 0.0
C95 C 0.38166 0.88339 0.15831 0.0
C96 C 0.41368 0.8765 0.19423 0.0
C97 C 0.37416 0.86278 0.17342 0.0
C98 C 0.49274 0.93404 0.11118 0.0
C99 C 0.5334 0.96384 0.10268 0.0
N100 N 0.54037 0.94476 0.08723 0.0
C101 C 0.50035 0.91465 0.0953 0.0
C102 C 0.50938 0.95881 0.11496 0.0
C103 C 0.5245 0.92049 0.08333 0.0
C104 C 0.44566 0.84964 0.10288 0.0
N105 N 0.4442 0.86367 0.12154 0.0
C106 C 0.46366 0.82202 0.13896 0.0
C107 C 0.4531 0.85054 0.13939 0.0
C108 C 0.46572 0.80716 0.11991 0.0
C109 C 0.45653 0.8212 0.10169 0.0
H110 H 0.43926 0.86091 0.08883 0.0
H111 H 0.45308 0.86255 0.15384 0.0
C112 C 0.4452 0.97843 0.18151 0.0
N113 N 0.46109 0.96389 0.16717 0.0
C114 C 0.45589 0.98319 0.20155 0.0
C115 C 0.4994 0.959 0.19125 0.0
C116 C 0.48787 0.95463 0.1715 0.0
C117 C 0.48308 0.97277 0.20672 0.0
H118 H 0.4237 0.9849 0.17772 0.0
H119 H 0.49972 0.94248 0.15995 0.0
C120 C 0.38898 0.90645 0.08976 0.0
N121 N 0.34237 0.87961 0.07186 0.0
C122 C 0.37667 0.91815 0.07178 0.0
C123 C 0.37778 0.88093 0.09849 0.0
C124 C 0.35305 0.90432 0.06301 0.0
C125 C 0.35417 0.86772 0.08925 0.0
C126 C 0.42797 0.00556 0.11745 0.0
C127 C 0.41298 0.01713 0.10055 0.0
C128 C 0.44858 0.02254 0.12743 0.0
C129 C 0.41916 0.04546 0.09373 0.0
C130 C 0.45408 0.05081 0.12017 0.0
N131 N 0.4394 0.06157 0.1036 0.0
C132 C 0.34268 0.94909 0.14152 0.0
C133 C 0.34675 0.96585 0.10671 0.0
C134 C 0.31472 0.95938 0.14263 0.0
N135 N 0.35803 0.95252 0.12373 0.0
C136 C 0.31899 0.97655 0.10716 0.0
C137 C 0.3027 0.97359 0.12534 0.0
H138 H 0.35242 0.93925 0.15506 0.0
H139 H 0.35958 0.96893 0.09295 0.0
C140 C 0.45101 0.94862 0.06169 0.0
N141 N 0.45577 0.96547 0.07881 0.0
C142 C 0.46076 0.95749 0.04218 0.0
C143 C 0.48065 0.00075 0.05819 0.0
C144 C 0.47086 0.99082 0.07747 0.0
C145 C 0.47538 0.98405 0.04028 0.0
H146 H 0.43971 0.92815 0.0632 0.0
H147 H 0.47551 0.00329 0.09132 0.0
O148 O 0.41355 0.921 0.14674 0.0
O149 O 0.46874 0.92914 0.12265 0.0
O150 O 0.41197 0.91989 0.09863 0.0
O151 O 0.42216 0.97797 0.12448 0.0
H152 H 0.4406 0.91055 0.18213 0.0
H153 H 0.36862 0.88608 0.14458 0.0
H154 H 0.42599 0.87361 0.20831 0.0
H155 H 0.35551 0.84927 0.17128 0.0
H156 H 0.54639 0.98301 0.10533 0.0
H157 H 0.48757 0.89549 0.0921 0.0
H158 H 0.50356 0.97422 0.12704 0.0
H159 H 0.53056 0.90578 0.0709 0.0
H160 H 0.47118 0.81208 0.15326 0.0
H161 H 0.45806 0.81042 0.08671 0.0
H162 H 0.44241 0.99331 0.21317 0.0
H163 H 0.52042 0.95061 0.19467 0.0
H164 H 0.38514 0.93786 0.06478 0.0
H165 H 0.38725 0.87135 0.11221 0.0
H166 H 0.34321 0.91325 0.04917 0.0
H167 H 0.34525 0.848 0.09589 0.0
H168 H 0.39703 0.00426 0.09263 0.0
H169 H 0.4603 0.01393 0.14057 0.0
H170 H 0.40789 0.05463 0.08057 0.0
H171 H 0.47005 0.06417 0.12768 0.0
H172 H 0.30301 0.95722 0.15707 0.0
H173 H 0.31047 0.9874 0.09352 0.0
H174 H 0.45656 0.94397 0.02867 0.0
H175 H 0.49243 0.02107 0.0573 0.0
Li176 Li 0.60433 0.94048 0.37778 0.0
Li177 Li 0.56002 0.94955 0.39681 0.0
Li178 Li 0.56808 0.90198 0.37836 0.0
Li179 Li 0.55783 0.94601 0.35831 0.0
C180 C 0.6104 0.9128 0.41587 0.0
N181 N 0.65424 0.90097 0.44323 0.0
C182 C 0.61322 0.92904 0.43421 0.0
C183 C 0.62959 0.89025 0.41162 0.0
C184 C 0.6356 0.9228 0.4478 0.0
C185 C 0.65169 0.88469 0.42559 0.0
C186 C 0.57585 0.00465 0.37768 0.0
C187 C 0.54922 0.04916 0.37237 0.0
N188 N 0.5706 0.06469 0.38137 0.0
C189 C 0.59773 0.02112 0.38659 0.0
C190 C 0.55154 0.01882 0.37027 0.0
C191 C 0.5946 0.05142 0.38843 0.0
C192 C 0.65879 0.94842 0.35941 0.0
N193 N 0.64364 0.95088 0.37737 0.0
C194 C 0.683 0.9737 0.3944 0.0
C195 C 0.65514 0.96329 0.39466 0.0
C196 C 0.6991 0.97166 0.37607 0.0
C197 C 0.68674 0.9588 0.35839 0.0
H198 H 0.64894 0.93908 0.34572 0.0
H199 H 0.64233 0.96618 0.40845 0.0
C200 C 0.52511 0.94897 0.43181 0.0
N201 N 0.54467 0.96561 0.42169 0.0
C202 C 0.51475 0.95764 0.45122 0.0
C203 C 0.54464 0.00059 0.44934 0.0
C204 C 0.55447 0.99105 0.42998 0.0
C205 C 0.52487 0.98353 0.46035 0.0
H206 H 0.51808 0.92857 0.42499 0.0
H207 H 0.57048 0.00354 0.42192 0.0
C208 C 0.59766 0.89315 0.34318 0.0
N209 N 0.61394 0.84329 0.32195 0.0
C210 C 0.5819 0.88343 0.32608 0.0
C211 C 0.62196 0.87782 0.34926 0.0
C212 C 0.59039 0.85808 0.31562 0.0
C213 C 0.62979 0.85259 0.33839 0.0
C214 C 0.50525 0.93399 0.37793 0.0
C215 C 0.48503 0.9131 0.37212 0.0
C216 C 0.49649 0.96239 0.3828 0.0
C217 C 0.45645 0.92118 0.37087 0.0
C218 C 0.46772 0.96961 0.3814 0.0
N219 N 0.44845 0.94904 0.37547 0.0
C220 C 0.56575 0.84351 0.39474 0.0
C221 C 0.54094 0.85252 0.36325 0.0
C222 C 0.55492 0.81499 0.39555 0.0
N223 N 0.55851 0.86157 0.37876 0.0
C224 C 0.52977 0.82427 0.36339 0.0
C225 C 0.53656 0.80517 0.37976 0.0
H226 H 0.57914 0.85151 0.40718 0.0
H227 H 0.53473 0.86769 0.35116 0.0
C228 C 0.55054 0.98102 0.32181 0.0
N229 N 0.5406 0.95787 0.33297 0.0
C230 C 0.54007 0.9865 0.30178 0.0
C231 C 0.50917 0.94453 0.30539 0.0
C232 C 0.52019 0.93988 0.32524 0.0
C233 C 0.51948 0.96775 0.29325 0.0
H234 H 0.56738 0.99448 0.32811 0.0
H235 H 0.51345 0.92103 0.3341 0.0
O236 O 0.58867 0.91868 0.40236 0.0
O237 O 0.57873 0.97498 0.37554 0.0
O238 O 0.58948 0.91771 0.35378 0.0
O239 O 0.53333 0.92637 0.37926 0.0
H240 H 0.59843 0.94643 0.43784 0.0
H241 H 0.62738 0.87709 0.39772 0.0
H242 H 0.63816 0.93533 0.46198 0.0
H243 H 0.66678 0.86738 0.42244 0.0
H244 H 0.53047 0.06037 0.36676 0.0
H245 H 0.61683 0.01063 0.3922 0.0
H246 H 0.53474 0.00662 0.36275 0.0
H247 H 0.61128 0.06438 0.39546 0.0
H248 H 0.69152 0.98418 0.40819 0.0
H249 H 0.69848 0.95704 0.34394 0.0
H250 H 0.49962 0.94381 0.45928 0.0
H251 H 0.55262 0.02094 0.45571 0.0
H252 H 0.56318 0.89519 0.32103 0.0
H253 H 0.63472 0.88541 0.36217 0.0
H254 H 0.57826 0.85016 0.30246 0.0
H255 H 0.64849 0.84044 0.34299 0.0
H256 H 0.49135 0.89091 0.36853 0.0
H257 H 0.51167 0.9786 0.38788 0.0
H258 H 0.44062 0.90528 0.36626 0.0
H259 H 0.46068 0.99155 0.3851 0.0
H260 H 0.56046 0.80092 0.4085 0.0
H261 H 0.51509 0.81784 0.35123 0.0
H262 H 0.54898 0.00426 0.29271 0.0
H263 H 0.4934 0.92951 0.29931 0.0
Li264 Li 0.94546 0.05111 0.39762 0.0
Li265 Li 0.90423 0.06011 0.37686 0.0
Li266 Li 0.948 0.05093 0.35898 0.0
Li267 Li 0.94083 0.09636 0.37779 0.0
C268 C 0.90763 0.00246 0.38071 0.0
N269 N 0.86511 0.96149 0.38641 0.0
C270 C 0.89393 1.00008 0.39996 0.0
C271 C 0.8999 0.98379 0.36443 0.0
C272 C 0.87245 0.97927 0.40252 0.0
C273 C 0.8783 0.96327 0.3676 0.0
C274 C 0.89855 0.10445 0.40673 0.0
C275 C 0.86374 0.14073 0.39703 0.0
N276 N 0.86124 0.14871 0.41735 0.0
C277 C 0.89566 0.11302 0.42751 0.0
C278 C 0.88249 0.11841 0.39134 0.0
C279 C 0.87667 0.13543 0.43257 0.0
C280 C 0.97405 0.05631 0.43509 0.0
N281 N 0.9607 0.03639 0.42279 0.0
C282 C 0.96844 0.99865 0.44789 0.0
C283 C 0.95816 0.00787 0.42857 0.0
C284 C 0.98198 0.01889 0.46096 0.0
C285 C 0.98512 0.04792 0.45434 0.0
H286 H 0.97583 0.0788 0.42997 0.0
H287 H 0.94798 0.99236 0.41829 0.0
C288 C 0.85392 0.04112 0.35717 0.0
N289 N 0.86445 0.05157 0.37544 0.0
C290 C 0.82663 0.02907 0.3564 0.0
C291 C 0.82105 0.04023 0.39297 0.0
C292 C 0.84844 0.05192 0.39307 0.0
C293 C 0.81019 0.02776 0.37463 0.0
H294 H 0.86733 0.04069 0.34348 0.0
H295 H 0.85747 0.05977 0.4075 0.0
C296 C 0.99964 0.05601 0.38129 0.0
N297 N 0.05101 0.0273 0.38553 0.0
C298 C 0.02477 0.07198 0.38367 0.0
C299 C 0.00065 0.02542 0.38107 0.0
C300 C 0.05052 0.05706 0.38578 0.0
C301 C 0.02683 0.01132 0.38324 0.0
C302 C 0.92815 0.09696 0.33549 0.0
C303 C 0.95629 0.10636 0.33341 0.0
C304 C 0.90883 0.10215 0.31939 0.0
C305 C 0.96462 0.12082 0.31524 0.0
C306 C 0.91797 0.11671 0.30146 0.0
N307 N 0.94545 0.12565 0.29977 0.0
C308 C 0.9466 0.02393 0.3197 0.0
C309 C 0.99166 0.04338 0.32875 0.0
C310 C 0.95565 0.01916 0.29924 0.0
N311 N 0.96445 0.03628 0.33386 0.0
C312 C 0.00149 0.03917 0.30849 0.0
C313 C 0.9831 0.02776 0.29337 0.0
H314 H 0.92473 0.01974 0.32388 0.0
H315 H 0.00514 0.05436 0.33984 0.0
C316 C 0.97481 0.1427 0.39032 0.0
N317 N 0.95136 0.13662 0.37878 0.0
C318 C 0.98606 0.17093 0.39065 0.0
C319 C 0.94806 0.18654 0.36789 0.0
C320 C 0.93759 0.15788 0.36791 0.0
C321 C 0.97297 0.1932 0.37904 0.0
H322 H 0.98514 0.12538 0.39895 0.0
H323 H 0.91885 0.1525 0.35895 0.0
O324 O 0.92813 0.0233 0.37773 0.0
O325 O 0.91724 0.08266 0.40164 0.0
O326 O 0.97425 0.0704 0.37945 0.0
O327 O 0.91952 0.08199 0.35285 0.0
H328 H 0.89937 0.01462 0.41265 0.0
H329 H 0.91037 0.98517 0.34948 0.0
H330 H 0.86146 0.97743 0.41726 0.0
H331 H 0.87199 0.9488 0.3551 0.0
H332 H 0.85118 0.15171 0.38528 0.0
H333 H 0.908 0.10246 0.4396 0.0
H334 H 0.88437 0.11212 0.37517 0.0
H335 H 0.87422 0.14228 0.4486 0.0
H336 H 0.96592 0.97603 0.45259 0.0
H337 H 0.99546 0.06401 0.46415 0.0
H338 H 0.819 0.01965 0.34197 0.0
H339 H 0.80881 0.04015 0.40726 0.0
H340 H 0.0244 0.09566 0.38382 0.0
H341 H 0.98151 0.01262 0.37925 0.0
H342 H 0.07013 0.06915 0.38761 0.0
H343 H 0.02791 0.98767 0.38311 0.0
H344 H 0.97165 0.10242 0.34561 0.0
H345 H 0.88701 0.09485 0.3207 0.0
H346 H 0.98634 0.12813 0.31341 0.0
H347 H 0.90325 0.12083 0.28886 0.0
H348 H 0.9408 0.01078 0.28781 0.0
H349 H 0.02272 0.04629 0.30437 0.0
H350 H 0.00527 0.17512 0.39945 0.0
H351 H 0.93691 0.20324 0.35914 0.0
Li352 Li 0.93622 0.90174 0.87591 0.0
Li353 Li 0.9436 0.94669 0.89494 0.0
Li354 Li 0.89861 0.94032 0.87559 0.0
Li355 Li 0.9436 0.95015 0.85758 0.0
C356 C 0.89432 0.89646 0.90692 0.0
N357 N 0.85591 0.85537 0.92127 0.0
C358 C 0.89472 0.88779 0.9278 0.0
C359 C 0.87416 0.88448 0.89342 0.0
C360 C 0.8752 0.86691 0.93473 0.0
C361 C 0.85498 0.86369 0.90094 0.0
C362 C 0.995 0.92914 0.88612 0.0
C363 C 0.03718 0.95551 0.89624 0.0
N364 N 0.04421 0.9333 0.90938 0.0
C365 C 0.00277 0.90646 0.89956 0.0
C366 C 0.01242 0.95377 0.88429 0.0
C367 C 0.02769 0.90902 0.91125 0.0
C368 C 0.95903 0.85181 0.85701 0.0
N369 N 0.94655 0.86148 0.87483 0.0
C370 C 0.95605 0.8159 0.89172 0.0
C371 C 0.94482 0.84419 0.89202 0.0
C372 C 0.96939 0.80544 0.87362 0.0
C373 C 0.97065 0.82369 0.85605 0.0
H374 H 0.96066 0.8663 0.84373 0.0
H375 H 0.93583 0.85271 0.90624 0.0
C376 C 0.96592 0.98885 0.92355 0.0
N377 N 0.95947 0.96022 0.92032 0.0
C378 C 0.97691 0.99787 0.94272 0.0
C379 C 0.97434 0.94779 0.95476 0.0
C380 C 0.96343 0.93977 0.93541 0.0
C381 C 0.98124 0.97717 0.95859 0.0
H382 H 0.96234 0.00469 0.91134 0.0
H383 H 0.958 0.91717 0.93237 0.0
C384 C 0.90016 0.90586 0.83621 0.0
N385 N 0.87053 0.8794 0.80411 0.0
C386 C 0.89343 0.92162 0.81821 0.0
C387 C 0.89207 0.87648 0.83773 0.0
C388 C 0.87836 0.90792 0.8022 0.0
C389 C 0.87702 0.86354 0.82139 0.0
C390 C 0.92454 0.00305 0.8694 0.0
C391 C 0.89988 0.01699 0.86239 0.0
C392 C 0.95071 0.01732 0.86776 0.0
C393 C 0.9019 0.04488 0.85359 0.0
C394 C 0.95184 0.04519 0.85884 0.0
N395 N 0.92762 0.05827 0.85199 0.0
C396 C 0.8467 0.95511 0.89431 0.0
C397 C 0.84522 0.95511 0.85741 0.0
C398 C 0.81914 0.96636 0.89527 0.0
N399 N 0.85922 0.95001 0.87557 0.0
C400 C 0.81764 0.96641 0.85765 0.0
C401 C 0.80452 0.97277 0.87676 0.0
H402 H 0.85849 0.95129 0.90851 0.0
H403 H 0.85588 0.95172 0.84274 0.0
C404 C 0.98514 0.95715 0.8266 0.0
N405 N 0.95907 0.96652 0.8328 0.0
C406 C 0.99517 0.96396 0.80671 0.0
C407 C 0.9519 0.99107 0.80036 0.0
C408 C 0.94277 0.98385 0.82039 0.0
C409 C 0.97797 0.98023 0.79311 0.0
H410 H 0.99746 0.94303 0.83666 0.0
H411 H 0.92193 0.99063 0.82553 0.0
O412 O 0.91339 0.91684 0.89992 0.0
O413 O 0.97027 0.9274 0.875 0.0
O414 O 0.91558 0.91872 0.85185 0.0
O415 O 0.92298 0.97568 0.87798 0.0
H416 H 0.91001 0.89702 0.93854 0.0
H417 H 0.87306 0.89144 0.8774 0.0
H418 H 0.87537 0.8599 0.95083 0.0
H419 H 0.83928 0.85425 0.89063 0.0
H420 H 0.05079 0.97452 0.89507 0.0
H421 H 0.9895 0.88727 0.90119 0.0
H422 H 0.00686 0.97138 0.8738 0.0
H423 H 0.03384 0.89175 0.92185 0.0
H424 H 0.9553 0.80277 0.90575 0.0
H425 H 0.98085 0.81642 0.84183 0.0
H426 H 0.98197 0.02075 0.94512 0.0
H427 H 0.97682 0.93128 0.96673 0.0
H428 H 0.89945 0.9443 0.81666 0.0
H429 H 0.8974 0.86367 0.85133 0.0
H430 H 0.87291 0.91996 0.78826 0.0
H431 H 0.87059 0.84085 0.82242 0.0
H432 H 0.87941 0.00642 0.86371 0.0
H433 H 0.96996 0.00689 0.87313 0.0
H434 H 0.883 0.05588 0.84804 0.0
H435 H 0.97199 0.0564 0.85735 0.0
H436 H 0.80956 0.9705 0.91033 0.0
H437 H 0.80713 0.97125 0.84304 0.0
H438 H 0.01531 0.95504 0.80155 0.0
H439 H 0.93817 0.00381 0.79031 0.0
Li440 Li 0.56214 0.10047 0.87806 0.0
Li441 Li 0.55394 0.05489 0.89608 0.0
Li442 Li 0.59868 0.06091 0.87665 0.0
Li443 Li 0.5533 0.05318 0.85852 0.0
C444 C 0.60444 0.10432 0.90808 0.0
N445 N 0.64378 0.14531 0.92124 0.0
C446 C 0.60432 0.11414 0.92871 0.0
C447 C 0.62474 0.11521 0.89423 0.0
C448 C 0.62432 0.13492 0.93504 0.0
C449 C 0.64441 0.13594 0.90114 0.0
C450 C 0.50262 0.07238 0.88757 0.0
C451 C 0.45983 0.04523 0.8949 0.0
N452 N 0.45319 0.06475 0.91014 0.0
C453 C 0.49524 0.09233 0.90316 0.0
C454 C 0.4847 0.04876 0.88328 0.0
C455 C 0.47021 0.08803 0.91445 0.0
C456 C 0.54582 0.1534 0.85939 0.0
N457 N 0.55281 0.14092 0.87791 0.0
C458 C 0.53812 0.18382 0.89632 0.0
C459 C 0.54943 0.15553 0.8962 0.0
C460 C 0.53047 0.19712 0.87743 0.0
C461 C 0.53481 0.18177 0.85877 0.0
H462 H 0.54785 0.14091 0.84516 0.0
H463 H 0.55436 0.14476 0.91075 0.0
C464 C 0.52746 0.01278 0.92309 0.0
N465 N 0.53781 0.04043 0.9212 0.0
C466 C 0.51602 0.00337 0.94203 0.0
C467 C 0.52641 0.05093 0.95666 0.0
C468 C 0.53735 0.05947 0.93743 0.0
C469 C 0.51539 0.0226 0.95912 0.0
H470 H 0.5281 0.99804 0.90996 0.0
H471 H 0.54544 0.0814 0.93538 0.0
C472 C 0.59826 0.09518 0.83755 0.0
N473 N 0.62969 0.11807 0.80498 0.0
C474 C 0.60341 0.07844 0.81972 0.0
C475 C 0.60882 0.12377 0.83864 0.0
C476 C 0.61944 0.09033 0.80348 0.0
C477 C 0.62473 0.13489 0.82207 0.0
C478 C 0.57127 0.999 0.8694 0.0
C479 C 0.59564 0.98446 0.86248 0.0
C480 C 0.54474 0.98553 0.86741 0.0
C481 C 0.593 0.95676 0.85346 0.0
C482 C 0.54299 0.95783 0.85828 0.0
N483 N 0.56695 0.94414 0.85155 0.0
C484 C 0.65091 0.04526 0.89482 0.0
C485 C 0.65141 0.04462 0.85792 0.0
C486 C 0.67857 0.03419 0.89548 0.0
N487 N 0.63793 0.05017 0.87623 0.0
C488 C 0.67904 0.03348 0.85785 0.0
C489 C 0.69288 0.02795 0.87681 0.0
H490 H 0.63944 0.04914 0.90916 0.0
H491 H 0.64039 0.04775 0.84337 0.0
C492 C 0.51204 0.05202 0.82736 0.0
N493 N 0.53654 0.03885 0.83349 0.0
C494 C 0.50059 0.04618 0.80775 0.0
C495 C 0.53932 0.01263 0.80133 0.0
C496 C 0.55006 0.01915 0.82106 0.0
C497 C 0.51454 0.02663 0.79433 0.0
H498 H 0.5021 0.06811 0.83734 0.0
H499 H 0.56993 0.00957 0.82598 0.0
O500 O 0.58482 0.08409 0.90162 0.0
O501 O 0.52749 0.07571 0.8768 0.0
O502 O 0.58208 0.0841 0.85346 0.0
O503 O 0.57345 0.02618 0.87821 0.0
H504 H 0.58895 0.10587 0.93976 0.0
H505 H 0.62556 0.10751 0.87838 0.0
H506 H 0.62439 0.14276 0.95094 0.0
H507 H 0.66023 0.14449 0.89054 0.0
H508 H 0.44583 0.02696 0.89181 0.0
H509 H 0.50891 0.11068 0.90672 0.0
H510 H 0.48995 0.03329 0.87112 0.0
H511 H 0.46437 0.10314 0.9267 0.0
H512 H 0.5349 0.19499 0.91102 0.0
H513 H 0.52866 0.19115 0.84395 0.0
H514 H 0.50767 0.98135 0.94329 0.0
H515 H 0.52699 0.06624 0.96952 0.0
H516 H 0.5955 0.05634 0.81853 0.0
H517 H 0.6047 0.13734 0.85211 0.0
H518 H 0.62374 0.07748 0.78968 0.0
H519 H 0.63307 0.15693 0.82277 0.0
H520 H 0.61637 0.99439 0.86406 0.0
H521 H 0.52567 0.99649 0.8726 0.0
H522 H 0.61168 0.94529 0.84798 0.0
H523 H 0.52257 0.94725 0.85651 0.0
H524 H 0.68827 0.02962 0.91043 0.0
H525 H 0.68934 0.02883 0.84313 0.0
H526 H 0.48188 0.05806 0.80274 0.0
H527 H 0.5508 0.99759 0.79136 0.0
Li528 Li 0.40014 0.06036 0.62232 0.0
Li529 Li 0.44301 0.05399 0.64247 0.0
Li530 Li 0.4356 0.09961 0.6224 0.0
Li531 Li 0.44536 0.05351 0.60435 0.0
C532 C 0.39769 0.07828 0.66401 0.0
N533 N 0.36733 0.06556 0.69971 0.0
C534 C 0.38811 0.04978 0.66769 0.0
C535 C 0.39185 0.1003 0.67848 0.0
C536 C 0.37279 0.0438 0.68582 0.0
C537 C 0.37646 0.09344 0.69644 0.0
C538 C 0.43586 0.99806 0.62596 0.0
C539 C 0.47507 0.96409 0.62572 0.0
N540 N 0.45735 0.94253 0.63242 0.0
C541 C 0.41799 0.97555 0.63274 0.0
C542 C 0.46459 0.9923 0.62235 0.0
C543 C 0.42928 0.94763 0.63596 0.0
C544 C 0.35536 0.02381 0.61166 0.0
N545 N 0.36106 0.0498 0.62105 0.0
C546 C 0.31215 0.05573 0.63019 0.0
C547 C 0.34014 0.06602 0.63002 0.0
C548 C 0.3058 0.02846 0.62115 0.0
C549 C 0.32776 0.01268 0.61152 0.0
H550 H 0.37245 0.01139 0.60466 0.0
H551 H 0.34527 0.08664 0.63739 0.0
C552 C 0.47684 0.06016 0.67728 0.0
N553 N 0.45867 0.04099 0.66811 0.0
C554 C 0.48717 0.05477 0.69725 0.0
C555 C 0.46016 0.00976 0.69796 0.0
C556 C 0.45037 0.01601 0.6779 0.0
C557 C 0.47843 0.02957 0.70798 0.0
H558 H 0.4826 0.08013 0.66927 0.0
H559 H 0.43541 0.00143 0.67051 0.0
C560 C 0.3946 0.10159 0.59101 0.0
N561 N 0.35282 0.13927 0.57703 0.0
C562 C 0.38714 0.10205 0.56995 0.0
C563 C 0.3808 0.12028 0.60498 0.0
C564 C 0.36597 0.12126 0.56318 0.0
C565 C 0.35974 0.13917 0.5976 0.0
C566 C 0.49812 0.07682 0.6214 0.0
C567 C 0.50957 0.10053 0.61049 0.0
C568 C 0.51629 0.0558 0.62994 0.0
C569 C 0.53898 0.10244 0.60788 0.0
C570 C 0.54559 0.05849 0.62701 0.0
N571 N 0.55623 0.08154 0.61611 0.0
C572 C 0.45612 0.15094 0.6404 0.0
C573 C 0.44634 0.15546 0.6043 0.0
C574 C 0.46846 0.17874 0.64074 0.0
N575 N 0.44566 0.13984 0.62232 0.0
C576 C 0.45834 0.18343 0.60397 0.0
C577 C 0.46996 0.19519 0.62231 0.0
H578 H 0.45587 0.13768 0.65436 0.0
H579 H 0.43875 0.14571 0.59 0.0
C580 C 0.45399 0.01197 0.57214 0.0
N581 N 0.46252 0.03827 0.57985 0.0
C582 C 0.46486 0.00175 0.55325 0.0
C583 C 0.49282 0.04597 0.5505 0.0
C584 C 0.48131 0.05539 0.56937 0.0
C585 C 0.48456 0.01885 0.54223 0.0
H586 H 0.43829 0.99921 0.58044 0.0
H587 H 0.48669 0.07676 0.57531 0.0
O588 O 0.41295 0.08472 0.64646 0.0
O589 O 0.42513 0.02555 0.62296 0.0
O590 O 0.41519 0.08274 0.5978 0.0
O591 O 0.46939 0.07488 0.62444 0.0
H592 H 0.39245 0.03244 0.65669 0.0
H593 H 0.39919 0.12246 0.67586 0.0
H594 H 0.36526 0.02184 0.68887 0.0
H595 H 0.37179 0.11026 0.70779 0.0
H596 H 0.49727 0.95933 0.62298 0.0
H597 H 0.39569 0.97968 0.63564 0.0
H598 H 0.47857 0.00934 0.61681 0.0
H599 H 0.41574 0.93003 0.64129 0.0
H600 H 0.2957 0.06886 0.63739 0.0
H601 H 0.32378 0.99156 0.60442 0.0
H602 H 0.50101 0.07071 0.70454 0.0
H603 H 0.45316 0.98996 0.70568 0.0
H604 H 0.39762 0.08767 0.55895 0.0
H605 H 0.38627 0.12029 0.62133 0.0
H606 H 0.35998 0.12185 0.54692 0.0
H607 H 0.34889 0.15375 0.60823 0.0
H608 H 0.49588 0.11716 0.60394 0.0
H609 H 0.50792 0.03771 0.63892 0.0
H610 H 0.54809 0.12056 0.59933 0.0
H611 H 0.55987 0.04233 0.63348 0.0
H612 H 0.47724 0.18707 0.65517 0.0
H613 H 0.45965 0.19519 0.58936 0.0
H614 H 0.45782 0.98082 0.54723 0.0
H615 H 0.50734 0.06014 0.54215 0.0
Li616 Li 0.05531 0.94988 0.64352 0.0
Li617 Li 0.09888 0.9423 0.6241 0.0
Li618 Li 0.05511 0.94957 0.60665 0.0
Li619 Li 0.06088 0.90398 0.62437 0.0
C620 C 0.0882 0.99884 0.63654 0.0
N621 N 0.116 0.04075 0.65996 0.0
C622 C 0.1024 0.9909 0.65483 0.0
C623 C 0.08816 0.02809 0.63019 0.0
C624 C 0.11633 0.01241 0.66644 0.0
C625 C 0.10231 0.04896 0.64224 0.0
C626 C 0.10203 0.89776 0.65521 0.0
C627 C 0.13529 0.85871 0.64854 0.0
N628 N 0.13832 0.85464 0.66941 0.0
C629 C 0.10539 0.89314 0.67658 0.0
C630 C 0.11702 0.88039 0.64105 0.0
C631 C 0.12388 0.87126 0.68345 0.0
C632 C 0.02935 0.94046 0.68075 0.0
N633 N 0.03887 0.96297 0.66884 0.0
C634 C 0.02534 0.99761 0.69495 0.0
C635 C 0.03676 0.99126 0.67533 0.0
C636 C 0.0155 0.97464 0.70754 0.0
C637 C 0.01743 0.94582 0.70021 0.0
H638 H 0.03133 0.91823 0.67512 0.0
H639 H 0.04409 0.00884 0.66544 0.0
C640 C 0.14539 0.97236 0.6085 0.0
N641 N 0.13837 0.95249 0.6234 0.0
C642 C 0.17262 0.98441 0.60783 0.0
C643 C 0.18513 0.95534 0.63789 0.0
C644 C 0.15758 0.94389 0.63802 0.0
C645 C 0.19278 0.97621 0.62282 0.0
H646 H 0.12941 0.97974 0.5976 0.0
H647 H 0.15144 0.92892 0.6502 0.0
C648 C 0.00224 0.94463 0.62544 0.0
N649 N 0.95079 0.97376 0.62622 0.0
C650 C 0.9768 0.92887 0.62549 0.0
C651 C 0.00153 0.97523 0.62577 0.0
C652 C 0.951 0.944 0.62589 0.0
C653 C 0.97531 0.98954 0.62618 0.0
C654 C 0.0808 0.91515 0.5797 0.0
C655 C 0.06071 0.89553 0.57181 0.0
C656 C 0.09698 0.93204 0.56597 0.0
C657 C 0.05696 0.89334 0.55028 0.0
C658 C 0.09252 0.92931 0.54454 0.0
N659 N 0.07277 0.91018 0.5372 0.0
C660 C 0.05041 0.99029 0.57373 0.0
C661 C 0.01748 0.95105 0.57258 0.0
C662 C 0.04102 0.00042 0.5544 0.0
N663 N 0.03886 0.96578 0.58218 0.0
C664 C 0.00774 0.96013 0.55311 0.0
C665 C 0.01992 0.9848 0.54359 0.0
H666 H 0.06744 0.0015 0.58176 0.0
H667 H 0.00882 0.9315 0.57965 0.0
C668 C 0.02773 0.85866 0.63867 0.0
N669 N 0.05009 0.864 0.62583 0.0
C670 C 0.01624 0.83062 0.64013 0.0
C671 C 0.05129 0.81383 0.61531 0.0
C672 C 0.06221 0.8423 0.61437 0.0
C673 C 0.02795 0.8078 0.62829 0.0
H674 H 0.01845 0.87643 0.64748 0.0
H675 H 0.07994 0.8472 0.60423 0.0
O676 O 0.07479 0.97824 0.62458 0.0
O677 O 0.08372 0.91888 0.64834 0.0
O678 O 0.02759 0.92998 0.62502 0.0
O679 O 0.08428 0.91808 0.60077 0.0
H680 H 0.10274 0.96845 0.66007 0.0
H681 H 0.07734 0.03457 0.61604 0.0
H682 H 0.12742 0.00657 0.6806 0.0
H683 H 0.10245 0.07167 0.63749 0.0
H684 H 0.14706 0.84514 0.63777 0.0
H685 H 0.09381 0.90635 0.68772 0.0
H686 H 0.11471 0.88365 0.62446 0.0
H687 H 0.12674 0.86746 0.69995 0.0
H688 H 0.02409 0.0201 0.70021 0.0
H689 H 0.0103 0.92758 0.70965 0.0
H690 H 0.17757 0.00069 0.59611 0.0
H691 H 0.20018 0.94818 0.64959 0.0
H692 H 0.977 0.90518 0.6252 0.0
H693 H 0.02094 0.98785 0.62571 0.0
H694 H 0.93114 0.93207 0.62593 0.0
H695 H 0.97444 0.0132 0.62645 0.0
H696 H 0.04768 0.88259 0.58219 0.0
H697 H 0.11264 0.94729 0.57176 0.0
H698 H 0.04132 0.87843 0.54397 0.0
H699 H 0.10473 0.94244 0.53374 0.0
H700 H 0.05038 0.02005 0.54792 0.0
H701 H 0.9915 0.9474 0.54531 0.0
H702 H 0.99791 0.827 0.65001 0.0
H703 H 0.06087 0.79674 0.60595 0.0
Li704 Li 0.55925 0.59885 0.12056 0.0
Li705 Li 0.55203 0.55194 0.14111 0.0
Li706 Li 0.59813 0.56176 0.12106 0.0
Li707 Li 0.55439 0.55317 0.10356 0.0
C708 C 0.58997 0.59963 0.16146 0.0
N709 N 0.60764 0.63165 0.19562 0.0
C710 C 0.57162 0.604 0.17831 0.0
C711 C 0.61742 0.61131 0.1621 0.0
C712 C 0.58092 0.62031 0.1954 0.0
C713 C 0.62591 0.62751 0.17947 0.0
C714 C 0.50204 0.5668 0.11058 0.0
C715 C 0.46408 0.53427 0.10051 0.0
N716 N 0.45514 0.55428 0.08627 0.0
C717 C 0.49241 0.58709 0.0959 0.0
C718 C 0.48777 0.54017 0.11294 0.0
C719 C 0.46869 0.58034 0.08374 0.0
C720 C 0.54388 0.65273 0.10167 0.0
N721 N 0.54799 0.63906 0.12025 0.0
C722 C 0.52841 0.67991 0.13853 0.0
C723 C 0.54077 0.65217 0.13849 0.0
C724 C 0.52264 0.69402 0.11956 0.0
C725 C 0.53119 0.6804 0.10096 0.0
H726 H 0.54929 0.64157 0.08735 0.0
H727 H 0.54357 0.6407 0.153 0.0
C728 C 0.55648 0.53102 0.182 0.0
N729 N 0.53762 0.53769 0.16669 0.0
C730 C 0.547 0.52635 0.20236 0.0
C731 C 0.49877 0.5334 0.19038 0.0
C732 C 0.50922 0.53852 0.17038 0.0
C733 C 0.5178 0.52811 0.20683 0.0
H734 H 0.57902 0.53127 0.17867 0.0
H735 H 0.49476 0.54469 0.15809 0.0
C736 C 0.60219 0.60415 0.09047 0.0
N737 N 0.6422 0.64454 0.07755 0.0
C738 C 0.61227 0.60368 0.06999 0.0
C739 C 0.61242 0.62521 0.10434 0.0
C740 C 0.63252 0.62426 0.06376 0.0
C741 C 0.63263 0.64544 0.09753 0.0
C742 C 0.57546 0.49911 0.11384 0.0
C743 C 0.5923 0.49465 0.0962 0.0
C744 C 0.5599 0.47587 0.1222 0.0
C745 C 0.59304 0.46693 0.08704 0.0
C746 C 0.56124 0.44847 0.11259 0.0
N747 N 0.57762 0.44461 0.09535 0.0
C748 C 0.64936 0.54605 0.14053 0.0
C749 C 0.65212 0.54961 0.10374 0.0
C750 C 0.677 0.53496 0.14145 0.0
N751 N 0.63749 0.55286 0.12185 0.0
C752 C 0.67975 0.53848 0.10394 0.0
C753 C 0.69227 0.53038 0.12293 0.0
H754 H 0.637 0.54832 0.15464 0.0
H755 H 0.64189 0.55441 0.08906 0.0
C756 C 0.54135 0.55517 0.06158 0.0
N757 N 0.53929 0.53708 0.07832 0.0
C758 C 0.531 0.54648 0.04223 0.0
C759 C 0.51635 0.50059 0.05757 0.0
C760 C 0.52686 0.51027 0.07673 0.0
C761 C 0.51827 0.51891 0.04009 0.0
H762 H 0.55088 0.57655 0.0633 0.0
H763 H 0.5247 0.49654 0.09031 0.0
O764 O 0.58144 0.5832 0.14475 0.0
O765 O 0.5257 0.5727 0.12222 0.0
O766 O 0.58258 0.58385 0.09674 0.0
O767 O 0.5744 0.52602 0.12307 0.0
H768 H 0.55028 0.59518 0.1781 0.0
H769 H 0.63209 0.60783 0.14936 0.0
H770 H 0.56687 0.62398 0.20848 0.0
H771 H 0.64707 0.63673 0.18013 0.0
H772 H 0.45297 0.51366 0.10207 0.0
H773 H 0.50329 0.60771 0.09378 0.0
H774 H 0.4953 0.52393 0.1239 0.0
H775 H 0.4611 0.59577 0.07223 0.0
H776 H 0.52285 0.68993 0.15326 0.0
H777 H 0.5271 0.69049 0.086 0.0
H778 H 0.56252 0.52322 0.2146 0.0
H779 H 0.47611 0.53492 0.19314 0.0
H780 H 0.60465 0.58744 0.05906 0.0
H781 H 0.60469 0.62612 0.12014 0.0
H782 H 0.64056 0.62408 0.04798 0.0
H783 H 0.64068 0.66188 0.10811 0.0
H784 H 0.60437 0.51249 0.08953 0.0
H785 H 0.54683 0.47904 0.1359 0.0
H786 H 0.60583 0.46317 0.07329 0.0
H787 H 0.54923 0.43028 0.11883 0.0
H788 H 0.68609 0.52948 0.15645 0.0
H789 H 0.69076 0.53508 0.08931 0.0
H790 H 0.53313 0.56107 0.02902 0.0
H791 H 0.50643 0.47925 0.05649 0.0
Li792 Li 0.93456 0.40288 0.12255 0.0
Li793 Li 0.9421 0.44688 0.14309 0.0
Li794 Li 0.89806 0.44257 0.12224 0.0
Li795 Li 0.94409 0.45188 0.10576 0.0
C796 C 0.89137 0.39742 0.15277 0.0
N797 N 0.85172 0.35692 0.1661 0.0
C798 C 0.89138 0.38789 0.17346 0.0
C799 C 0.87104 0.38657 0.13893 0.0
C800 C 0.87121 0.36733 0.17988 0.0
C801 C 0.85121 0.36607 0.14594 0.0
C802 C 0.99372 0.42748 0.13474 0.0
C803 C 0.03675 0.45109 0.14628 0.0
N804 N 0.04298 0.42726 0.15813 0.0
C805 C 0.00066 0.40311 0.14688 0.0
C806 C 0.01198 0.45158 0.13428 0.0
C807 C 0.02562 0.40347 0.15865 0.0
C808 C 0.96495 0.35695 0.10576 0.0
N809 N 0.94481 0.36266 0.12038 0.0
C810 C 0.94774 0.3136 0.13313 0.0
C811 C 0.93579 0.34159 0.1338 0.0
C812 C 0.96949 0.30746 0.11877 0.0
C813 C 0.97762 0.32937 0.10465 0.0
H814 H 0.97198 0.37428 0.09549 0.0
H815 H 0.92006 0.34658 0.14548 0.0
C816 C 0.96193 0.48657 0.17481 0.0
N817 N 0.95683 0.45831 0.1693 0.0
C818 C 0.97175 0.49312 0.19485 0.0
C819 C 0.9709 0.4414 0.20288 0.0
C820 C 0.96104 0.43591 0.18284 0.0
C821 C 0.97626 0.4703 0.20915 0.0
H822 H 0.95797 0.504 0.16381 0.0
H823 H 0.95662 0.4137 0.17802 0.0
C824 C 0.90038 0.41004 0.08231 0.0
N825 N 0.87066 0.38616 0.04929 0.0
C826 C 0.89476 0.42683 0.06459 0.0
C827 C 0.89128 0.38093 0.08308 0.0
C828 C 0.87958 0.41442 0.04811 0.0
C829 C 0.87617 0.3693 0.06627 0.0
C830 C 0.92635 0.50494 0.11876 0.0
C831 C 0.90296 0.5201 0.11076 0.0
C832 C 0.95298 0.51845 0.11923 0.0
C833 C 0.90673 0.54844 0.10308 0.0
C834 C 0.95588 0.54681 0.11137 0.0
N835 N 0.93289 0.56108 0.10351 0.0
C836 C 0.84549 0.45688 0.14008 0.0
C837 C 0.84588 0.45986 0.10323 0.0
C838 C 0.81782 0.46786 0.14076 0.0
N839 N 0.8589 0.45316 0.12151 0.0
C840 C 0.81823 0.47099 0.10318 0.0
C841 C 0.80394 0.47527 0.12214 0.0
H842 H 0.85664 0.45213 0.15442 0.0
H843 H 0.85727 0.45762 0.08874 0.0
C844 C 0.98757 0.45828 0.07627 0.0
N845 N 0.96166 0.4687 0.082 0.0
C846 C 0.99976 0.46695 0.05743 0.0
C847 C 0.95875 0.49757 0.05106 0.0
C848 C 0.94727 0.48815 0.06993 0.0
C849 C 0.98502 0.48644 0.04444 0.0
H850 H 0.99832 0.44247 0.08602 0.0
H851 H 0.92635 0.49543 0.0745 0.0
O852 O 0.911 0.41756 0.1463 0.0
O853 O 0.9691 0.42779 0.12343 0.0
O854 O 0.91575 0.42162 0.09844 0.0
O855 O 0.9231 0.47711 0.12622 0.0
H856 H 0.90682 0.39623 0.18444 0.0
H857 H 0.87037 0.39409 0.12301 0.0
H858 H 0.87104 0.35968 0.19582 0.0
H859 H 0.83537 0.35749 0.13537 0.0
H860 H 0.05102 0.46965 0.14616 0.0
H861 H 0.98674 0.38429 0.14744 0.0
H862 H 0.00709 0.47044 0.12477 0.0
H863 H 0.03116 0.38486 0.16824 0.0
H864 H 0.94037 0.29711 0.14397 0.0
H865 H 0.99434 0.32556 0.09337 0.0
H866 H 0.9752 0.51573 0.19923 0.0
H867 H 0.97433 0.42319 0.21339 0.0
H868 H 0.90178 0.4493 0.06363 0.0
H869 H 0.89592 0.36735 0.09645 0.0
H870 H 0.87492 0.42726 0.03437 0.0
H871 H 0.86892 0.34684 0.06671 0.0
H872 H 0.88216 0.51006 0.11042 0.0
H873 H 0.97123 0.50708 0.12546 0.0
H874 H 0.88885 0.56038 0.09676 0.0
H875 H 0.97641 0.55746 0.11152 0.0
H876 H 0.80776 0.47147 0.15571 0.0
H877 H 0.80826 0.47659 0.0885 0.0
H878 H 0.02019 0.45812 0.05286 0.0
H879 H 0.94669 0.51244 0.04133 0.0
Li880 Li 0.05594 0.44947 0.3953 0.0
Li881 Li 0.10054 0.44157 0.37711 0.0
Li882 Li 0.0568 0.44902 0.35726 0.0
Li883 Li 0.06395 0.40331 0.37589 0.0
C884 C 0.06251 0.5035 0.37571 0.0
N885 N 0.03541 0.55709 0.37407 0.0
C886 C 0.07821 0.52906 0.37252 0.0
C887 C 0.03303 0.50518 0.37811 0.0
C888 C 0.06412 0.55596 0.37173 0.0
C889 C 0.01972 0.53248 0.37721 0.0
C890 C 0.10542 0.40704 0.41246 0.0
C891 C 0.13902 0.36859 0.41988 0.0
N892 N 0.14858 0.38403 0.43658 0.0
C893 C 0.11522 0.4223 0.4299 0.0
C894 C 0.11708 0.37977 0.40757 0.0
C895 C 0.1372 0.4104 0.44182 0.0
C896 C 0.01545 0.45371 0.42737 0.0
N897 N 0.04013 0.46501 0.41991 0.0
C898 C 0.04468 0.49623 0.44952 0.0
C899 C 0.05476 0.48594 0.43044 0.0
C900 C 0.01931 0.48484 0.45774 0.0
C901 C 0.00456 0.4634 0.44639 0.0
H902 H 0.00455 0.43678 0.41873 0.0
H903 H 0.07459 0.49412 0.4242 0.0
C904 C 0.15713 0.44938 0.3616 0.0
N905 N 0.13955 0.45304 0.37823 0.0
C906 C 0.18457 0.46106 0.36188 0.0
C907 C 0.17503 0.48096 0.39604 0.0
C908 C 0.14788 0.46867 0.39519 0.0
C909 C 0.19362 0.4774 0.37915 0.0
H910 H 0.14959 0.43839 0.34779 0.0
H911 H 0.13306 0.4725 0.40775 0.0
C912 C 0.00774 0.41694 0.36479 0.0
N913 N 0.96388 0.39249 0.34209 0.0
C914 C 0.01353 0.40114 0.34664 0.0
C915 C 0.97964 0.42037 0.37137 0.0
C916 C 0.99108 0.38892 0.33539 0.0
C917 C 0.95775 0.40784 0.35968 0.0
C918 C 0.101 0.39839 0.34151 0.0
C919 C 0.09173 0.39045 0.3216 0.0
C920 C 0.12473 0.38451 0.35013 0.0
C921 C 0.10627 0.36862 0.31071 0.0
C922 C 0.13872 0.36283 0.33872 0.0
N923 N 0.12926 0.35537 0.31942 0.0
C924 C 0.05939 0.46433 0.31541 0.0
C925 C 0.01434 0.47342 0.33064 0.0
C926 C 0.04882 0.47092 0.29567 0.0
N927 N 0.04193 0.46486 0.33224 0.0
C928 C 0.00292 0.48042 0.3112 0.0
C929 C 0.02007 0.47849 0.29333 0.0
H930 H 0.08121 0.45735 0.31719 0.0
H931 H 0.00088 0.47357 0.34428 0.0
C932 C 0.03211 0.35719 0.39103 0.0
N933 N 0.05285 0.36285 0.37683 0.0
C934 C 0.01916 0.32971 0.39181 0.0
C935 C 0.04993 0.31383 0.36391 0.0
C936 C 0.06215 0.3417 0.36356 0.0
C937 C 0.02768 0.30777 0.37785 0.0
H938 H 0.02494 0.37445 0.4013 0.0
H939 H 0.07853 0.34636 0.35236 0.0
O940 O 0.07613 0.47708 0.37654 0.0
O941 O 0.08388 0.41834 0.40065 0.0
O942 O 0.02936 0.42923 0.37604 0.0
O943 O 0.08697 0.41973 0.35237 0.0
H944 H 0.10107 0.5281 0.37068 0.0
H945 H 0.02049 0.48568 0.38065 0.0
H946 H 0.07601 0.57592 0.36926 0.0
H947 H 0.99692 0.5341 0.37903 0.0
H948 H 0.14837 0.34758 0.4162 0.0
H949 H 0.106 0.44318 0.43413 0.0
H950 H 0.1092 0.3673 0.39447 0.0
H951 H 0.14517 0.42208 0.45525 0.0
H952 H 0.057 0.51229 0.45802 0.0
H953 H 0.98496 0.45409 0.45224 0.0
H954 H 0.1982 0.4583 0.34843 0.0
H955 H 0.18128 0.49346 0.40962 0.0
H956 H 0.03512 0.39834 0.34129 0.0
H957 H 0.97478 0.43267 0.38533 0.0
H958 H 0.99528 0.37661 0.32133 0.0
H959 H 0.93589 0.41032 0.36459 0.0
H960 H 0.07342 0.40093 0.31465 0.0
H961 H 0.1324 0.39056 0.36539 0.0
H962 H 0.09926 0.3622 0.29533 0.0
H963 H 0.15711 0.35193 0.34521 0.0
H964 H 0.06263 0.46842 0.2823 0.0
H965 H 0.98064 0.48616 0.31003 0.0
H966 H 0.00208 0.32595 0.4028 0.0
H967 H 0.05765 0.29728 0.35324 0.0
Li968 Li 0.44585 0.55066 0.3967 0.0
Li969 Li 0.40117 0.55995 0.3801 0.0
Li970 Li 0.44602 0.55681 0.35978 0.0
Li971 Li 0.43864 0.59963 0.38201 0.0
C972 C 0.42799 0.49738 0.3815 0.0
N973 N 0.43134 0.43938 0.3934 0.0
C974 C 0.40413 0.48321 0.38969 0.0
C975 C 0.45344 0.48197 0.37915 0.0
C976 C 0.40628 0.45389 0.39566 0.0
C977 C 0.45474 0.45269 0.38534 0.0
C978 C 0.41349 0.57471 0.42564 0.0
C979 C 0.42516 0.5849 0.46149 0.0
N980 N 0.40952 0.56134 0.46752 0.0
C981 C 0.39745 0.55066 0.43219 0.0
C982 C 0.42736 0.59207 0.44039 0.0
C983 C 0.3957 0.54427 0.45343 0.0
C984 C 0.48625 0.54782 0.42826 0.0
N985 N 0.46381 0.53283 0.42026 0.0
C986 C 0.46454 0.49966 0.44903 0.0
C987 C 0.45297 0.50901 0.43018 0.0
C988 C 0.48728 0.51515 0.4579 0.0
C989 C 0.49834 0.53938 0.44718 0.0
H990 H 0.49395 0.56719 0.42039 0.0
H991 H 0.43447 0.49807 0.42413 0.0
C992 C 0.35337 0.53314 0.36318 0.0
N993 N 0.36183 0.5508 0.37903 0.0
C994 C 0.32552 0.52271 0.36242 0.0
C995 C 0.31537 0.54951 0.39403 0.0
C996 C 0.34341 0.55962 0.39408 0.0
C997 C 0.3062 0.53053 0.37815 0.0
H998 H 0.36856 0.5265 0.35144 0.0
H999 H 0.35071 0.57377 0.40647 0.0
C1000 C 0.49835 0.57336 0.37146 0.0
N1001 N 0.55119 0.57101 0.35282 0.0
C1002 C 0.50915 0.59789 0.36114 0.0
C1003 C 0.51455 0.54779 0.37258 0.0
C1004 C 0.53588 0.59622 0.35174 0.0
C1005 C 0.54119 0.547 0.36298 0.0
C1006 C 0.39447 0.60585 0.35202 0.0
C1007 C 0.38755 0.60999 0.33107 0.0
C1008 C 0.37945 0.62098 0.36742 0.0
C1009 C 0.36573 0.62939 0.32584 0.0
C1010 C 0.35776 0.64016 0.36155 0.0
N1011 N 0.35142 0.64394 0.34106 0.0
C1012 C 0.46206 0.51928 0.32589 0.0
C1013 C 0.47024 0.57015 0.32177 0.0
C1014 C 0.4718 0.51391 0.30565 0.0
N1015 N 0.46147 0.54708 0.33344 0.0
C1016 C 0.48043 0.56578 0.30166 0.0
C1017 C 0.48104 0.53742 0.29324 0.0
H1018 H 0.45426 0.50142 0.33533 0.0
H1019 H 0.46883 0.59208 0.32803 0.0
C1020 C 0.46768 0.64678 0.39974 0.0
N1021 N 0.44975 0.63966 0.38392 0.0
C1022 C 0.48121 0.674 0.40005 0.0
C1023 C 0.4573 0.68626 0.36791 0.0
C1024 C 0.44425 0.65881 0.36821 0.0
C1025 C 0.47659 0.69383 0.38371 0.0
H1026 H 0.4727 0.63068 0.41152 0.0
H1027 H 0.43086 0.65239 0.35536 0.0
O1028 O 0.42619 0.52597 0.37539 0.0
O1029 O 0.41605 0.58084 0.40486 0.0
O1030 O 0.47211 0.57445 0.38057 0.0
O1031 O 0.41555 0.58667 0.35735 0.0
H1032 H 0.38424 0.49478 0.39159 0.0
H1033 H 0.47198 0.49251 0.37262 0.0
H1034 H 0.38805 0.44269 0.40212 0.0
H1035 H 0.47434 0.44053 0.3837 0.0
H1036 H 0.43592 0.59805 0.47307 0.0
H1037 H 0.38699 0.53667 0.42097 0.0
H1038 H 0.4398 0.61079 0.43562 0.0
H1039 H 0.38356 0.52557 0.4587 0.0
H1040 H 0.45532 0.48092 0.45686 0.0
H1041 H 0.51536 0.55239 0.45374 0.0
H1042 H 0.31926 0.50834 0.34982 0.0
H1043 H 0.30135 0.55569 0.40666 0.0
H1044 H 0.49692 0.6179 0.36021 0.0
H1045 H 0.50667 0.52881 0.38082 0.0
H1046 H 0.54443 0.61495 0.34356 0.0
H1047 H 0.55392 0.52731 0.36364 0.0
H1048 H 0.39895 0.59833 0.31899 0.0
H1049 H 0.38447 0.61802 0.38372 0.0
H1050 H 0.36016 0.63285 0.30968 0.0
H1051 H 0.34597 0.65204 0.37329 0.0
H1052 H 0.4712 0.49181 0.29958 0.0
H1053 H 0.4874 0.58451 0.29266 0.0
H1054 H 0.49616 0.67894 0.41239 0.0
H1055 H 0.45297 0.7011 0.35514 0.0
Li1056 Li 0.4447 0.44973 0.8941 0.0
Li1057 Li 0.43687 0.40493 0.87505 0.0
Li1058 Li 0.44419 0.4519 0.85708 0.0
Li1059 Li 0.39977 0.44425 0.8751 0.0
C1060 C 0.49596 0.43344 0.88491 0.0
N1061 N 0.54581 0.44165 0.90685 0.0
C1062 C 0.50337 0.41421 0.90094 0.0
C1063 C 0.51406 0.45661 0.87984 0.0
C1064 C 0.52861 0.4188 0.91191 0.0
C1065 C 0.53914 0.46044 0.89116 0.0
C1066 C 0.39379 0.40059 0.90467 0.0
C1067 C 0.35952 0.36336 0.8958 0.0
N1068 N 0.35174 0.36159 0.91616 0.0
C1069 C 0.38543 0.39843 0.9255 0.0
C1070 C 0.38073 0.38294 0.88967 0.0
C1071 C 0.36415 0.37856 0.931 0.0
C1072 C 0.47086 0.49075 0.92185 0.0
N1073 N 0.46014 0.4633 0.91967 0.0
C1074 C 0.46862 0.45296 0.95561 0.0
C1075 C 0.45903 0.44438 0.93599 0.0
C1076 C 0.4793 0.48136 0.95845 0.0
C1077 C 0.48074 0.50025 0.94121 0.0
H1078 H 0.47151 0.50536 0.90867 0.0
H1079 H 0.45046 0.42264 0.93376 0.0
C1080 C 0.45474 0.35198 0.85682 0.0
N1081 N 0.44686 0.36458 0.87509 0.0
C1082 C 0.46694 0.32413 0.85665 0.0
C1083 C 0.46253 0.32259 0.89413 0.0
C1084 C 0.45007 0.35036 0.89355 0.0
C1085 C 0.47181 0.30944 0.87555 0.0
H1086 H 0.45269 0.36407 0.84247 0.0
H1087 H 0.44426 0.36119 0.90791 0.0
C1088 C 0.42752 0.50627 0.8685 0.0
N1089 N 0.43311 0.56161 0.85158 0.0
C1090 C 0.40355 0.52147 0.86151 0.0
C1091 C 0.45431 0.5193 0.86695 0.0
C1092 C 0.40682 0.54941 0.853 0.0
C1093 C 0.45671 0.54726 0.85832 0.0
C1094 C 0.40598 0.42688 0.83111 0.0
C1095 C 0.39022 0.45202 0.82655 0.0
C1096 C 0.41376 0.40796 0.81497 0.0
C1097 C 0.38243 0.45777 0.80596 0.0
C1098 C 0.40561 0.41449 0.79457 0.0
N1099 N 0.39024 0.43905 0.79052 0.0
C1100 C 0.48336 0.4504 0.8249 0.0
C1101 C 0.44919 0.48789 0.82007 0.0
C1102 C 0.49433 0.45524 0.80502 0.0
N1103 N 0.46091 0.46631 0.8319 0.0
C1104 C 0.45961 0.49358 0.80012 0.0
C1105 C 0.48194 0.47655 0.79216 0.0
H1106 H 0.49186 0.43292 0.83439 0.0
H1107 H 0.43086 0.49975 0.82558 0.0
C1108 C 0.35315 0.47454 0.8904 0.0
N1109 N 0.36042 0.45342 0.87649 0.0
C1110 C 0.3254 0.48523 0.89108 0.0
C1111 C 0.31282 0.4514 0.86363 0.0
C1112 C 0.34084 0.44121 0.86358 0.0
C1113 C 0.30491 0.47398 0.87735 0.0
H1114 H 0.36921 0.48371 0.90053 0.0
H1115 H 0.34718 0.42429 0.85275 0.0
O1116 O 0.47098 0.42977 0.87436 0.0
O1117 O 0.41449 0.42012 0.89912 0.0
O1118 O 0.42469 0.47897 0.877 0.0
O1119 O 0.41436 0.42129 0.85116 0.0
H1120 H 0.48956 0.3962 0.90507 0.0
H1121 H 0.50883 0.47145 0.86729 0.0
H1122 H 0.53448 0.40426 0.92449 0.0
H1123 H 0.5533 0.47835 0.88748 0.0
H1124 H 0.34924 0.34957 0.88436 0.0
H1125 H 0.39527 0.41201 0.93728 0.0
H1126 H 0.38684 0.38425 0.87348 0.0
H1127 H 0.35747 0.37666 0.94707 0.0
H1128 H 0.46716 0.43778 0.96853 0.0
H1129 H 0.48938 0.52212 0.9427 0.0
H1130 H 0.47312 0.31452 0.84192 0.0
H1131 H 0.46597 0.31209 0.90905 0.0
H1132 H 0.38263 0.51179 0.86255 0.0
H1133 H 0.4731 0.50781 0.87208 0.0
H1134 H 0.38846 0.56137 0.84749 0.0
H1135 H 0.47734 0.55752 0.85693 0.0
H1136 H 0.38455 0.46728 0.8387 0.0
H1137 H 0.426 0.38847 0.81809 0.0
H1138 H 0.37038 0.47723 0.80224 0.0
H1139 H 0.41153 0.40005 0.78194 0.0
H1140 H 0.51141 0.44145 0.79938 0.0
H1141 H 0.4497 0.51046 0.79077 0.0
H1142 H 0.32012 0.50243 0.90203 0.0
H1143 H 0.2978 0.44241 0.85257 0.0
Li1144 Li 0.05449 0.5518 0.89659 0.0
Li1145 Li 0.06213 0.59719 0.87702 0.0
Li1146 Li 0.05382 0.54969 0.85802 0.0
Li1147 Li 0.09852 0.55946 0.87546 0.0
C1148 C 0.99947 0.56759 0.87919 0.0
N1149 N 0.94138 0.56007 0.88302 0.0
C1150 C 0.98257 0.59001 0.88734 0.0
C1151 C 0.98668 0.54157 0.87261 0.0
C1152 C 0.95329 0.58573 0.88927 0.0
C1153 C 0.95733 0.53812 0.87477 0.0
C1154 C 0.09143 0.60454 0.91279 0.0
C1155 C 0.11697 0.64944 0.91904 0.0
N1156 N 0.1033 0.65241 0.93759 0.0
C1157 C 0.07784 0.60787 0.932 0.0
C1158 C 0.11135 0.62532 0.90632 0.0
C1159 C 0.08406 0.63229 0.94428 0.0
C1160 C 0.05565 0.51633 0.93227 0.0
N1161 N 0.04033 0.53725 0.92225 0.0
C1162 C 0.00778 0.54036 0.95068 0.0
C1163 C 0.01686 0.5494 0.93104 0.0
C1164 C 0.02318 0.51884 0.96146 0.0
C1165 C 0.04741 0.50673 0.95202 0.0
H1166 H 0.07463 0.50758 0.92508 0.0
H1167 H 0.00563 0.56667 0.9231 0.0
C1168 C 0.05415 0.65388 0.85956 0.0
N1169 N 0.05174 0.63749 0.87716 0.0
C1170 C 0.04208 0.68185 0.85869 0.0
C1171 C 0.02616 0.67578 0.89421 0.0
C1172 C 0.03842 0.648 0.89439 0.0
C1173 C 0.02721 0.69274 0.87601 0.0
H1174 H 0.06434 0.64475 0.84593 0.0
H1175 H 0.03606 0.63425 0.90796 0.0
C1176 C 0.06666 0.49489 0.87648 0.0
N1177 N 0.05128 0.43654 0.87439 0.0
C1178 C 0.08544 0.47422 0.8682 0.0
C1179 C 0.04027 0.48573 0.88405 0.0
C1180 C 0.07721 0.44487 0.86716 0.0
C1181 C 0.03283 0.45619 0.88277 0.0
C1182 C 0.10386 0.58687 0.839 0.0
C1183 C 0.10918 0.56832 0.82214 0.0
C1184 C 0.12166 0.61081 0.84259 0.0
C1185 C 0.13261 0.57374 0.80934 0.0
C1186 C 0.14487 0.6155 0.82944 0.0
N1187 N 0.14984 0.597 0.81324 0.0
C1188 C 0.01679 0.55052 0.8244 0.0
C1189 C 0.04849 0.51019 0.82372 0.0
C1190 C 0.00668 0.54342 0.80463 0.0
N1191 N 0.03752 0.53415 0.83339 0.0
C1192 C 0.03905 0.50233 0.80386 0.0
C1193 C 0.01837 0.51952 0.79391 0.0
H1194 H 0.00899 0.56988 0.83224 0.0
H1195 H 0.06556 0.49807 0.83092 0.0
C1196 C 0.15655 0.559 0.88859 0.0
N1197 N 0.1377 0.5496 0.874 0.0
C1198 C 0.18428 0.54796 0.8888 0.0
C1199 C 0.17269 0.51833 0.85878 0.0
C1200 C 0.14532 0.53 0.85909 0.0
C1201 C 0.19234 0.52682 0.87405 0.0
H1202 H 0.14979 0.57419 0.90051 0.0
H1203 H 0.1298 0.52268 0.84784 0.0
O1204 O 0.02817 0.5716 0.87698 0.0
O1205 O 0.08546 0.58089 0.90048 0.0
O1206 O 0.07454 0.5237 0.87776 0.0
O1207 O 0.08117 0.58177 0.85181 0.0
H1208 H 0.99193 0.61045 0.89227 0.0
H1209 H 0.99914 0.52433 0.8656 0.0
H1210 H 0.94003 0.60283 0.89571 0.0
H1211 H 0.94721 0.51806 0.86978 0.0
H1212 H 0.13224 0.66577 0.91418 0.0
H1213 H 0.06253 0.59189 0.93732 0.0
H1214 H 0.12234 0.62284 0.89165 0.0
H1215 H 0.07357 0.63525 0.95913 0.0
H1216 H 0.98902 0.55028 0.95746 0.0
H1217 H 0.06027 0.49062 0.96002 0.0
H1218 H 0.04329 0.69428 0.84435 0.0
H1219 H 0.0153 0.68359 0.90801 0.0
H1220 H 0.10613 0.48072 0.86255 0.0
H1221 H 0.02578 0.50114 0.89109 0.0
H1222 H 0.09148 0.42871 0.86065 0.0
H1223 H 0.01243 0.44887 0.88854 0.0
H1224 H 0.09552 0.5498 0.81906 0.0
H1225 H 0.11753 0.62568 0.85533 0.0
H1226 H 0.13709 0.55945 0.79632 0.0
H1227 H 0.1589 0.63388 0.83208 0.0
H1228 H 0.99095 0.55741 0.79736 0.0
H1229 H 0.04845 0.48365 0.7961 0.0
H1230 H 0.1989 0.55496 0.90084 0.0
H1231 H 0.17829 0.50241 0.84697 0.0
Li1232 Li 0.90487 0.55947 0.62445 0.0
Li1233 Li 0.94892 0.54986 0.64326 0.0
Li1234 Li 0.94258 0.59611 0.62523 0.0
Li1235 Li 0.94967 0.55199 0.6051 0.0
C1236 C 0.90156 0.60167 0.65578 0.0
N1237 N 0.86413 0.6443 0.66915 0.0
C1238 C 0.89928 0.60821 0.67697 0.0
C1239 C 0.88485 0.61684 0.64137 0.0
C1240 C 0.88022 0.62983 0.68343 0.0
C1241 C 0.86605 0.63831 0.64845 0.0
C1242 C 0.92337 0.49564 0.62674 0.0
C1243 C 0.93264 0.44441 0.62072 0.0
N1244 N 0.91073 0.43736 0.6336 0.0
C1245 C 0.90086 0.48789 0.63983 0.0
C1246 C 0.9393 0.47374 0.617 0.0
C1247 C 0.89485 0.45831 0.64314 0.0
C1248 C 0.85491 0.53947 0.60564 0.0
N1249 N 0.86552 0.5499 0.62387 0.0
C1250 C 0.82196 0.53916 0.64142 0.0
C1251 C 0.84964 0.55019 0.64156 0.0
C1252 C 0.8106 0.52767 0.62291 0.0
C1253 C 0.82734 0.52819 0.60479 0.0
H1254 H 0.86829 0.53893 0.59194 0.0
H1255 H 0.85881 0.55788 0.65599 0.0
C1256 C 0.98651 0.54998 0.67635 0.0
N1257 N 0.96484 0.53411 0.66809 0.0
C1258 C 0.99748 0.54292 0.69587 0.0
C1259 C 0.96381 0.5031 0.69809 0.0
C1260 C 0.95355 0.51086 0.67841 0.0
C1261 C 0.98586 0.51946 0.70711 0.0
H1262 H 0.9945 0.56892 0.66813 0.0
H1263 H 0.93589 0.49903 0.67185 0.0
C1264 C 0.92642 0.5983 0.58302 0.0
N1265 N 0.93946 0.62874 0.54708 0.0
C1266 C 0.95388 0.60913 0.5799 0.0
C1267 C 0.90561 0.60293 0.56786 0.0
C1268 C 0.96005 0.62446 0.56163 0.0
C1269 C 0.91261 0.61839 0.5498 0.0
C1270 C 0.00248 0.55717 0.62435 0.0
C1271 C 0.02717 0.5739 0.62223 0.0
C1272 C 0.00448 0.52674 0.62586 0.0
C1273 C 0.05352 0.55984 0.62157 0.0
C1274 C 0.03121 0.51349 0.62516 0.0
N1275 N 0.05498 0.53017 0.62303 0.0
C1276 C 0.97662 0.64133 0.63887 0.0
C1277 C 0.93974 0.65821 0.61675 0.0
C1278 C 0.98815 0.66938 0.64009 0.0
N1279 N 0.95308 0.63623 0.62717 0.0
C1280 C 0.95067 0.68668 0.61746 0.0
C1281 C 0.97527 0.69245 0.62919 0.0
H1282 H 0.98684 0.62335 0.64688 0.0
H1283 H 0.92107 0.65353 0.60751 0.0
C1284 C 0.94833 0.5177 0.56887 0.0
N1285 N 0.96458 0.53687 0.57983 0.0
C1286 C 0.95694 0.50839 0.54913 0.0
C1287 C 0.9989 0.53858 0.55245 0.0
C1288 C 0.98957 0.54719 0.57213 0.0
C1289 C 0.98226 0.51931 0.54059 0.0
H1290 H 0.92832 0.51026 0.57527 0.0
H1291 H 0.00186 0.56283 0.58095 0.0
O1292 O 0.92029 0.58065 0.6493 0.0
O1293 O 0.92924 0.52448 0.62288 0.0
O1294 O 0.91989 0.58283 0.60062 0.0
O1295 O 0.97657 0.57073 0.62491 0.0
H1296 H 0.91214 0.59669 0.6883 0.0
H1297 H 0.88628 0.61212 0.62491 0.0
H1298 H 0.87821 0.63511 0.69979 0.0
H1299 H 0.85297 0.65021 0.63748 0.0
H1300 H 0.94484 0.42724 0.61332 0.0
H1301 H 0.88844 0.50449 0.64762 0.0
H1302 H 0.95661 0.47932 0.60664 0.0
H1303 H 0.87758 0.45202 0.65333 0.0
H1304 H 0.80973 0.5391 0.65571 0.0
H1305 H 0.81962 0.51897 0.59033 0.0
H1306 H 0.0139 0.55663 0.70255 0.0
H1307 H 0.95412 0.48506 0.70642 0.0
H1308 H 0.9703 0.60571 0.59143 0.0
H1309 H 0.88427 0.59459 0.57003 0.0
H1310 H 0.98122 0.63293 0.55902 0.0
H1311 H 0.89671 0.62213 0.53793 0.0
H1312 H 0.02595 0.59751 0.62102 0.0
H1313 H 0.98564 0.5135 0.62768 0.0
H1314 H 0.0728 0.5725 0.61989 0.0
H1315 H 0.03307 0.48995 0.62632 0.0
H1316 H 0.00743 0.67281 0.64897 0.0
H1317 H 0.94015 0.70397 0.60887 0.0
H1318 H 0.94354 0.49355 0.54037 0.0
H1319 H 0.01875 0.54715 0.54647 0.0
Li1320 Li 0.56039 0.44662 0.64248 0.0
Li1321 Li 0.60544 0.43848 0.62431 0.0
Li1322 Li 0.56049 0.44699 0.60395 0.0
Li1323 Li 0.56852 0.40038 0.62193 0.0
C1324 C 0.5761 0.50262 0.62797 0.0
N1325 N 0.567 0.56099 0.63709 0.0
C1326 C 0.59698 0.51883 0.6383 0.0
C1327 C 0.55083 0.51625 0.62193 0.0
C1328 C 0.59191 0.54827 0.64288 0.0
C1329 C 0.54656 0.54573 0.62677 0.0
C1330 C 0.60921 0.40601 0.66062 0.0
C1331 C 0.64665 0.37259 0.67019 0.0
N1332 N 0.65127 0.38831 0.68786 0.0
C1333 C 0.61405 0.42161 0.679 0.0
C1334 C 0.62539 0.38111 0.65627 0.0
C1335 C 0.63552 0.41241 0.69252 0.0
C1336 C 0.52159 0.44374 0.67487 0.0
N1337 N 0.54346 0.46021 0.66754 0.0
C1338 C 0.54282 0.48974 0.69828 0.0
C1339 C 0.55419 0.48291 0.67877 0.0
C1340 C 0.52038 0.47289 0.70631 0.0
C1341 C 0.50966 0.44973 0.69428 0.0
H1342 H 0.51408 0.42526 0.6659 0.0
H1343 H 0.57224 0.49499 0.673 0.0
C1344 C 0.66009 0.44688 0.60701 0.0
N1345 N 0.64478 0.44845 0.62494 0.0
C1346 C 0.68768 0.45814 0.60619 0.0
C1347 C 0.68344 0.47197 0.64238 0.0
C1348 C 0.65592 0.46054 0.64249 0.0
C1349 C 0.69944 0.4714 0.62394 0.0
H1350 H 0.65052 0.43786 0.59312 0.0
H1351 H 0.64298 0.46262 0.65629 0.0
C1352 C 0.50636 0.43107 0.61943 0.0
N1353 N 0.44926 0.44132 0.61247 0.0
C1354 C 0.48952 0.40968 0.60994 0.0
C1355 C 0.49402 0.45744 0.62574 0.0
C1356 C 0.46074 0.41535 0.60644 0.0
C1357 C 0.46515 0.46228 0.62199 0.0
C1358 C 0.60156 0.39583 0.58692 0.0
C1359 C 0.58947 0.3901 0.56746 0.0
C1360 C 0.62439 0.37892 0.59388 0.0
C1361 C 0.60013 0.36709 0.55544 0.0
C1362 C 0.63446 0.35613 0.5814 0.0
N1363 N 0.62219 0.35071 0.56261 0.0
C1364 C 0.55613 0.48798 0.57102 0.0
C1365 C 0.526 0.44654 0.56834 0.0
C1366 C 0.54694 0.49814 0.55163 0.0
N1367 N 0.54551 0.46263 0.57893 0.0
C1368 C 0.51608 0.45598 0.54902 0.0
C1369 C 0.52683 0.4819 0.54037 0.0
H1370 H 0.57216 0.49996 0.57956 0.0
H1371 H 0.51884 0.42587 0.57457 0.0
C1372 C 0.55795 0.34385 0.63837 0.0
N1373 N 0.55789 0.36025 0.6207 0.0
C1374 C 0.54512 0.31624 0.63854 0.0
C1375 C 0.53326 0.32262 0.6022 0.0
C1376 C 0.54616 0.3501 0.60276 0.0
C1377 C 0.53189 0.30567 0.62042 0.0
H1378 H 0.56671 0.35279 0.65258 0.0
H1379 H 0.54545 0.36398 0.58915 0.0
O1380 O 0.5808 0.4738 0.62329 0.0
O1381 O 0.5882 0.41463 0.64726 0.0
O1382 O 0.53456 0.4258 0.62307 0.0
O1383 O 0.59134 0.41821 0.59893 0.0
H1384 H 0.61679 0.50875 0.64289 0.0
H1385 H 0.5348 0.50431 0.61338 0.0
H1386 H 0.60779 0.56101 0.65101 0.0
H1387 H 0.52705 0.55651 0.62224 0.0
H1388 H 0.65941 0.35342 0.66698 0.0
H1389 H 0.60151 0.44077 0.6827 0.0
H1390 H 0.62141 0.36835 0.64239 0.0
H1391 H 0.63966 0.42441 0.70673 0.0
H1392 H 0.55188 0.50755 0.70722 0.0
H1393 H 0.49305 0.43556 0.70016 0.0
H1394 H 0.69949 0.457 0.59173 0.0
H1395 H 0.69166 0.48229 0.65633 0.0
H1396 H 0.49861 0.38899 0.6052 0.0
H1397 H 0.50647 0.47387 0.63368 0.0
H1398 H 0.44753 0.39907 0.59896 0.0
H1399 H 0.45536 0.48263 0.62674 0.0
H1400 H 0.57193 0.40316 0.56177 0.0
H1401 H 0.63436 0.38351 0.60869 0.0
H1402 H 0.59086 0.36228 0.54041 0.0
H1403 H 0.65207 0.34281 0.58662 0.0
H1404 H 0.55558 0.51833 0.54544 0.0
H1405 H 0.50084 0.4427 0.54062 0.0
H1406 H 0.54439 0.30389 0.65294 0.0
H1407 H 0.52374 0.31507 0.58782 0.0
C1408 C 0.26962 0.01587 0.12027 0.0
C1409 C 0.27384 0.98663 0.12645 0.0
C1410 C 0.24257 0.02869 0.12081 0.0
C1411 C 0.21869 0.01278 0.12755 0.0
H1412 H 0.28742 0.02901 0.11507 0.0
H1413 H 0.24036 0.0513 0.11598 0.0
S1414 S 0.21809 0.93495 0.14412 0.0
N1415 N 0.25178 0.94182 0.13883 0.0
N1416 N 0.20085 0.96582 0.13971 0.0
C1417 C 0.2226 0.98348 0.13371 0.0
C1418 C 0.25018 0.97045 0.1332 0.0
C1419 C 0.73524 0.00466 0.35959 0.0
C1420 C 0.72811 0.98435 0.37522 0.0
C1421 C 0.7619 0.01845 0.35937 0.0
C1422 C 0.78236 0.0124 0.37476 0.0
H1423 H 0.71983 0.0105 0.34777 0.0
H1424 H 0.76631 0.03442 0.34732 0.0
S1425 S 0.77535 0.95823 0.41753 0.0
N1426 N 0.74438 0.95716 0.40546 0.0
N1427 N 0.79454 0.98278 0.40494 0.0
C1428 C 0.77581 0.99137 0.39004 0.0
C1429 C 0.74868 0.97743 0.3903 0.0
C1430 C 0.75381 0.97591 0.86502 0.0
C1431 C 0.77614 0.98699 0.87727 0.0
C1432 C 0.72702 0.98934 0.86493 0.0
C1433 C 0.72156 0.01439 0.87705 0.0
H1434 H 0.75701 0.95654 0.85558 0.0
H1435 H 0.71034 0.97983 0.85548 0.0
S1436 S 0.77345 0.05341 0.91049 0.0
N1437 N 0.79145 0.02542 0.90095 0.0
N1438 N 0.74106 0.05059 0.90081 0.0
C1439 C 0.74377 0.02589 0.88918 0.0
C1440 C 0.77105 0.01222 0.88928 0.0
C1441 C 0.23717 0.99153 0.60423 0.0
C1442 C 0.22145 0.98985 0.62284 0.0
C1443 C 0.26427 0.00427 0.6038 0.0
C1444 C 0.27661 0.01606 0.62192 0.0
H1445 H 0.2286 0.98259 0.58992 0.0
H1446 H 0.27563 0.00497 0.58913 0.0
S1447 S 0.244 0.01775 0.67454 0.0
N1448 N 0.21987 0.00177 0.65973 0.0
N1449 N 0.27105 0.02515 0.65902 0.0
C1450 C 0.26103 0.01475 0.6406 0.0
C1451 C 0.23344 0.00173 0.64104 0.0
C1452 C 0.77003 0.51469 0.11132 0.0
C1453 C 0.77525 0.48876 0.12251 0.0
C1454 C 0.74325 0.52814 0.11167 0.0
C1455 C 0.72067 0.51616 0.12324 0.0
H1456 H 0.78691 0.52489 0.10242 0.0
H1457 H 0.74026 0.54821 0.10296 0.0
S1458 S 0.72272 0.44727 0.15385 0.0
N1459 N 0.7553 0.45083 0.14464 0.0
N1460 N 0.7049 0.47595 0.14522 0.0
C1461 C 0.72552 0.49003 0.13429 0.0
C1462 C 0.7528 0.47637 0.13395 0.0
C1463 C 0.27348 0.48748 0.37486 0.0
C1464 C 0.27715 0.51767 0.37845 0.0
C1465 C 0.24643 0.47464 0.37513 0.0
C1466 C 0.22203 0.49143 0.37918 0.0
H1467 H 0.29171 0.47355 0.37204 0.0
H1468 H 0.2446 0.45132 0.37237 0.0
S1469 S 0.21965 0.57159 0.38808 0.0
N1470 N 0.25376 0.56423 0.38506 0.0
N1471 N 0.20297 0.53994 0.38591 0.0
C1472 C 0.22529 0.52163 0.38265 0.0
C1473 C 0.25282 0.53477 0.38222 0.0
C1474 C 0.24539 0.53026 0.87577 0.0
C1475 C 0.22077 0.5129 0.87502 0.0
C1476 C 0.27246 0.51746 0.87655 0.0
C1477 C 0.2759 0.48682 0.87676 0.0
H1478 H 0.24373 0.55391 0.87545 0.0
H1479 H 0.29086 0.53171 0.8767 0.0
S1480 S 0.21793 0.4318 0.87692 0.0
N1481 N 0.20136 0.46361 0.87567 0.0
N1482 N 0.2522 0.43954 0.87739 0.0
C1483 C 0.25138 0.46924 0.87639 0.0
C1484 C 0.22384 0.48228 0.87548 0.0
C1485 C 0.7482 0.47954 0.63852 0.0
C1486 C 0.72778 0.48566 0.62313 0.0
C1487 C 0.77484 0.4933 0.63835 0.0
C1488 C 0.78204 0.51378 0.62283 0.0
H1489 H 0.74363 0.46381 0.65069 0.0
H1490 H 0.79006 0.48757 0.65033 0.0
S1491 S 0.73521 0.53923 0.58004 0.0
N1492 N 0.71598 0.51468 0.59259 0.0
N1493 N 0.76602 0.54059 0.59232 0.0
C1494 C 0.76168 0.52035 0.6075 0.0
C1495 C 0.73457 0.5063 0.60765 0.0
C1496 C 0.99252 0.00289 0.2592 0.0
C1497 C 0.99122 0.02864 0.27115 0.0
C1498 C 1.00021 0.00387 0.23805 0.0
C1499 C 0.00614 0.03069 0.22819 0.0
H1500 H 0.98782 0.98193 0.26629 0.0
H1501 H 0.00119 0.98363 0.22929 0.0
S1502 S 0.00518 0.10418 0.25275 0.0
N1503 N 0.99624 0.08154 0.27169 0.0
N1504 N 0.01034 0.08345 0.23203 0.0
C1505 C 0.00469 0.05652 0.24002 0.0
C1506 C 0.99729 0.05548 0.2615 0.0
C1507 C 0.50313 0.94671 0.23748 0.0
C1508 C 0.49313 0.97292 0.22862 0.0
C1509 C 0.51165 0.94544 0.25831 0.0
C1510 C 0.51061 0.97034 0.27116 0.0
H1511 H 0.50389 0.9268 0.22832 0.0
H1512 H 0.5192 0.92474 0.2644 0.0
S1513 S 0.48665 0.04446 0.2555 0.0
N1514 N 0.48316 0.02455 0.23417 0.0
N1515 N 0.49905 0.02208 0.27356 0.0
C1516 C 0.50099 0.99682 0.2625 0.0
C1517 C 0.49216 0.99809 0.24122 0.0
C1518 C 0.02165 0.99211 0.74412 0.0
C1519 C 0.00407 0.98013 0.72861 0.0
C1520 C 0.01272 0.99312 0.76497 0.0
C1521 C 0.98577 0.98265 0.77084 0.0
H1522 H 0.04291 0.99945 0.74027 0.0
H1523 H 0.02722 0.00145 0.77666 0.0
S1524 S 0.93134 0.95077 0.73574 0.0
N1525 N 0.95823 0.95883 0.72023 0.0
N1526 N 0.94129 0.96089 0.75933 0.0
C1527 C 0.96759 0.9718 0.75527 0.0
C1528 C 0.9768 0.97048 0.73416 0.0
C1529 C 0.51621 0.02833 0.73533 0.0
C1530 C 0.48744 0.02509 0.72988 0.0
C1531 C 0.52491 0.02745 0.75618 0.0
C1532 C 0.50513 0.02351 0.77238 0.0
H1533 H 0.53205 0.03222 0.7234 0.0
H1534 H 0.54715 0.03112 0.75967 0.0
S1535 S 0.42751 0.01231 0.76633 0.0
N1536 N 0.43929 0.0167 0.7423 0.0
N1537 N 0.45575 0.0146 0.78151 0.0
C1538 C 0.47644 0.01919 0.76711 0.0
C1539 C 0.46758 0.02001 0.74585 0.0
C1540 C 0.48806 0.54986 0.23508 0.0
C1541 C 0.50747 0.52819 0.22874 0.0
C1542 C 0.47934 0.55218 0.25582 0.0
C1543 C 0.48978 0.53308 0.27121 0.0
H1544 H 0.48004 0.56576 0.22404 0.0
H1545 H 0.46439 0.5693 0.25986 0.0
S1546 S 0.54021 0.47179 0.26272 0.0
N1547 N 0.5359 0.4863 0.23938 0.0
N1548 N 0.52025 0.49137 0.27865 0.0
C1549 C 0.5088 0.51092 0.26509 0.0
C1550 C 0.51756 0.5084 0.24383 0.0
C1551 C 0.98253 0.46447 0.2678 0.0
C1552 C 0.00733 0.48049 0.27223 0.0
C1553 C 0.97209 0.4623 0.24747 0.0
C1554 C 0.986 0.47606 0.23074 0.0
H1555 H 0.97177 0.45237 0.27999 0.0
H1556 H 0.95332 0.4491 0.24475 0.0
S1557 S 0.0503 0.52275 0.23423 0.0
N1558 N 0.04428 0.51229 0.25846 0.0
N1559 N 0.02497 0.5076 0.22005 0.0
C1560 C 0.01007 0.49326 0.23503 0.0
C1561 C 0.0207 0.49553 0.2558 0.0
C1562 C 0.52941 0.47953 0.74441 0.0
C1563 C 0.50989 0.47757 0.72787 0.0
C1564 C 0.52016 0.48025 0.76516 0.0
C1565 C 0.49107 0.47922 0.77012 0.0
H1566 H 0.55205 0.47928 0.74137 0.0
H1567 H 0.53594 0.48098 0.77744 0.0
S1568 S 0.43132 0.47587 0.73246 0.0
N1569 N 0.46011 0.47647 0.71776 0.0
N1570 N 0.44273 0.47706 0.75676 0.0
C1571 C 0.47129 0.47833 0.7537 0.0
C1572 C 0.48071 0.47764 0.73258 0.0
C1573 C 0.98184 0.5142 0.76587 0.0
C1574 C 0.0106 0.51452 0.77182 0.0
C1575 C 0.974 0.51399 0.74482 0.0
C1576 C 0.99466 0.51439 0.72898 0.0
H1577 H 0.96529 0.5151 0.77758 0.0
H1578 H 0.95162 0.51509 0.74093 0.0
S1579 S 0.07279 0.51304 0.7363 0.0
N1580 N 0.05979 0.51361 0.76019 0.0
N1581 N 0.04499 0.51288 0.72061 0.0
C1582 C 0.02345 0.51327 0.73471 0.0
C1583 C 0.03145 0.51336 0.75614 0.0
C1584 C 0.00286 0.23653 0.09966 0.0
C1585 C 0.0128 0.22342 0.11812 0.0
C1586 C 0.98896 0.26368 0.1 0.0
C1587 C 0.98428 0.2787 0.11883 0.0
H1588 H 0.00587 0.22572 0.08481 0.0
H1589 H 0.98148 0.2728 0.08542 0.0
S1590 S 0.00649 0.25408 0.17146 0.0
N1591 N 0.01687 0.22752 0.15577 0.0
N1592 N 0.99153 0.2789 0.15633 0.0
C1593 C 0.99437 0.26599 0.13737 0.0
C1594 C 0.00848 0.23833 0.13703 0.0
C1595 C 0.50274 0.77268 0.10642 0.0
C1596 C 0.47884 0.77771 0.11907 0.0
C1597 C 0.51667 0.74551 0.10651 0.0
C1598 C 0.50708 0.72237 0.11918 0.0
H1599 H 0.51118 0.79013 0.0968 0.0
H1600 H 0.53544 0.74282 0.09693 0.0
S1601 S 0.44327 0.72361 0.15324 0.0
N1602 N 0.44496 0.75698 0.14345 0.0
N1603 N 0.47055 0.70568 0.14328 0.0
C1604 C 0.48254 0.72692 0.13134 0.0
C1605 C 0.46857 0.75463 0.13136 0.0
C1606 C 0.49416 0.74032 0.40005 0.0
C1607 C 0.49283 0.72166 0.38265 0.0
C1608 C 0.50897 0.76697 0.39918 0.0
C1609 C 0.52303 0.77585 0.38089 0.0
H1610 H 0.48317 0.73457 0.4143 0.0
H1611 H 0.50876 0.78107 0.41274 0.0
S1612 S 0.52889 0.73324 0.33191 0.0
N1613 N 0.50885 0.71277 0.3472 0.0
N1614 N 0.53659 0.76282 0.34557 0.0
C1615 C 0.52263 0.75694 0.36362 0.0
C1616 C 0.50756 0.72987 0.3645 0.0
C1617 C 0.00832 0.26391 0.39658 0.0
C1618 C 0.01316 0.27885 0.37775 0.0
C1619 C 0.99499 0.23646 0.39687 0.0
C1620 C 0.98581 0.22294 0.37835 0.0
H1621 H 0.01527 0.27332 0.41121 0.0
H1622 H 0.99185 0.22573 0.41174 0.0
S1623 S 0.99273 0.25326 0.32497 0.0
N1624 N 0.00683 0.27854 0.34015 0.0
N1625 N 0.98251 0.22662 0.34064 0.0
C1626 C 0.99023 0.23778 0.35943 0.0
C1627 C 0.00378 0.26575 0.35914 0.0
C1628 C 0.02565 0.74631 0.86741 0.0
C1629 C 0.01184 0.7211 0.87487 0.0
C1630 C 0.01162 0.77341 0.86673 0.0
C1631 C 0.98328 0.77626 0.87347 0.0
H1632 H 0.04762 0.7452 0.86245 0.0
H1633 H 0.02326 0.7924 0.86133 0.0
S1634 S 0.93669 0.71628 0.89212 0.0
N1635 N 0.96753 0.70027 0.88756 0.0
N1636 N 0.94129 0.75119 0.88638 0.0
C1637 C 0.96901 0.75108 0.88042 0.0
C1638 C 0.98324 0.72351 0.88109 0.0
C1639 C 0.4774 0.25783 0.88841 0.0
C1640 C 0.48736 0.28106 0.87599 0.0
C1641 C 0.49174 0.23091 0.88906 0.0
C1642 C 0.51647 0.22618 0.87723 0.0
H1643 H 0.45814 0.2603 0.89748 0.0
H1644 H 0.48309 0.21347 0.89858 0.0
S1645 S 0.55292 0.28052 0.84374 0.0
N1646 N 0.52483 0.29807 0.85279 0.0
N1647 N 0.55124 0.24723 0.85368 0.0
C1648 C 0.52694 0.24927 0.86503 0.0
C1649 C 0.51253 0.27675 0.86449 0.0
C1650 C 0.51263 0.22599 0.63032 0.0
C1651 C 0.48505 0.22373 0.62197 0.0
C1652 C 0.52765 0.2525 0.62974 0.0
C1653 C 0.51566 0.27775 0.62079 0.0
H1654 H 0.52286 0.20698 0.63707 0.0
H1655 H 0.54896 0.25314 0.63611 0.0
S1656 S 0.44308 0.28399 0.59854 0.0
N1657 N 0.44576 0.24932 0.60556 0.0
N1658 N 0.4738 0.29923 0.60463 0.0
C1659 C 0.48788 0.27589 0.61274 0.0
C1660 C 0.47264 0.24888 0.61328 0.0
C1661 C 0.00737 0.76401 0.6103 0.0
C1662 C 0.01507 0.77815 0.62893 0.0
C1663 C 0.99403 0.73654 0.61053 0.0
C1664 C 0.98821 0.72208 0.6294 0.0
H1665 H 0.01131 0.77445 0.59543 0.0
H1666 H 0.98861 0.72636 0.59582 0.0
S1667 S 0.00431 0.74963 0.68245 0.0
N1668 N 0.01615 0.77551 0.66674 0.0
N1669 N 0.99091 0.72402 0.66719 0.0
C1670 C 0.99587 0.73594 0.64813 0.0
C1671 C 0.0093 0.76394 0.6479 0.0
C1672 C 0.97932 0.01026 0.98958 0.0
C1673 C 0.99191 0.98636 0.97931 0.0
C1674 C 0.98859 0.01904 0.00934 0.0
C1675 C 0.01076 0.00423 0.01958 0.0
H1676 H 0.9619 0.02204 0.9824 0.0
H1677 H 0.97814 0.03743 0.01676 0.0
S1678 S 0.05217 0.94169 0.99874 0.0
N1679 N 0.02862 0.94893 0.98038 0.0
N1680 N 0.04599 0.96543 0.0176 0.0
C1681 C 0.02372 0.98048 0.00942 0.0
C1682 C 0.01432 0.97156 0.98927 0.0
C1683 C 0.51228 0.98554 0.98781 0.0
C1684 C 0.50416 0.01288 0.97961 0.0
C1685 C 0.50281 0.97631 0.00743 0.0
C1686 C 0.4851 0.9942 0.01962 0.0
H1687 H 0.52647 0.97137 0.97916 0.0
H1688 H 0.50971 0.95522 0.01326 0.0
S1689 S 0.45564 0.0664 0.00469 0.0
N1690 N 0.47564 0.05675 0.9847 0.0
N1691 N 0.45849 0.0396 0.02182 0.0
C1692 C 0.47646 0.02132 0.01156 0.0
C1693 C 0.48583 0.03061 0.9915 0.0
C1694 C 0.47631 0.0004 0.50606 0.0
C1695 C 0.49543 0.00916 0.5217 0.0
C1696 C 0.486 0.99215 0.48627 0.0
C1697 C 0.51516 0.99234 0.48142 0.0
H1698 H 0.45364 0.00043 0.50903 0.0
H1699 H 0.47051 0.98599 0.47458 0.0
S1700 S 0.574 0.01085 0.51757 0.0
N1701 N 0.54487 0.01591 0.53146 0.0
N1702 N 0.56316 1.00015 0.49432 0.0
C1703 C 0.53452 0.00048 0.49707 0.0
C1704 C 0.52464 0.00895 0.51719 0.0
C1705 C 0.98172 0.99395 0.51715 0.0
C1706 C 0.01081 0.99377 0.52236 0.0
C1707 C 0.97258 0.00177 0.49714 0.0
C1708 C 0.99217 0.00998 0.48173 0.0
H1709 H 0.96585 0.98825 0.52868 0.0
H1710 H 0.95002 0.0018 0.49377 0.0
S1711 S 0.07053 0.01129 0.48664 0.0
N1712 N 0.0592 0.0008 0.50982 0.0
N1713 N 0.04171 0.01657 0.47245 0.0
C1714 C 0.02121 0.00979 0.48656 0.0
C1715 C 0.03061 0.00144 0.50683 0.0
C1716 C 0.51602 0.48239 0.01113 0.0
C1717 C 0.50732 0.50932 0.01959 0.0
C1718 C 0.50686 0.47349 0.99134 0.0
C1719 C 0.48863 0.49119 0.97936 0.0
H1720 H 0.53046 0.46838 0.01969 0.0
H1721 H 0.51444 0.45281 0.98524 0.0
S1722 S 0.4575 0.56228 0.99549 0.0
N1723 N 0.47806 0.5527 0.01518 0.0
N1724 N 0.46065 0.53591 0.97804 0.0
C1725 C 0.47926 0.51785 0.98789 0.0
C1726 C 0.48864 0.52692 0.00799 0.0
C1727 C 0.99831 0.52365 0.01763 0.0
C1728 C 0.99616 0.49415 0.02359 0.0
C1729 C 0.00738 0.53141 0.9976 0.0
C1730 C 0.01441 0.50992 0.98274 0.0
H1731 H 0.99295 0.54086 0.02856 0.0
H1732 H 0.00894 0.55443 0.99372 0.0
S1733 S 0.01059 0.42952 0.99029 0.0
N1734 N 0.00087 0.44333 0.01297 0.0
N1735 N 0.01759 0.45787 0.97518 0.0
C1736 C 0.01228 0.48032 0.98852 0.0
C1737 C 0.00321 0.47244 0.00897 0.0
C1738 C 0.9924 0.48143 0.51346 0.0
C1739 C 0.99105 0.51107 0.51923 0.0
C1740 C 0.00126 0.47316 0.49346 0.0
C1741 C 0.00898 0.49426 0.47851 0.0
H1742 H 0.98707 0.46449 0.52461 0.0
H1743 H 0.0026 0.45005 0.48981 0.0
S1744 S 0.00623 0.57484 0.48526 0.0
N1745 N 0.99627 0.56162 0.50806 0.0
N1746 N 0.01279 0.54609 0.47042 0.0
C1747 C 0.00703 0.52399 0.48395 0.0
C1748 C 0.99809 0.5324 0.50432 0.0
C1749 C 0.48827 0.49369 0.51501 0.0
C1750 C 0.51743 0.49135 0.51943 0.0
C1751 C 0.47878 0.50152 0.49511 0.0
C1752 C 0.4981 0.50705 0.47883 0.0
H1753 H 0.47268 0.48957 0.52708 0.0
H1754 H 0.45611 0.50345 0.49249 0.0
S1755 S 0.57666 0.50209 0.48212 0.0
N1756 N 0.56556 0.49424 0.50588 0.0
N1757 N 0.54773 0.50857 0.46831 0.0
C1758 C 0.52734 0.50464 0.48304 0.0
C1759 C 0.537 0.49686 0.50337 0.0
loop_
_geom_bond_atom_site_label_1
_geom_bond_atom_site_label_2
_geom_bond_distance
_geom_bond_site_symmetry_2
_ccdc_geom_bond_type
Li0 N17 1.990 . S
Li0 O60 1.956 . S
Li0 O61 1.970 . S
Li0 O62 1.961 . S
Li1 N25 1.990 . S
Li1 O60 1.970 . S
Li1 O61 1.956 . S
Li1 O63 1.961 . S
Li2 N47 1.990 . S
Li2 O60 1.961 . S
Li2 O62 1.956 . S
Li2 O63 1.970 . S
Li3 N53 1.990 . S
Li3 O61 1.961 . S
Li3 O62 1.970 . S
Li3 O63 1.956 . S
C4 C6 1.348 . S
C4 C7 1.356 . S
C4 O60 1.325 1_565 S
N5 C8 1.314 . S
N5 C9 1.279 . S
C6 C4 1.348 . S
C6 C8 1.353 . S
C6 H64 0.929 . S
C7 C4 1.356 . S
C7 C9 1.358 . S
C7 H65 0.930 . S
C8 N5 1.314 . S
C8 C6 1.353 . S
C8 H66 0.930 . S
C9 N5 1.279 . S
C9 C7 1.358 . S
C9 H67 0.930 . S
C10 C13 1.348 . S
C10 C14 1.356 . S
C10 O61 1.325 . S
C11 N12 1.279 . S
C11 C14 1.358 . S
C11 H68 0.930 . S
N12 C11 1.279 . S
N12 C15 1.314 . S
C13 C10 1.348 . S
C13 C15 1.353 . S
C13 H69 0.929 . S
C14 C10 1.356 . S
C14 C11 1.358 . S
C14 H70 0.930 . S
C15 N12 1.314 . S
C15 C13 1.353 . S
C15 H71 0.930 . S
C16 N17 1.314 . S
C16 C21 1.353 1_455 S
C16 H22 0.930 1_455 S
N17 Li0 1.990 . S
N17 C16 1.314 . S
N17 C19 1.279 1_545 S
C18 C19 1.358 . S
C18 C20 1.356 1_455 S
C18 H72 0.930 . S
C19 N17 1.279 1_565 S
C19 C18 1.358 . S
C19 H23 0.930 . S
C20 C18 1.356 1_655 S
C20 C21 1.348 1_565 S
C21 C16 1.353 1_655 S
C21 C20 1.348 1_545 S
C21 H73 0.929 . S
H22 C16 0.930 1_655 S
H23 C19 0.930 . S
C24 N25 1.314 . S
C24 C26 1.353 . S
C24 H30 0.930 . S
N25 Li1 1.990 . S
N25 C24 1.314 . S
N25 C28 1.279 . S
C26 C24 1.353 . S
C26 C29 1.348 . S
C26 H74 0.929 . S
C27 C28 1.358 . S
C27 C29 1.356 . S
C27 H75 0.930 . S
C28 N25 1.279 . S
C28 C27 1.358 . S
C28 H31 0.930 . S
C29 C26 1.348 . S
C29 C27 1.356 . S
H30 C24 0.930 . S
H31 C28 0.930 . S
C32 C34 1.348 . S
C32 C35 1.356 . S
C32 O62 1.325 1_655 S
N33 C36 1.314 . S
N33 C37 1.279 . S
C34 C32 1.348 . S
C34 C36 1.353 . S
C34 H76 0.929 . S
C35 C32 1.356 . S
C35 C37 1.358 . S
C35 H77 0.930 . S
C36 N33 1.314 . S
C36 C34 1.353 . S
C36 H78 0.930 . S
C37 N33 1.279 . S
C37 C35 1.358 . S
C37 H79 0.930 . S
C38 C39 1.348 . S
C38 C40 1.356 . S
C38 O63 1.325 . S
C39 C38 1.348 . S
C39 C41 1.353 . S
C39 H80 0.929 . S
C40 C38 1.356 . S
C40 C42 1.358 . S
C40 H81 0.930 . S
C41 C39 1.353 . S
C41 N43 1.314 . S
C41 H82 0.930 . S
C42 C40 1.358 . S
C42 N43 1.279 . S
C42 H83 0.930 . S
N43 C41 1.314 . S
N43 C42 1.279 . S
C44 C46 1.352 1_545 S
C44 N47 1.314 . S
C44 H50 0.930 . S
C45 N47 1.272 1_655 S
C45 C48 1.362 . S
C45 H51 0.935 . S
C46 C44 1.352 1_565 S
C46 C49 1.347 1_565 S
C46 H84 0.931 . S
N47 Li2 1.990 . S
N47 C44 1.314 . S
N47 C45 1.272 1_455 S
C48 C45 1.362 . S
C48 C49 1.356 1_655 S
C48 H85 0.930 . S
C49 C46 1.347 1_545 S
C49 C48 1.356 1_455 S
H50 C44 0.930 . S
H51 C45 0.935 . S
C52 N53 1.314 . S
C52 C54 1.353 . S
C52 H58 0.930 . S
N53 Li3 1.990 . S
N53 C52 1.314 . S
N53 C56 1.279 . S
C54 C52 1.353 . S
C54 C57 1.348 . S
C54 H86 0.929 . S
C55 C56 1.358 . S
C55 C57 1.356 . S
C55 H87 0.930 . S
C56 N53 1.279 . S
C56 C55 1.358 . S
C56 H59 0.930 . S
C57 C54 1.348 . S
C57 C55 1.356 . S
H58 C52 0.930 . S
H59 C56 0.930 . S
O60 Li0 1.956 . S
O60 Li1 1.970 . S
O60 Li2 1.961 . S
O60 C4 1.325 1_545 S
O61 Li0 1.970 . S
O61 Li1 1.956 . S
O61 Li3 1.961 . S
O61 C10 1.325 . S
O62 Li0 1.961 . S
O62 Li2 1.956 . S
O62 Li3 1.970 . S
O62 C32 1.325 1_455 S
O63 Li1 1.961 . S
O63 Li2 1.970 . S
O63 Li3 1.956 . S
O63 C38 1.325 . S
H64 C6 0.929 . S
H65 C7 0.930 . S
H66 C8 0.930 . S
H67 C9 0.930 . S
H68 C11 0.930 . S
H69 C13 0.929 . S
H70 C14 0.930 . S
H71 C15 0.930 . S
H72 C18 0.930 . S
H73 C21 0.929 . S
H74 C26 0.929 . S
H75 C27 0.930 . S
H76 C34 0.929 . S
H77 C35 0.930 . S
H78 C36 0.930 . S
H79 C37 0.930 . S
H80 C39 0.929 . S
H81 C40 0.930 . S
H82 C41 0.930 . S
H83 C42 0.930 . S
H84 C46 0.931 . S
H85 C48 0.930 . S
H86 C54 0.929 . S
H87 C55 0.930 . S
Li88 N105 1.990 . S
Li88 O148 1.956 . S
Li88 O149 1.970 . S
Li88 O150 1.961 . S
Li89 N113 1.990 . S
Li89 O148 1.970 . S
Li89 O149 1.956 . S
Li89 O151 1.961 . S
Li90 N135 1.990 . S
Li90 O148 1.961 . S
Li90 O150 1.956 . S
Li90 O151 1.970 . S
Li91 N141 1.990 . S
Li91 O149 1.961 . S
Li91 O150 1.970 . S
Li91 O151 1.956 . S
C92 C94 1.348 . S
C92 C95 1.356 . S
C92 O148 1.325 . S
N93 C96 1.314 . S
N93 C97 1.279 . S
C94 C92 1.348 . S
C94 C96 1.353 . S
C94 H152 0.929 . S
C95 C92 1.356 . S
C95 C97 1.358 . S
C95 H153 0.930 . S
C96 N93 1.314 . S
C96 C94 1.353 . S
C96 H154 0.930 . S
C97 N93 1.279 . S
C97 C95 1.358 . S
C97 H155 0.930 . S
C98 C101 1.348 . S
C98 C102 1.356 . S
C98 O149 1.325 . S
C99 N100 1.279 . S
C99 C102 1.358 . S
C99 H156 0.930 . S
N100 C99 1.279 . S
N100 C103 1.314 . S
C101 C98 1.348 . S
C101 C103 1.353 . S
C101 H157 0.929 . S
C102 C98 1.356 . S
C102 C99 1.358 . S
C102 H158 0.930 . S
C103 N100 1.314 . S
C103 C101 1.353 . S
C103 H159 0.930 . S
C104 N105 1.314 . S
C104 C109 1.353 . S
C104 H110 0.930 . S
N105 Li88 1.990 . S
N105 C104 1.314 . S
N105 C107 1.279 . S
C106 C107 1.358 . S
C106 C108 1.356 . S
C106 H160 0.930 . S
C107 N105 1.279 . S
C107 C106 1.358 . S
C107 H111 0.930 . S
C108 C106 1.356 . S
C108 C109 1.348 . S
C109 C104 1.353 . S
C109 C108 1.348 . S
C109 H161 0.929 . S
H110 C104 0.930 . S
H111 C107 0.930 . S
C112 N113 1.314 . S
C112 C114 1.352 1_565 S
C112 H118 0.930 . S
N113 Li89 1.990 . S
N113 C112 1.314 . S
N113 C116 1.279 . S
C114 C112 1.352 1_545 S
C114 C117 1.347 1_545 S
C114 H162 0.931 . S
C115 C116 1.358 . S
C115 C117 1.356 . S
C115 H163 0.930 . S
C116 N113 1.279 . S
C116 C115 1.358 . S
C116 H119 0.930 . S
C117 C114 1.347 1_565 S
C117 C115 1.356 . S
H118 C112 0.930 . S
H119 C116 0.930 . S
C120 C122 1.348 . S
C120 C123 1.356 . S
C120 O150 1.325 . S
N121 C124 1.314 . S
N121 C125 1.279 . S
C122 C120 1.348 . S
C122 C124 1.353 . S
C122 H164 0.929 . S
C123 C120 1.356 . S
C123 C125 1.358 . S
C123 H165 0.930 . S
C124 N121 1.314 . S
C124 C122 1.353 . S
C124 H166 0.930 . S
C125 N121 1.279 . S
C125 C123 1.358 . S
C125 H167 0.930 . S
C126 C127 1.348 . S
C126 C128 1.356 . S
C126 O151 1.325 1_545 S
C127 C126 1.348 . S
C127 C129 1.353 . S
C127 H168 0.929 . S
C128 C126 1.356 . S
C128 C130 1.358 . S
C128 H169 0.930 . S
C129 C127 1.353 . S
C129 N131 1.314 . S
C129 H170 0.930 . S
C130 C128 1.358 . S
C130 N131 1.279 . S
C130 H171 0.930 . S
N131 C129 1.314 . S
N131 C130 1.279 . S
C132 C134 1.353 . S
C132 N135 1.314 . S
C132 H138 0.930 . S
C133 N135 1.279 . S
C133 C136 1.358 . S
C133 H139 0.930 . S
C134 C132 1.353 . S
C134 C137 1.348 . S
C134 H172 0.929 . S
N135 Li90 1.990 . S
N135 C132 1.314 . S
N135 C133 1.279 . S
C136 C133 1.358 . S
C136 C137 1.356 . S
C136 H173 0.930 . S
C137 C134 1.348 . S
C137 C136 1.356 . S
H138 C132 0.930 . S
H139 C133 0.930 . S
C140 N141 1.314 . S
C140 C142 1.353 . S
C140 H146 0.930 . S
N141 Li91 1.990 . S
N141 C140 1.314 . S
N141 C144 1.279 1_565 S
C142 C140 1.353 . S
C142 C145 1.348 1_565 S
C142 H174 0.929 . S
C143 C144 1.358 . S
C143 C145 1.356 . S
C143 H175 0.930 . S
C144 N141 1.279 1_545 S
C144 C143 1.358 . S
C144 H147 0.930 . S
C145 C142 1.348 1_545 S
C145 C143 1.356 . S
H146 C140 0.930 . S
H147 C144 0.930 . S
O148 Li88 1.956 . S
O148 Li89 1.970 . S
O148 Li90 1.961 . S
O148 C92 1.325 . S
O149 Li88 1.970 . S
O149 Li89 1.956 . S
O149 Li91 1.961 . S
O149 C98 1.325 . S
O150 Li88 1.961 . S
O150 Li90 1.956 . S
O150 Li91 1.970 . S
O150 C120 1.325 . S
O151 Li89 1.961 . S
O151 Li90 1.970 . S
O151 Li91 1.956 . S
O151 C126 1.325 1_565 S
H152 C94 0.929 . S
H153 C95 0.930 . S
H154 C96 0.930 . S
H155 C97 0.930 . S
H156 C99 0.930 . S
H157 C101 0.929 . S
H158 C102 0.930 . S
H159 C103 0.930 . S
H160 C106 0.930 . S
H161 C109 0.929 . S
H162 C114 0.931 . S
H163 C115 0.930 . S
H164 C122 0.929 . S
H165 C123 0.930 . S
H166 C124 0.930 . S
H167 C125 0.930 . S
H168 C127 0.929 . S
H169 C128 0.930 . S
H170 C129 0.930 . S
H171 C130 0.930 . S
H172 C134 0.929 . S
H173 C136 0.930 . S
H174 C142 0.929 . S
H175 C143 0.930 . S
Li176 N193 1.990 . S
Li176 O236 1.956 . S
Li176 O237 1.970 . S
Li176 O238 1.961 . S
Li177 N201 1.990 . S
Li177 O236 1.970 . S
Li177 O237 1.956 . S
Li177 O239 1.961 . S
Li178 N223 1.990 . S
Li178 O236 1.961 . S
Li178 O238 1.956 . S
Li178 O239 1.970 . S
Li179 N229 1.990 . S
Li179 O237 1.961 . S
Li179 O238 1.970 . S
Li179 O239 1.956 . S
C180 C182 1.348 . S
C180 C183 1.356 . S
C180 O236 1.325 . S
N181 C184 1.314 . S
N181 C185 1.279 . S
C182 C180 1.348 . S
C182 C184 1.353 . S
C182 H240 0.929 . S
C183 C180 1.356 . S
C183 C185 1.358 . S
C183 H241 0.930 . S
C184 N181 1.314 . S
C184 C182 1.353 . S
C184 H242 0.930 . S
C185 N181 1.279 . S
C185 C183 1.358 . S
C185 H243 0.930 . S
C186 C189 1.348 . S
C186 C190 1.356 . S
C186 O237 1.325 1_545 S
C187 N188 1.279 . S
C187 C190 1.358 . S
C187 H244 0.930 . S
N188 C187 1.279 . S
N188 C191 1.314 . S
C189 C186 1.348 . S
C189 C191 1.353 . S
C189 H245 0.929 . S
C190 C186 1.356 . S
C190 C187 1.358 . S
C190 H246 0.930 . S
C191 N188 1.314 . S
C191 C189 1.353 . S
C191 H247 0.930 . S
C192 N193 1.314 . S
C192 C197 1.353 . S
C192 H198 0.930 . S
N193 Li176 1.990 . S
N193 C192 1.314 . S
N193 C195 1.279 . S
C194 C195 1.358 . S
C194 C196 1.356 . S
C194 H248 0.930 . S
C195 N193 1.279 . S
C195 C194 1.358 . S
C195 H199 0.930 . S
C196 C194 1.356 . S
C196 C197 1.348 . S
C197 C192 1.353 . S
C197 C196 1.348 . S
C197 H249 0.929 . S
H198 C192 0.930 . S
H199 C195 0.930 . S
C200 N201 1.314 . S
C200 C202 1.353 . S
C200 H206 0.930 . S
N201 Li177 1.990 . S
N201 C200 1.314 . S
N201 C204 1.279 1_565 S
C202 C200 1.353 . S
C202 C205 1.348 1_565 S
C202 H250 0.929 . S
C203 C204 1.358 . S
C203 C205 1.356 . S
C203 H251 0.930 . S
C204 N201 1.279 1_545 S
C204 C203 1.358 . S
C204 H207 0.930 . S
C205 C202 1.348 1_545 S
C205 C203 1.356 . S
H206 C200 0.930 . S
H207 C204 0.930 . S
C208 C210 1.348 . S
C208 C211 1.356 . S
C208 O238 1.325 . S
N209 C212 1.314 . S
N209 C213 1.279 . S
C210 C208 1.348 . S
C210 C212 1.353 . S
C210 H252 0.929 . S
C211 C208 1.356 . S
C211 C213 1.358 . S
C211 H253 0.930 . S
C212 N209 1.314 . S
C212 C210 1.353 . S
C212 H254 0.930 . S
C213 N209 1.279 . S
C213 C211 1.358 . S
C213 H255 0.930 . S
C214 C215 1.348 . S
C214 C216 1.356 . S
C214 O239 1.325 . S
C215 C214 1.348 . S
C215 C217 1.353 . S
C215 H256 0.929 . S
C216 C214 1.356 . S
C216 C218 1.358 . S
C216 H257 0.930 . S
C217 C215 1.353 . S
C217 N219 1.314 . S
C217 H258 0.930 . S
C218 C216 1.358 . S
C218 N219 1.279 . S
C218 H259 0.930 . S
N219 C217 1.314 . S
N219 C218 1.279 . S
C220 C222 1.353 . S
C220 N223 1.314 . S
C220 H226 0.930 . S
C221 N223 1.279 . S
C221 C224 1.358 . S
C221 H227 0.930 . S
C222 C220 1.353 . S
C222 C225 1.348 . S
C222 H260 0.929 . S
N223 Li178 1.990 . S
N223 C220 1.314 . S
N223 C221 1.279 . S
C224 C221 1.358 . S
C224 C225 1.356 . S
C224 H261 0.930 . S
C225 C222 1.348 . S
C225 C224 1.356 . S
H226 C220 0.930 . S
H227 C221 0.930 . S
C228 N229 1.314 . S
C228 C230 1.352 1_565 S
C228 H234 0.930 . S
N229 Li179 1.990 . S
N229 C228 1.314 . S
N229 C232 1.279 . S
C230 C228 1.352 1_545 S
C230 C233 1.347 1_545 S
C230 H262 0.931 . S
C231 C232 1.358 . S
C231 C233 1.356 . S
C231 H263 0.930 . S
C232 N229 1.279 . S
C232 C231 1.358 . S
C232 H235 0.930 . S
C233 C230 1.347 1_565 S
C233 C231 1.356 . S
H234 C228 0.930 . S
H235 C232 0.930 . S
O236 Li176 1.956 . S
O236 Li177 1.970 . S
O236 Li178 1.961 . S
O236 C180 1.325 . S
O237 Li176 1.970 . S
O237 Li177 1.956 . S
O237 Li179 1.961 . S
O237 C186 1.325 1_565 S
O238 Li176 1.961 . S
O238 Li178 1.956 . S
O238 Li179 1.970 . S
O238 C208 1.325 . S
O239 Li177 1.961 . S
O239 Li178 1.970 . S
O239 Li179 1.956 . S
O239 C214 1.325 . S
H240 C182 0.929 . S
H241 C183 0.930 . S
H242 C184 0.930 . S
H243 C185 0.930 . S
H244 C187 0.930 . S
H245 C189 0.929 . S
H246 C190 0.930 . S
H247 C191 0.930 . S
H248 C194 0.930 . S
H249 C197 0.929 . S
H250 C202 0.929 . S
H251 C203 0.930 . S
H252 C210 0.929 . S
H253 C211 0.930 . S
H254 C212 0.930 . S
H255 C213 0.930 . S
H256 C215 0.929 . S
H257 C216 0.930 . S
H258 C217 0.930 . S
H259 C218 0.930 . S
H260 C222 0.929 . S
H261 C224 0.930 . S
H262 C230 0.931 . S
H263 C231 0.930 . S
Li264 N281 1.990 . S
Li264 O324 1.956 . S
Li264 O325 1.970 . S
Li264 O326 1.961 . S
Li265 N289 1.990 . S
Li265 O324 1.970 . S
Li265 O325 1.956 . S
Li265 O327 1.961 . S
Li266 N311 1.990 . S
Li266 O324 1.961 . S
Li266 O326 1.956 . S
Li266 O327 1.970 . S
Li267 N317 1.990 . S
Li267 O325 1.961 . S
Li267 O326 1.970 . S
Li267 O327 1.956 . S
C268 C270 1.348 . S
C268 C271 1.356 . S
C268 O324 1.325 1_565 S
N269 C272 1.314 . S
N269 C273 1.279 . S
C270 C268 1.348 . S
C270 C272 1.353 . S
C270 H328 0.929 . S
C271 C268 1.356 . S
C271 C273 1.358 . S
C271 H329 0.930 . S
C272 N269 1.314 . S
C272 C270 1.353 . S
C272 H330 0.930 . S
C273 N269 1.279 . S
C273 C271 1.358 . S
C273 H331 0.930 . S
C274 C277 1.348 . S
C274 C278 1.356 . S
C274 O325 1.325 . S
C275 N276 1.279 . S
C275 C278 1.358 . S
C275 H332 0.930 . S
N276 C275 1.279 . S
N276 C279 1.314 . S
C277 C274 1.348 . S
C277 C279 1.353 . S
C277 H333 0.929 . S
C278 C274 1.356 . S
C278 C275 1.358 . S
C278 H334 0.930 . S
C279 N276 1.314 . S
C279 C277 1.353 . S
C279 H335 0.930 . S
C280 N281 1.314 . S
C280 C285 1.353 1_655 S
C280 H286 0.930 1_655 S
N281 Li264 1.990 . S
N281 C280 1.314 . S
N281 C283 1.279 1_545 S
C282 C283 1.358 . S
C282 C284 1.356 1_655 S
C282 H336 0.930 . S
C283 N281 1.279 1_565 S
C283 C282 1.358 . S
C283 H287 0.930 . S
C284 C282 1.356 1_455 S
C284 C285 1.348 1_565 S
C285 C280 1.353 1_455 S
C285 C284 1.348 1_545 S
C285 H337 0.929 . S
H286 C280 0.930 1_455 S
H287 C283 0.930 . S
C288 N289 1.314 . S
C288 C290 1.353 . S
C288 H294 0.930 . S
N289 Li265 1.990 . S
N289 C288 1.314 . S
N289 C292 1.279 . S
C290 C288 1.353 . S
C290 C293 1.348 . S
C290 H338 0.929 . S
C291 C292 1.358 . S
C291 C293 1.356 . S
C291 H339 0.930 . S
C292 N289 1.279 . S
C292 C291 1.358 . S
C292 H295 0.930 . S
C293 C290 1.348 . S
C293 C291 1.356 . S
H294 C288 0.930 . S
H295 C292 0.930 . S
C296 C298 1.348 . S
C296 C299 1.356 . S
C296 O326 1.325 1_455 S
N297 C300 1.314 . S
N297 C301 1.279 . S
C298 C296 1.348 . S
C298 C300 1.353 . S
C298 H340 0.929 . S
C299 C296 1.356 . S
C299 C301 1.358 . S
C299 H341 0.930 . S
C300 N297 1.314 . S
C300 C298 1.353 . S
C300 H342 0.930 . S
C301 N297 1.279 . S
C301 C299 1.358 . S
C301 H343 0.930 . S
C302 C303 1.348 . S
C302 C304 1.356 . S
C302 O327 1.325 . S
C303 C302 1.348 . S
C303 C305 1.353 . S
C303 H344 0.929 . S
C304 C302 1.356 . S
C304 C306 1.358 . S
C304 H345 0.930 . S
C305 C303 1.353 . S
C305 N307 1.314 . S
C305 H346 0.930 . S
C306 C304 1.358 . S
C306 N307 1.279 . S
C306 H347 0.930 . S
N307 C305 1.314 . S
N307 C306 1.279 . S
C308 C310 1.352 1_545 S
C308 N311 1.314 . S
C308 H314 0.930 . S
C309 N311 1.272 1_455 S
C309 C312 1.362 . S
C309 H315 0.935 . S
C310 C308 1.352 1_565 S
C310 C313 1.347 1_565 S
C310 H348 0.931 . S
N311 Li266 1.990 . S
N311 C308 1.314 . S
N311 C309 1.272 1_655 S
C312 C309 1.362 . S
C312 C313 1.356 1_455 S
C312 H349 0.930 . S
C313 C310 1.347 1_545 S
C313 C312 1.356 1_655 S
H314 C308 0.930 . S
H315 C309 0.935 . S
C316 N317 1.314 . S
C316 C318 1.353 . S
C316 H322 0.930 . S
N317 Li267 1.990 . S
N317 C316 1.314 . S
N317 C320 1.279 . S
C318 C316 1.353 . S
C318 C321 1.348 . S
C318 H350 0.929 . S
C319 C320 1.358 . S
C319 C321 1.356 . S
C319 H351 0.930 . S
C320 N317 1.279 . S
C320 C319 1.358 . S
C320 H323 0.930 . S
C321 C318 1.348 . S
C321 C319 1.356 . S
H322 C316 0.930 . S
H323 C320 0.930 . S
O324 Li264 1.956 . S
O324 Li265 1.970 . S
O324 Li266 1.961 . S
O324 C268 1.325 1_545 S
O325 Li264 1.970 . S
O325 Li265 1.956 . S
O325 Li267 1.961 . S
O325 C274 1.325 . S
O326 Li264 1.961 . S
O326 Li266 1.956 . S
O326 Li267 1.970 . S
O326 C296 1.325 1_655 S
O327 Li265 1.961 . S
O327 Li266 1.970 . S
O327 Li267 1.956 . S
O327 C302 1.325 . S
H328 C270 0.929 . S
H329 C271 0.930 . S
H330 C272 0.930 . S
H331 C273 0.930 . S
H332 C275 0.930 . S
H333 C277 0.929 . S
H334 C278 0.930 . S
H335 C279 0.930 . S
H336 C282 0.930 . S
H337 C285 0.929 . S
H338 C290 0.929 . S
H339 C291 0.930 . S
H340 C298 0.929 . S
H341 C299 0.930 . S
H342 C300 0.930 . S
H343 C301 0.930 . S
H344 C303 0.929 . S
H345 C304 0.930 . S
H346 C305 0.930 . S
H347 C306 0.930 . S
H348 C310 0.931 . S
H349 C312 0.930 . S
H350 C318 0.929 . S
H351 C319 0.930 . S
Li352 N369 1.990 . S
Li352 O412 1.956 . S
Li352 O413 1.970 . S
Li352 O414 1.961 . S
Li353 N377 1.990 . S
Li353 O412 1.970 . S
Li353 O413 1.956 . S
Li353 O415 1.961 . S
Li354 N399 1.990 . S
Li354 O412 1.961 . S
Li354 O414 1.956 . S
Li354 O415 1.970 . S
Li355 N405 1.990 . S
Li355 O413 1.961 . S
Li355 O414 1.970 . S
Li355 O415 1.956 . S
C356 C358 1.348 . S
C356 C359 1.356 . S
C356 O412 1.325 . S
N357 C360 1.314 . S
N357 C361 1.279 . S
C358 C356 1.348 . S
C358 C360 1.353 . S
C358 H416 0.929 . S
C359 C356 1.356 . S
C359 C361 1.358 . S
C359 H417 0.930 . S
C360 N357 1.314 . S
C360 C358 1.353 . S
C360 H418 0.930 . S
C361 N357 1.279 . S
C361 C359 1.358 . S
C361 H419 0.930 . S
C362 C365 1.348 . S
C362 C366 1.356 . S
C362 O413 1.325 1_455 S
C363 N364 1.279 . S
C363 C366 1.358 . S
C363 H420 0.930 . S
N364 C363 1.279 . S
N364 C367 1.314 . S
C365 C362 1.348 . S
C365 C367 1.353 . S
C365 H421 0.929 . S
C366 C362 1.356 . S
C366 C363 1.358 . S
C366 H422 0.930 . S
C367 N364 1.314 . S
C367 C365 1.353 . S
C367 H423 0.930 . S
C368 N369 1.314 . S
C368 C373 1.353 . S
C368 H374 0.930 . S
N369 Li352 1.990 . S
N369 C368 1.314 . S
N369 C371 1.279 . S
C370 C371 1.358 . S
C370 C372 1.356 . S
C370 H424 0.930 . S
C371 N369 1.279 . S
C371 C370 1.358 . S
C371 H375 0.930 . S
C372 C370 1.356 . S
C372 C373 1.348 . S
C373 C368 1.353 . S
C373 C372 1.348 . S
C373 H425 0.929 . S
H374 C368 0.930 . S
H375 C371 0.930 . S
C376 N377 1.314 1_545 S
C376 C378 1.353 . S
C376 H382 0.930 . S
N377 Li353 1.990 . S
N377 C376 1.314 1_565 S
N377 C380 1.279 1_655 S
C378 C376 1.353 . S
C378 C381 1.348 1_655 S
C378 H426 0.929 . S
C379 C380 1.358 . S
C379 C381 1.356 1_565 S
C379 H427 0.930 . S
C380 N377 1.279 1_455 S
C380 C379 1.358 . S
C380 H383 0.930 . S
C381 C378 1.348 1_455 S
C381 C379 1.356 1_545 S
H382 C376 0.930 . S
H383 C380 0.930 . S
C384 C386 1.348 . S
C384 C387 1.356 . S
C384 O414 1.325 . S
N385 C388 1.314 . S
N385 C389 1.279 . S
C386 C384 1.348 . S
C386 C388 1.353 . S
C386 H428 0.929 . S
C387 C384 1.356 . S
C387 C389 1.358 . S
C387 H429 0.930 . S
C388 N385 1.314 . S
C388 C386 1.353 . S
C388 H430 0.930 . S
C389 N385 1.279 . S
C389 C387 1.358 . S
C389 H431 0.930 . S
C390 C391 1.348 . S
C390 C392 1.356 . S
C390 O415 1.325 1_545 S
C391 C390 1.348 . S
C391 C393 1.353 . S
C391 H432 0.929 . S
C392 C390 1.356 . S
C392 C394 1.358 . S
C392 H433 0.930 . S
C393 C391 1.353 . S
C393 N395 1.314 . S
C393 H434 0.930 . S
C394 C392 1.358 . S
C394 N395 1.279 . S
C394 H435 0.930 . S
N395 C393 1.314 . S
N395 C394 1.279 . S
C396 C398 1.353 . S
C396 N399 1.314 . S
C396 H402 0.930 . S
C397 N399 1.279 . S
C397 C400 1.358 . S
C397 H403 0.930 . S
C398 C396 1.353 . S
C398 C401 1.348 . S
C398 H436 0.929 . S
N399 Li354 1.990 . S
N399 C396 1.314 . S
N399 C397 1.279 . S
C400 C397 1.358 . S
C400 C401 1.356 . S
C400 H437 0.930 . S
C401 C398 1.348 . S
C401 C400 1.356 . S
H402 C396 0.930 . S
H403 C397 0.930 . S
C404 N405 1.314 . S
C404 C406 1.353 1_655 S
C404 H410 0.930 . S
N405 Li355 1.990 . S
N405 C404 1.314 . S
N405 C408 1.279 . S
C406 C404 1.353 1_455 S
C406 C409 1.348 1_455 S
C406 H438 0.929 . S
C407 C408 1.358 1_545 S
C407 C409 1.356 1_545 S
C407 H439 0.930 . S
C408 N405 1.279 . S
C408 C407 1.358 1_565 S
C408 H411 0.930 1_565 S
C409 C406 1.348 1_655 S
C409 C407 1.356 1_565 S
H410 C404 0.930 . S
H411 C408 0.930 1_545 S
O412 Li352 1.956 . S
O412 Li353 1.970 . S
O412 Li354 1.961 . S
O412 C356 1.325 . S
O413 Li352 1.970 . S
O413 Li353 1.956 . S
O413 Li355 1.961 . S
O413 C362 1.325 1_655 S
O414 Li352 1.961 . S
O414 Li354 1.956 . S
O414 Li355 1.970 . S
O414 C384 1.325 . S
O415 Li353 1.961 . S
O415 Li354 1.970 . S
O415 Li355 1.956 . S
O415 C390 1.325 1_565 S
H416 C358 0.929 . S
H417 C359 0.930 . S
H418 C360 0.930 . S
H419 C361 0.930 . S
H420 C363 0.930 . S
H421 C365 0.929 . S
H422 C366 0.930 . S
H423 C367 0.930 . S
H424 C370 0.930 . S
H425 C373 0.929 . S
H426 C378 0.929 . S
H427 C379 0.930 . S
H428 C386 0.929 . S
H429 C387 0.930 . S
H430 C388 0.930 . S
H431 C389 0.930 . S
H432 C391 0.929 . S
H433 C392 0.930 . S
H434 C393 0.930 . S
H435 C394 0.930 . S
H436 C398 0.929 . S
H437 C400 0.930 . S
H438 C406 0.929 . S
H439 C407 0.930 . S
Li440 N457 1.990 . S
Li440 O500 1.956 . S
Li440 O501 1.970 . S
Li440 O502 1.961 . S
Li441 N465 1.990 . S
Li441 O500 1.970 . S
Li441 O501 1.956 . S
Li441 O503 1.961 . S
Li442 N487 1.990 . S
Li442 O500 1.961 . S
Li442 O502 1.956 . S
Li442 O503 1.970 . S
Li443 N493 1.990 . S
Li443 O501 1.961 . S
Li443 O502 1.970 . S
Li443 O503 1.956 . S
C444 C446 1.348 . S
C444 C447 1.356 . S
C444 O500 1.325 . S
N445 C448 1.314 . S
N445 C449 1.279 . S
C446 C444 1.348 . S
C446 C448 1.353 . S
C446 H504 0.929 . S
C447 C444 1.356 . S
C447 C449 1.358 . S
C447 H505 0.930 . S
C448 N445 1.314 . S
C448 C446 1.353 . S
C448 H506 0.930 . S
C449 N445 1.279 . S
C449 C447 1.358 . S
C449 H507 0.930 . S
C450 C453 1.348 . S
C450 C454 1.356 . S
C450 O501 1.325 . S
C451 N452 1.279 . S
C451 C454 1.358 . S
C451 H508 0.930 . S
N452 C451 1.279 . S
N452 C455 1.314 . S
C453 C450 1.348 . S
C453 C455 1.353 . S
C453 H509 0.929 . S
C454 C450 1.356 . S
C454 C451 1.358 . S
C454 H510 0.930 . S
C455 N452 1.314 . S
C455 C453 1.353 . S
C455 H511 0.930 . S
C456 N457 1.314 . S
C456 C461 1.353 . S
C456 H462 0.930 . S
N457 Li440 1.990 . S
N457 C456 1.314 . S
N457 C459 1.279 . S
C458 C459 1.358 . S
C458 C460 1.356 . S
C458 H512 0.930 . S
C459 N457 1.279 . S
C459 C458 1.358 . S
C459 H463 0.930 . S
C460 C458 1.356 . S
C460 C461 1.348 . S
C461 C456 1.353 . S
C461 C460 1.348 . S
C461 H513 0.929 . S
H462 C456 0.930 . S
H463 C459 0.930 . S
C464 N465 1.314 1_565 S
C464 C466 1.353 . S
C464 H470 0.930 . S
N465 Li441 1.990 . S
N465 C464 1.314 1_545 S
N465 C468 1.279 . S
C466 C464 1.353 . S
C466 C469 1.348 . S
C466 H514 0.929 . S
C467 C468 1.358 . S
C467 C469 1.356 1_545 S
C467 H515 0.930 . S
C468 N465 1.279 . S
C468 C467 1.358 . S
C468 H471 0.930 . S
C469 C466 1.348 . S
C469 C467 1.356 1_565 S
H470 C464 0.930 . S
H471 C468 0.930 . S
C472 C474 1.348 . S
C472 C475 1.356 . S
C472 O502 1.325 . S
N473 C476 1.314 . S
N473 C477 1.279 . S
C474 C472 1.348 . S
C474 C476 1.353 . S
C474 H516 0.929 . S
C475 C472 1.356 . S
C475 C477 1.358 . S
C475 H517 0.930 . S
C476 N473 1.314 . S
C476 C474 1.353 . S
C476 H518 0.930 . S
C477 N473 1.279 . S
C477 C475 1.358 . S
C477 H519 0.930 . S
C478 C479 1.348 . S
C478 C480 1.356 . S
C478 O503 1.325 1_565 S
C479 C478 1.348 . S
C479 C481 1.353 . S
C479 H520 0.929 . S
C480 C478 1.356 . S
C480 C482 1.358 . S
C480 H521 0.930 . S
C481 C479 1.353 . S
C481 N483 1.314 . S
C481 H522 0.930 . S
C482 C480 1.358 . S
C482 N483 1.279 . S
C482 H523 0.930 . S
N483 C481 1.314 . S
N483 C482 1.279 . S
C484 C486 1.353 . S
C484 N487 1.314 . S
C484 H490 0.930 . S
C485 N487 1.279 . S
C485 C488 1.358 . S
C485 H491 0.930 . S
C486 C484 1.353 . S
C486 C489 1.348 . S
C486 H524 0.929 . S
N487 Li442 1.990 . S
N487 C484 1.314 . S
N487 C485 1.279 . S
C488 C485 1.358 . S
C488 C489 1.356 . S
C488 H525 0.930 . S
C489 C486 1.348 . S
C489 C488 1.356 . S
H490 C484 0.930 . S
H491 C485 0.930 . S
C492 N493 1.314 . S
C492 C494 1.353 . S
C492 H498 0.930 . S
N493 Li443 1.990 . S
N493 C492 1.314 . S
N493 C496 1.279 . S
C494 C492 1.353 . S
C494 C497 1.348 . S
C494 H526 0.929 . S
C495 C496 1.358 1_565 S
C495 C497 1.356 1_565 S
C495 H527 0.930 . S
C496 N493 1.279 . S
C496 C495 1.358 1_545 S
C496 H499 0.930 1_545 S
C497 C494 1.348 . S
C497 C495 1.356 1_545 S
H498 C492 0.930 . S
H499 C496 0.930 1_565 S
O500 Li440 1.956 . S
O500 Li441 1.970 . S
O500 Li442 1.961 . S
O500 C444 1.325 . S
O501 Li440 1.970 . S
O501 Li441 1.956 . S
O501 Li443 1.961 . S
O501 C450 1.325 . S
O502 Li440 1.961 . S
O502 Li442 1.956 . S
O502 Li443 1.970 . S
O502 C472 1.325 . S
O503 Li441 1.961 . S
O503 Li442 1.970 . S
O503 Li443 1.956 . S
O503 C478 1.325 1_545 S
H504 C446 0.929 . S
H505 C447 0.930 . S
H506 C448 0.930 . S
H507 C449 0.930 . S
H508 C451 0.930 . S
H509 C453 0.929 . S
H510 C454 0.930 . S
H511 C455 0.930 . S
H512 C458 0.930 . S
H513 C461 0.929 . S
H514 C466 0.929 . S
H515 C467 0.930 . S
H516 C474 0.929 . S
H517 C475 0.930 . S
H518 C476 0.930 . S
H519 C477 0.930 . S
H520 C479 0.929 . S
H521 C480 0.930 . S
H522 C481 0.930 . S
H523 C482 0.930 . S
H524 C486 0.929 . S
H525 C488 0.930 . S
H526 C494 0.929 . S
H527 C495 0.930 . S
Li528 N545 1.990 . S
Li528 O588 1.956 . S
Li528 O589 1.970 . S
Li528 O590 1.961 . S
Li529 N553 1.990 . S
Li529 O588 1.970 . S
Li529 O589 1.956 . S
Li529 O591 1.961 . S
Li530 N575 1.990 . S
Li530 O588 1.961 . S
Li530 O590 1.956 . S
Li530 O591 1.970 . S
Li531 N581 1.990 . S
Li531 O589 1.961 . S
Li531 O590 1.970 . S
Li531 O591 1.956 . S
C532 C534 1.348 . S
C532 C535 1.356 . S
C532 O588 1.325 . S
N533 C536 1.314 . S
N533 C537 1.279 . S
C534 C532 1.348 . S
C534 C536 1.353 . S
C534 H592 0.929 . S
C535 C532 1.356 . S
C535 C537 1.358 . S
C535 H593 0.930 . S
C536 N533 1.314 . S
C536 C534 1.353 . S
C536 H594 0.930 . S
C537 N533 1.279 . S
C537 C535 1.358 . S
C537 H595 0.930 . S
C538 C541 1.348 . S
C538 C542 1.356 . S
C538 O589 1.325 1_565 S
C539 N540 1.279 . S
C539 C542 1.358 . S
C539 H596 0.930 . S
N540 C539 1.279 . S
N540 C543 1.314 . S
C541 C538 1.348 . S
C541 C543 1.353 . S
C541 H597 0.929 . S
C542 C538 1.356 . S
C542 C539 1.358 . S
C542 H598 0.930 . S
C543 N540 1.314 . S
C543 C541 1.353 . S
C543 H599 0.930 . S
C544 N545 1.314 . S
C544 C549 1.353 . S
C544 H550 0.930 . S
N545 Li528 1.990 . S
N545 C544 1.314 . S
N545 C547 1.279 . S
C546 C547 1.358 . S
C546 C548 1.356 . S
C546 H600 0.930 . S
C547 N545 1.279 . S
C547 C546 1.358 . S
C547 H551 0.930 . S
C548 C546 1.356 . S
C548 C549 1.348 . S
C549 C544 1.353 . S
C549 C548 1.348 . S
C549 H601 0.929 . S
H550 C544 0.930 . S
H551 C547 0.930 . S
C552 N553 1.314 . S
C552 C554 1.353 . S
C552 H558 0.930 . S
N553 Li529 1.990 . S
N553 C552 1.314 . S
N553 C556 1.279 . S
C554 C552 1.353 . S
C554 C557 1.348 . S
C554 H602 0.929 . S
C555 C556 1.358 1_565 S
C555 C557 1.356 1_565 S
C555 H603 0.930 . S
C556 N553 1.279 . S
C556 C555 1.358 1_545 S
C556 H559 0.930 1_545 S
C557 C554 1.348 . S
C557 C555 1.356 1_545 S
H558 C552 0.930 . S
H559 C556 0.930 1_565 S
C560 C562 1.348 . S
C560 C563 1.356 . S
C560 O590 1.325 . S
N561 C564 1.314 . S
N561 C565 1.279 . S
C562 C560 1.348 . S
C562 C564 1.353 . S
C562 H604 0.929 . S
C563 C560 1.356 . S
C563 C565 1.358 . S
C563 H605 0.930 . S
C564 N561 1.314 . S
C564 C562 1.353 . S
C564 H606 0.930 . S
C565 N561 1.279 . S
C565 C563 1.358 . S
C565 H607 0.930 . S
C566 C567 1.348 . S
C566 C568 1.356 . S
C566 O591 1.325 . S
C567 C566 1.348 . S
C567 C569 1.353 . S
C567 H608 0.929 . S
C568 C566 1.356 . S
C568 C570 1.358 . S
C568 H609 0.930 . S
C569 C567 1.353 . S
C569 N571 1.314 . S
C569 H610 0.930 . S
C570 C568 1.358 . S
C570 N571 1.279 . S
C570 H611 0.930 . S
N571 C569 1.314 . S
N571 C570 1.279 . S
C572 C574 1.353 . S
C572 N575 1.314 . S
C572 H578 0.930 . S
C573 N575 1.279 . S
C573 C576 1.358 . S
C573 H579 0.930 . S
C574 C572 1.353 . S
C574 C577 1.348 . S
C574 H612 0.929 . S
N575 Li530 1.990 . S
N575 C572 1.314 . S
N575 C573 1.279 . S
C576 C573 1.358 . S
C576 C577 1.356 . S
C576 H613 0.930 . S
C577 C574 1.348 . S
C577 C576 1.356 . S
H578 C572 0.930 . S
H579 C573 0.930 . S
C580 N581 1.314 1_565 S
C580 C582 1.353 . S
C580 H586 0.930 . S
N581 Li531 1.990 . S
N581 C580 1.314 1_545 S
N581 C584 1.279 . S
C582 C580 1.353 . S
C582 C585 1.348 . S
C582 H614 0.929 . S
C583 C584 1.358 . S
C583 C585 1.356 1_545 S
C583 H615 0.930 . S
C584 N581 1.279 . S
C584 C583 1.358 . S
C584 H587 0.930 . S
C585 C582 1.348 . S
C585 C583 1.356 1_565 S
H586 C580 0.930 . S
H587 C584 0.930 . S
O588 Li528 1.956 . S
O588 Li529 1.970 . S
O588 Li530 1.961 . S
O588 C532 1.325 . S
O589 Li528 1.970 . S
O589 Li529 1.956 . S
O589 Li531 1.961 . S
O589 C538 1.325 1_545 S
O590 Li528 1.961 . S
O590 Li530 1.956 . S
O590 Li531 1.970 . S
O590 C560 1.325 . S
O591 Li529 1.961 . S
O591 Li530 1.970 . S
O591 Li531 1.956 . S
O591 C566 1.325 . S
H592 C534 0.929 . S
H593 C535 0.930 . S
H594 C536 0.930 . S
H595 C537 0.930 . S
H596 C539 0.930 . S
H597 C541 0.929 . S
H598 C542 0.930 . S
H599 C543 0.930 . S
H600 C546 0.930 . S
H601 C549 0.929 . S
H602 C554 0.929 . S
H603 C555 0.930 . S
H604 C562 0.929 . S
H605 C563 0.930 . S
H606 C564 0.930 . S
H607 C565 0.930 . S
H608 C567 0.929 . S
H609 C568 0.930 . S
H610 C569 0.930 . S
H611 C570 0.930 . S
H612 C574 0.929 . S
H613 C576 0.930 . S
H614 C582 0.929 . S
H615 C583 0.930 . S
Li616 N633 1.990 . S
Li616 O676 1.956 . S
Li616 O677 1.970 . S
Li616 O678 1.961 . S
Li617 N641 1.990 . S
Li617 O676 1.970 . S
Li617 O677 1.956 . S
Li617 O679 1.961 . S
Li618 N663 1.990 . S
Li618 O676 1.961 . S
Li618 O678 1.956 . S
Li618 O679 1.970 . S
Li619 N669 1.990 . S
Li619 O677 1.961 . S
Li619 O678 1.970 . S
Li619 O679 1.956 . S
C620 C622 1.348 . S
C620 C623 1.356 . S
C620 O676 1.325 1_545 S
N621 C624 1.314 . S
N621 C625 1.279 . S
C622 C620 1.348 . S
C622 C624 1.353 . S
C622 H680 0.929 . S
C623 C620 1.356 . S
C623 C625 1.358 . S
C623 H681 0.930 . S
C624 N621 1.314 . S
C624 C622 1.353 . S
C624 H682 0.930 . S
C625 N621 1.279 . S
C625 C623 1.358 . S
C625 H683 0.930 . S
C626 C629 1.348 . S
C626 C630 1.356 . S
C626 O677 1.325 . S
C627 N628 1.279 . S
C627 C630 1.358 . S
C627 H684 0.930 . S
N628 C627 1.279 . S
N628 C631 1.314 . S
C629 C626 1.348 . S
C629 C631 1.353 . S
C629 H685 0.929 . S
C630 C626 1.356 . S
C630 C627 1.358 . S
C630 H686 0.930 . S
C631 N628 1.314 . S
C631 C629 1.353 . S
C631 H687 0.930 . S
C632 N633 1.314 . S
C632 C637 1.353 1_455 S
C632 H638 0.930 . S
N633 Li616 1.990 . S
N633 C632 1.314 . S
N633 C635 1.279 . S
C634 C635 1.358 1_545 S
C634 C636 1.356 1_545 S
C634 H688 0.930 . S
C635 N633 1.279 . S
C635 C634 1.358 1_565 S
C635 H639 0.930 1_565 S
C636 C634 1.356 1_565 S
C636 C637 1.348 1_455 S
C637 C632 1.353 1_655 S
C637 C636 1.348 1_655 S
C637 H689 0.929 . S
H638 C632 0.930 . S
H639 C635 0.930 1_545 S
C640 N641 1.314 . S
C640 C642 1.353 . S
C640 H646 0.930 . S
N641 Li617 1.990 . S
N641 C640 1.314 . S
N641 C644 1.279 . S
C642 C640 1.353 . S
C642 C645 1.348 . S
C642 H690 0.929 . S
C643 C644 1.358 . S
C643 C645 1.356 . S
C643 H691 0.930 . S
C644 N641 1.279 . S
C644 C643 1.358 . S
C644 H647 0.930 . S
C645 C642 1.348 . S
C645 C643 1.356 . S
H646 C640 0.930 . S
H647 C644 0.930 . S
C648 C650 1.348 . S
C648 C651 1.356 . S
C648 O678 1.325 1_655 S
N649 C652 1.314 . S
N649 C653 1.279 . S
C650 C648 1.348 . S
C650 C652 1.353 . S
C650 H692 0.929 . S
C651 C648 1.356 . S
C651 C653 1.358 . S
C651 H693 0.930 . S
C652 N649 1.314 . S
C652 C650 1.353 . S
C652 H694 0.930 . S
C653 N649 1.279 . S
C653 C651 1.358 . S
C653 H695 0.930 . S
C654 C655 1.348 . S
C654 C656 1.356 . S
C654 O679 1.325 . S
C655 C654 1.348 . S
C655 C657 1.353 . S
C655 H696 0.929 . S
C656 C654 1.356 . S
C656 C658 1.358 . S
C656 H697 0.930 . S
C657 C655 1.353 . S
C657 N659 1.314 . S
C657 H698 0.930 . S
C658 C656 1.358 . S
C658 N659 1.279 . S
C658 H699 0.930 . S
N659 C657 1.314 . S
N659 C658 1.279 . S
C660 C662 1.353 . S
C660 N663 1.314 1_545 S
C660 H666 0.930 . S
C661 N663 1.279 1_655 S
C661 C664 1.358 . S
C661 H667 0.930 . S
C662 C660 1.353 . S
C662 C665 1.348 1_455 S
C662 H700 0.929 . S
N663 Li618 1.990 . S
N663 C660 1.314 1_565 S
N663 C661 1.279 1_455 S
C664 C661 1.358 . S
C664 C665 1.356 1_565 S
C664 H701 0.930 . S
C665 C662 1.348 1_655 S
C665 C664 1.356 1_545 S
H666 C660 0.930 . S
H667 C661 0.930 . S
C668 N669 1.314 . S
C668 C670 1.353 . S
C668 H674 0.930 . S
N669 Li619 1.990 . S
N669 C668 1.314 . S
N669 C672 1.279 . S
C670 C668 1.353 . S
C670 C673 1.348 . S
C670 H702 0.929 . S
C671 C672 1.358 . S
C671 C673 1.356 . S
C671 H703 0.930 . S
C672 N669 1.279 . S
C672 C671 1.358 . S
C672 H675 0.930 . S
C673 C670 1.348 . S
C673 C671 1.356 . S
H674 C668 0.930 . S
H675 C672 0.930 . S
O676 Li616 1.956 . S
O676 Li617 1.970 . S
O676 Li618 1.961 . S
O676 C620 1.325 1_565 S
O677 Li616 1.970 . S
O677 Li617 1.956 . S
O677 Li619 1.961 . S
O677 C626 1.325 . S
O678 Li616 1.961 . S
O678 Li618 1.956 . S
O678 Li619 1.970 . S
O678 C648 1.325 1_455 S
O679 Li617 1.961 . S
O679 Li618 1.970 . S
O679 Li619 1.956 . S
O679 C654 1.325 . S
H680 C622 0.929 . S
H681 C623 0.930 . S
H682 C624 0.930 . S
H683 C625 0.930 . S
H684 C627 0.930 . S
H685 C629 0.929 . S
H686 C630 0.930 . S
H687 C631 0.930 . S
H688 C634 0.930 . S
H689 C637 0.929 . S
H690 C642 0.929 . S
H691 C643 0.930 . S
H692 C650 0.929 . S
H693 C651 0.930 . S
H694 C652 0.930 . S
H695 C653 0.930 . S
H696 C655 0.929 . S
H697 C656 0.930 . S
H698 C657 0.930 . S
H699 C658 0.930 . S
H700 C662 0.929 . S
H701 C664 0.930 . S
H702 C670 0.929 . S
H703 C671 0.930 . S
Li704 N721 1.990 . S
Li704 O764 1.956 . S
Li704 O765 1.970 . S
Li704 O766 1.961 . S
Li705 N729 1.990 . S
Li705 O764 1.970 . S
Li705 O765 1.956 . S
Li705 O767 1.961 . S
Li706 N751 1.990 . S
Li706 O764 1.961 . S
Li706 O766 1.956 . S
Li706 O767 1.970 . S
Li707 N757 1.990 . S
Li707 O765 1.961 . S
Li707 O766 1.970 . S
Li707 O767 1.956 . S
C708 C710 1.348 . S
C708 C711 1.356 . S
C708 O764 1.325 . S
N709 C712 1.314 . S
N709 C713 1.279 . S
C710 C708 1.348 . S
C710 C712 1.353 . S
C710 H768 0.929 . S
C711 C708 1.356 . S
C711 C713 1.358 . S
C711 H769 0.930 . S
C712 N709 1.314 . S
C712 C710 1.353 . S
C712 H770 0.930 . S
C713 N709 1.279 . S
C713 C711 1.358 . S
C713 H771 0.930 . S
C714 C717 1.348 . S
C714 C718 1.356 . S
C714 O765 1.325 . S
C715 N716 1.279 . S
C715 C718 1.358 . S
C715 H772 0.930 . S
N716 C715 1.279 . S
N716 C719 1.314 . S
C717 C714 1.348 . S
C717 C719 1.353 . S
C717 H773 0.929 . S
C718 C714 1.356 . S
C718 C715 1.358 . S
C718 H774 0.930 . S
C719 N716 1.314 . S
C719 C717 1.353 . S
C719 H775 0.930 . S
C720 N721 1.314 . S
C720 C725 1.353 . S
C720 H726 0.930 . S
N721 Li704 1.990 . S
N721 C720 1.314 . S
N721 C723 1.279 . S
C722 C723 1.358 . S
C722 C724 1.356 . S
C722 H776 0.930 . S
C723 N721 1.279 . S
C723 C722 1.358 . S
C723 H727 0.930 . S
C724 C722 1.356 . S
C724 C725 1.348 . S
C725 C720 1.353 . S
C725 C724 1.348 . S
C725 H777 0.929 . S
H726 C720 0.930 . S
H727 C723 0.930 . S
C728 N729 1.314 . S
C728 C730 1.353 . S
C728 H734 0.930 . S
N729 Li705 1.990 . S
N729 C728 1.314 . S
N729 C732 1.279 . S
C730 C728 1.353 . S
C730 C733 1.348 . S
C730 H778 0.929 . S
C731 C732 1.358 . S
C731 C733 1.356 . S
C731 H779 0.930 . S
C732 N729 1.279 . S
C732 C731 1.358 . S
C732 H735 0.930 . S
C733 C730 1.348 . S
C733 C731 1.356 . S
H734 C728 0.930 . S
H735 C732 0.930 . S
C736 C738 1.348 . S
C736 C739 1.356 . S
C736 O766 1.325 . S
N737 C740 1.314 . S
N737 C741 1.279 . S
C738 C736 1.348 . S
C738 C740 1.353 . S
C738 H780 0.929 . S
C739 C736 1.356 . S
C739 C741 1.358 . S
C739 H781 0.930 . S
C740 N737 1.314 . S
C740 C738 1.353 . S
C740 H782 0.930 . S
C741 N737 1.279 . S
C741 C739 1.358 . S
C741 H783 0.930 . S
C742 C743 1.348 . S
C742 C744 1.356 . S
C742 O767 1.325 . S
C743 C742 1.348 . S
C743 C745 1.353 . S
C743 H784 0.929 . S
C744 C742 1.356 . S
C744 C746 1.358 . S
C744 H785 0.930 . S
C745 C743 1.353 . S
C745 N747 1.314 . S
C745 H786 0.930 . S
C746 C744 1.358 . S
C746 N747 1.279 . S
C746 H787 0.930 . S
N747 C745 1.314 . S
N747 C746 1.279 . S
C748 C750 1.353 . S
C748 N751 1.314 . S
C748 H754 0.930 . S
C749 N751 1.279 . S
C749 C752 1.358 . S
C749 H755 0.930 . S
C750 C748 1.353 . S
C750 C753 1.348 . S
C750 H788 0.929 . S
N751 Li706 1.990 . S
N751 C748 1.314 . S
N751 C749 1.279 . S
C752 C749 1.358 . S
C752 C753 1.356 . S
C752 H789 0.930 . S
C753 C750 1.348 . S
C753 C752 1.356 . S
H754 C748 0.930 . S
H755 C749 0.930 . S
C756 N757 1.314 . S
C756 C758 1.353 . S
C756 H762 0.930 . S
N757 Li707 1.990 . S
N757 C756 1.314 . S
N757 C760 1.279 . S
C758 C756 1.353 . S
C758 C761 1.348 . S
C758 H790 0.929 . S
C759 C760 1.358 . S
C759 C761 1.356 . S
C759 H791 0.930 . S
C760 N757 1.279 . S
C760 C759 1.358 . S
C760 H763 0.930 . S
C761 C758 1.348 . S
C761 C759 1.356 . S
H762 C756 0.930 . S
H763 C760 0.930 . S
O764 Li704 1.956 . S
O764 Li705 1.970 . S
O764 Li706 1.961 . S
O764 C708 1.325 . S
O765 Li704 1.970 . S
O765 Li705 1.956 . S
O765 Li707 1.961 . S
O765 C714 1.325 . S
O766 Li704 1.961 . S
O766 Li706 1.956 . S
O766 Li707 1.970 . S
O766 C736 1.325 . S
O767 Li705 1.961 . S
O767 Li706 1.970 . S
O767 Li707 1.956 . S
O767 C742 1.325 . S
H768 C710 0.929 . S
H769 C711 0.930 . S
H770 C712 0.930 . S
H771 C713 0.930 . S
H772 C715 0.930 . S
H773 C717 0.929 . S
H774 C718 0.930 . S
H775 C719 0.930 . S
H776 C722 0.930 . S
H777 C725 0.929 . S
H778 C730 0.929 . S
H779 C731 0.930 . S
H780 C738 0.929 . S
H781 C739 0.930 . S
H782 C740 0.930 . S
H783 C741 0.930 . S
H784 C743 0.929 . S
H785 C744 0.930 . S
H786 C745 0.930 . S
H787 C746 0.930 . S
H788 C750 0.929 . S
H789 C752 0.930 . S
H790 C758 0.929 . S
H791 C759 0.930 . S
Li792 N809 1.990 . S
Li792 O852 1.956 . S
Li792 O853 1.970 . S
Li792 O854 1.961 . S
Li793 N817 1.990 . S
Li793 O852 1.970 . S
Li793 O853 1.956 . S
Li793 O855 1.961 . S
Li794 N839 1.990 . S
Li794 O852 1.961 . S
Li794 O854 1.956 . S
Li794 O855 1.970 . S
Li795 N845 1.990 . S
Li795 O853 1.961 . S
Li795 O854 1.970 . S
Li795 O855 1.956 . S
C796 C798 1.348 . S
C796 C799 1.356 . S
C796 O852 1.325 . S
N797 C800 1.314 . S
N797 C801 1.279 . S
C798 C796 1.348 . S
C798 C800 1.353 . S
C798 H856 0.929 . S
C799 C796 1.356 . S
C799 C801 1.358 . S
C799 H857 0.930 . S
C800 N797 1.314 . S
C800 C798 1.353 . S
C800 H858 0.930 . S
C801 N797 1.279 . S
C801 C799 1.358 . S
C801 H859 0.930 . S
C802 C805 1.348 . S
C802 C806 1.356 . S
C802 O853 1.325 1_455 S
C803 N804 1.279 . S
C803 C806 1.358 . S
C803 H860 0.930 . S
N804 C803 1.279 . S
N804 C807 1.314 . S
C805 C802 1.348 . S
C805 C807 1.353 . S
C805 H861 0.929 . S
C806 C802 1.356 . S
C806 C803 1.358 . S
C806 H862 0.930 . S
C807 N804 1.314 . S
C807 C805 1.353 . S
C807 H863 0.930 . S
C808 N809 1.314 . S
C808 C813 1.353 . S
C808 H814 0.930 . S
N809 Li792 1.990 . S
N809 C808 1.314 . S
N809 C811 1.279 . S
C810 C811 1.358 . S
C810 C812 1.356 . S
C810 H864 0.930 . S
C811 N809 1.279 . S
C811 C810 1.358 . S
C811 H815 0.930 . S
C812 C810 1.356 . S
C812 C813 1.348 . S
C813 C808 1.353 . S
C813 C812 1.348 . S
C813 H865 0.929 . S
H814 C808 0.930 . S
H815 C811 0.930 . S
C816 N817 1.314 . S
C816 C818 1.353 . S
C816 H822 0.930 . S
N817 Li793 1.990 . S
N817 C816 1.314 . S
N817 C820 1.272 1_655 S
C818 C816 1.353 . S
C818 C821 1.348 . S
C818 H866 0.929 . S
C819 C820 1.362 . S
C819 C821 1.356 1_455 S
C819 H867 0.930 . S
C820 N817 1.272 1_455 S
C820 C819 1.362 . S
C820 H823 0.935 . S
C821 C818 1.348 . S
C821 C819 1.356 1_655 S
H822 C816 0.930 . S
H823 C820 0.935 . S
C824 C826 1.348 . S
C824 C827 1.356 . S
C824 O854 1.325 . S
N825 C828 1.314 . S
N825 C829 1.279 . S
C826 C824 1.348 . S
C826 C828 1.353 . S
C826 H868 0.929 . S
C827 C824 1.356 . S
C827 C829 1.358 . S
C827 H869 0.930 . S
C828 N825 1.314 . S
C828 C826 1.353 . S
C828 H870 0.930 . S
C829 N825 1.279 . S
C829 C827 1.358 . S
C829 H871 0.930 . S
C830 C831 1.348 . S
C830 C832 1.356 . S
C830 O855 1.325 . S
C831 C830 1.348 . S
C831 C833 1.353 . S
C831 H872 0.929 . S
C832 C830 1.356 . S
C832 C834 1.358 . S
C832 H873 0.930 . S
C833 C831 1.353 . S
C833 N835 1.314 . S
C833 H874 0.930 . S
C834 C832 1.358 . S
C834 N835 1.279 . S
C834 H875 0.930 . S
N835 C833 1.314 . S
N835 C834 1.279 . S
C836 C838 1.353 . S
C836 N839 1.314 . S
C836 H842 0.930 . S
C837 N839 1.279 . S
C837 C840 1.358 . S
C837 H843 0.930 . S
C838 C836 1.353 . S
C838 C841 1.348 . S
C838 H876 0.929 . S
N839 Li794 1.990 . S
N839 C836 1.314 . S
N839 C837 1.279 . S
C840 C837 1.358 . S
C840 C841 1.356 . S
C840 H877 0.930 . S
C841 C838 1.348 . S
C841 C840 1.356 . S
H842 C836 0.930 . S
H843 C837 0.930 . S
C844 N845 1.314 . S
C844 C846 1.353 1_655 S
C844 H850 0.930 1_655 S
N845 Li795 1.990 . S
N845 C844 1.314 . S
N845 C848 1.279 . S
C846 C844 1.353 1_455 S
C846 C849 1.348 . S
C846 H878 0.929 . S
C847 C848 1.358 . S
C847 C849 1.356 1_655 S
C847 H879 0.930 . S
C848 N845 1.279 . S
C848 C847 1.358 . S
C848 H851 0.930 . S
C849 C846 1.348 . S
C849 C847 1.356 1_455 S
H850 C844 0.930 1_455 S
H851 C848 0.930 . S
O852 Li792 1.956 . S
O852 Li793 1.970 . S
O852 Li794 1.961 . S
O852 C796 1.325 . S
O853 Li792 1.970 . S
O853 Li793 1.956 . S
O853 Li795 1.961 . S
O853 C802 1.325 1_655 S
O854 Li792 1.961 . S
O854 Li794 1.956 . S
O854 Li795 1.970 . S
O854 C824 1.325 . S
O855 Li793 1.961 . S
O855 Li794 1.970 . S
O855 Li795 1.956 . S
O855 C830 1.325 . S
H856 C798 0.929 . S
H857 C799 0.930 . S
H858 C800 0.930 . S
H859 C801 0.930 . S
H860 C803 0.930 . S
H861 C805 0.929 . S
H862 C806 0.930 . S
H863 C807 0.930 . S
H864 C810 0.930 . S
H865 C813 0.929 . S
H866 C818 0.929 . S
H867 C819 0.930 . S
H868 C826 0.929 . S
H869 C827 0.930 . S
H870 C828 0.930 . S
H871 C829 0.930 . S
H872 C831 0.929 . S
H873 C832 0.930 . S
H874 C833 0.930 . S
H875 C834 0.930 . S
H876 C838 0.929 . S
H877 C840 0.930 . S
H878 C846 0.929 . S
H879 C847 0.930 . S
Li880 N897 1.990 . S
Li880 O940 1.956 . S
Li880 O941 1.970 . S
Li880 O942 1.961 . S
Li881 N905 1.990 . S
Li881 O940 1.970 . S
Li881 O941 1.956 . S
Li881 O943 1.961 . S
Li882 N927 1.990 . S
Li882 O940 1.961 . S
Li882 O942 1.956 . S
Li882 O943 1.970 . S
Li883 N933 1.990 . S
Li883 O941 1.961 . S
Li883 O942 1.970 . S
Li883 O943 1.956 . S
C884 C886 1.348 . S
C884 C887 1.356 . S
C884 O940 1.325 . S
N885 C888 1.314 . S
N885 C889 1.279 . S
C886 C884 1.348 . S
C886 C888 1.353 . S
C886 H944 0.929 . S
C887 C884 1.356 . S
C887 C889 1.358 . S
C887 H945 0.930 . S
C888 N885 1.314 . S
C888 C886 1.353 . S
C888 H946 0.930 . S
C889 N885 1.279 . S
C889 C887 1.358 . S
C889 H947 0.930 . S
C890 C893 1.348 . S
C890 C894 1.356 . S
C890 O941 1.325 . S
C891 N892 1.279 . S
C891 C894 1.358 . S
C891 H948 0.930 . S
N892 C891 1.279 . S
N892 C895 1.314 . S
C893 C890 1.348 . S
C893 C895 1.353 . S
C893 H949 0.929 . S
C894 C890 1.356 . S
C894 C891 1.358 . S
C894 H950 0.930 . S
C895 N892 1.314 . S
C895 C893 1.353 . S
C895 H951 0.930 . S
C896 N897 1.314 . S
C896 C901 1.353 1_455 S
C896 H902 0.930 1_455 S
N897 Li880 1.990 . S
N897 C896 1.314 . S
N897 C899 1.279 . S
C898 C899 1.358 . S
C898 C900 1.356 1_455 S
C898 H952 0.930 . S
C899 N897 1.279 . S
C899 C898 1.358 . S
C899 H903 0.930 . S
C900 C898 1.356 1_655 S
C900 C901 1.348 . S
C901 C896 1.353 1_655 S
C901 C900 1.348 . S
C901 H953 0.929 . S
H902 C896 0.930 1_655 S
H903 C899 0.930 . S
C904 N905 1.314 . S
C904 C906 1.353 . S
C904 H910 0.930 . S
N905 Li881 1.990 . S
N905 C904 1.314 . S
N905 C908 1.279 . S
C906 C904 1.353 . S
C906 C909 1.348 . S
C906 H954 0.929 . S
C907 C908 1.358 . S
C907 C909 1.356 . S
C907 H955 0.930 . S
C908 N905 1.279 . S
C908 C907 1.358 . S
C908 H911 0.930 . S
C909 C906 1.348 . S
C909 C907 1.356 . S
H910 C904 0.930 . S
H911 C908 0.930 . S
C912 C914 1.348 . S
C912 C915 1.356 . S
C912 O942 1.325 1_655 S
N913 C916 1.314 . S
N913 C917 1.279 . S
C914 C912 1.348 . S
C914 C916 1.353 . S
C914 H956 0.929 . S
C915 C912 1.356 . S
C915 C917 1.358 . S
C915 H957 0.930 . S
C916 N913 1.314 . S
C916 C914 1.353 . S
C916 H958 0.930 . S
C917 N913 1.279 . S
C917 C915 1.358 . S
C917 H959 0.930 . S
C918 C919 1.348 . S
C918 C920 1.356 . S
C918 O943 1.325 . S
C919 C918 1.348 . S
C919 C921 1.353 . S
C919 H960 0.929 . S
C920 C918 1.356 . S
C920 C922 1.358 . S
C920 H961 0.930 . S
C921 C919 1.353 . S
C921 N923 1.314 . S
C921 H962 0.930 . S
C922 C920 1.358 . S
C922 N923 1.279 . S
C922 H963 0.930 . S
N923 C921 1.314 . S
N923 C922 1.279 . S
C924 C926 1.353 . S
C924 N927 1.314 . S
C924 H930 0.930 . S
C925 N927 1.272 1_655 S
C925 C928 1.362 . S
C925 H931 0.935 . S
C926 C924 1.353 . S
C926 C929 1.348 . S
C926 H964 0.929 . S
N927 Li882 1.990 . S
N927 C924 1.314 . S
N927 C925 1.272 1_455 S
C928 C925 1.362 . S
C928 C929 1.356 1_655 S
C928 H965 0.930 . S
C929 C926 1.348 . S
C929 C928 1.356 1_455 S
H930 C924 0.930 . S
H931 C925 0.935 . S
C932 N933 1.314 . S
C932 C934 1.353 . S
C932 H938 0.930 . S
N933 Li883 1.990 . S
N933 C932 1.314 . S
N933 C936 1.279 . S
C934 C932 1.353 . S
C934 C937 1.348 . S
C934 H966 0.929 . S
C935 C936 1.358 . S
C935 C937 1.356 . S
C935 H967 0.930 . S
C936 N933 1.279 . S
C936 C935 1.358 . S
C936 H939 0.930 . S
C937 C934 1.348 . S
C937 C935 1.356 . S
H938 C932 0.930 . S
H939 C936 0.930 . S
O940 Li880 1.956 . S
O940 Li881 1.970 . S
O940 Li882 1.961 . S
O940 C884 1.325 . S
O941 Li880 1.970 . S
O941 Li881 1.956 . S
O941 Li883 1.961 . S
O941 C890 1.325 . S
O942 Li880 1.961 . S
O942 Li882 1.956 . S
O942 Li883 1.970 . S
O942 C912 1.325 1_455 S
O943 Li881 1.961 . S
O943 Li882 1.970 . S
O943 Li883 1.956 . S
O943 C918 1.325 . S
H944 C886 0.929 . S
H945 C887 0.930 . S
H946 C888 0.930 . S
H947 C889 0.930 . S
H948 C891 0.930 . S
H949 C893 0.929 . S
H950 C894 0.930 . S
H951 C895 0.930 . S
H952 C898 0.930 . S
H953 C901 0.929 . S
H954 C906 0.929 . S
H955 C907 0.930 . S
H956 C914 0.929 . S
H957 C915 0.930 . S
H958 C916 0.930 . S
H959 C917 0.930 . S
H960 C919 0.929 . S
H961 C920 0.930 . S
H962 C921 0.930 . S
H963 C922 0.930 . S
H964 C926 0.929 . S
H965 C928 0.930 . S
H966 C934 0.929 . S
H967 C935 0.930 . S
Li968 N985 1.990 . S
Li968 O1028 1.956 . S
Li968 O1029 1.970 . S
Li968 O1030 1.961 . S
Li969 N993 1.990 . S
Li969 O1028 1.970 . S
Li969 O1029 1.956 . S
Li969 O1031 1.961 . S
Li970 N1015 1.990 . S
Li970 O1028 1.961 . S
Li970 O1030 1.956 . S
Li970 O1031 1.970 . S
Li971 N1021 1.990 . S
Li971 O1029 1.961 . S
Li971 O1030 1.970 . S
Li971 O1031 1.956 . S
C972 C974 1.348 . S
C972 C975 1.356 . S
C972 O1028 1.325 . S
N973 C976 1.314 . S
N973 C977 1.279 . S
C974 C972 1.348 . S
C974 C976 1.353 . S
C974 H1032 0.929 . S
C975 C972 1.356 . S
C975 C977 1.358 . S
C975 H1033 0.930 . S
C976 N973 1.314 . S
C976 C974 1.353 . S
C976 H1034 0.930 . S
C977 N973 1.279 . S
C977 C975 1.358 . S
C977 H1035 0.930 . S
C978 C981 1.348 . S
C978 C982 1.356 . S
C978 O1029 1.325 . S
C979 N980 1.279 . S
C979 C982 1.358 . S
C979 H1036 0.930 . S
N980 C979 1.279 . S
N980 C983 1.314 . S
C981 C978 1.348 . S
C981 C983 1.353 . S
C981 H1037 0.929 . S
C982 C978 1.356 . S
C982 C979 1.358 . S
C982 H1038 0.930 . S
C983 N980 1.314 . S
C983 C981 1.353 . S
C983 H1039 0.930 . S
C984 N985 1.314 . S
C984 C989 1.353 . S
C984 H990 0.930 . S
N985 Li968 1.990 . S
N985 C984 1.314 . S
N985 C987 1.279 . S
C986 C987 1.358 . S
C986 C988 1.356 . S
C986 H1040 0.930 . S
C987 N985 1.279 . S
C987 C986 1.358 . S
C987 H991 0.930 . S
C988 C986 1.356 . S
C988 C989 1.348 . S
C989 C984 1.353 . S
C989 C988 1.348 . S
C989 H1041 0.929 . S
H990 C984 0.930 . S
H991 C987 0.930 . S
C992 N993 1.314 . S
C992 C994 1.353 . S
C992 H998 0.930 . S
N993 Li969 1.990 . S
N993 C992 1.314 . S
N993 C996 1.279 . S
C994 C992 1.353 . S
C994 C997 1.348 . S
C994 H1042 0.929 . S
C995 C996 1.358 . S
C995 C997 1.356 . S
C995 H1043 0.930 . S
C996 N993 1.279 . S
C996 C995 1.358 . S
C996 H999 0.930 . S
C997 C994 1.348 . S
C997 C995 1.356 . S
H998 C992 0.930 . S
H999 C996 0.930 . S
C1000 C1002 1.348 . S
C1000 C1003 1.356 . S
C1000 O1030 1.325 . S
N1001 C1004 1.314 . S
N1001 C1005 1.279 . S
C1002 C1000 1.348 . S
C1002 C1004 1.353 . S
C1002 H1044 0.929 . S
C1003 C1000 1.356 . S
C1003 C1005 1.358 . S
C1003 H1045 0.930 . S
C1004 N1001 1.314 . S
C1004 C1002 1.353 . S
C1004 H1046 0.930 . S
C1005 N1001 1.279 . S
C1005 C1003 1.358 . S
C1005 H1047 0.930 . S
C1006 C1007 1.348 . S
C1006 C1008 1.356 . S
C1006 O1031 1.325 . S
C1007 C1006 1.348 . S
C1007 C1009 1.353 . S
C1007 H1048 0.929 . S
C1008 C1006 1.356 . S
C1008 C1010 1.358 . S
C1008 H1049 0.930 . S
C1009 C1007 1.353 . S
C1009 N1011 1.314 . S
C1009 H1050 0.930 . S
C1010 C1008 1.358 . S
C1010 N1011 1.279 . S
C1010 H1051 0.930 . S
N1011 C1009 1.314 . S
N1011 C1010 1.279 . S
C1012 C1014 1.353 . S
C1012 N1015 1.314 . S
C1012 H1018 0.930 . S
C1013 N1015 1.279 . S
C1013 C1016 1.358 . S
C1013 H1019 0.930 . S
C1014 C1012 1.353 . S
C1014 C1017 1.348 . S
C1014 H1052 0.929 . S
N1015 Li970 1.990 . S
N1015 C1012 1.314 . S
N1015 C1013 1.279 . S
C1016 C1013 1.358 . S
C1016 C1017 1.356 . S
C1016 H1053 0.930 . S
C1017 C1014 1.348 . S
C1017 C1016 1.356 . S
H1018 C1012 0.930 . S
H1019 C1013 0.930 . S
C1020 N1021 1.314 . S
C1020 C1022 1.353 . S
C1020 H1026 0.930 . S
N1021 Li971 1.990 . S
N1021 C1020 1.314 . S
N1021 C1024 1.279 . S
C1022 C1020 1.353 . S
C1022 C1025 1.348 . S
C1022 H1054 0.929 . S
C1023 C1024 1.358 . S
C1023 C1025 1.356 . S
C1023 H1055 0.930 . S
C1024 N1021 1.279 . S
C1024 C1023 1.358 . S
C1024 H1027 0.930 . S
C1025 C1022 1.348 . S
C1025 C1023 1.356 . S
H1026 C1020 0.930 . S
H1027 C1024 0.930 . S
O1028 Li968 1.956 . S
O1028 Li969 1.970 . S
O1028 Li970 1.961 . S
O1028 C972 1.325 . S
O1029 Li968 1.970 . S
O1029 Li969 1.956 . S
O1029 Li971 1.961 . S
O1029 C978 1.325 . S
O1030 Li968 1.961 . S
O1030 Li970 1.956 . S
O1030 Li971 1.970 . S
O1030 C1000 1.325 . S
O1031 Li969 1.961 . S
O1031 Li970 1.970 . S
O1031 Li971 1.956 . S
O1031 C1006 1.325 . S
H1032 C974 0.929 . S
H1033 C975 0.930 . S
H1034 C976 0.930 . S
H1035 C977 0.930 . S
H1036 C979 0.930 . S
H1037 C981 0.929 . S
H1038 C982 0.930 . S
H1039 C983 0.930 . S
H1040 C986 0.930 . S
H1041 C989 0.929 . S
H1042 C994 0.929 . S
H1043 C995 0.930 . S
H1044 C1002 0.929 . S
H1045 C1003 0.930 . S
H1046 C1004 0.930 . S
H1047 C1005 0.930 . S
H1048 C1007 0.929 . S
H1049 C1008 0.930 . S
H1050 C1009 0.930 . S
H1051 C1010 0.930 . S
H1052 C1014 0.929 . S
H1053 C1016 0.930 . S
H1054 C1022 0.929 . S
H1055 C1023 0.930 . S
Li1056 N1073 1.990 . S
Li1056 O1116 1.956 . S
Li1056 O1117 1.970 . S
Li1056 O1118 1.961 . S
Li1057 N1081 1.990 . S
Li1057 O1116 1.970 . S
Li1057 O1117 1.956 . S
Li1057 O1119 1.961 . S
Li1058 N1103 1.990 . S
Li1058 O1116 1.961 . S
Li1058 O1118 1.956 . S
Li1058 O1119 1.970 . S
Li1059 N1109 1.990 . S
Li1059 O1117 1.961 . S
Li1059 O1118 1.970 . S
Li1059 O1119 1.956 . S
C1060 C1062 1.348 . S
C1060 C1063 1.356 . S
C1060 O1116 1.325 . S
N1061 C1064 1.314 . S
N1061 C1065 1.279 . S
C1062 C1060 1.348 . S
C1062 C1064 1.353 . S
C1062 H1120 0.929 . S
C1063 C1060 1.356 . S
C1063 C1065 1.358 . S
C1063 H1121 0.930 . S
C1064 N1061 1.314 . S
C1064 C1062 1.353 . S
C1064 H1122 0.930 . S
C1065 N1061 1.279 . S
C1065 C1063 1.358 . S
C1065 H1123 0.930 . S
C1066 C1069 1.348 . S
C1066 C1070 1.356 . S
C1066 O1117 1.325 . S
C1067 N1068 1.279 . S
C1067 C1070 1.358 . S
C1067 H1124 0.930 . S
N1068 C1067 1.279 . S
N1068 C1071 1.314 . S
C1069 C1066 1.348 . S
C1069 C1071 1.353 . S
C1069 H1125 0.929 . S
C1070 C1066 1.356 . S
C1070 C1067 1.358 . S
C1070 H1126 0.930 . S
C1071 N1068 1.314 . S
C1071 C1069 1.353 . S
C1071 H1127 0.930 . S
C1072 N1073 1.314 . S
C1072 C1077 1.353 . S
C1072 H1078 0.930 . S
N1073 Li1056 1.990 . S
N1073 C1072 1.314 . S
N1073 C1075 1.279 . S
C1074 C1075 1.358 . S
C1074 C1076 1.356 . S
C1074 H1128 0.930 . S
C1075 N1073 1.279 . S
C1075 C1074 1.358 . S
C1075 H1079 0.930 . S
C1076 C1074 1.356 . S
C1076 C1077 1.348 . S
C1077 C1072 1.353 . S
C1077 C1076 1.348 . S
C1077 H1129 0.929 . S
H1078 C1072 0.930 . S
H1079 C1075 0.930 . S
C1080 N1081 1.314 . S
C1080 C1082 1.353 . S
C1080 H1086 0.930 . S
N1081 Li1057 1.990 . S
N1081 C1080 1.314 . S
N1081 C1084 1.279 . S
C1082 C1080 1.353 . S
C1082 C1085 1.348 . S
C1082 H1130 0.929 . S
C1083 C1084 1.358 . S
C1083 C1085 1.356 . S
C1083 H1131 0.930 . S
C1084 N1081 1.279 . S
C1084 C1083 1.358 . S
C1084 H1087 0.930 . S
C1085 C1082 1.348 . S
C1085 C1083 1.356 . S
H1086 C1080 0.930 . S
H1087 C1084 0.930 . S
C1088 C1090 1.348 . S
C1088 C1091 1.356 . S
C1088 O1118 1.325 . S
N1089 C1092 1.314 . S
N1089 C1093 1.279 . S
C1090 C1088 1.348 . S
C1090 C1092 1.353 . S
C1090 H1132 0.929 . S
C1091 C1088 1.356 . S
C1091 C1093 1.358 . S
C1091 H1133 0.930 . S
C1092 N1089 1.314 . S
C1092 C1090 1.353 . S
C1092 H1134 0.930 . S
C1093 N1089 1.279 . S
C1093 C1091 1.358 . S
C1093 H1135 0.930 . S
C1094 C1095 1.348 . S
C1094 C1096 1.356 . S
C1094 O1119 1.325 . S
C1095 C1094 1.348 . S
C1095 C1097 1.353 . S
C1095 H1136 0.929 . S
C1096 C1094 1.356 . S
C1096 C1098 1.358 . S
C1096 H1137 0.930 . S
C1097 C1095 1.353 . S
C1097 N1099 1.314 . S
C1097 H1138 0.930 . S
C1098 C1096 1.358 . S
C1098 N1099 1.279 . S
C1098 H1139 0.930 . S
N1099 C1097 1.314 . S
N1099 C1098 1.279 . S
C1100 C1102 1.353 . S
C1100 N1103 1.314 . S
C1100 H1106 0.930 . S
C1101 N1103 1.279 . S
C1101 C1104 1.358 . S
C1101 H1107 0.930 . S
C1102 C1100 1.353 . S
C1102 C1105 1.348 . S
C1102 H1140 0.929 . S
N1103 Li1058 1.990 . S
N1103 C1100 1.314 . S
N1103 C1101 1.279 . S
C1104 C1101 1.358 . S
C1104 C1105 1.356 . S
C1104 H1141 0.930 . S
C1105 C1102 1.348 . S
C1105 C1104 1.356 . S
H1106 C1100 0.930 . S
H1107 C1101 0.930 . S
C1108 N1109 1.314 . S
C1108 C1110 1.353 . S
C1108 H1114 0.930 . S
N1109 Li1059 1.990 . S
N1109 C1108 1.314 . S
N1109 C1112 1.279 . S
C1110 C1108 1.353 . S
C1110 C1113 1.348 . S
C1110 H1142 0.929 . S
C1111 C1112 1.358 . S
C1111 C1113 1.356 . S
C1111 H1143 0.930 . S
C1112 N1109 1.279 . S
C1112 C1111 1.358 . S
C1112 H1115 0.930 . S
C1113 C1110 1.348 . S
C1113 C1111 1.356 . S
H1114 C1108 0.930 . S
H1115 C1112 0.930 . S
O1116 Li1056 1.956 . S
O1116 Li1057 1.970 . S
O1116 Li1058 1.961 . S
O1116 C1060 1.325 . S
O1117 Li1056 1.970 . S
O1117 Li1057 1.956 . S
O1117 Li1059 1.961 . S
O1117 C1066 1.325 . S
O1118 Li1056 1.961 . S
O1118 Li1058 1.956 . S
O1118 Li1059 1.970 . S
O1118 C1088 1.325 . S
O1119 Li1057 1.961 . S
O1119 Li1058 1.970 . S
O1119 Li1059 1.956 . S
O1119 C1094 1.325 . S
H1120 C1062 0.929 . S
H1121 C1063 0.930 . S
H1122 C1064 0.930 . S
H1123 C1065 0.930 . S
H1124 C1067 0.930 . S
H1125 C1069 0.929 . S
H1126 C1070 0.930 . S
H1127 C1071 0.930 . S
H1128 C1074 0.930 . S
H1129 C1077 0.929 . S
H1130 C1082 0.929 . S
H1131 C1083 0.930 . S
H1132 C1090 0.929 . S
H1133 C1091 0.930 . S
H1134 C1092 0.930 . S
H1135 C1093 0.930 . S
H1136 C1095 0.929 . S
H1137 C1096 0.930 . S
H1138 C1097 0.930 . S
H1139 C1098 0.930 . S
H1140 C1102 0.929 . S
H1141 C1104 0.930 . S
H1142 C1110 0.929 . S
H1143 C1111 0.930 . S
Li1144 N1161 1.990 . S
Li1144 O1204 1.956 . S
Li1144 O1205 1.970 . S
Li1144 O1206 1.961 . S
Li1145 N1169 1.990 . S
Li1145 O1204 1.970 . S
Li1145 O1205 1.956 . S
Li1145 O1207 1.961 . S
Li1146 N1191 1.990 . S
Li1146 O1204 1.961 . S
Li1146 O1206 1.956 . S
Li1146 O1207 1.970 . S
Li1147 N1197 1.990 . S
Li1147 O1205 1.961 . S
Li1147 O1206 1.970 . S
Li1147 O1207 1.956 . S
C1148 C1150 1.348 . S
C1148 C1151 1.356 . S
C1148 O1204 1.325 1_655 S
N1149 C1152 1.314 . S
N1149 C1153 1.279 . S
C1150 C1148 1.348 . S
C1150 C1152 1.353 . S
C1150 H1208 0.929 . S
C1151 C1148 1.356 . S
C1151 C1153 1.358 . S
C1151 H1209 0.930 . S
C1152 N1149 1.314 . S
C1152 C1150 1.353 . S
C1152 H1210 0.930 . S
C1153 N1149 1.279 . S
C1153 C1151 1.358 . S
C1153 H1211 0.930 . S
C1154 C1157 1.348 . S
C1154 C1158 1.356 . S
C1154 O1205 1.325 . S
C1155 N1156 1.279 . S
C1155 C1158 1.358 . S
C1155 H1212 0.930 . S
N1156 C1155 1.279 . S
N1156 C1159 1.314 . S
C1157 C1154 1.348 . S
C1157 C1159 1.353 . S
C1157 H1213 0.929 . S
C1158 C1154 1.356 . S
C1158 C1155 1.358 . S
C1158 H1214 0.930 . S
C1159 N1156 1.314 . S
C1159 C1157 1.353 . S
C1159 H1215 0.930 . S
C1160 N1161 1.314 . S
C1160 C1165 1.353 . S
C1160 H1166 0.930 . S
N1161 Li1144 1.990 . S
N1161 C1160 1.314 . S
N1161 C1163 1.279 1_455 S
C1162 C1163 1.358 . S
C1162 C1164 1.356 . S
C1162 H1216 0.930 . S
C1163 N1161 1.279 1_655 S
C1163 C1162 1.358 . S
C1163 H1167 0.930 . S
C1164 C1162 1.356 . S
C1164 C1165 1.348 1_655 S
C1165 C1160 1.353 . S
C1165 C1164 1.348 1_455 S
C1165 H1217 0.929 . S
H1166 C1160 0.930 . S
H1167 C1163 0.930 . S
C1168 N1169 1.314 . S
C1168 C1170 1.353 . S
C1168 H1174 0.930 . S
N1169 Li1145 1.990 . S
N1169 C1168 1.314 . S
N1169 C1172 1.279 . S
C1170 C1168 1.353 . S
C1170 C1173 1.348 . S
C1170 H1218 0.929 . S
C1171 C1172 1.358 . S
C1171 C1173 1.356 . S
C1171 H1219 0.930 . S
C1172 N1169 1.279 . S
C1172 C1171 1.358 . S
C1172 H1175 0.930 . S
C1173 C1170 1.348 . S
C1173 C1171 1.356 . S
H1174 C1168 0.930 . S
H1175 C1172 0.930 . S
C1176 C1178 1.348 . S
C1176 C1179 1.356 . S
C1176 O1206 1.325 . S
N1177 C1180 1.314 . S
N1177 C1181 1.279 . S
C1178 C1176 1.348 . S
C1178 C1180 1.353 . S
C1178 H1220 0.929 . S
C1179 C1176 1.356 . S
C1179 C1181 1.358 . S
C1179 H1221 0.930 . S
C1180 N1177 1.314 . S
C1180 C1178 1.353 . S
C1180 H1222 0.930 . S
C1181 N1177 1.279 . S
C1181 C1179 1.358 . S
C1181 H1223 0.930 . S
C1182 C1183 1.348 . S
C1182 C1184 1.356 . S
C1182 O1207 1.325 . S
C1183 C1182 1.348 . S
C1183 C1185 1.353 . S
C1183 H1224 0.929 . S
C1184 C1182 1.356 . S
C1184 C1186 1.358 . S
C1184 H1225 0.930 . S
C1185 C1183 1.353 . S
C1185 N1187 1.314 . S
C1185 H1226 0.930 . S
C1186 C1184 1.358 . S
C1186 N1187 1.279 . S
C1186 H1227 0.930 . S
N1187 C1185 1.314 . S
N1187 C1186 1.279 . S
C1188 C1190 1.353 1_455 S
C1188 N1191 1.314 . S
C1188 H1194 0.930 . S
C1189 N1191 1.279 . S
C1189 C1192 1.358 . S
C1189 H1195 0.930 . S
C1190 C1188 1.353 1_655 S
C1190 C1193 1.348 1_655 S
C1190 H1228 0.929 . S
N1191 Li1146 1.990 . S
N1191 C1188 1.314 . S
N1191 C1189 1.279 . S
C1192 C1189 1.358 . S
C1192 C1193 1.356 . S
C1192 H1229 0.930 . S
C1193 C1190 1.348 1_455 S
C1193 C1192 1.356 . S
H1194 C1188 0.930 . S
H1195 C1189 0.930 . S
C1196 N1197 1.314 . S
C1196 C1198 1.353 . S
C1196 H1202 0.930 . S
N1197 Li1147 1.990 . S
N1197 C1196 1.314 . S
N1197 C1200 1.279 . S
C1198 C1196 1.353 . S
C1198 C1201 1.348 . S
C1198 H1230 0.929 . S
C1199 C1200 1.358 . S
C1199 C1201 1.356 . S
C1199 H1231 0.930 . S
C1200 N1197 1.279 . S
C1200 C1199 1.358 . S
C1200 H1203 0.930 . S
C1201 C1198 1.348 . S
C1201 C1199 1.356 . S
H1202 C1196 0.930 . S
H1203 C1200 0.930 . S
O1204 Li1144 1.956 . S
O1204 Li1145 1.970 . S
O1204 Li1146 1.961 . S
O1204 C1148 1.325 1_455 S
O1205 Li1144 1.970 . S
O1205 Li1145 1.956 . S
O1205 Li1147 1.961 . S
O1205 C1154 1.325 . S
O1206 Li1144 1.961 . S
O1206 Li1146 1.956 . S
O1206 Li1147 1.970 . S
O1206 C1176 1.325 . S
O1207 Li1145 1.961 . S
O1207 Li1146 1.970 . S
O1207 Li1147 1.956 . S
O1207 C1182 1.325 . S
H1208 C1150 0.929 . S
H1209 C1151 0.930 . S
H1210 C1152 0.930 . S
H1211 C1153 0.930 . S
H1212 C1155 0.930 . S
H1213 C1157 0.929 . S
H1214 C1158 0.930 . S
H1215 C1159 0.930 . S
H1216 C1162 0.930 . S
H1217 C1165 0.929 . S
H1218 C1170 0.929 . S
H1219 C1171 0.930 . S
H1220 C1178 0.929 . S
H1221 C1179 0.930 . S
H1222 C1180 0.930 . S
H1223 C1181 0.930 . S
H1224 C1183 0.929 . S
H1225 C1184 0.930 . S
H1226 C1185 0.930 . S
H1227 C1186 0.930 . S
H1228 C1190 0.929 . S
H1229 C1192 0.930 . S
H1230 C1198 0.929 . S
H1231 C1199 0.930 . S
Li1232 N1249 1.990 . S
Li1232 O1292 1.956 . S
Li1232 O1293 1.970 . S
Li1232 O1294 1.961 . S
Li1233 N1257 1.990 . S
Li1233 O1292 1.970 . S
Li1233 O1293 1.956 . S
Li1233 O1295 1.961 . S
Li1234 N1279 1.990 . S
Li1234 O1292 1.961 . S
Li1234 O1294 1.956 . S
Li1234 O1295 1.970 . S
Li1235 N1285 1.990 . S
Li1235 O1293 1.961 . S
Li1235 O1294 1.970 . S
Li1235 O1295 1.956 . S
C1236 C1238 1.348 . S
C1236 C1239 1.356 . S
C1236 O1292 1.325 . S
N1237 C1240 1.314 . S
N1237 C1241 1.279 . S
C1238 C1236 1.348 . S
C1238 C1240 1.353 . S
C1238 H1296 0.929 . S
C1239 C1236 1.356 . S
C1239 C1241 1.358 . S
C1239 H1297 0.930 . S
C1240 N1237 1.314 . S
C1240 C1238 1.353 . S
C1240 H1298 0.930 . S
C1241 N1237 1.279 . S
C1241 C1239 1.358 . S
C1241 H1299 0.930 . S
C1242 C1245 1.348 . S
C1242 C1246 1.356 . S
C1242 O1293 1.325 . S
C1243 N1244 1.279 . S
C1243 C1246 1.358 . S
C1243 H1300 0.930 . S
N1244 C1243 1.279 . S
N1244 C1247 1.314 . S
C1245 C1242 1.348 . S
C1245 C1247 1.353 . S
C1245 H1301 0.929 . S
C1246 C1242 1.356 . S
C1246 C1243 1.358 . S
C1246 H1302 0.930 . S
C1247 N1244 1.314 . S
C1247 C1245 1.353 . S
C1247 H1303 0.930 . S
C1248 N1249 1.314 . S
C1248 C1253 1.353 . S
C1248 H1254 0.930 . S
N1249 Li1232 1.990 . S
N1249 C1248 1.314 . S
N1249 C1251 1.279 . S
C1250 C1251 1.358 . S
C1250 C1252 1.356 . S
C1250 H1304 0.930 . S
C1251 N1249 1.279 . S
C1251 C1250 1.358 . S
C1251 H1255 0.930 . S
C1252 C1250 1.356 . S
C1252 C1253 1.348 . S
C1253 C1248 1.353 . S
C1253 C1252 1.348 . S
C1253 H1305 0.929 . S
H1254 C1248 0.930 . S
H1255 C1251 0.930 . S
C1256 N1257 1.314 . S
C1256 C1258 1.353 1_655 S
C1256 H1262 0.930 . S
N1257 Li1233 1.990 . S
N1257 C1256 1.314 . S
N1257 C1260 1.279 . S
C1258 C1256 1.353 1_455 S
C1258 C1261 1.348 1_455 S
C1258 H1306 0.929 . S
C1259 C1260 1.358 . S
C1259 C1261 1.356 . S
C1259 H1307 0.930 . S
C1260 N1257 1.279 . S
C1260 C1259 1.358 . S
C1260 H1263 0.930 . S
C1261 C1258 1.348 1_655 S
C1261 C1259 1.356 . S
H1262 C1256 0.930 . S
H1263 C1260 0.930 . S
C1264 C1266 1.348 . S
C1264 C1267 1.356 . S
C1264 O1294 1.325 . S
N1265 C1268 1.314 . S
N1265 C1269 1.279 . S
C1266 C1264 1.348 . S
C1266 C1268 1.353 . S
C1266 H1308 0.929 . S
C1267 C1264 1.356 . S
C1267 C1269 1.358 . S
C1267 H1309 0.930 . S
C1268 N1265 1.314 . S
C1268 C1266 1.353 . S
C1268 H1310 0.930 . S
C1269 N1265 1.279 . S
C1269 C1267 1.358 . S
C1269 H1311 0.930 . S
C1270 C1271 1.348 . S
C1270 C1272 1.356 . S
C1270 O1295 1.325 1_455 S
C1271 C1270 1.348 . S
C1271 C1273 1.353 . S
C1271 H1312 0.929 . S
C1272 C1270 1.356 . S
C1272 C1274 1.358 . S
C1272 H1313 0.930 . S
C1273 C1271 1.353 . S
C1273 N1275 1.314 . S
C1273 H1314 0.930 . S
C1274 C1272 1.358 . S
C1274 N1275 1.279 . S
C1274 H1315 0.930 . S
N1275 C1273 1.314 . S
N1275 C1274 1.279 . S
C1276 C1278 1.353 . S
C1276 N1279 1.314 . S
C1276 H1282 0.930 . S
C1277 N1279 1.279 . S
C1277 C1280 1.358 . S
C1277 H1283 0.930 . S
C1278 C1276 1.353 . S
C1278 C1281 1.348 . S
C1278 H1316 0.929 . S
N1279 Li1234 1.990 . S
N1279 C1276 1.314 . S
N1279 C1277 1.279 . S
C1280 C1277 1.358 . S
C1280 C1281 1.356 . S
C1280 H1317 0.930 . S
C1281 C1278 1.348 . S
C1281 C1280 1.356 . S
H1282 C1276 0.930 . S
H1283 C1277 0.930 . S
C1284 N1285 1.314 . S
C1284 C1286 1.353 . S
C1284 H1290 0.930 . S
N1285 Li1235 1.990 . S
N1285 C1284 1.314 . S
N1285 C1288 1.279 1_655 S
C1286 C1284 1.353 . S
C1286 C1289 1.348 1_655 S
C1286 H1318 0.929 . S
C1287 C1288 1.358 . S
C1287 C1289 1.356 . S
C1287 H1319 0.930 . S
C1288 N1285 1.279 1_455 S
C1288 C1287 1.358 . S
C1288 H1291 0.930 . S
C1289 C1286 1.348 1_455 S
C1289 C1287 1.356 . S
H1290 C1284 0.930 . S
H1291 C1288 0.930 . S
O1292 Li1232 1.956 . S
O1292 Li1233 1.970 . S
O1292 Li1234 1.961 . S
O1292 C1236 1.325 . S
O1293 Li1232 1.970 . S
O1293 Li1233 1.956 . S
O1293 Li1235 1.961 . S
O1293 C1242 1.325 . S
O1294 Li1232 1.961 . S
O1294 Li1234 1.956 . S
O1294 Li1235 1.970 . S
O1294 C1264 1.325 . S
O1295 Li1233 1.961 . S
O1295 Li1234 1.970 . S
O1295 Li1235 1.956 . S
O1295 C1270 1.325 1_655 S
H1296 C1238 0.929 . S
H1297 C1239 0.930 . S
H1298 C1240 0.930 . S
H1299 C1241 0.930 . S
H1300 C1243 0.930 . S
H1301 C1245 0.929 . S
H1302 C1246 0.930 . S
H1303 C1247 0.930 . S
H1304 C1250 0.930 . S
H1305 C1253 0.929 . S
H1306 C1258 0.929 . S
H1307 C1259 0.930 . S
H1308 C1266 0.929 . S
H1309 C1267 0.930 . S
H1310 C1268 0.930 . S
H1311 C1269 0.930 . S
H1312 C1271 0.929 . S
H1313 C1272 0.930 . S
H1314 C1273 0.930 . S
H1315 C1274 0.930 . S
H1316 C1278 0.929 . S
H1317 C1280 0.930 . S
H1318 C1286 0.929 . S
H1319 C1287 0.930 . S
Li1320 N1337 1.990 . S
Li1320 O1380 1.956 . S
Li1320 O1381 1.970 . S
Li1320 O1382 1.961 . S
Li1321 N1345 1.990 . S
Li1321 O1380 1.970 . S
Li1321 O1381 1.956 . S
Li1321 O1383 1.961 . S
Li1322 N1367 1.990 . S
Li1322 O1380 1.961 . S
Li1322 O1382 1.956 . S
Li1322 O1383 1.970 . S
Li1323 N1373 1.990 . S
Li1323 O1381 1.961 . S
Li1323 O1382 1.970 . S
Li1323 O1383 1.956 . S
C1324 C1326 1.348 . S
C1324 C1327 1.356 . S
C1324 O1380 1.325 . S
N1325 C1328 1.314 . S
N1325 C1329 1.279 . S
C1326 C1324 1.348 . S
C1326 C1328 1.353 . S
C1326 H1384 0.929 . S
C1327 C1324 1.356 . S
C1327 C1329 1.358 . S
C1327 H1385 0.930 . S
C1328 N1325 1.314 . S
C1328 C1326 1.353 . S
C1328 H1386 0.930 . S
C1329 N1325 1.279 . S
C1329 C1327 1.358 . S
C1329 H1387 0.930 . S
C1330 C1333 1.348 . S
C1330 C1334 1.356 . S
C1330 O1381 1.325 . S
C1331 N1332 1.279 . S
C1331 C1334 1.358 . S
C1331 H1388 0.930 . S
N1332 C1331 1.279 . S
N1332 C1335 1.314 . S
C1333 C1330 1.348 . S
C1333 C1335 1.353 . S
C1333 H1389 0.929 . S
C1334 C1330 1.356 . S
C1334 C1331 1.358 . S
C1334 H1390 0.930 . S
C1335 N1332 1.314 . S
C1335 C1333 1.353 . S
C1335 H1391 0.930 . S
C1336 N1337 1.314 . S
C1336 C1341 1.353 . S
C1336 H1342 0.930 . S
N1337 Li1320 1.990 . S
N1337 C1336 1.314 . S
N1337 C1339 1.279 . S
C1338 C1339 1.358 . S
C1338 C1340 1.356 . S
C1338 H1392 0.930 . S
C1339 N1337 1.279 . S
C1339 C1338 1.358 . S
C1339 H1343 0.930 . S
C1340 C1338 1.356 . S
C1340 C1341 1.348 . S
C1341 C1336 1.353 . S
C1341 C1340 1.348 . S
C1341 H1393 0.929 . S
H1342 C1336 0.930 . S
H1343 C1339 0.930 . S
C1344 N1345 1.314 . S
C1344 C1346 1.353 . S
C1344 H1350 0.930 . S
N1345 Li1321 1.990 . S
N1345 C1344 1.314 . S
N1345 C1348 1.279 . S
C1346 C1344 1.353 . S
C1346 C1349 1.348 . S
C1346 H1394 0.929 . S
C1347 C1348 1.358 . S
C1347 C1349 1.356 . S
C1347 H1395 0.930 . S
C1348 N1345 1.279 . S
C1348 C1347 1.358 . S
C1348 H1351 0.930 . S
C1349 C1346 1.348 . S
C1349 C1347 1.356 . S
H1350 C1344 0.930 . S
H1351 C1348 0.930 . S
C1352 C1354 1.348 . S
C1352 C1355 1.356 . S
C1352 O1382 1.325 . S
N1353 C1356 1.314 . S
N1353 C1357 1.279 . S
C1354 C1352 1.348 . S
C1354 C1356 1.353 . S
C1354 H1396 0.929 . S
C1355 C1352 1.356 . S
C1355 C1357 1.358 . S
C1355 H1397 0.930 . S
C1356 N1353 1.314 . S
C1356 C1354 1.353 . S
C1356 H1398 0.930 . S
C1357 N1353 1.279 . S
C1357 C1355 1.358 . S
C1357 H1399 0.930 . S
C1358 C1359 1.348 . S
C1358 C1360 1.356 . S
C1358 O1383 1.325 . S
C1359 C1358 1.348 . S
C1359 C1361 1.353 . S
C1359 H1400 0.929 . S
C1360 C1358 1.356 . S
C1360 C1362 1.358 . S
C1360 H1401 0.930 . S
C1361 C1359 1.353 . S
C1361 N1363 1.314 . S
C1361 H1402 0.930 . S
C1362 C1360 1.358 . S
C1362 N1363 1.279 . S
C1362 H1403 0.930 . S
N1363 C1361 1.314 . S
N1363 C1362 1.279 . S
C1364 C1366 1.353 . S
C1364 N1367 1.314 . S
C1364 H1370 0.930 . S
C1365 N1367 1.279 . S
C1365 C1368 1.358 . S
C1365 H1371 0.930 . S
C1366 C1364 1.353 . S
C1366 C1369 1.348 . S
C1366 H1404 0.929 . S
N1367 Li1322 1.990 . S
N1367 C1364 1.314 . S
N1367 C1365 1.279 . S
C1368 C1365 1.358 . S
C1368 C1369 1.356 . S
C1368 H1405 0.930 . S
C1369 C1366 1.348 . S
C1369 C1368 1.356 . S
H1370 C1364 0.930 . S
H1371 C1365 0.930 . S
C1372 N1373 1.314 . S
C1372 C1374 1.353 . S
C1372 H1378 0.930 . S
N1373 Li1323 1.990 . S
N1373 C1372 1.314 . S
N1373 C1376 1.279 . S
C1374 C1372 1.353 . S
C1374 C1377 1.348 . S
C1374 H1406 0.929 . S
C1375 C1376 1.358 . S
C1375 C1377 1.356 . S
C1375 H1407 0.930 . S
C1376 N1373 1.279 . S
C1376 C1375 1.358 . S
C1376 H1379 0.930 . S
C1377 C1374 1.348 . S
C1377 C1375 1.356 . S
H1378 C1372 0.930 . S
H1379 C1376 0.930 . S
O1380 Li1320 1.956 . S
O1380 Li1321 1.970 . S
O1380 Li1322 1.961 . S
O1380 C1324 1.325 . S
O1381 Li1320 1.970 . S
O1381 Li1321 1.956 . S
O1381 Li1323 1.961 . S
O1381 C1330 1.325 . S
O1382 Li1320 1.961 . S
O1382 Li1322 1.956 . S
O1382 Li1323 1.970 . S
O1382 C1352 1.325 . S
O1383 Li1321 1.961 . S
O1383 Li1322 1.970 . S
O1383 Li1323 1.956 . S
O1383 C1358 1.325 . S
H1384 C1326 0.929 . S
H1385 C1327 0.930 . S
H1386 C1328 0.930 . S
H1387 C1329 0.930 . S
H1388 C1331 0.930 . S
H1389 C1333 0.929 . S
H1390 C1334 0.930 . S
H1391 C1335 0.930 . S
H1392 C1338 0.930 . S
H1393 C1341 0.929 . S
H1394 C1346 0.929 . S
H1395 C1347 0.930 . S
H1396 C1354 0.929 . S
H1397 C1355 0.930 . S
H1398 C1356 0.930 . S
H1399 C1357 0.930 . S
H1400 C1359 0.929 . S
H1401 C1360 0.930 . S
H1402 C1361 0.930 . S
H1403 C1362 0.930 . S
H1404 C1366 0.929 . S
H1405 C1368 0.930 . S
H1406 C1374 0.929 . S
H1407 C1375 0.930 . S
C1408 C1409 1.369 1_545 S
C1408 C1410 1.419 . S
C1408 H1412 0.930 . S
C1409 C1408 1.369 1_565 S
C1409 C1418 1.429 . S
C1410 C1408 1.419 . S
C1410 C1411 1.363 . S
C1410 H1413 0.929 . S
C1411 C1410 1.363 . S
C1411 C1417 1.428 1_545 S
H1412 C1408 0.930 . S
H1413 C1410 0.929 . S
S1414 N1415 1.613 . S
S1414 N1416 1.610 . S
N1415 S1414 1.613 . S
N1415 C1418 1.350 . S
N1416 S1414 1.610 . S
N1416 C1417 1.351 . S
C1417 C1411 1.428 1_565 S
C1417 N1416 1.351 . S
C1417 C1418 1.434 . S
C1418 C1409 1.429 . S
C1418 N1415 1.350 . S
C1418 C1417 1.434 . S
C1419 C1420 1.369 1_545 S
C1419 C1421 1.419 . S
C1419 H1423 0.930 . S
C1420 C1419 1.369 1_565 S
C1420 C1429 1.429 . S
C1421 C1419 1.419 . S
C1421 C1422 1.363 . S
C1421 H1424 0.929 . S
C1422 C1421 1.363 . S
C1422 C1428 1.428 1_545 S
H1423 C1419 0.930 . S
H1424 C1421 0.929 . S
S1425 N1426 1.613 . S
S1425 N1427 1.610 . S
N1426 S1425 1.613 . S
N1426 C1429 1.350 . S
N1427 S1425 1.610 . S
N1427 C1428 1.351 . S
C1428 C1422 1.428 1_565 S
C1428 N1427 1.351 . S
C1428 C1429 1.434 . S
C1429 C1420 1.429 . S
C1429 N1426 1.350 . S
C1429 C1428 1.434 . S
C1430 C1431 1.369 . S
C1430 C1432 1.419 . S
C1430 H1434 0.930 . S
C1431 C1430 1.369 . S
C1431 C1440 1.429 1_565 S
C1432 C1430 1.419 . S
C1432 C1433 1.363 1_565 S
C1432 H1435 0.929 . S
C1433 C1432 1.363 1_545 S
C1433 C1439 1.428 . S
H1434 C1430 0.930 . S
H1435 C1432 0.929 . S
S1436 N1437 1.613 . S
S1436 N1438 1.610 . S
N1437 S1436 1.613 . S
N1437 C1440 1.350 . S
N1438 S1436 1.610 . S
N1438 C1439 1.351 . S
C1439 C1433 1.428 . S
C1439 N1438 1.351 . S
C1439 C1440 1.434 . S
C1440 C1431 1.429 1_545 S
C1440 N1437 1.350 . S
C1440 C1439 1.434 . S
C1441 C1442 1.369 . S
C1441 C1443 1.419 1_565 S
C1441 H1445 0.930 . S
C1442 C1441 1.369 . S
C1442 C1451 1.429 . S
C1443 C1441 1.419 1_545 S
C1443 C1444 1.363 . S
C1443 H1446 0.929 . S
C1444 C1443 1.363 . S
C1444 C1450 1.428 . S
H1445 C1441 0.930 . S
H1446 C1443 0.929 . S
S1447 N1448 1.613 1_545 S
S1447 N1449 1.610 . S
N1448 S1447 1.613 1_565 S
N1448 C1451 1.350 . S
N1449 S1447 1.610 . S
N1449 C1450 1.351 . S
C1450 C1444 1.428 . S
C1450 N1449 1.351 . S
C1450 C1451 1.434 1_545 S
C1451 C1442 1.429 . S
C1451 N1448 1.350 . S
C1451 C1450 1.434 1_565 S
C1452 C1453 1.369 . S
C1452 C1454 1.419 . S
C1452 H1456 0.930 . S
C1453 C1452 1.369 . S
C1453 C1462 1.429 . S
C1454 C1452 1.419 . S
C1454 C1455 1.363 . S
C1454 H1457 0.929 . S
C1455 C1454 1.363 . S
C1455 C1461 1.428 . S
H1456 C1452 0.930 . S
H1457 C1454 0.929 . S
S1458 N1459 1.613 . S
S1458 N1460 1.610 . S
N1459 S1458 1.613 . S
N1459 C1462 1.350 . S
N1460 S1458 1.610 . S
N1460 C1461 1.351 . S
C1461 C1455 1.428 . S
C1461 N1460 1.351 . S
C1461 C1462 1.434 . S
C1462 C1453 1.429 . S
C1462 N1459 1.350 . S
C1462 C1461 1.434 . S
C1463 C1464 1.369 . S
C1463 C1465 1.419 . S
C1463 H1467 0.930 . S
C1464 C1463 1.369 . S
C1464 C1473 1.429 . S
C1465 C1463 1.419 . S
C1465 C1466 1.363 . S
C1465 H1468 0.929 . S
C1466 C1465 1.363 . S
C1466 C1472 1.428 . S
H1467 C1463 0.930 . S
H1468 C1465 0.929 . S
S1469 N1470 1.613 . S
S1469 N1471 1.610 . S
N1470 S1469 1.613 . S
N1470 C1473 1.350 . S
N1471 S1469 1.610 . S
N1471 C1472 1.351 . S
C1472 C1466 1.428 . S
C1472 N1471 1.351 . S
C1472 C1473 1.434 . S
C1473 C1464 1.429 . S
C1473 N1470 1.350 . S
C1473 C1472 1.434 . S
C1474 C1475 1.369 . S
C1474 C1476 1.419 . S
C1474 H1478 0.930 . S
C1475 C1474 1.369 . S
C1475 C1484 1.429 . S
C1476 C1474 1.419 . S
C1476 C1477 1.363 . S
C1476 H1479 0.929 . S
C1477 C1476 1.363 . S
C1477 C1483 1.428 . S
H1478 C1474 0.930 . S
H1479 C1476 0.929 . S
S1480 N1481 1.613 . S
S1480 N1482 1.610 . S
N1481 S1480 1.613 . S
N1481 C1484 1.350 . S
N1482 S1480 1.610 . S
N1482 C1483 1.351 . S
C1483 C1477 1.428 . S
C1483 N1482 1.351 . S
C1483 C1484 1.434 . S
C1484 C1475 1.429 . S
C1484 N1481 1.350 . S
C1484 C1483 1.434 . S
C1485 C1486 1.369 . S
C1485 C1487 1.419 . S
C1485 H1489 0.930 . S
C1486 C1485 1.369 . S
C1486 C1495 1.429 . S
C1487 C1485 1.419 . S
C1487 C1488 1.363 . S
C1487 H1490 0.929 . S
C1488 C1487 1.363 . S
C1488 C1494 1.428 . S
H1489 C1485 0.930 . S
H1490 C1487 0.929 . S
S1491 N1492 1.613 . S
S1491 N1493 1.610 . S
N1492 S1491 1.613 . S
N1492 C1495 1.350 . S
N1493 S1491 1.610 . S
N1493 C1494 1.351 . S
C1494 C1488 1.428 . S
C1494 N1493 1.351 . S
C1494 C1495 1.434 . S
C1495 C1486 1.429 . S
C1495 N1492 1.350 . S
C1495 C1494 1.434 . S
C1496 C1497 1.371 1_565 S
C1496 C1498 1.416 1_455 S
C1496 H1500 0.931 . S
C1497 C1496 1.371 1_545 S
C1497 C1506 1.429 . S
C1498 C1496 1.416 1_655 S
C1498 C1499 1.363 1_565 S
C1498 H1501 0.929 . S
C1499 C1498 1.363 1_545 S
C1499 C1505 1.428 . S
H1500 C1496 0.931 . S
H1501 C1498 0.929 . S
S1502 N1503 1.613 1_655 S
S1502 N1504 1.610 . S
N1503 S1502 1.613 1_455 S
N1503 C1506 1.350 . S
N1504 S1502 1.610 . S
N1504 C1505 1.351 . S
C1505 C1499 1.428 . S
C1505 N1504 1.351 . S
C1505 C1506 1.434 1_655 S
C1506 C1497 1.429 . S
C1506 N1503 1.350 . S
C1506 C1505 1.434 1_455 S
C1507 C1508 1.369 . S
C1507 C1509 1.419 . S
C1507 H1511 0.930 . S
C1508 C1507 1.369 . S
C1508 C1517 1.429 1_565 S
C1509 C1507 1.419 . S
C1509 C1510 1.363 . S
C1509 H1512 0.929 . S
C1510 C1509 1.363 . S
C1510 C1516 1.428 1_565 S
H1511 C1507 0.930 . S
H1512 C1509 0.929 . S
S1513 N1514 1.613 . S
S1513 N1515 1.610 . S
N1514 S1513 1.613 . S
N1514 C1517 1.350 . S
N1515 S1513 1.610 . S
N1515 C1516 1.351 . S
C1516 C1510 1.428 1_545 S
C1516 N1515 1.351 . S
C1516 C1517 1.434 . S
C1517 C1508 1.429 1_545 S
C1517 N1514 1.350 . S
C1517 C1516 1.434 . S
C1518 C1519 1.369 1_455 S
C1518 C1520 1.419 . S
C1518 H1522 0.930 . S
C1519 C1518 1.369 1_655 S
C1519 C1528 1.429 1_565 S
C1520 C1518 1.419 . S
C1520 C1521 1.363 . S
C1520 H1523 0.929 . S
C1521 C1520 1.363 . S
C1521 C1527 1.428 1_465 S
H1522 C1518 0.930 . S
H1523 C1520 0.929 . S
S1524 N1525 1.613 . S
S1524 N1526 1.610 . S
N1525 S1524 1.613 . S
N1525 C1528 1.350 . S
N1526 S1524 1.610 . S
N1526 C1527 1.351 . S
C1527 C1521 1.428 1_645 S
C1527 N1526 1.351 . S
C1527 C1528 1.434 . S
C1528 C1519 1.429 1_545 S
C1528 N1525 1.350 . S
C1528 C1527 1.434 . S
C1529 C1530 1.369 . S
C1529 C1531 1.419 . S
C1529 H1533 0.930 . S
C1530 C1529 1.369 . S
C1530 C1539 1.433 . S
C1531 C1529 1.419 . S
C1531 C1532 1.363 . S
C1531 H1534 0.929 . S
C1532 C1531 1.363 . S
C1532 C1538 1.432 . S
H1533 C1529 0.930 . S
H1534 C1531 0.929 . S
S1535 N1536 1.613 . S
S1535 N1537 1.610 . S
N1536 S1535 1.613 . S
N1536 C1539 1.347 1_565 S
N1537 S1535 1.610 . S
N1537 C1538 1.349 1_565 S
C1538 C1532 1.432 . S
C1538 N1537 1.349 1_545 S
C1538 C1539 1.434 . S
C1539 C1530 1.433 . S
C1539 N1536 1.347 1_545 S
C1539 C1538 1.434 . S
C1540 C1541 1.369 . S
C1540 C1542 1.419 . S
C1540 H1544 0.930 . S
C1541 C1540 1.369 . S
C1541 C1550 1.429 . S
C1542 C1540 1.419 . S
C1542 C1543 1.363 . S
C1542 H1545 0.929 . S
C1543 C1542 1.363 . S
C1543 C1549 1.428 . S
H1544 C1540 0.930 . S
H1545 C1542 0.929 . S
S1546 N1547 1.613 . S
S1546 N1548 1.610 . S
N1547 S1546 1.613 . S
N1547 C1550 1.350 . S
N1548 S1546 1.610 . S
N1548 C1549 1.351 . S
C1549 C1543 1.428 . S
C1549 N1548 1.351 . S
C1549 C1550 1.434 . S
C1550 C1541 1.429 . S
C1550 N1547 1.350 . S
C1550 C1549 1.434 . S
C1551 C1552 1.369 . S
C1551 C1553 1.419 . S
C1551 H1555 0.930 . S
C1552 C1551 1.369 . S
C1552 C1561 1.429 1_655 S
C1553 C1551 1.419 . S
C1553 C1554 1.363 1_655 S
C1553 H1556 0.929 . S
C1554 C1553 1.363 1_455 S
C1554 C1560 1.428 . S
H1555 C1551 0.930 . S
H1556 C1553 0.929 . S
S1557 N1558 1.613 . S
S1557 N1559 1.610 . S
N1558 S1557 1.613 . S
N1558 C1561 1.350 . S
N1559 S1557 1.610 . S
N1559 C1560 1.351 . S
C1560 C1554 1.428 . S
C1560 N1559 1.351 . S
C1560 C1561 1.434 . S
C1561 C1552 1.429 1_455 S
C1561 N1558 1.350 . S
C1561 C1560 1.434 . S
C1562 C1563 1.369 . S
C1562 C1564 1.419 . S
C1562 H1566 0.930 . S
C1563 C1562 1.369 . S
C1563 C1572 1.429 . S
C1564 C1562 1.419 . S
C1564 C1565 1.363 . S
C1564 H1567 0.929 . S
C1565 C1564 1.363 . S
C1565 C1571 1.428 . S
H1566 C1562 0.930 . S
H1567 C1564 0.929 . S
S1568 N1569 1.613 . S
S1568 N1570 1.610 . S
N1569 S1568 1.613 . S
N1569 C1572 1.350 . S
N1570 S1568 1.610 . S
N1570 C1571 1.351 . S
C1571 C1565 1.428 . S
C1571 N1570 1.351 . S
C1571 C1572 1.434 . S
C1572 C1563 1.429 . S
C1572 N1569 1.350 . S
C1572 C1571 1.434 . S
C1573 C1574 1.369 . S
C1573 C1575 1.419 . S
C1573 H1577 0.930 . S
C1574 C1573 1.369 . S
C1574 C1583 1.429 1_655 S
C1575 C1573 1.419 . S
C1575 C1576 1.363 1_655 S
C1575 H1578 0.929 . S
C1576 C1575 1.363 1_455 S
C1576 C1582 1.428 . S
H1577 C1573 0.930 . S
H1578 C1575 0.929 . S
S1579 N1580 1.613 . S
S1579 N1581 1.610 . S
N1580 S1579 1.613 . S
N1580 C1583 1.350 . S
N1581 S1579 1.610 . S
N1581 C1582 1.351 . S
C1582 C1576 1.428 . S
C1582 N1581 1.351 . S
C1582 C1583 1.434 . S
C1583 C1574 1.429 1_455 S
C1583 N1580 1.350 . S
C1583 C1582 1.434 . S
C1584 C1585 1.369 . S
C1584 C1586 1.419 1_455 S
C1584 H1588 0.930 . S
C1585 C1584 1.369 . S
C1585 C1594 1.429 . S
C1586 C1584 1.419 1_655 S
C1586 C1587 1.363 . S
C1586 H1589 0.929 . S
C1587 C1586 1.363 . S
C1587 C1593 1.428 . S
H1588 C1584 0.930 . S
H1589 C1586 0.929 . S
S1590 N1591 1.613 1_655 S
S1590 N1592 1.610 . S
N1591 S1590 1.613 1_455 S
N1591 C1594 1.350 . S
N1592 S1590 1.610 . S
N1592 C1593 1.351 . S
C1593 C1587 1.428 . S
C1593 N1592 1.351 . S
C1593 C1594 1.434 1_655 S
C1594 C1585 1.429 . S
C1594 N1591 1.350 . S
C1594 C1593 1.434 1_455 S
C1595 C1596 1.369 . S
C1595 C1597 1.419 . S
C1595 H1599 0.930 . S
C1596 C1595 1.369 . S
C1596 C1605 1.429 . S
C1597 C1595 1.419 . S
C1597 C1598 1.363 . S
C1597 H1600 0.929 . S
C1598 C1597 1.363 . S
C1598 C1604 1.428 . S
H1599 C1595 0.930 . S
H1600 C1597 0.929 . S
S1601 N1602 1.613 . S
S1601 N1603 1.610 . S
N1602 S1601 1.613 . S
N1602 C1605 1.350 . S
N1603 S1601 1.610 . S
N1603 C1604 1.351 . S
C1604 C1598 1.428 . S
C1604 N1603 1.351 . S
C1604 C1605 1.434 . S
C1605 C1596 1.429 . S
C1605 N1602 1.350 . S
C1605 C1604 1.434 . S
C1606 C1607 1.369 . S
C1606 C1608 1.419 . S
C1606 H1610 0.930 . S
C1607 C1606 1.369 . S
C1607 C1616 1.429 . S
C1608 C1606 1.419 . S
C1608 C1609 1.363 . S
C1608 H1611 0.929 . S
C1609 C1608 1.363 . S
C1609 C1615 1.428 . S
H1610 C1606 0.930 . S
H1611 C1608 0.929 . S
S1612 N1613 1.613 . S
S1612 N1614 1.610 . S
N1613 S1612 1.613 . S
N1613 C1616 1.350 . S
N1614 S1612 1.610 . S
N1614 C1615 1.351 . S
C1615 C1609 1.428 . S
C1615 N1614 1.351 . S
C1615 C1616 1.434 . S
C1616 C1607 1.429 . S
C1616 N1613 1.350 . S
C1616 C1615 1.434 . S
C1617 C1618 1.369 . S
C1617 C1619 1.419 1_455 S
C1617 H1621 0.930 . S
C1618 C1617 1.369 . S
C1618 C1627 1.429 . S
C1619 C1617 1.419 1_655 S
C1619 C1620 1.363 . S
C1619 H1622 0.929 . S
C1620 C1619 1.363 . S
C1620 C1626 1.428 . S
H1621 C1617 0.930 . S
H1622 C1619 0.929 . S
S1623 N1624 1.613 . S
S1623 N1625 1.610 1_455 S
N1624 S1623 1.613 . S
N1624 C1627 1.350 . S
N1625 S1623 1.610 1_655 S
N1625 C1626 1.351 . S
C1626 C1620 1.428 . S
C1626 N1625 1.351 . S
C1626 C1627 1.434 1_655 S
C1627 C1618 1.429 . S
C1627 N1624 1.350 . S
C1627 C1626 1.434 1_455 S
C1628 C1629 1.369 . S
C1628 C1630 1.419 . S
C1628 H1632 0.930 . S
C1629 C1628 1.369 . S
C1629 C1638 1.429 1_455 S
C1630 C1628 1.419 . S
C1630 C1631 1.363 1_455 S
C1630 H1633 0.929 . S
C1631 C1630 1.363 1_655 S
C1631 C1637 1.428 . S
H1632 C1628 0.930 . S
H1633 C1630 0.929 . S
S1634 N1635 1.613 . S
S1634 N1636 1.610 . S
N1635 S1634 1.613 . S
N1635 C1638 1.350 . S
N1636 S1634 1.610 . S
N1636 C1637 1.351 . S
C1637 C1631 1.428 . S
C1637 N1636 1.351 . S
C1637 C1638 1.434 . S
C1638 C1629 1.429 1_655 S
C1638 N1635 1.350 . S
C1638 C1637 1.434 . S
C1639 C1640 1.369 . S
C1639 C1641 1.419 . S
C1639 H1643 0.930 . S
C1640 C1639 1.369 . S
C1640 C1649 1.429 . S
C1641 C1639 1.419 . S
C1641 C1642 1.363 . S
C1641 H1644 0.929 . S
C1642 C1641 1.363 . S
C1642 C1648 1.428 . S
H1643 C1639 0.930 . S
H1644 C1641 0.929 . S
S1645 N1646 1.613 . S
S1645 N1647 1.610 . S
N1646 S1645 1.613 . S
N1646 C1649 1.350 . S
N1647 S1645 1.610 . S
N1647 C1648 1.351 . S
C1648 C1642 1.428 . S
C1648 N1647 1.351 . S
C1648 C1649 1.434 . S
C1649 C1640 1.429 . S
C1649 N1646 1.350 . S
C1649 C1648 1.434 . S
C1650 C1651 1.369 . S
C1650 C1652 1.419 . S
C1650 H1654 0.930 . S
C1651 C1650 1.369 . S
C1651 C1660 1.429 . S
C1652 C1650 1.419 . S
C1652 C1653 1.363 . S
C1652 H1655 0.929 . S
C1653 C1652 1.363 . S
C1653 C1659 1.428 . S
H1654 C1650 0.930 . S
H1655 C1652 0.929 . S
S1656 N1657 1.613 . S
S1656 N1658 1.610 . S
N1657 S1656 1.613 . S
N1657 C1660 1.350 . S
N1658 S1656 1.610 . S
N1658 C1659 1.351 . S
C1659 C1653 1.428 . S
C1659 N1658 1.351 . S
C1659 C1660 1.434 . S
C1660 C1651 1.429 . S
C1660 N1657 1.350 . S
C1660 C1659 1.434 . S
C1661 C1662 1.369 . S
C1661 C1663 1.419 1_455 S
C1661 H1665 0.930 . S
C1662 C1661 1.369 . S
C1662 C1671 1.429 . S
C1663 C1661 1.419 1_655 S
C1663 C1664 1.363 . S
C1663 H1666 0.929 . S
C1664 C1663 1.363 . S
C1664 C1670 1.428 . S
H1665 C1661 0.930 . S
H1666 C1663 0.929 . S
S1667 N1668 1.613 1_655 S
S1667 N1669 1.610 . S
N1668 S1667 1.613 1_455 S
N1668 C1671 1.350 . S
N1669 S1667 1.610 . S
N1669 C1670 1.351 . S
C1670 C1664 1.428 . S
C1670 N1669 1.351 . S
C1670 C1671 1.434 1_655 S
C1671 C1662 1.429 . S
C1671 N1668 1.350 . S
C1671 C1670 1.434 1_455 S
C1672 C1673 1.369 1_655 S
C1672 C1674 1.419 1_546 S
C1672 H1676 0.930 . S
C1673 C1672 1.369 1_455 S
C1673 C1682 1.435 . S
C1674 C1672 1.419 1_564 S
C1674 C1675 1.363 . S
C1674 H1677 0.929 . S
C1675 C1674 1.363 . S
C1675 C1681 1.428 1_655 S
H1676 C1672 0.930 . S
H1677 C1674 0.929 . S
S1678 N1679 1.613 1_554 S
S1678 N1680 1.610 . S
N1679 S1678 1.613 1_556 S
N1679 C1682 1.349 1_565 S
N1680 S1678 1.610 . S
N1680 C1681 1.351 . S
C1681 C1675 1.428 1_455 S
C1681 N1680 1.351 . S
C1681 C1682 1.428 1_564 S
C1682 C1673 1.435 . S
C1682 N1679 1.349 1_545 S
C1682 C1681 1.428 1_546 S
C1683 C1684 1.369 . S
C1683 C1685 1.419 1_556 S
C1683 H1687 0.930 . S
C1684 C1683 1.369 . S
C1684 C1693 1.429 1_565 S
C1685 C1683 1.419 1_554 S
C1685 C1686 1.363 1_565 S
C1685 H1688 0.929 . S
C1686 C1685 1.363 1_545 S
C1686 C1692 1.428 . S
H1687 C1683 0.930 . S
H1688 C1685 0.929 . S
S1689 N1690 1.613 1_554 S
S1689 N1691 1.610 . S
N1690 S1689 1.613 1_556 S
N1690 C1693 1.350 . S
N1691 S1689 1.610 . S
N1691 C1692 1.351 . S
C1692 C1686 1.428 . S
C1692 N1691 1.351 . S
C1692 C1693 1.434 1_554 S
C1693 C1684 1.429 1_545 S
C1693 N1690 1.350 . S
C1693 C1692 1.434 1_556 S
C1694 C1695 1.369 . S
C1694 C1696 1.419 . S
C1694 H1698 0.930 . S
C1695 C1694 1.369 . S
C1695 C1704 1.429 1_565 S
C1696 C1694 1.419 . S
C1696 C1697 1.363 1_565 S
C1696 H1699 0.929 . S
C1697 C1696 1.363 1_545 S
C1697 C1703 1.428 . S
H1698 C1694 0.930 . S
H1699 C1696 0.929 . S
S1700 N1701 1.613 . S
S1700 N1702 1.610 . S
N1701 S1700 1.613 . S
N1701 C1704 1.350 . S
N1702 S1700 1.610 . S
N1702 C1703 1.351 . S
C1703 C1697 1.428 . S
C1703 N1702 1.351 . S
C1703 C1704 1.434 . S
C1704 C1695 1.429 1_545 S
C1704 N1701 1.350 . S
C1704 C1703 1.434 . S
C1705 C1706 1.369 . S
C1705 C1707 1.419 . S
C1705 H1709 0.930 . S
C1706 C1705 1.369 . S
C1706 C1715 1.429 1_645 S
C1707 C1705 1.419 . S
C1707 C1708 1.363 1_645 S
C1707 H1710 0.929 . S
C1708 C1707 1.363 1_465 S
C1708 C1714 1.428 . S
H1709 C1705 0.930 . S
H1710 C1707 0.929 . S
S1711 N1712 1.613 . S
S1711 N1713 1.610 . S
N1712 S1711 1.613 . S
N1712 C1715 1.350 . S
N1713 S1711 1.610 . S
N1713 C1714 1.351 . S
C1714 C1708 1.428 . S
C1714 N1713 1.351 . S
C1714 C1715 1.434 . S
C1715 C1706 1.429 1_465 S
C1715 N1712 1.350 . S
C1715 C1714 1.434 . S
C1716 C1717 1.369 . S
C1716 C1718 1.419 1_554 S
C1716 H1720 0.930 . S
C1717 C1716 1.369 . S
C1717 C1726 1.429 . S
C1718 C1716 1.419 1_556 S
C1718 C1719 1.363 . S
C1718 H1721 0.929 . S
C1719 C1718 1.363 . S
C1719 C1725 1.428 . S
H1720 C1716 0.930 . S
H1721 C1718 0.929 . S
S1722 N1723 1.613 1_556 S
S1722 N1724 1.610 . S
N1723 S1722 1.613 1_554 S
N1723 C1726 1.350 . S
N1724 S1722 1.610 . S
N1724 C1725 1.351 . S
C1725 C1719 1.428 . S
C1725 N1724 1.351 . S
C1725 C1726 1.434 1_556 S
C1726 C1717 1.429 . S
C1726 N1723 1.350 . S
C1726 C1725 1.434 1_554 S
C1727 C1728 1.369 1_655 S
C1727 C1729 1.419 1_554 S
C1727 H1731 0.930 . S
C1728 C1727 1.369 1_455 S
C1728 C1737 1.429 . S
C1729 C1727 1.419 1_556 S
C1729 C1730 1.363 . S
C1729 H1732 0.929 . S
C1730 C1729 1.363 . S
C1730 C1736 1.428 1_655 S
H1731 C1727 0.930 . S
H1732 C1729 0.929 . S
S1733 N1734 1.613 . S
S1733 N1735 1.610 1_554 S
N1734 S1733 1.613 . S
N1734 C1737 1.350 . S
N1735 S1733 1.610 1_556 S
N1735 C1736 1.351 . S
C1736 C1730 1.428 1_455 S
C1736 N1735 1.351 . S
C1736 C1737 1.434 1_556 S
C1737 C1728 1.429 . S
C1737 N1734 1.350 . S
C1737 C1736 1.434 1_554 S
C1738 C1739 1.369 1_655 S
C1738 C1740 1.419 . S
C1738 H1742 0.930 . S
C1739 C1738 1.369 1_455 S
C1739 C1748 1.429 . S
C1740 C1738 1.419 . S
C1740 C1741 1.363 . S
C1740 H1743 0.929 . S
C1741 C1740 1.363 . S
C1741 C1747 1.428 1_655 S
H1742 C1738 0.930 . S
H1743 C1740 0.929 . S
S1744 N1745 1.613 . S
S1744 N1746 1.610 . S
N1745 S1744 1.613 . S
N1745 C1748 1.350 . S
N1746 S1744 1.610 . S
N1746 C1747 1.351 . S
C1747 C1741 1.428 1_455 S
C1747 N1746 1.351 . S
C1747 C1748 1.434 . S
C1748 C1739 1.429 . S
C1748 N1745 1.350 . S
C1748 C1747 1.434 . S
C1749 C1750 1.369 . S
C1749 C1751 1.419 . S
C1749 H1753 0.930 . S
C1750 C1749 1.369 . S
C1750 C1759 1.429 . S
C1751 C1749 1.419 . S
C1751 C1752 1.363 . S
C1751 H1754 0.929 . S
C1752 C1751 1.363 . S
C1752 C1758 1.428 . S
H1753 C1749 0.930 . S
H1754 C1751 0.929 . S
S1755 N1756 1.613 . S
S1755 N1757 1.610 . S
N1756 S1755 1.613 . S
N1756 C1759 1.350 . S
N1757 S1755 1.610 . S
N1757 C1758 1.351 . S
C1758 C1752 1.428 . S
C1758 N1757 1.351 . S
C1758 C1759 1.434 . S
C1759 C1750 1.429 . S
C1759 N1756 1.350 . S
C1759 C1758 1.434 . S
C1409 C137 1.532 . S
C1411 C29 1.529 . S
C1420 C196 1.531 . S
C1422 C293 1.530 . S
C1431 C401 1.524 . S
C1433 C489 1.526 . S
C1442 C645 1.524 . S
C1444 C548 1.525 . S
C1453 C841 1.532 . S
C1455 C753 1.529 . S
C1464 C997 1.532 . S
C1466 C909 1.529 . S
C1475 C1201 1.523 . S
C1477 C1113 1.526 . S
C1486 C1349 1.523 . S
C1488 C1252 1.526 . S
C1497 C313 1.313 1_455 S
C1499 C49 1.317 1_655 S
C1508 C117 1.321 . S
C1510 C233 1.320 . S
C1519 C636 1.322 1_655 S
C1521 C409 1.316 1_455 S
C1530 C557 1.312 . S
C1532 C497 1.320 . S
C1541 C733 1.319 . S
C1543 C1017 1.321 . S
C1552 C929 1.319 1_655 S
C1554 C821 1.321 1_455 S
C1563 C1340 1.322 . S
C1565 C1105 1.314 . S
C1574 C1193 1.311 1_655 S
C1576 C1261 1.320 1_455 S
C1585 C57 1.768 . S
C1587 C812 1.772 . S
C1596 C108 1.771 . S
C1598 C724 1.769 . S
C1607 C1025 1.767 . S
C1609 C225 1.772 . S
C1618 C937 1.769 . S
C1620 C321 1.770 . S
C1629 C1173 1.769 . S
C1631 C372 1.776 . S
C1640 C1085 1.770 . S
C1642 C460 1.774 . S
C1651 C577 1.773 . S
C1653 C1377 1.773 . S
C1662 C673 1.773 . S
C1664 C1281 1.772 . S
C1673 C381 1.524 . S
C1675 C20 1.525 . S
C1684 C469 1.523 . S
C1686 C145 1.526 . S
C1695 C585 1.521 . S
C1697 C205 1.528 . S
C1706 C665 1.518 . S
C1708 C284 1.531 . S
C1717 C761 1.532 . S
C1719 C1076 1.519 . S
C1728 C849 1.525 . S
C1730 C1164 1.525 . S
C1739 C1289 1.518 . S
C1741 C900 1.530 . S
C1750 C1369 1.527 . S
C1752 C988 1.524 . S
