# Generated by pormake.
# Topology ecv, (8)-cn, num edge types: 1
# Building blocks:
#     Node 0, Type 0, BuildingBlock: EBIMEJ_clean_sbu_0, # of connection points: 8
#     Node 1, Type 0, BuildingBlock: EBIMEJ_clean_sbu_0, # of connection points: 8
#     Node 2, Type 0, BuildingBlock: EBIMEJ_clean_sbu_0, # of connection points: 8
#     Node 3, Type 0, BuildingBlock: EBIMEJ_clean_sbu_0, # of connection points: 8
#     Node 4, Type 0, BuildingBlock: EBIMEJ_clean_sbu_0, # of connection points: 8
#     Node 5, Type 0, BuildingBlock: EBIMEJ_clean_sbu_0, # of connection points: 8
#     Node 6, Type 0, BuildingBlock: EBIMEJ_clean_sbu_0, # of connection points: 8
#     Node 7, Type 0, BuildingBlock: EBIMEJ_clean_sbu_0, # of connection points: 8
#     Node 8, Type 0, BuildingBlock: EBIMEJ_clean_sbu_0, # of connection points: 8
#     Node 9, Type 0, BuildingBlock: EBIMEJ_clean_sbu_0, # of connection points: 8
#     Node 10, Type 0, BuildingBlock: EBIMEJ_clean_sbu_0, # of connection points: 8
#     Node 11, Type 0, BuildingBlock: EBIMEJ_clean_sbu_0, # of connection points: 8
#     Node 12, Type 0, BuildingBlock: EBIMEJ_clean_sbu_0, # of connection points: 8
#     Node 13, Type 0, BuildingBlock: EBIMEJ_clean_sbu_0, # of connection points: 8
#     Node 14, Type 0, BuildingBlock: EBIMEJ_clean_sbu_0, # of connection points: 8
#     Node 15, Type 0, BuildingBlock: EBIMEJ_clean_sbu_0, # of connection points: 8
#     Edge 16, Type (0, 0), BuildingBlock: UVAHIK_clean_linker_0, # of connection points: 2
#     Edge 17, Type (0, 0), BuildingBlock: UVAHIK_clean_linker_0, # of connection points: 2
#     Edge 18, Type (0, 0), BuildingBlock: UVAHIK_clean_linker_0, # of connection points: 2
#     Edge 19, Type (0, 0), BuildingBlock: UVAHIK_clean_linker_0, # of connection points: 2
#     Edge 20, Type (0, 0), BuildingBlock: UVAHIK_clean_linker_0, # of connection points: 2
#     Edge 21, Type (0, 0), BuildingBlock: UVAHIK_clean_linker_0, # of connection points: 2
#     Edge 22, Type (0, 0), BuildingBlock: UVAHIK_clean_linker_0, # of connection points: 2
#     Edge 23, Type (0, 0), BuildingBlock: UVAHIK_clean_linker_0, # of connection points: 2
#     Edge 24, Type (0, 0), BuildingBlock: UVAHIK_clean_linker_0, # of connection points: 2
#     Edge 25, Type (0, 0), BuildingBlock: UVAHIK_clean_linker_0, # of connection points: 2
#     Edge 26, Type (0, 0), BuildingBlock: UVAHIK_clean_linker_0, # of connection points: 2
#     Edge 27, Type (0, 0), BuildingBlock: UVAHIK_clean_linker_0, # of connection points: 2
#     Edge 28, Type (0, 0), BuildingBlock: UVAHIK_clean_linker_0, # of connection points: 2
#     Edge 29, Type (0, 0), BuildingBlock: UVAHIK_clean_linker_0, # of connection points: 2
#     Edge 30, Type (0, 0), BuildingBlock: UVAHIK_clean_linker_0, # of connection points: 2
#     Edge 31, Type (0, 0), BuildingBlock: UVAHIK_clean_linker_0, # of connection points: 2
#     Edge 32, Type (0, 0), BuildingBlock: UVAHIK_clean_linker_0, # of connection points: 2
#     Edge 33, Type (0, 0), BuildingBlock: UVAHIK_clean_linker_0, # of connection points: 2
#     Edge 34, Type (0, 0), BuildingBlock: UVAHIK_clean_linker_0, # of connection points: 2
#     Edge 35, Type (0, 0), BuildingBlock: UVAHIK_clean_linker_0, # of connection points: 2
#     Edge 36, Type (0, 0), BuildingBlock: UVAHIK_clean_linker_0, # of connection points: 2
#     Edge 37, Type (0, 0), BuildingBlock: UVAHIK_clean_linker_0, # of connection points: 2
#     Edge 38, Type (0, 0), BuildingBlock: UVAHIK_clean_linker_0, # of connection points: 2
#     Edge 39, Type (0, 0), BuildingBlock: UVAHIK_clean_linker_0, # of connection points: 2
#     Edge 40, Type (0, 0), BuildingBlock: UVAHIK_clean_linker_0, # of connection points: 2
#     Edge 41, Type (0, 0), BuildingBlock: UVAHIK_clean_linker_0, # of connection points: 2
#     Edge 42, Type (0, 0), BuildingBlock: UVAHIK_clean_linker_0, # of connection points: 2
#     Edge 43, Type (0, 0), BuildingBlock: UVAHIK_clean_linker_0, # of connection points: 2
#     Edge 44, Type (0, 0), BuildingBlock: UVAHIK_clean_linker_0, # of connection points: 2
#     Edge 45, Type (0, 0), BuildingBlock: UVAHIK_clean_linker_0, # of connection points: 2
#     Edge 46, Type (0, 0), BuildingBlock: UVAHIK_clean_linker_0, # of connection points: 2
#     Edge 47, Type (0, 0), BuildingBlock: UVAHIK_clean_linker_0, # of connection points: 2
#     Edge 48, Type (0, 0), BuildingBlock: UVAHIK_clean_linker_0, # of connection points: 2
#     Edge 49, Type (0, 0), BuildingBlock: UVAHIK_clean_linker_0, # of connection points: 2
#     Edge 50, Type (0, 0), BuildingBlock: UVAHIK_clean_linker_0, # of connection points: 2
#     Edge 51, Type (0, 0), BuildingBlock: UVAHIK_clean_linker_0, # of connection points: 2
#     Edge 52, Type (0, 0), BuildingBlock: UVAHIK_clean_linker_0, # of connection points: 2
#     Edge 53, Type (0, 0), BuildingBlock: UVAHIK_clean_linker_0, # of connection points: 2
#     Edge 54, Type (0, 0), BuildingBlock: UVAHIK_clean_linker_0, # of connection points: 2
#     Edge 55, Type (0, 0), BuildingBlock: UVAHIK_clean_linker_0, # of connection points: 2
#     Edge 56, Type (0, 0), BuildingBlock: UVAHIK_clean_linker_0, # of connection points: 2
#     Edge 57, Type (0, 0), BuildingBlock: UVAHIK_clean_linker_0, # of connection points: 2
#     Edge 58, Type (0, 0), BuildingBlock: UVAHIK_clean_linker_0, # of connection points: 2
#     Edge 59, Type (0, 0), BuildingBlock: UVAHIK_clean_linker_0, # of connection points: 2
#     Edge 60, Type (0, 0), BuildingBlock: UVAHIK_clean_linker_0, # of connection points: 2
#     Edge 61, Type (0, 0), BuildingBlock: UVAHIK_clean_linker_0, # of connection points: 2
#     Edge 62, Type (0, 0), BuildingBlock: UVAHIK_clean_linker_0, # of connection points: 2
#     Edge 63, Type (0, 0), BuildingBlock: UVAHIK_clean_linker_0, # of connection points: 2
#     Edge 64, Type (0, 0), BuildingBlock: UVAHIK_clean_linker_0, # of connection points: 2
#     Edge 65, Type (0, 0), BuildingBlock: UVAHIK_clean_linker_0, # of connection points: 2
#     Edge 66, Type (0, 0), BuildingBlock: UVAHIK_clean_linker_0, # of connection points: 2
#     Edge 67, Type (0, 0), BuildingBlock: UVAHIK_clean_linker_0, # of connection points: 2
#     Edge 68, Type (0, 0), BuildingBlock: UVAHIK_clean_linker_0, # of connection points: 2
#     Edge 69, Type (0, 0), BuildingBlock: UVAHIK_clean_linker_0, # of connection points: 2
#     Edge 70, Type (0, 0), BuildingBlock: UVAHIK_clean_linker_0, # of connection points: 2
#     Edge 71, Type (0, 0), BuildingBlock: UVAHIK_clean_linker_0, # of connection points: 2
#     Edge 72, Type (0, 0), BuildingBlock: UVAHIK_clean_linker_0, # of connection points: 2
#     Edge 73, Type (0, 0), BuildingBlock: UVAHIK_clean_linker_0, # of connection points: 2
#     Edge 74, Type (0, 0), BuildingBlock: UVAHIK_clean_linker_0, # of connection points: 2
#     Edge 75, Type (0, 0), BuildingBlock: UVAHIK_clean_linker_0, # of connection points: 2
#     Edge 76, Type (0, 0), BuildingBlock: UVAHIK_clean_linker_0, # of connection points: 2
#     Edge 77, Type (0, 0), BuildingBlock: UVAHIK_clean_linker_0, # of connection points: 2
#     Edge 78, Type (0, 0), BuildingBlock: UVAHIK_clean_linker_0, # of connection points: 2
#     Edge 79, Type (0, 0), BuildingBlock: UVAHIK_clean_linker_0, # of connection points: 2
# Relax obj value: 0.076
# Max RMSD: 0.181
# Mean RMSD: 0.181
data_MOF--net-ecv--node1-EBIMEJ_clean_sbu_0--edge1-UVAHIK_clean_linker_0
_symmetry_space_group_name_H-M    P1
_symmetry_Int_Tables_number       1
_symmetry_cell_setting            triclinic
loop_
_symmetry_equiv_pos_as_xyz
'x, y, z'
_cell_length_a     19.926972
_cell_length_b     36.48962
_cell_length_c     169.72858
_cell_angle_alpha  100.62416
_cell_angle_beta   90.002406
_cell_angle_gamma 90.002904
loop_
_atom_site_label
_atom_site_type_symbol
_atom_site_fract_x
_atom_site_fract_y
_atom_site_fract_z
_atom_type_partial_charge
Co0 Co 0.17571 0.16251 0.43442 0.0
Co1 Co 0.08922 0.10304 0.44295 0.0
Co2 Co 0.17006 0.16282 0.45342 0.0
H3 H 0.17174 0.15218 0.44384 0.0
O4 O 0.17558 0.12845 0.44228 0.0
H5 H 0.0924 0.11153 0.45254 0.0
O6 O 0.08671 0.13506 0.45427 0.0
Co7 Co 0.09577 0.09924 0.46175 0.0
O8 O 0.01357 0.07051 0.45708 0.0
O9 O 0.00389 0.07724 0.44424 0.0
O10 O 0.13327 0.13936 0.47057 0.0
O11 O 0.16741 0.18741 0.46502 0.0
O12 O 0.22475 0.19545 0.4275 0.0
O13 O 0.21819 0.13848 0.42351 0.0
O14 O 0.17621 0.06982 0.45722 0.0
O15 O 0.14241 0.05701 0.44451 0.0
C16 C 0.27581 0.20407 0.44639 0.0
C17 C 0.08478 0.10171 0.42549 0.0
C18 C 0.06792 0.07457 0.47425 0.0
C19 C 0.08495 0.2143 0.44478 0.0
C20 C 0.98303 0.06478 0.45035 0.0
C21 C 0.15606 0.17245 0.47116 0.0
C22 C 0.23914 0.16883 0.42195 0.0
C23 C 0.17944 0.05 0.45025 0.0
O24 O 0.24912 0.19711 0.43945 0.0
O25 O 0.25381 0.19065 0.45231 0.0
O26 O 0.08477 0.0824 0.4311 0.0
O27 O 0.11002 0.13436 0.42638 0.0
O28 O 0.10155 0.05717 0.46849 0.0
O29 O 0.05024 0.1059 0.47291 0.0
O30 O 0.09777 0.19665 0.43777 0.0
O31 O 0.11307 0.20586 0.45102 0.0
Co32 Co 0.17444 0.10692 0.8387 0.0
Co33 Co 0.08955 0.16659 0.83017 0.0
Co34 Co 0.16873 0.10617 0.81966 0.0
H35 H 0.17078 0.1169 0.82924 0.0
O36 O 0.17533 0.1406 0.83077 0.0
H37 H 0.09244 0.15808 0.82059 0.0
O38 O 0.08609 0.13462 0.81885 0.0
Co39 Co 0.0964 0.17039 0.81138 0.0
O40 O 0.01422 0.19916 0.81605 0.0
O41 O 0.00475 0.19298 0.82893 0.0
O42 O 0.13353 0.1303 0.80255 0.0
O43 O 0.16528 0.08164 0.80805 0.0
O44 O 0.17558 0.09263 0.84995 0.0
O45 O 0.26034 0.11545 0.84571 0.0
O46 O 0.17808 0.19858 0.81591 0.0
O47 O 0.14346 0.21226 0.82857 0.0
C48 C 0.27452 0.06503 0.82676 0.0
C49 C 0.08527 0.16787 0.84764 0.0
C50 C 0.06977 0.19572 0.79892 0.0
C51 C 0.08407 0.05461 0.82834 0.0
C52 C 0.98388 0.20523 0.82279 0.0
C53 C 0.15496 0.09693 0.80193 0.0
C54 C 0.23524 0.10268 0.85144 0.0
C55 C 0.18124 0.21867 0.82285 0.0
O56 O 0.24872 0.07285 0.83374 0.0
O57 O 0.25167 0.07755 0.82076 0.0
O58 O 0.08606 0.18728 0.84204 0.0
O59 O 0.10834 0.13476 0.84667 0.0
O60 O 0.12153 0.20368 0.80313 0.0
O61 O 0.03333 0.17329 0.80179 0.0
O62 O 0.09823 0.07166 0.83537 0.0
O63 O 0.11069 0.06363 0.82208 0.0
Co64 Co 0.90688 0.91798 0.56112 0.0
Co65 Co 0.83005 0.85586 0.56966 0.0
Co66 Co 0.91384 0.91483 0.57994 0.0
H67 H 0.90996 0.90599 0.57036 0.0
O68 O 0.91453 0.88236 0.56866 0.0
H69 H 0.8293 0.86685 0.57923 0.0
O70 O 0.82648 0.89065 0.58076 0.0
Co71 Co 0.82558 0.85689 0.58869 0.0
O72 O 0.75093 0.82289 0.58378 0.0
O73 O 0.74523 0.82925 0.57092 0.0
O74 O 0.89154 0.88505 0.59669 0.0
O75 O 0.91954 0.93604 0.59176 0.0
O76 O 0.89979 0.96006 0.55439 0.0
O77 O 0.95166 0.91158 0.54993 0.0
O78 O 0.90322 0.82258 0.58529 0.0
O79 O 0.8854 0.81228 0.57208 0.0
C80 C 0.02201 0.95081 0.57232 0.0
C81 C 0.84508 0.84481 0.55188 0.0
C82 C 0.76278 0.85079 0.60123 0.0
C83 C 0.82499 0.96823 0.5726 0.0
C84 C 0.72337 0.81613 0.57689 0.0
C85 C 0.9183 0.91729 0.59746 0.0
C86 C 0.93329 0.94283 0.5486 0.0
C87 C 0.91447 0.80422 0.57829 0.0
O88 O 0.99113 0.94518 0.56561 0.0
O89 O 1.00028 0.93925 0.5785 0.0
O90 O 0.8312 0.83078 0.55808 0.0
O91 O 0.8703 0.8773 0.55236 0.0
O92 O 0.77624 0.82417 0.59564 0.0
O93 O 0.78431 0.88103 0.59967 0.0
O94 O 0.82715 0.94797 0.56568 0.0
O95 O 0.86241 0.96134 0.57832 0.0
Co96 Co 0.9031 0.85145 0.21201 0.0
Co97 Co 0.83048 0.91462 0.20344 0.0
Co98 Co 0.91297 0.85478 0.19324 0.0
H99 H 0.90828 0.86357 0.2028 0.0
O100 O 0.91372 0.88713 0.20452 0.0
H101 H 0.83042 0.90359 0.19387 0.0
O102 O 0.8267 0.87983 0.19235 0.0
Co103 Co 0.82839 0.91328 0.18438 0.0
O104 O 0.75188 0.94638 0.18907 0.0
O105 O 0.74686 0.94212 0.20206 0.0
O106 O 0.89621 0.88579 0.17659 0.0
O107 O 0.91892 0.83376 0.1814 0.0
O108 O 0.88512 0.81338 0.21949 0.0
O109 O 0.95803 0.85393 0.22247 0.0
O110 O 0.90507 0.94807 0.18787 0.0
O111 O 0.88769 0.95766 0.20109 0.0
C112 C 0.01768 0.81684 0.20091 0.0
C113 C 0.84313 0.92511 0.22122 0.0
C114 C 0.76861 0.91728 0.17156 0.0
C115 C 0.82059 0.80257 0.20039 0.0
C116 C 0.7245 0.95403 0.19596 0.0
C117 C 0.92022 0.85293 0.17577 0.0
C118 C 0.92909 0.82659 0.22453 0.0
C119 C 0.91668 0.96598 0.19489 0.0
O120 O 0.98566 0.82247 0.20754 0.0
O121 O 0.99822 0.82935 0.19475 0.0
O122 O 0.83135 0.93961 0.21503 0.0
O123 O 0.86636 0.89217 0.22073 0.0
O124 O 0.82753 0.92836 0.1732 0.0
O125 O 0.7437 0.90368 0.17719 0.0
O126 O 0.82208 0.82306 0.20729 0.0
O127 O 0.85982 0.80874 0.19478 0.0
Co128 Co 0.1747 0.66333 0.93459 0.0
Co129 Co 0.08905 0.60382 0.94306 0.0
Co130 Co 0.17005 0.66354 0.95354 0.0
H131 H 0.17152 0.65289 0.94399 0.0
O132 O 0.17549 0.62917 0.94242 0.0
H133 H 0.09204 0.61244 0.95265 0.0
O134 O 0.08646 0.63598 0.95437 0.0
Co135 Co 0.09514 0.60036 0.96189 0.0
O136 O 0.01003 0.57427 0.95737 0.0
O137 O 0.00337 0.57827 0.94435 0.0
O138 O 0.13418 0.63992 0.9707 0.0
O139 O 0.16756 0.68808 0.96514 0.0
O140 O 0.17649 0.6792 0.92349 0.0
O141 O 0.26003 0.65427 0.92749 0.0
O142 O 0.17451 0.56994 0.95741 0.0
O143 O 0.14179 0.55768 0.94466 0.0
C144 C 0.27567 0.70464 0.94648 0.0
C145 C 0.08501 0.60269 0.92561 0.0
C146 C 0.06854 0.57501 0.97434 0.0
C147 C 0.08497 0.71527 0.94499 0.0
C148 C 0.98035 0.56773 0.95059 0.0
C149 C 0.15689 0.67301 0.97127 0.0
C150 C 0.23552 0.66826 0.92189 0.0
C151 C 0.17784 0.55024 0.95043 0.0
O152 O 0.24862 0.6977 0.93956 0.0
O153 O 0.25394 0.69126 0.95242 0.0
O154 O 0.0851 0.58312 0.93118 0.0
O155 O 0.1083 0.63576 0.92665 0.0
O156 O 0.11717 0.56461 0.96975 0.0
O157 O 0.03527 0.59989 0.97186 0.0
O158 O 0.09715 0.69756 0.93797 0.0
O159 O 0.11347 0.70679 0.95119 0.0
Co160 Co 0.17454 0.60823 0.3388 0.0
Co161 Co 0.08824 0.6669 0.33008 0.0
Co162 Co 0.17071 0.60735 0.31978 0.0
H163 H 0.17147 0.61825 0.32935 0.0
O164 O 0.17493 0.64202 0.33089 0.0
H165 H 0.09235 0.65822 0.32051 0.0
O166 O 0.08711 0.63465 0.31879 0.0
Co167 Co 0.09634 0.67039 0.3113 0.0
O168 O 0.01246 0.69802 0.31577 0.0
O169 O 0.0025 0.69202 0.32865 0.0
O170 O 0.13463 0.63029 0.30255 0.0
O171 O 0.16915 0.58253 0.30818 0.0
O172 O 0.22114 0.57518 0.34588 0.0
O173 O 0.21708 0.63235 0.3497 0.0
O174 O 0.17645 0.69989 0.31591 0.0
O175 O 0.14081 0.71319 0.32853 0.0
C176 C 0.27684 0.56725 0.32705 0.0
C177 C 0.08241 0.66871 0.34756 0.0
C178 C 0.06923 0.69519 0.29879 0.0
C179 C 0.08505 0.55603 0.32836 0.0
C180 C 0.98137 0.70377 0.32246 0.0
C181 C 0.15779 0.59731 0.30202 0.0
C182 C 0.23632 0.60189 0.35138 0.0
C183 C 0.17865 0.72002 0.32285 0.0
O184 O 0.24974 0.57454 0.33395 0.0
O185 O 0.25467 0.57988 0.32103 0.0
O186 O 0.08259 0.68783 0.34192 0.0
O187 O 0.10795 0.63617 0.34673 0.0
O188 O 0.11336 0.70852 0.3038 0.0
O189 O 0.04075 0.66776 0.30088 0.0
O190 O 0.09674 0.5741 0.33537 0.0
O191 O 0.11406 0.56417 0.32216 0.0
Co192 Co 0.90691 0.42071 0.06144 0.0
Co193 Co 0.83211 0.3573 0.06973 0.0
Co194 Co 0.91312 0.41689 0.08025 0.0
H195 H 0.91005 0.40847 0.07066 0.0
O196 O 0.91565 0.38494 0.06892 0.0
H197 H 0.83022 0.36792 0.07929 0.0
O198 O 0.82649 0.39165 0.08087 0.0
Co199 Co 0.82613 0.35743 0.08869 0.0
O200 O 0.75321 0.32262 0.08364 0.0
O201 O 0.74825 0.32941 0.0708 0.0
O202 O 0.893 0.38479 0.09664 0.0
O203 O 0.91751 0.43733 0.09213 0.0
O204 O 0.88501 0.45626 0.05354 0.0
O205 O 0.96671 0.42084 0.05144 0.0
O206 O 0.90408 0.32332 0.08537 0.0
O207 O 0.88884 0.31419 0.07212 0.0
C208 C 0.02115 0.45373 0.07279 0.0
C209 C 0.84472 0.34824 0.05203 0.0
C210 C 0.76227 0.35159 0.10116 0.0
C211 C 0.82427 0.47062 0.07293 0.0
C212 C 0.72651 0.31574 0.07671 0.0
C213 C 0.91775 0.41758 0.09766 0.0
C214 C 0.9335 0.44568 0.04894 0.0
C215 C 0.91688 0.30569 0.07835 0.0
O216 O 0.99118 0.4476 0.06602 0.0
O217 O 0.99881 0.44243 0.07898 0.0
O218 O 0.83496 0.33283 0.05813 0.0
O219 O 0.86686 0.38146 0.05265 0.0
O220 O 0.77755 0.32475 0.09569 0.0
O221 O 0.78248 0.3819 0.0995 0.0
O222 O 0.82752 0.45095 0.06595 0.0
O223 O 0.86041 0.46315 0.0787 0.0
Co224 Co 0.90461 0.34922 0.71177 0.0
Co225 Co 0.83041 0.413 0.70353 0.0
Co226 Co 0.91063 0.35325 0.69297 0.0
H227 H 0.9078 0.36157 0.70256 0.0
O228 O 0.91368 0.38507 0.7043 0.0
H229 H 0.82798 0.40235 0.69397 0.0
O230 O 0.82407 0.37862 0.6924 0.0
Co231 Co 0.82337 0.41277 0.68457 0.0
O232 O 0.75046 0.44751 0.68964 0.0
O233 O 0.74677 0.44113 0.70251 0.0
O234 O 0.89026 0.38558 0.67661 0.0
O235 O 0.91454 0.33292 0.68108 0.0
O236 O 0.87954 0.31602 0.72005 0.0
O237 O 0.96772 0.34644 0.72137 0.0
O238 O 0.90087 0.44727 0.68782 0.0
O239 O 0.88755 0.45591 0.70109 0.0
C240 C 0.01817 0.31581 0.70033 0.0
C241 C 0.84446 0.42223 0.72123 0.0
C242 C 0.75975 0.41813 0.67206 0.0
C243 C 0.82116 0.29988 0.70027 0.0
C244 C 0.72443 0.45462 0.69661 0.0
C245 C 0.91475 0.35274 0.67556 0.0
C246 C 0.93131 0.32403 0.72425 0.0
C247 C 0.91466 0.46463 0.69483 0.0
O248 O 0.98806 0.32169 0.7071 0.0
O249 O 0.99623 0.32761 0.69419 0.0
O250 O 0.83395 0.43749 0.71512 0.0
O251 O 0.86648 0.38897 0.72061 0.0
O252 O 0.77766 0.44526 0.67731 0.0
O253 O 0.7772 0.3878 0.67396 0.0
O254 O 0.82437 0.31967 0.70724 0.0
O255 O 0.85789 0.30704 0.69453 0.0
Co256 Co 0.68025 0.16465 0.93474 0.0
Co257 Co 0.59249 0.10435 0.94298 0.0
Co258 Co 0.67069 0.16448 0.95369 0.0
H259 H 0.67432 0.15405 0.94413 0.0
O260 O 0.67862 0.13036 0.94254 0.0
H261 H 0.5952 0.11224 0.95258 0.0
O262 O 0.58842 0.13563 0.95436 0.0
Co263 Co 0.59936 0.09953 0.96174 0.0
O264 O 0.51759 0.07073 0.95693 0.0
O265 O 0.50757 0.07791 0.94412 0.0
O266 O 0.63842 0.13879 0.97063 0.0
O267 O 0.66573 0.18863 0.96529 0.0
O268 O 0.72994 0.19696 0.92775 0.0
O269 O 0.72475 0.13978 0.92401 0.0
O270 O 0.6812 0.07171 0.95712 0.0
O271 O 0.64606 0.05841 0.94447 0.0
C272 C 0.77625 0.20744 0.947 0.0
C273 C 0.58917 0.10459 0.92559 0.0
C274 C 0.57141 0.07461 0.97423 0.0
C275 C 0.58714 0.21614 0.94489 0.0
C276 C 0.48699 0.06512 0.9502 0.0
C277 C 0.6578 0.17259 0.97134 0.0
C278 C 0.74544 0.16997 0.92233 0.0
C279 C 0.68425 0.05189 0.95015 0.0
O280 O 0.75149 0.20016 0.93997 0.0
O281 O 0.75346 0.19357 0.95282 0.0
O282 O 0.5892 0.08453 0.93107 0.0
O283 O 0.61386 0.1374 0.92669 0.0
O284 O 0.61559 0.06124 0.96923 0.0
O285 O 0.54332 0.10215 0.97214 0.0
O286 O 0.60337 0.19963 0.93789 0.0
O287 O 0.61217 0.20679 0.95121 0.0
Co288 Co 0.67528 0.10764 0.3388 0.0
Co289 Co 0.58947 0.16732 0.33024 0.0
Co290 Co 0.66957 0.10714 0.31979 0.0
H291 H 0.67141 0.11789 0.32936 0.0
O292 O 0.67554 0.14161 0.33092 0.0
H293 H 0.59299 0.15888 0.32066 0.0
O294 O 0.58687 0.13539 0.31892 0.0
Co295 Co 0.59718 0.1712 0.31146 0.0
O296 O 0.51503 0.20011 0.31609 0.0
O297 O 0.50448 0.19337 0.32892 0.0
O298 O 0.63221 0.13045 0.30262 0.0
O299 O 0.66652 0.08248 0.30819 0.0
O300 O 0.72473 0.0749 0.34572 0.0
O301 O 0.71803 0.13189 0.34968 0.0
O302 O 0.6784 0.19977 0.31606 0.0
O303 O 0.6431 0.21322 0.3287 0.0
C304 C 0.77368 0.0648 0.32681 0.0
C305 C 0.58478 0.16871 0.34771 0.0
C306 C 0.57094 0.19636 0.29897 0.0
C307 C 0.584 0.05594 0.32847 0.0
C308 C 0.48409 0.20586 0.3228 0.0
C309 C 0.65452 0.09728 0.30205 0.0
C310 C 0.73917 0.10159 0.35125 0.0
C311 C 0.68119 0.21977 0.32301 0.0
O312 O 0.74692 0.07193 0.33374 0.0
O313 O 0.75265 0.0787 0.32091 0.0
O314 O 0.5849 0.18796 0.3421 0.0
O315 O 0.60989 0.13604 0.34684 0.0
O316 O 0.6215 0.20533 0.30333 0.0
O317 O 0.53556 0.17303 0.30169 0.0
O318 O 0.59755 0.07335 0.33548 0.0
O319 O 0.61157 0.06452 0.32221 0.0
Co320 Co 0.40491 0.92091 0.06137 0.0
Co321 Co 0.33221 0.85642 0.06952 0.0
Co322 Co 0.41064 0.91666 0.08017 0.0
H323 H 0.40824 0.90849 0.07057 0.0
O324 O 0.41477 0.88505 0.06883 0.0
H325 H 0.32849 0.8672 0.07908 0.0
O326 O 0.32427 0.89092 0.08062 0.0
Co327 Co 0.32248 0.85696 0.08849 0.0
O328 O 0.24996 0.82216 0.08335 0.0
O329 O 0.24921 0.82752 0.07042 0.0
O330 O 0.38954 0.88395 0.09646 0.0
O331 O 0.41372 0.93681 0.09207 0.0
O332 O 0.38804 0.95913 0.05388 0.0
O333 O 0.4606 0.91839 0.05096 0.0
O334 O 0.39799 0.82103 0.08539 0.0
O335 O 0.39037 0.81411 0.07208 0.0
C336 C 0.51726 0.95511 0.07294 0.0
C337 C 0.34794 0.84712 0.05185 0.0
C338 C 0.25888 0.85202 0.10102 0.0
C339 C 0.3203 0.96949 0.07288 0.0
C340 C 0.22562 0.8144 0.07631 0.0
C341 C 0.4139 0.91682 0.09756 0.0
C342 C 0.43222 0.94585 0.04887 0.0
C343 C 0.4145 0.80451 0.07841 0.0
O344 O 0.48705 0.94938 0.06618 0.0
O345 O 0.49594 0.94273 0.07904 0.0
O346 O 0.33731 0.83184 0.05796 0.0
O347 O 0.36885 0.8806 0.05248 0.0
O348 O 0.27778 0.82473 0.09587 0.0
O349 O 0.2753 0.88228 0.09901 0.0
O350 O 0.32375 0.94973 0.0659 0.0
O351 O 0.3576 0.96268 0.07861 0.0
Co352 Co 0.40305 0.84929 0.71179 0.0
Co353 Co 0.33028 0.91296 0.70337 0.0
Co354 Co 0.41142 0.85297 0.693 0.0
H355 H 0.40744 0.8615 0.70258 0.0
O356 O 0.41323 0.88502 0.70431 0.0
H357 H 0.32883 0.90206 0.69379 0.0
O358 O 0.32506 0.87831 0.69225 0.0
Co359 Co 0.32501 0.91212 0.68434 0.0
O360 O 0.25271 0.94753 0.68933 0.0
O361 O 0.24701 0.94115 0.70218 0.0
O362 O 0.39079 0.88384 0.67634 0.0
O363 O 0.41672 0.83221 0.68114 0.0
O364 O 0.40122 0.80649 0.71837 0.0
O365 O 0.44435 0.8572 0.72319 0.0
O366 O 0.40217 0.94672 0.68768 0.0
O367 O 0.38809 0.95567 0.70095 0.0
C368 C 0.51746 0.81537 0.70057 0.0
C369 C 0.34105 0.92217 0.72109 0.0
C370 C 0.26197 0.91812 0.67183 0.0
C371 C 0.3201 0.80024 0.7002 0.0
C372 C 0.22586 0.95478 0.69625 0.0
C373 C 0.41652 0.85134 0.6755 0.0
C374 C 0.43063 0.825 0.72436 0.0
C375 C 0.41556 0.96425 0.69469 0.0
O376 O 0.48636 0.82122 0.70726 0.0
O377 O 0.49672 0.82735 0.69439 0.0
O378 O 0.33255 0.93765 0.71497 0.0
O379 O 0.36231 0.88876 0.7205 0.0
O380 O 0.27635 0.94485 0.67736 0.0
O381 O 0.28267 0.88781 0.67343 0.0
O382 O 0.32244 0.82035 0.70715 0.0
O383 O 0.35822 0.80689 0.69453 0.0
Co384 Co 0.67422 0.66142 0.43425 0.0
Co385 Co 0.58798 0.60272 0.44304 0.0
Co386 Co 0.66968 0.66277 0.45331 0.0
H387 H 0.67076 0.65165 0.44374 0.0
O388 O 0.67441 0.62788 0.44222 0.0
H389 H 0.59216 0.61151 0.45261 0.0
O390 O 0.58657 0.63506 0.45432 0.0
Co391 Co 0.59649 0.59948 0.46183 0.0
O392 O 0.51383 0.57077 0.45732 0.0
O393 O 0.50259 0.57727 0.44449 0.0
O394 O 0.63148 0.64063 0.47059 0.0
O395 O 0.66765 0.68786 0.46489 0.0
O396 O 0.72246 0.69432 0.42728 0.0
O397 O 0.71535 0.63738 0.42326 0.0
O398 O 0.67697 0.57026 0.45722 0.0
O399 O 0.64106 0.55666 0.44461 0.0
C400 C 0.77569 0.70305 0.44602 0.0
C401 C 0.58203 0.60071 0.42556 0.0
C402 C 0.57029 0.57461 0.47436 0.0
C403 C 0.58447 0.71401 0.44461 0.0
C404 C 0.48238 0.56501 0.45065 0.0
C405 C 0.65479 0.67355 0.47108 0.0
C406 C 0.73617 0.66773 0.42169 0.0
C407 C 0.67922 0.55007 0.45028 0.0
O408 O 0.74917 0.69531 0.43909 0.0
O409 O 0.75319 0.69067 0.45205 0.0
O410 O 0.58236 0.58167 0.43121 0.0
O411 O 0.60765 0.63322 0.42634 0.0
O412 O 0.61879 0.56403 0.46976 0.0
O413 O 0.53698 0.59938 0.47185 0.0
O414 O 0.59735 0.69627 0.4376 0.0
O415 O 0.6122 0.70553 0.45086 0.0
Co416 Co 0.67625 0.60637 0.83852 0.0
Co417 Co 0.58965 0.66611 0.83021 0.0
Co418 Co 0.66918 0.60634 0.81956 0.0
H419 H 0.67177 0.6168 0.82912 0.0
O420 O 0.67599 0.6405 0.83069 0.0
H421 H 0.59187 0.65786 0.82061 0.0
O422 O 0.58587 0.63438 0.81886 0.0
Co423 Co 0.59466 0.67031 0.8114 0.0
O424 O 0.51197 0.69827 0.81618 0.0
O425 O 0.50424 0.69209 0.82908 0.0
O426 O 0.63433 0.63109 0.80254 0.0
O427 O 0.6654 0.58209 0.80796 0.0
O428 O 0.67744 0.59077 0.84965 0.0
O429 O 0.76175 0.61482 0.8456 0.0
O430 O 0.67576 0.69925 0.81589 0.0
O431 O 0.64258 0.71211 0.82862 0.0
C432 C 0.77736 0.56613 0.82651 0.0
C433 C 0.58616 0.66638 0.8476 0.0
C434 C 0.56541 0.69496 0.79893 0.0
C435 C 0.58574 0.55419 0.82822 0.0
C436 C 0.48225 0.70413 0.82297 0.0
C437 C 0.65588 0.5977 0.80188 0.0
C438 C 0.73677 0.6012 0.85123 0.0
C439 C 0.67946 0.71899 0.82286 0.0
O440 O 0.75236 0.5738 0.83352 0.0
O441 O 0.75286 0.57817 0.82053 0.0
O442 O 0.58676 0.68637 0.84211 0.0
O443 O 0.60896 0.63318 0.84646 0.0
O444 O 0.59535 0.71336 0.80489 0.0
O445 O 0.55209 0.66268 0.80007 0.0
O446 O 0.59988 0.57123 0.83524 0.0
O447 O 0.61218 0.56334 0.82196 0.0
Co448 Co 0.40262 0.41968 0.56128 0.0
Co449 Co 0.33272 0.35501 0.56968 0.0
Co450 Co 0.41161 0.41597 0.58006 0.0
H451 H 0.40773 0.40744 0.57048 0.0
O452 O 0.41444 0.38401 0.56874 0.0
H453 H 0.33137 0.36586 0.57925 0.0
O454 O 0.32646 0.38954 0.58079 0.0
Co455 Co 0.32891 0.35588 0.58872 0.0
O456 O 0.2577 0.31962 0.58377 0.0
O457 O 0.25078 0.3258 0.5709 0.0
O458 O 0.39517 0.38413 0.59662 0.0
O459 O 0.41616 0.43665 0.59193 0.0
O460 O 0.3805 0.4551 0.55334 0.0
O461 O 0.46224 0.41971 0.55126 0.0
O462 O 0.40504 0.32067 0.58533 0.0
O463 O 0.39233 0.3129 0.57205 0.0
C464 C 0.51562 0.45514 0.57255 0.0
C465 C 0.34517 0.34561 0.55194 0.0
C466 C 0.26841 0.35218 0.6015 0.0
C467 C 0.31853 0.46806 0.57288 0.0
C468 C 0.23066 0.31199 0.57686 0.0
C469 C 0.41796 0.41727 0.59752 0.0
C470 C 0.42901 0.44448 0.54875 0.0
C471 C 0.41927 0.30383 0.57829 0.0
O472 O 0.48442 0.44909 0.56586 0.0
O473 O 0.49582 0.44262 0.5787 0.0
O474 O 0.3355 0.3304 0.55808 0.0
O475 O 0.36589 0.3791 0.55251 0.0
O476 O 0.32803 0.34208 0.60001 0.0
O477 O 0.24317 0.36475 0.59575 0.0
O478 O 0.32151 0.44826 0.5659 0.0
O479 O 0.35667 0.46147 0.57855 0.0
Co480 Co 0.40566 0.34969 0.21182 0.0
Co481 Co 0.3336 0.41393 0.20353 0.0
Co482 Co 0.41385 0.35392 0.19306 0.0
H483 H 0.41021 0.36222 0.20264 0.0
O484 O 0.41632 0.38569 0.20441 0.0
H485 H 0.33266 0.40352 0.19396 0.0
O486 O 0.32817 0.37984 0.19237 0.0
Co487 Co 0.33044 0.41399 0.18454 0.0
O488 O 0.25713 0.44885 0.1895 0.0
O489 O 0.25057 0.44224 0.20235 0.0
O490 O 0.39647 0.38603 0.17657 0.0
O491 O 0.4183 0.33343 0.18119 0.0
O492 O 0.38181 0.31548 0.21994 0.0
O493 O 0.46766 0.34785 0.22156 0.0
O494 O 0.40791 0.44815 0.18804 0.0
O495 O 0.39146 0.45689 0.20126 0.0
C496 C 0.51891 0.31513 0.20049 0.0
C497 C 0.34615 0.42287 0.22127 0.0
C498 C 0.2703 0.41879 0.17179 0.0
C499 C 0.32136 0.30164 0.20022 0.0
C500 C 0.22966 0.45585 0.1964 0.0
C501 C 0.41947 0.35291 0.17561 0.0
C502 C 0.43244 0.32448 0.22429 0.0
C503 C 0.42018 0.46553 0.19509 0.0
O504 O 0.48793 0.32085 0.20719 0.0
O505 O 0.4986 0.3277 0.19437 0.0
O506 O 0.33579 0.43816 0.21515 0.0
O507 O 0.36804 0.3896 0.22066 0.0
O508 O 0.32984 0.42889 0.17335 0.0
O509 O 0.24494 0.40568 0.17747 0.0
O510 O 0.32413 0.32158 0.20718 0.0
O511 O 0.35979 0.3081 0.19456 0.0
C512 C 0.35477 0.24684 0.44132 0.0
C513 C 0.32497 0.23458 0.44787 0.0
C514 C 0.37909 0.28308 0.44217 0.0
C515 C 0.32869 0.37159 0.45384 0.0
H516 H 0.46644 0.41121 0.44165 0.0
C517 C 0.40262 0.52545 0.45654 0.0
C518 C 0.42985 0.53627 0.44968 0.0
C519 C 0.37773 0.4895 0.45611 0.0
C520 C 0.42695 0.40036 0.44496 0.0
H521 H 0.3077 0.24808 0.46072 0.0
H522 H 0.35141 0.31133 0.46221 0.0
H523 H 0.4675 0.34517 0.44241 0.0
H524 H 0.44092 0.52079 0.43677 0.0
H525 H 0.39656 0.45808 0.43603 0.0
H526 H 0.28842 0.42693 0.45642 0.0
C527 C 0.35381 0.29332 0.45637 0.0
C528 C 0.42818 0.36274 0.44548 0.0
C529 C 0.32948 0.25699 0.45553 0.0
C530 C 0.42122 0.51301 0.44218 0.0
C531 C 0.39653 0.47697 0.44176 0.0
C532 C 0.32762 0.40928 0.45334 0.0
C533 C 0.37424 0.30738 0.44959 0.0
C534 C 0.37885 0.34795 0.44989 0.0
C535 C 0.37956 0.46419 0.44881 0.0
C536 C 0.37639 0.42388 0.44884 0.0
H537 H 0.35311 0.22981 0.43538 0.0
H538 H 0.39513 0.29303 0.43684 0.0
H539 H 0.28899 0.36076 0.45712 0.0
H540 H 0.40753 0.54318 0.46238 0.0
H541 H 0.36417 0.48045 0.46163 0.0
C542 C 0.92503 0.01182 0.4418 0.0
C543 C 0.93083 0.03586 0.44925 0.0
C544 C 0.9 0.97587 0.44142 0.0
C545 C 0.90697 0.9091 0.45474 0.0
H546 H 0.81978 0.84283 0.43728 0.0
C547 C 0.82765 0.75764 0.45479 0.0
C548 C 0.825 0.73351 0.44732 0.0
C549 C 0.8514 0.79393 0.45528 0.0
C550 C 0.84533 0.861 0.44213 0.0
H551 H 0.90351 0.0442 0.46182 0.0
H552 H 0.85793 0.98177 0.4611 0.0
H553 H 0.81899 0.90981 0.4375 0.0
H554 H 0.85611 0.7257 0.43487 0.0
H555 H 0.89871 0.78887 0.43579 0.0
H556 H 0.93314 0.86024 0.45936 0.0
C557 C 0.87543 0.99002 0.45564 0.0
C558 C 0.84411 0.89929 0.44229 0.0
C559 C 0.90088 0.02582 0.45604 0.0
C560 C 0.8562 0.7441 0.44066 0.0
C561 C 0.8801 0.78028 0.44117 0.0
C562 C 0.90806 0.87081 0.45458 0.0
C563 C 0.87976 0.96393 0.44847 0.0
C564 C 0.87486 0.9237 0.4486 0.0
C565 C 0.87321 0.80617 0.44834 0.0
C566 C 0.87748 0.84642 0.44826 0.0
H567 H 0.94726 0.01893 0.43645 0.0
H568 H 0.90332 0.95642 0.43578 0.0
H569 H 0.93276 0.9272 0.45957 0.0
H570 H 0.80442 0.75011 0.46004 0.0
H571 H 0.84614 0.8133 0.46091 0.0
C572 C 0.35592 0.02408 0.83199 0.0
C573 C 0.32346 0.03442 0.82539 0.0
C574 C 0.37957 0.98786 0.8315 0.0
C575 C 0.40444 0.8967 0.81824 0.0
H576 H 0.31826 0.85918 0.83569 0.0
C577 C 0.39822 0.74214 0.81732 0.0
C578 C 0.42954 0.73275 0.82409 0.0
C579 C 0.37222 0.77779 0.81765 0.0
C580 C 0.34254 0.86928 0.8308 0.0
H581 H 0.30029 0.01729 0.81275 0.0
H582 H 0.34155 0.95402 0.81191 0.0
H583 H 0.31925 0.92598 0.83571 0.0
H584 H 0.44783 0.7506 0.83683 0.0
H585 H 0.40297 0.81284 0.83738 0.0
H586 H 0.4282 0.84006 0.81335 0.0
C587 C 0.34801 0.97362 0.81748 0.0
C588 C 0.3439 0.90747 0.83084 0.0
C589 C 0.32454 1.00995 0.81796 0.0
C590 C 0.42454 0.75723 0.83149 0.0
C591 C 0.39897 0.79302 0.83181 0.0
C592 C 0.40324 0.8585 0.8182 0.0
C593 C 0.37111 0.96168 0.82441 0.0
C594 C 0.37508 0.92151 0.82458 0.0
C595 C 0.3774 0.80435 0.82475 0.0
C596 C 0.37222 0.84443 0.82448 0.0
H597 H 0.35701 0.04276 0.83775 0.0
H598 H 0.3992 0.97949 0.83686 0.0
H599 H 0.42872 0.90686 0.81335 0.0
H600 H 0.40021 0.72341 0.81158 0.0
H601 H 0.35368 0.78555 0.81219 0.0
C602 C 0.90168 0.24392 0.81704 0.0
C603 C 0.93203 0.23433 0.82385 0.0
C604 C 0.87673 0.27977 0.81733 0.0
C605 C 0.84789 0.37141 0.83046 0.0
H606 H 0.93424 0.4087 0.81299 0.0
C607 C 0.86087 0.52598 0.83163 0.0
C608 C 0.8274 0.53607 0.82507 0.0
C609 C 0.88536 0.48991 0.83112 0.0
C610 C 0.90998 0.39861 0.81789 0.0
H611 H 0.9498 0.25218 0.8366 0.0
H612 H 0.90677 0.31475 0.83708 0.0
H613 H 0.93335 0.3419 0.81301 0.0
H614 H 0.80362 0.51881 0.81245 0.0
H615 H 0.84632 0.45582 0.81156 0.0
H616 H 0.82499 0.42818 0.83536 0.0
C617 C 0.9027 0.29493 0.83151 0.0
C618 C 0.90855 0.36042 0.81786 0.0
C619 C 0.92719 0.25894 0.83124 0.0
C620 C 0.82856 0.51165 0.81763 0.0
C621 C 0.85288 0.47547 0.81713 0.0
C622 C 0.84955 0.40959 0.8305 0.0
C623 C 0.88201 0.30635 0.82442 0.0
C624 C 0.87739 0.34646 0.82415 0.0
C625 C 0.87675 0.46366 0.82403 0.0
C626 C 0.8808 0.42352 0.82423 0.0
H627 H 0.90361 0.22511 0.81131 0.0
H628 H 0.85883 0.2876 0.81185 0.0
H629 H 0.82344 0.36141 0.83536 0.0
H630 H 0.86198 0.54463 0.8374 0.0
H631 H 0.90556 0.48164 0.83645 0.0
C632 C 0.57609 0.50729 0.58108 0.0
C633 C 0.56745 0.48428 0.57355 0.0
C634 C 0.60071 0.54338 0.58157 0.0
C635 C 0.66969 0.61147 0.57007 0.0
H636 H 0.53099 0.67575 0.58122 0.0
C637 C 0.66774 0.7636 0.56786 0.0
C638 C 0.67339 0.78602 0.5755 0.0
C639 C 0.6431 0.72736 0.56707 0.0
C640 C 0.56997 0.65812 0.57809 0.0
H641 H 0.58939 0.47794 0.56085 0.0
H642 H 0.63254 0.54076 0.56171 0.0
H643 H 0.53176 0.60962 0.58191 0.0
H644 H 0.64672 0.791 0.58805 0.0
H645 H 0.60414 0.72792 0.58668 0.0
H646 H 0.70819 0.66 0.56629 0.0
C647 C 0.61913 0.53146 0.56721 0.0
C648 C 0.57105 0.62045 0.57857 0.0
C649 C 0.59433 0.49546 0.56672 0.0
C650 C 0.6442 0.77394 0.58211 0.0
C651 C 0.61957 0.73779 0.58132 0.0
C652 C 0.66873 0.64919 0.56961 0.0
C653 C 0.61757 0.55649 0.57455 0.0
C654 C 0.62113 0.59686 0.5746 0.0
C655 C 0.62349 0.71341 0.5739 0.0
C656 C 0.61892 0.67287 0.57363 0.0
H657 H 0.55665 0.49923 0.58648 0.0
H658 H 0.60087 0.56204 0.58733 0.0
H659 H 0.70857 0.59379 0.56693 0.0
H660 H 0.68899 0.77237 0.56263 0.0
H661 H 0.64473 0.7093 0.56124 0.0
C662 C 0.1035 0.98967 0.56647 0.0
C663 C 0.07621 0.97864 0.5733 0.0
C664 C 0.13053 0.02522 0.56701 0.0
C665 C 0.0854 0.11397 0.57854 0.0
H666 H 0.22273 0.15348 0.56627 0.0
C667 C 0.15505 0.26803 0.58206 0.0
C668 C 0.18357 0.28047 0.57545 0.0
C669 C 0.13254 0.23147 0.58129 0.0
C670 C 0.18326 0.14269 0.5696 0.0
H671 H 0.06755 0.993 0.58626 0.0
H672 H 0.11547 0.055 0.58719 0.0
H673 H 0.22246 0.08712 0.56684 0.0
H674 H 0.20093 0.26666 0.56262 0.0
H675 H 0.16021 0.20284 0.56126 0.0
H676 H 0.04559 0.16927 0.58122 0.0
C677 C 0.11392 0.03663 0.5814 0.0
C678 C 0.18387 0.1049 0.57001 0.0
C679 C 0.08707 1.001 0.58086 0.0
C680 C 0.17997 0.25765 0.56784 0.0
C681 C 0.15745 0.22099 0.56707 0.0
C682 C 0.08458 0.15166 0.57809 0.0
C683 C 0.13081 0.0499 0.5744 0.0
C684 C 0.13521 0.0903 0.57453 0.0
C685 C 0.13791 0.20698 0.5739 0.0
C686 C 0.13362 0.16641 0.57364 0.0
H687 H 0.09704 0.9726 0.56058 0.0
H688 H 0.14399 0.03465 0.56153 0.0
H689 H 0.04598 0.10315 0.58187 0.0
H690 H 0.15616 0.28533 0.58798 0.0
H691 H 0.11721 0.22156 0.58665 0.0
C692 C 0.66888 1.00766 0.20462 0.0
C693 C 0.67388 0.9838 0.19714 0.0
C694 C 0.64399 0.04368 0.20508 0.0
C695 C 0.65326 0.11086 0.19204 0.0
H696 H 0.56316 0.1768 0.2093 0.0
C697 C 0.57762 0.26252 0.19192 0.0
C698 C 0.5709 0.28611 0.19942 0.0
C699 C 0.60189 0.22638 0.19149 0.0
C700 C 0.58965 0.15875 0.20452 0.0
H701 H 0.64528 0.97591 0.1846 0.0
H702 H 0.60077 0.03865 0.18546 0.0
H703 H 0.56107 0.10971 0.20894 0.0
H704 H 0.59624 0.29351 0.21204 0.0
H705 H 0.64038 0.23072 0.21123 0.0
H706 H 0.6821 0.15986 0.18763 0.0
C707 C 0.61845 0.03009 0.19088 0.0
C708 C 0.58756 0.1204 0.20427 0.0
C709 C 0.6435 0.99417 0.19041 0.0
C710 C 0.5995 0.27547 0.20622 0.0
C711 C 0.62415 0.23948 0.20577 0.0
C712 C 0.65545 0.14921 0.1923 0.0
C713 C 0.62338 0.0559 0.19809 0.0
C714 C 0.61926 0.09614 0.19802 0.0
C715 C 0.62041 0.21384 0.19852 0.0
C716 C 0.62386 0.1735 0.19855 0.0
H717 H 0.69127 1.00026 0.20993 0.0
H718 H 0.64768 0.06298 0.21074 0.0
H719 H 0.67969 0.09279 0.18726 0.0
H720 H 0.55655 0.27012 0.18656 0.0
H721 H 0.59916 0.20728 0.1858 0.0
C722 C 0.09662 0.77696 0.20684 0.0
C723 C 0.07016 0.78807 0.19997 0.0
C724 C 0.12206 0.74111 0.20637 0.0
C725 C 0.07638 0.65193 0.19492 0.0
H726 H 0.21394 0.61297 0.20724 0.0
C727 C 0.15172 0.49874 0.19121 0.0
C728 C 0.18063 0.48643 0.19781 0.0
C729 C 0.12706 0.5349 0.19204 0.0
C730 C 0.17436 0.6236 0.20391 0.0
H731 H 0.06067 0.77318 0.18703 0.0
H732 H 0.10598 0.71062 0.18622 0.0
H733 H 0.21287 0.67929 0.20668 0.0
H734 H 0.19624 0.49978 0.21068 0.0
H735 H 0.15194 0.5629 0.21213 0.0
H736 H 0.03756 0.59639 0.19217 0.0
C737 C 0.10504 0.72923 0.19198 0.0
C738 C 0.1745 0.66139 0.2035 0.0
C739 C 0.0798 0.76518 0.19245 0.0
C740 C 0.17512 0.50873 0.20546 0.0
C741 C 0.15046 0.54498 0.20629 0.0
C742 C 0.07608 0.61421 0.19535 0.0
C743 C 0.12154 0.71615 0.19902 0.0
C744 C 0.12583 0.67579 0.19894 0.0
C745 C 0.1307 0.55909 0.19948 0.0
C746 C 0.12525 0.59965 0.19982 0.0
H747 H 0.09087 0.79439 0.2127 0.0
H748 H 0.13516 0.73182 0.21187 0.0
H749 H 0.03699 0.66259 0.19156 0.0
H750 H 0.15421 0.48179 0.18526 0.0
H751 H 0.11158 0.54489 0.18669 0.0
C752 C 0.4059 0.02552 0.95587 0.0
C753 C 0.43496 0.03609 0.94908 0.0
C754 C 0.38082 0.9896 0.95541 0.0
C755 C 0.43061 0.89977 0.94455 0.0
H756 H 0.28925 0.86176 0.9565 0.0
C757 C 0.35564 0.74659 0.94133 0.0
C758 C 0.32501 0.73505 0.94791 0.0
C759 C 0.38032 0.78272 0.94205 0.0
C760 C 0.32984 0.87215 0.95328 0.0
H761 H 0.44979 0.02005 0.93624 0.0
H762 H 0.40502 0.95736 0.93545 0.0
H763 H 0.29047 0.9277 0.9556 0.0
H764 H 0.30622 0.74978 0.9607 0.0
H765 H 0.35044 0.81285 0.96199 0.0
H766 H 0.47016 0.84432 0.94225 0.0
C767 C 0.4036 0.97646 0.94115 0.0
C768 C 0.32984 0.90971 0.95267 0.0
C769 C 0.42848 0.01248 0.94159 0.0
C770 C 0.32878 0.75811 0.9555 0.0
C771 C 0.35338 0.79434 0.95622 0.0
C772 C 0.43071 0.86226 0.94518 0.0
C773 C 0.38434 0.96401 0.94816 0.0
C774 C 0.37997 0.92377 0.94825 0.0
C775 C 0.37488 0.80765 0.94939 0.0
C776 C 0.38021 0.84807 0.94952 0.0
H777 H 0.40929 0.0435 0.9617 0.0
H778 H 0.36559 0.98083 0.96091 0.0
H779 H 0.47107 0.91017 0.94131 0.0
H780 H 0.35442 0.72906 0.93543 0.0
H781 H 0.39716 0.7921 0.93669 0.0
C782 C 0.85543 0.25111 0.94228 0.0
C783 C 0.82387 0.23865 0.94869 0.0
C784 C 0.87891 0.28754 0.94322 0.0
C785 C 0.82477 0.3761 0.95459 0.0
H786 H 0.96542 0.4154 0.94275 0.0
C787 C 0.89756 0.53015 0.95657 0.0
C788 C 0.92649 0.53972 0.94967 0.0
C789 C 0.87239 0.49438 0.95634 0.0
C790 C 0.92518 0.40464 0.94597 0.0
H791 H 0.80195 0.25222 0.96143 0.0
H792 H 0.84411 0.31587 0.96309 0.0
H793 H 0.96697 0.34974 0.9438 0.0
H794 H 0.9394 0.52235 0.93682 0.0
H795 H 0.8945 0.46003 0.93643 0.0
H796 H 0.78338 0.43125 0.95679 0.0
C797 C 0.84871 0.29781 0.95729 0.0
C798 C 0.92665 0.36723 0.94665 0.0
C799 C 0.82528 0.26125 0.95635 0.0
C800 C 0.91859 0.51553 0.94227 0.0
C801 C 0.89356 0.47971 0.94205 0.0
C802 C 0.82354 0.41362 0.95394 0.0
C803 C 0.87138 0.31191 0.9506 0.0
C804 C 0.87605 0.35249 0.95089 0.0
C805 C 0.87551 0.46808 0.9492 0.0
C806 C 0.87319 0.42804 0.94952 0.0
H807 H 0.85602 0.23398 0.93634 0.0
H808 H 0.8966 0.29751 0.93796 0.0
H809 H 0.78425 0.36531 0.95775 0.0
H810 H 0.90171 0.54864 0.96233 0.0
H811 H 0.85784 0.48622 0.96192 0.0
C812 C 0.4257 0.25884 0.33128 0.0
C813 C 0.43189 0.23476 0.32385 0.0
C814 C 0.40062 0.29476 0.33163 0.0
C815 C 0.40831 0.3614 0.3183 0.0
H816 H 0.32057 0.42773 0.33569 0.0
C817 C 0.32937 0.51295 0.31826 0.0
C818 C 0.32648 0.53698 0.32574 0.0
C819 C 0.3532 0.47668 0.31775 0.0
C820 C 0.34628 0.40954 0.33087 0.0
H821 H 0.40522 0.2263 0.31125 0.0
H822 H 0.35954 0.28867 0.31191 0.0
H823 H 0.31945 0.36075 0.33547 0.0
H824 H 0.35733 0.54468 0.3382 0.0
H825 H 0.40011 0.48153 0.33725 0.0
H826 H 0.43495 0.41026 0.31369 0.0
C827 C 0.37678 0.28048 0.31739 0.0
C828 C 0.34486 0.37125 0.3307 0.0
C829 C 0.40228 0.24472 0.31703 0.0
C830 C 0.35763 0.52634 0.33239 0.0
C831 C 0.38163 0.49018 0.33187 0.0
C832 C 0.40958 0.3997 0.31846 0.0
C833 C 0.38072 0.30662 0.32456 0.0
C834 C 0.37585 0.34683 0.32441 0.0
C835 C 0.37486 0.46436 0.32469 0.0
C836 C 0.37885 0.4241 0.32476 0.0
H837 H 0.44767 0.25179 0.33665 0.0
H838 H 0.40364 0.31425 0.33726 0.0
H839 H 0.43428 0.34329 0.31348 0.0
H840 H 0.30618 0.52052 0.31301 0.0
H841 H 0.34806 0.45735 0.31211 0.0
C842 C 0.85116 0.02129 0.33186 0.0
C843 C 0.82149 0.03365 0.32531 0.0
C844 C 0.87427 0.98482 0.33104 0.0
C845 C 0.8227 0.89608 0.31944 0.0
H846 H 0.96107 0.85663 0.33157 0.0
C847 C 0.9004 0.74272 0.31657 0.0
C848 C 0.9278 0.73195 0.32343 0.0
C849 C 0.87416 0.7784 0.31703 0.0
C850 C 0.92139 0.86743 0.32828 0.0
H851 H 0.80279 0.01989 0.3125 0.0
H852 H 0.84453 0.95624 0.31105 0.0
H853 H 0.96169 0.92266 0.33083 0.0
H854 H 0.93764 0.74706 0.33636 0.0
H855 H 0.89111 0.80932 0.33716 0.0
H856 H 0.78294 0.84061 0.31682 0.0
C857 C 0.84775 0.97437 0.31686 0.0
C858 C 0.92234 0.90506 0.32777 0.0
C859 C 0.82463 0.01093 0.31768 0.0
C860 C 0.91794 0.75483 0.33095 0.0
C861 C 0.89191 0.7906 0.33141 0.0
C862 C 0.82197 0.85836 0.31991 0.0
C863 C 0.86834 0.96036 0.32365 0.0
C864 C 0.87281 0.9198 0.32338 0.0
C865 C 0.87484 0.80349 0.32437 0.0
C866 C 0.87099 0.84382 0.32439 0.0
H867 H 0.85045 0.03852 0.33779 0.0
H868 H 0.8904 0.97492 0.33637 0.0
H869 H 0.78288 0.90687 0.31616 0.0
H870 H 0.90617 0.72526 0.31071 0.0
H871 H 0.86055 0.78755 0.31153 0.0
C872 C 0.5769 1.00729 0.08156 0.0
C873 C 0.56986 0.98383 0.07405 0.0
C874 C 0.60239 0.04319 0.08202 0.0
C875 C 0.67627 0.11006 0.07055 0.0
H876 H 0.53477 0.17504 0.08081 0.0
C877 C 0.67557 0.26171 0.06764 0.0
C878 C 0.67789 0.28498 0.07521 0.0
C879 C 0.65194 0.22528 0.06691 0.0
C880 C 0.57459 0.15723 0.07793 0.0
H881 H 0.59542 0.97644 0.06143 0.0
H882 H 0.64018 0.03892 0.06225 0.0
H883 H 0.53444 0.10925 0.08179 0.0
H884 H 0.64701 0.29102 0.08764 0.0
H885 H 0.606 0.22766 0.08638 0.0
H886 H 0.71669 0.1581 0.06673 0.0
C887 C 0.62486 0.03012 0.06774 0.0
C888 C 0.575 0.11975 0.07858 0.0
C889 C 0.59915 0.99432 0.06727 0.0
C890 C 0.64684 0.27335 0.08176 0.0
C891 C 0.62318 0.23702 0.08103 0.0
C892 C 0.67602 0.14761 0.06993 0.0
C893 C 0.62172 0.05565 0.075 0.0
C894 C 0.62601 0.09589 0.07492 0.0
C895 C 0.62999 0.21198 0.07373 0.0
C896 C 0.62522 0.17155 0.07363 0.0
H897 H 0.55552 0.99977 0.08691 0.0
H898 H 0.60124 0.06224 0.08772 0.0
H899 H 0.71588 0.09215 0.06765 0.0
H900 H 0.69855 0.2701 0.06246 0.0
H901 H 0.65591 0.20668 0.06117 0.0
C902 C 0.1036 0.49205 0.06696 0.0
C903 C 0.0746 0.48199 0.0738 0.0
C904 C 0.12918 0.52782 0.06731 0.0
C905 C 0.07773 0.61739 0.07791 0.0
H906 H 0.21889 0.65643 0.06611 0.0
C907 C 0.14612 0.77132 0.08118 0.0
C908 C 0.17777 0.78325 0.0747 0.0
C909 C 0.12315 0.73483 0.08038 0.0
C910 C 0.17834 0.64574 0.06929 0.0
H911 H 0.06137 0.49855 0.08666 0.0
H912 H 0.1068 0.56094 0.08727 0.0
H913 H 0.21939 0.59052 0.06708 0.0
H914 H 0.20002 0.76866 0.06199 0.0
H915 H 0.15857 0.70497 0.06058 0.0
H916 H 0.03619 0.67236 0.08006 0.0
C917 C 0.10771 0.5416 0.0816 0.0
C918 C 0.17936 0.60822 0.06994 0.0
C919 C 0.08235 0.50575 0.08126 0.0
C920 C 0.17667 0.76005 0.06712 0.0
C921 C 0.1537 0.72346 0.06632 0.0
C922 C 0.07649 0.65481 0.07722 0.0
C923 C 0.12626 0.55369 0.07452 0.0
C924 C 0.12943 0.59385 0.07433 0.0
C925 C 0.13119 0.7099 0.07309 0.0
C926 C 0.12701 0.66941 0.07295 0.0
H927 H 0.09945 0.47392 0.06115 0.0
H928 H 0.144 0.53635 0.06178 0.0
H929 H 0.03737 0.60669 0.08112 0.0
H930 H 0.14526 0.7889 0.08707 0.0
H931 H 0.1055 0.72529 0.0857 0.0
C932 C 0.59815 0.77628 0.70645 0.0
C933 C 0.5704 0.78684 0.69959 0.0
C934 C 0.6237 0.74047 0.70604 0.0
C935 C 0.57468 0.65117 0.69505 0.0
H936 H 0.71409 0.61203 0.70708 0.0
C937 C 0.64527 0.49746 0.69162 0.0
C938 C 0.67585 0.4854 0.69814 0.0
C939 C 0.62165 0.53383 0.69243 0.0
C940 C 0.67401 0.62274 0.70384 0.0
H941 H 0.55904 0.77111 0.68669 0.0
H942 H 0.60442 0.70864 0.68598 0.0
H943 H 0.71424 0.67812 0.70628 0.0
H944 H 0.69546 0.4995 0.71093 0.0
H945 H 0.65286 0.56297 0.71236 0.0
H946 H 0.53399 0.59601 0.69265 0.0
C947 C 0.60443 0.72763 0.6917 0.0
C948 C 0.67485 0.66036 0.70328 0.0
C949 C 0.57912 0.76352 0.6921 0.0
C950 C 0.67295 0.50824 0.70576 0.0
C951 C 0.64932 0.5447 0.70657 0.0
C952 C 0.57363 0.61363 0.69563 0.0
C953 C 0.62197 0.71505 0.69876 0.0
C954 C 0.62552 0.6748 0.69882 0.0
C955 C 0.62798 0.55847 0.69978 0.0
C956 C 0.62349 0.599 0.7 0.0
H957 H 0.59318 0.79406 0.71229 0.0
H958 H 0.63766 0.73157 0.71156 0.0
H959 H 0.53478 0.6619 0.69177 0.0
H960 H 0.64578 0.48013 0.6857 0.0
H961 H 0.60492 0.54354 0.6871 0.0
C962 C 0.09992 0.27673 0.70607 0.0
C963 C 0.07145 0.28746 0.69927 0.0
C964 C 0.12602 0.241 0.70557 0.0
C965 C 0.07766 0.15176 0.69444 0.0
H966 H 0.21719 0.11274 0.70648 0.0
C967 C 0.14803 0.99788 0.69112 0.0
C968 C 0.17787 0.98586 0.69769 0.0
C969 C 0.12496 0.03432 0.69186 0.0
C970 C 0.17712 0.12341 0.70323 0.0
H971 H 0.05943 0.27216 0.68636 0.0
H972 H 0.1058 0.20982 0.6855 0.0
H973 H 0.21696 0.17886 0.70571 0.0
H974 H 0.19693 1.00026 0.71049 0.0
H975 H 0.1553 0.06388 0.7118 0.0
H976 H 0.03737 0.0965 0.692 0.0
C977 C 0.10591 0.22861 0.69125 0.0
C978 C 0.17772 0.16106 0.70269 0.0
C979 C 0.08001 0.26443 0.69174 0.0
C980 C 0.17493 1.00893 0.70529 0.0
C981 C 0.15188 0.04548 0.70603 0.0
C982 C 0.07689 0.11418 0.695 0.0
C983 C 0.12415 0.2158 0.69826 0.0
C984 C 0.12825 0.17548 0.69825 0.0
C985 C 0.13113 0.05912 0.6992 0.0
C986 C 0.12673 0.09961 0.69937 0.0
H987 H 0.09516 0.2943 0.71193 0.0
H988 H 0.14053 0.23193 0.71106 0.0
H989 H 0.03766 0.16244 0.69117 0.0
H990 H 0.14863 0.98038 0.68522 0.0
H991 H 0.10869 0.04394 0.6865 0.0
C992 C 0.22811 0.9911 0.44179 0.0
C993 C 0.22355 0.01616 0.44915 0.0
C994 C 0.26653 0.95823 0.44111 0.0
C995 C 0.33875 0.89375 0.45361 0.0
H996 H 0.44997 0.85846 0.43505 0.0
C997 C 0.52913 0.77159 0.45269 0.0
C998 C 0.53862 0.74703 0.44535 0.0
C999 C 0.48956 0.80386 0.45313 0.0
C1000 C 0.41854 0.86754 0.44024 0.0
H1001 H 0.25764 0.02604 0.46153 0.0
H1002 H 0.32385 0.96959 0.46032 0.0
H1003 H 0.38354 0.91507 0.43562 0.0
H1004 H 0.51187 0.73724 0.43272 0.0
H1005 H 0.44274 0.79256 0.43353 0.0
H1006 H 0.37333 0.84625 0.45823 0.0
C1007 C 0.2972 0.97488 0.45508 0.0
C1008 C 0.38034 0.90015 0.44057 0.0
C1009 C 0.25939 1.00762 0.45575 0.0
C1010 C 0.5063 0.75539 0.4385 0.0
C1011 C 0.46685 0.7875 0.43894 0.0
C1012 C 0.37672 0.8611 0.45328 0.0
C1013 C 0.30092 0.94942 0.44779 0.0
C1014 C 0.34013 0.91389 0.44728 0.0
C1015 C 0.45829 0.81252 0.44624 0.0
C1016 C 0.41744 0.84747 0.4466 0.0
H1017 H 0.20121 0.99655 0.43658 0.0
H1018 H 0.26792 0.93926 0.4354 0.0
H1019 H 0.30758 0.903 0.45882 0.0
H1020 H 0.55334 0.76632 0.45809 0.0
H1021 H 0.48487 0.82249 0.45886 0.0
C1022 C 0.03318 0.27317 0.45277 0.0
C1023 C 0.03878 0.24718 0.44556 0.0
C1024 C 0.99356 0.30542 0.4532 0.0
C1025 C 0.91369 0.36567 0.44012 0.0
H1026 H 0.81606 0.40667 0.45947 0.0
C1027 C 0.72385 0.48967 0.442 0.0
C1028 C 0.72355 0.5163 0.44916 0.0
C1029 C 0.76224 0.45681 0.44136 0.0
C1030 C 0.84349 0.39587 0.45403 0.0
H1031 H 0.0048 0.23467 0.4332 0.0
H1032 H 0.93527 0.28989 0.434 0.0
H1033 H 0.88149 0.34987 0.45892 0.0
H1034 H 0.76551 0.52909 0.46117 0.0
H1035 H 0.83184 0.47266 0.46001 0.0
H1036 H 0.87516 0.41169 0.43523 0.0
C1037 C 0.96267 0.28605 0.4393 0.0
C1038 C 0.88131 0.36317 0.45372 0.0
C1039 C 0.00236 0.25402 0.43886 0.0
C1040 C 0.7638 0.50938 0.45556 0.0
C1041 C 0.80171 0.47667 0.45493 0.0
C1042 C 0.8756 0.39832 0.44042 0.0
C1043 C 0.95814 0.31257 0.44644 0.0
C1044 C 0.91727 0.34753 0.44677 0.0
C1045 C 0.80103 0.44961 0.44786 0.0
C1046 C 0.8402 0.41407 0.4474 0.0
H1047 H 0.0607 0.26911 0.45805 0.0
H1048 H 0.99216 0.32521 0.4588 0.0
H1049 H 0.9414 0.35507 0.43469 0.0
H1050 H 0.69345 0.49383 0.43695 0.0
H1051 H 0.76012 0.43659 0.43583 0.0
C1052 C 0.26323 0.25997 0.81736 0.0
C1053 C 0.22587 0.25224 0.82392 0.0
C1054 C 0.3012 0.29262 0.81798 0.0
C1055 C 0.38179 0.36854 0.8324 0.0
H1056 H 0.37704 0.42085 0.81447 0.0
C1057 C 0.50655 0.51327 0.83427 0.0
C1058 C 0.53984 0.52125 0.82745 0.0
C1059 C 0.46721 0.48116 0.83383 0.0
C1060 C 0.3798 0.40644 0.8195 0.0
H1061 H 0.20109 0.2731 0.83637 0.0
H1062 H 0.2681 0.33022 0.83747 0.0
H1063 H 0.31176 0.36397 0.81394 0.0
H1064 H 0.55641 0.50135 0.81477 0.0
H1065 H 0.48823 0.44507 0.81401 0.0
H1066 H 0.45037 0.41075 0.83793 0.0
C1067 C 0.26775 0.3107 0.83183 0.0
C1068 C 0.34211 0.37373 0.8192 0.0
C1069 C 0.22918 0.27794 0.8312 0.0
C1070 C 0.53138 0.49636 0.82013 0.0
C1071 C 0.49201 0.46403 0.8197 0.0
C1072 C 0.41975 0.40119 0.83268 0.0
C1073 C 0.30353 0.31874 0.82518 0.0
C1074 C 0.34265 0.35421 0.82563 0.0
C1075 C 0.45986 0.45573 0.82657 0.0
C1076 C 0.4194 0.4207 0.82624 0.0
H1077 H 0.26248 0.241 0.81165 0.0
H1078 H 0.32898 0.29735 0.81277 0.0
H1079 H 0.38429 0.35408 0.83742 0.0
H1080 H 0.51126 0.53175 0.84002 0.0
H1081 H 0.44231 0.47638 0.83922 0.0
C1082 C 0.76135 0.76047 0.81741 0.0
C1083 C 0.7239 0.75266 0.82395 0.0
C1084 C 0.79923 0.79317 0.81804 0.0
C1085 C 0.87908 0.86925 0.83252 0.0
H1086 H 0.87552 0.92127 0.81455 0.0
C1087 C 0.00423 0.01394 0.83438 0.0
C1088 C 0.03796 0.02175 0.82758 0.0
C1089 C 0.96475 0.98187 0.83394 0.0
C1090 C 0.87794 0.90695 0.81959 0.0
H1091 H 0.69882 0.77343 0.8364 0.0
H1092 H 0.76557 0.83065 0.83753 0.0
H1093 H 0.81022 0.86439 0.81399 0.0
H1094 H 0.05519 1.00159 0.81492 0.0
H1095 H 0.9868 0.9454 0.81415 0.0
H1096 H 0.94731 0.91157 0.83809 0.0
C1097 C 0.76543 0.81116 0.83188 0.0
C1098 C 0.84024 0.87423 0.81928 0.0
C1099 C 0.727 0.77833 0.83124 0.0
C1100 C 0.0298 0.99674 0.82027 0.0
C1101 C 0.99031 0.96446 0.81984 0.0
C1102 C 0.91702 0.90192 0.83282 0.0
C1103 C 0.80134 0.81927 0.82525 0.0
C1104 C 0.84038 0.85479 0.82572 0.0
C1105 C 0.95771 0.95632 0.8267 0.0
C1106 C 0.91713 0.92132 0.82635 0.0
H1107 H 0.7608 0.74152 0.81169 0.0
H1108 H 0.82713 0.79793 0.81285 0.0
H1109 H 0.88127 0.85487 0.83755 0.0
H1110 H 0.0087 0.03252 0.84012 0.0
H1111 H 0.93951 0.97721 0.83932 0.0
C1112 C 0.47567 0.24677 0.57013 0.0
C1113 C 0.46585 0.27112 0.5775 0.0
C1114 C 0.51564 0.21463 0.56967 0.0
C1115 C 0.58677 0.15089 0.58252 0.0
H1116 H 0.6984 0.11581 0.56399 0.0
C1117 C 0.77714 0.02745 0.58102 0.0
C1118 C 0.78163 1.00235 0.57367 0.0
C1119 C 0.73899 0.0604 0.58168 0.0
C1120 C 0.66705 0.12497 0.56919 0.0
H1121 H 0.49262 0.28079 0.59012 0.0
H1122 H 0.56242 0.22573 0.58927 0.0
H1123 H 0.63235 0.17248 0.56458 0.0
H1124 H 0.74795 0.99256 0.56127 0.0
H1125 H 0.68223 0.04917 0.56245 0.0
H1126 H 0.62182 0.10335 0.58713 0.0
C1127 C 0.53822 0.23082 0.58386 0.0
C1128 C 0.62891 0.15756 0.56952 0.0
C1129 C 0.49837 0.26277 0.58433 0.0
C1130 C 0.74618 0.01099 0.56705 0.0
C1131 C 0.70866 0.04383 0.5677 0.0
C1132 C 0.62512 0.11835 0.5822 0.0
C1133 C 0.54697 0.20593 0.57655 0.0
C1134 C 0.58796 0.17104 0.57618 0.0
C1135 C 0.70485 0.06926 0.57499 0.0
C1136 C 0.66558 0.10475 0.57551 0.0
H1137 H 0.45129 0.25205 0.56475 0.0
H1138 H 0.52052 0.1961 0.56393 0.0
H1139 H 0.55513 0.15985 0.58771 0.0
H1140 H 0.80374 0.02191 0.58624 0.0
H1141 H 0.73753 0.07937 0.5874 0.0
C1142 C 0.27319 0.52815 0.58119 0.0
C1143 C 0.27323 0.50143 0.57406 0.0
C1144 C 0.23396 0.56072 0.58188 0.0
C1145 C 0.09011 0.60237 0.57221 0.0
H1146 H 0.16299 0.69628 0.58328 0.0
C1147 C 0.96357 0.74444 0.57038 0.0
C1148 C 0.95982 0.771 0.57753 0.0
C1149 C 0.0024 0.71193 0.56997 0.0
C1150 C 0.14148 0.67028 0.58022 0.0
H1151 H 0.23051 0.48835 0.56209 0.0
H1152 H 0.16379 0.54452 0.56326 0.0
H1153 H 0.2269 0.63894 0.58289 0.0
H1154 H 0.99586 0.78409 0.5898 0.0
H1155 H 0.06299 0.72794 0.58907 0.0
H1156 H 0.00496 0.63377 0.56949 0.0
C1157 C 0.19304 0.54036 0.5684 0.0
C1158 C 0.17818 0.63723 0.58002 0.0
C1159 C 0.23197 0.50799 0.56771 0.0
C1160 C 0.99728 0.76445 0.58418 0.0
C1161 C 0.0363 0.73217 0.58375 0.0
C1162 C 0.05359 0.63541 0.57239 0.0
C1163 C 0.19358 0.56746 0.57546 0.0
C1164 C 0.15324 0.60271 0.57598 0.0
C1165 C 0.039 0.70518 0.57667 0.0
C1166 C 0.0787 0.66992 0.57638 0.0
H1167 H 0.30427 0.52423 0.58621 0.0
H1168 H 0.23525 0.5806 0.58747 0.0
H1169 H 0.0683 0.57642 0.56917 0.0
H1170 H 0.93545 0.74836 0.56514 0.0
H1171 H 0.00379 0.69207 0.56438 0.0
C1172 C 0.50511 0.50468 0.1894 0.0
C1173 C 0.46617 0.49847 0.19596 0.0
C1174 C 0.54416 0.53695 0.18986 0.0
C1175 C 0.55811 0.63422 0.20093 0.0
H1176 H 0.73385 0.63082 0.19101 0.0
C1177 C 0.73349 0.76289 0.20552 0.0
C1178 C 0.77602 0.76893 0.19924 0.0
C1179 C 0.6952 0.73032 0.20489 0.0
C1180 C 0.68446 0.63247 0.19371 0.0
H1181 H 0.43923 0.52163 0.20824 0.0
H1182 H 0.50761 0.57799 0.20906 0.0
H1183 H 0.67081 0.57323 0.19068 0.0
H1184 H 0.81002 0.74504 0.18727 0.0
H1185 H 0.74211 0.68831 0.18609 0.0
H1186 H 0.57123 0.69339 0.2039 0.0
C1187 C 0.5074 0.55783 0.20351 0.0
C1188 C 0.64828 0.5993 0.19355 0.0
C1189 C 0.4686 0.52529 0.20307 0.0
C1190 C 0.77791 0.74152 0.19222 0.0
C1191 C 0.73932 0.70875 0.19159 0.0
C1192 C 0.5941 0.66739 0.20106 0.0
C1193 C 0.54533 0.56428 0.19688 0.0
C1194 C 0.58462 0.59963 0.19718 0.0
C1195 C 0.6977 0.70252 0.19794 0.0
C1196 C 0.65807 0.66709 0.19749 0.0
H1197 H 0.50473 0.48479 0.18381 0.0
H1198 H 0.57197 0.54095 0.1846 0.0
H1199 H 0.50879 0.6358 0.20365 0.0
H1200 H 0.73053 0.78309 0.21105 0.0
H1201 H 0.66491 0.72657 0.20997 0.0
C1202 C 0.23395 0.26214 0.20535 0.0
C1203 C 0.27607 0.26829 0.19905 0.0
C1204 C 0.19503 0.22978 0.20469 0.0
C1205 C 0.18179 0.13239 0.19333 0.0
H1206 H 0.00701 0.13627 0.2035 0.0
C1207 C 0.00094 1.00523 0.18911 0.0
C1208 C 0.96247 0.99901 0.19571 0.0
C1209 C 0.04016 0.03742 0.18955 0.0
C1210 C 0.05607 0.13452 0.20071 0.0
H1211 H 0.30867 0.2448 0.18699 0.0
H1212 H 0.2397 0.18842 0.18577 0.0
H1213 H 0.07032 0.1936 0.20377 0.0
H1214 H 0.93654 0.02212 0.20803 0.0
H1215 H 0.00523 0.07832 0.20881 0.0
H1216 H 0.16706 0.07325 0.19022 0.0
C1217 C 0.2377 0.20863 0.19131 0.0
C1218 C 0.09257 0.16754 0.20085 0.0
C1219 C 0.2769 0.24119 0.19197 0.0
C1220 C 0.96548 0.02578 0.20283 0.0
C1221 C 0.00449 0.05824 0.20325 0.0
C1222 C 0.14512 0.09936 0.19316 0.0
C1223 C 0.19649 0.20229 0.19769 0.0
C1224 C 0.15624 0.16705 0.1972 0.0
C1225 C 0.04204 0.06467 0.19659 0.0
C1226 C 0.08177 0.09988 0.19687 0.0
H1227 H 0.23178 0.2821 0.21092 0.0
H1228 H 0.16509 0.22594 0.2098 0.0
H1229 H 0.23093 0.13057 0.19057 0.0
H1230 H 1.00012 0.98538 0.18352 0.0
H1231 H 0.06762 0.04141 0.18427 0.0
C1232 C 0.25164 0.50562 0.95611 0.0
C1233 C 0.22101 0.51606 0.94937 0.0
C1234 C 0.28912 0.47277 0.95543 0.0
C1235 C 0.38294 0.40239 0.94109 0.0
H1236 H 0.36314 0.34262 0.95763 0.0
C1237 C 0.51272 0.25856 0.93859 0.0
C1238 C 0.54032 0.2487 0.94556 0.0
C1239 C 0.47232 0.29026 0.93901 0.0
C1240 C 0.37007 0.35914 0.95301 0.0
H1241 H 0.20732 0.49966 0.93653 0.0
H1242 H 0.27375 0.4422 0.93532 0.0
H1243 H 0.29603 0.39894 0.95821 0.0
H1244 H 0.54546 0.26484 0.95849 0.0
H1245 H 0.4751 0.32033 0.95922 0.0
H1246 H 0.45748 0.36285 0.93593 0.0
C1247 C 0.2684 0.45976 0.94116 0.0
C1248 C 0.33133 0.39151 0.95333 0.0
C1249 C 0.23014 0.4927 0.94186 0.0
C1250 C 0.52506 0.27132 0.953 0.0
C1251 C 0.48442 0.30318 0.95341 0.0
C1252 C 0.42188 0.37006 0.94078 0.0
C1253 C 0.29781 0.44915 0.94797 0.0
C1254 C 0.33739 0.41375 0.9474 0.0
C1255 C 0.45797 0.31335 0.9464 0.0
C1256 C 0.4162 0.34793 0.94675 0.0
H1257 H 0.24605 0.52261 0.96202 0.0
H1258 H 0.31177 0.46602 0.96078 0.0
H1259 H 0.38977 0.41899 0.93648 0.0
H1260 H 0.5228 0.24193 0.93274 0.0
H1261 H 0.45204 0.29655 0.93349 0.0
C1262 C 0.03661 0.77517 0.95291 0.0
C1263 C 0.03939 0.74834 0.9458 0.0
C1264 C 0.99803 0.80775 0.95331 0.0
C1265 C 0.85814 0.84927 0.94321 0.0
H1266 H 0.93455 0.94332 0.95369 0.0
C1267 C 0.72839 0.99139 0.94191 0.0
C1268 C 0.72943 0.01853 0.94898 0.0
C1269 C 0.7673 0.95875 0.94126 0.0
C1270 C 0.91188 0.91732 0.95081 0.0
H1271 H 0.00178 0.73473 0.9336 0.0
H1272 H 0.93495 0.79099 0.93432 0.0
H1273 H 0.99698 0.88573 0.95346 0.0
H1274 H 0.77391 0.0324 0.96084 0.0
H1275 H 0.84015 0.97608 0.95974 0.0
H1276 H 0.77277 0.88078 0.94061 0.0
C1277 C 0.96229 0.78694 0.93961 0.0
C1278 C 0.94786 0.88416 0.95069 0.0
C1279 C 0.0011 0.75462 0.93919 0.0
C1280 C 0.77157 0.01239 0.95528 0.0
C1281 C 0.81021 0.97995 0.95463 0.0
C1282 C 0.82199 0.88243 0.94336 0.0
C1283 C 0.96071 0.81425 0.94664 0.0
C1284 C 0.92154 0.8496 0.9469 0.0
C1285 C 0.80843 0.95239 0.94764 0.0
C1286 C 0.84816 0.91702 0.94718 0.0
H1287 H 0.06547 0.77145 0.95811 0.0
H1288 H 0.99749 0.8279 0.95886 0.0
H1289 H 0.83577 0.82321 0.94031 0.0
H1290 H 0.6966 0.99501 0.93693 0.0
H1291 H 0.7651 0.93849 0.93573 0.0
C1292 C 0.26018 0.76192 0.31745 0.0
C1293 C 0.22252 0.75397 0.32397 0.0
C1294 C 0.29782 0.79472 0.31811 0.0
C1295 C 0.37695 0.87095 0.33264 0.0
H1296 H 0.375 0.92272 0.31463 0.0
C1297 C 0.50371 0.01541 0.33451 0.0
C1298 C 0.53766 0.02312 0.32771 0.0
C1299 C 0.46397 0.9834 0.33407 0.0
C1300 C 0.37699 0.90848 0.31969 0.0
H1301 H 0.19676 0.77471 0.33639 0.0
H1302 H 0.26314 0.83212 0.33757 0.0
H1303 H 0.30937 0.86594 0.31405 0.0
H1304 H 0.55503 1.00279 0.31505 0.0
H1305 H 0.4862 0.94677 0.31429 0.0
H1306 H 0.44512 0.91324 0.33825 0.0
C1307 C 0.26333 0.81263 0.33192 0.0
C1308 C 0.33907 0.8758 0.31936 0.0
C1309 C 0.22509 0.77969 0.33125 0.0
C1310 C 0.52949 0.99804 0.32041 0.0
C1311 C 0.48972 0.96585 0.31997 0.0
C1312 C 0.41512 0.90357 0.33296 0.0
C1313 C 0.29955 0.82084 0.32531 0.0
C1314 C 0.33863 0.85642 0.32582 0.0
C1315 C 0.45683 0.95781 0.32683 0.0
C1316 C 0.41587 0.92288 0.32648 0.0
H1317 H 0.26003 0.74297 0.31173 0.0
H1318 H 0.32592 0.79954 0.31293 0.0
H1319 H 0.37873 0.85663 0.33769 0.0
H1320 H 0.5082 0.03401 0.34024 0.0
H1321 H 0.43858 0.97885 0.33945 0.0
C1322 C 0.00146 0.5166 0.33421 0.0
C1323 C 0.03925 0.523 0.32757 0.0
C1324 C 0.96218 0.48443 0.33378 0.0
C1325 C 0.88467 0.40582 0.31939 0.0
H1326 H 0.87514 0.35915 0.33812 0.0
C1327 C 0.76748 0.25971 0.31781 0.0
C1328 C 0.72597 0.25335 0.32415 0.0
C1329 C 0.80552 0.29237 0.31842 0.0
C1330 C 0.87654 0.37199 0.33286 0.0
H1331 H 0.06406 0.50015 0.31521 0.0
H1332 H 0.99622 0.4438 0.31448 0.0
H1333 H 0.94078 0.41594 0.33862 0.0
H1334 H 0.69382 0.27669 0.33623 0.0
H1335 H 0.76063 0.33386 0.33732 0.0
H1336 H 0.82094 0.36165 0.31361 0.0
C1337 C 0.99623 0.46404 0.32002 0.0
C1338 C 0.91428 0.40474 0.33314 0.0
C1339 C 0.03542 0.49643 0.32043 0.0
C1340 C 0.72523 0.28042 0.33123 0.0
C1341 C 0.76369 0.31324 0.33185 0.0
C1342 C 0.84719 0.37303 0.3191 0.0
C1343 C 0.95946 0.45733 0.32672 0.0
C1344 C 0.91904 0.42223 0.3264 0.0
C1345 C 0.80365 0.31993 0.3254 0.0
C1346 C 0.84267 0.35549 0.32582 0.0
H1347 H 0.00252 0.5364 0.33981 0.0
H1348 H 0.93368 0.48093 0.33902 0.0
H1349 H 0.88582 0.41861 0.31412 0.0
H1350 H 0.77005 0.23961 0.31226 0.0
H1351 H 0.83661 0.29597 0.31338 0.0
C1352 C 0.47821 0.74987 0.07033 0.0
C1353 C 0.46069 0.77169 0.07778 0.0
C1354 C 0.51863 0.71794 0.06993 0.0
C1355 C 0.57668 0.64927 0.08238 0.0
H1356 H 0.70896 0.62328 0.06556 0.0
C1357 C 0.76981 0.52738 0.08155 0.0
C1358 C 0.78112 0.5048 0.074 0.0
C1359 C 0.7312 0.5602 0.08226 0.0
C1360 C 0.67187 0.62992 0.07027 0.0
H1361 H 0.47362 0.77679 0.09065 0.0
H1362 H 0.54392 0.72204 0.08993 0.0
H1363 H 0.64137 0.67941 0.06612 0.0
H1364 H 0.75983 0.49959 0.06128 0.0
H1365 H 0.69366 0.556 0.06253 0.0
H1366 H 0.60756 0.59973 0.08654 0.0
C1367 C 0.52571 0.72906 0.08438 0.0
C1368 C 0.63284 0.66216 0.07058 0.0
C1369 C 0.48558 0.76085 0.08478 0.0
C1370 C 0.75247 0.51595 0.06722 0.0
C1371 C 0.71474 0.54869 0.06791 0.0
C1372 C 0.61593 0.61707 0.08209 0.0
C1373 C 0.54253 0.70686 0.07696 0.0
C1374 C 0.5844 0.67233 0.07662 0.0
C1375 C 0.70375 0.5715 0.07542 0.0
C1376 C 0.66382 0.60677 0.076 0.0
H1377 H 0.45992 0.75712 0.06481 0.0
H1378 H 0.52989 0.70147 0.0641 0.0
H1379 H 0.53929 0.65569 0.08706 0.0
H1380 H 0.79104 0.51983 0.08691 0.0
H1381 H 0.724 0.57713 0.08814 0.0
C1382 C 0.27525 0.02969 0.08116 0.0
C1383 C 0.27566 1.00308 0.074 0.0
C1384 C 0.23686 0.06253 0.0818 0.0
C1385 C 0.15622 0.12344 0.06909 0.0
H1386 H 0.05861 0.16464 0.08843 0.0
C1387 C 0.96786 0.24666 0.07036 0.0
C1388 C 0.96279 0.27274 0.07757 0.0
C1389 C 0.00709 0.21429 0.06993 0.0
C1390 C 0.08625 0.15391 0.08301 0.0
H1391 H 0.23374 0.99019 0.06199 0.0
H1392 H 0.16732 0.0466 0.06314 0.0
H1393 H 0.12417 0.10779 0.0879 0.0
H1394 H 0.99731 0.28533 0.0899 0.0
H1395 H 0.06621 0.22986 0.0891 0.0
H1396 H 0.11879 0.16954 0.0642 0.0
C1397 C 0.19744 0.04261 0.06822 0.0
C1398 C 0.12393 0.12114 0.08271 0.0
C1399 C 0.23539 1.00993 0.0676 0.0
C1400 C 0.99936 0.2659 0.08425 0.0
C1401 C 0.03867 0.23374 0.08381 0.0
C1402 C 0.11879 0.15625 0.0694 0.0
C1403 C 0.19815 0.0697 0.07528 0.0
C1404 C 0.15923 0.10528 0.07573 0.0
C1405 C 0.04262 0.20712 0.07668 0.0
C1406 C 0.08299 0.17202 0.07635 0.0
H1407 H 0.30567 0.02557 0.08621 0.0
H1408 H 0.23899 0.08278 0.08732 0.0
H1409 H 0.1836 0.11253 0.06366 0.0
H1410 H 0.94018 0.25073 0.0651 0.0
H1411 H 0.0081 0.19441 0.06435 0.0
C1412 C 0.49265 1.00593 0.68853 0.0
C1413 C 0.46164 0.99716 0.69542 0.0
C1414 C 0.53227 0.03795 0.68897 0.0
C1415 C 0.6258 0.11026 0.70321 0.0
H1416 H 0.6147 0.16597 0.68586 0.0
C1417 C 0.7431 0.25683 0.70584 0.0
C1418 C 0.77737 0.26592 0.69919 0.0
C1419 C 0.70545 0.22404 0.70518 0.0
C1420 C 0.61911 0.15055 0.69071 0.0
H1421 H 0.44948 0.01561 0.70823 0.0
H1422 H 0.5184 0.07164 0.70899 0.0
H1423 H 0.54798 0.10946 0.68531 0.0
H1424 H 0.7971 0.24724 0.68653 0.0
H1425 H 0.73055 0.18987 0.68535 0.0
H1426 H 0.69646 0.15156 0.70864 0.0
C1427 C 0.51245 0.05339 0.70323 0.0
C1428 C 0.58074 0.11801 0.6904 0.0
C1429 C 0.47264 0.02121 0.7028 0.0
C1430 C 0.77145 0.24135 0.69178 0.0
C1431 C 0.73312 0.20844 0.6911 0.0
C1432 C 0.66396 0.14284 0.70353 0.0
C1433 C 0.54236 0.06247 0.6963 0.0
C1434 C 0.58337 0.09734 0.69665 0.0
C1435 C 0.70027 0.19911 0.69783 0.0
C1436 C 0.66103 0.1636 0.6973 0.0
H1437 H 0.48589 0.98818 0.68273 0.0
H1438 H 0.5553 0.04337 0.68352 0.0
H1439 H 0.63037 0.09492 0.70807 0.0
H1440 H 0.74598 0.27484 0.71166 0.0
H1441 H 0.68002 0.21833 0.71046 0.0
C1442 C 0.99543 0.50486 0.68879 0.0
C1443 C 0.96083 0.49749 0.69557 0.0
C1444 C 0.03507 0.53688 0.6892 0.0
C1445 C 0.12027 0.61266 0.70355 0.0
H1446 H 0.12085 0.66315 0.68534 0.0
C1447 C 0.23696 0.75906 0.70556 0.0
C1448 C 0.2758 0.76647 0.69908 0.0
C1449 C 0.19913 0.72634 0.70492 0.0
C1450 C 0.12196 0.64922 0.69045 0.0
H1451 H 0.94215 0.51844 0.70817 0.0
H1452 H 0.01073 0.57452 0.70889 0.0
H1453 H 0.05452 0.60656 0.68483 0.0
H1454 H 0.30341 0.7449 0.68675 0.0
H1455 H 0.23671 0.68762 0.68561 0.0
H1456 H 0.18711 0.65559 0.70919 0.0
C1457 C 0.00785 0.55516 0.70324 0.0
C1458 C 0.08384 0.6166 0.69016 0.0
C1459 C 0.96823 0.52293 0.70283 0.0
C1460 C 0.27414 0.74034 0.69186 0.0
C1461 C 0.23575 0.70747 0.69121 0.0
C1462 C 0.15811 0.64534 0.70385 0.0
C1463 C 0.04142 0.56284 0.6964 0.0
C1464 C 0.08227 0.59777 0.69672 0.0
C1465 C 0.19844 0.69977 0.69778 0.0
C1466 C 0.15937 0.66423 0.69731 0.0
H1467 H 0.99156 0.48595 0.68308 0.0
H1468 H 0.06102 0.54114 0.68384 0.0
H1469 H 0.12164 0.59881 0.70867 0.0
H1470 H 0.23634 0.77837 0.71123 0.0
H1471 H 0.17015 0.72191 0.71006 0.0
C1472 C 0.3027 0.2074 0.41358 0.0
C1473 C 0.27453 0.17299 0.41443 0.0
C1474 C 0.33518 0.21155 0.40646 0.0
C1475 C 0.34636 0.17075 0.38481 0.0
H1476 H 0.51793 0.22152 0.38578 0.0
C1477 C 0.48559 0.19537 0.35605 0.0
C1478 C 0.55238 0.18279 0.35557 0.0
C1479 C 0.45013 0.19949 0.36333 0.0
C1480 C 0.46987 0.20745 0.3854 0.0
H1481 H 0.25865 0.11591 0.40843 0.0
H1482 H 0.31448 0.12323 0.39597 0.0
H1483 H 0.4592 0.21655 0.39819 0.0
H1484 H 0.63516 0.16646 0.36243 0.0
H1485 H 0.57472 0.17502 0.37512 0.0
H1486 H 0.35753 0.16124 0.37201 0.0
C1487 C 0.31129 0.1471 0.40081 0.0
C1488 C 0.43601 0.20474 0.39252 0.0
C1489 C 0.27958 0.14283 0.40797 0.0
C1490 C 0.58403 0.17663 0.36262 0.0
C1491 C 0.54925 0.18147 0.3699 0.0
C1492 C 0.37979 0.17393 0.37769 0.0
C1493 C 0.33962 0.18151 0.39995 0.0
C1494 C 0.37421 0.1859 0.39234 0.0
C1495 C 0.48122 0.19183 0.37032 0.0
C1496 C 0.44244 0.19188 0.37788 0.0
H1497 H 0.29972 0.2312 0.41844 0.0
H1498 H 0.35599 0.2385 0.406 0.0
H1499 H 0.29861 0.15636 0.38443 0.0
H1500 H 0.4595 0.19966 0.35069 0.0
H1501 H 0.39787 0.20774 0.36346 0.0
C1502 C 0.803 0.06316 0.35961 0.0
C1503 C 0.77472 0.09754 0.35876 0.0
C1504 C 0.83552 0.05906 0.36674 0.0
C1505 C 0.84656 0.09984 0.38838 0.0
H1506 H 0.01822 0.04918 0.38742 0.0
C1507 C 0.98565 0.07508 0.41714 0.0
C1508 C 0.05241 0.08772 0.41762 0.0
C1509 C 0.95024 0.071 0.40985 0.0
C1510 C 0.97013 0.06322 0.3878 0.0
H1511 H 0.7587 0.15461 0.36476 0.0
H1512 H 0.81462 0.14737 0.37722 0.0
H1513 H 0.95955 0.05418 0.375 0.0
H1514 H 0.13519 0.10418 0.41079 0.0
H1515 H 0.07483 0.0957 0.39809 0.0
H1516 H 0.85763 0.10929 0.40118 0.0
C1517 C 0.81148 0.1235 0.37238 0.0
C1518 C 0.93632 0.06595 0.38067 0.0
C1519 C 0.77972 0.12772 0.36522 0.0
C1520 C 0.08409 0.09397 0.41059 0.0
C1521 C 0.04935 0.08918 0.4033 0.0
C1522 C 0.87994 0.09665 0.39551 0.0
C1523 C 0.8399 0.08911 0.37324 0.0
C1524 C 0.87448 0.08475 0.38086 0.0
C1525 C 0.98135 0.07876 0.40287 0.0
C1526 C 0.94262 0.07873 0.39531 0.0
H1527 H 0.80004 0.03934 0.35476 0.0
H1528 H 0.8564 0.03213 0.3672 0.0
H1529 H 0.79877 0.1142 0.38876 0.0
H1530 H 0.95956 0.07071 0.42249 0.0
H1531 H 0.898 0.0627 0.40972 0.0
C1532 C 0.49371 0.07553 0.91677 0.0
C1533 C 0.55826 0.09134 0.9176 0.0
C1534 C 0.45869 0.07237 0.90945 0.0
C1535 C 0.45672 0.11735 0.89145 0.0
H1536 H 0.33386 0.03825 0.88252 0.0
C1537 C 0.33887 0.11042 0.86006 0.0
C1538 C 0.27135 0.09956 0.85897 0.0
C1539 C 0.37294 0.10742 0.86714 0.0
C1540 C 0.36751 0.06078 0.88497 0.0
H1541 H 0.63841 0.11349 0.91124 0.0
H1542 H 0.57937 0.10668 0.89855 0.0
H1543 H 0.39527 0.03459 0.89486 0.0
H1544 H 0.18671 0.07694 0.86451 0.0
H1545 H 0.24588 0.07197 0.8769 0.0
H1546 H 0.42913 0.14371 0.88166 0.0
C1547 C 0.55431 0.09787 0.90355 0.0
C1548 C 0.40281 0.05864 0.89206 0.0
C1549 C 0.58869 0.10132 0.91082 0.0
C1550 C 0.23879 0.08548 0.86514 0.0
C1551 C 0.27291 0.08241 0.87223 0.0
C1552 C 0.42166 0.11946 0.8844 0.0
C1553 C 0.48776 0.08484 0.90283 0.0
C1554 C 0.4485 0.08676 0.89536 0.0
C1555 C 0.34049 0.09347 0.87336 0.0
C1556 C 0.37685 0.09112 0.881 0.0
H1557 H 0.46857 0.06806 0.92191 0.0
H1558 H 0.40758 0.06215 0.90913 0.0
H1559 H 0.48986 0.14014 0.89389 0.0
H1560 H 0.36555 0.12118 0.85541 0.0
H1561 H 0.42515 0.11573 0.86771 0.0
C1562 C 0.80863 0.20799 0.91383 0.0
C1563 C 0.78107 0.17361 0.9148 0.0
C1564 C 0.84091 0.21174 0.90666 0.0
C1565 C 0.8516 0.16976 0.8851 0.0
H1566 H 0.0223 0.22128 0.88579 0.0
C1567 C 0.98712 0.19465 0.85613 0.0
C1568 C 0.05395 0.18215 0.85554 0.0
C1569 C 0.95254 0.1987 0.86347 0.0
C1570 C 0.97447 0.20699 0.88549 0.0
H1571 H 0.76604 0.11617 0.90899 0.0
H1572 H 0.82153 0.1228 0.89646 0.0
H1573 H 0.96467 0.21662 0.8983 0.0
H1574 H 0.13775 0.16576 0.86224 0.0
H1575 H 0.07874 0.17431 0.87505 0.0
H1576 H 0.8618 0.15982 0.87229 0.0
C1577 C 0.81807 0.14693 0.90123 0.0
C1578 C 0.94126 0.20444 0.89266 0.0
C1579 C 0.78659 0.14306 0.90843 0.0
C1580 C 0.08656 0.17596 0.86253 0.0
C1581 C 0.05262 0.18075 0.86987 0.0
C1582 C 0.88433 0.1728 0.87792 0.0
C1583 C 0.84572 0.18133 0.90024 0.0
C1584 C 0.87977 0.18537 0.89258 0.0
C1585 C 0.98455 0.19104 0.8704 0.0
C1586 C 0.94664 0.19105 0.87802 0.0
H1587 H 0.80523 0.23208 0.91861 0.0
H1588 H 0.86117 0.23868 0.90611 0.0
H1589 H 0.80407 0.15517 0.88479 0.0
H1590 H 0.96033 0.19887 0.85081 0.0
H1591 H 0.90022 0.20687 0.86368 0.0
C1592 C 0.51618 0.82498 0.6672 0.0
C1593 C 0.44922 0.83731 0.66765 0.0
C1594 C 0.55177 0.82093 0.65992 0.0
C1595 C 0.53207 0.8128 0.63784 0.0
H1596 H 0.70356 0.86364 0.6388 0.0
C1597 C 0.69881 0.81249 0.60961 0.0
C1598 C 0.72758 0.84676 0.60877 0.0
C1599 C 0.66639 0.80845 0.61675 0.0
C1600 C 0.65573 0.84933 0.63842 0.0
H1601 H 0.36634 0.85325 0.66076 0.0
H1602 H 0.42701 0.84485 0.64809 0.0
H1603 H 0.64453 0.8589 0.65122 0.0
H1604 H 0.74464 0.90369 0.61479 0.0
H1605 H 0.68884 0.89658 0.62726 0.0
H1606 H 0.54273 0.80366 0.62504 0.0
C1607 C 0.45252 0.83854 0.65332 0.0
C1608 C 0.62224 0.84623 0.64555 0.0
C1609 C 0.41759 0.84329 0.66059 0.0
C1610 C 0.72323 0.87688 0.61524 0.0
C1611 C 0.69153 0.87273 0.62242 0.0
C1612 C 0.56596 0.81546 0.63071 0.0
C1613 C 0.52067 0.82842 0.65292 0.0
C1614 C 0.5595 0.82835 0.64536 0.0
C1615 C 0.66255 0.83846 0.62327 0.0
C1616 C 0.62787 0.8342 0.63089 0.0
H1617 H 0.54226 0.82084 0.67257 0.0
H1618 H 0.60411 0.81286 0.65982 0.0
H1619 H 0.48396 0.79877 0.63746 0.0
H1620 H 0.70126 0.78872 0.60475 0.0
H1621 H 0.64511 0.7816 0.6172 0.0
C1622 C 0.01828 0.94336 0.60572 0.0
C1623 C 0.95109 0.93143 0.60529 0.0
C1624 C 0.05374 0.94758 0.61301 0.0
C1625 C 0.03372 0.95689 0.6351 0.0
H1626 H 0.20361 0.90451 0.63425 0.0
C1627 C 0.19946 0.95665 0.66337 0.0
C1628 C 0.22698 0.92217 0.66428 0.0
C1629 C 0.16743 0.96074 0.65622 0.0
C1630 C 0.15623 0.91926 0.6346 0.0
H1631 H 0.86765 0.91645 0.61222 0.0
H1632 H 0.92816 0.92512 0.6249 0.0
H1633 H 0.14517 0.90928 0.6218 0.0
H1634 H 0.24223 0.86492 0.65836 0.0
H1635 H 0.18706 0.87212 0.64585 0.0
H1636 H 0.04422 0.96642 0.6479 0.0
C1637 C 0.95393 0.93098 0.61965 0.0
C1638 C 0.1231 0.92237 0.62745 0.0
C1639 C 0.91911 0.92606 0.61238 0.0
C1640 C 0.22175 0.89188 0.65785 0.0
C1641 C 0.19044 0.89608 0.65066 0.0
C1642 C 0.06728 0.95421 0.64225 0.0
C1643 C 0.02229 0.94066 0.62003 0.0
C1644 C 0.06092 0.94079 0.62761 0.0
C1645 C 0.16276 0.93057 0.64974 0.0
C1646 C 0.12856 0.9349 0.6421 0.0
H1647 H 0.04458 0.94705 0.60033 0.0
H1648 H 0.10625 0.9553 0.6131 0.0
H1649 H 0.98604 0.97135 0.63545 0.0
H1650 H 0.20263 0.98055 0.66821 0.0
H1651 H 0.14716 0.98775 0.65572 0.0
C1652 C 0.76478 0.93579 0.15798 0.0
C1653 C 0.73281 0.92041 0.16401 0.0
C1654 C 0.7308 0.93893 0.15088 0.0
C1655 C 0.58424 0.90046 0.13844 0.0
H1656 H 0.60647 0.98708 0.12843 0.0
C1657 C 0.41486 0.91972 0.11231 0.0
C1658 C 0.44485 0.9301 0.10555 0.0
C1659 C 0.44961 0.92295 0.11955 0.0
C1660 C 0.60012 0.96256 0.13111 0.0
H1661 H 0.63982 0.89654 0.16732 0.0
H1662 H 0.58046 0.90216 0.15502 0.0
H1663 H 0.66814 0.98306 0.14073 0.0
H1664 H 0.53395 0.95398 0.10125 0.0
H1665 H 0.59543 0.9597 0.11399 0.0
H1666 H 0.51672 0.87978 0.12886 0.0
C1667 C 0.63212 0.91141 0.15569 0.0
C1668 C 0.63558 0.9602 0.13817 0.0
C1669 C 0.66606 0.90832 0.16278 0.0
C1670 C 0.50917 0.9462 0.10637 0.0
C1671 C 0.54448 0.94923 0.11367 0.0
C1672 C 0.54894 0.90283 0.13142 0.0
C1673 C 0.66397 0.92667 0.14961 0.0
C1674 C 0.62768 0.92921 0.14198 0.0
C1675 C 0.51596 0.93627 0.12027 0.0
C1676 C 0.55565 0.93406 0.12768 0.0
H1677 H 0.81626 0.94532 0.15873 0.0
H1678 H 0.75738 0.95041 0.14633 0.0
H1679 H 0.57794 0.87572 0.14104 0.0
H1680 H 0.36527 0.90734 0.1119 0.0
H1681 H 0.42505 0.91373 0.12454 0.0
C1682 C 0.91933 0.84097 0.16085 0.0
C1683 C 0.95343 0.83868 0.16799 0.0
C1684 C 0.95374 0.83681 0.15354 0.0
C1685 C 0.11857 0.85434 0.14559 0.0
H1686 H 0.0496 0.79971 0.12545 0.0
C1687 C 0.21258 0.8802 0.1146 0.0
C1688 C 0.22396 0.84868 0.10861 0.0
C1689 C 0.18142 0.87672 0.12185 0.0
C1690 C 0.06984 0.81498 0.13102 0.0
H1691 H 0.05034 0.82995 0.17308 0.0
H1692 H 0.11116 0.82315 0.16028 0.0
H1693 H 0.99306 0.7948 0.13801 0.0
H1694 H 0.21101 0.78879 0.10553 0.0
H1695 H 0.15613 0.78275 0.11812 0.0
H1696 H 0.19453 0.87514 0.1386 0.0
C1697 C 0.05741 0.82757 0.16033 0.0
C1698 C 0.0372 0.81228 0.13822 0.0
C1699 C 0.02253 0.83091 0.16763 0.0
C1700 C 0.20288 0.81365 0.11001 0.0
C1701 C 0.17116 0.81021 0.11722 0.0
C1702 C 0.15066 0.85747 0.13838 0.0
C1703 C 0.0236 0.83125 0.15322 0.0
C1704 C 0.061 0.832 0.1456 0.0
C1705 C 0.16022 0.84167 0.12327 0.0
C1706 C 0.12663 0.83793 0.13098 0.0
H1707 H 0.86633 0.84774 0.16098 0.0
H1708 H 0.92618 0.84012 0.14821 0.0
H1709 H 0.13779 0.87027 0.15115 0.0
H1710 H 0.22821 0.90758 0.11372 0.0
H1711 H 0.17317 0.90162 0.12632 0.0
C1712 C 0.49204 0.69627 0.85653 0.0
C1713 C 0.55617 0.67997 0.85563 0.0
C1714 C 0.45753 0.69958 0.86389 0.0
C1715 C 0.45472 0.65372 0.88173 0.0
H1716 H 0.33592 0.73414 0.89104 0.0
C1717 C 0.33838 0.65968 0.91315 0.0
C1718 C 0.27155 0.67163 0.91437 0.0
C1719 C 0.37232 0.6628 0.90606 0.0
C1720 C 0.36839 0.71123 0.88848 0.0
H1721 H 0.63632 0.65713 0.86187 0.0
H1722 H 0.57788 0.66396 0.87461 0.0
H1723 H 0.39684 0.7378 0.87868 0.0
H1724 H 0.18798 0.69638 0.90908 0.0
H1725 H 0.24686 0.70154 0.89668 0.0
H1726 H 0.42632 0.62693 0.89142 0.0
C1727 C 0.55285 0.67314 0.86966 0.0
C1728 C 0.40342 0.71338 0.88138 0.0
C1729 C 0.58682 0.66965 0.86236 0.0
C1730 C 0.23954 0.68697 0.90834 0.0
C1731 C 0.27351 0.69014 0.90124 0.0
C1732 C 0.41985 0.65157 0.88879 0.0
C1733 C 0.48666 0.68669 0.87046 0.0
C1734 C 0.44768 0.68479 0.87794 0.0
C1735 C 0.34038 0.67796 0.89998 0.0
C1736 C 0.37651 0.68037 0.89232 0.0
H1737 H 0.46677 0.704 0.85143 0.0
H1738 H 0.40668 0.7102 0.86427 0.0
H1739 H 0.48677 0.6306 0.87917 0.0
H1740 H 0.36464 0.64793 0.91769 0.0
H1741 H 0.42401 0.65362 0.9054 0.0
C1742 C 0.0867 0.59803 0.91082 0.0
C1743 C 0.05514 0.5887 0.91759 0.0
C1744 C 0.05302 0.59445 0.9035 0.0
C1745 C 0.90214 0.55577 0.89185 0.0
H1746 H 0.92953 0.6411 0.88156 0.0
C1747 C 0.73992 0.58308 0.86484 0.0
C1748 C 0.77262 0.59768 0.85875 0.0
C1749 C 0.77371 0.57976 0.87194 0.0
C1750 C 0.9218 0.61676 0.88426 0.0
H1751 H 0.96436 0.56635 0.92186 0.0
H1752 H 0.90477 0.56 0.90898 0.0
H1753 H 0.98952 0.63721 0.89383 0.0
H1754 H 0.86675 0.61992 0.85533 0.0
H1755 H 0.92582 0.61396 0.86763 0.0
H1756 H 0.83384 0.53554 0.88224 0.0
C1757 C 0.95611 0.56989 0.90935 0.0
C1758 C 0.9564 0.61448 0.89133 0.0
C1759 C 0.99032 0.57326 0.91672 0.0
C1760 C 0.83996 0.60876 0.85992 0.0
C1761 C 0.87373 0.60548 0.86701 0.0
C1762 C 0.86738 0.55804 0.88474 0.0
C1763 C 0.98623 0.58184 0.90272 0.0
C1764 C 0.9477 0.58383 0.89521 0.0
C1765 C 0.84111 0.59105 0.87315 0.0
C1766 C 0.87708 0.58849 0.88081 0.0
H1767 H 0.13671 0.60991 0.91129 0.0
H1768 H 0.07875 0.60289 0.8985 0.0
H1769 H 0.89427 0.53168 0.89463 0.0
H1770 H 0.68796 0.57436 0.86414 0.0
H1771 H 0.74653 0.56896 0.87654 0.0
C1772 C 0.29683 0.563 0.35993 0.0
C1773 C 0.2711 0.59776 0.35893 0.0
C1774 C 0.32896 0.55889 0.36707 0.0
C1775 C 0.34387 0.60176 0.38859 0.0
H1776 H 0.51036 0.54611 0.38767 0.0
C1777 C 0.48066 0.57619 0.41743 0.0
C1778 C 0.54865 0.58659 0.41777 0.0
C1779 C 0.44487 0.57245 0.41017 0.0
C1780 C 0.46373 0.56159 0.38804 0.0
H1781 H 0.25903 0.65548 0.3647 0.0
H1782 H 0.31453 0.64829 0.37719 0.0
H1783 H 0.45195 0.55139 0.37526 0.0
H1784 H 0.63303 0.59949 0.41073 0.0
H1785 H 0.57186 0.59153 0.39809 0.0
H1786 H 0.35624 0.61237 0.40138 0.0
C1787 C 0.30964 0.62411 0.37246 0.0
C1788 C 0.43002 0.56447 0.38092 0.0
C1789 C 0.27815 0.6283 0.36527 0.0
C1790 C 0.58095 0.59095 0.41063 0.0
C1791 C 0.54575 0.58648 0.40338 0.0
C1792 C 0.37714 0.59845 0.39572 0.0
C1793 C 0.3356 0.58935 0.37346 0.0
C1794 C 0.37004 0.58499 0.38108 0.0
C1795 C 0.47673 0.57833 0.40309 0.0
C1796 C 0.43798 0.57871 0.39554 0.0
H1797 H 0.29221 0.53889 0.35516 0.0
H1798 H 0.3478 0.53166 0.36764 0.0
H1799 H 0.29753 0.61748 0.38897 0.0
H1800 H 0.45413 0.5734 0.42286 0.0
H1801 H 0.39184 0.56593 0.41014 0.0
C1802 C 0.7989 0.70639 0.41329 0.0
C1803 C 0.77108 0.67192 0.41414 0.0
C1804 C 0.83115 0.7106 0.40615 0.0
C1805 C 0.84311 0.66948 0.38451 0.0
H1806 H 0.0133 0.72167 0.38553 0.0
C1807 C 0.98219 0.69455 0.35578 0.0
C1808 C 0.04946 0.68277 0.35538 0.0
C1809 C 0.94645 0.69848 0.36304 0.0
C1810 C 0.96564 0.70718 0.38514 0.0
H1811 H 0.75545 0.61481 0.40816 0.0
H1812 H 0.81107 0.62219 0.39569 0.0
H1813 H 0.95456 0.71641 0.39792 0.0
H1814 H 0.13274 0.66769 0.36232 0.0
H1815 H 0.07172 0.6759 0.37497 0.0
H1816 H 0.85478 0.6598 0.37172 0.0
C1817 C 0.80774 0.64607 0.40052 0.0
C1818 C 0.93175 0.70431 0.39225 0.0
C1819 C 0.77616 0.64176 0.40769 0.0
C1820 C 0.08122 0.67725 0.36247 0.0
C1821 C 0.04611 0.68188 0.36972 0.0
C1822 C 0.8766 0.67278 0.3774 0.0
C1823 C 0.8358 0.68055 0.39965 0.0
C1824 C 0.87043 0.68499 0.39204 0.0
C1825 C 0.97769 0.69141 0.37007 0.0
C1826 C 0.93877 0.69125 0.37761 0.0
H1827 H 0.79586 0.7302 0.41814 0.0
H1828 H 0.85168 0.7376 0.40569 0.0
H1829 H 0.79573 0.65472 0.38412 0.0
H1830 H 0.95605 0.69831 0.35039 0.0
H1831 H 0.89389 0.70609 0.36312 0.0
C1832 C 0.41917 0.34507 0.16071 0.0
C1833 C 0.45121 0.33869 0.16772 0.0
C1834 C 0.45355 0.34026 0.1534 0.0
C1835 C 0.62237 0.34787 0.1455 0.0
H1836 H 0.54286 0.30442 0.12505 0.0
C1837 C 0.72136 0.37813 0.11508 0.0
C1838 C 0.72689 0.34771 0.10869 0.0
C1839 C 0.68978 0.37409 0.12227 0.0
C1840 C 0.56605 0.31648 0.1307 0.0
H1841 H 0.54429 0.32161 0.17252 0.0
H1842 H 0.60519 0.3136 0.1597 0.0
H1843 H 0.48448 0.29969 0.13751 0.0
H1844 H 0.70275 0.28927 0.10482 0.0
H1845 H 0.64666 0.28238 0.11729 0.0
H1846 H 0.70315 0.36548 0.1387 0.0
C1847 C 0.55296 0.32192 0.15988 0.0
C1848 C 0.53241 0.3139 0.13785 0.0
C1849 C 0.51793 0.32599 0.16719 0.0
C1850 C 0.69935 0.31327 0.10962 0.0
C1851 C 0.66698 0.30935 0.11677 0.0
C1852 C 0.65554 0.35094 0.13835 0.0
C1853 C 0.52152 0.32976 0.15293 0.0
C1854 C 0.55993 0.32972 0.14534 0.0
C1855 C 0.66206 0.33965 0.12321 0.0
C1856 C 0.62766 0.33548 0.13085 0.0
H1857 H 0.36808 0.35542 0.16097 0.0
H1858 H 0.42787 0.34685 0.14821 0.0
H1859 H 0.64467 0.36075 0.15115 0.0
H1860 H 0.74187 0.40507 0.11456 0.0
H1861 H 0.68624 0.39814 0.12706 0.0
C1862 C 0.16725 0.41112 0.16309 0.0
C1863 C 0.23462 0.42213 0.16425 0.0
C1864 C 0.13358 0.41425 0.15599 0.0
C1865 C 0.1398 0.4614 0.13823 0.0
H1866 H 0.01776 0.38209 0.1292 0.0
C1867 C 0.01379 0.44654 0.10639 0.0
C1868 C 0.9489 0.43114 0.10563 0.0
C1869 C 0.04897 0.44975 0.1137 0.0
C1870 C 0.05088 0.40485 0.13167 0.0
H1871 H 0.31943 0.44521 0.15884 0.0
H1872 H 0.26097 0.45041 0.14642 0.0
H1873 H 0.07831 0.37824 0.14143 0.0
H1874 H 0.86837 0.40983 0.11207 0.0
H1875 H 0.92783 0.41663 0.12473 0.0
H1876 H 0.11224 0.4878 0.12837 0.0
C1877 C 0.23374 0.43974 0.15103 0.0
C1878 C 0.08579 0.40259 0.13872 0.0
C1879 C 0.26745 0.43654 0.15814 0.0
C1880 C 0.91833 0.42168 0.11245 0.0
C1881 C 0.95292 0.42513 0.1197 0.0
C1882 C 0.1047 0.46367 0.13114 0.0
C1883 C 0.16632 0.42849 0.14983 0.0
C1884 C 0.13037 0.43094 0.14217 0.0
C1885 C 0.01975 0.43769 0.12037 0.0
C1886 C 0.0591 0.43558 0.12781 0.0
H1887 H 0.14036 0.4001 0.16769 0.0
H1888 H 0.08146 0.40582 0.15536 0.0
H1889 H 0.17331 0.48394 0.14072 0.0
H1890 H 0.03901 0.45359 0.10122 0.0
H1891 H 0.10031 0.45962 0.11398 0.0
C1892 C 0.51897 0.44111 0.60574 0.0
C1893 C 0.45057 0.4316 0.60534 0.0
C1894 C 0.55404 0.44462 0.61304 0.0
C1895 C 0.53415 0.4573 0.63513 0.0
H1896 H 0.69606 0.39787 0.6345 0.0
C1897 C 0.70141 0.45658 0.66325 0.0
C1898 C 0.72454 0.42167 0.6645 0.0
C1899 C 0.66924 0.46017 0.65607 0.0
C1900 C 0.65092 0.4146 0.63479 0.0
H1901 H 0.36479 0.4197 0.61227 0.0
H1902 H 0.42484 0.42757 0.62503 0.0
H1903 H 0.63834 0.40275 0.622 0.0
H1904 H 0.73195 0.36314 0.65915 0.0
H1905 H 0.67632 0.36941 0.6466 0.0
H1906 H 0.54631 0.46891 0.64791 0.0
C1907 C 0.45173 0.4321 0.61974 0.0
C1908 C 0.61824 0.41773 0.62761 0.0
C1909 C 0.41719 0.42778 0.61244 0.0
C1910 C 0.71479 0.39043 0.65838 0.0
C1911 C 0.68326 0.39409 0.65117 0.0
C1912 C 0.56737 0.45463 0.64229 0.0
C1913 C 0.52106 0.43939 0.6201 0.0
C1914 C 0.55901 0.43881 0.62769 0.0
C1915 C 0.65996 0.42901 0.64991 0.0
C1916 C 0.62582 0.43289 0.64224 0.0
H1917 H 0.5463 0.44331 0.60033 0.0
H1918 H 0.60737 0.4504 0.61312 0.0
H1919 H 0.48871 0.47378 0.63541 0.0
H1920 H 0.70821 0.48122 0.66783 0.0
H1921 H 0.65252 0.48753 0.6553 0.0
C1922 C 0.16496 0.36005 0.61015 0.0
C1923 C 0.23243 0.34914 0.60905 0.0
C1924 C 0.13096 0.35693 0.61724 0.0
C1925 C 0.1368 0.30978 0.635 0.0
H1926 H 0.01343 0.38852 0.64396 0.0
C1927 C 0.01067 0.32401 0.66679 0.0
C1928 C 0.94568 0.33925 0.66758 0.0
C1929 C 0.04572 0.32096 0.65948 0.0
C1930 C 0.0469 0.36591 0.6415 0.0
H1931 H 0.3171 0.32637 0.61455 0.0
H1932 H 0.25811 0.32123 0.62693 0.0
H1933 H 0.07424 0.39263 0.63176 0.0
H1934 H 0.86479 0.36045 0.66117 0.0
H1935 H 0.92408 0.35393 0.64849 0.0
H1936 H 0.10937 0.28327 0.64485 0.0
C1937 C 0.23103 0.33178 0.62229 0.0
C1938 C 0.08198 0.36832 0.63447 0.0
C1939 C 0.26506 0.33496 0.6152 0.0
C1940 C 0.91487 0.34872 0.66077 0.0
C1941 C 0.94935 0.34544 0.65351 0.0
C1942 C 0.10154 0.30736 0.64207 0.0
C1943 C 0.16346 0.34282 0.62343 0.0
C1944 C 0.12712 0.3402 0.63106 0.0
C1945 C 0.01627 0.33302 0.65283 0.0
C1946 C 0.05551 0.33525 0.64538 0.0
H1947 H 0.13823 0.3709 0.60552 0.0
H1948 H 0.07876 0.36524 0.61782 0.0
H1949 H 0.17068 0.28739 0.63254 0.0
H1950 H 0.03608 0.31697 0.67196 0.0
H1951 H 0.09713 0.31121 0.65919 0.0
C1952 C 0.29305 0.29149 0.54236 0.0
C1953 C 0.3301 0.32488 0.5437 0.0
C1954 C 0.27485 0.27442 0.53453 0.0
C1955 C 0.31571 0.27316 0.51297 0.0
H1956 H 0.13553 0.23396 0.50921 0.0
C1957 C 0.20886 0.2263 0.48076 0.0
C1958 C 0.17155 0.19299 0.47941 0.0
C1959 C 0.22719 0.24328 0.48859 0.0
C1960 C 0.18628 0.24447 0.51014 0.0
H1961 H 0.37854 0.36574 0.53775 0.0
H1962 H 0.3467 0.33643 0.52431 0.0
H1963 H 0.17182 0.25913 0.52285 0.0
H1964 H 0.12305 0.15215 0.48536 0.0
H1965 H 0.15507 0.1813 0.49879 0.0
H1966 H 0.33018 0.25851 0.50027 0.0
C1967 C 0.33198 0.32309 0.52923 0.0
C1968 C 0.20719 0.2588 0.51799 0.0
C1969 C 0.34989 0.3401 0.53701 0.0
C1970 C 0.15177 0.17774 0.4861 0.0
C1971 C 0.16983 0.19467 0.49387 0.0
C1972 C 0.29481 0.25883 0.50512 0.0
C1973 C 0.29365 0.29022 0.52786 0.0
C1974 C 0.27219 0.27341 0.51953 0.0
C1975 C 0.20831 0.22748 0.49525 0.0
C1976 C 0.2298 0.24423 0.50359 0.0
H1977 H 0.27683 0.27899 0.54735 0.0
H1978 H 0.24594 0.24887 0.5337 0.0
H1979 H 0.36646 0.28368 0.51391 0.0
H1980 H 0.22509 0.23884 0.47577 0.0
H1981 H 0.25622 0.26879 0.48942 0.0
C1982 C 0.98092 0.93404 0.53464 0.0
C1983 C 0.94735 0.95672 0.54103 0.0
C1984 C 0.99351 0.94673 0.52746 0.0
C1985 C 0.00451 0.03342 0.51875 0.0
H1986 H 0.98921 0.96471 0.49849 0.0
C1987 C 0.01962 0.08356 0.48819 0.0
C1988 C 0.05318 0.06075 0.48181 0.0
C1989 C 0.00654 0.07093 0.49537 0.0
C1990 C 0.99458 0.98426 0.50409 0.0
H1991 H 0.90067 0.01065 0.54485 0.0
H1992 H 0.92226 0.03281 0.53234 0.0
H1993 H 0.96691 0.94294 0.51098 0.0
H1994 H 0.09928 1.00664 0.47802 0.0
H1995 H 0.0769 0.98461 0.49053 0.0
H1996 H 0.03223 0.07474 0.51186 0.0
C1997 C 0.93962 1.00527 0.53288 0.0
C1998 C 0.98171 0.97172 0.51128 0.0
C1999 C 0.92685 0.9925 0.54006 0.0
C2000 C 0.07314 0.0249 0.48279 0.0
C2001 C 0.05989 0.0122 0.48997 0.0
C2002 C 0.01739 0.04596 0.51155 0.0
C2003 C 0.97306 0.98256 0.52645 0.0
C2004 C 0.98651 0.99607 0.51874 0.0
C2005 C 0.02649 0.03504 0.49639 0.0
C2006 C 0.01267 0.02159 0.5041 0.0
H2007 H 0.99744 0.90633 0.53517 0.0
H2008 H 0.02015 0.92853 0.52272 0.0
H2009 H 0.00987 0.05297 0.52435 0.0
H2010 H 0.00354 0.11134 0.48764 0.0
H2011 H 0.97995 0.08924 0.50009 0.0
C2012 C 0.29221 0.97737 0.73071 0.0
C2013 C 0.32461 0.94251 0.72934 0.0
C2014 C 0.27403 0.99461 0.73854 0.0
C2015 C 0.30946 0.99259 0.76008 0.0
H2016 H 0.13515 0.03959 0.76376 0.0
C2017 C 0.20334 0.0419 0.79224 0.0
C2018 C 0.17005 0.07649 0.79366 0.0
C2019 C 0.22096 0.02476 0.7844 0.0
C2020 C 0.18432 0.02689 0.76285 0.0
H2021 H 0.36382 0.89892 0.73525 0.0
H2022 H 0.33216 0.92853 0.74864 0.0
H2023 H 0.17055 0.01384 0.75011 0.0
H2024 H 0.12812 0.11959 0.78781 0.0
H2025 H 0.15924 0.09025 0.77436 0.0
H2026 H 0.32335 1.00568 0.77281 0.0
C2027 C 0.32133 0.94294 0.74375 0.0
C2028 C 0.20471 0.01221 0.755 0.0
C2029 C 0.3392 0.92579 0.736 0.0
C2030 C 0.1537 0.09297 0.78702 0.0
C2031 C 0.17119 0.07594 0.77924 0.0
C2032 C 0.28911 1.0073 0.76793 0.0
C2033 C 0.28819 0.97749 0.74516 0.0
C2034 C 0.26752 0.99475 0.7535 0.0
C2035 C 0.2055 0.04174 0.77779 0.0
C2036 C 0.22625 0.0247 0.76944 0.0
H2037 H 0.28002 0.99109 0.72576 0.0
H2038 H 0.24907 0.02141 0.7394 0.0
H2039 H 0.35859 0.97982 0.75917 0.0
H2040 H 0.21681 0.02836 0.79719 0.0
H2041 H 0.24668 0.99818 0.78351 0.0
C2042 C 0.09941 0.23389 0.78845 0.0
C2043 C 0.05507 0.2095 0.79135 0.0
C2044 C 0.08605 0.24632 0.78124 0.0
C2045 C 0.98484 0.22359 0.76241 0.0
H2046 H 0.02767 0.32507 0.76041 0.0
C2047 C 0.90157 0.28604 0.73475 0.0
C2048 C 0.94595 0.31037 0.73183 0.0
C2049 C 0.91488 0.2737 0.74196 0.0
C2050 C 0.01607 0.29647 0.7608 0.0
H2051 H 0.96159 0.17923 0.78895 0.0
H2052 H 0.93785 0.20106 0.77647 0.0
H2053 H 0.05054 0.30401 0.77296 0.0
H2054 H 0.03941 0.34066 0.73423 0.0
H2055 H 0.06306 0.31897 0.74673 0.0
H2056 H 0.95038 0.21605 0.75025 0.0
C2057 C 0.98356 0.21031 0.77968 0.0
C2058 C 0.02924 0.28434 0.76804 0.0
C2059 C 0.99692 0.19795 0.78688 0.0
C2060 C 0.00407 0.32198 0.7363 0.0
C2061 C 0.01737 0.3097 0.74352 0.0
C2062 C 0.97166 0.23572 0.75517 0.0
C2063 C 0.02796 0.23466 0.77672 0.0
C2064 C 0.01385 0.24769 0.76897 0.0
C2065 C 0.97295 0.28538 0.74649 0.0
C2066 C 0.98705 0.27237 0.75424 0.0
H2067 H 0.14481 0.24325 0.79172 0.0
H2068 H 0.122 0.26461 0.77915 0.0
H2069 H 0.97324 0.19499 0.7628 0.0
H2070 H 0.85619 0.27665 0.73148 0.0
H2071 H 0.8789 0.25543 0.74406 0.0
C2072 C 0.71106 0.72624 0.48063 0.0
C2073 C 0.66935 0.69459 0.4793 0.0
C2074 C 0.72928 0.74311 0.48847 0.0
C2075 C 0.68243 0.74818 0.50998 0.0
H2076 H 0.86755 0.77833 0.51402 0.0
C2077 C 0.78743 0.79248 0.54236 0.0
C2078 C 0.82958 0.82395 0.54366 0.0
C2079 C 0.76875 0.77565 0.53453 0.0
C2080 C 0.81547 0.77037 0.51301 0.0
H2081 H 0.61232 0.65686 0.48528 0.0
H2082 H 0.64409 0.68589 0.49875 0.0
H2083 H 0.83099 0.75403 0.50035 0.0
H2084 H 0.88658 0.86149 0.53763 0.0
H2085 H 0.85403 0.8326 0.5242 0.0
H2086 H 0.66692 0.76452 0.52264 0.0
C2087 C 0.6626 0.69797 0.4938 0.0
C2088 C 0.79443 0.75655 0.50514 0.0
C2089 C 0.64471 0.68111 0.48602 0.0
C2090 C 0.85397 0.83736 0.53693 0.0
C2091 C 0.8356 0.82057 0.52916 0.0
C2092 C 0.70347 0.76201 0.51785 0.0
C2093 C 0.70581 0.72891 0.49516 0.0
C2094 C 0.72761 0.74521 0.50351 0.0
C2095 C 0.79217 0.78974 0.52783 0.0
C2096 C 0.77029 0.77337 0.51948 0.0
H2097 H 0.73108 0.73735 0.47563 0.0
H2098 H 0.76202 0.7672 0.48929 0.0
H2099 H 0.63037 0.74019 0.50897 0.0
H2100 H 0.76754 0.78141 0.54738 0.0
H2101 H 0.7358 0.75165 0.53373 0.0
C2102 C 0.78763 0.9783 0.23074 0.0
C2103 C 0.82765 0.94598 0.22944 0.0
C2104 C 0.76911 0.99531 0.23856 0.0
C2105 C 0.81355 0.99902 0.26011 0.0
H2106 H 0.63049 0.03328 0.26405 0.0
C2107 C 0.70857 0.04404 0.29242 0.0
C2108 C 0.66896 0.07651 0.29379 0.0
C2109 C 0.72656 0.02719 0.28457 0.0
C2110 C 0.68201 0.02415 0.26306 0.0
H2111 H 0.88102 0.90705 0.23546 0.0
H2112 H 0.84865 0.93623 0.24889 0.0
H2113 H 0.66678 1.00854 0.25038 0.0
H2114 H 0.61554 0.11582 0.28788 0.0
H2115 H 0.64697 0.08684 0.27439 0.0
H2116 H 0.82879 0.0146 0.27278 0.0
C2117 C 0.83182 0.9488 0.24393 0.0
C2118 C 0.70291 0.01007 0.25519 0.0
C2119 C 0.85005 0.93184 0.23617 0.0
C2120 C 0.64625 0.09091 0.28711 0.0
C2121 C 0.66394 0.07409 0.27932 0.0
C2122 C 0.79265 0.01307 0.26797 0.0
C2123 C 0.79056 0.98055 0.24526 0.0
C2124 C 0.76896 0.99722 0.2536 0.0
C2125 C 0.705 0.04226 0.27792 0.0
C2126 C 0.72657 0.02586 0.26956 0.0
H2127 H 0.76932 0.98994 0.22572 0.0
H2128 H 0.73787 0.02 0.23936 0.0
H2129 H 0.86508 0.98991 0.25912 0.0
H2130 H 0.72707 0.03218 0.2974 0.0
H2131 H 0.7576 1.00242 0.28372 0.0
C2132 C 0.00567 0.69128 0.28584 0.0
C2133 C 0.05429 0.709 0.29124 0.0
C2134 C 0.99202 0.70389 0.27867 0.0
C2135 C 0.01214 0.7864 0.26868 0.0
H2136 H 0.97496 0.71471 0.24931 0.0
C2137 C 0.99198 0.83037 0.23753 0.0
C2138 C 0.9435 0.81273 0.2321 0.0
C2139 C 0.00524 0.81773 0.2447 0.0
C2140 C 0.9844 0.73524 0.25467 0.0
H2141 H 0.12682 0.75395 0.29329 0.0
H2142 H 0.10359 0.77581 0.28079 0.0
H2143 H 0.99842 0.69297 0.26178 0.0
H2144 H 0.8708 0.76788 0.22999 0.0
H2145 H 0.89335 0.74595 0.24251 0.0
H2146 H 0.99814 0.82866 0.26158 0.0
C2147 C 0.07518 0.7524 0.28212 0.0
C2148 C 0.99793 0.72271 0.26186 0.0
C2149 C 0.08885 0.73973 0.28929 0.0
C2150 C 0.90866 0.78204 0.23402 0.0
C2151 C 0.92195 0.76933 0.2412 0.0
C2152 C 0.99862 0.79893 0.2615 0.0
C2153 C 0.02657 0.73465 0.27668 0.0
C2154 C 0.01206 0.74808 0.26899 0.0
C2155 C 0.97041 0.787 0.24667 0.0
C2156 C 0.98457 0.77356 0.25437 0.0
H2157 H 0.97804 0.66756 0.28715 0.0
H2158 H 0.95362 0.68973 0.27473 0.0
H2159 H 0.02159 0.80693 0.27404 0.0
H2160 H 0.01982 0.85407 0.23624 0.0
H2161 H 0.04355 0.83183 0.24866 0.0
C2162 C 0.29782 0.79257 0.04224 0.0
C2163 C 0.33338 0.82646 0.0436 0.0
C2164 C 0.27989 0.77541 0.03442 0.0
C2165 C 0.31856 0.77503 0.01286 0.0
H2166 H 0.13969 0.73368 1.00929 0.0
C2167 C 0.2094 0.72712 0.9808 0.0
C2168 C 0.17321 0.69344 0.97949 0.0
C2169 C 0.22828 0.74419 0.9886 0.0
C2170 C 0.19008 0.74479 1.01017 0.0
H2171 H 0.37953 0.86812 0.03767 0.0
H2172 H 0.34804 0.8386 0.02422 0.0
H2173 H 0.1764 0.75926 0.02289 0.0
H2174 H 0.12742 0.6519 0.98548 0.0
H2175 H 0.16056 0.68119 0.99888 0.0
H2176 H 0.33221 0.76055 1.00014 0.0
C2177 C 0.33434 0.82497 0.02915 0.0
C2178 C 0.21123 0.75936 0.01799 0.0
C2179 C 0.35205 0.84209 0.03692 0.0
C2180 C 0.15525 0.6778 0.9862 0.0
C2181 C 0.17392 0.6948 0.99394 0.0
C2182 C 0.29741 0.76044 1.00503 0.0
C2183 C 0.29739 0.79162 0.02777 0.0
C2184 C 0.27576 0.77472 0.01945 0.0
C2185 C 0.21112 0.72806 0.99527 0.0
C2186 C 0.23289 0.74505 1.00358 0.0
H2187 H 0.28255 0.77971 0.04722 0.0
H2188 H 0.25214 0.74946 0.03358 0.0
H2189 H 0.36893 0.78618 0.01374 0.0
H2190 H 0.22421 0.73995 0.9758 0.0
H2191 H 0.25629 0.77004 0.9894 0.0
C2192 C 0.99984 0.5755 0.98681 0.0
C2193 C 0.05401 0.5611 0.98189 0.0
C2194 C 0.98673 0.56298 0.994 0.0
C2195 C 0.02251 0.48479 1.00486 0.0
H2196 H 0.96299 0.55549 0.02346 0.0
C2197 C 0.00178 0.44475 0.03641 0.0
C2198 C 0.9478 0.45932 0.04135 0.0
C2199 C 0.01466 0.45708 0.02919 0.0
C2200 C 0.97878 0.53518 0.01831 0.0
H2201 H 0.1369 0.52208 0.9807 0.0
H2202 H 0.11456 0.50041 0.99324 0.0
H2203 H 0.98522 0.57675 1.01092 0.0
H2204 H 0.86493 0.49834 0.04253 0.0
H2205 H 0.88687 0.51967 0.02995 0.0
H2206 H 0.01607 0.44322 0.01226 0.0
C2207 C 0.08148 0.52111 0.99152 0.0
C2208 C 0.99159 0.54743 1.01108 0.0
C2209 C 0.0946 0.53369 0.98433 0.0
C2210 C 0.90711 0.48663 0.03889 0.0
C2211 C 0.92001 0.49901 0.03168 0.0
C2212 C 0.00969 0.47253 0.01209 0.0
C2213 C 0.02741 0.53562 0.99649 0.0
C2214 C 0.01367 0.52245 1.00423 0.0
C2215 C 0.97395 0.4844 0.02669 0.0
C2216 C 0.98762 0.49752 0.01895 0.0
H2217 H 0.96746 0.59659 0.98511 0.0
H2218 H 0.94408 0.57451 0.99757 0.0
H2219 H 0.03832 0.46449 0.99972 0.0
H2220 H 0.0342 0.42371 0.03812 0.0
H2221 H 0.0572 0.44546 0.02562 0.0
C2222 C 0.21072 0.54332 0.29246 0.0
C2223 C 0.1737 0.57673 0.29378 0.0
C2224 C 0.22935 0.52631 0.28464 0.0
C2225 C 0.25364 0.54841 0.26425 0.0
H2226 H 0.24903 0.44125 0.25724 0.0
C2227 C 0.29409 0.47684 0.2309 0.0
C2228 C 0.33052 0.44324 0.22952 0.0
C2229 C 0.27566 0.4937 0.23873 0.0
C2230 C 0.25138 0.47124 0.25912 0.0
H2231 H 0.12527 0.61748 0.28779 0.0
H2232 H 0.15685 0.58786 0.27436 0.0
H2233 H 0.21605 0.46828 0.27092 0.0
H2234 H 0.37806 0.40193 0.23543 0.0
H2235 H 0.34695 0.43134 0.2489 0.0
H2236 H 0.28901 0.55139 0.25245 0.0
C2237 C 0.17293 0.57512 0.27932 0.0
C2238 C 0.23247 0.48673 0.26698 0.0
C2239 C 0.15438 0.59201 0.28708 0.0
C2240 C 0.34943 0.42758 0.23619 0.0
C2241 C 0.33112 0.44434 0.24397 0.0
C2242 C 0.27259 0.53292 0.25639 0.0
C2243 C 0.21148 0.54235 0.27798 0.0
C2244 C 0.23316 0.52555 0.26966 0.0
C2245 C 0.29319 0.47734 0.24536 0.0
C2246 C 0.27182 0.4941 0.2537 0.0
H2247 H 0.22667 0.53079 0.29746 0.0
H2248 H 0.25929 0.50113 0.28384 0.0
H2249 H 0.25591 0.5784 0.26612 0.0
H2250 H 0.27843 0.48964 0.22593 0.0
H2251 H 0.24614 0.51904 0.23957 0.0
C2252 C 0.65984 0.17543 0.98621 0.0
C2253 C 0.67336 0.19273 0.97961 0.0
C2254 C 0.67779 0.19237 0.99398 0.0
C2255 C 0.72306 0.28278 1.00665 0.0
H2256 H 0.79768 0.2201 0.02062 0.0
C2257 C 0.84154 0.34514 0.03715 0.0
C2258 C 0.82805 0.32808 0.04379 0.0
C2259 C 0.82278 0.32819 0.02941 0.0
C2260 C 0.77616 0.23794 0.01684 0.0
H2261 H 0.71548 0.24218 0.97614 0.0
H2262 H 0.74705 0.27193 0.98978 0.0
H2263 H 0.76537 0.19256 1.00694 0.0
H2264 H 0.78504 0.27906 0.04735 0.0
H2265 H 0.7522 0.24925 0.03375 0.0
H2266 H 0.73398 0.32818 0.01654 0.0
C2267 C 0.72209 0.24512 0.98889 0.0
C2268 C 0.75766 0.22217 1.00898 0.0
C2269 C 0.70411 0.22805 0.98106 0.0
C2270 C 0.79641 0.293 0.0424 0.0
C2271 C 0.77769 0.2759 0.0346 0.0
C2272 C 0.7416 0.29856 0.01451 0.0
C2273 C 0.70989 0.22722 0.99544 0.0
C2274 C 0.73077 0.24435 1.00377 0.0
C2275 C 0.78994 0.29356 0.02801 0.0
C2276 C 0.76856 0.27638 0.01971 0.0
H2277 H 0.63574 0.14838 0.9854 0.0
H2278 H 0.66621 0.17808 0.99887 0.0
H2279 H 0.70157 0.30064 1.00287 0.0
H2280 H 0.86623 0.37201 0.0379 0.0
H2281 H 0.83437 0.34229 0.02449 0.0
C2282 C 0.65652 0.59412 0.78697 0.0
C2283 C 0.672 0.57753 0.79362 0.0
C2284 C 0.67487 0.57719 0.77921 0.0
C2285 C 0.72645 0.48737 0.76673 0.0
H2286 H 0.79309 0.55096 0.75248 0.0
C2287 C 0.84497 0.42633 0.73615 0.0
C2288 C 0.8286 0.4426 0.72948 0.0
C2289 C 0.82646 0.44328 0.7439 0.0
C2290 C 0.77385 0.53283 0.75634 0.0
H2291 H 0.71823 0.52934 0.79719 0.0
H2292 H 0.75071 0.49969 0.78358 0.0
H2293 H 0.76017 0.57838 0.76614 0.0
H2294 H 0.78086 0.49027 0.72586 0.0
H2295 H 0.7484 0.52003 0.73947 0.0
H2296 H 0.74029 0.44181 0.75693 0.0
C2297 C 0.72375 0.52589 0.78442 0.0
C2298 C 0.75496 0.54854 0.76419 0.0
C2299 C 0.70525 0.54292 0.79224 0.0
C2300 C 0.79451 0.47696 0.73084 0.0
C2301 C 0.77599 0.49404 0.73865 0.0
C2302 C 0.7454 0.47165 0.75888 0.0
C2303 C 0.7095 0.54309 0.77782 0.0
C2304 C 0.73087 0.52605 0.7695 0.0
C2305 C 0.79097 0.47711 0.74527 0.0
C2306 C 0.76948 0.49415 0.75358 0.0
H2307 H 0.6306 0.62061 0.78773 0.0
H2308 H 0.66163 0.59093 0.77429 0.0
H2309 H 0.70718 0.46923 0.77058 0.0
H2310 H 0.87169 0.40006 0.7354 0.0
H2311 H 0.84022 0.4298 0.74884 0.0
C2312 C 0.59093 0.03023 0.98378 0.0
C2313 C 0.55651 0.06096 0.98181 0.0
C2314 C 0.5775 0.01782 0.99099 0.0
C2315 C 0.50129 0.04833 1.0113 0.0
H2316 H 0.50137 0.94256 0.01177 0.0
C2317 C 0.41246 0.99027 0.03933 0.0
C2318 C 0.44694 0.95954 0.04129 0.0
C2319 C 0.4258 1.00271 0.03212 0.0
C2320 C 0.5019 0.97226 0.0118 0.0
H2321 H 0.48077 0.10269 0.98591 0.0
H2322 H 0.45678 0.08097 0.99839 0.0
H2323 H 0.52443 0.96376 0.99924 0.0
H2324 H 0.52275 0.91787 0.03718 0.0
H2325 H 0.54659 0.93965 0.0247 0.0
H2326 H 0.47875 0.05682 0.02386 0.0
C2327 C 0.49488 0.0666 0.99444 0.0
C2328 C 0.5152 0.98448 1.00458 0.0
C2329 C 0.50827 0.07894 0.98723 0.0
C2330 C 0.49519 0.94161 0.03586 0.0
C2331 C 0.5085 0.95399 0.02866 0.0
C2332 C 0.48799 0.03611 0.01853 0.0
C2333 C 0.52931 0.03584 0.99645 0.0
C2334 C 0.51513 0.02273 1.0042 0.0
C2335 C 0.47398 0.98473 0.02665 0.0
C2336 C 0.48808 0.99786 0.01891 0.0
H2337 H 0.62862 0.01582 0.97976 0.0
H2338 H 0.60584 0.99441 0.99233 0.0
H2339 H 0.50182 0.07803 1.01133 0.0
H2340 H 0.37478 1.00465 0.04335 0.0
H2341 H 0.39743 0.02612 0.03079 0.0
C2342 C 0.59932 0.23562 0.28865 0.0
C2343 C 0.55641 0.21005 0.29139 0.0
C2344 C 0.58604 0.24799 0.28144 0.0
C2345 C 0.489 0.22352 0.26232 0.0
H2346 H 0.52436 0.32621 0.26061 0.0
C2347 C 0.40429 0.28521 0.23461 0.0
C2348 C 0.44717 0.31077 0.23186 0.0
C2349 C 0.41768 0.27285 0.24182 0.0
C2350 C 0.51489 0.29729 0.26093 0.0
H2351 H 0.46557 0.17758 0.28867 0.0
H2352 H 0.44195 0.1993 0.27618 0.0
H2353 H 0.54733 0.30518 0.27317 0.0
H2354 H 0.53804 0.34322 0.23456 0.0
H2355 H 0.56184 0.3215 0.24705 0.0
H2356 H 0.45654 0.21564 0.25007 0.0
C2357 C 0.48651 0.20954 0.27953 0.0
C2358 C 0.52813 0.28517 0.26816 0.0
C2359 C 0.49978 0.19724 0.28674 0.0
C2360 C 0.50387 0.32358 0.2365 0.0
C2361 C 0.51724 0.31127 0.24371 0.0
C2362 C 0.47576 0.23564 0.25508 0.0
C2363 C 0.52946 0.23509 0.27674 0.0
C2364 C 0.5154 0.24808 0.26898 0.0
C2365 C 0.47432 0.28574 0.24651 0.0
C2366 C 0.48847 0.27274 0.25426 0.0
H2367 H 0.64353 0.24596 0.29206 0.0
H2368 H 0.62089 0.26724 0.27948 0.0
H2369 H 0.47952 0.19461 0.26263 0.0
H2370 H 0.36002 0.27489 0.23121 0.0
H2371 H 0.38285 0.25361 0.24379 0.0
C2372 C 0.56454 0.74571 0.79063 0.0
C2373 C 0.55038 0.70873 0.79136 0.0
C2374 C 0.5513 0.75832 0.78344 0.0
C2375 C 0.5214 0.72412 0.76156 0.0
H2376 H 0.45334 0.82402 0.76208 0.0
C2377 C 0.43066 0.77444 0.7327 0.0
C2378 C 0.44496 0.81139 0.73196 0.0
C2379 C 0.44352 0.7619 0.73991 0.0
C2380 C 0.4731 0.79617 0.76179 0.0
H2381 H 0.51101 0.65604 0.78508 0.0
H2382 H 0.48757 0.67793 0.7726 0.0
H2383 H 0.47548 0.80256 0.77461 0.0
H2384 H 0.48404 0.86413 0.73825 0.0
H2385 H 0.50686 0.84238 0.75075 0.0
H2386 H 0.51906 0.71773 0.74875 0.0
C2387 C 0.50957 0.69724 0.77754 0.0
C2388 C 0.48587 0.78381 0.76902 0.0
C2389 C 0.52256 0.68471 0.78473 0.0
C2390 C 0.47243 0.83548 0.7386 0.0
C2391 C 0.48505 0.82302 0.74581 0.0
C2392 C 0.50865 0.73648 0.75434 0.0
C2393 C 0.5238 0.73426 0.77676 0.0
C2394 C 0.51022 0.74756 0.76903 0.0
C2395 C 0.47081 0.78602 0.74659 0.0
C2396 C 0.48429 0.77272 0.75433 0.0
H2397 H 0.58614 0.76493 0.79561 0.0
H2398 H 0.56376 0.78685 0.78308 0.0
H2399 H 0.54118 0.69627 0.76128 0.0
H2400 H 0.40929 0.75517 0.72771 0.0
H2401 H 0.43101 0.73339 0.74026 0.0
C2402 C 0.49798 0.44364 0.53628 0.0
C2403 C 0.44375 0.45821 0.54118 0.0
C2404 C 0.51155 0.45612 0.5291 0.0
C2405 C 0.47733 0.53459 0.51826 0.0
H2406 H 0.53807 0.46412 0.49969 0.0
C2407 C 0.50131 0.57537 0.48682 0.0
C2408 C 0.55556 0.56084 0.48193 0.0
C2409 C 0.48772 0.56285 0.49401 0.0
C2410 C 0.52195 0.48436 0.50483 0.0
H2411 H 0.36115 0.49739 0.54232 0.0
H2412 H 0.38428 0.51898 0.52978 0.0
H2413 H 0.51442 0.44263 0.51218 0.0
H2414 H 0.63814 0.52165 0.48078 0.0
H2415 H 0.61499 0.49998 0.49331 0.0
H2416 H 0.48486 0.57633 0.51092 0.0
C2417 C 0.41707 0.4982 0.53152 0.0
C2418 C 0.50831 0.47198 0.51203 0.0
C2419 C 0.40349 0.48566 0.53871 0.0
C2420 C 0.5958 0.53336 0.48439 0.0
C2421 C 0.5822 0.52078 0.49157 0.0
C2422 C 0.49097 0.54698 0.51107 0.0
C2423 C 0.4713 0.4836 0.52659 0.0
C2424 C 0.48578 0.49687 0.51887 0.0
C2425 C 0.52797 0.53536 0.49651 0.0
C2426 C 0.5135 0.52208 0.50422 0.0
H2427 H 0.5301 0.4225 0.538 0.0
H2428 H 0.55428 0.4445 0.52556 0.0
H2429 H 0.46121 0.55483 0.5234 0.0
H2430 H 0.46919 0.59653 0.48511 0.0
H2431 H 0.44498 0.57446 0.49754 0.0
loop_
_geom_bond_atom_site_label_1
_geom_bond_atom_site_label_2
_geom_bond_distance
_geom_bond_site_symmetry_2
_ccdc_geom_bond_type
Co0 H3 2.400 . S
Co0 O4 2.009 . S
Co0 O12 2.115 . S
Co0 O13 2.315 . S
Co0 O24 2.053 . S
Co0 O27 2.094 . S
Co0 O30 2.122 . S
Co1 O4 2.126 . S
Co1 H5 2.388 . S
Co1 O6 2.053 . S
Co1 O9 2.047 . S
Co1 O15 2.113 . S
Co1 O26 2.063 . S
Co2 H3 2.388 . S
Co2 O4 2.053 . S
Co2 O6 2.126 . S
Co2 O11 2.063 . S
Co2 O25 2.047 . S
Co2 O31 2.113 . S
H3 Co0 2.400 . S
H3 Co2 2.388 . S
H3 O4 0.760 . S
O4 Co0 2.009 . S
O4 Co1 2.126 . S
O4 Co2 2.053 . S
O4 H3 0.760 . S
H5 Co1 2.388 . S
H5 O6 0.760 . S
H5 Co7 2.400 . S
O6 Co1 2.053 . S
O6 Co2 2.126 . S
O6 H5 0.760 . S
O6 Co7 2.009 . S
Co7 H5 2.400 . S
Co7 O6 2.009 . S
Co7 O8 2.053 . S
Co7 O10 2.094 . S
Co7 O14 2.122 . S
Co7 O28 2.115 . S
Co7 O29 2.315 . S
O8 Co7 2.053 . S
O8 C20 1.259 . S
O9 Co1 2.047 . S
O9 C20 1.257 . S
O10 Co7 2.094 . S
O10 C21 1.253 . S
O11 Co2 2.063 . S
O11 C21 1.268 . S
O12 Co0 2.115 . S
O12 C22 1.281 . S
O13 Co0 2.315 . S
O13 C22 1.252 . S
O14 Co7 2.122 . S
O14 C23 1.272 . S
O15 Co1 2.113 . S
O15 C23 1.245 . S
C16 O24 1.259 . S
C16 O25 1.257 . S
C17 O26 1.268 . S
C17 O27 1.253 . S
C18 O28 1.281 . S
C18 O29 1.252 . S
C19 O30 1.272 . S
C19 O31 1.245 . S
C20 O8 1.259 . S
C20 O9 1.257 . S
C21 O10 1.253 . S
C21 O11 1.268 . S
C22 O12 1.281 . S
C22 O13 1.252 . S
C23 O14 1.272 . S
C23 O15 1.245 . S
O24 Co0 2.053 . S
O24 C16 1.259 . S
O25 Co2 2.047 . S
O25 C16 1.257 . S
O26 Co1 2.063 . S
O26 C17 1.268 . S
O27 Co0 2.094 . S
O27 C17 1.253 . S
O28 Co7 2.115 . S
O28 C18 1.281 . S
O29 Co7 2.315 . S
O29 C18 1.252 . S
O30 Co0 2.122 . S
O30 C19 1.272 . S
O31 Co2 2.113 . S
O31 C19 1.245 . S
Co32 H35 2.400 . S
Co32 O36 2.009 . S
Co32 O44 2.115 . S
Co32 O45 2.315 . S
Co32 O56 2.053 . S
Co32 O59 2.094 . S
Co32 O62 2.122 . S
Co33 O36 2.126 . S
Co33 H37 2.388 . S
Co33 O38 2.053 . S
Co33 O41 2.047 . S
Co33 O47 2.113 . S
Co33 O58 2.063 . S
Co34 H35 2.388 . S
Co34 O36 2.053 . S
Co34 O38 2.126 . S
Co34 O43 2.063 . S
Co34 O57 2.047 . S
Co34 O63 2.113 . S
H35 Co32 2.400 . S
H35 Co34 2.388 . S
H35 O36 0.760 . S
O36 Co32 2.009 . S
O36 Co33 2.126 . S
O36 Co34 2.053 . S
O36 H35 0.760 . S
H37 Co33 2.388 . S
H37 O38 0.760 . S
H37 Co39 2.400 . S
O38 Co33 2.053 . S
O38 Co34 2.126 . S
O38 H37 0.760 . S
O38 Co39 2.009 . S
Co39 H37 2.400 . S
Co39 O38 2.009 . S
Co39 O40 2.053 . S
Co39 O42 2.094 . S
Co39 O46 2.122 . S
Co39 O60 2.115 . S
Co39 O61 2.315 . S
O40 Co39 2.053 . S
O40 C52 1.259 . S
O41 Co33 2.047 . S
O41 C52 1.257 . S
O42 Co39 2.094 . S
O42 C53 1.253 . S
O43 Co34 2.063 . S
O43 C53 1.268 . S
O44 Co32 2.115 . S
O44 C54 1.281 . S
O45 Co32 2.315 . S
O45 C54 1.252 . S
O46 Co39 2.122 . S
O46 C55 1.272 . S
O47 Co33 2.113 . S
O47 C55 1.245 . S
C48 O56 1.259 . S
C48 O57 1.257 . S
C49 O58 1.268 . S
C49 O59 1.253 . S
C50 O60 1.281 . S
C50 O61 1.252 . S
C51 O62 1.272 . S
C51 O63 1.245 . S
C52 O40 1.259 . S
C52 O41 1.257 . S
C53 O42 1.253 . S
C53 O43 1.268 . S
C54 O44 1.281 . S
C54 O45 1.252 . S
C55 O46 1.272 . S
C55 O47 1.245 . S
O56 Co32 2.053 . S
O56 C48 1.259 . S
O57 Co34 2.047 . S
O57 C48 1.257 . S
O58 Co33 2.063 . S
O58 C49 1.268 . S
O59 Co32 2.094 . S
O59 C49 1.253 . S
O60 Co39 2.115 . S
O60 C50 1.281 . S
O61 Co39 2.315 . S
O61 C50 1.252 . S
O62 Co32 2.122 . S
O62 C51 1.272 . S
O63 Co34 2.113 . S
O63 C51 1.245 . S
Co64 H67 2.400 . S
Co64 O68 2.009 . S
Co64 O76 2.115 . S
Co64 O77 2.315 . S
Co64 O88 2.053 . S
Co64 O91 2.094 . S
Co64 O94 2.122 . S
Co65 O68 2.126 . S
Co65 H69 2.388 . S
Co65 O70 2.053 . S
Co65 O73 2.047 . S
Co65 O79 2.113 . S
Co65 O90 2.063 . S
Co66 H67 2.388 . S
Co66 O68 2.053 . S
Co66 O70 2.126 . S
Co66 O75 2.063 . S
Co66 O89 2.047 . S
Co66 O95 2.113 . S
H67 Co64 2.400 . S
H67 Co66 2.388 . S
H67 O68 0.760 . S
O68 Co64 2.009 . S
O68 Co65 2.126 . S
O68 Co66 2.053 . S
O68 H67 0.760 . S
H69 Co65 2.388 . S
H69 O70 0.760 . S
H69 Co71 2.400 . S
O70 Co65 2.053 . S
O70 Co66 2.126 . S
O70 H69 0.760 . S
O70 Co71 2.009 . S
Co71 H69 2.400 . S
Co71 O70 2.009 . S
Co71 O72 2.053 . S
Co71 O74 2.094 . S
Co71 O78 2.122 . S
Co71 O92 2.115 . S
Co71 O93 2.315 . S
O72 Co71 2.053 . S
O72 C84 1.259 . S
O73 Co65 2.047 . S
O73 C84 1.257 . S
O74 Co71 2.094 . S
O74 C85 1.253 . S
O75 Co66 2.063 . S
O75 C85 1.268 . S
O76 Co64 2.115 . S
O76 C86 1.281 . S
O77 Co64 2.315 . S
O77 C86 1.252 . S
O78 Co71 2.122 . S
O78 C87 1.272 . S
O79 Co65 2.113 . S
O79 C87 1.245 . S
C80 O88 1.259 . S
C80 O89 1.257 . S
C81 O90 1.268 . S
C81 O91 1.253 . S
C82 O92 1.281 . S
C82 O93 1.252 . S
C83 O94 1.272 . S
C83 O95 1.245 . S
C84 O72 1.259 . S
C84 O73 1.257 . S
C85 O74 1.253 . S
C85 O75 1.268 . S
C86 O76 1.281 . S
C86 O77 1.252 . S
C87 O78 1.272 . S
C87 O79 1.245 . S
O88 Co64 2.053 . S
O88 C80 1.259 . S
O89 Co66 2.047 . S
O89 C80 1.257 . S
O90 Co65 2.063 . S
O90 C81 1.268 . S
O91 Co64 2.094 . S
O91 C81 1.253 . S
O92 Co71 2.115 . S
O92 C82 1.281 . S
O93 Co71 2.315 . S
O93 C82 1.252 . S
O94 Co64 2.122 . S
O94 C83 1.272 . S
O95 Co66 2.113 . S
O95 C83 1.245 . S
Co96 H99 2.400 . S
Co96 O100 2.009 . S
Co96 O108 2.115 . S
Co96 O109 2.315 . S
Co96 O120 2.053 . S
Co96 O123 2.094 . S
Co96 O126 2.122 . S
Co97 O100 2.126 . S
Co97 H101 2.388 . S
Co97 O102 2.053 . S
Co97 O105 2.047 . S
Co97 O111 2.113 . S
Co97 O122 2.063 . S
Co98 H99 2.388 . S
Co98 O100 2.053 . S
Co98 O102 2.126 . S
Co98 O107 2.063 . S
Co98 O121 2.047 . S
Co98 O127 2.113 . S
H99 Co96 2.400 . S
H99 Co98 2.388 . S
H99 O100 0.760 . S
O100 Co96 2.009 . S
O100 Co97 2.126 . S
O100 Co98 2.053 . S
O100 H99 0.760 . S
H101 Co97 2.388 . S
H101 O102 0.760 . S
H101 Co103 2.400 . S
O102 Co97 2.053 . S
O102 Co98 2.126 . S
O102 H101 0.760 . S
O102 Co103 2.009 . S
Co103 H101 2.400 . S
Co103 O102 2.009 . S
Co103 O104 2.053 . S
Co103 O106 2.094 . S
Co103 O110 2.122 . S
Co103 O124 2.115 . S
Co103 O125 2.315 . S
O104 Co103 2.053 . S
O104 C116 1.259 . S
O105 Co97 2.047 . S
O105 C116 1.257 . S
O106 Co103 2.094 . S
O106 C117 1.253 . S
O107 Co98 2.063 . S
O107 C117 1.268 . S
O108 Co96 2.115 . S
O108 C118 1.281 . S
O109 Co96 2.315 . S
O109 C118 1.252 . S
O110 Co103 2.122 . S
O110 C119 1.272 . S
O111 Co97 2.113 . S
O111 C119 1.245 . S
C112 O120 1.259 . S
C112 O121 1.257 . S
C113 O122 1.268 . S
C113 O123 1.253 . S
C114 O124 1.281 . S
C114 O125 1.252 . S
C115 O126 1.272 . S
C115 O127 1.245 . S
C116 O104 1.259 . S
C116 O105 1.257 . S
C117 O106 1.253 . S
C117 O107 1.268 . S
C118 O108 1.281 . S
C118 O109 1.252 . S
C119 O110 1.272 . S
C119 O111 1.245 . S
O120 Co96 2.053 . S
O120 C112 1.259 . S
O121 Co98 2.047 . S
O121 C112 1.257 . S
O122 Co97 2.063 . S
O122 C113 1.268 . S
O123 Co96 2.094 . S
O123 C113 1.253 . S
O124 Co103 2.115 . S
O124 C114 1.281 . S
O125 Co103 2.315 . S
O125 C114 1.252 . S
O126 Co96 2.122 . S
O126 C115 1.272 . S
O127 Co98 2.113 . S
O127 C115 1.245 . S
Co128 H131 2.400 . S
Co128 O132 2.009 . S
Co128 O140 2.115 . S
Co128 O141 2.315 . S
Co128 O152 2.053 . S
Co128 O155 2.094 . S
Co128 O158 2.122 . S
Co129 O132 2.126 . S
Co129 H133 2.388 . S
Co129 O134 2.053 . S
Co129 O137 2.047 . S
Co129 O143 2.113 . S
Co129 O154 2.063 . S
Co130 H131 2.388 . S
Co130 O132 2.053 . S
Co130 O134 2.126 . S
Co130 O139 2.063 . S
Co130 O153 2.047 . S
Co130 O159 2.113 . S
H131 Co128 2.400 . S
H131 Co130 2.388 . S
H131 O132 0.760 . S
O132 Co128 2.009 . S
O132 Co129 2.126 . S
O132 Co130 2.053 . S
O132 H131 0.760 . S
H133 Co129 2.388 . S
H133 O134 0.760 . S
H133 Co135 2.400 . S
O134 Co129 2.053 . S
O134 Co130 2.126 . S
O134 H133 0.760 . S
O134 Co135 2.009 . S
Co135 H133 2.400 . S
Co135 O134 2.009 . S
Co135 O136 2.053 . S
Co135 O138 2.094 . S
Co135 O142 2.122 . S
Co135 O156 2.115 . S
Co135 O157 2.315 . S
O136 Co135 2.053 . S
O136 C148 1.259 . S
O137 Co129 2.047 . S
O137 C148 1.257 . S
O138 Co135 2.094 . S
O138 C149 1.253 . S
O139 Co130 2.063 . S
O139 C149 1.268 . S
O140 Co128 2.115 . S
O140 C150 1.281 . S
O141 Co128 2.315 . S
O141 C150 1.252 . S
O142 Co135 2.122 . S
O142 C151 1.272 . S
O143 Co129 2.113 . S
O143 C151 1.245 . S
C144 O152 1.259 . S
C144 O153 1.257 . S
C145 O154 1.268 . S
C145 O155 1.253 . S
C146 O156 1.281 . S
C146 O157 1.252 . S
C147 O158 1.272 . S
C147 O159 1.245 . S
C148 O136 1.259 . S
C148 O137 1.257 . S
C149 O138 1.253 . S
C149 O139 1.268 . S
C150 O140 1.281 . S
C150 O141 1.252 . S
C151 O142 1.272 . S
C151 O143 1.245 . S
O152 Co128 2.053 . S
O152 C144 1.259 . S
O153 Co130 2.047 . S
O153 C144 1.257 . S
O154 Co129 2.063 . S
O154 C145 1.268 . S
O155 Co128 2.094 . S
O155 C145 1.253 . S
O156 Co135 2.115 . S
O156 C146 1.281 . S
O157 Co135 2.315 . S
O157 C146 1.252 . S
O158 Co128 2.122 . S
O158 C147 1.272 . S
O159 Co130 2.113 . S
O159 C147 1.245 . S
Co160 H163 2.400 . S
Co160 O164 2.009 . S
Co160 O172 2.115 . S
Co160 O173 2.315 . S
Co160 O184 2.053 . S
Co160 O187 2.094 . S
Co160 O190 2.122 . S
Co161 O164 2.126 . S
Co161 H165 2.388 . S
Co161 O166 2.053 . S
Co161 O169 2.047 . S
Co161 O175 2.113 . S
Co161 O186 2.063 . S
Co162 H163 2.388 . S
Co162 O164 2.053 . S
Co162 O166 2.126 . S
Co162 O171 2.063 . S
Co162 O185 2.047 . S
Co162 O191 2.113 . S
H163 Co160 2.400 . S
H163 Co162 2.388 . S
H163 O164 0.760 . S
O164 Co160 2.009 . S
O164 Co161 2.126 . S
O164 Co162 2.053 . S
O164 H163 0.760 . S
H165 Co161 2.388 . S
H165 O166 0.760 . S
H165 Co167 2.400 . S
O166 Co161 2.053 . S
O166 Co162 2.126 . S
O166 H165 0.760 . S
O166 Co167 2.009 . S
Co167 H165 2.400 . S
Co167 O166 2.009 . S
Co167 O168 2.053 . S
Co167 O170 2.094 . S
Co167 O174 2.122 . S
Co167 O188 2.115 . S
Co167 O189 2.315 . S
O168 Co167 2.053 . S
O168 C180 1.259 . S
O169 Co161 2.047 . S
O169 C180 1.257 . S
O170 Co167 2.094 . S
O170 C181 1.253 . S
O171 Co162 2.063 . S
O171 C181 1.268 . S
O172 Co160 2.115 . S
O172 C182 1.281 . S
O173 Co160 2.315 . S
O173 C182 1.252 . S
O174 Co167 2.122 . S
O174 C183 1.272 . S
O175 Co161 2.113 . S
O175 C183 1.245 . S
C176 O184 1.259 . S
C176 O185 1.257 . S
C177 O186 1.268 . S
C177 O187 1.253 . S
C178 O188 1.281 . S
C178 O189 1.252 . S
C179 O190 1.272 . S
C179 O191 1.245 . S
C180 O168 1.259 . S
C180 O169 1.257 . S
C181 O170 1.253 . S
C181 O171 1.268 . S
C182 O172 1.281 . S
C182 O173 1.252 . S
C183 O174 1.272 . S
C183 O175 1.245 . S
O184 Co160 2.053 . S
O184 C176 1.259 . S
O185 Co162 2.047 . S
O185 C176 1.257 . S
O186 Co161 2.063 . S
O186 C177 1.268 . S
O187 Co160 2.094 . S
O187 C177 1.253 . S
O188 Co167 2.115 . S
O188 C178 1.281 . S
O189 Co167 2.315 . S
O189 C178 1.252 . S
O190 Co160 2.122 . S
O190 C179 1.272 . S
O191 Co162 2.113 . S
O191 C179 1.245 . S
Co192 H195 2.400 . S
Co192 O196 2.009 . S
Co192 O204 2.115 . S
Co192 O205 2.315 . S
Co192 O216 2.053 . S
Co192 O219 2.094 . S
Co192 O222 2.122 . S
Co193 O196 2.126 . S
Co193 H197 2.388 . S
Co193 O198 2.053 . S
Co193 O201 2.047 . S
Co193 O207 2.113 . S
Co193 O218 2.063 . S
Co194 H195 2.388 . S
Co194 O196 2.053 . S
Co194 O198 2.126 . S
Co194 O203 2.063 . S
Co194 O217 2.047 . S
Co194 O223 2.113 . S
H195 Co192 2.400 . S
H195 Co194 2.388 . S
H195 O196 0.760 . S
O196 Co192 2.009 . S
O196 Co193 2.126 . S
O196 Co194 2.053 . S
O196 H195 0.760 . S
H197 Co193 2.388 . S
H197 O198 0.760 . S
H197 Co199 2.400 . S
O198 Co193 2.053 . S
O198 Co194 2.126 . S
O198 H197 0.760 . S
O198 Co199 2.009 . S
Co199 H197 2.400 . S
Co199 O198 2.009 . S
Co199 O200 2.053 . S
Co199 O202 2.094 . S
Co199 O206 2.122 . S
Co199 O220 2.115 . S
Co199 O221 2.315 . S
O200 Co199 2.053 . S
O200 C212 1.259 . S
O201 Co193 2.047 . S
O201 C212 1.257 . S
O202 Co199 2.094 . S
O202 C213 1.253 . S
O203 Co194 2.063 . S
O203 C213 1.268 . S
O204 Co192 2.115 . S
O204 C214 1.281 . S
O205 Co192 2.315 . S
O205 C214 1.252 . S
O206 Co199 2.122 . S
O206 C215 1.272 . S
O207 Co193 2.113 . S
O207 C215 1.245 . S
C208 O216 1.259 . S
C208 O217 1.257 . S
C209 O218 1.268 . S
C209 O219 1.253 . S
C210 O220 1.281 . S
C210 O221 1.252 . S
C211 O222 1.272 . S
C211 O223 1.245 . S
C212 O200 1.259 . S
C212 O201 1.257 . S
C213 O202 1.253 . S
C213 O203 1.268 . S
C214 O204 1.281 . S
C214 O205 1.252 . S
C215 O206 1.272 . S
C215 O207 1.245 . S
O216 Co192 2.053 . S
O216 C208 1.259 . S
O217 Co194 2.047 . S
O217 C208 1.257 . S
O218 Co193 2.063 . S
O218 C209 1.268 . S
O219 Co192 2.094 . S
O219 C209 1.253 . S
O220 Co199 2.115 . S
O220 C210 1.281 . S
O221 Co199 2.315 . S
O221 C210 1.252 . S
O222 Co192 2.122 . S
O222 C211 1.272 . S
O223 Co194 2.113 . S
O223 C211 1.245 . S
Co224 H227 2.400 . S
Co224 O228 2.009 . S
Co224 O236 2.115 . S
Co224 O237 2.315 . S
Co224 O248 2.053 . S
Co224 O251 2.094 . S
Co224 O254 2.122 . S
Co225 O228 2.126 . S
Co225 H229 2.388 . S
Co225 O230 2.053 . S
Co225 O233 2.047 . S
Co225 O239 2.113 . S
Co225 O250 2.063 . S
Co226 H227 2.388 . S
Co226 O228 2.053 . S
Co226 O230 2.126 . S
Co226 O235 2.063 . S
Co226 O249 2.047 . S
Co226 O255 2.113 . S
H227 Co224 2.400 . S
H227 Co226 2.388 . S
H227 O228 0.760 . S
O228 Co224 2.009 . S
O228 Co225 2.126 . S
O228 Co226 2.053 . S
O228 H227 0.760 . S
H229 Co225 2.388 . S
H229 O230 0.760 . S
H229 Co231 2.400 . S
O230 Co225 2.053 . S
O230 Co226 2.126 . S
O230 H229 0.760 . S
O230 Co231 2.009 . S
Co231 H229 2.400 . S
Co231 O230 2.009 . S
Co231 O232 2.053 . S
Co231 O234 2.094 . S
Co231 O238 2.122 . S
Co231 O252 2.115 . S
Co231 O253 2.315 . S
O232 Co231 2.053 . S
O232 C244 1.259 . S
O233 Co225 2.047 . S
O233 C244 1.257 . S
O234 Co231 2.094 . S
O234 C245 1.253 . S
O235 Co226 2.063 . S
O235 C245 1.268 . S
O236 Co224 2.115 . S
O236 C246 1.281 . S
O237 Co224 2.315 . S
O237 C246 1.252 . S
O238 Co231 2.122 . S
O238 C247 1.272 . S
O239 Co225 2.113 . S
O239 C247 1.245 . S
C240 O248 1.259 . S
C240 O249 1.257 . S
C241 O250 1.268 . S
C241 O251 1.253 . S
C242 O252 1.281 . S
C242 O253 1.252 . S
C243 O254 1.272 . S
C243 O255 1.245 . S
C244 O232 1.259 . S
C244 O233 1.257 . S
C245 O234 1.253 . S
C245 O235 1.268 . S
C246 O236 1.281 . S
C246 O237 1.252 . S
C247 O238 1.272 . S
C247 O239 1.245 . S
O248 Co224 2.053 . S
O248 C240 1.259 . S
O249 Co226 2.047 . S
O249 C240 1.257 . S
O250 Co225 2.063 . S
O250 C241 1.268 . S
O251 Co224 2.094 . S
O251 C241 1.253 . S
O252 Co231 2.115 . S
O252 C242 1.281 . S
O253 Co231 2.315 . S
O253 C242 1.252 . S
O254 Co224 2.122 . S
O254 C243 1.272 . S
O255 Co226 2.113 . S
O255 C243 1.245 . S
Co256 H259 2.400 . S
Co256 O260 2.009 . S
Co256 O268 2.115 . S
Co256 O269 2.315 . S
Co256 O280 2.053 . S
Co256 O283 2.094 . S
Co256 O286 2.122 . S
Co257 O260 2.126 . S
Co257 H261 2.388 . S
Co257 O262 2.053 . S
Co257 O265 2.047 . S
Co257 O271 2.113 . S
Co257 O282 2.063 . S
Co258 H259 2.388 . S
Co258 O260 2.053 . S
Co258 O262 2.126 . S
Co258 O267 2.063 . S
Co258 O281 2.047 . S
Co258 O287 2.113 . S
H259 Co256 2.400 . S
H259 Co258 2.388 . S
H259 O260 0.760 . S
O260 Co256 2.009 . S
O260 Co257 2.126 . S
O260 Co258 2.053 . S
O260 H259 0.760 . S
H261 Co257 2.388 . S
H261 O262 0.760 . S
H261 Co263 2.400 . S
O262 Co257 2.053 . S
O262 Co258 2.126 . S
O262 H261 0.760 . S
O262 Co263 2.009 . S
Co263 H261 2.400 . S
Co263 O262 2.009 . S
Co263 O264 2.053 . S
Co263 O266 2.094 . S
Co263 O270 2.122 . S
Co263 O284 2.115 . S
Co263 O285 2.315 . S
O264 Co263 2.053 . S
O264 C276 1.259 . S
O265 Co257 2.047 . S
O265 C276 1.257 . S
O266 Co263 2.094 . S
O266 C277 1.253 . S
O267 Co258 2.063 . S
O267 C277 1.268 . S
O268 Co256 2.115 . S
O268 C278 1.281 . S
O269 Co256 2.315 . S
O269 C278 1.252 . S
O270 Co263 2.122 . S
O270 C279 1.272 . S
O271 Co257 2.113 . S
O271 C279 1.245 . S
C272 O280 1.259 . S
C272 O281 1.257 . S
C273 O282 1.268 . S
C273 O283 1.253 . S
C274 O284 1.281 . S
C274 O285 1.252 . S
C275 O286 1.272 . S
C275 O287 1.245 . S
C276 O264 1.259 . S
C276 O265 1.257 . S
C277 O266 1.253 . S
C277 O267 1.268 . S
C278 O268 1.281 . S
C278 O269 1.252 . S
C279 O270 1.272 . S
C279 O271 1.245 . S
O280 Co256 2.053 . S
O280 C272 1.259 . S
O281 Co258 2.047 . S
O281 C272 1.257 . S
O282 Co257 2.063 . S
O282 C273 1.268 . S
O283 Co256 2.094 . S
O283 C273 1.253 . S
O284 Co263 2.115 . S
O284 C274 1.281 . S
O285 Co263 2.315 . S
O285 C274 1.252 . S
O286 Co256 2.122 . S
O286 C275 1.272 . S
O287 Co258 2.113 . S
O287 C275 1.245 . S
Co288 H291 2.400 . S
Co288 O292 2.009 . S
Co288 O300 2.115 . S
Co288 O301 2.315 . S
Co288 O312 2.053 . S
Co288 O315 2.094 . S
Co288 O318 2.122 . S
Co289 O292 2.126 . S
Co289 H293 2.388 . S
Co289 O294 2.053 . S
Co289 O297 2.047 . S
Co289 O303 2.113 . S
Co289 O314 2.063 . S
Co290 H291 2.388 . S
Co290 O292 2.053 . S
Co290 O294 2.126 . S
Co290 O299 2.063 . S
Co290 O313 2.047 . S
Co290 O319 2.113 . S
H291 Co288 2.400 . S
H291 Co290 2.388 . S
H291 O292 0.760 . S
O292 Co288 2.009 . S
O292 Co289 2.126 . S
O292 Co290 2.053 . S
O292 H291 0.760 . S
H293 Co289 2.388 . S
H293 O294 0.760 . S
H293 Co295 2.400 . S
O294 Co289 2.053 . S
O294 Co290 2.126 . S
O294 H293 0.760 . S
O294 Co295 2.009 . S
Co295 H293 2.400 . S
Co295 O294 2.009 . S
Co295 O296 2.053 . S
Co295 O298 2.094 . S
Co295 O302 2.122 . S
Co295 O316 2.115 . S
Co295 O317 2.315 . S
O296 Co295 2.053 . S
O296 C308 1.259 . S
O297 Co289 2.047 . S
O297 C308 1.257 . S
O298 Co295 2.094 . S
O298 C309 1.253 . S
O299 Co290 2.063 . S
O299 C309 1.268 . S
O300 Co288 2.115 . S
O300 C310 1.281 . S
O301 Co288 2.315 . S
O301 C310 1.252 . S
O302 Co295 2.122 . S
O302 C311 1.272 . S
O303 Co289 2.113 . S
O303 C311 1.245 . S
C304 O312 1.259 . S
C304 O313 1.257 . S
C305 O314 1.268 . S
C305 O315 1.253 . S
C306 O316 1.281 . S
C306 O317 1.252 . S
C307 O318 1.272 . S
C307 O319 1.245 . S
C308 O296 1.259 . S
C308 O297 1.257 . S
C309 O298 1.253 . S
C309 O299 1.268 . S
C310 O300 1.281 . S
C310 O301 1.252 . S
C311 O302 1.272 . S
C311 O303 1.245 . S
O312 Co288 2.053 . S
O312 C304 1.259 . S
O313 Co290 2.047 . S
O313 C304 1.257 . S
O314 Co289 2.063 . S
O314 C305 1.268 . S
O315 Co288 2.094 . S
O315 C305 1.253 . S
O316 Co295 2.115 . S
O316 C306 1.281 . S
O317 Co295 2.315 . S
O317 C306 1.252 . S
O318 Co288 2.122 . S
O318 C307 1.272 . S
O319 Co290 2.113 . S
O319 C307 1.245 . S
Co320 H323 2.400 . S
Co320 O324 2.009 . S
Co320 O332 2.115 . S
Co320 O333 2.315 . S
Co320 O344 2.053 . S
Co320 O347 2.094 . S
Co320 O350 2.122 . S
Co321 O324 2.126 . S
Co321 H325 2.388 . S
Co321 O326 2.053 . S
Co321 O329 2.047 . S
Co321 O335 2.113 . S
Co321 O346 2.063 . S
Co322 H323 2.388 . S
Co322 O324 2.053 . S
Co322 O326 2.126 . S
Co322 O331 2.063 . S
Co322 O345 2.047 . S
Co322 O351 2.113 . S
H323 Co320 2.400 . S
H323 Co322 2.388 . S
H323 O324 0.760 . S
O324 Co320 2.009 . S
O324 Co321 2.126 . S
O324 Co322 2.053 . S
O324 H323 0.760 . S
H325 Co321 2.388 . S
H325 O326 0.760 . S
H325 Co327 2.400 . S
O326 Co321 2.053 . S
O326 Co322 2.126 . S
O326 H325 0.760 . S
O326 Co327 2.009 . S
Co327 H325 2.400 . S
Co327 O326 2.009 . S
Co327 O328 2.053 . S
Co327 O330 2.094 . S
Co327 O334 2.122 . S
Co327 O348 2.115 . S
Co327 O349 2.315 . S
O328 Co327 2.053 . S
O328 C340 1.259 . S
O329 Co321 2.047 . S
O329 C340 1.257 . S
O330 Co327 2.094 . S
O330 C341 1.253 . S
O331 Co322 2.063 . S
O331 C341 1.268 . S
O332 Co320 2.115 . S
O332 C342 1.281 . S
O333 Co320 2.315 . S
O333 C342 1.252 . S
O334 Co327 2.122 . S
O334 C343 1.272 . S
O335 Co321 2.113 . S
O335 C343 1.245 . S
C336 O344 1.259 . S
C336 O345 1.257 . S
C337 O346 1.268 . S
C337 O347 1.253 . S
C338 O348 1.281 . S
C338 O349 1.252 . S
C339 O350 1.272 . S
C339 O351 1.245 . S
C340 O328 1.259 . S
C340 O329 1.257 . S
C341 O330 1.253 . S
C341 O331 1.268 . S
C342 O332 1.281 . S
C342 O333 1.252 . S
C343 O334 1.272 . S
C343 O335 1.245 . S
O344 Co320 2.053 . S
O344 C336 1.259 . S
O345 Co322 2.047 . S
O345 C336 1.257 . S
O346 Co321 2.063 . S
O346 C337 1.268 . S
O347 Co320 2.094 . S
O347 C337 1.253 . S
O348 Co327 2.115 . S
O348 C338 1.281 . S
O349 Co327 2.315 . S
O349 C338 1.252 . S
O350 Co320 2.122 . S
O350 C339 1.272 . S
O351 Co322 2.113 . S
O351 C339 1.245 . S
Co352 H355 2.400 . S
Co352 O356 2.009 . S
Co352 O364 2.115 . S
Co352 O365 2.315 . S
Co352 O376 2.053 . S
Co352 O379 2.094 . S
Co352 O382 2.122 . S
Co353 O356 2.126 . S
Co353 H357 2.388 . S
Co353 O358 2.053 . S
Co353 O361 2.047 . S
Co353 O367 2.113 . S
Co353 O378 2.063 . S
Co354 H355 2.388 . S
Co354 O356 2.053 . S
Co354 O358 2.126 . S
Co354 O363 2.063 . S
Co354 O377 2.047 . S
Co354 O383 2.113 . S
H355 Co352 2.400 . S
H355 Co354 2.388 . S
H355 O356 0.760 . S
O356 Co352 2.009 . S
O356 Co353 2.126 . S
O356 Co354 2.053 . S
O356 H355 0.760 . S
H357 Co353 2.388 . S
H357 O358 0.760 . S
H357 Co359 2.400 . S
O358 Co353 2.053 . S
O358 Co354 2.126 . S
O358 H357 0.760 . S
O358 Co359 2.009 . S
Co359 H357 2.400 . S
Co359 O358 2.009 . S
Co359 O360 2.053 . S
Co359 O362 2.094 . S
Co359 O366 2.122 . S
Co359 O380 2.115 . S
Co359 O381 2.315 . S
O360 Co359 2.053 . S
O360 C372 1.259 . S
O361 Co353 2.047 . S
O361 C372 1.257 . S
O362 Co359 2.094 . S
O362 C373 1.253 . S
O363 Co354 2.063 . S
O363 C373 1.268 . S
O364 Co352 2.115 . S
O364 C374 1.281 . S
O365 Co352 2.315 . S
O365 C374 1.252 . S
O366 Co359 2.122 . S
O366 C375 1.272 . S
O367 Co353 2.113 . S
O367 C375 1.245 . S
C368 O376 1.259 . S
C368 O377 1.257 . S
C369 O378 1.268 . S
C369 O379 1.253 . S
C370 O380 1.281 . S
C370 O381 1.252 . S
C371 O382 1.272 . S
C371 O383 1.245 . S
C372 O360 1.259 . S
C372 O361 1.257 . S
C373 O362 1.253 . S
C373 O363 1.268 . S
C374 O364 1.281 . S
C374 O365 1.252 . S
C375 O366 1.272 . S
C375 O367 1.245 . S
O376 Co352 2.053 . S
O376 C368 1.259 . S
O377 Co354 2.047 . S
O377 C368 1.257 . S
O378 Co353 2.063 . S
O378 C369 1.268 . S
O379 Co352 2.094 . S
O379 C369 1.253 . S
O380 Co359 2.115 . S
O380 C370 1.281 . S
O381 Co359 2.315 . S
O381 C370 1.252 . S
O382 Co352 2.122 . S
O382 C371 1.272 . S
O383 Co354 2.113 . S
O383 C371 1.245 . S
Co384 H387 2.400 . S
Co384 O388 2.009 . S
Co384 O396 2.115 . S
Co384 O397 2.315 . S
Co384 O408 2.053 . S
Co384 O411 2.094 . S
Co384 O414 2.122 . S
Co385 O388 2.126 . S
Co385 H389 2.388 . S
Co385 O390 2.053 . S
Co385 O393 2.047 . S
Co385 O399 2.113 . S
Co385 O410 2.063 . S
Co386 H387 2.388 . S
Co386 O388 2.053 . S
Co386 O390 2.126 . S
Co386 O395 2.063 . S
Co386 O409 2.047 . S
Co386 O415 2.113 . S
H387 Co384 2.400 . S
H387 Co386 2.388 . S
H387 O388 0.760 . S
O388 Co384 2.009 . S
O388 Co385 2.126 . S
O388 Co386 2.053 . S
O388 H387 0.760 . S
H389 Co385 2.388 . S
H389 O390 0.760 . S
H389 Co391 2.400 . S
O390 Co385 2.053 . S
O390 Co386 2.126 . S
O390 H389 0.760 . S
O390 Co391 2.009 . S
Co391 H389 2.400 . S
Co391 O390 2.009 . S
Co391 O392 2.053 . S
Co391 O394 2.094 . S
Co391 O398 2.122 . S
Co391 O412 2.115 . S
Co391 O413 2.315 . S
O392 Co391 2.053 . S
O392 C404 1.259 . S
O393 Co385 2.047 . S
O393 C404 1.257 . S
O394 Co391 2.094 . S
O394 C405 1.253 . S
O395 Co386 2.063 . S
O395 C405 1.268 . S
O396 Co384 2.115 . S
O396 C406 1.281 . S
O397 Co384 2.315 . S
O397 C406 1.252 . S
O398 Co391 2.122 . S
O398 C407 1.272 . S
O399 Co385 2.113 . S
O399 C407 1.245 . S
C400 O408 1.259 . S
C400 O409 1.257 . S
C401 O410 1.268 . S
C401 O411 1.253 . S
C402 O412 1.281 . S
C402 O413 1.252 . S
C403 O414 1.272 . S
C403 O415 1.245 . S
C404 O392 1.259 . S
C404 O393 1.257 . S
C405 O394 1.253 . S
C405 O395 1.268 . S
C406 O396 1.281 . S
C406 O397 1.252 . S
C407 O398 1.272 . S
C407 O399 1.245 . S
O408 Co384 2.053 . S
O408 C400 1.259 . S
O409 Co386 2.047 . S
O409 C400 1.257 . S
O410 Co385 2.063 . S
O410 C401 1.268 . S
O411 Co384 2.094 . S
O411 C401 1.253 . S
O412 Co391 2.115 . S
O412 C402 1.281 . S
O413 Co391 2.315 . S
O413 C402 1.252 . S
O414 Co384 2.122 . S
O414 C403 1.272 . S
O415 Co386 2.113 . S
O415 C403 1.245 . S
Co416 H419 2.400 . S
Co416 O420 2.009 . S
Co416 O428 2.115 . S
Co416 O429 2.315 . S
Co416 O440 2.053 . S
Co416 O443 2.094 . S
Co416 O446 2.122 . S
Co417 O420 2.126 . S
Co417 H421 2.388 . S
Co417 O422 2.053 . S
Co417 O425 2.047 . S
Co417 O431 2.113 . S
Co417 O442 2.063 . S
Co418 H419 2.388 . S
Co418 O420 2.053 . S
Co418 O422 2.126 . S
Co418 O427 2.063 . S
Co418 O441 2.047 . S
Co418 O447 2.113 . S
H419 Co416 2.400 . S
H419 Co418 2.388 . S
H419 O420 0.760 . S
O420 Co416 2.009 . S
O420 Co417 2.126 . S
O420 Co418 2.053 . S
O420 H419 0.760 . S
H421 Co417 2.388 . S
H421 O422 0.760 . S
H421 Co423 2.400 . S
O422 Co417 2.053 . S
O422 Co418 2.126 . S
O422 H421 0.760 . S
O422 Co423 2.009 . S
Co423 H421 2.400 . S
Co423 O422 2.009 . S
Co423 O424 2.053 . S
Co423 O426 2.094 . S
Co423 O430 2.122 . S
Co423 O444 2.115 . S
Co423 O445 2.315 . S
O424 Co423 2.053 . S
O424 C436 1.259 . S
O425 Co417 2.047 . S
O425 C436 1.257 . S
O426 Co423 2.094 . S
O426 C437 1.253 . S
O427 Co418 2.063 . S
O427 C437 1.268 . S
O428 Co416 2.115 . S
O428 C438 1.281 . S
O429 Co416 2.315 . S
O429 C438 1.252 . S
O430 Co423 2.122 . S
O430 C439 1.272 . S
O431 Co417 2.113 . S
O431 C439 1.245 . S
C432 O440 1.259 . S
C432 O441 1.257 . S
C433 O442 1.268 . S
C433 O443 1.253 . S
C434 O444 1.281 . S
C434 O445 1.252 . S
C435 O446 1.272 . S
C435 O447 1.245 . S
C436 O424 1.259 . S
C436 O425 1.257 . S
C437 O426 1.253 . S
C437 O427 1.268 . S
C438 O428 1.281 . S
C438 O429 1.252 . S
C439 O430 1.272 . S
C439 O431 1.245 . S
O440 Co416 2.053 . S
O440 C432 1.259 . S
O441 Co418 2.047 . S
O441 C432 1.257 . S
O442 Co417 2.063 . S
O442 C433 1.268 . S
O443 Co416 2.094 . S
O443 C433 1.253 . S
O444 Co423 2.115 . S
O444 C434 1.281 . S
O445 Co423 2.315 . S
O445 C434 1.252 . S
O446 Co416 2.122 . S
O446 C435 1.272 . S
O447 Co418 2.113 . S
O447 C435 1.245 . S
Co448 H451 2.400 . S
Co448 O452 2.009 . S
Co448 O460 2.115 . S
Co448 O461 2.315 . S
Co448 O472 2.053 . S
Co448 O475 2.094 . S
Co448 O478 2.122 . S
Co449 O452 2.126 . S
Co449 H453 2.388 . S
Co449 O454 2.053 . S
Co449 O457 2.047 . S
Co449 O463 2.113 . S
Co449 O474 2.063 . S
Co450 H451 2.388 . S
Co450 O452 2.053 . S
Co450 O454 2.126 . S
Co450 O459 2.063 . S
Co450 O473 2.047 . S
Co450 O479 2.113 . S
H451 Co448 2.400 . S
H451 Co450 2.388 . S
H451 O452 0.760 . S
O452 Co448 2.009 . S
O452 Co449 2.126 . S
O452 Co450 2.053 . S
O452 H451 0.760 . S
H453 Co449 2.388 . S
H453 O454 0.760 . S
H453 Co455 2.400 . S
O454 Co449 2.053 . S
O454 Co450 2.126 . S
O454 H453 0.760 . S
O454 Co455 2.009 . S
Co455 H453 2.400 . S
Co455 O454 2.009 . S
Co455 O456 2.053 . S
Co455 O458 2.094 . S
Co455 O462 2.122 . S
Co455 O476 2.115 . S
Co455 O477 2.315 . S
O456 Co455 2.053 . S
O456 C468 1.259 . S
O457 Co449 2.047 . S
O457 C468 1.257 . S
O458 Co455 2.094 . S
O458 C469 1.253 . S
O459 Co450 2.063 . S
O459 C469 1.268 . S
O460 Co448 2.115 . S
O460 C470 1.281 . S
O461 Co448 2.315 . S
O461 C470 1.252 . S
O462 Co455 2.122 . S
O462 C471 1.272 . S
O463 Co449 2.113 . S
O463 C471 1.245 . S
C464 O472 1.259 . S
C464 O473 1.257 . S
C465 O474 1.268 . S
C465 O475 1.253 . S
C466 O476 1.281 . S
C466 O477 1.252 . S
C467 O478 1.272 . S
C467 O479 1.245 . S
C468 O456 1.259 . S
C468 O457 1.257 . S
C469 O458 1.253 . S
C469 O459 1.268 . S
C470 O460 1.281 . S
C470 O461 1.252 . S
C471 O462 1.272 . S
C471 O463 1.245 . S
O472 Co448 2.053 . S
O472 C464 1.259 . S
O473 Co450 2.047 . S
O473 C464 1.257 . S
O474 Co449 2.063 . S
O474 C465 1.268 . S
O475 Co448 2.094 . S
O475 C465 1.253 . S
O476 Co455 2.115 . S
O476 C466 1.281 . S
O477 Co455 2.315 . S
O477 C466 1.252 . S
O478 Co448 2.122 . S
O478 C467 1.272 . S
O479 Co450 2.113 . S
O479 C467 1.245 . S
Co480 H483 2.400 . S
Co480 O484 2.009 . S
Co480 O492 2.115 . S
Co480 O493 2.315 . S
Co480 O504 2.053 . S
Co480 O507 2.094 . S
Co480 O510 2.122 . S
Co481 O484 2.126 . S
Co481 H485 2.388 . S
Co481 O486 2.053 . S
Co481 O489 2.047 . S
Co481 O495 2.113 . S
Co481 O506 2.063 . S
Co482 H483 2.388 . S
Co482 O484 2.053 . S
Co482 O486 2.126 . S
Co482 O491 2.063 . S
Co482 O505 2.047 . S
Co482 O511 2.113 . S
H483 Co480 2.400 . S
H483 Co482 2.388 . S
H483 O484 0.760 . S
O484 Co480 2.009 . S
O484 Co481 2.126 . S
O484 Co482 2.053 . S
O484 H483 0.760 . S
H485 Co481 2.388 . S
H485 O486 0.760 . S
H485 Co487 2.400 . S
O486 Co481 2.053 . S
O486 Co482 2.126 . S
O486 H485 0.760 . S
O486 Co487 2.009 . S
Co487 H485 2.400 . S
Co487 O486 2.009 . S
Co487 O488 2.053 . S
Co487 O490 2.094 . S
Co487 O494 2.122 . S
Co487 O508 2.115 . S
Co487 O509 2.315 . S
O488 Co487 2.053 . S
O488 C500 1.259 . S
O489 Co481 2.047 . S
O489 C500 1.257 . S
O490 Co487 2.094 . S
O490 C501 1.253 . S
O491 Co482 2.063 . S
O491 C501 1.268 . S
O492 Co480 2.115 . S
O492 C502 1.281 . S
O493 Co480 2.315 . S
O493 C502 1.252 . S
O494 Co487 2.122 . S
O494 C503 1.272 . S
O495 Co481 2.113 . S
O495 C503 1.245 . S
C496 O504 1.259 . S
C496 O505 1.257 . S
C497 O506 1.268 . S
C497 O507 1.253 . S
C498 O508 1.281 . S
C498 O509 1.252 . S
C499 O510 1.272 . S
C499 O511 1.245 . S
C500 O488 1.259 . S
C500 O489 1.257 . S
C501 O490 1.253 . S
C501 O491 1.268 . S
C502 O492 1.281 . S
C502 O493 1.252 . S
C503 O494 1.272 . S
C503 O495 1.245 . S
O504 Co480 2.053 . S
O504 C496 1.259 . S
O505 Co482 2.047 . S
O505 C496 1.257 . S
O506 Co481 2.063 . S
O506 C497 1.268 . S
O507 Co480 2.094 . S
O507 C497 1.253 . S
O508 Co487 2.115 . S
O508 C498 1.281 . S
O509 Co487 2.315 . S
O509 C498 1.252 . S
O510 Co480 2.122 . S
O510 C499 1.272 . S
O511 Co482 2.113 . S
O511 C499 1.245 . S
C512 C513 1.349 . S
C512 C514 1.327 . S
C512 H537 0.950 . S
C513 C512 1.349 . S
C513 C529 1.349 . S
C514 C512 1.327 . S
C514 C533 1.429 . S
C514 H538 0.950 . S
C515 C532 1.574 . S
C515 C534 1.368 . S
C515 H539 0.949 . S
H516 C520 0.949 . S
C517 C518 1.349 . S
C517 C519 1.327 . S
C517 H540 0.950 . S
C518 C517 1.349 . S
C518 C530 1.349 . S
C519 C517 1.327 . S
C519 C535 1.429 . S
C519 H541 0.950 . S
C520 H516 0.949 . S
C520 C528 1.574 . S
C520 C536 1.368 . S
H521 C529 0.950 . S
H522 C527 0.950 . S
H523 C528 0.949 . S
H524 C530 0.950 . S
H525 C531 0.950 . S
H526 C532 0.949 . S
C527 H522 0.950 . S
C527 C529 1.327 . S
C527 C533 1.429 . S
C528 C520 1.574 . S
C528 H523 0.949 . S
C528 C534 1.368 . S
C529 C513 1.349 . S
C529 H521 0.950 . S
C529 C527 1.327 . S
C530 C518 1.349 . S
C530 H524 0.950 . S
C530 C531 1.327 . S
C531 H525 0.950 . S
C531 C530 1.327 . S
C531 C535 1.429 . S
C532 C515 1.574 . S
C532 H526 0.949 . S
C532 C536 1.368 . S
C533 C514 1.429 . S
C533 C527 1.429 . S
C533 C534 1.523 . S
C534 C515 1.368 . S
C534 C528 1.368 . S
C534 C533 1.523 . S
C535 C519 1.429 . S
C535 C531 1.429 . S
C535 C536 1.523 . S
C536 C520 1.368 . S
C536 C532 1.368 . S
C536 C535 1.523 . S
H537 C512 0.950 . S
H538 C514 0.950 . S
H539 C515 0.949 . S
H540 C517 0.950 . S
H541 C519 0.950 . S
C542 C543 1.349 1_565 S
C542 C544 1.327 . S
C542 H567 0.950 . S
C543 C542 1.349 1_545 S
C543 C559 1.349 1_455 S
C544 C542 1.327 . S
C544 C563 1.429 1_455 S
C544 H568 0.950 . S
C545 C562 1.574 . S
C545 C564 1.368 . S
C545 H569 0.949 . S
H546 C550 0.949 . S
C547 C548 1.349 . S
C547 C549 1.327 . S
C547 H570 0.950 . S
C548 C547 1.349 . S
C548 C560 1.349 . S
C549 C547 1.327 . S
C549 C565 1.429 . S
C549 H571 0.950 . S
C550 H546 0.949 . S
C550 C558 1.574 . S
C550 C566 1.368 . S
H551 C559 0.950 . S
H552 C557 0.950 . S
H553 C558 0.949 . S
H554 C560 0.950 . S
H555 C561 0.950 . S
H556 C562 0.949 . S
C557 H552 0.950 . S
C557 C559 1.327 1_565 S
C557 C563 1.429 . S
C558 C550 1.574 . S
C558 H553 0.949 . S
C558 C564 1.368 . S
C559 C543 1.349 1_655 S
C559 H551 0.950 . S
C559 C557 1.327 1_545 S
C560 C548 1.349 . S
C560 H554 0.950 . S
C560 C561 1.327 . S
C561 H555 0.950 . S
C561 C560 1.327 . S
C561 C565 1.429 . S
C562 C545 1.574 . S
C562 H556 0.949 . S
C562 C566 1.368 . S
C563 C544 1.429 1_655 S
C563 C557 1.429 . S
C563 C564 1.523 . S
C564 C545 1.368 . S
C564 C558 1.368 . S
C564 C563 1.523 . S
C565 C549 1.429 . S
C565 C561 1.429 . S
C565 C566 1.523 . S
C566 C550 1.368 . S
C566 C562 1.368 . S
C566 C565 1.523 . S
H567 C542 0.950 . S
H568 C544 0.950 . S
H569 C545 0.949 . S
H570 C547 0.950 . S
H571 C549 0.950 . S
C572 C573 1.349 1_565 S
C572 C574 1.327 . S
C572 H597 0.950 1_565 S
C573 C572 1.349 1_545 S
C573 C589 1.349 1_545 S
C574 C572 1.327 . S
C574 C593 1.429 . S
C574 H598 0.950 . S
C575 C592 1.574 . S
C575 C594 1.368 . S
C575 H599 0.949 . S
H576 C580 0.949 . S
C577 C578 1.349 . S
C577 C579 1.327 . S
C577 H600 0.950 . S
C578 C577 1.349 . S
C578 C590 1.349 . S
C579 C577 1.327 . S
C579 C595 1.429 . S
C579 H601 0.950 . S
C580 H576 0.949 . S
C580 C588 1.574 . S
C580 C596 1.368 . S
H581 C589 0.950 1_545 S
H582 C587 0.950 . S
H583 C588 0.949 . S
H584 C590 0.950 . S
H585 C591 0.950 . S
H586 C592 0.949 . S
C587 H582 0.950 . S
C587 C589 1.327 . S
C587 C593 1.429 . S
C588 C580 1.574 . S
C588 H583 0.949 . S
C588 C594 1.368 . S
C589 C573 1.349 1_565 S
C589 H581 0.950 1_565 S
C589 C587 1.327 . S
C590 C578 1.349 . S
C590 H584 0.950 . S
C590 C591 1.327 . S
C591 H585 0.950 . S
C591 C590 1.327 . S
C591 C595 1.429 . S
C592 C575 1.574 . S
C592 H586 0.949 . S
C592 C596 1.368 . S
C593 C574 1.429 . S
C593 C587 1.429 . S
C593 C594 1.523 . S
C594 C575 1.368 . S
C594 C588 1.368 . S
C594 C593 1.523 . S
C595 C579 1.429 . S
C595 C591 1.429 . S
C595 C596 1.523 . S
C596 C580 1.368 . S
C596 C592 1.368 . S
C596 C595 1.523 . S
H597 C572 0.950 1_545 S
H598 C574 0.950 . S
H599 C575 0.949 . S
H600 C577 0.950 . S
H601 C579 0.950 . S
C602 C603 1.349 1_655 S
C602 C604 1.327 . S
C602 H627 0.950 . S
C603 C602 1.349 1_455 S
C603 C619 1.349 . S
C604 C602 1.327 . S
C604 C623 1.429 . S
C604 H628 0.950 . S
C605 C622 1.574 . S
C605 C624 1.368 . S
C605 H629 0.949 . S
H606 C610 0.949 . S
C607 C608 1.349 . S
C607 C609 1.327 . S
C607 H630 0.950 . S
C608 C607 1.349 . S
C608 C620 1.349 . S
C609 C607 1.327 . S
C609 C625 1.429 . S
C609 H631 0.950 . S
C610 H606 0.949 . S
C610 C618 1.574 . S
C610 C626 1.368 . S
H611 C619 0.950 . S
H612 C617 0.950 . S
H613 C618 0.949 . S
H614 C620 0.950 . S
H615 C621 0.950 . S
H616 C622 0.949 . S
C617 H612 0.950 . S
C617 C619 1.327 . S
C617 C623 1.429 1_455 S
C618 C610 1.574 . S
C618 H613 0.949 . S
C618 C624 1.368 . S
C619 C603 1.349 . S
C619 H611 0.950 . S
C619 C617 1.327 . S
C620 C608 1.349 . S
C620 H614 0.950 . S
C620 C621 1.327 . S
C621 H615 0.950 . S
C621 C620 1.327 . S
C621 C625 1.429 . S
C622 C605 1.574 . S
C622 H616 0.949 . S
C622 C626 1.368 . S
C623 C604 1.429 . S
C623 C617 1.429 1_655 S
C623 C624 1.523 . S
C624 C605 1.368 . S
C624 C618 1.368 . S
C624 C623 1.523 . S
C625 C609 1.429 . S
C625 C621 1.429 . S
C625 C626 1.523 . S
C626 C610 1.368 . S
C626 C622 1.368 . S
C626 C625 1.523 . S
H627 C602 0.950 . S
H628 C604 0.950 . S
H629 C605 0.949 . S
H630 C607 0.950 . S
H631 C609 0.950 . S
C632 C633 1.349 . S
C632 C634 1.327 . S
C632 H657 0.950 . S
C633 C632 1.349 . S
C633 C649 1.349 . S
C634 C632 1.327 . S
C634 C653 1.429 . S
C634 H658 0.950 . S
C635 C652 1.574 . S
C635 C654 1.368 . S
C635 H659 0.949 . S
H636 C640 0.949 . S
C637 C638 1.349 . S
C637 C639 1.327 . S
C637 H660 0.950 . S
C638 C637 1.349 . S
C638 C650 1.349 . S
C639 C637 1.327 . S
C639 C655 1.429 . S
C639 H661 0.950 . S
C640 H636 0.949 . S
C640 C648 1.574 . S
C640 C656 1.368 . S
H641 C649 0.950 . S
H642 C647 0.950 . S
H643 C648 0.949 . S
H644 C650 0.950 . S
H645 C651 0.950 . S
H646 C652 0.949 . S
C647 H642 0.950 . S
C647 C649 1.327 . S
C647 C653 1.429 . S
C648 C640 1.574 . S
C648 H643 0.949 . S
C648 C654 1.368 . S
C649 C633 1.349 . S
C649 H641 0.950 . S
C649 C647 1.327 . S
C650 C638 1.349 . S
C650 H644 0.950 . S
C650 C651 1.327 . S
C651 H645 0.950 . S
C651 C650 1.327 . S
C651 C655 1.429 . S
C652 C635 1.574 . S
C652 H646 0.949 . S
C652 C656 1.368 . S
C653 C634 1.429 . S
C653 C647 1.429 . S
C653 C654 1.523 . S
C654 C635 1.368 . S
C654 C648 1.368 . S
C654 C653 1.523 . S
C655 C639 1.429 . S
C655 C651 1.429 . S
C655 C656 1.523 . S
C656 C640 1.368 . S
C656 C652 1.368 . S
C656 C655 1.523 . S
H657 C632 0.950 . S
H658 C634 0.950 . S
H659 C635 0.949 . S
H660 C637 0.950 . S
H661 C639 0.950 . S
C662 C663 1.349 1_545 S
C662 C664 1.327 . S
C662 H687 0.950 1_545 S
C663 C662 1.349 1_565 S
C663 C679 1.349 1_655 S
C664 C662 1.327 . S
C664 C683 1.429 1_655 S
C664 H688 0.950 . S
C665 C682 1.574 . S
C665 C684 1.368 . S
C665 H689 0.949 . S
H666 C670 0.949 . S
C667 C668 1.349 . S
C667 C669 1.327 . S
C667 H690 0.950 . S
C668 C667 1.349 . S
C668 C680 1.349 . S
C669 C667 1.327 . S
C669 C685 1.429 . S
C669 H691 0.950 . S
C670 H666 0.949 . S
C670 C678 1.574 . S
C670 C686 1.368 . S
H671 C679 0.950 . S
H672 C677 0.950 . S
H673 C678 0.949 . S
H674 C680 0.950 . S
H675 C681 0.950 . S
H676 C682 0.949 . S
C677 H672 0.950 . S
C677 C679 1.327 1_545 S
C677 C683 1.429 . S
C678 C670 1.574 . S
C678 H673 0.949 . S
C678 C684 1.368 . S
C679 C663 1.349 1_455 S
C679 H671 0.950 . S
C679 C677 1.327 1_565 S
C680 C668 1.349 . S
C680 H674 0.950 . S
C680 C681 1.327 . S
C681 H675 0.950 . S
C681 C680 1.327 . S
C681 C685 1.429 . S
C682 C665 1.574 . S
C682 H676 0.949 . S
C682 C686 1.368 . S
C683 C664 1.429 1_455 S
C683 C677 1.429 . S
C683 C684 1.523 . S
C684 C665 1.368 . S
C684 C678 1.368 . S
C684 C683 1.523 . S
C685 C669 1.429 . S
C685 C681 1.429 . S
C685 C686 1.523 . S
C686 C670 1.368 . S
C686 C682 1.368 . S
C686 C685 1.523 . S
H687 C662 0.950 1_565 S
H688 C664 0.950 . S
H689 C665 0.949 . S
H690 C667 0.950 . S
H691 C669 0.950 . S
C692 C693 1.349 1_545 S
C692 C694 1.327 . S
C692 H717 0.950 . S
C693 C692 1.349 1_565 S
C693 C709 1.349 . S
C694 C692 1.327 . S
C694 C713 1.429 . S
C694 H718 0.950 . S
C695 C712 1.574 . S
C695 C714 1.368 . S
C695 H719 0.949 . S
H696 C700 0.949 . S
C697 C698 1.349 . S
C697 C699 1.327 . S
C697 H720 0.950 . S
C698 C697 1.349 . S
C698 C710 1.349 . S
C699 C697 1.327 . S
C699 C715 1.429 . S
C699 H721 0.950 . S
C700 H696 0.949 . S
C700 C708 1.574 . S
C700 C716 1.368 . S
H701 C709 0.950 . S
H702 C707 0.950 . S
H703 C708 0.949 . S
H704 C710 0.950 . S
H705 C711 0.950 . S
H706 C712 0.949 . S
C707 H702 0.950 . S
C707 C709 1.327 1_545 S
C707 C713 1.429 . S
C708 C700 1.574 . S
C708 H703 0.949 . S
C708 C714 1.368 . S
C709 C693 1.349 . S
C709 H701 0.950 . S
C709 C707 1.327 1_565 S
C710 C698 1.349 . S
C710 H704 0.950 . S
C710 C711 1.327 . S
C711 H705 0.950 . S
C711 C710 1.327 . S
C711 C715 1.429 . S
C712 C695 1.574 . S
C712 H706 0.949 . S
C712 C716 1.368 . S
C713 C694 1.429 . S
C713 C707 1.429 . S
C713 C714 1.523 . S
C714 C695 1.368 . S
C714 C708 1.368 . S
C714 C713 1.523 . S
C715 C699 1.429 . S
C715 C711 1.429 . S
C715 C716 1.523 . S
C716 C700 1.368 . S
C716 C712 1.368 . S
C716 C715 1.523 . S
H717 C692 0.950 . S
H718 C694 0.950 . S
H719 C695 0.949 . S
H720 C697 0.950 . S
H721 C699 0.950 . S
C722 C723 1.349 . S
C722 C724 1.327 . S
C722 H747 0.950 . S
C723 C722 1.349 . S
C723 C739 1.349 1_655 S
C724 C722 1.327 . S
C724 C743 1.429 1_655 S
C724 H748 0.950 . S
C725 C742 1.574 . S
C725 C744 1.368 . S
C725 H749 0.949 . S
H726 C730 0.949 . S
C727 C728 1.349 . S
C727 C729 1.327 . S
C727 H750 0.950 . S
C728 C727 1.349 . S
C728 C740 1.349 . S
C729 C727 1.327 . S
C729 C745 1.429 . S
C729 H751 0.950 . S
C730 H726 0.949 . S
C730 C738 1.574 . S
C730 C746 1.368 . S
H731 C739 0.950 . S
H732 C737 0.950 . S
H733 C738 0.949 . S
H734 C740 0.950 . S
H735 C741 0.950 . S
H736 C742 0.949 . S
C737 H732 0.950 . S
C737 C739 1.327 . S
C737 C743 1.429 . S
C738 C730 1.574 . S
C738 H733 0.949 . S
C738 C744 1.368 . S
C739 C723 1.349 1_455 S
C739 H731 0.950 . S
C739 C737 1.327 . S
C740 C728 1.349 . S
C740 H734 0.950 . S
C740 C741 1.327 . S
C741 H735 0.950 . S
C741 C740 1.327 . S
C741 C745 1.429 . S
C742 C725 1.574 . S
C742 H736 0.949 . S
C742 C746 1.368 . S
C743 C724 1.429 1_455 S
C743 C737 1.429 . S
C743 C744 1.523 . S
C744 C725 1.368 . S
C744 C738 1.368 . S
C744 C743 1.523 . S
C745 C729 1.429 . S
C745 C741 1.429 . S
C745 C746 1.523 . S
C746 C730 1.368 . S
C746 C742 1.368 . S
C746 C745 1.523 . S
H747 C722 0.950 . S
H748 C724 0.950 . S
H749 C725 0.949 . S
H750 C727 0.950 . S
H751 C729 0.950 . S
C752 C753 1.349 . S
C752 C754 1.327 1_545 S
C752 H777 0.950 . S
C753 C752 1.349 . S
C753 C769 1.349 1_545 S
C754 C752 1.327 1_565 S
C754 C773 1.429 . S
C754 H778 0.950 . S
C755 C772 1.574 . S
C755 C774 1.368 . S
C755 H779 0.949 . S
H756 C760 0.949 . S
C757 C758 1.349 . S
C757 C759 1.327 . S
C757 H780 0.950 . S
C758 C757 1.349 . S
C758 C770 1.349 . S
C759 C757 1.327 . S
C759 C775 1.429 . S
C759 H781 0.950 . S
C760 H756 0.949 . S
C760 C768 1.574 . S
C760 C776 1.368 . S
H761 C769 0.950 . S
H762 C767 0.950 . S
H763 C768 0.949 . S
H764 C770 0.950 . S
H765 C771 0.950 . S
H766 C772 0.949 . S
C767 H762 0.950 . S
C767 C769 1.327 . S
C767 C773 1.429 . S
C768 C760 1.574 . S
C768 H763 0.949 . S
C768 C774 1.368 . S
C769 C753 1.349 1_565 S
C769 H761 0.950 . S
C769 C767 1.327 . S
C770 C758 1.349 . S
C770 H764 0.950 . S
C770 C771 1.327 . S
C771 H765 0.950 . S
C771 C770 1.327 . S
C771 C775 1.429 . S
C772 C755 1.574 . S
C772 H766 0.949 . S
C772 C776 1.368 . S
C773 C754 1.429 . S
C773 C767 1.429 . S
C773 C774 1.523 . S
C774 C755 1.368 . S
C774 C768 1.368 . S
C774 C773 1.523 . S
C775 C759 1.429 . S
C775 C771 1.429 . S
C775 C776 1.523 . S
C776 C760 1.368 . S
C776 C772 1.368 . S
C776 C775 1.523 . S
H777 C752 0.950 . S
H778 C754 0.950 . S
H779 C755 0.949 . S
H780 C757 0.950 . S
H781 C759 0.950 . S
C782 C783 1.349 . S
C782 C784 1.327 . S
C782 H807 0.950 . S
C783 C782 1.349 . S
C783 C799 1.349 . S
C784 C782 1.327 . S
C784 C803 1.429 . S
C784 H808 0.950 . S
C785 C802 1.574 . S
C785 C804 1.368 . S
C785 H809 0.949 . S
H786 C790 0.949 . S
C787 C788 1.349 . S
C787 C789 1.327 . S
C787 H810 0.950 . S
C788 C787 1.349 . S
C788 C800 1.349 1_455 S
C789 C787 1.327 . S
C789 C805 1.429 1_455 S
C789 H811 0.950 . S
C790 H786 0.949 . S
C790 C798 1.574 . S
C790 C806 1.368 . S
H791 C799 0.950 . S
H792 C797 0.950 . S
H793 C798 0.949 . S
H794 C800 0.950 . S
H795 C801 0.950 . S
H796 C802 0.949 . S
C797 H792 0.950 . S
C797 C799 1.327 . S
C797 C803 1.429 . S
C798 C790 1.574 . S
C798 H793 0.949 . S
C798 C804 1.368 . S
C799 C783 1.349 . S
C799 H791 0.950 . S
C799 C797 1.327 . S
C800 C788 1.349 1_655 S
C800 H794 0.950 . S
C800 C801 1.327 . S
C801 H795 0.950 . S
C801 C800 1.327 . S
C801 C805 1.429 . S
C802 C785 1.574 . S
C802 H796 0.949 . S
C802 C806 1.368 . S
C803 C784 1.429 . S
C803 C797 1.429 . S
C803 C804 1.523 . S
C804 C785 1.368 . S
C804 C798 1.368 . S
C804 C803 1.523 . S
C805 C789 1.429 1_655 S
C805 C801 1.429 . S
C805 C806 1.523 . S
C806 C790 1.368 . S
C806 C802 1.368 . S
C806 C805 1.523 . S
H807 C782 0.950 . S
H808 C784 0.950 . S
H809 C785 0.949 . S
H810 C787 0.950 . S
H811 C789 0.950 . S
C812 C813 1.349 . S
C812 C814 1.327 . S
C812 H837 0.950 . S
C813 C812 1.349 . S
C813 C829 1.349 . S
C814 C812 1.327 . S
C814 C833 1.429 . S
C814 H838 0.950 . S
C815 C832 1.574 . S
C815 C834 1.368 . S
C815 H839 0.949 . S
H816 C820 0.949 . S
C817 C818 1.349 . S
C817 C819 1.327 . S
C817 H840 0.950 . S
C818 C817 1.349 . S
C818 C830 1.349 . S
C819 C817 1.327 . S
C819 C835 1.429 . S
C819 H841 0.950 . S
C820 H816 0.949 . S
C820 C828 1.574 . S
C820 C836 1.368 . S
H821 C829 0.950 . S
H822 C827 0.950 . S
H823 C828 0.949 . S
H824 C830 0.950 . S
H825 C831 0.950 . S
H826 C832 0.949 . S
C827 H822 0.950 . S
C827 C829 1.327 . S
C827 C833 1.429 . S
C828 C820 1.574 . S
C828 H823 0.949 . S
C828 C834 1.368 . S
C829 C813 1.349 . S
C829 H821 0.950 . S
C829 C827 1.327 . S
C830 C818 1.349 . S
C830 H824 0.950 . S
C830 C831 1.327 . S
C831 H825 0.950 . S
C831 C830 1.327 . S
C831 C835 1.429 . S
C832 C815 1.574 . S
C832 H826 0.949 . S
C832 C836 1.368 . S
C833 C814 1.429 . S
C833 C827 1.429 . S
C833 C834 1.523 . S
C834 C815 1.368 . S
C834 C828 1.368 . S
C834 C833 1.523 . S
C835 C819 1.429 . S
C835 C831 1.429 . S
C835 C836 1.523 . S
C836 C820 1.368 . S
C836 C832 1.368 . S
C836 C835 1.523 . S
H837 C812 0.950 . S
H838 C814 0.950 . S
H839 C815 0.949 . S
H840 C817 0.950 . S
H841 C819 0.950 . S
C842 C843 1.349 1_565 S
C842 C844 1.327 . S
C842 H867 0.950 1_565 S
C843 C842 1.349 1_545 S
C843 C859 1.343 1_545 S
C844 C842 1.327 . S
C844 C863 1.429 . S
C844 H868 0.950 . S
C845 C862 1.574 . S
C845 C864 1.368 . S
C845 H869 0.949 . S
H846 C850 0.949 . S
C847 C848 1.349 . S
C847 C849 1.327 . S
C847 H870 0.950 . S
C848 C847 1.349 . S
C848 C860 1.349 1_455 S
C849 C847 1.327 . S
C849 C865 1.429 1_455 S
C849 H871 0.950 . S
C850 H846 0.949 . S
C850 C858 1.574 . S
C850 C866 1.368 . S
H851 C859 0.933 1_545 S
H852 C857 0.950 . S
H853 C858 0.949 . S
H854 C860 0.950 . S
H855 C861 0.950 . S
H856 C862 0.949 . S
C857 H852 0.950 . S
C857 C859 1.350 . S
C857 C863 1.429 . S
C858 C850 1.574 . S
C858 H853 0.949 . S
C858 C864 1.368 . S
C859 C843 1.343 1_565 S
C859 H851 0.933 1_565 S
C859 C857 1.350 . S
C860 C848 1.349 1_655 S
C860 H854 0.950 . S
C860 C861 1.327 . S
C861 H855 0.950 . S
C861 C860 1.327 . S
C861 C865 1.429 . S
C862 C845 1.574 . S
C862 H856 0.949 . S
C862 C866 1.368 . S
C863 C844 1.429 . S
C863 C857 1.429 . S
C863 C864 1.523 . S
C864 C845 1.368 . S
C864 C858 1.368 . S
C864 C863 1.523 . S
C865 C849 1.429 1_655 S
C865 C861 1.429 . S
C865 C866 1.523 . S
C866 C850 1.368 . S
C866 C862 1.368 . S
C866 C865 1.523 . S
H867 C842 0.950 1_545 S
H868 C844 0.950 . S
H869 C845 0.949 . S
H870 C847 0.950 . S
H871 C849 0.950 . S
C872 C873 1.349 . S
C872 C874 1.327 1_565 S
C872 H897 0.950 . S
C873 C872 1.349 . S
C873 C889 1.349 1_565 S
C874 C872 1.327 1_545 S
C874 C893 1.429 . S
C874 H898 0.950 . S
C875 C892 1.574 . S
C875 C894 1.368 . S
C875 H899 0.949 . S
H876 C880 0.949 . S
C877 C878 1.349 . S
C877 C879 1.327 . S
C877 H900 0.950 . S
C878 C877 1.349 . S
C878 C890 1.349 . S
C879 C877 1.327 . S
C879 C895 1.429 . S
C879 H901 0.950 . S
C880 H876 0.949 . S
C880 C888 1.574 . S
C880 C896 1.368 . S
H881 C889 0.950 1_565 S
H882 C887 0.950 . S
H883 C888 0.949 . S
H884 C890 0.950 . S
H885 C891 0.950 . S
H886 C892 0.949 . S
C887 H882 0.950 . S
C887 C889 1.327 . S
C887 C893 1.429 . S
C888 C880 1.574 . S
C888 H883 0.949 . S
C888 C894 1.368 . S
C889 C873 1.349 1_545 S
C889 H881 0.950 1_545 S
C889 C887 1.327 . S
C890 C878 1.349 . S
C890 H884 0.950 . S
C890 C891 1.327 . S
C891 H885 0.950 . S
C891 C890 1.327 . S
C891 C895 1.429 . S
C892 C875 1.574 . S
C892 H886 0.949 . S
C892 C896 1.368 . S
C893 C874 1.429 . S
C893 C887 1.429 . S
C893 C894 1.523 . S
C894 C875 1.368 . S
C894 C888 1.368 . S
C894 C893 1.523 . S
C895 C879 1.429 . S
C895 C891 1.429 . S
C895 C896 1.523 . S
C896 C880 1.368 . S
C896 C892 1.368 . S
C896 C895 1.523 . S
H897 C872 0.950 . S
H898 C874 0.950 . S
H899 C875 0.949 . S
H900 C877 0.950 . S
H901 C879 0.950 . S
C902 C903 1.349 . S
C902 C904 1.327 . S
C902 H927 0.950 . S
C903 C902 1.349 . S
C903 C919 1.349 1_655 S
C904 C902 1.327 . S
C904 C923 1.429 1_655 S
C904 H928 0.950 . S
C905 C922 1.574 . S
C905 C924 1.368 . S
C905 H929 0.949 . S
H906 C910 0.949 . S
C907 C908 1.349 . S
C907 C909 1.327 . S
C907 H930 0.950 . S
C908 C907 1.349 . S
C908 C920 1.349 . S
C909 C907 1.327 . S
C909 C925 1.429 . S
C909 H931 0.950 . S
C910 H906 0.949 . S
C910 C918 1.574 . S
C910 C926 1.368 . S
H911 C919 0.950 . S
H912 C917 0.950 . S
H913 C918 0.949 . S
H914 C920 0.950 . S
H915 C921 0.950 . S
H916 C922 0.949 . S
C917 H912 0.950 . S
C917 C919 1.327 . S
C917 C923 1.429 . S
C918 C910 1.574 . S
C918 H913 0.949 . S
C918 C924 1.368 . S
C919 C903 1.349 1_455 S
C919 H911 0.950 . S
C919 C917 1.327 . S
C920 C908 1.349 . S
C920 H914 0.950 . S
C920 C921 1.327 . S
C921 H915 0.950 . S
C921 C920 1.327 . S
C921 C925 1.429 . S
C922 C905 1.574 . S
C922 H916 0.949 . S
C922 C926 1.368 . S
C923 C904 1.429 1_455 S
C923 C917 1.429 . S
C923 C924 1.523 . S
C924 C905 1.368 . S
C924 C918 1.368 . S
C924 C923 1.523 . S
C925 C909 1.429 . S
C925 C921 1.429 . S
C925 C926 1.523 . S
C926 C910 1.368 . S
C926 C922 1.368 . S
C926 C925 1.523 . S
H927 C902 0.950 . S
H928 C904 0.950 . S
H929 C905 0.949 . S
H930 C907 0.950 . S
H931 C909 0.950 . S
C932 C933 1.349 . S
C932 C934 1.327 . S
C932 H957 0.950 . S
C933 C932 1.349 . S
C933 C949 1.349 . S
C934 C932 1.327 . S
C934 C953 1.429 . S
C934 H958 0.950 . S
C935 C952 1.574 . S
C935 C954 1.368 . S
C935 H959 0.949 . S
H936 C940 0.949 . S
C937 C938 1.349 . S
C937 C939 1.327 . S
C937 H960 0.950 . S
C938 C937 1.349 . S
C938 C950 1.349 . S
C939 C937 1.327 . S
C939 C955 1.429 . S
C939 H961 0.950 . S
C940 H936 0.949 . S
C940 C948 1.574 . S
C940 C956 1.368 . S
H941 C949 0.950 . S
H942 C947 0.950 . S
H943 C948 0.949 . S
H944 C950 0.950 . S
H945 C951 0.950 . S
H946 C952 0.949 . S
C947 H942 0.950 . S
C947 C949 1.327 . S
C947 C953 1.429 . S
C948 C940 1.574 . S
C948 H943 0.949 . S
C948 C954 1.368 . S
C949 C933 1.349 . S
C949 H941 0.950 . S
C949 C947 1.327 . S
C950 C938 1.349 . S
C950 H944 0.950 . S
C950 C951 1.327 . S
C951 H945 0.950 . S
C951 C950 1.327 . S
C951 C955 1.429 . S
C952 C935 1.574 . S
C952 H946 0.949 . S
C952 C956 1.368 . S
C953 C934 1.429 . S
C953 C947 1.429 . S
C953 C954 1.523 . S
C954 C935 1.368 . S
C954 C948 1.368 . S
C954 C953 1.523 . S
C955 C939 1.429 . S
C955 C951 1.429 . S
C955 C956 1.523 . S
C956 C940 1.368 . S
C956 C952 1.368 . S
C956 C955 1.523 . S
H957 C932 0.950 . S
H958 C934 0.950 . S
H959 C935 0.949 . S
H960 C937 0.950 . S
H961 C939 0.950 . S
C962 C963 1.349 . S
C962 C964 1.327 . S
C962 H987 0.950 . S
C963 C962 1.349 . S
C963 C979 1.349 1_655 S
C964 C962 1.327 . S
C964 C983 1.429 1_655 S
C964 H988 0.950 . S
C965 C982 1.574 . S
C965 C984 1.368 . S
C965 H989 0.949 . S
H966 C970 0.949 . S
C967 C968 1.349 1_545 S
C967 C969 1.327 . S
C967 H990 0.950 1_545 S
C968 C967 1.349 1_565 S
C968 C980 1.346 1_565 S
C969 C967 1.327 . S
C969 C985 1.429 . S
C969 H991 0.950 . S
C970 H966 0.949 . S
C970 C978 1.574 . S
C970 C986 1.368 . S
H971 C979 0.950 . S
H972 C977 0.950 . S
H973 C978 0.949 . S
H974 C980 0.940 1_565 S
H975 C981 0.950 . S
H976 C982 0.949 . S
C977 H972 0.950 . S
C977 C979 1.327 . S
C977 C983 1.429 . S
C978 C970 1.574 . S
C978 H973 0.949 . S
C978 C984 1.368 . S
C979 C963 1.349 1_455 S
C979 H971 0.950 . S
C979 C977 1.327 . S
C980 C968 1.346 1_545 S
C980 H974 0.940 1_545 S
C980 C981 1.340 . S
C981 H975 0.950 . S
C981 C980 1.340 . S
C981 C985 1.429 . S
C982 C965 1.574 . S
C982 H976 0.949 . S
C982 C986 1.368 . S
C983 C964 1.429 1_455 S
C983 C977 1.429 . S
C983 C984 1.523 . S
C984 C965 1.368 . S
C984 C978 1.368 . S
C984 C983 1.523 . S
C985 C969 1.429 . S
C985 C981 1.429 . S
C985 C986 1.523 . S
C986 C970 1.368 . S
C986 C982 1.368 . S
C986 C985 1.523 . S
H987 C962 0.950 . S
H988 C964 0.950 . S
H989 C965 0.949 . S
H990 C967 0.950 1_565 S
H991 C969 0.950 . S
C992 C993 1.349 . S
C992 C994 1.327 1_545 S
C992 H1017 0.950 . S
C993 C992 1.349 . S
C993 C1009 1.349 1_545 S
C994 C992 1.327 1_565 S
C994 C1013 1.429 . S
C994 H1018 0.950 . S
C995 C1012 1.574 . S
C995 C1014 1.368 . S
C995 H1019 0.949 . S
H996 C1000 0.949 . S
C997 C998 1.349 . S
C997 C999 1.327 . S
C997 H1020 0.950 . S
C998 C997 1.349 . S
C998 C1010 1.349 . S
C999 C997 1.327 . S
C999 C1015 1.429 . S
C999 H1021 0.950 . S
C1000 H996 0.949 . S
C1000 C1008 1.574 . S
C1000 C1016 1.368 . S
H1001 C1009 0.950 . S
H1002 C1007 0.950 . S
H1003 C1008 0.949 . S
H1004 C1010 0.950 . S
H1005 C1011 0.950 . S
H1006 C1012 0.949 . S
C1007 H1002 0.950 . S
C1007 C1009 1.327 . S
C1007 C1013 1.429 . S
C1008 C1000 1.574 . S
C1008 H1003 0.949 . S
C1008 C1014 1.368 . S
C1009 C993 1.349 1_565 S
C1009 H1001 0.950 . S
C1009 C1007 1.327 . S
C1010 C998 1.349 . S
C1010 H1004 0.950 . S
C1010 C1011 1.327 . S
C1011 H1005 0.950 . S
C1011 C1010 1.327 . S
C1011 C1015 1.429 . S
C1012 C995 1.574 . S
C1012 H1006 0.949 . S
C1012 C1016 1.368 . S
C1013 C994 1.429 . S
C1013 C1007 1.429 . S
C1013 C1014 1.523 . S
C1014 C995 1.368 . S
C1014 C1008 1.368 . S
C1014 C1013 1.523 . S
C1015 C999 1.429 . S
C1015 C1011 1.429 . S
C1015 C1016 1.523 . S
C1016 C1000 1.368 . S
C1016 C1012 1.368 . S
C1016 C1015 1.523 . S
H1017 C992 0.950 . S
H1018 C994 0.950 . S
H1019 C995 0.949 . S
H1020 C997 0.950 . S
H1021 C999 0.950 . S
C1022 C1023 1.349 . S
C1022 C1024 1.327 . S
C1022 H1047 0.950 . S
C1023 C1022 1.349 . S
C1023 C1039 1.347 1_455 S
C1024 C1022 1.327 . S
C1024 C1043 1.429 1_455 S
C1024 H1048 0.950 . S
C1025 C1042 1.574 . S
C1025 C1044 1.368 . S
C1025 H1049 0.949 . S
H1026 C1030 0.949 . S
C1027 C1028 1.349 . S
C1027 C1029 1.327 . S
C1027 H1050 0.950 . S
C1028 C1027 1.349 . S
C1028 C1040 1.349 . S
C1029 C1027 1.327 . S
C1029 C1045 1.429 . S
C1029 H1051 0.950 . S
C1030 H1026 0.949 . S
C1030 C1038 1.574 . S
C1030 C1046 1.368 . S
H1031 C1039 0.950 . S
H1032 C1037 0.950 . S
H1033 C1038 0.949 . S
H1034 C1040 0.950 . S
H1035 C1041 0.950 . S
H1036 C1042 0.949 . S
C1037 H1032 0.950 . S
C1037 C1039 1.329 . S
C1037 C1043 1.429 . S
C1038 C1030 1.574 . S
C1038 H1033 0.949 . S
C1038 C1044 1.368 . S
C1039 C1023 1.347 1_655 S
C1039 H1031 0.950 . S
C1039 C1037 1.329 . S
C1040 C1028 1.349 . S
C1040 H1034 0.950 . S
C1040 C1041 1.327 . S
C1041 H1035 0.950 . S
C1041 C1040 1.327 . S
C1041 C1045 1.429 . S
C1042 C1025 1.574 . S
C1042 H1036 0.949 . S
C1042 C1046 1.368 . S
C1043 C1024 1.429 1_655 S
C1043 C1037 1.429 . S
C1043 C1044 1.523 . S
C1044 C1025 1.368 . S
C1044 C1038 1.368 . S
C1044 C1043 1.523 . S
C1045 C1029 1.429 . S
C1045 C1041 1.429 . S
C1045 C1046 1.523 . S
C1046 C1030 1.368 . S
C1046 C1042 1.368 . S
C1046 C1045 1.523 . S
H1047 C1022 0.950 . S
H1048 C1024 0.950 . S
H1049 C1025 0.949 . S
H1050 C1027 0.950 . S
H1051 C1029 0.950 . S
C1052 C1053 1.349 . S
C1052 C1054 1.327 . S
C1052 H1077 0.950 . S
C1053 C1052 1.349 . S
C1053 C1069 1.349 . S
C1054 C1052 1.327 . S
C1054 C1073 1.429 . S
C1054 H1078 0.950 . S
C1055 C1072 1.574 . S
C1055 C1074 1.368 . S
C1055 H1079 0.949 . S
H1056 C1060 0.949 . S
C1057 C1058 1.349 . S
C1057 C1059 1.327 . S
C1057 H1080 0.950 . S
C1058 C1057 1.349 . S
C1058 C1070 1.349 . S
C1059 C1057 1.327 . S
C1059 C1075 1.429 . S
C1059 H1081 0.950 . S
C1060 H1056 0.949 . S
C1060 C1068 1.574 . S
C1060 C1076 1.368 . S
H1061 C1069 0.950 . S
H1062 C1067 0.950 . S
H1063 C1068 0.949 . S
H1064 C1070 0.950 . S
H1065 C1071 0.950 . S
H1066 C1072 0.949 . S
C1067 H1062 0.950 . S
C1067 C1069 1.327 . S
C1067 C1073 1.429 . S
C1068 C1060 1.574 . S
C1068 H1063 0.949 . S
C1068 C1074 1.368 . S
C1069 C1053 1.349 . S
C1069 H1061 0.950 . S
C1069 C1067 1.327 . S
C1070 C1058 1.349 . S
C1070 H1064 0.950 . S
C1070 C1071 1.327 . S
C1071 H1065 0.950 . S
C1071 C1070 1.327 . S
C1071 C1075 1.429 . S
C1072 C1055 1.574 . S
C1072 H1066 0.949 . S
C1072 C1076 1.368 . S
C1073 C1054 1.429 . S
C1073 C1067 1.429 . S
C1073 C1074 1.523 . S
C1074 C1055 1.368 . S
C1074 C1068 1.368 . S
C1074 C1073 1.523 . S
C1075 C1059 1.429 . S
C1075 C1071 1.429 . S
C1075 C1076 1.523 . S
C1076 C1060 1.368 . S
C1076 C1072 1.368 . S
C1076 C1075 1.523 . S
H1077 C1052 0.950 . S
H1078 C1054 0.950 . S
H1079 C1055 0.949 . S
H1080 C1057 0.950 . S
H1081 C1059 0.950 . S
C1082 C1083 1.349 . S
C1082 C1084 1.327 . S
C1082 H1107 0.950 . S
C1083 C1082 1.349 . S
C1083 C1099 1.349 . S
C1084 C1082 1.327 . S
C1084 C1103 1.429 . S
C1084 H1108 0.950 . S
C1085 C1102 1.574 . S
C1085 C1104 1.368 . S
C1085 H1109 0.949 . S
H1086 C1090 0.949 . S
C1087 C1088 1.349 1_565 S
C1087 C1089 1.327 . S
C1087 H1110 0.953 . S
C1088 C1087 1.349 1_545 S
C1088 C1100 1.349 1_445 S
C1089 C1087 1.327 . S
C1089 C1105 1.429 1_455 S
C1089 H1111 0.950 . S
C1090 H1086 0.949 . S
C1090 C1098 1.574 . S
C1090 C1106 1.368 . S
H1091 C1099 0.950 . S
H1092 C1097 0.950 . S
H1093 C1098 0.949 . S
H1094 C1100 0.950 1_545 S
H1095 C1101 0.950 . S
H1096 C1102 0.949 . S
C1097 H1092 0.950 . S
C1097 C1099 1.327 . S
C1097 C1103 1.429 . S
C1098 C1090 1.574 . S
C1098 H1093 0.949 . S
C1098 C1104 1.368 . S
C1099 C1083 1.349 . S
C1099 H1091 0.950 . S
C1099 C1097 1.327 . S
C1100 C1088 1.349 1_665 S
C1100 H1094 0.950 1_565 S
C1100 C1101 1.327 . S
C1101 H1095 0.950 . S
C1101 C1100 1.327 . S
C1101 C1105 1.429 . S
C1102 C1085 1.574 . S
C1102 H1096 0.949 . S
C1102 C1106 1.368 . S
C1103 C1084 1.429 . S
C1103 C1097 1.429 . S
C1103 C1104 1.523 . S
C1104 C1085 1.368 . S
C1104 C1098 1.368 . S
C1104 C1103 1.523 . S
C1105 C1089 1.429 1_655 S
C1105 C1101 1.429 . S
C1105 C1106 1.523 . S
C1106 C1090 1.368 . S
C1106 C1102 1.368 . S
C1106 C1105 1.523 . S
H1107 C1082 0.950 . S
H1108 C1084 0.950 . S
H1109 C1085 0.949 . S
H1110 C1087 0.953 . S
H1111 C1089 0.950 . S
C1112 C1113 1.349 . S
C1112 C1114 1.327 . S
C1112 H1137 0.950 . S
C1113 C1112 1.349 . S
C1113 C1129 1.349 . S
C1114 C1112 1.327 . S
C1114 C1133 1.429 . S
C1114 H1138 0.950 . S
C1115 C1132 1.574 . S
C1115 C1134 1.368 . S
C1115 H1139 0.949 . S
H1116 C1120 0.949 . S
C1117 C1118 1.344 1_545 S
C1117 C1119 1.348 . S
C1117 H1140 0.934 1_545 S
C1118 C1117 1.344 1_565 S
C1118 C1130 1.349 1_565 S
C1119 C1117 1.348 . S
C1119 C1135 1.429 . S
C1119 H1141 0.950 . S
C1120 H1116 0.949 . S
C1120 C1128 1.574 . S
C1120 C1136 1.368 . S
H1121 C1129 0.950 . S
H1122 C1127 0.950 . S
H1123 C1128 0.949 . S
H1124 C1130 0.944 1_565 S
H1125 C1131 0.950 . S
H1126 C1132 0.949 . S
C1127 H1122 0.950 . S
C1127 C1129 1.327 . S
C1127 C1133 1.429 . S
C1128 C1120 1.574 . S
C1128 H1123 0.949 . S
C1128 C1134 1.368 . S
C1129 C1113 1.349 . S
C1129 H1121 0.950 . S
C1129 C1127 1.327 . S
C1130 C1118 1.349 1_545 S
C1130 H1124 0.944 1_545 S
C1130 C1131 1.327 . S
C1131 H1125 0.950 . S
C1131 C1130 1.327 . S
C1131 C1135 1.429 . S
C1132 C1115 1.574 . S
C1132 H1126 0.949 . S
C1132 C1136 1.368 . S
C1133 C1114 1.429 . S
C1133 C1127 1.429 . S
C1133 C1134 1.523 . S
C1134 C1115 1.368 . S
C1134 C1128 1.368 . S
C1134 C1133 1.523 . S
C1135 C1119 1.429 . S
C1135 C1131 1.429 . S
C1135 C1136 1.523 . S
C1136 C1120 1.368 . S
C1136 C1132 1.368 . S
C1136 C1135 1.523 . S
H1137 C1112 0.950 . S
H1138 C1114 0.950 . S
H1139 C1115 0.949 . S
H1140 C1117 0.934 1_565 S
H1141 C1119 0.950 . S
C1142 C1143 1.349 . S
C1142 C1144 1.327 . S
C1142 H1167 0.950 . S
C1143 C1142 1.349 . S
C1143 C1159 1.349 . S
C1144 C1142 1.327 . S
C1144 C1163 1.429 . S
C1144 H1168 0.950 . S
C1145 C1162 1.574 . S
C1145 C1164 1.368 . S
C1145 H1169 0.949 . S
H1146 C1150 0.949 . S
C1147 C1148 1.349 . S
C1147 C1149 1.327 . S
C1147 H1170 0.950 . S
C1148 C1147 1.349 . S
C1148 C1160 1.349 1_655 S
C1149 C1147 1.327 . S
C1149 C1165 1.429 1_655 S
C1149 H1171 0.950 . S
C1150 H1146 0.949 . S
C1150 C1158 1.574 . S
C1150 C1166 1.368 . S
H1151 C1159 0.950 . S
H1152 C1157 0.950 . S
H1153 C1158 0.949 . S
H1154 C1160 0.950 . S
H1155 C1161 0.950 . S
H1156 C1162 0.949 . S
C1157 H1152 0.950 . S
C1157 C1159 1.327 . S
C1157 C1163 1.429 . S
C1158 C1150 1.574 . S
C1158 H1153 0.949 . S
C1158 C1164 1.368 . S
C1159 C1143 1.349 . S
C1159 H1151 0.950 . S
C1159 C1157 1.327 . S
C1160 C1148 1.349 1_455 S
C1160 H1154 0.950 . S
C1160 C1161 1.327 . S
C1161 H1155 0.950 . S
C1161 C1160 1.327 . S
C1161 C1165 1.429 . S
C1162 C1145 1.574 . S
C1162 H1156 0.949 . S
C1162 C1166 1.368 . S
C1163 C1144 1.429 . S
C1163 C1157 1.429 . S
C1163 C1164 1.523 . S
C1164 C1145 1.368 . S
C1164 C1158 1.368 . S
C1164 C1163 1.523 . S
C1165 C1149 1.429 1_455 S
C1165 C1161 1.429 . S
C1165 C1166 1.523 . S
C1166 C1150 1.368 . S
C1166 C1162 1.368 . S
C1166 C1165 1.523 . S
H1167 C1142 0.950 . S
H1168 C1144 0.950 . S
H1169 C1145 0.949 . S
H1170 C1147 0.950 . S
H1171 C1149 0.950 . S
C1172 C1173 1.349 . S
C1172 C1174 1.327 . S
C1172 H1197 0.950 . S
C1173 C1172 1.349 . S
C1173 C1189 1.349 . S
C1174 C1172 1.327 . S
C1174 C1193 1.429 . S
C1174 H1198 0.950 . S
C1175 C1192 1.574 . S
C1175 C1194 1.368 . S
C1175 H1199 0.949 . S
H1176 C1180 0.949 . S
C1177 C1178 1.349 . S
C1177 C1179 1.327 . S
C1177 H1200 0.950 . S
C1178 C1177 1.349 . S
C1178 C1190 1.349 . S
C1179 C1177 1.327 . S
C1179 C1195 1.429 . S
C1179 H1201 0.950 . S
C1180 H1176 0.949 . S
C1180 C1188 1.574 . S
C1180 C1196 1.368 . S
H1181 C1189 0.950 . S
H1182 C1187 0.950 . S
H1183 C1188 0.949 . S
H1184 C1190 0.950 . S
H1185 C1191 0.950 . S
H1186 C1192 0.949 . S
C1187 H1182 0.950 . S
C1187 C1189 1.327 . S
C1187 C1193 1.429 . S
C1188 C1180 1.574 . S
C1188 H1183 0.949 . S
C1188 C1194 1.368 . S
C1189 C1173 1.349 . S
C1189 H1181 0.950 . S
C1189 C1187 1.327 . S
C1190 C1178 1.349 . S
C1190 H1184 0.950 . S
C1190 C1191 1.327 . S
C1191 H1185 0.950 . S
C1191 C1190 1.327 . S
C1191 C1195 1.429 . S
C1192 C1175 1.574 . S
C1192 H1186 0.949 . S
C1192 C1196 1.368 . S
C1193 C1174 1.429 . S
C1193 C1187 1.429 . S
C1193 C1194 1.523 . S
C1194 C1175 1.368 . S
C1194 C1188 1.368 . S
C1194 C1193 1.523 . S
C1195 C1179 1.429 . S
C1195 C1191 1.429 . S
C1195 C1196 1.523 . S
C1196 C1180 1.368 . S
C1196 C1192 1.368 . S
C1196 C1195 1.523 . S
H1197 C1172 0.950 . S
H1198 C1174 0.950 . S
H1199 C1175 0.949 . S
H1200 C1177 0.950 . S
H1201 C1179 0.950 . S
C1202 C1203 1.349 . S
C1202 C1204 1.327 . S
C1202 H1227 0.950 . S
C1203 C1202 1.349 . S
C1203 C1219 1.349 . S
C1204 C1202 1.327 . S
C1204 C1223 1.429 . S
C1204 H1228 0.950 . S
C1205 C1222 1.574 . S
C1205 C1224 1.368 . S
C1205 H1229 0.949 . S
H1206 C1210 0.949 . S
C1207 C1208 1.349 1_455 S
C1207 C1209 1.327 1_565 S
C1207 H1230 0.950 . S
C1208 C1207 1.349 1_655 S
C1208 C1220 1.349 1_565 S
C1209 C1207 1.327 1_545 S
C1209 C1225 1.429 . S
C1209 H1231 0.950 . S
C1210 H1206 0.949 . S
C1210 C1218 1.574 . S
C1210 C1226 1.368 . S
H1211 C1219 0.950 . S
H1212 C1217 0.950 . S
H1213 C1218 0.949 . S
H1214 C1220 0.950 . S
H1215 C1221 0.950 . S
H1216 C1222 0.949 . S
C1217 H1212 0.950 . S
C1217 C1219 1.327 . S
C1217 C1223 1.429 . S
C1218 C1210 1.574 . S
C1218 H1213 0.949 . S
C1218 C1224 1.368 . S
C1219 C1203 1.349 . S
C1219 H1211 0.950 . S
C1219 C1217 1.327 . S
C1220 C1208 1.349 1_545 S
C1220 H1214 0.950 . S
C1220 C1221 1.327 . S
C1221 H1215 0.950 . S
C1221 C1220 1.327 . S
C1221 C1225 1.429 1_655 S
C1222 C1205 1.574 . S
C1222 H1216 0.949 . S
C1222 C1226 1.368 . S
C1223 C1204 1.429 . S
C1223 C1217 1.429 . S
C1223 C1224 1.523 . S
C1224 C1205 1.368 . S
C1224 C1218 1.368 . S
C1224 C1223 1.523 . S
C1225 C1209 1.429 . S
C1225 C1221 1.429 1_455 S
C1225 C1226 1.523 . S
C1226 C1210 1.368 . S
C1226 C1222 1.368 . S
C1226 C1225 1.523 . S
H1227 C1202 0.950 . S
H1228 C1204 0.950 . S
H1229 C1205 0.949 . S
H1230 C1207 0.950 . S
H1231 C1209 0.950 . S
C1232 C1233 1.349 . S
C1232 C1234 1.327 . S
C1232 H1257 0.950 . S
C1233 C1232 1.349 . S
C1233 C1249 1.349 . S
C1234 C1232 1.327 . S
C1234 C1253 1.429 . S
C1234 H1258 0.950 . S
C1235 C1252 1.574 . S
C1235 C1254 1.368 . S
C1235 H1259 0.949 . S
H1236 C1240 0.949 . S
C1237 C1238 1.349 . S
C1237 C1239 1.327 . S
C1237 H1260 0.950 . S
C1238 C1237 1.349 . S
C1238 C1250 1.349 . S
C1239 C1237 1.327 . S
C1239 C1255 1.429 . S
C1239 H1261 0.950 . S
C1240 H1236 0.949 . S
C1240 C1248 1.574 . S
C1240 C1256 1.368 . S
H1241 C1249 0.950 . S
H1242 C1247 0.950 . S
H1243 C1248 0.949 . S
H1244 C1250 0.950 . S
H1245 C1251 0.950 . S
H1246 C1252 0.949 . S
C1247 H1242 0.950 . S
C1247 C1249 1.327 . S
C1247 C1253 1.429 . S
C1248 C1240 1.574 . S
C1248 H1243 0.949 . S
C1248 C1254 1.368 . S
C1249 C1233 1.349 . S
C1249 H1241 0.950 . S
C1249 C1247 1.327 . S
C1250 C1238 1.349 . S
C1250 H1244 0.950 . S
C1250 C1251 1.327 . S
C1251 H1245 0.950 . S
C1251 C1250 1.327 . S
C1251 C1255 1.429 . S
C1252 C1235 1.574 . S
C1252 H1246 0.949 . S
C1252 C1256 1.368 . S
C1253 C1234 1.429 . S
C1253 C1247 1.429 . S
C1253 C1254 1.523 . S
C1254 C1235 1.368 . S
C1254 C1248 1.368 . S
C1254 C1253 1.523 . S
C1255 C1239 1.429 . S
C1255 C1251 1.429 . S
C1255 C1256 1.523 . S
C1256 C1240 1.368 . S
C1256 C1252 1.368 . S
C1256 C1255 1.523 . S
H1257 C1232 0.950 . S
H1258 C1234 0.950 . S
H1259 C1235 0.949 . S
H1260 C1237 0.950 . S
H1261 C1239 0.950 . S
C1262 C1263 1.349 . S
C1262 C1264 1.327 . S
C1262 H1287 0.950 . S
C1263 C1262 1.349 . S
C1263 C1279 1.349 1_455 S
C1264 C1262 1.327 . S
C1264 C1283 1.429 1_455 S
C1264 H1288 0.950 . S
C1265 C1282 1.574 . S
C1265 C1284 1.368 . S
C1265 H1289 0.949 . S
H1266 C1270 0.949 . S
C1267 C1268 1.349 1_565 S
C1267 C1269 1.327 . S
C1267 H1290 0.950 . S
C1268 C1267 1.349 1_545 S
C1268 C1280 1.349 . S
C1269 C1267 1.327 . S
C1269 C1285 1.429 . S
C1269 H1291 0.950 . S
C1270 H1266 0.949 . S
C1270 C1278 1.574 . S
C1270 C1286 1.368 . S
H1271 C1279 0.950 . S
H1272 C1277 0.950 . S
H1273 C1278 0.949 1_455 S
H1274 C1280 0.950 . S
H1275 C1281 0.950 . S
H1276 C1282 0.949 . S
C1277 H1272 0.950 . S
C1277 C1279 1.327 . S
C1277 C1283 1.429 . S
C1278 C1270 1.574 . S
C1278 H1273 0.949 1_655 S
C1278 C1284 1.368 . S
C1279 C1263 1.349 1_655 S
C1279 H1271 0.950 . S
C1279 C1277 1.327 . S
C1280 C1268 1.349 . S
C1280 H1274 0.950 . S
C1280 C1281 1.327 1_545 S
C1281 H1275 0.950 . S
C1281 C1280 1.327 1_565 S
C1281 C1285 1.429 . S
C1282 C1265 1.574 . S
C1282 H1276 0.949 . S
C1282 C1286 1.368 . S
C1283 C1264 1.429 1_655 S
C1283 C1277 1.429 . S
C1283 C1284 1.523 . S
C1284 C1265 1.368 . S
C1284 C1278 1.368 . S
C1284 C1283 1.523 . S
C1285 C1269 1.429 . S
C1285 C1281 1.429 . S
C1285 C1286 1.523 . S
C1286 C1270 1.368 . S
C1286 C1282 1.368 . S
C1286 C1285 1.523 . S
H1287 C1262 0.950 . S
H1288 C1264 0.950 . S
H1289 C1265 0.949 . S
H1290 C1267 0.950 . S
H1291 C1269 0.950 . S
C1292 C1293 1.349 . S
C1292 C1294 1.327 . S
C1292 H1317 0.950 . S
C1293 C1292 1.349 . S
C1293 C1309 1.349 . S
C1294 C1292 1.327 . S
C1294 C1313 1.429 . S
C1294 H1318 0.950 . S
C1295 C1312 1.574 . S
C1295 C1314 1.368 . S
C1295 H1319 0.949 . S
H1296 C1300 0.949 . S
C1297 C1298 1.349 1_565 S
C1297 C1299 1.327 . S
C1297 H1320 0.950 1_565 S
C1298 C1297 1.349 1_545 S
C1298 C1310 1.349 1_545 S
C1299 C1297 1.327 . S
C1299 C1315 1.429 . S
C1299 H1321 0.950 . S
C1300 H1296 0.949 . S
C1300 C1308 1.574 . S
C1300 C1316 1.368 . S
H1301 C1309 0.950 . S
H1302 C1307 0.950 . S
H1303 C1308 0.949 . S
H1304 C1310 0.950 1_545 S
H1305 C1311 0.950 . S
H1306 C1312 0.949 . S
C1307 H1302 0.950 . S
C1307 C1309 1.327 . S
C1307 C1313 1.429 . S
C1308 C1300 1.574 . S
C1308 H1303 0.949 . S
C1308 C1314 1.368 . S
C1309 C1293 1.349 . S
C1309 H1301 0.950 . S
C1309 C1307 1.327 . S
C1310 C1298 1.349 1_565 S
C1310 H1304 0.950 1_565 S
C1310 C1311 1.327 . S
C1311 H1305 0.950 . S
C1311 C1310 1.327 . S
C1311 C1315 1.429 . S
C1312 C1295 1.574 . S
C1312 H1306 0.949 . S
C1312 C1316 1.368 . S
C1313 C1294 1.429 . S
C1313 C1307 1.429 . S
C1313 C1314 1.523 . S
C1314 C1295 1.368 . S
C1314 C1308 1.368 . S
C1314 C1313 1.523 . S
C1315 C1299 1.429 . S
C1315 C1311 1.429 . S
C1315 C1316 1.523 . S
C1316 C1300 1.368 . S
C1316 C1312 1.368 . S
C1316 C1315 1.523 . S
H1317 C1292 0.950 . S
H1318 C1294 0.950 . S
H1319 C1295 0.949 . S
H1320 C1297 0.950 1_545 S
H1321 C1299 0.950 . S
C1322 C1323 1.349 1_655 S
C1322 C1324 1.327 . S
C1322 H1347 0.950 . S
C1323 C1322 1.349 1_455 S
C1323 C1339 1.349 . S
C1324 C1322 1.327 . S
C1324 C1343 1.429 . S
C1324 H1348 0.950 . S
C1325 C1342 1.574 . S
C1325 C1344 1.368 . S
C1325 H1349 0.949 . S
H1326 C1330 0.949 . S
C1327 C1328 1.349 . S
C1327 C1329 1.327 . S
C1327 H1350 0.950 . S
C1328 C1327 1.349 . S
C1328 C1340 1.349 . S
C1329 C1327 1.327 . S
C1329 C1345 1.429 . S
C1329 H1351 0.950 . S
C1330 H1326 0.949 . S
C1330 C1338 1.574 . S
C1330 C1346 1.368 . S
H1331 C1339 0.950 . S
H1332 C1337 0.950 . S
H1333 C1338 0.949 . S
H1334 C1340 0.950 . S
H1335 C1341 0.950 . S
H1336 C1342 0.949 . S
C1337 H1332 0.950 . S
C1337 C1339 1.327 . S
C1337 C1343 1.429 1_455 S
C1338 C1330 1.574 . S
C1338 H1333 0.949 . S
C1338 C1344 1.368 . S
C1339 C1323 1.349 . S
C1339 H1331 0.950 . S
C1339 C1337 1.327 . S
C1340 C1328 1.349 . S
C1340 H1334 0.950 . S
C1340 C1341 1.327 . S
C1341 H1335 0.950 . S
C1341 C1340 1.327 . S
C1341 C1345 1.429 . S
C1342 C1325 1.574 . S
C1342 H1336 0.949 . S
C1342 C1346 1.368 . S
C1343 C1324 1.429 . S
C1343 C1337 1.429 1_655 S
C1343 C1344 1.523 . S
C1344 C1325 1.368 . S
C1344 C1338 1.368 . S
C1344 C1343 1.523 . S
C1345 C1329 1.429 . S
C1345 C1341 1.429 . S
C1345 C1346 1.523 . S
C1346 C1330 1.368 . S
C1346 C1342 1.368 . S
C1346 C1345 1.523 . S
H1347 C1322 0.950 . S
H1348 C1324 0.950 . S
H1349 C1325 0.949 . S
H1350 C1327 0.950 . S
H1351 C1329 0.950 . S
C1352 C1353 1.349 . S
C1352 C1354 1.327 . S
C1352 H1377 0.950 . S
C1353 C1352 1.349 . S
C1353 C1369 1.349 . S
C1354 C1352 1.327 . S
C1354 C1373 1.429 . S
C1354 H1378 0.950 . S
C1355 C1372 1.574 . S
C1355 C1374 1.368 . S
C1355 H1379 0.949 . S
H1356 C1360 0.949 . S
C1357 C1358 1.349 . S
C1357 C1359 1.327 . S
C1357 H1380 0.950 . S
C1358 C1357 1.349 . S
C1358 C1370 1.349 . S
C1359 C1357 1.327 . S
C1359 C1375 1.429 . S
C1359 H1381 0.950 . S
C1360 H1356 0.949 . S
C1360 C1368 1.574 . S
C1360 C1376 1.368 . S
H1361 C1369 0.950 . S
H1362 C1367 0.950 . S
H1363 C1368 0.949 . S
H1364 C1370 0.950 . S
H1365 C1371 0.950 . S
H1366 C1372 0.949 . S
C1367 H1362 0.950 . S
C1367 C1369 1.327 . S
C1367 C1373 1.429 . S
C1368 C1360 1.574 . S
C1368 H1363 0.949 . S
C1368 C1374 1.368 . S
C1369 C1353 1.349 . S
C1369 H1361 0.950 . S
C1369 C1367 1.327 . S
C1370 C1358 1.349 . S
C1370 H1364 0.950 . S
C1370 C1371 1.327 . S
C1371 H1365 0.950 . S
C1371 C1370 1.327 . S
C1371 C1375 1.429 . S
C1372 C1355 1.574 . S
C1372 H1366 0.949 . S
C1372 C1376 1.368 . S
C1373 C1354 1.429 . S
C1373 C1367 1.429 . S
C1373 C1374 1.523 . S
C1374 C1355 1.368 . S
C1374 C1368 1.368 . S
C1374 C1373 1.523 . S
C1375 C1359 1.429 . S
C1375 C1371 1.429 . S
C1375 C1376 1.523 . S
C1376 C1360 1.368 . S
C1376 C1372 1.368 . S
C1376 C1375 1.523 . S
H1377 C1352 0.950 . S
H1378 C1354 0.950 . S
H1379 C1355 0.949 . S
H1380 C1357 0.950 . S
H1381 C1359 0.950 . S
C1382 C1383 1.349 1_545 S
C1382 C1384 1.327 . S
C1382 H1407 0.950 . S
C1383 C1382 1.349 1_565 S
C1383 C1399 1.349 . S
C1384 C1382 1.327 . S
C1384 C1403 1.429 . S
C1384 H1408 0.950 . S
C1385 C1402 1.574 . S
C1385 C1404 1.368 . S
C1385 H1409 0.949 . S
H1386 C1390 0.949 . S
C1387 C1388 1.349 . S
C1387 C1389 1.330 . S
C1387 H1410 0.950 . S
C1388 C1387 1.349 . S
C1388 C1400 1.349 . S
C1389 C1387 1.330 . S
C1389 C1405 1.426 1_655 S
C1389 H1411 0.949 1_655 S
C1390 H1386 0.949 . S
C1390 C1398 1.574 . S
C1390 C1406 1.368 . S
H1391 C1399 0.950 . S
H1392 C1397 0.950 . S
H1393 C1398 0.949 . S
H1394 C1400 0.950 . S
H1395 C1401 0.950 . S
H1396 C1402 0.949 . S
C1397 H1392 0.950 . S
C1397 C1399 1.327 1_545 S
C1397 C1403 1.429 . S
C1398 C1390 1.574 . S
C1398 H1393 0.949 . S
C1398 C1404 1.368 . S
C1399 C1383 1.349 . S
C1399 H1391 0.950 . S
C1399 C1397 1.327 1_565 S
C1400 C1388 1.349 . S
C1400 H1394 0.950 . S
C1400 C1401 1.327 1_655 S
C1401 H1395 0.950 . S
C1401 C1400 1.327 1_455 S
C1401 C1405 1.429 . S
C1402 C1385 1.574 . S
C1402 H1396 0.949 . S
C1402 C1406 1.368 . S
C1403 C1384 1.429 . S
C1403 C1397 1.429 . S
C1403 C1404 1.523 . S
C1404 C1385 1.368 . S
C1404 C1398 1.368 . S
C1404 C1403 1.523 . S
C1405 C1389 1.426 1_455 S
C1405 C1401 1.429 . S
C1405 C1406 1.523 . S
C1406 C1390 1.368 . S
C1406 C1402 1.368 . S
C1406 C1405 1.523 . S
H1407 C1382 0.950 . S
H1408 C1384 0.950 . S
H1409 C1385 0.949 . S
H1410 C1387 0.950 . S
H1411 C1389 0.949 1_455 S
C1412 C1413 1.349 1_545 S
C1412 C1414 1.327 . S
C1412 H1437 0.950 . S
C1413 C1412 1.349 1_565 S
C1413 C1429 1.349 1_565 S
C1414 C1412 1.327 . S
C1414 C1433 1.429 . S
C1414 H1438 0.950 . S
C1415 C1432 1.574 . S
C1415 C1434 1.368 . S
C1415 H1439 0.949 . S
H1416 C1420 0.949 . S
C1417 C1418 1.349 . S
C1417 C1419 1.327 . S
C1417 H1440 0.950 . S
C1418 C1417 1.349 . S
C1418 C1430 1.349 . S
C1419 C1417 1.327 . S
C1419 C1435 1.429 . S
C1419 H1441 0.950 . S
C1420 H1416 0.949 . S
C1420 C1428 1.574 . S
C1420 C1436 1.368 . S
H1421 C1429 0.950 1_565 S
H1422 C1427 0.950 . S
H1423 C1428 0.949 . S
H1424 C1430 0.950 . S
H1425 C1431 0.950 . S
H1426 C1432 0.949 . S
C1427 H1422 0.950 . S
C1427 C1429 1.327 . S
C1427 C1433 1.429 . S
C1428 C1420 1.574 . S
C1428 H1423 0.949 . S
C1428 C1434 1.368 . S
C1429 C1413 1.349 1_545 S
C1429 H1421 0.950 1_545 S
C1429 C1427 1.327 . S
C1430 C1418 1.349 . S
C1430 H1424 0.950 . S
C1430 C1431 1.327 . S
C1431 H1425 0.950 . S
C1431 C1430 1.327 . S
C1431 C1435 1.429 . S
C1432 C1415 1.574 . S
C1432 H1426 0.949 . S
C1432 C1436 1.368 . S
C1433 C1414 1.429 . S
C1433 C1427 1.429 . S
C1433 C1434 1.523 . S
C1434 C1415 1.368 . S
C1434 C1428 1.368 . S
C1434 C1433 1.523 . S
C1435 C1419 1.429 . S
C1435 C1431 1.429 . S
C1435 C1436 1.523 . S
C1436 C1420 1.368 . S
C1436 C1432 1.368 . S
C1436 C1435 1.523 . S
H1437 C1412 0.950 . S
H1438 C1414 0.950 . S
H1439 C1415 0.949 . S
H1440 C1417 0.950 . S
H1441 C1419 0.950 . S
C1442 C1443 1.349 . S
C1442 C1444 1.327 . S
C1442 H1467 0.950 . S
C1443 C1442 1.349 . S
C1443 C1459 1.349 . S
C1444 C1442 1.327 . S
C1444 C1463 1.429 1_655 S
C1444 H1468 0.950 . S
C1445 C1462 1.574 . S
C1445 C1464 1.368 . S
C1445 H1469 0.949 . S
H1446 C1450 0.949 . S
C1447 C1448 1.349 . S
C1447 C1449 1.327 . S
C1447 H1470 0.950 . S
C1448 C1447 1.349 . S
C1448 C1460 1.349 . S
C1449 C1447 1.327 . S
C1449 C1465 1.429 . S
C1449 H1471 0.950 . S
C1450 H1446 0.949 . S
C1450 C1458 1.574 . S
C1450 C1466 1.368 . S
H1451 C1459 0.950 . S
H1452 C1457 0.950 . S
H1453 C1458 0.949 . S
H1454 C1460 0.950 . S
H1455 C1461 0.950 . S
H1456 C1462 0.949 . S
C1457 H1452 0.950 . S
C1457 C1459 1.327 1_455 S
C1457 C1463 1.429 . S
C1458 C1450 1.574 . S
C1458 H1453 0.949 . S
C1458 C1464 1.368 . S
C1459 C1443 1.349 . S
C1459 H1451 0.950 . S
C1459 C1457 1.327 1_655 S
C1460 C1448 1.349 . S
C1460 H1454 0.950 . S
C1460 C1461 1.327 . S
C1461 H1455 0.950 . S
C1461 C1460 1.327 . S
C1461 C1465 1.429 . S
C1462 C1445 1.574 . S
C1462 H1456 0.949 . S
C1462 C1466 1.368 . S
C1463 C1444 1.429 1_455 S
C1463 C1457 1.429 . S
C1463 C1464 1.523 . S
C1464 C1445 1.368 . S
C1464 C1458 1.368 . S
C1464 C1463 1.523 . S
C1465 C1449 1.429 . S
C1465 C1461 1.429 . S
C1465 C1466 1.523 . S
C1466 C1450 1.368 . S
C1466 C1462 1.368 . S
C1466 C1465 1.523 . S
H1467 C1442 0.950 . S
H1468 C1444 0.950 . S
H1469 C1445 0.949 . S
H1470 C1447 0.950 . S
H1471 C1449 0.950 . S
C1472 C1473 1.349 . S
C1472 C1474 1.327 . S
C1472 H1497 0.950 . S
C1473 C1472 1.349 . S
C1473 C1489 1.349 . S
C1474 C1472 1.327 . S
C1474 C1493 1.429 . S
C1474 H1498 0.950 . S
C1475 C1492 1.574 . S
C1475 C1494 1.368 . S
C1475 H1499 0.949 . S
H1476 C1480 0.949 . S
C1477 C1478 1.349 . S
C1477 C1479 1.327 . S
C1477 H1500 0.950 . S
C1478 C1477 1.349 . S
C1478 C1490 1.349 . S
C1479 C1477 1.327 . S
C1479 C1495 1.429 . S
C1479 H1501 0.950 . S
C1480 H1476 0.949 . S
C1480 C1488 1.574 . S
C1480 C1496 1.368 . S
H1481 C1489 0.950 . S
H1482 C1487 0.950 . S
H1483 C1488 0.949 . S
H1484 C1490 0.950 . S
H1485 C1491 0.950 . S
H1486 C1492 0.949 . S
C1487 H1482 0.950 . S
C1487 C1489 1.327 . S
C1487 C1493 1.429 . S
C1488 C1480 1.574 . S
C1488 H1483 0.949 . S
C1488 C1494 1.368 . S
C1489 C1473 1.349 . S
C1489 H1481 0.950 . S
C1489 C1487 1.327 . S
C1490 C1478 1.349 . S
C1490 H1484 0.950 . S
C1490 C1491 1.327 . S
C1491 H1485 0.950 . S
C1491 C1490 1.327 . S
C1491 C1495 1.429 . S
C1492 C1475 1.574 . S
C1492 H1486 0.949 . S
C1492 C1496 1.368 . S
C1493 C1474 1.429 . S
C1493 C1487 1.429 . S
C1493 C1494 1.523 . S
C1494 C1475 1.368 . S
C1494 C1488 1.368 . S
C1494 C1493 1.523 . S
C1495 C1479 1.429 . S
C1495 C1491 1.429 . S
C1495 C1496 1.523 . S
C1496 C1480 1.368 . S
C1496 C1492 1.368 . S
C1496 C1495 1.523 . S
H1497 C1472 0.950 . S
H1498 C1474 0.950 . S
H1499 C1475 0.949 . S
H1500 C1477 0.950 . S
H1501 C1479 0.950 . S
C1502 C1503 1.349 . S
C1502 C1504 1.327 . S
C1502 H1527 0.950 . S
C1503 C1502 1.349 . S
C1503 C1519 1.349 . S
C1504 C1502 1.327 . S
C1504 C1523 1.429 . S
C1504 H1528 0.950 . S
C1505 C1522 1.574 . S
C1505 C1524 1.368 . S
C1505 H1529 0.949 . S
H1506 C1510 0.949 1_455 S
C1507 C1508 1.349 . S
C1507 C1509 1.327 1_455 S
C1507 H1530 0.950 . S
C1508 C1507 1.349 . S
C1508 C1520 1.349 . S
C1509 C1507 1.327 1_655 S
C1509 C1525 1.429 . S
C1509 H1531 0.950 . S
C1510 H1506 0.949 1_655 S
C1510 C1518 1.574 . S
C1510 C1526 1.368 . S
H1511 C1519 0.950 . S
H1512 C1517 0.950 . S
H1513 C1518 0.949 . S
H1514 C1520 0.950 . S
H1515 C1521 0.950 . S
H1516 C1522 0.949 . S
C1517 H1512 0.950 . S
C1517 C1519 1.327 . S
C1517 C1523 1.429 . S
C1518 C1510 1.574 . S
C1518 H1513 0.949 . S
C1518 C1524 1.368 . S
C1519 C1503 1.349 . S
C1519 H1511 0.950 . S
C1519 C1517 1.327 . S
C1520 C1508 1.349 . S
C1520 H1514 0.950 . S
C1520 C1521 1.327 . S
C1521 H1515 0.950 . S
C1521 C1520 1.327 . S
C1521 C1525 1.429 1_455 S
C1522 C1505 1.574 . S
C1522 H1516 0.949 . S
C1522 C1526 1.368 . S
C1523 C1504 1.429 . S
C1523 C1517 1.429 . S
C1523 C1524 1.523 . S
C1524 C1505 1.368 . S
C1524 C1518 1.368 . S
C1524 C1523 1.523 . S
C1525 C1509 1.429 . S
C1525 C1521 1.429 1_655 S
C1525 C1526 1.523 . S
C1526 C1510 1.368 . S
C1526 C1522 1.368 . S
C1526 C1525 1.523 . S
H1527 C1502 0.950 . S
H1528 C1504 0.950 . S
H1529 C1505 0.949 . S
H1530 C1507 0.950 . S
H1531 C1509 0.950 . S
C1532 C1533 1.349 . S
C1532 C1534 1.327 . S
C1532 H1557 0.950 . S
C1533 C1532 1.349 . S
C1533 C1549 1.349 . S
C1534 C1532 1.327 . S
C1534 C1553 1.429 . S
C1534 H1558 0.950 . S
C1535 C1552 1.574 . S
C1535 C1554 1.368 . S
C1535 H1559 0.949 . S
H1536 C1540 0.949 . S
C1537 C1538 1.349 . S
C1537 C1539 1.327 . S
C1537 H1560 0.950 . S
C1538 C1537 1.349 . S
C1538 C1550 1.349 . S
C1539 C1537 1.327 . S
C1539 C1555 1.429 . S
C1539 H1561 0.950 . S
C1540 H1536 0.949 . S
C1540 C1548 1.574 . S
C1540 C1556 1.368 . S
H1541 C1549 0.950 . S
H1542 C1547 0.950 . S
H1543 C1548 0.949 . S
H1544 C1550 0.950 . S
H1545 C1551 0.950 . S
H1546 C1552 0.949 . S
C1547 H1542 0.950 . S
C1547 C1549 1.327 . S
C1547 C1553 1.429 . S
C1548 C1540 1.574 . S
C1548 H1543 0.949 . S
C1548 C1554 1.368 . S
C1549 C1533 1.349 . S
C1549 H1541 0.950 . S
C1549 C1547 1.327 . S
C1550 C1538 1.349 . S
C1550 H1544 0.950 . S
C1550 C1551 1.327 . S
C1551 H1545 0.950 . S
C1551 C1550 1.327 . S
C1551 C1555 1.429 . S
C1552 C1535 1.574 . S
C1552 H1546 0.949 . S
C1552 C1556 1.368 . S
C1553 C1534 1.429 . S
C1553 C1547 1.429 . S
C1553 C1554 1.523 . S
C1554 C1535 1.368 . S
C1554 C1548 1.368 . S
C1554 C1553 1.523 . S
C1555 C1539 1.429 . S
C1555 C1551 1.429 . S
C1555 C1556 1.523 . S
C1556 C1540 1.368 . S
C1556 C1552 1.368 . S
C1556 C1555 1.523 . S
H1557 C1532 0.950 . S
H1558 C1534 0.950 . S
H1559 C1535 0.949 . S
H1560 C1537 0.950 . S
H1561 C1539 0.950 . S
C1562 C1563 1.349 . S
C1562 C1564 1.327 . S
C1562 H1587 0.950 . S
C1563 C1562 1.349 . S
C1563 C1579 1.349 . S
C1564 C1562 1.327 . S
C1564 C1583 1.429 . S
C1564 H1588 0.950 . S
C1565 C1582 1.574 . S
C1565 C1584 1.368 . S
C1565 H1589 0.949 . S
H1566 C1570 0.949 1_455 S
C1567 C1568 1.349 . S
C1567 C1569 1.327 1_455 S
C1567 H1590 0.950 . S
C1568 C1567 1.349 . S
C1568 C1580 1.349 . S
C1569 C1567 1.327 1_655 S
C1569 C1585 1.429 . S
C1569 H1591 0.950 . S
C1570 H1566 0.949 1_655 S
C1570 C1578 1.574 . S
C1570 C1586 1.368 . S
H1571 C1579 0.950 . S
H1572 C1577 0.950 . S
H1573 C1578 0.949 . S
H1574 C1580 0.950 . S
H1575 C1581 0.950 . S
H1576 C1582 0.949 . S
C1577 H1572 0.950 . S
C1577 C1579 1.327 . S
C1577 C1583 1.429 . S
C1578 C1570 1.574 . S
C1578 H1573 0.949 . S
C1578 C1584 1.368 . S
C1579 C1563 1.349 . S
C1579 H1571 0.950 . S
C1579 C1577 1.327 . S
C1580 C1568 1.349 . S
C1580 H1574 0.950 . S
C1580 C1581 1.327 . S
C1581 H1575 0.950 . S
C1581 C1580 1.327 . S
C1581 C1585 1.429 1_455 S
C1582 C1565 1.574 . S
C1582 H1576 0.949 . S
C1582 C1586 1.368 . S
C1583 C1564 1.429 . S
C1583 C1577 1.429 . S
C1583 C1584 1.523 . S
C1584 C1565 1.368 . S
C1584 C1578 1.368 . S
C1584 C1583 1.523 . S
C1585 C1569 1.429 . S
C1585 C1581 1.429 1_655 S
C1585 C1586 1.523 . S
C1586 C1570 1.368 . S
C1586 C1582 1.368 . S
C1586 C1585 1.523 . S
H1587 C1562 0.950 . S
H1588 C1564 0.950 . S
H1589 C1565 0.949 . S
H1590 C1567 0.950 . S
H1591 C1569 0.950 . S
C1592 C1593 1.349 . S
C1592 C1594 1.327 . S
C1592 H1617 0.950 . S
C1593 C1592 1.349 . S
C1593 C1609 1.349 . S
C1594 C1592 1.327 . S
C1594 C1613 1.429 . S
C1594 H1618 0.950 . S
C1595 C1612 1.574 . S
C1595 C1614 1.368 . S
C1595 H1619 0.949 . S
H1596 C1600 0.949 . S
C1597 C1598 1.349 . S
C1597 C1599 1.327 . S
C1597 H1620 0.950 . S
C1598 C1597 1.349 . S
C1598 C1610 1.349 . S
C1599 C1597 1.327 . S
C1599 C1615 1.429 . S
C1599 H1621 0.950 . S
C1600 H1596 0.949 . S
C1600 C1608 1.574 . S
C1600 C1616 1.368 . S
H1601 C1609 0.950 . S
H1602 C1607 0.950 . S
H1603 C1608 0.949 . S
H1604 C1610 0.950 . S
H1605 C1611 0.950 . S
H1606 C1612 0.949 . S
C1607 H1602 0.950 . S
C1607 C1609 1.327 . S
C1607 C1613 1.429 . S
C1608 C1600 1.574 . S
C1608 H1603 0.949 . S
C1608 C1614 1.368 . S
C1609 C1593 1.349 . S
C1609 H1601 0.950 . S
C1609 C1607 1.327 . S
C1610 C1598 1.349 . S
C1610 H1604 0.950 . S
C1610 C1611 1.327 . S
C1611 H1605 0.950 . S
C1611 C1610 1.327 . S
C1611 C1615 1.429 . S
C1612 C1595 1.574 . S
C1612 H1606 0.949 . S
C1612 C1616 1.368 . S
C1613 C1594 1.429 . S
C1613 C1607 1.429 . S
C1613 C1614 1.523 . S
C1614 C1595 1.368 . S
C1614 C1608 1.368 . S
C1614 C1613 1.523 . S
C1615 C1599 1.429 . S
C1615 C1611 1.429 . S
C1615 C1616 1.523 . S
C1616 C1600 1.368 . S
C1616 C1612 1.368 . S
C1616 C1615 1.523 . S
H1617 C1592 0.950 . S
H1618 C1594 0.950 . S
H1619 C1595 0.949 . S
H1620 C1597 0.950 . S
H1621 C1599 0.950 . S
C1622 C1623 1.349 . S
C1622 C1624 1.327 1_655 S
C1622 H1647 0.950 . S
C1623 C1622 1.349 . S
C1623 C1639 1.349 . S
C1624 C1622 1.327 1_455 S
C1624 C1643 1.429 . S
C1624 H1648 0.950 . S
C1625 C1642 1.574 . S
C1625 C1644 1.368 . S
C1625 H1649 0.947 1_455 S
H1626 C1630 0.949 . S
C1627 C1628 1.349 . S
C1627 C1629 1.327 . S
C1627 H1650 0.950 . S
C1628 C1627 1.349 . S
C1628 C1640 1.349 . S
C1629 C1627 1.327 . S
C1629 C1645 1.429 . S
C1629 H1651 0.950 . S
C1630 H1626 0.949 . S
C1630 C1638 1.574 . S
C1630 C1646 1.368 . S
H1631 C1639 0.950 . S
H1632 C1637 0.950 . S
H1633 C1638 0.949 . S
H1634 C1640 0.950 . S
H1635 C1641 0.950 . S
H1636 C1642 0.949 . S
C1637 H1632 0.950 . S
C1637 C1639 1.327 . S
C1637 C1643 1.429 1_655 S
C1638 C1630 1.574 . S
C1638 H1633 0.949 . S
C1638 C1644 1.368 . S
C1639 C1623 1.349 . S
C1639 H1631 0.950 . S
C1639 C1637 1.327 . S
C1640 C1628 1.349 . S
C1640 H1634 0.950 . S
C1640 C1641 1.327 . S
C1641 H1635 0.950 . S
C1641 C1640 1.327 . S
C1641 C1645 1.429 . S
C1642 C1625 1.574 . S
C1642 H1636 0.949 . S
C1642 C1646 1.368 . S
C1643 C1624 1.429 . S
C1643 C1637 1.429 1_455 S
C1643 C1644 1.523 . S
C1644 C1625 1.368 . S
C1644 C1638 1.368 . S
C1644 C1643 1.523 . S
C1645 C1629 1.429 . S
C1645 C1641 1.429 . S
C1645 C1646 1.523 . S
C1646 C1630 1.368 . S
C1646 C1642 1.368 . S
C1646 C1645 1.523 . S
H1647 C1622 0.950 . S
H1648 C1624 0.950 . S
H1649 C1625 0.947 1_655 S
H1650 C1627 0.950 . S
H1651 C1629 0.950 . S
C1652 C1653 1.349 . S
C1652 C1654 1.327 . S
C1652 H1677 0.950 . S
C1653 C1652 1.349 . S
C1653 C1669 1.349 . S
C1654 C1652 1.327 . S
C1654 C1673 1.429 . S
C1654 H1678 0.950 . S
C1655 C1672 1.574 . S
C1655 C1674 1.368 . S
C1655 H1679 0.949 . S
H1656 C1660 0.949 . S
C1657 C1658 1.349 . S
C1657 C1659 1.327 . S
C1657 H1680 0.950 . S
C1658 C1657 1.349 . S
C1658 C1670 1.349 . S
C1659 C1657 1.327 . S
C1659 C1675 1.429 . S
C1659 H1681 0.950 . S
C1660 H1656 0.949 . S
C1660 C1668 1.574 . S
C1660 C1676 1.368 . S
H1661 C1669 0.950 . S
H1662 C1667 0.950 . S
H1663 C1668 0.949 . S
H1664 C1670 0.950 . S
H1665 C1671 0.950 . S
H1666 C1672 0.949 . S
C1667 H1662 0.950 . S
C1667 C1669 1.327 . S
C1667 C1673 1.429 . S
C1668 C1660 1.574 . S
C1668 H1663 0.949 . S
C1668 C1674 1.368 . S
C1669 C1653 1.349 . S
C1669 H1661 0.950 . S
C1669 C1667 1.327 . S
C1670 C1658 1.349 . S
C1670 H1664 0.950 . S
C1670 C1671 1.327 . S
C1671 H1665 0.950 . S
C1671 C1670 1.327 . S
C1671 C1675 1.429 . S
C1672 C1655 1.574 . S
C1672 H1666 0.949 . S
C1672 C1676 1.368 . S
C1673 C1654 1.429 . S
C1673 C1667 1.429 . S
C1673 C1674 1.523 . S
C1674 C1655 1.368 . S
C1674 C1668 1.368 . S
C1674 C1673 1.523 . S
C1675 C1659 1.429 . S
C1675 C1671 1.429 . S
C1675 C1676 1.523 . S
C1676 C1660 1.368 . S
C1676 C1672 1.368 . S
C1676 C1675 1.523 . S
H1677 C1652 0.950 . S
H1678 C1654 0.950 . S
H1679 C1655 0.949 . S
H1680 C1657 0.950 . S
H1681 C1659 0.950 . S
C1682 C1683 1.349 . S
C1682 C1684 1.327 . S
C1682 H1707 0.950 . S
C1683 C1682 1.349 . S
C1683 C1699 1.349 . S
C1684 C1682 1.327 . S
C1684 C1703 1.429 1_655 S
C1684 H1708 0.950 . S
C1685 C1702 1.574 . S
C1685 C1704 1.368 . S
C1685 H1709 0.949 . S
H1686 C1690 0.949 . S
C1687 C1688 1.349 . S
C1687 C1689 1.327 . S
C1687 H1710 0.950 . S
C1688 C1687 1.349 . S
C1688 C1700 1.349 . S
C1689 C1687 1.327 . S
C1689 C1705 1.429 . S
C1689 H1711 0.950 . S
C1690 H1686 0.949 . S
C1690 C1698 1.574 . S
C1690 C1706 1.368 . S
H1691 C1699 0.950 . S
H1692 C1697 0.950 . S
H1693 C1698 0.949 . S
H1694 C1700 0.950 . S
H1695 C1701 0.950 . S
H1696 C1702 0.949 . S
C1697 H1692 0.950 . S
C1697 C1699 1.327 1_455 S
C1697 C1703 1.429 . S
C1698 C1690 1.574 . S
C1698 H1693 0.949 . S
C1698 C1704 1.368 . S
C1699 C1683 1.349 . S
C1699 H1691 0.950 . S
C1699 C1697 1.327 1_655 S
C1700 C1688 1.349 . S
C1700 H1694 0.950 . S
C1700 C1701 1.327 . S
C1701 H1695 0.950 . S
C1701 C1700 1.327 . S
C1701 C1705 1.429 . S
C1702 C1685 1.574 . S
C1702 H1696 0.949 . S
C1702 C1706 1.368 . S
C1703 C1684 1.429 1_455 S
C1703 C1697 1.429 . S
C1703 C1704 1.523 . S
C1704 C1685 1.368 . S
C1704 C1698 1.368 . S
C1704 C1703 1.523 . S
C1705 C1689 1.429 . S
C1705 C1701 1.429 . S
C1705 C1706 1.523 . S
C1706 C1690 1.368 . S
C1706 C1702 1.368 . S
C1706 C1705 1.523 . S
H1707 C1682 0.950 . S
H1708 C1684 0.950 . S
H1709 C1685 0.949 . S
H1710 C1687 0.950 . S
H1711 C1689 0.950 . S
C1712 C1713 1.349 . S
C1712 C1714 1.327 . S
C1712 H1737 0.950 . S
C1713 C1712 1.349 . S
C1713 C1729 1.349 . S
C1714 C1712 1.327 . S
C1714 C1733 1.429 . S
C1714 H1738 0.950 . S
C1715 C1732 1.574 . S
C1715 C1734 1.368 . S
C1715 H1739 0.949 . S
H1716 C1720 0.949 . S
C1717 C1718 1.349 . S
C1717 C1719 1.327 . S
C1717 H1740 0.950 . S
C1718 C1717 1.349 . S
C1718 C1730 1.349 . S
C1719 C1717 1.327 . S
C1719 C1735 1.429 . S
C1719 H1741 0.950 . S
C1720 H1716 0.949 . S
C1720 C1728 1.574 . S
C1720 C1736 1.368 . S
H1721 C1729 0.950 . S
H1722 C1727 0.950 . S
H1723 C1728 0.949 . S
H1724 C1730 0.950 . S
H1725 C1731 0.950 . S
H1726 C1732 0.949 . S
C1727 H1722 0.950 . S
C1727 C1729 1.327 . S
C1727 C1733 1.429 . S
C1728 C1720 1.574 . S
C1728 H1723 0.949 . S
C1728 C1734 1.368 . S
C1729 C1713 1.349 . S
C1729 H1721 0.950 . S
C1729 C1727 1.327 . S
C1730 C1718 1.349 . S
C1730 H1724 0.950 . S
C1730 C1731 1.327 . S
C1731 H1725 0.950 . S
C1731 C1730 1.327 . S
C1731 C1735 1.429 . S
C1732 C1715 1.574 . S
C1732 H1726 0.949 . S
C1732 C1736 1.368 . S
C1733 C1714 1.429 . S
C1733 C1727 1.429 . S
C1733 C1734 1.523 . S
C1734 C1715 1.368 . S
C1734 C1728 1.368 . S
C1734 C1733 1.523 . S
C1735 C1719 1.429 . S
C1735 C1731 1.429 . S
C1735 C1736 1.523 . S
C1736 C1720 1.368 . S
C1736 C1732 1.368 . S
C1736 C1735 1.523 . S
H1737 C1712 0.950 . S
H1738 C1714 0.950 . S
H1739 C1715 0.949 . S
H1740 C1717 0.950 . S
H1741 C1719 0.950 . S
C1742 C1743 1.349 . S
C1742 C1744 1.327 . S
C1742 H1767 0.950 . S
C1743 C1742 1.349 . S
C1743 C1759 1.349 . S
C1744 C1742 1.327 . S
C1744 C1763 1.429 1_455 S
C1744 H1768 0.950 . S
C1745 C1762 1.574 . S
C1745 C1764 1.368 . S
C1745 H1769 0.949 . S
H1746 C1750 0.949 . S
C1747 C1748 1.349 . S
C1747 C1749 1.327 . S
C1747 H1770 0.950 . S
C1748 C1747 1.349 . S
C1748 C1760 1.349 . S
C1749 C1747 1.327 . S
C1749 C1765 1.429 . S
C1749 H1771 0.950 . S
C1750 H1746 0.949 . S
C1750 C1758 1.574 . S
C1750 C1766 1.368 . S
H1751 C1759 0.950 . S
H1752 C1757 0.950 . S
H1753 C1758 0.949 1_455 S
H1754 C1760 0.950 . S
H1755 C1761 0.950 . S
H1756 C1762 0.949 . S
C1757 H1752 0.950 . S
C1757 C1759 1.327 1_655 S
C1757 C1763 1.429 . S
C1758 C1750 1.574 . S
C1758 H1753 0.949 1_655 S
C1758 C1764 1.368 . S
C1759 C1743 1.349 . S
C1759 H1751 0.950 . S
C1759 C1757 1.327 1_455 S
C1760 C1748 1.349 . S
C1760 H1754 0.950 . S
C1760 C1761 1.327 . S
C1761 H1755 0.950 . S
C1761 C1760 1.327 . S
C1761 C1765 1.429 . S
C1762 C1745 1.574 . S
C1762 H1756 0.949 . S
C1762 C1766 1.368 . S
C1763 C1744 1.429 1_655 S
C1763 C1757 1.429 . S
C1763 C1764 1.523 . S
C1764 C1745 1.368 . S
C1764 C1758 1.368 . S
C1764 C1763 1.523 . S
C1765 C1749 1.429 . S
C1765 C1761 1.429 . S
C1765 C1766 1.523 . S
C1766 C1750 1.368 . S
C1766 C1762 1.368 . S
C1766 C1765 1.523 . S
H1767 C1742 0.950 . S
H1768 C1744 0.950 . S
H1769 C1745 0.949 . S
H1770 C1747 0.950 . S
H1771 C1749 0.950 . S
C1772 C1773 1.349 . S
C1772 C1774 1.327 . S
C1772 H1797 0.950 . S
C1773 C1772 1.349 . S
C1773 C1789 1.349 . S
C1774 C1772 1.327 . S
C1774 C1793 1.429 . S
C1774 H1798 0.950 . S
C1775 C1792 1.574 . S
C1775 C1794 1.368 . S
C1775 H1799 0.949 . S
H1776 C1780 0.949 . S
C1777 C1778 1.349 . S
C1777 C1779 1.327 . S
C1777 H1800 0.950 . S
C1778 C1777 1.349 . S
C1778 C1790 1.349 . S
C1779 C1777 1.327 . S
C1779 C1795 1.429 . S
C1779 H1801 0.950 . S
C1780 H1776 0.949 . S
C1780 C1788 1.574 . S
C1780 C1796 1.368 . S
H1781 C1789 0.950 . S
H1782 C1787 0.950 . S
H1783 C1788 0.949 . S
H1784 C1790 0.950 . S
H1785 C1791 0.950 . S
H1786 C1792 0.949 . S
C1787 H1782 0.950 . S
C1787 C1789 1.327 . S
C1787 C1793 1.429 . S
C1788 C1780 1.574 . S
C1788 H1783 0.949 . S
C1788 C1794 1.368 . S
C1789 C1773 1.349 . S
C1789 H1781 0.950 . S
C1789 C1787 1.327 . S
C1790 C1778 1.349 . S
C1790 H1784 0.950 . S
C1790 C1791 1.327 . S
C1791 H1785 0.950 . S
C1791 C1790 1.327 . S
C1791 C1795 1.429 . S
C1792 C1775 1.574 . S
C1792 H1786 0.949 . S
C1792 C1796 1.368 . S
C1793 C1774 1.429 . S
C1793 C1787 1.429 . S
C1793 C1794 1.523 . S
C1794 C1775 1.368 . S
C1794 C1788 1.368 . S
C1794 C1793 1.523 . S
C1795 C1779 1.429 . S
C1795 C1791 1.429 . S
C1795 C1796 1.523 . S
C1796 C1780 1.368 . S
C1796 C1792 1.368 . S
C1796 C1795 1.523 . S
H1797 C1772 0.950 . S
H1798 C1774 0.950 . S
H1799 C1775 0.949 . S
H1800 C1777 0.950 . S
H1801 C1779 0.950 . S
C1802 C1803 1.349 . S
C1802 C1804 1.327 . S
C1802 H1827 0.950 . S
C1803 C1802 1.349 . S
C1803 C1819 1.349 . S
C1804 C1802 1.327 . S
C1804 C1823 1.429 . S
C1804 H1828 0.950 . S
C1805 C1822 1.574 . S
C1805 C1824 1.368 . S
C1805 H1829 0.949 . S
H1806 C1810 0.949 1_455 S
C1807 C1808 1.349 . S
C1807 C1809 1.327 1_455 S
C1807 H1830 0.950 . S
C1808 C1807 1.349 . S
C1808 C1820 1.349 . S
C1809 C1807 1.327 1_655 S
C1809 C1825 1.429 . S
C1809 H1831 0.950 . S
C1810 H1806 0.949 1_655 S
C1810 C1818 1.574 . S
C1810 C1826 1.368 . S
H1811 C1819 0.950 . S
H1812 C1817 0.950 . S
H1813 C1818 0.949 . S
H1814 C1820 0.950 . S
H1815 C1821 0.950 . S
H1816 C1822 0.949 . S
C1817 H1812 0.950 . S
C1817 C1819 1.327 . S
C1817 C1823 1.429 . S
C1818 C1810 1.574 . S
C1818 H1813 0.949 . S
C1818 C1824 1.368 . S
C1819 C1803 1.349 . S
C1819 H1811 0.950 . S
C1819 C1817 1.327 . S
C1820 C1808 1.349 . S
C1820 H1814 0.950 . S
C1820 C1821 1.327 . S
C1821 H1815 0.950 . S
C1821 C1820 1.327 . S
C1821 C1825 1.429 1_455 S
C1822 C1805 1.574 . S
C1822 H1816 0.949 . S
C1822 C1826 1.368 . S
C1823 C1804 1.429 . S
C1823 C1817 1.429 . S
C1823 C1824 1.523 . S
C1824 C1805 1.368 . S
C1824 C1818 1.368 . S
C1824 C1823 1.523 . S
C1825 C1809 1.429 . S
C1825 C1821 1.429 1_655 S
C1825 C1826 1.523 . S
C1826 C1810 1.368 . S
C1826 C1822 1.368 . S
C1826 C1825 1.523 . S
H1827 C1802 0.950 . S
H1828 C1804 0.950 . S
H1829 C1805 0.949 . S
H1830 C1807 0.950 . S
H1831 C1809 0.950 . S
C1832 C1833 1.349 . S
C1832 C1834 1.327 . S
C1832 H1857 0.950 . S
C1833 C1832 1.349 . S
C1833 C1849 1.349 . S
C1834 C1832 1.327 . S
C1834 C1853 1.429 . S
C1834 H1858 0.950 . S
C1835 C1852 1.574 . S
C1835 C1854 1.368 . S
C1835 H1859 0.949 . S
H1836 C1840 0.949 . S
C1837 C1838 1.349 . S
C1837 C1839 1.327 . S
C1837 H1860 0.950 . S
C1838 C1837 1.349 . S
C1838 C1850 1.349 . S
C1839 C1837 1.327 . S
C1839 C1855 1.429 . S
C1839 H1861 0.950 . S
C1840 H1836 0.949 . S
C1840 C1848 1.574 . S
C1840 C1856 1.368 . S
H1841 C1849 0.950 . S
H1842 C1847 0.950 . S
H1843 C1848 0.949 . S
H1844 C1850 0.950 . S
H1845 C1851 0.950 . S
H1846 C1852 0.949 . S
C1847 H1842 0.950 . S
C1847 C1849 1.327 . S
C1847 C1853 1.429 . S
C1848 C1840 1.574 . S
C1848 H1843 0.949 . S
C1848 C1854 1.368 . S
C1849 C1833 1.349 . S
C1849 H1841 0.950 . S
C1849 C1847 1.327 . S
C1850 C1838 1.349 . S
C1850 H1844 0.950 . S
C1850 C1851 1.327 . S
C1851 H1845 0.950 . S
C1851 C1850 1.327 . S
C1851 C1855 1.429 . S
C1852 C1835 1.574 . S
C1852 H1846 0.949 . S
C1852 C1856 1.368 . S
C1853 C1834 1.429 . S
C1853 C1847 1.429 . S
C1853 C1854 1.523 . S
C1854 C1835 1.368 . S
C1854 C1848 1.368 . S
C1854 C1853 1.523 . S
C1855 C1839 1.429 . S
C1855 C1851 1.429 . S
C1855 C1856 1.523 . S
C1856 C1840 1.368 . S
C1856 C1852 1.368 . S
C1856 C1855 1.523 . S
H1857 C1832 0.950 . S
H1858 C1834 0.950 . S
H1859 C1835 0.949 . S
H1860 C1837 0.950 . S
H1861 C1839 0.950 . S
C1862 C1863 1.349 . S
C1862 C1864 1.327 . S
C1862 H1887 0.950 . S
C1863 C1862 1.349 . S
C1863 C1879 1.349 . S
C1864 C1862 1.327 . S
C1864 C1883 1.429 . S
C1864 H1888 0.950 . S
C1865 C1882 1.574 . S
C1865 C1884 1.368 . S
C1865 H1889 0.949 . S
H1866 C1870 0.949 1_655 S
C1867 C1868 1.349 . S
C1867 C1869 1.327 1_655 S
C1867 H1890 0.950 . S
C1868 C1867 1.349 . S
C1868 C1880 1.349 . S
C1869 C1867 1.327 1_455 S
C1869 C1885 1.429 . S
C1869 H1891 0.950 . S
C1870 H1866 0.949 1_455 S
C1870 C1878 1.574 . S
C1870 C1886 1.368 . S
H1871 C1879 0.950 . S
H1872 C1877 0.950 . S
H1873 C1878 0.949 . S
H1874 C1880 0.950 . S
H1875 C1881 0.950 . S
H1876 C1882 0.949 . S
C1877 H1872 0.950 . S
C1877 C1879 1.327 . S
C1877 C1883 1.429 . S
C1878 C1870 1.574 . S
C1878 H1873 0.949 . S
C1878 C1884 1.368 . S
C1879 C1863 1.349 . S
C1879 H1871 0.950 . S
C1879 C1877 1.327 . S
C1880 C1868 1.349 . S
C1880 H1874 0.950 . S
C1880 C1881 1.327 . S
C1881 H1875 0.950 . S
C1881 C1880 1.327 . S
C1881 C1885 1.429 1_655 S
C1882 C1865 1.574 . S
C1882 H1876 0.949 . S
C1882 C1886 1.368 . S
C1883 C1864 1.429 . S
C1883 C1877 1.429 . S
C1883 C1884 1.523 . S
C1884 C1865 1.368 . S
C1884 C1878 1.368 . S
C1884 C1883 1.523 . S
C1885 C1869 1.429 . S
C1885 C1881 1.429 1_455 S
C1885 C1886 1.523 . S
C1886 C1870 1.368 . S
C1886 C1882 1.368 . S
C1886 C1885 1.523 . S
H1887 C1862 0.950 . S
H1888 C1864 0.950 . S
H1889 C1865 0.949 . S
H1890 C1867 0.950 . S
H1891 C1869 0.950 . S
C1892 C1893 1.349 . S
C1892 C1894 1.327 . S
C1892 H1917 0.950 . S
C1893 C1892 1.349 . S
C1893 C1909 1.349 . S
C1894 C1892 1.327 . S
C1894 C1913 1.429 . S
C1894 H1918 0.950 . S
C1895 C1912 1.574 . S
C1895 C1914 1.368 . S
C1895 H1919 0.949 . S
H1896 C1900 0.949 . S
C1897 C1898 1.349 . S
C1897 C1899 1.327 . S
C1897 H1920 0.950 . S
C1898 C1897 1.349 . S
C1898 C1910 1.349 . S
C1899 C1897 1.327 . S
C1899 C1915 1.429 . S
C1899 H1921 0.950 . S
C1900 H1896 0.949 . S
C1900 C1908 1.574 . S
C1900 C1916 1.368 . S
H1901 C1909 0.950 . S
H1902 C1907 0.950 . S
H1903 C1908 0.949 . S
H1904 C1910 0.950 . S
H1905 C1911 0.950 . S
H1906 C1912 0.949 . S
C1907 H1902 0.950 . S
C1907 C1909 1.327 . S
C1907 C1913 1.429 . S
C1908 C1900 1.574 . S
C1908 H1903 0.949 . S
C1908 C1914 1.368 . S
C1909 C1893 1.349 . S
C1909 H1901 0.950 . S
C1909 C1907 1.327 . S
C1910 C1898 1.349 . S
C1910 H1904 0.950 . S
C1910 C1911 1.327 . S
C1911 H1905 0.950 . S
C1911 C1910 1.327 . S
C1911 C1915 1.429 . S
C1912 C1895 1.574 . S
C1912 H1906 0.949 . S
C1912 C1916 1.368 . S
C1913 C1894 1.429 . S
C1913 C1907 1.429 . S
C1913 C1914 1.523 . S
C1914 C1895 1.368 . S
C1914 C1908 1.368 . S
C1914 C1913 1.523 . S
C1915 C1899 1.429 . S
C1915 C1911 1.429 . S
C1915 C1916 1.523 . S
C1916 C1900 1.368 . S
C1916 C1912 1.368 . S
C1916 C1915 1.523 . S
H1917 C1892 0.950 . S
H1918 C1894 0.950 . S
H1919 C1895 0.949 . S
H1920 C1897 0.950 . S
H1921 C1899 0.950 . S
C1922 C1923 1.349 . S
C1922 C1924 1.327 . S
C1922 H1947 0.950 . S
C1923 C1922 1.349 . S
C1923 C1939 1.349 . S
C1924 C1922 1.327 . S
C1924 C1943 1.429 . S
C1924 H1948 0.950 . S
C1925 C1942 1.574 . S
C1925 C1944 1.368 . S
C1925 H1949 0.949 . S
H1926 C1930 0.949 1_655 S
C1927 C1928 1.349 . S
C1927 C1929 1.327 1_655 S
C1927 H1950 0.950 . S
C1928 C1927 1.349 . S
C1928 C1940 1.349 . S
C1929 C1927 1.327 1_455 S
C1929 C1945 1.429 . S
C1929 H1951 0.950 . S
C1930 H1926 0.949 1_455 S
C1930 C1938 1.574 . S
C1930 C1946 1.368 . S
H1931 C1939 0.950 . S
H1932 C1937 0.950 . S
H1933 C1938 0.949 . S
H1934 C1940 0.950 . S
H1935 C1941 0.950 . S
H1936 C1942 0.949 . S
C1937 H1932 0.950 . S
C1937 C1939 1.327 . S
C1937 C1943 1.429 . S
C1938 C1930 1.574 . S
C1938 H1933 0.949 . S
C1938 C1944 1.368 . S
C1939 C1923 1.349 . S
C1939 H1931 0.950 . S
C1939 C1937 1.327 . S
C1940 C1928 1.349 . S
C1940 H1934 0.950 . S
C1940 C1941 1.327 . S
C1941 H1935 0.950 . S
C1941 C1940 1.327 . S
C1941 C1945 1.429 1_655 S
C1942 C1925 1.574 . S
C1942 H1936 0.949 . S
C1942 C1946 1.368 . S
C1943 C1924 1.429 . S
C1943 C1937 1.429 . S
C1943 C1944 1.523 . S
C1944 C1925 1.368 . S
C1944 C1938 1.368 . S
C1944 C1943 1.523 . S
C1945 C1929 1.429 . S
C1945 C1941 1.429 1_455 S
C1945 C1946 1.523 . S
C1946 C1930 1.368 . S
C1946 C1942 1.368 . S
C1946 C1945 1.523 . S
H1947 C1922 0.950 . S
H1948 C1924 0.950 . S
H1949 C1925 0.949 . S
H1950 C1927 0.950 . S
H1951 C1929 0.950 . S
C1952 C1953 1.349 . S
C1952 C1954 1.327 . S
C1952 H1977 0.950 . S
C1953 C1952 1.349 . S
C1953 C1969 1.349 . S
C1954 C1952 1.327 . S
C1954 C1973 1.429 . S
C1954 H1978 0.950 . S
C1955 C1972 1.574 . S
C1955 C1974 1.368 . S
C1955 H1979 0.949 . S
H1956 C1960 0.949 . S
C1957 C1958 1.349 . S
C1957 C1959 1.327 . S
C1957 H1980 0.950 . S
C1958 C1957 1.349 . S
C1958 C1970 1.349 . S
C1959 C1957 1.327 . S
C1959 C1975 1.429 . S
C1959 H1981 0.950 . S
C1960 H1956 0.949 . S
C1960 C1968 1.574 . S
C1960 C1976 1.368 . S
H1961 C1969 0.950 . S
H1962 C1967 0.950 . S
H1963 C1968 0.949 . S
H1964 C1970 0.950 . S
H1965 C1971 0.950 . S
H1966 C1972 0.949 . S
C1967 H1962 0.950 . S
C1967 C1969 1.327 . S
C1967 C1973 1.429 . S
C1968 C1960 1.574 . S
C1968 H1963 0.949 . S
C1968 C1974 1.368 . S
C1969 C1953 1.349 . S
C1969 H1961 0.950 . S
C1969 C1967 1.327 . S
C1970 C1958 1.349 . S
C1970 H1964 0.950 . S
C1970 C1971 1.327 . S
C1971 H1965 0.950 . S
C1971 C1970 1.327 . S
C1971 C1975 1.429 . S
C1972 C1955 1.574 . S
C1972 H1966 0.949 . S
C1972 C1976 1.368 . S
C1973 C1954 1.429 . S
C1973 C1967 1.429 . S
C1973 C1974 1.523 . S
C1974 C1955 1.368 . S
C1974 C1968 1.368 . S
C1974 C1973 1.523 . S
C1975 C1959 1.429 . S
C1975 C1971 1.429 . S
C1975 C1976 1.523 . S
C1976 C1960 1.368 . S
C1976 C1972 1.368 . S
C1976 C1975 1.523 . S
H1977 C1952 0.950 . S
H1978 C1954 0.950 . S
H1979 C1955 0.949 . S
H1980 C1957 0.950 . S
H1981 C1959 0.950 . S
C1982 C1983 1.349 . S
C1982 C1984 1.327 . S
C1982 H2007 0.950 . S
C1983 C1982 1.349 . S
C1983 C1999 1.349 . S
C1984 C1982 1.327 . S
C1984 C2003 1.429 . S
C1984 H2008 0.950 . S
C1985 C2002 1.574 . S
C1985 C2004 1.368 1_445 S
C1985 H2009 0.949 . S
H1986 C1990 0.949 . S
C1987 C1988 1.349 . S
C1987 C1989 1.327 . S
C1987 H2010 0.950 . S
C1988 C1987 1.349 . S
C1988 C2000 1.349 . S
C1989 C1987 1.327 . S
C1989 C2005 1.429 . S
C1989 H2011 0.950 . S
C1990 H1986 0.949 . S
C1990 C1998 1.574 . S
C1990 C2006 1.368 1_665 S
H1991 C1999 0.950 . S
H1992 C1997 0.950 1_445 S
H1993 C1998 0.949 . S
H1994 C2000 0.950 . S
H1995 C2001 0.950 1_665 S
H1996 C2002 0.949 . S
C1997 H1992 0.950 1_665 S
C1997 C1999 1.327 . S
C1997 C2003 1.429 . S
C1998 C1990 1.574 . S
C1998 H1993 0.949 . S
C1998 C2004 1.368 . S
C1999 C1983 1.349 . S
C1999 H1991 0.950 . S
C1999 C1997 1.327 . S
C2000 C1988 1.349 . S
C2000 H1994 0.950 . S
C2000 C2001 1.327 . S
C2001 H1995 0.950 1_445 S
C2001 C2000 1.327 . S
C2001 C2005 1.429 . S
C2002 C1985 1.574 . S
C2002 H1996 0.949 . S
C2002 C2006 1.368 . S
C2003 C1984 1.429 . S
C2003 C1997 1.429 . S
C2003 C2004 1.523 . S
C2004 C1985 1.368 1_665 S
C2004 C1998 1.368 . S
C2004 C2003 1.523 . S
C2005 C1989 1.429 . S
C2005 C2001 1.429 . S
C2005 C2006 1.523 . S
C2006 C1990 1.368 1_445 S
C2006 C2002 1.368 . S
C2006 C2005 1.523 . S
H2007 C1982 0.950 . S
H2008 C1984 0.950 . S
H2009 C1985 0.949 . S
H2010 C1987 0.950 . S
H2011 C1989 0.950 . S
C2012 C2013 1.349 . S
C2012 C2014 1.327 . S
C2012 H2037 0.950 . S
C2013 C2012 1.349 . S
C2013 C2029 1.349 . S
C2014 C2012 1.327 . S
C2014 C2033 1.429 . S
C2014 H2038 0.950 1_565 S
C2015 C2032 1.574 . S
C2015 C2034 1.368 . S
C2015 H2039 0.949 . S
H2016 C2020 0.949 . S
C2017 C2018 1.349 . S
C2017 C2019 1.327 . S
C2017 H2040 0.950 . S
C2018 C2017 1.349 . S
C2018 C2030 1.349 . S
C2019 C2017 1.327 . S
C2019 C2035 1.429 . S
C2019 H2041 0.950 1_545 S
C2020 H2016 0.949 . S
C2020 C2028 1.574 . S
C2020 C2036 1.368 . S
H2021 C2029 0.950 . S
H2022 C2027 0.950 . S
H2023 C2028 0.949 . S
H2024 C2030 0.950 . S
H2025 C2031 0.950 . S
H2026 C2032 0.949 . S
C2027 H2022 0.950 . S
C2027 C2029 1.327 . S
C2027 C2033 1.429 . S
C2028 C2020 1.574 . S
C2028 H2023 0.949 . S
C2028 C2034 1.368 1_545 S
C2029 C2013 1.349 . S
C2029 H2021 0.950 . S
C2029 C2027 1.327 . S
C2030 C2018 1.349 . S
C2030 H2024 0.950 . S
C2030 C2031 1.327 . S
C2031 H2025 0.950 . S
C2031 C2030 1.327 . S
C2031 C2035 1.429 . S
C2032 C2015 1.574 . S
C2032 H2026 0.949 . S
C2032 C2036 1.368 1_565 S
C2033 C2014 1.429 . S
C2033 C2027 1.429 . S
C2033 C2034 1.523 . S
C2034 C2015 1.368 . S
C2034 C2028 1.368 1_565 S
C2034 C2033 1.523 . S
C2035 C2019 1.429 . S
C2035 C2031 1.429 . S
C2035 C2036 1.523 . S
C2036 C2020 1.368 . S
C2036 C2032 1.368 1_545 S
C2036 C2035 1.523 . S
H2037 C2012 0.950 . S
H2038 C2014 0.950 1_545 S
H2039 C2015 0.949 . S
H2040 C2017 0.950 . S
H2041 C2019 0.950 1_565 S
C2042 C2043 1.349 . S
C2042 C2044 1.327 . S
C2042 H2067 0.950 . S
C2043 C2042 1.349 . S
C2043 C2059 1.349 . S
C2044 C2042 1.327 . S
C2044 C2063 1.429 . S
C2044 H2068 0.950 . S
C2045 C2062 1.574 . S
C2045 C2064 1.368 1_655 S
C2045 H2069 0.949 . S
H2046 C2050 0.949 . S
C2047 C2048 1.349 . S
C2047 C2049 1.327 . S
C2047 H2070 0.950 . S
C2048 C2047 1.349 . S
C2048 C2060 1.349 . S
C2049 C2047 1.327 . S
C2049 C2065 1.429 . S
C2049 H2071 0.950 . S
C2050 H2046 0.949 . S
C2050 C2058 1.574 . S
C2050 C2066 1.368 1_455 S
H2051 C2059 0.950 1_655 S
H2052 C2057 0.950 . S
H2053 C2058 0.949 . S
H2054 C2060 0.950 1_455 S
H2055 C2061 0.950 . S
H2056 C2062 0.949 . S
C2057 H2052 0.950 . S
C2057 C2059 1.327 1_655 S
C2057 C2063 1.429 1_655 S
C2058 C2050 1.574 . S
C2058 H2053 0.949 . S
C2058 C2064 1.368 . S
C2059 C2043 1.349 . S
C2059 H2051 0.950 1_455 S
C2059 C2057 1.327 1_455 S
C2060 C2048 1.349 . S
C2060 H2054 0.950 1_655 S
C2060 C2061 1.327 1_655 S
C2061 H2055 0.950 . S
C2061 C2060 1.327 1_455 S
C2061 C2065 1.429 1_455 S
C2062 C2045 1.574 . S
C2062 H2056 0.949 . S
C2062 C2066 1.368 . S
C2063 C2044 1.429 . S
C2063 C2057 1.429 1_455 S
C2063 C2064 1.523 . S
C2064 C2045 1.368 1_455 S
C2064 C2058 1.368 . S
C2064 C2063 1.523 . S
C2065 C2049 1.429 . S
C2065 C2061 1.429 1_655 S
C2065 C2066 1.523 . S
C2066 C2050 1.368 1_655 S
C2066 C2062 1.368 . S
C2066 C2065 1.523 . S
H2067 C2042 0.950 . S
H2068 C2044 0.950 . S
H2069 C2045 0.949 . S
H2070 C2047 0.950 . S
H2071 C2049 0.950 . S
C2072 C2073 1.349 . S
C2072 C2074 1.327 . S
C2072 H2097 0.950 . S
C2073 C2072 1.349 . S
C2073 C2089 1.349 . S
C2074 C2072 1.327 . S
C2074 C2093 1.429 . S
C2074 H2098 0.950 . S
C2075 C2092 1.574 . S
C2075 C2094 1.368 . S
C2075 H2099 0.949 . S
H2076 C2080 0.949 . S
C2077 C2078 1.349 . S
C2077 C2079 1.327 . S
C2077 H2100 0.950 . S
C2078 C2077 1.349 . S
C2078 C2090 1.349 . S
C2079 C2077 1.327 . S
C2079 C2095 1.429 . S
C2079 H2101 0.950 . S
C2080 H2076 0.949 . S
C2080 C2088 1.574 . S
C2080 C2096 1.368 . S
H2081 C2089 0.950 . S
H2082 C2087 0.950 . S
H2083 C2088 0.949 . S
H2084 C2090 0.950 . S
H2085 C2091 0.950 . S
H2086 C2092 0.949 . S
C2087 H2082 0.950 . S
C2087 C2089 1.327 . S
C2087 C2093 1.429 . S
C2088 C2080 1.574 . S
C2088 H2083 0.949 . S
C2088 C2094 1.368 . S
C2089 C2073 1.349 . S
C2089 H2081 0.950 . S
C2089 C2087 1.327 . S
C2090 C2078 1.349 . S
C2090 H2084 0.950 . S
C2090 C2091 1.327 . S
C2091 H2085 0.950 . S
C2091 C2090 1.327 . S
C2091 C2095 1.429 . S
C2092 C2075 1.574 . S
C2092 H2086 0.949 . S
C2092 C2096 1.368 . S
C2093 C2074 1.429 . S
C2093 C2087 1.429 . S
C2093 C2094 1.523 . S
C2094 C2075 1.368 . S
C2094 C2088 1.368 . S
C2094 C2093 1.523 . S
C2095 C2079 1.429 . S
C2095 C2091 1.429 . S
C2095 C2096 1.523 . S
C2096 C2080 1.368 . S
C2096 C2092 1.368 . S
C2096 C2095 1.523 . S
H2097 C2072 0.950 . S
H2098 C2074 0.950 . S
H2099 C2075 0.949 . S
H2100 C2077 0.950 . S
H2101 C2079 0.950 . S
C2102 C2103 1.349 . S
C2102 C2104 1.327 . S
C2102 H2127 0.950 . S
C2103 C2102 1.349 . S
C2103 C2119 1.349 . S
C2104 C2102 1.327 . S
C2104 C2123 1.429 . S
C2104 H2128 0.950 . S
C2105 C2122 1.574 . S
C2105 C2124 1.368 . S
C2105 H2129 0.949 . S
H2106 C2110 0.949 . S
C2107 C2108 1.349 . S
C2107 C2109 1.327 . S
C2107 H2130 0.950 . S
C2108 C2107 1.349 . S
C2108 C2120 1.349 . S
C2109 C2107 1.327 . S
C2109 C2125 1.429 . S
C2109 H2131 0.950 . S
C2110 H2106 0.949 . S
C2110 C2118 1.574 . S
C2110 C2126 1.368 . S
H2111 C2119 0.950 . S
H2112 C2117 0.950 . S
H2113 C2118 0.949 . S
H2114 C2120 0.950 . S
H2115 C2121 0.950 . S
H2116 C2122 0.949 . S
C2117 H2112 0.950 . S
C2117 C2119 1.327 . S
C2117 C2123 1.429 . S
C2118 C2110 1.574 . S
C2118 H2113 0.949 . S
C2118 C2124 1.368 1_545 S
C2119 C2103 1.349 . S
C2119 H2111 0.950 . S
C2119 C2117 1.327 . S
C2120 C2108 1.349 . S
C2120 H2114 0.950 . S
C2120 C2121 1.327 . S
C2121 H2115 0.950 . S
C2121 C2120 1.327 . S
C2121 C2125 1.429 . S
C2122 C2105 1.574 . S
C2122 H2116 0.949 . S
C2122 C2126 1.368 1_565 S
C2123 C2104 1.429 . S
C2123 C2117 1.429 . S
C2123 C2124 1.523 . S
C2124 C2105 1.368 . S
C2124 C2118 1.368 1_565 S
C2124 C2123 1.523 . S
C2125 C2109 1.429 . S
C2125 C2121 1.429 . S
C2125 C2126 1.523 . S
C2126 C2110 1.368 . S
C2126 C2122 1.368 1_545 S
C2126 C2125 1.523 . S
H2127 C2102 0.950 . S
H2128 C2104 0.950 . S
H2129 C2105 0.949 . S
H2130 C2107 0.950 . S
H2131 C2109 0.950 . S
C2132 C2133 1.349 . S
C2132 C2134 1.327 . S
C2132 H2157 0.950 . S
C2133 C2132 1.349 . S
C2133 C2149 1.349 . S
C2134 C2132 1.327 . S
C2134 C2153 1.429 . S
C2134 H2158 0.950 1_455 S
C2135 C2152 1.574 . S
C2135 C2154 1.368 . S
C2135 H2159 0.949 . S
H2136 C2140 0.949 . S
C2137 C2138 1.349 . S
C2137 C2139 1.327 . S
C2137 H2160 0.950 . S
C2138 C2137 1.349 . S
C2138 C2150 1.349 . S
C2139 C2137 1.327 . S
C2139 C2155 1.429 . S
C2139 H2161 0.950 1_655 S
C2140 H2136 0.949 . S
C2140 C2148 1.574 . S
C2140 C2156 1.368 . S
H2141 C2149 0.950 . S
H2142 C2147 0.950 . S
H2143 C2148 0.949 . S
H2144 C2150 0.950 . S
H2145 C2151 0.950 . S
H2146 C2152 0.949 . S
C2147 H2142 0.950 . S
C2147 C2149 1.327 . S
C2147 C2153 1.429 . S
C2148 C2140 1.574 . S
C2148 H2143 0.949 . S
C2148 C2154 1.368 1_655 S
C2149 C2133 1.349 . S
C2149 H2141 0.950 . S
C2149 C2147 1.327 . S
C2150 C2138 1.349 . S
C2150 H2144 0.950 . S
C2150 C2151 1.327 . S
C2151 H2145 0.950 . S
C2151 C2150 1.327 . S
C2151 C2155 1.429 . S
C2152 C2135 1.574 . S
C2152 H2146 0.949 . S
C2152 C2156 1.368 1_455 S
C2153 C2134 1.429 . S
C2153 C2147 1.429 . S
C2153 C2154 1.523 . S
C2154 C2135 1.368 . S
C2154 C2148 1.368 1_455 S
C2154 C2153 1.523 . S
C2155 C2139 1.429 . S
C2155 C2151 1.429 . S
C2155 C2156 1.523 . S
C2156 C2140 1.368 . S
C2156 C2152 1.368 1_655 S
C2156 C2155 1.523 . S
H2157 C2132 0.950 . S
H2158 C2134 0.950 1_655 S
H2159 C2135 0.949 . S
H2160 C2137 0.950 . S
H2161 C2139 0.950 1_455 S
C2162 C2163 1.349 . S
C2162 C2164 1.327 . S
C2162 H2187 0.950 . S
C2163 C2162 1.349 . S
C2163 C2179 1.349 . S
C2164 C2162 1.327 . S
C2164 C2183 1.429 . S
C2164 H2188 0.950 . S
C2165 C2182 1.574 1_554 S
C2165 C2184 1.368 . S
C2165 H2189 0.949 . S
H2166 C2170 0.949 . S
C2167 C2168 1.349 . S
C2167 C2169 1.327 . S
C2167 H2190 0.950 . S
C2168 C2167 1.349 . S
C2168 C2180 1.349 . S
C2169 C2167 1.327 . S
C2169 C2185 1.429 . S
C2169 H2191 0.950 . S
C2170 H2166 0.949 . S
C2170 C2178 1.574 1_556 S
C2170 C2186 1.368 . S
H2171 C2179 0.950 . S
H2172 C2177 0.950 . S
H2173 C2178 0.949 . S
H2174 C2180 0.950 . S
H2175 C2181 0.950 . S
H2176 C2182 0.949 . S
C2177 H2172 0.950 . S
C2177 C2179 1.327 . S
C2177 C2183 1.429 . S
C2178 C2170 1.574 1_554 S
C2178 H2173 0.949 . S
C2178 C2184 1.368 . S
C2179 C2163 1.349 . S
C2179 H2171 0.950 . S
C2179 C2177 1.327 . S
C2180 C2168 1.349 . S
C2180 H2174 0.950 . S
C2180 C2181 1.327 . S
C2181 H2175 0.950 . S
C2181 C2180 1.327 . S
C2181 C2185 1.429 . S
C2182 C2165 1.574 1_556 S
C2182 H2176 0.949 . S
C2182 C2186 1.368 . S
C2183 C2164 1.429 . S
C2183 C2177 1.429 . S
C2183 C2184 1.523 . S
C2184 C2165 1.368 . S
C2184 C2178 1.368 . S
C2184 C2183 1.523 . S
C2185 C2169 1.429 . S
C2185 C2181 1.429 . S
C2185 C2186 1.523 . S
C2186 C2170 1.368 . S
C2186 C2182 1.368 . S
C2186 C2185 1.523 . S
H2187 C2162 0.950 . S
H2188 C2164 0.950 . S
H2189 C2165 0.949 . S
H2190 C2167 0.950 . S
H2191 C2169 0.950 . S
C2192 C2193 1.349 . S
C2192 C2194 1.326 1_455 S
C2192 H2217 0.950 1_455 S
C2193 C2192 1.349 . S
C2193 C2209 1.349 . S
C2194 C2192 1.326 1_655 S
C2194 C2213 1.426 1_655 S
C2194 H2218 0.953 . S
C2195 C2212 1.574 1_556 S
C2195 C2214 1.368 . S
C2195 H2219 0.949 . S
H2196 C2200 0.949 . S
C2197 C2198 1.349 . S
C2197 C2199 1.326 1_655 S
C2197 H2220 0.950 1_655 S
C2198 C2197 1.349 . S
C2198 C2210 1.349 . S
C2199 C2197 1.326 1_455 S
C2199 C2215 1.426 1_455 S
C2199 H2221 0.953 . S
C2200 H2196 0.949 . S
C2200 C2208 1.574 1_554 S
C2200 C2216 1.368 . S
H2201 C2209 0.950 . S
H2202 C2207 0.950 . S
H2203 C2208 0.949 . S
H2204 C2210 0.950 . S
H2205 C2211 0.950 . S
H2206 C2212 0.949 . S
C2207 H2202 0.950 . S
C2207 C2209 1.327 . S
C2207 C2213 1.429 . S
C2208 C2200 1.574 1_556 S
C2208 H2203 0.949 . S
C2208 C2214 1.368 1_655 S
C2209 C2193 1.349 . S
C2209 H2201 0.950 . S
C2209 C2207 1.327 . S
C2210 C2198 1.349 . S
C2210 H2204 0.950 . S
C2210 C2211 1.327 . S
C2211 H2205 0.950 . S
C2211 C2210 1.327 . S
C2211 C2215 1.429 . S
C2212 C2195 1.574 1_554 S
C2212 H2206 0.949 . S
C2212 C2216 1.368 1_455 S
C2213 C2194 1.426 1_455 S
C2213 C2207 1.429 . S
C2213 C2214 1.523 . S
C2214 C2195 1.368 . S
C2214 C2208 1.368 1_455 S
C2214 C2213 1.523 . S
C2215 C2199 1.426 1_655 S
C2215 C2211 1.429 . S
C2215 C2216 1.523 . S
C2216 C2200 1.368 . S
C2216 C2212 1.368 1_655 S
C2216 C2215 1.523 . S
H2217 C2192 0.950 1_655 S
H2218 C2194 0.953 . S
H2219 C2195 0.949 . S
H2220 C2197 0.950 1_455 S
H2221 C2199 0.953 . S
C2222 C2223 1.349 . S
C2222 C2224 1.327 . S
C2222 H2247 0.950 . S
C2223 C2222 1.349 . S
C2223 C2239 1.349 . S
C2224 C2222 1.327 . S
C2224 C2243 1.429 . S
C2224 H2248 0.950 . S
C2225 C2242 1.574 . S
C2225 C2244 1.368 . S
C2225 H2249 0.949 . S
H2226 C2230 0.949 . S
C2227 C2228 1.349 . S
C2227 C2229 1.327 . S
C2227 H2250 0.950 . S
C2228 C2227 1.349 . S
C2228 C2240 1.349 . S
C2229 C2227 1.327 . S
C2229 C2245 1.429 . S
C2229 H2251 0.950 . S
C2230 H2226 0.949 . S
C2230 C2238 1.574 . S
C2230 C2246 1.368 . S
H2231 C2239 0.950 . S
H2232 C2237 0.950 . S
H2233 C2238 0.949 . S
H2234 C2240 0.950 . S
H2235 C2241 0.950 . S
H2236 C2242 0.949 . S
C2237 H2232 0.950 . S
C2237 C2239 1.327 . S
C2237 C2243 1.429 . S
C2238 C2230 1.574 . S
C2238 H2233 0.949 . S
C2238 C2244 1.368 . S
C2239 C2223 1.349 . S
C2239 H2231 0.950 . S
C2239 C2237 1.327 . S
C2240 C2228 1.349 . S
C2240 H2234 0.950 . S
C2240 C2241 1.327 . S
C2241 H2235 0.950 . S
C2241 C2240 1.327 . S
C2241 C2245 1.429 . S
C2242 C2225 1.574 . S
C2242 H2236 0.949 . S
C2242 C2246 1.368 . S
C2243 C2224 1.429 . S
C2243 C2237 1.429 . S
C2243 C2244 1.523 . S
C2244 C2225 1.368 . S
C2244 C2238 1.368 . S
C2244 C2243 1.523 . S
C2245 C2229 1.429 . S
C2245 C2241 1.429 . S
C2245 C2246 1.523 . S
C2246 C2230 1.368 . S
C2246 C2242 1.368 . S
C2246 C2245 1.523 . S
H2247 C2222 0.950 . S
H2248 C2224 0.950 . S
H2249 C2225 0.949 . S
H2250 C2227 0.950 . S
H2251 C2229 0.950 . S
C2252 C2253 1.349 . S
C2252 C2254 1.327 . S
C2252 H2277 0.950 . S
C2253 C2252 1.349 . S
C2253 C2269 1.349 . S
C2254 C2252 1.327 . S
C2254 C2273 1.429 . S
C2254 H2278 0.950 . S
C2255 C2272 1.574 1_556 S
C2255 C2274 1.368 . S
C2255 H2279 0.949 . S
H2256 C2260 0.949 . S
C2257 C2258 1.349 . S
C2257 C2259 1.327 . S
C2257 H2280 0.950 . S
C2258 C2257 1.349 . S
C2258 C2270 1.349 . S
C2259 C2257 1.327 . S
C2259 C2275 1.429 . S
C2259 H2281 0.950 . S
C2260 H2256 0.949 . S
C2260 C2268 1.574 1_554 S
C2260 C2276 1.368 . S
H2261 C2269 0.950 . S
H2262 C2267 0.950 . S
H2263 C2268 0.949 . S
H2264 C2270 0.950 . S
H2265 C2271 0.950 . S
H2266 C2272 0.949 . S
C2267 H2262 0.950 . S
C2267 C2269 1.327 . S
C2267 C2273 1.429 . S
C2268 C2260 1.574 1_556 S
C2268 H2263 0.949 . S
C2268 C2274 1.368 . S
C2269 C2253 1.349 . S
C2269 H2261 0.950 . S
C2269 C2267 1.327 . S
C2270 C2258 1.349 . S
C2270 H2264 0.950 . S
C2270 C2271 1.327 . S
C2271 H2265 0.950 . S
C2271 C2270 1.327 . S
C2271 C2275 1.429 . S
C2272 C2255 1.574 1_554 S
C2272 H2266 0.949 . S
C2272 C2276 1.368 . S
C2273 C2254 1.429 . S
C2273 C2267 1.429 . S
C2273 C2274 1.523 . S
C2274 C2255 1.368 . S
C2274 C2268 1.368 . S
C2274 C2273 1.523 . S
C2275 C2259 1.429 . S
C2275 C2271 1.429 . S
C2275 C2276 1.523 . S
C2276 C2260 1.368 . S
C2276 C2272 1.368 . S
C2276 C2275 1.523 . S
H2277 C2252 0.950 . S
H2278 C2254 0.950 . S
H2279 C2255 0.949 . S
H2280 C2257 0.950 . S
H2281 C2259 0.950 . S
C2282 C2283 1.349 . S
C2282 C2284 1.327 . S
C2282 H2307 0.950 . S
C2283 C2282 1.349 . S
C2283 C2299 1.349 . S
C2284 C2282 1.327 . S
C2284 C2303 1.429 . S
C2284 H2308 0.950 . S
C2285 C2302 1.574 . S
C2285 C2304 1.368 . S
C2285 H2309 0.949 . S
H2286 C2290 0.949 . S
C2287 C2288 1.349 . S
C2287 C2289 1.327 . S
C2287 H2310 0.950 . S
C2288 C2287 1.349 . S
C2288 C2300 1.349 . S
C2289 C2287 1.327 . S
C2289 C2305 1.429 . S
C2289 H2311 0.950 . S
C2290 H2286 0.949 . S
C2290 C2298 1.574 . S
C2290 C2306 1.368 . S
H2291 C2299 0.950 . S
H2292 C2297 0.950 . S
H2293 C2298 0.949 . S
H2294 C2300 0.950 . S
H2295 C2301 0.950 . S
H2296 C2302 0.949 . S
C2297 H2292 0.950 . S
C2297 C2299 1.327 . S
C2297 C2303 1.429 . S
C2298 C2290 1.574 . S
C2298 H2293 0.949 . S
C2298 C2304 1.368 . S
C2299 C2283 1.349 . S
C2299 H2291 0.950 . S
C2299 C2297 1.327 . S
C2300 C2288 1.349 . S
C2300 H2294 0.950 . S
C2300 C2301 1.327 . S
C2301 H2295 0.950 . S
C2301 C2300 1.327 . S
C2301 C2305 1.429 . S
C2302 C2285 1.574 . S
C2302 H2296 0.949 . S
C2302 C2306 1.368 . S
C2303 C2284 1.429 . S
C2303 C2297 1.429 . S
C2303 C2304 1.523 . S
C2304 C2285 1.368 . S
C2304 C2298 1.368 . S
C2304 C2303 1.523 . S
C2305 C2289 1.429 . S
C2305 C2301 1.429 . S
C2305 C2306 1.523 . S
C2306 C2290 1.368 . S
C2306 C2302 1.368 . S
C2306 C2305 1.523 . S
H2307 C2282 0.950 . S
H2308 C2284 0.950 . S
H2309 C2285 0.949 . S
H2310 C2287 0.950 . S
H2311 C2289 0.950 . S
C2312 C2313 1.349 . S
C2312 C2314 1.327 . S
C2312 H2337 0.950 . S
C2313 C2312 1.349 . S
C2313 C2329 1.349 . S
C2314 C2312 1.327 . S
C2314 C2333 1.429 . S
C2314 H2338 0.950 1_545 S
C2315 C2332 1.477 1_556 S
C2315 C2334 1.435 . S
C2315 H2339 0.986 . S
H2316 C2320 0.986 . S
C2317 C2318 1.349 . S
C2317 C2319 1.327 . S
C2317 H2340 0.950 . S
C2318 C2317 1.349 . S
C2318 C2330 1.349 . S
C2319 C2317 1.327 . S
C2319 C2335 1.429 . S
C2319 H2341 0.950 1_565 S
C2320 H2316 0.986 . S
C2320 C2328 1.477 1_554 S
C2320 C2336 1.435 . S
H2321 C2329 0.950 . S
H2322 C2327 0.950 . S
H2323 C2328 0.949 . S
H2324 C2330 0.950 . S
H2325 C2331 0.950 . S
H2326 C2332 0.949 . S
C2327 H2322 0.950 . S
C2327 C2329 1.327 . S
C2327 C2333 1.429 . S
C2328 C2320 1.477 1_556 S
C2328 H2323 0.949 . S
C2328 C2334 1.368 1_565 S
C2329 C2313 1.349 . S
C2329 H2321 0.950 . S
C2329 C2327 1.327 . S
C2330 C2318 1.349 . S
C2330 H2324 0.950 . S
C2330 C2331 1.327 . S
C2331 H2325 0.950 . S
C2331 C2330 1.327 . S
C2331 C2335 1.429 . S
C2332 C2315 1.477 1_554 S
C2332 H2326 0.949 . S
C2332 C2336 1.368 1_545 S
C2333 C2314 1.429 . S
C2333 C2327 1.429 . S
C2333 C2334 1.523 . S
C2334 C2315 1.435 . S
C2334 C2328 1.368 1_545 S
C2334 C2333 1.523 . S
C2335 C2319 1.429 . S
C2335 C2331 1.429 . S
C2335 C2336 1.523 . S
C2336 C2320 1.435 . S
C2336 C2332 1.368 1_565 S
C2336 C2335 1.523 . S
H2337 C2312 0.950 . S
H2338 C2314 0.950 1_565 S
H2339 C2315 0.986 . S
H2340 C2317 0.950 . S
H2341 C2319 0.950 1_545 S
C2342 C2343 1.349 . S
C2342 C2344 1.327 . S
C2342 H2367 0.950 . S
C2343 C2342 1.349 . S
C2343 C2359 1.349 . S
C2344 C2342 1.327 . S
C2344 C2363 1.429 . S
C2344 H2368 0.950 . S
C2345 C2362 1.574 . S
C2345 C2364 1.368 . S
C2345 H2369 0.949 . S
H2346 C2350 0.949 . S
C2347 C2348 1.349 . S
C2347 C2349 1.327 . S
C2347 H2370 0.950 . S
C2348 C2347 1.349 . S
C2348 C2360 1.349 . S
C2349 C2347 1.327 . S
C2349 C2365 1.429 . S
C2349 H2371 0.950 . S
C2350 H2346 0.949 . S
C2350 C2358 1.574 . S
C2350 C2366 1.368 . S
H2351 C2359 0.950 . S
H2352 C2357 0.950 . S
H2353 C2358 0.949 . S
H2354 C2360 0.950 . S
H2355 C2361 0.950 . S
H2356 C2362 0.949 . S
C2357 H2352 0.950 . S
C2357 C2359 1.327 . S
C2357 C2363 1.429 . S
C2358 C2350 1.574 . S
C2358 H2353 0.949 . S
C2358 C2364 1.368 . S
C2359 C2343 1.349 . S
C2359 H2351 0.950 . S
C2359 C2357 1.327 . S
C2360 C2348 1.349 . S
C2360 H2354 0.950 . S
C2360 C2361 1.327 . S
C2361 H2355 0.950 . S
C2361 C2360 1.327 . S
C2361 C2365 1.429 . S
C2362 C2345 1.574 . S
C2362 H2356 0.949 . S
C2362 C2366 1.368 . S
C2363 C2344 1.429 . S
C2363 C2357 1.429 . S
C2363 C2364 1.523 . S
C2364 C2345 1.368 . S
C2364 C2358 1.368 . S
C2364 C2363 1.523 . S
C2365 C2349 1.429 . S
C2365 C2361 1.429 . S
C2365 C2366 1.523 . S
C2366 C2350 1.368 . S
C2366 C2362 1.368 . S
C2366 C2365 1.523 . S
H2367 C2342 0.950 . S
H2368 C2344 0.950 . S
H2369 C2345 0.949 . S
H2370 C2347 0.950 . S
H2371 C2349 0.950 . S
C2372 C2373 1.349 . S
C2372 C2374 1.327 . S
C2372 H2397 0.950 . S
C2373 C2372 1.349 . S
C2373 C2389 1.349 . S
C2374 C2372 1.327 . S
C2374 C2393 1.429 . S
C2374 H2398 0.950 . S
C2375 C2392 1.574 . S
C2375 C2394 1.368 . S
C2375 H2399 0.949 . S
H2376 C2380 0.949 . S
C2377 C2378 1.349 . S
C2377 C2379 1.327 . S
C2377 H2400 0.950 . S
C2378 C2377 1.349 . S
C2378 C2390 1.349 . S
C2379 C2377 1.327 . S
C2379 C2395 1.429 . S
C2379 H2401 0.950 . S
C2380 H2376 0.949 . S
C2380 C2388 1.574 . S
C2380 C2396 1.368 . S
H2381 C2389 0.950 . S
H2382 C2387 0.950 . S
H2383 C2388 0.949 . S
H2384 C2390 0.950 . S
H2385 C2391 0.950 . S
H2386 C2392 0.949 . S
C2387 H2382 0.950 . S
C2387 C2389 1.327 . S
C2387 C2393 1.429 . S
C2388 C2380 1.574 . S
C2388 H2383 0.949 . S
C2388 C2394 1.368 . S
C2389 C2373 1.349 . S
C2389 H2381 0.950 . S
C2389 C2387 1.327 . S
C2390 C2378 1.349 . S
C2390 H2384 0.950 . S
C2390 C2391 1.327 . S
C2391 H2385 0.950 . S
C2391 C2390 1.327 . S
C2391 C2395 1.429 . S
C2392 C2375 1.574 . S
C2392 H2386 0.949 . S
C2392 C2396 1.368 . S
C2393 C2374 1.429 . S
C2393 C2387 1.429 . S
C2393 C2394 1.523 . S
C2394 C2375 1.368 . S
C2394 C2388 1.368 . S
C2394 C2393 1.523 . S
C2395 C2379 1.429 . S
C2395 C2391 1.429 . S
C2395 C2396 1.523 . S
C2396 C2380 1.368 . S
C2396 C2392 1.368 . S
C2396 C2395 1.523 . S
H2397 C2372 0.950 . S
H2398 C2374 0.950 . S
H2399 C2375 0.949 . S
H2400 C2377 0.950 . S
H2401 C2379 0.950 . S
C2402 C2403 1.349 . S
C2402 C2404 1.327 . S
C2402 H2427 0.950 . S
C2403 C2402 1.349 . S
C2403 C2419 1.349 . S
C2404 C2402 1.327 . S
C2404 C2423 1.429 . S
C2404 H2428 0.950 . S
C2405 C2422 1.574 . S
C2405 C2424 1.368 . S
C2405 H2429 0.949 . S
H2406 C2410 0.949 . S
C2407 C2408 1.349 . S
C2407 C2409 1.327 . S
C2407 H2430 0.950 . S
C2408 C2407 1.349 . S
C2408 C2420 1.349 . S
C2409 C2407 1.327 . S
C2409 C2425 1.429 . S
C2409 H2431 0.950 . S
C2410 H2406 0.949 . S
C2410 C2418 1.574 . S
C2410 C2426 1.368 . S
H2411 C2419 0.950 . S
H2412 C2417 0.950 . S
H2413 C2418 0.949 . S
H2414 C2420 0.950 . S
H2415 C2421 0.950 . S
H2416 C2422 0.949 . S
C2417 H2412 0.950 . S
C2417 C2419 1.327 . S
C2417 C2423 1.429 . S
C2418 C2410 1.574 . S
C2418 H2413 0.949 . S
C2418 C2424 1.368 . S
C2419 C2403 1.349 . S
C2419 H2411 0.950 . S
C2419 C2417 1.327 . S
C2420 C2408 1.349 . S
C2420 H2414 0.950 . S
C2420 C2421 1.327 . S
C2421 H2415 0.950 . S
C2421 C2420 1.327 . S
C2421 C2425 1.429 . S
C2422 C2405 1.574 . S
C2422 H2416 0.949 . S
C2422 C2426 1.368 . S
C2423 C2404 1.429 . S
C2423 C2417 1.429 . S
C2423 C2424 1.523 . S
C2424 C2405 1.368 . S
C2424 C2418 1.368 . S
C2424 C2423 1.523 . S
C2425 C2409 1.429 . S
C2425 C2421 1.429 . S
C2425 C2426 1.523 . S
C2426 C2410 1.368 . S
C2426 C2422 1.368 . S
C2426 C2425 1.523 . S
H2427 C2402 0.950 . S
H2428 C2404 0.950 . S
H2429 C2405 0.949 . S
H2430 C2407 0.950 . S
H2431 C2409 0.950 . S
C513 C16 0.756 . S
C518 C404 0.756 . S
C543 C20 0.756 . S
C548 C400 0.756 . S
C573 C48 0.756 . S
C578 C436 0.756 . S
C603 C52 0.756 . S
C608 C432 0.756 . S
C633 C464 0.756 . S
C638 C84 0.756 . S
C663 C80 0.756 . S
C668 C468 0.756 . S
C693 C116 0.755 . S
C698 C496 0.755 . S
C723 C112 0.756 . S
C728 C500 0.756 . S
C753 C276 0.756 . S
C758 C144 0.756 . S
C783 C272 0.756 . S
C788 C148 0.756 . S
C813 C308 0.756 . S
C818 C176 0.756 . S
C843 C304 0.756 . S
C848 C180 0.756 . S
C873 C336 0.756 . S
C878 C212 0.756 . S
C903 C208 0.755 . S
C908 C340 0.755 . S
C933 C368 0.756 . S
C938 C244 0.756 . S
C963 C240 0.756 . S
C968 C372 0.756 . S
C993 C23 1.446 . S
C998 C403 1.446 . S
C1023 C19 1.446 . S
C1028 C407 1.446 . S
C1053 C55 1.446 . S
C1058 C435 1.446 . S
C1083 C439 1.446 . S
C1088 C51 1.446 . S
C1113 C471 1.446 . S
C1118 C83 1.446 . S
C1143 C467 1.446 . S
C1148 C87 1.446 . S
C1173 C503 1.447 . S
C1178 C115 1.447 . S
C1203 C499 1.446 . S
C1208 C119 1.446 . S
C1233 C151 1.446 . S
C1238 C275 1.446 . S
C1263 C147 1.446 . S
C1268 C279 1.446 . S
C1293 C183 1.446 . S
C1298 C307 1.446 . S
C1323 C179 1.446 . S
C1328 C311 1.446 . S
C1353 C343 1.446 . S
C1358 C211 1.446 . S
C1383 C339 1.447 . S
C1388 C215 1.447 . S
C1413 C375 1.446 . S
C1418 C243 1.446 . S
C1443 C247 1.446 . S
C1448 C371 1.446 . S
C1473 C22 2.027 . S
C1478 C305 1.994 . S
C1503 C310 2.027 . S
C1508 C17 1.993 . S
C1533 C273 1.994 . S
C1538 C54 2.027 . S
C1563 C278 2.027 . S
C1568 C49 1.994 . S
C1593 C373 1.994 . S
C1598 C82 2.027 . S
C1623 C85 1.994 . S
C1628 C370 2.027 . S
C1653 C114 2.027 . S
C1658 C341 1.994 . S
C1683 C117 1.994 . S
C1688 C338 2.027 . S
C1713 C433 1.994 . S
C1718 C150 2.027 . S
C1743 C145 1.993 . S
C1748 C438 2.027 . S
C1773 C182 2.027 . S
C1778 C401 1.994 . S
C1803 C406 2.027 . S
C1808 C177 1.994 . S
C1833 C501 1.994 . S
C1838 C210 2.027 . S
C1863 C498 2.027 . S
C1868 C213 1.993 . S
C1893 C469 1.993 . S
C1898 C242 2.027 . S
C1923 C466 2.027 . S
C1928 C245 1.994 . S
C1953 C465 1.645 . S
C1958 C21 1.645 . S
C1983 C86 1.865 . S
C1988 C18 1.865 . S
C2013 C369 1.645 . S
C2018 C53 1.645 . S
C2043 C50 1.865 . S
C2048 C246 1.865 . S
C2073 C405 1.645 . S
C2078 C81 1.645 . S
C2103 C113 1.645 . S
C2108 C309 1.645 . S
C2133 C178 1.865 . S
C2138 C118 1.865 . S
C2163 C337 1.645 . S
C2168 C149 1.645 . S
C2193 C146 1.865 . S
C2198 C214 1.865 . S
C2223 C181 1.645 . S
C2228 C497 1.645 . S
C2253 C277 1.645 . S
C2258 C209 1.645 . S
C2283 C437 1.645 . S
C2288 C241 1.645 . S
C2313 C274 1.865 . S
C2318 C342 1.865 . S
C2343 C306 1.865 . S
C2348 C502 1.865 . S
C2373 C434 1.865 . S
C2378 C374 1.865 . S
C2403 C470 1.865 . S
C2408 C402 1.865 . S
