# Generated by pormake.
# Topology unb, (4)-cn, num edge types: 1
# Building blocks:
#     Node 0, Type 0, BuildingBlock: AZAVOO_clean_sbu_0, # of connection points: 4
#     Node 1, Type 0, BuildingBlock: AZAVOO_clean_sbu_0, # of connection points: 4
#     Node 2, Type 0, BuildingBlock: AZAVOO_clean_sbu_0, # of connection points: 4
#     Node 3, Type 0, BuildingBlock: AZAVOO_clean_sbu_0, # of connection points: 4
#     Node 4, Type 0, BuildingBlock: AZAVOO_clean_sbu_0, # of connection points: 4
#     Node 5, Type 0, BuildingBlock: AZAVOO_clean_sbu_0, # of connection points: 4
#     Node 6, Type 0, BuildingBlock: AZAVOO_clean_sbu_0, # of connection points: 4
#     Node 7, Type 0, BuildingBlock: AZAVOO_clean_sbu_0, # of connection points: 4
#     Node 8, Type 0, BuildingBlock: AZAVOO_clean_sbu_0, # of connection points: 4
#     Node 9, Type 0, BuildingBlock: AZAVOO_clean_sbu_0, # of connection points: 4
#     Node 10, Type 0, BuildingBlock: AZAVOO_clean_sbu_0, # of connection points: 4
#     Node 11, Type 0, BuildingBlock: AZAVOO_clean_sbu_0, # of connection points: 4
#     Node 12, Type 0, BuildingBlock: AZAVOO_clean_sbu_0, # of connection points: 4
#     Node 13, Type 0, BuildingBlock: AZAVOO_clean_sbu_0, # of connection points: 4
#     Node 14, Type 0, BuildingBlock: AZAVOO_clean_sbu_0, # of connection points: 4
#     Node 15, Type 0, BuildingBlock: AZAVOO_clean_sbu_0, # of connection points: 4
#     Node 16, Type 0, BuildingBlock: AZAVOO_clean_sbu_0, # of connection points: 4
#     Node 17, Type 0, BuildingBlock: AZAVOO_clean_sbu_0, # of connection points: 4
#     Edge 18, Type (0, 0), BuildingBlock: EZIPEK_clean_linker_0, # of connection points: 2
#     Edge 19, Type (0, 0), BuildingBlock: EZIPEK_clean_linker_0, # of connection points: 2
#     Edge 20, Type (0, 0), BuildingBlock: EZIPEK_clean_linker_0, # of connection points: 2
#     Edge 21, Type (0, 0), BuildingBlock: EZIPEK_clean_linker_0, # of connection points: 2
#     Edge 22, Type (0, 0), BuildingBlock: EZIPEK_clean_linker_0, # of connection points: 2
#     Edge 23, Type (0, 0), BuildingBlock: EZIPEK_clean_linker_0, # of connection points: 2
#     Edge 24, Type (0, 0), BuildingBlock: EZIPEK_clean_linker_0, # of connection points: 2
#     Edge 25, Type (0, 0), BuildingBlock: EZIPEK_clean_linker_0, # of connection points: 2
#     Edge 26, Type (0, 0), BuildingBlock: EZIPEK_clean_linker_0, # of connection points: 2
#     Edge 27, Type (0, 0), BuildingBlock: EZIPEK_clean_linker_0, # of connection points: 2
#     Edge 28, Type (0, 0), BuildingBlock: EZIPEK_clean_linker_0, # of connection points: 2
#     Edge 29, Type (0, 0), BuildingBlock: EZIPEK_clean_linker_0, # of connection points: 2
#     Edge 30, Type (0, 0), BuildingBlock: EZIPEK_clean_linker_0, # of connection points: 2
#     Edge 31, Type (0, 0), BuildingBlock: EZIPEK_clean_linker_0, # of connection points: 2
#     Edge 32, Type (0, 0), BuildingBlock: EZIPEK_clean_linker_0, # of connection points: 2
#     Edge 33, Type (0, 0), BuildingBlock: EZIPEK_clean_linker_0, # of connection points: 2
#     Edge 34, Type (0, 0), BuildingBlock: EZIPEK_clean_linker_0, # of connection points: 2
#     Edge 35, Type (0, 0), BuildingBlock: EZIPEK_clean_linker_0, # of connection points: 2
#     Edge 36, Type (0, 0), BuildingBlock: EZIPEK_clean_linker_0, # of connection points: 2
#     Edge 37, Type (0, 0), BuildingBlock: EZIPEK_clean_linker_0, # of connection points: 2
#     Edge 38, Type (0, 0), BuildingBlock: EZIPEK_clean_linker_0, # of connection points: 2
#     Edge 39, Type (0, 0), BuildingBlock: EZIPEK_clean_linker_0, # of connection points: 2
#     Edge 40, Type (0, 0), BuildingBlock: EZIPEK_clean_linker_0, # of connection points: 2
#     Edge 41, Type (0, 0), BuildingBlock: EZIPEK_clean_linker_0, # of connection points: 2
#     Edge 42, Type (0, 0), BuildingBlock: EZIPEK_clean_linker_0, # of connection points: 2
#     Edge 43, Type (0, 0), BuildingBlock: EZIPEK_clean_linker_0, # of connection points: 2
#     Edge 44, Type (0, 0), BuildingBlock: EZIPEK_clean_linker_0, # of connection points: 2
#     Edge 45, Type (0, 0), BuildingBlock: EZIPEK_clean_linker_0, # of connection points: 2
#     Edge 46, Type (0, 0), BuildingBlock: EZIPEK_clean_linker_0, # of connection points: 2
#     Edge 47, Type (0, 0), BuildingBlock: EZIPEK_clean_linker_0, # of connection points: 2
#     Edge 48, Type (0, 0), BuildingBlock: EZIPEK_clean_linker_0, # of connection points: 2
#     Edge 49, Type (0, 0), BuildingBlock: EZIPEK_clean_linker_0, # of connection points: 2
#     Edge 50, Type (0, 0), BuildingBlock: EZIPEK_clean_linker_0, # of connection points: 2
#     Edge 51, Type (0, 0), BuildingBlock: EZIPEK_clean_linker_0, # of connection points: 2
#     Edge 52, Type (0, 0), BuildingBlock: EZIPEK_clean_linker_0, # of connection points: 2
#     Edge 53, Type (0, 0), BuildingBlock: EZIPEK_clean_linker_0, # of connection points: 2
# Relax obj value: 0.011
# Max RMSD: 0.021
# Mean RMSD: 0.021
data_MOF--net-unb--node1-AZAVOO_clean_sbu_0--edge1-EZIPEK_clean_linker_0
_symmetry_space_group_name_H-M    P1
_symmetry_Int_Tables_number       1
_symmetry_cell_setting            triclinic
loop_
_symmetry_equiv_pos_as_xyz
'x, y, z'
_cell_length_a     50.960373
_cell_length_b     50.915792
_cell_length_c     17.264946
_cell_angle_alpha  89.99215
_cell_angle_beta   90.044782
_cell_angle_gamma 120.17347
loop_
_atom_site_label
_atom_site_type_symbol
_atom_site_fract_x
_atom_site_fract_y
_atom_site_fract_z
_atom_type_partial_charge
Mg0 Mg 0.11378 0.24052 0.07599 0.0
O1 O 0.1218 0.27196 0.97108 0.0
O2 O 0.09086 0.29089 0.98787 0.0
Mg3 Mg 0.06055 0.26864 0.094 0.0
C4 C 0.11157 0.28926 0.95037 0.0
C5 C 0.17322 0.23901 0.10462 0.0
O6 O 0.1696 0.24667 0.17477 0.0
O7 O 0.13839 0.2816 0.15436 0.0
O8 O 0.10197 0.2934 0.17391 0.0
O9 O 0.07738 0.19951 0.01593 0.0
O10 O 0.06955 0.23112 0.08646 0.0
C11 C 0.128 0.29663 0.18882 0.0
C12 C 0.05866 0.20725 0.0438 0.0
O13 O 0.15603 0.23809 0.05017 0.0
Mg14 Mg 0.74964 0.87525 0.10317 0.0
O15 O 0.7138 0.8455 0.01386 0.0
O16 O 0.69524 0.79687 0.04747 0.0
Mg17 Mg 0.72295 0.79621 0.1523 0.0
C18 C 0.69581 0.81717 0.00301 0.0
C19 C 0.77318 0.94041 0.07173 0.0
O20 O 0.79448 0.93883 0.11076 0.0
O21 O 0.71355 0.8646 0.19505 0.0
O22 O 0.70134 0.81722 0.22782 0.0
O23 O 0.78556 0.87588 0.02964 0.0
O24 O 0.76133 0.84168 0.12113 0.0
C25 C 0.6991 0.84089 0.23678 0.0
C26 C 0.78135 0.85193 0.06646 0.0
O27 O 0.74795 0.91636 0.06041 0.0
Mg28 Mg 0.12882 0.89069 0.05334 0.0
O29 O 0.15414 0.88157 0.9573 0.0
O30 O 0.20232 0.90139 0.99492 0.0
Mg31 Mg 0.20919 0.92932 0.10529 0.0
C32 C 0.18093 0.88626 0.94662 0.0
C33 C 0.06088 0.85431 0.02718 0.0
O34 O 0.06375 0.87375 0.08116 0.0
O35 O 0.13225 0.85756 0.13587 0.0
O36 O 0.18083 0.88527 0.17367 0.0
O37 O 0.13679 0.93262 0.99339 0.0
O38 O 0.16791 0.93129 0.0806 0.0
C39 C 0.15451 0.86165 0.17834 0.0
C40 C 0.16192 0.94677 0.03212 0.0
O41 O 0.08423 0.8539 0.00365 0.0
Mg42 Mg 0.25362 0.13228 0.95489 0.0
O43 O 0.29067 0.13915 0.04575 0.0
O44 O 0.30845 0.10807 0.01785 0.0
Mg45 Mg 0.29143 0.09116 0.89812 0.0
C46 C 0.30718 0.12745 0.0622 0.0
C47 C 0.22413 0.16714 0.0078 0.0
O48 O 0.20177 0.14077 0.98441 0.0
O49 O 0.28489 0.16064 0.85532 0.0
O50 O 0.31436 0.14258 0.88558 0.0
O51 O 0.22059 0.09186 0.02216 0.0
O52 O 0.24828 0.08989 0.92617 0.0
C53 C 0.30711 0.15704 0.83872 0.0
C54 C 0.2286 0.07602 0.97996 0.0
O55 O 0.25111 0.17213 0.00461 0.0
Mg56 Mg 0.87732 0.1253 0.93468 0.0
O57 O 0.8641 0.14674 0.03406 0.0
O58 O 0.89834 0.19628 0.04016 0.0
Mg59 Mg 0.93204 0.20675 0.94236 0.0
C60 C 0.87449 0.17291 0.06477 0.0
C61 C 0.83504 0.0585 0.94571 0.0
O62 O 0.86096 0.06152 0.92256 0.0
O63 O 0.85947 0.14435 0.84304 0.0
O64 O 0.8934 0.1936 0.85575 0.0
O65 O 0.90949 0.11922 0.01062 0.0
O66 O 0.9222 0.15961 0.93757 0.0
C67 C 0.87004 0.17199 0.82289 0.0
C68 C 0.93011 0.14556 0.98539 0.0
O69 O 0.83244 0.08192 0.95133 0.0
Mg70 Mg 0.87326 0.76904 0.90083 0.0
O71 O 0.85457 0.7309 0.9919 0.0
O72 O 0.80413 0.7106 0.99642 0.0
Mg73 Mg 0.791 0.73631 0.91193 0.0
C74 C 0.82853 0.7119 0.01915 0.0
C75 C 0.9405 0.79852 0.90769 0.0
O76 O 0.93485 0.82062 0.89469 0.0
O77 O 0.8559 0.73488 0.80038 0.0
O78 O 0.80632 0.71661 0.81546 0.0
O79 O 0.87771 0.80249 0.99144 0.0
O80 O 0.83697 0.77636 0.91856 0.0
C81 C 0.82845 0.71715 0.77949 0.0
C82 C 0.85051 0.796 0.9728 0.0
O83 O 0.91869 0.77127 0.90754 0.0
Mg84 Mg 0.77972 0.57971 0.40512 0.0
O85 O 0.79701 0.61513 0.30746 0.0
O86 O 0.76533 0.63341 0.29816 0.0
Mg87 Mg 0.72812 0.60949 0.388 0.0
C88 C 0.78876 0.63255 0.27642 0.0
C89 C 0.81859 0.55213 0.40421 0.0
O90 O 0.79074 0.53027 0.41841 0.0
O91 O 0.79684 0.61634 0.4993 0.0
O92 O 0.7646 0.63315 0.48037 0.0
O93 O 0.75025 0.54349 0.32078 0.0
O94 O 0.73504 0.56998 0.38951 0.0
C95 C 0.7869 0.63415 0.5167 0.0
C96 C 0.72886 0.54895 0.33917 0.0
O97 O 0.82385 0.57919 0.3989 0.0
Mg98 Mg 0.43562 0.20785 0.46086 0.0
O99 O 0.40236 0.18512 0.35831 0.0
O100 O 0.38099 0.13502 0.37319 0.0
Mg101 Mg 0.40185 0.12544 0.47674 0.0
C102 C 0.38382 0.15799 0.33633 0.0
C103 C 0.44726 0.26245 0.3649 0.0
O104 O 0.45033 0.24494 0.3143 0.0
O105 O 0.39714 0.19432 0.54681 0.0
O106 O 0.37734 0.14427 0.54789 0.0
O107 O 0.47275 0.20929 0.39122 0.0
O108 O 0.44211 0.17093 0.46728 0.0
C109 C 0.37731 0.16803 0.57092 0.0
C110 C 0.46367 0.18218 0.41701 0.0
O111 O 0.43871 0.25281 0.43334 0.0
Mg112 Mg 0.77731 0.21047 0.4404 0.0
O113 O 0.80195 0.19996 0.34374 0.0
O114 O 0.85025 0.23749 0.33849 0.0
Mg115 Mg 0.8571 0.27063 0.43534 0.0
C116 C 0.82841 0.21241 0.31383 0.0
C117 C 0.71208 0.1635 0.4191 0.0
O118 O 0.71196 0.1885 0.43702 0.0
O119 O 0.79843 0.1958 0.53467 0.0
O120 O 0.84653 0.23299 0.5231 0.0
O121 O 0.76849 0.24018 0.36154 0.0
O122 O 0.80877 0.25645 0.4372 0.0
C123 C 0.82618 0.20878 0.55593 0.0
C124 C 0.79392 0.26237 0.38699 0.0
O125 O 0.73689 0.16339 0.42151 0.0
Mg126 Mg 0.88936 0.44112 0.24921 0.0
O127 O 0.92345 0.45558 0.35129 0.0
O128 O 0.93933 0.42197 0.36056 0.0
Mg129 Mg 0.91616 0.38666 0.26584 0.0
C130 C 0.93955 0.44587 0.38331 0.0
C131 C 0.88016 0.4894 0.32353 0.0
O132 O 0.87481 0.46996 0.37972 0.0
O133 O 0.92729 0.45836 0.16 0.0
O134 O 0.94192 0.42416 0.17655 0.0
O135 O 0.84973 0.40912 0.32227 0.0
O136 O 0.87892 0.39631 0.25721 0.0
C137 C 0.94411 0.44735 0.14184 0.0
C138 C 0.85605 0.38847 0.30189 0.0
O139 O 0.88997 0.48586 0.25902 0.0
Mg140 Mg 0.54577 0.45049 0.22538 0.0
O141 O 0.53615 0.47724 0.31598 0.0
O142 O 0.56169 0.52636 0.28291 0.0
Mg143 Mg 0.59073 0.53073 0.17611 0.0
C144 C 0.54366 0.50487 0.32764 0.0
C145 C 0.50596 0.38341 0.24765 0.0
O146 O 0.52748 0.3861 0.20087 0.0
O147 O 0.51679 0.45691 0.1356 0.0
O148 O 0.54758 0.50557 0.10272 0.0
O149 O 0.58389 0.45473 0.29693 0.0
O150 O 0.58934 0.48763 0.2058 0.0
C151 C 0.52314 0.48013 0.09442 0.0
C152 C 0.60145 0.47952 0.2596 0.0
O153 O 0.50553 0.40703 0.2687 0.0
Mg154 Mg 0.53543 0.07988 0.24544 0.0
O155 O 0.50682 0.04353 0.33564 0.0
O156 O 0.45917 0.0342 0.32622 0.0
Mg157 Mg 0.45644 0.06163 0.2246 0.0
C158 C 0.4793 0.02998 0.35857 0.0
C159 C 0.59968 0.09979 0.27225 0.0
O160 O 0.59849 0.12311 0.24392 0.0
O161 O 0.51755 0.04407 0.15109 0.0
O162 O 0.47019 0.03608 0.13884 0.0
O163 O 0.54185 0.11692 0.32584 0.0
O164 O 0.50431 0.09488 0.24131 0.0
C165 C 0.49151 0.03122 0.11859 0.0
C166 C 0.51712 0.11401 0.29671 0.0
O167 O 0.57552 0.07413 0.27519 0.0
Mg168 Mg 0.4319 0.8972 0.74106 0.0
O169 O 0.44158 0.93071 0.64138 0.0
O170 O 0.41019 0.94925 0.65486 0.0
Mg171 Mg 0.37898 0.92568 0.75837 0.0
C172 C 0.43161 0.94808 0.61974 0.0
C173 C 0.47346 0.87204 0.73189 0.0
O174 O 0.44871 0.85075 0.76532 0.0
O175 O 0.45498 0.93605 0.82638 0.0
O176 O 0.41983 0.94986 0.84099 0.0
O177 O 0.39739 0.85869 0.67053 0.0
O178 O 0.38747 0.88776 0.7459 0.0
C179 C 0.44516 0.95195 0.85873 0.0
C180 C 0.37803 0.86594 0.69649 0.0
O181 O 0.47548 0.89731 0.71604 0.0
Mg182 Mg 0.07761 0.53369 0.76001 0.0
O183 O 0.04189 0.51416 0.6614 0.0
O184 O 0.02444 0.46419 0.65419 0.0
Mg185 Mg 0.04794 0.45158 0.74655 0.0
C186 C 0.02479 0.48811 0.63098 0.0
C187 C 0.08835 0.59205 0.68641 0.0
O188 O 0.09252 0.57743 0.62949 0.0
O189 O 0.04109 0.51461 0.85328 0.0
O190 O 0.02479 0.46524 0.83841 0.0
O191 O 0.11531 0.53935 0.68215 0.0
O192 O 0.08623 0.49815 0.75079 0.0
C193 C 0.02391 0.48693 0.87321 0.0
C194 C 0.10842 0.51227 0.70357 0.0
O195 O 0.07884 0.57885 0.75127 0.0
Mg196 Mg 0.44833 0.5346 0.71201 0.0
O197 O 0.47682 0.52808 0.61997 0.0
O198 O 0.52576 0.55681 0.65265 0.0
Mg199 Mg 0.52826 0.58462 0.76025 0.0
C200 C 0.50492 0.53782 0.60783 0.0
C201 C 0.3844 0.49601 0.65209 0.0
O202 O 0.38785 0.52329 0.65773 0.0
O203 O 0.45808 0.50743 0.8005 0.0
O204 O 0.50612 0.54107 0.83278 0.0
O205 O 0.44977 0.57244 0.64284 0.0
O206 O 0.48334 0.57898 0.73292 0.0
C207 C 0.48184 0.51549 0.84109 0.0
C208 C 0.47406 0.59067 0.6811 0.0
O209 O 0.40629 0.49201 0.66982 0.0
Mg210 Mg 0.56799 0.77757 0.61835 0.0
O211 O 0.60306 0.78586 0.71233 0.0
O212 O 0.62512 0.7588 0.68108 0.0
Mg213 Mg 0.60113 0.73053 0.57276 0.0
C214 C 0.62226 0.77728 0.72535 0.0
C215 C 0.54038 0.81621 0.63691 0.0
O216 O 0.52224 0.79376 0.59101 0.0
O217 O 0.60508 0.80612 0.53129 0.0
O218 O 0.62146 0.77408 0.49988 0.0
O219 O 0.5319 0.73921 0.68602 0.0
O220 O 0.56047 0.73397 0.59805 0.0
C221 C 0.62169 0.7991 0.49129 0.0
C222 C 0.539 0.72163 0.64861 0.0
O223 O 0.565 0.81815 0.65923 0.0
Mg224 Mg 0.19765 0.77948 0.5656 0.0
O225 O 0.19579 0.81111 0.65778 0.0
O226 O 0.22732 0.8588 0.61976 0.0
Mg227 Mg 0.2531 0.85767 0.5124 0.0
C228 C 0.20797 0.83978 0.66752 0.0
C229 C 0.15135 0.71445 0.59068 0.0
O230 O 0.17144 0.71442 0.54316 0.0
O231 O 0.1724 0.7918 0.47689 0.0
O232 O 0.20941 0.83803 0.44072 0.0
O233 O 0.2333 0.77734 0.63436 0.0
O234 O 0.24263 0.81164 0.54348 0.0
C235 C 0.18258 0.81534 0.43405 0.0
C236 C 0.25261 0.80172 0.59799 0.0
O237 O 0.15412 0.73962 0.61141 0.0
Mg238 Mg 0.20282 0.42627 0.57506 0.0
O239 O 0.17859 0.38948 0.66917 0.0
O240 O 0.12877 0.3711 0.65367 0.0
Mg241 Mg 0.1209 0.39492 0.55107 0.0
C242 C 0.15103 0.37162 0.6892 0.0
C243 C 0.26235 0.42045 0.5599 0.0
O244 O 0.24933 0.40365 0.49854 0.0
O245 O 0.18982 0.38972 0.48457 0.0
O246 O 0.1405 0.3742 0.4667 0.0
O247 O 0.2032 0.46243 0.64894 0.0
O248 O 0.16647 0.43364 0.5671 0.0
C249 C 0.16463 0.37366 0.44971 0.0
C250 C 0.17719 0.45488 0.61802 0.0
O251 O 0.24825 0.42995 0.60138 0.0
C252 C 0.16762 0.36854 0.30764 0.0
C253 C 0.16352 0.35552 0.38227 0.0
C254 C 0.14665 0.30556 0.32536 0.0
C255 C 0.14565 0.31764 0.25189 0.0
N256 N 0.15605 0.36019 0.17043 0.0
N257 N 0.15145 0.31296 0.46497 0.0
C258 C 0.15689 0.34916 0.24205 0.0
C259 C 0.15426 0.32447 0.3919 0.0
N260 N 0.18166 0.39943 0.30005 0.0
N261 N 0.13966 0.27596 0.33149 0.0
H262 H 0.15849 0.32673 0.51419 0.0
H263 H 0.14136 0.28992 0.47755 0.0
H264 H 0.13287 0.26113 0.2845 0.0
H265 H 0.1425 0.26645 0.38187 0.0
H266 H 0.18774 0.4107 0.24711 0.0
H267 H 0.18961 0.41411 0.34749 0.0
H268 H 0.16042 0.38218 0.16035 0.0
H269 H 0.14968 0.34674 0.1207 0.0
C270 C 0.62826 0.81487 0.35263 0.0
C271 C 0.64061 0.81931 0.42833 0.0
C272 C 0.69215 0.84769 0.37678 0.0
C273 C 0.67985 0.84054 0.30091 0.0
N274 N 0.63768 0.82579 0.2149 0.0
N275 N 0.68252 0.84685 0.51508 0.0
C276 C 0.64826 0.82711 0.28839 0.0
C277 C 0.6721 0.83828 0.44119 0.0
N278 N 0.59756 0.79755 0.34239 0.0
N279 N 0.72291 0.86204 0.38676 0.0
H280 H 0.66782 0.84042 0.5624 0.0
H281 H 0.70502 0.8622 0.52902 0.0
H282 H 0.73804 0.87034 0.34031 0.0
H283 H 0.73346 0.865 0.44024 0.0
H284 H 0.5871 0.79045 0.28862 0.0
H285 H 0.58239 0.78942 0.38876 0.0
H286 H 0.61506 0.81808 0.20148 0.0
H287 H 0.65226 0.83495 0.16757 0.0
C288 C 0.14774 0.83162 0.3806 0.0
C289 C 0.16403 0.81621 0.36964 0.0
C290 C 0.16019 0.81911 0.2289 0.0
C291 C 0.14978 0.83984 0.24046 0.0
N292 N 0.1297 0.86338 0.3238 0.0
N293 N 0.1825 0.79121 0.28629 0.0
C294 C 0.14159 0.84473 0.31534 0.0
C295 C 0.16859 0.80805 0.29441 0.0
N296 N 0.13894 0.83415 0.45366 0.0
N297 N 0.16249 0.81074 0.15515 0.0
H298 H 0.18762 0.78184 0.33368 0.0
H299 H 0.1895 0.78692 0.23359 0.0
H300 H 0.15622 0.81874 0.10694 0.0
H301 H 0.16831 0.79441 0.14168 0.0
H302 H 0.12545 0.84356 0.46628 0.0
H303 H 0.14341 0.82455 0.50171 0.0
H304 H 0.12609 0.87066 0.37692 0.0
H305 H 0.12393 0.87222 0.27648 0.0
C306 C 0.34003 0.13761 0.67734 0.0
C307 C 0.355 0.16471 0.63202 0.0
C308 C 0.33309 0.18728 0.71771 0.0
C309 C 0.31718 0.15932 0.75753 0.0
N310 N 0.29334 0.10512 0.74434 0.0
N311 N 0.35425 0.21041 0.59393 0.0
C312 C 0.31621 0.13347 0.72578 0.0
C313 C 0.34809 0.18824 0.64718 0.0
N314 N 0.35006 0.11731 0.68226 0.0
N315 N 0.33449 0.21277 0.74727 0.0
H316 H 0.3615 0.20987 0.53786 0.0
H317 H 0.34792 0.22677 0.60186 0.0
H318 H 0.32304 0.2124 0.79769 0.0
H319 H 0.34839 0.2343 0.7238 0.0
H320 H 0.33943 0.09813 0.71767 0.0
H321 H 0.37141 0.12198 0.66381 0.0
H322 H 0.29149 0.08556 0.71949 0.0
H323 H 0.27468 0.10194 0.7768 0.0
C324 C 0.86211 0.21893 0.66622 0.0
C325 C 0.83535 0.19804 0.62592 0.0
C326 C 0.82722 0.16069 0.72647 0.0
C327 C 0.85744 0.17972 0.75402 0.0
N328 N 0.90703 0.22216 0.71771 0.0
N329 N 0.79654 0.14486 0.61057 0.0
C330 C 0.87609 0.20741 0.71421 0.0
C331 C 0.81891 0.16755 0.65362 0.0
N332 N 0.87373 0.2496 0.66262 0.0
N333 N 0.80603 0.13712 0.7697 0.0
H334 H 0.79166 0.14782 0.5538 0.0
H335 H 0.78573 0.12218 0.62803 0.0
H336 H 0.80979 0.13309 0.82661 0.0
H337 H 0.78341 0.12425 0.75235 0.0
H338 H 0.89292 0.2647 0.6943 0.0
H339 H 0.86181 0.25936 0.63883 0.0
H340 H 0.9205 0.24204 0.68633 0.0
H341 H 0.91895 0.21228 0.74072 0.0
C342 C 0.79363 0.6902 0.66877 0.0
C343 C 0.82095 0.69788 0.70841 0.0
C344 C 0.82979 0.66789 0.61138 0.0
C345 C 0.79928 0.65516 0.58469 0.0
N346 N 0.74931 0.64705 0.61831 0.0
N347 N 0.86204 0.68709 0.7244 0.0
C348 C 0.78022 0.66407 0.62239 0.0
C349 C 0.83839 0.68482 0.68195 0.0
N350 N 0.78069 0.70801 0.67295 0.0
N351 N 0.85096 0.66524 0.5691 0.0
H352 H 0.86789 0.69709 0.77895 0.0
H353 H 0.8735 0.67571 0.70899 0.0
H354 H 0.84671 0.65562 0.51405 0.0
H355 H 0.87381 0.6762 0.58481 0.0
H356 H 0.76124 0.70304 0.6414 0.0
H357 H 0.79161 0.72952 0.69834 0.0
H358 H 0.73533 0.65301 0.64858 0.0
H359 H 0.73793 0.62514 0.59537 0.0
C360 C 0.97202 0.43923 0.03331 0.0
C361 C 0.96447 0.459 0.07279 0.0
C362 C 0.99233 0.497 0.97212 0.0
C363 C 0.0046 0.47908 0.94405 0.0
N364 N 0.01488 0.43876 0.97939 0.0
N365 N 0.97588 0.5112 0.08796 0.0
C366 C -0.00268 0.45196 0.98435 0.0
C367 C 0.97707 0.48935 0.04493 0.0
N368 N 0.9545 0.40835 0.03801 0.0
N369 N -0.00622 0.52022 0.92931 0.0
H370 H 0.96779 0.50766 0.14458 0.0
H371 H 0.98672 0.53391 0.07079 0.0
H372 H 0.00205 0.52498 0.87289 0.0
H373 H 0.98309 0.53215 0.94661 0.0
H374 H 0.95967 0.39399 0.00668 0.0
H375 H 0.93284 0.39739 0.06226 0.0
H376 H 0.00997 0.41939 0.01126 0.0
H377 H 0.0363 0.4495 0.95373 0.0
C378 C 0.50767 0.47051 0.95573 0.0
C379 C 0.50258 0.47782 0.03139 0.0
C380 C 0.4733 0.49983 0.97966 0.0
C381 C 0.48143 0.49574 0.90399 0.0
N382 N 0.49768 0.46982 0.81759 0.0
N383 N 0.47374 0.49046 0.11781 0.0
C384 C 0.49556 0.4783 0.89134 0.0
C385 C 0.4828 0.4893 0.04405 0.0
N386 N 0.52548 0.45775 0.94584 0.0
N387 N 0.45808 0.51533 0.98956 0.0
H388 H 0.48043 0.48245 0.16516 0.0
H389 H 0.45788 0.49687 0.13159 0.0
H390 H 0.44983 0.52214 0.94299 0.0
H391 H 0.45427 0.52216 0.04313 0.0
H392 H 0.53296 0.45479 0.89227 0.0
H393 H 0.53351 0.45072 0.99244 0.0
H394 H 0.50611 0.45557 0.80377 0.0
H395 H 0.48848 0.47521 0.77029 0.0
C396 C 0.47705 0.98103 0.05948 0.0
C397 C 0.48619 0.01207 0.04984 0.0
C398 C 0.47633 0.00448 0.91041 0.0
C399 C 0.46289 0.97277 0.92212 0.0
N400 N 0.44934 0.93003 0.00659 0.0
N401 N 0.49566 0.05432 0.96805 0.0
C402 C 0.46345 0.9608 0.99607 0.0
C403 C 0.48652 0.02416 0.97555 0.0
N404 N 0.48109 0.97099 0.12948 0.0
N405 N 0.47957 0.01562 0.83678 0.0
H406 H 0.50496 0.06972 0.01378 0.0
H407 H 0.49296 0.06396 0.91772 0.0
H408 H 0.47211 0.00159 0.78808 0.0
H409 H 0.49167 0.03862 0.82306 0.0
H410 H 0.47761 0.94927 0.13872 0.0
H411 H 0.49035 0.98526 0.17736 0.0
H412 H 0.44575 0.91969 0.06057 0.0
H413 H 0.43946 0.91447 0.96146 0.0
C414 C 0.10963 0.29921 0.80851 0.0
C415 C 0.12447 0.30886 0.88102 0.0
C416 C 0.15805 0.35976 0.82809 0.0
C417 C 0.14407 0.34973 0.75422 0.0
N418 N 0.11278 0.30747 0.66996 0.0
N419 N 0.16729 0.34562 0.9552 0.0
C420 C 0.12169 0.31868 0.74319 0.0
C421 C 0.15024 0.33826 0.88914 0.0
N422 N 0.08353 0.27175 0.80233 0.0
N423 N 0.17733 0.38997 0.8418 0.0
H424 H 0.16213 0.33037 0.00084 0.0
H425 H 0.18802 0.36565 0.9616 0.0
H426 H 0.18342 0.4067 0.79978 0.0
H427 H 0.18528 0.39883 0.89679 0.0
H428 H 0.0698 0.26499 0.75318 0.0
H429 H 0.07441 0.25665 0.84858 0.0
H430 H 0.09874 0.28445 0.65808 0.0
H431 H 0.12204 0.32065 0.6204 0.0
C432 C 0.62682 0.77988 0.87031 0.0
C433 C 0.64102 0.78806 0.79649 0.0
C434 C 0.69109 0.81316 0.85852 0.0
C435 C 0.67685 0.8074 0.9322 0.0
N436 N 0.63147 0.78936 0.00874 0.0
N437 N 0.68626 0.81648 0.71973 0.0
C438 C 0.64477 0.79189 0.93827 0.0
C439 C 0.67307 0.80583 0.79041 0.0
N440 N 0.5964 0.75954 0.87561 0.0
N441 N 0.7217 0.8244 0.85358 0.0
H442 H 0.67382 0.81143 0.66845 0.0
H443 H 0.70918 0.83238 0.71259 0.0
H444 H 0.73575 0.82977 0.90199 0.0
H445 H 0.73283 0.82586 0.80181 0.0
H446 H 0.58539 0.75016 0.92774 0.0
H447 H 0.58248 0.74987 0.82734 0.0
H448 H 0.60837 0.78135 0.01577 0.0
H449 H 0.64391 0.79762 0.05982 0.0
C450 C 0.16601 0.84532 0.84451 0.0
C451 C 0.18759 0.87424 0.87495 0.0
C452 C 0.22395 0.87761 0.77744 0.0
C453 C 0.20076 0.85153 0.73887 0.0
N454 N 0.14687 0.81565 0.72758 0.0
N455 N 0.2342 0.92178 0.85173 0.0
C456 C 0.17088 0.8368 0.76989 0.0
C457 C 0.21574 0.89161 0.836 0.0
N458 N 0.14161 0.82526 0.88754 0.0
N459 N 0.25391 0.88832 0.76169 0.0
H460 H 0.22799 0.9339 0.88877 0.0
H461 H 0.25385 0.93549 0.82 0.0
H462 H 0.26144 0.87724 0.72497 0.0
H463 H 0.2713 0.90596 0.79326 0.0
H464 H 0.12677 0.80309 0.86922 0.0
H465 H 0.13838 0.82926 0.94499 0.0
H466 H 0.12447 0.80625 0.74629 0.0
H467 H 0.14885 0.81039 0.67034 0.0
C468 C 0.35389 0.17132 0.24071 0.0
C469 C 0.36531 0.15217 0.26455 0.0
C470 C 0.33254 0.11487 0.169 0.0
C471 C 0.3257 0.13612 0.13483 0.0
N472 N 0.33864 0.18907 0.12941 0.0
N473 N 0.37317 0.11072 0.22639 0.0
C474 C 0.33884 0.16575 0.16792 0.0
C475 C 0.35707 0.12547 0.22107 0.0
N476 N 0.35594 0.19385 0.28766 0.0
N477 N 0.3152 0.08444 0.1548 0.0
H478 H 0.3936 0.11957 0.25669 0.0
H479 H 0.36836 0.09205 0.19165 0.0
H480 H 0.2948 0.07494 0.12427 0.0
H481 H 0.31904 0.06851 0.1828 0.0
H482 H 0.34574 0.20659 0.27365 0.0
H483 H 0.36428 0.19733 0.34404 0.0
H484 H 0.35012 0.21133 0.15014 0.0
H485 H 0.33075 0.18728 0.07296 0.0
C486 C 0.86258 0.17156 0.20591 0.0
C487 C 0.85751 0.17712 0.12849 0.0
C488 C 0.82561 0.19743 0.17428 0.0
C489 C 0.8349 0.19657 0.25122 0.0
N490 N 0.86136 0.1823 0.3425 0.0
N491 N 0.8342 0.19485 0.03681 0.0
C492 C 0.85293 0.1832 0.26775 0.0
C493 C 0.83872 0.18962 0.11202 0.0
N494 N 0.87636 0.15491 0.21995 0.0
N495 N 0.80421 0.20557 0.16098 0.0
H496 H 0.84211 0.18792 0.98977 0.0
H497 H 0.82392 0.20725 0.02075 0.0
H498 H 0.79419 0.21128 0.20546 0.0
H499 H 0.79439 0.20411 0.10711 0.0
H500 H 0.87853 0.14772 0.27477 0.0
H501 H 0.88333 0.14592 0.17557 0.0
H502 H 0.87743 0.17634 0.35787 0.0
H503 H 0.85312 0.18881 0.38964 0.0
C504 C 0.81072 0.65991 0.07011 0.0
C505 C 0.82611 0.69166 0.08335 0.0
C506 C 0.82604 0.6832 0.22304 0.0
C507 C 0.80599 0.65184 0.21034 0.0
N508 N 0.77942 0.60938 0.12362 0.0
N509 N 0.84884 0.73429 0.17124 0.0
C510 C 0.79882 0.6398 0.13424 0.0
C511 C 0.83453 0.7036 0.15944 0.0
N512 N 0.80764 0.64923 0.99606 0.0
N513 N 0.83672 0.69331 0.29608 0.0
H514 H 0.856 0.75 0.1261 0.0
H515 H 0.85224 0.74427 0.22569 0.0
H516 H 0.83064 0.67868 0.34352 0.0
H517 H 0.85351 0.7155 0.30861 0.0
H518 H 0.79889 0.62642 0.98233 0.0
H519 H 0.81641 0.66369 0.94833 0.0
H520 H 0.77033 0.59959 0.07015 0.0
H521 H 0.77124 0.59391 0.16939 0.0
C522 C 0.99168 0.48302 0.43038 0.0
C523 C 0.96051 0.46337 0.44725 0.0
C524 C 0.97171 0.46937 0.58635 0.0
C525 C 0.00315 0.48461 0.5689 0.0
N526 N 0.04384 0.50775 0.47631 0.0
N527 N 0.91994 0.43881 0.53954 0.0
C528 C 0.01339 0.49249 0.49145 0.0
C529 C 0.9502 0.45724 0.52493 0.0
N530 N 0.00031 0.49252 0.35585 0.0
N531 N 0.96264 0.46683 0.66186 0.0
H532 H 0.90364 0.43113 0.49578 0.0
H533 H 0.91102 0.43028 0.59402 0.0
H534 H 0.97805 0.47581 0.7077 0.0
H535 H 0.94022 0.45822 0.67895 0.0
H536 H 0.02225 0.50878 0.33982 0.0
H537 H 0.98478 0.48583 0.31027 0.0
H538 H 0.05305 0.51111 0.42098 0.0
H539 H 0.06016 0.51625 0.52005 0.0
C540 C 0.53001 0.51248 0.54103 0.0
C541 C 0.51389 0.52842 0.5361 0.0
C542 C 0.5144 0.5259 0.39418 0.0
C543 C 0.53298 0.51258 0.39917 0.0
N544 N 0.56324 0.49822 0.4768 0.0
N545 N 0.49537 0.55523 0.45857 0.0
C546 C 0.54204 0.50714 0.47248 0.0
C547 C 0.50722 0.5364 0.4628 0.0
N548 N 0.53308 0.5017 0.61095 0.0
N549 N 0.5029 0.52774 0.32411 0.0
H550 H 0.49023 0.5639 0.50728 0.0
H551 H 0.49318 0.56451 0.40689 0.0
H552 H 0.5078 0.52042 0.27256 0.0
H553 H 0.48651 0.53408 0.31793 0.0
H554 H 0.54164 0.48704 0.61697 0.0
H555 H 0.5246 0.50521 0.66244 0.0
H556 H 0.57316 0.49715 0.52857 0.0
H557 H 0.5731 0.49458 0.42812 0.0
C558 C 0.47475 0.9938 0.55669 0.0
C559 C 0.44539 0.96775 0.55114 0.0
C560 C 0.44283 0.97903 0.41443 0.0
C561 C 0.46971 0.00765 0.42327 0.0
N562 N 0.51031 0.04357 0.5065 0.0
N563 N 0.39978 0.93697 0.47712 0.0
C564 C 0.4857 0.0153 0.49508 0.0
C565 C 0.4289 0.96078 0.48071 0.0
N566 N 0.49218 -0.00187 0.62095 0.0
N567 N 0.43136 0.9686 0.34209 0.0
H568 H 0.38895 0.92258 0.52384 0.0
H569 H 0.38558 0.93296 0.42972 0.0
H570 H 0.44195 0.98052 0.29166 0.0
H571 H 0.41347 0.94671 0.33152 0.0
H572 H 0.51503 0.01472 0.62452 0.0
H573 H 0.48458 0.9836 0.6686 0.0
H574 H 0.52016 0.05164 0.56058 0.0
H575 H 0.51983 0.06004 0.4636 0.0
C576 C 0.18256 0.19584 0.12829 0.0
C577 C 0.19138 0.22414 0.09198 0.0
C578 C 0.22597 0.21746 0.00653 0.0
C579 C 0.21711 0.18928 0.04324 0.0
N580 N 0.19483 0.15643 0.15332 0.0
N581 N 0.22626 0.26531 0.0105 0.0
C582 C 0.19803 0.18013 0.10905 0.0
C583 C 0.21478 0.23611 0.03567 0.0
N584 N 0.15798 0.1827 0.1766 0.0
N585 N 0.24359 0.22558 0.94145 0.0
H586 H 0.21843 0.2794 0.03127 0.0
H587 H 0.2452 0.2764 0.97478 0.0
H588 H 0.25252 0.21269 0.91904 0.0
H589 H 0.24787 0.24407 0.90691 0.0
H590 H 0.14851 0.1605 0.19685 0.0
H591 H 0.1452 0.19273 0.19135 0.0
H592 H 0.18356 0.15059 0.20634 0.0
H593 H 0.20622 0.14467 0.14098 0.0
C594 C 0.79829 0.00369 0.92433 0.0
C595 C 0.81134 0.02878 0.97558 0.0
C596 C 0.78776 0.99457 0.08568 0.0
C597 C 0.78022 0.9696 0.03628 0.0
N598 N 0.77813 0.94964 0.90805 0.0
N599 N 0.81943 0.04869 0.10608 0.0
C600 C 0.78476 0.97381 0.95507 0.0
C601 C 0.80577 0.02451 0.05651 0.0
N602 N 0.79901 0.00862 0.84636 0.0
N603 N 0.77776 0.98946 0.16058 0.0
H604 H 0.83271 0.07109 0.0876 0.0
H605 H 0.81925 0.04643 0.16605 0.0
H606 H 0.76439 0.96759 0.18289 0.0
H607 H 0.78008 0.00658 0.19787 0.0
H608 H 0.78755 0.99134 0.80598 0.0
H609 H 0.80874 0.03042 0.8228 0.0
H610 H 0.78445 0.95184 0.85003 0.0
H611 H 0.76779 0.92732 0.92793 0.0
C612 C 0.97629 0.80187 0.01211 0.0
C613 C 0.97118 0.80621 0.93346 0.0
C614 C 0.02577 0.83889 0.91263 0.0
C615 C 0.03088 0.83464 0.99137 0.0
N616 N 0.01252 0.80588 0.10933 0.0
N617 N 0.99056 0.82165 0.80441 0.0
C618 C 0.00656 0.81401 0.03887 0.0
C619 C -0.00414 0.82232 0.8822 0.0
N620 N 0.95246 0.78797 0.06252 0.0
N621 N 0.049 0.86015 0.86836 0.0
H622 H 0.96878 0.80951 0.78081 0.0
H623 H 0.00775 0.83051 0.76304 0.0
H624 H 0.07127 0.87295 0.88817 0.0
H625 H 0.04585 0.86675 0.81368 0.0
H626 H 0.95515 0.78758 0.12223 0.0
H627 H 0.92985 0.77859 0.04576 0.0
H628 H -0.00403 0.78869 0.14353 0.0
H629 H 0.03456 0.81431 0.13011 0.0
C630 C 0.84888 0.84326 0.00957 0.0
C631 C 0.83541 0.81114 0.01009 0.0
C632 C 0.7865 0.806 0.04077 0.0
C633 C 0.8001 0.83789 0.04813 0.0
N634 N 0.84668 0.88621 0.06162 0.0
N635 N 0.79471 0.76377 0.05795 0.0
C636 C 0.83209 0.85643 0.03934 0.0
C637 C 0.80523 0.79305 0.03589 0.0
N638 N 0.87687 0.86124 0.97763 0.0
N639 N 0.75596 0.78815 0.03195 0.0
H640 H 0.80934 0.75517 0.0629 0.0
H641 H 0.7731 0.75013 0.08126 0.0
H642 H 0.74222 0.79756 0.02339 0.0
H643 H 0.7454 0.76484 0.02156 0.0
H644 H 0.88599 0.88448 0.96879 0.0
H645 H 0.88988 0.85275 0.95383 0.0
H646 H 0.87026 0.89974 0.06239 0.0
H647 H 0.83556 0.89638 0.08765 0.0
C648 C 0.19327 0.00016 0.08335 0.0
C649 C 0.18305 0.97963 0.01979 0.0
C650 C 0.2033 0.02231 0.92936 0.0
C651 C 0.21519 0.04291 0.99272 0.0
N652 N 0.22907 0.05089 0.12799 0.0
N653 N 0.18682 0.9714 0.88375 0.0
C654 C 0.2126 0.03166 0.06916 0.0
C655 C 0.19084 0.9908 0.94319 0.0
N656 N 0.18317 0.99007 0.15673 0.0
N657 N 0.20188 0.03231 0.85683 0.0
H658 H 0.17867 0.94828 0.89234 0.0
H659 H 0.19478 0.97885 0.82782 0.0
H660 H 0.20894 0.05488 0.84393 0.0
H661 H 0.19058 0.0176 0.81093 0.0
H662 H 0.18743 0.0047 0.2033 0.0
H663 H 0.16815 0.9674 0.17017 0.0
H664 H 0.23022 0.04332 0.18328 0.0
H665 H 0.24423 0.07397 0.11937 0.0
C666 C 0.97372 0.16664 0.07913 0.0
C667 C 0.96257 0.15812 0.00278 0.0
C668 C 0.01443 0.18172 0.95237 0.0
C669 C 0.02566 0.18904 0.02917 0.0
N670 N 0.01591 0.18129 0.16675 0.0
N671 N 0.97156 0.15018 0.86985 0.0
C672 C 0.00527 0.17941 0.09302 0.0
C673 C 0.98273 0.16341 0.94031 0.0
N674 N 0.95442 0.16363 0.13779 0.0
N675 N 0.03375 0.19336 0.89073 0.0
H676 H 0.94844 0.13597 0.85917 0.0
H677 H 0.9853 0.1507 0.82453 0.0
H678 H 0.05718 0.207 0.89659 0.0
H679 H 0.02633 0.19171 0.83375 0.0
H680 H 0.96181 0.17275 0.19286 0.0
H681 H 0.93111 0.15403 0.12972 0.0
H682 H 0.00176 0.17191 0.21459 0.0
H683 H 0.03873 0.18934 0.1793 0.0
C684 C 0.83472 0.5295 0.30139 0.0
C685 C 0.84057 0.54386 0.37451 0.0
C686 C 0.88042 0.53149 0.39835 0.0
C687 C 0.87014 0.5119 0.33296 0.0
N688 N 0.83493 0.48987 0.22555 0.0
N689 N 0.86923 0.55984 0.49298 0.0
C690 C 0.84706 0.5107 0.28415 0.0
C691 C 0.86388 0.5457 0.42273 0.0
N692 N 0.81702 0.53361 0.24884 0.0
N693 N 0.90603 0.53649 0.43653 0.0
H694 H 0.85816 0.57137 0.51068 0.0
H695 H 0.88347 0.55897 0.5349 0.0
H696 H 0.91875 0.52666 0.4189 0.0
H697 H 0.91617 0.55237 0.48077 0.0
H698 H 0.81431 0.52609 0.19171 0.0
H699 H 0.80766 0.54734 0.26016 0.0
H700 H 0.81561 0.48571 0.19482 0.0
H701 H 0.84221 0.47469 0.2115 0.0
C702 C 0.49583 0.34848 0.35851 0.0
C703 C 0.48648 0.35407 0.28615 0.0
C704 C 0.44558 0.30106 0.27926 0.0
C705 C 0.45819 0.29448 0.34457 0.0
N706 N 0.49776 0.31135 0.44167 0.0
N707 N 0.4529 0.33655 0.17612 0.0
C708 C 0.48362 0.31808 0.38406 0.0
C709 C 0.46125 0.33064 0.24632 0.0
N710 N 0.51683 0.37218 0.40217 0.0
N711 N 0.41844 0.27907 0.24969 0.0
H712 H 0.46305 0.35835 0.15246 0.0
H713 H 0.43702 0.31977 0.13974 0.0
H714 H 0.40633 0.25733 0.2735 0.0
H715 H 0.40664 0.28303 0.20634 0.0
H716 H 0.52202 0.36974 0.45913 0.0
H717 H 0.52711 0.39476 0.38423 0.0
H718 H 0.51852 0.32727 0.46559 0.0
H719 H 0.49039 0.2894 0.46137 0.0
C720 C 0.65421 0.11551 0.26722 0.0
C721 C 0.62767 0.10545 0.31208 0.0
C722 C 0.65833 0.12235 0.43032 0.0
C723 C 0.68461 0.13813 0.38398 0.0
N724 N 0.70855 0.14944 0.25812 0.0
N725 N 0.6035 0.0978 0.43689 0.0
C726 C 0.683 0.13399 0.30239 0.0
C727 C 0.62936 0.10767 0.39413 0.0
N728 N 0.65162 0.10761 0.1908 0.0
N729 N 0.66129 0.12182 0.50887 0.0
H730 H 0.58181 0.08625 0.41287 0.0
H731 H 0.60349 0.10227 0.49572 0.0
H732 H 0.68247 0.13247 0.53608 0.0
H733 H 0.64331 0.10865 0.54599 0.0
H734 H 0.67001 0.11199 0.15582 0.0
H735 H 0.63055 0.09399 0.16449 0.0
H736 H 0.70824 0.15035 0.19791 0.0
H737 H 0.73017 0.16276 0.28155 0.0
C738 C 0.49776 0.13097 0.4085 0.0
C739 C 0.50309 0.1311 0.32785 0.0
C740 C 0.47791 0.16057 0.30533 0.0
C741 C 0.47656 0.16403 0.38644 0.0
N742 N 0.49065 0.15729 0.51556 0.0
N743 N 0.50369 0.15138 0.20071 0.0
C744 C 0.48796 0.15054 0.43829 0.0
C745 C 0.49464 0.14735 0.27642 0.0
N746 N 0.50065 0.1112 0.45628 0.0
N747 N 0.46226 0.16875 0.25592 0.0
H748 H 0.51706 0.14316 0.17752 0.0
H749 H 0.50063 0.16563 0.16307 0.0
H750 H 0.44875 0.17747 0.2749 0.0
H751 H 0.46006 0.16378 0.19691 0.0
H752 H 0.49409 0.1081 0.51426 0.0
H753 H 0.50637 0.0955 0.43594 0.0
H754 H 0.50175 0.15042 0.55425 0.0
H755 H 0.48461 0.17225 0.53983 0.0
C756 C 0.8121 0.31632 0.42107 0.0
C757 C 0.80562 0.29414 0.36291 0.0
C758 C 0.82536 0.33388 0.26434 0.0
C759 C 0.83663 0.35624 0.32376 0.0
N760 N 0.84322 0.36883 0.45987 0.0
N761 N 0.8089 0.28183 0.22965 0.0
C762 C 0.83044 0.34756 0.40255 0.0
C763 C 0.81274 0.30284 0.28444 0.0
N764 N 0.80007 0.30749 0.49359 0.0
N765 N 0.82579 0.34221 0.18885 0.0
H766 H 0.79971 0.25885 0.24208 0.0
H767 H 0.8171 0.2876 0.17328 0.0
H768 H 0.83376 0.36464 0.17196 0.0
H769 H 0.81526 0.3266 0.14418 0.0
H770 H 0.80159 0.32271 0.53612 0.0
H771 H 0.78582 0.28478 0.50873 0.0
H772 H 0.84241 0.3633 0.51825 0.0
H773 H 0.85676 0.39197 0.44884 0.0
C774 C 0.64999 0.52906 0.2819 0.0
C775 C 0.6346 0.49701 0.27611 0.0
C776 C 0.6818 0.49823 0.31149 0.0
C777 C 0.69762 0.53051 0.30777 0.0
N778 N 0.69759 0.57478 0.25905 0.0
N779 N 0.63889 0.45191 0.26353 0.0
C780 C 0.68198 0.54538 0.2833 0.0
C781 C 0.65138 0.48174 0.28417 0.0
N782 N 0.63433 0.54392 0.29245 0.0
N783 N 0.69484 0.48316 0.34446 0.0
H784 H 0.61734 0.43937 0.23911 0.0
H785 H 0.65135 0.44077 0.26231 0.0
H786 H 0.71655 0.49404 0.36828 0.0
H787 H 0.68279 0.45985 0.35504 0.0
H788 H 0.645 0.56732 0.30165 0.0
H789 H 0.61118 0.53214 0.30368 0.0
H790 H 0.68688 0.58599 0.23646 0.0
H791 H 0.72106 0.58608 0.25206 0.0
C792 C 0.52436 0.83858 0.74396 0.0
C793 C 0.53082 0.83758 0.66438 0.0
C794 C 0.50423 0.86468 0.6295 0.0
C795 C 0.49737 0.86529 0.70897 0.0
N796 N 0.50842 0.8615 0.84268 0.0
N797 N 0.53543 0.85747 0.53559 0.0
C798 C 0.51005 0.85516 0.76651 0.0
C799 C 0.52363 0.85337 0.60858 0.0
N800 N 0.52985 0.82206 0.79725 0.0
N801 N 0.4906 0.87276 0.57357 0.0
H802 H 0.54998 0.8496 0.51918 0.0
H803 H 0.53336 0.87123 0.49425 0.0
H804 H 0.476 0.88096 0.58571 0.0
H805 H 0.49199 0.86921 0.51467 0.0
H806 H 0.52214 0.81902 0.85421 0.0
H807 H 0.54027 0.80952 0.78364 0.0
H808 H 0.51968 0.8572 0.88687 0.0
H809 H 0.4983 0.87394 0.86054 0.0
C810 C 0.10403 0.6637 0.58399 0.0
C811 C 0.129 0.68564 0.62759 0.0
C812 C 0.12291 0.64699 0.72133 0.0
C813 C 0.09853 0.62465 0.67615 0.0
N814 N 0.06045 0.6126 0.57838 0.0
N815 N 0.15636 0.70051 0.74839 0.0
C816 C 0.08725 0.63339 0.612 0.0
C817 C 0.1362 0.67806 0.70035 0.0
N818 N 0.09715 0.6717 0.51459 0.0
N819 N 0.13528 0.63856 0.7798 0.0
H820 H 0.16709 0.72348 0.73385 0.0
H821 H 0.16019 0.69664 0.80542 0.0
H822 H 0.1269 0.61617 0.79713 0.0
H823 H 0.15548 0.65361 0.80764 0.0
H824 H 0.08159 0.65613 0.47536 0.0
H825 H 0.1081 0.69412 0.49491 0.0
H826 H 0.04963 0.61799 0.5353 0.0
H827 H 0.04758 0.59038 0.59888 0.0
C828 C 0.33483 0.44774 0.67173 0.0
C829 C 0.35561 0.47095 0.62159 0.0
C830 C 0.31638 0.45615 0.52256 0.0
C831 C 0.29519 0.4336 0.57371 0.0
N832 N 0.28534 0.40235 0.68656 0.0
N833 N 0.36928 0.49124 0.49272 0.0
C834 C 0.3049 0.42749 0.64492 0.0
C835 C 0.34736 0.47303 0.54458 0.0
N836 N 0.34314 0.4462 0.74614 0.0
N837 N 0.30669 0.46305 0.45577 0.0
H838 H 0.39223 0.50375 0.50759 0.0
H839 H 0.36521 0.4916 0.43372 0.0
H840 H 0.28426 0.4513 0.43677 0.0
H841 H 0.32053 0.48183 0.42151 0.0
H842 H 0.328 0.43215 0.78834 0.0
H843 H 0.36507 0.46024 0.7671 0.0
H844 H 0.29164 0.39502 0.73575 0.0
H845 H 0.26334 0.38719 0.66753 0.0
C846 C 0.15279 0.47111 0.71851 0.0
C847 C 0.16011 0.47011 0.63991 0.0
C848 C 0.13162 0.49506 0.60146 0.0
C849 C 0.12688 0.49864 0.68063 0.0
N850 N 0.13953 0.4968 0.81488 0.0
N851 N 0.1621 0.48688 0.50787 0.0
C852 C 0.13934 0.48859 0.73938 0.0
C853 C 0.15109 0.48368 0.58158 0.0
N854 N 0.15747 0.45438 0.77289 0.0
N855 N 0.1167 0.5014 0.54534 0.0
H856 H 0.17715 0.4797 0.49122 0.0
H857 H 0.15872 0.49936 0.46523 0.0
H858 H 0.10201 0.50948 0.5578 0.0
H859 H 0.11674 0.49605 0.48712 0.0
H860 H 0.14955 0.4518 0.82959 0.0
H861 H 0.16649 0.44056 0.75947 0.0
H862 H 0.15105 0.49259 0.85858 0.0
H863 H 0.13108 0.51071 0.83265 0.0
C864 C 0.47383 0.64004 0.67145 0.0
C865 C 0.48998 0.62402 0.66848 0.0
C866 C 0.53771 0.67224 0.66903 0.0
C867 C 0.52185 0.68821 0.66008 0.0
N868 N 0.47395 0.68588 0.63452 0.0
N869 N 0.53699 0.62584 0.63821 0.0
C870 C 0.4896 0.67177 0.65613 0.0
C871 C 0.52189 0.64039 0.65972 0.0
N872 N 0.44388 0.62552 0.6919 0.0
N873 N 0.56748 0.68714 0.69032 0.0
H874 H 0.52536 0.6031 0.62193 0.0
H875 H 0.56019 0.63729 0.62624 0.0
H876 H 0.57863 0.70997 0.70587 0.0
H877 H 0.5794 0.67592 0.70247 0.0
H878 H 0.43215 0.63706 0.7021 0.0
H879 H 0.43159 0.60258 0.70652 0.0
H880 H 0.45066 0.67404 0.62377 0.0
H881 H 0.48445 0.70874 0.61921 0.0
C882 C 0.30815 0.82651 0.56715 0.0
C883 C 0.28476 0.8189 0.62229 0.0
C884 C 0.32242 0.8391 0.72623 0.0
C885 C 0.34602 0.8498 0.67036 0.0
N886 N 0.36123 0.85899 0.53589 0.0
N887 N 0.27028 0.82469 0.75163 0.0
C888 C 0.3389 0.84502 0.5902 0.0
C889 C 0.29205 0.82716 0.7011 0.0
N890 N 0.30117 0.81503 0.49364 0.0
N891 N 0.32865 0.83877 0.80316 0.0
H892 H 0.24788 0.81694 0.73522 0.0
H893 H 0.27523 0.83345 0.8077 0.0
H894 H 0.35034 0.84573 0.82429 0.0
H895 H 0.31178 0.82839 0.84507 0.0
H896 H 0.31749 0.81723 0.45377 0.0
H897 H 0.27898 0.80077 0.47468 0.0
H898 H 0.35677 0.85885 0.47694 0.0
H899 H 0.38399 0.87334 0.54997 0.0
loop_
_geom_bond_atom_site_label_1
_geom_bond_atom_site_label_2
_geom_bond_distance
_geom_bond_site_symmetry_2
_ccdc_geom_bond_type
Mg0 O1 2.028 1_554 S
Mg0 O7 1.986 . S
Mg0 O9 2.114 . S
Mg0 O10 2.251 . S
Mg0 O13 2.010 . S
O1 Mg0 2.028 1_556 S
O1 C4 1.250 . S
O2 Mg3 2.028 1_556 S
O2 C4 1.248 . S
Mg3 O2 2.028 1_554 S
Mg3 O8 2.032 . S
Mg3 O10 2.079 . S
C4 O1 1.250 . S
C4 O2 1.248 . S
C5 O6 1.264 . S
C5 O13 1.249 . S
O6 C5 1.264 . S
O7 Mg0 1.986 . S
O7 C11 1.246 . S
O8 Mg3 2.032 . S
O8 C11 1.259 . S
O9 Mg0 2.114 . S
O9 C12 1.252 . S
O10 Mg0 2.251 . S
O10 Mg3 2.079 . S
O10 C12 1.273 . S
C11 O7 1.246 . S
C11 O8 1.259 . S
C12 O9 1.252 . S
C12 O10 1.273 . S
O13 Mg0 2.010 . S
O13 C5 1.249 . S
Mg14 O15 2.028 1_554 S
Mg14 O21 1.986 . S
Mg14 O23 2.114 . S
Mg14 O24 2.251 . S
Mg14 O27 2.010 . S
O15 Mg14 2.028 1_556 S
O15 C18 1.250 . S
O16 Mg17 2.028 1_556 S
O16 C18 1.248 . S
Mg17 O16 2.028 1_554 S
Mg17 O22 2.032 . S
Mg17 O24 2.079 . S
C18 O15 1.250 . S
C18 O16 1.248 . S
C19 O20 1.264 . S
C19 O27 1.249 . S
O20 C19 1.264 . S
O21 Mg14 1.986 . S
O21 C25 1.246 . S
O22 Mg17 2.032 . S
O22 C25 1.259 . S
O23 Mg14 2.114 . S
O23 C26 1.252 . S
O24 Mg14 2.251 . S
O24 Mg17 2.079 . S
O24 C26 1.273 . S
C25 O21 1.246 . S
C25 O22 1.259 . S
C26 O23 1.252 . S
C26 O24 1.273 . S
O27 Mg14 2.010 . S
O27 C19 1.249 . S
Mg28 O29 2.028 1_554 S
Mg28 O35 1.986 . S
Mg28 O37 2.114 . S
Mg28 O38 2.251 . S
Mg28 O41 2.010 . S
O29 Mg28 2.028 1_556 S
O29 C32 1.250 . S
O30 Mg31 2.028 1_556 S
O30 C32 1.248 . S
Mg31 O30 2.028 1_554 S
Mg31 O36 2.032 . S
Mg31 O38 2.079 . S
C32 O29 1.250 . S
C32 O30 1.248 . S
C33 O34 1.264 . S
C33 O41 1.249 . S
O34 C33 1.264 . S
O35 Mg28 1.986 . S
O35 C39 1.246 . S
O36 Mg31 2.032 . S
O36 C39 1.259 . S
O37 Mg28 2.114 . S
O37 C40 1.252 . S
O38 Mg28 2.251 . S
O38 Mg31 2.079 . S
O38 C40 1.273 . S
C39 O35 1.246 . S
C39 O36 1.259 . S
C40 O37 1.252 . S
C40 O38 1.273 . S
O41 Mg28 2.010 . S
O41 C33 1.249 . S
Mg42 O43 2.028 1_556 S
Mg42 O49 1.986 . S
Mg42 O51 2.114 . S
Mg42 O52 2.251 . S
Mg42 O55 2.010 . S
O43 Mg42 2.028 1_554 S
O43 C46 1.250 . S
O44 Mg45 2.028 1_554 S
O44 C46 1.248 . S
Mg45 O44 2.028 1_556 S
Mg45 O50 2.032 . S
Mg45 O52 2.079 . S
C46 O43 1.250 . S
C46 O44 1.248 . S
C47 O48 1.264 . S
C47 O55 1.249 . S
O48 C47 1.264 . S
O49 Mg42 1.986 . S
O49 C53 1.246 . S
O50 Mg45 2.032 . S
O50 C53 1.259 . S
O51 Mg42 2.114 . S
O51 C54 1.252 . S
O52 Mg42 2.251 . S
O52 Mg45 2.079 . S
O52 C54 1.273 . S
C53 O49 1.246 . S
C53 O50 1.259 . S
C54 O51 1.252 . S
C54 O52 1.273 . S
O55 Mg42 2.010 . S
O55 C47 1.249 . S
Mg56 O57 2.028 1_556 S
Mg56 O63 1.986 . S
Mg56 O65 2.114 . S
Mg56 O66 2.251 . S
Mg56 O69 2.010 . S
O57 Mg56 2.028 1_554 S
O57 C60 1.250 . S
O58 Mg59 2.028 1_554 S
O58 C60 1.248 . S
Mg59 O58 2.028 1_556 S
Mg59 O64 2.032 . S
Mg59 O66 2.079 . S
C60 O57 1.250 . S
C60 O58 1.248 . S
C61 O62 1.264 . S
C61 O69 1.249 . S
O62 C61 1.264 . S
O63 Mg56 1.986 . S
O63 C67 1.246 . S
O64 Mg59 2.032 . S
O64 C67 1.259 . S
O65 Mg56 2.114 . S
O65 C68 1.252 . S
O66 Mg56 2.251 . S
O66 Mg59 2.079 . S
O66 C68 1.273 . S
C67 O63 1.246 . S
C67 O64 1.259 . S
C68 O65 1.252 . S
C68 O66 1.273 . S
O69 Mg56 2.010 . S
O69 C61 1.249 . S
Mg70 O71 2.028 1_556 S
Mg70 O77 1.986 . S
Mg70 O79 2.114 . S
Mg70 O80 2.251 . S
Mg70 O83 2.010 . S
O71 Mg70 2.028 1_554 S
O71 C74 1.250 . S
O72 Mg73 2.028 1_554 S
O72 C74 1.248 . S
Mg73 O72 2.028 1_556 S
Mg73 O78 2.032 . S
Mg73 O80 2.079 . S
C74 O71 1.250 . S
C74 O72 1.248 . S
C75 O76 1.264 . S
C75 O83 1.249 . S
O76 C75 1.264 . S
O77 Mg70 1.986 . S
O77 C81 1.246 . S
O78 Mg73 2.032 . S
O78 C81 1.259 . S
O79 Mg70 2.114 . S
O79 C82 1.252 . S
O80 Mg70 2.251 . S
O80 Mg73 2.079 . S
O80 C82 1.273 . S
C81 O77 1.246 . S
C81 O78 1.259 . S
C82 O79 1.252 . S
C82 O80 1.273 . S
O83 Mg70 2.010 . S
O83 C75 1.249 . S
Mg84 O85 2.028 . S
Mg84 O91 1.986 . S
Mg84 O93 2.114 . S
Mg84 O94 2.251 . S
Mg84 O97 2.010 . S
O85 Mg84 2.028 . S
O85 C88 1.250 . S
O86 Mg87 2.028 . S
O86 C88 1.248 . S
Mg87 O86 2.028 . S
Mg87 O92 2.032 . S
Mg87 O94 2.079 . S
C88 O85 1.250 . S
C88 O86 1.248 . S
C89 O90 1.264 . S
C89 O97 1.249 . S
O90 C89 1.264 . S
O91 Mg84 1.986 . S
O91 C95 1.246 . S
O92 Mg87 2.032 . S
O92 C95 1.259 . S
O93 Mg84 2.114 . S
O93 C96 1.252 . S
O94 Mg84 2.251 . S
O94 Mg87 2.079 . S
O94 C96 1.273 . S
C95 O91 1.246 . S
C95 O92 1.259 . S
C96 O93 1.252 . S
C96 O94 1.273 . S
O97 Mg84 2.010 . S
O97 C89 1.249 . S
Mg98 O99 2.028 . S
Mg98 O105 1.986 . S
Mg98 O107 2.114 . S
Mg98 O108 2.251 . S
Mg98 O111 2.010 . S
O99 Mg98 2.028 . S
O99 C102 1.250 . S
O100 Mg101 2.028 . S
O100 C102 1.248 . S
Mg101 O100 2.028 . S
Mg101 O106 2.032 . S
Mg101 O108 2.079 . S
C102 O99 1.250 . S
C102 O100 1.248 . S
C103 O104 1.264 . S
C103 O111 1.249 . S
O104 C103 1.264 . S
O105 Mg98 1.986 . S
O105 C109 1.246 . S
O106 Mg101 2.032 . S
O106 C109 1.259 . S
O107 Mg98 2.114 . S
O107 C110 1.252 . S
O108 Mg98 2.251 . S
O108 Mg101 2.079 . S
O108 C110 1.273 . S
C109 O105 1.246 . S
C109 O106 1.259 . S
C110 O107 1.252 . S
C110 O108 1.273 . S
O111 Mg98 2.010 . S
O111 C103 1.249 . S
Mg112 O113 2.028 . S
Mg112 O119 1.986 . S
Mg112 O121 2.114 . S
Mg112 O122 2.251 . S
Mg112 O125 2.010 . S
O113 Mg112 2.028 . S
O113 C116 1.250 . S
O114 Mg115 2.028 . S
O114 C116 1.248 . S
Mg115 O114 2.028 . S
Mg115 O120 2.032 . S
Mg115 O122 2.079 . S
C116 O113 1.250 . S
C116 O114 1.248 . S
C117 O118 1.264 . S
C117 O125 1.249 . S
O118 C117 1.264 . S
O119 Mg112 1.986 . S
O119 C123 1.246 . S
O120 Mg115 2.032 . S
O120 C123 1.259 . S
O121 Mg112 2.114 . S
O121 C124 1.252 . S
O122 Mg112 2.251 . S
O122 Mg115 2.079 . S
O122 C124 1.273 . S
C123 O119 1.246 . S
C123 O120 1.259 . S
C124 O121 1.252 . S
C124 O122 1.273 . S
O125 Mg112 2.010 . S
O125 C117 1.249 . S
Mg126 O127 2.028 . S
Mg126 O133 1.986 . S
Mg126 O135 2.114 . S
Mg126 O136 2.251 . S
Mg126 O139 2.010 . S
O127 Mg126 2.028 . S
O127 C130 1.250 . S
O128 Mg129 2.028 . S
O128 C130 1.248 . S
Mg129 O128 2.028 . S
Mg129 O134 2.032 . S
Mg129 O136 2.079 . S
C130 O127 1.250 . S
C130 O128 1.248 . S
C131 O132 1.264 . S
C131 O139 1.249 . S
O132 C131 1.264 . S
O133 Mg126 1.986 . S
O133 C137 1.246 . S
O134 Mg129 2.032 . S
O134 C137 1.259 . S
O135 Mg126 2.114 . S
O135 C138 1.252 . S
O136 Mg126 2.251 . S
O136 Mg129 2.079 . S
O136 C138 1.273 . S
C137 O133 1.246 . S
C137 O134 1.259 . S
C138 O135 1.252 . S
C138 O136 1.273 . S
O139 Mg126 2.010 . S
O139 C131 1.249 . S
Mg140 O141 2.028 . S
Mg140 O147 1.986 . S
Mg140 O149 2.114 . S
Mg140 O150 2.251 . S
Mg140 O153 2.010 . S
O141 Mg140 2.028 . S
O141 C144 1.250 . S
O142 Mg143 2.028 . S
O142 C144 1.248 . S
Mg143 O142 2.028 . S
Mg143 O148 2.032 . S
Mg143 O150 2.079 . S
C144 O141 1.250 . S
C144 O142 1.248 . S
C145 O146 1.264 . S
C145 O153 1.249 . S
O146 C145 1.264 . S
O147 Mg140 1.986 . S
O147 C151 1.246 . S
O148 Mg143 2.032 . S
O148 C151 1.259 . S
O149 Mg140 2.114 . S
O149 C152 1.252 . S
O150 Mg140 2.251 . S
O150 Mg143 2.079 . S
O150 C152 1.273 . S
C151 O147 1.246 . S
C151 O148 1.259 . S
C152 O149 1.252 . S
C152 O150 1.273 . S
O153 Mg140 2.010 . S
O153 C145 1.249 . S
Mg154 O155 2.028 . S
Mg154 O161 1.986 . S
Mg154 O163 2.114 . S
Mg154 O164 2.251 . S
Mg154 O167 2.010 . S
O155 Mg154 2.028 . S
O155 C158 1.250 . S
O156 Mg157 2.028 . S
O156 C158 1.248 . S
Mg157 O156 2.028 . S
Mg157 O162 2.032 . S
Mg157 O164 2.079 . S
C158 O155 1.250 . S
C158 O156 1.248 . S
C159 O160 1.264 . S
C159 O167 1.249 . S
O160 C159 1.264 . S
O161 Mg154 1.986 . S
O161 C165 1.246 . S
O162 Mg157 2.032 . S
O162 C165 1.259 . S
O163 Mg154 2.114 . S
O163 C166 1.252 . S
O164 Mg154 2.251 . S
O164 Mg157 2.079 . S
O164 C166 1.273 . S
C165 O161 1.246 . S
C165 O162 1.259 . S
C166 O163 1.252 . S
C166 O164 1.273 . S
O167 Mg154 2.010 . S
O167 C159 1.249 . S
Mg168 O169 2.028 . S
Mg168 O175 1.986 . S
Mg168 O177 2.114 . S
Mg168 O178 2.251 . S
Mg168 O181 2.010 . S
O169 Mg168 2.028 . S
O169 C172 1.250 . S
O170 Mg171 2.028 . S
O170 C172 1.248 . S
Mg171 O170 2.028 . S
Mg171 O176 2.032 . S
Mg171 O178 2.079 . S
C172 O169 1.250 . S
C172 O170 1.248 . S
C173 O174 1.264 . S
C173 O181 1.249 . S
O174 C173 1.264 . S
O175 Mg168 1.986 . S
O175 C179 1.246 . S
O176 Mg171 2.032 . S
O176 C179 1.259 . S
O177 Mg168 2.114 . S
O177 C180 1.252 . S
O178 Mg168 2.251 . S
O178 Mg171 2.079 . S
O178 C180 1.273 . S
C179 O175 1.246 . S
C179 O176 1.259 . S
C180 O177 1.252 . S
C180 O178 1.273 . S
O181 Mg168 2.010 . S
O181 C173 1.249 . S
Mg182 O183 2.028 . S
Mg182 O189 1.986 . S
Mg182 O191 2.114 . S
Mg182 O192 2.251 . S
Mg182 O195 2.010 . S
O183 Mg182 2.028 . S
O183 C186 1.250 . S
O184 Mg185 2.028 . S
O184 C186 1.248 . S
Mg185 O184 2.028 . S
Mg185 O190 2.032 . S
Mg185 O192 2.079 . S
C186 O183 1.250 . S
C186 O184 1.248 . S
C187 O188 1.264 . S
C187 O195 1.249 . S
O188 C187 1.264 . S
O189 Mg182 1.986 . S
O189 C193 1.246 . S
O190 Mg185 2.032 . S
O190 C193 1.259 . S
O191 Mg182 2.114 . S
O191 C194 1.252 . S
O192 Mg182 2.251 . S
O192 Mg185 2.079 . S
O192 C194 1.273 . S
C193 O189 1.246 . S
C193 O190 1.259 . S
C194 O191 1.252 . S
C194 O192 1.273 . S
O195 Mg182 2.010 . S
O195 C187 1.249 . S
Mg196 O197 2.028 . S
Mg196 O203 1.986 . S
Mg196 O205 2.114 . S
Mg196 O206 2.251 . S
Mg196 O209 2.010 . S
O197 Mg196 2.028 . S
O197 C200 1.250 . S
O198 Mg199 2.028 . S
O198 C200 1.248 . S
Mg199 O198 2.028 . S
Mg199 O204 2.032 . S
Mg199 O206 2.079 . S
C200 O197 1.250 . S
C200 O198 1.248 . S
C201 O202 1.264 . S
C201 O209 1.249 . S
O202 C201 1.264 . S
O203 Mg196 1.986 . S
O203 C207 1.246 . S
O204 Mg199 2.032 . S
O204 C207 1.259 . S
O205 Mg196 2.114 . S
O205 C208 1.252 . S
O206 Mg196 2.251 . S
O206 Mg199 2.079 . S
O206 C208 1.273 . S
C207 O203 1.246 . S
C207 O204 1.259 . S
C208 O205 1.252 . S
C208 O206 1.273 . S
O209 Mg196 2.010 . S
O209 C201 1.249 . S
Mg210 O211 2.028 . S
Mg210 O217 1.986 . S
Mg210 O219 2.114 . S
Mg210 O220 2.251 . S
Mg210 O223 2.010 . S
O211 Mg210 2.028 . S
O211 C214 1.250 . S
O212 Mg213 2.028 . S
O212 C214 1.248 . S
Mg213 O212 2.028 . S
Mg213 O218 2.032 . S
Mg213 O220 2.079 . S
C214 O211 1.250 . S
C214 O212 1.248 . S
C215 O216 1.264 . S
C215 O223 1.249 . S
O216 C215 1.264 . S
O217 Mg210 1.986 . S
O217 C221 1.246 . S
O218 Mg213 2.032 . S
O218 C221 1.259 . S
O219 Mg210 2.114 . S
O219 C222 1.252 . S
O220 Mg210 2.251 . S
O220 Mg213 2.079 . S
O220 C222 1.273 . S
C221 O217 1.246 . S
C221 O218 1.259 . S
C222 O219 1.252 . S
C222 O220 1.273 . S
O223 Mg210 2.010 . S
O223 C215 1.249 . S
Mg224 O225 2.028 . S
Mg224 O231 1.986 . S
Mg224 O233 2.114 . S
Mg224 O234 2.251 . S
Mg224 O237 2.010 . S
O225 Mg224 2.028 . S
O225 C228 1.250 . S
O226 Mg227 2.028 . S
O226 C228 1.248 . S
Mg227 O226 2.028 . S
Mg227 O232 2.032 . S
Mg227 O234 2.079 . S
C228 O225 1.250 . S
C228 O226 1.248 . S
C229 O230 1.264 . S
C229 O237 1.249 . S
O230 C229 1.264 . S
O231 Mg224 1.986 . S
O231 C235 1.246 . S
O232 Mg227 2.032 . S
O232 C235 1.259 . S
O233 Mg224 2.114 . S
O233 C236 1.252 . S
O234 Mg224 2.251 . S
O234 Mg227 2.079 . S
O234 C236 1.273 . S
C235 O231 1.246 . S
C235 O232 1.259 . S
C236 O233 1.252 . S
C236 O234 1.273 . S
O237 Mg224 2.010 . S
O237 C229 1.249 . S
Mg238 O239 2.028 . S
Mg238 O245 1.986 . S
Mg238 O247 2.114 . S
Mg238 O248 2.251 . S
Mg238 O251 2.010 . S
O239 Mg238 2.028 . S
O239 C242 1.250 . S
O240 Mg241 2.028 . S
O240 C242 1.248 . S
Mg241 O240 2.028 . S
Mg241 O246 2.032 . S
Mg241 O248 2.079 . S
C242 O239 1.250 . S
C242 O240 1.248 . S
C243 O244 1.264 . S
C243 O251 1.249 . S
O244 C243 1.264 . S
O245 Mg238 1.986 . S
O245 C249 1.246 . S
O246 Mg241 2.032 . S
O246 C249 1.259 . S
O247 Mg238 2.114 . S
O247 C250 1.252 . S
O248 Mg238 2.251 . S
O248 Mg241 2.079 . S
O248 C250 1.273 . S
C249 O245 1.246 . S
C249 O246 1.259 . S
C250 O247 1.252 . S
C250 O248 1.273 . S
O251 Mg238 2.010 . S
O251 C243 1.249 . S
C252 C253 1.363 . S
C252 C258 1.379 . S
C252 N260 1.356 . S
C253 C252 1.363 . S
C253 C259 1.363 . S
C254 C255 1.363 . S
C254 C259 1.379 . S
C254 N261 1.356 . S
C255 C254 1.363 . S
C255 C258 1.363 . S
N256 C258 1.356 . S
N256 H268 0.984 . S
N256 H269 0.985 . S
N257 C259 1.356 . S
N257 H262 0.984 . S
N257 H263 0.985 . S
C258 C252 1.379 . S
C258 C255 1.363 . S
C258 N256 1.356 . S
C259 C253 1.363 . S
C259 C254 1.379 . S
C259 N257 1.356 . S
N260 C252 1.356 . S
N260 H266 0.984 . S
N260 H267 0.984 . S
N261 C254 1.356 . S
N261 H264 0.984 . S
N261 H265 0.985 . S
H262 N257 0.984 . S
H263 N257 0.985 . S
H264 N261 0.984 . S
H265 N261 0.985 . S
H266 N260 0.984 . S
H267 N260 0.984 . S
H268 N256 0.984 . S
H269 N256 0.985 . S
C270 C271 1.363 . S
C270 C276 1.379 . S
C270 N278 1.356 . S
C271 C270 1.363 . S
C271 C277 1.363 . S
C272 C273 1.363 . S
C272 C277 1.379 . S
C272 N279 1.356 . S
C273 C272 1.363 . S
C273 C276 1.363 . S
N274 C276 1.356 . S
N274 H286 0.984 . S
N274 H287 0.985 . S
N275 C277 1.356 . S
N275 H280 0.984 . S
N275 H281 0.985 . S
C276 C270 1.379 . S
C276 C273 1.363 . S
C276 N274 1.356 . S
C277 C271 1.363 . S
C277 C272 1.379 . S
C277 N275 1.356 . S
N278 C270 1.356 . S
N278 H284 0.984 . S
N278 H285 0.984 . S
N279 C272 1.356 . S
N279 H282 0.984 . S
N279 H283 0.985 . S
H280 N275 0.984 . S
H281 N275 0.985 . S
H282 N279 0.984 . S
H283 N279 0.985 . S
H284 N278 0.984 . S
H285 N278 0.984 . S
H286 N274 0.984 . S
H287 N274 0.985 . S
C288 C289 1.363 . S
C288 C294 1.379 . S
C288 N296 1.356 . S
C289 C288 1.363 . S
C289 C295 1.363 . S
C290 C291 1.363 . S
C290 C295 1.379 . S
C290 N297 1.356 . S
C291 C290 1.363 . S
C291 C294 1.363 . S
N292 C294 1.356 . S
N292 H304 0.984 . S
N292 H305 0.985 . S
N293 C295 1.356 . S
N293 H298 0.984 . S
N293 H299 0.985 . S
C294 C288 1.379 . S
C294 C291 1.363 . S
C294 N292 1.356 . S
C295 C289 1.363 . S
C295 C290 1.379 . S
C295 N293 1.356 . S
N296 C288 1.356 . S
N296 H302 0.984 . S
N296 H303 0.984 . S
N297 C290 1.356 . S
N297 H300 0.984 . S
N297 H301 0.985 . S
H298 N293 0.984 . S
H299 N293 0.985 . S
H300 N297 0.984 . S
H301 N297 0.985 . S
H302 N296 0.984 . S
H303 N296 0.984 . S
H304 N292 0.984 . S
H305 N292 0.985 . S
C306 C307 1.363 . S
C306 C312 1.379 . S
C306 N314 1.356 . S
C307 C306 1.363 . S
C307 C313 1.363 . S
C308 C309 1.363 . S
C308 C313 1.379 . S
C308 N315 1.356 . S
C309 C308 1.363 . S
C309 C312 1.363 . S
N310 C312 1.356 . S
N310 H322 0.984 . S
N310 H323 0.985 . S
N311 C313 1.356 . S
N311 H316 0.984 . S
N311 H317 0.985 . S
C312 C306 1.379 . S
C312 C309 1.363 . S
C312 N310 1.356 . S
C313 C307 1.363 . S
C313 C308 1.379 . S
C313 N311 1.356 . S
N314 C306 1.356 . S
N314 H320 0.984 . S
N314 H321 0.984 . S
N315 C308 1.356 . S
N315 H318 0.984 . S
N315 H319 0.985 . S
H316 N311 0.984 . S
H317 N311 0.985 . S
H318 N315 0.984 . S
H319 N315 0.985 . S
H320 N314 0.984 . S
H321 N314 0.984 . S
H322 N310 0.984 . S
H323 N310 0.985 . S
C324 C325 1.363 . S
C324 C330 1.379 . S
C324 N332 1.356 . S
C325 C324 1.363 . S
C325 C331 1.363 . S
C326 C327 1.363 . S
C326 C331 1.379 . S
C326 N333 1.356 . S
C327 C326 1.363 . S
C327 C330 1.363 . S
N328 C330 1.356 . S
N328 H340 0.984 . S
N328 H341 0.985 . S
N329 C331 1.356 . S
N329 H334 0.984 . S
N329 H335 0.985 . S
C330 C324 1.379 . S
C330 C327 1.363 . S
C330 N328 1.356 . S
C331 C325 1.363 . S
C331 C326 1.379 . S
C331 N329 1.356 . S
N332 C324 1.356 . S
N332 H338 0.984 . S
N332 H339 0.984 . S
N333 C326 1.356 . S
N333 H336 0.984 . S
N333 H337 0.985 . S
H334 N329 0.984 . S
H335 N329 0.985 . S
H336 N333 0.984 . S
H337 N333 0.985 . S
H338 N332 0.984 . S
H339 N332 0.984 . S
H340 N328 0.984 . S
H341 N328 0.985 . S
C342 C343 1.363 . S
C342 C348 1.379 . S
C342 N350 1.356 . S
C343 C342 1.363 . S
C343 C349 1.363 . S
C344 C345 1.363 . S
C344 C349 1.379 . S
C344 N351 1.356 . S
C345 C344 1.363 . S
C345 C348 1.363 . S
N346 C348 1.356 . S
N346 H358 0.984 . S
N346 H359 0.985 . S
N347 C349 1.356 . S
N347 H352 0.984 . S
N347 H353 0.985 . S
C348 C342 1.379 . S
C348 C345 1.363 . S
C348 N346 1.356 . S
C349 C343 1.363 . S
C349 C344 1.379 . S
C349 N347 1.356 . S
N350 C342 1.356 . S
N350 H356 0.984 . S
N350 H357 0.984 . S
N351 C344 1.356 . S
N351 H354 0.984 . S
N351 H355 0.985 . S
H352 N347 0.984 . S
H353 N347 0.985 . S
H354 N351 0.984 . S
H355 N351 0.985 . S
H356 N350 0.984 . S
H357 N350 0.984 . S
H358 N346 0.984 . S
H359 N346 0.985 . S
C360 C361 1.363 . S
C360 C366 1.379 1_654 S
C360 N368 1.356 . S
C361 C360 1.363 . S
C361 C367 1.363 . S
C362 C363 1.363 . S
C362 C367 1.379 1_456 S
C362 N369 1.356 . S
C363 C362 1.363 . S
C363 C366 1.363 . S
N364 C366 1.356 . S
N364 H376 0.984 . S
N364 H377 0.985 . S
N365 C367 1.356 . S
N365 H370 0.984 . S
N365 H371 0.985 . S
C366 C360 1.379 1_456 S
C366 C363 1.363 . S
C366 N364 1.356 . S
C367 C361 1.363 . S
C367 C362 1.379 1_654 S
C367 N365 1.356 . S
N368 C360 1.356 . S
N368 H374 0.984 . S
N368 H375 0.984 . S
N369 C362 1.356 . S
N369 H372 0.984 . S
N369 H373 0.985 . S
H370 N365 0.984 . S
H371 N365 0.985 . S
H372 N369 0.984 . S
H373 N369 0.985 . S
H374 N368 0.984 . S
H375 N368 0.984 . S
H376 N364 0.984 . S
H377 N364 0.985 . S
C378 C379 1.363 1_556 S
C378 C384 1.379 . S
C378 N386 1.356 1_556 S
C379 C378 1.363 1_554 S
C379 C385 1.363 . S
C380 C381 1.363 1_554 S
C380 C385 1.379 . S
C380 N387 1.356 1_554 S
C381 C380 1.363 1_556 S
C381 C384 1.363 . S
N382 C384 1.356 . S
N382 H394 0.984 . S
N382 H395 0.985 . S
N383 C385 1.356 . S
N383 H388 0.984 . S
N383 H389 0.985 . S
C384 C378 1.379 . S
C384 C381 1.363 . S
C384 N382 1.356 . S
C385 C379 1.363 . S
C385 C380 1.379 . S
C385 N383 1.356 . S
N386 C378 1.356 1_554 S
N386 H392 0.984 1_554 S
N386 H393 0.984 . S
N387 C380 1.356 1_556 S
N387 H390 0.984 . S
N387 H391 0.985 1_556 S
H388 N383 0.984 . S
H389 N383 0.985 . S
H390 N387 0.984 . S
H391 N387 0.985 1_554 S
H392 N386 0.984 1_556 S
H393 N386 0.984 . S
H394 N382 0.984 . S
H395 N382 0.985 . S
C396 C397 1.363 1_565 S
C396 C402 1.379 . S
C396 N404 1.356 . S
C397 C396 1.363 1_545 S
C397 C403 1.363 1_554 S
C398 C399 1.363 1_545 S
C398 C403 1.379 . S
C398 N405 1.356 . S
C399 C398 1.363 1_565 S
C399 C402 1.363 1_556 S
N400 C402 1.356 1_556 S
N400 H412 0.984 1_556 S
N400 H413 0.985 . S
N401 C403 1.356 1_554 S
N401 H406 0.984 . S
N401 H407 0.985 1_554 S
C402 C396 1.379 . S
C402 C399 1.363 1_554 S
C402 N400 1.356 1_554 S
C403 C397 1.363 1_556 S
C403 C398 1.379 . S
C403 N401 1.356 1_556 S
N404 C396 1.356 . S
N404 H410 0.984 . S
N404 H411 0.984 1_565 S
N405 C398 1.356 . S
N405 H408 0.984 1_545 S
N405 H409 0.985 . S
H406 N401 0.984 . S
H407 N401 0.985 1_556 S
H408 N405 0.984 1_565 S
H409 N405 0.985 . S
H410 N404 0.984 . S
H411 N404 0.984 1_545 S
H412 N400 0.984 1_554 S
H413 N400 0.985 . S
C414 C415 1.363 . S
C414 C420 1.379 . S
C414 N422 1.356 . S
C415 C414 1.363 . S
C415 C421 1.363 . S
C416 C417 1.363 . S
C416 C421 1.379 . S
C416 N423 1.356 . S
C417 C416 1.363 . S
C417 C420 1.363 . S
N418 C420 1.356 . S
N418 H430 0.984 . S
N418 H431 0.985 . S
N419 C421 1.356 . S
N419 H424 0.984 1_556 S
N419 H425 0.985 1_556 S
C420 C414 1.379 . S
C420 C417 1.363 . S
C420 N418 1.356 . S
C421 C415 1.363 . S
C421 C416 1.379 . S
C421 N419 1.356 . S
N422 C414 1.356 . S
N422 H428 0.984 . S
N422 H429 0.984 . S
N423 C416 1.356 . S
N423 H426 0.984 . S
N423 H427 0.985 . S
H424 N419 0.984 1_554 S
H425 N419 0.985 1_554 S
H426 N423 0.984 . S
H427 N423 0.985 . S
H428 N422 0.984 . S
H429 N422 0.984 . S
H430 N418 0.984 . S
H431 N418 0.985 . S
C432 C433 1.363 . S
C432 C438 1.379 . S
C432 N440 1.356 . S
C433 C432 1.363 . S
C433 C439 1.363 . S
C434 C435 1.363 . S
C434 C439 1.379 . S
C434 N441 1.356 . S
C435 C434 1.363 . S
C435 C438 1.363 . S
N436 C438 1.356 . S
N436 H448 0.984 1_556 S
N436 H449 0.985 1_556 S
N437 C439 1.356 . S
N437 H442 0.984 . S
N437 H443 0.985 . S
C438 C432 1.379 . S
C438 C435 1.363 . S
C438 N436 1.356 . S
C439 C433 1.363 . S
C439 C434 1.379 . S
C439 N437 1.356 . S
N440 C432 1.356 . S
N440 H446 0.984 . S
N440 H447 0.984 . S
N441 C434 1.356 . S
N441 H444 0.984 . S
N441 H445 0.985 . S
H442 N437 0.984 . S
H443 N437 0.985 . S
H444 N441 0.984 . S
H445 N441 0.985 . S
H446 N440 0.984 . S
H447 N440 0.984 . S
H448 N436 0.984 1_554 S
H449 N436 0.985 1_554 S
C450 C451 1.363 . S
C450 C456 1.379 . S
C450 N458 1.356 . S
C451 C450 1.363 . S
C451 C457 1.363 . S
C452 C453 1.363 . S
C452 C457 1.379 . S
C452 N459 1.356 . S
C453 C452 1.363 . S
C453 C456 1.363 . S
N454 C456 1.356 . S
N454 H466 0.984 . S
N454 H467 0.985 . S
N455 C457 1.356 . S
N455 H460 0.984 . S
N455 H461 0.985 . S
C456 C450 1.379 . S
C456 C453 1.363 . S
C456 N454 1.356 . S
C457 C451 1.363 . S
C457 C452 1.379 . S
C457 N455 1.356 . S
N458 C450 1.356 . S
N458 H464 0.984 . S
N458 H465 0.984 . S
N459 C452 1.356 . S
N459 H462 0.984 . S
N459 H463 0.985 . S
H460 N455 0.984 . S
H461 N455 0.985 . S
H462 N459 0.984 . S
H463 N459 0.985 . S
H464 N458 0.984 . S
H465 N458 0.984 . S
H466 N454 0.984 . S
H467 N454 0.985 . S
C468 C469 1.363 . S
C468 C474 1.379 . S
C468 N476 1.356 . S
C469 C468 1.363 . S
C469 C475 1.363 . S
C470 C471 1.363 . S
C470 C475 1.379 . S
C470 N477 1.356 . S
C471 C470 1.363 . S
C471 C474 1.363 . S
N472 C474 1.356 . S
N472 H484 0.984 . S
N472 H485 0.985 . S
N473 C475 1.356 . S
N473 H478 0.984 . S
N473 H479 0.985 . S
C474 C468 1.379 . S
C474 C471 1.363 . S
C474 N472 1.356 . S
C475 C469 1.363 . S
C475 C470 1.379 . S
C475 N473 1.356 . S
N476 C468 1.356 . S
N476 H482 0.984 . S
N476 H483 0.984 . S
N477 C470 1.356 . S
N477 H480 0.984 . S
N477 H481 0.985 . S
H478 N473 0.984 . S
H479 N473 0.985 . S
H480 N477 0.984 . S
H481 N477 0.985 . S
H482 N476 0.984 . S
H483 N476 0.984 . S
H484 N472 0.984 . S
H485 N472 0.985 . S
C486 C487 1.363 . S
C486 C492 1.379 . S
C486 N494 1.356 . S
C487 C486 1.363 . S
C487 C493 1.363 . S
C488 C489 1.363 . S
C488 C493 1.379 . S
C488 N495 1.356 . S
C489 C488 1.363 . S
C489 C492 1.363 . S
N490 C492 1.356 . S
N490 H502 0.984 . S
N490 H503 0.985 . S
N491 C493 1.356 . S
N491 H496 0.984 1_554 S
N491 H497 0.985 1_554 S
C492 C486 1.379 . S
C492 C489 1.363 . S
C492 N490 1.356 . S
C493 C487 1.363 . S
C493 C488 1.379 . S
C493 N491 1.356 . S
N494 C486 1.356 . S
N494 H500 0.984 . S
N494 H501 0.984 . S
N495 C488 1.356 . S
N495 H498 0.984 . S
N495 H499 0.985 . S
H496 N491 0.984 1_556 S
H497 N491 0.985 1_556 S
H498 N495 0.984 . S
H499 N495 0.985 . S
H500 N494 0.984 . S
H501 N494 0.984 . S
H502 N490 0.984 . S
H503 N490 0.985 . S
C504 C505 1.363 . S
C504 C510 1.379 . S
C504 N512 1.356 . S
C505 C504 1.363 . S
C505 C511 1.363 . S
C506 C507 1.363 . S
C506 C511 1.379 . S
C506 N513 1.356 . S
C507 C506 1.363 . S
C507 C510 1.363 . S
N508 C510 1.356 . S
N508 H520 0.984 . S
N508 H521 0.985 . S
N509 C511 1.356 . S
N509 H514 0.984 . S
N509 H515 0.985 . S
C510 C504 1.379 . S
C510 C507 1.363 . S
C510 N508 1.356 . S
C511 C505 1.363 . S
C511 C506 1.379 . S
C511 N509 1.356 . S
N512 C504 1.356 . S
N512 H518 0.984 . S
N512 H519 0.984 . S
N513 C506 1.356 . S
N513 H516 0.984 . S
N513 H517 0.985 . S
H514 N509 0.984 . S
H515 N509 0.985 . S
H516 N513 0.984 . S
H517 N513 0.985 . S
H518 N512 0.984 . S
H519 N512 0.984 . S
H520 N508 0.984 . S
H521 N508 0.985 . S
C522 C523 1.363 1_455 S
C522 C528 1.379 . S
C522 N530 1.356 . S
C523 C522 1.363 1_655 S
C523 C529 1.363 . S
C524 C525 1.363 1_655 S
C524 C529 1.379 . S
C524 N531 1.356 . S
C525 C524 1.363 1_455 S
C525 C528 1.363 . S
N526 C528 1.356 . S
N526 H538 0.984 . S
N526 H539 0.985 . S
N527 C529 1.356 . S
N527 H532 0.984 . S
N527 H533 0.985 . S
C528 C522 1.379 . S
C528 C525 1.363 . S
C528 N526 1.356 . S
C529 C523 1.363 . S
C529 C524 1.379 . S
C529 N527 1.356 . S
N530 C522 1.356 . S
N530 H536 0.984 . S
N530 H537 0.984 1_455 S
N531 C524 1.356 . S
N531 H534 0.984 1_655 S
N531 H535 0.985 . S
H532 N527 0.984 . S
H533 N527 0.985 . S
H534 N531 0.984 1_455 S
H535 N531 0.985 . S
H536 N530 0.984 . S
H537 N530 0.984 1_655 S
H538 N526 0.984 . S
H539 N526 0.985 . S
C540 C541 1.363 . S
C540 C546 1.379 . S
C540 N548 1.356 . S
C541 C540 1.363 . S
C541 C547 1.363 . S
C542 C543 1.363 . S
C542 C547 1.379 . S
C542 N549 1.356 . S
C543 C542 1.363 . S
C543 C546 1.363 . S
N544 C546 1.356 . S
N544 H556 0.984 . S
N544 H557 0.985 . S
N545 C547 1.356 . S
N545 H550 0.984 . S
N545 H551 0.985 . S
C546 C540 1.379 . S
C546 C543 1.363 . S
C546 N544 1.356 . S
C547 C541 1.363 . S
C547 C542 1.379 . S
C547 N545 1.356 . S
N548 C540 1.356 . S
N548 H554 0.984 . S
N548 H555 0.984 . S
N549 C542 1.356 . S
N549 H552 0.984 . S
N549 H553 0.985 . S
H550 N545 0.984 . S
H551 N545 0.985 . S
H552 N549 0.984 . S
H553 N549 0.985 . S
H554 N548 0.984 . S
H555 N548 0.984 . S
H556 N544 0.984 . S
H557 N544 0.985 . S
C558 C559 1.363 1_545 S
C558 C564 1.379 . S
C558 N566 1.356 . S
C559 C558 1.363 1_565 S
C559 C565 1.363 . S
C560 C561 1.363 1_565 S
C560 C565 1.379 . S
C560 N567 1.356 . S
C561 C560 1.363 1_545 S
C561 C564 1.363 . S
N562 C564 1.356 . S
N562 H574 0.984 . S
N562 H575 0.985 . S
N563 C565 1.356 . S
N563 H568 0.984 . S
N563 H569 0.985 . S
C564 C558 1.379 . S
C564 C561 1.363 . S
C564 N562 1.356 . S
C565 C559 1.363 . S
C565 C560 1.379 . S
C565 N563 1.356 . S
N566 C558 1.356 . S
N566 H572 0.984 . S
N566 H573 0.984 1_545 S
N567 C560 1.356 . S
N567 H570 0.984 1_565 S
N567 H571 0.985 . S
H568 N563 0.984 . S
H569 N563 0.985 . S
H570 N567 0.984 1_545 S
H571 N567 0.985 . S
H572 N566 0.984 . S
H573 N566 0.984 1_565 S
H574 N562 0.984 . S
H575 N562 0.985 . S
C576 C577 1.363 . S
C576 C582 1.379 . S
C576 N584 1.356 . S
C577 C576 1.363 . S
C577 C583 1.363 1_554 S
C578 C579 1.363 . S
C578 C583 1.379 . S
C578 N585 1.356 . S
C579 C578 1.363 . S
C579 C582 1.363 1_556 S
N580 C582 1.356 . S
N580 H592 0.984 . S
N580 H593 0.985 . S
N581 C583 1.356 . S
N581 H586 0.984 . S
N581 H587 0.985 . S
C582 C576 1.379 . S
C582 C579 1.363 1_554 S
C582 N580 1.356 . S
C583 C577 1.363 1_556 S
C583 C578 1.379 . S
C583 N581 1.356 . S
N584 C576 1.356 . S
N584 H590 0.984 . S
N584 H591 0.984 . S
N585 C578 1.356 . S
N585 H588 0.984 . S
N585 H589 0.985 . S
H586 N581 0.984 . S
H587 N581 0.985 . S
H588 N585 0.984 . S
H589 N585 0.985 . S
H590 N584 0.984 . S
H591 N584 0.984 . S
H592 N580 0.984 . S
H593 N580 0.985 . S
C594 C595 1.363 . S
C594 C600 1.379 1_545 S
C594 N602 1.356 . S
C595 C594 1.363 . S
C595 C601 1.363 1_556 S
C596 C597 1.363 . S
C596 C601 1.379 1_565 S
C596 N603 1.356 . S
C597 C596 1.363 . S
C597 C600 1.363 1_554 S
N598 C600 1.356 . S
N598 H610 0.984 . S
N598 H611 0.985 . S
N599 C601 1.356 . S
N599 H604 0.984 . S
N599 H605 0.985 . S
C600 C594 1.379 1_565 S
C600 C597 1.363 1_556 S
C600 N598 1.356 . S
C601 C595 1.363 1_554 S
C601 C596 1.379 1_545 S
C601 N599 1.356 . S
N602 C594 1.356 . S
N602 H608 0.984 . S
N602 H609 0.984 . S
N603 C596 1.356 . S
N603 H606 0.984 . S
N603 H607 0.985 . S
H604 N599 0.984 . S
H605 N599 0.985 . S
H606 N603 0.984 . S
H607 N603 0.985 . S
H608 N602 0.984 . S
H609 N602 0.984 . S
H610 N598 0.984 . S
H611 N598 0.985 . S
C612 C613 1.363 1_554 S
C612 C618 1.379 1_655 S
C612 N620 1.356 . S
C613 C612 1.363 1_556 S
C613 C619 1.363 . S
C614 C615 1.363 1_556 S
C614 C619 1.379 1_455 S
C614 N621 1.356 . S
C615 C614 1.363 1_554 S
C615 C618 1.363 . S
N616 C618 1.356 . S
N616 H628 0.984 . S
N616 H629 0.985 . S
N617 C619 1.356 . S
N617 H622 0.984 . S
N617 H623 0.985 . S
C618 C612 1.379 1_455 S
C618 C615 1.363 . S
C618 N616 1.356 . S
C619 C613 1.363 . S
C619 C614 1.379 1_655 S
C619 N617 1.356 . S
N620 C612 1.356 . S
N620 H626 0.984 . S
N620 H627 0.984 . S
N621 C614 1.356 . S
N621 H624 0.984 . S
N621 H625 0.985 . S
H622 N617 0.984 . S
H623 N617 0.985 . S
H624 N621 0.984 . S
H625 N621 0.985 . S
H626 N620 0.984 . S
H627 N620 0.984 . S
H628 N616 0.984 . S
H629 N616 0.985 . S
C630 C631 1.363 . S
C630 C636 1.379 . S
C630 N638 1.356 . S
C631 C630 1.363 . S
C631 C637 1.363 1_556 S
C632 C633 1.363 . S
C632 C637 1.379 . S
C632 N639 1.356 . S
C633 C632 1.363 . S
C633 C636 1.363 1_554 S
N634 C636 1.356 1_554 S
N634 H646 0.984 1_554 S
N634 H647 0.985 . S
N635 C637 1.356 1_556 S
N635 H640 0.984 . S
N635 H641 0.985 1_556 S
C636 C630 1.379 . S
C636 C633 1.363 1_556 S
C636 N634 1.356 1_556 S
C637 C631 1.363 1_554 S
C637 C632 1.379 . S
C637 N635 1.356 1_554 S
N638 C630 1.356 . S
N638 H644 0.984 . S
N638 H645 0.984 . S
N639 C632 1.356 . S
N639 H642 0.984 . S
N639 H643 0.985 . S
H640 N635 0.984 . S
H641 N635 0.985 1_554 S
H642 N639 0.984 . S
H643 N639 0.985 . S
H644 N638 0.984 . S
H645 N638 0.984 . S
H646 N634 0.984 1_556 S
H647 N634 0.985 . S
C648 C649 1.363 . S
C648 C654 1.379 1_565 S
C648 N656 1.356 . S
C649 C648 1.363 . S
C649 C655 1.363 1_554 S
C650 C651 1.363 . S
C650 C655 1.379 1_545 S
C650 N657 1.356 . S
C651 C650 1.363 . S
C651 C654 1.363 1_556 S
N652 C654 1.356 . S
N652 H664 0.984 . S
N652 H665 0.985 . S
N653 C655 1.356 . S
N653 H658 0.984 . S
N653 H659 0.985 . S
C654 C648 1.379 1_545 S
C654 C651 1.363 1_554 S
C654 N652 1.356 . S
C655 C649 1.363 1_556 S
C655 C650 1.379 1_565 S
C655 N653 1.356 . S
N656 C648 1.356 . S
N656 H662 0.984 . S
N656 H663 0.984 . S
N657 C650 1.356 . S
N657 H660 0.984 . S
N657 H661 0.985 . S
H658 N653 0.984 . S
H659 N653 0.985 . S
H660 N657 0.984 . S
H661 N657 0.985 . S
H662 N656 0.984 . S
H663 N656 0.984 . S
H664 N652 0.984 . S
H665 N652 0.985 . S
C666 C667 1.363 1_554 S
C666 C672 1.379 1_655 S
C666 N674 1.356 . S
C667 C666 1.363 1_556 S
C667 C673 1.363 . S
C668 C669 1.363 1_556 S
C668 C673 1.379 1_455 S
C668 N675 1.356 . S
C669 C668 1.363 1_554 S
C669 C672 1.363 . S
N670 C672 1.356 . S
N670 H682 0.984 . S
N670 H683 0.985 . S
N671 C673 1.356 . S
N671 H676 0.984 . S
N671 H677 0.985 . S
C672 C666 1.379 1_455 S
C672 C669 1.363 . S
C672 N670 1.356 . S
C673 C667 1.363 . S
C673 C668 1.379 1_655 S
C673 N671 1.356 . S
N674 C666 1.356 . S
N674 H680 0.984 . S
N674 H681 0.984 . S
N675 C668 1.356 . S
N675 H678 0.984 . S
N675 H679 0.985 . S
H676 N671 0.984 . S
H677 N671 0.985 . S
H678 N675 0.984 . S
H679 N675 0.985 . S
H680 N674 0.984 . S
H681 N674 0.984 . S
H682 N670 0.984 . S
H683 N670 0.985 . S
C684 C685 1.363 . S
C684 C690 1.379 . S
C684 N692 1.356 . S
C685 C684 1.363 . S
C685 C691 1.363 . S
C686 C687 1.363 . S
C686 C691 1.379 . S
C686 N693 1.356 . S
C687 C686 1.363 . S
C687 C690 1.363 . S
N688 C690 1.356 . S
N688 H700 0.984 . S
N688 H701 0.985 . S
N689 C691 1.356 . S
N689 H694 0.984 . S
N689 H695 0.985 . S
C690 C684 1.379 . S
C690 C687 1.363 . S
C690 N688 1.356 . S
C691 C685 1.363 . S
C691 C686 1.379 . S
C691 N689 1.356 . S
N692 C684 1.356 . S
N692 H698 0.984 . S
N692 H699 0.984 . S
N693 C686 1.356 . S
N693 H696 0.984 . S
N693 H697 0.985 . S
H694 N689 0.984 . S
H695 N689 0.985 . S
H696 N693 0.984 . S
H697 N693 0.985 . S
H698 N692 0.984 . S
H699 N692 0.984 . S
H700 N688 0.984 . S
H701 N688 0.985 . S
C702 C703 1.363 . S
C702 C708 1.379 . S
C702 N710 1.356 . S
C703 C702 1.363 . S
C703 C709 1.363 . S
C704 C705 1.363 . S
C704 C709 1.379 . S
C704 N711 1.356 . S
C705 C704 1.363 . S
C705 C708 1.363 . S
N706 C708 1.356 . S
N706 H718 0.984 . S
N706 H719 0.985 . S
N707 C709 1.356 . S
N707 H712 0.984 . S
N707 H713 0.985 . S
C708 C702 1.379 . S
C708 C705 1.363 . S
C708 N706 1.356 . S
C709 C703 1.363 . S
C709 C704 1.379 . S
C709 N707 1.356 . S
N710 C702 1.356 . S
N710 H716 0.984 . S
N710 H717 0.984 . S
N711 C704 1.356 . S
N711 H714 0.984 . S
N711 H715 0.985 . S
H712 N707 0.984 . S
H713 N707 0.985 . S
H714 N711 0.984 . S
H715 N711 0.985 . S
H716 N710 0.984 . S
H717 N710 0.984 . S
H718 N706 0.984 . S
H719 N706 0.985 . S
C720 C721 1.363 . S
C720 C726 1.379 . S
C720 N728 1.356 . S
C721 C720 1.363 . S
C721 C727 1.363 . S
C722 C723 1.363 . S
C722 C727 1.379 . S
C722 N729 1.356 . S
C723 C722 1.363 . S
C723 C726 1.363 . S
N724 C726 1.356 . S
N724 H736 0.984 . S
N724 H737 0.985 . S
N725 C727 1.356 . S
N725 H730 0.984 . S
N725 H731 0.985 . S
C726 C720 1.379 . S
C726 C723 1.363 . S
C726 N724 1.356 . S
C727 C721 1.363 . S
C727 C722 1.379 . S
C727 N725 1.356 . S
N728 C720 1.356 . S
N728 H734 0.984 . S
N728 H735 0.984 . S
N729 C722 1.356 . S
N729 H732 0.984 . S
N729 H733 0.985 . S
H730 N725 0.984 . S
H731 N725 0.985 . S
H732 N729 0.984 . S
H733 N729 0.985 . S
H734 N728 0.984 . S
H735 N728 0.984 . S
H736 N724 0.984 . S
H737 N724 0.985 . S
C738 C739 1.363 . S
C738 C744 1.379 . S
C738 N746 1.356 . S
C739 C738 1.363 . S
C739 C745 1.363 . S
C740 C741 1.363 . S
C740 C745 1.379 . S
C740 N747 1.356 . S
C741 C740 1.363 . S
C741 C744 1.363 . S
N742 C744 1.356 . S
N742 H754 0.984 . S
N742 H755 0.985 . S
N743 C745 1.356 . S
N743 H748 0.984 . S
N743 H749 0.985 . S
C744 C738 1.379 . S
C744 C741 1.363 . S
C744 N742 1.356 . S
C745 C739 1.363 . S
C745 C740 1.379 . S
C745 N743 1.356 . S
N746 C738 1.356 . S
N746 H752 0.984 . S
N746 H753 0.984 . S
N747 C740 1.356 . S
N747 H750 0.984 . S
N747 H751 0.985 . S
H748 N743 0.984 . S
H749 N743 0.985 . S
H750 N747 0.984 . S
H751 N747 0.985 . S
H752 N746 0.984 . S
H753 N746 0.984 . S
H754 N742 0.984 . S
H755 N742 0.985 . S
C756 C757 1.363 . S
C756 C762 1.379 . S
C756 N764 1.356 . S
C757 C756 1.363 . S
C757 C763 1.363 . S
C758 C759 1.363 . S
C758 C763 1.379 . S
C758 N765 1.356 . S
C759 C758 1.363 . S
C759 C762 1.363 . S
N760 C762 1.356 . S
N760 H772 0.984 . S
N760 H773 0.985 . S
N761 C763 1.356 . S
N761 H766 0.984 . S
N761 H767 0.985 . S
C762 C756 1.379 . S
C762 C759 1.363 . S
C762 N760 1.356 . S
C763 C757 1.363 . S
C763 C758 1.379 . S
C763 N761 1.356 . S
N764 C756 1.356 . S
N764 H770 0.984 . S
N764 H771 0.984 . S
N765 C758 1.356 . S
N765 H768 0.984 . S
N765 H769 0.985 . S
H766 N761 0.984 . S
H767 N761 0.985 . S
H768 N765 0.984 . S
H769 N765 0.985 . S
H770 N764 0.984 . S
H771 N764 0.984 . S
H772 N760 0.984 . S
H773 N760 0.985 . S
C774 C775 1.363 . S
C774 C780 1.379 . S
C774 N782 1.356 . S
C775 C774 1.363 . S
C775 C781 1.363 . S
C776 C777 1.363 . S
C776 C781 1.379 . S
C776 N783 1.356 . S
C777 C776 1.363 . S
C777 C780 1.363 . S
N778 C780 1.356 . S
N778 H790 0.984 . S
N778 H791 0.985 . S
N779 C781 1.356 . S
N779 H784 0.984 . S
N779 H785 0.985 . S
C780 C774 1.379 . S
C780 C777 1.363 . S
C780 N778 1.356 . S
C781 C775 1.363 . S
C781 C776 1.379 . S
C781 N779 1.356 . S
N782 C774 1.356 . S
N782 H788 0.984 . S
N782 H789 0.984 . S
N783 C776 1.356 . S
N783 H786 0.984 . S
N783 H787 0.985 . S
H784 N779 0.984 . S
H785 N779 0.985 . S
H786 N783 0.984 . S
H787 N783 0.985 . S
H788 N782 0.984 . S
H789 N782 0.984 . S
H790 N778 0.984 . S
H791 N778 0.985 . S
C792 C793 1.363 . S
C792 C798 1.379 . S
C792 N800 1.356 . S
C793 C792 1.363 . S
C793 C799 1.363 . S
C794 C795 1.363 . S
C794 C799 1.379 . S
C794 N801 1.356 . S
C795 C794 1.363 . S
C795 C798 1.363 . S
N796 C798 1.356 . S
N796 H808 0.984 . S
N796 H809 0.985 . S
N797 C799 1.356 . S
N797 H802 0.984 . S
N797 H803 0.985 . S
C798 C792 1.379 . S
C798 C795 1.363 . S
C798 N796 1.356 . S
C799 C793 1.363 . S
C799 C794 1.379 . S
C799 N797 1.356 . S
N800 C792 1.356 . S
N800 H806 0.984 . S
N800 H807 0.984 . S
N801 C794 1.356 . S
N801 H804 0.984 . S
N801 H805 0.985 . S
H802 N797 0.984 . S
H803 N797 0.985 . S
H804 N801 0.984 . S
H805 N801 0.985 . S
H806 N800 0.984 . S
H807 N800 0.984 . S
H808 N796 0.984 . S
H809 N796 0.985 . S
C810 C811 1.363 . S
C810 C816 1.379 . S
C810 N818 1.356 . S
C811 C810 1.363 . S
C811 C817 1.363 . S
C812 C813 1.363 . S
C812 C817 1.379 . S
C812 N819 1.356 . S
C813 C812 1.363 . S
C813 C816 1.363 . S
N814 C816 1.356 . S
N814 H826 0.984 . S
N814 H827 0.985 . S
N815 C817 1.356 . S
N815 H820 0.984 . S
N815 H821 0.985 . S
C816 C810 1.379 . S
C816 C813 1.363 . S
C816 N814 1.356 . S
C817 C811 1.363 . S
C817 C812 1.379 . S
C817 N815 1.356 . S
N818 C810 1.356 . S
N818 H824 0.984 . S
N818 H825 0.984 . S
N819 C812 1.356 . S
N819 H822 0.984 . S
N819 H823 0.985 . S
H820 N815 0.984 . S
H821 N815 0.985 . S
H822 N819 0.984 . S
H823 N819 0.985 . S
H824 N818 0.984 . S
H825 N818 0.984 . S
H826 N814 0.984 . S
H827 N814 0.985 . S
C828 C829 1.363 . S
C828 C834 1.379 . S
C828 N836 1.356 . S
C829 C828 1.363 . S
C829 C835 1.363 . S
C830 C831 1.363 . S
C830 C835 1.379 . S
C830 N837 1.356 . S
C831 C830 1.363 . S
C831 C834 1.363 . S
N832 C834 1.356 . S
N832 H844 0.984 . S
N832 H845 0.985 . S
N833 C835 1.356 . S
N833 H838 0.984 . S
N833 H839 0.985 . S
C834 C828 1.379 . S
C834 C831 1.363 . S
C834 N832 1.356 . S
C835 C829 1.363 . S
C835 C830 1.379 . S
C835 N833 1.356 . S
N836 C828 1.356 . S
N836 H842 0.984 . S
N836 H843 0.984 . S
N837 C830 1.356 . S
N837 H840 0.984 . S
N837 H841 0.985 . S
H838 N833 0.984 . S
H839 N833 0.985 . S
H840 N837 0.984 . S
H841 N837 0.985 . S
H842 N836 0.984 . S
H843 N836 0.984 . S
H844 N832 0.984 . S
H845 N832 0.985 . S
C846 C847 1.363 . S
C846 C852 1.379 . S
C846 N854 1.356 . S
C847 C846 1.363 . S
C847 C853 1.363 . S
C848 C849 1.363 . S
C848 C853 1.379 . S
C848 N855 1.356 . S
C849 C848 1.363 . S
C849 C852 1.363 . S
N850 C852 1.356 . S
N850 H862 0.984 . S
N850 H863 0.985 . S
N851 C853 1.356 . S
N851 H856 0.984 . S
N851 H857 0.985 . S
C852 C846 1.379 . S
C852 C849 1.363 . S
C852 N850 1.356 . S
C853 C847 1.363 . S
C853 C848 1.379 . S
C853 N851 1.356 . S
N854 C846 1.356 . S
N854 H860 0.984 . S
N854 H861 0.984 . S
N855 C848 1.356 . S
N855 H858 0.984 . S
N855 H859 0.985 . S
H856 N851 0.984 . S
H857 N851 0.985 . S
H858 N855 0.984 . S
H859 N855 0.985 . S
H860 N854 0.984 . S
H861 N854 0.984 . S
H862 N850 0.984 . S
H863 N850 0.985 . S
C864 C865 1.363 . S
C864 C870 1.379 . S
C864 N872 1.356 . S
C865 C864 1.363 . S
C865 C871 1.363 . S
C866 C867 1.363 . S
C866 C871 1.379 . S
C866 N873 1.356 . S
C867 C866 1.363 . S
C867 C870 1.363 . S
N868 C870 1.356 . S
N868 H880 0.984 . S
N868 H881 0.985 . S
N869 C871 1.356 . S
N869 H874 0.984 . S
N869 H875 0.985 . S
C870 C864 1.379 . S
C870 C867 1.363 . S
C870 N868 1.356 . S
C871 C865 1.363 . S
C871 C866 1.379 . S
C871 N869 1.356 . S
N872 C864 1.356 . S
N872 H878 0.984 . S
N872 H879 0.984 . S
N873 C866 1.356 . S
N873 H876 0.984 . S
N873 H877 0.985 . S
H874 N869 0.984 . S
H875 N869 0.985 . S
H876 N873 0.984 . S
H877 N873 0.985 . S
H878 N872 0.984 . S
H879 N872 0.984 . S
H880 N868 0.984 . S
H881 N868 0.985 . S
C882 C883 1.363 . S
C882 C888 1.379 . S
C882 N890 1.356 . S
C883 C882 1.363 . S
C883 C889 1.363 . S
C884 C885 1.363 . S
C884 C889 1.379 . S
C884 N891 1.356 . S
C885 C884 1.363 . S
C885 C888 1.363 . S
N886 C888 1.356 . S
N886 H898 0.984 . S
N886 H899 0.985 . S
N887 C889 1.356 . S
N887 H892 0.984 . S
N887 H893 0.985 . S
C888 C882 1.379 . S
C888 C885 1.363 . S
C888 N886 1.356 . S
C889 C883 1.363 . S
C889 C884 1.379 . S
C889 N887 1.356 . S
N890 C882 1.356 . S
N890 H896 0.984 . S
N890 H897 0.984 . S
N891 C884 1.356 . S
N891 H894 0.984 . S
N891 H895 0.985 . S
H892 N887 0.984 . S
H893 N887 0.985 . S
H894 N891 0.984 . S
H895 N891 0.985 . S
H896 N890 0.984 . S
H897 N890 0.984 . S
H898 N886 0.984 . S
H899 N886 0.985 . S
C253 C249 1.561 . S
C255 C11 1.561 . S
C271 C221 1.561 . S
C273 C25 1.561 . S
C289 C235 1.561 . S
C291 C39 1.561 . S
C307 C109 1.561 . S
C309 C53 1.561 . S
C325 C123 1.561 . S
C327 C67 1.561 . S
C343 C81 1.561 . S
C345 C95 1.561 . S
C361 C137 1.561 . S
C363 C193 1.561 . S
C379 C151 1.561 . S
C381 C207 1.561 . S
C397 C165 1.561 . S
C399 C179 1.561 . S
C415 C4 1.321 . S
C417 C242 1.321 . S
C433 C214 1.321 . S
C435 C18 1.321 . S
C451 C32 1.321 . S
C453 C228 1.321 . S
C469 C102 1.321 . S
C471 C46 1.321 . S
C487 C60 1.321 . S
C489 C116 1.321 . S
C505 C74 1.321 . S
C507 C88 1.321 . S
C523 C130 1.321 . S
C525 C186 1.321 . S
C541 C200 1.321 . S
C543 C144 1.321 . S
C559 C172 1.321 . S
C561 C158 1.321 . S
C577 C5 1.302 . S
C579 C47 1.302 . S
C595 C61 1.302 . S
C597 C19 1.302 . S
C613 C75 1.302 . S
C615 C33 1.302 . S
C631 C82 1.461 . S
C633 C26 1.461 . S
C649 C40 1.462 . S
C651 C54 1.462 . S
C667 C68 1.462 . S
C669 C12 1.462 . S
C685 C89 1.302 . S
C687 C131 1.302 . S
C703 C145 1.302 . S
C705 C103 1.302 . S
C721 C159 1.302 . S
C723 C117 1.302 . S
C739 C166 1.461 . S
C741 C110 1.461 . S
C757 C124 1.462 . S
C759 C138 1.462 . S
C775 C152 1.462 . S
C777 C96 1.462 . S
C793 C215 1.302 . S
C795 C173 1.302 . S
C811 C229 1.302 . S
C813 C187 1.302 . S
C829 C201 1.302 . S
C831 C243 1.302 . S
C847 C250 1.461 . S
C849 C194 1.461 . S
C865 C208 1.462 . S
C867 C222 1.462 . S
C883 C236 1.462 . S
C885 C180 1.462 . S
