# Generated by pormake.
# Topology wiu, (6)-cn, num edge types: 1
# Building blocks:
#     Node 0, Type 0, BuildingBlock: VOLQOD_clean_sbu_1, # of connection points: 6
#     Node 1, Type 0, BuildingBlock: VOLQOD_clean_sbu_1, # of connection points: 6
#     Node 2, Type 0, BuildingBlock: VOLQOD_clean_sbu_1, # of connection points: 6
#     Node 3, Type 0, BuildingBlock: VOLQOD_clean_sbu_1, # of connection points: 6
#     Node 4, Type 0, BuildingBlock: VOLQOD_clean_sbu_1, # of connection points: 6
#     Node 5, Type 0, BuildingBlock: VOLQOD_clean_sbu_1, # of connection points: 6
#     Node 6, Type 0, BuildingBlock: VOLQOD_clean_sbu_1, # of connection points: 6
#     Node 7, Type 0, BuildingBlock: VOLQOD_clean_sbu_1, # of connection points: 6
#     Node 8, Type 0, BuildingBlock: VOLQOD_clean_sbu_1, # of connection points: 6
#     Node 9, Type 0, BuildingBlock: VOLQOD_clean_sbu_1, # of connection points: 6
#     Node 10, Type 0, BuildingBlock: VOLQOD_clean_sbu_1, # of connection points: 6
#     Node 11, Type 0, BuildingBlock: VOLQOD_clean_sbu_1, # of connection points: 6
#     Node 12, Type 0, BuildingBlock: VOLQOD_clean_sbu_1, # of connection points: 6
#     Node 13, Type 0, BuildingBlock: VOLQOD_clean_sbu_1, # of connection points: 6
#     Node 14, Type 0, BuildingBlock: VOLQOD_clean_sbu_1, # of connection points: 6
#     Node 15, Type 0, BuildingBlock: VOLQOD_clean_sbu_1, # of connection points: 6
#     Edge 16, Type (0, 0), BuildingBlock: OJICUG_clean_linker_0, # of connection points: 2
#     Edge 17, Type (0, 0), BuildingBlock: OJICUG_clean_linker_0, # of connection points: 2
#     Edge 18, Type (0, 0), BuildingBlock: OJICUG_clean_linker_0, # of connection points: 2
#     Edge 19, Type (0, 0), BuildingBlock: OJICUG_clean_linker_0, # of connection points: 2
#     Edge 20, Type (0, 0), BuildingBlock: OJICUG_clean_linker_0, # of connection points: 2
#     Edge 21, Type (0, 0), BuildingBlock: OJICUG_clean_linker_0, # of connection points: 2
#     Edge 22, Type (0, 0), BuildingBlock: OJICUG_clean_linker_0, # of connection points: 2
#     Edge 23, Type (0, 0), BuildingBlock: OJICUG_clean_linker_0, # of connection points: 2
#     Edge 24, Type (0, 0), BuildingBlock: OJICUG_clean_linker_0, # of connection points: 2
#     Edge 25, Type (0, 0), BuildingBlock: OJICUG_clean_linker_0, # of connection points: 2
#     Edge 26, Type (0, 0), BuildingBlock: OJICUG_clean_linker_0, # of connection points: 2
#     Edge 27, Type (0, 0), BuildingBlock: OJICUG_clean_linker_0, # of connection points: 2
#     Edge 28, Type (0, 0), BuildingBlock: OJICUG_clean_linker_0, # of connection points: 2
#     Edge 29, Type (0, 0), BuildingBlock: OJICUG_clean_linker_0, # of connection points: 2
#     Edge 30, Type (0, 0), BuildingBlock: OJICUG_clean_linker_0, # of connection points: 2
#     Edge 31, Type (0, 0), BuildingBlock: OJICUG_clean_linker_0, # of connection points: 2
#     Edge 32, Type (0, 0), BuildingBlock: OJICUG_clean_linker_0, # of connection points: 2
#     Edge 33, Type (0, 0), BuildingBlock: OJICUG_clean_linker_0, # of connection points: 2
#     Edge 34, Type (0, 0), BuildingBlock: OJICUG_clean_linker_0, # of connection points: 2
#     Edge 35, Type (0, 0), BuildingBlock: OJICUG_clean_linker_0, # of connection points: 2
#     Edge 36, Type (0, 0), BuildingBlock: OJICUG_clean_linker_0, # of connection points: 2
#     Edge 37, Type (0, 0), BuildingBlock: OJICUG_clean_linker_0, # of connection points: 2
#     Edge 38, Type (0, 0), BuildingBlock: OJICUG_clean_linker_0, # of connection points: 2
#     Edge 39, Type (0, 0), BuildingBlock: OJICUG_clean_linker_0, # of connection points: 2
#     Edge 40, Type (0, 0), BuildingBlock: OJICUG_clean_linker_0, # of connection points: 2
#     Edge 41, Type (0, 0), BuildingBlock: OJICUG_clean_linker_0, # of connection points: 2
#     Edge 42, Type (0, 0), BuildingBlock: OJICUG_clean_linker_0, # of connection points: 2
#     Edge 43, Type (0, 0), BuildingBlock: OJICUG_clean_linker_0, # of connection points: 2
#     Edge 44, Type (0, 0), BuildingBlock: OJICUG_clean_linker_0, # of connection points: 2
#     Edge 45, Type (0, 0), BuildingBlock: OJICUG_clean_linker_0, # of connection points: 2
#     Edge 46, Type (0, 0), BuildingBlock: OJICUG_clean_linker_0, # of connection points: 2
#     Edge 47, Type (0, 0), BuildingBlock: OJICUG_clean_linker_0, # of connection points: 2
#     Edge 48, Type (0, 0), BuildingBlock: OJICUG_clean_linker_0, # of connection points: 2
#     Edge 49, Type (0, 0), BuildingBlock: OJICUG_clean_linker_0, # of connection points: 2
#     Edge 50, Type (0, 0), BuildingBlock: OJICUG_clean_linker_0, # of connection points: 2
#     Edge 51, Type (0, 0), BuildingBlock: OJICUG_clean_linker_0, # of connection points: 2
#     Edge 52, Type (0, 0), BuildingBlock: OJICUG_clean_linker_0, # of connection points: 2
#     Edge 53, Type (0, 0), BuildingBlock: OJICUG_clean_linker_0, # of connection points: 2
#     Edge 54, Type (0, 0), BuildingBlock: OJICUG_clean_linker_0, # of connection points: 2
#     Edge 55, Type (0, 0), BuildingBlock: OJICUG_clean_linker_0, # of connection points: 2
#     Edge 56, Type (0, 0), BuildingBlock: OJICUG_clean_linker_0, # of connection points: 2
#     Edge 57, Type (0, 0), BuildingBlock: OJICUG_clean_linker_0, # of connection points: 2
#     Edge 58, Type (0, 0), BuildingBlock: OJICUG_clean_linker_0, # of connection points: 2
#     Edge 59, Type (0, 0), BuildingBlock: OJICUG_clean_linker_0, # of connection points: 2
#     Edge 60, Type (0, 0), BuildingBlock: OJICUG_clean_linker_0, # of connection points: 2
#     Edge 61, Type (0, 0), BuildingBlock: OJICUG_clean_linker_0, # of connection points: 2
#     Edge 62, Type (0, 0), BuildingBlock: OJICUG_clean_linker_0, # of connection points: 2
#     Edge 63, Type (0, 0), BuildingBlock: OJICUG_clean_linker_0, # of connection points: 2
# Relax obj value: 0.181
# Max RMSD: 0.175
# Mean RMSD: 0.175
data_MOF--net-wiu--node1-VOLQOD_clean_sbu_1--edge1-OJICUG_clean_linker_0
_symmetry_space_group_name_H-M    P1
_symmetry_Int_Tables_number       1
_symmetry_cell_setting            triclinic
loop_
_symmetry_equiv_pos_as_xyz
'x, y, z'
_cell_length_a     25.40882
_cell_length_b     25.409192
_cell_length_c     43.392877
_cell_angle_alpha  89.999807
_cell_angle_beta   90.000415
_cell_angle_gamma 90.004787
loop_
_atom_site_label
_atom_site_type_symbol
_atom_site_fract_x
_atom_site_fract_y
_atom_site_fract_z
_atom_type_partial_charge
O0 O 0.36963 0.21732 0.0167 0.0
Zn1 Zn 0.30367 0.20131 0.03877 0.0
O2 O 0.31246 0.13437 0.05963 0.0
Zn3 Zn 0.28506 0.0754 0.03568 0.0
Zn4 Zn 0.3857 0.12201 0.06822 0.0
Zn5 Zn 0.27613 0.14405 0.09772 0.0
O6 O 0.23003 0.03608 0.06361 0.0
O7 O 0.21345 0.09853 0.09877 0.0
O8 O 0.24596 0.19597 0.00777 0.0
O9 O 0.23849 0.10878 0.00268 0.0
O10 O 0.34961 0.03128 0.01551 0.0
O11 O 0.41499 0.06226 0.04401 0.0
O12 O 0.40127 0.11085 0.1137 0.0
O13 O 0.28969 0.26235 0.06836 0.0
O14 O 0.32001 0.11917 0.13148 0.0
O15 O 0.26146 0.21947 0.10947 0.0
C16 C 0.4161 0.20784 0.02589 0.0
C17 C 0.20273 0.05464 0.08614 0.0
C18 C 0.399 0.03225 0.02256 0.0
C19 C 0.22515 0.15572 0.9953 0.0
C20 C 0.36829 0.10935 0.13582 0.0
C21 C 0.27212 0.26252 0.09589 0.0
O22 O 0.42595 0.17985 0.04954 0.0
O23 O 0.51204 0.6197 0.26753 0.0
Zn24 Zn 0.53206 0.56181 0.29449 0.0
O25 O 0.58727 0.59034 0.32035 0.0
Zn26 Zn 0.656 0.57809 0.30254 0.0
Zn27 Zn 0.57708 0.66513 0.32632 0.0
Zn28 Zn 0.57624 0.55376 0.35794 0.0
O29 O 0.69632 0.52658 0.33131 0.0
O30 O 0.63129 0.49887 0.36219 0.0
O31 O 0.56013 0.50826 0.26581 0.0
O32 O 0.64388 0.53452 0.26444 0.0
O33 O 0.69211 0.65012 0.28899 0.0
O34 O 0.63299 0.70892 0.30429 0.0
O35 O 0.5847 0.68357 0.37252 0.0
O36 O 0.46814 0.53542 0.31773 0.0
O37 O 0.58927 0.60245 0.39137 0.0
O38 O 0.50213 0.5269 0.3644 0.0
C39 C 0.50013 0.66559 0.27633 0.0
C40 C 0.6783 0.49538 0.35211 0.0
C41 C 0.67624 0.69821 0.29078 0.0
C42 C 0.60591 0.5068 0.25402 0.0
C43 C 0.59118 0.65184 0.39509 0.0
C44 C 0.46318 0.52343 0.34608 0.0
O45 O 0.50793 0.68025 0.30426 0.0
O46 O 0.14746 0.79972 0.51664 0.0
Zn47 Zn 0.21341 0.81572 0.53873 0.0
O48 O 0.20461 0.88265 0.55959 0.0
Zn49 Zn 0.23202 0.94163 0.53564 0.0
Zn50 Zn 0.13136 0.89501 0.56817 0.0
Zn51 Zn 0.24093 0.87295 0.59769 0.0
O52 O 0.28705 0.98093 0.56358 0.0
O53 O 0.3036 0.91849 0.59875 0.0
O54 O 0.27114 0.82106 0.50774 0.0
O55 O 0.27862 0.90825 0.50265 0.0
O56 O 0.16749 0.98576 0.51547 0.0
O57 O 0.10209 0.95479 0.54398 0.0
O58 O 0.11578 0.90613 0.61366 0.0
O59 O 0.22738 0.75467 0.56831 0.0
O60 O 0.19703 0.8978 0.63144 0.0
O61 O 0.25561 0.79752 0.60942 0.0
C62 C 0.10099 0.80921 0.52581 0.0
C63 C 0.31432 0.96238 0.58612 0.0
C64 C 0.1181 0.98481 0.52253 0.0
C65 C 0.29197 0.86131 0.49528 0.0
C66 C 0.14875 0.90762 0.63578 0.0
C67 C 0.24495 0.75449 0.59584 0.0
O68 O 0.09112 0.8372 0.54946 0.0
O69 O 1.00493 0.3974 0.7675 0.0
Zn70 Zn 0.98495 0.4553 0.79446 0.0
O71 O 0.92971 0.42681 0.82032 0.0
Zn72 Zn 0.86099 0.43909 0.80249 0.0
Zn73 Zn 0.93988 0.35202 0.82628 0.0
Zn74 Zn 0.94075 0.46338 0.85791 0.0
O75 O 0.82069 0.49061 0.83126 0.0
O76 O 0.88571 0.51828 0.86215 0.0
O77 O 0.95693 0.50888 0.76578 0.0
O78 O 0.87316 0.48269 0.76439 0.0
O79 O 0.82488 0.36707 0.78892 0.0
O80 O 0.88397 0.30825 0.80425 0.0
O81 O 0.93224 0.33357 0.87248 0.0
O82 O 0.04888 0.48162 0.81772 0.0
O83 O 0.92769 0.41469 0.89134 0.0
O84 O 0.01486 0.4902 0.86437 0.0
C85 C 0.01684 0.35151 0.77631 0.0
C86 C 0.83871 0.52179 0.85207 0.0
C87 C 0.84074 0.31898 0.79072 0.0
C88 C 0.91116 0.51038 0.75399 0.0
C89 C 0.92577 0.3653 0.89506 0.0
C90 C 0.05383 0.49363 0.84607 0.0
O91 O 0.00901 0.33686 0.80423 0.0
O92 O 0.64887 0.7602 0.97846 0.0
Zn93 Zn 0.70701 0.78036 0.95164 0.0
O94 O 0.67855 0.83554 0.92567 0.0
Zn95 Zn 0.69071 0.90438 0.94333 0.0
Zn96 Zn 0.60381 0.82524 0.9196 0.0
Zn97 Zn 0.71512 0.82454 0.88809 0.0
O98 O 0.74196 0.94473 0.91442 0.0
O99 O 0.77 0.87956 0.88376 0.0
O100 O 0.76036 0.80865 0.98045 0.0
O101 O 0.73443 0.89253 0.9814 0.0
O102 O 0.61862 0.94037 0.95681 0.0
O103 O 0.55986 0.88108 0.94164 0.0
O104 O 0.58541 0.83289 0.8734 0.0
O105 O 0.73357 0.71641 0.92835 0.0
O106 O 0.66654 0.83756 0.8546 0.0
O107 O 0.74179 0.75044 0.88166 0.0
C108 C 0.60319 0.748 0.9694 0.0
C109 C 0.77325 0.92667 0.89368 0.0
C110 C 0.57055 0.92444 0.95506 0.0
C111 C 0.76199 0.8546 0.99201 0.0
C112 C 0.61715 0.83941 0.85084 0.0
C113 C 0.74536 0.71148 0.89996 0.0
O114 O 0.58892 0.75584 0.94141 0.0
O115 O 0.46463 0.39389 0.72542 0.0
Zn116 Zn 0.44995 0.46016 0.70339 0.0
O117 O 0.38288 0.45243 0.68264 0.0
Zn118 Zn 0.32445 0.48005 0.7069 0.0
Zn119 Zn 0.36968 0.37943 0.67373 0.0
Zn120 Zn 0.39275 0.48934 0.6448 0.0
O121 O 0.28493 0.5352 0.67919 0.0
O122 O 0.3473 0.55203 0.64401 0.0
O123 O 0.4456 0.51792 0.7344 0.0
O124 O 0.35856 0.52647 0.73972 0.0
O125 O 0.28048 0.41558 0.7272 0.0
O126 O 0.30967 0.35041 0.69788 0.0
O127 O 0.35845 0.36463 0.62818 0.0
O128 O 0.51104 0.47358 0.67375 0.0
O129 O 0.36785 0.44603 0.61081 0.0
O130 O 0.46818 0.50407 0.63319 0.0
C131 C 0.4546 0.34757 0.71616 0.0
C132 C 0.30342 0.56264 0.65669 0.0
C133 C 0.28057 0.36634 0.71978 0.0
C134 C 0.40572 0.53929 0.74694 0.0
C135 C 0.35749 0.39793 0.60622 0.0
C136 C 0.5112 0.49228 0.64648 0.0
O137 O 0.42698 0.33819 0.69229 0.0
O138 O 0.86823 0.257 0.47848 0.0
Zn139 Zn 0.81011 0.23683 0.45164 0.0
O140 O 0.83859 0.18166 0.42567 0.0
Zn141 Zn 0.82642 0.11282 0.44332 0.0
Zn142 Zn 0.91334 0.19195 0.41962 0.0
Zn143 Zn 0.80204 0.19267 0.38808 0.0
O144 O 0.77518 0.07247 0.41441 0.0
O145 O 0.74716 0.13764 0.38374 0.0
O146 O 0.75674 0.20853 0.48043 0.0
O147 O 0.78268 0.12466 0.48139 0.0
O148 O 0.8985 0.0768 0.45681 0.0
O149 O 0.95727 0.13609 0.44165 0.0
O150 O 0.93177 0.18432 0.37342 0.0
O151 O 0.78355 0.30078 0.42835 0.0
O152 O 0.85065 0.17965 0.35461 0.0
O153 O 0.77535 0.26676 0.38166 0.0
C154 C 0.91392 0.26918 0.46944 0.0
C155 C 0.7439 0.09053 0.39367 0.0
C156 C 0.94658 0.09273 0.45506 0.0
C157 C 0.75511 0.16258 0.49199 0.0
C158 C 0.90004 0.1778 0.35086 0.0
C159 C 0.77176 0.30572 0.39996 0.0
O160 O 0.92823 0.26134 0.44145 0.0
O161 O 0.05247 0.62318 0.22544 0.0
Zn162 Zn 0.06715 0.55689 0.20343 0.0
O163 O 0.13424 0.56459 0.1827 0.0
Zn164 Zn 0.19265 0.53696 0.20697 0.0
Zn165 Zn 0.14747 0.63758 0.17378 0.0
Zn166 Zn 0.12438 0.52766 0.14486 0.0
O167 O 0.23217 0.48179 0.17926 0.0
O168 O 0.1698 0.46496 0.14409 0.0
O169 O 0.07147 0.49914 0.23445 0.0
O170 O 0.1585 0.49054 0.23977 0.0
O171 O 0.23663 0.60141 0.22728 0.0
O172 O 0.20748 0.66658 0.19795 0.0
O173 O 0.15873 0.65236 0.12822 0.0
O174 O 1.00607 0.54347 0.17379 0.0
O175 O 0.1493 0.57095 0.11087 0.0
O176 O 0.04894 0.51296 0.13323 0.0
C177 C 0.06251 0.66949 0.21617 0.0
C178 C 0.21368 0.45435 0.15677 0.0
C179 C 0.23656 0.65064 0.21985 0.0
C180 C 0.11134 0.47774 0.24699 0.0
C181 C 0.15969 0.61904 0.10627 0.0
C182 C 1.00593 0.52477 0.14651 0.0
O183 O 0.09017 0.67885 0.19231 0.0
O184 O 0.87249 0.71386 0.51874 0.0
Zn185 Zn 0.80595 0.69959 0.54057 0.0
O186 O 0.81308 0.63218 0.56093 0.0
Zn187 Zn 0.78553 0.57444 0.53614 0.0
Zn188 Zn 0.88591 0.61844 0.57001 0.0
Zn189 Zn 0.77566 0.6415 0.59864 0.0
O190 O 0.73053 0.53415 0.56351 0.0
O191 O 0.71288 0.59608 0.59882 0.0
O192 O 0.74822 0.69624 0.50947 0.0
O193 O 0.73906 0.60936 0.50366 0.0
O194 O 0.85 0.53112 0.51547 0.0
O195 O 0.91505 0.55904 0.54532 0.0
O196 O 0.89997 0.606 0.61556 0.0
O197 O 0.79276 0.76024 0.57053 0.0
O198 O 0.81844 0.61574 0.63267 0.0
O199 O 0.76106 0.71689 0.61061 0.0
C200 C 0.91865 0.70366 0.5282 0.0
C201 C 0.7027 0.55227 0.58594 0.0
C202 C 0.89918 0.53081 0.523 0.0
C203 C 0.72653 0.65671 0.49673 0.0
C204 C 0.8664 0.60484 0.63738 0.0
C205 C 0.77349 0.76006 0.59767 0.0
O206 O 0.92761 0.67608 0.55215 0.0
O207 O 0.00907 0.1172 0.76569 0.0
Zn208 Zn 0.02937 0.05896 0.79237 0.0
O209 O 0.08533 0.08701 0.81792 0.0
Zn210 Zn 0.15364 0.07469 0.79962 0.0
Zn211 Zn 0.07551 0.16175 0.82423 0.0
Zn212 Zn 0.07522 0.05009 0.85546 0.0
O213 O 0.19479 0.02352 0.82812 0.0
O214 O 0.13033 0.99518 0.85919 0.0
O215 O 0.05662 1.00532 0.76344 0.0
O216 O 0.14067 0.03064 0.76182 0.0
O217 O 0.18944 0.14665 0.78576 0.0
O218 O 0.13115 0.20562 0.80194 0.0
O219 O 0.08386 0.17975 0.87046 0.0
O220 O 0.96585 0.03273 0.81616 0.0
O221 O 0.08893 0.09844 0.88897 0.0
O222 O 1.00126 0.02339 0.86243 0.0
C223 C 0.99743 0.16297 0.77484 0.0
C224 C 0.17721 0.99206 0.8489 0.0
C225 C 0.17393 0.1948 0.78793 0.0
C226 C 0.10234 1.00321 0.75161 0.0
C227 C 0.09079 0.14779 0.89288 0.0
C228 C 0.96172 0.0204 0.84452 0.0
O229 O 1.00588 0.17717 0.80278 0.0
O230 O 0.6446 0.30324 0.01881 0.0
Zn231 Zn 0.71115 0.31753 0.04061 0.0
O232 O 0.70403 0.38494 0.06097 0.0
Zn233 Zn 0.73156 0.44268 0.03618 0.0
Zn234 Zn 0.6312 0.39867 0.07005 0.0
Zn235 Zn 0.74145 0.37564 0.09868 0.0
O236 O 0.78658 0.48297 0.06353 0.0
O237 O 0.80425 0.42104 0.09884 0.0
O238 O 0.76885 0.32087 0.0095 0.0
O239 O 0.77801 0.40775 0.00368 0.0
O240 O 0.66708 0.48598 0.0155 0.0
O241 O 0.60204 0.45804 0.04534 0.0
O242 O 0.61715 0.41116 0.1156 0.0
O243 O 0.72436 0.25689 0.07058 0.0
O244 O 0.69868 0.40144 0.13271 0.0
O245 O 0.75603 0.30026 0.11066 0.0
C246 C 0.59844 0.31342 0.02828 0.0
C247 C 0.81442 0.46485 0.08595 0.0
C248 C 0.6179 0.48626 0.02302 0.0
C249 C 0.79053 0.3604 0.99675 0.0
C250 C 0.65073 0.41235 0.13742 0.0
C251 C 0.74362 0.25709 0.09772 0.0
O252 O 0.58949 0.341 0.05223 0.0
O253 O 0.50812 0.89985 0.26572 0.0
Zn254 Zn 0.48779 0.95808 0.2924 0.0
O255 O 0.43185 0.92999 0.31796 0.0
Zn256 Zn 0.36353 0.94228 0.29967 0.0
Zn257 Zn 0.4417 0.85524 0.32426 0.0
Zn258 Zn 0.44198 0.96691 0.3555 0.0
O259 O 0.32238 0.99344 0.32817 0.0
O260 O 0.38684 0.02181 0.35924 0.0
O261 O 0.46049 0.0117 0.26348 0.0
O262 O 0.37645 0.98632 0.26186 0.0
O263 O 0.32773 0.87032 0.28583 0.0
O264 O 0.38605 0.81136 0.30198 0.0
O265 O 0.43337 0.83725 0.37049 0.0
O266 O 0.55131 0.98436 0.31618 0.0
O267 O 0.42829 0.91856 0.389 0.0
O268 O 0.51593 0.99366 0.36245 0.0
C269 C 0.51977 0.85408 0.27485 0.0
C270 C 0.33995 0.02492 0.34894 0.0
C271 C 0.34325 0.82217 0.28799 0.0
C272 C 0.41476 0.01378 0.25165 0.0
C273 C 0.42644 0.86921 0.39291 0.0
C274 C 0.55545 0.99668 0.34454 0.0
O275 O 0.51133 0.83986 0.30279 0.0
O276 O 0.14833 0.26087 0.47602 0.0
Zn277 Zn 0.20631 0.28103 0.44919 0.0
O278 O 0.1782 0.33703 0.42376 0.0
Zn279 Zn 0.19066 0.40524 0.44221 0.0
Zn280 Zn 0.10339 0.32733 0.41757 0.0
Zn281 Zn 0.2151 0.32688 0.3862 0.0
O282 O 0.24209 0.44634 0.41384 0.0
O283 O 0.27004 0.38202 0.38254 0.0
O284 O 0.26017 0.30807 0.47798 0.0
O285 O 0.23458 0.39199 0.48003 0.0
O286 O 0.11878 0.44116 0.45615 0.0
O287 O 0.05972 0.38307 0.43985 0.0
O288 O 0.08534 0.33566 0.37134 0.0
O289 O 0.23235 0.21755 0.42545 0.0
O290 O 0.16664 0.34059 0.35276 0.0
O291 O 0.24199 0.25292 0.37921 0.0
C292 C 0.10233 0.24953 0.46716 0.0
C293 C 0.27344 0.42879 0.39299 0.0
C294 C 0.0706 0.42574 0.45395 0.0
C295 C 0.26215 0.35361 0.49004 0.0
C296 C 0.11727 0.34252 0.3489 0.0
C297 C 0.24488 0.21339 0.39713 0.0
O298 O 0.0877 0.25798 0.43929 0.0
O299 O 0.96653 0.89815 0.22684 0.0
Zn300 Zn 0.95096 0.96439 0.20498 0.0
O301 O 0.88368 0.95622 0.18449 0.0
Zn302 Zn 0.8254 0.98355 0.20898 0.0
Zn303 Zn 0.87074 0.88315 0.17572 0.0
Zn304 Zn 0.89282 0.99306 0.14653 0.0
O305 O 0.78533 0.03843 0.18141 0.0
O306 O 0.84732 0.05582 0.14608 0.0
O307 O 0.94666 0.02208 0.23607 0.0
O308 O 0.85962 0.03018 0.24165 0.0
O309 O 0.78192 0.919 0.22954 0.0
O310 O 0.81157 0.85375 0.20045 0.0
O311 O 0.8584 0.8683 0.13024 0.0
O312 O 0.01157 0.97812 0.17506 0.0
O313 O 0.86709 0.94969 0.11272 0.0
O314 O 0.9682 1.00762 0.13443 0.0
C315 C 0.95684 0.85184 0.21746 0.0
C316 C 0.8035 0.06611 0.15893 0.0
C317 C 0.78246 0.86968 0.22235 0.0
C318 C 0.90677 0.04323 0.24874 0.0
C319 C 0.85672 0.90155 0.10826 0.0
C320 C 0.0114 0.9963 0.14767 0.0
O321 O 0.92888 0.8424 0.19373 0.0
O322 O 0.36873 0.75607 0.97601 0.0
Zn323 Zn 0.31073 0.73591 0.94919 0.0
O324 O 0.33884 0.67992 0.92376 0.0
Zn325 Zn 0.32639 0.61171 0.94221 0.0
Zn326 Zn 0.41363 0.68962 0.91756 0.0
Zn327 Zn 0.30192 0.69006 0.8862 0.0
O328 O 0.27495 0.57061 0.91385 0.0
O329 O 0.24699 0.63492 0.88255 0.0
O330 O 0.25689 0.70888 0.97799 0.0
O331 O 0.28249 0.62496 0.98004 0.0
O332 O 0.39828 0.57581 0.95615 0.0
O333 O 0.45732 0.63391 0.93984 0.0
O334 O 0.43168 0.6813 0.87132 0.0
O335 O 0.2847 0.7994 0.92544 0.0
O336 O 0.35037 0.67634 0.85276 0.0
O337 O 0.27505 0.76402 0.8792 0.0
C338 C 0.41471 0.76743 0.96713 0.0
C339 C 0.24359 0.58815 0.893 0.0
C340 C 0.44646 0.59124 0.95394 0.0
C341 C 0.25493 0.66334 0.99005 0.0
C342 C 0.39973 0.67443 0.84888 0.0
C343 C 0.27217 0.80355 0.89712 0.0
O344 O 0.42932 0.75898 0.93926 0.0
O345 O 0.55055 0.11893 0.72681 0.0
Zn346 Zn 0.56612 0.0527 0.70492 0.0
O347 O 0.63339 0.06091 0.68443 0.0
Zn348 Zn 0.69169 0.0336 0.70891 0.0
Zn349 Zn 0.64628 0.13399 0.67566 0.0
Zn350 Zn 0.62423 0.02408 0.64646 0.0
O351 O 0.73176 0.97873 0.68132 0.0
O352 O 0.66975 0.96133 0.646 0.0
O353 O 0.57046 0.99501 0.73601 0.0
O354 O 0.6575 0.98696 0.74158 0.0
O355 O 0.73515 0.09816 0.72946 0.0
O356 O 0.70545 0.16341 0.70038 0.0
O357 O 0.65859 0.14885 0.63018 0.0
O358 O 0.50549 0.03896 0.67502 0.0
O359 O 0.64993 0.06746 0.61265 0.0
O360 O 0.54886 0.00949 0.63438 0.0
C361 C 0.56022 0.16525 0.71743 0.0
C362 C 0.71358 0.95104 0.65885 0.0
C363 C 0.73458 0.14749 0.72227 0.0
C364 C 0.61036 0.97389 0.74868 0.0
C365 C 0.66028 0.11561 0.60819 0.0
C366 C 0.50566 0.02079 0.64763 0.0
O367 O 0.58814 0.1747 0.69368 0.0
C368 C 0.45916 0.28951 0.01025 0.0
C369 C 0.45995 0.23458 0.01161 0.0
H370 H 0.50572 0.35906 0.01463 0.0
C371 C 0.50736 0.20697 0.00812 0.0
H372 H 0.42262 0.31112 0.01272 0.0
C373 C 0.55466 0.23422 0.00879 0.0
C374 C 0.55383 0.28862 0.01354 0.0
H375 H 0.50803 0.16432 0.00876 0.0
H376 H 0.59117 0.21225 0.00998 0.0
C377 C 0.50644 0.31671 0.01154 0.0
C378 C 0.45945 0.73843 0.24834 0.0
C379 C 0.50319 0.70638 0.2531 0.0
H380 H 0.4328 0.81794 0.24724 0.0
C381 C 0.55381 0.72634 0.24753 0.0
H382 H 0.42012 0.72297 0.25113 0.0
C383 C 0.56125 0.78051 0.24815 0.0
C384 C 0.51741 0.81285 0.25184 0.0
H385 H 0.58789 0.70096 0.24934 0.0
H386 H 0.60053 0.79614 0.25088 0.0
C387 C 0.46695 0.7925 0.24628 0.0
C388 C 0.00974 0.81009 0.50803 0.0
C389 C 0.05714 0.78248 0.51152 0.0
H390 H 0.92594 0.80484 0.50989 0.0
C391 C 0.05792 0.72754 0.51014 0.0
H392 H 0.00908 0.85275 0.50867 0.0
C393 C 0.01063 0.70035 0.51144 0.0
C394 C 0.96325 0.72845 0.51344 0.0
H395 H 0.09445 0.70591 0.51262 0.0
H396 H 0.01134 0.65801 0.51452 0.0
C397 C 0.96244 0.78286 0.5087 0.0
C398 C 0.95586 0.23651 0.74815 0.0
C399 C 0.99974 0.20422 0.75184 0.0
H400 H 0.9291 0.31598 0.74932 0.0
C401 C 0.05019 0.22463 0.74628 0.0
H402 H 0.91661 0.2208 0.75088 0.0
C403 C 0.05761 0.27871 0.74833 0.0
C404 C 0.01382 0.31071 0.75308 0.0
H405 H 0.08433 0.1992 0.74723 0.0
H406 H 0.09693 0.29421 0.75112 0.0
C407 C 0.96324 0.29069 0.74751 0.0
C408 C 0.52953 0.70665 0.99602 0.0
C409 C 0.56191 0.75048 0.99237 0.0
H410 H 0.45005 0.6799 0.99443 0.0
C411 C 0.54141 0.80098 -0.00234 0.0
H412 H 0.54527 0.66736 0.99349 0.0
C413 C 0.48738 0.8084 0.99521 0.0
C414 C 0.45545 0.76457 0.99041 0.0
H415 H 0.56686 0.83513 0.99672 0.0
H416 H 0.47194 0.84769 0.99222 0.0
C417 C 0.47535 0.71404 0.99625 0.0
C418 C 0.47919 0.2086 0.73412 0.0
C419 C 0.53403 0.2094 0.73176 0.0
H420 H 0.40946 0.25517 0.731 0.0
C421 C 0.56181 0.25681 0.73477 0.0
H422 H 0.45745 0.17206 0.73206 0.0
C423 C 0.53454 0.3041 0.73465 0.0
C424 C 0.47992 0.30327 0.7309 0.0
H425 H 0.60442 0.25749 0.7334 0.0
H426 H 0.55644 0.34061 0.73304 0.0
C427 C 0.45194 0.25589 0.73338 0.0
C428 C 0.0418 0.30299 0.49628 0.0
C429 C 0.06161 0.25241 0.49045 0.0
H430 H 0.97199 0.34979 0.49355 0.0
C431 C 0.02961 0.20865 0.49525 0.0
H432 H 0.06719 0.33705 0.49446 0.0
C433 C 0.97559 0.21616 0.49772 0.0
C434 C 0.95517 0.26669 0.49243 0.0
H435 H 0.04499 0.16934 0.49226 0.0
H436 H 0.95011 0.18203 0.49677 0.0
C437 C 0.98763 0.31047 0.49607 0.0
C438 C 0.06515 0.76119 0.23336 0.0
C439 C 0.03717 0.7138 0.23089 0.0
H440 H 0.05965 0.845 0.23206 0.0
C441 C 0.98255 0.71297 0.23463 0.0
H442 H 0.10762 0.76189 0.23099 0.0
C443 C 0.95527 0.76026 0.23476 0.0
C444 C 0.98305 0.80767 0.23176 0.0
H445 H 0.96066 0.67645 0.23303 0.0
H446 H 0.91267 0.75957 0.2334 0.0
C447 C 0.03789 0.80848 0.23412 0.0
C448 C 0.49519 0.01345 0.01131 0.0
C449 C 0.44148 1.00332 0.00457 0.0
H450 H 0.57665 0.99829 0.0013 0.0
C451 C 0.43096 0.96837 0.98012 0.0
H452 H 0.50591 0.04041 0.02959 0.0
C453 C 0.47258 0.94398 0.96362 0.0
C454 C 0.52616 0.95392 0.9708 0.0
H455 H 0.39067 0.95966 0.97379 0.0
H456 H 0.46268 0.91671 0.94534 0.0
C457 C 0.53645 0.98956 0.99476 0.0
C458 C 0.74122 0.73225 0.25095 0.0
C459 C 0.70551 0.74258 0.27488 0.0
H460 H 0.79176 0.76275 0.21594 0.0
C461 C 0.69518 0.79617 0.28182 0.0
H462 H 0.75024 0.69203 0.24459 0.0
C463 C 0.71922 0.83776 0.26511 0.0
C464 C 0.75416 0.82719 0.24068 0.0
H465 H 0.66781 0.80611 0.30004 0.0
H466 H 0.71015 0.87806 0.27124 0.0
C467 C 0.76474 0.77348 0.23419 0.0
C468 C 0.08615 0.04871 0.4801 0.0
C469 C 0.07563 0.01376 0.50454 0.0
H470 H 0.05444 0.1004 0.44533 0.0
C471 C 0.02191 1.00366 0.51129 0.0
H472 H 0.12644 0.05741 0.47377 0.0
C473 C 0.98066 0.02758 0.49475 0.0
C474 C 0.99096 0.06322 0.47079 0.0
H475 H 0.01119 0.97671 0.52957 0.0
H476 H 0.94045 0.01888 0.5013 0.0
C477 C 0.04454 0.07313 0.46361 0.0
C478 C 0.82183 0.22101 0.78174 0.0
C479 C 0.81148 0.2746 0.77481 0.0
H480 H 0.80689 0.13912 0.77115 0.0
C481 C 0.77577 0.28493 0.75088 0.0
H482 H 0.84921 0.21108 0.79996 0.0
C483 C 0.75227 0.2437 0.73411 0.0
C484 C 0.76287 0.18999 0.74059 0.0
H485 H 0.76673 0.32515 0.74453 0.0
H486 H 0.72525 0.25442 0.71587 0.0
C487 C 0.79781 0.17942 0.76503 0.0
C488 C 0.26139 0.27016 0.73084 0.0
C489 C 0.25188 0.32386 0.7379 0.0
H490 H 0.24605 0.1887 0.74076 0.0
C491 C 0.21785 0.33435 0.76279 0.0
H492 H 0.28764 0.25947 0.71221 0.0
C493 C 0.19376 0.29272 0.77944 0.0
C494 C 0.20311 0.23916 0.77197 0.0
H495 H 0.20965 0.37463 0.76937 0.0
H496 H 0.16719 0.30261 0.79807 0.0
C497 C 0.23782 0.22889 0.74754 0.0
C498 C 0.3234 0.72425 0.27951 0.0
C499 C 0.31406 0.77781 0.27204 0.0
H500 H 0.30748 0.64234 0.26945 0.0
C501 C 0.27935 0.78808 0.2476 0.0
H502 H 0.34997 0.71436 0.29814 0.0
C503 C 0.25577 0.74682 0.23091 0.0
C504 C 0.26526 0.69312 0.23797 0.0
H505 H 0.27114 0.82828 0.24082 0.0
H506 H 0.22952 0.75752 0.21228 0.0
C507 C 0.29928 0.68262 0.26287 0.0
C508 C 0.97268 0.44497 0.46284 0.0
C509 C 0.02627 0.45472 0.47007 0.0
H510 H 0.8908 0.46018 0.4733 0.0
C511 C 0.03661 0.48948 0.49447 0.0
H512 H 0.96273 0.41831 0.44426 0.0
C513 C 0.99538 0.5127 0.51137 0.0
C514 C 0.94166 0.50274 0.50456 0.0
H515 H 0.07683 0.49801 0.50107 0.0
H516 H 1.00611 0.539 0.52997 0.0
C517 C 0.9311 0.46873 0.47968 0.0
C518 C 0.52169 0.50431 0.01137 0.0
C519 C 0.57541 0.51431 0.00458 0.0
H520 H 0.44025 0.51895 0.00105 0.0
C521 C 0.58597 0.54834 0.9797 0.0
H522 H 0.51098 0.47799 0.02997 0.0
C523 C 0.54438 0.57207 0.96285 0.0
C524 C 0.49079 0.56229 0.97006 0.0
H525 H 0.62626 0.55692 0.97333 0.0
H526 H 0.55432 0.59875 0.94428 0.0
C527 C 0.48046 0.5275 0.99446 0.0
C528 C 0.25553 0.3139 0.14475 0.0
C529 C 0.26449 0.3132 0.11264 0.0
H530 H 0.23441 0.36016 0.18442 0.0
C531 C 0.26506 0.36136 0.09672 0.0
H532 H 0.25538 0.27762 0.15785 0.0
C533 C 0.25336 0.40842 0.11206 0.0
C534 C 0.242 0.40872 0.14378 0.0
H535 H 0.27207 0.36249 0.07211 0.0
H536 H 0.25034 0.4444 0.09876 0.0
C537 C 0.24453 0.36123 0.16017 0.0
C538 C 0.3748 0.48199 0.33776 0.0
C539 C 0.41168 0.50459 0.35791 0.0
H540 H 0.30186 0.44037 0.33331 0.0
C541 C 0.39941 0.50764 0.38954 0.0
H542 H 0.3829 0.47918 0.3133 0.0
C543 C 0.3521 0.48672 0.40088 0.0
C544 C 0.31687 0.46143 0.38087 0.0
H545 H 0.42681 0.52532 0.40561 0.0
H546 H 0.34457 0.48757 0.42545 0.0
C547 C 0.32829 0.46003 0.34918 0.0
C548 C 0.26152 0.70309 0.64469 0.0
C549 C 0.25259 0.7038 0.61258 0.0
H550 H 0.28263 0.65681 0.68436 0.0
C551 C 0.25205 0.65565 0.59665 0.0
H552 H 0.26164 0.73936 0.6578 0.0
C553 C 0.26376 0.60858 0.61198 0.0
C554 C 0.27509 0.60827 0.6437 0.0
H555 H 0.24506 0.65453 0.57204 0.0
H556 H 0.2668 0.57262 0.59867 0.0
C557 C 0.27253 0.65574 0.6601 0.0
C558 C 0.14226 0.53494 0.83775 0.0
C559 C 0.10534 0.51242 0.8579 0.0
H560 H 0.21525 0.57649 0.83331 0.0
C561 C 0.11757 0.5094 0.88954 0.0
H562 H 0.1342 0.53773 0.81329 0.0
C563 C 0.16488 0.53029 0.90089 0.0
C564 C 0.20017 0.55551 0.88088 0.0
H565 H 0.09013 0.49177 0.90561 0.0
H566 H 0.17239 0.52947 0.92546 0.0
C567 C 0.18879 0.55688 0.84918 0.0
C568 C 0.80868 0.57656 0.89623 0.0
C569 C 0.8064 0.56519 0.86455 0.0
H570 H 0.7905 0.63114 0.93232 0.0
C571 C 0.78056 0.60045 0.8448 0.0
H572 H 0.82878 0.55012 0.9119 0.0
C573 C 0.75996 0.64773 0.85637 0.0
C574 C 0.76388 0.65997 0.88798 0.0
H575 H 0.77901 0.59296 0.82024 0.0
H576 H 0.74183 0.67515 0.84048 0.0
C577 C 0.78702 0.62306 0.90789 0.0
C578 C 0.61009 0.49862 0.64548 0.0
C579 C 0.56181 0.50011 0.6297 0.0
H580 H 0.69318 0.51309 0.64342 0.0
C581 C 0.56229 0.51039 0.59773 0.0
H582 H 0.61137 0.49061 0.66998 0.0
C583 C 0.60954 0.52183 0.58235 0.0
C584 C 0.65716 0.52347 0.59864 0.0
H585 H 0.52591 0.51129 0.58474 0.0
H586 H 0.60832 0.533 0.55826 0.0
C587 C 0.65709 0.51075 0.63018 0.0
C588 C 0.73003 0.39409 0.40791 0.0
C589 C 0.75321 0.35723 0.38799 0.0
H590 H 0.68821 0.467 0.41193 0.0
C591 C 0.75713 0.3695 0.35639 0.0
H592 H 0.72655 0.38599 0.43234 0.0
C593 C 0.7365 0.41677 0.34483 0.0
C594 C 0.71062 0.45199 0.36458 0.0
H595 H 0.77529 0.3421 0.34049 0.0
H596 H 0.73806 0.42428 0.32027 0.0
C597 C 0.70834 0.44058 0.39626 0.0
C598 C 0.86003 0.50639 0.13018 0.0
C599 C 0.85997 0.49365 0.09865 0.0
H600 H 0.90573 0.52654 0.16999 0.0
C601 C 0.9076 0.49522 0.08237 0.0
H602 H 0.82392 0.50409 0.14341 0.0
C603 C 0.95485 0.50665 0.09776 0.0
C604 C 0.95532 0.51696 0.12972 0.0
H605 H 0.90883 0.48403 0.05828 0.0
H606 H 0.99125 0.50571 0.08478 0.0
C607 C 0.90703 0.51851 0.14549 0.0
C608 C 0.76776 0.85898 0.59916 0.0
C609 C 0.76565 0.81046 0.61467 0.0
H610 H 0.75378 0.94214 0.60155 0.0
C611 C 0.75472 0.81053 0.64656 0.0
H612 H 0.77627 0.86059 0.57472 0.0
C613 C 0.74329 0.85763 0.66211 0.0
C614 C 0.74233 0.90552 0.64607 0.0
H615 H 0.75331 0.77396 0.65935 0.0
H616 H 0.73164 0.85611 0.68611 0.0
C617 C 0.75563 0.90583 0.61461 0.0
C618 C 0.85218 0.98456 0.90054 0.0
C619 C 0.81629 0.95916 0.88099 0.0
H620 H 0.92711 0.02301 0.90436 0.0
C621 C 0.82674 0.95741 0.84919 0.0
H622 H 0.8454 0.98566 0.92518 0.0
C623 C 0.87295 0.97917 0.8372 0.0
C624 C 0.91049 1.00186 0.85689 0.0
H625 H 0.7998 0.93763 0.83367 0.0
H626 H 0.88032 0.9761 0.81268 0.0
C627 C 0.89917 1.00525 0.88863 0.0
C628 C 0.76146 0.11131 0.1147 0.0
C629 C 0.77476 0.11164 0.14615 0.0
H630 H 0.74084 0.15654 0.07479 0.0
C631 C 0.77381 0.15954 0.16218 0.0
H632 H 0.7633 0.075 0.10164 0.0
C633 C 0.76238 0.20663 0.14662 0.0
C634 C 0.75145 0.20669 0.11473 0.0
H635 H 0.78546 0.16106 0.18619 0.0
H636 H 0.76379 0.24321 0.15941 0.0
C637 C 0.74933 0.15816 0.09923 0.0
C638 C 0.66502 0.03257 0.40052 0.0
C639 C 0.70085 0.05804 0.38097 0.0
H640 H 0.59014 0.99403 0.40436 0.0
C641 C 0.69036 0.05983 0.34918 0.0
H642 H 0.67184 0.03143 0.42516 0.0
C643 C 0.64415 0.03803 0.3372 0.0
C644 C 0.60667 0.01527 0.35689 0.0
H645 H 0.71726 0.07967 0.33366 0.0
H646 H 0.63675 0.04114 0.31268 0.0
C647 C 0.61803 0.01185 0.38863 0.0
C648 C 0.28589 0.12467 0.40483 0.0
C649 C 0.26374 0.16218 0.38492 0.0
H650 H 0.32733 0.05154 0.4088 0.0
C651 C 0.26124 0.15084 0.35315 0.0
H652 H 0.2883 0.13206 0.42938 0.0
C653 C 0.28227 0.10383 0.34147 0.0
C654 C 0.30711 0.06797 0.36129 0.0
H655 H 0.24392 0.17876 0.33724 0.0
H656 H 0.28187 0.09701 0.31682 0.0
C657 C 0.30798 0.07846 0.39309 0.0
C658 C 0.11029 1.00271 0.14635 0.0
C659 C 0.06188 1.00393 0.13069 0.0
H660 H 0.19341 0.01691 0.14398 0.0
C661 C 0.06216 0.01355 0.09865 0.0
H662 H 0.11175 0.9952 0.17091 0.0
C663 C 0.10934 0.02454 0.08306 0.0
C664 C 0.15711 0.02637 0.09921 0.0
H665 H 0.02568 0.01423 0.08575 0.0
H666 H 0.10797 0.03515 0.05889 0.0
C667 C 0.15721 0.0144 0.13085 0.0
C668 C 0.20918 0.93854 0.89305 0.0
C669 C 0.21004 0.94899 0.86124 0.0
H670 H 0.22883 0.88495 0.92936 0.0
C671 C 0.23484 0.9131 0.84143 0.0
H672 H 0.18986 0.96548 0.90876 0.0
C673 C 0.25584 0.86608 0.85313 0.0
C674 C 0.25334 0.85477 0.8849 0.0
H675 H 0.23523 0.9199 0.81679 0.0
H676 H 0.27312 0.83814 0.83722 0.0
C677 C 0.23124 0.89231 0.90481 0.0
C678 C 0.40677 0.01428 0.64634 0.0
C679 C 0.45517 0.01314 0.63066 0.0
H680 H 0.32367 0.99999 0.64399 0.0
C681 C 0.45487 1.00358 0.59862 0.0
H682 H 0.40533 0.02174 0.6709 0.0
C683 C 0.40768 0.99257 0.58303 0.0
C684 C 0.35994 0.99065 0.5992 0.0
H685 H 0.49134 1.00297 0.5857 0.0
H686 H 0.40904 0.98201 0.55886 0.0
C687 C 0.35985 1.00257 0.63085 0.0
C688 C 0.18791 0.20178 0.94907 0.0
C689 C 0.18338 0.16334 0.97225 0.0
H690 H 0.16006 0.22807 0.90492 0.0
C691 C 0.13957 0.12998 0.97246 0.0
H692 H 0.22114 0.22849 0.94881 0.0
C693 C 0.10359 0.13138 0.9483 0.0
C694 C 0.11184 0.16482 0.9229 0.0
H695 H 0.13448 0.10106 0.99058 0.0
H696 H 0.07235 0.10234 0.94793 0.0
C697 C 0.15245 0.20226 0.92428 0.0
C698 C 0.67578 0.43413 0.1912 0.0
C699 C 0.63616 0.42981 0.16864 0.0
H700 H 0.69699 0.46187 0.23592 0.0
C701 C 0.58469 0.44562 0.17586 0.0
H702 H 0.71582 0.42172 0.18666 0.0
C703 C 0.57387 0.46805 0.2046 0.0
C704 C 0.61457 0.4755 0.22614 0.0
H705 H 0.55336 0.44241 0.15904 0.0
H706 H 0.53442 0.48208 0.2093 0.0
C707 C 0.66517 0.45712 0.21952 0.0
C708 C 0.37758 0.88702 0.47247 0.0
C709 C 0.33376 0.85368 0.47224 0.0
H710 H 0.44485 0.91464 0.44798 0.0
C711 C 0.32925 0.81524 0.44906 0.0
H712 H 0.38266 0.91593 0.4906 0.0
C713 C 0.36474 0.81476 0.42429 0.0
C714 C 0.40537 0.85218 0.42293 0.0
H715 H 0.29601 0.78855 0.44878 0.0
H716 H 0.35715 0.78895 0.40492 0.0
C717 C 0.41359 0.8856 0.44833 0.0
C718 C 0.93242 0.57152 0.67583 0.0
C719 C 0.88097 0.5874 0.66861 0.0
H720 H 0.98266 0.53499 0.70925 0.0
C721 C 0.84136 0.58316 0.69119 0.0
H722 H 0.96374 0.57467 0.65899 0.0
C723 C 0.85195 0.56016 0.7195 0.0
C724 C 0.90253 0.54171 0.72611 0.0
H725 H 0.80134 0.59563 0.68665 0.0
H726 H 0.82014 0.55547 0.73591 0.0
C727 C 0.94322 0.54908 0.70456 0.0
C728 C 0.83526 0.92541 0.05424 0.0
C729 C 0.83932 0.8863 0.07712 0.0
H730 H 0.80762 0.94575 0.00937 0.0
C731 C 0.82323 0.83476 0.0703 0.0
H732 H 0.84795 0.96547 0.05846 0.0
C733 C 0.80068 0.82341 0.04166 0.0
C734 C 0.79344 0.86366 0.01981 0.0
H735 H 0.82622 0.80381 0.08737 0.0
H736 H 0.78639 0.78395 0.03727 0.0
C737 C 0.81218 0.91429 0.02602 0.0
C738 C 0.45347 0.61194 0.81769 0.0
C739 C 0.41673 0.65319 0.81891 0.0
H740 H 0.47852 0.54254 0.79343 0.0
C741 C 0.38353 0.66179 0.79344 0.0
H742 H 0.47907 0.60406 0.83711 0.0
C743 C 0.38151 0.62557 0.76942 0.0
C744 C 0.41407 0.58117 0.76982 0.0
H745 H 0.35501 0.69352 0.7937 0.0
H746 H 0.35271 0.63097 0.75127 0.0
C747 C 0.45241 0.57623 0.79303 0.0
C748 C 0.6938 0.18241 0.57025 0.0
C749 C 0.67768 0.13087 0.57706 0.0
H750 H 0.73068 0.23322 0.53725 0.0
C751 C 0.68174 0.09177 0.55418 0.0
H752 H 0.6908 0.21335 0.58733 0.0
C753 C 0.70486 0.1029 0.52596 0.0
C754 C 0.72362 0.15352 0.51977 0.0
H755 H 0.66904 0.05171 0.55839 0.0
H756 H 0.70942 0.07144 0.50931 0.0
C757 C 0.71637 0.19376 0.54162 0.0
C758 C 0.06356 0.40507 0.31773 0.0
C759 C 0.10027 0.36378 0.31893 0.0
H760 H 0.03856 0.47451 0.2935 0.0
C761 C 0.13345 0.35518 0.29346 0.0
H762 H 0.03798 0.41295 0.33716 0.0
C763 C 0.13548 0.39142 0.26945 0.0
C764 C 0.10296 0.43584 0.26987 0.0
H765 H 0.16194 0.32343 0.29371 0.0
H766 H 0.16427 0.38602 0.25128 0.0
C767 C 0.06464 0.44079 0.29308 0.0
C768 C 0.65406 0.70528 0.42614 0.0
C769 C 0.61231 0.66908 0.42505 0.0
H770 H 0.72397 0.72946 0.45021 0.0
C771 C 0.60332 0.63621 0.45061 0.0
H772 H 0.66225 0.73061 0.40663 0.0
C773 C 0.63965 0.63382 0.47457 0.0
C774 C 0.68454 0.6657 0.474 0.0
H775 H 0.57122 0.60811 0.45044 0.0
H776 H 0.63397 0.60518 0.49278 0.0
C777 C 0.68988 0.70386 0.45073 0.0
C778 C 0.17168 0.92687 0.69019 0.0
C779 C 0.13309 0.9245 0.66693 0.0
H780 H 0.19191 0.95378 0.73524 0.0
C781 C 0.08196 0.94234 0.67334 0.0
H782 H 0.21133 0.91269 0.68631 0.0
C783 C 0.07074 0.96526 0.7019 0.0
C784 C 0.11074 0.9711 0.72404 0.0
H785 H 0.05141 0.94067 0.65596 0.0
H786 H 0.03176 0.98108 0.70595 0.0
C787 C 0.16072 0.95036 0.71831 0.0
C788 C 0.86291 0.31186 0.92612 0.0
C789 C 0.90466 0.34807 0.92502 0.0
H790 H 0.79304 0.28766 0.95022 0.0
C791 C 0.91368 0.38092 0.95058 0.0
H792 H 0.85471 0.28654 0.90662 0.0
C793 C 0.87738 0.3833 0.97456 0.0
C794 C 0.83249 0.35142 0.97401 0.0
H795 H 0.94577 0.40903 0.9504 0.0
H796 H 0.88308 0.41194 0.99277 0.0
C797 C 0.82713 0.31326 0.95073 0.0
C798 C 0.35632 0.06652 0.21834 0.0
C799 C 0.40633 0.04587 0.22407 0.0
H800 H 0.30566 0.10412 0.18633 0.0
C801 C 0.44633 0.05178 0.20194 0.0
H802 H 0.32513 0.06306 0.23526 0.0
C803 C 0.43509 0.07468 0.17339 0.0
C804 C 0.38395 0.09245 0.16697 0.0
H805 H 0.48533 0.03602 0.20601 0.0
H806 H 0.46566 0.07641 0.15602 0.0
C807 C 0.34535 0.09001 0.19022 0.0
C808 C 0.33799 0.42204 0.55201 0.0
C809 C 0.34056 0.38294 0.57497 0.0
H810 H 0.311 0.44313 0.50711 0.0
C811 C 0.32296 0.33188 0.56818 0.0
H812 H 0.35194 0.46169 0.5562 0.0
C813 C 0.30014 0.32118 0.53953 0.0
C814 C 0.29413 0.36162 0.51769 0.0
H815 H 0.3248 0.30094 0.58531 0.0
H816 H 0.28453 0.2822 0.53518 0.0
C817 C 0.31457 0.4116 0.5238 0.0
C818 C 0.88423 0.16553 0.29535 0.0
C819 C 0.91731 0.15686 0.32086 0.0
H820 H 0.85368 0.13485 0.25307 0.0
C821 C 0.95417 0.11571 0.31961 0.0
H822 H 0.85564 0.19719 0.29562 0.0
C823 C 0.95331 0.08013 0.29489 0.0
C824 C 0.91507 0.0851 0.27164 0.0
H825 H 0.97969 0.10777 0.33907 0.0
H826 H 0.97948 0.04648 0.29528 0.0
C827 C 0.88242 0.12944 0.27125 0.0
C828 C 0.17919 0.5949 0.05207 0.0
C829 C 0.17662 0.63402 0.07502 0.0
H830 H 0.20614 0.5738 0.00716 0.0
C831 C 0.19419 0.68509 0.06821 0.0
H832 H 0.16526 0.55525 0.05627 0.0
C833 C 0.21697 0.69578 0.03955 0.0
C834 C 0.22298 0.65533 0.01772 0.0
H835 H 0.19234 0.71604 0.08534 0.0
H836 H 0.23255 0.73476 0.03518 0.0
C837 C 0.20257 0.60534 0.02385 0.0
C838 C 0.633 0.85166 0.79534 0.0
C839 C 0.59989 0.86033 0.82084 0.0
H840 H 0.66355 0.88233 0.75305 0.0
C841 C 0.56299 0.90144 0.81957 0.0
H842 H 0.66162 0.82003 0.79563 0.0
C843 C 0.56383 0.93699 0.79483 0.0
C844 C 0.6021 0.93203 0.77159 0.0
H845 H 0.53746 0.90937 0.83901 0.0
H846 H 0.53763 0.97062 0.7952 0.0
C847 C 0.63479 0.88772 0.77123 0.0
loop_
_geom_bond_atom_site_label_1
_geom_bond_atom_site_label_2
_geom_bond_distance
_geom_bond_site_symmetry_2
_ccdc_geom_bond_type
O0 Zn1 1.953 . S
O0 C16 1.225 . S
Zn1 O0 1.953 . S
Zn1 O2 1.949 . S
Zn1 O8 1.919 . S
Zn1 O13 1.924 . S
O2 Zn1 1.949 . S
O2 Zn3 1.923 . S
O2 Zn4 1.950 . S
O2 Zn5 1.945 . S
Zn3 O2 1.923 . S
Zn3 O6 1.933 . S
Zn3 O9 1.941 . S
Zn3 O10 1.965 . S
Zn4 O2 1.950 . S
Zn4 O11 1.938 . S
Zn4 O12 1.906 . S
Zn4 O22 1.953 . S
Zn5 O2 1.945 . S
Zn5 O7 1.932 . S
Zn5 O14 1.977 . S
Zn5 O15 1.910 . S
O6 Zn3 1.933 . S
O6 C17 1.226 . S
O7 Zn5 1.932 . S
O7 C17 1.307 . S
O8 Zn1 1.919 . S
O8 C19 1.253 . S
O9 Zn3 1.941 . S
O9 C19 1.283 . S
O10 Zn3 1.965 . S
O10 C18 1.303 . S
O11 Zn4 1.938 . S
O11 C18 1.247 . S
O12 Zn4 1.906 . S
O12 C20 1.304 . S
O13 Zn1 1.924 . S
O13 C21 1.311 . S
O14 Zn5 1.977 . S
O14 C20 1.272 . S
O15 Zn5 1.910 . S
O15 C21 1.231 . S
C16 O0 1.225 . S
C16 O22 1.298 . S
C17 O6 1.226 . S
C17 O7 1.307 . S
C18 O10 1.303 . S
C18 O11 1.247 . S
C19 O8 1.253 . S
C19 O9 1.283 . S
C20 O12 1.304 . S
C20 O14 1.272 . S
C21 O13 1.311 . S
C21 O15 1.231 . S
O22 Zn4 1.953 . S
O22 C16 1.298 . S
O23 Zn24 1.953 . S
O23 C39 1.225 . S
Zn24 O23 1.953 . S
Zn24 O25 1.949 . S
Zn24 O31 1.919 . S
Zn24 O36 1.924 . S
O25 Zn24 1.949 . S
O25 Zn26 1.923 . S
O25 Zn27 1.950 . S
O25 Zn28 1.945 . S
Zn26 O25 1.923 . S
Zn26 O29 1.933 . S
Zn26 O32 1.941 . S
Zn26 O33 1.965 . S
Zn27 O25 1.950 . S
Zn27 O34 1.938 . S
Zn27 O35 1.906 . S
Zn27 O45 1.953 . S
Zn28 O25 1.945 . S
Zn28 O30 1.932 . S
Zn28 O37 1.977 . S
Zn28 O38 1.910 . S
O29 Zn26 1.933 . S
O29 C40 1.226 . S
O30 Zn28 1.932 . S
O30 C40 1.307 . S
O31 Zn24 1.919 . S
O31 C42 1.253 . S
O32 Zn26 1.941 . S
O32 C42 1.283 . S
O33 Zn26 1.965 . S
O33 C41 1.303 . S
O34 Zn27 1.938 . S
O34 C41 1.247 . S
O35 Zn27 1.906 . S
O35 C43 1.304 . S
O36 Zn24 1.924 . S
O36 C44 1.311 . S
O37 Zn28 1.977 . S
O37 C43 1.272 . S
O38 Zn28 1.910 . S
O38 C44 1.231 . S
C39 O23 1.225 . S
C39 O45 1.298 . S
C40 O29 1.226 . S
C40 O30 1.307 . S
C41 O33 1.303 . S
C41 O34 1.247 . S
C42 O31 1.253 . S
C42 O32 1.283 . S
C43 O35 1.304 . S
C43 O37 1.272 . S
C44 O36 1.311 . S
C44 O38 1.231 . S
O45 Zn27 1.953 . S
O45 C39 1.298 . S
O46 Zn47 1.953 . S
O46 C62 1.225 . S
Zn47 O46 1.953 . S
Zn47 O48 1.949 . S
Zn47 O54 1.919 . S
Zn47 O59 1.924 . S
O48 Zn47 1.949 . S
O48 Zn49 1.923 . S
O48 Zn50 1.950 . S
O48 Zn51 1.945 . S
Zn49 O48 1.923 . S
Zn49 O52 1.933 . S
Zn49 O55 1.941 . S
Zn49 O56 1.965 . S
Zn50 O48 1.950 . S
Zn50 O57 1.938 . S
Zn50 O58 1.906 . S
Zn50 O68 1.953 . S
Zn51 O48 1.945 . S
Zn51 O53 1.932 . S
Zn51 O60 1.977 . S
Zn51 O61 1.910 . S
O52 Zn49 1.933 . S
O52 C63 1.226 . S
O53 Zn51 1.932 . S
O53 C63 1.307 . S
O54 Zn47 1.919 . S
O54 C65 1.253 . S
O55 Zn49 1.941 . S
O55 C65 1.283 . S
O56 Zn49 1.965 . S
O56 C64 1.303 . S
O57 Zn50 1.938 . S
O57 C64 1.247 . S
O58 Zn50 1.906 . S
O58 C66 1.304 . S
O59 Zn47 1.924 . S
O59 C67 1.311 . S
O60 Zn51 1.977 . S
O60 C66 1.272 . S
O61 Zn51 1.910 . S
O61 C67 1.231 . S
C62 O46 1.225 . S
C62 O68 1.298 . S
C63 O52 1.226 . S
C63 O53 1.307 . S
C64 O56 1.303 . S
C64 O57 1.247 . S
C65 O54 1.253 . S
C65 O55 1.283 . S
C66 O58 1.304 . S
C66 O60 1.272 . S
C67 O59 1.311 . S
C67 O61 1.231 . S
O68 Zn50 1.953 . S
O68 C62 1.298 . S
O69 Zn70 1.953 . S
O69 C85 1.225 . S
Zn70 O69 1.953 . S
Zn70 O71 1.949 . S
Zn70 O77 1.919 . S
Zn70 O82 1.924 . S
O71 Zn70 1.949 . S
O71 Zn72 1.923 . S
O71 Zn73 1.950 . S
O71 Zn74 1.945 . S
Zn72 O71 1.923 . S
Zn72 O75 1.933 . S
Zn72 O78 1.941 . S
Zn72 O79 1.965 . S
Zn73 O71 1.950 . S
Zn73 O80 1.938 . S
Zn73 O81 1.906 . S
Zn73 O91 1.953 . S
Zn74 O71 1.945 . S
Zn74 O76 1.932 . S
Zn74 O83 1.977 . S
Zn74 O84 1.910 . S
O75 Zn72 1.933 . S
O75 C86 1.226 . S
O76 Zn74 1.932 . S
O76 C86 1.307 . S
O77 Zn70 1.919 . S
O77 C88 1.253 . S
O78 Zn72 1.941 . S
O78 C88 1.283 . S
O79 Zn72 1.965 . S
O79 C87 1.303 . S
O80 Zn73 1.938 . S
O80 C87 1.247 . S
O81 Zn73 1.906 . S
O81 C89 1.304 . S
O82 Zn70 1.924 . S
O82 C90 1.311 . S
O83 Zn74 1.977 . S
O83 C89 1.272 . S
O84 Zn74 1.910 . S
O84 C90 1.231 . S
C85 O69 1.225 . S
C85 O91 1.298 . S
C86 O75 1.226 . S
C86 O76 1.307 . S
C87 O79 1.303 . S
C87 O80 1.247 . S
C88 O77 1.253 . S
C88 O78 1.283 . S
C89 O81 1.304 . S
C89 O83 1.272 . S
C90 O82 1.311 . S
C90 O84 1.231 . S
O91 Zn73 1.953 . S
O91 C85 1.298 . S
O92 Zn93 1.953 . S
O92 C108 1.225 . S
Zn93 O92 1.953 . S
Zn93 O94 1.949 . S
Zn93 O100 1.919 . S
Zn93 O105 1.924 . S
O94 Zn93 1.949 . S
O94 Zn95 1.923 . S
O94 Zn96 1.950 . S
O94 Zn97 1.945 . S
Zn95 O94 1.923 . S
Zn95 O98 1.933 . S
Zn95 O101 1.941 . S
Zn95 O102 1.965 . S
Zn96 O94 1.950 . S
Zn96 O103 1.938 . S
Zn96 O104 1.906 . S
Zn96 O114 1.953 . S
Zn97 O94 1.945 . S
Zn97 O99 1.932 . S
Zn97 O106 1.977 . S
Zn97 O107 1.910 . S
O98 Zn95 1.933 . S
O98 C109 1.226 . S
O99 Zn97 1.932 . S
O99 C109 1.307 . S
O100 Zn93 1.919 . S
O100 C111 1.253 . S
O101 Zn95 1.941 . S
O101 C111 1.283 . S
O102 Zn95 1.965 . S
O102 C110 1.303 . S
O103 Zn96 1.938 . S
O103 C110 1.247 . S
O104 Zn96 1.906 . S
O104 C112 1.304 . S
O105 Zn93 1.924 . S
O105 C113 1.311 . S
O106 Zn97 1.977 . S
O106 C112 1.272 . S
O107 Zn97 1.910 . S
O107 C113 1.231 . S
C108 O92 1.225 . S
C108 O114 1.298 . S
C109 O98 1.226 . S
C109 O99 1.307 . S
C110 O102 1.303 . S
C110 O103 1.247 . S
C111 O100 1.253 . S
C111 O101 1.283 . S
C112 O104 1.304 . S
C112 O106 1.272 . S
C113 O105 1.311 . S
C113 O107 1.231 . S
O114 Zn96 1.953 . S
O114 C108 1.298 . S
O115 Zn116 1.953 . S
O115 C131 1.225 . S
Zn116 O115 1.953 . S
Zn116 O117 1.949 . S
Zn116 O123 1.919 . S
Zn116 O128 1.924 . S
O117 Zn116 1.949 . S
O117 Zn118 1.923 . S
O117 Zn119 1.950 . S
O117 Zn120 1.945 . S
Zn118 O117 1.923 . S
Zn118 O121 1.933 . S
Zn118 O124 1.941 . S
Zn118 O125 1.965 . S
Zn119 O117 1.950 . S
Zn119 O126 1.938 . S
Zn119 O127 1.906 . S
Zn119 O137 1.953 . S
Zn120 O117 1.945 . S
Zn120 O122 1.932 . S
Zn120 O129 1.977 . S
Zn120 O130 1.910 . S
O121 Zn118 1.933 . S
O121 C132 1.226 . S
O122 Zn120 1.932 . S
O122 C132 1.307 . S
O123 Zn116 1.919 . S
O123 C134 1.253 . S
O124 Zn118 1.941 . S
O124 C134 1.283 . S
O125 Zn118 1.965 . S
O125 C133 1.303 . S
O126 Zn119 1.938 . S
O126 C133 1.247 . S
O127 Zn119 1.906 . S
O127 C135 1.304 . S
O128 Zn116 1.924 . S
O128 C136 1.311 . S
O129 Zn120 1.977 . S
O129 C135 1.272 . S
O130 Zn120 1.910 . S
O130 C136 1.231 . S
C131 O115 1.225 . S
C131 O137 1.298 . S
C132 O121 1.226 . S
C132 O122 1.307 . S
C133 O125 1.303 . S
C133 O126 1.247 . S
C134 O123 1.253 . S
C134 O124 1.283 . S
C135 O127 1.304 . S
C135 O129 1.272 . S
C136 O128 1.311 . S
C136 O130 1.231 . S
O137 Zn119 1.953 . S
O137 C131 1.298 . S
O138 Zn139 1.953 . S
O138 C154 1.225 . S
Zn139 O138 1.953 . S
Zn139 O140 1.949 . S
Zn139 O146 1.919 . S
Zn139 O151 1.924 . S
O140 Zn139 1.949 . S
O140 Zn141 1.923 . S
O140 Zn142 1.950 . S
O140 Zn143 1.945 . S
Zn141 O140 1.923 . S
Zn141 O144 1.933 . S
Zn141 O147 1.941 . S
Zn141 O148 1.965 . S
Zn142 O140 1.950 . S
Zn142 O149 1.938 . S
Zn142 O150 1.906 . S
Zn142 O160 1.953 . S
Zn143 O140 1.945 . S
Zn143 O145 1.932 . S
Zn143 O152 1.977 . S
Zn143 O153 1.910 . S
O144 Zn141 1.933 . S
O144 C155 1.226 . S
O145 Zn143 1.932 . S
O145 C155 1.307 . S
O146 Zn139 1.919 . S
O146 C157 1.253 . S
O147 Zn141 1.941 . S
O147 C157 1.283 . S
O148 Zn141 1.965 . S
O148 C156 1.303 . S
O149 Zn142 1.938 . S
O149 C156 1.247 . S
O150 Zn142 1.906 . S
O150 C158 1.304 . S
O151 Zn139 1.924 . S
O151 C159 1.311 . S
O152 Zn143 1.977 . S
O152 C158 1.272 . S
O153 Zn143 1.910 . S
O153 C159 1.231 . S
C154 O138 1.225 . S
C154 O160 1.298 . S
C155 O144 1.226 . S
C155 O145 1.307 . S
C156 O148 1.303 . S
C156 O149 1.247 . S
C157 O146 1.253 . S
C157 O147 1.283 . S
C158 O150 1.304 . S
C158 O152 1.272 . S
C159 O151 1.311 . S
C159 O153 1.231 . S
O160 Zn142 1.953 . S
O160 C154 1.298 . S
O161 Zn162 1.953 . S
O161 C177 1.225 . S
Zn162 O161 1.953 . S
Zn162 O163 1.949 . S
Zn162 O169 1.919 . S
Zn162 O174 1.924 . S
O163 Zn162 1.949 . S
O163 Zn164 1.923 . S
O163 Zn165 1.950 . S
O163 Zn166 1.945 . S
Zn164 O163 1.923 . S
Zn164 O167 1.933 . S
Zn164 O170 1.941 . S
Zn164 O171 1.965 . S
Zn165 O163 1.950 . S
Zn165 O172 1.938 . S
Zn165 O173 1.906 . S
Zn165 O183 1.953 . S
Zn166 O163 1.945 . S
Zn166 O168 1.932 . S
Zn166 O175 1.977 . S
Zn166 O176 1.910 . S
O167 Zn164 1.933 . S
O167 C178 1.226 . S
O168 Zn166 1.932 . S
O168 C178 1.307 . S
O169 Zn162 1.919 . S
O169 C180 1.253 . S
O170 Zn164 1.941 . S
O170 C180 1.283 . S
O171 Zn164 1.965 . S
O171 C179 1.303 . S
O172 Zn165 1.938 . S
O172 C179 1.247 . S
O173 Zn165 1.906 . S
O173 C181 1.304 . S
O174 Zn162 1.924 . S
O174 C182 1.311 . S
O175 Zn166 1.977 . S
O175 C181 1.272 . S
O176 Zn166 1.910 . S
O176 C182 1.231 . S
C177 O161 1.225 . S
C177 O183 1.298 . S
C178 O167 1.226 . S
C178 O168 1.307 . S
C179 O171 1.303 . S
C179 O172 1.247 . S
C180 O169 1.253 . S
C180 O170 1.283 . S
C181 O173 1.304 . S
C181 O175 1.272 . S
C182 O174 1.311 . S
C182 O176 1.231 . S
O183 Zn165 1.953 . S
O183 C177 1.298 . S
O184 Zn185 1.953 . S
O184 C200 1.225 . S
Zn185 O184 1.953 . S
Zn185 O186 1.949 . S
Zn185 O192 1.919 . S
Zn185 O197 1.924 . S
O186 Zn185 1.949 . S
O186 Zn187 1.923 . S
O186 Zn188 1.950 . S
O186 Zn189 1.945 . S
Zn187 O186 1.923 . S
Zn187 O190 1.933 . S
Zn187 O193 1.941 . S
Zn187 O194 1.965 . S
Zn188 O186 1.950 . S
Zn188 O195 1.938 . S
Zn188 O196 1.906 . S
Zn188 O206 1.953 . S
Zn189 O186 1.945 . S
Zn189 O191 1.932 . S
Zn189 O198 1.977 . S
Zn189 O199 1.910 . S
O190 Zn187 1.933 . S
O190 C201 1.226 . S
O191 Zn189 1.932 . S
O191 C201 1.307 . S
O192 Zn185 1.919 . S
O192 C203 1.253 . S
O193 Zn187 1.941 . S
O193 C203 1.283 . S
O194 Zn187 1.965 . S
O194 C202 1.303 . S
O195 Zn188 1.938 . S
O195 C202 1.247 . S
O196 Zn188 1.906 . S
O196 C204 1.304 . S
O197 Zn185 1.924 . S
O197 C205 1.311 . S
O198 Zn189 1.977 . S
O198 C204 1.272 . S
O199 Zn189 1.910 . S
O199 C205 1.231 . S
C200 O184 1.225 . S
C200 O206 1.298 . S
C201 O190 1.226 . S
C201 O191 1.307 . S
C202 O194 1.303 . S
C202 O195 1.247 . S
C203 O192 1.253 . S
C203 O193 1.283 . S
C204 O196 1.304 . S
C204 O198 1.272 . S
C205 O197 1.311 . S
C205 O199 1.231 . S
O206 Zn188 1.953 . S
O206 C200 1.298 . S
O207 Zn208 1.953 . S
O207 C223 1.225 . S
Zn208 O207 1.953 . S
Zn208 O209 1.949 . S
Zn208 O215 1.919 . S
Zn208 O220 1.924 . S
O209 Zn208 1.949 . S
O209 Zn210 1.923 . S
O209 Zn211 1.950 . S
O209 Zn212 1.945 . S
Zn210 O209 1.923 . S
Zn210 O213 1.933 1_545 S
Zn210 O216 1.941 . S
Zn210 O217 1.965 . S
Zn211 O209 1.950 . S
Zn211 O218 1.938 . S
Zn211 O219 1.906 . S
Zn211 O229 1.953 . S
Zn212 O209 1.945 . S
Zn212 O214 1.932 1_545 S
Zn212 O221 1.977 . S
Zn212 O222 1.910 . S
O213 Zn210 1.933 1_565 S
O213 C224 1.226 . S
O214 Zn212 1.932 1_565 S
O214 C224 1.307 . S
O215 Zn208 1.919 . S
O215 C226 1.253 . S
O216 Zn210 1.941 . S
O216 C226 1.283 . S
O217 Zn210 1.965 . S
O217 C225 1.303 . S
O218 Zn211 1.938 . S
O218 C225 1.247 . S
O219 Zn211 1.906 . S
O219 C227 1.304 . S
O220 Zn208 1.924 . S
O220 C228 1.311 . S
O221 Zn212 1.977 . S
O221 C227 1.272 . S
O222 Zn212 1.910 . S
O222 C228 1.231 . S
C223 O207 1.225 . S
C223 O229 1.298 . S
C224 O213 1.226 . S
C224 O214 1.307 . S
C225 O217 1.303 . S
C225 O218 1.247 . S
C226 O215 1.253 . S
C226 O216 1.283 . S
C227 O219 1.304 . S
C227 O221 1.272 . S
C228 O220 1.311 . S
C228 O222 1.231 . S
O229 Zn211 1.953 . S
O229 C223 1.298 . S
O230 Zn231 1.953 . S
O230 C246 1.225 . S
Zn231 O230 1.953 . S
Zn231 O232 1.949 . S
Zn231 O238 1.919 . S
Zn231 O243 1.924 . S
O232 Zn231 1.949 . S
O232 Zn233 1.923 . S
O232 Zn234 1.950 . S
O232 Zn235 1.945 . S
Zn233 O232 1.923 . S
Zn233 O236 1.933 . S
Zn233 O239 1.941 . S
Zn233 O240 1.965 . S
Zn234 O232 1.950 . S
Zn234 O241 1.938 . S
Zn234 O242 1.906 . S
Zn234 O252 1.953 . S
Zn235 O232 1.945 . S
Zn235 O237 1.932 . S
Zn235 O244 1.977 . S
Zn235 O245 1.910 . S
O236 Zn233 1.933 . S
O236 C247 1.226 . S
O237 Zn235 1.932 . S
O237 C247 1.307 . S
O238 Zn231 1.919 . S
O238 C249 1.253 . S
O239 Zn233 1.941 . S
O239 C249 1.283 . S
O240 Zn233 1.965 . S
O240 C248 1.303 . S
O241 Zn234 1.938 . S
O241 C248 1.247 . S
O242 Zn234 1.906 . S
O242 C250 1.304 . S
O243 Zn231 1.924 . S
O243 C251 1.311 . S
O244 Zn235 1.977 . S
O244 C250 1.272 . S
O245 Zn235 1.910 . S
O245 C251 1.231 . S
C246 O230 1.225 . S
C246 O252 1.298 . S
C247 O236 1.226 . S
C247 O237 1.307 . S
C248 O240 1.303 . S
C248 O241 1.247 . S
C249 O238 1.253 . S
C249 O239 1.283 . S
C250 O242 1.304 . S
C250 O244 1.272 . S
C251 O243 1.311 . S
C251 O245 1.231 . S
O252 Zn234 1.953 . S
O252 C246 1.298 . S
O253 Zn254 1.953 . S
O253 C269 1.225 . S
Zn254 O253 1.953 . S
Zn254 O255 1.949 . S
Zn254 O261 1.919 . S
Zn254 O266 1.924 . S
O255 Zn254 1.949 . S
O255 Zn256 1.923 . S
O255 Zn257 1.950 . S
O255 Zn258 1.945 . S
Zn256 O255 1.923 . S
Zn256 O259 1.933 1_565 S
Zn256 O262 1.941 . S
Zn256 O263 1.965 . S
Zn257 O255 1.950 . S
Zn257 O264 1.938 . S
Zn257 O265 1.906 . S
Zn257 O275 1.953 . S
Zn258 O255 1.945 . S
Zn258 O260 1.932 1_565 S
Zn258 O267 1.977 . S
Zn258 O268 1.910 . S
O259 Zn256 1.933 1_545 S
O259 C270 1.226 . S
O260 Zn258 1.932 1_545 S
O260 C270 1.307 . S
O261 Zn254 1.919 . S
O261 C272 1.253 . S
O262 Zn256 1.941 . S
O262 C272 1.283 . S
O263 Zn256 1.965 . S
O263 C271 1.303 . S
O264 Zn257 1.938 . S
O264 C271 1.247 . S
O265 Zn257 1.906 . S
O265 C273 1.304 . S
O266 Zn254 1.924 . S
O266 C274 1.311 . S
O267 Zn258 1.977 . S
O267 C273 1.272 . S
O268 Zn258 1.910 . S
O268 C274 1.231 . S
C269 O253 1.225 . S
C269 O275 1.298 . S
C270 O259 1.226 . S
C270 O260 1.307 . S
C271 O263 1.303 . S
C271 O264 1.247 . S
C272 O261 1.253 . S
C272 O262 1.283 . S
C273 O265 1.304 . S
C273 O267 1.272 . S
C274 O266 1.311 . S
C274 O268 1.231 . S
O275 Zn257 1.953 . S
O275 C269 1.298 . S
O276 Zn277 1.953 . S
O276 C292 1.225 . S
Zn277 O276 1.953 . S
Zn277 O278 1.949 . S
Zn277 O284 1.919 . S
Zn277 O289 1.924 . S
O278 Zn277 1.949 . S
O278 Zn279 1.923 . S
O278 Zn280 1.950 . S
O278 Zn281 1.945 . S
Zn279 O278 1.923 . S
Zn279 O282 1.933 . S
Zn279 O285 1.941 . S
Zn279 O286 1.965 . S
Zn280 O278 1.950 . S
Zn280 O287 1.938 . S
Zn280 O288 1.906 . S
Zn280 O298 1.953 . S
Zn281 O278 1.945 . S
Zn281 O283 1.932 . S
Zn281 O290 1.977 . S
Zn281 O291 1.910 . S
O282 Zn279 1.933 . S
O282 C293 1.226 . S
O283 Zn281 1.932 . S
O283 C293 1.307 . S
O284 Zn277 1.919 . S
O284 C295 1.253 . S
O285 Zn279 1.941 . S
O285 C295 1.283 . S
O286 Zn279 1.965 . S
O286 C294 1.303 . S
O287 Zn280 1.938 . S
O287 C294 1.247 . S
O288 Zn280 1.906 . S
O288 C296 1.304 . S
O289 Zn277 1.924 . S
O289 C297 1.311 . S
O290 Zn281 1.977 . S
O290 C296 1.272 . S
O291 Zn281 1.910 . S
O291 C297 1.231 . S
C292 O276 1.225 . S
C292 O298 1.298 . S
C293 O282 1.226 . S
C293 O283 1.307 . S
C294 O286 1.303 . S
C294 O287 1.247 . S
C295 O284 1.253 . S
C295 O285 1.283 . S
C296 O288 1.304 . S
C296 O290 1.272 . S
C297 O289 1.311 . S
C297 O291 1.231 . S
O298 Zn280 1.953 . S
O298 C292 1.298 . S
O299 Zn300 1.953 . S
O299 C315 1.225 . S
Zn300 O299 1.953 . S
Zn300 O301 1.949 . S
Zn300 O307 1.919 . S
Zn300 O312 1.924 . S
O301 Zn300 1.949 . S
O301 Zn302 1.923 . S
O301 Zn303 1.950 . S
O301 Zn304 1.945 . S
Zn302 O301 1.923 . S
Zn302 O305 1.933 1_565 S
Zn302 O308 1.941 . S
Zn302 O309 1.965 . S
Zn303 O301 1.950 . S
Zn303 O310 1.938 . S
Zn303 O311 1.906 . S
Zn303 O321 1.953 . S
Zn304 O301 1.945 . S
Zn304 O306 1.932 1_565 S
Zn304 O313 1.977 . S
Zn304 O314 1.910 . S
O305 Zn302 1.933 1_545 S
O305 C316 1.226 . S
O306 Zn304 1.932 1_545 S
O306 C316 1.307 . S
O307 Zn300 1.919 . S
O307 C318 1.253 . S
O308 Zn302 1.941 . S
O308 C318 1.283 . S
O309 Zn302 1.965 . S
O309 C317 1.303 . S
O310 Zn303 1.938 . S
O310 C317 1.247 . S
O311 Zn303 1.906 . S
O311 C319 1.304 . S
O312 Zn300 1.924 . S
O312 C320 1.311 . S
O313 Zn304 1.977 . S
O313 C319 1.272 . S
O314 Zn304 1.910 . S
O314 C320 1.231 . S
C315 O299 1.225 . S
C315 O321 1.298 . S
C316 O305 1.226 . S
C316 O306 1.307 . S
C317 O309 1.303 . S
C317 O310 1.247 . S
C318 O307 1.253 . S
C318 O308 1.283 . S
C319 O311 1.304 . S
C319 O313 1.272 . S
C320 O312 1.311 . S
C320 O314 1.231 . S
O321 Zn303 1.953 . S
O321 C315 1.298 . S
O322 Zn323 1.953 . S
O322 C338 1.225 . S
Zn323 O322 1.953 . S
Zn323 O324 1.949 . S
Zn323 O330 1.919 . S
Zn323 O335 1.924 . S
O324 Zn323 1.949 . S
O324 Zn325 1.923 . S
O324 Zn326 1.950 . S
O324 Zn327 1.945 . S
Zn325 O324 1.923 . S
Zn325 O328 1.933 . S
Zn325 O331 1.941 . S
Zn325 O332 1.965 . S
Zn326 O324 1.950 . S
Zn326 O333 1.938 . S
Zn326 O334 1.906 . S
Zn326 O344 1.953 . S
Zn327 O324 1.945 . S
Zn327 O329 1.932 . S
Zn327 O336 1.977 . S
Zn327 O337 1.910 . S
O328 Zn325 1.933 . S
O328 C339 1.226 . S
O329 Zn327 1.932 . S
O329 C339 1.307 . S
O330 Zn323 1.919 . S
O330 C341 1.253 . S
O331 Zn325 1.941 . S
O331 C341 1.283 . S
O332 Zn325 1.965 . S
O332 C340 1.303 . S
O333 Zn326 1.938 . S
O333 C340 1.247 . S
O334 Zn326 1.906 . S
O334 C342 1.304 . S
O335 Zn323 1.924 . S
O335 C343 1.311 . S
O336 Zn327 1.977 . S
O336 C342 1.272 . S
O337 Zn327 1.910 . S
O337 C343 1.231 . S
C338 O322 1.225 . S
C338 O344 1.298 . S
C339 O328 1.226 . S
C339 O329 1.307 . S
C340 O332 1.303 . S
C340 O333 1.247 . S
C341 O330 1.253 . S
C341 O331 1.283 . S
C342 O334 1.304 . S
C342 O336 1.272 . S
C343 O335 1.311 . S
C343 O337 1.231 . S
O344 Zn326 1.953 . S
O344 C338 1.298 . S
O345 Zn346 1.953 . S
O345 C361 1.225 . S
Zn346 O345 1.953 . S
Zn346 O347 1.949 . S
Zn346 O353 1.919 . S
Zn346 O358 1.924 . S
O347 Zn346 1.949 . S
O347 Zn348 1.923 . S
O347 Zn349 1.950 . S
O347 Zn350 1.945 . S
Zn348 O347 1.923 . S
Zn348 O351 1.933 1_545 S
Zn348 O354 1.941 . S
Zn348 O355 1.965 . S
Zn349 O347 1.950 . S
Zn349 O356 1.938 . S
Zn349 O357 1.906 . S
Zn349 O367 1.953 . S
Zn350 O347 1.945 . S
Zn350 O352 1.932 1_545 S
Zn350 O359 1.977 . S
Zn350 O360 1.910 . S
O351 Zn348 1.933 1_565 S
O351 C362 1.226 . S
O352 Zn350 1.932 1_565 S
O352 C362 1.307 . S
O353 Zn346 1.919 . S
O353 C364 1.253 . S
O354 Zn348 1.941 . S
O354 C364 1.283 . S
O355 Zn348 1.965 . S
O355 C363 1.303 . S
O356 Zn349 1.938 . S
O356 C363 1.247 . S
O357 Zn349 1.906 . S
O357 C365 1.304 . S
O358 Zn346 1.924 . S
O358 C366 1.311 . S
O359 Zn350 1.977 . S
O359 C365 1.272 . S
O360 Zn350 1.910 . S
O360 C366 1.231 . S
C361 O345 1.225 . S
C361 O367 1.298 . S
C362 O351 1.226 . S
C362 O352 1.307 . S
C363 O355 1.303 . S
C363 O356 1.247 . S
C364 O353 1.253 . S
C364 O354 1.283 . S
C365 O357 1.304 . S
C365 O359 1.272 . S
C366 O358 1.311 . S
C366 O360 1.231 . S
O367 Zn349 1.953 . S
O367 C361 1.298 . S
C368 C369 1.387 . S
C368 H372 0.950 . S
C368 C377 1.390 . S
C369 C368 1.387 . S
C369 C371 1.387 . S
H370 C377 0.950 . S
C371 C369 1.387 . S
C371 C373 1.390 . S
C371 H375 0.950 . S
H372 C368 0.950 . S
C373 C371 1.390 . S
C373 C374 1.387 . S
C373 H376 0.950 . S
C374 C373 1.387 . S
C374 C377 1.387 . S
H375 C371 0.950 . S
H376 C373 0.950 . S
C377 C368 1.390 . S
C377 H370 0.950 . S
C377 C374 1.387 . S
C378 C379 1.387 . S
C378 H382 0.950 . S
C378 C387 1.390 . S
C379 C378 1.387 . S
C379 C381 1.387 . S
H380 C387 0.950 . S
C381 C379 1.387 . S
C381 C383 1.390 . S
C381 H385 0.950 . S
H382 C378 0.950 . S
C383 C381 1.390 . S
C383 C384 1.387 . S
C383 H386 0.950 . S
C384 C383 1.387 . S
C384 C387 1.387 . S
H385 C381 0.950 . S
H386 C383 0.950 . S
C387 C378 1.390 . S
C387 H380 0.950 . S
C387 C384 1.387 . S
C388 C389 1.387 . S
C388 H392 0.950 . S
C388 C397 1.390 1_455 S
C389 C388 1.387 . S
C389 C391 1.387 . S
H390 C397 0.950 . S
C391 C389 1.387 . S
C391 C393 1.390 1_455 S
C391 H395 0.950 . S
H392 C388 0.950 . S
C393 C391 1.390 1_655 S
C393 C394 1.387 . S
C393 H396 0.950 . S
C394 C393 1.387 . S
C394 C397 1.387 . S
H395 C391 0.950 . S
H396 C393 0.950 . S
C397 C388 1.390 1_655 S
C397 H390 0.950 . S
C397 C394 1.387 . S
C398 C399 1.387 . S
C398 H402 0.950 . S
C398 C407 1.390 1_455 S
C399 C398 1.387 . S
C399 C401 1.387 . S
H400 C407 0.950 . S
C401 C399 1.387 . S
C401 C403 1.390 1_455 S
C401 H405 0.950 . S
H402 C398 0.950 . S
C403 C401 1.390 1_655 S
C403 C404 1.387 . S
C403 H406 0.950 . S
C404 C403 1.387 . S
C404 C407 1.387 . S
H405 C401 0.950 . S
H406 C403 0.950 . S
C407 C398 1.390 1_655 S
C407 H400 0.950 . S
C407 C404 1.387 . S
C408 C409 1.387 . S
C408 H412 0.950 . S
C408 C417 1.390 . S
C409 C408 1.387 . S
C409 C411 1.387 . S
H410 C417 0.950 . S
C411 C409 1.387 . S
C411 C413 1.390 . S
C411 H415 0.950 . S
H412 C408 0.950 . S
C413 C411 1.390 . S
C413 C414 1.387 . S
C413 H416 0.950 . S
C414 C413 1.387 . S
C414 C417 1.387 . S
H415 C411 0.950 . S
H416 C413 0.950 . S
C417 C408 1.390 . S
C417 H410 0.950 . S
C417 C414 1.387 . S
C418 C419 1.387 . S
C418 H422 0.950 . S
C418 C427 1.390 . S
C419 C418 1.387 . S
C419 C421 1.387 . S
H420 C427 0.950 . S
C421 C419 1.387 . S
C421 C423 1.390 . S
C421 H425 0.950 . S
H422 C418 0.950 . S
C423 C421 1.390 . S
C423 C424 1.387 . S
C423 H426 0.950 . S
C424 C423 1.387 . S
C424 C427 1.387 . S
H425 C421 0.950 . S
H426 C423 0.950 . S
C427 C418 1.390 . S
C427 H420 0.950 . S
C427 C424 1.387 . S
C428 C429 1.387 . S
C428 H432 0.950 . S
C428 C437 1.390 1_455 S
C429 C428 1.387 . S
C429 C431 1.387 . S
H430 C437 0.950 . S
C431 C429 1.387 . S
C431 C433 1.390 1_455 S
C431 H435 0.950 . S
H432 C428 0.950 . S
C433 C431 1.390 1_655 S
C433 C434 1.387 . S
C433 H436 0.950 . S
C434 C433 1.387 . S
C434 C437 1.387 . S
H435 C431 0.950 . S
H436 C433 0.950 . S
C437 C428 1.390 1_655 S
C437 H430 0.950 . S
C437 C434 1.387 . S
C438 C439 1.387 . S
C438 H442 0.950 . S
C438 C447 1.390 1_455 S
C439 C438 1.387 . S
C439 C441 1.387 . S
H440 C447 0.950 . S
C441 C439 1.387 . S
C441 C443 1.390 1_455 S
C441 H445 0.950 . S
H442 C438 0.950 . S
C443 C441 1.390 1_655 S
C443 C444 1.387 . S
C443 H446 0.950 . S
C444 C443 1.387 . S
C444 C447 1.387 . S
H445 C441 0.950 . S
H446 C443 0.950 . S
C447 C438 1.390 1_655 S
C447 H440 0.950 . S
C447 C444 1.387 . S
C448 C449 1.387 . S
C448 H452 0.950 . S
C448 C457 1.380 1_554 S
C449 C448 1.387 . S
C449 C451 1.398 1_545 S
H450 C457 0.950 . S
C451 C449 1.398 1_565 S
C451 C453 1.380 1_554 S
C451 H455 0.950 . S
H452 C448 0.950 . S
C453 C451 1.380 1_556 S
C453 C454 1.387 . S
C453 H456 0.950 . S
C454 C453 1.387 . S
C454 C457 1.398 1_565 S
H455 C451 0.950 . S
H456 C453 0.950 . S
C457 C448 1.380 1_556 S
C457 H450 0.950 . S
C457 C454 1.398 1_545 S
C458 C459 1.387 . S
C458 H462 0.950 . S
C458 C467 1.390 . S
C459 C458 1.387 . S
C459 C461 1.387 . S
H460 C467 0.950 . S
C461 C459 1.387 . S
C461 C463 1.390 . S
C461 H465 0.950 . S
H462 C458 0.950 . S
C463 C461 1.390 . S
C463 C464 1.387 . S
C463 H466 0.950 . S
C464 C463 1.387 . S
C464 C467 1.387 . S
H465 C461 0.950 . S
H466 C463 0.950 . S
C467 C458 1.390 . S
C467 H460 0.950 . S
C467 C464 1.387 . S
C468 C469 1.387 . S
C468 H472 0.950 . S
C468 C477 1.390 . S
C469 C468 1.387 . S
C469 C471 1.387 1_465 S
H470 C477 0.950 . S
C471 C469 1.387 1_645 S
C471 C473 1.390 . S
C471 H475 0.950 . S
H472 C468 0.950 . S
C473 C471 1.390 . S
C473 C474 1.387 . S
C473 H476 0.950 . S
C474 C473 1.387 . S
C474 C477 1.387 1_645 S
H475 C471 0.950 . S
H476 C473 0.950 . S
C477 C468 1.390 . S
C477 H470 0.950 . S
C477 C474 1.387 1_465 S
C478 C479 1.387 . S
C478 H482 0.950 . S
C478 C487 1.390 . S
C479 C478 1.387 . S
C479 C481 1.387 . S
H480 C487 0.950 . S
C481 C479 1.387 . S
C481 C483 1.390 . S
C481 H485 0.950 . S
H482 C478 0.950 . S
C483 C481 1.390 . S
C483 C484 1.387 . S
C483 H486 0.950 . S
C484 C483 1.387 . S
C484 C487 1.387 . S
H485 C481 0.950 . S
H486 C483 0.950 . S
C487 C478 1.390 . S
C487 H480 0.950 . S
C487 C484 1.387 . S
C488 C489 1.387 . S
C488 H492 0.950 . S
C488 C497 1.390 . S
C489 C488 1.387 . S
C489 C491 1.387 . S
H490 C497 0.950 . S
C491 C489 1.387 . S
C491 C493 1.390 . S
C491 H495 0.950 . S
H492 C488 0.950 . S
C493 C491 1.390 . S
C493 C494 1.387 . S
C493 H496 0.950 . S
C494 C493 1.387 . S
C494 C497 1.387 . S
H495 C491 0.950 . S
H496 C493 0.950 . S
C497 C488 1.390 . S
C497 H490 0.950 . S
C497 C494 1.387 . S
C498 C499 1.387 . S
C498 H502 0.950 . S
C498 C507 1.390 . S
C499 C498 1.387 . S
C499 C501 1.387 . S
H500 C507 0.950 . S
C501 C499 1.387 . S
C501 C503 1.390 . S
C501 H505 0.950 . S
H502 C498 0.950 . S
C503 C501 1.390 . S
C503 C504 1.387 . S
C503 H506 0.950 . S
C504 C503 1.387 . S
C504 C507 1.387 . S
H505 C501 0.950 . S
H506 C503 0.950 . S
C507 C498 1.390 . S
C507 H500 0.950 . S
C507 C504 1.387 . S
C508 C509 1.387 . S
C508 H512 0.950 . S
C508 C517 1.390 1_455 S
C509 C508 1.387 . S
C509 C511 1.387 . S
H510 C517 0.950 . S
C511 C509 1.387 . S
C511 C513 1.390 1_455 S
C511 H515 0.950 . S
H512 C508 0.950 . S
C513 C511 1.390 1_655 S
C513 C514 1.387 . S
C513 H516 0.950 . S
C514 C513 1.387 . S
C514 C517 1.387 . S
H515 C511 0.950 . S
H516 C513 0.950 . S
C517 C508 1.390 1_655 S
C517 H510 0.950 . S
C517 C514 1.387 . S
C518 C519 1.387 . S
C518 H522 0.950 . S
C518 C527 1.390 1_554 S
C519 C518 1.387 . S
C519 C521 1.387 . S
H520 C527 0.950 . S
C521 C519 1.387 . S
C521 C523 1.390 1_554 S
C521 H525 0.950 . S
H522 C518 0.950 . S
C523 C521 1.390 1_556 S
C523 C524 1.387 . S
C523 H526 0.950 . S
C524 C523 1.387 . S
C524 C527 1.387 . S
H525 C521 0.950 . S
H526 C523 0.950 . S
C527 C518 1.390 1_556 S
C527 H520 0.950 . S
C527 C524 1.387 . S
C528 C529 1.387 . S
C528 H532 0.950 . S
C528 C537 1.390 . S
C529 C528 1.387 . S
C529 C531 1.387 . S
H530 C537 0.950 . S
C531 C529 1.387 . S
C531 C533 1.390 . S
C531 H535 0.950 . S
H532 C528 0.950 . S
C533 C531 1.390 . S
C533 C534 1.387 . S
C533 H536 0.950 . S
C534 C533 1.387 . S
C534 C537 1.387 . S
H535 C531 0.950 . S
H536 C533 0.950 . S
C537 C528 1.390 . S
C537 H530 0.950 . S
C537 C534 1.387 . S
C538 C539 1.387 . S
C538 H542 0.950 . S
C538 C547 1.390 . S
C539 C538 1.387 . S
C539 C541 1.387 . S
H540 C547 0.950 . S
C541 C539 1.387 . S
C541 C543 1.390 . S
C541 H545 0.950 . S
H542 C538 0.950 . S
C543 C541 1.390 . S
C543 C544 1.387 . S
C543 H546 0.950 . S
C544 C543 1.387 . S
C544 C547 1.387 . S
H545 C541 0.950 . S
H546 C543 0.950 . S
C547 C538 1.390 . S
C547 H540 0.950 . S
C547 C544 1.387 . S
C548 C549 1.387 . S
C548 H552 0.950 . S
C548 C557 1.390 . S
C549 C548 1.387 . S
C549 C551 1.387 . S
H550 C557 0.950 . S
C551 C549 1.387 . S
C551 C553 1.390 . S
C551 H555 0.950 . S
H552 C548 0.950 . S
C553 C551 1.390 . S
C553 C554 1.387 . S
C553 H556 0.950 . S
C554 C553 1.387 . S
C554 C557 1.387 . S
H555 C551 0.950 . S
H556 C553 0.950 . S
C557 C548 1.390 . S
C557 H550 0.950 . S
C557 C554 1.387 . S
C558 C559 1.387 . S
C558 H562 0.950 . S
C558 C567 1.390 . S
C559 C558 1.387 . S
C559 C561 1.387 . S
H560 C567 0.950 . S
C561 C559 1.387 . S
C561 C563 1.390 . S
C561 H565 0.950 . S
H562 C558 0.950 . S
C563 C561 1.390 . S
C563 C564 1.387 . S
C563 H566 0.950 . S
C564 C563 1.387 . S
C564 C567 1.387 . S
H565 C561 0.950 . S
H566 C563 0.950 . S
C567 C558 1.390 . S
C567 H560 0.950 . S
C567 C564 1.387 . S
C568 C569 1.387 . S
C568 H572 0.950 . S
C568 C577 1.390 . S
C569 C568 1.387 . S
C569 C571 1.387 . S
H570 C577 0.950 . S
C571 C569 1.387 . S
C571 C573 1.390 . S
C571 H575 0.950 . S
H572 C568 0.950 . S
C573 C571 1.390 . S
C573 C574 1.387 . S
C573 H576 0.950 . S
C574 C573 1.387 . S
C574 C577 1.387 . S
H575 C571 0.950 . S
H576 C573 0.950 . S
C577 C568 1.390 . S
C577 H570 0.950 . S
C577 C574 1.387 . S
C578 C579 1.387 . S
C578 H582 0.950 . S
C578 C587 1.390 . S
C579 C578 1.387 . S
C579 C581 1.387 . S
H580 C587 0.950 . S
C581 C579 1.387 . S
C581 C583 1.390 . S
C581 H585 0.950 . S
H582 C578 0.950 . S
C583 C581 1.390 . S
C583 C584 1.387 . S
C583 H586 0.950 . S
C584 C583 1.387 . S
C584 C587 1.387 . S
H585 C581 0.950 . S
H586 C583 0.950 . S
C587 C578 1.390 . S
C587 H580 0.950 . S
C587 C584 1.387 . S
C588 C589 1.387 . S
C588 H592 0.950 . S
C588 C597 1.390 . S
C589 C588 1.387 . S
C589 C591 1.387 . S
H590 C597 0.950 . S
C591 C589 1.387 . S
C591 C593 1.390 . S
C591 H595 0.950 . S
H592 C588 0.950 . S
C593 C591 1.390 . S
C593 C594 1.387 . S
C593 H596 0.950 . S
C594 C593 1.387 . S
C594 C597 1.387 . S
H595 C591 0.950 . S
H596 C593 0.950 . S
C597 C588 1.390 . S
C597 H590 0.950 . S
C597 C594 1.387 . S
C598 C599 1.387 . S
C598 H602 0.950 . S
C598 C607 1.390 . S
C599 C598 1.387 . S
C599 C601 1.387 . S
H600 C607 0.950 . S
C601 C599 1.387 . S
C601 C603 1.390 . S
C601 H605 0.950 . S
H602 C598 0.950 . S
C603 C601 1.390 . S
C603 C604 1.387 . S
C603 H606 0.950 . S
C604 C603 1.387 . S
C604 C607 1.387 . S
H605 C601 0.950 . S
H606 C603 0.950 . S
C607 C598 1.390 . S
C607 H600 0.950 . S
C607 C604 1.387 . S
C608 C609 1.387 . S
C608 H612 0.950 . S
C608 C617 1.390 . S
C609 C608 1.387 . S
C609 C611 1.387 . S
H610 C617 0.950 . S
C611 C609 1.387 . S
C611 C613 1.390 . S
C611 H615 0.950 . S
H612 C608 0.950 . S
C613 C611 1.390 . S
C613 C614 1.387 . S
C613 H616 0.950 . S
C614 C613 1.387 . S
C614 C617 1.387 . S
H615 C611 0.950 . S
H616 C613 0.950 . S
C617 C608 1.390 . S
C617 H610 0.950 . S
C617 C614 1.387 . S
C618 C619 1.387 . S
C618 H622 0.950 . S
C618 C627 1.390 . S
C619 C618 1.387 . S
C619 C621 1.387 1_565 S
H620 C627 0.950 . S
C621 C619 1.387 1_545 S
C621 C623 1.390 . S
C621 H625 0.950 . S
H622 C618 0.950 . S
C623 C621 1.390 . S
C623 C624 1.387 . S
C623 H626 0.950 . S
C624 C623 1.387 . S
C624 C627 1.387 1_545 S
H625 C621 0.950 . S
H626 C623 0.950 . S
C627 C618 1.390 . S
C627 H620 0.950 . S
C627 C624 1.387 1_565 S
C628 C629 1.387 . S
C628 H632 0.950 . S
C628 C637 1.390 . S
C629 C628 1.387 . S
C629 C631 1.387 . S
H630 C637 0.950 . S
C631 C629 1.387 . S
C631 C633 1.390 . S
C631 H635 0.950 . S
H632 C628 0.950 . S
C633 C631 1.390 . S
C633 C634 1.387 . S
C633 H636 0.950 . S
C634 C633 1.387 . S
C634 C637 1.387 . S
H635 C631 0.950 . S
H636 C633 0.950 . S
C637 C628 1.390 . S
C637 H630 0.950 . S
C637 C634 1.387 . S
C638 C639 1.387 1_565 S
C638 H642 0.950 . S
C638 C647 1.390 . S
C639 C638 1.387 1_545 S
C639 C641 1.387 . S
H640 C647 0.950 . S
C641 C639 1.387 . S
C641 C643 1.390 . S
C641 H645 0.950 . S
H642 C638 0.950 . S
C643 C641 1.390 . S
C643 C644 1.387 1_545 S
C643 H646 0.950 . S
C644 C643 1.387 1_565 S
C644 C647 1.387 . S
H645 C641 0.950 . S
H646 C643 0.950 . S
C647 C638 1.390 . S
C647 H640 0.950 . S
C647 C644 1.387 . S
C648 C649 1.387 . S
C648 H652 0.950 . S
C648 C657 1.390 . S
C649 C648 1.387 . S
C649 C651 1.387 . S
H650 C657 0.950 . S
C651 C649 1.387 . S
C651 C653 1.390 . S
C651 H655 0.950 . S
H652 C648 0.950 . S
C653 C651 1.390 . S
C653 C654 1.387 . S
C653 H656 0.950 . S
C654 C653 1.387 . S
C654 C657 1.387 . S
H655 C651 0.950 . S
H656 C653 0.950 . S
C657 C648 1.390 . S
C657 H650 0.950 . S
C657 C654 1.387 . S
C658 C659 1.387 . S
C658 H662 0.950 . S
C658 C667 1.390 . S
C659 C658 1.387 . S
C659 C661 1.387 1_565 S
H660 C667 0.950 . S
C661 C659 1.387 1_545 S
C661 C663 1.390 . S
C661 H665 0.950 . S
H662 C658 0.950 . S
C663 C661 1.390 . S
C663 C664 1.387 . S
C663 H666 0.950 . S
C664 C663 1.387 . S
C664 C667 1.387 1_545 S
H665 C661 0.950 . S
H666 C663 0.950 . S
C667 C658 1.390 . S
C667 H660 0.950 . S
C667 C664 1.387 1_565 S
C668 C669 1.387 . S
C668 H672 0.950 . S
C668 C677 1.390 . S
C669 C668 1.387 . S
C669 C671 1.387 . S
H670 C677 0.950 . S
C671 C669 1.387 . S
C671 C673 1.390 . S
C671 H675 0.950 . S
H672 C668 0.950 . S
C673 C671 1.390 . S
C673 C674 1.387 . S
C673 H676 0.950 . S
C674 C673 1.387 . S
C674 C677 1.387 . S
H675 C671 0.950 . S
H676 C673 0.950 . S
C677 C668 1.390 . S
C677 H670 0.950 . S
C677 C674 1.387 . S
C678 C679 1.387 . S
C678 H682 0.950 . S
C678 C687 1.390 . S
C679 C678 1.387 . S
C679 C681 1.387 1_545 S
H680 C687 0.950 . S
C681 C679 1.387 1_565 S
C681 C683 1.390 . S
C681 H685 0.950 . S
H682 C678 0.950 . S
C683 C681 1.390 . S
C683 C684 1.387 . S
C683 H686 0.950 . S
C684 C683 1.387 . S
C684 C687 1.387 1_565 S
H685 C681 0.950 . S
H686 C683 0.950 . S
C687 C678 1.390 . S
C687 H680 0.950 . S
C687 C684 1.387 1_545 S
C688 C689 1.387 . S
C688 H692 0.950 . S
C688 C697 1.390 . S
C689 C688 1.387 . S
C689 C691 1.387 . S
H690 C697 0.950 . S
C691 C689 1.387 . S
C691 C693 1.390 . S
C691 H695 0.950 . S
H692 C688 0.950 . S
C693 C691 1.390 . S
C693 C694 1.387 . S
C693 H696 0.950 . S
C694 C693 1.387 . S
C694 C697 1.387 . S
H695 C691 0.950 . S
H696 C693 0.950 . S
C697 C688 1.390 . S
C697 H690 0.950 . S
C697 C694 1.387 . S
C698 C699 1.387 . S
C698 H702 0.950 . S
C698 C707 1.390 . S
C699 C698 1.387 . S
C699 C701 1.387 . S
H700 C707 0.950 . S
C701 C699 1.387 . S
C701 C703 1.390 . S
C701 H705 0.950 . S
H702 C698 0.950 . S
C703 C701 1.390 . S
C703 C704 1.387 . S
C703 H706 0.950 . S
C704 C703 1.387 . S
C704 C707 1.387 . S
H705 C701 0.950 . S
H706 C703 0.950 . S
C707 C698 1.390 . S
C707 H700 0.950 . S
C707 C704 1.387 . S
C708 C709 1.387 . S
C708 H712 0.950 . S
C708 C717 1.390 . S
C709 C708 1.387 . S
C709 C711 1.387 . S
H710 C717 0.950 . S
C711 C709 1.387 . S
C711 C713 1.390 . S
C711 H715 0.950 . S
H712 C708 0.950 . S
C713 C711 1.390 . S
C713 C714 1.387 . S
C713 H716 0.950 . S
C714 C713 1.387 . S
C714 C717 1.387 . S
H715 C711 0.950 . S
H716 C713 0.950 . S
C717 C708 1.390 . S
C717 H710 0.950 . S
C717 C714 1.387 . S
C718 C719 1.387 . S
C718 H722 0.950 . S
C718 C727 1.390 . S
C719 C718 1.387 . S
C719 C721 1.387 . S
H720 C727 0.950 . S
C721 C719 1.387 . S
C721 C723 1.390 . S
C721 H725 0.950 . S
H722 C718 0.950 . S
C723 C721 1.390 . S
C723 C724 1.387 . S
C723 H726 0.950 . S
C724 C723 1.387 . S
C724 C727 1.387 . S
H725 C721 0.950 . S
H726 C723 0.950 . S
C727 C718 1.390 . S
C727 H720 0.950 . S
C727 C724 1.387 . S
C728 C729 1.387 . S
C728 H732 0.950 . S
C728 C737 1.390 . S
C729 C728 1.387 . S
C729 C731 1.387 . S
H730 C737 0.950 . S
C731 C729 1.387 . S
C731 C733 1.390 . S
C731 H735 0.950 . S
H732 C728 0.950 . S
C733 C731 1.390 . S
C733 C734 1.387 . S
C733 H736 0.950 . S
C734 C733 1.387 . S
C734 C737 1.387 . S
H735 C731 0.950 . S
H736 C733 0.950 . S
C737 C728 1.390 . S
C737 H730 0.950 . S
C737 C734 1.387 . S
C738 C739 1.387 . S
C738 H742 0.950 . S
C738 C747 1.390 . S
C739 C738 1.387 . S
C739 C741 1.387 . S
H740 C747 0.950 . S
C741 C739 1.387 . S
C741 C743 1.390 . S
C741 H745 0.950 . S
H742 C738 0.950 . S
C743 C741 1.390 . S
C743 C744 1.387 . S
C743 H746 0.950 . S
C744 C743 1.387 . S
C744 C747 1.387 . S
H745 C741 0.950 . S
H746 C743 0.950 . S
C747 C738 1.390 . S
C747 H740 0.950 . S
C747 C744 1.387 . S
C748 C749 1.387 . S
C748 H752 0.950 . S
C748 C757 1.390 . S
C749 C748 1.387 . S
C749 C751 1.387 . S
H750 C757 0.950 . S
C751 C749 1.387 . S
C751 C753 1.390 . S
C751 H755 0.950 . S
H752 C748 0.950 . S
C753 C751 1.390 . S
C753 C754 1.387 . S
C753 H756 0.950 . S
C754 C753 1.387 . S
C754 C757 1.387 . S
H755 C751 0.950 . S
H756 C753 0.950 . S
C757 C748 1.390 . S
C757 H750 0.950 . S
C757 C754 1.387 . S
C758 C759 1.387 . S
C758 H762 0.950 . S
C758 C767 1.390 . S
C759 C758 1.387 . S
C759 C761 1.387 . S
H760 C767 0.950 . S
C761 C759 1.387 . S
C761 C763 1.390 . S
C761 H765 0.950 . S
H762 C758 0.950 . S
C763 C761 1.390 . S
C763 C764 1.387 . S
C763 H766 0.950 . S
C764 C763 1.387 . S
C764 C767 1.387 . S
H765 C761 0.950 . S
H766 C763 0.950 . S
C767 C758 1.390 . S
C767 H760 0.950 . S
C767 C764 1.387 . S
C768 C769 1.387 . S
C768 H772 0.950 . S
C768 C777 1.390 . S
C769 C768 1.387 . S
C769 C771 1.387 . S
H770 C777 0.950 . S
C771 C769 1.387 . S
C771 C773 1.390 . S
C771 H775 0.950 . S
H772 C768 0.950 . S
C773 C771 1.390 . S
C773 C774 1.387 . S
C773 H776 0.950 . S
C774 C773 1.387 . S
C774 C777 1.387 . S
H775 C771 0.950 . S
H776 C773 0.950 . S
C777 C768 1.390 . S
C777 H770 0.950 . S
C777 C774 1.387 . S
C778 C779 1.387 . S
C778 H782 0.950 . S
C778 C787 1.390 . S
C779 C778 1.387 . S
C779 C781 1.387 . S
H780 C787 0.950 . S
C781 C779 1.387 . S
C781 C783 1.390 . S
C781 H785 0.950 . S
H782 C778 0.950 . S
C783 C781 1.390 . S
C783 C784 1.387 . S
C783 H786 0.950 1_565 S
C784 C783 1.387 . S
C784 C787 1.387 . S
H785 C781 0.950 . S
H786 C783 0.950 1_545 S
C787 C778 1.390 . S
C787 H780 0.950 . S
C787 C784 1.387 . S
C788 C789 1.387 . S
C788 H792 0.950 . S
C788 C797 1.390 . S
C789 C788 1.387 . S
C789 C791 1.387 . S
H790 C797 0.950 . S
C791 C789 1.387 . S
C791 C793 1.390 . S
C791 H795 0.950 . S
H792 C788 0.950 . S
C793 C791 1.390 . S
C793 C794 1.387 . S
C793 H796 0.950 . S
C794 C793 1.387 . S
C794 C797 1.387 . S
H795 C791 0.950 . S
H796 C793 0.950 . S
C797 C788 1.390 . S
C797 H790 0.950 . S
C797 C794 1.387 . S
C798 C799 1.387 . S
C798 H802 0.950 . S
C798 C807 1.390 . S
C799 C798 1.387 . S
C799 C801 1.387 . S
H800 C807 0.950 . S
C801 C799 1.387 . S
C801 C803 1.390 . S
C801 H805 0.950 1_545 S
H802 C798 0.950 . S
C803 C801 1.390 . S
C803 C804 1.387 . S
C803 H806 0.950 . S
C804 C803 1.387 . S
C804 C807 1.387 . S
H805 C801 0.950 1_565 S
H806 C803 0.950 . S
C807 C798 1.390 . S
C807 H800 0.950 . S
C807 C804 1.387 . S
C808 C809 1.387 . S
C808 H812 0.950 . S
C808 C817 1.390 . S
C809 C808 1.387 . S
C809 C811 1.387 . S
H810 C817 0.950 . S
C811 C809 1.387 . S
C811 C813 1.390 . S
C811 H815 0.950 . S
H812 C808 0.950 . S
C813 C811 1.390 . S
C813 C814 1.387 . S
C813 H816 0.950 . S
C814 C813 1.387 . S
C814 C817 1.387 . S
H815 C811 0.950 . S
H816 C813 0.950 . S
C817 C808 1.390 . S
C817 H810 0.950 . S
C817 C814 1.387 . S
C818 C819 1.387 . S
C818 H822 0.950 . S
C818 C827 1.390 . S
C819 C818 1.387 . S
C819 C821 1.387 . S
H820 C827 0.950 . S
C821 C819 1.387 . S
C821 C823 1.390 1_545 S
C821 H825 0.950 1_545 S
H822 C818 0.950 . S
C823 C821 1.390 1_565 S
C823 C824 1.387 1_565 S
C823 H826 0.950 . S
C824 C823 1.387 1_545 S
C824 C827 1.387 . S
H825 C821 0.950 1_565 S
H826 C823 0.950 . S
C827 C818 1.390 . S
C827 H820 0.950 . S
C827 C824 1.387 . S
C828 C829 1.387 . S
C828 H832 0.950 . S
C828 C837 1.390 . S
C829 C828 1.387 . S
C829 C831 1.387 . S
H830 C837 0.950 . S
C831 C829 1.387 . S
C831 C833 1.390 . S
C831 H835 0.950 . S
H832 C828 0.950 . S
C833 C831 1.390 . S
C833 C834 1.387 . S
C833 H836 0.950 . S
C834 C833 1.387 . S
C834 C837 1.387 . S
H835 C831 0.950 . S
H836 C833 0.950 . S
C837 C828 1.390 . S
C837 H830 0.950 . S
C837 C834 1.387 . S
C838 C839 1.387 . S
C838 H842 0.950 . S
C838 C847 1.390 1_565 S
C839 C838 1.387 . S
C839 C841 1.387 . S
H840 C847 0.950 . S
C841 C839 1.387 . S
C841 C843 1.390 . S
C841 H845 0.950 . S
H842 C838 0.950 . S
C843 C841 1.390 . S
C843 C844 1.387 . S
C843 H846 0.950 . S
C844 C843 1.387 . S
C844 C847 1.387 1_565 S
H845 C841 0.950 . S
H846 C843 0.950 . S
C847 C838 1.390 1_545 S
C847 H840 0.950 . S
C847 C844 1.387 1_545 S
C369 C16 0.604 . S
C374 C246 0.604 . S
C379 C39 0.603 . S
C384 C269 0.603 . S
C389 C62 0.603 . S
C394 C200 0.603 . S
C399 C223 0.603 . S
C404 C85 0.603 . S
C409 C108 0.604 . S
C414 C338 0.604 . S
C419 C361 0.604 . S
C424 C131 0.604 . S
C429 C292 0.603 . S
C434 C154 0.603 . S
C439 C177 0.603 . S
C444 C315 0.603 . S
C449 C18 2.040 . S
C454 C110 2.040 . S
C459 C41 2.040 . S
C464 C317 2.040 . S
C469 C64 2.041 . S
C474 C156 2.041 . S
C479 C87 2.040 . S
C484 C363 2.040 . S
C489 C133 2.040 . S
C494 C225 2.040 . S
C499 C271 2.040 . S
C504 C179 2.040 . S
C509 C294 2.040 . S
C514 C202 2.040 . S
C519 C248 2.040 . S
C524 C340 2.040 . S
C529 C21 1.761 . S
C534 C178 1.743 . S
C539 C44 1.762 . S
C544 C293 1.741 . S
C549 C67 1.761 . S
C554 C132 1.743 . S
C559 C90 1.762 1_455 S
C564 C339 1.742 . S
C569 C86 1.743 . S
C574 C113 1.761 . S
C579 C136 1.761 . S
C584 C201 1.742 . S
C589 C159 1.761 . S
C594 C40 1.743 . S
C599 C247 1.743 . S
C604 C182 1.761 1_655 S
C609 C205 1.762 . S
C614 C362 1.742 . S
C619 C109 1.742 . S
C624 C228 1.762 1_655 S
C629 C316 1.742 . S
C634 C251 1.762 . S
C639 C155 1.743 . S
C644 C274 1.761 . S
C649 C297 1.761 . S
C654 C270 1.743 . S
C659 C320 1.762 1_455 S
C664 C17 1.743 . S
C669 C224 1.743 . S
C674 C343 1.761 . S
C679 C366 1.762 . S
C684 C63 1.743 . S
C689 C19 1.262 1_556 S
C694 C227 1.275 . S
C699 C250 1.275 . S
C704 C42 1.260 . S
C709 C65 1.261 . S
C714 C273 1.276 . S
C719 C204 1.276 . S
C724 C88 1.262 . S
C729 C319 1.275 . S
C734 C111 1.261 1_554 S
C739 C342 1.275 . S
C744 C134 1.260 . S
C749 C365 1.275 . S
C754 C157 1.260 . S
C759 C296 1.275 . S
C764 C180 1.260 . S
C769 C43 1.275 . S
C774 C203 1.262 . S
C779 C66 1.275 . S
C784 C226 1.260 1_565 S
C789 C89 1.275 . S
C794 C249 1.262 1_556 S
C799 C272 1.260 1_545 S
C804 C20 1.275 . S
C809 C135 1.275 . S
C814 C295 1.261 . S
C819 C158 1.276 . S
C824 C318 1.262 1_545 S
C829 C181 1.275 . S
C834 C341 1.261 1_554 S
C839 C112 1.275 . S
C844 C364 1.261 1_565 S
