# Generated by pormake.
# Topology crb, (4)-cn, num edge types: 1
# Building blocks:
#     Node 0, Type 0, BuildingBlock: TATPOV_clean_sbu_0, # of connection points: 4
#     Node 1, Type 0, BuildingBlock: TATPOV_clean_sbu_0, # of connection points: 4
#     Node 2, Type 0, BuildingBlock: TATPOV_clean_sbu_0, # of connection points: 4
#     Node 3, Type 0, BuildingBlock: TATPOV_clean_sbu_0, # of connection points: 4
#     Node 4, Type 0, BuildingBlock: TATPOV_clean_sbu_0, # of connection points: 4
#     Node 5, Type 0, BuildingBlock: TATPOV_clean_sbu_0, # of connection points: 4
#     Node 6, Type 0, BuildingBlock: TATPOV_clean_sbu_0, # of connection points: 4
#     Node 7, Type 0, BuildingBlock: TATPOV_clean_sbu_0, # of connection points: 4
#     Edge 8, Type (0, 0), BuildingBlock: TEMPAE_clean_linker_10, # of connection points: 2
#     Edge 9, Type (0, 0), BuildingBlock: TEMPAE_clean_linker_10, # of connection points: 2
#     Edge 10, Type (0, 0), BuildingBlock: TEMPAE_clean_linker_10, # of connection points: 2
#     Edge 11, Type (0, 0), BuildingBlock: TEMPAE_clean_linker_10, # of connection points: 2
#     Edge 12, Type (0, 0), BuildingBlock: TEMPAE_clean_linker_10, # of connection points: 2
#     Edge 13, Type (0, 0), BuildingBlock: TEMPAE_clean_linker_10, # of connection points: 2
#     Edge 14, Type (0, 0), BuildingBlock: TEMPAE_clean_linker_10, # of connection points: 2
#     Edge 15, Type (0, 0), BuildingBlock: TEMPAE_clean_linker_10, # of connection points: 2
#     Edge 16, Type (0, 0), BuildingBlock: TEMPAE_clean_linker_10, # of connection points: 2
#     Edge 17, Type (0, 0), BuildingBlock: TEMPAE_clean_linker_10, # of connection points: 2
#     Edge 18, Type (0, 0), BuildingBlock: TEMPAE_clean_linker_10, # of connection points: 2
#     Edge 19, Type (0, 0), BuildingBlock: TEMPAE_clean_linker_10, # of connection points: 2
#     Edge 20, Type (0, 0), BuildingBlock: TEMPAE_clean_linker_10, # of connection points: 2
#     Edge 21, Type (0, 0), BuildingBlock: TEMPAE_clean_linker_10, # of connection points: 2
#     Edge 22, Type (0, 0), BuildingBlock: TEMPAE_clean_linker_10, # of connection points: 2
#     Edge 23, Type (0, 0), BuildingBlock: TEMPAE_clean_linker_10, # of connection points: 2
# Relax obj value: 0.016
# Max RMSD: 0.047
# Mean RMSD: 0.047
data_MOF--net-crb--node1-TATPOV_clean_sbu_0--edge1-TEMPAE_clean_linker_10
_symmetry_space_group_name_H-M    P1
_symmetry_Int_Tables_number       1
_symmetry_cell_setting            triclinic
loop_
_symmetry_equiv_pos_as_xyz
'x, y, z'
_cell_length_a     44.107973
_cell_length_b     41.162042
_cell_length_c     25.422263
_cell_angle_alpha  89.956605
_cell_angle_beta   90.063332
_cell_angle_gamma 90.008026
loop_
_atom_site_label
_atom_site_type_symbol
_atom_site_fract_x
_atom_site_fract_y
_atom_site_fract_z
_atom_type_partial_charge
Zn0 Zn 0.36093 0.34281 0.18505 0.0
Zn1 Zn 0.33192 0.31369 0.10342 0.0
O2 O 0.37706 0.30319 0.09002 0.0
O3 O 0.4008 0.32745 0.15535 0.0
O4 O 0.31058 0.29205 0.04185 0.0
O5 O 0.33727 0.31458 0.23542 0.0
O6 O 0.31241 0.29263 0.16911 0.0
C7 C 0.40163 0.31079 0.1135 0.0
C8 C 0.32904 0.38803 0.11897 0.0
O9 O 0.32233 0.3622 0.09399 0.0
O10 O 0.34491 0.38642 0.16047 0.0
C11 C 0.30455 0.30728 0.9995 0.0
O12 O 0.31237 0.33794 0.99508 0.0
C13 C 0.31723 0.2952 0.21844 0.0
Zn14 Zn 0.63826 0.35048 0.85087 0.0
Zn15 Zn 0.66848 0.32159 0.93212 0.0
O16 O 0.62369 0.30969 0.94563 0.0
O17 O 0.59896 0.33362 0.88103 0.0
O18 O 0.69037 0.30033 0.99358 0.0
O19 O 0.66268 0.32296 0.8004 0.0
O20 O 0.68818 0.30124 0.86627 0.0
C21 C 0.59881 0.31661 0.92257 0.0
C22 C 0.66968 0.3961 0.91681 0.0
O23 O 0.67711 0.37027 0.94123 0.0
O24 O 0.65336 0.39443 0.87585 0.0
C25 C 0.69773 0.31592 0.03493 0.0
O26 O 0.69111 0.34695 0.03847 0.0
C27 C 0.68316 0.30396 0.81703 0.0
Zn28 Zn 0.64149 0.64646 0.19096 0.0
Zn29 Zn 0.66832 0.67985 0.1114 0.0
O30 O 0.62311 0.69122 0.10284 0.0
O31 O 0.60118 0.66559 0.16865 0.0
O32 O 0.68834 0.7041 0.05096 0.0
O33 O 0.66919 0.66926 0.24233 0.0
O34 O 0.68936 0.69796 0.17806 0.0
C35 C 0.59927 0.68364 0.12838 0.0
C36 C 0.66994 0.60459 0.11614 0.0
O37 O 0.67728 0.63166 0.09538 0.0
O38 O 0.65436 0.60409 0.15794 0.0
C39 C 0.69384 0.69043 0.00707 0.0
O40 O 0.68618 0.65989 1.00023 0.0
C41 C 0.68766 0.69079 0.22682 0.0
Zn42 Zn 0.36106 0.64838 0.87092 0.0
Zn43 Zn 0.33062 0.6765 0.95194 0.0
O44 O 0.37536 0.68837 0.96653 0.0
O45 O 0.40025 0.66515 0.90162 0.0
O46 O 0.30844 0.6972 0.01335 0.0
O47 O 0.3367 0.67586 0.82021 0.0
O48 O 0.31098 0.69716 0.88601 0.0
C49 C 0.4003 0.68171 0.9436 0.0
C50 C 0.3297 0.60214 0.93583 0.0
O51 O 0.32201 0.62775 0.9605 0.0
O52 O 0.34615 0.6042 0.89513 0.0
C53 C 0.30262 0.68154 0.05537 0.0
O54 O 0.31114 0.65107 0.05941 0.0
C55 C 0.31609 0.69467 0.83678 0.0
Zn56 Zn 0.85653 0.85561 0.69074 0.0
Zn57 Zn 0.82716 0.82459 0.61137 0.0
O58 O 0.87193 0.81111 0.60099 0.0
O59 O 0.89604 0.83739 0.66378 0.0
O60 O 0.80433 0.80318 0.55142 0.0
O61 O 0.83154 0.83008 0.74308 0.0
O62 O 0.80646 0.80671 0.6783 0.0
C63 C 0.89657 0.8187 0.62423 0.0
C64 C 0.827 0.89936 0.61884 0.0
O65 O 0.81974 0.87288 0.59619 0.0
O66 O 0.84224 0.89877 0.66112 0.0
C67 C 0.81684 0.79434 0.50867 0.0
O68 O 0.84622 0.79809 0.50288 0.0
C69 C 0.81106 0.8108 0.7274 0.0
Zn70 Zn 0.13622 0.84106 0.36913 0.0
Zn71 Zn 0.16504 0.8122 0.45133 0.0
O72 O 0.11984 0.80152 0.4645 0.0
O73 O 0.09639 0.82538 0.39842 0.0
O74 O 0.18654 0.79098 0.51327 0.0
O75 O 0.1602 0.81295 0.31921 0.0
O76 O 0.18479 0.79107 0.38594 0.0
C77 C 0.09538 0.80889 0.44047 0.0
C78 C 0.16767 0.88658 0.43498 0.0
O79 O 0.17443 0.8608 0.4601 0.0
O80 O 0.15181 0.88489 0.39348 0.0
C81 C 0.19307 0.80662 0.55499 0.0
O82 O 0.1855 0.83739 0.55865 0.0
C83 C 0.18018 0.79361 0.33654 0.0
Zn84 Zn 0.13832 0.14655 0.68454 0.0
Zn85 Zn 0.16845 0.17503 0.60327 0.0
O86 O 0.1237 0.18722 0.58979 0.0
O87 O 0.09902 0.16352 0.65457 0.0
O88 O 0.19034 0.19607 0.54175 0.0
O89 O 0.16287 0.17391 0.73503 0.0
O90 O 0.18842 0.19536 0.66909 0.0
C91 C 0.09884 0.18047 0.61297 0.0
C92 C 0.16915 0.10054 0.61859 0.0
O93 O 0.17671 0.12624 0.59396 0.0
O94 O 0.15307 0.10248 0.65974 0.0
C95 C 0.19667 0.18056 0.49984 0.0
O96 O 0.18892 0.14985 0.49583 0.0
C97 C 0.18344 0.19276 0.71835 0.0
Zn98 Zn 0.86063 0.15253 0.35202 0.0
Zn99 Zn 0.83177 0.1829 0.4328 0.0
O100 O 0.87689 0.19351 0.44593 0.0
O101 O 0.90048 0.1685 0.38128 0.0
O102 O 0.81042 0.20495 0.49387 0.0
O103 O 0.83672 0.18018 0.30096 0.0
O104 O 0.81233 0.20339 0.36658 0.0
C105 C 0.90141 0.18565 0.4226 0.0
C106 C 0.82882 0.10829 0.41966 0.0
O107 O 0.82212 0.13454 0.44342 0.0
O108 O 0.84478 0.10917 0.37826 0.0
C109 C 0.80478 0.18994 0.53658 0.0
O110 O 0.81315 0.15948 0.54161 0.0
C111 C 0.81695 0.20005 0.31735 0.0
C112 C 0.30113 0.42281 0.05385 0.0
C113 C 0.3214 0.42018 0.09625 0.0
C114 C 0.29712 0.4525 0.0274 0.0
C115 C 0.31424 0.47993 0.0431 0.0
C116 C 0.33359 0.47777 0.08745 0.0
C117 C 0.33669 0.44803 0.11377 0.0
C118 C 0.27565 0.45409 0.9812 0.0
C119 C 0.35253 0.50634 0.10514 0.0
C120 C 0.33925 0.54256 0.94297 0.0
C121 C 0.32228 0.56982 0.95798 0.0
C122 C 0.3359 0.51275 0.96901 0.0
C123 C 0.31458 0.50991 0.01037 0.0
C124 C 0.29594 0.53671 0.02338 0.0
C125 C 0.30026 0.56651 0.99744 0.0
C126 C 0.35653 0.4849 0.95437 0.0
C127 C 0.27239 0.53435 0.06624 0.0
H128 H 0.28901 0.40147 0.04037 0.0
H129 H 0.35239 0.44626 0.14647 0.0
H130 H 0.26122 0.47612 0.98367 0.0
H131 H 0.28882 0.45575 0.94415 0.0
H132 H 0.26079 0.43233 0.97896 0.0
H133 H 0.36507 0.50123 0.14216 0.0
H134 H 0.36921 0.51258 0.07406 0.0
H135 H 0.33802 0.52799 0.11132 0.0
H136 H 0.35635 0.5449 0.91261 0.0
H137 H 0.28687 0.58741 0.00892 0.0
H138 H 0.34306 0.46276 0.94598 0.0
H139 H 0.37176 0.4792 0.98792 0.0
H140 H 0.37072 0.49049 0.91943 0.0
H141 H 0.25878 0.51185 0.06165 0.0
H142 H 0.25685 0.55559 0.06624 0.0
H143 H 0.28377 0.53308 0.10511 0.0
C144 C 0.45711 0.32099 0.10499 0.0
C145 C 0.43139 0.30344 0.08921 0.0
C146 C 0.48463 0.31813 0.07796 0.0
C147 C 0.4868 0.2966 0.03475 0.0
C148 C 0.46154 0.27715 0.02081 0.0
C149 C 0.43395 0.28112 0.04777 0.0
C150 C 0.51081 0.33978 0.09363 0.0
C151 C 0.46326 0.2532 0.976 0.0
C152 C 0.54298 0.32423 0.93162 0.0
C153 C 0.5694 0.30772 0.94684 0.0
C154 C 0.5156 0.31969 0.95852 0.0
C155 C 0.51435 0.2975 1.00103 0.0
C156 C 0.5404 0.27913 0.01441 0.0
C157 C 0.56778 0.28477 0.98759 0.0
C158 C 0.48853 0.34021 0.94349 0.0
C159 C 0.53969 0.25456 0.05847 0.0
H160 H 0.45539 0.33833 0.13691 0.0
H161 H 0.41425 0.26725 0.03567 0.0
H162 H 0.53154 0.32511 0.10027 0.0
H163 H 0.51578 0.3571 0.06129 0.0
H164 H 0.50598 0.3539 0.12989 0.0
H165 H 0.4436 0.23634 0.97569 0.0
H166 H 0.46365 0.26652 0.93806 0.0
H167 H 0.48446 0.23876 0.97847 0.0
H168 H 0.54398 0.34203 0.90023 0.0
H169 H 0.58804 0.27169 0.99923 0.0
H170 H 0.48281 0.35683 0.97637 0.0
H171 H 0.46846 0.32462 0.93633 0.0
H172 H 0.49276 0.35504 0.9077 0.0
H173 H 0.53866 0.26734 0.09681 0.0
H174 H 0.56009 0.23872 0.05837 0.0
H175 H 0.51917 0.23907 0.05543 0.0
C176 C 0.66021 0.45563 0.92539 0.0
C177 C 0.67716 0.42819 0.93971 0.0
C178 C 0.66336 0.48504 0.95265 0.0
C179 C 0.68444 0.48727 0.99455 0.0
C180 C 0.70321 0.46038 0.00663 0.0
C181 C 0.69912 0.431 0.97944 0.0
C182 C 0.6426 0.51299 0.93896 0.0
C183 C 0.72651 0.46208 0.05007 0.0
C184 C 0.69709 0.57288 0.04619 0.0
C185 C 0.67689 0.57371 0.08879 0.0
C186 C 0.70111 0.54435 0.01662 0.0
C187 C 0.68404 0.51629 0.02937 0.0
C188 C 0.66447 0.51669 0.07347 0.0
C189 C 0.66138 0.54526 0.10289 0.0
C190 C 0.72276 0.54458 0.9707 0.0
C191 C 0.64556 0.48743 0.08806 0.0
H192 H 0.64318 0.45368 0.89478 0.0
H193 H 0.71254 0.40998 0.99032 0.0
H194 H 0.62671 0.51739 0.97203 0.0
H195 H 0.65585 0.53558 0.93306 0.0
H196 H 0.6291 0.50821 0.90286 0.0
H197 H 0.74238 0.44113 0.04902 0.0
H198 H 0.73979 0.48491 0.04723 0.0
H199 H 0.7149 0.46213 0.08876 0.0
H200 H 0.70936 0.59469 0.0353 0.0
H201 H 0.64569 0.54564 0.13567 0.0
H202 H 0.70979 0.54347 0.93335 0.0
H203 H 0.7377 0.5229 0.97202 0.0
H204 H 0.73711 0.56676 0.97012 0.0
H205 H 0.62953 0.48179 0.05565 0.0
H206 H 0.63232 0.49132 0.12466 0.0
H207 H 0.66026 0.46584 0.09361 0.0
C208 C 0.45611 0.67396 0.95283 0.0
C209 C 0.42967 0.69023 0.96847 0.0
C210 C 0.48348 0.67815 0.97997 0.0
C211 C 0.48474 0.69976 0.02321 0.0
C212 C 0.45865 0.71785 0.03721 0.0
C213 C 0.43126 0.71255 0.0101 0.0
C214 C 0.51059 0.65795 0.96418 0.0
C215 C 0.45937 0.74185 0.08203 0.0
C216 C 0.54337 0.67484 0.12415 0.0
C217 C 0.56893 0.69232 0.10747 0.0
C218 C 0.51533 0.67839 0.09881 0.0
C219 C 0.51253 0.70055 0.05647 0.0
C220 C 0.53759 0.72017 0.04218 0.0
C221 C 0.56566 0.71552 0.06739 0.0
C222 C 0.48937 0.65659 0.11484 0.0
C223 C 0.53522 0.74482 0.99839 0.0
H224 H 0.45514 0.65663 0.92078 0.0
H225 H 0.41099 0.72544 0.02213 0.0
H226 H 0.53046 0.67379 0.95672 0.0
H227 H 0.51675 0.64123 0.99677 0.0
H228 H 0.50621 0.64324 0.92834 0.0
H229 H 0.43891 0.75759 0.08251 0.0
H230 H 0.46055 0.72857 0.11996 0.0
H231 H 0.47982 0.75746 0.07942 0.0
H232 H 0.54563 0.65687 0.15509 0.0
H233 H 0.58522 0.72938 0.05465 0.0
H234 H 0.48429 0.63931 0.08251 0.0
H235 H 0.46859 0.6711 0.12186 0.0
H236 H 0.49453 0.64241 0.15096 0.0
H237 H 0.5348 0.73211 0.95994 0.0
H238 H 0.55467 0.76198 0.99848 0.0
H239 H 0.51385 0.75889 1.00173 0.0
C240 C 0.79919 0.93286 0.55191 0.0
C241 C 0.82037 0.93084 0.59302 0.0
C242 C 0.79543 0.96179 0.52325 0.0
C243 C 0.81379 0.98901 0.53523 0.0
C244 C 0.83436 0.98746 0.57797 0.0
C245 C 0.83715 0.95852 0.60667 0.0
C246 C 0.77266 0.96282 0.47891 0.0
C247 C 0.85469 0.01579 0.59162 0.0
C248 C 0.83694 0.04855 0.42896 0.0
C249 C 0.82112 0.07661 0.4439 0.0
C250 C 0.83373 0.01944 0.45707 0.0
C251 C 0.81374 0.01815 0.50057 0.0
C252 C 0.79613 0.04574 0.51361 0.0
C253 C 0.80026 0.07478 0.48545 0.0
C254 C 0.85323 0.9907 0.44224 0.0
C255 C 0.77399 0.04504 0.55884 0.0
H256 H 0.78596 0.91162 0.54144 0.0
H257 H 0.85363 0.95716 0.63827 0.0
H258 H 0.75872 0.9852 0.48137 0.0
H259 H 0.78474 0.96342 0.44067 0.0
H260 H 0.75738 0.94137 0.47924 0.0
H261 H 0.86844 0.01118 0.6275 0.0
H262 H 0.87032 0.02074 0.55838 0.0
H263 H 0.84099 0.03803 0.59795 0.0
H264 H 0.85313 0.04974 0.39698 0.0
H265 H 0.78774 0.0963 0.49694 0.0
H266 H 0.83904 0.96871 0.43692 0.0
H267 H 0.86952 0.98552 0.47447 0.0
H268 H 0.86622 0.99501 0.40548 0.0
H269 H 0.75973 0.02286 0.55701 0.0
H270 H 0.75897 0.06671 0.55904 0.0
H271 H 0.78662 0.04434 0.59658 0.0
C272 C 0.06271 0.78004 0.50684 0.0
C273 C 0.06545 0.80151 0.4642 0.0
C274 C 0.03488 0.77628 0.53321 0.0
C275 C 0.00956 0.7951 0.5174 0.0
C276 C 0.0119 0.81563 0.47291 0.0
C277 C 0.03966 0.81827 0.44656 0.0
C278 C 0.03298 0.75334 0.5794 0.0
C279 C 0.98566 0.83657 0.45516 0.0
C280 C 0.92816 0.7846 0.5632 0.0
C281 C 0.92621 0.80872 0.60204 0.0
C282 C 0.95581 0.77806 0.53778 0.0
C283 C 0.9818 0.7967 0.55054 0.0
C284 C 0.98022 0.82001 0.59135 0.0
C285 C 0.95258 0.82543 0.61696 0.0
C286 C 0.95685 0.75229 0.49565 0.0
C287 C 0.0072 0.84086 0.60566 0.0
H288 H 0.08244 0.76674 0.52038 0.0
H289 H 0.04148 0.83491 0.41364 0.0
H290 H 0.03255 0.76747 0.61651 0.0
H291 H 0.01176 0.73888 0.57765 0.0
H292 H 0.05262 0.73646 0.58085 0.0
H293 H 0.99066 0.84984 0.4181 0.0
H294 H 0.96512 0.82153 0.44902 0.0
H295 H 0.98027 0.85463 0.48618 0.0
H296 H 0.90796 0.77135 0.55181 0.0
H297 H 0.95135 0.84411 0.64692 0.0
H298 H 0.97753 0.73715 0.4999 0.0
H299 H 0.95778 0.764 0.45638 0.0
H300 H 0.93661 0.73624 0.49689 0.0
H301 H 0.02719 0.82544 0.61435 0.0
H302 H 0.00271 0.85656 0.64031 0.0
H303 H 0.0132 0.85666 0.57183 0.0
C304 C 0.15973 0.0409 0.61198 0.0
C305 C 0.17624 0.06827 0.59594 0.0
C306 C 0.16266 0.01113 0.58572 0.0
C307 C 0.18309 0.00846 0.54301 0.0
C308 C 0.20131 0.03539 0.52882 0.0
C309 C 0.19743 0.06513 0.5551 0.0
C310 C 0.14252 0.98313 0.60171 0.0
C311 C 0.22391 0.03322 0.48443 0.0
C312 C 0.19634 0.92152 0.49873 0.0
C313 C 0.17531 0.91874 0.4575 0.0
C314 C 0.20061 0.95121 0.52497 0.0
C315 C 0.18295 0.97848 0.51035 0.0
C316 C 0.16272 0.97617 0.46722 0.0
C317 C 0.1594 0.94643 0.441 0.0
C318 C 0.223 0.95298 0.56982 0.0
C319 C 0.14315 0.00454 0.45076 0.0
H320 H 0.14328 0.04309 0.64342 0.0
H321 H 0.21049 0.08611 0.5428 0.0
H322 H 0.12662 0.97735 0.56916 0.0
H323 H 0.1563 0.96108 0.60922 0.0
H324 H 0.12906 0.9886 0.63754 0.0
H325 H 0.23924 0.05463 0.48325 0.0
H326 H 0.23781 0.01088 0.48825 0.0
H327 H 0.21168 0.03175 0.44636 0.0
H328 H 0.20894 0.90029 0.51139 0.0
H329 H 0.14307 0.94452 0.40925 0.0
H330 H 0.21059 0.95463 0.60765 0.0
H331 H 0.23726 0.97508 0.56633 0.0
H332 H 0.23799 0.93131 0.57128 0.0
H333 H 0.12711 0.0106 0.4829 0.0
H334 H 0.12986 -0.00067 0.41459 0.0
H335 H 0.15733 0.02634 0.44362 0.0
C336 C 0.95703 0.17605 0.4305 0.0
C337 C 0.93123 0.19332 0.44654 0.0
C338 C 0.98462 0.1791 0.45738 0.0
C339 C 0.98676 0.20055 0.50072 0.0
C340 C 0.96142 0.21979 0.51485 0.0
C341 C 0.93378 0.21564 0.48801 0.0
C342 C 0.0109 0.1577 0.44147 0.0
C343 C 0.9631 0.24364 0.5598 0.0
C344 C 0.04304 0.17276 0.60374 0.0
C345 C 0.06942 0.18939 0.58873 0.0
C346 C 0.01565 0.17731 0.57681 0.0
C347 C 0.01432 0.19964 0.5345 0.0
C348 C 0.04032 0.21814 0.52136 0.0
C349 C 0.06774 0.21248 0.54819 0.0
C350 C 0.98864 0.15664 0.59158 0.0
C351 C 0.03953 0.24289 0.47757 0.0
H352 H 0.95534 0.15874 0.39852 0.0
H353 H 0.91403 0.22932 0.50031 0.0
H354 H 0.03155 0.17252 0.43505 0.0
H355 H 0.01598 0.14025 0.4736 0.0
H356 H 0.00611 0.14372 0.40503 0.0
H357 H 0.94342 0.26047 0.56009 0.0
H358 H 0.96347 0.23024 0.59767 0.0
H359 H 0.98429 0.25812 0.55755 0.0
H360 H 0.04409 0.15485 0.63497 0.0
H361 H 0.08796 0.22566 0.53671 0.0
H362 H 0.98292 0.14014 0.5585 0.0
H363 H 0.96853 0.17214 0.5989 0.0
H364 H 0.99293 0.14167 0.62719 0.0
H365 H 0.0386 0.23026 0.43908 0.0
H366 H 0.05985 0.25885 0.47798 0.0
H367 H 0.01892 0.25824 0.48062 0.0
C368 C 0.21349 0.2306 0.45199 0.0
C369 C 0.21305 0.19665 0.45619 0.0
C370 C 0.22918 0.24604 0.41092 0.0
C371 C 0.24537 0.22709 0.37389 0.0
C372 C 0.24487 0.19279 0.37782 0.0
C373 C 0.22846 0.17798 0.41861 0.0
C374 C 0.2287 0.28267 0.40747 0.0
C375 C 0.26234 0.17175 0.3398 0.0
C376 C 0.26967 0.26598 0.24461 0.0
C377 C 0.29922 0.27613 0.25664 0.0
C378 C 0.2518 0.24994 0.28235 0.0
C379 C 0.26409 0.24325 0.33274 0.0
C380 C 0.29425 0.25255 0.34439 0.0
C381 C 0.3113 0.2692 0.30645 0.0
C382 C 0.21955 0.24093 0.26882 0.0
C383 C 0.30845 0.24518 0.39717 0.0
H384 H 0.20139 0.24514 0.48064 0.0
H385 H 0.2283 0.15171 0.42177 0.0
H386 H 0.2519 0.29238 0.41358 0.0
H387 H 0.22122 0.29042 0.36771 0.0
H388 H 0.2134 0.29374 0.43716 0.0
H389 H 0.25898 0.14542 0.34742 0.0
H390 H 0.25531 0.1771 0.29881 0.0
H391 H 0.28691 0.1773 0.34281 0.0
H392 H 0.26019 0.27149 0.20627 0.0
H393 H 0.33423 0.27675 0.31578 0.0
H394 H 0.20372 0.2536 0.2958 0.0
H395 H 0.21602 0.21447 0.27433 0.0
H396 H 0.21354 0.2474 0.22767 0.0
H397 H 0.29596 0.2581 0.42869 0.0
H398 H 0.33267 0.25253 0.39898 0.0
H399 H 0.30686 0.21879 0.40569 0.0
C400 C 0.71335 0.26562 0.08339 0.0
C401 C 0.71398 0.29954 0.0785 0.0
C402 C 0.72887 0.24992 0.12446 0.0
C403 C 0.74596 0.26853 0.16077 0.0
C404 C 0.74658 0.3028 0.1561 0.0
C405 C 0.73033 0.3179 0.11535 0.0
C406 C 0.72719 0.21337 0.1287 0.0
C407 C 0.76503 0.32346 0.19334 0.0
C408 C 0.76992 0.23015 0.29072 0.0
C409 C 0.7991 0.21894 0.2786 0.0
C410 C 0.75226 0.24631 0.25275 0.0
C411 C 0.7644 0.25202 0.20198 0.0
C412 C 0.79418 0.24155 0.19014 0.0
C413 C 0.81101 0.22482 0.22835 0.0
C414 C 0.7204 0.2566 0.26652 0.0
C415 C 0.80824 0.24784 0.13693 0.0
H416 H 0.70053 0.25133 0.05531 0.0
H417 H 0.73101 0.34413 0.11165 0.0
H418 H 0.75002 0.20273 0.1225 0.0
H419 H 0.71971 0.20623 0.16873 0.0
H420 H 0.71136 0.20264 0.09947 0.0
H421 H 0.76256 0.34984 0.18512 0.0
H422 H 0.75807 0.31877 0.23456 0.0
H423 H 0.78936 0.31689 0.19012 0.0
H424 H 0.76056 0.22547 0.3294 0.0
H425 H 0.83367 0.21644 0.21892 0.0
H426 H 0.70401 0.24439 0.23991 0.0
H427 H 0.71773 0.28315 0.26067 0.0
H428 H 0.7144 0.25058 0.30783 0.0
H429 H 0.79505 0.23517 0.10595 0.0
H430 H 0.83215 0.23946 0.13486 0.0
H431 H 0.80756 0.27419 0.12782 0.0
C432 C 0.76692 0.78504 0.4642 0.0
C433 C 0.79842 0.78045 0.46542 0.0
C434 C 0.74922 0.77207 0.42334 0.0
C435 C 0.76327 0.75352 0.38331 0.0
C436 C 0.79509 0.74894 0.38419 0.0
C437 C 0.81231 0.76272 0.42498 0.0
C438 C 0.71543 0.77795 0.42333 0.0
C439 C 0.81084 0.72881 0.34279 0.0
C440 C 0.71349 0.69163 0.31415 0.0
C441 C 0.70755 0.70691 0.26588 0.0
C442 C 0.732 0.7063 0.35217 0.0
C443 C 0.74445 0.73739 0.34224 0.0
C444 C 0.73856 0.75303 0.2936 0.0
C445 C 0.72043 0.73742 0.25569 0.0
C446 C 0.73822 0.6885 0.40305 0.0
C447 C 0.75101 0.78643 0.28199 0.0
H448 H 0.75608 0.799 0.49503 0.0
H449 H 0.83664 0.75903 0.42574 0.0
H450 H 0.70823 0.78839 0.38504 0.0
H451 H 0.70326 0.75456 0.42828 0.0
H452 H 0.70829 0.79466 0.45529 0.0
H453 H 0.83583 0.72833 0.34825 0.0
H454 H 0.80224 0.70349 0.34413 0.0
H455 H 0.80575 0.7385 0.30304 0.0
H456 H 0.70386 0.66789 0.3221 0.0
H457 H 0.71582 0.7494 0.21854 0.0
H458 H 0.72925 0.70268 0.4367 0.0
H459 H 0.76303 0.68592 0.40904 0.0
H460 H 0.72777 0.66395 0.40381 0.0
H461 H 0.74267 0.80396 0.31181 0.0
H462 H 0.74437 0.79527 0.24232 0.0
H463 H 0.77611 0.7862 0.28464 0.0
C464 C 0.22814 0.76514 0.31065 0.0
C465 C 0.19841 0.77463 0.29862 0.0
C466 C 0.24627 0.74941 0.27298 0.0
C467 C 0.23405 0.74234 0.22268 0.0
C468 C 0.20369 0.75089 0.2111 0.0
C469 C 0.18639 0.76727 0.24895 0.0
C470 C 0.27872 0.74121 0.28642 0.0
C471 C 0.18955 0.74307 0.15846 0.0
C472 C 0.28472 0.73109 0.10322 0.0
C473 C 0.28596 0.69716 0.09909 0.0
C474 C 0.26874 0.74609 0.14434 0.0
C475 C 0.25307 0.72669 0.18149 0.0
C476 C 0.25437 0.69242 0.17763 0.0
C477 C 0.27106 0.67807 0.13679 0.0
C478 C 0.26837 0.78271 0.1477 0.0
C479 C 0.23746 0.67091 0.21577 0.0
H480 H 0.23757 0.771 0.34888 0.0
H481 H 0.16331 0.77431 0.23964 0.0
H482 H 0.28285 0.71486 0.2808 0.0
H483 H 0.29424 0.75437 0.25947 0.0
H484 H 0.28461 0.74774 0.32758 0.0
H485 H 0.16516 0.7497 0.1568 0.0
H486 H 0.20163 0.75636 0.12681 0.0
H487 H 0.19181 0.71674 0.15 0.0
H488 H 0.29642 0.74596 0.07447 0.0
H489 H 0.27183 0.65181 0.13367 0.0
H490 H 0.27571 0.79066 0.18742 0.0
H491 H 0.24494 0.79179 0.14165 0.0
H492 H 0.28336 0.7942 0.11793 0.0
H493 H 0.2444 0.67646 0.25672 0.0
H494 H 0.24144 0.64467 0.20821 0.0
H495 H 0.21277 0.67576 0.21283 0.0
C496 C 0.22532 0.80962 0.63574 0.0
C497 C 0.20976 0.79074 0.59857 0.0
C498 C 0.24212 0.79506 0.67635 0.0
C499 C 0.24286 0.76077 0.68055 0.0
C500 C 0.22656 0.74159 0.64392 0.0
C501 C 0.21047 0.75679 0.603 0.0
C502 C 0.2597 0.81635 0.71393 0.0
C503 C 0.22635 0.70498 0.64764 0.0
C504 C 0.30947 0.71977 0.74812 0.0
C505 C 0.29768 0.7131 0.7982 0.0
C506 C 0.29207 0.73588 0.70996 0.0
C507 C 0.26186 0.74492 0.72169 0.0
C508 C 0.24985 0.73842 0.7723 0.0
C509 C 0.26805 0.72291 0.81022 0.0
C510 C 0.30598 0.74303 0.65693 0.0
C511 C 0.21757 0.74718 0.78596 0.0
H512 H 0.22499 0.83588 0.63239 0.0
H513 H 0.19828 0.74208 0.57464 0.0
H514 H 0.25288 0.81115 0.75505 0.0
H515 H 0.28427 0.8109 0.71073 0.0
H516 H 0.25621 0.84263 0.70603 0.0
H517 H 0.211 0.69369 0.61818 0.0
H518 H 0.24958 0.69544 0.64142 0.0
H519 H 0.21909 0.69729 0.68754 0.0
H520 H 0.33245 0.71246 0.73875 0.0
H521 H 0.25878 0.7176 0.84875 0.0
H522 H 0.30426 0.76937 0.64809 0.0
H523 H 0.29337 0.72991 0.62572 0.0
H524 H 0.33021 0.73577 0.65493 0.0
H525 H 0.21386 0.77361 0.78039 0.0
H526 H 0.21173 0.74072 0.82716 0.0
H527 H 0.20175 0.73435 0.75911 0.0
C528 C 0.27308 0.30949 0.91774 0.0
C529 C 0.28826 0.29098 0.95592 0.0
C530 C 0.25665 0.2945 0.87711 0.0
C531 C 0.25591 0.26018 0.87394 0.0
C532 C 0.27187 0.24137 0.91157 0.0
C533 C 0.28758 0.257 0.95247 0.0
C534 C 0.23942 0.31539 0.83844 0.0
C535 C 0.27209 0.20473 0.90895 0.0
C536 C 0.18968 0.21852 0.80646 0.0
C537 C 0.20174 0.21135 0.75679 0.0
C538 C 0.20687 0.23502 0.84442 0.0
C539 C 0.23716 0.24389 0.83295 0.0
C540 C 0.24947 0.23682 0.78278 0.0
C541 C 0.23146 0.22097 0.745 0.0
C542 C 0.19264 0.24279 0.89694 0.0
C543 C 0.28185 0.24535 0.76946 0.0
H544 H 0.27341 0.33577 0.92032 0.0
H545 H 0.29949 0.24258 0.98159 0.0
H546 H 0.24652 0.30969 0.79765 0.0
H547 H 0.21481 0.31007 0.84129 0.0
H548 H 0.24294 0.34176 0.84553 0.0
H549 H 0.28725 0.19375 0.93902 0.0
H550 H 0.24881 0.19526 0.91507 0.0
H551 H 0.27957 0.19661 0.86943 0.0
H552 H 0.16662 0.21138 0.81561 0.0
H553 H 0.24093 0.21526 0.70678 0.0
H554 H 0.19434 0.26922 0.90495 0.0
H555 H 0.20503 0.23001 0.92881 0.0
H556 H 0.16839 0.23557 0.89872 0.0
H557 H 0.28558 0.27184 0.77419 0.0
H558 H 0.28795 0.23838 0.72862 0.0
H559 H 0.29747 0.23283 0.79707 0.0
C560 C 0.68931 0.27823 0.72889 0.0
C561 C 0.70142 0.28543 0.77856 0.0
C562 C 0.7065 0.26182 0.69092 0.0
C563 C 0.73684 0.25308 0.70237 0.0
C564 C 0.74919 0.26017 0.75255 0.0
C565 C 0.73118 0.27592 0.79034 0.0
C566 C 0.69223 0.25399 0.6384 0.0
C567 C 0.78163 0.25178 0.76585 0.0
C568 C 0.77315 0.18764 0.61796 0.0
C569 C 0.78828 0.20621 0.57985 0.0
C570 C 0.75655 0.20256 0.65836 0.0
C571 C 0.7556 0.23688 0.6614 0.0
C572 C 0.77149 0.25575 0.62382 0.0
C573 C 0.78735 0.24019 0.58311 0.0
C574 C 0.73938 0.18159 0.69696 0.0
C575 C 0.7715 0.2924 0.62634 0.0
H576 H 0.66622 0.28531 0.71976 0.0
H577 H 0.74069 0.28166 0.82857 0.0
H578 H 0.70451 0.26684 0.60653 0.0
H579 H 0.69403 0.22756 0.63037 0.0
H580 H 0.66794 0.26107 0.63665 0.0
H581 H 0.78777 0.2588 0.80668 0.0
H582 H 0.78544 0.22531 0.76115 0.0
H583 H 0.79716 0.26436 0.73821 0.0
H584 H 0.77366 0.16135 0.61549 0.0
H585 H 0.79922 0.25464 0.55401 0.0
H586 H 0.71476 0.18687 0.69411 0.0
H587 H 0.74652 0.18727 0.73777 0.0
H588 H 0.74294 0.15524 0.68982 0.0
H589 H 0.74816 0.30171 0.62025 0.0
H590 H 0.78656 0.30345 0.59623 0.0
H591 H 0.77901 0.3006 0.66584 0.0
C592 C 0.70902 0.7423 0.96267 0.0
C593 C 0.70947 0.70826 0.96441 0.0
C594 C 0.72401 0.7593 0.9224 0.0
C595 C 0.74046 0.74186 0.88381 0.0
C596 C 0.74093 0.70748 0.88539 0.0
C597 C 0.72513 0.6911 0.9253 0.0
C598 C 0.72244 0.79594 0.92138 0.0
C599 C 0.75877 0.688 0.84575 0.0
C600 C 0.76327 0.78264 0.75525 0.0
C601 C 0.79287 0.79282 0.76672 0.0
C602 C 0.7457 0.76646 0.79326 0.0
C603 C 0.75838 0.75955 0.84327 0.0
C604 C 0.78847 0.7693 0.8546 0.0
C605 C 0.80518 0.78618 0.81646 0.0
C606 C 0.71347 0.75709 0.78015 0.0
C607 C 0.80312 0.76168 0.90691 0.0
H608 H 0.69672 0.75565 0.99256 0.0
H609 H 0.72569 0.66478 0.92662 0.0
H610 H 0.74537 0.80629 0.92766 0.0
H611 H 0.71445 0.80441 0.88229 0.0
H612 H 0.70703 0.80573 0.95206 0.0
H613 H 0.75646 0.6614 0.85198 0.0
H614 H 0.75113 0.69389 0.80528 0.0
H615 H 0.78314 0.69452 0.84835 0.0
H616 H 0.75362 0.78794 0.71696 0.0
H617 H 0.82816 0.79377 0.82535 0.0
H618 H 0.69771 0.76818 0.809 0.0
H619 H 0.71071 0.73037 0.78304 0.0
H620 H 0.70674 0.76494 0.73999 0.0
H621 H 0.7902 0.77334 0.93919 0.0
H622 H 0.82701 0.77015 0.90893 0.0
H623 H 0.80267 0.73508 0.91405 0.0
loop_
_geom_bond_atom_site_label_1
_geom_bond_atom_site_label_2
_geom_bond_distance
_geom_bond_site_symmetry_2
_ccdc_geom_bond_type
Zn0 O3 2.031 . S
Zn0 O5 2.049 . S
Zn0 O10 2.067 . S
Zn1 O2 1.961 1_554 S
Zn1 O4 1.978 1_554 S
Zn1 O6 2.013 . S
Zn1 O9 1.943 . S
O2 Zn1 1.961 1_556 S
O2 C7 1.254 1_556 S
O3 Zn0 2.031 . S
O3 C7 1.269 . S
O4 Zn1 1.978 1_556 S
O4 C11 1.262 . S
O5 Zn0 2.049 . S
O5 C13 1.260 . S
O6 Zn1 2.013 . S
O6 C13 1.257 . S
C7 O2 1.254 1_554 S
C7 O3 1.269 . S
C8 O9 1.250 . S
C8 O10 1.270 . S
O9 Zn1 1.943 . S
O9 C8 1.250 . S
O10 Zn0 2.067 . S
O10 C8 1.270 . S
C11 O4 1.262 . S
C11 O12 1.232 . S
O12 C11 1.232 . S
C13 O5 1.260 . S
C13 O6 1.257 . S
Zn14 O17 2.031 . S
Zn14 O19 2.049 . S
Zn14 O24 2.067 . S
Zn15 O16 1.962 . S
Zn15 O18 1.986 . S
Zn15 O20 1.996 1_554 S
Zn15 O23 1.943 . S
O16 Zn15 1.962 . S
O16 C21 1.254 . S
O17 Zn14 2.031 . S
O17 C21 1.269 1_556 S
O18 Zn15 1.986 . S
O18 C25 1.262 . S
O19 Zn14 2.049 . S
O19 C27 1.260 . S
O20 Zn15 1.996 1_556 S
O20 C27 1.257 . S
C21 O16 1.254 . S
C21 O17 1.269 1_554 S
C22 O23 1.249 . S
C22 O24 1.270 1_554 S
O23 Zn15 1.943 . S
O23 C22 1.249 . S
O24 Zn14 2.067 . S
O24 C22 1.270 1_556 S
C25 O18 1.262 . S
C25 O26 1.232 . S
O26 C25 1.232 . S
C27 O19 1.260 . S
C27 O20 1.257 . S
Zn28 O31 2.031 . S
Zn28 O33 2.049 . S
Zn28 O38 2.067 . S
Zn29 O30 1.961 1_554 S
Zn29 O32 1.978 1_554 S
Zn29 O34 2.013 . S
Zn29 O37 1.943 . S
O30 Zn29 1.961 1_556 S
O30 C35 1.254 1_556 S
O31 Zn28 2.031 . S
O31 C35 1.269 . S
O32 Zn29 1.978 1_556 S
O32 C39 1.262 . S
O33 Zn28 2.049 . S
O33 C41 1.260 . S
O34 Zn29 2.013 . S
O34 C41 1.257 . S
C35 O30 1.254 1_554 S
C35 O31 1.269 . S
C36 O37 1.250 . S
C36 O38 1.270 . S
O37 Zn29 1.943 . S
O37 C36 1.250 . S
O38 Zn28 2.067 . S
O38 C36 1.270 . S
C39 O32 1.262 . S
C39 O40 1.232 . S
O40 C39 1.232 . S
C41 O33 1.260 . S
C41 O34 1.257 . S
Zn42 O45 2.031 . S
Zn42 O47 2.049 . S
Zn42 O52 2.067 . S
Zn43 O44 1.962 . S
Zn43 O46 1.986 . S
Zn43 O48 1.996 1_554 S
Zn43 O51 1.943 . S
O44 Zn43 1.962 . S
O44 C49 1.254 . S
O45 Zn42 2.031 . S
O45 C49 1.269 1_556 S
O46 Zn43 1.986 . S
O46 C53 1.262 . S
O47 Zn42 2.049 . S
O47 C55 1.260 . S
O48 Zn43 1.996 1_556 S
O48 C55 1.257 . S
C49 O44 1.254 . S
C49 O45 1.269 1_554 S
C50 O51 1.249 . S
C50 O52 1.270 1_554 S
O51 Zn43 1.943 . S
O51 C50 1.249 . S
O52 Zn42 2.067 . S
O52 C50 1.270 1_556 S
C53 O46 1.262 . S
C53 O54 1.232 . S
O54 C53 1.232 . S
C55 O47 1.260 . S
C55 O48 1.257 . S
Zn56 O59 2.031 . S
Zn56 O61 2.049 . S
Zn56 O66 2.067 . S
Zn57 O58 1.962 . S
Zn57 O60 1.986 . S
Zn57 O62 1.996 . S
Zn57 O65 1.943 . S
O58 Zn57 1.962 . S
O58 C63 1.254 . S
O59 Zn56 2.031 . S
O59 C63 1.269 . S
O60 Zn57 1.986 . S
O60 C67 1.262 . S
O61 Zn56 2.049 . S
O61 C69 1.260 . S
O62 Zn57 1.996 . S
O62 C69 1.257 . S
C63 O58 1.254 . S
C63 O59 1.269 . S
C64 O65 1.249 . S
C64 O66 1.270 . S
O65 Zn57 1.943 . S
O65 C64 1.249 . S
O66 Zn56 2.067 . S
O66 C64 1.270 . S
C67 O60 1.262 . S
C67 O68 1.232 . S
O68 C67 1.232 . S
C69 O61 1.260 . S
C69 O62 1.257 . S
Zn70 O73 2.031 . S
Zn70 O75 2.049 . S
Zn70 O80 2.067 . S
Zn71 O72 1.962 . S
Zn71 O74 1.986 . S
Zn71 O76 1.996 . S
Zn71 O79 1.943 . S
O72 Zn71 1.962 . S
O72 C77 1.254 . S
O73 Zn70 2.031 . S
O73 C77 1.269 . S
O74 Zn71 1.986 . S
O74 C81 1.262 . S
O75 Zn70 2.049 . S
O75 C83 1.260 . S
O76 Zn71 1.996 . S
O76 C83 1.257 . S
C77 O72 1.254 . S
C77 O73 1.269 . S
C78 O79 1.249 . S
C78 O80 1.270 . S
O79 Zn71 1.943 . S
O79 C78 1.249 . S
O80 Zn70 2.067 . S
O80 C78 1.270 . S
C81 O74 1.262 . S
C81 O82 1.232 . S
O82 C81 1.232 . S
C83 O75 1.260 . S
C83 O76 1.257 . S
Zn84 O87 2.031 . S
Zn84 O89 2.049 . S
Zn84 O94 2.067 . S
Zn85 O86 1.962 . S
Zn85 O88 1.986 . S
Zn85 O90 1.996 . S
Zn85 O93 1.943 . S
O86 Zn85 1.962 . S
O86 C91 1.254 . S
O87 Zn84 2.031 . S
O87 C91 1.269 . S
O88 Zn85 1.986 . S
O88 C95 1.262 . S
O89 Zn84 2.049 . S
O89 C97 1.260 . S
O90 Zn85 1.996 . S
O90 C97 1.257 . S
C91 O86 1.254 . S
C91 O87 1.269 . S
C92 O93 1.249 . S
C92 O94 1.270 . S
O93 Zn85 1.943 . S
O93 C92 1.249 . S
O94 Zn84 2.067 . S
O94 C92 1.270 . S
C95 O88 1.262 . S
C95 O96 1.232 . S
O96 C95 1.232 . S
C97 O89 1.260 . S
C97 O90 1.257 . S
Zn98 O101 2.031 . S
Zn98 O103 2.049 . S
Zn98 O108 2.067 . S
Zn99 O100 1.962 . S
Zn99 O102 1.986 . S
Zn99 O104 1.996 . S
Zn99 O107 1.943 . S
O100 Zn99 1.962 . S
O100 C105 1.254 . S
O101 Zn98 2.031 . S
O101 C105 1.269 . S
O102 Zn99 1.986 . S
O102 C109 1.262 . S
O103 Zn98 2.049 . S
O103 C111 1.260 . S
O104 Zn99 1.996 . S
O104 C111 1.257 . S
C105 O100 1.254 . S
C105 O101 1.269 . S
C106 O107 1.249 . S
C106 O108 1.270 . S
O107 Zn99 1.943 . S
O107 C106 1.249 . S
O108 Zn98 2.067 . S
O108 C106 1.270 . S
C109 O102 1.262 . S
C109 O110 1.232 . S
O110 C109 1.232 . S
C111 O103 1.260 . S
C111 O104 1.257 . S
C112 C113 1.391 1_556 S
C112 C114 1.394 . S
C112 H128 0.931 . S
C113 C112 1.391 1_554 S
C113 C117 1.376 . S
C114 C112 1.394 . S
C114 C115 1.369 1_556 S
C114 C118 1.531 . S
C115 C114 1.369 1_554 S
C115 C116 1.410 . S
C115 C123 1.503 . S
C116 C115 1.410 . S
C116 C117 1.392 . S
C116 C119 1.511 . S
C117 C113 1.376 . S
C117 C116 1.392 . S
C117 H129 0.929 . S
C118 C114 1.531 . S
C118 H130 0.960 . S
C118 H131 0.962 . S
C118 H132 0.960 . S
C119 C116 1.511 . S
C119 H133 0.961 . S
C119 H134 0.961 . S
C119 H135 0.961 . S
C120 C121 1.370 . S
C120 C122 1.363 . S
C120 H136 0.931 . S
C121 C120 1.370 . S
C121 C125 1.408 1_554 S
C122 C120 1.363 . S
C122 C123 1.370 . S
C122 C126 1.524 . S
C123 C115 1.503 . S
C123 C122 1.370 . S
C123 C124 1.403 1_554 S
C124 C123 1.403 1_556 S
C124 C125 1.404 . S
C124 C127 1.539 . S
C125 C121 1.408 1_556 S
C125 C124 1.404 . S
C125 H137 0.930 . S
C126 C122 1.524 . S
C126 H138 0.956 . S
C126 H139 0.961 . S
C126 H140 0.961 . S
C127 C124 1.539 . S
C127 H141 0.958 . S
C127 H142 0.961 . S
C127 H143 0.960 . S
H128 C112 0.931 . S
H129 C117 0.929 . S
H130 C118 0.960 . S
H131 C118 0.962 . S
H132 C118 0.960 . S
H133 C119 0.961 . S
H134 C119 0.961 . S
H135 C119 0.961 . S
H136 C120 0.931 . S
H137 C125 0.930 . S
H138 C126 0.956 . S
H139 C126 0.961 . S
H140 C126 0.961 . S
H141 C127 0.958 . S
H142 C127 0.961 . S
H143 C127 0.960 . S
C144 C145 1.391 . S
C144 C146 1.394 . S
C144 H160 0.931 . S
C145 C144 1.391 . S
C145 C149 1.376 1_554 S
C146 C144 1.394 . S
C146 C147 1.369 . S
C146 C150 1.531 . S
C147 C146 1.369 . S
C147 C148 1.410 1_554 S
C147 C155 1.503 . S
C148 C147 1.410 1_556 S
C148 C149 1.392 . S
C148 C151 1.511 . S
C149 C145 1.376 1_556 S
C149 C148 1.392 . S
C149 H161 0.929 . S
C150 C146 1.531 . S
C150 H162 0.960 . S
C150 H163 0.962 . S
C150 H164 0.960 . S
C151 C148 1.511 . S
C151 H165 0.961 . S
C151 H166 0.961 . S
C151 H167 0.961 . S
C152 C153 1.370 . S
C152 C154 1.363 . S
C152 H168 0.931 . S
C153 C152 1.370 . S
C153 C157 1.408 . S
C154 C152 1.363 . S
C154 C155 1.370 . S
C154 C158 1.524 . S
C155 C147 1.503 . S
C155 C154 1.370 . S
C155 C156 1.403 . S
C156 C155 1.403 . S
C156 C157 1.404 . S
C156 C159 1.539 1_554 S
C157 C153 1.408 . S
C157 C156 1.404 . S
C157 H169 0.930 . S
C158 C154 1.524 . S
C158 H170 0.956 . S
C158 H171 0.961 . S
C158 H172 0.961 . S
C159 C156 1.539 1_556 S
C159 H173 0.958 1_556 S
C159 H174 0.961 . S
C159 H175 0.960 . S
H160 C144 0.931 . S
H161 C149 0.929 . S
H162 C150 0.960 . S
H163 C150 0.962 . S
H164 C150 0.960 . S
H165 C151 0.961 . S
H166 C151 0.961 . S
H167 C151 0.961 . S
H168 C152 0.931 . S
H169 C157 0.930 . S
H170 C158 0.956 . S
H171 C158 0.961 . S
H172 C158 0.961 . S
H173 C159 0.958 1_554 S
H174 C159 0.961 . S
H175 C159 0.960 . S
C176 C177 1.391 . S
C176 C178 1.394 . S
C176 H192 0.931 . S
C177 C176 1.391 . S
C177 C181 1.376 . S
C178 C176 1.394 . S
C178 C179 1.369 . S
C178 C182 1.531 . S
C179 C178 1.369 . S
C179 C180 1.410 . S
C179 C187 1.503 . S
C180 C179 1.410 . S
C180 C181 1.392 . S
C180 C183 1.511 1_554 S
C181 C177 1.376 . S
C181 C180 1.392 . S
C181 H193 0.929 1_554 S
C182 C178 1.531 . S
C182 H194 0.960 . S
C182 H195 0.962 . S
C182 H196 0.960 . S
C183 C180 1.511 1_556 S
C183 H197 0.961 . S
C183 H198 0.961 . S
C183 H199 0.952 1_556 S
C184 C185 1.370 1_556 S
C184 C186 1.363 . S
C184 H200 0.931 . S
C185 C184 1.370 1_554 S
C185 C189 1.408 . S
C186 C184 1.363 . S
C186 C187 1.370 1_556 S
C186 C190 1.524 . S
C187 C179 1.503 . S
C187 C186 1.370 1_554 S
C187 C188 1.403 . S
C188 C187 1.403 . S
C188 C189 1.404 . S
C188 C191 1.539 . S
C189 C185 1.408 . S
C189 C188 1.404 . S
C189 H201 0.930 . S
C190 C186 1.524 . S
C190 H202 0.956 . S
C190 H203 0.961 . S
C190 H204 0.961 . S
C191 C188 1.539 . S
C191 H205 0.958 . S
C191 H206 0.961 . S
C191 H207 0.960 . S
H192 C176 0.931 . S
H193 C181 0.929 1_556 S
H194 C182 0.960 . S
H195 C182 0.962 . S
H196 C182 0.960 . S
H197 C183 0.961 . S
H198 C183 0.961 . S
H199 C183 0.952 1_554 S
H200 C184 0.931 . S
H201 C189 0.930 . S
H202 C190 0.956 . S
H203 C190 0.961 . S
H204 C190 0.961 . S
H205 C191 0.958 . S
H206 C191 0.961 . S
H207 C191 0.960 . S
C208 C209 1.391 . S
C208 C210 1.394 . S
C208 H224 0.931 . S
C209 C208 1.391 . S
C209 C213 1.376 . S
C210 C208 1.394 . S
C210 C211 1.369 . S
C210 C214 1.531 . S
C211 C210 1.369 . S
C211 C212 1.410 1_554 S
C211 C219 1.503 . S
C212 C211 1.410 1_556 S
C212 C213 1.392 1_556 S
C212 C215 1.511 . S
C213 C209 1.376 . S
C213 C212 1.392 1_554 S
C213 H225 0.929 1_554 S
C214 C210 1.531 . S
C214 H226 0.960 . S
C214 H227 0.962 . S
C214 H228 0.960 . S
C215 C212 1.511 . S
C215 H229 0.961 . S
C215 H230 0.961 . S
C215 H231 0.961 . S
C216 C217 1.370 . S
C216 C218 1.363 . S
C216 H232 0.931 . S
C217 C216 1.370 . S
C217 C221 1.408 1_554 S
C218 C216 1.363 . S
C218 C219 1.370 . S
C218 C222 1.524 . S
C219 C211 1.503 . S
C219 C218 1.370 . S
C219 C220 1.403 1_554 S
C220 C219 1.403 1_556 S
C220 C221 1.404 . S
C220 C223 1.539 . S
C221 C217 1.408 1_556 S
C221 C220 1.404 . S
C221 H233 0.930 . S
C222 C218 1.524 . S
C222 H234 0.956 . S
C222 H235 0.961 . S
C222 H236 0.961 . S
C223 C220 1.539 . S
C223 H237 0.958 . S
C223 H238 0.961 . S
C223 H239 0.960 . S
H224 C208 0.931 . S
H225 C213 0.929 1_556 S
H226 C214 0.960 . S
H227 C214 0.962 . S
H228 C214 0.960 . S
H229 C215 0.961 . S
H230 C215 0.961 . S
H231 C215 0.961 . S
H232 C216 0.931 . S
H233 C221 0.930 . S
H234 C222 0.956 . S
H235 C222 0.961 . S
H236 C222 0.961 . S
H237 C223 0.958 . S
H238 C223 0.961 . S
H239 C223 0.960 . S
C240 C241 1.391 . S
C240 C242 1.394 . S
C240 H256 0.931 . S
C241 C240 1.391 . S
C241 C245 1.376 . S
C242 C240 1.394 . S
C242 C243 1.369 . S
C242 C246 1.531 . S
C243 C242 1.369 . S
C243 C244 1.410 . S
C243 C251 1.503 1_565 S
C244 C243 1.410 . S
C244 C245 1.392 . S
C244 C247 1.511 . S
C245 C241 1.376 . S
C245 C244 1.392 . S
C245 H257 0.929 . S
C246 C242 1.531 . S
C246 H258 0.960 1_565 S
C246 H259 0.962 . S
C246 H260 0.960 . S
C247 C244 1.511 . S
C247 H261 0.961 . S
C247 H262 0.961 1_565 S
C247 H263 0.961 . S
C248 C249 1.370 . S
C248 C250 1.363 . S
C248 H264 0.931 . S
C249 C248 1.370 . S
C249 C253 1.408 . S
C250 C248 1.363 . S
C250 C251 1.370 . S
C250 C254 1.524 . S
C251 C243 1.503 1_545 S
C251 C250 1.370 . S
C251 C252 1.403 . S
C252 C251 1.403 . S
C252 C253 1.404 . S
C252 C255 1.539 . S
C253 C249 1.408 . S
C253 C252 1.404 . S
C253 H265 0.930 . S
C254 C250 1.524 . S
C254 H266 0.956 . S
C254 H267 0.961 1_545 S
C254 H268 0.961 . S
C255 C252 1.539 . S
C255 H269 0.958 . S
C255 H270 0.961 . S
C255 H271 0.969 . S
H256 C240 0.931 . S
H257 C245 0.929 . S
H258 C246 0.960 1_545 S
H259 C246 0.962 . S
H260 C246 0.960 . S
H261 C247 0.961 . S
H262 C247 0.961 1_545 S
H263 C247 0.961 . S
H264 C248 0.931 . S
H265 C253 0.930 . S
H266 C254 0.956 . S
H267 C254 0.961 1_565 S
H268 C254 0.961 . S
H269 C255 0.958 . S
H270 C255 0.961 . S
H271 C255 0.969 . S
C272 C273 1.391 . S
C272 C274 1.394 . S
C272 H288 0.931 . S
C273 C272 1.391 . S
C273 C277 1.376 . S
C274 C272 1.394 . S
C274 C275 1.369 . S
C274 C278 1.531 . S
C275 C274 1.369 . S
C275 C276 1.410 . S
C275 C283 1.503 1_455 S
C276 C275 1.410 . S
C276 C277 1.392 . S
C276 C279 1.511 . S
C277 C273 1.376 . S
C277 C276 1.392 . S
C277 H289 0.929 . S
C278 C274 1.531 . S
C278 H290 0.960 1_455 S
C278 H291 0.962 . S
C278 H292 0.960 . S
C279 C276 1.511 . S
C279 H293 0.961 . S
C279 H294 0.952 1_455 S
C279 H295 0.961 . S
C280 C281 1.370 . S
C280 C282 1.363 . S
C280 H296 0.931 . S
C281 C280 1.370 . S
C281 C285 1.408 . S
C282 C280 1.363 . S
C282 C283 1.370 . S
C282 C286 1.524 . S
C283 C275 1.503 1_655 S
C283 C282 1.370 . S
C283 C284 1.403 . S
C284 C283 1.403 . S
C284 C285 1.404 . S
C284 C287 1.539 . S
C285 C281 1.408 . S
C285 C284 1.404 . S
C285 H297 0.930 . S
C286 C282 1.524 . S
C286 H298 0.956 . S
C286 H299 0.961 1_655 S
C286 H300 0.961 . S
C287 C284 1.539 . S
C287 H301 0.958 . S
C287 H302 0.961 . S
C287 H303 0.960 1_655 S
H288 C272 0.931 . S
H289 C277 0.929 . S
H290 C278 0.960 1_655 S
H291 C278 0.962 . S
H292 C278 0.960 . S
H293 C279 0.961 . S
H294 C279 0.952 1_655 S
H295 C279 0.961 . S
H296 C280 0.931 . S
H297 C285 0.930 . S
H298 C286 0.956 . S
H299 C286 0.961 1_455 S
H300 C286 0.961 . S
H301 C287 0.958 . S
H302 C287 0.961 . S
H303 C287 0.960 1_455 S
C304 C305 1.391 . S
C304 C306 1.394 . S
C304 H320 0.931 . S
C305 C304 1.391 . S
C305 C309 1.376 . S
C306 C304 1.394 . S
C306 C307 1.369 . S
C306 C310 1.531 . S
C307 C306 1.369 . S
C307 C308 1.410 . S
C307 C315 1.503 1_545 S
C308 C307 1.410 . S
C308 C309 1.392 . S
C308 C311 1.511 . S
C309 C305 1.376 . S
C309 C308 1.392 . S
C309 H321 0.929 . S
C310 C306 1.531 . S
C310 H322 0.960 1_545 S
C310 H323 0.962 . S
C310 H324 0.960 . S
C311 C308 1.511 . S
C311 H325 0.961 . S
C311 H326 0.961 1_545 S
C311 H327 0.961 . S
C312 C313 1.370 . S
C312 C314 1.363 . S
C312 H328 0.931 . S
C313 C312 1.370 . S
C313 C317 1.408 . S
C314 C312 1.363 . S
C314 C315 1.370 . S
C314 C318 1.524 . S
C315 C307 1.503 1_565 S
C315 C314 1.370 . S
C315 C316 1.403 . S
C316 C315 1.403 . S
C316 C317 1.404 . S
C316 C319 1.539 . S
C317 C313 1.408 . S
C317 C316 1.404 . S
C317 H329 0.930 . S
C318 C314 1.524 . S
C318 H330 0.956 . S
C318 H331 0.961 1_565 S
C318 H332 0.961 . S
C319 C316 1.539 . S
C319 H333 0.958 . S
C319 H334 0.961 . S
C319 H335 0.970 . S
H320 C304 0.931 . S
H321 C309 0.929 . S
H322 C310 0.960 1_565 S
H323 C310 0.962 . S
H324 C310 0.960 . S
H325 C311 0.961 . S
H326 C311 0.961 1_565 S
H327 C311 0.961 . S
H328 C312 0.931 . S
H329 C317 0.930 . S
H330 C318 0.956 . S
H331 C318 0.961 1_545 S
H332 C318 0.961 . S
H333 C319 0.958 . S
H334 C319 0.961 . S
H335 C319 0.970 . S
C336 C337 1.391 . S
C336 C338 1.394 . S
C336 H352 0.931 . S
C337 C336 1.391 . S
C337 C341 1.376 . S
C338 C336 1.394 . S
C338 C339 1.369 . S
C338 C342 1.531 . S
C339 C338 1.369 . S
C339 C340 1.410 . S
C339 C347 1.503 1_655 S
C340 C339 1.410 . S
C340 C341 1.392 . S
C340 C343 1.511 . S
C341 C337 1.376 . S
C341 C340 1.392 . S
C341 H353 0.929 . S
C342 C338 1.531 . S
C342 H354 0.963 1_655 S
C342 H355 0.962 . S
C342 H356 0.960 . S
C343 C340 1.511 . S
C343 H357 0.961 . S
C343 H358 0.961 1_655 S
C343 H359 0.961 . S
C344 C345 1.370 . S
C344 C346 1.363 . S
C344 H360 0.931 . S
C345 C344 1.370 . S
C345 C349 1.408 . S
C346 C344 1.363 . S
C346 C347 1.370 . S
C346 C350 1.524 . S
C347 C339 1.503 1_455 S
C347 C346 1.370 . S
C347 C348 1.403 . S
C348 C347 1.403 . S
C348 C349 1.404 . S
C348 C351 1.539 . S
C349 C345 1.408 . S
C349 C348 1.404 . S
C349 H361 0.930 . S
C350 C346 1.524 . S
C350 H362 0.951 1_455 S
C350 H363 0.961 1_455 S
C350 H364 0.961 . S
C351 C348 1.539 . S
C351 H365 0.958 . S
C351 H366 0.961 . S
C351 H367 0.960 . S
H352 C336 0.931 . S
H353 C341 0.929 . S
H354 C342 0.963 1_455 S
H355 C342 0.962 . S
H356 C342 0.960 . S
H357 C343 0.961 . S
H358 C343 0.961 1_455 S
H359 C343 0.961 . S
H360 C344 0.931 . S
H361 C349 0.930 . S
H362 C350 0.951 1_655 S
H363 C350 0.961 1_655 S
H364 C350 0.961 . S
H365 C351 0.958 . S
H366 C351 0.961 . S
H367 C351 0.960 . S
C368 C369 1.391 . S
C368 C370 1.394 . S
C368 H384 0.931 . S
C369 C368 1.391 . S
C369 C373 1.376 . S
C370 C368 1.394 . S
C370 C371 1.369 . S
C370 C374 1.531 . S
C371 C370 1.369 . S
C371 C372 1.410 . S
C371 C379 1.503 . S
C372 C371 1.410 . S
C372 C373 1.392 . S
C372 C375 1.511 . S
C373 C369 1.376 . S
C373 C372 1.392 . S
C373 H385 0.929 . S
C374 C370 1.531 . S
C374 H386 0.960 . S
C374 H387 0.962 . S
C374 H388 0.960 . S
C375 C372 1.511 . S
C375 H389 0.961 . S
C375 H390 0.961 . S
C375 H391 0.961 . S
C376 C377 1.370 . S
C376 C378 1.363 . S
C376 H392 0.931 . S
C377 C376 1.370 . S
C377 C381 1.408 . S
C378 C376 1.363 . S
C378 C379 1.370 . S
C378 C382 1.524 . S
C379 C371 1.503 . S
C379 C378 1.370 . S
C379 C380 1.403 . S
C380 C379 1.403 . S
C380 C381 1.404 . S
C380 C383 1.539 . S
C381 C377 1.408 . S
C381 C380 1.404 . S
C381 H393 0.930 . S
C382 C378 1.524 . S
C382 H394 0.956 . S
C382 H395 0.961 . S
C382 H396 0.961 . S
C383 C380 1.539 . S
C383 H397 0.958 . S
C383 H398 0.961 . S
C383 H399 0.960 . S
H384 C368 0.931 . S
H385 C373 0.929 . S
H386 C374 0.960 . S
H387 C374 0.962 . S
H388 C374 0.960 . S
H389 C375 0.961 . S
H390 C375 0.961 . S
H391 C375 0.961 . S
H392 C376 0.931 . S
H393 C381 0.930 . S
H394 C382 0.956 . S
H395 C382 0.961 . S
H396 C382 0.961 . S
H397 C383 0.958 . S
H398 C383 0.961 . S
H399 C383 0.960 . S
C400 C401 1.391 . S
C400 C402 1.394 . S
C400 H416 0.931 . S
C401 C400 1.391 . S
C401 C405 1.376 . S
C402 C400 1.394 . S
C402 C403 1.369 . S
C402 C406 1.531 . S
C403 C402 1.369 . S
C403 C404 1.410 . S
C403 C411 1.503 . S
C404 C403 1.410 . S
C404 C405 1.392 . S
C404 C407 1.511 . S
C405 C401 1.376 . S
C405 C404 1.392 . S
C405 H417 0.929 . S
C406 C402 1.531 . S
C406 H418 0.960 . S
C406 H419 0.962 . S
C406 H420 0.960 . S
C407 C404 1.511 . S
C407 H421 0.961 . S
C407 H422 0.961 . S
C407 H423 0.961 . S
C408 C409 1.370 . S
C408 C410 1.363 . S
C408 H424 0.931 . S
C409 C408 1.370 . S
C409 C413 1.408 . S
C410 C408 1.363 . S
C410 C411 1.370 . S
C410 C414 1.524 . S
C411 C403 1.503 . S
C411 C410 1.370 . S
C411 C412 1.403 . S
C412 C411 1.403 . S
C412 C413 1.404 . S
C412 C415 1.539 . S
C413 C409 1.408 . S
C413 C412 1.404 . S
C413 H425 0.930 . S
C414 C410 1.524 . S
C414 H426 0.956 . S
C414 H427 0.961 . S
C414 H428 0.961 . S
C415 C412 1.539 . S
C415 H429 0.958 . S
C415 H430 0.961 . S
C415 H431 0.960 . S
H416 C400 0.931 . S
H417 C405 0.929 . S
H418 C406 0.960 . S
H419 C406 0.962 . S
H420 C406 0.960 . S
H421 C407 0.961 . S
H422 C407 0.961 . S
H423 C407 0.961 . S
H424 C408 0.931 . S
H425 C413 0.930 . S
H426 C414 0.956 . S
H427 C414 0.961 . S
H428 C414 0.961 . S
H429 C415 0.958 . S
H430 C415 0.961 . S
H431 C415 0.960 . S
C432 C433 1.391 . S
C432 C434 1.394 . S
C432 H448 0.931 . S
C433 C432 1.391 . S
C433 C437 1.376 . S
C434 C432 1.394 . S
C434 C435 1.369 . S
C434 C438 1.531 . S
C435 C434 1.369 . S
C435 C436 1.410 . S
C435 C443 1.503 . S
C436 C435 1.410 . S
C436 C437 1.392 . S
C436 C439 1.511 . S
C437 C433 1.376 . S
C437 C436 1.392 . S
C437 H449 0.929 . S
C438 C434 1.531 . S
C438 H450 0.960 . S
C438 H451 0.962 . S
C438 H452 0.960 . S
C439 C436 1.511 . S
C439 H453 0.961 . S
C439 H454 0.961 . S
C439 H455 0.961 . S
C440 C441 1.370 . S
C440 C442 1.363 . S
C440 H456 0.931 . S
C441 C440 1.370 . S
C441 C445 1.408 . S
C442 C440 1.363 . S
C442 C443 1.370 . S
C442 C446 1.524 . S
C443 C435 1.503 . S
C443 C442 1.370 . S
C443 C444 1.403 . S
C444 C443 1.403 . S
C444 C445 1.404 . S
C444 C447 1.539 . S
C445 C441 1.408 . S
C445 C444 1.404 . S
C445 H457 0.930 . S
C446 C442 1.524 . S
C446 H458 0.956 . S
C446 H459 0.961 . S
C446 H460 0.961 . S
C447 C444 1.539 . S
C447 H461 0.958 . S
C447 H462 0.961 . S
C447 H463 0.960 . S
H448 C432 0.931 . S
H449 C437 0.929 . S
H450 C438 0.960 . S
H451 C438 0.962 . S
H452 C438 0.960 . S
H453 C439 0.961 . S
H454 C439 0.961 . S
H455 C439 0.961 . S
H456 C440 0.931 . S
H457 C445 0.930 . S
H458 C446 0.956 . S
H459 C446 0.961 . S
H460 C446 0.961 . S
H461 C447 0.958 . S
H462 C447 0.961 . S
H463 C447 0.960 . S
C464 C465 1.391 . S
C464 C466 1.394 . S
C464 H480 0.931 . S
C465 C464 1.391 . S
C465 C469 1.376 . S
C466 C464 1.394 . S
C466 C467 1.369 . S
C466 C470 1.531 . S
C467 C466 1.369 . S
C467 C468 1.410 . S
C467 C475 1.503 . S
C468 C467 1.410 . S
C468 C469 1.392 . S
C468 C471 1.511 . S
C469 C465 1.376 . S
C469 C468 1.392 . S
C469 H481 0.929 . S
C470 C466 1.531 . S
C470 H482 0.960 . S
C470 H483 0.962 . S
C470 H484 0.960 . S
C471 C468 1.511 . S
C471 H485 0.961 . S
C471 H486 0.961 . S
C471 H487 0.961 . S
C472 C473 1.370 . S
C472 C474 1.363 . S
C472 H488 0.931 . S
C473 C472 1.370 . S
C473 C477 1.408 . S
C474 C472 1.363 . S
C474 C475 1.370 . S
C474 C478 1.524 . S
C475 C467 1.503 . S
C475 C474 1.370 . S
C475 C476 1.403 . S
C476 C475 1.403 . S
C476 C477 1.404 . S
C476 C479 1.539 . S
C477 C473 1.408 . S
C477 C476 1.404 . S
C477 H489 0.930 . S
C478 C474 1.524 . S
C478 H490 0.956 . S
C478 H491 0.961 . S
C478 H492 0.961 . S
C479 C476 1.539 . S
C479 H493 0.958 . S
C479 H494 0.961 . S
C479 H495 0.960 . S
H480 C464 0.931 . S
H481 C469 0.929 . S
H482 C470 0.960 . S
H483 C470 0.962 . S
H484 C470 0.960 . S
H485 C471 0.961 . S
H486 C471 0.961 . S
H487 C471 0.961 . S
H488 C472 0.931 . S
H489 C477 0.930 . S
H490 C478 0.956 . S
H491 C478 0.961 . S
H492 C478 0.961 . S
H493 C479 0.958 . S
H494 C479 0.961 . S
H495 C479 0.960 . S
C496 C497 1.391 . S
C496 C498 1.394 . S
C496 H512 0.931 . S
C497 C496 1.391 . S
C497 C501 1.376 . S
C498 C496 1.394 . S
C498 C499 1.369 . S
C498 C502 1.531 . S
C499 C498 1.369 . S
C499 C500 1.410 . S
C499 C507 1.503 . S
C500 C499 1.410 . S
C500 C501 1.392 . S
C500 C503 1.511 . S
C501 C497 1.376 . S
C501 C500 1.392 . S
C501 H513 0.929 . S
C502 C498 1.531 . S
C502 H514 0.960 . S
C502 H515 0.962 . S
C502 H516 0.960 . S
C503 C500 1.511 . S
C503 H517 0.961 . S
C503 H518 0.961 . S
C503 H519 0.961 . S
C504 C505 1.370 . S
C504 C506 1.363 . S
C504 H520 0.931 . S
C505 C504 1.370 . S
C505 C509 1.408 . S
C506 C504 1.363 . S
C506 C507 1.370 . S
C506 C510 1.524 . S
C507 C499 1.503 . S
C507 C506 1.370 . S
C507 C508 1.403 . S
C508 C507 1.403 . S
C508 C509 1.404 . S
C508 C511 1.539 . S
C509 C505 1.408 . S
C509 C508 1.404 . S
C509 H521 0.930 . S
C510 C506 1.524 . S
C510 H522 0.956 . S
C510 H523 0.961 . S
C510 H524 0.961 . S
C511 C508 1.539 . S
C511 H525 0.958 . S
C511 H526 0.961 . S
C511 H527 0.960 . S
H512 C496 0.931 . S
H513 C501 0.929 . S
H514 C502 0.960 . S
H515 C502 0.962 . S
H516 C502 0.960 . S
H517 C503 0.961 . S
H518 C503 0.961 . S
H519 C503 0.961 . S
H520 C504 0.931 . S
H521 C509 0.930 . S
H522 C510 0.956 . S
H523 C510 0.961 . S
H524 C510 0.961 . S
H525 C511 0.958 . S
H526 C511 0.961 . S
H527 C511 0.960 . S
C528 C529 1.391 . S
C528 C530 1.394 . S
C528 H544 0.931 . S
C529 C528 1.391 . S
C529 C533 1.376 . S
C530 C528 1.394 . S
C530 C531 1.369 . S
C530 C534 1.531 . S
C531 C530 1.369 . S
C531 C532 1.410 . S
C531 C539 1.503 . S
C532 C531 1.410 . S
C532 C533 1.392 . S
C532 C535 1.511 . S
C533 C529 1.376 . S
C533 C532 1.392 . S
C533 H545 0.929 . S
C534 C530 1.531 . S
C534 H546 0.960 . S
C534 H547 0.962 . S
C534 H548 0.960 . S
C535 C532 1.511 . S
C535 H549 0.961 . S
C535 H550 0.961 . S
C535 H551 0.961 . S
C536 C537 1.370 . S
C536 C538 1.363 . S
C536 H552 0.931 . S
C537 C536 1.370 . S
C537 C541 1.408 . S
C538 C536 1.363 . S
C538 C539 1.370 . S
C538 C542 1.524 . S
C539 C531 1.503 . S
C539 C538 1.370 . S
C539 C540 1.403 . S
C540 C539 1.403 . S
C540 C541 1.404 . S
C540 C543 1.539 . S
C541 C537 1.408 . S
C541 C540 1.404 . S
C541 H553 0.930 . S
C542 C538 1.524 . S
C542 H554 0.956 . S
C542 H555 0.961 . S
C542 H556 0.961 . S
C543 C540 1.539 . S
C543 H557 0.958 . S
C543 H558 0.961 . S
C543 H559 0.960 . S
H544 C528 0.931 . S
H545 C533 0.929 . S
H546 C534 0.960 . S
H547 C534 0.962 . S
H548 C534 0.960 . S
H549 C535 0.961 . S
H550 C535 0.961 . S
H551 C535 0.961 . S
H552 C536 0.931 . S
H553 C541 0.930 . S
H554 C542 0.956 . S
H555 C542 0.961 . S
H556 C542 0.961 . S
H557 C543 0.958 . S
H558 C543 0.961 . S
H559 C543 0.960 . S
C560 C561 1.391 . S
C560 C562 1.394 . S
C560 H576 0.931 . S
C561 C560 1.391 . S
C561 C565 1.376 . S
C562 C560 1.394 . S
C562 C563 1.369 . S
C562 C566 1.531 . S
C563 C562 1.369 . S
C563 C564 1.410 . S
C563 C571 1.503 . S
C564 C563 1.410 . S
C564 C565 1.392 . S
C564 C567 1.511 . S
C565 C561 1.376 . S
C565 C564 1.392 . S
C565 H577 0.929 . S
C566 C562 1.531 . S
C566 H578 0.960 . S
C566 H579 0.962 . S
C566 H580 0.960 . S
C567 C564 1.511 . S
C567 H581 0.961 . S
C567 H582 0.961 . S
C567 H583 0.961 . S
C568 C569 1.370 . S
C568 C570 1.363 . S
C568 H584 0.931 . S
C569 C568 1.370 . S
C569 C573 1.408 . S
C570 C568 1.363 . S
C570 C571 1.370 . S
C570 C574 1.524 . S
C571 C563 1.503 . S
C571 C570 1.370 . S
C571 C572 1.403 . S
C572 C571 1.403 . S
C572 C573 1.404 . S
C572 C575 1.539 . S
C573 C569 1.408 . S
C573 C572 1.404 . S
C573 H585 0.930 . S
C574 C570 1.524 . S
C574 H586 0.956 . S
C574 H587 0.961 . S
C574 H588 0.961 . S
C575 C572 1.539 . S
C575 H589 0.958 . S
C575 H590 0.961 . S
C575 H591 0.960 . S
H576 C560 0.931 . S
H577 C565 0.929 . S
H578 C566 0.960 . S
H579 C566 0.962 . S
H580 C566 0.960 . S
H581 C567 0.961 . S
H582 C567 0.961 . S
H583 C567 0.961 . S
H584 C568 0.931 . S
H585 C573 0.930 . S
H586 C574 0.956 . S
H587 C574 0.961 . S
H588 C574 0.961 . S
H589 C575 0.958 . S
H590 C575 0.961 . S
H591 C575 0.960 . S
C592 C593 1.391 . S
C592 C594 1.394 . S
C592 H608 0.931 . S
C593 C592 1.391 . S
C593 C597 1.376 . S
C594 C592 1.394 . S
C594 C595 1.369 . S
C594 C598 1.531 . S
C595 C594 1.369 . S
C595 C596 1.410 . S
C595 C603 1.503 . S
C596 C595 1.410 . S
C596 C597 1.392 . S
C596 C599 1.511 . S
C597 C593 1.376 . S
C597 C596 1.392 . S
C597 H609 0.929 . S
C598 C594 1.531 . S
C598 H610 0.960 . S
C598 H611 0.962 . S
C598 H612 0.960 . S
C599 C596 1.511 . S
C599 H613 0.961 . S
C599 H614 0.961 . S
C599 H615 0.961 . S
C600 C601 1.370 . S
C600 C602 1.363 . S
C600 H616 0.931 . S
C601 C600 1.370 . S
C601 C605 1.408 . S
C602 C600 1.363 . S
C602 C603 1.370 . S
C602 C606 1.524 . S
C603 C595 1.503 . S
C603 C602 1.370 . S
C603 C604 1.403 . S
C604 C603 1.403 . S
C604 C605 1.404 . S
C604 C607 1.539 . S
C605 C601 1.408 . S
C605 C604 1.404 . S
C605 H617 0.930 . S
C606 C602 1.524 . S
C606 H618 0.956 . S
C606 H619 0.961 . S
C606 H620 0.961 . S
C607 C604 1.539 . S
C607 H621 0.958 . S
C607 H622 0.961 . S
C607 H623 0.960 . S
H608 C592 0.931 . S
H609 C597 0.929 . S
H610 C598 0.960 . S
H611 C598 0.962 . S
H612 C598 0.960 . S
H613 C599 0.961 . S
H614 C599 0.961 . S
H615 C599 0.961 . S
H616 C600 0.931 . S
H617 C605 0.930 . S
H618 C606 0.956 . S
H619 C606 0.961 . S
H620 C606 0.961 . S
H621 C607 0.958 . S
H622 C607 0.961 . S
H623 C607 0.960 . S
C113 C8 1.464 . S
C121 C50 1.451 . S
C145 C7 1.467 . S
C153 C21 1.461 . S
C177 C22 1.469 . S
C185 C36 1.449 . S
C209 C49 1.440 . S
C217 C35 1.467 . S
C241 C64 1.434 . S
C249 C106 1.462 . S
C273 C77 1.447 . S
C281 C63 1.462 . S
C305 C92 1.440 . S
C313 C78 1.459 . S
C337 C105 1.467 . S
C345 C91 1.461 . S
C369 C95 1.459 . S
C377 C13 1.355 . S
C401 C25 1.462 . S
C409 C111 1.341 . S
C433 C67 1.448 . S
C441 C41 1.373 . S
C465 C83 1.387 . S
C473 C53 1.454 . S
C497 C81 1.446 . S
C505 C55 1.361 . S
C529 C11 1.445 . S
C537 C97 1.363 . S
C561 C27 1.319 . S
C569 C109 1.457 . S
C593 C39 1.462 . S
C601 C69 1.344 . S
