# Generated by pormake.
# Topology vda, (6)-cn, num edge types: 1
# Building blocks:
#     Node 0, Type 0, BuildingBlock: VOLQOD_clean_sbu_1, # of connection points: 6
#     Node 1, Type 0, BuildingBlock: VOLQOD_clean_sbu_1, # of connection points: 6
#     Node 2, Type 0, BuildingBlock: VOLQOD_clean_sbu_1, # of connection points: 6
#     Node 3, Type 0, BuildingBlock: VOLQOD_clean_sbu_1, # of connection points: 6
#     Node 4, Type 0, BuildingBlock: VOLQOD_clean_sbu_1, # of connection points: 6
#     Node 5, Type 0, BuildingBlock: VOLQOD_clean_sbu_1, # of connection points: 6
#     Node 6, Type 0, BuildingBlock: VOLQOD_clean_sbu_1, # of connection points: 6
#     Node 7, Type 0, BuildingBlock: VOLQOD_clean_sbu_1, # of connection points: 6
#     Node 8, Type 0, BuildingBlock: VOLQOD_clean_sbu_1, # of connection points: 6
#     Node 9, Type 0, BuildingBlock: VOLQOD_clean_sbu_1, # of connection points: 6
#     Node 10, Type 0, BuildingBlock: VOLQOD_clean_sbu_1, # of connection points: 6
#     Node 11, Type 0, BuildingBlock: VOLQOD_clean_sbu_1, # of connection points: 6
#     Node 12, Type 0, BuildingBlock: VOLQOD_clean_sbu_1, # of connection points: 6
#     Node 13, Type 0, BuildingBlock: VOLQOD_clean_sbu_1, # of connection points: 6
#     Node 14, Type 0, BuildingBlock: VOLQOD_clean_sbu_1, # of connection points: 6
#     Node 15, Type 0, BuildingBlock: VOLQOD_clean_sbu_1, # of connection points: 6
#     Node 16, Type 0, BuildingBlock: VOLQOD_clean_sbu_1, # of connection points: 6
#     Node 17, Type 0, BuildingBlock: VOLQOD_clean_sbu_1, # of connection points: 6
#     Node 18, Type 0, BuildingBlock: VOLQOD_clean_sbu_1, # of connection points: 6
#     Node 19, Type 0, BuildingBlock: VOLQOD_clean_sbu_1, # of connection points: 6
#     Node 20, Type 0, BuildingBlock: VOLQOD_clean_sbu_1, # of connection points: 6
#     Node 21, Type 0, BuildingBlock: VOLQOD_clean_sbu_1, # of connection points: 6
#     Node 22, Type 0, BuildingBlock: VOLQOD_clean_sbu_1, # of connection points: 6
#     Node 23, Type 0, BuildingBlock: VOLQOD_clean_sbu_1, # of connection points: 6
#     Node 24, Type 0, BuildingBlock: VOLQOD_clean_sbu_1, # of connection points: 6
#     Node 25, Type 0, BuildingBlock: VOLQOD_clean_sbu_1, # of connection points: 6
#     Node 26, Type 0, BuildingBlock: VOLQOD_clean_sbu_1, # of connection points: 6
#     Node 27, Type 0, BuildingBlock: VOLQOD_clean_sbu_1, # of connection points: 6
#     Node 28, Type 0, BuildingBlock: VOLQOD_clean_sbu_1, # of connection points: 6
#     Node 29, Type 0, BuildingBlock: VOLQOD_clean_sbu_1, # of connection points: 6
#     Node 30, Type 0, BuildingBlock: VOLQOD_clean_sbu_1, # of connection points: 6
#     Node 31, Type 0, BuildingBlock: VOLQOD_clean_sbu_1, # of connection points: 6
#     Edge 32, Type (0, 0), BuildingBlock: KIFKEQ_clean_linker_1, # of connection points: 2
#     Edge 33, Type (0, 0), BuildingBlock: KIFKEQ_clean_linker_1, # of connection points: 2
#     Edge 34, Type (0, 0), BuildingBlock: KIFKEQ_clean_linker_1, # of connection points: 2
#     Edge 35, Type (0, 0), BuildingBlock: KIFKEQ_clean_linker_1, # of connection points: 2
#     Edge 36, Type (0, 0), BuildingBlock: KIFKEQ_clean_linker_1, # of connection points: 2
#     Edge 37, Type (0, 0), BuildingBlock: KIFKEQ_clean_linker_1, # of connection points: 2
#     Edge 38, Type (0, 0), BuildingBlock: KIFKEQ_clean_linker_1, # of connection points: 2
#     Edge 39, Type (0, 0), BuildingBlock: KIFKEQ_clean_linker_1, # of connection points: 2
#     Edge 40, Type (0, 0), BuildingBlock: KIFKEQ_clean_linker_1, # of connection points: 2
#     Edge 41, Type (0, 0), BuildingBlock: KIFKEQ_clean_linker_1, # of connection points: 2
#     Edge 42, Type (0, 0), BuildingBlock: KIFKEQ_clean_linker_1, # of connection points: 2
#     Edge 43, Type (0, 0), BuildingBlock: KIFKEQ_clean_linker_1, # of connection points: 2
#     Edge 44, Type (0, 0), BuildingBlock: KIFKEQ_clean_linker_1, # of connection points: 2
#     Edge 45, Type (0, 0), BuildingBlock: KIFKEQ_clean_linker_1, # of connection points: 2
#     Edge 46, Type (0, 0), BuildingBlock: KIFKEQ_clean_linker_1, # of connection points: 2
#     Edge 47, Type (0, 0), BuildingBlock: KIFKEQ_clean_linker_1, # of connection points: 2
#     Edge 48, Type (0, 0), BuildingBlock: KIFKEQ_clean_linker_1, # of connection points: 2
#     Edge 49, Type (0, 0), BuildingBlock: KIFKEQ_clean_linker_1, # of connection points: 2
#     Edge 50, Type (0, 0), BuildingBlock: KIFKEQ_clean_linker_1, # of connection points: 2
#     Edge 51, Type (0, 0), BuildingBlock: KIFKEQ_clean_linker_1, # of connection points: 2
#     Edge 52, Type (0, 0), BuildingBlock: KIFKEQ_clean_linker_1, # of connection points: 2
#     Edge 53, Type (0, 0), BuildingBlock: KIFKEQ_clean_linker_1, # of connection points: 2
#     Edge 54, Type (0, 0), BuildingBlock: KIFKEQ_clean_linker_1, # of connection points: 2
#     Edge 55, Type (0, 0), BuildingBlock: KIFKEQ_clean_linker_1, # of connection points: 2
#     Edge 56, Type (0, 0), BuildingBlock: KIFKEQ_clean_linker_1, # of connection points: 2
#     Edge 57, Type (0, 0), BuildingBlock: KIFKEQ_clean_linker_1, # of connection points: 2
#     Edge 58, Type (0, 0), BuildingBlock: KIFKEQ_clean_linker_1, # of connection points: 2
#     Edge 59, Type (0, 0), BuildingBlock: KIFKEQ_clean_linker_1, # of connection points: 2
#     Edge 60, Type (0, 0), BuildingBlock: KIFKEQ_clean_linker_1, # of connection points: 2
#     Edge 61, Type (0, 0), BuildingBlock: KIFKEQ_clean_linker_1, # of connection points: 2
#     Edge 62, Type (0, 0), BuildingBlock: KIFKEQ_clean_linker_1, # of connection points: 2
#     Edge 63, Type (0, 0), BuildingBlock: KIFKEQ_clean_linker_1, # of connection points: 2
#     Edge 64, Type (0, 0), BuildingBlock: KIFKEQ_clean_linker_1, # of connection points: 2
#     Edge 65, Type (0, 0), BuildingBlock: KIFKEQ_clean_linker_1, # of connection points: 2
#     Edge 66, Type (0, 0), BuildingBlock: KIFKEQ_clean_linker_1, # of connection points: 2
#     Edge 67, Type (0, 0), BuildingBlock: KIFKEQ_clean_linker_1, # of connection points: 2
#     Edge 68, Type (0, 0), BuildingBlock: KIFKEQ_clean_linker_1, # of connection points: 2
#     Edge 69, Type (0, 0), BuildingBlock: KIFKEQ_clean_linker_1, # of connection points: 2
#     Edge 70, Type (0, 0), BuildingBlock: KIFKEQ_clean_linker_1, # of connection points: 2
#     Edge 71, Type (0, 0), BuildingBlock: KIFKEQ_clean_linker_1, # of connection points: 2
#     Edge 72, Type (0, 0), BuildingBlock: KIFKEQ_clean_linker_1, # of connection points: 2
#     Edge 73, Type (0, 0), BuildingBlock: KIFKEQ_clean_linker_1, # of connection points: 2
#     Edge 74, Type (0, 0), BuildingBlock: KIFKEQ_clean_linker_1, # of connection points: 2
#     Edge 75, Type (0, 0), BuildingBlock: KIFKEQ_clean_linker_1, # of connection points: 2
#     Edge 76, Type (0, 0), BuildingBlock: KIFKEQ_clean_linker_1, # of connection points: 2
#     Edge 77, Type (0, 0), BuildingBlock: KIFKEQ_clean_linker_1, # of connection points: 2
#     Edge 78, Type (0, 0), BuildingBlock: KIFKEQ_clean_linker_1, # of connection points: 2
#     Edge 79, Type (0, 0), BuildingBlock: KIFKEQ_clean_linker_1, # of connection points: 2
#     Edge 80, Type (0, 0), BuildingBlock: KIFKEQ_clean_linker_1, # of connection points: 2
#     Edge 81, Type (0, 0), BuildingBlock: KIFKEQ_clean_linker_1, # of connection points: 2
#     Edge 82, Type (0, 0), BuildingBlock: KIFKEQ_clean_linker_1, # of connection points: 2
#     Edge 83, Type (0, 0), BuildingBlock: KIFKEQ_clean_linker_1, # of connection points: 2
#     Edge 84, Type (0, 0), BuildingBlock: KIFKEQ_clean_linker_1, # of connection points: 2
#     Edge 85, Type (0, 0), BuildingBlock: KIFKEQ_clean_linker_1, # of connection points: 2
#     Edge 86, Type (0, 0), BuildingBlock: KIFKEQ_clean_linker_1, # of connection points: 2
#     Edge 87, Type (0, 0), BuildingBlock: KIFKEQ_clean_linker_1, # of connection points: 2
#     Edge 88, Type (0, 0), BuildingBlock: KIFKEQ_clean_linker_1, # of connection points: 2
#     Edge 89, Type (0, 0), BuildingBlock: KIFKEQ_clean_linker_1, # of connection points: 2
#     Edge 90, Type (0, 0), BuildingBlock: KIFKEQ_clean_linker_1, # of connection points: 2
#     Edge 91, Type (0, 0), BuildingBlock: KIFKEQ_clean_linker_1, # of connection points: 2
#     Edge 92, Type (0, 0), BuildingBlock: KIFKEQ_clean_linker_1, # of connection points: 2
#     Edge 93, Type (0, 0), BuildingBlock: KIFKEQ_clean_linker_1, # of connection points: 2
#     Edge 94, Type (0, 0), BuildingBlock: KIFKEQ_clean_linker_1, # of connection points: 2
#     Edge 95, Type (0, 0), BuildingBlock: KIFKEQ_clean_linker_1, # of connection points: 2
#     Edge 96, Type (0, 0), BuildingBlock: KIFKEQ_clean_linker_1, # of connection points: 2
#     Edge 97, Type (0, 0), BuildingBlock: KIFKEQ_clean_linker_1, # of connection points: 2
#     Edge 98, Type (0, 0), BuildingBlock: KIFKEQ_clean_linker_1, # of connection points: 2
#     Edge 99, Type (0, 0), BuildingBlock: KIFKEQ_clean_linker_1, # of connection points: 2
#     Edge 100, Type (0, 0), BuildingBlock: KIFKEQ_clean_linker_1, # of connection points: 2
#     Edge 101, Type (0, 0), BuildingBlock: KIFKEQ_clean_linker_1, # of connection points: 2
#     Edge 102, Type (0, 0), BuildingBlock: KIFKEQ_clean_linker_1, # of connection points: 2
#     Edge 103, Type (0, 0), BuildingBlock: KIFKEQ_clean_linker_1, # of connection points: 2
#     Edge 104, Type (0, 0), BuildingBlock: KIFKEQ_clean_linker_1, # of connection points: 2
#     Edge 105, Type (0, 0), BuildingBlock: KIFKEQ_clean_linker_1, # of connection points: 2
#     Edge 106, Type (0, 0), BuildingBlock: KIFKEQ_clean_linker_1, # of connection points: 2
#     Edge 107, Type (0, 0), BuildingBlock: KIFKEQ_clean_linker_1, # of connection points: 2
#     Edge 108, Type (0, 0), BuildingBlock: KIFKEQ_clean_linker_1, # of connection points: 2
#     Edge 109, Type (0, 0), BuildingBlock: KIFKEQ_clean_linker_1, # of connection points: 2
#     Edge 110, Type (0, 0), BuildingBlock: KIFKEQ_clean_linker_1, # of connection points: 2
#     Edge 111, Type (0, 0), BuildingBlock: KIFKEQ_clean_linker_1, # of connection points: 2
#     Edge 112, Type (0, 0), BuildingBlock: KIFKEQ_clean_linker_1, # of connection points: 2
#     Edge 113, Type (0, 0), BuildingBlock: KIFKEQ_clean_linker_1, # of connection points: 2
#     Edge 114, Type (0, 0), BuildingBlock: KIFKEQ_clean_linker_1, # of connection points: 2
#     Edge 115, Type (0, 0), BuildingBlock: KIFKEQ_clean_linker_1, # of connection points: 2
#     Edge 116, Type (0, 0), BuildingBlock: KIFKEQ_clean_linker_1, # of connection points: 2
#     Edge 117, Type (0, 0), BuildingBlock: KIFKEQ_clean_linker_1, # of connection points: 2
#     Edge 118, Type (0, 0), BuildingBlock: KIFKEQ_clean_linker_1, # of connection points: 2
#     Edge 119, Type (0, 0), BuildingBlock: KIFKEQ_clean_linker_1, # of connection points: 2
#     Edge 120, Type (0, 0), BuildingBlock: KIFKEQ_clean_linker_1, # of connection points: 2
#     Edge 121, Type (0, 0), BuildingBlock: KIFKEQ_clean_linker_1, # of connection points: 2
#     Edge 122, Type (0, 0), BuildingBlock: KIFKEQ_clean_linker_1, # of connection points: 2
#     Edge 123, Type (0, 0), BuildingBlock: KIFKEQ_clean_linker_1, # of connection points: 2
#     Edge 124, Type (0, 0), BuildingBlock: KIFKEQ_clean_linker_1, # of connection points: 2
#     Edge 125, Type (0, 0), BuildingBlock: KIFKEQ_clean_linker_1, # of connection points: 2
#     Edge 126, Type (0, 0), BuildingBlock: KIFKEQ_clean_linker_1, # of connection points: 2
#     Edge 127, Type (0, 0), BuildingBlock: KIFKEQ_clean_linker_1, # of connection points: 2
# Relax obj value: 0.526
# Max RMSD: 0.261
# Mean RMSD: 0.261
data_MOF--net-vda--node1-VOLQOD_clean_sbu_1--edge1-KIFKEQ_clean_linker_1
_symmetry_space_group_name_H-M    P1
_symmetry_Int_Tables_number       1
_symmetry_cell_setting            triclinic
loop_
_symmetry_equiv_pos_as_xyz
'x, y, z'
_cell_length_a     48.452276
_cell_length_b     37.917043
_cell_length_c     68.625733
_cell_angle_alpha  89.932331
_cell_angle_beta   90.043724
_cell_angle_gamma 89.961732
loop_
_atom_site_label
_atom_site_type_symbol
_atom_site_fract_x
_atom_site_fract_y
_atom_site_fract_z
_atom_type_partial_charge
O0 O 0.35732 0.01929 0.97707 0.0
Zn1 Zn 0.37388 0.06718 0.97455 0.0
O2 O 0.3571 0.10215 -0.00899 0.0
Zn3 Zn 0.33854 0.13724 0.97412 0.0
Zn4 Zn 0.33247 0.07612 0.00816 0.0
Zn5 Zn 0.38518 0.12359 0.00724 0.0
O6 O 0.35363 0.18749 0.9807 0.0
O7 O 0.38987 0.17379 -0.00058 0.0
O8 O 0.37479 0.08183 0.94716 0.0
O9 O 0.35042 0.13113 0.94549 0.0
O10 O 0.29599 0.12784 0.97614 0.0
O11 O 0.294 0.08543 -0.00114 0.0
O12 O 0.33589 0.09159 0.03636 0.0
O13 O 0.41295 0.06037 0.98172 0.0
O14 O 0.37402 0.12376 0.0352 0.0
O15 O 0.42163 0.09787 0.00578 0.0
C16 C 0.34792 1.00462 -0.00766 0.0
C17 C 0.37569 0.19622 0.98989 0.0
C18 C 0.28228 0.10575 0.98657 0.0
C19 C 0.36547 0.10768 0.93744 0.0
C20 C 0.35417 0.11035 0.04476 0.0
C21 C 0.42917 0.07349 -0.00575 0.0
O22 O 0.33995 0.02299 0.00685 0.0
O23 O 0.91891 0.23427 0.9774 0.0
Zn24 Zn 0.90373 0.18542 0.9753 0.0
O25 O 0.92187 0.15168 -0.00814 0.0
Zn26 Zn 0.93856 0.115 0.97508 0.0
Zn27 Zn 0.94764 0.17886 0.00736 0.0
Zn28 Zn 0.89577 0.13259 0.0103 0.0
O29 O 0.92219 0.06571 0.98301 0.0
O30 O 0.88847 0.08304 0.003 0.0
O31 O 0.90294 0.17093 0.94784 0.0
O32 O 0.92608 0.1207 0.94636 0.0
O33 O 0.98141 0.12347 0.97607 0.0
O34 O 0.98477 0.17072 -0.00439 0.0
O35 O 0.94916 0.16271 0.03557 0.0
O36 O 0.86472 0.19051 0.98312 0.0
O37 O 0.91126 0.13029 0.03739 0.0
O38 O 0.85998 0.16024 0.01067 0.0
C39 C 0.92824 0.24928 -0.00742 0.0
C40 C 0.90063 0.05904 -0.00671 0.0
C41 C 0.99563 0.14803 0.98425 0.0
C42 C 0.91178 0.14481 0.93815 0.0
C43 C 0.93277 0.14317 0.04527 0.0
C44 C 0.85046 0.18092 -0.00233 0.0
O45 O 0.93762 0.2313 0.00684 0.0
O46 O 0.3402 0.24821 0.25598 0.0
Zn47 Zn 0.36222 0.20401 0.25988 0.0
O48 O 0.35271 0.1659 0.24287 0.0
Zn49 Zn 0.33489 0.12934 0.25856 0.0
Zn50 Zn 0.3292 0.18923 0.22452 0.0
Zn51 Zn 0.38429 0.14918 0.22843 0.0
O52 O 0.35262 0.0809 0.25105 0.0
O53 O 0.39153 0.09937 0.23663 0.0
O54 O 0.3631 0.18918 0.28735 0.0
O55 O 0.34592 0.13507 0.28744 0.0
O56 O 0.29205 0.13741 0.25556 0.0
O57 O 0.2907 0.18048 0.23319 0.0
O58 O 0.33397 0.1702 0.19751 0.0
O59 O 0.40027 0.21836 0.25417 0.0
O60 O 0.37573 0.14659 0.19963 0.0
O61 O 0.41773 0.18089 0.23263 0.0
C62 C 0.33921 0.2617 0.23903 0.0
C63 C 0.37677 0.07493 0.244 0.0
C64 C 0.27856 0.1597 0.24503 0.0
C65 C 0.35725 0.16087 0.29631 0.0
C66 C 0.35445 0.15472 0.18968 0.0
C67 C 0.42008 0.20789 0.24359 0.0
O68 O 0.33806 0.24181 0.2241 0.0
O69 O 0.88186 0.03783 0.25231 0.0
Zn70 Zn 0.8842 0.09003 0.25676 0.0
O71 O 0.91391 0.10956 0.24172 0.0
Zn72 Zn 0.93478 0.14205 0.25808 0.0
Zn73 Zn 0.93539 0.07323 0.229 0.0
Zn74 Zn 0.89413 0.13277 0.22125 0.0
O75 O 0.92138 0.19319 0.25138 0.0
O76 O 0.88901 0.18288 0.2288 0.0
O77 O 0.88755 0.10062 0.28486 0.0
O78 O 0.92396 0.13591 0.28695 0.0
O79 O 0.97652 0.12816 0.25534 0.0
O80 O 0.97337 0.07512 0.24096 0.0
O81 O 0.94018 0.0834 0.19976 0.0
O82 O 0.84801 0.11004 0.2485 0.0
O83 O 0.9147 0.1316 0.1963 0.0
O84 O 0.85761 0.10768 0.2173 0.0
C85 C 0.89549 0.01567 0.24221 0.0
C86 C 0.9017 0.20379 0.24023 0.0
C87 C 0.9874 0.09897 0.2496 0.0
C88 C 0.90395 0.11934 0.2949 0.0
C89 C 0.9315 0.10913 0.18941 0.0
C90 C 0.84034 0.10456 0.23113 0.0
O91 O 0.91679 0.02508 0.23252 0.0
O92 O 0.65477 0.97909 0.978 0.0
Zn93 Zn 0.65019 0.92794 0.97215 0.0
O94 O 0.66901 0.89962 -0.00824 0.0
Zn95 Zn 0.69205 0.86394 0.9791 0.0
Zn96 Zn 0.68966 0.92992 0.00956 0.0
Zn97 Zn 0.64051 0.87703 0.00652 0.0
O98 O 0.67507 0.81368 0.9827 0.0
O99 O 0.63595 0.82723 -0.00188 0.0
O100 O 0.6635 0.91754 0.94516 0.0
O101 O 0.69101 0.87156 0.95009 0.0
O102 O 0.73302 0.87327 0.98615 0.0
O103 O 0.73007 0.92204 0.00439 0.0
O104 O 0.68104 0.91832 0.038 0.0
O105 O 0.60901 0.92279 0.97309 0.0
O106 O 0.64798 0.8783 0.03485 0.0
O107 O 0.60508 0.90296 0.0033 0.0
C108 C 0.66581 0.99683 -0.00836 0.0
C109 C 0.65137 0.80501 0.98954 0.0
C110 C 0.74431 0.89881 -0.00454 0.0
C111 C 0.67949 0.89363 0.9387 0.0
C112 C 0.66377 0.89682 0.04549 0.0
C113 C 0.59476 0.91788 0.98841 0.0
O114 O 0.67993 0.98191 0.00503 0.0
O115 O 0.12082 0.77085 0.97479 0.0
Zn116 Zn 0.12715 0.82215 0.96984 0.0
O117 O 0.10971 0.85061 0.99005 0.0
Zn118 Zn 0.08699 0.88782 0.9782 0.0
Zn119 Zn 0.08882 0.82014 0.00777 0.0
Zn120 Zn 0.13889 0.87177 0.00479 0.0
O121 O 0.10422 0.93789 0.98298 0.0
O122 O 0.14276 0.92244 -0.00149 0.0
O123 O 0.11399 0.83527 0.94311 0.0
O124 O 0.08786 0.88215 0.94907 0.0
O125 O 0.04591 0.87837 0.98507 0.0
O126 O 0.04846 0.82868 0.00263 0.0
O127 O 0.09778 0.8303 0.03637 0.0
O128 O 0.16854 0.82432 0.97076 0.0
O129 O 0.13269 0.86754 0.03305 0.0
O130 O 0.17439 0.84706 0.00014 0.0
C131 C 0.11052 0.75308 0.98873 0.0
C132 C 0.12768 0.94578 0.99051 0.0
C133 C 0.03441 0.8525 -0.00602 0.0
C134 C 0.09866 0.86038 0.9372 0.0
C135 C 0.11642 0.84993 0.04377 0.0
C136 C 0.18377 0.83074 0.98543 0.0
O137 O 0.09789 0.76816 0.00276 0.0
O138 O 0.65906 0.77161 0.75654 0.0
Zn139 Zn 0.6534 0.82288 0.76114 0.0
O140 O 0.6703 0.85127 0.74086 0.0
Zn141 Zn 0.69371 0.88787 0.75272 0.0
Zn142 Zn 0.69025 0.82005 0.72314 0.0
Zn143 Zn 0.64106 0.87298 0.7262 0.0
O144 O 0.67742 0.93842 0.74746 0.0
O145 O 0.63835 0.92355 0.73245 0.0
O146 O 0.66648 0.83602 0.78772 0.0
O147 O 0.69236 0.8832 0.78202 0.0
O148 O 0.73463 0.87652 0.74591 0.0
O149 O 0.73068 0.82754 0.72792 0.0
O150 O 0.6813 0.83051 0.69474 0.0
O151 O 0.61237 0.8255 0.76038 0.0
O152 O 0.64756 0.86969 0.69778 0.0
O153 O 0.6047 0.8501 0.73158 0.0
C154 C 0.66826 0.75365 0.74233 0.0
C155 C 0.65391 0.94667 0.74008 0.0
C156 C 0.7454 0.85047 0.73668 0.0
C157 C 0.68143 0.86129 0.79378 0.0
C158 C 0.66369 0.85151 0.68723 0.0
C159 C 0.59615 0.83351 0.7465 0.0
O160 O 0.68042 0.7684 0.72801 0.0
O161 O 0.09151 0.99221 0.75438 0.0
Zn162 Zn 0.10783 0.94456 0.75969 0.0
O163 O 0.09833 0.90987 0.73996 0.0
Zn164 Zn 0.0766 0.87208 0.75181 0.0
Zn165 Zn 0.07842 0.93537 0.71998 0.0
Zn166 Zn 0.13122 0.8916 0.72804 0.0
O167 O 0.09499 0.82303 0.74651 0.0
O168 O 0.13553 0.84094 0.73465 0.0
O169 O 0.09799 0.92842 0.78649 0.0
O170 O 0.07823 0.87656 0.78107 0.0
O171 O 0.03543 0.88118 0.74492 0.0
O172 O 0.03795 0.92722 0.72454 0.0
O173 O 0.08963 0.92096 0.69269 0.0
O174 O 0.14832 0.95439 0.75901 0.0
O175 O 0.12943 0.89456 0.69907 0.0
O176 O 0.16458 0.9192 0.73593 0.0
C177 C 0.09008 0.00637 0.73759 0.0
C178 C 0.11975 0.81657 0.74086 0.0
C179 C 0.02389 0.90519 0.73451 0.0
C180 C 0.08675 0.90029 0.79273 0.0
C181 C 0.11176 0.90607 0.68694 0.0
C182 C 0.16812 0.94343 0.74848 0.0
O183 O 0.08752 0.9875 0.72234 0.0
O184 O 0.33799 0.51958 0.47745 0.0
Zn185 Zn 0.36062 0.56344 0.47482 0.0
O186 O 0.34982 0.60125 0.49178 0.0
Zn187 Zn 0.33342 0.63894 0.47598 0.0
Zn188 Zn 0.32484 0.57784 0.5092 0.0
Zn189 Zn 0.38056 0.61694 0.50724 0.0
O190 O 0.35077 0.68729 0.48443 0.0
O191 O 0.38713 0.66739 0.50121 0.0
O192 O 0.36317 0.57941 0.44752 0.0
O193 O 0.34586 0.63354 0.44744 0.0
O194 O 0.29051 0.63152 0.47758 0.0
O195 O 0.28682 0.58761 0.49938 0.0
O196 O 0.32885 0.59483 0.5368 0.0
O197 O 0.39834 0.54816 0.48163 0.0
O198 O 0.37162 0.6155 0.53588 0.0
O199 O 0.41485 0.58777 0.50236 0.0
C200 C 0.33597 0.50569 0.49425 0.0
C201 C 0.37373 0.69261 0.49337 0.0
C202 C 0.276 0.60919 0.48732 0.0
C203 C 0.35767 0.60798 0.43866 0.0
C204 C 0.34987 0.60772 0.54536 0.0
C205 C 0.4178 0.56004 0.4921 0.0
O206 O 0.33348 0.52525 0.50923 0.0
O207 O 0.92396 0.74428 0.47843 0.0
Zn208 Zn 0.90952 0.69553 0.47428 0.0
O209 O 0.92374 0.66068 0.49205 0.0
Zn210 Zn 0.9436 0.62518 0.47651 0.0
Zn211 Zn 0.9463 0.68754 0.51001 0.0
Zn212 Zn 0.8943 0.64004 0.50737 0.0
O213 O 0.9286 0.57505 0.48359 0.0
O214 O 0.89011 0.58985 0.49958 0.0
O215 O 0.91331 0.68202 0.4467 0.0
O216 O 0.93382 0.62986 0.44732 0.0
O217 O 0.98573 0.63638 0.47989 0.0
O218 O 0.98558 0.68108 0.50131 0.0
O219 O 0.94243 0.67014 0.53778 0.0
O220 O 0.8695 0.70028 0.47844 0.0
O221 O 0.90401 0.63851 0.53592 0.0
O222 O 0.85799 0.66584 0.50332 0.0
C223 C 0.92862 0.75847 0.49487 0.0
C224 C 0.90543 0.56689 0.49149 0.0
C225 C 0.99836 0.66018 0.48985 0.0
C226 C 0.92204 0.65477 0.43795 0.0
C227 C 0.924 0.65104 0.54577 0.0
C228 C 0.85168 0.68848 0.49031 0.0
O229 O 0.93498 0.73964 0.50962 0.0
O230 O 0.33973 0.74466 0.75661 0.0
Zn231 Zn 0.36197 0.70053 0.75968 0.0
O232 O 0.34992 0.66211 0.74364 0.0
Zn233 Zn 0.33171 0.62739 0.76022 0.0
Zn234 Zn 0.32633 0.68616 0.72548 0.0
Zn235 Zn 0.38026 0.64234 0.72913 0.0
O236 O 0.34763 0.57753 0.75369 0.0
O237 O 0.38646 0.59284 0.73816 0.0
O238 O 0.36519 0.68632 0.78734 0.0
O239 O 0.34371 0.63476 0.78867 0.0
O240 O 0.28917 0.63675 0.75762 0.0
O241 O 0.28764 0.67896 0.7347 0.0
O242 O 0.33045 0.66691 0.69837 0.0
O243 O 0.3991 0.71481 0.75115 0.0
O244 O 0.37064 0.63916 0.70061 0.0
O245 O 0.41469 0.67239 0.73172 0.0
C246 C 0.3391 0.75822 0.73967 0.0
C247 C 0.37128 0.56976 0.74637 0.0
C248 C 0.2757 0.6589 0.74703 0.0
C249 C 0.35744 0.65936 0.79688 0.0
C250 C 0.34996 0.64936 0.6906 0.0
C251 C 0.41789 0.7017 0.74053 0.0
O252 O 0.33679 0.73833 0.72481 0.0
O253 O 0.92849 0.50914 0.75959 0.0
Zn254 Zn 0.90827 0.55527 0.76149 0.0
O255 O 0.92071 0.59027 0.74317 0.0
Zn256 Zn 0.93832 0.62847 0.75767 0.0
Zn257 Zn 0.94476 0.56401 0.72623 0.0
Zn258 Zn 0.89062 0.60621 0.72704 0.0
O259 O 0.92014 0.67636 0.749 0.0
O260 O 0.88232 0.65578 0.73415 0.0
O261 O 0.9063 0.57364 0.78859 0.0
O262 O 0.92828 0.62487 0.78675 0.0
O263 O 0.98102 0.62045 0.75491 0.0
O264 O 0.98324 0.57251 0.73579 0.0
O265 O 0.94172 0.57982 0.69806 0.0
O266 O 0.8707 0.54122 0.7544 0.0
O267 O 0.90197 0.60878 0.69889 0.0
O268 O 0.85703 0.5742 0.72951 0.0
C269 C 0.92958 0.49406 0.74304 0.0
C270 C 0.89626 0.68126 0.7412 0.0
C271 C 0.99481 0.59587 0.74639 0.0
C272 C 0.91489 0.60186 0.79652 0.0
C273 C 0.92289 0.59756 0.68956 0.0
C274 C 0.85289 0.54918 0.74159 0.0
O275 O 0.93365 0.51233 0.7277 0.0
O276 O 0.67236 0.49427 0.47714 0.0
Zn277 Zn 0.66021 0.44474 0.47159 0.0
O278 O 0.67175 0.41114 0.49147 0.0
Zn279 Zn 0.69661 0.37574 0.48025 0.0
Zn280 Zn 0.68876 0.4388 0.51184 0.0
Zn281 Zn 0.64002 0.38839 0.50264 0.0
O282 O 0.68041 0.32475 0.48398 0.0
O283 O 0.63797 0.33873 0.49398 0.0
O284 O 0.67294 0.43043 0.44511 0.0
O285 O 0.69731 0.38193 0.45096 0.0
O286 O 0.73664 0.38762 0.48915 0.0
O287 O 0.7298 0.43383 0.50878 0.0
O288 O 0.67637 0.42386 0.53872 0.0
O289 O 0.61908 0.44964 0.47161 0.0
O290 O 0.64114 0.38874 0.53177 0.0
O291 O 0.60539 0.41306 0.49492 0.0
C292 C 0.67375 0.50867 0.49383 0.0
C293 C 0.65538 0.31618 0.48796 0.0
C294 C 0.74599 0.4129 0.49972 0.0
C295 C 0.68743 0.40462 0.43915 0.0
C296 C 0.65649 0.40417 0.54413 0.0
C297 C 0.60016 0.43656 0.48222 0.0
O298 O 0.67761 0.49019 0.50911 0.0
O299 O 0.12262 0.2815 0.47523 0.0
Zn300 Zn 0.12549 0.33348 0.47138 0.0
O301 O 0.1048 0.35808 0.49139 0.0
Zn302 Zn 0.08114 0.39396 0.4795 0.0
Zn303 Zn 0.08527 0.3244 0.5078 0.0
Zn304 Zn 0.13175 0.37998 0.50761 0.0
O305 O 0.09745 0.44442 0.48453 0.0
O306 O 0.13607 0.43017 0.5004 0.0
O307 O 0.11271 0.34613 0.44453 0.0
O308 O 0.08262 0.38907 0.45025 0.0
O309 O 0.04036 0.38195 0.48639 0.0
O310 O 0.04476 0.33036 0.50211 0.0
O311 O 0.09202 0.33354 0.53667 0.0
O312 O 0.16641 0.34106 0.47377 0.0
O313 O 0.1217 0.37795 0.5355 0.0
O314 O 0.16752 0.35422 0.50517 0.0
C315 C 0.11279 0.26154 0.48842 0.0
C316 C 0.12079 0.45294 0.49207 0.0
C317 C 0.02985 0.35432 0.49432 0.0
C318 C 0.09562 0.36917 0.43847 0.0
C319 C 0.10665 0.35687 0.54516 0.0
C320 C 0.17924 0.34253 0.48993 0.0
O321 O 0.09815 0.27405 0.50224 0.0
O322 O 0.65704 0.28541 0.2577 0.0
Zn323 Zn 0.65207 0.33686 0.26224 0.0
O324 O 0.66917 0.36443 0.24169 0.0
Zn325 Zn 0.69457 0.39909 0.25319 0.0
Zn326 Zn 0.68692 0.33261 0.22336 0.0
Zn327 Zn 0.64013 0.38799 0.22767 0.0
O328 O 0.67867 0.45014 0.24971 0.0
O329 O 0.63806 0.43801 0.23588 0.0
O330 O 0.66649 0.34899 0.28862 0.0
O331 O 0.69555 0.39278 0.28246 0.0
O332 O 0.73466 0.38695 0.24447 0.0
O333 O 0.72771 0.33841 0.22667 0.0
O334 O 0.6763 0.34336 0.19539 0.0
O335 O 0.61098 0.34126 0.26203 0.0
O336 O 0.64537 0.38599 0.19889 0.0
O337 O 0.60385 0.36479 0.2329 0.0
C338 C 0.66508 0.26705 0.24329 0.0
C339 C 0.65469 0.4597 0.2437 0.0
C340 C 0.74392 0.36046 0.23481 0.0
C341 C 0.68368 0.37204 0.29441 0.0
C342 C 0.65964 0.36581 0.18809 0.0
C343 C 0.59497 0.34889 0.24795 0.0
O344 O 0.67632 0.28148 0.22851 0.0
O345 O 0.12381 0.48696 0.25488 0.0
Zn346 Zn 0.12643 0.4357 0.26098 0.0
O347 O 0.10778 0.40831 0.24099 0.0
Zn348 Zn 0.08232 0.37455 0.25283 0.0
Zn349 Zn 0.0904 0.43911 0.22197 0.0
Zn350 Zn 0.13651 0.38384 0.22771 0.0
O351 O 0.09767 0.32316 0.24964 0.0
O352 O 0.13984 0.33534 0.23832 0.0
O353 O 0.1115 0.42577 0.28758 0.0
O354 O 0.08245 0.38164 0.282 0.0
O355 O 0.04216 0.38766 0.24448 0.0
O356 O 0.04941 0.43476 0.22555 0.0
O357 O 0.10144 0.42622 0.19417 0.0
O358 O 0.1675 0.42865 0.2611 0.0
O359 O 0.13028 0.38167 0.19917 0.0
O360 O 0.17173 0.4105 0.23067 0.0
C361 C 0.11492 0.50467 0.24043 0.0
C362 C 0.12246 0.31377 0.24545 0.0
C363 C 0.03304 0.41381 0.23441 0.0
C364 C 0.09443 0.40279 0.29367 0.0
C365 C 0.11717 0.40192 0.18766 0.0
C366 C 0.18183 0.42508 0.24572 0.0
O367 O 0.10186 0.49006 0.22647 0.0
O368 O 0.85214 0.01689 0.47661 0.0
Zn369 Zn 0.86723 0.06559 0.47278 0.0
O370 O 0.85365 0.09997 0.4911 0.0
Zn371 Zn 0.83464 0.13735 0.47633 0.0
Zn372 Zn 0.8302 0.07347 0.50847 0.0
Zn373 Zn 0.88341 0.11759 0.50716 0.0
O374 O 0.85139 0.18643 0.48426 0.0
O375 O 0.88816 0.1683 0.50117 0.0
O376 O 0.8645 0.08132 0.44536 0.0
O377 O 0.84406 0.13353 0.44717 0.0
O378 O 0.7922 0.12783 0.47941 0.0
O379 O 0.79144 0.08081 0.49929 0.0
O380 O 0.83313 0.09023 0.53638 0.0
O381 O 0.90709 0.05946 0.47678 0.0
O382 O 0.87416 0.11589 0.53572 0.0
O383 O 0.91937 0.09193 0.50221 0.0
C384 C 0.84762 1.00265 0.4931 0.0
C385 C 0.87422 0.19281 0.49315 0.0
C386 C 0.77913 0.10323 0.48845 0.0
C387 C 0.85605 0.10947 0.4373 0.0
C388 C 0.85291 0.10578 0.54507 0.0
C389 C 0.92522 0.07013 0.48873 0.0
O390 O 0.84125 0.02144 0.50783 0.0
O391 O 0.4109 0.24657 0.47743 0.0
Zn392 Zn 0.40006 0.19625 0.47362 0.0
O393 O 0.41842 0.16407 0.49104 0.0
Zn394 Zn 0.44033 0.13045 0.47543 0.0
Zn395 Zn 0.4397 0.19319 0.5087 0.0
Zn396 Zn 0.39114 0.14054 0.50692 0.0
O397 O 0.42653 0.07926 0.48159 0.0
O398 O 0.38765 0.09096 0.49794 0.0
O399 O 0.40481 0.18341 0.44614 0.0
O400 O 0.43164 0.13606 0.4461 0.0
O401 O 0.48219 0.14322 0.47983 0.0
O402 O 0.47917 0.1885 0.50065 0.0
O403 O 0.43684 0.17669 0.53664 0.0
O404 O 0.35981 0.19669 0.47859 0.0
O405 O 0.40287 0.13772 0.53488 0.0
O406 O 0.35422 0.16552 0.50572 0.0
C407 C 0.41771 0.26199 0.49315 0.0
C408 C 0.40362 0.0694 0.48929 0.0
C409 C 0.49346 0.16802 0.48988 0.0
C410 C 0.41709 0.15891 0.43705 0.0
C411 C 0.4212 0.15394 0.54464 0.0
C412 C 0.34476 0.18563 0.49243 0.0
O413 O 0.42701 0.24456 0.50763 0.0
O414 O 0.83678 0.24257 0.75843 0.0
Zn415 Zn 0.85696 0.19687 0.76176 0.0
O416 O 0.84618 0.16057 0.74373 0.0
Zn417 Zn 0.82901 0.12222 0.75861 0.0
Zn418 Zn 0.82219 0.1853 0.72599 0.0
Zn419 Zn 0.8771 0.14522 0.72842 0.0
O420 O 0.84665 0.0742 0.74977 0.0
O421 O 0.88395 0.09484 0.73439 0.0
O422 O 0.85613 0.18048 0.78901 0.0
O423 O 0.83979 0.12599 0.78769 0.0
O424 O 0.78626 0.13047 0.75601 0.0
O425 O 0.78371 0.17651 0.73545 0.0
O426 O 0.82623 0.16812 0.69815 0.0
O427 O 0.89583 0.20952 0.757 0.0
O428 O 0.8685 0.14603 0.69981 0.0
O429 O 0.91107 0.17474 0.73337 0.0
C430 C 0.83559 0.25679 0.74167 0.0
C431 C 0.87014 0.06929 0.74147 0.0
C432 C 0.7723 0.15409 0.74676 0.0
C433 C 0.85024 0.15152 0.79733 0.0
C434 C 0.84716 0.15418 0.68996 0.0
C435 C 0.91486 0.19954 0.74558 0.0
O436 O 0.83243 0.23764 0.72656 0.0
O437 O 0.41575 0.01597 0.7563 0.0
Zn438 Zn 0.40446 0.06599 0.76064 0.0
O439 O 0.42015 0.09902 0.74242 0.0
Zn440 Zn 0.44061 0.13514 0.75718 0.0
Zn441 Zn 0.44281 0.07087 0.72508 0.0
Zn442 Zn 0.39122 0.1199 0.72669 0.0
O443 O 0.42531 0.18519 0.75034 0.0
O444 O 0.38726 0.17043 0.73387 0.0
O445 O 0.41096 0.07919 0.78799 0.0
O446 O 0.43253 0.13064 0.78643 0.0
O447 O 0.48261 0.12459 0.75334 0.0
O448 O 0.48217 0.07753 0.73357 0.0
O449 O 0.43916 0.08698 0.69713 0.0
O450 O 0.36394 0.06466 0.75743 0.0
O451 O 0.40127 0.11983 0.69832 0.0
O452 O 0.35449 0.0955 0.73075 0.0
C453 C 0.42274 1.00092 0.74052 0.0
C454 C 0.40236 0.1934 0.74215 0.0
C455 C 0.4951 0.09976 0.74414 0.0
C456 C 0.42108 0.10614 0.79627 0.0
C457 C 0.42112 0.10623 0.68879 0.0
C458 C 0.34692 0.07557 0.74471 0.0
O459 O 0.43157 0.01882 0.72607 0.0
O460 O 0.17455 0.99169 0.4746 0.0
Zn461 Zn 0.16275 0.94194 0.47031 0.0
O462 O 0.17466 0.91065 0.49107 0.0
Zn463 Zn 0.1983 0.87325 0.48025 0.0
Zn464 Zn 0.19287 0.93977 0.5105 0.0
Zn465 Zn 0.14277 0.89076 0.50349 0.0
O466 O 0.18085 0.82332 0.48583 0.0
O467 O 0.13996 0.84001 0.49758 0.0
O468 O 0.17549 0.9259 0.44423 0.0
O469 O 0.19864 0.87676 0.45072 0.0
O470 O 0.23889 0.88463 0.48838 0.0
O471 O 0.23348 0.93258 0.50696 0.0
O472 O 0.18159 0.92726 0.53819 0.0
O473 O 0.12173 0.94677 0.46996 0.0
O474 O 0.14461 0.8947 0.5323 0.0
O475 O 0.10833 0.91546 0.49552 0.0
C476 C 0.17833 0.00829 0.49047 0.0
C477 C 0.15626 0.81609 0.49161 0.0
C478 C 0.24897 0.91039 0.49825 0.0
C479 C 0.18925 0.89925 0.4386 0.0
C480 C 0.16095 0.90952 0.54421 0.0
C481 C 0.103 0.93654 0.48162 0.0
O482 O 0.18349 0.99176 0.50626 0.0
O483 O 0.59962 0.76983 0.47664 0.0
Zn484 Zn 0.61362 0.8189 0.47196 0.0
O485 O 0.60232 0.8522 0.49201 0.0
Zn486 Zn 0.58023 0.89001 0.48028 0.0
Zn487 Zn 0.58242 0.82508 0.5114 0.0
Zn488 Zn 0.63428 0.87145 0.50475 0.0
O489 O 0.59821 0.9394 0.48573 0.0
O490 O 0.63856 0.92195 0.4981 0.0
O491 O 0.60314 0.83504 0.44525 0.0
O492 O 0.5816 0.88566 0.45096 0.0
O493 O 0.53916 0.88059 0.48731 0.0
O494 O 0.54196 0.83355 0.50698 0.0
O495 O 0.59335 0.83756 0.53899 0.0
O496 O 0.65443 0.81168 0.47294 0.0
O497 O 0.63105 0.86916 0.53362 0.0
O498 O 0.66835 0.84448 0.49781 0.0
C499 C 0.59616 0.75499 0.49309 0.0
C500 C 0.62278 0.94615 0.4917 0.0
C501 C 0.52778 0.8561 0.49743 0.0
C502 C 0.59081 0.86256 0.43917 0.0
C503 C 0.61398 0.85497 0.54527 0.0
C504 C 0.67324 0.8219 0.48456 0.0
O505 O 0.59149 0.77316 0.50834 0.0
O506 O 0.15782 0.77827 0.25595 0.0
Zn507 Zn 0.15321 0.82928 0.26178 0.0
O508 O 0.16902 0.85815 0.24118 0.0
Zn509 Zn 0.19271 0.89457 0.25289 0.0
Zn510 Zn 0.18863 0.82794 0.22284 0.0
Zn511 Zn 0.13875 0.87905 0.2271 0.0
O512 O 0.17455 0.94453 0.24903 0.0
O513 O 0.13598 0.92991 0.23321 0.0
O514 O 0.16883 0.84021 0.28802 0.0
O515 O 0.19384 0.88801 0.28215 0.0
O516 O 0.23356 0.88475 0.24469 0.0
O517 O 0.22899 0.836 0.22669 0.0
O518 O 0.17802 0.8378 0.19469 0.0
O519 O 0.11221 0.8332 0.26303 0.0
O520 O 0.14215 0.8734 0.19847 0.0
O521 O 0.10323 0.8558 0.23397 0.0
C522 C 0.16747 0.76089 0.24168 0.0
C523 C 0.15111 0.9528 0.2415 0.0
C524 C 0.2441 0.85887 0.23516 0.0
C525 C 0.18422 0.86514 0.29393 0.0
C526 C 0.15833 0.85601 0.18756 0.0
C527 C 0.09536 0.84017 0.24936 0.0
O528 O 0.17988 0.77616 0.22765 0.0
O529 O 0.61378 0.9933 0.25815 0.0
Zn530 Zn 0.62545 0.94341 0.26218 0.0
O531 O 0.61058 0.91296 0.24205 0.0
Zn532 Zn 0.58515 0.87844 0.25335 0.0
Zn533 Zn 0.59328 0.94244 0.22248 0.0
Zn534 Zn 0.64091 0.88915 0.22988 0.0
O535 O 0.60047 0.82725 0.24948 0.0
O536 O 0.64346 0.8402 0.24013 0.0
O537 O 0.61432 0.92787 0.28887 0.0
O538 O 0.58541 0.8839 0.28262 0.0
O539 O 0.54497 0.89147 0.24511 0.0
O540 O 0.55231 0.93796 0.22579 0.0
O541 O 0.60449 0.92797 0.19513 0.0
O542 O 0.66667 0.94769 0.26023 0.0
O543 O 0.63687 0.88791 0.20101 0.0
O544 O 0.6761 0.91531 0.23424 0.0
C545 C 0.60961 0.01012 0.24236 0.0
C546 C 0.62559 0.81818 0.24619 0.0
C547 C 0.53589 0.91728 0.23478 0.0
C548 C 0.59785 0.90393 0.29465 0.0
C549 C 0.6223 0.90571 0.18913 0.0
C550 C 0.68346 0.93726 0.24721 0.0
O551 O 0.60386 0.99392 0.22659 0.0
O552 O 0.87049 0.51787 0.97696 0.0
Zn553 Zn 0.88236 0.56854 0.97509 0.0
O554 O 0.86247 0.59894 -0.0073 0.0
Zn555 Zn 0.84157 0.63383 0.97715 0.0
Zn556 Zn 0.84034 0.56879 0.0093 0.0
Zn557 Zn 0.88848 0.62078 0.01018 0.0
O558 O 0.85668 0.68454 0.984 0.0
O559 O 0.89331 0.67025 0.00218 0.0
O560 O 0.88135 0.58543 0.94778 0.0
O561 O 0.85074 0.62898 0.94788 0.0
O562 O 0.79939 0.62199 0.98084 0.0
O563 O 0.80133 0.57501 0.00062 0.0
O564 O 0.84185 0.5824 0.03796 0.0
O565 O 0.92178 0.56649 0.9824 0.0
O566 O 0.87473 0.62286 0.03754 0.0
O567 O 0.92504 0.59526 0.01045 0.0
C568 C 0.86254 0.50129 -0.00791 0.0
C569 C 0.879 0.69303 -0.00697 0.0
C570 C 0.7876 0.59664 0.99016 0.0
C571 C 0.86793 0.6093 0.9389 0.0
C572 C 0.85646 0.60544 0.04665 0.0
C573 C 0.93553 0.57602 -0.00278 0.0
O574 O 0.85259 0.51761 0.00674 0.0
O575 O 0.38541 0.72621 0.98239 0.0
Zn576 Zn 0.3875 0.675 0.97605 0.0
O577 O 0.41392 0.65182 -0.00764 0.0
Zn578 Zn 0.43526 0.61869 0.97639 0.0
Zn579 Zn 0.43465 0.68615 0.00722 0.0
Zn580 Zn 0.39076 0.629 0.011 0.0
O581 O 0.42039 0.56752 0.98226 0.0
O582 O 0.38614 0.57948 0.00304 0.0
O583 O 0.39599 0.66959 0.94819 0.0
O584 O 0.4271 0.62667 0.94718 0.0
O585 O 0.47709 0.63153 0.98089 0.0
O586 O 0.47363 0.68148 -0.00175 0.0
O587 O 0.43523 0.67471 0.03623 0.0
O588 O 0.34971 0.65583 0.98031 0.0
O589 O 0.40702 0.62885 0.03752 0.0
O590 O 0.3543 0.65451 0.01214 0.0
C591 C 0.39868 0.74704 -0.00653 0.0
C592 C 0.39944 0.5578 -0.00754 0.0
C593 C 0.48806 0.65872 0.98907 0.0
C594 C 0.41126 0.6487 0.93859 0.0
C595 C 0.42384 0.64977 0.04572 0.0
C596 C 0.33945 0.65978 -0.00286 0.0
O597 O 0.41895 0.73602 0.00375 0.0
O598 O 0.84332 0.74528 0.25906 0.0
Zn599 Zn 0.86302 0.69918 0.26177 0.0
O600 O 0.85141 0.66267 0.24438 0.0
Zn601 Zn 0.83323 0.62608 0.26023 0.0
Zn602 Zn 0.828 0.68795 0.2264 0.0
Zn603 Zn 0.88204 0.64433 0.22933 0.0
O604 O 0.84997 0.57705 0.25256 0.0
O605 O 0.88847 0.59439 0.23729 0.0
O606 O 0.86399 0.68352 0.28902 0.0
O607 O 0.84452 0.63078 0.28928 0.0
O608 O 0.7905 0.63495 0.25721 0.0
O609 O 0.78951 0.6777 0.23464 0.0
O610 O 0.83315 0.67166 0.1987 0.0
O611 O 0.90148 0.7105 0.25598 0.0
O612 O 0.87252 0.64197 0.2007 0.0
O613 O 0.91673 0.67385 0.2332 0.0
C614 C 0.83845 0.75988 0.24274 0.0
C615 C 0.87369 0.57038 0.245 0.0
C616 C 0.77719 0.65705 0.24646 0.0
C617 C 0.85716 0.65569 0.29806 0.0
C618 C 0.85222 0.65357 0.19078 0.0
C619 C 0.92054 0.69952 0.24489 0.0
O620 O 0.83502 0.74116 0.2275 0.0
O621 O 0.40278 0.52657 0.25678 0.0
Zn622 Zn 0.39582 0.57787 0.26132 0.0
O623 O 0.41639 0.60777 0.24393 0.0
Zn624 Zn 0.43798 0.64192 0.25942 0.0
Zn625 Zn 0.43827 0.57737 0.22734 0.0
Zn626 Zn 0.39029 0.63067 0.22684 0.0
O627 O 0.42311 0.69272 0.25334 0.0
O628 O 0.38579 0.6804 0.23538 0.0
O629 O 0.40261 0.58892 0.28888 0.0
O630 O 0.43006 0.6357 0.28876 0.0
O631 O 0.48005 0.63036 0.25491 0.0
O632 O 0.47738 0.58269 0.23577 0.0
O633 O 0.43718 0.59274 0.19921 0.0
O634 O 0.35546 0.58258 0.25698 0.0
O635 O 0.40388 0.63274 0.19928 0.0
O636 O 0.35358 0.60524 0.22719 0.0
C637 C 0.41269 0.50993 0.24231 0.0
C638 C 0.40071 0.7022 0.24475 0.0
C639 C 0.4915 0.60463 0.24572 0.0
C640 C 0.41572 0.6128 0.2979 0.0
C641 C 0.42262 0.61569 0.19039 0.0
C642 C 0.34215 0.5898 0.24155 0.0
O643 O 0.4256 0.52602 0.22878 0.0
O644 O 0.14617 0.47447 0.97881 0.0
Zn645 Zn 0.14462 0.4225 0.97365 0.0
O646 O 0.16803 0.39754 -0.00797 0.0
Zn647 Zn 0.19079 0.36314 0.97819 0.0
Zn648 Zn 0.18885 0.43051 0.00805 0.0
Zn649 Zn 0.14303 0.37371 0.00902 0.0
O650 O 0.17424 0.31235 0.98161 0.0
O651 O 0.13836 0.32403 0.00086 0.0
O652 O 0.15541 0.41291 0.94599 0.0
O653 O 0.18836 0.3726 0.9493 0.0
O654 O 0.23187 0.37312 0.98458 0.0
O655 O 0.22903 0.42374 0.00131 0.0
O656 O 0.18282 0.42128 0.03718 0.0
O657 O 0.1046 0.41127 0.9773 0.0
O658 O 0.15523 0.37466 0.03646 0.0
O659 O 0.10672 0.39867 0.0087 0.0
C660 C 0.15919 0.49409 0.9907 0.0
C661 C 0.15221 0.30259 0.9905 0.0
C662 C 0.24318 0.39991 -0.00723 0.0
C663 C 0.17347 0.39251 0.93865 0.0
C664 C 0.16956 0.39684 0.0459 0.0
C665 C 0.0933 0.40963 -0.00601 0.0
O666 O 0.17681 0.48131 0.00262 0.0
O667 O 0.62771 0.27377 0.97696 0.0
Zn668 Zn 0.63112 0.32562 0.97167 0.0
O669 O 0.61109 0.35261 -0.00879 0.0
Zn670 Zn 0.58648 0.38707 0.97892 0.0
Zn671 Zn 0.5924 0.321 0.00914 0.0
Zn672 Zn 0.63838 0.3769 0.00613 0.0
O673 O 0.60233 0.43823 0.98236 0.0
O674 O 0.64272 0.4258 -0.00355 0.0
O675 O 0.61807 0.33694 0.94452 0.0
O676 O 0.5877 0.3798 0.94984 0.0
O677 O 0.5458 0.37523 0.9866 0.0
O678 O 0.55183 0.32672 0.00466 0.0
O679 O 0.60096 0.33287 0.03744 0.0
O680 O 0.67216 0.33247 0.97375 0.0
O681 O 0.62924 0.37847 0.03431 0.0
O682 O 0.67413 0.35121 0.00426 0.0
C683 C 0.61751 0.25556 0.99077 0.0
C684 C 0.62644 0.44751 0.98823 0.0
C685 C 0.53604 0.34881 -0.00389 0.0
C686 C 0.60072 0.35954 0.93825 0.0
C687 C 0.61528 0.35761 0.04492 0.0
C688 C 0.68545 0.33695 0.98956 0.0
O689 O 0.60355 0.26992 0.00439 0.0
O690 O 0.16376 0.26779 0.75599 0.0
Zn691 Zn 0.15356 0.31841 0.76058 0.0
O692 O 0.16772 0.35014 0.7407 0.0
Zn693 Zn 0.19251 0.38511 0.75277 0.0
Zn694 Zn 0.18568 0.3211 0.72121 0.0
Zn695 Zn 0.1372 0.37304 0.72787 0.0
O696 O 0.17705 0.43637 0.74819 0.0
O697 O 0.13642 0.42347 0.73467 0.0
O698 O 0.16434 0.33346 0.78723 0.0
O699 O 0.1915 0.37972 0.78223 0.0
O700 O 0.23288 0.37251 0.74478 0.0
O701 O 0.22651 0.32626 0.7251 0.0
O702 O 0.17487 0.33411 0.69355 0.0
O703 O 0.11251 0.3168 0.75979 0.0
O704 O 0.13989 0.37035 0.69907 0.0
O705 O 0.10112 0.351 0.73485 0.0
C706 C 0.16785 0.25244 0.73977 0.0
C707 C 0.1532 0.44572 0.74179 0.0
C708 C 0.24247 0.34715 0.73437 0.0
C709 C 0.17931 0.35835 0.7937 0.0
C710 C 0.15551 0.35391 0.68734 0.0
C711 C 0.09453 0.32957 0.7483 0.0
O712 O 0.17447 0.26993 0.72462 0.0
O713 O 0.62163 0.47888 0.75446 0.0
Zn714 Zn 0.62279 0.42698 0.75942 0.0
O715 O 0.60189 0.40163 0.73979 0.0
Zn716 Zn 0.57717 0.36749 0.75249 0.0
Zn717 Zn 0.58306 0.43505 0.72278 0.0
Zn718 Zn 0.6284 0.37767 0.72383 0.0
O719 O 0.59179 0.31589 0.74794 0.0
O720 O 0.63008 0.32741 0.73112 0.0
O721 O 0.60995 0.4163 0.78651 0.0
O722 O 0.57983 0.37307 0.78175 0.0
O723 O 0.53642 0.38151 0.74582 0.0
O724 O 0.54266 0.43038 0.72806 0.0
O725 O 0.59018 0.42515 0.69404 0.0
O726 O 0.66315 0.41686 0.75771 0.0
O727 O 0.61949 0.38034 0.69569 0.0
O728 O 0.66588 0.39894 0.72707 0.0
C729 C 0.61108 0.49831 0.74129 0.0
C730 C 0.61446 0.30581 0.73998 0.0
C731 C 0.52682 0.40858 0.73675 0.0
C732 C 0.59316 0.39343 0.79311 0.0
C733 C 0.60481 0.40155 0.68579 0.0
C734 C 0.67717 0.41106 0.74239 0.0
O735 O 0.59559 0.48545 0.72806 0.0
H736 H 0.41968 0.80098 0.016 0.0
H737 H 0.35611 0.77764 0.97368 0.0
H738 H 0.40388 0.86238 0.01711 0.0
H739 H 0.34047 0.83839 0.97496 0.0
H740 H 0.3494 0.95774 0.96244 0.0
H741 H 0.36017 0.89515 0.96399 0.0
H742 H 0.36281 0.90052 0.02681 0.0
H743 H 0.35199 0.96369 0.02526 0.0
C744 C 0.40237 0.80883 0.00699 0.0
C745 C 0.38945 0.78438 -0.00542 0.0
C746 C 0.39317 0.8439 0.00776 0.0
C747 C 0.37099 0.85523 -0.00394 0.0
C748 C 0.35782 0.83062 0.98396 0.0
C749 C 0.36687 0.79571 0.98325 0.0
C750 C 0.3518 0.94551 0.97662 0.0
C751 C 0.34979 0.96569 -0.00627 0.0
C752 C 0.35794 0.90959 0.97751 0.0
C753 C 0.36251 0.89292 -0.00448 0.0
C754 C 0.35967 0.91276 0.01271 0.0
C755 C 0.35315 0.94879 0.01183 0.0
H756 H 0.87868 0.46467 0.02434 0.0
H757 H 0.8624 0.45269 0.96291 0.0
H758 H 0.8976 0.40518 0.02555 0.0
H759 H 0.87936 0.39236 0.96421 0.0
H760 H 0.935 0.29937 0.96469 0.0
H761 H 0.91924 0.36026 0.96562 0.0
H762 H 0.89155 0.34506 0.02499 0.0
H763 H 0.90934 0.28493 0.0243 0.0
C764 C 0.87838 0.44883 0.01121 0.0
C765 C 0.86905 0.46326 -0.00647 0.0
C766 C 0.88929 0.41462 0.01186 0.0
C767 C 0.89058 0.39374 -0.00509 0.0
C768 C 0.87975 0.40779 0.97746 0.0
C769 C 0.86954 0.44225 0.97673 0.0
C770 C 0.9262 0.30949 0.97808 0.0
C771 C 0.9236 0.28761 -0.00554 0.0
C772 C 0.91664 0.34425 0.97855 0.0
C773 C 0.90334 0.35773 -0.00478 0.0
C774 C 0.9018 0.33605 0.01191 0.0
C775 C 0.91208 0.3015 0.01158 0.0
H776 H 0.40632 0.46226 0.27151 0.0
H777 H 0.40204 0.47279 0.20899 0.0
H778 H 0.38767 0.40294 0.26927 0.0
H779 H 0.38179 0.41397 0.20665 0.0
H780 H 0.36696 0.2937 0.20926 0.0
H781 H 0.38667 0.3528 0.20921 0.0
H782 H 0.34603 0.3746 0.26399 0.0
H783 H 0.3278 0.31483 0.26448 0.0
C784 C 0.40152 0.4517 0.25724 0.0
C785 C 0.4057 0.47211 0.24043 0.0
C786 C 0.39038 0.41782 0.25594 0.0
C787 C 0.38245 0.40369 0.23781 0.0
C788 C 0.38769 0.4237 0.22088 0.0
C789 C 0.3994 0.45744 0.22218 0.0
C790 C 0.36182 0.31142 0.22109 0.0
C791 C 0.34587 0.29961 0.2369 0.0
C792 C 0.3732 0.34539 0.2211 0.0
C793 C 0.36852 0.36852 0.2368 0.0
C794 C 0.35098 0.35728 0.25196 0.0
C795 C 0.3401 0.32315 0.25212 0.0
H796 H 0.84814 0.79997 0.21011 0.0
H797 H 0.83614 0.80774 0.27232 0.0
H798 H 0.86036 0.86259 0.20895 0.0
H799 H 0.84844 0.8699 0.27116 0.0
H800 H 0.85025 0.98777 0.26032 0.0
H801 H 0.83314 0.92759 0.25897 0.0
H802 H 0.90016 0.89904 0.22067 0.0
H803 H 0.91735 0.95967 0.22184 0.0
C804 C 0.84756 0.81514 0.22346 0.0
C805 C 0.84116 0.79881 0.24131 0.0
C806 C 0.85488 0.85091 0.22283 0.0
C807 C 0.85561 0.87117 0.23998 0.0
C808 C 0.84793 0.85517 0.25765 0.0
C809 C 0.84091 0.81946 0.25832 0.0
C810 C 0.86149 0.96876 0.25162 0.0
C811 C 0.88543 0.97862 0.24135 0.0
C812 C 0.85161 0.93418 0.25086 0.0
C813 C 0.86529 0.90846 0.23976 0.0
C814 C 0.88897 0.91833 0.22921 0.0
C815 C 0.89897 0.95301 0.23002 0.0
H816 H 0.69745 0.05046 0.00689 0.0
H817 H 0.61926 0.0292 0.979 0.0
H818 H 0.68584 0.11367 0.00782 0.0
H819 H 0.60754 0.09169 0.98047 0.0
H820 H 0.58777 0.20224 0.00786 0.0
H821 H 0.60001 0.13941 0.00944 0.0
H822 H 0.67559 0.16077 0.97842 0.0
H823 H 0.66316 0.22312 0.97633 0.0
C824 C 0.67782 0.05924 0.00108 0.0
C825 C 0.65942 0.03498 -0.00731 0.0
C826 C 0.6712 0.09527 0.00161 0.0
C827 C 0.64575 0.10737 -0.00572 0.0
C828 C 0.62718 0.08299 0.98632 0.0
C829 C 0.63405 0.04729 0.98535 0.0
C830 C 0.60693 0.19345 0.00136 0.0
C831 C 0.62432 0.21751 -0.00822 0.0
C832 C 0.61394 0.15762 0.00228 0.0
C833 C 0.63881 0.14543 -0.00586 0.0
C834 C 0.65643 0.16958 0.98494 0.0
C835 C 0.64913 0.20516 0.98359 0.0
H836 H 0.15343 0.71879 0.97178 0.0
H837 H 0.0816 0.70073 0.00771 0.0
H838 H 0.1652 0.65641 0.97377 0.0
H839 H 0.09322 0.63762 0.00924 0.0
H840 H 0.11008 0.52426 0.98111 0.0
H841 H 0.09755 0.58667 0.98202 0.0
H842 H 0.17925 0.61242 0.00259 0.0
H843 H 0.19172 0.54963 0.00216 0.0
C844 C 0.13995 0.70143 0.97995 0.0
C845 C 0.1164 0.7147 0.98947 0.0
C846 C 0.14691 0.66577 0.98122 0.0
C847 C 0.13021 0.6423 -0.00829 0.0
C848 C 0.10643 0.65527 0.00105 0.0
C849 C 0.09978 0.69128 0.00016 0.0
C850 C 0.12541 0.54321 0.98584 0.0
C851 C 0.15201 0.53208 -0.0086 0.0
C852 C 0.11811 0.57886 0.98652 0.0
C853 C 0.13742 0.60428 -0.00762 0.0
C854 C 0.16401 0.59327 -0.00202 0.0
C855 C 0.17113 0.55743 -0.00226 0.0
H856 H 0.69592 0.69968 0.7239 0.0
H857 H 0.62367 0.72228 0.75861 0.0
H858 H 0.68214 0.63722 0.72246 0.0
H859 H 0.60973 0.66065 0.75661 0.0
H860 H 0.58193 0.55452 0.72662 0.0
H861 H 0.59651 0.6166 0.72573 0.0
H862 H 0.67404 0.58818 0.75242 0.0
H863 H 0.65934 0.52662 0.75388 0.0
C864 C 0.67719 0.69135 0.73117 0.0
C865 C 0.66109 0.71574 0.74156 0.0
C866 C 0.6693 0.65578 0.73032 0.0
C867 C 0.6448 0.64441 0.73933 0.0
C868 C 0.62858 0.66888 0.74944 0.0
C869 C 0.63677 0.70405 0.75072 0.0
C870 C 0.60203 0.56161 0.7323 0.0
C871 C 0.61934 0.53584 0.74053 0.0
C872 C 0.61037 0.59698 0.73176 0.0
C873 C 0.63644 0.60691 0.73891 0.0
C874 C 0.65396 0.58107 0.74669 0.0
C875 C 0.64538 0.54596 0.74769 0.0
H876 H 0.16615 0.20282 0.7686 0.0
H877 H 0.15088 0.21749 0.70713 0.0
H878 H 0.14627 0.14401 0.76685 0.0
H879 H 0.12963 0.15942 0.70549 0.0
H880 H 0.11384 0.03983 0.70663 0.0
H881 H 0.13467 0.09821 0.70638 0.0
H882 H 0.10317 0.11701 0.76441 0.0
H883 H 0.08367 0.05789 0.76494 0.0
C884 C 0.15872 0.19333 0.75466 0.0
C885 C 0.16013 0.2148 0.73801 0.0
C886 C 0.1469 0.15976 0.75369 0.0
C887 C 0.13567 0.14704 0.73611 0.0
C888 C 0.13814 0.16805 0.71927 0.0
C889 C 0.15042 0.20142 0.72019 0.0
C890 C 0.11089 0.05673 0.71917 0.0
C891 C 0.09716 0.04421 0.73583 0.0
C892 C 0.12294 0.09028 0.71907 0.0
C893 C 0.12116 0.11231 0.73553 0.0
C894 C 0.10583 0.10048 0.7517 0.0
C895 C 0.09423 0.06674 0.75192 0.0
H896 H 0.40083 0.29645 0.52602 0.0
H897 H 0.41621 0.31183 0.46468 0.0
H898 H 0.37869 0.35425 0.52766 0.0
H899 H 0.39546 0.37015 0.46639 0.0
H900 H 0.33054 0.45312 0.46746 0.0
H901 H 0.35133 0.39471 0.46856 0.0
H902 H 0.38229 0.41615 0.52646 0.0
H903 H 0.36022 0.47389 0.52565 0.0
C904 C 0.40026 0.31269 0.51303 0.0
C905 C 0.41018 0.29961 0.49521 0.0
C906 C 0.38745 0.34582 0.51392 0.0
C907 C 0.38464 0.36673 0.49705 0.0
C908 C 0.39629 0.35441 0.47954 0.0
C909 C 0.40862 0.32116 0.4786 0.0
C910 C 0.34125 0.44499 0.48059 0.0
C911 C 0.34368 0.4681 0.49646 0.0
C912 C 0.35359 0.41168 0.48114 0.0
C913 C 0.36919 0.40086 0.49742 0.0
C914 C 0.37042 0.42337 0.51369 0.0
C915 C 0.35765 0.45651 0.51326 0.0
H916 H 0.8667 0.96964 0.52596 0.0
H917 H 0.84685 0.95108 0.46552 0.0
H918 H 0.8887 0.91178 0.52786 0.0
H919 H 0.86755 0.89276 0.46757 0.0
H920 H 0.93249 0.81018 0.46755 0.0
H921 H 0.91195 0.86865 0.46864 0.0
H922 H 0.88521 0.84949 0.52781 0.0
H923 H 0.90708 0.79143 0.52691 0.0
C924 C 0.86627 0.95274 0.51324 0.0
C925 C 0.85512 0.96499 0.49555 0.0
C926 C 0.87901 0.91955 0.5143 0.0
C927 C 0.88058 0.89773 0.49774 0.0
C928 C 0.86769 0.90921 0.48045 0.0
C929 C 0.85539 0.94248 0.47933 0.0
C930 C 0.92278 0.81881 0.48094 0.0
C931 C 0.92143 0.79622 0.49713 0.0
C932 C 0.91056 0.85216 0.4815 0.0
C933 C 0.89612 0.86362 0.49813 0.0
C934 C 0.89611 0.84173 0.51474 0.0
C935 C 0.90878 0.80845 0.51427 0.0
H936 H 0.40664 0.96594 0.70753 0.0
H937 H 0.42185 0.95095 0.76894 0.0
H938 H 0.38488 0.90789 0.70591 0.0
H939 H 0.40136 0.89251 0.76726 0.0
H940 H 0.33465 0.81146 0.76614 0.0
H941 H 0.35666 0.86907 0.76494 0.0
H942 H 0.38833 0.84548 0.70753 0.0
H943 H 0.36517 0.7884 0.70847 0.0
C944 C 0.40614 0.94975 0.72054 0.0
C945 C 0.41584 0.96306 0.73838 0.0
C946 C 0.39354 0.91648 0.71966 0.0
C947 C 0.39066 0.8957 0.73657 0.0
C948 C 0.40225 0.90817 0.75407 0.0
C949 C 0.41441 0.9415 0.755 0.0
C950 C 0.34583 0.81889 0.7531 0.0
C951 C 0.34806 0.79538 0.7374 0.0
C952 C 0.35886 0.85175 0.7525 0.0
C953 C 0.37492 0.86178 0.73631 0.0
C954 C 0.37611 0.83885 0.72022 0.0
C955 C 0.36271 0.80611 0.72072 0.0
H956 H 0.83311 0.30877 0.76911 0.0
H957 H 0.86024 0.28824 0.71031 0.0
H958 H 0.85637 0.36566 0.76843 0.0
H959 H 0.88466 0.34435 0.70987 0.0
H960 H 0.90871 0.46149 0.71068 0.0
H961 H 0.88343 0.40615 0.70931 0.0
H962 H 0.90142 0.38793 0.77021 0.0
H963 H 0.92558 0.44414 0.77174 0.0
C964 C 0.84377 0.31664 0.75593 0.0
C965 C 0.84475 0.29397 0.73976 0.0
C966 C 0.85752 0.34906 0.75563 0.0
C967 C 0.87306 0.35948 0.73926 0.0
C968 C 0.87287 0.33751 0.72272 0.0
C969 C 0.85874 0.30527 0.72293 0.0
C970 C 0.90771 0.44538 0.72371 0.0
C971 C 0.91922 0.45732 0.74134 0.0
C972 C 0.89309 0.41355 0.72293 0.0
C973 C 0.88987 0.39258 0.73972 0.0
C974 C 0.90266 0.40375 0.7571 0.0
C975 C 0.91695 0.43578 0.75793 0.0
H976 H 0.65119 0.54194 0.52531 0.0
H977 H 0.67721 0.55983 0.46596 0.0
H978 H 0.62981 0.60006 0.526 0.0
H979 H 0.65715 0.61864 0.46689 0.0
H980 H 0.59453 0.70483 0.46461 0.0
H981 H 0.6138 0.6456 0.46595 0.0
H982 H 0.63513 0.66136 0.52652 0.0
H983 H 0.61453 0.71987 0.52536 0.0
C984 C 0.65305 0.55872 0.51259 0.0
C985 C 0.66585 0.54626 0.49556 0.0
C986 C 0.6407 0.59211 0.51295 0.0
C987 C 0.64122 0.61402 0.49638 0.0
C988 C 0.65547 0.60218 0.47974 0.0
C989 C 0.66738 0.56862 0.47927 0.0
C990 C 0.60281 0.69531 0.47832 0.0
C991 C 0.60298 0.71705 0.49487 0.0
C992 C 0.61427 0.6615 0.47903 0.0
C993 C 0.62671 0.64879 0.49622 0.0
C994 C 0.62567 0.67 0.51304 0.0
C995 C 0.61376 0.70362 0.5124 0.0
H996 H 0.17355 0.05263 0.52208 0.0
H997 H 0.16905 0.05094 0.45918 0.0
H998 H 0.15773 0.11397 0.52194 0.0
H999 H 0.15254 0.11117 0.4591 0.0
H1000 H 0.14809 0.22924 0.46323 0.0
H1001 H 0.16636 0.16995 0.46476 0.0
H1002 H 0.11612 0.14847 0.51539 0.0
H1003 H 0.09833 0.20891 0.51429 0.0
C1004 C 0.16955 0.0654 0.50824 0.0
C1005 C 0.17266 0.04679 0.49065 0.0
C1006 C 0.16011 0.1004 0.50817 0.0
C1007 C 0.15366 0.11751 0.49052 0.0
C1008 C 0.15759 0.09912 0.47297 0.0
C1009 C 0.16704 0.06438 0.47303 0.0
C1010 C 0.14064 0.21195 0.47465 0.0
C1011 C 0.12151 0.22394 0.48857 0.0
C1012 C 0.15117 0.17776 0.4755 0.0
C1013 C 0.14272 0.15427 0.49017 0.0
C1014 C 0.12337 0.16602 0.50404 0.0
C1015 C 0.1129 0.20052 0.50327 0.0
H1016 H 0.67763 0.21723 0.21542 0.0
H1017 H 0.63615 0.23061 0.27069 0.0
H1018 H 0.66298 0.15546 0.21472 0.0
H1019 H 0.62087 0.16998 0.26962 0.0
H1020 H 0.62399 0.0513 0.27321 0.0
H1021 H 0.63851 0.11227 0.27291 0.0
H1022 H 0.62225 0.11814 0.21107 0.0
H1023 H 0.60848 0.05605 0.21121 0.0
C1024 C 0.66553 0.20704 0.22743 0.0
C1025 C 0.65831 0.22889 0.24318 0.0
C1026 C 0.65686 0.17176 0.22693 0.0
C1027 C 0.64072 0.15771 0.24212 0.0
C1028 C 0.63366 0.17963 0.25783 0.0
C1029 C 0.64244 0.21458 0.25841 0.0
C1030 C 0.6232 0.06551 0.25952 0.0
C1031 C 0.61497 0.04864 0.24223 0.0
C1032 C 0.6315 0.10067 0.25938 0.0
C1033 C 0.63158 0.12023 0.24197 0.0
C1034 C 0.6228 0.1037 0.22469 0.0
C1035 C 0.61458 0.06824 0.22481 0.0
H1036 H 0.19663 0.70818 0.22342 0.0
H1037 H 0.12276 0.72819 0.2569 0.0
H1038 H 0.18404 0.64538 0.22147 0.0
H1039 H 0.11 0.66617 0.25438 0.0
H1040 H 0.08571 0.5591 0.22399 0.0
H1041 H 0.09918 0.62162 0.22279 0.0
H1042 H 0.17572 0.59654 0.25184 0.0
H1043 H 0.16207 0.5346 0.25363 0.0
C1044 C 0.17777 0.6992 0.23028 0.0
C1045 C 0.16086 0.72292 0.2405 0.0
C1046 C 0.17057 0.66347 0.22913 0.0
C1047 C 0.14597 0.65129 0.23765 0.0
C1048 C 0.12892 0.67509 0.24756 0.0
C1049 C 0.13642 0.71045 0.24915 0.0
C1050 C 0.10537 0.56705 0.23009 0.0
C1051 C 0.12265 0.54222 0.23914 0.0
C1052 C 0.11307 0.60262 0.22937 0.0
C1053 C 0.13851 0.61357 0.23715 0.0
C1054 C 0.15612 0.58859 0.24565 0.0
C1055 C 0.14814 0.55331 0.24682 0.0
H1056 H 0.40492 0.06886 0.91953 0.0
H1057 H 0.34782 0.15453 0.90895 0.0
H1058 H 0.42109 0.07264 0.88639 0.0
H1059 H 0.36394 0.15761 0.87497 0.0
H1060 H 0.4193 0.16641 0.81871 0.0
H1061 H 0.4064 0.17028 0.85333 0.0
H1062 H 0.39941 0.05679 0.85567 0.0
H1063 H 0.41257 0.0529 0.82175 0.0
C1064 C 0.39556 0.08842 0.91009 0.0
C1065 C 0.3746 0.11099 0.91689 0.0
C1066 C 0.40496 0.09057 0.89102 0.0
C1067 C 0.39357 0.11508 0.878 0.0
C1068 C 0.37316 0.13852 0.88476 0.0
C1069 C 0.36376 0.13653 0.90411 0.0
C1070 C 0.41551 0.14236 0.82681 0.0
C1071 C 0.41708 0.10934 0.81755 0.0
C1072 C 0.40778 0.14461 0.8465 0.0
C1073 C 0.40188 0.11385 0.85719 0.0
C1074 C 0.40412 0.08097 0.84793 0.0
C1075 C 0.41162 0.07875 0.82843 0.0
H1076 H 0.87458 0.20086 0.82016 0.0
H1077 H 0.84529 0.09316 0.82161 0.0
H1078 H 0.89063 0.1955 0.85325 0.0
H1079 H 0.86102 0.08822 0.85565 0.0
H1080 H 0.92065 0.09091 0.91142 0.0
H1081 H 0.90507 0.08922 0.87723 0.0
H1082 H 0.86753 0.19169 0.88439 0.0
H1083 H 0.88332 0.19393 0.91762 0.0
C1084 C 0.87122 0.17601 0.82758 0.0
C1085 C 0.85824 0.14755 0.81815 0.0
C1086 C 0.88049 0.17299 0.84668 0.0
C1087 C 0.87686 0.14158 0.8572 0.0
C1088 C 0.8642 0.11274 0.84787 0.0
C1089 C 0.85492 0.11571 0.82848 0.0
C1090 C 0.90926 0.1131 0.90557 0.0
C1091 C 0.90358 0.1427 0.91728 0.0
C1092 C 0.9001 0.11197 0.88609 0.0
C1093 C 0.88527 0.14047 0.87806 0.0
C1094 C 0.87932 0.16956 0.88995 0.0
C1095 C 0.88841 0.17075 0.90915 0.0
H1096 H 0.42117 0.10108 0.41262 0.0
H1097 H 0.40113 0.21213 0.41345 0.0
H1098 H 0.40734 0.0984 0.37809 0.0
H1099 H 0.38688 0.20927 0.3798 0.0
H1100 H 0.39052 0.20627 0.31571 0.0
H1101 H 0.40804 0.20214 0.34848 0.0
H1102 H 0.36402 0.10433 0.35693 0.0
H1103 H 0.3468 0.10778 0.32322 0.0
C1104 C 0.41422 0.1249 0.4054 0.0
C1105 C 0.41238 0.15684 0.41575 0.0
C1106 C 0.40596 0.12327 0.38576 0.0
C1107 C 0.39604 0.15363 0.37619 0.0
C1108 C 0.39477 0.18548 0.38657 0.0
C1109 C 0.40289 0.18708 0.40597 0.0
C1110 C 0.38429 0.18381 0.32442 0.0
C1111 C 0.36672 0.15765 0.31684 0.0
C1112 C 0.39447 0.18146 0.34331 0.0
C1113 C 0.38716 0.15318 0.35544 0.0
C1114 C 0.3701 0.1264 0.34788 0.0
C1115 C 0.36 0.12857 0.32868 0.0
H1116 H 0.85387 0.11485 0.3122 0.0
H1117 H 0.93997 0.13315 0.32505 0.0
H1118 H 0.84289 0.11797 0.34675 0.0
H1119 H 0.92885 0.13565 0.36 0.0
H1120 H 0.89748 0.0782 0.41714 0.0
H1121 H 0.91025 0.08646 0.38319 0.0
H1122 H 0.84413 0.16171 0.37615 0.0
H1123 H 0.83143 0.15396 0.41059 0.0
C1124 C 0.87049 0.11965 0.32244 0.0
C1125 C 0.89789 0.12333 0.31593 0.0
C1126 C 0.86409 0.1218 0.34221 0.0
C1127 C 0.88497 0.12709 0.35603 0.0
C1128 C 0.91236 0.13151 0.34958 0.0
C1129 C 0.91873 0.13009 0.32965 0.0
C1130 C 0.88558 0.09659 0.40842 0.0
C1131 C 0.86317 0.11514 0.41652 0.0
C1132 C 0.89318 0.10159 0.38902 0.0
C1133 C 0.87831 0.12484 0.37709 0.0
C1134 C 0.85596 0.14363 0.3851 0.0
C1135 C 0.84866 0.13916 0.40474 0.0
H1136 H 0.58934 0.92518 0.15846 0.0
H1137 H 0.66887 0.87972 0.17221 0.0
H1138 H 0.60053 0.9221 0.1237 0.0
H1139 H 0.68005 0.87728 0.13758 0.0
H1140 H 0.69701 0.92356 0.07449 0.0
H1141 H 0.68712 0.92486 0.10956 0.0
H1142 H 0.61048 0.86991 0.09949 0.0
H1143 H 0.62029 0.86797 0.06479 0.0
C1144 C 0.60911 0.91448 0.15408 0.0
C1145 C 0.62812 0.90249 0.16806 0.0
C1146 C 0.6155 0.91271 0.13423 0.0
C1147 C 0.6412 0.8996 0.12807 0.0
C1148 C 0.66021 0.88775 0.14201 0.0
C1149 C 0.65365 0.88888 0.1618 0.0
C1150 C 0.67822 0.91147 0.07981 0.0
C1151 C 0.65951 0.89563 0.06684 0.0
C1152 C 0.67258 0.91221 0.09982 0.0
C1153 C 0.64793 0.89774 0.10709 0.0
C1154 C 0.62946 0.88157 0.09419 0.0
C1155 C 0.63527 0.88027 0.07433 0.0
H1156 H 0.19165 0.83194 0.15809 0.0
H1157 H 0.11119 0.87702 0.16925 0.0
H1158 H 0.18054 0.82884 0.12333 0.0
H1159 H 0.10023 0.87362 0.13468 0.0
H1160 H 0.08292 0.82533 0.07328 0.0
H1161 H 0.09302 0.8255 0.10836 0.0
H1162 H 0.17141 0.8755 0.09708 0.0
H1163 H 0.16151 0.8757 0.06244 0.0
C1164 C 0.17168 0.84121 0.15316 0.0
C1165 C 0.15243 0.85498 0.16641 0.0
C1166 C 0.16532 0.83941 0.1333 0.0
C1167 C 0.13947 0.85085 0.1264 0.0
C1168 C 0.12016 0.86427 0.13966 0.0
C1169 C 0.12663 0.86654 0.15942 0.0
C1170 C 0.10222 0.83644 0.07833 0.0
C1171 C 0.1213 0.85062 0.06506 0.0
C1172 C 0.10799 0.83656 0.09835 0.0
C1173 C 0.1331 0.85028 0.10533 0.0
C1174 C 0.15208 0.86435 0.09207 0.0
C1175 C 0.14621 0.86472 0.07222 0.0
H1176 H 0.64435 0.90432 0.5644 0.0
H1177 H 0.5978 0.80853 0.57352 0.0
H1178 H 0.65846 0.90375 0.59857 0.0
H1179 H 0.6123 0.80784 0.60773 0.0
H1180 H 0.67308 0.79977 0.66029 0.0
H1181 H 0.66054 0.80117 0.62564 0.0
H1182 H 0.63309 0.90891 0.63181 0.0
H1183 H 0.64518 0.90746 0.66632 0.0
C1184 C 0.63698 0.8833 0.57375 0.0
C1185 C 0.6199 0.85652 0.56634 0.0
C1186 C 0.64509 0.88298 0.59326 0.0
C1187 C 0.63668 0.85556 0.60563 0.0
C1188 C 0.6193 0.82902 0.59835 0.0
C1189 C 0.61077 0.82966 0.57888 0.0
C1190 C 0.66479 0.82388 0.65413 0.0
C1191 C 0.66007 0.85349 0.66594 0.0
C1192 C 0.65737 0.82455 0.63442 0.0
C1193 C 0.64567 0.85506 0.6262 0.0
C1194 C 0.6421 0.88511 0.63783 0.0
C1195 C 0.64901 0.88423 0.65754 0.0
H1196 H 0.19227 0.93246 0.57512 0.0
H1197 H 0.11485 0.88179 0.561 0.0
H1198 H 0.18003 0.93066 0.6097 0.0
H1199 H 0.10286 0.88005 0.59536 0.0
H1200 H 0.07861 0.92374 0.65596 0.0
H1201 H 0.09105 0.92401 0.62145 0.0
H1202 H 0.17226 0.88495 0.63589 0.0
H1203 H 0.16004 0.88465 0.67027 0.0
C1204 C 0.17277 0.92082 0.57936 0.0
C1205 C 0.15459 0.90729 0.56528 0.0
C1206 C 0.1658 0.9197 0.59914 0.0
C1207 C 0.14043 0.90536 0.60516 0.0
C1208 C 0.12239 0.89165 0.59111 0.0
C1209 C 0.12942 0.89245 0.57143 0.0
C1210 C 0.09904 0.91499 0.65177 0.0
C1211 C 0.11828 0.90417 0.66589 0.0
C1212 C 0.10615 0.91509 0.63202 0.0
C1213 C 0.13269 0.90469 0.62604 0.0
C1214 C 0.1518 0.89354 0.64011 0.0
C1215 C 0.14465 0.89312 0.6598 0.0
H1216 H 0.41963 0.67035 0.32241 0.0
H1217 H 0.40255 0.55855 0.32161 0.0
H1218 H 0.4069 0.67227 0.35713 0.0
H1219 H 0.38948 0.56058 0.35556 0.0
H1220 H 0.39274 0.56411 0.41972 0.0
H1221 H 0.41044 0.56875 0.38697 0.0
H1222 H 0.36398 0.66469 0.37816 0.0
H1223 H 0.34654 0.66069 0.41175 0.0
C1224 C 0.41364 0.64619 0.3297 0.0
C1225 C 0.41218 0.61429 0.31931 0.0
C1226 C 0.40601 0.64737 0.34945 0.0
C1227 C 0.39717 0.61658 0.35909 0.0
C1228 C 0.39652 0.5847 0.34871 0.0
C1229 C 0.40395 0.58357 0.32916 0.0
C1230 C 0.38606 0.58627 0.41092 0.0
C1231 C 0.36771 0.61171 0.41832 0.0
C1232 C 0.39634 0.58892 0.39207 0.0
C1233 C 0.38837 0.61682 0.37985 0.0
C1234 C 0.3706 0.64295 0.38728 0.0
C1235 C 0.36039 0.64047 0.40641 0.0
H1236 H 0.9203 0.5951 0.4147 0.0
H1237 H 0.90866 0.70809 0.41349 0.0
H1238 H 0.90473 0.59179 0.38057 0.0
H1239 H 0.89269 0.70467 0.38023 0.0
H1240 H 0.89451 0.69724 0.31624 0.0
H1241 H 0.91243 0.69288 0.34886 0.0
H1242 H 0.86142 0.60158 0.3596 0.0
H1243 H 0.84366 0.6052 0.32597 0.0
C1244 C 0.91479 0.61918 0.40713 0.0
C1245 C 0.91593 0.65188 0.4168 0.0
C1246 C 0.90552 0.61722 0.38772 0.0
C1247 C 0.89752 0.64797 0.37765 0.0
C1248 C 0.89905 0.6805 0.38737 0.0
C1249 C 0.90819 0.68244 0.40655 0.0
C1250 C 0.8868 0.67617 0.32542 0.0
C1251 C 0.86709 0.65197 0.31848 0.0
C1252 C 0.89721 0.67371 0.34424 0.0
C1253 C 0.88807 0.64727 0.35699 0.0
C1254 C 0.86891 0.62225 0.35008 0.0
C1255 C 0.85854 0.62452 0.33092 0.0
H1256 H 0.38829 0.70629 0.81744 0.0
H1257 H 0.34805 0.60499 0.82292 0.0
H1258 H 0.40508 0.70147 0.85053 0.0
H1259 H 0.36458 0.60066 0.85666 0.0
H1260 H 0.41951 0.5947 0.91233 0.0
H1261 H 0.40776 0.59529 0.87744 0.0
H1262 H 0.38358 0.70462 0.88223 0.0
H1263 H 0.39555 0.70418 0.91648 0.0
C1264 C 0.38279 0.68301 0.82573 0.0
C1265 C 0.36647 0.65619 0.8175 0.0
C1266 C 0.39249 0.68029 0.84478 0.0
C1267 C 0.38606 0.6508 0.85628 0.0
C1268 C 0.37009 0.62359 0.84808 0.0
C1269 C 0.36035 0.62627 0.82885 0.0
C1270 C 0.41224 0.61896 0.90574 0.0
C1271 C 0.4085 0.6494 0.91712 0.0
C1272 C 0.40518 0.61918 0.88587 0.0
C1273 C 0.39465 0.64997 0.87709 0.0
C1274 C 0.39189 0.68056 0.88843 0.0
C1275 C 0.3987 0.68027 0.90813 0.0
H1276 H 0.94169 0.64316 0.82354 0.0
H1277 H 0.87071 0.57565 0.81606 0.0
H1278 H 0.92946 0.65104 0.85802 0.0
H1279 H 0.85832 0.58417 0.85015 0.0
H1280 H 0.83302 0.63129 0.90956 0.0
H1281 H 0.84376 0.63495 0.87454 0.0
H1282 H 0.92788 0.60434 0.8865 0.0
H1283 H 0.91715 0.59988 0.92109 0.0
C1284 C 0.92339 0.63035 0.82918 0.0
C1285 C 0.90739 0.60845 0.81715 0.0
C1286 C 0.91638 0.63488 0.84886 0.0
C1287 C 0.89284 0.61835 0.85669 0.0
C1288 C 0.87636 0.59752 0.84446 0.0
C1289 C 0.88368 0.59237 0.82499 0.0
C1290 C 0.85382 0.62574 0.90466 0.0
C1291 C 0.87415 0.61493 0.918 0.0
C1292 C 0.85996 0.62778 0.88469 0.0
C1293 C 0.88669 0.62001 0.87786 0.0
C1294 C 0.90721 0.61078 0.89135 0.0
C1295 C 0.90096 0.60795 0.91113 0.0
H1296 H 0.59752 0.45562 0.65984 0.0
H1297 H 0.61894 0.34518 0.6635 0.0
H1298 H 0.60951 0.45552 0.62516 0.0
H1299 H 0.63067 0.3451 0.62895 0.0
H1300 H 0.62391 0.35487 0.56176 0.0
H1301 H 0.60831 0.35395 0.59559 0.0
H1302 H 0.65623 0.44746 0.60742 0.0
H1303 H 0.67204 0.4484 0.57361 0.0
C1304 C 0.6042 0.4312 0.65316 0.0
C1305 C 0.60738 0.40044 0.66436 0.0
C1306 C 0.61133 0.43124 0.6334 0.0
C1307 C 0.62127 0.40038 0.62448 0.0
C1308 C 0.62302 0.36922 0.63546 0.0
C1309 C 0.61633 0.36931 0.65522 0.0
C1310 C 0.63131 0.37508 0.57161 0.0
C1311 C 0.64928 0.40166 0.56502 0.0
C1312 C 0.62234 0.37454 0.59094 0.0
C1313 C 0.63084 0.40085 0.60401 0.0
C1314 C 0.64906 0.42717 0.59753 0.0
C1315 C 0.65836 0.42743 0.57826 0.0
H1316 H 0.17111 0.30812 0.6585 0.0
H1317 H 0.12482 0.4038 0.66878 0.0
H1318 H 0.15627 0.3088 0.62438 0.0
H1319 H 0.11008 0.40432 0.63485 0.0
H1320 H 0.12092 0.41272 0.56768 0.0
H1321 H 0.1326 0.41221 0.6022 0.0
H1322 H 0.11059 0.30204 0.60559 0.0
H1323 H 0.09878 0.3025 0.57084 0.0
C1324 C 0.15806 0.32946 0.65344 0.0
C1325 C 0.1492 0.35594 0.6663 0.0
C1326 C 0.1493 0.32959 0.63401 0.0
C1327 C 0.13183 0.35644 0.62707 0.0
C1328 C 0.12356 0.38335 0.63981 0.0
C1329 C 0.13204 0.38302 0.65923 0.0
C1330 C 0.11813 0.38852 0.57585 0.0
C1331 C 0.10896 0.35763 0.56658 0.0
C1332 C 0.12481 0.38825 0.5956 0.0
C1333 C 0.12277 0.357 0.60647 0.0
C1334 C 0.11267 0.32636 0.59742 0.0
C1335 C 0.10559 0.32674 0.57765 0.0
H1336 H 0.67362 0.31568 0.16115 0.0
H1337 H 0.63354 0.41701 0.16704 0.0
H1338 H 0.66078 0.31424 0.1267 0.0
H1339 H 0.62075 0.41542 0.1327 0.0
H1340 H 0.63322 0.4144 0.06558 0.0
H1341 H 0.64429 0.41696 0.10018 0.0
H1342 H 0.61605 0.30973 0.10726 0.0
H1343 H 0.60493 0.30703 0.0725 0.0
C1344 C 0.66237 0.3378 0.15506 0.0
C1345 C 0.65463 0.36647 0.16683 0.0
C1346 C 0.65475 0.33677 0.13541 0.0
C1347 C 0.63955 0.36456 0.12711 0.0
C1348 C 0.63251 0.39367 0.13872 0.0
C1349 C 0.63985 0.39454 0.15838 0.0
C1350 C 0.62904 0.39148 0.07454 0.0
C1351 C 0.61825 0.36047 0.0663 0.0
C1352 C 0.63535 0.393 0.09436 0.0
C1353 C 0.63128 0.36344 0.10634 0.0
C1354 C 0.61973 0.33274 0.09826 0.0
C1355 C 0.61308 0.33134 0.07844 0.0
H1356 H 0.14455 0.34916 0.16893 0.0
H1357 H 0.10475 0.4496 0.15876 0.0
H1358 H 0.16054 0.3483 0.13542 0.0
H1359 H 0.12044 0.4483 0.12489 0.0
H1360 H 0.17723 0.4515 0.07154 0.0
H1361 H 0.16441 0.45243 0.10607 0.0
H1362 H 0.14209 0.3423 0.10279 0.0
H1363 H 0.15523 0.34122 0.06866 0.0
C1364 C 0.13887 0.37088 0.15947 0.0
C1365 C 0.12331 0.39946 0.16656 0.0
C1366 C 0.14807 0.37035 0.14023 0.0
C1367 C 0.14198 0.39837 0.12754 0.0
C1368 C 0.12587 0.42661 0.13443 0.0
C1369 C 0.11654 0.4271 0.15374 0.0
C1370 C 0.17024 0.42733 0.07836 0.0
C1371 C 0.16722 0.39631 0.06738 0.0
C1372 C 0.1625 0.42799 0.09803 0.0
C1373 C 0.1519 0.39755 0.10708 0.0
C1374 C 0.15027 0.36616 0.0963 0.0
C1375 C 0.15781 0.36556 0.07671 0.0
H1376 H 0.55919 0.93707 0.95942 0.0
H1377 H 0.5714 0.9421 0.02171 0.0
H1378 H 0.51975 0.97657 0.96229 0.0
H1379 H 0.53333 0.98329 0.02452 0.0
H1380 H 0.44713 0.03338 0.0241 0.0
H1381 H 0.48617 0.99279 0.02327 0.0
H1382 H 0.51066 0.03602 0.96746 0.0
H1383 H 0.47038 0.07459 0.96793 0.0
C1384 C 0.55325 0.94642 0.97373 0.0
C1385 C 0.56824 0.93645 0.99032 0.0
C1386 C 0.53096 0.96953 0.97538 0.0
C1387 C 0.52367 0.98384 -0.0064 0.0
C1388 C 0.5381 0.97267 0.01028 0.0
C1389 C 0.55995 0.94894 0.00867 0.0
C1390 C 0.46142 0.03468 0.01198 0.0
C1391 C 0.45625 0.05713 -0.0038 0.0
C1392 C 0.48371 0.01137 0.0114 0.0
C1393 C 0.50138 0.01061 -0.00489 0.0
C1394 C 0.49704 0.03502 0.97994 0.0
C1395 C 0.47438 0.05766 0.98035 0.0
H1396 H 0.83328 0.22252 0.02731 0.0
H1397 H 0.80835 0.17855 0.97215 0.0
H1398 H 0.79433 0.26343 0.02617 0.0
H1399 H 0.76842 0.21758 0.97139 0.0
H1400 H 0.72182 0.31699 0.96131 0.0
H1401 H 0.76111 0.27754 0.96512 0.0
H1402 H 0.7466 0.27344 0.02728 0.0
H1403 H 0.70843 0.31441 0.02353 0.0
C1404 C 0.81868 0.22068 0.01538 0.0
C1405 C 0.82342 0.19744 -0.00011 0.0
C1406 C 0.79648 0.2442 0.01462 0.0
C1407 C 0.77855 0.24439 -0.00155 0.0
C1408 C 0.78232 0.21905 0.98373 0.0
C1409 C 0.8048 0.19618 0.98431 0.0
C1410 C 0.72747 0.30823 0.97581 0.0
C1411 C 0.71207 0.31873 -0.00791 0.0
C1412 C 0.7497 0.28518 0.978 0.0
C1413 C 0.7566 0.27151 -0.00353 0.0
C1414 C 0.74199 0.28346 0.01286 0.0
C1415 C 0.7201 0.30706 0.0107 0.0
H1416 H 0.46421 0.20557 0.21837 0.0
H1417 H 0.43391 0.25764 0.27019 0.0
H1418 H 0.50557 0.24284 0.21932 0.0
H1419 H 0.47463 0.2946 0.27091 0.0
H1420 H 0.56713 0.31974 0.27848 0.0
H1421 H 0.52472 0.28548 0.27701 0.0
H1422 H 0.51739 0.30824 0.21555 0.0
H1423 H 0.56 0.34248 0.2169 0.0
C1424 C 0.4664 0.22475 0.22995 0.0
C1425 C 0.44583 0.2286 0.24419 0.0
C1426 C 0.48987 0.24625 0.23039 0.0
C1427 C 0.49315 0.27159 0.24518 0.0
C1428 C 0.4727 0.27512 0.25945 0.0
C1429 C 0.44933 0.25395 0.25895 0.0
C1430 C 0.55626 0.31796 0.26471 0.0
C1431 C 0.56694 0.33377 0.24781 0.0
C1432 C 0.53202 0.2983 0.26387 0.0
C1433 C 0.51805 0.29392 0.24611 0.0
C1434 C 0.52808 0.31079 0.22935 0.0
C1435 C 0.55224 0.33075 0.23021 0.0
H1436 H 0.71515 0.94158 0.21448 0.0
H1437 H 0.71054 0.97738 0.27416 0.0
H1438 H 0.7518 0.98371 0.20808 0.0
H1439 H 0.74816 0.01839 0.26804 0.0
H1440 H 0.79089 0.11544 0.2484 0.0
H1441 H 0.75371 0.07255 0.25153 0.0
H1442 H 0.79787 1.00136 0.21343 0.0
H1443 H 0.83417 0.04527 0.20952 0.0
C1444 C 0.72255 0.95769 0.22642 0.0
C1445 C 0.70979 0.95636 0.24481 0.0
C1446 C 0.74355 0.98198 0.22271 0.0
C1447 C 0.7525 1.00511 0.2374 0.0
C1448 C 0.7411 1.00187 0.25618 0.0
C1449 C 0.71983 0.97797 0.2598 0.0
C1450 C 0.79203 0.09111 0.24016 0.0
C1451 C 0.81509 0.08375 0.22855 0.0
C1452 C 0.77107 0.06622 0.24225 0.0
C1453 C 0.77314 0.03306 0.23316 0.0
C1454 C 0.7955 0.02662 0.22058 0.0
C1455 C 0.81621 0.05189 0.21818 0.0
H1456 H 0.21456 0.80076 0.95643 0.0
H1457 H 0.21234 0.81726 0.01873 0.0
H1458 H 0.25245 0.75918 0.9606 0.0
H1459 H 0.24886 0.77439 0.02301 0.0
H1460 H 0.32995 0.71319 0.02242 0.0
H1461 H 0.29489 0.75871 0.01928 0.0
H1462 H 0.25766 0.70097 0.97167 0.0
H1463 H 0.29397 0.65666 0.97413 0.0
C1464 C 0.22242 0.79586 0.97097 0.0
C1465 C 0.21037 0.81213 0.98723 0.0
C1466 C 0.24382 0.7716 0.97342 0.0
C1467 C 0.25323 0.76266 -0.0078 0.0
C1468 C 0.24228 0.78063 0.00833 0.0
C1469 C 0.22129 0.80535 0.00585 0.0
C1470 C 0.3138 0.70981 0.01165 0.0
C1471 C 0.31442 0.68136 -0.0014 0.0
C1472 C 0.29377 0.73603 0.00975 0.0
C1473 C 0.27366 0.73389 -0.005 0.0
C1474 C 0.27333 0.70409 0.98279 0.0
C1475 C 0.29374 0.67831 0.98442 0.0
H1476 H 0.5773 0.77934 0.76881 0.0
H1477 H 0.55249 0.85164 0.72321 0.0
H1478 H 0.53402 0.74751 0.76512 0.0
H1479 H 0.50885 0.8197 0.71978 0.0
H1480 H 0.42347 0.77259 0.74151 0.0
H1481 H 0.46625 0.80642 0.74221 0.0
H1482 H 0.51314 0.71012 0.73636 0.0
H1483 H 0.47012 0.67602 0.73543 0.0
C1484 C 0.56242 0.78886 0.75824 0.0
C1485 C 0.56827 0.81807 0.7463 0.0
C1486 C 0.53785 0.77031 0.75598 0.0
C1487 C 0.51849 0.78092 0.74197 0.0
C1488 C 0.52366 0.811 0.73061 0.0
C1489 C 0.5485 0.82929 0.73264 0.0
C1490 C 0.44293 0.75867 0.74016 0.0
C1491 C 0.44366 0.72171 0.73861 0.0
C1492 C 0.4673 0.77805 0.74046 0.0
C1493 C 0.4928 0.76073 0.73952 0.0
C1494 C 0.49358 0.72389 0.73728 0.0
C1495 C 0.46911 0.70448 0.73663 0.0
H1496 H 0.32049 0.05105 0.77676 0.0
H1497 H 0.30956 0.06867 0.71499 0.0
H1498 H 0.27668 0.01993 0.77803 0.0
H1499 H 0.26533 0.03749 0.71634 0.0
H1500 H 0.21163 0.93719 0.72341 0.0
H1501 H 0.25326 0.97322 0.72248 0.0
H1502 H 0.226 0.02928 0.77372 0.0
H1503 H 0.18441 0.99321 0.77482 0.0
C1504 C 0.30849 0.04872 0.7635 0.0
C1505 C 0.31849 0.06204 0.74574 0.0
C1506 C 0.28337 0.03102 0.76426 0.0
C1507 C 0.26783 0.02604 0.74725 0.0
C1508 C 0.27719 0.04063 0.72961 0.0
C1509 C 0.30229 0.05874 0.72887 0.0
C1510 C 0.21463 0.95691 0.73462 0.0
C1511 C 0.19473 0.96227 0.74922 0.0
C1512 C 0.23828 0.97783 0.73391 0.0
C1513 C 0.24259 1.00428 0.74788 0.0
C1514 C 0.22312 0.00904 0.76278 0.0
C1515 C 0.19937 0.98832 0.76342 0.0
H1516 H 0.58493 0.49926 0.46593 0.0
H1517 H 0.5528 0.4098 0.49782 0.0
H1518 H 0.54047 0.52893 0.46903 0.0
H1519 H 0.5084 0.43965 0.50089 0.0
H1520 H 0.4261 0.4917 0.48212 0.0
H1521 H 0.46989 0.46083 0.47888 0.0
H1522 H 0.51318 0.55423 0.49787 0.0
H1523 H 0.46913 0.58546 0.50111 0.0
C1524 C 0.56828 0.48569 0.47332 0.0
C1525 C 0.57233 0.45218 0.48164 0.0
C1526 C 0.54299 0.50288 0.47529 0.0
C1527 C 0.52125 0.48668 0.48539 0.0
C1528 C 0.5249 0.45264 0.49303 0.0
C1529 C 0.55028 0.43559 0.49125 0.0
C1530 C 0.44494 0.50568 0.48568 0.0
C1531 C 0.44429 0.54107 0.49176 0.0
C1532 C 0.46994 0.48792 0.4839 0.0
C1533 C 0.49479 0.50528 0.48799 0.0
C1534 C 0.49421 0.54047 0.49441 0.0
C1535 C 0.46909 0.55819 0.49642 0.0
H1536 H 0.82769 0.71764 0.45856 0.0
H1537 H 0.81281 0.69347 0.51922 0.0
H1538 H 0.78434 0.74966 0.45695 0.0
H1539 H 0.76889 0.72559 0.51751 0.0
H1540 H 0.71471 0.82605 0.5115 0.0
H1541 H 0.75653 0.79029 0.51298 0.0
H1542 H 0.73379 0.73958 0.45899 0.0
H1543 H 0.69214 0.7754 0.45732 0.0
C1544 C 0.81493 0.71881 0.47151 0.0
C1545 C 0.82365 0.70327 0.48907 0.0
C1546 C 0.79007 0.73702 0.47053 0.0
C1547 C 0.77343 0.74028 0.48713 0.0
C1548 C 0.7816 0.72374 0.50457 0.0
C1549 C 0.80649 0.70512 0.5055 0.0
C1550 C 0.71879 0.8076 0.49981 0.0
C1551 C 0.70013 0.80364 0.48426 0.0
C1552 C 0.74252 0.78681 0.50082 0.0
C1553 C 0.74813 0.76193 0.48623 0.0
C1554 C 0.72992 0.75862 0.47042 0.0
C1555 C 0.70612 0.77921 0.46946 0.0
H1556 H 0.80733 0.55703 0.71786 0.0
H1557 H 0.84242 0.49004 0.76261 0.0
H1558 H 0.76638 0.51905 0.71696 0.0
H1559 H 0.80215 0.45253 0.76143 0.0
H1560 H 0.7101 0.42926 0.77289 0.0
H1561 H 0.7535 0.46126 0.77143 0.0
H1562 H 0.752 0.45602 0.70856 0.0
H1563 H 0.70826 0.42405 0.70995 0.0
C1564 C 0.80637 0.53432 0.72742 0.0
C1565 C 0.82793 0.52695 0.7405 0.0
C1566 C 0.78311 0.51246 0.72679 0.0
C1567 C 0.78115 0.48303 0.73922 0.0
C1568 C 0.80296 0.47533 0.75191 0.0
C1569 C 0.82603 0.49698 0.75256 0.0
C1570 C 0.71924 0.43433 0.75876 0.0
C1571 C 0.70574 0.42422 0.74155 0.0
C1572 C 0.74408 0.45266 0.75792 0.0
C1573 C 0.75589 0.46136 0.73986 0.0
C1574 C 0.74306 0.45 0.72264 0.0
C1575 C 0.71825 0.43135 0.72348 0.0
H1576 H 0.30636 0.1922 0.46409 0.0
H1577 H 0.32274 0.21678 0.52432 0.0
H1578 H 0.26605 0.23055 0.46456 0.0
H1579 H 0.28365 0.25726 0.52463 0.0
H1580 H 0.19884 0.30941 0.52217 0.0
H1581 H 0.23662 0.26751 0.52384 0.0
H1582 H 0.25715 0.29057 0.4638 0.0
H1583 H 0.21801 0.33073 0.46185 0.0
C1584 C 0.30091 0.20545 0.47753 0.0
C1585 C 0.31729 0.20143 0.49421 0.0
C1586 C 0.27819 0.22799 0.47774 0.0
C1587 C 0.27194 0.24788 0.49447 0.0
C1588 C 0.28762 0.2423 0.5115 0.0
C1589 C 0.30996 0.21897 0.51141 0.0
C1590 C 0.21175 0.30597 0.50943 0.0
C1591 C 0.20551 0.32329 0.49185 0.0
C1592 C 0.23344 0.28183 0.51037 0.0
C1593 C 0.24976 0.27503 0.49387 0.0
C1594 C 0.24448 0.29412 0.47663 0.0
C1595 C 0.22235 0.31763 0.47556 0.0
H1596 H 0.20337 0.453 0.21265 0.0
H1597 H 0.2172 0.445 0.27467 0.0
H1598 H 0.23941 0.49709 0.2102 0.0
H1599 H 0.25472 0.48747 0.27212 0.0
H1600 H 0.30086 0.58773 0.26809 0.0
H1601 H 0.26166 0.54754 0.26802 0.0
H1602 H 0.28592 0.5101 0.21097 0.0
H1603 H 0.32379 0.5522 0.21067 0.0
C1604 C 0.21479 0.45983 0.22568 0.0
C1605 C 0.20752 0.44555 0.24387 0.0
C1606 C 0.23547 0.48527 0.22429 0.0
C1607 C 0.24978 0.49645 0.241 0.0
C1608 C 0.24355 0.48048 0.25902 0.0
C1609 C 0.22239 0.45564 0.26048 0.0
C1610 C 0.29707 0.57172 0.2553 0.0
C1611 C 0.31504 0.57314 0.23933 0.0
C1612 C 0.275 0.54815 0.25538 0.0
C1613 C 0.27099 0.52472 0.23973 0.0
C1614 C 0.28814 0.52776 0.22325 0.0
C1615 C 0.3098 0.55204 0.22298 0.0
H1616 H 0.084 0.98294 0.45423 0.0
H1617 H 0.06077 0.93014 0.5077 0.0
H1618 H 0.04221 0.01853 0.45595 0.0
H1619 H 0.01892 0.96566 0.50922 0.0
H1620 H 0.96449 0.06314 0.51722 0.0
H1621 H 1.00799 0.03041 0.51471 0.0
H1622 H 0.99134 0.00972 0.45394 0.0
H1623 H 0.94835 0.04241 0.45633 0.0
C1624 C 0.06981 0.97852 0.46617 0.0
C1625 C 0.07574 0.95376 0.48085 0.0
C1626 C 0.04596 0.99899 0.46717 0.0
C1627 C 0.02768 0.99516 0.48289 0.0
C1628 C 0.03305 0.96959 0.49718 0.0
C1629 C 0.05681 0.94895 0.49614 0.0
C1630 C 0.97044 0.0521 0.50329 0.0
C1631 C 0.95304 0.05503 0.48702 0.0
C1632 C 0.99509 0.03313 0.5019 0.0
C1633 C 1.00275 0.0173 0.48418 0.0
C1634 C 0.98595 0.02174 0.46774 0.0
C1635 C 0.96131 0.04033 0.46916 0.0
H1636 H 0.05499 0.33295 0.72002 0.0
H1637 H 0.07061 0.29334 0.77813 0.0
H1638 H 1.01101 0.30153 0.71944 0.0
H1639 H 0.02671 0.26206 0.77745 0.0
H1640 H 0.93332 0.24161 0.77478 0.0
H1641 H 0.9756 0.27603 0.7757 0.0
H1642 H 0.99862 0.23524 0.71928 0.0
H1643 H 0.95601 0.20058 0.71822 0.0
C1644 C 0.04883 0.31809 0.73278 0.0
C1645 C 0.06625 0.3155 0.74911 0.0
C1646 C 0.02385 0.29984 0.73234 0.0
C1647 C 0.01578 0.27916 0.74831 0.0
C1648 C 0.03254 0.27791 0.76497 0.0
C1649 C 0.05762 0.2958 0.76534 0.0
C1650 C 0.94739 0.23983 0.76256 0.0
C1651 C 0.94138 0.21838 0.7464 0.0
C1652 C 0.97159 0.2595 0.76315 0.0
C1653 C 0.99016 0.25835 0.74753 0.0
C1654 C 0.98436 0.23679 0.73139 0.0
C1655 C 0.96019 0.21675 0.73088 0.0
H1656 H 0.96208 0.70161 0.2176 0.0
H1657 H 0.9388 0.73996 0.27461 0.0
H1658 H 1.00409 0.73768 0.21904 0.0
H1659 H 0.97998 0.77596 0.27581 0.0
H1660 H 0.07171 0.80401 0.2794 0.0
H1661 H 0.03018 0.76815 0.2781 0.0
H1662 H 0.01512 0.80296 0.21909 0.0
H1663 H 0.05693 0.83863 0.22019 0.0
C1664 C 0.96604 0.71741 0.23044 0.0
C1665 C 0.94715 0.71811 0.24592 0.0
C1666 C 0.98983 0.73827 0.23119 0.0
C1667 C 0.99508 0.75972 0.2475 0.0
C1668 C 0.97654 0.75954 0.26313 0.0
C1669 C 0.95287 0.739 0.26235 0.0
C1670 C 0.05934 0.80453 0.26625 0.0
C1671 C 0.06767 0.82412 0.24989 0.0
C1672 C 0.03562 0.78388 0.26549 0.0
C1673 C 0.01974 0.78244 0.24838 0.0
C1674 C 0.02736 0.8031 0.2323 0.0
C1675 C 0.05107 0.82389 0.23307 0.0
H1676 H 0.95387 0.54206 0.02951 0.0
H1677 H 0.97622 0.57006 0.97067 0.0
H1678 H 0.9911 0.49857 0.03034 0.0
H1679 H 0.01431 0.5282 0.9717 0.0
H1680 H 0.0532 0.42291 0.96717 0.0
H1681 H 0.01605 0.46579 0.97006 0.0
H1682 H 0.03916 0.48516 0.02998 0.0
H1683 H 0.07542 0.44101 0.02732 0.0
C1684 C 0.96759 0.53994 0.0171 0.0
C1685 C 0.9624 0.55919 3e-05 0.0
C1686 C 0.98874 0.51488 0.01749 0.0
C1687 C 1.00514 0.50918 0.00087 0.0
C1688 C 1.0014 0.53099 0.98449 0.0
C1689 C 0.97999 0.55543 0.98399 0.0
C1690 C 0.04985 0.4357 0.98108 0.0
C1691 C 0.06724 0.42878 -0.00303 0.0
C1692 C 0.02888 0.46068 0.98268 0.0
C1693 C 0.02523 0.47973 9e-05 0.0
C1694 C 0.04145 0.47106 0.01637 0.0
C1695 C 0.06215 0.4456 0.01486 0.0
H1696 H 0.39582 0.12751 0.16714 0.0
H1697 H 0.31098 0.16266 0.1645 0.0
H1698 H 0.39475 0.11523 0.13231 0.0
H1699 H 0.31009 0.15058 0.12959 0.0
H1700 H 0.31329 0.09119 0.07047 0.0
H1701 H 0.3127 0.10024 0.10579 0.0
H1702 H 0.39198 0.15182 0.10241 0.0
H1703 H 0.39278 0.14273 0.06741 0.0
C1704 C 0.37693 0.13256 0.15917 0.0
C1705 C 0.35355 0.14629 0.16861 0.0
C1706 C 0.37636 0.12564 0.1392 0.0
C1707 C 0.35237 0.13211 0.12823 0.0
C1708 C 0.32879 0.14509 0.13771 0.0
C1709 C 0.3294 0.15223 0.15768 0.0
C1710 C 0.33057 0.10447 0.07728 0.0
C1711 C 0.35308 0.11618 0.06609 0.0
C1712 C 0.33017 0.10975 0.09747 0.0
C1713 C 0.35238 0.12653 0.10685 0.0
C1714 C 0.37477 0.13832 0.09564 0.0
C1715 C 0.37509 0.1333 0.07553 0.0
H1716 H 0.94587 0.05688 0.16366 0.0
H1717 H 0.93451 0.16953 0.16831 0.0
H1718 H 0.95157 0.06294 0.12827 0.0
H1719 H 0.94037 0.17554 0.13324 0.0
H1720 H 0.96766 0.17799 0.0702 0.0
H1721 H 0.97366 0.16769 0.10517 0.0
H1722 H 0.91653 0.08055 0.10228 0.0
H1723 H 0.9104 0.09079 0.06749 0.0
C1724 C 0.94523 0.08294 0.1572 0.0
C1725 C 0.93952 0.11268 0.1687 0.0
C1726 C 0.94832 0.08639 0.13697 0.0
C1727 C 0.9463 0.11971 0.128 0.0
C1728 C 0.94227 0.14958 0.13971 0.0
C1729 C 0.93873 0.14608 0.1598 0.0
C1730 C 0.95664 0.15639 0.07699 0.0
C1731 C 0.93832 0.13547 0.0661 0.0
C1732 C 0.96006 0.15053 0.097 0.0
C1733 C 0.94558 0.1233 0.10645 0.0
C1734 C 0.9282 0.10147 0.09538 0.0
C1735 C 0.92449 0.1076 0.07547 0.0
H1736 H 0.67029 0.81372 0.82254 0.0
H1737 H 0.70105 0.91936 0.81295 0.0
H1738 H 0.67343 0.82261 0.8576 0.0
H1739 H 0.70419 0.92811 0.84817 0.0
H1740 H 0.66421 0.94026 0.91022 0.0
H1741 H 0.6684 0.93276 0.87505 0.0
H1742 H 0.70887 0.83253 0.88395 0.0
H1743 H 0.70468 0.8398 0.91912 0.0
C1744 C 0.67792 0.83873 0.82791 0.0
C1745 C 0.68528 0.86591 0.81497 0.0
C1746 C 0.67989 0.84371 0.84798 0.0
C1747 C 0.68902 0.87605 0.85555 0.0
C1748 C 0.69691 0.90301 0.84267 0.0
C1749 C 0.69523 0.89791 0.82254 0.0
C1750 C 0.67421 0.91675 0.9047 0.0
C1751 C 0.6839 0.89049 0.91747 0.0
C1752 C 0.67678 0.91261 0.88457 0.0
C1753 C 0.68886 0.88201 0.87683 0.0
C1754 C 0.69924 0.85622 0.88957 0.0
C1755 C 0.69691 0.86048 0.9097 0.0
H1756 H 0.11472 0.81673 0.90756 0.0
H1757 H 0.0715 0.91439 0.91901 0.0
H1758 H 0.10871 0.82605 0.87266 0.0
H1759 H 0.06534 0.92338 0.88412 0.0
H1760 H 0.07221 0.83964 0.81182 0.0
H1761 H 0.07216 0.8292 0.84694 0.0
H1762 H 0.09713 0.93706 0.85672 0.0
H1763 H 0.097 0.94771 0.82174 0.0
C1764 C 0.10377 0.84003 0.90266 0.0
C1765 C 0.09377 0.86494 0.91607 0.0
C1766 C 0.10016 0.84521 0.88267 0.0
C1767 C 0.08662 0.87547 0.87571 0.0
C1768 C 0.07611 0.9 0.8891 0.0
C1769 C 0.07957 0.89474 0.90908 0.0
C1770 C 0.07743 0.86123 0.82147 0.0
C1771 C 0.08474 0.89447 0.81398 0.0
C1772 C 0.07753 0.85516 0.84155 0.0
C1773 C 0.08472 0.88229 0.85451 0.0
C1774 C 0.09125 0.91576 0.84706 0.0
C1775 C 0.09133 0.92177 0.82702 0.0
H1776 H 0.38908 0.61588 0.66864 0.0
H1777 H 0.30875 0.66516 0.66464 0.0
H1778 H 0.38836 0.60495 0.63369 0.0
H1779 H 0.30829 0.65456 0.6296 0.0
H1780 H 0.30665 0.59708 0.57045 0.0
H1781 H 0.30612 0.60582 0.60568 0.0
H1782 H 0.39098 0.64045 0.60372 0.0
H1783 H 0.39171 0.63138 0.56864 0.0
C1784 C 0.37124 0.62434 0.66034 0.0
C1785 C 0.34901 0.64152 0.66947 0.0
C1786 C 0.37092 0.61825 0.64028 0.0
C1787 C 0.34834 0.62907 0.62889 0.0
C1788 C 0.32588 0.64565 0.63803 0.0
C1789 C 0.32623 0.65188 0.6581 0.0
C1790 C 0.3252 0.60656 0.57753 0.0
C1791 C 0.34924 0.61347 0.5667 0.0
C1792 C 0.32484 0.61171 0.5977 0.0
C1793 C 0.34854 0.6237 0.60747 0.0
C1794 C 0.37251 0.6307 0.59665 0.0
C1795 C 0.37286 0.6257 0.5765 0.0
H1796 H 0.94773 0.69076 0.5745 0.0
H1797 H 0.90434 0.59291 0.56458 0.0
H1798 H 0.94908 0.67791 0.60955 0.0
H1799 H 0.90652 0.57973 0.5995 0.0
H1800 H 0.94891 0.55901 0.66129 0.0
H1801 H 0.95068 0.5717 0.62621 0.0
H1802 H 0.90459 0.66756 0.63548 0.0
H1803 H 0.90198 0.65449 0.67037 0.0
C1804 C 0.93875 0.6664 0.57977 0.0
C1805 C 0.92582 0.64291 0.56683 0.0
C1806 C 0.93949 0.65913 0.59978 0.0
C1807 C 0.92799 0.62782 0.60709 0.0
C1808 C 0.91566 0.60394 0.59414 0.0
C1809 C 0.91429 0.61161 0.57422 0.0
C1810 C 0.93926 0.58283 0.65583 0.0
C1811 C 0.92521 0.60569 0.66853 0.0
C1812 C 0.94022 0.59 0.63581 0.0
C1813 C 0.92783 0.62062 0.62828 0.0
C1814 C 0.9144 0.64389 0.64101 0.0
C1815 C 0.91282 0.6363 0.66091 0.0
H1816 H 0.70999 0.42596 0.31332 0.0
H1817 H 0.66943 0.32601 0.32329 0.0
H1818 H 0.7154 0.43362 0.34846 0.0
H1819 H 0.67479 0.33383 0.3583 0.0
H1820 H 0.67766 0.45288 0.41043 0.0
H1821 H 0.68115 0.44426 0.37536 0.0
H1822 H 0.71063 0.33809 0.38474 0.0
H1823 H 0.70708 0.34654 0.41994 0.0
C1824 C 0.7025 0.40547 0.32297 0.0
C1825 C 0.68907 0.37551 0.31552 0.0
C1826 C 0.70552 0.40994 0.34307 0.0
C1827 C 0.69545 0.38436 0.35607 0.0
C1828 C 0.68298 0.35381 0.3486 0.0
C1829 C 0.67973 0.34949 0.32855 0.0
C1830 C 0.68513 0.42778 0.40505 0.0
C1831 C 0.69187 0.40029 0.41797 0.0
C1832 C 0.68733 0.42297 0.38496 0.0
C1833 C 0.6961 0.39049 0.37736 0.0
C1834 C 0.70361 0.36331 0.39025 0.0
C1835 C 0.70167 0.36822 0.41038 0.0
H1836 H 0.07194 0.42497 0.4195 0.0
H1837 H 0.10988 0.32333 0.40953 0.0
H1838 H 0.06766 0.43363 0.38433 0.0
H1839 H 0.10544 0.33206 0.37445 0.0
H1840 H 0.1071 0.4503 0.32217 0.0
H1841 H 0.10356 0.44202 0.35734 0.0
H1842 H 0.0681 0.3389 0.34831 0.0
H1843 H 0.07148 0.34709 0.31308 0.0
C1844 C 0.07911 0.40435 0.40983 0.0
C1845 C 0.0914 0.37354 0.41728 0.0
C1846 C 0.07673 0.40939 0.38973 0.0
C1847 C 0.08622 0.38351 0.37674 0.0
C1848 C 0.09772 0.35228 0.38418 0.0
C1849 C 0.10044 0.34742 0.40425 0.0
C1850 C 0.09826 0.42602 0.32766 0.0
C1851 C 0.08974 0.39925 0.31485 0.0
C1852 C 0.09609 0.4214 0.34779 0.0
C1853 C 0.08567 0.38978 0.35548 0.0
C1854 C 0.0764 0.36342 0.3427 0.0
C1855 C 0.07822 0.36821 0.32256 0.0
H1856 H 0.80993 0.09167 0.57002 0.0
H1857 H 0.89203 0.13616 0.56828 0.0
H1858 H 0.80768 0.10344 0.60501 0.0
H1859 H 0.88955 0.14823 0.603 0.0
H1860 H 0.88893 0.12667 0.66807 0.0
H1861 H 0.8893 0.11466 0.63334 0.0
H1862 H 0.8057 0.1533 0.62857 0.0
H1863 H 0.8051 0.16502 0.66363 0.0
C1864 C 0.82747 0.10398 0.57706 0.0
C1865 C 0.85122 0.11278 0.56632 0.0
C1866 C 0.82608 0.11093 0.59708 0.0
C1867 C 0.84847 0.12665 0.6068 0.0
C1868 C 0.8721 0.13562 0.59602 0.0
C1869 C 0.87346 0.12881 0.57606 0.0
C1870 C 0.87056 0.13267 0.6597 0.0
C1871 C 0.847 0.14698 0.66869 0.0
C1872 C 0.87085 0.12591 0.63972 0.0
C1873 C 0.8476 0.13321 0.62815 0.0
C1874 C 0.82388 0.14715 0.63712 0.0
C1875 C 0.8236 0.15405 0.65718 0.0
H1876 H 0.40641 0.09389 0.56379 0.0
H1877 H 0.44198 0.19703 0.57299 0.0
H1878 H 0.40888 0.08224 0.5988 0.0
H1879 H 0.44384 0.18549 0.60811 0.0
H1880 H 0.40035 0.16248 0.66888 0.0
H1881 H 0.40307 0.17404 0.63388 0.0
H1882 H 0.44888 0.07752 0.6259 0.0
H1883 H 0.44675 0.06616 0.66105 0.0
C1884 C 0.41481 0.11402 0.57329 0.0
C1885 C 0.42393 0.14642 0.56568 0.0
C1886 C 0.41635 0.10724 0.59327 0.0
C1887 C 0.42652 0.133 0.60605 0.0
C1888 C 0.43585 0.16528 0.59849 0.0
C1889 C 0.43487 0.1718 0.57844 0.0
C1890 C 0.4111 0.14378 0.65968 0.0
C1891 C 0.42327 0.11336 0.66767 0.0
C1892 C 0.41279 0.15054 0.63971 0.0
C1893 C 0.42621 0.12667 0.6273 0.0
C1894 C 0.4384 0.09625 0.63523 0.0
C1895 C 0.43723 0.08985 0.65529 0.0
H1896 H 0.17089 0.81854 0.32285 0.0
H1897 H 0.21068 0.91899 0.31282 0.0
H1898 H 0.17665 0.82622 0.35783 0.0
H1899 H 0.21666 0.92638 0.34788 0.0
H1900 H 0.18012 0.94683 0.40952 0.0
H1901 H 0.18336 0.93737 0.37458 0.0
H1902 H 0.21133 0.8307 0.38462 0.0
H1903 H 0.20788 0.84001 0.4198 0.0
C1904 C 0.18115 0.84208 0.32808 0.0
C1905 C 0.19004 0.86835 0.31503 0.0
C1906 C 0.18465 0.84631 0.34813 0.0
C1907 C 0.19699 0.87696 0.35558 0.0
C1908 C 0.20679 0.90265 0.34253 0.0
C1909 C 0.20344 0.89835 0.32246 0.0
C1910 C 0.18718 0.92141 0.40433 0.0
C1911 C 0.19352 0.89407 0.41745 0.0
C1912 C 0.18926 0.91611 0.38429 0.0
C1913 C 0.19758 0.8833 0.37688 0.0
C1914 C 0.20465 0.85619 0.38996 0.0
C1915 C 0.20279 0.86158 0.41008 0.0
H1916 H 0.57471 0.92282 0.42031 0.0
H1917 H 0.60099 0.81543 0.40998 0.0
H1918 H 0.57336 0.93329 0.38521 0.0
H1919 H 0.59974 0.82609 0.37498 0.0
H1920 H 0.57156 0.84923 0.31288 0.0
H1921 H 0.5666 0.83953 0.34787 0.0
H1922 H 0.60966 0.93707 0.35919 0.0
H1923 H 0.61455 0.94699 0.32429 0.0
C1924 C 0.57997 0.90138 0.41058 0.0
C1925 C 0.58811 0.86835 0.41794 0.0
C1926 C 0.57932 0.90745 0.3905 0.0
C1927 C 0.58652 0.88053 0.37741 0.0
C1928 C 0.59384 0.84722 0.38474 0.0
C1929 C 0.59473 0.84122 0.4048 0.0
C1930 C 0.57979 0.86876 0.32282 0.0
C1931 C 0.59359 0.8988 0.3158 0.0
C1932 C 0.57703 0.8631 0.34284 0.0
C1933 C 0.58778 0.88753 0.35621 0.0
C1934 C 0.60093 0.91798 0.3492 0.0
C1935 C 0.6039 0.92351 0.32921 0.0
H1936 H 0.86699 0.66634 0.0661 0.0
H1937 H 0.83765 0.55989 0.0747 0.0
H1938 H 0.86347 0.67722 0.10107 0.0
H1939 H 0.83478 0.5707 0.10993 0.0
H1940 H 0.87642 0.59889 0.17133 0.0
H1941 H 0.8744 0.58628 0.13638 0.0
H1942 H 0.82304 0.67793 0.12761 0.0
H1943 H 0.82448 0.69025 0.16261 0.0
C1944 C 0.8597 0.6453 0.07547 0.0
C1945 C 0.85264 0.61223 0.06769 0.0
C1946 C 0.85758 0.65162 0.09545 0.0
C1947 C 0.8489 0.62478 0.10812 0.0
C1948 C 0.8416 0.59176 0.1004 0.0
C1949 C 0.84312 0.58566 0.0803 0.0
C1950 C 0.86461 0.61627 0.16196 0.0
C1951 C 0.8507 0.64566 0.16969 0.0
C1952 C 0.86329 0.60887 0.14202 0.0
C1953 C 0.84853 0.63111 0.12939 0.0
C1954 C 0.83457 0.66042 0.13709 0.0
C1955 C 0.83538 0.66741 0.15708 0.0
H1956 H 0.40375 0.67118 0.16871 0.0
H1957 H 0.45195 0.57548 0.16458 0.0
H1958 H 0.409 0.6805 0.13373 0.0
H1959 H 0.45705 0.5849 0.12954 0.0
H1960 H 0.41763 0.58993 0.06703 0.0
H1961 H 0.42166 0.58305 0.10218 0.0
H1962 H 0.44564 0.69229 0.10741 0.0
H1963 H 0.44179 0.69924 0.07196 0.0
C1964 C 0.41562 0.65226 0.16037 0.0
C1965 C 0.42722 0.6224 0.1694 0.0
C1966 C 0.41882 0.6578 0.14038 0.0
C1967 C 0.43341 0.63341 0.12896 0.0
C1968 C 0.44558 0.60401 0.13802 0.0
C1969 C 0.44268 0.59867 0.15807 0.0
C1970 C 0.42408 0.61242 0.07562 0.0
C1971 C 0.42922 0.64521 0.06677 0.0
C1972 C 0.42657 0.60838 0.09574 0.0
C1973 C 0.43391 0.63715 0.10749 0.0
C1974 C 0.43981 0.66975 0.09864 0.0
C1975 C 0.43774 0.67367 0.0784 0.0
H1976 H 0.13596 0.41283 0.91124 0.0
H1977 H 0.21761 0.36822 0.91772 0.0
H1978 H 0.13928 0.40588 0.87596 0.0
H1979 H 0.22096 0.36193 0.88226 0.0
H1980 H 0.21809 0.39529 0.81458 0.0
H1981 H 0.21852 0.40571 0.84992 0.0
H1982 H 0.14372 0.34498 0.85584 0.0
H1983 H 0.14343 0.33392 0.82091 0.0
C1984 C 0.15475 0.40199 0.90513 0.0
C1985 C 0.17645 0.39082 0.91725 0.0
C1986 C 0.15658 0.39796 0.88498 0.0
C1987 C 0.18033 0.38332 0.87654 0.0
C1988 C 0.20251 0.37343 0.88851 0.0
C1989 C 0.20049 0.37684 0.90874 0.0
C1990 C 0.20187 0.38403 0.82348 0.0
C1991 C 0.18076 0.36376 0.81499 0.0
C1992 C 0.20217 0.38993 0.84362 0.0
C1993 C 0.18103 0.37632 0.85542 0.0
C1994 C 0.16009 0.35596 0.84695 0.0
C1995 C 0.16007 0.34949 0.82699 0.0
H1996 H 0.57596 0.4143 0.91913 0.0
H1997 H 0.61562 0.31369 0.90932 0.0
H1998 H 0.5711 0.42244 0.88401 0.0
H1999 H 0.61052 0.32191 0.87417 0.0
H2000 H 0.5729 0.33653 0.813 0.0
H2001 H 0.57207 0.32768 0.8483 0.0
H2002 H 0.60642 0.43159 0.85665 0.0
H2003 H 0.6075 0.44047 0.82143 0.0
C2004 C 0.58341 0.39376 0.90951 0.0
C2005 C 0.59631 0.3634 0.91701 0.0
C2006 C 0.58071 0.39854 0.88942 0.0
C2007 C 0.59047 0.37284 0.87643 0.0
C2008 C 0.60263 0.34201 0.8839 0.0
C2009 C 0.60569 0.33743 0.904 0.0
C2010 C 0.57999 0.35764 0.82237 0.0
C2011 C 0.59036 0.38917 0.81443 0.0
C2012 C 0.57966 0.35245 0.84254 0.0
C2013 C 0.58924 0.37891 0.85514 0.0
C2014 C 0.59874 0.41086 0.84725 0.0
C2015 C 0.59947 0.41585 0.82709 0.0
H2016 H 0.13135 0.99061 0.95891 0.0
H2017 H 0.153 0.98076 0.01958 0.0
H2018 H 0.16304 0.04094 0.95584 0.0
H2019 H 0.18466 0.02976 0.01666 0.0
H2020 H 0.25697 0.07756 0.95477 0.0
H2021 H 0.2123 0.04764 0.95477 0.0
H2022 H 0.1957 0.08898 0.01224 0.0
H2023 H 0.24099 0.11704 0.01247 0.0
C2024 C 0.14205 1.00005 0.97174 0.0
C2025 C 0.13954 0.98187 0.98953 0.0
C2026 C 0.16058 0.02854 0.96995 0.0
C2027 C 0.1768 0.03956 0.98594 0.0
C2028 C 0.17247 0.02281 0.00401 0.0
C2029 C 0.15424 0.99445 0.00573 0.0
C2030 C 0.24321 0.08143 0.96703 0.0
C2031 C 0.25235 0.09988 0.98355 0.0
C2032 C 0.21754 0.06412 0.9671 0.0
C2033 C 0.20039 0.06505 0.9837 0.0
C2034 C 0.20852 0.0867 -0.00061 0.0
C2035 C 0.23432 0.10338 -0.00057 0.0
H2036 H 0.12962 0.26186 0.01853 0.0
H2037 H 0.14535 0.26429 0.95674 0.0
H2038 H 0.09736 0.21375 0.01414 0.0
H2039 H 0.11299 0.21512 0.95215 0.0
H2040 H 0.01812 0.18285 0.95365 0.0
H2041 H 0.06337 0.2111 0.95337 0.0
H2042 H 0.085 0.15547 0.00622 0.0
H2043 H 0.0392 0.12852 0.00672 0.0
C2044 C 0.12695 0.25107 0.00403 0.0
C2045 C 0.14012 0.26686 0.98801 0.0
C2046 C 0.10838 0.22326 0.00147 0.0
C2047 C 0.10216 0.21043 0.98272 0.0
C2048 C 0.11694 0.2245 0.96678 0.0
C2049 C 0.13584 0.25235 0.96941 0.0
C2050 C 0.03307 0.17543 0.96466 0.0
C2051 C 0.02531 0.15306 0.98003 0.0
C2052 C 0.05908 0.19177 0.96459 0.0
C2053 C 0.07791 0.1862 0.97998 0.0
C2054 C 0.07095 0.16108 -0.00567 0.0
C2055 C 0.04485 0.14507 -0.00552 0.0
H2056 H 0.24713 0.16132 0.27852 0.0
H2057 H 0.24208 0.17248 0.21611 0.0
H2058 H 0.20116 0.18799 0.28167 0.0
H2059 H 0.19704 0.19958 0.21907 0.0
H2060 H 0.11828 0.25307 0.22418 0.0
H2061 H 0.14978 0.20266 0.22635 0.0
H2062 H 0.1858 0.24728 0.27842 0.0
H2063 H 0.15369 0.29648 0.27645 0.0
C2064 C 0.23579 0.16822 0.26545 0.0
C2065 C 0.24828 0.1649 0.24707 0.0
C2066 C 0.20957 0.18401 0.26723 0.0
C2067 C 0.1953 0.19663 0.25065 0.0
C2068 C 0.20694 0.19012 0.23222 0.0
C2069 C 0.23299 0.17459 0.23049 0.0
C2070 C 0.13199 0.25099 0.2366 0.0
C2071 C 0.13324 0.27834 0.25032 0.0
C2072 C 0.15044 0.22243 0.23772 0.0
C2073 C 0.17091 0.22097 0.25237 0.0
C2074 C 0.17035 0.24695 0.26702 0.0
C2075 C 0.15183 0.27529 0.26595 0.0
H2076 H 1.00924 0.05413 0.27615 0.0
H2077 H 0.0317 0.12352 0.22906 0.0
H2078 H 0.05556 0.02864 0.27597 0.0
H2079 H 0.07832 0.09805 0.22872 0.0
H2080 H 0.14167 0.98852 0.27546 0.0
H2081 H 0.10615 0.03389 0.28023 0.0
H2082 H 0.09394 0.03949 0.21798 0.0
H2083 H 0.12909 0.99431 0.21339 0.0
C2084 C 0.02452 0.06488 0.26627 0.0
C2085 C 0.01704 0.09122 0.25287 0.0
C2086 C 0.05112 0.05026 0.26613 0.0
C2087 C 0.07082 0.06112 0.25229 0.0
C2088 C 0.0637 0.0889 0.23953 0.0
C2089 C 0.03711 0.1038 0.23984 0.0
C2090 C 0.13233 1.00075 0.26279 0.0
C2091 C 0.13845 0.98817 0.24403 0.0
C2092 C 0.11163 0.02635 0.26552 0.0
C2093 C 0.09685 0.04019 0.24951 0.0
C2094 C 0.10491 0.02984 0.23067 0.0
C2095 C 0.12522 1.00397 0.228 0.0
H2096 H 0.7831 0.89689 0.02417 0.0
H2097 H 0.7721 0.91923 0.96314 0.0
H2098 H 0.82863 0.92424 0.02327 0.0
H2099 H 0.81658 0.94923 0.96232 0.0
H2100 H 0.89598 0.00893 0.96405 0.0
H2101 H 0.8642 0.95848 0.96388 0.0
H2102 H 0.84223 0.98148 0.02363 0.0
H2103 H 0.87442 0.02975 0.02389 0.0
C2104 C 0.79083 0.9069 0.01042 0.0
C2105 C 0.77426 0.90566 -0.0063 0.0
C2106 C 0.81678 0.92323 0.00991 0.0
C2107 C 0.82629 0.9402 -0.00715 0.0
C2108 C 0.81039 0.93649 0.97574 0.0
C2109 C 0.78477 0.91922 0.97616 0.0
C2110 C 0.88507 1.00216 0.9773 0.0
C2111 C 0.88761 0.02351 -0.00606 0.0
C2112 C 0.86647 0.97354 0.97717 0.0
C2113 C 0.85006 0.96575 -0.00634 0.0
C2114 C 0.85444 0.98576 0.01065 0.0
C2115 C 0.87293 0.01394 0.01079 0.0
H2116 H 0.99424 0.85842 0.02163 0.0
H2117 H 1.008 0.82839 0.96196 0.0
H2118 H 0.94841 0.83179 0.02057 0.0
H2119 H 0.96327 0.79919 0.96109 0.0
H2120 H 0.88438 0.74 0.96236 0.0
H2121 H 0.91587 0.79068 0.96145 0.0
H2122 H 0.9332 0.77551 0.02276 0.0
H2123 H 0.90119 0.72697 0.02362 0.0
C2124 C 0.98706 0.84688 0.00811 0.0
C2125 C 1.00447 0.84582 -0.00818 0.0
C2126 C 0.96094 0.83095 0.00753 0.0
C2127 C 0.95203 0.81216 0.9909 0.0
C2128 C 0.96889 0.81343 0.97415 0.0
C2129 C 0.99469 0.83022 0.97461 0.0
C2130 C 0.89405 0.74871 0.97575 0.0
C2131 C 0.89033 0.72946 -0.00695 0.0
C2132 C 0.91257 0.7774 0.97521 0.0
C2133 C 0.92781 0.78725 -0.00805 0.0
C2134 C 0.92199 0.76958 0.00953 0.0
C2135 C 0.90354 0.74134 0.01005 0.0
H2136 H 0.86594 0.70562 0.71122 0.0
H2137 H 0.89616 0.7364 0.76782 0.0
H2138 H 0.83559 0.75595 0.7105 0.0
H2139 H 0.86592 0.78858 0.76695 0.0
H2140 H 0.77463 0.83403 0.76926 0.0
H2141 H 0.8179 0.80097 0.77019 0.0
H2142 H 0.8267 0.81537 0.708 0.0
H2143 H 0.7825 0.84612 0.70712 0.0
C2144 C 0.86665 0.72389 0.72335 0.0
C2145 C 0.88338 0.71681 0.73962 0.0
C2146 C 0.84927 0.75321 0.72288 0.0
C2147 C 0.84797 0.77677 0.73869 0.0
C2148 C 0.86602 0.77092 0.75458 0.0
C2149 C 0.88365 0.74127 0.755 0.0
C2150 C 0.78642 0.83121 0.75594 0.0
C2151 C 0.77528 0.84274 0.73812 0.0
C2152 C 0.81129 0.81211 0.75643 0.0
C2153 C 0.82571 0.80446 0.73909 0.0
C2154 C 0.81587 0.81954 0.7216 0.0
C2155 C 0.79072 0.83778 0.72107 0.0
H2156 H 0.89841 0.0452 0.71054 0.0
H2157 H 0.87217 0.01413 0.76807 0.0
H2158 H 0.92972 0.99595 0.70919 0.0
H2159 H 0.90322 0.96284 0.76654 0.0
H2160 H 0.99492 0.92022 0.76738 0.0
H2161 H 0.95094 0.95152 0.76887 0.0
H2162 H 0.94113 0.93783 0.70669 0.0
H2163 H 0.98611 0.90916 0.70524 0.0
C2164 C 0.89871 0.02697 0.72273 0.0
C2165 C 0.88289 0.03377 0.73945 0.0
C2166 C 0.91667 0.99826 0.72191 0.0
C2167 C 0.91944 0.97498 0.73779 0.0
C2168 C 0.90209 0.98034 0.7541 0.0
C2169 C 0.88394 0.00945 0.75491 0.0
C2170 C 0.98283 0.9229 0.75417 0.0
C2171 C 0.99391 0.91228 0.73619 0.0
C2172 C 0.95751 0.94096 0.75498 0.0
C2173 C 0.9425 0.94833 0.73782 0.0
C2174 C 0.95237 0.93402 0.72016 0.0
C2175 C 0.978 0.91695 0.71931 0.0
H2176 H 0.234 0.62466 0.51197 0.0
H2177 H 0.25139 0.57964 0.45574 0.0
H2178 H 0.18822 0.59785 0.51162 0.0
H2179 H 0.20621 0.55112 0.45564 0.0
H2180 H 0.14485 0.4901 0.52085 0.0
H2181 H 0.17655 0.53897 0.51736 0.0
H2182 H 0.15682 0.54575 0.45603 0.0
H2183 H 0.12506 0.49565 0.4597 0.0
C2184 C 0.22753 0.61015 0.49917 0.0
C2185 C 0.24608 0.60467 0.48377 0.0
C2186 C 0.20144 0.59419 0.49907 0.0
C2187 C 0.19355 0.57139 0.48383 0.0
C2188 C 0.21126 0.56855 0.4676 0.0
C2189 C 0.23722 0.58506 0.46758 0.0
C2190 C 0.14647 0.50286 0.50676 0.0
C2191 C 0.13233 0.48911 0.4906 0.0
C2192 C 0.16473 0.53112 0.5047 0.0
C2193 C 0.16965 0.5465 0.48634 0.0
C2194 C 0.15389 0.5344 0.47036 0.0
C2195 C 0.13533 0.50605 0.47249 0.0
H2196 H 0.15142 0.77006 0.46075 0.0
H2197 H 0.13225 0.7825 0.52162 0.0
H2198 H 0.11849 0.72095 0.45872 0.0
H2199 H 0.09916 0.73495 0.51973 0.0
H2200 H 0.02465 0.68707 0.45809 0.0
H2201 H 0.06985 0.7156 0.45789 0.0
H2202 H 0.08473 0.67746 0.51637 0.0
H2203 H 0.03883 0.65105 0.51676 0.0
C2204 C 0.14105 0.76131 0.47387 0.0
C2205 C 0.14469 0.77984 0.49141 0.0
C2206 C 0.12173 0.73359 0.47267 0.0
C2207 C 0.10563 0.72387 0.48899 0.0
C2208 C 0.11114 0.74084 0.50683 0.0
C2209 C 0.13028 0.76832 0.50799 0.0
C2210 C 0.03808 0.68378 0.4706 0.0
C2211 C 0.02833 0.66662 0.48738 0.0
C2212 C 0.06409 0.70022 0.47055 0.0
C2213 C 0.08107 0.69967 0.48728 0.0
C2214 C 0.07214 0.67952 0.50338 0.0
C2215 C 0.04595 0.66378 0.50355 0.0
H2216 H 0.23553 0.6474 0.72036 0.0
H2217 H 0.24904 0.68662 0.77844 0.0
H2218 H 0.19001 0.67492 0.71976 0.0
H2219 H 0.20402 0.71583 0.77767 0.0
H2220 H 0.14732 0.78349 0.71219 0.0
H2221 H 0.17936 0.73482 0.7155 0.0
H2222 H 0.15428 0.72085 0.77545 0.0
H2223 H 0.12209 0.77067 0.77197 0.0
C2224 C 0.22826 0.66086 0.7333 0.0
C2225 C 0.24567 0.66452 0.74952 0.0
C2226 C 0.20231 0.67717 0.73288 0.0
C2227 C 0.19341 0.69851 0.74846 0.0
C2228 C 0.20992 0.69956 0.7654 0.0
C2229 C 0.23577 0.68267 0.76592 0.0
C2230 C 0.14788 0.7692 0.72588 0.0
C2231 C 0.13201 0.78073 0.74175 0.0
C2232 C 0.16632 0.74108 0.72782 0.0
C2233 C 0.16973 0.72368 0.74581 0.0
C2234 C 0.15246 0.73375 0.76142 0.0
C2235 C 0.13369 0.76194 0.75938 0.0
H2236 H 0.13216 0.48495 0.71266 0.0
H2237 H 0.14753 0.48687 0.77446 0.0
H2238 H 0.09908 0.53241 0.71596 0.0
H2239 H 0.1146 0.53564 0.77798 0.0
H2240 H 0.01978 0.56449 0.7772 0.0
H2241 H 0.06578 0.53834 0.77734 0.0
H2242 H 0.08335 0.5891 0.72229 0.0
H2243 H 0.03668 0.61358 0.7219 0.0
C2244 C 0.12945 0.49688 0.72687 0.0
C2245 C 0.14267 0.48235 0.74325 0.0
C2246 C 0.1103 0.52425 0.72884 0.0
C2247 C 0.10359 0.53793 0.74733 0.0
C2248 C 0.11876 0.5255 0.76354 0.0
C2249 C 0.1381 0.49797 0.76152 0.0
C2250 C 0.03395 0.57119 0.76556 0.0
C2251 C 0.02481 0.59144 0.74968 0.0
C2252 C 0.06043 0.5561 0.76557 0.0
C2253 C 0.07846 0.56093 0.74965 0.0
C2254 C 0.07 0.58396 0.73461 0.0
C2255 C 0.04338 0.59858 0.7345 0.0
H2256 H 0.78517 0.39963 0.47147 0.0
H2257 H 0.77428 0.44847 0.5277 0.0
H2258 H 0.83095 0.42683 0.46878 0.0
H2259 H 0.81922 0.4759 0.52496 0.0
H2260 H 0.90098 0.52105 0.52157 0.0
H2261 H 0.86786 0.47274 0.52395 0.0
H2262 H 0.84759 0.48621 0.46307 0.0
H2263 H 0.88163 0.53358 0.46072 0.0
C2264 C 0.79283 0.41529 0.48349 0.0
C2265 C 0.77595 0.42192 0.49978 0.0
C2266 C 0.81897 0.43126 0.48186 0.0
C2267 C 0.82894 0.4539 0.49657 0.0
C2268 C 0.81269 0.45839 0.51339 0.0
C2269 C 0.78667 0.44273 0.51494 0.0
C2270 C 0.89045 0.51238 0.50849 0.0
C2271 C 0.89424 0.53063 0.49089 0.0
C2272 C 0.87105 0.48509 0.50989 0.0
C2273 C 0.85442 0.47592 0.49382 0.0
C2274 C 0.86001 0.4922 0.47576 0.0
C2275 C 0.8797 0.51929 0.47433 0.0
H2276 H 0.99137 0.3563 0.52316 0.0
H2277 H 1.00195 0.33231 0.46233 0.0
H2278 H 0.94604 0.32821 0.52273 0.0
H2279 H 0.95753 0.30203 0.46196 0.0
H2280 H 0.87754 0.24369 0.46428 0.0
H2281 H 0.9094 0.2941 0.4639 0.0
H2282 H 0.93293 0.27018 0.52328 0.0
H2283 H 0.90081 0.22161 0.5237 0.0
C2284 C 0.98356 0.34584 0.50955 0.0
C2285 C 0.99996 0.34686 0.49274 0.0
C2286 C 0.95773 0.32914 0.50931 0.0
C2287 C 0.94808 0.3118 0.49242 0.0
C2288 C 0.96383 0.31514 0.47523 0.0
C2289 C 0.98941 0.33256 0.4754 0.0
C2290 C 0.88875 0.2503 0.47744 0.0
C2291 C 0.88667 0.22864 0.49401 0.0
C2292 C 0.9074 0.27886 0.47717 0.0
C2293 C 0.92428 0.28633 0.49348 0.0
C2294 C 0.92033 0.26607 0.51046 0.0
C2295 C 0.90186 0.23783 0.5107 0.0
H2296 H 0.77187 0.32656 0.20625 0.0
H2297 H 0.78322 0.37239 0.26319 0.0
H2298 H 0.81655 0.29838 0.20852 0.0
H2299 H 0.82886 0.34442 0.26545 0.0
H2300 H 0.89709 0.25112 0.21085 0.0
H2301 H 0.86493 0.30055 0.20946 0.0
H2302 H 0.84533 0.28469 0.27026 0.0
H2303 H 0.8787 0.23631 0.2717 0.0
C2304 C 0.78437 0.33154 0.21905 0.0
C2305 C 0.77387 0.3517 0.23454 0.0
C2306 C 0.81024 0.31543 0.22035 0.0
C2307 C 0.82656 0.31882 0.23724 0.0
C2308 C 0.81683 0.34087 0.2523 0.0
C2309 C 0.7908 0.35731 0.25091 0.0
C2310 C 0.88686 0.25936 0.22413 0.0
C2311 C 0.89057 0.24009 0.24141 0.0
C2312 C 0.86805 0.28736 0.22329 0.0
C2313 C 0.8518 0.29618 0.2396 0.0
C2314 C 0.85743 0.27893 0.2574 0.0
C2315 C 0.8767 0.25121 0.25829 0.0
H2316 H 0.87858 0.52567 0.21447 0.0
H2317 H 0.8989 0.53678 0.27523 0.0
H2318 H 0.91177 0.47748 0.21153 0.0
H2319 H 0.93299 0.48945 0.27232 0.0
H2320 H 0.99416 0.40121 0.26301 0.0
H2321 H 0.9489 0.42977 0.26625 0.0
H2322 H 0.96042 0.47952 0.21018 0.0
H2323 H 1.00483 0.45079 0.2069 0.0
C2324 C 0.8894 0.51678 0.2274 0.0
C2325 C 0.88577 0.5345 0.24516 0.0
C2326 C 0.90883 0.48953 0.22567 0.0
C2327 C 0.92565 0.47983 0.24158 0.0
C2328 C 0.92039 0.4958 0.25976 0.0
C2329 C 0.90071 0.52288 0.2615 0.0
C2330 C 0.98654 0.41734 0.25113 0.0
C2331 C 1.00321 0.42371 0.2347 0.0
C2332 C 0.96072 0.4341 0.25308 0.0
C2333 C 0.95085 0.4573 0.23856 0.0
C2334 C 0.96688 0.46163 0.22161 0.0
C2335 C 0.99259 0.44519 0.21975 0.0
H2336 H 0.73845 0.11433 0.51486 0.0
H2337 H 0.7531 0.07601 0.45676 0.0
H2338 H 0.6928 0.08712 0.51476 0.0
H2339 H 0.70804 0.04709 0.45681 0.0
H2340 H 0.62636 0.99225 0.46072 0.0
H2341 H 0.65866 0.04203 0.45808 0.0
H2342 H 0.6809 0.02788 0.51861 0.0
H2343 H 0.64865 0.97936 0.52109 0.0
C2344 C 0.73141 0.10114 0.50177 0.0
C2345 C 0.74913 0.09774 0.48572 0.0
C2346 C 0.7054 0.08498 0.50179 0.0
C2347 C 0.69674 0.06401 0.48595 0.0
C2348 C 0.71366 0.0631 0.46924 0.0
C2349 C 0.73956 0.07982 0.46914 0.0
C2350 C 0.63732 1.00097 0.4736 0.0
C2351 C 0.63479 0.98214 0.49117 0.0
C2352 C 0.65619 0.02913 0.47205 0.0
C2353 C 0.67277 0.03909 0.48807 0.0
C2354 C 0.66844 0.02172 0.50596 0.0
C2355 C 0.64986 0.99368 0.50744 0.0
H2356 H 0.52578 0.19257 0.519 0.0
H2357 H 0.52917 0.16206 0.45853 0.0
H2358 H 0.5715 0.21783 0.51668 0.0
H2359 H 0.57585 0.18713 0.45614 0.0
H2360 H 0.62885 0.29281 0.45589 0.0
H2361 H 0.59419 0.24625 0.45539 0.0
H2362 H 0.61978 0.21361 0.51297 0.0
H2363 H 0.65377 0.26125 0.51354 0.0
C2364 C 0.53669 0.19039 0.50527 0.0
C2365 C 0.52366 0.17543 0.48893 0.0
C2366 C 0.56318 0.20474 0.50396 0.0
C2367 C 0.57765 0.20485 0.48619 0.0
C2368 C 0.56531 0.18792 0.47004 0.0
C2369 C 0.53866 0.17318 0.47143 0.0
C2370 C 0.62799 0.2745 0.46801 0.0
C2371 C 0.64438 0.28029 0.48461 0.0
C2372 C 0.60792 0.24781 0.46781 0.0
C2373 C 0.60361 0.22636 0.4843 0.0
C2374 C 0.622 0.23 0.50014 0.0
C2375 C 0.64193 0.25689 0.50037 0.0
H2376 H 0.63601 0.26544 0.71151 0.0
H2377 H 0.6203 0.26601 0.77328 0.0
H2378 H 0.66882 0.21788 0.71555 0.0
H2379 H 0.65299 0.2171 0.77755 0.0
H2380 H 0.7476 0.18649 0.7773 0.0
H2381 H 0.70185 0.21337 0.7771 0.0
H2382 H 0.6838 0.16117 0.72259 0.0
H2383 H 0.73024 0.13603 0.7225 0.0
C2384 C 0.63865 0.25414 0.72591 0.0
C2385 C 0.62542 0.26941 0.74204 0.0
C2386 C 0.65762 0.22666 0.7283 0.0
C2387 C 0.66412 0.21356 0.74696 0.0
C2388 C 0.64898 0.22678 0.76297 0.0
C2389 C 0.6298 0.25441 0.76052 0.0
C2390 C 0.73337 0.17964 0.76572 0.0
C2391 C 0.74233 0.15881 0.75005 0.0
C2392 C 0.70703 0.19516 0.76553 0.0
C2393 C 0.68898 0.19017 0.74963 0.0
C2394 C 0.6972 0.16649 0.73487 0.0
C2395 C 0.72369 0.15148 0.73494 0.0
H2396 H 0.64866 0.99055 0.77182 0.0
H2397 H 0.63053 0.98256 0.71053 0.0
H2398 H 0.61559 0.03938 0.77463 0.0
H2399 H 0.59729 0.02988 0.71318 0.0
H2400 H 0.53577 0.11232 0.71778 0.0
H2401 H 0.5821 0.08693 0.71788 0.0
H2402 H 0.56687 0.0432 0.77509 0.0
H2403 H 0.52125 0.07054 0.77521 0.0
C2404 C 0.63849 1.00021 0.75881 0.0
C2405 C 0.64235 0.9829 0.74092 0.0
C2406 C 0.6191 0.02779 0.76044 0.0
C2407 C 0.6032 0.03858 0.74421 0.0
C2408 C 0.60908 0.02305 0.72604 0.0
C2409 C 0.62828 0.99569 0.72446 0.0
C2410 C 0.5429 0.09857 0.73069 0.0
C2411 C 0.52511 0.0938 0.74659 0.0
C2412 C 0.56933 0.08346 0.73068 0.0
C2413 C 0.57833 0.06211 0.74631 0.0
C2414 C 0.56109 0.05958 0.76282 0.0
C2415 C 0.53482 0.07531 0.76295 0.0
H2416 H 0.27914 0.94194 0.5266 0.0
H2417 H 0.28621 0.89984 0.46846 0.0
H2418 H 0.32357 0.97051 0.5232 0.0
H2419 H 0.33146 0.92825 0.46502 0.0
H2420 H 0.37809 0.03834 0.45857 0.0
H2421 H 0.34586 0.98896 0.46072 0.0
H2422 H 0.37215 0.96975 0.51996 0.0
H2423 H 0.4035 0.02003 0.51785 0.0
C2424 C 0.29068 0.93779 0.51328 0.0
C2425 C 0.27902 0.91864 0.49781 0.0
C2426 C 0.31639 0.95415 0.51132 0.0
C2427 C 0.33128 0.95209 0.49375 0.0
C2428 C 0.3205 0.93081 0.47869 0.0
C2429 C 0.29471 0.9141 0.48074 0.0
C2430 C 0.37789 0.02243 0.4717 0.0
C2431 C 0.3936 0.03266 0.48794 0.0
C2432 C 0.35926 0.99414 0.47301 0.0
C2433 C 0.35588 0.97555 0.49066 0.0
C2434 C 0.37368 0.9838 0.50626 0.0
C2435 C 0.39206 0.01226 0.50498 0.0
H2436 H 0.37558 0.7466 0.46606 0.0
H2437 H 0.40239 0.71798 0.52388 0.0
H2438 H 0.40666 0.79783 0.46677 0.0
H2439 H 0.43374 0.76718 0.52444 0.0
H2440 H 0.49032 0.8539 0.5269 0.0
H2441 H 0.44525 0.8254 0.52606 0.0
H2442 H 0.45439 0.80868 0.46407 0.0
H2443 H 0.49846 0.83977 0.46493 0.0
C2444 C 0.38749 0.7518 0.4791 0.0
C2445 C 0.38659 0.72814 0.49487 0.0
C2446 C 0.40565 0.78088 0.47945 0.0
C2447 C 0.42318 0.78689 0.4956 0.0
C2448 C 0.42056 0.76434 0.5118 0.0
C2449 C 0.40258 0.73564 0.51145 0.0
C2450 C 0.48203 0.84551 0.51299 0.0
C2451 C 0.49776 0.84927 0.49598 0.0
C2452 C 0.45636 0.82853 0.51249 0.0
C2453 C 0.44628 0.81343 0.49509 0.0
C2454 C 0.46112 0.81988 0.47777 0.0
C2455 C 0.48649 0.83782 0.47821 0.0
H2456 H 0.39964 0.75131 0.21607 0.0
H2457 H 0.37456 0.73289 0.27538 0.0
H2458 H 0.36776 0.80105 0.21387 0.0
H2459 H 0.3417 0.78165 0.27312 0.0
H2460 H 0.28094 0.86977 0.26519 0.0
H2461 H 0.3264 0.84184 0.26882 0.0
H2462 H 0.31944 0.80013 0.21045 0.0
H2463 H 0.27485 0.82828 0.20686 0.0
C2464 C 0.38809 0.7589 0.22892 0.0
C2465 C 0.38993 0.73864 0.246 0.0
C2466 C 0.36941 0.78706 0.22759 0.0
C2467 C 0.35152 0.79511 0.24316 0.0
C2468 C 0.35514 0.77663 0.26084 0.0
C2469 C 0.37412 0.74869 0.26222 0.0
C2470 C 0.28971 0.85578 0.25291 0.0
C2471 C 0.27425 0.85128 0.23572 0.0
C2472 C 0.31561 0.8393 0.25507 0.0
C2473 C 0.32673 0.81829 0.24002 0.0
C2474 C 0.31203 0.81629 0.22234 0.0
C2475 C 0.28624 0.83243 0.22026 0.0
H2476 H 0.49692 0.90584 0.26345 0.0
H2477 H 0.50785 0.95324 0.2068 0.0
H2478 H 0.45181 0.93484 0.26635 0.0
H2479 H 0.46359 0.98244 0.20973 0.0
H2480 H 0.3819 0.02964 0.21372 0.0
H2481 H 0.41495 0.98118 0.21115 0.0
H2482 H 0.43639 0.99481 0.2718 0.0
H2483 H 0.40246 0.04238 0.27434 0.0
C2484 C 0.48938 0.92157 0.25138 0.0
C2485 C 0.50609 0.92723 0.2349 0.0
C2486 C 0.46364 0.93859 0.25313 0.0
C2487 C 0.45391 0.96137 0.23836 0.0
C2488 C 0.46994 0.96491 0.22136 0.0
C2489 C 0.49557 0.9482 0.21969 0.0
C2490 C 0.39278 0.02109 0.22669 0.0
C2491 C 0.38925 0.03929 0.24431 0.0
C2492 C 0.41211 0.99368 0.22518 0.0
C2493 C 0.4289 0.9843 0.24116 0.0
C2494 C 0.4238 1.00087 0.2592 0.0
C2495 C 0.40423 0.02812 0.26072 0.0
H2496 H 0.65474 0.4685 0.95636 0.0
H2497 H 0.62704 0.50412 0.01257 0.0
H2498 H 0.68906 0.5155 0.95549 0.0
H2499 H 0.66056 0.55226 0.01156 0.0
H2500 H 0.75396 0.57553 0.01924 0.0
H2501 H 0.70849 0.54965 0.01655 0.0
H2502 H 0.70691 0.57472 0.9551 0.0
H2503 H 0.75335 0.60039 0.95792 0.0
C2504 C 0.65496 0.48771 0.96804 0.0
C2505 C 0.63789 0.483 0.98438 0.0
C2506 C 0.6748 0.51468 0.96762 0.0
C2507 C 0.67815 0.53754 0.98363 0.0
C2508 C 0.65912 0.5348 -0.00087 0.0
C2509 C 0.63948 0.5076 -0.0004 0.0
C2510 C 0.74364 0.57646 0.00523 0.0
C2511 C 0.75736 0.58997 0.9888 0.0
C2512 C 0.71731 0.5617 0.00367 0.0
C2513 C 0.70375 0.55971 0.98556 0.0
C2514 C 0.71674 0.57537 0.96927 0.0
C2515 C 0.74324 0.59051 0.97089 0.0
H2516 H 0.52445 0.65226 0.95816 0.0
H2517 H 0.51956 0.68247 0.0186 0.0
H2518 H 0.57128 0.67718 0.9564 0.0
H2519 H 0.56533 0.70761 0.01694 0.0
H2520 H 0.64737 0.75077 0.01529 0.0
H2521 H 0.61335 0.7033 0.01403 0.0
H2522 H 0.59019 0.73598 0.95593 0.0
H2523 H 0.62521 0.78221 0.95705 0.0
C2524 C 0.53368 0.66321 0.97119 0.0
C2525 C 0.5183 0.66544 0.9885 0.0
C2526 C 0.56039 0.6779 0.97016 0.0
C2527 C 0.57231 0.69473 0.9865 0.0
C2528 C 0.55739 0.69457 0.00408 0.0
C2529 C 0.53088 0.68026 0.00503 0.0
C2530 C 0.63598 0.74653 0.00191 0.0
C2531 C 0.63926 0.76975 0.98616 0.0
C2532 C 0.61607 0.71971 0.00126 0.0
C2533 C 0.59835 0.71613 0.98504 0.0
C2534 C 0.60341 0.73753 0.96863 0.0
C2535 C 0.62362 0.76405 0.9692 0.0
H2536 H 0.6192 0.75684 0.22555 0.0
H2537 H 0.65804 0.80076 0.27647 0.0
H2538 H 0.64916 0.70483 0.22793 0.0
H2539 H 0.68841 0.74987 0.2787 0.0
H2540 H 0.74607 0.66077 0.27996 0.0
H2541 H 0.70094 0.68964 0.28293 0.0
H2542 H 0.69638 0.69838 0.22021 0.0
H2543 H 0.74066 0.6691 0.21743 0.0
C2544 C 0.63335 0.75463 0.23772 0.0
C2545 C 0.63606 0.78254 0.25098 0.0
C2546 C 0.65086 0.7251 0.23896 0.0
C2547 C 0.67168 0.72312 0.25336 0.0
C2548 C 0.67261 0.7499 0.26755 0.0
C2549 C 0.65513 0.77923 0.2663 0.0
C2550 C 0.73475 0.66744 0.26684 0.0
C2551 C 0.74697 0.66276 0.24847 0.0
C2552 C 0.70904 0.68452 0.26851 0.0
C2553 C 0.69501 0.69712 0.25183 0.0
C2554 C 0.70616 0.68905 0.23343 0.0
C2555 C 0.73175 0.67223 0.23181 0.0
H2556 H 0.6512 0.51485 0.21843 0.0
H2557 H 0.62974 0.48234 0.27659 0.0
H2558 H 0.61722 0.56237 0.22016 0.0
H2559 H 0.59476 0.52853 0.27817 0.0
H2560 H 0.52798 0.6107 0.27668 0.0
H2561 H 0.57512 0.58664 0.27814 0.0
H2562 H 0.56932 0.55814 0.21731 0.0
H2563 H 0.52328 0.58251 0.21592 0.0
C2564 C 0.64005 0.51892 0.23193 0.0
C2565 C 0.64348 0.49532 0.2475 0.0
C2566 C 0.62011 0.54574 0.23283 0.0
C2567 C 0.60251 0.54895 0.24913 0.0
C2568 C 0.60784 0.52729 0.26541 0.0
C2569 C 0.62807 0.5008 0.26457 0.0
C2570 C 0.53729 0.60036 0.26353 0.0
C2571 C 0.52185 0.59842 0.24621 0.0
C2572 C 0.56419 0.58617 0.26438 0.0
C2573 C 0.57627 0.57008 0.24787 0.0
C2574 C 0.56128 0.5706 0.2303 0.0
C2575 C 0.53459 0.58444 0.22951 0.0
H2576 H 0.39182 0.51455 0.96054 0.0
H2577 H 0.37932 0.52035 0.02263 0.0
H2578 H 0.35987 0.46446 0.95889 0.0
H2579 H 0.34693 0.47214 0.02111 0.0
H2580 H 0.26701 0.42995 0.96138 0.0
H2581 H 0.31196 0.45851 0.96014 0.0
H2582 H 0.33135 0.41572 0.017 0.0
H2583 H 0.2854 0.38923 0.01851 0.0
C2584 C 0.38304 0.50433 0.97391 0.0
C2585 C 0.38803 0.52147 -0.0083 0.0
C2586 C 0.36428 0.47598 0.97298 0.0
C2587 C 0.35011 0.46431 0.98981 0.0
C2588 C 0.3573 0.47965 0.00778 0.0
C2589 C 0.37595 0.50765 0.00869 0.0
C2590 C 0.28132 0.42579 0.97331 0.0
C2591 C 0.27287 0.40722 0.98997 0.0
C2592 C 0.30725 0.44214 0.97263 0.0
C2593 C 0.3255 0.44017 0.98861 0.0
C2594 C 0.31776 0.41882 0.0046 0.0
C2595 C 0.29157 0.40308 0.0054 0.0
H2596 H 0.50717 0.31561 0.02448 0.0
H2597 H 0.49735 0.36114 0.96727 0.0
H2598 H 0.46213 0.28855 0.02201 0.0
H2599 H 0.45132 0.33433 0.9648 0.0
H2600 H 0.39962 0.2279 0.95859 0.0
H2601 H 0.43385 0.27518 0.96013 0.0
H2602 H 0.41382 0.29179 0.02078 0.0
H2603 H 0.38071 0.2434 0.01927 0.0
C2604 C 0.49495 0.32073 0.01155 0.0
C2605 C 0.50598 0.34049 -0.00394 0.0
C2606 C 0.46886 0.30529 0.01014 0.0
C2607 C 0.45281 0.30894 -0.00686 0.0
C2608 C 0.46312 0.33057 0.97805 0.0
C2609 C 0.48938 0.34634 0.97954 0.0
C2610 C 0.40171 0.24279 0.97198 0.0
C2611 C 0.38731 0.23224 0.98876 0.0
C2612 C 0.42148 0.26987 0.97293 0.0
C2613 C 0.42721 0.287 0.99072 0.0
C2614 C 0.4106 0.2787 0.00695 0.0
C2615 C 0.39122 0.25134 0.00604 0.0
H2616 H 0.37848 0.22609 0.77304 0.0
H2617 H 0.39764 0.23973 0.71226 0.0
H2618 H 0.34432 0.2734 0.77096 0.0
H2619 H 0.3645 0.28811 0.71017 0.0
H2620 H 0.27115 0.31265 0.70627 0.0
H2621 H 0.3161 0.28527 0.70897 0.0
H2622 H 0.32719 0.33249 0.76572 0.0
H2623 H 0.2813 0.35958 0.76306 0.0
C2624 C 0.37647 0.24061 0.75951 0.0
C2625 C 0.39098 0.22958 0.74288 0.0
C2626 C 0.35672 0.26769 0.75824 0.0
C2627 C 0.35107 0.28431 0.74027 0.0
C2628 C 0.3677 0.27546 0.72415 0.0
C2629 C 0.38711 0.24813 0.72538 0.0
C2630 C 0.28338 0.31797 0.71916 0.0
C2631 C 0.27245 0.33822 0.73448 0.0
C2632 C 0.30943 0.30235 0.72069 0.0
C2633 C 0.32552 0.30634 0.73763 0.0
C2634 C 0.31533 0.32843 0.75253 0.0
C2635 C 0.28914 0.34435 0.75092 0.0
H2636 H 0.49689 0.44113 0.70866 0.0
H2637 H 0.48997 0.39988 0.76704 0.0
H2638 H 0.45297 0.47098 0.7122 0.0
H2639 H 0.4452 0.42964 0.77064 0.0
H2640 H 0.39858 0.5398 0.77674 0.0
H2641 H 0.43121 0.49074 0.77461 0.0
H2642 H 0.40441 0.47076 0.71558 0.0
H2643 H 0.37262 0.52068 0.71769 0.0
C2644 C 0.48548 0.43751 0.72209 0.0
C2645 C 0.49701 0.41812 0.73756 0.0
C2646 C 0.46007 0.4546 0.72413 0.0
C2647 C 0.44534 0.45309 0.74179 0.0
C2648 C 0.45603 0.43177 0.7569 0.0
C2649 C 0.48153 0.4143 0.75476 0.0
C2650 C 0.39886 0.52387 0.76365 0.0
C2651 C 0.38277 0.53366 0.74749 0.0
C2652 C 0.41767 0.49575 0.76235 0.0
C2653 C 0.42091 0.47691 0.7448 0.0
C2654 C 0.40297 0.48497 0.72922 0.0
C2655 C 0.38438 0.51325 0.73049 0.0
loop_
_geom_bond_atom_site_label_1
_geom_bond_atom_site_label_2
_geom_bond_distance
_geom_bond_site_symmetry_2
_ccdc_geom_bond_type
O0 Zn1 1.953 . S
O0 C16 1.225 1_546 S
Zn1 O0 1.953 . S
Zn1 O2 1.930 1_556 S
Zn1 O8 1.919 . S
Zn1 O13 1.924 . S
O2 Zn1 1.930 1_554 S
O2 Zn3 1.909 1_554 S
O2 Zn4 1.970 . S
O2 Zn5 1.957 . S
Zn3 O2 1.909 1_556 S
Zn3 O6 1.933 . S
Zn3 O9 1.941 . S
Zn3 O10 1.965 . S
Zn4 O2 1.970 . S
Zn4 O11 1.938 . S
Zn4 O12 1.906 . S
Zn4 O22 1.953 . S
Zn5 O2 1.957 . S
Zn5 O7 1.932 . S
Zn5 O14 1.977 . S
Zn5 O15 1.910 . S
O6 Zn3 1.933 . S
O6 C17 1.226 . S
O7 Zn5 1.932 . S
O7 C17 1.307 1_554 S
O8 Zn1 1.919 . S
O8 C19 1.253 . S
O9 Zn3 1.941 . S
O9 C19 1.283 . S
O10 Zn3 1.965 . S
O10 C18 1.303 1_556 S
O11 Zn4 1.938 . S
O11 C18 1.247 . S
O12 Zn4 1.906 . S
O12 C20 1.304 . S
O13 Zn1 1.924 . S
O13 C21 1.286 1_556 S
O14 Zn5 1.977 . S
O14 C20 1.272 . S
O15 Zn5 1.910 . S
O15 C21 1.250 . S
C16 O0 1.225 1_564 S
C16 O22 1.298 1_565 S
C17 O6 1.226 . S
C17 O7 1.307 1_556 S
C18 O10 1.303 1_554 S
C18 O11 1.247 . S
C19 O8 1.253 . S
C19 O9 1.283 . S
C20 O12 1.304 . S
C20 O14 1.272 . S
C21 O13 1.286 1_554 S
C21 O15 1.250 . S
O22 Zn4 1.953 . S
O22 C16 1.298 1_545 S
O23 Zn24 1.953 . S
O23 C39 1.225 1_556 S
Zn24 O23 1.953 . S
Zn24 O25 1.930 1_556 S
Zn24 O31 1.919 . S
Zn24 O36 1.924 . S
O25 Zn24 1.930 1_554 S
O25 Zn26 1.909 1_554 S
O25 Zn27 1.970 . S
O25 Zn28 1.957 . S
Zn26 O25 1.909 1_556 S
Zn26 O29 1.933 . S
Zn26 O32 1.941 . S
Zn26 O33 1.965 . S
Zn27 O25 1.970 . S
Zn27 O34 1.938 . S
Zn27 O35 1.906 . S
Zn27 O45 1.953 . S
Zn28 O25 1.957 . S
Zn28 O30 1.932 . S
Zn28 O37 1.977 . S
Zn28 O38 1.910 . S
O29 Zn26 1.933 . S
O29 C40 1.226 . S
O30 Zn28 1.932 . S
O30 C40 1.307 1_554 S
O31 Zn24 1.919 . S
O31 C42 1.253 . S
O32 Zn26 1.941 . S
O32 C42 1.283 . S
O33 Zn26 1.965 . S
O33 C41 1.303 1_556 S
O34 Zn27 1.938 . S
O34 C41 1.247 . S
O35 Zn27 1.906 . S
O35 C43 1.304 . S
O36 Zn24 1.924 . S
O36 C44 1.286 1_556 S
O37 Zn28 1.977 . S
O37 C43 1.272 . S
O38 Zn28 1.910 . S
O38 C44 1.250 . S
C39 O23 1.225 1_554 S
C39 O45 1.298 . S
C40 O29 1.226 . S
C40 O30 1.307 1_556 S
C41 O33 1.303 1_554 S
C41 O34 1.247 . S
C42 O31 1.253 . S
C42 O32 1.283 . S
C43 O35 1.304 . S
C43 O37 1.272 . S
C44 O36 1.286 1_554 S
C44 O38 1.250 . S
O45 Zn27 1.953 . S
O45 C39 1.298 . S
O46 Zn47 1.953 . S
O46 C62 1.225 . S
Zn47 O46 1.953 . S
Zn47 O48 1.949 . S
Zn47 O54 1.919 . S
Zn47 O59 1.924 . S
O48 Zn47 1.949 . S
O48 Zn49 1.923 . S
O48 Zn50 1.950 . S
O48 Zn51 1.945 . S
Zn49 O48 1.923 . S
Zn49 O52 1.933 . S
Zn49 O55 1.941 . S
Zn49 O56 1.965 . S
Zn50 O48 1.950 . S
Zn50 O57 1.938 . S
Zn50 O58 1.906 . S
Zn50 O68 1.953 . S
Zn51 O48 1.945 . S
Zn51 O53 1.932 . S
Zn51 O60 1.977 . S
Zn51 O61 1.910 . S
O52 Zn49 1.933 . S
O52 C63 1.226 . S
O53 Zn51 1.932 . S
O53 C63 1.307 . S
O54 Zn47 1.919 . S
O54 C65 1.253 . S
O55 Zn49 1.941 . S
O55 C65 1.283 . S
O56 Zn49 1.965 . S
O56 C64 1.303 . S
O57 Zn50 1.938 . S
O57 C64 1.247 . S
O58 Zn50 1.906 . S
O58 C66 1.304 . S
O59 Zn47 1.924 . S
O59 C67 1.311 . S
O60 Zn51 1.977 . S
O60 C66 1.272 . S
O61 Zn51 1.910 . S
O61 C67 1.231 . S
C62 O46 1.225 . S
C62 O68 1.298 . S
C63 O52 1.226 . S
C63 O53 1.307 . S
C64 O56 1.303 . S
C64 O57 1.247 . S
C65 O54 1.253 . S
C65 O55 1.283 . S
C66 O58 1.304 . S
C66 O60 1.272 . S
C67 O59 1.311 . S
C67 O61 1.231 . S
O68 Zn50 1.953 . S
O68 C62 1.298 . S
O69 Zn70 1.953 . S
O69 C85 1.225 1_545 S
Zn70 O69 1.953 . S
Zn70 O71 1.949 . S
Zn70 O77 1.919 . S
Zn70 O82 1.924 . S
O71 Zn70 1.949 . S
O71 Zn72 1.923 . S
O71 Zn73 1.950 . S
O71 Zn74 1.945 . S
Zn72 O71 1.923 . S
Zn72 O75 1.933 . S
Zn72 O78 1.941 . S
Zn72 O79 1.965 . S
Zn73 O71 1.950 . S
Zn73 O80 1.938 . S
Zn73 O81 1.906 . S
Zn73 O91 1.953 . S
Zn74 O71 1.945 . S
Zn74 O76 1.932 . S
Zn74 O83 1.977 . S
Zn74 O84 1.910 . S
O75 Zn72 1.933 . S
O75 C86 1.226 . S
O76 Zn74 1.932 . S
O76 C86 1.307 . S
O77 Zn70 1.919 . S
O77 C88 1.253 . S
O78 Zn72 1.941 . S
O78 C88 1.283 . S
O79 Zn72 1.965 . S
O79 C87 1.303 . S
O80 Zn73 1.938 . S
O80 C87 1.247 . S
O81 Zn73 1.906 . S
O81 C89 1.304 . S
O82 Zn70 1.924 . S
O82 C90 1.311 . S
O83 Zn74 1.977 . S
O83 C89 1.272 . S
O84 Zn74 1.910 . S
O84 C90 1.231 . S
C85 O69 1.225 1_565 S
C85 O91 1.298 1_565 S
C86 O75 1.226 . S
C86 O76 1.307 . S
C87 O79 1.303 . S
C87 O80 1.247 . S
C88 O77 1.253 . S
C88 O78 1.283 . S
C89 O81 1.304 . S
C89 O83 1.272 . S
C90 O82 1.311 . S
C90 O84 1.231 . S
O91 Zn73 1.953 . S
O91 C85 1.298 1_545 S
O92 Zn93 1.953 . S
O92 C108 1.214 1_565 S
Zn93 O92 1.953 . S
Zn93 O94 1.937 1_556 S
Zn93 O100 1.919 . S
Zn93 O105 1.924 . S
O94 Zn93 1.937 1_554 S
O94 Zn95 1.917 1_554 S
O94 Zn96 1.960 . S
O94 Zn97 1.952 . S
Zn95 O94 1.917 1_556 S
Zn95 O98 1.933 . S
Zn95 O101 1.941 . S
Zn95 O102 1.965 . S
Zn96 O94 1.960 . S
Zn96 O103 1.938 . S
Zn96 O104 1.906 . S
Zn96 O114 1.953 . S
Zn97 O94 1.952 . S
Zn97 O99 1.932 . S
Zn97 O106 1.977 . S
Zn97 O107 1.910 . S
O98 Zn95 1.933 . S
O98 C109 1.226 1_556 S
O99 Zn97 1.932 . S
O99 C109 1.307 . S
O100 Zn93 1.919 . S
O100 C111 1.253 . S
O101 Zn95 1.941 . S
O101 C111 1.283 . S
O102 Zn95 1.965 . S
O102 C110 1.303 1_556 S
O103 Zn96 1.938 . S
O103 C110 1.247 . S
O104 Zn96 1.906 . S
O104 C112 1.304 . S
O105 Zn93 1.924 . S
O105 C113 1.311 . S
O106 Zn97 1.977 . S
O106 C112 1.272 . S
O107 Zn97 1.910 . S
O107 C113 1.231 1_554 S
C108 O92 1.214 1_545 S
C108 O114 1.288 1_546 S
C109 O98 1.226 1_554 S
C109 O99 1.307 . S
C110 O102 1.303 1_554 S
C110 O103 1.247 . S
C111 O100 1.253 . S
C111 O101 1.283 . S
C112 O104 1.304 . S
C112 O106 1.272 . S
C113 O105 1.311 . S
C113 O107 1.231 1_556 S
O114 Zn96 1.953 . S
O114 C108 1.288 1_564 S
O115 Zn116 1.953 . S
O115 C131 1.225 . S
Zn116 O115 1.953 . S
Zn116 O117 1.937 1_556 S
Zn116 O123 1.919 . S
Zn116 O128 1.924 . S
O117 Zn116 1.937 1_554 S
O117 Zn118 1.917 1_554 S
O117 Zn119 1.960 . S
O117 Zn120 1.952 . S
Zn118 O117 1.917 1_556 S
Zn118 O121 1.933 . S
Zn118 O124 1.941 . S
Zn118 O125 1.965 . S
Zn119 O117 1.960 . S
Zn119 O126 1.938 . S
Zn119 O127 1.906 . S
Zn119 O137 1.953 . S
Zn120 O117 1.952 . S
Zn120 O122 1.932 . S
Zn120 O129 1.977 . S
Zn120 O130 1.910 . S
O121 Zn118 1.933 . S
O121 C132 1.226 1_556 S
O122 Zn120 1.932 . S
O122 C132 1.307 . S
O123 Zn116 1.919 . S
O123 C134 1.253 . S
O124 Zn118 1.941 . S
O124 C134 1.283 . S
O125 Zn118 1.965 . S
O125 C133 1.303 1_556 S
O126 Zn119 1.938 . S
O126 C133 1.247 . S
O127 Zn119 1.906 . S
O127 C135 1.304 . S
O128 Zn116 1.924 . S
O128 C136 1.311 . S
O129 Zn120 1.977 . S
O129 C135 1.272 . S
O130 Zn120 1.910 . S
O130 C136 1.231 1_554 S
C131 O115 1.225 . S
C131 O137 1.298 1_556 S
C132 O121 1.226 1_554 S
C132 O122 1.307 . S
C133 O125 1.303 1_554 S
C133 O126 1.247 . S
C134 O123 1.253 . S
C134 O124 1.283 . S
C135 O127 1.304 . S
C135 O129 1.272 . S
C136 O128 1.311 . S
C136 O130 1.231 1_556 S
O137 Zn119 1.953 . S
O137 C131 1.298 1_554 S
O138 Zn139 1.953 . S
O138 C154 1.225 . S
Zn139 O138 1.953 . S
Zn139 O140 1.949 . S
Zn139 O146 1.919 . S
Zn139 O151 1.924 . S
O140 Zn139 1.949 . S
O140 Zn141 1.923 . S
O140 Zn142 1.950 . S
O140 Zn143 1.945 . S
Zn141 O140 1.923 . S
Zn141 O144 1.933 . S
Zn141 O147 1.941 . S
Zn141 O148 1.965 . S
Zn142 O140 1.950 . S
Zn142 O149 1.938 . S
Zn142 O150 1.906 . S
Zn142 O160 1.953 . S
Zn143 O140 1.945 . S
Zn143 O145 1.932 . S
Zn143 O152 1.977 . S
Zn143 O153 1.910 . S
O144 Zn141 1.933 . S
O144 C155 1.226 . S
O145 Zn143 1.932 . S
O145 C155 1.307 . S
O146 Zn139 1.919 . S
O146 C157 1.253 . S
O147 Zn141 1.941 . S
O147 C157 1.283 . S
O148 Zn141 1.965 . S
O148 C156 1.303 . S
O149 Zn142 1.938 . S
O149 C156 1.247 . S
O150 Zn142 1.906 . S
O150 C158 1.304 . S
O151 Zn139 1.924 . S
O151 C159 1.311 . S
O152 Zn143 1.977 . S
O152 C158 1.272 . S
O153 Zn143 1.910 . S
O153 C159 1.231 . S
C154 O138 1.225 . S
C154 O160 1.298 . S
C155 O144 1.226 . S
C155 O145 1.307 . S
C156 O148 1.303 . S
C156 O149 1.247 . S
C157 O146 1.253 . S
C157 O147 1.283 . S
C158 O150 1.304 . S
C158 O152 1.272 . S
C159 O151 1.311 . S
C159 O153 1.231 . S
O160 Zn142 1.953 . S
O160 C154 1.298 . S
O161 Zn162 1.953 . S
O161 C177 1.216 1_565 S
Zn162 O161 1.953 . S
Zn162 O163 1.949 . S
Zn162 O169 1.919 . S
Zn162 O174 1.924 . S
O163 Zn162 1.949 . S
O163 Zn164 1.923 . S
O163 Zn165 1.950 . S
O163 Zn166 1.945 . S
Zn164 O163 1.923 . S
Zn164 O167 1.933 . S
Zn164 O170 1.941 . S
Zn164 O171 1.965 . S
Zn165 O163 1.950 . S
Zn165 O172 1.938 . S
Zn165 O173 1.906 . S
Zn165 O183 1.953 . S
Zn166 O163 1.945 . S
Zn166 O168 1.932 . S
Zn166 O175 1.977 . S
Zn166 O176 1.910 . S
O167 Zn164 1.933 . S
O167 C178 1.226 . S
O168 Zn166 1.932 . S
O168 C178 1.307 . S
O169 Zn162 1.919 . S
O169 C180 1.253 . S
O170 Zn164 1.941 . S
O170 C180 1.283 . S
O171 Zn164 1.965 . S
O171 C179 1.303 . S
O172 Zn165 1.938 . S
O172 C179 1.247 . S
O173 Zn165 1.906 . S
O173 C181 1.304 . S
O174 Zn162 1.924 . S
O174 C182 1.311 . S
O175 Zn166 1.977 . S
O175 C181 1.272 . S
O176 Zn166 1.910 . S
O176 C182 1.231 . S
C177 O161 1.216 1_545 S
C177 O183 1.289 1_545 S
C178 O167 1.226 . S
C178 O168 1.307 . S
C179 O171 1.303 . S
C179 O172 1.247 . S
C180 O169 1.253 . S
C180 O170 1.283 . S
C181 O173 1.304 . S
C181 O175 1.272 . S
C182 O174 1.311 . S
C182 O176 1.231 . S
O183 Zn165 1.953 . S
O183 C177 1.289 1_565 S
O184 Zn185 1.953 . S
O184 C200 1.225 . S
Zn185 O184 1.953 . S
Zn185 O186 1.949 . S
Zn185 O192 1.919 . S
Zn185 O197 1.924 . S
O186 Zn185 1.949 . S
O186 Zn187 1.923 . S
O186 Zn188 1.950 . S
O186 Zn189 1.945 . S
Zn187 O186 1.923 . S
Zn187 O190 1.933 . S
Zn187 O193 1.941 . S
Zn187 O194 1.965 . S
Zn188 O186 1.950 . S
Zn188 O195 1.938 . S
Zn188 O196 1.906 . S
Zn188 O206 1.953 . S
Zn189 O186 1.945 . S
Zn189 O191 1.932 . S
Zn189 O198 1.977 . S
Zn189 O199 1.910 . S
O190 Zn187 1.933 . S
O190 C201 1.226 . S
O191 Zn189 1.932 . S
O191 C201 1.307 . S
O192 Zn185 1.919 . S
O192 C203 1.253 . S
O193 Zn187 1.941 . S
O193 C203 1.283 . S
O194 Zn187 1.965 . S
O194 C202 1.303 . S
O195 Zn188 1.938 . S
O195 C202 1.247 . S
O196 Zn188 1.906 . S
O196 C204 1.304 . S
O197 Zn185 1.924 . S
O197 C205 1.311 . S
O198 Zn189 1.977 . S
O198 C204 1.272 . S
O199 Zn189 1.910 . S
O199 C205 1.231 . S
C200 O184 1.225 . S
C200 O206 1.298 . S
C201 O190 1.226 . S
C201 O191 1.307 . S
C202 O194 1.303 . S
C202 O195 1.247 . S
C203 O192 1.253 . S
C203 O193 1.283 . S
C204 O196 1.304 . S
C204 O198 1.272 . S
C205 O197 1.311 . S
C205 O199 1.231 . S
O206 Zn188 1.953 . S
O206 C200 1.298 . S
O207 Zn208 1.953 . S
O207 C223 1.225 . S
Zn208 O207 1.953 . S
Zn208 O209 1.949 . S
Zn208 O215 1.919 . S
Zn208 O220 1.924 . S
O209 Zn208 1.949 . S
O209 Zn210 1.923 . S
O209 Zn211 1.950 . S
O209 Zn212 1.945 . S
Zn210 O209 1.923 . S
Zn210 O213 1.933 . S
Zn210 O216 1.941 . S
Zn210 O217 1.965 . S
Zn211 O209 1.950 . S
Zn211 O218 1.938 . S
Zn211 O219 1.906 . S
Zn211 O229 1.953 . S
Zn212 O209 1.945 . S
Zn212 O214 1.932 . S
Zn212 O221 1.977 . S
Zn212 O222 1.910 . S
O213 Zn210 1.933 . S
O213 C224 1.226 . S
O214 Zn212 1.932 . S
O214 C224 1.307 . S
O215 Zn208 1.919 . S
O215 C226 1.253 . S
O216 Zn210 1.941 . S
O216 C226 1.283 . S
O217 Zn210 1.965 . S
O217 C225 1.303 . S
O218 Zn211 1.938 . S
O218 C225 1.247 . S
O219 Zn211 1.906 . S
O219 C227 1.304 . S
O220 Zn208 1.924 . S
O220 C228 1.311 . S
O221 Zn212 1.977 . S
O221 C227 1.272 . S
O222 Zn212 1.910 . S
O222 C228 1.231 . S
C223 O207 1.225 . S
C223 O229 1.298 . S
C224 O213 1.226 . S
C224 O214 1.307 . S
C225 O217 1.303 . S
C225 O218 1.247 . S
C226 O215 1.253 . S
C226 O216 1.283 . S
C227 O219 1.304 . S
C227 O221 1.272 . S
C228 O220 1.311 . S
C228 O222 1.231 . S
O229 Zn211 1.953 . S
O229 C223 1.298 . S
O230 Zn231 1.953 . S
O230 C246 1.225 . S
Zn231 O230 1.953 . S
Zn231 O232 1.949 . S
Zn231 O238 1.919 . S
Zn231 O243 1.924 . S
O232 Zn231 1.949 . S
O232 Zn233 1.923 . S
O232 Zn234 1.950 . S
O232 Zn235 1.945 . S
Zn233 O232 1.923 . S
Zn233 O236 1.933 . S
Zn233 O239 1.941 . S
Zn233 O240 1.965 . S
Zn234 O232 1.950 . S
Zn234 O241 1.938 . S
Zn234 O242 1.906 . S
Zn234 O252 1.953 . S
Zn235 O232 1.945 . S
Zn235 O237 1.932 . S
Zn235 O244 1.977 . S
Zn235 O245 1.910 . S
O236 Zn233 1.933 . S
O236 C247 1.226 . S
O237 Zn235 1.932 . S
O237 C247 1.307 . S
O238 Zn231 1.919 . S
O238 C249 1.253 . S
O239 Zn233 1.941 . S
O239 C249 1.283 . S
O240 Zn233 1.965 . S
O240 C248 1.303 . S
O241 Zn234 1.938 . S
O241 C248 1.247 . S
O242 Zn234 1.906 . S
O242 C250 1.304 . S
O243 Zn231 1.924 . S
O243 C251 1.311 . S
O244 Zn235 1.977 . S
O244 C250 1.272 . S
O245 Zn235 1.910 . S
O245 C251 1.231 . S
C246 O230 1.225 . S
C246 O252 1.298 . S
C247 O236 1.226 . S
C247 O237 1.307 . S
C248 O240 1.303 . S
C248 O241 1.247 . S
C249 O238 1.253 . S
C249 O239 1.283 . S
C250 O242 1.304 . S
C250 O244 1.272 . S
C251 O243 1.311 . S
C251 O245 1.231 . S
O252 Zn234 1.953 . S
O252 C246 1.298 . S
O253 Zn254 1.953 . S
O253 C269 1.225 . S
Zn254 O253 1.953 . S
Zn254 O255 1.949 . S
Zn254 O261 1.919 . S
Zn254 O266 1.924 . S
O255 Zn254 1.949 . S
O255 Zn256 1.923 . S
O255 Zn257 1.950 . S
O255 Zn258 1.945 . S
Zn256 O255 1.923 . S
Zn256 O259 1.933 . S
Zn256 O262 1.941 . S
Zn256 O263 1.965 . S
Zn257 O255 1.950 . S
Zn257 O264 1.938 . S
Zn257 O265 1.906 . S
Zn257 O275 1.953 . S
Zn258 O255 1.945 . S
Zn258 O260 1.932 . S
Zn258 O267 1.977 . S
Zn258 O268 1.910 . S
O259 Zn256 1.933 . S
O259 C270 1.226 . S
O260 Zn258 1.932 . S
O260 C270 1.307 . S
O261 Zn254 1.919 . S
O261 C272 1.253 . S
O262 Zn256 1.941 . S
O262 C272 1.283 . S
O263 Zn256 1.965 . S
O263 C271 1.303 . S
O264 Zn257 1.938 . S
O264 C271 1.247 . S
O265 Zn257 1.906 . S
O265 C273 1.304 . S
O266 Zn254 1.924 . S
O266 C274 1.311 . S
O267 Zn258 1.977 . S
O267 C273 1.272 . S
O268 Zn258 1.910 . S
O268 C274 1.231 . S
C269 O253 1.225 . S
C269 O275 1.298 . S
C270 O259 1.226 . S
C270 O260 1.307 . S
C271 O263 1.303 . S
C271 O264 1.247 . S
C272 O261 1.253 . S
C272 O262 1.283 . S
C273 O265 1.304 . S
C273 O267 1.272 . S
C274 O266 1.311 . S
C274 O268 1.231 . S
O275 Zn257 1.953 . S
O275 C269 1.298 . S
O276 Zn277 1.953 . S
O276 C292 1.225 . S
Zn277 O276 1.953 . S
Zn277 O278 1.949 . S
Zn277 O284 1.919 . S
Zn277 O289 1.924 . S
O278 Zn277 1.949 . S
O278 Zn279 1.923 . S
O278 Zn280 1.950 . S
O278 Zn281 1.945 . S
Zn279 O278 1.923 . S
Zn279 O282 1.933 . S
Zn279 O285 1.941 . S
Zn279 O286 1.965 . S
Zn280 O278 1.950 . S
Zn280 O287 1.938 . S
Zn280 O288 1.906 . S
Zn280 O298 1.953 . S
Zn281 O278 1.945 . S
Zn281 O283 1.932 . S
Zn281 O290 1.977 . S
Zn281 O291 1.910 . S
O282 Zn279 1.933 . S
O282 C293 1.226 . S
O283 Zn281 1.932 . S
O283 C293 1.307 . S
O284 Zn277 1.919 . S
O284 C295 1.253 . S
O285 Zn279 1.941 . S
O285 C295 1.283 . S
O286 Zn279 1.965 . S
O286 C294 1.303 . S
O287 Zn280 1.938 . S
O287 C294 1.247 . S
O288 Zn280 1.906 . S
O288 C296 1.304 . S
O289 Zn277 1.924 . S
O289 C297 1.311 . S
O290 Zn281 1.977 . S
O290 C296 1.272 . S
O291 Zn281 1.910 . S
O291 C297 1.231 . S
C292 O276 1.225 . S
C292 O298 1.298 . S
C293 O282 1.226 . S
C293 O283 1.307 . S
C294 O286 1.303 . S
C294 O287 1.247 . S
C295 O284 1.253 . S
C295 O285 1.283 . S
C296 O288 1.304 . S
C296 O290 1.272 . S
C297 O289 1.311 . S
C297 O291 1.231 . S
O298 Zn280 1.953 . S
O298 C292 1.298 . S
O299 Zn300 1.953 . S
O299 C315 1.225 . S
Zn300 O299 1.953 . S
Zn300 O301 1.949 . S
Zn300 O307 1.919 . S
Zn300 O312 1.924 . S
O301 Zn300 1.949 . S
O301 Zn302 1.923 . S
O301 Zn303 1.950 . S
O301 Zn304 1.945 . S
Zn302 O301 1.923 . S
Zn302 O305 1.933 . S
Zn302 O308 1.941 . S
Zn302 O309 1.965 . S
Zn303 O301 1.950 . S
Zn303 O310 1.938 . S
Zn303 O311 1.906 . S
Zn303 O321 1.953 . S
Zn304 O301 1.945 . S
Zn304 O306 1.932 . S
Zn304 O313 1.977 . S
Zn304 O314 1.910 . S
O305 Zn302 1.933 . S
O305 C316 1.226 . S
O306 Zn304 1.932 . S
O306 C316 1.307 . S
O307 Zn300 1.919 . S
O307 C318 1.253 . S
O308 Zn302 1.941 . S
O308 C318 1.283 . S
O309 Zn302 1.965 . S
O309 C317 1.303 . S
O310 Zn303 1.938 . S
O310 C317 1.247 . S
O311 Zn303 1.906 . S
O311 C319 1.304 . S
O312 Zn300 1.924 . S
O312 C320 1.311 . S
O313 Zn304 1.977 . S
O313 C319 1.272 . S
O314 Zn304 1.910 . S
O314 C320 1.231 . S
C315 O299 1.225 . S
C315 O321 1.298 . S
C316 O305 1.226 . S
C316 O306 1.307 . S
C317 O309 1.303 . S
C317 O310 1.247 . S
C318 O307 1.253 . S
C318 O308 1.283 . S
C319 O311 1.304 . S
C319 O313 1.272 . S
C320 O312 1.311 . S
C320 O314 1.231 . S
O321 Zn303 1.953 . S
O321 C315 1.298 . S
O322 Zn323 1.953 . S
O322 C338 1.225 . S
Zn323 O322 1.953 . S
Zn323 O324 1.949 . S
Zn323 O330 1.919 . S
Zn323 O335 1.924 . S
O324 Zn323 1.949 . S
O324 Zn325 1.923 . S
O324 Zn326 1.950 . S
O324 Zn327 1.945 . S
Zn325 O324 1.923 . S
Zn325 O328 1.933 . S
Zn325 O331 1.941 . S
Zn325 O332 1.965 . S
Zn326 O324 1.950 . S
Zn326 O333 1.938 . S
Zn326 O334 1.906 . S
Zn326 O344 1.953 . S
Zn327 O324 1.945 . S
Zn327 O329 1.932 . S
Zn327 O336 1.977 . S
Zn327 O337 1.910 . S
O328 Zn325 1.933 . S
O328 C339 1.226 . S
O329 Zn327 1.932 . S
O329 C339 1.307 . S
O330 Zn323 1.919 . S
O330 C341 1.253 . S
O331 Zn325 1.941 . S
O331 C341 1.283 . S
O332 Zn325 1.965 . S
O332 C340 1.303 . S
O333 Zn326 1.938 . S
O333 C340 1.247 . S
O334 Zn326 1.906 . S
O334 C342 1.304 . S
O335 Zn323 1.924 . S
O335 C343 1.311 . S
O336 Zn327 1.977 . S
O336 C342 1.272 . S
O337 Zn327 1.910 . S
O337 C343 1.231 . S
C338 O322 1.225 . S
C338 O344 1.298 . S
C339 O328 1.226 . S
C339 O329 1.307 . S
C340 O332 1.303 . S
C340 O333 1.247 . S
C341 O330 1.253 . S
C341 O331 1.283 . S
C342 O334 1.304 . S
C342 O336 1.272 . S
C343 O335 1.311 . S
C343 O337 1.231 . S
O344 Zn326 1.953 . S
O344 C338 1.298 . S
O345 Zn346 1.953 . S
O345 C361 1.225 . S
Zn346 O345 1.953 . S
Zn346 O347 1.949 . S
Zn346 O353 1.919 . S
Zn346 O358 1.924 . S
O347 Zn346 1.949 . S
O347 Zn348 1.923 . S
O347 Zn349 1.950 . S
O347 Zn350 1.945 . S
Zn348 O347 1.923 . S
Zn348 O351 1.933 . S
Zn348 O354 1.941 . S
Zn348 O355 1.965 . S
Zn349 O347 1.950 . S
Zn349 O356 1.938 . S
Zn349 O357 1.906 . S
Zn349 O367 1.953 . S
Zn350 O347 1.945 . S
Zn350 O352 1.932 . S
Zn350 O359 1.977 . S
Zn350 O360 1.910 . S
O351 Zn348 1.933 . S
O351 C362 1.226 . S
O352 Zn350 1.932 . S
O352 C362 1.307 . S
O353 Zn346 1.919 . S
O353 C364 1.253 . S
O354 Zn348 1.941 . S
O354 C364 1.283 . S
O355 Zn348 1.965 . S
O355 C363 1.303 . S
O356 Zn349 1.938 . S
O356 C363 1.247 . S
O357 Zn349 1.906 . S
O357 C365 1.304 . S
O358 Zn346 1.924 . S
O358 C366 1.311 . S
O359 Zn350 1.977 . S
O359 C365 1.272 . S
O360 Zn350 1.910 . S
O360 C366 1.231 . S
C361 O345 1.225 . S
C361 O367 1.298 . S
C362 O351 1.226 . S
C362 O352 1.307 . S
C363 O355 1.303 . S
C363 O356 1.247 . S
C364 O353 1.253 . S
C364 O354 1.283 . S
C365 O357 1.304 . S
C365 O359 1.272 . S
C366 O358 1.311 . S
C366 O360 1.231 . S
O367 Zn349 1.953 . S
O367 C361 1.298 . S
O368 Zn369 1.953 . S
O368 C384 1.225 1_545 S
Zn369 O368 1.953 . S
Zn369 O370 1.949 . S
Zn369 O376 1.919 . S
Zn369 O381 1.924 . S
O370 Zn369 1.949 . S
O370 Zn371 1.923 . S
O370 Zn372 1.950 . S
O370 Zn373 1.945 . S
Zn371 O370 1.923 . S
Zn371 O374 1.933 . S
Zn371 O377 1.941 . S
Zn371 O378 1.965 . S
Zn372 O370 1.950 . S
Zn372 O379 1.938 . S
Zn372 O380 1.906 . S
Zn372 O390 1.953 . S
Zn373 O370 1.945 . S
Zn373 O375 1.932 . S
Zn373 O382 1.977 . S
Zn373 O383 1.910 . S
O374 Zn371 1.933 . S
O374 C385 1.226 . S
O375 Zn373 1.932 . S
O375 C385 1.307 . S
O376 Zn369 1.919 . S
O376 C387 1.253 . S
O377 Zn371 1.941 . S
O377 C387 1.283 . S
O378 Zn371 1.965 . S
O378 C386 1.303 . S
O379 Zn372 1.938 . S
O379 C386 1.247 . S
O380 Zn372 1.906 . S
O380 C388 1.304 . S
O381 Zn369 1.924 . S
O381 C389 1.311 . S
O382 Zn373 1.977 . S
O382 C388 1.272 . S
O383 Zn373 1.910 . S
O383 C389 1.231 . S
C384 O368 1.225 1_565 S
C384 O390 1.298 1_565 S
C385 O374 1.226 . S
C385 O375 1.307 . S
C386 O378 1.303 . S
C386 O379 1.247 . S
C387 O376 1.253 . S
C387 O377 1.283 . S
C388 O380 1.304 . S
C388 O382 1.272 . S
C389 O381 1.311 . S
C389 O383 1.231 . S
O390 Zn372 1.953 . S
O390 C384 1.298 1_545 S
O391 Zn392 1.953 . S
O391 C407 1.225 . S
Zn392 O391 1.953 . S
Zn392 O393 1.949 . S
Zn392 O399 1.919 . S
Zn392 O404 1.924 . S
O393 Zn392 1.949 . S
O393 Zn394 1.923 . S
O393 Zn395 1.950 . S
O393 Zn396 1.945 . S
Zn394 O393 1.923 . S
Zn394 O397 1.933 . S
Zn394 O400 1.941 . S
Zn394 O401 1.965 . S
Zn395 O393 1.950 . S
Zn395 O402 1.938 . S
Zn395 O403 1.906 . S
Zn395 O413 1.953 . S
Zn396 O393 1.945 . S
Zn396 O398 1.932 . S
Zn396 O405 1.977 . S
Zn396 O406 1.910 . S
O397 Zn394 1.933 . S
O397 C408 1.226 . S
O398 Zn396 1.932 . S
O398 C408 1.307 . S
O399 Zn392 1.919 . S
O399 C410 1.253 . S
O400 Zn394 1.941 . S
O400 C410 1.283 . S
O401 Zn394 1.965 . S
O401 C409 1.303 . S
O402 Zn395 1.938 . S
O402 C409 1.247 . S
O403 Zn395 1.906 . S
O403 C411 1.304 . S
O404 Zn392 1.924 . S
O404 C412 1.311 . S
O405 Zn396 1.977 . S
O405 C411 1.272 . S
O406 Zn396 1.910 . S
O406 C412 1.231 . S
C407 O391 1.225 . S
C407 O413 1.298 . S
C408 O397 1.226 . S
C408 O398 1.307 . S
C409 O401 1.303 . S
C409 O402 1.247 . S
C410 O399 1.253 . S
C410 O400 1.283 . S
C411 O403 1.304 . S
C411 O405 1.272 . S
C412 O404 1.311 . S
C412 O406 1.231 . S
O413 Zn395 1.953 . S
O413 C407 1.298 . S
O414 Zn415 1.953 . S
O414 C430 1.225 . S
Zn415 O414 1.953 . S
Zn415 O416 1.949 . S
Zn415 O422 1.919 . S
Zn415 O427 1.924 . S
O416 Zn415 1.949 . S
O416 Zn417 1.923 . S
O416 Zn418 1.950 . S
O416 Zn419 1.945 . S
Zn417 O416 1.923 . S
Zn417 O420 1.933 . S
Zn417 O423 1.941 . S
Zn417 O424 1.965 . S
Zn418 O416 1.950 . S
Zn418 O425 1.938 . S
Zn418 O426 1.906 . S
Zn418 O436 1.953 . S
Zn419 O416 1.945 . S
Zn419 O421 1.932 . S
Zn419 O428 1.977 . S
Zn419 O429 1.910 . S
O420 Zn417 1.933 . S
O420 C431 1.226 . S
O421 Zn419 1.932 . S
O421 C431 1.307 . S
O422 Zn415 1.919 . S
O422 C433 1.253 . S
O423 Zn417 1.941 . S
O423 C433 1.283 . S
O424 Zn417 1.965 . S
O424 C432 1.303 . S
O425 Zn418 1.938 . S
O425 C432 1.247 . S
O426 Zn418 1.906 . S
O426 C434 1.304 . S
O427 Zn415 1.924 . S
O427 C435 1.311 . S
O428 Zn419 1.977 . S
O428 C434 1.272 . S
O429 Zn419 1.910 . S
O429 C435 1.231 . S
C430 O414 1.225 . S
C430 O436 1.298 . S
C431 O420 1.226 . S
C431 O421 1.307 . S
C432 O424 1.303 . S
C432 O425 1.247 . S
C433 O422 1.253 . S
C433 O423 1.283 . S
C434 O426 1.304 . S
C434 O428 1.272 . S
C435 O427 1.311 . S
C435 O429 1.231 . S
O436 Zn418 1.953 . S
O436 C430 1.298 . S
O437 Zn438 1.953 . S
O437 C453 1.225 1_545 S
Zn438 O437 1.953 . S
Zn438 O439 1.949 . S
Zn438 O445 1.919 . S
Zn438 O450 1.924 . S
O439 Zn438 1.949 . S
O439 Zn440 1.923 . S
O439 Zn441 1.950 . S
O439 Zn442 1.945 . S
Zn440 O439 1.923 . S
Zn440 O443 1.933 . S
Zn440 O446 1.941 . S
Zn440 O447 1.965 . S
Zn441 O439 1.950 . S
Zn441 O448 1.938 . S
Zn441 O449 1.906 . S
Zn441 O459 1.953 . S
Zn442 O439 1.945 . S
Zn442 O444 1.932 . S
Zn442 O451 1.977 . S
Zn442 O452 1.910 . S
O443 Zn440 1.933 . S
O443 C454 1.226 . S
O444 Zn442 1.932 . S
O444 C454 1.307 . S
O445 Zn438 1.919 . S
O445 C456 1.253 . S
O446 Zn440 1.941 . S
O446 C456 1.283 . S
O447 Zn440 1.965 . S
O447 C455 1.303 . S
O448 Zn441 1.938 . S
O448 C455 1.247 . S
O449 Zn441 1.906 . S
O449 C457 1.304 . S
O450 Zn438 1.924 . S
O450 C458 1.311 . S
O451 Zn442 1.977 . S
O451 C457 1.272 . S
O452 Zn442 1.910 . S
O452 C458 1.231 . S
C453 O437 1.225 1_565 S
C453 O459 1.298 1_565 S
C454 O443 1.226 . S
C454 O444 1.307 . S
C455 O447 1.303 . S
C455 O448 1.247 . S
C456 O445 1.253 . S
C456 O446 1.283 . S
C457 O449 1.304 . S
C457 O451 1.272 . S
C458 O450 1.311 . S
C458 O452 1.231 . S
O459 Zn441 1.953 . S
O459 C453 1.298 1_545 S
O460 Zn461 1.953 . S
O460 C476 1.215 1_565 S
Zn461 O460 1.953 . S
Zn461 O462 1.949 . S
Zn461 O468 1.919 . S
Zn461 O473 1.924 . S
O462 Zn461 1.949 . S
O462 Zn463 1.923 . S
O462 Zn464 1.950 . S
O462 Zn465 1.945 . S
Zn463 O462 1.923 . S
Zn463 O466 1.933 . S
Zn463 O469 1.941 . S
Zn463 O470 1.965 . S
Zn464 O462 1.950 . S
Zn464 O471 1.938 . S
Zn464 O472 1.906 . S
Zn464 O482 1.953 . S
Zn465 O462 1.945 . S
Zn465 O467 1.932 . S
Zn465 O474 1.977 . S
Zn465 O475 1.910 . S
O466 Zn463 1.933 . S
O466 C477 1.226 . S
O467 Zn465 1.932 . S
O467 C477 1.307 . S
O468 Zn461 1.919 . S
O468 C479 1.253 . S
O469 Zn463 1.941 . S
O469 C479 1.283 . S
O470 Zn463 1.965 . S
O470 C478 1.303 . S
O471 Zn464 1.938 . S
O471 C478 1.247 . S
O472 Zn464 1.906 . S
O472 C480 1.304 . S
O473 Zn461 1.924 . S
O473 C481 1.311 . S
O474 Zn465 1.977 . S
O474 C480 1.272 . S
O475 Zn465 1.910 . S
O475 C481 1.231 . S
C476 O460 1.215 1_545 S
C476 O482 1.288 1_545 S
C477 O466 1.226 . S
C477 O467 1.307 . S
C478 O470 1.303 . S
C478 O471 1.247 . S
C479 O468 1.253 . S
C479 O469 1.283 . S
C480 O472 1.304 . S
C480 O474 1.272 . S
C481 O473 1.311 . S
C481 O475 1.231 . S
O482 Zn464 1.953 . S
O482 C476 1.288 1_565 S
O483 Zn484 1.953 . S
O483 C499 1.225 . S
Zn484 O483 1.953 . S
Zn484 O485 1.949 . S
Zn484 O491 1.919 . S
Zn484 O496 1.924 . S
O485 Zn484 1.949 . S
O485 Zn486 1.923 . S
O485 Zn487 1.950 . S
O485 Zn488 1.945 . S
Zn486 O485 1.923 . S
Zn486 O489 1.933 . S
Zn486 O492 1.941 . S
Zn486 O493 1.965 . S
Zn487 O485 1.950 . S
Zn487 O494 1.938 . S
Zn487 O495 1.906 . S
Zn487 O505 1.953 . S
Zn488 O485 1.945 . S
Zn488 O490 1.932 . S
Zn488 O497 1.977 . S
Zn488 O498 1.910 . S
O489 Zn486 1.933 . S
O489 C500 1.226 . S
O490 Zn488 1.932 . S
O490 C500 1.307 . S
O491 Zn484 1.919 . S
O491 C502 1.253 . S
O492 Zn486 1.941 . S
O492 C502 1.283 . S
O493 Zn486 1.965 . S
O493 C501 1.303 . S
O494 Zn487 1.938 . S
O494 C501 1.247 . S
O495 Zn487 1.906 . S
O495 C503 1.304 . S
O496 Zn484 1.924 . S
O496 C504 1.311 . S
O497 Zn488 1.977 . S
O497 C503 1.272 . S
O498 Zn488 1.910 . S
O498 C504 1.231 . S
C499 O483 1.225 . S
C499 O505 1.298 . S
C500 O489 1.226 . S
C500 O490 1.307 . S
C501 O493 1.303 . S
C501 O494 1.247 . S
C502 O491 1.253 . S
C502 O492 1.283 . S
C503 O495 1.304 . S
C503 O497 1.272 . S
C504 O496 1.311 . S
C504 O498 1.231 . S
O505 Zn487 1.953 . S
O505 C499 1.298 . S
O506 Zn507 1.953 . S
O506 C522 1.225 . S
Zn507 O506 1.953 . S
Zn507 O508 1.949 . S
Zn507 O514 1.919 . S
Zn507 O519 1.924 . S
O508 Zn507 1.949 . S
O508 Zn509 1.923 . S
O508 Zn510 1.950 . S
O508 Zn511 1.945 . S
Zn509 O508 1.923 . S
Zn509 O512 1.933 . S
Zn509 O515 1.941 . S
Zn509 O516 1.965 . S
Zn510 O508 1.950 . S
Zn510 O517 1.938 . S
Zn510 O518 1.906 . S
Zn510 O528 1.953 . S
Zn511 O508 1.945 . S
Zn511 O513 1.932 . S
Zn511 O520 1.977 . S
Zn511 O521 1.910 . S
O512 Zn509 1.933 . S
O512 C523 1.226 . S
O513 Zn511 1.932 . S
O513 C523 1.307 . S
O514 Zn507 1.919 . S
O514 C525 1.253 . S
O515 Zn509 1.941 . S
O515 C525 1.283 . S
O516 Zn509 1.965 . S
O516 C524 1.303 . S
O517 Zn510 1.938 . S
O517 C524 1.247 . S
O518 Zn510 1.906 . S
O518 C526 1.304 . S
O519 Zn507 1.924 . S
O519 C527 1.311 . S
O520 Zn511 1.977 . S
O520 C526 1.272 . S
O521 Zn511 1.910 . S
O521 C527 1.231 . S
C522 O506 1.225 . S
C522 O528 1.298 . S
C523 O512 1.226 . S
C523 O513 1.307 . S
C524 O516 1.303 . S
C524 O517 1.247 . S
C525 O514 1.253 . S
C525 O515 1.283 . S
C526 O518 1.304 . S
C526 O520 1.272 . S
C527 O519 1.311 . S
C527 O521 1.231 . S
O528 Zn510 1.953 . S
O528 C522 1.298 . S
O529 Zn530 1.953 . S
O529 C545 1.216 1_565 S
Zn530 O529 1.953 . S
Zn530 O531 1.949 . S
Zn530 O537 1.919 . S
Zn530 O542 1.924 . S
O531 Zn530 1.949 . S
O531 Zn532 1.923 . S
O531 Zn533 1.950 . S
O531 Zn534 1.945 . S
Zn532 O531 1.923 . S
Zn532 O535 1.933 . S
Zn532 O538 1.941 . S
Zn532 O539 1.965 . S
Zn533 O531 1.950 . S
Zn533 O540 1.938 . S
Zn533 O541 1.906 . S
Zn533 O551 1.953 . S
Zn534 O531 1.945 . S
Zn534 O536 1.932 . S
Zn534 O543 1.977 . S
Zn534 O544 1.910 . S
O535 Zn532 1.933 . S
O535 C546 1.226 . S
O536 Zn534 1.932 . S
O536 C546 1.307 . S
O537 Zn530 1.919 . S
O537 C548 1.253 . S
O538 Zn532 1.941 . S
O538 C548 1.283 . S
O539 Zn532 1.965 . S
O539 C547 1.303 . S
O540 Zn533 1.938 . S
O540 C547 1.247 . S
O541 Zn533 1.906 . S
O541 C549 1.304 . S
O542 Zn530 1.924 . S
O542 C550 1.311 . S
O543 Zn534 1.977 . S
O543 C549 1.272 . S
O544 Zn534 1.910 . S
O544 C550 1.231 . S
C545 O529 1.216 1_545 S
C545 O551 1.289 1_545 S
C546 O535 1.226 . S
C546 O536 1.307 . S
C547 O539 1.303 . S
C547 O540 1.247 . S
C548 O537 1.253 . S
C548 O538 1.283 . S
C549 O541 1.304 . S
C549 O543 1.272 . S
C550 O542 1.311 . S
C550 O544 1.231 . S
O551 Zn533 1.953 . S
O551 C545 1.289 1_565 S
O552 Zn553 1.953 . S
O552 C568 1.225 1_556 S
Zn553 O552 1.953 . S
Zn553 O554 1.930 1_556 S
Zn553 O560 1.919 . S
Zn553 O565 1.924 . S
O554 Zn553 1.930 1_554 S
O554 Zn555 1.909 1_554 S
O554 Zn556 1.970 . S
O554 Zn557 1.957 . S
Zn555 O554 1.909 1_556 S
Zn555 O558 1.933 . S
Zn555 O561 1.941 . S
Zn555 O562 1.965 . S
Zn556 O554 1.970 . S
Zn556 O563 1.938 . S
Zn556 O564 1.906 . S
Zn556 O574 1.953 . S
Zn557 O554 1.957 . S
Zn557 O559 1.932 . S
Zn557 O566 1.977 . S
Zn557 O567 1.910 . S
O558 Zn555 1.933 . S
O558 C569 1.226 . S
O559 Zn557 1.932 . S
O559 C569 1.307 1_554 S
O560 Zn553 1.919 . S
O560 C571 1.253 . S
O561 Zn555 1.941 . S
O561 C571 1.283 . S
O562 Zn555 1.965 . S
O562 C570 1.303 1_556 S
O563 Zn556 1.938 . S
O563 C570 1.247 . S
O564 Zn556 1.906 . S
O564 C572 1.304 . S
O565 Zn553 1.924 . S
O565 C573 1.286 1_556 S
O566 Zn557 1.977 . S
O566 C572 1.272 . S
O567 Zn557 1.910 . S
O567 C573 1.250 . S
C568 O552 1.225 1_554 S
C568 O574 1.298 . S
C569 O558 1.226 . S
C569 O559 1.307 1_556 S
C570 O562 1.303 1_554 S
C570 O563 1.247 . S
C571 O560 1.253 . S
C571 O561 1.283 . S
C572 O564 1.304 . S
C572 O566 1.272 . S
C573 O565 1.286 1_554 S
C573 O567 1.250 . S
O574 Zn556 1.953 . S
O574 C568 1.298 . S
O575 Zn576 1.953 . S
O575 C591 1.225 1_556 S
Zn576 O575 1.953 . S
Zn576 O577 1.930 1_556 S
Zn576 O583 1.919 . S
Zn576 O588 1.924 . S
O577 Zn576 1.930 1_554 S
O577 Zn578 1.909 1_554 S
O577 Zn579 1.970 . S
O577 Zn580 1.957 . S
Zn578 O577 1.909 1_556 S
Zn578 O581 1.933 . S
Zn578 O584 1.941 . S
Zn578 O585 1.965 . S
Zn579 O577 1.970 . S
Zn579 O586 1.938 . S
Zn579 O587 1.906 . S
Zn579 O597 1.953 . S
Zn580 O577 1.957 . S
Zn580 O582 1.932 . S
Zn580 O589 1.977 . S
Zn580 O590 1.910 . S
O581 Zn578 1.933 . S
O581 C592 1.226 . S
O582 Zn580 1.932 . S
O582 C592 1.307 1_554 S
O583 Zn576 1.919 . S
O583 C594 1.253 . S
O584 Zn578 1.941 . S
O584 C594 1.283 . S
O585 Zn578 1.965 . S
O585 C593 1.303 1_556 S
O586 Zn579 1.938 . S
O586 C593 1.247 . S
O587 Zn579 1.906 . S
O587 C595 1.304 . S
O588 Zn576 1.924 . S
O588 C596 1.286 1_556 S
O589 Zn580 1.977 . S
O589 C595 1.272 . S
O590 Zn580 1.910 . S
O590 C596 1.250 . S
C591 O575 1.225 1_554 S
C591 O597 1.298 . S
C592 O581 1.226 . S
C592 O582 1.307 1_556 S
C593 O585 1.303 1_554 S
C593 O586 1.247 . S
C594 O583 1.253 . S
C594 O584 1.283 . S
C595 O587 1.304 . S
C595 O589 1.272 . S
C596 O588 1.286 1_554 S
C596 O590 1.250 . S
O597 Zn579 1.953 . S
O597 C591 1.298 . S
O598 Zn599 1.953 . S
O598 C614 1.225 . S
Zn599 O598 1.953 . S
Zn599 O600 1.949 . S
Zn599 O606 1.919 . S
Zn599 O611 1.924 . S
O600 Zn599 1.949 . S
O600 Zn601 1.923 . S
O600 Zn602 1.950 . S
O600 Zn603 1.945 . S
Zn601 O600 1.923 . S
Zn601 O604 1.933 . S
Zn601 O607 1.941 . S
Zn601 O608 1.965 . S
Zn602 O600 1.950 . S
Zn602 O609 1.938 . S
Zn602 O610 1.906 . S
Zn602 O620 1.953 . S
Zn603 O600 1.945 . S
Zn603 O605 1.932 . S
Zn603 O612 1.977 . S
Zn603 O613 1.910 . S
O604 Zn601 1.933 . S
O604 C615 1.226 . S
O605 Zn603 1.932 . S
O605 C615 1.307 . S
O606 Zn599 1.919 . S
O606 C617 1.253 . S
O607 Zn601 1.941 . S
O607 C617 1.283 . S
O608 Zn601 1.965 . S
O608 C616 1.303 . S
O609 Zn602 1.938 . S
O609 C616 1.247 . S
O610 Zn602 1.906 . S
O610 C618 1.304 . S
O611 Zn599 1.924 . S
O611 C619 1.311 . S
O612 Zn603 1.977 . S
O612 C618 1.272 . S
O613 Zn603 1.910 . S
O613 C619 1.231 . S
C614 O598 1.225 . S
C614 O620 1.298 . S
C615 O604 1.226 . S
C615 O605 1.307 . S
C616 O608 1.303 . S
C616 O609 1.247 . S
C617 O606 1.253 . S
C617 O607 1.283 . S
C618 O610 1.304 . S
C618 O612 1.272 . S
C619 O611 1.311 . S
C619 O613 1.231 . S
O620 Zn602 1.953 . S
O620 C614 1.298 . S
O621 Zn622 1.953 . S
O621 C637 1.225 . S
Zn622 O621 1.953 . S
Zn622 O623 1.949 . S
Zn622 O629 1.919 . S
Zn622 O634 1.924 . S
O623 Zn622 1.949 . S
O623 Zn624 1.923 . S
O623 Zn625 1.950 . S
O623 Zn626 1.945 . S
Zn624 O623 1.923 . S
Zn624 O627 1.933 . S
Zn624 O630 1.941 . S
Zn624 O631 1.965 . S
Zn625 O623 1.950 . S
Zn625 O632 1.938 . S
Zn625 O633 1.906 . S
Zn625 O643 1.953 . S
Zn626 O623 1.945 . S
Zn626 O628 1.932 . S
Zn626 O635 1.977 . S
Zn626 O636 1.910 . S
O627 Zn624 1.933 . S
O627 C638 1.226 . S
O628 Zn626 1.932 . S
O628 C638 1.307 . S
O629 Zn622 1.919 . S
O629 C640 1.253 . S
O630 Zn624 1.941 . S
O630 C640 1.283 . S
O631 Zn624 1.965 . S
O631 C639 1.303 . S
O632 Zn625 1.938 . S
O632 C639 1.247 . S
O633 Zn625 1.906 . S
O633 C641 1.304 . S
O634 Zn622 1.924 . S
O634 C642 1.311 . S
O635 Zn626 1.977 . S
O635 C641 1.272 . S
O636 Zn626 1.910 . S
O636 C642 1.231 . S
C637 O621 1.225 . S
C637 O643 1.298 . S
C638 O627 1.226 . S
C638 O628 1.307 . S
C639 O631 1.303 . S
C639 O632 1.247 . S
C640 O629 1.253 . S
C640 O630 1.283 . S
C641 O633 1.304 . S
C641 O635 1.272 . S
C642 O634 1.311 . S
C642 O636 1.231 . S
O643 Zn625 1.953 . S
O643 C637 1.298 . S
O644 Zn645 1.953 . S
O644 C660 1.225 . S
Zn645 O644 1.953 . S
Zn645 O646 1.937 1_556 S
Zn645 O652 1.919 . S
Zn645 O657 1.924 . S
O646 Zn645 1.937 1_554 S
O646 Zn647 1.917 1_554 S
O646 Zn648 1.960 . S
O646 Zn649 1.952 . S
Zn647 O646 1.917 1_556 S
Zn647 O650 1.933 . S
Zn647 O653 1.941 . S
Zn647 O654 1.965 . S
Zn648 O646 1.960 . S
Zn648 O655 1.938 . S
Zn648 O656 1.906 . S
Zn648 O666 1.953 . S
Zn649 O646 1.952 . S
Zn649 O651 1.932 . S
Zn649 O658 1.977 . S
Zn649 O659 1.910 . S
O650 Zn647 1.933 . S
O650 C661 1.226 1_556 S
O651 Zn649 1.932 . S
O651 C661 1.307 . S
O652 Zn645 1.919 . S
O652 C663 1.253 . S
O653 Zn647 1.941 . S
O653 C663 1.283 . S
O654 Zn647 1.965 . S
O654 C662 1.303 1_556 S
O655 Zn648 1.938 . S
O655 C662 1.247 . S
O656 Zn648 1.906 . S
O656 C664 1.304 . S
O657 Zn645 1.924 . S
O657 C665 1.311 . S
O658 Zn649 1.977 . S
O658 C664 1.272 . S
O659 Zn649 1.910 . S
O659 C665 1.231 1_554 S
C660 O644 1.225 . S
C660 O666 1.298 1_556 S
C661 O650 1.226 1_554 S
C661 O651 1.307 . S
C662 O654 1.303 1_554 S
C662 O655 1.247 . S
C663 O652 1.253 . S
C663 O653 1.283 . S
C664 O656 1.304 . S
C664 O658 1.272 . S
C665 O657 1.311 . S
C665 O659 1.231 1_556 S
O666 Zn648 1.953 . S
O666 C660 1.298 1_554 S
O667 Zn668 1.953 . S
O667 C683 1.225 . S
Zn668 O667 1.953 . S
Zn668 O669 1.937 1_556 S
Zn668 O675 1.919 . S
Zn668 O680 1.924 . S
O669 Zn668 1.937 1_554 S
O669 Zn670 1.917 1_554 S
O669 Zn671 1.960 . S
O669 Zn672 1.952 . S
Zn670 O669 1.917 1_556 S
Zn670 O673 1.933 . S
Zn670 O676 1.941 . S
Zn670 O677 1.965 . S
Zn671 O669 1.960 . S
Zn671 O678 1.938 . S
Zn671 O679 1.906 . S
Zn671 O689 1.953 . S
Zn672 O669 1.952 . S
Zn672 O674 1.932 . S
Zn672 O681 1.977 . S
Zn672 O682 1.910 . S
O673 Zn670 1.933 . S
O673 C684 1.226 1_556 S
O674 Zn672 1.932 . S
O674 C684 1.307 . S
O675 Zn668 1.919 . S
O675 C686 1.253 . S
O676 Zn670 1.941 . S
O676 C686 1.283 . S
O677 Zn670 1.965 . S
O677 C685 1.303 1_556 S
O678 Zn671 1.938 . S
O678 C685 1.247 . S
O679 Zn671 1.906 . S
O679 C687 1.304 . S
O680 Zn668 1.924 . S
O680 C688 1.311 . S
O681 Zn672 1.977 . S
O681 C687 1.272 . S
O682 Zn672 1.910 . S
O682 C688 1.231 1_554 S
C683 O667 1.225 . S
C683 O689 1.298 1_556 S
C684 O673 1.226 1_554 S
C684 O674 1.307 . S
C685 O677 1.303 1_554 S
C685 O678 1.247 . S
C686 O675 1.253 . S
C686 O676 1.283 . S
C687 O679 1.304 . S
C687 O681 1.272 . S
C688 O680 1.311 . S
C688 O682 1.231 1_556 S
O689 Zn671 1.953 . S
O689 C683 1.298 1_554 S
O690 Zn691 1.953 . S
O690 C706 1.225 . S
Zn691 O690 1.953 . S
Zn691 O692 1.949 . S
Zn691 O698 1.919 . S
Zn691 O703 1.924 . S
O692 Zn691 1.949 . S
O692 Zn693 1.923 . S
O692 Zn694 1.950 . S
O692 Zn695 1.945 . S
Zn693 O692 1.923 . S
Zn693 O696 1.933 . S
Zn693 O699 1.941 . S
Zn693 O700 1.965 . S
Zn694 O692 1.950 . S
Zn694 O701 1.938 . S
Zn694 O702 1.906 . S
Zn694 O712 1.953 . S
Zn695 O692 1.945 . S
Zn695 O697 1.932 . S
Zn695 O704 1.977 . S
Zn695 O705 1.910 . S
O696 Zn693 1.933 . S
O696 C707 1.226 . S
O697 Zn695 1.932 . S
O697 C707 1.307 . S
O698 Zn691 1.919 . S
O698 C709 1.253 . S
O699 Zn693 1.941 . S
O699 C709 1.283 . S
O700 Zn693 1.965 . S
O700 C708 1.303 . S
O701 Zn694 1.938 . S
O701 C708 1.247 . S
O702 Zn694 1.906 . S
O702 C710 1.304 . S
O703 Zn691 1.924 . S
O703 C711 1.311 . S
O704 Zn695 1.977 . S
O704 C710 1.272 . S
O705 Zn695 1.910 . S
O705 C711 1.231 . S
C706 O690 1.225 . S
C706 O712 1.298 . S
C707 O696 1.226 . S
C707 O697 1.307 . S
C708 O700 1.303 . S
C708 O701 1.247 . S
C709 O698 1.253 . S
C709 O699 1.283 . S
C710 O702 1.304 . S
C710 O704 1.272 . S
C711 O703 1.311 . S
C711 O705 1.231 . S
O712 Zn694 1.953 . S
O712 C706 1.298 . S
O713 Zn714 1.953 . S
O713 C729 1.225 . S
Zn714 O713 1.953 . S
Zn714 O715 1.949 . S
Zn714 O721 1.919 . S
Zn714 O726 1.924 . S
O715 Zn714 1.949 . S
O715 Zn716 1.923 . S
O715 Zn717 1.950 . S
O715 Zn718 1.945 . S
Zn716 O715 1.923 . S
Zn716 O719 1.933 . S
Zn716 O722 1.941 . S
Zn716 O723 1.965 . S
Zn717 O715 1.950 . S
Zn717 O724 1.938 . S
Zn717 O725 1.906 . S
Zn717 O735 1.953 . S
Zn718 O715 1.945 . S
Zn718 O720 1.932 . S
Zn718 O727 1.977 . S
Zn718 O728 1.910 . S
O719 Zn716 1.933 . S
O719 C730 1.226 . S
O720 Zn718 1.932 . S
O720 C730 1.307 . S
O721 Zn714 1.919 . S
O721 C732 1.253 . S
O722 Zn716 1.941 . S
O722 C732 1.283 . S
O723 Zn716 1.965 . S
O723 C731 1.303 . S
O724 Zn717 1.938 . S
O724 C731 1.247 . S
O725 Zn717 1.906 . S
O725 C733 1.304 . S
O726 Zn714 1.924 . S
O726 C734 1.311 . S
O727 Zn718 1.977 . S
O727 C733 1.272 . S
O728 Zn718 1.910 . S
O728 C734 1.231 . S
C729 O713 1.225 . S
C729 O735 1.298 . S
C730 O719 1.226 . S
C730 O720 1.307 . S
C731 O723 1.303 . S
C731 O724 1.247 . S
C732 O721 1.253 . S
C732 O722 1.283 . S
C733 O725 1.304 . S
C733 O727 1.272 . S
C734 O726 1.311 . S
C734 O728 1.231 . S
O735 Zn717 1.953 . S
O735 C729 1.298 . S
H736 C744 0.950 . S
H737 C749 0.950 . S
H738 C746 0.950 . S
H739 C748 0.950 . S
H740 C750 0.950 . S
H741 C752 0.950 . S
H742 C754 0.950 . S
H743 C755 0.950 . S
C744 H736 0.950 . S
C744 C745 1.386 . S
C744 C746 1.391 . S
C745 C744 1.386 . S
C745 C749 1.393 1_554 S
C746 H738 0.950 . S
C746 C744 1.391 . S
C746 C747 1.400 . S
C747 C746 1.400 . S
C747 C748 1.398 1_554 S
C747 C753 1.491 . S
C748 H739 0.950 . S
C748 C747 1.398 1_556 S
C748 C749 1.391 . S
C749 H737 0.950 . S
C749 C745 1.393 1_556 S
C749 C748 1.391 . S
C750 H740 0.950 . S
C750 C751 1.386 1_556 S
C750 C752 1.391 . S
C751 C750 1.386 1_554 S
C751 C755 1.393 . S
C752 H741 0.950 . S
C752 C750 1.391 . S
C752 C753 1.400 1_556 S
C753 C747 1.491 . S
C753 C752 1.400 1_554 S
C753 C754 1.398 . S
C754 H742 0.950 . S
C754 C753 1.398 . S
C754 C755 1.391 . S
C755 H743 0.950 . S
C755 C751 1.393 . S
C755 C754 1.391 . S
H756 C764 0.950 . S
H757 C769 0.950 . S
H758 C766 0.950 . S
H759 C768 0.950 . S
H760 C770 0.950 . S
H761 C772 0.950 . S
H762 C774 0.950 . S
H763 C775 0.950 . S
C764 H756 0.950 . S
C764 C765 1.386 . S
C764 C766 1.391 . S
C765 C764 1.386 . S
C765 C769 1.393 1_554 S
C766 H758 0.950 . S
C766 C764 1.391 . S
C766 C767 1.400 . S
C767 C766 1.400 . S
C767 C768 1.398 1_554 S
C767 C773 1.491 . S
C768 H759 0.950 . S
C768 C767 1.398 1_556 S
C768 C769 1.391 . S
C769 H757 0.950 . S
C769 C765 1.393 1_556 S
C769 C768 1.391 . S
C770 H760 0.950 . S
C770 C771 1.386 1_556 S
C770 C772 1.391 . S
C771 C770 1.386 1_554 S
C771 C775 1.393 . S
C772 H761 0.950 . S
C772 C770 1.391 . S
C772 C773 1.400 1_556 S
C773 C767 1.491 . S
C773 C772 1.400 1_554 S
C773 C774 1.398 . S
C774 H762 0.950 . S
C774 C773 1.398 . S
C774 C775 1.391 . S
C775 H763 0.950 . S
C775 C771 1.393 . S
C775 C774 1.391 . S
H776 C784 0.950 . S
H777 C789 0.950 . S
H778 C786 0.950 . S
H779 C788 0.950 . S
H780 C790 0.950 . S
H781 C792 0.950 . S
H782 C794 0.950 . S
H783 C795 0.950 . S
C784 H776 0.950 . S
C784 C785 1.386 . S
C784 C786 1.391 . S
C785 C784 1.386 . S
C785 C789 1.393 . S
C786 H778 0.950 . S
C786 C784 1.391 . S
C786 C787 1.400 . S
C787 C786 1.400 . S
C787 C788 1.398 . S
C787 C793 1.491 . S
C788 H779 0.950 . S
C788 C787 1.398 . S
C788 C789 1.391 . S
C789 H777 0.950 . S
C789 C785 1.393 . S
C789 C788 1.391 . S
C790 H780 0.950 . S
C790 C791 1.386 . S
C790 C792 1.391 . S
C791 C790 1.386 . S
C791 C795 1.393 . S
C792 H781 0.950 . S
C792 C790 1.391 . S
C792 C793 1.400 . S
C793 C787 1.491 . S
C793 C792 1.400 . S
C793 C794 1.398 . S
C794 H782 0.950 . S
C794 C793 1.398 . S
C794 C795 1.391 . S
C795 H783 0.950 . S
C795 C791 1.393 . S
C795 C794 1.391 . S
H796 C804 0.950 . S
H797 C809 0.950 . S
H798 C806 0.950 . S
H799 C808 0.950 . S
H800 C810 0.950 . S
H801 C812 0.950 . S
H802 C814 0.950 . S
H803 C815 0.950 . S
C804 H796 0.950 . S
C804 C805 1.386 . S
C804 C806 1.391 . S
C805 C804 1.386 . S
C805 C809 1.393 . S
C806 H798 0.950 . S
C806 C804 1.391 . S
C806 C807 1.400 . S
C807 C806 1.400 . S
C807 C808 1.398 . S
C807 C813 1.491 . S
C808 H799 0.950 . S
C808 C807 1.398 . S
C808 C809 1.391 . S
C809 H797 0.950 . S
C809 C805 1.393 . S
C809 C808 1.391 . S
C810 H800 0.950 . S
C810 C811 1.386 . S
C810 C812 1.391 . S
C811 C810 1.386 . S
C811 C815 1.393 . S
C812 H801 0.950 . S
C812 C810 1.391 . S
C812 C813 1.400 . S
C813 C807 1.491 . S
C813 C812 1.400 . S
C813 C814 1.398 . S
C814 H802 0.950 . S
C814 C813 1.398 . S
C814 C815 1.391 . S
C815 H803 0.950 . S
C815 C811 1.393 . S
C815 C814 1.391 . S
H816 C824 0.950 . S
H817 C829 0.950 . S
H818 C826 0.950 . S
H819 C828 0.950 . S
H820 C830 0.950 . S
H821 C832 0.950 . S
H822 C834 0.950 . S
H823 C835 0.950 . S
C824 H816 0.950 . S
C824 C825 1.386 . S
C824 C826 1.391 . S
C825 C824 1.386 . S
C825 C829 1.393 1_556 S
C826 H818 0.950 . S
C826 C824 1.391 . S
C826 C827 1.400 . S
C827 C826 1.400 . S
C827 C828 1.398 1_556 S
C827 C833 1.491 . S
C828 H819 0.950 . S
C828 C827 1.398 1_554 S
C828 C829 1.391 . S
C829 H817 0.950 . S
C829 C825 1.393 1_554 S
C829 C828 1.391 . S
C830 H820 0.950 . S
C830 C831 1.386 1_554 S
C830 C832 1.391 . S
C831 C830 1.386 1_556 S
C831 C835 1.393 . S
C832 H821 0.950 . S
C832 C830 1.391 . S
C832 C833 1.400 1_554 S
C833 C827 1.491 . S
C833 C832 1.400 1_556 S
C833 C834 1.398 . S
C834 H822 0.950 . S
C834 C833 1.398 . S
C834 C835 1.391 . S
C835 H823 0.950 . S
C835 C831 1.393 . S
C835 C834 1.391 . S
H836 C844 0.950 . S
H837 C849 0.950 . S
H838 C846 0.950 . S
H839 C848 0.950 . S
H840 C850 0.950 . S
H841 C852 0.950 . S
H842 C854 0.950 . S
H843 C855 0.950 . S
C844 H836 0.950 . S
C844 C845 1.386 1_554 S
C844 C846 1.391 . S
C845 C844 1.386 1_556 S
C845 C849 1.393 . S
C846 H838 0.950 . S
C846 C844 1.391 . S
C846 C847 1.400 1_554 S
C847 C846 1.400 1_556 S
C847 C848 1.398 . S
C847 C853 1.491 . S
C848 H839 0.950 . S
C848 C847 1.398 . S
C848 C849 1.391 . S
C849 H837 0.950 . S
C849 C845 1.393 . S
C849 C848 1.391 . S
C850 H840 0.950 . S
C850 C851 1.386 . S
C850 C852 1.391 . S
C851 C850 1.386 . S
C851 C855 1.393 1_556 S
C852 H841 0.950 . S
C852 C850 1.391 . S
C852 C853 1.400 . S
C853 C847 1.491 . S
C853 C852 1.400 . S
C853 C854 1.398 1_556 S
C854 H842 0.950 . S
C854 C853 1.398 1_554 S
C854 C855 1.391 . S
C855 H843 0.950 . S
C855 C851 1.393 1_554 S
C855 C854 1.391 . S
H856 C864 0.950 . S
H857 C869 0.950 . S
H858 C866 0.950 . S
H859 C868 0.950 . S
H860 C870 0.950 . S
H861 C872 0.950 . S
H862 C874 0.950 . S
H863 C875 0.950 . S
C864 H856 0.950 . S
C864 C865 1.386 . S
C864 C866 1.391 . S
C865 C864 1.386 . S
C865 C869 1.393 . S
C866 H858 0.950 . S
C866 C864 1.391 . S
C866 C867 1.400 . S
C867 C866 1.400 . S
C867 C868 1.398 . S
C867 C873 1.491 . S
C868 H859 0.950 . S
C868 C867 1.398 . S
C868 C869 1.391 . S
C869 H857 0.950 . S
C869 C865 1.393 . S
C869 C868 1.391 . S
C870 H860 0.950 . S
C870 C871 1.386 . S
C870 C872 1.391 . S
C871 C870 1.386 . S
C871 C875 1.393 . S
C872 H861 0.950 . S
C872 C870 1.391 . S
C872 C873 1.400 . S
C873 C867 1.491 . S
C873 C872 1.400 . S
C873 C874 1.398 . S
C874 H862 0.950 . S
C874 C873 1.398 . S
C874 C875 1.391 . S
C875 H863 0.950 . S
C875 C871 1.393 . S
C875 C874 1.391 . S
H876 C884 0.950 . S
H877 C889 0.950 . S
H878 C886 0.950 . S
H879 C888 0.950 . S
H880 C890 0.950 . S
H881 C892 0.950 . S
H882 C894 0.950 . S
H883 C895 0.950 . S
C884 H876 0.950 . S
C884 C885 1.386 . S
C884 C886 1.391 . S
C885 C884 1.386 . S
C885 C889 1.393 . S
C886 H878 0.950 . S
C886 C884 1.391 . S
C886 C887 1.400 . S
C887 C886 1.400 . S
C887 C888 1.398 . S
C887 C893 1.491 . S
C888 H879 0.950 . S
C888 C887 1.398 . S
C888 C889 1.391 . S
C889 H877 0.950 . S
C889 C885 1.393 . S
C889 C888 1.391 . S
C890 H880 0.950 . S
C890 C891 1.386 . S
C890 C892 1.391 . S
C891 C890 1.386 . S
C891 C895 1.393 . S
C892 H881 0.950 . S
C892 C890 1.391 . S
C892 C893 1.400 . S
C893 C887 1.491 . S
C893 C892 1.400 . S
C893 C894 1.398 . S
C894 H882 0.950 . S
C894 C893 1.398 . S
C894 C895 1.391 . S
C895 H883 0.950 . S
C895 C891 1.393 . S
C895 C894 1.391 . S
H896 C904 0.950 . S
H897 C909 0.950 . S
H898 C906 0.950 . S
H899 C908 0.950 . S
H900 C910 0.950 . S
H901 C912 0.950 . S
H902 C914 0.950 . S
H903 C915 0.950 . S
C904 H896 0.950 . S
C904 C905 1.386 . S
C904 C906 1.391 . S
C905 C904 1.386 . S
C905 C909 1.393 . S
C906 H898 0.950 . S
C906 C904 1.391 . S
C906 C907 1.400 . S
C907 C906 1.400 . S
C907 C908 1.398 . S
C907 C913 1.491 . S
C908 H899 0.950 . S
C908 C907 1.398 . S
C908 C909 1.391 . S
C909 H897 0.950 . S
C909 C905 1.393 . S
C909 C908 1.391 . S
C910 H900 0.950 . S
C910 C911 1.386 . S
C910 C912 1.391 . S
C911 C910 1.386 . S
C911 C915 1.393 . S
C912 H901 0.950 . S
C912 C910 1.391 . S
C912 C913 1.400 . S
C913 C907 1.491 . S
C913 C912 1.400 . S
C913 C914 1.398 . S
C914 H902 0.950 . S
C914 C913 1.398 . S
C914 C915 1.391 . S
C915 H903 0.950 . S
C915 C911 1.393 . S
C915 C914 1.391 . S
H916 C924 0.950 . S
H917 C929 0.950 . S
H918 C926 0.950 . S
H919 C928 0.950 . S
H920 C930 0.950 . S
H921 C932 0.950 . S
H922 C934 0.950 . S
H923 C935 0.950 . S
C924 H916 0.950 . S
C924 C925 1.386 . S
C924 C926 1.391 . S
C925 C924 1.386 . S
C925 C929 1.393 . S
C926 H918 0.950 . S
C926 C924 1.391 . S
C926 C927 1.400 . S
C927 C926 1.400 . S
C927 C928 1.398 . S
C927 C933 1.491 . S
C928 H919 0.950 . S
C928 C927 1.398 . S
C928 C929 1.391 . S
C929 H917 0.950 . S
C929 C925 1.393 . S
C929 C928 1.391 . S
C930 H920 0.950 . S
C930 C931 1.386 . S
C930 C932 1.391 . S
C931 C930 1.386 . S
C931 C935 1.393 . S
C932 H921 0.950 . S
C932 C930 1.391 . S
C932 C933 1.400 . S
C933 C927 1.491 . S
C933 C932 1.400 . S
C933 C934 1.398 . S
C934 H922 0.950 . S
C934 C933 1.398 . S
C934 C935 1.391 . S
C935 H923 0.950 . S
C935 C931 1.393 . S
C935 C934 1.391 . S
H936 C944 0.950 . S
H937 C949 0.950 . S
H938 C946 0.950 . S
H939 C948 0.950 . S
H940 C950 0.950 . S
H941 C952 0.950 . S
H942 C954 0.950 . S
H943 C955 0.950 . S
C944 H936 0.950 . S
C944 C945 1.386 . S
C944 C946 1.391 . S
C945 C944 1.386 . S
C945 C949 1.393 . S
C946 H938 0.950 . S
C946 C944 1.391 . S
C946 C947 1.400 . S
C947 C946 1.400 . S
C947 C948 1.398 . S
C947 C953 1.491 . S
C948 H939 0.950 . S
C948 C947 1.398 . S
C948 C949 1.391 . S
C949 H937 0.950 . S
C949 C945 1.393 . S
C949 C948 1.391 . S
C950 H940 0.950 . S
C950 C951 1.386 . S
C950 C952 1.391 . S
C951 C950 1.386 . S
C951 C955 1.393 . S
C952 H941 0.950 . S
C952 C950 1.391 . S
C952 C953 1.400 . S
C953 C947 1.491 . S
C953 C952 1.400 . S
C953 C954 1.398 . S
C954 H942 0.950 . S
C954 C953 1.398 . S
C954 C955 1.391 . S
C955 H943 0.950 . S
C955 C951 1.393 . S
C955 C954 1.391 . S
H956 C964 0.950 . S
H957 C969 0.950 . S
H958 C966 0.950 . S
H959 C968 0.950 . S
H960 C970 0.950 . S
H961 C972 0.950 . S
H962 C974 0.950 . S
H963 C975 0.950 . S
C964 H956 0.950 . S
C964 C965 1.386 . S
C964 C966 1.391 . S
C965 C964 1.386 . S
C965 C969 1.393 . S
C966 H958 0.950 . S
C966 C964 1.391 . S
C966 C967 1.400 . S
C967 C966 1.400 . S
C967 C968 1.398 . S
C967 C973 1.491 . S
C968 H959 0.950 . S
C968 C967 1.398 . S
C968 C969 1.391 . S
C969 H957 0.950 . S
C969 C965 1.393 . S
C969 C968 1.391 . S
C970 H960 0.950 . S
C970 C971 1.386 . S
C970 C972 1.391 . S
C971 C970 1.386 . S
C971 C975 1.393 . S
C972 H961 0.950 . S
C972 C970 1.391 . S
C972 C973 1.400 . S
C973 C967 1.491 . S
C973 C972 1.400 . S
C973 C974 1.398 . S
C974 H962 0.950 . S
C974 C973 1.398 . S
C974 C975 1.391 . S
C975 H963 0.950 . S
C975 C971 1.393 . S
C975 C974 1.391 . S
H976 C984 0.950 . S
H977 C989 0.950 . S
H978 C986 0.950 . S
H979 C988 0.950 . S
H980 C990 0.950 . S
H981 C992 0.950 . S
H982 C994 0.950 . S
H983 C995 0.950 . S
C984 H976 0.950 . S
C984 C985 1.386 . S
C984 C986 1.391 . S
C985 C984 1.386 . S
C985 C989 1.393 . S
C986 H978 0.950 . S
C986 C984 1.391 . S
C986 C987 1.400 . S
C987 C986 1.400 . S
C987 C988 1.398 . S
C987 C993 1.491 . S
C988 H979 0.950 . S
C988 C987 1.398 . S
C988 C989 1.391 . S
C989 H977 0.950 . S
C989 C985 1.393 . S
C989 C988 1.391 . S
C990 H980 0.950 . S
C990 C991 1.386 . S
C990 C992 1.391 . S
C991 C990 1.386 . S
C991 C995 1.393 . S
C992 H981 0.950 . S
C992 C990 1.391 . S
C992 C993 1.400 . S
C993 C987 1.491 . S
C993 C992 1.400 . S
C993 C994 1.398 . S
C994 H982 0.950 . S
C994 C993 1.398 . S
C994 C995 1.391 . S
C995 H983 0.950 . S
C995 C991 1.393 . S
C995 C994 1.391 . S
H996 C1004 0.950 . S
H997 C1009 0.950 . S
H998 C1006 0.950 . S
H999 C1008 0.950 . S
H1000 C1010 0.950 . S
H1001 C1012 0.950 . S
H1002 C1014 0.950 . S
H1003 C1015 0.950 . S
C1004 H996 0.950 . S
C1004 C1005 1.386 . S
C1004 C1006 1.391 . S
C1005 C1004 1.386 . S
C1005 C1009 1.393 . S
C1006 H998 0.950 . S
C1006 C1004 1.391 . S
C1006 C1007 1.400 . S
C1007 C1006 1.400 . S
C1007 C1008 1.398 . S
C1007 C1013 1.491 . S
C1008 H999 0.950 . S
C1008 C1007 1.398 . S
C1008 C1009 1.391 . S
C1009 H997 0.950 . S
C1009 C1005 1.393 . S
C1009 C1008 1.391 . S
C1010 H1000 0.950 . S
C1010 C1011 1.386 . S
C1010 C1012 1.391 . S
C1011 C1010 1.386 . S
C1011 C1015 1.393 . S
C1012 H1001 0.950 . S
C1012 C1010 1.391 . S
C1012 C1013 1.400 . S
C1013 C1007 1.491 . S
C1013 C1012 1.400 . S
C1013 C1014 1.398 . S
C1014 H1002 0.950 . S
C1014 C1013 1.398 . S
C1014 C1015 1.391 . S
C1015 H1003 0.950 . S
C1015 C1011 1.393 . S
C1015 C1014 1.391 . S
H1016 C1024 0.950 . S
H1017 C1029 0.950 . S
H1018 C1026 0.950 . S
H1019 C1028 0.950 . S
H1020 C1030 0.950 . S
H1021 C1032 0.950 . S
H1022 C1034 0.950 . S
H1023 C1035 0.950 . S
C1024 H1016 0.950 . S
C1024 C1025 1.386 . S
C1024 C1026 1.391 . S
C1025 C1024 1.386 . S
C1025 C1029 1.393 . S
C1026 H1018 0.950 . S
C1026 C1024 1.391 . S
C1026 C1027 1.400 . S
C1027 C1026 1.400 . S
C1027 C1028 1.398 . S
C1027 C1033 1.491 . S
C1028 H1019 0.950 . S
C1028 C1027 1.398 . S
C1028 C1029 1.391 . S
C1029 H1017 0.950 . S
C1029 C1025 1.393 . S
C1029 C1028 1.391 . S
C1030 H1020 0.950 . S
C1030 C1031 1.386 . S
C1030 C1032 1.391 . S
C1031 C1030 1.386 . S
C1031 C1035 1.393 . S
C1032 H1021 0.950 . S
C1032 C1030 1.391 . S
C1032 C1033 1.400 . S
C1033 C1027 1.491 . S
C1033 C1032 1.400 . S
C1033 C1034 1.398 . S
C1034 H1022 0.950 . S
C1034 C1033 1.398 . S
C1034 C1035 1.391 . S
C1035 H1023 0.950 . S
C1035 C1031 1.393 . S
C1035 C1034 1.391 . S
H1036 C1044 0.950 . S
H1037 C1049 0.950 . S
H1038 C1046 0.950 . S
H1039 C1048 0.950 . S
H1040 C1050 0.950 . S
H1041 C1052 0.950 . S
H1042 C1054 0.950 . S
H1043 C1055 0.950 . S
C1044 H1036 0.950 . S
C1044 C1045 1.386 . S
C1044 C1046 1.391 . S
C1045 C1044 1.386 . S
C1045 C1049 1.393 . S
C1046 H1038 0.950 . S
C1046 C1044 1.391 . S
C1046 C1047 1.400 . S
C1047 C1046 1.400 . S
C1047 C1048 1.398 . S
C1047 C1053 1.491 . S
C1048 H1039 0.950 . S
C1048 C1047 1.398 . S
C1048 C1049 1.391 . S
C1049 H1037 0.950 . S
C1049 C1045 1.393 . S
C1049 C1048 1.391 . S
C1050 H1040 0.950 . S
C1050 C1051 1.386 . S
C1050 C1052 1.391 . S
C1051 C1050 1.386 . S
C1051 C1055 1.393 . S
C1052 H1041 0.950 . S
C1052 C1050 1.391 . S
C1052 C1053 1.400 . S
C1053 C1047 1.491 . S
C1053 C1052 1.400 . S
C1053 C1054 1.398 . S
C1054 H1042 0.950 . S
C1054 C1053 1.398 . S
C1054 C1055 1.391 . S
C1055 H1043 0.950 . S
C1055 C1051 1.393 . S
C1055 C1054 1.391 . S
H1056 C1064 0.950 . S
H1057 C1069 0.950 . S
H1058 C1066 0.950 . S
H1059 C1068 0.950 . S
H1060 C1070 0.950 . S
H1061 C1072 0.950 . S
H1062 C1074 0.950 . S
H1063 C1075 0.950 . S
C1064 H1056 0.950 . S
C1064 C1065 1.386 . S
C1064 C1066 1.391 . S
C1065 C1064 1.386 . S
C1065 C1069 1.393 . S
C1066 H1058 0.950 . S
C1066 C1064 1.391 . S
C1066 C1067 1.400 . S
C1067 C1066 1.400 . S
C1067 C1068 1.398 . S
C1067 C1073 1.491 . S
C1068 H1059 0.950 . S
C1068 C1067 1.398 . S
C1068 C1069 1.391 . S
C1069 H1057 0.950 . S
C1069 C1065 1.393 . S
C1069 C1068 1.391 . S
C1070 H1060 0.950 . S
C1070 C1071 1.386 . S
C1070 C1072 1.391 . S
C1071 C1070 1.386 . S
C1071 C1075 1.393 . S
C1072 H1061 0.950 . S
C1072 C1070 1.391 . S
C1072 C1073 1.400 . S
C1073 C1067 1.491 . S
C1073 C1072 1.400 . S
C1073 C1074 1.398 . S
C1074 H1062 0.950 . S
C1074 C1073 1.398 . S
C1074 C1075 1.391 . S
C1075 H1063 0.950 . S
C1075 C1071 1.393 . S
C1075 C1074 1.391 . S
H1076 C1084 0.950 . S
H1077 C1089 0.950 . S
H1078 C1086 0.950 . S
H1079 C1088 0.950 . S
H1080 C1090 0.950 . S
H1081 C1092 0.950 . S
H1082 C1094 0.950 . S
H1083 C1095 0.950 . S
C1084 H1076 0.950 . S
C1084 C1085 1.386 . S
C1084 C1086 1.391 . S
C1085 C1084 1.386 . S
C1085 C1089 1.393 . S
C1086 H1078 0.950 . S
C1086 C1084 1.391 . S
C1086 C1087 1.400 . S
C1087 C1086 1.400 . S
C1087 C1088 1.398 . S
C1087 C1093 1.491 . S
C1088 H1079 0.950 . S
C1088 C1087 1.398 . S
C1088 C1089 1.391 . S
C1089 H1077 0.950 . S
C1089 C1085 1.393 . S
C1089 C1088 1.391 . S
C1090 H1080 0.950 . S
C1090 C1091 1.386 . S
C1090 C1092 1.391 . S
C1091 C1090 1.386 . S
C1091 C1095 1.393 . S
C1092 H1081 0.950 . S
C1092 C1090 1.391 . S
C1092 C1093 1.400 . S
C1093 C1087 1.491 . S
C1093 C1092 1.400 . S
C1093 C1094 1.398 . S
C1094 H1082 0.950 . S
C1094 C1093 1.398 . S
C1094 C1095 1.391 . S
C1095 H1083 0.950 . S
C1095 C1091 1.393 . S
C1095 C1094 1.391 . S
H1096 C1104 0.950 . S
H1097 C1109 0.950 . S
H1098 C1106 0.950 . S
H1099 C1108 0.950 . S
H1100 C1110 0.950 . S
H1101 C1112 0.950 . S
H1102 C1114 0.950 . S
H1103 C1115 0.950 . S
C1104 H1096 0.950 . S
C1104 C1105 1.386 . S
C1104 C1106 1.391 . S
C1105 C1104 1.386 . S
C1105 C1109 1.393 . S
C1106 H1098 0.950 . S
C1106 C1104 1.391 . S
C1106 C1107 1.400 . S
C1107 C1106 1.400 . S
C1107 C1108 1.398 . S
C1107 C1113 1.491 . S
C1108 H1099 0.950 . S
C1108 C1107 1.398 . S
C1108 C1109 1.391 . S
C1109 H1097 0.950 . S
C1109 C1105 1.393 . S
C1109 C1108 1.391 . S
C1110 H1100 0.950 . S
C1110 C1111 1.386 . S
C1110 C1112 1.391 . S
C1111 C1110 1.386 . S
C1111 C1115 1.393 . S
C1112 H1101 0.950 . S
C1112 C1110 1.391 . S
C1112 C1113 1.400 . S
C1113 C1107 1.491 . S
C1113 C1112 1.400 . S
C1113 C1114 1.398 . S
C1114 H1102 0.950 . S
C1114 C1113 1.398 . S
C1114 C1115 1.391 . S
C1115 H1103 0.950 . S
C1115 C1111 1.393 . S
C1115 C1114 1.391 . S
H1116 C1124 0.950 . S
H1117 C1129 0.950 . S
H1118 C1126 0.950 . S
H1119 C1128 0.950 . S
H1120 C1130 0.950 . S
H1121 C1132 0.950 . S
H1122 C1134 0.950 . S
H1123 C1135 0.950 . S
C1124 H1116 0.950 . S
C1124 C1125 1.386 . S
C1124 C1126 1.391 . S
C1125 C1124 1.386 . S
C1125 C1129 1.393 . S
C1126 H1118 0.950 . S
C1126 C1124 1.391 . S
C1126 C1127 1.400 . S
C1127 C1126 1.400 . S
C1127 C1128 1.398 . S
C1127 C1133 1.491 . S
C1128 H1119 0.950 . S
C1128 C1127 1.398 . S
C1128 C1129 1.391 . S
C1129 H1117 0.950 . S
C1129 C1125 1.393 . S
C1129 C1128 1.391 . S
C1130 H1120 0.950 . S
C1130 C1131 1.386 . S
C1130 C1132 1.391 . S
C1131 C1130 1.386 . S
C1131 C1135 1.393 . S
C1132 H1121 0.950 . S
C1132 C1130 1.391 . S
C1132 C1133 1.400 . S
C1133 C1127 1.491 . S
C1133 C1132 1.400 . S
C1133 C1134 1.398 . S
C1134 H1122 0.950 . S
C1134 C1133 1.398 . S
C1134 C1135 1.391 . S
C1135 H1123 0.950 . S
C1135 C1131 1.393 . S
C1135 C1134 1.391 . S
H1136 C1144 0.950 . S
H1137 C1149 0.950 . S
H1138 C1146 0.950 . S
H1139 C1148 0.950 . S
H1140 C1150 0.950 . S
H1141 C1152 0.950 . S
H1142 C1154 0.950 . S
H1143 C1155 0.950 . S
C1144 H1136 0.950 . S
C1144 C1145 1.386 . S
C1144 C1146 1.391 . S
C1145 C1144 1.386 . S
C1145 C1149 1.393 . S
C1146 H1138 0.950 . S
C1146 C1144 1.391 . S
C1146 C1147 1.400 . S
C1147 C1146 1.400 . S
C1147 C1148 1.398 . S
C1147 C1153 1.491 . S
C1148 H1139 0.950 . S
C1148 C1147 1.398 . S
C1148 C1149 1.391 . S
C1149 H1137 0.950 . S
C1149 C1145 1.393 . S
C1149 C1148 1.391 . S
C1150 H1140 0.950 . S
C1150 C1151 1.386 . S
C1150 C1152 1.391 . S
C1151 C1150 1.386 . S
C1151 C1155 1.393 . S
C1152 H1141 0.950 . S
C1152 C1150 1.391 . S
C1152 C1153 1.400 . S
C1153 C1147 1.491 . S
C1153 C1152 1.400 . S
C1153 C1154 1.398 . S
C1154 H1142 0.950 . S
C1154 C1153 1.398 . S
C1154 C1155 1.391 . S
C1155 H1143 0.950 . S
C1155 C1151 1.393 . S
C1155 C1154 1.391 . S
H1156 C1164 0.950 . S
H1157 C1169 0.950 . S
H1158 C1166 0.950 . S
H1159 C1168 0.950 . S
H1160 C1170 0.950 . S
H1161 C1172 0.950 . S
H1162 C1174 0.950 . S
H1163 C1175 0.950 . S
C1164 H1156 0.950 . S
C1164 C1165 1.386 . S
C1164 C1166 1.391 . S
C1165 C1164 1.386 . S
C1165 C1169 1.393 . S
C1166 H1158 0.950 . S
C1166 C1164 1.391 . S
C1166 C1167 1.400 . S
C1167 C1166 1.400 . S
C1167 C1168 1.398 . S
C1167 C1173 1.491 . S
C1168 H1159 0.950 . S
C1168 C1167 1.398 . S
C1168 C1169 1.391 . S
C1169 H1157 0.950 . S
C1169 C1165 1.393 . S
C1169 C1168 1.391 . S
C1170 H1160 0.950 . S
C1170 C1171 1.386 . S
C1170 C1172 1.391 . S
C1171 C1170 1.386 . S
C1171 C1175 1.393 . S
C1172 H1161 0.950 . S
C1172 C1170 1.391 . S
C1172 C1173 1.400 . S
C1173 C1167 1.491 . S
C1173 C1172 1.400 . S
C1173 C1174 1.398 . S
C1174 H1162 0.950 . S
C1174 C1173 1.398 . S
C1174 C1175 1.391 . S
C1175 H1163 0.950 . S
C1175 C1171 1.393 . S
C1175 C1174 1.391 . S
H1176 C1184 0.950 . S
H1177 C1189 0.950 . S
H1178 C1186 0.950 . S
H1179 C1188 0.950 . S
H1180 C1190 0.950 . S
H1181 C1192 0.950 . S
H1182 C1194 0.950 . S
H1183 C1195 0.950 . S
C1184 H1176 0.950 . S
C1184 C1185 1.386 . S
C1184 C1186 1.391 . S
C1185 C1184 1.386 . S
C1185 C1189 1.393 . S
C1186 H1178 0.950 . S
C1186 C1184 1.391 . S
C1186 C1187 1.400 . S
C1187 C1186 1.400 . S
C1187 C1188 1.398 . S
C1187 C1193 1.491 . S
C1188 H1179 0.950 . S
C1188 C1187 1.398 . S
C1188 C1189 1.391 . S
C1189 H1177 0.950 . S
C1189 C1185 1.393 . S
C1189 C1188 1.391 . S
C1190 H1180 0.950 . S
C1190 C1191 1.386 . S
C1190 C1192 1.391 . S
C1191 C1190 1.386 . S
C1191 C1195 1.393 . S
C1192 H1181 0.950 . S
C1192 C1190 1.391 . S
C1192 C1193 1.400 . S
C1193 C1187 1.491 . S
C1193 C1192 1.400 . S
C1193 C1194 1.398 . S
C1194 H1182 0.950 . S
C1194 C1193 1.398 . S
C1194 C1195 1.391 . S
C1195 H1183 0.950 . S
C1195 C1191 1.393 . S
C1195 C1194 1.391 . S
H1196 C1204 0.950 . S
H1197 C1209 0.950 . S
H1198 C1206 0.950 . S
H1199 C1208 0.950 . S
H1200 C1210 0.950 . S
H1201 C1212 0.950 . S
H1202 C1214 0.950 . S
H1203 C1215 0.950 . S
C1204 H1196 0.950 . S
C1204 C1205 1.386 . S
C1204 C1206 1.391 . S
C1205 C1204 1.386 . S
C1205 C1209 1.393 . S
C1206 H1198 0.950 . S
C1206 C1204 1.391 . S
C1206 C1207 1.400 . S
C1207 C1206 1.400 . S
C1207 C1208 1.398 . S
C1207 C1213 1.491 . S
C1208 H1199 0.950 . S
C1208 C1207 1.398 . S
C1208 C1209 1.391 . S
C1209 H1197 0.950 . S
C1209 C1205 1.393 . S
C1209 C1208 1.391 . S
C1210 H1200 0.950 . S
C1210 C1211 1.386 . S
C1210 C1212 1.391 . S
C1211 C1210 1.386 . S
C1211 C1215 1.393 . S
C1212 H1201 0.950 . S
C1212 C1210 1.391 . S
C1212 C1213 1.400 . S
C1213 C1207 1.491 . S
C1213 C1212 1.400 . S
C1213 C1214 1.398 . S
C1214 H1202 0.950 . S
C1214 C1213 1.398 . S
C1214 C1215 1.391 . S
C1215 H1203 0.950 . S
C1215 C1211 1.393 . S
C1215 C1214 1.391 . S
H1216 C1224 0.950 . S
H1217 C1229 0.950 . S
H1218 C1226 0.950 . S
H1219 C1228 0.950 . S
H1220 C1230 0.950 . S
H1221 C1232 0.950 . S
H1222 C1234 0.950 . S
H1223 C1235 0.950 . S
C1224 H1216 0.950 . S
C1224 C1225 1.386 . S
C1224 C1226 1.391 . S
C1225 C1224 1.386 . S
C1225 C1229 1.393 . S
C1226 H1218 0.950 . S
C1226 C1224 1.391 . S
C1226 C1227 1.400 . S
C1227 C1226 1.400 . S
C1227 C1228 1.398 . S
C1227 C1233 1.491 . S
C1228 H1219 0.950 . S
C1228 C1227 1.398 . S
C1228 C1229 1.391 . S
C1229 H1217 0.950 . S
C1229 C1225 1.393 . S
C1229 C1228 1.391 . S
C1230 H1220 0.950 . S
C1230 C1231 1.386 . S
C1230 C1232 1.391 . S
C1231 C1230 1.386 . S
C1231 C1235 1.393 . S
C1232 H1221 0.950 . S
C1232 C1230 1.391 . S
C1232 C1233 1.400 . S
C1233 C1227 1.491 . S
C1233 C1232 1.400 . S
C1233 C1234 1.398 . S
C1234 H1222 0.950 . S
C1234 C1233 1.398 . S
C1234 C1235 1.391 . S
C1235 H1223 0.950 . S
C1235 C1231 1.393 . S
C1235 C1234 1.391 . S
H1236 C1244 0.950 . S
H1237 C1249 0.950 . S
H1238 C1246 0.950 . S
H1239 C1248 0.950 . S
H1240 C1250 0.950 . S
H1241 C1252 0.950 . S
H1242 C1254 0.950 . S
H1243 C1255 0.950 . S
C1244 H1236 0.950 . S
C1244 C1245 1.386 . S
C1244 C1246 1.391 . S
C1245 C1244 1.386 . S
C1245 C1249 1.393 . S
C1246 H1238 0.950 . S
C1246 C1244 1.391 . S
C1246 C1247 1.400 . S
C1247 C1246 1.400 . S
C1247 C1248 1.398 . S
C1247 C1253 1.491 . S
C1248 H1239 0.950 . S
C1248 C1247 1.398 . S
C1248 C1249 1.391 . S
C1249 H1237 0.950 . S
C1249 C1245 1.393 . S
C1249 C1248 1.391 . S
C1250 H1240 0.950 . S
C1250 C1251 1.386 . S
C1250 C1252 1.391 . S
C1251 C1250 1.386 . S
C1251 C1255 1.393 . S
C1252 H1241 0.950 . S
C1252 C1250 1.391 . S
C1252 C1253 1.400 . S
C1253 C1247 1.491 . S
C1253 C1252 1.400 . S
C1253 C1254 1.398 . S
C1254 H1242 0.950 . S
C1254 C1253 1.398 . S
C1254 C1255 1.391 . S
C1255 H1243 0.950 . S
C1255 C1251 1.393 . S
C1255 C1254 1.391 . S
H1256 C1264 0.950 . S
H1257 C1269 0.950 . S
H1258 C1266 0.950 . S
H1259 C1268 0.950 . S
H1260 C1270 0.950 . S
H1261 C1272 0.950 . S
H1262 C1274 0.950 . S
H1263 C1275 0.950 . S
C1264 H1256 0.950 . S
C1264 C1265 1.386 . S
C1264 C1266 1.391 . S
C1265 C1264 1.386 . S
C1265 C1269 1.393 . S
C1266 H1258 0.950 . S
C1266 C1264 1.391 . S
C1266 C1267 1.400 . S
C1267 C1266 1.400 . S
C1267 C1268 1.398 . S
C1267 C1273 1.491 . S
C1268 H1259 0.950 . S
C1268 C1267 1.398 . S
C1268 C1269 1.391 . S
C1269 H1257 0.950 . S
C1269 C1265 1.393 . S
C1269 C1268 1.391 . S
C1270 H1260 0.950 . S
C1270 C1271 1.386 . S
C1270 C1272 1.391 . S
C1271 C1270 1.386 . S
C1271 C1275 1.393 . S
C1272 H1261 0.950 . S
C1272 C1270 1.391 . S
C1272 C1273 1.400 . S
C1273 C1267 1.491 . S
C1273 C1272 1.400 . S
C1273 C1274 1.398 . S
C1274 H1262 0.950 . S
C1274 C1273 1.398 . S
C1274 C1275 1.391 . S
C1275 H1263 0.950 . S
C1275 C1271 1.393 . S
C1275 C1274 1.391 . S
H1276 C1284 0.950 . S
H1277 C1289 0.950 . S
H1278 C1286 0.950 . S
H1279 C1288 0.950 . S
H1280 C1290 0.950 . S
H1281 C1292 0.950 . S
H1282 C1294 0.950 . S
H1283 C1295 0.950 . S
C1284 H1276 0.950 . S
C1284 C1285 1.386 . S
C1284 C1286 1.391 . S
C1285 C1284 1.386 . S
C1285 C1289 1.393 . S
C1286 H1278 0.950 . S
C1286 C1284 1.391 . S
C1286 C1287 1.400 . S
C1287 C1286 1.400 . S
C1287 C1288 1.398 . S
C1287 C1293 1.491 . S
C1288 H1279 0.950 . S
C1288 C1287 1.398 . S
C1288 C1289 1.391 . S
C1289 H1277 0.950 . S
C1289 C1285 1.393 . S
C1289 C1288 1.391 . S
C1290 H1280 0.950 . S
C1290 C1291 1.386 . S
C1290 C1292 1.391 . S
C1291 C1290 1.386 . S
C1291 C1295 1.393 . S
C1292 H1281 0.950 . S
C1292 C1290 1.391 . S
C1292 C1293 1.400 . S
C1293 C1287 1.491 . S
C1293 C1292 1.400 . S
C1293 C1294 1.398 . S
C1294 H1282 0.950 . S
C1294 C1293 1.398 . S
C1294 C1295 1.391 . S
C1295 H1283 0.950 . S
C1295 C1291 1.393 . S
C1295 C1294 1.391 . S
H1296 C1304 0.950 . S
H1297 C1309 0.950 . S
H1298 C1306 0.950 . S
H1299 C1308 0.950 . S
H1300 C1310 0.950 . S
H1301 C1312 0.950 . S
H1302 C1314 0.950 . S
H1303 C1315 0.950 . S
C1304 H1296 0.950 . S
C1304 C1305 1.386 . S
C1304 C1306 1.391 . S
C1305 C1304 1.386 . S
C1305 C1309 1.393 . S
C1306 H1298 0.950 . S
C1306 C1304 1.391 . S
C1306 C1307 1.400 . S
C1307 C1306 1.400 . S
C1307 C1308 1.398 . S
C1307 C1313 1.491 . S
C1308 H1299 0.950 . S
C1308 C1307 1.398 . S
C1308 C1309 1.391 . S
C1309 H1297 0.950 . S
C1309 C1305 1.393 . S
C1309 C1308 1.391 . S
C1310 H1300 0.950 . S
C1310 C1311 1.386 . S
C1310 C1312 1.391 . S
C1311 C1310 1.386 . S
C1311 C1315 1.393 . S
C1312 H1301 0.950 . S
C1312 C1310 1.391 . S
C1312 C1313 1.400 . S
C1313 C1307 1.491 . S
C1313 C1312 1.400 . S
C1313 C1314 1.398 . S
C1314 H1302 0.950 . S
C1314 C1313 1.398 . S
C1314 C1315 1.391 . S
C1315 H1303 0.950 . S
C1315 C1311 1.393 . S
C1315 C1314 1.391 . S
H1316 C1324 0.950 . S
H1317 C1329 0.950 . S
H1318 C1326 0.950 . S
H1319 C1328 0.950 . S
H1320 C1330 0.950 . S
H1321 C1332 0.950 . S
H1322 C1334 0.950 . S
H1323 C1335 0.950 . S
C1324 H1316 0.950 . S
C1324 C1325 1.386 . S
C1324 C1326 1.391 . S
C1325 C1324 1.386 . S
C1325 C1329 1.393 . S
C1326 H1318 0.950 . S
C1326 C1324 1.391 . S
C1326 C1327 1.400 . S
C1327 C1326 1.400 . S
C1327 C1328 1.398 . S
C1327 C1333 1.491 . S
C1328 H1319 0.950 . S
C1328 C1327 1.398 . S
C1328 C1329 1.391 . S
C1329 H1317 0.950 . S
C1329 C1325 1.393 . S
C1329 C1328 1.391 . S
C1330 H1320 0.950 . S
C1330 C1331 1.386 . S
C1330 C1332 1.391 . S
C1331 C1330 1.386 . S
C1331 C1335 1.393 . S
C1332 H1321 0.950 . S
C1332 C1330 1.391 . S
C1332 C1333 1.400 . S
C1333 C1327 1.491 . S
C1333 C1332 1.400 . S
C1333 C1334 1.398 . S
C1334 H1322 0.950 . S
C1334 C1333 1.398 . S
C1334 C1335 1.391 . S
C1335 H1323 0.950 . S
C1335 C1331 1.393 . S
C1335 C1334 1.391 . S
H1336 C1344 0.950 . S
H1337 C1349 0.950 . S
H1338 C1346 0.950 . S
H1339 C1348 0.950 . S
H1340 C1350 0.950 . S
H1341 C1352 0.950 . S
H1342 C1354 0.950 . S
H1343 C1355 0.950 . S
C1344 H1336 0.950 . S
C1344 C1345 1.386 . S
C1344 C1346 1.391 . S
C1345 C1344 1.386 . S
C1345 C1349 1.393 . S
C1346 H1338 0.950 . S
C1346 C1344 1.391 . S
C1346 C1347 1.400 . S
C1347 C1346 1.400 . S
C1347 C1348 1.398 . S
C1347 C1353 1.491 . S
C1348 H1339 0.950 . S
C1348 C1347 1.398 . S
C1348 C1349 1.391 . S
C1349 H1337 0.950 . S
C1349 C1345 1.393 . S
C1349 C1348 1.391 . S
C1350 H1340 0.950 . S
C1350 C1351 1.386 . S
C1350 C1352 1.391 . S
C1351 C1350 1.386 . S
C1351 C1355 1.393 . S
C1352 H1341 0.950 . S
C1352 C1350 1.391 . S
C1352 C1353 1.400 . S
C1353 C1347 1.491 . S
C1353 C1352 1.400 . S
C1353 C1354 1.398 . S
C1354 H1342 0.950 . S
C1354 C1353 1.398 . S
C1354 C1355 1.391 . S
C1355 H1343 0.950 . S
C1355 C1351 1.393 . S
C1355 C1354 1.391 . S
H1356 C1364 0.950 . S
H1357 C1369 0.950 . S
H1358 C1366 0.950 . S
H1359 C1368 0.950 . S
H1360 C1370 0.950 . S
H1361 C1372 0.950 . S
H1362 C1374 0.950 . S
H1363 C1375 0.950 . S
C1364 H1356 0.950 . S
C1364 C1365 1.386 . S
C1364 C1366 1.391 . S
C1365 C1364 1.386 . S
C1365 C1369 1.393 . S
C1366 H1358 0.950 . S
C1366 C1364 1.391 . S
C1366 C1367 1.400 . S
C1367 C1366 1.400 . S
C1367 C1368 1.398 . S
C1367 C1373 1.491 . S
C1368 H1359 0.950 . S
C1368 C1367 1.398 . S
C1368 C1369 1.391 . S
C1369 H1357 0.950 . S
C1369 C1365 1.393 . S
C1369 C1368 1.391 . S
C1370 H1360 0.950 . S
C1370 C1371 1.386 . S
C1370 C1372 1.391 . S
C1371 C1370 1.386 . S
C1371 C1375 1.393 . S
C1372 H1361 0.950 . S
C1372 C1370 1.391 . S
C1372 C1373 1.400 . S
C1373 C1367 1.491 . S
C1373 C1372 1.400 . S
C1373 C1374 1.398 . S
C1374 H1362 0.950 . S
C1374 C1373 1.398 . S
C1374 C1375 1.391 . S
C1375 H1363 0.950 . S
C1375 C1371 1.393 . S
C1375 C1374 1.391 . S
H1376 C1384 0.950 . S
H1377 C1389 0.950 . S
H1378 C1386 0.950 . S
H1379 C1388 0.950 . S
H1380 C1390 0.950 . S
H1381 C1392 0.950 . S
H1382 C1394 0.950 . S
H1383 C1395 0.950 . S
C1384 H1376 0.950 . S
C1384 C1385 1.386 . S
C1384 C1386 1.391 . S
C1385 C1384 1.386 . S
C1385 C1389 1.393 1_556 S
C1386 H1378 0.950 . S
C1386 C1384 1.391 . S
C1386 C1387 1.400 1_556 S
C1387 C1386 1.400 1_554 S
C1387 C1388 1.399 . S
C1387 C1393 1.491 1_565 S
C1388 H1379 0.950 . S
C1388 C1387 1.399 . S
C1388 C1389 1.391 . S
C1389 H1377 0.950 . S
C1389 C1385 1.393 1_554 S
C1389 C1388 1.391 . S
C1390 H1380 0.950 . S
C1390 C1391 1.386 . S
C1390 C1392 1.391 . S
C1391 C1390 1.386 . S
C1391 C1395 1.393 1_554 S
C1392 H1381 0.950 . S
C1392 C1390 1.391 . S
C1392 C1393 1.400 . S
C1393 C1387 1.491 1_545 S
C1393 C1392 1.400 . S
C1393 C1394 1.398 1_554 S
C1394 H1382 0.950 . S
C1394 C1393 1.398 1_556 S
C1394 C1395 1.391 . S
C1395 H1383 0.950 . S
C1395 C1391 1.393 1_556 S
C1395 C1394 1.391 . S
H1396 C1404 0.950 . S
H1397 C1409 0.950 . S
H1398 C1406 0.950 . S
H1399 C1408 0.950 . S
H1400 C1410 0.950 . S
H1401 C1412 0.950 . S
H1402 C1414 0.950 . S
H1403 C1415 0.950 . S
C1404 H1396 0.950 . S
C1404 C1405 1.386 . S
C1404 C1406 1.391 . S
C1405 C1404 1.386 . S
C1405 C1409 1.393 1_554 S
C1406 H1398 0.950 . S
C1406 C1404 1.391 . S
C1406 C1407 1.400 . S
C1407 C1406 1.400 . S
C1407 C1408 1.398 1_554 S
C1407 C1413 1.491 . S
C1408 H1399 0.950 . S
C1408 C1407 1.398 1_556 S
C1408 C1409 1.391 . S
C1409 H1397 0.950 . S
C1409 C1405 1.393 1_556 S
C1409 C1408 1.391 . S
C1410 H1400 0.950 . S
C1410 C1411 1.427 . S
C1410 C1412 1.391 . S
C1411 C1410 1.427 . S
C1411 C1415 1.350 1_556 S
C1412 H1401 0.950 . S
C1412 C1410 1.391 . S
C1412 C1413 1.377 1_556 S
C1413 C1407 1.491 . S
C1413 C1412 1.377 1_554 S
C1413 C1414 1.421 . S
C1414 H1402 0.950 . S
C1414 C1413 1.421 . S
C1414 C1415 1.391 . S
C1415 H1403 0.950 . S
C1415 C1411 1.350 1_554 S
C1415 C1414 1.391 . S
H1416 C1424 0.950 . S
H1417 C1429 0.950 . S
H1418 C1426 0.950 . S
H1419 C1428 0.950 . S
H1420 C1430 0.950 . S
H1421 C1432 0.950 . S
H1422 C1434 0.950 . S
H1423 C1435 0.950 . S
C1424 H1416 0.950 . S
C1424 C1425 1.386 . S
C1424 C1426 1.391 . S
C1425 C1424 1.386 . S
C1425 C1429 1.393 . S
C1426 H1418 0.950 . S
C1426 C1424 1.391 . S
C1426 C1427 1.400 . S
C1427 C1426 1.400 . S
C1427 C1428 1.398 . S
C1427 C1433 1.491 . S
C1428 H1419 0.950 . S
C1428 C1427 1.398 . S
C1428 C1429 1.391 . S
C1429 H1417 0.950 . S
C1429 C1425 1.393 . S
C1429 C1428 1.391 . S
C1430 H1420 0.950 . S
C1430 C1431 1.386 . S
C1430 C1432 1.391 . S
C1431 C1430 1.386 . S
C1431 C1435 1.393 . S
C1432 H1421 0.950 . S
C1432 C1430 1.391 . S
C1432 C1433 1.400 . S
C1433 C1427 1.491 . S
C1433 C1432 1.400 . S
C1433 C1434 1.398 . S
C1434 H1422 0.950 . S
C1434 C1433 1.398 . S
C1434 C1435 1.391 . S
C1435 H1423 0.950 . S
C1435 C1431 1.393 . S
C1435 C1434 1.391 . S
H1436 C1444 0.950 . S
H1437 C1449 0.950 . S
H1438 C1446 0.950 . S
H1439 C1448 0.950 1_545 S
H1440 C1450 0.950 . S
H1441 C1452 0.950 . S
H1442 C1454 0.950 1_565 S
H1443 C1455 0.950 . S
C1444 H1436 0.950 . S
C1444 C1445 1.386 . S
C1444 C1446 1.391 . S
C1445 C1444 1.386 . S
C1445 C1449 1.393 . S
C1446 H1438 0.950 . S
C1446 C1444 1.391 . S
C1446 C1447 1.400 . S
C1447 C1446 1.400 . S
C1447 C1448 1.398 . S
C1447 C1453 1.491 1_565 S
C1448 H1439 0.950 1_565 S
C1448 C1447 1.398 . S
C1448 C1449 1.391 . S
C1449 H1437 0.950 . S
C1449 C1445 1.393 . S
C1449 C1448 1.391 . S
C1450 H1440 0.950 . S
C1450 C1451 1.386 . S
C1450 C1452 1.391 . S
C1451 C1450 1.386 . S
C1451 C1455 1.393 . S
C1452 H1441 0.950 . S
C1452 C1450 1.391 . S
C1452 C1453 1.400 . S
C1453 C1447 1.491 1_545 S
C1453 C1452 1.400 . S
C1453 C1454 1.398 . S
C1454 H1442 0.950 1_545 S
C1454 C1453 1.398 . S
C1454 C1455 1.391 . S
C1455 H1443 0.950 . S
C1455 C1451 1.393 . S
C1455 C1454 1.391 . S
H1456 C1464 0.950 . S
H1457 C1469 0.950 . S
H1458 C1466 0.950 . S
H1459 C1468 0.950 . S
H1460 C1470 0.950 . S
H1461 C1472 0.950 . S
H1462 C1474 0.950 . S
H1463 C1475 0.950 . S
C1464 H1456 0.950 . S
C1464 C1465 1.409 . S
C1464 C1466 1.391 . S
C1465 C1464 1.409 . S
C1465 C1469 1.369 1_556 S
C1466 H1458 0.950 . S
C1466 C1464 1.391 . S
C1466 C1467 1.386 1_556 S
C1467 C1466 1.386 1_554 S
C1467 C1468 1.412 . S
C1467 C1473 1.491 . S
C1468 H1459 0.950 . S
C1468 C1467 1.412 . S
C1468 C1469 1.391 . S
C1469 H1457 0.950 . S
C1469 C1465 1.369 1_554 S
C1469 C1468 1.391 . S
C1470 H1460 0.950 . S
C1470 C1471 1.386 . S
C1470 C1472 1.391 . S
C1471 C1470 1.386 . S
C1471 C1475 1.393 1_554 S
C1472 H1461 0.950 . S
C1472 C1470 1.391 . S
C1472 C1473 1.421 . S
C1473 C1467 1.491 . S
C1473 C1472 1.421 . S
C1473 C1474 1.378 1_554 S
C1474 H1462 0.950 . S
C1474 C1473 1.378 1_556 S
C1474 C1475 1.391 . S
C1475 H1463 0.950 . S
C1475 C1471 1.393 1_556 S
C1475 C1474 1.391 . S
H1476 C1484 0.950 . S
H1477 C1489 0.950 . S
H1478 C1486 0.950 . S
H1479 C1488 0.950 . S
H1480 C1490 0.950 . S
H1481 C1492 0.950 . S
H1482 C1494 0.950 . S
H1483 C1495 0.950 . S
C1484 H1476 0.950 . S
C1484 C1485 1.386 . S
C1484 C1486 1.391 . S
C1485 C1484 1.386 . S
C1485 C1489 1.393 . S
C1486 H1478 0.950 . S
C1486 C1484 1.391 . S
C1486 C1487 1.400 . S
C1487 C1486 1.400 . S
C1487 C1488 1.398 . S
C1487 C1493 1.491 . S
C1488 H1479 0.950 . S
C1488 C1487 1.398 . S
C1488 C1489 1.391 . S
C1489 H1477 0.950 . S
C1489 C1485 1.393 . S
C1489 C1488 1.391 . S
C1490 H1480 0.950 . S
C1490 C1491 1.386 . S
C1490 C1492 1.391 . S
C1491 C1490 1.386 . S
C1491 C1495 1.393 . S
C1492 H1481 0.950 . S
C1492 C1490 1.391 . S
C1492 C1493 1.400 . S
C1493 C1487 1.491 . S
C1493 C1492 1.400 . S
C1493 C1494 1.398 . S
C1494 H1482 0.950 . S
C1494 C1493 1.398 . S
C1494 C1495 1.391 . S
C1495 H1483 0.950 . S
C1495 C1491 1.393 . S
C1495 C1494 1.391 . S
H1496 C1504 0.950 . S
H1497 C1509 0.950 . S
H1498 C1506 0.929 1_565 S
H1499 C1508 0.950 . S
H1500 C1510 0.950 . S
H1501 C1512 0.950 1_545 S
H1502 C1514 0.950 . S
H1503 C1515 0.950 . S
C1504 H1496 0.950 . S
C1504 C1505 1.386 . S
C1504 C1506 1.405 . S
C1505 C1504 1.386 . S
C1505 C1509 1.393 . S
C1506 H1498 0.929 1_545 S
C1506 C1504 1.405 . S
C1506 C1507 1.407 . S
C1507 C1506 1.407 . S
C1507 C1508 1.398 . S
C1507 C1513 1.491 1_545 S
C1508 H1499 0.950 . S
C1508 C1507 1.398 . S
C1508 C1509 1.391 . S
C1509 H1497 0.950 . S
C1509 C1505 1.393 . S
C1509 C1508 1.391 . S
C1510 H1500 0.950 . S
C1510 C1511 1.386 . S
C1510 C1512 1.391 . S
C1511 C1510 1.386 . S
C1511 C1515 1.393 . S
C1512 H1501 0.950 1_565 S
C1512 C1510 1.391 . S
C1512 C1513 1.400 . S
C1513 C1507 1.491 1_565 S
C1513 C1512 1.400 . S
C1513 C1514 1.398 . S
C1514 H1502 0.950 . S
C1514 C1513 1.398 . S
C1514 C1515 1.391 . S
C1515 H1503 0.950 . S
C1515 C1511 1.393 . S
C1515 C1514 1.391 . S
H1516 C1524 0.950 . S
H1517 C1529 0.950 . S
H1518 C1526 0.950 . S
H1519 C1528 0.950 . S
H1520 C1530 0.950 . S
H1521 C1532 0.950 . S
H1522 C1534 0.950 . S
H1523 C1535 0.950 . S
C1524 H1516 0.950 . S
C1524 C1525 1.386 . S
C1524 C1526 1.391 . S
C1525 C1524 1.386 . S
C1525 C1529 1.393 . S
C1526 H1518 0.950 . S
C1526 C1524 1.391 . S
C1526 C1527 1.400 . S
C1527 C1526 1.400 . S
C1527 C1528 1.398 . S
C1527 C1533 1.491 . S
C1528 H1519 0.950 . S
C1528 C1527 1.398 . S
C1528 C1529 1.391 . S
C1529 H1517 0.950 . S
C1529 C1525 1.393 . S
C1529 C1528 1.391 . S
C1530 H1520 0.950 . S
C1530 C1531 1.386 . S
C1530 C1532 1.391 . S
C1531 C1530 1.386 . S
C1531 C1535 1.393 . S
C1532 H1521 0.950 . S
C1532 C1530 1.391 . S
C1532 C1533 1.400 . S
C1533 C1527 1.491 . S
C1533 C1532 1.400 . S
C1533 C1534 1.398 . S
C1534 H1522 0.950 . S
C1534 C1533 1.398 . S
C1534 C1535 1.391 . S
C1535 H1523 0.950 . S
C1535 C1531 1.393 . S
C1535 C1534 1.391 . S
H1536 C1544 0.950 . S
H1537 C1549 0.950 . S
H1538 C1546 0.950 . S
H1539 C1548 0.950 . S
H1540 C1550 0.950 . S
H1541 C1552 0.950 . S
H1542 C1554 0.950 . S
H1543 C1555 0.950 . S
C1544 H1536 0.950 . S
C1544 C1545 1.386 . S
C1544 C1546 1.391 . S
C1545 C1544 1.386 . S
C1545 C1549 1.393 . S
C1546 H1538 0.950 . S
C1546 C1544 1.391 . S
C1546 C1547 1.400 . S
C1547 C1546 1.400 . S
C1547 C1548 1.398 . S
C1547 C1553 1.491 . S
C1548 H1539 0.950 . S
C1548 C1547 1.398 . S
C1548 C1549 1.391 . S
C1549 H1537 0.950 . S
C1549 C1545 1.393 . S
C1549 C1548 1.391 . S
C1550 H1540 0.950 . S
C1550 C1551 1.386 . S
C1550 C1552 1.391 . S
C1551 C1550 1.386 . S
C1551 C1555 1.393 . S
C1552 H1541 0.950 . S
C1552 C1550 1.391 . S
C1552 C1553 1.400 . S
C1553 C1547 1.491 . S
C1553 C1552 1.400 . S
C1553 C1554 1.398 . S
C1554 H1542 0.950 . S
C1554 C1553 1.398 . S
C1554 C1555 1.391 . S
C1555 H1543 0.950 . S
C1555 C1551 1.393 . S
C1555 C1554 1.391 . S
H1556 C1564 0.950 . S
H1557 C1569 0.950 . S
H1558 C1566 0.950 . S
H1559 C1568 0.950 . S
H1560 C1570 0.950 . S
H1561 C1572 0.950 . S
H1562 C1574 0.950 . S
H1563 C1575 0.950 . S
C1564 H1556 0.950 . S
C1564 C1565 1.386 . S
C1564 C1566 1.391 . S
C1565 C1564 1.386 . S
C1565 C1569 1.393 . S
C1566 H1558 0.950 . S
C1566 C1564 1.391 . S
C1566 C1567 1.400 . S
C1567 C1566 1.400 . S
C1567 C1568 1.398 . S
C1567 C1573 1.491 . S
C1568 H1559 0.950 . S
C1568 C1567 1.398 . S
C1568 C1569 1.391 . S
C1569 H1557 0.950 . S
C1569 C1565 1.393 . S
C1569 C1568 1.391 . S
C1570 H1560 0.950 . S
C1570 C1571 1.386 . S
C1570 C1572 1.391 . S
C1571 C1570 1.386 . S
C1571 C1575 1.393 . S
C1572 H1561 0.950 . S
C1572 C1570 1.391 . S
C1572 C1573 1.400 . S
C1573 C1567 1.491 . S
C1573 C1572 1.400 . S
C1573 C1574 1.398 . S
C1574 H1562 0.950 . S
C1574 C1573 1.398 . S
C1574 C1575 1.391 . S
C1575 H1563 0.950 . S
C1575 C1571 1.393 . S
C1575 C1574 1.391 . S
H1576 C1584 0.950 . S
H1577 C1589 0.950 . S
H1578 C1586 0.950 . S
H1579 C1588 0.950 . S
H1580 C1590 0.950 . S
H1581 C1592 0.950 . S
H1582 C1594 0.950 . S
H1583 C1595 0.950 . S
C1584 H1576 0.950 . S
C1584 C1585 1.386 . S
C1584 C1586 1.391 . S
C1585 C1584 1.386 . S
C1585 C1589 1.393 . S
C1586 H1578 0.950 . S
C1586 C1584 1.391 . S
C1586 C1587 1.400 . S
C1587 C1586 1.400 . S
C1587 C1588 1.398 . S
C1587 C1593 1.491 . S
C1588 H1579 0.950 . S
C1588 C1587 1.398 . S
C1588 C1589 1.391 . S
C1589 H1577 0.950 . S
C1589 C1585 1.393 . S
C1589 C1588 1.391 . S
C1590 H1580 0.950 . S
C1590 C1591 1.386 . S
C1590 C1592 1.391 . S
C1591 C1590 1.386 . S
C1591 C1595 1.393 . S
C1592 H1581 0.950 . S
C1592 C1590 1.391 . S
C1592 C1593 1.400 . S
C1593 C1587 1.491 . S
C1593 C1592 1.400 . S
C1593 C1594 1.398 . S
C1594 H1582 0.950 . S
C1594 C1593 1.398 . S
C1594 C1595 1.391 . S
C1595 H1583 0.950 . S
C1595 C1591 1.393 . S
C1595 C1594 1.391 . S
H1596 C1604 0.950 . S
H1597 C1609 0.950 . S
H1598 C1606 0.950 . S
H1599 C1608 0.950 . S
H1600 C1610 0.950 . S
H1601 C1612 0.950 . S
H1602 C1614 0.950 . S
H1603 C1615 0.950 . S
C1604 H1596 0.950 . S
C1604 C1605 1.386 . S
C1604 C1606 1.391 . S
C1605 C1604 1.386 . S
C1605 C1609 1.393 . S
C1606 H1598 0.950 . S
C1606 C1604 1.391 . S
C1606 C1607 1.400 . S
C1607 C1606 1.400 . S
C1607 C1608 1.398 . S
C1607 C1613 1.491 . S
C1608 H1599 0.950 . S
C1608 C1607 1.398 . S
C1608 C1609 1.391 . S
C1609 H1597 0.950 . S
C1609 C1605 1.393 . S
C1609 C1608 1.391 . S
C1610 H1600 0.950 . S
C1610 C1611 1.386 . S
C1610 C1612 1.391 . S
C1611 C1610 1.386 . S
C1611 C1615 1.393 . S
C1612 H1601 0.950 . S
C1612 C1610 1.391 . S
C1612 C1613 1.400 . S
C1613 C1607 1.491 . S
C1613 C1612 1.400 . S
C1613 C1614 1.398 . S
C1614 H1602 0.950 . S
C1614 C1613 1.398 . S
C1614 C1615 1.391 . S
C1615 H1603 0.950 . S
C1615 C1611 1.393 . S
C1615 C1614 1.391 . S
H1616 C1624 0.950 . S
H1617 C1629 0.950 . S
H1618 C1626 0.978 . S
H1619 C1628 0.950 1_655 S
H1620 C1630 0.950 . S
H1621 C1632 0.950 . S
H1622 C1634 0.950 1_455 S
H1623 C1635 0.950 . S
C1624 H1616 0.950 . S
C1624 C1625 1.386 . S
C1624 C1626 1.374 1_565 S
C1625 C1624 1.386 . S
C1625 C1629 1.393 . S
C1626 H1618 0.978 . S
C1626 C1624 1.374 1_545 S
C1626 C1627 1.390 1_545 S
C1627 C1626 1.390 1_565 S
C1627 C1628 1.398 . S
C1627 C1633 1.491 1_465 S
C1628 H1619 0.950 1_455 S
C1628 C1627 1.398 . S
C1628 C1629 1.391 . S
C1629 H1617 0.950 . S
C1629 C1625 1.393 . S
C1629 C1628 1.391 . S
C1630 H1620 0.950 . S
C1630 C1631 1.386 . S
C1630 C1632 1.391 1_545 S
C1631 C1630 1.386 . S
C1631 C1635 1.393 . S
C1632 H1621 0.950 . S
C1632 C1630 1.391 1_565 S
C1632 C1633 1.400 1_565 S
C1633 C1627 1.491 1_645 S
C1633 C1632 1.400 1_545 S
C1633 C1634 1.398 . S
C1634 H1622 0.950 1_655 S
C1634 C1633 1.398 . S
C1634 C1635 1.391 . S
C1635 H1623 0.950 . S
C1635 C1631 1.393 . S
C1635 C1634 1.391 . S
H1636 C1644 0.950 . S
H1637 C1649 0.950 . S
H1638 C1646 0.950 1_655 S
H1639 C1648 0.950 . S
H1640 C1650 0.950 . S
H1641 C1652 0.950 1_455 S
H1642 C1654 0.950 . S
H1643 C1655 0.950 . S
C1644 H1636 0.950 . S
C1644 C1645 1.386 . S
C1644 C1646 1.391 . S
C1645 C1644 1.386 . S
C1645 C1649 1.393 . S
C1646 H1638 0.950 1_455 S
C1646 C1644 1.391 . S
C1646 C1647 1.400 . S
C1647 C1646 1.400 . S
C1647 C1648 1.398 . S
C1647 C1653 1.491 1_455 S
C1648 H1639 0.950 . S
C1648 C1647 1.398 . S
C1648 C1649 1.391 . S
C1649 H1637 0.950 . S
C1649 C1645 1.393 . S
C1649 C1648 1.391 . S
C1650 H1640 0.950 . S
C1650 C1651 1.386 . S
C1650 C1652 1.391 . S
C1651 C1650 1.386 . S
C1651 C1655 1.393 . S
C1652 H1641 0.950 1_655 S
C1652 C1650 1.391 . S
C1652 C1653 1.400 . S
C1653 C1647 1.491 1_655 S
C1653 C1652 1.400 . S
C1653 C1654 1.398 . S
C1654 H1642 0.950 . S
C1654 C1653 1.398 . S
C1654 C1655 1.391 . S
C1655 H1643 0.950 . S
C1655 C1651 1.393 . S
C1655 C1654 1.391 . S
H1656 C1664 0.950 . S
H1657 C1669 0.950 . S
H1658 C1666 0.950 1_455 S
H1659 C1668 0.950 . S
H1660 C1670 0.950 . S
H1661 C1672 0.950 1_655 S
H1662 C1674 0.950 . S
H1663 C1675 0.950 . S
C1664 H1656 0.950 . S
C1664 C1665 1.386 . S
C1664 C1666 1.391 . S
C1665 C1664 1.386 . S
C1665 C1669 1.393 . S
C1666 H1658 0.950 1_655 S
C1666 C1664 1.391 . S
C1666 C1667 1.400 . S
C1667 C1666 1.400 . S
C1667 C1668 1.398 . S
C1667 C1673 1.491 1_655 S
C1668 H1659 0.950 . S
C1668 C1667 1.398 . S
C1668 C1669 1.391 . S
C1669 H1657 0.950 . S
C1669 C1665 1.393 . S
C1669 C1668 1.391 . S
C1670 H1660 0.950 . S
C1670 C1671 1.386 . S
C1670 C1672 1.391 . S
C1671 C1670 1.386 . S
C1671 C1675 1.393 . S
C1672 H1661 0.950 1_455 S
C1672 C1670 1.391 . S
C1672 C1673 1.400 . S
C1673 C1667 1.491 1_455 S
C1673 C1672 1.400 . S
C1673 C1674 1.398 . S
C1674 H1662 0.950 . S
C1674 C1673 1.398 . S
C1674 C1675 1.391 . S
C1675 H1663 0.950 . S
C1675 C1671 1.393 . S
C1675 C1674 1.391 . S
H1676 C1684 0.950 . S
H1677 C1689 0.950 . S
H1678 C1686 0.950 . S
H1679 C1688 0.950 . S
H1680 C1690 0.950 . S
H1681 C1692 0.950 . S
H1682 C1694 0.950 . S
H1683 C1695 0.950 . S
C1684 H1676 0.950 . S
C1684 C1685 1.386 . S
C1684 C1686 1.391 . S
C1685 C1684 1.386 . S
C1685 C1689 1.393 1_554 S
C1686 H1678 0.950 . S
C1686 C1684 1.391 . S
C1686 C1687 1.400 . S
C1687 C1686 1.400 . S
C1687 C1688 1.398 1_554 S
C1687 C1693 1.491 1_655 S
C1688 H1679 0.950 . S
C1688 C1687 1.398 1_556 S
C1688 C1689 1.391 . S
C1689 H1677 0.950 . S
C1689 C1685 1.393 1_556 S
C1689 C1688 1.391 . S
C1690 H1680 0.950 . S
C1690 C1691 1.386 . S
C1690 C1692 1.391 . S
C1691 C1690 1.386 . S
C1691 C1695 1.393 1_556 S
C1692 H1681 0.950 . S
C1692 C1690 1.391 . S
C1692 C1693 1.393 1_556 S
C1693 C1687 1.491 1_455 S
C1693 C1692 1.393 1_554 S
C1693 C1694 1.405 . S
C1694 H1682 0.950 . S
C1694 C1693 1.405 . S
C1694 C1695 1.391 . S
C1695 H1683 0.950 . S
C1695 C1691 1.393 1_554 S
C1695 C1694 1.391 . S
H1696 C1704 0.950 . S
H1697 C1709 0.950 . S
H1698 C1706 0.950 . S
H1699 C1708 0.950 . S
H1700 C1710 0.950 . S
H1701 C1712 0.950 . S
H1702 C1714 0.950 . S
H1703 C1715 0.950 . S
C1704 H1696 0.950 . S
C1704 C1705 1.386 . S
C1704 C1706 1.391 . S
C1705 C1704 1.386 . S
C1705 C1709 1.393 . S
C1706 H1698 0.950 . S
C1706 C1704 1.391 . S
C1706 C1707 1.400 . S
C1707 C1706 1.400 . S
C1707 C1708 1.398 . S
C1707 C1713 1.491 . S
C1708 H1699 0.950 . S
C1708 C1707 1.398 . S
C1708 C1709 1.391 . S
C1709 H1697 0.950 . S
C1709 C1705 1.393 . S
C1709 C1708 1.391 . S
C1710 H1700 0.950 . S
C1710 C1711 1.386 . S
C1710 C1712 1.391 . S
C1711 C1710 1.386 . S
C1711 C1715 1.393 . S
C1712 H1701 0.950 . S
C1712 C1710 1.391 . S
C1712 C1713 1.400 . S
C1713 C1707 1.491 . S
C1713 C1712 1.400 . S
C1713 C1714 1.398 . S
C1714 H1702 0.950 . S
C1714 C1713 1.398 . S
C1714 C1715 1.391 . S
C1715 H1703 0.950 . S
C1715 C1711 1.393 . S
C1715 C1714 1.391 . S
H1716 C1724 0.950 . S
H1717 C1729 0.950 . S
H1718 C1726 0.950 . S
H1719 C1728 0.950 . S
H1720 C1730 0.950 . S
H1721 C1732 0.950 . S
H1722 C1734 0.950 . S
H1723 C1735 0.950 . S
C1724 H1716 0.950 . S
C1724 C1725 1.386 . S
C1724 C1726 1.391 . S
C1725 C1724 1.386 . S
C1725 C1729 1.393 . S
C1726 H1718 0.950 . S
C1726 C1724 1.391 . S
C1726 C1727 1.400 . S
C1727 C1726 1.400 . S
C1727 C1728 1.398 . S
C1727 C1733 1.491 . S
C1728 H1719 0.950 . S
C1728 C1727 1.398 . S
C1728 C1729 1.391 . S
C1729 H1717 0.950 . S
C1729 C1725 1.393 . S
C1729 C1728 1.391 . S
C1730 H1720 0.950 . S
C1730 C1731 1.386 . S
C1730 C1732 1.391 . S
C1731 C1730 1.386 . S
C1731 C1735 1.393 . S
C1732 H1721 0.950 . S
C1732 C1730 1.391 . S
C1732 C1733 1.400 . S
C1733 C1727 1.491 . S
C1733 C1732 1.400 . S
C1733 C1734 1.398 . S
C1734 H1722 0.950 . S
C1734 C1733 1.398 . S
C1734 C1735 1.391 . S
C1735 H1723 0.950 . S
C1735 C1731 1.393 . S
C1735 C1734 1.391 . S
H1736 C1744 0.950 . S
H1737 C1749 0.950 . S
H1738 C1746 0.950 . S
H1739 C1748 0.950 . S
H1740 C1750 0.950 . S
H1741 C1752 0.950 . S
H1742 C1754 0.950 . S
H1743 C1755 0.950 . S
C1744 H1736 0.950 . S
C1744 C1745 1.386 . S
C1744 C1746 1.391 . S
C1745 C1744 1.386 . S
C1745 C1749 1.393 . S
C1746 H1738 0.950 . S
C1746 C1744 1.391 . S
C1746 C1747 1.400 . S
C1747 C1746 1.400 . S
C1747 C1748 1.398 . S
C1747 C1753 1.491 . S
C1748 H1739 0.950 . S
C1748 C1747 1.398 . S
C1748 C1749 1.391 . S
C1749 H1737 0.950 . S
C1749 C1745 1.393 . S
C1749 C1748 1.391 . S
C1750 H1740 0.950 . S
C1750 C1751 1.386 . S
C1750 C1752 1.391 . S
C1751 C1750 1.386 . S
C1751 C1755 1.393 . S
C1752 H1741 0.950 . S
C1752 C1750 1.391 . S
C1752 C1753 1.400 . S
C1753 C1747 1.491 . S
C1753 C1752 1.400 . S
C1753 C1754 1.398 . S
C1754 H1742 0.950 . S
C1754 C1753 1.398 . S
C1754 C1755 1.391 . S
C1755 H1743 0.950 . S
C1755 C1751 1.393 . S
C1755 C1754 1.391 . S
H1756 C1764 0.950 . S
H1757 C1769 0.950 . S
H1758 C1766 0.950 . S
H1759 C1768 0.950 . S
H1760 C1770 0.950 . S
H1761 C1772 0.950 . S
H1762 C1774 0.950 . S
H1763 C1775 0.950 . S
C1764 H1756 0.950 . S
C1764 C1765 1.386 . S
C1764 C1766 1.391 . S
C1765 C1764 1.386 . S
C1765 C1769 1.393 . S
C1766 H1758 0.950 . S
C1766 C1764 1.391 . S
C1766 C1767 1.400 . S
C1767 C1766 1.400 . S
C1767 C1768 1.398 . S
C1767 C1773 1.491 . S
C1768 H1759 0.950 . S
C1768 C1767 1.398 . S
C1768 C1769 1.391 . S
C1769 H1757 0.950 . S
C1769 C1765 1.393 . S
C1769 C1768 1.391 . S
C1770 H1760 0.950 . S
C1770 C1771 1.386 . S
C1770 C1772 1.391 . S
C1771 C1770 1.386 . S
C1771 C1775 1.393 . S
C1772 H1761 0.950 . S
C1772 C1770 1.391 . S
C1772 C1773 1.400 . S
C1773 C1767 1.491 . S
C1773 C1772 1.400 . S
C1773 C1774 1.398 . S
C1774 H1762 0.950 . S
C1774 C1773 1.398 . S
C1774 C1775 1.391 . S
C1775 H1763 0.950 . S
C1775 C1771 1.393 . S
C1775 C1774 1.391 . S
H1776 C1784 0.950 . S
H1777 C1789 0.950 . S
H1778 C1786 0.950 . S
H1779 C1788 0.950 . S
H1780 C1790 0.950 . S
H1781 C1792 0.950 . S
H1782 C1794 0.950 . S
H1783 C1795 0.950 . S
C1784 H1776 0.950 . S
C1784 C1785 1.386 . S
C1784 C1786 1.391 . S
C1785 C1784 1.386 . S
C1785 C1789 1.393 . S
C1786 H1778 0.950 . S
C1786 C1784 1.391 . S
C1786 C1787 1.400 . S
C1787 C1786 1.400 . S
C1787 C1788 1.398 . S
C1787 C1793 1.491 . S
C1788 H1779 0.950 . S
C1788 C1787 1.398 . S
C1788 C1789 1.391 . S
C1789 H1777 0.950 . S
C1789 C1785 1.393 . S
C1789 C1788 1.391 . S
C1790 H1780 0.950 . S
C1790 C1791 1.386 . S
C1790 C1792 1.391 . S
C1791 C1790 1.386 . S
C1791 C1795 1.393 . S
C1792 H1781 0.950 . S
C1792 C1790 1.391 . S
C1792 C1793 1.400 . S
C1793 C1787 1.491 . S
C1793 C1792 1.400 . S
C1793 C1794 1.398 . S
C1794 H1782 0.950 . S
C1794 C1793 1.398 . S
C1794 C1795 1.391 . S
C1795 H1783 0.950 . S
C1795 C1791 1.393 . S
C1795 C1794 1.391 . S
H1796 C1804 0.950 . S
H1797 C1809 0.950 . S
H1798 C1806 0.950 . S
H1799 C1808 0.950 . S
H1800 C1810 0.950 . S
H1801 C1812 0.950 . S
H1802 C1814 0.950 . S
H1803 C1815 0.950 . S
C1804 H1796 0.950 . S
C1804 C1805 1.386 . S
C1804 C1806 1.391 . S
C1805 C1804 1.386 . S
C1805 C1809 1.393 . S
C1806 H1798 0.950 . S
C1806 C1804 1.391 . S
C1806 C1807 1.400 . S
C1807 C1806 1.400 . S
C1807 C1808 1.398 . S
C1807 C1813 1.491 . S
C1808 H1799 0.950 . S
C1808 C1807 1.398 . S
C1808 C1809 1.391 . S
C1809 H1797 0.950 . S
C1809 C1805 1.393 . S
C1809 C1808 1.391 . S
C1810 H1800 0.950 . S
C1810 C1811 1.386 . S
C1810 C1812 1.391 . S
C1811 C1810 1.386 . S
C1811 C1815 1.393 . S
C1812 H1801 0.950 . S
C1812 C1810 1.391 . S
C1812 C1813 1.400 . S
C1813 C1807 1.491 . S
C1813 C1812 1.400 . S
C1813 C1814 1.398 . S
C1814 H1802 0.950 . S
C1814 C1813 1.398 . S
C1814 C1815 1.391 . S
C1815 H1803 0.950 . S
C1815 C1811 1.393 . S
C1815 C1814 1.391 . S
H1816 C1824 0.950 . S
H1817 C1829 0.950 . S
H1818 C1826 0.950 . S
H1819 C1828 0.950 . S
H1820 C1830 0.950 . S
H1821 C1832 0.950 . S
H1822 C1834 0.950 . S
H1823 C1835 0.950 . S
C1824 H1816 0.950 . S
C1824 C1825 1.386 . S
C1824 C1826 1.391 . S
C1825 C1824 1.386 . S
C1825 C1829 1.393 . S
C1826 H1818 0.950 . S
C1826 C1824 1.391 . S
C1826 C1827 1.400 . S
C1827 C1826 1.400 . S
C1827 C1828 1.398 . S
C1827 C1833 1.491 . S
C1828 H1819 0.950 . S
C1828 C1827 1.398 . S
C1828 C1829 1.391 . S
C1829 H1817 0.950 . S
C1829 C1825 1.393 . S
C1829 C1828 1.391 . S
C1830 H1820 0.950 . S
C1830 C1831 1.386 . S
C1830 C1832 1.391 . S
C1831 C1830 1.386 . S
C1831 C1835 1.393 . S
C1832 H1821 0.950 . S
C1832 C1830 1.391 . S
C1832 C1833 1.400 . S
C1833 C1827 1.491 . S
C1833 C1832 1.400 . S
C1833 C1834 1.398 . S
C1834 H1822 0.950 . S
C1834 C1833 1.398 . S
C1834 C1835 1.391 . S
C1835 H1823 0.950 . S
C1835 C1831 1.393 . S
C1835 C1834 1.391 . S
H1836 C1844 0.950 . S
H1837 C1849 0.950 . S
H1838 C1846 0.950 . S
H1839 C1848 0.950 . S
H1840 C1850 0.950 . S
H1841 C1852 0.950 . S
H1842 C1854 0.950 . S
H1843 C1855 0.950 . S
C1844 H1836 0.950 . S
C1844 C1845 1.386 . S
C1844 C1846 1.391 . S
C1845 C1844 1.386 . S
C1845 C1849 1.393 . S
C1846 H1838 0.950 . S
C1846 C1844 1.391 . S
C1846 C1847 1.400 . S
C1847 C1846 1.400 . S
C1847 C1848 1.398 . S
C1847 C1853 1.491 . S
C1848 H1839 0.950 . S
C1848 C1847 1.398 . S
C1848 C1849 1.391 . S
C1849 H1837 0.950 . S
C1849 C1845 1.393 . S
C1849 C1848 1.391 . S
C1850 H1840 0.950 . S
C1850 C1851 1.386 . S
C1850 C1852 1.391 . S
C1851 C1850 1.386 . S
C1851 C1855 1.393 . S
C1852 H1841 0.950 . S
C1852 C1850 1.391 . S
C1852 C1853 1.400 . S
C1853 C1847 1.491 . S
C1853 C1852 1.400 . S
C1853 C1854 1.398 . S
C1854 H1842 0.950 . S
C1854 C1853 1.398 . S
C1854 C1855 1.391 . S
C1855 H1843 0.950 . S
C1855 C1851 1.393 . S
C1855 C1854 1.391 . S
H1856 C1864 0.950 . S
H1857 C1869 0.950 . S
H1858 C1866 0.950 . S
H1859 C1868 0.950 . S
H1860 C1870 0.950 . S
H1861 C1872 0.950 . S
H1862 C1874 0.950 . S
H1863 C1875 0.950 . S
C1864 H1856 0.950 . S
C1864 C1865 1.386 . S
C1864 C1866 1.391 . S
C1865 C1864 1.386 . S
C1865 C1869 1.393 . S
C1866 H1858 0.950 . S
C1866 C1864 1.391 . S
C1866 C1867 1.400 . S
C1867 C1866 1.400 . S
C1867 C1868 1.398 . S
C1867 C1873 1.491 . S
C1868 H1859 0.950 . S
C1868 C1867 1.398 . S
C1868 C1869 1.391 . S
C1869 H1857 0.950 . S
C1869 C1865 1.393 . S
C1869 C1868 1.391 . S
C1870 H1860 0.950 . S
C1870 C1871 1.386 . S
C1870 C1872 1.391 . S
C1871 C1870 1.386 . S
C1871 C1875 1.393 . S
C1872 H1861 0.950 . S
C1872 C1870 1.391 . S
C1872 C1873 1.400 . S
C1873 C1867 1.491 . S
C1873 C1872 1.400 . S
C1873 C1874 1.398 . S
C1874 H1862 0.950 . S
C1874 C1873 1.398 . S
C1874 C1875 1.391 . S
C1875 H1863 0.950 . S
C1875 C1871 1.393 . S
C1875 C1874 1.391 . S
H1876 C1884 0.950 . S
H1877 C1889 0.950 . S
H1878 C1886 0.950 . S
H1879 C1888 0.950 . S
H1880 C1890 0.950 . S
H1881 C1892 0.950 . S
H1882 C1894 0.950 . S
H1883 C1895 0.950 . S
C1884 H1876 0.950 . S
C1884 C1885 1.386 . S
C1884 C1886 1.391 . S
C1885 C1884 1.386 . S
C1885 C1889 1.393 . S
C1886 H1878 0.950 . S
C1886 C1884 1.391 . S
C1886 C1887 1.400 . S
C1887 C1886 1.400 . S
C1887 C1888 1.398 . S
C1887 C1893 1.491 . S
C1888 H1879 0.950 . S
C1888 C1887 1.398 . S
C1888 C1889 1.391 . S
C1889 H1877 0.950 . S
C1889 C1885 1.393 . S
C1889 C1888 1.391 . S
C1890 H1880 0.950 . S
C1890 C1891 1.386 . S
C1890 C1892 1.391 . S
C1891 C1890 1.386 . S
C1891 C1895 1.393 . S
C1892 H1881 0.950 . S
C1892 C1890 1.391 . S
C1892 C1893 1.400 . S
C1893 C1887 1.491 . S
C1893 C1892 1.400 . S
C1893 C1894 1.398 . S
C1894 H1882 0.950 . S
C1894 C1893 1.398 . S
C1894 C1895 1.391 . S
C1895 H1883 0.950 . S
C1895 C1891 1.393 . S
C1895 C1894 1.391 . S
H1896 C1904 0.950 . S
H1897 C1909 0.950 . S
H1898 C1906 0.950 . S
H1899 C1908 0.950 . S
H1900 C1910 0.950 . S
H1901 C1912 0.950 . S
H1902 C1914 0.950 . S
H1903 C1915 0.950 . S
C1904 H1896 0.950 . S
C1904 C1905 1.386 . S
C1904 C1906 1.391 . S
C1905 C1904 1.386 . S
C1905 C1909 1.393 . S
C1906 H1898 0.950 . S
C1906 C1904 1.391 . S
C1906 C1907 1.400 . S
C1907 C1906 1.400 . S
C1907 C1908 1.398 . S
C1907 C1913 1.491 . S
C1908 H1899 0.950 . S
C1908 C1907 1.398 . S
C1908 C1909 1.391 . S
C1909 H1897 0.950 . S
C1909 C1905 1.393 . S
C1909 C1908 1.391 . S
C1910 H1900 0.950 . S
C1910 C1911 1.386 . S
C1910 C1912 1.391 . S
C1911 C1910 1.386 . S
C1911 C1915 1.393 . S
C1912 H1901 0.950 . S
C1912 C1910 1.391 . S
C1912 C1913 1.400 . S
C1913 C1907 1.491 . S
C1913 C1912 1.400 . S
C1913 C1914 1.398 . S
C1914 H1902 0.950 . S
C1914 C1913 1.398 . S
C1914 C1915 1.391 . S
C1915 H1903 0.950 . S
C1915 C1911 1.393 . S
C1915 C1914 1.391 . S
H1916 C1924 0.950 . S
H1917 C1929 0.950 . S
H1918 C1926 0.950 . S
H1919 C1928 0.950 . S
H1920 C1930 0.950 . S
H1921 C1932 0.950 . S
H1922 C1934 0.950 . S
H1923 C1935 0.950 . S
C1924 H1916 0.950 . S
C1924 C1925 1.386 . S
C1924 C1926 1.391 . S
C1925 C1924 1.386 . S
C1925 C1929 1.393 . S
C1926 H1918 0.950 . S
C1926 C1924 1.391 . S
C1926 C1927 1.400 . S
C1927 C1926 1.400 . S
C1927 C1928 1.398 . S
C1927 C1933 1.491 . S
C1928 H1919 0.950 . S
C1928 C1927 1.398 . S
C1928 C1929 1.391 . S
C1929 H1917 0.950 . S
C1929 C1925 1.393 . S
C1929 C1928 1.391 . S
C1930 H1920 0.950 . S
C1930 C1931 1.386 . S
C1930 C1932 1.391 . S
C1931 C1930 1.386 . S
C1931 C1935 1.393 . S
C1932 H1921 0.950 . S
C1932 C1930 1.391 . S
C1932 C1933 1.400 . S
C1933 C1927 1.491 . S
C1933 C1932 1.400 . S
C1933 C1934 1.398 . S
C1934 H1922 0.950 . S
C1934 C1933 1.398 . S
C1934 C1935 1.391 . S
C1935 H1923 0.950 . S
C1935 C1931 1.393 . S
C1935 C1934 1.391 . S
H1936 C1944 0.950 . S
H1937 C1949 0.950 . S
H1938 C1946 0.950 . S
H1939 C1948 0.950 . S
H1940 C1950 0.950 . S
H1941 C1952 0.950 . S
H1942 C1954 0.950 . S
H1943 C1955 0.950 . S
C1944 H1936 0.950 . S
C1944 C1945 1.386 . S
C1944 C1946 1.391 . S
C1945 C1944 1.386 . S
C1945 C1949 1.393 . S
C1946 H1938 0.950 . S
C1946 C1944 1.391 . S
C1946 C1947 1.400 . S
C1947 C1946 1.400 . S
C1947 C1948 1.398 . S
C1947 C1953 1.491 . S
C1948 H1939 0.950 . S
C1948 C1947 1.398 . S
C1948 C1949 1.391 . S
C1949 H1937 0.950 . S
C1949 C1945 1.393 . S
C1949 C1948 1.391 . S
C1950 H1940 0.950 . S
C1950 C1951 1.386 . S
C1950 C1952 1.391 . S
C1951 C1950 1.386 . S
C1951 C1955 1.393 . S
C1952 H1941 0.950 . S
C1952 C1950 1.391 . S
C1952 C1953 1.400 . S
C1953 C1947 1.491 . S
C1953 C1952 1.400 . S
C1953 C1954 1.398 . S
C1954 H1942 0.950 . S
C1954 C1953 1.398 . S
C1954 C1955 1.391 . S
C1955 H1943 0.950 . S
C1955 C1951 1.393 . S
C1955 C1954 1.391 . S
H1956 C1964 0.950 . S
H1957 C1969 0.950 . S
H1958 C1966 0.950 . S
H1959 C1968 0.950 . S
H1960 C1970 0.950 . S
H1961 C1972 0.950 . S
H1962 C1974 0.950 . S
H1963 C1975 0.950 . S
C1964 H1956 0.950 . S
C1964 C1965 1.386 . S
C1964 C1966 1.391 . S
C1965 C1964 1.386 . S
C1965 C1969 1.393 . S
C1966 H1958 0.950 . S
C1966 C1964 1.391 . S
C1966 C1967 1.400 . S
C1967 C1966 1.400 . S
C1967 C1968 1.398 . S
C1967 C1973 1.491 . S
C1968 H1959 0.950 . S
C1968 C1967 1.398 . S
C1968 C1969 1.391 . S
C1969 H1957 0.950 . S
C1969 C1965 1.393 . S
C1969 C1968 1.391 . S
C1970 H1960 0.950 . S
C1970 C1971 1.386 . S
C1970 C1972 1.391 . S
C1971 C1970 1.386 . S
C1971 C1975 1.393 . S
C1972 H1961 0.950 . S
C1972 C1970 1.391 . S
C1972 C1973 1.400 . S
C1973 C1967 1.491 . S
C1973 C1972 1.400 . S
C1973 C1974 1.398 . S
C1974 H1962 0.950 . S
C1974 C1973 1.398 . S
C1974 C1975 1.391 . S
C1975 H1963 0.950 . S
C1975 C1971 1.393 . S
C1975 C1974 1.391 . S
H1976 C1984 0.950 . S
H1977 C1989 0.950 . S
H1978 C1986 0.950 . S
H1979 C1988 0.950 . S
H1980 C1990 0.950 . S
H1981 C1992 0.950 . S
H1982 C1994 0.950 . S
H1983 C1995 0.950 . S
C1984 H1976 0.950 . S
C1984 C1985 1.386 . S
C1984 C1986 1.391 . S
C1985 C1984 1.386 . S
C1985 C1989 1.393 . S
C1986 H1978 0.950 . S
C1986 C1984 1.391 . S
C1986 C1987 1.400 . S
C1987 C1986 1.400 . S
C1987 C1988 1.398 . S
C1987 C1993 1.491 . S
C1988 H1979 0.950 . S
C1988 C1987 1.398 . S
C1988 C1989 1.391 . S
C1989 H1977 0.950 . S
C1989 C1985 1.393 . S
C1989 C1988 1.391 . S
C1990 H1980 0.950 . S
C1990 C1991 1.386 . S
C1990 C1992 1.391 . S
C1991 C1990 1.386 . S
C1991 C1995 1.393 . S
C1992 H1981 0.950 . S
C1992 C1990 1.391 . S
C1992 C1993 1.400 . S
C1993 C1987 1.491 . S
C1993 C1992 1.400 . S
C1993 C1994 1.398 . S
C1994 H1982 0.950 . S
C1994 C1993 1.398 . S
C1994 C1995 1.391 . S
C1995 H1983 0.950 . S
C1995 C1991 1.393 . S
C1995 C1994 1.391 . S
H1996 C2004 0.950 . S
H1997 C2009 0.950 . S
H1998 C2006 0.950 . S
H1999 C2008 0.950 . S
H2000 C2010 0.950 . S
H2001 C2012 0.950 . S
H2002 C2014 0.950 . S
H2003 C2015 0.950 . S
C2004 H1996 0.950 . S
C2004 C2005 1.386 . S
C2004 C2006 1.391 . S
C2005 C2004 1.386 . S
C2005 C2009 1.393 . S
C2006 H1998 0.950 . S
C2006 C2004 1.391 . S
C2006 C2007 1.400 . S
C2007 C2006 1.400 . S
C2007 C2008 1.398 . S
C2007 C2013 1.491 . S
C2008 H1999 0.950 . S
C2008 C2007 1.398 . S
C2008 C2009 1.391 . S
C2009 H1997 0.950 . S
C2009 C2005 1.393 . S
C2009 C2008 1.391 . S
C2010 H2000 0.950 . S
C2010 C2011 1.386 . S
C2010 C2012 1.391 . S
C2011 C2010 1.386 . S
C2011 C2015 1.393 . S
C2012 H2001 0.950 . S
C2012 C2010 1.391 . S
C2012 C2013 1.400 . S
C2013 C2007 1.491 . S
C2013 C2012 1.400 . S
C2013 C2014 1.398 . S
C2014 H2002 0.950 . S
C2014 C2013 1.398 . S
C2014 C2015 1.391 . S
C2015 H2003 0.950 . S
C2015 C2011 1.393 . S
C2015 C2014 1.391 . S
H2016 C2024 0.950 . S
H2017 C2029 0.950 . S
H2018 C2026 0.950 . S
H2019 C2028 0.950 . S
H2020 C2030 0.951 . S
H2021 C2032 0.950 1_565 S
H2022 C2034 0.950 . S
H2023 C2035 0.950 . S
C2024 H2016 0.950 . S
C2024 C2025 1.386 1_546 S
C2024 C2026 1.391 . S
C2025 C2024 1.386 1_564 S
C2025 C2029 1.393 . S
C2026 H2018 0.950 . S
C2026 C2024 1.391 . S
C2026 C2027 1.400 1_556 S
C2027 C2026 1.400 1_554 S
C2027 C2028 1.399 1_545 S
C2027 C2033 1.490 1_554 S
C2028 H2019 0.950 . S
C2028 C2027 1.399 1_565 S
C2028 C2029 1.391 . S
C2029 H2017 0.950 . S
C2029 C2025 1.393 . S
C2029 C2028 1.391 . S
C2030 H2020 0.951 . S
C2030 C2031 1.384 1_554 S
C2030 C2032 1.392 . S
C2031 C2030 1.384 1_556 S
C2031 C2035 1.393 . S
C2032 H2021 0.950 1_545 S
C2032 C2030 1.392 . S
C2032 C2033 1.400 1_554 S
C2033 C2027 1.490 1_556 S
C2033 C2032 1.400 1_556 S
C2033 C2034 1.398 . S
C2034 H2022 0.950 . S
C2034 C2033 1.398 . S
C2034 C2035 1.391 . S
C2035 H2023 0.950 . S
C2035 C2031 1.393 . S
C2035 C2034 1.391 . S
H2036 C2044 0.950 . S
H2037 C2049 0.950 . S
H2038 C2046 0.950 . S
H2039 C2048 0.950 . S
H2040 C2050 0.950 . S
H2041 C2052 0.950 . S
H2042 C2054 0.950 . S
H2043 C2055 0.950 . S
C2044 H2036 0.950 . S
C2044 C2045 1.386 . S
C2044 C2046 1.391 . S
C2045 C2044 1.386 . S
C2045 C2049 1.393 1_554 S
C2046 H2038 0.950 . S
C2046 C2044 1.391 . S
C2046 C2047 1.404 1_554 S
C2047 C2046 1.404 1_556 S
C2047 C2048 1.395 . S
C2047 C2053 1.490 . S
C2048 H2039 0.950 . S
C2048 C2047 1.395 . S
C2048 C2049 1.391 . S
C2049 H2037 0.950 . S
C2049 C2045 1.393 1_556 S
C2049 C2048 1.391 . S
C2050 H2040 0.950 . S
C2050 C2051 1.386 . S
C2050 C2052 1.391 1_655 S
C2051 C2050 1.386 . S
C2051 C2055 1.393 1_656 S
C2052 H2041 0.950 . S
C2052 C2050 1.391 1_455 S
C2052 C2053 1.400 . S
C2053 C2047 1.490 . S
C2053 C2052 1.400 . S
C2053 C2054 1.398 1_556 S
C2054 H2042 0.950 . S
C2054 C2053 1.398 1_554 S
C2054 C2055 1.391 . S
C2055 H2043 0.950 . S
C2055 C2051 1.393 1_454 S
C2055 C2054 1.391 . S
H2056 C2064 0.950 . S
H2057 C2069 0.950 . S
H2058 C2066 0.950 . S
H2059 C2068 0.950 . S
H2060 C2070 0.950 . S
H2061 C2072 0.950 . S
H2062 C2074 0.950 . S
H2063 C2075 0.950 . S
C2064 H2056 0.950 . S
C2064 C2065 1.386 . S
C2064 C2066 1.391 . S
C2065 C2064 1.386 . S
C2065 C2069 1.393 . S
C2066 H2058 0.950 . S
C2066 C2064 1.391 . S
C2066 C2067 1.400 . S
C2067 C2066 1.400 . S
C2067 C2068 1.398 . S
C2067 C2073 1.491 . S
C2068 H2059 0.950 . S
C2068 C2067 1.398 . S
C2068 C2069 1.391 . S
C2069 H2057 0.950 . S
C2069 C2065 1.393 . S
C2069 C2068 1.391 . S
C2070 H2060 0.950 . S
C2070 C2071 1.386 . S
C2070 C2072 1.391 . S
C2071 C2070 1.386 . S
C2071 C2075 1.393 . S
C2072 H2061 0.950 . S
C2072 C2070 1.391 . S
C2072 C2073 1.400 . S
C2073 C2067 1.491 . S
C2073 C2072 1.400 . S
C2073 C2074 1.398 . S
C2074 H2062 0.950 . S
C2074 C2073 1.398 . S
C2074 C2075 1.391 . S
C2075 H2063 0.950 . S
C2075 C2071 1.393 . S
C2075 C2074 1.391 . S
H2076 C2084 0.950 . S
H2077 C2089 0.950 . S
H2078 C2086 0.950 1_565 S
H2079 C2088 0.950 . S
H2080 C2090 0.950 . S
H2081 C2092 0.950 . S
H2082 C2094 0.950 . S
H2083 C2095 0.950 . S
C2084 H2076 0.950 . S
C2084 C2085 1.386 . S
C2084 C2086 1.391 1_655 S
C2085 C2084 1.386 . S
C2085 C2089 1.393 1_655 S
C2086 H2078 0.950 1_545 S
C2086 C2084 1.391 1_455 S
C2086 C2087 1.400 . S
C2087 C2086 1.400 . S
C2087 C2088 1.398 . S
C2087 C2093 1.491 . S
C2088 H2079 0.950 . S
C2088 C2087 1.398 . S
C2088 C2089 1.391 . S
C2089 H2077 0.950 . S
C2089 C2085 1.393 1_455 S
C2089 C2088 1.391 . S
C2090 H2080 0.950 . S
C2090 C2091 1.386 1_545 S
C2090 C2092 1.391 . S
C2091 C2090 1.386 1_565 S
C2091 C2095 1.393 . S
C2092 H2081 0.950 . S
C2092 C2090 1.391 . S
C2092 C2093 1.400 . S
C2093 C2087 1.491 . S
C2093 C2092 1.400 . S
C2093 C2094 1.398 1_545 S
C2094 H2082 0.950 . S
C2094 C2093 1.398 1_565 S
C2094 C2095 1.391 . S
C2095 H2083 0.950 . S
C2095 C2091 1.393 . S
C2095 C2094 1.391 . S
H2096 C2104 0.950 . S
H2097 C2109 0.950 . S
H2098 C2106 0.950 . S
H2099 C2108 0.950 1_545 S
H2100 C2110 0.950 . S
H2101 C2112 0.950 . S
H2102 C2114 0.950 . S
H2103 C2115 0.951 1_565 S
C2104 H2096 0.950 . S
C2104 C2105 1.386 1_554 S
C2104 C2106 1.391 . S
C2105 C2104 1.386 1_556 S
C2105 C2109 1.393 . S
C2106 H2098 0.950 . S
C2106 C2104 1.391 . S
C2106 C2107 1.400 1_554 S
C2107 C2106 1.400 1_556 S
C2107 C2108 1.398 . S
C2107 C2113 1.491 . S
C2108 H2099 0.950 1_565 S
C2108 C2107 1.398 . S
C2108 C2109 1.391 . S
C2109 H2097 0.950 . S
C2109 C2105 1.393 . S
C2109 C2108 1.391 . S
C2110 H2100 0.950 . S
C2110 C2111 1.386 . S
C2110 C2112 1.391 . S
C2111 C2110 1.386 . S
C2111 C2115 1.391 1_556 S
C2112 H2101 0.950 . S
C2112 C2110 1.391 . S
C2112 C2113 1.400 1_545 S
C2113 C2107 1.491 . S
C2113 C2112 1.400 1_565 S
C2113 C2114 1.398 1_556 S
C2114 H2102 0.950 . S
C2114 C2113 1.398 1_554 S
C2114 C2115 1.392 1_565 S
C2115 H2103 0.951 1_545 S
C2115 C2111 1.391 1_554 S
C2115 C2114 1.392 1_545 S
H2116 C2124 0.950 . S
H2117 C2129 0.950 1_554 S
H2118 C2126 0.950 . S
H2119 C2128 0.949 . S
H2120 C2130 0.950 1_554 S
H2121 C2132 0.950 . S
H2122 C2134 0.950 . S
H2123 C2135 0.950 . S
C2124 H2116 0.950 . S
C2124 C2125 1.386 1_655 S
C2124 C2126 1.391 . S
C2125 C2124 1.386 1_455 S
C2125 C2129 1.392 . S
C2126 H2118 0.950 . S
C2126 C2124 1.391 . S
C2126 C2127 1.400 . S
C2127 C2126 1.400 . S
C2127 C2128 1.401 . S
C2127 C2133 1.491 . S
C2128 H2119 0.949 . S
C2128 C2127 1.401 . S
C2128 C2129 1.390 1_655 S
C2129 H2117 0.950 1_556 S
C2129 C2125 1.392 . S
C2129 C2128 1.390 1_455 S
C2130 H2120 0.950 1_556 S
C2130 C2131 1.385 . S
C2130 C2132 1.391 1_556 S
C2131 C2130 1.385 . S
C2131 C2135 1.393 . S
C2132 H2121 0.950 . S
C2132 C2130 1.391 1_554 S
C2132 C2133 1.400 1_554 S
C2133 C2127 1.491 . S
C2133 C2132 1.400 1_556 S
C2133 C2134 1.398 . S
C2134 H2122 0.950 . S
C2134 C2133 1.398 . S
C2134 C2135 1.391 . S
C2135 H2123 0.950 . S
C2135 C2131 1.393 . S
C2135 C2134 1.391 . S
H2136 C2144 0.950 . S
H2137 C2149 0.950 . S
H2138 C2146 0.950 . S
H2139 C2148 0.950 . S
H2140 C2150 0.950 . S
H2141 C2152 0.950 . S
H2142 C2154 0.950 . S
H2143 C2155 0.950 . S
C2144 H2136 0.950 . S
C2144 C2145 1.386 . S
C2144 C2146 1.391 . S
C2145 C2144 1.386 . S
C2145 C2149 1.393 . S
C2146 H2138 0.950 . S
C2146 C2144 1.391 . S
C2146 C2147 1.400 . S
C2147 C2146 1.400 . S
C2147 C2148 1.398 . S
C2147 C2153 1.491 . S
C2148 H2139 0.950 . S
C2148 C2147 1.398 . S
C2148 C2149 1.391 . S
C2149 H2137 0.950 . S
C2149 C2145 1.393 . S
C2149 C2148 1.391 . S
C2150 H2140 0.950 . S
C2150 C2151 1.386 . S
C2150 C2152 1.391 . S
C2151 C2150 1.386 . S
C2151 C2155 1.393 . S
C2152 H2141 0.950 . S
C2152 C2150 1.391 . S
C2152 C2153 1.400 . S
C2153 C2147 1.491 . S
C2153 C2152 1.400 . S
C2153 C2154 1.398 . S
C2154 H2142 0.950 . S
C2154 C2153 1.398 . S
C2154 C2155 1.391 . S
C2155 H2143 0.950 . S
C2155 C2151 1.393 . S
C2155 C2154 1.391 . S
H2156 C2164 0.950 . S
H2157 C2169 0.950 . S
H2158 C2166 0.950 . S
H2159 C2168 0.950 . S
H2160 C2170 0.950 . S
H2161 C2172 0.950 1_545 S
H2162 C2174 0.950 . S
H2163 C2175 0.950 . S
C2164 H2156 0.950 . S
C2164 C2165 1.386 1_565 S
C2164 C2166 1.391 . S
C2165 C2164 1.386 1_545 S
C2165 C2169 1.393 . S
C2166 H2158 0.950 . S
C2166 C2164 1.391 . S
C2166 C2167 1.400 . S
C2167 C2166 1.400 . S
C2167 C2168 1.398 1_565 S
C2167 C2173 1.491 . S
C2168 H2159 0.950 . S
C2168 C2167 1.398 1_545 S
C2168 C2169 1.391 . S
C2169 H2157 0.950 . S
C2169 C2165 1.393 . S
C2169 C2168 1.391 . S
C2170 H2160 0.950 . S
C2170 C2171 1.386 . S
C2170 C2172 1.391 1_455 S
C2171 C2170 1.386 . S
C2171 C2175 1.393 1_455 S
C2172 H2161 0.950 1_565 S
C2172 C2170 1.391 1_655 S
C2172 C2173 1.400 . S
C2173 C2167 1.491 . S
C2173 C2172 1.400 . S
C2173 C2174 1.398 . S
C2174 H2162 0.950 . S
C2174 C2173 1.398 . S
C2174 C2175 1.391 . S
C2175 H2163 0.950 . S
C2175 C2171 1.393 1_655 S
C2175 C2174 1.391 . S
H2176 C2184 0.950 . S
H2177 C2189 0.950 . S
H2178 C2186 0.950 . S
H2179 C2188 0.950 . S
H2180 C2190 0.950 . S
H2181 C2192 0.950 . S
H2182 C2194 0.950 . S
H2183 C2195 0.950 . S
C2184 H2176 0.950 . S
C2184 C2185 1.386 . S
C2184 C2186 1.391 . S
C2185 C2184 1.386 . S
C2185 C2189 1.393 . S
C2186 H2178 0.950 . S
C2186 C2184 1.391 . S
C2186 C2187 1.400 . S
C2187 C2186 1.400 . S
C2187 C2188 1.398 . S
C2187 C2193 1.491 . S
C2188 H2179 0.950 . S
C2188 C2187 1.398 . S
C2188 C2189 1.391 . S
C2189 H2177 0.950 . S
C2189 C2185 1.393 . S
C2189 C2188 1.391 . S
C2190 H2180 0.950 . S
C2190 C2191 1.386 . S
C2190 C2192 1.391 . S
C2191 C2190 1.386 . S
C2191 C2195 1.393 . S
C2192 H2181 0.950 . S
C2192 C2190 1.391 . S
C2192 C2193 1.400 . S
C2193 C2187 1.491 . S
C2193 C2192 1.400 . S
C2193 C2194 1.398 . S
C2194 H2182 0.950 . S
C2194 C2193 1.398 . S
C2194 C2195 1.391 . S
C2195 H2183 0.950 . S
C2195 C2191 1.393 . S
C2195 C2194 1.391 . S
H2196 C2204 0.950 . S
H2197 C2209 0.950 . S
H2198 C2206 0.950 . S
H2199 C2208 0.950 . S
H2200 C2210 0.950 . S
H2201 C2212 0.950 . S
H2202 C2214 0.950 . S
H2203 C2215 0.950 . S
C2204 H2196 0.950 . S
C2204 C2205 1.386 . S
C2204 C2206 1.391 . S
C2205 C2204 1.386 . S
C2205 C2209 1.393 . S
C2206 H2198 0.950 . S
C2206 C2204 1.391 . S
C2206 C2207 1.400 . S
C2207 C2206 1.400 . S
C2207 C2208 1.398 . S
C2207 C2213 1.491 . S
C2208 H2199 0.950 . S
C2208 C2207 1.398 . S
C2208 C2209 1.391 . S
C2209 H2197 0.950 . S
C2209 C2205 1.393 . S
C2209 C2208 1.391 . S
C2210 H2200 0.950 . S
C2210 C2211 1.386 . S
C2210 C2212 1.391 1_655 S
C2211 C2210 1.386 . S
C2211 C2215 1.393 1_655 S
C2212 H2201 0.950 . S
C2212 C2210 1.391 1_455 S
C2212 C2213 1.400 . S
C2213 C2207 1.491 . S
C2213 C2212 1.400 . S
C2213 C2214 1.398 . S
C2214 H2202 0.950 . S
C2214 C2213 1.398 . S
C2214 C2215 1.391 . S
C2215 H2203 0.950 . S
C2215 C2211 1.393 1_455 S
C2215 C2214 1.391 . S
H2216 C2224 0.950 . S
H2217 C2229 0.950 . S
H2218 C2226 0.950 . S
H2219 C2228 0.950 . S
H2220 C2230 0.950 . S
H2221 C2232 0.950 . S
H2222 C2234 0.950 . S
H2223 C2235 0.950 . S
C2224 H2216 0.950 . S
C2224 C2225 1.386 . S
C2224 C2226 1.391 . S
C2225 C2224 1.386 . S
C2225 C2229 1.393 . S
C2226 H2218 0.950 . S
C2226 C2224 1.391 . S
C2226 C2227 1.400 . S
C2227 C2226 1.400 . S
C2227 C2228 1.398 . S
C2227 C2233 1.491 . S
C2228 H2219 0.950 . S
C2228 C2227 1.398 . S
C2228 C2229 1.391 . S
C2229 H2217 0.950 . S
C2229 C2225 1.393 . S
C2229 C2228 1.391 . S
C2230 H2220 0.950 . S
C2230 C2231 1.386 . S
C2230 C2232 1.391 . S
C2231 C2230 1.386 . S
C2231 C2235 1.393 . S
C2232 H2221 0.950 . S
C2232 C2230 1.391 . S
C2232 C2233 1.400 . S
C2233 C2227 1.491 . S
C2233 C2232 1.400 . S
C2233 C2234 1.398 . S
C2234 H2222 0.950 . S
C2234 C2233 1.398 . S
C2234 C2235 1.391 . S
C2235 H2223 0.950 . S
C2235 C2231 1.393 . S
C2235 C2234 1.391 . S
H2236 C2244 0.950 . S
H2237 C2249 0.950 . S
H2238 C2246 0.950 . S
H2239 C2248 0.950 . S
H2240 C2250 0.950 . S
H2241 C2252 0.950 . S
H2242 C2254 0.950 . S
H2243 C2255 0.950 . S
C2244 H2236 0.950 . S
C2244 C2245 1.386 . S
C2244 C2246 1.391 . S
C2245 C2244 1.386 . S
C2245 C2249 1.393 . S
C2246 H2238 0.950 . S
C2246 C2244 1.391 . S
C2246 C2247 1.400 . S
C2247 C2246 1.400 . S
C2247 C2248 1.398 . S
C2247 C2253 1.491 . S
C2248 H2239 0.950 . S
C2248 C2247 1.398 . S
C2248 C2249 1.391 . S
C2249 H2237 0.950 . S
C2249 C2245 1.393 . S
C2249 C2248 1.391 . S
C2250 H2240 0.950 . S
C2250 C2251 1.386 . S
C2250 C2252 1.391 1_655 S
C2251 C2250 1.386 . S
C2251 C2255 1.393 1_655 S
C2252 H2241 0.950 . S
C2252 C2250 1.391 1_455 S
C2252 C2253 1.400 . S
C2253 C2247 1.491 . S
C2253 C2252 1.400 . S
C2253 C2254 1.398 . S
C2254 H2242 0.950 . S
C2254 C2253 1.398 . S
C2254 C2255 1.391 . S
C2255 H2243 0.950 . S
C2255 C2251 1.393 1_455 S
C2255 C2254 1.391 . S
H2256 C2264 0.950 . S
H2257 C2269 0.950 . S
H2258 C2266 0.950 . S
H2259 C2268 0.950 . S
H2260 C2270 0.950 . S
H2261 C2272 0.950 . S
H2262 C2274 0.950 . S
H2263 C2275 0.950 . S
C2264 H2256 0.950 . S
C2264 C2265 1.386 . S
C2264 C2266 1.391 . S
C2265 C2264 1.386 . S
C2265 C2269 1.393 . S
C2266 H2258 0.950 . S
C2266 C2264 1.391 . S
C2266 C2267 1.400 . S
C2267 C2266 1.400 . S
C2267 C2268 1.398 . S
C2267 C2273 1.491 . S
C2268 H2259 0.950 . S
C2268 C2267 1.398 . S
C2268 C2269 1.391 . S
C2269 H2257 0.950 . S
C2269 C2265 1.393 . S
C2269 C2268 1.391 . S
C2270 H2260 0.950 . S
C2270 C2271 1.386 . S
C2270 C2272 1.391 . S
C2271 C2270 1.386 . S
C2271 C2275 1.393 . S
C2272 H2261 0.950 . S
C2272 C2270 1.391 . S
C2272 C2273 1.400 . S
C2273 C2267 1.491 . S
C2273 C2272 1.400 . S
C2273 C2274 1.398 . S
C2274 H2262 0.950 . S
C2274 C2273 1.398 . S
C2274 C2275 1.391 . S
C2275 H2263 0.950 . S
C2275 C2271 1.393 . S
C2275 C2274 1.391 . S
H2276 C2284 0.950 . S
H2277 C2289 0.950 . S
H2278 C2286 0.950 . S
H2279 C2288 0.950 . S
H2280 C2290 0.950 . S
H2281 C2292 0.950 . S
H2282 C2294 0.950 . S
H2283 C2295 0.950 . S
C2284 H2276 0.950 . S
C2284 C2285 1.386 1_655 S
C2284 C2286 1.391 . S
C2285 C2284 1.386 1_455 S
C2285 C2289 1.393 . S
C2286 H2278 0.950 . S
C2286 C2284 1.391 . S
C2286 C2287 1.400 . S
C2287 C2286 1.400 . S
C2287 C2288 1.398 . S
C2287 C2293 1.491 . S
C2288 H2279 0.950 . S
C2288 C2287 1.398 . S
C2288 C2289 1.391 1_655 S
C2289 H2277 0.950 . S
C2289 C2285 1.393 . S
C2289 C2288 1.391 1_455 S
C2290 H2280 0.950 . S
C2290 C2291 1.386 . S
C2290 C2292 1.391 . S
C2291 C2290 1.386 . S
C2291 C2295 1.393 . S
C2292 H2281 0.950 . S
C2292 C2290 1.391 . S
C2292 C2293 1.400 . S
C2293 C2287 1.491 . S
C2293 C2292 1.400 . S
C2293 C2294 1.398 . S
C2294 H2282 0.950 . S
C2294 C2293 1.398 . S
C2294 C2295 1.391 . S
C2295 H2283 0.950 . S
C2295 C2291 1.393 . S
C2295 C2294 1.391 . S
H2296 C2304 0.950 . S
H2297 C2309 0.950 . S
H2298 C2306 0.950 . S
H2299 C2308 0.950 . S
H2300 C2310 0.950 . S
H2301 C2312 0.950 . S
H2302 C2314 0.950 . S
H2303 C2315 0.950 . S
C2304 H2296 0.950 . S
C2304 C2305 1.386 . S
C2304 C2306 1.391 . S
C2305 C2304 1.386 . S
C2305 C2309 1.393 . S
C2306 H2298 0.950 . S
C2306 C2304 1.391 . S
C2306 C2307 1.400 . S
C2307 C2306 1.400 . S
C2307 C2308 1.398 . S
C2307 C2313 1.491 . S
C2308 H2299 0.950 . S
C2308 C2307 1.398 . S
C2308 C2309 1.391 . S
C2309 H2297 0.950 . S
C2309 C2305 1.393 . S
C2309 C2308 1.391 . S
C2310 H2300 0.950 . S
C2310 C2311 1.386 . S
C2310 C2312 1.391 . S
C2311 C2310 1.386 . S
C2311 C2315 1.393 . S
C2312 H2301 0.950 . S
C2312 C2310 1.391 . S
C2312 C2313 1.400 . S
C2313 C2307 1.491 . S
C2313 C2312 1.400 . S
C2313 C2314 1.398 . S
C2314 H2302 0.950 . S
C2314 C2313 1.398 . S
C2314 C2315 1.391 . S
C2315 H2303 0.950 . S
C2315 C2311 1.393 . S
C2315 C2314 1.391 . S
H2316 C2324 0.950 . S
H2317 C2329 0.950 . S
H2318 C2326 0.950 . S
H2319 C2328 0.950 . S
H2320 C2330 0.950 1_455 S
H2321 C2332 0.950 . S
H2322 C2334 0.950 . S
H2323 C2335 0.950 . S
C2324 H2316 0.950 . S
C2324 C2325 1.386 . S
C2324 C2326 1.391 . S
C2325 C2324 1.386 . S
C2325 C2329 1.393 . S
C2326 H2318 0.950 . S
C2326 C2324 1.391 . S
C2326 C2327 1.400 . S
C2327 C2326 1.400 . S
C2327 C2328 1.398 . S
C2327 C2333 1.491 . S
C2328 H2319 0.950 . S
C2328 C2327 1.398 . S
C2328 C2329 1.391 . S
C2329 H2317 0.950 . S
C2329 C2325 1.393 . S
C2329 C2328 1.391 . S
C2330 H2320 0.950 1_655 S
C2330 C2331 1.386 1_655 S
C2330 C2332 1.391 . S
C2331 C2330 1.386 1_455 S
C2331 C2335 1.393 . S
C2332 H2321 0.950 . S
C2332 C2330 1.391 . S
C2332 C2333 1.400 . S
C2333 C2327 1.491 . S
C2333 C2332 1.400 . S
C2333 C2334 1.398 . S
C2334 H2322 0.950 . S
C2334 C2333 1.398 . S
C2334 C2335 1.391 1_655 S
C2335 H2323 0.950 . S
C2335 C2331 1.393 . S
C2335 C2334 1.391 1_455 S
H2336 C2344 0.950 . S
H2337 C2349 0.950 . S
H2338 C2346 0.950 . S
H2339 C2348 0.950 1_565 S
H2340 C2350 0.950 . S
H2341 C2352 0.950 . S
H2342 C2354 0.950 . S
H2343 C2355 0.950 . S
C2344 H2336 0.950 . S
C2344 C2345 1.386 . S
C2344 C2346 1.391 . S
C2345 C2344 1.386 . S
C2345 C2349 1.393 . S
C2346 H2338 0.950 . S
C2346 C2344 1.391 . S
C2346 C2347 1.400 . S
C2347 C2346 1.400 . S
C2347 C2348 1.398 . S
C2347 C2353 1.491 . S
C2348 H2339 0.950 1_545 S
C2348 C2347 1.398 . S
C2348 C2349 1.391 . S
C2349 H2337 0.950 . S
C2349 C2345 1.393 . S
C2349 C2348 1.391 . S
C2350 H2340 0.950 . S
C2350 C2351 1.386 . S
C2350 C2352 1.391 . S
C2351 C2350 1.386 . S
C2351 C2355 1.393 1_565 S
C2352 H2341 0.950 . S
C2352 C2350 1.391 . S
C2352 C2353 1.400 1_565 S
C2353 C2347 1.491 . S
C2353 C2352 1.400 1_545 S
C2353 C2354 1.398 . S
C2354 H2342 0.950 . S
C2354 C2353 1.398 . S
C2354 C2355 1.391 . S
C2355 H2343 0.950 . S
C2355 C2351 1.393 1_545 S
C2355 C2354 1.391 . S
H2356 C2364 0.950 . S
H2357 C2369 0.950 . S
H2358 C2366 0.950 . S
H2359 C2368 0.950 . S
H2360 C2370 0.950 . S
H2361 C2372 0.950 . S
H2362 C2374 0.950 . S
H2363 C2375 0.950 . S
C2364 H2356 0.950 . S
C2364 C2365 1.386 . S
C2364 C2366 1.391 . S
C2365 C2364 1.386 . S
C2365 C2369 1.393 . S
C2366 H2358 0.950 . S
C2366 C2364 1.391 . S
C2366 C2367 1.400 . S
C2367 C2366 1.400 . S
C2367 C2368 1.398 . S
C2367 C2373 1.491 . S
C2368 H2359 0.950 . S
C2368 C2367 1.398 . S
C2368 C2369 1.391 . S
C2369 H2357 0.950 . S
C2369 C2365 1.393 . S
C2369 C2368 1.391 . S
C2370 H2360 0.950 . S
C2370 C2371 1.386 . S
C2370 C2372 1.391 . S
C2371 C2370 1.386 . S
C2371 C2375 1.393 . S
C2372 H2361 0.950 . S
C2372 C2370 1.391 . S
C2372 C2373 1.400 . S
C2373 C2367 1.491 . S
C2373 C2372 1.400 . S
C2373 C2374 1.398 . S
C2374 H2362 0.950 . S
C2374 C2373 1.398 . S
C2374 C2375 1.391 . S
C2375 H2363 0.950 . S
C2375 C2371 1.393 . S
C2375 C2374 1.391 . S
H2376 C2384 0.950 . S
H2377 C2389 0.950 . S
H2378 C2386 0.950 . S
H2379 C2388 0.950 . S
H2380 C2390 0.950 . S
H2381 C2392 0.950 . S
H2382 C2394 0.950 . S
H2383 C2395 0.950 . S
C2384 H2376 0.950 . S
C2384 C2385 1.386 . S
C2384 C2386 1.391 . S
C2385 C2384 1.386 . S
C2385 C2389 1.393 . S
C2386 H2378 0.950 . S
C2386 C2384 1.391 . S
C2386 C2387 1.400 . S
C2387 C2386 1.400 . S
C2387 C2388 1.398 . S
C2387 C2393 1.491 . S
C2388 H2379 0.950 . S
C2388 C2387 1.398 . S
C2388 C2389 1.391 . S
C2389 H2377 0.950 . S
C2389 C2385 1.393 . S
C2389 C2388 1.391 . S
C2390 H2380 0.950 . S
C2390 C2391 1.386 . S
C2390 C2392 1.391 . S
C2391 C2390 1.386 . S
C2391 C2395 1.393 . S
C2392 H2381 0.950 . S
C2392 C2390 1.391 . S
C2392 C2393 1.400 . S
C2393 C2387 1.491 . S
C2393 C2392 1.400 . S
C2393 C2394 1.398 . S
C2394 H2382 0.950 . S
C2394 C2393 1.398 . S
C2394 C2395 1.391 . S
C2395 H2383 0.950 . S
C2395 C2391 1.393 . S
C2395 C2394 1.391 . S
H2396 C2404 0.950 . S
H2397 C2409 0.950 . S
H2398 C2406 0.950 . S
H2399 C2408 0.950 . S
H2400 C2410 0.950 . S
H2401 C2412 0.950 . S
H2402 C2414 0.950 1_565 S
H2403 C2415 0.950 . S
C2404 H2396 0.950 . S
C2404 C2405 1.386 . S
C2404 C2406 1.391 . S
C2405 C2404 1.386 . S
C2405 C2409 1.393 1_565 S
C2406 H2398 0.950 . S
C2406 C2404 1.391 . S
C2406 C2407 1.400 1_565 S
C2407 C2406 1.400 1_545 S
C2407 C2408 1.398 . S
C2407 C2413 1.491 . S
C2408 H2399 0.950 . S
C2408 C2407 1.398 . S
C2408 C2409 1.391 . S
C2409 H2397 0.950 . S
C2409 C2405 1.393 1_545 S
C2409 C2408 1.391 . S
C2410 H2400 0.950 . S
C2410 C2411 1.386 . S
C2410 C2412 1.391 . S
C2411 C2410 1.386 . S
C2411 C2415 1.393 . S
C2412 H2401 0.950 . S
C2412 C2410 1.391 . S
C2412 C2413 1.400 . S
C2413 C2407 1.491 . S
C2413 C2412 1.400 . S
C2413 C2414 1.398 . S
C2414 H2402 0.950 1_545 S
C2414 C2413 1.398 . S
C2414 C2415 1.391 . S
C2415 H2403 0.950 . S
C2415 C2411 1.393 . S
C2415 C2414 1.391 . S
H2416 C2424 0.950 . S
H2417 C2429 0.950 . S
H2418 C2426 0.950 . S
H2419 C2428 0.950 . S
H2420 C2430 0.950 . S
H2421 C2432 0.950 . S
H2422 C2434 0.950 . S
H2423 C2435 0.950 . S
C2424 H2416 0.950 . S
C2424 C2425 1.386 . S
C2424 C2426 1.391 . S
C2425 C2424 1.386 . S
C2425 C2429 1.393 . S
C2426 H2418 0.950 . S
C2426 C2424 1.391 . S
C2426 C2427 1.400 . S
C2427 C2426 1.400 . S
C2427 C2428 1.398 . S
C2427 C2433 1.491 . S
C2428 H2419 0.950 . S
C2428 C2427 1.398 . S
C2428 C2429 1.391 . S
C2429 H2417 0.950 . S
C2429 C2425 1.393 . S
C2429 C2428 1.391 . S
C2430 H2420 0.950 . S
C2430 C2431 1.386 . S
C2430 C2432 1.391 1_545 S
C2431 C2430 1.386 . S
C2431 C2435 1.393 . S
C2432 H2421 0.950 . S
C2432 C2430 1.391 1_565 S
C2432 C2433 1.400 . S
C2433 C2427 1.491 . S
C2433 C2432 1.400 . S
C2433 C2434 1.398 1_565 S
C2434 H2422 0.950 . S
C2434 C2433 1.398 1_545 S
C2434 C2435 1.391 . S
C2435 H2423 0.950 . S
C2435 C2431 1.393 . S
C2435 C2434 1.391 . S
H2436 C2444 0.950 . S
H2437 C2449 0.950 . S
H2438 C2446 0.950 . S
H2439 C2448 0.950 . S
H2440 C2450 0.950 . S
H2441 C2452 0.950 . S
H2442 C2454 0.950 . S
H2443 C2455 0.950 . S
C2444 H2436 0.950 . S
C2444 C2445 1.386 . S
C2444 C2446 1.391 . S
C2445 C2444 1.386 . S
C2445 C2449 1.393 . S
C2446 H2438 0.950 . S
C2446 C2444 1.391 . S
C2446 C2447 1.400 . S
C2447 C2446 1.400 . S
C2447 C2448 1.398 . S
C2447 C2453 1.491 . S
C2448 H2439 0.950 . S
C2448 C2447 1.398 . S
C2448 C2449 1.391 . S
C2449 H2437 0.950 . S
C2449 C2445 1.393 . S
C2449 C2448 1.391 . S
C2450 H2440 0.950 . S
C2450 C2451 1.386 . S
C2450 C2452 1.391 . S
C2451 C2450 1.386 . S
C2451 C2455 1.393 . S
C2452 H2441 0.950 . S
C2452 C2450 1.391 . S
C2452 C2453 1.400 . S
C2453 C2447 1.491 . S
C2453 C2452 1.400 . S
C2453 C2454 1.398 . S
C2454 H2442 0.950 . S
C2454 C2453 1.398 . S
C2454 C2455 1.391 . S
C2455 H2443 0.950 . S
C2455 C2451 1.393 . S
C2455 C2454 1.391 . S
H2456 C2464 0.950 . S
H2457 C2469 0.950 . S
H2458 C2466 0.950 . S
H2459 C2468 0.950 . S
H2460 C2470 0.950 . S
H2461 C2472 0.950 . S
H2462 C2474 0.950 . S
H2463 C2475 0.950 . S
C2464 H2456 0.950 . S
C2464 C2465 1.386 . S
C2464 C2466 1.391 . S
C2465 C2464 1.386 . S
C2465 C2469 1.393 . S
C2466 H2458 0.950 . S
C2466 C2464 1.391 . S
C2466 C2467 1.400 . S
C2467 C2466 1.400 . S
C2467 C2468 1.398 . S
C2467 C2473 1.491 . S
C2468 H2459 0.950 . S
C2468 C2467 1.398 . S
C2468 C2469 1.391 . S
C2469 H2457 0.950 . S
C2469 C2465 1.393 . S
C2469 C2468 1.391 . S
C2470 H2460 0.950 . S
C2470 C2471 1.386 . S
C2470 C2472 1.391 . S
C2471 C2470 1.386 . S
C2471 C2475 1.393 . S
C2472 H2461 0.950 . S
C2472 C2470 1.391 . S
C2472 C2473 1.400 . S
C2473 C2467 1.491 . S
C2473 C2472 1.400 . S
C2473 C2474 1.398 . S
C2474 H2462 0.950 . S
C2474 C2473 1.398 . S
C2474 C2475 1.391 . S
C2475 H2463 0.950 . S
C2475 C2471 1.393 . S
C2475 C2474 1.391 . S
H2476 C2484 0.950 . S
H2477 C2489 0.950 . S
H2478 C2486 0.950 . S
H2479 C2488 0.950 . S
H2480 C2490 0.950 . S
H2481 C2492 0.950 . S
H2482 C2494 0.950 . S
H2483 C2495 0.950 . S
C2484 H2476 0.950 . S
C2484 C2485 1.386 . S
C2484 C2486 1.391 . S
C2485 C2484 1.386 . S
C2485 C2489 1.393 . S
C2486 H2478 0.950 . S
C2486 C2484 1.391 . S
C2486 C2487 1.400 . S
C2487 C2486 1.400 . S
C2487 C2488 1.398 . S
C2487 C2493 1.491 . S
C2488 H2479 0.950 . S
C2488 C2487 1.398 . S
C2488 C2489 1.391 . S
C2489 H2477 0.950 . S
C2489 C2485 1.393 . S
C2489 C2488 1.391 . S
C2490 H2480 0.950 . S
C2490 C2491 1.386 . S
C2490 C2492 1.391 . S
C2491 C2490 1.386 . S
C2491 C2495 1.393 . S
C2492 H2481 0.950 . S
C2492 C2490 1.391 . S
C2492 C2493 1.400 1_545 S
C2493 C2487 1.491 . S
C2493 C2492 1.400 1_565 S
C2493 C2494 1.398 . S
C2494 H2482 0.950 . S
C2494 C2493 1.398 . S
C2494 C2495 1.391 1_565 S
C2495 H2483 0.950 . S
C2495 C2491 1.393 . S
C2495 C2494 1.391 1_545 S
H2496 C2504 0.950 . S
H2497 C2509 0.950 . S
H2498 C2506 0.950 . S
H2499 C2508 0.950 . S
H2500 C2510 0.950 . S
H2501 C2512 0.950 . S
H2502 C2514 0.950 . S
H2503 C2515 0.950 . S
C2504 H2496 0.950 . S
C2504 C2505 1.340 1_556 S
C2504 C2506 1.391 . S
C2505 C2504 1.340 1_554 S
C2505 C2509 1.437 . S
C2506 H2498 0.950 . S
C2506 C2504 1.391 . S
C2506 C2507 1.410 . S
C2507 C2506 1.410 . S
C2507 C2508 1.388 1_556 S
C2507 C2513 1.490 . S
C2508 H2499 0.950 . S
C2508 C2507 1.388 1_554 S
C2508 C2509 1.391 . S
C2509 H2497 0.950 . S
C2509 C2505 1.437 . S
C2509 C2508 1.391 . S
C2510 H2500 0.950 . S
C2510 C2511 1.386 1_554 S
C2510 C2512 1.391 . S
C2511 C2510 1.386 1_556 S
C2511 C2515 1.393 . S
C2512 H2501 0.950 . S
C2512 C2510 1.391 . S
C2512 C2513 1.360 1_554 S
C2513 C2507 1.490 . S
C2513 C2512 1.360 1_556 S
C2513 C2514 1.440 . S
C2514 H2502 0.950 . S
C2514 C2513 1.440 . S
C2514 C2515 1.391 . S
C2515 H2503 0.950 . S
C2515 C2511 1.393 . S
C2515 C2514 1.391 . S
H2516 C2524 0.950 . S
H2517 C2529 0.950 . S
H2518 C2526 0.950 . S
H2519 C2528 0.950 . S
H2520 C2530 0.950 . S
H2521 C2532 0.950 . S
H2522 C2534 0.950 . S
H2523 C2535 0.950 . S
C2524 H2516 0.950 . S
C2524 C2525 1.386 1_554 S
C2524 C2526 1.391 . S
C2525 C2524 1.386 1_556 S
C2525 C2529 1.393 . S
C2526 H2518 0.950 . S
C2526 C2524 1.391 . S
C2526 C2527 1.397 1_554 S
C2527 C2526 1.397 1_556 S
C2527 C2528 1.401 . S
C2527 C2533 1.491 . S
C2528 H2519 0.950 . S
C2528 C2527 1.401 . S
C2528 C2529 1.391 . S
C2529 H2517 0.950 . S
C2529 C2525 1.393 . S
C2529 C2528 1.391 . S
C2530 H2520 0.950 . S
C2530 C2531 1.380 1_556 S
C2530 C2532 1.391 . S
C2531 C2530 1.380 1_554 S
C2531 C2535 1.398 . S
C2532 H2521 0.950 . S
C2532 C2530 1.391 . S
C2532 C2533 1.404 . S
C2533 C2527 1.491 . S
C2533 C2532 1.404 . S
C2533 C2534 1.395 1_556 S
C2534 H2522 0.950 . S
C2534 C2533 1.395 1_554 S
C2534 C2535 1.391 . S
C2535 H2523 0.950 . S
C2535 C2531 1.398 . S
C2535 C2534 1.391 . S
H2536 C2544 0.950 . S
H2537 C2549 0.950 . S
H2538 C2546 0.950 . S
H2539 C2548 0.950 . S
H2540 C2550 0.950 . S
H2541 C2552 0.950 . S
H2542 C2554 0.950 . S
H2543 C2555 0.950 . S
C2544 H2536 0.950 . S
C2544 C2545 1.386 . S
C2544 C2546 1.391 . S
C2545 C2544 1.386 . S
C2545 C2549 1.393 . S
C2546 H2538 0.950 . S
C2546 C2544 1.391 . S
C2546 C2547 1.400 . S
C2547 C2546 1.400 . S
C2547 C2548 1.398 . S
C2547 C2553 1.491 . S
C2548 H2539 0.950 . S
C2548 C2547 1.398 . S
C2548 C2549 1.391 . S
C2549 H2537 0.950 . S
C2549 C2545 1.393 . S
C2549 C2548 1.391 . S
C2550 H2540 0.950 . S
C2550 C2551 1.386 . S
C2550 C2552 1.391 . S
C2551 C2550 1.386 . S
C2551 C2555 1.393 . S
C2552 H2541 0.950 . S
C2552 C2550 1.391 . S
C2552 C2553 1.400 . S
C2553 C2547 1.491 . S
C2553 C2552 1.400 . S
C2553 C2554 1.398 . S
C2554 H2542 0.950 . S
C2554 C2553 1.398 . S
C2554 C2555 1.391 . S
C2555 H2543 0.950 . S
C2555 C2551 1.393 . S
C2555 C2554 1.391 . S
H2556 C2564 0.950 . S
H2557 C2569 0.950 . S
H2558 C2566 0.950 . S
H2559 C2568 0.950 . S
H2560 C2570 0.950 . S
H2561 C2572 0.950 . S
H2562 C2574 0.950 . S
H2563 C2575 0.950 . S
C2564 H2556 0.950 . S
C2564 C2565 1.386 . S
C2564 C2566 1.391 . S
C2565 C2564 1.386 . S
C2565 C2569 1.393 . S
C2566 H2558 0.950 . S
C2566 C2564 1.391 . S
C2566 C2567 1.400 . S
C2567 C2566 1.400 . S
C2567 C2568 1.398 . S
C2567 C2573 1.491 . S
C2568 H2559 0.950 . S
C2568 C2567 1.398 . S
C2568 C2569 1.391 . S
C2569 H2557 0.950 . S
C2569 C2565 1.393 . S
C2569 C2568 1.391 . S
C2570 H2560 0.950 . S
C2570 C2571 1.386 . S
C2570 C2572 1.391 . S
C2571 C2570 1.386 . S
C2571 C2575 1.393 . S
C2572 H2561 0.950 . S
C2572 C2570 1.391 . S
C2572 C2573 1.400 . S
C2573 C2567 1.491 . S
C2573 C2572 1.400 . S
C2573 C2574 1.398 . S
C2574 H2562 0.950 . S
C2574 C2573 1.398 . S
C2574 C2575 1.391 . S
C2575 H2563 0.950 . S
C2575 C2571 1.393 . S
C2575 C2574 1.391 . S
H2576 C2584 0.950 . S
H2577 C2589 0.950 . S
H2578 C2586 0.950 . S
H2579 C2588 0.950 . S
H2580 C2590 0.950 . S
H2581 C2592 0.950 . S
H2582 C2594 0.950 . S
H2583 C2595 0.950 . S
C2584 H2576 0.950 . S
C2584 C2585 1.386 . S
C2584 C2586 1.391 . S
C2585 C2584 1.386 . S
C2585 C2589 1.393 1_556 S
C2586 H2578 0.950 . S
C2586 C2584 1.391 . S
C2586 C2587 1.400 . S
C2587 C2586 1.400 . S
C2587 C2588 1.398 1_556 S
C2587 C2593 1.491 . S
C2588 H2579 0.950 . S
C2588 C2587 1.398 1_554 S
C2588 C2589 1.391 . S
C2589 H2577 0.950 . S
C2589 C2585 1.393 1_554 S
C2589 C2588 1.391 . S
C2590 H2580 0.950 . S
C2590 C2591 1.386 1_554 S
C2590 C2592 1.391 . S
C2591 C2590 1.386 1_556 S
C2591 C2595 1.393 . S
C2592 H2581 0.950 . S
C2592 C2590 1.391 . S
C2592 C2593 1.400 1_554 S
C2593 C2587 1.491 . S
C2593 C2592 1.400 1_556 S
C2593 C2594 1.398 . S
C2594 H2582 0.950 . S
C2594 C2593 1.398 . S
C2594 C2595 1.391 . S
C2595 H2583 0.950 . S
C2595 C2591 1.393 . S
C2595 C2594 1.391 . S
H2596 C2604 0.950 . S
H2597 C2609 0.950 . S
H2598 C2606 0.950 . S
H2599 C2608 0.950 . S
H2600 C2610 0.950 . S
H2601 C2612 0.950 . S
H2602 C2614 0.950 . S
H2603 C2615 0.950 . S
C2604 H2596 0.950 . S
C2604 C2605 1.342 1_554 S
C2604 C2606 1.391 . S
C2605 C2604 1.342 1_556 S
C2605 C2609 1.438 . S
C2606 H2598 0.950 . S
C2606 C2604 1.391 . S
C2606 C2607 1.400 1_554 S
C2607 C2606 1.400 1_556 S
C2607 C2608 1.398 . S
C2607 C2613 1.491 . S
C2608 H2599 0.950 . S
C2608 C2607 1.398 . S
C2608 C2609 1.391 . S
C2609 H2597 0.950 . S
C2609 C2605 1.438 . S
C2609 C2608 1.391 . S
C2610 H2600 0.950 . S
C2610 C2611 1.386 . S
C2610 C2612 1.391 . S
C2611 C2610 1.386 . S
C2611 C2615 1.393 1_556 S
C2612 H2601 0.950 . S
C2612 C2610 1.391 . S
C2612 C2613 1.400 . S
C2613 C2607 1.491 . S
C2613 C2612 1.400 . S
C2613 C2614 1.398 1_556 S
C2614 H2602 0.950 . S
C2614 C2613 1.398 1_554 S
C2614 C2615 1.391 . S
C2615 H2603 0.950 . S
C2615 C2611 1.393 1_554 S
C2615 C2614 1.391 . S
H2616 C2624 0.950 . S
H2617 C2629 0.950 . S
H2618 C2626 0.950 . S
H2619 C2628 0.950 . S
H2620 C2630 0.950 . S
H2621 C2632 0.950 . S
H2622 C2634 0.950 . S
H2623 C2635 0.950 . S
C2624 H2616 0.950 . S
C2624 C2625 1.386 . S
C2624 C2626 1.391 . S
C2625 C2624 1.386 . S
C2625 C2629 1.393 . S
C2626 H2618 0.950 . S
C2626 C2624 1.391 . S
C2626 C2627 1.400 . S
C2627 C2626 1.400 . S
C2627 C2628 1.398 . S
C2627 C2633 1.491 . S
C2628 H2619 0.950 . S
C2628 C2627 1.398 . S
C2628 C2629 1.391 . S
C2629 H2617 0.950 . S
C2629 C2625 1.393 . S
C2629 C2628 1.391 . S
C2630 H2620 0.950 . S
C2630 C2631 1.386 . S
C2630 C2632 1.391 . S
C2631 C2630 1.386 . S
C2631 C2635 1.393 . S
C2632 H2621 0.950 . S
C2632 C2630 1.391 . S
C2632 C2633 1.400 . S
C2633 C2627 1.491 . S
C2633 C2632 1.400 . S
C2633 C2634 1.398 . S
C2634 H2622 0.950 . S
C2634 C2633 1.398 . S
C2634 C2635 1.391 . S
C2635 H2623 0.950 . S
C2635 C2631 1.393 . S
C2635 C2634 1.391 . S
H2636 C2644 0.950 . S
H2637 C2649 0.950 . S
H2638 C2646 0.950 . S
H2639 C2648 0.950 . S
H2640 C2650 0.950 . S
H2641 C2652 0.950 . S
H2642 C2654 0.950 . S
H2643 C2655 0.950 . S
C2644 H2636 0.950 . S
C2644 C2645 1.386 . S
C2644 C2646 1.391 . S
C2645 C2644 1.386 . S
C2645 C2649 1.393 . S
C2646 H2638 0.950 . S
C2646 C2644 1.391 . S
C2646 C2647 1.400 . S
C2647 C2646 1.400 . S
C2647 C2648 1.398 . S
C2647 C2653 1.491 . S
C2648 H2639 0.950 . S
C2648 C2647 1.398 . S
C2648 C2649 1.391 . S
C2649 H2637 0.950 . S
C2649 C2645 1.393 . S
C2649 C2648 1.391 . S
C2650 H2640 0.950 . S
C2650 C2651 1.386 . S
C2650 C2652 1.391 . S
C2651 C2650 1.386 . S
C2651 C2655 1.393 . S
C2652 H2641 0.950 . S
C2652 C2650 1.391 . S
C2652 C2653 1.400 . S
C2653 C2647 1.491 . S
C2653 C2652 1.400 . S
C2653 C2654 1.398 . S
C2654 H2642 0.950 . S
C2654 C2653 1.398 . S
C2654 C2655 1.391 . S
C2655 H2643 0.950 . S
C2655 C2651 1.393 . S
C2655 C2654 1.391 . S
C745 C591 1.314 . S
C751 C16 1.318 . S
C765 C568 1.324 . S
C771 C39 1.322 . S
C785 C637 1.302 . S
C791 C62 1.303 . S
C805 C614 1.323 . S
C811 C85 1.320 . S
C825 C108 1.384 . S
C831 C683 1.359 . S
C845 C131 1.373 . S
C851 C660 1.372 . S
C865 C154 1.366 . S
C871 C729 1.366 . S
C885 C706 1.363 . S
C891 C177 1.386 . S
C905 C407 1.323 . S
C911 C200 1.325 . S
C925 C384 1.323 . S
C931 C223 1.325 . S
C945 C453 1.324 . S
C951 C246 1.320 . S
C965 C430 1.306 . S
C971 C269 1.310 . S
C985 C292 1.371 . S
C991 C499 1.371 . S
C1005 C476 1.402 . S
C1011 C315 1.378 . S
C1025 C338 1.379 . S
C1031 C545 1.401 . S
C1045 C522 1.369 . S
C1051 C361 1.369 . S
C1065 C19 1.375 . S
C1071 C456 1.386 . S
C1085 C433 1.379 . S
C1091 C42 1.381 . S
C1105 C410 1.352 . S
C1111 C65 1.369 . S
C1125 C88 1.350 . S
C1131 C387 1.369 . S
C1145 C549 1.366 . S
C1151 C112 1.390 . S
C1165 C526 1.366 . S
C1171 C135 1.388 . S
C1185 C503 1.363 . S
C1191 C158 1.361 . S
C1205 C480 1.346 . S
C1211 C181 1.364 . S
C1225 C640 1.356 . S
C1231 C203 1.366 . S
C1245 C226 1.360 . S
C1251 C617 1.365 . S
C1265 C249 1.371 . S
C1271 C594 1.390 . S
C1285 C272 1.390 . S
C1291 C571 1.380 . S
C1305 C733 1.357 . S
C1311 C296 1.347 . S
C1325 C710 1.351 . S
C1331 C319 1.368 . S
C1345 C342 1.370 . S
C1351 C687 1.379 . S
C1365 C365 1.383 . S
C1371 C664 1.387 . S
C1385 C113 0.649 . S
C1391 C21 0.659 . S
C1405 C44 0.647 . S
C1411 C688 0.657 . S
C1425 C67 0.651 . S
C1431 C343 0.637 . S
C1445 C550 0.643 . S
C1451 C90 0.636 . S
C1465 C136 0.661 . S
C1471 C596 0.644 . S
C1485 C159 0.640 . S
C1491 C251 0.657 . S
C1505 C458 0.638 . S
C1511 C182 0.650 . S
C1525 C297 0.642 . S
C1531 C205 0.660 . S
C1545 C228 0.638 . S
C1551 C504 0.652 . S
C1565 C274 0.651 . S
C1571 C734 0.637 . S
C1585 C412 0.648 . S
C1591 C320 0.651 . S
C1605 C366 0.641 . S
C1611 C642 0.638 . S
C1625 C481 0.641 . S
C1631 C389 0.660 . S
C1645 C711 0.644 . S
C1651 C435 0.635 . S
C1665 C619 0.654 . S
C1671 C527 0.637 . S
C1685 C573 0.658 . S
C1691 C665 0.643 . S
C1705 C66 1.506 . S
C1711 C20 1.497 . S
C1725 C89 1.493 . S
C1731 C43 1.494 . S
C1745 C157 1.492 . S
C1751 C111 1.492 . S
C1765 C134 1.482 . S
C1771 C180 1.474 . S
C1785 C250 1.526 . S
C1791 C204 1.526 . S
C1805 C227 1.522 . S
C1811 C273 1.526 . S
C1825 C341 1.519 . S
C1831 C295 1.518 . S
C1845 C318 1.517 . S
C1851 C364 1.519 . S
C1865 C388 1.512 . S
C1871 C434 1.510 . S
C1885 C411 1.518 . S
C1891 C457 1.511 . S
C1905 C525 1.511 . S
C1911 C479 1.519 . S
C1925 C502 1.505 . S
C1931 C548 1.500 . S
C1945 C572 1.496 . S
C1951 C618 1.484 . S
C1965 C641 1.495 . S
C1971 C595 1.484 . S
C1985 C663 1.480 . S
C1991 C709 1.475 . S
C2005 C686 1.486 . S
C2011 C732 1.474 . S
C2025 C132 1.642 . S
C2031 C18 1.721 1_556 S
C2045 C661 1.629 . S
C2051 C41 1.724 1_556 S
C2065 C64 1.703 . S
C2071 C362 1.657 . S
C2085 C87 1.706 . S
C2091 C523 1.635 . S
C2105 C110 1.670 1_556 S
C2111 C40 1.590 . S
C2125 C133 1.667 1_556 S
C2131 C569 1.597 . S
C2145 C270 1.584 . S
C2151 C156 1.673 . S
C2165 C431 1.589 . S
C2171 C179 1.671 . S
C2185 C202 1.717 . S
C2191 C316 1.647 . S
C2205 C477 1.643 . S
C2211 C225 1.719 . S
C2225 C248 1.713 . S
C2231 C178 1.650 . S
C2245 C707 1.635 . S
C2251 C271 1.720 . S
C2265 C294 1.660 . S
C2271 C224 1.608 . S
C2285 C317 1.674 . S
C2291 C385 1.583 . S
C2305 C340 1.664 . S
C2311 C86 1.588 . S
C2325 C615 1.582 . S
C2331 C363 1.668 . S
C2345 C386 1.718 . S
C2351 C500 1.645 . S
C2365 C409 1.717 . S
C2371 C293 1.627 . S
C2385 C730 1.639 . S
C2391 C432 1.719 . S
C2405 C155 1.647 . S
C2411 C455 1.701 . S
C2425 C478 1.668 . S
C2431 C408 1.584 . S
C2445 C201 1.610 . S
C2451 C501 1.654 . S
C2465 C638 1.590 . S
C2471 C524 1.662 . S
C2485 C547 1.660 . S
C2491 C63 1.608 . S
C2505 C684 1.659 . S
C2511 C570 1.706 1_556 S
C2525 C593 1.708 1_556 S
C2531 C109 1.636 . S
C2545 C546 1.641 . S
C2551 C616 1.718 . S
C2565 C339 1.627 . S
C2571 C639 1.713 . S
C2585 C592 1.598 . S
C2591 C662 1.664 1_556 S
C2605 C685 1.664 1_556 S
C2611 C17 1.580 . S
C2625 C454 1.609 . S
C2631 C708 1.656 . S
C2645 C731 1.665 . S
C2651 C247 1.585 . S
