# Generated by pormake.
# Topology ulg, (4)-cn, num edge types: 1
# Building blocks:
#     Node 0, Type 0, BuildingBlock: CEKHIL_clean_sbu_0, # of connection points: 4
#     Node 1, Type 0, BuildingBlock: CEKHIL_clean_sbu_0, # of connection points: 4
#     Node 2, Type 0, BuildingBlock: CEKHIL_clean_sbu_0, # of connection points: 4
#     Node 3, Type 0, BuildingBlock: CEKHIL_clean_sbu_0, # of connection points: 4
#     Node 4, Type 0, BuildingBlock: CEKHIL_clean_sbu_0, # of connection points: 4
#     Node 5, Type 0, BuildingBlock: CEKHIL_clean_sbu_0, # of connection points: 4
#     Node 6, Type 0, BuildingBlock: CEKHIL_clean_sbu_0, # of connection points: 4
#     Node 7, Type 0, BuildingBlock: CEKHIL_clean_sbu_0, # of connection points: 4
#     Node 8, Type 0, BuildingBlock: CEKHIL_clean_sbu_0, # of connection points: 4
#     Node 9, Type 0, BuildingBlock: CEKHIL_clean_sbu_0, # of connection points: 4
#     Node 10, Type 0, BuildingBlock: CEKHIL_clean_sbu_0, # of connection points: 4
#     Node 11, Type 0, BuildingBlock: CEKHIL_clean_sbu_0, # of connection points: 4
#     Node 12, Type 0, BuildingBlock: CEKHIL_clean_sbu_0, # of connection points: 4
#     Node 13, Type 0, BuildingBlock: CEKHIL_clean_sbu_0, # of connection points: 4
#     Node 14, Type 0, BuildingBlock: CEKHIL_clean_sbu_0, # of connection points: 4
#     Node 15, Type 0, BuildingBlock: CEKHIL_clean_sbu_0, # of connection points: 4
#     Node 16, Type 0, BuildingBlock: CEKHIL_clean_sbu_0, # of connection points: 4
#     Node 17, Type 0, BuildingBlock: CEKHIL_clean_sbu_0, # of connection points: 4
#     Node 18, Type 0, BuildingBlock: CEKHIL_clean_sbu_0, # of connection points: 4
#     Node 19, Type 0, BuildingBlock: CEKHIL_clean_sbu_0, # of connection points: 4
#     Node 20, Type 0, BuildingBlock: CEKHIL_clean_sbu_0, # of connection points: 4
#     Node 21, Type 0, BuildingBlock: CEKHIL_clean_sbu_0, # of connection points: 4
#     Node 22, Type 0, BuildingBlock: CEKHIL_clean_sbu_0, # of connection points: 4
#     Node 23, Type 0, BuildingBlock: CEKHIL_clean_sbu_0, # of connection points: 4
#     Node 24, Type 0, BuildingBlock: CEKHIL_clean_sbu_0, # of connection points: 4
#     Node 25, Type 0, BuildingBlock: CEKHIL_clean_sbu_0, # of connection points: 4
#     Node 26, Type 0, BuildingBlock: CEKHIL_clean_sbu_0, # of connection points: 4
#     Node 27, Type 0, BuildingBlock: CEKHIL_clean_sbu_0, # of connection points: 4
#     Node 28, Type 0, BuildingBlock: CEKHIL_clean_sbu_0, # of connection points: 4
#     Node 29, Type 0, BuildingBlock: CEKHIL_clean_sbu_0, # of connection points: 4
#     Node 30, Type 0, BuildingBlock: CEKHIL_clean_sbu_0, # of connection points: 4
#     Node 31, Type 0, BuildingBlock: CEKHIL_clean_sbu_0, # of connection points: 4
#     Node 32, Type 0, BuildingBlock: CEKHIL_clean_sbu_0, # of connection points: 4
#     Node 33, Type 0, BuildingBlock: CEKHIL_clean_sbu_0, # of connection points: 4
#     Node 34, Type 0, BuildingBlock: CEKHIL_clean_sbu_0, # of connection points: 4
#     Node 35, Type 0, BuildingBlock: CEKHIL_clean_sbu_0, # of connection points: 4
#     Node 36, Type 0, BuildingBlock: CEKHIL_clean_sbu_0, # of connection points: 4
#     Node 37, Type 0, BuildingBlock: CEKHIL_clean_sbu_0, # of connection points: 4
#     Node 38, Type 0, BuildingBlock: CEKHIL_clean_sbu_0, # of connection points: 4
#     Node 39, Type 0, BuildingBlock: CEKHIL_clean_sbu_0, # of connection points: 4
#     Node 40, Type 0, BuildingBlock: CEKHIL_clean_sbu_0, # of connection points: 4
#     Node 41, Type 0, BuildingBlock: CEKHIL_clean_sbu_0, # of connection points: 4
#     Node 42, Type 0, BuildingBlock: CEKHIL_clean_sbu_0, # of connection points: 4
#     Node 43, Type 0, BuildingBlock: CEKHIL_clean_sbu_0, # of connection points: 4
#     Node 44, Type 0, BuildingBlock: CEKHIL_clean_sbu_0, # of connection points: 4
#     Node 45, Type 0, BuildingBlock: CEKHIL_clean_sbu_0, # of connection points: 4
#     Node 46, Type 0, BuildingBlock: CEKHIL_clean_sbu_0, # of connection points: 4
#     Node 47, Type 0, BuildingBlock: CEKHIL_clean_sbu_0, # of connection points: 4
#     Node 48, Type 0, BuildingBlock: CEKHIL_clean_sbu_0, # of connection points: 4
#     Node 49, Type 0, BuildingBlock: CEKHIL_clean_sbu_0, # of connection points: 4
#     Node 50, Type 0, BuildingBlock: CEKHIL_clean_sbu_0, # of connection points: 4
#     Node 51, Type 0, BuildingBlock: CEKHIL_clean_sbu_0, # of connection points: 4
#     Node 52, Type 0, BuildingBlock: CEKHIL_clean_sbu_0, # of connection points: 4
#     Node 53, Type 0, BuildingBlock: CEKHIL_clean_sbu_0, # of connection points: 4
#     Node 54, Type 0, BuildingBlock: CEKHIL_clean_sbu_0, # of connection points: 4
#     Node 55, Type 0, BuildingBlock: CEKHIL_clean_sbu_0, # of connection points: 4
#     Node 56, Type 0, BuildingBlock: CEKHIL_clean_sbu_0, # of connection points: 4
#     Node 57, Type 0, BuildingBlock: CEKHIL_clean_sbu_0, # of connection points: 4
#     Node 58, Type 0, BuildingBlock: CEKHIL_clean_sbu_0, # of connection points: 4
#     Node 59, Type 0, BuildingBlock: CEKHIL_clean_sbu_0, # of connection points: 4
#     Node 60, Type 0, BuildingBlock: CEKHIL_clean_sbu_0, # of connection points: 4
#     Node 61, Type 0, BuildingBlock: CEKHIL_clean_sbu_0, # of connection points: 4
#     Node 62, Type 0, BuildingBlock: CEKHIL_clean_sbu_0, # of connection points: 4
#     Node 63, Type 0, BuildingBlock: CEKHIL_clean_sbu_0, # of connection points: 4
#     Node 64, Type 0, BuildingBlock: CEKHIL_clean_sbu_0, # of connection points: 4
#     Node 65, Type 0, BuildingBlock: CEKHIL_clean_sbu_0, # of connection points: 4
#     Node 66, Type 0, BuildingBlock: CEKHIL_clean_sbu_0, # of connection points: 4
#     Node 67, Type 0, BuildingBlock: CEKHIL_clean_sbu_0, # of connection points: 4
#     Node 68, Type 0, BuildingBlock: CEKHIL_clean_sbu_0, # of connection points: 4
#     Node 69, Type 0, BuildingBlock: CEKHIL_clean_sbu_0, # of connection points: 4
#     Node 70, Type 0, BuildingBlock: CEKHIL_clean_sbu_0, # of connection points: 4
#     Node 71, Type 0, BuildingBlock: CEKHIL_clean_sbu_0, # of connection points: 4
#     Node 72, Type 0, BuildingBlock: CEKHIL_clean_sbu_0, # of connection points: 4
#     Node 73, Type 0, BuildingBlock: CEKHIL_clean_sbu_0, # of connection points: 4
#     Node 74, Type 0, BuildingBlock: CEKHIL_clean_sbu_0, # of connection points: 4
#     Node 75, Type 0, BuildingBlock: CEKHIL_clean_sbu_0, # of connection points: 4
#     Node 76, Type 0, BuildingBlock: CEKHIL_clean_sbu_0, # of connection points: 4
#     Node 77, Type 0, BuildingBlock: CEKHIL_clean_sbu_0, # of connection points: 4
#     Node 78, Type 0, BuildingBlock: CEKHIL_clean_sbu_0, # of connection points: 4
#     Node 79, Type 0, BuildingBlock: CEKHIL_clean_sbu_0, # of connection points: 4
#     Node 80, Type 0, BuildingBlock: CEKHIL_clean_sbu_0, # of connection points: 4
#     Node 81, Type 0, BuildingBlock: CEKHIL_clean_sbu_0, # of connection points: 4
#     Node 82, Type 0, BuildingBlock: CEKHIL_clean_sbu_0, # of connection points: 4
#     Node 83, Type 0, BuildingBlock: CEKHIL_clean_sbu_0, # of connection points: 4
#     Node 84, Type 0, BuildingBlock: CEKHIL_clean_sbu_0, # of connection points: 4
#     Node 85, Type 0, BuildingBlock: CEKHIL_clean_sbu_0, # of connection points: 4
#     Node 86, Type 0, BuildingBlock: CEKHIL_clean_sbu_0, # of connection points: 4
#     Node 87, Type 0, BuildingBlock: CEKHIL_clean_sbu_0, # of connection points: 4
#     Node 88, Type 0, BuildingBlock: CEKHIL_clean_sbu_0, # of connection points: 4
#     Node 89, Type 0, BuildingBlock: CEKHIL_clean_sbu_0, # of connection points: 4
#     Node 90, Type 0, BuildingBlock: CEKHIL_clean_sbu_0, # of connection points: 4
#     Node 91, Type 0, BuildingBlock: CEKHIL_clean_sbu_0, # of connection points: 4
#     Node 92, Type 0, BuildingBlock: CEKHIL_clean_sbu_0, # of connection points: 4
#     Node 93, Type 0, BuildingBlock: CEKHIL_clean_sbu_0, # of connection points: 4
#     Node 94, Type 0, BuildingBlock: CEKHIL_clean_sbu_0, # of connection points: 4
#     Node 95, Type 0, BuildingBlock: CEKHIL_clean_sbu_0, # of connection points: 4
#     Edge 96, Type (0, 0), BuildingBlock: XIVTED_clean_linker_0, # of connection points: 2
#     Edge 97, Type (0, 0), BuildingBlock: XIVTED_clean_linker_0, # of connection points: 2
#     Edge 98, Type (0, 0), BuildingBlock: XIVTED_clean_linker_0, # of connection points: 2
#     Edge 99, Type (0, 0), BuildingBlock: XIVTED_clean_linker_0, # of connection points: 2
#     Edge 100, Type (0, 0), BuildingBlock: XIVTED_clean_linker_0, # of connection points: 2
#     Edge 101, Type (0, 0), BuildingBlock: XIVTED_clean_linker_0, # of connection points: 2
#     Edge 102, Type (0, 0), BuildingBlock: XIVTED_clean_linker_0, # of connection points: 2
#     Edge 103, Type (0, 0), BuildingBlock: XIVTED_clean_linker_0, # of connection points: 2
#     Edge 104, Type (0, 0), BuildingBlock: XIVTED_clean_linker_0, # of connection points: 2
#     Edge 105, Type (0, 0), BuildingBlock: XIVTED_clean_linker_0, # of connection points: 2
#     Edge 106, Type (0, 0), BuildingBlock: XIVTED_clean_linker_0, # of connection points: 2
#     Edge 107, Type (0, 0), BuildingBlock: XIVTED_clean_linker_0, # of connection points: 2
#     Edge 108, Type (0, 0), BuildingBlock: XIVTED_clean_linker_0, # of connection points: 2
#     Edge 109, Type (0, 0), BuildingBlock: XIVTED_clean_linker_0, # of connection points: 2
#     Edge 110, Type (0, 0), BuildingBlock: XIVTED_clean_linker_0, # of connection points: 2
#     Edge 111, Type (0, 0), BuildingBlock: XIVTED_clean_linker_0, # of connection points: 2
#     Edge 112, Type (0, 0), BuildingBlock: XIVTED_clean_linker_0, # of connection points: 2
#     Edge 113, Type (0, 0), BuildingBlock: XIVTED_clean_linker_0, # of connection points: 2
#     Edge 114, Type (0, 0), BuildingBlock: XIVTED_clean_linker_0, # of connection points: 2
#     Edge 115, Type (0, 0), BuildingBlock: XIVTED_clean_linker_0, # of connection points: 2
#     Edge 116, Type (0, 0), BuildingBlock: XIVTED_clean_linker_0, # of connection points: 2
#     Edge 117, Type (0, 0), BuildingBlock: XIVTED_clean_linker_0, # of connection points: 2
#     Edge 118, Type (0, 0), BuildingBlock: XIVTED_clean_linker_0, # of connection points: 2
#     Edge 119, Type (0, 0), BuildingBlock: XIVTED_clean_linker_0, # of connection points: 2
#     Edge 120, Type (0, 0), BuildingBlock: XIVTED_clean_linker_0, # of connection points: 2
#     Edge 121, Type (0, 0), BuildingBlock: XIVTED_clean_linker_0, # of connection points: 2
#     Edge 122, Type (0, 0), BuildingBlock: XIVTED_clean_linker_0, # of connection points: 2
#     Edge 123, Type (0, 0), BuildingBlock: XIVTED_clean_linker_0, # of connection points: 2
#     Edge 124, Type (0, 0), BuildingBlock: XIVTED_clean_linker_0, # of connection points: 2
#     Edge 125, Type (0, 0), BuildingBlock: XIVTED_clean_linker_0, # of connection points: 2
#     Edge 126, Type (0, 0), BuildingBlock: XIVTED_clean_linker_0, # of connection points: 2
#     Edge 127, Type (0, 0), BuildingBlock: XIVTED_clean_linker_0, # of connection points: 2
#     Edge 128, Type (0, 0), BuildingBlock: XIVTED_clean_linker_0, # of connection points: 2
#     Edge 129, Type (0, 0), BuildingBlock: XIVTED_clean_linker_0, # of connection points: 2
#     Edge 130, Type (0, 0), BuildingBlock: XIVTED_clean_linker_0, # of connection points: 2
#     Edge 131, Type (0, 0), BuildingBlock: XIVTED_clean_linker_0, # of connection points: 2
#     Edge 132, Type (0, 0), BuildingBlock: XIVTED_clean_linker_0, # of connection points: 2
#     Edge 133, Type (0, 0), BuildingBlock: XIVTED_clean_linker_0, # of connection points: 2
#     Edge 134, Type (0, 0), BuildingBlock: XIVTED_clean_linker_0, # of connection points: 2
#     Edge 135, Type (0, 0), BuildingBlock: XIVTED_clean_linker_0, # of connection points: 2
#     Edge 136, Type (0, 0), BuildingBlock: XIVTED_clean_linker_0, # of connection points: 2
#     Edge 137, Type (0, 0), BuildingBlock: XIVTED_clean_linker_0, # of connection points: 2
#     Edge 138, Type (0, 0), BuildingBlock: XIVTED_clean_linker_0, # of connection points: 2
#     Edge 139, Type (0, 0), BuildingBlock: XIVTED_clean_linker_0, # of connection points: 2
#     Edge 140, Type (0, 0), BuildingBlock: XIVTED_clean_linker_0, # of connection points: 2
#     Edge 141, Type (0, 0), BuildingBlock: XIVTED_clean_linker_0, # of connection points: 2
#     Edge 142, Type (0, 0), BuildingBlock: XIVTED_clean_linker_0, # of connection points: 2
#     Edge 143, Type (0, 0), BuildingBlock: XIVTED_clean_linker_0, # of connection points: 2
#     Edge 144, Type (0, 0), BuildingBlock: XIVTED_clean_linker_0, # of connection points: 2
#     Edge 145, Type (0, 0), BuildingBlock: XIVTED_clean_linker_0, # of connection points: 2
#     Edge 146, Type (0, 0), BuildingBlock: XIVTED_clean_linker_0, # of connection points: 2
#     Edge 147, Type (0, 0), BuildingBlock: XIVTED_clean_linker_0, # of connection points: 2
#     Edge 148, Type (0, 0), BuildingBlock: XIVTED_clean_linker_0, # of connection points: 2
#     Edge 149, Type (0, 0), BuildingBlock: XIVTED_clean_linker_0, # of connection points: 2
#     Edge 150, Type (0, 0), BuildingBlock: XIVTED_clean_linker_0, # of connection points: 2
#     Edge 151, Type (0, 0), BuildingBlock: XIVTED_clean_linker_0, # of connection points: 2
#     Edge 152, Type (0, 0), BuildingBlock: XIVTED_clean_linker_0, # of connection points: 2
#     Edge 153, Type (0, 0), BuildingBlock: XIVTED_clean_linker_0, # of connection points: 2
#     Edge 154, Type (0, 0), BuildingBlock: XIVTED_clean_linker_0, # of connection points: 2
#     Edge 155, Type (0, 0), BuildingBlock: XIVTED_clean_linker_0, # of connection points: 2
#     Edge 156, Type (0, 0), BuildingBlock: XIVTED_clean_linker_0, # of connection points: 2
#     Edge 157, Type (0, 0), BuildingBlock: XIVTED_clean_linker_0, # of connection points: 2
#     Edge 158, Type (0, 0), BuildingBlock: XIVTED_clean_linker_0, # of connection points: 2
#     Edge 159, Type (0, 0), BuildingBlock: XIVTED_clean_linker_0, # of connection points: 2
#     Edge 160, Type (0, 0), BuildingBlock: XIVTED_clean_linker_0, # of connection points: 2
#     Edge 161, Type (0, 0), BuildingBlock: XIVTED_clean_linker_0, # of connection points: 2
#     Edge 162, Type (0, 0), BuildingBlock: XIVTED_clean_linker_0, # of connection points: 2
#     Edge 163, Type (0, 0), BuildingBlock: XIVTED_clean_linker_0, # of connection points: 2
#     Edge 164, Type (0, 0), BuildingBlock: XIVTED_clean_linker_0, # of connection points: 2
#     Edge 165, Type (0, 0), BuildingBlock: XIVTED_clean_linker_0, # of connection points: 2
#     Edge 166, Type (0, 0), BuildingBlock: XIVTED_clean_linker_0, # of connection points: 2
#     Edge 167, Type (0, 0), BuildingBlock: XIVTED_clean_linker_0, # of connection points: 2
#     Edge 168, Type (0, 0), BuildingBlock: XIVTED_clean_linker_0, # of connection points: 2
#     Edge 169, Type (0, 0), BuildingBlock: XIVTED_clean_linker_0, # of connection points: 2
#     Edge 170, Type (0, 0), BuildingBlock: XIVTED_clean_linker_0, # of connection points: 2
#     Edge 171, Type (0, 0), BuildingBlock: XIVTED_clean_linker_0, # of connection points: 2
#     Edge 172, Type (0, 0), BuildingBlock: XIVTED_clean_linker_0, # of connection points: 2
#     Edge 173, Type (0, 0), BuildingBlock: XIVTED_clean_linker_0, # of connection points: 2
#     Edge 174, Type (0, 0), BuildingBlock: XIVTED_clean_linker_0, # of connection points: 2
#     Edge 175, Type (0, 0), BuildingBlock: XIVTED_clean_linker_0, # of connection points: 2
#     Edge 176, Type (0, 0), BuildingBlock: XIVTED_clean_linker_0, # of connection points: 2
#     Edge 177, Type (0, 0), BuildingBlock: XIVTED_clean_linker_0, # of connection points: 2
#     Edge 178, Type (0, 0), BuildingBlock: XIVTED_clean_linker_0, # of connection points: 2
#     Edge 179, Type (0, 0), BuildingBlock: XIVTED_clean_linker_0, # of connection points: 2
#     Edge 180, Type (0, 0), BuildingBlock: XIVTED_clean_linker_0, # of connection points: 2
#     Edge 181, Type (0, 0), BuildingBlock: XIVTED_clean_linker_0, # of connection points: 2
#     Edge 182, Type (0, 0), BuildingBlock: XIVTED_clean_linker_0, # of connection points: 2
#     Edge 183, Type (0, 0), BuildingBlock: XIVTED_clean_linker_0, # of connection points: 2
#     Edge 184, Type (0, 0), BuildingBlock: XIVTED_clean_linker_0, # of connection points: 2
#     Edge 185, Type (0, 0), BuildingBlock: XIVTED_clean_linker_0, # of connection points: 2
#     Edge 186, Type (0, 0), BuildingBlock: XIVTED_clean_linker_0, # of connection points: 2
#     Edge 187, Type (0, 0), BuildingBlock: XIVTED_clean_linker_0, # of connection points: 2
#     Edge 188, Type (0, 0), BuildingBlock: XIVTED_clean_linker_0, # of connection points: 2
#     Edge 189, Type (0, 0), BuildingBlock: XIVTED_clean_linker_0, # of connection points: 2
#     Edge 190, Type (0, 0), BuildingBlock: XIVTED_clean_linker_0, # of connection points: 2
#     Edge 191, Type (0, 0), BuildingBlock: XIVTED_clean_linker_0, # of connection points: 2
#     Edge 192, Type (0, 0), BuildingBlock: XIVTED_clean_linker_0, # of connection points: 2
#     Edge 193, Type (0, 0), BuildingBlock: XIVTED_clean_linker_0, # of connection points: 2
#     Edge 194, Type (0, 0), BuildingBlock: XIVTED_clean_linker_0, # of connection points: 2
#     Edge 195, Type (0, 0), BuildingBlock: XIVTED_clean_linker_0, # of connection points: 2
#     Edge 196, Type (0, 0), BuildingBlock: XIVTED_clean_linker_0, # of connection points: 2
#     Edge 197, Type (0, 0), BuildingBlock: XIVTED_clean_linker_0, # of connection points: 2
#     Edge 198, Type (0, 0), BuildingBlock: XIVTED_clean_linker_0, # of connection points: 2
#     Edge 199, Type (0, 0), BuildingBlock: XIVTED_clean_linker_0, # of connection points: 2
#     Edge 200, Type (0, 0), BuildingBlock: XIVTED_clean_linker_0, # of connection points: 2
#     Edge 201, Type (0, 0), BuildingBlock: XIVTED_clean_linker_0, # of connection points: 2
#     Edge 202, Type (0, 0), BuildingBlock: XIVTED_clean_linker_0, # of connection points: 2
#     Edge 203, Type (0, 0), BuildingBlock: XIVTED_clean_linker_0, # of connection points: 2
#     Edge 204, Type (0, 0), BuildingBlock: XIVTED_clean_linker_0, # of connection points: 2
#     Edge 205, Type (0, 0), BuildingBlock: XIVTED_clean_linker_0, # of connection points: 2
#     Edge 206, Type (0, 0), BuildingBlock: XIVTED_clean_linker_0, # of connection points: 2
#     Edge 207, Type (0, 0), BuildingBlock: XIVTED_clean_linker_0, # of connection points: 2
#     Edge 208, Type (0, 0), BuildingBlock: XIVTED_clean_linker_0, # of connection points: 2
#     Edge 209, Type (0, 0), BuildingBlock: XIVTED_clean_linker_0, # of connection points: 2
#     Edge 210, Type (0, 0), BuildingBlock: XIVTED_clean_linker_0, # of connection points: 2
#     Edge 211, Type (0, 0), BuildingBlock: XIVTED_clean_linker_0, # of connection points: 2
#     Edge 212, Type (0, 0), BuildingBlock: XIVTED_clean_linker_0, # of connection points: 2
#     Edge 213, Type (0, 0), BuildingBlock: XIVTED_clean_linker_0, # of connection points: 2
#     Edge 214, Type (0, 0), BuildingBlock: XIVTED_clean_linker_0, # of connection points: 2
#     Edge 215, Type (0, 0), BuildingBlock: XIVTED_clean_linker_0, # of connection points: 2
#     Edge 216, Type (0, 0), BuildingBlock: XIVTED_clean_linker_0, # of connection points: 2
#     Edge 217, Type (0, 0), BuildingBlock: XIVTED_clean_linker_0, # of connection points: 2
#     Edge 218, Type (0, 0), BuildingBlock: XIVTED_clean_linker_0, # of connection points: 2
#     Edge 219, Type (0, 0), BuildingBlock: XIVTED_clean_linker_0, # of connection points: 2
#     Edge 220, Type (0, 0), BuildingBlock: XIVTED_clean_linker_0, # of connection points: 2
#     Edge 221, Type (0, 0), BuildingBlock: XIVTED_clean_linker_0, # of connection points: 2
#     Edge 222, Type (0, 0), BuildingBlock: XIVTED_clean_linker_0, # of connection points: 2
#     Edge 223, Type (0, 0), BuildingBlock: XIVTED_clean_linker_0, # of connection points: 2
#     Edge 224, Type (0, 0), BuildingBlock: XIVTED_clean_linker_0, # of connection points: 2
#     Edge 225, Type (0, 0), BuildingBlock: XIVTED_clean_linker_0, # of connection points: 2
#     Edge 226, Type (0, 0), BuildingBlock: XIVTED_clean_linker_0, # of connection points: 2
#     Edge 227, Type (0, 0), BuildingBlock: XIVTED_clean_linker_0, # of connection points: 2
#     Edge 228, Type (0, 0), BuildingBlock: XIVTED_clean_linker_0, # of connection points: 2
#     Edge 229, Type (0, 0), BuildingBlock: XIVTED_clean_linker_0, # of connection points: 2
#     Edge 230, Type (0, 0), BuildingBlock: XIVTED_clean_linker_0, # of connection points: 2
#     Edge 231, Type (0, 0), BuildingBlock: XIVTED_clean_linker_0, # of connection points: 2
#     Edge 232, Type (0, 0), BuildingBlock: XIVTED_clean_linker_0, # of connection points: 2
#     Edge 233, Type (0, 0), BuildingBlock: XIVTED_clean_linker_0, # of connection points: 2
#     Edge 234, Type (0, 0), BuildingBlock: XIVTED_clean_linker_0, # of connection points: 2
#     Edge 235, Type (0, 0), BuildingBlock: XIVTED_clean_linker_0, # of connection points: 2
#     Edge 236, Type (0, 0), BuildingBlock: XIVTED_clean_linker_0, # of connection points: 2
#     Edge 237, Type (0, 0), BuildingBlock: XIVTED_clean_linker_0, # of connection points: 2
#     Edge 238, Type (0, 0), BuildingBlock: XIVTED_clean_linker_0, # of connection points: 2
#     Edge 239, Type (0, 0), BuildingBlock: XIVTED_clean_linker_0, # of connection points: 2
#     Edge 240, Type (0, 0), BuildingBlock: XIVTED_clean_linker_0, # of connection points: 2
#     Edge 241, Type (0, 0), BuildingBlock: XIVTED_clean_linker_0, # of connection points: 2
#     Edge 242, Type (0, 0), BuildingBlock: XIVTED_clean_linker_0, # of connection points: 2
#     Edge 243, Type (0, 0), BuildingBlock: XIVTED_clean_linker_0, # of connection points: 2
#     Edge 244, Type (0, 0), BuildingBlock: XIVTED_clean_linker_0, # of connection points: 2
#     Edge 245, Type (0, 0), BuildingBlock: XIVTED_clean_linker_0, # of connection points: 2
#     Edge 246, Type (0, 0), BuildingBlock: XIVTED_clean_linker_0, # of connection points: 2
#     Edge 247, Type (0, 0), BuildingBlock: XIVTED_clean_linker_0, # of connection points: 2
#     Edge 248, Type (0, 0), BuildingBlock: XIVTED_clean_linker_0, # of connection points: 2
#     Edge 249, Type (0, 0), BuildingBlock: XIVTED_clean_linker_0, # of connection points: 2
#     Edge 250, Type (0, 0), BuildingBlock: XIVTED_clean_linker_0, # of connection points: 2
#     Edge 251, Type (0, 0), BuildingBlock: XIVTED_clean_linker_0, # of connection points: 2
#     Edge 252, Type (0, 0), BuildingBlock: XIVTED_clean_linker_0, # of connection points: 2
#     Edge 253, Type (0, 0), BuildingBlock: XIVTED_clean_linker_0, # of connection points: 2
#     Edge 254, Type (0, 0), BuildingBlock: XIVTED_clean_linker_0, # of connection points: 2
#     Edge 255, Type (0, 0), BuildingBlock: XIVTED_clean_linker_0, # of connection points: 2
#     Edge 256, Type (0, 0), BuildingBlock: XIVTED_clean_linker_0, # of connection points: 2
#     Edge 257, Type (0, 0), BuildingBlock: XIVTED_clean_linker_0, # of connection points: 2
#     Edge 258, Type (0, 0), BuildingBlock: XIVTED_clean_linker_0, # of connection points: 2
#     Edge 259, Type (0, 0), BuildingBlock: XIVTED_clean_linker_0, # of connection points: 2
#     Edge 260, Type (0, 0), BuildingBlock: XIVTED_clean_linker_0, # of connection points: 2
#     Edge 261, Type (0, 0), BuildingBlock: XIVTED_clean_linker_0, # of connection points: 2
#     Edge 262, Type (0, 0), BuildingBlock: XIVTED_clean_linker_0, # of connection points: 2
#     Edge 263, Type (0, 0), BuildingBlock: XIVTED_clean_linker_0, # of connection points: 2
#     Edge 264, Type (0, 0), BuildingBlock: XIVTED_clean_linker_0, # of connection points: 2
#     Edge 265, Type (0, 0), BuildingBlock: XIVTED_clean_linker_0, # of connection points: 2
#     Edge 266, Type (0, 0), BuildingBlock: XIVTED_clean_linker_0, # of connection points: 2
#     Edge 267, Type (0, 0), BuildingBlock: XIVTED_clean_linker_0, # of connection points: 2
#     Edge 268, Type (0, 0), BuildingBlock: XIVTED_clean_linker_0, # of connection points: 2
#     Edge 269, Type (0, 0), BuildingBlock: XIVTED_clean_linker_0, # of connection points: 2
#     Edge 270, Type (0, 0), BuildingBlock: XIVTED_clean_linker_0, # of connection points: 2
#     Edge 271, Type (0, 0), BuildingBlock: XIVTED_clean_linker_0, # of connection points: 2
#     Edge 272, Type (0, 0), BuildingBlock: XIVTED_clean_linker_0, # of connection points: 2
#     Edge 273, Type (0, 0), BuildingBlock: XIVTED_clean_linker_0, # of connection points: 2
#     Edge 274, Type (0, 0), BuildingBlock: XIVTED_clean_linker_0, # of connection points: 2
#     Edge 275, Type (0, 0), BuildingBlock: XIVTED_clean_linker_0, # of connection points: 2
#     Edge 276, Type (0, 0), BuildingBlock: XIVTED_clean_linker_0, # of connection points: 2
#     Edge 277, Type (0, 0), BuildingBlock: XIVTED_clean_linker_0, # of connection points: 2
#     Edge 278, Type (0, 0), BuildingBlock: XIVTED_clean_linker_0, # of connection points: 2
#     Edge 279, Type (0, 0), BuildingBlock: XIVTED_clean_linker_0, # of connection points: 2
#     Edge 280, Type (0, 0), BuildingBlock: XIVTED_clean_linker_0, # of connection points: 2
#     Edge 281, Type (0, 0), BuildingBlock: XIVTED_clean_linker_0, # of connection points: 2
#     Edge 282, Type (0, 0), BuildingBlock: XIVTED_clean_linker_0, # of connection points: 2
#     Edge 283, Type (0, 0), BuildingBlock: XIVTED_clean_linker_0, # of connection points: 2
#     Edge 284, Type (0, 0), BuildingBlock: XIVTED_clean_linker_0, # of connection points: 2
#     Edge 285, Type (0, 0), BuildingBlock: XIVTED_clean_linker_0, # of connection points: 2
#     Edge 286, Type (0, 0), BuildingBlock: XIVTED_clean_linker_0, # of connection points: 2
#     Edge 287, Type (0, 0), BuildingBlock: XIVTED_clean_linker_0, # of connection points: 2
# Relax obj value: 0.563
# Max RMSD: 0.155
# Mean RMSD: 0.155
data_MOF--net-ulg--node1-CEKHIL_clean_sbu_0--edge1-XIVTED_clean_linker_0
_symmetry_space_group_name_H-M    P1
_symmetry_Int_Tables_number       1
_symmetry_cell_setting            triclinic
loop_
_symmetry_equiv_pos_as_xyz
'x, y, z'
_cell_length_a     92.073974
_cell_length_b     92.063735
_cell_length_c     92.063813
_cell_angle_alpha  89.999286
_cell_angle_beta   90.005405
_cell_angle_gamma 90.000272
loop_
_atom_site_label
_atom_site_type_symbol
_atom_site_fract_x
_atom_site_fract_y
_atom_site_fract_z
_atom_type_partial_charge
Co0 Co 0.06495 0.54687 0.16948 0.0
O1 O 0.04618 0.54283 0.17758 0.0
O2 O 0.05327 0.53651 0.15546 0.0
C3 C 0.07796 0.53971 0.18895 0.0
O4 O 0.08354 0.54833 0.15761 0.0
Co5 Co 0.08587 0.56945 0.18332 0.0
O6 O 0.10053 0.56043 0.17025 0.0
C7 C 0.06123 0.57948 0.16528 0.0
C8 C 0.04333 0.53615 0.16549 0.0
C9 C 0.09668 0.55273 0.1594 0.0
O10 O 0.05812 0.56628 0.16177 0.0
O11 O 0.07102 0.58278 0.1746 0.0
O12 O 0.07318 0.53016 0.17972 0.0
O13 O 0.07357 0.55284 0.18687 0.0
Co14 Co 0.70614 0.31198 0.41806 0.0
O15 O 0.7107 0.29324 0.42595 0.0
O16 O 0.7172 0.30087 0.40406 0.0
C17 C 0.71247 0.3249 0.43791 0.0
O18 O 0.70415 0.33074 0.40652 0.0
Co19 Co 0.68252 0.33167 0.43207 0.0
O20 O 0.69127 0.34691 0.41951 0.0
C21 C 0.67378 0.30708 0.41328 0.0
C22 C 0.71769 0.29079 0.41395 0.0
C23 C 0.69923 0.34366 0.40864 0.0
O24 O 0.68713 0.3046 0.40984 0.0
O25 O 0.66998 0.31645 0.42285 0.0
O26 O 0.72235 0.32065 0.42878 0.0
O27 O 0.69957 0.32002 0.43551 0.0
Co28 Co 0.93534 0.95784 0.66856 0.0
O29 O 0.95475 0.96197 0.67515 0.0
O30 O 0.94544 0.96898 0.65403 0.0
C31 C 0.92356 0.96396 0.68915 0.0
O32 O 0.91596 0.95631 0.65809 0.0
Co33 Co 0.91596 0.9343 0.68302 0.0
O34 O 0.90021 0.94283 0.67092 0.0
C35 C 0.9398 0.92554 0.66334 0.0
C36 C 0.95633 0.96899 0.663 0.0
C37 C 0.90316 0.95117 0.66026 0.0
O38 O 0.942 0.93888 0.65968 0.0
O39 O 0.93091 0.92177 0.67336 0.0
O40 O 0.92755 0.97395 0.68001 0.0
O41 O 0.92817 0.95104 0.68632 0.0
Co42 Co 0.29348 0.18643 0.91825 0.0
O43 O 0.28947 0.20603 0.92436 0.0
O44 O 0.28289 0.19642 0.90324 0.0
C45 C 0.2866 0.1751 0.93884 0.0
O46 O 0.29498 0.16683 0.90819 0.0
Co47 Co 0.31632 0.16698 0.93369 0.0
O48 O 0.30798 0.15114 0.92158 0.0
C49 C 0.326 0.19014 0.91364 0.0
C50 C 0.28276 0.20746 0.91202 0.0
C51 C 0.29993 0.15401 0.91068 0.0
O52 O 0.31277 0.19261 0.90974 0.0
O53 O 0.3294 0.18136 0.92388 0.0
O54 O 0.27694 0.17913 0.92937 0.0
O55 O 0.29967 0.17948 0.93632 0.0
Co56 Co 0.06412 0.45651 0.8317 0.0
O57 O 0.04571 0.46111 0.8231 0.0
O58 O 0.05253 0.46769 0.84522 0.0
C59 C 0.07779 0.46266 0.81232 0.0
O60 O 0.08245 0.45446 0.84394 0.0
Co61 Co 0.0841 0.43264 0.81853 0.0
O62 O 0.09895 0.44144 0.83152 0.0
C63 C 0.05871 0.4242 0.83632 0.0
C64 C 0.04283 0.46816 0.83496 0.0
C65 C 0.0954 0.44947 0.84224 0.0
O66 O 0.05632 0.43758 0.83973 0.0
O67 O 0.06834 0.42028 0.82708 0.0
O68 O 0.07326 0.47262 0.82124 0.0
O69 O 0.07276 0.4498 0.81461 0.0
Co70 Co 0.79137 0.3166 0.08265 0.0
O71 O 0.78643 0.29814 0.07435 0.0
O72 O 0.77998 0.30545 0.09636 0.0
C73 C 0.7855 0.33004 0.063 0.0
O74 O 0.79374 0.33507 0.09457 0.0
Co75 Co 0.81557 0.33596 0.06919 0.0
O76 O 0.807 0.35118 0.08189 0.0
C77 C 0.82358 0.31073 0.08744 0.0
C78 C 0.77936 0.29557 0.08627 0.0
C79 C 0.79892 0.34792 0.09266 0.0
O80 O 0.81015 0.30857 0.09082 0.0
O81 O 0.82766 0.32018 0.07808 0.0
O82 O 0.77545 0.3259 0.072 0.0
O83 O 0.79826 0.32481 0.06542 0.0
Co84 Co 0.93605 0.04509 0.33008 0.0
O85 O 0.95486 0.04099 0.32218 0.0
O86 O 0.94742 0.03431 0.34407 0.0
C87 C 0.92325 0.03844 0.31028 0.0
O88 O 0.91725 0.04664 0.34165 0.0
Co89 Co 0.91587 0.06832 0.31612 0.0
O90 O 0.90084 0.05929 0.32873 0.0
C91 C 0.94029 0.07757 0.33485 0.0
C92 C 0.95749 0.03405 0.33417 0.0
C93 C 0.90424 0.05134 0.33956 0.0
O94 O 0.94302 0.06427 0.33827 0.0
O95 O 0.93082 0.0812 0.32531 0.0
O96 O 0.92776 0.02868 0.31942 0.0
O97 O 0.92782 0.05147 0.31265 0.0
Co98 Co 0.20531 0.18567 0.58303 0.0
O99 O 0.20962 0.20419 0.57448 0.0
O100 O 0.216 0.19753 0.5967 0.0
C101 C 0.21203 0.17214 0.56372 0.0
O102 O 0.20352 0.16735 0.59529 0.0
Co103 Co 0.18218 0.16501 0.56959 0.0
O104 O 0.19109 0.15044 0.58282 0.0
C105 C 0.17281 0.19028 0.58712 0.0
C106 C 0.21639 0.20725 0.58646 0.0
C107 C 0.19886 0.15427 0.59363 0.0
O108 O 0.18607 0.19304 0.59073 0.0
O109 O 0.16931 0.1805 0.57786 0.0
O110 O 0.22176 0.17686 0.57279 0.0
O111 O 0.19903 0.17686 0.56586 0.0
Co112 Co 0.16937 0.06276 0.54427 0.0
O113 O 0.17757 0.04417 0.53952 0.0
O114 O 0.15538 0.05134 0.53356 0.0
C115 C 0.18872 0.07622 0.53758 0.0
O116 O 0.15738 0.0812 0.54641 0.0
Co117 Co 0.18316 0.08294 0.56757 0.0
O118 O 0.17003 0.09783 0.55902 0.0
C119 C 0.16546 0.05774 0.57674 0.0
C120 C 0.16545 0.04146 0.53284 0.0
C121 C 0.15918 0.09421 0.55121 0.0
O122 O 0.16175 0.05519 0.56347 0.0
O123 O 0.17482 0.0674 0.58032 0.0
O124 O 0.17954 0.0717 0.52786 0.0
O125 O 0.18669 0.07129 0.55052 0.0
Co126 Co 0.187 0.41899 0.79597 0.0
O127 O 0.20573 0.42728 0.79214 0.0
O128 O 0.19896 0.4051 0.78571 0.0
C129 C 0.17387 0.43835 0.78868 0.0
O130 O 0.16847 0.40698 0.79727 0.0
Co131 Co 0.16584 0.4328 0.81838 0.0
O132 O 0.15133 0.41989 0.80891 0.0
C133 C 0.19047 0.41487 0.82864 0.0
C134 C 0.20881 0.41522 0.7855 0.0
C135 C 0.15524 0.40896 0.80136 0.0
O136 O 0.19371 0.41135 0.81547 0.0
O137 O 0.1806 0.42414 0.83183 0.0
O138 O 0.17881 0.42917 0.77918 0.0
O139 O 0.1782 0.43631 0.80184 0.0
Co140 Co 0.83344 0.43665 0.04396 0.0
O141 O 0.82698 0.45607 0.03958 0.0
O142 O 0.84805 0.44653 0.03272 0.0
C143 C 0.81277 0.42494 0.03789 0.0
O144 O 0.84378 0.41723 0.04575 0.0
Co145 Co 0.81872 0.4176 0.06764 0.0
O146 O 0.83076 0.4017 0.05931 0.0
C147 C 0.83858 0.44136 0.07624 0.0
C148 C 0.83912 0.45745 0.03251 0.0
C149 C 0.84149 0.4045 0.05102 0.0
O150 O 0.84232 0.44343 0.06289 0.0
O151 O 0.82846 0.43261 0.08005 0.0
O152 O 0.82195 0.4288 0.02789 0.0
O153 O 0.81562 0.42966 0.05077 0.0
Co154 Co 0.81408 0.08 0.29421 0.0
O155 O 0.79526 0.072 0.29035 0.0
O156 O 0.8024 0.09403 0.28381 0.0
C157 C 0.82694 0.06041 0.28709 0.0
O158 O 0.83281 0.09169 0.2956 0.0
Co159 Co 0.83477 0.06592 0.31691 0.0
O160 O 0.84957 0.07866 0.30767 0.0
C161 C 0.81036 0.08431 0.32682 0.0
C162 C 0.79239 0.08406 0.28364 0.0
C163 C 0.84593 0.08958 0.29996 0.0
O164 O 0.80738 0.08789 0.3136 0.0
O165 O 0.81995 0.07481 0.33017 0.0
O166 O 0.82218 0.06962 0.27752 0.0
O167 O 0.82255 0.06256 0.30022 0.0
Co168 Co 0.16639 0.93467 0.45454 0.0
O169 O 0.17516 0.9532 0.45825 0.0
O170 O 0.15307 0.94683 0.46533 0.0
C171 C 0.18577 0.92119 0.46113 0.0
O172 O 0.15398 0.91637 0.45341 0.0
Co173 Co 0.17918 0.91344 0.43157 0.0
O174 O 0.16618 0.89912 0.44118 0.0
C175 C 0.16156 0.93861 0.42206 0.0
C176 C 0.16339 0.95648 0.46528 0.0
C177 C 0.15553 0.90317 0.44906 0.0
O178 O 0.1583 0.9417 0.43534 0.0
O179 O 0.17064 0.92867 0.41855 0.0
O180 O 0.17694 0.92615 0.47095 0.0
O181 O 0.18337 0.92563 0.44808 0.0
Co182 Co 0.31502 0.42001 0.70637 0.0
O183 O 0.29651 0.42839 0.71095 0.0
O184 O 0.30359 0.40634 0.71751 0.0
C185 C 0.3285 0.43952 0.71254 0.0
O186 O 0.33346 0.40797 0.70434 0.0
Co187 Co 0.33493 0.43335 0.68255 0.0
O188 O 0.34986 0.4203 0.69113 0.0
C189 C 0.30974 0.41531 0.67405 0.0
C190 C 0.29375 0.41647 0.71796 0.0
C191 C 0.34636 0.40962 0.69922 0.0
O192 O 0.30733 0.41191 0.68743 0.0
O193 O 0.3193 0.42463 0.67015 0.0
O194 O 0.32405 0.43055 0.72249 0.0
O195 O 0.3235 0.4372 0.69967 0.0
Co196 Co 0.83246 0.56286 0.95479 0.0
O197 O 0.82598 0.54346 0.95924 0.0
O198 O 0.84724 0.55285 0.96567 0.0
C199 C 0.81203 0.57471 0.96133 0.0
O200 O 0.84291 0.5822 0.9529 0.0
Co201 Co 0.81747 0.58216 0.93151 0.0
O202 O 0.82982 0.59793 0.93963 0.0
C203 C 0.83715 0.55843 0.92239 0.0
C204 C 0.83826 0.54197 0.96604 0.0
C205 C 0.84067 0.59498 0.94772 0.0
O206 O 0.84094 0.55611 0.93567 0.0
O207 O 0.82708 0.56733 0.91878 0.0
O208 O 0.82139 0.57073 0.97112 0.0
O209 O 0.81454 0.57002 0.94837 0.0
Co210 Co 0.68606 0.0818 0.20505 0.0
O211 O 0.70483 0.07375 0.20916 0.0
O212 O 0.69749 0.09564 0.21597 0.0
C213 C 0.67314 0.06201 0.2115 0.0
O214 O 0.66735 0.09348 0.20352 0.0
Co215 Co 0.66586 0.06814 0.18167 0.0
O216 O 0.65087 0.08077 0.19077 0.0
C217 C 0.69051 0.08666 0.17263 0.0
C218 C 0.70751 0.08568 0.21617 0.0
C219 C 0.65434 0.09151 0.19879 0.0
O220 O 0.69314 0.09008 0.18596 0.0
O221 O 0.68103 0.07717 0.16893 0.0
O222 O 0.67765 0.07104 0.22135 0.0
O223 O 0.67776 0.06447 0.19851 0.0
Co224 Co 0.54518 0.16768 0.06374 0.0
O225 O 0.54118 0.17594 0.04503 0.0
O226 O 0.53484 0.15376 0.05189 0.0
C227 C 0.53795 0.18701 0.07695 0.0
O228 O 0.54667 0.15571 0.08227 0.0
Co229 Co 0.5678 0.18157 0.08465 0.0
O230 O 0.55875 0.16845 0.09923 0.0
C231 C 0.57782 0.16349 0.06004 0.0
C232 C 0.53451 0.16388 0.04203 0.0
C233 C 0.55109 0.15756 0.0954 0.0
O234 O 0.56462 0.16001 0.0569 0.0
O235 O 0.58112 0.17282 0.06982 0.0
O236 O 0.52844 0.17783 0.07203 0.0
O237 O 0.55108 0.18503 0.0725 0.0
Co238 Co 0.041 0.83124 0.43497 0.0
O239 O 0.03618 0.82278 0.4534 0.0
O240 O 0.02977 0.84488 0.44637 0.0
C241 C 0.03495 0.81182 0.42126 0.0
O242 O 0.04325 0.84334 0.41659 0.0
Co243 Co 0.06506 0.81789 0.41533 0.0
O244 O 0.05649 0.83084 0.40032 0.0
C245 C 0.07329 0.83597 0.44058 0.0
C246 C 0.02921 0.83472 0.45617 0.0
C247 C 0.04841 0.84157 0.40371 0.0
O248 O 0.05988 0.8393 0.4429 0.0
O249 O 0.0773 0.82667 0.43104 0.0
O250 O 0.02496 0.82076 0.42567 0.0
O251 O 0.04775 0.81407 0.42647 0.0
Co252 Co 0.41832 0.29515 0.6854 0.0
O253 O 0.42684 0.29119 0.70399 0.0
O254 O 0.40454 0.28489 0.69748 0.0
C255 C 0.43743 0.28784 0.67192 0.0
O256 O 0.40608 0.29665 0.66703 0.0
Co257 Co 0.43198 0.31771 0.66428 0.0
O258 O 0.41862 0.3087 0.64989 0.0
C259 C 0.41442 0.32781 0.68922 0.0
C260 C 0.4148 0.2846 0.7072 0.0
C261 C 0.40776 0.30106 0.65387 0.0
O262 O 0.41083 0.31463 0.69233 0.0
O263 O 0.42366 0.33106 0.67933 0.0
O264 O 0.42829 0.27836 0.67699 0.0
O265 O 0.43555 0.30098 0.67638 0.0
Co266 Co 0.95555 0.66732 0.935 0.0
O267 O 0.95972 0.67367 0.9545 0.0
O268 O 0.96603 0.65234 0.9452 0.0
C269 C 0.96265 0.6877 0.92338 0.0
O270 O 0.95384 0.65703 0.91551 0.0
Co271 Co 0.93286 0.68289 0.91543 0.0
O272 O 0.94123 0.67067 0.8997 0.0
C273 C 0.92295 0.66311 0.93875 0.0
C274 C 0.96632 0.6613 0.95611 0.0
C275 C 0.94903 0.65961 0.90264 0.0
O276 O 0.93614 0.65916 0.94135 0.0
O277 O 0.91967 0.67325 0.92981 0.0
O278 O 0.97221 0.67815 0.92747 0.0
O279 O 0.94958 0.6854 0.92784 0.0
Co280 Co 0.08047 0.70637 0.18381 0.0
O281 O 0.0737 0.71083 0.20311 0.0
O282 O 0.09478 0.71791 0.19379 0.0
C283 C 0.05996 0.712 0.17164 0.0
O284 O 0.09105 0.70455 0.16452 0.0
Co285 Co 0.06639 0.68213 0.16498 0.0
O286 O 0.07829 0.69063 0.14907 0.0
C287 C 0.08651 0.67419 0.18874 0.0
C288 C 0.08573 0.71806 0.20462 0.0
C289 C 0.08887 0.69914 0.15182 0.0
O290 O 0.08963 0.68767 0.19089 0.0
O291 O 0.07665 0.66998 0.17987 0.0
O292 O 0.0689 0.72217 0.17561 0.0
O293 O 0.06282 0.69922 0.17662 0.0
Co294 Co 0.45391 0.83238 0.06295 0.0
O295 O 0.45816 0.82426 0.04425 0.0
O296 O 0.46462 0.8463 0.05144 0.0
C297 C 0.46063 0.81281 0.07607 0.0
O298 O 0.45218 0.84419 0.08156 0.0
Co299 Co 0.43073 0.81854 0.08327 0.0
O300 O 0.43966 0.8314 0.09816 0.0
C301 C 0.42142 0.83688 0.05857 0.0
C302 C 0.46499 0.83628 0.04148 0.0
C303 C 0.44749 0.84225 0.09459 0.0
O304 O 0.43471 0.84034 0.0558 0.0
O305 O 0.41783 0.82746 0.06816 0.0
O306 O 0.47036 0.82194 0.07148 0.0
O307 O 0.44762 0.81501 0.07139 0.0
Co308 Co 0.41765 0.20509 0.81305 0.0
O309 O 0.42593 0.20954 0.79445 0.0
O310 O 0.40391 0.2161 0.8016 0.0
C311 C 0.43718 0.21144 0.82642 0.0
O312 O 0.40568 0.20324 0.83153 0.0
Co313 Co 0.43107 0.18151 0.83319 0.0
O314 O 0.41807 0.19024 0.84806 0.0
C315 C 0.41274 0.1727 0.80828 0.0
C316 C 0.414 0.21654 0.79172 0.0
C317 C 0.40737 0.19828 0.84449 0.0
O318 O 0.4095 0.18607 0.80561 0.0
O319 O 0.42207 0.1689 0.81789 0.0
O320 O 0.4282 0.22132 0.82186 0.0
O321 O 0.43488 0.19851 0.82156 0.0
Co322 Co 0.58111 0.2945 0.31389 0.0
O323 O 0.5725 0.29037 0.29537 0.0
O324 O 0.5944 0.28314 0.30226 0.0
C325 C 0.56146 0.28871 0.32732 0.0
O326 O 0.59333 0.29594 0.33226 0.0
Co327 Co 0.56858 0.31833 0.33429 0.0
O328 O 0.58129 0.30895 0.34904 0.0
C329 C 0.58656 0.32674 0.30899 0.0
C330 C 0.58421 0.28307 0.29247 0.0
C331 C 0.59179 0.30071 0.34531 0.0
O332 O 0.58964 0.31332 0.30637 0.0
O333 O 0.57744 0.33071 0.31872 0.0
O334 O 0.57016 0.27857 0.32278 0.0
O335 O 0.56417 0.30158 0.32253 0.0
Co336 Co 0.06464 0.04307 0.66643 0.0
O337 O 0.04521 0.03948 0.6733 0.0
O338 O 0.05414 0.03189 0.65222 0.0
C339 C 0.07644 0.03707 0.68706 0.0
O340 O 0.08392 0.04398 0.6557 0.0
Co341 Co 0.08478 0.06636 0.68027 0.0
O342 O 0.10016 0.05726 0.66813 0.0
C343 C 0.06085 0.07537 0.66077 0.0
C344 C 0.04337 0.03225 0.66132 0.0
C345 C 0.09687 0.04884 0.65763 0.0
O346 O 0.0583 0.06204 0.6573 0.0
O347 O 0.06995 0.07906 0.67063 0.0
O348 O 0.07218 0.027 0.67814 0.0
O349 O 0.07215 0.05004 0.68397 0.0
Co350 Co 0.70482 0.81267 0.91951 0.0
O351 O 0.70924 0.79409 0.92789 0.0
O352 O 0.71567 0.80107 0.90578 0.0
C353 C 0.71136 0.82614 0.93891 0.0
O354 O 0.70299 0.83109 0.90742 0.0
Co355 Co 0.68146 0.83306 0.93295 0.0
O356 O 0.69022 0.8478 0.91981 0.0
C357 C 0.67236 0.80804 0.91494 0.0
C358 C 0.71613 0.79125 0.91593 0.0
C359 C 0.69815 0.8441 0.90906 0.0
O360 O 0.68568 0.80527 0.91157 0.0
O361 O 0.6687 0.81774 0.92422 0.0
O362 O 0.72116 0.82148 0.92988 0.0
O363 O 0.6984 0.82132 0.93672 0.0
Co364 Co 0.93837 0.45578 0.16874 0.0
O365 O 0.9569 0.45995 0.1773 0.0
O366 O 0.95019 0.46652 0.15513 0.0
C367 C 0.92492 0.46248 0.18809 0.0
O368 O 0.92007 0.4542 0.15647 0.0
Co369 Co 0.91748 0.43276 0.18195 0.0
O370 O 0.903 0.44176 0.16868 0.0
C371 C 0.94261 0.42329 0.16426 0.0
C372 C 0.95991 0.46686 0.16537 0.0
C373 C 0.90696 0.44959 0.15797 0.0
O374 O 0.9456 0.43655 0.16088 0.0
O375 O 0.93275 0.41979 0.17343 0.0
O376 O 0.92968 0.47222 0.17907 0.0
O377 O 0.92952 0.44945 0.18588 0.0
Co378 Co 0.29227 0.68369 0.41837 0.0
O379 O 0.28786 0.7022 0.42684 0.0
O380 O 0.28132 0.69536 0.40471 0.0
C381 C 0.28583 0.67018 0.43778 0.0
O382 O 0.29418 0.66527 0.40626 0.0
Co383 Co 0.3158 0.6635 0.43184 0.0
O384 O 0.30688 0.64868 0.41891 0.0
C385 C 0.32469 0.68866 0.41394 0.0
C386 C 0.28095 0.70514 0.41491 0.0
C387 C 0.29898 0.65226 0.4081 0.0
O388 O 0.31136 0.69122 0.41045 0.0
O389 O 0.32842 0.67903 0.42326 0.0
O390 O 0.27599 0.67475 0.42876 0.0
O391 O 0.29875 0.67507 0.43557 0.0
Co392 Co 0.06293 0.95437 0.32941 0.0
O393 O 0.04428 0.95858 0.32115 0.0
O394 O 0.05131 0.96508 0.34324 0.0
C395 C 0.0762 0.96108 0.30995 0.0
O396 O 0.08145 0.95268 0.34136 0.0
Co397 Co 0.08334 0.93116 0.31579 0.0
O398 O 0.09814 0.94013 0.32872 0.0
C399 C 0.05852 0.92188 0.33396 0.0
C400 C 0.04142 0.96541 0.33315 0.0
C401 C 0.09449 0.94799 0.33953 0.0
O402 O 0.05573 0.93518 0.33735 0.0
O403 O 0.06818 0.91826 0.32462 0.0
O404 O 0.07149 0.97081 0.31902 0.0
O405 O 0.07151 0.94807 0.31213 0.0
Co406 Co 0.8 0.81343 0.58251 0.0
O407 O 0.79638 0.79466 0.57417 0.0
O408 O 0.78987 0.80132 0.59636 0.0
C409 C 0.7925 0.8265 0.5632 0.0
O410 O 0.80104 0.83194 0.59458 0.0
Co411 Co 0.8221 0.83497 0.5688 0.0
O412 O 0.8125 0.8493 0.5818 0.0
C413 C 0.83271 0.81051 0.58677 0.0
C414 C 0.7897 0.79151 0.58618 0.0
C415 C 0.805 0.84523 0.59271 0.0
O416 O 0.81958 0.80697 0.59016 0.0
O417 O 0.83578 0.82048 0.57757 0.0
O418 O 0.78309 0.82138 0.57237 0.0
O419 O 0.80574 0.82238 0.56521 0.0
Co420 Co 0.93583 0.546 0.82903 0.0
O421 O 0.95448 0.54205 0.82058 0.0
O422 O 0.94784 0.53568 0.84281 0.0
C423 C 0.9224 0.53882 0.80982 0.0
O424 O 0.91745 0.5474 0.84122 0.0
Co425 Co 0.91466 0.56859 0.81552 0.0
O426 O 0.90024 0.55929 0.82866 0.0
C427 C 0.93943 0.57865 0.83337 0.0
C428 C 0.95762 0.53543 0.83263 0.0
C429 C 0.90425 0.55166 0.8395 0.0
O430 O 0.94271 0.56544 0.83668 0.0
O431 O 0.92947 0.58196 0.82422 0.0
O432 O 0.92743 0.52928 0.81891 0.0
O433 O 0.92685 0.55195 0.8118 0.0
Co434 Co 0.20273 0.68698 0.07878 0.0
O435 O 0.20697 0.70587 0.07101 0.0
O436 O 0.21309 0.69836 0.09305 0.0
C437 C 0.20989 0.67416 0.05916 0.0
O438 O 0.20108 0.66821 0.09034 0.0
Co439 Co 0.1801 0.66641 0.06447 0.0
O440 O 0.18907 0.65148 0.07726 0.0
C441 C 0.17011 0.69079 0.08289 0.0
C442 C 0.21358 0.70847 0.0832 0.0
C443 C 0.1967 0.65511 0.08824 0.0
O444 O 0.18331 0.69381 0.0865 0.0
O445 O 0.16682 0.68116 0.0734 0.0
O446 O 0.21943 0.67877 0.06849 0.0
O447 O 0.19679 0.67866 0.06122 0.0
Co448 Co 0.16861 0.56388 0.0448 0.0
O449 O 0.17708 0.54526 0.04076 0.0
O450 O 0.15481 0.55187 0.03447 0.0
C451 C 0.18783 0.57726 0.0376 0.0
O452 O 0.15639 0.58225 0.04633 0.0
Co453 Co 0.18225 0.58501 0.06736 0.0
O454 O 0.16892 0.59942 0.05833 0.0
C455 C 0.16466 0.56005 0.07742 0.0
C456 C 0.16504 0.54212 0.03414 0.0
C457 C 0.15806 0.59542 0.05072 0.0
O458 O 0.16106 0.55693 0.06424 0.0
O459 O 0.17392 0.56992 0.08067 0.0
O460 O 0.17867 0.57233 0.02806 0.0
O461 O 0.18585 0.57281 0.05072 0.0
Co462 Co 0.18565 0.91772 0.29483 0.0
O463 O 0.20433 0.92607 0.29092 0.0
O464 O 0.19752 0.90391 0.28441 0.0
C465 C 0.17244 0.9371 0.28778 0.0
O466 O 0.16719 0.90566 0.2962 0.0
Co467 Co 0.16464 0.93128 0.31753 0.0
O468 O 0.15011 0.91825 0.30825 0.0
C469 C 0.18938 0.9133 0.32742 0.0
C470 C 0.20735 0.91405 0.28419 0.0
C471 C 0.15402 0.90743 0.30054 0.0
O472 O 0.19251 0.9099 0.31419 0.0
O473 O 0.17957 0.92257 0.33079 0.0
O474 O 0.17735 0.928 0.27818 0.0
O475 O 0.17685 0.93498 0.3009 0.0
Co476 Co 0.83066 0.93688 0.54705 0.0
O477 O 0.82257 0.9555 0.54231 0.0
O478 O 0.84489 0.94841 0.53677 0.0
C479 C 0.81153 0.92347 0.53967 0.0
O480 O 0.84254 0.91835 0.54931 0.0
Co481 Co 0.81619 0.91661 0.56986 0.0
O482 O 0.82948 0.90175 0.56155 0.0
C483 C 0.83396 0.94149 0.57969 0.0
C484 C 0.83481 0.95827 0.53588 0.0
C485 C 0.84054 0.90534 0.55402 0.0
O486 O 0.83783 0.94423 0.5665 0.0
O487 O 0.82452 0.93183 0.583 0.0
O488 O 0.82094 0.92818 0.53028 0.0
O489 O 0.81315 0.92829 0.55273 0.0
Co490 Co 0.81386 0.58248 0.79324 0.0
O491 O 0.79459 0.57563 0.78886 0.0
O492 O 0.8035 0.59711 0.78247 0.0
C493 C 0.82607 0.56232 0.78653 0.0
O494 O 0.83301 0.59329 0.79511 0.0
Co495 Co 0.8335 0.5677 0.81638 0.0
O496 O 0.84899 0.58042 0.8083 0.0
C497 C 0.80938 0.58679 0.82568 0.0
C498 C 0.79282 0.5879 0.78211 0.0
C499 C 0.84583 0.59125 0.80026 0.0
O500 O 0.80704 0.59072 0.81244 0.0
O501 O 0.81844 0.57683 0.82919 0.0
O502 O 0.82187 0.57166 0.77681 0.0
O503 O 0.82139 0.56467 0.79952 0.0
Co504 Co 0.1686 0.43476 0.95634 0.0
O505 O 0.17728 0.45326 0.96048 0.0
O506 O 0.15521 0.44659 0.9674 0.0
C507 C 0.18798 0.42108 0.96255 0.0
O508 O 0.15628 0.41647 0.95481 0.0
Co509 Co 0.18138 0.41421 0.93274 0.0
O510 O 0.1683 0.39963 0.94184 0.0
C511 C 0.16349 0.43943 0.92396 0.0
C512 C 0.16547 0.45631 0.96756 0.0
C513 C 0.15774 0.40343 0.94996 0.0
O514 O 0.16037 0.4422 0.93733 0.0
O515 O 0.17261 0.42963 0.92013 0.0
O516 O 0.17922 0.42591 0.97251 0.0
O517 O 0.18557 0.42588 0.94962 0.0
Co518 Co 0.31437 0.91797 0.20644 0.0
O519 O 0.29567 0.92637 0.21016 0.0
O520 O 0.30264 0.9045 0.21744 0.0
C521 C 0.32746 0.93772 0.21263 0.0
O522 O 0.33285 0.90591 0.20539 0.0
Co523 Co 0.33523 0.93072 0.18315 0.0
O524 O 0.34976 0.91757 0.19222 0.0
C525 C 0.31029 0.91257 0.17408 0.0
C526 C 0.29274 0.91458 0.21732 0.0
C527 C 0.34589 0.90718 0.20054 0.0
O528 O 0.30738 0.90944 0.18742 0.0
O529 O 0.32002 0.9218 0.17036 0.0
O530 O 0.32276 0.92894 0.22262 0.0
O531 O 0.32302 0.93502 0.19963 0.0
Co532 Co 0.83197 0.06201 0.45393 0.0
O533 O 0.82373 0.04335 0.45816 0.0
O534 O 0.84571 0.05047 0.46487 0.0
C535 C 0.81238 0.07522 0.46043 0.0
O536 O 0.84384 0.08059 0.45226 0.0
Co537 Co 0.81836 0.08224 0.43052 0.0
O538 O 0.83128 0.09711 0.4394 0.0
C539 C 0.83635 0.05722 0.42152 0.0
C540 C 0.83563 0.04057 0.46519 0.0
C541 C 0.84201 0.09358 0.44742 0.0
O542 O 0.84008 0.05478 0.4348 0.0
O543 O 0.8268 0.06666 0.41786 0.0
O544 O 0.82141 0.07062 0.47026 0.0
O545 O 0.8147 0.07049 0.44746 0.0
Co546 Co 0.68709 0.58133 0.70475 0.0
O547 O 0.70659 0.57498 0.70893 0.0
O548 O 0.69695 0.59593 0.71598 0.0
C549 C 0.67548 0.56062 0.71078 0.0
O550 O 0.66762 0.59157 0.70321 0.0
Co551 Co 0.66795 0.56678 0.68106 0.0
O552 O 0.65206 0.57879 0.68945 0.0
C553 C 0.6912 0.58723 0.67245 0.0
C554 C 0.70794 0.58709 0.71606 0.0
C555 C 0.65488 0.5894 0.6979 0.0
O556 O 0.69364 0.59045 0.68587 0.0
O557 O 0.68237 0.57723 0.66851 0.0
O558 O 0.67945 0.56974 0.72079 0.0
O559 O 0.68011 0.5635 0.69786 0.0
Co560 Co 0.5448 0.66813 0.56424 0.0
O561 O 0.54066 0.67658 0.54565 0.0
O562 O 0.53361 0.65465 0.55263 0.0
C563 C 0.53871 0.68784 0.5775 0.0
O564 O 0.54634 0.65605 0.58272 0.0
Co565 Co 0.56841 0.68116 0.58463 0.0
O566 O 0.55947 0.66816 0.59937 0.0
C567 C 0.57711 0.6632 0.55943 0.0
C568 C 0.53346 0.6648 0.54279 0.0
C569 C 0.5513 0.65758 0.59571 0.0
O570 O 0.56376 0.65978 0.55688 0.0
O571 O 0.58091 0.67252 0.56904 0.0
O572 O 0.5287 0.67901 0.57294 0.0
O573 O 0.55163 0.68521 0.5728 0.0
Co574 Co 0.04306 0.33204 0.93586 0.0
O575 O 0.03908 0.32332 0.95435 0.0
O576 O 0.03248 0.34557 0.94796 0.0
C577 C 0.03622 0.31285 0.92226 0.0
O578 O 0.04452 0.34444 0.91761 0.0
Co579 Co 0.06599 0.31889 0.91484 0.0
O580 O 0.05683 0.33217 0.90047 0.0
C581 C 0.07558 0.33623 0.94014 0.0
C582 C 0.03231 0.33525 0.95761 0.0
C583 C 0.04902 0.3429 0.90446 0.0
O584 O 0.06234 0.33977 0.94304 0.0
O585 O 0.07903 0.32707 0.93025 0.0
O586 O 0.02652 0.32183 0.92721 0.0
O587 O 0.04928 0.31497 0.92683 0.0
Co588 Co 0.4189 0.79318 0.18607 0.0
O589 O 0.42721 0.78858 0.20461 0.0
O590 O 0.40528 0.78181 0.19734 0.0
C591 C 0.43853 0.78734 0.17264 0.0
O592 O 0.40699 0.79521 0.16753 0.0
Co593 Co 0.43216 0.81742 0.16662 0.0
O594 O 0.41952 0.80866 0.15145 0.0
C595 C 0.41369 0.82542 0.19163 0.0
C596 C 0.41535 0.78143 0.20726 0.0
C597 C 0.40887 0.80041 0.15468 0.0
O598 O 0.41052 0.81196 0.19387 0.0
O599 O 0.42303 0.82958 0.1822 0.0
O600 O 0.42967 0.77726 0.177 0.0
O601 O 0.43607 0.80013 0.17778 0.0
Co602 Co 0.95465 0.16843 0.43546 0.0
O603 O 0.95895 0.17644 0.4542 0.0
O604 O 0.96533 0.15441 0.44688 0.0
C605 C 0.96144 0.18799 0.42237 0.0
O606 O 0.95289 0.15674 0.41678 0.0
Co607 Co 0.93148 0.18242 0.41523 0.0
O608 O 0.94047 0.16972 0.40025 0.0
C609 C 0.92213 0.16387 0.43974 0.0
C610 C 0.96578 0.16439 0.45688 0.0
C611 C 0.94828 0.15882 0.40374 0.0
O612 O 0.93542 0.16046 0.44256 0.0
O613 O 0.91854 0.17333 0.43019 0.0
O614 O 0.97113 0.17883 0.427 0.0
O615 O 0.94842 0.18585 0.42707 0.0
Co616 Co 0.07957 0.20509 0.68562 0.0
O617 O 0.07099 0.20932 0.70414 0.0
O618 O 0.09318 0.21582 0.69745 0.0
C619 C 0.0603 0.21171 0.67202 0.0
O620 O 0.09188 0.20346 0.66734 0.0
Co621 Co 0.06649 0.18191 0.66485 0.0
O622 O 0.07976 0.19085 0.65033 0.0
C623 C 0.08399 0.17263 0.69015 0.0
C624 C 0.08295 0.21613 0.70718 0.0
C625 C 0.09042 0.19877 0.65425 0.0
O626 O 0.0874 0.18591 0.69297 0.0
O627 O 0.07485 0.16903 0.68029 0.0
O628 O 0.06927 0.22149 0.67683 0.0
O629 O 0.06248 0.1987 0.67672 0.0
Co630 Co 0.4498 0.33032 0.56244 0.0
O631 O 0.45342 0.3224 0.5435 0.0
O632 O 0.45992 0.34444 0.55064 0.0
C633 C 0.45727 0.31076 0.57516 0.0
O634 O 0.44872 0.34198 0.58119 0.0
Co635 Co 0.42761 0.31612 0.58359 0.0
O636 O 0.43696 0.32901 0.5982 0.0
C637 C 0.4171 0.33428 0.55927 0.0
C638 C 0.46007 0.33449 0.5406 0.0
C639 C 0.44458 0.33993 0.59439 0.0
O640 O 0.43021 0.33809 0.55613 0.0
O641 O 0.41403 0.32468 0.56887 0.0
O642 O 0.46669 0.32002 0.5702 0.0
O643 O 0.44406 0.31284 0.57102 0.0
Co644 Co 0.41715 0.70401 0.31462 0.0
O645 O 0.42571 0.70793 0.29602 0.0
O646 O 0.40349 0.71446 0.30256 0.0
C647 C 0.43641 0.711 0.32805 0.0
O648 O 0.40488 0.7026 0.33296 0.0
Co649 Co 0.43049 0.68124 0.33571 0.0
O650 O 0.41721 0.69035 0.3501 0.0
C651 C 0.41284 0.67143 0.3107 0.0
C652 C 0.41373 0.71464 0.29283 0.0
C653 C 0.40645 0.69811 0.34611 0.0
O654 O 0.40942 0.68466 0.30762 0.0
O655 O 0.42201 0.66804 0.32061 0.0
O656 O 0.42736 0.72063 0.32308 0.0
O657 O 0.43431 0.6979 0.32359 0.0
Co658 Co 0.58186 0.79233 0.81367 0.0
O659 O 0.57366 0.78752 0.79512 0.0
O660 O 0.59571 0.78123 0.80245 0.0
C661 C 0.56229 0.78612 0.82703 0.0
O662 O 0.59377 0.79452 0.83216 0.0
Co663 Co 0.5683 0.81613 0.83343 0.0
O664 O 0.58123 0.80761 0.8485 0.0
C665 C 0.5863 0.82464 0.80821 0.0
C666 C 0.58567 0.78059 0.79254 0.0
C667 C 0.59198 0.79958 0.84507 0.0
O668 O 0.58986 0.81129 0.80591 0.0
O669 O 0.5769 0.8285 0.81771 0.0
O670 O 0.57136 0.7762 0.82273 0.0
O671 O 0.56458 0.79897 0.82198 0.0
Co672 Co 0.56585 0.5432 0.66772 0.0
O673 O 0.54736 0.53895 0.67632 0.0
O674 O 0.55389 0.5327 0.65401 0.0
C675 C 0.57951 0.53615 0.6868 0.0
O676 O 0.58415 0.54494 0.65545 0.0
Co677 Co 0.58661 0.56615 0.68126 0.0
O678 O 0.60112 0.5572 0.668 0.0
C679 C 0.56151 0.57579 0.66367 0.0
C680 C 0.54422 0.53227 0.6643 0.0
C681 C 0.59726 0.54948 0.65716 0.0
O682 O 0.55859 0.56254 0.66017 0.0
O683 O 0.57136 0.57924 0.67288 0.0
O684 O 0.57457 0.52657 0.6777 0.0
O685 O 0.57483 0.54922 0.68492 0.0
Co686 Co 0.20674 0.31391 0.91763 0.0
O687 O 0.21102 0.2944 0.92383 0.0
O688 O 0.21786 0.30414 0.90285 0.0
C689 C 0.21294 0.32533 0.93841 0.0
O690 O 0.20503 0.33347 0.90753 0.0
Co691 Co 0.18323 0.33292 0.93264 0.0
O692 O 0.1916 0.34893 0.92078 0.0
C693 C 0.17441 0.30951 0.91244 0.0
C694 C 0.218 0.2931 0.91164 0.0
C695 C 0.19986 0.34621 0.90999 0.0
O696 O 0.18774 0.30733 0.90873 0.0
O697 O 0.17067 0.31821 0.92263 0.0
O698 O 0.22289 0.32158 0.92913 0.0
O699 O 0.20003 0.32071 0.93557 0.0
Co700 Co 0.43473 0.95692 0.16722 0.0
O701 O 0.45346 0.96044 0.17561 0.0
O702 O 0.44669 0.96761 0.15364 0.0
C703 C 0.42173 0.96357 0.18688 0.0
O704 O 0.4162 0.95597 0.15518 0.0
Co705 Co 0.41362 0.93408 0.18035 0.0
O706 O 0.39912 0.94365 0.16752 0.0
C707 C 0.43837 0.92444 0.16225 0.0
C708 C 0.45656 0.96742 0.16376 0.0
C709 C 0.40303 0.9516 0.15686 0.0
O710 O 0.44146 0.9377 0.15896 0.0
O711 O 0.42858 0.92096 0.17151 0.0
O712 O 0.42657 0.97338 0.17796 0.0
O713 O 0.426 0.95049 0.18436 0.0
Co714 Co 0.79674 0.18492 0.41812 0.0
O715 O 0.79296 0.2037 0.4263 0.0
O716 O 0.78617 0.1967 0.4043 0.0
C717 C 0.78986 0.1719 0.4377 0.0
O718 O 0.79798 0.1663 0.40626 0.0
Co719 Co 0.81956 0.16406 0.43174 0.0
O720 O 0.81032 0.14941 0.41884 0.0
C721 C 0.82929 0.18857 0.41337 0.0
C722 C 0.78612 0.20665 0.41433 0.0
C723 C 0.80246 0.15317 0.40807 0.0
O724 O 0.81603 0.19167 0.41006 0.0
O725 O 0.83274 0.17886 0.42272 0.0
O726 O 0.78018 0.17672 0.42865 0.0
O727 O 0.80296 0.1763 0.43542 0.0
Co728 Co 0.56391 0.4555 0.3313 0.0
O729 O 0.5453 0.45985 0.32301 0.0
O730 O 0.55249 0.46659 0.34497 0.0
C731 C 0.57719 0.46171 0.31166 0.0
O732 O 0.58242 0.45377 0.34326 0.0
Co733 Co 0.58409 0.43187 0.31806 0.0
O734 O 0.59899 0.44079 0.33091 0.0
C735 C 0.55914 0.42315 0.33635 0.0
C736 C 0.54258 0.46691 0.3349 0.0
C737 C 0.5954 0.44888 0.34157 0.0
O738 O 0.55648 0.43653 0.33955 0.0
O739 O 0.56877 0.4193 0.32708 0.0
O740 O 0.57268 0.47165 0.32061 0.0
O741 O 0.57237 0.44879 0.3141 0.0
Co742 Co 0.29327 0.3153 0.58224 0.0
O743 O 0.28899 0.29686 0.57351 0.0
O744 O 0.2827 0.30326 0.59584 0.0
C745 C 0.28637 0.32909 0.56319 0.0
O746 O 0.29509 0.33352 0.59465 0.0
Co747 Co 0.31637 0.33603 0.56885 0.0
O748 O 0.30752 0.35049 0.58224 0.0
C749 C 0.32582 0.31073 0.58624 0.0
C750 C 0.28231 0.29363 0.5855 0.0
C751 C 0.29976 0.3466 0.59304 0.0
O752 O 0.31256 0.30791 0.58978 0.0
O753 O 0.32933 0.32058 0.57706 0.0
O754 O 0.27672 0.32418 0.57224 0.0
O755 O 0.29939 0.32433 0.56512 0.0
Co756 Co 0.4354 0.04525 0.83113 0.0
O757 O 0.45404 0.04091 0.82291 0.0
O758 O 0.4469 0.03435 0.84494 0.0
C759 C 0.42214 0.03876 0.81158 0.0
O760 O 0.41683 0.04708 0.84302 0.0
Co761 Co 0.41531 0.06876 0.81749 0.0
O762 O 0.40038 0.05997 0.83038 0.0
C763 C 0.44011 0.07768 0.83588 0.0
C764 C 0.45681 0.03398 0.83488 0.0
C765 C 0.40386 0.05199 0.84116 0.0
O766 O 0.44275 0.06433 0.83921 0.0
O767 O 0.43054 0.08145 0.8265 0.0
O768 O 0.42672 0.02894 0.82062 0.0
O769 O 0.42694 0.05172 0.81384 0.0
Co770 Co 0.70295 0.1877 0.08173 0.0
O771 O 0.7063 0.20653 0.07347 0.0
O772 O 0.71323 0.19978 0.09551 0.0
C773 C 0.71009 0.17475 0.0622 0.0
O774 O 0.70211 0.1691 0.09368 0.0
Co775 Co 0.68058 0.1663 0.06819 0.0
O776 O 0.69019 0.1519 0.08111 0.0
C777 C 0.67032 0.19069 0.08642 0.0
C778 C 0.71304 0.2097 0.08544 0.0
C779 C 0.69795 0.15588 0.09188 0.0
O780 O 0.6835 0.19406 0.08976 0.0
O781 O 0.66709 0.18087 0.07711 0.0
O782 O 0.71968 0.17981 0.07123 0.0
O783 O 0.69691 0.17888 0.06447 0.0
Co784 Co 0.67026 0.06427 0.04491 0.0
O785 O 0.67845 0.04568 0.04024 0.0
O786 O 0.65636 0.05293 0.03399 0.0
C787 C 0.68973 0.07768 0.03845 0.0
O788 O 0.65836 0.08279 0.04701 0.0
Co789 Co 0.68396 0.08418 0.06851 0.0
O790 O 0.67104 0.0992 0.05989 0.0
C791 C 0.66579 0.05919 0.07731 0.0
C792 C 0.66641 0.04302 0.03339 0.0
C793 C 0.66023 0.09574 0.05195 0.0
O794 O 0.66234 0.0567 0.06396 0.0
O795 O 0.67517 0.06875 0.0811 0.0
O796 O 0.68064 0.07318 0.02863 0.0
O797 O 0.68758 0.0727 0.05136 0.0
Co798 Co 0.68644 0.41816 0.29519 0.0
O799 O 0.70517 0.4265 0.29159 0.0
O800 O 0.69831 0.40455 0.28447 0.0
C801 C 0.6734 0.43781 0.28856 0.0
O802 O 0.66787 0.40619 0.29621 0.0
Co803 Co 0.66545 0.43136 0.31812 0.0
O804 O 0.65085 0.41877 0.30837 0.0
C805 C 0.69003 0.41296 0.32768 0.0
C806 C 0.70819 0.41465 0.28457 0.0
C807 C 0.65469 0.40805 0.30048 0.0
O808 O 0.69319 0.40985 0.31439 0.0
O809 O 0.68024 0.4222 0.33122 0.0
O810 O 0.67824 0.42889 0.27876 0.0
O811 O 0.67775 0.43533 0.30164 0.0
Co812 Co 0.33019 0.43706 0.54538 0.0
O813 O 0.3244 0.45664 0.54082 0.0
O814 O 0.34524 0.44644 0.53428 0.0
C815 C 0.30935 0.4258 0.53912 0.0
O816 O 0.33985 0.41729 0.5474 0.0
Co817 Co 0.3146 0.41887 0.56917 0.0
O818 O 0.32612 0.40248 0.56108 0.0
C819 C 0.33527 0.44189 0.57771 0.0
C820 C 0.33668 0.45765 0.53394 0.0
C821 C 0.33699 0.40472 0.5528 0.0
O822 O 0.33908 0.44371 0.56435 0.0
O823 O 0.32484 0.43354 0.58157 0.0
O824 O 0.31873 0.42943 0.52922 0.0
O825 O 0.31206 0.43065 0.55199 0.0
Co826 Co 0.31261 0.08089 0.79718 0.0
O827 O 0.29385 0.07252 0.79364 0.0
O828 O 0.30036 0.0948 0.78727 0.0
C829 C 0.32571 0.06169 0.78945 0.0
O830 O 0.3311 0.09299 0.79824 0.0
Co831 Co 0.33423 0.06699 0.81909 0.0
O832 O 0.3485 0.08008 0.8095 0.0
C833 C 0.30968 0.08464 0.82996 0.0
C834 C 0.29057 0.08461 0.78717 0.0
C835 C 0.3444 0.09105 0.8021 0.0
O836 O 0.30622 0.0883 0.81688 0.0
O837 O 0.31964 0.07538 0.83289 0.0
O838 O 0.32052 0.07093 0.78014 0.0
O839 O 0.32162 0.06356 0.80271 0.0
Co840 Co 0.66885 0.93684 0.9543 0.0
O841 O 0.6775 0.95539 0.95825 0.0
O842 O 0.6554 0.9488 0.96514 0.0
C843 C 0.68822 0.92332 0.96081 0.0
O844 O 0.65655 0.91852 0.95294 0.0
Co845 Co 0.68179 0.91598 0.93109 0.0
O846 O 0.66872 0.9015 0.94037 0.0
C847 C 0.66406 0.94113 0.92184 0.0
C848 C 0.66566 0.95851 0.96525 0.0
C849 C 0.6581 0.9054 0.94835 0.0
O850 O 0.66076 0.94403 0.93515 0.0
O851 O 0.67322 0.93131 0.91822 0.0
O852 O 0.67935 0.9282 0.97065 0.0
O853 O 0.68589 0.92793 0.9478 0.0
Co854 Co 0.81489 0.42098 0.20627 0.0
O855 O 0.79637 0.42938 0.21081 0.0
O856 O 0.80338 0.40725 0.2172 0.0
C857 C 0.82839 0.4404 0.21265 0.0
O858 O 0.83326 0.40886 0.2043 0.0
Co859 Co 0.83508 0.43431 0.18272 0.0
O860 O 0.84991 0.42124 0.19145 0.0
C861 C 0.80992 0.41635 0.17389 0.0
C862 C 0.79355 0.41738 0.21767 0.0
C863 C 0.84624 0.4105 0.1994 0.0
O864 O 0.80728 0.41305 0.18724 0.0
O865 O 0.81965 0.42556 0.17009 0.0
O866 O 0.82385 0.43138 0.22251 0.0
O867 O 0.82348 0.43818 0.19973 0.0
Co868 Co 0.333 0.56321 0.45656 0.0
O869 O 0.32667 0.54377 0.46092 0.0
O870 O 0.34767 0.5534 0.46782 0.0
C871 C 0.31225 0.57477 0.4626 0.0
O872 O 0.34318 0.58273 0.45477 0.0
Co873 Co 0.31811 0.58202 0.43279 0.0
O874 O 0.33004 0.59805 0.44106 0.0
C875 C 0.33792 0.55822 0.42434 0.0
C876 C 0.33881 0.54242 0.46798 0.0
C877 C 0.34076 0.59542 0.44942 0.0
O878 O 0.34194 0.55649 0.43764 0.0
O879 O 0.3276 0.56674 0.42052 0.0
O880 O 0.32147 0.57103 0.47261 0.0
O881 O 0.31512 0.57004 0.44973 0.0
Co882 Co 0.18424 0.08178 0.70819 0.0
O883 O 0.20284 0.0736 0.71281 0.0
O884 O 0.19543 0.09551 0.71949 0.0
C885 C 0.17106 0.06198 0.71415 0.0
O886 O 0.16567 0.0936 0.7062 0.0
Co887 Co 0.16449 0.06837 0.68428 0.0
O888 O 0.14938 0.08112 0.69298 0.0
C889 C 0.18947 0.08682 0.67592 0.0
C890 C 0.2054 0.0855 0.71993 0.0
C891 C 0.15277 0.09181 0.70111 0.0
O892 O 0.19188 0.09012 0.68933 0.0
O893 O 0.17999 0.07743 0.67197 0.0
O894 O 0.17527 0.07096 0.72419 0.0
O895 O 0.17604 0.06453 0.70132 0.0
Co896 Co 0.04581 0.16843 0.56206 0.0
O897 O 0.0418 0.17673 0.54337 0.0
O898 O 0.03518 0.15465 0.55031 0.0
C899 C 0.03898 0.18795 0.57523 0.0
O900 O 0.04728 0.15643 0.58056 0.0
Co901 Co 0.06869 0.18202 0.58289 0.0
O902 O 0.05959 0.16896 0.59751 0.0
C903 C 0.07834 0.16384 0.55818 0.0
C904 C 0.03494 0.16476 0.54044 0.0
C905 C 0.05181 0.15816 0.59367 0.0
O906 O 0.06509 0.16047 0.55512 0.0
O907 O 0.08178 0.17317 0.56792 0.0
O908 O 0.02928 0.17886 0.57047 0.0
O909 O 0.05204 0.18571 0.57073 0.0
Co910 Co 0.54458 0.8318 0.93583 0.0
O911 O 0.54039 0.82361 0.95452 0.0
O912 O 0.53357 0.84554 0.9473 0.0
C913 C 0.53825 0.81206 0.92275 0.0
O914 O 0.54618 0.84363 0.91722 0.0
Co915 Co 0.56803 0.81833 0.91558 0.0
O916 O 0.5589 0.831 0.90065 0.0
C917 C 0.57696 0.83666 0.94044 0.0
C918 C 0.53335 0.83551 0.95726 0.0
C919 C 0.5509 0.84174 0.90419 0.0
O920 O 0.56363 0.84006 0.94306 0.0
O921 O 0.58069 0.82725 0.93089 0.0
O922 O 0.52835 0.82106 0.92723 0.0
O923 O 0.5512 0.81454 0.92745 0.0
Co924 Co 0.91664 0.2945 0.18574 0.0
O925 O 0.92517 0.29068 0.20435 0.0
O926 O 0.9031 0.28377 0.1977 0.0
C927 C 0.93616 0.28783 0.17251 0.0
O928 O 0.90441 0.29577 0.16734 0.0
Co929 Co 0.9298 0.31739 0.16464 0.0
O930 O 0.91674 0.30804 0.1502 0.0
C931 C 0.91212 0.32699 0.18974 0.0
C932 C 0.91332 0.2837 0.20745 0.0
C933 C 0.90602 0.30022 0.15417 0.0
O934 O 0.90863 0.31375 0.19273 0.0
O935 O 0.92133 0.33042 0.17989 0.0
O936 O 0.92721 0.27805 0.17733 0.0
O937 O 0.93373 0.30089 0.17691 0.0
Co938 Co 0.45373 0.67 0.43737 0.0
O939 O 0.45788 0.6779 0.45622 0.0
O940 O 0.46419 0.65587 0.44886 0.0
C941 C 0.46078 0.68958 0.42443 0.0
O942 O 0.45216 0.65837 0.41863 0.0
Co943 Co 0.43094 0.68414 0.41685 0.0
O944 O 0.44009 0.67146 0.40194 0.0
C945 C 0.42112 0.66556 0.44117 0.0
C946 C 0.46459 0.66579 0.45891 0.0
C947 C 0.44778 0.66051 0.40553 0.0
O948 O 0.43436 0.66214 0.44422 0.0
O949 O 0.41772 0.67501 0.43153 0.0
O950 O 0.47037 0.68036 0.42914 0.0
O951 O 0.4477 0.68748 0.42897 0.0
Co952 Co 0.58279 0.70384 0.68507 0.0
O953 O 0.57431 0.70689 0.70387 0.0
O954 O 0.59643 0.7139 0.69747 0.0
C955 C 0.56326 0.71121 0.67226 0.0
O956 O 0.59502 0.70338 0.66666 0.0
Co957 Co 0.56963 0.68215 0.66281 0.0
O958 O 0.58279 0.69207 0.64884 0.0
C959 C 0.58698 0.67117 0.68758 0.0
C960 C 0.58624 0.71361 0.70725 0.0
C961 C 0.5935 0.69965 0.65327 0.0
O962 O 0.59059 0.68422 0.6912 0.0
O963 O 0.57782 0.66832 0.67749 0.0
O964 O 0.57234 0.72072 0.67738 0.0
O965 O 0.56565 0.69794 0.676 0.0
Co966 Co 0.95425 0.83146 0.56546 0.0
O967 O 0.9578 0.82271 0.54688 0.0
O968 O 0.96441 0.84502 0.55301 0.0
C969 C 0.96161 0.81241 0.57901 0.0
O970 O 0.95312 0.84391 0.58371 0.0
Co971 Co 0.93193 0.81814 0.58708 0.0
O972 O 0.94138 0.83152 0.60117 0.0
C973 C 0.92156 0.83578 0.5623 0.0
C974 C 0.9644 0.83467 0.54338 0.0
C975 C 0.94895 0.84233 0.59696 0.0
O976 O 0.93472 0.83909 0.55882 0.0
O977 O 0.91838 0.82668 0.57234 0.0
O978 O 0.97109 0.82143 0.57373 0.0
O979 O 0.94843 0.81437 0.57474 0.0
Co980 Co 0.91947 0.20323 0.31223 0.0
O981 O 0.92721 0.20779 0.29343 0.0
O982 O 0.90525 0.21395 0.30112 0.0
C983 C 0.93915 0.20997 0.32517 0.0
O984 O 0.90802 0.20122 0.33103 0.0
Co985 Co 0.93377 0.17989 0.33202 0.0
O986 O 0.9212 0.18863 0.34727 0.0
C987 C 0.91495 0.17074 0.30765 0.0
C988 C 0.91508 0.21455 0.29099 0.0
C989 C 0.91025 0.19645 0.34399 0.0
O990 O 0.9115 0.18406 0.30501 0.0
O991 O 0.92451 0.16706 0.31707 0.0
O992 O 0.9299 0.21967 0.32074 0.0
O993 O 0.93702 0.19699 0.32034 0.0
Co994 Co 0.08143 0.29532 0.81328 0.0
O995 O 0.07298 0.29111 0.79471 0.0
O996 O 0.09495 0.28419 0.80171 0.0
C997 C 0.06182 0.28917 0.82663 0.0
O998 O 0.09353 0.2969 0.83171 0.0
Co999 Co 0.06844 0.31891 0.83368 0.0
O1000 O 0.08131 0.3098 0.84844 0.0
C1001 C 0.08665 0.32765 0.80865 0.0
C1002 C 0.08481 0.28397 0.79188 0.0
C1003 C 0.09193 0.30172 0.84473 0.0
O1004 O 0.08976 0.31427 0.8059 0.0
O1005 O 0.07744 0.3315 0.81835 0.0
O1006 O 0.07068 0.27919 0.82205 0.0
O1007 O 0.06433 0.3021 0.82188 0.0
Co1008 Co 0.56475 0.04357 0.16785 0.0
O1009 O 0.54608 0.0394 0.17606 0.0
O1010 O 0.55306 0.03307 0.15391 0.0
C1011 C 0.57793 0.03662 0.18728 0.0
O1012 O 0.58329 0.04524 0.15592 0.0
Co1013 Co 0.58531 0.06652 0.18167 0.0
O1014 O 0.60005 0.05761 0.16864 0.0
C1015 C 0.56046 0.07612 0.16372 0.0
C1016 C 0.54316 0.03273 0.16398 0.0
C1017 C 0.59636 0.04984 0.15778 0.0
O1018 O 0.55766 0.06287 0.1601 0.0
O1019 O 0.57012 0.07958 0.17311 0.0
O1020 O 0.57323 0.02699 0.17811 0.0
O1021 O 0.57334 0.04968 0.18518 0.0
Co1022 Co 0.2033 0.81234 0.41835 0.0
O1023 O 0.2073 0.79358 0.42652 0.0
O1024 O 0.21374 0.80058 0.40441 0.0
C1025 C 0.21035 0.82542 0.43785 0.0
O1026 O 0.20183 0.83094 0.40648 0.0
Co1027 Co 0.18058 0.83314 0.43224 0.0
O1028 O 0.18966 0.84782 0.41924 0.0
C1029 C 0.17069 0.80849 0.41415 0.0
C1030 C 0.21401 0.79065 0.41447 0.0
C1031 C 0.19739 0.84407 0.40837 0.0
O1032 O 0.1839 0.80548 0.41056 0.0
O1033 O 0.16737 0.81819 0.42355 0.0
O1034 O 0.21995 0.82064 0.42868 0.0
O1035 O 0.19725 0.82095 0.43571 0.0
Co1036 Co 0.43738 0.45445 0.66774 0.0
O1037 O 0.45629 0.45809 0.67573 0.0
O1038 O 0.4491 0.46489 0.65379 0.0
C1039 C 0.42468 0.46148 0.68748 0.0
O1040 O 0.41867 0.4534 0.65604 0.0
Co1041 Co 0.41631 0.43196 0.68157 0.0
O1042 O 0.40167 0.44136 0.66877 0.0
C1043 C 0.44052 0.42186 0.66297 0.0
C1044 C 0.45914 0.46492 0.66373 0.0
C1045 C 0.4055 0.44912 0.65795 0.0
O1046 O 0.44383 0.43506 0.65962 0.0
O1047 O 0.43084 0.41859 0.67241 0.0
O1048 O 0.42947 0.47111 0.67834 0.0
O1049 O 0.42888 0.44834 0.68514 0.0
Co1050 Co 0.7955 0.68521 0.91956 0.0
O1051 O 0.79133 0.70367 0.92835 0.0
O1052 O 0.78494 0.69731 0.90603 0.0
C1053 C 0.78859 0.67143 0.93862 0.0
O1054 O 0.79708 0.66708 0.90704 0.0
Co1055 Co 0.81835 0.66404 0.93263 0.0
O1056 O 0.80932 0.64978 0.91915 0.0
C1057 C 0.82808 0.68931 0.91529 0.0
C1058 C 0.78457 0.7069 0.9164 0.0
C1059 C 0.80158 0.65391 0.90843 0.0
O1060 O 0.81483 0.69247 0.91195 0.0
O1061 O 0.83148 0.67927 0.9243 0.0
O1062 O 0.77894 0.67642 0.92961 0.0
O1063 O 0.80166 0.67605 0.93661 0.0
Co1064 Co 0.56349 0.95559 0.83061 0.0
O1065 O 0.54483 0.95959 0.82224 0.0
O1066 O 0.5518 0.96655 0.8442 0.0
C1067 C 0.57676 0.96192 0.81101 0.0
O1068 O 0.58199 0.9542 0.84265 0.0
Co1069 Co 0.58404 0.93221 0.8175 0.0
O1070 O 0.59876 0.94144 0.83033 0.0
C1071 C 0.55914 0.92319 0.83569 0.0
C1072 C 0.54192 0.96663 0.83411 0.0
C1073 C 0.59505 0.94951 0.84097 0.0
O1074 O 0.55632 0.93653 0.83891 0.0
O1075 O 0.56883 0.91946 0.82643 0.0
O1076 O 0.57206 0.97184 0.81988 0.0
O1077 O 0.57211 0.94895 0.81348 0.0
Co1078 Co 0.29494 0.81286 0.08202 0.0
O1079 O 0.29053 0.79442 0.0734 0.0
O1080 O 0.28384 0.80116 0.09551 0.0
C1081 C 0.28864 0.82654 0.06269 0.0
O1082 O 0.29681 0.83119 0.09424 0.0
Co1083 Co 0.31868 0.83297 0.06879 0.0
O1084 O 0.30976 0.84775 0.0818 0.0
C1085 C 0.32729 0.80761 0.08649 0.0
C1086 C 0.28344 0.79148 0.08522 0.0
C1087 C 0.30172 0.84417 0.0925 0.0
O1088 O 0.31395 0.80525 0.09007 0.0
O1089 O 0.33112 0.81715 0.07712 0.0
O1090 O 0.27874 0.82185 0.07158 0.0
O1091 O 0.30155 0.82159 0.06493 0.0
Co1092 Co 0.43719 0.54657 0.3321 0.0
O1093 O 0.45593 0.54257 0.32394 0.0
O1094 O 0.4489 0.53608 0.34603 0.0
C1095 C 0.42407 0.53955 0.31265 0.0
O1096 O 0.41859 0.54805 0.34396 0.0
Co1097 Co 0.41655 0.56945 0.31823 0.0
O1098 O 0.40183 0.56033 0.33114 0.0
C1099 C 0.44105 0.57916 0.3366 0.0
C1100 C 0.45881 0.5358 0.33597 0.0
C1101 C 0.4055 0.55255 0.34201 0.0
O1102 O 0.44407 0.56591 0.33999 0.0
O1103 O 0.43138 0.58261 0.32721 0.0
O1104 O 0.4289 0.52995 0.32178 0.0
O1105 O 0.42857 0.55265 0.31474 0.0
Co1106 Co 0.70715 0.68796 0.58045 0.0
O1107 O 0.71219 0.70639 0.57206 0.0
O1108 O 0.7186 0.69908 0.59408 0.0
C1109 C 0.71293 0.6743 0.56093 0.0
O1110 O 0.70482 0.66963 0.59253 0.0
Co1111 Co 0.6829 0.66844 0.56732 0.0
O1112 O 0.69084 0.65348 0.58075 0.0
C1113 C 0.67497 0.69391 0.58523 0.0
C1114 C 0.71933 0.70891 0.58397 0.0
C1115 C 0.69922 0.65689 0.59123 0.0
O1116 O 0.68839 0.69604 0.58864 0.0
O1117 O 0.67089 0.68445 0.57588 0.0
O1118 O 0.72301 0.67857 0.56983 0.0
O1119 O 0.70018 0.67958 0.56331 0.0
Co1120 Co 0.66957 0.5639 0.54334 0.0
O1121 O 0.67812 0.54543 0.53886 0.0
O1122 O 0.65587 0.55216 0.53262 0.0
C1123 C 0.68877 0.57759 0.53671 0.0
O1124 O 0.65726 0.58215 0.54526 0.0
Co1125 Co 0.68286 0.58442 0.56664 0.0
O1126 O 0.66951 0.59903 0.55794 0.0
C1127 C 0.6654 0.55905 0.57579 0.0
C1128 C 0.66609 0.54242 0.53214 0.0
C1129 C 0.65878 0.59519 0.55007 0.0
O1130 O 0.66188 0.55636 0.5625 0.0
O1131 O 0.67458 0.56885 0.57942 0.0
O1132 O 0.67973 0.57288 0.52695 0.0
O1133 O 0.6867 0.57273 0.54968 0.0
Co1134 Co 0.68569 0.91697 0.7947 0.0
O1135 O 0.70435 0.92556 0.79117 0.0
O1136 O 0.69786 0.90346 0.78419 0.0
C1137 C 0.67241 0.93639 0.78784 0.0
O1138 O 0.66733 0.90469 0.79565 0.0
Co1139 Co 0.66425 0.92997 0.81733 0.0
O1140 O 0.64999 0.91687 0.80777 0.0
C1141 C 0.6892 0.9123 0.82726 0.0
C1142 C 0.70761 0.91369 0.7843 0.0
C1143 C 0.65411 0.90622 0.79992 0.0
O1144 O 0.69241 0.90894 0.81404 0.0
O1145 O 0.67928 0.92147 0.8306 0.0
O1146 O 0.67745 0.92747 0.77813 0.0
O1147 O 0.67668 0.93404 0.80097 0.0
Co1148 Co 0.32984 0.93744 0.04366 0.0
O1149 O 0.32113 0.95582 0.03916 0.0
O1150 O 0.34333 0.94919 0.03266 0.0
C1151 C 0.31069 0.92354 0.03734 0.0
O1152 O 0.3422 0.91921 0.04561 0.0
Co1153 Co 0.31679 0.91723 0.06739 0.0
O1154 O 0.32993 0.90253 0.05855 0.0
C1155 C 0.33437 0.94267 0.07604 0.0
C1156 C 0.33303 0.95885 0.03223 0.0
C1157 C 0.34061 0.90622 0.05052 0.0
O1158 O 0.33774 0.94518 0.06268 0.0
O1159 O 0.3252 0.93294 0.0799 0.0
O1160 O 0.31956 0.9283 0.02745 0.0
O1161 O 0.31281 0.92857 0.05023 0.0
Co1162 Co 0.31372 0.57942 0.29418 0.0
O1163 O 0.29514 0.57122 0.2895 0.0
O1164 O 0.30237 0.59334 0.2833 0.0
C1165 C 0.32719 0.56004 0.28763 0.0
O1166 O 0.33223 0.5913 0.29632 0.0
Co1167 Co 0.33356 0.56563 0.31778 0.0
O1168 O 0.34861 0.57848 0.30911 0.0
C1169 C 0.30868 0.58393 0.32661 0.0
C1170 C 0.29247 0.58327 0.28267 0.0
C1171 C 0.34518 0.58934 0.30122 0.0
O1172 O 0.30613 0.5873 0.31325 0.0
O1173 O 0.31825 0.57457 0.33041 0.0
O1174 O 0.32262 0.56913 0.27786 0.0
O1175 O 0.32217 0.56208 0.30055 0.0
Co1176 Co 0.66821 0.43441 0.45533 0.0
O1177 O 0.67715 0.45283 0.45921 0.0
O1178 O 0.65497 0.44658 0.46617 0.0
C1179 C 0.68746 0.42072 0.46178 0.0
O1180 O 0.65559 0.4163 0.45406 0.0
Co1181 Co 0.68068 0.41318 0.43221 0.0
O1182 O 0.6673 0.39898 0.44148 0.0
C1183 C 0.66355 0.43874 0.4229 0.0
C1184 C 0.66537 0.45615 0.4662 0.0
C1185 C 0.65679 0.40315 0.44949 0.0
O1186 O 0.66022 0.44169 0.43618 0.0
O1187 O 0.67253 0.42873 0.41933 0.0
O1188 O 0.67866 0.42563 0.47166 0.0
O1189 O 0.68508 0.42526 0.44876 0.0
Co1190 Co 0.8156 0.91732 0.70763 0.0
O1191 O 0.79694 0.92559 0.71182 0.0
O1192 O 0.80395 0.90351 0.71835 0.0
C1193 C 0.82882 0.93685 0.71433 0.0
O1194 O 0.83412 0.90536 0.70599 0.0
Co1195 Co 0.83612 0.93094 0.6845 0.0
O1196 O 0.85088 0.91805 0.69359 0.0
C1197 C 0.81134 0.91272 0.67513 0.0
C1198 C 0.79406 0.9136 0.71865 0.0
C1199 C 0.84719 0.90722 0.7014 0.0
O1200 O 0.80846 0.90934 0.68842 0.0
O1201 O 0.82102 0.92206 0.67156 0.0
O1202 O 0.82417 0.92776 0.72408 0.0
O1203 O 0.82418 0.9346 0.70131 0.0
Co1204 Co 0.32995 0.06593 0.95441 0.0
O1205 O 0.32165 0.04723 0.95839 0.0
O1206 O 0.34375 0.05412 0.96496 0.0
C1207 C 0.31049 0.07911 0.96133 0.0
O1208 O 0.34194 0.08445 0.95298 0.0
Co1209 Co 0.31637 0.08674 0.93154 0.0
O1210 O 0.32932 0.10138 0.94075 0.0
C1211 C 0.33445 0.062 0.92185 0.0
C1212 C 0.33365 0.04425 0.96517 0.0
C1213 C 0.34013 0.09758 0.94853 0.0
O1214 O 0.33784 0.05898 0.93511 0.0
O1215 O 0.32516 0.07177 0.9184 0.0
O1216 O 0.31959 0.0743 0.97099 0.0
O1217 O 0.31267 0.07463 0.94824 0.0
Co1218 Co 0.18722 0.58229 0.20287 0.0
O1219 O 0.20596 0.57397 0.20661 0.0
O1220 O 0.19913 0.59605 0.21336 0.0
C1221 C 0.17419 0.56277 0.20989 0.0
O1222 O 0.16871 0.59433 0.20172 0.0
Co1223 Co 0.16604 0.5688 0.18029 0.0
O1224 O 0.15164 0.58223 0.18916 0.0
C1225 C 0.19069 0.58685 0.17029 0.0
C1226 C 0.20898 0.58592 0.21347 0.0
C1227 C 0.1556 0.59289 0.19708 0.0
O1228 O 0.19391 0.59026 0.1835 0.0
O1229 O 0.1809 0.57753 0.16699 0.0
O1230 O 0.17908 0.57186 0.21951 0.0
O1231 O 0.17845 0.56504 0.19674 0.0
Co1232 Co 0.04252 0.6671 0.06277 0.0
O1233 O 0.03798 0.67361 0.04341 0.0
O1234 O 0.03167 0.65229 0.05271 0.0
C1235 C 0.03589 0.68739 0.07482 0.0
O1236 O 0.04461 0.65669 0.08214 0.0
Co1237 Co 0.06594 0.68235 0.08175 0.0
O1238 O 0.0579 0.67008 0.09762 0.0
C1239 C 0.07498 0.66253 0.05815 0.0
C1240 C 0.03126 0.66131 0.04186 0.0
C1241 C 0.04985 0.65915 0.09486 0.0
O1242 O 0.06168 0.65873 0.05593 0.0
O1243 O 0.07863 0.67266 0.06696 0.0
O1244 O 0.02615 0.678 0.07078 0.0
O1245 O 0.04882 0.68507 0.06995 0.0
Co1246 Co 0.54175 0.33212 0.43659 0.0
O1247 O 0.53692 0.32393 0.45513 0.0
O1248 O 0.53075 0.34603 0.44787 0.0
C1249 C 0.53531 0.31261 0.42323 0.0
O1250 O 0.54404 0.344 0.41808 0.0
Co1251 Co 0.56535 0.31822 0.4168 0.0
O1252 O 0.55677 0.3311 0.40173 0.0
C1253 C 0.57414 0.33629 0.4419 0.0
C1254 C 0.53001 0.33595 0.45774 0.0
C1255 C 0.54895 0.34201 0.40514 0.0
O1256 O 0.56082 0.33995 0.44429 0.0
O1257 O 0.57786 0.32683 0.4324 0.0
O1258 O 0.5255 0.32178 0.42756 0.0
O1259 O 0.54819 0.31476 0.42827 0.0
Co1260 Co 0.92145 0.79361 0.6883 0.0
O1261 O 0.92782 0.78893 0.70769 0.0
O1262 O 0.90675 0.78231 0.698 0.0
C1263 C 0.94202 0.78761 0.6764 0.0
O1264 O 0.91121 0.79573 0.66883 0.0
Co1265 Co 0.93634 0.81761 0.66979 0.0
O1266 O 0.92443 0.80953 0.65366 0.0
C1267 C 0.91615 0.82587 0.69336 0.0
C1268 C 0.91563 0.78193 0.70897 0.0
C1269 C 0.91366 0.80119 0.65621 0.0
O1270 O 0.91258 0.81247 0.69532 0.0
O1271 O 0.92628 0.82986 0.6847 0.0
O1272 O 0.93283 0.77761 0.68022 0.0
O1273 O 0.93935 0.80042 0.68142 0.0
Co1274 Co 0.45526 0.16898 0.93611 0.0
O1275 O 0.45957 0.17725 0.95474 0.0
O1276 O 0.46591 0.15511 0.94776 0.0
C1277 C 0.4621 0.18835 0.92276 0.0
O1278 O 0.45346 0.15702 0.9176 0.0
Co1279 Co 0.43213 0.18279 0.91571 0.0
O1280 O 0.44113 0.16989 0.90091 0.0
C1281 C 0.42273 0.16471 0.94056 0.0
C1282 C 0.46634 0.16523 0.95762 0.0
C1283 C 0.44887 0.15899 0.90453 0.0
O1284 O 0.436 0.1612 0.94335 0.0
O1285 O 0.41919 0.17408 0.9309 0.0
O1286 O 0.47177 0.17922 0.92747 0.0
O1287 O 0.44908 0.18629 0.9275 0.0
Co1288 Co 0.57898 0.20369 0.18673 0.0
O1289 O 0.57102 0.20792 0.20552 0.0
O1290 O 0.59301 0.21434 0.19815 0.0
C1291 C 0.55939 0.21048 0.17368 0.0
O1292 O 0.59063 0.20202 0.16802 0.0
Co1293 Co 0.56503 0.18052 0.16651 0.0
O1294 O 0.57771 0.18951 0.15151 0.0
C1295 C 0.58362 0.17117 0.19098 0.0
C1296 C 0.58309 0.21472 0.20819 0.0
C1297 C 0.58857 0.19738 0.155 0.0
O1298 O 0.58701 0.18448 0.19377 0.0
O1299 O 0.57415 0.16756 0.18144 0.0
O1300 O 0.56852 0.22018 0.17834 0.0
O1301 O 0.56156 0.19745 0.17836 0.0
Co1302 Co 0.95523 0.33098 0.06511 0.0
O1303 O 0.95914 0.32299 0.04627 0.0
O1304 O 0.96599 0.34487 0.05361 0.0
C1305 C 0.9618 0.31108 0.07781 0.0
O1306 O 0.95397 0.3427 0.08382 0.0
Co1307 Co 0.93232 0.31744 0.08587 0.0
O1308 O 0.94166 0.33008 0.10068 0.0
C1309 C 0.92276 0.33582 0.06125 0.0
C1310 C 0.96609 0.33496 0.04355 0.0
C1311 C 0.94955 0.34083 0.09695 0.0
O1312 O 0.93603 0.33921 0.05827 0.0
O1313 O 0.91928 0.32644 0.07093 0.0
O1314 O 0.97163 0.32017 0.07333 0.0
O1315 O 0.94876 0.31366 0.07344 0.0
Co1316 Co 0.9188 0.70514 0.81534 0.0
O1317 O 0.92572 0.70937 0.79605 0.0
O1318 O 0.90423 0.71588 0.80482 0.0
C1319 C 0.93897 0.71191 0.82751 0.0
O1320 O 0.90795 0.70343 0.83452 0.0
Co1321 Co 0.93355 0.68216 0.8352 0.0
O1322 O 0.92102 0.69061 0.85064 0.0
C1323 C 0.91447 0.67263 0.81114 0.0
C1324 C 0.91349 0.71614 0.79417 0.0
C1325 C 0.91013 0.69854 0.84743 0.0
O1326 O 0.9106 0.68587 0.80863 0.0
O1327 O 0.92436 0.66921 0.82031 0.0
O1328 O 0.92962 0.72161 0.82329 0.0
O1329 O 0.93659 0.69889 0.82293 0.0
Co1330 Co 0.08105 0.79288 0.31277 0.0
O1331 O 0.07412 0.78857 0.29349 0.0
O1332 O 0.09535 0.78156 0.30253 0.0
C1333 C 0.06062 0.78697 0.32496 0.0
O1334 O 0.09186 0.79455 0.33196 0.0
Co1335 Co 0.06696 0.81664 0.3322 0.0
O1336 O 0.0793 0.80819 0.34781 0.0
C1337 C 0.08639 0.82514 0.30804 0.0
C1338 C 0.08619 0.78144 0.2918 0.0
C1339 C 0.0899 0.79981 0.34475 0.0
O1340 O 0.08992 0.81176 0.30581 0.0
O1341 O 0.07652 0.82901 0.31705 0.0
O1342 O 0.06965 0.7769 0.32093 0.0
O1343 O 0.06344 0.79983 0.32017 0.0
H1344 H 0.09214 0.54075 0.13244 0.0
H1345 H 0.17259 0.55894 0.106 0.0
H1346 H 0.12607 0.55755 0.16015 0.0
H1347 H 0.138 0.54658 0.07685 0.0
H1348 H 0.15692 0.55343 0.12658 0.0
H1349 H 0.10983 0.53823 0.1128 0.0
C1350 C 0.10333 0.54376 0.13447 0.0
C1351 C 0.10755 0.54961 0.14793 0.0
C1352 C 0.1528 0.55171 0.1157 0.0
C1353 C 0.12786 0.54671 0.12545 0.0
C1354 C 0.16177 0.55481 0.10391 0.0
C1355 C 0.15652 0.55347 0.08965 0.0
C1356 C 0.1384 0.54734 0.11326 0.0
C1357 C 0.14247 0.54787 0.08765 0.0
C1358 C 0.11343 0.54231 0.12323 0.0
C1359 C 0.12224 0.55321 0.14991 0.0
N1360 N 0.1338 0.54525 0.09934 0.0
N1361 N 0.13181 0.55182 0.13877 0.0
H1362 H 0.7045 0.38685 0.326 0.0
H1363 H 0.69464 0.37296 0.41086 0.0
H1364 H 0.69019 0.41931 0.35668 0.0
H1365 H 0.71005 0.34021 0.38103 0.0
H1366 H 0.69649 0.39101 0.3916 0.0
H1367 H 0.71041 0.37074 0.34633 0.0
C1368 C 0.7029 0.39073 0.33699 0.0
C1369 C 0.6966 0.40437 0.33961 0.0
C1370 C 0.69962 0.37991 0.38927 0.0
C1371 C 0.70315 0.38593 0.3629 0.0
C1372 C 0.69852 0.36957 0.40029 0.0
C1373 C 0.70196 0.35498 0.39752 0.0
C1374 C 0.70405 0.37565 0.3753 0.0
C1375 C 0.70715 0.3513 0.38364 0.0
C1376 C 0.7062 0.38148 0.3486 0.0
C1377 C 0.69478 0.4088 0.3541 0.0
N1378 N 0.70785 0.36153 0.37299 0.0
N1379 N 0.69785 0.39954 0.36516 0.0
H1380 H 0.8264 0.94203 0.60842 0.0
H1381 H 0.90605 0.96468 0.63384 0.0
H1382 H 0.86001 0.95614 0.57891 0.0
H1383 H 0.87415 0.94432 0.66157 0.0
H1384 H 0.88778 0.96658 0.61469 0.0
H1385 H 0.84206 0.94816 0.62883 0.0
C1386 C 0.83699 0.94666 0.60621 0.0
C1387 C 0.84199 0.9483 0.59188 0.0
C1388 C 0.88474 0.96185 0.62503 0.0
C1389 C 0.86008 0.9552 0.61532 0.0
C1390 C 0.89517 0.96077 0.636 0.0
C1391 C 0.89172 0.9541 0.64929 0.0
C1392 C 0.87075 0.95627 0.62736 0.0
C1393 C 0.87739 0.94934 0.65145 0.0
C1394 C 0.84595 0.95011 0.61791 0.0
C1395 C 0.85574 0.95456 0.58975 0.0
N1396 N 0.86749 0.9504 0.64055 0.0
N1397 N 0.8644 0.95756 0.60135 0.0
H1398 H 0.28613 0.15645 0.88436 0.0
H1399 H 0.31091 0.07751 0.85878 0.0
H1400 H 0.30745 0.12515 0.91207 0.0
H1401 H 0.29414 0.11019 0.8296 0.0
H1402 H 0.30495 0.09309 0.8793 0.0
H1403 H 0.28451 0.13807 0.86532 0.0
C1404 C 0.29032 0.14567 0.88654 0.0
C1405 C 0.29717 0.14245 0.8998 0.0
C1406 C 0.30238 0.09679 0.86843 0.0
C1407 C 0.29534 0.12134 0.87796 0.0
C1408 C 0.30575 0.08787 0.85667 0.0
C1409 C 0.30327 0.09264 0.84238 0.0
C1410 C 0.29655 0.11065 0.86594 0.0
C1411 C 0.29637 0.1061 0.8404 0.0
C1412 C 0.2894 0.13518 0.87562 0.0
C1413 C 0.30227 0.12823 0.90198 0.0
N1414 N 0.29346 0.11473 0.85204 0.0
N1415 N 0.30138 0.11827 0.89112 0.0
H1416 H 0.12481 0.44566 0.84047 0.0
H1417 H 0.13697 0.45312 0.92579 0.0
H1418 H 0.09116 0.45952 0.87005 0.0
H1419 H 0.17043 0.44122 0.89518 0.0
H1420 H 0.12102 0.45934 0.90541 0.0
H1421 H 0.14246 0.4475 0.86009 0.0
C1422 C 0.12114 0.4492 0.85108 0.0
C1423 C 0.10642 0.45222 0.85365 0.0
C1424 C 0.13195 0.45561 0.90317 0.0
C1425 C 0.12664 0.45427 0.87629 0.0
C1426 C 0.1411 0.45215 0.91481 0.0
C1427 C 0.15498 0.4464 0.9122 0.0
C1428 C 0.13674 0.45329 0.88885 0.0
C1429 C 0.15973 0.44536 0.89773 0.0
C1430 C 0.13125 0.45029 0.8623 0.0
C1431 C 0.10237 0.45697 0.86758 0.0
N1432 N 0.15057 0.44857 0.88664 0.0
N1433 N 0.11239 0.45765 0.87844 0.0
H1434 H 0.80351 0.37723 0.09064 0.0
H1435 H 0.79556 0.39019 0.17574 0.0
H1436 H 0.78842 0.34423 0.12036 0.0
H1437 H 0.80855 0.42318 0.14503 0.0
H1438 H 0.78907 0.37432 0.15541 0.0
H1439 H 0.8019 0.39511 0.11007 0.0
C1440 C 0.79975 0.37375 0.10123 0.0
C1441 C 0.79633 0.35914 0.10391 0.0
C1442 C 0.79311 0.38513 0.15314 0.0
C1443 C 0.79453 0.37961 0.12633 0.0
C1444 C 0.79673 0.39424 0.16475 0.0
C1445 C 0.80286 0.40796 0.1621 0.0
C1446 C 0.79565 0.38977 0.13882 0.0
C1447 C 0.80411 0.4126 0.14762 0.0
C1448 C 0.79879 0.38399 0.11234 0.0
C1449 C 0.79129 0.35535 0.11782 0.0
N1450 N 0.80075 0.40347 0.13656 0.0
N1451 N 0.79074 0.36548 0.12857 0.0
H1452 H 0.87506 0.05671 0.33781 0.0
H1453 H 0.82685 0.05088 0.3942 0.0
H1454 H 0.90761 0.0391 0.36662 0.0
H1455 H 0.86487 0.04863 0.42146 0.0
H1456 H 0.84185 0.04541 0.37314 0.0
H1457 H 0.85715 0.05426 0.35689 0.0
C1458 C 0.8784 0.05208 0.3481 0.0
C1459 C 0.89294 0.04824 0.35061 0.0
C1460 C 0.84702 0.04619 0.38366 0.0
C1461 C 0.8722 0.04498 0.37268 0.0
C1462 C 0.83838 0.04908 0.39575 0.0
C1463 C 0.84467 0.05047 0.40956 0.0
C1464 C 0.86216 0.04507 0.38531 0.0
C1465 C 0.85959 0.04775 0.41099 0.0
C1466 C 0.86805 0.05049 0.35904 0.0
C1467 C 0.89655 0.04226 0.36419 0.0
N1468 N 0.86788 0.04545 0.39897 0.0
N1469 N 0.8863 0.041 0.37476 0.0
H1470 H 0.19568 0.12475 0.59218 0.0
H1471 H 0.20223 0.11381 0.6777 0.0
H1472 H 0.20852 0.15905 0.62148 0.0
H1473 H 0.19219 0.07954 0.64731 0.0
H1474 H 0.20831 0.1297 0.65723 0.0
H1475 H 0.19773 0.10738 0.61203 0.0
C1476 C 0.19904 0.12863 0.60277 0.0
C1477 C 0.20171 0.14344 0.6052 0.0
C1478 C 0.20502 0.11862 0.65507 0.0
C1479 C 0.20401 0.12354 0.6281 0.0
C1480 C 0.20165 0.1095 0.66676 0.0
C1481 C 0.19645 0.09539 0.66422 0.0
C1482 C 0.20317 0.11357 0.64077 0.0
C1483 C 0.1959 0.09042 0.6498 0.0
C1484 C 0.20025 0.11867 0.61413 0.0
C1485 C 0.20625 0.14776 0.61913 0.0
N1486 N 0.19899 0.09954 0.63865 0.0
N1487 N 0.20705 0.13789 0.6301 0.0
H1488 H 0.10706 0.17116 0.55693 0.0
H1489 H 0.13206 0.09003 0.53943 0.0
H1490 H 0.07721 0.13695 0.54519 0.0
H1491 H 0.16025 0.12353 0.55629 0.0
H1492 H 0.11267 0.10802 0.53695 0.0
H1493 H 0.12731 0.15498 0.5517 0.0
C1494 C 0.10475 0.16031 0.55299 0.0
C1495 C 0.09038 0.15534 0.55173 0.0
C1496 C 0.12315 0.11145 0.54105 0.0
C1497 C 0.11362 0.13663 0.54593 0.0
C1498 C 0.13425 0.10119 0.54248 0.0
C1499 C 0.14778 0.10521 0.5483 0.0
C1500 C 0.1256 0.12585 0.54543 0.0
C1501 C 0.14996 0.11985 0.55196 0.0
C1502 C 0.11635 0.15105 0.55006 0.0
C1503 C 0.0881 0.14123 0.54639 0.0
N1504 N 0.13897 0.12959 0.55057 0.0
N1505 N 0.0996 0.13228 0.54392 0.0
H1506 H 0.11344 0.32574 0.79555 0.0
H1507 H 0.12567 0.41098 0.8036 0.0
H1508 H 0.07978 0.35643 0.80664 0.0
H1509 H 0.15976 0.3811 0.79161 0.0
H1510 H 0.10798 0.39149 0.80087 0.0
H1511 H 0.12962 0.34607 0.78983 0.0
C1512 C 0.10932 0.33672 0.79644 0.0
C1513 C 0.0953 0.33938 0.80183 0.0
C1514 C 0.11931 0.3892 0.79869 0.0
C1515 C 0.11381 0.36266 0.79552 0.0
C1516 C 0.12944 0.40034 0.80029 0.0
C1517 C 0.14428 0.39763 0.79808 0.0
C1518 C 0.12402 0.37516 0.79499 0.0
C1519 C 0.14846 0.38366 0.79356 0.0
C1520 C 0.1186 0.34833 0.79327 0.0
C1521 C 0.09058 0.35385 0.80277 0.0
N1522 N 0.13841 0.37289 0.79236 0.0
N1523 N 0.09986 0.36492 0.79986 0.0
H1524 H 0.83946 0.37541 0.05722 0.0
H1525 H 0.92409 0.36172 0.04632 0.0
H1526 H 0.86856 0.4073 0.03886 0.0
H1527 H 0.89384 0.32912 0.06124 0.0
H1528 H 0.90356 0.37744 0.04013 0.0
H1529 H 0.85875 0.35733 0.05565 0.0
C1530 C 0.84986 0.3786 0.05273 0.0
C1531 C 0.85243 0.39298 0.04838 0.0
C1532 C 0.90142 0.36675 0.04454 0.0
C1533 C 0.87467 0.3723 0.04664 0.0
C1534 C 0.91316 0.35773 0.04801 0.0
C1535 C 0.91072 0.34417 0.05456 0.0
C1536 C 0.88719 0.36217 0.04769 0.0
C1537 C 0.89629 0.33959 0.05646 0.0
C1538 C 0.86089 0.36824 0.0518 0.0
C1539 C 0.86609 0.39638 0.04247 0.0
N1540 N 0.88511 0.34864 0.05325 0.0
N1541 N 0.87676 0.38618 0.04196 0.0
H1542 H 0.87542 0.08742 0.30325 0.0
H1543 H 0.88839 0.17246 0.29402 0.0
H1544 H 0.84193 0.11728 0.28957 0.0
H1545 H 0.92162 0.14182 0.30654 0.0
H1546 H 0.87225 0.15211 0.28833 0.0
H1547 H 0.8933 0.10678 0.30081 0.0
C1548 C 0.87183 0.09803 0.29962 0.0
C1549 C 0.85709 0.10077 0.29685 0.0
C1550 C 0.88316 0.14985 0.29209 0.0
C1551 C 0.87757 0.12309 0.29409 0.0
C1552 C 0.89243 0.16148 0.29526 0.0
C1553 C 0.90631 0.15887 0.30102 0.0
C1554 C 0.88782 0.13555 0.29473 0.0
C1555 C 0.91092 0.14438 0.30238 0.0
C1556 C 0.88207 0.10909 0.29819 0.0
C1557 C 0.85315 0.11469 0.29196 0.0
N1558 N 0.90165 0.1333 0.29946 0.0
N1559 N 0.8633 0.12538 0.29093 0.0
H1560 H 0.07149 0.86299 0.45325 0.0
H1561 H 0.15702 0.87357 0.44693 0.0
H1562 H 0.10182 0.82854 0.44371 0.0
H1563 H 0.1277 0.90824 0.45865 0.0
H1564 H 0.13717 0.85627 0.44946 0.0
H1565 H 0.09196 0.87887 0.45935 0.0
C1566 C 0.08241 0.85864 0.4528 0.0
C1567 C 0.08495 0.84448 0.44771 0.0
C1568 C 0.13507 0.86763 0.45164 0.0
C1569 C 0.1084 0.86264 0.45445 0.0
C1570 C 0.14643 0.87754 0.45015 0.0
C1571 C 0.14399 0.89243 0.45234 0.0
C1572 C 0.12108 0.87261 0.45517 0.0
C1573 C 0.13006 0.89688 0.45673 0.0
C1574 C 0.09411 0.86775 0.45618 0.0
C1575 C 0.09934 0.83946 0.44733 0.0
N1576 N 0.11908 0.88704 0.45779 0.0
N1577 N 0.1105 0.84857 0.45042 0.0
H1578 H 0.34231 0.38259 0.71125 0.0
H1579 H 0.42213 0.35647 0.68994 0.0
H1580 H 0.37554 0.41045 0.69336 0.0
H1581 H 0.38812 0.32712 0.7034 0.0
H1582 H 0.40656 0.37695 0.69603 0.0
H1583 H 0.36012 0.36294 0.71294 0.0
C1584 C 0.35337 0.38465 0.70784 0.0
C1585 C 0.35735 0.39815 0.70193 0.0
C1586 C 0.40254 0.36604 0.69785 0.0
C1587 C 0.37778 0.37568 0.70386 0.0
C1588 C 0.41146 0.35431 0.69442 0.0
C1589 C 0.40634 0.34001 0.69593 0.0
C1590 C 0.38833 0.36353 0.70274 0.0
C1591 C 0.39249 0.33794 0.70197 0.0
C1592 C 0.36353 0.37341 0.7088 0.0
C1593 C 0.37188 0.40018 0.69778 0.0
N1594 N 0.38386 0.34957 0.70493 0.0
N1595 N 0.38151 0.38904 0.69871 0.0
H1596 H 0.83911 0.62407 0.94129 0.0
H1597 H 0.92384 0.63675 0.95292 0.0
H1598 H 0.86767 0.59185 0.95992 0.0
H1599 H 0.89405 0.66998 0.93846 0.0
H1600 H 0.9031 0.62112 0.95857 0.0
H1601 H 0.85865 0.64189 0.94291 0.0
C1602 C 0.84944 0.62076 0.94585 0.0
C1603 C 0.85178 0.60636 0.95028 0.0
C1604 C 0.90111 0.63192 0.95436 0.0
C1605 C 0.87431 0.62673 0.95208 0.0
C1606 C 0.91297 0.64089 0.9512 0.0
C1607 C 0.91074 0.65463 0.94496 0.0
C1608 C 0.88695 0.63671 0.95121 0.0
C1609 C 0.89635 0.65939 0.94301 0.0
C1610 C 0.86061 0.63096 0.9468 0.0
C1611 C 0.86538 0.60278 0.95626 0.0
N1612 N 0.88505 0.65038 0.94593 0.0
N1613 N 0.87617 0.61284 0.9568 0.0
H1614 H 0.57672 0.14233 0.19233 0.0
H1615 H 0.65807 0.1187 0.21057 0.0
H1616 H 0.61038 0.17275 0.2042 0.0
H1617 H 0.62501 0.0898 0.19408 0.0
H1618 H 0.63976 0.13782 0.21293 0.0
H1619 H 0.5931 0.12235 0.19798 0.0
C1620 C 0.58749 0.14483 0.19637 0.0
C1621 C 0.59225 0.15927 0.19754 0.0
C1622 C 0.6365 0.12724 0.20895 0.0
C1623 C 0.61119 0.13635 0.20384 0.0
C1624 C 0.64694 0.1163 0.20761 0.0
C1625 C 0.64314 0.10267 0.20189 0.0
C1626 C 0.62213 0.12452 0.20459 0.0
C1627 C 0.62852 0.10019 0.19832 0.0
C1628 C 0.59687 0.13338 0.19956 0.0
C1629 C 0.60626 0.1618 0.20303 0.0
N1630 N 0.6186 0.11104 0.19962 0.0
N1631 N 0.61534 0.15044 0.20575 0.0
H1632 H 0.55881 0.10472 0.17145 0.0
H1633 H 0.53977 0.13029 0.09093 0.0
H1634 H 0.54698 0.07511 0.13707 0.0
H1635 H 0.55562 0.15861 0.12481 0.0
H1636 H 0.53773 0.11067 0.10872 0.0
H1637 H 0.55267 0.12508 0.15573 0.0
C1638 C 0.55468 0.10248 0.16066 0.0
C1639 C 0.55366 0.08816 0.15549 0.0
C1640 C 0.54149 0.12123 0.11228 0.0
C1641 C 0.5468 0.11152 0.1373 0.0
C1642 C 0.54265 0.13246 0.10213 0.0
C1643 C 0.54812 0.14608 0.10631 0.0
C1644 C 0.54578 0.12364 0.12671 0.0
C1645 C 0.55159 0.14824 0.121 0.0
C1646 C 0.55121 0.11414 0.15166 0.0
C1647 C 0.54804 0.08595 0.14148 0.0
N1648 N 0.55049 0.13711 0.13062 0.0
N1649 N 0.54505 0.09752 0.13278 0.0
H1650 H 0.03695 0.86889 0.40755 0.0
H1651 H 0.05698 0.89312 0.32679 0.0
H1652 H 0.05372 0.84015 0.37448 0.0
H1653 H 0.04494 0.92337 0.36054 0.0
H1654 H 0.05082 0.87306 0.34287 0.0
H1655 H 0.03522 0.88824 0.38941 0.0
C1656 C 0.0401 0.86657 0.39645 0.0
C1657 C 0.04572 0.85291 0.3926 0.0
C1658 C 0.04932 0.88408 0.34672 0.0
C1659 C 0.04373 0.87503 0.3718 0.0
C1660 C 0.0528 0.89557 0.33751 0.0
C1661 C 0.05172 0.90998 0.34239 0.0
C1662 C 0.04483 0.88696 0.361 0.0
C1663 C 0.04604 0.91244 0.35634 0.0
C1664 C 0.03912 0.87765 0.38611 0.0
C1665 C 0.04955 0.85056 0.37803 0.0
N1666 N 0.04303 0.90104 0.36525 0.0
N1667 N 0.0486 0.86153 0.36822 0.0
H1668 H 0.35432 0.30874 0.57824 0.0
H1669 H 0.38043 0.29003 0.65868 0.0
H1670 H 0.32489 0.29726 0.61289 0.0
H1671 H 0.40858 0.30533 0.62442 0.0
H1672 H 0.36062 0.28801 0.64108 0.0
H1673 H 0.37475 0.30251 0.59383 0.0
C1674 C 0.35213 0.30465 0.58906 0.0
C1675 C 0.33785 0.30376 0.59434 0.0
C1676 C 0.37118 0.29165 0.6374 0.0
C1677 C 0.3613 0.29682 0.61239 0.0
C1678 C 0.38252 0.2928 0.64744 0.0
C1679 C 0.39615 0.2981 0.6431 0.0
C1680 C 0.3735 0.29579 0.6229 0.0
C1681 C 0.39821 0.30142 0.62835 0.0
C1682 C 0.36384 0.30114 0.59799 0.0
C1683 C 0.33571 0.29821 0.60839 0.0
N1684 N 0.38699 0.30034 0.61884 0.0
N1685 N 0.34733 0.29519 0.61703 0.0
H1686 H 0.94313 0.66192 0.8735 0.0
H1687 H 0.95498 0.57743 0.85889 0.0
H1688 H 0.96091 0.63238 0.90533 0.0
H1689 H 0.93854 0.60767 0.82702 0.0
H1690 H 0.96094 0.59791 0.87475 0.0
H1691 H 0.94481 0.6428 0.85525 0.0
C1692 C 0.94751 0.65146 0.87665 0.0
C1693 C 0.95167 0.64872 0.89106 0.0
C1694 C 0.95624 0.60006 0.86418 0.0
C1695 C 0.95355 0.62668 0.87016 0.0
C1696 C 0.95291 0.58836 0.85508 0.0
C1697 C 0.94601 0.59078 0.84169 0.0
C1698 C 0.95261 0.61427 0.85988 0.0
C1699 C 0.94362 0.60522 0.83735 0.0
C1700 C 0.94849 0.64053 0.86619 0.0
C1701 C 0.95744 0.63498 0.89439 0.0
N1702 N 0.94672 0.61637 0.84648 0.0
N1703 N 0.95803 0.62442 0.88408 0.0
H1704 H 0.17114 0.70583 0.10873 0.0
H1705 H 0.0869 0.69275 0.12277 0.0
H1706 H 0.14117 0.69019 0.07621 0.0
H1707 H 0.11565 0.71194 0.15449 0.0
H1708 H 0.10606 0.69479 0.1046 0.0
H1709 H 0.15052 0.71152 0.1245 0.0
C1710 C 0.16024 0.70388 0.10476 0.0
C1711 C 0.15793 0.69727 0.09122 0.0
C1712 C 0.10814 0.69871 0.11549 0.0
C1713 C 0.13429 0.70355 0.10929 0.0
C1714 C 0.09719 0.69752 0.1259 0.0
C1715 C 0.09972 0.70197 0.14026 0.0
C1716 C 0.1218 0.70426 0.11948 0.0
C1717 C 0.11323 0.70824 0.1436 0.0
C1718 C 0.14846 0.70706 0.11381 0.0
C1719 C 0.14353 0.69503 0.08667 0.0
N1720 N 0.12383 0.70901 0.13334 0.0
N1721 N 0.1323 0.69796 0.09576 0.0
H1722 H 0.45255 0.92575 0.13596 0.0
H1723 H 0.44341 0.84055 0.12401 0.0
H1724 H 0.43906 0.89562 0.16926 0.0
H1725 H 0.45808 0.86985 0.09044 0.0
H1726 H 0.44541 0.86017 0.14164 0.0
H1727 H 0.45856 0.90515 0.12023 0.0
C1728 C 0.45115 0.91483 0.1401 0.0
C1729 C 0.44504 0.91243 0.15386 0.0
C1730 C 0.44834 0.8623 0.13045 0.0
C1731 C 0.45171 0.88883 0.13588 0.0
C1732 C 0.44716 0.85108 0.12035 0.0
C1733 C 0.45035 0.85359 0.10565 0.0
C1734 C 0.4526 0.87622 0.12585 0.0
C1735 C 0.45538 0.86743 0.10163 0.0
C1736 C 0.45451 0.90306 0.13108 0.0
C1737 C 0.44349 0.89802 0.15864 0.0
N1738 N 0.45616 0.87828 0.11163 0.0
N1739 N 0.44661 0.8868 0.1496 0.0
H1740 H 0.35472 0.19149 0.92098 0.0
H1741 H 0.38024 0.20996 0.84021 0.0
H1742 H 0.32498 0.20254 0.88644 0.0
H1743 H 0.40831 0.19303 0.87377 0.0
H1744 H 0.36063 0.21191 0.85802 0.0
H1745 H 0.37502 0.19699 0.90497 0.0
C1746 C 0.35243 0.19528 0.91008 0.0
C1747 C 0.33809 0.1963 0.90498 0.0
C1748 C 0.37113 0.20792 0.8615 0.0
C1749 C 0.36139 0.20248 0.88648 0.0
C1750 C 0.38235 0.20681 0.85135 0.0
C1751 C 0.39591 0.2011 0.85543 0.0
C1752 C 0.37349 0.20335 0.87586 0.0
C1753 C 0.398 0.19728 0.87005 0.0
C1754 C 0.36406 0.19839 0.90092 0.0
C1755 C 0.33585 0.20149 0.89081 0.0
N1756 N 0.38689 0.19837 0.87968 0.0
N1757 N 0.34739 0.20418 0.88197 0.0
H1758 H 0.67536 0.29455 0.38618 0.0
H1759 H 0.59026 0.3039 0.37482 0.0
H1760 H 0.6451 0.30481 0.4205 0.0
H1761 H 0.61925 0.28999 0.34069 0.0
H1762 H 0.60989 0.30101 0.39233 0.0
H1763 H 0.65482 0.28915 0.37015 0.0
C1764 C 0.66443 0.29532 0.39047 0.0
C1765 C 0.66196 0.3004 0.40463 0.0
C1766 C 0.61196 0.29843 0.38104 0.0
C1767 C 0.63843 0.29447 0.3863 0.0
C1768 C 0.60073 0.30013 0.37101 0.0
C1769 C 0.60315 0.2974 0.35621 0.0
C1770 C 0.6258 0.29413 0.37625 0.0
C1771 C 0.61691 0.29233 0.35197 0.0
C1772 C 0.6527 0.29233 0.38127 0.0
C1773 C 0.64755 0.30119 0.40958 0.0
N1774 N 0.62778 0.29106 0.36191 0.0
N1775 N 0.63636 0.29848 0.40038 0.0
H1776 H 0.09318 0.03579 0.63107 0.0
H1777 H 0.17339 0.05581 0.60528 0.0
H1778 H 0.12613 0.05445 0.65876 0.0
H1779 H 0.13888 0.04408 0.57577 0.0
H1780 H 0.15774 0.04964 0.62569 0.0
H1781 H 0.11116 0.03347 0.61169 0.0
C1782 C 0.10423 0.03922 0.63317 0.0
C1783 C 0.10807 0.04556 0.64653 0.0
C1784 C 0.15365 0.04821 0.61476 0.0
C1785 C 0.12871 0.0429 0.62433 0.0
C1786 C 0.1626 0.05168 0.60306 0.0
C1787 C 0.15736 0.05073 0.58876 0.0
C1788 C 0.13928 0.04382 0.61219 0.0
C1789 C 0.14335 0.0451 0.5866 0.0
C1790 C 0.11449 0.03791 0.62207 0.0
C1791 C 0.1226 0.04971 0.64859 0.0
N1792 N 0.1347 0.04208 0.59821 0.0
N1793 N 0.13233 0.04843 0.63758 0.0
H1794 H 0.6904 0.92001 0.85587 0.0
H1795 H 0.70978 0.83968 0.88192 0.0
H1796 H 0.70271 0.88565 0.82644 0.0
H1797 H 0.69303 0.87342 0.90988 0.0
H1798 H 0.71177 0.8574 0.86223 0.0
H1799 H 0.69625 0.9043 0.87632 0.0
C1800 C 0.69457 0.90923 0.85369 0.0
C1801 C 0.69583 0.90407 0.83939 0.0
C1802 C 0.70781 0.86094 0.87272 0.0
C1803 C 0.70236 0.88589 0.86286 0.0
C1804 C 0.70668 0.85083 0.884 0.0
C1805 C 0.701 0.85499 0.89754 0.0
C1806 C 0.70329 0.87533 0.87502 0.0
C1807 C 0.69725 0.86963 0.89957 0.0
C1808 C 0.69787 0.90023 0.8654 0.0
C1809 C 0.70149 0.89006 0.83727 0.0
N1810 N 0.69834 0.87922 0.88841 0.0
N1811 N 0.70432 0.88136 0.84889 0.0
H1812 H 0.83085 0.44481 0.10465 0.0
H1813 H 0.91211 0.46028 0.13058 0.0
H1814 H 0.8663 0.45253 0.07494 0.0
H1815 H 0.87747 0.44572 0.15866 0.0
H1816 H 0.89464 0.46248 0.11066 0.0
H1817 H 0.84684 0.45055 0.1249 0.0
C1818 C 0.84196 0.44794 0.10235 0.0
C1819 C 0.8473 0.44793 0.08806 0.0
C1820 C 0.89086 0.45896 0.12123 0.0
C1821 C 0.86578 0.45435 0.11131 0.0
C1822 C 0.90081 0.45772 0.13263 0.0
C1823 C 0.8963 0.45259 0.14628 0.0
C1824 C 0.87628 0.45513 0.12352 0.0
C1825 C 0.8815 0.4495 0.14828 0.0
C1826 C 0.85111 0.45118 0.11395 0.0
C1827 C 0.86174 0.4523 0.08577 0.0
N1828 N 0.87207 0.45072 0.13701 0.0
N1829 N 0.87055 0.45511 0.09731 0.0
H1830 H 0.30253 0.62281 0.41004 0.0
H1831 H 0.29493 0.61042 0.32478 0.0
H1832 H 0.28896 0.65642 0.38028 0.0
H1833 H 0.307 0.57704 0.35543 0.0
H1834 H 0.28873 0.62639 0.34512 0.0
H1835 H 0.30057 0.60508 0.3905 0.0
C1836 C 0.29903 0.62646 0.39941 0.0
C1837 C 0.29614 0.64119 0.39676 0.0
C1838 C 0.2925 0.61548 0.34738 0.0
C1839 C 0.29394 0.62088 0.37422 0.0
C1840 C 0.29595 0.60631 0.33575 0.0
C1841 C 0.30174 0.59244 0.33839 0.0
C1842 C 0.29487 0.61073 0.3617 0.0
C1843 C 0.30282 0.58773 0.35286 0.0
C1844 C 0.29787 0.6163 0.38824 0.0
C1845 C 0.29141 0.64521 0.3828 0.0
N1846 N 0.29963 0.59691 0.36394 0.0
N1847 N 0.29066 0.63514 0.372 0.0
H1848 H 0.12393 0.94397 0.338 0.0
H1849 H 0.13531 0.95287 0.42329 0.0
H1850 H 0.09017 0.95859 0.3671 0.0
H1851 H 0.16884 0.93958 0.39332 0.0
H1852 H 0.11974 0.959 0.4026 0.0
H1853 H 0.14144 0.94598 0.35773 0.0
C1854 C 0.1202 0.94772 0.34851 0.0
C1855 C 0.10549 0.95088 0.35093 0.0
C1856 C 0.1306 0.95497 0.40057 0.0
C1857 C 0.12554 0.95315 0.37369 0.0
C1858 C 0.13953 0.95156 0.41239 0.0
C1859 C 0.15331 0.94546 0.41005 0.0
C1860 C 0.13549 0.95224 0.38636 0.0
C1861 C 0.1582 0.944 0.39567 0.0
C1862 C 0.13023 0.9489 0.3598 0.0
C1863 C 0.10138 0.95591 0.36475 0.0
N1864 N 0.14924 0.94717 0.3844 0.0
N1865 N 0.11131 0.95669 0.37566 0.0
H1866 H 0.79817 0.88591 0.67644 0.0
H1867 H 0.80744 0.87483 0.59114 0.0
H1868 H 0.80984 0.91998 0.6464 0.0
H1869 H 0.79488 0.84038 0.62039 0.0
H1870 H 0.80454 0.89225 0.61085 0.0
H1871 H 0.79275 0.87003 0.6558 0.0
C1872 C 0.79925 0.89018 0.66553 0.0
C1873 C 0.80472 0.90423 0.66316 0.0
C1874 C 0.80227 0.88091 0.61295 0.0
C1875 C 0.79875 0.88605 0.63952 0.0
C1876 C 0.80396 0.87092 0.60168 0.0
C1877 C 0.80164 0.85606 0.60415 0.0
C1878 C 0.79836 0.87602 0.62687 0.0
C1879 C 0.79692 0.85171 0.618 0.0
C1880 C 0.79625 0.88107 0.65374 0.0
C1881 C 0.8059 0.90915 0.64877 0.0
N1882 N 0.79564 0.86162 0.6289 0.0
N1883 N 0.80315 0.90002 0.63753 0.0
H1884 H 0.87467 0.55452 0.83821 0.0
H1885 H 0.86438 0.54613 0.92364 0.0
H1886 H 0.90926 0.54158 0.86713 0.0
H1887 H 0.82977 0.55644 0.89372 0.0
H1888 H 0.88018 0.5407 0.90295 0.0
H1889 H 0.85743 0.55189 0.85811 0.0
C1890 C 0.87864 0.55102 0.84872 0.0
C1891 C 0.89349 0.5485 0.85104 0.0
C1892 C 0.86905 0.54392 0.90093 0.0
C1893 C 0.87375 0.54553 0.87398 0.0
C1894 C 0.85999 0.54694 0.91276 0.0
C1895 C 0.8458 0.55201 0.91043 0.0
C1896 C 0.86386 0.54602 0.88672 0.0
C1897 C 0.84071 0.55283 0.89606 0.0
C1898 C 0.86876 0.54947 0.8601 0.0
C1899 C 0.89794 0.54376 0.86486 0.0
N1900 N 0.84978 0.55008 0.88478 0.0
N1901 N 0.88814 0.54263 0.87586 0.0
H1902 H 0.20465 0.61327 0.17133 0.0
H1903 H 0.19259 0.62566 0.08654 0.0
H1904 H 0.19081 0.57988 0.14144 0.0
H1905 H 0.20789 0.65915 0.1156 0.0
H1906 H 0.19534 0.60791 0.10599 0.0
H1907 H 0.20975 0.62919 0.15064 0.0
C1908 C 0.20301 0.60915 0.16043 0.0
C1909 C 0.19704 0.5953 0.15815 0.0
C1910 C 0.19824 0.61911 0.10809 0.0
C1911 C 0.20264 0.61352 0.13445 0.0
C1912 C 0.19662 0.62928 0.09698 0.0
C1913 C 0.19978 0.64399 0.09948 0.0
C1914 C 0.20293 0.62366 0.1219 0.0
C1915 C 0.20519 0.64796 0.1132 0.0
C1916 C 0.20583 0.61829 0.14862 0.0
C1917 C 0.19515 0.59056 0.14376 0.0
N1918 N 0.20641 0.63789 0.12394 0.0
N1919 N 0.19774 0.59972 0.1325 0.0
H1920 H 0.07369 0.6352 0.04603 0.0
H1921 H 0.15923 0.62498 0.05381 0.0
H1922 H 0.10366 0.66987 0.05603 0.0
H1923 H 0.13033 0.59037 0.0409 0.0
H1924 H 0.13924 0.64218 0.05149 0.0
H1925 H 0.09437 0.61937 0.04058 0.0
C1926 C 0.08458 0.6396 0.04677 0.0
C1927 C 0.08693 0.65383 0.05175 0.0
C1928 C 0.13727 0.63085 0.04901 0.0
C1929 C 0.11062 0.63572 0.04574 0.0
C1930 C 0.1487 0.621 0.05038 0.0
C1931 C 0.14643 0.60615 0.04776 0.0
C1932 C 0.12338 0.62584 0.04515 0.0
C1933 C 0.13257 0.60169 0.04314 0.0
C1934 C 0.0964 0.63052 0.04374 0.0
C1935 C 0.1013 0.6589 0.05249 0.0
N1936 N 0.12153 0.61146 0.04217 0.0
N1937 N 0.11257 0.64982 0.04973 0.0
H1938 H 0.12445 0.90891 0.30333 0.0
H1939 H 0.11369 0.82349 0.29594 0.0
H1940 H 0.15889 0.87973 0.2906 0.0
H1941 H 0.07915 0.85377 0.30537 0.0
H1942 H 0.12965 0.84401 0.29026 0.0
H1943 H 0.10709 0.8891 0.3008 0.0
C1944 C 0.12836 0.89836 0.29989 0.0
C1945 C 0.1432 0.89594 0.2974 0.0
C1946 C 0.1185 0.84614 0.29333 0.0
C1947 C 0.12333 0.87309 0.29455 0.0
C1948 C 0.10935 0.83441 0.29649 0.0
C1949 C 0.09513 0.83691 0.3014 0.0
C1950 C 0.11337 0.86042 0.29514 0.0
C1951 C 0.09011 0.85131 0.3019 0.0
C1952 C 0.11842 0.88703 0.2984 0.0
C1953 C 0.14757 0.88207 0.29275 0.0
N1954 N 0.09927 0.86249 0.29903 0.0
N1955 N 0.13771 0.87111 0.29168 0.0
H1956 H 0.89273 0.82867 0.56233 0.0
H1957 H 0.86775 0.90921 0.54233 0.0
H1958 H 0.92241 0.86211 0.54819 0.0
H1959 H 0.83936 0.87611 0.55963 0.0
H1960 H 0.88711 0.89112 0.54035 0.0
H1961 H 0.87243 0.84472 0.55691 0.0
C1962 C 0.89499 0.83931 0.55784 0.0
C1963 C 0.90935 0.84412 0.55593 0.0
C1964 C 0.8766 0.8878 0.54444 0.0
C1965 C 0.88605 0.86269 0.5499 0.0
C1966 C 0.86552 0.89812 0.54558 0.0
C1967 C 0.85194 0.89425 0.55137 0.0
C1968 C 0.87408 0.8735 0.5491 0.0
C1969 C 0.84969 0.87968 0.55531 0.0
C1970 C 0.88336 0.8485 0.55479 0.0
C1971 C 0.91155 0.85796 0.54991 0.0
N1972 N 0.86067 0.86989 0.55421 0.0
N1973 N 0.90002 0.86686 0.54733 0.0
H1974 H 0.92204 0.64395 0.80999 0.0
H1975 H 0.84233 0.61814 0.78786 0.0
H1976 H 0.88782 0.67352 0.79756 0.0
H1977 H 0.87488 0.59026 0.80694 0.0
H1978 H 0.86023 0.63768 0.78655 0.0
H1979 H 0.90639 0.62357 0.8038 0.0
C1980 C 0.9113 0.64619 0.80575 0.0
C1981 C 0.90616 0.66051 0.80455 0.0
C1982 C 0.86348 0.62724 0.79088 0.0
C1983 C 0.88809 0.63709 0.79755 0.0
C1984 C 0.85328 0.61604 0.79161 0.0
C1985 C 0.85702 0.60256 0.79773 0.0
C1986 C 0.87756 0.62495 0.79624 0.0
C1987 C 0.87142 0.6005 0.80233 0.0
C1988 C 0.90235 0.6345 0.80224 0.0
C1989 C 0.89221 0.66268 0.79877 0.0
N1990 N 0.88111 0.61161 0.8016 0.0
N1991 N 0.88357 0.65108 0.79569 0.0
H1992 H 0.13063 0.40817 0.96157 0.0
H1993 H 0.10402 0.32808 0.94209 0.0
H1994 H 0.15838 0.37407 0.94521 0.0
H1995 H 0.07479 0.36285 0.95368 0.0
H1996 H 0.12454 0.34351 0.94842 0.0
H1997 H 0.11077 0.39062 0.96356 0.0
C1998 C 0.13263 0.39697 0.95857 0.0
C1999 C 0.14616 0.39266 0.95297 0.0
C2000 C 0.11364 0.34773 0.94979 0.0
C2001 C 0.12345 0.37254 0.95525 0.0
C2002 C 0.10189 0.33889 0.94621 0.0
C2003 C 0.08765 0.34426 0.94711 0.0
C2004 C 0.11119 0.36212 0.95418 0.0
C2005 C 0.08558 0.3583 0.95272 0.0
C2006 C 0.12126 0.38697 0.9597 0.0
C2007 C 0.14809 0.37797 0.94935 0.0
N2008 N 0.09725 0.36684 0.95581 0.0
N2009 N 0.13684 0.3685 0.95043 0.0
H2010 H 0.38719 0.82281 0.20514 0.0
H2011 H 0.34166 0.88202 0.2161 0.0
H2012 H 0.41999 0.85435 0.19388 0.0
H2013 H 0.37454 0.90574 0.19251 0.0
H2014 H 0.35856 0.86188 0.21891 0.0
H2015 H 0.37073 0.84254 0.21134 0.0
C2016 C 0.39108 0.83388 0.20438 0.0
C2017 C 0.40493 0.8369 0.19875 0.0
C2018 C 0.3621 0.87139 0.21302 0.0
C2019 C 0.38611 0.85973 0.2059 0.0
C2020 C 0.35245 0.88302 0.21152 0.0
C2021 C 0.35654 0.89552 0.20377 0.0
C2022 C 0.37594 0.87223 0.20662 0.0
C2023 C 0.37077 0.89625 0.19834 0.0
C2024 C 0.38164 0.84524 0.20795 0.0
C2025 C 0.40934 0.85148 0.19795 0.0
N2026 N 0.37987 0.88473 0.19976 0.0
N2027 N 0.3999 0.86231 0.20124 0.0
H2028 H 0.89334 0.17093 0.4412 0.0
H2029 H 0.8692 0.08965 0.45914 0.0
H2030 H 0.92357 0.13703 0.45282 0.0
H2031 H 0.84054 0.12292 0.44264 0.0
H2032 H 0.88844 0.10783 0.4615 0.0
H2033 H 0.87327 0.15463 0.44675 0.0
C2034 C 0.89578 0.16013 0.44517 0.0
C2035 C 0.9102 0.15527 0.4463 0.0
C2036 C 0.87789 0.11116 0.45752 0.0
C2037 C 0.88717 0.13642 0.45248 0.0
C2038 C 0.86688 0.10079 0.45617 0.0
C2039 C 0.85327 0.10469 0.45045 0.0
C2040 C 0.87527 0.12555 0.45317 0.0
C2041 C 0.85091 0.11933 0.44687 0.0
C2042 C 0.88428 0.15079 0.44829 0.0
C2043 C 0.91265 0.14121 0.45169 0.0
N2044 N 0.86182 0.12917 0.44818 0.0
N2045 N 0.90124 0.13218 0.45435 0.0
H2046 H 0.65751 0.61546 0.71213 0.0
H2047 H 0.57934 0.6425 0.6865 0.0
H2048 H 0.62614 0.58855 0.68991 0.0
H2049 H 0.61253 0.67117 0.70313 0.0
H2050 H 0.5945 0.62173 0.69265 0.0
H2051 H 0.63945 0.63482 0.71361 0.0
C2052 C 0.64678 0.61352 0.70773 0.0
C2053 C 0.64344 0.60039 0.70066 0.0
C2054 C 0.59841 0.63255 0.69514 0.0
C2055 C 0.62272 0.62259 0.70233 0.0
C2056 C 0.58974 0.64445 0.69166 0.0
C2057 C 0.59477 0.65866 0.69405 0.0
C2058 C 0.61228 0.63481 0.70101 0.0
C2059 C 0.60824 0.66044 0.70097 0.0
C2060 C 0.63648 0.62461 0.70856 0.0
C2061 C 0.6293 0.59853 0.69527 0.0
N2062 N 0.61664 0.64865 0.70401 0.0
N2063 N 0.61952 0.60955 0.69609 0.0
H2064 H 0.55997 0.60439 0.67147 0.0
H2065 H 0.53974 0.63038 0.5913 0.0
H2066 H 0.54777 0.57487 0.63714 0.0
H2067 H 0.55635 0.65843 0.62503 0.0
H2068 H 0.53801 0.61063 0.60901 0.0
H2069 H 0.5537 0.62479 0.65586 0.0
C2070 C 0.55573 0.60217 0.66071 0.0
C2071 C 0.55463 0.58786 0.65553 0.0
C2072 C 0.54187 0.62116 0.61255 0.0
C2073 C 0.54762 0.61129 0.63746 0.0
C2074 C 0.54284 0.63247 0.60245 0.0
C2075 C 0.54842 0.64606 0.60661 0.0
C2076 C 0.54645 0.62347 0.62692 0.0
C2077 C 0.5522 0.6481 0.62124 0.0
C2078 C 0.55219 0.61386 0.65177 0.0
C2079 C 0.54888 0.5857 0.64156 0.0
N2080 N 0.55126 0.63691 0.63081 0.0
N2081 N 0.54582 0.59731 0.63291 0.0
H2082 H 0.03843 0.37037 0.90948 0.0
H2083 H 0.05524 0.39584 0.8284 0.0
H2084 H 0.05259 0.34195 0.87495 0.0
H2085 H 0.04623 0.42568 0.86343 0.0
H2086 H 0.04885 0.37565 0.84425 0.0
H2087 H 0.03626 0.39017 0.89187 0.0
C2088 C 0.0409 0.36822 0.89818 0.0
C2089 C 0.04595 0.35451 0.89374 0.0
C2090 C 0.04806 0.38661 0.84844 0.0
C2091 C 0.04345 0.37715 0.87356 0.0
C2092 C 0.05166 0.39817 0.83937 0.0
C2093 C 0.05152 0.41247 0.84467 0.0
C2094 C 0.04442 0.3893 0.863 0.0
C2095 C 0.04658 0.41483 0.85891 0.0
C2096 C 0.03967 0.37956 0.88814 0.0
C2097 C 0.04891 0.35239 0.87894 0.0
N2098 N 0.04348 0.40333 0.86768 0.0
N2099 N 0.04773 0.3636 0.86943 0.0
H2100 H 0.35455 0.80092 0.07708 0.0
H2101 H 0.41067 0.80613 0.12558 0.0
H2102 H 0.32707 0.79882 0.11495 0.0
H2103 H 0.38174 0.78823 0.15787 0.0
H2104 H 0.39162 0.80396 0.1076 0.0
H2105 H 0.37546 0.79509 0.09216 0.0
C2106 C 0.35292 0.79907 0.08859 0.0
C2107 C 0.3391 0.80061 0.09481 0.0
C2108 C 0.38944 0.80007 0.11845 0.0
C2109 C 0.36318 0.79481 0.1124 0.0
C2110 C 0.40035 0.8015 0.12885 0.0
C2111 C 0.3978 0.79749 0.14333 0.0
C2112 C 0.37578 0.79455 0.1225 0.0
C2113 C 0.3842 0.79151 0.14685 0.0
C2114 C 0.36493 0.79598 0.09728 0.0
C2115 C 0.33756 0.79783 0.10972 0.0
N2116 N 0.37364 0.79042 0.13655 0.0
N2117 N 0.34951 0.79533 0.11807 0.0
H2118 H 0.95406 0.07594 0.36134 0.0
H2119 H 0.9444 0.1609 0.37432 0.0
H2120 H 0.94121 0.10648 0.32814 0.0
H2121 H 0.95895 0.13122 0.40761 0.0
H2122 H 0.94672 0.14153 0.35642 0.0
H2123 H 0.95978 0.09634 0.37741 0.0
C2124 C 0.95275 0.08691 0.35729 0.0
C2125 C 0.94689 0.08948 0.34345 0.0
C2126 C 0.94955 0.13927 0.36761 0.0
C2127 C 0.95321 0.11285 0.36184 0.0
C2128 C 0.94819 0.15033 0.37786 0.0
C2129 C 0.95125 0.14764 0.39255 0.0
C2130 C 0.95388 0.12532 0.37206 0.0
C2131 C 0.95634 0.13377 0.39643 0.0
C2132 C 0.95594 0.09856 0.36651 0.0
C2133 C 0.94545 0.10395 0.33881 0.0
N2134 N 0.9573 0.12308 0.38628 0.0
N2135 N 0.94838 0.11505 0.34805 0.0
H2136 H 0.11748 0.21033 0.65924 0.0
H2137 H 0.14445 0.19265 0.57883 0.0
H2138 H 0.08997 0.19421 0.62483 0.0
H2139 H 0.17354 0.20322 0.61404 0.0
H2140 H 0.12387 0.19857 0.59434 0.0
H2141 H 0.13739 0.21268 0.64181 0.0
C2142 C 0.11555 0.20745 0.648 0.0
C2143 C 0.10207 0.20183 0.64356 0.0
C2144 C 0.13474 0.19981 0.59864 0.0
C2145 C 0.12484 0.20454 0.62356 0.0
C2146 C 0.14653 0.19648 0.58976 0.0
C2147 C 0.16076 0.19719 0.59522 0.0
C2148 C 0.13714 0.20377 0.61316 0.0
C2149 C 0.16277 0.20242 0.6094 0.0
C2150 C 0.12695 0.20879 0.63806 0.0
C2151 C 0.10022 0.19837 0.62882 0.0
N2152 N 0.15107 0.20527 0.61799 0.0
N2153 N 0.1115 0.19966 0.6194 0.0
H2154 H 0.45388 0.42292 0.63625 0.0
H2155 H 0.44117 0.33821 0.62391 0.0
H2156 H 0.44062 0.39299 0.66983 0.0
H2157 H 0.45577 0.36728 0.59012 0.0
H2158 H 0.4444 0.35761 0.64162 0.0
H2159 H 0.4585 0.40226 0.62014 0.0
C2160 C 0.45227 0.41201 0.64036 0.0
C2161 C 0.44662 0.40971 0.65434 0.0
C2162 C 0.44704 0.35973 0.63036 0.0
C2163 C 0.45166 0.38606 0.6359 0.0
C2164 C 0.44515 0.34864 0.62021 0.0
C2165 C 0.44798 0.35115 0.60544 0.0
C2166 C 0.45166 0.37353 0.62573 0.0
C2167 C 0.45332 0.36486 0.60136 0.0
C2168 C 0.45482 0.40022 0.63112 0.0
C2169 C 0.44474 0.39532 0.65906 0.0
N2170 N 0.45481 0.37559 0.61142 0.0
N2171 N 0.44705 0.38408 0.64981 0.0
H2172 H 0.3531 0.69154 0.42192 0.0
H2173 H 0.37907 0.70896 0.34112 0.0
H2174 H 0.3235 0.70134 0.3869 0.0
H2175 H 0.40722 0.69412 0.37559 0.0
H2176 H 0.35921 0.71106 0.35866 0.0
H2177 H 0.37343 0.69773 0.40619 0.0
C2178 C 0.35085 0.69525 0.41098 0.0
C2179 C 0.33656 0.69567 0.40565 0.0
C2180 C 0.36979 0.70751 0.36239 0.0
C2181 C 0.3599 0.70257 0.38744 0.0
C2182 C 0.38115 0.70632 0.35239 0.0
C2183 C 0.39481 0.70113 0.35682 0.0
C2184 C 0.3721 0.70353 0.37694 0.0
C2185 C 0.39684 0.69795 0.3716 0.0
C2186 C 0.36249 0.69874 0.40197 0.0
C2187 C 0.33433 0.70076 0.39144 0.0
N2188 N 0.38559 0.69908 0.38107 0.0
N2189 N 0.3459 0.70377 0.38273 0.0
H2190 H 0.64366 0.80625 0.92222 0.0
H2191 H 0.61912 0.78778 0.84116 0.0
H2192 H 0.67378 0.79489 0.88813 0.0
H2193 H 0.59073 0.80491 0.87434 0.0
H2194 H 0.63845 0.78559 0.85926 0.0
H2195 H 0.62354 0.80057 0.90603 0.0
C2196 C 0.64606 0.8023 0.9114 0.0
C2197 C 0.66046 0.80129 0.90646 0.0
C2198 C 0.62794 0.78968 0.86259 0.0
C2199 C 0.63737 0.79496 0.88774 0.0
C2200 C 0.61688 0.79093 0.85227 0.0
C2201 C 0.60332 0.79676 0.85617 0.0
C2202 C 0.62542 0.79422 0.87693 0.0
C2203 C 0.60106 0.80058 0.87076 0.0
C2204 C 0.63454 0.79911 0.90213 0.0
C2205 C 0.66287 0.79592 0.89238 0.0
N2206 N 0.61201 0.79935 0.88056 0.0
N2207 N 0.65143 0.79318 0.88342 0.0
H2208 H 0.67328 0.55676 0.60429 0.0
H2209 H 0.59264 0.53831 0.62986 0.0
H2210 H 0.6387 0.5457 0.57462 0.0
H2211 H 0.62667 0.55386 0.65815 0.0
H2212 H 0.61038 0.53618 0.61019 0.0
H2213 H 0.65756 0.5505 0.62461 0.0
C2214 C 0.66245 0.55276 0.60203 0.0
C2215 C 0.65722 0.55201 0.58772 0.0
C2216 C 0.61398 0.5399 0.62076 0.0
C2217 C 0.63903 0.54504 0.61103 0.0
C2218 C 0.60386 0.54111 0.63201 0.0
C2219 C 0.6081 0.54652 0.64564 0.0
C2220 C 0.62845 0.54407 0.62316 0.0
C2221 C 0.62282 0.54988 0.64778 0.0
C2222 C 0.65345 0.54923 0.61366 0.0
C2223 C 0.64316 0.54655 0.58547 0.0
N2224 N 0.63241 0.54872 0.63663 0.0
N2225 N 0.63445 0.54351 0.59703 0.0
H2226 H 0.20617 0.38942 0.82775 0.0
H2227 H 0.19317 0.37521 0.91203 0.0
H2228 H 0.1894 0.4215 0.85758 0.0
H2229 H 0.21271 0.34376 0.88322 0.0
H2230 H 0.19493 0.39341 0.89286 0.0
H2231 H 0.21214 0.37383 0.84843 0.0
C2232 C 0.20402 0.39333 0.83863 0.0
C2233 C 0.19702 0.4067 0.84088 0.0
C2234 C 0.19899 0.38257 0.89077 0.0
C2235 C 0.20364 0.38882 0.86459 0.0
C2236 C 0.19796 0.37215 0.90173 0.0
C2237 C 0.20257 0.35784 0.89918 0.0
C2238 C 0.20455 0.37867 0.87709 0.0
C2239 C 0.20887 0.3546 0.88565 0.0
C2240 C 0.20737 0.38439 0.85045 0.0
C2241 C 0.19455 0.41119 0.85526 0.0
N2242 N 0.20949 0.36487 0.87506 0.0
N2243 N 0.19765 0.40219 0.86652 0.0
H2244 H 0.3266 0.94572 0.1045 0.0
H2245 H 0.40774 0.96271 0.12954 0.0
H2246 H 0.36131 0.95549 0.07455 0.0
H2247 H 0.37351 0.94807 0.15807 0.0
H2248 H 0.38994 0.96513 0.10994 0.0
H2249 H 0.34252 0.95201 0.12467 0.0
C2250 C 0.3375 0.94945 0.10214 0.0
C2251 C 0.3427 0.94982 0.08781 0.0
C2252 C 0.38632 0.96156 0.12054 0.0
C2253 C 0.36112 0.95682 0.11094 0.0
C2254 C 0.39646 0.96019 0.13176 0.0
C2255 C 0.39217 0.95493 0.14543 0.0
C2256 C 0.37177 0.95771 0.12303 0.0
C2257 C 0.37739 0.95192 0.14766 0.0
C2258 C 0.34662 0.953 0.11369 0.0
C2259 C 0.35687 0.95495 0.08542 0.0
N2260 N 0.36777 0.95323 0.13656 0.0
N2261 N 0.36569 0.95799 0.0969 0.0
H2262 H 0.79078 0.15753 0.38094 0.0
H2263 H 0.8092 0.0768 0.35551 0.0
H2264 H 0.80696 0.12377 0.40921 0.0
H2265 H 0.79706 0.11106 0.32588 0.0
H2266 H 0.8035 0.09268 0.37586 0.0
H2267 H 0.78847 0.13966 0.36142 0.0
C2268 C 0.79368 0.14634 0.38312 0.0
C2269 C 0.79931 0.14222 0.39669 0.0
C2270 C 0.80188 0.09669 0.36492 0.0
C2271 C 0.79667 0.12171 0.37437 0.0
C2272 C 0.8051 0.0876 0.35326 0.0
C2273 C 0.80385 0.09267 0.33893 0.0
C2274 C 0.79749 0.11105 0.36229 0.0
C2275 C 0.79828 0.10671 0.33673 0.0
C2276 C 0.79237 0.13615 0.37195 0.0
C2277 C 0.80279 0.12753 0.39887 0.0
N2278 N 0.79554 0.1155 0.3483 0.0
N2279 N 0.80154 0.11786 0.3878 0.0
H2280 H 0.67141 0.44067 0.39437 0.0
H2281 H 0.59114 0.46064 0.36868 0.0
H2282 H 0.63704 0.45248 0.42399 0.0
H2283 H 0.62472 0.4438 0.34058 0.0
H2284 H 0.60896 0.46257 0.3883 0.0
H2285 H 0.65578 0.44706 0.37402 0.0
C2286 C 0.66064 0.44486 0.39662 0.0
C2287 C 0.65544 0.44579 0.41093 0.0
C2288 C 0.61244 0.45862 0.37779 0.0
C2289 C 0.63736 0.45293 0.38758 0.0
C2290 C 0.60229 0.45752 0.36656 0.0
C2291 C 0.60637 0.45181 0.353 0.0
C2292 C 0.6268 0.45403 0.37543 0.0
C2293 C 0.62099 0.44804 0.35089 0.0
C2294 C 0.65169 0.44847 0.38496 0.0
C2295 C 0.64147 0.45149 0.41315 0.0
N2296 N 0.63062 0.44909 0.36202 0.0
N2297 N 0.6328 0.45461 0.40157 0.0
H2298 H 0.28924 0.34183 0.62059 0.0
H2299 H 0.30658 0.42297 0.64558 0.0
H2300 H 0.30374 0.37606 0.59198 0.0
H2301 H 0.2972 0.38823 0.67563 0.0
H2302 H 0.30029 0.40699 0.62547 0.0
H2303 H 0.28729 0.35956 0.6403 0.0
C2304 C 0.29184 0.35309 0.61838 0.0
C2305 C 0.2969 0.3574 0.60464 0.0
C2306 C 0.29939 0.40289 0.63646 0.0
C2307 C 0.29464 0.37773 0.62717 0.0
C2308 C 0.30294 0.41204 0.64798 0.0
C2309 C 0.30266 0.40686 0.66232 0.0
C2310 C 0.29565 0.38837 0.63925 0.0
C2311 C 0.29766 0.39266 0.66475 0.0
C2312 C 0.29074 0.3632 0.62966 0.0
C2313 C 0.30003 0.37216 0.60243 0.0
N2314 N 0.29459 0.38381 0.6533 0.0
N2315 N 0.29897 0.38174 0.6136 0.0
H2316 H 0.40773 0.04043 0.86844 0.0
H2317 H 0.32727 0.06108 0.89306 0.0
H2318 H 0.37461 0.05726 0.83979 0.0
H2319 H 0.36087 0.04807 0.92308 0.0
H2320 H 0.34322 0.05495 0.87289 0.0
H2321 H 0.38965 0.03875 0.88785 0.0
C2322 C 0.39663 0.0436 0.86615 0.0
C2323 C 0.39276 0.04922 0.8525 0.0
C2324 C 0.34706 0.05324 0.88388 0.0
C2325 C 0.37202 0.04731 0.87469 0.0
C2326 C 0.33793 0.0567 0.89543 0.0
C2327 C 0.34281 0.05532 0.90982 0.0
C2328 C 0.36127 0.04846 0.88667 0.0
C2329 C 0.35667 0.0494 0.91218 0.0
C2330 C 0.38632 0.04265 0.87726 0.0
C2331 C 0.37818 0.05308 0.85019 0.0
N2332 N 0.36552 0.04641 0.90071 0.0
N2333 N 0.36841 0.05217 0.86119 0.0
H2334 H 0.70901 0.16059 0.11922 0.0
H2335 H 0.693 0.07917 0.14404 0.0
H2336 H 0.69461 0.12633 0.09059 0.0
H2337 H 0.70291 0.11381 0.17405 0.0
H2338 H 0.69879 0.09528 0.12388 0.0
H2339 H 0.71164 0.14275 0.13874 0.0
C2340 C 0.70658 0.14931 0.11696 0.0
C2341 C 0.70134 0.14501 0.10328 0.0
C2342 C 0.69991 0.09933 0.13487 0.0
C2343 C 0.70435 0.12456 0.1256 0.0
C2344 C 0.69665 0.09011 0.14641 0.0
C2345 C 0.69722 0.09522 0.16078 0.0
C2346 C 0.70365 0.11384 0.13764 0.0
C2347 C 0.70222 0.10943 0.16316 0.0
C2348 C 0.70807 0.13913 0.12813 0.0
C2349 C 0.69845 0.13021 0.101 0.0
N2350 N 0.705 0.11834 0.15169 0.0
N2351 N 0.69987 0.12057 0.11207 0.0
H2352 H 0.57682 0.13727 0.04568 0.0
H2353 H 0.66176 0.12507 0.05678 0.0
H2354 H 0.60667 0.1705 0.05998 0.0
H2355 H 0.63283 0.09179 0.0408 0.0
H2356 H 0.64218 0.14274 0.05465 0.0
H2357 H 0.59753 0.12155 0.04012 0.0
C2358 C 0.58771 0.1414 0.04734 0.0
C2359 C 0.58997 0.15515 0.05355 0.0
C2360 C 0.64012 0.1316 0.05146 0.0
C2361 C 0.6137 0.13714 0.04741 0.0
C2362 C 0.65132 0.12148 0.05272 0.0
C2363 C 0.6489 0.10684 0.04918 0.0
C2364 C 0.62632 0.12709 0.04676 0.0
C2365 C 0.63517 0.10292 0.04377 0.0
C2366 C 0.59954 0.13237 0.04425 0.0
C2367 C 0.60436 0.1599 0.05545 0.0
N2368 N 0.62434 0.11294 0.04291 0.0
N2369 N 0.61563 0.15085 0.0526 0.0
H2370 H 0.62512 0.41007 0.30273 0.0
H2371 H 0.61327 0.32474 0.29573 0.0
H2372 H 0.65922 0.38027 0.29055 0.0
H2373 H 0.57949 0.35542 0.3065 0.0
H2374 H 0.62927 0.34507 0.28949 0.0
H2375 H 0.60747 0.39052 0.30015 0.0
C2376 C 0.6289 0.39943 0.29939 0.0
C2377 C 0.64372 0.39676 0.29711 0.0
C2378 C 0.61827 0.34733 0.29297 0.0
C2379 C 0.62352 0.37421 0.29422 0.0
C2380 C 0.60909 0.33572 0.29644 0.0
C2381 C 0.59511 0.33839 0.3019 0.0
C2382 C 0.6134 0.36167 0.295 0.0
C2383 C 0.59028 0.35284 0.30259 0.0
C2384 C 0.61879 0.38826 0.29788 0.0
C2385 C 0.64792 0.3828 0.29256 0.0
N2386 N 0.59947 0.36391 0.2994 0.0
N2387 N 0.6379 0.37199 0.29148 0.0
H2388 H 0.33435 0.37619 0.56096 0.0
H2389 H 0.38894 0.32539 0.55644 0.0
H2390 H 0.36329 0.40566 0.53873 0.0
H2391 H 0.41701 0.36202 0.54832 0.0
H2392 H 0.36795 0.34059 0.55135 0.0
H2393 H 0.35258 0.35729 0.55915 0.0
C2394 C 0.34446 0.37862 0.55545 0.0
C2395 C 0.3473 0.39262 0.55013 0.0
C2396 C 0.37864 0.34541 0.55077 0.0
C2397 C 0.36835 0.37075 0.54766 0.0
C2398 C 0.39068 0.33664 0.55347 0.0
C2399 C 0.40475 0.34251 0.55309 0.0
C2400 C 0.38063 0.36029 0.54797 0.0
C2401 C 0.40636 0.35706 0.54886 0.0
C2402 C 0.3549 0.3677 0.55426 0.0
C2403 C 0.36062 0.39507 0.54308 0.0
N2404 N 0.39443 0.36552 0.5467 0.0
N2405 N 0.3707 0.38431 0.54223 0.0
H2406 H 0.38576 0.17448 0.79555 0.0
H2407 H 0.37402 0.08919 0.80399 0.0
H2408 H 0.41974 0.14395 0.80615 0.0
H2409 H 0.33962 0.1189 0.79242 0.0
H2410 H 0.39157 0.10876 0.80098 0.0
H2411 H 0.36958 0.15406 0.79015 0.0
C2412 C 0.38995 0.16351 0.79639 0.0
C2413 C 0.40406 0.16093 0.80156 0.0
C2414 C 0.38021 0.111 0.79895 0.0
C2415 C 0.38555 0.13755 0.79562 0.0
C2416 C 0.37015 0.09981 0.80072 0.0
C2417 C 0.35527 0.10244 0.7987 0.0
C2418 C 0.37539 0.12501 0.79528 0.0
C2419 C 0.35096 0.11639 0.79423 0.0
C2420 C 0.38066 0.15185 0.7934 0.0
C2421 C 0.40887 0.14648 0.80245 0.0
N2422 N 0.36095 0.1272 0.79287 0.0
N2423 N 0.39958 0.13536 0.79973 0.0
H2424 H 0.63081 0.91022 0.95949 0.0
H2425 H 0.60546 0.82898 0.94318 0.0
H2426 H 0.6591 0.87591 0.94456 0.0
H2427 H 0.57561 0.86384 0.95278 0.0
H2428 H 0.62569 0.84499 0.94901 0.0
H2429 H 0.61115 0.8925 0.96198 0.0
C2430 C 0.63296 0.89895 0.95691 0.0
C2431 C 0.64659 0.89461 0.95157 0.0
C2432 C 0.61472 0.84911 0.95006 0.0
C2433 C 0.62412 0.87429 0.95444 0.0
C2434 C 0.60314 0.83995 0.94677 0.0
C2435 C 0.58881 0.84515 0.94724 0.0
C2436 C 0.61202 0.86366 0.95373 0.0
C2437 C 0.58648 0.85939 0.95218 0.0
C2438 C 0.62171 0.88884 0.95832 0.0
C2439 C 0.64873 0.87983 0.94848 0.0
N2440 N 0.59799 0.86825 0.95499 0.0
N2441 N 0.63759 0.87025 0.94985 0.0
H2442 H 0.88575 0.32612 0.20381 0.0
H2443 H 0.87564 0.41153 0.19491 0.0
H2444 H 0.91985 0.3556 0.19089 0.0
H2445 H 0.84163 0.38306 0.21017 0.0
H2446 H 0.89286 0.39153 0.19681 0.0
H2447 H 0.87048 0.34703 0.20995 0.0
C2448 C 0.89016 0.33695 0.20258 0.0
C2449 C 0.90401 0.33909 0.19658 0.0
C2450 C 0.88166 0.38966 0.1999 0.0
C2451 C 0.88655 0.36304 0.20337 0.0
C2452 C 0.8718 0.4011 0.19877 0.0
C2453 C 0.8571 0.39894 0.20215 0.0
C2454 C 0.87681 0.37587 0.20429 0.0
C2455 C 0.85283 0.38521 0.20732 0.0
C2456 C 0.8814 0.3489 0.206 0.0
C2457 C 0.90914 0.3534 0.19523 0.0
N2458 N 0.8626 0.37415 0.20803 0.0
N2459 N 0.90035 0.3648 0.19839 0.0
H2460 H 0.42248 0.63973 0.4562 0.0
H2461 H 0.33843 0.62444 0.44299 0.0
H2462 H 0.39207 0.67178 0.44045 0.0
H2463 H 0.36765 0.5931 0.4621 0.0
H2464 H 0.35735 0.64287 0.445 0.0
H2465 H 0.40208 0.62363 0.46178 0.0
C2466 C 0.41153 0.64352 0.4542 0.0
C2467 C 0.40904 0.65704 0.44759 0.0
C2468 C 0.35959 0.632 0.44891 0.0
C2469 C 0.38566 0.63858 0.45375 0.0
C2470 C 0.34877 0.62144 0.44773 0.0
C2471 C 0.35149 0.60711 0.45218 0.0
C2472 C 0.37331 0.62821 0.45443 0.0
C2473 C 0.36508 0.60397 0.45841 0.0
C2474 C 0.39987 0.63428 0.45732 0.0
C2475 C 0.39458 0.66136 0.44529 0.0
N2476 N 0.37553 0.61437 0.45917 0.0
N2477 N 0.38348 0.65209 0.44816 0.0
H2478 H 0.15664 0.11897 0.71289 0.0
H2479 H 0.07642 0.14399 0.69183 0.0
H2480 H 0.12355 0.09058 0.69557 0.0
H2481 H 0.11038 0.17389 0.70413 0.0
H2482 H 0.09217 0.12377 0.69834 0.0
H2483 H 0.13864 0.13845 0.71452 0.0
C2484 C 0.14556 0.11675 0.7096 0.0
C2485 C 0.14168 0.10316 0.70385 0.0
C2486 C 0.09613 0.13474 0.69982 0.0
C2487 C 0.12103 0.12543 0.70572 0.0
C2488 C 0.08711 0.14632 0.69614 0.0
C2489 C 0.09217 0.16068 0.69718 0.0
C2490 C 0.11039 0.13748 0.70447 0.0
C2491 C 0.10606 0.16301 0.70304 0.0
C2492 C 0.1353 0.1279 0.71053 0.0
C2493 C 0.12713 0.10093 0.69985 0.0
N2494 N 0.11479 0.15151 0.70624 0.0
N2495 N 0.1174 0.11198 0.70074 0.0
H2496 H 0.05511 0.15951 0.6232 0.0
H2497 H 0.04825 0.07392 0.63367 0.0
H2498 H 0.04195 0.13042 0.58884 0.0
H2499 H 0.05887 0.10405 0.66801 0.0
H2500 H 0.04227 0.09453 0.61792 0.0
H2501 H 0.05316 0.13955 0.64047 0.0
C2502 C 0.05169 0.14895 0.61929 0.0
C2503 C 0.04891 0.1466 0.60449 0.0
C2504 C 0.04569 0.0966 0.62899 0.0
C2505 C 0.04675 0.12359 0.62425 0.0
C2506 C 0.04903 0.08483 0.63801 0.0
C2507 C 0.05432 0.08725 0.65211 0.0
C2508 C 0.04768 0.11086 0.63412 0.0
C2509 C 0.05509 0.10164 0.65714 0.0
C2510 C 0.05054 0.13753 0.62918 0.0
C2511 C 0.04431 0.13271 0.60012 0.0
N2512 N 0.05201 0.11286 0.6481 0.0
N2513 N 0.04358 0.12168 0.60993 0.0
H2514 H 0.54552 0.92489 0.86225 0.0
H2515 H 0.55454 0.83981 0.87474 0.0
H2516 H 0.5577 0.89437 0.82881 0.0
H2517 H 0.54031 0.86935 0.90828 0.0
H2518 H 0.55219 0.85928 0.85697 0.0
H2519 H 0.53966 0.90447 0.87827 0.0
C2520 C 0.54663 0.91392 0.85815 0.0
C2521 C 0.55236 0.91135 0.84425 0.0
C2522 C 0.54943 0.8615 0.86819 0.0
C2523 C 0.54589 0.88796 0.86257 0.0
C2524 C 0.55081 0.85037 0.87837 0.0
C2525 C 0.54785 0.85299 0.89309 0.0
C2526 C 0.5452 0.87544 0.87273 0.0
C2527 C 0.54283 0.86685 0.89707 0.0
C2528 C 0.54338 0.90226 0.86734 0.0
C2529 C 0.55357 0.89689 0.83952 0.0
N2530 N 0.54186 0.87761 0.88699 0.0
N2531 N 0.55057 0.88578 0.84873 0.0
H2532 H 0.90742 0.30272 0.12459 0.0
H2533 H 0.82174 0.29792 0.1144 0.0
H2534 H 0.87811 0.29087 0.15923 0.0
H2535 H 0.85204 0.30733 0.07988 0.0
H2536 H 0.8422 0.2913 0.13009 0.0
H2537 H 0.88744 0.30075 0.10736 0.0
C2538 C 0.8968 0.29958 0.12857 0.0
C2539 C 0.89441 0.29719 0.14343 0.0
C2540 C 0.84434 0.29457 0.119 0.0
C2541 C 0.87135 0.29502 0.1237 0.0
C2542 C 0.83264 0.29825 0.10999 0.0
C2543 C 0.83519 0.30344 0.09588 0.0
C2544 C 0.85863 0.29611 0.11382 0.0
C2545 C 0.84956 0.30365 0.09078 0.0
C2546 C 0.88537 0.29842 0.1187 0.0
C2547 C 0.88044 0.29293 0.14789 0.0
N2548 N 0.86072 0.30026 0.09979 0.0
N2549 N 0.86939 0.2922 0.1381 0.0
H2550 H 0.44408 0.66259 0.37607 0.0
H2551 H 0.45506 0.57776 0.36298 0.0
H2552 H 0.45864 0.63298 0.40942 0.0
H2553 H 0.44139 0.60809 0.32992 0.0
H2554 H 0.46044 0.59824 0.37906 0.0
H2555 H 0.44671 0.64328 0.35816 0.0
C2556 C 0.44793 0.65205 0.37963 0.0
C2557 C 0.4509 0.64936 0.39434 0.0
C2558 C 0.4565 0.60041 0.36819 0.0
C2559 C 0.4539 0.6271 0.37382 0.0
C2560 C 0.45351 0.58871 0.35896 0.0
C2561 C 0.44751 0.59118 0.34515 0.0
C2562 C 0.45345 0.61464 0.36357 0.0
C2563 C 0.44575 0.60563 0.34056 0.0
C2564 C 0.44947 0.64102 0.36937 0.0
C2565 C 0.45608 0.63553 0.39823 0.0
N2566 N 0.4485 0.61677 0.3498 0.0
N2567 N 0.45723 0.62487 0.38807 0.0
H2568 H 0.64682 0.69845 0.57718 0.0
H2569 H 0.62083 0.71026 0.65897 0.0
H2570 H 0.67642 0.70497 0.61293 0.0
H2571 H 0.59277 0.69759 0.62358 0.0
H2572 H 0.64068 0.71363 0.64163 0.0
H2573 H 0.62654 0.70397 0.59325 0.0
C2574 C 0.64909 0.70135 0.58836 0.0
C2575 C 0.66334 0.701 0.59378 0.0
C2576 C 0.63013 0.71028 0.63766 0.0
C2577 C 0.64007 0.70707 0.61235 0.0
C2578 C 0.61877 0.70836 0.64755 0.0
C2579 C 0.60514 0.70339 0.64278 0.0
C2580 C 0.62784 0.70729 0.62288 0.0
C2581 C 0.60313 0.7012 0.62782 0.0
C2582 C 0.63747 0.70444 0.59756 0.0
C2583 C 0.66561 0.70503 0.60831 0.0
N2584 N 0.61438 0.70304 0.61845 0.0
N2585 N 0.65406 0.70763 0.61718 0.0
H2586 H 0.95194 0.92699 0.63604 0.0
H2587 H 0.94681 0.84117 0.62658 0.0
H2588 H 0.94254 0.89698 0.67083 0.0
H2589 H 0.95802 0.87024 0.59152 0.0
H2590 H 0.94886 0.86132 0.6436 0.0
H2591 H 0.95808 0.90637 0.62037 0.0
C2592 C 0.95147 0.91611 0.64049 0.0
C2593 C 0.94646 0.91371 0.65469 0.0
C2594 C 0.95103 0.8633 0.63221 0.0
C2595 C 0.9533 0.89009 0.6368 0.0
C2596 C 0.94983 0.85178 0.62246 0.0
C2597 C 0.95201 0.85405 0.60755 0.0
C2598 C 0.95428 0.87729 0.62703 0.0
C2599 C 0.95612 0.868 0.60291 0.0
C2600 C 0.9549 0.90433 0.63151 0.0
C2601 C 0.94608 0.89936 0.65987 0.0
N2602 N 0.95691 0.87915 0.61258 0.0
N2603 N 0.94925 0.88812 0.65088 0.0
H2604 H 0.91245 0.19176 0.3733 0.0
H2605 H 0.82781 0.20302 0.38723 0.0
H2606 H 0.8828 0.20764 0.3406 0.0
H2607 H 0.85827 0.1885 0.41981 0.0
H2608 H 0.84822 0.20858 0.37112 0.0
H2609 H 0.89326 0.19398 0.39139 0.0
C2610 C 0.90193 0.19581 0.36992 0.0
C2611 C 0.89919 0.19929 0.35533 0.0
C2612 C 0.85043 0.2044 0.38189 0.0
C2613 C 0.87707 0.20181 0.37606 0.0
C2614 C 0.83877 0.2013 0.39114 0.0
C2615 C 0.8413 0.19503 0.40481 0.0
C2616 C 0.86467 0.20118 0.38636 0.0
C2617 C 0.85576 0.19308 0.40927 0.0
C2618 C 0.89097 0.19712 0.38029 0.0
C2619 C 0.88539 0.2047 0.35168 0.0
N2620 N 0.86686 0.19594 0.40001 0.0
N2621 N 0.87479 0.20561 0.36194 0.0
H2622 H 0.09056 0.30524 0.87422 0.0
H2623 H 0.17593 0.29745 0.88509 0.0
H2624 H 0.11954 0.29142 0.84004 0.0
H2625 H 0.14571 0.30731 0.91957 0.0
H2626 H 0.15538 0.29184 0.86915 0.0
H2627 H 0.11041 0.303 0.89159 0.0
C2628 C 0.10107 0.30162 0.87038 0.0
C2629 C 0.10342 0.29873 0.8556 0.0
C2630 C 0.15327 0.29501 0.88028 0.0
C2631 C 0.12631 0.29623 0.87547 0.0
C2632 C 0.16501 0.29813 0.88942 0.0
C2633 C 0.16255 0.30312 0.90362 0.0
C2634 C 0.13901 0.29691 0.8854 0.0
C2635 C 0.14815 0.30378 0.90862 0.0
C2636 C 0.11242 0.3003 0.88032 0.0
C2637 C 0.11725 0.29387 0.85131 0.0
N2638 N 0.13695 0.30092 0.89948 0.0
N2639 N 0.12823 0.29298 0.86116 0.0
H2640 H 0.67322 0.05673 0.10593 0.0
H2641 H 0.59208 0.03874 0.13039 0.0
H2642 H 0.63891 0.04624 0.07574 0.0
H2643 H 0.62577 0.0542 0.15914 0.0
H2644 H 0.61006 0.03665 0.11093 0.0
H2645 H 0.65713 0.05061 0.12601 0.0
C2646 C 0.66237 0.05289 0.1035 0.0
C2647 C 0.65733 0.05225 0.08911 0.0
C2648 C 0.61353 0.04034 0.12155 0.0
C2649 C 0.63873 0.04542 0.11215 0.0
C2650 C 0.60327 0.04153 0.13268 0.0
C2651 C 0.60735 0.04689 0.14638 0.0
C2652 C 0.62798 0.04449 0.12414 0.0
C2653 C 0.62205 0.05025 0.14871 0.0
C2654 C 0.65316 0.04944 0.115 0.0
C2655 C 0.64323 0.04699 0.08666 0.0
N2656 N 0.63177 0.04911 0.13768 0.0
N2657 N 0.63432 0.04402 0.09808 0.0
H2658 H 0.19044 0.92067 0.35615 0.0
H2659 H 0.20893 0.83982 0.38115 0.0
H2660 H 0.20289 0.88667 0.32636 0.0
H2661 H 0.19285 0.87346 0.40962 0.0
H2662 H 0.21124 0.8578 0.36172 0.0
H2663 H 0.19613 0.90469 0.37643 0.0
C2664 C 0.19462 0.90991 0.35386 0.0
C2665 C 0.19595 0.90493 0.3395 0.0
C2666 C 0.20736 0.86126 0.37227 0.0
C2667 C 0.20229 0.88643 0.36277 0.0
C2668 C 0.20605 0.85101 0.38339 0.0
C2669 C 0.20045 0.85506 0.39701 0.0
C2670 C 0.20309 0.87569 0.37478 0.0
C2671 C 0.19699 0.86975 0.39926 0.0
C2672 C 0.19783 0.90076 0.36547 0.0
C2673 C 0.20161 0.89095 0.33723 0.0
N2674 N 0.19824 0.87947 0.38824 0.0
N2675 N 0.20434 0.88209 0.34876 0.0
H2676 H 0.32818 0.44493 0.60637 0.0
H2677 H 0.41004 0.45998 0.63052 0.0
H2678 H 0.36296 0.45304 0.57598 0.0
H2679 H 0.37598 0.44562 0.6594 0.0
H2680 H 0.39211 0.46244 0.61107 0.0
H2681 H 0.34461 0.45048 0.62632 0.0
C2682 C 0.33922 0.4481 0.60386 0.0
C2683 C 0.34426 0.44825 0.58945 0.0
C2684 C 0.38855 0.45891 0.62171 0.0
C2685 C 0.36323 0.45447 0.61237 0.0
C2686 C 0.39877 0.45752 0.63285 0.0
C2687 C 0.39456 0.45236 0.64658 0.0
C2688 C 0.374 0.45517 0.62434 0.0
C2689 C 0.37979 0.44942 0.64894 0.0
C2690 C 0.34862 0.45124 0.61529 0.0
C2691 C 0.35863 0.45267 0.58691 0.0
N2692 N 0.37009 0.45075 0.63791 0.0
N2693 N 0.36769 0.45538 0.59827 0.0
H2694 H 0.7906 0.65933 0.8812 0.0
H2695 H 0.80659 0.57859 0.85405 0.0
H2696 H 0.80558 0.62442 0.90873 0.0
H2697 H 0.79759 0.61425 0.82496 0.0
H2698 H 0.80093 0.59422 0.87461 0.0
H2699 H 0.78824 0.64208 0.86113 0.0
C2700 C 0.79323 0.64802 0.8831 0.0
C2701 C 0.79853 0.64338 0.89664 0.0
C2702 C 0.79999 0.5986 0.86373 0.0
C2703 C 0.7958 0.6236 0.87369 0.0
C2704 C 0.80318 0.58966 0.85195 0.0
C2705 C 0.80282 0.59519 0.83774 0.0
C2706 C 0.79651 0.61325 0.86135 0.0
C2707 C 0.79811 0.60956 0.83572 0.0
C2708 C 0.79189 0.63819 0.87161 0.0
C2709 C 0.80168 0.62857 0.89844 0.0
N2710 N 0.79537 0.61818 0.84742 0.0
N2711 N 0.80038 0.61925 0.88708 0.0
H2712 H 0.59066 0.96109 0.86815 0.0
H2713 H 0.67161 0.94315 0.89324 0.0
H2714 H 0.62446 0.94515 0.83979 0.0
H2715 H 0.63724 0.95425 0.92313 0.0
H2716 H 0.65565 0.94908 0.87301 0.0
H2717 H 0.60856 0.96344 0.88766 0.0
C2718 C 0.60186 0.95825 0.86595 0.0
C2719 C 0.606 0.95267 0.85235 0.0
C2720 C 0.65163 0.95044 0.88398 0.0
C2721 C 0.62652 0.95538 0.87465 0.0
C2722 C 0.66077 0.94709 0.89557 0.0
C2723 C 0.65568 0.94796 0.90992 0.0
C2724 C 0.63721 0.95456 0.88671 0.0
C2725 C 0.6416 0.95333 0.91225 0.0
C2726 C 0.61207 0.95959 0.87711 0.0
C2727 C 0.6207 0.94927 0.85015 0.0
N2728 N 0.63275 0.95619 0.90074 0.0
N2729 N 0.63037 0.95056 0.8612 0.0
H2730 H 0.29673 0.88597 0.17582 0.0
H2731 H 0.30537 0.8736 0.09066 0.0
H2732 H 0.30887 0.91941 0.14526 0.0
H2733 H 0.2914 0.83996 0.1202 0.0
H2734 H 0.30316 0.89131 0.11019 0.0
H2735 H 0.29086 0.86994 0.15541 0.0
C2736 C 0.29784 0.89007 0.16484 0.0
C2737 C 0.30355 0.90398 0.16226 0.0
C2738 C 0.30043 0.88009 0.1124 0.0
C2739 C 0.29705 0.88564 0.13889 0.0
C2740 C 0.30174 0.86994 0.10124 0.0
C2741 C 0.2988 0.85521 0.10384 0.0
C2742 C 0.2963 0.8755 0.12636 0.0
C2743 C 0.29389 0.85118 0.11772 0.0
C2744 C 0.29457 0.88088 0.15319 0.0
C2745 C 0.30475 0.90869 0.1478 0.0
N2746 N 0.293 0.86123 0.12852 0.0
N2747 N 0.30173 0.89949 0.13669 0.0
H2748 H 0.32864 0.55051 0.39731 0.0
H2749 H 0.37618 0.55706 0.34046 0.0
H2750 H 0.36693 0.55137 0.4243 0.0
H2751 H 0.40954 0.54113 0.36932 0.0
H2752 H 0.35854 0.55457 0.35982 0.0
H2753 H 0.34377 0.54505 0.37634 0.0
C2754 C 0.34026 0.54942 0.39882 0.0
C2755 C 0.34657 0.55168 0.41251 0.0
C2756 C 0.36959 0.55117 0.36191 0.0
C2757 C 0.36414 0.54625 0.38835 0.0
C2758 C 0.37976 0.55279 0.35082 0.0
C2759 C 0.39442 0.54943 0.35326 0.0
C2760 C 0.37405 0.54613 0.37563 0.0
C2761 C 0.39837 0.5439 0.36693 0.0
C2762 C 0.34895 0.54653 0.38678 0.0
C2763 C 0.36163 0.54983 0.41391 0.0
N2764 N 0.38828 0.54263 0.37766 0.0
N2765 N 0.36995 0.54747 0.40191 0.0
H2766 H 0.70442 0.6139 0.67509 0.0
H2767 H 0.71526 0.66014 0.61622 0.0
H2768 H 0.6917 0.58193 0.64322 0.0
H2769 H 0.68935 0.62882 0.5928 0.0
H2770 H 0.71764 0.6429 0.63613 0.0
H2771 H 0.70976 0.63086 0.65553 0.0
C2772 C 0.70313 0.6103 0.66397 0.0
C2773 C 0.69742 0.59651 0.66085 0.0
C2774 C 0.71132 0.6398 0.62674 0.0
C2775 C 0.70362 0.6159 0.63822 0.0
C2776 C 0.71006 0.64963 0.61525 0.0
C2777 C 0.70185 0.64607 0.60288 0.0
C2778 C 0.70423 0.6263 0.62591 0.0
C2779 C 0.69559 0.63218 0.60218 0.0
C2780 C 0.70622 0.62003 0.65271 0.0
C2781 C 0.69589 0.59251 0.6462 0.0
N2782 N 0.69683 0.62288 0.61356 0.0
N2783 N 0.69876 0.60221 0.63548 0.0
H2784 H 0.63145 0.59029 0.5391 0.0
H2785 H 0.60549 0.67115 0.55634 0.0
H2786 H 0.65949 0.62461 0.55448 0.0
H2787 H 0.57586 0.63602 0.54705 0.0
H2788 H 0.62579 0.65535 0.55025 0.0
H2789 H 0.61161 0.60784 0.53702 0.0
C2790 C 0.63351 0.60154 0.54188 0.0
C2791 C 0.64713 0.60592 0.5472 0.0
C2792 C 0.61485 0.65112 0.54933 0.0
C2793 C 0.62444 0.62605 0.54479 0.0
C2794 C 0.60322 0.66017 0.55276 0.0
C2795 C 0.58894 0.65483 0.55245 0.0
C2796 C 0.61225 0.63656 0.54567 0.0
C2797 C 0.58669 0.64057 0.54753 0.0
C2798 C 0.62215 0.61154 0.54069 0.0
C2799 C 0.64913 0.62066 0.55055 0.0
N2800 N 0.59825 0.63183 0.54457 0.0
N2801 N 0.6379 0.63015 0.5494 0.0
H2802 H 0.5782 0.85293 0.80462 0.0
H2803 H 0.65932 0.87893 0.78897 0.0
H2804 H 0.61355 0.82336 0.79603 0.0
H2805 H 0.62454 0.90703 0.80315 0.0
H2806 H 0.64182 0.85909 0.78636 0.0
H2807 H 0.59399 0.87325 0.79848 0.0
C2808 C 0.58922 0.85068 0.80117 0.0
C2809 C 0.59463 0.83642 0.8011 0.0
C2810 C 0.63801 0.86965 0.78987 0.0
C2811 C 0.61289 0.85973 0.79428 0.0
C2812 C 0.64799 0.881 0.79135 0.0
C2813 C 0.64345 0.89463 0.79654 0.0
C2814 C 0.62338 0.87195 0.79353 0.0
C2815 C 0.6286 0.89666 0.79936 0.0
C2816 C 0.59826 0.86232 0.79772 0.0
C2817 C 0.60895 0.83418 0.79634 0.0
N2818 N 0.61915 0.88543 0.79795 0.0
N2819 N 0.61767 0.84574 0.79337 0.0
H2820 H 0.39276 0.82947 0.05668 0.0
H2821 H 0.36785 0.91059 0.0391 0.0
H2822 H 0.42273 0.86382 0.0457 0.0
H2823 H 0.33947 0.87685 0.05511 0.0
H2824 H 0.38734 0.89266 0.03678 0.0
H2825 H 0.37257 0.84557 0.05099 0.0
C2826 C 0.39512 0.84033 0.05282 0.0
C2827 C 0.40949 0.84537 0.05191 0.0
C2828 C 0.37679 0.88917 0.04065 0.0
C2829 C 0.38632 0.86399 0.04558 0.0
C2830 C 0.36564 0.8994 0.04197 0.0
C2831 C 0.35204 0.89528 0.04754 0.0
C2832 C 0.37431 0.87472 0.04486 0.0
C2833 C 0.34982 0.8806 0.05099 0.0
C2834 C 0.38356 0.84955 0.04962 0.0
C2835 C 0.41184 0.8595 0.04665 0.0
N2836 N 0.36086 0.8709 0.04971 0.0
N2837 N 0.40036 0.86841 0.04392 0.0
H2838 H 0.37451 0.58758 0.3059 0.0
H2839 H 0.3869 0.67261 0.2959 0.0
H2840 H 0.34133 0.61684 0.29029 0.0
H2841 H 0.41986 0.64259 0.31045 0.0
H2842 H 0.37127 0.65198 0.28983 0.0
H2843 H 0.39226 0.60712 0.30398 0.0
C2844 C 0.37096 0.59809 0.30197 0.0
C2845 C 0.35633 0.60062 0.29849 0.0
C2846 C 0.38202 0.64992 0.29413 0.0
C2847 C 0.37666 0.62314 0.29631 0.0
C2848 C 0.39099 0.6617 0.29751 0.0
C2849 C 0.40462 0.65935 0.30395 0.0
C2850 C 0.38672 0.63572 0.29721 0.0
C2851 C 0.40934 0.64495 0.30576 0.0
C2852 C 0.38113 0.60925 0.30083 0.0
C2853 C 0.35246 0.61442 0.29322 0.0
N2854 N 0.40034 0.63372 0.30261 0.0
N2855 N 0.36252 0.62521 0.29249 0.0
H2856 H 0.60233 0.32788 0.44541 0.0
H2857 H 0.62965 0.40872 0.46062 0.0
H2858 H 0.57328 0.36372 0.45375 0.0
H2859 H 0.65701 0.37362 0.44579 0.0
H2860 H 0.60955 0.39153 0.46326 0.0
H2861 H 0.62289 0.34349 0.45116 0.0
C2862 C 0.60025 0.33898 0.44873 0.0
C2863 C 0.58605 0.34456 0.44885 0.0
C2864 C 0.62 0.38758 0.45959 0.0
C2865 C 0.60965 0.36261 0.45522 0.0
C2866 C 0.63151 0.39738 0.45809 0.0
C2867 C 0.64501 0.39266 0.45275 0.0
C2868 C 0.62203 0.37295 0.4558 0.0
C2869 C 0.64675 0.37782 0.44973 0.0
C2870 C 0.61202 0.34792 0.45195 0.0
C2871 C 0.58403 0.35897 0.45343 0.0
N2872 N 0.63538 0.36854 0.45119 0.0
N2873 N 0.59573 0.36759 0.45619 0.0
H2874 H 0.8888 0.8238 0.70532 0.0
H2875 H 0.8767 0.9091 0.69835 0.0
H2876 H 0.92287 0.85465 0.69597 0.0
H2877 H 0.84277 0.87938 0.71119 0.0
H2878 H 0.89435 0.88951 0.7006 0.0
H2879 H 0.87251 0.84405 0.711 0.0
C2880 C 0.89296 0.83479 0.70477 0.0
C2881 C 0.90716 0.83752 0.6999 0.0
C2882 C 0.88307 0.88727 0.70308 0.0
C2883 C 0.88853 0.86072 0.70619 0.0
C2884 C 0.87296 0.89847 0.70175 0.0
C2885 C 0.85818 0.89585 0.70437 0.0
C2886 C 0.87838 0.87325 0.70689 0.0
C2887 C 0.85404 0.88189 0.70895 0.0
C2888 C 0.88363 0.84636 0.70794 0.0
C2889 C 0.91194 0.85201 0.69942 0.0
N2890 N 0.86405 0.87106 0.70987 0.0
N2891 N 0.9026 0.86303 0.70231 0.0
H2892 H 0.33867 0.12709 0.94498 0.0
H2893 H 0.42392 0.13815 0.95426 0.0
H2894 H 0.36766 0.09303 0.95911 0.0
H2895 H 0.39402 0.17209 0.94188 0.0
H2896 H 0.40322 0.12249 0.96004 0.0
H2897 H 0.35841 0.14454 0.94741 0.0
C2898 C 0.34916 0.12328 0.94871 0.0
C2899 C 0.35155 0.1085 0.95161 0.0
C2900 C 0.40121 0.13346 0.9563 0.0
C2901 C 0.37432 0.12849 0.95435 0.0
C2902 C 0.41303 0.14245 0.95308 0.0
C2903 C 0.41072 0.15638 0.94732 0.0
C2904 C 0.387 0.13845 0.95371 0.0
C2905 C 0.39635 0.16134 0.94604 0.0
C2906 C 0.36045 0.13328 0.95013 0.0
C2907 C 0.36534 0.10429 0.95662 0.0
N2908 N 0.38507 0.15233 0.949 0.0
N2909 N 0.37626 0.11419 0.95764 0.0
H2910 H 0.15991 0.61845 0.21195 0.0
H2911 H 0.11339 0.67713 0.20145 0.0
H2912 H 0.12688 0.59406 0.18927 0.0
H2913 H 0.08092 0.64508 0.19062 0.0
H2914 H 0.1303 0.65765 0.20721 0.0
H2915 H 0.14292 0.63856 0.21454 0.0
C2916 C 0.14907 0.6173 0.20752 0.0
C2917 C 0.14496 0.6046 0.20011 0.0
C2918 C 0.11939 0.65477 0.20399 0.0
C2919 C 0.12544 0.62784 0.20271 0.0
C2920 C 0.10968 0.66599 0.20067 0.0
C2921 C 0.09576 0.66277 0.19534 0.0
C2922 C 0.11511 0.64022 0.202 0.0
C2923 C 0.0916 0.64811 0.19448 0.0
C2924 C 0.13936 0.6289 0.20889 0.0
C2925 C 0.13067 0.60369 0.19486 0.0
N2926 N 0.10129 0.63743 0.19756 0.0
N2927 N 0.12151 0.61517 0.19615 0.0
H2928 H 0.06165 0.60842 0.17202 0.0
H2929 H 0.03687 0.6324 0.09255 0.0
H2930 H 0.04598 0.57838 0.13958 0.0
H2931 H 0.05723 0.66097 0.1237 0.0
H2932 H 0.03567 0.61348 0.11112 0.0
H2933 H 0.05532 0.62856 0.1561 0.0
C2934 C 0.05666 0.60604 0.16163 0.0
C2935 C 0.05459 0.59163 0.15704 0.0
C2936 C 0.04025 0.62395 0.11392 0.0
C2937 C 0.04745 0.61475 0.13864 0.0
C2938 C 0.04093 0.63478 0.10333 0.0
C2939 C 0.04739 0.64826 0.10647 0.0
C2940 C 0.04603 0.62659 0.12778 0.0
C2941 C 0.05236 0.6507 0.12068 0.0
C2942 C 0.05308 0.61758 0.15252 0.0
C2943 C 0.04789 0.58928 0.14354 0.0
N2944 N 0.0517 0.63994 0.13075 0.0
N2945 N 0.04477 0.60072 0.13471 0.0
H2946 H 0.54532 0.42512 0.3628 0.0
H2947 H 0.55296 0.33994 0.37575 0.0
H2948 H 0.55755 0.39429 0.32964 0.0
H2949 H 0.53889 0.36985 0.40902 0.0
H2950 H 0.55119 0.35939 0.35789 0.0
H2951 H 0.53908 0.40485 0.37886 0.0
C2952 C 0.54637 0.41412 0.35876 0.0
C2953 C 0.55221 0.41142 0.34493 0.0
C2954 C 0.54834 0.3617 0.36907 0.0
C2955 C 0.5453 0.3882 0.36331 0.0
C2956 C 0.5494 0.35058 0.3793 0.0
C2957 C 0.5463 0.35331 0.39397 0.0
C2958 C 0.54431 0.37573 0.37352 0.0
C2959 C 0.54151 0.36727 0.39786 0.0
C2960 C 0.5429 0.40254 0.36798 0.0
C2961 C 0.55334 0.39692 0.3403 0.0
N2962 N 0.54085 0.37802 0.38773 0.0
N2963 N 0.55012 0.38589 0.34953 0.0
H2964 H 0.91587 0.80837 0.62735 0.0
H2965 H 0.83188 0.79435 0.61194 0.0
H2966 H 0.88688 0.78825 0.65826 0.0
H2967 H 0.86173 0.81251 0.58064 0.0
H2968 H 0.85248 0.78858 0.62771 0.0
H2969 H 0.89687 0.80678 0.60895 0.0
C2970 C 0.90556 0.8035 0.63025 0.0
C2971 C 0.90292 0.79866 0.64447 0.0
C2972 C 0.85452 0.79362 0.61728 0.0
C2973 C 0.88103 0.79686 0.62341 0.0
C2974 C 0.84276 0.79685 0.60823 0.0
C2975 C 0.84501 0.80416 0.59503 0.0
C2976 C 0.86862 0.79777 0.61313 0.0
C2977 C 0.85939 0.8071 0.59081 0.0
C2978 C 0.8947 0.80257 0.61971 0.0
C2979 C 0.88939 0.79226 0.6475 0.0
N2980 N 0.8706 0.80408 0.59991 0.0
N2981 N 0.8789 0.79173 0.63712 0.0
H2982 H 0.44549 0.16102 0.87506 0.0
H2983 H 0.45373 0.07585 0.86243 0.0
H2984 H 0.45897 0.13119 0.90866 0.0
H2985 H 0.44163 0.10653 0.82909 0.0
H2986 H 0.45969 0.09619 0.8785 0.0
H2987 H 0.44769 0.14156 0.85727 0.0
C2988 C 0.44902 0.1504 0.8787 0.0
C2989 C 0.45181 0.1477 0.89344 0.0
C2990 C 0.45597 0.09846 0.86758 0.0
C2991 C 0.4543 0.12526 0.87306 0.0
C2992 C 0.45265 0.08684 0.85835 0.0
C2993 C 0.44692 0.08947 0.84446 0.0
C2994 C 0.45352 0.11278 0.86286 0.0
C2995 C 0.44576 0.10395 0.83979 0.0
C2996 C 0.45032 0.13927 0.8685 0.0
C2997 C 0.45657 0.13375 0.89744 0.0
N2998 N 0.44882 0.11503 0.84902 0.0
N2999 N 0.45747 0.123 0.88734 0.0
H3000 H 0.67139 0.20508 0.11261 0.0
H3001 H 0.58669 0.19299 0.12562 0.0
H3002 H 0.6414 0.19028 0.07973 0.0
H3003 H 0.61592 0.20872 0.15877 0.0
H3004 H 0.60605 0.19551 0.10775 0.0
H3005 H 0.65077 0.21036 0.12855 0.0
C3006 C 0.66048 0.20324 0.10861 0.0
C3007 C 0.65816 0.19698 0.09489 0.0
C3008 C 0.60821 0.19855 0.1189 0.0
C3009 C 0.63454 0.20281 0.11314 0.0
C3010 C 0.59715 0.19708 0.12914 0.0
C3011 C 0.59973 0.20042 0.14379 0.0
C3012 C 0.62204 0.20328 0.12332 0.0
C3013 C 0.61346 0.20588 0.14763 0.0
C3014 C 0.64871 0.20618 0.11775 0.0
C3015 C 0.64376 0.19485 0.0903 0.0
N3016 N 0.62415 0.20696 0.1375 0.0
N3017 N 0.63254 0.19757 0.09946 0.0
H3018 H 0.95637 0.42441 0.13774 0.0
H3019 H 0.94591 0.33934 0.12646 0.0
H3020 H 0.94378 0.39458 0.17166 0.0
H3021 H 0.96063 0.36819 0.09253 0.0
H3022 H 0.94866 0.35899 0.14398 0.0
H3023 H 0.96194 0.40367 0.12204 0.0
C3024 C 0.95512 0.41353 0.14203 0.0
C3025 C 0.94935 0.41125 0.15596 0.0
C3026 C 0.95144 0.36101 0.13273 0.0
C3027 C 0.95547 0.38749 0.13799 0.0
C3028 C 0.94983 0.34977 0.12269 0.0
C3029 C 0.95281 0.35216 0.10793 0.0
C3030 C 0.95592 0.37482 0.128 0.0
C3031 C 0.95807 0.36588 0.10377 0.0
C3032 C 0.95821 0.40167 0.13302 0.0
C3033 C 0.94795 0.39688 0.16091 0.0
N3034 N 0.95927 0.37674 0.11372 0.0
N3035 N 0.95078 0.38558 0.15188 0.0
H3036 H 0.827 0.7042 0.88936 0.0
H3037 H 0.91183 0.69306 0.87668 0.0
H3038 H 0.85691 0.6895 0.92236 0.0
H3039 H 0.88291 0.71024 0.84399 0.0
H3040 H 0.89235 0.69498 0.89452 0.0
H3041 H 0.8477 0.71012 0.87374 0.0
C3042 C 0.8379 0.70253 0.89347 0.0
C3043 C 0.84019 0.6961 0.90711 0.0
C3044 C 0.89029 0.69849 0.88348 0.0
C3045 C 0.8639 0.70263 0.88921 0.0
C3046 C 0.90142 0.69736 0.87326 0.0
C3047 C 0.89897 0.70128 0.85873 0.0
C3048 C 0.87651 0.70344 0.87915 0.0
C3049 C 0.88529 0.70696 0.85503 0.0
C3050 C 0.84972 0.70583 0.8845 0.0
C3051 C 0.85458 0.69419 0.91183 0.0
N3052 N 0.87452 0.70769 0.86512 0.0
N3053 N 0.86585 0.69724 0.90284 0.0
H3054 H 0.14196 0.8079 0.42157 0.0
H3055 H 0.11647 0.78667 0.3415 0.0
H3056 H 0.17153 0.79453 0.38771 0.0
H3057 H 0.08877 0.80639 0.37382 0.0
H3058 H 0.13573 0.78467 0.35964 0.0
H3059 H 0.12158 0.80218 0.40572 0.0
C3060 C 0.14419 0.80352 0.41087 0.0
C3061 C 0.15852 0.80194 0.40588 0.0
C3062 C 0.12538 0.78928 0.36279 0.0
C3063 C 0.13512 0.79553 0.38757 0.0
C3064 C 0.11434 0.79042 0.35245 0.0
C3065 C 0.10101 0.79692 0.35606 0.0
C3066 C 0.12308 0.79463 0.37688 0.0
C3067 C 0.09891 0.80149 0.37045 0.0
C3068 C 0.13251 0.8003 0.4018 0.0
C3069 C 0.16068 0.79602 0.39199 0.0
N3070 N 0.10986 0.80037 0.38029 0.0
N3071 N 0.1491 0.79324 0.38322 0.0
H3072 H 0.1662 0.53882 0.19474 0.0
H3073 H 0.08605 0.55451 0.2131 0.0
H3074 H 0.15342 0.5656 0.23096 0.0
H3075 H 0.09911 0.51916 0.18531 0.0
H3076 H 0.11028 0.55483 0.22377 0.0
H3077 H 0.14227 0.52748 0.19491 0.0
C3078 C 0.15844 0.54201 0.20299 0.0
C3079 C 0.16163 0.55332 0.21267 0.0
C3080 C 0.10779 0.54671 0.21564 0.0
C3081 C 0.13411 0.54073 0.21271 0.0
C3082 C 0.09394 0.54653 0.20956 0.0
C3083 C 0.09073 0.53699 0.19815 0.0
C3084 C 0.11858 0.53754 0.20997 0.0
C3085 C 0.10123 0.52678 0.19401 0.0
C3086 C 0.14477 0.53554 0.20311 0.0
C3087 C 0.15131 0.557 0.22323 0.0
N3088 N 0.11485 0.52759 0.19965 0.0
N3089 N 0.13784 0.55098 0.22272 0.0
H3090 H 0.6967 0.3321 0.46173 0.0
H3091 H 0.71165 0.4134 0.44673 0.0
H3092 H 0.73244 0.34676 0.43526 0.0
H3093 H 0.68412 0.39891 0.48172 0.0
H3094 H 0.72302 0.38949 0.44602 0.0
H3095 H 0.69546 0.35606 0.47298 0.0
C3096 C 0.70456 0.34029 0.45859 0.0
C3097 C 0.71451 0.33759 0.4474 0.0
C3098 C 0.71478 0.3916 0.45415 0.0
C3099 C 0.71292 0.36512 0.4599 0.0
C3100 C 0.70829 0.40525 0.45454 0.0
C3101 C 0.69681 0.40799 0.46415 0.0
C3102 C 0.70945 0.3805 0.46315 0.0
C3103 C 0.6929 0.39717 0.4741 0.0
C3104 C 0.70385 0.35397 0.46501 0.0
C3105 C 0.72452 0.34846 0.44379 0.0
N3106 N 0.69896 0.38374 0.47309 0.0
N3107 N 0.72323 0.36191 0.44976 0.0
H3108 H 0.90199 0.98435 0.68741 0.0
H3109 H 0.85039 0.93371 0.73456 0.0
H3110 H 0.91636 0.94755 0.71258 0.0
H3111 H 0.83633 0.96094 0.69914 0.0
H3112 H 0.8743 0.94541 0.73366 0.0
H3113 H 0.87808 0.98251 0.69893 0.0
C3114 C 0.90027 0.97622 0.69574 0.0
C3115 C 0.91102 0.96591 0.69888 0.0
C3116 C 0.86583 0.9491 0.72637 0.0
C3117 C 0.88379 0.96366 0.71193 0.0
C3118 C 0.85218 0.9425 0.72694 0.0
C3119 C 0.84152 0.94624 0.71674 0.0
C3120 C 0.86871 0.95952 0.71559 0.0
C3121 C 0.84438 0.95762 0.70704 0.0
C3122 C 0.88661 0.97511 0.70223 0.0
C3123 C 0.90824 0.95556 0.70971 0.0
N3124 N 0.85779 0.96372 0.70655 0.0
N3125 N 0.8948 0.95453 0.71568 0.0
H3126 H 0.30227 0.16758 0.96267 0.0
H3127 H 0.28637 0.08695 0.94636 0.0
H3128 H 0.26595 0.15386 0.93649 0.0
H3129 H 0.31388 0.1004 0.98179 0.0
H3130 H 0.27515 0.11094 0.94622 0.0
H3131 H 0.30316 0.14351 0.97369 0.0
C3132 C 0.29419 0.1596 0.95958 0.0
C3133 C 0.2842 0.16258 0.94848 0.0
C3134 C 0.28335 0.10858 0.95432 0.0
C3135 C 0.2854 0.1349 0.9607 0.0
C3136 C 0.28975 0.09488 0.95438 0.0
C3137 C 0.30119 0.09183 0.96394 0.0
C3138 C 0.28873 0.11942 0.96361 0.0
C3139 C 0.30514 0.10238 0.97418 0.0
C3140 C 0.2947 0.14584 0.96586 0.0
C3141 C 0.27391 0.15194 0.94492 0.0
N3142 N 0.29917 0.11587 0.9735 0.0
N3143 N 0.27502 0.13842 0.95073 0.0
H3144 H 0.15266 0.43434 0.76824 0.0
H3145 H 0.09895 0.48345 0.81463 0.0
H3146 H 0.16564 0.46255 0.80331 0.0
H3147 H 0.08613 0.44613 0.78937 0.0
H3148 H 0.12308 0.48234 0.80346 0.0
H3149 H 0.12837 0.4452 0.76889 0.0
C3150 C 0.15055 0.44318 0.77571 0.0
C3151 C 0.16102 0.44743 0.78591 0.0
C3152 C 0.11485 0.47464 0.80008 0.0
C3153 C 0.13338 0.45973 0.7868 0.0
C3154 C 0.10107 0.47532 0.80639 0.0
C3155 C 0.09069 0.46468 0.80309 0.0
C3156 C 0.11815 0.46329 0.79041 0.0
C3157 C 0.09397 0.45437 0.79237 0.0
C3158 C 0.13668 0.4493 0.77615 0.0
C3159 C 0.15774 0.45885 0.79542 0.0
N3160 N 0.1075 0.45378 0.78657 0.0
N3161 N 0.14412 0.46447 0.7958 0.0
H3162 H 0.80138 0.33652 0.03912 0.0
H3163 H 0.81178 0.40539 0.01538 0.0
H3164 H 0.76636 0.35266 0.06567 0.0
H3165 H 0.79132 0.41611 0.05614 0.0
H3166 H 0.79991 0.38163 0.01602 0.0
H3167 H 0.80336 0.36017 0.02762 0.0
C3168 C 0.79375 0.34497 0.04215 0.0
C3169 C 0.7838 0.34273 0.05344 0.0
C3170 C 0.79793 0.38921 0.02478 0.0
C3171 C 0.78598 0.36997 0.04035 0.0
C3172 C 0.80455 0.40286 0.02431 0.0
C3173 C 0.80285 0.41253 0.03595 0.0
C3174 C 0.78973 0.38524 0.03705 0.0
C3175 C 0.7932 0.4088 0.04713 0.0
C3176 C 0.7948 0.3585 0.03549 0.0
C3177 C 0.77419 0.35398 0.057 0.0
N3178 N 0.78721 0.39534 0.04754 0.0
N3179 N 0.77579 0.36727 0.05075 0.0
H3180 H 0.91532 0.05425 0.2867 0.0
H3181 H 0.83495 0.03624 0.3019 0.0
H3182 H 0.90226 0.01753 0.31268 0.0
H3183 H 0.84822 0.06413 0.2667 0.0
H3184 H 0.85918 0.02554 0.30231 0.0
H3185 H 0.89135 0.05456 0.27544 0.0
C3186 C 0.9075 0.04599 0.28973 0.0
C3187 C 0.91062 0.03603 0.3008 0.0
C3188 C 0.85673 0.0337 0.29419 0.0
C3189 C 0.88308 0.03652 0.28826 0.0
C3190 C 0.84289 0.0398 0.29396 0.0
C3191 C 0.83972 0.05122 0.28442 0.0
C3192 C 0.86756 0.03938 0.28509 0.0
C3193 C 0.85029 0.0554 0.2743 0.0
C3194 C 0.89381 0.04616 0.28329 0.0
C3195 C 0.90021 0.02548 0.30426 0.0
N3196 N 0.8639 0.04975 0.27516 0.0
N3197 N 0.88673 0.02624 0.29828 0.0
H3198 H 0.23261 0.15085 0.56665 0.0
H3199 H 0.18512 0.09798 0.51761 0.0
H3200 H 0.19648 0.16419 0.54001 0.0
H3201 H 0.21247 0.08423 0.55306 0.0
H3202 H 0.19588 0.12228 0.51914 0.0
H3203 H 0.23185 0.12685 0.55513 0.0
C3204 C 0.22484 0.14887 0.55804 0.0
C3205 C 0.21442 0.15936 0.55442 0.0
C3206 C 0.19981 0.11382 0.52631 0.0
C3207 C 0.2134 0.13206 0.54134 0.0
C3208 C 0.19375 0.09994 0.52537 0.0
C3209 C 0.19777 0.08922 0.53541 0.0
C3210 C 0.20994 0.11689 0.53732 0.0
C3211 C 0.20894 0.09232 0.54529 0.0
C3212 C 0.22435 0.13517 0.55153 0.0
C3213 C 0.20455 0.15627 0.54324 0.0
N3214 N 0.21448 0.10594 0.54617 0.0
N3215 N 0.20412 0.14282 0.53725 0.0
H3216 H 0.18308 0.90026 0.4821 0.0
H3217 H 0.2309 0.84663 0.43437 0.0
H3218 H 0.2093 0.91299 0.44543 0.0
H3219 H 0.19522 0.83358 0.46177 0.0
H3220 H 0.23001 0.87088 0.44528 0.0
H3221 H 0.19447 0.8762 0.48149 0.0
C3222 C 0.19159 0.89815 0.47424 0.0
C3223 C 0.1951 0.90846 0.46362 0.0
C3224 C 0.22266 0.86257 0.4492 0.0
C3225 C 0.20802 0.88109 0.46279 0.0
C3226 C 0.22323 0.84872 0.44305 0.0
C3227 C 0.21293 0.83824 0.44702 0.0
C3228 C 0.21176 0.86585 0.45938 0.0
C3229 C 0.20319 0.84149 0.45826 0.0
C3230 C 0.19802 0.88441 0.47385 0.0
C3231 C 0.20614 0.9052 0.45365 0.0
N3232 N 0.20267 0.8551 0.46389 0.0
N3233 N 0.21205 0.89171 0.45332 0.0
H3234 H 0.33625 0.46304 0.69657 0.0
H3235 H 0.41717 0.44672 0.71182 0.0
H3236 H 0.35028 0.43657 0.73257 0.0
H3237 H 0.40336 0.48193 0.68422 0.0
H3238 H 0.39325 0.4465 0.72319 0.0
H3239 H 0.36039 0.47387 0.69537 0.0
C3240 C 0.34434 0.45981 0.70449 0.0
C3241 C 0.3414 0.44875 0.71452 0.0
C3242 C 0.39552 0.45456 0.71494 0.0
C3243 C 0.36914 0.46077 0.71298 0.0
C3244 C 0.40919 0.45469 0.70846 0.0
C3245 C 0.4121 0.4642 0.69694 0.0
C3246 C 0.38459 0.46375 0.70957 0.0
C3247 C 0.40148 0.47437 0.69302 0.0
C3248 C 0.35813 0.46599 0.70381 0.0
C3249 C 0.35217 0.44501 0.7246 0.0
N3250 N 0.38803 0.47362 0.69907 0.0
N3251 N 0.36572 0.45074 0.72333 0.0
H3252 H 0.78865 0.58241 0.94506 0.0
H3253 H 0.80319 0.66329 0.96285 0.0
H3254 H 0.81404 0.59599 0.982 0.0
H3255 H 0.76882 0.6497 0.93411 0.0
H3256 H 0.80374 0.639 0.97339 0.0
H3257 H 0.77752 0.60644 0.94414 0.0
C3258 C 0.79156 0.59035 0.95324 0.0
C3259 C 0.80245 0.58733 0.96345 0.0
C3260 C 0.79579 0.64138 0.96506 0.0
C3261 C 0.79007 0.61496 0.96225 0.0
C3262 C 0.79547 0.65526 0.95905 0.0
C3263 C 0.78609 0.65839 0.94749 0.0
C3264 C 0.78692 0.63045 0.95917 0.0
C3265 C 0.77626 0.64767 0.94299 0.0
C3266 C 0.78522 0.60408 0.95271 0.0
C3267 C 0.80577 0.59793 0.97387 0.0
N3268 N 0.77719 0.63403 0.94858 0.0
N3269 N 0.79988 0.61142 0.97277 0.0
H3270 H 0.59931 0.01625 0.18384 0.0
H3271 H 0.65212 0.06407 0.23243 0.0
H3272 H 0.58582 0.05169 0.21133 0.0
H3273 H 0.66535 0.03854 0.19544 0.0
H3274 H 0.62823 0.05237 0.23157 0.0
H3275 H 0.62347 0.01722 0.19496 0.0
C3276 C 0.60128 0.02388 0.19257 0.0
C3277 C 0.59072 0.0341 0.19652 0.0
C3278 C 0.63652 0.04904 0.22391 0.0
C3279 C 0.6182 0.03534 0.20913 0.0
C3280 C 0.65016 0.05565 0.22445 0.0
C3281 C 0.66056 0.05244 0.2138 0.0
C3282 C 0.63338 0.03917 0.2127 0.0
C3283 C 0.65749 0.04148 0.20368 0.0
C3284 C 0.61508 0.02449 0.19885 0.0
C3285 C 0.59381 0.0438 0.20784 0.0
N3286 N 0.64408 0.0354 0.20322 0.0
N3287 N 0.60736 0.04435 0.2136 0.0
H3288 H 0.56252 0.23146 0.15285 0.0
H3289 H 0.51677 0.18357 0.09753 0.0
H3290 H 0.5362 0.19458 0.16476 0.0
H3291 H 0.5532 0.21061 0.08588 0.0
H3292 H 0.51688 0.1944 0.12183 0.0
H3293 H 0.55206 0.23065 0.1284 0.0
C3294 C 0.55417 0.22351 0.15047 0.0
C3295 C 0.55039 0.21288 0.16069 0.0
C3296 C 0.52458 0.19825 0.11381 0.0
C3297 C 0.53853 0.21184 0.13286 0.0
C3298 C 0.52447 0.19213 0.09993 0.0
C3299 C 0.53517 0.19604 0.08984 0.0
C3300 C 0.53542 0.20835 0.1175 0.0
C3301 C 0.54492 0.20715 0.09349 0.0
C3302 C 0.54828 0.22301 0.1365 0.0
C3303 C 0.53956 0.20281 0.15706 0.0
N3304 N 0.54497 0.21277 0.10711 0.0
N3305 N 0.53417 0.20238 0.14335 0.0
H3306 H 0.05063 0.78803 0.4138 0.0
H3307 H 0.03716 0.80334 0.33208 0.0
H3308 H 0.01571 0.81542 0.39887 0.0
H3309 H 0.0628 0.76709 0.34697 0.0
H3310 H 0.02587 0.80493 0.356 0.0
H3311 H 0.05212 0.77711 0.3897 0.0
C3312 C 0.04301 0.79145 0.40552 0.0
C3313 C 0.03316 0.80274 0.40823 0.0
C3314 C 0.03367 0.79636 0.35397 0.0
C3315 C 0.03504 0.7906 0.38052 0.0
C3316 C 0.0401 0.79544 0.3403 0.0
C3317 C 0.05105 0.78521 0.33765 0.0
C3318 C 0.0385 0.78719 0.36516 0.0
C3319 C 0.05443 0.77519 0.34861 0.0
C3320 C 0.04385 0.78522 0.39175 0.0
C3321 C 0.02349 0.80676 0.39718 0.0
N3322 N 0.04844 0.77666 0.36202 0.0
N3323 N 0.02491 0.80095 0.38367 0.0
H3324 H 0.43339 0.26681 0.65129 0.0
H3325 H 0.47907 0.31368 0.59518 0.0
H3326 H 0.46097 0.30294 0.66262 0.0
H3327 H 0.44199 0.28723 0.58421 0.0
H3328 H 0.47938 0.30266 0.6194 0.0
H3329 H 0.4435 0.26719 0.62669 0.0
C3330 C 0.44194 0.27449 0.64875 0.0
C3331 C 0.44618 0.28506 0.65885 0.0
C3332 C 0.47144 0.29898 0.61154 0.0
C3333 C 0.45764 0.28562 0.63084 0.0
C3334 C 0.47131 0.3052 0.5977 0.0
C3335 C 0.4603 0.30153 0.58785 0.0
C3336 C 0.46053 0.28904 0.61542 0.0
C3337 C 0.4505 0.29051 0.59164 0.0
C3338 C 0.44764 0.27475 0.63469 0.0
C3339 C 0.45725 0.29477 0.65501 0.0
N3340 N 0.45068 0.28481 0.60523 0.0
N3341 N 0.46244 0.29499 0.64122 0.0
H3342 H 0.96295 0.69648 0.83495 0.0
H3343 H 0.94748 0.71189 0.91605 0.0
H3344 H 0.93608 0.73211 0.84914 0.0
H3345 H 0.98295 0.68482 0.90185 0.0
H3346 H 0.94672 0.72313 0.89207 0.0
H3347 H 0.9741 0.69559 0.85896 0.0
C3348 C 0.95971 0.7044 0.84303 0.0
C3349 C 0.94844 0.71423 0.84018 0.0
C3350 C 0.95496 0.71503 0.89427 0.0
C3351 C 0.96083 0.71303 0.86779 0.0
C3352 C 0.9554 0.70863 0.90798 0.0
C3353 C 0.96513 0.69727 0.91081 0.0
C3354 C 0.96407 0.70975 0.88323 0.0
C3355 C 0.97521 0.69349 0.90005 0.0
C3356 C 0.96607 0.70389 0.85676 0.0
C3357 C 0.94468 0.7243 0.85095 0.0
N3358 N 0.97417 0.69945 0.88658 0.0
N3359 N 0.9506 0.7232 0.86443 0.0
H3360 H 0.03713 0.695 0.16382 0.0
H3361 H 0.05161 0.7111 0.08262 0.0
H3362 H 0.062 0.73216 0.14988 0.0
H3363 H 0.01599 0.68414 0.09667 0.0
H3364 H 0.05276 0.72183 0.10684 0.0
H3365 H 0.02626 0.69349 0.13969 0.0
C3366 C 0.03998 0.7031 0.15577 0.0
C3367 C 0.0506 0.71359 0.15875 0.0
C3368 C 0.04441 0.71387 0.10455 0.0
C3369 C 0.03852 0.71173 0.13102 0.0
C3370 C 0.04375 0.70776 0.09072 0.0
C3371 C 0.03383 0.69661 0.08773 0.0
C3372 C 0.03531 0.70851 0.11556 0.0
C3373 C 0.02386 0.69267 0.09855 0.0
C3374 C 0.03378 0.70224 0.14198 0.0
C3375 C 0.05389 0.72385 0.14799 0.0
N3376 N 0.02509 0.69836 0.11213 0.0
N3377 N 0.04815 0.72244 0.13446 0.0
H3378 H 0.44534 0.78884 0.08378 0.0
H3379 H 0.46174 0.80372 0.1648 0.0
H3380 H 0.48092 0.81599 0.09756 0.0
H3381 H 0.43565 0.76746 0.15073 0.0
H3382 H 0.47235 0.80523 0.14057 0.0
H3383 H 0.4449 0.77757 0.10775 0.0
C3384 C 0.45333 0.79213 0.09177 0.0
C3385 C 0.46303 0.80348 0.08882 0.0
C3386 C 0.46461 0.79667 0.14284 0.0
C3387 C 0.46236 0.79096 0.11637 0.0
C3388 C 0.45856 0.79581 0.15669 0.0
C3389 C 0.44767 0.78561 0.15965 0.0
C3390 C 0.45944 0.78749 0.13182 0.0
C3391 C 0.44397 0.77556 0.14883 0.0
C3392 C 0.45309 0.78571 0.10546 0.0
C3393 C 0.47321 0.80732 0.09946 0.0
N3394 N 0.44958 0.77698 0.13525 0.0
N3395 N 0.47237 0.80132 0.11293 0.0
H3396 H 0.4348 0.23237 0.84742 0.0
H3397 H 0.48233 0.18448 0.90133 0.0
H3398 H 0.46026 0.19512 0.83482 0.0
H3399 H 0.44679 0.21208 0.91432 0.0
H3400 H 0.4812 0.19502 0.87692 0.0
H3401 H 0.44609 0.23155 0.87151 0.0
C3402 C 0.44311 0.22432 0.84957 0.0
C3403 C 0.44644 0.21362 0.83927 0.0
C3404 C 0.47393 0.19905 0.88524 0.0
C3405 C 0.45926 0.21258 0.86668 0.0
C3406 C 0.47464 0.19312 0.89918 0.0
C3407 C 0.46447 0.19728 0.90972 0.0
C3408 C 0.46303 0.20922 0.88193 0.0
C3409 C 0.45467 0.20845 0.90638 0.0
C3410 C 0.44948 0.22381 0.86333 0.0
C3411 C 0.45724 0.20341 0.84259 0.0
N3412 N 0.45404 0.21389 0.8927 0.0
N3413 N 0.46312 0.20299 0.85611 0.0
H3414 H 0.53792 0.30487 0.33448 0.0
H3415 H 0.55055 0.28847 0.41598 0.0
H3416 H 0.56367 0.2686 0.34913 0.0
H3417 H 0.51599 0.31626 0.40093 0.0
H3418 H 0.55204 0.27759 0.39188 0.0
H3419 H 0.52623 0.30593 0.35822 0.0
C3420 C 0.54082 0.29688 0.34262 0.0
C3421 C 0.5519 0.28678 0.33998 0.0
C3422 C 0.54384 0.28577 0.3939 0.0
C3423 C 0.53888 0.28814 0.36728 0.0
C3424 C 0.54299 0.29198 0.40767 0.0
C3425 C 0.53329 0.3034 0.41033 0.0
C3426 C 0.53519 0.29132 0.38263 0.0
C3427 C 0.52368 0.30751 0.39927 0.0
C3428 C 0.53415 0.29747 0.35618 0.0
C3429 C 0.55522 0.27661 0.3508 0.0
N3430 N 0.52512 0.30173 0.38576 0.0
N3431 N 0.54899 0.27778 0.36413 0.0
H3432 H 0.16464 0.03803 0.69835 0.0
H3433 H 0.09582 0.01439 0.68799 0.0
H3434 H 0.14864 0.06441 0.73356 0.0
H3435 H 0.08528 0.05509 0.70866 0.0
H3436 H 0.11956 0.01482 0.69994 0.0
H3437 H 0.14105 0.0264 0.69652 0.0
C3438 C 0.15625 0.04099 0.70605 0.0
C3439 C 0.15849 0.05228 0.71599 0.0
C3440 C 0.11202 0.0236 0.70196 0.0
C3441 C 0.13131 0.03906 0.71399 0.0
C3442 C 0.09838 0.02325 0.69529 0.0
C3443 C 0.08879 0.03495 0.69703 0.0
C3444 C 0.11602 0.03581 0.71024 0.0
C3445 C 0.09255 0.04604 0.70676 0.0
C3446 C 0.14274 0.03425 0.70509 0.0
C3447 C 0.14731 0.05575 0.72571 0.0
N3448 N 0.10598 0.04634 0.71279 0.0
N3449 N 0.13404 0.04944 0.72419 0.0
H3450 H 0.69575 0.83439 0.9625 0.0
H3451 H 0.71183 0.91509 0.94526 0.0
H3452 H 0.73155 0.84768 0.93539 0.0
H3453 H 0.68489 0.90198 0.98124 0.0
H3454 H 0.72264 0.89091 0.94479 0.0
H3455 H 0.69493 0.85871 0.97299 0.0
C3456 C 0.70371 0.84236 0.95906 0.0
C3457 C 0.71358 0.83915 0.94792 0.0
C3458 C 0.71466 0.89338 0.95307 0.0
C3459 C 0.71246 0.86709 0.95956 0.0
C3460 C 0.70849 0.9072 0.95333 0.0
C3461 C 0.69733 0.91041 0.96316 0.0
C3462 C 0.70933 0.88261 0.96246 0.0
C3463 C 0.69342 0.89988 0.97343 0.0
C3464 C 0.70324 0.85625 0.96504 0.0
C3465 C 0.72371 0.84977 0.9439 0.0
N3466 N 0.69916 0.8863 0.97258 0.0
N3467 N 0.72265 0.86341 0.94945 0.0
H3468 H 0.83622 0.46412 0.19704 0.0
H3469 H 0.91718 0.44729 0.2121 0.0
H3470 H 0.85019 0.43703 0.23259 0.0
H3471 H 0.90348 0.48282 0.18485 0.0
H3472 H 0.89321 0.44691 0.22335 0.0
H3473 H 0.86043 0.47481 0.19592 0.0
C3474 C 0.84431 0.46073 0.20488 0.0
C3475 C 0.84133 0.44954 0.21476 0.0
C3476 C 0.89551 0.45507 0.2152 0.0
C3477 C 0.86915 0.46139 0.2133 0.0
C3478 C 0.9092 0.45528 0.20877 0.0
C3479 C 0.91217 0.46494 0.1974 0.0
C3480 C 0.88461 0.46434 0.20991 0.0
C3481 C 0.90155 0.47513 0.19354 0.0
C3482 C 0.85815 0.46682 0.20424 0.0
C3483 C 0.85211 0.44558 0.22475 0.0
N3484 N 0.88808 0.47433 0.19953 0.0
N3485 N 0.86569 0.45124 0.22352 0.0
H3486 H 0.30071 0.66305 0.46215 0.0
H3487 H 0.28876 0.58144 0.44607 0.0
H3488 H 0.26669 0.64779 0.43383 0.0
H3489 H 0.31353 0.59651 0.48285 0.0
H3490 H 0.27689 0.60508 0.44463 0.0
H3491 H 0.30202 0.63901 0.47322 0.0
C3492 C 0.29322 0.6547 0.45857 0.0
C3493 C 0.28371 0.65729 0.44697 0.0
C3494 C 0.28461 0.60314 0.45329 0.0
C3495 C 0.28543 0.62965 0.45924 0.0
C3496 C 0.29138 0.58962 0.45411 0.0
C3497 C 0.30229 0.58714 0.46443 0.0
C3498 C 0.28906 0.61433 0.46264 0.0
C3499 C 0.30524 0.59804 0.47465 0.0
C3500 C 0.29397 0.64097 0.46487 0.0
C3501 C 0.27421 0.64619 0.44273 0.0
N3502 N 0.29893 0.61131 0.47326 0.0
N3503 N 0.27556 0.63271 0.44862 0.0
H3504 H 0.09713 0.98198 0.31299 0.0
H3505 H 0.15176 0.93393 0.26665 0.0
H3506 H 0.08484 0.94527 0.28661 0.0
H3507 H 0.16384 0.96077 0.30309 0.0
H3508 H 0.12756 0.945 0.2669 0.0
H3509 H 0.12146 0.98115 0.30227 0.0
C3510 C 0.0994 0.97407 0.30458 0.0
C3511 C 0.08912 0.96348 0.30086 0.0
C3512 C 0.13566 0.94876 0.27456 0.0
C3513 C 0.11681 0.96242 0.28869 0.0
C3514 C 0.14948 0.9425 0.27437 0.0
C3515 C 0.15965 0.94628 0.28505 0.0
C3516 C 0.13212 0.95885 0.28545 0.0
C3517 C 0.15616 0.95741 0.29484 0.0
C3518 C 0.1133 0.97355 0.29853 0.0
C3519 C 0.0926 0.95346 0.28994 0.0
N3520 N 0.14259 0.96315 0.29496 0.0
N3521 N 0.10624 0.95301 0.2844 0.0
H3522 H 0.77072 0.84648 0.56638 0.0
H3523 H 0.81554 0.90269 0.51879 0.0
H3524 H 0.80761 0.83569 0.53961 0.0
H3525 H 0.78814 0.91411 0.55503 0.0
H3526 H 0.80564 0.87802 0.51946 0.0
H3527 H 0.77018 0.87069 0.55534 0.0
C3528 C 0.77839 0.84904 0.55783 0.0
C3529 C 0.78941 0.83924 0.55406 0.0
C3530 C 0.8015 0.88606 0.52699 0.0
C3531 C 0.78891 0.86679 0.54153 0.0
C3532 C 0.80708 0.90015 0.52656 0.0
C3533 C 0.80284 0.91031 0.53707 0.0
C3534 C 0.79163 0.88221 0.53798 0.0
C3535 C 0.79187 0.90647 0.5469 0.0
C3536 C 0.77813 0.86287 0.5516 0.0
C3537 C 0.7991 0.84308 0.54297 0.0
N3538 N 0.78681 0.89263 0.5473 0.0
N3539 N 0.79878 0.85665 0.53725 0.0
H3540 H 0.84688 0.56443 0.76539 0.0
H3541 H 0.90128 0.51832 0.81402 0.0
H3542 H 0.83444 0.53918 0.80284 0.0
H3543 H 0.91372 0.55363 0.78587 0.0
H3544 H 0.87687 0.51886 0.80341 0.0
H3545 H 0.87103 0.55333 0.76631 0.0
C3546 C 0.84907 0.55619 0.7735 0.0
C3547 C 0.8388 0.5529 0.78424 0.0
C3548 C 0.88508 0.5262 0.79927 0.0
C3549 C 0.86632 0.54032 0.78542 0.0
C3550 C 0.89902 0.52583 0.80525 0.0
C3551 C 0.90939 0.53611 0.80094 0.0
C3552 C 0.88161 0.53686 0.7889 0.0
C3553 C 0.90591 0.54567 0.78962 0.0
C3554 C 0.86287 0.54993 0.77407 0.0
C3555 C 0.84218 0.54217 0.79451 0.0
N3556 N 0.89224 0.54597 0.78413 0.0
N3557 N 0.85575 0.53644 0.79501 0.0
H3558 H 0.19479 0.66602 0.0352 0.0
H3559 H 0.21193 0.58551 0.05237 0.0
H3560 H 0.23045 0.65297 0.0626 0.0
H3561 H 0.18397 0.59846 0.01711 0.0
H3562 H 0.22267 0.60972 0.0525 0.0
H3563 H 0.19438 0.64178 0.02452 0.0
C3564 C 0.20282 0.65813 0.03866 0.0
C3565 C 0.2125 0.66136 0.04995 0.0
C3566 C 0.21447 0.60721 0.04445 0.0
C3567 C 0.21185 0.63351 0.0381 0.0
C3568 C 0.20835 0.59338 0.04437 0.0
C3569 C 0.19691 0.59012 0.03488 0.0
C3570 C 0.20882 0.61796 0.03521 0.0
C3571 C 0.19271 0.6006 0.02467 0.0
C3572 C 0.20258 0.64428 0.03257 0.0
C3573 C 0.22274 0.65085 0.05398 0.0
N3574 N 0.19841 0.61421 0.02536 0.0
N3575 N 0.2219 0.63724 0.04833 0.0
H3576 H 0.19662 0.33199 0.962 0.0
H3577 H 0.18725 0.40149 0.98504 0.0
H3578 H 0.23304 0.34719 0.93681 0.0
H3579 H 0.20937 0.41112 0.94488 0.0
H3580 H 0.19828 0.37728 0.98496 0.0
H3581 H 0.19484 0.35571 0.97344 0.0
C3582 C 0.2046 0.34021 0.95929 0.0
C3583 C 0.21486 0.33773 0.94833 0.0
C3584 C 0.20081 0.38472 0.97623 0.0
C3585 C 0.21291 0.36503 0.96132 0.0
C3586 C 0.19466 0.39861 0.97637 0.0
C3587 C 0.19712 0.40813 0.96474 0.0
C3588 C 0.20935 0.38041 0.9643 0.0
C3589 C 0.20693 0.40395 0.95388 0.0
C3590 C 0.20365 0.35379 0.96591 0.0
C3591 C 0.22493 0.3487 0.94519 0.0
N3592 N 0.21251 0.39031 0.9538 0.0
N3593 N 0.22343 0.36203 0.95135 0.0
H3594 H 0.40039 0.98408 0.18412 0.0
H3595 H 0.34869 0.93578 0.23337 0.0
H3596 H 0.41442 0.9484 0.21102 0.0
H3597 H 0.33478 0.96138 0.19669 0.0
H3598 H 0.37246 0.94772 0.23229 0.0
H3599 H 0.3765 0.98311 0.19584 0.0
C3600 C 0.3986 0.9764 0.19286 0.0
C3601 C 0.40921 0.96611 0.19646 0.0
C3602 C 0.36405 0.95102 0.22476 0.0
C3603 C 0.38206 0.96487 0.20974 0.0
C3604 C 0.35047 0.94427 0.22542 0.0
C3605 C 0.33994 0.94743 0.21491 0.0
C3606 C 0.36696 0.96098 0.21355 0.0
C3607 C 0.34277 0.95848 0.20482 0.0
C3608 C 0.38496 0.97579 0.19947 0.0
C3609 C 0.40638 0.95635 0.20779 0.0
N3610 N 0.35611 0.9647 0.20423 0.0
N3611 N 0.39297 0.95579 0.21388 0.0
H3612 H 0.80495 0.16385 0.46168 0.0
H3613 H 0.78886 0.0833 0.44462 0.0
H3614 H 0.76944 0.15061 0.43418 0.0
H3615 H 0.81526 0.0965 0.48098 0.0
H3616 H 0.77796 0.10743 0.44402 0.0
H3617 H 0.80536 0.13966 0.47248 0.0
C3618 C 0.79695 0.15593 0.45823 0.0
C3619 C 0.7873 0.15909 0.4469 0.0
C3620 C 0.78583 0.10498 0.45241 0.0
C3621 C 0.78796 0.13129 0.45886 0.0
C3622 C 0.79206 0.0912 0.45274 0.0
C3623 C 0.80313 0.08804 0.4627 0.0
C3624 C 0.79101 0.11577 0.46187 0.0
C3625 C 0.80682 0.09857 0.47306 0.0
C3626 C 0.79719 0.14211 0.46438 0.0
C3627 C 0.77711 0.14854 0.44285 0.0
N3628 N 0.80104 0.11212 0.47213 0.0
N3629 N 0.77796 0.13495 0.44856 0.0
H3630 H 0.60086 0.51595 0.68239 0.0
H3631 H 0.65474 0.56162 0.73205 0.0
H3632 H 0.58811 0.55093 0.71081 0.0
H3633 H 0.66741 0.53794 0.69366 0.0
H3634 H 0.63076 0.55022 0.73081 0.0
H3635 H 0.62527 0.51662 0.69302 0.0
C3636 C 0.60305 0.52341 0.69122 0.0
C3637 C 0.59259 0.53357 0.69561 0.0
C3638 C 0.63894 0.54722 0.7229 0.0
C3639 C 0.62034 0.53443 0.70768 0.0
C3640 C 0.65265 0.55365 0.72365 0.0
C3641 C 0.66293 0.55091 0.71276 0.0
C3642 C 0.6356 0.53797 0.71123 0.0
C3643 C 0.65966 0.54051 0.70212 0.0
C3644 C 0.61699 0.52385 0.69721 0.0
C3645 C 0.59598 0.54307 0.70701 0.0
N3646 N 0.64618 0.53458 0.70147 0.0
N3647 N 0.60965 0.54342 0.71252 0.0
H3648 H 0.51575 0.6887 0.59655 0.0
H3649 H 0.53833 0.69722 0.66568 0.0
H3650 H 0.5569 0.70899 0.58706 0.0
H3651 H 0.56647 0.73151 0.65078 0.0
H3652 H 0.52658 0.69675 0.64211 0.0
H3653 H 0.51585 0.7004 0.62042 0.0
C3654 C 0.52467 0.69583 0.5994 0.0
C3655 C 0.53658 0.69752 0.59006 0.0
C3656 C 0.53486 0.70486 0.64403 0.0
C3657 C 0.53707 0.71042 0.61745 0.0
C3658 C 0.54164 0.70505 0.65754 0.0
C3659 C 0.55347 0.71427 0.66004 0.0
C3660 C 0.54018 0.71379 0.63285 0.0
C3661 C 0.55739 0.7242 0.64921 0.0
C3662 C 0.52482 0.70237 0.6131 0.0
C3663 C 0.5477 0.70708 0.59414 0.0
N3664 N 0.55103 0.72341 0.6359 0.0
N3665 N 0.54782 0.71295 0.60764 0.0
H3666 H 0.0161 0.3168 0.90074 0.0
H3667 H 0.0637 0.26819 0.84764 0.0
H3668 H 0.05116 0.2888 0.91418 0.0
H3669 H 0.03868 0.30559 0.83461 0.0
H3670 H 0.05201 0.26907 0.87153 0.0
H3671 H 0.01721 0.30601 0.87642 0.0
C3672 C 0.02367 0.30802 0.89871 0.0
C3673 C 0.03373 0.30382 0.90932 0.0
C3674 C 0.04879 0.27683 0.86329 0.0
C3675 C 0.03515 0.2916 0.88167 0.0
C3676 C 0.0554 0.27628 0.84965 0.0
C3677 C 0.05232 0.28701 0.8393 0.0
C3678 C 0.03904 0.28814 0.86648 0.0
C3679 C 0.04152 0.29728 0.84243 0.0
C3680 C 0.02436 0.30194 0.88483 0.0
C3681 C 0.04337 0.29247 0.90616 0.0
N3682 N 0.03542 0.29774 0.85584 0.0
N3683 N 0.044 0.2869 0.89254 0.0
H3684 H 0.96261 0.19418 0.33354 0.0
H3685 H 0.94596 0.21163 0.41395 0.0
H3686 H 0.9361 0.2306 0.34634 0.0
H3687 H 0.98191 0.18449 0.40112 0.0
H3688 H 0.94547 0.22213 0.38963 0.0
H3689 H 0.97327 0.19368 0.3578 0.0
C3690 C 0.95934 0.20233 0.34137 0.0
C3691 C 0.94831 0.21228 0.33806 0.0
C3692 C 0.95375 0.21418 0.3922 0.0
C3693 C 0.96015 0.21157 0.36592 0.0
C3694 C 0.95402 0.20819 0.40609 0.0
C3695 C 0.96384 0.19704 0.40942 0.0
C3696 C 0.96311 0.20868 0.38148 0.0
C3697 C 0.97411 0.19301 0.39893 0.0
C3698 C 0.96542 0.20206 0.35523 0.0
C3699 C 0.94451 0.22268 0.34852 0.0
N3700 N 0.97323 0.19857 0.38528 0.0
N3701 N 0.95016 0.22182 0.36213 0.0
H3702 H 0.03649 0.19642 0.66387 0.0
H3703 H 0.05427 0.21182 0.58321 0.0
H3704 H 0.06405 0.23181 0.65044 0.0
H3705 H 0.01834 0.18485 0.5964 0.0
H3706 H 0.05449 0.22296 0.60724 0.0
H3707 H 0.02601 0.1956 0.63956 0.0
C3708 C 0.04003 0.20429 0.65587 0.0
C3709 C 0.05129 0.21403 0.65904 0.0
C3710 C 0.04628 0.2149 0.60481 0.0
C3711 C 0.03968 0.21291 0.6311 0.0
C3712 C 0.04616 0.20854 0.59108 0.0
C3713 C 0.03643 0.19726 0.58796 0.0
C3714 C 0.03685 0.20964 0.61559 0.0
C3715 C 0.02608 0.19346 0.59844 0.0
C3716 C 0.03405 0.20383 0.64198 0.0
C3717 C 0.05544 0.22407 0.64838 0.0
N3718 N 0.0268 0.19938 0.61195 0.0
N3719 N 0.0499 0.223 0.63473 0.0
H3720 H 0.43345 0.73227 0.34863 0.0
H3721 H 0.48145 0.68598 0.40337 0.0
H3722 H 0.45991 0.6955 0.33674 0.0
H3723 H 0.44543 0.71322 0.41579 0.0
H3724 H 0.4805 0.69639 0.37891 0.0
H3725 H 0.44469 0.73216 0.37277 0.0
C3726 C 0.44197 0.72449 0.35095 0.0
C3727 C 0.4456 0.7137 0.34084 0.0
C3728 C 0.47309 0.70039 0.38712 0.0
C3729 C 0.45836 0.71345 0.3683 0.0
C3730 C 0.47369 0.69452 0.4011 0.0
C3731 C 0.46331 0.69858 0.41147 0.0
C3732 C 0.46208 0.71037 0.38362 0.0
C3733 C 0.45346 0.70965 0.40797 0.0
C3734 C 0.44832 0.72438 0.36473 0.0
C3735 C 0.45666 0.70384 0.34436 0.0
N3736 N 0.45291 0.715 0.39425 0.0
N3737 N 0.4625 0.7038 0.35789 0.0
H3738 H 0.53839 0.80176 0.8342 0.0
H3739 H 0.55377 0.78806 0.91569 0.0
H3740 H 0.56537 0.76654 0.84919 0.0
H3741 H 0.51827 0.81478 0.90091 0.0
H3742 H 0.55469 0.77645 0.89189 0.0
H3743 H 0.52727 0.80321 0.8582 0.0
C3744 C 0.54167 0.79406 0.84248 0.0
C3745 C 0.55295 0.78418 0.83984 0.0
C3746 C 0.54642 0.78456 0.89392 0.0
C3747 C 0.54059 0.78601 0.86742 0.0
C3748 C 0.5459 0.79118 0.90751 0.0
C3749 C 0.53608 0.80251 0.91013 0.0
C3750 C 0.53732 0.78961 0.88277 0.0
C3751 C 0.52606 0.80613 0.89927 0.0
C3752 C 0.53533 0.79488 0.85619 0.0
C3753 C 0.55676 0.77438 0.85084 0.0
N3754 N 0.52718 0.79995 0.8859 0.0
N3755 N 0.55084 0.77578 0.8643 0.0
H3756 H 0.58494 0.4457 0.28817 0.0
H3757 H 0.66571 0.46186 0.3037 0.0
H3758 H 0.59869 0.48206 0.31428 0.0
H3759 H 0.65198 0.43455 0.26823 0.0
H3760 H 0.64167 0.47295 0.30422 0.0
H3761 H 0.60898 0.44481 0.27709 0.0
C3762 C 0.59294 0.45376 0.29127 0.0
C3763 C 0.58997 0.4638 0.30231 0.0
C3764 C 0.64398 0.46483 0.29604 0.0
C3765 C 0.61759 0.46264 0.28999 0.0
C3766 C 0.65772 0.45851 0.29574 0.0
C3767 C 0.6607 0.44715 0.28607 0.0
C3768 C 0.63305 0.45945 0.28685 0.0
C3769 C 0.65005 0.44323 0.27592 0.0
C3770 C 0.60667 0.45326 0.28494 0.0
C3771 C 0.60061 0.47408 0.30587 0.0
N3772 N 0.63654 0.44911 0.27683 0.0
N3773 N 0.61411 0.47299 0.3 0.0
H3774 H 0.30106 0.33721 0.53901 0.0
H3775 H 0.2863 0.4182 0.55594 0.0
H3776 H 0.26659 0.35085 0.56761 0.0
H3777 H 0.31094 0.40435 0.51859 0.0
H3778 H 0.27536 0.39409 0.55738 0.0
H3779 H 0.30148 0.36143 0.52828 0.0
C3780 C 0.2933 0.34523 0.54274 0.0
C3781 C 0.28391 0.34214 0.5543 0.0
C3782 C 0.28284 0.39641 0.54861 0.0
C3783 C 0.28458 0.36998 0.5424 0.0
C3784 C 0.28907 0.41019 0.54777 0.0
C3785 C 0.29971 0.41316 0.5373 0.0
C3786 C 0.28756 0.38546 0.53909 0.0
C3787 C 0.30286 0.40246 0.52692 0.0
C3788 C 0.29354 0.35907 0.53662 0.0
C3789 C 0.27404 0.35285 0.55873 0.0
N3790 N 0.2971 0.38895 0.52831 0.0
N3791 N 0.27488 0.36644 0.55302 0.0
H3792 H 0.4015 0.01746 0.81379 0.0
H3793 H 0.34644 0.06608 0.76861 0.0
H3794 H 0.41336 0.05522 0.78872 0.0
H3795 H 0.33447 0.03744 0.80368 0.0
H3796 H 0.37085 0.05548 0.76868 0.0
H3797 H 0.37727 0.01816 0.80282 0.0
C3798 C 0.39916 0.02561 0.80563 0.0
C3799 C 0.40928 0.03649 0.80235 0.0
C3800 C 0.36274 0.05123 0.77606 0.0
C3801 C 0.3817 0.03741 0.7899 0.0
C3802 C 0.34879 0.0572 0.77595 0.0
C3803 C 0.33858 0.05276 0.78633 0.0
C3804 C 0.36636 0.04076 0.78657 0.0
C3805 C 0.34217 0.04129 0.79567 0.0
C3806 C 0.38532 0.02604 0.79943 0.0
C3807 C 0.40572 0.04679 0.79172 0.0
N3808 N 0.35586 0.03583 0.79573 0.0
N3809 N 0.39213 0.04716 0.78604 0.0
H3810 H 0.69531 0.16654 0.0381 0.0
H3811 H 0.71305 0.08607 0.05442 0.0
H3812 H 0.73083 0.15376 0.0658 0.0
H3813 H 0.68645 0.09916 0.01816 0.0
H3814 H 0.72337 0.11045 0.0554 0.0
H3815 H 0.69541 0.14242 0.02715 0.0
C3816 C 0.70341 0.15874 0.04157 0.0
C3817 C 0.71293 0.16201 0.05298 0.0
C3818 C 0.71558 0.10793 0.04695 0.0
C3819 C 0.71287 0.13428 0.04084 0.0
C3820 C 0.70969 0.094 0.0464 0.0
C3821 C 0.69873 0.09072 0.03636 0.0
C3822 C 0.71018 0.11873 0.03763 0.0
C3823 C 0.69482 0.10131 0.02614 0.0
C3824 C 0.70347 0.14496 0.03533 0.0
C3825 C 0.72326 0.15161 0.05706 0.0
N3826 N 0.70027 0.11498 0.02728 0.0
N3827 N 0.72271 0.13805 0.05125 0.0
H3828 H 0.94653 0.28684 0.08429 0.0
H3829 H 0.93616 0.26483 0.15348 0.0
H3830 H 0.98184 0.31344 0.09966 0.0
H3831 H 0.95808 0.3051 0.16308 0.0
H3832 H 0.94803 0.26439 0.12969 0.0
H3833 H 0.94514 0.27524 0.10791 0.0
C3834 C 0.95437 0.28983 0.09254 0.0
C3835 C 0.96416 0.30122 0.09015 0.0
C3836 C 0.95033 0.27328 0.13703 0.0
C3837 C 0.96265 0.28807 0.11738 0.0
C3838 C 0.9437 0.27342 0.15069 0.0
C3839 C 0.94582 0.28526 0.16002 0.0
C3840 C 0.95895 0.28516 0.13274 0.0
C3841 C 0.95585 0.29598 0.156 0.0
C3842 C 0.95365 0.28312 0.10608 0.0
C3843 C 0.97409 0.30472 0.10113 0.0
N3844 N 0.96184 0.29582 0.14255 0.0
N3845 N 0.9728 0.29845 0.11444 0.0
H3846 H 0.9646 0.80477 0.66812 0.0
H3847 H 0.94735 0.78812 0.58754 0.0
H3848 H 0.93997 0.76719 0.65488 0.0
H3849 H 0.98202 0.81695 0.60016 0.0
H3850 H 0.94778 0.77732 0.61173 0.0
H3851 H 0.97467 0.80651 0.64367 0.0
C3852 C 0.96166 0.79662 0.66016 0.0
C3853 C 0.95126 0.78598 0.66343 0.0
C3854 C 0.95558 0.78573 0.60915 0.0
C3855 C 0.96242 0.78811 0.63534 0.0
C3856 C 0.95533 0.79189 0.59533 0.0
C3857 C 0.96454 0.80352 0.59196 0.0
C3858 C 0.96485 0.79153 0.61979 0.0
C3859 C 0.97471 0.808 0.60237 0.0
C3860 C 0.96739 0.79762 0.64618 0.0
C3861 C 0.94787 0.77564 0.65277 0.0
N3862 N 0.97435 0.80224 0.61597 0.0
N3863 N 0.95315 0.77719 0.63908 0.0
H3864 H 0.59808 0.98247 0.81379 0.0
H3865 H 0.6514 0.93329 0.76703 0.0
H3866 H 0.58485 0.94594 0.78761 0.0
H3867 H 0.66436 0.96029 0.80304 0.0
H3868 H 0.62734 0.94471 0.76752 0.0
H3869 H 0.62228 0.98118 0.8028 0.0
C3870 C 0.60012 0.97451 0.80536 0.0
C3871 C 0.5896 0.96411 0.80176 0.0
C3872 C 0.6356 0.94842 0.77503 0.0
C3873 C 0.61715 0.96251 0.7893 0.0
C3874 C 0.64934 0.94197 0.77469 0.0
C3875 C 0.65972 0.94571 0.78518 0.0
C3876 C 0.63236 0.95867 0.78588 0.0
C3877 C 0.65652 0.95697 0.79492 0.0
C3878 C 0.61394 0.97372 0.79916 0.0
C3879 C 0.59279 0.954 0.79083 0.0
N3880 N 0.64303 0.9629 0.7952 0.0
N3881 N 0.60637 0.95329 0.78515 0.0
H3882 H 0.26774 0.84752 0.06534 0.0
H3883 H 0.31465 0.90195 0.01728 0.0
H3884 H 0.30499 0.83525 0.03974 0.0
H3885 H 0.28748 0.91473 0.05323 0.0
H3886 H 0.30454 0.87738 0.01877 0.0
H3887 H 0.26844 0.8717 0.05422 0.0
C3888 C 0.27577 0.84977 0.05705 0.0
C3889 C 0.28648 0.83952 0.0536 0.0
C3890 C 0.30051 0.88568 0.02606 0.0
C3891 C 0.28739 0.86702 0.04096 0.0
C3892 C 0.3062 0.89972 0.02515 0.0
C3893 C 0.30202 0.91026 0.03531 0.0
C3894 C 0.29057 0.88229 0.03714 0.0
C3895 C 0.29111 0.9068 0.04534 0.0
C3896 C 0.27622 0.86357 0.05077 0.0
C3897 C 0.29668 0.84297 0.04283 0.0
N3898 N 0.2859 0.89304 0.04615 0.0
N3899 N 0.29702 0.85651 0.03703 0.0
H3900 H 0.34841 0.5636 0.26712 0.0
H3901 H 0.40358 0.51821 0.31563 0.0
H3902 H 0.33621 0.53699 0.3037 0.0
H3903 H 0.41518 0.55514 0.28923 0.0
H3904 H 0.37941 0.51823 0.3045 0.0
H3905 H 0.37301 0.55357 0.26842 0.0
C3906 C 0.35077 0.55528 0.2751 0.0
C3907 C 0.3404 0.55128 0.2855 0.0
C3908 C 0.3874 0.52607 0.30087 0.0
C3909 C 0.3684 0.53991 0.2871 0.0
C3910 C 0.4012 0.52601 0.30715 0.0
C3911 C 0.41124 0.53686 0.3035 0.0
C3912 C 0.38374 0.53698 0.29085 0.0
C3913 C 0.40762 0.54674 0.29249 0.0
C3914 C 0.36482 0.54963 0.27589 0.0
C3915 C 0.34401 0.5405 0.29563 0.0
N3916 N 0.39407 0.54671 0.2867 0.0
N3917 N 0.3578 0.53535 0.29634 0.0
H3918 H 0.69638 0.66667 0.53776 0.0
H3919 H 0.71297 0.58525 0.55162 0.0
H3920 H 0.73289 0.65238 0.56338 0.0
H3921 H 0.68463 0.59968 0.51726 0.0
H3922 H 0.72372 0.60944 0.55266 0.0
H3923 H 0.69504 0.64267 0.52663 0.0
C3924 C 0.70436 0.65855 0.54075 0.0
C3925 C 0.71461 0.66139 0.55165 0.0
C3926 C 0.71543 0.60727 0.5446 0.0
C3927 C 0.71294 0.6338 0.53924 0.0
C3928 C 0.70931 0.59345 0.54401 0.0
C3929 C 0.69779 0.59058 0.53448 0.0
C3930 C 0.70971 0.61839 0.53587 0.0
C3931 C 0.69346 0.6015 0.5248 0.0
C3932 C 0.7036 0.64484 0.53439 0.0
C3933 C 0.72476 0.65058 0.55508 0.0
N3934 N 0.69918 0.61506 0.526 0.0
N3935 N 0.72345 0.63712 0.54915 0.0
H3936 H 0.97876 0.47357 0.18705 0.0
H3937 H 0.03284 0.52235 0.14112 0.0
H3938 H 0.97071 0.4813 0.1415 0.0
H3939 H 0.02408 0.52909 0.1867 0.0
H3940 H 0.01252 0.505 0.14016 0.0
H3941 H 0.99868 0.49095 0.18624 0.0
C3942 C 0.98129 0.47879 0.17682 0.0
C3943 C 0.97302 0.47603 0.16433 0.0
C3944 C 0.01503 0.51042 0.1503 0.0
C3945 C 0.99581 0.49601 0.16338 0.0
C3946 C 0.02656 0.52031 0.15086 0.0
C3947 C 0.03016 0.52713 0.16402 0.0
C3948 C 0.00733 0.50718 0.16305 0.0
C3949 C 0.02171 0.5241 0.17632 0.0
C3950 C 0.99259 0.48881 0.1764 0.0
C3951 C 0.9768 0.48317 0.15138 0.0
N3952 N 0.01081 0.51423 0.17557 0.0
N3953 N 0.98798 0.49287 0.15122 0.0
H3954 H 0.73151 0.28035 0.38951 0.0
H3955 H 0.78084 0.22664 0.43537 0.0
H3956 H 0.72551 0.27201 0.43527 0.0
H3957 H 0.77133 0.21705 0.39045 0.0
H3958 H 0.76409 0.24707 0.43431 0.0
H3959 H 0.74896 0.26006 0.38851 0.0
C3960 C 0.73376 0.2742 0.39928 0.0
C3961 C 0.72706 0.27785 0.41249 0.0
C3962 C 0.76572 0.24053 0.42466 0.0
C3963 C 0.74711 0.2551 0.41147 0.0
C3964 C 0.77536 0.22892 0.42521 0.0
C3965 C 0.7774 0.22005 0.41301 0.0
C3966 C 0.75815 0.24345 0.41177 0.0
C3967 C 0.76999 0.22359 0.40013 0.0
C3968 C 0.74369 0.26268 0.39869 0.0
C3969 C 0.73037 0.26957 0.42484 0.0
N3970 N 0.76064 0.23506 0.39983 0.0
N3971 N 0.74027 0.25871 0.42406 0.0
H3972 H 0.98429 0.96227 0.67002 0.0
H3973 H 0.01558 0.03927 0.66879 0.0
H3974 H 0.95797 0.9954 0.64991 0.0
H3975 H 0.04129 0.00564 0.64872 0.0
H3976 H 0.99404 0.02357 0.66671 0.0
H3977 H 0.00572 0.97797 0.66708 0.0
C3978 C 0.98309 0.97279 0.66488 0.0
C3979 C 0.96945 0.97759 0.66013 0.0
C3980 C 0.00439 0.01977 0.66262 0.0
C3981 C 0.99358 0.99557 0.65721 0.0
C3982 C 0.01662 0.02864 0.66383 0.0
C3983 C 0.03012 0.0237 0.65885 0.0
C3984 C 0.00588 0.00573 0.65691 0.0
C3985 C 0.031 0.00985 0.65256 0.0
C3986 C 0.99525 0.98166 0.66318 0.0
C3987 C 0.96837 0.99131 0.65359 0.0
N3988 N 0.01907 0.00117 0.65204 0.0
N3989 N 0.98026 -0.0 0.65258 0.0
H3990 H 0.2116 0.26492 0.91803 0.0
H3991 H 0.28907 0.23553 0.91909 0.0
H3992 H 0.24458 0.29209 0.89885 0.0
H3993 H 0.25671 0.20884 0.89824 0.0
H3994 H 0.27305 0.25672 0.91611 0.0
H3995 H 0.22779 0.24383 0.91522 0.0
C3996 C 0.22218 0.26637 0.91309 0.0
C3997 C 0.22681 0.28015 0.90859 0.0
C3998 C 0.26962 0.24624 0.91202 0.0
C3999 C 0.24534 0.25642 0.90583 0.0
C4000 C 0.27868 0.2342 0.91374 0.0
C4001 C 0.27416 0.22053 0.90884 0.0
C4002 C 0.25581 0.24437 0.90587 0.0
C4003 C 0.26058 0.21928 0.90204 0.0
C4004 C 0.23134 0.25441 0.91146 0.0
C4005 C 0.24062 0.28157 0.90232 0.0
N4006 N 0.2517 0.23103 0.90103 0.0
N4007 N 0.24958 0.26987 0.9014 0.0
H4008 H 0.03166 0.4822 0.85893 0.0
H4009 H 0.97713 0.52929 0.81134 0.0
H4010 H 0.02451 0.47554 0.81307 0.0
H4011 H 0.96859 0.52165 0.85681 0.0
H4012 H 0.9978 0.51284 0.8127 0.0
H4013 H 0.01108 0.49931 0.85925 0.0
C4014 C 0.02571 0.48424 0.84899 0.0
C4015 C 0.02978 0.47744 0.83595 0.0
C4016 C 0.99144 0.5148 0.82241 0.0
C4017 C 0.00665 0.49711 0.8362 0.0
C4018 C 0.9797 0.52428 0.82167 0.0
C4019 C 0.97107 0.52678 0.83397 0.0
C4020 C 0.99474 0.50787 0.83557 0.0
C4021 C 0.97494 0.51996 0.84706 0.0
C4022 C 0.01403 0.49398 0.84919 0.0
C4023 C 0.02175 0.48049 0.82337 0.0
N4024 N 0.98653 0.51077 0.84754 0.0
N4025 N 0.01068 0.49019 0.82379 0.0
H4026 H 0.76597 0.28447 0.11066 0.0
H4027 H 0.71754 0.22996 0.06447 0.0
H4028 H 0.77109 0.27744 0.06458 0.0
H4029 H 0.7276 0.22048 0.10929 0.0
H4030 H 0.73352 0.25099 0.06557 0.0
H4031 H 0.7489 0.26385 0.1115 0.0
C4032 C 0.76358 0.27856 0.10077 0.0
C4033 C 0.76996 0.28264 0.08753 0.0
C4034 C 0.73218 0.24435 0.07519 0.0
C4035 C 0.75035 0.25949 0.08839 0.0
C4036 C 0.72298 0.23239 0.07461 0.0
C4037 C 0.72132 0.22338 0.08678 0.0
C4038 C 0.7397 0.24747 0.08807 0.0
C4039 C 0.72865 0.22712 0.09964 0.0
C4040 C 0.75387 0.26685 0.10127 0.0
C4041 C 0.76649 0.27465 0.07504 0.0
N4042 N 0.73758 0.23892 0.09996 0.0
N4043 N 0.75683 0.26357 0.07575 0.0
H4044 H 0.9678 0.01977 0.35838 0.0
H4045 H 0.022 0.97177 0.31189 0.0
H4046 H 0.9768 0.02725 0.31297 0.0
H4047 H 0.03089 0.97972 0.35725 0.0
H4048 H 0.00182 0.9888 0.31309 0.0
H4049 H 0.9882 0.00246 0.35918 0.0
C4050 C 0.97414 0.01789 0.34865 0.0
C4051 C 0.9706 0.02493 0.33558 0.0
C4052 C 0.00815 0.98678 0.3228 0.0
C4053 C 0.9935 0.00504 0.33636 0.0
C4054 C 0.01961 0.97697 0.32217 0.0
C4055 C 0.0282 0.97439 0.33447 0.0
C4056 C 0.00509 0.99396 0.33588 0.0
C4057 C 0.02456 0.98147 0.34749 0.0
C4058 C 0.98572 0.00804 0.34912 0.0
C4059 C 0.97913 0.02209 0.32328 0.0
N4060 N 0.01323 0.99098 0.34788 0.0
N4061 N 0.99005 0.01225 0.32393 0.0
H4062 H 0.22995 0.21857 0.61064 0.0
H4063 H 0.27616 0.27449 0.56391 0.0
H4064 H 0.22339 0.22604 0.56482 0.0
H4065 H 0.2684 0.28231 0.60949 0.0
H4066 H 0.25989 0.25368 0.56494 0.0
H4067 H 0.24651 0.23957 0.61131 0.0
C4068 C 0.23189 0.22468 0.60078 0.0
C4069 C 0.22529 0.22056 0.58765 0.0
C4070 C 0.26177 0.25992 0.57474 0.0
C4071 C 0.24434 0.24421 0.5883 0.0
C4072 C 0.27114 0.27175 0.57419 0.0
C4073 C 0.27359 0.2802 0.58663 0.0
C4074 C 0.25487 0.25634 0.58784 0.0
C4075 C 0.26676 0.2761 0.59965 0.0
C4076 C 0.24132 0.23661 0.60118 0.0
C4077 C 0.22819 0.22882 0.57518 0.0
N4078 N 0.25768 0.26441 0.59994 0.0
N4079 N 0.2376 0.24013 0.57579 0.0
H4080 H 0.1407 0.03055 0.52007 0.0
H4081 H 0.18511 0.97581 0.47034 0.0
H4082 H 0.18675 0.02286 0.52441 0.0
H4083 H 0.14005 0.96757 0.4804 0.0
H4084 H 0.18483 0.99636 0.48696 0.0
H4085 H 0.13926 0.01002 0.50299 0.0
C4086 C 0.15046 0.02449 0.51753 0.0
C4087 C 0.16387 0.0284 0.52366 0.0
C4088 C 0.17498 0.99009 0.4855 0.0
C4089 C 0.16233 0.00531 0.50401 0.0
C4090 C 0.17509 0.97841 0.47592 0.0
C4091 C 0.1626 0.9699 0.47404 0.0
C4092 C 0.16226 0.99345 0.49317 0.0
C4093 C 0.14993 0.97383 0.4816 0.0
C4094 C 0.14962 0.01283 0.5078 0.0
C4095 C 0.17618 0.02022 0.51999 0.0
N4096 N 0.15007 0.98537 0.49087 0.0
N4097 N 0.17513 0.00918 0.5103 0.0
H4098 H 0.27485 0.43798 0.72497 0.0
H4099 H 0.2197 0.39109 0.77152 0.0
H4100 H 0.28301 0.39236 0.73209 0.0
H4101 H 0.22823 0.43654 0.77931 0.0
H4102 H 0.24055 0.39044 0.75478 0.0
H4103 H 0.25463 0.43679 0.74195 0.0
C4104 C 0.2723 0.42766 0.72999 0.0
C4105 C 0.28066 0.41525 0.72715 0.0
C4106 C 0.23788 0.40048 0.7603 0.0
C4107 C 0.2575 0.41386 0.74668 0.0
C4108 C 0.22603 0.40086 0.76984 0.0
C4109 C 0.22221 0.41391 0.77678 0.0
C4110 C 0.24567 0.41329 0.75753 0.0
C4111 C 0.23075 0.42625 0.77421 0.0
C4112 C 0.26082 0.42702 0.73978 0.0
C4113 C 0.27684 0.40218 0.73404 0.0
N4114 N 0.24195 0.42568 0.76467 0.0
N4115 N 0.26547 0.40179 0.7435 0.0
H4116 H 0.83229 0.48566 0.03842 0.0
H4117 H 0.83073 0.51387 0.96043 0.0
H4118 H 0.85174 0.45818 0.00585 0.0
H4119 H 0.85201 0.54102 0.99213 0.0
H4120 H 0.83361 0.49298 0.97689 0.0
H4121 H 0.83472 0.50649 0.02183 0.0
C4122 C 0.8372 0.48408 0.02785 0.0
C4123 C 0.84191 0.4703 0.02346 0.0
C4124 C 0.83779 0.5035 0.98008 0.0
C4125 C 0.84422 0.49372 0.00447 0.0
C4126 C 0.83613 0.51536 0.97078 0.0
C4127 C 0.84121 0.52908 0.97497 0.0
C4128 C 0.84406 0.50559 0.9938 0.0
C4129 C 0.84807 0.53054 0.9885 0.0
C4130 C 0.83861 0.4959 0.01846 0.0
C4131 C 0.84813 0.46872 0.00964 0.0
N4132 N 0.84903 0.51897 0.99762 0.0
N4133 N 0.84883 0.48026 0.00046 0.0
H4134 H 0.77245 0.0631 0.27793 0.0
H4135 H 0.71817 0.10987 0.23027 0.0
H4136 H 0.78196 0.10822 0.26932 0.0
H4137 H 0.72658 0.0643 0.22306 0.0
H4138 H 0.73876 0.11056 0.24736 0.0
H4139 H 0.75197 0.06448 0.26129 0.0
C4140 C 0.77014 0.07337 0.27267 0.0
C4141 C 0.779 0.08554 0.27494 0.0
C4142 C 0.7361 0.10049 0.2419 0.0
C4143 C 0.75553 0.08714 0.25581 0.0
C4144 C 0.7244 0.10008 0.23217 0.0
C4145 C 0.72066 0.087 0.22526 0.0
C4146 C 0.74377 0.08767 0.2449 0.0
C4147 C 0.72906 0.07462 0.22811 0.0
C4148 C 0.7585 0.0741 0.26309 0.0
C4149 C 0.77543 0.09856 0.2678 0.0
N4150 N 0.7401 0.07523 0.23783 0.0
N4151 N 0.76392 0.09904 0.25851 0.0
H4152 H 0.5206 0.13969 0.0312 0.0
H4153 H 0.47288 0.18652 0.97695 0.0
H4154 H 0.52777 0.18528 0.02289 0.0
H4155 H 0.4806 0.1411 0.96819 0.0
H4156 H 0.48989 0.18529 0.99714 0.0
H4157 H 0.50351 0.13902 0.01061 0.0
C4158 C 0.5187 0.14949 0.02498 0.0
C4159 C 0.52558 0.16257 0.02877 0.0
C4160 C 0.48784 0.17557 0.99083 0.0
C4161 C 0.50594 0.16194 0.00564 0.0
C4162 C 0.47803 0.17623 0.97937 0.0
C4163 C 0.47537 0.16391 0.97082 0.0
C4164 C 0.49494 0.16247 0.99395 0.0
C4165 C 0.4824 0.15086 0.97449 0.0
C4166 C 0.50897 0.1491 0.01329 0.0
C4167 C 0.52273 0.17496 0.02038 0.0
N4168 N 0.4919 0.15046 0.98584 0.0
N4169 N 0.51301 0.17437 0.00934 0.0
H4170 H 0.9692 0.81319 0.52372 0.0
H4171 H 0.01609 0.85913 0.46754 0.0
H4172 H 0.97855 0.85842 0.53184 0.0
H4173 H 0.02126 0.81305 0.47451 0.0
H4174 H 0.99953 0.86006 0.48855 0.0
H4175 H 0.98487 0.814 0.50245 0.0
C4176 C 0.97443 0.82336 0.52095 0.0
C4177 C 0.97263 0.83574 0.52963 0.0
C4178 C 0.0044 0.8498 0.48546 0.0
C4179 C 0.99067 0.8367 0.50524 0.0
C4180 C 0.01381 0.84925 0.47352 0.0
C4181 C 0.02007 0.83599 0.4693 0.0
C4182 C 0.00103 0.83694 0.49295 0.0
C4183 C 0.01675 0.82352 0.47739 0.0
C4184 C 0.98346 0.82378 0.50884 0.0
C4185 C 0.9797 0.84861 0.52546 0.0
N4186 N 0.00737 0.82428 0.48872 0.0
N4187 N 0.98846 0.84877 0.51353 0.0
H4188 H 0.38975 0.23034 0.78092 0.0
H4189 H 0.43617 0.27874 0.72669 0.0
H4190 H 0.43557 0.22418 0.77313 0.0
H4191 H 0.39084 0.27035 0.7181 0.0
H4192 H 0.43514 0.26204 0.74716 0.0
H4193 H 0.38899 0.24765 0.76054 0.0
C4194 C 0.39959 0.23253 0.77486 0.0
C4195 C 0.41274 0.22582 0.77871 0.0
C4196 C 0.4254 0.26389 0.74084 0.0
C4197 C 0.412 0.24572 0.7558 0.0
C4198 C 0.42593 0.27351 0.72921 0.0
C4199 C 0.41359 0.27587 0.72061 0.0
C4200 C 0.41239 0.25666 0.74405 0.0
C4201 C 0.40062 0.26878 0.72442 0.0
C4202 C 0.39914 0.24238 0.76329 0.0
C4203 C 0.42518 0.22905 0.77054 0.0
N4204 N 0.40034 0.25944 0.7359 0.0
N4205 N 0.42453 0.23887 0.75959 0.0
H4206 H 0.03746 0.66828 0.01376 0.0
H4207 H 0.96004 0.66849 0.98415 0.0
H4208 H 0.00484 0.64816 0.04067 0.0
H4209 H 0.99253 0.64778 0.95753 0.0
H4210 H 0.97612 0.66576 0.00534 0.0
H4211 H 0.02128 0.66551 0.99264 0.0
C4212 C 0.02696 0.66315 0.01516 0.0
C4213 C 0.02244 0.65835 0.02887 0.0
C4214 C 0.97958 0.66165 0.99487 0.0
C4215 C 0.00391 0.65565 0.0051 0.0
C4216 C 0.97048 0.66323 0.98284 0.0
C4217 C 0.975 0.65827 0.96918 0.0
C4218 C 0.99343 0.65561 0.99303 0.0
C4219 C 0.98864 0.6516 0.96796 0.0
C4220 C 0.01781 0.66155 0.00317 0.0
C4221 C 0.00872 0.65185 0.03021 0.0
N4222 N 0.99756 0.65074 0.9797 0.0
N4223 N 0.99976 0.65096 0.01849 0.0
H4224 H 0.09961 0.75517 0.2903 0.0
H4225 H 0.09892 0.74446 0.20584 0.0
H4226 H 0.07824 0.78742 0.26387 0.0
H4227 H 0.07825 0.7121 0.23267 0.0
H4228 H 0.10084 0.76048 0.22717 0.0
H4229 H 0.10129 0.73921 0.26891 0.0
C4230 C 0.09555 0.75898 0.27993 0.0
C4231 C 0.08876 0.77257 0.27876 0.0
C4232 C 0.09609 0.74978 0.22833 0.0
C4233 C 0.09095 0.75465 0.25448 0.0
C4234 C 0.09506 0.74064 0.21627 0.0
C4235 C 0.0884 0.727 0.21758 0.0
C4236 C 0.09086 0.74498 0.24179 0.0
C4237 C 0.0834 0.72258 0.23127 0.0
C4238 C 0.09644 0.74988 0.26784 0.0
C4239 C 0.0835 0.77698 0.26516 0.0
N4240 N 0.08482 0.73153 0.24293 0.0
N4241 N 0.08479 0.76805 0.25347 0.0
H4242 H 0.47893 0.86056 0.03088 0.0
H4243 H 0.52709 0.81422 0.97667 0.0
H4244 H 0.47197 0.81498 0.02234 0.0
H4245 H 0.51877 0.8595 0.9677 0.0
H4246 H 0.51008 0.81533 0.99687 0.0
H4247 H 0.49607 0.8614 0.01034 0.0
C4248 C 0.48089 0.8508 0.02462 0.0
C4249 C 0.47405 0.83767 0.02832 0.0
C4250 C 0.51201 0.82504 0.99051 0.0
C4251 C 0.49374 0.8385 0.00525 0.0
C4252 C 0.52181 0.82446 0.97904 0.0
C4253 C 0.52429 0.83678 0.97043 0.0
C4254 C 0.50474 0.83807 0.99357 0.0
C4255 C 0.5171 0.84974 0.97405 0.0
C4256 C 0.49065 0.85129 0.01296 0.0
C4257 C 0.47698 0.82533 0.01989 0.0
N4258 N 0.50761 0.85008 0.9854 0.0
N4259 N 0.48672 0.82602 0.00887 0.0
H4260 H 0.6076 0.22828 0.21868 0.0
H4261 H 0.56243 0.2769 0.27356 0.0
H4262 H 0.56197 0.22201 0.22744 0.0
H4263 H 0.60781 0.26822 0.2816 0.0
H4264 H 0.56299 0.25985 0.25335 0.0
H4265 H 0.60881 0.24536 0.23923 0.0
C4266 C 0.5979 0.23038 0.22499 0.0
C4267 C 0.58465 0.22374 0.22135 0.0
C4268 C 0.57285 0.2617 0.25951 0.0
C4269 C 0.58591 0.24338 0.24445 0.0
C4270 C 0.57258 0.27152 0.27098 0.0
C4271 C 0.58509 0.27393 0.27932 0.0
C4272 C 0.58576 0.25434 0.25618 0.0
C4273 C 0.59791 0.26662 0.27546 0.0
C4274 C 0.59861 0.24011 0.23667 0.0
C4275 C 0.57241 0.22685 0.22985 0.0
N4276 N 0.59794 0.25712 0.26411 0.0
N4277 N 0.5733 0.23656 0.24089 0.0
H4278 H 0.73 0.78044 0.89172 0.0
H4279 H 0.77794 0.72572 0.93817 0.0
H4280 H 0.72354 0.7725 0.93748 0.0
H4281 H 0.77051 0.71812 0.89249 0.0
H4282 H 0.761 0.74602 0.93731 0.0
H4283 H 0.74723 0.76 0.89099 0.0
C4284 C 0.7321 0.77433 0.90156 0.0
C4285 C 0.72534 0.77816 0.91469 0.0
C4286 C 0.76311 0.73995 0.92745 0.0
C4287 C 0.74516 0.75517 0.91398 0.0
C4288 C 0.77287 0.72842 0.9279 0.0
C4289 C 0.77559 0.72017 0.91539 0.0
C4290 C 0.75611 0.74341 0.91437 0.0
C4291 C 0.76866 0.72419 0.9024 0.0
C4292 C 0.74192 0.76272 0.90113 0.0
C4293 C 0.72846 0.76993 0.92712 0.0
N4294 N 0.75921 0.73557 0.9022 0.0
N4295 N 0.73825 0.75894 0.92648 0.0
H4296 H 0.22774 0.77978 0.39016 0.0
H4297 H 0.27462 0.72429 0.43642 0.0
H4298 H 0.22067 0.77135 0.43575 0.0
H4299 H 0.26662 0.71605 0.39095 0.0
H4300 H 0.25795 0.74476 0.43541 0.0
H4301 H 0.24443 0.75889 0.38928 0.0
C4302 C 0.22958 0.77348 0.39992 0.0
C4303 C 0.22283 0.77732 0.41306 0.0
C4304 C 0.25986 0.73851 0.42563 0.0
C4305 C 0.24203 0.75381 0.41217 0.0
C4306 C 0.26946 0.72687 0.42616 0.0
C4307 C 0.27196 0.71839 0.41375 0.0
C4308 C 0.25278 0.74187 0.41258 0.0
C4309 C 0.26494 0.72228 0.40077 0.0
C4310 C 0.23909 0.7616 0.3994 0.0
C4311 C 0.22561 0.7688 0.42538 0.0
N4312 N 0.25563 0.7338 0.40049 0.0
N4313 N 0.2351 0.75758 0.42467 0.0
H4314 H 0.77529 0.78075 0.61009 0.0
H4315 H 0.72759 0.72726 0.56237 0.0
H4316 H 0.78345 0.77225 0.56469 0.0
H4317 H 0.73341 0.71932 0.60821 0.0
H4318 H 0.74545 0.74673 0.56372 0.0
H4319 H 0.75794 0.76042 0.61039 0.0
C4320 C 0.77358 0.77452 0.60026 0.0
C4321 C 0.78079 0.77822 0.58733 0.0
C4322 C 0.7428 0.74075 0.5735 0.0
C4323 C 0.76082 0.75535 0.58754 0.0
C4324 C 0.73251 0.72971 0.57277 0.0
C4325 C 0.72903 0.72163 0.5852 0.0
C4326 C 0.74956 0.74392 0.58678 0.0
C4327 C 0.73582 0.72528 0.59837 0.0
C4328 C 0.76368 0.76297 0.60044 0.0
C4329 C 0.77814 0.76981 0.5749 0.0
N4330 N 0.74577 0.73622 0.59885 0.0
N4331 N 0.76825 0.75891 0.57528 0.0
H4332 H 0.22708 0.71859 0.1079 0.0
H4333 H 0.27699 0.77273 0.06339 0.0
H4334 H 0.22107 0.72798 0.06235 0.0
H4335 H 0.26832 0.78079 0.10878 0.0
H4336 H 0.25946 0.75296 0.06378 0.0
H4337 H 0.24448 0.73885 0.1094 0.0
C4338 C 0.22929 0.72499 0.09828 0.0
C4339 C 0.22265 0.72159 0.08497 0.0
C4340 C 0.26142 0.75902 0.07368 0.0
C4341 C 0.24266 0.74436 0.08656 0.0
C4342 C 0.27152 0.77024 0.07351 0.0
C4343 C 0.27408 0.77847 0.08607 0.0
C4344 C 0.25391 0.75582 0.08653 0.0
C4345 C 0.26662 0.77472 0.09885 0.0
C4346 C 0.2392 0.7365 0.09915 0.0
C4347 C 0.22591 0.7302 0.07284 0.0
N4348 N 0.25684 0.76361 0.09877 0.0
N4349 N 0.2358 0.74106 0.07389 0.0
H4350 H 0.18719 0.47525 0.97389 0.0
H4351 H 0.14079 0.53083 0.02073 0.0
H4352 H 0.14163 0.46747 0.98178 0.0
H4353 H 0.18659 0.52319 0.02723 0.0
H4354 H 0.14003 0.50988 0.00412 0.0
H4355 H 0.18632 0.49582 0.99049 0.0
C4356 C 0.17695 0.47796 0.979 0.0
C4357 C 0.16447 0.4696 0.97649 0.0
C4358 C 0.15018 0.51278 0.00931 0.0
C4359 C 0.16344 0.49316 0.99558 0.0
C4360 C 0.15062 0.52468 0.01878 0.0
C4361 C 0.16377 0.52876 0.02535 0.0
C4362 C 0.16303 0.50518 0.00624 0.0
C4363 C 0.17621 0.52045 0.02243 0.0
C4364 C 0.1765 0.48964 0.98857 0.0
C4365 C 0.15151 0.47362 0.98347 0.0
N4366 N 0.17556 0.50918 0.01299 0.0
N4367 N 0.1513 0.48517 0.99272 0.0
H4368 H 0.27326 0.936 0.22301 0.0
H4369 H 0.21857 0.88974 0.27085 0.0
H4370 H 0.28197 0.89078 0.23188 0.0
H4371 H 0.22618 0.9356 0.27706 0.0
H4372 H 0.23934 0.88896 0.25403 0.0
H4373 H 0.25272 0.93506 0.23964 0.0
C4374 C 0.27076 0.92581 0.22833 0.0
C4375 C 0.27939 0.91346 0.22612 0.0
C4376 C 0.23647 0.89912 0.25921 0.0
C4377 C 0.25588 0.91236 0.24523 0.0
C4378 C 0.22467 0.89958 0.26879 0.0
C4379 C 0.22065 0.91276 0.27534 0.0
C4380 C 0.244 0.91198 0.25599 0.0
C4381 C 0.22889 0.9252 0.27229 0.0
C4382 C 0.2591 0.92533 0.23791 0.0
C4383 C 0.27562 0.90056 0.23334 0.0
N4384 N 0.24006 0.92453 0.26272 0.0
N4385 N 0.26409 0.90032 0.24261 0.0
H4386 H 0.81435 0.02102 0.47111 0.0
H4387 H 0.85948 0.9688 0.5226 0.0
H4388 H 0.85926 0.03058 0.48065 0.0
H4389 H 0.81357 0.97696 0.52754 0.0
H4390 H 0.86073 0.98877 0.50483 0.0
H4391 H 0.81505 0.0013 0.48869 0.0
C4392 C 0.82443 0.01887 0.47677 0.0
C4393 C 0.83675 0.02752 0.47447 0.0
C4394 C 0.85046 0.9862 0.50995 0.0
C4395 C 0.83757 0.00493 0.4947 0.0
C4396 C 0.84973 0.97487 0.52007 0.0
C4397 C 0.8364 0.97121 0.52653 0.0
C4398 C 0.8377 0.99362 0.50609 0.0
C4399 C 0.82408 0.97939 0.52285 0.0
C4400 C 0.82478 0.00767 0.4869 0.0
C4401 C 0.84951 0.02419 0.48216 0.0
N4402 N 0.82501 0.99007 0.51277 0.0
N4403 N 0.84961 0.01311 0.49198 0.0
H4404 H 0.73613 0.58017 0.71013 0.0
H4405 H 0.76487 0.58 0.78792 0.0
H4406 H 0.70877 0.60005 0.74254 0.0
H4407 H 0.79156 0.60135 0.75589 0.0
H4408 H 0.74388 0.58236 0.77152 0.0
H4409 H 0.75705 0.58295 0.72657 0.0
C4410 C 0.7346 0.58524 0.72064 0.0
C4411 C 0.72082 0.58997 0.72503 0.0
C4412 C 0.75433 0.58666 0.76823 0.0
C4413 C 0.74434 0.59269 0.74383 0.0
C4414 C 0.76624 0.58531 0.77751 0.0
C4415 C 0.77985 0.59057 0.77321 0.0
C4416 C 0.75626 0.59281 0.75443 0.0
C4417 C 0.78116 0.59729 0.7596 0.0
C4418 C 0.74647 0.58684 0.72993 0.0
C4419 C 0.7193 0.5964 0.73876 0.0
N4420 N 0.76955 0.59795 0.75051 0.0
N4421 N 0.73089 0.59731 0.74785 0.0
H4422 H 0.4781 0.64124 0.4694 0.0
H4423 H 0.52732 0.68642 0.52369 0.0
H4424 H 0.47198 0.68689 0.47816 0.0
H4425 H 0.51846 0.64115 0.53217 0.0
H4426 H 0.51011 0.68579 0.50363 0.0
H4427 H 0.49531 0.64001 0.48985 0.0
C4428 C 0.48025 0.65094 0.47569 0.0
C4429 C 0.47362 0.6642 0.47207 0.0
C4430 C 0.51196 0.67597 0.50984 0.0
C4431 C 0.49342 0.66292 0.49505 0.0
C4432 C 0.52188 0.67628 0.52124 0.0
C4433 C 0.52428 0.66382 0.52967 0.0
C4434 C 0.50449 0.66309 0.50668 0.0
C4435 C 0.51687 0.651 0.52596 0.0
C4436 C 0.49006 0.65022 0.48731 0.0
C4437 C 0.47681 0.67644 0.48055 0.0
N4438 N 0.50728 0.65094 0.51468 0.0
N4439 N 0.48659 0.67554 0.49152 0.0
H4440 H 0.97977 0.35932 0.03286 0.0
H4441 H 0.02653 0.3136 0.97679 0.0
H4442 H 0.97289 0.31375 0.02423 0.0
H4443 H 0.01815 0.35907 0.96893 0.0
H4444 H 0.01015 0.3144 0.99752 0.0
H4445 H 0.99647 0.36036 0.01198 0.0
C4446 C 0.98166 0.3496 0.02651 0.0
C4447 C 0.97495 0.33642 0.03027 0.0
C4448 C 0.01193 0.32422 0.99129 0.0
C4449 C 0.99415 0.33748 0.0068 0.0
C4450 C 0.02136 0.32381 0.97951 0.0
C4451 C 0.02364 0.33628 0.97106 0.0
C4452 C 0.00481 0.33722 0.99481 0.0
C4453 C 0.01663 0.3492 0.97514 0.0
C4454 C 0.99117 0.35021 0.01466 0.0
C4455 C 0.97778 0.32414 0.02173 0.0
N4456 N 0.00749 0.34936 0.98678 0.0
N4457 N 0.98728 0.32494 0.01051 0.0
H4458 H 0.43681 0.7746 0.22628 0.0
H4459 H 0.38966 0.7284 0.28154 0.0
H4460 H 0.39126 0.76721 0.21794 0.0
H4461 H 0.43528 0.72092 0.2737 0.0
H4462 H 0.38914 0.7449 0.26049 0.0
H4463 H 0.43558 0.75781 0.24666 0.0
C4464 C 0.42649 0.76954 0.22881 0.0
C4465 C 0.41412 0.77227 0.22036 0.0
C4466 C 0.39919 0.7395 0.26337 0.0
C4467 C 0.41268 0.75297 0.24372 0.0
C4468 C 0.3995 0.73011 0.27533 0.0
C4469 C 0.41255 0.72332 0.27939 0.0
C4470 C 0.41207 0.74229 0.2557 0.0
C4471 C 0.42499 0.72591 0.27099 0.0
C4472 C 0.42583 0.75987 0.24039 0.0
C4473 C 0.40105 0.76536 0.22417 0.0
N4474 N 0.42447 0.73531 0.25967 0.0
N4475 N 0.40064 0.75601 0.23564 0.0
H4476 H 0.97967 0.14003 0.46734 0.0
H4477 H 0.02881 0.18609 0.521 0.0
H4478 H 0.97319 0.18568 0.47589 0.0
H4479 H 0.02033 0.14083 0.52994 0.0
H4480 H 0.01166 0.18509 0.50091 0.0
H4481 H 0.99712 0.1391 0.4876 0.0
C4482 C 0.9818 0.14979 0.47354 0.0
C4483 C 0.97499 0.16296 0.46992 0.0
C4484 C 0.01359 0.17536 0.50723 0.0
C4485 C 0.99507 0.16203 0.49267 0.0
C4486 C 0.02347 0.17587 0.51864 0.0
C4487 C 0.02594 0.16354 0.52722 0.0
C4488 C 0.00622 0.16238 0.50421 0.0
C4489 C 0.01868 0.1506 0.52361 0.0
C4490 C 0.99174 0.14925 0.48504 0.0
C4491 C 0.97816 0.17529 0.47828 0.0
N4492 N 0.0091 0.15034 0.51233 0.0
N4493 N 0.98807 0.17456 0.48914 0.0
H4494 H 0.06147 0.22269 0.72633 0.0
H4495 H 0.10877 0.26979 0.78096 0.0
H4496 H 0.10706 0.23 0.71816 0.0
H4497 H 0.06308 0.27694 0.77321 0.0
H4498 H 0.10918 0.25265 0.76043 0.0
H4499 H 0.0627 0.23942 0.74678 0.0
C4500 C 0.0718 0.22769 0.72893 0.0
C4501 C 0.08417 0.22501 0.72048 0.0
C4502 C 0.09913 0.2581 0.76322 0.0
C4503 C 0.08561 0.24424 0.74389 0.0
C4504 C 0.09888 0.26786 0.77488 0.0
C4505 C 0.08587 0.27479 0.77878 0.0
C4506 C 0.08621 0.25508 0.75571 0.0
C4507 C 0.07336 0.27188 0.77058 0.0
C4508 C 0.07245 0.23733 0.74055 0.0
C4509 C 0.09726 0.23183 0.72438 0.0
N4510 N 0.07381 0.26215 0.75955 0.0
N4511 N 0.09766 0.24117 0.73585 0.0
H4512 H 0.46569 0.31364 0.52048 0.0
H4513 H 0.51605 0.36025 0.4683 0.0
H4514 H 0.47474 0.35856 0.53051 0.0
H4515 H 0.52181 0.31436 0.47606 0.0
H4516 H 0.49816 0.36097 0.4882 0.0
H4517 H 0.48282 0.31493 0.50038 0.0
C4518 C 0.47113 0.32386 0.51835 0.0
C4519 C 0.46886 0.33599 0.52726 0.0
C4520 C 0.50347 0.35081 0.48554 0.0
C4521 C 0.48856 0.33748 0.50424 0.0
C4522 C 0.51366 0.35039 0.47425 0.0
C4523 C 0.52042 0.33722 0.47053 0.0
C4524 C 0.49985 0.33792 0.49284 0.0
C4525 C 0.51691 0.32476 0.47855 0.0
C4526 C 0.481 0.32454 0.50693 0.0
C4527 C 0.47624 0.34893 0.52393 0.0
N4528 N 0.50677 0.32539 0.4892 0.0
N4529 N 0.48582 0.34935 0.51266 0.0
H4530 H 0.61024 0.7675 0.78161 0.0
H4531 H 0.56498 0.71803 0.72724 0.0
H4532 H 0.56415 0.77206 0.77429 0.0
H4533 H 0.60985 0.72831 0.71827 0.0
H4534 H 0.56568 0.73427 0.74811 0.0
H4535 H 0.61139 0.75024 0.76118 0.0
C4536 C 0.60041 0.76495 0.77566 0.0
C4537 C 0.58708 0.77122 0.77961 0.0
C4538 C 0.5754 0.73292 0.74162 0.0
C4539 C 0.58828 0.75138 0.75669 0.0
C4540 C 0.57505 0.72357 0.72976 0.0
C4541 C 0.58735 0.7219 0.72093 0.0
C4542 C 0.58817 0.74058 0.74481 0.0
C4543 C 0.60011 0.72935 0.72477 0.0
C4544 C 0.60108 0.75513 0.76406 0.0
C4545 C 0.57467 0.76754 0.77159 0.0
N4546 N 0.6002 0.73843 0.73645 0.0
N4547 N 0.57555 0.75777 0.76062 0.0
H4548 H 0.46967 0.47907 0.63955 0.0
H4549 H 0.52541 0.52546 0.68597 0.0
H4550 H 0.47878 0.4711 0.68486 0.0
H4551 H 0.53299 0.51845 0.64023 0.0
H4552 H 0.50507 0.50861 0.68495 0.0
H4553 H 0.49044 0.49592 0.63874 0.0
C4554 C 0.47611 0.48074 0.64926 0.0
C4555 C 0.47249 0.47371 0.66231 0.0
C4556 C 0.51115 0.51079 0.67512 0.0
C4557 C 0.49584 0.49308 0.66151 0.0
C4558 C 0.5227 0.5205 0.67565 0.0
C4559 C 0.53096 0.52332 0.66317 0.0
C4560 C 0.50766 0.50393 0.66197 0.0
C4561 C 0.52692 0.51653 0.65011 0.0
C4562 C 0.4879 0.49033 0.64878 0.0
C4563 C 0.48115 0.47626 0.67457 0.0
N4564 N 0.5155 0.50712 0.64982 0.0
N4565 N 0.4923 0.48586 0.67391 0.0
H4566 H 0.47631 0.97235 0.18509 0.0
H4567 H 0.53199 0.01965 0.13948 0.0
H4568 H 0.46754 0.98203 0.14004 0.0
H4569 H 0.52417 0.02555 0.18534 0.0
H4570 H 0.51094 0.00316 0.1384 0.0
H4571 H 0.49723 0.98848 0.18425 0.0
C4572 C 0.47887 0.97775 0.17495 0.0
C4573 C 0.47011 0.97591 0.16263 0.0
C4574 C 0.51384 0.0082 0.14863 0.0
C4575 C 0.49408 0.99445 0.16165 0.0
C4576 C 0.5258 0.01758 0.14926 0.0
C4577 C 0.52983 0.02395 0.16253 0.0
C4578 C 0.50617 0.005 0.16141 0.0
C4579 C 0.52146 0.02091 0.17488 0.0
C4580 C 0.49076 0.98704 0.17453 0.0
C4581 C 0.474 0.98321 0.1498 0.0
N4582 N 0.51015 0.01154 0.17405 0.0
N4583 N 0.48575 0.9922 0.14962 0.0
H4584 H 0.46947 0.52177 0.36016 0.0
H4585 H 0.52345 0.47366 0.31349 0.0
H4586 H 0.47799 0.52902 0.31462 0.0
H4587 H 0.53212 0.48134 0.35894 0.0
H4588 H 0.50344 0.49091 0.31463 0.0
H4589 H 0.48993 0.50456 0.36086 0.0
C4590 C 0.47572 0.51987 0.35038 0.0
C4591 C 0.47202 0.5268 0.3373 0.0
C4592 C 0.50969 0.48879 0.32437 0.0
C4593 C 0.495 0.50701 0.33797 0.0
C4594 C 0.52105 0.47885 0.32377 0.0
C4595 C 0.52951 0.47611 0.33613 0.0
C4596 C 0.5066 0.49593 0.33746 0.0
C4597 C 0.52588 0.4832 0.34915 0.0
C4598 C 0.48734 0.51006 0.35079 0.0
C4599 C 0.48044 0.52394 0.32494 0.0
N4600 N 0.51463 0.49282 0.3495 0.0
N4601 N 0.49141 0.51414 0.32554 0.0
H4602 H 0.52246 0.97255 0.81273 0.0
H4603 H 0.46767 0.02019 0.85914 0.0
H4604 H 0.53115 0.98105 0.85803 0.0
H4605 H 0.47569 0.0268 0.81341 0.0
H4606 H 0.48835 0.00322 0.85991 0.0
H4607 H 0.50193 0.98918 0.81378 0.0
C4608 C 0.51996 0.9778 0.82296 0.0
C4609 C 0.52859 0.97547 0.8353 0.0
C4610 C 0.48557 0.00852 0.84978 0.0
C4611 C 0.50507 0.99459 0.83653 0.0
C4612 C 0.47383 0.01818 0.84932 0.0
C4613 C 0.46996 0.0249 0.83618 0.0
C4614 C 0.4932 0.00539 0.83695 0.0
C4615 C 0.47828 0.0219 0.82378 0.0
C4616 C 0.5083 0.98737 0.82351 0.0
C4617 C 0.5248 0.9826 0.84825 0.0
N4618 N 0.48938 0.01226 0.82444 0.0
N4619 N 0.51327 0.99188 0.84856 0.0
H4620 H 0.68729 0.97775 0.97096 0.0
H4621 H 0.64191 0.0323 0.01997 0.0
H4622 H 0.64203 0.96947 0.97999 0.0
H4623 H 0.68778 0.02429 0.02548 0.0
H4624 H 0.64079 0.01185 0.00276 0.0
H4625 H 0.68667 0.99817 0.98776 0.0
C4626 C 0.67716 0.98032 0.97636 0.0
C4627 C 0.66471 0.97184 0.97413 0.0
C4628 C 0.65103 0.01457 0.00786 0.0
C4629 C 0.66396 0.99522 0.99344 0.0
C4630 C 0.65169 0.02619 0.01766 0.0
C4631 C 0.66496 0.02999 0.02415 0.0
C4632 C 0.6638 0.007 0.00436 0.0
C4633 C 0.67731 0.02174 0.02077 0.0
C4634 C 0.67685 0.99192 0.98603 0.0
C4635 C 0.65188 0.97571 0.98145 0.0
N4636 N 0.67645 0.01075 0.01101 0.0
N4637 N 0.65182 0.98716 0.99082 0.0
H4638 H 0.71906 0.39089 0.26996 0.0
H4639 H 0.7747 0.43883 0.22504 0.0
H4640 H 0.72763 0.43611 0.27899 0.0
H4641 H 0.78258 0.39299 0.23107 0.0
H4642 H 0.75431 0.43729 0.24181 0.0
H4643 H 0.73999 0.39065 0.2533 0.0
C4644 C 0.72541 0.4007 0.26856 0.0
C4645 C 0.72159 0.41356 0.27583 0.0
C4646 C 0.76047 0.42755 0.23944 0.0
C4647 C 0.74512 0.41341 0.25669 0.0
C4648 C 0.77205 0.42839 0.22978 0.0
C4649 C 0.78038 0.41602 0.22671 0.0
C4650 C 0.75703 0.41422 0.24596 0.0
C4651 C 0.77644 0.40279 0.23321 0.0
C4652 C 0.73729 0.40055 0.25907 0.0
C4653 C 0.73015 0.42596 0.27362 0.0
N4654 N 0.76498 0.40221 0.24255 0.0
N4655 N 0.74139 0.42562 0.26413 0.0
H4656 H 0.33037 0.48597 0.53982 0.0
H4657 H 0.33208 0.51426 0.4618 0.0
H4658 H 0.35019 0.45826 0.50769 0.0
H4659 H 0.35151 0.54145 0.49462 0.0
H4660 H 0.33443 0.4933 0.47823 0.0
H4661 H 0.33381 0.50685 0.52348 0.0
C4662 C 0.33558 0.48435 0.5294 0.0
C4663 C 0.34007 0.47048 0.52505 0.0
C4664 C 0.33835 0.50384 0.48169 0.0
C4665 C 0.34356 0.49398 0.50634 0.0
C4666 C 0.33699 0.51574 0.4724 0.0
C4667 C 0.34168 0.5295 0.47691 0.0
C4668 C 0.34392 0.50591 0.49571 0.0
C4669 C 0.3479 0.53095 0.49075 0.0
C4670 C 0.33757 0.4962 0.52016 0.0
C4671 C 0.34671 0.46885 0.51143 0.0
N4672 N 0.34856 0.51933 0.49983 0.0
N4673 N 0.34798 0.48044 0.50238 0.0
H4674 H 0.21608 0.10977 0.73385 0.0
H4675 H 0.27079 0.06339 0.78179 0.0
H4676 H 0.22406 0.06399 0.72755 0.0
H4677 H 0.27956 0.10863 0.77306 0.0
H4678 H 0.25006 0.0645 0.76542 0.0
H4679 H 0.23657 0.11057 0.75107 0.0
C4680 C 0.22219 0.09994 0.736 0.0
C4681 C 0.21838 0.08679 0.72927 0.0
C4682 C 0.25648 0.07421 0.76713 0.0
C4683 C 0.24139 0.08759 0.74906 0.0
C4684 C 0.26826 0.07363 0.77657 0.0
C4685 C 0.27699 0.08592 0.77872 0.0
C4686 C 0.25324 0.08721 0.75988 0.0
C4687 C 0.27314 0.09889 0.77164 0.0
C4688 C 0.23382 0.10042 0.7458 0.0
C4689 C 0.22661 0.07437 0.73244 0.0
N4690 N 0.26151 0.09921 0.76248 0.0
N4691 N 0.23761 0.07505 0.7422 0.0
H4692 H 0.89036 0.22799 0.28081 0.0
H4693 H 0.93487 0.27819 0.22682 0.0
H4694 H 0.93607 0.22256 0.27189 0.0
H4695 H 0.88979 0.26861 0.21816 0.0
H4696 H 0.9344 0.2611 0.24698 0.0
H4697 H 0.88889 0.24549 0.26062 0.0
C4698 C 0.90002 0.23037 0.27454 0.0
C4699 C 0.91336 0.22383 0.27803 0.0
C4700 C 0.92459 0.26278 0.24071 0.0
C4701 C 0.91181 0.24395 0.25536 0.0
C4702 C 0.9248 0.27262 0.22927 0.0
C4703 C 0.91237 0.27476 0.22074 0.0
C4704 C 0.91181 0.2551 0.24382 0.0
C4705 C 0.89963 0.26721 0.22445 0.0
C4706 C 0.89917 0.24033 0.26308 0.0
C4707 C 0.92556 0.2273 0.26959 0.0
N4708 N 0.89966 0.25767 0.23576 0.0
N4709 N 0.92452 0.23723 0.25878 0.0
H4710 H 0.64168 0.53117 0.51905 0.0
H4711 H 0.68729 0.47503 0.47201 0.0
H4712 H 0.68761 0.52363 0.52476 0.0
H4713 H 0.64176 0.4677 0.48048 0.0
H4714 H 0.68675 0.49582 0.48834 0.0
H4715 H 0.64067 0.5102 0.5025 0.0
C4716 C 0.6515 0.52505 0.51692 0.0
C4717 C 0.66475 0.52914 0.52326 0.0
C4718 C 0.67686 0.48969 0.4866 0.0
C4719 C 0.66371 0.50551 0.50424 0.0
C4720 C 0.67712 0.47788 0.47719 0.0
C4721 C 0.66456 0.46958 0.47493 0.0
C4722 C 0.66391 0.49339 0.49371 0.0
C4723 C 0.6517 0.4738 0.48198 0.0
C4724 C 0.6509 0.51313 0.5075 0.0
C4725 C 0.67715 0.52087 0.52014 0.0
N4726 N 0.65168 0.48547 0.49108 0.0
N4727 N 0.67635 0.50955 0.51074 0.0
H4728 H 0.72709 0.93521 0.77899 0.0
H4729 H 0.78291 0.88923 0.73198 0.0
H4730 H 0.71889 0.8899 0.77006 0.0
H4731 H 0.77523 0.93509 0.72592 0.0
H4732 H 0.76196 0.88832 0.74861 0.0
H4733 H 0.74801 0.93437 0.76285 0.0
C4734 C 0.72978 0.92502 0.77376 0.0
C4735 C 0.72118 0.91262 0.77581 0.0
C4736 C 0.76487 0.89851 0.74352 0.0
C4737 C 0.74515 0.91163 0.75725 0.0
C4738 C 0.77677 0.89905 0.73405 0.0
C4739 C 0.7808 0.91226 0.72757 0.0
C4740 C 0.75725 0.91133 0.7467 0.0
C4741 C 0.77251 0.92467 0.73063 0.0
C4742 C 0.74167 0.92459 0.76446 0.0
C4743 C 0.72522 0.89972 0.76871 0.0
N4744 N 0.76124 0.92392 0.74007 0.0
N4745 N 0.73696 0.89954 0.75971 0.0
H4746 H 0.31125 0.97751 0.02531 0.0
H4747 H 0.3578 0.03337 0.97909 0.0
H4748 H 0.35701 0.97008 0.01829 0.0
H4749 H 0.3123 0.02493 0.97159 0.0
H4750 H 0.35854 0.01248 0.99578 0.0
H4751 H 0.31222 0.99792 0.00855 0.0
C4752 C 0.32156 0.98026 0.02035 0.0
C4753 C 0.33407 0.97204 0.02316 0.0
C4754 C 0.34847 0.01519 0.99034 0.0
C4755 C 0.33521 0.99544 0.00388 0.0
C4756 C 0.34803 0.02706 0.98084 0.0
C4757 C 0.33496 0.0309 0.97397 0.0
C4758 C 0.33567 0.00738 0.99316 0.0
C4759 C 0.32261 0.02239 0.97662 0.0
C4760 C 0.32207 0.99186 0.01069 0.0
C4761 C 0.34711 0.97612 0.01637 0.0
N4762 N 0.32324 0.01115 0.98611 0.0
N4763 N 0.34737 0.9876 0.00702 0.0
H4764 H 0.21974 0.60981 0.22792 0.0
H4765 H 0.27341 0.56201 0.27528 0.0
H4766 H 0.22813 0.56439 0.2198 0.0
H4767 H 0.2821 0.60762 0.2687 0.0
H4768 H 0.25353 0.56353 0.25792 0.0
H4769 H 0.24016 0.6101 0.24519 0.0
C4770 C 0.22596 0.59997 0.22964 0.0
C4771 C 0.22222 0.58704 0.22245 0.0
C4772 C 0.25975 0.57323 0.2603 0.0
C4773 C 0.24516 0.58725 0.24231 0.0
C4774 C 0.27104 0.57241 0.27031 0.0
C4775 C 0.27947 0.5847 0.27339 0.0
C4776 C 0.25671 0.58648 0.25344 0.0
C4777 C 0.27588 0.59788 0.26657 0.0
C4778 C 0.23755 0.60015 0.23948 0.0
C4779 C 0.2306 0.5746 0.22508 0.0
N4780 N 0.26471 0.59844 0.25688 0.0
N4781 N 0.24155 0.57497 0.23492 0.0
H4782 H 0.9214 0.71002 0.76628 0.0
H4783 H 0.92235 0.78779 0.73722 0.0
H4784 H 0.90034 0.74252 0.79262 0.0
H4785 H 0.90256 0.75546 0.7097 0.0
H4786 H 0.91922 0.77142 0.75814 0.0
H4787 H 0.9194 0.72632 0.74516 0.0
C4788 C 0.91622 0.72052 0.76754 0.0
C4789 C 0.91093 0.72497 0.7811 0.0
C4790 C 0.91543 0.76805 0.74752 0.0
C4791 C 0.90912 0.74364 0.75736 0.0
C4792 C 0.91724 0.77731 0.73564 0.0
C4793 C 0.91262 0.77293 0.72182 0.0
C4794 C 0.9095 0.75419 0.74537 0.0
C4795 C 0.90612 0.75923 0.72025 0.0
C4796 C 0.91507 0.72974 0.75556 0.0
C4797 C 0.9044 0.73868 0.78227 0.0
N4798 N 0.90501 0.75017 0.73187 0.0
N4799 N 0.90394 0.74771 0.77059 0.0
loop_
_geom_bond_atom_site_label_1
_geom_bond_atom_site_label_2
_geom_bond_distance
_geom_bond_site_symmetry_2
_ccdc_geom_bond_type
Co0 O1 2.216 . S
Co0 O2 2.091 . S
Co0 O4 2.004 . S
Co0 O10 2.021 . S
Co0 O12 2.137 . S
Co0 O13 2.244 . S
O1 Co0 2.216 . S
O1 C8 1.247 . S
O2 Co0 2.091 . S
O2 C8 1.261 . S
C3 O12 1.247 . S
C3 O13 1.272 . S
O4 Co0 2.004 . S
O4 C9 1.259 . S
Co5 O6 2.061 . S
Co5 O11 2.052 . S
Co5 O13 2.135 . S
O6 Co5 2.061 . S
O6 C9 1.235 . S
C7 O10 1.238 . S
C7 O11 1.241 . S
C8 O1 1.247 . S
C8 O2 1.261 . S
C9 O4 1.259 . S
C9 O6 1.235 . S
O10 Co0 2.021 . S
O10 C7 1.238 . S
O11 Co5 2.052 . S
O11 C7 1.241 . S
O12 Co0 2.137 . S
O12 C3 1.247 . S
O13 Co0 2.244 . S
O13 C3 1.272 . S
O13 Co5 2.135 . S
Co14 O15 2.216 . S
Co14 O16 2.091 . S
Co14 O18 2.004 . S
Co14 O24 2.021 . S
Co14 O26 2.137 . S
Co14 O27 2.244 . S
O15 Co14 2.216 . S
O15 C22 1.247 . S
O16 Co14 2.091 . S
O16 C22 1.261 . S
C17 O26 1.247 . S
C17 O27 1.272 . S
O18 Co14 2.004 . S
O18 C23 1.259 . S
Co19 O20 2.061 . S
Co19 O25 2.052 . S
Co19 O27 2.135 . S
O20 Co19 2.061 . S
O20 C23 1.235 . S
C21 O24 1.238 . S
C21 O25 1.241 . S
C22 O15 1.247 . S
C22 O16 1.261 . S
C23 O18 1.259 . S
C23 O20 1.235 . S
O24 Co14 2.021 . S
O24 C21 1.238 . S
O25 Co19 2.052 . S
O25 C21 1.241 . S
O26 Co14 2.137 . S
O26 C17 1.247 . S
O27 Co14 2.244 . S
O27 C17 1.272 . S
O27 Co19 2.135 . S
Co28 O29 2.216 . S
Co28 O30 2.091 . S
Co28 O32 2.004 . S
Co28 O38 2.021 . S
Co28 O40 2.137 . S
Co28 O41 2.244 . S
O29 Co28 2.216 . S
O29 C36 1.247 . S
O30 Co28 2.091 . S
O30 C36 1.261 . S
C31 O40 1.247 . S
C31 O41 1.272 . S
O32 Co28 2.004 . S
O32 C37 1.259 . S
Co33 O34 2.061 . S
Co33 O39 2.052 . S
Co33 O41 2.135 . S
O34 Co33 2.061 . S
O34 C37 1.235 . S
C35 O38 1.238 . S
C35 O39 1.241 . S
C36 O29 1.247 . S
C36 O30 1.261 . S
C37 O32 1.259 . S
C37 O34 1.235 . S
O38 Co28 2.021 . S
O38 C35 1.238 . S
O39 Co33 2.052 . S
O39 C35 1.241 . S
O40 Co28 2.137 . S
O40 C31 1.247 . S
O41 Co28 2.244 . S
O41 C31 1.272 . S
O41 Co33 2.135 . S
Co42 O43 2.216 . S
Co42 O44 2.091 . S
Co42 O46 2.004 . S
Co42 O52 2.021 . S
Co42 O54 2.137 . S
Co42 O55 2.244 . S
O43 Co42 2.216 . S
O43 C50 1.247 . S
O44 Co42 2.091 . S
O44 C50 1.261 . S
C45 O54 1.247 . S
C45 O55 1.272 . S
O46 Co42 2.004 . S
O46 C51 1.259 . S
Co47 O48 2.061 . S
Co47 O53 2.052 . S
Co47 O55 2.135 . S
O48 Co47 2.061 . S
O48 C51 1.235 . S
C49 O52 1.238 . S
C49 O53 1.241 . S
C50 O43 1.247 . S
C50 O44 1.261 . S
C51 O46 1.259 . S
C51 O48 1.235 . S
O52 Co42 2.021 . S
O52 C49 1.238 . S
O53 Co47 2.052 . S
O53 C49 1.241 . S
O54 Co42 2.137 . S
O54 C45 1.247 . S
O55 Co42 2.244 . S
O55 C45 1.272 . S
O55 Co47 2.135 . S
Co56 O57 2.216 . S
Co56 O58 2.091 . S
Co56 O60 2.004 . S
Co56 O66 2.021 . S
Co56 O68 2.137 . S
Co56 O69 2.244 . S
O57 Co56 2.216 . S
O57 C64 1.247 . S
O58 Co56 2.091 . S
O58 C64 1.261 . S
C59 O68 1.247 . S
C59 O69 1.272 . S
O60 Co56 2.004 . S
O60 C65 1.259 . S
Co61 O62 2.061 . S
Co61 O67 2.052 . S
Co61 O69 2.135 . S
O62 Co61 2.061 . S
O62 C65 1.235 . S
C63 O66 1.238 . S
C63 O67 1.241 . S
C64 O57 1.247 . S
C64 O58 1.261 . S
C65 O60 1.259 . S
C65 O62 1.235 . S
O66 Co56 2.021 . S
O66 C63 1.238 . S
O67 Co61 2.052 . S
O67 C63 1.241 . S
O68 Co56 2.137 . S
O68 C59 1.247 . S
O69 Co56 2.244 . S
O69 C59 1.272 . S
O69 Co61 2.135 . S
Co70 O71 2.216 . S
Co70 O72 2.091 . S
Co70 O74 2.004 . S
Co70 O80 2.021 . S
Co70 O82 2.137 . S
Co70 O83 2.244 . S
O71 Co70 2.216 . S
O71 C78 1.247 . S
O72 Co70 2.091 . S
O72 C78 1.261 . S
C73 O82 1.247 . S
C73 O83 1.272 . S
O74 Co70 2.004 . S
O74 C79 1.259 . S
Co75 O76 2.061 . S
Co75 O81 2.052 . S
Co75 O83 2.135 . S
O76 Co75 2.061 . S
O76 C79 1.235 . S
C77 O80 1.238 . S
C77 O81 1.241 . S
C78 O71 1.247 . S
C78 O72 1.261 . S
C79 O74 1.259 . S
C79 O76 1.235 . S
O80 Co70 2.021 . S
O80 C77 1.238 . S
O81 Co75 2.052 . S
O81 C77 1.241 . S
O82 Co70 2.137 . S
O82 C73 1.247 . S
O83 Co70 2.244 . S
O83 C73 1.272 . S
O83 Co75 2.135 . S
Co84 O85 2.216 . S
Co84 O86 2.091 . S
Co84 O88 2.004 . S
Co84 O94 2.021 . S
Co84 O96 2.137 . S
Co84 O97 2.244 . S
O85 Co84 2.216 . S
O85 C92 1.247 . S
O86 Co84 2.091 . S
O86 C92 1.261 . S
C87 O96 1.247 . S
C87 O97 1.272 . S
O88 Co84 2.004 . S
O88 C93 1.259 . S
Co89 O90 2.061 . S
Co89 O95 2.052 . S
Co89 O97 2.135 . S
O90 Co89 2.061 . S
O90 C93 1.235 . S
C91 O94 1.238 . S
C91 O95 1.241 . S
C92 O85 1.247 . S
C92 O86 1.261 . S
C93 O88 1.259 . S
C93 O90 1.235 . S
O94 Co84 2.021 . S
O94 C91 1.238 . S
O95 Co89 2.052 . S
O95 C91 1.241 . S
O96 Co84 2.137 . S
O96 C87 1.247 . S
O97 Co84 2.244 . S
O97 C87 1.272 . S
O97 Co89 2.135 . S
Co98 O99 2.216 . S
Co98 O100 2.091 . S
Co98 O102 2.004 . S
Co98 O108 2.021 . S
Co98 O110 2.137 . S
Co98 O111 2.244 . S
O99 Co98 2.216 . S
O99 C106 1.247 . S
O100 Co98 2.091 . S
O100 C106 1.261 . S
C101 O110 1.247 . S
C101 O111 1.272 . S
O102 Co98 2.004 . S
O102 C107 1.259 . S
Co103 O104 2.061 . S
Co103 O109 2.052 . S
Co103 O111 2.135 . S
O104 Co103 2.061 . S
O104 C107 1.235 . S
C105 O108 1.238 . S
C105 O109 1.241 . S
C106 O99 1.247 . S
C106 O100 1.261 . S
C107 O102 1.259 . S
C107 O104 1.235 . S
O108 Co98 2.021 . S
O108 C105 1.238 . S
O109 Co103 2.052 . S
O109 C105 1.241 . S
O110 Co98 2.137 . S
O110 C101 1.247 . S
O111 Co98 2.244 . S
O111 C101 1.272 . S
O111 Co103 2.135 . S
Co112 O113 2.216 . S
Co112 O114 2.091 . S
Co112 O116 2.004 . S
Co112 O122 2.021 . S
Co112 O124 2.137 . S
Co112 O125 2.244 . S
O113 Co112 2.216 . S
O113 C120 1.247 . S
O114 Co112 2.091 . S
O114 C120 1.261 . S
C115 O124 1.247 . S
C115 O125 1.272 . S
O116 Co112 2.004 . S
O116 C121 1.259 . S
Co117 O118 2.061 . S
Co117 O123 2.052 . S
Co117 O125 2.135 . S
O118 Co117 2.061 . S
O118 C121 1.235 . S
C119 O122 1.238 . S
C119 O123 1.241 . S
C120 O113 1.247 . S
C120 O114 1.261 . S
C121 O116 1.259 . S
C121 O118 1.235 . S
O122 Co112 2.021 . S
O122 C119 1.238 . S
O123 Co117 2.052 . S
O123 C119 1.241 . S
O124 Co112 2.137 . S
O124 C115 1.247 . S
O125 Co112 2.244 . S
O125 C115 1.272 . S
O125 Co117 2.135 . S
Co126 O127 2.216 . S
Co126 O128 2.091 . S
Co126 O130 2.004 . S
Co126 O136 2.021 . S
Co126 O138 2.137 . S
Co126 O139 2.244 . S
O127 Co126 2.216 . S
O127 C134 1.247 . S
O128 Co126 2.091 . S
O128 C134 1.261 . S
C129 O138 1.247 . S
C129 O139 1.272 . S
O130 Co126 2.004 . S
O130 C135 1.259 . S
Co131 O132 2.061 . S
Co131 O137 2.052 . S
Co131 O139 2.135 . S
O132 Co131 2.061 . S
O132 C135 1.235 . S
C133 O136 1.238 . S
C133 O137 1.241 . S
C134 O127 1.247 . S
C134 O128 1.261 . S
C135 O130 1.259 . S
C135 O132 1.235 . S
O136 Co126 2.021 . S
O136 C133 1.238 . S
O137 Co131 2.052 . S
O137 C133 1.241 . S
O138 Co126 2.137 . S
O138 C129 1.247 . S
O139 Co126 2.244 . S
O139 C129 1.272 . S
O139 Co131 2.135 . S
Co140 O141 2.216 . S
Co140 O142 2.091 . S
Co140 O144 2.004 . S
Co140 O150 2.021 . S
Co140 O152 2.137 . S
Co140 O153 2.244 . S
O141 Co140 2.216 . S
O141 C148 1.247 . S
O142 Co140 2.091 . S
O142 C148 1.261 . S
C143 O152 1.247 . S
C143 O153 1.272 . S
O144 Co140 2.004 . S
O144 C149 1.259 . S
Co145 O146 2.061 . S
Co145 O151 2.052 . S
Co145 O153 2.135 . S
O146 Co145 2.061 . S
O146 C149 1.235 . S
C147 O150 1.238 . S
C147 O151 1.241 . S
C148 O141 1.247 . S
C148 O142 1.261 . S
C149 O144 1.259 . S
C149 O146 1.235 . S
O150 Co140 2.021 . S
O150 C147 1.238 . S
O151 Co145 2.052 . S
O151 C147 1.241 . S
O152 Co140 2.137 . S
O152 C143 1.247 . S
O153 Co140 2.244 . S
O153 C143 1.272 . S
O153 Co145 2.135 . S
Co154 O155 2.216 . S
Co154 O156 2.091 . S
Co154 O158 2.004 . S
Co154 O164 2.021 . S
Co154 O166 2.137 . S
Co154 O167 2.244 . S
O155 Co154 2.216 . S
O155 C162 1.247 . S
O156 Co154 2.091 . S
O156 C162 1.261 . S
C157 O166 1.247 . S
C157 O167 1.272 . S
O158 Co154 2.004 . S
O158 C163 1.259 . S
Co159 O160 2.061 . S
Co159 O165 2.052 . S
Co159 O167 2.135 . S
O160 Co159 2.061 . S
O160 C163 1.235 . S
C161 O164 1.238 . S
C161 O165 1.241 . S
C162 O155 1.247 . S
C162 O156 1.261 . S
C163 O158 1.259 . S
C163 O160 1.235 . S
O164 Co154 2.021 . S
O164 C161 1.238 . S
O165 Co159 2.052 . S
O165 C161 1.241 . S
O166 Co154 2.137 . S
O166 C157 1.247 . S
O167 Co154 2.244 . S
O167 C157 1.272 . S
O167 Co159 2.135 . S
Co168 O169 2.216 . S
Co168 O170 2.091 . S
Co168 O172 2.004 . S
Co168 O178 2.021 . S
Co168 O180 2.137 . S
Co168 O181 2.244 . S
O169 Co168 2.216 . S
O169 C176 1.247 . S
O170 Co168 2.091 . S
O170 C176 1.261 . S
C171 O180 1.247 . S
C171 O181 1.272 . S
O172 Co168 2.004 . S
O172 C177 1.259 . S
Co173 O174 2.061 . S
Co173 O179 2.052 . S
Co173 O181 2.135 . S
O174 Co173 2.061 . S
O174 C177 1.235 . S
C175 O178 1.238 . S
C175 O179 1.241 . S
C176 O169 1.247 . S
C176 O170 1.261 . S
C177 O172 1.259 . S
C177 O174 1.235 . S
O178 Co168 2.021 . S
O178 C175 1.238 . S
O179 Co173 2.052 . S
O179 C175 1.241 . S
O180 Co168 2.137 . S
O180 C171 1.247 . S
O181 Co168 2.244 . S
O181 C171 1.272 . S
O181 Co173 2.135 . S
Co182 O183 2.216 . S
Co182 O184 2.091 . S
Co182 O186 2.004 . S
Co182 O192 2.021 . S
Co182 O194 2.137 . S
Co182 O195 2.244 . S
O183 Co182 2.216 . S
O183 C190 1.247 . S
O184 Co182 2.091 . S
O184 C190 1.261 . S
C185 O194 1.247 . S
C185 O195 1.272 . S
O186 Co182 2.004 . S
O186 C191 1.259 . S
Co187 O188 2.061 . S
Co187 O193 2.052 . S
Co187 O195 2.135 . S
O188 Co187 2.061 . S
O188 C191 1.235 . S
C189 O192 1.238 . S
C189 O193 1.241 . S
C190 O183 1.247 . S
C190 O184 1.261 . S
C191 O186 1.259 . S
C191 O188 1.235 . S
O192 Co182 2.021 . S
O192 C189 1.238 . S
O193 Co187 2.052 . S
O193 C189 1.241 . S
O194 Co182 2.137 . S
O194 C185 1.247 . S
O195 Co182 2.244 . S
O195 C185 1.272 . S
O195 Co187 2.135 . S
Co196 O197 2.216 . S
Co196 O198 2.091 . S
Co196 O200 2.004 . S
Co196 O206 2.021 . S
Co196 O208 2.137 . S
Co196 O209 2.244 . S
O197 Co196 2.216 . S
O197 C204 1.247 . S
O198 Co196 2.091 . S
O198 C204 1.261 . S
C199 O208 1.247 . S
C199 O209 1.272 . S
O200 Co196 2.004 . S
O200 C205 1.259 . S
Co201 O202 2.061 . S
Co201 O207 2.052 . S
Co201 O209 2.135 . S
O202 Co201 2.061 . S
O202 C205 1.235 . S
C203 O206 1.238 . S
C203 O207 1.241 . S
C204 O197 1.247 . S
C204 O198 1.261 . S
C205 O200 1.259 . S
C205 O202 1.235 . S
O206 Co196 2.021 . S
O206 C203 1.238 . S
O207 Co201 2.052 . S
O207 C203 1.241 . S
O208 Co196 2.137 . S
O208 C199 1.247 . S
O209 Co196 2.244 . S
O209 C199 1.272 . S
O209 Co201 2.135 . S
Co210 O211 2.216 . S
Co210 O212 2.091 . S
Co210 O214 2.004 . S
Co210 O220 2.021 . S
Co210 O222 2.137 . S
Co210 O223 2.244 . S
O211 Co210 2.216 . S
O211 C218 1.247 . S
O212 Co210 2.091 . S
O212 C218 1.261 . S
C213 O222 1.247 . S
C213 O223 1.272 . S
O214 Co210 2.004 . S
O214 C219 1.259 . S
Co215 O216 2.061 . S
Co215 O221 2.052 . S
Co215 O223 2.135 . S
O216 Co215 2.061 . S
O216 C219 1.235 . S
C217 O220 1.238 . S
C217 O221 1.241 . S
C218 O211 1.247 . S
C218 O212 1.261 . S
C219 O214 1.259 . S
C219 O216 1.235 . S
O220 Co210 2.021 . S
O220 C217 1.238 . S
O221 Co215 2.052 . S
O221 C217 1.241 . S
O222 Co210 2.137 . S
O222 C213 1.247 . S
O223 Co210 2.244 . S
O223 C213 1.272 . S
O223 Co215 2.135 . S
Co224 O225 2.216 . S
Co224 O226 2.091 . S
Co224 O228 2.004 . S
Co224 O234 2.021 . S
Co224 O236 2.137 . S
Co224 O237 2.244 . S
O225 Co224 2.216 . S
O225 C232 1.247 . S
O226 Co224 2.091 . S
O226 C232 1.261 . S
C227 O236 1.247 . S
C227 O237 1.272 . S
O228 Co224 2.004 . S
O228 C233 1.259 . S
Co229 O230 2.061 . S
Co229 O235 2.052 . S
Co229 O237 2.135 . S
O230 Co229 2.061 . S
O230 C233 1.235 . S
C231 O234 1.238 . S
C231 O235 1.241 . S
C232 O225 1.247 . S
C232 O226 1.261 . S
C233 O228 1.259 . S
C233 O230 1.235 . S
O234 Co224 2.021 . S
O234 C231 1.238 . S
O235 Co229 2.052 . S
O235 C231 1.241 . S
O236 Co224 2.137 . S
O236 C227 1.247 . S
O237 Co224 2.244 . S
O237 C227 1.272 . S
O237 Co229 2.135 . S
Co238 O239 2.216 . S
Co238 O240 2.091 . S
Co238 O242 2.004 . S
Co238 O248 2.021 . S
Co238 O250 2.137 . S
Co238 O251 2.244 . S
O239 Co238 2.216 . S
O239 C246 1.247 . S
O240 Co238 2.091 . S
O240 C246 1.261 . S
C241 O250 1.247 . S
C241 O251 1.272 . S
O242 Co238 2.004 . S
O242 C247 1.259 . S
Co243 O244 2.061 . S
Co243 O249 2.052 . S
Co243 O251 2.135 . S
O244 Co243 2.061 . S
O244 C247 1.235 . S
C245 O248 1.238 . S
C245 O249 1.241 . S
C246 O239 1.247 . S
C246 O240 1.261 . S
C247 O242 1.259 . S
C247 O244 1.235 . S
O248 Co238 2.021 . S
O248 C245 1.238 . S
O249 Co243 2.052 . S
O249 C245 1.241 . S
O250 Co238 2.137 . S
O250 C241 1.247 . S
O251 Co238 2.244 . S
O251 C241 1.272 . S
O251 Co243 2.135 . S
Co252 O253 2.216 . S
Co252 O254 2.091 . S
Co252 O256 2.004 . S
Co252 O262 2.021 . S
Co252 O264 2.137 . S
Co252 O265 2.244 . S
O253 Co252 2.216 . S
O253 C260 1.247 . S
O254 Co252 2.091 . S
O254 C260 1.261 . S
C255 O264 1.247 . S
C255 O265 1.272 . S
O256 Co252 2.004 . S
O256 C261 1.259 . S
Co257 O258 2.061 . S
Co257 O263 2.052 . S
Co257 O265 2.135 . S
O258 Co257 2.061 . S
O258 C261 1.235 . S
C259 O262 1.238 . S
C259 O263 1.241 . S
C260 O253 1.247 . S
C260 O254 1.261 . S
C261 O256 1.259 . S
C261 O258 1.235 . S
O262 Co252 2.021 . S
O262 C259 1.238 . S
O263 Co257 2.052 . S
O263 C259 1.241 . S
O264 Co252 2.137 . S
O264 C255 1.247 . S
O265 Co252 2.244 . S
O265 C255 1.272 . S
O265 Co257 2.135 . S
Co266 O267 2.216 . S
Co266 O268 2.091 . S
Co266 O270 2.004 . S
Co266 O276 2.021 . S
Co266 O278 2.137 . S
Co266 O279 2.244 . S
O267 Co266 2.216 . S
O267 C274 1.247 . S
O268 Co266 2.091 . S
O268 C274 1.261 . S
C269 O278 1.247 . S
C269 O279 1.272 . S
O270 Co266 2.004 . S
O270 C275 1.259 . S
Co271 O272 2.061 . S
Co271 O277 2.052 . S
Co271 O279 2.135 . S
O272 Co271 2.061 . S
O272 C275 1.235 . S
C273 O276 1.238 . S
C273 O277 1.241 . S
C274 O267 1.247 . S
C274 O268 1.261 . S
C275 O270 1.259 . S
C275 O272 1.235 . S
O276 Co266 2.021 . S
O276 C273 1.238 . S
O277 Co271 2.052 . S
O277 C273 1.241 . S
O278 Co266 2.137 . S
O278 C269 1.247 . S
O279 Co266 2.244 . S
O279 C269 1.272 . S
O279 Co271 2.135 . S
Co280 O281 2.216 . S
Co280 O282 2.091 . S
Co280 O284 2.004 . S
Co280 O290 2.021 . S
Co280 O292 2.137 . S
Co280 O293 2.244 . S
O281 Co280 2.216 . S
O281 C288 1.247 . S
O282 Co280 2.091 . S
O282 C288 1.261 . S
C283 O292 1.247 . S
C283 O293 1.272 . S
O284 Co280 2.004 . S
O284 C289 1.259 . S
Co285 O286 2.061 . S
Co285 O291 2.052 . S
Co285 O293 2.135 . S
O286 Co285 2.061 . S
O286 C289 1.235 . S
C287 O290 1.238 . S
C287 O291 1.241 . S
C288 O281 1.247 . S
C288 O282 1.261 . S
C289 O284 1.259 . S
C289 O286 1.235 . S
O290 Co280 2.021 . S
O290 C287 1.238 . S
O291 Co285 2.052 . S
O291 C287 1.241 . S
O292 Co280 2.137 . S
O292 C283 1.247 . S
O293 Co280 2.244 . S
O293 C283 1.272 . S
O293 Co285 2.135 . S
Co294 O295 2.216 . S
Co294 O296 2.091 . S
Co294 O298 2.004 . S
Co294 O304 2.021 . S
Co294 O306 2.137 . S
Co294 O307 2.244 . S
O295 Co294 2.216 . S
O295 C302 1.247 . S
O296 Co294 2.091 . S
O296 C302 1.261 . S
C297 O306 1.247 . S
C297 O307 1.272 . S
O298 Co294 2.004 . S
O298 C303 1.259 . S
Co299 O300 2.061 . S
Co299 O305 2.052 . S
Co299 O307 2.135 . S
O300 Co299 2.061 . S
O300 C303 1.235 . S
C301 O304 1.238 . S
C301 O305 1.241 . S
C302 O295 1.247 . S
C302 O296 1.261 . S
C303 O298 1.259 . S
C303 O300 1.235 . S
O304 Co294 2.021 . S
O304 C301 1.238 . S
O305 Co299 2.052 . S
O305 C301 1.241 . S
O306 Co294 2.137 . S
O306 C297 1.247 . S
O307 Co294 2.244 . S
O307 C297 1.272 . S
O307 Co299 2.135 . S
Co308 O309 2.216 . S
Co308 O310 2.091 . S
Co308 O312 2.004 . S
Co308 O318 2.021 . S
Co308 O320 2.137 . S
Co308 O321 2.244 . S
O309 Co308 2.216 . S
O309 C316 1.247 . S
O310 Co308 2.091 . S
O310 C316 1.261 . S
C311 O320 1.247 . S
C311 O321 1.272 . S
O312 Co308 2.004 . S
O312 C317 1.259 . S
Co313 O314 2.061 . S
Co313 O319 2.052 . S
Co313 O321 2.135 . S
O314 Co313 2.061 . S
O314 C317 1.235 . S
C315 O318 1.238 . S
C315 O319 1.241 . S
C316 O309 1.247 . S
C316 O310 1.261 . S
C317 O312 1.259 . S
C317 O314 1.235 . S
O318 Co308 2.021 . S
O318 C315 1.238 . S
O319 Co313 2.052 . S
O319 C315 1.241 . S
O320 Co308 2.137 . S
O320 C311 1.247 . S
O321 Co308 2.244 . S
O321 C311 1.272 . S
O321 Co313 2.135 . S
Co322 O323 2.216 . S
Co322 O324 2.091 . S
Co322 O326 2.004 . S
Co322 O332 2.021 . S
Co322 O334 2.137 . S
Co322 O335 2.244 . S
O323 Co322 2.216 . S
O323 C330 1.247 . S
O324 Co322 2.091 . S
O324 C330 1.261 . S
C325 O334 1.247 . S
C325 O335 1.272 . S
O326 Co322 2.004 . S
O326 C331 1.259 . S
Co327 O328 2.061 . S
Co327 O333 2.052 . S
Co327 O335 2.135 . S
O328 Co327 2.061 . S
O328 C331 1.235 . S
C329 O332 1.238 . S
C329 O333 1.241 . S
C330 O323 1.247 . S
C330 O324 1.261 . S
C331 O326 1.259 . S
C331 O328 1.235 . S
O332 Co322 2.021 . S
O332 C329 1.238 . S
O333 Co327 2.052 . S
O333 C329 1.241 . S
O334 Co322 2.137 . S
O334 C325 1.247 . S
O335 Co322 2.244 . S
O335 C325 1.272 . S
O335 Co327 2.135 . S
Co336 O337 2.216 . S
Co336 O338 2.091 . S
Co336 O340 2.004 . S
Co336 O346 2.021 . S
Co336 O348 2.137 . S
Co336 O349 2.244 . S
O337 Co336 2.216 . S
O337 C344 1.247 . S
O338 Co336 2.091 . S
O338 C344 1.261 . S
C339 O348 1.247 . S
C339 O349 1.272 . S
O340 Co336 2.004 . S
O340 C345 1.259 . S
Co341 O342 2.061 . S
Co341 O347 2.052 . S
Co341 O349 2.135 . S
O342 Co341 2.061 . S
O342 C345 1.235 . S
C343 O346 1.238 . S
C343 O347 1.241 . S
C344 O337 1.247 . S
C344 O338 1.261 . S
C345 O340 1.259 . S
C345 O342 1.235 . S
O346 Co336 2.021 . S
O346 C343 1.238 . S
O347 Co341 2.052 . S
O347 C343 1.241 . S
O348 Co336 2.137 . S
O348 C339 1.247 . S
O349 Co336 2.244 . S
O349 C339 1.272 . S
O349 Co341 2.135 . S
Co350 O351 2.216 . S
Co350 O352 2.091 . S
Co350 O354 2.004 . S
Co350 O360 2.021 . S
Co350 O362 2.137 . S
Co350 O363 2.244 . S
O351 Co350 2.216 . S
O351 C358 1.247 . S
O352 Co350 2.091 . S
O352 C358 1.261 . S
C353 O362 1.247 . S
C353 O363 1.272 . S
O354 Co350 2.004 . S
O354 C359 1.259 . S
Co355 O356 2.061 . S
Co355 O361 2.052 . S
Co355 O363 2.135 . S
O356 Co355 2.061 . S
O356 C359 1.235 . S
C357 O360 1.238 . S
C357 O361 1.241 . S
C358 O351 1.247 . S
C358 O352 1.261 . S
C359 O354 1.259 . S
C359 O356 1.235 . S
O360 Co350 2.021 . S
O360 C357 1.238 . S
O361 Co355 2.052 . S
O361 C357 1.241 . S
O362 Co350 2.137 . S
O362 C353 1.247 . S
O363 Co350 2.244 . S
O363 C353 1.272 . S
O363 Co355 2.135 . S
Co364 O365 2.216 . S
Co364 O366 2.091 . S
Co364 O368 2.004 . S
Co364 O374 2.021 . S
Co364 O376 2.137 . S
Co364 O377 2.244 . S
O365 Co364 2.216 . S
O365 C372 1.247 . S
O366 Co364 2.091 . S
O366 C372 1.261 . S
C367 O376 1.247 . S
C367 O377 1.272 . S
O368 Co364 2.004 . S
O368 C373 1.259 . S
Co369 O370 2.061 . S
Co369 O375 2.052 . S
Co369 O377 2.135 . S
O370 Co369 2.061 . S
O370 C373 1.235 . S
C371 O374 1.238 . S
C371 O375 1.241 . S
C372 O365 1.247 . S
C372 O366 1.261 . S
C373 O368 1.259 . S
C373 O370 1.235 . S
O374 Co364 2.021 . S
O374 C371 1.238 . S
O375 Co369 2.052 . S
O375 C371 1.241 . S
O376 Co364 2.137 . S
O376 C367 1.247 . S
O377 Co364 2.244 . S
O377 C367 1.272 . S
O377 Co369 2.135 . S
Co378 O379 2.216 . S
Co378 O380 2.091 . S
Co378 O382 2.004 . S
Co378 O388 2.021 . S
Co378 O390 2.137 . S
Co378 O391 2.244 . S
O379 Co378 2.216 . S
O379 C386 1.247 . S
O380 Co378 2.091 . S
O380 C386 1.261 . S
C381 O390 1.247 . S
C381 O391 1.272 . S
O382 Co378 2.004 . S
O382 C387 1.259 . S
Co383 O384 2.061 . S
Co383 O389 2.052 . S
Co383 O391 2.135 . S
O384 Co383 2.061 . S
O384 C387 1.235 . S
C385 O388 1.238 . S
C385 O389 1.241 . S
C386 O379 1.247 . S
C386 O380 1.261 . S
C387 O382 1.259 . S
C387 O384 1.235 . S
O388 Co378 2.021 . S
O388 C385 1.238 . S
O389 Co383 2.052 . S
O389 C385 1.241 . S
O390 Co378 2.137 . S
O390 C381 1.247 . S
O391 Co378 2.244 . S
O391 C381 1.272 . S
O391 Co383 2.135 . S
Co392 O393 2.216 . S
Co392 O394 2.091 . S
Co392 O396 2.004 . S
Co392 O402 2.021 . S
Co392 O404 2.137 . S
Co392 O405 2.244 . S
O393 Co392 2.216 . S
O393 C400 1.247 . S
O394 Co392 2.091 . S
O394 C400 1.261 . S
C395 O404 1.247 . S
C395 O405 1.272 . S
O396 Co392 2.004 . S
O396 C401 1.259 . S
Co397 O398 2.061 . S
Co397 O403 2.052 . S
Co397 O405 2.135 . S
O398 Co397 2.061 . S
O398 C401 1.235 . S
C399 O402 1.238 . S
C399 O403 1.241 . S
C400 O393 1.247 . S
C400 O394 1.261 . S
C401 O396 1.259 . S
C401 O398 1.235 . S
O402 Co392 2.021 . S
O402 C399 1.238 . S
O403 Co397 2.052 . S
O403 C399 1.241 . S
O404 Co392 2.137 . S
O404 C395 1.247 . S
O405 Co392 2.244 . S
O405 C395 1.272 . S
O405 Co397 2.135 . S
Co406 O407 2.216 . S
Co406 O408 2.091 . S
Co406 O410 2.004 . S
Co406 O416 2.021 . S
Co406 O418 2.137 . S
Co406 O419 2.244 . S
O407 Co406 2.216 . S
O407 C414 1.247 . S
O408 Co406 2.091 . S
O408 C414 1.261 . S
C409 O418 1.247 . S
C409 O419 1.272 . S
O410 Co406 2.004 . S
O410 C415 1.259 . S
Co411 O412 2.061 . S
Co411 O417 2.052 . S
Co411 O419 2.135 . S
O412 Co411 2.061 . S
O412 C415 1.235 . S
C413 O416 1.238 . S
C413 O417 1.241 . S
C414 O407 1.247 . S
C414 O408 1.261 . S
C415 O410 1.259 . S
C415 O412 1.235 . S
O416 Co406 2.021 . S
O416 C413 1.238 . S
O417 Co411 2.052 . S
O417 C413 1.241 . S
O418 Co406 2.137 . S
O418 C409 1.247 . S
O419 Co406 2.244 . S
O419 C409 1.272 . S
O419 Co411 2.135 . S
Co420 O421 2.216 . S
Co420 O422 2.091 . S
Co420 O424 2.004 . S
Co420 O430 2.021 . S
Co420 O432 2.137 . S
Co420 O433 2.244 . S
O421 Co420 2.216 . S
O421 C428 1.247 . S
O422 Co420 2.091 . S
O422 C428 1.261 . S
C423 O432 1.247 . S
C423 O433 1.272 . S
O424 Co420 2.004 . S
O424 C429 1.259 . S
Co425 O426 2.061 . S
Co425 O431 2.052 . S
Co425 O433 2.135 . S
O426 Co425 2.061 . S
O426 C429 1.235 . S
C427 O430 1.238 . S
C427 O431 1.241 . S
C428 O421 1.247 . S
C428 O422 1.261 . S
C429 O424 1.259 . S
C429 O426 1.235 . S
O430 Co420 2.021 . S
O430 C427 1.238 . S
O431 Co425 2.052 . S
O431 C427 1.241 . S
O432 Co420 2.137 . S
O432 C423 1.247 . S
O433 Co420 2.244 . S
O433 C423 1.272 . S
O433 Co425 2.135 . S
Co434 O435 2.216 . S
Co434 O436 2.091 . S
Co434 O438 2.004 . S
Co434 O444 2.021 . S
Co434 O446 2.137 . S
Co434 O447 2.244 . S
O435 Co434 2.216 . S
O435 C442 1.247 . S
O436 Co434 2.091 . S
O436 C442 1.261 . S
C437 O446 1.247 . S
C437 O447 1.272 . S
O438 Co434 2.004 . S
O438 C443 1.259 . S
Co439 O440 2.061 . S
Co439 O445 2.052 . S
Co439 O447 2.135 . S
O440 Co439 2.061 . S
O440 C443 1.235 . S
C441 O444 1.238 . S
C441 O445 1.241 . S
C442 O435 1.247 . S
C442 O436 1.261 . S
C443 O438 1.259 . S
C443 O440 1.235 . S
O444 Co434 2.021 . S
O444 C441 1.238 . S
O445 Co439 2.052 . S
O445 C441 1.241 . S
O446 Co434 2.137 . S
O446 C437 1.247 . S
O447 Co434 2.244 . S
O447 C437 1.272 . S
O447 Co439 2.135 . S
Co448 O449 2.216 . S
Co448 O450 2.091 . S
Co448 O452 2.004 . S
Co448 O458 2.021 . S
Co448 O460 2.137 . S
Co448 O461 2.244 . S
O449 Co448 2.216 . S
O449 C456 1.247 . S
O450 Co448 2.091 . S
O450 C456 1.261 . S
C451 O460 1.247 . S
C451 O461 1.272 . S
O452 Co448 2.004 . S
O452 C457 1.259 . S
Co453 O454 2.061 . S
Co453 O459 2.052 . S
Co453 O461 2.135 . S
O454 Co453 2.061 . S
O454 C457 1.235 . S
C455 O458 1.238 . S
C455 O459 1.241 . S
C456 O449 1.247 . S
C456 O450 1.261 . S
C457 O452 1.259 . S
C457 O454 1.235 . S
O458 Co448 2.021 . S
O458 C455 1.238 . S
O459 Co453 2.052 . S
O459 C455 1.241 . S
O460 Co448 2.137 . S
O460 C451 1.247 . S
O461 Co448 2.244 . S
O461 C451 1.272 . S
O461 Co453 2.135 . S
Co462 O463 2.216 . S
Co462 O464 2.091 . S
Co462 O466 2.004 . S
Co462 O472 2.021 . S
Co462 O474 2.137 . S
Co462 O475 2.244 . S
O463 Co462 2.216 . S
O463 C470 1.247 . S
O464 Co462 2.091 . S
O464 C470 1.261 . S
C465 O474 1.247 . S
C465 O475 1.272 . S
O466 Co462 2.004 . S
O466 C471 1.259 . S
Co467 O468 2.061 . S
Co467 O473 2.052 . S
Co467 O475 2.135 . S
O468 Co467 2.061 . S
O468 C471 1.235 . S
C469 O472 1.238 . S
C469 O473 1.241 . S
C470 O463 1.247 . S
C470 O464 1.261 . S
C471 O466 1.259 . S
C471 O468 1.235 . S
O472 Co462 2.021 . S
O472 C469 1.238 . S
O473 Co467 2.052 . S
O473 C469 1.241 . S
O474 Co462 2.137 . S
O474 C465 1.247 . S
O475 Co462 2.244 . S
O475 C465 1.272 . S
O475 Co467 2.135 . S
Co476 O477 2.216 . S
Co476 O478 2.091 . S
Co476 O480 2.004 . S
Co476 O486 2.021 . S
Co476 O488 2.137 . S
Co476 O489 2.244 . S
O477 Co476 2.216 . S
O477 C484 1.247 . S
O478 Co476 2.091 . S
O478 C484 1.261 . S
C479 O488 1.247 . S
C479 O489 1.272 . S
O480 Co476 2.004 . S
O480 C485 1.259 . S
Co481 O482 2.061 . S
Co481 O487 2.052 . S
Co481 O489 2.135 . S
O482 Co481 2.061 . S
O482 C485 1.235 . S
C483 O486 1.238 . S
C483 O487 1.241 . S
C484 O477 1.247 . S
C484 O478 1.261 . S
C485 O480 1.259 . S
C485 O482 1.235 . S
O486 Co476 2.021 . S
O486 C483 1.238 . S
O487 Co481 2.052 . S
O487 C483 1.241 . S
O488 Co476 2.137 . S
O488 C479 1.247 . S
O489 Co476 2.244 . S
O489 C479 1.272 . S
O489 Co481 2.135 . S
Co490 O491 2.216 . S
Co490 O492 2.091 . S
Co490 O494 2.004 . S
Co490 O500 2.021 . S
Co490 O502 2.137 . S
Co490 O503 2.244 . S
O491 Co490 2.216 . S
O491 C498 1.247 . S
O492 Co490 2.091 . S
O492 C498 1.261 . S
C493 O502 1.247 . S
C493 O503 1.272 . S
O494 Co490 2.004 . S
O494 C499 1.259 . S
Co495 O496 2.061 . S
Co495 O501 2.052 . S
Co495 O503 2.135 . S
O496 Co495 2.061 . S
O496 C499 1.235 . S
C497 O500 1.238 . S
C497 O501 1.241 . S
C498 O491 1.247 . S
C498 O492 1.261 . S
C499 O494 1.259 . S
C499 O496 1.235 . S
O500 Co490 2.021 . S
O500 C497 1.238 . S
O501 Co495 2.052 . S
O501 C497 1.241 . S
O502 Co490 2.137 . S
O502 C493 1.247 . S
O503 Co490 2.244 . S
O503 C493 1.272 . S
O503 Co495 2.135 . S
Co504 O505 2.216 . S
Co504 O506 2.091 . S
Co504 O508 2.004 . S
Co504 O514 2.021 . S
Co504 O516 2.137 . S
Co504 O517 2.244 . S
O505 Co504 2.216 . S
O505 C512 1.247 . S
O506 Co504 2.091 . S
O506 C512 1.261 . S
C507 O516 1.247 . S
C507 O517 1.272 . S
O508 Co504 2.004 . S
O508 C513 1.259 . S
Co509 O510 2.061 . S
Co509 O515 2.052 . S
Co509 O517 2.135 . S
O510 Co509 2.061 . S
O510 C513 1.235 . S
C511 O514 1.238 . S
C511 O515 1.241 . S
C512 O505 1.247 . S
C512 O506 1.261 . S
C513 O508 1.259 . S
C513 O510 1.235 . S
O514 Co504 2.021 . S
O514 C511 1.238 . S
O515 Co509 2.052 . S
O515 C511 1.241 . S
O516 Co504 2.137 . S
O516 C507 1.247 . S
O517 Co504 2.244 . S
O517 C507 1.272 . S
O517 Co509 2.135 . S
Co518 O519 2.216 . S
Co518 O520 2.091 . S
Co518 O522 2.004 . S
Co518 O528 2.021 . S
Co518 O530 2.137 . S
Co518 O531 2.244 . S
O519 Co518 2.216 . S
O519 C526 1.247 . S
O520 Co518 2.091 . S
O520 C526 1.261 . S
C521 O530 1.247 . S
C521 O531 1.272 . S
O522 Co518 2.004 . S
O522 C527 1.259 . S
Co523 O524 2.061 . S
Co523 O529 2.052 . S
Co523 O531 2.135 . S
O524 Co523 2.061 . S
O524 C527 1.235 . S
C525 O528 1.238 . S
C525 O529 1.241 . S
C526 O519 1.247 . S
C526 O520 1.261 . S
C527 O522 1.259 . S
C527 O524 1.235 . S
O528 Co518 2.021 . S
O528 C525 1.238 . S
O529 Co523 2.052 . S
O529 C525 1.241 . S
O530 Co518 2.137 . S
O530 C521 1.247 . S
O531 Co518 2.244 . S
O531 C521 1.272 . S
O531 Co523 2.135 . S
Co532 O533 2.216 . S
Co532 O534 2.091 . S
Co532 O536 2.004 . S
Co532 O542 2.021 . S
Co532 O544 2.137 . S
Co532 O545 2.244 . S
O533 Co532 2.216 . S
O533 C540 1.247 . S
O534 Co532 2.091 . S
O534 C540 1.261 . S
C535 O544 1.247 . S
C535 O545 1.272 . S
O536 Co532 2.004 . S
O536 C541 1.259 . S
Co537 O538 2.061 . S
Co537 O543 2.052 . S
Co537 O545 2.135 . S
O538 Co537 2.061 . S
O538 C541 1.235 . S
C539 O542 1.238 . S
C539 O543 1.241 . S
C540 O533 1.247 . S
C540 O534 1.261 . S
C541 O536 1.259 . S
C541 O538 1.235 . S
O542 Co532 2.021 . S
O542 C539 1.238 . S
O543 Co537 2.052 . S
O543 C539 1.241 . S
O544 Co532 2.137 . S
O544 C535 1.247 . S
O545 Co532 2.244 . S
O545 C535 1.272 . S
O545 Co537 2.135 . S
Co546 O547 2.216 . S
Co546 O548 2.091 . S
Co546 O550 2.004 . S
Co546 O556 2.021 . S
Co546 O558 2.137 . S
Co546 O559 2.244 . S
O547 Co546 2.216 . S
O547 C554 1.247 . S
O548 Co546 2.091 . S
O548 C554 1.261 . S
C549 O558 1.247 . S
C549 O559 1.272 . S
O550 Co546 2.004 . S
O550 C555 1.259 . S
Co551 O552 2.061 . S
Co551 O557 2.052 . S
Co551 O559 2.135 . S
O552 Co551 2.061 . S
O552 C555 1.235 . S
C553 O556 1.238 . S
C553 O557 1.241 . S
C554 O547 1.247 . S
C554 O548 1.261 . S
C555 O550 1.259 . S
C555 O552 1.235 . S
O556 Co546 2.021 . S
O556 C553 1.238 . S
O557 Co551 2.052 . S
O557 C553 1.241 . S
O558 Co546 2.137 . S
O558 C549 1.247 . S
O559 Co546 2.244 . S
O559 C549 1.272 . S
O559 Co551 2.135 . S
Co560 O561 2.216 . S
Co560 O562 2.091 . S
Co560 O564 2.004 . S
Co560 O570 2.021 . S
Co560 O572 2.137 . S
Co560 O573 2.244 . S
O561 Co560 2.216 . S
O561 C568 1.247 . S
O562 Co560 2.091 . S
O562 C568 1.261 . S
C563 O572 1.247 . S
C563 O573 1.272 . S
O564 Co560 2.004 . S
O564 C569 1.259 . S
Co565 O566 2.061 . S
Co565 O571 2.052 . S
Co565 O573 2.135 . S
O566 Co565 2.061 . S
O566 C569 1.235 . S
C567 O570 1.238 . S
C567 O571 1.241 . S
C568 O561 1.247 . S
C568 O562 1.261 . S
C569 O564 1.259 . S
C569 O566 1.235 . S
O570 Co560 2.021 . S
O570 C567 1.238 . S
O571 Co565 2.052 . S
O571 C567 1.241 . S
O572 Co560 2.137 . S
O572 C563 1.247 . S
O573 Co560 2.244 . S
O573 C563 1.272 . S
O573 Co565 2.135 . S
Co574 O575 2.216 . S
Co574 O576 2.091 . S
Co574 O578 2.004 . S
Co574 O584 2.021 . S
Co574 O586 2.137 . S
Co574 O587 2.244 . S
O575 Co574 2.216 . S
O575 C582 1.247 . S
O576 Co574 2.091 . S
O576 C582 1.261 . S
C577 O586 1.247 . S
C577 O587 1.272 . S
O578 Co574 2.004 . S
O578 C583 1.259 . S
Co579 O580 2.061 . S
Co579 O585 2.052 . S
Co579 O587 2.135 . S
O580 Co579 2.061 . S
O580 C583 1.235 . S
C581 O584 1.238 . S
C581 O585 1.241 . S
C582 O575 1.247 . S
C582 O576 1.261 . S
C583 O578 1.259 . S
C583 O580 1.235 . S
O584 Co574 2.021 . S
O584 C581 1.238 . S
O585 Co579 2.052 . S
O585 C581 1.241 . S
O586 Co574 2.137 . S
O586 C577 1.247 . S
O587 Co574 2.244 . S
O587 C577 1.272 . S
O587 Co579 2.135 . S
Co588 O589 2.216 . S
Co588 O590 2.091 . S
Co588 O592 2.004 . S
Co588 O598 2.021 . S
Co588 O600 2.137 . S
Co588 O601 2.244 . S
O589 Co588 2.216 . S
O589 C596 1.247 . S
O590 Co588 2.091 . S
O590 C596 1.261 . S
C591 O600 1.247 . S
C591 O601 1.272 . S
O592 Co588 2.004 . S
O592 C597 1.259 . S
Co593 O594 2.061 . S
Co593 O599 2.052 . S
Co593 O601 2.135 . S
O594 Co593 2.061 . S
O594 C597 1.235 . S
C595 O598 1.238 . S
C595 O599 1.241 . S
C596 O589 1.247 . S
C596 O590 1.261 . S
C597 O592 1.259 . S
C597 O594 1.235 . S
O598 Co588 2.021 . S
O598 C595 1.238 . S
O599 Co593 2.052 . S
O599 C595 1.241 . S
O600 Co588 2.137 . S
O600 C591 1.247 . S
O601 Co588 2.244 . S
O601 C591 1.272 . S
O601 Co593 2.135 . S
Co602 O603 2.216 . S
Co602 O604 2.091 . S
Co602 O606 2.004 . S
Co602 O612 2.021 . S
Co602 O614 2.137 . S
Co602 O615 2.244 . S
O603 Co602 2.216 . S
O603 C610 1.247 . S
O604 Co602 2.091 . S
O604 C610 1.261 . S
C605 O614 1.247 . S
C605 O615 1.272 . S
O606 Co602 2.004 . S
O606 C611 1.259 . S
Co607 O608 2.061 . S
Co607 O613 2.052 . S
Co607 O615 2.135 . S
O608 Co607 2.061 . S
O608 C611 1.235 . S
C609 O612 1.238 . S
C609 O613 1.241 . S
C610 O603 1.247 . S
C610 O604 1.261 . S
C611 O606 1.259 . S
C611 O608 1.235 . S
O612 Co602 2.021 . S
O612 C609 1.238 . S
O613 Co607 2.052 . S
O613 C609 1.241 . S
O614 Co602 2.137 . S
O614 C605 1.247 . S
O615 Co602 2.244 . S
O615 C605 1.272 . S
O615 Co607 2.135 . S
Co616 O617 2.216 . S
Co616 O618 2.091 . S
Co616 O620 2.004 . S
Co616 O626 2.021 . S
Co616 O628 2.137 . S
Co616 O629 2.244 . S
O617 Co616 2.216 . S
O617 C624 1.247 . S
O618 Co616 2.091 . S
O618 C624 1.261 . S
C619 O628 1.247 . S
C619 O629 1.272 . S
O620 Co616 2.004 . S
O620 C625 1.259 . S
Co621 O622 2.061 . S
Co621 O627 2.052 . S
Co621 O629 2.135 . S
O622 Co621 2.061 . S
O622 C625 1.235 . S
C623 O626 1.238 . S
C623 O627 1.241 . S
C624 O617 1.247 . S
C624 O618 1.261 . S
C625 O620 1.259 . S
C625 O622 1.235 . S
O626 Co616 2.021 . S
O626 C623 1.238 . S
O627 Co621 2.052 . S
O627 C623 1.241 . S
O628 Co616 2.137 . S
O628 C619 1.247 . S
O629 Co616 2.244 . S
O629 C619 1.272 . S
O629 Co621 2.135 . S
Co630 O631 2.216 . S
Co630 O632 2.091 . S
Co630 O634 2.004 . S
Co630 O640 2.021 . S
Co630 O642 2.137 . S
Co630 O643 2.244 . S
O631 Co630 2.216 . S
O631 C638 1.247 . S
O632 Co630 2.091 . S
O632 C638 1.261 . S
C633 O642 1.247 . S
C633 O643 1.272 . S
O634 Co630 2.004 . S
O634 C639 1.259 . S
Co635 O636 2.061 . S
Co635 O641 2.052 . S
Co635 O643 2.135 . S
O636 Co635 2.061 . S
O636 C639 1.235 . S
C637 O640 1.238 . S
C637 O641 1.241 . S
C638 O631 1.247 . S
C638 O632 1.261 . S
C639 O634 1.259 . S
C639 O636 1.235 . S
O640 Co630 2.021 . S
O640 C637 1.238 . S
O641 Co635 2.052 . S
O641 C637 1.241 . S
O642 Co630 2.137 . S
O642 C633 1.247 . S
O643 Co630 2.244 . S
O643 C633 1.272 . S
O643 Co635 2.135 . S
Co644 O645 2.216 . S
Co644 O646 2.091 . S
Co644 O648 2.004 . S
Co644 O654 2.021 . S
Co644 O656 2.137 . S
Co644 O657 2.244 . S
O645 Co644 2.216 . S
O645 C652 1.247 . S
O646 Co644 2.091 . S
O646 C652 1.261 . S
C647 O656 1.247 . S
C647 O657 1.272 . S
O648 Co644 2.004 . S
O648 C653 1.259 . S
Co649 O650 2.061 . S
Co649 O655 2.052 . S
Co649 O657 2.135 . S
O650 Co649 2.061 . S
O650 C653 1.235 . S
C651 O654 1.238 . S
C651 O655 1.241 . S
C652 O645 1.247 . S
C652 O646 1.261 . S
C653 O648 1.259 . S
C653 O650 1.235 . S
O654 Co644 2.021 . S
O654 C651 1.238 . S
O655 Co649 2.052 . S
O655 C651 1.241 . S
O656 Co644 2.137 . S
O656 C647 1.247 . S
O657 Co644 2.244 . S
O657 C647 1.272 . S
O657 Co649 2.135 . S
Co658 O659 2.216 . S
Co658 O660 2.091 . S
Co658 O662 2.004 . S
Co658 O668 2.021 . S
Co658 O670 2.137 . S
Co658 O671 2.244 . S
O659 Co658 2.216 . S
O659 C666 1.247 . S
O660 Co658 2.091 . S
O660 C666 1.261 . S
C661 O670 1.247 . S
C661 O671 1.272 . S
O662 Co658 2.004 . S
O662 C667 1.259 . S
Co663 O664 2.061 . S
Co663 O669 2.052 . S
Co663 O671 2.135 . S
O664 Co663 2.061 . S
O664 C667 1.235 . S
C665 O668 1.238 . S
C665 O669 1.241 . S
C666 O659 1.247 . S
C666 O660 1.261 . S
C667 O662 1.259 . S
C667 O664 1.235 . S
O668 Co658 2.021 . S
O668 C665 1.238 . S
O669 Co663 2.052 . S
O669 C665 1.241 . S
O670 Co658 2.137 . S
O670 C661 1.247 . S
O671 Co658 2.244 . S
O671 C661 1.272 . S
O671 Co663 2.135 . S
Co672 O673 2.216 . S
Co672 O674 2.091 . S
Co672 O676 2.004 . S
Co672 O682 2.021 . S
Co672 O684 2.137 . S
Co672 O685 2.244 . S
O673 Co672 2.216 . S
O673 C680 1.247 . S
O674 Co672 2.091 . S
O674 C680 1.261 . S
C675 O684 1.247 . S
C675 O685 1.272 . S
O676 Co672 2.004 . S
O676 C681 1.259 . S
Co677 O678 2.061 . S
Co677 O683 2.052 . S
Co677 O685 2.135 . S
O678 Co677 2.061 . S
O678 C681 1.235 . S
C679 O682 1.238 . S
C679 O683 1.241 . S
C680 O673 1.247 . S
C680 O674 1.261 . S
C681 O676 1.259 . S
C681 O678 1.235 . S
O682 Co672 2.021 . S
O682 C679 1.238 . S
O683 Co677 2.052 . S
O683 C679 1.241 . S
O684 Co672 2.137 . S
O684 C675 1.247 . S
O685 Co672 2.244 . S
O685 C675 1.272 . S
O685 Co677 2.135 . S
Co686 O687 2.216 . S
Co686 O688 2.091 . S
Co686 O690 2.004 . S
Co686 O696 2.021 . S
Co686 O698 2.137 . S
Co686 O699 2.244 . S
O687 Co686 2.216 . S
O687 C694 1.247 . S
O688 Co686 2.091 . S
O688 C694 1.261 . S
C689 O698 1.247 . S
C689 O699 1.272 . S
O690 Co686 2.004 . S
O690 C695 1.259 . S
Co691 O692 2.061 . S
Co691 O697 2.052 . S
Co691 O699 2.135 . S
O692 Co691 2.061 . S
O692 C695 1.235 . S
C693 O696 1.238 . S
C693 O697 1.241 . S
C694 O687 1.247 . S
C694 O688 1.261 . S
C695 O690 1.259 . S
C695 O692 1.235 . S
O696 Co686 2.021 . S
O696 C693 1.238 . S
O697 Co691 2.052 . S
O697 C693 1.241 . S
O698 Co686 2.137 . S
O698 C689 1.247 . S
O699 Co686 2.244 . S
O699 C689 1.272 . S
O699 Co691 2.135 . S
Co700 O701 2.216 . S
Co700 O702 2.091 . S
Co700 O704 2.004 . S
Co700 O710 2.021 . S
Co700 O712 2.137 . S
Co700 O713 2.244 . S
O701 Co700 2.216 . S
O701 C708 1.247 . S
O702 Co700 2.091 . S
O702 C708 1.261 . S
C703 O712 1.247 . S
C703 O713 1.272 . S
O704 Co700 2.004 . S
O704 C709 1.259 . S
Co705 O706 2.061 . S
Co705 O711 2.052 . S
Co705 O713 2.135 . S
O706 Co705 2.061 . S
O706 C709 1.235 . S
C707 O710 1.238 . S
C707 O711 1.241 . S
C708 O701 1.247 . S
C708 O702 1.261 . S
C709 O704 1.259 . S
C709 O706 1.235 . S
O710 Co700 2.021 . S
O710 C707 1.238 . S
O711 Co705 2.052 . S
O711 C707 1.241 . S
O712 Co700 2.137 . S
O712 C703 1.247 . S
O713 Co700 2.244 . S
O713 C703 1.272 . S
O713 Co705 2.135 . S
Co714 O715 2.216 . S
Co714 O716 2.091 . S
Co714 O718 2.004 . S
Co714 O724 2.021 . S
Co714 O726 2.137 . S
Co714 O727 2.244 . S
O715 Co714 2.216 . S
O715 C722 1.247 . S
O716 Co714 2.091 . S
O716 C722 1.261 . S
C717 O726 1.247 . S
C717 O727 1.272 . S
O718 Co714 2.004 . S
O718 C723 1.259 . S
Co719 O720 2.061 . S
Co719 O725 2.052 . S
Co719 O727 2.135 . S
O720 Co719 2.061 . S
O720 C723 1.235 . S
C721 O724 1.238 . S
C721 O725 1.241 . S
C722 O715 1.247 . S
C722 O716 1.261 . S
C723 O718 1.259 . S
C723 O720 1.235 . S
O724 Co714 2.021 . S
O724 C721 1.238 . S
O725 Co719 2.052 . S
O725 C721 1.241 . S
O726 Co714 2.137 . S
O726 C717 1.247 . S
O727 Co714 2.244 . S
O727 C717 1.272 . S
O727 Co719 2.135 . S
Co728 O729 2.216 . S
Co728 O730 2.091 . S
Co728 O732 2.004 . S
Co728 O738 2.021 . S
Co728 O740 2.137 . S
Co728 O741 2.244 . S
O729 Co728 2.216 . S
O729 C736 1.247 . S
O730 Co728 2.091 . S
O730 C736 1.261 . S
C731 O740 1.247 . S
C731 O741 1.272 . S
O732 Co728 2.004 . S
O732 C737 1.259 . S
Co733 O734 2.061 . S
Co733 O739 2.052 . S
Co733 O741 2.135 . S
O734 Co733 2.061 . S
O734 C737 1.235 . S
C735 O738 1.238 . S
C735 O739 1.241 . S
C736 O729 1.247 . S
C736 O730 1.261 . S
C737 O732 1.259 . S
C737 O734 1.235 . S
O738 Co728 2.021 . S
O738 C735 1.238 . S
O739 Co733 2.052 . S
O739 C735 1.241 . S
O740 Co728 2.137 . S
O740 C731 1.247 . S
O741 Co728 2.244 . S
O741 C731 1.272 . S
O741 Co733 2.135 . S
Co742 O743 2.216 . S
Co742 O744 2.091 . S
Co742 O746 2.004 . S
Co742 O752 2.021 . S
Co742 O754 2.137 . S
Co742 O755 2.244 . S
O743 Co742 2.216 . S
O743 C750 1.247 . S
O744 Co742 2.091 . S
O744 C750 1.261 . S
C745 O754 1.247 . S
C745 O755 1.272 . S
O746 Co742 2.004 . S
O746 C751 1.259 . S
Co747 O748 2.061 . S
Co747 O753 2.052 . S
Co747 O755 2.135 . S
O748 Co747 2.061 . S
O748 C751 1.235 . S
C749 O752 1.238 . S
C749 O753 1.241 . S
C750 O743 1.247 . S
C750 O744 1.261 . S
C751 O746 1.259 . S
C751 O748 1.235 . S
O752 Co742 2.021 . S
O752 C749 1.238 . S
O753 Co747 2.052 . S
O753 C749 1.241 . S
O754 Co742 2.137 . S
O754 C745 1.247 . S
O755 Co742 2.244 . S
O755 C745 1.272 . S
O755 Co747 2.135 . S
Co756 O757 2.216 . S
Co756 O758 2.091 . S
Co756 O760 2.004 . S
Co756 O766 2.021 . S
Co756 O768 2.137 . S
Co756 O769 2.244 . S
O757 Co756 2.216 . S
O757 C764 1.247 . S
O758 Co756 2.091 . S
O758 C764 1.261 . S
C759 O768 1.247 . S
C759 O769 1.272 . S
O760 Co756 2.004 . S
O760 C765 1.259 . S
Co761 O762 2.061 . S
Co761 O767 2.052 . S
Co761 O769 2.135 . S
O762 Co761 2.061 . S
O762 C765 1.235 . S
C763 O766 1.238 . S
C763 O767 1.241 . S
C764 O757 1.247 . S
C764 O758 1.261 . S
C765 O760 1.259 . S
C765 O762 1.235 . S
O766 Co756 2.021 . S
O766 C763 1.238 . S
O767 Co761 2.052 . S
O767 C763 1.241 . S
O768 Co756 2.137 . S
O768 C759 1.247 . S
O769 Co756 2.244 . S
O769 C759 1.272 . S
O769 Co761 2.135 . S
Co770 O771 2.216 . S
Co770 O772 2.091 . S
Co770 O774 2.004 . S
Co770 O780 2.021 . S
Co770 O782 2.137 . S
Co770 O783 2.244 . S
O771 Co770 2.216 . S
O771 C778 1.247 . S
O772 Co770 2.091 . S
O772 C778 1.261 . S
C773 O782 1.247 . S
C773 O783 1.272 . S
O774 Co770 2.004 . S
O774 C779 1.259 . S
Co775 O776 2.061 . S
Co775 O781 2.052 . S
Co775 O783 2.135 . S
O776 Co775 2.061 . S
O776 C779 1.235 . S
C777 O780 1.238 . S
C777 O781 1.241 . S
C778 O771 1.247 . S
C778 O772 1.261 . S
C779 O774 1.259 . S
C779 O776 1.235 . S
O780 Co770 2.021 . S
O780 C777 1.238 . S
O781 Co775 2.052 . S
O781 C777 1.241 . S
O782 Co770 2.137 . S
O782 C773 1.247 . S
O783 Co770 2.244 . S
O783 C773 1.272 . S
O783 Co775 2.135 . S
Co784 O785 2.216 . S
Co784 O786 2.091 . S
Co784 O788 2.004 . S
Co784 O794 2.021 . S
Co784 O796 2.137 . S
Co784 O797 2.244 . S
O785 Co784 2.216 . S
O785 C792 1.247 . S
O786 Co784 2.091 . S
O786 C792 1.261 . S
C787 O796 1.247 . S
C787 O797 1.272 . S
O788 Co784 2.004 . S
O788 C793 1.259 . S
Co789 O790 2.061 . S
Co789 O795 2.052 . S
Co789 O797 2.135 . S
O790 Co789 2.061 . S
O790 C793 1.235 . S
C791 O794 1.238 . S
C791 O795 1.241 . S
C792 O785 1.247 . S
C792 O786 1.261 . S
C793 O788 1.259 . S
C793 O790 1.235 . S
O794 Co784 2.021 . S
O794 C791 1.238 . S
O795 Co789 2.052 . S
O795 C791 1.241 . S
O796 Co784 2.137 . S
O796 C787 1.247 . S
O797 Co784 2.244 . S
O797 C787 1.272 . S
O797 Co789 2.135 . S
Co798 O799 2.216 . S
Co798 O800 2.091 . S
Co798 O802 2.004 . S
Co798 O808 2.021 . S
Co798 O810 2.137 . S
Co798 O811 2.244 . S
O799 Co798 2.216 . S
O799 C806 1.247 . S
O800 Co798 2.091 . S
O800 C806 1.261 . S
C801 O810 1.247 . S
C801 O811 1.272 . S
O802 Co798 2.004 . S
O802 C807 1.259 . S
Co803 O804 2.061 . S
Co803 O809 2.052 . S
Co803 O811 2.135 . S
O804 Co803 2.061 . S
O804 C807 1.235 . S
C805 O808 1.238 . S
C805 O809 1.241 . S
C806 O799 1.247 . S
C806 O800 1.261 . S
C807 O802 1.259 . S
C807 O804 1.235 . S
O808 Co798 2.021 . S
O808 C805 1.238 . S
O809 Co803 2.052 . S
O809 C805 1.241 . S
O810 Co798 2.137 . S
O810 C801 1.247 . S
O811 Co798 2.244 . S
O811 C801 1.272 . S
O811 Co803 2.135 . S
Co812 O813 2.216 . S
Co812 O814 2.091 . S
Co812 O816 2.004 . S
Co812 O822 2.021 . S
Co812 O824 2.137 . S
Co812 O825 2.244 . S
O813 Co812 2.216 . S
O813 C820 1.247 . S
O814 Co812 2.091 . S
O814 C820 1.261 . S
C815 O824 1.247 . S
C815 O825 1.272 . S
O816 Co812 2.004 . S
O816 C821 1.259 . S
Co817 O818 2.061 . S
Co817 O823 2.052 . S
Co817 O825 2.135 . S
O818 Co817 2.061 . S
O818 C821 1.235 . S
C819 O822 1.238 . S
C819 O823 1.241 . S
C820 O813 1.247 . S
C820 O814 1.261 . S
C821 O816 1.259 . S
C821 O818 1.235 . S
O822 Co812 2.021 . S
O822 C819 1.238 . S
O823 Co817 2.052 . S
O823 C819 1.241 . S
O824 Co812 2.137 . S
O824 C815 1.247 . S
O825 Co812 2.244 . S
O825 C815 1.272 . S
O825 Co817 2.135 . S
Co826 O827 2.216 . S
Co826 O828 2.091 . S
Co826 O830 2.004 . S
Co826 O836 2.021 . S
Co826 O838 2.137 . S
Co826 O839 2.244 . S
O827 Co826 2.216 . S
O827 C834 1.247 . S
O828 Co826 2.091 . S
O828 C834 1.261 . S
C829 O838 1.247 . S
C829 O839 1.272 . S
O830 Co826 2.004 . S
O830 C835 1.259 . S
Co831 O832 2.061 . S
Co831 O837 2.052 . S
Co831 O839 2.135 . S
O832 Co831 2.061 . S
O832 C835 1.235 . S
C833 O836 1.238 . S
C833 O837 1.241 . S
C834 O827 1.247 . S
C834 O828 1.261 . S
C835 O830 1.259 . S
C835 O832 1.235 . S
O836 Co826 2.021 . S
O836 C833 1.238 . S
O837 Co831 2.052 . S
O837 C833 1.241 . S
O838 Co826 2.137 . S
O838 C829 1.247 . S
O839 Co826 2.244 . S
O839 C829 1.272 . S
O839 Co831 2.135 . S
Co840 O841 2.216 . S
Co840 O842 2.091 . S
Co840 O844 2.004 . S
Co840 O850 2.021 . S
Co840 O852 2.137 . S
Co840 O853 2.244 . S
O841 Co840 2.216 . S
O841 C848 1.247 . S
O842 Co840 2.091 . S
O842 C848 1.261 . S
C843 O852 1.247 . S
C843 O853 1.272 . S
O844 Co840 2.004 . S
O844 C849 1.259 . S
Co845 O846 2.061 . S
Co845 O851 2.052 . S
Co845 O853 2.135 . S
O846 Co845 2.061 . S
O846 C849 1.235 . S
C847 O850 1.238 . S
C847 O851 1.241 . S
C848 O841 1.247 . S
C848 O842 1.261 . S
C849 O844 1.259 . S
C849 O846 1.235 . S
O850 Co840 2.021 . S
O850 C847 1.238 . S
O851 Co845 2.052 . S
O851 C847 1.241 . S
O852 Co840 2.137 . S
O852 C843 1.247 . S
O853 Co840 2.244 . S
O853 C843 1.272 . S
O853 Co845 2.135 . S
Co854 O855 2.216 . S
Co854 O856 2.091 . S
Co854 O858 2.004 . S
Co854 O864 2.021 . S
Co854 O866 2.137 . S
Co854 O867 2.244 . S
O855 Co854 2.216 . S
O855 C862 1.247 . S
O856 Co854 2.091 . S
O856 C862 1.261 . S
C857 O866 1.247 . S
C857 O867 1.272 . S
O858 Co854 2.004 . S
O858 C863 1.259 . S
Co859 O860 2.061 . S
Co859 O865 2.052 . S
Co859 O867 2.135 . S
O860 Co859 2.061 . S
O860 C863 1.235 . S
C861 O864 1.238 . S
C861 O865 1.241 . S
C862 O855 1.247 . S
C862 O856 1.261 . S
C863 O858 1.259 . S
C863 O860 1.235 . S
O864 Co854 2.021 . S
O864 C861 1.238 . S
O865 Co859 2.052 . S
O865 C861 1.241 . S
O866 Co854 2.137 . S
O866 C857 1.247 . S
O867 Co854 2.244 . S
O867 C857 1.272 . S
O867 Co859 2.135 . S
Co868 O869 2.216 . S
Co868 O870 2.091 . S
Co868 O872 2.004 . S
Co868 O878 2.021 . S
Co868 O880 2.137 . S
Co868 O881 2.244 . S
O869 Co868 2.216 . S
O869 C876 1.247 . S
O870 Co868 2.091 . S
O870 C876 1.261 . S
C871 O880 1.247 . S
C871 O881 1.272 . S
O872 Co868 2.004 . S
O872 C877 1.259 . S
Co873 O874 2.061 . S
Co873 O879 2.052 . S
Co873 O881 2.135 . S
O874 Co873 2.061 . S
O874 C877 1.235 . S
C875 O878 1.238 . S
C875 O879 1.241 . S
C876 O869 1.247 . S
C876 O870 1.261 . S
C877 O872 1.259 . S
C877 O874 1.235 . S
O878 Co868 2.021 . S
O878 C875 1.238 . S
O879 Co873 2.052 . S
O879 C875 1.241 . S
O880 Co868 2.137 . S
O880 C871 1.247 . S
O881 Co868 2.244 . S
O881 C871 1.272 . S
O881 Co873 2.135 . S
Co882 O883 2.216 . S
Co882 O884 2.091 . S
Co882 O886 2.004 . S
Co882 O892 2.021 . S
Co882 O894 2.137 . S
Co882 O895 2.244 . S
O883 Co882 2.216 . S
O883 C890 1.247 . S
O884 Co882 2.091 . S
O884 C890 1.261 . S
C885 O894 1.247 . S
C885 O895 1.272 . S
O886 Co882 2.004 . S
O886 C891 1.259 . S
Co887 O888 2.061 . S
Co887 O893 2.052 . S
Co887 O895 2.135 . S
O888 Co887 2.061 . S
O888 C891 1.235 . S
C889 O892 1.238 . S
C889 O893 1.241 . S
C890 O883 1.247 . S
C890 O884 1.261 . S
C891 O886 1.259 . S
C891 O888 1.235 . S
O892 Co882 2.021 . S
O892 C889 1.238 . S
O893 Co887 2.052 . S
O893 C889 1.241 . S
O894 Co882 2.137 . S
O894 C885 1.247 . S
O895 Co882 2.244 . S
O895 C885 1.272 . S
O895 Co887 2.135 . S
Co896 O897 2.216 . S
Co896 O898 2.091 . S
Co896 O900 2.004 . S
Co896 O906 2.021 . S
Co896 O908 2.137 . S
Co896 O909 2.244 . S
O897 Co896 2.216 . S
O897 C904 1.247 . S
O898 Co896 2.091 . S
O898 C904 1.261 . S
C899 O908 1.247 . S
C899 O909 1.272 . S
O900 Co896 2.004 . S
O900 C905 1.259 . S
Co901 O902 2.061 . S
Co901 O907 2.052 . S
Co901 O909 2.135 . S
O902 Co901 2.061 . S
O902 C905 1.235 . S
C903 O906 1.238 . S
C903 O907 1.241 . S
C904 O897 1.247 . S
C904 O898 1.261 . S
C905 O900 1.259 . S
C905 O902 1.235 . S
O906 Co896 2.021 . S
O906 C903 1.238 . S
O907 Co901 2.052 . S
O907 C903 1.241 . S
O908 Co896 2.137 . S
O908 C899 1.247 . S
O909 Co896 2.244 . S
O909 C899 1.272 . S
O909 Co901 2.135 . S
Co910 O911 2.216 . S
Co910 O912 2.091 . S
Co910 O914 2.004 . S
Co910 O920 2.021 . S
Co910 O922 2.137 . S
Co910 O923 2.244 . S
O911 Co910 2.216 . S
O911 C918 1.247 . S
O912 Co910 2.091 . S
O912 C918 1.261 . S
C913 O922 1.247 . S
C913 O923 1.272 . S
O914 Co910 2.004 . S
O914 C919 1.259 . S
Co915 O916 2.061 . S
Co915 O921 2.052 . S
Co915 O923 2.135 . S
O916 Co915 2.061 . S
O916 C919 1.235 . S
C917 O920 1.238 . S
C917 O921 1.241 . S
C918 O911 1.247 . S
C918 O912 1.261 . S
C919 O914 1.259 . S
C919 O916 1.235 . S
O920 Co910 2.021 . S
O920 C917 1.238 . S
O921 Co915 2.052 . S
O921 C917 1.241 . S
O922 Co910 2.137 . S
O922 C913 1.247 . S
O923 Co910 2.244 . S
O923 C913 1.272 . S
O923 Co915 2.135 . S
Co924 O925 2.216 . S
Co924 O926 2.091 . S
Co924 O928 2.004 . S
Co924 O934 2.021 . S
Co924 O936 2.137 . S
Co924 O937 2.244 . S
O925 Co924 2.216 . S
O925 C932 1.247 . S
O926 Co924 2.091 . S
O926 C932 1.261 . S
C927 O936 1.247 . S
C927 O937 1.272 . S
O928 Co924 2.004 . S
O928 C933 1.259 . S
Co929 O930 2.061 . S
Co929 O935 2.052 . S
Co929 O937 2.135 . S
O930 Co929 2.061 . S
O930 C933 1.235 . S
C931 O934 1.238 . S
C931 O935 1.241 . S
C932 O925 1.247 . S
C932 O926 1.261 . S
C933 O928 1.259 . S
C933 O930 1.235 . S
O934 Co924 2.021 . S
O934 C931 1.238 . S
O935 Co929 2.052 . S
O935 C931 1.241 . S
O936 Co924 2.137 . S
O936 C927 1.247 . S
O937 Co924 2.244 . S
O937 C927 1.272 . S
O937 Co929 2.135 . S
Co938 O939 2.216 . S
Co938 O940 2.091 . S
Co938 O942 2.004 . S
Co938 O948 2.021 . S
Co938 O950 2.137 . S
Co938 O951 2.244 . S
O939 Co938 2.216 . S
O939 C946 1.247 . S
O940 Co938 2.091 . S
O940 C946 1.261 . S
C941 O950 1.247 . S
C941 O951 1.272 . S
O942 Co938 2.004 . S
O942 C947 1.259 . S
Co943 O944 2.061 . S
Co943 O949 2.052 . S
Co943 O951 2.135 . S
O944 Co943 2.061 . S
O944 C947 1.235 . S
C945 O948 1.238 . S
C945 O949 1.241 . S
C946 O939 1.247 . S
C946 O940 1.261 . S
C947 O942 1.259 . S
C947 O944 1.235 . S
O948 Co938 2.021 . S
O948 C945 1.238 . S
O949 Co943 2.052 . S
O949 C945 1.241 . S
O950 Co938 2.137 . S
O950 C941 1.247 . S
O951 Co938 2.244 . S
O951 C941 1.272 . S
O951 Co943 2.135 . S
Co952 O953 2.216 . S
Co952 O954 2.091 . S
Co952 O956 2.004 . S
Co952 O962 2.021 . S
Co952 O964 2.137 . S
Co952 O965 2.244 . S
O953 Co952 2.216 . S
O953 C960 1.247 . S
O954 Co952 2.091 . S
O954 C960 1.261 . S
C955 O964 1.247 . S
C955 O965 1.272 . S
O956 Co952 2.004 . S
O956 C961 1.259 . S
Co957 O958 2.061 . S
Co957 O963 2.052 . S
Co957 O965 2.135 . S
O958 Co957 2.061 . S
O958 C961 1.235 . S
C959 O962 1.238 . S
C959 O963 1.241 . S
C960 O953 1.247 . S
C960 O954 1.261 . S
C961 O956 1.259 . S
C961 O958 1.235 . S
O962 Co952 2.021 . S
O962 C959 1.238 . S
O963 Co957 2.052 . S
O963 C959 1.241 . S
O964 Co952 2.137 . S
O964 C955 1.247 . S
O965 Co952 2.244 . S
O965 C955 1.272 . S
O965 Co957 2.135 . S
Co966 O967 2.216 . S
Co966 O968 2.091 . S
Co966 O970 2.004 . S
Co966 O976 2.021 . S
Co966 O978 2.137 . S
Co966 O979 2.244 . S
O967 Co966 2.216 . S
O967 C974 1.247 . S
O968 Co966 2.091 . S
O968 C974 1.261 . S
C969 O978 1.247 . S
C969 O979 1.272 . S
O970 Co966 2.004 . S
O970 C975 1.259 . S
Co971 O972 2.061 . S
Co971 O977 2.052 . S
Co971 O979 2.135 . S
O972 Co971 2.061 . S
O972 C975 1.235 . S
C973 O976 1.238 . S
C973 O977 1.241 . S
C974 O967 1.247 . S
C974 O968 1.261 . S
C975 O970 1.259 . S
C975 O972 1.235 . S
O976 Co966 2.021 . S
O976 C973 1.238 . S
O977 Co971 2.052 . S
O977 C973 1.241 . S
O978 Co966 2.137 . S
O978 C969 1.247 . S
O979 Co966 2.244 . S
O979 C969 1.272 . S
O979 Co971 2.135 . S
Co980 O981 2.216 . S
Co980 O982 2.091 . S
Co980 O984 2.004 . S
Co980 O990 2.021 . S
Co980 O992 2.137 . S
Co980 O993 2.244 . S
O981 Co980 2.216 . S
O981 C988 1.247 . S
O982 Co980 2.091 . S
O982 C988 1.261 . S
C983 O992 1.247 . S
C983 O993 1.272 . S
O984 Co980 2.004 . S
O984 C989 1.259 . S
Co985 O986 2.061 . S
Co985 O991 2.052 . S
Co985 O993 2.135 . S
O986 Co985 2.061 . S
O986 C989 1.235 . S
C987 O990 1.238 . S
C987 O991 1.241 . S
C988 O981 1.247 . S
C988 O982 1.261 . S
C989 O984 1.259 . S
C989 O986 1.235 . S
O990 Co980 2.021 . S
O990 C987 1.238 . S
O991 Co985 2.052 . S
O991 C987 1.241 . S
O992 Co980 2.137 . S
O992 C983 1.247 . S
O993 Co980 2.244 . S
O993 C983 1.272 . S
O993 Co985 2.135 . S
Co994 O995 2.216 . S
Co994 O996 2.091 . S
Co994 O998 2.004 . S
Co994 O1004 2.021 . S
Co994 O1006 2.137 . S
Co994 O1007 2.244 . S
O995 Co994 2.216 . S
O995 C1002 1.247 . S
O996 Co994 2.091 . S
O996 C1002 1.261 . S
C997 O1006 1.247 . S
C997 O1007 1.272 . S
O998 Co994 2.004 . S
O998 C1003 1.259 . S
Co999 O1000 2.061 . S
Co999 O1005 2.052 . S
Co999 O1007 2.135 . S
O1000 Co999 2.061 . S
O1000 C1003 1.235 . S
C1001 O1004 1.238 . S
C1001 O1005 1.241 . S
C1002 O995 1.247 . S
C1002 O996 1.261 . S
C1003 O998 1.259 . S
C1003 O1000 1.235 . S
O1004 Co994 2.021 . S
O1004 C1001 1.238 . S
O1005 Co999 2.052 . S
O1005 C1001 1.241 . S
O1006 Co994 2.137 . S
O1006 C997 1.247 . S
O1007 Co994 2.244 . S
O1007 C997 1.272 . S
O1007 Co999 2.135 . S
Co1008 O1009 2.216 . S
Co1008 O1010 2.091 . S
Co1008 O1012 2.004 . S
Co1008 O1018 2.021 . S
Co1008 O1020 2.137 . S
Co1008 O1021 2.244 . S
O1009 Co1008 2.216 . S
O1009 C1016 1.247 . S
O1010 Co1008 2.091 . S
O1010 C1016 1.261 . S
C1011 O1020 1.247 . S
C1011 O1021 1.272 . S
O1012 Co1008 2.004 . S
O1012 C1017 1.259 . S
Co1013 O1014 2.061 . S
Co1013 O1019 2.052 . S
Co1013 O1021 2.135 . S
O1014 Co1013 2.061 . S
O1014 C1017 1.235 . S
C1015 O1018 1.238 . S
C1015 O1019 1.241 . S
C1016 O1009 1.247 . S
C1016 O1010 1.261 . S
C1017 O1012 1.259 . S
C1017 O1014 1.235 . S
O1018 Co1008 2.021 . S
O1018 C1015 1.238 . S
O1019 Co1013 2.052 . S
O1019 C1015 1.241 . S
O1020 Co1008 2.137 . S
O1020 C1011 1.247 . S
O1021 Co1008 2.244 . S
O1021 C1011 1.272 . S
O1021 Co1013 2.135 . S
Co1022 O1023 2.216 . S
Co1022 O1024 2.091 . S
Co1022 O1026 2.004 . S
Co1022 O1032 2.021 . S
Co1022 O1034 2.137 . S
Co1022 O1035 2.244 . S
O1023 Co1022 2.216 . S
O1023 C1030 1.247 . S
O1024 Co1022 2.091 . S
O1024 C1030 1.261 . S
C1025 O1034 1.247 . S
C1025 O1035 1.272 . S
O1026 Co1022 2.004 . S
O1026 C1031 1.259 . S
Co1027 O1028 2.061 . S
Co1027 O1033 2.052 . S
Co1027 O1035 2.135 . S
O1028 Co1027 2.061 . S
O1028 C1031 1.235 . S
C1029 O1032 1.238 . S
C1029 O1033 1.241 . S
C1030 O1023 1.247 . S
C1030 O1024 1.261 . S
C1031 O1026 1.259 . S
C1031 O1028 1.235 . S
O1032 Co1022 2.021 . S
O1032 C1029 1.238 . S
O1033 Co1027 2.052 . S
O1033 C1029 1.241 . S
O1034 Co1022 2.137 . S
O1034 C1025 1.247 . S
O1035 Co1022 2.244 . S
O1035 C1025 1.272 . S
O1035 Co1027 2.135 . S
Co1036 O1037 2.216 . S
Co1036 O1038 2.091 . S
Co1036 O1040 2.004 . S
Co1036 O1046 2.021 . S
Co1036 O1048 2.137 . S
Co1036 O1049 2.244 . S
O1037 Co1036 2.216 . S
O1037 C1044 1.247 . S
O1038 Co1036 2.091 . S
O1038 C1044 1.261 . S
C1039 O1048 1.247 . S
C1039 O1049 1.272 . S
O1040 Co1036 2.004 . S
O1040 C1045 1.259 . S
Co1041 O1042 2.061 . S
Co1041 O1047 2.052 . S
Co1041 O1049 2.135 . S
O1042 Co1041 2.061 . S
O1042 C1045 1.235 . S
C1043 O1046 1.238 . S
C1043 O1047 1.241 . S
C1044 O1037 1.247 . S
C1044 O1038 1.261 . S
C1045 O1040 1.259 . S
C1045 O1042 1.235 . S
O1046 Co1036 2.021 . S
O1046 C1043 1.238 . S
O1047 Co1041 2.052 . S
O1047 C1043 1.241 . S
O1048 Co1036 2.137 . S
O1048 C1039 1.247 . S
O1049 Co1036 2.244 . S
O1049 C1039 1.272 . S
O1049 Co1041 2.135 . S
Co1050 O1051 2.216 . S
Co1050 O1052 2.091 . S
Co1050 O1054 2.004 . S
Co1050 O1060 2.021 . S
Co1050 O1062 2.137 . S
Co1050 O1063 2.244 . S
O1051 Co1050 2.216 . S
O1051 C1058 1.247 . S
O1052 Co1050 2.091 . S
O1052 C1058 1.261 . S
C1053 O1062 1.247 . S
C1053 O1063 1.272 . S
O1054 Co1050 2.004 . S
O1054 C1059 1.259 . S
Co1055 O1056 2.061 . S
Co1055 O1061 2.052 . S
Co1055 O1063 2.135 . S
O1056 Co1055 2.061 . S
O1056 C1059 1.235 . S
C1057 O1060 1.238 . S
C1057 O1061 1.241 . S
C1058 O1051 1.247 . S
C1058 O1052 1.261 . S
C1059 O1054 1.259 . S
C1059 O1056 1.235 . S
O1060 Co1050 2.021 . S
O1060 C1057 1.238 . S
O1061 Co1055 2.052 . S
O1061 C1057 1.241 . S
O1062 Co1050 2.137 . S
O1062 C1053 1.247 . S
O1063 Co1050 2.244 . S
O1063 C1053 1.272 . S
O1063 Co1055 2.135 . S
Co1064 O1065 2.216 . S
Co1064 O1066 2.091 . S
Co1064 O1068 2.004 . S
Co1064 O1074 2.021 . S
Co1064 O1076 2.137 . S
Co1064 O1077 2.244 . S
O1065 Co1064 2.216 . S
O1065 C1072 1.247 . S
O1066 Co1064 2.091 . S
O1066 C1072 1.261 . S
C1067 O1076 1.247 . S
C1067 O1077 1.272 . S
O1068 Co1064 2.004 . S
O1068 C1073 1.259 . S
Co1069 O1070 2.061 . S
Co1069 O1075 2.052 . S
Co1069 O1077 2.135 . S
O1070 Co1069 2.061 . S
O1070 C1073 1.235 . S
C1071 O1074 1.238 . S
C1071 O1075 1.241 . S
C1072 O1065 1.247 . S
C1072 O1066 1.261 . S
C1073 O1068 1.259 . S
C1073 O1070 1.235 . S
O1074 Co1064 2.021 . S
O1074 C1071 1.238 . S
O1075 Co1069 2.052 . S
O1075 C1071 1.241 . S
O1076 Co1064 2.137 . S
O1076 C1067 1.247 . S
O1077 Co1064 2.244 . S
O1077 C1067 1.272 . S
O1077 Co1069 2.135 . S
Co1078 O1079 2.216 . S
Co1078 O1080 2.091 . S
Co1078 O1082 2.004 . S
Co1078 O1088 2.021 . S
Co1078 O1090 2.137 . S
Co1078 O1091 2.244 . S
O1079 Co1078 2.216 . S
O1079 C1086 1.247 . S
O1080 Co1078 2.091 . S
O1080 C1086 1.261 . S
C1081 O1090 1.247 . S
C1081 O1091 1.272 . S
O1082 Co1078 2.004 . S
O1082 C1087 1.259 . S
Co1083 O1084 2.061 . S
Co1083 O1089 2.052 . S
Co1083 O1091 2.135 . S
O1084 Co1083 2.061 . S
O1084 C1087 1.235 . S
C1085 O1088 1.238 . S
C1085 O1089 1.241 . S
C1086 O1079 1.247 . S
C1086 O1080 1.261 . S
C1087 O1082 1.259 . S
C1087 O1084 1.235 . S
O1088 Co1078 2.021 . S
O1088 C1085 1.238 . S
O1089 Co1083 2.052 . S
O1089 C1085 1.241 . S
O1090 Co1078 2.137 . S
O1090 C1081 1.247 . S
O1091 Co1078 2.244 . S
O1091 C1081 1.272 . S
O1091 Co1083 2.135 . S
Co1092 O1093 2.216 . S
Co1092 O1094 2.091 . S
Co1092 O1096 2.004 . S
Co1092 O1102 2.021 . S
Co1092 O1104 2.137 . S
Co1092 O1105 2.244 . S
O1093 Co1092 2.216 . S
O1093 C1100 1.247 . S
O1094 Co1092 2.091 . S
O1094 C1100 1.261 . S
C1095 O1104 1.247 . S
C1095 O1105 1.272 . S
O1096 Co1092 2.004 . S
O1096 C1101 1.259 . S
Co1097 O1098 2.061 . S
Co1097 O1103 2.052 . S
Co1097 O1105 2.135 . S
O1098 Co1097 2.061 . S
O1098 C1101 1.235 . S
C1099 O1102 1.238 . S
C1099 O1103 1.241 . S
C1100 O1093 1.247 . S
C1100 O1094 1.261 . S
C1101 O1096 1.259 . S
C1101 O1098 1.235 . S
O1102 Co1092 2.021 . S
O1102 C1099 1.238 . S
O1103 Co1097 2.052 . S
O1103 C1099 1.241 . S
O1104 Co1092 2.137 . S
O1104 C1095 1.247 . S
O1105 Co1092 2.244 . S
O1105 C1095 1.272 . S
O1105 Co1097 2.135 . S
Co1106 O1107 2.216 . S
Co1106 O1108 2.091 . S
Co1106 O1110 2.004 . S
Co1106 O1116 2.021 . S
Co1106 O1118 2.137 . S
Co1106 O1119 2.244 . S
O1107 Co1106 2.216 . S
O1107 C1114 1.247 . S
O1108 Co1106 2.091 . S
O1108 C1114 1.261 . S
C1109 O1118 1.247 . S
C1109 O1119 1.272 . S
O1110 Co1106 2.004 . S
O1110 C1115 1.259 . S
Co1111 O1112 2.061 . S
Co1111 O1117 2.052 . S
Co1111 O1119 2.135 . S
O1112 Co1111 2.061 . S
O1112 C1115 1.235 . S
C1113 O1116 1.238 . S
C1113 O1117 1.241 . S
C1114 O1107 1.247 . S
C1114 O1108 1.261 . S
C1115 O1110 1.259 . S
C1115 O1112 1.235 . S
O1116 Co1106 2.021 . S
O1116 C1113 1.238 . S
O1117 Co1111 2.052 . S
O1117 C1113 1.241 . S
O1118 Co1106 2.137 . S
O1118 C1109 1.247 . S
O1119 Co1106 2.244 . S
O1119 C1109 1.272 . S
O1119 Co1111 2.135 . S
Co1120 O1121 2.216 . S
Co1120 O1122 2.091 . S
Co1120 O1124 2.004 . S
Co1120 O1130 2.021 . S
Co1120 O1132 2.137 . S
Co1120 O1133 2.244 . S
O1121 Co1120 2.216 . S
O1121 C1128 1.247 . S
O1122 Co1120 2.091 . S
O1122 C1128 1.261 . S
C1123 O1132 1.247 . S
C1123 O1133 1.272 . S
O1124 Co1120 2.004 . S
O1124 C1129 1.259 . S
Co1125 O1126 2.061 . S
Co1125 O1131 2.052 . S
Co1125 O1133 2.135 . S
O1126 Co1125 2.061 . S
O1126 C1129 1.235 . S
C1127 O1130 1.238 . S
C1127 O1131 1.241 . S
C1128 O1121 1.247 . S
C1128 O1122 1.261 . S
C1129 O1124 1.259 . S
C1129 O1126 1.235 . S
O1130 Co1120 2.021 . S
O1130 C1127 1.238 . S
O1131 Co1125 2.052 . S
O1131 C1127 1.241 . S
O1132 Co1120 2.137 . S
O1132 C1123 1.247 . S
O1133 Co1120 2.244 . S
O1133 C1123 1.272 . S
O1133 Co1125 2.135 . S
Co1134 O1135 2.216 . S
Co1134 O1136 2.091 . S
Co1134 O1138 2.004 . S
Co1134 O1144 2.021 . S
Co1134 O1146 2.137 . S
Co1134 O1147 2.244 . S
O1135 Co1134 2.216 . S
O1135 C1142 1.247 . S
O1136 Co1134 2.091 . S
O1136 C1142 1.261 . S
C1137 O1146 1.247 . S
C1137 O1147 1.272 . S
O1138 Co1134 2.004 . S
O1138 C1143 1.259 . S
Co1139 O1140 2.061 . S
Co1139 O1145 2.052 . S
Co1139 O1147 2.135 . S
O1140 Co1139 2.061 . S
O1140 C1143 1.235 . S
C1141 O1144 1.238 . S
C1141 O1145 1.241 . S
C1142 O1135 1.247 . S
C1142 O1136 1.261 . S
C1143 O1138 1.259 . S
C1143 O1140 1.235 . S
O1144 Co1134 2.021 . S
O1144 C1141 1.238 . S
O1145 Co1139 2.052 . S
O1145 C1141 1.241 . S
O1146 Co1134 2.137 . S
O1146 C1137 1.247 . S
O1147 Co1134 2.244 . S
O1147 C1137 1.272 . S
O1147 Co1139 2.135 . S
Co1148 O1149 2.216 . S
Co1148 O1150 2.091 . S
Co1148 O1152 2.004 . S
Co1148 O1158 2.021 . S
Co1148 O1160 2.137 . S
Co1148 O1161 2.244 . S
O1149 Co1148 2.216 . S
O1149 C1156 1.247 . S
O1150 Co1148 2.091 . S
O1150 C1156 1.261 . S
C1151 O1160 1.247 . S
C1151 O1161 1.272 . S
O1152 Co1148 2.004 . S
O1152 C1157 1.259 . S
Co1153 O1154 2.061 . S
Co1153 O1159 2.052 . S
Co1153 O1161 2.135 . S
O1154 Co1153 2.061 . S
O1154 C1157 1.235 . S
C1155 O1158 1.238 . S
C1155 O1159 1.241 . S
C1156 O1149 1.247 . S
C1156 O1150 1.261 . S
C1157 O1152 1.259 . S
C1157 O1154 1.235 . S
O1158 Co1148 2.021 . S
O1158 C1155 1.238 . S
O1159 Co1153 2.052 . S
O1159 C1155 1.241 . S
O1160 Co1148 2.137 . S
O1160 C1151 1.247 . S
O1161 Co1148 2.244 . S
O1161 C1151 1.272 . S
O1161 Co1153 2.135 . S
Co1162 O1163 2.216 . S
Co1162 O1164 2.091 . S
Co1162 O1166 2.004 . S
Co1162 O1172 2.021 . S
Co1162 O1174 2.137 . S
Co1162 O1175 2.244 . S
O1163 Co1162 2.216 . S
O1163 C1170 1.247 . S
O1164 Co1162 2.091 . S
O1164 C1170 1.261 . S
C1165 O1174 1.247 . S
C1165 O1175 1.272 . S
O1166 Co1162 2.004 . S
O1166 C1171 1.259 . S
Co1167 O1168 2.061 . S
Co1167 O1173 2.052 . S
Co1167 O1175 2.135 . S
O1168 Co1167 2.061 . S
O1168 C1171 1.235 . S
C1169 O1172 1.238 . S
C1169 O1173 1.241 . S
C1170 O1163 1.247 . S
C1170 O1164 1.261 . S
C1171 O1166 1.259 . S
C1171 O1168 1.235 . S
O1172 Co1162 2.021 . S
O1172 C1169 1.238 . S
O1173 Co1167 2.052 . S
O1173 C1169 1.241 . S
O1174 Co1162 2.137 . S
O1174 C1165 1.247 . S
O1175 Co1162 2.244 . S
O1175 C1165 1.272 . S
O1175 Co1167 2.135 . S
Co1176 O1177 2.216 . S
Co1176 O1178 2.091 . S
Co1176 O1180 2.004 . S
Co1176 O1186 2.021 . S
Co1176 O1188 2.137 . S
Co1176 O1189 2.244 . S
O1177 Co1176 2.216 . S
O1177 C1184 1.247 . S
O1178 Co1176 2.091 . S
O1178 C1184 1.261 . S
C1179 O1188 1.247 . S
C1179 O1189 1.272 . S
O1180 Co1176 2.004 . S
O1180 C1185 1.259 . S
Co1181 O1182 2.061 . S
Co1181 O1187 2.052 . S
Co1181 O1189 2.135 . S
O1182 Co1181 2.061 . S
O1182 C1185 1.235 . S
C1183 O1186 1.238 . S
C1183 O1187 1.241 . S
C1184 O1177 1.247 . S
C1184 O1178 1.261 . S
C1185 O1180 1.259 . S
C1185 O1182 1.235 . S
O1186 Co1176 2.021 . S
O1186 C1183 1.238 . S
O1187 Co1181 2.052 . S
O1187 C1183 1.241 . S
O1188 Co1176 2.137 . S
O1188 C1179 1.247 . S
O1189 Co1176 2.244 . S
O1189 C1179 1.272 . S
O1189 Co1181 2.135 . S
Co1190 O1191 2.216 . S
Co1190 O1192 2.091 . S
Co1190 O1194 2.004 . S
Co1190 O1200 2.021 . S
Co1190 O1202 2.137 . S
Co1190 O1203 2.244 . S
O1191 Co1190 2.216 . S
O1191 C1198 1.247 . S
O1192 Co1190 2.091 . S
O1192 C1198 1.261 . S
C1193 O1202 1.247 . S
C1193 O1203 1.272 . S
O1194 Co1190 2.004 . S
O1194 C1199 1.259 . S
Co1195 O1196 2.061 . S
Co1195 O1201 2.052 . S
Co1195 O1203 2.135 . S
O1196 Co1195 2.061 . S
O1196 C1199 1.235 . S
C1197 O1200 1.238 . S
C1197 O1201 1.241 . S
C1198 O1191 1.247 . S
C1198 O1192 1.261 . S
C1199 O1194 1.259 . S
C1199 O1196 1.235 . S
O1200 Co1190 2.021 . S
O1200 C1197 1.238 . S
O1201 Co1195 2.052 . S
O1201 C1197 1.241 . S
O1202 Co1190 2.137 . S
O1202 C1193 1.247 . S
O1203 Co1190 2.244 . S
O1203 C1193 1.272 . S
O1203 Co1195 2.135 . S
Co1204 O1205 2.216 . S
Co1204 O1206 2.091 . S
Co1204 O1208 2.004 . S
Co1204 O1214 2.021 . S
Co1204 O1216 2.137 . S
Co1204 O1217 2.244 . S
O1205 Co1204 2.216 . S
O1205 C1212 1.247 . S
O1206 Co1204 2.091 . S
O1206 C1212 1.261 . S
C1207 O1216 1.247 . S
C1207 O1217 1.272 . S
O1208 Co1204 2.004 . S
O1208 C1213 1.259 . S
Co1209 O1210 2.061 . S
Co1209 O1215 2.052 . S
Co1209 O1217 2.135 . S
O1210 Co1209 2.061 . S
O1210 C1213 1.235 . S
C1211 O1214 1.238 . S
C1211 O1215 1.241 . S
C1212 O1205 1.247 . S
C1212 O1206 1.261 . S
C1213 O1208 1.259 . S
C1213 O1210 1.235 . S
O1214 Co1204 2.021 . S
O1214 C1211 1.238 . S
O1215 Co1209 2.052 . S
O1215 C1211 1.241 . S
O1216 Co1204 2.137 . S
O1216 C1207 1.247 . S
O1217 Co1204 2.244 . S
O1217 C1207 1.272 . S
O1217 Co1209 2.135 . S
Co1218 O1219 2.216 . S
Co1218 O1220 2.091 . S
Co1218 O1222 2.004 . S
Co1218 O1228 2.021 . S
Co1218 O1230 2.137 . S
Co1218 O1231 2.244 . S
O1219 Co1218 2.216 . S
O1219 C1226 1.247 . S
O1220 Co1218 2.091 . S
O1220 C1226 1.261 . S
C1221 O1230 1.247 . S
C1221 O1231 1.272 . S
O1222 Co1218 2.004 . S
O1222 C1227 1.259 . S
Co1223 O1224 2.061 . S
Co1223 O1229 2.052 . S
Co1223 O1231 2.135 . S
O1224 Co1223 2.061 . S
O1224 C1227 1.235 . S
C1225 O1228 1.238 . S
C1225 O1229 1.241 . S
C1226 O1219 1.247 . S
C1226 O1220 1.261 . S
C1227 O1222 1.259 . S
C1227 O1224 1.235 . S
O1228 Co1218 2.021 . S
O1228 C1225 1.238 . S
O1229 Co1223 2.052 . S
O1229 C1225 1.241 . S
O1230 Co1218 2.137 . S
O1230 C1221 1.247 . S
O1231 Co1218 2.244 . S
O1231 C1221 1.272 . S
O1231 Co1223 2.135 . S
Co1232 O1233 2.216 . S
Co1232 O1234 2.091 . S
Co1232 O1236 2.004 . S
Co1232 O1242 2.021 . S
Co1232 O1244 2.137 . S
Co1232 O1245 2.244 . S
O1233 Co1232 2.216 . S
O1233 C1240 1.247 . S
O1234 Co1232 2.091 . S
O1234 C1240 1.261 . S
C1235 O1244 1.247 . S
C1235 O1245 1.272 . S
O1236 Co1232 2.004 . S
O1236 C1241 1.259 . S
Co1237 O1238 2.061 . S
Co1237 O1243 2.052 . S
Co1237 O1245 2.135 . S
O1238 Co1237 2.061 . S
O1238 C1241 1.235 . S
C1239 O1242 1.238 . S
C1239 O1243 1.241 . S
C1240 O1233 1.247 . S
C1240 O1234 1.261 . S
C1241 O1236 1.259 . S
C1241 O1238 1.235 . S
O1242 Co1232 2.021 . S
O1242 C1239 1.238 . S
O1243 Co1237 2.052 . S
O1243 C1239 1.241 . S
O1244 Co1232 2.137 . S
O1244 C1235 1.247 . S
O1245 Co1232 2.244 . S
O1245 C1235 1.272 . S
O1245 Co1237 2.135 . S
Co1246 O1247 2.216 . S
Co1246 O1248 2.091 . S
Co1246 O1250 2.004 . S
Co1246 O1256 2.021 . S
Co1246 O1258 2.137 . S
Co1246 O1259 2.244 . S
O1247 Co1246 2.216 . S
O1247 C1254 1.247 . S
O1248 Co1246 2.091 . S
O1248 C1254 1.261 . S
C1249 O1258 1.247 . S
C1249 O1259 1.272 . S
O1250 Co1246 2.004 . S
O1250 C1255 1.259 . S
Co1251 O1252 2.061 . S
Co1251 O1257 2.052 . S
Co1251 O1259 2.135 . S
O1252 Co1251 2.061 . S
O1252 C1255 1.235 . S
C1253 O1256 1.238 . S
C1253 O1257 1.241 . S
C1254 O1247 1.247 . S
C1254 O1248 1.261 . S
C1255 O1250 1.259 . S
C1255 O1252 1.235 . S
O1256 Co1246 2.021 . S
O1256 C1253 1.238 . S
O1257 Co1251 2.052 . S
O1257 C1253 1.241 . S
O1258 Co1246 2.137 . S
O1258 C1249 1.247 . S
O1259 Co1246 2.244 . S
O1259 C1249 1.272 . S
O1259 Co1251 2.135 . S
Co1260 O1261 2.216 . S
Co1260 O1262 2.091 . S
Co1260 O1264 2.004 . S
Co1260 O1270 2.021 . S
Co1260 O1272 2.137 . S
Co1260 O1273 2.244 . S
O1261 Co1260 2.216 . S
O1261 C1268 1.247 . S
O1262 Co1260 2.091 . S
O1262 C1268 1.261 . S
C1263 O1272 1.247 . S
C1263 O1273 1.272 . S
O1264 Co1260 2.004 . S
O1264 C1269 1.259 . S
Co1265 O1266 2.061 . S
Co1265 O1271 2.052 . S
Co1265 O1273 2.135 . S
O1266 Co1265 2.061 . S
O1266 C1269 1.235 . S
C1267 O1270 1.238 . S
C1267 O1271 1.241 . S
C1268 O1261 1.247 . S
C1268 O1262 1.261 . S
C1269 O1264 1.259 . S
C1269 O1266 1.235 . S
O1270 Co1260 2.021 . S
O1270 C1267 1.238 . S
O1271 Co1265 2.052 . S
O1271 C1267 1.241 . S
O1272 Co1260 2.137 . S
O1272 C1263 1.247 . S
O1273 Co1260 2.244 . S
O1273 C1263 1.272 . S
O1273 Co1265 2.135 . S
Co1274 O1275 2.216 . S
Co1274 O1276 2.091 . S
Co1274 O1278 2.004 . S
Co1274 O1284 2.021 . S
Co1274 O1286 2.137 . S
Co1274 O1287 2.244 . S
O1275 Co1274 2.216 . S
O1275 C1282 1.247 . S
O1276 Co1274 2.091 . S
O1276 C1282 1.261 . S
C1277 O1286 1.247 . S
C1277 O1287 1.272 . S
O1278 Co1274 2.004 . S
O1278 C1283 1.259 . S
Co1279 O1280 2.061 . S
Co1279 O1285 2.052 . S
Co1279 O1287 2.135 . S
O1280 Co1279 2.061 . S
O1280 C1283 1.235 . S
C1281 O1284 1.238 . S
C1281 O1285 1.241 . S
C1282 O1275 1.247 . S
C1282 O1276 1.261 . S
C1283 O1278 1.259 . S
C1283 O1280 1.235 . S
O1284 Co1274 2.021 . S
O1284 C1281 1.238 . S
O1285 Co1279 2.052 . S
O1285 C1281 1.241 . S
O1286 Co1274 2.137 . S
O1286 C1277 1.247 . S
O1287 Co1274 2.244 . S
O1287 C1277 1.272 . S
O1287 Co1279 2.135 . S
Co1288 O1289 2.216 . S
Co1288 O1290 2.091 . S
Co1288 O1292 2.004 . S
Co1288 O1298 2.021 . S
Co1288 O1300 2.137 . S
Co1288 O1301 2.244 . S
O1289 Co1288 2.216 . S
O1289 C1296 1.247 . S
O1290 Co1288 2.091 . S
O1290 C1296 1.261 . S
C1291 O1300 1.247 . S
C1291 O1301 1.272 . S
O1292 Co1288 2.004 . S
O1292 C1297 1.259 . S
Co1293 O1294 2.061 . S
Co1293 O1299 2.052 . S
Co1293 O1301 2.135 . S
O1294 Co1293 2.061 . S
O1294 C1297 1.235 . S
C1295 O1298 1.238 . S
C1295 O1299 1.241 . S
C1296 O1289 1.247 . S
C1296 O1290 1.261 . S
C1297 O1292 1.259 . S
C1297 O1294 1.235 . S
O1298 Co1288 2.021 . S
O1298 C1295 1.238 . S
O1299 Co1293 2.052 . S
O1299 C1295 1.241 . S
O1300 Co1288 2.137 . S
O1300 C1291 1.247 . S
O1301 Co1288 2.244 . S
O1301 C1291 1.272 . S
O1301 Co1293 2.135 . S
Co1302 O1303 2.216 . S
Co1302 O1304 2.091 . S
Co1302 O1306 2.004 . S
Co1302 O1312 2.021 . S
Co1302 O1314 2.137 . S
Co1302 O1315 2.244 . S
O1303 Co1302 2.216 . S
O1303 C1310 1.247 . S
O1304 Co1302 2.091 . S
O1304 C1310 1.261 . S
C1305 O1314 1.247 . S
C1305 O1315 1.272 . S
O1306 Co1302 2.004 . S
O1306 C1311 1.259 . S
Co1307 O1308 2.061 . S
Co1307 O1313 2.052 . S
Co1307 O1315 2.135 . S
O1308 Co1307 2.061 . S
O1308 C1311 1.235 . S
C1309 O1312 1.238 . S
C1309 O1313 1.241 . S
C1310 O1303 1.247 . S
C1310 O1304 1.261 . S
C1311 O1306 1.259 . S
C1311 O1308 1.235 . S
O1312 Co1302 2.021 . S
O1312 C1309 1.238 . S
O1313 Co1307 2.052 . S
O1313 C1309 1.241 . S
O1314 Co1302 2.137 . S
O1314 C1305 1.247 . S
O1315 Co1302 2.244 . S
O1315 C1305 1.272 . S
O1315 Co1307 2.135 . S
Co1316 O1317 2.216 . S
Co1316 O1318 2.091 . S
Co1316 O1320 2.004 . S
Co1316 O1326 2.021 . S
Co1316 O1328 2.137 . S
Co1316 O1329 2.244 . S
O1317 Co1316 2.216 . S
O1317 C1324 1.247 . S
O1318 Co1316 2.091 . S
O1318 C1324 1.261 . S
C1319 O1328 1.247 . S
C1319 O1329 1.272 . S
O1320 Co1316 2.004 . S
O1320 C1325 1.259 . S
Co1321 O1322 2.061 . S
Co1321 O1327 2.052 . S
Co1321 O1329 2.135 . S
O1322 Co1321 2.061 . S
O1322 C1325 1.235 . S
C1323 O1326 1.238 . S
C1323 O1327 1.241 . S
C1324 O1317 1.247 . S
C1324 O1318 1.261 . S
C1325 O1320 1.259 . S
C1325 O1322 1.235 . S
O1326 Co1316 2.021 . S
O1326 C1323 1.238 . S
O1327 Co1321 2.052 . S
O1327 C1323 1.241 . S
O1328 Co1316 2.137 . S
O1328 C1319 1.247 . S
O1329 Co1316 2.244 . S
O1329 C1319 1.272 . S
O1329 Co1321 2.135 . S
Co1330 O1331 2.216 . S
Co1330 O1332 2.091 . S
Co1330 O1334 2.004 . S
Co1330 O1340 2.021 . S
Co1330 O1342 2.137 . S
Co1330 O1343 2.244 . S
O1331 Co1330 2.216 . S
O1331 C1338 1.247 . S
O1332 Co1330 2.091 . S
O1332 C1338 1.261 . S
C1333 O1342 1.247 . S
C1333 O1343 1.272 . S
O1334 Co1330 2.004 . S
O1334 C1339 1.259 . S
Co1335 O1336 2.061 . S
Co1335 O1341 2.052 . S
Co1335 O1343 2.135 . S
O1336 Co1335 2.061 . S
O1336 C1339 1.235 . S
C1337 O1340 1.238 . S
C1337 O1341 1.241 . S
C1338 O1331 1.247 . S
C1338 O1332 1.261 . S
C1339 O1334 1.259 . S
C1339 O1336 1.235 . S
O1340 Co1330 2.021 . S
O1340 C1337 1.238 . S
O1341 Co1335 2.052 . S
O1341 C1337 1.241 . S
O1342 Co1330 2.137 . S
O1342 C1333 1.247 . S
O1343 Co1330 2.244 . S
O1343 C1333 1.272 . S
O1343 Co1335 2.135 . S
H1344 C1350 0.930 . S
H1345 C1354 0.930 . S
H1346 C1359 0.929 . S
H1347 C1357 0.929 . S
H1348 C1352 0.929 . S
H1349 C1358 0.929 . S
C1350 H1344 0.930 . S
C1350 C1351 1.367 . S
C1350 C1358 1.378 . S
C1351 C1350 1.367 . S
C1351 C1359 1.433 . S
C1352 H1348 0.929 . S
C1352 C1354 1.378 . S
C1352 C1356 1.350 . S
C1353 C1356 1.463 . S
C1353 C1358 1.350 . S
C1353 N1361 1.427 . S
C1354 H1345 0.930 . S
C1354 C1352 1.378 . S
C1354 C1355 1.367 . S
C1355 C1354 1.367 . S
C1355 C1357 1.433 . S
C1356 C1352 1.350 . S
C1356 C1353 1.463 . S
C1356 N1360 1.427 . S
C1357 H1347 0.929 . S
C1357 C1355 1.433 . S
C1357 N1360 1.384 . S
C1358 H1349 0.929 . S
C1358 C1350 1.378 . S
C1358 C1353 1.350 . S
C1359 H1346 0.929 . S
C1359 C1351 1.433 . S
C1359 N1361 1.384 . S
N1360 C1356 1.427 . S
N1360 C1357 1.384 . S
N1361 C1353 1.427 . S
N1361 C1359 1.384 . S
H1362 C1368 0.930 . S
H1363 C1372 0.930 . S
H1364 C1377 0.929 . S
H1365 C1375 0.929 . S
H1366 C1370 0.929 . S
H1367 C1376 0.929 . S
C1368 H1362 0.930 . S
C1368 C1369 1.367 . S
C1368 C1376 1.378 . S
C1369 C1368 1.367 . S
C1369 C1377 1.433 . S
C1370 H1366 0.929 . S
C1370 C1372 1.378 . S
C1370 C1374 1.350 . S
C1371 C1374 1.463 . S
C1371 C1376 1.350 . S
C1371 N1379 1.427 . S
C1372 H1363 0.930 . S
C1372 C1370 1.378 . S
C1372 C1373 1.367 . S
C1373 C1372 1.367 . S
C1373 C1375 1.433 . S
C1374 C1370 1.350 . S
C1374 C1371 1.463 . S
C1374 N1378 1.427 . S
C1375 H1365 0.929 . S
C1375 C1373 1.433 . S
C1375 N1378 1.384 . S
C1376 H1367 0.929 . S
C1376 C1368 1.378 . S
C1376 C1371 1.350 . S
C1377 H1364 0.929 . S
C1377 C1369 1.433 . S
C1377 N1379 1.384 . S
N1378 C1374 1.427 . S
N1378 C1375 1.384 . S
N1379 C1371 1.427 . S
N1379 C1377 1.384 . S
H1380 C1386 0.930 . S
H1381 C1390 0.930 . S
H1382 C1395 0.929 . S
H1383 C1393 0.929 . S
H1384 C1388 0.929 . S
H1385 C1394 0.929 . S
C1386 H1380 0.930 . S
C1386 C1387 1.367 . S
C1386 C1394 1.378 . S
C1387 C1386 1.367 . S
C1387 C1395 1.433 . S
C1388 H1384 0.929 . S
C1388 C1390 1.378 . S
C1388 C1392 1.350 . S
C1389 C1392 1.463 . S
C1389 C1394 1.350 . S
C1389 N1397 1.427 . S
C1390 H1381 0.930 . S
C1390 C1388 1.378 . S
C1390 C1391 1.367 . S
C1391 C1390 1.367 . S
C1391 C1393 1.433 . S
C1392 C1388 1.350 . S
C1392 C1389 1.463 . S
C1392 N1396 1.427 . S
C1393 H1383 0.929 . S
C1393 C1391 1.433 . S
C1393 N1396 1.384 . S
C1394 H1385 0.929 . S
C1394 C1386 1.378 . S
C1394 C1389 1.350 . S
C1395 H1382 0.929 . S
C1395 C1387 1.433 . S
C1395 N1397 1.384 . S
N1396 C1392 1.427 . S
N1396 C1393 1.384 . S
N1397 C1389 1.427 . S
N1397 C1395 1.384 . S
H1398 C1404 0.930 . S
H1399 C1408 0.930 . S
H1400 C1413 0.929 . S
H1401 C1411 0.929 . S
H1402 C1406 0.929 . S
H1403 C1412 0.929 . S
C1404 H1398 0.930 . S
C1404 C1405 1.367 . S
C1404 C1412 1.378 . S
C1405 C1404 1.367 . S
C1405 C1413 1.433 . S
C1406 H1402 0.929 . S
C1406 C1408 1.378 . S
C1406 C1410 1.350 . S
C1407 C1410 1.463 . S
C1407 C1412 1.350 . S
C1407 N1415 1.427 . S
C1408 H1399 0.930 . S
C1408 C1406 1.378 . S
C1408 C1409 1.367 . S
C1409 C1408 1.367 . S
C1409 C1411 1.433 . S
C1410 C1406 1.350 . S
C1410 C1407 1.463 . S
C1410 N1414 1.427 . S
C1411 H1401 0.929 . S
C1411 C1409 1.433 . S
C1411 N1414 1.384 . S
C1412 H1403 0.929 . S
C1412 C1404 1.378 . S
C1412 C1407 1.350 . S
C1413 H1400 0.929 . S
C1413 C1405 1.433 . S
C1413 N1415 1.384 . S
N1414 C1410 1.427 . S
N1414 C1411 1.384 . S
N1415 C1407 1.427 . S
N1415 C1413 1.384 . S
H1416 C1422 0.930 . S
H1417 C1426 0.930 . S
H1418 C1431 0.929 . S
H1419 C1429 0.929 . S
H1420 C1424 0.929 . S
H1421 C1430 0.929 . S
C1422 H1416 0.930 . S
C1422 C1423 1.367 . S
C1422 C1430 1.378 . S
C1423 C1422 1.367 . S
C1423 C1431 1.433 . S
C1424 H1420 0.929 . S
C1424 C1426 1.378 . S
C1424 C1428 1.350 . S
C1425 C1428 1.463 . S
C1425 C1430 1.350 . S
C1425 N1433 1.427 . S
C1426 H1417 0.930 . S
C1426 C1424 1.378 . S
C1426 C1427 1.367 . S
C1427 C1426 1.367 . S
C1427 C1429 1.433 . S
C1428 C1424 1.350 . S
C1428 C1425 1.463 . S
C1428 N1432 1.427 . S
C1429 H1419 0.929 . S
C1429 C1427 1.433 . S
C1429 N1432 1.384 . S
C1430 H1421 0.929 . S
C1430 C1422 1.378 . S
C1430 C1425 1.350 . S
C1431 H1418 0.929 . S
C1431 C1423 1.433 . S
C1431 N1433 1.384 . S
N1432 C1428 1.427 . S
N1432 C1429 1.384 . S
N1433 C1425 1.427 . S
N1433 C1431 1.384 . S
H1434 C1440 0.930 . S
H1435 C1444 0.930 . S
H1436 C1449 0.929 . S
H1437 C1447 0.929 . S
H1438 C1442 0.929 . S
H1439 C1448 0.929 . S
C1440 H1434 0.930 . S
C1440 C1441 1.367 . S
C1440 C1448 1.378 . S
C1441 C1440 1.367 . S
C1441 C1449 1.433 . S
C1442 H1438 0.929 . S
C1442 C1444 1.378 . S
C1442 C1446 1.350 . S
C1443 C1446 1.463 . S
C1443 C1448 1.350 . S
C1443 N1451 1.427 . S
C1444 H1435 0.930 . S
C1444 C1442 1.378 . S
C1444 C1445 1.367 . S
C1445 C1444 1.367 . S
C1445 C1447 1.433 . S
C1446 C1442 1.350 . S
C1446 C1443 1.463 . S
C1446 N1450 1.427 . S
C1447 H1437 0.929 . S
C1447 C1445 1.433 . S
C1447 N1450 1.384 . S
C1448 H1439 0.929 . S
C1448 C1440 1.378 . S
C1448 C1443 1.350 . S
C1449 H1436 0.929 . S
C1449 C1441 1.433 . S
C1449 N1451 1.384 . S
N1450 C1446 1.427 . S
N1450 C1447 1.384 . S
N1451 C1443 1.427 . S
N1451 C1449 1.384 . S
H1452 C1458 0.930 . S
H1453 C1462 0.930 . S
H1454 C1467 0.929 . S
H1455 C1465 0.929 . S
H1456 C1460 0.929 . S
H1457 C1466 0.929 . S
C1458 H1452 0.930 . S
C1458 C1459 1.367 . S
C1458 C1466 1.378 . S
C1459 C1458 1.367 . S
C1459 C1467 1.433 . S
C1460 H1456 0.929 . S
C1460 C1462 1.378 . S
C1460 C1464 1.350 . S
C1461 C1464 1.463 . S
C1461 C1466 1.350 . S
C1461 N1469 1.427 . S
C1462 H1453 0.930 . S
C1462 C1460 1.378 . S
C1462 C1463 1.367 . S
C1463 C1462 1.367 . S
C1463 C1465 1.433 . S
C1464 C1460 1.350 . S
C1464 C1461 1.463 . S
C1464 N1468 1.427 . S
C1465 H1455 0.929 . S
C1465 C1463 1.433 . S
C1465 N1468 1.384 . S
C1466 H1457 0.929 . S
C1466 C1458 1.378 . S
C1466 C1461 1.350 . S
C1467 H1454 0.929 . S
C1467 C1459 1.433 . S
C1467 N1469 1.384 . S
N1468 C1464 1.427 . S
N1468 C1465 1.384 . S
N1469 C1461 1.427 . S
N1469 C1467 1.384 . S
H1470 C1476 0.930 . S
H1471 C1480 0.930 . S
H1472 C1485 0.929 . S
H1473 C1483 0.929 . S
H1474 C1478 0.929 . S
H1475 C1484 0.929 . S
C1476 H1470 0.930 . S
C1476 C1477 1.367 . S
C1476 C1484 1.378 . S
C1477 C1476 1.367 . S
C1477 C1485 1.433 . S
C1478 H1474 0.929 . S
C1478 C1480 1.378 . S
C1478 C1482 1.350 . S
C1479 C1482 1.463 . S
C1479 C1484 1.350 . S
C1479 N1487 1.427 . S
C1480 H1471 0.930 . S
C1480 C1478 1.378 . S
C1480 C1481 1.367 . S
C1481 C1480 1.367 . S
C1481 C1483 1.433 . S
C1482 C1478 1.350 . S
C1482 C1479 1.463 . S
C1482 N1486 1.427 . S
C1483 H1473 0.929 . S
C1483 C1481 1.433 . S
C1483 N1486 1.384 . S
C1484 H1475 0.929 . S
C1484 C1476 1.378 . S
C1484 C1479 1.350 . S
C1485 H1472 0.929 . S
C1485 C1477 1.433 . S
C1485 N1487 1.384 . S
N1486 C1482 1.427 . S
N1486 C1483 1.384 . S
N1487 C1479 1.427 . S
N1487 C1485 1.384 . S
H1488 C1494 0.930 . S
H1489 C1498 0.930 . S
H1490 C1503 0.929 . S
H1491 C1501 0.929 . S
H1492 C1496 0.929 . S
H1493 C1502 0.929 . S
C1494 H1488 0.930 . S
C1494 C1495 1.367 . S
C1494 C1502 1.378 . S
C1495 C1494 1.367 . S
C1495 C1503 1.433 . S
C1496 H1492 0.929 . S
C1496 C1498 1.378 . S
C1496 C1500 1.350 . S
C1497 C1500 1.463 . S
C1497 C1502 1.350 . S
C1497 N1505 1.427 . S
C1498 H1489 0.930 . S
C1498 C1496 1.378 . S
C1498 C1499 1.367 . S
C1499 C1498 1.367 . S
C1499 C1501 1.433 . S
C1500 C1496 1.350 . S
C1500 C1497 1.463 . S
C1500 N1504 1.427 . S
C1501 H1491 0.929 . S
C1501 C1499 1.433 . S
C1501 N1504 1.384 . S
C1502 H1493 0.929 . S
C1502 C1494 1.378 . S
C1502 C1497 1.350 . S
C1503 H1490 0.929 . S
C1503 C1495 1.433 . S
C1503 N1505 1.384 . S
N1504 C1500 1.427 . S
N1504 C1501 1.384 . S
N1505 C1497 1.427 . S
N1505 C1503 1.384 . S
H1506 C1512 0.930 . S
H1507 C1516 0.930 . S
H1508 C1521 0.929 . S
H1509 C1519 0.929 . S
H1510 C1514 0.929 . S
H1511 C1520 0.929 . S
C1512 H1506 0.930 . S
C1512 C1513 1.367 . S
C1512 C1520 1.378 . S
C1513 C1512 1.367 . S
C1513 C1521 1.433 . S
C1514 H1510 0.929 . S
C1514 C1516 1.378 . S
C1514 C1518 1.350 . S
C1515 C1518 1.463 . S
C1515 C1520 1.350 . S
C1515 N1523 1.427 . S
C1516 H1507 0.930 . S
C1516 C1514 1.378 . S
C1516 C1517 1.367 . S
C1517 C1516 1.367 . S
C1517 C1519 1.433 . S
C1518 C1514 1.350 . S
C1518 C1515 1.463 . S
C1518 N1522 1.427 . S
C1519 H1509 0.929 . S
C1519 C1517 1.433 . S
C1519 N1522 1.384 . S
C1520 H1511 0.929 . S
C1520 C1512 1.378 . S
C1520 C1515 1.350 . S
C1521 H1508 0.929 . S
C1521 C1513 1.433 . S
C1521 N1523 1.384 . S
N1522 C1518 1.427 . S
N1522 C1519 1.384 . S
N1523 C1515 1.427 . S
N1523 C1521 1.384 . S
H1524 C1530 0.930 . S
H1525 C1534 0.930 . S
H1526 C1539 0.929 . S
H1527 C1537 0.929 . S
H1528 C1532 0.929 . S
H1529 C1538 0.929 . S
C1530 H1524 0.930 . S
C1530 C1531 1.367 . S
C1530 C1538 1.378 . S
C1531 C1530 1.367 . S
C1531 C1539 1.433 . S
C1532 H1528 0.929 . S
C1532 C1534 1.378 . S
C1532 C1536 1.350 . S
C1533 C1536 1.463 . S
C1533 C1538 1.350 . S
C1533 N1541 1.427 . S
C1534 H1525 0.930 . S
C1534 C1532 1.378 . S
C1534 C1535 1.367 . S
C1535 C1534 1.367 . S
C1535 C1537 1.433 . S
C1536 C1532 1.350 . S
C1536 C1533 1.463 . S
C1536 N1540 1.427 . S
C1537 H1527 0.929 . S
C1537 C1535 1.433 . S
C1537 N1540 1.384 . S
C1538 H1529 0.929 . S
C1538 C1530 1.378 . S
C1538 C1533 1.350 . S
C1539 H1526 0.929 . S
C1539 C1531 1.433 . S
C1539 N1541 1.384 . S
N1540 C1536 1.427 . S
N1540 C1537 1.384 . S
N1541 C1533 1.427 . S
N1541 C1539 1.384 . S
H1542 C1548 0.930 . S
H1543 C1552 0.930 . S
H1544 C1557 0.929 . S
H1545 C1555 0.929 . S
H1546 C1550 0.929 . S
H1547 C1556 0.929 . S
C1548 H1542 0.930 . S
C1548 C1549 1.367 . S
C1548 C1556 1.378 . S
C1549 C1548 1.367 . S
C1549 C1557 1.433 . S
C1550 H1546 0.929 . S
C1550 C1552 1.378 . S
C1550 C1554 1.350 . S
C1551 C1554 1.463 . S
C1551 C1556 1.350 . S
C1551 N1559 1.427 . S
C1552 H1543 0.930 . S
C1552 C1550 1.378 . S
C1552 C1553 1.367 . S
C1553 C1552 1.367 . S
C1553 C1555 1.433 . S
C1554 C1550 1.350 . S
C1554 C1551 1.463 . S
C1554 N1558 1.427 . S
C1555 H1545 0.929 . S
C1555 C1553 1.433 . S
C1555 N1558 1.384 . S
C1556 H1547 0.929 . S
C1556 C1548 1.378 . S
C1556 C1551 1.350 . S
C1557 H1544 0.929 . S
C1557 C1549 1.433 . S
C1557 N1559 1.384 . S
N1558 C1554 1.427 . S
N1558 C1555 1.384 . S
N1559 C1551 1.427 . S
N1559 C1557 1.384 . S
H1560 C1566 0.930 . S
H1561 C1570 0.930 . S
H1562 C1575 0.929 . S
H1563 C1573 0.929 . S
H1564 C1568 0.929 . S
H1565 C1574 0.929 . S
C1566 H1560 0.930 . S
C1566 C1567 1.367 . S
C1566 C1574 1.378 . S
C1567 C1566 1.367 . S
C1567 C1575 1.433 . S
C1568 H1564 0.929 . S
C1568 C1570 1.378 . S
C1568 C1572 1.350 . S
C1569 C1572 1.463 . S
C1569 C1574 1.350 . S
C1569 N1577 1.427 . S
C1570 H1561 0.930 . S
C1570 C1568 1.378 . S
C1570 C1571 1.367 . S
C1571 C1570 1.367 . S
C1571 C1573 1.433 . S
C1572 C1568 1.350 . S
C1572 C1569 1.463 . S
C1572 N1576 1.427 . S
C1573 H1563 0.929 . S
C1573 C1571 1.433 . S
C1573 N1576 1.384 . S
C1574 H1565 0.929 . S
C1574 C1566 1.378 . S
C1574 C1569 1.350 . S
C1575 H1562 0.929 . S
C1575 C1567 1.433 . S
C1575 N1577 1.384 . S
N1576 C1572 1.427 . S
N1576 C1573 1.384 . S
N1577 C1569 1.427 . S
N1577 C1575 1.384 . S
H1578 C1584 0.930 . S
H1579 C1588 0.930 . S
H1580 C1593 0.929 . S
H1581 C1591 0.929 . S
H1582 C1586 0.929 . S
H1583 C1592 0.929 . S
C1584 H1578 0.930 . S
C1584 C1585 1.367 . S
C1584 C1592 1.378 . S
C1585 C1584 1.367 . S
C1585 C1593 1.433 . S
C1586 H1582 0.929 . S
C1586 C1588 1.378 . S
C1586 C1590 1.350 . S
C1587 C1590 1.463 . S
C1587 C1592 1.350 . S
C1587 N1595 1.427 . S
C1588 H1579 0.930 . S
C1588 C1586 1.378 . S
C1588 C1589 1.367 . S
C1589 C1588 1.367 . S
C1589 C1591 1.433 . S
C1590 C1586 1.350 . S
C1590 C1587 1.463 . S
C1590 N1594 1.427 . S
C1591 H1581 0.929 . S
C1591 C1589 1.433 . S
C1591 N1594 1.384 . S
C1592 H1583 0.929 . S
C1592 C1584 1.378 . S
C1592 C1587 1.350 . S
C1593 H1580 0.929 . S
C1593 C1585 1.433 . S
C1593 N1595 1.384 . S
N1594 C1590 1.427 . S
N1594 C1591 1.384 . S
N1595 C1587 1.427 . S
N1595 C1593 1.384 . S
H1596 C1602 0.930 . S
H1597 C1606 0.930 . S
H1598 C1611 0.929 . S
H1599 C1609 0.929 . S
H1600 C1604 0.929 . S
H1601 C1610 0.929 . S
C1602 H1596 0.930 . S
C1602 C1603 1.367 . S
C1602 C1610 1.378 . S
C1603 C1602 1.367 . S
C1603 C1611 1.433 . S
C1604 H1600 0.929 . S
C1604 C1606 1.378 . S
C1604 C1608 1.350 . S
C1605 C1608 1.463 . S
C1605 C1610 1.350 . S
C1605 N1613 1.427 . S
C1606 H1597 0.930 . S
C1606 C1604 1.378 . S
C1606 C1607 1.367 . S
C1607 C1606 1.367 . S
C1607 C1609 1.433 . S
C1608 C1604 1.350 . S
C1608 C1605 1.463 . S
C1608 N1612 1.427 . S
C1609 H1599 0.929 . S
C1609 C1607 1.433 . S
C1609 N1612 1.384 . S
C1610 H1601 0.929 . S
C1610 C1602 1.378 . S
C1610 C1605 1.350 . S
C1611 H1598 0.929 . S
C1611 C1603 1.433 . S
C1611 N1613 1.384 . S
N1612 C1608 1.427 . S
N1612 C1609 1.384 . S
N1613 C1605 1.427 . S
N1613 C1611 1.384 . S
H1614 C1620 0.930 . S
H1615 C1624 0.930 . S
H1616 C1629 0.929 . S
H1617 C1627 0.929 . S
H1618 C1622 0.929 . S
H1619 C1628 0.929 . S
C1620 H1614 0.930 . S
C1620 C1621 1.367 . S
C1620 C1628 1.378 . S
C1621 C1620 1.367 . S
C1621 C1629 1.433 . S
C1622 H1618 0.929 . S
C1622 C1624 1.378 . S
C1622 C1626 1.350 . S
C1623 C1626 1.463 . S
C1623 C1628 1.350 . S
C1623 N1631 1.427 . S
C1624 H1615 0.930 . S
C1624 C1622 1.378 . S
C1624 C1625 1.367 . S
C1625 C1624 1.367 . S
C1625 C1627 1.433 . S
C1626 C1622 1.350 . S
C1626 C1623 1.463 . S
C1626 N1630 1.427 . S
C1627 H1617 0.929 . S
C1627 C1625 1.433 . S
C1627 N1630 1.384 . S
C1628 H1619 0.929 . S
C1628 C1620 1.378 . S
C1628 C1623 1.350 . S
C1629 H1616 0.929 . S
C1629 C1621 1.433 . S
C1629 N1631 1.384 . S
N1630 C1626 1.427 . S
N1630 C1627 1.384 . S
N1631 C1623 1.427 . S
N1631 C1629 1.384 . S
H1632 C1638 0.930 . S
H1633 C1642 0.930 . S
H1634 C1647 0.929 . S
H1635 C1645 0.929 . S
H1636 C1640 0.929 . S
H1637 C1646 0.929 . S
C1638 H1632 0.930 . S
C1638 C1639 1.367 . S
C1638 C1646 1.378 . S
C1639 C1638 1.367 . S
C1639 C1647 1.433 . S
C1640 H1636 0.929 . S
C1640 C1642 1.378 . S
C1640 C1644 1.350 . S
C1641 C1644 1.463 . S
C1641 C1646 1.350 . S
C1641 N1649 1.427 . S
C1642 H1633 0.930 . S
C1642 C1640 1.378 . S
C1642 C1643 1.367 . S
C1643 C1642 1.367 . S
C1643 C1645 1.433 . S
C1644 C1640 1.350 . S
C1644 C1641 1.463 . S
C1644 N1648 1.427 . S
C1645 H1635 0.929 . S
C1645 C1643 1.433 . S
C1645 N1648 1.384 . S
C1646 H1637 0.929 . S
C1646 C1638 1.378 . S
C1646 C1641 1.350 . S
C1647 H1634 0.929 . S
C1647 C1639 1.433 . S
C1647 N1649 1.384 . S
N1648 C1644 1.427 . S
N1648 C1645 1.384 . S
N1649 C1641 1.427 . S
N1649 C1647 1.384 . S
H1650 C1656 0.930 . S
H1651 C1660 0.930 . S
H1652 C1665 0.929 . S
H1653 C1663 0.929 . S
H1654 C1658 0.929 . S
H1655 C1664 0.929 . S
C1656 H1650 0.930 . S
C1656 C1657 1.367 . S
C1656 C1664 1.378 . S
C1657 C1656 1.367 . S
C1657 C1665 1.433 . S
C1658 H1654 0.929 . S
C1658 C1660 1.378 . S
C1658 C1662 1.350 . S
C1659 C1662 1.463 . S
C1659 C1664 1.350 . S
C1659 N1667 1.427 . S
C1660 H1651 0.930 . S
C1660 C1658 1.378 . S
C1660 C1661 1.367 . S
C1661 C1660 1.367 . S
C1661 C1663 1.433 . S
C1662 C1658 1.350 . S
C1662 C1659 1.463 . S
C1662 N1666 1.427 . S
C1663 H1653 0.929 . S
C1663 C1661 1.433 . S
C1663 N1666 1.384 . S
C1664 H1655 0.929 . S
C1664 C1656 1.378 . S
C1664 C1659 1.350 . S
C1665 H1652 0.929 . S
C1665 C1657 1.433 . S
C1665 N1667 1.384 . S
N1666 C1662 1.427 . S
N1666 C1663 1.384 . S
N1667 C1659 1.427 . S
N1667 C1665 1.384 . S
H1668 C1674 0.930 . S
H1669 C1678 0.930 . S
H1670 C1683 0.929 . S
H1671 C1681 0.929 . S
H1672 C1676 0.929 . S
H1673 C1682 0.929 . S
C1674 H1668 0.930 . S
C1674 C1675 1.367 . S
C1674 C1682 1.378 . S
C1675 C1674 1.367 . S
C1675 C1683 1.433 . S
C1676 H1672 0.929 . S
C1676 C1678 1.378 . S
C1676 C1680 1.350 . S
C1677 C1680 1.463 . S
C1677 C1682 1.350 . S
C1677 N1685 1.427 . S
C1678 H1669 0.930 . S
C1678 C1676 1.378 . S
C1678 C1679 1.367 . S
C1679 C1678 1.367 . S
C1679 C1681 1.433 . S
C1680 C1676 1.350 . S
C1680 C1677 1.463 . S
C1680 N1684 1.427 . S
C1681 H1671 0.929 . S
C1681 C1679 1.433 . S
C1681 N1684 1.384 . S
C1682 H1673 0.929 . S
C1682 C1674 1.378 . S
C1682 C1677 1.350 . S
C1683 H1670 0.929 . S
C1683 C1675 1.433 . S
C1683 N1685 1.384 . S
N1684 C1680 1.427 . S
N1684 C1681 1.384 . S
N1685 C1677 1.427 . S
N1685 C1683 1.384 . S
H1686 C1692 0.930 . S
H1687 C1696 0.930 . S
H1688 C1701 0.929 . S
H1689 C1699 0.929 . S
H1690 C1694 0.929 . S
H1691 C1700 0.929 . S
C1692 H1686 0.930 . S
C1692 C1693 1.367 . S
C1692 C1700 1.378 . S
C1693 C1692 1.367 . S
C1693 C1701 1.433 . S
C1694 H1690 0.929 . S
C1694 C1696 1.378 . S
C1694 C1698 1.350 . S
C1695 C1698 1.463 . S
C1695 C1700 1.350 . S
C1695 N1703 1.427 . S
C1696 H1687 0.930 . S
C1696 C1694 1.378 . S
C1696 C1697 1.367 . S
C1697 C1696 1.367 . S
C1697 C1699 1.433 . S
C1698 C1694 1.350 . S
C1698 C1695 1.463 . S
C1698 N1702 1.427 . S
C1699 H1689 0.929 . S
C1699 C1697 1.433 . S
C1699 N1702 1.384 . S
C1700 H1691 0.929 . S
C1700 C1692 1.378 . S
C1700 C1695 1.350 . S
C1701 H1688 0.929 . S
C1701 C1693 1.433 . S
C1701 N1703 1.384 . S
N1702 C1698 1.427 . S
N1702 C1699 1.384 . S
N1703 C1695 1.427 . S
N1703 C1701 1.384 . S
H1704 C1710 0.930 . S
H1705 C1714 0.930 . S
H1706 C1719 0.929 . S
H1707 C1717 0.929 . S
H1708 C1712 0.929 . S
H1709 C1718 0.929 . S
C1710 H1704 0.930 . S
C1710 C1711 1.367 . S
C1710 C1718 1.378 . S
C1711 C1710 1.367 . S
C1711 C1719 1.433 . S
C1712 H1708 0.929 . S
C1712 C1714 1.378 . S
C1712 C1716 1.350 . S
C1713 C1716 1.463 . S
C1713 C1718 1.350 . S
C1713 N1721 1.427 . S
C1714 H1705 0.930 . S
C1714 C1712 1.378 . S
C1714 C1715 1.367 . S
C1715 C1714 1.367 . S
C1715 C1717 1.433 . S
C1716 C1712 1.350 . S
C1716 C1713 1.463 . S
C1716 N1720 1.427 . S
C1717 H1707 0.929 . S
C1717 C1715 1.433 . S
C1717 N1720 1.384 . S
C1718 H1709 0.929 . S
C1718 C1710 1.378 . S
C1718 C1713 1.350 . S
C1719 H1706 0.929 . S
C1719 C1711 1.433 . S
C1719 N1721 1.384 . S
N1720 C1716 1.427 . S
N1720 C1717 1.384 . S
N1721 C1713 1.427 . S
N1721 C1719 1.384 . S
H1722 C1728 0.930 . S
H1723 C1732 0.930 . S
H1724 C1737 0.929 . S
H1725 C1735 0.929 . S
H1726 C1730 0.929 . S
H1727 C1736 0.929 . S
C1728 H1722 0.930 . S
C1728 C1729 1.367 . S
C1728 C1736 1.378 . S
C1729 C1728 1.367 . S
C1729 C1737 1.433 . S
C1730 H1726 0.929 . S
C1730 C1732 1.378 . S
C1730 C1734 1.350 . S
C1731 C1734 1.463 . S
C1731 C1736 1.350 . S
C1731 N1739 1.427 . S
C1732 H1723 0.930 . S
C1732 C1730 1.378 . S
C1732 C1733 1.367 . S
C1733 C1732 1.367 . S
C1733 C1735 1.433 . S
C1734 C1730 1.350 . S
C1734 C1731 1.463 . S
C1734 N1738 1.427 . S
C1735 H1725 0.929 . S
C1735 C1733 1.433 . S
C1735 N1738 1.384 . S
C1736 H1727 0.929 . S
C1736 C1728 1.378 . S
C1736 C1731 1.350 . S
C1737 H1724 0.929 . S
C1737 C1729 1.433 . S
C1737 N1739 1.384 . S
N1738 C1734 1.427 . S
N1738 C1735 1.384 . S
N1739 C1731 1.427 . S
N1739 C1737 1.384 . S
H1740 C1746 0.930 . S
H1741 C1750 0.930 . S
H1742 C1755 0.929 . S
H1743 C1753 0.929 . S
H1744 C1748 0.929 . S
H1745 C1754 0.929 . S
C1746 H1740 0.930 . S
C1746 C1747 1.367 . S
C1746 C1754 1.378 . S
C1747 C1746 1.367 . S
C1747 C1755 1.433 . S
C1748 H1744 0.929 . S
C1748 C1750 1.378 . S
C1748 C1752 1.350 . S
C1749 C1752 1.463 . S
C1749 C1754 1.350 . S
C1749 N1757 1.427 . S
C1750 H1741 0.930 . S
C1750 C1748 1.378 . S
C1750 C1751 1.367 . S
C1751 C1750 1.367 . S
C1751 C1753 1.433 . S
C1752 C1748 1.350 . S
C1752 C1749 1.463 . S
C1752 N1756 1.427 . S
C1753 H1743 0.929 . S
C1753 C1751 1.433 . S
C1753 N1756 1.384 . S
C1754 H1745 0.929 . S
C1754 C1746 1.378 . S
C1754 C1749 1.350 . S
C1755 H1742 0.929 . S
C1755 C1747 1.433 . S
C1755 N1757 1.384 . S
N1756 C1752 1.427 . S
N1756 C1753 1.384 . S
N1757 C1749 1.427 . S
N1757 C1755 1.384 . S
H1758 C1764 0.930 . S
H1759 C1768 0.930 . S
H1760 C1773 0.929 . S
H1761 C1771 0.929 . S
H1762 C1766 0.929 . S
H1763 C1772 0.929 . S
C1764 H1758 0.930 . S
C1764 C1765 1.367 . S
C1764 C1772 1.378 . S
C1765 C1764 1.367 . S
C1765 C1773 1.433 . S
C1766 H1762 0.929 . S
C1766 C1768 1.378 . S
C1766 C1770 1.350 . S
C1767 C1770 1.463 . S
C1767 C1772 1.350 . S
C1767 N1775 1.427 . S
C1768 H1759 0.930 . S
C1768 C1766 1.378 . S
C1768 C1769 1.367 . S
C1769 C1768 1.367 . S
C1769 C1771 1.433 . S
C1770 C1766 1.350 . S
C1770 C1767 1.463 . S
C1770 N1774 1.427 . S
C1771 H1761 0.929 . S
C1771 C1769 1.433 . S
C1771 N1774 1.384 . S
C1772 H1763 0.929 . S
C1772 C1764 1.378 . S
C1772 C1767 1.350 . S
C1773 H1760 0.929 . S
C1773 C1765 1.433 . S
C1773 N1775 1.384 . S
N1774 C1770 1.427 . S
N1774 C1771 1.384 . S
N1775 C1767 1.427 . S
N1775 C1773 1.384 . S
H1776 C1782 0.930 . S
H1777 C1786 0.930 . S
H1778 C1791 0.929 . S
H1779 C1789 0.929 . S
H1780 C1784 0.929 . S
H1781 C1790 0.929 . S
C1782 H1776 0.930 . S
C1782 C1783 1.367 . S
C1782 C1790 1.378 . S
C1783 C1782 1.367 . S
C1783 C1791 1.433 . S
C1784 H1780 0.929 . S
C1784 C1786 1.378 . S
C1784 C1788 1.350 . S
C1785 C1788 1.463 . S
C1785 C1790 1.350 . S
C1785 N1793 1.427 . S
C1786 H1777 0.930 . S
C1786 C1784 1.378 . S
C1786 C1787 1.367 . S
C1787 C1786 1.367 . S
C1787 C1789 1.433 . S
C1788 C1784 1.350 . S
C1788 C1785 1.463 . S
C1788 N1792 1.427 . S
C1789 H1779 0.929 . S
C1789 C1787 1.433 . S
C1789 N1792 1.384 . S
C1790 H1781 0.929 . S
C1790 C1782 1.378 . S
C1790 C1785 1.350 . S
C1791 H1778 0.929 . S
C1791 C1783 1.433 . S
C1791 N1793 1.384 . S
N1792 C1788 1.427 . S
N1792 C1789 1.384 . S
N1793 C1785 1.427 . S
N1793 C1791 1.384 . S
H1794 C1800 0.930 . S
H1795 C1804 0.930 . S
H1796 C1809 0.929 . S
H1797 C1807 0.929 . S
H1798 C1802 0.929 . S
H1799 C1808 0.929 . S
C1800 H1794 0.930 . S
C1800 C1801 1.367 . S
C1800 C1808 1.378 . S
C1801 C1800 1.367 . S
C1801 C1809 1.433 . S
C1802 H1798 0.929 . S
C1802 C1804 1.378 . S
C1802 C1806 1.350 . S
C1803 C1806 1.463 . S
C1803 C1808 1.350 . S
C1803 N1811 1.427 . S
C1804 H1795 0.930 . S
C1804 C1802 1.378 . S
C1804 C1805 1.367 . S
C1805 C1804 1.367 . S
C1805 C1807 1.433 . S
C1806 C1802 1.350 . S
C1806 C1803 1.463 . S
C1806 N1810 1.427 . S
C1807 H1797 0.929 . S
C1807 C1805 1.433 . S
C1807 N1810 1.384 . S
C1808 H1799 0.929 . S
C1808 C1800 1.378 . S
C1808 C1803 1.350 . S
C1809 H1796 0.929 . S
C1809 C1801 1.433 . S
C1809 N1811 1.384 . S
N1810 C1806 1.427 . S
N1810 C1807 1.384 . S
N1811 C1803 1.427 . S
N1811 C1809 1.384 . S
H1812 C1818 0.930 . S
H1813 C1822 0.930 . S
H1814 C1827 0.929 . S
H1815 C1825 0.929 . S
H1816 C1820 0.929 . S
H1817 C1826 0.929 . S
C1818 H1812 0.930 . S
C1818 C1819 1.367 . S
C1818 C1826 1.378 . S
C1819 C1818 1.367 . S
C1819 C1827 1.433 . S
C1820 H1816 0.929 . S
C1820 C1822 1.378 . S
C1820 C1824 1.350 . S
C1821 C1824 1.463 . S
C1821 C1826 1.350 . S
C1821 N1829 1.427 . S
C1822 H1813 0.930 . S
C1822 C1820 1.378 . S
C1822 C1823 1.367 . S
C1823 C1822 1.367 . S
C1823 C1825 1.433 . S
C1824 C1820 1.350 . S
C1824 C1821 1.463 . S
C1824 N1828 1.427 . S
C1825 H1815 0.929 . S
C1825 C1823 1.433 . S
C1825 N1828 1.384 . S
C1826 H1817 0.929 . S
C1826 C1818 1.378 . S
C1826 C1821 1.350 . S
C1827 H1814 0.929 . S
C1827 C1819 1.433 . S
C1827 N1829 1.384 . S
N1828 C1824 1.427 . S
N1828 C1825 1.384 . S
N1829 C1821 1.427 . S
N1829 C1827 1.384 . S
H1830 C1836 0.930 . S
H1831 C1840 0.930 . S
H1832 C1845 0.929 . S
H1833 C1843 0.929 . S
H1834 C1838 0.929 . S
H1835 C1844 0.929 . S
C1836 H1830 0.930 . S
C1836 C1837 1.367 . S
C1836 C1844 1.378 . S
C1837 C1836 1.367 . S
C1837 C1845 1.433 . S
C1838 H1834 0.929 . S
C1838 C1840 1.378 . S
C1838 C1842 1.350 . S
C1839 C1842 1.463 . S
C1839 C1844 1.350 . S
C1839 N1847 1.427 . S
C1840 H1831 0.930 . S
C1840 C1838 1.378 . S
C1840 C1841 1.367 . S
C1841 C1840 1.367 . S
C1841 C1843 1.433 . S
C1842 C1838 1.350 . S
C1842 C1839 1.463 . S
C1842 N1846 1.427 . S
C1843 H1833 0.929 . S
C1843 C1841 1.433 . S
C1843 N1846 1.384 . S
C1844 H1835 0.929 . S
C1844 C1836 1.378 . S
C1844 C1839 1.350 . S
C1845 H1832 0.929 . S
C1845 C1837 1.433 . S
C1845 N1847 1.384 . S
N1846 C1842 1.427 . S
N1846 C1843 1.384 . S
N1847 C1839 1.427 . S
N1847 C1845 1.384 . S
H1848 C1854 0.930 . S
H1849 C1858 0.930 . S
H1850 C1863 0.929 . S
H1851 C1861 0.929 . S
H1852 C1856 0.929 . S
H1853 C1862 0.929 . S
C1854 H1848 0.930 . S
C1854 C1855 1.367 . S
C1854 C1862 1.378 . S
C1855 C1854 1.367 . S
C1855 C1863 1.433 . S
C1856 H1852 0.929 . S
C1856 C1858 1.378 . S
C1856 C1860 1.350 . S
C1857 C1860 1.463 . S
C1857 C1862 1.350 . S
C1857 N1865 1.427 . S
C1858 H1849 0.930 . S
C1858 C1856 1.378 . S
C1858 C1859 1.367 . S
C1859 C1858 1.367 . S
C1859 C1861 1.433 . S
C1860 C1856 1.350 . S
C1860 C1857 1.463 . S
C1860 N1864 1.427 . S
C1861 H1851 0.929 . S
C1861 C1859 1.433 . S
C1861 N1864 1.384 . S
C1862 H1853 0.929 . S
C1862 C1854 1.378 . S
C1862 C1857 1.350 . S
C1863 H1850 0.929 . S
C1863 C1855 1.433 . S
C1863 N1865 1.384 . S
N1864 C1860 1.427 . S
N1864 C1861 1.384 . S
N1865 C1857 1.427 . S
N1865 C1863 1.384 . S
H1866 C1872 0.930 . S
H1867 C1876 0.930 . S
H1868 C1881 0.929 . S
H1869 C1879 0.929 . S
H1870 C1874 0.929 . S
H1871 C1880 0.929 . S
C1872 H1866 0.930 . S
C1872 C1873 1.367 . S
C1872 C1880 1.378 . S
C1873 C1872 1.367 . S
C1873 C1881 1.433 . S
C1874 H1870 0.929 . S
C1874 C1876 1.378 . S
C1874 C1878 1.350 . S
C1875 C1878 1.463 . S
C1875 C1880 1.350 . S
C1875 N1883 1.427 . S
C1876 H1867 0.930 . S
C1876 C1874 1.378 . S
C1876 C1877 1.367 . S
C1877 C1876 1.367 . S
C1877 C1879 1.433 . S
C1878 C1874 1.350 . S
C1878 C1875 1.463 . S
C1878 N1882 1.427 . S
C1879 H1869 0.929 . S
C1879 C1877 1.433 . S
C1879 N1882 1.384 . S
C1880 H1871 0.929 . S
C1880 C1872 1.378 . S
C1880 C1875 1.350 . S
C1881 H1868 0.929 . S
C1881 C1873 1.433 . S
C1881 N1883 1.384 . S
N1882 C1878 1.427 . S
N1882 C1879 1.384 . S
N1883 C1875 1.427 . S
N1883 C1881 1.384 . S
H1884 C1890 0.930 . S
H1885 C1894 0.930 . S
H1886 C1899 0.929 . S
H1887 C1897 0.929 . S
H1888 C1892 0.929 . S
H1889 C1898 0.929 . S
C1890 H1884 0.930 . S
C1890 C1891 1.367 . S
C1890 C1898 1.378 . S
C1891 C1890 1.367 . S
C1891 C1899 1.433 . S
C1892 H1888 0.929 . S
C1892 C1894 1.378 . S
C1892 C1896 1.350 . S
C1893 C1896 1.463 . S
C1893 C1898 1.350 . S
C1893 N1901 1.427 . S
C1894 H1885 0.930 . S
C1894 C1892 1.378 . S
C1894 C1895 1.367 . S
C1895 C1894 1.367 . S
C1895 C1897 1.433 . S
C1896 C1892 1.350 . S
C1896 C1893 1.463 . S
C1896 N1900 1.427 . S
C1897 H1887 0.929 . S
C1897 C1895 1.433 . S
C1897 N1900 1.384 . S
C1898 H1889 0.929 . S
C1898 C1890 1.378 . S
C1898 C1893 1.350 . S
C1899 H1886 0.929 . S
C1899 C1891 1.433 . S
C1899 N1901 1.384 . S
N1900 C1896 1.427 . S
N1900 C1897 1.384 . S
N1901 C1893 1.427 . S
N1901 C1899 1.384 . S
H1902 C1908 0.930 . S
H1903 C1912 0.930 . S
H1904 C1917 0.929 . S
H1905 C1915 0.929 . S
H1906 C1910 0.929 . S
H1907 C1916 0.929 . S
C1908 H1902 0.930 . S
C1908 C1909 1.367 . S
C1908 C1916 1.378 . S
C1909 C1908 1.367 . S
C1909 C1917 1.433 . S
C1910 H1906 0.929 . S
C1910 C1912 1.378 . S
C1910 C1914 1.350 . S
C1911 C1914 1.463 . S
C1911 C1916 1.350 . S
C1911 N1919 1.427 . S
C1912 H1903 0.930 . S
C1912 C1910 1.378 . S
C1912 C1913 1.367 . S
C1913 C1912 1.367 . S
C1913 C1915 1.433 . S
C1914 C1910 1.350 . S
C1914 C1911 1.463 . S
C1914 N1918 1.427 . S
C1915 H1905 0.929 . S
C1915 C1913 1.433 . S
C1915 N1918 1.384 . S
C1916 H1907 0.929 . S
C1916 C1908 1.378 . S
C1916 C1911 1.350 . S
C1917 H1904 0.929 . S
C1917 C1909 1.433 . S
C1917 N1919 1.384 . S
N1918 C1914 1.427 . S
N1918 C1915 1.384 . S
N1919 C1911 1.427 . S
N1919 C1917 1.384 . S
H1920 C1926 0.930 . S
H1921 C1930 0.930 . S
H1922 C1935 0.929 . S
H1923 C1933 0.929 . S
H1924 C1928 0.929 . S
H1925 C1934 0.929 . S
C1926 H1920 0.930 . S
C1926 C1927 1.367 . S
C1926 C1934 1.378 . S
C1927 C1926 1.367 . S
C1927 C1935 1.433 . S
C1928 H1924 0.929 . S
C1928 C1930 1.378 . S
C1928 C1932 1.350 . S
C1929 C1932 1.463 . S
C1929 C1934 1.350 . S
C1929 N1937 1.427 . S
C1930 H1921 0.930 . S
C1930 C1928 1.378 . S
C1930 C1931 1.367 . S
C1931 C1930 1.367 . S
C1931 C1933 1.433 . S
C1932 C1928 1.350 . S
C1932 C1929 1.463 . S
C1932 N1936 1.427 . S
C1933 H1923 0.929 . S
C1933 C1931 1.433 . S
C1933 N1936 1.384 . S
C1934 H1925 0.929 . S
C1934 C1926 1.378 . S
C1934 C1929 1.350 . S
C1935 H1922 0.929 . S
C1935 C1927 1.433 . S
C1935 N1937 1.384 . S
N1936 C1932 1.427 . S
N1936 C1933 1.384 . S
N1937 C1929 1.427 . S
N1937 C1935 1.384 . S
H1938 C1944 0.930 . S
H1939 C1948 0.930 . S
H1940 C1953 0.929 . S
H1941 C1951 0.929 . S
H1942 C1946 0.929 . S
H1943 C1952 0.929 . S
C1944 H1938 0.930 . S
C1944 C1945 1.367 . S
C1944 C1952 1.378 . S
C1945 C1944 1.367 . S
C1945 C1953 1.433 . S
C1946 H1942 0.929 . S
C1946 C1948 1.378 . S
C1946 C1950 1.350 . S
C1947 C1950 1.463 . S
C1947 C1952 1.350 . S
C1947 N1955 1.427 . S
C1948 H1939 0.930 . S
C1948 C1946 1.378 . S
C1948 C1949 1.367 . S
C1949 C1948 1.367 . S
C1949 C1951 1.433 . S
C1950 C1946 1.350 . S
C1950 C1947 1.463 . S
C1950 N1954 1.427 . S
C1951 H1941 0.929 . S
C1951 C1949 1.433 . S
C1951 N1954 1.384 . S
C1952 H1943 0.929 . S
C1952 C1944 1.378 . S
C1952 C1947 1.350 . S
C1953 H1940 0.929 . S
C1953 C1945 1.433 . S
C1953 N1955 1.384 . S
N1954 C1950 1.427 . S
N1954 C1951 1.384 . S
N1955 C1947 1.427 . S
N1955 C1953 1.384 . S
H1956 C1962 0.930 . S
H1957 C1966 0.930 . S
H1958 C1971 0.929 . S
H1959 C1969 0.929 . S
H1960 C1964 0.929 . S
H1961 C1970 0.929 . S
C1962 H1956 0.930 . S
C1962 C1963 1.367 . S
C1962 C1970 1.378 . S
C1963 C1962 1.367 . S
C1963 C1971 1.433 . S
C1964 H1960 0.929 . S
C1964 C1966 1.378 . S
C1964 C1968 1.350 . S
C1965 C1968 1.463 . S
C1965 C1970 1.350 . S
C1965 N1973 1.427 . S
C1966 H1957 0.930 . S
C1966 C1964 1.378 . S
C1966 C1967 1.367 . S
C1967 C1966 1.367 . S
C1967 C1969 1.433 . S
C1968 C1964 1.350 . S
C1968 C1965 1.463 . S
C1968 N1972 1.427 . S
C1969 H1959 0.929 . S
C1969 C1967 1.433 . S
C1969 N1972 1.384 . S
C1970 H1961 0.929 . S
C1970 C1962 1.378 . S
C1970 C1965 1.350 . S
C1971 H1958 0.929 . S
C1971 C1963 1.433 . S
C1971 N1973 1.384 . S
N1972 C1968 1.427 . S
N1972 C1969 1.384 . S
N1973 C1965 1.427 . S
N1973 C1971 1.384 . S
H1974 C1980 0.930 . S
H1975 C1984 0.930 . S
H1976 C1989 0.929 . S
H1977 C1987 0.929 . S
H1978 C1982 0.929 . S
H1979 C1988 0.929 . S
C1980 H1974 0.930 . S
C1980 C1981 1.367 . S
C1980 C1988 1.378 . S
C1981 C1980 1.367 . S
C1981 C1989 1.433 . S
C1982 H1978 0.929 . S
C1982 C1984 1.378 . S
C1982 C1986 1.350 . S
C1983 C1986 1.463 . S
C1983 C1988 1.350 . S
C1983 N1991 1.427 . S
C1984 H1975 0.930 . S
C1984 C1982 1.378 . S
C1984 C1985 1.367 . S
C1985 C1984 1.367 . S
C1985 C1987 1.433 . S
C1986 C1982 1.350 . S
C1986 C1983 1.463 . S
C1986 N1990 1.427 . S
C1987 H1977 0.929 . S
C1987 C1985 1.433 . S
C1987 N1990 1.384 . S
C1988 H1979 0.929 . S
C1988 C1980 1.378 . S
C1988 C1983 1.350 . S
C1989 H1976 0.929 . S
C1989 C1981 1.433 . S
C1989 N1991 1.384 . S
N1990 C1986 1.427 . S
N1990 C1987 1.384 . S
N1991 C1983 1.427 . S
N1991 C1989 1.384 . S
H1992 C1998 0.930 . S
H1993 C2002 0.930 . S
H1994 C2007 0.929 . S
H1995 C2005 0.929 . S
H1996 C2000 0.929 . S
H1997 C2006 0.929 . S
C1998 H1992 0.930 . S
C1998 C1999 1.367 . S
C1998 C2006 1.378 . S
C1999 C1998 1.367 . S
C1999 C2007 1.433 . S
C2000 H1996 0.929 . S
C2000 C2002 1.378 . S
C2000 C2004 1.350 . S
C2001 C2004 1.463 . S
C2001 C2006 1.350 . S
C2001 N2009 1.427 . S
C2002 H1993 0.930 . S
C2002 C2000 1.378 . S
C2002 C2003 1.367 . S
C2003 C2002 1.367 . S
C2003 C2005 1.433 . S
C2004 C2000 1.350 . S
C2004 C2001 1.463 . S
C2004 N2008 1.427 . S
C2005 H1995 0.929 . S
C2005 C2003 1.433 . S
C2005 N2008 1.384 . S
C2006 H1997 0.929 . S
C2006 C1998 1.378 . S
C2006 C2001 1.350 . S
C2007 H1994 0.929 . S
C2007 C1999 1.433 . S
C2007 N2009 1.384 . S
N2008 C2004 1.427 . S
N2008 C2005 1.384 . S
N2009 C2001 1.427 . S
N2009 C2007 1.384 . S
H2010 C2016 0.930 . S
H2011 C2020 0.930 . S
H2012 C2025 0.929 . S
H2013 C2023 0.929 . S
H2014 C2018 0.929 . S
H2015 C2024 0.929 . S
C2016 H2010 0.930 . S
C2016 C2017 1.367 . S
C2016 C2024 1.378 . S
C2017 C2016 1.367 . S
C2017 C2025 1.433 . S
C2018 H2014 0.929 . S
C2018 C2020 1.378 . S
C2018 C2022 1.350 . S
C2019 C2022 1.463 . S
C2019 C2024 1.350 . S
C2019 N2027 1.427 . S
C2020 H2011 0.930 . S
C2020 C2018 1.378 . S
C2020 C2021 1.367 . S
C2021 C2020 1.367 . S
C2021 C2023 1.433 . S
C2022 C2018 1.350 . S
C2022 C2019 1.463 . S
C2022 N2026 1.427 . S
C2023 H2013 0.929 . S
C2023 C2021 1.433 . S
C2023 N2026 1.384 . S
C2024 H2015 0.929 . S
C2024 C2016 1.378 . S
C2024 C2019 1.350 . S
C2025 H2012 0.929 . S
C2025 C2017 1.433 . S
C2025 N2027 1.384 . S
N2026 C2022 1.427 . S
N2026 C2023 1.384 . S
N2027 C2019 1.427 . S
N2027 C2025 1.384 . S
H2028 C2034 0.930 . S
H2029 C2038 0.930 . S
H2030 C2043 0.929 . S
H2031 C2041 0.929 . S
H2032 C2036 0.929 . S
H2033 C2042 0.929 . S
C2034 H2028 0.930 . S
C2034 C2035 1.367 . S
C2034 C2042 1.378 . S
C2035 C2034 1.367 . S
C2035 C2043 1.433 . S
C2036 H2032 0.929 . S
C2036 C2038 1.378 . S
C2036 C2040 1.350 . S
C2037 C2040 1.463 . S
C2037 C2042 1.350 . S
C2037 N2045 1.427 . S
C2038 H2029 0.930 . S
C2038 C2036 1.378 . S
C2038 C2039 1.367 . S
C2039 C2038 1.367 . S
C2039 C2041 1.433 . S
C2040 C2036 1.350 . S
C2040 C2037 1.463 . S
C2040 N2044 1.427 . S
C2041 H2031 0.929 . S
C2041 C2039 1.433 . S
C2041 N2044 1.384 . S
C2042 H2033 0.929 . S
C2042 C2034 1.378 . S
C2042 C2037 1.350 . S
C2043 H2030 0.929 . S
C2043 C2035 1.433 . S
C2043 N2045 1.384 . S
N2044 C2040 1.427 . S
N2044 C2041 1.384 . S
N2045 C2037 1.427 . S
N2045 C2043 1.384 . S
H2046 C2052 0.930 . S
H2047 C2056 0.930 . S
H2048 C2061 0.929 . S
H2049 C2059 0.929 . S
H2050 C2054 0.929 . S
H2051 C2060 0.929 . S
C2052 H2046 0.930 . S
C2052 C2053 1.367 . S
C2052 C2060 1.378 . S
C2053 C2052 1.367 . S
C2053 C2061 1.433 . S
C2054 H2050 0.929 . S
C2054 C2056 1.378 . S
C2054 C2058 1.350 . S
C2055 C2058 1.463 . S
C2055 C2060 1.350 . S
C2055 N2063 1.427 . S
C2056 H2047 0.930 . S
C2056 C2054 1.378 . S
C2056 C2057 1.367 . S
C2057 C2056 1.367 . S
C2057 C2059 1.433 . S
C2058 C2054 1.350 . S
C2058 C2055 1.463 . S
C2058 N2062 1.427 . S
C2059 H2049 0.929 . S
C2059 C2057 1.433 . S
C2059 N2062 1.384 . S
C2060 H2051 0.929 . S
C2060 C2052 1.378 . S
C2060 C2055 1.350 . S
C2061 H2048 0.929 . S
C2061 C2053 1.433 . S
C2061 N2063 1.384 . S
N2062 C2058 1.427 . S
N2062 C2059 1.384 . S
N2063 C2055 1.427 . S
N2063 C2061 1.384 . S
H2064 C2070 0.930 . S
H2065 C2074 0.930 . S
H2066 C2079 0.929 . S
H2067 C2077 0.929 . S
H2068 C2072 0.929 . S
H2069 C2078 0.929 . S
C2070 H2064 0.930 . S
C2070 C2071 1.367 . S
C2070 C2078 1.378 . S
C2071 C2070 1.367 . S
C2071 C2079 1.433 . S
C2072 H2068 0.929 . S
C2072 C2074 1.378 . S
C2072 C2076 1.350 . S
C2073 C2076 1.463 . S
C2073 C2078 1.350 . S
C2073 N2081 1.427 . S
C2074 H2065 0.930 . S
C2074 C2072 1.378 . S
C2074 C2075 1.367 . S
C2075 C2074 1.367 . S
C2075 C2077 1.433 . S
C2076 C2072 1.350 . S
C2076 C2073 1.463 . S
C2076 N2080 1.427 . S
C2077 H2067 0.929 . S
C2077 C2075 1.433 . S
C2077 N2080 1.384 . S
C2078 H2069 0.929 . S
C2078 C2070 1.378 . S
C2078 C2073 1.350 . S
C2079 H2066 0.929 . S
C2079 C2071 1.433 . S
C2079 N2081 1.384 . S
N2080 C2076 1.427 . S
N2080 C2077 1.384 . S
N2081 C2073 1.427 . S
N2081 C2079 1.384 . S
H2082 C2088 0.930 . S
H2083 C2092 0.930 . S
H2084 C2097 0.929 . S
H2085 C2095 0.929 . S
H2086 C2090 0.929 . S
H2087 C2096 0.929 . S
C2088 H2082 0.930 . S
C2088 C2089 1.367 . S
C2088 C2096 1.378 . S
C2089 C2088 1.367 . S
C2089 C2097 1.433 . S
C2090 H2086 0.929 . S
C2090 C2092 1.378 . S
C2090 C2094 1.350 . S
C2091 C2094 1.463 . S
C2091 C2096 1.350 . S
C2091 N2099 1.427 . S
C2092 H2083 0.930 . S
C2092 C2090 1.378 . S
C2092 C2093 1.367 . S
C2093 C2092 1.367 . S
C2093 C2095 1.433 . S
C2094 C2090 1.350 . S
C2094 C2091 1.463 . S
C2094 N2098 1.427 . S
C2095 H2085 0.929 . S
C2095 C2093 1.433 . S
C2095 N2098 1.384 . S
C2096 H2087 0.929 . S
C2096 C2088 1.378 . S
C2096 C2091 1.350 . S
C2097 H2084 0.929 . S
C2097 C2089 1.433 . S
C2097 N2099 1.384 . S
N2098 C2094 1.427 . S
N2098 C2095 1.384 . S
N2099 C2091 1.427 . S
N2099 C2097 1.384 . S
H2100 C2106 0.930 . S
H2101 C2110 0.930 . S
H2102 C2115 0.929 . S
H2103 C2113 0.929 . S
H2104 C2108 0.929 . S
H2105 C2114 0.929 . S
C2106 H2100 0.930 . S
C2106 C2107 1.367 . S
C2106 C2114 1.378 . S
C2107 C2106 1.367 . S
C2107 C2115 1.433 . S
C2108 H2104 0.929 . S
C2108 C2110 1.378 . S
C2108 C2112 1.350 . S
C2109 C2112 1.463 . S
C2109 C2114 1.350 . S
C2109 N2117 1.427 . S
C2110 H2101 0.930 . S
C2110 C2108 1.378 . S
C2110 C2111 1.367 . S
C2111 C2110 1.367 . S
C2111 C2113 1.433 . S
C2112 C2108 1.350 . S
C2112 C2109 1.463 . S
C2112 N2116 1.427 . S
C2113 H2103 0.929 . S
C2113 C2111 1.433 . S
C2113 N2116 1.384 . S
C2114 H2105 0.929 . S
C2114 C2106 1.378 . S
C2114 C2109 1.350 . S
C2115 H2102 0.929 . S
C2115 C2107 1.433 . S
C2115 N2117 1.384 . S
N2116 C2112 1.427 . S
N2116 C2113 1.384 . S
N2117 C2109 1.427 . S
N2117 C2115 1.384 . S
H2118 C2124 0.930 . S
H2119 C2128 0.930 . S
H2120 C2133 0.929 . S
H2121 C2131 0.929 . S
H2122 C2126 0.929 . S
H2123 C2132 0.929 . S
C2124 H2118 0.930 . S
C2124 C2125 1.367 . S
C2124 C2132 1.378 . S
C2125 C2124 1.367 . S
C2125 C2133 1.433 . S
C2126 H2122 0.929 . S
C2126 C2128 1.378 . S
C2126 C2130 1.350 . S
C2127 C2130 1.463 . S
C2127 C2132 1.350 . S
C2127 N2135 1.427 . S
C2128 H2119 0.930 . S
C2128 C2126 1.378 . S
C2128 C2129 1.367 . S
C2129 C2128 1.367 . S
C2129 C2131 1.433 . S
C2130 C2126 1.350 . S
C2130 C2127 1.463 . S
C2130 N2134 1.427 . S
C2131 H2121 0.929 . S
C2131 C2129 1.433 . S
C2131 N2134 1.384 . S
C2132 H2123 0.929 . S
C2132 C2124 1.378 . S
C2132 C2127 1.350 . S
C2133 H2120 0.929 . S
C2133 C2125 1.433 . S
C2133 N2135 1.384 . S
N2134 C2130 1.427 . S
N2134 C2131 1.384 . S
N2135 C2127 1.427 . S
N2135 C2133 1.384 . S
H2136 C2142 0.930 . S
H2137 C2146 0.930 . S
H2138 C2151 0.929 . S
H2139 C2149 0.929 . S
H2140 C2144 0.929 . S
H2141 C2150 0.929 . S
C2142 H2136 0.930 . S
C2142 C2143 1.367 . S
C2142 C2150 1.378 . S
C2143 C2142 1.367 . S
C2143 C2151 1.433 . S
C2144 H2140 0.929 . S
C2144 C2146 1.378 . S
C2144 C2148 1.350 . S
C2145 C2148 1.463 . S
C2145 C2150 1.350 . S
C2145 N2153 1.427 . S
C2146 H2137 0.930 . S
C2146 C2144 1.378 . S
C2146 C2147 1.367 . S
C2147 C2146 1.367 . S
C2147 C2149 1.433 . S
C2148 C2144 1.350 . S
C2148 C2145 1.463 . S
C2148 N2152 1.427 . S
C2149 H2139 0.929 . S
C2149 C2147 1.433 . S
C2149 N2152 1.384 . S
C2150 H2141 0.929 . S
C2150 C2142 1.378 . S
C2150 C2145 1.350 . S
C2151 H2138 0.929 . S
C2151 C2143 1.433 . S
C2151 N2153 1.384 . S
N2152 C2148 1.427 . S
N2152 C2149 1.384 . S
N2153 C2145 1.427 . S
N2153 C2151 1.384 . S
H2154 C2160 0.930 . S
H2155 C2164 0.930 . S
H2156 C2169 0.929 . S
H2157 C2167 0.929 . S
H2158 C2162 0.929 . S
H2159 C2168 0.929 . S
C2160 H2154 0.930 . S
C2160 C2161 1.367 . S
C2160 C2168 1.378 . S
C2161 C2160 1.367 . S
C2161 C2169 1.433 . S
C2162 H2158 0.929 . S
C2162 C2164 1.378 . S
C2162 C2166 1.350 . S
C2163 C2166 1.463 . S
C2163 C2168 1.350 . S
C2163 N2171 1.427 . S
C2164 H2155 0.930 . S
C2164 C2162 1.378 . S
C2164 C2165 1.367 . S
C2165 C2164 1.367 . S
C2165 C2167 1.433 . S
C2166 C2162 1.350 . S
C2166 C2163 1.463 . S
C2166 N2170 1.427 . S
C2167 H2157 0.929 . S
C2167 C2165 1.433 . S
C2167 N2170 1.384 . S
C2168 H2159 0.929 . S
C2168 C2160 1.378 . S
C2168 C2163 1.350 . S
C2169 H2156 0.929 . S
C2169 C2161 1.433 . S
C2169 N2171 1.384 . S
N2170 C2166 1.427 . S
N2170 C2167 1.384 . S
N2171 C2163 1.427 . S
N2171 C2169 1.384 . S
H2172 C2178 0.930 . S
H2173 C2182 0.930 . S
H2174 C2187 0.929 . S
H2175 C2185 0.929 . S
H2176 C2180 0.929 . S
H2177 C2186 0.929 . S
C2178 H2172 0.930 . S
C2178 C2179 1.367 . S
C2178 C2186 1.378 . S
C2179 C2178 1.367 . S
C2179 C2187 1.433 . S
C2180 H2176 0.929 . S
C2180 C2182 1.378 . S
C2180 C2184 1.350 . S
C2181 C2184 1.463 . S
C2181 C2186 1.350 . S
C2181 N2189 1.427 . S
C2182 H2173 0.930 . S
C2182 C2180 1.378 . S
C2182 C2183 1.367 . S
C2183 C2182 1.367 . S
C2183 C2185 1.433 . S
C2184 C2180 1.350 . S
C2184 C2181 1.463 . S
C2184 N2188 1.427 . S
C2185 H2175 0.929 . S
C2185 C2183 1.433 . S
C2185 N2188 1.384 . S
C2186 H2177 0.929 . S
C2186 C2178 1.378 . S
C2186 C2181 1.350 . S
C2187 H2174 0.929 . S
C2187 C2179 1.433 . S
C2187 N2189 1.384 . S
N2188 C2184 1.427 . S
N2188 C2185 1.384 . S
N2189 C2181 1.427 . S
N2189 C2187 1.384 . S
H2190 C2196 0.930 . S
H2191 C2200 0.930 . S
H2192 C2205 0.929 . S
H2193 C2203 0.929 . S
H2194 C2198 0.929 . S
H2195 C2204 0.929 . S
C2196 H2190 0.930 . S
C2196 C2197 1.367 . S
C2196 C2204 1.378 . S
C2197 C2196 1.367 . S
C2197 C2205 1.433 . S
C2198 H2194 0.929 . S
C2198 C2200 1.378 . S
C2198 C2202 1.350 . S
C2199 C2202 1.463 . S
C2199 C2204 1.350 . S
C2199 N2207 1.427 . S
C2200 H2191 0.930 . S
C2200 C2198 1.378 . S
C2200 C2201 1.367 . S
C2201 C2200 1.367 . S
C2201 C2203 1.433 . S
C2202 C2198 1.350 . S
C2202 C2199 1.463 . S
C2202 N2206 1.427 . S
C2203 H2193 0.929 . S
C2203 C2201 1.433 . S
C2203 N2206 1.384 . S
C2204 H2195 0.929 . S
C2204 C2196 1.378 . S
C2204 C2199 1.350 . S
C2205 H2192 0.929 . S
C2205 C2197 1.433 . S
C2205 N2207 1.384 . S
N2206 C2202 1.427 . S
N2206 C2203 1.384 . S
N2207 C2199 1.427 . S
N2207 C2205 1.384 . S
H2208 C2214 0.930 . S
H2209 C2218 0.930 . S
H2210 C2223 0.929 . S
H2211 C2221 0.929 . S
H2212 C2216 0.929 . S
H2213 C2222 0.929 . S
C2214 H2208 0.930 . S
C2214 C2215 1.367 . S
C2214 C2222 1.378 . S
C2215 C2214 1.367 . S
C2215 C2223 1.433 . S
C2216 H2212 0.929 . S
C2216 C2218 1.378 . S
C2216 C2220 1.350 . S
C2217 C2220 1.463 . S
C2217 C2222 1.350 . S
C2217 N2225 1.427 . S
C2218 H2209 0.930 . S
C2218 C2216 1.378 . S
C2218 C2219 1.367 . S
C2219 C2218 1.367 . S
C2219 C2221 1.433 . S
C2220 C2216 1.350 . S
C2220 C2217 1.463 . S
C2220 N2224 1.427 . S
C2221 H2211 0.929 . S
C2221 C2219 1.433 . S
C2221 N2224 1.384 . S
C2222 H2213 0.929 . S
C2222 C2214 1.378 . S
C2222 C2217 1.350 . S
C2223 H2210 0.929 . S
C2223 C2215 1.433 . S
C2223 N2225 1.384 . S
N2224 C2220 1.427 . S
N2224 C2221 1.384 . S
N2225 C2217 1.427 . S
N2225 C2223 1.384 . S
H2226 C2232 0.930 . S
H2227 C2236 0.930 . S
H2228 C2241 0.929 . S
H2229 C2239 0.929 . S
H2230 C2234 0.929 . S
H2231 C2240 0.929 . S
C2232 H2226 0.930 . S
C2232 C2233 1.367 . S
C2232 C2240 1.378 . S
C2233 C2232 1.367 . S
C2233 C2241 1.433 . S
C2234 H2230 0.929 . S
C2234 C2236 1.378 . S
C2234 C2238 1.350 . S
C2235 C2238 1.463 . S
C2235 C2240 1.350 . S
C2235 N2243 1.427 . S
C2236 H2227 0.930 . S
C2236 C2234 1.378 . S
C2236 C2237 1.367 . S
C2237 C2236 1.367 . S
C2237 C2239 1.433 . S
C2238 C2234 1.350 . S
C2238 C2235 1.463 . S
C2238 N2242 1.427 . S
C2239 H2229 0.929 . S
C2239 C2237 1.433 . S
C2239 N2242 1.384 . S
C2240 H2231 0.929 . S
C2240 C2232 1.378 . S
C2240 C2235 1.350 . S
C2241 H2228 0.929 . S
C2241 C2233 1.433 . S
C2241 N2243 1.384 . S
N2242 C2238 1.427 . S
N2242 C2239 1.384 . S
N2243 C2235 1.427 . S
N2243 C2241 1.384 . S
H2244 C2250 0.930 . S
H2245 C2254 0.930 . S
H2246 C2259 0.929 . S
H2247 C2257 0.929 . S
H2248 C2252 0.929 . S
H2249 C2258 0.929 . S
C2250 H2244 0.930 . S
C2250 C2251 1.367 . S
C2250 C2258 1.378 . S
C2251 C2250 1.367 . S
C2251 C2259 1.433 . S
C2252 H2248 0.929 . S
C2252 C2254 1.378 . S
C2252 C2256 1.350 . S
C2253 C2256 1.463 . S
C2253 C2258 1.350 . S
C2253 N2261 1.427 . S
C2254 H2245 0.930 . S
C2254 C2252 1.378 . S
C2254 C2255 1.367 . S
C2255 C2254 1.367 . S
C2255 C2257 1.433 . S
C2256 C2252 1.350 . S
C2256 C2253 1.463 . S
C2256 N2260 1.427 . S
C2257 H2247 0.929 . S
C2257 C2255 1.433 . S
C2257 N2260 1.384 . S
C2258 H2249 0.929 . S
C2258 C2250 1.378 . S
C2258 C2253 1.350 . S
C2259 H2246 0.929 . S
C2259 C2251 1.433 . S
C2259 N2261 1.384 . S
N2260 C2256 1.427 . S
N2260 C2257 1.384 . S
N2261 C2253 1.427 . S
N2261 C2259 1.384 . S
H2262 C2268 0.930 . S
H2263 C2272 0.930 . S
H2264 C2277 0.929 . S
H2265 C2275 0.929 . S
H2266 C2270 0.929 . S
H2267 C2276 0.929 . S
C2268 H2262 0.930 . S
C2268 C2269 1.367 . S
C2268 C2276 1.378 . S
C2269 C2268 1.367 . S
C2269 C2277 1.433 . S
C2270 H2266 0.929 . S
C2270 C2272 1.378 . S
C2270 C2274 1.350 . S
C2271 C2274 1.463 . S
C2271 C2276 1.350 . S
C2271 N2279 1.427 . S
C2272 H2263 0.930 . S
C2272 C2270 1.378 . S
C2272 C2273 1.367 . S
C2273 C2272 1.367 . S
C2273 C2275 1.433 . S
C2274 C2270 1.350 . S
C2274 C2271 1.463 . S
C2274 N2278 1.427 . S
C2275 H2265 0.929 . S
C2275 C2273 1.433 . S
C2275 N2278 1.384 . S
C2276 H2267 0.929 . S
C2276 C2268 1.378 . S
C2276 C2271 1.350 . S
C2277 H2264 0.929 . S
C2277 C2269 1.433 . S
C2277 N2279 1.384 . S
N2278 C2274 1.427 . S
N2278 C2275 1.384 . S
N2279 C2271 1.427 . S
N2279 C2277 1.384 . S
H2280 C2286 0.930 . S
H2281 C2290 0.930 . S
H2282 C2295 0.929 . S
H2283 C2293 0.929 . S
H2284 C2288 0.929 . S
H2285 C2294 0.929 . S
C2286 H2280 0.930 . S
C2286 C2287 1.367 . S
C2286 C2294 1.378 . S
C2287 C2286 1.367 . S
C2287 C2295 1.433 . S
C2288 H2284 0.929 . S
C2288 C2290 1.378 . S
C2288 C2292 1.350 . S
C2289 C2292 1.463 . S
C2289 C2294 1.350 . S
C2289 N2297 1.427 . S
C2290 H2281 0.930 . S
C2290 C2288 1.378 . S
C2290 C2291 1.367 . S
C2291 C2290 1.367 . S
C2291 C2293 1.433 . S
C2292 C2288 1.350 . S
C2292 C2289 1.463 . S
C2292 N2296 1.427 . S
C2293 H2283 0.929 . S
C2293 C2291 1.433 . S
C2293 N2296 1.384 . S
C2294 H2285 0.929 . S
C2294 C2286 1.378 . S
C2294 C2289 1.350 . S
C2295 H2282 0.929 . S
C2295 C2287 1.433 . S
C2295 N2297 1.384 . S
N2296 C2292 1.427 . S
N2296 C2293 1.384 . S
N2297 C2289 1.427 . S
N2297 C2295 1.384 . S
H2298 C2304 0.930 . S
H2299 C2308 0.930 . S
H2300 C2313 0.929 . S
H2301 C2311 0.929 . S
H2302 C2306 0.929 . S
H2303 C2312 0.929 . S
C2304 H2298 0.930 . S
C2304 C2305 1.367 . S
C2304 C2312 1.378 . S
C2305 C2304 1.367 . S
C2305 C2313 1.433 . S
C2306 H2302 0.929 . S
C2306 C2308 1.378 . S
C2306 C2310 1.350 . S
C2307 C2310 1.463 . S
C2307 C2312 1.350 . S
C2307 N2315 1.427 . S
C2308 H2299 0.930 . S
C2308 C2306 1.378 . S
C2308 C2309 1.367 . S
C2309 C2308 1.367 . S
C2309 C2311 1.433 . S
C2310 C2306 1.350 . S
C2310 C2307 1.463 . S
C2310 N2314 1.427 . S
C2311 H2301 0.929 . S
C2311 C2309 1.433 . S
C2311 N2314 1.384 . S
C2312 H2303 0.929 . S
C2312 C2304 1.378 . S
C2312 C2307 1.350 . S
C2313 H2300 0.929 . S
C2313 C2305 1.433 . S
C2313 N2315 1.384 . S
N2314 C2310 1.427 . S
N2314 C2311 1.384 . S
N2315 C2307 1.427 . S
N2315 C2313 1.384 . S
H2316 C2322 0.930 . S
H2317 C2326 0.930 . S
H2318 C2331 0.929 . S
H2319 C2329 0.929 . S
H2320 C2324 0.929 . S
H2321 C2330 0.929 . S
C2322 H2316 0.930 . S
C2322 C2323 1.367 . S
C2322 C2330 1.378 . S
C2323 C2322 1.367 . S
C2323 C2331 1.433 . S
C2324 H2320 0.929 . S
C2324 C2326 1.378 . S
C2324 C2328 1.350 . S
C2325 C2328 1.463 . S
C2325 C2330 1.350 . S
C2325 N2333 1.427 . S
C2326 H2317 0.930 . S
C2326 C2324 1.378 . S
C2326 C2327 1.367 . S
C2327 C2326 1.367 . S
C2327 C2329 1.433 . S
C2328 C2324 1.350 . S
C2328 C2325 1.463 . S
C2328 N2332 1.427 . S
C2329 H2319 0.929 . S
C2329 C2327 1.433 . S
C2329 N2332 1.384 . S
C2330 H2321 0.929 . S
C2330 C2322 1.378 . S
C2330 C2325 1.350 . S
C2331 H2318 0.929 . S
C2331 C2323 1.433 . S
C2331 N2333 1.384 . S
N2332 C2328 1.427 . S
N2332 C2329 1.384 . S
N2333 C2325 1.427 . S
N2333 C2331 1.384 . S
H2334 C2340 0.930 . S
H2335 C2344 0.930 . S
H2336 C2349 0.929 . S
H2337 C2347 0.929 . S
H2338 C2342 0.929 . S
H2339 C2348 0.929 . S
C2340 H2334 0.930 . S
C2340 C2341 1.367 . S
C2340 C2348 1.378 . S
C2341 C2340 1.367 . S
C2341 C2349 1.433 . S
C2342 H2338 0.929 . S
C2342 C2344 1.378 . S
C2342 C2346 1.350 . S
C2343 C2346 1.463 . S
C2343 C2348 1.350 . S
C2343 N2351 1.427 . S
C2344 H2335 0.930 . S
C2344 C2342 1.378 . S
C2344 C2345 1.367 . S
C2345 C2344 1.367 . S
C2345 C2347 1.433 . S
C2346 C2342 1.350 . S
C2346 C2343 1.463 . S
C2346 N2350 1.427 . S
C2347 H2337 0.929 . S
C2347 C2345 1.433 . S
C2347 N2350 1.384 . S
C2348 H2339 0.929 . S
C2348 C2340 1.378 . S
C2348 C2343 1.350 . S
C2349 H2336 0.929 . S
C2349 C2341 1.433 . S
C2349 N2351 1.384 . S
N2350 C2346 1.427 . S
N2350 C2347 1.384 . S
N2351 C2343 1.427 . S
N2351 C2349 1.384 . S
H2352 C2358 0.930 . S
H2353 C2362 0.930 . S
H2354 C2367 0.929 . S
H2355 C2365 0.929 . S
H2356 C2360 0.929 . S
H2357 C2366 0.929 . S
C2358 H2352 0.930 . S
C2358 C2359 1.367 . S
C2358 C2366 1.378 . S
C2359 C2358 1.367 . S
C2359 C2367 1.433 . S
C2360 H2356 0.929 . S
C2360 C2362 1.378 . S
C2360 C2364 1.350 . S
C2361 C2364 1.463 . S
C2361 C2366 1.350 . S
C2361 N2369 1.427 . S
C2362 H2353 0.930 . S
C2362 C2360 1.378 . S
C2362 C2363 1.367 . S
C2363 C2362 1.367 . S
C2363 C2365 1.433 . S
C2364 C2360 1.350 . S
C2364 C2361 1.463 . S
C2364 N2368 1.427 . S
C2365 H2355 0.929 . S
C2365 C2363 1.433 . S
C2365 N2368 1.384 . S
C2366 H2357 0.929 . S
C2366 C2358 1.378 . S
C2366 C2361 1.350 . S
C2367 H2354 0.929 . S
C2367 C2359 1.433 . S
C2367 N2369 1.384 . S
N2368 C2364 1.427 . S
N2368 C2365 1.384 . S
N2369 C2361 1.427 . S
N2369 C2367 1.384 . S
H2370 C2376 0.930 . S
H2371 C2380 0.930 . S
H2372 C2385 0.929 . S
H2373 C2383 0.929 . S
H2374 C2378 0.929 . S
H2375 C2384 0.929 . S
C2376 H2370 0.930 . S
C2376 C2377 1.367 . S
C2376 C2384 1.378 . S
C2377 C2376 1.367 . S
C2377 C2385 1.433 . S
C2378 H2374 0.929 . S
C2378 C2380 1.378 . S
C2378 C2382 1.350 . S
C2379 C2382 1.463 . S
C2379 C2384 1.350 . S
C2379 N2387 1.427 . S
C2380 H2371 0.930 . S
C2380 C2378 1.378 . S
C2380 C2381 1.367 . S
C2381 C2380 1.367 . S
C2381 C2383 1.433 . S
C2382 C2378 1.350 . S
C2382 C2379 1.463 . S
C2382 N2386 1.427 . S
C2383 H2373 0.929 . S
C2383 C2381 1.433 . S
C2383 N2386 1.384 . S
C2384 H2375 0.929 . S
C2384 C2376 1.378 . S
C2384 C2379 1.350 . S
C2385 H2372 0.929 . S
C2385 C2377 1.433 . S
C2385 N2387 1.384 . S
N2386 C2382 1.427 . S
N2386 C2383 1.384 . S
N2387 C2379 1.427 . S
N2387 C2385 1.384 . S
H2388 C2394 0.930 . S
H2389 C2398 0.930 . S
H2390 C2403 0.929 . S
H2391 C2401 0.929 . S
H2392 C2396 0.929 . S
H2393 C2402 0.929 . S
C2394 H2388 0.930 . S
C2394 C2395 1.367 . S
C2394 C2402 1.378 . S
C2395 C2394 1.367 . S
C2395 C2403 1.433 . S
C2396 H2392 0.929 . S
C2396 C2398 1.378 . S
C2396 C2400 1.350 . S
C2397 C2400 1.463 . S
C2397 C2402 1.350 . S
C2397 N2405 1.427 . S
C2398 H2389 0.930 . S
C2398 C2396 1.378 . S
C2398 C2399 1.367 . S
C2399 C2398 1.367 . S
C2399 C2401 1.433 . S
C2400 C2396 1.350 . S
C2400 C2397 1.463 . S
C2400 N2404 1.427 . S
C2401 H2391 0.929 . S
C2401 C2399 1.433 . S
C2401 N2404 1.384 . S
C2402 H2393 0.929 . S
C2402 C2394 1.378 . S
C2402 C2397 1.350 . S
C2403 H2390 0.929 . S
C2403 C2395 1.433 . S
C2403 N2405 1.384 . S
N2404 C2400 1.427 . S
N2404 C2401 1.384 . S
N2405 C2397 1.427 . S
N2405 C2403 1.384 . S
H2406 C2412 0.930 . S
H2407 C2416 0.930 . S
H2408 C2421 0.929 . S
H2409 C2419 0.929 . S
H2410 C2414 0.929 . S
H2411 C2420 0.929 . S
C2412 H2406 0.930 . S
C2412 C2413 1.367 . S
C2412 C2420 1.378 . S
C2413 C2412 1.367 . S
C2413 C2421 1.433 . S
C2414 H2410 0.929 . S
C2414 C2416 1.378 . S
C2414 C2418 1.350 . S
C2415 C2418 1.463 . S
C2415 C2420 1.350 . S
C2415 N2423 1.427 . S
C2416 H2407 0.930 . S
C2416 C2414 1.378 . S
C2416 C2417 1.367 . S
C2417 C2416 1.367 . S
C2417 C2419 1.433 . S
C2418 C2414 1.350 . S
C2418 C2415 1.463 . S
C2418 N2422 1.427 . S
C2419 H2409 0.929 . S
C2419 C2417 1.433 . S
C2419 N2422 1.384 . S
C2420 H2411 0.929 . S
C2420 C2412 1.378 . S
C2420 C2415 1.350 . S
C2421 H2408 0.929 . S
C2421 C2413 1.433 . S
C2421 N2423 1.384 . S
N2422 C2418 1.427 . S
N2422 C2419 1.384 . S
N2423 C2415 1.427 . S
N2423 C2421 1.384 . S
H2424 C2430 0.930 . S
H2425 C2434 0.930 . S
H2426 C2439 0.929 . S
H2427 C2437 0.929 . S
H2428 C2432 0.929 . S
H2429 C2438 0.929 . S
C2430 H2424 0.930 . S
C2430 C2431 1.367 . S
C2430 C2438 1.378 . S
C2431 C2430 1.367 . S
C2431 C2439 1.433 . S
C2432 H2428 0.929 . S
C2432 C2434 1.378 . S
C2432 C2436 1.350 . S
C2433 C2436 1.463 . S
C2433 C2438 1.350 . S
C2433 N2441 1.427 . S
C2434 H2425 0.930 . S
C2434 C2432 1.378 . S
C2434 C2435 1.367 . S
C2435 C2434 1.367 . S
C2435 C2437 1.433 . S
C2436 C2432 1.350 . S
C2436 C2433 1.463 . S
C2436 N2440 1.427 . S
C2437 H2427 0.929 . S
C2437 C2435 1.433 . S
C2437 N2440 1.384 . S
C2438 H2429 0.929 . S
C2438 C2430 1.378 . S
C2438 C2433 1.350 . S
C2439 H2426 0.929 . S
C2439 C2431 1.433 . S
C2439 N2441 1.384 . S
N2440 C2436 1.427 . S
N2440 C2437 1.384 . S
N2441 C2433 1.427 . S
N2441 C2439 1.384 . S
H2442 C2448 0.930 . S
H2443 C2452 0.930 . S
H2444 C2457 0.929 . S
H2445 C2455 0.929 . S
H2446 C2450 0.929 . S
H2447 C2456 0.929 . S
C2448 H2442 0.930 . S
C2448 C2449 1.367 . S
C2448 C2456 1.378 . S
C2449 C2448 1.367 . S
C2449 C2457 1.433 . S
C2450 H2446 0.929 . S
C2450 C2452 1.378 . S
C2450 C2454 1.350 . S
C2451 C2454 1.463 . S
C2451 C2456 1.350 . S
C2451 N2459 1.427 . S
C2452 H2443 0.930 . S
C2452 C2450 1.378 . S
C2452 C2453 1.367 . S
C2453 C2452 1.367 . S
C2453 C2455 1.433 . S
C2454 C2450 1.350 . S
C2454 C2451 1.463 . S
C2454 N2458 1.427 . S
C2455 H2445 0.929 . S
C2455 C2453 1.433 . S
C2455 N2458 1.384 . S
C2456 H2447 0.929 . S
C2456 C2448 1.378 . S
C2456 C2451 1.350 . S
C2457 H2444 0.929 . S
C2457 C2449 1.433 . S
C2457 N2459 1.384 . S
N2458 C2454 1.427 . S
N2458 C2455 1.384 . S
N2459 C2451 1.427 . S
N2459 C2457 1.384 . S
H2460 C2466 0.930 . S
H2461 C2470 0.930 . S
H2462 C2475 0.929 . S
H2463 C2473 0.929 . S
H2464 C2468 0.929 . S
H2465 C2474 0.929 . S
C2466 H2460 0.930 . S
C2466 C2467 1.367 . S
C2466 C2474 1.378 . S
C2467 C2466 1.367 . S
C2467 C2475 1.433 . S
C2468 H2464 0.929 . S
C2468 C2470 1.378 . S
C2468 C2472 1.350 . S
C2469 C2472 1.463 . S
C2469 C2474 1.350 . S
C2469 N2477 1.427 . S
C2470 H2461 0.930 . S
C2470 C2468 1.378 . S
C2470 C2471 1.367 . S
C2471 C2470 1.367 . S
C2471 C2473 1.433 . S
C2472 C2468 1.350 . S
C2472 C2469 1.463 . S
C2472 N2476 1.427 . S
C2473 H2463 0.929 . S
C2473 C2471 1.433 . S
C2473 N2476 1.384 . S
C2474 H2465 0.929 . S
C2474 C2466 1.378 . S
C2474 C2469 1.350 . S
C2475 H2462 0.929 . S
C2475 C2467 1.433 . S
C2475 N2477 1.384 . S
N2476 C2472 1.427 . S
N2476 C2473 1.384 . S
N2477 C2469 1.427 . S
N2477 C2475 1.384 . S
H2478 C2484 0.930 . S
H2479 C2488 0.930 . S
H2480 C2493 0.929 . S
H2481 C2491 0.929 . S
H2482 C2486 0.929 . S
H2483 C2492 0.929 . S
C2484 H2478 0.930 . S
C2484 C2485 1.367 . S
C2484 C2492 1.378 . S
C2485 C2484 1.367 . S
C2485 C2493 1.433 . S
C2486 H2482 0.929 . S
C2486 C2488 1.378 . S
C2486 C2490 1.350 . S
C2487 C2490 1.463 . S
C2487 C2492 1.350 . S
C2487 N2495 1.427 . S
C2488 H2479 0.930 . S
C2488 C2486 1.378 . S
C2488 C2489 1.367 . S
C2489 C2488 1.367 . S
C2489 C2491 1.433 . S
C2490 C2486 1.350 . S
C2490 C2487 1.463 . S
C2490 N2494 1.427 . S
C2491 H2481 0.929 . S
C2491 C2489 1.433 . S
C2491 N2494 1.384 . S
C2492 H2483 0.929 . S
C2492 C2484 1.378 . S
C2492 C2487 1.350 . S
C2493 H2480 0.929 . S
C2493 C2485 1.433 . S
C2493 N2495 1.384 . S
N2494 C2490 1.427 . S
N2494 C2491 1.384 . S
N2495 C2487 1.427 . S
N2495 C2493 1.384 . S
H2496 C2502 0.930 . S
H2497 C2506 0.930 . S
H2498 C2511 0.929 . S
H2499 C2509 0.929 . S
H2500 C2504 0.929 . S
H2501 C2510 0.929 . S
C2502 H2496 0.930 . S
C2502 C2503 1.367 . S
C2502 C2510 1.378 . S
C2503 C2502 1.367 . S
C2503 C2511 1.433 . S
C2504 H2500 0.929 . S
C2504 C2506 1.378 . S
C2504 C2508 1.350 . S
C2505 C2508 1.463 . S
C2505 C2510 1.350 . S
C2505 N2513 1.427 . S
C2506 H2497 0.930 . S
C2506 C2504 1.378 . S
C2506 C2507 1.367 . S
C2507 C2506 1.367 . S
C2507 C2509 1.433 . S
C2508 C2504 1.350 . S
C2508 C2505 1.463 . S
C2508 N2512 1.427 . S
C2509 H2499 0.929 . S
C2509 C2507 1.433 . S
C2509 N2512 1.384 . S
C2510 H2501 0.929 . S
C2510 C2502 1.378 . S
C2510 C2505 1.350 . S
C2511 H2498 0.929 . S
C2511 C2503 1.433 . S
C2511 N2513 1.384 . S
N2512 C2508 1.427 . S
N2512 C2509 1.384 . S
N2513 C2505 1.427 . S
N2513 C2511 1.384 . S
H2514 C2520 0.930 . S
H2515 C2524 0.930 . S
H2516 C2529 0.929 . S
H2517 C2527 0.929 . S
H2518 C2522 0.929 . S
H2519 C2528 0.929 . S
C2520 H2514 0.930 . S
C2520 C2521 1.367 . S
C2520 C2528 1.378 . S
C2521 C2520 1.367 . S
C2521 C2529 1.433 . S
C2522 H2518 0.929 . S
C2522 C2524 1.378 . S
C2522 C2526 1.350 . S
C2523 C2526 1.463 . S
C2523 C2528 1.350 . S
C2523 N2531 1.427 . S
C2524 H2515 0.930 . S
C2524 C2522 1.378 . S
C2524 C2525 1.367 . S
C2525 C2524 1.367 . S
C2525 C2527 1.433 . S
C2526 C2522 1.350 . S
C2526 C2523 1.463 . S
C2526 N2530 1.427 . S
C2527 H2517 0.929 . S
C2527 C2525 1.433 . S
C2527 N2530 1.384 . S
C2528 H2519 0.929 . S
C2528 C2520 1.378 . S
C2528 C2523 1.350 . S
C2529 H2516 0.929 . S
C2529 C2521 1.433 . S
C2529 N2531 1.384 . S
N2530 C2526 1.427 . S
N2530 C2527 1.384 . S
N2531 C2523 1.427 . S
N2531 C2529 1.384 . S
H2532 C2538 0.930 . S
H2533 C2542 0.930 . S
H2534 C2547 0.929 . S
H2535 C2545 0.929 . S
H2536 C2540 0.929 . S
H2537 C2546 0.929 . S
C2538 H2532 0.930 . S
C2538 C2539 1.367 . S
C2538 C2546 1.378 . S
C2539 C2538 1.367 . S
C2539 C2547 1.433 . S
C2540 H2536 0.929 . S
C2540 C2542 1.378 . S
C2540 C2544 1.350 . S
C2541 C2544 1.463 . S
C2541 C2546 1.350 . S
C2541 N2549 1.427 . S
C2542 H2533 0.930 . S
C2542 C2540 1.378 . S
C2542 C2543 1.367 . S
C2543 C2542 1.367 . S
C2543 C2545 1.433 . S
C2544 C2540 1.350 . S
C2544 C2541 1.463 . S
C2544 N2548 1.427 . S
C2545 H2535 0.929 . S
C2545 C2543 1.433 . S
C2545 N2548 1.384 . S
C2546 H2537 0.929 . S
C2546 C2538 1.378 . S
C2546 C2541 1.350 . S
C2547 H2534 0.929 . S
C2547 C2539 1.433 . S
C2547 N2549 1.384 . S
N2548 C2544 1.427 . S
N2548 C2545 1.384 . S
N2549 C2541 1.427 . S
N2549 C2547 1.384 . S
H2550 C2556 0.930 . S
H2551 C2560 0.930 . S
H2552 C2565 0.929 . S
H2553 C2563 0.929 . S
H2554 C2558 0.929 . S
H2555 C2564 0.929 . S
C2556 H2550 0.930 . S
C2556 C2557 1.367 . S
C2556 C2564 1.378 . S
C2557 C2556 1.367 . S
C2557 C2565 1.433 . S
C2558 H2554 0.929 . S
C2558 C2560 1.378 . S
C2558 C2562 1.350 . S
C2559 C2562 1.463 . S
C2559 C2564 1.350 . S
C2559 N2567 1.427 . S
C2560 H2551 0.930 . S
C2560 C2558 1.378 . S
C2560 C2561 1.367 . S
C2561 C2560 1.367 . S
C2561 C2563 1.433 . S
C2562 C2558 1.350 . S
C2562 C2559 1.463 . S
C2562 N2566 1.427 . S
C2563 H2553 0.929 . S
C2563 C2561 1.433 . S
C2563 N2566 1.384 . S
C2564 H2555 0.929 . S
C2564 C2556 1.378 . S
C2564 C2559 1.350 . S
C2565 H2552 0.929 . S
C2565 C2557 1.433 . S
C2565 N2567 1.384 . S
N2566 C2562 1.427 . S
N2566 C2563 1.384 . S
N2567 C2559 1.427 . S
N2567 C2565 1.384 . S
H2568 C2574 0.930 . S
H2569 C2578 0.930 . S
H2570 C2583 0.929 . S
H2571 C2581 0.929 . S
H2572 C2576 0.929 . S
H2573 C2582 0.929 . S
C2574 H2568 0.930 . S
C2574 C2575 1.367 . S
C2574 C2582 1.378 . S
C2575 C2574 1.367 . S
C2575 C2583 1.433 . S
C2576 H2572 0.929 . S
C2576 C2578 1.378 . S
C2576 C2580 1.350 . S
C2577 C2580 1.463 . S
C2577 C2582 1.350 . S
C2577 N2585 1.427 . S
C2578 H2569 0.930 . S
C2578 C2576 1.378 . S
C2578 C2579 1.367 . S
C2579 C2578 1.367 . S
C2579 C2581 1.433 . S
C2580 C2576 1.350 . S
C2580 C2577 1.463 . S
C2580 N2584 1.427 . S
C2581 H2571 0.929 . S
C2581 C2579 1.433 . S
C2581 N2584 1.384 . S
C2582 H2573 0.929 . S
C2582 C2574 1.378 . S
C2582 C2577 1.350 . S
C2583 H2570 0.929 . S
C2583 C2575 1.433 . S
C2583 N2585 1.384 . S
N2584 C2580 1.427 . S
N2584 C2581 1.384 . S
N2585 C2577 1.427 . S
N2585 C2583 1.384 . S
H2586 C2592 0.930 . S
H2587 C2596 0.930 . S
H2588 C2601 0.929 . S
H2589 C2599 0.929 . S
H2590 C2594 0.929 . S
H2591 C2600 0.929 . S
C2592 H2586 0.930 . S
C2592 C2593 1.367 . S
C2592 C2600 1.378 . S
C2593 C2592 1.367 . S
C2593 C2601 1.433 . S
C2594 H2590 0.929 . S
C2594 C2596 1.378 . S
C2594 C2598 1.350 . S
C2595 C2598 1.463 . S
C2595 C2600 1.350 . S
C2595 N2603 1.427 . S
C2596 H2587 0.930 . S
C2596 C2594 1.378 . S
C2596 C2597 1.367 . S
C2597 C2596 1.367 . S
C2597 C2599 1.433 . S
C2598 C2594 1.350 . S
C2598 C2595 1.463 . S
C2598 N2602 1.427 . S
C2599 H2589 0.929 . S
C2599 C2597 1.433 . S
C2599 N2602 1.384 . S
C2600 H2591 0.929 . S
C2600 C2592 1.378 . S
C2600 C2595 1.350 . S
C2601 H2588 0.929 . S
C2601 C2593 1.433 . S
C2601 N2603 1.384 . S
N2602 C2598 1.427 . S
N2602 C2599 1.384 . S
N2603 C2595 1.427 . S
N2603 C2601 1.384 . S
H2604 C2610 0.930 . S
H2605 C2614 0.930 . S
H2606 C2619 0.929 . S
H2607 C2617 0.929 . S
H2608 C2612 0.929 . S
H2609 C2618 0.929 . S
C2610 H2604 0.930 . S
C2610 C2611 1.367 . S
C2610 C2618 1.378 . S
C2611 C2610 1.367 . S
C2611 C2619 1.433 . S
C2612 H2608 0.929 . S
C2612 C2614 1.378 . S
C2612 C2616 1.350 . S
C2613 C2616 1.463 . S
C2613 C2618 1.350 . S
C2613 N2621 1.427 . S
C2614 H2605 0.930 . S
C2614 C2612 1.378 . S
C2614 C2615 1.367 . S
C2615 C2614 1.367 . S
C2615 C2617 1.433 . S
C2616 C2612 1.350 . S
C2616 C2613 1.463 . S
C2616 N2620 1.427 . S
C2617 H2607 0.929 . S
C2617 C2615 1.433 . S
C2617 N2620 1.384 . S
C2618 H2609 0.929 . S
C2618 C2610 1.378 . S
C2618 C2613 1.350 . S
C2619 H2606 0.929 . S
C2619 C2611 1.433 . S
C2619 N2621 1.384 . S
N2620 C2616 1.427 . S
N2620 C2617 1.384 . S
N2621 C2613 1.427 . S
N2621 C2619 1.384 . S
H2622 C2628 0.930 . S
H2623 C2632 0.930 . S
H2624 C2637 0.929 . S
H2625 C2635 0.929 . S
H2626 C2630 0.929 . S
H2627 C2636 0.929 . S
C2628 H2622 0.930 . S
C2628 C2629 1.367 . S
C2628 C2636 1.378 . S
C2629 C2628 1.367 . S
C2629 C2637 1.433 . S
C2630 H2626 0.929 . S
C2630 C2632 1.378 . S
C2630 C2634 1.350 . S
C2631 C2634 1.463 . S
C2631 C2636 1.350 . S
C2631 N2639 1.427 . S
C2632 H2623 0.930 . S
C2632 C2630 1.378 . S
C2632 C2633 1.367 . S
C2633 C2632 1.367 . S
C2633 C2635 1.433 . S
C2634 C2630 1.350 . S
C2634 C2631 1.463 . S
C2634 N2638 1.427 . S
C2635 H2625 0.929 . S
C2635 C2633 1.433 . S
C2635 N2638 1.384 . S
C2636 H2627 0.929 . S
C2636 C2628 1.378 . S
C2636 C2631 1.350 . S
C2637 H2624 0.929 . S
C2637 C2629 1.433 . S
C2637 N2639 1.384 . S
N2638 C2634 1.427 . S
N2638 C2635 1.384 . S
N2639 C2631 1.427 . S
N2639 C2637 1.384 . S
H2640 C2646 0.930 . S
H2641 C2650 0.930 . S
H2642 C2655 0.929 . S
H2643 C2653 0.929 . S
H2644 C2648 0.929 . S
H2645 C2654 0.929 . S
C2646 H2640 0.930 . S
C2646 C2647 1.367 . S
C2646 C2654 1.378 . S
C2647 C2646 1.367 . S
C2647 C2655 1.433 . S
C2648 H2644 0.929 . S
C2648 C2650 1.378 . S
C2648 C2652 1.350 . S
C2649 C2652 1.463 . S
C2649 C2654 1.350 . S
C2649 N2657 1.427 . S
C2650 H2641 0.930 . S
C2650 C2648 1.378 . S
C2650 C2651 1.367 . S
C2651 C2650 1.367 . S
C2651 C2653 1.433 . S
C2652 C2648 1.350 . S
C2652 C2649 1.463 . S
C2652 N2656 1.427 . S
C2653 H2643 0.929 . S
C2653 C2651 1.433 . S
C2653 N2656 1.384 . S
C2654 H2645 0.929 . S
C2654 C2646 1.378 . S
C2654 C2649 1.350 . S
C2655 H2642 0.929 . S
C2655 C2647 1.433 . S
C2655 N2657 1.384 . S
N2656 C2652 1.427 . S
N2656 C2653 1.384 . S
N2657 C2649 1.427 . S
N2657 C2655 1.384 . S
H2658 C2664 0.930 . S
H2659 C2668 0.930 . S
H2660 C2673 0.929 . S
H2661 C2671 0.929 . S
H2662 C2666 0.929 . S
H2663 C2672 0.929 . S
C2664 H2658 0.930 . S
C2664 C2665 1.367 . S
C2664 C2672 1.378 . S
C2665 C2664 1.367 . S
C2665 C2673 1.433 . S
C2666 H2662 0.929 . S
C2666 C2668 1.378 . S
C2666 C2670 1.350 . S
C2667 C2670 1.463 . S
C2667 C2672 1.350 . S
C2667 N2675 1.427 . S
C2668 H2659 0.930 . S
C2668 C2666 1.378 . S
C2668 C2669 1.367 . S
C2669 C2668 1.367 . S
C2669 C2671 1.433 . S
C2670 C2666 1.350 . S
C2670 C2667 1.463 . S
C2670 N2674 1.427 . S
C2671 H2661 0.929 . S
C2671 C2669 1.433 . S
C2671 N2674 1.384 . S
C2672 H2663 0.929 . S
C2672 C2664 1.378 . S
C2672 C2667 1.350 . S
C2673 H2660 0.929 . S
C2673 C2665 1.433 . S
C2673 N2675 1.384 . S
N2674 C2670 1.427 . S
N2674 C2671 1.384 . S
N2675 C2667 1.427 . S
N2675 C2673 1.384 . S
H2676 C2682 0.930 . S
H2677 C2686 0.930 . S
H2678 C2691 0.929 . S
H2679 C2689 0.929 . S
H2680 C2684 0.929 . S
H2681 C2690 0.929 . S
C2682 H2676 0.930 . S
C2682 C2683 1.367 . S
C2682 C2690 1.378 . S
C2683 C2682 1.367 . S
C2683 C2691 1.433 . S
C2684 H2680 0.929 . S
C2684 C2686 1.378 . S
C2684 C2688 1.350 . S
C2685 C2688 1.463 . S
C2685 C2690 1.350 . S
C2685 N2693 1.427 . S
C2686 H2677 0.930 . S
C2686 C2684 1.378 . S
C2686 C2687 1.367 . S
C2687 C2686 1.367 . S
C2687 C2689 1.433 . S
C2688 C2684 1.350 . S
C2688 C2685 1.463 . S
C2688 N2692 1.427 . S
C2689 H2679 0.929 . S
C2689 C2687 1.433 . S
C2689 N2692 1.384 . S
C2690 H2681 0.929 . S
C2690 C2682 1.378 . S
C2690 C2685 1.350 . S
C2691 H2678 0.929 . S
C2691 C2683 1.433 . S
C2691 N2693 1.384 . S
N2692 C2688 1.427 . S
N2692 C2689 1.384 . S
N2693 C2685 1.427 . S
N2693 C2691 1.384 . S
H2694 C2700 0.930 . S
H2695 C2704 0.930 . S
H2696 C2709 0.929 . S
H2697 C2707 0.929 . S
H2698 C2702 0.929 . S
H2699 C2708 0.929 . S
C2700 H2694 0.930 . S
C2700 C2701 1.367 . S
C2700 C2708 1.378 . S
C2701 C2700 1.367 . S
C2701 C2709 1.433 . S
C2702 H2698 0.929 . S
C2702 C2704 1.378 . S
C2702 C2706 1.350 . S
C2703 C2706 1.463 . S
C2703 C2708 1.350 . S
C2703 N2711 1.427 . S
C2704 H2695 0.930 . S
C2704 C2702 1.378 . S
C2704 C2705 1.367 . S
C2705 C2704 1.367 . S
C2705 C2707 1.433 . S
C2706 C2702 1.350 . S
C2706 C2703 1.463 . S
C2706 N2710 1.427 . S
C2707 H2697 0.929 . S
C2707 C2705 1.433 . S
C2707 N2710 1.384 . S
C2708 H2699 0.929 . S
C2708 C2700 1.378 . S
C2708 C2703 1.350 . S
C2709 H2696 0.929 . S
C2709 C2701 1.433 . S
C2709 N2711 1.384 . S
N2710 C2706 1.427 . S
N2710 C2707 1.384 . S
N2711 C2703 1.427 . S
N2711 C2709 1.384 . S
H2712 C2718 0.930 . S
H2713 C2722 0.930 . S
H2714 C2727 0.929 . S
H2715 C2725 0.929 . S
H2716 C2720 0.929 . S
H2717 C2726 0.929 . S
C2718 H2712 0.930 . S
C2718 C2719 1.367 . S
C2718 C2726 1.378 . S
C2719 C2718 1.367 . S
C2719 C2727 1.433 . S
C2720 H2716 0.929 . S
C2720 C2722 1.378 . S
C2720 C2724 1.350 . S
C2721 C2724 1.463 . S
C2721 C2726 1.350 . S
C2721 N2729 1.427 . S
C2722 H2713 0.930 . S
C2722 C2720 1.378 . S
C2722 C2723 1.367 . S
C2723 C2722 1.367 . S
C2723 C2725 1.433 . S
C2724 C2720 1.350 . S
C2724 C2721 1.463 . S
C2724 N2728 1.427 . S
C2725 H2715 0.929 . S
C2725 C2723 1.433 . S
C2725 N2728 1.384 . S
C2726 H2717 0.929 . S
C2726 C2718 1.378 . S
C2726 C2721 1.350 . S
C2727 H2714 0.929 . S
C2727 C2719 1.433 . S
C2727 N2729 1.384 . S
N2728 C2724 1.427 . S
N2728 C2725 1.384 . S
N2729 C2721 1.427 . S
N2729 C2727 1.384 . S
H2730 C2736 0.930 . S
H2731 C2740 0.930 . S
H2732 C2745 0.929 . S
H2733 C2743 0.929 . S
H2734 C2738 0.929 . S
H2735 C2744 0.929 . S
C2736 H2730 0.930 . S
C2736 C2737 1.367 . S
C2736 C2744 1.378 . S
C2737 C2736 1.367 . S
C2737 C2745 1.433 . S
C2738 H2734 0.929 . S
C2738 C2740 1.378 . S
C2738 C2742 1.350 . S
C2739 C2742 1.463 . S
C2739 C2744 1.350 . S
C2739 N2747 1.427 . S
C2740 H2731 0.930 . S
C2740 C2738 1.378 . S
C2740 C2741 1.367 . S
C2741 C2740 1.367 . S
C2741 C2743 1.433 . S
C2742 C2738 1.350 . S
C2742 C2739 1.463 . S
C2742 N2746 1.427 . S
C2743 H2733 0.929 . S
C2743 C2741 1.433 . S
C2743 N2746 1.384 . S
C2744 H2735 0.929 . S
C2744 C2736 1.378 . S
C2744 C2739 1.350 . S
C2745 H2732 0.929 . S
C2745 C2737 1.433 . S
C2745 N2747 1.384 . S
N2746 C2742 1.427 . S
N2746 C2743 1.384 . S
N2747 C2739 1.427 . S
N2747 C2745 1.384 . S
H2748 C2754 0.930 . S
H2749 C2758 0.930 . S
H2750 C2763 0.929 . S
H2751 C2761 0.929 . S
H2752 C2756 0.929 . S
H2753 C2762 0.929 . S
C2754 H2748 0.930 . S
C2754 C2755 1.367 . S
C2754 C2762 1.378 . S
C2755 C2754 1.367 . S
C2755 C2763 1.433 . S
C2756 H2752 0.929 . S
C2756 C2758 1.378 . S
C2756 C2760 1.350 . S
C2757 C2760 1.463 . S
C2757 C2762 1.350 . S
C2757 N2765 1.427 . S
C2758 H2749 0.930 . S
C2758 C2756 1.378 . S
C2758 C2759 1.367 . S
C2759 C2758 1.367 . S
C2759 C2761 1.433 . S
C2760 C2756 1.350 . S
C2760 C2757 1.463 . S
C2760 N2764 1.427 . S
C2761 H2751 0.929 . S
C2761 C2759 1.433 . S
C2761 N2764 1.384 . S
C2762 H2753 0.929 . S
C2762 C2754 1.378 . S
C2762 C2757 1.350 . S
C2763 H2750 0.929 . S
C2763 C2755 1.433 . S
C2763 N2765 1.384 . S
N2764 C2760 1.427 . S
N2764 C2761 1.384 . S
N2765 C2757 1.427 . S
N2765 C2763 1.384 . S
H2766 C2772 0.930 . S
H2767 C2776 0.930 . S
H2768 C2781 0.929 . S
H2769 C2779 0.929 . S
H2770 C2774 0.929 . S
H2771 C2780 0.929 . S
C2772 H2766 0.930 . S
C2772 C2773 1.367 . S
C2772 C2780 1.378 . S
C2773 C2772 1.367 . S
C2773 C2781 1.433 . S
C2774 H2770 0.929 . S
C2774 C2776 1.378 . S
C2774 C2778 1.350 . S
C2775 C2778 1.463 . S
C2775 C2780 1.350 . S
C2775 N2783 1.427 . S
C2776 H2767 0.930 . S
C2776 C2774 1.378 . S
C2776 C2777 1.367 . S
C2777 C2776 1.367 . S
C2777 C2779 1.433 . S
C2778 C2774 1.350 . S
C2778 C2775 1.463 . S
C2778 N2782 1.427 . S
C2779 H2769 0.929 . S
C2779 C2777 1.433 . S
C2779 N2782 1.384 . S
C2780 H2771 0.929 . S
C2780 C2772 1.378 . S
C2780 C2775 1.350 . S
C2781 H2768 0.929 . S
C2781 C2773 1.433 . S
C2781 N2783 1.384 . S
N2782 C2778 1.427 . S
N2782 C2779 1.384 . S
N2783 C2775 1.427 . S
N2783 C2781 1.384 . S
H2784 C2790 0.930 . S
H2785 C2794 0.930 . S
H2786 C2799 0.929 . S
H2787 C2797 0.929 . S
H2788 C2792 0.929 . S
H2789 C2798 0.929 . S
C2790 H2784 0.930 . S
C2790 C2791 1.367 . S
C2790 C2798 1.378 . S
C2791 C2790 1.367 . S
C2791 C2799 1.433 . S
C2792 H2788 0.929 . S
C2792 C2794 1.378 . S
C2792 C2796 1.350 . S
C2793 C2796 1.463 . S
C2793 C2798 1.350 . S
C2793 N2801 1.427 . S
C2794 H2785 0.930 . S
C2794 C2792 1.378 . S
C2794 C2795 1.367 . S
C2795 C2794 1.367 . S
C2795 C2797 1.433 . S
C2796 C2792 1.350 . S
C2796 C2793 1.463 . S
C2796 N2800 1.427 . S
C2797 H2787 0.929 . S
C2797 C2795 1.433 . S
C2797 N2800 1.384 . S
C2798 H2789 0.929 . S
C2798 C2790 1.378 . S
C2798 C2793 1.350 . S
C2799 H2786 0.929 . S
C2799 C2791 1.433 . S
C2799 N2801 1.384 . S
N2800 C2796 1.427 . S
N2800 C2797 1.384 . S
N2801 C2793 1.427 . S
N2801 C2799 1.384 . S
H2802 C2808 0.930 . S
H2803 C2812 0.930 . S
H2804 C2817 0.929 . S
H2805 C2815 0.929 . S
H2806 C2810 0.929 . S
H2807 C2816 0.929 . S
C2808 H2802 0.930 . S
C2808 C2809 1.367 . S
C2808 C2816 1.378 . S
C2809 C2808 1.367 . S
C2809 C2817 1.433 . S
C2810 H2806 0.929 . S
C2810 C2812 1.378 . S
C2810 C2814 1.350 . S
C2811 C2814 1.463 . S
C2811 C2816 1.350 . S
C2811 N2819 1.427 . S
C2812 H2803 0.930 . S
C2812 C2810 1.378 . S
C2812 C2813 1.367 . S
C2813 C2812 1.367 . S
C2813 C2815 1.433 . S
C2814 C2810 1.350 . S
C2814 C2811 1.463 . S
C2814 N2818 1.427 . S
C2815 H2805 0.929 . S
C2815 C2813 1.433 . S
C2815 N2818 1.384 . S
C2816 H2807 0.929 . S
C2816 C2808 1.378 . S
C2816 C2811 1.350 . S
C2817 H2804 0.929 . S
C2817 C2809 1.433 . S
C2817 N2819 1.384 . S
N2818 C2814 1.427 . S
N2818 C2815 1.384 . S
N2819 C2811 1.427 . S
N2819 C2817 1.384 . S
H2820 C2826 0.930 . S
H2821 C2830 0.930 . S
H2822 C2835 0.929 . S
H2823 C2833 0.929 . S
H2824 C2828 0.929 . S
H2825 C2834 0.929 . S
C2826 H2820 0.930 . S
C2826 C2827 1.367 . S
C2826 C2834 1.378 . S
C2827 C2826 1.367 . S
C2827 C2835 1.433 . S
C2828 H2824 0.929 . S
C2828 C2830 1.378 . S
C2828 C2832 1.350 . S
C2829 C2832 1.463 . S
C2829 C2834 1.350 . S
C2829 N2837 1.427 . S
C2830 H2821 0.930 . S
C2830 C2828 1.378 . S
C2830 C2831 1.367 . S
C2831 C2830 1.367 . S
C2831 C2833 1.433 . S
C2832 C2828 1.350 . S
C2832 C2829 1.463 . S
C2832 N2836 1.427 . S
C2833 H2823 0.929 . S
C2833 C2831 1.433 . S
C2833 N2836 1.384 . S
C2834 H2825 0.929 . S
C2834 C2826 1.378 . S
C2834 C2829 1.350 . S
C2835 H2822 0.929 . S
C2835 C2827 1.433 . S
C2835 N2837 1.384 . S
N2836 C2832 1.427 . S
N2836 C2833 1.384 . S
N2837 C2829 1.427 . S
N2837 C2835 1.384 . S
H2838 C2844 0.930 . S
H2839 C2848 0.930 . S
H2840 C2853 0.929 . S
H2841 C2851 0.929 . S
H2842 C2846 0.929 . S
H2843 C2852 0.929 . S
C2844 H2838 0.930 . S
C2844 C2845 1.367 . S
C2844 C2852 1.378 . S
C2845 C2844 1.367 . S
C2845 C2853 1.433 . S
C2846 H2842 0.929 . S
C2846 C2848 1.378 . S
C2846 C2850 1.350 . S
C2847 C2850 1.463 . S
C2847 C2852 1.350 . S
C2847 N2855 1.427 . S
C2848 H2839 0.930 . S
C2848 C2846 1.378 . S
C2848 C2849 1.367 . S
C2849 C2848 1.367 . S
C2849 C2851 1.433 . S
C2850 C2846 1.350 . S
C2850 C2847 1.463 . S
C2850 N2854 1.427 . S
C2851 H2841 0.929 . S
C2851 C2849 1.433 . S
C2851 N2854 1.384 . S
C2852 H2843 0.929 . S
C2852 C2844 1.378 . S
C2852 C2847 1.350 . S
C2853 H2840 0.929 . S
C2853 C2845 1.433 . S
C2853 N2855 1.384 . S
N2854 C2850 1.427 . S
N2854 C2851 1.384 . S
N2855 C2847 1.427 . S
N2855 C2853 1.384 . S
H2856 C2862 0.930 . S
H2857 C2866 0.930 . S
H2858 C2871 0.929 . S
H2859 C2869 0.929 . S
H2860 C2864 0.929 . S
H2861 C2870 0.929 . S
C2862 H2856 0.930 . S
C2862 C2863 1.367 . S
C2862 C2870 1.378 . S
C2863 C2862 1.367 . S
C2863 C2871 1.433 . S
C2864 H2860 0.929 . S
C2864 C2866 1.378 . S
C2864 C2868 1.350 . S
C2865 C2868 1.463 . S
C2865 C2870 1.350 . S
C2865 N2873 1.427 . S
C2866 H2857 0.930 . S
C2866 C2864 1.378 . S
C2866 C2867 1.367 . S
C2867 C2866 1.367 . S
C2867 C2869 1.433 . S
C2868 C2864 1.350 . S
C2868 C2865 1.463 . S
C2868 N2872 1.427 . S
C2869 H2859 0.929 . S
C2869 C2867 1.433 . S
C2869 N2872 1.384 . S
C2870 H2861 0.929 . S
C2870 C2862 1.378 . S
C2870 C2865 1.350 . S
C2871 H2858 0.929 . S
C2871 C2863 1.433 . S
C2871 N2873 1.384 . S
N2872 C2868 1.427 . S
N2872 C2869 1.384 . S
N2873 C2865 1.427 . S
N2873 C2871 1.384 . S
H2874 C2880 0.930 . S
H2875 C2884 0.930 . S
H2876 C2889 0.929 . S
H2877 C2887 0.929 . S
H2878 C2882 0.929 . S
H2879 C2888 0.929 . S
C2880 H2874 0.930 . S
C2880 C2881 1.367 . S
C2880 C2888 1.378 . S
C2881 C2880 1.367 . S
C2881 C2889 1.433 . S
C2882 H2878 0.929 . S
C2882 C2884 1.378 . S
C2882 C2886 1.350 . S
C2883 C2886 1.463 . S
C2883 C2888 1.350 . S
C2883 N2891 1.427 . S
C2884 H2875 0.930 . S
C2884 C2882 1.378 . S
C2884 C2885 1.367 . S
C2885 C2884 1.367 . S
C2885 C2887 1.433 . S
C2886 C2882 1.350 . S
C2886 C2883 1.463 . S
C2886 N2890 1.427 . S
C2887 H2877 0.929 . S
C2887 C2885 1.433 . S
C2887 N2890 1.384 . S
C2888 H2879 0.929 . S
C2888 C2880 1.378 . S
C2888 C2883 1.350 . S
C2889 H2876 0.929 . S
C2889 C2881 1.433 . S
C2889 N2891 1.384 . S
N2890 C2886 1.427 . S
N2890 C2887 1.384 . S
N2891 C2883 1.427 . S
N2891 C2889 1.384 . S
H2892 C2898 0.930 . S
H2893 C2902 0.930 . S
H2894 C2907 0.929 . S
H2895 C2905 0.929 . S
H2896 C2900 0.929 . S
H2897 C2906 0.929 . S
C2898 H2892 0.930 . S
C2898 C2899 1.367 . S
C2898 C2906 1.378 . S
C2899 C2898 1.367 . S
C2899 C2907 1.433 . S
C2900 H2896 0.929 . S
C2900 C2902 1.378 . S
C2900 C2904 1.350 . S
C2901 C2904 1.463 . S
C2901 C2906 1.350 . S
C2901 N2909 1.427 . S
C2902 H2893 0.930 . S
C2902 C2900 1.378 . S
C2902 C2903 1.367 . S
C2903 C2902 1.367 . S
C2903 C2905 1.433 . S
C2904 C2900 1.350 . S
C2904 C2901 1.463 . S
C2904 N2908 1.427 . S
C2905 H2895 0.929 . S
C2905 C2903 1.433 . S
C2905 N2908 1.384 . S
C2906 H2897 0.929 . S
C2906 C2898 1.378 . S
C2906 C2901 1.350 . S
C2907 H2894 0.929 . S
C2907 C2899 1.433 . S
C2907 N2909 1.384 . S
N2908 C2904 1.427 . S
N2908 C2905 1.384 . S
N2909 C2901 1.427 . S
N2909 C2907 1.384 . S
H2910 C2916 0.930 . S
H2911 C2920 0.930 . S
H2912 C2925 0.929 . S
H2913 C2923 0.929 . S
H2914 C2918 0.929 . S
H2915 C2924 0.929 . S
C2916 H2910 0.930 . S
C2916 C2917 1.367 . S
C2916 C2924 1.378 . S
C2917 C2916 1.367 . S
C2917 C2925 1.433 . S
C2918 H2914 0.929 . S
C2918 C2920 1.378 . S
C2918 C2922 1.350 . S
C2919 C2922 1.463 . S
C2919 C2924 1.350 . S
C2919 N2927 1.427 . S
C2920 H2911 0.930 . S
C2920 C2918 1.378 . S
C2920 C2921 1.367 . S
C2921 C2920 1.367 . S
C2921 C2923 1.433 . S
C2922 C2918 1.350 . S
C2922 C2919 1.463 . S
C2922 N2926 1.427 . S
C2923 H2913 0.929 . S
C2923 C2921 1.433 . S
C2923 N2926 1.384 . S
C2924 H2915 0.929 . S
C2924 C2916 1.378 . S
C2924 C2919 1.350 . S
C2925 H2912 0.929 . S
C2925 C2917 1.433 . S
C2925 N2927 1.384 . S
N2926 C2922 1.427 . S
N2926 C2923 1.384 . S
N2927 C2919 1.427 . S
N2927 C2925 1.384 . S
H2928 C2934 0.930 . S
H2929 C2938 0.930 . S
H2930 C2943 0.929 . S
H2931 C2941 0.929 . S
H2932 C2936 0.929 . S
H2933 C2942 0.929 . S
C2934 H2928 0.930 . S
C2934 C2935 1.367 . S
C2934 C2942 1.378 . S
C2935 C2934 1.367 . S
C2935 C2943 1.433 . S
C2936 H2932 0.929 . S
C2936 C2938 1.378 . S
C2936 C2940 1.350 . S
C2937 C2940 1.463 . S
C2937 C2942 1.350 . S
C2937 N2945 1.427 . S
C2938 H2929 0.930 . S
C2938 C2936 1.378 . S
C2938 C2939 1.367 . S
C2939 C2938 1.367 . S
C2939 C2941 1.433 . S
C2940 C2936 1.350 . S
C2940 C2937 1.463 . S
C2940 N2944 1.427 . S
C2941 H2931 0.929 . S
C2941 C2939 1.433 . S
C2941 N2944 1.384 . S
C2942 H2933 0.929 . S
C2942 C2934 1.378 . S
C2942 C2937 1.350 . S
C2943 H2930 0.929 . S
C2943 C2935 1.433 . S
C2943 N2945 1.384 . S
N2944 C2940 1.427 . S
N2944 C2941 1.384 . S
N2945 C2937 1.427 . S
N2945 C2943 1.384 . S
H2946 C2952 0.930 . S
H2947 C2956 0.930 . S
H2948 C2961 0.929 . S
H2949 C2959 0.929 . S
H2950 C2954 0.929 . S
H2951 C2960 0.929 . S
C2952 H2946 0.930 . S
C2952 C2953 1.367 . S
C2952 C2960 1.378 . S
C2953 C2952 1.367 . S
C2953 C2961 1.433 . S
C2954 H2950 0.929 . S
C2954 C2956 1.378 . S
C2954 C2958 1.350 . S
C2955 C2958 1.463 . S
C2955 C2960 1.350 . S
C2955 N2963 1.427 . S
C2956 H2947 0.930 . S
C2956 C2954 1.378 . S
C2956 C2957 1.367 . S
C2957 C2956 1.367 . S
C2957 C2959 1.433 . S
C2958 C2954 1.350 . S
C2958 C2955 1.463 . S
C2958 N2962 1.427 . S
C2959 H2949 0.929 . S
C2959 C2957 1.433 . S
C2959 N2962 1.384 . S
C2960 H2951 0.929 . S
C2960 C2952 1.378 . S
C2960 C2955 1.350 . S
C2961 H2948 0.929 . S
C2961 C2953 1.433 . S
C2961 N2963 1.384 . S
N2962 C2958 1.427 . S
N2962 C2959 1.384 . S
N2963 C2955 1.427 . S
N2963 C2961 1.384 . S
H2964 C2970 0.930 . S
H2965 C2974 0.930 . S
H2966 C2979 0.929 . S
H2967 C2977 0.929 . S
H2968 C2972 0.929 . S
H2969 C2978 0.929 . S
C2970 H2964 0.930 . S
C2970 C2971 1.367 . S
C2970 C2978 1.378 . S
C2971 C2970 1.367 . S
C2971 C2979 1.433 . S
C2972 H2968 0.929 . S
C2972 C2974 1.378 . S
C2972 C2976 1.350 . S
C2973 C2976 1.463 . S
C2973 C2978 1.350 . S
C2973 N2981 1.427 . S
C2974 H2965 0.930 . S
C2974 C2972 1.378 . S
C2974 C2975 1.367 . S
C2975 C2974 1.367 . S
C2975 C2977 1.433 . S
C2976 C2972 1.350 . S
C2976 C2973 1.463 . S
C2976 N2980 1.427 . S
C2977 H2967 0.929 . S
C2977 C2975 1.433 . S
C2977 N2980 1.384 . S
C2978 H2969 0.929 . S
C2978 C2970 1.378 . S
C2978 C2973 1.350 . S
C2979 H2966 0.929 . S
C2979 C2971 1.433 . S
C2979 N2981 1.384 . S
N2980 C2976 1.427 . S
N2980 C2977 1.384 . S
N2981 C2973 1.427 . S
N2981 C2979 1.384 . S
H2982 C2988 0.930 . S
H2983 C2992 0.930 . S
H2984 C2997 0.929 . S
H2985 C2995 0.929 . S
H2986 C2990 0.929 . S
H2987 C2996 0.929 . S
C2988 H2982 0.930 . S
C2988 C2989 1.367 . S
C2988 C2996 1.378 . S
C2989 C2988 1.367 . S
C2989 C2997 1.433 . S
C2990 H2986 0.929 . S
C2990 C2992 1.378 . S
C2990 C2994 1.350 . S
C2991 C2994 1.463 . S
C2991 C2996 1.350 . S
C2991 N2999 1.427 . S
C2992 H2983 0.930 . S
C2992 C2990 1.378 . S
C2992 C2993 1.367 . S
C2993 C2992 1.367 . S
C2993 C2995 1.433 . S
C2994 C2990 1.350 . S
C2994 C2991 1.463 . S
C2994 N2998 1.427 . S
C2995 H2985 0.929 . S
C2995 C2993 1.433 . S
C2995 N2998 1.384 . S
C2996 H2987 0.929 . S
C2996 C2988 1.378 . S
C2996 C2991 1.350 . S
C2997 H2984 0.929 . S
C2997 C2989 1.433 . S
C2997 N2999 1.384 . S
N2998 C2994 1.427 . S
N2998 C2995 1.384 . S
N2999 C2991 1.427 . S
N2999 C2997 1.384 . S
H3000 C3006 0.930 . S
H3001 C3010 0.930 . S
H3002 C3015 0.929 . S
H3003 C3013 0.929 . S
H3004 C3008 0.929 . S
H3005 C3014 0.929 . S
C3006 H3000 0.930 . S
C3006 C3007 1.367 . S
C3006 C3014 1.378 . S
C3007 C3006 1.367 . S
C3007 C3015 1.433 . S
C3008 H3004 0.929 . S
C3008 C3010 1.378 . S
C3008 C3012 1.350 . S
C3009 C3012 1.463 . S
C3009 C3014 1.350 . S
C3009 N3017 1.427 . S
C3010 H3001 0.930 . S
C3010 C3008 1.378 . S
C3010 C3011 1.367 . S
C3011 C3010 1.367 . S
C3011 C3013 1.433 . S
C3012 C3008 1.350 . S
C3012 C3009 1.463 . S
C3012 N3016 1.427 . S
C3013 H3003 0.929 . S
C3013 C3011 1.433 . S
C3013 N3016 1.384 . S
C3014 H3005 0.929 . S
C3014 C3006 1.378 . S
C3014 C3009 1.350 . S
C3015 H3002 0.929 . S
C3015 C3007 1.433 . S
C3015 N3017 1.384 . S
N3016 C3012 1.427 . S
N3016 C3013 1.384 . S
N3017 C3009 1.427 . S
N3017 C3015 1.384 . S
H3018 C3024 0.930 . S
H3019 C3028 0.930 . S
H3020 C3033 0.929 . S
H3021 C3031 0.929 . S
H3022 C3026 0.929 . S
H3023 C3032 0.929 . S
C3024 H3018 0.930 . S
C3024 C3025 1.367 . S
C3024 C3032 1.378 . S
C3025 C3024 1.367 . S
C3025 C3033 1.433 . S
C3026 H3022 0.929 . S
C3026 C3028 1.378 . S
C3026 C3030 1.350 . S
C3027 C3030 1.463 . S
C3027 C3032 1.350 . S
C3027 N3035 1.427 . S
C3028 H3019 0.930 . S
C3028 C3026 1.378 . S
C3028 C3029 1.367 . S
C3029 C3028 1.367 . S
C3029 C3031 1.433 . S
C3030 C3026 1.350 . S
C3030 C3027 1.463 . S
C3030 N3034 1.427 . S
C3031 H3021 0.929 . S
C3031 C3029 1.433 . S
C3031 N3034 1.384 . S
C3032 H3023 0.929 . S
C3032 C3024 1.378 . S
C3032 C3027 1.350 . S
C3033 H3020 0.929 . S
C3033 C3025 1.433 . S
C3033 N3035 1.384 . S
N3034 C3030 1.427 . S
N3034 C3031 1.384 . S
N3035 C3027 1.427 . S
N3035 C3033 1.384 . S
H3036 C3042 0.930 . S
H3037 C3046 0.930 . S
H3038 C3051 0.929 . S
H3039 C3049 0.929 . S
H3040 C3044 0.929 . S
H3041 C3050 0.929 . S
C3042 H3036 0.930 . S
C3042 C3043 1.367 . S
C3042 C3050 1.378 . S
C3043 C3042 1.367 . S
C3043 C3051 1.433 . S
C3044 H3040 0.929 . S
C3044 C3046 1.378 . S
C3044 C3048 1.350 . S
C3045 C3048 1.463 . S
C3045 C3050 1.350 . S
C3045 N3053 1.427 . S
C3046 H3037 0.930 . S
C3046 C3044 1.378 . S
C3046 C3047 1.367 . S
C3047 C3046 1.367 . S
C3047 C3049 1.433 . S
C3048 C3044 1.350 . S
C3048 C3045 1.463 . S
C3048 N3052 1.427 . S
C3049 H3039 0.929 . S
C3049 C3047 1.433 . S
C3049 N3052 1.384 . S
C3050 H3041 0.929 . S
C3050 C3042 1.378 . S
C3050 C3045 1.350 . S
C3051 H3038 0.929 . S
C3051 C3043 1.433 . S
C3051 N3053 1.384 . S
N3052 C3048 1.427 . S
N3052 C3049 1.384 . S
N3053 C3045 1.427 . S
N3053 C3051 1.384 . S
H3054 C3060 0.930 . S
H3055 C3064 0.930 . S
H3056 C3069 0.929 . S
H3057 C3067 0.929 . S
H3058 C3062 0.929 . S
H3059 C3068 0.929 . S
C3060 H3054 0.930 . S
C3060 C3061 1.367 . S
C3060 C3068 1.378 . S
C3061 C3060 1.367 . S
C3061 C3069 1.433 . S
C3062 H3058 0.929 . S
C3062 C3064 1.378 . S
C3062 C3066 1.350 . S
C3063 C3066 1.463 . S
C3063 C3068 1.350 . S
C3063 N3071 1.427 . S
C3064 H3055 0.930 . S
C3064 C3062 1.378 . S
C3064 C3065 1.367 . S
C3065 C3064 1.367 . S
C3065 C3067 1.433 . S
C3066 C3062 1.350 . S
C3066 C3063 1.463 . S
C3066 N3070 1.427 . S
C3067 H3057 0.929 . S
C3067 C3065 1.433 . S
C3067 N3070 1.384 . S
C3068 H3059 0.929 . S
C3068 C3060 1.378 . S
C3068 C3063 1.350 . S
C3069 H3056 0.929 . S
C3069 C3061 1.433 . S
C3069 N3071 1.384 . S
N3070 C3066 1.427 . S
N3070 C3067 1.384 . S
N3071 C3063 1.427 . S
N3071 C3069 1.384 . S
H3072 C3078 0.930 . S
H3073 C3082 0.930 . S
H3074 C3087 0.929 . S
H3075 C3085 0.929 . S
H3076 C3080 0.929 . S
H3077 C3086 0.929 . S
C3078 H3072 0.930 . S
C3078 C3079 1.367 . S
C3078 C3086 1.378 . S
C3079 C3078 1.367 . S
C3079 C3087 1.433 . S
C3080 H3076 0.929 . S
C3080 C3082 1.378 . S
C3080 C3084 1.350 . S
C3081 C3084 1.463 . S
C3081 C3086 1.350 . S
C3081 N3089 1.427 . S
C3082 H3073 0.930 . S
C3082 C3080 1.378 . S
C3082 C3083 1.367 . S
C3083 C3082 1.367 . S
C3083 C3085 1.433 . S
C3084 C3080 1.350 . S
C3084 C3081 1.463 . S
C3084 N3088 1.427 . S
C3085 H3075 0.929 . S
C3085 C3083 1.433 . S
C3085 N3088 1.384 . S
C3086 H3077 0.929 . S
C3086 C3078 1.378 . S
C3086 C3081 1.350 . S
C3087 H3074 0.929 . S
C3087 C3079 1.433 . S
C3087 N3089 1.384 . S
N3088 C3084 1.427 . S
N3088 C3085 1.384 . S
N3089 C3081 1.427 . S
N3089 C3087 1.384 . S
H3090 C3096 0.930 . S
H3091 C3100 0.930 . S
H3092 C3105 0.929 . S
H3093 C3103 0.929 . S
H3094 C3098 0.929 . S
H3095 C3104 0.929 . S
C3096 H3090 0.930 . S
C3096 C3097 1.367 . S
C3096 C3104 1.378 . S
C3097 C3096 1.367 . S
C3097 C3105 1.433 . S
C3098 H3094 0.929 . S
C3098 C3100 1.378 . S
C3098 C3102 1.350 . S
C3099 C3102 1.463 . S
C3099 C3104 1.350 . S
C3099 N3107 1.427 . S
C3100 H3091 0.930 . S
C3100 C3098 1.378 . S
C3100 C3101 1.367 . S
C3101 C3100 1.367 . S
C3101 C3103 1.433 . S
C3102 C3098 1.350 . S
C3102 C3099 1.463 . S
C3102 N3106 1.427 . S
C3103 H3093 0.929 . S
C3103 C3101 1.433 . S
C3103 N3106 1.384 . S
C3104 H3095 0.929 . S
C3104 C3096 1.378 . S
C3104 C3099 1.350 . S
C3105 H3092 0.929 . S
C3105 C3097 1.433 . S
C3105 N3107 1.384 . S
N3106 C3102 1.427 . S
N3106 C3103 1.384 . S
N3107 C3099 1.427 . S
N3107 C3105 1.384 . S
H3108 C3114 0.930 . S
H3109 C3118 0.930 . S
H3110 C3123 0.929 . S
H3111 C3121 0.929 . S
H3112 C3116 0.929 . S
H3113 C3122 0.929 . S
C3114 H3108 0.930 . S
C3114 C3115 1.367 . S
C3114 C3122 1.378 . S
C3115 C3114 1.367 . S
C3115 C3123 1.433 . S
C3116 H3112 0.929 . S
C3116 C3118 1.378 . S
C3116 C3120 1.350 . S
C3117 C3120 1.463 . S
C3117 C3122 1.350 . S
C3117 N3125 1.427 . S
C3118 H3109 0.930 . S
C3118 C3116 1.378 . S
C3118 C3119 1.367 . S
C3119 C3118 1.367 . S
C3119 C3121 1.433 . S
C3120 C3116 1.350 . S
C3120 C3117 1.463 . S
C3120 N3124 1.427 . S
C3121 H3111 0.929 . S
C3121 C3119 1.433 . S
C3121 N3124 1.384 . S
C3122 H3113 0.929 . S
C3122 C3114 1.378 . S
C3122 C3117 1.350 . S
C3123 H3110 0.929 . S
C3123 C3115 1.433 . S
C3123 N3125 1.384 . S
N3124 C3120 1.427 . S
N3124 C3121 1.384 . S
N3125 C3117 1.427 . S
N3125 C3123 1.384 . S
H3126 C3132 0.930 . S
H3127 C3136 0.930 . S
H3128 C3141 0.929 . S
H3129 C3139 0.929 . S
H3130 C3134 0.929 . S
H3131 C3140 0.929 . S
C3132 H3126 0.930 . S
C3132 C3133 1.367 . S
C3132 C3140 1.378 . S
C3133 C3132 1.367 . S
C3133 C3141 1.433 . S
C3134 H3130 0.929 . S
C3134 C3136 1.378 . S
C3134 C3138 1.350 . S
C3135 C3138 1.463 . S
C3135 C3140 1.350 . S
C3135 N3143 1.427 . S
C3136 H3127 0.930 . S
C3136 C3134 1.378 . S
C3136 C3137 1.367 . S
C3137 C3136 1.367 . S
C3137 C3139 1.433 . S
C3138 C3134 1.350 . S
C3138 C3135 1.463 . S
C3138 N3142 1.427 . S
C3139 H3129 0.929 . S
C3139 C3137 1.433 . S
C3139 N3142 1.384 . S
C3140 H3131 0.929 . S
C3140 C3132 1.378 . S
C3140 C3135 1.350 . S
C3141 H3128 0.929 . S
C3141 C3133 1.433 . S
C3141 N3143 1.384 . S
N3142 C3138 1.427 . S
N3142 C3139 1.384 . S
N3143 C3135 1.427 . S
N3143 C3141 1.384 . S
H3144 C3150 0.930 . S
H3145 C3154 0.930 . S
H3146 C3159 0.929 . S
H3147 C3157 0.929 . S
H3148 C3152 0.929 . S
H3149 C3158 0.929 . S
C3150 H3144 0.930 . S
C3150 C3151 1.367 . S
C3150 C3158 1.378 . S
C3151 C3150 1.367 . S
C3151 C3159 1.433 . S
C3152 H3148 0.929 . S
C3152 C3154 1.378 . S
C3152 C3156 1.350 . S
C3153 C3156 1.463 . S
C3153 C3158 1.350 . S
C3153 N3161 1.427 . S
C3154 H3145 0.930 . S
C3154 C3152 1.378 . S
C3154 C3155 1.367 . S
C3155 C3154 1.367 . S
C3155 C3157 1.433 . S
C3156 C3152 1.350 . S
C3156 C3153 1.463 . S
C3156 N3160 1.427 . S
C3157 H3147 0.929 . S
C3157 C3155 1.433 . S
C3157 N3160 1.384 . S
C3158 H3149 0.929 . S
C3158 C3150 1.378 . S
C3158 C3153 1.350 . S
C3159 H3146 0.929 . S
C3159 C3151 1.433 . S
C3159 N3161 1.384 . S
N3160 C3156 1.427 . S
N3160 C3157 1.384 . S
N3161 C3153 1.427 . S
N3161 C3159 1.384 . S
H3162 C3168 0.930 . S
H3163 C3172 0.930 . S
H3164 C3177 0.929 . S
H3165 C3175 0.929 . S
H3166 C3170 0.929 . S
H3167 C3176 0.929 . S
C3168 H3162 0.930 . S
C3168 C3169 1.367 . S
C3168 C3176 1.378 . S
C3169 C3168 1.367 . S
C3169 C3177 1.433 . S
C3170 H3166 0.929 . S
C3170 C3172 1.378 . S
C3170 C3174 1.350 . S
C3171 C3174 1.463 . S
C3171 C3176 1.350 . S
C3171 N3179 1.427 . S
C3172 H3163 0.930 . S
C3172 C3170 1.378 . S
C3172 C3173 1.367 . S
C3173 C3172 1.367 . S
C3173 C3175 1.433 . S
C3174 C3170 1.350 . S
C3174 C3171 1.463 . S
C3174 N3178 1.427 . S
C3175 H3165 0.929 . S
C3175 C3173 1.433 . S
C3175 N3178 1.384 . S
C3176 H3167 0.929 . S
C3176 C3168 1.378 . S
C3176 C3171 1.350 . S
C3177 H3164 0.929 . S
C3177 C3169 1.433 . S
C3177 N3179 1.384 . S
N3178 C3174 1.427 . S
N3178 C3175 1.384 . S
N3179 C3171 1.427 . S
N3179 C3177 1.384 . S
H3180 C3186 0.930 . S
H3181 C3190 0.930 . S
H3182 C3195 0.929 . S
H3183 C3193 0.929 . S
H3184 C3188 0.929 . S
H3185 C3194 0.929 . S
C3186 H3180 0.930 . S
C3186 C3187 1.367 . S
C3186 C3194 1.378 . S
C3187 C3186 1.367 . S
C3187 C3195 1.433 . S
C3188 H3184 0.929 . S
C3188 C3190 1.378 . S
C3188 C3192 1.350 . S
C3189 C3192 1.463 . S
C3189 C3194 1.350 . S
C3189 N3197 1.427 . S
C3190 H3181 0.930 . S
C3190 C3188 1.378 . S
C3190 C3191 1.367 . S
C3191 C3190 1.367 . S
C3191 C3193 1.433 . S
C3192 C3188 1.350 . S
C3192 C3189 1.463 . S
C3192 N3196 1.427 . S
C3193 H3183 0.929 . S
C3193 C3191 1.433 . S
C3193 N3196 1.384 . S
C3194 H3185 0.929 . S
C3194 C3186 1.378 . S
C3194 C3189 1.350 . S
C3195 H3182 0.929 . S
C3195 C3187 1.433 . S
C3195 N3197 1.384 . S
N3196 C3192 1.427 . S
N3196 C3193 1.384 . S
N3197 C3189 1.427 . S
N3197 C3195 1.384 . S
H3198 C3204 0.930 . S
H3199 C3208 0.930 . S
H3200 C3213 0.929 . S
H3201 C3211 0.929 . S
H3202 C3206 0.929 . S
H3203 C3212 0.929 . S
C3204 H3198 0.930 . S
C3204 C3205 1.367 . S
C3204 C3212 1.378 . S
C3205 C3204 1.367 . S
C3205 C3213 1.433 . S
C3206 H3202 0.929 . S
C3206 C3208 1.378 . S
C3206 C3210 1.350 . S
C3207 C3210 1.463 . S
C3207 C3212 1.350 . S
C3207 N3215 1.427 . S
C3208 H3199 0.930 . S
C3208 C3206 1.378 . S
C3208 C3209 1.367 . S
C3209 C3208 1.367 . S
C3209 C3211 1.433 . S
C3210 C3206 1.350 . S
C3210 C3207 1.463 . S
C3210 N3214 1.427 . S
C3211 H3201 0.929 . S
C3211 C3209 1.433 . S
C3211 N3214 1.384 . S
C3212 H3203 0.929 . S
C3212 C3204 1.378 . S
C3212 C3207 1.350 . S
C3213 H3200 0.929 . S
C3213 C3205 1.433 . S
C3213 N3215 1.384 . S
N3214 C3210 1.427 . S
N3214 C3211 1.384 . S
N3215 C3207 1.427 . S
N3215 C3213 1.384 . S
H3216 C3222 0.930 . S
H3217 C3226 0.930 . S
H3218 C3231 0.929 . S
H3219 C3229 0.929 . S
H3220 C3224 0.929 . S
H3221 C3230 0.929 . S
C3222 H3216 0.930 . S
C3222 C3223 1.367 . S
C3222 C3230 1.378 . S
C3223 C3222 1.367 . S
C3223 C3231 1.433 . S
C3224 H3220 0.929 . S
C3224 C3226 1.378 . S
C3224 C3228 1.350 . S
C3225 C3228 1.463 . S
C3225 C3230 1.350 . S
C3225 N3233 1.427 . S
C3226 H3217 0.930 . S
C3226 C3224 1.378 . S
C3226 C3227 1.367 . S
C3227 C3226 1.367 . S
C3227 C3229 1.433 . S
C3228 C3224 1.350 . S
C3228 C3225 1.463 . S
C3228 N3232 1.427 . S
C3229 H3219 0.929 . S
C3229 C3227 1.433 . S
C3229 N3232 1.384 . S
C3230 H3221 0.929 . S
C3230 C3222 1.378 . S
C3230 C3225 1.350 . S
C3231 H3218 0.929 . S
C3231 C3223 1.433 . S
C3231 N3233 1.384 . S
N3232 C3228 1.427 . S
N3232 C3229 1.384 . S
N3233 C3225 1.427 . S
N3233 C3231 1.384 . S
H3234 C3240 0.930 . S
H3235 C3244 0.930 . S
H3236 C3249 0.929 . S
H3237 C3247 0.929 . S
H3238 C3242 0.929 . S
H3239 C3248 0.929 . S
C3240 H3234 0.930 . S
C3240 C3241 1.367 . S
C3240 C3248 1.378 . S
C3241 C3240 1.367 . S
C3241 C3249 1.433 . S
C3242 H3238 0.929 . S
C3242 C3244 1.378 . S
C3242 C3246 1.350 . S
C3243 C3246 1.463 . S
C3243 C3248 1.350 . S
C3243 N3251 1.427 . S
C3244 H3235 0.930 . S
C3244 C3242 1.378 . S
C3244 C3245 1.367 . S
C3245 C3244 1.367 . S
C3245 C3247 1.433 . S
C3246 C3242 1.350 . S
C3246 C3243 1.463 . S
C3246 N3250 1.427 . S
C3247 H3237 0.929 . S
C3247 C3245 1.433 . S
C3247 N3250 1.384 . S
C3248 H3239 0.929 . S
C3248 C3240 1.378 . S
C3248 C3243 1.350 . S
C3249 H3236 0.929 . S
C3249 C3241 1.433 . S
C3249 N3251 1.384 . S
N3250 C3246 1.427 . S
N3250 C3247 1.384 . S
N3251 C3243 1.427 . S
N3251 C3249 1.384 . S
H3252 C3258 0.930 . S
H3253 C3262 0.930 . S
H3254 C3267 0.929 . S
H3255 C3265 0.929 . S
H3256 C3260 0.929 . S
H3257 C3266 0.929 . S
C3258 H3252 0.930 . S
C3258 C3259 1.367 . S
C3258 C3266 1.378 . S
C3259 C3258 1.367 . S
C3259 C3267 1.433 . S
C3260 H3256 0.929 . S
C3260 C3262 1.378 . S
C3260 C3264 1.350 . S
C3261 C3264 1.463 . S
C3261 C3266 1.350 . S
C3261 N3269 1.427 . S
C3262 H3253 0.930 . S
C3262 C3260 1.378 . S
C3262 C3263 1.367 . S
C3263 C3262 1.367 . S
C3263 C3265 1.433 . S
C3264 C3260 1.350 . S
C3264 C3261 1.463 . S
C3264 N3268 1.427 . S
C3265 H3255 0.929 . S
C3265 C3263 1.433 . S
C3265 N3268 1.384 . S
C3266 H3257 0.929 . S
C3266 C3258 1.378 . S
C3266 C3261 1.350 . S
C3267 H3254 0.929 . S
C3267 C3259 1.433 . S
C3267 N3269 1.384 . S
N3268 C3264 1.427 . S
N3268 C3265 1.384 . S
N3269 C3261 1.427 . S
N3269 C3267 1.384 . S
H3270 C3276 0.930 . S
H3271 C3280 0.930 . S
H3272 C3285 0.929 . S
H3273 C3283 0.929 . S
H3274 C3278 0.929 . S
H3275 C3284 0.929 . S
C3276 H3270 0.930 . S
C3276 C3277 1.367 . S
C3276 C3284 1.378 . S
C3277 C3276 1.367 . S
C3277 C3285 1.433 . S
C3278 H3274 0.929 . S
C3278 C3280 1.378 . S
C3278 C3282 1.350 . S
C3279 C3282 1.463 . S
C3279 C3284 1.350 . S
C3279 N3287 1.427 . S
C3280 H3271 0.930 . S
C3280 C3278 1.378 . S
C3280 C3281 1.367 . S
C3281 C3280 1.367 . S
C3281 C3283 1.433 . S
C3282 C3278 1.350 . S
C3282 C3279 1.463 . S
C3282 N3286 1.427 . S
C3283 H3273 0.929 . S
C3283 C3281 1.433 . S
C3283 N3286 1.384 . S
C3284 H3275 0.929 . S
C3284 C3276 1.378 . S
C3284 C3279 1.350 . S
C3285 H3272 0.929 . S
C3285 C3277 1.433 . S
C3285 N3287 1.384 . S
N3286 C3282 1.427 . S
N3286 C3283 1.384 . S
N3287 C3279 1.427 . S
N3287 C3285 1.384 . S
H3288 C3294 0.930 . S
H3289 C3298 0.930 . S
H3290 C3303 0.929 . S
H3291 C3301 0.929 . S
H3292 C3296 0.929 . S
H3293 C3302 0.929 . S
C3294 H3288 0.930 . S
C3294 C3295 1.367 . S
C3294 C3302 1.378 . S
C3295 C3294 1.367 . S
C3295 C3303 1.433 . S
C3296 H3292 0.929 . S
C3296 C3298 1.378 . S
C3296 C3300 1.350 . S
C3297 C3300 1.463 . S
C3297 C3302 1.350 . S
C3297 N3305 1.427 . S
C3298 H3289 0.930 . S
C3298 C3296 1.378 . S
C3298 C3299 1.367 . S
C3299 C3298 1.367 . S
C3299 C3301 1.433 . S
C3300 C3296 1.350 . S
C3300 C3297 1.463 . S
C3300 N3304 1.427 . S
C3301 H3291 0.929 . S
C3301 C3299 1.433 . S
C3301 N3304 1.384 . S
C3302 H3293 0.929 . S
C3302 C3294 1.378 . S
C3302 C3297 1.350 . S
C3303 H3290 0.929 . S
C3303 C3295 1.433 . S
C3303 N3305 1.384 . S
N3304 C3300 1.427 . S
N3304 C3301 1.384 . S
N3305 C3297 1.427 . S
N3305 C3303 1.384 . S
H3306 C3312 0.930 . S
H3307 C3316 0.930 . S
H3308 C3321 0.929 . S
H3309 C3319 0.929 . S
H3310 C3314 0.929 . S
H3311 C3320 0.929 . S
C3312 H3306 0.930 . S
C3312 C3313 1.367 . S
C3312 C3320 1.378 . S
C3313 C3312 1.367 . S
C3313 C3321 1.433 . S
C3314 H3310 0.929 . S
C3314 C3316 1.378 . S
C3314 C3318 1.350 . S
C3315 C3318 1.463 . S
C3315 C3320 1.350 . S
C3315 N3323 1.427 . S
C3316 H3307 0.930 . S
C3316 C3314 1.378 . S
C3316 C3317 1.367 . S
C3317 C3316 1.367 . S
C3317 C3319 1.433 . S
C3318 C3314 1.350 . S
C3318 C3315 1.463 . S
C3318 N3322 1.427 . S
C3319 H3309 0.929 . S
C3319 C3317 1.433 . S
C3319 N3322 1.384 . S
C3320 H3311 0.929 . S
C3320 C3312 1.378 . S
C3320 C3315 1.350 . S
C3321 H3308 0.929 . S
C3321 C3313 1.433 . S
C3321 N3323 1.384 . S
N3322 C3318 1.427 . S
N3322 C3319 1.384 . S
N3323 C3315 1.427 . S
N3323 C3321 1.384 . S
H3324 C3330 0.930 . S
H3325 C3334 0.930 . S
H3326 C3339 0.929 . S
H3327 C3337 0.929 . S
H3328 C3332 0.929 . S
H3329 C3338 0.929 . S
C3330 H3324 0.930 . S
C3330 C3331 1.367 . S
C3330 C3338 1.378 . S
C3331 C3330 1.367 . S
C3331 C3339 1.433 . S
C3332 H3328 0.929 . S
C3332 C3334 1.378 . S
C3332 C3336 1.350 . S
C3333 C3336 1.463 . S
C3333 C3338 1.350 . S
C3333 N3341 1.427 . S
C3334 H3325 0.930 . S
C3334 C3332 1.378 . S
C3334 C3335 1.367 . S
C3335 C3334 1.367 . S
C3335 C3337 1.433 . S
C3336 C3332 1.350 . S
C3336 C3333 1.463 . S
C3336 N3340 1.427 . S
C3337 H3327 0.929 . S
C3337 C3335 1.433 . S
C3337 N3340 1.384 . S
C3338 H3329 0.929 . S
C3338 C3330 1.378 . S
C3338 C3333 1.350 . S
C3339 H3326 0.929 . S
C3339 C3331 1.433 . S
C3339 N3341 1.384 . S
N3340 C3336 1.427 . S
N3340 C3337 1.384 . S
N3341 C3333 1.427 . S
N3341 C3339 1.384 . S
H3342 C3348 0.930 . S
H3343 C3352 0.930 . S
H3344 C3357 0.929 . S
H3345 C3355 0.929 . S
H3346 C3350 0.929 . S
H3347 C3356 0.929 . S
C3348 H3342 0.930 . S
C3348 C3349 1.367 . S
C3348 C3356 1.378 . S
C3349 C3348 1.367 . S
C3349 C3357 1.433 . S
C3350 H3346 0.929 . S
C3350 C3352 1.378 . S
C3350 C3354 1.350 . S
C3351 C3354 1.463 . S
C3351 C3356 1.350 . S
C3351 N3359 1.427 . S
C3352 H3343 0.930 . S
C3352 C3350 1.378 . S
C3352 C3353 1.367 . S
C3353 C3352 1.367 . S
C3353 C3355 1.433 . S
C3354 C3350 1.350 . S
C3354 C3351 1.463 . S
C3354 N3358 1.427 . S
C3355 H3345 0.929 . S
C3355 C3353 1.433 . S
C3355 N3358 1.384 . S
C3356 H3347 0.929 . S
C3356 C3348 1.378 . S
C3356 C3351 1.350 . S
C3357 H3344 0.929 . S
C3357 C3349 1.433 . S
C3357 N3359 1.384 . S
N3358 C3354 1.427 . S
N3358 C3355 1.384 . S
N3359 C3351 1.427 . S
N3359 C3357 1.384 . S
H3360 C3366 0.930 . S
H3361 C3370 0.930 . S
H3362 C3375 0.929 . S
H3363 C3373 0.929 . S
H3364 C3368 0.929 . S
H3365 C3374 0.929 . S
C3366 H3360 0.930 . S
C3366 C3367 1.367 . S
C3366 C3374 1.378 . S
C3367 C3366 1.367 . S
C3367 C3375 1.433 . S
C3368 H3364 0.929 . S
C3368 C3370 1.378 . S
C3368 C3372 1.350 . S
C3369 C3372 1.463 . S
C3369 C3374 1.350 . S
C3369 N3377 1.427 . S
C3370 H3361 0.930 . S
C3370 C3368 1.378 . S
C3370 C3371 1.367 . S
C3371 C3370 1.367 . S
C3371 C3373 1.433 . S
C3372 C3368 1.350 . S
C3372 C3369 1.463 . S
C3372 N3376 1.427 . S
C3373 H3363 0.929 . S
C3373 C3371 1.433 . S
C3373 N3376 1.384 . S
C3374 H3365 0.929 . S
C3374 C3366 1.378 . S
C3374 C3369 1.350 . S
C3375 H3362 0.929 . S
C3375 C3367 1.433 . S
C3375 N3377 1.384 . S
N3376 C3372 1.427 . S
N3376 C3373 1.384 . S
N3377 C3369 1.427 . S
N3377 C3375 1.384 . S
H3378 C3384 0.930 . S
H3379 C3388 0.930 . S
H3380 C3393 0.929 . S
H3381 C3391 0.929 . S
H3382 C3386 0.929 . S
H3383 C3392 0.929 . S
C3384 H3378 0.930 . S
C3384 C3385 1.367 . S
C3384 C3392 1.378 . S
C3385 C3384 1.367 . S
C3385 C3393 1.433 . S
C3386 H3382 0.929 . S
C3386 C3388 1.378 . S
C3386 C3390 1.350 . S
C3387 C3390 1.463 . S
C3387 C3392 1.350 . S
C3387 N3395 1.427 . S
C3388 H3379 0.930 . S
C3388 C3386 1.378 . S
C3388 C3389 1.367 . S
C3389 C3388 1.367 . S
C3389 C3391 1.433 . S
C3390 C3386 1.350 . S
C3390 C3387 1.463 . S
C3390 N3394 1.427 . S
C3391 H3381 0.929 . S
C3391 C3389 1.433 . S
C3391 N3394 1.384 . S
C3392 H3383 0.929 . S
C3392 C3384 1.378 . S
C3392 C3387 1.350 . S
C3393 H3380 0.929 . S
C3393 C3385 1.433 . S
C3393 N3395 1.384 . S
N3394 C3390 1.427 . S
N3394 C3391 1.384 . S
N3395 C3387 1.427 . S
N3395 C3393 1.384 . S
H3396 C3402 0.930 . S
H3397 C3406 0.930 . S
H3398 C3411 0.929 . S
H3399 C3409 0.929 . S
H3400 C3404 0.929 . S
H3401 C3410 0.929 . S
C3402 H3396 0.930 . S
C3402 C3403 1.367 . S
C3402 C3410 1.378 . S
C3403 C3402 1.367 . S
C3403 C3411 1.433 . S
C3404 H3400 0.929 . S
C3404 C3406 1.378 . S
C3404 C3408 1.350 . S
C3405 C3408 1.463 . S
C3405 C3410 1.350 . S
C3405 N3413 1.427 . S
C3406 H3397 0.930 . S
C3406 C3404 1.378 . S
C3406 C3407 1.367 . S
C3407 C3406 1.367 . S
C3407 C3409 1.433 . S
C3408 C3404 1.350 . S
C3408 C3405 1.463 . S
C3408 N3412 1.427 . S
C3409 H3399 0.929 . S
C3409 C3407 1.433 . S
C3409 N3412 1.384 . S
C3410 H3401 0.929 . S
C3410 C3402 1.378 . S
C3410 C3405 1.350 . S
C3411 H3398 0.929 . S
C3411 C3403 1.433 . S
C3411 N3413 1.384 . S
N3412 C3408 1.427 . S
N3412 C3409 1.384 . S
N3413 C3405 1.427 . S
N3413 C3411 1.384 . S
H3414 C3420 0.930 . S
H3415 C3424 0.930 . S
H3416 C3429 0.929 . S
H3417 C3427 0.929 . S
H3418 C3422 0.929 . S
H3419 C3428 0.929 . S
C3420 H3414 0.930 . S
C3420 C3421 1.367 . S
C3420 C3428 1.378 . S
C3421 C3420 1.367 . S
C3421 C3429 1.433 . S
C3422 H3418 0.929 . S
C3422 C3424 1.378 . S
C3422 C3426 1.350 . S
C3423 C3426 1.463 . S
C3423 C3428 1.350 . S
C3423 N3431 1.427 . S
C3424 H3415 0.930 . S
C3424 C3422 1.378 . S
C3424 C3425 1.367 . S
C3425 C3424 1.367 . S
C3425 C3427 1.433 . S
C3426 C3422 1.350 . S
C3426 C3423 1.463 . S
C3426 N3430 1.427 . S
C3427 H3417 0.929 . S
C3427 C3425 1.433 . S
C3427 N3430 1.384 . S
C3428 H3419 0.929 . S
C3428 C3420 1.378 . S
C3428 C3423 1.350 . S
C3429 H3416 0.929 . S
C3429 C3421 1.433 . S
C3429 N3431 1.384 . S
N3430 C3426 1.427 . S
N3430 C3427 1.384 . S
N3431 C3423 1.427 . S
N3431 C3429 1.384 . S
H3432 C3438 0.930 . S
H3433 C3442 0.930 . S
H3434 C3447 0.929 . S
H3435 C3445 0.929 . S
H3436 C3440 0.929 . S
H3437 C3446 0.929 . S
C3438 H3432 0.930 . S
C3438 C3439 1.367 . S
C3438 C3446 1.378 . S
C3439 C3438 1.367 . S
C3439 C3447 1.433 . S
C3440 H3436 0.929 . S
C3440 C3442 1.378 . S
C3440 C3444 1.350 . S
C3441 C3444 1.463 . S
C3441 C3446 1.350 . S
C3441 N3449 1.427 . S
C3442 H3433 0.930 . S
C3442 C3440 1.378 . S
C3442 C3443 1.367 . S
C3443 C3442 1.367 . S
C3443 C3445 1.433 . S
C3444 C3440 1.350 . S
C3444 C3441 1.463 . S
C3444 N3448 1.427 . S
C3445 H3435 0.929 . S
C3445 C3443 1.433 . S
C3445 N3448 1.384 . S
C3446 H3437 0.929 . S
C3446 C3438 1.378 . S
C3446 C3441 1.350 . S
C3447 H3434 0.929 . S
C3447 C3439 1.433 . S
C3447 N3449 1.384 . S
N3448 C3444 1.427 . S
N3448 C3445 1.384 . S
N3449 C3441 1.427 . S
N3449 C3447 1.384 . S
H3450 C3456 0.930 . S
H3451 C3460 0.930 . S
H3452 C3465 0.929 . S
H3453 C3463 0.929 . S
H3454 C3458 0.929 . S
H3455 C3464 0.929 . S
C3456 H3450 0.930 . S
C3456 C3457 1.367 . S
C3456 C3464 1.378 . S
C3457 C3456 1.367 . S
C3457 C3465 1.433 . S
C3458 H3454 0.929 . S
C3458 C3460 1.378 . S
C3458 C3462 1.350 . S
C3459 C3462 1.463 . S
C3459 C3464 1.350 . S
C3459 N3467 1.427 . S
C3460 H3451 0.930 . S
C3460 C3458 1.378 . S
C3460 C3461 1.367 . S
C3461 C3460 1.367 . S
C3461 C3463 1.433 . S
C3462 C3458 1.350 . S
C3462 C3459 1.463 . S
C3462 N3466 1.427 . S
C3463 H3453 0.929 . S
C3463 C3461 1.433 . S
C3463 N3466 1.384 . S
C3464 H3455 0.929 . S
C3464 C3456 1.378 . S
C3464 C3459 1.350 . S
C3465 H3452 0.929 . S
C3465 C3457 1.433 . S
C3465 N3467 1.384 . S
N3466 C3462 1.427 . S
N3466 C3463 1.384 . S
N3467 C3459 1.427 . S
N3467 C3465 1.384 . S
H3468 C3474 0.930 . S
H3469 C3478 0.930 . S
H3470 C3483 0.929 . S
H3471 C3481 0.929 . S
H3472 C3476 0.929 . S
H3473 C3482 0.929 . S
C3474 H3468 0.930 . S
C3474 C3475 1.367 . S
C3474 C3482 1.378 . S
C3475 C3474 1.367 . S
C3475 C3483 1.433 . S
C3476 H3472 0.929 . S
C3476 C3478 1.378 . S
C3476 C3480 1.350 . S
C3477 C3480 1.463 . S
C3477 C3482 1.350 . S
C3477 N3485 1.427 . S
C3478 H3469 0.930 . S
C3478 C3476 1.378 . S
C3478 C3479 1.367 . S
C3479 C3478 1.367 . S
C3479 C3481 1.433 . S
C3480 C3476 1.350 . S
C3480 C3477 1.463 . S
C3480 N3484 1.427 . S
C3481 H3471 0.929 . S
C3481 C3479 1.433 . S
C3481 N3484 1.384 . S
C3482 H3473 0.929 . S
C3482 C3474 1.378 . S
C3482 C3477 1.350 . S
C3483 H3470 0.929 . S
C3483 C3475 1.433 . S
C3483 N3485 1.384 . S
N3484 C3480 1.427 . S
N3484 C3481 1.384 . S
N3485 C3477 1.427 . S
N3485 C3483 1.384 . S
H3486 C3492 0.930 . S
H3487 C3496 0.930 . S
H3488 C3501 0.929 . S
H3489 C3499 0.929 . S
H3490 C3494 0.929 . S
H3491 C3500 0.929 . S
C3492 H3486 0.930 . S
C3492 C3493 1.367 . S
C3492 C3500 1.378 . S
C3493 C3492 1.367 . S
C3493 C3501 1.433 . S
C3494 H3490 0.929 . S
C3494 C3496 1.378 . S
C3494 C3498 1.350 . S
C3495 C3498 1.463 . S
C3495 C3500 1.350 . S
C3495 N3503 1.427 . S
C3496 H3487 0.930 . S
C3496 C3494 1.378 . S
C3496 C3497 1.367 . S
C3497 C3496 1.367 . S
C3497 C3499 1.433 . S
C3498 C3494 1.350 . S
C3498 C3495 1.463 . S
C3498 N3502 1.427 . S
C3499 H3489 0.929 . S
C3499 C3497 1.433 . S
C3499 N3502 1.384 . S
C3500 H3491 0.929 . S
C3500 C3492 1.378 . S
C3500 C3495 1.350 . S
C3501 H3488 0.929 . S
C3501 C3493 1.433 . S
C3501 N3503 1.384 . S
N3502 C3498 1.427 . S
N3502 C3499 1.384 . S
N3503 C3495 1.427 . S
N3503 C3501 1.384 . S
H3504 C3510 0.930 . S
H3505 C3514 0.930 . S
H3506 C3519 0.929 . S
H3507 C3517 0.929 . S
H3508 C3512 0.929 . S
H3509 C3518 0.929 . S
C3510 H3504 0.930 . S
C3510 C3511 1.367 . S
C3510 C3518 1.378 . S
C3511 C3510 1.367 . S
C3511 C3519 1.433 . S
C3512 H3508 0.929 . S
C3512 C3514 1.378 . S
C3512 C3516 1.350 . S
C3513 C3516 1.463 . S
C3513 C3518 1.350 . S
C3513 N3521 1.427 . S
C3514 H3505 0.930 . S
C3514 C3512 1.378 . S
C3514 C3515 1.367 . S
C3515 C3514 1.367 . S
C3515 C3517 1.433 . S
C3516 C3512 1.350 . S
C3516 C3513 1.463 . S
C3516 N3520 1.427 . S
C3517 H3507 0.929 . S
C3517 C3515 1.433 . S
C3517 N3520 1.384 . S
C3518 H3509 0.929 . S
C3518 C3510 1.378 . S
C3518 C3513 1.350 . S
C3519 H3506 0.929 . S
C3519 C3511 1.433 . S
C3519 N3521 1.384 . S
N3520 C3516 1.427 . S
N3520 C3517 1.384 . S
N3521 C3513 1.427 . S
N3521 C3519 1.384 . S
H3522 C3528 0.930 . S
H3523 C3532 0.930 . S
H3524 C3537 0.929 . S
H3525 C3535 0.929 . S
H3526 C3530 0.929 . S
H3527 C3536 0.929 . S
C3528 H3522 0.930 . S
C3528 C3529 1.367 . S
C3528 C3536 1.378 . S
C3529 C3528 1.367 . S
C3529 C3537 1.433 . S
C3530 H3526 0.929 . S
C3530 C3532 1.378 . S
C3530 C3534 1.350 . S
C3531 C3534 1.463 . S
C3531 C3536 1.350 . S
C3531 N3539 1.427 . S
C3532 H3523 0.930 . S
C3532 C3530 1.378 . S
C3532 C3533 1.367 . S
C3533 C3532 1.367 . S
C3533 C3535 1.433 . S
C3534 C3530 1.350 . S
C3534 C3531 1.463 . S
C3534 N3538 1.427 . S
C3535 H3525 0.929 . S
C3535 C3533 1.433 . S
C3535 N3538 1.384 . S
C3536 H3527 0.929 . S
C3536 C3528 1.378 . S
C3536 C3531 1.350 . S
C3537 H3524 0.929 . S
C3537 C3529 1.433 . S
C3537 N3539 1.384 . S
N3538 C3534 1.427 . S
N3538 C3535 1.384 . S
N3539 C3531 1.427 . S
N3539 C3537 1.384 . S
H3540 C3546 0.930 . S
H3541 C3550 0.930 . S
H3542 C3555 0.929 . S
H3543 C3553 0.929 . S
H3544 C3548 0.929 . S
H3545 C3554 0.929 . S
C3546 H3540 0.930 . S
C3546 C3547 1.367 . S
C3546 C3554 1.378 . S
C3547 C3546 1.367 . S
C3547 C3555 1.433 . S
C3548 H3544 0.929 . S
C3548 C3550 1.378 . S
C3548 C3552 1.350 . S
C3549 C3552 1.463 . S
C3549 C3554 1.350 . S
C3549 N3557 1.427 . S
C3550 H3541 0.930 . S
C3550 C3548 1.378 . S
C3550 C3551 1.367 . S
C3551 C3550 1.367 . S
C3551 C3553 1.433 . S
C3552 C3548 1.350 . S
C3552 C3549 1.463 . S
C3552 N3556 1.427 . S
C3553 H3543 0.929 . S
C3553 C3551 1.433 . S
C3553 N3556 1.384 . S
C3554 H3545 0.929 . S
C3554 C3546 1.378 . S
C3554 C3549 1.350 . S
C3555 H3542 0.929 . S
C3555 C3547 1.433 . S
C3555 N3557 1.384 . S
N3556 C3552 1.427 . S
N3556 C3553 1.384 . S
N3557 C3549 1.427 . S
N3557 C3555 1.384 . S
H3558 C3564 0.930 . S
H3559 C3568 0.930 . S
H3560 C3573 0.929 . S
H3561 C3571 0.929 . S
H3562 C3566 0.929 . S
H3563 C3572 0.929 . S
C3564 H3558 0.930 . S
C3564 C3565 1.367 . S
C3564 C3572 1.378 . S
C3565 C3564 1.367 . S
C3565 C3573 1.433 . S
C3566 H3562 0.929 . S
C3566 C3568 1.378 . S
C3566 C3570 1.350 . S
C3567 C3570 1.463 . S
C3567 C3572 1.350 . S
C3567 N3575 1.427 . S
C3568 H3559 0.930 . S
C3568 C3566 1.378 . S
C3568 C3569 1.367 . S
C3569 C3568 1.367 . S
C3569 C3571 1.433 . S
C3570 C3566 1.350 . S
C3570 C3567 1.463 . S
C3570 N3574 1.427 . S
C3571 H3561 0.929 . S
C3571 C3569 1.433 . S
C3571 N3574 1.384 . S
C3572 H3563 0.929 . S
C3572 C3564 1.378 . S
C3572 C3567 1.350 . S
C3573 H3560 0.929 . S
C3573 C3565 1.433 . S
C3573 N3575 1.384 . S
N3574 C3570 1.427 . S
N3574 C3571 1.384 . S
N3575 C3567 1.427 . S
N3575 C3573 1.384 . S
H3576 C3582 0.930 . S
H3577 C3586 0.930 . S
H3578 C3591 0.929 . S
H3579 C3589 0.929 . S
H3580 C3584 0.929 . S
H3581 C3590 0.929 . S
C3582 H3576 0.930 . S
C3582 C3583 1.367 . S
C3582 C3590 1.378 . S
C3583 C3582 1.367 . S
C3583 C3591 1.433 . S
C3584 H3580 0.929 . S
C3584 C3586 1.378 . S
C3584 C3588 1.350 . S
C3585 C3588 1.463 . S
C3585 C3590 1.350 . S
C3585 N3593 1.427 . S
C3586 H3577 0.930 . S
C3586 C3584 1.378 . S
C3586 C3587 1.367 . S
C3587 C3586 1.367 . S
C3587 C3589 1.433 . S
C3588 C3584 1.350 . S
C3588 C3585 1.463 . S
C3588 N3592 1.427 . S
C3589 H3579 0.929 . S
C3589 C3587 1.433 . S
C3589 N3592 1.384 . S
C3590 H3581 0.929 . S
C3590 C3582 1.378 . S
C3590 C3585 1.350 . S
C3591 H3578 0.929 . S
C3591 C3583 1.433 . S
C3591 N3593 1.384 . S
N3592 C3588 1.427 . S
N3592 C3589 1.384 . S
N3593 C3585 1.427 . S
N3593 C3591 1.384 . S
H3594 C3600 0.930 . S
H3595 C3604 0.930 . S
H3596 C3609 0.929 . S
H3597 C3607 0.929 . S
H3598 C3602 0.929 . S
H3599 C3608 0.929 . S
C3600 H3594 0.930 . S
C3600 C3601 1.367 . S
C3600 C3608 1.378 . S
C3601 C3600 1.367 . S
C3601 C3609 1.433 . S
C3602 H3598 0.929 . S
C3602 C3604 1.378 . S
C3602 C3606 1.350 . S
C3603 C3606 1.463 . S
C3603 C3608 1.350 . S
C3603 N3611 1.427 . S
C3604 H3595 0.930 . S
C3604 C3602 1.378 . S
C3604 C3605 1.367 . S
C3605 C3604 1.367 . S
C3605 C3607 1.433 . S
C3606 C3602 1.350 . S
C3606 C3603 1.463 . S
C3606 N3610 1.427 . S
C3607 H3597 0.929 . S
C3607 C3605 1.433 . S
C3607 N3610 1.384 . S
C3608 H3599 0.929 . S
C3608 C3600 1.378 . S
C3608 C3603 1.350 . S
C3609 H3596 0.929 . S
C3609 C3601 1.433 . S
C3609 N3611 1.384 . S
N3610 C3606 1.427 . S
N3610 C3607 1.384 . S
N3611 C3603 1.427 . S
N3611 C3609 1.384 . S
H3612 C3618 0.930 . S
H3613 C3622 0.930 . S
H3614 C3627 0.929 . S
H3615 C3625 0.929 . S
H3616 C3620 0.929 . S
H3617 C3626 0.929 . S
C3618 H3612 0.930 . S
C3618 C3619 1.367 . S
C3618 C3626 1.378 . S
C3619 C3618 1.367 . S
C3619 C3627 1.433 . S
C3620 H3616 0.929 . S
C3620 C3622 1.378 . S
C3620 C3624 1.350 . S
C3621 C3624 1.463 . S
C3621 C3626 1.350 . S
C3621 N3629 1.427 . S
C3622 H3613 0.930 . S
C3622 C3620 1.378 . S
C3622 C3623 1.367 . S
C3623 C3622 1.367 . S
C3623 C3625 1.433 . S
C3624 C3620 1.350 . S
C3624 C3621 1.463 . S
C3624 N3628 1.427 . S
C3625 H3615 0.929 . S
C3625 C3623 1.433 . S
C3625 N3628 1.384 . S
C3626 H3617 0.929 . S
C3626 C3618 1.378 . S
C3626 C3621 1.350 . S
C3627 H3614 0.929 . S
C3627 C3619 1.433 . S
C3627 N3629 1.384 . S
N3628 C3624 1.427 . S
N3628 C3625 1.384 . S
N3629 C3621 1.427 . S
N3629 C3627 1.384 . S
H3630 C3636 0.930 . S
H3631 C3640 0.930 . S
H3632 C3645 0.929 . S
H3633 C3643 0.929 . S
H3634 C3638 0.929 . S
H3635 C3644 0.929 . S
C3636 H3630 0.930 . S
C3636 C3637 1.367 . S
C3636 C3644 1.378 . S
C3637 C3636 1.367 . S
C3637 C3645 1.433 . S
C3638 H3634 0.929 . S
C3638 C3640 1.378 . S
C3638 C3642 1.350 . S
C3639 C3642 1.463 . S
C3639 C3644 1.350 . S
C3639 N3647 1.427 . S
C3640 H3631 0.930 . S
C3640 C3638 1.378 . S
C3640 C3641 1.367 . S
C3641 C3640 1.367 . S
C3641 C3643 1.433 . S
C3642 C3638 1.350 . S
C3642 C3639 1.463 . S
C3642 N3646 1.427 . S
C3643 H3633 0.929 . S
C3643 C3641 1.433 . S
C3643 N3646 1.384 . S
C3644 H3635 0.929 . S
C3644 C3636 1.378 . S
C3644 C3639 1.350 . S
C3645 H3632 0.929 . S
C3645 C3637 1.433 . S
C3645 N3647 1.384 . S
N3646 C3642 1.427 . S
N3646 C3643 1.384 . S
N3647 C3639 1.427 . S
N3647 C3645 1.384 . S
H3648 C3654 0.930 . S
H3649 C3658 0.930 . S
H3650 C3663 0.929 . S
H3651 C3661 0.929 . S
H3652 C3656 0.929 . S
H3653 C3662 0.929 . S
C3654 H3648 0.930 . S
C3654 C3655 1.367 . S
C3654 C3662 1.378 . S
C3655 C3654 1.367 . S
C3655 C3663 1.433 . S
C3656 H3652 0.929 . S
C3656 C3658 1.378 . S
C3656 C3660 1.350 . S
C3657 C3660 1.463 . S
C3657 C3662 1.350 . S
C3657 N3665 1.427 . S
C3658 H3649 0.930 . S
C3658 C3656 1.378 . S
C3658 C3659 1.367 . S
C3659 C3658 1.367 . S
C3659 C3661 1.433 . S
C3660 C3656 1.350 . S
C3660 C3657 1.463 . S
C3660 N3664 1.427 . S
C3661 H3651 0.929 . S
C3661 C3659 1.433 . S
C3661 N3664 1.384 . S
C3662 H3653 0.929 . S
C3662 C3654 1.378 . S
C3662 C3657 1.350 . S
C3663 H3650 0.929 . S
C3663 C3655 1.433 . S
C3663 N3665 1.384 . S
N3664 C3660 1.427 . S
N3664 C3661 1.384 . S
N3665 C3657 1.427 . S
N3665 C3663 1.384 . S
H3666 C3672 0.930 . S
H3667 C3676 0.930 . S
H3668 C3681 0.929 . S
H3669 C3679 0.929 . S
H3670 C3674 0.929 . S
H3671 C3680 0.929 . S
C3672 H3666 0.930 . S
C3672 C3673 1.367 . S
C3672 C3680 1.378 . S
C3673 C3672 1.367 . S
C3673 C3681 1.433 . S
C3674 H3670 0.929 . S
C3674 C3676 1.378 . S
C3674 C3678 1.350 . S
C3675 C3678 1.463 . S
C3675 C3680 1.350 . S
C3675 N3683 1.427 . S
C3676 H3667 0.930 . S
C3676 C3674 1.378 . S
C3676 C3677 1.367 . S
C3677 C3676 1.367 . S
C3677 C3679 1.433 . S
C3678 C3674 1.350 . S
C3678 C3675 1.463 . S
C3678 N3682 1.427 . S
C3679 H3669 0.929 . S
C3679 C3677 1.433 . S
C3679 N3682 1.384 . S
C3680 H3671 0.929 . S
C3680 C3672 1.378 . S
C3680 C3675 1.350 . S
C3681 H3668 0.929 . S
C3681 C3673 1.433 . S
C3681 N3683 1.384 . S
N3682 C3678 1.427 . S
N3682 C3679 1.384 . S
N3683 C3675 1.427 . S
N3683 C3681 1.384 . S
H3684 C3690 0.930 . S
H3685 C3694 0.930 . S
H3686 C3699 0.929 . S
H3687 C3697 0.929 . S
H3688 C3692 0.929 . S
H3689 C3698 0.929 . S
C3690 H3684 0.930 . S
C3690 C3691 1.367 . S
C3690 C3698 1.378 . S
C3691 C3690 1.367 . S
C3691 C3699 1.433 . S
C3692 H3688 0.929 . S
C3692 C3694 1.378 . S
C3692 C3696 1.350 . S
C3693 C3696 1.463 . S
C3693 C3698 1.350 . S
C3693 N3701 1.427 . S
C3694 H3685 0.930 . S
C3694 C3692 1.378 . S
C3694 C3695 1.367 . S
C3695 C3694 1.367 . S
C3695 C3697 1.433 . S
C3696 C3692 1.350 . S
C3696 C3693 1.463 . S
C3696 N3700 1.427 . S
C3697 H3687 0.929 . S
C3697 C3695 1.433 . S
C3697 N3700 1.384 . S
C3698 H3689 0.929 . S
C3698 C3690 1.378 . S
C3698 C3693 1.350 . S
C3699 H3686 0.929 . S
C3699 C3691 1.433 . S
C3699 N3701 1.384 . S
N3700 C3696 1.427 . S
N3700 C3697 1.384 . S
N3701 C3693 1.427 . S
N3701 C3699 1.384 . S
H3702 C3708 0.930 . S
H3703 C3712 0.930 . S
H3704 C3717 0.929 . S
H3705 C3715 0.929 . S
H3706 C3710 0.929 . S
H3707 C3716 0.929 . S
C3708 H3702 0.930 . S
C3708 C3709 1.367 . S
C3708 C3716 1.378 . S
C3709 C3708 1.367 . S
C3709 C3717 1.433 . S
C3710 H3706 0.929 . S
C3710 C3712 1.378 . S
C3710 C3714 1.350 . S
C3711 C3714 1.463 . S
C3711 C3716 1.350 . S
C3711 N3719 1.427 . S
C3712 H3703 0.930 . S
C3712 C3710 1.378 . S
C3712 C3713 1.367 . S
C3713 C3712 1.367 . S
C3713 C3715 1.433 . S
C3714 C3710 1.350 . S
C3714 C3711 1.463 . S
C3714 N3718 1.427 . S
C3715 H3705 0.929 . S
C3715 C3713 1.433 . S
C3715 N3718 1.384 . S
C3716 H3707 0.929 . S
C3716 C3708 1.378 . S
C3716 C3711 1.350 . S
C3717 H3704 0.929 . S
C3717 C3709 1.433 . S
C3717 N3719 1.384 . S
N3718 C3714 1.427 . S
N3718 C3715 1.384 . S
N3719 C3711 1.427 . S
N3719 C3717 1.384 . S
H3720 C3726 0.930 . S
H3721 C3730 0.930 . S
H3722 C3735 0.929 . S
H3723 C3733 0.929 . S
H3724 C3728 0.929 . S
H3725 C3734 0.929 . S
C3726 H3720 0.930 . S
C3726 C3727 1.367 . S
C3726 C3734 1.378 . S
C3727 C3726 1.367 . S
C3727 C3735 1.433 . S
C3728 H3724 0.929 . S
C3728 C3730 1.378 . S
C3728 C3732 1.350 . S
C3729 C3732 1.463 . S
C3729 C3734 1.350 . S
C3729 N3737 1.427 . S
C3730 H3721 0.930 . S
C3730 C3728 1.378 . S
C3730 C3731 1.367 . S
C3731 C3730 1.367 . S
C3731 C3733 1.433 . S
C3732 C3728 1.350 . S
C3732 C3729 1.463 . S
C3732 N3736 1.427 . S
C3733 H3723 0.929 . S
C3733 C3731 1.433 . S
C3733 N3736 1.384 . S
C3734 H3725 0.929 . S
C3734 C3726 1.378 . S
C3734 C3729 1.350 . S
C3735 H3722 0.929 . S
C3735 C3727 1.433 . S
C3735 N3737 1.384 . S
N3736 C3732 1.427 . S
N3736 C3733 1.384 . S
N3737 C3729 1.427 . S
N3737 C3735 1.384 . S
H3738 C3744 0.930 . S
H3739 C3748 0.930 . S
H3740 C3753 0.929 . S
H3741 C3751 0.929 . S
H3742 C3746 0.929 . S
H3743 C3752 0.929 . S
C3744 H3738 0.930 . S
C3744 C3745 1.367 . S
C3744 C3752 1.378 . S
C3745 C3744 1.367 . S
C3745 C3753 1.433 . S
C3746 H3742 0.929 . S
C3746 C3748 1.378 . S
C3746 C3750 1.350 . S
C3747 C3750 1.463 . S
C3747 C3752 1.350 . S
C3747 N3755 1.427 . S
C3748 H3739 0.930 . S
C3748 C3746 1.378 . S
C3748 C3749 1.367 . S
C3749 C3748 1.367 . S
C3749 C3751 1.433 . S
C3750 C3746 1.350 . S
C3750 C3747 1.463 . S
C3750 N3754 1.427 . S
C3751 H3741 0.929 . S
C3751 C3749 1.433 . S
C3751 N3754 1.384 . S
C3752 H3743 0.929 . S
C3752 C3744 1.378 . S
C3752 C3747 1.350 . S
C3753 H3740 0.929 . S
C3753 C3745 1.433 . S
C3753 N3755 1.384 . S
N3754 C3750 1.427 . S
N3754 C3751 1.384 . S
N3755 C3747 1.427 . S
N3755 C3753 1.384 . S
H3756 C3762 0.930 . S
H3757 C3766 0.930 . S
H3758 C3771 0.929 . S
H3759 C3769 0.929 . S
H3760 C3764 0.929 . S
H3761 C3770 0.929 . S
C3762 H3756 0.930 . S
C3762 C3763 1.367 . S
C3762 C3770 1.378 . S
C3763 C3762 1.367 . S
C3763 C3771 1.433 . S
C3764 H3760 0.929 . S
C3764 C3766 1.378 . S
C3764 C3768 1.350 . S
C3765 C3768 1.463 . S
C3765 C3770 1.350 . S
C3765 N3773 1.427 . S
C3766 H3757 0.930 . S
C3766 C3764 1.378 . S
C3766 C3767 1.367 . S
C3767 C3766 1.367 . S
C3767 C3769 1.433 . S
C3768 C3764 1.350 . S
C3768 C3765 1.463 . S
C3768 N3772 1.427 . S
C3769 H3759 0.929 . S
C3769 C3767 1.433 . S
C3769 N3772 1.384 . S
C3770 H3761 0.929 . S
C3770 C3762 1.378 . S
C3770 C3765 1.350 . S
C3771 H3758 0.929 . S
C3771 C3763 1.433 . S
C3771 N3773 1.384 . S
N3772 C3768 1.427 . S
N3772 C3769 1.384 . S
N3773 C3765 1.427 . S
N3773 C3771 1.384 . S
H3774 C3780 0.930 . S
H3775 C3784 0.930 . S
H3776 C3789 0.929 . S
H3777 C3787 0.929 . S
H3778 C3782 0.929 . S
H3779 C3788 0.929 . S
C3780 H3774 0.930 . S
C3780 C3781 1.367 . S
C3780 C3788 1.378 . S
C3781 C3780 1.367 . S
C3781 C3789 1.433 . S
C3782 H3778 0.929 . S
C3782 C3784 1.378 . S
C3782 C3786 1.350 . S
C3783 C3786 1.463 . S
C3783 C3788 1.350 . S
C3783 N3791 1.427 . S
C3784 H3775 0.930 . S
C3784 C3782 1.378 . S
C3784 C3785 1.367 . S
C3785 C3784 1.367 . S
C3785 C3787 1.433 . S
C3786 C3782 1.350 . S
C3786 C3783 1.463 . S
C3786 N3790 1.427 . S
C3787 H3777 0.929 . S
C3787 C3785 1.433 . S
C3787 N3790 1.384 . S
C3788 H3779 0.929 . S
C3788 C3780 1.378 . S
C3788 C3783 1.350 . S
C3789 H3776 0.929 . S
C3789 C3781 1.433 . S
C3789 N3791 1.384 . S
N3790 C3786 1.427 . S
N3790 C3787 1.384 . S
N3791 C3783 1.427 . S
N3791 C3789 1.384 . S
H3792 C3798 0.930 . S
H3793 C3802 0.930 . S
H3794 C3807 0.929 . S
H3795 C3805 0.929 . S
H3796 C3800 0.929 . S
H3797 C3806 0.929 . S
C3798 H3792 0.930 . S
C3798 C3799 1.367 . S
C3798 C3806 1.378 . S
C3799 C3798 1.367 . S
C3799 C3807 1.433 . S
C3800 H3796 0.929 . S
C3800 C3802 1.378 . S
C3800 C3804 1.350 . S
C3801 C3804 1.463 . S
C3801 C3806 1.350 . S
C3801 N3809 1.427 . S
C3802 H3793 0.930 . S
C3802 C3800 1.378 . S
C3802 C3803 1.367 . S
C3803 C3802 1.367 . S
C3803 C3805 1.433 . S
C3804 C3800 1.350 . S
C3804 C3801 1.463 . S
C3804 N3808 1.427 . S
C3805 H3795 0.929 . S
C3805 C3803 1.433 . S
C3805 N3808 1.384 . S
C3806 H3797 0.929 . S
C3806 C3798 1.378 . S
C3806 C3801 1.350 . S
C3807 H3794 0.929 . S
C3807 C3799 1.433 . S
C3807 N3809 1.384 . S
N3808 C3804 1.427 . S
N3808 C3805 1.384 . S
N3809 C3801 1.427 . S
N3809 C3807 1.384 . S
H3810 C3816 0.930 . S
H3811 C3820 0.930 . S
H3812 C3825 0.929 . S
H3813 C3823 0.929 . S
H3814 C3818 0.929 . S
H3815 C3824 0.929 . S
C3816 H3810 0.930 . S
C3816 C3817 1.367 . S
C3816 C3824 1.378 . S
C3817 C3816 1.367 . S
C3817 C3825 1.433 . S
C3818 H3814 0.929 . S
C3818 C3820 1.378 . S
C3818 C3822 1.350 . S
C3819 C3822 1.463 . S
C3819 C3824 1.350 . S
C3819 N3827 1.427 . S
C3820 H3811 0.930 . S
C3820 C3818 1.378 . S
C3820 C3821 1.367 . S
C3821 C3820 1.367 . S
C3821 C3823 1.433 . S
C3822 C3818 1.350 . S
C3822 C3819 1.463 . S
C3822 N3826 1.427 . S
C3823 H3813 0.929 . S
C3823 C3821 1.433 . S
C3823 N3826 1.384 . S
C3824 H3815 0.929 . S
C3824 C3816 1.378 . S
C3824 C3819 1.350 . S
C3825 H3812 0.929 . S
C3825 C3817 1.433 . S
C3825 N3827 1.384 . S
N3826 C3822 1.427 . S
N3826 C3823 1.384 . S
N3827 C3819 1.427 . S
N3827 C3825 1.384 . S
H3828 C3834 0.930 . S
H3829 C3838 0.930 . S
H3830 C3843 0.929 . S
H3831 C3841 0.929 . S
H3832 C3836 0.929 . S
H3833 C3842 0.929 . S
C3834 H3828 0.930 . S
C3834 C3835 1.367 . S
C3834 C3842 1.378 . S
C3835 C3834 1.367 . S
C3835 C3843 1.433 . S
C3836 H3832 0.929 . S
C3836 C3838 1.378 . S
C3836 C3840 1.350 . S
C3837 C3840 1.463 . S
C3837 C3842 1.350 . S
C3837 N3845 1.427 . S
C3838 H3829 0.930 . S
C3838 C3836 1.378 . S
C3838 C3839 1.367 . S
C3839 C3838 1.367 . S
C3839 C3841 1.433 . S
C3840 C3836 1.350 . S
C3840 C3837 1.463 . S
C3840 N3844 1.427 . S
C3841 H3831 0.929 . S
C3841 C3839 1.433 . S
C3841 N3844 1.384 . S
C3842 H3833 0.929 . S
C3842 C3834 1.378 . S
C3842 C3837 1.350 . S
C3843 H3830 0.929 . S
C3843 C3835 1.433 . S
C3843 N3845 1.384 . S
N3844 C3840 1.427 . S
N3844 C3841 1.384 . S
N3845 C3837 1.427 . S
N3845 C3843 1.384 . S
H3846 C3852 0.930 . S
H3847 C3856 0.930 . S
H3848 C3861 0.929 . S
H3849 C3859 0.929 . S
H3850 C3854 0.929 . S
H3851 C3860 0.929 . S
C3852 H3846 0.930 . S
C3852 C3853 1.367 . S
C3852 C3860 1.378 . S
C3853 C3852 1.367 . S
C3853 C3861 1.433 . S
C3854 H3850 0.929 . S
C3854 C3856 1.378 . S
C3854 C3858 1.350 . S
C3855 C3858 1.463 . S
C3855 C3860 1.350 . S
C3855 N3863 1.427 . S
C3856 H3847 0.930 . S
C3856 C3854 1.378 . S
C3856 C3857 1.367 . S
C3857 C3856 1.367 . S
C3857 C3859 1.433 . S
C3858 C3854 1.350 . S
C3858 C3855 1.463 . S
C3858 N3862 1.427 . S
C3859 H3849 0.929 . S
C3859 C3857 1.433 . S
C3859 N3862 1.384 . S
C3860 H3851 0.929 . S
C3860 C3852 1.378 . S
C3860 C3855 1.350 . S
C3861 H3848 0.929 . S
C3861 C3853 1.433 . S
C3861 N3863 1.384 . S
N3862 C3858 1.427 . S
N3862 C3859 1.384 . S
N3863 C3855 1.427 . S
N3863 C3861 1.384 . S
H3864 C3870 0.930 . S
H3865 C3874 0.930 . S
H3866 C3879 0.929 . S
H3867 C3877 0.929 . S
H3868 C3872 0.929 . S
H3869 C3878 0.929 . S
C3870 H3864 0.930 . S
C3870 C3871 1.367 . S
C3870 C3878 1.378 . S
C3871 C3870 1.367 . S
C3871 C3879 1.433 . S
C3872 H3868 0.929 . S
C3872 C3874 1.378 . S
C3872 C3876 1.350 . S
C3873 C3876 1.463 . S
C3873 C3878 1.350 . S
C3873 N3881 1.427 . S
C3874 H3865 0.930 . S
C3874 C3872 1.378 . S
C3874 C3875 1.367 . S
C3875 C3874 1.367 . S
C3875 C3877 1.433 . S
C3876 C3872 1.350 . S
C3876 C3873 1.463 . S
C3876 N3880 1.427 . S
C3877 H3867 0.929 . S
C3877 C3875 1.433 . S
C3877 N3880 1.384 . S
C3878 H3869 0.929 . S
C3878 C3870 1.378 . S
C3878 C3873 1.350 . S
C3879 H3866 0.929 . S
C3879 C3871 1.433 . S
C3879 N3881 1.384 . S
N3880 C3876 1.427 . S
N3880 C3877 1.384 . S
N3881 C3873 1.427 . S
N3881 C3879 1.384 . S
H3882 C3888 0.930 . S
H3883 C3892 0.930 . S
H3884 C3897 0.929 . S
H3885 C3895 0.929 . S
H3886 C3890 0.929 . S
H3887 C3896 0.929 . S
C3888 H3882 0.930 . S
C3888 C3889 1.367 . S
C3888 C3896 1.378 . S
C3889 C3888 1.367 . S
C3889 C3897 1.433 . S
C3890 H3886 0.929 . S
C3890 C3892 1.378 . S
C3890 C3894 1.350 . S
C3891 C3894 1.463 . S
C3891 C3896 1.350 . S
C3891 N3899 1.427 . S
C3892 H3883 0.930 . S
C3892 C3890 1.378 . S
C3892 C3893 1.367 . S
C3893 C3892 1.367 . S
C3893 C3895 1.433 . S
C3894 C3890 1.350 . S
C3894 C3891 1.463 . S
C3894 N3898 1.427 . S
C3895 H3885 0.929 . S
C3895 C3893 1.433 . S
C3895 N3898 1.384 . S
C3896 H3887 0.929 . S
C3896 C3888 1.378 . S
C3896 C3891 1.350 . S
C3897 H3884 0.929 . S
C3897 C3889 1.433 . S
C3897 N3899 1.384 . S
N3898 C3894 1.427 . S
N3898 C3895 1.384 . S
N3899 C3891 1.427 . S
N3899 C3897 1.384 . S
H3900 C3906 0.930 . S
H3901 C3910 0.930 . S
H3902 C3915 0.929 . S
H3903 C3913 0.929 . S
H3904 C3908 0.929 . S
H3905 C3914 0.929 . S
C3906 H3900 0.930 . S
C3906 C3907 1.367 . S
C3906 C3914 1.378 . S
C3907 C3906 1.367 . S
C3907 C3915 1.433 . S
C3908 H3904 0.929 . S
C3908 C3910 1.378 . S
C3908 C3912 1.350 . S
C3909 C3912 1.463 . S
C3909 C3914 1.350 . S
C3909 N3917 1.427 . S
C3910 H3901 0.930 . S
C3910 C3908 1.378 . S
C3910 C3911 1.367 . S
C3911 C3910 1.367 . S
C3911 C3913 1.433 . S
C3912 C3908 1.350 . S
C3912 C3909 1.463 . S
C3912 N3916 1.427 . S
C3913 H3903 0.929 . S
C3913 C3911 1.433 . S
C3913 N3916 1.384 . S
C3914 H3905 0.929 . S
C3914 C3906 1.378 . S
C3914 C3909 1.350 . S
C3915 H3902 0.929 . S
C3915 C3907 1.433 . S
C3915 N3917 1.384 . S
N3916 C3912 1.427 . S
N3916 C3913 1.384 . S
N3917 C3909 1.427 . S
N3917 C3915 1.384 . S
H3918 C3924 0.930 . S
H3919 C3928 0.930 . S
H3920 C3933 0.929 . S
H3921 C3931 0.929 . S
H3922 C3926 0.929 . S
H3923 C3932 0.929 . S
C3924 H3918 0.930 . S
C3924 C3925 1.367 . S
C3924 C3932 1.378 . S
C3925 C3924 1.367 . S
C3925 C3933 1.433 . S
C3926 H3922 0.929 . S
C3926 C3928 1.378 . S
C3926 C3930 1.350 . S
C3927 C3930 1.463 . S
C3927 C3932 1.350 . S
C3927 N3935 1.427 . S
C3928 H3919 0.930 . S
C3928 C3926 1.378 . S
C3928 C3929 1.367 . S
C3929 C3928 1.367 . S
C3929 C3931 1.433 . S
C3930 C3926 1.350 . S
C3930 C3927 1.463 . S
C3930 N3934 1.427 . S
C3931 H3921 0.929 . S
C3931 C3929 1.433 . S
C3931 N3934 1.384 . S
C3932 H3923 0.929 . S
C3932 C3924 1.378 . S
C3932 C3927 1.350 . S
C3933 H3920 0.929 . S
C3933 C3925 1.433 . S
C3933 N3935 1.384 . S
N3934 C3930 1.427 . S
N3934 C3931 1.384 . S
N3935 C3927 1.427 . S
N3935 C3933 1.384 . S
H3936 C3942 0.930 . S
H3937 C3946 0.930 . S
H3938 C3951 0.929 . S
H3939 C3949 0.929 . S
H3940 C3944 0.929 . S
H3941 C3950 0.929 . S
C3942 H3936 0.930 . S
C3942 C3943 1.367 . S
C3942 C3950 1.378 . S
C3943 C3942 1.367 . S
C3943 C3951 1.433 . S
C3944 H3940 0.929 . S
C3944 C3946 1.378 . S
C3944 C3948 1.350 . S
C3945 C3948 1.463 1_655 S
C3945 C3950 1.350 . S
C3945 N3953 1.427 . S
C3946 H3937 0.930 . S
C3946 C3944 1.378 . S
C3946 C3947 1.367 . S
C3947 C3946 1.367 . S
C3947 C3949 1.433 . S
C3948 C3944 1.350 . S
C3948 C3945 1.463 1_455 S
C3948 N3952 1.427 . S
C3949 H3939 0.929 . S
C3949 C3947 1.433 . S
C3949 N3952 1.384 . S
C3950 H3941 0.929 . S
C3950 C3942 1.378 . S
C3950 C3945 1.350 . S
C3951 H3938 0.929 . S
C3951 C3943 1.433 . S
C3951 N3953 1.384 . S
N3952 C3948 1.427 . S
N3952 C3949 1.384 . S
N3953 C3945 1.427 . S
N3953 C3951 1.384 . S
H3954 C3960 0.930 . S
H3955 C3964 0.930 . S
H3956 C3969 0.929 . S
H3957 C3967 0.929 . S
H3958 C3962 0.929 . S
H3959 C3968 0.929 . S
C3960 H3954 0.930 . S
C3960 C3961 1.367 . S
C3960 C3968 1.378 . S
C3961 C3960 1.367 . S
C3961 C3969 1.433 . S
C3962 H3958 0.929 . S
C3962 C3964 1.378 . S
C3962 C3966 1.350 . S
C3963 C3966 1.463 . S
C3963 C3968 1.350 . S
C3963 N3971 1.427 . S
C3964 H3955 0.930 . S
C3964 C3962 1.378 . S
C3964 C3965 1.367 . S
C3965 C3964 1.367 . S
C3965 C3967 1.433 . S
C3966 C3962 1.350 . S
C3966 C3963 1.463 . S
C3966 N3970 1.427 . S
C3967 H3957 0.929 . S
C3967 C3965 1.433 . S
C3967 N3970 1.384 . S
C3968 H3959 0.929 . S
C3968 C3960 1.378 . S
C3968 C3963 1.350 . S
C3969 H3956 0.929 . S
C3969 C3961 1.433 . S
C3969 N3971 1.384 . S
N3970 C3966 1.427 . S
N3970 C3967 1.384 . S
N3971 C3963 1.427 . S
N3971 C3969 1.384 . S
H3972 C3978 0.930 . S
H3973 C3982 0.930 . S
H3974 C3987 0.929 . S
H3975 C3985 0.929 . S
H3976 C3980 0.929 . S
H3977 C3986 0.929 . S
C3978 H3972 0.930 . S
C3978 C3979 1.367 . S
C3978 C3986 1.378 . S
C3979 C3978 1.367 . S
C3979 C3987 1.433 1_565 S
C3980 H3976 0.929 . S
C3980 C3982 1.378 . S
C3980 C3984 1.350 . S
C3981 C3984 1.463 1_665 S
C3981 C3986 1.350 . S
C3981 N3989 1.427 1_565 S
C3982 H3973 0.930 . S
C3982 C3980 1.378 . S
C3982 C3983 1.367 . S
C3983 C3982 1.367 . S
C3983 C3985 1.433 1_545 S
C3984 C3980 1.350 . S
C3984 C3981 1.463 1_445 S
C3984 N3988 1.427 1_545 S
C3985 H3975 0.929 . S
C3985 C3983 1.433 1_565 S
C3985 N3988 1.384 . S
C3986 H3977 0.929 . S
C3986 C3978 1.378 . S
C3986 C3981 1.350 . S
C3987 H3974 0.929 . S
C3987 C3979 1.433 1_545 S
C3987 N3989 1.384 . S
N3988 C3984 1.427 1_565 S
N3988 C3985 1.384 . S
N3989 C3981 1.427 1_545 S
N3989 C3987 1.384 . S
H3990 C3996 0.930 . S
H3991 C4000 0.930 . S
H3992 C4005 0.929 . S
H3993 C4003 0.929 . S
H3994 C3998 0.929 . S
H3995 C4004 0.929 . S
C3996 H3990 0.930 . S
C3996 C3997 1.367 . S
C3996 C4004 1.378 . S
C3997 C3996 1.367 . S
C3997 C4005 1.433 . S
C3998 H3994 0.929 . S
C3998 C4000 1.378 . S
C3998 C4002 1.350 . S
C3999 C4002 1.463 . S
C3999 C4004 1.350 . S
C3999 N4007 1.427 . S
C4000 H3991 0.930 . S
C4000 C3998 1.378 . S
C4000 C4001 1.367 . S
C4001 C4000 1.367 . S
C4001 C4003 1.433 . S
C4002 C3998 1.350 . S
C4002 C3999 1.463 . S
C4002 N4006 1.427 . S
C4003 H3993 0.929 . S
C4003 C4001 1.433 . S
C4003 N4006 1.384 . S
C4004 H3995 0.929 . S
C4004 C3996 1.378 . S
C4004 C3999 1.350 . S
C4005 H3992 0.929 . S
C4005 C3997 1.433 . S
C4005 N4007 1.384 . S
N4006 C4002 1.427 . S
N4006 C4003 1.384 . S
N4007 C3999 1.427 . S
N4007 C4005 1.384 . S
H4008 C4014 0.930 . S
H4009 C4018 0.930 . S
H4010 C4023 0.929 . S
H4011 C4021 0.929 . S
H4012 C4016 0.929 . S
H4013 C4022 0.929 . S
C4014 H4008 0.930 . S
C4014 C4015 1.367 . S
C4014 C4022 1.378 . S
C4015 C4014 1.367 . S
C4015 C4023 1.433 . S
C4016 H4012 0.929 . S
C4016 C4018 1.378 . S
C4016 C4020 1.350 . S
C4017 C4020 1.463 1_455 S
C4017 C4022 1.350 . S
C4017 N4025 1.427 . S
C4018 H4009 0.930 . S
C4018 C4016 1.378 . S
C4018 C4019 1.367 . S
C4019 C4018 1.367 . S
C4019 C4021 1.433 . S
C4020 C4016 1.350 . S
C4020 C4017 1.463 1_655 S
C4020 N4024 1.427 . S
C4021 H4011 0.929 . S
C4021 C4019 1.433 . S
C4021 N4024 1.384 . S
C4022 H4013 0.929 . S
C4022 C4014 1.378 . S
C4022 C4017 1.350 . S
C4023 H4010 0.929 . S
C4023 C4015 1.433 . S
C4023 N4025 1.384 . S
N4024 C4020 1.427 . S
N4024 C4021 1.384 . S
N4025 C4017 1.427 . S
N4025 C4023 1.384 . S
H4026 C4032 0.930 . S
H4027 C4036 0.930 . S
H4028 C4041 0.929 . S
H4029 C4039 0.929 . S
H4030 C4034 0.929 . S
H4031 C4040 0.929 . S
C4032 H4026 0.930 . S
C4032 C4033 1.367 . S
C4032 C4040 1.378 . S
C4033 C4032 1.367 . S
C4033 C4041 1.433 . S
C4034 H4030 0.929 . S
C4034 C4036 1.378 . S
C4034 C4038 1.350 . S
C4035 C4038 1.463 . S
C4035 C4040 1.350 . S
C4035 N4043 1.427 . S
C4036 H4027 0.930 . S
C4036 C4034 1.378 . S
C4036 C4037 1.367 . S
C4037 C4036 1.367 . S
C4037 C4039 1.433 . S
C4038 C4034 1.350 . S
C4038 C4035 1.463 . S
C4038 N4042 1.427 . S
C4039 H4029 0.929 . S
C4039 C4037 1.433 . S
C4039 N4042 1.384 . S
C4040 H4031 0.929 . S
C4040 C4032 1.378 . S
C4040 C4035 1.350 . S
C4041 H4028 0.929 . S
C4041 C4033 1.433 . S
C4041 N4043 1.384 . S
N4042 C4038 1.427 . S
N4042 C4039 1.384 . S
N4043 C4035 1.427 . S
N4043 C4041 1.384 . S
H4044 C4050 0.930 . S
H4045 C4054 0.930 . S
H4046 C4059 0.929 . S
H4047 C4057 0.929 . S
H4048 C4052 0.929 . S
H4049 C4058 0.929 . S
C4050 H4044 0.930 . S
C4050 C4051 1.367 . S
C4050 C4058 1.378 . S
C4051 C4050 1.367 . S
C4051 C4059 1.433 . S
C4052 H4048 0.929 . S
C4052 C4054 1.378 . S
C4052 C4056 1.356 . S
C4053 C4056 1.457 1_645 S
C4053 C4058 1.356 . S
C4053 N4061 1.427 . S
C4054 H4045 0.930 . S
C4054 C4052 1.378 . S
C4054 C4055 1.367 . S
C4055 C4054 1.367 . S
C4055 C4057 1.433 . S
C4056 C4052 1.356 . S
C4056 C4053 1.457 1_465 S
C4056 N4060 1.427 . S
C4057 H4047 0.929 . S
C4057 C4055 1.433 . S
C4057 N4060 1.386 . S
C4058 H4049 0.929 . S
C4058 C4050 1.378 . S
C4058 C4053 1.356 . S
C4059 H4046 0.929 . S
C4059 C4051 1.433 . S
C4059 N4061 1.386 . S
N4060 C4056 1.427 . S
N4060 C4057 1.386 . S
N4061 C4053 1.427 . S
N4061 C4059 1.386 . S
H4062 C4068 0.930 . S
H4063 C4072 0.930 . S
H4064 C4077 0.929 . S
H4065 C4075 0.929 . S
H4066 C4070 0.929 . S
H4067 C4076 0.929 . S
C4068 H4062 0.930 . S
C4068 C4069 1.367 . S
C4068 C4076 1.378 . S
C4069 C4068 1.367 . S
C4069 C4077 1.433 . S
C4070 H4066 0.929 . S
C4070 C4072 1.378 . S
C4070 C4074 1.350 . S
C4071 C4074 1.463 . S
C4071 C4076 1.350 . S
C4071 N4079 1.427 . S
C4072 H4063 0.930 . S
C4072 C4070 1.378 . S
C4072 C4073 1.367 . S
C4073 C4072 1.367 . S
C4073 C4075 1.433 . S
C4074 C4070 1.350 . S
C4074 C4071 1.463 . S
C4074 N4078 1.427 . S
C4075 H4065 0.929 . S
C4075 C4073 1.433 . S
C4075 N4078 1.384 . S
C4076 H4067 0.929 . S
C4076 C4068 1.378 . S
C4076 C4071 1.350 . S
C4077 H4064 0.929 . S
C4077 C4069 1.433 . S
C4077 N4079 1.384 . S
N4078 C4074 1.427 . S
N4078 C4075 1.384 . S
N4079 C4071 1.427 . S
N4079 C4077 1.384 . S
H4080 C4086 0.930 . S
H4081 C4090 0.930 . S
H4082 C4095 0.929 . S
H4083 C4093 0.929 . S
H4084 C4088 0.929 . S
H4085 C4094 0.929 . S
C4086 H4080 0.930 . S
C4086 C4087 1.367 . S
C4086 C4094 1.378 . S
C4087 C4086 1.367 . S
C4087 C4095 1.433 . S
C4088 H4084 0.929 . S
C4088 C4090 1.378 . S
C4088 C4092 1.350 . S
C4089 C4092 1.463 1_545 S
C4089 C4094 1.350 . S
C4089 N4097 1.427 . S
C4090 H4081 0.930 . S
C4090 C4088 1.378 . S
C4090 C4091 1.367 . S
C4091 C4090 1.367 . S
C4091 C4093 1.433 . S
C4092 C4088 1.350 . S
C4092 C4089 1.463 1_565 S
C4092 N4096 1.427 . S
C4093 H4083 0.929 . S
C4093 C4091 1.433 . S
C4093 N4096 1.384 . S
C4094 H4085 0.929 . S
C4094 C4086 1.378 . S
C4094 C4089 1.350 . S
C4095 H4082 0.929 . S
C4095 C4087 1.433 . S
C4095 N4097 1.384 . S
N4096 C4092 1.427 . S
N4096 C4093 1.384 . S
N4097 C4089 1.427 . S
N4097 C4095 1.384 . S
H4098 C4104 0.930 . S
H4099 C4108 0.930 . S
H4100 C4113 0.929 . S
H4101 C4111 0.929 . S
H4102 C4106 0.929 . S
H4103 C4112 0.929 . S
C4104 H4098 0.930 . S
C4104 C4105 1.367 . S
C4104 C4112 1.378 . S
C4105 C4104 1.367 . S
C4105 C4113 1.433 . S
C4106 H4102 0.929 . S
C4106 C4108 1.378 . S
C4106 C4110 1.350 . S
C4107 C4110 1.463 . S
C4107 C4112 1.350 . S
C4107 N4115 1.427 . S
C4108 H4099 0.930 . S
C4108 C4106 1.378 . S
C4108 C4109 1.367 . S
C4109 C4108 1.367 . S
C4109 C4111 1.433 . S
C4110 C4106 1.350 . S
C4110 C4107 1.463 . S
C4110 N4114 1.427 . S
C4111 H4101 0.929 . S
C4111 C4109 1.433 . S
C4111 N4114 1.384 . S
C4112 H4103 0.929 . S
C4112 C4104 1.378 . S
C4112 C4107 1.350 . S
C4113 H4100 0.929 . S
C4113 C4105 1.433 . S
C4113 N4115 1.384 . S
N4114 C4110 1.427 . S
N4114 C4111 1.384 . S
N4115 C4107 1.427 . S
N4115 C4113 1.384 . S
H4116 C4122 0.930 . S
H4117 C4126 0.930 . S
H4118 C4131 0.929 . S
H4119 C4129 0.929 . S
H4120 C4124 0.929 . S
H4121 C4130 0.929 . S
C4122 H4116 0.930 . S
C4122 C4123 1.367 . S
C4122 C4130 1.378 . S
C4123 C4122 1.367 . S
C4123 C4131 1.433 1_554 S
C4124 H4120 0.929 . S
C4124 C4126 1.378 . S
C4124 C4128 1.350 . S
C4125 C4128 1.463 1_554 S
C4125 C4130 1.350 . S
C4125 N4133 1.427 1_554 S
C4126 H4117 0.930 . S
C4126 C4124 1.378 . S
C4126 C4127 1.367 . S
C4127 C4126 1.367 . S
C4127 C4129 1.433 1_556 S
C4128 C4124 1.350 . S
C4128 C4125 1.463 1_556 S
C4128 N4132 1.427 1_556 S
C4129 H4119 0.929 . S
C4129 C4127 1.433 1_554 S
C4129 N4132 1.384 . S
C4130 H4121 0.929 . S
C4130 C4122 1.378 . S
C4130 C4125 1.350 . S
C4131 H4118 0.929 . S
C4131 C4123 1.433 1_556 S
C4131 N4133 1.384 . S
N4132 C4128 1.427 1_554 S
N4132 C4129 1.384 . S
N4133 C4125 1.427 1_556 S
N4133 C4131 1.384 . S
H4134 C4140 0.930 . S
H4135 C4144 0.930 . S
H4136 C4149 0.929 . S
H4137 C4147 0.929 . S
H4138 C4142 0.929 . S
H4139 C4148 0.929 . S
C4140 H4134 0.930 . S
C4140 C4141 1.367 . S
C4140 C4148 1.378 . S
C4141 C4140 1.367 . S
C4141 C4149 1.433 . S
C4142 H4138 0.929 . S
C4142 C4144 1.378 . S
C4142 C4146 1.350 . S
C4143 C4146 1.463 . S
C4143 C4148 1.350 . S
C4143 N4151 1.427 . S
C4144 H4135 0.930 . S
C4144 C4142 1.378 . S
C4144 C4145 1.367 . S
C4145 C4144 1.367 . S
C4145 C4147 1.433 . S
C4146 C4142 1.350 . S
C4146 C4143 1.463 . S
C4146 N4150 1.427 . S
C4147 H4137 0.929 . S
C4147 C4145 1.433 . S
C4147 N4150 1.384 . S
C4148 H4139 0.929 . S
C4148 C4140 1.378 . S
C4148 C4143 1.350 . S
C4149 H4136 0.929 . S
C4149 C4141 1.433 . S
C4149 N4151 1.384 . S
N4150 C4146 1.427 . S
N4150 C4147 1.384 . S
N4151 C4143 1.427 . S
N4151 C4149 1.384 . S
H4152 C4158 0.930 . S
H4153 C4162 0.930 . S
H4154 C4167 0.929 . S
H4155 C4165 0.929 . S
H4156 C4160 0.929 . S
H4157 C4166 0.929 . S
C4158 H4152 0.930 . S
C4158 C4159 1.367 . S
C4158 C4166 1.378 . S
C4159 C4158 1.367 . S
C4159 C4167 1.433 . S
C4160 H4156 0.929 . S
C4160 C4162 1.378 . S
C4160 C4164 1.350 . S
C4161 C4164 1.463 1_554 S
C4161 C4166 1.350 . S
C4161 N4169 1.427 . S
C4162 H4153 0.930 . S
C4162 C4160 1.378 . S
C4162 C4163 1.367 . S
C4163 C4162 1.367 . S
C4163 C4165 1.433 . S
C4164 C4160 1.350 . S
C4164 C4161 1.463 1_556 S
C4164 N4168 1.427 . S
C4165 H4155 0.929 . S
C4165 C4163 1.433 . S
C4165 N4168 1.384 . S
C4166 H4157 0.929 . S
C4166 C4158 1.378 . S
C4166 C4161 1.350 . S
C4167 H4154 0.929 . S
C4167 C4159 1.433 . S
C4167 N4169 1.384 . S
N4168 C4164 1.427 . S
N4168 C4165 1.384 . S
N4169 C4161 1.427 . S
N4169 C4167 1.384 . S
H4170 C4176 0.930 . S
H4171 C4180 0.930 . S
H4172 C4185 0.929 . S
H4173 C4183 0.929 . S
H4174 C4178 0.929 . S
H4175 C4184 0.929 . S
C4176 H4170 0.930 . S
C4176 C4177 1.367 . S
C4176 C4184 1.378 . S
C4177 C4176 1.367 . S
C4177 C4185 1.433 1_655 S
C4178 H4174 0.929 . S
C4178 C4180 1.378 . S
C4178 C4182 1.402 . S
C4179 C4182 1.452 1_655 S
C4179 C4184 1.402 . S
C4179 N4187 1.384 1_655 S
C4180 H4171 0.930 . S
C4180 C4178 1.378 . S
C4180 C4181 1.367 . S
C4181 C4180 1.367 . S
C4181 C4183 1.433 1_455 S
C4182 C4178 1.402 . S
C4182 C4179 1.452 1_455 S
C4182 N4186 1.384 1_455 S
C4183 H4173 0.929 . S
C4183 C4181 1.433 1_655 S
C4183 N4186 1.384 . S
C4184 H4175 0.929 . S
C4184 C4176 1.378 . S
C4184 C4179 1.402 . S
C4185 H4172 0.929 . S
C4185 C4177 1.433 1_455 S
C4185 N4187 1.384 . S
N4186 C4182 1.384 1_655 S
N4186 C4183 1.384 . S
N4187 C4179 1.384 1_455 S
N4187 C4185 1.384 . S
H4188 C4194 0.930 . S
H4189 C4198 0.930 . S
H4190 C4203 0.929 . S
H4191 C4201 0.929 . S
H4192 C4196 0.929 . S
H4193 C4202 0.929 . S
C4194 H4188 0.930 . S
C4194 C4195 1.367 . S
C4194 C4202 1.378 . S
C4195 C4194 1.367 . S
C4195 C4203 1.433 . S
C4196 H4192 0.929 . S
C4196 C4198 1.378 . S
C4196 C4200 1.350 . S
C4197 C4200 1.463 . S
C4197 C4202 1.350 . S
C4197 N4205 1.427 . S
C4198 H4189 0.930 . S
C4198 C4196 1.378 . S
C4198 C4199 1.367 . S
C4199 C4198 1.367 . S
C4199 C4201 1.433 . S
C4200 C4196 1.350 . S
C4200 C4197 1.463 . S
C4200 N4204 1.427 . S
C4201 H4191 0.929 . S
C4201 C4199 1.433 . S
C4201 N4204 1.384 . S
C4202 H4193 0.929 . S
C4202 C4194 1.378 . S
C4202 C4197 1.350 . S
C4203 H4190 0.929 . S
C4203 C4195 1.433 . S
C4203 N4205 1.384 . S
N4204 C4200 1.427 . S
N4204 C4201 1.384 . S
N4205 C4197 1.427 . S
N4205 C4203 1.384 . S
H4206 C4212 0.930 . S
H4207 C4216 0.930 . S
H4208 C4221 0.929 . S
H4209 C4219 0.929 . S
H4210 C4214 0.929 . S
H4211 C4220 0.929 . S
C4212 H4206 0.930 . S
C4212 C4213 1.367 . S
C4212 C4220 1.378 . S
C4213 C4212 1.367 . S
C4213 C4221 1.433 1_455 S
C4214 H4210 0.929 . S
C4214 C4216 1.378 . S
C4214 C4218 1.350 . S
C4215 C4218 1.463 1_454 S
C4215 C4220 1.350 . S
C4215 N4223 1.427 1_455 S
C4216 H4207 0.930 . S
C4216 C4214 1.378 . S
C4216 C4217 1.367 . S
C4217 C4216 1.367 . S
C4217 C4219 1.433 1_655 S
C4218 C4214 1.350 . S
C4218 C4215 1.463 1_656 S
C4218 N4222 1.427 1_655 S
C4219 H4209 0.929 . S
C4219 C4217 1.433 1_455 S
C4219 N4222 1.384 . S
C4220 H4211 0.929 . S
C4220 C4212 1.378 . S
C4220 C4215 1.350 . S
C4221 H4208 0.929 . S
C4221 C4213 1.433 1_655 S
C4221 N4223 1.384 . S
N4222 C4218 1.427 1_455 S
N4222 C4219 1.384 . S
N4223 C4215 1.427 1_655 S
N4223 C4221 1.384 . S
H4224 C4230 0.930 . S
H4225 C4234 0.930 . S
H4226 C4239 0.929 . S
H4227 C4237 0.929 . S
H4228 C4232 0.929 . S
H4229 C4238 0.929 . S
C4230 H4224 0.930 . S
C4230 C4231 1.367 . S
C4230 C4238 1.378 . S
C4231 C4230 1.367 . S
C4231 C4239 1.433 . S
C4232 H4228 0.929 . S
C4232 C4234 1.378 . S
C4232 C4236 1.350 . S
C4233 C4236 1.463 . S
C4233 C4238 1.350 . S
C4233 N4241 1.427 . S
C4234 H4225 0.930 . S
C4234 C4232 1.378 . S
C4234 C4235 1.367 . S
C4235 C4234 1.367 . S
C4235 C4237 1.433 . S
C4236 C4232 1.350 . S
C4236 C4233 1.463 . S
C4236 N4240 1.427 . S
C4237 H4227 0.929 . S
C4237 C4235 1.433 . S
C4237 N4240 1.384 . S
C4238 H4229 0.929 . S
C4238 C4230 1.378 . S
C4238 C4233 1.350 . S
C4239 H4226 0.929 . S
C4239 C4231 1.433 . S
C4239 N4241 1.384 . S
N4240 C4236 1.427 . S
N4240 C4237 1.384 . S
N4241 C4233 1.427 . S
N4241 C4239 1.384 . S
H4242 C4248 0.930 . S
H4243 C4252 0.930 . S
H4244 C4257 0.929 . S
H4245 C4255 0.929 . S
H4246 C4250 0.929 . S
H4247 C4256 0.929 . S
C4248 H4242 0.930 . S
C4248 C4249 1.367 . S
C4248 C4256 1.378 . S
C4249 C4248 1.367 . S
C4249 C4257 1.433 . S
C4250 H4246 0.929 . S
C4250 C4252 1.378 . S
C4250 C4254 1.350 . S
C4251 C4254 1.463 1_554 S
C4251 C4256 1.350 . S
C4251 N4259 1.427 . S
C4252 H4243 0.930 . S
C4252 C4250 1.378 . S
C4252 C4253 1.367 . S
C4253 C4252 1.367 . S
C4253 C4255 1.433 . S
C4254 C4250 1.350 . S
C4254 C4251 1.463 1_556 S
C4254 N4258 1.427 . S
C4255 H4245 0.929 . S
C4255 C4253 1.433 . S
C4255 N4258 1.384 . S
C4256 H4247 0.929 . S
C4256 C4248 1.378 . S
C4256 C4251 1.350 . S
C4257 H4244 0.929 . S
C4257 C4249 1.433 . S
C4257 N4259 1.384 . S
N4258 C4254 1.427 . S
N4258 C4255 1.384 . S
N4259 C4251 1.427 . S
N4259 C4257 1.384 . S
H4260 C4266 0.930 . S
H4261 C4270 0.930 . S
H4262 C4275 0.929 . S
H4263 C4273 0.929 . S
H4264 C4268 0.929 . S
H4265 C4274 0.929 . S
C4266 H4260 0.930 . S
C4266 C4267 1.367 . S
C4266 C4274 1.378 . S
C4267 C4266 1.367 . S
C4267 C4275 1.433 . S
C4268 H4264 0.929 . S
C4268 C4270 1.378 . S
C4268 C4272 1.350 . S
C4269 C4272 1.463 . S
C4269 C4274 1.350 . S
C4269 N4277 1.427 . S
C4270 H4261 0.930 . S
C4270 C4268 1.378 . S
C4270 C4271 1.367 . S
C4271 C4270 1.367 . S
C4271 C4273 1.433 . S
C4272 C4268 1.350 . S
C4272 C4269 1.463 . S
C4272 N4276 1.427 . S
C4273 H4263 0.929 . S
C4273 C4271 1.433 . S
C4273 N4276 1.384 . S
C4274 H4265 0.929 . S
C4274 C4266 1.378 . S
C4274 C4269 1.350 . S
C4275 H4262 0.929 . S
C4275 C4267 1.433 . S
C4275 N4277 1.384 . S
N4276 C4272 1.427 . S
N4276 C4273 1.384 . S
N4277 C4269 1.427 . S
N4277 C4275 1.384 . S
H4278 C4284 0.930 . S
H4279 C4288 0.930 . S
H4280 C4293 0.929 . S
H4281 C4291 0.929 . S
H4282 C4286 0.929 . S
H4283 C4292 0.929 . S
C4284 H4278 0.930 . S
C4284 C4285 1.367 . S
C4284 C4292 1.378 . S
C4285 C4284 1.367 . S
C4285 C4293 1.433 . S
C4286 H4282 0.929 . S
C4286 C4288 1.378 . S
C4286 C4290 1.350 . S
C4287 C4290 1.463 . S
C4287 C4292 1.350 . S
C4287 N4295 1.427 . S
C4288 H4279 0.930 . S
C4288 C4286 1.378 . S
C4288 C4289 1.367 . S
C4289 C4288 1.367 . S
C4289 C4291 1.433 . S
C4290 C4286 1.350 . S
C4290 C4287 1.463 . S
C4290 N4294 1.427 . S
C4291 H4281 0.929 . S
C4291 C4289 1.433 . S
C4291 N4294 1.384 . S
C4292 H4283 0.929 . S
C4292 C4284 1.378 . S
C4292 C4287 1.350 . S
C4293 H4280 0.929 . S
C4293 C4285 1.433 . S
C4293 N4295 1.384 . S
N4294 C4290 1.427 . S
N4294 C4291 1.384 . S
N4295 C4287 1.427 . S
N4295 C4293 1.384 . S
H4296 C4302 0.930 . S
H4297 C4306 0.930 . S
H4298 C4311 0.929 . S
H4299 C4309 0.929 . S
H4300 C4304 0.929 . S
H4301 C4310 0.929 . S
C4302 H4296 0.930 . S
C4302 C4303 1.367 . S
C4302 C4310 1.378 . S
C4303 C4302 1.367 . S
C4303 C4311 1.433 . S
C4304 H4300 0.929 . S
C4304 C4306 1.378 . S
C4304 C4308 1.350 . S
C4305 C4308 1.463 . S
C4305 C4310 1.350 . S
C4305 N4313 1.427 . S
C4306 H4297 0.930 . S
C4306 C4304 1.378 . S
C4306 C4307 1.367 . S
C4307 C4306 1.367 . S
C4307 C4309 1.433 . S
C4308 C4304 1.350 . S
C4308 C4305 1.463 . S
C4308 N4312 1.427 . S
C4309 H4299 0.929 . S
C4309 C4307 1.433 . S
C4309 N4312 1.384 . S
C4310 H4301 0.929 . S
C4310 C4302 1.378 . S
C4310 C4305 1.350 . S
C4311 H4298 0.929 . S
C4311 C4303 1.433 . S
C4311 N4313 1.384 . S
N4312 C4308 1.427 . S
N4312 C4309 1.384 . S
N4313 C4305 1.427 . S
N4313 C4311 1.384 . S
H4314 C4320 0.930 . S
H4315 C4324 0.930 . S
H4316 C4329 0.929 . S
H4317 C4327 0.929 . S
H4318 C4322 0.929 . S
H4319 C4328 0.929 . S
C4320 H4314 0.930 . S
C4320 C4321 1.367 . S
C4320 C4328 1.378 . S
C4321 C4320 1.367 . S
C4321 C4329 1.433 . S
C4322 H4318 0.929 . S
C4322 C4324 1.378 . S
C4322 C4326 1.350 . S
C4323 C4326 1.463 . S
C4323 C4328 1.350 . S
C4323 N4331 1.427 . S
C4324 H4315 0.930 . S
C4324 C4322 1.378 . S
C4324 C4325 1.367 . S
C4325 C4324 1.367 . S
C4325 C4327 1.433 . S
C4326 C4322 1.350 . S
C4326 C4323 1.463 . S
C4326 N4330 1.427 . S
C4327 H4317 0.929 . S
C4327 C4325 1.433 . S
C4327 N4330 1.384 . S
C4328 H4319 0.929 . S
C4328 C4320 1.378 . S
C4328 C4323 1.350 . S
C4329 H4316 0.929 . S
C4329 C4321 1.433 . S
C4329 N4331 1.384 . S
N4330 C4326 1.427 . S
N4330 C4327 1.384 . S
N4331 C4323 1.427 . S
N4331 C4329 1.384 . S
H4332 C4338 0.930 . S
H4333 C4342 0.930 . S
H4334 C4347 0.929 . S
H4335 C4345 0.929 . S
H4336 C4340 0.929 . S
H4337 C4346 0.929 . S
C4338 H4332 0.930 . S
C4338 C4339 1.367 . S
C4338 C4346 1.378 . S
C4339 C4338 1.367 . S
C4339 C4347 1.433 . S
C4340 H4336 0.929 . S
C4340 C4342 1.378 . S
C4340 C4344 1.350 . S
C4341 C4344 1.463 . S
C4341 C4346 1.350 . S
C4341 N4349 1.427 . S
C4342 H4333 0.930 . S
C4342 C4340 1.378 . S
C4342 C4343 1.367 . S
C4343 C4342 1.367 . S
C4343 C4345 1.433 . S
C4344 C4340 1.350 . S
C4344 C4341 1.463 . S
C4344 N4348 1.427 . S
C4345 H4335 0.929 . S
C4345 C4343 1.433 . S
C4345 N4348 1.384 . S
C4346 H4337 0.929 . S
C4346 C4338 1.378 . S
C4346 C4341 1.350 . S
C4347 H4334 0.929 . S
C4347 C4339 1.433 . S
C4347 N4349 1.384 . S
N4348 C4344 1.427 . S
N4348 C4345 1.384 . S
N4349 C4341 1.427 . S
N4349 C4347 1.384 . S
H4350 C4356 0.930 . S
H4351 C4360 0.930 . S
H4352 C4365 0.929 . S
H4353 C4363 0.929 . S
H4354 C4358 0.929 . S
H4355 C4364 0.929 . S
C4356 H4350 0.930 . S
C4356 C4357 1.367 1_554 S
C4356 C4364 1.378 . S
C4357 C4356 1.367 1_556 S
C4357 C4365 1.433 . S
C4358 H4354 0.929 . S
C4358 C4360 1.378 . S
C4358 C4362 1.338 1_556 S
C4359 C4362 1.461 1_556 S
C4359 C4364 1.338 1_556 S
C4359 N4367 1.442 . S
C4360 H4351 0.930 . S
C4360 C4358 1.378 . S
C4360 C4361 1.367 1_556 S
C4361 C4360 1.367 1_554 S
C4361 C4363 1.433 . S
C4362 C4358 1.338 1_554 S
C4362 C4359 1.461 1_554 S
C4362 N4366 1.442 . S
C4363 H4353 0.929 . S
C4363 C4361 1.433 . S
C4363 N4366 1.384 . S
C4364 H4355 0.929 . S
C4364 C4356 1.378 . S
C4364 C4359 1.338 1_554 S
C4365 H4352 0.929 . S
C4365 C4357 1.433 . S
C4365 N4367 1.384 . S
N4366 C4362 1.442 . S
N4366 C4363 1.384 . S
N4367 C4359 1.442 . S
N4367 C4365 1.384 . S
H4368 C4374 0.930 . S
H4369 C4378 0.930 . S
H4370 C4383 0.929 . S
H4371 C4381 0.929 . S
H4372 C4376 0.929 . S
H4373 C4382 0.929 . S
C4374 H4368 0.930 . S
C4374 C4375 1.367 . S
C4374 C4382 1.378 . S
C4375 C4374 1.367 . S
C4375 C4383 1.433 . S
C4376 H4372 0.929 . S
C4376 C4378 1.378 . S
C4376 C4380 1.350 . S
C4377 C4380 1.463 . S
C4377 C4382 1.350 . S
C4377 N4385 1.427 . S
C4378 H4369 0.930 . S
C4378 C4376 1.378 . S
C4378 C4379 1.367 . S
C4379 C4378 1.367 . S
C4379 C4381 1.433 . S
C4380 C4376 1.350 . S
C4380 C4377 1.463 . S
C4380 N4384 1.427 . S
C4381 H4371 0.929 . S
C4381 C4379 1.433 . S
C4381 N4384 1.384 . S
C4382 H4373 0.929 . S
C4382 C4374 1.378 . S
C4382 C4377 1.350 . S
C4383 H4370 0.929 . S
C4383 C4375 1.433 . S
C4383 N4385 1.384 . S
N4384 C4380 1.427 . S
N4384 C4381 1.384 . S
N4385 C4377 1.427 . S
N4385 C4383 1.384 . S
H4386 C4392 0.930 . S
H4387 C4396 0.930 . S
H4388 C4401 0.929 . S
H4389 C4399 0.929 . S
H4390 C4394 0.929 . S
H4391 C4400 0.929 . S
C4392 H4386 0.930 . S
C4392 C4393 1.367 . S
C4392 C4400 1.378 . S
C4393 C4392 1.367 . S
C4393 C4401 1.433 . S
C4394 H4390 0.929 . S
C4394 C4396 1.378 . S
C4394 C4398 1.350 . S
C4395 C4398 1.463 1_545 S
C4395 C4400 1.350 . S
C4395 N4403 1.427 . S
C4396 H4387 0.930 . S
C4396 C4394 1.378 . S
C4396 C4397 1.367 . S
C4397 C4396 1.367 . S
C4397 C4399 1.433 . S
C4398 C4394 1.350 . S
C4398 C4395 1.463 1_565 S
C4398 N4402 1.427 . S
C4399 H4389 0.929 . S
C4399 C4397 1.433 . S
C4399 N4402 1.384 . S
C4400 H4391 0.929 . S
C4400 C4392 1.378 . S
C4400 C4395 1.350 . S
C4401 H4388 0.929 . S
C4401 C4393 1.433 . S
C4401 N4403 1.384 . S
N4402 C4398 1.427 . S
N4402 C4399 1.384 . S
N4403 C4395 1.427 . S
N4403 C4401 1.384 . S
H4404 C4410 0.930 . S
H4405 C4414 0.930 . S
H4406 C4419 0.929 . S
H4407 C4417 0.929 . S
H4408 C4412 0.929 . S
H4409 C4418 0.929 . S
C4410 H4404 0.930 . S
C4410 C4411 1.367 . S
C4410 C4418 1.378 . S
C4411 C4410 1.367 . S
C4411 C4419 1.433 . S
C4412 H4408 0.929 . S
C4412 C4414 1.378 . S
C4412 C4416 1.350 . S
C4413 C4416 1.463 . S
C4413 C4418 1.350 . S
C4413 N4421 1.427 . S
C4414 H4405 0.930 . S
C4414 C4412 1.378 . S
C4414 C4415 1.367 . S
C4415 C4414 1.367 . S
C4415 C4417 1.433 . S
C4416 C4412 1.350 . S
C4416 C4413 1.463 . S
C4416 N4420 1.427 . S
C4417 H4407 0.929 . S
C4417 C4415 1.433 . S
C4417 N4420 1.384 . S
C4418 H4409 0.929 . S
C4418 C4410 1.378 . S
C4418 C4413 1.350 . S
C4419 H4406 0.929 . S
C4419 C4411 1.433 . S
C4419 N4421 1.384 . S
N4420 C4416 1.427 . S
N4420 C4417 1.384 . S
N4421 C4413 1.427 . S
N4421 C4419 1.384 . S
H4422 C4428 0.930 . S
H4423 C4432 0.930 . S
H4424 C4437 0.929 . S
H4425 C4435 0.929 . S
H4426 C4430 0.929 . S
H4427 C4436 0.929 . S
C4428 H4422 0.930 . S
C4428 C4429 1.367 . S
C4428 C4436 1.378 . S
C4429 C4428 1.367 . S
C4429 C4437 1.433 . S
C4430 H4426 0.929 . S
C4430 C4432 1.378 . S
C4430 C4434 1.350 . S
C4431 C4434 1.463 . S
C4431 C4436 1.350 . S
C4431 N4439 1.427 . S
C4432 H4423 0.930 . S
C4432 C4430 1.378 . S
C4432 C4433 1.367 . S
C4433 C4432 1.367 . S
C4433 C4435 1.433 . S
C4434 C4430 1.350 . S
C4434 C4431 1.463 . S
C4434 N4438 1.427 . S
C4435 H4425 0.929 . S
C4435 C4433 1.433 . S
C4435 N4438 1.384 . S
C4436 H4427 0.929 . S
C4436 C4428 1.378 . S
C4436 C4431 1.350 . S
C4437 H4424 0.929 . S
C4437 C4429 1.433 . S
C4437 N4439 1.384 . S
N4438 C4434 1.427 . S
N4438 C4435 1.384 . S
N4439 C4431 1.427 . S
N4439 C4437 1.384 . S
H4440 C4446 0.930 . S
H4441 C4450 0.930 . S
H4442 C4455 0.929 . S
H4443 C4453 0.929 . S
H4444 C4448 0.929 . S
H4445 C4454 0.929 . S
C4446 H4440 0.930 . S
C4446 C4447 1.367 . S
C4446 C4454 1.378 . S
C4447 C4446 1.367 . S
C4447 C4455 1.433 1_655 S
C4448 H4444 0.929 . S
C4448 C4450 1.378 . S
C4448 C4452 1.393 . S
C4449 C4452 1.453 1_654 S
C4449 C4454 1.393 . S
C4449 N4457 1.392 1_655 S
C4450 H4441 0.930 . S
C4450 C4448 1.378 . S
C4450 C4451 1.367 . S
C4451 C4450 1.367 . S
C4451 C4453 1.433 1_455 S
C4452 C4448 1.393 . S
C4452 C4449 1.453 1_456 S
C4452 N4456 1.392 1_455 S
C4453 H4443 0.929 . S
C4453 C4451 1.433 1_655 S
C4453 N4456 1.384 . S
C4454 H4445 0.929 . S
C4454 C4446 1.378 . S
C4454 C4449 1.393 . S
C4455 H4442 0.929 . S
C4455 C4447 1.433 1_455 S
C4455 N4457 1.384 . S
N4456 C4452 1.392 1_655 S
N4456 C4453 1.384 . S
N4457 C4449 1.392 1_455 S
N4457 C4455 1.384 . S
H4458 C4464 0.930 . S
H4459 C4468 0.930 . S
H4460 C4473 0.929 . S
H4461 C4471 0.929 . S
H4462 C4466 0.929 . S
H4463 C4472 0.929 . S
C4464 H4458 0.930 . S
C4464 C4465 1.367 . S
C4464 C4472 1.378 . S
C4465 C4464 1.367 . S
C4465 C4473 1.433 . S
C4466 H4462 0.929 . S
C4466 C4468 1.378 . S
C4466 C4470 1.350 . S
C4467 C4470 1.463 . S
C4467 C4472 1.350 . S
C4467 N4475 1.427 . S
C4468 H4459 0.930 . S
C4468 C4466 1.378 . S
C4468 C4469 1.367 . S
C4469 C4468 1.367 . S
C4469 C4471 1.433 . S
C4470 C4466 1.350 . S
C4470 C4467 1.463 . S
C4470 N4474 1.427 . S
C4471 H4461 0.929 . S
C4471 C4469 1.433 . S
C4471 N4474 1.384 . S
C4472 H4463 0.929 . S
C4472 C4464 1.378 . S
C4472 C4467 1.350 . S
C4473 H4460 0.929 . S
C4473 C4465 1.433 . S
C4473 N4475 1.384 . S
N4474 C4470 1.427 . S
N4474 C4471 1.384 . S
N4475 C4467 1.427 . S
N4475 C4473 1.384 . S
H4476 C4482 0.930 . S
H4477 C4486 0.930 . S
H4478 C4491 0.929 . S
H4479 C4489 0.929 . S
H4480 C4484 0.929 . S
H4481 C4490 0.929 . S
C4482 H4476 0.930 . S
C4482 C4483 1.367 1_455 S
C4482 C4490 1.378 . S
C4483 C4482 1.367 1_655 S
C4483 C4491 1.433 . S
C4484 H4480 0.929 . S
C4484 C4486 1.378 . S
C4484 C4488 1.342 1_655 S
C4485 C4488 1.460 1_655 S
C4485 C4490 1.342 1_655 S
C4485 N4493 1.439 . S
C4486 H4477 0.930 . S
C4486 C4484 1.378 . S
C4486 C4487 1.367 1_655 S
C4487 C4486 1.367 1_455 S
C4487 C4489 1.433 . S
C4488 C4484 1.342 1_455 S
C4488 C4485 1.460 1_455 S
C4488 N4492 1.439 . S
C4489 H4479 0.929 . S
C4489 C4487 1.433 . S
C4489 N4492 1.384 . S
C4490 H4481 0.929 . S
C4490 C4482 1.378 . S
C4490 C4485 1.342 1_455 S
C4491 H4478 0.929 . S
C4491 C4483 1.433 . S
C4491 N4493 1.384 . S
N4492 C4488 1.439 . S
N4492 C4489 1.384 . S
N4493 C4485 1.439 . S
N4493 C4491 1.384 . S
H4494 C4500 0.930 . S
H4495 C4504 0.930 . S
H4496 C4509 0.929 . S
H4497 C4507 0.929 . S
H4498 C4502 0.929 . S
H4499 C4508 0.929 . S
C4500 H4494 0.930 . S
C4500 C4501 1.367 . S
C4500 C4508 1.378 . S
C4501 C4500 1.367 . S
C4501 C4509 1.433 . S
C4502 H4498 0.929 . S
C4502 C4504 1.378 . S
C4502 C4506 1.350 . S
C4503 C4506 1.463 . S
C4503 C4508 1.350 . S
C4503 N4511 1.427 . S
C4504 H4495 0.930 . S
C4504 C4502 1.378 . S
C4504 C4505 1.367 . S
C4505 C4504 1.367 . S
C4505 C4507 1.433 . S
C4506 C4502 1.350 . S
C4506 C4503 1.463 . S
C4506 N4510 1.427 . S
C4507 H4497 0.929 . S
C4507 C4505 1.433 . S
C4507 N4510 1.384 . S
C4508 H4499 0.929 . S
C4508 C4500 1.378 . S
C4508 C4503 1.350 . S
C4509 H4496 0.929 . S
C4509 C4501 1.433 . S
C4509 N4511 1.384 . S
N4510 C4506 1.427 . S
N4510 C4507 1.384 . S
N4511 C4503 1.427 . S
N4511 C4509 1.384 . S
H4512 C4518 0.930 . S
H4513 C4522 0.930 . S
H4514 C4527 0.929 . S
H4515 C4525 0.929 . S
H4516 C4520 0.929 . S
H4517 C4526 0.929 . S
C4518 H4512 0.930 . S
C4518 C4519 1.367 . S
C4518 C4526 1.378 . S
C4519 C4518 1.367 . S
C4519 C4527 1.433 . S
C4520 H4516 0.929 . S
C4520 C4522 1.378 . S
C4520 C4524 1.350 . S
C4521 C4524 1.463 . S
C4521 C4526 1.350 . S
C4521 N4529 1.427 . S
C4522 H4513 0.930 . S
C4522 C4520 1.378 . S
C4522 C4523 1.367 . S
C4523 C4522 1.367 . S
C4523 C4525 1.433 . S
C4524 C4520 1.350 . S
C4524 C4521 1.463 . S
C4524 N4528 1.427 . S
C4525 H4515 0.929 . S
C4525 C4523 1.433 . S
C4525 N4528 1.384 . S
C4526 H4517 0.929 . S
C4526 C4518 1.378 . S
C4526 C4521 1.350 . S
C4527 H4514 0.929 . S
C4527 C4519 1.433 . S
C4527 N4529 1.384 . S
N4528 C4524 1.427 . S
N4528 C4525 1.384 . S
N4529 C4521 1.427 . S
N4529 C4527 1.384 . S
H4530 C4536 0.930 . S
H4531 C4540 0.930 . S
H4532 C4545 0.929 . S
H4533 C4543 0.929 . S
H4534 C4538 0.929 . S
H4535 C4544 0.929 . S
C4536 H4530 0.930 . S
C4536 C4537 1.367 . S
C4536 C4544 1.378 . S
C4537 C4536 1.367 . S
C4537 C4545 1.433 . S
C4538 H4534 0.929 . S
C4538 C4540 1.378 . S
C4538 C4542 1.350 . S
C4539 C4542 1.463 . S
C4539 C4544 1.350 . S
C4539 N4547 1.427 . S
C4540 H4531 0.930 . S
C4540 C4538 1.378 . S
C4540 C4541 1.367 . S
C4541 C4540 1.367 . S
C4541 C4543 1.433 . S
C4542 C4538 1.350 . S
C4542 C4539 1.463 . S
C4542 N4546 1.427 . S
C4543 H4533 0.929 . S
C4543 C4541 1.433 . S
C4543 N4546 1.384 . S
C4544 H4535 0.929 . S
C4544 C4536 1.378 . S
C4544 C4539 1.350 . S
C4545 H4532 0.929 . S
C4545 C4537 1.433 . S
C4545 N4547 1.384 . S
N4546 C4542 1.427 . S
N4546 C4543 1.384 . S
N4547 C4539 1.427 . S
N4547 C4545 1.384 . S
H4548 C4554 0.930 . S
H4549 C4558 0.930 . S
H4550 C4563 0.929 . S
H4551 C4561 0.929 . S
H4552 C4556 0.929 . S
H4553 C4562 0.929 . S
C4554 H4548 0.930 . S
C4554 C4555 1.367 . S
C4554 C4562 1.378 . S
C4555 C4554 1.367 . S
C4555 C4563 1.433 . S
C4556 H4552 0.929 . S
C4556 C4558 1.378 . S
C4556 C4560 1.350 . S
C4557 C4560 1.463 . S
C4557 C4562 1.350 . S
C4557 N4565 1.427 . S
C4558 H4549 0.930 . S
C4558 C4556 1.378 . S
C4558 C4559 1.367 . S
C4559 C4558 1.367 . S
C4559 C4561 1.433 . S
C4560 C4556 1.350 . S
C4560 C4557 1.463 . S
C4560 N4564 1.427 . S
C4561 H4551 0.929 . S
C4561 C4559 1.433 . S
C4561 N4564 1.384 . S
C4562 H4553 0.929 . S
C4562 C4554 1.378 . S
C4562 C4557 1.350 . S
C4563 H4550 0.929 . S
C4563 C4555 1.433 . S
C4563 N4565 1.384 . S
N4564 C4560 1.427 . S
N4564 C4561 1.384 . S
N4565 C4557 1.427 . S
N4565 C4563 1.384 . S
H4566 C4572 0.929 . S
H4567 C4576 0.929 . S
H4568 C4581 0.929 . S
H4569 C4579 0.929 . S
H4570 C4574 0.932 . S
H4571 C4580 0.932 . S
C4572 H4566 0.929 . S
C4572 C4573 1.379 . S
C4572 C4580 1.373 1_565 S
C4573 C4572 1.379 . S
C4573 C4581 1.433 . S
C4574 H4570 0.932 . S
C4574 C4576 1.373 1_565 S
C4574 C4578 1.347 1_565 S
C4575 C4578 1.459 1_565 S
C4575 C4580 1.347 1_565 S
C4575 N4583 1.434 . S
C4576 H4567 0.929 . S
C4576 C4574 1.373 1_545 S
C4576 C4577 1.379 . S
C4577 C4576 1.379 . S
C4577 C4579 1.433 . S
C4578 C4574 1.347 1_545 S
C4578 C4575 1.459 1_545 S
C4578 N4582 1.434 . S
C4579 H4569 0.929 . S
C4579 C4577 1.433 . S
C4579 N4582 1.384 . S
C4580 H4571 0.932 . S
C4580 C4572 1.373 1_545 S
C4580 C4575 1.347 1_545 S
C4581 H4568 0.929 . S
C4581 C4573 1.433 . S
C4581 N4583 1.384 . S
N4582 C4578 1.434 . S
N4582 C4579 1.384 . S
N4583 C4575 1.434 . S
N4583 C4581 1.384 . S
H4584 C4590 0.930 . S
H4585 C4594 0.930 . S
H4586 C4599 0.929 . S
H4587 C4597 0.929 . S
H4588 C4592 0.929 . S
H4589 C4598 0.929 . S
C4590 H4584 0.930 . S
C4590 C4591 1.367 . S
C4590 C4598 1.378 . S
C4591 C4590 1.367 . S
C4591 C4599 1.433 . S
C4592 H4588 0.929 . S
C4592 C4594 1.378 . S
C4592 C4596 1.350 . S
C4593 C4596 1.463 . S
C4593 C4598 1.350 . S
C4593 N4601 1.427 . S
C4594 H4585 0.930 . S
C4594 C4592 1.378 . S
C4594 C4595 1.367 . S
C4595 C4594 1.367 . S
C4595 C4597 1.433 . S
C4596 C4592 1.350 . S
C4596 C4593 1.463 . S
C4596 N4600 1.427 . S
C4597 H4587 0.929 . S
C4597 C4595 1.433 . S
C4597 N4600 1.384 . S
C4598 H4589 0.929 . S
C4598 C4590 1.378 . S
C4598 C4593 1.350 . S
C4599 H4586 0.929 . S
C4599 C4591 1.433 . S
C4599 N4601 1.384 . S
N4600 C4596 1.427 . S
N4600 C4597 1.384 . S
N4601 C4593 1.427 . S
N4601 C4599 1.384 . S
H4602 C4608 0.930 . S
H4603 C4612 0.930 . S
H4604 C4617 0.929 . S
H4605 C4615 0.929 . S
H4606 C4610 0.929 . S
H4607 C4616 0.929 . S
C4608 H4602 0.930 . S
C4608 C4609 1.367 1_545 S
C4608 C4616 1.378 . S
C4609 C4608 1.367 1_565 S
C4609 C4617 1.433 . S
C4610 H4606 0.929 . S
C4610 C4612 1.378 . S
C4610 C4614 1.340 1_565 S
C4611 C4614 1.462 1_565 S
C4611 C4616 1.340 1_565 S
C4611 N4619 1.438 . S
C4612 H4603 0.930 . S
C4612 C4610 1.378 . S
C4612 C4613 1.367 1_565 S
C4613 C4612 1.367 1_545 S
C4613 C4615 1.433 . S
C4614 C4610 1.340 1_545 S
C4614 C4611 1.462 1_545 S
C4614 N4618 1.438 . S
C4615 H4605 0.929 . S
C4615 C4613 1.433 . S
C4615 N4618 1.384 . S
C4616 H4607 0.929 . S
C4616 C4608 1.378 . S
C4616 C4611 1.340 1_545 S
C4617 H4604 0.929 . S
C4617 C4609 1.433 . S
C4617 N4619 1.384 . S
N4618 C4614 1.438 . S
N4618 C4615 1.384 . S
N4619 C4611 1.438 . S
N4619 C4617 1.384 . S
H4620 C4626 0.930 . S
H4621 C4630 0.930 . S
H4622 C4635 0.929 . S
H4623 C4633 0.929 . S
H4624 C4628 0.929 . S
H4625 C4634 0.929 . S
C4626 H4620 0.930 . S
C4626 C4627 1.367 1_554 S
C4626 C4634 1.378 . S
C4627 C4626 1.367 1_556 S
C4627 C4635 1.433 . S
C4628 H4624 0.929 . S
C4628 C4630 1.378 . S
C4628 C4632 1.339 1_556 S
C4629 C4632 1.460 1_566 S
C4629 C4634 1.339 1_556 S
C4629 N4637 1.441 . S
C4630 H4621 0.930 . S
C4630 C4628 1.378 . S
C4630 C4631 1.367 1_556 S
C4631 C4630 1.367 1_554 S
C4631 C4633 1.433 . S
C4632 C4628 1.339 1_554 S
C4632 C4629 1.460 1_544 S
C4632 N4636 1.441 . S
C4633 H4623 0.929 . S
C4633 C4631 1.433 . S
C4633 N4636 1.384 . S
C4634 H4625 0.929 . S
C4634 C4626 1.378 . S
C4634 C4629 1.339 1_554 S
C4635 H4622 0.929 . S
C4635 C4627 1.433 . S
C4635 N4637 1.384 . S
N4636 C4632 1.441 . S
N4636 C4633 1.384 . S
N4637 C4629 1.441 . S
N4637 C4635 1.384 . S
H4638 C4644 0.930 . S
H4639 C4648 0.930 . S
H4640 C4653 0.929 . S
H4641 C4651 0.929 . S
H4642 C4646 0.929 . S
H4643 C4652 0.929 . S
C4644 H4638 0.930 . S
C4644 C4645 1.367 . S
C4644 C4652 1.378 . S
C4645 C4644 1.367 . S
C4645 C4653 1.433 . S
C4646 H4642 0.929 . S
C4646 C4648 1.378 . S
C4646 C4650 1.350 . S
C4647 C4650 1.463 . S
C4647 C4652 1.350 . S
C4647 N4655 1.427 . S
C4648 H4639 0.930 . S
C4648 C4646 1.378 . S
C4648 C4649 1.367 . S
C4649 C4648 1.367 . S
C4649 C4651 1.433 . S
C4650 C4646 1.350 . S
C4650 C4647 1.463 . S
C4650 N4654 1.427 . S
C4651 H4641 0.929 . S
C4651 C4649 1.433 . S
C4651 N4654 1.384 . S
C4652 H4643 0.929 . S
C4652 C4644 1.378 . S
C4652 C4647 1.350 . S
C4653 H4640 0.929 . S
C4653 C4645 1.433 . S
C4653 N4655 1.384 . S
N4654 C4650 1.427 . S
N4654 C4651 1.384 . S
N4655 C4647 1.427 . S
N4655 C4653 1.384 . S
H4656 C4662 0.930 . S
H4657 C4666 0.930 . S
H4658 C4671 0.929 . S
H4659 C4669 0.929 . S
H4660 C4664 0.929 . S
H4661 C4670 0.929 . S
C4662 H4656 0.930 . S
C4662 C4663 1.367 . S
C4662 C4670 1.378 . S
C4663 C4662 1.367 . S
C4663 C4671 1.433 . S
C4664 H4660 0.929 . S
C4664 C4666 1.378 . S
C4664 C4668 1.350 . S
C4665 C4668 1.463 . S
C4665 C4670 1.350 . S
C4665 N4673 1.427 . S
C4666 H4657 0.930 . S
C4666 C4664 1.378 . S
C4666 C4667 1.367 . S
C4667 C4666 1.367 . S
C4667 C4669 1.433 . S
C4668 C4664 1.350 . S
C4668 C4665 1.463 . S
C4668 N4672 1.427 . S
C4669 H4659 0.929 . S
C4669 C4667 1.433 . S
C4669 N4672 1.384 . S
C4670 H4661 0.929 . S
C4670 C4662 1.378 . S
C4670 C4665 1.350 . S
C4671 H4658 0.929 . S
C4671 C4663 1.433 . S
C4671 N4673 1.384 . S
N4672 C4668 1.427 . S
N4672 C4669 1.384 . S
N4673 C4665 1.427 . S
N4673 C4671 1.384 . S
H4674 C4680 0.930 . S
H4675 C4684 0.930 . S
H4676 C4689 0.929 . S
H4677 C4687 0.929 . S
H4678 C4682 0.929 . S
H4679 C4688 0.929 . S
C4680 H4674 0.930 . S
C4680 C4681 1.367 . S
C4680 C4688 1.378 . S
C4681 C4680 1.367 . S
C4681 C4689 1.433 . S
C4682 H4678 0.929 . S
C4682 C4684 1.378 . S
C4682 C4686 1.350 . S
C4683 C4686 1.463 . S
C4683 C4688 1.350 . S
C4683 N4691 1.427 . S
C4684 H4675 0.930 . S
C4684 C4682 1.378 . S
C4684 C4685 1.367 . S
C4685 C4684 1.367 . S
C4685 C4687 1.433 . S
C4686 C4682 1.350 . S
C4686 C4683 1.463 . S
C4686 N4690 1.427 . S
C4687 H4677 0.929 . S
C4687 C4685 1.433 . S
C4687 N4690 1.384 . S
C4688 H4679 0.929 . S
C4688 C4680 1.378 . S
C4688 C4683 1.350 . S
C4689 H4676 0.929 . S
C4689 C4681 1.433 . S
C4689 N4691 1.384 . S
N4690 C4686 1.427 . S
N4690 C4687 1.384 . S
N4691 C4683 1.427 . S
N4691 C4689 1.384 . S
H4692 C4698 0.930 . S
H4693 C4702 0.930 . S
H4694 C4707 0.929 . S
H4695 C4705 0.929 . S
H4696 C4700 0.929 . S
H4697 C4706 0.929 . S
C4698 H4692 0.930 . S
C4698 C4699 1.367 . S
C4698 C4706 1.378 . S
C4699 C4698 1.367 . S
C4699 C4707 1.433 . S
C4700 H4696 0.929 . S
C4700 C4702 1.378 . S
C4700 C4704 1.350 . S
C4701 C4704 1.463 . S
C4701 C4706 1.350 . S
C4701 N4709 1.427 . S
C4702 H4693 0.930 . S
C4702 C4700 1.378 . S
C4702 C4703 1.367 . S
C4703 C4702 1.367 . S
C4703 C4705 1.433 . S
C4704 C4700 1.350 . S
C4704 C4701 1.463 . S
C4704 N4708 1.427 . S
C4705 H4695 0.929 . S
C4705 C4703 1.433 . S
C4705 N4708 1.384 . S
C4706 H4697 0.929 . S
C4706 C4698 1.378 . S
C4706 C4701 1.350 . S
C4707 H4694 0.929 . S
C4707 C4699 1.433 . S
C4707 N4709 1.384 . S
N4708 C4704 1.427 . S
N4708 C4705 1.384 . S
N4709 C4701 1.427 . S
N4709 C4707 1.384 . S
H4710 C4716 0.930 . S
H4711 C4720 0.930 . S
H4712 C4725 0.929 . S
H4713 C4723 0.929 . S
H4714 C4718 0.929 . S
H4715 C4724 0.929 . S
C4716 H4710 0.930 . S
C4716 C4717 1.367 . S
C4716 C4724 1.378 . S
C4717 C4716 1.367 . S
C4717 C4725 1.433 . S
C4718 H4714 0.929 . S
C4718 C4720 1.378 . S
C4718 C4722 1.350 . S
C4719 C4722 1.463 . S
C4719 C4724 1.350 . S
C4719 N4727 1.427 . S
C4720 H4711 0.930 . S
C4720 C4718 1.378 . S
C4720 C4721 1.367 . S
C4721 C4720 1.367 . S
C4721 C4723 1.433 . S
C4722 C4718 1.350 . S
C4722 C4719 1.463 . S
C4722 N4726 1.427 . S
C4723 H4713 0.929 . S
C4723 C4721 1.433 . S
C4723 N4726 1.384 . S
C4724 H4715 0.929 . S
C4724 C4716 1.378 . S
C4724 C4719 1.350 . S
C4725 H4712 0.929 . S
C4725 C4717 1.433 . S
C4725 N4727 1.384 . S
N4726 C4722 1.427 . S
N4726 C4723 1.384 . S
N4727 C4719 1.427 . S
N4727 C4725 1.384 . S
H4728 C4734 0.930 . S
H4729 C4738 0.930 . S
H4730 C4743 0.929 . S
H4731 C4741 0.929 . S
H4732 C4736 0.929 . S
H4733 C4742 0.929 . S
C4734 H4728 0.930 . S
C4734 C4735 1.367 . S
C4734 C4742 1.378 . S
C4735 C4734 1.367 . S
C4735 C4743 1.433 . S
C4736 H4732 0.929 . S
C4736 C4738 1.378 . S
C4736 C4740 1.350 . S
C4737 C4740 1.463 . S
C4737 C4742 1.350 . S
C4737 N4745 1.427 . S
C4738 H4729 0.930 . S
C4738 C4736 1.378 . S
C4738 C4739 1.367 . S
C4739 C4738 1.367 . S
C4739 C4741 1.433 . S
C4740 C4736 1.350 . S
C4740 C4737 1.463 . S
C4740 N4744 1.427 . S
C4741 H4731 0.929 . S
C4741 C4739 1.433 . S
C4741 N4744 1.384 . S
C4742 H4733 0.929 . S
C4742 C4734 1.378 . S
C4742 C4737 1.350 . S
C4743 H4730 0.929 . S
C4743 C4735 1.433 . S
C4743 N4745 1.384 . S
N4744 C4740 1.427 . S
N4744 C4741 1.384 . S
N4745 C4737 1.427 . S
N4745 C4743 1.384 . S
H4746 C4752 0.930 . S
H4747 C4756 0.930 . S
H4748 C4761 0.929 . S
H4749 C4759 0.929 . S
H4750 C4754 0.929 . S
H4751 C4760 0.929 . S
C4752 H4746 0.930 . S
C4752 C4753 1.367 1_556 S
C4752 C4760 1.378 . S
C4753 C4752 1.367 1_554 S
C4753 C4761 1.433 . S
C4754 H4750 0.929 . S
C4754 C4756 1.378 . S
C4754 C4758 1.343 1_554 S
C4755 C4758 1.459 1_564 S
C4755 C4760 1.343 1_554 S
C4755 N4763 1.438 . S
C4756 H4747 0.930 . S
C4756 C4754 1.378 . S
C4756 C4757 1.367 1_554 S
C4757 C4756 1.367 1_556 S
C4757 C4759 1.433 . S
C4758 C4754 1.343 1_556 S
C4758 C4755 1.459 1_546 S
C4758 N4762 1.438 . S
C4759 H4749 0.929 . S
C4759 C4757 1.433 . S
C4759 N4762 1.384 . S
C4760 H4751 0.929 . S
C4760 C4752 1.378 . S
C4760 C4755 1.343 1_556 S
C4761 H4748 0.929 . S
C4761 C4753 1.433 . S
C4761 N4763 1.384 . S
N4762 C4758 1.438 . S
N4762 C4759 1.384 . S
N4763 C4755 1.438 . S
N4763 C4761 1.384 . S
H4764 C4770 0.930 . S
H4765 C4774 0.930 . S
H4766 C4779 0.929 . S
H4767 C4777 0.929 . S
H4768 C4772 0.929 . S
H4769 C4778 0.929 . S
C4770 H4764 0.930 . S
C4770 C4771 1.367 . S
C4770 C4778 1.378 . S
C4771 C4770 1.367 . S
C4771 C4779 1.433 . S
C4772 H4768 0.929 . S
C4772 C4774 1.378 . S
C4772 C4776 1.350 . S
C4773 C4776 1.463 . S
C4773 C4778 1.350 . S
C4773 N4781 1.427 . S
C4774 H4765 0.930 . S
C4774 C4772 1.378 . S
C4774 C4775 1.367 . S
C4775 C4774 1.367 . S
C4775 C4777 1.433 . S
C4776 C4772 1.350 . S
C4776 C4773 1.463 . S
C4776 N4780 1.427 . S
C4777 H4767 0.929 . S
C4777 C4775 1.433 . S
C4777 N4780 1.384 . S
C4778 H4769 0.929 . S
C4778 C4770 1.378 . S
C4778 C4773 1.350 . S
C4779 H4766 0.929 . S
C4779 C4771 1.433 . S
C4779 N4781 1.384 . S
N4780 C4776 1.427 . S
N4780 C4777 1.384 . S
N4781 C4773 1.427 . S
N4781 C4779 1.384 . S
H4782 C4788 0.930 . S
H4783 C4792 0.930 . S
H4784 C4797 0.929 . S
H4785 C4795 0.929 . S
H4786 C4790 0.929 . S
H4787 C4796 0.929 . S
C4788 H4782 0.930 . S
C4788 C4789 1.367 . S
C4788 C4796 1.378 . S
C4789 C4788 1.367 . S
C4789 C4797 1.433 . S
C4790 H4786 0.929 . S
C4790 C4792 1.378 . S
C4790 C4794 1.350 . S
C4791 C4794 1.463 . S
C4791 C4796 1.350 . S
C4791 N4799 1.427 . S
C4792 H4783 0.930 . S
C4792 C4790 1.378 . S
C4792 C4793 1.367 . S
C4793 C4792 1.367 . S
C4793 C4795 1.433 . S
C4794 C4790 1.350 . S
C4794 C4791 1.463 . S
C4794 N4798 1.427 . S
C4795 H4785 0.929 . S
C4795 C4793 1.433 . S
C4795 N4798 1.384 . S
C4796 H4787 0.929 . S
C4796 C4788 1.378 . S
C4796 C4791 1.350 . S
C4797 H4784 0.929 . S
C4797 C4789 1.433 . S
C4797 N4799 1.384 . S
N4798 C4794 1.427 . S
N4798 C4795 1.384 . S
N4799 C4791 1.427 . S
N4799 C4797 1.384 . S
C1351 C9 1.164 . S
C1355 C455 1.182 . S
C1369 C805 1.198 . S
C1373 C23 1.152 . S
C1387 C483 1.196 . S
C1391 C37 1.146 . S
C1405 C51 1.144 . S
C1409 C833 1.199 . S
C1423 C65 1.149 . S
C1427 C511 1.199 . S
C1441 C79 1.167 . S
C1445 C861 1.185 . S
C1459 C93 1.146 . S
C1463 C539 1.200 . S
C1477 C107 1.161 . S
C1481 C889 1.191 . S
C1495 C903 1.198 . S
C1499 C121 1.144 . S
C1513 C1001 1.187 . S
C1517 C135 1.166 . S
C1531 C149 1.168 . S
C1535 C1309 1.184 . S
C1549 C163 1.169 . S
C1553 C987 1.182 . S
C1567 C245 1.189 . S
C1571 C177 1.163 . S
C1585 C191 1.165 . S
C1589 C259 1.182 . S
C1603 C205 1.146 . S
C1607 C273 1.200 . S
C1621 C1295 1.199 . S
C1625 C219 1.144 . S
C1639 C1015 1.183 . S
C1643 C233 1.163 . S
C1657 C247 1.162 . S
C1661 C399 1.183 . S
C1675 C749 1.187 . S
C1679 C261 1.156 . S
C1693 C275 1.160 . S
C1697 C427 1.192 . S
C1711 C441 1.188 . S
C1715 C289 1.164 . S
C1729 C707 1.196 . S
C1733 C303 1.154 . S
C1747 C49 1.181 . S
C1751 C317 1.167 . S
C1765 C21 1.190 . S
C1769 C331 1.162 . S
C1783 C345 1.147 . S
C1787 C119 1.195 . S
C1801 C1141 1.197 . S
C1805 C359 1.145 . S
C1819 C147 1.196 . S
C1823 C373 1.145 . S
C1837 C387 1.154 . S
C1841 C1169 1.196 . S
C1855 C401 1.148 . S
C1859 C175 1.199 . S
C1873 C1197 1.185 . S
C1877 C415 1.167 . S
C1891 C429 1.151 . S
C1895 C203 1.198 . S
C1909 C1225 1.184 . S
C1913 C443 1.168 . S
C1927 C1239 1.183 . S
C1931 C457 1.168 . S
C1945 C471 1.158 . S
C1949 C1337 1.194 . S
C1963 C973 1.183 . S
C1967 C485 1.162 . S
C1981 C1323 1.196 . S
C1985 C499 1.146 . S
C1999 C513 1.145 . S
C2003 C581 1.200 . S
C2017 C595 1.181 . S
C2021 C527 1.166 . S
C2035 C609 1.195 . S
C2039 C541 1.146 . S
C2053 C555 1.167 . S
C2057 C959 1.181 . S
C2071 C679 1.195 . S
C2075 C569 1.146 . S
C2089 C583 1.152 . S
C2093 C63 1.190 . S
C2107 C1085 1.200 . S
C2111 C597 1.145 . S
C2125 C91 1.197 . S
C2129 C611 1.152 . S
C2143 C625 1.150 . S
C2147 C105 1.192 . S
C2161 C1043 1.185 . S
C2165 C639 1.167 . S
C2179 C385 1.187 . S
C2183 C653 1.156 . S
C2197 C357 1.191 . S
C2201 C667 1.151 . S
C2215 C1127 1.199 . S
C2219 C681 1.144 . S
C2233 C133 1.182 . S
C2237 C695 1.169 . S
C2251 C1155 1.199 . S
C2255 C709 1.144 . S
C2269 C723 1.144 . S
C2273 C161 1.199 . S
C2287 C1183 1.198 . S
C2291 C737 1.144 . S
C2305 C751 1.144 . S
C2309 C189 1.199 . S
C2323 C765 1.164 . S
C2327 C1211 1.182 . S
C2341 C779 1.144 . S
C2345 C217 1.199 . S
C2359 C231 1.197 . S
C2363 C793 1.153 . S
C2377 C807 1.156 . S
C2381 C329 1.195 . S
C2395 C821 1.145 . S
C2399 C637 1.200 . S
C2413 C315 1.199 . S
C2417 C835 1.149 . S
C2431 C849 1.149 . S
C2435 C917 1.192 . S
C2449 C931 1.184 . S
C2453 C863 1.168 . S
C2467 C945 1.182 . S
C2471 C877 1.169 . S
C2485 C891 1.151 . S
C2489 C623 1.190 . S
C2503 C905 1.168 . S
C2507 C343 1.184 . S
C2521 C1071 1.190 . S
C2525 C919 1.162 . S
C2539 C933 1.168 . S
C2543 C77 1.181 . S
C2557 C947 1.160 . S
C2561 C1099 1.191 . S
C2575 C1113 1.196 . S
C2579 C961 1.146 . S
C2593 C35 1.186 . S
C2597 C975 1.166 . S
C2611 C989 1.159 . S
C2615 C721 1.193 . S
C2629 C1003 1.147 . S
C2633 C693 1.200 . S
C2647 C791 1.200 . S
C2651 C1017 1.145 . S
C2665 C469 1.189 . S
C2669 C1031 1.153 . S
C2683 C819 1.199 . S
C2687 C1045 1.144 . S
C2701 C1059 1.146 . S
C2705 C497 1.195 . S
C2719 C1073 1.161 . S
C2723 C847 1.184 . S
C2737 C525 1.200 . S
C2741 C1087 1.145 . S
C2755 C875 1.200 . S
C2759 C1101 1.147 . S
C2773 C553 1.181 . S
C2777 C1115 1.168 . S
C2791 C1129 1.150 . S
C2795 C567 1.192 . S
C2809 C665 1.199 . S
C2813 C1143 1.144 . S
C2827 C301 1.191 . S
C2831 C1157 1.151 . S
C2845 C1171 1.149 . S
C2849 C651 1.199 . S
C2863 C1253 1.194 . S
C2867 C1185 1.148 . S
C2881 C1267 1.183 . S
C2885 C1199 1.168 . S
C2899 C1213 1.165 . S
C2903 C1281 1.188 . S
C2917 C1227 1.167 . S
C2921 C287 1.181 . S
C2935 C7 1.182 . S
C2939 C1241 1.165 . S
C2953 C735 1.191 . S
C2957 C1255 1.161 . S
C2971 C1269 1.149 . S
C2975 C413 1.199 . S
C2989 C1283 1.165 . S
C2993 C763 1.187 . S
C3007 C777 1.193 . S
C3011 C1297 1.158 . S
C3025 C371 1.191 . S
C3029 C1311 1.161 . S
C3043 C1057 1.181 . S
C3047 C1325 1.169 . S
C3061 C1029 1.196 . S
C3065 C1339 1.146 . S
C3079 C1221 1.179 . S
C3083 C3 1.189 . S
C3097 C17 1.191 . S
C3101 C1179 1.177 . S
C3115 C31 1.188 . S
C3119 C1193 1.180 . S
C3133 C45 1.189 . S
C3137 C1207 1.178 . S
C3151 C129 1.176 . S
C3155 C59 1.192 . S
C3169 C73 1.192 . S
C3173 C143 1.176 . S
C3187 C87 1.179 . S
C3191 C157 1.189 . S
C3205 C101 1.176 . S
C3209 C115 1.192 . S
C3223 C171 1.189 . S
C3227 C1025 1.180 . S
C3241 C185 1.184 . S
C3245 C1039 1.184 . S
C3259 C199 1.184 . S
C3263 C1053 1.184 . S
C3277 C1011 1.177 . S
C3281 C213 1.191 . S
C3295 C1291 1.185 . S
C3299 C227 1.183 . S
C3313 C241 1.191 . S
C3317 C1333 1.177 . S
C3331 C255 1.181 . S
C3335 C633 1.187 . S
C3349 C1319 1.176 . S
C3353 C269 1.192 . S
C3367 C283 1.178 . S
C3371 C1235 1.190 . S
C3385 C297 1.191 . S
C3389 C591 1.177 . S
C3403 C311 1.189 . S
C3407 C1277 1.179 . S
C3421 C325 1.176 . S
C3425 C1249 1.192 . S
C3439 C885 1.192 . S
C3443 C339 1.176 . S
C3457 C353 1.191 . S
C3461 C843 1.177 . S
C3475 C857 1.184 . S
C3479 C367 1.184 . S
C3493 C381 1.192 . S
C3497 C871 1.176 . S
C3511 C395 1.185 . S
C3515 C465 1.183 . S
C3529 C409 1.179 . S
C3533 C479 1.189 . S
C3547 C493 1.192 . S
C3551 C423 1.176 . S
C3565 C437 1.181 . S
C3569 C451 1.187 . S
C3583 C689 1.192 . S
C3587 C507 1.176 . S
C3601 C703 1.192 . S
C3605 C521 1.177 . S
C3619 C717 1.188 . S
C3623 C535 1.180 . S
C3637 C675 1.181 . S
C3641 C549 1.188 . S
C3655 C563 1.176 . S
C3659 C955 1.192 . S
C3673 C577 1.176 . S
C3677 C997 1.192 . S
C3691 C983 1.178 . S
C3695 C605 1.190 . S
C3709 C619 1.182 . S
C3713 C899 1.186 . S
C3727 C647 1.191 . S
C3731 C941 1.178 . S
C3745 C661 1.179 . S
C3749 C913 1.188 . S
C3763 C731 1.177 . S
C3767 C801 1.192 . S
C3781 C745 1.182 . S
C3785 C815 1.186 . S
C3799 C759 1.177 . S
C3803 C829 1.191 . S
C3817 C773 1.188 . S
C3821 C787 1.180 . S
C3835 C1305 1.192 . S
C3839 C927 1.176 . S
C3853 C1263 1.179 . S
C3857 C969 1.189 . S
C3871 C1067 1.186 . S
C3875 C1137 1.183 . S
C3889 C1081 1.177 . S
C3893 C1151 1.192 . S
C3907 C1165 1.192 . S
C3911 C1095 1.176 . S
C3925 C1109 1.182 . S
C3929 C1123 1.186 . S
C3943 C372 1.509 . S
C3947 C8 1.501 . S
C3961 C22 1.507 . S
C3965 C722 1.515 . S
C3979 C36 1.501 . S
C3983 C344 1.503 . S
C3997 C694 1.502 . S
C4001 C50 1.501 . S
C4015 C64 1.505 . S
C4019 C428 1.513 . S
C4033 C78 1.506 . S
C4037 C778 1.514 . S
C4051 C92 1.503 . S
C4055 C400 1.512 . S
C4069 C106 1.506 . S
C4073 C750 1.514 . S
C4087 C120 1.512 . S
C4091 C176 1.515 . S
C4105 C190 1.512 . S
C4109 C134 1.503 . S
C4123 C148 1.501 . S
C4127 C204 1.501 . S
C4141 C162 1.515 . S
C4145 C218 1.512 . S
C4159 C232 1.507 . S
C4163 C1282 1.515 . S
C4177 C974 1.506 . S
C4181 C246 1.500 . S
C4195 C316 1.502 . S
C4199 C260 1.510 . S
C4213 C1240 1.503 . S
C4217 C274 1.501 . S
C4231 C1338 1.515 . S
C4235 C288 1.514 . S
C4249 C302 1.510 . S
C4253 C918 1.515 . S
C4267 C1296 1.500 . S
C4271 C330 1.505 . S
C4285 C358 1.500 . S
C4289 C1058 1.504 . S
C4303 C1030 1.506 . S
C4307 C386 1.514 . S
C4321 C414 1.506 . S
C4325 C1114 1.514 . S
C4339 C442 1.504 . S
C4343 C1086 1.513 . S
C4357 C512 1.515 . S
C4361 C456 1.509 . S
C4375 C526 1.509 . S
C4379 C470 1.501 . S
C4393 C540 1.508 . S
C4397 C484 1.501 . S
C4411 C554 1.504 . S
C4415 C498 1.500 . S
C4429 C946 1.501 . S
C4433 C568 1.508 . S
C4447 C1310 1.501 . S
C4451 C582 1.508 . S
C4465 C596 1.516 . S
C4469 C652 1.510 . S
C4483 C610 1.506 . S
C4487 C904 1.514 . S
C4501 C624 1.515 . S
C4505 C1002 1.510 . S
C4519 C638 1.508 . S
C4523 C1254 1.501 . S
C4537 C666 1.500 . S
C4541 C960 1.505 . S
C4555 C1044 1.502 . S
C4559 C680 1.510 . S
C4573 C708 1.513 . S
C4577 C1016 1.504 . S
C4591 C1100 1.506 . S
C4595 C736 1.514 . S
C4609 C1072 1.516 . S
C4613 C764 1.512 . S
C4627 C848 1.515 . S
C4631 C792 1.507 . S
C4645 C806 1.507 . S
C4649 C862 1.515 . S
C4663 C820 1.504 . S
C4667 C876 1.500 . S
C4681 C890 1.506 . S
C4685 C834 1.514 . S
C4699 C988 1.500 . S
C4703 C932 1.504 . S
C4717 C1128 1.500 . S
C4721 C1184 1.506 . S
C4735 C1142 1.504 . S
C4739 C1198 1.500 . S
C4753 C1156 1.514 . S
C4757 C1212 1.506 . S
C4771 C1226 1.508 . S
C4775 C1170 1.515 . S
C4789 C1324 1.500 . S
C4793 C1268 1.504 . S
