# Generated by pormake.
# Topology dia, (4)-cn, num edge types: 1
# Building blocks:
#     Node 0, Type 0, BuildingBlock: ICAMEG_clean_sbu_1, # of connection points: 4
#     Node 1, Type 0, BuildingBlock: ICAMEG_clean_sbu_1, # of connection points: 4
#     Node 2, Type 0, BuildingBlock: ICAMEG_clean_sbu_1, # of connection points: 4
#     Node 3, Type 0, BuildingBlock: ICAMEG_clean_sbu_1, # of connection points: 4
#     Node 4, Type 0, BuildingBlock: ICAMEG_clean_sbu_1, # of connection points: 4
#     Node 5, Type 0, BuildingBlock: ICAMEG_clean_sbu_1, # of connection points: 4
#     Node 6, Type 0, BuildingBlock: ICAMEG_clean_sbu_1, # of connection points: 4
#     Node 7, Type 0, BuildingBlock: ICAMEG_clean_sbu_1, # of connection points: 4
#     Edge 8, Type (0, 0), BuildingBlock: EYOCIG_clean_linker_4, # of connection points: 2
#     Edge 9, Type (0, 0), BuildingBlock: EYOCIG_clean_linker_4, # of connection points: 2
#     Edge 10, Type (0, 0), BuildingBlock: EYOCIG_clean_linker_4, # of connection points: 2
#     Edge 11, Type (0, 0), BuildingBlock: EYOCIG_clean_linker_4, # of connection points: 2
#     Edge 12, Type (0, 0), BuildingBlock: EYOCIG_clean_linker_4, # of connection points: 2
#     Edge 13, Type (0, 0), BuildingBlock: EYOCIG_clean_linker_4, # of connection points: 2
#     Edge 14, Type (0, 0), BuildingBlock: EYOCIG_clean_linker_4, # of connection points: 2
#     Edge 15, Type (0, 0), BuildingBlock: EYOCIG_clean_linker_4, # of connection points: 2
#     Edge 16, Type (0, 0), BuildingBlock: EYOCIG_clean_linker_4, # of connection points: 2
#     Edge 17, Type (0, 0), BuildingBlock: EYOCIG_clean_linker_4, # of connection points: 2
#     Edge 18, Type (0, 0), BuildingBlock: EYOCIG_clean_linker_4, # of connection points: 2
#     Edge 19, Type (0, 0), BuildingBlock: EYOCIG_clean_linker_4, # of connection points: 2
#     Edge 20, Type (0, 0), BuildingBlock: EYOCIG_clean_linker_4, # of connection points: 2
#     Edge 21, Type (0, 0), BuildingBlock: EYOCIG_clean_linker_4, # of connection points: 2
#     Edge 22, Type (0, 0), BuildingBlock: EYOCIG_clean_linker_4, # of connection points: 2
#     Edge 23, Type (0, 0), BuildingBlock: EYOCIG_clean_linker_4, # of connection points: 2
# Relax obj value: 0.180
# Max RMSD: 0.228
# Mean RMSD: 0.228
data_MOF--net-dia--node1-ICAMEG_clean_sbu_1--edge1-EYOCIG_clean_linker_4
_symmetry_space_group_name_H-M    P1
_symmetry_Int_Tables_number       1
_symmetry_cell_setting            triclinic
loop_
_symmetry_equiv_pos_as_xyz
'x, y, z'
_cell_length_a     26.140197
_cell_length_b     26.141407
_cell_length_c     33.204444
_cell_angle_alpha  89.663199
_cell_angle_beta   89.653182
_cell_angle_gamma 103.24232
loop_
_atom_site_label
_atom_site_type_symbol
_atom_site_fract_x
_atom_site_fract_y
_atom_site_fract_z
_atom_type_partial_charge
Co0 Co 0.2066 0.11688 0.64074 0.0
Co1 Co 0.08738 0.15124 0.6434 0.0
O2 O 0.1476 0.13365 0.67068 0.0
C3 C 0.18004 0.02842 0.7004 0.0
O4 O 0.13054 0.02022 0.68994 0.0
C5 C 0.11609 0.23825 0.70313 0.0
O6 O 0.16519 0.24698 0.691 0.0
O7 O 0.13558 0.20833 0.6123 0.0
O8 O 0.20173 0.16958 0.59743 0.0
H9 H 0.98837 0.19494 0.52359 0.0
H10 H 0.2195 0.14682 0.72668 0.0
O11 O 0.21466 0.06477 0.6838 0.0
H12 H 0.3564 0.27587 0.65373 0.0
H13 H 0.38438 0.07434 0.62664 0.0
H14 H 0.22738 0.09936 0.55466 0.0
H15 H 0.2962 0.20534 0.61709 0.0
H16 H 0.31037 0.09621 0.66389 0.0
O17 O 0.08104 0.20204 0.6875 0.0
H18 H 0.06302 0.17174 0.55857 0.0
H19 H 0.98463 0.17085 0.67108 0.0
H20 H 0.30074 0.07809 0.5162 0.0
H21 H 0.27924 0.21652 0.76458 0.0
H22 H 0.38 0.06554 0.55222 0.0
H23 H 0.34824 0.2817 0.72804 0.0
O24 O 0.15711 0.06077 0.61066 0.0
H25 H 0.02027 0.04778 0.76848 0.0
H26 H 0.9969 0.06333 0.62201 0.0
H27 H 0.93848 0.99154 0.65996 0.0
H28 H 0.94988 0.9835 0.73376 0.0
H29 H 0.07816 0.11877 0.72928 0.0
H30 H 0.90939 0.19456 0.63736 0.0
H31 H 0.91084 0.20648 0.56305 0.0
O32 O 0.09041 0.09992 0.59905 0.0
C33 C 0.17721 0.20612 0.59282 0.0
C34 C 0.98721 0.18971 0.55597 0.0
C35 C 0.94291 0.18955 0.61983 0.0
N36 N 0.02805 0.16957 0.61678 0.0
C37 C 0.02931 0.17644 0.57593 0.0
C38 C 0.98571 0.17627 0.63877 0.0
C39 C 0.94374 0.19622 0.57813 0.0
C40 C 0.24967 0.17484 0.71062 0.0
N41 N 0.25449 0.17183 0.66977 0.0
C42 C 0.28327 0.21431 0.73222 0.0
C43 C 0.32194 0.25091 0.71169 0.0
C44 C 0.32651 0.24768 0.67 0.0
C45 C 0.2922 0.20772 0.64941 0.0
C46 C 0.3501 0.07982 0.6106 0.0
C47 C 0.26182 0.09414 0.57054 0.0
C48 C 0.30798 0.09204 0.63154 0.0
N49 N 0.26472 0.09941 0.61144 0.0
C50 C 0.30318 0.08199 0.54861 0.0
C51 C 0.34762 0.07489 0.56884 0.0
C52 C 0.11478 0.06362 0.5928 0.0
C53 C 1.01483 0.05095 0.73635 0.0
C54 C 1.00229 0.06 0.65409 0.0
C55 C 0.96899 0.01932 0.67543 0.0
C56 C 0.97538 0.01486 0.71684 0.0
N57 N 0.04078 0.09537 0.67347 0.0
C58 C 0.04737 0.09116 0.71403 0.0
Co59 Co 0.91466 0.32495 0.90761 0.0
Co60 Co 0.88023 0.44412 0.90497 0.0
O61 O 0.89787 0.38392 0.87768 0.0
C62 C 1.00314 0.35154 0.84797 0.0
O63 O 1.01132 0.40104 0.85844 0.0
C64 C 0.79324 0.41538 0.84523 0.0
O65 O 0.78452 0.36628 0.85736 0.0
O66 O 0.82314 0.39589 0.93606 0.0
O67 O 0.86194 0.32978 0.95092 0.0
H68 H 0.83641 0.54309 0.02478 0.0
H69 H 0.88474 0.31203 0.82167 0.0
O70 O 0.96679 0.31691 0.86456 0.0
H71 H 0.75572 0.17509 0.89462 0.0
H72 H 0.9573 0.14721 0.9217 0.0
H73 H 0.93218 0.30418 0.9937 0.0
H74 H 0.82623 0.23531 0.93126 0.0
H75 H 0.93539 0.2212 0.88446 0.0
O76 O 0.82944 0.45043 0.86087 0.0
H77 H 0.85968 0.46847 0.9898 0.0
H78 H 0.86058 0.54684 0.87729 0.0
H79 H 0.95348 0.23085 0.03215 0.0
H80 H 0.81506 0.25227 0.78377 0.0
H81 H 0.96609 0.1516 0.99613 0.0
H82 H 0.7499 0.18324 0.82031 0.0
O83 O 0.97075 0.37446 0.93771 0.0
H84 H 0.98372 0.51126 0.7799 0.0
H85 H 0.9681 0.53463 0.92636 0.0
H86 H 0.03989 0.59307 0.88843 0.0
H87 H 0.04796 0.58167 0.81463 0.0
H88 H 0.91273 0.45335 0.81909 0.0
H89 H 0.8368 0.62206 0.91101 0.0
H90 H 0.82485 0.6206 0.98532 0.0
O91 O 0.93155 0.44112 0.94932 0.0
C92 C 0.82538 0.35428 0.95554 0.0
C93 C 0.84167 0.54425 0.99241 0.0
C94 C 0.84182 0.58854 0.92855 0.0
N95 N 0.86185 0.50343 0.93159 0.0
C96 C 0.85497 0.50217 0.97244 0.0
C97 C 0.85514 0.54576 0.90961 0.0
C98 C 0.83513 0.58771 0.97024 0.0
C99 C 0.85673 0.28185 0.83773 0.0
N100 N 0.85974 0.27702 0.87858 0.0
C101 C 0.81727 0.24824 0.81613 0.0
C102 C 0.78068 0.20956 0.83666 0.0
C103 C 0.7839 0.20498 0.87835 0.0
C104 C 0.82385 0.23931 0.89894 0.0
C105 C 0.9518 0.18149 0.93775 0.0
C106 C 0.93741 0.26975 0.97781 0.0
C107 C 0.93956 0.22359 0.91681 0.0
N108 N 0.93216 0.26684 0.93692 0.0
C109 C 0.94959 0.2284 0.99974 0.0
C110 C 0.95672 0.18397 0.97951 0.0
C111 C 0.96787 0.41677 0.95557 0.0
C112 C 0.98053 0.51671 0.81203 0.0
C113 C 0.97145 0.52924 0.89429 0.0
C114 C 1.01212 0.56256 0.87295 0.0
C115 C 1.0166 0.55616 0.83154 0.0
N116 N 0.9361 0.49074 0.87491 0.0
C117 C 0.94032 0.48415 0.83434 0.0
Co118 Co 0.70658 0.11676 0.14076 0.0
Co119 Co 0.58735 0.1511 0.14341 0.0
O120 O 0.64758 0.13352 0.17069 0.0
C121 C 0.68002 0.02829 0.2004 0.0
O122 O 0.63052 0.02008 0.18993 0.0
C123 C 0.61607 0.23813 0.20312 0.0
O124 O 0.66517 0.24686 0.19098 0.0
O125 O 0.63555 0.20819 0.1123 0.0
O126 O 0.70173 0.16947 0.09745 0.0
H127 H 0.48831 0.19475 1.0236 0.0
H128 H 0.71946 0.14668 0.2267 0.0
O129 O 0.71464 0.06464 0.18381 0.0
H130 H 0.85637 0.27576 0.15378 0.0
H131 H 0.88438 0.07424 0.12667 0.0
H132 H 0.72739 0.09926 0.05467 0.0
H133 H 0.79619 0.20524 0.11713 0.0
H134 H 0.81035 0.0961 0.16391 0.0
O135 O 0.58102 0.20191 0.1875 0.0
H136 H 0.56297 0.17157 0.05858 0.0
H137 H 0.48461 0.17071 0.1711 0.0
H138 H 0.80076 0.07801 1.01622 0.0
H139 H 0.77919 0.21637 0.26462 0.0
H140 H 0.88002 0.06545 0.05225 0.0
H141 H 0.8482 0.28156 0.22809 0.0
O142 O 0.65711 0.06065 0.11066 0.0
H143 H 0.52028 0.04767 0.26851 0.0
H144 H 0.49688 0.06318 0.12205 0.0
H145 H 0.43848 0.99139 0.16 0.0
H146 H 0.44989 0.98338 0.23381 0.0
H147 H 0.57815 0.11866 0.2293 0.0
H148 H 0.40935 0.19439 0.13739 0.0
H149 H 0.41078 0.20628 0.06308 0.0
O150 O 0.59038 0.09977 0.09907 0.0
C151 C 0.67718 0.20599 0.09283 0.0
C152 C 0.48716 0.18953 0.05598 0.0
C153 C 0.44287 0.18939 0.11985 0.0
N154 N 0.52802 0.16942 0.1168 0.0
C155 C 0.52926 0.17627 0.07594 0.0
C156 C 0.48568 0.17612 0.13879 0.0
C157 C 0.44369 0.19604 0.07815 0.0
C158 C 0.74963 0.1747 0.21065 0.0
N159 N 0.75447 0.1717 0.1698 0.0
C160 C 0.78322 0.21417 0.23225 0.0
C161 C 0.8219 0.25078 0.21174 0.0
C162 C 0.82648 0.24756 0.17004 0.0
C163 C 0.79218 0.2076 0.14944 0.0
C164 C 0.85009 0.07972 0.11063 0.0
C165 C 0.76183 0.09405 0.07056 0.0
C166 C 0.80797 0.09193 0.13157 0.0
N167 N 0.76472 0.0993 0.11146 0.0
C168 C 0.8032 0.0819 0.04863 0.0
C169 C 0.84763 0.0748 0.06887 0.0
C170 C 0.61477 0.06349 0.09281 0.0
C171 C 0.51483 0.05084 0.23638 0.0
C172 C 0.50228 0.05985 0.15413 0.0
C173 C 0.46898 0.01918 0.17547 0.0
C174 C 0.47538 0.01473 0.21689 0.0
N175 N 0.54077 0.09523 0.17349 0.0
C176 C 0.54736 0.09104 0.21406 0.0
Co177 Co 0.91476 0.82497 0.4076 0.0
Co178 Co 0.88032 0.94414 0.40499 0.0
O179 O 0.89796 0.88395 0.37769 0.0
C180 C 1.00324 0.8516 0.34796 0.0
O181 O 1.01143 0.90109 0.35845 0.0
C182 C 0.79334 0.91542 0.34524 0.0
O183 O 0.78463 0.86631 0.35736 0.0
O184 O 0.82323 0.89589 0.43607 0.0
O185 O 0.86203 0.82978 0.45092 0.0
H186 H 0.83648 0.04303 0.52485 0.0
H187 H 0.88484 0.81209 0.32166 0.0
O188 O 0.96689 0.81696 0.36454 0.0
H189 H 0.75583 0.67511 0.39457 0.0
H190 H 0.95743 0.64725 0.42163 0.0
H191 H 0.93228 0.80417 0.49368 0.0
H192 H 0.82633 0.73532 0.43122 0.0
H193 H 0.9355 0.72124 0.38442 0.0
O194 O 0.82952 0.95047 0.3609 0.0
H195 H 0.85976 0.96844 0.48983 0.0
H196 H 0.86065 0.04687 0.37735 0.0
H197 H 0.95362 0.73083 0.53211 0.0
H198 H 0.81517 0.75234 0.28374 0.0
H199 H 0.96624 0.65161 0.49606 0.0
H200 H 0.75002 0.68329 0.32026 0.0
O201 O 0.97084 0.87447 0.43771 0.0
H202 H 0.98381 1.01136 0.27995 0.0
H203 H 0.96817 0.03465 0.42642 0.0
H204 H 0.03996 0.09311 0.38851 0.0
H205 H 0.04804 0.08176 0.3147 0.0
H206 H 0.91282 0.95342 0.31911 0.0
H207 H 0.83687 0.12207 0.4111 0.0
H208 H 0.82491 0.12056 0.48541 0.0
O209 O 0.93163 0.94112 0.44935 0.0
C210 C 0.82547 0.85427 0.45554 0.0
C211 C 0.84174 0.04421 0.49247 0.0
C212 C 0.84189 0.08854 0.42862 0.0
N213 N 0.86193 1.00343 0.43164 0.0
C214 C 0.85505 1.00215 0.47249 0.0
C215 C 0.85521 0.04577 0.40967 0.0
C216 C 0.8352 0.08768 0.47032 0.0
C217 C 0.85684 0.7819 0.33771 0.0
N218 N 0.85984 0.77706 0.37856 0.0
C219 C 0.81738 0.74829 0.3161 0.0
C220 C 0.78079 0.7096 0.33662 0.0
C221 C 0.78401 0.70501 0.37831 0.0
C222 C 0.82396 0.73933 0.39891 0.0
C223 C 0.95192 0.68152 0.43769 0.0
C224 C 0.93752 0.76975 0.47778 0.0
C225 C 0.93967 0.72362 0.41676 0.0
N226 N 0.93227 0.76686 0.43689 0.0
C227 C 0.94972 0.72839 0.4997 0.0
C228 C 0.95685 0.68398 0.47945 0.0
C229 C 0.96796 0.91678 0.45558 0.0
C230 C 0.98062 0.01679 0.31208 0.0
C231 C 0.97153 0.02927 0.39434 0.0
C232 C 1.0122 0.06261 0.37301 0.0
C233 C 1.01669 0.05624 0.3316 0.0
N234 N 0.93618 0.99078 0.37495 0.0
C235 C 0.94041 0.98421 0.33438 0.0
Co236 Co 0.20655 0.61683 0.14073 0.0
Co237 Co 0.08736 0.65124 0.14341 0.0
O238 O 0.14758 0.63362 0.17068 0.0
C239 C 0.17997 0.52837 0.20039 0.0
O240 O 0.13046 0.52018 0.18993 0.0
C241 C 0.11613 0.73826 0.20313 0.0
O242 O 0.16523 0.74697 0.19098 0.0
O243 O 0.13558 0.70832 0.1123 0.0
O244 O 0.20171 0.66954 0.09743 0.0
H245 H 0.98835 0.695 1.02361 0.0
H246 H 0.21948 0.64676 0.22667 0.0
O247 O 0.2146 0.5647 0.18379 0.0
H248 H 0.35642 0.77576 0.15371 0.0
H249 H 0.38429 0.57419 0.12661 0.0
H250 H 0.22731 0.5993 0.05464 0.0
H251 H 0.29618 0.70525 0.11708 0.0
H252 H 0.31031 0.5961 0.16386 0.0
O253 O 0.08107 0.70205 0.1875 0.0
H254 H 0.06298 0.67175 0.05858 0.0
H255 H 0.98465 0.67091 0.17111 0.0
H256 H 0.30064 0.57798 1.01617 0.0
H257 H 0.27925 0.71644 0.26457 0.0
H258 H 0.37989 0.56538 0.05218 0.0
H259 H 0.34828 0.78158 0.22802 0.0
O260 O 0.15703 0.56073 0.11065 0.0
H261 H 0.02025 0.54782 0.2685 0.0
H262 H 0.99684 0.56337 0.12204 0.0
H263 H 0.93841 0.4916 0.15999 0.0
H264 H 0.94982 0.48357 0.2338 0.0
H265 H 0.07816 0.61879 0.22929 0.0
H266 H 0.90941 0.69466 0.13741 0.0
H267 H 0.91085 0.70658 0.0631 0.0
O268 O 0.09035 0.59991 0.09905 0.0
C269 C 0.1772 0.70609 0.09281 0.0
C270 C 0.9872 0.68977 0.05599 0.0
C271 C 0.94293 0.68964 0.11986 0.0
N272 N 0.02804 0.66961 0.1168 0.0
C273 C 0.02928 0.67647 0.07595 0.0
C274 C 0.98572 0.67633 0.13879 0.0
C275 C 0.94375 0.69631 0.07817 0.0
C276 C 0.24966 0.67476 0.21061 0.0
N277 N 0.25448 0.67175 0.16976 0.0
C278 C 0.28328 0.71422 0.2322 0.0
C279 C 0.32196 0.7508 0.21168 0.0
C280 C 0.32653 0.74758 0.16998 0.0
C281 C 0.29219 0.70763 0.14939 0.0
C282 C 0.35001 0.57969 0.11057 0.0
C283 C 0.26174 0.59406 0.07052 0.0
C284 C 0.30791 0.59193 0.13152 0.0
N285 N 0.26465 0.59932 0.11142 0.0
C286 C 0.30309 0.58188 0.04858 0.0
C287 C 0.34752 0.57476 0.06881 0.0
C288 C 0.11471 0.5636 0.0928 0.0
C289 C 1.0148 0.55099 0.23637 0.0
C290 C 1.00224 0.56003 0.15412 0.0
C291 C 0.96892 0.51938 0.17547 0.0
C292 C 0.97533 0.51492 0.21688 0.0
N293 N 0.04075 0.59539 0.17348 0.0
C294 C 0.04735 0.59119 0.21405 0.0
Co295 Co 0.41465 0.32494 0.40755 0.0
Co296 Co 0.38032 0.44417 0.40493 0.0
O297 O 0.3979 0.38395 0.37763 0.0
C298 C 0.50315 0.35151 0.34792 0.0
O299 O 0.51136 0.40101 0.35841 0.0
C300 C 0.29331 0.41547 0.3452 0.0
O301 O 0.28457 0.36637 0.35733 0.0
O302 O 0.32321 0.39596 0.43603 0.0
O303 O 0.36194 0.32979 0.45086 0.0
H304 H 0.33662 0.54316 0.52477 0.0
H305 H 0.38475 0.31208 0.32161 0.0
O306 O 0.46679 0.31689 0.36449 0.0
H307 H 0.25565 0.17517 0.3945 0.0
H308 H 0.45718 0.14715 0.42158 0.0
H309 H 0.43214 0.30411 0.49363 0.0
H310 H 0.32617 0.23534 0.43116 0.0
H311 H 0.43532 0.22118 0.38437 0.0
O312 O 0.32952 0.45051 0.36084 0.0
H313 H 0.35982 0.46852 0.48977 0.0
H314 H 0.36072 0.54691 0.37727 0.0
H315 H 0.4534 0.23074 0.53206 0.0
H316 H 0.31506 0.25238 0.28368 0.0
H317 H 0.46596 0.15149 0.49601 0.0
H318 H 0.24985 0.18336 0.32019 0.0
O319 O 0.47076 0.3744 0.43766 0.0
H320 H 0.4838 0.51127 0.27986 0.0
H321 H 0.46823 0.53463 0.42633 0.0
H322 H 0.54004 0.59303 0.38839 0.0
H323 H 0.54808 0.58165 0.31458 0.0
H324 H 0.41279 0.45339 0.31905 0.0
H325 H 0.33702 0.62216 0.41102 0.0
H326 H 0.3251 0.62069 0.48533 0.0
O327 O 0.43164 0.44112 0.44928 0.0
C328 C 0.32541 0.35432 0.45549 0.0
C329 C 0.34186 0.54432 0.49239 0.0
C330 C 0.34202 0.58863 0.42854 0.0
N331 N 0.36198 0.50349 0.43157 0.0
C332 C 0.35512 0.50223 0.47242 0.0
C333 C 0.35529 0.54583 0.40959 0.0
C334 C 0.33535 0.58779 0.47024 0.0
C335 C 0.35673 0.28191 0.33765 0.0
N336 N 0.35972 0.27706 0.3785 0.0
C337 C 0.31725 0.24833 0.31604 0.0
C338 C 0.28064 0.20965 0.33655 0.0
C339 C 0.28385 0.20506 0.37824 0.0
C340 C 0.32381 0.23935 0.39885 0.0
C341 C 0.45169 0.18143 0.43764 0.0
C342 C 0.43736 0.26968 0.47773 0.0
C343 C 0.43949 0.22355 0.41671 0.0
N344 N 0.43211 0.2668 0.43684 0.0
C345 C 0.44951 0.22831 0.49965 0.0
C346 C 0.45661 0.18388 0.4794 0.0
C347 C 0.46792 0.41673 0.45552 0.0
C348 C 0.48062 0.51671 0.31198 0.0
C349 C 0.47157 0.52924 0.39425 0.0
C350 C 0.51225 0.56254 0.37291 0.0
C351 C 0.51672 0.55615 0.3315 0.0
N352 N 0.4362 0.49076 0.37487 0.0
C353 C 0.4404 0.48417 0.3343 0.0
Co354 Co 0.41468 0.82495 0.90758 0.0
Co355 Co 0.38035 0.94417 0.90497 0.0
O356 O 0.39793 0.88396 0.87767 0.0
C357 C 0.50316 0.85151 0.84793 0.0
O358 O 0.51138 0.90101 0.85841 0.0
C359 C 0.29335 0.91551 0.84523 0.0
O360 O 0.28461 0.8664 0.85735 0.0
O361 O 0.32323 0.89596 0.93606 0.0
O362 O 0.36198 0.82981 0.9509 0.0
H363 H 0.33663 0.04312 0.02484 0.0
H364 H 0.38475 0.81209 0.82164 0.0
O365 O 0.4668 0.81689 0.86451 0.0
H366 H 0.25566 0.6752 0.89456 0.0
H367 H 0.45719 0.64715 0.9216 0.0
H368 H 0.4322 0.80413 0.99365 0.0
H369 H 0.3262 0.73535 0.9312 0.0
H370 H 0.43533 0.72118 0.88439 0.0
O371 O 0.32956 0.95054 0.86088 0.0
H372 H 0.35983 0.96849 0.98982 0.0
H373 H 0.36076 0.04694 0.87734 0.0
H374 H 0.45346 0.73075 0.03208 0.0
H375 H 0.31504 0.75239 0.78372 0.0
H376 H 0.466 0.6515 0.99603 0.0
H377 H 0.24984 0.68339 0.82025 0.0
O378 O 0.4708 0.87441 0.93768 0.0
H379 H 0.48386 1.01133 0.77992 0.0
H380 H 0.46826 0.03462 0.9264 0.0
H381 H 0.54008 0.09304 0.88848 0.0
H382 H 0.54814 0.08168 0.81467 0.0
H383 H 0.41284 0.95343 0.81909 0.0
H384 H 0.33706 0.12217 0.9111 0.0
H385 H 0.32512 0.12068 0.9854 0.0
O386 O 0.43165 0.9411 0.94932 0.0
C387 C 0.32544 0.85433 0.95552 0.0
C388 C 0.34187 0.04429 0.99246 0.0
C389 C 0.34205 0.08863 0.92862 0.0
N390 N 0.36201 1.00349 0.93162 0.0
C391 C 0.35514 1.00221 0.97247 0.0
C392 C 0.35533 0.04584 0.90965 0.0
C393 C 0.33537 0.08778 0.97031 0.0
C394 C 0.35673 0.78192 0.83769 0.0
N395 N 0.35973 0.77708 0.87854 0.0
C396 C 0.31725 0.74835 0.81609 0.0
C397 C 0.28064 0.70968 0.8366 0.0
C398 C 0.28386 0.70508 0.87829 0.0
C399 C 0.32383 0.73937 0.89889 0.0
C400 C 0.45172 0.68143 0.93766 0.0
C401 C 0.43741 0.7697 0.97776 0.0
C402 C 0.4395 0.72356 0.91674 0.0
N403 N 0.43214 0.76681 0.93686 0.0
C404 C 0.44956 0.72832 0.99967 0.0
C405 C 0.45665 0.68389 0.97942 0.0
C406 C 0.46796 0.91673 0.95556 0.0
C407 C 0.48068 0.01675 0.81205 0.0
C408 C 0.47161 0.02925 0.89432 0.0
C409 C 0.5123 0.06256 0.87299 0.0
C410 C 0.51677 0.05618 0.83158 0.0
N411 N 0.43624 0.99077 0.87493 0.0
C412 C 0.44045 0.98421 0.83436 0.0
Co413 Co 0.70654 0.61673 0.64076 0.0
Co414 Co 0.58733 0.65112 0.64337 0.0
O415 O 0.64753 0.63351 0.67067 0.0
C416 C 0.67992 0.52825 0.70039 0.0
O417 O 0.63042 0.52005 0.68991 0.0
C418 C 0.61604 0.73812 0.7031 0.0
O419 O 0.66515 0.74684 0.69098 0.0
O420 O 0.63557 0.7082 0.61227 0.0
O421 O 0.70172 0.66944 0.59744 0.0
H422 H 0.48841 0.69485 0.52351 0.0
H423 H 0.71938 0.64664 0.7267 0.0
O424 O 0.71455 0.5646 0.68382 0.0
H425 H 0.85636 0.77568 0.65381 0.0
H426 H 0.88431 0.57412 0.62674 0.0
H427 H 0.72738 0.59921 0.55468 0.0
H428 H 0.79618 0.70517 0.61715 0.0
H429 H 0.81028 0.59602 0.66395 0.0
O430 O 0.58099 0.70192 0.68746 0.0
H431 H 0.56303 0.67163 0.55852 0.0
H432 H 0.48459 0.67076 0.67101 0.0
H433 H 0.80075 0.57791 0.51625 0.0
H434 H 0.7791 0.71632 0.76463 0.0
H435 H 0.87997 0.56532 0.55231 0.0
H436 H 0.84815 0.78149 0.72812 0.0
O437 O 0.65706 0.56063 0.61064 0.0
H438 H 0.52013 0.54767 0.76843 0.0
H439 H 0.49685 0.56323 0.62195 0.0
H440 H 0.43839 0.49145 0.65987 0.0
H441 H 0.44974 0.48341 0.73368 0.0
H442 H 0.57806 0.61865 0.72925 0.0
H443 H 0.40937 0.69449 0.63726 0.0
H444 H 0.41086 0.7064 0.56295 0.0
O445 O 0.59038 0.5998 0.59902 0.0
C446 C 0.67721 0.70598 0.59282 0.0
C447 C 0.48723 0.68961 0.55589 0.0
C448 C 0.4429 0.68947 0.61973 0.0
N449 N 0.52803 0.66947 0.61672 0.0
C450 C 0.52931 0.67634 0.57587 0.0
C451 C 0.48569 0.67619 0.63869 0.0
C452 C 0.44375 0.69614 0.57804 0.0
C453 C 0.74957 0.67466 0.71066 0.0
N454 N 0.75443 0.67165 0.66981 0.0
C455 C 0.78316 0.71412 0.73227 0.0
C456 C 0.82185 0.75071 0.71176 0.0
C457 C 0.82646 0.7475 0.67007 0.0
C458 C 0.79215 0.70754 0.64946 0.0
C459 C 0.85003 0.57962 0.61068 0.0
C460 C 0.7618 0.59398 0.57058 0.0
C461 C 0.80791 0.59185 0.6316 0.0
N462 N 0.76467 0.59924 0.61148 0.0
C463 C 0.80317 0.5818 0.54866 0.0
C464 C 0.84759 0.57469 0.56892 0.0
C465 C 0.61474 0.56349 0.59278 0.0
C466 C 0.5147 0.55084 0.7363 0.0
C467 C 0.50222 0.5599 0.65403 0.0
C468 C 0.46889 0.51923 0.67536 0.0
C469 C 0.47526 0.51476 0.71678 0.0
N470 N 0.54071 0.59526 0.67342 0.0
C471 C 0.54727 0.59105 0.71399 0.0
C472 C 0.25403 0.3095 0.50944 0.0
C473 C 0.28468 0.33269 0.48439 0.0
C474 C 0.22203 0.2775 0.53887 0.0
C475 C 0.19885 0.24684 0.56392 0.0
C476 C 0.71377 0.4728 0.75738 0.0
C477 C 0.69602 0.49673 0.73165 0.0
C478 C 0.73826 0.44825 0.78766 0.0
C479 C 0.76186 0.43078 0.8137 0.0
C480 C 0.56906 0.99401 0.03882 0.0
C481 C 0.5924 0.02399 0.06374 0.0
C482 C 0.53744 0.96241 1.00954 0.0
C483 C 0.50746 0.93909 0.98462 0.0
C484 C 0.05871 0.81775 0.29097 0.0
C485 C 0.03477 0.8355 0.3167 0.0
C486 C 0.08326 0.79326 0.26069 0.0
C487 C 0.10074 0.76965 0.23466 0.0
C488 C 0.2384 0.94844 0.78767 0.0
C489 C 0.262 0.93094 0.8137 0.0
C490 C 0.21392 0.97299 0.75738 0.0
C491 C 0.19616 0.99692 0.73166 0.0
C492 C 0.03734 0.46251 1.00955 0.0
C493 C 1.00737 0.43917 0.98463 0.0
C494 C 0.06896 0.49413 0.03882 0.0
C495 C 0.09231 0.5241 0.06373 0.0
C496 C 0.55862 0.31764 0.29095 0.0
C497 C 0.53468 0.3354 0.31667 0.0
C498 C 0.58318 0.29313 0.26067 0.0
C499 C 0.60066 0.26952 0.23464 0.0
C500 C 0.75408 0.80939 0.50947 0.0
C501 C 0.78474 0.83259 0.48443 0.0
C502 C 0.72207 0.77737 0.53889 0.0
C503 C 0.69887 0.74671 0.56392 0.0
C504 C 0.21384 0.47293 0.25737 0.0
C505 C 0.19609 0.49686 0.23164 0.0
C506 C 0.23833 0.44838 0.28765 0.0
C507 C 0.26194 0.43089 0.31368 0.0
C508 C 0.75399 0.30941 1.00947 0.0
C509 C 0.78464 0.33261 0.98443 0.0
C510 C 0.722 0.27739 0.03889 0.0
C511 C 0.69882 0.24673 0.06394 0.0
C512 C 0.73838 0.94831 0.28767 0.0
C513 C 0.76198 0.93082 0.31371 0.0
C514 C 0.71389 0.97285 0.25738 0.0
C515 C 0.69613 0.99679 0.23166 0.0
C516 C 0.03744 0.96251 0.50956 0.0
C517 C 1.00746 0.93917 0.48464 0.0
C518 C 0.06906 0.99413 0.53882 0.0
C519 C 0.0924 0.02411 0.56374 0.0
C520 C 0.05861 0.31769 0.79098 0.0
C521 C 0.03467 0.33544 0.81671 0.0
C522 C 0.08318 0.29321 0.7607 0.0
C523 C 0.10067 0.26961 0.73466 0.0
C524 C 0.58314 0.79311 0.76066 0.0
C525 C 0.60062 0.7695 0.73462 0.0
C526 C 0.55859 0.81762 0.79094 0.0
C527 C 0.53467 0.83538 0.81667 0.0
C528 C 0.22204 0.77747 0.03888 0.0
C529 C 0.19885 0.74682 0.06392 0.0
C530 C 0.25405 0.80949 1.00945 0.0
C531 C 0.2847 0.83268 0.98441 0.0
C532 C 0.53741 0.46242 0.50951 0.0
C533 C 0.50743 0.43909 0.48459 0.0
C534 C 0.56903 0.49402 0.53879 0.0
C535 C 0.59237 0.52399 0.56371 0.0
loop_
_geom_bond_atom_site_label_1
_geom_bond_atom_site_label_2
_geom_bond_distance
_geom_bond_site_symmetry_2
_ccdc_geom_bond_type
Co0 O2 2.143 . S
Co0 O8 2.074 . S
Co0 O11 2.093 . S
Co0 O24 2.097 . S
Co0 N41 2.151 . S
Co0 N49 2.214 . S
Co1 O2 2.160 . S
Co1 O7 2.058 . S
Co1 O17 2.057 . S
Co1 O32 2.037 . S
Co1 N36 2.145 . S
Co1 N57 2.257 . S
O2 Co0 2.143 . S
O2 Co1 2.160 . S
C3 O4 1.278 . S
C3 O11 1.224 . S
O4 C3 1.278 . S
C5 O6 1.245 . S
C5 O17 1.232 . S
O6 C5 1.245 . S
O7 Co1 2.058 . S
O7 C33 1.269 . S
O8 Co0 2.074 . S
O8 C33 1.257 . S
H9 C34 0.930 . S
H10 C40 0.930 . S
O11 Co0 2.093 . S
O11 C3 1.224 . S
H12 C44 0.929 . S
H13 C46 0.930 . S
H14 C47 0.930 . S
H15 C45 0.929 . S
H16 C48 0.928 . S
O17 Co1 2.057 . S
O17 C5 1.232 . S
H18 C37 0.929 1_455 S
H19 C38 0.929 . S
H20 C50 0.931 . S
H21 C42 0.929 . S
H22 C51 0.930 . S
H23 C43 0.931 . S
O24 Co0 2.097 . S
O24 C52 1.214 . S
H25 C53 0.929 . S
H26 C54 0.929 . S
H27 C55 0.930 1_565 S
H28 C56 0.929 1_565 S
H29 C58 0.930 . S
H30 C35 0.930 . S
H31 C39 0.930 . S
O32 Co1 2.037 . S
O32 C52 1.234 . S
C33 O7 1.269 . S
C33 O8 1.257 . S
C34 H9 0.930 . S
C34 C37 1.388 . S
C34 C39 1.418 . S
C35 H30 0.930 . S
C35 C38 1.404 . S
C35 C39 1.353 . S
N36 Co1 2.145 . S
N36 C37 1.397 1_455 S
N36 C38 1.334 1_455 S
C37 H18 0.929 1_655 S
C37 C34 1.388 . S
C37 N36 1.397 1_655 S
C38 H19 0.929 . S
C38 C35 1.404 . S
C38 N36 1.334 1_655 S
C39 H31 0.930 . S
C39 C34 1.418 . S
C39 C35 1.353 . S
C40 H10 0.930 . S
C40 N41 1.330 . S
C40 C42 1.446 . S
N41 Co0 2.151 . S
N41 C40 1.330 . S
N41 C45 1.418 . S
C42 H21 0.929 . S
C42 C40 1.446 . S
C42 C43 1.332 . S
C43 H23 0.931 . S
C43 C42 1.332 . S
C43 C44 1.267 . S
C44 H12 0.929 . S
C44 C43 1.267 . S
C44 C45 1.251 . S
C45 H15 0.929 . S
C45 N41 1.418 . S
C45 C44 1.251 . S
C46 H13 0.930 . S
C46 C48 1.406 . S
C46 C51 1.261 . S
C47 H14 0.930 . S
C47 N49 1.325 . S
C47 C50 1.357 . S
C48 H16 0.928 . S
C48 C46 1.406 . S
C48 N49 1.261 . S
N49 Co0 2.214 . S
N49 C47 1.325 . S
N49 C48 1.261 . S
C50 H20 0.931 . S
C50 C47 1.357 . S
C50 C51 1.312 . S
C51 H22 0.930 . S
C51 C46 1.261 . S
C51 C50 1.312 . S
C52 O24 1.214 . S
C52 O32 1.234 . S
C53 H25 0.929 . S
C53 C56 1.391 . S
C53 C58 1.391 1_655 S
C54 H26 0.929 . S
C54 C55 1.390 . S
C54 N57 1.391 1_655 S
C55 H27 0.930 1_545 S
C55 C54 1.390 . S
C55 C56 1.392 . S
C56 H28 0.929 1_545 S
C56 C53 1.391 . S
C56 C55 1.392 . S
N57 Co1 2.257 . S
N57 C54 1.391 1_455 S
N57 C58 1.388 . S
C58 H29 0.930 . S
C58 C53 1.391 1_455 S
C58 N57 1.388 . S
Co59 O61 2.143 . S
Co59 O67 2.074 . S
Co59 O70 2.093 . S
Co59 O83 2.097 . S
Co59 N100 2.151 . S
Co59 N108 2.214 . S
Co60 O61 2.160 . S
Co60 O66 2.058 . S
Co60 O76 2.057 . S
Co60 O91 2.037 . S
Co60 N95 2.145 . S
Co60 N116 2.257 . S
O61 Co59 2.143 . S
O61 Co60 2.160 . S
C62 O63 1.278 . S
C62 O70 1.224 . S
O63 C62 1.278 . S
C64 O65 1.245 . S
C64 O76 1.232 . S
O65 C64 1.245 . S
O66 Co60 2.058 . S
O66 C92 1.269 . S
O67 Co59 2.074 . S
O67 C92 1.257 . S
H68 C93 0.930 . S
H69 C99 0.930 . S
O70 Co59 2.093 . S
O70 C62 1.224 . S
H71 C103 0.929 . S
H72 C105 0.930 . S
H73 C106 0.930 . S
H74 C104 0.929 . S
H75 C107 0.928 . S
O76 Co60 2.057 . S
O76 C64 1.232 . S
H77 C96 0.929 . S
H78 C97 0.929 . S
H79 C109 0.931 1_554 S
H80 C101 0.929 . S
H81 C110 0.930 . S
H82 C102 0.931 . S
O83 Co59 2.097 . S
O83 C111 1.214 . S
H84 C112 0.929 . S
H85 C113 0.929 . S
H86 C114 0.930 1_455 S
H87 C115 0.929 1_455 S
H88 C117 0.930 . S
H89 C94 0.930 . S
H90 C98 0.930 . S
O91 Co60 2.037 . S
O91 C111 1.234 . S
C92 O66 1.269 . S
C92 O67 1.257 . S
C93 H68 0.930 . S
C93 C96 1.388 . S
C93 C98 1.418 . S
C94 H89 0.930 . S
C94 C97 1.404 . S
C94 C98 1.353 . S
N95 Co60 2.145 . S
N95 C96 1.397 . S
N95 C97 1.334 . S
C96 H77 0.929 . S
C96 C93 1.388 . S
C96 N95 1.397 . S
C97 H78 0.929 . S
C97 C94 1.404 . S
C97 N95 1.334 . S
C98 H90 0.930 . S
C98 C93 1.418 . S
C98 C94 1.353 . S
C99 H69 0.930 . S
C99 N100 1.330 . S
C99 C101 1.446 . S
N100 Co59 2.151 . S
N100 C99 1.330 . S
N100 C104 1.418 . S
C101 H80 0.929 . S
C101 C99 1.446 . S
C101 C102 1.332 . S
C102 H82 0.931 . S
C102 C101 1.332 . S
C102 C103 1.267 . S
C103 H71 0.929 . S
C103 C102 1.267 . S
C103 C104 1.251 . S
C104 H74 0.929 . S
C104 N100 1.418 . S
C104 C103 1.251 . S
C105 H72 0.930 . S
C105 C107 1.406 . S
C105 C110 1.261 . S
C106 H73 0.930 . S
C106 N108 1.325 . S
C106 C109 1.357 . S
C107 H75 0.928 . S
C107 C105 1.406 . S
C107 N108 1.261 . S
N108 Co59 2.214 . S
N108 C106 1.325 . S
N108 C107 1.261 . S
C109 H79 0.931 1_556 S
C109 C106 1.357 . S
C109 C110 1.312 . S
C110 H81 0.930 . S
C110 C105 1.261 . S
C110 C109 1.312 . S
C111 O83 1.214 . S
C111 O91 1.234 . S
C112 H84 0.929 . S
C112 C115 1.391 . S
C112 C117 1.391 . S
C113 H85 0.929 . S
C113 C114 1.390 . S
C113 N116 1.391 . S
C114 H86 0.930 1_655 S
C114 C113 1.390 . S
C114 C115 1.392 . S
C115 H87 0.929 1_655 S
C115 C112 1.391 . S
C115 C114 1.392 . S
N116 Co60 2.257 . S
N116 C113 1.391 . S
N116 C117 1.388 . S
C117 H88 0.930 . S
C117 C112 1.391 . S
C117 N116 1.388 . S
Co118 O120 2.143 . S
Co118 O126 2.074 . S
Co118 O129 2.093 . S
Co118 O142 2.097 . S
Co118 N159 2.151 . S
Co118 N167 2.214 . S
Co119 O120 2.160 . S
Co119 O125 2.058 . S
Co119 O135 2.057 . S
Co119 O150 2.037 . S
Co119 N154 2.145 . S
Co119 N175 2.257 . S
O120 Co118 2.143 . S
O120 Co119 2.160 . S
C121 O122 1.278 . S
C121 O129 1.224 . S
O122 C121 1.278 . S
C123 O124 1.245 . S
C123 O135 1.232 . S
O124 C123 1.245 . S
O125 Co119 2.058 . S
O125 C151 1.269 . S
O126 Co118 2.074 . S
O126 C151 1.257 . S
H127 C152 0.930 . S
H128 C158 0.930 . S
O129 Co118 2.093 . S
O129 C121 1.224 . S
H130 C162 0.929 . S
H131 C164 0.930 . S
H132 C165 0.930 . S
H133 C163 0.929 . S
H134 C166 0.928 . S
O135 Co119 2.057 . S
O135 C123 1.232 . S
H136 C155 0.929 . S
H137 C156 0.929 . S
H138 C168 0.931 1_556 S
H139 C160 0.929 . S
H140 C169 0.930 . S
H141 C161 0.931 . S
O142 Co118 2.097 . S
O142 C170 1.214 . S
H143 C171 0.929 . S
H144 C172 0.929 . S
H145 C173 0.930 1_565 S
H146 C174 0.929 1_565 S
H147 C176 0.930 . S
H148 C153 0.930 . S
H149 C157 0.930 . S
O150 Co119 2.037 . S
O150 C170 1.234 . S
C151 O125 1.269 . S
C151 O126 1.257 . S
C152 H127 0.930 . S
C152 C155 1.388 . S
C152 C157 1.418 . S
C153 H148 0.930 . S
C153 C156 1.404 . S
C153 C157 1.353 . S
N154 Co119 2.145 . S
N154 C155 1.397 . S
N154 C156 1.334 . S
C155 H136 0.929 . S
C155 C152 1.388 . S
C155 N154 1.397 . S
C156 H137 0.929 . S
C156 C153 1.404 . S
C156 N154 1.334 . S
C157 H149 0.930 . S
C157 C152 1.418 . S
C157 C153 1.353 . S
C158 H128 0.930 . S
C158 N159 1.330 . S
C158 C160 1.446 . S
N159 Co118 2.151 . S
N159 C158 1.330 . S
N159 C163 1.418 . S
C160 H139 0.929 . S
C160 C158 1.446 . S
C160 C161 1.332 . S
C161 H141 0.931 . S
C161 C160 1.332 . S
C161 C162 1.267 . S
C162 H130 0.929 . S
C162 C161 1.267 . S
C162 C163 1.251 . S
C163 H133 0.929 . S
C163 N159 1.418 . S
C163 C162 1.251 . S
C164 H131 0.930 . S
C164 C166 1.406 . S
C164 C169 1.261 . S
C165 H132 0.930 . S
C165 N167 1.325 . S
C165 C168 1.357 . S
C166 H134 0.928 . S
C166 C164 1.406 . S
C166 N167 1.261 . S
N167 Co118 2.214 . S
N167 C165 1.325 . S
N167 C166 1.261 . S
C168 H138 0.931 1_554 S
C168 C165 1.357 . S
C168 C169 1.312 . S
C169 H140 0.930 . S
C169 C164 1.261 . S
C169 C168 1.312 . S
C170 O142 1.214 . S
C170 O150 1.234 . S
C171 H143 0.929 . S
C171 C174 1.391 . S
C171 C176 1.391 . S
C172 H144 0.929 . S
C172 C173 1.390 . S
C172 N175 1.391 . S
C173 H145 0.930 1_545 S
C173 C172 1.390 . S
C173 C174 1.392 . S
C174 H146 0.929 1_545 S
C174 C171 1.391 . S
C174 C173 1.392 . S
N175 Co119 2.257 . S
N175 C172 1.391 . S
N175 C176 1.388 . S
C176 H147 0.930 . S
C176 C171 1.391 . S
C176 N175 1.388 . S
Co177 O179 2.143 . S
Co177 O185 2.074 . S
Co177 O188 2.093 . S
Co177 O201 2.097 . S
Co177 N218 2.151 . S
Co177 N226 2.214 . S
Co178 O179 2.160 . S
Co178 O184 2.058 . S
Co178 O194 2.057 . S
Co178 O209 2.037 . S
Co178 N213 2.145 . S
Co178 N234 2.257 . S
O179 Co177 2.143 . S
O179 Co178 2.160 . S
C180 O181 1.278 . S
C180 O188 1.224 . S
O181 C180 1.278 . S
C182 O183 1.245 . S
C182 O194 1.232 . S
O183 C182 1.245 . S
O184 Co178 2.058 . S
O184 C210 1.269 . S
O185 Co177 2.074 . S
O185 C210 1.257 . S
H186 C211 0.930 . S
H187 C217 0.930 . S
O188 Co177 2.093 . S
O188 C180 1.224 . S
H189 C221 0.929 . S
H190 C223 0.930 . S
H191 C224 0.930 . S
H192 C222 0.929 . S
H193 C225 0.928 . S
O194 Co178 2.057 . S
O194 C182 1.232 . S
H195 C214 0.929 1_565 S
H196 C215 0.929 . S
H197 C227 0.931 . S
H198 C219 0.929 . S
H199 C228 0.930 . S
H200 C220 0.931 . S
O201 Co177 2.097 . S
O201 C229 1.214 . S
H202 C230 0.929 . S
H203 C231 0.929 . S
H204 C232 0.930 1_455 S
H205 C233 0.929 1_455 S
H206 C235 0.930 . S
H207 C212 0.930 . S
H208 C216 0.930 . S
O209 Co178 2.037 . S
O209 C229 1.234 . S
C210 O184 1.269 . S
C210 O185 1.257 . S
C211 H186 0.930 . S
C211 C214 1.388 . S
C211 C216 1.418 . S
C212 H207 0.930 . S
C212 C215 1.404 . S
C212 C216 1.353 . S
N213 Co178 2.145 . S
N213 C214 1.397 1_565 S
N213 C215 1.334 1_565 S
C214 H195 0.929 1_545 S
C214 C211 1.388 . S
C214 N213 1.397 1_545 S
C215 H196 0.929 . S
C215 C212 1.404 . S
C215 N213 1.334 1_545 S
C216 H208 0.930 . S
C216 C211 1.418 . S
C216 C212 1.353 . S
C217 H187 0.930 . S
C217 N218 1.330 . S
C217 C219 1.446 . S
N218 Co177 2.151 . S
N218 C217 1.330 . S
N218 C222 1.418 . S
C219 H198 0.929 . S
C219 C217 1.446 . S
C219 C220 1.332 . S
C220 H200 0.931 . S
C220 C219 1.332 . S
C220 C221 1.267 . S
C221 H189 0.929 . S
C221 C220 1.267 . S
C221 C222 1.251 . S
C222 H192 0.929 . S
C222 N218 1.418 . S
C222 C221 1.251 . S
C223 H190 0.930 . S
C223 C225 1.406 . S
C223 C228 1.261 . S
C224 H191 0.930 . S
C224 N226 1.325 . S
C224 C227 1.357 . S
C225 H193 0.928 . S
C225 C223 1.406 . S
C225 N226 1.261 . S
N226 Co177 2.214 . S
N226 C224 1.325 . S
N226 C225 1.261 . S
C227 H197 0.931 . S
C227 C224 1.357 . S
C227 C228 1.312 . S
C228 H199 0.930 . S
C228 C223 1.261 . S
C228 C227 1.312 . S
C229 O201 1.214 . S
C229 O209 1.234 . S
C230 H202 0.929 . S
C230 C233 1.391 . S
C230 C235 1.391 1_545 S
C231 H203 0.929 . S
C231 C232 1.390 . S
C231 N234 1.391 1_545 S
C232 H204 0.930 1_655 S
C232 C231 1.390 . S
C232 C233 1.392 . S
C233 H205 0.929 1_655 S
C233 C230 1.391 . S
C233 C232 1.392 . S
N234 Co178 2.257 . S
N234 C231 1.391 1_565 S
N234 C235 1.388 . S
C235 H206 0.930 . S
C235 C230 1.391 1_565 S
C235 N234 1.388 . S
Co236 O238 2.143 . S
Co236 O244 2.074 . S
Co236 O247 2.093 . S
Co236 O260 2.097 . S
Co236 N277 2.151 . S
Co236 N285 2.214 . S
Co237 O238 2.160 . S
Co237 O243 2.058 . S
Co237 O253 2.057 . S
Co237 O268 2.037 . S
Co237 N272 2.145 . S
Co237 N293 2.257 . S
O238 Co236 2.143 . S
O238 Co237 2.160 . S
C239 O240 1.278 . S
C239 O247 1.224 . S
O240 C239 1.278 . S
C241 O242 1.245 . S
C241 O253 1.232 . S
O242 C241 1.245 . S
O243 Co237 2.058 . S
O243 C269 1.269 . S
O244 Co236 2.074 . S
O244 C269 1.257 . S
H245 C270 0.930 . S
H246 C276 0.930 . S
O247 Co236 2.093 . S
O247 C239 1.224 . S
H248 C280 0.929 . S
H249 C282 0.930 . S
H250 C283 0.930 . S
H251 C281 0.929 . S
H252 C284 0.928 . S
O253 Co237 2.057 . S
O253 C241 1.232 . S
H254 C273 0.929 1_455 S
H255 C274 0.929 . S
H256 C286 0.931 1_556 S
H257 C278 0.929 . S
H258 C287 0.930 . S
H259 C279 0.931 . S
O260 Co236 2.097 . S
O260 C288 1.214 . S
H261 C289 0.929 . S
H262 C290 0.929 . S
H263 C291 0.930 . S
H264 C292 0.929 . S
H265 C294 0.930 . S
H266 C271 0.930 . S
H267 C275 0.930 . S
O268 Co237 2.037 . S
O268 C288 1.234 . S
C269 O243 1.269 . S
C269 O244 1.257 . S
C270 H245 0.930 . S
C270 C273 1.388 . S
C270 C275 1.418 . S
C271 H266 0.930 . S
C271 C274 1.404 . S
C271 C275 1.353 . S
N272 Co237 2.145 . S
N272 C273 1.397 1_455 S
N272 C274 1.334 1_455 S
C273 H254 0.929 1_655 S
C273 C270 1.388 . S
C273 N272 1.397 1_655 S
C274 H255 0.929 . S
C274 C271 1.404 . S
C274 N272 1.334 1_655 S
C275 H267 0.930 . S
C275 C270 1.418 . S
C275 C271 1.353 . S
C276 H246 0.930 . S
C276 N277 1.330 . S
C276 C278 1.446 . S
N277 Co236 2.151 . S
N277 C276 1.330 . S
N277 C281 1.418 . S
C278 H257 0.929 . S
C278 C276 1.446 . S
C278 C279 1.332 . S
C279 H259 0.931 . S
C279 C278 1.332 . S
C279 C280 1.267 . S
C280 H248 0.929 . S
C280 C279 1.267 . S
C280 C281 1.251 . S
C281 H251 0.929 . S
C281 N277 1.418 . S
C281 C280 1.251 . S
C282 H249 0.930 . S
C282 C284 1.406 . S
C282 C287 1.261 . S
C283 H250 0.930 . S
C283 N285 1.325 . S
C283 C286 1.357 . S
C284 H252 0.928 . S
C284 C282 1.406 . S
C284 N285 1.261 . S
N285 Co236 2.214 . S
N285 C283 1.325 . S
N285 C284 1.261 . S
C286 H256 0.931 1_554 S
C286 C283 1.357 . S
C286 C287 1.312 . S
C287 H258 0.930 . S
C287 C282 1.261 . S
C287 C286 1.312 . S
C288 O260 1.214 . S
C288 O268 1.234 . S
C289 H261 0.929 . S
C289 C292 1.391 . S
C289 C294 1.391 1_655 S
C290 H262 0.929 . S
C290 C291 1.390 . S
C290 N293 1.391 1_655 S
C291 H263 0.930 . S
C291 C290 1.390 . S
C291 C292 1.392 . S
C292 H264 0.929 . S
C292 C289 1.391 . S
C292 C291 1.392 . S
N293 Co237 2.257 . S
N293 C290 1.391 1_455 S
N293 C294 1.388 . S
C294 H265 0.930 . S
C294 C289 1.391 1_455 S
C294 N293 1.388 . S
Co295 O297 2.143 . S
Co295 O303 2.074 . S
Co295 O306 2.093 . S
Co295 O319 2.097 . S
Co295 N336 2.151 . S
Co295 N344 2.214 . S
Co296 O297 2.160 . S
Co296 O302 2.058 . S
Co296 O312 2.057 . S
Co296 O327 2.037 . S
Co296 N331 2.145 . S
Co296 N352 2.257 . S
O297 Co295 2.143 . S
O297 Co296 2.160 . S
C298 O299 1.278 . S
C298 O306 1.224 . S
O299 C298 1.278 . S
C300 O301 1.245 . S
C300 O312 1.232 . S
O301 C300 1.245 . S
O302 Co296 2.058 . S
O302 C328 1.269 . S
O303 Co295 2.074 . S
O303 C328 1.257 . S
H304 C329 0.930 . S
H305 C335 0.930 . S
O306 Co295 2.093 . S
O306 C298 1.224 . S
H307 C339 0.929 . S
H308 C341 0.930 . S
H309 C342 0.930 . S
H310 C340 0.929 . S
H311 C343 0.928 . S
O312 Co296 2.057 . S
O312 C300 1.232 . S
H313 C332 0.929 . S
H314 C333 0.929 . S
H315 C345 0.931 . S
H316 C337 0.929 . S
H317 C346 0.930 . S
H318 C338 0.931 . S
O319 Co295 2.097 . S
O319 C347 1.214 . S
H320 C348 0.929 . S
H321 C349 0.929 . S
H322 C350 0.930 . S
H323 C351 0.929 . S
H324 C353 0.930 . S
H325 C330 0.930 . S
H326 C334 0.930 . S
O327 Co296 2.037 . S
O327 C347 1.234 . S
C328 O302 1.269 . S
C328 O303 1.257 . S
C329 H304 0.930 . S
C329 C332 1.388 . S
C329 C334 1.418 . S
C330 H325 0.930 . S
C330 C333 1.404 . S
C330 C334 1.353 . S
N331 Co296 2.145 . S
N331 C332 1.397 . S
N331 C333 1.334 . S
C332 H313 0.929 . S
C332 C329 1.388 . S
C332 N331 1.397 . S
C333 H314 0.929 . S
C333 C330 1.404 . S
C333 N331 1.334 . S
C334 H326 0.930 . S
C334 C329 1.418 . S
C334 C330 1.353 . S
C335 H305 0.930 . S
C335 N336 1.330 . S
C335 C337 1.446 . S
N336 Co295 2.151 . S
N336 C335 1.330 . S
N336 C340 1.418 . S
C337 H316 0.929 . S
C337 C335 1.446 . S
C337 C338 1.332 . S
C338 H318 0.931 . S
C338 C337 1.332 . S
C338 C339 1.267 . S
C339 H307 0.929 . S
C339 C338 1.267 . S
C339 C340 1.251 . S
C340 H310 0.929 . S
C340 N336 1.418 . S
C340 C339 1.251 . S
C341 H308 0.930 . S
C341 C343 1.406 . S
C341 C346 1.261 . S
C342 H309 0.930 . S
C342 N344 1.325 . S
C342 C345 1.357 . S
C343 H311 0.928 . S
C343 C341 1.406 . S
C343 N344 1.261 . S
N344 Co295 2.214 . S
N344 C342 1.325 . S
N344 C343 1.261 . S
C345 H315 0.931 . S
C345 C342 1.357 . S
C345 C346 1.312 . S
C346 H317 0.930 . S
C346 C341 1.261 . S
C346 C345 1.312 . S
C347 O319 1.214 . S
C347 O327 1.234 . S
C348 H320 0.929 . S
C348 C351 1.391 . S
C348 C353 1.391 . S
C349 H321 0.929 . S
C349 C350 1.390 . S
C349 N352 1.391 . S
C350 H322 0.930 . S
C350 C349 1.390 . S
C350 C351 1.392 . S
C351 H323 0.929 . S
C351 C348 1.391 . S
C351 C350 1.392 . S
N352 Co296 2.257 . S
N352 C349 1.391 . S
N352 C353 1.388 . S
C353 H324 0.930 . S
C353 C348 1.391 . S
C353 N352 1.388 . S
Co354 O356 2.143 . S
Co354 O362 2.074 . S
Co354 O365 2.093 . S
Co354 O378 2.097 . S
Co354 N395 2.151 . S
Co354 N403 2.214 . S
Co355 O356 2.160 . S
Co355 O361 2.058 . S
Co355 O371 2.057 . S
Co355 O386 2.037 . S
Co355 N390 2.145 . S
Co355 N411 2.257 . S
O356 Co354 2.143 . S
O356 Co355 2.160 . S
C357 O358 1.278 . S
C357 O365 1.224 . S
O358 C357 1.278 . S
C359 O360 1.245 . S
C359 O371 1.232 . S
O360 C359 1.245 . S
O361 Co355 2.058 . S
O361 C387 1.269 . S
O362 Co354 2.074 . S
O362 C387 1.257 . S
H363 C388 0.930 . S
H364 C394 0.930 . S
O365 Co354 2.093 . S
O365 C357 1.224 . S
H366 C398 0.929 . S
H367 C400 0.930 . S
H368 C401 0.930 . S
H369 C399 0.929 . S
H370 C402 0.928 . S
O371 Co355 2.057 . S
O371 C359 1.232 . S
H372 C391 0.929 1_565 S
H373 C392 0.929 . S
H374 C404 0.931 1_554 S
H375 C396 0.929 . S
H376 C405 0.930 . S
H377 C397 0.931 . S
O378 Co354 2.097 . S
O378 C406 1.214 . S
H379 C407 0.929 . S
H380 C408 0.929 . S
H381 C409 0.930 . S
H382 C410 0.929 . S
H383 C412 0.930 . S
H384 C389 0.930 . S
H385 C393 0.930 . S
O386 Co355 2.037 . S
O386 C406 1.234 . S
C387 O361 1.269 . S
C387 O362 1.257 . S
C388 H363 0.930 . S
C388 C391 1.388 . S
C388 C393 1.418 . S
C389 H384 0.930 . S
C389 C392 1.404 . S
C389 C393 1.353 . S
N390 Co355 2.145 . S
N390 C391 1.397 1_565 S
N390 C392 1.334 1_565 S
C391 H372 0.929 1_545 S
C391 C388 1.388 . S
C391 N390 1.397 1_545 S
C392 H373 0.929 . S
C392 C389 1.404 . S
C392 N390 1.334 1_545 S
C393 H385 0.930 . S
C393 C388 1.418 . S
C393 C389 1.353 . S
C394 H364 0.930 . S
C394 N395 1.330 . S
C394 C396 1.446 . S
N395 Co354 2.151 . S
N395 C394 1.330 . S
N395 C399 1.418 . S
C396 H375 0.929 . S
C396 C394 1.446 . S
C396 C397 1.332 . S
C397 H377 0.931 . S
C397 C396 1.332 . S
C397 C398 1.267 . S
C398 H366 0.929 . S
C398 C397 1.267 . S
C398 C399 1.251 . S
C399 H369 0.929 . S
C399 N395 1.418 . S
C399 C398 1.251 . S
C400 H367 0.930 . S
C400 C402 1.406 . S
C400 C405 1.261 . S
C401 H368 0.930 . S
C401 N403 1.325 . S
C401 C404 1.357 . S
C402 H370 0.928 . S
C402 C400 1.406 . S
C402 N403 1.261 . S
N403 Co354 2.214 . S
N403 C401 1.325 . S
N403 C402 1.261 . S
C404 H374 0.931 1_556 S
C404 C401 1.357 . S
C404 C405 1.312 . S
C405 H376 0.930 . S
C405 C400 1.261 . S
C405 C404 1.312 . S
C406 O378 1.214 . S
C406 O386 1.234 . S
C407 H379 0.929 . S
C407 C410 1.391 . S
C407 C412 1.391 1_545 S
C408 H380 0.929 . S
C408 C409 1.390 . S
C408 N411 1.391 1_545 S
C409 H381 0.930 . S
C409 C408 1.390 . S
C409 C410 1.392 . S
C410 H382 0.929 . S
C410 C407 1.391 . S
C410 C409 1.392 . S
N411 Co355 2.257 . S
N411 C408 1.391 1_565 S
N411 C412 1.388 . S
C412 H383 0.930 . S
C412 C407 1.391 1_565 S
C412 N411 1.388 . S
Co413 O415 2.143 . S
Co413 O421 2.074 . S
Co413 O424 2.093 . S
Co413 O437 2.097 . S
Co413 N454 2.151 . S
Co413 N462 2.214 . S
Co414 O415 2.160 . S
Co414 O420 2.058 . S
Co414 O430 2.057 . S
Co414 O445 2.037 . S
Co414 N449 2.145 . S
Co414 N470 2.257 . S
O415 Co413 2.143 . S
O415 Co414 2.160 . S
C416 O417 1.278 . S
C416 O424 1.224 . S
O417 C416 1.278 . S
C418 O419 1.245 . S
C418 O430 1.232 . S
O419 C418 1.245 . S
O420 Co414 2.058 . S
O420 C446 1.269 . S
O421 Co413 2.074 . S
O421 C446 1.257 . S
H422 C447 0.930 . S
H423 C453 0.930 . S
O424 Co413 2.093 . S
O424 C416 1.224 . S
H425 C457 0.929 . S
H426 C459 0.930 . S
H427 C460 0.930 . S
H428 C458 0.929 . S
H429 C461 0.928 . S
O430 Co414 2.057 . S
O430 C418 1.232 . S
H431 C450 0.929 . S
H432 C451 0.929 . S
H433 C463 0.931 . S
H434 C455 0.929 . S
H435 C464 0.930 . S
H436 C456 0.931 . S
O437 Co413 2.097 . S
O437 C465 1.214 . S
H438 C466 0.929 . S
H439 C467 0.929 . S
H440 C468 0.930 . S
H441 C469 0.929 . S
H442 C471 0.930 . S
H443 C448 0.930 . S
H444 C452 0.930 . S
O445 Co414 2.037 . S
O445 C465 1.234 . S
C446 O420 1.269 . S
C446 O421 1.257 . S
C447 H422 0.930 . S
C447 C450 1.388 . S
C447 C452 1.418 . S
C448 H443 0.930 . S
C448 C451 1.404 . S
C448 C452 1.353 . S
N449 Co414 2.145 . S
N449 C450 1.397 . S
N449 C451 1.334 . S
C450 H431 0.929 . S
C450 C447 1.388 . S
C450 N449 1.397 . S
C451 H432 0.929 . S
C451 C448 1.404 . S
C451 N449 1.334 . S
C452 H444 0.930 . S
C452 C447 1.418 . S
C452 C448 1.353 . S
C453 H423 0.930 . S
C453 N454 1.330 . S
C453 C455 1.446 . S
N454 Co413 2.151 . S
N454 C453 1.330 . S
N454 C458 1.418 . S
C455 H434 0.929 . S
C455 C453 1.446 . S
C455 C456 1.332 . S
C456 H436 0.931 . S
C456 C455 1.332 . S
C456 C457 1.267 . S
C457 H425 0.929 . S
C457 C456 1.267 . S
C457 C458 1.251 . S
C458 H428 0.929 . S
C458 N454 1.418 . S
C458 C457 1.251 . S
C459 H426 0.930 . S
C459 C461 1.406 . S
C459 C464 1.261 . S
C460 H427 0.930 . S
C460 N462 1.325 . S
C460 C463 1.357 . S
C461 H429 0.928 . S
C461 C459 1.406 . S
C461 N462 1.261 . S
N462 Co413 2.214 . S
N462 C460 1.325 . S
N462 C461 1.261 . S
C463 H433 0.931 . S
C463 C460 1.357 . S
C463 C464 1.312 . S
C464 H435 0.930 . S
C464 C459 1.261 . S
C464 C463 1.312 . S
C465 O437 1.214 . S
C465 O445 1.234 . S
C466 H438 0.929 . S
C466 C469 1.391 . S
C466 C471 1.391 . S
C467 H439 0.929 . S
C467 C468 1.390 . S
C467 N470 1.391 . S
C468 H440 0.930 . S
C468 C467 1.390 . S
C468 C469 1.392 . S
C469 H441 0.929 . S
C469 C466 1.391 . S
C469 C468 1.392 . S
N470 Co414 2.257 . S
N470 C467 1.391 . S
N470 C471 1.388 . S
C471 H442 0.930 . S
C471 C466 1.391 . S
C471 N470 1.388 . S
C472 C473 1.170 . S
C472 C474 1.380 . S
C473 C472 1.170 . S
C474 C472 1.380 . S
C474 C475 1.170 . S
C475 C474 1.170 . S
C476 C477 1.170 . S
C476 C478 1.380 . S
C477 C476 1.170 . S
C478 C476 1.380 . S
C478 C479 1.170 . S
C479 C478 1.170 . S
C480 C481 1.170 1_565 S
C480 C482 1.380 1_554 S
C481 C480 1.170 1_545 S
C482 C480 1.380 1_556 S
C482 C483 1.170 . S
C483 C482 1.170 . S
C484 C485 1.170 1_455 S
C484 C486 1.380 . S
C485 C484 1.170 1_655 S
C486 C484 1.380 . S
C486 C487 1.170 . S
C487 C486 1.170 . S
C488 C489 1.170 . S
C488 C490 1.380 . S
C489 C488 1.170 . S
C490 C488 1.380 . S
C490 C491 1.170 1_565 S
C491 C490 1.170 1_545 S
C492 C493 1.170 1_455 S
C492 C494 1.380 1_556 S
C493 C492 1.170 1_655 S
C494 C492 1.380 1_554 S
C494 C495 1.170 . S
C495 C494 1.170 . S
C496 C497 1.170 . S
C496 C498 1.380 . S
C497 C496 1.170 . S
C498 C496 1.380 . S
C498 C499 1.170 . S
C499 C498 1.170 . S
C500 C501 1.170 . S
C500 C502 1.380 . S
C501 C500 1.170 . S
C502 C500 1.380 . S
C502 C503 1.170 . S
C503 C502 1.170 . S
C504 C505 1.170 . S
C504 C506 1.380 . S
C505 C504 1.170 . S
C506 C504 1.380 . S
C506 C507 1.170 . S
C507 C506 1.170 . S
C508 C509 1.170 . S
C508 C510 1.380 1_556 S
C509 C508 1.170 . S
C510 C508 1.380 1_554 S
C510 C511 1.170 . S
C511 C510 1.170 . S
C512 C513 1.170 . S
C512 C514 1.380 . S
C513 C512 1.170 . S
C514 C512 1.380 . S
C514 C515 1.170 1_565 S
C515 C514 1.170 1_545 S
C516 C517 1.170 1_455 S
C516 C518 1.380 . S
C517 C516 1.170 1_655 S
C518 C516 1.380 . S
C518 C519 1.170 1_565 S
C519 C518 1.170 1_545 S
C520 C521 1.170 1_455 S
C520 C522 1.380 . S
C521 C520 1.170 1_655 S
C522 C520 1.380 . S
C522 C523 1.170 . S
C523 C522 1.170 . S
C524 C525 1.170 . S
C524 C526 1.380 . S
C525 C524 1.170 . S
C526 C524 1.380 . S
C526 C527 1.170 . S
C527 C526 1.170 . S
C528 C529 1.170 . S
C528 C530 1.380 1_554 S
C529 C528 1.170 . S
C530 C528 1.380 1_556 S
C530 C531 1.170 . S
C531 C530 1.170 . S
C532 C533 1.170 . S
C532 C534 1.380 . S
C533 C532 1.170 . S
C534 C532 1.380 . S
C534 C535 1.170 . S
C535 C534 1.170 . S
C473 C328 1.588 . S
C475 C33 1.592 . S
C477 C416 1.585 . S
C479 C64 1.588 . S
C481 C170 1.600 . S
C483 C406 1.591 . S
C485 C180 1.576 . S
C487 C241 1.593 . S
C489 C359 1.582 . S
C491 C3 1.585 . S
C493 C111 1.594 . S
C495 C288 1.584 . S
C497 C298 1.576 . S
C499 C123 1.593 . S
C501 C210 1.586 . S
C503 C446 1.585 . S
C505 C239 1.588 . S
C507 C300 1.585 . S
C509 C92 1.586 . S
C511 C151 1.585 . S
C513 C182 1.582 . S
C515 C121 1.589 . S
C517 C229 1.585 . S
C519 C52 1.589 . S
C521 C62 1.573 . S
C523 C5 1.590 . S
C525 C418 1.583 . S
C527 C357 1.590 . S
C529 C269 1.600 . S
C531 C387 1.599 . S
C533 C347 1.590 . S
C535 C465 1.600 . S
