# Generated by pormake.
# Topology uol, (4)-cn, num edge types: 1
# Building blocks:
#     Node 0, Type 0, BuildingBlock: NAWXER_clean_sbu_0, # of connection points: 4
#     Node 1, Type 0, BuildingBlock: NAWXER_clean_sbu_0, # of connection points: 4
#     Node 2, Type 0, BuildingBlock: NAWXER_clean_sbu_0, # of connection points: 4
#     Node 3, Type 0, BuildingBlock: NAWXER_clean_sbu_0, # of connection points: 4
#     Node 4, Type 0, BuildingBlock: NAWXER_clean_sbu_0, # of connection points: 4
#     Node 5, Type 0, BuildingBlock: NAWXER_clean_sbu_0, # of connection points: 4
#     Node 6, Type 0, BuildingBlock: NAWXER_clean_sbu_0, # of connection points: 4
#     Node 7, Type 0, BuildingBlock: NAWXER_clean_sbu_0, # of connection points: 4
#     Node 8, Type 0, BuildingBlock: NAWXER_clean_sbu_0, # of connection points: 4
#     Node 9, Type 0, BuildingBlock: NAWXER_clean_sbu_0, # of connection points: 4
#     Node 10, Type 0, BuildingBlock: NAWXER_clean_sbu_0, # of connection points: 4
#     Node 11, Type 0, BuildingBlock: NAWXER_clean_sbu_0, # of connection points: 4
#     Edge 12, Type (0, 0), BuildingBlock: TEMPAE_clean_linker_10, # of connection points: 2
#     Edge 13, Type (0, 0), BuildingBlock: TEMPAE_clean_linker_10, # of connection points: 2
#     Edge 14, Type (0, 0), BuildingBlock: TEMPAE_clean_linker_10, # of connection points: 2
#     Edge 15, Type (0, 0), BuildingBlock: TEMPAE_clean_linker_10, # of connection points: 2
#     Edge 16, Type (0, 0), BuildingBlock: TEMPAE_clean_linker_10, # of connection points: 2
#     Edge 17, Type (0, 0), BuildingBlock: TEMPAE_clean_linker_10, # of connection points: 2
#     Edge 18, Type (0, 0), BuildingBlock: TEMPAE_clean_linker_10, # of connection points: 2
#     Edge 19, Type (0, 0), BuildingBlock: TEMPAE_clean_linker_10, # of connection points: 2
#     Edge 20, Type (0, 0), BuildingBlock: TEMPAE_clean_linker_10, # of connection points: 2
#     Edge 21, Type (0, 0), BuildingBlock: TEMPAE_clean_linker_10, # of connection points: 2
#     Edge 22, Type (0, 0), BuildingBlock: TEMPAE_clean_linker_10, # of connection points: 2
#     Edge 23, Type (0, 0), BuildingBlock: TEMPAE_clean_linker_10, # of connection points: 2
#     Edge 24, Type (0, 0), BuildingBlock: TEMPAE_clean_linker_10, # of connection points: 2
#     Edge 25, Type (0, 0), BuildingBlock: TEMPAE_clean_linker_10, # of connection points: 2
#     Edge 26, Type (0, 0), BuildingBlock: TEMPAE_clean_linker_10, # of connection points: 2
#     Edge 27, Type (0, 0), BuildingBlock: TEMPAE_clean_linker_10, # of connection points: 2
#     Edge 28, Type (0, 0), BuildingBlock: TEMPAE_clean_linker_10, # of connection points: 2
#     Edge 29, Type (0, 0), BuildingBlock: TEMPAE_clean_linker_10, # of connection points: 2
#     Edge 30, Type (0, 0), BuildingBlock: TEMPAE_clean_linker_10, # of connection points: 2
#     Edge 31, Type (0, 0), BuildingBlock: TEMPAE_clean_linker_10, # of connection points: 2
#     Edge 32, Type (0, 0), BuildingBlock: TEMPAE_clean_linker_10, # of connection points: 2
#     Edge 33, Type (0, 0), BuildingBlock: TEMPAE_clean_linker_10, # of connection points: 2
#     Edge 34, Type (0, 0), BuildingBlock: TEMPAE_clean_linker_10, # of connection points: 2
#     Edge 35, Type (0, 0), BuildingBlock: TEMPAE_clean_linker_10, # of connection points: 2
# Relax obj value: 0.141
# Max RMSD: 0.284
# Mean RMSD: 0.284
data_MOF--net-uol--node1-NAWXER_clean_sbu_0--edge1-TEMPAE_clean_linker_10
_symmetry_space_group_name_H-M    P1
_symmetry_Int_Tables_number       1
_symmetry_cell_setting            triclinic
loop_
_symmetry_equiv_pos_as_xyz
'x, y, z'
_cell_length_a     34.212421
_cell_length_b     34.215137
_cell_length_c     66.651055
_cell_angle_alpha  90.003118
_cell_angle_beta   89.993567
_cell_angle_gamma 120.00639
loop_
_atom_site_label
_atom_site_type_symbol
_atom_site_fract_x
_atom_site_fract_y
_atom_site_fract_z
_atom_type_partial_charge
C0 C 0.13671 0.3252 0.08164 0.0
C1 C 0.03626 0.29951 0.13778 0.0
O2 O 0.15768 0.353 0.09599 0.0
Zn3 Zn 0.13967 0.36691 0.12548 0.0
O4 O 0.09456 0.29814 0.08312 0.0
Zn5 Zn 0.08672 0.31596 0.10926 0.0
O6 O 0.09559 0.38242 0.10443 0.0
O7 O 0.15213 0.42797 0.12389 0.0
O8 O 0.02717 0.2821 0.12041 0.0
O9 O 0.07653 0.33118 0.14171 0.0
O10 O 0.17859 0.3568 0.14252 0.0
O11 O 0.12657 0.29526 0.12735 0.0
C12 C 0.12212 0.42225 0.11121 0.0
C13 C 0.16065 0.31473 0.13923 0.0
C14 C 0.84776 0.15685 0.30589 0.0
C15 C 0.70194 0.11894 0.27781 0.0
O16 O 0.8332 0.12298 0.29389 0.0
Zn17 Zn 0.77276 0.08348 0.27568 0.0
O18 O 0.82365 0.17477 0.30927 0.0
Zn19 Zn 0.77473 0.1362 0.2921 0.0
O20 O 0.7472 0.07283 0.30811 0.0
O21 O 0.74694 0.02373 0.28666 0.0
O22 O 0.72616 0.14873 0.29058 0.0
O23 O 0.71525 0.09251 0.27093 0.0
O24 O 0.79859 0.09186 0.24953 0.0
O25 O 0.80693 0.15473 0.26271 0.0
C26 C 0.73858 0.03261 0.30407 0.0
C27 C 0.81382 0.13406 0.24825 0.0
C28 C 0.6919 0.84486 0.4722 0.0
C29 C 0.58424 0.6987 0.44436 0.0
O30 O 0.71133 0.83024 0.46029 0.0
Zn31 Zn 0.69051 0.76961 0.44223 0.0
O32 O 0.64986 0.82072 0.47554 0.0
Zn33 Zn 0.63966 0.77167 0.45852 0.0
O34 O 0.67547 0.74434 0.4747 0.0
O35 O 0.72447 0.74399 0.45337 0.0
O36 O 0.57859 0.72307 0.45702 0.0
O37 O 0.62402 0.71197 0.43753 0.0
O38 O 0.70804 0.79511 0.41603 0.0
O39 O 0.65339 0.80351 0.42904 0.0
C40 C 0.70712 0.73573 0.47076 0.0
C41 C 0.68101 0.81024 0.41462 0.0
C42 C 0.87131 0.6781 0.58158 0.0
C43 C 0.97197 0.7038 0.63766 0.0
O44 O 0.8504 0.65045 0.59599 0.0
Zn45 Zn 0.8685 0.63657 0.62544 0.0
O46 O 0.9135 0.70505 0.58299 0.0
Zn47 Zn 0.92145 0.68739 0.60916 0.0
O48 O 0.91238 0.62085 0.60437 0.0
O49 O 0.85587 0.57544 0.62388 0.0
O50 O 0.98107 0.72118 0.62028 0.0
O51 O 0.93168 0.67221 0.64161 0.0
O52 O 0.82975 0.64687 0.64251 0.0
O53 O 0.88177 0.70829 0.62726 0.0
C54 C 0.88581 0.58106 0.61117 0.0
C55 C 0.84775 0.68892 0.63918 0.0
C56 C 0.15987 0.84532 0.80599 0.0
C57 C 0.30576 0.88336 0.77793 0.0
O58 O 0.17446 0.87925 0.79403 0.0
Zn59 Zn 0.23495 0.91883 0.77586 0.0
O60 O 0.18396 0.82736 0.80934 0.0
Zn61 Zn 0.23293 0.86603 0.79221 0.0
O62 O 0.26043 0.92932 0.80829 0.0
O63 O 0.26074 0.97851 0.78689 0.0
O64 O 0.2815 0.8535 0.79067 0.0
O65 O 0.29246 0.90983 0.77109 0.0
O66 O 0.20922 0.91063 0.7497 0.0
O67 O 0.20084 0.84767 0.76279 0.0
C68 C 0.26907 0.96957 0.80429 0.0
C69 C 0.19401 0.86845 0.74835 0.0
C70 C 0.30023 0.26732 0.97062 0.0
C71 C 0.3263 0.19217 0.9147 0.0
O72 O 0.33196 0.25884 0.97459 0.0
Zn73 Zn 0.36765 0.23119 0.95854 0.0
O74 O 0.28273 0.25869 0.95326 0.0
Zn75 Zn 0.31676 0.23306 0.9422 0.0
O76 O 0.29596 0.17263 0.96038 0.0
O77 O 0.35739 0.18228 0.9757 0.0
O78 O 0.29927 0.20732 0.91604 0.0
O79 O 0.35392 0.19907 0.92913 0.0
O80 O 0.42871 0.27975 0.95698 0.0
O81 O 0.38325 0.29072 0.93747 0.0
C82 C 0.31536 0.15812 0.97235 0.0
C83 C 0.42304 0.30405 0.9443 0.0
C84 C 0.69128 0.84537 0.69845 0.0
C85 C 0.58342 0.88345 0.72645 0.0
O86 O 0.71066 0.87942 0.71035 0.0
Zn87 Zn 0.68976 0.91911 0.72845 0.0
O88 O 0.64922 0.82736 0.69513 0.0
Zn89 Zn 0.63894 0.86614 0.71219 0.0
O90 O 0.67457 0.9293 0.696 0.0
O91 O 0.72354 0.97871 0.71732 0.0
O92 O 0.57781 0.85351 0.71375 0.0
O93 O 0.62322 0.91003 0.73325 0.0
O94 O 0.70745 0.9112 0.75462 0.0
O95 O 0.65284 0.84808 0.74164 0.0
C96 C 0.70616 0.96959 0.69994 0.0
C97 C 0.6805 0.86902 0.75605 0.0
C98 C 0.81256 0.67873 0.92307 0.0
C99 C 0.73807 0.70491 0.86693 0.0
O100 O 0.80578 0.65108 0.90865 0.0
Zn101 Zn 0.77392 0.63738 0.87917 0.0
O102 O 0.79745 0.70578 0.92165 0.0
Zn103 Zn 0.77192 0.68825 0.89545 0.0
O104 O 0.71422 0.62178 0.90016 0.0
O105 O 0.72528 0.57634 0.88067 0.0
O106 O 0.74635 0.72226 0.88432 0.0
O107 O 0.74664 0.67323 0.86299 0.0
O108 O 0.82295 0.64752 0.86214 0.0
O109 O 0.83254 0.70901 0.87739 0.0
C110 C 0.70092 0.582 0.89332 0.0
C111 C 0.84712 0.68956 0.86548 0.0
C112 C 0.15925 0.84535 0.03177 0.0
C113 C 0.12132 0.69949 0.05981 0.0
O114 O 0.12538 0.83079 0.04378 0.0
Zn115 Zn 0.08587 0.77032 0.06197 0.0
O116 O 0.17715 0.82123 0.02838 0.0
Zn117 Zn 0.13857 0.77229 0.04554 0.0
O118 O 0.07519 0.74477 0.02954 0.0
O119 O 0.02612 0.74455 0.051 0.0
O120 O 0.15111 0.72373 0.04704 0.0
O121 O 0.09488 0.7128 0.06671 0.0
O122 O 0.09423 0.79611 0.08813 0.0
O123 O 0.15712 0.80448 0.07494 0.0
C124 C 0.03497 0.73617 0.03358 0.0
C125 C 0.13644 0.81135 0.08941 0.0
C126 C 0.30177 0.03377 0.19989 0.0
C127 C 0.32772 0.13419 0.25609 0.0
O128 O 0.33344 0.07404 0.19596 0.0
Zn129 Zn 0.36923 0.13715 0.2122 0.0
O130 O 0.28441 0.02467 0.21728 0.0
Zn131 Zn 0.31833 0.0842 0.22844 0.0
O132 O 0.29759 0.12411 0.2104 0.0
O133 O 0.35911 0.17611 0.1952 0.0
O134 O 0.30067 0.09203 0.25462 0.0
O135 O 0.35542 0.15515 0.2417 0.0
O136 O 0.43031 0.14959 0.21374 0.0
O137 O 0.38479 0.09304 0.2332 0.0
C138 C 0.31706 0.15821 0.19853 0.0
C139 C 0.4246 0.11956 0.2264 0.0
C140 C 0.30645 0.42076 0.39331 0.0
C141 C 0.16052 0.31296 0.36531 0.0
O142 O 0.29317 0.381 0.40016 0.0
Zn143 Zn 0.23559 0.31448 0.39543 0.0
O144 O 0.28215 0.42638 0.3806 0.0
Zn145 Zn 0.2336 0.3653 0.37908 0.0
O146 O 0.20154 0.35158 0.4085 0.0
O147 O 0.20989 0.29699 0.4216 0.0
O148 O 0.18464 0.355 0.36196 0.0
O149 O 0.17509 0.2936 0.37728 0.0
O150 O 0.26133 0.28055 0.38437 0.0
O151 O 0.26115 0.32957 0.363 0.0
C152 C 0.1947 0.32399 0.42295 0.0
C153 C 0.26975 0.29793 0.36698 0.0
C154 C 0.88583 0.30347 0.55969 0.0
C155 C 0.84783 0.15761 0.53163 0.0
O156 O 0.91229 0.29018 0.56655 0.0
Zn157 Zn 0.92131 0.23268 0.56178 0.0
O158 O 0.85598 0.27922 0.54694 0.0
Zn159 Zn 0.86852 0.23066 0.54541 0.0
O160 O 0.85012 0.19854 0.57483 0.0
O161 O 0.91308 0.20693 0.58794 0.0
O162 O 0.82988 0.1817 0.52828 0.0
O163 O 0.88175 0.1722 0.5436 0.0
O164 O 0.98101 0.25847 0.55077 0.0
O165 O 0.93184 0.25815 0.52934 0.0
C166 C 0.87088 0.19171 0.58927 0.0
C167 C 0.97208 0.26679 0.53336 0.0
C168 C 0.14538 0.64144 0.0585 0.0
C169 C 0.11789 0.65679 0.06693 0.0
C170 C 0.14385 0.60201 0.06549 0.0
C171 C 0.1142 0.57729 0.08135 0.0
C172 C 0.08581 0.59214 0.08972 0.0
C173 C 0.08794 0.63168 0.08239 0.0
C174 C 0.17457 0.58723 0.05611 0.0
C175 C 0.05384 0.56672 0.10669 0.0
C176 C 0.08794 0.45627 0.08886 0.0
C177 C 0.11851 0.46141 0.10408 0.0
C178 C 0.08558 0.49355 0.08153 0.0
C179 C 0.11436 0.53696 0.08965 0.0
C180 C 0.14467 0.54221 0.10526 0.0
C181 C 0.14642 0.50444 0.11225 0.0
C182 C 0.05288 0.48665 0.06485 0.0
C183 C 0.17585 0.58792 0.11435 0.0
H184 H 0.16851 0.66047 0.0465 0.0
H185 H 0.06655 0.64324 0.08899 0.0
H186 H 0.19843 0.58784 0.06754 0.0
H187 H 0.15448 0.552 0.05062 0.0
H188 H 0.19436 0.60919 0.04338 0.0
H189 H 0.03274 0.58166 0.11101 0.0
H190 H 0.03128 0.53098 0.10235 0.0
H191 H 0.07328 0.56675 0.12001 0.0
H192 H 0.06623 0.42318 0.08246 0.0
H193 H 0.17004 0.50879 0.12406 0.0
H194 H 0.07175 0.50579 0.05136 0.0
H195 H 0.03052 0.49992 0.06938 0.0
H196 H 0.0316 0.45053 0.0607 0.0
H197 H 0.1992 0.6109 0.1027 0.0
H198 H 0.19621 0.58602 0.1269 0.0
H199 H 0.15605 0.60322 0.12003 0.0
C200 C 0.63407 0.08543 0.25526 0.0
C201 C 0.65924 0.1155 0.27068 0.0
C202 C 0.59452 0.08327 0.24792 0.0
C203 C 0.57974 0.11176 0.25623 0.0
C204 C 0.60452 0.14155 0.27204 0.0
C205 C 0.64395 0.14311 0.27904 0.0
C206 C 0.56903 0.05114 0.23102 0.0
C207 C 0.58981 0.17238 0.28134 0.0
C208 C 0.50677 0.14374 0.22527 0.0
C209 C 0.46378 0.11594 0.23351 0.0
C210 C 0.54456 0.14202 0.23226 0.0
C211 C 0.53937 0.11185 0.24793 0.0
C212 C 0.496 0.08317 0.25611 0.0
C213 C 0.45869 0.0855 0.24878 0.0
C214 C 0.59022 0.17307 0.2231 0.0
C215 C 0.48916 0.05063 0.27285 0.0
H216 H 0.64558 0.06396 0.24871 0.0
H217 H 0.66303 0.16634 0.291 0.0
H218 H 0.5333 0.02863 0.2354 0.0
H219 H 0.569 0.07046 0.21765 0.0
H220 H 0.58394 0.03 0.22673 0.0
H221 H 0.61184 0.19231 0.29403 0.0
H222 H 0.59037 0.19612 0.26986 0.0
H223 H 0.5546 0.15237 0.28688 0.0
H224 H 0.51107 0.16725 0.21342 0.0
H225 H 0.42563 0.06387 0.25523 0.0
H226 H 0.60549 0.1532 0.21747 0.0
H227 H 0.61328 0.19655 0.2347 0.0
H228 H 0.58827 0.1933 0.21051 0.0
H229 H 0.50242 0.02823 0.26836 0.0
H230 H 0.45305 0.02939 0.27704 0.0
H231 H 0.50835 0.06963 0.28631 0.0
C232 C 0.5021 0.6407 0.44561 0.0
C233 C 0.54503 0.65587 0.43731 0.0
C234 C 0.46426 0.60116 0.43867 0.0
C235 C 0.46935 0.57614 0.42299 0.0
C236 C 0.51266 0.5908 0.41476 0.0
C237 C 0.55002 0.63047 0.42203 0.0
C238 C 0.41866 0.58659 0.44789 0.0
C239 C 0.51938 0.56505 0.398 0.0
C240 C 0.37449 0.45506 0.41575 0.0
C241 C 0.34924 0.45998 0.40039 0.0
C242 C 0.41413 0.49243 0.42304 0.0
C243 C 0.42892 0.53569 0.41473 0.0
C244 C 0.40406 0.54072 0.39896 0.0
C245 C 0.36453 0.50287 0.39202 0.0
C246 C 0.4397 0.48578 0.4399 0.0
C247 C 0.41878 0.58626 0.38965 0.0
H248 H 0.49788 0.65996 0.45747 0.0
H249 H 0.58304 0.64189 0.41554 0.0
H250 H 0.39555 0.58702 0.43633 0.0
H251 H 0.40341 0.55145 0.45352 0.0
H252 H 0.4207 0.60878 0.4605 0.0
H253 H 0.55547 0.57987 0.39378 0.0
H254 H 0.5061 0.52938 0.40249 0.0
H255 H 0.50015 0.56486 0.38456 0.0
H256 H 0.36297 0.42208 0.42231 0.0
H257 H 0.3454 0.50704 0.38009 0.0
H258 H 0.43982 0.50513 0.45328 0.0
H259 H 0.4754 0.49896 0.43548 0.0
H260 H 0.42479 0.44972 0.44419 0.0
H261 H 0.41832 0.60948 0.40115 0.0
H262 H 0.39669 0.58416 0.37699 0.0
H263 H 0.45395 0.60141 0.38408 0.0
C264 C 0.91959 0.54682 0.58872 0.0
C265 C 0.88927 0.54182 0.60404 0.0
C266 C 0.92179 0.50946 0.58137 0.0
C267 C 0.89311 0.46612 0.58958 0.0
C268 C 0.86306 0.46101 0.60528 0.0
C269 C 0.86146 0.49886 0.61229 0.0
C270 C 0.9542 0.51621 0.56457 0.0
C271 C 0.83201 0.41539 0.61448 0.0
C272 C 0.86164 0.36144 0.5585 0.0
C273 C 0.8893 0.34618 0.56683 0.0
C274 C 0.86324 0.40089 0.5655 0.0
C275 C 0.89312 0.42572 0.58128 0.0
C276 C 0.92165 0.41095 0.58955 0.0
C277 C 0.91945 0.37139 0.58221 0.0
C278 C 0.83236 0.41559 0.55623 0.0
C279 C 0.95388 0.43649 0.60642 0.0
H280 H 0.94122 0.57986 0.58225 0.0
H281 H 0.83804 0.49463 0.62418 0.0
H282 H 0.97663 0.50296 0.56904 0.0
H283 H 0.9351 0.49696 0.55115 0.0
H284 H 0.97543 0.55229 0.56035 0.0
H285 H 0.81185 0.4174 0.62709 0.0
H286 H 0.80847 0.39232 0.6029 0.0
H287 H 0.85188 0.40012 0.62009 0.0
H288 H 0.83834 0.34234 0.54656 0.0
H289 H 0.94096 0.3599 0.58873 0.0
H290 H 0.85235 0.45077 0.55067 0.0
H291 H 0.80869 0.41508 0.56775 0.0
H292 H 0.81235 0.39352 0.54357 0.0
H293 H 0.9764 0.47218 0.60201 0.0
H294 H 0.97502 0.42156 0.61069 0.0
H295 H 0.93464 0.43659 0.6198 0.0
C296 C 0.54917 0.91724 0.74889 0.0
C297 C 0.54418 0.88691 0.73359 0.0
C298 C 0.5118 0.91943 0.75624 0.0
C299 C 0.46846 0.89072 0.74805 0.0
C300 C 0.46335 0.86065 0.73235 0.0
C301 C 0.50121 0.85906 0.72534 0.0
C302 C 0.51855 0.95186 0.77302 0.0
C303 C 0.41772 0.82957 0.72317 0.0
C304 C 0.36378 0.85923 0.77913 0.0
C305 C 0.34848 0.88685 0.7708 0.0
C306 C 0.40324 0.86086 0.77213 0.0
C307 C 0.42805 0.89072 0.75635 0.0
C308 C 0.41325 0.91921 0.74806 0.0
C309 C 0.37367 0.91699 0.75541 0.0
C310 C 0.41797 0.83002 0.78141 0.0
C311 C 0.43876 0.95142 0.73119 0.0
H312 H 0.58222 0.93889 0.75536 0.0
H313 H 0.49698 0.83563 0.71346 0.0
H314 H 0.50528 0.97427 0.76856 0.0
H315 H 0.49932 0.93278 0.78646 0.0
H316 H 0.55464 0.97311 0.77724 0.0
H317 H 0.41974 0.80941 0.71056 0.0
H318 H 0.39467 0.80604 0.73475 0.0
H319 H 0.40242 0.84942 0.71755 0.0
H320 H 0.34469 0.83595 0.79108 0.0
H321 H 0.36215 0.93847 0.74888 0.0
H322 H 0.45316 0.85003 0.78697 0.0
H323 H 0.41748 0.80634 0.7699 0.0
H324 H 0.39592 0.81002 0.79408 0.0
H325 H 0.47446 0.97396 0.73559 0.0
H326 H 0.4238 0.97253 0.72691 0.0
H327 H 0.43886 0.93217 0.71781 0.0
C328 C 0.45723 0.37222 0.92193 0.0
C329 C 0.46222 0.34688 0.93723 0.0
C330 C 0.49456 0.41191 0.91465 0.0
C331 C 0.53787 0.42666 0.92292 0.0
C332 C 0.54296 0.40171 0.93862 0.0
C333 C 0.50515 0.36214 0.94555 0.0
C334 C 0.48783 0.43758 0.89786 0.0
C335 C 0.58855 0.41638 0.94788 0.0
C336 C 0.6428 0.49992 0.892 0.0
C337 C 0.65806 0.54281 0.90036 0.0
C338 C 0.60323 0.46208 0.89892 0.0
C339 C 0.57829 0.46712 0.91465 0.0
C340 C 0.59303 0.51039 0.92294 0.0
C341 C 0.63271 0.54775 0.91568 0.0
C342 C 0.58857 0.41653 0.88964 0.0
C343 C 0.56736 0.51706 0.93976 0.0
H344 H 0.42421 0.36072 0.91541 0.0
H345 H 0.50937 0.34294 0.95744 0.0
H346 H 0.50106 0.47325 0.90233 0.0
H347 H 0.5071 0.43775 0.88444 0.0
H348 H 0.45175 0.42271 0.89363 0.0
H349 H 0.5865 0.39424 0.9605 0.0
H350 H 0.61172 0.41597 0.93634 0.0
H351 H 0.60373 0.45152 0.95349 0.0
H352 H 0.662 0.49573 0.88011 0.0
H353 H 0.64421 0.58074 0.92222 0.0
H354 H 0.55341 0.40133 0.88405 0.0
H355 H 0.58904 0.39334 0.90115 0.0
H356 H 0.61069 0.41862 0.87699 0.0
H357 H 0.53167 0.5038 0.93531 0.0
H358 H 0.5822 0.55313 0.944 0.0
H359 H 0.56724 0.49779 0.95317 0.0
C360 C 0.24853 0.16665 0.19679 0.0
C361 C 0.29109 0.17749 0.18927 0.0
C362 C 0.2248 0.1868 0.18887 0.0
C363 C 0.24383 0.21803 0.17289 0.0
C364 C 0.28622 0.22817 0.16489 0.0
C365 C 0.30947 0.20802 0.17327 0.0
C366 C 0.17992 0.17555 0.19794 0.0
C367 C 0.30737 0.26086 0.14768 0.0
C368 C 0.16917 0.24627 0.14097 0.0
C369 C 0.17988 0.28875 0.14852 0.0
C370 C 0.18929 0.22253 0.14891 0.0
C371 C 0.22034 0.24148 0.16496 0.0
C372 C 0.23031 0.28377 0.17301 0.0
C373 C 0.21021 0.30703 0.1646 0.0
C374 C 0.17824 0.17776 0.13979 0.0
C375 C 0.26279 0.30482 0.1903 0.0
H376 H 0.23422 0.14324 0.20922 0.0
H377 H 0.3422 0.21633 0.16729 0.0
H378 H 0.18216 0.20645 0.20447 0.0
H379 H 0.1535 0.16319 0.18616 0.0
H380 H 0.1691 0.14953 0.20989 0.0
H381 H 0.33941 0.26333 0.14253 0.0
H382 H 0.28363 0.25028 0.13482 0.0
H383 H 0.31444 0.29493 0.15231 0.0
H384 H 0.14591 0.23202 0.12848 0.0
H385 H 0.2184 0.33971 0.1706 0.0
H386 H 0.16584 0.15125 0.15153 0.0
H387 H 0.20923 0.18015 0.13329 0.0
H388 H 0.1523 0.16697 0.1278 0.0
H389 H 0.25214 0.28095 0.20311 0.0
H390 H 0.26508 0.33675 0.19549 0.0
H391 H 0.29695 0.31206 0.18572 0.0
C392 C 0.90508 0.20629 0.33126 0.0
C393 C 0.89293 0.17589 0.31521 0.0
C394 C 0.94843 0.22628 0.33967 0.0
C395 C 0.98064 0.2161 0.33166 0.0
C396 C 0.96843 0.18494 0.31565 0.0
C397 C 0.92459 0.16496 0.30769 0.0
C398 C 0.96 0.2589 0.35692 0.0
C399 C 1.00202 0.17364 0.30657 0.0
C400 C 0.10327 0.30513 0.33992 0.0
C401 C 0.11533 0.28689 0.356 0.0
C402 C 0.0599 0.28183 0.33152 0.0
C403 C 0.0276 0.23953 0.33957 0.0
C404 C 0.03972 0.22061 0.35562 0.0
C405 C 0.08358 0.24439 0.36356 0.0
C406 C 0.04843 0.30286 0.31423 0.0
C407 C 0.00603 0.17582 0.36474 0.0
H408 H 0.8807 0.21465 0.33724 0.0
H409 H 0.91549 0.14164 0.29523 0.0
H410 H 0.97319 0.24828 0.36975 0.0
H411 H 0.98699 0.29299 0.35229 0.0
H412 H 0.93043 0.26134 0.3621 0.0
H413 H 0.98675 0.14756 0.29465 0.0
H414 H 0.03064 0.2045 0.30001 0.0
H415 H 0.01612 0.16133 0.31836 0.0
H416 H 0.12773 0.33781 0.33391 0.0
H417 H 0.09261 0.23018 0.37605 0.0
H418 H 0.02152 0.3101 0.31882 0.0
H419 H 0.03518 0.27898 0.30142 0.0
H420 H 0.07807 0.33479 0.30902 0.0
H421 H 0.97747 0.1782 0.37128 0.0
H422 H 0.02123 0.165 0.37668 0.0
H423 H 0.99185 0.14933 0.35298 0.0
C424 C 0.79846 0.10036 0.50622 0.0
C425 C 0.82879 0.11246 0.5223 0.0
C426 C 0.77849 0.05702 0.49779 0.0
C427 C 0.78861 0.02478 0.50581 0.0
C428 C 0.8197 0.03695 0.52185 0.0
C429 C 0.83967 0.08078 0.52982 0.0
C430 C 0.74595 0.0455 0.48052 0.0
C431 C 0.83093 0.00333 0.53093 0.0
C432 C 0.69959 0.90217 0.49753 0.0
C433 C 0.71791 0.89008 0.48148 0.0
C434 C 0.72285 0.94555 0.50592 0.0
C435 C 0.76518 0.97784 0.49789 0.0
C436 C 0.78417 0.9657 0.48187 0.0
C437 C 0.76043 0.92183 0.47394 0.0
C438 C 0.70175 0.95703 0.52317 0.0
C439 C 0.82899 0.99939 0.47277 0.0
H440 H 0.79013 0.12476 0.50024 0.0
H441 H 0.86294 0.08984 0.5423 0.0
H442 H 0.75661 0.03231 0.4677 0.0
H443 H 0.71183 0.01853 0.48511 0.0
H444 H 0.74357 0.0751 0.47533 0.0
H445 H 0.85696 0.01856 0.54288 0.0
H446 H 0.80003 0.97471 0.53747 0.0
H447 H 0.84329 0.98924 0.51916 0.0
H448 H 0.66689 0.87772 0.50352 0.0
H449 H 0.7747 0.91278 0.46148 0.0
H450 H 0.69457 0.98397 0.51856 0.0
H451 H 0.72557 0.97025 0.536 0.0
H452 H 0.66977 0.92742 0.52835 0.0
H453 H 0.82665 0.02797 0.46623 0.0
H454 H 0.83983 0.9842 0.46083 0.0
H455 H 0.85545 0.01353 0.48454 0.0
C456 C 0.83939 0.75749 0.64088 0.0
C457 C 0.82864 0.71502 0.64847 0.0
C458 C 0.81933 0.7813 0.64881 0.0
C459 C 0.78828 0.76243 0.66487 0.0
C460 C 0.77829 0.72016 0.67295 0.0
C461 C 0.79833 0.69682 0.66456 0.0
C462 C 0.83042 0.82605 0.63965 0.0
C463 C 0.7458 0.69919 0.69025 0.0
C464 C 0.75996 0.83719 0.69667 0.0
C465 C 0.71737 0.82625 0.68916 0.0
C466 C 0.78378 0.81714 0.68874 0.0
C467 C 0.76479 0.7859 0.67276 0.0
C468 C 0.72239 0.7757 0.66476 0.0
C469 C 0.69906 0.79576 0.67314 0.0
C470 C 0.82867 0.82846 0.69781 0.0
C471 C 0.70129 0.743 0.64754 0.0
H472 H 0.86263 0.77166 0.62839 0.0
H473 H 0.7901 0.66416 0.67059 0.0
H474 H 0.79946 0.82365 0.63312 0.0
H475 H 0.84276 0.85259 0.65138 0.0
H476 H 0.85641 0.83682 0.62769 0.0
H477 H 0.74351 0.66728 0.69548 0.0
H478 H 0.75645 0.72312 0.70303 0.0
H479 H 0.71164 0.69193 0.68566 0.0
H480 H 0.77423 0.86059 0.7091 0.0
H481 H 0.66631 0.78738 0.66717 0.0
H482 H 0.85508 0.84073 0.68602 0.0
H483 H 0.82643 0.79762 0.70439 0.0
H484 H 0.83951 0.85458 0.70971 0.0
H485 H 0.72508 0.75356 0.6347 0.0
H486 H 0.66927 0.74055 0.64236 0.0
H487 H 0.69418 0.70893 0.65219 0.0
C488 C 0.92415 0.75801 0.86375 0.0
C489 C 0.89235 0.71553 0.85619 0.0
C490 C 0.96802 0.78171 0.85581 0.0
C491 C 0.9801 0.76273 0.83976 0.0
C492 C 0.94775 0.72044 0.83173 0.0
C493 C 0.90438 0.69722 0.84013 0.0
C494 C 1.00176 0.82649 0.86491 0.0
C495 C 0.95918 0.69934 0.81445 0.0
C496 C 0.08305 0.83721 0.80783 0.0
C497 C 0.11471 0.82628 0.81533 0.0
C498 C 0.03923 0.81725 0.81581 0.0
C499 C 0.02704 0.78612 0.83183 0.0
C500 C 0.05925 0.77593 0.83982 0.0
C501 C 0.10259 0.79589 0.83138 0.0
C502 C 0.00564 0.82856 0.80675 0.0
C503 C 0.04771 0.74334 0.85708 0.0
H504 H 0.91514 0.77228 0.87622 0.0
H505 H 0.87988 0.66455 0.83412 0.0
H506 H 0.03033 0.82409 0.87143 0.0
H507 H 0.01592 0.85298 0.85316 0.0
H508 H 0.98661 0.83733 0.87688 0.0
H509 H 0.92952 0.6674 0.80926 0.0
H510 H 0.97241 0.72318 0.80163 0.0
H511 H 0.98609 0.69211 0.81903 0.0
H512 H 0.09213 0.86053 0.79537 0.0
H513 H 0.12697 0.78752 0.83735 0.0
H514 H 0.9916 0.84093 0.81854 0.0
H515 H 0.97697 0.79769 0.80021 0.0
H516 H 0.02088 0.8546 0.79481 0.0
H517 H 0.03456 0.75399 0.86991 0.0
H518 H 0.07728 0.74089 0.86224 0.0
H519 H 0.0207 0.70924 0.85247 0.0
C520 C 0.20866 0.90266 0.00639 0.0
C521 C 0.17832 0.89053 0.02247 0.0
C522 C 0.22867 0.94603 0.99799 0.0
C523 C 0.21858 0.97827 0.00603 0.0
C524 C 0.1875 0.96607 0.02208 0.0
C525 C 0.16749 0.92222 0.03002 0.0
C526 C 0.26122 0.95757 0.98071 0.0
C527 C 0.17629 0.99969 0.03119 0.0
C528 C 0.30764 0.10086 0.99772 0.0
C529 C 0.28932 0.11294 0.98167 0.0
C530 C 0.28436 0.0575 0.00613 0.0
C531 C 0.24201 0.02521 0.99812 0.0
C532 C 0.22301 0.03735 0.9821 0.0
C533 C 0.24678 0.0812 0.97415 0.0
C534 C 0.30547 0.04602 0.02338 0.0
C535 C 0.17816 0.00367 0.97303 0.0
H536 H 0.21696 0.87826 1.00038 0.0
H537 H 0.14421 0.91314 0.0425 0.0
H538 H 0.25055 0.97076 0.9679 0.0
H539 H 0.29534 0.98454 0.9853 0.0
H540 H 0.26361 0.92798 0.97551 0.0
H541 H 0.15029 0.98446 0.04314 0.0
H542 H 0.20721 0.02831 0.03772 0.0
H543 H 0.16393 0.0138 0.01943 0.0
H544 H 0.34036 0.12531 0.0037 0.0
H545 H 0.2325 0.09023 0.96169 0.0
H546 H 0.31266 0.01909 0.01876 0.0
H547 H 0.28166 0.03279 0.03621 0.0
H548 H 0.33745 0.07565 0.02856 0.0
H549 H 0.18049 0.97509 0.96647 0.0
H550 H 0.1673 0.01887 0.9611 0.0
H551 H 0.15174 0.98952 0.98481 0.0
C552 C 0.20512 0.35767 0.05946 0.0
C553 C 0.16193 0.32209 0.06424 0.0
C554 C 0.23019 0.35361 0.0437 0.0
C555 C 0.21204 0.31262 0.03284 0.0
C556 C 0.1683 0.27678 0.03751 0.0
C557 C 0.14361 0.28215 0.05298 0.0
C558 C 0.27628 0.39291 0.03884 0.0
C559 C 0.14802 0.23221 0.02654 0.0
C560 C 0.25475 0.30244 0.9816 0.0
C561 C 0.28185 0.28377 0.98654 0.0
C562 C 0.23365 0.31422 0.9966 0.0
C563 C 0.23903 0.30625 0.01698 0.0
C564 C 0.26748 0.28872 0.02209 0.0
C565 C 0.28889 0.2781 0.00681 0.0
C566 C 0.20436 0.33372 0.99058 0.0
C567 C 0.27355 0.27907 0.04362 0.0
H568 H 0.21935 0.38868 0.06807 0.0
H569 H 0.11042 0.25436 0.0567 0.0
H570 H 0.30245 0.38357 0.04184 0.0
H571 H 0.27834 0.40143 0.02267 0.0
H572 H 0.28429 0.42341 0.0478 0.0
H573 H 0.11354 0.20779 0.03195 0.0
H574 H 0.14629 0.23753 0.01022 0.0
H575 H 0.16981 0.21701 0.02853 0.0
H576 H 0.24948 0.30725 0.96597 0.0
H577 H 0.30963 0.26352 0.01074 0.0
H578 H 0.21339 0.36453 0.99945 0.0
H579 H 0.16849 0.30895 0.99381 0.0
H580 H 0.20757 0.34237 0.97437 0.0
H581 H 0.28439 0.30956 0.053 0.0
H582 H 0.29879 0.26788 0.04517 0.0
H583 H 0.24081 0.25225 0.04968 0.0
C584 C 0.86251 0.14082 0.21904 0.0
C585 C 0.84234 0.15968 0.23095 0.0
C586 C 0.8928 0.16578 0.20368 0.0
C587 C 0.9025 0.21045 0.19981 0.0
C588 C 0.88113 0.22922 0.21132 0.0
C589 C 0.85165 0.20377 0.22692 0.0
C590 C 0.91542 0.14475 0.19197 0.0
C591 C 0.8899 0.27637 0.20735 0.0
C592 C 0.0145 0.28609 0.17398 0.0
C593 C 1.00157 0.28102 0.15376 0.0
C594 C 0.98241 0.26435 0.1892 0.0
C595 C 0.93617 0.23769 0.1841 0.0
C596 C 0.92271 0.23438 0.16379 0.0
C597 C 0.95563 0.25565 0.14884 0.0
C598 C 0.99825 0.26811 0.21063 0.0
C599 C 0.87367 0.20712 0.1578 0.0
H600 H 0.85578 0.10691 0.22215 0.0
H601 H 0.83603 0.21847 0.23602 0.0
H602 H 0.90833 0.14459 0.17572 0.0
H603 H 0.95256 0.16512 0.19393 0.0
H604 H 0.90399 0.10956 0.19677 0.0
H605 H 0.86837 0.28491 0.21673 0.0
H606 H 0.9258 0.30123 0.21047 0.0
H607 H 0.88363 0.28004 0.19131 0.0
H608 H 0.04999 0.30545 0.17787 0.0
H609 H 0.94542 0.25193 0.13323 0.0
H610 H 0.99097 0.23446 0.21606 0.0
H611 H 0.9797 0.27939 0.22051 0.0
H612 H 0.03502 0.29207 0.21224 0.0
H613 H 0.86119 0.17075 0.16043 0.0
H614 H 0.86835 0.21185 0.14174 0.0
H615 H 0.8529 0.21667 0.16714 0.0
C616 C 0.70187 0.95187 0.31498 0.0
C617 C 0.72235 0.99777 0.31998 0.0
C618 C 0.69012 0.91884 0.3299 0.0
C619 C 0.70007 0.93215 0.35023 0.0
C620 C 0.71959 0.97834 0.3554 0.0
C621 C 0.73004 0.01054 0.34022 0.0
C622 C 0.6684 0.86985 0.32384 0.0
C623 C 0.73147 0.99403 0.37686 0.0
C624 C 0.64914 0.84774 0.39307 0.0
C625 C 0.68394 0.83852 0.39721 0.0
C626 C 0.65323 0.87706 0.37739 0.0
C627 C 0.69346 0.89839 0.36592 0.0
C628 C 0.7284 0.88871 0.36989 0.0
C629 C 0.72301 0.85857 0.38533 0.0
C630 C 0.61487 0.8858 0.37331 0.0
C631 C 0.77213 0.91128 0.35823 0.0
H632 H 0.69552 0.94179 0.29936 0.0
H633 H 0.74609 0.04598 0.34417 0.0
H634 H 0.69227 0.85735 0.32651 0.0
H635 H 0.63797 0.84901 0.33311 0.0
H636 H 0.65853 0.86464 0.30776 0.0
H637 H 0.74438 0.0308 0.3785 0.0
H638 H 0.70151 0.9755 0.38667 0.0
H639 H 0.7577 0.9866 0.38234 0.0
H640 H 0.61878 0.83219 0.40214 0.0
H641 H 0.7502 0.85189 0.38853 0.0
H642 H 0.60519 0.87968 0.35724 0.0
H643 H 0.62581 0.92165 0.37649 0.0
H644 H 0.58466 0.86414 0.3826 0.0
H645 H 0.76531 0.90428 0.34198 0.0
H646 H 0.7958 0.89975 0.36306 0.0
H647 H 0.78898 0.94841 0.36024 0.0
C648 C 0.86509 0.72018 0.55231 0.0
C649 C 0.84598 0.68111 0.56419 0.0
C650 C 0.8404 0.72562 0.53686 0.0
C651 C 0.79575 0.69074 0.53288 0.0
C652 C 0.77675 0.65054 0.54436 0.0
C653 C 0.80193 0.6464 0.56004 0.0
C654 C 0.86167 0.76933 0.52518 0.0
C655 C 0.72961 0.61224 0.54027 0.0
C656 C 0.72046 0.72738 0.50696 0.0
C657 C 0.72563 0.71957 0.48674 0.0
C658 C 0.74209 0.71696 0.5222 0.0
C659 C 0.76873 0.69735 0.51712 0.0
C660 C 0.77218 0.68728 0.49682 0.0
C661 C 0.75102 0.69901 0.48184 0.0
C662 C 0.73819 0.72895 0.54363 0.0
C663 C 0.79942 0.66547 0.49085 0.0
H664 H 0.89898 0.74732 0.55551 0.0
H665 H 0.78704 0.61604 0.56912 0.0
H666 H 0.86195 0.76247 0.50894 0.0
H667 H 0.8414 0.7862 0.52712 0.0
H668 H 0.89685 0.79298 0.53004 0.0
H669 H 0.72092 0.58208 0.54962 0.0
H670 H 0.70476 0.6233 0.54336 0.0
H671 H 0.7261 0.60243 0.52422 0.0
H672 H 0.7011 0.7435 0.51083 0.0
H673 H 0.75482 0.69257 0.46623 0.0
H674 H 0.77184 0.75519 0.54912 0.0
H675 H 0.72668 0.69904 0.55347 0.0
H676 H 0.71435 0.7419 0.5452 0.0
H677 H 0.83578 0.68929 0.49357 0.0
H678 H 0.79485 0.65555 0.47478 0.0
H679 H 0.7897 0.63506 0.50015 0.0
C680 C 0.15635 0.79894 0.72689 0.0
C681 C 0.1656 0.84297 0.731 0.0
C682 C 0.12699 0.77364 0.71123 0.0
C683 C 0.10567 0.7925 0.69974 0.0
C684 C 0.11533 0.83712 0.7037 0.0
C685 C 0.1455 0.86194 0.71912 0.0
C686 C 0.11827 0.72654 0.70717 0.0
C687 C 0.09276 0.85825 0.69202 0.0
C688 C 0.05262 0.74766 0.64872 0.0
C689 C 0.00667 0.72225 0.65364 0.0
C690 C 0.08552 0.76884 0.6637 0.0
C691 C 0.07203 0.76538 0.68401 0.0
C692 C 0.02579 0.73868 0.6891 0.0
C693 C 0.99372 0.71705 0.67386 0.0
C694 C 0.13457 0.79614 0.65772 0.0
C695 C 0.00992 0.73476 0.71053 0.0
H696 H 0.17192 0.78416 0.73597 0.0
H697 H 0.15219 0.89581 0.72229 0.0
H698 H 0.08238 0.70163 0.71027 0.0
H699 H 0.12456 0.72301 0.69112 0.0
H700 H 0.13981 0.71795 0.71652 0.0
H701 H 0.10418 0.89341 0.69687 0.0
H702 H 0.0999 0.85853 0.67577 0.0
H703 H 0.05561 0.83788 0.69397 0.0
H704 H 0.06284 0.75149 0.63312 0.0
H705 H 0.95823 0.69765 0.67774 0.0
H706 H 0.15533 0.78652 0.66702 0.0
H707 H 0.14704 0.83249 0.6604 0.0
H708 H 0.13991 0.79152 0.64165 0.0
H709 H 0.02843 0.72338 0.72037 0.0
H710 H 0.97315 0.71082 0.71212 0.0
H711 H 0.01722 0.76838 0.71602 0.0
C712 C 0.35818 0.15448 0.89328 0.0
C713 C 0.32338 0.16373 0.89736 0.0
C714 C 0.35413 0.12504 0.87766 0.0
C715 C 0.31393 0.10365 0.86618 0.0
C716 C 0.27897 0.11332 0.87009 0.0
C717 C 0.28432 0.14357 0.88548 0.0
C718 C 0.39251 0.1163 0.87364 0.0
C719 C 0.23527 0.09068 0.85842 0.0
C720 C 0.30578 0.05027 0.81524 0.0
C721 C 0.28527 0.00436 0.82022 0.0
C722 C 0.31747 0.08327 0.83017 0.0
C723 C 0.30742 0.06991 0.85049 0.0
C724 C 0.2879 0.02371 0.85564 0.0
C725 C 0.27751 0.99154 0.84045 0.0
C726 C 0.3392 0.13227 0.82412 0.0
C727 C 0.27593 0.00798 0.8771 0.0
H728 H 0.38853 0.17009 0.90236 0.0
H729 H 0.25712 0.15026 0.88863 0.0
H730 H 0.38153 0.08044 0.8768 0.0
H731 H 0.40232 0.12247 0.85759 0.0
H732 H 0.42265 0.13792 0.88298 0.0
H733 H 0.21153 0.10214 0.86323 0.0
H734 H 0.24213 0.09769 0.84216 0.0
H735 H 0.21848 0.05355 0.86042 0.0
H736 H 0.31219 0.06039 0.79963 0.0
H737 H 0.26143 0.95609 0.84439 0.0
H738 H 0.36957 0.1531 0.83342 0.0
H739 H 0.3153 0.14474 0.82677 0.0
H740 H 0.34915 0.13751 0.80805 0.0
H741 H 0.30582 0.02655 0.88693 0.0
H742 H 0.26309 0.97122 0.87873 0.0
H743 H 0.24961 0.01532 0.88254 0.0
C744 C 0.64875 0.79972 0.77764 0.0
C745 C 0.68353 0.84372 0.77345 0.0
C746 C 0.65289 0.77457 0.79334 0.0
C747 C 0.69314 0.79354 0.80479 0.0
C748 C 0.72809 0.83813 0.80075 0.0
C749 C 0.72265 0.8628 0.78529 0.0
C750 C 0.61452 0.7275 0.79749 0.0
C751 C 0.77185 0.85936 0.81238 0.0
C752 C 0.7015 0.74894 0.85585 0.0
C753 C 0.72193 0.72343 0.85095 0.0
C754 C 0.68979 0.77011 0.84086 0.0
C755 C 0.69974 0.76654 0.82055 0.0
C756 C 0.71922 0.73978 0.81548 0.0
C757 C 0.72963 0.71816 0.83073 0.0
C758 C 0.66812 0.79748 0.84683 0.0
C759 C 0.73108 0.73574 0.79404 0.0
H760 H 0.61835 0.78486 0.7686 0.0
H761 H 0.74983 0.89665 0.78205 0.0
H762 H 0.62548 0.70257 0.79441 0.0
H763 H 0.6048 0.7241 0.81355 0.0
H764 H 0.58434 0.71884 0.78817 0.0
H765 H 0.79555 0.89449 0.80748 0.0
H766 H 0.76508 0.85974 0.82863 0.0
H767 H 0.78863 0.839 0.81045 0.0
H768 H 0.69514 0.75283 0.87145 0.0
H769 H 0.74565 0.69869 0.82686 0.0
H770 H 0.63768 0.7878 0.83756 0.0
H771 H 0.69201 0.83381 0.84407 0.0
H772 H 0.65828 0.79302 0.86291 0.0
H773 H 0.70113 0.72425 0.78423 0.0
H774 H 0.74395 0.71183 0.79248 0.0
H775 H 0.75735 0.76934 0.78851 0.0
C776 C 0.84973 0.64669 0.94472 0.0
C777 C 0.84087 0.68168 0.94045 0.0
C778 C 0.87906 0.65076 0.96039 0.0
C779 C 0.90076 0.69115 0.97173 0.0
C780 C 0.89148 0.72631 0.96763 0.0
C781 C 0.86131 0.72094 0.9522 0.0
C782 C 0.88735 0.61216 0.96462 0.0
C783 C 0.91448 0.77023 0.97913 0.0
C784 C 0.95422 0.69986 0.0227 0.0
C785 C 1.00009 0.71992 0.01769 0.0
C786 C 0.92119 0.68815 0.00778 0.0
C787 C 0.93448 0.69769 0.98743 0.0
C788 C 0.98061 0.71675 0.98225 0.0
C789 C 0.01281 0.72719 0.99743 0.0
C790 C 0.87225 0.66694 0.01387 0.0
C791 C 0.99627 0.72815 0.96076 0.0
H792 H 0.83388 0.61618 0.93575 0.0
H793 H 0.85493 0.74828 0.9489 0.0
H794 H 0.92312 0.62274 0.96145 0.0
H795 H 0.8812 0.60273 0.98071 0.0
H796 H 0.86547 0.5819 0.95541 0.0
H797 H 0.90327 0.79408 0.9742 0.0
H798 H 0.90751 0.76373 0.99541 0.0
H799 H 0.95159 0.7867 0.97711 0.0
H800 H 0.94417 0.69383 0.03833 0.0
H801 H 0.04822 0.74291 0.99346 0.0
H802 H 0.85117 0.63643 0.00468 0.0
H803 H 0.86007 0.69103 0.01109 0.0
H804 H 0.86702 0.65732 0.02998 0.0
H805 H 0.97746 0.69808 0.95105 0.0
H806 H 0.03298 0.74068 0.95911 0.0
H807 H 0.98918 0.75454 0.95517 0.0
C808 C 0.20617 0.84927 0.11072 0.0
C809 C 0.16204 0.83988 0.10671 0.0
C810 C 0.23159 0.87875 0.12632 0.0
C811 C 0.21276 0.90004 0.13786 0.0
C812 C 0.16805 0.89024 0.134 0.0
C813 C 0.14312 0.85996 0.11863 0.0
C814 C 0.27879 0.88762 0.13028 0.0
C815 C 0.14695 0.91276 0.14574 0.0
C816 C 0.25796 0.95315 0.18883 0.0
C817 C 0.28326 0.9991 0.18391 0.0
C818 C 0.23671 0.92023 0.17387 0.0
C819 C 0.23996 0.93371 0.15357 0.0
C820 C 0.26654 0.97996 0.14847 0.0
C821 C 0.28827 0.01205 0.16369 0.0
C822 C 0.20954 0.87119 0.17986 0.0
C823 C 0.27025 0.99581 0.12704 0.0
H824 H 0.22092 0.83373 0.10161 0.0
H825 H 0.10918 0.85316 0.11554 0.0
H826 H 0.30359 0.92354 0.12716 0.0
H827 H 0.28249 0.88136 0.14631 0.0
H828 H 0.28738 0.86616 0.12088 0.0
H829 H 0.11174 0.90127 0.14095 0.0
H830 H 0.14682 0.90566 0.16198 0.0
H831 H 0.16725 0.9499 0.14378 0.0
H832 H 0.25429 0.94293 0.20443 0.0
H833 H 0.30757 0.04754 0.15981 0.0
H834 H 0.21915 0.85048 0.17051 0.0
H835 H 0.17315 0.85864 0.17723 0.0
H836 H 0.2143 0.86587 0.19591 0.0
H837 H 0.28159 0.97734 0.11716 0.0
H838 H 0.29413 0.0326 0.12545 0.0
H839 H 0.23655 0.98845 0.12163 0.0
C840 C 0.28542 0.14047 0.28525 0.0
C841 C 0.32472 0.15942 0.27352 0.0
C842 C 0.28001 0.16512 0.30073 0.0
C843 C 0.31515 0.20952 0.30491 0.0
C844 C 0.35558 0.22834 0.29359 0.0
C845 C 0.35969 0.20323 0.27786 0.0
C846 C 0.23605 0.14407 0.31222 0.0
C847 C 0.39416 0.27519 0.2979 0.0
C848 C 0.27891 0.28516 0.3308 0.0
C849 C 0.28609 0.27949 0.35104 0.0
C850 C 0.28948 0.26362 0.31556 0.0
C851 C 0.30856 0.23654 0.32068 0.0
C852 C 0.31801 0.23258 0.34102 0.0
C853 C 0.30618 0.25369 0.35599 0.0
C854 C 0.27816 0.2681 0.29409 0.0
C855 C 0.33924 0.20483 0.34703 0.0
H856 H 0.25809 0.10677 0.2819 0.0
H857 H 0.39022 0.21798 0.2689 0.0
H858 H 0.24251 0.14343 0.32849 0.0
H859 H 0.21958 0.16471 0.31026 0.0
H860 H 0.21221 0.10906 0.30722 0.0
H861 H 0.42445 0.28368 0.28869 0.0
H862 H 0.38358 0.30041 0.2948 0.0
H863 H 0.40355 0.27832 0.31399 0.0
H864 H 0.26318 0.30487 0.32689 0.0
H865 H 0.31214 0.24949 0.3716 0.0
H866 H 0.2518 0.23467 0.28843 0.0
H867 H 0.30827 0.27947 0.28439 0.0
H868 H 0.26564 0.29228 0.2925 0.0
H869 H 0.31518 0.16858 0.34419 0.0
H870 H 0.34881 0.20908 0.36314 0.0
H871 H 0.36978 0.21437 0.33785 0.0
C872 C 0.14622 0.28207 0.45221 0.0
C873 C 0.16629 0.32108 0.44029 0.0
C874 C 0.11599 0.27672 0.4676 0.0
C875 C 0.10623 0.31163 0.47149 0.0
C876 C 0.12753 0.35178 0.45997 0.0
C877 C 0.15696 0.35584 0.44435 0.0
C878 C 0.09343 0.23306 0.47931 0.0
C879 C 0.11871 0.39012 0.46396 0.0
C880 C 0.99407 0.27511 0.4972 0.0
C881 C 0.00688 0.28297 0.51743 0.0
C882 C 0.02626 0.28549 0.48201 0.0
C883 C 0.07247 0.3051 0.48717 0.0
C884 C 0.08581 0.31523 0.50749 0.0
C885 C 0.0528 0.30355 0.52241 0.0
C886 C 0.01053 0.27342 0.46057 0.0
C887 C 0.13482 0.33706 0.51354 0.0
H888 H 0.15297 0.2549 0.44908 0.0
H889 H 0.17251 0.38615 0.43525 0.0
H890 H 0.10044 0.23999 0.49556 0.0
H891 H 0.0563 0.21618 0.47731 0.0
H892 H 0.10498 0.20938 0.47453 0.0
H893 H 0.14029 0.42024 0.45462 0.0
H894 H 0.08283 0.37907 0.4608 0.0
H895 H 0.12485 0.39996 0.48002 0.0
H896 H 0.95862 0.25898 0.49326 0.0
H897 H 0.06291 0.31003 0.53803 0.0
H898 H 0.01796 0.24714 0.45515 0.0
H899 H 0.02905 0.30329 0.45071 0.0
H900 H 0.97375 0.26049 0.45893 0.0
H901 H 0.14736 0.31321 0.51091 0.0
H902 H 0.14004 0.34706 0.5296 0.0
H903 H 0.15561 0.36742 0.50422 0.0
C904 C 0.74991 0.05023 0.68887 0.0
C905 C 0.7246 0.00427 0.68396 0.0
C906 C 0.77109 0.08314 0.67389 0.0
C907 C 0.76773 0.06964 0.65359 0.0
C908 C 0.74113 0.02339 0.6485 0.0
C909 C 0.71949 0.99132 0.66374 0.0
C910 C 0.79827 0.13219 0.67987 0.0
C911 C 0.73733 0.00752 0.62707 0.0
C912 C 0.80129 0.15393 0.61069 0.0
C913 C 0.84538 0.16327 0.60662 0.0
C914 C 0.77597 0.12454 0.62633 0.0
C915 C 0.79487 0.1033 0.63785 0.0
C916 C 0.83954 0.11306 0.63394 0.0
C917 C 0.86437 0.14325 0.61853 0.0
C918 C 0.72881 0.11571 0.63035 0.0
C919 C 0.8607 0.09058 0.64566 0.0
H920 H 0.75366 0.06046 0.70447 0.0
H921 H 0.70017 0.95583 0.65986 0.0
H922 H 0.83466 0.14473 0.67721 0.0
H923 H 0.78863 0.15289 0.67053 0.0
H924 H 0.79357 0.13752 0.69593 0.0
H925 H 0.71345 0.97074 0.62549 0.0
H926 H 0.72592 0.02597 0.61721 0.0
H927 H 0.77099 0.01489 0.62162 0.0
H928 H 0.78649 0.16944 0.60159 0.0
H929 H 0.89829 0.15002 0.61539 0.0
H930 H 0.72519 0.12199 0.64639 0.0
H931 H 0.70397 0.0798 0.62725 0.0
H932 H 0.72019 0.13719 0.62098 0.0
H933 H 0.8609 0.09771 0.6619 0.0
H934 H 0.8959 0.10207 0.64083 0.0
H935 H 0.84041 0.05343 0.64371 0.0
loop_
_geom_bond_atom_site_label_1
_geom_bond_atom_site_label_2
_geom_bond_distance
_geom_bond_site_symmetry_2
_ccdc_geom_bond_type
C0 O2 1.247 . S
C0 O4 1.258 . S
C1 O8 1.247 . S
C1 O9 1.258 . S
O2 C0 1.247 . S
O2 Zn3 2.028 . S
Zn3 O2 2.028 . S
Zn3 O7 2.035 . S
Zn3 O9 2.035 . S
Zn3 O10 2.028 . S
O4 C0 1.258 . S
O4 Zn5 2.035 . S
Zn5 O4 2.035 . S
Zn5 O6 2.028 . S
Zn5 O8 2.028 . S
Zn5 O11 2.035 . S
O6 Zn5 2.028 . S
O6 C12 1.247 . S
O7 Zn3 2.035 . S
O7 C12 1.258 . S
O8 C1 1.247 . S
O8 Zn5 2.028 . S
O9 C1 1.258 . S
O9 Zn3 2.035 . S
O10 Zn3 2.028 . S
O10 C13 1.247 . S
O11 Zn5 2.035 . S
O11 C13 1.258 . S
C12 O6 1.247 . S
C12 O7 1.258 . S
C13 O10 1.247 . S
C13 O11 1.258 . S
C14 O16 1.247 . S
C14 O18 1.258 . S
C15 O22 1.247 . S
C15 O23 1.258 . S
O16 C14 1.247 . S
O16 Zn17 2.028 . S
Zn17 O16 2.028 . S
Zn17 O21 2.035 . S
Zn17 O23 2.035 . S
Zn17 O24 2.028 . S
O18 C14 1.258 . S
O18 Zn19 2.035 . S
Zn19 O18 2.035 . S
Zn19 O20 2.028 . S
Zn19 O22 2.028 . S
Zn19 O25 2.035 . S
O20 Zn19 2.028 . S
O20 C26 1.247 . S
O21 Zn17 2.035 . S
O21 C26 1.258 . S
O22 C15 1.247 . S
O22 Zn19 2.028 . S
O23 C15 1.258 . S
O23 Zn17 2.035 . S
O24 Zn17 2.028 . S
O24 C27 1.247 . S
O25 Zn19 2.035 . S
O25 C27 1.258 . S
C26 O20 1.247 . S
C26 O21 1.258 . S
C27 O24 1.247 . S
C27 O25 1.258 . S
C28 O30 1.247 . S
C28 O32 1.258 . S
C29 O36 1.247 . S
C29 O37 1.258 . S
O30 C28 1.247 . S
O30 Zn31 2.028 . S
Zn31 O30 2.028 . S
Zn31 O35 2.035 . S
Zn31 O37 2.035 . S
Zn31 O38 2.028 . S
O32 C28 1.258 . S
O32 Zn33 2.035 . S
Zn33 O32 2.035 . S
Zn33 O34 2.028 . S
Zn33 O36 2.028 . S
Zn33 O39 2.035 . S
O34 Zn33 2.028 . S
O34 C40 1.247 . S
O35 Zn31 2.035 . S
O35 C40 1.258 . S
O36 C29 1.247 . S
O36 Zn33 2.028 . S
O37 C29 1.258 . S
O37 Zn31 2.035 . S
O38 Zn31 2.028 . S
O38 C41 1.247 . S
O39 Zn33 2.035 . S
O39 C41 1.258 . S
C40 O34 1.247 . S
C40 O35 1.258 . S
C41 O38 1.247 . S
C41 O39 1.258 . S
C42 O44 1.247 . S
C42 O46 1.258 . S
C43 O50 1.247 . S
C43 O51 1.258 . S
O44 C42 1.247 . S
O44 Zn45 2.028 . S
Zn45 O44 2.028 . S
Zn45 O49 2.035 . S
Zn45 O51 2.035 . S
Zn45 O52 2.028 . S
O46 C42 1.258 . S
O46 Zn47 2.035 . S
Zn47 O46 2.035 . S
Zn47 O48 2.028 . S
Zn47 O50 2.028 . S
Zn47 O53 2.035 . S
O48 Zn47 2.028 . S
O48 C54 1.247 . S
O49 Zn45 2.035 . S
O49 C54 1.258 . S
O50 C43 1.247 . S
O50 Zn47 2.028 . S
O51 C43 1.258 . S
O51 Zn45 2.035 . S
O52 Zn45 2.028 . S
O52 C55 1.247 . S
O53 Zn47 2.035 . S
O53 C55 1.258 . S
C54 O48 1.247 . S
C54 O49 1.258 . S
C55 O52 1.247 . S
C55 O53 1.258 . S
C56 O58 1.247 . S
C56 O60 1.258 . S
C57 O64 1.247 . S
C57 O65 1.258 . S
O58 C56 1.247 . S
O58 Zn59 2.028 . S
Zn59 O58 2.028 . S
Zn59 O63 2.035 . S
Zn59 O65 2.035 . S
Zn59 O66 2.028 . S
O60 C56 1.258 . S
O60 Zn61 2.035 . S
Zn61 O60 2.035 . S
Zn61 O62 2.028 . S
Zn61 O64 2.028 . S
Zn61 O67 2.035 . S
O62 Zn61 2.028 . S
O62 C68 1.247 . S
O63 Zn59 2.035 . S
O63 C68 1.258 . S
O64 C57 1.247 . S
O64 Zn61 2.028 . S
O65 C57 1.258 . S
O65 Zn59 2.035 . S
O66 Zn59 2.028 . S
O66 C69 1.247 . S
O67 Zn61 2.035 . S
O67 C69 1.258 . S
C68 O62 1.247 . S
C68 O63 1.258 . S
C69 O66 1.247 . S
C69 O67 1.258 . S
C70 O72 1.247 . S
C70 O74 1.258 . S
C71 O78 1.247 . S
C71 O79 1.258 . S
O72 C70 1.247 . S
O72 Zn73 2.028 . S
Zn73 O72 2.028 . S
Zn73 O77 2.035 . S
Zn73 O79 2.035 . S
Zn73 O80 2.028 . S
O74 C70 1.258 . S
O74 Zn75 2.035 . S
Zn75 O74 2.035 . S
Zn75 O76 2.028 . S
Zn75 O78 2.028 . S
Zn75 O81 2.035 . S
O76 Zn75 2.028 . S
O76 C82 1.247 . S
O77 Zn73 2.035 . S
O77 C82 1.258 . S
O78 C71 1.247 . S
O78 Zn75 2.028 . S
O79 C71 1.258 . S
O79 Zn73 2.035 . S
O80 Zn73 2.028 . S
O80 C83 1.247 . S
O81 Zn75 2.035 . S
O81 C83 1.258 . S
C82 O76 1.247 . S
C82 O77 1.258 . S
C83 O80 1.247 . S
C83 O81 1.258 . S
C84 O86 1.247 . S
C84 O88 1.258 . S
C85 O92 1.247 . S
C85 O93 1.258 . S
O86 C84 1.247 . S
O86 Zn87 2.028 . S
Zn87 O86 2.028 . S
Zn87 O91 2.035 . S
Zn87 O93 2.035 . S
Zn87 O94 2.028 . S
O88 C84 1.258 . S
O88 Zn89 2.035 . S
Zn89 O88 2.035 . S
Zn89 O90 2.028 . S
Zn89 O92 2.028 . S
Zn89 O95 2.035 . S
O90 Zn89 2.028 . S
O90 C96 1.247 . S
O91 Zn87 2.035 . S
O91 C96 1.258 . S
O92 C85 1.247 . S
O92 Zn89 2.028 . S
O93 C85 1.258 . S
O93 Zn87 2.035 . S
O94 Zn87 2.028 . S
O94 C97 1.247 . S
O95 Zn89 2.035 . S
O95 C97 1.258 . S
C96 O90 1.247 . S
C96 O91 1.258 . S
C97 O94 1.247 . S
C97 O95 1.258 . S
C98 O100 1.247 . S
C98 O102 1.258 . S
C99 O106 1.247 . S
C99 O107 1.258 . S
O100 C98 1.247 . S
O100 Zn101 2.028 . S
Zn101 O100 2.028 . S
Zn101 O105 2.035 . S
Zn101 O107 2.035 . S
Zn101 O108 2.028 . S
O102 C98 1.258 . S
O102 Zn103 2.035 . S
Zn103 O102 2.035 . S
Zn103 O104 2.028 . S
Zn103 O106 2.028 . S
Zn103 O109 2.035 . S
O104 Zn103 2.028 . S
O104 C110 1.247 . S
O105 Zn101 2.035 . S
O105 C110 1.258 . S
O106 C99 1.247 . S
O106 Zn103 2.028 . S
O107 C99 1.258 . S
O107 Zn101 2.035 . S
O108 Zn101 2.028 . S
O108 C111 1.247 . S
O109 Zn103 2.035 . S
O109 C111 1.258 . S
C110 O104 1.247 . S
C110 O105 1.258 . S
C111 O108 1.247 . S
C111 O109 1.258 . S
C112 O114 1.247 . S
C112 O116 1.258 . S
C113 O120 1.247 . S
C113 O121 1.258 . S
O114 C112 1.247 . S
O114 Zn115 2.028 . S
Zn115 O114 2.028 . S
Zn115 O119 2.035 . S
Zn115 O121 2.035 . S
Zn115 O122 2.028 . S
O116 C112 1.258 . S
O116 Zn117 2.035 . S
Zn117 O116 2.035 . S
Zn117 O118 2.028 . S
Zn117 O120 2.028 . S
Zn117 O123 2.035 . S
O118 Zn117 2.028 . S
O118 C124 1.247 . S
O119 Zn115 2.035 . S
O119 C124 1.258 . S
O120 C113 1.247 . S
O120 Zn117 2.028 . S
O121 C113 1.258 . S
O121 Zn115 2.035 . S
O122 Zn115 2.028 . S
O122 C125 1.247 . S
O123 Zn117 2.035 . S
O123 C125 1.258 . S
C124 O118 1.247 . S
C124 O119 1.258 . S
C125 O122 1.247 . S
C125 O123 1.258 . S
C126 O128 1.247 . S
C126 O130 1.258 . S
C127 O134 1.247 . S
C127 O135 1.258 . S
O128 C126 1.247 . S
O128 Zn129 2.028 . S
Zn129 O128 2.028 . S
Zn129 O133 2.035 . S
Zn129 O135 2.035 . S
Zn129 O136 2.028 . S
O130 C126 1.258 . S
O130 Zn131 2.035 . S
Zn131 O130 2.035 . S
Zn131 O132 2.028 . S
Zn131 O134 2.028 . S
Zn131 O137 2.035 . S
O132 Zn131 2.028 . S
O132 C138 1.247 . S
O133 Zn129 2.035 . S
O133 C138 1.258 . S
O134 C127 1.247 . S
O134 Zn131 2.028 . S
O135 C127 1.258 . S
O135 Zn129 2.035 . S
O136 Zn129 2.028 . S
O136 C139 1.247 . S
O137 Zn131 2.035 . S
O137 C139 1.258 . S
C138 O132 1.247 . S
C138 O133 1.258 . S
C139 O136 1.247 . S
C139 O137 1.258 . S
C140 O142 1.247 . S
C140 O144 1.258 . S
C141 O148 1.247 . S
C141 O149 1.258 . S
O142 C140 1.247 . S
O142 Zn143 2.028 . S
Zn143 O142 2.028 . S
Zn143 O147 2.035 . S
Zn143 O149 2.035 . S
Zn143 O150 2.028 . S
O144 C140 1.258 . S
O144 Zn145 2.035 . S
Zn145 O144 2.035 . S
Zn145 O146 2.028 . S
Zn145 O148 2.028 . S
Zn145 O151 2.035 . S
O146 Zn145 2.028 . S
O146 C152 1.247 . S
O147 Zn143 2.035 . S
O147 C152 1.258 . S
O148 C141 1.247 . S
O148 Zn145 2.028 . S
O149 C141 1.258 . S
O149 Zn143 2.035 . S
O150 Zn143 2.028 . S
O150 C153 1.247 . S
O151 Zn145 2.035 . S
O151 C153 1.258 . S
C152 O146 1.247 . S
C152 O147 1.258 . S
C153 O150 1.247 . S
C153 O151 1.258 . S
C154 O156 1.247 . S
C154 O158 1.258 . S
C155 O162 1.247 . S
C155 O163 1.258 . S
O156 C154 1.247 . S
O156 Zn157 2.028 . S
Zn157 O156 2.028 . S
Zn157 O161 2.035 . S
Zn157 O163 2.035 . S
Zn157 O164 2.028 . S
O158 C154 1.258 . S
O158 Zn159 2.035 . S
Zn159 O158 2.035 . S
Zn159 O160 2.028 . S
Zn159 O162 2.028 . S
Zn159 O165 2.035 . S
O160 Zn159 2.028 . S
O160 C166 1.247 . S
O161 Zn157 2.035 . S
O161 C166 1.258 . S
O162 C155 1.247 . S
O162 Zn159 2.028 . S
O163 C155 1.258 . S
O163 Zn157 2.035 . S
O164 Zn157 2.028 . S
O164 C167 1.247 . S
O165 Zn159 2.035 . S
O165 C167 1.258 . S
C166 O160 1.247 . S
C166 O161 1.258 . S
C167 O164 1.247 . S
C167 O165 1.258 . S
C168 C169 1.391 . S
C168 C170 1.394 . S
C168 H184 0.931 . S
C169 C168 1.391 . S
C169 C173 1.376 . S
C170 C168 1.394 . S
C170 C171 1.369 . S
C170 C174 1.531 . S
C171 C170 1.369 . S
C171 C172 1.410 . S
C171 C179 1.503 . S
C172 C171 1.410 . S
C172 C173 1.392 . S
C172 C175 1.511 . S
C173 C169 1.376 . S
C173 C172 1.392 . S
C173 H185 0.929 . S
C174 C170 1.531 . S
C174 H186 0.960 . S
C174 H187 0.962 . S
C174 H188 0.960 . S
C175 C172 1.511 . S
C175 H189 0.961 . S
C175 H190 0.961 . S
C175 H191 0.961 . S
C176 C177 1.370 . S
C176 C178 1.363 . S
C176 H192 0.931 . S
C177 C176 1.370 . S
C177 C181 1.408 . S
C178 C176 1.363 . S
C178 C179 1.370 . S
C178 C182 1.524 . S
C179 C171 1.503 . S
C179 C178 1.370 . S
C179 C180 1.403 . S
C180 C179 1.403 . S
C180 C181 1.404 . S
C180 C183 1.539 . S
C181 C177 1.408 . S
C181 C180 1.404 . S
C181 H193 0.930 . S
C182 C178 1.524 . S
C182 H194 0.956 . S
C182 H195 0.961 . S
C182 H196 0.961 . S
C183 C180 1.539 . S
C183 H197 0.958 . S
C183 H198 0.961 . S
C183 H199 0.960 . S
H184 C168 0.931 . S
H185 C173 0.929 . S
H186 C174 0.960 . S
H187 C174 0.962 . S
H188 C174 0.960 . S
H189 C175 0.961 . S
H190 C175 0.961 . S
H191 C175 0.961 . S
H192 C176 0.931 . S
H193 C181 0.930 . S
H194 C182 0.956 . S
H195 C182 0.961 . S
H196 C182 0.961 . S
H197 C183 0.958 . S
H198 C183 0.961 . S
H199 C183 0.960 . S
C200 C201 1.391 . S
C200 C202 1.394 . S
C200 H216 0.931 . S
C201 C200 1.391 . S
C201 C205 1.376 . S
C202 C200 1.394 . S
C202 C203 1.369 . S
C202 C206 1.531 . S
C203 C202 1.369 . S
C203 C204 1.410 . S
C203 C211 1.503 . S
C204 C203 1.410 . S
C204 C205 1.392 . S
C204 C207 1.511 . S
C205 C201 1.376 . S
C205 C204 1.392 . S
C205 H217 0.929 . S
C206 C202 1.531 . S
C206 H218 0.960 . S
C206 H219 0.962 . S
C206 H220 0.960 . S
C207 C204 1.511 . S
C207 H221 0.961 . S
C207 H222 0.961 . S
C207 H223 0.961 . S
C208 C209 1.370 . S
C208 C210 1.363 . S
C208 H224 0.931 . S
C209 C208 1.370 . S
C209 C213 1.408 . S
C210 C208 1.363 . S
C210 C211 1.370 . S
C210 C214 1.524 . S
C211 C203 1.503 . S
C211 C210 1.370 . S
C211 C212 1.403 . S
C212 C211 1.403 . S
C212 C213 1.404 . S
C212 C215 1.539 . S
C213 C209 1.408 . S
C213 C212 1.404 . S
C213 H225 0.930 . S
C214 C210 1.524 . S
C214 H226 0.956 . S
C214 H227 0.961 . S
C214 H228 0.961 . S
C215 C212 1.539 . S
C215 H229 0.958 . S
C215 H230 0.961 . S
C215 H231 0.960 . S
H216 C200 0.931 . S
H217 C205 0.929 . S
H218 C206 0.960 . S
H219 C206 0.962 . S
H220 C206 0.960 . S
H221 C207 0.961 . S
H222 C207 0.961 . S
H223 C207 0.961 . S
H224 C208 0.931 . S
H225 C213 0.930 . S
H226 C214 0.956 . S
H227 C214 0.961 . S
H228 C214 0.961 . S
H229 C215 0.958 . S
H230 C215 0.961 . S
H231 C215 0.960 . S
C232 C233 1.391 . S
C232 C234 1.394 . S
C232 H248 0.931 . S
C233 C232 1.391 . S
C233 C237 1.376 . S
C234 C232 1.394 . S
C234 C235 1.369 . S
C234 C238 1.531 . S
C235 C234 1.369 . S
C235 C236 1.410 . S
C235 C243 1.503 . S
C236 C235 1.410 . S
C236 C237 1.392 . S
C236 C239 1.511 . S
C237 C233 1.376 . S
C237 C236 1.392 . S
C237 H249 0.929 . S
C238 C234 1.531 . S
C238 H250 0.960 . S
C238 H251 0.962 . S
C238 H252 0.960 . S
C239 C236 1.511 . S
C239 H253 0.961 . S
C239 H254 0.961 . S
C239 H255 0.961 . S
C240 C241 1.370 . S
C240 C242 1.363 . S
C240 H256 0.931 . S
C241 C240 1.370 . S
C241 C245 1.408 . S
C242 C240 1.363 . S
C242 C243 1.370 . S
C242 C246 1.524 . S
C243 C235 1.503 . S
C243 C242 1.370 . S
C243 C244 1.403 . S
C244 C243 1.403 . S
C244 C245 1.404 . S
C244 C247 1.539 . S
C245 C241 1.408 . S
C245 C244 1.404 . S
C245 H257 0.930 . S
C246 C242 1.524 . S
C246 H258 0.956 . S
C246 H259 0.961 . S
C246 H260 0.961 . S
C247 C244 1.539 . S
C247 H261 0.958 . S
C247 H262 0.961 . S
C247 H263 0.960 . S
H248 C232 0.931 . S
H249 C237 0.929 . S
H250 C238 0.960 . S
H251 C238 0.962 . S
H252 C238 0.960 . S
H253 C239 0.961 . S
H254 C239 0.961 . S
H255 C239 0.961 . S
H256 C240 0.931 . S
H257 C245 0.930 . S
H258 C246 0.956 . S
H259 C246 0.961 . S
H260 C246 0.961 . S
H261 C247 0.958 . S
H262 C247 0.961 . S
H263 C247 0.960 . S
C264 C265 1.391 . S
C264 C266 1.394 . S
C264 H280 0.931 . S
C265 C264 1.391 . S
C265 C269 1.376 . S
C266 C264 1.394 . S
C266 C267 1.369 . S
C266 C270 1.531 . S
C267 C266 1.369 . S
C267 C268 1.410 . S
C267 C275 1.503 . S
C268 C267 1.410 . S
C268 C269 1.392 . S
C268 C271 1.511 . S
C269 C265 1.376 . S
C269 C268 1.392 . S
C269 H281 0.929 . S
C270 C266 1.531 . S
C270 H282 0.960 . S
C270 H283 0.962 . S
C270 H284 0.960 . S
C271 C268 1.511 . S
C271 H285 0.961 . S
C271 H286 0.961 . S
C271 H287 0.961 . S
C272 C273 1.370 . S
C272 C274 1.363 . S
C272 H288 0.931 . S
C273 C272 1.370 . S
C273 C277 1.408 . S
C274 C272 1.363 . S
C274 C275 1.370 . S
C274 C278 1.524 . S
C275 C267 1.503 . S
C275 C274 1.370 . S
C275 C276 1.403 . S
C276 C275 1.403 . S
C276 C277 1.404 . S
C276 C279 1.539 . S
C277 C273 1.408 . S
C277 C276 1.404 . S
C277 H289 0.930 . S
C278 C274 1.524 . S
C278 H290 0.956 . S
C278 H291 0.961 . S
C278 H292 0.961 . S
C279 C276 1.539 . S
C279 H293 0.958 . S
C279 H294 0.961 . S
C279 H295 0.960 . S
H280 C264 0.931 . S
H281 C269 0.929 . S
H282 C270 0.960 . S
H283 C270 0.962 . S
H284 C270 0.960 . S
H285 C271 0.961 . S
H286 C271 0.961 . S
H287 C271 0.961 . S
H288 C272 0.931 . S
H289 C277 0.930 . S
H290 C278 0.956 . S
H291 C278 0.961 . S
H292 C278 0.961 . S
H293 C279 0.958 . S
H294 C279 0.961 . S
H295 C279 0.960 . S
C296 C297 1.391 . S
C296 C298 1.394 . S
C296 H312 0.931 . S
C297 C296 1.391 . S
C297 C301 1.376 . S
C298 C296 1.394 . S
C298 C299 1.369 . S
C298 C302 1.531 . S
C299 C298 1.369 . S
C299 C300 1.410 . S
C299 C307 1.503 . S
C300 C299 1.410 . S
C300 C301 1.392 . S
C300 C303 1.511 . S
C301 C297 1.376 . S
C301 C300 1.392 . S
C301 H313 0.929 . S
C302 C298 1.531 . S
C302 H314 0.960 . S
C302 H315 0.962 . S
C302 H316 0.960 . S
C303 C300 1.511 . S
C303 H317 0.961 . S
C303 H318 0.961 . S
C303 H319 0.961 . S
C304 C305 1.370 . S
C304 C306 1.363 . S
C304 H320 0.931 . S
C305 C304 1.370 . S
C305 C309 1.408 . S
C306 C304 1.363 . S
C306 C307 1.370 . S
C306 C310 1.524 . S
C307 C299 1.503 . S
C307 C306 1.370 . S
C307 C308 1.403 . S
C308 C307 1.403 . S
C308 C309 1.404 . S
C308 C311 1.539 . S
C309 C305 1.408 . S
C309 C308 1.404 . S
C309 H321 0.930 . S
C310 C306 1.524 . S
C310 H322 0.956 . S
C310 H323 0.961 . S
C310 H324 0.961 . S
C311 C308 1.539 . S
C311 H325 0.958 . S
C311 H326 0.961 . S
C311 H327 0.960 . S
H312 C296 0.931 . S
H313 C301 0.929 . S
H314 C302 0.960 . S
H315 C302 0.962 . S
H316 C302 0.960 . S
H317 C303 0.961 . S
H318 C303 0.961 . S
H319 C303 0.961 . S
H320 C304 0.931 . S
H321 C309 0.930 . S
H322 C310 0.956 . S
H323 C310 0.961 . S
H324 C310 0.961 . S
H325 C311 0.958 . S
H326 C311 0.961 . S
H327 C311 0.960 . S
C328 C329 1.391 . S
C328 C330 1.394 . S
C328 H344 0.931 . S
C329 C328 1.391 . S
C329 C333 1.376 . S
C330 C328 1.394 . S
C330 C331 1.369 . S
C330 C334 1.531 . S
C331 C330 1.369 . S
C331 C332 1.410 . S
C331 C339 1.503 . S
C332 C331 1.410 . S
C332 C333 1.392 . S
C332 C335 1.511 . S
C333 C329 1.376 . S
C333 C332 1.392 . S
C333 H345 0.929 . S
C334 C330 1.531 . S
C334 H346 0.960 . S
C334 H347 0.962 . S
C334 H348 0.960 . S
C335 C332 1.511 . S
C335 H349 0.961 . S
C335 H350 0.961 . S
C335 H351 0.961 . S
C336 C337 1.370 . S
C336 C338 1.363 . S
C336 H352 0.931 . S
C337 C336 1.370 . S
C337 C341 1.408 . S
C338 C336 1.363 . S
C338 C339 1.370 . S
C338 C342 1.524 . S
C339 C331 1.503 . S
C339 C338 1.370 . S
C339 C340 1.403 . S
C340 C339 1.403 . S
C340 C341 1.404 . S
C340 C343 1.539 . S
C341 C337 1.408 . S
C341 C340 1.404 . S
C341 H353 0.930 . S
C342 C338 1.524 . S
C342 H354 0.956 . S
C342 H355 0.961 . S
C342 H356 0.961 . S
C343 C340 1.539 . S
C343 H357 0.958 . S
C343 H358 0.961 . S
C343 H359 0.960 . S
H344 C328 0.931 . S
H345 C333 0.929 . S
H346 C334 0.960 . S
H347 C334 0.962 . S
H348 C334 0.960 . S
H349 C335 0.961 . S
H350 C335 0.961 . S
H351 C335 0.961 . S
H352 C336 0.931 . S
H353 C341 0.930 . S
H354 C342 0.956 . S
H355 C342 0.961 . S
H356 C342 0.961 . S
H357 C343 0.958 . S
H358 C343 0.961 . S
H359 C343 0.960 . S
C360 C361 1.391 . S
C360 C362 1.394 . S
C360 H376 0.931 . S
C361 C360 1.391 . S
C361 C365 1.376 . S
C362 C360 1.394 . S
C362 C363 1.369 . S
C362 C366 1.531 . S
C363 C362 1.369 . S
C363 C364 1.410 . S
C363 C371 1.503 . S
C364 C363 1.410 . S
C364 C365 1.392 . S
C364 C367 1.511 . S
C365 C361 1.376 . S
C365 C364 1.392 . S
C365 H377 0.929 . S
C366 C362 1.531 . S
C366 H378 0.960 . S
C366 H379 0.962 . S
C366 H380 0.960 . S
C367 C364 1.511 . S
C367 H381 0.961 . S
C367 H382 0.961 . S
C367 H383 0.961 . S
C368 C369 1.370 . S
C368 C370 1.363 . S
C368 H384 0.931 . S
C369 C368 1.370 . S
C369 C373 1.408 . S
C370 C368 1.363 . S
C370 C371 1.370 . S
C370 C374 1.524 . S
C371 C363 1.503 . S
C371 C370 1.370 . S
C371 C372 1.403 . S
C372 C371 1.403 . S
C372 C373 1.404 . S
C372 C375 1.539 . S
C373 C369 1.408 . S
C373 C372 1.404 . S
C373 H385 0.930 . S
C374 C370 1.524 . S
C374 H386 0.956 . S
C374 H387 0.961 . S
C374 H388 0.961 . S
C375 C372 1.539 . S
C375 H389 0.958 . S
C375 H390 0.961 . S
C375 H391 0.960 . S
H376 C360 0.931 . S
H377 C365 0.929 . S
H378 C366 0.960 . S
H379 C366 0.962 . S
H380 C366 0.960 . S
H381 C367 0.961 . S
H382 C367 0.961 . S
H383 C367 0.961 . S
H384 C368 0.931 . S
H385 C373 0.930 . S
H386 C374 0.956 . S
H387 C374 0.961 . S
H388 C374 0.961 . S
H389 C375 0.958 . S
H390 C375 0.961 . S
H391 C375 0.960 . S
C392 C393 1.391 . S
C392 C394 1.394 . S
C392 H408 0.931 . S
C393 C392 1.391 . S
C393 C397 1.376 . S
C394 C392 1.394 . S
C394 C395 1.369 . S
C394 C398 1.531 . S
C395 C394 1.369 . S
C395 C396 1.410 . S
C395 C403 1.503 1_655 S
C396 C395 1.410 . S
C396 C397 1.392 . S
C396 C399 1.511 . S
C397 C393 1.376 . S
C397 C396 1.392 . S
C397 H409 0.929 . S
C398 C394 1.531 . S
C398 H410 0.960 . S
C398 H411 0.962 . S
C398 H412 0.960 . S
C399 C396 1.511 . S
C399 H413 0.961 . S
C399 H414 0.961 1_655 S
C399 H415 0.961 . S
C400 C401 1.370 . S
C400 C402 1.363 . S
C400 H416 0.931 . S
C401 C400 1.370 . S
C401 C405 1.408 . S
C402 C400 1.363 . S
C402 C403 1.370 . S
C402 C406 1.524 . S
C403 C395 1.503 1_455 S
C403 C402 1.370 . S
C403 C404 1.403 . S
C404 C403 1.403 . S
C404 C405 1.404 . S
C404 C407 1.539 1_455 S
C405 C401 1.408 . S
C405 C404 1.404 . S
C405 H417 0.930 . S
C406 C402 1.524 . S
C406 H418 0.956 . S
C406 H419 0.961 . S
C406 H420 0.961 . S
C407 C404 1.539 1_655 S
C407 H421 0.958 . S
C407 H422 0.961 . S
C407 H423 0.960 . S
H408 C392 0.931 . S
H409 C397 0.929 . S
H410 C398 0.960 . S
H411 C398 0.962 . S
H412 C398 0.960 . S
H413 C399 0.961 . S
H414 C399 0.961 1_455 S
H415 C399 0.961 . S
H416 C400 0.931 . S
H417 C405 0.930 . S
H418 C406 0.956 . S
H419 C406 0.961 . S
H420 C406 0.961 . S
H421 C407 0.958 . S
H422 C407 0.961 . S
H423 C407 0.960 . S
C424 C425 1.391 . S
C424 C426 1.394 . S
C424 H440 0.931 . S
C425 C424 1.391 . S
C425 C429 1.376 . S
C426 C424 1.394 . S
C426 C427 1.369 . S
C426 C430 1.531 . S
C427 C426 1.369 . S
C427 C428 1.410 . S
C427 C435 1.503 1_545 S
C428 C427 1.410 . S
C428 C429 1.392 . S
C428 C431 1.511 1_545 S
C429 C425 1.376 . S
C429 C428 1.392 . S
C429 H441 0.929 . S
C430 C426 1.531 . S
C430 H442 0.960 . S
C430 H443 0.962 . S
C430 H444 0.960 . S
C431 C428 1.511 1_565 S
C431 H445 0.961 . S
C431 H446 0.961 . S
C431 H447 0.961 . S
C432 C433 1.370 . S
C432 C434 1.363 . S
C432 H448 0.931 . S
C433 C432 1.370 . S
C433 C437 1.408 . S
C434 C432 1.363 . S
C434 C435 1.370 . S
C434 C438 1.524 . S
C435 C427 1.503 1_565 S
C435 C434 1.370 . S
C435 C436 1.403 . S
C436 C435 1.403 . S
C436 C437 1.404 . S
C436 C439 1.539 1_565 S
C437 C433 1.408 . S
C437 C436 1.404 . S
C437 H449 0.930 . S
C438 C434 1.524 . S
C438 H450 0.956 . S
C438 H451 0.961 . S
C438 H452 0.961 . S
C439 C436 1.539 1_545 S
C439 H453 0.958 . S
C439 H454 0.961 . S
C439 H455 0.960 . S
H440 C424 0.931 . S
H441 C429 0.929 . S
H442 C430 0.960 . S
H443 C430 0.962 . S
H444 C430 0.960 . S
H445 C431 0.961 . S
H446 C431 0.961 . S
H447 C431 0.961 . S
H448 C432 0.931 . S
H449 C437 0.930 . S
H450 C438 0.956 . S
H451 C438 0.961 . S
H452 C438 0.961 . S
H453 C439 0.958 . S
H454 C439 0.961 . S
H455 C439 0.960 . S
C456 C457 1.391 . S
C456 C458 1.394 . S
C456 H472 0.931 . S
C457 C456 1.391 . S
C457 C461 1.376 . S
C458 C456 1.394 . S
C458 C459 1.369 . S
C458 C462 1.531 . S
C459 C458 1.369 . S
C459 C460 1.410 . S
C459 C467 1.503 . S
C460 C459 1.410 . S
C460 C461 1.392 . S
C460 C463 1.511 . S
C461 C457 1.376 . S
C461 C460 1.392 . S
C461 H473 0.929 . S
C462 C458 1.531 . S
C462 H474 0.960 . S
C462 H475 0.962 . S
C462 H476 0.960 . S
C463 C460 1.511 . S
C463 H477 0.961 . S
C463 H478 0.961 . S
C463 H479 0.961 . S
C464 C465 1.370 . S
C464 C466 1.363 . S
C464 H480 0.931 . S
C465 C464 1.370 . S
C465 C469 1.408 . S
C466 C464 1.363 . S
C466 C467 1.370 . S
C466 C470 1.524 . S
C467 C459 1.503 . S
C467 C466 1.370 . S
C467 C468 1.403 . S
C468 C467 1.403 . S
C468 C469 1.404 . S
C468 C471 1.539 . S
C469 C465 1.408 . S
C469 C468 1.404 . S
C469 H481 0.930 . S
C470 C466 1.524 . S
C470 H482 0.956 . S
C470 H483 0.961 . S
C470 H484 0.961 . S
C471 C468 1.539 . S
C471 H485 0.958 . S
C471 H486 0.961 . S
C471 H487 0.960 . S
H472 C456 0.931 . S
H473 C461 0.929 . S
H474 C462 0.960 . S
H475 C462 0.962 . S
H476 C462 0.960 . S
H477 C463 0.961 . S
H478 C463 0.961 . S
H479 C463 0.961 . S
H480 C464 0.931 . S
H481 C469 0.930 . S
H482 C470 0.956 . S
H483 C470 0.961 . S
H484 C470 0.961 . S
H485 C471 0.958 . S
H486 C471 0.961 . S
H487 C471 0.960 . S
C488 C489 1.391 . S
C488 C490 1.394 . S
C488 H504 0.931 . S
C489 C488 1.391 . S
C489 C493 1.376 . S
C490 C488 1.394 . S
C490 C491 1.369 . S
C490 C494 1.531 1_655 S
C491 C490 1.369 . S
C491 C492 1.410 . S
C491 C499 1.503 1_655 S
C492 C491 1.410 . S
C492 C493 1.392 . S
C492 C495 1.511 . S
C493 C489 1.376 . S
C493 C492 1.392 . S
C493 H505 0.929 . S
C494 C490 1.531 1_455 S
C494 H506 0.960 . S
C494 H507 0.962 . S
C494 H508 0.960 . S
C495 C492 1.511 . S
C495 H509 0.961 . S
C495 H510 0.961 . S
C495 H511 0.961 . S
C496 C497 1.370 . S
C496 C498 1.363 . S
C496 H512 0.931 . S
C497 C496 1.370 . S
C497 C501 1.408 . S
C498 C496 1.363 . S
C498 C499 1.370 . S
C498 C502 1.524 . S
C499 C491 1.503 1_455 S
C499 C498 1.370 . S
C499 C500 1.403 . S
C500 C499 1.403 . S
C500 C501 1.404 . S
C500 C503 1.539 . S
C501 C497 1.408 . S
C501 C500 1.404 . S
C501 H513 0.930 . S
C502 C498 1.524 . S
C502 H514 0.956 . S
C502 H515 0.961 1_455 S
C502 H516 0.961 . S
C503 C500 1.539 . S
C503 H517 0.958 . S
C503 H518 0.961 . S
C503 H519 0.960 . S
H504 C488 0.931 . S
H505 C493 0.929 . S
H506 C494 0.960 . S
H507 C494 0.962 . S
H508 C494 0.960 . S
H509 C495 0.961 . S
H510 C495 0.961 . S
H511 C495 0.961 . S
H512 C496 0.931 . S
H513 C501 0.930 . S
H514 C502 0.956 . S
H515 C502 0.961 1_655 S
H516 C502 0.961 . S
H517 C503 0.958 . S
H518 C503 0.961 . S
H519 C503 0.960 . S
C520 C521 1.391 . S
C520 C522 1.394 . S
C520 H536 0.931 . S
C521 C520 1.391 . S
C521 C525 1.376 . S
C522 C520 1.394 . S
C522 C523 1.369 . S
C522 C526 1.531 1_554 S
C523 C522 1.369 . S
C523 C524 1.410 . S
C523 C531 1.503 1_564 S
C524 C523 1.410 . S
C524 C525 1.392 . S
C524 C527 1.511 1_565 S
C525 C521 1.376 . S
C525 C524 1.392 . S
C525 H537 0.929 . S
C526 C522 1.531 1_556 S
C526 H538 0.960 . S
C526 H539 0.962 . S
C526 H540 0.960 . S
C527 C524 1.511 1_545 S
C527 H541 0.961 . S
C527 H542 0.961 . S
C527 H543 0.961 1_545 S
C528 C529 1.370 . S
C528 C530 1.363 . S
C528 H544 0.931 . S
C529 C528 1.370 . S
C529 C533 1.408 . S
C530 C528 1.363 . S
C530 C531 1.370 . S
C530 C534 1.524 1_556 S
C531 C523 1.503 1_546 S
C531 C530 1.370 . S
C531 C532 1.403 . S
C532 C531 1.403 . S
C532 C533 1.404 . S
C532 C535 1.539 1_545 S
C533 C529 1.408 . S
C533 C532 1.404 . S
C533 H545 0.930 . S
C534 C530 1.524 1_554 S
C534 H546 0.956 . S
C534 H547 0.961 . S
C534 H548 0.961 . S
C535 C532 1.539 1_565 S
C535 H549 0.958 . S
C535 H550 0.961 . S
C535 H551 0.960 . S
H536 C520 0.931 . S
H537 C525 0.929 . S
H538 C526 0.960 . S
H539 C526 0.962 . S
H540 C526 0.960 . S
H541 C527 0.961 . S
H542 C527 0.961 . S
H543 C527 0.961 1_565 S
H544 C528 0.931 . S
H545 C533 0.930 . S
H546 C534 0.956 . S
H547 C534 0.961 . S
H548 C534 0.961 . S
H549 C535 0.958 . S
H550 C535 0.961 . S
H551 C535 0.960 . S
C552 C553 1.391 . S
C552 C554 1.394 . S
C552 H568 0.931 . S
C553 C552 1.391 . S
C553 C557 1.376 . S
C554 C552 1.394 . S
C554 C555 1.369 . S
C554 C558 1.531 . S
C555 C554 1.369 . S
C555 C556 1.410 . S
C555 C563 1.503 . S
C556 C555 1.410 . S
C556 C557 1.392 . S
C556 C559 1.511 . S
C557 C553 1.376 . S
C557 C556 1.392 . S
C557 H569 0.929 . S
C558 C554 1.531 . S
C558 H570 0.960 . S
C558 H571 0.968 . S
C558 H572 0.960 . S
C559 C556 1.511 . S
C559 H573 0.961 . S
C559 H574 0.961 . S
C559 H575 0.961 . S
C560 C561 1.384 . S
C560 C562 1.331 1_556 S
C560 H576 0.952 . S
C561 C560 1.384 . S
C561 C565 1.408 1_556 S
C562 C560 1.331 1_554 S
C562 C563 1.370 . S
C562 C566 1.524 . S
C563 C555 1.503 . S
C563 C562 1.370 . S
C563 C564 1.403 . S
C564 C563 1.403 . S
C564 C565 1.404 . S
C564 C567 1.539 . S
C565 C561 1.408 1_554 S
C565 C564 1.404 . S
C565 H577 0.930 1_554 S
C566 C562 1.524 . S
C566 H578 0.956 . S
C566 H579 0.961 . S
C566 H580 0.961 . S
C567 C564 1.539 . S
C567 H581 0.958 . S
C567 H582 0.961 . S
C567 H583 0.960 . S
H568 C552 0.931 . S
H569 C557 0.929 . S
H570 C558 0.960 . S
H571 C558 0.968 . S
H572 C558 0.960 . S
H573 C559 0.961 . S
H574 C559 0.961 . S
H575 C559 0.961 . S
H576 C560 0.952 . S
H577 C565 0.930 1_556 S
H578 C566 0.956 . S
H579 C566 0.961 . S
H580 C566 0.961 . S
H581 C567 0.958 . S
H582 C567 0.961 . S
H583 C567 0.960 . S
C584 C585 1.391 . S
C584 C586 1.394 . S
C584 H600 0.931 . S
C585 C584 1.391 . S
C585 C589 1.376 . S
C586 C584 1.394 . S
C586 C587 1.369 . S
C586 C590 1.531 . S
C587 C586 1.369 . S
C587 C588 1.410 . S
C587 C595 1.503 . S
C588 C587 1.410 . S
C588 C589 1.392 . S
C588 C591 1.511 . S
C589 C585 1.376 . S
C589 C588 1.392 . S
C589 H601 0.929 . S
C590 C586 1.531 . S
C590 H602 0.960 . S
C590 H603 0.962 . S
C590 H604 0.960 . S
C591 C588 1.511 . S
C591 H605 0.961 . S
C591 H606 0.961 . S
C591 H607 0.961 . S
C592 C593 1.370 . S
C592 C594 1.363 . S
C592 H608 0.931 . S
C593 C592 1.370 . S
C593 C597 1.408 . S
C594 C592 1.363 . S
C594 C595 1.370 1_455 S
C594 C598 1.524 . S
C595 C587 1.503 . S
C595 C594 1.370 1_655 S
C595 C596 1.403 . S
C596 C595 1.403 . S
C596 C597 1.404 1_655 S
C596 C599 1.539 . S
C597 C593 1.408 . S
C597 C596 1.404 1_455 S
C597 H609 0.930 . S
C598 C594 1.524 . S
C598 H610 0.956 . S
C598 H611 0.961 . S
C598 H612 0.961 . S
C599 C596 1.539 . S
C599 H613 0.958 . S
C599 H614 0.961 . S
C599 H615 0.960 . S
H600 C584 0.931 . S
H601 C589 0.929 . S
H602 C590 0.960 . S
H603 C590 0.962 . S
H604 C590 0.960 . S
H605 C591 0.961 . S
H606 C591 0.961 . S
H607 C591 0.961 . S
H608 C592 0.931 . S
H609 C597 0.930 . S
H610 C598 0.956 . S
H611 C598 0.961 . S
H612 C598 0.961 . S
H613 C599 0.958 . S
H614 C599 0.961 . S
H615 C599 0.960 . S
C616 C617 1.391 . S
C616 C618 1.394 1_545 S
C616 H632 0.931 . S
C617 C616 1.391 . S
C617 C621 1.376 . S
C618 C616 1.394 1_565 S
C618 C619 1.369 . S
C618 C622 1.531 . S
C619 C618 1.369 . S
C619 C620 1.410 1_565 S
C619 C627 1.503 . S
C620 C619 1.410 1_545 S
C620 C621 1.392 . S
C620 C623 1.511 . S
C621 C617 1.376 . S
C621 C620 1.392 . S
C621 H633 0.929 . S
C622 C618 1.531 . S
C622 H634 0.960 . S
C622 H635 0.962 . S
C622 H636 0.960 . S
C623 C620 1.511 . S
C623 H637 0.961 . S
C623 H638 0.961 . S
C623 H639 0.961 . S
C624 C625 1.370 . S
C624 C626 1.363 . S
C624 H640 0.931 . S
C625 C624 1.370 . S
C625 C629 1.408 . S
C626 C624 1.363 . S
C626 C627 1.370 . S
C626 C630 1.524 . S
C627 C619 1.503 . S
C627 C626 1.370 . S
C627 C628 1.403 . S
C628 C627 1.403 . S
C628 C629 1.404 . S
C628 C631 1.539 . S
C629 C625 1.408 . S
C629 C628 1.404 . S
C629 H641 0.930 . S
C630 C626 1.524 . S
C630 H642 0.956 . S
C630 H643 0.961 1_565 S
C630 H644 0.961 . S
C631 C628 1.539 . S
C631 H645 0.958 . S
C631 H646 0.961 . S
C631 H647 0.960 . S
H632 C616 0.931 . S
H633 C621 0.929 . S
H634 C622 0.960 . S
H635 C622 0.962 . S
H636 C622 0.960 . S
H637 C623 0.961 . S
H638 C623 0.961 . S
H639 C623 0.961 . S
H640 C624 0.931 . S
H641 C629 0.930 . S
H642 C630 0.956 . S
H643 C630 0.961 1_545 S
H644 C630 0.961 . S
H645 C631 0.958 . S
H646 C631 0.961 . S
H647 C631 0.960 . S
C648 C649 1.391 . S
C648 C650 1.394 . S
C648 H664 0.931 . S
C649 C648 1.391 . S
C649 C653 1.376 . S
C650 C648 1.394 . S
C650 C651 1.369 . S
C650 C654 1.531 . S
C651 C650 1.369 . S
C651 C652 1.410 . S
C651 C659 1.503 . S
C652 C651 1.410 . S
C652 C653 1.392 . S
C652 C655 1.511 . S
C653 C649 1.376 . S
C653 C652 1.392 . S
C653 H665 0.929 . S
C654 C650 1.531 . S
C654 H666 0.960 . S
C654 H667 0.962 . S
C654 H668 0.960 . S
C655 C652 1.511 . S
C655 H669 0.961 . S
C655 H670 0.961 . S
C655 H671 0.961 . S
C656 C657 1.370 . S
C656 C658 1.363 . S
C656 H672 0.931 . S
C657 C656 1.370 . S
C657 C661 1.408 . S
C658 C656 1.363 . S
C658 C659 1.370 . S
C658 C662 1.524 . S
C659 C651 1.503 . S
C659 C658 1.370 . S
C659 C660 1.403 . S
C660 C659 1.403 . S
C660 C661 1.404 . S
C660 C663 1.539 . S
C661 C657 1.408 . S
C661 C660 1.404 . S
C661 H673 0.930 . S
C662 C658 1.524 . S
C662 H674 0.956 . S
C662 H675 0.961 . S
C662 H676 0.961 . S
C663 C660 1.539 . S
C663 H677 0.958 . S
C663 H678 0.961 . S
C663 H679 0.960 . S
H664 C648 0.931 . S
H665 C653 0.929 . S
H666 C654 0.960 . S
H667 C654 0.962 . S
H668 C654 0.960 . S
H669 C655 0.961 . S
H670 C655 0.961 . S
H671 C655 0.961 . S
H672 C656 0.931 . S
H673 C661 0.930 . S
H674 C662 0.956 . S
H675 C662 0.961 . S
H676 C662 0.961 . S
H677 C663 0.958 . S
H678 C663 0.961 . S
H679 C663 0.960 . S
C680 C681 1.391 . S
C680 C682 1.394 . S
C680 H696 0.931 . S
C681 C680 1.391 . S
C681 C685 1.376 . S
C682 C680 1.394 . S
C682 C683 1.369 . S
C682 C686 1.531 . S
C683 C682 1.369 . S
C683 C684 1.410 . S
C683 C691 1.503 . S
C684 C683 1.410 . S
C684 C685 1.392 . S
C684 C687 1.511 . S
C685 C681 1.376 . S
C685 C684 1.392 . S
C685 H697 0.929 . S
C686 C682 1.531 . S
C686 H698 0.960 . S
C686 H699 0.962 . S
C686 H700 0.960 . S
C687 C684 1.511 . S
C687 H701 0.961 . S
C687 H702 0.961 1_455 S
C687 H703 0.961 1_455 S
C688 C689 1.370 . S
C688 C690 1.363 1_655 S
C688 H704 0.931 . S
C689 C688 1.370 . S
C689 C693 1.408 . S
C690 C688 1.363 1_455 S
C690 C691 1.370 . S
C690 C694 1.524 . S
C691 C683 1.503 . S
C691 C690 1.370 . S
C691 C692 1.403 1_455 S
C692 C691 1.403 1_655 S
C692 C693 1.404 . S
C692 C695 1.539 . S
C693 C689 1.408 . S
C693 C692 1.404 . S
C693 H705 0.930 . S
C694 C690 1.524 . S
C694 H706 0.956 . S
C694 H707 0.961 . S
C694 H708 0.961 . S
C695 C692 1.539 . S
C695 H709 0.958 . S
C695 H710 0.961 . S
C695 H711 0.960 . S
H696 C680 0.931 . S
H697 C685 0.929 . S
H698 C686 0.960 . S
H699 C686 0.962 . S
H700 C686 0.960 . S
H701 C687 0.961 . S
H702 C687 0.961 1_655 S
H703 C687 0.961 1_655 S
H704 C688 0.931 . S
H705 C693 0.930 . S
H706 C694 0.956 . S
H707 C694 0.961 . S
H708 C694 0.961 . S
H709 C695 0.958 . S
H710 C695 0.961 . S
H711 C695 0.960 . S
C712 C713 1.391 . S
C712 C714 1.394 . S
C712 H728 0.931 . S
C713 C712 1.391 . S
C713 C717 1.376 . S
C714 C712 1.394 . S
C714 C715 1.369 . S
C714 C718 1.531 . S
C715 C714 1.369 . S
C715 C716 1.410 . S
C715 C723 1.503 . S
C716 C715 1.410 . S
C716 C717 1.392 . S
C716 C719 1.511 . S
C717 C713 1.376 . S
C717 C716 1.392 . S
C717 H729 0.929 . S
C718 C714 1.531 . S
C718 H730 0.960 . S
C718 H731 0.962 . S
C718 H732 0.960 . S
C719 C716 1.511 . S
C719 H733 0.961 . S
C719 H734 0.969 . S
C719 H735 0.961 1_545 S
C720 C721 1.370 . S
C720 C722 1.363 1_565 S
C720 H736 0.931 . S
C721 C720 1.370 . S
C721 C725 1.408 . S
C722 C720 1.363 1_545 S
C722 C723 1.370 . S
C722 C726 1.524 . S
C723 C715 1.503 . S
C723 C722 1.370 . S
C723 C724 1.403 1_545 S
C724 C723 1.403 1_565 S
C724 C725 1.404 . S
C724 C727 1.539 . S
C725 C721 1.408 . S
C725 C724 1.404 . S
C725 H737 0.930 . S
C726 C722 1.524 . S
C726 H738 0.956 . S
C726 H739 0.961 . S
C726 H740 0.961 . S
C727 C724 1.539 . S
C727 H741 0.958 . S
C727 H742 0.961 . S
C727 H743 0.960 . S
H728 C712 0.931 . S
H729 C717 0.929 . S
H730 C718 0.960 . S
H731 C718 0.962 . S
H732 C718 0.960 . S
H733 C719 0.961 . S
H734 C719 0.969 . S
H735 C719 0.961 1_565 S
H736 C720 0.931 . S
H737 C725 0.930 . S
H738 C726 0.956 . S
H739 C726 0.961 . S
H740 C726 0.961 . S
H741 C727 0.958 . S
H742 C727 0.961 . S
H743 C727 0.960 . S
C744 C745 1.391 . S
C744 C746 1.394 . S
C744 H760 0.931 . S
C745 C744 1.391 . S
C745 C749 1.376 . S
C746 C744 1.394 . S
C746 C747 1.369 . S
C746 C750 1.531 . S
C747 C746 1.369 . S
C747 C748 1.410 . S
C747 C755 1.503 . S
C748 C747 1.410 . S
C748 C749 1.392 . S
C748 C751 1.511 . S
C749 C745 1.376 . S
C749 C748 1.392 . S
C749 H761 0.929 . S
C750 C746 1.531 . S
C750 H762 0.960 . S
C750 H763 0.962 . S
C750 H764 0.960 . S
C751 C748 1.511 . S
C751 H765 0.961 . S
C751 H766 0.961 . S
C751 H767 0.961 . S
C752 C753 1.370 . S
C752 C754 1.363 . S
C752 H768 0.931 . S
C753 C752 1.370 . S
C753 C757 1.408 . S
C754 C752 1.363 . S
C754 C755 1.370 . S
C754 C758 1.524 . S
C755 C747 1.503 . S
C755 C754 1.370 . S
C755 C756 1.403 . S
C756 C755 1.403 . S
C756 C757 1.404 . S
C756 C759 1.539 . S
C757 C753 1.408 . S
C757 C756 1.404 . S
C757 H769 0.930 . S
C758 C754 1.524 . S
C758 H770 0.956 . S
C758 H771 0.961 . S
C758 H772 0.961 . S
C759 C756 1.539 . S
C759 H773 0.958 . S
C759 H774 0.961 . S
C759 H775 0.960 . S
H760 C744 0.931 . S
H761 C749 0.929 . S
H762 C750 0.960 . S
H763 C750 0.962 . S
H764 C750 0.960 . S
H765 C751 0.961 . S
H766 C751 0.961 . S
H767 C751 0.961 . S
H768 C752 0.931 . S
H769 C757 0.930 . S
H770 C758 0.956 . S
H771 C758 0.961 . S
H772 C758 0.961 . S
H773 C759 0.958 . S
H774 C759 0.961 . S
H775 C759 0.960 . S
C776 C777 1.391 . S
C776 C778 1.394 . S
C776 H792 0.931 . S
C777 C776 1.391 . S
C777 C781 1.376 . S
C778 C776 1.394 . S
C778 C779 1.369 . S
C778 C782 1.531 . S
C779 C778 1.369 . S
C779 C780 1.410 . S
C779 C787 1.503 . S
C780 C779 1.410 . S
C780 C781 1.392 . S
C780 C783 1.511 1_655 S
C781 C777 1.376 . S
C781 C780 1.392 . S
C781 H793 0.929 . S
C782 C778 1.531 . S
C782 H794 0.960 . S
C782 H795 0.968 . S
C782 H796 0.960 . S
C783 C780 1.511 1_455 S
C783 H797 0.961 . S
C783 H798 0.961 . S
C783 H799 0.961 . S
C784 C785 1.370 . S
C784 C786 1.363 1_554 S
C784 H800 0.931 . S
C785 C784 1.370 . S
C785 C789 1.408 1_554 S
C786 C784 1.363 1_556 S
C786 C787 1.370 1_455 S
C786 C790 1.524 1_455 S
C787 C779 1.503 . S
C787 C786 1.370 1_655 S
C787 C788 1.403 1_655 S
C788 C787 1.403 1_455 S
C788 C789 1.404 . S
C788 C791 1.539 1_455 S
C789 C785 1.408 1_556 S
C789 C788 1.404 . S
C789 H801 0.930 1_556 S
C790 C786 1.524 1_655 S
C790 H802 0.956 . S
C790 H803 0.961 . S
C790 H804 0.961 . S
C791 C788 1.539 1_655 S
C791 H805 0.958 . S
C791 H806 0.961 1_655 S
C791 H807 0.960 . S
H792 C776 0.931 . S
H793 C781 0.929 . S
H794 C782 0.960 . S
H795 C782 0.968 . S
H796 C782 0.960 . S
H797 C783 0.961 . S
H798 C783 0.961 . S
H799 C783 0.961 . S
H800 C784 0.931 . S
H801 C789 0.930 1_554 S
H802 C790 0.956 . S
H803 C790 0.961 . S
H804 C790 0.961 . S
H805 C791 0.958 . S
H806 C791 0.961 1_455 S
H807 C791 0.960 . S
C808 C809 1.391 . S
C808 C810 1.394 . S
C808 H824 0.931 . S
C809 C808 1.391 . S
C809 C813 1.376 . S
C810 C808 1.394 . S
C810 C811 1.369 . S
C810 C814 1.531 . S
C811 C810 1.369 . S
C811 C812 1.410 . S
C811 C819 1.503 . S
C812 C811 1.410 . S
C812 C813 1.392 . S
C812 C815 1.511 . S
C813 C809 1.376 . S
C813 C812 1.392 . S
C813 H825 0.929 . S
C814 C810 1.531 . S
C814 H826 0.960 . S
C814 H827 0.962 . S
C814 H828 0.960 . S
C815 C812 1.511 . S
C815 H829 0.961 . S
C815 H830 0.961 . S
C815 H831 0.961 . S
C816 C817 1.370 . S
C816 C818 1.363 1_545 S
C816 H832 0.931 . S
C817 C816 1.370 . S
C817 C821 1.408 . S
C818 C816 1.363 1_565 S
C818 C819 1.370 . S
C818 C822 1.524 . S
C819 C811 1.503 . S
C819 C818 1.370 . S
C819 C820 1.403 1_565 S
C820 C819 1.403 1_545 S
C820 C821 1.404 . S
C820 C823 1.539 . S
C821 C817 1.408 . S
C821 C820 1.404 . S
C821 H833 0.930 . S
C822 C818 1.524 . S
C822 H834 0.956 . S
C822 H835 0.961 . S
C822 H836 0.961 . S
C823 C820 1.539 . S
C823 H837 0.958 . S
C823 H838 0.961 . S
C823 H839 0.960 . S
H824 C808 0.931 . S
H825 C813 0.929 . S
H826 C814 0.960 . S
H827 C814 0.962 . S
H828 C814 0.960 . S
H829 C815 0.961 . S
H830 C815 0.961 . S
H831 C815 0.961 . S
H832 C816 0.931 . S
H833 C821 0.930 . S
H834 C822 0.956 . S
H835 C822 0.961 . S
H836 C822 0.961 . S
H837 C823 0.958 . S
H838 C823 0.961 . S
H839 C823 0.960 . S
C840 C841 1.391 . S
C840 C842 1.394 . S
C840 H856 0.931 . S
C841 C840 1.391 . S
C841 C845 1.376 . S
C842 C840 1.394 . S
C842 C843 1.369 . S
C842 C846 1.531 . S
C843 C842 1.369 . S
C843 C844 1.410 . S
C843 C851 1.503 . S
C844 C843 1.410 . S
C844 C845 1.392 . S
C844 C847 1.511 . S
C845 C841 1.376 . S
C845 C844 1.392 . S
C845 H857 0.929 . S
C846 C842 1.531 . S
C846 H858 0.960 . S
C846 H859 0.962 . S
C846 H860 0.960 . S
C847 C844 1.511 . S
C847 H861 0.961 . S
C847 H862 0.961 . S
C847 H863 0.961 . S
C848 C849 1.370 . S
C848 C850 1.363 . S
C848 H864 0.931 . S
C849 C848 1.370 . S
C849 C853 1.408 . S
C850 C848 1.363 . S
C850 C851 1.370 . S
C850 C854 1.524 . S
C851 C843 1.503 . S
C851 C850 1.370 . S
C851 C852 1.403 . S
C852 C851 1.403 . S
C852 C853 1.404 . S
C852 C855 1.539 . S
C853 C849 1.408 . S
C853 C852 1.404 . S
C853 H865 0.930 . S
C854 C850 1.524 . S
C854 H866 0.956 . S
C854 H867 0.961 . S
C854 H868 0.961 . S
C855 C852 1.539 . S
C855 H869 0.958 . S
C855 H870 0.961 . S
C855 H871 0.960 . S
H856 C840 0.931 . S
H857 C845 0.929 . S
H858 C846 0.960 . S
H859 C846 0.962 . S
H860 C846 0.960 . S
H861 C847 0.961 . S
H862 C847 0.961 . S
H863 C847 0.961 . S
H864 C848 0.931 . S
H865 C853 0.930 . S
H866 C854 0.956 . S
H867 C854 0.961 . S
H868 C854 0.961 . S
H869 C855 0.958 . S
H870 C855 0.961 . S
H871 C855 0.960 . S
C872 C873 1.391 . S
C872 C874 1.394 . S
C872 H888 0.931 . S
C873 C872 1.391 . S
C873 C877 1.376 . S
C874 C872 1.394 . S
C874 C875 1.369 . S
C874 C878 1.531 . S
C875 C874 1.369 . S
C875 C876 1.410 . S
C875 C883 1.503 . S
C876 C875 1.410 . S
C876 C877 1.392 . S
C876 C879 1.511 . S
C877 C873 1.376 . S
C877 C876 1.392 . S
C877 H889 0.929 . S
C878 C874 1.531 . S
C878 H890 0.960 . S
C878 H891 0.962 . S
C878 H892 0.960 . S
C879 C876 1.511 . S
C879 H893 0.961 . S
C879 H894 0.961 1_455 S
C879 H895 0.961 . S
C880 C881 1.370 . S
C880 C882 1.363 . S
C880 H896 0.931 . S
C881 C880 1.370 . S
C881 C885 1.408 . S
C882 C880 1.363 . S
C882 C883 1.370 1_655 S
C882 C886 1.524 . S
C883 C875 1.503 . S
C883 C882 1.370 1_455 S
C883 C884 1.403 . S
C884 C883 1.403 . S
C884 C885 1.404 1_455 S
C884 C887 1.539 . S
C885 C881 1.408 . S
C885 C884 1.404 1_655 S
C885 H897 0.930 . S
C886 C882 1.524 . S
C886 H898 0.956 1_655 S
C886 H899 0.961 . S
C886 H900 0.961 . S
C887 C884 1.539 . S
C887 H901 0.958 . S
C887 H902 0.961 . S
C887 H903 0.960 . S
H888 C872 0.931 . S
H889 C877 0.929 . S
H890 C878 0.960 . S
H891 C878 0.962 . S
H892 C878 0.960 . S
H893 C879 0.961 . S
H894 C879 0.961 1_655 S
H895 C879 0.961 . S
H896 C880 0.931 . S
H897 C885 0.930 . S
H898 C886 0.956 1_455 S
H899 C886 0.961 . S
H900 C886 0.961 . S
H901 C887 0.958 . S
H902 C887 0.961 . S
H903 C887 0.960 . S
C904 C905 1.391 . S
C904 C906 1.394 1_565 S
C904 H920 0.931 . S
C905 C904 1.391 . S
C905 C909 1.376 . S
C906 C904 1.394 1_545 S
C906 C907 1.369 . S
C906 C910 1.531 . S
C907 C906 1.369 . S
C907 C908 1.410 1_545 S
C907 C915 1.503 . S
C908 C907 1.410 1_565 S
C908 C909 1.392 . S
C908 C911 1.511 . S
C909 C905 1.376 . S
C909 C908 1.392 . S
C909 H921 0.929 . S
C910 C906 1.531 . S
C910 H922 0.960 . S
C910 H923 0.962 . S
C910 H924 0.960 . S
C911 C908 1.511 . S
C911 H925 0.961 . S
C911 H926 0.961 . S
C911 H927 0.961 . S
C912 C913 1.370 . S
C912 C914 1.363 . S
C912 H928 0.931 . S
C913 C912 1.370 . S
C913 C917 1.408 . S
C914 C912 1.363 . S
C914 C915 1.370 . S
C914 C918 1.524 . S
C915 C907 1.503 . S
C915 C914 1.370 . S
C915 C916 1.403 . S
C916 C915 1.403 . S
C916 C917 1.404 . S
C916 C919 1.539 . S
C917 C913 1.408 . S
C917 C916 1.404 . S
C917 H929 0.930 . S
C918 C914 1.524 . S
C918 H930 0.956 . S
C918 H931 0.961 1_545 S
C918 H932 0.961 . S
C919 C916 1.539 . S
C919 H933 0.958 . S
C919 H934 0.961 . S
C919 H935 0.960 . S
H920 C904 0.931 . S
H921 C909 0.929 . S
H922 C910 0.960 . S
H923 C910 0.962 . S
H924 C910 0.960 . S
H925 C911 0.961 . S
H926 C911 0.961 . S
H927 C911 0.961 . S
H928 C912 0.931 . S
H929 C917 0.930 . S
H930 C918 0.956 . S
H931 C918 0.961 1_565 S
H932 C918 0.961 . S
H933 C919 0.958 . S
H934 C919 0.961 . S
H935 C919 0.960 . S
C169 C113 1.556 . S
C177 C12 1.579 . S
C201 C15 1.591 . S
C209 C139 1.590 . S
C233 C29 1.574 . S
C241 C140 1.576 . S
C265 C54 1.570 . S
C273 C154 1.587 . S
C297 C85 1.564 . S
C305 C57 1.583 . S
C329 C83 1.565 . S
C337 C110 1.586 . S
C361 C138 1.391 . S
C369 C13 1.364 . S
C393 C14 1.350 . S
C401 C141 1.380 . S
C425 C155 1.362 . S
C433 C28 1.381 . S
C457 C55 1.351 . S
C465 C84 1.372 . S
C489 C111 1.361 . S
C497 C56 1.368 . S
C521 C112 1.360 . S
C529 C82 1.382 . S
C553 C0 1.958 . S
C561 C70 1.927 . S
C585 C27 1.950 . S
C593 C1 1.915 . S
C617 C26 1.894 . S
C625 C41 1.947 . S
C649 C42 1.960 . S
C657 C40 1.925 . S
C681 C69 1.948 . S
C689 C43 1.922 . S
C713 C71 1.947 . S
C721 C68 1.923 . S
C745 C97 1.943 . S
C753 C99 1.919 . S
C777 C98 1.958 . S
C785 C124 1.927 . S
C809 C125 1.938 . S
C817 C126 1.917 . S
C841 C127 1.934 . S
C849 C153 1.907 . S
C873 C152 1.960 . S
C881 C167 1.924 . S
C905 C96 1.895 . S
C913 C166 1.949 . S
