# Generated by pormake.
# Topology umr, (4)-cn, num edge types: 1
# Building blocks:
#     Node 0, Type 0, BuildingBlock: KUFVIS_clean_sbu_0, # of connection points: 4
#     Node 1, Type 0, BuildingBlock: KUFVIS_clean_sbu_0, # of connection points: 4
#     Node 2, Type 0, BuildingBlock: KUFVIS_clean_sbu_0, # of connection points: 4
#     Node 3, Type 0, BuildingBlock: KUFVIS_clean_sbu_0, # of connection points: 4
#     Node 4, Type 0, BuildingBlock: KUFVIS_clean_sbu_0, # of connection points: 4
#     Node 5, Type 0, BuildingBlock: KUFVIS_clean_sbu_0, # of connection points: 4
#     Node 6, Type 0, BuildingBlock: KUFVIS_clean_sbu_0, # of connection points: 4
#     Node 7, Type 0, BuildingBlock: KUFVIS_clean_sbu_0, # of connection points: 4
#     Node 8, Type 0, BuildingBlock: KUFVIS_clean_sbu_0, # of connection points: 4
#     Node 9, Type 0, BuildingBlock: KUFVIS_clean_sbu_0, # of connection points: 4
#     Node 10, Type 0, BuildingBlock: KUFVIS_clean_sbu_0, # of connection points: 4
#     Node 11, Type 0, BuildingBlock: KUFVIS_clean_sbu_0, # of connection points: 4
#     Node 12, Type 0, BuildingBlock: KUFVIS_clean_sbu_0, # of connection points: 4
#     Node 13, Type 0, BuildingBlock: KUFVIS_clean_sbu_0, # of connection points: 4
#     Node 14, Type 0, BuildingBlock: KUFVIS_clean_sbu_0, # of connection points: 4
#     Node 15, Type 0, BuildingBlock: KUFVIS_clean_sbu_0, # of connection points: 4
#     Node 16, Type 0, BuildingBlock: KUFVIS_clean_sbu_0, # of connection points: 4
#     Node 17, Type 0, BuildingBlock: KUFVIS_clean_sbu_0, # of connection points: 4
#     Node 18, Type 0, BuildingBlock: KUFVIS_clean_sbu_0, # of connection points: 4
#     Node 19, Type 0, BuildingBlock: KUFVIS_clean_sbu_0, # of connection points: 4
#     Node 20, Type 0, BuildingBlock: KUFVIS_clean_sbu_0, # of connection points: 4
#     Node 21, Type 0, BuildingBlock: KUFVIS_clean_sbu_0, # of connection points: 4
#     Node 22, Type 0, BuildingBlock: KUFVIS_clean_sbu_0, # of connection points: 4
#     Node 23, Type 0, BuildingBlock: KUFVIS_clean_sbu_0, # of connection points: 4
#     Node 24, Type 0, BuildingBlock: KUFVIS_clean_sbu_0, # of connection points: 4
#     Node 25, Type 0, BuildingBlock: KUFVIS_clean_sbu_0, # of connection points: 4
#     Node 26, Type 0, BuildingBlock: KUFVIS_clean_sbu_0, # of connection points: 4
#     Node 27, Type 0, BuildingBlock: KUFVIS_clean_sbu_0, # of connection points: 4
#     Node 28, Type 0, BuildingBlock: KUFVIS_clean_sbu_0, # of connection points: 4
#     Node 29, Type 0, BuildingBlock: KUFVIS_clean_sbu_0, # of connection points: 4
#     Node 30, Type 0, BuildingBlock: KUFVIS_clean_sbu_0, # of connection points: 4
#     Node 31, Type 0, BuildingBlock: KUFVIS_clean_sbu_0, # of connection points: 4
#     Edge 32, Type (0, 0), BuildingBlock: ZUJKAS_clean_linker_0, # of connection points: 2
#     Edge 33, Type (0, 0), BuildingBlock: ZUJKAS_clean_linker_0, # of connection points: 2
#     Edge 34, Type (0, 0), BuildingBlock: ZUJKAS_clean_linker_0, # of connection points: 2
#     Edge 35, Type (0, 0), BuildingBlock: ZUJKAS_clean_linker_0, # of connection points: 2
#     Edge 36, Type (0, 0), BuildingBlock: ZUJKAS_clean_linker_0, # of connection points: 2
#     Edge 37, Type (0, 0), BuildingBlock: ZUJKAS_clean_linker_0, # of connection points: 2
#     Edge 38, Type (0, 0), BuildingBlock: ZUJKAS_clean_linker_0, # of connection points: 2
#     Edge 39, Type (0, 0), BuildingBlock: ZUJKAS_clean_linker_0, # of connection points: 2
#     Edge 40, Type (0, 0), BuildingBlock: ZUJKAS_clean_linker_0, # of connection points: 2
#     Edge 41, Type (0, 0), BuildingBlock: ZUJKAS_clean_linker_0, # of connection points: 2
#     Edge 42, Type (0, 0), BuildingBlock: ZUJKAS_clean_linker_0, # of connection points: 2
#     Edge 43, Type (0, 0), BuildingBlock: ZUJKAS_clean_linker_0, # of connection points: 2
#     Edge 44, Type (0, 0), BuildingBlock: ZUJKAS_clean_linker_0, # of connection points: 2
#     Edge 45, Type (0, 0), BuildingBlock: ZUJKAS_clean_linker_0, # of connection points: 2
#     Edge 46, Type (0, 0), BuildingBlock: ZUJKAS_clean_linker_0, # of connection points: 2
#     Edge 47, Type (0, 0), BuildingBlock: ZUJKAS_clean_linker_0, # of connection points: 2
#     Edge 48, Type (0, 0), BuildingBlock: ZUJKAS_clean_linker_0, # of connection points: 2
#     Edge 49, Type (0, 0), BuildingBlock: ZUJKAS_clean_linker_0, # of connection points: 2
#     Edge 50, Type (0, 0), BuildingBlock: ZUJKAS_clean_linker_0, # of connection points: 2
#     Edge 51, Type (0, 0), BuildingBlock: ZUJKAS_clean_linker_0, # of connection points: 2
#     Edge 52, Type (0, 0), BuildingBlock: ZUJKAS_clean_linker_0, # of connection points: 2
#     Edge 53, Type (0, 0), BuildingBlock: ZUJKAS_clean_linker_0, # of connection points: 2
#     Edge 54, Type (0, 0), BuildingBlock: ZUJKAS_clean_linker_0, # of connection points: 2
#     Edge 55, Type (0, 0), BuildingBlock: ZUJKAS_clean_linker_0, # of connection points: 2
#     Edge 56, Type (0, 0), BuildingBlock: ZUJKAS_clean_linker_0, # of connection points: 2
#     Edge 57, Type (0, 0), BuildingBlock: ZUJKAS_clean_linker_0, # of connection points: 2
#     Edge 58, Type (0, 0), BuildingBlock: ZUJKAS_clean_linker_0, # of connection points: 2
#     Edge 59, Type (0, 0), BuildingBlock: ZUJKAS_clean_linker_0, # of connection points: 2
#     Edge 60, Type (0, 0), BuildingBlock: ZUJKAS_clean_linker_0, # of connection points: 2
#     Edge 61, Type (0, 0), BuildingBlock: ZUJKAS_clean_linker_0, # of connection points: 2
#     Edge 62, Type (0, 0), BuildingBlock: ZUJKAS_clean_linker_0, # of connection points: 2
#     Edge 63, Type (0, 0), BuildingBlock: ZUJKAS_clean_linker_0, # of connection points: 2
#     Edge 64, Type (0, 0), BuildingBlock: ZUJKAS_clean_linker_0, # of connection points: 2
#     Edge 65, Type (0, 0), BuildingBlock: ZUJKAS_clean_linker_0, # of connection points: 2
#     Edge 66, Type (0, 0), BuildingBlock: ZUJKAS_clean_linker_0, # of connection points: 2
#     Edge 67, Type (0, 0), BuildingBlock: ZUJKAS_clean_linker_0, # of connection points: 2
#     Edge 68, Type (0, 0), BuildingBlock: ZUJKAS_clean_linker_0, # of connection points: 2
#     Edge 69, Type (0, 0), BuildingBlock: ZUJKAS_clean_linker_0, # of connection points: 2
#     Edge 70, Type (0, 0), BuildingBlock: ZUJKAS_clean_linker_0, # of connection points: 2
#     Edge 71, Type (0, 0), BuildingBlock: ZUJKAS_clean_linker_0, # of connection points: 2
#     Edge 72, Type (0, 0), BuildingBlock: ZUJKAS_clean_linker_0, # of connection points: 2
#     Edge 73, Type (0, 0), BuildingBlock: ZUJKAS_clean_linker_0, # of connection points: 2
#     Edge 74, Type (0, 0), BuildingBlock: ZUJKAS_clean_linker_0, # of connection points: 2
#     Edge 75, Type (0, 0), BuildingBlock: ZUJKAS_clean_linker_0, # of connection points: 2
#     Edge 76, Type (0, 0), BuildingBlock: ZUJKAS_clean_linker_0, # of connection points: 2
#     Edge 77, Type (0, 0), BuildingBlock: ZUJKAS_clean_linker_0, # of connection points: 2
#     Edge 78, Type (0, 0), BuildingBlock: ZUJKAS_clean_linker_0, # of connection points: 2
#     Edge 79, Type (0, 0), BuildingBlock: ZUJKAS_clean_linker_0, # of connection points: 2
#     Edge 80, Type (0, 0), BuildingBlock: ZUJKAS_clean_linker_0, # of connection points: 2
#     Edge 81, Type (0, 0), BuildingBlock: ZUJKAS_clean_linker_0, # of connection points: 2
#     Edge 82, Type (0, 0), BuildingBlock: ZUJKAS_clean_linker_0, # of connection points: 2
#     Edge 83, Type (0, 0), BuildingBlock: ZUJKAS_clean_linker_0, # of connection points: 2
#     Edge 84, Type (0, 0), BuildingBlock: ZUJKAS_clean_linker_0, # of connection points: 2
#     Edge 85, Type (0, 0), BuildingBlock: ZUJKAS_clean_linker_0, # of connection points: 2
#     Edge 86, Type (0, 0), BuildingBlock: ZUJKAS_clean_linker_0, # of connection points: 2
#     Edge 87, Type (0, 0), BuildingBlock: ZUJKAS_clean_linker_0, # of connection points: 2
#     Edge 88, Type (0, 0), BuildingBlock: ZUJKAS_clean_linker_0, # of connection points: 2
#     Edge 89, Type (0, 0), BuildingBlock: ZUJKAS_clean_linker_0, # of connection points: 2
#     Edge 90, Type (0, 0), BuildingBlock: ZUJKAS_clean_linker_0, # of connection points: 2
#     Edge 91, Type (0, 0), BuildingBlock: ZUJKAS_clean_linker_0, # of connection points: 2
#     Edge 92, Type (0, 0), BuildingBlock: ZUJKAS_clean_linker_0, # of connection points: 2
#     Edge 93, Type (0, 0), BuildingBlock: ZUJKAS_clean_linker_0, # of connection points: 2
#     Edge 94, Type (0, 0), BuildingBlock: ZUJKAS_clean_linker_0, # of connection points: 2
#     Edge 95, Type (0, 0), BuildingBlock: ZUJKAS_clean_linker_0, # of connection points: 2
# Relax obj value: 0.105
# Max RMSD: 0.116
# Mean RMSD: 0.116
data_MOF--net-umr--node1-KUFVIS_clean_sbu_0--edge1-ZUJKAS_clean_linker_0
_symmetry_space_group_name_H-M    P1
_symmetry_Int_Tables_number       1
_symmetry_cell_setting            triclinic
loop_
_symmetry_equiv_pos_as_xyz
'x, y, z'
_cell_length_a     110.03261
_cell_length_b     110.02605
_cell_length_c     33.252821
_cell_angle_alpha  89.992625
_cell_angle_beta   89.982351
_cell_angle_gamma 90.003875
loop_
_atom_site_label
_atom_site_type_symbol
_atom_site_fract_x
_atom_site_fract_y
_atom_site_fract_z
_atom_type_partial_charge
Mn0 Mn 0.16387 0.29247 0.02568 0.0
Mn1 Mn 0.13652 0.27882 0.01952 0.0
C2 C 0.15506 0.28852 0.96381 0.0
C3 C 0.18504 0.29137 0.02569 0.0
C4 C 0.13975 0.30512 0.04477 0.0
O5 O 0.16222 0.28445 0.08068 0.0
O6 O 0.14404 0.27522 0.07248 0.0
C7 C 0.14433 0.25306 0.02043 0.0
N8 N 0.1385 0.26242 0.00176 0.0
C9 C 0.13265 0.24951 0.94665 0.0
C10 C 0.13855 0.23973 0.96535 0.0
C11 C 0.14443 0.24153 0.00236 0.0
C12 C 0.13282 0.26079 0.96612 0.0
H13 H 0.14887 0.25439 0.04888 0.0
C14 C 0.15358 0.27763 0.09318 0.0
O15 O 0.17944 0.30072 0.04074 0.0
O16 O 0.17837 0.2825 0.01276 0.0
N17 N 0.12864 0.28151 0.969 0.0
C18 C 0.12413 0.29206 0.95358 0.0
C19 C 0.11841 0.29194 0.91585 0.0
C20 C 0.11732 0.28098 0.89448 0.0
C21 C 0.12201 0.27024 0.91101 0.0
C22 C 0.12761 0.27091 0.94873 0.0
H23 H 0.12498 0.30051 0.96984 0.0
O24 O 0.16296 0.29722 0.96738 0.0
O25 O 0.15228 0.2829 0.99674 0.0
O26 O 0.15131 0.30543 0.04158 0.0
O27 O 0.13344 0.29565 0.0372 0.0
C28 C 0.12149 0.25892 0.89129 0.0
C29 C 0.12679 0.24856 0.90913 0.0
H30 H 0.13869 0.23083 0.95143 0.0
H31 H 0.14904 0.23404 0.01692 0.0
H32 H 0.11486 0.30028 0.90323 0.0
H33 H 0.11295 0.28094 0.8653 0.0
H34 H 0.11719 0.25811 0.86211 0.0
H35 H 0.12648 0.23994 0.89339 0.0
Mn36 Mn 0.95786 0.91632 0.28617 0.0
Mn37 Mn 0.97172 0.88958 0.26716 0.0
C38 C 0.9623 0.91062 0.22086 0.0
C39 C 0.95878 0.93724 0.29767 0.0
C40 C 0.94523 0.89156 0.29204 0.0
O41 O 0.96536 0.91199 0.34035 0.0
O42 O 0.97506 0.8946 0.32357 0.0
C43 C 0.99746 0.89723 0.27313 0.0
N44 N 0.98821 0.89231 0.25135 0.0
C45 C 0.0013 0.88931 0.19419 0.0
C46 C 0.01097 0.8943 0.2161 0.0
C47 C 0.00904 0.89828 0.25573 0.0
C48 C 0.98999 0.88837 0.21327 0.0
H49 H 0.996 0.90037 0.30352 0.0
C50 C 0.97228 0.90299 0.34878 0.0
O51 O 0.94929 0.93093 0.308 0.0
O52 O 0.96788 0.93129 0.28267 0.0
N53 N 0.96927 0.88409 0.21312 0.0
C54 C 0.95878 0.88042 0.19507 0.0
C55 C 0.95903 0.87667 0.15471 0.0
C56 C 0.97005 0.87672 0.13337 0.0
C57 C 0.98073 0.8805 0.15261 0.0
C58 C 0.97995 0.88405 0.19298 0.0
H59 H 0.95027 0.88047 0.21124 0.0
O60 O 0.95359 0.91827 0.22788 0.0
O61 O 0.96774 0.90627 0.25229 0.0
O62 O 0.94483 0.90314 0.29395 0.0
O63 O 0.95481 0.88569 0.28241 0.0
C64 C 0.99207 0.88118 0.13302 0.0
C65 C 0.00235 0.88556 0.15381 0.0
H66 H 0.01989 0.89524 0.20265 0.0
H67 H 0.01645 0.9022 0.27275 0.0
H68 H 0.95073 0.87381 0.14001 0.0
H69 H 0.97018 0.87395 0.10211 0.0
H70 H 0.99294 0.87854 0.10177 0.0
H71 H 0.01097 0.88623 0.13823 0.0
Mn72 Mn 0.33475 0.70697 0.53693 0.0
Mn73 Mn 0.36173 0.72114 0.52533 0.0
C74 C 0.34175 0.71199 0.47364 0.0
C75 C 0.31367 0.7075 0.54408 0.0
C76 C 0.3595 0.69444 0.54643 0.0
O77 O 0.33775 0.71415 0.59237 0.0
O78 O 0.35575 0.72358 0.58129 0.0
C79 C 0.35369 0.74669 0.53398 0.0
N80 N 0.35911 0.73782 0.51173 0.0
C81 C 0.36289 0.75176 0.45733 0.0
C82 C 0.35741 0.76105 0.47977 0.0
C83 C 0.35279 0.7585 0.51825 0.0
C84 C 0.36367 0.74019 0.47477 0.0
H85 H 0.35005 0.74476 0.56345 0.0
C86 C 0.34672 0.72068 0.6038 0.0
O87 O 0.31992 0.69803 0.55488 0.0
O88 O 0.31972 0.71679 0.53086 0.0
N89 N 0.36819 0.71955 0.47212 0.0
C90 C 0.37228 0.70936 0.45314 0.0
C91 C 0.37669 0.71023 0.41361 0.0
C92 C 0.37686 0.72155 0.39404 0.0
C93 C 0.37264 0.73191 0.41423 0.0
C94 C 0.36845 0.73051 0.45374 0.0
H95 H 0.37206 0.70063 0.46791 0.0
O96 O 0.3341 0.70311 0.47812 0.0
O97 O 0.34537 0.71725 0.50642 0.0
O98 O 0.3479 0.69403 0.5467 0.0
O99 O 0.36549 0.70408 0.53849 0.0
C100 C 0.37213 0.7435 0.39633 0.0
C101 C 0.36728 0.75343 0.41789 0.0
H102 H 0.35658 0.77014 0.46757 0.0
H103 H 0.34849 0.76561 0.53565 0.0
H104 H 0.37988 0.70219 0.39816 0.0
H105 H 0.38013 0.72215 0.36337 0.0
H106 H 0.37525 0.74485 0.36575 0.0
H107 H 0.36676 0.76225 0.40357 0.0
Mn108 Mn 0.54409 0.08542 0.77621 0.0
Mn109 Mn 0.52809 0.11128 0.76653 0.0
C110 C 0.53976 0.09323 0.71263 0.0
C111 C 0.54439 0.06421 0.77991 0.0
C112 C 0.55426 0.11037 0.79634 0.0
O113 O 0.53589 0.08729 0.83118 0.0
O114 O 0.52343 0.1031 0.81729 0.0
C115 C 0.50321 0.10143 0.75735 0.0
N116 N 0.51257 0.10823 0.74286 0.0
C117 C 0.50069 0.11465 0.68599 0.0
C118 C 0.4908 0.108 0.70096 0.0
C119 C 0.49211 0.10123 0.73652 0.0
C120 C 0.51152 0.11446 0.70801 0.0
H121 H 0.5042 0.0962 0.78457 0.0
C122 C 0.52715 0.09449 0.84019 0.0
O123 O 0.55341 0.07067 0.79331 0.0
O124 O 0.53508 0.07009 0.76614 0.0
N125 N 0.53176 0.11981 0.71785 0.0
C126 C 0.54224 0.12556 0.70713 0.0
C127 C 0.54265 0.13223 0.67113 0.0
C128 C 0.53225 0.13303 0.64677 0.0
C129 C 0.52153 0.12714 0.65864 0.0
C130 C 0.52168 0.12058 0.69474 0.0
H131 H 0.55022 0.1251 0.72591 0.0
O132 O 0.5488 0.08583 0.71768 0.0
O133 O 0.53389 0.09594 0.74508 0.0
O134 O 0.55607 0.09908 0.78994 0.0
O135 O 0.54402 0.11553 0.79033 0.0
C136 C 0.51071 0.12749 0.63602 0.0
C137 C 0.50028 0.1213 0.6498 0.0
H138 H 0.48222 0.10784 0.68499 0.0
H139 H 0.48459 0.09591 0.74789 0.0
H140 H 0.55094 0.13678 0.66226 0.0
H141 H 0.5326 0.13818 0.61904 0.0
H142 H 0.51032 0.13247 0.60795 0.0
H143 H 0.49203 0.12159 0.63206 0.0
Mn144 Mn 0.16448 0.70833 0.46573 0.0
Mn145 Mn 0.1374 0.72268 0.46963 0.0
C146 C 0.15622 0.714 0.52685 0.0
C147 C 0.18567 0.70855 0.46328 0.0
C148 C 0.13994 0.69582 0.45157 0.0
O149 O 0.16273 0.71506 0.40905 0.0
O150 O 0.14461 0.72465 0.41513 0.0
C151 C 0.14561 0.74816 0.46056 0.0
N152 N 0.1397 0.73947 0.48222 0.0
C153 C 0.13443 0.75391 0.53372 0.0
C154 C 0.14042 0.76303 0.51187 0.0
C155 C 0.14604 0.76013 0.47515 0.0
C156 C 0.1342 0.74217 0.51748 0.0
H157 H 0.14999 0.74597 0.43241 0.0
C158 C 0.15407 0.72154 0.39501 0.0
O159 O 0.17951 0.69909 0.45197 0.0
O160 O 0.17951 0.71802 0.47435 0.0
N161 N 0.12976 0.72153 0.52121 0.0
C162 C 0.12524 0.7115 0.54005 0.0
C163 C 0.11969 0.71274 0.57785 0.0
C164 C 0.11886 0.72426 0.59585 0.0
C165 C 0.12365 0.73443 0.57598 0.0
C166 C 0.12896 0.73266 0.53817 0.0
H167 H 0.1259 0.70262 0.52641 0.0
O168 O 0.16383 0.70501 0.52492 0.0
O169 O 0.15331 0.71897 0.49278 0.0
O170 O 0.1515 0.69538 0.4541 0.0
O171 O 0.13384 0.70553 0.45718 0.0
C172 C 0.12356 0.74622 0.59255 0.0
C173 C 0.12896 0.75595 0.57144 0.0
H174 H 0.14086 0.77225 0.52319 0.0
H175 H 0.15073 0.7671 0.45822 0.0
H176 H 0.11609 0.70484 0.59313 0.0
H177 H 0.11461 0.72517 0.62509 0.0
H178 H 0.11954 0.74787 0.62177 0.0
H179 H 0.12901 0.76493 0.58478 0.0
Mn180 Mn 0.5461 0.91479 0.71292 0.0
Mn181 Mn 0.53132 0.88833 0.72736 0.0
C182 C 0.54115 0.90825 0.77726 0.0
C183 C 0.54588 0.93587 0.70448 0.0
C184 C 0.55789 0.88984 0.70263 0.0
O185 O 0.53865 0.91142 0.65765 0.0
O186 O 0.52785 0.89451 0.67258 0.0
C187 C 0.50584 0.89695 0.72473 0.0
N188 N 0.51503 0.89127 0.74471 0.0
C189 C 0.50192 0.88671 0.80062 0.0
C190 C 0.49228 0.89241 0.78047 0.0
C191 C 0.49428 0.89762 0.74246 0.0
C192 C 0.51325 0.88638 0.78153 0.0
H193 H 0.50733 0.90098 0.69554 0.0
C194 C 0.53105 0.90304 0.64846 0.0
O195 O 0.55519 0.92939 0.69361 0.0
O196 O 0.53654 0.93003 0.71828 0.0
N197 N 0.53388 0.88177 0.78 0.0
C198 C 0.54433 0.87743 0.79663 0.0
C199 C 0.54406 0.87253 0.83562 0.0
C200 C 0.53304 0.87206 0.85694 0.0
C201 C 0.5224 0.87656 0.83914 0.0
C202 C 0.52324 0.88138 0.80028 0.0
H203 H 0.55281 0.87774 0.78032 0.0
O204 O 0.55009 0.91578 0.77195 0.0
O205 O 0.53583 0.90456 0.74483 0.0
O206 O 0.55877 0.90139 0.70374 0.0
O207 O 0.54803 0.88417 0.7103 0.0
C208 C 0.51102 0.87652 0.85852 0.0
C209 C 0.50076 0.8815 0.83911 0.0
H210 H 0.48335 0.89295 0.79407 0.0
H211 H 0.48691 0.90211 0.72685 0.0
H212 H 0.55231 0.86911 0.8492 0.0
H213 H 0.53287 0.86829 0.88703 0.0
H214 H 0.51006 0.8728 0.88851 0.0
H215 H 0.49207 0.88151 0.85445 0.0
Mn216 Mn 0.33535 0.2938 0.97024 0.0
Mn217 Mn 0.36271 0.28161 0.99138 0.0
C218 C 0.34173 0.29165 0.03616 0.0
C219 C 0.31442 0.29163 0.96181 0.0
C220 C 0.35952 0.30702 0.95713 0.0
O221 O 0.3395 0.28466 0.91873 0.0
O222 O 0.35737 0.27617 0.93715 0.0
C223 C 0.35601 0.25557 0.99573 0.0
N224 N 0.36068 0.2657 0.01354 0.0
C225 C 0.36428 0.25484 0.07525 0.0
C226 C 0.35955 0.24429 0.05751 0.0
C227 C 0.3554 0.24467 0.01758 0.0
C228 C 0.36479 0.26542 0.05186 0.0
H229 H 0.35274 0.25583 0.96514 0.0
C230 C 0.34866 0.27777 0.912 0.0
O231 O 0.32017 0.3009 0.94679 0.0
O232 O 0.32092 0.28341 0.97953 0.0
N233 N 0.36844 0.28611 0.04368 0.0
C234 C 0.37183 0.29728 0.05733 0.0
C235 C 0.37573 0.29859 0.0973 0.0
C236 C 0.37609 0.28841 0.12281 0.0
C237 C 0.37256 0.27701 0.10808 0.0
C238 C 0.36885 0.27624 0.06787 0.0
H239 H 0.37146 0.30514 0.03796 0.0
O240 O 0.33374 0.29988 0.02701 0.0
O241 O 0.34606 0.28551 0.00618 0.0
O242 O 0.34792 0.30695 0.9563 0.0
O243 O 0.36583 0.29802 0.96953 0.0
C244 C 0.3723 0.26644 0.132 0.0
C245 C 0.36817 0.25536 0.11559 0.0
H246 H 0.35894 0.23589 0.07439 0.0
H247 H 0.35168 0.23658 0.00374 0.0
H248 H 0.37838 0.30743 0.10851 0.0
H249 H 0.37898 0.28948 0.15375 0.0
H250 H 0.37509 0.26676 0.16322 0.0
H251 H 0.36783 0.24734 0.13446 0.0
Mn252 Mn 0.95958 0.08687 0.21643 0.0
Mn253 Mn 0.97424 0.11373 0.20973 0.0
C254 C 0.96576 0.09703 0.2739 0.0
C255 C 0.95944 0.06567 0.22087 0.0
C256 C 0.94716 0.11122 0.1972 0.0
O257 O 0.96577 0.08663 0.15876 0.0
O258 O 0.9749 0.10502 0.15749 0.0
C259 C 0.99925 0.10449 0.19722 0.0
N260 N 0.99123 0.11136 0.21862 0.0
C261 C 0.00719 0.11903 0.26101 0.0
C262 C 0.01563 0.11207 0.23936 0.0
C263 C 0.01162 0.10471 0.20748 0.0
C264 C 0.99497 0.11835 0.24966 0.0
H265 H 0.99623 0.09891 0.17244 0.0
C266 C 0.97175 0.09499 0.14091 0.0
O267 O 0.94997 0.07166 0.20861 0.0
O268 O 0.96908 0.07196 0.22927 0.0
N269 N 0.9745 0.12299 0.25837 0.0
C270 C 0.96509 0.12841 0.27804 0.0
C271 C 0.96749 0.1357 0.3118 0.0
C272 C 0.97954 0.13748 0.32453 0.0
C273 C 0.98906 0.13183 0.30369 0.0
C274 C 0.98611 0.12454 0.27064 0.0
H275 H 0.95584 0.12718 0.26804 0.0
O276 O 0.95671 0.08947 0.27517 0.0
O277 O 0.97068 0.09868 0.23883 0.0
O278 O 0.94672 0.0997 0.20163 0.0
O279 O 0.95694 0.11734 0.20064 0.0
C280 C 0.00138 0.13309 0.31449 0.0
C281 C 0.01043 0.1266 0.29346 0.0
H282 H 0.0252 0.11226 0.24706 0.0
H283 H 0.01807 0.09929 0.19068 0.0
H284 H 0.96008 0.14 0.32779 0.0
H285 H 0.98136 0.14315 0.35047 0.0
H286 H 0.00398 0.13887 0.3394 0.0
H287 H 0.01983 0.12743 0.30267 0.0
Mn288 Mn 0.83486 0.70723 0.96723 0.0
Mn289 Mn 0.8615 0.72204 0.9774 0.0
C290 C 0.84283 0.71116 0.03036 0.0
C291 C 0.81368 0.70744 0.96398 0.0
C292 C 0.8597 0.6957 0.95074 0.0
O293 O 0.83685 0.71543 0.91258 0.0
O294 O 0.85435 0.72561 0.92393 0.0
C295 C 0.85232 0.74734 0.97727 0.0
N296 N 0.85853 0.73823 0.99586 0.0
C297 C 0.86321 0.75111 0.05224 0.0
C298 C 0.85691 0.76065 0.03361 0.0
C299 C 0.85142 0.75874 0.996 0.0
C300 C 0.86382 0.73995 0.0321 0.0
H301 H 0.84806 0.74592 0.94841 0.0
C302 C 0.84522 0.72283 0.90176 0.0
O303 O 0.8199 0.69831 0.95014 0.0
O304 O 0.81978 0.71659 0.97786 0.0
N305 N 0.86909 0.71949 0.02852 0.0
C306 C 0.87414 0.70915 0.0436 0.0
C307 C 0.87969 0.70941 0.08163 0.0
C308 C 0.88005 0.72031 0.10361 0.0
C309 C 0.87483 0.73085 0.08739 0.0
C310 C 0.86944 0.73004 0.04935 0.0
H311 H 0.87389 0.70075 0.02682 0.0
O312 O 0.83522 0.70228 0.02536 0.0
O313 O 0.84571 0.71714 -0.00179 0.0
O314 O 0.84815 0.69488 0.95289 0.0
O315 O 0.86554 0.70542 0.95912 0.0
C316 C 0.87463 0.74209 0.10768 0.0
C317 C 0.86876 0.75219 0.09025 0.0
H318 H 0.85616 0.76945 0.04801 0.0
H319 H 0.84649 0.76604 0.9815 0.0
H320 H 0.88367 0.70123 0.09399 0.0
H321 H 0.88428 0.72046 0.13301 0.0
H322 H 0.87888 0.74305 0.13687 0.0
H323 H 0.86849 0.76073 0.10646 0.0
Mn324 Mn 0.04463 0.08542 0.71107 0.0
Mn325 Mn 0.03148 0.11267 0.72741 0.0
C326 C 0.04025 0.09177 0.77593 0.0
C327 C 0.04329 0.06446 0.70138 0.0
C328 C 0.05787 0.10975 0.70243 0.0
O329 O 0.03721 0.08943 0.65643 0.0
O330 O 0.02789 0.10714 0.67187 0.0
C331 C 0.0055 0.1058 0.72269 0.0
N332 N 0.01494 0.11066 0.74371 0.0
C333 C 0.00196 0.11516 0.80004 0.0
C334 C 0.9921 0.11022 0.77896 0.0
C335 C 0.99388 0.10551 0.74014 0.0
C336 C 0.01332 0.11527 0.78102 0.0
H337 H 0.00683 0.10214 0.69288 0.0
C338 C 0.03042 0.09848 0.64739 0.0
O339 O 0.05289 0.0705 0.69053 0.0
O340 O 0.03431 0.07067 0.71595 0.0
N341 N 0.03419 0.11867 0.78065 0.0
C342 C 0.04482 0.12225 0.79802 0.0
C343 C 0.04469 0.12685 0.83741 0.0
C344 C 0.03365 0.12773 0.85844 0.0
C345 C 0.02285 0.12391 0.84002 0.0
C346 C 0.02352 0.1195 0.80061 0.0
H347 H 0.05332 0.12159 0.78197 0.0
O348 O 0.04882 0.08389 0.76961 0.0
O349 O 0.03498 0.09601 0.74402 0.0
O350 O 0.05799 0.09816 0.70198 0.0
O351 O 0.04844 0.11594 0.7114 0.0
C352 C 0.01146 0.12414 0.85943 0.0
C353 C 0.00103 0.11974 0.8395 0.0
H354 H 0.98314 0.10991 0.79242 0.0
H355 H 0.98632 0.10164 0.72375 0.0
H356 H 0.05308 0.1297 0.85152 0.0
H357 H 0.03361 0.13127 0.88884 0.0
H358 H 0.01064 0.12752 0.8899 0.0
H359 H 0.99237 0.11977 0.85499 0.0
Mn360 Mn 0.66369 0.29285 0.46766 0.0
Mn361 Mn 0.63727 0.27731 0.46796 0.0
C362 C 0.65474 0.28704 0.52769 0.0
C363 C 0.6849 0.29327 0.46781 0.0
C364 C 0.63882 0.3043 0.45027 0.0
O365 O 0.66292 0.28615 0.41062 0.0
O366 O 0.6453 0.27568 0.41481 0.0
C367 C 0.64708 0.25235 0.46056 0.0
N368 N 0.64032 0.26067 0.48103 0.0
C369 C 0.6348 0.24586 0.53103 0.0
C370 C 0.64166 0.23712 0.5104 0.0
C371 C 0.64785 0.24039 0.47508 0.0
C372 C 0.63436 0.25763 0.51512 0.0
H373 H 0.65186 0.25482 0.4334 0.0
C374 C 0.65478 0.27921 0.39562 0.0
O375 O 0.6786 0.30258 0.45588 0.0
O376 O 0.67888 0.28364 0.47827 0.0
N377 N 0.62877 0.27801 0.5181 0.0
C378 C 0.62321 0.28771 0.53573 0.0
C379 C 0.61684 0.28605 0.57191 0.0
C380 C 0.61619 0.27444 0.58939 0.0
C381 C 0.62202 0.26461 0.57074 0.0
C382 C 0.6282 0.26681 0.53468 0.0
H383 H 0.62364 0.29663 0.5223 0.0
O384 O 0.66216 0.29621 0.52668 0.0
O385 O 0.65258 0.28183 0.49345 0.0
O386 O 0.65032 0.30526 0.45434 0.0
O387 O 0.6331 0.2943 0.45493 0.0
C388 C 0.62206 0.25275 0.58672 0.0
C389 C 0.6285 0.2434 0.56702 0.0
H390 H 0.6423 0.22789 0.52155 0.0
H391 H 0.65321 0.23371 0.45907 0.0
H392 H 0.6124 0.29369 0.58623 0.0
H393 H 0.61125 0.27321 0.61728 0.0
H394 H 0.61728 0.25073 0.61441 0.0
H395 H 0.62863 0.23436 0.57997 0.0
Mn396 Mn 0.45971 0.91647 0.21458 0.0
Mn397 Mn 0.47519 0.89013 0.223 0.0
C398 C 0.46505 0.90893 0.27711 0.0
C399 C 0.45928 0.93762 0.20957 0.0
C400 C 0.44837 0.89128 0.20209 0.0
O401 O 0.4669 0.91436 0.15848 0.0
O402 O 0.47737 0.89695 0.16826 0.0
C403 C 0.50021 0.89981 0.21597 0.0
N404 N 0.49168 0.89353 0.23717 0.0
C405 C 0.50592 0.88937 0.2903 0.0
C406 C 0.51488 0.89574 0.26896 0.0
C407 C 0.51199 0.90101 0.23168 0.0
C408 C 0.49434 0.88847 0.27314 0.0
H409 H 0.49804 0.90388 0.18732 0.0
C410 C 0.47402 0.90593 0.14633 0.0
O411 O 0.45008 0.93104 0.1983 0.0
O412 O 0.46884 0.93188 0.22217 0.0
N413 N 0.47396 0.88281 0.27508 0.0
C414 C 0.46411 0.87761 0.29294 0.0
C415 C 0.46536 0.87223 0.33103 0.0
C416 C 0.47674 0.87218 0.35018 0.0
C417 C 0.48677 0.87754 0.33109 0.0
C418 C 0.48497 0.88275 0.29316 0.0
H419 H 0.45535 0.8776 0.27829 0.0
O420 O 0.45592 0.91632 0.27363 0.0
O421 O 0.47046 0.90598 0.24392 0.0
O422 O 0.44742 0.90283 0.20356 0.0
O423 O 0.45831 0.88564 0.20906 0.0
C424 C 0.49845 0.87801 0.34838 0.0
C425 C 0.508 0.884 0.32815 0.0
H426 H 0.52397 0.89671 0.28101 0.0
H427 H 0.51884 0.90599 0.2151 0.0
H428 H 0.45758 0.86814 0.3456 0.0
H429 H 0.47767 0.86807 0.37963 0.0
H430 H 0.50018 0.87389 0.3774 0.0
H431 H 0.51688 0.88448 0.34208 0.0
Mn432 Mn 0.83418 0.29356 0.53327 0.0
Mn433 Mn 0.86038 0.27872 0.51598 0.0
C434 C 0.84037 0.28924 0.46799 0.0
C435 C 0.81319 0.29314 0.54321 0.0
C436 C 0.85912 0.30488 0.54562 0.0
O437 O 0.83792 0.28555 0.58744 0.0
O438 O 0.85404 0.27395 0.56956 0.0
C439 C 0.85145 0.25337 0.51095 0.0
N440 N 0.85733 0.26297 0.49392 0.0
C441 C 0.86175 0.25139 0.4343 0.0
C442 C 0.85588 0.24133 0.45141 0.0
C443 C 0.85064 0.24235 0.48979 0.0
C444 C 0.8622 0.26215 0.45669 0.0
H445 H 0.84737 0.25414 0.54035 0.0
C446 C 0.84586 0.27731 0.59473 0.0
O447 O 0.81968 0.30239 0.55455 0.0
O448 O 0.81897 0.28397 0.52797 0.0
N449 N 0.86703 0.2826 0.46433 0.0
C450 C 0.87154 0.2934 0.45089 0.0
C451 C 0.87652 0.29411 0.41207 0.0
C452 C 0.8769 0.28371 0.38762 0.0
C453 C 0.87223 0.2727 0.40213 0.0
C454 C 0.86733 0.27255 0.44101 0.0
H455 H 0.87133 0.30141 0.46959 0.0
O456 O 0.83282 0.29808 0.47462 0.0
O457 O 0.84422 0.2837 0.49974 0.0
O458 O 0.84762 0.30609 0.54289 0.0
O459 O 0.86463 0.29493 0.53775 0.0
C460 C 0.87215 0.26189 0.37944 0.0
C461 C 0.86702 0.25122 0.39567 0.0
H462 H 0.85523 0.23282 0.43517 0.0
H463 H 0.84599 0.23466 0.50305 0.0
H464 H 0.88009 0.30266 0.40106 0.0
H465 H 0.88074 0.2843 0.35768 0.0
H466 H 0.87592 0.2617 0.34937 0.0
H467 H 0.86698 0.24297 0.37789 0.0
Mn468 Mn 0.45751 0.08729 0.27721 0.0
Mn469 Mn 0.47243 0.11393 0.2683 0.0
C470 C 0.46252 0.09495 0.21444 0.0
C471 C 0.45755 0.06612 0.28174 0.0
C472 C 0.44572 0.11223 0.28986 0.0
O473 O 0.46488 0.08941 0.33288 0.0
O474 O 0.47482 0.10712 0.32302 0.0
C475 C 0.49769 0.10485 0.27541 0.0
N476 N 0.48902 0.11095 0.25426 0.0
C477 C 0.50328 0.11582 0.2018 0.0
C478 C 0.51237 0.10963 0.22309 0.0
C479 C 0.50955 0.10409 0.26 0.0
C480 C 0.49162 0.11627 0.21865 0.0
H481 H 0.49558 0.10059 0.30381 0.0
C482 C 0.47185 0.09797 0.34487 0.0
O483 O 0.44826 0.07246 0.29357 0.0
O484 O 0.46692 0.0721 0.26881 0.0
N485 N 0.47107 0.12121 0.21624 0.0
C486 C 0.46107 0.12598 0.19802 0.0
C487 C 0.46226 0.13166 0.16043 0.0
C488 C 0.47373 0.13239 0.14201 0.0
C489 C 0.48387 0.12724 0.16106 0.0
C490 C 0.48213 0.12176 0.1986 0.0
H491 H 0.45224 0.12542 0.21201 0.0
O492 O 0.45346 0.08749 0.21838 0.0
O493 O 0.468 0.09798 0.24742 0.0
O494 O 0.445 0.10066 0.28937 0.0
O495 O 0.45546 0.11807 0.28198 0.0
C496 C 0.49561 0.1272 0.14406 0.0
C497 C 0.50528 0.12142 0.16428 0.0
H498 H 0.52152 0.109 0.21126 0.0
H499 H 0.5165 0.09926 0.27655 0.0
H500 H 0.45438 0.13549 0.1457 0.0
H501 H 0.47461 0.1368 0.11304 0.0
H502 H 0.49726 0.13143 0.11515 0.0
H503 H 0.51421 0.12127 0.15056 0.0
Mn504 Mn 0.66465 0.7058 0.02985 0.0
Mn505 Mn 0.63801 0.71969 0.0098 0.0
C506 C 0.65885 0.70955 0.9642 0.0
C507 C 0.68558 0.70659 0.04068 0.0
C508 C 0.63981 0.6935 0.03815 0.0
O509 O 0.66053 0.714 0.08309 0.0
O510 O 0.6432 0.72369 0.06557 0.0
C511 C 0.64591 0.74541 0.01203 0.0
N512 N 0.64087 0.73593 0.99162 0.0
C513 C 0.63804 0.74826 0.93259 0.0
C514 C 0.64314 0.75817 0.95305 0.0
C515 C 0.64709 0.75673 0.99293 0.0
C516 C 0.63695 0.73724 0.95333 0.0
H517 H 0.64903 0.74433 0.0426 0.0
C518 C 0.65164 0.72113 0.09086 0.0
O519 O 0.67917 0.69733 0.0525 0.0
O520 O 0.67973 0.71558 0.02462 0.0
N521 N 0.63241 0.7166 0.95625 0.0
C522 C 0.62861 0.70591 0.93977 0.0
C523 C 0.62487 0.70566 0.89941 0.0
C524 C 0.62506 0.71637 0.87644 0.0
C525 C 0.62898 0.72726 0.89408 0.0
C526 C 0.63251 0.72699 0.93454 0.0
H527 H 0.62855 0.69763 0.95719 0.0
O528 O 0.66642 0.70082 0.97212 0.0
O529 O 0.65462 0.71538 0.99504 0.0
O530 O 0.65139 0.69303 0.0396 0.0
O531 O 0.63398 0.70302 0.02754 0.0
C532 C 0.62981 0.73831 0.87281 0.0
C533 C 0.63432 0.74881 0.89207 0.0
H534 H 0.64419 0.76688 0.93828 0.0
H535 H 0.6511 0.76431 0.00885 0.0
H536 H 0.62191 0.69721 0.88595 0.0
H537 H 0.6223 0.71611 0.84519 0.0
H538 H 0.6272 0.73879 0.84145 0.0
H539 H 0.63509 0.7572 0.87522 0.0
Mn540 Mn 0.04298 0.91504 0.78087 0.0
Mn541 Mn 0.02895 0.88778 0.78 0.0
C542 C 0.03793 0.90578 0.72072 0.0
C543 C 0.04242 0.93626 0.78027 0.0
C544 C 0.05567 0.89084 0.79946 0.0
O545 O 0.03585 0.91399 0.83726 0.0
O546 O 0.02652 0.89569 0.8332 0.0
C547 C 0.0034 0.89606 0.78569 0.0
N548 N 0.01225 0.88988 0.76568 0.0
C549 C 0.99824 0.88396 0.71369 0.0
C550 C 0.98895 0.8902 0.73386 0.0
C551 C 0.99155 0.8963 0.76998 0.0
C552 C 0.00985 0.88398 0.73091 0.0
H553 H 0.00535 0.90079 0.81339 0.0
C554 C 0.02937 0.90545 0.85209 0.0
O555 O 0.0519 0.9304 0.79309 0.0
O556 O 0.03314 0.92979 0.76927 0.0
N557 N 0.03051 0.87945 0.72974 0.0
C558 C 0.04066 0.87461 0.71257 0.0
C559 C 0.03971 0.86859 0.67547 0.0
C560 C 0.02835 0.86757 0.65651 0.0
C561 C 0.01803 0.87259 0.67483 0.0
C562 C 0.01952 0.87845 0.71189 0.0
H563 H 0.04942 0.87542 0.72693 0.0
O564 O 0.04674 0.91361 0.72206 0.0
O565 O 0.03272 0.90336 0.75477 0.0
O566 O 0.05599 0.90237 0.79533 0.0
O567 O 0.04605 0.88456 0.79422 0.0
C568 C 0.00637 0.87221 0.65744 0.0
C569 C 0.99648 0.87791 0.6768 0.0
H570 H 0.97982 0.89047 0.72172 0.0
H571 H 0.98445 0.90119 0.78563 0.0
H572 H 0.04773 0.86478 0.66144 0.0
H573 H 0.02767 0.86299 0.62776 0.0
H574 H 0.00494 0.86771 0.62885 0.0
H575 H 0.9876 0.87773 0.66275 0.0
Mn576 Mn 0.66536 0.79028 0.52443 0.0
Mn577 Mn 0.63813 0.7762 0.52236 0.0
C578 C 0.65579 0.78619 0.46393 0.0
C579 C 0.68657 0.78971 0.52194 0.0
C580 C 0.64114 0.80259 0.54611 0.0
O581 O 0.66465 0.78216 0.57943 0.0
O582 O 0.64619 0.77319 0.57494 0.0
C583 C 0.64659 0.75066 0.52429 0.0
N584 N 0.64028 0.75971 0.50573 0.0
C585 C 0.63413 0.74626 0.45242 0.0
C586 C 0.64051 0.73678 0.47106 0.0
C587 C 0.64679 0.739 0.50711 0.0
C588 C 0.63422 0.75768 0.47101 0.0
H589 H 0.65144 0.75232 0.55196 0.0
C590 C 0.65605 0.77565 0.59377 0.0
O591 O 0.68088 0.7989 0.53763 0.0
O592 O 0.67999 0.78071 0.50941 0.0
N593 N 0.62961 0.77831 0.47268 0.0
C594 C 0.62465 0.78863 0.45707 0.0
C595 C 0.61844 0.78808 0.42024 0.0
C596 C 0.61734 0.77693 0.39998 0.0
C597 C 0.62249 0.76643 0.41671 0.0
C598 C 0.62856 0.76753 0.45352 0.0
H599 H 0.6255 0.79723 0.47248 0.0
O600 O 0.66355 0.79505 0.46645 0.0
O601 O 0.65356 0.78045 0.49714 0.0
O602 O 0.65269 0.80299 0.54231 0.0
O603 O 0.63488 0.79307 0.53893 0.0
C604 C 0.622 0.75496 0.39802 0.0
C605 C 0.62785 0.74489 0.41578 0.0
H606 H 0.64073 0.72779 0.45781 0.0
H607 H 0.65178 0.73174 0.52159 0.0
H608 H 0.61452 0.79624 0.40745 0.0
H609 H 0.61259 0.77656 0.37147 0.0
H610 H 0.61731 0.75382 0.36962 0.0
H611 H 0.62759 0.73616 0.40071 0.0
Mn612 Mn 0.4556 0.41624 0.77942 0.0
Mn613 Mn 0.46909 0.38912 0.76394 0.0
C614 C 0.46034 0.40979 0.71494 0.0
C615 C 0.45684 0.43722 0.78946 0.0
C616 C 0.44254 0.39175 0.78725 0.0
O617 O 0.46274 0.4123 0.83451 0.0
O618 O 0.47223 0.39462 0.81976 0.0
C619 C 0.4949 0.39644 0.77054 0.0
N620 N 0.48568 0.39146 0.74879 0.0
C621 C 0.49914 0.38696 0.69376 0.0
C622 C 0.5088 0.39201 0.71562 0.0
C623 C 0.50666 0.39681 0.75412 0.0
C624 C 0.48762 0.38689 0.71161 0.0
H625 H 0.49331 0.4001 0.80022 0.0
C626 C 0.46948 0.40326 0.84405 0.0
O627 O 0.44718 0.43114 0.79951 0.0
O628 O 0.46589 0.43103 0.7752 0.0
N629 N 0.46682 0.3831 0.71048 0.0
C630 C 0.45639 0.37927 0.69241 0.0
C631 C 0.45687 0.37469 0.65302 0.0
C632 C 0.46806 0.37401 0.63279 0.0
C633 C 0.47868 0.37796 0.65211 0.0
C634 C 0.47763 0.38248 0.6913 0.0
H635 H 0.44778 0.37975 0.70788 0.0
O636 O 0.45176 0.4177 0.72051 0.0
O637 O 0.46548 0.40569 0.74721 0.0
O638 O 0.44231 0.40335 0.78777 0.0
O639 O 0.45207 0.38564 0.77873 0.0
C640 C 0.49023 0.37767 0.6339 0.0
C641 C 0.50047 0.38213 0.6548 0.0
H642 H 0.51788 0.39231 0.70305 0.0
H643 H 0.51405 0.40076 0.77113 0.0
H644 H 0.44863 0.37168 0.63829 0.0
H645 H 0.46839 0.37049 0.60239 0.0
H646 H 0.49134 0.37419 0.60365 0.0
H647 H 0.50929 0.38198 0.64031 0.0
Mn648 Mn 0.83614 0.20754 0.03066 0.0
Mn649 Mn 0.86269 0.22286 0.02935 0.0
C650 C 0.84508 0.21304 0.97027 0.0
C651 C 0.81492 0.20719 0.03062 0.0
C652 C 0.86094 0.19596 0.04822 0.0
O653 O 0.83699 0.2145 0.08738 0.0
O654 O 0.85473 0.22474 0.08255 0.0
C655 C 0.85307 0.24792 0.03596 0.0
N656 N 0.85975 0.23948 0.01572 0.0
C657 C 0.86537 0.25409 0.9652 0.0
C658 C 0.85859 0.26295 0.98558 0.0
C659 C 0.85239 0.25984 0.02105 0.0
C660 C 0.86571 0.24236 0.98148 0.0
H661 H 0.84829 0.24557 0.06324 0.0
C662 C 0.84523 0.2214 0.10201 0.0
O663 O 0.8212 0.19792 0.04304 0.0
O664 O 0.82096 0.21675 0.01969 0.0
N665 N 0.87112 0.22193 0.97914 0.0
C666 C 0.87659 0.21213 0.96179 0.0
C667 C 0.88297 0.21363 0.92554 0.0
C668 C 0.88372 0.22518 0.9077 0.0
C669 C 0.87797 0.23512 0.92605 0.0
C670 C 0.87177 0.23307 0.96219 0.0
H671 H 0.87609 0.20325 0.9755 0.0
O672 O 0.83761 0.20392 0.97178 0.0
O673 O 0.8473 0.21838 0.00425 0.0
O674 O 0.84943 0.19511 0.04448 0.0
O675 O 0.86676 0.20588 0.04293 0.0
C676 C 0.87803 0.24694 0.9097 0.0
C677 C 0.87167 0.2564 0.92911 0.0
H678 H 0.85802 0.27216 0.97414 0.0
H679 H 0.8471 0.26662 0.03688 0.0
H680 H 0.88733 0.20591 0.91145 0.0
H681 H 0.88866 0.22629 0.87977 0.0
H682 H 0.88283 0.24883 0.88195 0.0
H683 H 0.87162 0.26539 0.91588 0.0
Mn684 Mn 0.04292 0.58614 0.28386 0.0
Mn685 Mn 0.029 0.61305 0.2699 0.0
C686 C 0.0379 0.59277 0.21954 0.0
C687 C 0.0422 0.56512 0.29266 0.0
C688 C 0.05549 0.61067 0.29419 0.0
O689 O 0.0357 0.58973 0.33922 0.0
O690 O 0.02537 0.60694 0.32471 0.0
C691 C 0.00317 0.60556 0.27284 0.0
N692 N 0.01262 0.61068 0.25251 0.0
C693 C 0.99964 0.61604 0.19708 0.0
C694 C 0.98976 0.61086 0.21748 0.0
C695 C 0.99155 0.60552 0.25539 0.0
C696 C 0.01103 0.61564 0.2157 0.0
H697 H 0.00448 0.6016 0.30225 0.0
C698 C 0.02841 0.59834 0.34875 0.0
O699 O 0.05168 0.57139 0.30311 0.0
O700 O 0.03295 0.57114 0.279 0.0
N701 N 0.03179 0.6196 0.21738 0.0
C702 C 0.04232 0.62395 0.20131 0.0
C703 C 0.04218 0.6292 0.16283 0.0
C704 C 0.0312 0.63005 0.14148 0.0
C705 C 0.02046 0.6256 0.15878 0.0
C706 C 0.02118 0.62036 0.19709 0.0
H707 H 0.05077 0.62341 0.21772 0.0
O708 O 0.04665 0.58501 0.22477 0.0
O709 O 0.03286 0.59666 0.2522 0.0
O710 O 0.05601 0.59911 0.29261 0.0
O711 O 0.0458 0.61666 0.28697 0.0
C712 C 0.00907 0.62617 0.13957 0.0
C713 C 0.99865 0.62151 0.15886 0.0
H714 H 0.98077 0.61088 0.2042 0.0
H715 H 0.98397 0.60148 0.27127 0.0
H716 H 0.0505 0.63264 0.14973 0.0
H717 H 0.03111 0.63414 0.11185 0.0
H718 H 0.00822 0.6302 0.10997 0.0
H719 H 0.98994 0.62199 0.14377 0.0
Mn720 Mn 0.66561 0.20665 0.96541 0.0
Mn721 Mn 0.6398 0.22216 0.98228 0.0
C722 C 0.65956 0.21127 0.03059 0.0
C723 C 0.68661 0.20673 0.95528 0.0
C724 C 0.64044 0.19592 0.95304 0.0
O725 O 0.66198 0.21457 0.91097 0.0
O726 O 0.64632 0.22678 0.92884 0.0
C727 C 0.64928 0.24731 0.98743 0.0
N728 N 0.64319 0.23784 0.00442 0.0
C729 C 0.63897 0.24951 0.064 0.0
C730 C 0.64507 0.25944 0.04696 0.0
C731 C 0.65032 0.25831 0.00861 0.0
C732 C 0.6383 0.23876 0.04159 0.0
H733 H 0.65334 0.24647 0.95803 0.0
C734 C 0.65434 0.22308 0.90362 0.0
O735 O 0.68 0.19752 0.94437 0.0
O736 O 0.68095 0.21602 0.97024 0.0
N737 N 0.63301 0.21843 0.03384 0.0
C738 C 0.62823 0.20774 0.04719 0.0
C739 C 0.62318 0.20713 0.08593 0.0
C740 C 0.62302 0.21753 0.11042 0.0
C741 C 0.62797 0.22844 0.09599 0.0
C742 C 0.63291 0.22848 0.05718 0.0
H743 H 0.62826 0.19973 0.02845 0.0
O744 O 0.66694 0.20228 0.02418 0.0
O745 O 0.65581 0.2168 -0.00131 0.0
O746 O 0.65188 0.19435 0.9564 0.0
O747 O 0.63523 0.20607 0.96035 0.0
C748 C 0.62827 0.23924 0.11871 0.0
C749 C 0.63366 0.2498 0.10256 0.0
H750 H 0.64589 0.26793 0.06322 0.0
H751 H 0.65513 0.2659 0.9954 0.0
H752 H 0.6194 0.19867 0.09688 0.0
H753 H 0.61913 0.21703 0.1403 0.0
H754 H 0.62446 0.23951 0.14873 0.0
H755 H 0.63386 0.25804 0.12035 0.0
Mn756 Mn 0.04351 0.41577 0.21542 0.0
Mn757 Mn 0.02883 0.38887 0.21769 0.0
C758 C 0.03781 0.40713 0.27595 0.0
C759 C 0.04328 0.43698 0.2141 0.0
C760 C 0.05576 0.39116 0.19996 0.0
O761 O 0.03683 0.41439 0.15853 0.0
O762 O 0.02696 0.3964 0.16371 0.0
C763 C 0.00353 0.39768 0.20947 0.0
N764 N 0.0121 0.39145 0.23063 0.0
C765 C 0.99759 0.38615 0.28186 0.0
C766 C 0.98859 0.39245 0.26052 0.0
C767 C 0.99158 0.39826 0.22421 0.0
C768 C 0.00933 0.38585 0.26562 0.0
H769 H 0.00579 0.40218 0.18159 0.0
C770 C 0.03022 0.40589 0.14406 0.0
O771 O 0.05279 0.43089 0.20267 0.0
O772 O 0.03382 0.43074 0.2248 0.0
N773 N 0.02987 0.3809 0.26873 0.0
C774 C 0.03978 0.37595 0.28701 0.0
C775 C 0.03844 0.37019 0.32443 0.0
C776 C 0.02693 0.36952 0.34254 0.0
C777 C 0.01685 0.37464 0.32307 0.0
C778 C 0.01874 0.38024 0.28579 0.0
H779 H 0.04866 0.37647 0.27326 0.0
O780 O 0.04679 0.41477 0.27466 0.0
O781 O 0.03281 0.40454 0.24173 0.0
O782 O 0.05636 0.40271 0.20322 0.0
O783 O 0.04594 0.38517 0.20497 0.0
C784 C 0.00505 0.37457 0.33949 0.0
C785 C 0.99543 0.38035 0.31896 0.0
H786 H 0.97938 0.39297 0.27188 0.0
H787 H 0.98469 0.40319 0.20766 0.0
H788 H 0.04627 0.36629 0.33932 0.0
H789 H 0.02594 0.36513 0.37151 0.0
H790 H 0.00331 0.37027 0.36823 0.0
H791 H 0.98644 0.38042 0.33225 0.0
Mn792 Mn 0.83734 0.79222 0.46509 0.0
Mn793 Mn 0.86449 0.77886 0.47987 0.0
C794 C 0.84473 0.78911 0.52994 0.0
C795 C 0.81623 0.79067 0.45935 0.0
C796 C 0.86161 0.80462 0.44797 0.0
O797 O 0.84049 0.78361 0.41165 0.0
O798 O 0.85775 0.77351 0.42744 0.0
C799 C 0.85693 0.75312 0.48691 0.0
N800 N 0.8624 0.7631 0.50301 0.0
C801 C 0.86837 0.75191 0.56193 0.0
C802 C 0.86295 0.74146 0.54573 0.0
C803 C 0.85712 0.7421 0.50821 0.0
C804 C 0.8678 0.76265 0.53947 0.0
H805 H 0.8525 0.75356 0.45799 0.0
C806 C 0.84892 0.77596 0.40356 0.0
O807 O 0.82204 0.79998 0.44485 0.0
O808 O 0.82272 0.78211 0.47521 0.0
N809 N 0.87167 0.78325 0.53024 0.0
C810 C 0.87619 0.79421 0.54207 0.0
C811 C 0.88191 0.79524 0.57966 0.0
C812 C 0.88302 0.78498 0.60452 0.0
C813 C 0.87838 0.77377 0.59156 0.0
C814 C 0.87272 0.77331 0.55388 0.0
H815 H 0.87544 0.80211 0.523 0.0
O816 O 0.83676 0.79755 0.52299 0.0
O817 O 0.84835 0.78326 0.49843 0.0
O818 O 0.85006 0.8052 0.45095 0.0
O819 O 0.86771 0.79512 0.45691 0.0
C820 C 0.87912 0.76305 0.6146 0.0
C821 C 0.87419 0.75212 0.59968 0.0
H822 H 0.8631 0.73294 0.56204 0.0
H823 H 0.85282 0.73411 0.49567 0.0
H824 H 0.88549 0.80392 0.58941 0.0
H825 H 0.88745 0.7858 0.63348 0.0
H826 H 0.88344 0.76312 0.64386 0.0
H827 H 0.87478 0.74394 0.61773 0.0
Mn828 Mn 0.45959 0.58747 0.72068 0.0
Mn829 Mn 0.47389 0.61459 0.71665 0.0
C830 C 0.46444 0.59778 0.77923 0.0
C831 C 0.45975 0.56627 0.72479 0.0
C832 C 0.44715 0.61155 0.69831 0.0
O833 O 0.46689 0.58735 0.66448 0.0
O834 O 0.4759 0.60581 0.66489 0.0
C835 C 0.4993 0.60589 0.71049 0.0
N836 N 0.49068 0.61262 0.72972 0.0
C837 C 0.50547 0.62066 0.77584 0.0
C838 C 0.51452 0.61386 0.75646 0.0
C839 C 0.5114 0.60639 0.72378 0.0
C840 C 0.49356 0.61972 0.76146 0.0
H841 H 0.49697 0.60022 0.68514 0.0
C842 C 0.47319 0.59572 0.6479 0.0
O843 O 0.45043 0.57212 0.7107 0.0
O844 O 0.46908 0.57271 0.73543 0.0
N845 N 0.47286 0.62394 0.765 0.0
C846 C 0.46292 0.62918 0.78219 0.0
C847 C 0.46439 0.63653 0.81636 0.0
C848 C 0.47607 0.63857 0.83206 0.0
C849 C 0.48616 0.6331 0.81372 0.0
C850 C 0.48412 0.62574 0.7801 0.0
H851 H 0.45395 0.62775 0.76992 0.0
O852 O 0.45556 0.59001 0.77867 0.0
O853 O 0.47001 0.59951 0.74526 0.0
O854 O 0.44679 0.60005 0.7033 0.0
O855 O 0.45677 0.61782 0.70325 0.0
C856 C 0.49816 0.63462 0.82758 0.0
C857 C 0.5078 0.62831 0.80893 0.0
H858 H 0.52387 0.61426 0.76652 0.0
H859 H 0.51833 0.60109 0.70872 0.0
H860 H 0.45655 0.6407 0.83039 0.0
H861 H 0.47718 0.64429 0.85831 0.0
H862 H 0.50006 0.64046 0.85303 0.0
H863 H 0.51694 0.62933 0.82047 0.0
Mn864 Mn 0.33815 0.21117 0.47535 0.0
Mn865 Mn 0.36543 0.22517 0.47417 0.0
C866 C 0.34822 0.21547 0.53483 0.0
C867 C 0.31692 0.21138 0.47888 0.0
C868 C 0.3623 0.19863 0.45423 0.0
O869 O 0.33825 0.21903 0.42012 0.0
O870 O 0.35712 0.2271 0.42139 0.0
C871 C 0.35679 0.25057 0.46653 0.0
N872 N 0.36337 0.242 0.48653 0.0
C873 C 0.37122 0.25695 0.53246 0.0
C874 C 0.36457 0.26595 0.51228 0.0
C875 C 0.35727 0.26273 0.47931 0.0
C876 C 0.3703 0.24498 0.51859 0.0
H877 H 0.35126 0.24817 0.44092 0.0
C878 C 0.34696 0.22493 0.40395 0.0
O879 O 0.32277 0.20222 0.4637 0.0
O880 O 0.32339 0.22054 0.4909 0.0
N881 N 0.37437 0.22428 0.52339 0.0
C882 C 0.37938 0.21438 0.54156 0.0
C883 C 0.38656 0.21597 0.57607 0.0
C884 C 0.38865 0.22771 0.59114 0.0
C885 C 0.38336 0.23775 0.57195 0.0
C886 C 0.37617 0.2356 0.53802 0.0
H887 H 0.37786 0.20536 0.52989 0.0
O888 O 0.3405 0.20656 0.53297 0.0
O889 O 0.35012 0.22132 0.50149 0.0
O890 O 0.35073 0.1985 0.45659 0.0
O891 O 0.36873 0.20799 0.46177 0.0
C892 C 0.38489 0.24981 0.58529 0.0
C893 C 0.37871 0.25939 0.56586 0.0
H894 H 0.36496 0.27535 0.52193 0.0
H895 H 0.35208 0.26961 0.46363 0.0
H896 H 0.39055 0.20816 0.59085 0.0
H897 H 0.39424 0.2289 0.61765 0.0
H898 H 0.39061 0.25179 0.61096 0.0
H899 H 0.37973 0.26858 0.57701 0.0
Mn900 Mn 0.54243 0.58443 0.21481 0.0
Mn901 Mn 0.52971 0.61145 0.23717 0.0
C902 C 0.53999 0.59041 0.281 0.0
C903 C 0.54059 0.56349 0.20538 0.0
C904 C 0.55529 0.60889 0.20387 0.0
O905 O 0.53342 0.5887 0.16318 0.0
O906 O 0.52465 0.60637 0.18227 0.0
C907 C 0.50378 0.60426 0.2396 0.0
N908 N 0.51372 0.60901 0.25828 0.0
C909 C 0.50248 0.61207 0.31955 0.0
C910 C 0.49212 0.60726 0.30091 0.0
C911 C 0.49278 0.60333 0.26076 0.0
C912 C 0.51317 0.6129 0.29682 0.0
H913 H 0.50426 0.60116 0.20883 0.0
C914 C 0.52648 0.59783 0.15663 0.0
O915 O 0.54982 0.56942 0.19091 0.0
O916 O 0.53221 0.56982 0.22297 0.0
N917 N 0.53383 0.61695 0.29009 0.0
C918 C 0.54486 0.62047 0.30459 0.0
C919 C 0.54588 0.62417 0.34486 0.0
C920 C 0.53557 0.62422 0.36977 0.0
C921 C 0.52431 0.62057 0.35417 0.0
C922 C 0.52382 0.61707 0.31371 0.0
H923 H 0.55283 0.62035 0.28566 0.0
O924 O 0.54836 0.58261 0.27164 0.0
O925 O 0.53385 0.59479 0.25112 0.0
O926 O 0.55541 0.59729 0.20206 0.0
O927 O 0.54617 0.61497 0.21649 0.0
C928 C 0.51362 0.62 0.37743 0.0
C929 C 0.50271 0.61576 0.36013 0.0
H930 H 0.48364 0.6064 0.31725 0.0
H931 H 0.48483 0.59955 0.24623 0.0
H932 H 0.55462 0.62692 0.35674 0.0
H933 H 0.53643 0.62695 0.40094 0.0
H934 H 0.51373 0.62263 0.40882 0.0
H935 H 0.4946 0.61518 0.3785 0.0
Mn936 Mn 0.16695 0.79493 0.96509 0.0
Mn937 Mn 0.13959 0.7811 0.97061 0.0
C938 C 0.15887 0.78944 0.02674 0.0
C939 C 0.18815 0.79424 0.96136 0.0
C940 C 0.14256 0.80791 0.95242 0.0
O941 O 0.16475 0.78824 0.90847 0.0
O942 O 0.14648 0.779 0.91577 0.0
C943 C 0.14729 0.75547 0.96124 0.0
N944 N 0.14161 0.76426 0.98308 0.0
C945 C 0.13607 0.74989 0.03449 0.0
C946 C 0.14183 0.74067 0.01247 0.0
C947 C 0.14747 0.74348 0.97572 0.0
C948 C 0.1361 0.76165 0.01841 0.0
H949 H 0.15168 0.7576 0.93305 0.0
C950 C 0.15587 0.78194 0.89501 0.0
O951 O 0.18213 0.80384 0.95044 0.0
O952 O 0.18183 0.78492 0.97284 0.0
N953 N 0.13218 0.78239 0.02248 0.0
C954 C 0.12786 0.79249 0.0414 0.0
C955 C 0.12223 0.79132 0.07909 0.0
C956 C 0.1211 0.7798 0.09689 0.0
C957 C 0.12572 0.76956 0.07701 0.0
C958 C 0.13111 0.77126 0.03928 0.0
H959 H 0.12872 0.80137 0.02787 0.0
O960 O 0.16667 0.79825 0.02434 0.0
O961 O 0.15569 0.78452 0.99287 0.0
O962 O 0.15414 0.80816 0.95417 0.0
O963 O 0.13633 0.7983 0.95838 0.0
C964 C 0.12538 0.75775 0.09343 0.0
C965 C 0.13056 0.74793 0.07221 0.0
H966 H 0.14207 0.73143 0.02367 0.0
H967 H 0.15198 0.73642 0.95864 0.0
H968 H 0.11876 0.79928 0.09439 0.0
H969 H 0.11675 0.77895 0.12597 0.0
H970 H 0.1213 0.75616 0.12261 0.0
H971 H 0.13041 0.73894 0.08543 0.0
Mn972 Mn 0.95721 0.41482 0.71243 0.0
Mn973 Mn 0.97148 0.38793 0.72489 0.0
C974 C 0.9623 0.40805 0.77623 0.0
C975 C 0.95774 0.43591 0.70434 0.0
C976 C 0.94481 0.39009 0.70266 0.0
O977 O 0.96432 0.41155 0.65683 0.0
O978 O 0.97438 0.39404 0.66953 0.0
C979 C 0.99714 0.3958 0.71857 0.0
N980 N 0.98806 0.39038 0.73988 0.0
C981 C 0.00167 0.38578 0.79445 0.0
C982 C 0.01117 0.39129 0.77305 0.0
C983 C 0.00889 0.39634 0.73498 0.0
C984 C 0.99017 0.38545 0.77647 0.0
H985 H 0.99542 0.39971 0.68933 0.0
C986 C 0.97129 0.4028 0.64618 0.0
O987 O 0.94828 0.4296 0.6939 0.0
O988 O 0.96704 0.42991 0.71773 0.0
N989 N 0.96943 0.38133 0.77768 0.0
C990 C 0.95909 0.37718 0.79558 0.0
C991 C 0.95972 0.37216 0.83434 0.0
C992 C 0.97096 0.37144 0.85422 0.0
C993 C 0.98146 0.37587 0.83532 0.0
C994 C 0.98029 0.38067 0.79652 0.0
H995 H 0.95044 0.3777 0.78042 0.0
O996 O 0.95344 0.4157 0.7714 0.0
O997 O 0.96751 0.4043 0.74352 0.0
O998 O 0.94425 0.40167 0.70329 0.0
O999 O 0.95453 0.38419 0.71015 0.0
C1000 C 0.993 0.37589 0.85368 0.0
C1001 C 0.00309 0.38086 0.8333 0.0
H1002 H 0.02022 0.3918 0.78571 0.0
H1003 H 0.01616 0.40065 0.71835 0.0
H1004 H 0.95157 0.36884 0.84885 0.0
H1005 H 0.9714 0.36756 0.88412 0.0
H1006 H 0.99419 0.37226 0.8837 0.0
H1007 H 0.01188 0.381 0.848 0.0
Mn1008 Mn 0.33798 0.79329 0.03536 0.0
Mn1009 Mn 0.36491 0.77861 0.03188 0.0
C1010 C 0.34638 0.78772 0.9743 0.0
C1011 C 0.31674 0.79315 0.03733 0.0
C1012 C 0.36263 0.80545 0.05085 0.0
O1013 O 0.33949 0.78634 0.09183 0.0
O1014 O 0.35748 0.77648 0.08597 0.0
C1015 C 0.3564 0.75318 0.03944 0.0
N1016 N 0.36249 0.76189 0.01845 0.0
C1017 C 0.36788 0.7476 0.96666 0.0
C1018 C 0.36171 0.73846 0.98782 0.0
C1019 C 0.35594 0.74127 0.02435 0.0
C1020 C 0.36814 0.75927 0.98339 0.0
H1021 H 0.3519 0.75531 0.06744 0.0
C1022 C 0.348 0.77966 0.10585 0.0
O1023 O 0.32292 0.80257 0.04898 0.0
O1024 O 0.3229 0.78371 0.02598 0.0
N1025 N 0.37276 0.7799 0.9807 0.0
C1026 C 0.37745 0.78995 0.96248 0.0
C1027 C 0.38315 0.7888 0.92491 0.0
C1028 C 0.38399 0.77734 0.90651 0.0
C1029 C 0.37902 0.76714 0.92573 0.0
C1030 C 0.37356 0.76882 0.96334 0.0
H1031 H 0.37678 0.79878 0.97643 0.0
O1032 O 0.33883 0.79678 0.97627 0.0
O1033 O 0.34913 0.78263 0.00829 0.0
O1034 O 0.35109 0.80609 0.04786 0.0
O1035 O 0.36858 0.79565 0.04523 0.0
C1036 C 0.37908 0.75541 0.90869 0.0
C1037 C 0.37351 0.74565 0.92913 0.0
H1038 H 0.36124 0.72928 0.9761 0.0
H1039 H 0.3511 0.73428 0.04075 0.0
H1040 H 0.38689 0.79673 0.91013 0.0
H1041 H 0.38836 0.77651 0.87746 0.0
H1042 H 0.38322 0.75383 0.8796 0.0
H1043 H 0.37344 0.73672 0.91543 0.0
Mn1044 Mn 0.95743 0.58581 0.78087 0.0
Mn1045 Mn 0.97229 0.61258 0.78652 0.0
C1046 C 0.96394 0.59558 0.72299 0.0
C1047 C 0.95733 0.56458 0.77813 0.0
C1048 C 0.94512 0.61032 0.7982 0.0
O1049 O 0.96324 0.58595 0.83897 0.0
O1050 O 0.9728 0.60409 0.83912 0.0
C1051 C 0.99722 0.60329 0.79996 0.0
N1052 N 0.98928 0.61011 0.77809 0.0
C1053 C 0.00538 0.61767 0.73603 0.0
C1054 C 0.01375 0.61076 0.75815 0.0
C1055 C 0.00963 0.60348 0.7901 0.0
C1056 C 0.99312 0.61701 0.74696 0.0
H1057 H 0.99412 0.59779 0.82482 0.0
C1058 C 0.96939 0.59426 0.85642 0.0
O1059 O 0.94778 0.57064 0.78924 0.0
O1060 O 0.967 0.57084 0.7698 0.0
N1061 N 0.97269 0.62164 0.73747 0.0
C1062 C 0.96334 0.62703 0.71736 0.0
C1063 C 0.96585 0.63423 0.6835 0.0
C1064 C 0.97794 0.63599 0.67114 0.0
C1065 C 0.9874 0.63038 0.69244 0.0
C1066 C 0.98433 0.62315 0.72552 0.0
H1067 H 0.95406 0.62582 0.72711 0.0
O1068 O 0.9549 0.58801 0.72177 0.0
O1069 O 0.9687 0.59743 0.75818 0.0
O1070 O 0.94454 0.59881 0.79398 0.0
O1071 O 0.95499 0.61632 0.79514 0.0
C1072 C 0.99975 0.63164 0.68209 0.0
C1073 C 0.00873 0.62519 0.70356 0.0
H1074 H 0.02334 0.61094 0.75079 0.0
H1075 H 0.01603 0.59811 0.80728 0.0
H1076 H 0.9585 0.63851 0.66717 0.0
H1077 H 0.97984 0.64162 0.64516 0.0
H1078 H 0.00243 0.63739 0.65717 0.0
H1079 H 0.01816 0.62601 0.69468 0.0
Mn1080 Mn 0.1664 0.20763 0.5294 0.0
Mn1081 Mn 0.13903 0.22067 0.51462 0.0
C1082 C 0.15948 0.21177 0.46499 0.0
C1083 C 0.18744 0.20915 0.53767 0.0
C1084 C 0.14212 0.19435 0.53996 0.0
O1085 O 0.16275 0.21523 0.58405 0.0
O1086 O 0.14483 0.22429 0.56979 0.0
C1087 C 0.14606 0.24662 0.51872 0.0
N1088 N 0.14107 0.23717 0.49802 0.0
C1089 C 0.13605 0.25018 0.4423 0.0
C1090 C 0.14109 0.26006 0.46306 0.0
C1091 C 0.14616 0.25826 0.50137 0.0
C1092 C 0.13625 0.23879 0.46103 0.0
H1093 H 0.14991 0.24529 0.54826 0.0
C1094 C 0.15367 0.2219 0.59366 0.0
O1095 O 0.18152 0.19956 0.54933 0.0
O1096 O 0.18107 0.21799 0.52291 0.0
N1097 N 0.13272 0.21794 0.46176 0.0
C1098 C 0.12894 0.20733 0.44474 0.0
C1099 C 0.12412 0.20747 0.40563 0.0
C1100 C 0.12316 0.2185 0.38461 0.0
C1101 C 0.12707 0.22931 0.40285 0.0
C1102 C 0.13184 0.2286 0.4418 0.0
H1103 H 0.12963 0.19884 0.46082 0.0
O1104 O 0.1675 0.20329 0.47075 0.0
O1105 O 0.15553 0.21712 0.49709 0.0
O1106 O 0.15372 0.19429 0.53997 0.0
O1107 O 0.13584 0.20372 0.53093 0.0
C1108 C 0.12652 0.24073 0.38379 0.0
C1109 C 0.13095 0.25117 0.40359 0.0
H1110 H 0.14119 0.26905 0.44978 0.0
H1111 H 0.15011 0.26583 0.51754 0.0
H1112 H 0.12115 0.19909 0.39174 0.0
H1113 H 0.11946 0.21857 0.35444 0.0
H1114 H 0.12283 0.24157 0.35372 0.0
H1115 H 0.1306 0.25988 0.38845 0.0
Mn1116 Mn 0.54081 0.41313 0.27446 0.0
Mn1117 Mn 0.52645 0.3861 0.27065 0.0
C1118 C 0.53637 0.40406 0.21336 0.0
C1119 C 0.54024 0.43432 0.27294 0.0
C1120 C 0.55293 0.38878 0.29432 0.0
O1121 O 0.53299 0.41202 0.32993 0.0
O1122 O 0.52338 0.39397 0.32342 0.0
C1123 C 0.50093 0.39463 0.27276 0.0
N1124 N 0.51001 0.38845 0.25383 0.0
C1125 C 0.49664 0.38274 0.19978 0.0
C1126 C 0.48714 0.389 0.21877 0.0
C1127 C 0.48931 0.39499 0.25538 0.0
C1128 C 0.50802 0.38266 0.21858 0.0
H1129 H 0.50255 0.39925 0.30089 0.0
C1130 C 0.5261 0.40357 0.34339 0.0
O1131 O 0.54951 0.42859 0.28803 0.0
O1132 O 0.53115 0.42778 0.26094 0.0
N1133 N 0.52862 0.37789 0.22041 0.0
C1134 C 0.53895 0.37301 0.20459 0.0
C1135 C 0.53846 0.36712 0.16718 0.0
C1136 C 0.52735 0.36626 0.14653 0.0
C1137 C 0.51684 0.37133 0.16346 0.0
C1138 C 0.51788 0.37708 0.20086 0.0
H1139 H 0.54751 0.37369 0.22028 0.0
O1140 O 0.54529 0.41174 0.21604 0.0
O1141 O 0.53082 0.40162 0.24672 0.0
O1142 O 0.5535 0.40032 0.29066 0.0
O1143 O 0.54329 0.38266 0.28739 0.0
C1144 C 0.50541 0.37107 0.14442 0.0
C1145 C 0.49531 0.37675 0.16259 0.0
H1146 H 0.47818 0.38935 0.20536 0.0
H1147 H 0.48204 0.39989 0.27014 0.0
H1148 H 0.54662 0.36327 0.15424 0.0
H1149 H 0.52702 0.36176 0.11758 0.0
H1150 H 0.50432 0.36667 0.11551 0.0
H1151 H 0.48661 0.37664 0.14735 0.0
H1152 H 0.30068 0.27815 0.01259 0.0
H1153 H 0.27872 0.27827 0.02016 0.0
H1154 H 0.27564 0.30358 0.92151 0.0
H1155 H 0.29789 0.30403 0.91537 0.0
H1156 H 0.2613 0.31037 0.9785 0.0
H1157 H 0.25354 0.26127 0.95792 0.0
H1158 H 0.26398 0.26367 -0.0016 0.0
H1159 H 0.26808 0.26818 0.948 0.0
C1160 C 0.29534 0.28362 0.99206 0.0
C1161 C 0.30101 0.29098 0.96305 0.0
C1162 C 0.28274 0.28362 0.99629 0.0
C1163 C 0.27543 0.29067 0.97074 0.0
C1164 C 0.28106 0.29798 0.94142 0.0
H1165 H 0.19737 0.27873 0.96901 0.0
H1166 H 0.21903 0.27935 0.95424 0.0
C1167 C 0.29376 0.2982 0.93777 0.0
C1168 C 0.262 0.29081 0.97621 0.0
H1169 H 0.23753 0.27228 0.99108 0.0
C1170 C 0.25607 0.30204 0.98069 0.0
C1171 C 0.25507 0.27997 0.97843 0.0
C1172 C 0.26049 0.26763 0.96995 0.0
C1173 C 0.24351 0.30272 0.98824 0.0
C1174 C 0.23676 0.29185 0.9933 0.0
C1175 C 0.24267 0.28064 0.98796 0.0
C1176 C 0.2235 0.29178 0.00255 0.0
C1177 C 0.23763 0.31511 0.98967 0.0
C1178 C 0.21868 0.29848 0.03494 0.0
C1179 C 0.20616 0.29838 0.04279 0.0
C1180 C 0.19833 0.29124 0.01932 0.0
C1181 C 0.2032 0.28425 0.98787 0.0
C1182 C 0.21561 0.28461 0.97935 0.0
H1183 H 0.24296 0.3219 0.97232 0.0
H1184 H 0.22825 0.31487 0.97743 0.0
H1185 H 0.23725 0.31827 0.02132 0.0
H1186 H 0.22458 0.30374 0.05427 0.0
H1187 H 0.20264 0.30379 0.06739 0.0
H1188 H 0.93934 0.95257 0.30628 0.0
H1189 H 0.93909 0.97459 0.29498 0.0
H1190 H 0.97798 0.9743 0.27887 0.0
H1191 H 0.97825 0.95231 0.28896 0.0
H1192 H 0.94992 0.99431 0.33009 0.0
H1193 H 0.96667 0.98894 0.17389 0.0
H1194 H 0.96168 0.97622 0.20386 0.0
H1195 H 0.97671 0.98238 0.21043 0.0
C1196 C 0.94785 0.95723 0.30091 0.0
C1197 C 0.9588 0.95069 0.29805 0.0
C1198 C 0.9477 0.96981 0.29432 0.0
C1199 C 0.95847 0.97604 0.28492 0.0
C1200 C 0.96951 0.96963 0.28481 0.0
H1201 H 0.97846 0.05063 0.2383 0.0
H1202 H 0.97772 0.02886 0.25354 0.0
C1203 C 0.96966 0.95707 0.29095 0.0
C1204 C 0.95817 0.98913 0.27391 0.0
H1205 H 0.96609 0.00913 0.19963 0.0
C1206 C 0.95337 0.99754 0.30147 0.0
C1207 C 0.96258 0.99334 0.23634 0.0
C1208 C 0.96708 0.98474 0.20426 0.0
C1209 C 0.9532 0.01005 0.2929 0.0
C1210 C 0.95791 0.01423 0.25585 0.0
C1211 C 0.96256 0.00586 0.22811 0.0
C1212 C 0.95828 0.02733 0.24564 0.0
C1213 C 0.94822 0.01879 0.32372 0.0
C1214 C 0.94761 0.03358 0.23539 0.0
C1215 C 0.94801 0.04599 0.22624 0.0
C1216 C 0.95909 0.05236 0.22746 0.0
C1217 C 0.96978 0.046 0.23714 0.0
C1218 C 0.96938 0.03357 0.24591 0.0
H1219 H 0.94627 0.01426 0.35289 0.0
H1220 H 0.95476 0.02631 0.32889 0.0
H1221 H 0.93967 0.02285 0.31224 0.0
H1222 H 0.93897 0.02886 0.23468 0.0
H1223 H 0.93961 0.05064 0.219 0.0
H1224 H 0.2009 0.72763 0.47762 0.0
H1225 H 0.22272 0.72687 0.49115 0.0
H1226 H 0.2224 0.68801 0.47386 0.0
H1227 H 0.20064 0.68876 0.45908 0.0
H1228 H 0.23383 0.71541 0.55196 0.0
H1229 H 0.25148 0.69734 0.40765 0.0
H1230 H 0.23617 0.70297 0.41299 0.0
H1231 H 0.23999 0.68789 0.42968 0.0
C1232 C 0.20552 0.71895 0.47597 0.0
C1233 C 0.19906 0.70826 0.46709 0.0
C1234 C 0.21799 0.71852 0.48386 0.0
C1235 C 0.22425 0.70741 0.48316 0.0
C1236 C 0.21785 0.69674 0.47367 0.0
H1237 H 0.29848 0.68789 0.55059 0.0
H1238 H 0.27646 0.68752 0.53904 0.0
C1239 C 0.20539 0.69717 0.46536 0.0
C1240 C 0.23729 0.70694 0.49464 0.0
H1241 H 0.26541 0.69807 0.4623 0.0
C1242 C 0.24073 0.71166 0.53225 0.0
C1243 C 0.24631 0.70201 0.46898 0.0
C1244 C 0.24334 0.69737 0.42742 0.0
C1245 C 0.2529 0.71155 0.54489 0.0
C1246 C 0.26186 0.7066 0.51931 0.0
C1247 C 0.25846 0.70176 0.48194 0.0
C1248 C 0.27492 0.70692 0.52986 0.0
C1249 C 0.25614 0.71668 0.58556 0.0
C1250 C 0.28126 0.71797 0.52897 0.0
C1251 C 0.29381 0.7182 0.53528 0.0
C1252 C 0.30023 0.70739 0.54281 0.0
C1253 C 0.29378 0.69638 0.54514 0.0
C1254 C 0.28122 0.69614 0.53838 0.0
H1255 H 0.24798 0.71816 0.60462 0.0
H1256 H 0.26249 0.7105 0.60157 0.0
H1257 H 0.26081 0.72554 0.5815 0.0
H1258 H 0.27655 0.72636 0.52212 0.0
H1259 H 0.29852 0.72682 0.53321 0.0
H1260 H 0.56438 0.04951 0.78801 0.0
H1261 H 0.56569 0.02773 0.77278 0.0
H1262 H 0.52716 0.0269 0.74917 0.0
H1263 H 0.52584 0.04863 0.76326 0.0
H1264 H 0.55492 0.00745 0.80401 0.0
H1265 H 0.54068 0.01334 0.6455 0.0
H1266 H 0.54476 0.02601 0.67719 0.0
H1267 H 0.5298 0.01943 0.68025 0.0
C1268 C 0.55617 0.04465 0.77996 0.0
C1269 C 0.54503 0.05081 0.77646 0.0
C1270 C 0.55694 0.03222 0.77113 0.0
C1271 C 0.54658 0.02576 0.75871 0.0
C1272 C 0.53534 0.03177 0.75742 0.0
H1273 H 0.52704 0.95144 0.71791 0.0
H1274 H 0.52808 0.97342 0.72852 0.0
C1275 C 0.53458 0.04418 0.76586 0.0
C1276 C 0.54748 0.01277 0.74677 0.0
H1277 H 0.54071 0.99296 0.67071 0.0
C1278 C 0.55195 0.00431 0.77472 0.0
C1279 C 0.5437 0.00867 0.70834 0.0
C1280 C 0.53959 0.01735 0.67595 0.0
C1281 C 0.55229 0.99182 0.76579 0.0
C1282 C 0.54807 0.98773 0.72802 0.0
C1283 C 0.54387 0.99617 0.69972 0.0
C1284 C 0.54744 0.97463 0.71824 0.0
C1285 C 0.55682 0.983 0.7971 0.0
C1286 C 0.55795 0.96812 0.70786 0.0
C1287 C 0.55737 0.95556 0.70136 0.0
C1288 C 0.54628 0.94931 0.70548 0.0
C1289 C 0.53572 0.95597 0.71454 0.0
C1290 C 0.53629 0.96852 0.72067 0.0
H1291 H 0.55899 0.98755 0.82605 0.0
H1292 H 0.54988 0.97586 0.80261 0.0
H1293 H 0.56514 0.97842 0.78587 0.0
H1294 H 0.56663 0.97273 0.70568 0.0
H1295 H 0.56568 0.95068 0.69461 0.0
H1296 H 0.70092 0.7253 0.02313 0.0
H1297 H 0.72292 0.72428 0.01304 0.0
H1298 H 0.72271 0.68645 0.04656 0.0
H1299 H 0.70063 0.68736 0.05698 0.0
H1300 H 0.74295 0.71082 0.07697 0.0
H1301 H 0.73672 0.69436 0.91969 0.0
H1302 H 0.72574 0.70444 0.94246 0.0
H1303 H 0.72693 0.68906 0.95961 0.0
C1304 C 0.70556 0.7168 0.02905 0.0
C1305 C 0.69903 0.7064 0.04076 0.0
C1306 C 0.71812 0.71625 0.02321 0.0
C1307 C 0.72435 0.70528 0.02879 0.0
C1308 C 0.718 0.69499 0.04207 0.0
H1309 H 0.79857 0.68785 0.95407 0.0
H1310 H 0.77684 0.68677 0.97011 0.0
C1311 C 0.70541 0.69554 0.04815 0.0
C1312 C 0.7374 0.70453 0.0186 0.0
H1313 H 0.7567 0.69854 0.94069 0.0
C1314 C 0.746 0.70807 0.04732 0.0
C1315 C 0.74127 0.70085 0.97998 0.0
C1316 C 0.73225 0.69694 0.94841 0.0
C1317 C 0.75847 0.70817 0.03819 0.0
C1318 C 0.76235 0.70494 -0.00104 0.0
C1319 C 0.75372 0.70109 0.9706 0.0
C1320 C 0.7753 0.70573 0.98667 0.0
C1321 C 0.76736 0.71163 0.0708 0.0
C1322 C 0.78152 0.71684 0.98913 0.0
C1323 C 0.7939 0.71747 0.98014 0.0
C1324 C 0.80029 0.70703 0.96794 0.0
C1325 C 0.79391 0.69605 0.96336 0.0
C1326 C 0.7815 0.69541 0.97266 0.0
H1327 H 0.76342 0.71024 0.10123 0.0
H1328 H 0.77587 0.70626 0.06845 0.0
H1329 H 0.76968 0.7214 0.06779 0.0
H1330 H 0.77684 0.725 -0.00132 0.0
H1331 H 0.79853 0.72609 0.98363 0.0
H1332 H 0.06179 0.95178 0.78572 0.0
H1333 H 0.06203 0.97363 0.77099 0.0
H1334 H 0.02348 0.97274 0.74826 0.0
H1335 H 0.02315 0.95091 0.76249 0.0
H1336 H 0.05121 0.98427 0.69029 0.0
H1337 H 0.03148 0.00158 0.83354 0.0
H1338 H 0.03975 0.98741 0.8309 0.0
H1339 H 0.02466 0.98836 0.81087 0.0
C1340 C 0.05334 0.95626 0.77805 0.0
C1341 C 0.04244 0.94962 0.77531 0.0
C1342 C 0.05351 0.96872 0.76948 0.0
C1343 C 0.04277 0.97475 0.7586 0.0
C1344 C 0.03184 0.96823 0.75676 0.0
H1345 H 0.02366 0.04975 0.7131 0.0
H1346 H 0.02363 0.02774 0.72302 0.0
C1347 C 0.03168 0.95576 0.76493 0.0
C1348 C 0.04301 0.98779 0.74785 0.0
H1349 H 0.0349 0.01586 0.78202 0.0
C1350 C 0.0477 0.99122 0.7103 0.0
C1351 C 0.03831 0.99674 0.77395 0.0
C1352 C 0.0333 0.99344 0.81473 0.0
C1353 C 0.04764 0.00343 0.69783 0.0
C1354 C 0.04304 0.01245 0.72413 0.0
C1355 C 0.0384 0.00896 0.7618 0.0
C1356 C 0.04297 0.02559 0.71355 0.0
C1357 C 0.05217 0.00647 0.65619 0.0
C1358 C 0.05382 0.0317 0.70414 0.0
C1359 C 0.05383 0.04428 0.69787 0.0
C1360 C 0.04303 0.05101 0.70162 0.0
C1361 C 0.03214 0.04483 0.70997 0.0
C1362 C 0.03211 0.03225 0.71579 0.0
H1363 H 0.0518 0.99844 0.63596 0.0
H1364 H 0.04677 0.01392 0.6425 0.0
H1365 H 0.06178 0.00945 0.65809 0.0
H1366 H 0.06237 0.02683 0.70316 0.0
H1367 H 0.06239 0.0488 0.69196 0.0
H1368 H 0.69966 0.3133 0.46485 0.0
H1369 H 0.72158 0.31413 0.47842 0.0
H1370 H 0.72217 0.27528 0.49486 0.0
H1371 H 0.70032 0.27436 0.48176 0.0
H1372 H 0.73322 0.30335 0.55526 0.0
H1373 H 0.75011 0.28451 0.41037 0.0
H1374 H 0.73553 0.29197 0.41487 0.0
H1375 H 0.73749 0.2768 0.4336 0.0
C1376 C 0.70449 0.30492 0.47088 0.0
C1377 C 0.69827 0.29376 0.47218 0.0
C1378 C 0.71698 0.30542 0.4788 0.0
C1379 C 0.72345 0.29476 0.48752 0.0
C1380 C 0.71733 0.28359 0.48796 0.0
H1381 H 0.79771 0.27415 0.53165 0.0
H1382 H 0.77573 0.27501 0.52178 0.0
C1383 C 0.70485 0.28309 0.48047 0.0
C1384 C 0.73655 0.29524 0.49743 0.0
H1385 H 0.76448 0.28699 0.46242 0.0
C1386 C 0.7401 0.29987 0.53495 0.0
C1387 C 0.74543 0.29061 0.47091 0.0
C1388 C 0.74203 0.28575 0.43001 0.0
C1389 C 0.75234 0.29967 0.54715 0.0
C1390 C 0.76125 0.29498 0.52063 0.0
C1391 C 0.75766 0.29053 0.48283 0.0
C1392 C 0.77435 0.29442 0.53133 0.0
C1393 C 0.75552 0.30409 0.58879 0.0
C1394 C 0.78089 0.30501 0.54086 0.0
C1395 C 0.79347 0.30451 0.54709 0.0
C1396 C 0.79975 0.29345 0.5432 0.0
C1397 C 0.79313 0.28282 0.53485 0.0
C1398 C 0.78057 0.2833 0.52906 0.0
H1399 H 0.74747 0.30405 0.609 0.0
H1400 H 0.76274 0.29839 0.6025 0.0
H1401 H 0.7589 0.31357 0.58688 0.0
H1402 H 0.77636 0.31374 0.54193 0.0
H1403 H 0.79833 0.31288 0.55303 0.0
H1404 H 0.4391 0.95204 0.20291 0.0
H1405 H 0.43788 0.97407 0.21387 0.0
H1406 H 0.47663 0.97545 0.23225 0.0
H1407 H 0.47794 0.95348 0.22177 0.0
H1408 H 0.44779 0.9862 0.2901 0.0
H1409 H 0.46764 0.00292 0.14649 0.0
H1410 H 0.46048 0.98819 0.15095 0.0
H1411 H 0.47543 0.99058 0.17099 0.0
C1412 C 0.44738 0.95707 0.20869 0.0
C1413 C 0.45862 0.95103 0.21144 0.0
C1414 C 0.44665 0.96962 0.21511 0.0
C1415 C 0.45716 0.97635 0.22373 0.0
C1416 C 0.46843 0.97041 0.22534 0.0
H1417 H 0.47662 0.05079 0.26948 0.0
H1418 H 0.47593 0.02887 0.25813 0.0
C1419 C 0.46915 0.95786 0.21937 0.0
C1420 C 0.45638 0.98948 0.233 0.0
H1421 H 0.46457 0.01742 0.19792 0.0
C1422 C 0.45136 0.99307 0.2699 0.0
C1423 C 0.46113 0.99834 0.20664 0.0
C1424 C 0.46642 0.99489 0.16637 0.0
C1425 C 0.45128 0.00534 0.28173 0.0
C1426 C 0.45609 0.01424 0.25541 0.0
C1427 C 0.46092 0.01061 0.21816 0.0
C1428 C 0.45646 0.02737 0.26596 0.0
C1429 C 0.44647 0.00856 0.32287 0.0
C1430 C 0.44576 0.03382 0.27478 0.0
C1431 C 0.44616 0.04636 0.28186 0.0
C1432 C 0.45724 0.05269 0.27954 0.0
C1433 C 0.46795 0.04617 0.27149 0.0
C1434 C 0.46756 0.03365 0.26485 0.0
H1435 H 0.4464 1.00056 0.34326 0.0
H1436 H 0.45198 0.01586 0.33697 0.0
H1437 H 0.43698 0.01186 0.32 0.0
H1438 H 0.43705 0.02924 0.27491 0.0
H1439 H 0.43774 0.05116 0.28754 0.0
H1440 H 0.70399 0.8023 0.56372 0.0
H1441 H 0.72595 0.80249 0.55104 0.0
H1442 H 0.72082 0.77819 0.45051 0.0
H1443 H 0.69911 0.77736 0.46485 0.0
H1444 H 0.73933 0.77122 0.48766 0.0
H1445 H 0.74449 0.82089 0.47027 0.0
H1446 H 0.73864 0.81716 0.519 0.0
H1447 H 0.7298 0.81377 0.47474 0.0
C1448 C 0.7076 0.79699 0.53904 0.0
C1449 C 0.69986 0.7898 0.51533 0.0
C1450 C 0.72014 0.79721 0.53146 0.0
C1451 C 0.72509 0.7906 0.4991 0.0
C1452 C 0.7173 0.7834 0.47559 0.0
H1453 H 0.79965 0.80344 0.41426 0.0
H1454 H 0.77741 0.803 0.42063 0.0
C1455 C 0.70486 0.78292 0.48384 0.0
C1456 C 0.7384 0.79077 0.49033 0.0
H1457 H 0.76288 0.80949 0.47728 0.0
C1458 C 0.74442 0.77962 0.48502 0.0
C1459 C 0.74511 0.8017 0.48592 0.0
C1460 C 0.73914 0.81404 0.48732 0.0
C1461 C 0.75688 0.77906 0.47616 0.0
C1462 C 0.76375 0.78994 0.47457 0.0
C1463 C 0.75771 0.80112 0.47903 0.0
C1464 C 0.77721 0.78992 0.46938 0.0
C1465 C 0.76242 0.76677 0.46764 0.0
C1466 C 0.78455 0.78281 0.49467 0.0
C1467 C 0.79716 0.78281 0.4903 0.0
C1468 C 0.80281 0.79023 0.46141 0.0
C1469 C 0.79553 0.79757 0.43658 0.0
C1470 C 0.78284 0.79735 0.44035 0.0
H1471 H 0.75555 0.76038 0.45531 0.0
H1472 H 0.77006 0.76743 0.44591 0.0
H1473 H 0.76587 0.76281 0.49612 0.0
H1474 H 0.78054 0.77737 0.51835 0.0
H1475 H 0.80253 0.77724 0.51048 0.0
H1476 H 0.47667 0.45181 0.7805 0.0
H1477 H 0.47706 0.47392 0.7738 0.0
H1478 H 0.43822 0.47511 0.79105 0.0
H1479 H 0.43783 0.45301 0.79905 0.0
H1480 H 0.46641 0.48689 0.71621 0.0
H1481 H 0.4487 0.50229 0.86369 0.0
H1482 H 0.45355 0.48685 0.85491 0.0
H1483 H 0.43872 0.4918 0.83891 0.0
C1484 C 0.46824 0.4568 0.78367 0.0
C1485 C 0.45722 0.45067 0.79043 0.0
C1486 C 0.46847 0.46945 0.77971 0.0
C1487 C 0.45769 0.47623 0.78226 0.0
C1488 C 0.4467 0.47014 0.7899 0.0
H1489 H 0.44036 0.55088 0.71691 0.0
H1490 H 0.43983 0.52896 0.73032 0.0
C1491 C 0.44648 0.45748 0.79431 0.0
C1492 C 0.45789 0.48952 0.77394 0.0
H1493 H 0.44992 0.51728 0.81192 0.0
C1494 C 0.46288 0.49352 0.73732 0.0
C1495 C 0.45326 0.4982 0.80141 0.0
C1496 C 0.44836 0.49459 0.84209 0.0
C1497 C 0.46325 0.50591 0.72731 0.0
C1498 C 0.4585 0.51452 0.75452 0.0
C1499 C 0.45349 0.51059 0.79106 0.0
C1500 C 0.45888 0.5277 0.74572 0.0
C1501 C 0.46862 0.50977 0.68756 0.0
C1502 C 0.46978 0.53418 0.74986 0.0
C1503 C 0.4701 0.54669 0.74242 0.0
C1504 C 0.45954 0.55292 0.73049 0.0
C1505 C 0.44866 0.54634 0.72586 0.0
C1506 C 0.44833 0.53384 0.73365 0.0
H1507 H 0.47067 0.50189 0.66779 0.0
H1508 H 0.46227 0.51596 0.67163 0.0
H1509 H 0.47717 0.51485 0.69299 0.0
H1510 H 0.478 0.52958 0.75924 0.0
H1511 H 0.47862 0.55149 0.74631 0.0
H1512 H 0.70221 0.22574 0.96397 0.0
H1513 H 0.72418 0.22488 0.97378 0.0
H1514 H 0.72333 0.18594 0.95895 0.0
H1515 H 0.70134 0.18679 0.94788 0.0
H1516 H 0.73534 0.21363 0.03473 0.0
H1517 H 0.75231 0.1946 0.89077 0.0
H1518 H 0.73707 0.2004 0.89639 0.0
H1519 H 0.74084 0.18544 0.91427 0.0
C1520 C 0.70673 0.21701 0.96191 0.0
C1521 C 0.70005 0.20633 0.95507 0.0
C1522 C 0.71929 0.21653 0.96767 0.0
C1523 C 0.72545 0.20536 0.96691 0.0
C1524 C 0.71885 0.1947 0.95885 0.0
H1525 H 0.80016 0.18718 0.03528 0.0
H1526 H 0.77825 0.18622 0.02165 0.0
C1527 C 0.70626 0.19519 0.95262 0.0
C1528 C 0.73855 0.20488 0.97771 0.0
H1529 H 0.76658 0.19604 0.94429 0.0
C1530 C 0.74216 0.20981 0.01484 0.0
C1531 C 0.74746 0.19983 0.9519 0.0
C1532 C 0.74427 0.19487 0.91095 0.0
C1533 C 0.75439 0.20989 0.02674 0.0
C1534 C 0.76326 0.20491 0.00088 0.0
C1535 C 0.7597 0.19979 0.96409 0.0
C1536 C 0.77637 0.2055 0.01074 0.0
C1537 C 0.75778 0.21527 0.06692 0.0
C1538 C 0.78249 0.21667 0.00929 0.0
C1539 C 0.79497 0.21725 0.01683 0.0
C1540 C 0.80155 0.20666 0.02617 0.0
C1541 C 0.79533 0.1955 0.02843 0.0
C1542 C 0.78285 0.19492 0.02048 0.0
H1543 H 0.74972 0.21668 0.08647 0.0
H1544 H 0.76435 0.2093 0.08282 0.0
H1545 H 0.76224 0.22421 0.0621 0.0
H1546 H 0.77764 0.22492 0.00158 0.0
H1547 H 0.79949 0.22597 0.01476 0.0
H1548 H 0.02395 0.45199 0.22653 0.0
H1549 H 0.02432 0.47382 0.23996 0.0
H1550 H 0.06333 0.47394 0.22689 0.0
H1551 H 0.06298 0.45215 0.21216 0.0
H1552 H 0.03494 0.48517 0.30168 0.0
H1553 H 0.05434 0.5028 0.15918 0.0
H1554 H 0.04887 0.48741 0.1642 0.0
H1555 H 0.0637 0.49148 0.18262 0.0
C1556 C 0.03259 0.4567 0.22583 0.0
C1557 C 0.04344 0.45036 0.2181 0.0
C1558 C 0.03279 0.46918 0.23366 0.0
C1559 C 0.04383 0.47557 0.23407 0.0
C1560 C 0.05467 0.46929 0.22581 0.0
H1561 H 0.06174 0.55005 0.30218 0.0
H1562 H 0.06236 0.52801 0.29123 0.0
C1563 C 0.05446 0.45681 0.21753 0.0
C1564 C 0.044 0.48864 0.24533 0.0
H1565 H 0.05277 0.51683 0.21334 0.0
C1566 C 0.0388 0.49209 0.28225 0.0
C1567 C 0.04906 0.49768 0.22004 0.0
C1568 C 0.0542 0.49469 0.17914 0.0
C1569 C 0.03856 0.50429 0.29456 0.0
C1570 C 0.04365 0.51327 0.26935 0.0
C1571 C 0.04896 0.50986 0.23269 0.0
C1572 C 0.0431 0.52634 0.27966 0.0
C1573 C 0.03293 0.50755 0.33448 0.0
C1574 C 0.03203 0.53261 0.27727 0.0
C1575 C 0.03165 0.54518 0.28325 0.0
C1576 C 0.04234 0.55168 0.29192 0.0
C1577 C 0.05335 0.54529 0.2958 0.0
C1578 C 0.05373 0.53272 0.28939 0.0
H1579 H 0.03128 0.4994 0.35346 0.0
H1580 H 0.03887 0.51396 0.35118 0.0
H1581 H 0.0241 0.51216 0.32922 0.0
H1582 H 0.02375 0.52783 0.26947 0.0
H1583 H 0.02304 0.54984 0.27995 0.0
H1584 H 0.30269 0.22854 0.51501 0.0
H1585 H 0.28078 0.2277 0.52727 0.0
H1586 H 0.27899 0.1929 0.46796 0.0
H1587 H 0.30093 0.19368 0.45539 0.0
H1588 H 0.26063 0.20967 0.44422 0.0
H1589 H 0.26373 0.2054 0.6103 0.0
H1590 H 0.2721 0.21792 0.58937 0.0
H1591 H 0.27651 0.20262 0.57743 0.0
C1592 C 0.29764 0.22072 0.50444 0.0
C1593 C 0.30356 0.21115 0.48433 0.0
C1594 C 0.28513 0.22022 0.51175 0.0
C1595 C 0.2783 0.21014 0.49914 0.0
C1596 C 0.28412 0.20072 0.4782 0.0
H1597 H 0.20349 0.19166 0.56297 0.0
H1598 H 0.22567 0.19172 0.55489 0.0
C1599 C 0.29665 0.20118 0.47101 0.0
C1600 C 0.26505 0.20955 0.50726 0.0
H1601 H 0.24406 0.2089 0.58305 0.0
C1602 C 0.257 0.20946 0.47455 0.0
C1603 C 0.26035 0.20912 0.54687 0.0
C1604 C 0.2686 0.20866 0.58307 0.0
C1605 C 0.24437 0.20925 0.4804 0.0
C1606 C 0.23966 0.20925 0.52001 0.0
C1607 C 0.2477 0.20903 0.55274 0.0
C1608 C 0.22639 0.20958 0.52782 0.0
C1609 C 0.23613 0.20897 0.44414 0.0
C1610 C 0.21953 0.21975 0.51643 0.0
C1611 C 0.20692 0.21978 0.52116 0.0
C1612 C 0.2009 0.20962 0.53742 0.0
C1613 C 0.20785 0.19962 0.55032 0.0
C1614 C 0.22051 0.19963 0.54568 0.0
H1615 H 0.24107 0.20617 0.41651 0.0
H1616 H 0.22841 0.20263 0.44903 0.0
H1617 H 0.23234 0.21819 0.43903 0.0
H1618 H 0.22393 0.2276 0.5032 0.0
H1619 H 0.20185 0.22764 0.51104 0.0
H1620 H 0.52827 0.44636 0.21419 0.0
H1621 H 0.52919 0.46791 0.19791 0.0
H1622 H 0.55291 0.47392 0.29941 0.0
H1623 H 0.55269 0.45205 0.31402 0.0
H1624 H 0.52183 0.48649 0.23295 0.0
H1625 H 0.57154 0.49215 0.21851 0.0
H1626 H 0.56458 0.47741 0.22377 0.0
H1627 H 0.56758 0.48664 0.26747 0.0
C1628 C 0.53372 0.45227 0.23301 0.0
C1629 C 0.54042 0.44755 0.26538 0.0
C1630 C 0.53426 0.46461 0.22363 0.0
C1631 C 0.5413 0.47261 0.24689 0.0
C1632 C 0.54775 0.46794 0.28005 0.0
H1633 H 0.52692 0.54952 0.25483 0.0
H1634 H 0.52728 0.52756 0.26225 0.0
C1635 C 0.5475 0.45546 0.28875 0.0
C1636 C 0.54139 0.48584 0.23706 0.0
H1637 H 0.55986 0.51047 0.2234 0.0
C1638 C 0.53019 0.49166 0.23047 0.0
C1639 C 0.55225 0.49265 0.23281 0.0
C1640 C 0.56466 0.48685 0.23556 0.0
C1641 C 0.52953 0.50403 0.22055 0.0
C1642 C 0.54033 0.51103 0.21928 0.0
C1643 C 0.55155 0.50518 0.2249 0.0
C1644 C 0.54011 0.52447 0.21391 0.0
C1645 C 0.51723 0.50935 0.21072 0.0
C1646 C 0.54759 0.53022 0.18529 0.0
C1647 C 0.54766 0.54292 0.18173 0.0
C1648 C 0.54014 0.55006 0.2064 0.0
C1649 C 0.53263 0.54427 0.23474 0.0
C1650 C 0.53277 0.53167 0.23889 0.0
H1651 H 0.51106 0.50233 0.19802 0.0
H1652 H 0.51296 0.51279 0.23872 0.0
H1653 H 0.51793 0.51693 0.18882 0.0
H1654 H 0.55342 0.52488 0.16586 0.0
H1655 H 0.55362 0.54715 0.15988 0.0
H1656 H 0.30162 0.81285 0.04268 0.0
H1657 H 0.27963 0.81338 0.0303 0.0
H1658 H 0.27961 0.77462 0.01139 0.0
H1659 H 0.30155 0.77401 0.02329 0.0
H1660 H 0.26814 0.80295 0.95307 0.0
H1661 H 0.2515 0.78284 0.09647 0.0
H1662 H 0.26596 0.79054 0.09267 0.0
H1663 H 0.26421 0.77554 0.07237 0.0
C1664 C 0.2969 0.80442 0.03641 0.0
C1665 C 0.30332 0.79339 0.034 0.0
C1666 C 0.28437 0.80475 0.02919 0.0
C1667 C 0.27803 0.79403 0.02007 0.0
C1668 C 0.28434 0.78297 0.01865 0.0
H1669 H 0.20302 0.77481 0.9747 0.0
H1670 H 0.22497 0.77501 0.98606 0.0
C1671 C 0.29688 0.78265 0.02544 0.0
C1672 C 0.2649 0.79443 0.0103 0.0
H1673 H 0.23698 0.78608 0.04537 0.0
C1674 C 0.26128 0.79934 0.97326 0.0
C1675 C 0.25606 0.78959 0.03659 0.0
C1676 C 0.25954 0.78437 0.07692 0.0
C1677 C 0.24902 0.79932 0.9614 0.0
C1678 C 0.24012 0.79455 0.98784 0.0
C1679 C 0.24379 0.78972 0.02505 0.0
C1680 C 0.22695 0.79442 0.97767 0.0
C1681 C 0.2458 0.80405 0.92015 0.0
C1682 C 0.22073 0.80524 0.96871 0.0
C1683 C 0.20818 0.80512 0.96165 0.0
C1684 C 0.20158 0.79421 0.9641 0.0
C1685 C 0.20785 0.78336 0.97251 0.0
C1686 C 0.22039 0.78347 0.97916 0.0
H1687 H 0.25376 0.80387 0.89959 0.0
H1688 H 0.23835 0.79865 0.90642 0.0
H1689 H 0.24273 0.81362 0.92274 0.0
H1690 H 0.2255 0.81385 0.96835 0.0
H1691 H 0.2036 0.81365 0.95571 0.0
H1692 H 0.93817 0.45104 0.69577 0.0
H1693 H 0.93764 0.47304 0.70634 0.0
H1694 H 0.97643 0.4732 0.72516 0.0
H1695 H 0.97696 0.45117 0.71584 0.0
H1696 H 0.96494 0.48512 0.78386 0.0
H1697 H 0.9474 0.50133 0.63706 0.0
H1698 H 0.93777 0.49019 0.66024 0.0
H1699 H 0.95285 0.48602 0.64442 0.0
C1700 C 0.94662 0.4558 0.70141 0.0
C1701 C 0.95761 0.44937 0.70493 0.0
C1702 C 0.94631 0.4684 0.7073 0.0
C1703 C 0.95702 0.47483 0.71613 0.0
C1704 C 0.96805 0.46845 0.71836 0.0
H1705 H 0.97658 0.54954 0.7641 0.0
H1706 H 0.97613 0.52767 0.75078 0.0
C1707 C 0.96835 0.45586 0.71288 0.0
C1708 C 0.95666 0.48802 0.72591 0.0
H1709 H 0.94806 0.51586 0.69014 0.0
C1710 C 0.9613 0.49183 0.76323 0.0
C1711 C 0.95187 0.4968 0.69909 0.0
C1712 C 0.9473 0.49341 0.65782 0.0
C1713 C 0.96124 0.50413 0.77449 0.0
C1714 C 0.95643 0.51286 0.74776 0.0
C1715 C 0.95168 0.5091 0.71063 0.0
C1716 C 0.95665 0.526 0.75732 0.0
C1717 C 0.96623 0.50773 0.81502 0.0
C1718 C 0.94583 0.53229 0.76547 0.0
C1719 C 0.94606 0.54478 0.77346 0.0
C1720 C 0.95711 0.55122 0.77284 0.0
C1721 C 0.96793 0.54485 0.76489 0.0
C1722 C 0.9677 0.53236 0.7573 0.0
H1723 H 0.96758 0.49975 0.835 0.0
H1724 H 0.97514 0.51229 0.81086 0.0
H1725 H 0.96003 0.51426 0.83011 0.0
H1726 H 0.93722 0.52752 0.76552 0.0
H1727 H 0.93757 0.54944 0.77923 0.0
H1728 H 0.1598 0.26503 0.94958 0.0
H1729 H 0.15892 0.25419 0.88577 0.0
H1730 H 0.14734 0.28706 0.82619 0.0
H1731 H 0.14829 0.29804 0.89082 0.0
H1732 H 0.13953 0.2505 0.83517 0.0
H1733 H 0.17675 0.27583 0.7593 0.0
H1734 H 0.17409 0.27677 0.81279 0.0
H1735 H 0.16453 0.285 0.77853 0.0
C1736 C 0.1569 0.26991 0.92296 0.0
C1737 C 0.15381 0.28226 0.92503 0.0
C1738 C 0.15648 0.26373 0.88652 0.0
C1739 C 0.15315 0.26983 0.85125 0.0
C1740 C 0.15008 0.28223 0.85308 0.0
H1741 H 0.13476 0.23411 0.62806 0.0
H1742 H 0.13474 0.24552 0.69069 0.0
C1743 C 0.15055 0.28847 0.88982 0.0
C1744 C 0.15296 0.26301 0.81293 0.0
H1745 H 0.16677 0.26064 0.7213 0.0
C1746 C 0.1454 0.25278 0.81019 0.0
C1747 C 0.16088 0.26584 0.78075 0.0
C1748 C 0.16961 0.27639 0.78289 0.0
C1749 C 0.14545 0.24532 0.77609 0.0
C1750 C 0.1532 0.24826 0.74364 0.0
C1751 C 0.16083 0.25845 0.74632 0.0
C1752 C 0.15327 0.24101 0.70627 0.0
C1753 C 0.13739 0.23422 0.77538 0.0
C1754 C 0.16376 0.23473 0.69421 0.0
C1755 C 0.16384 0.22814 0.65821 0.0
C1756 C 0.15345 0.22786 0.63358 0.0
C1757 C 0.14294 0.23409 0.64621 0.0
C1758 C 0.14287 0.24061 0.6821 0.0
H1759 H 0.13436 0.2316 0.80606 0.0
H1760 H 0.12919 0.23619 0.75712 0.0
H1761 H 0.14217 0.22638 0.76153 0.0
H1762 H 0.17189 0.23498 0.71256 0.0
H1763 H 0.17211 0.22353 0.64926 0.0
H1764 H 0.02762 0.88899 0.91268 0.0
H1765 H 0.01593 0.891 0.97493 0.0
H1766 H 0.0057 0.92746 0.94085 0.0
H1767 H 0.01815 0.92574 0.88007 0.0
H1768 H 0.00902 0.92727 0.01576 0.0
H1769 H 0.98051 0.88722 0.98275 0.0
H1770 H 0.99614 0.88285 0.98636 0.0
H1771 H 0.99133 0.89307 0.94698 0.0
C1772 C 0.02303 0.89749 0.91898 0.0
C1773 C 0.02377 0.90722 0.89182 0.0
C1774 C 0.01619 0.89857 0.95418 0.0
C1775 C 0.00952 0.90921 0.96195 0.0
C1776 C 0.01065 0.91911 0.93544 0.0
H1777 H 0.95219 0.90755 0.14626 0.0
H1778 H 0.96285 0.90841 0.08117 0.0
C1779 C 0.01781 0.91816 0.90084 0.0
C1780 C 0.00143 0.91005 0.9977 0.0
H1781 H 0.97959 0.89476 0.05041 0.0
C1782 C 0.00248 0.92021 0.02298 0.0
C1783 C 0.99262 0.90104 0.00679 0.0
C1784 C 0.98998 0.89052 0.97897 0.0
C1785 C 0.9953 0.92144 0.05759 0.0
C1786 C 0.98724 0.91194 0.0684 0.0
C1787 C 0.98589 0.90196 0.0425 0.0
C1788 C 0.98058 0.91189 0.10722 0.0
C1789 C 0.99634 0.93301 0.08173 0.0
C1790 C 0.98696 0.91352 0.14332 0.0
C1791 C 0.98087 0.91322 0.17999 0.0
C1792 C 0.96838 0.91073 0.18155 0.0
C1793 C 0.96189 0.90923 0.14564 0.0
C1794 C 0.96797 0.90972 0.10865 0.0
H1795 H 0.99896 0.94079 0.06226 0.0
H1796 H 0.98768 0.93529 0.09712 0.0
H1797 H 0.00357 0.93192 0.10471 0.0
H1798 H 0.9967 0.91486 0.14329 0.0
H1799 H 0.98599 0.91481 0.20731 0.0
H1800 H 0.3379 0.73583 0.46149 0.0
H1801 H 0.33867 0.74699 0.39837 0.0
H1802 H 0.34578 0.71356 0.33454 0.0
H1803 H 0.34591 0.70246 0.39884 0.0
H1804 H 0.35949 0.73058 0.30572 0.0
H1805 H 0.31318 0.74943 0.31604 0.0
H1806 H 0.32183 0.75391 0.35912 0.0
H1807 H 0.31862 0.73804 0.35054 0.0
C1808 C 0.33987 0.73091 0.43404 0.0
C1809 C 0.34231 0.7184 0.43494 0.0
C1810 C 0.34003 0.73725 0.39785 0.0
C1811 C 0.34202 0.7311 0.3615 0.0
C1812 C 0.34421 0.7185 0.36223 0.0
H1813 H 0.32797 0.76829 0.13466 0.0
H1814 H 0.32654 0.75602 0.19586 0.0
C1815 C 0.34427 0.71216 0.39877 0.0
C1816 C 0.34215 0.73797 0.3231 0.0
H1817 H 0.32672 0.7596 0.27018 0.0
C1818 C 0.35224 0.73679 0.29762 0.0
C1819 C 0.33259 0.74593 0.31208 0.0
C1820 C 0.3209 0.74678 0.33572 0.0
C1821 C 0.35318 0.74354 0.26193 0.0
C1822 C 0.34406 0.75221 0.25253 0.0
C1823 C 0.33384 0.75316 0.2776 0.0
C1824 C 0.34477 0.76017 0.21646 0.0
C1825 C 0.36379 0.74101 0.23438 0.0
C1826 C 0.35532 0.76695 0.20819 0.0
C1827 C 0.35624 0.77366 0.17268 0.0
C1828 C 0.34644 0.77418 0.1458 0.0
C1829 C 0.3356 0.76812 0.15527 0.0
C1830 C 0.33481 0.76107 0.19012 0.0
H1831 H 0.36726 0.73161 0.23848 0.0
H1832 H 0.36127 0.74222 0.2023 0.0
H1833 H 0.37133 0.74733 0.2417 0.0
H1834 H 0.36293 0.76686 0.22878 0.0
H1835 H 0.36467 0.77834 0.16594 0.0
H1836 H 0.54401 0.10662 0.64433 0.0
H1837 H 0.53166 0.10656 0.58275 0.0
H1838 H 0.50999 0.07728 0.63135 0.0
H1839 H 0.52128 0.07854 0.69431 0.0
H1840 H 0.52783 0.09178 0.52722 0.0
H1841 H 0.48316 0.09775 0.6005 0.0
H1842 H 0.49687 0.09673 0.62947 0.0
H1843 H 0.48928 0.08315 0.61313 0.0
C1844 C 0.5364 0.10044 0.64193 0.0
C1845 C 0.5332 0.09296 0.67427 0.0
C1846 C 0.52941 0.10028 0.60671 0.0
C1847 C 0.51952 0.09221 0.60275 0.0
C1848 C 0.51708 0.08404 0.63418 0.0
H1849 H 0.47043 0.07916 0.39925 0.0
H1850 H 0.48212 0.07686 0.46157 0.0
C1851 C 0.52363 0.08466 0.66997 0.0
C1852 C 0.51199 0.09215 0.56549 0.0
H1853 H 0.48276 0.09269 0.53037 0.0
C1854 C 0.51798 0.09208 0.52812 0.0
C1855 C 0.49907 0.09227 0.56622 0.0
C1856 C 0.49175 0.09258 0.60455 0.0
C1857 C 0.51148 0.09233 0.49185 0.0
C1858 C 0.49865 0.09272 0.49289 0.0
C1859 C 0.49262 0.09242 0.52987 0.0
C1860 C 0.49134 0.09414 0.45596 0.0
C1861 C 0.51838 0.09211 0.45263 0.0
C1862 C 0.49239 0.10479 0.43318 0.0
C1863 C 0.48569 0.10618 0.39794 0.0
C1864 C 0.47778 0.09695 0.38473 0.0
C1865 C 0.47643 0.08644 0.40848 0.0
C1866 C 0.48314 0.08508 0.44395 0.0
H1867 H 0.52778 0.08861 0.45662 0.0
H1868 H 0.51364 0.08641 0.43 0.0
H1869 H 0.519 0.1015 0.44058 0.0
H1870 H 0.49846 0.11201 0.44256 0.0
H1871 H 0.48694 0.11444 0.38066 0.0
H1872 H 0.17535 0.77107 0.86002 0.0
H1873 H 0.17553 0.7596 0.79698 0.0
H1874 H 0.1383 0.77011 0.77497 0.0
H1875 H 0.1379 0.78084 0.83937 0.0
H1876 H 0.14026 0.74748 0.76198 0.0
H1877 H 0.17885 0.76932 0.68385 0.0
H1878 H 0.18349 0.76321 0.73133 0.0
H1879 H 0.17257 0.77542 0.72963 0.0
C1880 C 0.16732 0.77112 0.84119 0.0
C1881 C 0.15665 0.77689 0.85416 0.0
C1882 C 0.16742 0.7646 0.80509 0.0
C1883 C 0.15699 0.76412 0.78071 0.0
C1884 C 0.14647 0.77031 0.79317 0.0
H1885 H 0.15908 0.73811 0.53646 0.0
H1886 H 0.15805 0.74985 0.59825 0.0
C1887 C 0.14626 0.77651 0.82977 0.0
C1888 C 0.15672 0.75657 0.74365 0.0
H1889 H 0.17204 0.75042 0.65687 0.0
C1890 C 0.14714 0.74824 0.73875 0.0
C1891 C 0.16563 0.75756 0.71314 0.0
C1892 C 0.17563 0.76696 0.71455 0.0
C1893 C 0.14617 0.74096 0.70424 0.0
C1894 C 0.15537 0.74158 0.67453 0.0
C1895 C 0.165 0.74984 0.67965 0.0
C1896 C 0.15496 0.73428 0.63688 0.0
C1897 C 0.13508 0.73302 0.69966 0.0
C1898 C 0.15348 0.72157 0.63755 0.0
C1899 C 0.15344 0.7149 0.60164 0.0
C1900 C 0.15506 0.72083 0.5647 0.0
C1901 C 0.15708 0.73341 0.56431 0.0
C1902 C 0.15675 0.7401 0.5998 0.0
H1903 H 0.12729 0.73657 0.7174 0.0
H1904 H 0.13225 0.73232 0.66778 0.0
H1905 H 0.13717 0.72376 0.71097 0.0
H1906 H 0.15258 0.71676 0.66579 0.0
H1907 H 0.15233 0.70512 0.60273 0.0
H1908 H 0.47576 0.92596 0.09719 0.0
H1909 H 0.48674 0.92738 0.03302 0.0
H1910 H 0.49579 0.88933 0.04048 0.0
H1911 H 0.4849 0.88776 0.10402 0.0
H1912 H 0.51258 0.92092 0.02082 0.0
H1913 H 0.48072 0.89412 0.92645 0.0
H1914 H 0.47624 0.90095 0.97358 0.0
H1915 H 0.48482 0.88706 0.97325 0.0
C1916 C 0.47993 0.91786 0.08481 0.0
C1917 C 0.47943 0.90674 0.10569 0.0
C1918 C 0.48626 0.91871 0.04838 0.0
C1919 C 0.49202 0.90845 0.03213 0.0
C1920 C 0.49132 0.89732 0.05244 0.0
H1921 H 0.54951 0.90217 0.85242 0.0
H1922 H 0.53778 0.90261 0.91556 0.0
C1923 C 0.48509 0.89647 0.0888 0.0
C1924 C 0.49904 0.90927 0.9944 0.0
H1925 H 0.50009 0.89827 0.89895 0.0
C1926 C 0.50987 0.916 0.994 0.0
C1927 C 0.49539 0.90293 0.95955 0.0
C1928 C 0.4836 0.89593 0.9579 0.0
C1929 C 0.51733 0.91633 0.95969 0.0
C1930 C 0.51391 0.90957 0.92527 0.0
C1931 C 0.50289 0.90316 0.92555 0.0
C1932 C 0.52128 0.90938 0.88789 0.0
C1933 C 0.52864 0.92408 0.96041 0.0
C1934 C 0.51582 0.9127 0.85141 0.0
C1935 C 0.52238 0.91217 0.81568 0.0
C1936 C 0.53451 0.90825 0.81558 0.0
C1937 C 0.54012 0.90512 0.85196 0.0
C1938 C 0.53347 0.90549 0.88792 0.0
H1939 H 0.52811 0.93122 0.984 0.0
H1940 H 0.53661 0.91826 0.96717 0.0
H1941 H 0.53017 0.92854 0.93088 0.0
H1942 H 0.50646 0.91572 0.85056 0.0
H1943 H 0.51796 0.9149 0.78799 0.0
H1944 H 0.3375 0.26825 0.05312 0.0
H1945 H 0.33716 0.25841 0.11849 0.0
H1946 H 0.34363 0.29298 0.17607 0.0
H1947 H 0.3447 0.30282 0.10946 0.0
H1948 H 0.35711 0.27616 0.20952 0.0
H1949 H 0.31073 0.25773 0.19872 0.0
H1950 H 0.3194 0.25265 0.1564 0.0
H1951 H 0.3165 0.26867 0.16311 0.0
C1952 C 0.339 0.27374 0.07971 0.0
C1953 C 0.34151 0.28619 0.07645 0.0
C1954 C 0.33855 0.26815 0.11714 0.0
C1955 C 0.34007 0.27498 0.15233 0.0
C1956 C 0.34236 0.28754 0.14926 0.0
H1957 H 0.32661 0.23667 0.37891 0.0
H1958 H 0.32464 0.2498 0.31984 0.0
C1959 C 0.34296 0.29315 0.11143 0.0
C1960 C 0.33981 0.26873 0.19183 0.0
H1961 H 0.32425 0.24715 0.24454 0.0
C1962 C 0.34983 0.26997 0.21756 0.0
C1963 C 0.33018 0.26087 0.2029 0.0
C1964 C 0.31855 0.26003 0.17897 0.0
C1965 C 0.35076 0.26311 0.25301 0.0
C1966 C 0.34168 0.25437 0.26203 0.0
C1967 C 0.33138 0.2536 0.23729 0.0
C1968 C 0.34267 0.24595 0.29682 0.0
C1969 C 0.36143 0.26545 0.28047 0.0
C1970 C 0.35325 0.23903 0.30283 0.0
C1971 C 0.35447 0.23175 0.337 0.0
C1972 C 0.34494 0.23087 0.36489 0.0
C1973 C 0.33404 0.2371 0.35755 0.0
C1974 C 0.33295 0.24466 0.32395 0.0
H1975 H 0.36478 0.27493 0.27729 0.0
H1976 H 0.35903 0.26388 0.31248 0.0
H1977 H 0.36902 0.2593 0.27214 0.0
H1978 H 0.36067 0.23941 0.2815 0.0
H1979 H 0.36294 0.22697 0.342 0.0
H1980 H 0.01637 0.11667 0.61657 0.0
H1981 H 0.00532 0.11689 0.55331 0.0
H1982 H 0.01979 0.0816 0.52356 0.0
H1983 H 0.03085 0.08116 0.58756 0.0
H1984 H 0.01414 0.11551 0.47577 0.0
H1985 H 0.98284 0.07721 0.50972 0.0
H1986 H 0.99183 0.08461 0.54797 0.0
H1987 H 0.99874 0.07375 0.51472 0.0
C1988 C 0.01728 0.10893 0.59671 0.0
C1989 C 0.02449 0.09885 0.60737 0.0
C1990 C 0.01092 0.10909 0.5605 0.0
C1991 C 0.01158 0.09919 0.53413 0.0
C1992 C 0.01898 0.08923 0.54398 0.0
H1993 H 0.98999 0.09554 0.28611 0.0
H1994 H 0.00094 0.09751 0.34961 0.0
C1995 C 0.02537 0.08904 0.58038 0.0
C1996 C 0.00463 0.09954 0.49606 0.0
H1997 H 0.98185 0.08553 0.44397 0.0
C1998 C 0.00707 0.10896 0.46882 0.0
C1999 C 0.99529 0.0911 0.48747 0.0
C2000 C 0.9919 0.08115 0.5166 0.0
C2001 C 1.00053 0.11006 0.43286 0.0
C2002 C 0.99144 0.10144 0.42364 0.0
C2003 C 0.98886 0.09212 0.45114 0.0
C2004 C 0.98491 0.10162 0.38476 0.0
C2005 C 0.00329 0.12052 0.40518 0.0
C2006 C 0.97227 0.10336 0.38344 0.0
C2007 C 0.96602 0.10248 0.34688 0.0
C2008 C 0.97235 0.09988 0.31126 0.0
C2009 C 0.98499 0.09817 0.31276 0.0
C2010 C 0.99123 0.09916 0.34909 0.0
H2011 H 0.00853 0.12781 0.42048 0.0
H2012 H 0.00878 0.11715 0.37951 0.0
H2013 H 0.99473 0.12446 0.39326 0.0
H2014 H 0.96723 0.10515 0.4108 0.0
H2015 H 0.95623 0.10354 0.34654 0.0
H2016 H 0.85052 0.70076 0.10081 0.0
H2017 H 0.85159 0.71071 0.16729 0.0
H2018 H 0.83816 0.74398 0.11499 0.0
H2019 H 0.83708 0.73415 0.04922 0.0
H2020 H 0.86491 0.73436 0.18515 0.0
H2021 H 0.81518 0.73573 0.21352 0.0
H2022 H 0.82213 0.72499 0.17944 0.0
H2023 H 0.81994 0.74049 0.16421 0.0
C2024 C 0.84785 0.7102 0.10379 0.0
C2025 C 0.844 0.71682 0.0701 0.0
C2026 C 0.84845 0.71584 0.14152 0.0
C2027 C 0.84484 0.72802 0.14587 0.0
C2028 C 0.84086 0.73454 0.11222 0.0
H2029 H 0.8363 0.78154 0.33461 0.0
H2030 H 0.83575 0.76983 0.27187 0.0
C2031 C 0.84037 0.72897 0.07471 0.0
C2032 C 0.84539 0.73418 0.18523 0.0
H2033 H 0.82759 0.74771 0.25625 0.0
C2034 C 0.85679 0.73729 0.2008 0.0
C2035 C 0.83474 0.73792 0.20541 0.0
C2036 C 0.82228 0.73455 0.19008 0.0
C2037 C 0.85784 0.74457 0.23525 0.0
C2038 C 0.84717 0.74831 0.25572 0.0
C2039 C 0.83576 0.74491 0.24051 0.0
C2040 C 0.84763 0.75553 0.29335 0.0
C2041 C 0.87037 0.74856 0.24825 0.0
C2042 C 0.85433 0.75131 0.32636 0.0
C2043 C 0.85484 0.75807 0.36175 0.0
C2044 C 0.84838 0.76906 0.3654 0.0
C2045 C 0.8414 0.77314 0.3327 0.0
C2046 C 0.84108 0.76645 0.29689 0.0
H2047 H 0.87686 0.74848 0.22263 0.0
H2048 H 0.87022 0.75784 0.26135 0.0
H2049 H 0.87386 0.74215 0.27127 0.0
H2050 H 0.85912 0.74272 0.32492 0.0
H2051 H 0.86018 0.75454 0.3865 0.0
H2052 H 0.97366 0.11126 0.08013 0.0
H2053 H 0.98519 0.1089 0.01783 0.0
H2054 H 0.99336 0.07176 0.04981 0.0
H2055 H 0.9813 0.07395 0.11133 0.0
H2056 H 0.00866 0.10503 0.01446 0.0
H2057 H 0.98547 0.06756 0.93362 0.0
H2058 H 0.97874 0.07505 0.9764 0.0
H2059 H 0.99014 0.06351 0.98353 0.0
C2060 C 0.97761 0.10248 0.07318 0.0
C2061 C 0.97653 0.09275 0.10023 0.0
C2062 C 0.98426 0.10116 0.03776 0.0
C2063 C 0.99013 0.09015 0.02901 0.0
C2064 C 0.9887 0.08026 0.05537 0.0
H2065 H 0.05017 0.09285 0.85156 0.0
H2066 H 0.03917 0.09137 0.91582 0.0
C2067 C 0.9818 0.08151 0.09051 0.0
C2068 C 0.9985 0.08947 0.99407 0.0
H2069 H 0.00442 0.07402 0.90743 0.0
C2070 C 0.00769 0.0983 0.99086 0.0
C2071 C 0.9973 0.08062 0.96353 0.0
C2072 C 0.98731 0.07122 0.96416 0.0
C2073 C 0.01542 0.09881 0.95736 0.0
C2074 C 0.01424 0.08996 0.92671 0.0
C2075 C 0.00533 0.08084 0.93076 0.0
C2076 C 0.02128 0.09051 0.88854 0.0
C2077 C 0.02442 0.10913 0.95485 0.0
C2078 C 0.01502 0.08992 0.85185 0.0
C2079 C 0.02131 0.0903 0.8156 0.0
C2080 C 0.03395 0.09187 0.81496 0.0
C2081 C 0.04035 0.09213 0.85143 0.0
C2082 C 0.03406 0.09137 0.88804 0.0
H2083 H 0.02156 0.117 0.97353 0.0
H2084 H 0.03336 0.10598 0.96622 0.0
H2085 H 0.02559 0.1123 0.92352 0.0
H2086 H 0.00521 0.08913 0.85114 0.0
H2087 H 0.01623 0.08932 0.7879 0.0
H2088 H 0.65907 0.26333 0.5414 0.0
H2089 H 0.65806 0.25247 0.60532 0.0
H2090 H 0.64682 0.28546 0.6648 0.0
H2091 H 0.64743 0.2963 0.60005 0.0
H2092 H 0.67187 0.25796 0.67207 0.0
H2093 H 0.62262 0.26022 0.70687 0.0
H2094 H 0.62876 0.26486 0.65903 0.0
H2095 H 0.62971 0.27484 0.7015 0.0
C2096 C 0.65599 0.26816 0.5679 0.0
C2097 C 0.65289 0.28052 0.56576 0.0
C2098 C 0.65556 0.26199 0.60444 0.0
C2099 C 0.65223 0.26811 0.63971 0.0
C2100 C 0.64917 0.28051 0.63776 0.0
H2101 H 0.64656 0.24598 0.88752 0.0
H2102 H 0.64695 0.25673 0.82376 0.0
C2103 C 0.64955 0.28669 0.60096 0.0
C2104 C 0.65275 0.26161 0.67867 0.0
H2105 H 0.63547 0.25219 0.75783 0.0
C2106 C 0.66392 0.25666 0.69086 0.0
C2107 C 0.64239 0.26006 0.70325 0.0
C2108 C 0.63016 0.26519 0.69193 0.0
C2109 C 0.66505 0.25031 0.72727 0.0
C2110 C 0.65462 0.24851 0.75146 0.0
C2111 C 0.64346 0.25348 0.73919 0.0
C2112 C 0.65508 0.24192 0.79039 0.0
C2113 C 0.67749 0.24596 0.73993 0.0
C2114 C 0.65958 0.22998 0.79308 0.0
C2115 C 0.65962 0.22385 0.83002 0.0
C2116 C 0.65485 0.22946 0.86453 0.0
C2117 C 0.65027 0.24136 0.86154 0.0
C2118 C 0.65047 0.24754 0.82501 0.0
H2119 H 0.68482 0.25118 0.72475 0.0
H2120 H 0.67874 0.24677 0.77295 0.0
H2121 H 0.67856 0.23628 0.73139 0.0
H2122 H 0.66287 0.22532 0.76656 0.0
H2123 H 0.66309 0.21465 0.83134 0.0
H2124 H 0.45598 0.90132 0.3496 0.0
H2125 H 0.46711 0.90036 0.41398 0.0
H2126 H 0.49928 0.91403 0.35519 0.0
H2127 H 0.48827 0.91498 0.29142 0.0
H2128 H 0.49102 0.88711 0.4267 0.0
H2129 H 0.49286 0.93683 0.45561 0.0
H2130 H 0.48151 0.92994 0.42364 0.0
H2131 H 0.49673 0.93201 0.40552 0.0
C2132 C 0.46543 0.90408 0.3507 0.0
C2133 C 0.47141 0.90794 0.31573 0.0
C2134 C 0.47174 0.90355 0.38724 0.0
C2135 C 0.48396 0.90723 0.38917 0.0
C2136 C 0.48983 0.91127 0.3543 0.0
H2137 H 0.5376 0.9157 0.58022 0.0
H2138 H 0.52672 0.91623 0.51577 0.0
C2139 C 0.48358 0.91169 0.31793 0.0
C2140 C 0.4908 0.90663 0.42727 0.0
H2141 H 0.5048 0.92428 0.4977 0.0
C2142 C 0.49411 0.89521 0.44217 0.0
C2143 C 0.49475 0.91725 0.44723 0.0
C2144 C 0.49124 0.92973 0.43248 0.0
C2145 C 0.50163 0.89408 0.47598 0.0
C2146 C 0.5054 0.9047 0.49667 0.0
C2147 C 0.50197 0.91615 0.48182 0.0
C2148 C 0.51232 0.90411 0.53491 0.0
C2149 C 0.50573 0.88153 0.48829 0.0
C2150 C 0.50778 0.89727 0.5671 0.0
C2151 C 0.51406 0.89676 0.60338 0.0
C2152 C 0.52488 0.90338 0.60888 0.0
C2153 C 0.52933 0.91046 0.5769 0.0
C2154 C 0.52311 0.91078 0.54013 0.0
H2155 H 0.50592 0.87525 0.46212 0.0
H2156 H 0.51492 0.88171 0.50206 0.0
H2157 H 0.49921 0.87776 0.51049 0.0
H2158 H 0.49926 0.89241 0.56442 0.0
H2159 H 0.51023 0.89134 0.62743 0.0
H2160 H 0.86276 0.23055 0.1511 0.0
H2161 H 0.86001 0.24136 0.21444 0.0
H2162 H 0.82135 0.23534 0.20804 0.0
H2163 H 0.82399 0.2244 0.14421 0.0
H2164 H 0.83004 0.26094 0.22204 0.0
H2165 H 0.84953 0.22666 0.32641 0.0
H2166 H 0.85836 0.22964 0.28199 0.0
H2167 H 0.84364 0.22273 0.27736 0.0
C2168 C 0.85367 0.23138 0.16329 0.0
C2169 C 0.84358 0.22661 0.14263 0.0
C2170 C 0.85213 0.23755 0.19952 0.0
C2171 C 0.8405 0.23911 0.21577 0.0
C2172 C 0.8304 0.23419 0.19581 0.0
H2173 H 0.83129 0.26696 0.45744 0.0
H2174 H 0.82987 0.25528 0.39541 0.0
C2175 C 0.83194 0.22788 0.1596 0.0
C2176 C 0.839 0.24627 0.25298 0.0
H2177 H 0.84641 0.2464 0.3522 0.0
C2178 C 0.8336 0.2578 0.25064 0.0
C2179 C 0.8435 0.24205 0.29012 0.0
C2180 C 0.849 0.22955 0.29444 0.0
C2181 C 0.83294 0.26542 0.28449 0.0
C2182 C 0.83803 0.26144 0.32133 0.0
C2183 C 0.84293 0.24966 0.32377 0.0
C2184 C 0.83821 0.2691 0.3581 0.0
C2185 C 0.8266 0.27752 0.28051 0.0
C2186 C 0.84331 0.28085 0.35798 0.0
C2187 C 0.84388 0.28768 0.39354 0.0
C2188 C 0.83979 0.28262 0.42975 0.0
C2189 C 0.83467 0.27095 0.42981 0.0
C2190 C 0.83384 0.26428 0.39438 0.0
H2191 H 0.81995 0.27745 0.25538 0.0
H2192 H 0.82176 0.28 0.30863 0.0
H2193 H 0.83344 0.28466 0.27392 0.0
H2194 H 0.84708 0.28465 0.33066 0.0
H2195 H 0.84782 0.2967 0.39301 0.0
H2196 H 0.48625 0.09081 0.20067 0.0
H2197 H 0.4969 0.09068 0.13633 0.0
H2198 H 0.46334 0.09919 0.07538 0.0
H2199 H 0.45271 0.09983 0.14055 0.0
H2200 H 0.49254 0.0756 0.07266 0.0
H2201 H 0.48693 0.12388 0.02854 0.0
H2202 H 0.48234 0.11823 0.07704 0.0
H2203 H 0.47278 0.11591 0.03409 0.0
C2204 C 0.48123 0.09304 0.17365 0.0
C2205 C 0.46879 0.09582 0.17551 0.0
C2206 C 0.48728 0.09278 0.13689 0.0
C2207 C 0.48095 0.09506 0.10111 0.0
C2208 C 0.46844 0.09765 0.10274 0.0
H2209 H 0.50343 0.09942 0.8541 0.0
H2210 H 0.49234 0.09802 0.9169 0.0
C2211 C 0.46238 0.09799 0.13979 0.0
C2212 C 0.48748 0.09425 0.06225 0.0
H2213 H 0.49593 0.11078 0.98024 0.0
C2214 C 0.4933 0.08328 0.05235 0.0
C2215 C 0.48837 0.10425 0.03575 0.0
C2216 C 0.48236 0.11627 0.04446 0.0
C2217 C 0.49986 0.08199 0.01638 0.0
C2218 C 0.50096 0.09208 0.99028 0.0
C2219 C 0.49514 0.10304 0.0003 0.0
C2220 C 0.50766 0.09151 0.95159 0.0
C2221 C 0.50523 0.06974 0.0063 0.0
C2222 C 0.51997 0.08806 0.94978 0.0
C2223 C 0.52631 0.08853 0.91322 0.0
C2224 C 0.52051 0.09281 0.87836 0.0
C2225 C 0.50819 0.09611 0.88036 0.0
C2226 C 0.50182 0.09535 0.91638 0.0
H2227 H 0.50054 0.0623 0.02273 0.0
H2228 H 0.50467 0.06785 0.97355 0.0
H2229 H 0.51493 0.06961 0.01531 0.0
H2230 H 0.52477 0.08536 0.97674 0.0
H2231 H 0.53583 0.08603 0.91257 0.0
H2232 H 0.65573 0.69889 0.89041 0.0
H2233 H 0.65706 0.709 0.82441 0.0
H2234 H 0.66403 0.7432 0.88375 0.0
H2235 H 0.66348 0.73304 0.94869 0.0
H2236 H 0.64394 0.72594 0.79149 0.0
H2237 H 0.6905 0.74395 0.80392 0.0
H2238 H 0.68451 0.73306 0.8393 0.0
H2239 H 0.68164 0.7491 0.84572 0.0
C2240 C 0.65761 0.70855 0.88899 0.0
C2241 C 0.65913 0.71531 0.92436 0.0
C2242 C 0.65837 0.71431 0.85148 0.0
C2243 C 0.66086 0.72684 0.84904 0.0
C2244 C 0.66246 0.73349 0.88461 0.0
H2245 H 0.63965 0.77411 0.65438 0.0
H2246 H 0.64137 0.76215 0.71612 0.0
C2247 C 0.66188 0.72773 0.92179 0.0
C2248 C 0.66127 0.73319 0.80968 0.0
H2249 H 0.67741 0.75424 0.75646 0.0
C2250 C 0.65136 0.73198 0.7835 0.0
C2251 C 0.67106 0.74088 0.79873 0.0
C2252 C 0.68257 0.7417 0.82326 0.0
C2253 C 0.65073 0.7386 0.74748 0.0
C2254 C 0.66 0.74711 0.73832 0.0
C2255 C 0.67015 0.74794 0.76375 0.0
C2256 C 0.65937 0.75525 0.70266 0.0
C2257 C 0.64019 0.73619 0.71951 0.0
C2258 C 0.66927 0.75616 0.67605 0.0
C2259 C 0.66849 0.76345 0.64168 0.0
C2260 C 0.65772 0.76977 0.63308 0.0
C2261 C 0.64801 0.76923 0.66035 0.0
C2262 C 0.64892 0.76224 0.69526 0.0
H2263 H 0.63667 0.72679 0.72329 0.0
H2264 H 0.63266 0.74252 0.72676 0.0
H2265 H 0.64282 0.73746 0.68754 0.0
H2266 H 0.67748 0.75096 0.68123 0.0
H2267 H 0.67605 0.76365 0.62082 0.0
H2268 H 0.98494 0.88405 0.38153 0.0
H2269 H 0.99591 0.88363 0.44522 0.0
H2270 H 0.98394 0.92011 0.47099 0.0
H2271 H 0.97292 0.9207 0.40701 0.0
H2272 H 0.00985 0.91571 0.47915 0.0
H2273 H 0.98169 0.88182 0.56106 0.0
H2274 H 0.98642 0.87743 0.51138 0.0
H2275 H 0.97618 0.89 0.51761 0.0
C2276 C 0.98451 0.89197 0.40081 0.0
C2277 C 0.97802 0.90242 0.38907 0.0
C2278 C 0.99076 0.89168 0.4373 0.0
C2279 C 0.99065 0.9018 0.46282 0.0
C2280 C 0.98408 0.91219 0.45163 0.0
H2281 H 0.01418 0.9097 0.70688 0.0
H2282 H 0.00322 0.90791 0.64334 0.0
C2283 C 0.97775 0.91248 0.41516 0.0
C2284 C 0.99782 0.90168 0.50043 0.0
H2285 H 1.00001 0.88794 0.592 0.0
C2286 C 0.00774 0.90963 0.50387 0.0
C2287 C 0.99498 0.89376 0.53253 0.0
C2288 C 0.98418 0.88532 0.53081 0.0
C2289 C 0.01494 0.90985 0.53871 0.0
C2290 C 0.01219 0.90181 0.57063 0.0
C2291 C 0.00223 0.89392 0.5672 0.0
C2292 C 0.01893 0.90215 0.60914 0.0
C2293 C 0.02519 0.91891 0.54155 0.0
C2294 C 0.03138 0.89933 0.61107 0.0
C2295 C 0.03766 0.90028 0.64759 0.0
C2296 C 0.03148 0.90379 0.68259 0.0
C2297 C 0.01905 0.90658 0.68049 0.0
C2298 C 0.0128 0.90564 0.64421 0.0
H2299 H 0.02456 0.92603 0.51794 0.0
H2300 H 0.02525 0.92339 0.57148 0.0
H2301 H 0.03398 0.9141 0.53778 0.0
H2302 H 0.03623 0.8965 0.58433 0.0
H2303 H 0.04729 0.89827 0.64855 0.0
H2304 H 0.6599 0.76269 0.44703 0.0
H2305 H 0.65788 0.75236 0.38249 0.0
H2306 H 0.64608 0.78588 0.32761 0.0
H2307 H 0.64808 0.79631 0.39295 0.0
H2308 H 0.63752 0.74963 0.33286 0.0
H2309 H 0.67504 0.77468 0.25735 0.0
H2310 H 0.67289 0.77494 0.31118 0.0
H2311 H 0.66326 0.78389 0.27922 0.0
C2312 C 0.65667 0.76781 0.42134 0.0
C2313 C 0.65381 0.78019 0.42498 0.0
C2314 C 0.6556 0.76192 0.38448 0.0
C2315 C 0.65189 0.76836 0.35027 0.0
C2316 C 0.64906 0.78078 0.35366 0.0
H2317 H 0.63301 0.73456 0.12231 0.0
H2318 H 0.6328 0.746 0.18512 0.0
C2319 C 0.65014 0.78671 0.39082 0.0
C2320 C 0.65125 0.76192 0.31125 0.0
H2321 H 0.6647 0.7599 0.21892 0.0
C2322 C 0.64334 0.75197 0.30781 0.0
C2323 C 0.6591 0.76482 0.27895 0.0
C2324 C 0.66814 0.7751 0.28172 0.0
C2325 C 0.64303 0.74483 0.2729 0.0
C2326 C 0.65081 0.74778 0.24054 0.0
C2327 C 0.65873 0.75772 0.24386 0.0
C2328 C 0.65089 0.74057 0.20303 0.0
C2329 C 0.63461 0.73402 0.27124 0.0
C2330 C 0.66117 0.73375 0.19233 0.0
C2331 C 0.66133 0.72713 0.15642 0.0
C2332 C 0.65124 0.72734 0.13041 0.0
C2333 C 0.64094 0.73415 0.14156 0.0
C2334 C 0.64077 0.74069 0.17751 0.0
H2335 H 0.63103 0.73158 0.30144 0.0
H2336 H 0.62678 0.73619 0.2515 0.0
H2337 H 0.63934 0.726 0.25837 0.0
H2338 H 0.66907 0.73359 0.21174 0.0
H2339 H 0.66944 0.72207 0.14871 0.0
H2340 H 0.48389 0.41502 0.70354 0.0
H2341 H 0.49517 0.41547 0.64043 0.0
H2342 H 0.46283 0.40456 0.57635 0.0
H2343 H 0.45137 0.40455 0.63998 0.0
H2344 H 0.50037 0.39805 0.59103 0.0
H2345 H 0.4738 0.43267 0.50838 0.0
H2346 H 0.47177 0.42991 0.56145 0.0
H2347 H 0.46461 0.42017 0.52498 0.0
C2348 C 0.4792 0.4127 0.67593 0.0
C2349 C 0.46686 0.40952 0.67641 0.0
C2350 C 0.48563 0.41302 0.63989 0.0
C2351 C 0.47983 0.41022 0.6035 0.0
C2352 C 0.46743 0.40706 0.6039 0.0
H2353 H 0.51399 0.3863 0.38642 0.0
H2354 H 0.50329 0.38874 0.44992 0.0
C2355 C 0.46092 0.40692 0.64014 0.0
C2356 C 0.48702 0.41012 0.56573 0.0
H2357 H 0.48832 0.42137 0.47003 0.0
C2358 C 0.49767 0.4031 0.56465 0.0
C2359 C 0.48376 0.41708 0.53157 0.0
C2360 C 0.47294 0.42549 0.53169 0.0
C2361 C 0.5049 0.40246 0.53009 0.0
C2362 C 0.50134 0.40896 0.49544 0.0
C2363 C 0.49094 0.41632 0.49667 0.0
C2364 C 0.50802 0.40768 0.45713 0.0
C2365 C 0.5163 0.39484 0.53095 0.0
C2366 C 0.51417 0.4176 0.44005 0.0
C2367 C 0.52037 0.41625 0.40355 0.0
C2368 C 0.52038 0.40499 0.38345 0.0
C2369 C 0.51422 0.3951 0.40097 0.0
C2370 C 0.5081 0.39645 0.43737 0.0
H2371 H 0.51937 0.39302 0.56221 0.0
H2372 H 0.51445 0.38597 0.51629 0.0
H2373 H 0.52378 0.39936 0.51427 0.0
H2374 H 0.51416 0.42635 0.45497 0.0
H2375 H 0.52494 0.42406 0.39075 0.0
H2376 H 0.85419 0.25455 0.61017 0.0
H2377 H 0.85369 0.24347 0.6733 0.0
H2378 H 0.83696 0.27432 0.73136 0.0
H2379 H 0.83678 0.28527 0.66712 0.0
H2380 H 0.86463 0.24749 0.73976 0.0
H2381 H 0.8152 0.24818 0.77099 0.0
H2382 H 0.82142 0.25297 0.7234 0.0
H2383 H 0.82132 0.26319 0.76573 0.0
C2384 C 0.85027 0.25897 0.63621 0.0
C2385 C 0.84545 0.27078 0.63358 0.0
C2386 C 0.85002 0.25261 0.67239 0.0
C2387 C 0.84512 0.25795 0.70707 0.0
C2388 C 0.84045 0.26984 0.70478 0.0
H2389 H 0.84091 0.23673 0.95565 0.0
H2390 H 0.84195 0.24736 0.89132 0.0
C2391 C 0.84044 0.27614 0.66816 0.0
C2392 C 0.84546 0.25117 0.74567 0.0
H2393 H 0.82802 0.24158 0.82444 0.0
C2394 C 0.85659 0.24615 0.75812 0.0
C2395 C 0.83496 0.24928 0.76948 0.0
C2396 C 0.82254 0.25358 0.75652 0.0
C2397 C 0.85756 0.2395 0.79395 0.0
C2398 C 0.84716 0.23795 0.81831 0.0
C2399 C 0.83602 0.24289 0.80584 0.0
C2400 C 0.84762 0.23155 0.85746 0.0
C2401 C 0.86975 0.23429 0.80541 0.0
C2402 C 0.85059 0.21914 0.85985 0.0
C2403 C 0.85019 0.21308 0.89689 0.0
C2404 C 0.84693 0.21941 0.93189 0.0
C2405 C 0.84392 0.23178 0.92931 0.0
C2406 C 0.84436 0.23782 0.89253 0.0
H2407 H 0.87734 0.2392 0.79051 0.0
H2408 H 0.87112 0.23463 0.83832 0.0
H2409 H 0.87013 0.22463 0.79595 0.0
H2410 H 0.85291 0.21409 0.83297 0.0
H2411 H 0.85224 0.20346 0.89815 0.0
H2412 H 0.04219 0.60258 0.14488 0.0
H2413 H 0.02886 0.60106 0.08573 0.0
H2414 H 0.00486 0.57732 0.15211 0.0
H2415 H 0.01736 0.58006 0.21198 0.0
H2416 H 0.02255 0.58383 0.03989 0.0
H2417 H 0.98028 0.59956 0.11327 0.0
H2418 H 0.99414 0.59794 0.14119 0.0
H2419 H 0.9846 0.58498 0.1325 0.0
C2420 C 0.0339 0.59731 0.14679 0.0
C2421 C 0.0305 0.5918 0.18301 0.0
C2422 C 0.02634 0.59632 0.11303 0.0
C2423 C 0.01558 0.58937 0.11465 0.0
C2424 C 0.01274 0.5832 0.15037 0.0
H2425 H 0.97394 0.57256 0.89419 0.0
H2426 H 0.98454 0.56971 0.95862 0.0
C2427 C 0.01994 0.58467 0.18447 0.0
C2428 C 0.00753 0.58839 0.07878 0.0
H2429 H 0.97822 0.59183 0.04628 0.0
C2430 C 0.01286 0.58559 0.04146 0.0
C2431 C 0.99478 0.59046 0.08062 0.0
C2432 C 0.98816 0.59349 0.11904 0.0
C2433 C 0.00593 0.5852 0.00605 0.0
C2434 C 0.99335 0.58755 0.00804 0.0
C2435 C 0.9879 0.58998 0.04517 0.0
C2436 C 0.98597 0.58894 0.97131 0.0
C2437 C 0.01214 0.58269 0.96645 0.0
C2438 C 0.98299 0.60065 0.95815 0.0
C2439 C 0.97702 0.6023 0.92164 0.0
C2440 C 0.97382 0.59225 0.89778 0.0
C2441 C 0.97623 0.58047 0.91209 0.0
C2442 C 0.98235 0.57882 0.94861 0.0
H2443 H 0.02214 0.58175 0.96972 0.0
H2444 H 0.00848 0.57416 0.95336 0.0
H2445 H 0.0102 0.59014 0.94488 0.0
H2446 H 0.98568 0.60854 0.9755 0.0
H2447 H 0.97523 0.61149 0.91151 0.0
H2448 H 0.67616 0.27623 0.35429 0.0
H2449 H 0.67899 0.26543 0.29028 0.0
H2450 H 0.64031 0.2598 0.28176 0.0
H2451 H 0.63738 0.27046 0.34533 0.0
H2452 H 0.66996 0.23988 0.27602 0.0
H2453 H 0.65168 0.27442 0.17024 0.0
H2454 H 0.65744 0.27829 0.21951 0.0
H2455 H 0.64261 0.27167 0.21431 0.0
C2456 C 0.66825 0.27288 0.33837 0.0
C2457 C 0.65654 0.27419 0.35482 0.0
C2458 C 0.6699 0.26666 0.30206 0.0
C2459 C 0.65985 0.26187 0.2815 0.0
C2460 C 0.64815 0.2635 0.29717 0.0
H2461 H 0.65181 0.20423 0.10563 0.0
H2462 H 0.65279 0.21643 0.16761 0.0
C2463 C 0.64651 0.26958 0.33351 0.0
C2464 C 0.66146 0.25468 0.24442 0.0
H2465 H 0.65454 0.2546 0.14482 0.0
C2466 C 0.66662 0.24305 0.24719 0.0
C2467 C 0.65724 0.25896 0.20699 0.0
C2468 C 0.65202 0.27156 0.20227 0.0
C2469 C 0.66727 0.23537 0.21349 0.0
C2470 C 0.66242 0.23941 0.17637 0.0
C2471 C 0.65782 0.25129 0.17346 0.0
C2472 C 0.66213 0.23165 0.13984 0.0
C2473 C 0.67333 0.22315 0.21797 0.0
C2474 C 0.66668 0.23625 0.1035 0.0
C2475 C 0.66573 0.2295 0.06827 0.0
C2476 C 0.66028 0.21798 0.06861 0.0
C2477 C 0.65601 0.21313 0.1049 0.0
C2478 C 0.65671 0.22004 0.14024 0.0
H2479 H 0.67993 0.22315 0.24326 0.0
H2480 H 0.66632 0.21618 0.22464 0.0
H2481 H 0.67818 0.22049 0.19005 0.0
H2482 H 0.6709 0.24514 0.10227 0.0
H2483 H 0.66925 0.23331 0.04057 0.0
H2484 H 0.97212 0.42171 0.59222 0.0
H2485 H 0.98285 0.42218 0.52756 0.0
H2486 H 0.99375 0.38488 0.54408 0.0
H2487 H 0.98309 0.38425 0.60824 0.0
H2488 H 0.00855 0.41719 0.51701 0.0
H2489 H 0.97914 0.38594 0.42902 0.0
H2490 H 0.97405 0.39333 0.47454 0.0
H2491 H 0.9838 0.38026 0.47729 0.0
C2492 C 0.97665 0.41355 0.58181 0.0
C2493 C 0.97673 0.40295 0.60544 0.0
C2494 C 0.98281 0.41386 0.54501 0.0
C2495 C 0.989 0.40354 0.53107 0.0
C2496 C 0.98889 0.39289 0.55413 0.0
H2497 H 0.04636 0.39972 0.34929 0.0
H2498 H 0.03471 0.39848 0.41248 0.0
C2499 C 0.98282 0.39258 0.5909 0.0
C2500 C 0.99605 0.40397 0.49328 0.0
H2501 H 0.99801 0.39138 0.39993 0.0
C2502 C 0.00626 0.41158 0.4913 0.0
C2503 C 0.99297 0.39666 0.45988 0.0
C2504 C 0.98183 0.38865 0.45996 0.0
C2505 C 0.0136 0.41196 0.45678 0.0
C2506 C 0.0107 0.4044 0.42374 0.0
C2507 C 1.00036 0.39696 0.42558 0.0
C2508 C 0.01781 0.40464 0.38596 0.0
C2509 C 0.02422 0.42063 0.45564 0.0
C2510 C 0.0121 0.40821 0.35021 0.0
C2511 C 0.01867 0.40879 0.31448 0.0
C2512 C 0.03101 0.4056 0.31363 0.0
C2513 C 0.0368 0.40205 0.34932 0.0
C2514 C 0.03018 0.40143 0.38526 0.0
H2515 H 0.02352 0.42771 0.47934 0.0
H2516 H 0.03276 0.41549 0.46069 0.0
H2517 H 0.02487 0.42518 0.4259 0.0
H2518 H 0.00259 0.41075 0.35008 0.0
H2519 H 0.01412 0.41191 0.28749 0.0
H2520 H 0.86022 0.74042 0.87199 0.0
H2521 H 0.85823 0.75167 0.80948 0.0
H2522 H 0.82599 0.73133 0.77977 0.0
H2523 H 0.82785 0.71985 0.84279 0.0
H2524 H 0.84394 0.73329 0.71709 0.0
H2525 H 0.83261 0.77813 0.78316 0.0
H2526 H 0.84569 0.77096 0.80512 0.0
H2527 H 0.83099 0.76404 0.81056 0.0
C2528 C 0.85267 0.73826 0.85234 0.0
C2529 C 0.84417 0.7292 0.86259 0.0
C2530 C 0.85151 0.74482 0.81672 0.0
C2531 C 0.84183 0.7425 0.79052 0.0
C2532 C 0.83344 0.73332 0.79998 0.0
H2533 H 0.83175 0.76912 0.54481 0.0
H2534 H 0.82973 0.75805 0.60792 0.0
C2535 C 0.83455 0.72676 0.8359 0.0
C2536 C 0.84094 0.74935 0.75239 0.0
H2537 H 0.83855 0.77804 0.71441 0.0
C2538 C 0.84266 0.74306 0.71629 0.0
C2539 C 0.83929 0.76208 0.7517 0.0
C2540 C 0.83693 0.76921 0.78966 0.0
C2541 C 0.84331 0.74921 0.6794 0.0
C2542 C 0.84192 0.76206 0.67852 0.0
C2543 C 0.83983 0.76827 0.71483 0.0
C2544 C 0.84256 0.76927 0.6406 0.0
C2545 C 0.84584 0.74171 0.64238 0.0
C2546 C 0.84969 0.77991 0.63843 0.0
C2547 C 0.85026 0.7867 0.6028 0.0
C2548 C 0.84414 0.78262 0.56846 0.0
C2549 C 0.83683 0.77221 0.57081 0.0
C2550 C 0.83578 0.7658 0.60675 0.0
H2551 H 0.85165 0.73374 0.64956 0.0
H2552 H 0.83711 0.73819 0.63031 0.0
H2553 H 0.85037 0.74705 0.6187 0.0
H2554 H 0.85489 0.78293 0.66421 0.0
H2555 H 0.85568 0.7949 0.60178 0.0
H2556 H 0.51112 0.61583 0.13159 0.0
H2557 H 0.4995 0.6168 0.06938 0.0
H2558 H 0.51483 0.5826 0.03156 0.0
H2559 H 0.52649 0.58142 0.09417 0.0
H2560 H 0.50836 0.61709 0.99116 0.0
H2561 H 0.47795 0.57758 0.017 0.0
H2562 H 0.4867 0.58452 0.05679 0.0
H2563 H 0.49388 0.57429 0.02202 0.0
C2564 C 0.51206 0.60847 0.11019 0.0
C2565 C 0.51976 0.59853 0.11803 0.0
C2566 C 0.50537 0.60905 0.07463 0.0
C2567 C 0.50616 0.59969 0.04622 0.0
C2568 C 0.51391 0.5898 0.05355 0.0
H2569 H 0.4884 0.59694 0.79692 0.0
H2570 H 0.49795 0.59929 0.8627 0.0
C2571 C 0.52064 0.5892 0.0892 0.0
C2572 C 0.49921 0.60058 0.00826 0.0
H2573 H 0.47757 0.58639 0.95157 0.0
C2574 C 0.50157 0.61042 0.98262 0.0
C2575 C 0.49024 0.59197 0.99753 0.0
C2576 C 0.48693 0.58154 0.02489 0.0
C2577 C 0.49546 0.61168 0.9459 0.0
C2578 C 0.48686 0.60282 0.93435 0.0
C2579 C 0.48421 0.59316 0.9605 0.0
C2580 C 0.48113 0.60295 0.89411 0.0
C2581 C 0.49828 0.62243 0.91957 0.0
C2582 C 0.46851 0.60435 0.88993 0.0
C2583 C 0.46306 0.60331 0.85203 0.0
C2584 C 0.47017 0.60086 0.81794 0.0
C2585 C 0.48279 0.59948 0.82232 0.0
C2586 C 0.48824 0.60067 0.85997 0.0
H2587 H 0.50281 0.62985 0.93657 0.0
H2588 H 0.50449 0.61948 0.89518 0.0
H2589 H 0.48984 0.62605 0.90575 0.0
H2590 H 0.46287 0.60598 0.91609 0.0
H2591 H 0.45328 0.60411 0.84947 0.0
H2592 H 0.34762 0.23935 0.5536 0.0
H2593 H 0.34976 0.24864 0.61984 0.0
H2594 H 0.35534 0.21324 0.67239 0.0
H2595 H 0.35365 0.2039 0.60529 0.0
H2596 H 0.33622 0.2283 0.70837 0.0
H2597 H 0.38021 0.25257 0.69398 0.0
H2598 H 0.36985 0.2549 0.65291 0.0
H2599 H 0.37599 0.23997 0.6621 0.0
C2600 C 0.34985 0.2336 0.57896 0.0
C2601 C 0.35099 0.22097 0.57417 0.0
C2602 C 0.35092 0.2389 0.61686 0.0
C2603 C 0.35286 0.23164 0.65089 0.0
C2604 C 0.35396 0.219 0.64635 0.0
H2605 H 0.36635 0.26198 0.88757 0.0
H2606 H 0.36702 0.24999 0.82611 0.0
C2607 C 0.35304 0.21369 0.60817 0.0
C2608 C 0.35282 0.23729 0.69126 0.0
H2609 H 0.36742 0.25856 0.74811 0.0
C2610 C 0.34311 0.23481 0.71736 0.0
C2611 C 0.36183 0.24573 0.70291 0.0
C2612 C 0.37264 0.2484 0.67668 0.0
C2613 C 0.34199 0.24087 0.75438 0.0
C2614 C 0.35075 0.2497 0.76514 0.0
C2615 C 0.36065 0.25187 0.73958 0.0
C2616 C 0.34995 0.25675 0.80294 0.0
C2617 C 0.33149 0.23775 0.78167 0.0
C2618 C 0.34018 0.26466 0.81005 0.0
C2619 C 0.33975 0.27161 0.84527 0.0
C2620 C 0.34915 0.27079 0.87387 0.0
C2621 C 0.35896 0.26289 0.86631 0.0
C2622 C 0.35936 0.25598 0.8312 0.0
H2623 H 0.32743 0.22881 0.77393 0.0
H2624 H 0.33442 0.23757 0.81362 0.0
H2625 H 0.32433 0.24478 0.77849 0.0
H2626 H 0.33295 0.26557 0.78815 0.0
H2627 H 0.33207 0.27759 0.85005 0.0
H2628 H 0.4847 0.57511 0.6238 0.0
H2629 H 0.49778 0.57281 0.56464 0.0
H2630 H 0.48738 0.60864 0.52435 0.0
H2631 H 0.47497 0.61123 0.58479 0.0
H2632 H 0.49531 0.57221 0.48876 0.0
H2633 H 0.52297 0.6128 0.52194 0.0
H2634 H 0.51183 0.60706 0.55686 0.0
H2635 H 0.50735 0.61702 0.51636 0.0
C2636 C 0.4851 0.5824 0.60192 0.0
C2637 C 0.4789 0.59336 0.6087 0.0
C2638 C 0.49263 0.58113 0.56831 0.0
C2639 C 0.49392 0.59073 0.5407 0.0
C2640 C 0.48698 0.60132 0.54606 0.0
H2641 H 0.51662 0.58577 0.29757 0.0
H2642 H 0.50674 0.58509 0.36285 0.0
C2643 C 0.47973 0.60272 0.58019 0.0
C2644 C 0.50246 0.58967 0.50625 0.0
H2645 H 0.52432 0.60512 0.4542 0.0
C2646 C 0.50177 0.57934 0.48158 0.0
C2647 C 0.51121 0.59876 0.49742 0.0
C2648 C 0.51348 0.60944 0.52489 0.0
C2649 C 0.50909 0.57816 0.44732 0.0
C2650 C 0.51695 0.5878 0.43637 0.0
C2651 C 0.51814 0.59782 0.46213 0.0
C2652 C 0.52324 0.58811 0.39694 0.0
C2653 C 0.50831 0.56653 0.42336 0.0
C2654 C 0.53578 0.59055 0.39405 0.0
C2655 C 0.54141 0.59135 0.3563 0.0
C2656 C 0.53449 0.58995 0.32121 0.0
C2657 C 0.52207 0.58725 0.32427 0.0
C2658 C 0.51646 0.5866 0.36164 0.0
H2659 H 0.50604 0.5587 0.4431 0.0
H2660 H 0.50094 0.56735 0.40076 0.0
H2661 H 0.51697 0.56451 0.40754 0.0
H2662 H 0.54118 0.59182 0.42093 0.0
H2663 H 0.55105 0.59322 0.35447 0.0
H2664 H 0.13642 0.72378 0.3385 0.0
H2665 H 0.13774 0.73456 0.2743 0.0
H2666 H 0.17539 0.74292 0.29836 0.0
H2667 H 0.17427 0.73141 0.36118 0.0
H2668 H 0.14106 0.75706 0.26187 0.0
H2669 H 0.17869 0.73316 0.18524 0.0
H2670 H 0.17186 0.72737 0.2306 0.0
H2671 H 0.18344 0.73895 0.23304 0.0
C2672 C 0.14505 0.72765 0.32942 0.0
C2673 C 0.15529 0.72665 0.35433 0.0
C2674 C 0.14579 0.73387 0.29292 0.0
C2675 C 0.1567 0.73946 0.28108 0.0
C2676 C 0.16697 0.73837 0.30598 0.0
H2677 H 0.15541 0.79861 0.10249 0.0
H2678 H 0.15518 0.78708 0.16579 0.0
C2679 C 0.16633 0.73184 0.34197 0.0
C2680 C 0.15704 0.74707 0.24413 0.0
H2681 H 0.17304 0.75242 0.15811 0.0
C2682 C 0.14798 0.75594 0.23893 0.0
C2683 C 0.16601 0.74561 0.21403 0.0
C2684 C 0.17546 0.73567 0.2158 0.0
C2685 C 0.14755 0.76328 0.20445 0.0
C2686 C 0.15681 0.76215 0.17507 0.0
C2687 C 0.16595 0.75338 0.18058 0.0
C2688 C 0.1569 0.76942 0.1373 0.0
C2689 C 0.13693 0.77182 0.19954 0.0
C2690 C 0.15856 0.76348 0.10035 0.0
C2691 C 0.15919 0.77009 0.06473 0.0
C2692 C 0.15759 0.78273 0.06482 0.0
C2693 C 0.15618 0.78879 0.10162 0.0
C2694 C 0.15593 0.78219 0.13768 0.0
H2695 H 0.12889 0.76868 0.21691 0.0
H2696 H 0.13949 0.78093 0.21104 0.0
H2697 H 0.13427 0.77268 0.16757 0.0
H2698 H 0.15947 0.75369 0.09899 0.0
H2699 H 0.16103 0.76528 0.037 0.0
H2700 H 0.9863 0.41093 0.78783 0.0
H2701 H 0.9975 0.41053 0.85074 0.0
H2702 H 0.96374 0.40676 0.91594 0.0
H2703 H 0.95264 0.40579 0.85188 0.0
H2704 H 0.99834 0.42478 0.90818 0.0
H2705 H 0.98189 0.38121 0.97139 0.0
H2706 H 0.97788 0.38612 0.92157 0.0
H2707 H 0.96976 0.39189 0.96449 0.0
C2708 C 0.98133 0.40946 0.81551 0.0
C2709 C 0.96873 0.40761 0.815 0.0
C2710 C 0.98771 0.40951 0.85162 0.0
C2711 C 0.98156 0.4083 0.88839 0.0
C2712 C 0.9688 0.40717 0.88807 0.0
H2713 H 0.02043 0.4263 0.11122 0.0
H2714 H 0.00858 0.42761 0.04908 0.0
C2715 C 0.96244 0.40673 0.85157 0.0
C2716 C 0.98864 0.40867 0.92652 0.0
H2717 H 0.9939 0.39353 0.01438 0.0
C2718 C 0.99741 0.41787 0.93123 0.0
C2719 C 0.9875 0.39967 0.95677 0.0
C2720 C 0.97883 0.3891 0.95318 0.0
C2721 C 0.00527 0.41814 0.96445 0.0
C2722 C 0.00393 0.4093 0.99504 0.0
C2723 C 0.99496 0.4003 0.99092 0.0
C2724 C 0.01186 0.40895 0.03119 0.0
C2725 C 0.0152 0.4276 0.96541 0.0
C2726 C 0.01753 0.39801 0.04225 0.0
C2727 C 0.02398 0.39717 0.07827 0.0
C2728 C 0.0251 0.40733 0.10349 0.0
C2729 C 0.01989 0.41842 0.09176 0.0
C2730 C 0.01315 0.41918 0.0562 0.0
H2731 H 0.01745 0.43089 0.9347 0.0
H2732 H 0.01205 0.43555 0.98313 0.0
H2733 H 0.02361 0.424 0.97941 0.0
H2734 H 0.01671 0.39 0.0235 0.0
H2735 H 0.02787 0.38851 0.08686 0.0
H2736 H 0.34343 0.76368 0.96356 0.0
H2737 H 0.34484 0.75213 0.9015 0.0
H2738 H 0.35068 0.78543 0.83545 0.0
H2739 H 0.35064 0.79686 0.89893 0.0
H2740 H 0.33133 0.75152 0.84268 0.0
H2741 H 0.37602 0.76597 0.7835 0.0
H2742 H 0.37094 0.77005 0.83312 0.0
H2743 H 0.36608 0.77872 0.79006 0.0
C2744 C 0.34561 0.76846 0.93602 0.0
C2745 C 0.34767 0.78103 0.93621 0.0
C2746 C 0.34616 0.76188 0.90034 0.0
C2747 C 0.34816 0.76781 0.86356 0.0
C2748 C 0.34965 0.78053 0.86345 0.0
H2749 H 0.32755 0.73158 0.64017 0.0
H2750 H 0.32772 0.74302 0.70319 0.0
C2751 C 0.3495 0.78709 0.8996 0.0
C2752 C 0.34792 0.76063 0.82562 0.0
H2753 H 0.3631 0.75533 0.73786 0.0
C2754 C 0.33838 0.75228 0.82002 0.0
C2755 C 0.35714 0.76146 0.79602 0.0
C2756 C 0.36818 0.76944 0.80115 0.0
C2757 C 0.33786 0.7447 0.78619 0.0
C2758 C 0.34673 0.74598 0.75563 0.0
C2759 C 0.35623 0.75437 0.76105 0.0
C2760 C 0.34642 0.73871 0.71794 0.0
C2761 C 0.32803 0.73514 0.78453 0.0
C2762 C 0.35697 0.73278 0.70433 0.0
C2763 C 0.35699 0.72663 0.66759 0.0
C2764 C 0.34638 0.72604 0.64428 0.0
C2765 C 0.33575 0.73168 0.65818 0.0
C2766 C 0.33584 0.73817 0.69431 0.0
H2767 H 0.32502 0.73249 0.8152 0.0
H2768 H 0.32001 0.73887 0.76855 0.0
H2769 H 0.33116 0.72684 0.76861 0.0
H2770 H 0.36526 0.73305 0.72187 0.0
H2771 H 0.36531 0.7224 0.65722 0.0
H2772 H 0.98821 0.594 0.7116 0.0
H2773 H 0.99936 0.59575 0.64834 0.0
H2774 H 0.96584 0.60323 0.58586 0.0
H2775 H 0.95465 0.60184 0.64981 0.0
H2776 H 0.98071 0.58354 0.55351 0.0
H2777 H 0.00697 0.62608 0.57733 0.0
H2778 H 0.00711 0.61542 0.61831 0.0
H2779 H 0.99309 0.62267 0.60403 0.0
C2780 C 0.98329 0.59654 0.68468 0.0
C2781 C 0.97066 0.59828 0.68573 0.0
C2782 C 0.98965 0.5974 0.6485 0.0
C2783 C 0.98343 0.59975 0.61255 0.0
C2784 C 0.97079 0.6015 0.61342 0.0
H2785 H 0.0138 0.61584 0.38088 0.0
H2786 H 0.00302 0.61544 0.44462 0.0
C2787 C 0.96444 0.60076 0.64982 0.0
C2788 C 0.99009 0.59957 0.57388 0.0
H2789 H 0.01253 0.614 0.52163 0.0
C2790 C 0.98764 0.59021 0.54636 0.0
C2791 C 0.99908 0.6083 0.5647 0.0
C2792 C 0.0017 0.61877 0.59244 0.0
C2793 C 0.99405 0.58933 0.50994 0.0
C2794 C 0.00323 0.59793 0.50126 0.0
C2795 C 0.00559 0.60733 0.52865 0.0
C2796 C 0.00997 0.5979 0.46277 0.0
C2797 C 0.9908 0.57936 0.48071 0.0
C2798 C 0.01764 0.58822 0.45213 0.0
C2799 C 0.02389 0.58839 0.41543 0.0
C2800 C 0.02257 0.59828 0.38893 0.0
C2801 C 0.01504 0.60805 0.40033 0.0
C2802 C 0.00884 0.60785 0.43682 0.0
H2803 H 0.98192 0.57509 0.48809 0.0
H2804 H 0.99041 0.58293 0.4495 0.0
H2805 H 0.99789 0.5722 0.48176 0.0
H2806 H 0.01879 0.58055 0.47219 0.0
H2807 H 0.0296 0.58073 0.40764 0.0
H2808 H 0.13608 0.26498 0.13349 0.0
H2809 H 0.13807 0.25388 0.19642 0.0
H2810 H 0.17548 0.26514 0.20598 0.0
H2811 H 0.17366 0.27632 0.14238 0.0
H2812 H 0.17065 0.23915 0.21924 0.0
H2813 H 0.1411 0.26958 0.30977 0.0
H2814 H 0.13459 0.26468 0.26296 0.0
H2815 H 0.14783 0.27424 0.26268 0.0
C2816 C 0.14475 0.2652 0.14892 0.0
C2817 C 0.15471 0.27161 0.13285 0.0
C2818 C 0.14584 0.25884 0.18496 0.0
C2819 C 0.15689 0.25877 0.20583 0.0
C2820 C 0.16687 0.26513 0.19018 0.0
H2821 H 0.16433 0.23531 0.45199 0.0
H2822 H 0.16437 0.24626 0.38829 0.0
C2823 C 0.16578 0.27157 0.15403 0.0
C2824 C 0.15789 0.25196 0.24396 0.0
H2825 H 0.14648 0.25076 0.33889 0.0
C2826 C 0.16539 0.24166 0.24556 0.0
C2827 C 0.15111 0.25536 0.27818 0.0
C2828 C 0.14328 0.26663 0.27863 0.0
C2829 C 0.1661 0.2345 0.2805 0.0
C2830 C 0.15895 0.23766 0.31432 0.0
C2831 C 0.1517 0.24815 0.31277 0.0
C2832 C 0.15923 0.23066 0.35243 0.0
C2833 C 0.17469 0.22381 0.28113 0.0
C2834 C 0.15627 0.21822 0.35362 0.0
C2835 C 0.15634 0.21189 0.39023 0.0
C2836 C 0.15899 0.21806 0.42607 0.0
C2837 C 0.16197 0.23044 0.42475 0.0
C2838 C 0.16206 0.23669 0.38837 0.0
H2839 H 0.18182 0.22464 0.25762 0.0
H2840 H 0.17917 0.22291 0.31088 0.0
H2841 H 0.16949 0.21536 0.27516 0.0
H2842 H 0.15378 0.21344 0.32639 0.0
H2843 H 0.15412 0.2023 0.3907 0.0
H2844 H 0.54542 0.39669 0.14036 0.0
H2845 H 0.53416 0.39572 0.07626 0.0
H2846 H 0.50183 0.40837 0.13664 0.0
H2847 H 0.51294 0.40929 0.19993 0.0
H2848 H 0.49751 0.38881 0.08662 0.0
H2849 H 0.52343 0.42533 0.00917 0.0
H2850 H 0.53237 0.41297 0.02852 0.0
H2851 H 0.52442 0.42279 0.06271 0.0
C2852 C 0.5359 0.39918 0.13966 0.0
C2853 C 0.52992 0.40276 0.17496 0.0
C2854 C 0.52951 0.39869 0.10322 0.0
C2855 C 0.51719 0.40206 0.10177 0.0
C2856 C 0.5113 0.4057 0.13712 0.0
H2857 H 0.47114 0.42163 0.89981 0.0
H2858 H 0.48238 0.42122 0.96351 0.0
C2859 C 0.51764 0.40614 0.17326 0.0
C2860 C 0.51024 0.40194 0.06371 0.0
H2861 H 0.50793 0.41561 0.97186 0.0
C2862 C 0.49984 0.39459 0.06144 0.0
C2863 C 0.51315 0.40973 0.03129 0.0
C2864 C 0.52388 0.41825 0.03294 0.0
C2865 C 0.49231 0.39472 0.02751 0.0
C2866 C 0.49533 0.40235 0.99483 0.0
C2867 C 0.50568 0.40977 0.99707 0.0
C2868 C 0.48803 0.40247 0.95757 0.0
C2869 C 0.48105 0.38688 0.02723 0.0
C2870 C 0.48746 0.39205 0.93352 0.0
C2871 C 0.48106 0.39223 0.89738 0.0
C2872 C 0.47514 0.40288 0.88441 0.0
C2873 C 0.47552 0.41327 0.90903 0.0
C2874 C 0.48199 0.41308 0.94526 0.0
H2875 H 0.47845 0.38395 0.05803 0.0
H2876 H 0.47328 0.39179 0.01349 0.0
H2877 H 0.48282 0.37861 0.00905 0.0
H2878 H 0.49218 0.38383 0.94231 0.0
H2879 H 0.48097 0.38406 0.87924 0.0
H2880 H 0.14915 0.32562 0.08074 0.0
H2881 H 0.1378 0.34301 0.10787 0.0
H2882 H 0.10422 0.32684 0.06798 0.0
H2883 H 0.11536 0.30954 0.04084 0.0
H2884 H 0.10715 0.35279 0.051 0.0
H2885 H 0.11567 0.34014 0.21083 0.0
H2886 H 0.12856 0.34129 0.17767 0.0
H2887 H 0.11762 0.32943 0.1702 0.0
C2888 C 0.13936 0.32582 0.07744 0.0
C2889 C 0.13317 0.31612 0.05885 0.0
C2890 C 0.13289 0.33573 0.09312 0.0
C2891 C 0.12017 0.33613 0.09024 0.0
C2892 C 0.11404 0.32668 0.07059 0.0
H2893 H 0.05935 0.36666 0.20484 0.0
H2894 H 0.07657 0.35494 0.1798 0.0
C2895 C 0.12044 0.31677 0.05522 0.0
C2896 C 0.11304 0.34612 0.10861 0.0
H2897 H 0.10238 0.35644 0.19887 0.0
C2898 C 0.10626 0.35376 0.08333 0.0
C2899 C 0.11184 0.34726 0.15079 0.0
C2900 C 0.11873 0.33909 0.17918 0.0
C2901 C 0.09799 0.36225 0.09911 0.0
C2902 C 0.09653 0.36314 0.14127 0.0
C2903 C 0.1036 0.35578 0.16658 0.0
C2904 C 0.08671 0.3706 0.15931 0.0
C2905 C 0.09041 0.36975 0.07059 0.0
C2906 C 0.08683 0.38334 0.15692 0.0
C2907 C 0.07697 0.39012 0.17138 0.0
C2908 C 0.0668 0.38425 0.18824 0.0
C2909 C 0.06696 0.3715 0.19175 0.0
C2910 C 0.07682 0.36477 0.17758 0.0
H2911 H 0.09152 0.36683 0.03882 0.0
H2912 H 0.08064 0.36913 0.07876 0.0
H2913 H 0.09315 0.37943 0.07288 0.0
H2914 H 0.09445 0.38801 0.14328 0.0
H2915 H 0.07716 0.39992 0.16824 0.0
H2916 H 0.88611 0.80853 0.45135 0.0
H2917 H 0.89757 0.82567 0.42451 0.0
H2918 H 0.86434 0.84227 0.38346 0.0
H2919 H 0.85268 0.82507 0.41036 0.0
H2920 H 0.88365 0.84093 0.3244 0.0
H2921 H 0.89928 0.86095 0.46837 0.0
H2922 H 0.90179 0.84485 0.46463 0.0
H2923 H 0.88652 0.85065 0.46525 0.0
C2924 C 0.88118 0.81584 0.43686 0.0
C2925 C 0.86844 0.81539 0.43308 0.0
C2926 C 0.88776 0.82568 0.42173 0.0
C2927 C 0.8818 0.83531 0.40242 0.0
C2928 C 0.8691 0.83496 0.39852 0.0
H2929 H 0.92479 0.89936 0.33208 0.0
H2930 H 0.90779 0.88692 0.35622 0.0
C2931 C 0.86246 0.82513 0.414 0.0
C2932 C 0.88902 0.84541 0.38488 0.0
H2933 H 0.91009 0.86699 0.40913 0.0
C2934 C 0.88929 0.84677 0.34291 0.0
C2935 C 0.89627 0.8531 0.40908 0.0
C2936 C 0.8959 0.85242 0.45437 0.0
C2937 C 0.89713 0.85518 0.32444 0.0
C2938 C 0.90494 0.86234 0.34857 0.0
C2939 C 0.90417 0.86143 0.39061 0.0
C2940 C 0.91458 0.87013 0.3309 0.0
C2941 C 0.89712 0.85621 0.27921 0.0
C2942 C 0.92401 0.86484 0.30856 0.0
C2943 C 0.93374 0.87188 0.29491 0.0
C2944 C 0.93428 0.88441 0.30332 0.0
C2945 C 0.92465 0.88977 0.32484 0.0
C2946 C 0.91494 0.88267 0.33877 0.0
H2947 H 0.88841 0.85296 0.26616 0.0
H2948 H 0.89868 0.86574 0.26951 0.0
H2949 H 0.90454 0.85051 0.26679 0.0
H2950 H 0.92405 0.85515 0.30274 0.0
H2951 H 0.94097 0.86743 0.27841 0.0
H2952 H 0.35118 0.67363 0.58324 0.0
H2953 H 0.36337 0.65654 0.60817 0.0
H2954 H 0.39578 0.67331 0.56094 0.0
H2955 H 0.38377 0.69031 0.53581 0.0
H2956 H 0.39381 0.64732 0.54738 0.0
H2957 H 0.38649 0.66093 0.70696 0.0
H2958 H 0.37322 0.65878 0.67618 0.0
H2959 H 0.38341 0.67109 0.66558 0.0
C2960 C 0.36088 0.6736 0.57768 0.0
C2961 C 0.3665 0.68342 0.55783 0.0
C2962 C 0.36783 0.66386 0.59214 0.0
C2963 C 0.38049 0.66375 0.58682 0.0
C2964 C 0.38603 0.67324 0.56547 0.0
H2965 H 0.44306 0.63601 0.69925 0.0
H2966 H 0.42552 0.64701 0.67325 0.0
C2967 C 0.37913 0.68299 0.55125 0.0
C2968 C 0.38819 0.65416 0.60507 0.0
H2969 H 0.39996 0.64479 0.69494 0.0
C2970 C 0.39502 0.64659 0.57966 0.0
C2971 C 0.38981 0.65335 0.64719 0.0
C2972 C 0.38293 0.66149 0.67576 0.0
C2973 C 0.4037 0.63849 0.59522 0.0
C2974 C 0.40554 0.63792 0.63728 0.0
C2975 C 0.39844 0.6452 0.66274 0.0
C2976 C 0.41572 0.6309 0.65499 0.0
C2977 C 0.41128 0.63104 0.56656 0.0
C2978 C 0.41593 0.61814 0.65402 0.0
C2979 C 0.42598 0.61176 0.66906 0.0
C2980 C 0.43602 0.61806 0.68509 0.0
C2981 C 0.43557 0.63084 0.68686 0.0
C2982 C 0.42552 0.63716 0.67212 0.0
H2983 H 0.40977 0.63367 0.53469 0.0
H2984 H 0.42109 0.63209 0.57365 0.0
H2985 H 0.40893 0.62129 0.56998 0.0
H2986 H 0.40838 0.61314 0.64126 0.0
H2987 H 0.42601 0.60193 0.66725 0.0
H2988 H 0.61595 0.19611 0.93897 0.0
H2989 H 0.60339 0.17982 0.91188 0.0
H2990 H 0.63459 0.15619 0.9071 0.0
H2991 H 0.64737 0.17251 0.93426 0.0
H2992 H 0.60834 0.16747 0.83441 0.0
H2993 H 0.60692 0.13627 0.96637 0.0
H2994 H 0.61036 0.15225 0.97155 0.0
H2995 H 0.62145 0.14213 0.95063 0.0
C2996 C 0.6202 0.18745 0.9325 0.0
C2997 C 0.63273 0.18568 0.93879 0.0
C2998 C 0.61297 0.17814 0.91696 0.0
C2999 C 0.61804 0.1668 0.90768 0.0
C3000 C 0.63048 0.16486 0.91446 0.0
H3001 H 0.57772 0.10347 0.81476 0.0
H3002 H 0.59427 0.11643 0.83942 0.0
C3003 C 0.63777 0.17422 0.92988 0.0
C3004 C 0.61029 0.15729 0.88928 0.0
H3005 H 0.59558 0.13061 0.90932 0.0
C3006 C 0.60563 0.15936 0.85063 0.0
C3007 C 0.60687 0.14666 0.91037 0.0
C3008 C 0.61157 0.14413 0.95213 0.0
C3009 C 0.59741 0.15122 0.83281 0.0
C3010 C 0.59351 0.14089 0.85464 0.0
C3011 C 0.59854 0.13856 0.8927 0.0
C3012 C 0.58359 0.13293 0.83961 0.0
C3013 C 0.59294 0.15382 0.79077 0.0
C3014 C 0.57206 0.13787 0.83215 0.0
C3015 C 0.56262 0.13054 0.81803 0.0
C3016 C 0.56444 0.11803 0.81134 0.0
C3017 C 0.57599 0.11306 0.81937 0.0
C3018 C 0.58546 0.12044 0.83353 0.0
H3019 H 0.5995 0.15956 0.77384 0.0
H3020 H 0.59139 0.14529 0.77371 0.0
H3021 H 0.58422 0.15885 0.79251 0.0
H3022 H 0.57031 0.14742 0.8375 0.0
H3023 H 0.55388 0.13473 0.81248 0.0
H3024 H 0.05961 0.63505 0.28624 0.0
H3025 H 0.07673 0.64678 0.31209 0.0
H3026 H 0.09325 0.61395 0.35698 0.0
H3027 H 0.07609 0.60205 0.33114 0.0
H3028 H 0.09106 0.63331 0.41451 0.0
H3029 H 0.1124 0.64889 0.27253 0.0
H3030 H 0.09625 0.65122 0.27434 0.0
H3031 H 0.10222 0.63601 0.27478 0.0
C3032 C 0.06694 0.63026 0.30118 0.0
C3033 C 0.06645 0.61759 0.30663 0.0
C3034 C 0.07676 0.63699 0.31573 0.0
C3035 C 0.08631 0.63122 0.33608 0.0
C3036 C 0.08599 0.61856 0.3411 0.0
H3037 H 0.14878 0.67516 0.41551 0.0
H3038 H 0.13702 0.65785 0.38996 0.0
C3039 C 0.0762 0.61178 0.32621 0.0
C3040 C 0.09612 0.6386 0.35444 0.0
H3041 H 0.11762 0.65995 0.3322 0.0
C3042 C 0.09701 0.63899 0.39653 0.0
C3043 C 0.10396 0.64591 0.33094 0.0
C3044 C 0.10377 0.64543 0.28561 0.0
C3045 C 0.10508 0.647 0.41576 0.0
C3046 C 0.11237 0.65485 0.39226 0.0
C3047 C 0.11196 0.65398 0.35017 0.0
C3048 C 0.11969 0.66471 0.41062 0.0
C3049 C 0.10556 0.64718 0.46108 0.0
C3050 C 0.11384 0.67425 0.43079 0.0
C3051 C 0.12049 0.68415 0.44514 0.0
C3052 C 0.13316 0.68472 0.4397 0.0
C3053 C 0.13906 0.67498 0.42043 0.0
C3054 C 0.13235 0.6651 0.4057 0.0
H3055 H 0.10214 0.63854 0.47416 0.0
H3056 H 0.11498 0.64876 0.47189 0.0
H3057 H 0.09976 0.65469 0.47239 0.0
H3058 H 0.10405 0.67422 0.43436 0.0
H3059 H 0.11564 0.69147 0.45987 0.0
H3060 H 0.65041 0.82318 0.58212 0.0
H3061 H 0.63892 0.84045 0.60946 0.0
H3062 H 0.60546 0.82398 0.56992 0.0
H3063 H 0.61673 0.80681 0.54262 0.0
H3064 H 0.60808 0.84986 0.55262 0.0
H3065 H 0.61688 0.83764 0.71262 0.0
H3066 H 0.62975 0.83885 0.6794 0.0
H3067 H 0.61892 0.82688 0.67217 0.0
C3068 C 0.64062 0.82328 0.57896 0.0
C3069 C 0.63451 0.81354 0.56039 0.0
C3070 C 0.63407 0.83313 0.59478 0.0
C3071 C 0.62134 0.83342 0.59204 0.0
C3072 C 0.61528 0.82391 0.57245 0.0
H3073 H 0.56092 0.86524 0.7088 0.0
H3074 H 0.5777 0.85296 0.68328 0.0
C3075 C 0.62176 0.81407 0.55696 0.0
C3076 C 0.61412 0.84339 0.6103 0.0
H3077 H 0.60362 0.85397 0.70046 0.0
C3078 C 0.60724 0.85092 0.58493 0.0
C3079 C 0.61297 0.84463 0.65246 0.0
C3080 C 0.61994 0.83656 0.68097 0.0
C3081 C 0.59899 0.85944 0.6006 0.0
C3082 C 0.59764 0.86049 0.64277 0.0
C3083 C 0.60475 0.85319 0.66816 0.0
C3084 C 0.58804 0.86824 0.66083 0.0
C3085 C 0.59135 0.86684 0.57198 0.0
C3086 C 0.58841 0.88095 0.65747 0.0
C3087 C 0.5788 0.88805 0.67215 0.0
C3088 C 0.56863 0.88254 0.6903 0.0
C3089 C 0.56853 0.86981 0.69472 0.0
C3090 C 0.57815 0.86276 0.68028 0.0
H3091 H 0.59221 0.86365 0.54041 0.0
H3092 H 0.58163 0.86646 0.58084 0.0
H3093 H 0.59428 0.87648 0.57322 0.0
H3094 H 0.59604 0.88537 0.64295 0.0
H3095 H 0.57921 0.89782 0.66828 0.0
H3096 H 0.43812 0.36748 0.77756 0.0
H3097 H 0.42119 0.35569 0.80417 0.0
H3098 H 0.40501 0.38837 0.85157 0.0
H3099 H 0.42205 0.40033 0.82525 0.0
H3100 H 0.40705 0.36973 0.90814 0.0
H3101 H 0.38576 0.35251 0.76858 0.0
H3102 H 0.40187 0.34994 0.7699 0.0
H3103 H 0.39612 0.36525 0.76891 0.0
C3104 C 0.4309 0.37224 0.79315 0.0
C3105 C 0.4315 0.38488 0.79931 0.0
C3106 C 0.42116 0.36546 0.80811 0.0
C3107 C 0.41175 0.37115 0.82946 0.0
C3108 C 0.41213 0.3838 0.83493 0.0
H3109 H 0.35044 0.3263 0.91378 0.0
H3110 H 0.36186 0.3433 0.88465 0.0
C3111 C 0.42187 0.39063 0.81974 0.0
C3112 C 0.40213 0.36368 0.84874 0.0
H3113 H 0.38121 0.3415 0.8293 0.0
C3114 C 0.40126 0.3637 0.89087 0.0
C3115 C 0.39446 0.35592 0.82623 0.0
C3116 C 0.39449 0.35597 0.78088 0.0
C3117 C 0.39342 0.35569 0.91114 0.0
C3118 C 0.38636 0.34735 0.8887 0.0
C3119 C 0.38672 0.3478 0.84652 0.0
C3120 C 0.37924 0.33755 0.90838 0.0
C3121 C 0.3929 0.3561 0.95645 0.0
C3122 C 0.38521 0.32867 0.93131 0.0
C3123 C 0.37875 0.31895 0.94785 0.0
C3124 C 0.36614 0.31785 0.94177 0.0
C3125 C 0.36013 0.32688 0.91927 0.0
C3126 C 0.36664 0.33659 0.9025 0.0
H3127 H 0.39584 0.36508 0.96818 0.0
H3128 H 0.38358 0.35416 0.96755 0.0
H3129 H 0.39912 0.3491 0.96887 0.0
H3130 H 0.39496 0.3291 0.93563 0.0
H3131 H 0.38371 0.3122 0.96497 0.0
H3132 H 0.88546 0.19245 0.04243 0.0
H3133 H 0.89732 0.17523 0.06696 0.0
H3134 H 0.8645 0.15764 0.10721 0.0
H3135 H 0.85246 0.17487 0.08251 0.0
H3136 H 0.88409 0.15969 0.16643 0.0
H3137 H 0.89954 0.13982 0.02186 0.0
H3138 H 0.90143 0.15601 0.02546 0.0
H3139 H 0.8864 0.14962 0.02565 0.0
C3140 C 0.88071 0.18488 0.05612 0.0
C3141 C 0.86799 0.18506 0.06049 0.0
C3142 C 0.88751 0.17501 0.06993 0.0
C3143 C 0.88177 0.16512 0.08853 0.0
C3144 C 0.86908 0.16516 0.09266 0.0
H3145 H 0.92624 0.10227 0.16296 0.0
H3146 H 0.90869 0.11399 0.13885 0.0
C3147 C 0.86223 0.175 0.07844 0.0
C3148 C 0.88921 0.15516 0.10576 0.0
H3149 H 0.91059 0.13396 0.08078 0.0
C3150 C 0.88973 0.15391 0.14772 0.0
C3151 C 0.89648 0.14757 0.08128 0.0
C3152 C 0.89589 0.14821 0.03602 0.0
C3153 C 0.89785 0.14573 0.16591 0.0
C3154 C 0.90565 0.13867 0.14147 0.0
C3155 C 0.90464 0.13942 0.09947 0.0
C3156 C 0.91567 0.13135 0.15881 0.0
C3157 C 0.89825 0.1449 0.21116 0.0
C3158 C 0.92537 0.13723 0.17803 0.0
C3159 C 0.9354 0.13062 0.19145 0.0
C3160 C 0.93596 0.11794 0.18609 0.0
C3161 C 0.92607 0.112 0.16779 0.0
C3162 C 0.91606 0.11868 0.1539 0.0
H3163 H 0.88971 0.14831 0.22501 0.0
H3164 H 0.89978 0.13538 0.22106 0.0
H3165 H 0.90588 0.15053 0.22252 0.0
H3166 H 0.92533 0.14702 0.18161 0.0
H3167 H 0.94283 0.13549 0.20546 0.0
H3168 H 0.85127 0.6751 0.91317 0.0
H3169 H 0.86327 0.65804 0.88718 0.0
H3170 H 0.89606 0.67498 0.93057 0.0
H3171 H 0.88423 0.69203 0.9565 0.0
H3172 H 0.88295 0.66006 0.82922 0.0
H3173 H 0.89784 0.63937 0.97315 0.0
H3174 H 0.88491 0.64945 0.96963 0.0
H3175 H 0.90006 0.65553 0.9703 0.0
C3176 C 0.86102 0.67514 0.91759 0.0
C3177 C 0.86677 0.68497 0.93696 0.0
C3178 C 0.86786 0.66539 0.90263 0.0
C3179 C 0.88053 0.66519 0.90734 0.0
C3180 C 0.88627 0.67487 0.92714 0.0
H3181 H 0.94112 0.63463 0.78913 0.0
H3182 H 0.92384 0.64648 0.81294 0.0
C3183 C 0.87948 0.68466 0.94175 0.0
C3184 C 0.88792 0.65524 0.88978 0.0
H3185 H 0.90885 0.63353 0.91417 0.0
C3186 C 0.88847 0.65412 0.84777 0.0
C3187 C 0.89502 0.64743 0.91403 0.0
C3188 C 0.89438 0.64789 0.95931 0.0
C3189 C 0.89644 0.64583 0.82936 0.0
C3190 C 0.90407 0.63853 0.8536 0.0
C3191 C 0.90304 0.63918 0.89562 0.0
C3192 C 0.91393 0.63101 0.83609 0.0
C3193 C 0.89683 0.64512 0.78408 0.0
C3194 C 0.9141 0.61834 0.84116 0.0
C3195 C 0.92399 0.61147 0.82731 0.0
C3196 C 0.93397 0.61722 0.80887 0.0
C3197 C 0.93361 0.62989 0.80324 0.0
C3198 C 0.9237 0.6367 0.81664 0.0
H3199 H 0.88834 0.64869 0.77036 0.0
H3200 H 0.90453 0.65069 0.77288 0.0
H3201 H 0.89823 0.63561 0.77388 0.0
H3202 H 0.90667 0.6138 0.85637 0.0
H3203 H 0.92402 0.60175 0.83236 0.0
H3204 H 0.15105 0.1743 0.57962 0.0
H3205 H 0.13942 0.15707 0.60635 0.0
H3206 H 0.10651 0.17228 0.55728 0.0
H3207 H 0.11796 0.1894 0.53037 0.0
H3208 H 0.12016 0.15882 0.66214 0.0
H3209 H 0.10489 0.13658 0.52163 0.0
H3210 H 0.11738 0.14724 0.52296 0.0
H3211 H 0.10194 0.15263 0.52225 0.0
C3212 C 0.14137 0.17387 0.57391 0.0
C3213 C 0.13545 0.18327 0.55284 0.0
C3214 C 0.13474 0.16404 0.58933 0.0
C3215 C 0.12212 0.16332 0.58342 0.0
C3216 C 0.11626 0.17252 0.5616 0.0
H3217 H 0.06262 0.13396 0.71225 0.0
H3218 H 0.07975 0.14553 0.68584 0.0
C3219 C 0.12284 0.18237 0.54645 0.0
C3220 C 0.11484 0.1535 0.60236 0.0
H3221 H 0.09358 0.13178 0.58144 0.0
C3222 C 0.1145 0.15277 0.6445 0.0
C3223 C 0.10756 0.1455 0.57936 0.0
C3224 C 0.10803 0.14542 0.53403 0.0
C3225 C 0.10657 0.14472 0.66424 0.0
C3226 C 0.0987 0.13731 0.64122 0.0
C3227 C 0.09954 0.13755 0.59909 0.0
C3228 C 0.0889 0.12997 0.66005 0.0
C3229 C 0.10654 0.14437 0.70958 0.0
C3230 C 0.0883 0.11734 0.6542 0.0
C3231 C 0.07846 0.11065 0.66931 0.0
C3232 C 0.06896 0.1165 0.69003 0.0
C3233 C 0.06975 0.12913 0.69644 0.0
C3234 C 0.07959 0.13577 0.68158 0.0
H3235 H 0.11532 0.14761 0.72212 0.0
H3236 H 0.09926 0.15044 0.72099 0.0
H3237 H 0.10476 0.13504 0.72086 0.0
H3238 H 0.09534 0.1127 0.63742 0.0
H3239 H 0.07812 0.10096 0.66361 0.0
H3240 H 0.55692 0.36433 0.29007 0.0
H3241 H 0.57398 0.35283 0.31724 0.0
H3242 H 0.59072 0.38607 0.3577 0.0
H3243 H 0.57358 0.39777 0.33045 0.0
H3244 H 0.60025 0.3556 0.3006 0.0
H3245 H 0.58703 0.36356 0.46028 0.0
H3246 H 0.57644 0.3656 0.41934 0.0
H3247 H 0.58827 0.37653 0.4275 0.0
C3248 C 0.56423 0.36925 0.30455 0.0
C3249 C 0.56381 0.38199 0.3083 0.0
C3250 C 0.574 0.36265 0.31995 0.0
C3251 C 0.58354 0.36859 0.33976 0.0
C3252 C 0.58337 0.38132 0.34278 0.0
H3253 H 0.64723 0.32599 0.41977 0.0
H3254 H 0.63508 0.34306 0.39448 0.0
C3255 C 0.57361 0.38798 0.32703 0.0
C3256 C 0.59338 0.36127 0.35819 0.0
H3257 H 0.6033 0.35021 0.4484 0.0
C3258 C 0.60108 0.35456 0.33292 0.0
C3259 C 0.59433 0.35987 0.40035 0.0
C3260 C 0.58607 0.36669 0.42868 0.0
C3261 C 0.6095 0.34622 0.34869 0.0
C3262 C 0.61023 0.3446 0.39081 0.0
C3263 C 0.60277 0.35155 0.41614 0.0
C3264 C 0.61776 0.33483 0.40876 0.0
C3265 C 0.61714 0.33877 0.32019 0.0
C3266 C 0.61204 0.32471 0.42605 0.0
C3267 C 0.61891 0.31496 0.44039 0.0
C3268 C 0.63169 0.31515 0.43804 0.0
C3269 C 0.63742 0.32552 0.42203 0.0
C3270 C 0.6305 0.33527 0.4074 0.0
H3271 H 0.61436 0.34002 0.28834 0.0
H3272 H 0.62681 0.3415 0.32313 0.0
H3273 H 0.61648 0.32897 0.32787 0.0
H3274 H 0.60222 0.32422 0.42746 0.0
H3275 H 0.61417 0.30719 0.45278 0.0
H3276 H 0.38703 0.80923 0.04309 0.0
H3277 H 0.39901 0.82614 0.06894 0.0
H3278 H 0.3664 0.8434 0.11249 0.0
H3279 H 0.35421 0.8264 0.08663 0.0
H3280 H 0.39697 0.85226 0.05328 0.0
H3281 H 0.38927 0.83927 0.21326 0.0
H3282 H 0.38658 0.82884 0.1723 0.0
H3283 H 0.37613 0.84103 0.18154 0.0
C3284 C 0.38234 0.81664 0.05789 0.0
C3285 C 0.36964 0.81639 0.06304 0.0
C3286 C 0.38922 0.82633 0.07256 0.0
C3287 C 0.38361 0.83594 0.093 0.0
C3288 C 0.37091 0.83599 0.09713 0.0
H3289 H 0.42683 0.89937 0.16986 0.0
H3290 H 0.40989 0.88704 0.14481 0.0
C3291 C 0.36396 0.8263 0.08213 0.0
C3292 C 0.39126 0.8456 0.11111 0.0
H3293 H 0.40268 0.85548 0.20091 0.0
C3294 C 0.39809 0.85312 0.08556 0.0
C3295 C 0.39279 0.84657 0.15322 0.0
C3296 C 0.38588 0.83848 0.18189 0.0
C3297 C 0.40662 0.8614 0.101 0.0
C3298 C 0.40831 0.86221 0.14309 0.0
C3299 C 0.40129 0.85489 0.16868 0.0
C3300 C 0.41806 0.86983 0.16079 0.0
C3301 C 0.41416 0.86884 0.07216 0.0
C3302 C 0.4281 0.86425 0.17905 0.0
C3303 C 0.43779 0.87123 0.19334 0.0
C3304 C 0.43761 0.88399 0.18995 0.0
C3305 C 0.4273 0.88958 0.17294 0.0
C3306 C 0.41763 0.88256 0.15841 0.0
H3307 H 0.41303 0.86581 0.04051 0.0
H3308 H 0.41138 0.87852 0.07416 0.0
H3309 H 0.42394 0.86829 0.08023 0.0
H3310 H 0.42859 0.85443 0.18129 0.0
H3311 H 0.44551 0.8666 0.20649 0.0
H3312 H 0.94089 0.36577 0.71271 0.0
H3313 H 0.92412 0.3536 0.68664 0.0
H3314 H 0.90724 0.3859 0.63908 0.0
H3315 H 0.92408 0.39824 0.66503 0.0
H3316 H 0.89801 0.3555 0.69949 0.0
H3317 H 0.91213 0.36266 0.54035 0.0
H3318 H 0.92216 0.36572 0.58211 0.0
H3319 H 0.90996 0.37599 0.57088 0.0
C3320 C 0.93359 0.37034 0.69699 0.0
C3321 C 0.93391 0.38299 0.69068 0.0
C3322 C 0.92398 0.36336 0.68221 0.0
C3323 C 0.91453 0.36883 0.66052 0.0
C3324 C 0.91454 0.38149 0.65537 0.0
H3325 H 0.85117 0.32627 0.57941 0.0
H3326 H 0.86361 0.34286 0.60637 0.0
C3327 C 0.92413 0.38853 0.67043 0.0
C3328 C 0.90502 0.36108 0.64199 0.0
H3329 H 0.89555 0.34963 0.55177 0.0
C3330 C 0.89733 0.35432 0.66718 0.0
C3331 C 0.9043 0.35948 0.59984 0.0
C3332 C 0.9126 0.36626 0.57153 0.0
C3333 C 0.88907 0.34584 0.65136 0.0
C3334 C 0.88846 0.34412 0.60925 0.0
C3335 C 0.89599 0.35104 0.58402 0.0
C3336 C 0.88079 0.33449 0.5911 0.0
C3337 C 0.8814 0.3384 0.67982 0.0
C3338 C 0.88632 0.32444 0.57272 0.0
C3339 C 0.87927 0.31496 0.55734 0.0
C3340 C 0.8665 0.31536 0.55971 0.0
C3341 C 0.86097 0.32564 0.57709 0.0
C3342 C 0.86806 0.33511 0.59272 0.0
H3343 H 0.88431 0.33948 0.71161 0.0
H3344 H 0.87178 0.34132 0.67739 0.0
H3345 H 0.88185 0.32862 0.67174 0.0
H3346 H 0.89614 0.32382 0.57104 0.0
H3347 H 0.88387 0.30725 0.54394 0.0
H3348 H 0.38363 0.18961 0.48257 0.0
H3349 H 0.39576 0.17313 0.45431 0.0
H3350 H 0.36827 0.16693 0.36412 0.0
H3351 H 0.3557 0.18299 0.39416 0.0
H3352 H 0.3781 0.14604 0.38468 0.0
H3353 H 0.41539 0.17852 0.35602 0.0
H3354 H 0.41199 0.17775 0.40862 0.0
H3355 H 0.40072 0.18336 0.37386 0.0
C3356 C 0.38008 0.1846 0.45713 0.0
C3357 C 0.36877 0.18763 0.44033 0.0
C3358 C 0.38708 0.17525 0.44071 0.0
C3359 C 0.38317 0.16907 0.4061 0.0
C3360 C 0.37156 0.17165 0.39054 0.0
H3361 H 0.43836 0.13405 0.25991 0.0
H3362 H 0.4218 0.14686 0.28384 0.0
C3363 C 0.36437 0.1808 0.40773 0.0
C3364 C 0.39144 0.16037 0.38534 0.0
H3365 H 0.42035 0.15755 0.34954 0.0
C3366 C 0.38731 0.14857 0.37663 0.0
C3367 C 0.40336 0.16374 0.37377 0.0
C3368 C 0.40807 0.17657 0.37813 0.0
C3369 C 0.39489 0.13998 0.35769 0.0
C3370 C 0.40708 0.14313 0.3486 0.0
C3371 C 0.41108 0.15501 0.3567 0.0
C3372 C 0.41597 0.13443 0.33061 0.0
C3373 C 0.38959 0.12777 0.34684 0.0
C3374 C 0.41811 0.12296 0.34802 0.0
C3375 C 0.42736 0.11542 0.33329 0.0
C3376 C 0.43492 0.11938 0.30184 0.0
C3377 C 0.43269 0.13075 0.28414 0.0
C3378 C 0.42322 0.1381 0.29797 0.0
H3379 H 0.3796 0.12835 0.34242 0.0
H3380 H 0.39375 0.12406 0.31899 0.0
H3381 H 0.39127 0.12129 0.37182 0.0
H3382 H 0.41297 0.12002 0.374 0.0
H3383 H 0.42902 0.10678 0.3479 0.0
H3384 H 0.64802 0.67282 0.07581 0.0
H3385 H 0.63584 0.65592 0.10184 0.0
H3386 H 0.60329 0.67297 0.05697 0.0
H3387 H 0.61531 0.6898 0.03059 0.0
H3388 H 0.61734 0.65773 0.15916 0.0
H3389 H 0.59972 0.63787 0.01771 0.0
H3390 H 0.61257 0.64808 0.01891 0.0
H3391 H 0.59733 0.65398 0.02102 0.0
C3392 C 0.63829 0.6729 0.07091 0.0
C3393 C 0.63267 0.68271 0.05107 0.0
C3394 C 0.63135 0.66323 0.08592 0.0
C3395 C 0.61868 0.66311 0.08094 0.0
C3396 C 0.61307 0.67275 0.0605 0.0
H3397 H 0.56017 0.63302 0.21476 0.0
H3398 H 0.57684 0.64485 0.18645 0.0
C3399 C 0.61998 0.68243 0.04567 0.0
C3400 C 0.61115 0.65338 0.09942 0.0
H3401 H 0.58908 0.63251 0.07824 0.0
C3402 C 0.61129 0.65209 0.14143 0.0
C3403 C 0.60337 0.64591 0.07627 0.0
C3404 C 0.6033 0.64642 0.03094 0.0
C3405 C 0.60341 0.64396 0.16101 0.0
C3406 C 0.59509 0.63705 0.13801 0.0
C3407 C 0.59539 0.63789 0.09589 0.0
C3408 C 0.58546 0.62956 0.15713 0.0
C3409 C 0.60395 0.64296 0.20621 0.0
C3410 C 0.58469 0.61702 0.1498 0.0
C3411 C 0.57512 0.61017 0.16599 0.0
C3412 C 0.56604 0.6158 0.18933 0.0
C3413 C 0.56697 0.62836 0.19694 0.0
C3414 C 0.57655 0.63515 0.18098 0.0
H3415 H 0.61292 0.64592 0.21803 0.0
H3416 H 0.59689 0.64892 0.21958 0.0
H3417 H 0.6022 0.63349 0.21624 0.0
H3418 H 0.59143 0.61255 0.13123 0.0
H3419 H 0.57466 0.60055 0.15932 0.0
H3420 H 0.07648 0.9004 0.83267 0.0
H3421 H 0.09424 0.88922 0.85774 0.0
H3422 H 0.07786 0.85547 0.82046 0.0
H3423 H 0.06016 0.86645 0.79548 0.0
H3424 H 0.09347 0.87042 0.91826 0.0
H3425 H 0.11293 0.85381 0.77467 0.0
H3426 H 0.10252 0.8665 0.77724 0.0
H3427 H 0.09688 0.85117 0.77938 0.0
C3428 C 0.07673 0.89061 0.82932 0.0
C3429 C 0.06687 0.88433 0.81206 0.0
C3430 C 0.08687 0.88425 0.84375 0.0
C3431 C 0.08742 0.87154 0.84054 0.0
C3432 C 0.07771 0.86529 0.82266 0.0
H3433 H 0.11854 0.81278 0.96476 0.0
H3434 H 0.10684 0.83003 0.94001 0.0
C3435 C 0.06755 0.8716 0.80862 0.0
C3436 C 0.0977 0.8646 0.85803 0.0
H3437 H 0.11914 0.84332 0.83451 0.0
C3438 C 0.09924 0.86465 0.89993 0.0
C3439 C 0.10531 0.85719 0.83405 0.0
C3440 C 0.10443 0.85722 0.78879 0.0
C3441 C 0.10769 0.85693 0.91864 0.0
C3442 C 0.11471 0.84891 0.89482 0.0
C3443 C 0.11369 0.84941 0.85277 0.0
C3444 C 0.12222 0.83915 0.91296 0.0
C3445 C 0.10883 0.85717 0.96382 0.0
C3446 C 0.13479 0.83853 0.90597 0.0
C3447 C 0.14158 0.82864 0.9203 0.0
C3448 C 0.13583 0.81911 0.94118 0.0
C3449 C 0.12327 0.81993 0.94875 0.0
C3450 C 0.11656 0.82984 0.93484 0.0
H3451 H 0.10566 0.86597 0.97645 0.0
H3452 H 0.10313 0.84984 0.97684 0.0
H3453 H 0.11838 0.85562 0.97332 0.0
H3454 H 0.13931 0.84559 0.88886 0.0
H3455 H 0.15121 0.82825 0.91371 0.0
loop_
_geom_bond_atom_site_label_1
_geom_bond_atom_site_label_2
_geom_bond_distance
_geom_bond_site_symmetry_2
_ccdc_geom_bond_type
Mn0 O5 2.095 . S
Mn0 O15 2.162 . S
Mn0 O16 2.297 . S
Mn0 O24 2.385 1_554 S
Mn0 O25 2.209 . S
Mn0 O26 2.094 . S
Mn1 O6 2.121 . S
Mn1 N8 2.257 . S
Mn1 N17 2.282 . S
Mn1 O25 2.215 . S
Mn1 O27 2.117 . S
C2 O24 1.230 1_554 S
C2 O25 1.299 . S
C3 O15 1.281 . S
C3 O16 1.236 . S
C4 O26 1.240 . S
C4 O27 1.264 . S
O5 Mn0 2.095 . S
O5 C14 1.250 . S
O6 Mn1 2.121 . S
O6 C14 1.258 . S
C7 N8 1.326 . S
C7 C11 1.460 . S
C7 H13 0.929 . S
N8 Mn1 2.257 . S
N8 C7 1.326 . S
N8 C12 1.362 . S
C9 C10 1.258 . S
C9 C12 1.431 . S
C9 C29 1.449 1_554 S
C10 C9 1.258 . S
C10 C11 1.477 . S
C10 H30 0.931 . S
C11 C7 1.460 . S
C11 C10 1.477 . S
C11 H31 0.930 . S
C12 N8 1.362 . S
C12 C9 1.431 . S
C12 C22 1.476 1_554 S
H13 C7 0.929 . S
C14 O5 1.250 . S
C14 O6 1.258 . S
O15 Mn0 2.162 . S
O15 C3 1.281 . S
O16 Mn0 2.297 . S
O16 C3 1.236 . S
N17 Mn1 2.282 . S
N17 C18 1.328 1_554 S
N17 C22 1.318 1_554 S
C18 N17 1.328 1_556 S
C18 C19 1.457 . S
C18 H23 0.929 1_556 S
C19 C18 1.457 . S
C19 C20 1.291 . S
C19 H32 0.931 . S
C20 C19 1.291 . S
C20 C21 1.373 . S
C20 H33 0.929 . S
C21 C20 1.373 . S
C21 C22 1.396 . S
C21 C28 1.403 . S
C22 C12 1.476 1_556 S
C22 N17 1.318 1_556 S
C22 C21 1.396 . S
H23 C18 0.929 1_554 S
O24 Mn0 2.385 1_556 S
O24 C2 1.230 1_556 S
O25 Mn0 2.209 . S
O25 Mn1 2.215 . S
O25 C2 1.299 . S
O26 Mn0 2.094 . S
O26 C4 1.240 . S
O27 Mn1 2.117 . S
O27 C4 1.264 . S
C28 C21 1.403 . S
C28 C29 1.399 . S
C28 H34 0.929 . S
C29 C9 1.449 1_556 S
C29 C28 1.399 . S
C29 H35 0.930 . S
H30 C10 0.931 . S
H31 C11 0.930 . S
H32 C19 0.931 . S
H33 C20 0.929 . S
H34 C28 0.929 . S
H35 C29 0.930 . S
Mn36 O41 2.095 . S
Mn36 O51 2.162 . S
Mn36 O52 2.297 . S
Mn36 O60 2.385 . S
Mn36 O61 2.209 . S
Mn36 O62 2.094 . S
Mn37 O42 2.121 . S
Mn37 N44 2.257 . S
Mn37 N53 2.282 . S
Mn37 O61 2.215 . S
Mn37 O63 2.117 . S
C38 O60 1.234 . S
C38 O61 1.283 . S
C39 O51 1.281 . S
C39 O52 1.236 . S
C40 O62 1.240 . S
C40 O63 1.264 . S
O41 Mn36 2.095 . S
O41 C50 1.250 . S
O42 Mn37 2.121 . S
O42 C50 1.258 . S
C43 N44 1.326 1_455 S
C43 C47 1.460 . S
C43 H49 0.929 . S
N44 Mn37 2.257 . S
N44 C43 1.326 1_655 S
N44 C48 1.362 . S
C45 C46 1.258 . S
C45 C48 1.431 1_455 S
C45 C65 1.449 . S
C46 C45 1.258 . S
C46 C47 1.477 . S
C46 H66 0.931 . S
C47 C43 1.460 . S
C47 C46 1.477 . S
C47 H67 0.930 . S
C48 N44 1.362 . S
C48 C45 1.431 1_655 S
C48 C58 1.476 . S
H49 C43 0.929 . S
C50 O41 1.250 . S
C50 O42 1.258 . S
O51 Mn36 2.162 . S
O51 C39 1.281 . S
O52 Mn36 2.297 . S
O52 C39 1.236 . S
N53 Mn37 2.282 . S
N53 C54 1.328 . S
N53 C58 1.318 . S
C54 N53 1.328 . S
C54 C55 1.457 . S
C54 H59 0.929 . S
C55 C54 1.457 . S
C55 C56 1.291 . S
C55 H68 0.931 . S
C56 C55 1.291 . S
C56 C57 1.373 . S
C56 H69 0.929 . S
C57 C56 1.373 . S
C57 C58 1.396 . S
C57 C64 1.403 . S
C58 C48 1.476 . S
C58 N53 1.318 . S
C58 C57 1.396 . S
H59 C54 0.929 . S
O60 Mn36 2.385 . S
O60 C38 1.234 . S
O61 Mn36 2.209 . S
O61 Mn37 2.215 . S
O61 C38 1.283 . S
O62 Mn36 2.094 . S
O62 C40 1.240 . S
O63 Mn37 2.117 . S
O63 C40 1.264 . S
C64 C57 1.403 . S
C64 C65 1.399 1_655 S
C64 H70 0.929 . S
C65 C45 1.449 . S
C65 C64 1.399 1_455 S
C65 H71 0.930 . S
H66 C46 0.931 . S
H67 C47 0.930 . S
H68 C55 0.931 . S
H69 C56 0.929 . S
H70 C64 0.929 . S
H71 C65 0.930 . S
Mn72 O77 2.095 . S
Mn72 O87 2.162 . S
Mn72 O88 2.297 . S
Mn72 O96 2.385 . S
Mn72 O97 2.209 . S
Mn72 O98 2.094 . S
Mn73 O78 2.121 . S
Mn73 N80 2.257 . S
Mn73 N89 2.282 . S
Mn73 O97 2.215 . S
Mn73 O99 2.117 . S
C74 O96 1.234 . S
C74 O97 1.283 . S
C75 O87 1.281 . S
C75 O88 1.236 . S
C76 O98 1.240 . S
C76 O99 1.264 . S
O77 Mn72 2.095 . S
O77 C86 1.250 . S
O78 Mn73 2.121 . S
O78 C86 1.258 . S
C79 N80 1.326 . S
C79 C83 1.460 . S
C79 H85 0.929 . S
N80 Mn73 2.257 . S
N80 C79 1.326 . S
N80 C84 1.362 . S
C81 C82 1.258 . S
C81 C84 1.431 . S
C81 C101 1.449 . S
C82 C81 1.258 . S
C82 C83 1.477 . S
C82 H102 0.931 . S
C83 C79 1.460 . S
C83 C82 1.477 . S
C83 H103 0.930 . S
C84 N80 1.362 . S
C84 C81 1.431 . S
C84 C94 1.476 . S
H85 C79 0.929 . S
C86 O77 1.250 . S
C86 O78 1.258 . S
O87 Mn72 2.162 . S
O87 C75 1.281 . S
O88 Mn72 2.297 . S
O88 C75 1.236 . S
N89 Mn73 2.282 . S
N89 C90 1.328 . S
N89 C94 1.318 . S
C90 N89 1.328 . S
C90 C91 1.457 . S
C90 H95 0.929 . S
C91 C90 1.457 . S
C91 C92 1.291 . S
C91 H104 0.931 . S
C92 C91 1.291 . S
C92 C93 1.373 . S
C92 H105 0.929 . S
C93 C92 1.373 . S
C93 C94 1.396 . S
C93 C100 1.403 . S
C94 C84 1.476 . S
C94 N89 1.318 . S
C94 C93 1.396 . S
H95 C90 0.929 . S
O96 Mn72 2.385 . S
O96 C74 1.234 . S
O97 Mn72 2.209 . S
O97 Mn73 2.215 . S
O97 C74 1.283 . S
O98 Mn72 2.094 . S
O98 C76 1.240 . S
O99 Mn73 2.117 . S
O99 C76 1.264 . S
C100 C93 1.403 . S
C100 C101 1.399 . S
C100 H106 0.929 . S
C101 C81 1.449 . S
C101 C100 1.399 . S
C101 H107 0.930 . S
H102 C82 0.931 . S
H103 C83 0.930 . S
H104 C91 0.931 . S
H105 C92 0.929 . S
H106 C100 0.929 . S
H107 C101 0.930 . S
Mn108 O113 2.095 . S
Mn108 O123 2.162 . S
Mn108 O124 2.297 . S
Mn108 O132 2.385 . S
Mn108 O133 2.209 . S
Mn108 O134 2.094 . S
Mn109 O114 2.121 . S
Mn109 N116 2.257 . S
Mn109 N125 2.282 . S
Mn109 O133 2.215 . S
Mn109 O135 2.117 . S
C110 O132 1.234 . S
C110 O133 1.283 . S
C111 O123 1.281 . S
C111 O124 1.236 . S
C112 O134 1.240 . S
C112 O135 1.264 . S
O113 Mn108 2.095 . S
O113 C122 1.250 . S
O114 Mn109 2.121 . S
O114 C122 1.258 . S
C115 N116 1.326 . S
C115 C119 1.460 . S
C115 H121 0.929 . S
N116 Mn109 2.257 . S
N116 C115 1.326 . S
N116 C120 1.362 . S
C117 C118 1.258 . S
C117 C120 1.431 . S
C117 C137 1.449 . S
C118 C117 1.258 . S
C118 C119 1.477 . S
C118 H138 0.931 . S
C119 C115 1.460 . S
C119 C118 1.477 . S
C119 H139 0.930 . S
C120 N116 1.362 . S
C120 C117 1.431 . S
C120 C130 1.476 . S
H121 C115 0.929 . S
C122 O113 1.250 . S
C122 O114 1.258 . S
O123 Mn108 2.162 . S
O123 C111 1.281 . S
O124 Mn108 2.297 . S
O124 C111 1.236 . S
N125 Mn109 2.282 . S
N125 C126 1.328 . S
N125 C130 1.318 . S
C126 N125 1.328 . S
C126 C127 1.457 . S
C126 H131 0.929 . S
C127 C126 1.457 . S
C127 C128 1.291 . S
C127 H140 0.931 . S
C128 C127 1.291 . S
C128 C129 1.373 . S
C128 H141 0.929 . S
C129 C128 1.373 . S
C129 C130 1.396 . S
C129 C136 1.403 . S
C130 C120 1.476 . S
C130 N125 1.318 . S
C130 C129 1.396 . S
H131 C126 0.929 . S
O132 Mn108 2.385 . S
O132 C110 1.234 . S
O133 Mn108 2.209 . S
O133 Mn109 2.215 . S
O133 C110 1.283 . S
O134 Mn108 2.094 . S
O134 C112 1.240 . S
O135 Mn109 2.117 . S
O135 C112 1.264 . S
C136 C129 1.403 . S
C136 C137 1.399 . S
C136 H142 0.929 . S
C137 C117 1.449 . S
C137 C136 1.399 . S
C137 H143 0.930 . S
H138 C118 0.931 . S
H139 C119 0.930 . S
H140 C127 0.931 . S
H141 C128 0.929 . S
H142 C136 0.929 . S
H143 C137 0.930 . S
Mn144 O149 2.095 . S
Mn144 O159 2.162 . S
Mn144 O160 2.297 . S
Mn144 O168 2.385 . S
Mn144 O169 2.209 . S
Mn144 O170 2.094 . S
Mn145 O150 2.121 . S
Mn145 N152 2.257 . S
Mn145 N161 2.282 . S
Mn145 O169 2.215 . S
Mn145 O171 2.117 . S
C146 O168 1.234 . S
C146 O169 1.283 . S
C147 O159 1.281 . S
C147 O160 1.236 . S
C148 O170 1.240 . S
C148 O171 1.264 . S
O149 Mn144 2.095 . S
O149 C158 1.250 . S
O150 Mn145 2.121 . S
O150 C158 1.258 . S
C151 N152 1.326 . S
C151 C155 1.460 . S
C151 H157 0.929 . S
N152 Mn145 2.257 . S
N152 C151 1.326 . S
N152 C156 1.362 . S
C153 C154 1.258 . S
C153 C156 1.431 . S
C153 C173 1.449 . S
C154 C153 1.258 . S
C154 C155 1.477 . S
C154 H174 0.931 . S
C155 C151 1.460 . S
C155 C154 1.477 . S
C155 H175 0.930 . S
C156 N152 1.362 . S
C156 C153 1.431 . S
C156 C166 1.476 . S
H157 C151 0.929 . S
C158 O149 1.250 . S
C158 O150 1.258 . S
O159 Mn144 2.162 . S
O159 C147 1.281 . S
O160 Mn144 2.297 . S
O160 C147 1.236 . S
N161 Mn145 2.282 . S
N161 C162 1.328 . S
N161 C166 1.318 . S
C162 N161 1.328 . S
C162 C163 1.457 . S
C162 H167 0.929 . S
C163 C162 1.457 . S
C163 C164 1.291 . S
C163 H176 0.931 . S
C164 C163 1.291 . S
C164 C165 1.373 . S
C164 H177 0.929 . S
C165 C164 1.373 . S
C165 C166 1.396 . S
C165 C172 1.403 . S
C166 C156 1.476 . S
C166 N161 1.318 . S
C166 C165 1.396 . S
H167 C162 0.929 . S
O168 Mn144 2.385 . S
O168 C146 1.234 . S
O169 Mn144 2.209 . S
O169 Mn145 2.215 . S
O169 C146 1.283 . S
O170 Mn144 2.094 . S
O170 C148 1.240 . S
O171 Mn145 2.117 . S
O171 C148 1.264 . S
C172 C165 1.403 . S
C172 C173 1.399 . S
C172 H178 0.929 . S
C173 C153 1.449 . S
C173 C172 1.399 . S
C173 H179 0.930 . S
H174 C154 0.931 . S
H175 C155 0.930 . S
H176 C163 0.931 . S
H177 C164 0.929 . S
H178 C172 0.929 . S
H179 C173 0.930 . S
Mn180 O185 2.095 . S
Mn180 O195 2.162 . S
Mn180 O196 2.297 . S
Mn180 O204 2.385 . S
Mn180 O205 2.209 . S
Mn180 O206 2.094 . S
Mn181 O186 2.121 . S
Mn181 N188 2.257 . S
Mn181 N197 2.282 . S
Mn181 O205 2.215 . S
Mn181 O207 2.117 . S
C182 O204 1.234 . S
C182 O205 1.283 . S
C183 O195 1.281 . S
C183 O196 1.236 . S
C184 O206 1.240 . S
C184 O207 1.264 . S
O185 Mn180 2.095 . S
O185 C194 1.250 . S
O186 Mn181 2.121 . S
O186 C194 1.258 . S
C187 N188 1.326 . S
C187 C191 1.460 . S
C187 H193 0.929 . S
N188 Mn181 2.257 . S
N188 C187 1.326 . S
N188 C192 1.362 . S
C189 C190 1.258 . S
C189 C192 1.431 . S
C189 C209 1.449 . S
C190 C189 1.258 . S
C190 C191 1.477 . S
C190 H210 0.931 . S
C191 C187 1.460 . S
C191 C190 1.477 . S
C191 H211 0.930 . S
C192 N188 1.362 . S
C192 C189 1.431 . S
C192 C202 1.476 . S
H193 C187 0.929 . S
C194 O185 1.250 . S
C194 O186 1.258 . S
O195 Mn180 2.162 . S
O195 C183 1.281 . S
O196 Mn180 2.297 . S
O196 C183 1.236 . S
N197 Mn181 2.282 . S
N197 C198 1.328 . S
N197 C202 1.318 . S
C198 N197 1.328 . S
C198 C199 1.457 . S
C198 H203 0.929 . S
C199 C198 1.457 . S
C199 C200 1.291 . S
C199 H212 0.931 . S
C200 C199 1.291 . S
C200 C201 1.373 . S
C200 H213 0.929 . S
C201 C200 1.373 . S
C201 C202 1.396 . S
C201 C208 1.403 . S
C202 C192 1.476 . S
C202 N197 1.318 . S
C202 C201 1.396 . S
H203 C198 0.929 . S
O204 Mn180 2.385 . S
O204 C182 1.234 . S
O205 Mn180 2.209 . S
O205 Mn181 2.215 . S
O205 C182 1.283 . S
O206 Mn180 2.094 . S
O206 C184 1.240 . S
O207 Mn181 2.117 . S
O207 C184 1.264 . S
C208 C201 1.403 . S
C208 C209 1.399 . S
C208 H214 0.929 . S
C209 C189 1.449 . S
C209 C208 1.399 . S
C209 H215 0.930 . S
H210 C190 0.931 . S
H211 C191 0.930 . S
H212 C199 0.931 . S
H213 C200 0.929 . S
H214 C208 0.929 . S
H215 C209 0.930 . S
Mn216 O221 2.095 . S
Mn216 O231 2.162 . S
Mn216 O232 2.297 . S
Mn216 O240 2.385 1_556 S
Mn216 O241 2.209 . S
Mn216 O242 2.094 . S
Mn217 O222 2.121 . S
Mn217 N224 2.257 . S
Mn217 N233 2.282 . S
Mn217 O241 2.215 . S
Mn217 O243 2.117 . S
C218 O240 1.231 1_556 S
C218 O241 1.297 . S
C219 O231 1.281 . S
C219 O232 1.236 . S
C220 O242 1.240 . S
C220 O243 1.264 . S
O221 Mn216 2.095 . S
O221 C230 1.250 . S
O222 Mn217 2.121 . S
O222 C230 1.258 . S
C223 N224 1.326 . S
C223 C227 1.460 . S
C223 H229 0.929 . S
N224 Mn217 2.257 . S
N224 C223 1.326 . S
N224 C228 1.362 . S
C225 C226 1.258 . S
C225 C228 1.431 . S
C225 C245 1.449 1_556 S
C226 C225 1.258 . S
C226 C227 1.477 . S
C226 H246 0.931 . S
C227 C223 1.460 . S
C227 C226 1.477 . S
C227 H247 0.930 . S
C228 N224 1.362 . S
C228 C225 1.431 . S
C228 C238 1.476 1_556 S
H229 C223 0.929 . S
C230 O221 1.250 . S
C230 O222 1.258 . S
O231 Mn216 2.162 . S
O231 C219 1.281 . S
O232 Mn216 2.297 . S
O232 C219 1.236 . S
N233 Mn217 2.282 . S
N233 C234 1.328 1_556 S
N233 C238 1.318 1_556 S
C234 N233 1.328 1_554 S
C234 C235 1.457 . S
C234 H239 0.929 1_554 S
C235 C234 1.457 . S
C235 C236 1.291 . S
C235 H248 0.931 . S
C236 C235 1.291 . S
C236 C237 1.373 . S
C236 H249 0.929 . S
C237 C236 1.373 . S
C237 C238 1.396 . S
C237 C244 1.403 . S
C238 C228 1.476 1_554 S
C238 N233 1.318 1_554 S
C238 C237 1.396 . S
H239 C234 0.929 1_556 S
O240 Mn216 2.385 1_554 S
O240 C218 1.231 1_554 S
O241 Mn216 2.209 . S
O241 Mn217 2.215 . S
O241 C218 1.297 . S
O242 Mn216 2.094 . S
O242 C220 1.240 . S
O243 Mn217 2.117 . S
O243 C220 1.264 . S
C244 C237 1.403 . S
C244 C245 1.399 . S
C244 H250 0.929 . S
C245 C225 1.449 1_554 S
C245 C244 1.399 . S
C245 H251 0.930 . S
H246 C226 0.931 . S
H247 C227 0.930 . S
H248 C235 0.931 . S
H249 C236 0.929 . S
H250 C244 0.929 . S
H251 C245 0.930 . S
Mn252 O257 2.095 . S
Mn252 O267 2.162 . S
Mn252 O268 2.297 . S
Mn252 O276 2.385 . S
Mn252 O277 2.209 . S
Mn252 O278 2.094 . S
Mn253 O258 2.121 . S
Mn253 N260 2.257 . S
Mn253 N269 2.282 . S
Mn253 O277 2.215 . S
Mn253 O279 2.117 . S
C254 O276 1.234 . S
C254 O277 1.283 . S
C255 O267 1.281 . S
C255 O268 1.236 . S
C256 O278 1.240 . S
C256 O279 1.264 . S
O257 Mn252 2.095 . S
O257 C266 1.250 . S
O258 Mn253 2.121 . S
O258 C266 1.258 . S
C259 N260 1.326 1_455 S
C259 C263 1.460 . S
C259 H265 0.929 . S
N260 Mn253 2.257 . S
N260 C259 1.326 1_655 S
N260 C264 1.362 . S
C261 C262 1.258 . S
C261 C264 1.431 1_455 S
C261 C281 1.449 . S
C262 C261 1.258 . S
C262 C263 1.477 . S
C262 H282 0.931 . S
C263 C259 1.460 . S
C263 C262 1.477 . S
C263 H283 0.930 . S
C264 N260 1.362 . S
C264 C261 1.431 1_655 S
C264 C274 1.476 . S
H265 C259 0.929 . S
C266 O257 1.250 . S
C266 O258 1.258 . S
O267 Mn252 2.162 . S
O267 C255 1.281 . S
O268 Mn252 2.297 . S
O268 C255 1.236 . S
N269 Mn253 2.282 . S
N269 C270 1.328 . S
N269 C274 1.318 . S
C270 N269 1.328 . S
C270 C271 1.457 . S
C270 H275 0.929 . S
C271 C270 1.457 . S
C271 C272 1.291 . S
C271 H284 0.931 . S
C272 C271 1.291 . S
C272 C273 1.373 . S
C272 H285 0.929 . S
C273 C272 1.373 . S
C273 C274 1.396 . S
C273 C280 1.403 . S
C274 C264 1.476 . S
C274 N269 1.318 . S
C274 C273 1.396 . S
H275 C270 0.929 . S
O276 Mn252 2.385 . S
O276 C254 1.234 . S
O277 Mn252 2.209 . S
O277 Mn253 2.215 . S
O277 C254 1.283 . S
O278 Mn252 2.094 . S
O278 C256 1.240 . S
O279 Mn253 2.117 . S
O279 C256 1.264 . S
C280 C273 1.403 . S
C280 C281 1.399 1_655 S
C280 H286 0.929 . S
C281 C261 1.449 . S
C281 C280 1.399 1_455 S
C281 H287 0.930 . S
H282 C262 0.931 . S
H283 C263 0.930 . S
H284 C271 0.931 . S
H285 C272 0.929 . S
H286 C280 0.929 . S
H287 C281 0.930 . S
Mn288 O293 2.095 . S
Mn288 O303 2.162 . S
Mn288 O304 2.297 . S
Mn288 O312 2.385 1_556 S
Mn288 O313 2.209 . S
Mn288 O314 2.094 . S
Mn289 O294 2.121 . S
Mn289 N296 2.257 . S
Mn289 N305 2.282 . S
Mn289 O313 2.215 . S
Mn289 O315 2.117 . S
C290 O312 1.230 1_556 S
C290 O313 1.299 . S
C291 O303 1.281 . S
C291 O304 1.236 . S
C292 O314 1.240 . S
C292 O315 1.264 . S
O293 Mn288 2.095 . S
O293 C302 1.250 . S
O294 Mn289 2.121 . S
O294 C302 1.258 . S
C295 N296 1.326 . S
C295 C299 1.460 . S
C295 H301 0.929 . S
N296 Mn289 2.257 . S
N296 C295 1.326 . S
N296 C300 1.362 . S
C297 C298 1.258 . S
C297 C300 1.431 . S
C297 C317 1.449 1_556 S
C298 C297 1.258 . S
C298 C299 1.477 . S
C298 H318 0.931 . S
C299 C295 1.460 . S
C299 C298 1.477 . S
C299 H319 0.930 . S
C300 N296 1.362 . S
C300 C297 1.431 . S
C300 C310 1.476 1_556 S
H301 C295 0.929 . S
C302 O293 1.250 . S
C302 O294 1.258 . S
O303 Mn288 2.162 . S
O303 C291 1.281 . S
O304 Mn288 2.297 . S
O304 C291 1.236 . S
N305 Mn289 2.282 . S
N305 C306 1.328 1_556 S
N305 C310 1.318 1_556 S
C306 N305 1.328 1_554 S
C306 C307 1.457 . S
C306 H311 0.929 1_554 S
C307 C306 1.457 . S
C307 C308 1.291 . S
C307 H320 0.931 . S
C308 C307 1.291 . S
C308 C309 1.373 . S
C308 H321 0.929 . S
C309 C308 1.373 . S
C309 C310 1.396 . S
C309 C316 1.403 . S
C310 C300 1.476 1_554 S
C310 N305 1.318 1_554 S
C310 C309 1.396 . S
H311 C306 0.929 1_556 S
O312 Mn288 2.385 1_554 S
O312 C290 1.230 1_554 S
O313 Mn288 2.209 . S
O313 Mn289 2.215 . S
O313 C290 1.299 . S
O314 Mn288 2.094 . S
O314 C292 1.240 . S
O315 Mn289 2.117 . S
O315 C292 1.264 . S
C316 C309 1.403 . S
C316 C317 1.399 . S
C316 H322 0.929 . S
C317 C297 1.449 1_554 S
C317 C316 1.399 . S
C317 H323 0.930 . S
H318 C298 0.931 . S
H319 C299 0.930 . S
H320 C307 0.931 . S
H321 C308 0.929 . S
H322 C316 0.929 . S
H323 C317 0.930 . S
Mn324 O329 2.095 . S
Mn324 O339 2.162 . S
Mn324 O340 2.297 . S
Mn324 O348 2.385 . S
Mn324 O349 2.209 . S
Mn324 O350 2.094 . S
Mn325 O330 2.121 . S
Mn325 N332 2.257 . S
Mn325 N341 2.282 . S
Mn325 O349 2.215 . S
Mn325 O351 2.117 . S
C326 O348 1.234 . S
C326 O349 1.283 . S
C327 O339 1.281 . S
C327 O340 1.236 . S
C328 O350 1.240 . S
C328 O351 1.264 . S
O329 Mn324 2.095 . S
O329 C338 1.250 . S
O330 Mn325 2.121 . S
O330 C338 1.258 . S
C331 N332 1.326 1_655 S
C331 C335 1.460 . S
C331 H337 0.929 . S
N332 Mn325 2.257 . S
N332 C331 1.326 1_455 S
N332 C336 1.362 . S
C333 C334 1.258 . S
C333 C336 1.431 1_655 S
C333 C353 1.449 . S
C334 C333 1.258 . S
C334 C335 1.477 . S
C334 H354 0.931 . S
C335 C331 1.460 . S
C335 C334 1.477 . S
C335 H355 0.930 . S
C336 N332 1.362 . S
C336 C333 1.431 1_455 S
C336 C346 1.476 . S
H337 C331 0.929 . S
C338 O329 1.250 . S
C338 O330 1.258 . S
O339 Mn324 2.162 . S
O339 C327 1.281 . S
O340 Mn324 2.297 . S
O340 C327 1.236 . S
N341 Mn325 2.282 . S
N341 C342 1.328 . S
N341 C346 1.318 . S
C342 N341 1.328 . S
C342 C343 1.457 . S
C342 H347 0.929 . S
C343 C342 1.457 . S
C343 C344 1.291 . S
C343 H356 0.931 . S
C344 C343 1.291 . S
C344 C345 1.373 . S
C344 H357 0.929 . S
C345 C344 1.373 . S
C345 C346 1.396 . S
C345 C352 1.403 . S
C346 C336 1.476 . S
C346 N341 1.318 . S
C346 C345 1.396 . S
H347 C342 0.929 . S
O348 Mn324 2.385 . S
O348 C326 1.234 . S
O349 Mn324 2.209 . S
O349 Mn325 2.215 . S
O349 C326 1.283 . S
O350 Mn324 2.094 . S
O350 C328 1.240 . S
O351 Mn325 2.117 . S
O351 C328 1.264 . S
C352 C345 1.403 . S
C352 C353 1.399 1_455 S
C352 H358 0.929 . S
C353 C333 1.449 . S
C353 C352 1.399 1_655 S
C353 H359 0.930 . S
H354 C334 0.931 . S
H355 C335 0.930 . S
H356 C343 0.931 . S
H357 C344 0.929 . S
H358 C352 0.929 . S
H359 C353 0.930 . S
Mn360 O365 2.095 . S
Mn360 O375 2.162 . S
Mn360 O376 2.297 . S
Mn360 O384 2.385 . S
Mn360 O385 2.209 . S
Mn360 O386 2.094 . S
Mn361 O366 2.121 . S
Mn361 N368 2.257 . S
Mn361 N377 2.282 . S
Mn361 O385 2.215 . S
Mn361 O387 2.117 . S
C362 O384 1.234 . S
C362 O385 1.283 . S
C363 O375 1.281 . S
C363 O376 1.236 . S
C364 O386 1.240 . S
C364 O387 1.264 . S
O365 Mn360 2.095 . S
O365 C374 1.250 . S
O366 Mn361 2.121 . S
O366 C374 1.258 . S
C367 N368 1.326 . S
C367 C371 1.460 . S
C367 H373 0.929 . S
N368 Mn361 2.257 . S
N368 C367 1.326 . S
N368 C372 1.362 . S
C369 C370 1.258 . S
C369 C372 1.431 . S
C369 C389 1.449 . S
C370 C369 1.258 . S
C370 C371 1.477 . S
C370 H390 0.931 . S
C371 C367 1.460 . S
C371 C370 1.477 . S
C371 H391 0.930 . S
C372 N368 1.362 . S
C372 C369 1.431 . S
C372 C382 1.476 . S
H373 C367 0.929 . S
C374 O365 1.250 . S
C374 O366 1.258 . S
O375 Mn360 2.162 . S
O375 C363 1.281 . S
O376 Mn360 2.297 . S
O376 C363 1.236 . S
N377 Mn361 2.282 . S
N377 C378 1.328 . S
N377 C382 1.318 . S
C378 N377 1.328 . S
C378 C379 1.457 . S
C378 H383 0.929 . S
C379 C378 1.457 . S
C379 C380 1.291 . S
C379 H392 0.931 . S
C380 C379 1.291 . S
C380 C381 1.373 . S
C380 H393 0.929 . S
C381 C380 1.373 . S
C381 C382 1.396 . S
C381 C388 1.403 . S
C382 C372 1.476 . S
C382 N377 1.318 . S
C382 C381 1.396 . S
H383 C378 0.929 . S
O384 Mn360 2.385 . S
O384 C362 1.234 . S
O385 Mn360 2.209 . S
O385 Mn361 2.215 . S
O385 C362 1.283 . S
O386 Mn360 2.094 . S
O386 C364 1.240 . S
O387 Mn361 2.117 . S
O387 C364 1.264 . S
C388 C381 1.403 . S
C388 C389 1.399 . S
C388 H394 0.929 . S
C389 C369 1.449 . S
C389 C388 1.399 . S
C389 H395 0.930 . S
H390 C370 0.931 . S
H391 C371 0.930 . S
H392 C379 0.931 . S
H393 C380 0.929 . S
H394 C388 0.929 . S
H395 C389 0.930 . S
Mn396 O401 2.095 . S
Mn396 O411 2.162 . S
Mn396 O412 2.297 . S
Mn396 O420 2.385 . S
Mn396 O421 2.209 . S
Mn396 O422 2.094 . S
Mn397 O402 2.121 . S
Mn397 N404 2.257 . S
Mn397 N413 2.282 . S
Mn397 O421 2.215 . S
Mn397 O423 2.117 . S
C398 O420 1.234 . S
C398 O421 1.283 . S
C399 O411 1.281 . S
C399 O412 1.236 . S
C400 O422 1.240 . S
C400 O423 1.264 . S
O401 Mn396 2.095 . S
O401 C410 1.250 . S
O402 Mn397 2.121 . S
O402 C410 1.258 . S
C403 N404 1.326 . S
C403 C407 1.460 . S
C403 H409 0.929 . S
N404 Mn397 2.257 . S
N404 C403 1.326 . S
N404 C408 1.362 . S
C405 C406 1.258 . S
C405 C408 1.431 . S
C405 C425 1.449 . S
C406 C405 1.258 . S
C406 C407 1.477 . S
C406 H426 0.931 . S
C407 C403 1.460 . S
C407 C406 1.477 . S
C407 H427 0.930 . S
C408 N404 1.362 . S
C408 C405 1.431 . S
C408 C418 1.476 . S
H409 C403 0.929 . S
C410 O401 1.250 . S
C410 O402 1.258 . S
O411 Mn396 2.162 . S
O411 C399 1.281 . S
O412 Mn396 2.297 . S
O412 C399 1.236 . S
N413 Mn397 2.282 . S
N413 C414 1.328 . S
N413 C418 1.318 . S
C414 N413 1.328 . S
C414 C415 1.457 . S
C414 H419 0.929 . S
C415 C414 1.457 . S
C415 C416 1.291 . S
C415 H428 0.931 . S
C416 C415 1.291 . S
C416 C417 1.373 . S
C416 H429 0.929 . S
C417 C416 1.373 . S
C417 C418 1.396 . S
C417 C424 1.403 . S
C418 C408 1.476 . S
C418 N413 1.318 . S
C418 C417 1.396 . S
H419 C414 0.929 . S
O420 Mn396 2.385 . S
O420 C398 1.234 . S
O421 Mn396 2.209 . S
O421 Mn397 2.215 . S
O421 C398 1.283 . S
O422 Mn396 2.094 . S
O422 C400 1.240 . S
O423 Mn397 2.117 . S
O423 C400 1.264 . S
C424 C417 1.403 . S
C424 C425 1.399 . S
C424 H430 0.929 . S
C425 C405 1.449 . S
C425 C424 1.399 . S
C425 H431 0.930 . S
H426 C406 0.931 . S
H427 C407 0.930 . S
H428 C415 0.931 . S
H429 C416 0.929 . S
H430 C424 0.929 . S
H431 C425 0.930 . S
Mn432 O437 2.095 . S
Mn432 O447 2.162 . S
Mn432 O448 2.297 . S
Mn432 O456 2.385 . S
Mn432 O457 2.209 . S
Mn432 O458 2.094 . S
Mn433 O438 2.121 . S
Mn433 N440 2.257 . S
Mn433 N449 2.282 . S
Mn433 O457 2.215 . S
Mn433 O459 2.117 . S
C434 O456 1.234 . S
C434 O457 1.283 . S
C435 O447 1.281 . S
C435 O448 1.236 . S
C436 O458 1.240 . S
C436 O459 1.264 . S
O437 Mn432 2.095 . S
O437 C446 1.250 . S
O438 Mn433 2.121 . S
O438 C446 1.258 . S
C439 N440 1.326 . S
C439 C443 1.460 . S
C439 H445 0.929 . S
N440 Mn433 2.257 . S
N440 C439 1.326 . S
N440 C444 1.362 . S
C441 C442 1.258 . S
C441 C444 1.431 . S
C441 C461 1.449 . S
C442 C441 1.258 . S
C442 C443 1.477 . S
C442 H462 0.931 . S
C443 C439 1.460 . S
C443 C442 1.477 . S
C443 H463 0.930 . S
C444 N440 1.362 . S
C444 C441 1.431 . S
C444 C454 1.476 . S
H445 C439 0.929 . S
C446 O437 1.250 . S
C446 O438 1.258 . S
O447 Mn432 2.162 . S
O447 C435 1.281 . S
O448 Mn432 2.297 . S
O448 C435 1.236 . S
N449 Mn433 2.282 . S
N449 C450 1.328 . S
N449 C454 1.318 . S
C450 N449 1.328 . S
C450 C451 1.457 . S
C450 H455 0.929 . S
C451 C450 1.457 . S
C451 C452 1.291 . S
C451 H464 0.931 . S
C452 C451 1.291 . S
C452 C453 1.373 . S
C452 H465 0.929 . S
C453 C452 1.373 . S
C453 C454 1.396 . S
C453 C460 1.403 . S
C454 C444 1.476 . S
C454 N449 1.318 . S
C454 C453 1.396 . S
H455 C450 0.929 . S
O456 Mn432 2.385 . S
O456 C434 1.234 . S
O457 Mn432 2.209 . S
O457 Mn433 2.215 . S
O457 C434 1.283 . S
O458 Mn432 2.094 . S
O458 C436 1.240 . S
O459 Mn433 2.117 . S
O459 C436 1.264 . S
C460 C453 1.403 . S
C460 C461 1.399 . S
C460 H466 0.929 . S
C461 C441 1.449 . S
C461 C460 1.399 . S
C461 H467 0.930 . S
H462 C442 0.931 . S
H463 C443 0.930 . S
H464 C451 0.931 . S
H465 C452 0.929 . S
H466 C460 0.929 . S
H467 C461 0.930 . S
Mn468 O473 2.095 . S
Mn468 O483 2.162 . S
Mn468 O484 2.297 . S
Mn468 O492 2.385 . S
Mn468 O493 2.209 . S
Mn468 O494 2.094 . S
Mn469 O474 2.121 . S
Mn469 N476 2.257 . S
Mn469 N485 2.282 . S
Mn469 O493 2.215 . S
Mn469 O495 2.117 . S
C470 O492 1.234 . S
C470 O493 1.283 . S
C471 O483 1.281 . S
C471 O484 1.236 . S
C472 O494 1.240 . S
C472 O495 1.264 . S
O473 Mn468 2.095 . S
O473 C482 1.250 . S
O474 Mn469 2.121 . S
O474 C482 1.258 . S
C475 N476 1.326 . S
C475 C479 1.460 . S
C475 H481 0.929 . S
N476 Mn469 2.257 . S
N476 C475 1.326 . S
N476 C480 1.362 . S
C477 C478 1.258 . S
C477 C480 1.431 . S
C477 C497 1.449 . S
C478 C477 1.258 . S
C478 C479 1.477 . S
C478 H498 0.931 . S
C479 C475 1.460 . S
C479 C478 1.477 . S
C479 H499 0.930 . S
C480 N476 1.362 . S
C480 C477 1.431 . S
C480 C490 1.476 . S
H481 C475 0.929 . S
C482 O473 1.250 . S
C482 O474 1.258 . S
O483 Mn468 2.162 . S
O483 C471 1.281 . S
O484 Mn468 2.297 . S
O484 C471 1.236 . S
N485 Mn469 2.282 . S
N485 C486 1.328 . S
N485 C490 1.318 . S
C486 N485 1.328 . S
C486 C487 1.457 . S
C486 H491 0.929 . S
C487 C486 1.457 . S
C487 C488 1.291 . S
C487 H500 0.931 . S
C488 C487 1.291 . S
C488 C489 1.373 . S
C488 H501 0.929 . S
C489 C488 1.373 . S
C489 C490 1.396 . S
C489 C496 1.403 . S
C490 C480 1.476 . S
C490 N485 1.318 . S
C490 C489 1.396 . S
H491 C486 0.929 . S
O492 Mn468 2.385 . S
O492 C470 1.234 . S
O493 Mn468 2.209 . S
O493 Mn469 2.215 . S
O493 C470 1.283 . S
O494 Mn468 2.094 . S
O494 C472 1.240 . S
O495 Mn469 2.117 . S
O495 C472 1.264 . S
C496 C489 1.403 . S
C496 C497 1.399 . S
C496 H502 0.929 . S
C497 C477 1.449 . S
C497 C496 1.399 . S
C497 H503 0.930 . S
H498 C478 0.931 . S
H499 C479 0.930 . S
H500 C487 0.931 . S
H501 C488 0.929 . S
H502 C496 0.929 . S
H503 C497 0.930 . S
Mn504 O509 2.095 . S
Mn504 O519 2.162 . S
Mn504 O520 2.297 . S
Mn504 O528 2.385 1_554 S
Mn504 O529 2.209 . S
Mn504 O530 2.094 . S
Mn505 O510 2.121 . S
Mn505 N512 2.257 . S
Mn505 N521 2.282 . S
Mn505 O529 2.215 . S
Mn505 O531 2.117 . S
C506 O528 1.231 1_554 S
C506 O529 1.297 . S
C507 O519 1.281 . S
C507 O520 1.236 . S
C508 O530 1.240 . S
C508 O531 1.264 . S
O509 Mn504 2.095 . S
O509 C518 1.250 . S
O510 Mn505 2.121 . S
O510 C518 1.258 . S
C511 N512 1.326 . S
C511 C515 1.460 . S
C511 H517 0.929 . S
N512 Mn505 2.257 . S
N512 C511 1.326 . S
N512 C516 1.362 . S
C513 C514 1.258 . S
C513 C516 1.431 . S
C513 C533 1.449 1_554 S
C514 C513 1.258 . S
C514 C515 1.477 . S
C514 H534 0.931 . S
C515 C511 1.460 . S
C515 C514 1.477 . S
C515 H535 0.930 . S
C516 N512 1.362 . S
C516 C513 1.431 . S
C516 C526 1.476 1_554 S
H517 C511 0.929 . S
C518 O509 1.250 . S
C518 O510 1.258 . S
O519 Mn504 2.162 . S
O519 C507 1.281 . S
O520 Mn504 2.297 . S
O520 C507 1.236 . S
N521 Mn505 2.282 . S
N521 C522 1.328 1_554 S
N521 C526 1.318 1_554 S
C522 N521 1.328 1_556 S
C522 C523 1.457 . S
C522 H527 0.929 1_556 S
C523 C522 1.457 . S
C523 C524 1.291 . S
C523 H536 0.931 . S
C524 C523 1.291 . S
C524 C525 1.373 . S
C524 H537 0.929 . S
C525 C524 1.373 . S
C525 C526 1.396 . S
C525 C532 1.403 . S
C526 C516 1.476 1_556 S
C526 N521 1.318 1_556 S
C526 C525 1.396 . S
H527 C522 0.929 1_554 S
O528 Mn504 2.385 1_556 S
O528 C506 1.231 1_556 S
O529 Mn504 2.209 . S
O529 Mn505 2.215 . S
O529 C506 1.297 . S
O530 Mn504 2.094 . S
O530 C508 1.240 . S
O531 Mn505 2.117 . S
O531 C508 1.264 . S
C532 C525 1.403 . S
C532 C533 1.399 . S
C532 H538 0.929 . S
C533 C513 1.449 1_556 S
C533 C532 1.399 . S
C533 H539 0.930 . S
H534 C514 0.931 . S
H535 C515 0.930 . S
H536 C523 0.931 . S
H537 C524 0.929 . S
H538 C532 0.929 . S
H539 C533 0.930 . S
Mn540 O545 2.095 . S
Mn540 O555 2.162 . S
Mn540 O556 2.297 . S
Mn540 O564 2.385 . S
Mn540 O565 2.209 . S
Mn540 O566 2.094 . S
Mn541 O546 2.121 . S
Mn541 N548 2.257 . S
Mn541 N557 2.282 . S
Mn541 O565 2.215 . S
Mn541 O567 2.117 . S
C542 O564 1.234 . S
C542 O565 1.283 . S
C543 O555 1.281 . S
C543 O556 1.236 . S
C544 O566 1.240 . S
C544 O567 1.264 . S
O545 Mn540 2.095 . S
O545 C554 1.250 . S
O546 Mn541 2.121 . S
O546 C554 1.258 . S
C547 N548 1.326 1_655 S
C547 C551 1.460 . S
C547 H553 0.929 . S
N548 Mn541 2.257 . S
N548 C547 1.326 1_455 S
N548 C552 1.362 . S
C549 C550 1.258 . S
C549 C552 1.431 1_655 S
C549 C569 1.449 . S
C550 C549 1.258 . S
C550 C551 1.477 . S
C550 H570 0.931 . S
C551 C547 1.460 . S
C551 C550 1.477 . S
C551 H571 0.930 . S
C552 N548 1.362 . S
C552 C549 1.431 1_455 S
C552 C562 1.476 . S
H553 C547 0.929 . S
C554 O545 1.250 . S
C554 O546 1.258 . S
O555 Mn540 2.162 . S
O555 C543 1.281 . S
O556 Mn540 2.297 . S
O556 C543 1.236 . S
N557 Mn541 2.282 . S
N557 C558 1.328 . S
N557 C562 1.318 . S
C558 N557 1.328 . S
C558 C559 1.457 . S
C558 H563 0.929 . S
C559 C558 1.457 . S
C559 C560 1.291 . S
C559 H572 0.931 . S
C560 C559 1.291 . S
C560 C561 1.373 . S
C560 H573 0.929 . S
C561 C560 1.373 . S
C561 C562 1.396 . S
C561 C568 1.403 . S
C562 C552 1.476 . S
C562 N557 1.318 . S
C562 C561 1.396 . S
H563 C558 0.929 . S
O564 Mn540 2.385 . S
O564 C542 1.234 . S
O565 Mn540 2.209 . S
O565 Mn541 2.215 . S
O565 C542 1.283 . S
O566 Mn540 2.094 . S
O566 C544 1.240 . S
O567 Mn541 2.117 . S
O567 C544 1.264 . S
C568 C561 1.403 . S
C568 C569 1.399 1_455 S
C568 H574 0.929 . S
C569 C549 1.449 . S
C569 C568 1.399 1_655 S
C569 H575 0.930 . S
H570 C550 0.931 . S
H571 C551 0.930 . S
H572 C559 0.931 . S
H573 C560 0.929 . S
H574 C568 0.929 . S
H575 C569 0.930 . S
Mn576 O581 2.095 . S
Mn576 O591 2.162 . S
Mn576 O592 2.297 . S
Mn576 O600 2.385 . S
Mn576 O601 2.209 . S
Mn576 O602 2.094 . S
Mn577 O582 2.121 . S
Mn577 N584 2.257 . S
Mn577 N593 2.282 . S
Mn577 O601 2.215 . S
Mn577 O603 2.117 . S
C578 O600 1.234 . S
C578 O601 1.283 . S
C579 O591 1.281 . S
C579 O592 1.236 . S
C580 O602 1.240 . S
C580 O603 1.264 . S
O581 Mn576 2.095 . S
O581 C590 1.250 . S
O582 Mn577 2.121 . S
O582 C590 1.258 . S
C583 N584 1.326 . S
C583 C587 1.460 . S
C583 H589 0.929 . S
N584 Mn577 2.257 . S
N584 C583 1.326 . S
N584 C588 1.362 . S
C585 C586 1.258 . S
C585 C588 1.431 . S
C585 C605 1.449 . S
C586 C585 1.258 . S
C586 C587 1.477 . S
C586 H606 0.931 . S
C587 C583 1.460 . S
C587 C586 1.477 . S
C587 H607 0.930 . S
C588 N584 1.362 . S
C588 C585 1.431 . S
C588 C598 1.476 . S
H589 C583 0.929 . S
C590 O581 1.250 . S
C590 O582 1.258 . S
O591 Mn576 2.162 . S
O591 C579 1.281 . S
O592 Mn576 2.297 . S
O592 C579 1.236 . S
N593 Mn577 2.282 . S
N593 C594 1.328 . S
N593 C598 1.318 . S
C594 N593 1.328 . S
C594 C595 1.457 . S
C594 H599 0.929 . S
C595 C594 1.457 . S
C595 C596 1.291 . S
C595 H608 0.931 . S
C596 C595 1.291 . S
C596 C597 1.373 . S
C596 H609 0.929 . S
C597 C596 1.373 . S
C597 C598 1.396 . S
C597 C604 1.403 . S
C598 C588 1.476 . S
C598 N593 1.318 . S
C598 C597 1.396 . S
H599 C594 0.929 . S
O600 Mn576 2.385 . S
O600 C578 1.234 . S
O601 Mn576 2.209 . S
O601 Mn577 2.215 . S
O601 C578 1.283 . S
O602 Mn576 2.094 . S
O602 C580 1.240 . S
O603 Mn577 2.117 . S
O603 C580 1.264 . S
C604 C597 1.403 . S
C604 C605 1.399 . S
C604 H610 0.929 . S
C605 C585 1.449 . S
C605 C604 1.399 . S
C605 H611 0.930 . S
H606 C586 0.931 . S
H607 C587 0.930 . S
H608 C595 0.931 . S
H609 C596 0.929 . S
H610 C604 0.929 . S
H611 C605 0.930 . S
Mn612 O617 2.095 . S
Mn612 O627 2.162 . S
Mn612 O628 2.297 . S
Mn612 O636 2.385 . S
Mn612 O637 2.209 . S
Mn612 O638 2.094 . S
Mn613 O618 2.121 . S
Mn613 N620 2.257 . S
Mn613 N629 2.282 . S
Mn613 O637 2.215 . S
Mn613 O639 2.117 . S
C614 O636 1.234 . S
C614 O637 1.283 . S
C615 O627 1.281 . S
C615 O628 1.236 . S
C616 O638 1.240 . S
C616 O639 1.264 . S
O617 Mn612 2.095 . S
O617 C626 1.250 . S
O618 Mn613 2.121 . S
O618 C626 1.258 . S
C619 N620 1.326 . S
C619 C623 1.460 . S
C619 H625 0.929 . S
N620 Mn613 2.257 . S
N620 C619 1.326 . S
N620 C624 1.362 . S
C621 C622 1.258 . S
C621 C624 1.431 . S
C621 C641 1.449 . S
C622 C621 1.258 . S
C622 C623 1.477 . S
C622 H642 0.931 . S
C623 C619 1.460 . S
C623 C622 1.477 . S
C623 H643 0.930 . S
C624 N620 1.362 . S
C624 C621 1.431 . S
C624 C634 1.476 . S
H625 C619 0.929 . S
C626 O617 1.250 . S
C626 O618 1.258 . S
O627 Mn612 2.162 . S
O627 C615 1.281 . S
O628 Mn612 2.297 . S
O628 C615 1.236 . S
N629 Mn613 2.282 . S
N629 C630 1.328 . S
N629 C634 1.318 . S
C630 N629 1.328 . S
C630 C631 1.457 . S
C630 H635 0.929 . S
C631 C630 1.457 . S
C631 C632 1.291 . S
C631 H644 0.931 . S
C632 C631 1.291 . S
C632 C633 1.373 . S
C632 H645 0.929 . S
C633 C632 1.373 . S
C633 C634 1.396 . S
C633 C640 1.403 . S
C634 C624 1.476 . S
C634 N629 1.318 . S
C634 C633 1.396 . S
H635 C630 0.929 . S
O636 Mn612 2.385 . S
O636 C614 1.234 . S
O637 Mn612 2.209 . S
O637 Mn613 2.215 . S
O637 C614 1.283 . S
O638 Mn612 2.094 . S
O638 C616 1.240 . S
O639 Mn613 2.117 . S
O639 C616 1.264 . S
C640 C633 1.403 . S
C640 C641 1.399 . S
C640 H646 0.929 . S
C641 C621 1.449 . S
C641 C640 1.399 . S
C641 H647 0.930 . S
H642 C622 0.931 . S
H643 C623 0.930 . S
H644 C631 0.931 . S
H645 C632 0.929 . S
H646 C640 0.929 . S
H647 C641 0.930 . S
Mn648 O653 2.095 . S
Mn648 O663 2.162 . S
Mn648 O664 2.297 . S
Mn648 O672 2.385 1_554 S
Mn648 O673 2.209 . S
Mn648 O674 2.094 . S
Mn649 O654 2.121 . S
Mn649 N656 2.257 . S
Mn649 N665 2.282 . S
Mn649 O673 2.215 . S
Mn649 O675 2.117 . S
C650 O672 1.230 1_554 S
C650 O673 1.300 . S
C651 O663 1.281 . S
C651 O664 1.236 . S
C652 O674 1.240 . S
C652 O675 1.264 . S
O653 Mn648 2.095 . S
O653 C662 1.250 . S
O654 Mn649 2.121 . S
O654 C662 1.258 . S
C655 N656 1.326 . S
C655 C659 1.460 . S
C655 H661 0.929 . S
N656 Mn649 2.257 . S
N656 C655 1.326 . S
N656 C660 1.362 . S
C657 C658 1.258 . S
C657 C660 1.431 . S
C657 C677 1.449 1_554 S
C658 C657 1.258 . S
C658 C659 1.477 . S
C658 H678 0.931 . S
C659 C655 1.460 . S
C659 C658 1.477 . S
C659 H679 0.930 . S
C660 N656 1.362 . S
C660 C657 1.431 . S
C660 C670 1.476 1_554 S
H661 C655 0.929 . S
C662 O653 1.250 . S
C662 O654 1.258 . S
O663 Mn648 2.162 . S
O663 C651 1.281 . S
O664 Mn648 2.297 . S
O664 C651 1.236 . S
N665 Mn649 2.282 . S
N665 C666 1.328 1_554 S
N665 C670 1.318 1_554 S
C666 N665 1.328 1_556 S
C666 C667 1.457 . S
C666 H671 0.929 1_556 S
C667 C666 1.457 . S
C667 C668 1.291 . S
C667 H680 0.931 . S
C668 C667 1.291 . S
C668 C669 1.373 . S
C668 H681 0.929 . S
C669 C668 1.373 . S
C669 C670 1.396 . S
C669 C676 1.403 . S
C670 C660 1.476 1_556 S
C670 N665 1.318 1_556 S
C670 C669 1.396 . S
H671 C666 0.929 1_554 S
O672 Mn648 2.385 1_556 S
O672 C650 1.230 1_556 S
O673 Mn648 2.209 . S
O673 Mn649 2.215 . S
O673 C650 1.300 . S
O674 Mn648 2.094 . S
O674 C652 1.240 . S
O675 Mn649 2.117 . S
O675 C652 1.264 . S
C676 C669 1.403 . S
C676 C677 1.399 . S
C676 H682 0.929 . S
C677 C657 1.449 1_556 S
C677 C676 1.399 . S
C677 H683 0.930 . S
H678 C658 0.931 . S
H679 C659 0.930 . S
H680 C667 0.931 . S
H681 C668 0.929 . S
H682 C676 0.929 . S
H683 C677 0.930 . S
Mn684 O689 2.095 . S
Mn684 O699 2.162 . S
Mn684 O700 2.297 . S
Mn684 O708 2.385 . S
Mn684 O709 2.209 . S
Mn684 O710 2.094 . S
Mn685 O690 2.121 . S
Mn685 N692 2.257 . S
Mn685 N701 2.282 . S
Mn685 O709 2.215 . S
Mn685 O711 2.117 . S
C686 O708 1.234 . S
C686 O709 1.283 . S
C687 O699 1.281 . S
C687 O700 1.236 . S
C688 O710 1.240 . S
C688 O711 1.264 . S
O689 Mn684 2.095 . S
O689 C698 1.250 . S
O690 Mn685 2.121 . S
O690 C698 1.258 . S
C691 N692 1.326 1_655 S
C691 C695 1.460 . S
C691 H697 0.929 . S
N692 Mn685 2.257 . S
N692 C691 1.326 1_455 S
N692 C696 1.362 . S
C693 C694 1.258 . S
C693 C696 1.431 1_655 S
C693 C713 1.449 . S
C694 C693 1.258 . S
C694 C695 1.477 . S
C694 H714 0.931 . S
C695 C691 1.460 . S
C695 C694 1.477 . S
C695 H715 0.930 . S
C696 N692 1.362 . S
C696 C693 1.431 1_455 S
C696 C706 1.476 . S
H697 C691 0.929 . S
C698 O689 1.250 . S
C698 O690 1.258 . S
O699 Mn684 2.162 . S
O699 C687 1.281 . S
O700 Mn684 2.297 . S
O700 C687 1.236 . S
N701 Mn685 2.282 . S
N701 C702 1.328 . S
N701 C706 1.318 . S
C702 N701 1.328 . S
C702 C703 1.457 . S
C702 H707 0.929 . S
C703 C702 1.457 . S
C703 C704 1.291 . S
C703 H716 0.931 . S
C704 C703 1.291 . S
C704 C705 1.373 . S
C704 H717 0.929 . S
C705 C704 1.373 . S
C705 C706 1.396 . S
C705 C712 1.403 . S
C706 C696 1.476 . S
C706 N701 1.318 . S
C706 C705 1.396 . S
H707 C702 0.929 . S
O708 Mn684 2.385 . S
O708 C686 1.234 . S
O709 Mn684 2.209 . S
O709 Mn685 2.215 . S
O709 C686 1.283 . S
O710 Mn684 2.094 . S
O710 C688 1.240 . S
O711 Mn685 2.117 . S
O711 C688 1.264 . S
C712 C705 1.403 . S
C712 C713 1.399 1_455 S
C712 H718 0.929 . S
C713 C693 1.449 . S
C713 C712 1.399 1_655 S
C713 H719 0.930 . S
H714 C694 0.931 . S
H715 C695 0.930 . S
H716 C703 0.931 . S
H717 C704 0.929 . S
H718 C712 0.929 . S
H719 C713 0.930 . S
Mn720 O725 2.095 . S
Mn720 O735 2.162 . S
Mn720 O736 2.297 . S
Mn720 O744 2.385 1_556 S
Mn720 O745 2.209 . S
Mn720 O746 2.094 . S
Mn721 O726 2.121 . S
Mn721 N728 2.257 . S
Mn721 N737 2.282 . S
Mn721 O745 2.215 . S
Mn721 O747 2.117 . S
C722 O744 1.231 1_556 S
C722 O745 1.297 . S
C723 O735 1.281 . S
C723 O736 1.236 . S
C724 O746 1.240 . S
C724 O747 1.264 . S
O725 Mn720 2.095 . S
O725 C734 1.250 . S
O726 Mn721 2.121 . S
O726 C734 1.258 . S
C727 N728 1.326 . S
C727 C731 1.460 . S
C727 H733 0.929 . S
N728 Mn721 2.257 . S
N728 C727 1.326 . S
N728 C732 1.362 . S
C729 C730 1.258 . S
C729 C732 1.431 . S
C729 C749 1.449 1_556 S
C730 C729 1.258 . S
C730 C731 1.477 . S
C730 H750 0.931 . S
C731 C727 1.460 . S
C731 C730 1.477 . S
C731 H751 0.930 . S
C732 N728 1.362 . S
C732 C729 1.431 . S
C732 C742 1.476 1_556 S
H733 C727 0.929 . S
C734 O725 1.250 . S
C734 O726 1.258 . S
O735 Mn720 2.162 . S
O735 C723 1.281 . S
O736 Mn720 2.297 . S
O736 C723 1.236 . S
N737 Mn721 2.282 . S
N737 C738 1.328 1_556 S
N737 C742 1.318 1_556 S
C738 N737 1.328 1_554 S
C738 C739 1.457 . S
C738 H743 0.929 1_554 S
C739 C738 1.457 . S
C739 C740 1.291 . S
C739 H752 0.931 . S
C740 C739 1.291 . S
C740 C741 1.373 . S
C740 H753 0.929 . S
C741 C740 1.373 . S
C741 C742 1.396 . S
C741 C748 1.403 . S
C742 C732 1.476 1_554 S
C742 N737 1.318 1_554 S
C742 C741 1.396 . S
H743 C738 0.929 1_556 S
O744 Mn720 2.385 1_554 S
O744 C722 1.231 1_554 S
O745 Mn720 2.209 . S
O745 Mn721 2.215 . S
O745 C722 1.297 . S
O746 Mn720 2.094 . S
O746 C724 1.240 . S
O747 Mn721 2.117 . S
O747 C724 1.264 . S
C748 C741 1.403 . S
C748 C749 1.399 . S
C748 H754 0.929 . S
C749 C729 1.449 1_554 S
C749 C748 1.399 . S
C749 H755 0.930 . S
H750 C730 0.931 . S
H751 C731 0.930 . S
H752 C739 0.931 . S
H753 C740 0.929 . S
H754 C748 0.929 . S
H755 C749 0.930 . S
Mn756 O761 2.095 . S
Mn756 O771 2.162 . S
Mn756 O772 2.297 . S
Mn756 O780 2.385 . S
Mn756 O781 2.209 . S
Mn756 O782 2.094 . S
Mn757 O762 2.121 . S
Mn757 N764 2.257 . S
Mn757 N773 2.282 . S
Mn757 O781 2.215 . S
Mn757 O783 2.117 . S
C758 O780 1.234 . S
C758 O781 1.283 . S
C759 O771 1.281 . S
C759 O772 1.236 . S
C760 O782 1.240 . S
C760 O783 1.264 . S
O761 Mn756 2.095 . S
O761 C770 1.250 . S
O762 Mn757 2.121 . S
O762 C770 1.258 . S
C763 N764 1.326 1_655 S
C763 C767 1.460 . S
C763 H769 0.929 . S
N764 Mn757 2.257 . S
N764 C763 1.326 1_455 S
N764 C768 1.362 . S
C765 C766 1.258 . S
C765 C768 1.431 1_655 S
C765 C785 1.449 . S
C766 C765 1.258 . S
C766 C767 1.477 . S
C766 H786 0.931 . S
C767 C763 1.460 . S
C767 C766 1.477 . S
C767 H787 0.930 . S
C768 N764 1.362 . S
C768 C765 1.431 1_455 S
C768 C778 1.476 . S
H769 C763 0.929 . S
C770 O761 1.250 . S
C770 O762 1.258 . S
O771 Mn756 2.162 . S
O771 C759 1.281 . S
O772 Mn756 2.297 . S
O772 C759 1.236 . S
N773 Mn757 2.282 . S
N773 C774 1.328 . S
N773 C778 1.318 . S
C774 N773 1.328 . S
C774 C775 1.457 . S
C774 H779 0.929 . S
C775 C774 1.457 . S
C775 C776 1.291 . S
C775 H788 0.931 . S
C776 C775 1.291 . S
C776 C777 1.373 . S
C776 H789 0.929 . S
C777 C776 1.373 . S
C777 C778 1.396 . S
C777 C784 1.403 . S
C778 C768 1.476 . S
C778 N773 1.318 . S
C778 C777 1.396 . S
H779 C774 0.929 . S
O780 Mn756 2.385 . S
O780 C758 1.234 . S
O781 Mn756 2.209 . S
O781 Mn757 2.215 . S
O781 C758 1.283 . S
O782 Mn756 2.094 . S
O782 C760 1.240 . S
O783 Mn757 2.117 . S
O783 C760 1.264 . S
C784 C777 1.403 . S
C784 C785 1.399 1_455 S
C784 H790 0.929 . S
C785 C765 1.449 . S
C785 C784 1.399 1_655 S
C785 H791 0.930 . S
H786 C766 0.931 . S
H787 C767 0.930 . S
H788 C775 0.931 . S
H789 C776 0.929 . S
H790 C784 0.929 . S
H791 C785 0.930 . S
Mn792 O797 2.095 . S
Mn792 O807 2.162 . S
Mn792 O808 2.297 . S
Mn792 O816 2.385 . S
Mn792 O817 2.209 . S
Mn792 O818 2.094 . S
Mn793 O798 2.121 . S
Mn793 N800 2.257 . S
Mn793 N809 2.282 . S
Mn793 O817 2.215 . S
Mn793 O819 2.117 . S
C794 O816 1.234 . S
C794 O817 1.283 . S
C795 O807 1.281 . S
C795 O808 1.236 . S
C796 O818 1.240 . S
C796 O819 1.264 . S
O797 Mn792 2.095 . S
O797 C806 1.250 . S
O798 Mn793 2.121 . S
O798 C806 1.258 . S
C799 N800 1.326 . S
C799 C803 1.460 . S
C799 H805 0.929 . S
N800 Mn793 2.257 . S
N800 C799 1.326 . S
N800 C804 1.362 . S
C801 C802 1.258 . S
C801 C804 1.431 . S
C801 C821 1.449 . S
C802 C801 1.258 . S
C802 C803 1.477 . S
C802 H822 0.931 . S
C803 C799 1.460 . S
C803 C802 1.477 . S
C803 H823 0.930 . S
C804 N800 1.362 . S
C804 C801 1.431 . S
C804 C814 1.476 . S
H805 C799 0.929 . S
C806 O797 1.250 . S
C806 O798 1.258 . S
O807 Mn792 2.162 . S
O807 C795 1.281 . S
O808 Mn792 2.297 . S
O808 C795 1.236 . S
N809 Mn793 2.282 . S
N809 C810 1.328 . S
N809 C814 1.318 . S
C810 N809 1.328 . S
C810 C811 1.457 . S
C810 H815 0.929 . S
C811 C810 1.457 . S
C811 C812 1.291 . S
C811 H824 0.931 . S
C812 C811 1.291 . S
C812 C813 1.373 . S
C812 H825 0.929 . S
C813 C812 1.373 . S
C813 C814 1.396 . S
C813 C820 1.403 . S
C814 C804 1.476 . S
C814 N809 1.318 . S
C814 C813 1.396 . S
H815 C810 0.929 . S
O816 Mn792 2.385 . S
O816 C794 1.234 . S
O817 Mn792 2.209 . S
O817 Mn793 2.215 . S
O817 C794 1.283 . S
O818 Mn792 2.094 . S
O818 C796 1.240 . S
O819 Mn793 2.117 . S
O819 C796 1.264 . S
C820 C813 1.403 . S
C820 C821 1.399 . S
C820 H826 0.929 . S
C821 C801 1.449 . S
C821 C820 1.399 . S
C821 H827 0.930 . S
H822 C802 0.931 . S
H823 C803 0.930 . S
H824 C811 0.931 . S
H825 C812 0.929 . S
H826 C820 0.929 . S
H827 C821 0.930 . S
Mn828 O833 2.095 . S
Mn828 O843 2.162 . S
Mn828 O844 2.297 . S
Mn828 O852 2.385 . S
Mn828 O853 2.209 . S
Mn828 O854 2.094 . S
Mn829 O834 2.121 . S
Mn829 N836 2.257 . S
Mn829 N845 2.282 . S
Mn829 O853 2.215 . S
Mn829 O855 2.117 . S
C830 O852 1.234 . S
C830 O853 1.283 . S
C831 O843 1.281 . S
C831 O844 1.236 . S
C832 O854 1.240 . S
C832 O855 1.264 . S
O833 Mn828 2.095 . S
O833 C842 1.250 . S
O834 Mn829 2.121 . S
O834 C842 1.258 . S
C835 N836 1.326 . S
C835 C839 1.460 . S
C835 H841 0.929 . S
N836 Mn829 2.257 . S
N836 C835 1.326 . S
N836 C840 1.362 . S
C837 C838 1.258 . S
C837 C840 1.431 . S
C837 C857 1.449 . S
C838 C837 1.258 . S
C838 C839 1.477 . S
C838 H858 0.931 . S
C839 C835 1.460 . S
C839 C838 1.477 . S
C839 H859 0.930 . S
C840 N836 1.362 . S
C840 C837 1.431 . S
C840 C850 1.476 . S
H841 C835 0.929 . S
C842 O833 1.250 . S
C842 O834 1.258 . S
O843 Mn828 2.162 . S
O843 C831 1.281 . S
O844 Mn828 2.297 . S
O844 C831 1.236 . S
N845 Mn829 2.282 . S
N845 C846 1.328 . S
N845 C850 1.318 . S
C846 N845 1.328 . S
C846 C847 1.457 . S
C846 H851 0.929 . S
C847 C846 1.457 . S
C847 C848 1.291 . S
C847 H860 0.931 . S
C848 C847 1.291 . S
C848 C849 1.373 . S
C848 H861 0.929 . S
C849 C848 1.373 . S
C849 C850 1.396 . S
C849 C856 1.403 . S
C850 C840 1.476 . S
C850 N845 1.318 . S
C850 C849 1.396 . S
H851 C846 0.929 . S
O852 Mn828 2.385 . S
O852 C830 1.234 . S
O853 Mn828 2.209 . S
O853 Mn829 2.215 . S
O853 C830 1.283 . S
O854 Mn828 2.094 . S
O854 C832 1.240 . S
O855 Mn829 2.117 . S
O855 C832 1.264 . S
C856 C849 1.403 . S
C856 C857 1.399 . S
C856 H862 0.929 . S
C857 C837 1.449 . S
C857 C856 1.399 . S
C857 H863 0.930 . S
H858 C838 0.931 . S
H859 C839 0.930 . S
H860 C847 0.931 . S
H861 C848 0.929 . S
H862 C856 0.929 . S
H863 C857 0.930 . S
Mn864 O869 2.095 . S
Mn864 O879 2.162 . S
Mn864 O880 2.297 . S
Mn864 O888 2.385 . S
Mn864 O889 2.209 . S
Mn864 O890 2.094 . S
Mn865 O870 2.121 . S
Mn865 N872 2.257 . S
Mn865 N881 2.282 . S
Mn865 O889 2.215 . S
Mn865 O891 2.117 . S
C866 O888 1.234 . S
C866 O889 1.283 . S
C867 O879 1.281 . S
C867 O880 1.236 . S
C868 O890 1.240 . S
C868 O891 1.264 . S
O869 Mn864 2.095 . S
O869 C878 1.250 . S
O870 Mn865 2.121 . S
O870 C878 1.258 . S
C871 N872 1.326 . S
C871 C875 1.460 . S
C871 H877 0.929 . S
N872 Mn865 2.257 . S
N872 C871 1.326 . S
N872 C876 1.362 . S
C873 C874 1.258 . S
C873 C876 1.431 . S
C873 C893 1.449 . S
C874 C873 1.258 . S
C874 C875 1.477 . S
C874 H894 0.931 . S
C875 C871 1.460 . S
C875 C874 1.477 . S
C875 H895 0.930 . S
C876 N872 1.362 . S
C876 C873 1.431 . S
C876 C886 1.476 . S
H877 C871 0.929 . S
C878 O869 1.250 . S
C878 O870 1.258 . S
O879 Mn864 2.162 . S
O879 C867 1.281 . S
O880 Mn864 2.297 . S
O880 C867 1.236 . S
N881 Mn865 2.282 . S
N881 C882 1.328 . S
N881 C886 1.318 . S
C882 N881 1.328 . S
C882 C883 1.457 . S
C882 H887 0.929 . S
C883 C882 1.457 . S
C883 C884 1.291 . S
C883 H896 0.931 . S
C884 C883 1.291 . S
C884 C885 1.373 . S
C884 H897 0.929 . S
C885 C884 1.373 . S
C885 C886 1.396 . S
C885 C892 1.403 . S
C886 C876 1.476 . S
C886 N881 1.318 . S
C886 C885 1.396 . S
H887 C882 0.929 . S
O888 Mn864 2.385 . S
O888 C866 1.234 . S
O889 Mn864 2.209 . S
O889 Mn865 2.215 . S
O889 C866 1.283 . S
O890 Mn864 2.094 . S
O890 C868 1.240 . S
O891 Mn865 2.117 . S
O891 C868 1.264 . S
C892 C885 1.403 . S
C892 C893 1.399 . S
C892 H898 0.929 . S
C893 C873 1.449 . S
C893 C892 1.399 . S
C893 H899 0.930 . S
H894 C874 0.931 . S
H895 C875 0.930 . S
H896 C883 0.931 . S
H897 C884 0.929 . S
H898 C892 0.929 . S
H899 C893 0.930 . S
Mn900 O905 2.095 . S
Mn900 O915 2.162 . S
Mn900 O916 2.297 . S
Mn900 O924 2.385 . S
Mn900 O925 2.209 . S
Mn900 O926 2.094 . S
Mn901 O906 2.121 . S
Mn901 N908 2.257 . S
Mn901 N917 2.282 . S
Mn901 O925 2.215 . S
Mn901 O927 2.117 . S
C902 O924 1.234 . S
C902 O925 1.283 . S
C903 O915 1.281 . S
C903 O916 1.236 . S
C904 O926 1.240 . S
C904 O927 1.264 . S
O905 Mn900 2.095 . S
O905 C914 1.250 . S
O906 Mn901 2.121 . S
O906 C914 1.258 . S
C907 N908 1.326 . S
C907 C911 1.460 . S
C907 H913 0.929 . S
N908 Mn901 2.257 . S
N908 C907 1.326 . S
N908 C912 1.362 . S
C909 C910 1.258 . S
C909 C912 1.431 . S
C909 C929 1.449 . S
C910 C909 1.258 . S
C910 C911 1.477 . S
C910 H930 0.931 . S
C911 C907 1.460 . S
C911 C910 1.477 . S
C911 H931 0.930 . S
C912 N908 1.362 . S
C912 C909 1.431 . S
C912 C922 1.476 . S
H913 C907 0.929 . S
C914 O905 1.250 . S
C914 O906 1.258 . S
O915 Mn900 2.162 . S
O915 C903 1.281 . S
O916 Mn900 2.297 . S
O916 C903 1.236 . S
N917 Mn901 2.282 . S
N917 C918 1.328 . S
N917 C922 1.318 . S
C918 N917 1.328 . S
C918 C919 1.457 . S
C918 H923 0.929 . S
C919 C918 1.457 . S
C919 C920 1.291 . S
C919 H932 0.931 . S
C920 C919 1.291 . S
C920 C921 1.373 . S
C920 H933 0.929 . S
C921 C920 1.373 . S
C921 C922 1.396 . S
C921 C928 1.403 . S
C922 C912 1.476 . S
C922 N917 1.318 . S
C922 C921 1.396 . S
H923 C918 0.929 . S
O924 Mn900 2.385 . S
O924 C902 1.234 . S
O925 Mn900 2.209 . S
O925 Mn901 2.215 . S
O925 C902 1.283 . S
O926 Mn900 2.094 . S
O926 C904 1.240 . S
O927 Mn901 2.117 . S
O927 C904 1.264 . S
C928 C921 1.403 . S
C928 C929 1.399 . S
C928 H934 0.929 . S
C929 C909 1.449 . S
C929 C928 1.399 . S
C929 H935 0.930 . S
H930 C910 0.931 . S
H931 C911 0.930 . S
H932 C919 0.931 . S
H933 C920 0.929 . S
H934 C928 0.929 . S
H935 C929 0.930 . S
Mn936 O941 2.095 . S
Mn936 O951 2.162 . S
Mn936 O952 2.297 . S
Mn936 O960 2.385 1_556 S
Mn936 O961 2.209 . S
Mn936 O962 2.094 . S
Mn937 O942 2.121 . S
Mn937 N944 2.257 . S
Mn937 N953 2.282 . S
Mn937 O961 2.215 . S
Mn937 O963 2.117 . S
C938 O960 1.230 1_556 S
C938 O961 1.300 . S
C939 O951 1.281 . S
C939 O952 1.236 . S
C940 O962 1.240 . S
C940 O963 1.264 . S
O941 Mn936 2.095 . S
O941 C950 1.250 . S
O942 Mn937 2.121 . S
O942 C950 1.258 . S
C943 N944 1.326 . S
C943 C947 1.460 . S
C943 H949 0.929 . S
N944 Mn937 2.257 . S
N944 C943 1.326 . S
N944 C948 1.362 . S
C945 C946 1.258 . S
C945 C948 1.431 . S
C945 C965 1.449 1_556 S
C946 C945 1.258 . S
C946 C947 1.477 . S
C946 H966 0.931 . S
C947 C943 1.460 . S
C947 C946 1.477 . S
C947 H967 0.930 . S
C948 N944 1.362 . S
C948 C945 1.431 . S
C948 C958 1.476 1_556 S
H949 C943 0.929 . S
C950 O941 1.250 . S
C950 O942 1.258 . S
O951 Mn936 2.162 . S
O951 C939 1.281 . S
O952 Mn936 2.297 . S
O952 C939 1.236 . S
N953 Mn937 2.282 . S
N953 C954 1.328 1_556 S
N953 C958 1.318 1_556 S
C954 N953 1.328 1_554 S
C954 C955 1.457 . S
C954 H959 0.929 1_554 S
C955 C954 1.457 . S
C955 C956 1.291 . S
C955 H968 0.931 . S
C956 C955 1.291 . S
C956 C957 1.373 . S
C956 H969 0.929 . S
C957 C956 1.373 . S
C957 C958 1.396 . S
C957 C964 1.403 . S
C958 C948 1.476 1_554 S
C958 N953 1.318 1_554 S
C958 C957 1.396 . S
H959 C954 0.929 1_556 S
O960 Mn936 2.385 1_554 S
O960 C938 1.230 1_554 S
O961 Mn936 2.209 . S
O961 Mn937 2.215 . S
O961 C938 1.300 . S
O962 Mn936 2.094 . S
O962 C940 1.240 . S
O963 Mn937 2.117 . S
O963 C940 1.264 . S
C964 C957 1.403 . S
C964 C965 1.399 . S
C964 H970 0.929 . S
C965 C945 1.449 1_554 S
C965 C964 1.399 . S
C965 H971 0.930 . S
H966 C946 0.931 . S
H967 C947 0.930 . S
H968 C955 0.931 . S
H969 C956 0.929 . S
H970 C964 0.929 . S
H971 C965 0.930 . S
Mn972 O977 2.095 . S
Mn972 O987 2.162 . S
Mn972 O988 2.297 . S
Mn972 O996 2.385 . S
Mn972 O997 2.209 . S
Mn972 O998 2.094 . S
Mn973 O978 2.121 . S
Mn973 N980 2.257 . S
Mn973 N989 2.282 . S
Mn973 O997 2.215 . S
Mn973 O999 2.117 . S
C974 O996 1.234 . S
C974 O997 1.283 . S
C975 O987 1.281 . S
C975 O988 1.236 . S
C976 O998 1.240 . S
C976 O999 1.264 . S
O977 Mn972 2.095 . S
O977 C986 1.250 . S
O978 Mn973 2.121 . S
O978 C986 1.258 . S
C979 N980 1.326 1_455 S
C979 C983 1.460 . S
C979 H985 0.929 . S
N980 Mn973 2.257 . S
N980 C979 1.326 1_655 S
N980 C984 1.362 . S
C981 C982 1.258 . S
C981 C984 1.431 1_455 S
C981 C1001 1.449 . S
C982 C981 1.258 . S
C982 C983 1.477 . S
C982 H1002 0.931 . S
C983 C979 1.460 . S
C983 C982 1.477 . S
C983 H1003 0.930 . S
C984 N980 1.362 . S
C984 C981 1.431 1_655 S
C984 C994 1.476 . S
H985 C979 0.929 . S
C986 O977 1.250 . S
C986 O978 1.258 . S
O987 Mn972 2.162 . S
O987 C975 1.281 . S
O988 Mn972 2.297 . S
O988 C975 1.236 . S
N989 Mn973 2.282 . S
N989 C990 1.328 . S
N989 C994 1.318 . S
C990 N989 1.328 . S
C990 C991 1.457 . S
C990 H995 0.929 . S
C991 C990 1.457 . S
C991 C992 1.291 . S
C991 H1004 0.931 . S
C992 C991 1.291 . S
C992 C993 1.373 . S
C992 H1005 0.929 . S
C993 C992 1.373 . S
C993 C994 1.396 . S
C993 C1000 1.403 . S
C994 C984 1.476 . S
C994 N989 1.318 . S
C994 C993 1.396 . S
H995 C990 0.929 . S
O996 Mn972 2.385 . S
O996 C974 1.234 . S
O997 Mn972 2.209 . S
O997 Mn973 2.215 . S
O997 C974 1.283 . S
O998 Mn972 2.094 . S
O998 C976 1.240 . S
O999 Mn973 2.117 . S
O999 C976 1.264 . S
C1000 C993 1.403 . S
C1000 C1001 1.399 1_655 S
C1000 H1006 0.929 . S
C1001 C981 1.449 . S
C1001 C1000 1.399 1_455 S
C1001 H1007 0.930 . S
H1002 C982 0.931 . S
H1003 C983 0.930 . S
H1004 C991 0.931 . S
H1005 C992 0.929 . S
H1006 C1000 0.929 . S
H1007 C1001 0.930 . S
Mn1008 O1013 2.095 . S
Mn1008 O1023 2.162 . S
Mn1008 O1024 2.297 . S
Mn1008 O1032 2.385 1_554 S
Mn1008 O1033 2.209 . S
Mn1008 O1034 2.094 . S
Mn1009 O1014 2.121 . S
Mn1009 N1016 2.257 . S
Mn1009 N1025 2.282 . S
Mn1009 O1033 2.215 . S
Mn1009 O1035 2.117 . S
C1010 O1032 1.231 1_554 S
C1010 O1033 1.297 . S
C1011 O1023 1.281 . S
C1011 O1024 1.236 . S
C1012 O1034 1.240 . S
C1012 O1035 1.264 . S
O1013 Mn1008 2.095 . S
O1013 C1022 1.250 . S
O1014 Mn1009 2.121 . S
O1014 C1022 1.258 . S
C1015 N1016 1.326 . S
C1015 C1019 1.460 . S
C1015 H1021 0.929 . S
N1016 Mn1009 2.257 . S
N1016 C1015 1.326 . S
N1016 C1020 1.362 . S
C1017 C1018 1.258 . S
C1017 C1020 1.431 . S
C1017 C1037 1.449 1_554 S
C1018 C1017 1.258 . S
C1018 C1019 1.477 . S
C1018 H1038 0.931 . S
C1019 C1015 1.460 . S
C1019 C1018 1.477 . S
C1019 H1039 0.930 . S
C1020 N1016 1.362 . S
C1020 C1017 1.431 . S
C1020 C1030 1.476 1_554 S
H1021 C1015 0.929 . S
C1022 O1013 1.250 . S
C1022 O1014 1.258 . S
O1023 Mn1008 2.162 . S
O1023 C1011 1.281 . S
O1024 Mn1008 2.297 . S
O1024 C1011 1.236 . S
N1025 Mn1009 2.282 . S
N1025 C1026 1.328 1_554 S
N1025 C1030 1.318 1_554 S
C1026 N1025 1.328 1_556 S
C1026 C1027 1.457 . S
C1026 H1031 0.929 1_556 S
C1027 C1026 1.457 . S
C1027 C1028 1.291 . S
C1027 H1040 0.931 . S
C1028 C1027 1.291 . S
C1028 C1029 1.373 . S
C1028 H1041 0.929 . S
C1029 C1028 1.373 . S
C1029 C1030 1.396 . S
C1029 C1036 1.403 . S
C1030 C1020 1.476 1_556 S
C1030 N1025 1.318 1_556 S
C1030 C1029 1.396 . S
H1031 C1026 0.929 1_554 S
O1032 Mn1008 2.385 1_556 S
O1032 C1010 1.231 1_556 S
O1033 Mn1008 2.209 . S
O1033 Mn1009 2.215 . S
O1033 C1010 1.297 . S
O1034 Mn1008 2.094 . S
O1034 C1012 1.240 . S
O1035 Mn1009 2.117 . S
O1035 C1012 1.264 . S
C1036 C1029 1.403 . S
C1036 C1037 1.399 . S
C1036 H1042 0.929 . S
C1037 C1017 1.449 1_556 S
C1037 C1036 1.399 . S
C1037 H1043 0.930 . S
H1038 C1018 0.931 . S
H1039 C1019 0.930 . S
H1040 C1027 0.931 . S
H1041 C1028 0.929 . S
H1042 C1036 0.929 . S
H1043 C1037 0.930 . S
Mn1044 O1049 2.095 . S
Mn1044 O1059 2.162 . S
Mn1044 O1060 2.297 . S
Mn1044 O1068 2.385 . S
Mn1044 O1069 2.209 . S
Mn1044 O1070 2.094 . S
Mn1045 O1050 2.121 . S
Mn1045 N1052 2.257 . S
Mn1045 N1061 2.282 . S
Mn1045 O1069 2.215 . S
Mn1045 O1071 2.117 . S
C1046 O1068 1.234 . S
C1046 O1069 1.283 . S
C1047 O1059 1.281 . S
C1047 O1060 1.236 . S
C1048 O1070 1.240 . S
C1048 O1071 1.264 . S
O1049 Mn1044 2.095 . S
O1049 C1058 1.250 . S
O1050 Mn1045 2.121 . S
O1050 C1058 1.258 . S
C1051 N1052 1.326 1_455 S
C1051 C1055 1.460 . S
C1051 H1057 0.929 . S
N1052 Mn1045 2.257 . S
N1052 C1051 1.326 1_655 S
N1052 C1056 1.362 . S
C1053 C1054 1.258 . S
C1053 C1056 1.431 1_455 S
C1053 C1073 1.449 . S
C1054 C1053 1.258 . S
C1054 C1055 1.477 . S
C1054 H1074 0.931 . S
C1055 C1051 1.460 . S
C1055 C1054 1.477 . S
C1055 H1075 0.930 . S
C1056 N1052 1.362 . S
C1056 C1053 1.431 1_655 S
C1056 C1066 1.476 . S
H1057 C1051 0.929 . S
C1058 O1049 1.250 . S
C1058 O1050 1.258 . S
O1059 Mn1044 2.162 . S
O1059 C1047 1.281 . S
O1060 Mn1044 2.297 . S
O1060 C1047 1.236 . S
N1061 Mn1045 2.282 . S
N1061 C1062 1.328 . S
N1061 C1066 1.318 . S
C1062 N1061 1.328 . S
C1062 C1063 1.457 . S
C1062 H1067 0.929 . S
C1063 C1062 1.457 . S
C1063 C1064 1.291 . S
C1063 H1076 0.931 . S
C1064 C1063 1.291 . S
C1064 C1065 1.373 . S
C1064 H1077 0.929 . S
C1065 C1064 1.373 . S
C1065 C1066 1.396 . S
C1065 C1072 1.403 . S
C1066 C1056 1.476 . S
C1066 N1061 1.318 . S
C1066 C1065 1.396 . S
H1067 C1062 0.929 . S
O1068 Mn1044 2.385 . S
O1068 C1046 1.234 . S
O1069 Mn1044 2.209 . S
O1069 Mn1045 2.215 . S
O1069 C1046 1.283 . S
O1070 Mn1044 2.094 . S
O1070 C1048 1.240 . S
O1071 Mn1045 2.117 . S
O1071 C1048 1.264 . S
C1072 C1065 1.403 . S
C1072 C1073 1.399 1_655 S
C1072 H1078 0.929 . S
C1073 C1053 1.449 . S
C1073 C1072 1.399 1_455 S
C1073 H1079 0.930 . S
H1074 C1054 0.931 . S
H1075 C1055 0.930 . S
H1076 C1063 0.931 . S
H1077 C1064 0.929 . S
H1078 C1072 0.929 . S
H1079 C1073 0.930 . S
Mn1080 O1085 2.095 . S
Mn1080 O1095 2.162 . S
Mn1080 O1096 2.297 . S
Mn1080 O1104 2.385 . S
Mn1080 O1105 2.209 . S
Mn1080 O1106 2.094 . S
Mn1081 O1086 2.121 . S
Mn1081 N1088 2.257 . S
Mn1081 N1097 2.282 . S
Mn1081 O1105 2.215 . S
Mn1081 O1107 2.117 . S
C1082 O1104 1.234 . S
C1082 O1105 1.283 . S
C1083 O1095 1.281 . S
C1083 O1096 1.236 . S
C1084 O1106 1.240 . S
C1084 O1107 1.264 . S
O1085 Mn1080 2.095 . S
O1085 C1094 1.250 . S
O1086 Mn1081 2.121 . S
O1086 C1094 1.258 . S
C1087 N1088 1.326 . S
C1087 C1091 1.460 . S
C1087 H1093 0.929 . S
N1088 Mn1081 2.257 . S
N1088 C1087 1.326 . S
N1088 C1092 1.362 . S
C1089 C1090 1.258 . S
C1089 C1092 1.431 . S
C1089 C1109 1.449 . S
C1090 C1089 1.258 . S
C1090 C1091 1.477 . S
C1090 H1110 0.931 . S
C1091 C1087 1.460 . S
C1091 C1090 1.477 . S
C1091 H1111 0.930 . S
C1092 N1088 1.362 . S
C1092 C1089 1.431 . S
C1092 C1102 1.476 . S
H1093 C1087 0.929 . S
C1094 O1085 1.250 . S
C1094 O1086 1.258 . S
O1095 Mn1080 2.162 . S
O1095 C1083 1.281 . S
O1096 Mn1080 2.297 . S
O1096 C1083 1.236 . S
N1097 Mn1081 2.282 . S
N1097 C1098 1.328 . S
N1097 C1102 1.318 . S
C1098 N1097 1.328 . S
C1098 C1099 1.457 . S
C1098 H1103 0.929 . S
C1099 C1098 1.457 . S
C1099 C1100 1.291 . S
C1099 H1112 0.931 . S
C1100 C1099 1.291 . S
C1100 C1101 1.373 . S
C1100 H1113 0.929 . S
C1101 C1100 1.373 . S
C1101 C1102 1.396 . S
C1101 C1108 1.403 . S
C1102 C1092 1.476 . S
C1102 N1097 1.318 . S
C1102 C1101 1.396 . S
H1103 C1098 0.929 . S
O1104 Mn1080 2.385 . S
O1104 C1082 1.234 . S
O1105 Mn1080 2.209 . S
O1105 Mn1081 2.215 . S
O1105 C1082 1.283 . S
O1106 Mn1080 2.094 . S
O1106 C1084 1.240 . S
O1107 Mn1081 2.117 . S
O1107 C1084 1.264 . S
C1108 C1101 1.403 . S
C1108 C1109 1.399 . S
C1108 H1114 0.929 . S
C1109 C1089 1.449 . S
C1109 C1108 1.399 . S
C1109 H1115 0.930 . S
H1110 C1090 0.931 . S
H1111 C1091 0.930 . S
H1112 C1099 0.931 . S
H1113 C1100 0.929 . S
H1114 C1108 0.929 . S
H1115 C1109 0.930 . S
Mn1116 O1121 2.095 . S
Mn1116 O1131 2.162 . S
Mn1116 O1132 2.297 . S
Mn1116 O1140 2.385 . S
Mn1116 O1141 2.209 . S
Mn1116 O1142 2.094 . S
Mn1117 O1122 2.121 . S
Mn1117 N1124 2.257 . S
Mn1117 N1133 2.282 . S
Mn1117 O1141 2.215 . S
Mn1117 O1143 2.117 . S
C1118 O1140 1.234 . S
C1118 O1141 1.283 . S
C1119 O1131 1.281 . S
C1119 O1132 1.236 . S
C1120 O1142 1.240 . S
C1120 O1143 1.264 . S
O1121 Mn1116 2.095 . S
O1121 C1130 1.250 . S
O1122 Mn1117 2.121 . S
O1122 C1130 1.258 . S
C1123 N1124 1.326 . S
C1123 C1127 1.460 . S
C1123 H1129 0.929 . S
N1124 Mn1117 2.257 . S
N1124 C1123 1.326 . S
N1124 C1128 1.362 . S
C1125 C1126 1.258 . S
C1125 C1128 1.431 . S
C1125 C1145 1.449 . S
C1126 C1125 1.258 . S
C1126 C1127 1.477 . S
C1126 H1146 0.931 . S
C1127 C1123 1.460 . S
C1127 C1126 1.477 . S
C1127 H1147 0.930 . S
C1128 N1124 1.362 . S
C1128 C1125 1.431 . S
C1128 C1138 1.476 . S
H1129 C1123 0.929 . S
C1130 O1121 1.250 . S
C1130 O1122 1.258 . S
O1131 Mn1116 2.162 . S
O1131 C1119 1.281 . S
O1132 Mn1116 2.297 . S
O1132 C1119 1.236 . S
N1133 Mn1117 2.282 . S
N1133 C1134 1.328 . S
N1133 C1138 1.318 . S
C1134 N1133 1.328 . S
C1134 C1135 1.457 . S
C1134 H1139 0.929 . S
C1135 C1134 1.457 . S
C1135 C1136 1.291 . S
C1135 H1148 0.931 . S
C1136 C1135 1.291 . S
C1136 C1137 1.373 . S
C1136 H1149 0.929 . S
C1137 C1136 1.373 . S
C1137 C1138 1.396 . S
C1137 C1144 1.403 . S
C1138 C1128 1.476 . S
C1138 N1133 1.318 . S
C1138 C1137 1.396 . S
H1139 C1134 0.929 . S
O1140 Mn1116 2.385 . S
O1140 C1118 1.234 . S
O1141 Mn1116 2.209 . S
O1141 Mn1117 2.215 . S
O1141 C1118 1.283 . S
O1142 Mn1116 2.094 . S
O1142 C1120 1.240 . S
O1143 Mn1117 2.117 . S
O1143 C1120 1.264 . S
C1144 C1137 1.403 . S
C1144 C1145 1.399 . S
C1144 H1150 0.929 . S
C1145 C1125 1.449 . S
C1145 C1144 1.399 . S
C1145 H1151 0.930 . S
H1146 C1126 0.931 . S
H1147 C1127 0.930 . S
H1148 C1135 0.931 . S
H1149 C1136 0.929 . S
H1150 C1144 0.929 . S
H1151 C1145 0.930 . S
H1152 C1160 0.929 1_554 S
H1153 C1162 0.930 . S
H1154 C1164 0.930 . S
H1155 C1167 0.929 . S
H1156 C1170 0.930 . S
H1157 C1172 0.960 . S
H1158 C1172 0.960 . S
H1159 C1172 0.960 . S
C1160 H1152 0.929 1_556 S
C1160 C1161 1.377 . S
C1160 C1162 1.384 1_556 S
C1161 C1160 1.377 . S
C1161 C1167 1.390 . S
C1162 H1153 0.930 . S
C1162 C1160 1.384 1_554 S
C1162 C1163 1.372 1_554 S
C1163 C1162 1.372 1_556 S
C1163 C1164 1.400 . S
C1163 C1168 1.490 . S
C1164 H1154 0.930 . S
C1164 C1163 1.400 . S
C1164 C1167 1.386 . S
H1165 C1181 0.930 1_556 S
H1166 C1182 0.931 . S
C1167 H1155 0.929 . S
C1167 C1161 1.390 . S
C1167 C1164 1.386 . S
C1168 C1163 1.490 . S
C1168 C1170 1.395 1_556 S
C1168 C1171 1.403 . S
H1169 C1175 0.930 1_556 S
C1170 H1156 0.930 . S
C1170 C1168 1.395 1_554 S
C1170 C1173 1.403 . S
C1171 C1168 1.403 . S
C1171 C1172 1.524 . S
C1171 C1175 1.398 1_556 S
C1172 H1157 0.960 . S
C1172 H1158 0.960 . S
C1172 H1159 0.960 . S
C1172 C1171 1.524 . S
C1173 C1170 1.403 . S
C1173 C1174 1.392 . S
C1173 C1177 1.495 . S
C1174 C1173 1.392 . S
C1174 C1175 1.387 . S
C1174 C1176 1.478 . S
C1175 H1169 0.930 1_554 S
C1175 C1171 1.398 1_554 S
C1175 C1174 1.387 . S
C1176 C1174 1.478 . S
C1176 C1178 1.381 . S
C1176 C1182 1.383 1_554 S
C1177 C1173 1.495 . S
C1177 H1183 0.959 . S
C1177 H1184 0.961 . S
C1177 H1185 0.960 . S
C1178 C1176 1.381 . S
C1178 C1179 1.394 . S
C1178 H1186 0.930 . S
C1179 C1178 1.394 . S
C1179 C1180 1.383 . S
C1179 H1187 0.929 . S
C1180 C1179 1.383 . S
C1180 C1181 1.377 . S
C1181 H1165 0.930 1_554 S
C1181 C1180 1.377 . S
C1181 C1182 1.379 1_554 S
C1182 H1166 0.931 . S
C1182 C1176 1.383 1_556 S
C1182 C1181 1.379 1_556 S
H1183 C1177 0.959 . S
H1184 C1177 0.961 . S
H1185 C1177 0.960 . S
H1186 C1178 0.930 . S
H1187 C1179 0.929 . S
H1188 C1196 0.929 . S
H1189 C1198 0.930 . S
H1190 C1200 0.930 . S
H1191 C1203 0.929 . S
H1192 C1206 0.930 . S
H1193 C1208 0.960 . S
H1194 C1208 0.960 . S
H1195 C1208 0.960 . S
C1196 H1188 0.929 . S
C1196 C1197 1.377 . S
C1196 C1198 1.384 . S
C1197 C1196 1.377 . S
C1197 C1203 1.390 . S
C1198 H1189 0.930 . S
C1198 C1196 1.384 . S
C1198 C1199 1.372 . S
C1199 C1198 1.372 . S
C1199 C1200 1.400 . S
C1199 C1204 1.490 . S
C1200 H1190 0.930 . S
C1200 C1199 1.400 . S
C1200 C1203 1.386 . S
H1201 C1217 0.930 . S
H1202 C1218 0.931 . S
C1203 H1191 0.929 . S
C1203 C1197 1.390 . S
C1203 C1200 1.386 . S
C1204 C1199 1.490 . S
C1204 C1206 1.395 . S
C1204 C1207 1.403 . S
H1205 C1211 0.930 . S
C1206 H1192 0.930 . S
C1206 C1204 1.395 . S
C1206 C1209 1.403 1_565 S
C1207 C1204 1.403 . S
C1207 C1208 1.524 . S
C1207 C1211 1.400 1_565 S
C1208 H1193 0.960 . S
C1208 H1194 0.960 . S
C1208 H1195 0.960 . S
C1208 C1207 1.524 . S
C1209 C1206 1.403 1_545 S
C1209 C1210 1.392 . S
C1209 C1213 1.495 . S
C1210 C1209 1.392 . S
C1210 C1211 1.385 . S
C1210 C1212 1.478 . S
C1211 H1205 0.930 . S
C1211 C1207 1.400 1_545 S
C1211 C1210 1.385 . S
C1212 C1210 1.478 . S
C1212 C1214 1.381 . S
C1212 C1218 1.383 . S
C1213 C1209 1.495 . S
C1213 H1219 0.959 . S
C1213 H1220 0.961 . S
C1213 H1221 0.960 . S
C1214 C1212 1.381 . S
C1214 C1215 1.394 . S
C1214 H1222 0.930 . S
C1215 C1214 1.394 . S
C1215 C1216 1.383 . S
C1215 H1223 0.929 . S
C1216 C1215 1.383 . S
C1216 C1217 1.377 . S
C1217 H1201 0.930 . S
C1217 C1216 1.377 . S
C1217 C1218 1.379 . S
C1218 H1202 0.931 . S
C1218 C1212 1.383 . S
C1218 C1217 1.379 . S
H1219 C1213 0.959 . S
H1220 C1213 0.961 . S
H1221 C1213 0.960 . S
H1222 C1214 0.930 . S
H1223 C1215 0.929 . S
H1224 C1232 0.929 . S
H1225 C1234 0.930 . S
H1226 C1236 0.930 . S
H1227 C1239 0.929 . S
H1228 C1242 0.930 . S
H1229 C1244 0.960 . S
H1230 C1244 0.960 . S
H1231 C1244 0.960 . S
C1232 H1224 0.929 . S
C1232 C1233 1.377 . S
C1232 C1234 1.384 . S
C1233 C1232 1.377 . S
C1233 C1239 1.390 . S
C1234 H1225 0.930 . S
C1234 C1232 1.384 . S
C1234 C1235 1.372 . S
C1235 C1234 1.372 . S
C1235 C1236 1.400 . S
C1235 C1240 1.490 . S
C1236 H1226 0.930 . S
C1236 C1235 1.400 . S
C1236 C1239 1.386 . S
H1237 C1253 0.930 . S
H1238 C1254 0.931 . S
C1239 H1227 0.929 . S
C1239 C1233 1.390 . S
C1239 C1236 1.386 . S
C1240 C1235 1.490 . S
C1240 C1242 1.395 . S
C1240 C1243 1.403 . S
H1241 C1247 0.930 . S
C1242 H1228 0.930 . S
C1242 C1240 1.395 . S
C1242 C1245 1.403 . S
C1243 C1240 1.403 . S
C1243 C1244 1.524 . S
C1243 C1247 1.400 . S
C1244 H1229 0.960 . S
C1244 H1230 0.960 . S
C1244 H1231 0.960 . S
C1244 C1243 1.524 . S
C1245 C1242 1.403 . S
C1245 C1246 1.392 . S
C1245 C1249 1.495 . S
C1246 C1245 1.392 . S
C1246 C1247 1.385 . S
C1246 C1248 1.478 . S
C1247 H1241 0.930 . S
C1247 C1243 1.400 . S
C1247 C1246 1.385 . S
C1248 C1246 1.478 . S
C1248 C1250 1.381 . S
C1248 C1254 1.383 . S
C1249 C1245 1.495 . S
C1249 H1255 0.959 . S
C1249 H1256 0.961 . S
C1249 H1257 0.960 . S
C1250 C1248 1.381 . S
C1250 C1251 1.394 . S
C1250 H1258 0.930 . S
C1251 C1250 1.394 . S
C1251 C1252 1.383 . S
C1251 H1259 0.929 . S
C1252 C1251 1.383 . S
C1252 C1253 1.377 . S
C1253 H1237 0.930 . S
C1253 C1252 1.377 . S
C1253 C1254 1.379 . S
C1254 H1238 0.931 . S
C1254 C1248 1.383 . S
C1254 C1253 1.379 . S
H1255 C1249 0.959 . S
H1256 C1249 0.961 . S
H1257 C1249 0.960 . S
H1258 C1250 0.930 . S
H1259 C1251 0.929 . S
H1260 C1268 0.929 . S
H1261 C1270 0.930 . S
H1262 C1272 0.930 . S
H1263 C1275 0.929 . S
H1264 C1278 0.930 . S
H1265 C1280 0.960 . S
H1266 C1280 0.960 . S
H1267 C1280 0.960 . S
C1268 H1260 0.929 . S
C1268 C1269 1.377 . S
C1268 C1270 1.384 . S
C1269 C1268 1.377 . S
C1269 C1275 1.390 . S
C1270 H1261 0.930 . S
C1270 C1268 1.384 . S
C1270 C1271 1.372 . S
C1271 C1270 1.372 . S
C1271 C1272 1.400 . S
C1271 C1276 1.490 . S
C1272 H1262 0.930 . S
C1272 C1271 1.400 . S
C1272 C1275 1.386 . S
H1273 C1289 0.930 . S
H1274 C1290 0.931 . S
C1275 H1263 0.929 . S
C1275 C1269 1.390 . S
C1275 C1272 1.386 . S
C1276 C1271 1.490 . S
C1276 C1278 1.395 . S
C1276 C1279 1.403 . S
H1277 C1283 0.930 . S
C1278 H1264 0.930 . S
C1278 C1276 1.395 . S
C1278 C1281 1.403 1_545 S
C1279 C1276 1.403 . S
C1279 C1280 1.524 . S
C1279 C1283 1.400 1_545 S
C1280 H1265 0.960 . S
C1280 H1266 0.960 . S
C1280 H1267 0.960 . S
C1280 C1279 1.524 . S
C1281 C1278 1.403 1_565 S
C1281 C1282 1.392 . S
C1281 C1285 1.495 . S
C1282 C1281 1.392 . S
C1282 C1283 1.385 . S
C1282 C1284 1.478 . S
C1283 H1277 0.930 . S
C1283 C1279 1.400 1_565 S
C1283 C1282 1.385 . S
C1284 C1282 1.478 . S
C1284 C1286 1.381 . S
C1284 C1290 1.383 . S
C1285 C1281 1.495 . S
C1285 H1291 0.959 . S
C1285 H1292 0.961 . S
C1285 H1293 0.960 . S
C1286 C1284 1.381 . S
C1286 C1287 1.394 . S
C1286 H1294 0.930 . S
C1287 C1286 1.394 . S
C1287 C1288 1.383 . S
C1287 H1295 0.929 . S
C1288 C1287 1.383 . S
C1288 C1289 1.377 . S
C1289 H1273 0.930 . S
C1289 C1288 1.377 . S
C1289 C1290 1.379 . S
C1290 H1274 0.931 . S
C1290 C1284 1.383 . S
C1290 C1289 1.379 . S
H1291 C1285 0.959 . S
H1292 C1285 0.961 . S
H1293 C1285 0.960 . S
H1294 C1286 0.930 . S
H1295 C1287 0.929 . S
H1296 C1304 0.929 1_556 S
H1297 C1306 0.930 . S
H1298 C1308 0.930 . S
H1299 C1311 0.929 . S
H1300 C1314 0.930 . S
H1301 C1316 0.960 . S
H1302 C1316 0.960 1_556 S
H1303 C1316 0.960 . S
C1304 H1296 0.929 1_554 S
C1304 C1305 1.377 . S
C1304 C1306 1.384 1_554 S
C1305 C1304 1.377 . S
C1305 C1311 1.390 . S
C1306 H1297 0.930 . S
C1306 C1304 1.384 1_556 S
C1306 C1307 1.372 1_556 S
C1307 C1306 1.372 1_554 S
C1307 C1308 1.400 . S
C1307 C1312 1.490 . S
C1308 H1298 0.930 . S
C1308 C1307 1.400 . S
C1308 C1311 1.386 . S
H1309 C1325 0.930 1_554 S
H1310 C1326 0.931 . S
C1311 H1299 0.929 . S
C1311 C1305 1.390 . S
C1311 C1308 1.386 . S
C1312 C1307 1.490 . S
C1312 C1314 1.395 1_554 S
C1312 C1315 1.403 . S
H1313 C1319 0.930 . S
C1314 H1300 0.930 . S
C1314 C1312 1.395 1_556 S
C1314 C1317 1.403 . S
C1315 C1312 1.403 . S
C1315 C1316 1.524 . S
C1315 C1319 1.400 1_554 S
C1316 H1301 0.960 . S
C1316 H1302 0.960 1_554 S
C1316 H1303 0.960 . S
C1316 C1315 1.524 . S
C1317 C1314 1.403 . S
C1317 C1318 1.392 . S
C1317 C1321 1.495 . S
C1318 C1317 1.392 . S
C1318 C1319 1.385 . S
C1318 C1320 1.478 . S
C1319 H1313 0.930 . S
C1319 C1315 1.400 1_556 S
C1319 C1318 1.385 . S
C1320 C1318 1.478 . S
C1320 C1322 1.381 . S
C1320 C1326 1.383 1_556 S
C1321 C1317 1.495 . S
C1321 H1327 0.959 . S
C1321 H1328 0.961 . S
C1321 H1329 0.960 . S
C1322 C1320 1.381 . S
C1322 C1323 1.394 . S
C1322 H1330 0.930 . S
C1323 C1322 1.394 . S
C1323 C1324 1.383 . S
C1323 H1331 0.929 . S
C1324 C1323 1.383 . S
C1324 C1325 1.377 . S
C1325 H1309 0.930 1_556 S
C1325 C1324 1.377 . S
C1325 C1326 1.379 1_556 S
C1326 H1310 0.931 . S
C1326 C1320 1.383 1_554 S
C1326 C1325 1.379 1_554 S
H1327 C1321 0.959 . S
H1328 C1321 0.961 . S
H1329 C1321 0.960 . S
H1330 C1322 0.930 . S
H1331 C1323 0.929 . S
H1332 C1340 0.929 . S
H1333 C1342 0.930 . S
H1334 C1344 0.930 . S
H1335 C1347 0.929 . S
H1336 C1350 0.930 . S
H1337 C1352 0.960 1_545 S
H1338 C1352 0.960 . S
H1339 C1352 0.960 . S
C1340 H1332 0.929 . S
C1340 C1341 1.377 . S
C1340 C1342 1.384 . S
C1341 C1340 1.377 . S
C1341 C1347 1.390 . S
C1342 H1333 0.930 . S
C1342 C1340 1.384 . S
C1342 C1343 1.372 . S
C1343 C1342 1.372 . S
C1343 C1344 1.400 . S
C1343 C1348 1.490 . S
C1344 H1334 0.930 . S
C1344 C1343 1.400 . S
C1344 C1347 1.386 . S
H1345 C1361 0.930 . S
H1346 C1362 0.931 . S
C1347 H1335 0.929 . S
C1347 C1341 1.390 . S
C1347 C1344 1.386 . S
C1348 C1343 1.490 . S
C1348 C1350 1.395 . S
C1348 C1351 1.403 . S
H1349 C1355 0.930 . S
C1350 H1336 0.930 . S
C1350 C1348 1.395 . S
C1350 C1353 1.403 1_565 S
C1351 C1348 1.403 . S
C1351 C1352 1.524 . S
C1351 C1355 1.400 1_565 S
C1352 H1337 0.960 1_565 S
C1352 H1338 0.960 . S
C1352 H1339 0.960 . S
C1352 C1351 1.524 . S
C1353 C1350 1.403 1_545 S
C1353 C1354 1.392 . S
C1353 C1357 1.495 . S
C1354 C1353 1.392 . S
C1354 C1355 1.385 . S
C1354 C1356 1.478 . S
C1355 H1349 0.930 . S
C1355 C1351 1.400 1_545 S
C1355 C1354 1.385 . S
C1356 C1354 1.478 . S
C1356 C1358 1.381 . S
C1356 C1362 1.383 . S
C1357 C1353 1.495 . S
C1357 H1363 0.959 1_545 S
C1357 H1364 0.961 . S
C1357 H1365 0.960 . S
C1358 C1356 1.381 . S
C1358 C1359 1.394 . S
C1358 H1366 0.930 . S
C1359 C1358 1.394 . S
C1359 C1360 1.383 . S
C1359 H1367 0.929 . S
C1360 C1359 1.383 . S
C1360 C1361 1.377 . S
C1361 H1345 0.930 . S
C1361 C1360 1.377 . S
C1361 C1362 1.379 . S
C1362 H1346 0.931 . S
C1362 C1356 1.383 . S
C1362 C1361 1.379 . S
H1363 C1357 0.959 1_565 S
H1364 C1357 0.961 . S
H1365 C1357 0.960 . S
H1366 C1358 0.930 . S
H1367 C1359 0.929 . S
H1368 C1376 0.929 . S
H1369 C1378 0.930 . S
H1370 C1380 0.930 . S
H1371 C1383 0.929 . S
H1372 C1386 0.930 . S
H1373 C1388 0.960 . S
H1374 C1388 0.960 . S
H1375 C1388 0.960 . S
C1376 H1368 0.929 . S
C1376 C1377 1.377 . S
C1376 C1378 1.384 . S
C1377 C1376 1.377 . S
C1377 C1383 1.390 . S
C1378 H1369 0.930 . S
C1378 C1376 1.384 . S
C1378 C1379 1.372 . S
C1379 C1378 1.372 . S
C1379 C1380 1.400 . S
C1379 C1384 1.490 . S
C1380 H1370 0.930 . S
C1380 C1379 1.400 . S
C1380 C1383 1.386 . S
H1381 C1397 0.930 . S
H1382 C1398 0.931 . S
C1383 H1371 0.929 . S
C1383 C1377 1.390 . S
C1383 C1380 1.386 . S
C1384 C1379 1.490 . S
C1384 C1386 1.395 . S
C1384 C1387 1.403 . S
H1385 C1391 0.930 . S
C1386 H1372 0.930 . S
C1386 C1384 1.395 . S
C1386 C1389 1.403 . S
C1387 C1384 1.403 . S
C1387 C1388 1.524 . S
C1387 C1391 1.400 . S
C1388 H1373 0.960 . S
C1388 H1374 0.960 . S
C1388 H1375 0.960 . S
C1388 C1387 1.524 . S
C1389 C1386 1.403 . S
C1389 C1390 1.392 . S
C1389 C1393 1.495 . S
C1390 C1389 1.392 . S
C1390 C1391 1.385 . S
C1390 C1392 1.478 . S
C1391 H1385 0.930 . S
C1391 C1387 1.400 . S
C1391 C1390 1.385 . S
C1392 C1390 1.478 . S
C1392 C1394 1.381 . S
C1392 C1398 1.383 . S
C1393 C1389 1.495 . S
C1393 H1399 0.959 . S
C1393 H1400 0.961 . S
C1393 H1401 0.960 . S
C1394 C1392 1.381 . S
C1394 C1395 1.394 . S
C1394 H1402 0.930 . S
C1395 C1394 1.394 . S
C1395 C1396 1.383 . S
C1395 H1403 0.929 . S
C1396 C1395 1.383 . S
C1396 C1397 1.377 . S
C1397 H1381 0.930 . S
C1397 C1396 1.377 . S
C1397 C1398 1.379 . S
C1398 H1382 0.931 . S
C1398 C1392 1.383 . S
C1398 C1397 1.379 . S
H1399 C1393 0.959 . S
H1400 C1393 0.961 . S
H1401 C1393 0.960 . S
H1402 C1394 0.930 . S
H1403 C1395 0.929 . S
H1404 C1412 0.929 . S
H1405 C1414 0.930 . S
H1406 C1416 0.930 . S
H1407 C1419 0.929 . S
H1408 C1422 0.930 . S
H1409 C1424 0.960 . S
H1410 C1424 0.960 . S
H1411 C1424 0.960 . S
C1412 H1404 0.929 . S
C1412 C1413 1.377 . S
C1412 C1414 1.384 . S
C1413 C1412 1.377 . S
C1413 C1419 1.390 . S
C1414 H1405 0.930 . S
C1414 C1412 1.384 . S
C1414 C1415 1.372 . S
C1415 C1414 1.372 . S
C1415 C1416 1.400 . S
C1415 C1420 1.490 . S
C1416 H1406 0.930 . S
C1416 C1415 1.400 . S
C1416 C1419 1.386 . S
H1417 C1433 0.930 . S
H1418 C1434 0.931 . S
C1419 H1407 0.929 . S
C1419 C1413 1.390 . S
C1419 C1416 1.386 . S
C1420 C1415 1.490 . S
C1420 C1422 1.395 . S
C1420 C1423 1.403 . S
H1421 C1427 0.930 . S
C1422 H1408 0.930 . S
C1422 C1420 1.395 . S
C1422 C1425 1.403 1_565 S
C1423 C1420 1.403 . S
C1423 C1424 1.524 . S
C1423 C1427 1.400 1_565 S
C1424 H1409 0.960 . S
C1424 H1410 0.960 . S
C1424 H1411 0.960 . S
C1424 C1423 1.524 . S
C1425 C1422 1.403 1_545 S
C1425 C1426 1.392 . S
C1425 C1429 1.495 . S
C1426 C1425 1.392 . S
C1426 C1427 1.385 . S
C1426 C1428 1.478 . S
C1427 H1421 0.930 . S
C1427 C1423 1.400 1_545 S
C1427 C1426 1.385 . S
C1428 C1426 1.478 . S
C1428 C1430 1.381 . S
C1428 C1434 1.383 . S
C1429 C1425 1.495 . S
C1429 H1435 0.959 . S
C1429 H1436 0.961 . S
C1429 H1437 0.960 . S
C1430 C1428 1.381 . S
C1430 C1431 1.394 . S
C1430 H1438 0.930 . S
C1431 C1430 1.394 . S
C1431 C1432 1.383 . S
C1431 H1439 0.929 . S
C1432 C1431 1.383 . S
C1432 C1433 1.377 . S
C1433 H1417 0.930 . S
C1433 C1432 1.377 . S
C1433 C1434 1.379 . S
C1434 H1418 0.931 . S
C1434 C1428 1.383 . S
C1434 C1433 1.379 . S
H1435 C1429 0.959 . S
H1436 C1429 0.961 . S
H1437 C1429 0.960 . S
H1438 C1430 0.930 . S
H1439 C1431 0.929 . S
H1440 C1448 0.929 . S
H1441 C1450 0.930 . S
H1442 C1452 0.930 . S
H1443 C1455 0.929 . S
H1444 C1458 0.930 . S
H1445 C1460 0.960 . S
H1446 C1460 0.960 . S
H1447 C1460 0.960 . S
C1448 H1440 0.929 . S
C1448 C1449 1.377 . S
C1448 C1450 1.384 . S
C1449 C1448 1.377 . S
C1449 C1455 1.390 . S
C1450 H1441 0.930 . S
C1450 C1448 1.384 . S
C1450 C1451 1.372 . S
C1451 C1450 1.372 . S
C1451 C1452 1.400 . S
C1451 C1456 1.490 . S
C1452 H1442 0.930 . S
C1452 C1451 1.400 . S
C1452 C1455 1.386 . S
H1453 C1469 0.930 . S
H1454 C1470 0.931 . S
C1455 H1443 0.929 . S
C1455 C1449 1.390 . S
C1455 C1452 1.386 . S
C1456 C1451 1.490 . S
C1456 C1458 1.395 . S
C1456 C1459 1.403 . S
H1457 C1463 0.930 . S
C1458 H1444 0.930 . S
C1458 C1456 1.395 . S
C1458 C1461 1.403 . S
C1459 C1456 1.403 . S
C1459 C1460 1.524 . S
C1459 C1463 1.400 . S
C1460 H1445 0.960 . S
C1460 H1446 0.960 . S
C1460 H1447 0.960 . S
C1460 C1459 1.524 . S
C1461 C1458 1.403 . S
C1461 C1462 1.392 . S
C1461 C1465 1.495 . S
C1462 C1461 1.392 . S
C1462 C1463 1.385 . S
C1462 C1464 1.478 . S
C1463 H1457 0.930 . S
C1463 C1459 1.400 . S
C1463 C1462 1.385 . S
C1464 C1462 1.478 . S
C1464 C1466 1.381 . S
C1464 C1470 1.383 . S
C1465 C1461 1.495 . S
C1465 H1471 0.959 . S
C1465 H1472 0.961 . S
C1465 H1473 0.960 . S
C1466 C1464 1.381 . S
C1466 C1467 1.394 . S
C1466 H1474 0.930 . S
C1467 C1466 1.394 . S
C1467 C1468 1.383 . S
C1467 H1475 0.929 . S
C1468 C1467 1.383 . S
C1468 C1469 1.377 . S
C1469 H1453 0.930 . S
C1469 C1468 1.377 . S
C1469 C1470 1.379 . S
C1470 H1454 0.931 . S
C1470 C1464 1.383 . S
C1470 C1469 1.379 . S
H1471 C1465 0.959 . S
H1472 C1465 0.961 . S
H1473 C1465 0.960 . S
H1474 C1466 0.930 . S
H1475 C1467 0.929 . S
H1476 C1484 0.929 . S
H1477 C1486 0.930 . S
H1478 C1488 0.930 . S
H1479 C1491 0.929 . S
H1480 C1494 0.930 . S
H1481 C1496 0.960 . S
H1482 C1496 0.960 . S
H1483 C1496 0.960 . S
C1484 H1476 0.929 . S
C1484 C1485 1.377 . S
C1484 C1486 1.384 . S
C1485 C1484 1.377 . S
C1485 C1491 1.390 . S
C1486 H1477 0.930 . S
C1486 C1484 1.384 . S
C1486 C1487 1.372 . S
C1487 C1486 1.372 . S
C1487 C1488 1.400 . S
C1487 C1492 1.490 . S
C1488 H1478 0.930 . S
C1488 C1487 1.400 . S
C1488 C1491 1.386 . S
H1489 C1505 0.930 . S
H1490 C1506 0.931 . S
C1491 H1479 0.929 . S
C1491 C1485 1.390 . S
C1491 C1488 1.386 . S
C1492 C1487 1.490 . S
C1492 C1494 1.395 . S
C1492 C1495 1.403 . S
H1493 C1499 0.930 . S
C1494 H1480 0.930 . S
C1494 C1492 1.395 . S
C1494 C1497 1.403 . S
C1495 C1492 1.403 . S
C1495 C1496 1.524 . S
C1495 C1499 1.400 . S
C1496 H1481 0.960 . S
C1496 H1482 0.960 . S
C1496 H1483 0.960 . S
C1496 C1495 1.524 . S
C1497 C1494 1.403 . S
C1497 C1498 1.392 . S
C1497 C1501 1.495 . S
C1498 C1497 1.392 . S
C1498 C1499 1.385 . S
C1498 C1500 1.478 . S
C1499 H1493 0.930 . S
C1499 C1495 1.400 . S
C1499 C1498 1.385 . S
C1500 C1498 1.478 . S
C1500 C1502 1.381 . S
C1500 C1506 1.383 . S
C1501 C1497 1.495 . S
C1501 H1507 0.959 . S
C1501 H1508 0.961 . S
C1501 H1509 0.960 . S
C1502 C1500 1.381 . S
C1502 C1503 1.394 . S
C1502 H1510 0.930 . S
C1503 C1502 1.394 . S
C1503 C1504 1.383 . S
C1503 H1511 0.929 . S
C1504 C1503 1.383 . S
C1504 C1505 1.377 . S
C1505 H1489 0.930 . S
C1505 C1504 1.377 . S
C1505 C1506 1.379 . S
C1506 H1490 0.931 . S
C1506 C1500 1.383 . S
C1506 C1505 1.379 . S
H1507 C1501 0.959 . S
H1508 C1501 0.961 . S
H1509 C1501 0.960 . S
H1510 C1502 0.930 . S
H1511 C1503 0.929 . S
H1512 C1520 0.929 . S
H1513 C1522 0.930 . S
H1514 C1524 0.930 1_554 S
H1515 C1527 0.929 . S
H1516 C1530 0.930 . S
H1517 C1532 0.960 . S
H1518 C1532 0.960 . S
H1519 C1532 0.960 . S
C1520 H1512 0.929 . S
C1520 C1521 1.377 . S
C1520 C1522 1.384 . S
C1521 C1520 1.377 . S
C1521 C1527 1.390 . S
C1522 H1513 0.930 . S
C1522 C1520 1.384 . S
C1522 C1523 1.372 . S
C1523 C1522 1.372 . S
C1523 C1524 1.400 . S
C1523 C1528 1.490 . S
C1524 H1514 0.930 1_556 S
C1524 C1523 1.400 . S
C1524 C1527 1.386 . S
H1525 C1541 0.930 . S
H1526 C1542 0.931 . S
C1527 H1515 0.929 . S
C1527 C1521 1.390 . S
C1527 C1524 1.386 . S
C1528 C1523 1.490 . S
C1528 C1530 1.395 1_556 S
C1528 C1531 1.403 . S
H1529 C1535 0.930 . S
C1530 H1516 0.930 . S
C1530 C1528 1.395 1_554 S
C1530 C1533 1.403 . S
C1531 C1528 1.403 . S
C1531 C1532 1.524 . S
C1531 C1535 1.400 . S
C1532 H1517 0.960 . S
C1532 H1518 0.960 . S
C1532 H1519 0.960 . S
C1532 C1531 1.524 . S
C1533 C1530 1.403 . S
C1533 C1534 1.392 . S
C1533 C1537 1.495 . S
C1534 C1533 1.392 . S
C1534 C1535 1.385 1_554 S
C1534 C1536 1.478 . S
C1535 H1529 0.930 . S
C1535 C1531 1.400 . S
C1535 C1534 1.385 1_556 S
C1536 C1534 1.478 . S
C1536 C1538 1.381 . S
C1536 C1542 1.383 . S
C1537 C1533 1.495 . S
C1537 H1543 0.959 . S
C1537 H1544 0.961 . S
C1537 H1545 0.960 . S
C1538 C1536 1.381 . S
C1538 C1539 1.394 . S
C1538 H1546 0.930 1_554 S
C1539 C1538 1.394 . S
C1539 C1540 1.383 . S
C1539 H1547 0.929 . S
C1540 C1539 1.383 . S
C1540 C1541 1.377 . S
C1541 H1525 0.930 . S
C1541 C1540 1.377 . S
C1541 C1542 1.379 . S
C1542 H1526 0.931 . S
C1542 C1536 1.383 . S
C1542 C1541 1.379 . S
H1543 C1537 0.959 . S
H1544 C1537 0.961 . S
H1545 C1537 0.960 . S
H1546 C1538 0.930 1_556 S
H1547 C1539 0.929 . S
H1548 C1556 0.929 . S
H1549 C1558 0.930 . S
H1550 C1560 0.930 . S
H1551 C1563 0.929 . S
H1552 C1566 0.930 . S
H1553 C1568 0.960 . S
H1554 C1568 0.960 . S
H1555 C1568 0.960 . S
C1556 H1548 0.929 . S
C1556 C1557 1.377 . S
C1556 C1558 1.384 . S
C1557 C1556 1.377 . S
C1557 C1563 1.390 . S
C1558 H1549 0.930 . S
C1558 C1556 1.384 . S
C1558 C1559 1.372 . S
C1559 C1558 1.372 . S
C1559 C1560 1.400 . S
C1559 C1564 1.490 . S
C1560 H1550 0.930 . S
C1560 C1559 1.400 . S
C1560 C1563 1.386 . S
H1561 C1577 0.930 . S
H1562 C1578 0.931 . S
C1563 H1551 0.929 . S
C1563 C1557 1.390 . S
C1563 C1560 1.386 . S
C1564 C1559 1.490 . S
C1564 C1566 1.395 . S
C1564 C1567 1.403 . S
H1565 C1571 0.930 . S
C1566 H1552 0.930 . S
C1566 C1564 1.395 . S
C1566 C1569 1.403 . S
C1567 C1564 1.403 . S
C1567 C1568 1.524 . S
C1567 C1571 1.400 . S
C1568 H1553 0.960 . S
C1568 H1554 0.960 . S
C1568 H1555 0.960 . S
C1568 C1567 1.524 . S
C1569 C1566 1.403 . S
C1569 C1570 1.392 . S
C1569 C1573 1.495 . S
C1570 C1569 1.392 . S
C1570 C1571 1.385 . S
C1570 C1572 1.478 . S
C1571 H1565 0.930 . S
C1571 C1567 1.400 . S
C1571 C1570 1.385 . S
C1572 C1570 1.478 . S
C1572 C1574 1.381 . S
C1572 C1578 1.383 . S
C1573 C1569 1.495 . S
C1573 H1579 0.959 . S
C1573 H1580 0.961 . S
C1573 H1581 0.960 . S
C1574 C1572 1.381 . S
C1574 C1575 1.394 . S
C1574 H1582 0.930 . S
C1575 C1574 1.394 . S
C1575 C1576 1.383 . S
C1575 H1583 0.929 . S
C1576 C1575 1.383 . S
C1576 C1577 1.377 . S
C1577 H1561 0.930 . S
C1577 C1576 1.377 . S
C1577 C1578 1.379 . S
C1578 H1562 0.931 . S
C1578 C1572 1.383 . S
C1578 C1577 1.379 . S
H1579 C1573 0.959 . S
H1580 C1573 0.961 . S
H1581 C1573 0.960 . S
H1582 C1574 0.930 . S
H1583 C1575 0.929 . S
H1584 C1592 0.929 . S
H1585 C1594 0.930 . S
H1586 C1596 0.930 . S
H1587 C1599 0.929 . S
H1588 C1602 0.930 . S
H1589 C1604 0.960 . S
H1590 C1604 0.960 . S
H1591 C1604 0.960 . S
C1592 H1584 0.929 . S
C1592 C1593 1.377 . S
C1592 C1594 1.384 . S
C1593 C1592 1.377 . S
C1593 C1599 1.390 . S
C1594 H1585 0.930 . S
C1594 C1592 1.384 . S
C1594 C1595 1.372 . S
C1595 C1594 1.372 . S
C1595 C1596 1.400 . S
C1595 C1600 1.490 . S
C1596 H1586 0.930 . S
C1596 C1595 1.400 . S
C1596 C1599 1.386 . S
H1597 C1613 0.930 . S
H1598 C1614 0.931 . S
C1599 H1587 0.929 . S
C1599 C1593 1.390 . S
C1599 C1596 1.386 . S
C1600 C1595 1.490 . S
C1600 C1602 1.395 . S
C1600 C1603 1.403 . S
H1601 C1607 0.930 . S
C1602 H1588 0.930 . S
C1602 C1600 1.395 . S
C1602 C1605 1.403 . S
C1603 C1600 1.403 . S
C1603 C1604 1.524 . S
C1603 C1607 1.400 . S
C1604 H1589 0.960 . S
C1604 H1590 0.960 . S
C1604 H1591 0.960 . S
C1604 C1603 1.524 . S
C1605 C1602 1.403 . S
C1605 C1606 1.392 . S
C1605 C1609 1.495 . S
C1606 C1605 1.392 . S
C1606 C1607 1.385 . S
C1606 C1608 1.478 . S
C1607 H1601 0.930 . S
C1607 C1603 1.400 . S
C1607 C1606 1.385 . S
C1608 C1606 1.478 . S
C1608 C1610 1.381 . S
C1608 C1614 1.383 . S
C1609 C1605 1.495 . S
C1609 H1615 0.959 . S
C1609 H1616 0.961 . S
C1609 H1617 0.960 . S
C1610 C1608 1.381 . S
C1610 C1611 1.394 . S
C1610 H1618 0.930 . S
C1611 C1610 1.394 . S
C1611 C1612 1.383 . S
C1611 H1619 0.929 . S
C1612 C1611 1.383 . S
C1612 C1613 1.377 . S
C1613 H1597 0.930 . S
C1613 C1612 1.377 . S
C1613 C1614 1.379 . S
C1614 H1598 0.931 . S
C1614 C1608 1.383 . S
C1614 C1613 1.379 . S
H1615 C1609 0.959 . S
H1616 C1609 0.961 . S
H1617 C1609 0.960 . S
H1618 C1610 0.930 . S
H1619 C1611 0.929 . S
H1620 C1628 0.929 . S
H1621 C1630 0.930 . S
H1622 C1632 0.930 . S
H1623 C1635 0.929 . S
H1624 C1638 0.930 . S
H1625 C1640 0.960 . S
H1626 C1640 0.960 . S
H1627 C1640 0.960 . S
C1628 H1620 0.929 . S
C1628 C1629 1.377 . S
C1628 C1630 1.384 . S
C1629 C1628 1.377 . S
C1629 C1635 1.390 . S
C1630 H1621 0.930 . S
C1630 C1628 1.384 . S
C1630 C1631 1.372 . S
C1631 C1630 1.372 . S
C1631 C1632 1.400 . S
C1631 C1636 1.490 . S
C1632 H1622 0.930 . S
C1632 C1631 1.400 . S
C1632 C1635 1.386 . S
H1633 C1649 0.930 . S
H1634 C1650 0.931 . S
C1635 H1623 0.929 . S
C1635 C1629 1.390 . S
C1635 C1632 1.386 . S
C1636 C1631 1.490 . S
C1636 C1638 1.395 . S
C1636 C1639 1.403 . S
H1637 C1643 0.930 . S
C1638 H1624 0.930 . S
C1638 C1636 1.395 . S
C1638 C1641 1.403 . S
C1639 C1636 1.403 . S
C1639 C1640 1.524 . S
C1639 C1643 1.400 . S
C1640 H1625 0.960 . S
C1640 H1626 0.960 . S
C1640 H1627 0.960 . S
C1640 C1639 1.524 . S
C1641 C1638 1.403 . S
C1641 C1642 1.392 . S
C1641 C1645 1.495 . S
C1642 C1641 1.392 . S
C1642 C1643 1.385 . S
C1642 C1644 1.478 . S
C1643 H1637 0.930 . S
C1643 C1639 1.400 . S
C1643 C1642 1.385 . S
C1644 C1642 1.478 . S
C1644 C1646 1.381 . S
C1644 C1650 1.383 . S
C1645 C1641 1.495 . S
C1645 H1651 0.959 . S
C1645 H1652 0.961 . S
C1645 H1653 0.960 . S
C1646 C1644 1.381 . S
C1646 C1647 1.394 . S
C1646 H1654 0.930 . S
C1647 C1646 1.394 . S
C1647 C1648 1.383 . S
C1647 H1655 0.929 . S
C1648 C1647 1.383 . S
C1648 C1649 1.377 . S
C1649 H1633 0.930 . S
C1649 C1648 1.377 . S
C1649 C1650 1.379 . S
C1650 H1634 0.931 . S
C1650 C1644 1.383 . S
C1650 C1649 1.379 . S
H1651 C1645 0.959 . S
H1652 C1645 0.961 . S
H1653 C1645 0.960 . S
H1654 C1646 0.930 . S
H1655 C1647 0.929 . S
H1656 C1664 0.929 . S
H1657 C1666 0.930 1_556 S
H1658 C1668 0.930 . S
H1659 C1671 0.929 . S
H1660 C1674 0.930 . S
H1661 C1676 0.960 . S
H1662 C1676 0.960 . S
H1663 C1676 0.960 . S
C1664 H1656 0.929 . S
C1664 C1665 1.377 . S
C1664 C1666 1.384 . S
C1665 C1664 1.377 . S
C1665 C1671 1.390 . S
C1666 H1657 0.930 1_554 S
C1666 C1664 1.384 . S
C1666 C1667 1.372 . S
C1667 C1666 1.372 . S
C1667 C1668 1.400 . S
C1667 C1672 1.490 . S
C1668 H1658 0.930 . S
C1668 C1667 1.400 . S
C1668 C1671 1.386 . S
H1669 C1685 0.930 . S
H1670 C1686 0.931 . S
C1671 H1659 0.929 . S
C1671 C1665 1.390 . S
C1671 C1668 1.386 . S
C1672 C1667 1.490 . S
C1672 C1674 1.395 1_554 S
C1672 C1675 1.403 . S
H1673 C1679 0.930 . S
C1674 H1660 0.930 . S
C1674 C1672 1.395 1_556 S
C1674 C1677 1.403 . S
C1675 C1672 1.403 . S
C1675 C1676 1.524 . S
C1675 C1679 1.400 . S
C1676 H1661 0.960 . S
C1676 H1662 0.960 . S
C1676 H1663 0.960 . S
C1676 C1675 1.524 . S
C1677 C1674 1.403 . S
C1677 C1678 1.392 . S
C1677 C1681 1.495 . S
C1678 C1677 1.392 . S
C1678 C1679 1.385 1_556 S
C1678 C1680 1.478 . S
C1679 H1673 0.930 . S
C1679 C1675 1.400 . S
C1679 C1678 1.385 1_554 S
C1680 C1678 1.478 . S
C1680 C1682 1.381 . S
C1680 C1686 1.383 . S
C1681 C1677 1.495 . S
C1681 H1687 0.959 . S
C1681 H1688 0.961 . S
C1681 H1689 0.960 . S
C1682 C1680 1.381 . S
C1682 C1683 1.394 . S
C1682 H1690 0.930 . S
C1683 C1682 1.394 . S
C1683 C1684 1.383 . S
C1683 H1691 0.929 . S
C1684 C1683 1.383 . S
C1684 C1685 1.377 . S
C1685 H1669 0.930 . S
C1685 C1684 1.377 . S
C1685 C1686 1.379 . S
C1686 H1670 0.931 . S
C1686 C1680 1.383 . S
C1686 C1685 1.379 . S
H1687 C1681 0.959 . S
H1688 C1681 0.961 . S
H1689 C1681 0.960 . S
H1690 C1682 0.930 . S
H1691 C1683 0.929 . S
H1692 C1700 0.929 . S
H1693 C1702 0.930 . S
H1694 C1704 0.930 . S
H1695 C1707 0.929 . S
H1696 C1710 0.930 . S
H1697 C1712 0.960 . S
H1698 C1712 0.960 . S
H1699 C1712 0.960 . S
C1700 H1692 0.929 . S
C1700 C1701 1.377 . S
C1700 C1702 1.384 . S
C1701 C1700 1.377 . S
C1701 C1707 1.390 . S
C1702 H1693 0.930 . S
C1702 C1700 1.384 . S
C1702 C1703 1.372 . S
C1703 C1702 1.372 . S
C1703 C1704 1.400 . S
C1703 C1708 1.490 . S
C1704 H1694 0.930 . S
C1704 C1703 1.400 . S
C1704 C1707 1.386 . S
H1705 C1721 0.930 . S
H1706 C1722 0.931 . S
C1707 H1695 0.929 . S
C1707 C1701 1.390 . S
C1707 C1704 1.386 . S
C1708 C1703 1.490 . S
C1708 C1710 1.395 . S
C1708 C1711 1.403 . S
H1709 C1715 0.930 . S
C1710 H1696 0.930 . S
C1710 C1708 1.395 . S
C1710 C1713 1.403 . S
C1711 C1708 1.403 . S
C1711 C1712 1.524 . S
C1711 C1715 1.400 . S
C1712 H1697 0.960 . S
C1712 H1698 0.960 . S
C1712 H1699 0.960 . S
C1712 C1711 1.524 . S
C1713 C1710 1.403 . S
C1713 C1714 1.392 . S
C1713 C1717 1.495 . S
C1714 C1713 1.392 . S
C1714 C1715 1.385 . S
C1714 C1716 1.478 . S
C1715 H1709 0.930 . S
C1715 C1711 1.400 . S
C1715 C1714 1.385 . S
C1716 C1714 1.478 . S
C1716 C1718 1.381 . S
C1716 C1722 1.383 . S
C1717 C1713 1.495 . S
C1717 H1723 0.959 . S
C1717 H1724 0.961 . S
C1717 H1725 0.960 . S
C1718 C1716 1.381 . S
C1718 C1719 1.394 . S
C1718 H1726 0.930 . S
C1719 C1718 1.394 . S
C1719 C1720 1.383 . S
C1719 H1727 0.929 . S
C1720 C1719 1.383 . S
C1720 C1721 1.377 . S
C1721 H1705 0.930 . S
C1721 C1720 1.377 . S
C1721 C1722 1.379 . S
C1722 H1706 0.931 . S
C1722 C1716 1.383 . S
C1722 C1721 1.379 . S
H1723 C1717 0.959 . S
H1724 C1717 0.961 . S
H1725 C1717 0.960 . S
H1726 C1718 0.930 . S
H1727 C1719 0.929 . S
H1728 C1736 0.929 . S
H1729 C1738 0.930 . S
H1730 C1740 0.930 . S
H1731 C1743 0.929 . S
H1732 C1746 0.930 . S
H1733 C1748 0.960 . S
H1734 C1748 0.960 . S
H1735 C1748 0.960 . S
C1736 H1728 0.929 . S
C1736 C1737 1.377 . S
C1736 C1738 1.384 . S
C1737 C1736 1.377 . S
C1737 C1743 1.390 . S
C1738 H1729 0.930 . S
C1738 C1736 1.384 . S
C1738 C1739 1.372 . S
C1739 C1738 1.372 . S
C1739 C1740 1.400 . S
C1739 C1744 1.490 . S
C1740 H1730 0.930 . S
C1740 C1739 1.400 . S
C1740 C1743 1.386 . S
H1741 C1757 0.930 . S
H1742 C1758 0.931 . S
C1743 H1731 0.929 . S
C1743 C1737 1.390 . S
C1743 C1740 1.386 . S
C1744 C1739 1.490 . S
C1744 C1746 1.395 . S
C1744 C1747 1.403 . S
H1745 C1751 0.930 . S
C1746 H1732 0.930 . S
C1746 C1744 1.395 . S
C1746 C1749 1.403 . S
C1747 C1744 1.403 . S
C1747 C1748 1.524 . S
C1747 C1751 1.400 . S
C1748 H1733 0.960 . S
C1748 H1734 0.960 . S
C1748 H1735 0.960 . S
C1748 C1747 1.524 . S
C1749 C1746 1.403 . S
C1749 C1750 1.392 . S
C1749 C1753 1.495 . S
C1750 C1749 1.392 . S
C1750 C1751 1.385 . S
C1750 C1752 1.478 . S
C1751 H1745 0.930 . S
C1751 C1747 1.400 . S
C1751 C1750 1.385 . S
C1752 C1750 1.478 . S
C1752 C1754 1.381 . S
C1752 C1758 1.383 . S
C1753 C1749 1.495 . S
C1753 H1759 0.959 . S
C1753 H1760 0.961 . S
C1753 H1761 0.960 . S
C1754 C1752 1.381 . S
C1754 C1755 1.394 . S
C1754 H1762 0.930 . S
C1755 C1754 1.394 . S
C1755 C1756 1.383 . S
C1755 H1763 0.929 . S
C1756 C1755 1.383 . S
C1756 C1757 1.377 . S
C1757 H1741 0.930 . S
C1757 C1756 1.377 . S
C1757 C1758 1.379 . S
C1758 H1742 0.931 . S
C1758 C1752 1.383 . S
C1758 C1757 1.379 . S
H1759 C1753 0.959 . S
H1760 C1753 0.961 . S
H1761 C1753 0.960 . S
H1762 C1754 0.930 . S
H1763 C1755 0.929 . S
H1764 C1772 0.929 . S
H1765 C1774 0.930 1_554 S
H1766 C1776 0.930 1_655 S
H1767 C1779 0.929 . S
H1768 C1782 0.930 . S
H1769 C1784 0.960 . S
H1770 C1784 0.960 1_556 S
H1771 C1784 0.960 1_556 S
C1772 H1764 0.929 . S
C1772 C1773 1.377 . S
C1772 C1774 1.384 . S
C1773 C1772 1.377 . S
C1773 C1779 1.390 . S
C1774 H1765 0.930 1_556 S
C1774 C1772 1.384 . S
C1774 C1775 1.372 . S
C1775 C1774 1.372 . S
C1775 C1776 1.400 . S
C1775 C1780 1.490 1_556 S
C1776 H1766 0.930 1_455 S
C1776 C1775 1.400 . S
C1776 C1779 1.386 . S
H1777 C1793 0.930 . S
H1778 C1794 0.931 . S
C1779 H1767 0.929 . S
C1779 C1773 1.390 . S
C1779 C1776 1.386 . S
C1780 C1775 1.490 1_554 S
C1780 C1782 1.395 . S
C1780 C1783 1.403 1_455 S
H1781 C1787 0.930 . S
C1782 H1768 0.930 . S
C1782 C1780 1.395 . S
C1782 C1785 1.403 . S
C1783 C1780 1.403 1_655 S
C1783 C1784 1.524 . S
C1783 C1787 1.400 . S
C1784 H1769 0.960 . S
C1784 H1770 0.960 1_554 S
C1784 H1771 0.960 1_554 S
C1784 C1783 1.524 . S
C1785 C1782 1.403 . S
C1785 C1786 1.392 1_455 S
C1785 C1789 1.495 . S
C1786 C1785 1.392 1_655 S
C1786 C1787 1.385 . S
C1786 C1788 1.478 . S
C1787 H1781 0.930 . S
C1787 C1783 1.400 . S
C1787 C1786 1.385 . S
C1788 C1786 1.478 . S
C1788 C1790 1.381 . S
C1788 C1794 1.383 . S
C1789 C1785 1.495 . S
C1789 H1795 0.959 . S
C1789 H1796 0.961 . S
C1789 H1797 0.960 . S
C1790 C1788 1.381 . S
C1790 C1791 1.394 . S
C1790 H1798 0.849 1_655 S
C1791 C1790 1.394 . S
C1791 C1792 1.383 . S
C1791 H1799 0.929 . S
C1792 C1791 1.383 . S
C1792 C1793 1.377 . S
C1793 H1777 0.930 . S
C1793 C1792 1.377 . S
C1793 C1794 1.379 . S
C1794 H1778 0.931 . S
C1794 C1788 1.383 . S
C1794 C1793 1.379 . S
H1795 C1789 0.959 . S
H1796 C1789 0.961 . S
H1797 C1789 0.960 . S
H1798 C1790 0.849 1_455 S
H1799 C1791 0.929 . S
H1800 C1808 0.929 . S
H1801 C1810 0.930 . S
H1802 C1812 0.930 . S
H1803 C1815 0.929 . S
H1804 C1818 0.930 . S
H1805 C1820 0.960 . S
H1806 C1820 0.960 . S
H1807 C1820 0.960 . S
C1808 H1800 0.929 . S
C1808 C1809 1.377 . S
C1808 C1810 1.384 . S
C1809 C1808 1.377 . S
C1809 C1815 1.390 . S
C1810 H1801 0.930 . S
C1810 C1808 1.384 . S
C1810 C1811 1.372 . S
C1811 C1810 1.372 . S
C1811 C1812 1.400 . S
C1811 C1816 1.490 . S
C1812 H1802 0.930 . S
C1812 C1811 1.400 . S
C1812 C1815 1.386 . S
H1813 C1829 0.930 . S
H1814 C1830 0.931 . S
C1815 H1803 0.929 . S
C1815 C1809 1.390 . S
C1815 C1812 1.386 . S
C1816 C1811 1.490 . S
C1816 C1818 1.395 . S
C1816 C1819 1.403 . S
H1817 C1823 0.930 . S
C1818 H1804 0.930 . S
C1818 C1816 1.395 . S
C1818 C1821 1.403 . S
C1819 C1816 1.403 . S
C1819 C1820 1.524 . S
C1819 C1823 1.400 . S
C1820 H1805 0.960 . S
C1820 H1806 0.960 . S
C1820 H1807 0.960 . S
C1820 C1819 1.524 . S
C1821 C1818 1.403 . S
C1821 C1822 1.392 . S
C1821 C1825 1.495 . S
C1822 C1821 1.392 . S
C1822 C1823 1.385 . S
C1822 C1824 1.478 . S
C1823 H1817 0.930 . S
C1823 C1819 1.400 . S
C1823 C1822 1.385 . S
C1824 C1822 1.478 . S
C1824 C1826 1.381 . S
C1824 C1830 1.383 . S
C1825 C1821 1.495 . S
C1825 H1831 0.959 . S
C1825 H1832 0.961 . S
C1825 H1833 0.960 . S
C1826 C1824 1.381 . S
C1826 C1827 1.394 . S
C1826 H1834 0.930 . S
C1827 C1826 1.394 . S
C1827 C1828 1.383 . S
C1827 H1835 0.929 . S
C1828 C1827 1.383 . S
C1828 C1829 1.377 . S
C1829 H1813 0.930 . S
C1829 C1828 1.377 . S
C1829 C1830 1.379 . S
C1830 H1814 0.931 . S
C1830 C1824 1.383 . S
C1830 C1829 1.379 . S
H1831 C1825 0.959 . S
H1832 C1825 0.961 . S
H1833 C1825 0.960 . S
H1834 C1826 0.930 . S
H1835 C1827 0.929 . S
H1836 C1844 0.929 . S
H1837 C1846 0.930 . S
H1838 C1848 0.930 . S
H1839 C1851 0.929 . S
H1840 C1854 0.930 . S
H1841 C1856 0.960 . S
H1842 C1856 0.960 . S
H1843 C1856 0.960 . S
C1844 H1836 0.929 . S
C1844 C1845 1.377 . S
C1844 C1846 1.384 . S
C1845 C1844 1.377 . S
C1845 C1851 1.390 . S
C1846 H1837 0.930 . S
C1846 C1844 1.384 . S
C1846 C1847 1.372 . S
C1847 C1846 1.372 . S
C1847 C1848 1.400 . S
C1847 C1852 1.490 . S
C1848 H1838 0.930 . S
C1848 C1847 1.400 . S
C1848 C1851 1.386 . S
H1849 C1865 0.930 . S
H1850 C1866 0.931 . S
C1851 H1839 0.929 . S
C1851 C1845 1.390 . S
C1851 C1848 1.386 . S
C1852 C1847 1.490 . S
C1852 C1854 1.395 . S
C1852 C1855 1.403 . S
H1853 C1859 0.930 . S
C1854 H1840 0.930 . S
C1854 C1852 1.395 . S
C1854 C1857 1.403 . S
C1855 C1852 1.403 . S
C1855 C1856 1.524 . S
C1855 C1859 1.400 . S
C1856 H1841 0.960 . S
C1856 H1842 0.960 . S
C1856 H1843 0.960 . S
C1856 C1855 1.524 . S
C1857 C1854 1.403 . S
C1857 C1858 1.392 . S
C1857 C1861 1.495 . S
C1858 C1857 1.392 . S
C1858 C1859 1.385 . S
C1858 C1860 1.478 . S
C1859 H1853 0.930 . S
C1859 C1855 1.400 . S
C1859 C1858 1.385 . S
C1860 C1858 1.478 . S
C1860 C1862 1.381 . S
C1860 C1866 1.383 . S
C1861 C1857 1.495 . S
C1861 H1867 0.959 . S
C1861 H1868 0.961 . S
C1861 H1869 0.960 . S
C1862 C1860 1.381 . S
C1862 C1863 1.394 . S
C1862 H1870 0.930 . S
C1863 C1862 1.394 . S
C1863 C1864 1.383 . S
C1863 H1871 0.929 . S
C1864 C1863 1.383 . S
C1864 C1865 1.377 . S
C1865 H1849 0.930 . S
C1865 C1864 1.377 . S
C1865 C1866 1.379 . S
C1866 H1850 0.931 . S
C1866 C1860 1.383 . S
C1866 C1865 1.379 . S
H1867 C1861 0.959 . S
H1868 C1861 0.961 . S
H1869 C1861 0.960 . S
H1870 C1862 0.930 . S
H1871 C1863 0.929 . S
H1872 C1880 0.929 . S
H1873 C1882 0.930 . S
H1874 C1884 0.930 . S
H1875 C1887 0.929 . S
H1876 C1890 0.930 . S
H1877 C1892 0.960 . S
H1878 C1892 0.960 . S
H1879 C1892 0.960 . S
C1880 H1872 0.929 . S
C1880 C1881 1.377 . S
C1880 C1882 1.384 . S
C1881 C1880 1.377 . S
C1881 C1887 1.390 . S
C1882 H1873 0.930 . S
C1882 C1880 1.384 . S
C1882 C1883 1.372 . S
C1883 C1882 1.372 . S
C1883 C1884 1.400 . S
C1883 C1888 1.490 . S
C1884 H1874 0.930 . S
C1884 C1883 1.400 . S
C1884 C1887 1.386 . S
H1885 C1901 0.930 . S
H1886 C1902 0.931 . S
C1887 H1875 0.929 . S
C1887 C1881 1.390 . S
C1887 C1884 1.386 . S
C1888 C1883 1.490 . S
C1888 C1890 1.395 . S
C1888 C1891 1.403 . S
H1889 C1895 0.930 . S
C1890 H1876 0.930 . S
C1890 C1888 1.395 . S
C1890 C1893 1.403 . S
C1891 C1888 1.403 . S
C1891 C1892 1.524 . S
C1891 C1895 1.400 . S
C1892 H1877 0.960 . S
C1892 H1878 0.960 . S
C1892 H1879 0.960 . S
C1892 C1891 1.524 . S
C1893 C1890 1.403 . S
C1893 C1894 1.392 . S
C1893 C1897 1.495 . S
C1894 C1893 1.392 . S
C1894 C1895 1.385 . S
C1894 C1896 1.478 . S
C1895 H1889 0.930 . S
C1895 C1891 1.400 . S
C1895 C1894 1.385 . S
C1896 C1894 1.478 . S
C1896 C1898 1.381 . S
C1896 C1902 1.383 . S
C1897 C1893 1.495 . S
C1897 H1903 0.959 . S
C1897 H1904 0.961 . S
C1897 H1905 0.960 . S
C1898 C1896 1.381 . S
C1898 C1899 1.394 . S
C1898 H1906 0.930 . S
C1899 C1898 1.394 . S
C1899 C1900 1.383 . S
C1899 H1907 0.929 . S
C1900 C1899 1.383 . S
C1900 C1901 1.377 . S
C1901 H1885 0.930 . S
C1901 C1900 1.377 . S
C1901 C1902 1.379 . S
C1902 H1886 0.931 . S
C1902 C1896 1.383 . S
C1902 C1901 1.379 . S
H1903 C1897 0.959 . S
H1904 C1897 0.961 . S
H1905 C1897 0.960 . S
H1906 C1898 0.930 . S
H1907 C1899 0.929 . S
H1908 C1916 0.929 . S
H1909 C1918 0.930 . S
H1910 C1920 0.930 . S
H1911 C1923 0.929 . S
H1912 C1926 0.930 . S
H1913 C1928 0.960 . S
H1914 C1928 0.960 . S
H1915 C1928 0.960 . S
C1916 H1908 0.929 . S
C1916 C1917 1.377 . S
C1916 C1918 1.384 . S
C1917 C1916 1.377 . S
C1917 C1923 1.390 . S
C1918 H1909 0.930 . S
C1918 C1916 1.384 . S
C1918 C1919 1.372 . S
C1919 C1918 1.372 . S
C1919 C1920 1.400 . S
C1919 C1924 1.490 1_554 S
C1920 H1910 0.930 . S
C1920 C1919 1.400 . S
C1920 C1923 1.386 . S
H1921 C1937 0.930 . S
H1922 C1938 0.931 . S
C1923 H1911 0.929 . S
C1923 C1917 1.390 . S
C1923 C1920 1.386 . S
C1924 C1919 1.490 1_556 S
C1924 C1926 1.395 . S
C1924 C1927 1.403 . S
H1925 C1931 0.930 . S
C1926 H1912 0.930 . S
C1926 C1924 1.395 . S
C1926 C1929 1.403 . S
C1927 C1924 1.403 . S
C1927 C1928 1.524 . S
C1927 C1931 1.400 . S
C1928 H1913 0.960 . S
C1928 H1914 0.960 . S
C1928 H1915 0.960 . S
C1928 C1927 1.524 . S
C1929 C1926 1.403 . S
C1929 C1930 1.392 . S
C1929 C1933 1.495 . S
C1930 C1929 1.392 . S
C1930 C1931 1.385 . S
C1930 C1932 1.478 . S
C1931 H1925 0.930 . S
C1931 C1927 1.400 . S
C1931 C1930 1.385 . S
C1932 C1930 1.478 . S
C1932 C1934 1.381 . S
C1932 C1938 1.383 . S
C1933 C1929 1.495 . S
C1933 H1939 0.959 . S
C1933 H1940 0.961 . S
C1933 H1941 0.960 . S
C1934 C1932 1.381 . S
C1934 C1935 1.394 . S
C1934 H1942 0.930 . S
C1935 C1934 1.394 . S
C1935 C1936 1.383 . S
C1935 H1943 0.929 . S
C1936 C1935 1.383 . S
C1936 C1937 1.377 . S
C1937 H1921 0.930 . S
C1937 C1936 1.377 . S
C1937 C1938 1.379 . S
C1938 H1922 0.931 . S
C1938 C1932 1.383 . S
C1938 C1937 1.379 . S
H1939 C1933 0.959 . S
H1940 C1933 0.961 . S
H1941 C1933 0.960 . S
H1942 C1934 0.930 . S
H1943 C1935 0.929 . S
H1944 C1952 0.929 . S
H1945 C1954 0.930 . S
H1946 C1956 0.930 . S
H1947 C1959 0.929 . S
H1948 C1962 0.930 . S
H1949 C1964 0.960 . S
H1950 C1964 0.960 . S
H1951 C1964 0.960 . S
C1952 H1944 0.929 . S
C1952 C1953 1.377 . S
C1952 C1954 1.384 . S
C1953 C1952 1.377 . S
C1953 C1959 1.390 . S
C1954 H1945 0.930 . S
C1954 C1952 1.384 . S
C1954 C1955 1.372 . S
C1955 C1954 1.372 . S
C1955 C1956 1.400 . S
C1955 C1960 1.490 . S
C1956 H1946 0.930 . S
C1956 C1955 1.400 . S
C1956 C1959 1.386 . S
H1957 C1973 0.930 . S
H1958 C1974 0.931 . S
C1959 H1947 0.929 . S
C1959 C1953 1.390 . S
C1959 C1956 1.386 . S
C1960 C1955 1.490 . S
C1960 C1962 1.395 . S
C1960 C1963 1.403 . S
H1961 C1967 0.930 . S
C1962 H1948 0.930 . S
C1962 C1960 1.395 . S
C1962 C1965 1.403 . S
C1963 C1960 1.403 . S
C1963 C1964 1.524 . S
C1963 C1967 1.400 . S
C1964 H1949 0.960 . S
C1964 H1950 0.960 . S
C1964 H1951 0.960 . S
C1964 C1963 1.524 . S
C1965 C1962 1.403 . S
C1965 C1966 1.392 . S
C1965 C1969 1.495 . S
C1966 C1965 1.392 . S
C1966 C1967 1.385 . S
C1966 C1968 1.478 . S
C1967 H1961 0.930 . S
C1967 C1963 1.400 . S
C1967 C1966 1.385 . S
C1968 C1966 1.478 . S
C1968 C1970 1.381 . S
C1968 C1974 1.383 . S
C1969 C1965 1.495 . S
C1969 H1975 0.959 . S
C1969 H1976 0.961 . S
C1969 H1977 0.960 . S
C1970 C1968 1.381 . S
C1970 C1971 1.394 . S
C1970 H1978 0.930 . S
C1971 C1970 1.394 . S
C1971 C1972 1.383 . S
C1971 H1979 0.929 . S
C1972 C1971 1.383 . S
C1972 C1973 1.377 . S
C1973 H1957 0.930 . S
C1973 C1972 1.377 . S
C1973 C1974 1.379 . S
C1974 H1958 0.931 . S
C1974 C1968 1.383 . S
C1974 C1973 1.379 . S
H1975 C1969 0.959 . S
H1976 C1969 0.961 . S
H1977 C1969 0.960 . S
H1978 C1970 0.930 . S
H1979 C1971 0.929 . S
H1980 C1988 0.929 . S
H1981 C1990 0.930 . S
H1982 C1992 0.930 . S
H1983 C1995 0.929 . S
H1984 C1998 0.930 . S
H1985 C2000 0.960 . S
H1986 C2000 0.960 . S
H1987 C2000 0.960 . S
C1988 H1980 0.929 . S
C1988 C1989 1.377 . S
C1988 C1990 1.384 . S
C1989 C1988 1.377 . S
C1989 C1995 1.390 . S
C1990 H1981 0.930 . S
C1990 C1988 1.384 . S
C1990 C1991 1.372 . S
C1991 C1990 1.372 . S
C1991 C1992 1.400 . S
C1991 C1996 1.490 . S
C1992 H1982 0.930 . S
C1992 C1991 1.400 . S
C1992 C1995 1.386 . S
H1993 C2009 0.930 . S
H1994 C2010 0.931 . S
C1995 H1983 0.929 . S
C1995 C1989 1.390 . S
C1995 C1992 1.386 . S
C1996 C1991 1.490 . S
C1996 C1998 1.395 . S
C1996 C1999 1.403 1_455 S
H1997 C2003 0.930 . S
C1998 H1984 0.930 . S
C1998 C1996 1.395 . S
C1998 C2001 1.403 . S
C1999 C1996 1.403 1_655 S
C1999 C2000 1.524 . S
C1999 C2003 1.400 . S
C2000 H1985 0.960 . S
C2000 H1986 0.960 . S
C2000 H1987 0.960 . S
C2000 C1999 1.524 . S
C2001 C1998 1.403 . S
C2001 C2002 1.392 1_455 S
C2001 C2005 1.495 . S
C2002 C2001 1.392 1_655 S
C2002 C2003 1.385 . S
C2002 C2004 1.478 . S
C2003 H1997 0.930 . S
C2003 C1999 1.400 . S
C2003 C2002 1.385 . S
C2004 C2002 1.478 . S
C2004 C2006 1.381 . S
C2004 C2010 1.383 . S
C2005 C2001 1.495 . S
C2005 H2011 0.959 . S
C2005 H2012 0.961 . S
C2005 H2013 0.960 . S
C2006 C2004 1.381 . S
C2006 C2007 1.394 . S
C2006 H2014 0.930 . S
C2007 C2006 1.394 . S
C2007 C2008 1.383 . S
C2007 H2015 0.929 . S
C2008 C2007 1.383 . S
C2008 C2009 1.377 . S
C2009 H1993 0.930 . S
C2009 C2008 1.377 . S
C2009 C2010 1.379 . S
C2010 H1994 0.931 . S
C2010 C2004 1.383 . S
C2010 C2009 1.379 . S
H2011 C2005 0.959 . S
H2012 C2005 0.961 . S
H2013 C2005 0.960 . S
H2014 C2006 0.930 . S
H2015 C2007 0.929 . S
H2016 C2024 0.929 . S
H2017 C2026 0.930 . S
H2018 C2028 0.930 . S
H2019 C2031 0.929 . S
H2020 C2034 0.930 . S
H2021 C2036 0.960 . S
H2022 C2036 0.960 . S
H2023 C2036 0.960 . S
C2024 H2016 0.929 . S
C2024 C2025 1.377 . S
C2024 C2026 1.384 . S
C2025 C2024 1.377 . S
C2025 C2031 1.390 . S
C2026 H2017 0.930 . S
C2026 C2024 1.384 . S
C2026 C2027 1.372 . S
C2027 C2026 1.372 . S
C2027 C2028 1.400 . S
C2027 C2032 1.490 . S
C2028 H2018 0.930 . S
C2028 C2027 1.400 . S
C2028 C2031 1.386 . S
H2029 C2045 0.930 . S
H2030 C2046 0.931 . S
C2031 H2019 0.929 . S
C2031 C2025 1.390 . S
C2031 C2028 1.386 . S
C2032 C2027 1.490 . S
C2032 C2034 1.395 . S
C2032 C2035 1.403 . S
H2033 C2039 0.930 . S
C2034 H2020 0.930 . S
C2034 C2032 1.395 . S
C2034 C2037 1.403 . S
C2035 C2032 1.403 . S
C2035 C2036 1.524 . S
C2035 C2039 1.400 . S
C2036 H2021 0.960 . S
C2036 H2022 0.960 . S
C2036 H2023 0.960 . S
C2036 C2035 1.524 . S
C2037 C2034 1.403 . S
C2037 C2038 1.392 . S
C2037 C2041 1.495 . S
C2038 C2037 1.392 . S
C2038 C2039 1.385 . S
C2038 C2040 1.478 . S
C2039 H2033 0.930 . S
C2039 C2035 1.400 . S
C2039 C2038 1.385 . S
C2040 C2038 1.478 . S
C2040 C2042 1.381 . S
C2040 C2046 1.383 . S
C2041 C2037 1.495 . S
C2041 H2047 0.959 . S
C2041 H2048 0.961 . S
C2041 H2049 0.960 . S
C2042 C2040 1.381 . S
C2042 C2043 1.394 . S
C2042 H2050 0.930 . S
C2043 C2042 1.394 . S
C2043 C2044 1.383 . S
C2043 H2051 0.929 . S
C2044 C2043 1.383 . S
C2044 C2045 1.377 . S
C2045 H2029 0.930 . S
C2045 C2044 1.377 . S
C2045 C2046 1.379 . S
C2046 H2030 0.931 . S
C2046 C2040 1.383 . S
C2046 C2045 1.379 . S
H2047 C2041 0.959 . S
H2048 C2041 0.961 . S
H2049 C2041 0.960 . S
H2050 C2042 0.930 . S
H2051 C2043 0.929 . S
H2052 C2060 0.929 . S
H2053 C2062 0.930 . S
H2054 C2064 0.930 . S
H2055 C2067 0.929 . S
H2056 C2070 0.930 . S
H2057 C2072 0.960 . S
H2058 C2072 0.960 . S
H2059 C2072 0.960 . S
C2060 H2052 0.929 . S
C2060 C2061 1.377 . S
C2060 C2062 1.384 . S
C2061 C2060 1.377 . S
C2061 C2067 1.390 . S
C2062 H2053 0.930 . S
C2062 C2060 1.384 . S
C2062 C2063 1.372 . S
C2063 C2062 1.372 . S
C2063 C2064 1.400 . S
C2063 C2068 1.490 1_554 S
C2064 H2054 0.930 . S
C2064 C2063 1.400 . S
C2064 C2067 1.386 . S
H2065 C2081 0.930 . S
H2066 C2082 0.931 . S
C2067 H2055 0.929 . S
C2067 C2061 1.390 . S
C2067 C2064 1.386 . S
C2068 C2063 1.490 1_556 S
C2068 C2070 1.395 1_655 S
C2068 C2071 1.403 . S
H2069 C2075 0.930 . S
C2070 H2056 0.930 . S
C2070 C2068 1.395 1_455 S
C2070 C2073 1.403 . S
C2071 C2068 1.403 . S
C2071 C2072 1.524 . S
C2071 C2075 1.400 . S
C2072 H2057 0.960 . S
C2072 H2058 0.960 . S
C2072 H2059 0.960 . S
C2072 C2071 1.524 . S
C2073 C2070 1.403 . S
C2073 C2074 1.392 . S
C2073 C2077 1.495 . S
C2074 C2073 1.392 . S
C2074 C2075 1.385 1_455 S
C2074 C2076 1.478 . S
C2075 H2069 0.930 . S
C2075 C2071 1.400 . S
C2075 C2074 1.385 1_655 S
C2076 C2074 1.478 . S
C2076 C2078 1.381 . S
C2076 C2082 1.383 . S
C2077 C2073 1.495 . S
C2077 H2083 0.959 . S
C2077 H2084 0.961 . S
C2077 H2085 0.960 . S
C2078 C2076 1.381 . S
C2078 C2079 1.394 . S
C2078 H2086 0.930 . S
C2079 C2078 1.394 . S
C2079 C2080 1.383 . S
C2079 H2087 0.929 . S
C2080 C2079 1.383 . S
C2080 C2081 1.377 . S
C2081 H2065 0.930 . S
C2081 C2080 1.377 . S
C2081 C2082 1.379 . S
C2082 H2066 0.931 . S
C2082 C2076 1.383 . S
C2082 C2081 1.379 . S
H2083 C2077 0.959 . S
H2084 C2077 0.961 . S
H2085 C2077 0.960 . S
H2086 C2078 0.930 . S
H2087 C2079 0.929 . S
H2088 C2096 0.929 . S
H2089 C2098 0.930 . S
H2090 C2100 0.930 . S
H2091 C2103 0.929 . S
H2092 C2106 0.930 . S
H2093 C2108 0.960 . S
H2094 C2108 0.960 . S
H2095 C2108 0.960 . S
C2096 H2088 0.929 . S
C2096 C2097 1.377 . S
C2096 C2098 1.384 . S
C2097 C2096 1.377 . S
C2097 C2103 1.390 . S
C2098 H2089 0.930 . S
C2098 C2096 1.384 . S
C2098 C2099 1.372 . S
C2099 C2098 1.372 . S
C2099 C2100 1.400 . S
C2099 C2104 1.490 . S
C2100 H2090 0.930 . S
C2100 C2099 1.400 . S
C2100 C2103 1.386 . S
H2101 C2117 0.930 . S
H2102 C2118 0.931 . S
C2103 H2091 0.929 . S
C2103 C2097 1.390 . S
C2103 C2100 1.386 . S
C2104 C2099 1.490 . S
C2104 C2106 1.395 . S
C2104 C2107 1.403 . S
H2105 C2111 0.930 . S
C2106 H2092 0.930 . S
C2106 C2104 1.395 . S
C2106 C2109 1.403 . S
C2107 C2104 1.403 . S
C2107 C2108 1.524 . S
C2107 C2111 1.400 . S
C2108 H2093 0.960 . S
C2108 H2094 0.960 . S
C2108 H2095 0.960 . S
C2108 C2107 1.524 . S
C2109 C2106 1.403 . S
C2109 C2110 1.392 . S
C2109 C2113 1.495 . S
C2110 C2109 1.392 . S
C2110 C2111 1.385 . S
C2110 C2112 1.478 . S
C2111 H2105 0.930 . S
C2111 C2107 1.400 . S
C2111 C2110 1.385 . S
C2112 C2110 1.478 . S
C2112 C2114 1.381 . S
C2112 C2118 1.383 . S
C2113 C2109 1.495 . S
C2113 H2119 0.959 . S
C2113 H2120 0.961 . S
C2113 H2121 0.960 . S
C2114 C2112 1.381 . S
C2114 C2115 1.394 . S
C2114 H2122 0.930 . S
C2115 C2114 1.394 . S
C2115 C2116 1.383 . S
C2115 H2123 0.929 . S
C2116 C2115 1.383 . S
C2116 C2117 1.377 . S
C2117 H2101 0.930 . S
C2117 C2116 1.377 . S
C2117 C2118 1.379 . S
C2118 H2102 0.931 . S
C2118 C2112 1.383 . S
C2118 C2117 1.379 . S
H2119 C2113 0.959 . S
H2120 C2113 0.961 . S
H2121 C2113 0.960 . S
H2122 C2114 0.930 . S
H2123 C2115 0.929 . S
H2124 C2132 0.929 . S
H2125 C2134 0.930 . S
H2126 C2136 0.930 . S
H2127 C2139 0.929 . S
H2128 C2142 0.930 . S
H2129 C2144 0.960 . S
H2130 C2144 0.960 . S
H2131 C2144 0.960 . S
C2132 H2124 0.929 . S
C2132 C2133 1.377 . S
C2132 C2134 1.384 . S
C2133 C2132 1.377 . S
C2133 C2139 1.390 . S
C2134 H2125 0.930 . S
C2134 C2132 1.384 . S
C2134 C2135 1.372 . S
C2135 C2134 1.372 . S
C2135 C2136 1.400 . S
C2135 C2140 1.490 . S
C2136 H2126 0.930 . S
C2136 C2135 1.400 . S
C2136 C2139 1.386 . S
H2137 C2153 0.930 . S
H2138 C2154 0.931 . S
C2139 H2127 0.929 . S
C2139 C2133 1.390 . S
C2139 C2136 1.386 . S
C2140 C2135 1.490 . S
C2140 C2142 1.395 . S
C2140 C2143 1.403 . S
H2141 C2147 0.930 . S
C2142 H2128 0.930 . S
C2142 C2140 1.395 . S
C2142 C2145 1.403 . S
C2143 C2140 1.403 . S
C2143 C2144 1.524 . S
C2143 C2147 1.400 . S
C2144 H2129 0.960 . S
C2144 H2130 0.960 . S
C2144 H2131 0.960 . S
C2144 C2143 1.524 . S
C2145 C2142 1.403 . S
C2145 C2146 1.392 . S
C2145 C2149 1.495 . S
C2146 C2145 1.392 . S
C2146 C2147 1.385 . S
C2146 C2148 1.478 . S
C2147 H2141 0.930 . S
C2147 C2143 1.400 . S
C2147 C2146 1.385 . S
C2148 C2146 1.478 . S
C2148 C2150 1.381 . S
C2148 C2154 1.383 . S
C2149 C2145 1.495 . S
C2149 H2155 0.959 . S
C2149 H2156 0.961 . S
C2149 H2157 0.960 . S
C2150 C2148 1.381 . S
C2150 C2151 1.394 . S
C2150 H2158 0.930 . S
C2151 C2150 1.394 . S
C2151 C2152 1.383 . S
C2151 H2159 0.929 . S
C2152 C2151 1.383 . S
C2152 C2153 1.377 . S
C2153 H2137 0.930 . S
C2153 C2152 1.377 . S
C2153 C2154 1.379 . S
C2154 H2138 0.931 . S
C2154 C2148 1.383 . S
C2154 C2153 1.379 . S
H2155 C2149 0.959 . S
H2156 C2149 0.961 . S
H2157 C2149 0.960 . S
H2158 C2150 0.930 . S
H2159 C2151 0.929 . S
H2160 C2168 0.929 . S
H2161 C2170 0.930 . S
H2162 C2172 0.930 . S
H2163 C2175 0.929 . S
H2164 C2178 0.930 . S
H2165 C2180 0.960 . S
H2166 C2180 0.960 . S
H2167 C2180 0.960 . S
C2168 H2160 0.929 . S
C2168 C2169 1.377 . S
C2168 C2170 1.384 . S
C2169 C2168 1.377 . S
C2169 C2175 1.390 . S
C2170 H2161 0.930 . S
C2170 C2168 1.384 . S
C2170 C2171 1.372 . S
C2171 C2170 1.372 . S
C2171 C2172 1.400 . S
C2171 C2176 1.490 . S
C2172 H2162 0.930 . S
C2172 C2171 1.400 . S
C2172 C2175 1.386 . S
H2173 C2189 0.930 . S
H2174 C2190 0.931 . S
C2175 H2163 0.929 . S
C2175 C2169 1.390 . S
C2175 C2172 1.386 . S
C2176 C2171 1.490 . S
C2176 C2178 1.395 . S
C2176 C2179 1.403 . S
H2177 C2183 0.930 . S
C2178 H2164 0.930 . S
C2178 C2176 1.395 . S
C2178 C2181 1.403 . S
C2179 C2176 1.403 . S
C2179 C2180 1.524 . S
C2179 C2183 1.400 . S
C2180 H2165 0.960 . S
C2180 H2166 0.960 . S
C2180 H2167 0.960 . S
C2180 C2179 1.524 . S
C2181 C2178 1.403 . S
C2181 C2182 1.392 . S
C2181 C2185 1.495 . S
C2182 C2181 1.392 . S
C2182 C2183 1.385 . S
C2182 C2184 1.478 . S
C2183 H2177 0.930 . S
C2183 C2179 1.400 . S
C2183 C2182 1.385 . S
C2184 C2182 1.478 . S
C2184 C2186 1.381 . S
C2184 C2190 1.383 . S
C2185 C2181 1.495 . S
C2185 H2191 0.959 . S
C2185 H2192 0.961 . S
C2185 H2193 0.960 . S
C2186 C2184 1.381 . S
C2186 C2187 1.394 . S
C2186 H2194 0.930 . S
C2187 C2186 1.394 . S
C2187 C2188 1.383 . S
C2187 H2195 0.929 . S
C2188 C2187 1.383 . S
C2188 C2189 1.377 . S
C2189 H2173 0.930 . S
C2189 C2188 1.377 . S
C2189 C2190 1.379 . S
C2190 H2174 0.931 . S
C2190 C2184 1.383 . S
C2190 C2189 1.379 . S
H2191 C2185 0.959 . S
H2192 C2185 0.961 . S
H2193 C2185 0.960 . S
H2194 C2186 0.930 . S
H2195 C2187 0.929 . S
H2196 C2204 0.929 . S
H2197 C2206 0.930 . S
H2198 C2208 0.930 . S
H2199 C2211 0.929 . S
H2200 C2214 0.930 . S
H2201 C2216 0.960 . S
H2202 C2216 0.960 . S
H2203 C2216 0.960 . S
C2204 H2196 0.929 . S
C2204 C2205 1.377 . S
C2204 C2206 1.384 . S
C2205 C2204 1.377 . S
C2205 C2211 1.390 . S
C2206 H2197 0.930 . S
C2206 C2204 1.384 . S
C2206 C2207 1.372 . S
C2207 C2206 1.372 . S
C2207 C2208 1.400 . S
C2207 C2212 1.490 . S
C2208 H2198 0.930 . S
C2208 C2207 1.400 . S
C2208 C2211 1.386 . S
H2209 C2225 0.930 . S
H2210 C2226 0.931 . S
C2211 H2199 0.929 . S
C2211 C2205 1.390 . S
C2211 C2208 1.386 . S
C2212 C2207 1.490 . S
C2212 C2214 1.395 . S
C2212 C2215 1.403 . S
H2213 C2219 0.930 . S
C2214 H2200 0.930 . S
C2214 C2212 1.395 . S
C2214 C2217 1.403 . S
C2215 C2212 1.403 . S
C2215 C2216 1.524 . S
C2215 C2219 1.400 . S
C2216 H2201 0.960 . S
C2216 H2202 0.960 . S
C2216 H2203 0.960 . S
C2216 C2215 1.524 . S
C2217 C2214 1.403 . S
C2217 C2218 1.392 . S
C2217 C2221 1.495 . S
C2218 C2217 1.392 . S
C2218 C2219 1.385 . S
C2218 C2220 1.478 1_554 S
C2219 H2213 0.930 . S
C2219 C2215 1.400 . S
C2219 C2218 1.385 . S
C2220 C2218 1.478 1_556 S
C2220 C2222 1.381 . S
C2220 C2226 1.383 . S
C2221 C2217 1.495 . S
C2221 H2227 0.959 . S
C2221 H2228 0.961 . S
C2221 H2229 0.960 . S
C2222 C2220 1.381 . S
C2222 C2223 1.394 . S
C2222 H2230 0.930 1_556 S
C2223 C2222 1.394 . S
C2223 C2224 1.383 . S
C2223 H2231 0.929 . S
C2224 C2223 1.383 . S
C2224 C2225 1.377 . S
C2225 H2209 0.930 . S
C2225 C2224 1.377 . S
C2225 C2226 1.379 . S
C2226 H2210 0.931 . S
C2226 C2220 1.383 . S
C2226 C2225 1.379 . S
H2227 C2221 0.959 . S
H2228 C2221 0.961 . S
H2229 C2221 0.960 . S
H2230 C2222 0.930 1_554 S
H2231 C2223 0.929 . S
H2232 C2240 0.929 . S
H2233 C2242 0.930 . S
H2234 C2244 0.930 . S
H2235 C2247 0.929 . S
H2236 C2250 0.930 . S
H2237 C2252 0.960 . S
H2238 C2252 0.960 . S
H2239 C2252 0.960 . S
C2240 H2232 0.929 . S
C2240 C2241 1.377 . S
C2240 C2242 1.384 . S
C2241 C2240 1.377 . S
C2241 C2247 1.390 . S
C2242 H2233 0.930 . S
C2242 C2240 1.384 . S
C2242 C2243 1.372 . S
C2243 C2242 1.372 . S
C2243 C2244 1.400 . S
C2243 C2248 1.490 . S
C2244 H2234 0.930 . S
C2244 C2243 1.400 . S
C2244 C2247 1.386 . S
H2245 C2261 0.930 . S
H2246 C2262 0.931 . S
C2247 H2235 0.929 . S
C2247 C2241 1.390 . S
C2247 C2244 1.386 . S
C2248 C2243 1.490 . S
C2248 C2250 1.395 . S
C2248 C2251 1.403 . S
H2249 C2255 0.930 . S
C2250 H2236 0.930 . S
C2250 C2248 1.395 . S
C2250 C2253 1.403 . S
C2251 C2248 1.403 . S
C2251 C2252 1.524 . S
C2251 C2255 1.400 . S
C2252 H2237 0.960 . S
C2252 H2238 0.960 . S
C2252 H2239 0.960 . S
C2252 C2251 1.524 . S
C2253 C2250 1.403 . S
C2253 C2254 1.392 . S
C2253 C2257 1.495 . S
C2254 C2253 1.392 . S
C2254 C2255 1.385 . S
C2254 C2256 1.478 . S
C2255 H2249 0.930 . S
C2255 C2251 1.400 . S
C2255 C2254 1.385 . S
C2256 C2254 1.478 . S
C2256 C2258 1.381 . S
C2256 C2262 1.383 . S
C2257 C2253 1.495 . S
C2257 H2263 0.959 . S
C2257 H2264 0.961 . S
C2257 H2265 0.960 . S
C2258 C2256 1.381 . S
C2258 C2259 1.394 . S
C2258 H2266 0.930 . S
C2259 C2258 1.394 . S
C2259 C2260 1.383 . S
C2259 H2267 0.929 . S
C2260 C2259 1.383 . S
C2260 C2261 1.377 . S
C2261 H2245 0.930 . S
C2261 C2260 1.377 . S
C2261 C2262 1.379 . S
C2262 H2246 0.931 . S
C2262 C2256 1.383 . S
C2262 C2261 1.379 . S
H2263 C2257 0.959 . S
H2264 C2257 0.961 . S
H2265 C2257 0.960 . S
H2266 C2258 0.930 . S
H2267 C2259 0.929 . S
H2268 C2276 0.929 . S
H2269 C2278 0.930 1_455 S
H2270 C2280 0.930 . S
H2271 C2283 0.929 . S
H2272 C2286 0.930 . S
H2273 C2288 0.960 . S
H2274 C2288 0.960 . S
H2275 C2288 0.960 . S
C2276 H2268 0.929 . S
C2276 C2277 1.377 . S
C2276 C2278 1.384 . S
C2277 C2276 1.377 . S
C2277 C2283 1.390 . S
C2278 H2269 0.930 1_655 S
C2278 C2276 1.384 . S
C2278 C2279 1.372 . S
C2279 C2278 1.372 . S
C2279 C2280 1.400 . S
C2279 C2284 1.490 . S
C2280 H2270 0.930 . S
C2280 C2279 1.400 . S
C2280 C2283 1.386 . S
H2281 C2297 0.930 . S
H2282 C2298 0.931 1_655 S
C2283 H2271 0.929 . S
C2283 C2277 1.390 . S
C2283 C2280 1.386 . S
C2284 C2279 1.490 . S
C2284 C2286 1.395 1_655 S
C2284 C2287 1.403 . S
H2285 C2291 0.925 1_655 S
C2286 H2272 0.930 . S
C2286 C2284 1.395 1_455 S
C2286 C2289 1.403 . S
C2287 C2284 1.403 . S
C2287 C2288 1.524 . S
C2287 C2291 1.366 1_655 S
C2288 H2273 0.960 . S
C2288 H2274 0.960 . S
C2288 H2275 0.960 . S
C2288 C2287 1.524 . S
C2289 C2286 1.403 . S
C2289 C2290 1.392 . S
C2289 C2293 1.495 . S
C2290 C2289 1.392 . S
C2290 C2291 1.430 . S
C2290 C2292 1.478 . S
C2291 H2285 0.925 1_455 S
C2291 C2287 1.366 1_455 S
C2291 C2290 1.430 . S
C2292 C2290 1.478 . S
C2292 C2294 1.381 . S
C2292 C2298 1.383 . S
C2293 C2289 1.495 . S
C2293 H2299 0.959 . S
C2293 H2300 0.961 . S
C2293 H2301 0.960 . S
C2294 C2292 1.381 . S
C2294 C2295 1.394 . S
C2294 H2302 0.930 . S
C2295 C2294 1.394 . S
C2295 C2296 1.383 . S
C2295 H2303 0.929 . S
C2296 C2295 1.383 . S
C2296 C2297 1.377 . S
C2297 H2281 0.930 . S
C2297 C2296 1.377 . S
C2297 C2298 1.379 . S
C2298 H2282 0.931 1_455 S
C2298 C2292 1.383 . S
C2298 C2297 1.379 . S
H2299 C2293 0.959 . S
H2300 C2293 0.961 . S
H2301 C2293 0.960 . S
H2302 C2294 0.930 . S
H2303 C2295 0.929 . S
H2304 C2312 0.929 . S
H2305 C2314 0.930 . S
H2306 C2316 0.930 . S
H2307 C2319 0.929 . S
H2308 C2322 0.930 . S
H2309 C2324 0.960 . S
H2310 C2324 0.960 . S
H2311 C2324 0.960 . S
C2312 H2304 0.929 . S
C2312 C2313 1.377 . S
C2312 C2314 1.384 . S
C2313 C2312 1.377 . S
C2313 C2319 1.390 . S
C2314 H2305 0.930 . S
C2314 C2312 1.384 . S
C2314 C2315 1.372 . S
C2315 C2314 1.372 . S
C2315 C2316 1.400 . S
C2315 C2320 1.490 . S
C2316 H2306 0.930 . S
C2316 C2315 1.400 . S
C2316 C2319 1.386 . S
H2317 C2333 0.930 . S
H2318 C2334 0.931 . S
C2319 H2307 0.929 . S
C2319 C2313 1.390 . S
C2319 C2316 1.386 . S
C2320 C2315 1.490 . S
C2320 C2322 1.395 . S
C2320 C2323 1.403 . S
H2321 C2327 0.930 . S
C2322 H2308 0.930 . S
C2322 C2320 1.395 . S
C2322 C2325 1.403 . S
C2323 C2320 1.403 . S
C2323 C2324 1.524 . S
C2323 C2327 1.400 . S
C2324 H2309 0.960 . S
C2324 H2310 0.960 . S
C2324 H2311 0.960 . S
C2324 C2323 1.524 . S
C2325 C2322 1.403 . S
C2325 C2326 1.392 . S
C2325 C2329 1.495 . S
C2326 C2325 1.392 . S
C2326 C2327 1.385 . S
C2326 C2328 1.478 . S
C2327 H2321 0.930 . S
C2327 C2323 1.400 . S
C2327 C2326 1.385 . S
C2328 C2326 1.478 . S
C2328 C2330 1.381 . S
C2328 C2334 1.383 . S
C2329 C2325 1.495 . S
C2329 H2335 0.959 . S
C2329 H2336 0.961 . S
C2329 H2337 0.960 . S
C2330 C2328 1.381 . S
C2330 C2331 1.394 . S
C2330 H2338 0.930 . S
C2331 C2330 1.394 . S
C2331 C2332 1.383 . S
C2331 H2339 0.929 . S
C2332 C2331 1.383 . S
C2332 C2333 1.377 . S
C2333 H2317 0.930 . S
C2333 C2332 1.377 . S
C2333 C2334 1.379 . S
C2334 H2318 0.931 . S
C2334 C2328 1.383 . S
C2334 C2333 1.379 . S
H2335 C2329 0.959 . S
H2336 C2329 0.961 . S
H2337 C2329 0.960 . S
H2338 C2330 0.930 . S
H2339 C2331 0.929 . S
H2340 C2348 0.929 . S
H2341 C2350 0.930 . S
H2342 C2352 0.930 . S
H2343 C2355 0.929 . S
H2344 C2358 0.930 . S
H2345 C2360 0.960 . S
H2346 C2360 0.960 . S
H2347 C2360 0.960 . S
C2348 H2340 0.929 . S
C2348 C2349 1.377 . S
C2348 C2350 1.384 . S
C2349 C2348 1.377 . S
C2349 C2355 1.390 . S
C2350 H2341 0.930 . S
C2350 C2348 1.384 . S
C2350 C2351 1.372 . S
C2351 C2350 1.372 . S
C2351 C2352 1.400 . S
C2351 C2356 1.490 . S
C2352 H2342 0.930 . S
C2352 C2351 1.400 . S
C2352 C2355 1.386 . S
H2353 C2369 0.930 . S
H2354 C2370 0.931 . S
C2355 H2343 0.929 . S
C2355 C2349 1.390 . S
C2355 C2352 1.386 . S
C2356 C2351 1.490 . S
C2356 C2358 1.395 . S
C2356 C2359 1.403 . S
H2357 C2363 0.930 . S
C2358 H2344 0.930 . S
C2358 C2356 1.395 . S
C2358 C2361 1.403 . S
C2359 C2356 1.403 . S
C2359 C2360 1.524 . S
C2359 C2363 1.400 . S
C2360 H2345 0.960 . S
C2360 H2346 0.960 . S
C2360 H2347 0.960 . S
C2360 C2359 1.524 . S
C2361 C2358 1.403 . S
C2361 C2362 1.392 . S
C2361 C2365 1.495 . S
C2362 C2361 1.392 . S
C2362 C2363 1.385 . S
C2362 C2364 1.478 . S
C2363 H2357 0.930 . S
C2363 C2359 1.400 . S
C2363 C2362 1.385 . S
C2364 C2362 1.478 . S
C2364 C2366 1.381 . S
C2364 C2370 1.383 . S
C2365 C2361 1.495 . S
C2365 H2371 0.959 . S
C2365 H2372 0.961 . S
C2365 H2373 0.960 . S
C2366 C2364 1.381 . S
C2366 C2367 1.394 . S
C2366 H2374 0.930 . S
C2367 C2366 1.394 . S
C2367 C2368 1.383 . S
C2367 H2375 0.929 . S
C2368 C2367 1.383 . S
C2368 C2369 1.377 . S
C2369 H2353 0.930 . S
C2369 C2368 1.377 . S
C2369 C2370 1.379 . S
C2370 H2354 0.931 . S
C2370 C2364 1.383 . S
C2370 C2369 1.379 . S
H2371 C2365 0.959 . S
H2372 C2365 0.961 . S
H2373 C2365 0.960 . S
H2374 C2366 0.930 . S
H2375 C2367 0.929 . S
H2376 C2384 0.929 . S
H2377 C2386 0.930 . S
H2378 C2388 0.930 . S
H2379 C2391 0.929 . S
H2380 C2394 0.930 . S
H2381 C2396 0.960 . S
H2382 C2396 0.960 . S
H2383 C2396 0.960 . S
C2384 H2376 0.929 . S
C2384 C2385 1.377 . S
C2384 C2386 1.384 . S
C2385 C2384 1.377 . S
C2385 C2391 1.390 . S
C2386 H2377 0.930 . S
C2386 C2384 1.384 . S
C2386 C2387 1.372 . S
C2387 C2386 1.372 . S
C2387 C2388 1.400 . S
C2387 C2392 1.490 . S
C2388 H2378 0.930 . S
C2388 C2387 1.400 . S
C2388 C2391 1.386 . S
H2389 C2405 0.930 . S
H2390 C2406 0.931 . S
C2391 H2379 0.929 . S
C2391 C2385 1.390 . S
C2391 C2388 1.386 . S
C2392 C2387 1.490 . S
C2392 C2394 1.395 . S
C2392 C2395 1.403 . S
H2393 C2399 0.930 . S
C2394 H2380 0.930 . S
C2394 C2392 1.395 . S
C2394 C2397 1.403 . S
C2395 C2392 1.403 . S
C2395 C2396 1.524 . S
C2395 C2399 1.400 . S
C2396 H2381 0.960 . S
C2396 H2382 0.960 . S
C2396 H2383 0.960 . S
C2396 C2395 1.524 . S
C2397 C2394 1.403 . S
C2397 C2398 1.392 . S
C2397 C2401 1.495 . S
C2398 C2397 1.392 . S
C2398 C2399 1.385 . S
C2398 C2400 1.478 . S
C2399 H2393 0.930 . S
C2399 C2395 1.400 . S
C2399 C2398 1.385 . S
C2400 C2398 1.478 . S
C2400 C2402 1.381 . S
C2400 C2406 1.383 . S
C2401 C2397 1.495 . S
C2401 H2407 0.959 . S
C2401 H2408 0.961 . S
C2401 H2409 0.960 . S
C2402 C2400 1.381 . S
C2402 C2403 1.394 . S
C2402 H2410 0.930 . S
C2403 C2402 1.394 . S
C2403 C2404 1.383 . S
C2403 H2411 0.929 . S
C2404 C2403 1.383 . S
C2404 C2405 1.377 . S
C2405 H2389 0.930 . S
C2405 C2404 1.377 . S
C2405 C2406 1.379 . S
C2406 H2390 0.931 . S
C2406 C2400 1.383 . S
C2406 C2405 1.379 . S
H2407 C2401 0.959 . S
H2408 C2401 0.961 . S
H2409 C2401 0.960 . S
H2410 C2402 0.930 . S
H2411 C2403 0.929 . S
H2412 C2420 0.929 . S
H2413 C2422 0.930 . S
H2414 C2424 0.930 . S
H2415 C2427 0.929 . S
H2416 C2430 0.930 . S
H2417 C2432 0.960 . S
H2418 C2432 0.960 . S
H2419 C2432 0.960 . S
C2420 H2412 0.929 . S
C2420 C2421 1.377 . S
C2420 C2422 1.384 . S
C2421 C2420 1.377 . S
C2421 C2427 1.390 . S
C2422 H2413 0.930 . S
C2422 C2420 1.384 . S
C2422 C2423 1.372 . S
C2423 C2422 1.372 . S
C2423 C2424 1.400 . S
C2423 C2428 1.490 . S
C2424 H2414 0.930 . S
C2424 C2423 1.400 . S
C2424 C2427 1.386 . S
H2425 C2441 0.930 . S
H2426 C2442 0.931 . S
C2427 H2415 0.929 . S
C2427 C2421 1.390 . S
C2427 C2424 1.386 . S
C2428 C2423 1.490 . S
C2428 C2430 1.395 . S
C2428 C2431 1.403 1_455 S
H2429 C2435 0.930 . S
C2430 H2416 0.930 . S
C2430 C2428 1.395 . S
C2430 C2433 1.403 . S
C2431 C2428 1.403 1_655 S
C2431 C2432 1.524 . S
C2431 C2435 1.400 . S
C2432 H2417 0.960 . S
C2432 H2418 0.960 . S
C2432 H2419 0.960 . S
C2432 C2431 1.524 . S
C2433 C2430 1.403 . S
C2433 C2434 1.392 1_455 S
C2433 C2437 1.495 1_554 S
C2434 C2433 1.392 1_655 S
C2434 C2435 1.385 . S
C2434 C2436 1.478 1_554 S
C2435 H2429 0.930 . S
C2435 C2431 1.400 . S
C2435 C2434 1.385 . S
C2436 C2434 1.478 1_556 S
C2436 C2438 1.381 . S
C2436 C2442 1.383 . S
C2437 C2433 1.495 1_556 S
C2437 H2443 0.959 1_556 S
C2437 H2444 0.961 . S
C2437 H2445 0.960 . S
C2438 C2436 1.381 . S
C2438 C2439 1.394 . S
C2438 H2446 0.930 . S
C2439 C2438 1.394 . S
C2439 C2440 1.383 . S
C2439 H2447 0.929 . S
C2440 C2439 1.383 . S
C2440 C2441 1.377 . S
C2441 H2425 0.930 . S
C2441 C2440 1.377 . S
C2441 C2442 1.379 . S
C2442 H2426 0.931 . S
C2442 C2436 1.383 . S
C2442 C2441 1.379 . S
H2443 C2437 0.959 1_554 S
H2444 C2437 0.961 . S
H2445 C2437 0.960 . S
H2446 C2438 0.930 . S
H2447 C2439 0.929 . S
H2448 C2456 0.929 . S
H2449 C2458 0.930 . S
H2450 C2460 0.930 . S
H2451 C2463 0.929 . S
H2452 C2466 0.930 . S
H2453 C2468 0.960 . S
H2454 C2468 0.960 . S
H2455 C2468 0.960 . S
C2456 H2448 0.929 . S
C2456 C2457 1.377 . S
C2456 C2458 1.384 . S
C2457 C2456 1.377 . S
C2457 C2463 1.390 . S
C2458 H2449 0.930 . S
C2458 C2456 1.384 . S
C2458 C2459 1.372 . S
C2459 C2458 1.372 . S
C2459 C2460 1.400 . S
C2459 C2464 1.490 . S
C2460 H2450 0.930 . S
C2460 C2459 1.400 . S
C2460 C2463 1.386 . S
H2461 C2477 0.930 . S
H2462 C2478 0.931 . S
C2463 H2451 0.929 . S
C2463 C2457 1.390 . S
C2463 C2460 1.386 . S
C2464 C2459 1.490 . S
C2464 C2466 1.395 . S
C2464 C2467 1.403 . S
H2465 C2471 0.930 . S
C2466 H2452 0.930 . S
C2466 C2464 1.395 . S
C2466 C2469 1.403 . S
C2467 C2464 1.403 . S
C2467 C2468 1.524 . S
C2467 C2471 1.400 . S
C2468 H2453 0.960 . S
C2468 H2454 0.960 . S
C2468 H2455 0.960 . S
C2468 C2467 1.524 . S
C2469 C2466 1.403 . S
C2469 C2470 1.392 . S
C2469 C2473 1.495 . S
C2470 C2469 1.392 . S
C2470 C2471 1.385 . S
C2470 C2472 1.478 . S
C2471 H2465 0.930 . S
C2471 C2467 1.400 . S
C2471 C2470 1.385 . S
C2472 C2470 1.478 . S
C2472 C2474 1.381 . S
C2472 C2478 1.383 . S
C2473 C2469 1.495 . S
C2473 H2479 0.959 . S
C2473 H2480 0.961 . S
C2473 H2481 0.960 . S
C2474 C2472 1.381 . S
C2474 C2475 1.394 . S
C2474 H2482 0.930 . S
C2475 C2474 1.394 . S
C2475 C2476 1.383 . S
C2475 H2483 0.929 . S
C2476 C2475 1.383 . S
C2476 C2477 1.377 . S
C2477 H2461 0.930 . S
C2477 C2476 1.377 . S
C2477 C2478 1.379 . S
C2478 H2462 0.931 . S
C2478 C2472 1.383 . S
C2478 C2477 1.379 . S
H2479 C2473 0.959 . S
H2480 C2473 0.961 . S
H2481 C2473 0.960 . S
H2482 C2474 0.930 . S
H2483 C2475 0.929 . S
H2484 C2492 0.929 . S
H2485 C2494 0.930 . S
H2486 C2496 0.930 1_455 S
H2487 C2499 0.929 . S
H2488 C2502 0.930 . S
H2489 C2504 0.960 . S
H2490 C2504 0.960 . S
H2491 C2504 0.960 . S
C2492 H2484 0.929 . S
C2492 C2493 1.377 . S
C2492 C2494 1.384 . S
C2493 C2492 1.377 . S
C2493 C2499 1.390 . S
C2494 H2485 0.930 . S
C2494 C2492 1.384 . S
C2494 C2495 1.372 . S
C2495 C2494 1.372 . S
C2495 C2496 1.400 . S
C2495 C2500 1.490 . S
C2496 H2486 0.930 1_655 S
C2496 C2495 1.400 . S
C2496 C2499 1.386 . S
H2497 C2513 0.930 . S
H2498 C2514 0.931 . S
C2499 H2487 0.929 . S
C2499 C2493 1.390 . S
C2499 C2496 1.386 . S
C2500 C2495 1.490 . S
C2500 C2502 1.395 . S
C2500 C2503 1.403 . S
H2501 C2507 0.930 . S
C2502 H2488 0.930 . S
C2502 C2500 1.395 . S
C2502 C2505 1.403 1_655 S
C2503 C2500 1.403 . S
C2503 C2504 1.524 . S
C2503 C2507 1.400 1_655 S
C2504 H2489 0.960 . S
C2504 H2490 0.960 . S
C2504 H2491 0.960 . S
C2504 C2503 1.524 . S
C2505 C2502 1.403 1_455 S
C2505 C2506 1.392 . S
C2505 C2509 1.495 . S
C2506 C2505 1.392 . S
C2506 C2507 1.385 . S
C2506 C2508 1.478 . S
C2507 H2501 0.930 . S
C2507 C2503 1.400 1_455 S
C2507 C2506 1.385 . S
C2508 C2506 1.478 . S
C2508 C2510 1.381 . S
C2508 C2514 1.383 . S
C2509 C2505 1.495 . S
C2509 H2515 0.959 . S
C2509 H2516 0.961 . S
C2509 H2517 0.960 . S
C2510 C2508 1.381 . S
C2510 C2511 1.394 . S
C2510 H2518 0.862 1_455 S
C2511 C2510 1.394 . S
C2511 C2512 1.383 . S
C2511 H2519 0.929 . S
C2512 C2511 1.383 . S
C2512 C2513 1.377 . S
C2513 H2497 0.930 . S
C2513 C2512 1.377 . S
C2513 C2514 1.379 . S
C2514 H2498 0.931 . S
C2514 C2508 1.383 . S
C2514 C2513 1.379 . S
H2515 C2509 0.959 . S
H2516 C2509 0.961 . S
H2517 C2509 0.960 . S
H2518 C2510 0.862 1_655 S
H2519 C2511 0.929 . S
H2520 C2528 0.929 . S
H2521 C2530 0.930 . S
H2522 C2532 0.930 . S
H2523 C2535 0.929 . S
H2524 C2538 0.930 . S
H2525 C2540 0.960 . S
H2526 C2540 0.960 . S
H2527 C2540 0.960 . S
C2528 H2520 0.929 . S
C2528 C2529 1.377 . S
C2528 C2530 1.384 . S
C2529 C2528 1.377 . S
C2529 C2535 1.390 . S
C2530 H2521 0.930 . S
C2530 C2528 1.384 . S
C2530 C2531 1.372 . S
C2531 C2530 1.372 . S
C2531 C2532 1.400 . S
C2531 C2536 1.490 . S
C2532 H2522 0.930 . S
C2532 C2531 1.400 . S
C2532 C2535 1.386 . S
H2533 C2549 0.930 . S
H2534 C2550 0.931 . S
C2535 H2523 0.929 . S
C2535 C2529 1.390 . S
C2535 C2532 1.386 . S
C2536 C2531 1.490 . S
C2536 C2538 1.395 . S
C2536 C2539 1.403 . S
H2537 C2543 0.930 . S
C2538 H2524 0.930 . S
C2538 C2536 1.395 . S
C2538 C2541 1.403 . S
C2539 C2536 1.403 . S
C2539 C2540 1.524 . S
C2539 C2543 1.400 . S
C2540 H2525 0.960 . S
C2540 H2526 0.960 . S
C2540 H2527 0.960 . S
C2540 C2539 1.524 . S
C2541 C2538 1.403 . S
C2541 C2542 1.392 . S
C2541 C2545 1.495 . S
C2542 C2541 1.392 . S
C2542 C2543 1.385 . S
C2542 C2544 1.478 . S
C2543 H2537 0.930 . S
C2543 C2539 1.400 . S
C2543 C2542 1.385 . S
C2544 C2542 1.478 . S
C2544 C2546 1.381 . S
C2544 C2550 1.383 . S
C2545 C2541 1.495 . S
C2545 H2551 0.959 . S
C2545 H2552 0.961 . S
C2545 H2553 0.960 . S
C2546 C2544 1.381 . S
C2546 C2547 1.394 . S
C2546 H2554 0.930 . S
C2547 C2546 1.394 . S
C2547 C2548 1.383 . S
C2547 H2555 0.929 . S
C2548 C2547 1.383 . S
C2548 C2549 1.377 . S
C2549 H2533 0.930 . S
C2549 C2548 1.377 . S
C2549 C2550 1.379 . S
C2550 H2534 0.931 . S
C2550 C2544 1.383 . S
C2550 C2549 1.379 . S
H2551 C2545 0.959 . S
H2552 C2545 0.961 . S
H2553 C2545 0.960 . S
H2554 C2546 0.930 . S
H2555 C2547 0.929 . S
H2556 C2564 0.929 . S
H2557 C2566 0.930 . S
H2558 C2568 0.930 . S
H2559 C2571 0.929 . S
H2560 C2574 0.930 . S
H2561 C2576 0.960 . S
H2562 C2576 0.960 1_554 S
H2563 C2576 0.960 1_554 S
C2564 H2556 0.929 . S
C2564 C2565 1.377 . S
C2564 C2566 1.384 . S
C2565 C2564 1.377 . S
C2565 C2571 1.390 . S
C2566 H2557 0.930 . S
C2566 C2564 1.384 . S
C2566 C2567 1.372 . S
C2567 C2566 1.372 . S
C2567 C2568 1.400 . S
C2567 C2572 1.490 1_554 S
C2568 H2558 0.930 . S
C2568 C2567 1.400 . S
C2568 C2571 1.386 . S
H2569 C2585 0.930 . S
H2570 C2586 0.931 . S
C2571 H2559 0.929 . S
C2571 C2565 1.390 . S
C2571 C2568 1.386 . S
C2572 C2567 1.490 1_556 S
C2572 C2574 1.395 . S
C2572 C2575 1.403 . S
H2573 C2579 0.930 . S
C2574 H2560 0.930 . S
C2574 C2572 1.395 . S
C2574 C2577 1.403 . S
C2575 C2572 1.403 . S
C2575 C2576 1.524 . S
C2575 C2579 1.400 . S
C2576 H2561 0.960 . S
C2576 H2562 0.960 1_556 S
C2576 H2563 0.960 1_556 S
C2576 C2575 1.524 . S
C2577 C2574 1.403 . S
C2577 C2578 1.392 . S
C2577 C2581 1.495 . S
C2578 C2577 1.392 . S
C2578 C2579 1.385 . S
C2578 C2580 1.478 . S
C2579 H2573 0.930 . S
C2579 C2575 1.400 . S
C2579 C2578 1.385 . S
C2580 C2578 1.478 . S
C2580 C2582 1.381 . S
C2580 C2586 1.383 . S
C2581 C2577 1.495 . S
C2581 H2587 0.959 . S
C2581 H2588 0.961 . S
C2581 H2589 0.960 . S
C2582 C2580 1.381 . S
C2582 C2583 1.394 . S
C2582 H2590 0.930 . S
C2583 C2582 1.394 . S
C2583 C2584 1.383 . S
C2583 H2591 0.929 . S
C2584 C2583 1.383 . S
C2584 C2585 1.377 . S
C2585 H2569 0.930 . S
C2585 C2584 1.377 . S
C2585 C2586 1.379 . S
C2586 H2570 0.931 . S
C2586 C2580 1.383 . S
C2586 C2585 1.379 . S
H2587 C2581 0.959 . S
H2588 C2581 0.961 . S
H2589 C2581 0.960 . S
H2590 C2582 0.930 . S
H2591 C2583 0.929 . S
H2592 C2600 0.929 . S
H2593 C2602 0.930 . S
H2594 C2604 0.930 . S
H2595 C2607 0.929 . S
H2596 C2610 0.930 . S
H2597 C2612 0.960 . S
H2598 C2612 0.960 . S
H2599 C2612 0.960 . S
C2600 H2592 0.929 . S
C2600 C2601 1.377 . S
C2600 C2602 1.384 . S
C2601 C2600 1.377 . S
C2601 C2607 1.390 . S
C2602 H2593 0.930 . S
C2602 C2600 1.384 . S
C2602 C2603 1.372 . S
C2603 C2602 1.372 . S
C2603 C2604 1.400 . S
C2603 C2608 1.490 . S
C2604 H2594 0.930 . S
C2604 C2603 1.400 . S
C2604 C2607 1.386 . S
H2605 C2621 0.930 . S
H2606 C2622 0.931 . S
C2607 H2595 0.929 . S
C2607 C2601 1.390 . S
C2607 C2604 1.386 . S
C2608 C2603 1.490 . S
C2608 C2610 1.395 . S
C2608 C2611 1.403 . S
H2609 C2615 0.930 . S
C2610 H2596 0.930 . S
C2610 C2608 1.395 . S
C2610 C2613 1.403 . S
C2611 C2608 1.403 . S
C2611 C2612 1.524 . S
C2611 C2615 1.400 . S
C2612 H2597 0.960 . S
C2612 H2598 0.960 . S
C2612 H2599 0.960 . S
C2612 C2611 1.524 . S
C2613 C2610 1.403 . S
C2613 C2614 1.392 . S
C2613 C2617 1.495 . S
C2614 C2613 1.392 . S
C2614 C2615 1.385 . S
C2614 C2616 1.478 . S
C2615 H2609 0.930 . S
C2615 C2611 1.400 . S
C2615 C2614 1.385 . S
C2616 C2614 1.478 . S
C2616 C2618 1.381 . S
C2616 C2622 1.383 . S
C2617 C2613 1.495 . S
C2617 H2623 0.959 . S
C2617 H2624 0.961 . S
C2617 H2625 0.960 . S
C2618 C2616 1.381 . S
C2618 C2619 1.394 . S
C2618 H2626 0.930 . S
C2619 C2618 1.394 . S
C2619 C2620 1.383 . S
C2619 H2627 0.929 . S
C2620 C2619 1.383 . S
C2620 C2621 1.377 . S
C2621 H2605 0.930 . S
C2621 C2620 1.377 . S
C2621 C2622 1.379 . S
C2622 H2606 0.931 . S
C2622 C2616 1.383 . S
C2622 C2621 1.379 . S
H2623 C2617 0.959 . S
H2624 C2617 0.961 . S
H2625 C2617 0.960 . S
H2626 C2618 0.930 . S
H2627 C2619 0.929 . S
H2628 C2636 0.929 . S
H2629 C2638 0.930 . S
H2630 C2640 0.930 . S
H2631 C2643 0.929 . S
H2632 C2646 0.930 . S
H2633 C2648 0.960 . S
H2634 C2648 0.960 . S
H2635 C2648 0.960 . S
C2636 H2628 0.929 . S
C2636 C2637 1.377 . S
C2636 C2638 1.384 . S
C2637 C2636 1.377 . S
C2637 C2643 1.390 . S
C2638 H2629 0.930 . S
C2638 C2636 1.384 . S
C2638 C2639 1.372 . S
C2639 C2638 1.372 . S
C2639 C2640 1.400 . S
C2639 C2644 1.490 . S
C2640 H2630 0.930 . S
C2640 C2639 1.400 . S
C2640 C2643 1.386 . S
H2641 C2657 0.930 . S
H2642 C2658 0.931 . S
C2643 H2631 0.929 . S
C2643 C2637 1.390 . S
C2643 C2640 1.386 . S
C2644 C2639 1.490 . S
C2644 C2646 1.395 . S
C2644 C2647 1.403 . S
H2645 C2651 0.930 . S
C2646 H2632 0.930 . S
C2646 C2644 1.395 . S
C2646 C2649 1.403 . S
C2647 C2644 1.403 . S
C2647 C2648 1.524 . S
C2647 C2651 1.400 . S
C2648 H2633 0.960 . S
C2648 H2634 0.960 . S
C2648 H2635 0.960 . S
C2648 C2647 1.524 . S
C2649 C2646 1.403 . S
C2649 C2650 1.392 . S
C2649 C2653 1.495 . S
C2650 C2649 1.392 . S
C2650 C2651 1.385 . S
C2650 C2652 1.478 . S
C2651 H2645 0.930 . S
C2651 C2647 1.400 . S
C2651 C2650 1.385 . S
C2652 C2650 1.478 . S
C2652 C2654 1.381 . S
C2652 C2658 1.383 . S
C2653 C2649 1.495 . S
C2653 H2659 0.959 . S
C2653 H2660 0.961 . S
C2653 H2661 0.960 . S
C2654 C2652 1.381 . S
C2654 C2655 1.394 . S
C2654 H2662 0.930 . S
C2655 C2654 1.394 . S
C2655 C2656 1.383 . S
C2655 H2663 0.929 . S
C2656 C2655 1.383 . S
C2656 C2657 1.377 . S
C2657 H2641 0.930 . S
C2657 C2656 1.377 . S
C2657 C2658 1.379 . S
C2658 H2642 0.931 . S
C2658 C2652 1.383 . S
C2658 C2657 1.379 . S
H2659 C2653 0.959 . S
H2660 C2653 0.961 . S
H2661 C2653 0.960 . S
H2662 C2654 0.930 . S
H2663 C2655 0.929 . S
H2664 C2672 0.929 . S
H2665 C2674 0.930 . S
H2666 C2676 0.930 . S
H2667 C2679 0.929 . S
H2668 C2682 0.930 . S
H2669 C2684 0.960 . S
H2670 C2684 0.960 . S
H2671 C2684 0.960 . S
C2672 H2664 0.929 . S
C2672 C2673 1.377 . S
C2672 C2674 1.384 . S
C2673 C2672 1.377 . S
C2673 C2679 1.390 . S
C2674 H2665 0.930 . S
C2674 C2672 1.384 . S
C2674 C2675 1.372 . S
C2675 C2674 1.372 . S
C2675 C2676 1.400 . S
C2675 C2680 1.490 . S
C2676 H2666 0.930 . S
C2676 C2675 1.400 . S
C2676 C2679 1.386 . S
H2677 C2693 0.930 . S
H2678 C2694 0.931 . S
C2679 H2667 0.929 . S
C2679 C2673 1.390 . S
C2679 C2676 1.386 . S
C2680 C2675 1.490 . S
C2680 C2682 1.395 . S
C2680 C2683 1.403 . S
H2681 C2687 0.930 . S
C2682 H2668 0.930 . S
C2682 C2680 1.395 . S
C2682 C2685 1.403 . S
C2683 C2680 1.403 . S
C2683 C2684 1.524 . S
C2683 C2687 1.400 . S
C2684 H2669 0.960 . S
C2684 H2670 0.960 . S
C2684 H2671 0.960 . S
C2684 C2683 1.524 . S
C2685 C2682 1.403 . S
C2685 C2686 1.392 . S
C2685 C2689 1.495 . S
C2686 C2685 1.392 . S
C2686 C2687 1.385 . S
C2686 C2688 1.478 . S
C2687 H2681 0.930 . S
C2687 C2683 1.400 . S
C2687 C2686 1.385 . S
C2688 C2686 1.478 . S
C2688 C2690 1.381 . S
C2688 C2694 1.383 . S
C2689 C2685 1.495 . S
C2689 H2695 0.959 . S
C2689 H2696 0.961 . S
C2689 H2697 0.960 . S
C2690 C2688 1.381 . S
C2690 C2691 1.394 . S
C2690 H2698 0.930 . S
C2691 C2690 1.394 . S
C2691 C2692 1.383 . S
C2691 H2699 0.929 . S
C2692 C2691 1.383 . S
C2692 C2693 1.377 . S
C2693 H2677 0.930 . S
C2693 C2692 1.377 . S
C2693 C2694 1.379 . S
C2694 H2678 0.931 . S
C2694 C2688 1.383 . S
C2694 C2693 1.379 . S
H2695 C2689 0.959 . S
H2696 C2689 0.961 . S
H2697 C2689 0.960 . S
H2698 C2690 0.930 . S
H2699 C2691 0.929 . S
H2700 C2708 0.929 . S
H2701 C2710 0.942 . S
H2702 C2712 0.930 . S
H2703 C2715 0.929 . S
H2704 C2718 0.930 . S
H2705 C2720 0.960 . S
H2706 C2720 0.960 . S
H2707 C2720 0.960 . S
C2708 H2700 0.929 . S
C2708 C2709 1.377 . S
C2708 C2710 1.384 . S
C2709 C2708 1.377 . S
C2709 C2715 1.390 . S
C2710 H2701 0.942 . S
C2710 C2708 1.384 . S
C2710 C2711 1.372 . S
C2711 C2710 1.372 . S
C2711 C2712 1.400 . S
C2711 C2716 1.490 . S
C2712 H2702 0.930 . S
C2712 C2711 1.400 . S
C2712 C2715 1.386 . S
H2713 C2729 0.930 . S
H2714 C2730 0.931 . S
C2715 H2703 0.929 . S
C2715 C2709 1.390 . S
C2715 C2712 1.386 . S
C2716 C2711 1.490 . S
C2716 C2718 1.395 1_655 S
C2716 C2719 1.403 . S
H2717 C2723 0.930 . S
C2718 H2704 0.930 . S
C2718 C2716 1.395 1_455 S
C2718 C2721 1.403 . S
C2719 C2716 1.403 . S
C2719 C2720 1.524 . S
C2719 C2723 1.400 . S
C2720 H2705 0.960 . S
C2720 H2706 0.960 . S
C2720 H2707 0.960 . S
C2720 C2719 1.524 . S
C2721 C2718 1.403 . S
C2721 C2722 1.392 . S
C2721 C2725 1.495 . S
C2722 C2721 1.392 . S
C2722 C2723 1.385 1_455 S
C2722 C2724 1.478 1_556 S
C2723 H2717 0.930 . S
C2723 C2719 1.400 . S
C2723 C2722 1.385 1_655 S
C2724 C2722 1.478 1_554 S
C2724 C2726 1.381 . S
C2724 C2730 1.383 . S
C2725 C2721 1.495 . S
C2725 H2731 0.959 . S
C2725 H2732 0.961 . S
C2725 H2733 0.960 . S
C2726 C2724 1.381 . S
C2726 C2727 1.394 . S
C2726 H2734 0.930 1_554 S
C2727 C2726 1.394 . S
C2727 C2728 1.383 . S
C2727 H2735 0.929 . S
C2728 C2727 1.383 . S
C2728 C2729 1.377 . S
C2729 H2713 0.930 . S
C2729 C2728 1.377 . S
C2729 C2730 1.379 . S
C2730 H2714 0.931 . S
C2730 C2724 1.383 . S
C2730 C2729 1.379 . S
H2731 C2725 0.959 . S
H2732 C2725 0.961 . S
H2733 C2725 0.960 . S
H2734 C2726 0.930 1_556 S
H2735 C2727 0.929 . S
H2736 C2744 0.929 . S
H2737 C2746 0.930 . S
H2738 C2748 0.930 . S
H2739 C2751 0.929 . S
H2740 C2754 0.930 . S
H2741 C2756 0.960 . S
H2742 C2756 0.960 . S
H2743 C2756 0.960 . S
C2744 H2736 0.929 . S
C2744 C2745 1.377 . S
C2744 C2746 1.384 . S
C2745 C2744 1.377 . S
C2745 C2751 1.390 . S
C2746 H2737 0.930 . S
C2746 C2744 1.384 . S
C2746 C2747 1.372 . S
C2747 C2746 1.372 . S
C2747 C2748 1.400 . S
C2747 C2752 1.490 . S
C2748 H2738 0.930 . S
C2748 C2747 1.400 . S
C2748 C2751 1.386 . S
H2749 C2765 0.930 . S
H2750 C2766 0.931 . S
C2751 H2739 0.929 . S
C2751 C2745 1.390 . S
C2751 C2748 1.386 . S
C2752 C2747 1.490 . S
C2752 C2754 1.395 . S
C2752 C2755 1.403 . S
H2753 C2759 0.930 . S
C2754 H2740 0.930 . S
C2754 C2752 1.395 . S
C2754 C2757 1.403 . S
C2755 C2752 1.403 . S
C2755 C2756 1.524 . S
C2755 C2759 1.400 . S
C2756 H2741 0.960 . S
C2756 H2742 0.960 . S
C2756 H2743 0.960 . S
C2756 C2755 1.524 . S
C2757 C2754 1.403 . S
C2757 C2758 1.392 . S
C2757 C2761 1.495 . S
C2758 C2757 1.392 . S
C2758 C2759 1.385 . S
C2758 C2760 1.478 . S
C2759 H2753 0.930 . S
C2759 C2755 1.400 . S
C2759 C2758 1.385 . S
C2760 C2758 1.478 . S
C2760 C2762 1.381 . S
C2760 C2766 1.383 . S
C2761 C2757 1.495 . S
C2761 H2767 0.959 . S
C2761 H2768 0.961 . S
C2761 H2769 0.960 . S
C2762 C2760 1.381 . S
C2762 C2763 1.394 . S
C2762 H2770 0.930 . S
C2763 C2762 1.394 . S
C2763 C2764 1.383 . S
C2763 H2771 0.929 . S
C2764 C2763 1.383 . S
C2764 C2765 1.377 . S
C2765 H2749 0.930 . S
C2765 C2764 1.377 . S
C2765 C2766 1.379 . S
C2766 H2750 0.931 . S
C2766 C2760 1.383 . S
C2766 C2765 1.379 . S
H2767 C2761 0.959 . S
H2768 C2761 0.961 . S
H2769 C2761 0.960 . S
H2770 C2762 0.930 . S
H2771 C2763 0.929 . S
H2772 C2780 0.929 . S
H2773 C2782 0.930 . S
H2774 C2784 0.930 . S
H2775 C2787 0.929 . S
H2776 C2790 0.930 . S
H2777 C2792 0.960 . S
H2778 C2792 0.960 . S
H2779 C2792 0.960 1_655 S
C2780 H2772 0.929 . S
C2780 C2781 1.377 . S
C2780 C2782 1.384 . S
C2781 C2780 1.377 . S
C2781 C2787 1.390 . S
C2782 H2773 0.930 . S
C2782 C2780 1.384 . S
C2782 C2783 1.372 . S
C2783 C2782 1.372 . S
C2783 C2784 1.400 . S
C2783 C2788 1.490 . S
C2784 H2774 0.930 . S
C2784 C2783 1.400 . S
C2784 C2787 1.386 . S
H2785 C2801 0.930 . S
H2786 C2802 0.931 1_655 S
C2787 H2775 0.929 . S
C2787 C2781 1.390 . S
C2787 C2784 1.386 . S
C2788 C2783 1.490 . S
C2788 C2790 1.395 . S
C2788 C2791 1.402 . S
H2789 C2795 0.930 . S
C2790 H2776 0.930 . S
C2790 C2788 1.395 . S
C2790 C2793 1.403 . S
C2791 C2788 1.402 . S
C2791 C2792 1.524 1_655 S
C2791 C2795 1.401 1_655 S
C2792 H2777 0.960 . S
C2792 H2778 0.960 . S
C2792 H2779 0.960 1_455 S
C2792 C2791 1.524 1_455 S
C2793 C2790 1.403 . S
C2793 C2794 1.392 1_655 S
C2793 C2797 1.495 . S
C2794 C2793 1.392 1_455 S
C2794 C2795 1.385 . S
C2794 C2796 1.478 . S
C2795 H2789 0.930 . S
C2795 C2791 1.401 1_455 S
C2795 C2794 1.385 . S
C2796 C2794 1.478 . S
C2796 C2798 1.381 . S
C2796 C2802 1.383 . S
C2797 C2793 1.495 . S
C2797 H2803 0.959 . S
C2797 H2804 0.961 . S
C2797 H2805 0.960 1_655 S
C2798 C2796 1.381 . S
C2798 C2799 1.394 . S
C2798 H2806 0.930 . S
C2799 C2798 1.394 . S
C2799 C2800 1.383 . S
C2799 H2807 0.929 . S
C2800 C2799 1.383 . S
C2800 C2801 1.377 . S
C2801 H2785 0.930 . S
C2801 C2800 1.377 . S
C2801 C2802 1.379 . S
C2802 H2786 0.931 1_455 S
C2802 C2796 1.383 . S
C2802 C2801 1.379 . S
H2803 C2797 0.959 . S
H2804 C2797 0.961 . S
H2805 C2797 0.960 1_455 S
H2806 C2798 0.930 . S
H2807 C2799 0.929 . S
H2808 C2816 0.929 . S
H2809 C2818 0.930 . S
H2810 C2820 0.930 . S
H2811 C2823 0.929 . S
H2812 C2826 0.930 . S
H2813 C2828 0.960 . S
H2814 C2828 0.960 . S
H2815 C2828 0.960 . S
C2816 H2808 0.929 . S
C2816 C2817 1.377 . S
C2816 C2818 1.384 . S
C2817 C2816 1.377 . S
C2817 C2823 1.390 . S
C2818 H2809 0.930 . S
C2818 C2816 1.384 . S
C2818 C2819 1.372 . S
C2819 C2818 1.372 . S
C2819 C2820 1.400 . S
C2819 C2824 1.490 . S
C2820 H2810 0.930 . S
C2820 C2819 1.400 . S
C2820 C2823 1.386 . S
H2821 C2837 0.930 . S
H2822 C2838 0.931 . S
C2823 H2811 0.929 . S
C2823 C2817 1.390 . S
C2823 C2820 1.386 . S
C2824 C2819 1.490 . S
C2824 C2826 1.395 . S
C2824 C2827 1.403 . S
H2825 C2831 0.930 . S
C2826 H2812 0.930 . S
C2826 C2824 1.395 . S
C2826 C2829 1.403 . S
C2827 C2824 1.403 . S
C2827 C2828 1.524 . S
C2827 C2831 1.400 . S
C2828 H2813 0.960 . S
C2828 H2814 0.960 . S
C2828 H2815 0.960 . S
C2828 C2827 1.524 . S
C2829 C2826 1.403 . S
C2829 C2830 1.392 . S
C2829 C2833 1.495 . S
C2830 C2829 1.392 . S
C2830 C2831 1.385 . S
C2830 C2832 1.478 . S
C2831 H2825 0.930 . S
C2831 C2827 1.400 . S
C2831 C2830 1.385 . S
C2832 C2830 1.478 . S
C2832 C2834 1.381 . S
C2832 C2838 1.383 . S
C2833 C2829 1.495 . S
C2833 H2839 0.959 . S
C2833 H2840 0.961 . S
C2833 H2841 0.960 . S
C2834 C2832 1.381 . S
C2834 C2835 1.394 . S
C2834 H2842 0.930 . S
C2835 C2834 1.394 . S
C2835 C2836 1.383 . S
C2835 H2843 0.929 . S
C2836 C2835 1.383 . S
C2836 C2837 1.377 . S
C2837 H2821 0.930 . S
C2837 C2836 1.377 . S
C2837 C2838 1.379 . S
C2838 H2822 0.931 . S
C2838 C2832 1.383 . S
C2838 C2837 1.379 . S
H2839 C2833 0.959 . S
H2840 C2833 0.961 . S
H2841 C2833 0.960 . S
H2842 C2834 0.930 . S
H2843 C2835 0.929 . S
H2844 C2852 0.929 . S
H2845 C2854 0.930 . S
H2846 C2856 0.930 . S
H2847 C2859 0.929 . S
H2848 C2862 0.930 . S
H2849 C2864 0.960 . S
H2850 C2864 0.960 . S
H2851 C2864 0.960 . S
C2852 H2844 0.929 . S
C2852 C2853 1.377 . S
C2852 C2854 1.384 . S
C2853 C2852 1.377 . S
C2853 C2859 1.390 . S
C2854 H2845 0.930 . S
C2854 C2852 1.384 . S
C2854 C2855 1.372 . S
C2855 C2854 1.372 . S
C2855 C2856 1.400 . S
C2855 C2860 1.490 . S
C2856 H2846 0.930 . S
C2856 C2855 1.400 . S
C2856 C2859 1.386 . S
H2857 C2873 0.930 . S
H2858 C2874 0.931 . S
C2859 H2847 0.929 . S
C2859 C2853 1.390 . S
C2859 C2856 1.386 . S
C2860 C2855 1.490 . S
C2860 C2862 1.395 . S
C2860 C2863 1.403 . S
H2861 C2867 0.930 . S
C2862 H2848 0.930 . S
C2862 C2860 1.395 . S
C2862 C2865 1.403 . S
C2863 C2860 1.403 . S
C2863 C2864 1.524 . S
C2863 C2867 1.400 . S
C2864 H2849 0.960 . S
C2864 H2850 0.960 . S
C2864 H2851 0.960 . S
C2864 C2863 1.524 . S
C2865 C2862 1.403 . S
C2865 C2866 1.392 . S
C2865 C2869 1.495 . S
C2866 C2865 1.392 . S
C2866 C2867 1.385 . S
C2866 C2868 1.478 1_554 S
C2867 H2861 0.930 . S
C2867 C2863 1.400 . S
C2867 C2866 1.385 . S
C2868 C2866 1.478 1_556 S
C2868 C2870 1.381 . S
C2868 C2874 1.383 . S
C2869 C2865 1.495 . S
C2869 H2875 0.959 . S
C2869 H2876 0.961 . S
C2869 H2877 0.960 . S
C2870 C2868 1.381 . S
C2870 C2871 1.394 . S
C2870 H2878 0.930 . S
C2871 C2870 1.394 . S
C2871 C2872 1.383 . S
C2871 H2879 0.929 . S
C2872 C2871 1.383 . S
C2872 C2873 1.377 . S
C2873 H2857 0.930 . S
C2873 C2872 1.377 . S
C2873 C2874 1.379 . S
C2874 H2858 0.931 . S
C2874 C2868 1.383 . S
C2874 C2873 1.379 . S
H2875 C2869 0.959 . S
H2876 C2869 0.961 . S
H2877 C2869 0.960 . S
H2878 C2870 0.930 . S
H2879 C2871 0.929 . S
H2880 C2888 0.929 . S
H2881 C2890 0.930 . S
H2882 C2892 0.930 . S
H2883 C2895 0.929 . S
H2884 C2898 0.930 . S
H2885 C2900 0.960 . S
H2886 C2900 0.960 . S
H2887 C2900 0.960 . S
C2888 H2880 0.929 . S
C2888 C2889 1.377 . S
C2888 C2890 1.384 . S
C2889 C2888 1.377 . S
C2889 C2895 1.390 . S
C2890 H2881 0.930 . S
C2890 C2888 1.384 . S
C2890 C2891 1.372 . S
C2891 C2890 1.372 . S
C2891 C2892 1.400 . S
C2891 C2896 1.490 . S
C2892 H2882 0.930 . S
C2892 C2891 1.400 . S
C2892 C2895 1.386 . S
H2893 C2909 0.930 . S
H2894 C2910 0.931 . S
C2895 H2883 0.929 . S
C2895 C2889 1.390 . S
C2895 C2892 1.386 . S
C2896 C2891 1.490 . S
C2896 C2898 1.395 . S
C2896 C2899 1.403 . S
H2897 C2903 0.930 . S
C2898 H2884 0.930 . S
C2898 C2896 1.395 . S
C2898 C2901 1.403 . S
C2899 C2896 1.403 . S
C2899 C2900 1.524 . S
C2899 C2903 1.400 . S
C2900 H2885 0.960 . S
C2900 H2886 0.960 . S
C2900 H2887 0.960 . S
C2900 C2899 1.524 . S
C2901 C2898 1.403 . S
C2901 C2902 1.392 . S
C2901 C2905 1.495 . S
C2902 C2901 1.392 . S
C2902 C2903 1.385 . S
C2902 C2904 1.478 . S
C2903 H2897 0.930 . S
C2903 C2899 1.400 . S
C2903 C2902 1.385 . S
C2904 C2902 1.478 . S
C2904 C2906 1.381 . S
C2904 C2910 1.383 . S
C2905 C2901 1.495 . S
C2905 H2911 0.959 . S
C2905 H2912 0.961 . S
C2905 H2913 0.960 . S
C2906 C2904 1.381 . S
C2906 C2907 1.394 . S
C2906 H2914 0.930 . S
C2907 C2906 1.394 . S
C2907 C2908 1.383 . S
C2907 H2915 0.929 . S
C2908 C2907 1.383 . S
C2908 C2909 1.377 . S
C2909 H2893 0.930 . S
C2909 C2908 1.377 . S
C2909 C2910 1.379 . S
C2910 H2894 0.931 . S
C2910 C2904 1.383 . S
C2910 C2909 1.379 . S
H2911 C2905 0.959 . S
H2912 C2905 0.961 . S
H2913 C2905 0.960 . S
H2914 C2906 0.930 . S
H2915 C2907 0.929 . S
H2916 C2924 0.929 . S
H2917 C2926 0.930 . S
H2918 C2928 0.930 . S
H2919 C2931 0.929 . S
H2920 C2934 0.930 . S
H2921 C2936 0.960 . S
H2922 C2936 0.960 . S
H2923 C2936 0.960 . S
C2924 H2916 0.929 . S
C2924 C2925 1.377 . S
C2924 C2926 1.384 . S
C2925 C2924 1.377 . S
C2925 C2931 1.390 . S
C2926 H2917 0.930 . S
C2926 C2924 1.384 . S
C2926 C2927 1.372 . S
C2927 C2926 1.372 . S
C2927 C2928 1.400 . S
C2927 C2932 1.490 . S
C2928 H2918 0.930 . S
C2928 C2927 1.400 . S
C2928 C2931 1.386 . S
H2929 C2945 0.930 . S
H2930 C2946 0.931 . S
C2931 H2919 0.929 . S
C2931 C2925 1.390 . S
C2931 C2928 1.386 . S
C2932 C2927 1.490 . S
C2932 C2934 1.395 . S
C2932 C2935 1.403 . S
H2933 C2939 0.930 . S
C2934 H2920 0.930 . S
C2934 C2932 1.395 . S
C2934 C2937 1.403 . S
C2935 C2932 1.403 . S
C2935 C2936 1.524 . S
C2935 C2939 1.400 . S
C2936 H2921 0.960 . S
C2936 H2922 0.960 . S
C2936 H2923 0.960 . S
C2936 C2935 1.524 . S
C2937 C2934 1.403 . S
C2937 C2938 1.392 . S
C2937 C2941 1.495 . S
C2938 C2937 1.392 . S
C2938 C2939 1.385 . S
C2938 C2940 1.478 . S
C2939 H2933 0.930 . S
C2939 C2935 1.400 . S
C2939 C2938 1.385 . S
C2940 C2938 1.478 . S
C2940 C2942 1.381 . S
C2940 C2946 1.383 . S
C2941 C2937 1.495 . S
C2941 H2947 0.959 . S
C2941 H2948 0.961 . S
C2941 H2949 0.960 . S
C2942 C2940 1.381 . S
C2942 C2943 1.394 . S
C2942 H2950 0.930 . S
C2943 C2942 1.394 . S
C2943 C2944 1.383 . S
C2943 H2951 0.929 . S
C2944 C2943 1.383 . S
C2944 C2945 1.377 . S
C2945 H2929 0.930 . S
C2945 C2944 1.377 . S
C2945 C2946 1.379 . S
C2946 H2930 0.931 . S
C2946 C2940 1.383 . S
C2946 C2945 1.379 . S
H2947 C2941 0.959 . S
H2948 C2941 0.961 . S
H2949 C2941 0.960 . S
H2950 C2942 0.930 . S
H2951 C2943 0.929 . S
H2952 C2960 0.929 . S
H2953 C2962 0.930 . S
H2954 C2964 0.930 . S
H2955 C2967 0.929 . S
H2956 C2970 0.930 . S
H2957 C2972 0.960 . S
H2958 C2972 0.960 . S
H2959 C2972 0.960 . S
C2960 H2952 0.929 . S
C2960 C2961 1.377 . S
C2960 C2962 1.384 . S
C2961 C2960 1.377 . S
C2961 C2967 1.390 . S
C2962 H2953 0.930 . S
C2962 C2960 1.384 . S
C2962 C2963 1.372 . S
C2963 C2962 1.372 . S
C2963 C2964 1.400 . S
C2963 C2968 1.490 . S
C2964 H2954 0.930 . S
C2964 C2963 1.400 . S
C2964 C2967 1.386 . S
H2965 C2981 0.930 . S
H2966 C2982 0.931 . S
C2967 H2955 0.929 . S
C2967 C2961 1.390 . S
C2967 C2964 1.386 . S
C2968 C2963 1.490 . S
C2968 C2970 1.395 . S
C2968 C2971 1.403 . S
H2969 C2975 0.930 . S
C2970 H2956 0.930 . S
C2970 C2968 1.395 . S
C2970 C2973 1.403 . S
C2971 C2968 1.403 . S
C2971 C2972 1.524 . S
C2971 C2975 1.400 . S
C2972 H2957 0.960 . S
C2972 H2958 0.960 . S
C2972 H2959 0.960 . S
C2972 C2971 1.524 . S
C2973 C2970 1.403 . S
C2973 C2974 1.392 . S
C2973 C2977 1.495 . S
C2974 C2973 1.392 . S
C2974 C2975 1.385 . S
C2974 C2976 1.478 . S
C2975 H2969 0.930 . S
C2975 C2971 1.400 . S
C2975 C2974 1.385 . S
C2976 C2974 1.478 . S
C2976 C2978 1.381 . S
C2976 C2982 1.383 . S
C2977 C2973 1.495 . S
C2977 H2983 0.959 . S
C2977 H2984 0.961 . S
C2977 H2985 0.960 . S
C2978 C2976 1.381 . S
C2978 C2979 1.394 . S
C2978 H2986 0.930 . S
C2979 C2978 1.394 . S
C2979 C2980 1.383 . S
C2979 H2987 0.929 . S
C2980 C2979 1.383 . S
C2980 C2981 1.377 . S
C2981 H2965 0.930 . S
C2981 C2980 1.377 . S
C2981 C2982 1.379 . S
C2982 H2966 0.931 . S
C2982 C2976 1.383 . S
C2982 C2981 1.379 . S
H2983 C2977 0.959 . S
H2984 C2977 0.961 . S
H2985 C2977 0.960 . S
H2986 C2978 0.930 . S
H2987 C2979 0.929 . S
H2988 C2996 0.929 . S
H2989 C2998 0.930 . S
H2990 C3000 0.930 . S
H2991 C3003 0.929 . S
H2992 C3006 0.930 . S
H2993 C3008 0.960 . S
H2994 C3008 0.960 . S
H2995 C3008 0.960 . S
C2996 H2988 0.929 . S
C2996 C2997 1.377 . S
C2996 C2998 1.384 . S
C2997 C2996 1.377 . S
C2997 C3003 1.390 . S
C2998 H2989 0.930 . S
C2998 C2996 1.384 . S
C2998 C2999 1.372 . S
C2999 C2998 1.372 . S
C2999 C3000 1.400 . S
C2999 C3004 1.490 . S
C3000 H2990 0.930 . S
C3000 C2999 1.400 . S
C3000 C3003 1.386 . S
H3001 C3017 0.930 . S
H3002 C3018 0.931 . S
C3003 H2991 0.929 . S
C3003 C2997 1.390 . S
C3003 C3000 1.386 . S
C3004 C2999 1.490 . S
C3004 C3006 1.395 . S
C3004 C3007 1.403 . S
H3005 C3011 0.930 . S
C3006 H2992 0.930 . S
C3006 C3004 1.395 . S
C3006 C3009 1.403 . S
C3007 C3004 1.403 . S
C3007 C3008 1.524 . S
C3007 C3011 1.400 . S
C3008 H2993 0.960 . S
C3008 H2994 0.960 . S
C3008 H2995 0.960 . S
C3008 C3007 1.524 . S
C3009 C3006 1.403 . S
C3009 C3010 1.392 . S
C3009 C3013 1.495 . S
C3010 C3009 1.392 . S
C3010 C3011 1.385 . S
C3010 C3012 1.478 . S
C3011 H3005 0.930 . S
C3011 C3007 1.400 . S
C3011 C3010 1.385 . S
C3012 C3010 1.478 . S
C3012 C3014 1.381 . S
C3012 C3018 1.383 . S
C3013 C3009 1.495 . S
C3013 H3019 0.959 . S
C3013 H3020 0.961 . S
C3013 H3021 0.960 . S
C3014 C3012 1.381 . S
C3014 C3015 1.394 . S
C3014 H3022 0.930 . S
C3015 C3014 1.394 . S
C3015 C3016 1.383 . S
C3015 H3023 0.929 . S
C3016 C3015 1.383 . S
C3016 C3017 1.377 . S
C3017 H3001 0.930 . S
C3017 C3016 1.377 . S
C3017 C3018 1.379 . S
C3018 H3002 0.931 . S
C3018 C3012 1.383 . S
C3018 C3017 1.379 . S
H3019 C3013 0.959 . S
H3020 C3013 0.961 . S
H3021 C3013 0.960 . S
H3022 C3014 0.930 . S
H3023 C3015 0.929 . S
H3024 C3032 0.929 . S
H3025 C3034 0.930 . S
H3026 C3036 0.930 . S
H3027 C3039 0.929 . S
H3028 C3042 0.930 . S
H3029 C3044 0.960 . S
H3030 C3044 0.960 . S
H3031 C3044 0.960 . S
C3032 H3024 0.929 . S
C3032 C3033 1.377 . S
C3032 C3034 1.384 . S
C3033 C3032 1.377 . S
C3033 C3039 1.390 . S
C3034 H3025 0.930 . S
C3034 C3032 1.384 . S
C3034 C3035 1.372 . S
C3035 C3034 1.372 . S
C3035 C3036 1.400 . S
C3035 C3040 1.490 . S
C3036 H3026 0.930 . S
C3036 C3035 1.400 . S
C3036 C3039 1.386 . S
H3037 C3053 0.930 . S
H3038 C3054 0.931 . S
C3039 H3027 0.929 . S
C3039 C3033 1.390 . S
C3039 C3036 1.386 . S
C3040 C3035 1.490 . S
C3040 C3042 1.395 . S
C3040 C3043 1.403 . S
H3041 C3047 0.930 . S
C3042 H3028 0.930 . S
C3042 C3040 1.395 . S
C3042 C3045 1.403 . S
C3043 C3040 1.403 . S
C3043 C3044 1.524 . S
C3043 C3047 1.400 . S
C3044 H3029 0.960 . S
C3044 H3030 0.960 . S
C3044 H3031 0.960 . S
C3044 C3043 1.524 . S
C3045 C3042 1.403 . S
C3045 C3046 1.392 . S
C3045 C3049 1.495 . S
C3046 C3045 1.392 . S
C3046 C3047 1.385 . S
C3046 C3048 1.478 . S
C3047 H3041 0.930 . S
C3047 C3043 1.400 . S
C3047 C3046 1.385 . S
C3048 C3046 1.478 . S
C3048 C3050 1.381 . S
C3048 C3054 1.383 . S
C3049 C3045 1.495 . S
C3049 H3055 0.959 . S
C3049 H3056 0.961 . S
C3049 H3057 0.960 . S
C3050 C3048 1.381 . S
C3050 C3051 1.394 . S
C3050 H3058 0.930 . S
C3051 C3050 1.394 . S
C3051 C3052 1.383 . S
C3051 H3059 0.929 . S
C3052 C3051 1.383 . S
C3052 C3053 1.377 . S
C3053 H3037 0.930 . S
C3053 C3052 1.377 . S
C3053 C3054 1.379 . S
C3054 H3038 0.931 . S
C3054 C3048 1.383 . S
C3054 C3053 1.379 . S
H3055 C3049 0.959 . S
H3056 C3049 0.961 . S
H3057 C3049 0.960 . S
H3058 C3050 0.930 . S
H3059 C3051 0.929 . S
H3060 C3068 0.929 . S
H3061 C3070 0.930 . S
H3062 C3072 0.930 . S
H3063 C3075 0.929 . S
H3064 C3078 0.930 . S
H3065 C3080 0.960 . S
H3066 C3080 0.960 . S
H3067 C3080 0.960 . S
C3068 H3060 0.929 . S
C3068 C3069 1.377 . S
C3068 C3070 1.384 . S
C3069 C3068 1.377 . S
C3069 C3075 1.390 . S
C3070 H3061 0.930 . S
C3070 C3068 1.384 . S
C3070 C3071 1.372 . S
C3071 C3070 1.372 . S
C3071 C3072 1.400 . S
C3071 C3076 1.490 . S
C3072 H3062 0.930 . S
C3072 C3071 1.400 . S
C3072 C3075 1.386 . S
H3073 C3089 0.930 . S
H3074 C3090 0.931 . S
C3075 H3063 0.929 . S
C3075 C3069 1.390 . S
C3075 C3072 1.386 . S
C3076 C3071 1.490 . S
C3076 C3078 1.395 . S
C3076 C3079 1.403 . S
H3077 C3083 0.930 . S
C3078 H3064 0.930 . S
C3078 C3076 1.395 . S
C3078 C3081 1.403 . S
C3079 C3076 1.403 . S
C3079 C3080 1.524 . S
C3079 C3083 1.400 . S
C3080 H3065 0.960 . S
C3080 H3066 0.960 . S
C3080 H3067 0.960 . S
C3080 C3079 1.524 . S
C3081 C3078 1.403 . S
C3081 C3082 1.392 . S
C3081 C3085 1.495 . S
C3082 C3081 1.392 . S
C3082 C3083 1.385 . S
C3082 C3084 1.478 . S
C3083 H3077 0.930 . S
C3083 C3079 1.400 . S
C3083 C3082 1.385 . S
C3084 C3082 1.478 . S
C3084 C3086 1.381 . S
C3084 C3090 1.383 . S
C3085 C3081 1.495 . S
C3085 H3091 0.959 . S
C3085 H3092 0.961 . S
C3085 H3093 0.960 . S
C3086 C3084 1.381 . S
C3086 C3087 1.394 . S
C3086 H3094 0.930 . S
C3087 C3086 1.394 . S
C3087 C3088 1.383 . S
C3087 H3095 0.929 . S
C3088 C3087 1.383 . S
C3088 C3089 1.377 . S
C3089 H3073 0.930 . S
C3089 C3088 1.377 . S
C3089 C3090 1.379 . S
C3090 H3074 0.931 . S
C3090 C3084 1.383 . S
C3090 C3089 1.379 . S
H3091 C3085 0.959 . S
H3092 C3085 0.961 . S
H3093 C3085 0.960 . S
H3094 C3086 0.930 . S
H3095 C3087 0.929 . S
H3096 C3104 0.929 . S
H3097 C3106 0.930 . S
H3098 C3108 0.930 . S
H3099 C3111 0.929 . S
H3100 C3114 0.930 . S
H3101 C3116 0.960 . S
H3102 C3116 0.960 . S
H3103 C3116 0.960 . S
C3104 H3096 0.929 . S
C3104 C3105 1.377 . S
C3104 C3106 1.384 . S
C3105 C3104 1.377 . S
C3105 C3111 1.390 . S
C3106 H3097 0.930 . S
C3106 C3104 1.384 . S
C3106 C3107 1.372 . S
C3107 C3106 1.372 . S
C3107 C3108 1.400 . S
C3107 C3112 1.490 . S
C3108 H3098 0.930 . S
C3108 C3107 1.400 . S
C3108 C3111 1.386 . S
H3109 C3125 0.930 . S
H3110 C3126 0.931 . S
C3111 H3099 0.929 . S
C3111 C3105 1.390 . S
C3111 C3108 1.386 . S
C3112 C3107 1.490 . S
C3112 C3114 1.395 . S
C3112 C3115 1.403 . S
H3113 C3119 0.930 . S
C3114 H3100 0.930 . S
C3114 C3112 1.395 . S
C3114 C3117 1.403 . S
C3115 C3112 1.403 . S
C3115 C3116 1.524 . S
C3115 C3119 1.400 . S
C3116 H3101 0.960 . S
C3116 H3102 0.960 . S
C3116 H3103 0.960 . S
C3116 C3115 1.524 . S
C3117 C3114 1.403 . S
C3117 C3118 1.392 . S
C3117 C3121 1.495 . S
C3118 C3117 1.392 . S
C3118 C3119 1.385 . S
C3118 C3120 1.478 . S
C3119 H3113 0.930 . S
C3119 C3115 1.400 . S
C3119 C3118 1.385 . S
C3120 C3118 1.478 . S
C3120 C3122 1.381 . S
C3120 C3126 1.383 . S
C3121 C3117 1.495 . S
C3121 H3127 0.959 . S
C3121 H3128 0.961 . S
C3121 H3129 0.960 . S
C3122 C3120 1.381 . S
C3122 C3123 1.394 . S
C3122 H3130 0.930 . S
C3123 C3122 1.394 . S
C3123 C3124 1.383 . S
C3123 H3131 0.929 . S
C3124 C3123 1.383 . S
C3124 C3125 1.377 . S
C3125 H3109 0.930 . S
C3125 C3124 1.377 . S
C3125 C3126 1.379 . S
C3126 H3110 0.931 . S
C3126 C3120 1.383 . S
C3126 C3125 1.379 . S
H3127 C3121 0.959 . S
H3128 C3121 0.961 . S
H3129 C3121 0.960 . S
H3130 C3122 0.930 . S
H3131 C3123 0.929 . S
H3132 C3140 0.929 . S
H3133 C3142 0.930 . S
H3134 C3144 0.930 . S
H3135 C3147 0.929 . S
H3136 C3150 0.930 . S
H3137 C3152 0.960 . S
H3138 C3152 0.960 . S
H3139 C3152 0.960 . S
C3140 H3132 0.929 . S
C3140 C3141 1.377 . S
C3140 C3142 1.384 . S
C3141 C3140 1.377 . S
C3141 C3147 1.390 . S
C3142 H3133 0.930 . S
C3142 C3140 1.384 . S
C3142 C3143 1.372 . S
C3143 C3142 1.372 . S
C3143 C3144 1.400 . S
C3143 C3148 1.490 . S
C3144 H3134 0.930 . S
C3144 C3143 1.400 . S
C3144 C3147 1.386 . S
H3145 C3161 0.930 . S
H3146 C3162 0.931 . S
C3147 H3135 0.929 . S
C3147 C3141 1.390 . S
C3147 C3144 1.386 . S
C3148 C3143 1.490 . S
C3148 C3150 1.395 . S
C3148 C3151 1.403 . S
H3149 C3155 0.930 . S
C3150 H3136 0.930 . S
C3150 C3148 1.395 . S
C3150 C3153 1.403 . S
C3151 C3148 1.403 . S
C3151 C3152 1.524 . S
C3151 C3155 1.400 . S
C3152 H3137 0.960 . S
C3152 H3138 0.960 . S
C3152 H3139 0.960 . S
C3152 C3151 1.524 . S
C3153 C3150 1.403 . S
C3153 C3154 1.392 . S
C3153 C3157 1.495 . S
C3154 C3153 1.392 . S
C3154 C3155 1.385 . S
C3154 C3156 1.478 . S
C3155 H3149 0.930 . S
C3155 C3151 1.400 . S
C3155 C3154 1.385 . S
C3156 C3154 1.478 . S
C3156 C3158 1.381 . S
C3156 C3162 1.383 . S
C3157 C3153 1.495 . S
C3157 H3163 0.959 . S
C3157 H3164 0.961 . S
C3157 H3165 0.960 . S
C3158 C3156 1.381 . S
C3158 C3159 1.394 . S
C3158 H3166 0.930 . S
C3159 C3158 1.394 . S
C3159 C3160 1.383 . S
C3159 H3167 0.929 . S
C3160 C3159 1.383 . S
C3160 C3161 1.377 . S
C3161 H3145 0.930 . S
C3161 C3160 1.377 . S
C3161 C3162 1.379 . S
C3162 H3146 0.931 . S
C3162 C3156 1.383 . S
C3162 C3161 1.379 . S
H3163 C3157 0.959 . S
H3164 C3157 0.961 . S
H3165 C3157 0.960 . S
H3166 C3158 0.930 . S
H3167 C3159 0.929 . S
H3168 C3176 0.929 . S
H3169 C3178 0.930 . S
H3170 C3180 0.930 . S
H3171 C3183 0.929 . S
H3172 C3186 0.930 . S
H3173 C3188 0.960 . S
H3174 C3188 0.960 . S
H3175 C3188 0.960 . S
C3176 H3168 0.929 . S
C3176 C3177 1.377 . S
C3176 C3178 1.384 . S
C3177 C3176 1.377 . S
C3177 C3183 1.390 . S
C3178 H3169 0.930 . S
C3178 C3176 1.384 . S
C3178 C3179 1.372 . S
C3179 C3178 1.372 . S
C3179 C3180 1.400 . S
C3179 C3184 1.490 . S
C3180 H3170 0.930 . S
C3180 C3179 1.400 . S
C3180 C3183 1.386 . S
H3181 C3197 0.930 . S
H3182 C3198 0.931 . S
C3183 H3171 0.929 . S
C3183 C3177 1.390 . S
C3183 C3180 1.386 . S
C3184 C3179 1.490 . S
C3184 C3186 1.395 . S
C3184 C3187 1.403 . S
H3185 C3191 0.930 . S
C3186 H3172 0.930 . S
C3186 C3184 1.395 . S
C3186 C3189 1.403 . S
C3187 C3184 1.403 . S
C3187 C3188 1.524 . S
C3187 C3191 1.400 . S
C3188 H3173 0.960 . S
C3188 H3174 0.960 . S
C3188 H3175 0.960 . S
C3188 C3187 1.524 . S
C3189 C3186 1.403 . S
C3189 C3190 1.392 . S
C3189 C3193 1.495 . S
C3190 C3189 1.392 . S
C3190 C3191 1.385 . S
C3190 C3192 1.478 . S
C3191 H3185 0.930 . S
C3191 C3187 1.400 . S
C3191 C3190 1.385 . S
C3192 C3190 1.478 . S
C3192 C3194 1.381 . S
C3192 C3198 1.383 . S
C3193 C3189 1.495 . S
C3193 H3199 0.959 . S
C3193 H3200 0.961 . S
C3193 H3201 0.960 . S
C3194 C3192 1.381 . S
C3194 C3195 1.394 . S
C3194 H3202 0.930 . S
C3195 C3194 1.394 . S
C3195 C3196 1.383 . S
C3195 H3203 0.929 . S
C3196 C3195 1.383 . S
C3196 C3197 1.377 . S
C3197 H3181 0.930 . S
C3197 C3196 1.377 . S
C3197 C3198 1.379 . S
C3198 H3182 0.931 . S
C3198 C3192 1.383 . S
C3198 C3197 1.379 . S
H3199 C3193 0.959 . S
H3200 C3193 0.961 . S
H3201 C3193 0.960 . S
H3202 C3194 0.930 . S
H3203 C3195 0.929 . S
H3204 C3212 0.929 . S
H3205 C3214 0.930 . S
H3206 C3216 0.930 . S
H3207 C3219 0.929 . S
H3208 C3222 0.930 . S
H3209 C3224 0.960 . S
H3210 C3224 0.960 . S
H3211 C3224 0.960 . S
C3212 H3204 0.929 . S
C3212 C3213 1.377 . S
C3212 C3214 1.384 . S
C3213 C3212 1.377 . S
C3213 C3219 1.390 . S
C3214 H3205 0.930 . S
C3214 C3212 1.384 . S
C3214 C3215 1.372 . S
C3215 C3214 1.372 . S
C3215 C3216 1.400 . S
C3215 C3220 1.490 . S
C3216 H3206 0.930 . S
C3216 C3215 1.400 . S
C3216 C3219 1.386 . S
H3217 C3233 0.930 . S
H3218 C3234 0.931 . S
C3219 H3207 0.929 . S
C3219 C3213 1.390 . S
C3219 C3216 1.386 . S
C3220 C3215 1.490 . S
C3220 C3222 1.395 . S
C3220 C3223 1.403 . S
H3221 C3227 0.930 . S
C3222 H3208 0.930 . S
C3222 C3220 1.395 . S
C3222 C3225 1.403 . S
C3223 C3220 1.403 . S
C3223 C3224 1.524 . S
C3223 C3227 1.400 . S
C3224 H3209 0.960 . S
C3224 H3210 0.960 . S
C3224 H3211 0.960 . S
C3224 C3223 1.524 . S
C3225 C3222 1.403 . S
C3225 C3226 1.392 . S
C3225 C3229 1.495 . S
C3226 C3225 1.392 . S
C3226 C3227 1.385 . S
C3226 C3228 1.478 . S
C3227 H3221 0.930 . S
C3227 C3223 1.400 . S
C3227 C3226 1.385 . S
C3228 C3226 1.478 . S
C3228 C3230 1.381 . S
C3228 C3234 1.383 . S
C3229 C3225 1.495 . S
C3229 H3235 0.959 . S
C3229 H3236 0.961 . S
C3229 H3237 0.960 . S
C3230 C3228 1.381 . S
C3230 C3231 1.394 . S
C3230 H3238 0.930 . S
C3231 C3230 1.394 . S
C3231 C3232 1.383 . S
C3231 H3239 0.929 . S
C3232 C3231 1.383 . S
C3232 C3233 1.377 . S
C3233 H3217 0.930 . S
C3233 C3232 1.377 . S
C3233 C3234 1.379 . S
C3234 H3218 0.931 . S
C3234 C3228 1.383 . S
C3234 C3233 1.379 . S
H3235 C3229 0.959 . S
H3236 C3229 0.961 . S
H3237 C3229 0.960 . S
H3238 C3230 0.930 . S
H3239 C3231 0.929 . S
H3240 C3248 0.929 . S
H3241 C3250 0.930 . S
H3242 C3252 0.930 . S
H3243 C3255 0.929 . S
H3244 C3258 0.930 . S
H3245 C3260 0.960 . S
H3246 C3260 0.960 . S
H3247 C3260 0.960 . S
C3248 H3240 0.929 . S
C3248 C3249 1.377 . S
C3248 C3250 1.384 . S
C3249 C3248 1.377 . S
C3249 C3255 1.390 . S
C3250 H3241 0.930 . S
C3250 C3248 1.384 . S
C3250 C3251 1.372 . S
C3251 C3250 1.372 . S
C3251 C3252 1.400 . S
C3251 C3256 1.490 . S
C3252 H3242 0.930 . S
C3252 C3251 1.400 . S
C3252 C3255 1.386 . S
H3253 C3269 0.930 . S
H3254 C3270 0.931 . S
C3255 H3243 0.929 . S
C3255 C3249 1.390 . S
C3255 C3252 1.386 . S
C3256 C3251 1.490 . S
C3256 C3258 1.395 . S
C3256 C3259 1.403 . S
H3257 C3263 0.930 . S
C3258 H3244 0.930 . S
C3258 C3256 1.395 . S
C3258 C3261 1.403 . S
C3259 C3256 1.403 . S
C3259 C3260 1.524 . S
C3259 C3263 1.400 . S
C3260 H3245 0.960 . S
C3260 H3246 0.960 . S
C3260 H3247 0.960 . S
C3260 C3259 1.524 . S
C3261 C3258 1.403 . S
C3261 C3262 1.392 . S
C3261 C3265 1.495 . S
C3262 C3261 1.392 . S
C3262 C3263 1.385 . S
C3262 C3264 1.478 . S
C3263 H3257 0.930 . S
C3263 C3259 1.400 . S
C3263 C3262 1.385 . S
C3264 C3262 1.478 . S
C3264 C3266 1.381 . S
C3264 C3270 1.383 . S
C3265 C3261 1.495 . S
C3265 H3271 0.959 . S
C3265 H3272 0.961 . S
C3265 H3273 0.960 . S
C3266 C3264 1.381 . S
C3266 C3267 1.394 . S
C3266 H3274 0.930 . S
C3267 C3266 1.394 . S
C3267 C3268 1.383 . S
C3267 H3275 0.929 . S
C3268 C3267 1.383 . S
C3268 C3269 1.377 . S
C3269 H3253 0.930 . S
C3269 C3268 1.377 . S
C3269 C3270 1.379 . S
C3270 H3254 0.931 . S
C3270 C3264 1.383 . S
C3270 C3269 1.379 . S
H3271 C3265 0.959 . S
H3272 C3265 0.961 . S
H3273 C3265 0.960 . S
H3274 C3266 0.930 . S
H3275 C3267 0.929 . S
H3276 C3284 0.929 . S
H3277 C3286 0.930 . S
H3278 C3288 0.930 . S
H3279 C3291 0.929 . S
H3280 C3294 0.930 . S
H3281 C3296 0.960 . S
H3282 C3296 0.960 . S
H3283 C3296 0.960 . S
C3284 H3276 0.929 . S
C3284 C3285 1.377 . S
C3284 C3286 1.384 . S
C3285 C3284 1.377 . S
C3285 C3291 1.390 . S
C3286 H3277 0.930 . S
C3286 C3284 1.384 . S
C3286 C3287 1.372 . S
C3287 C3286 1.372 . S
C3287 C3288 1.400 . S
C3287 C3292 1.490 . S
C3288 H3278 0.930 . S
C3288 C3287 1.400 . S
C3288 C3291 1.386 . S
H3289 C3305 0.930 . S
H3290 C3306 0.931 . S
C3291 H3279 0.929 . S
C3291 C3285 1.390 . S
C3291 C3288 1.386 . S
C3292 C3287 1.490 . S
C3292 C3294 1.395 . S
C3292 C3295 1.403 . S
H3293 C3299 0.930 . S
C3294 H3280 0.930 . S
C3294 C3292 1.395 . S
C3294 C3297 1.403 . S
C3295 C3292 1.403 . S
C3295 C3296 1.524 . S
C3295 C3299 1.400 . S
C3296 H3281 0.960 . S
C3296 H3282 0.960 . S
C3296 H3283 0.960 . S
C3296 C3295 1.524 . S
C3297 C3294 1.403 . S
C3297 C3298 1.392 . S
C3297 C3301 1.495 . S
C3298 C3297 1.392 . S
C3298 C3299 1.385 . S
C3298 C3300 1.478 . S
C3299 H3293 0.930 . S
C3299 C3295 1.400 . S
C3299 C3298 1.385 . S
C3300 C3298 1.478 . S
C3300 C3302 1.381 . S
C3300 C3306 1.383 . S
C3301 C3297 1.495 . S
C3301 H3307 0.959 . S
C3301 H3308 0.961 . S
C3301 H3309 0.960 . S
C3302 C3300 1.381 . S
C3302 C3303 1.394 . S
C3302 H3310 0.930 . S
C3303 C3302 1.394 . S
C3303 C3304 1.383 . S
C3303 H3311 0.929 . S
C3304 C3303 1.383 . S
C3304 C3305 1.377 . S
C3305 H3289 0.930 . S
C3305 C3304 1.377 . S
C3305 C3306 1.379 . S
C3306 H3290 0.931 . S
C3306 C3300 1.383 . S
C3306 C3305 1.379 . S
H3307 C3301 0.959 . S
H3308 C3301 0.961 . S
H3309 C3301 0.960 . S
H3310 C3302 0.930 . S
H3311 C3303 0.929 . S
H3312 C3320 0.929 . S
H3313 C3322 0.930 . S
H3314 C3324 0.930 . S
H3315 C3327 0.929 . S
H3316 C3330 0.930 . S
H3317 C3332 0.960 . S
H3318 C3332 0.960 . S
H3319 C3332 0.960 . S
C3320 H3312 0.929 . S
C3320 C3321 1.377 . S
C3320 C3322 1.384 . S
C3321 C3320 1.377 . S
C3321 C3327 1.390 . S
C3322 H3313 0.930 . S
C3322 C3320 1.384 . S
C3322 C3323 1.372 . S
C3323 C3322 1.372 . S
C3323 C3324 1.400 . S
C3323 C3328 1.490 . S
C3324 H3314 0.930 . S
C3324 C3323 1.400 . S
C3324 C3327 1.386 . S
H3325 C3341 0.930 . S
H3326 C3342 0.931 . S
C3327 H3315 0.929 . S
C3327 C3321 1.390 . S
C3327 C3324 1.386 . S
C3328 C3323 1.490 . S
C3328 C3330 1.395 . S
C3328 C3331 1.403 . S
H3329 C3335 0.930 . S
C3330 H3316 0.930 . S
C3330 C3328 1.395 . S
C3330 C3333 1.403 . S
C3331 C3328 1.403 . S
C3331 C3332 1.524 . S
C3331 C3335 1.400 . S
C3332 H3317 0.960 . S
C3332 H3318 0.960 . S
C3332 H3319 0.960 . S
C3332 C3331 1.524 . S
C3333 C3330 1.403 . S
C3333 C3334 1.392 . S
C3333 C3337 1.495 . S
C3334 C3333 1.392 . S
C3334 C3335 1.385 . S
C3334 C3336 1.478 . S
C3335 H3329 0.930 . S
C3335 C3331 1.400 . S
C3335 C3334 1.385 . S
C3336 C3334 1.478 . S
C3336 C3338 1.381 . S
C3336 C3342 1.383 . S
C3337 C3333 1.495 . S
C3337 H3343 0.959 . S
C3337 H3344 0.961 . S
C3337 H3345 0.960 . S
C3338 C3336 1.381 . S
C3338 C3339 1.394 . S
C3338 H3346 0.930 . S
C3339 C3338 1.394 . S
C3339 C3340 1.383 . S
C3339 H3347 0.929 . S
C3340 C3339 1.383 . S
C3340 C3341 1.377 . S
C3341 H3325 0.930 . S
C3341 C3340 1.377 . S
C3341 C3342 1.379 . S
C3342 H3326 0.931 . S
C3342 C3336 1.383 . S
C3342 C3341 1.379 . S
H3343 C3337 0.959 . S
H3344 C3337 0.961 . S
H3345 C3337 0.960 . S
H3346 C3338 0.930 . S
H3347 C3339 0.929 . S
H3348 C3356 0.929 . S
H3349 C3358 0.930 . S
H3350 C3360 0.930 . S
H3351 C3363 0.929 . S
H3352 C3366 0.930 . S
H3353 C3368 0.960 . S
H3354 C3368 0.960 . S
H3355 C3368 0.960 . S
C3356 H3348 0.929 . S
C3356 C3357 1.377 . S
C3356 C3358 1.384 . S
C3357 C3356 1.377 . S
C3357 C3363 1.390 . S
C3358 H3349 0.930 . S
C3358 C3356 1.384 . S
C3358 C3359 1.372 . S
C3359 C3358 1.372 . S
C3359 C3360 1.400 . S
C3359 C3364 1.490 . S
C3360 H3350 0.930 . S
C3360 C3359 1.400 . S
C3360 C3363 1.386 . S
H3361 C3377 0.930 . S
H3362 C3378 0.931 . S
C3363 H3351 0.929 . S
C3363 C3357 1.390 . S
C3363 C3360 1.386 . S
C3364 C3359 1.490 . S
C3364 C3366 1.395 . S
C3364 C3367 1.403 . S
H3365 C3371 0.930 . S
C3366 H3352 0.930 . S
C3366 C3364 1.395 . S
C3366 C3369 1.403 . S
C3367 C3364 1.403 . S
C3367 C3368 1.524 . S
C3367 C3371 1.400 . S
C3368 H3353 0.960 . S
C3368 H3354 0.960 . S
C3368 H3355 0.960 . S
C3368 C3367 1.524 . S
C3369 C3366 1.403 . S
C3369 C3370 1.392 . S
C3369 C3373 1.495 . S
C3370 C3369 1.392 . S
C3370 C3371 1.385 . S
C3370 C3372 1.478 . S
C3371 H3365 0.930 . S
C3371 C3367 1.400 . S
C3371 C3370 1.385 . S
C3372 C3370 1.478 . S
C3372 C3374 1.381 . S
C3372 C3378 1.383 . S
C3373 C3369 1.495 . S
C3373 H3379 0.959 . S
C3373 H3380 0.961 . S
C3373 H3381 0.960 . S
C3374 C3372 1.381 . S
C3374 C3375 1.394 . S
C3374 H3382 0.930 . S
C3375 C3374 1.394 . S
C3375 C3376 1.383 . S
C3375 H3383 0.929 . S
C3376 C3375 1.383 . S
C3376 C3377 1.377 . S
C3377 H3361 0.930 . S
C3377 C3376 1.377 . S
C3377 C3378 1.379 . S
C3378 H3362 0.931 . S
C3378 C3372 1.383 . S
C3378 C3377 1.379 . S
H3379 C3373 0.959 . S
H3380 C3373 0.961 . S
H3381 C3373 0.960 . S
H3382 C3374 0.930 . S
H3383 C3375 0.929 . S
H3384 C3392 0.929 . S
H3385 C3394 0.930 . S
H3386 C3396 0.930 . S
H3387 C3399 0.929 . S
H3388 C3402 0.930 . S
H3389 C3404 0.960 . S
H3390 C3404 0.960 . S
H3391 C3404 0.960 . S
C3392 H3384 0.929 . S
C3392 C3393 1.377 . S
C3392 C3394 1.384 . S
C3393 C3392 1.377 . S
C3393 C3399 1.390 . S
C3394 H3385 0.930 . S
C3394 C3392 1.384 . S
C3394 C3395 1.372 . S
C3395 C3394 1.372 . S
C3395 C3396 1.400 . S
C3395 C3400 1.490 . S
C3396 H3386 0.930 . S
C3396 C3395 1.400 . S
C3396 C3399 1.386 . S
H3397 C3413 0.930 . S
H3398 C3414 0.931 . S
C3399 H3387 0.929 . S
C3399 C3393 1.390 . S
C3399 C3396 1.386 . S
C3400 C3395 1.490 . S
C3400 C3402 1.395 . S
C3400 C3403 1.403 . S
H3401 C3407 0.930 . S
C3402 H3388 0.930 . S
C3402 C3400 1.395 . S
C3402 C3405 1.403 . S
C3403 C3400 1.403 . S
C3403 C3404 1.524 . S
C3403 C3407 1.400 . S
C3404 H3389 0.960 . S
C3404 H3390 0.960 . S
C3404 H3391 0.960 . S
C3404 C3403 1.524 . S
C3405 C3402 1.403 . S
C3405 C3406 1.392 . S
C3405 C3409 1.495 . S
C3406 C3405 1.392 . S
C3406 C3407 1.385 . S
C3406 C3408 1.478 . S
C3407 H3401 0.930 . S
C3407 C3403 1.400 . S
C3407 C3406 1.385 . S
C3408 C3406 1.478 . S
C3408 C3410 1.381 . S
C3408 C3414 1.383 . S
C3409 C3405 1.495 . S
C3409 H3415 0.959 . S
C3409 H3416 0.961 . S
C3409 H3417 0.960 . S
C3410 C3408 1.381 . S
C3410 C3411 1.394 . S
C3410 H3418 0.930 . S
C3411 C3410 1.394 . S
C3411 C3412 1.383 . S
C3411 H3419 0.929 . S
C3412 C3411 1.383 . S
C3412 C3413 1.377 . S
C3413 H3397 0.930 . S
C3413 C3412 1.377 . S
C3413 C3414 1.379 . S
C3414 H3398 0.931 . S
C3414 C3408 1.383 . S
C3414 C3413 1.379 . S
H3415 C3409 0.959 . S
H3416 C3409 0.961 . S
H3417 C3409 0.960 . S
H3418 C3410 0.930 . S
H3419 C3411 0.929 . S
H3420 C3428 0.929 . S
H3421 C3430 0.930 . S
H3422 C3432 0.930 . S
H3423 C3435 0.929 . S
H3424 C3438 0.930 . S
H3425 C3440 0.960 . S
H3426 C3440 0.960 . S
H3427 C3440 0.960 . S
C3428 H3420 0.929 . S
C3428 C3429 1.377 . S
C3428 C3430 1.384 . S
C3429 C3428 1.377 . S
C3429 C3435 1.390 . S
C3430 H3421 0.930 . S
C3430 C3428 1.384 . S
C3430 C3431 1.372 . S
C3431 C3430 1.372 . S
C3431 C3432 1.400 . S
C3431 C3436 1.490 . S
C3432 H3422 0.930 . S
C3432 C3431 1.400 . S
C3432 C3435 1.386 . S
H3433 C3449 0.930 . S
H3434 C3450 0.931 . S
C3435 H3423 0.929 . S
C3435 C3429 1.390 . S
C3435 C3432 1.386 . S
C3436 C3431 1.490 . S
C3436 C3438 1.395 . S
C3436 C3439 1.403 . S
H3437 C3443 0.930 . S
C3438 H3424 0.930 . S
C3438 C3436 1.395 . S
C3438 C3441 1.403 . S
C3439 C3436 1.403 . S
C3439 C3440 1.524 . S
C3439 C3443 1.400 . S
C3440 H3425 0.960 . S
C3440 H3426 0.960 . S
C3440 H3427 0.960 . S
C3440 C3439 1.524 . S
C3441 C3438 1.403 . S
C3441 C3442 1.392 . S
C3441 C3445 1.495 . S
C3442 C3441 1.392 . S
C3442 C3443 1.385 . S
C3442 C3444 1.478 . S
C3443 H3437 0.930 . S
C3443 C3439 1.400 . S
C3443 C3442 1.385 . S
C3444 C3442 1.478 . S
C3444 C3446 1.381 . S
C3444 C3450 1.383 . S
C3445 C3441 1.495 . S
C3445 H3451 0.959 . S
C3445 H3452 0.961 . S
C3445 H3453 0.960 . S
C3446 C3444 1.381 . S
C3446 C3447 1.394 . S
C3446 H3454 0.930 . S
C3447 C3446 1.394 . S
C3447 C3448 1.383 . S
C3447 H3455 0.929 . S
C3448 C3447 1.383 . S
C3448 C3449 1.377 . S
C3449 H3433 0.930 . S
C3449 C3448 1.377 . S
C3449 C3450 1.379 . S
C3450 H3434 0.931 . S
C3450 C3444 1.383 . S
C3450 C3449 1.379 . S
H3451 C3445 0.959 . S
H3452 C3445 0.961 . S
H3453 C3445 0.960 . S
H3454 C3446 0.930 . S
H3455 C3447 0.929 . S
C1161 C219 1.440 . S
C1180 C3 1.443 . S
C1197 C39 1.442 . S
C1216 C255 1.436 . S
C1233 C147 1.442 . S
C1252 C75 1.442 . S
C1269 C111 1.440 . S
C1288 C183 1.442 . S
C1305 C507 1.441 . S
C1324 C291 1.435 . S
C1341 C543 1.442 . S
C1360 C327 1.442 . S
C1377 C363 1.443 . S
C1396 C435 1.444 . S
C1413 C399 1.443 . S
C1432 C471 1.443 . S
C1449 C579 1.443 . S
C1468 C795 1.434 . S
C1485 C615 1.442 . S
C1504 C831 1.439 . S
C1521 C723 1.442 . S
C1540 C651 1.438 . S
C1557 C759 1.443 . S
C1576 C687 1.436 . S
C1593 C867 1.441 . S
C1612 C1083 1.435 . S
C1629 C1119 1.442 . S
C1648 C903 1.437 . S
C1665 C1011 1.443 . S
C1684 C939 1.442 . S
C1701 C975 1.442 . S
C1720 C1047 1.440 . S
C1737 C2 1.130 1_556 S
C1756 C1094 1.118 . S
C1773 C554 1.131 . S
C1792 C38 1.146 . S
C1809 C74 1.149 . S
C1828 C1022 1.104 . S
C1845 C110 1.154 . S
C1864 C482 1.131 . S
C1881 C950 1.143 . S
C1900 C146 1.156 . S
C1917 C410 1.143 . S
C1936 C182 1.128 . S
C1953 C218 1.141 1_554 S
C1972 C878 1.113 . S
C1989 C338 1.134 . S
C2008 C254 1.169 . S
C2025 C290 1.130 1_554 S
C2044 C806 1.104 . S
C2061 C266 1.135 . S
C2080 C326 1.148 . S
C2097 C362 1.153 . S
C2116 C734 1.166 . S
C2133 C398 1.144 . S
C2152 C194 1.104 . S
C2169 C662 1.134 . S
C2188 C434 1.143 . S
C2205 C470 1.153 . S
C2224 C122 1.166 . S
C2241 C506 1.131 1_556 S
C2260 C590 1.106 . S
C2277 C50 1.132 . S
C2296 C542 1.121 . S
C2313 C578 1.144 . S
C2332 C518 1.119 . S
C2349 C614 1.144 . S
C2368 C1130 1.129 . S
C2385 C446 1.141 . S
C2404 C650 1.151 1_556 S
C2421 C686 1.153 . S
C2440 C1058 1.140 . S
C2457 C374 1.142 . S
C2476 C722 1.114 1_554 S
C2493 C986 1.135 . S
C2512 C758 1.124 . S
C2529 C302 1.133 . S
C2548 C794 1.167 . S
C2565 C914 1.133 . S
C2584 C830 1.169 . S
C2601 C866 1.150 . S
C2620 C230 1.157 . S
C2637 C842 1.139 . S
C2656 C902 1.143 . S
C2673 C158 1.142 . S
C2692 C938 1.155 1_554 S
C2709 C974 1.153 . S
C2728 C770 1.152 . S
C2745 C1010 1.142 1_556 S
C2764 C86 1.157 . S
C2781 C1046 1.152 . S
C2800 C698 1.163 . S
C2817 C14 1.131 . S
C2836 C1082 1.128 . S
C2853 C1118 1.150 . S
C2872 C626 1.134 . S
C2889 C4 1.281 . S
C2908 C760 1.291 . S
C2925 C796 1.283 . S
C2944 C40 1.278 . S
C2961 C76 1.281 . S
C2980 C832 1.290 . S
C2997 C724 1.284 . S
C3016 C112 1.276 . S
C3033 C688 1.280 . S
C3052 C148 1.292 . S
C3069 C580 1.286 . S
C3088 C184 1.269 . S
C3105 C616 1.285 . S
C3124 C220 1.275 . S
C3141 C652 1.284 . S
C3160 C256 1.276 . S
C3177 C292 1.284 . S
C3196 C1048 1.292 . S
C3213 C1084 1.285 . S
C3232 C328 1.292 . S
C3249 C1120 1.281 . S
C3268 C364 1.270 . S
C3285 C1012 1.281 . S
C3304 C400 1.268 . S
C3321 C976 1.282 . S
C3340 C436 1.288 . S
C3357 C868 1.282 . S
C3376 C472 1.288 . S
C3393 C508 1.283 . S
C3412 C904 1.291 . S
C3429 C544 1.284 . S
C3448 C940 1.292 . S
