# Generated by pormake.
# Topology skb, (5)-cn, num edge types: 1
# Building blocks:
#     Node 0, Type 0, BuildingBlock: XOMCOT_clean_sbu_1, # of connection points: 5
#     Node 1, Type 0, BuildingBlock: XOMCOT_clean_sbu_1, # of connection points: 5
#     Node 2, Type 0, BuildingBlock: XOMCOT_clean_sbu_1, # of connection points: 5
#     Node 3, Type 0, BuildingBlock: XOMCOT_clean_sbu_1, # of connection points: 5
#     Node 4, Type 0, BuildingBlock: XOMCOT_clean_sbu_1, # of connection points: 5
#     Node 5, Type 0, BuildingBlock: XOMCOT_clean_sbu_1, # of connection points: 5
#     Node 6, Type 0, BuildingBlock: XOMCOT_clean_sbu_1, # of connection points: 5
#     Node 7, Type 0, BuildingBlock: XOMCOT_clean_sbu_1, # of connection points: 5
#     Node 8, Type 0, BuildingBlock: XOMCOT_clean_sbu_1, # of connection points: 5
#     Node 9, Type 0, BuildingBlock: XOMCOT_clean_sbu_1, # of connection points: 5
#     Node 10, Type 0, BuildingBlock: XOMCOT_clean_sbu_1, # of connection points: 5
#     Node 11, Type 0, BuildingBlock: XOMCOT_clean_sbu_1, # of connection points: 5
#     Node 12, Type 0, BuildingBlock: XOMCOT_clean_sbu_1, # of connection points: 5
#     Node 13, Type 0, BuildingBlock: XOMCOT_clean_sbu_1, # of connection points: 5
#     Node 14, Type 0, BuildingBlock: XOMCOT_clean_sbu_1, # of connection points: 5
#     Node 15, Type 0, BuildingBlock: XOMCOT_clean_sbu_1, # of connection points: 5
#     Edge 16, Type (0, 0), BuildingBlock: OJICUG_clean_linker_0, # of connection points: 2
#     Edge 17, Type (0, 0), BuildingBlock: OJICUG_clean_linker_0, # of connection points: 2
#     Edge 18, Type (0, 0), BuildingBlock: OJICUG_clean_linker_0, # of connection points: 2
#     Edge 19, Type (0, 0), BuildingBlock: OJICUG_clean_linker_0, # of connection points: 2
#     Edge 20, Type (0, 0), BuildingBlock: OJICUG_clean_linker_0, # of connection points: 2
#     Edge 21, Type (0, 0), BuildingBlock: OJICUG_clean_linker_0, # of connection points: 2
#     Edge 22, Type (0, 0), BuildingBlock: OJICUG_clean_linker_0, # of connection points: 2
#     Edge 23, Type (0, 0), BuildingBlock: OJICUG_clean_linker_0, # of connection points: 2
#     Edge 24, Type (0, 0), BuildingBlock: OJICUG_clean_linker_0, # of connection points: 2
#     Edge 25, Type (0, 0), BuildingBlock: OJICUG_clean_linker_0, # of connection points: 2
#     Edge 26, Type (0, 0), BuildingBlock: OJICUG_clean_linker_0, # of connection points: 2
#     Edge 27, Type (0, 0), BuildingBlock: OJICUG_clean_linker_0, # of connection points: 2
#     Edge 28, Type (0, 0), BuildingBlock: OJICUG_clean_linker_0, # of connection points: 2
#     Edge 29, Type (0, 0), BuildingBlock: OJICUG_clean_linker_0, # of connection points: 2
#     Edge 30, Type (0, 0), BuildingBlock: OJICUG_clean_linker_0, # of connection points: 2
#     Edge 31, Type (0, 0), BuildingBlock: OJICUG_clean_linker_0, # of connection points: 2
#     Edge 32, Type (0, 0), BuildingBlock: OJICUG_clean_linker_0, # of connection points: 2
#     Edge 33, Type (0, 0), BuildingBlock: OJICUG_clean_linker_0, # of connection points: 2
#     Edge 34, Type (0, 0), BuildingBlock: OJICUG_clean_linker_0, # of connection points: 2
#     Edge 35, Type (0, 0), BuildingBlock: OJICUG_clean_linker_0, # of connection points: 2
#     Edge 36, Type (0, 0), BuildingBlock: OJICUG_clean_linker_0, # of connection points: 2
#     Edge 37, Type (0, 0), BuildingBlock: OJICUG_clean_linker_0, # of connection points: 2
#     Edge 38, Type (0, 0), BuildingBlock: OJICUG_clean_linker_0, # of connection points: 2
#     Edge 39, Type (0, 0), BuildingBlock: OJICUG_clean_linker_0, # of connection points: 2
#     Edge 40, Type (0, 0), BuildingBlock: OJICUG_clean_linker_0, # of connection points: 2
#     Edge 41, Type (0, 0), BuildingBlock: OJICUG_clean_linker_0, # of connection points: 2
#     Edge 42, Type (0, 0), BuildingBlock: OJICUG_clean_linker_0, # of connection points: 2
#     Edge 43, Type (0, 0), BuildingBlock: OJICUG_clean_linker_0, # of connection points: 2
#     Edge 44, Type (0, 0), BuildingBlock: OJICUG_clean_linker_0, # of connection points: 2
#     Edge 45, Type (0, 0), BuildingBlock: OJICUG_clean_linker_0, # of connection points: 2
#     Edge 46, Type (0, 0), BuildingBlock: OJICUG_clean_linker_0, # of connection points: 2
#     Edge 47, Type (0, 0), BuildingBlock: OJICUG_clean_linker_0, # of connection points: 2
#     Edge 48, Type (0, 0), BuildingBlock: OJICUG_clean_linker_0, # of connection points: 2
#     Edge 49, Type (0, 0), BuildingBlock: OJICUG_clean_linker_0, # of connection points: 2
#     Edge 50, Type (0, 0), BuildingBlock: OJICUG_clean_linker_0, # of connection points: 2
#     Edge 51, Type (0, 0), BuildingBlock: OJICUG_clean_linker_0, # of connection points: 2
#     Edge 52, Type (0, 0), BuildingBlock: OJICUG_clean_linker_0, # of connection points: 2
#     Edge 53, Type (0, 0), BuildingBlock: OJICUG_clean_linker_0, # of connection points: 2
#     Edge 54, Type (0, 0), BuildingBlock: OJICUG_clean_linker_0, # of connection points: 2
#     Edge 55, Type (0, 0), BuildingBlock: OJICUG_clean_linker_0, # of connection points: 2
# Relax obj value: 0.058
# Max RMSD: 0.104
# Mean RMSD: 0.104
data_MOF--net-skb--node1-XOMCOT_clean_sbu_1--edge1-OJICUG_clean_linker_0
_symmetry_space_group_name_H-M    P1
_symmetry_Int_Tables_number       1
_symmetry_cell_setting            triclinic
loop_
_symmetry_equiv_pos_as_xyz
'x, y, z'
_cell_length_a     38.520267
_cell_length_b     20.168682
_cell_length_c     53.120745
_cell_angle_alpha  90.000035
_cell_angle_beta   90.00066
_cell_angle_gamma 90.005781
loop_
_atom_site_label
_atom_site_type_symbol
_atom_site_fract_x
_atom_site_fract_y
_atom_site_fract_z
_atom_type_partial_charge
C0 C 0.14123 0.09119 0.11986 0.0
C1 C 0.14218 0.09383 0.094 0.0
N2 N 0.16654 0.05115 0.08562 0.0
N3 N 0.16474 0.0468 0.12818 0.0
C4 C 0.17988 0.02332 0.10687 0.0
H5 H 0.12389 0.11903 0.13189 0.0
Co6 Co 0.17213 0.0269 0.16287 0.0
C7 C 0.18627 0.87946 0.15622 0.0
O8 O 0.1554 0.866 0.16523 0.0
N9 N 0.18082 1.00679 0.19815 0.0
C10 C 0.17882 0.95843 0.236 0.0
C11 C 0.16584 0.95814 0.21192 0.0
C12 C 0.20338 0.03544 0.21471 0.0
N13 N 0.20252 1.00714 0.23794 0.0
O14 O 0.21354 0.07977 0.16158 0.0
H15 H 0.1461 0.92458 0.20524 0.0
H16 H 0.22008 0.07662 0.20997 0.0
O17 O 0.1961 0.94039 0.15399 0.0
C18 C 0.19933 0.13667 0.16561 0.0
O19 O 0.1662 0.13823 0.17151 0.0
N20 N 0.12696 0.99136 0.16439 0.0
C21 C 0.05502 1.00467 0.15873 0.0
C22 C 0.07436 0.96448 0.14219 0.0
C23 C 0.11046 0.95927 0.14511 0.0
C24 C 0.10808 0.02743 0.18128 0.0
C25 C 0.07238 0.03422 0.17896 0.0
H26 H 0.12538 0.93502 0.13052 0.0
H27 H 0.12103 0.05772 0.19517 0.0
H28 H 0.2003 0.98654 0.107 0.0
H29 H 0.12533 0.12374 0.08232 0.0
H30 H 0.17162 0.92431 0.25083 0.0
H31 H 0.06212 0.94037 0.12629 0.0
H32 H 0.05918 0.06742 0.19178 0.0
C33 C 0.7865 0.93449 0.10443 0.0
C34 C 0.78457 0.94036 0.07879 0.0
N35 N 0.78605 1.0051 0.07268 0.0
N36 N 0.78907 0.99516 0.11498 0.0
C37 C 0.78895 0.03741 0.09506 0.0
H38 H 0.78752 0.88811 0.1145 0.0
Co39 Co 0.79501 1.00928 0.15011 0.0
C40 C 0.76924 0.15006 0.16017 0.0
O41 O 0.78823 0.15277 0.18066 0.0
N42 N 0.80036 0.02133 0.18557 0.0
C43 C 0.8213 0.02316 0.22468 0.0
C44 C 0.82968 1.01936 0.19946 0.0
C45 C 0.77453 0.02526 0.2029 0.0
N46 N 0.78647 0.0268 0.22692 0.0
O47 O 0.75472 0.95416 0.1564 0.0
H48 H 0.85557 1.01386 0.19188 0.0
H49 H 0.74733 0.02562 0.19786 0.0
O50 O 0.76853 0.09615 0.14707 0.0
C51 C 0.76927 0.89857 0.16213 0.0
O52 O 0.8032 0.89775 0.1647 0.0
N53 N 0.83845 0.04795 0.14374 0.0
C54 C 0.91031 0.05996 0.14118 0.0
C55 C 0.88977 0.11479 0.14785 0.0
C56 C 0.8534 0.10817 0.14849 0.0
C57 C 0.85846 0.99579 0.13619 0.0
C58 C 0.89416 1.00103 0.13431 0.0
H59 H 0.83816 0.15017 0.15408 0.0
H60 H 0.84683 0.94784 0.13304 0.0
H61 H 0.79156 0.09059 0.09695 0.0
H62 H 0.78379 0.89944 0.06563 0.0
H63 H 0.83962 0.02316 0.24011 0.0
H64 H 0.90173 0.16111 0.15342 0.0
H65 H 0.90924 0.95745 0.1295 0.0
C66 C 0.18569 0.9168 0.94784 0.0
C67 C 0.18666 0.91766 0.97365 0.0
N68 N 0.18674 0.98114 0.98154 0.0
N69 N 0.18552 0.97939 0.93893 0.0
C70 C 0.18585 1.01778 0.96 0.0
H71 H 0.1837 0.87274 0.9364 0.0
Co72 Co 0.18063 0.99839 0.90408 0.0
C73 C 0.20177 0.13935 0.89683 0.0
O74 O 0.17605 0.14399 0.88069 0.0
N75 N 0.176 1.01566 0.86855 0.0
C76 C 0.15586 0.02353 0.82929 0.0
C77 C 0.14703 1.01465 0.85423 0.0
C78 C 0.2021 0.02507 0.85165 0.0
N79 N 0.19061 0.02999 0.82755 0.0
O80 O 0.22072 0.94326 0.89712 0.0
H81 H 0.12103 1.00685 0.86123 0.0
H82 H 0.2292 0.02675 0.85697 0.0
O83 O 0.20761 0.08354 0.90793 0.0
C84 C 0.20691 0.88903 0.88909 0.0
O85 O 0.17364 0.88925 0.88383 0.0
N86 N 0.13786 0.03741 0.91126 0.0
C87 C 0.06724 0.0531 0.91925 0.0
C88 C 0.08956 0.1079 0.92119 0.0
C89 C 0.12546 0.0985 0.91794 0.0
C90 C 0.11637 0.98378 0.91144 0.0
C91 C 0.08113 0.99039 0.91532 0.0
H92 H 0.14263 0.14003 0.92071 0.0
H93 H 0.12662 0.93497 0.90804 0.0
H94 H 0.18466 0.07137 0.95952 0.0
H95 H 0.1856 0.87439 0.98566 0.0
H96 H 0.13787 0.02536 0.81366 0.0
H97 H 0.07933 0.15707 0.92465 0.0
H98 H 0.06457 0.94706 0.91394 0.0
C99 C 0.8265 0.1411 0.93695 0.0
C100 C 0.8246 0.14254 0.96278 0.0
N101 N 0.80311 0.0938 0.97057 0.0
N102 N 0.8064 0.09169 0.92811 0.0
C103 C 0.79231 0.06396 0.94899 0.0
H104 H 0.84255 0.17274 0.92534 0.0
Co105 Co 0.80394 0.06794 0.89381 0.0
C106 C 0.78799 0.92149 0.89778 0.0
O107 O 0.81768 0.90994 0.88655 0.0
N108 N 0.8011 0.04345 0.85844 0.0
C109 C 0.81225 0.99438 0.82157 0.0
C110 C 0.82344 1.00369 0.8457 0.0
C111 C 0.77619 0.05739 0.84095 0.0
N112 N 0.78253 0.02794 0.81844 0.0
O113 O 0.76224 0.12093 0.89108 0.0
H114 H 0.84634 0.98035 0.85332 0.0
H115 H 0.75309 0.0861 0.84484 0.0
O116 O 0.77898 0.98201 0.90234 0.0
C117 C 0.77635 0.17739 0.88608 0.0
O118 O 0.80955 0.17815 0.88058 0.0
N119 N 0.84859 0.03298 0.89679 0.0
C120 C 0.91994 0.03471 0.90558 0.0
C121 C 0.89801 0.99391 0.92009 0.0
C122 C 0.86202 0.99456 0.91563 0.0
C123 C 0.86979 0.07311 0.88302 0.0
C124 C 0.90519 0.07419 0.88684 0.0
H125 H 0.84493 0.96777 0.92818 0.0
H126 H 0.85901 0.10714 0.86945 0.0
H127 H 0.77512 0.02171 0.94827 0.0
H128 H 0.83916 0.17575 0.97476 0.0
H129 H 0.82458 0.96354 0.80748 0.0
H130 H 0.90838 0.96355 0.93512 0.0
H131 H 0.92063 0.10853 0.87586 0.0
C132 C 0.18057 0.67133 0.6065 0.0
C133 C 0.18259 0.67127 0.58072 0.0
N134 N 0.18609 0.60823 0.57271 0.0
N135 N 0.18307 0.60873 0.61517 0.0
C136 C 0.18614 0.57106 0.59408 0.0
H137 H 0.17624 0.71448 0.61813 0.0
Co138 Co 0.17849 0.58818 0.64966 0.0
C139 C 0.1987 0.44668 0.65549 0.0
O140 O 0.1721 0.44134 0.67084 0.0
N141 N 0.1742 0.5691 0.685 0.0
C142 C 0.15491 0.55909 0.72441 0.0
C143 C 0.14552 0.56874 0.69964 0.0
C144 C 0.20069 0.55948 0.70152 0.0
N145 N 0.18972 0.55345 0.72569 0.0
O146 O 0.21869 0.6429 0.65664 0.0
H147 H 0.1193 0.57615 0.69304 0.0
H148 H 0.22769 0.55876 0.69591 0.0
O149 O 0.20535 0.50322 0.6452 0.0
C150 C 0.20514 0.69704 0.66494 0.0
O151 O 0.17218 0.69654 0.67109 0.0
N152 N 0.13571 0.54964 0.64231 0.0
C153 C 0.06549 0.53468 0.63244 0.0
C154 C 0.0883 0.48135 0.62853 0.0
C155 C 0.12402 0.4906 0.63285 0.0
C156 C 0.11377 0.60235 0.64413 0.0
C157 C 0.07874 0.59602 0.63944 0.0
H158 H 0.14173 0.45087 0.62845 0.0
H159 H 0.12351 0.65019 0.64957 0.0
H160 H 0.1877 0.51751 0.5944 0.0
H161 H 0.18003 0.71444 0.56876 0.0
H162 H 0.13729 0.5563 0.74024 0.0
H163 H 0.07861 0.43341 0.62262 0.0
H164 H 0.06183 0.63836 0.64228 0.0
C165 C 0.81482 0.43283 0.60885 0.0
C166 C 0.81429 0.432 0.58297 0.0
N167 N 0.80155 0.49031 0.57473 0.0
N168 N 0.80222 0.49116 0.61721 0.0
C169 C 0.79439 0.52532 0.59593 0.0
H170 H 0.82484 0.39393 0.62081 0.0
Co171 Co 0.80083 0.51501 0.65159 0.0
C172 C 0.78521 0.66145 0.64807 0.0
O173 O 0.81511 0.67269 0.65905 0.0
N174 N 0.79908 0.53986 0.68705 0.0
C175 C 0.81178 0.58841 0.72377 0.0
C176 C 0.82227 0.57849 0.6995 0.0
C177 C 0.7744 0.52726 0.70486 0.0
N178 N 0.78169 0.55636 0.72729 0.0
O179 O 0.75878 0.46273 0.65496 0.0
H180 H 0.84529 0.6007 0.69157 0.0
H181 H 0.75082 0.49968 0.70128 0.0
O182 O 0.77606 0.6011 0.6434 0.0
C183 C 0.77216 0.40661 0.66137 0.0
O184 O 0.80485 0.40595 0.6682 0.0
N185 N 0.8457 0.54879 0.64802 0.0
C186 C 0.91726 0.54776 0.64023 0.0
C187 C 0.89576 0.58971 0.62586 0.0
C188 C 0.8596 0.5887 0.62981 0.0
C189 C 0.86654 0.50701 0.66137 0.0
C190 C 0.90197 0.50611 0.658 0.0
H191 H 0.84289 0.61733 0.6176 0.0
H192 H 0.85556 0.4725 0.67461 0.0
H193 H 0.78435 0.5754 0.59593 0.0
H194 H 0.82403 0.39247 0.57115 0.0
H195 H 0.8249 0.61855 0.73771 0.0
H196 H 0.90663 0.62174 0.61153 0.0
H197 H 0.91717 0.47103 0.66883 0.0
C198 C 0.15138 0.49473 0.43355 0.0
C199 C 0.15117 0.49173 0.45941 0.0
N200 N 0.17415 0.53626 0.46842 0.0
N201 N 0.17428 0.54115 0.42593 0.0
C202 C 0.18789 0.56544 0.44761 0.0
H203 H 0.13516 0.46589 0.42105 0.0
Co204 Co 0.18288 0.56299 0.39168 0.0
C205 C 0.19546 0.71005 0.40155 0.0
O206 O 0.16344 0.72398 0.39518 0.0
N207 N 0.19288 0.58549 0.35694 0.0
C208 C 0.19277 0.6398 0.3203 0.0
C209 C 0.18089 0.63957 0.34465 0.0
C210 C 0.2126 0.55402 0.3393 0.0
N211 N 0.21275 0.58593 0.31676 0.0
O212 O 0.22445 0.51102 0.39343 0.0
H213 H 0.16373 0.67629 0.35254 0.0
H214 H 0.22629 0.50811 0.3427 0.0
O215 O 0.20603 0.64932 0.40147 0.0
C216 C 0.21023 0.45442 0.38882 0.0
O217 O 0.17751 0.4534 0.38181 0.0
N218 N 0.13758 0.59739 0.38935 0.0
C219 C 0.06542 0.58155 0.39105 0.0
C220 C 0.08274 0.61881 0.40958 0.0
C221 C 0.119 0.62495 0.40869 0.0
C222 C 0.12067 0.56346 0.37083 0.0
C223 C 0.08506 0.55509 0.3713 0.0
H224 H 0.13224 0.64665 0.42464 0.0
H225 H 0.13495 0.53543 0.35698 0.0
H226 H 0.20742 0.60393 0.44809 0.0
H227 H 0.13442 0.46047 0.47065 0.0
H228 H 0.18732 0.67745 0.30633 0.0
H229 H 0.06878 0.64004 0.42532 0.0
H230 H 0.07369 0.52315 0.35716 0.0
C231 C 0.82642 0.6206 0.43687 0.0
C232 C 0.82634 0.62178 0.46277 0.0
N233 N 0.807 0.57067 0.47118 0.0
N234 N 0.8071 0.56917 0.4287 0.0
C235 C 0.79559 0.5396 0.45009 0.0
H236 H 0.84047 0.65428 0.42475 0.0
Co237 Co 0.80088 0.54648 0.39441 0.0
C238 C 0.78785 0.39924 0.40165 0.0
O239 O 0.81906 0.38663 0.3931 0.0
N240 N 0.79359 0.52182 0.35941 0.0
C241 C 0.79798 0.46528 0.32337 0.0
C242 C 0.81143 0.47409 0.34693 0.0
C243 C 0.76898 0.54103 0.34244 0.0
N244 N 0.77124 0.5071 0.32043 0.0
O245 O 0.75868 0.5983 0.39438 0.0
H246 H 0.83302 0.44613 0.35427 0.0
H247 H 0.74882 0.57687 0.34641 0.0
O248 O 0.77765 0.45993 0.40381 0.0
C249 C 0.77254 0.6548 0.38898 0.0
O250 O 0.80533 0.65566 0.38228 0.0
N251 N 0.8464 0.51369 0.394 0.0
C252 C 0.91885 0.51885 0.39462 0.0
C253 C 0.90075 0.48172 0.41284 0.0
C254 C 0.8642 0.48085 0.4125 0.0
C255 C 0.86403 0.55087 0.3768 0.0
C256 C 0.89973 0.55354 0.37659 0.0
H257 H 0.85033 0.45701 0.42771 0.0
H258 H 0.8503 0.58222 0.36371 0.0
H259 H 0.77943 0.49576 0.45023 0.0
H260 H 0.84057 0.65627 0.47448 0.0
H261 H 0.80674 0.42957 0.30953 0.0
H262 H 0.91454 0.45564 0.42758 0.0
H263 H 0.91208 0.58601 0.36304 0.0
C264 C 0.65291 0.11375 0.60992 0.0
C265 C 0.65295 0.11681 0.58404 0.0
N266 N 0.67207 0.06608 0.5751 0.0
N267 N 0.6721 0.06155 0.61756 0.0
C268 C 0.6834 0.03329 0.59584 0.0
H269 H 0.63912 0.14694 0.62238 0.0
Co270 Co 0.67925 0.03795 0.65175 0.0
C271 C 0.69314 0.89091 0.64043 0.0
O272 O 0.66029 0.87667 0.64375 0.0
N273 N 0.68772 1.01243 0.68629 0.0
C274 C 0.68635 0.95003 0.72092 0.0
C275 C 0.67524 0.95591 0.69659 0.0
C276 C 0.70675 0.04003 0.70522 0.0
N277 N 0.70636 1.00261 0.72648 0.0
O278 O 0.72097 0.09105 0.65156 0.0
H279 H 0.65851 0.92091 0.68724 0.0
H280 H 0.72148 0.0854 0.70331 0.0
O281 O 0.70334 0.95182 0.64196 0.0
C282 C 0.70684 0.1471 0.65731 0.0
O283 O 0.67407 0.14701 0.66417 0.0
N284 N 0.63359 1.00402 0.65301 0.0
C285 C 0.56096 1.01197 0.65439 0.0
C286 C 0.5779 0.97948 0.6344 0.0
C287 C 0.61442 0.97732 0.63378 0.0
C288 C 0.61701 0.03607 0.67219 0.0
C289 C 0.58132 0.03988 0.67339 0.0
H290 H 0.62712 0.95822 0.61714 0.0
H291 H 0.63134 0.06482 0.68579 0.0
H292 H 0.69947 0.98935 0.59519 0.0
H293 H 0.63895 0.15241 0.57267 0.0
H294 H 0.6802 0.90969 0.73361 0.0
H295 H 0.56326 0.95855 0.61893 0.0
H296 H 0.57007 0.06923 0.68838 0.0
C297 C 0.32906 0.99605 0.61947 0.0
C298 C 0.32953 0.99268 0.59362 0.0
N299 N 0.30693 0.03754 0.58438 0.0
N300 N 0.30631 0.04293 0.62693 0.0
C301 C 0.29315 0.06738 0.60508 0.0
H302 H 0.34499 0.96698 0.63209 0.0
Co303 Co 0.29767 0.06402 0.6614 0.0
C304 C 0.28499 0.21131 0.65279 0.0
O305 O 0.31658 0.22479 0.66034 0.0
N306 N 0.28769 0.08535 0.69644 0.0
C307 C 0.2884 0.13685 0.7337 0.0
C308 C 0.30063 0.13749 0.70942 0.0
C309 C 0.26704 0.0542 0.71366 0.0
N310 N 0.26722 0.08437 0.73657 0.0
O311 O 0.25612 1.01206 0.65954 0.0
H312 H 0.31872 0.17338 0.7021 0.0
H313 H 0.25242 1.00968 0.70968 0.0
O314 O 0.27451 0.15056 0.65186 0.0
C315 C 0.27034 0.95543 0.66409 0.0
O316 O 0.30311 0.95427 0.67093 0.0
N317 N 0.34294 0.09851 0.66376 0.0
C318 C 0.41507 0.08194 0.6611 0.0
C319 C 0.39747 0.12094 0.64321 0.0
C320 C 0.36123 0.12746 0.64456 0.0
C321 C 0.36012 0.06331 0.68178 0.0
C322 C 0.39569 0.05446 0.68083 0.0
H323 H 0.34771 0.15052 0.62901 0.0
H324 H 0.34597 0.03465 0.69553 0.0
H325 H 0.2739 0.10637 0.60438 0.0
H326 H 0.3462 0.9609 0.58253 0.0
H327 H 0.29448 0.17301 0.74809 0.0
H328 H 0.41115 0.14322 0.62756 0.0
H329 H 0.40715 0.02128 0.6945 0.0
C330 C 0.65751 0.94639 0.43568 0.0
C331 C 0.65729 0.94356 0.46154 0.0
N332 N 0.67477 0.99631 0.47055 0.0
N333 N 0.67528 1.00042 0.42809 0.0
C334 C 0.68545 0.03008 0.44984 0.0
H335 H 0.64469 0.91188 0.42319 0.0
Co336 Co 0.68094 0.0242 0.39376 0.0
C337 C 0.69598 0.17045 0.40074 0.0
O338 O 0.66514 0.18384 0.39168 0.0
N339 N 0.68766 0.0488 0.35862 0.0
C340 C 0.68224 0.1005 0.32159 0.0
C341 C 0.67018 0.09627 0.3458 0.0
C342 C 0.71079 0.02554 0.34127 0.0
N343 N 0.70779 0.05586 0.31851 0.0
O344 O 0.72231 0.97044 0.3931 0.0
H345 H 0.64926 0.126 0.35315 0.0
H346 H 0.72938 0.98671 0.3451 0.0
O347 O 0.70557 0.10945 0.40324 0.0
C348 C 0.70807 0.91475 0.38708 0.0
O349 O 0.67553 0.9156 0.37969 0.0
N350 N 0.63601 0.05988 0.39428 0.0
C351 C 0.56411 0.05249 0.40042 0.0
C352 C 0.58448 0.08993 0.41718 0.0
C353 C 0.62063 0.09229 0.41397 0.0
C354 C 0.6162 0.02448 0.37777 0.0
C355 C 0.58052 0.02079 0.38028 0.0
H356 H 0.63631 0.11603 0.42824 0.0
H357 H 0.62829 0.99404 0.36355 0.0
H358 H 0.69994 0.07598 0.45055 0.0
H359 H 0.64406 0.90677 0.47287 0.0
H360 H 0.673 0.13481 0.30744 0.0
H361 H 0.57283 0.11494 0.43311 0.0
H362 H 0.56626 0.98936 0.36739 0.0
C363 C 0.30576 0.16779 0.44552 0.0
C364 C 0.3041 0.1684 0.47131 0.0
N365 N 0.29815 0.10621 0.47951 0.0
N366 N 0.30063 0.10565 0.43697 0.0
C367 C 0.29639 0.0688 0.4582 0.0
H368 H 0.3113 0.21016 0.43374 0.0
Co369 Co 0.30257 0.08618 0.40211 0.0
C370 C 0.28129 0.94535 0.39616 0.0
O371 O 0.30634 0.9405 0.37949 0.0
N372 N 0.30419 0.06858 0.36643 0.0
C373 C 0.32122 0.05862 0.32646 0.0
C374 C 0.33203 0.06729 0.35096 0.0
C375 C 0.27671 0.0606 0.3506 0.0
N376 N 0.28631 0.05462 0.32609 0.0
O377 O 0.26209 0.1416 0.39703 0.0
H378 H 0.35869 0.07308 0.35678 0.0
H379 H 0.25003 0.0608 0.35697 0.0
O380 O 0.27581 1.0014 0.40717 0.0
C381 C 0.27542 0.19601 0.38881 0.0
O382 O 0.30804 0.19546 0.38176 0.0
N383 N 0.34576 0.04663 0.40747 0.0
C384 C 0.4168 0.02861 0.41228 0.0
C385 C 0.39406 0.97577 0.41723 0.0
C386 C 0.35802 0.98644 0.41539 0.0
C387 C 0.36787 0.0989 0.40503 0.0
C388 C 0.40329 0.09101 0.40709 0.0
H389 H 0.34055 0.94675 0.42033 0.0
H390 H 0.35797 0.1475 0.40087 0.0
H391 H 0.2924 1.01569 0.45803 0.0
H392 H 0.3083 0.21132 0.48316 0.0
H393 H 0.33801 0.05521 0.31018 0.0
H394 H 0.40398 0.92715 0.42202 0.0
H395 H 0.42016 0.13318 0.40379 0.0
C396 C 0.65354 0.61691 0.11215 0.0
C397 C 0.65536 0.62238 0.0864 0.0
N398 N 0.67284 0.56977 0.07729 0.0
N399 N 0.66998 0.56127 0.11963 0.0
C400 C 0.68147 0.53336 0.09788 0.0
H401 H 0.6402 0.65076 0.1246 0.0
Co402 Co 0.67249 0.53473 0.1539 0.0
C403 C 0.68659 0.38768 0.1435 0.0
O404 O 0.65349 0.37394 0.14562 0.0
N405 N 0.67613 0.50714 0.18867 0.0
C406 C 0.66972 0.44566 0.22327 0.0
C407 C 0.66022 0.45337 0.19861 0.0
C408 C 0.69565 0.53081 0.2081 0.0
N409 N 0.69221 0.49407 0.22936 0.0
O410 O 0.71457 0.58573 0.15694 0.0
H411 H 0.64257 0.42116 0.18867 0.0
H412 H 0.71313 0.57254 0.20655 0.0
O413 O 0.697 0.44842 0.14517 0.0
C414 C 0.70079 0.64172 0.16309 0.0
O415 O 0.66765 0.64245 0.16893 0.0
N416 N 0.62673 0.50204 0.15144 0.0
C417 C 0.55487 0.51418 0.145 0.0
C418 C 0.57518 0.48084 0.12701 0.0
C419 C 0.61126 0.47621 0.13039 0.0
C420 C 0.60691 0.53405 0.16896 0.0
C421 C 0.57131 0.5398 0.16632 0.0
H422 H 0.62684 0.45602 0.11531 0.0
H423 H 0.61889 0.56098 0.18421 0.0
H424 H 0.69538 0.48681 0.09709 0.0
H425 H 0.64343 0.66092 0.07516 0.0
H426 H 0.66084 0.40673 0.23573 0.0
H427 H 0.56357 0.46085 0.11008 0.0
H428 H 0.55718 0.56844 0.1802 0.0
C429 C 0.28541 0.42072 0.10496 0.0
C430 C 0.28405 0.42138 0.07919 0.0
N431 N 0.28574 0.48467 0.0712 0.0
N432 N 0.28761 0.4833 0.11375 0.0
C433 C 0.28808 0.52143 0.09263 0.0
H434 H 0.28639 0.3766 0.11642 0.0
Co435 Co 0.29391 0.50232 0.14843 0.0
C436 C 0.27295 0.64411 0.15613 0.0
O437 O 0.29868 0.64874 0.17226 0.0
N438 N 0.29998 0.51943 0.18365 0.0
C439 C 0.32146 0.52602 0.22255 0.0
C440 C 0.32942 0.51751 0.19744 0.0
C441 C 0.2745 0.52898 0.20097 0.0
N442 N 0.28681 0.53314 0.22484 0.0
O443 O 0.25369 0.44788 0.15622 0.0
H444 H 0.35512 0.50911 0.18994 0.0
H445 H 0.24724 0.53116 0.19611 0.0
O446 O 0.26715 0.58828 0.14499 0.0
C447 C 0.2673 0.39333 0.16414 0.0
O448 O 0.30078 0.39258 0.16867 0.0
N449 N 0.33681 0.54022 0.14057 0.0
C450 C 0.40793 0.55173 0.13374 0.0
C451 C 0.38679 0.60843 0.13283 0.0
C452 C 0.35061 0.60136 0.13564 0.0
C453 C 0.35714 0.4851 0.13916 0.0
C454 C 0.39257 0.48961 0.1358 0.0
H455 H 0.33443 0.64472 0.13416 0.0
H456 H 0.34582 0.43665 0.14142 0.0
H457 H 0.29098 0.57479 0.093 0.0
H458 H 0.2837 0.37792 0.06725 0.0
H459 H 0.3399 0.52703 0.23791 0.0
H460 H 0.39812 0.65727 0.13076 0.0
H461 H 0.40814 0.44483 0.13621 0.0
C462 C 0.65603 0.46639 0.93613 0.0
C463 C 0.65563 0.46085 0.96193 0.0
N464 N 0.67454 0.5107 0.97176 0.0
N465 N 0.67528 0.51935 0.92937 0.0
C466 C 0.68618 0.54558 0.95157 0.0
H467 H 0.64244 0.43441 0.92311 0.0
Co468 Co 0.68248 0.5451 0.89537 0.0
C469 C 0.69642 0.69174 0.90768 0.0
O470 O 0.66347 0.706 0.9049 0.0
N471 N 0.69087 0.57231 0.86099 0.0
C472 C 0.68954 0.63623 0.82675 0.0
C473 C 0.67884 0.62975 0.85117 0.0
C474 C 0.70913 0.54469 0.84167 0.0
N475 N 0.70876 0.583 0.82064 0.0
O476 O 0.72425 0.49223 0.89519 0.0
H477 H 0.6626 0.66488 0.8609 0.0
H478 H 0.72323 0.49848 0.84308 0.0
O479 O 0.7066 0.63088 0.90573 0.0
C480 C 0.71034 0.43645 0.88883 0.0
O481 O 0.67773 0.43677 0.8816 0.0
N482 N 0.63685 0.57923 0.89443 0.0
C483 C 0.56422 0.56994 0.8938 0.0
C484 C 0.58144 0.60176 0.91381 0.0
C485 C 0.61794 0.60453 0.91405 0.0
C486 C 0.62003 0.54839 0.87508 0.0
C487 C 0.58432 0.54379 0.87428 0.0
H488 H 0.63085 0.62276 0.93074 0.0
H489 H 0.63422 0.52079 0.86106 0.0
H490 H 0.70212 0.58959 0.95295 0.0
H491 H 0.64141 0.42416 0.97265 0.0
H492 H 0.68354 0.67727 0.81436 0.0
H493 H 0.56709 0.62159 0.92963 0.0
H494 H 0.57294 0.51505 0.85918 0.0
C495 C 0.33309 0.5871 0.93241 0.0
C496 C 0.33234 0.59098 0.95825 0.0
N497 N 0.30745 0.54988 0.96697 0.0
N498 N 0.30899 0.54335 0.92449 0.0
C499 C 0.29363 0.52173 0.94596 0.0
H500 H 0.35059 0.61377 0.92011 0.0
Co501 Co 0.30031 0.52233 0.89015 0.0
C502 C 0.28761 0.37504 0.89886 0.0
O503 O 0.31904 0.3614 0.89101 0.0
N504 N 0.2902 0.5008 0.85529 0.0
C505 C 0.2905 0.44913 0.81808 0.0
C506 C 0.30321 0.44888 0.84222 0.0
C507 C 0.26906 0.53143 0.8383 0.0
N508 N 0.26896 0.50113 0.81544 0.0
O509 O 0.25878 0.57441 0.89212 0.0
H510 H 0.32161 0.41334 0.84939 0.0
H511 H 0.25422 0.5756 0.84242 0.0
O512 O 0.2772 0.43583 0.89983 0.0
C513 C 0.273 0.6312 0.88787 0.0
O514 O 0.3059 0.63261 0.88133 0.0
N515 N 0.34554 0.48778 0.88768 0.0
C516 C 0.41786 0.50163 0.88935 0.0
C517 C 0.40034 0.46319 0.90746 0.0
C518 C 0.364 0.45808 0.90662 0.0
C519 C 0.36258 0.523 0.8696 0.0
C520 C 0.39824 0.53041 0.87004 0.0
H521 H 0.35062 0.43534 0.92231 0.0
H522 H 0.34833 0.55241 0.85613 0.0
H523 H 0.2726 0.48624 0.94609 0.0
H524 H 0.34958 0.62078 0.96966 0.0
H525 H 0.29646 0.413 0.80365 0.0
H526 H 0.41422 0.44021 0.92288 0.0
H527 H 0.40969 0.5634 0.85629 0.0
C528 C 0.21076 1.00636 0.28449 0.0
C529 C 0.22288 0.02307 0.26023 0.0
H530 H 0.22105 1.00281 0.32416 0.0
C531 C 0.25574 0.05308 0.25827 0.0
H532 H 0.18543 0.98416 0.28695 0.0
C533 C 0.27619 0.06417 0.2798 0.0
C534 C 0.26439 0.04598 0.30401 0.0
H535 H 0.2661 0.06652 0.24004 0.0
H536 H 0.30137 0.08705 0.27739 0.0
C537 C 0.23113 1.01771 0.30601 0.0
C538 C 0.73213 0.05577 0.24967 0.0
C539 C 0.76632 0.03139 0.25003 0.0
H540 H 0.68675 0.08109 0.27063 0.0
C541 C 0.78048 1.01249 0.27349 0.0
H542 H 0.72019 0.07129 0.23222 0.0
C543 C 0.76121 1.01897 0.29587 0.0
C544 C 0.72729 0.04476 0.29546 0.0
H545 H 0.8065 0.9926 0.27466 0.0
H546 H 0.77322 1.00517 0.31352 0.0
C547 C 0.71296 0.06219 0.27194 0.0
C548 C 0.26188 0.08506 0.7833 0.0
C549 C 0.2488 0.0664 0.75951 0.0
H550 H 0.25399 0.08853 0.82325 0.0
C551 C 0.21682 0.03277 0.75872 0.0
H552 H 0.28662 0.11012 0.78484 0.0
C553 C 0.19803 1.02017 0.78095 0.0
C554 C 0.21079 0.04025 0.80469 0.0
H555 H 0.20582 1.01776 0.74086 0.0
H556 H 0.17341 0.99468 0.77948 0.0
C557 C 0.24326 0.07206 0.80549 0.0
C558 C 0.73813 0.95495 0.76239 0.0
C559 C 0.72536 1.01112 0.74976 0.0
H560 H 0.76555 0.91659 0.79417 0.0
C561 C 0.73037 0.07391 0.76082 0.0
H562 H 0.7351 0.90597 0.75436 0.0
C563 C 0.74777 0.07988 0.78411 0.0
C564 C 0.76086 0.02325 0.79635 0.0
H565 H 0.72058 0.11799 0.75161 0.0
H566 H 0.7519 0.12854 0.79218 0.0
C567 C 0.75564 0.96096 0.78522 0.0
C568 C 0.19819 0.56326 0.77213 0.0
C569 C 0.21049 0.5435 0.74824 0.0
H570 H 0.20702 0.56588 0.81207 0.0
C571 C 0.24314 0.51254 0.74694 0.0
H572 H 0.17344 0.58812 0.77394 0.0
C573 C 0.26243 0.50008 0.76885 0.0
C574 C 0.24983 0.51846 0.79279 0.0
H575 H 0.2535 0.49636 0.72903 0.0
H576 H 0.28732 0.4757 0.76697 0.0
C577 C 0.21764 0.55118 0.79406 0.0
C578 C 0.74732 0.50531 0.76204 0.0
C579 C 0.76077 0.56159 0.74976 0.0
H580 H 0.72069 0.46767 0.79485 0.0
C581 C 0.7567 0.62383 0.76119 0.0
H582 H 0.75057 0.45666 0.75375 0.0
C583 C 0.73997 0.63011 0.78432 0.0
C584 C 0.72689 0.57425 0.79699 0.0
H585 H 0.76692 0.66793 0.75222 0.0
H586 H 0.73781 0.67902 0.79256 0.0
C587 C 0.73075 0.51151 0.78563 0.0
C588 C 0.23518 0.57621 0.24766 0.0
C589 C 0.2673 0.54311 0.24795 0.0
H590 H 0.19265 0.61488 0.26902 0.0
C591 C 0.28032 0.52129 0.27137 0.0
H592 H 0.22432 0.59404 0.23014 0.0
C593 C 0.26208 0.53341 0.29385 0.0
C594 C 0.23048 0.5683 0.29357 0.0
H595 H 0.3047 0.4948 0.27238 0.0
H596 H 0.27321 0.5171 0.3115 0.0
C597 C 0.21714 0.58875 0.2701 0.0
C598 C 0.71821 0.442 0.26697 0.0
C599 C 0.71085 0.49951 0.25298 0.0
H600 H 0.74255 0.39997 0.29944 0.0
C601 C 0.72189 0.56119 0.26262 0.0
H602 H 0.71065 0.39359 0.26013 0.0
C603 C 0.74018 0.56472 0.2856 0.0
C604 C 0.74813 0.50657 0.29904 0.0
H605 H 0.71643 0.60643 0.2524 0.0
H606 H 0.74921 0.61231 0.2924 0.0
C607 C 0.7366 0.44552 0.28954 0.0
C608 C 0.19782 0.25971 0.15997 0.0
C609 C 0.21749 0.20129 0.16378 0.0
H610 H 0.19771 0.36613 0.15702 0.0
C611 C 0.25325 0.20686 0.16743 0.0
H612 H 0.17005 0.25706 0.15692 0.0
C613 C 0.26885 0.26953 0.16789 0.0
C614 C 0.24918 0.3282 0.16435 0.0
H615 H 0.26898 0.16312 0.17057 0.0
H616 H 0.29661 0.27167 0.17097 0.0
C617 C 0.2135 0.32243 0.16009 0.0
C618 C 0.75513 0.7117 0.16267 0.0
C619 C 0.71898 0.70671 0.16238 0.0
H620 H 0.79909 0.77594 0.16322 0.0
C621 C 0.69911 0.7658 0.16183 0.0
H622 H 0.77111 0.66752 0.16309 0.0
C623 C 0.71498 0.82833 0.16172 0.0
C624 C 0.75114 0.83339 0.16244 0.0
H625 H 0.67102 0.76393 0.16134 0.0
H626 H 0.69898 0.87246 0.16119 0.0
C627 C 0.771 0.77423 0.16288 0.0
C628 C 0.20438 0.76533 0.88571 0.0
C629 C 0.22445 0.82346 0.88934 0.0
H630 H 0.20354 0.65897 0.88291 0.0
C631 C 0.25999 0.81682 0.89395 0.0
H632 H 0.17668 0.7682 0.8824 0.0
C633 C 0.2752 0.75376 0.89418 0.0
C634 C 0.25517 0.69592 0.89011 0.0
H635 H 0.27605 0.86012 0.8971 0.0
H636 H 0.30292 0.75036 0.89739 0.0
C637 C 0.21951 0.7023 0.88626 0.0
C638 C 0.76397 0.36441 0.89019 0.0
C639 C 0.72787 0.37076 0.89 0.0
H640 H 0.80727 0.29858 0.889 0.0
C641 C 0.70742 0.31232 0.88978 0.0
H642 H 0.78039 0.40799 0.89042 0.0
C643 C 0.72265 0.24918 0.88905 0.0
C644 C 0.75875 0.24289 0.88827 0.0
H645 H 0.67935 0.31521 0.88995 0.0
H646 H 0.70622 0.20562 0.88855 0.0
C647 C 0.77919 0.30133 0.8892 0.0
C648 C 0.77818 0.79764 0.90045 0.0
C649 C 0.76525 0.86283 0.90363 0.0
H650 H 0.76731 0.69297 0.89952 0.0
C651 C 0.73036 0.87003 0.91074 0.0
H652 H 0.805 0.78959 0.89516 0.0
C653 C 0.70874 0.81408 0.9133 0.0
C654 C 0.7213 0.74909 0.90897 0.0
H655 H 0.71939 0.91895 0.91346 0.0
H656 H 0.68169 0.82211 0.91795 0.0
C657 C 0.75662 0.74172 0.90312 0.0
C658 C 0.22845 0.32131 0.89766 0.0
C659 C 0.26395 0.31753 0.90328 0.0
H660 H 0.18118 0.26795 0.8912 0.0
C661 C 0.27801 0.255 0.90965 0.0
H662 H 0.21681 0.36827 0.8925 0.0
C663 C 0.25755 0.19726 0.90914 0.0
C664 C 0.22264 0.20045 0.90176 0.0
H665 H 0.30533 0.25027 0.91414 0.0
H666 H 0.26954 0.14985 0.91315 0.0
C667 C 0.20815 0.26347 0.89672 0.0
C668 C 0.70031 0.26798 0.13382 0.0
C669 C 0.71112 0.32998 0.14349 0.0
H670 H 0.71013 0.16301 0.13092 0.0
C671 C 0.74275 0.3326 0.15656 0.0
H672 H 0.67597 0.26396 0.12373 0.0
C673 C 0.76187 0.27437 0.16115 0.0
C674 C 0.75031 0.21187 0.15244 0.0
H675 H 0.75171 0.37895 0.16455 0.0
H676 H 0.78545 0.27818 0.17216 0.0
C677 C 0.71983 0.20987 0.13797 0.0
C678 C 0.1956 0.75902 0.14562 0.0
C679 C 0.20984 0.82187 0.15135 0.0
H680 H 0.20416 0.65387 0.14201 0.0
C681 C 0.24568 0.826 0.15574 0.0
H682 H 0.16803 0.75394 0.14209 0.0
C683 C 0.2662 0.76832 0.1561 0.0
C684 C 0.25164 0.70504 0.15163 0.0
H685 H 0.2575 0.87317 0.16038 0.0
H686 H 0.29348 0.77311 0.16072 0.0
C687 C 0.21627 0.70146 0.14549 0.0
C688 C 0.20223 0.82077 0.66769 0.0
C689 C 0.2224 0.76281 0.66396 0.0
H690 H 0.20114 0.92717 0.67011 0.0
C691 C 0.25771 0.76976 0.65856 0.0
H692 H 0.17469 0.81763 0.67157 0.0
C693 C 0.27267 0.833 0.65776 0.0
C694 C 0.25259 0.89065 0.66204 0.0
H695 H 0.2738 0.72657 0.65528 0.0
H696 H 0.30026 0.83672 0.65404 0.0
C697 C 0.21711 0.88396 0.66657 0.0
C698 C 0.77535 0.2826 0.65904 0.0
C699 C 0.7548 0.34095 0.65874 0.0
H700 H 0.77682 0.17591 0.65848 0.0
C701 C 0.71887 0.33438 0.65618 0.0
H702 H 0.80335 0.2855 0.66058 0.0
C703 C 0.70383 0.27108 0.65503 0.0
C704 C 0.72434 0.21279 0.65612 0.0
H705 H 0.70237 0.37784 0.65565 0.0
H706 H 0.67584 0.2679 0.65356 0.0
C707 C 0.76036 0.21938 0.65762 0.0
C708 C 0.20753 0.33171 0.39462 0.0
C709 C 0.22783 0.38951 0.3912 0.0
H710 H 0.20628 0.22519 0.39667 0.0
C711 C 0.26363 0.38296 0.38815 0.0
H712 H 0.17971 0.33524 0.39729 0.0
C713 C 0.27861 0.31982 0.38749 0.0
C714 C 0.25821 0.26176 0.39017 0.0
H715 H 0.27983 0.42627 0.3854 0.0
H716 H 0.30641 0.31675 0.38469 0.0
C717 C 0.22257 0.26851 0.39426 0.0
C718 C 0.71901 0.72718 0.3891 0.0
C719 C 0.75498 0.72022 0.39097 0.0
H720 H 0.67625 0.79406 0.38631 0.0
C721 C 0.77558 0.77818 0.3931 0.0
H722 H 0.7025 0.68392 0.38746 0.0
C723 C 0.76074 0.84159 0.39246 0.0
C724 C 0.72492 0.84866 0.38946 0.0
H725 H 0.80353 0.77469 0.39491 0.0
H726 H 0.77735 0.8848 0.39368 0.0
C727 C 0.70418 0.79065 0.38824 0.0
C728 C 0.7778 0.27618 0.40624 0.0
C729 C 0.76416 0.34131 0.40577 0.0
H730 H 0.76742 0.17133 0.40539 0.0
C731 C 0.72798 0.34888 0.40662 0.0
H732 H 0.80559 0.26813 0.40579 0.0
C733 C 0.70614 0.29304 0.40634 0.0
C734 C 0.71977 0.22794 0.40536 0.0
H735 H 0.71648 0.39787 0.40629 0.0
H736 H 0.67835 0.30113 0.40599 0.0
C737 C 0.75594 0.22031 0.40613 0.0
C738 C 0.25446 0.76351 0.39786 0.0
C739 C 0.2195 0.76738 0.40505 0.0
H740 H 0.30117 0.81667 0.38939 0.0
C741 C 0.20608 0.82991 0.41211 0.0
H742 H 0.26559 0.71655 0.39213 0.0
C743 C 0.22652 0.88756 0.41072 0.0
C744 C 0.26074 0.88429 0.4018 0.0
H745 H 0.17919 0.8347 0.4178 0.0
H746 H 0.21494 0.93498 0.41532 0.0
C747 C 0.27471 0.82126 0.39608 0.0
C748 C 0.77527 0.78529 0.64584 0.0
C749 C 0.76226 0.72012 0.64278 0.0
H750 H 0.76432 0.88991 0.64719 0.0
C751 C 0.7271 0.71286 0.63642 0.0
H752 H 0.80229 0.79335 0.65056 0.0
C753 C 0.70532 0.76871 0.63447 0.0
C754 C 0.718 0.83367 0.63866 0.0
H755 H 0.71607 0.66393 0.63386 0.0
H756 H 0.67811 0.76062 0.63038 0.0
C757 C 0.75354 0.84115 0.64375 0.0
C758 C 0.20535 0.32252 0.65536 0.0
C759 C 0.21976 0.38576 0.6506 0.0
H760 H 0.21415 0.21764 0.65917 0.0
C761 C 0.25472 0.38933 0.64335 0.0
H762 H 0.17835 0.31768 0.66076 0.0
C763 C 0.27526 0.33173 0.64264 0.0
C764 C 0.26127 0.26892 0.6487 0.0
H765 H 0.26666 0.4369 0.63953 0.0
H766 H 0.30258 0.33675 0.63821 0.0
C767 C 0.22574 0.26482 0.65424 0.0
C768 C 0.96072 0.05252 0.16982 0.0
C769 C 0.94811 0.05808 0.14519 0.0
H770 H 0.00347 0.02747 0.19347 0.0
C771 C 0.9706 0.04631 0.1249 0.0
H772 H 0.94342 0.05892 0.18572 0.0
C773 C 0.00527 0.029 0.12921 0.0
C774 C 0.01787 0.02145 0.15394 0.0
H775 H 0.96103 0.04869 0.10574 0.0
H776 H 0.02208 0.02146 0.11314 0.0
C777 C -0.00491 0.03383 0.17417 0.0
C778 C 0.0155 0.0575 0.89265 0.0
C779 C 0.02951 0.05957 0.91691 0.0
H780 H 0.97048 0.04378 0.87008 0.0
C781 C 0.00767 0.05177 0.93784 0.0
H782 H 0.03224 0.06075 0.87628 0.0
C783 C 0.9719 0.04256 0.93439 0.0
C784 C 0.95787 0.03982 0.90994 0.0
H785 H 0.01839 0.05089 0.95669 0.0
H786 H 0.9553 0.03782 0.95075 0.0
C787 C 0.98021 0.04705 0.88917 0.0
C788 C 0.97128 0.54223 0.61337 0.0
C789 C 0.95545 0.5447 0.63722 0.0
H790 H 0.0195 0.53497 0.59297 0.0
C791 C 0.97623 0.53852 0.65886 0.0
H792 H 0.95584 0.54626 0.5964 0.0
C793 C 0.01178 0.52917 0.65682 0.0
C794 C 0.02766 0.52729 0.63316 0.0
H795 H 0.965 0.54145 0.67752 0.0
H796 H 0.02723 0.5265 0.67386 0.0
C797 C 0.00736 0.53402 0.61136 0.0
C798 C 0.97447 0.53358 0.37149 0.0
C799 C 0.95714 0.5271 0.39462 0.0
H800 H 0.02012 0.56227 0.35215 0.0
C801 C 0.97587 0.53746 0.41699 0.0
H802 H 0.96112 0.5248 0.35385 0.0
C803 C 0.011 0.55575 0.41605 0.0
C804 C 0.02776 0.56523 0.39272 0.0
H805 H 0.96322 0.53344 0.43512 0.0
H806 H 0.02492 0.56217 0.43358 0.0
C807 C 0.00874 0.55434 0.37053 0.0
C808 C 0.46879 0.05776 0.63501 0.0
C809 C 0.45261 0.06466 0.65868 0.0
H810 H 0.51577 0.036 0.6149 0.0
C811 C 0.47204 0.04995 0.68038 0.0
H812 H 0.45462 0.06716 0.61779 0.0
C813 C 0.506 0.02755 0.67858 0.0
C814 C 0.52278 0.02334 0.65514 0.0
H815 H 0.46124 0.05587 0.69904 0.0
H816 H 0.51944 1.01524 0.69586 0.0
C817 C 0.50366 0.03803 0.63328 0.0
C818 C 0.47614 0.02249 0.43105 0.0
C819 C 0.45451 0.02083 0.40983 0.0
H820 H 0.52821 0.03386 0.44478 0.0
C821 C 0.46894 0.02851 0.38581 0.0
H822 H 0.46521 1.0186 0.44978 0.0
C823 C 0.50429 0.03985 0.38295 0.0
C824 C 0.52625 0.04274 0.40407 0.0
H825 H 0.45243 0.02946 0.36928 0.0
H826 H 0.51424 0.04816 0.36415 0.0
C827 C 0.5119 0.03298 0.42818 0.0
C828 C 0.50317 0.54305 0.11783 0.0
C829 C 0.51713 0.52635 0.14151 0.0
H830 H 0.45696 0.56629 0.09675 0.0
C831 C 0.49495 0.5249 0.16254 0.0
H832 H 0.51962 0.54554 0.10133 0.0
C833 C 0.45986 0.53934 0.16002 0.0
C834 C 0.44584 0.55453 0.1364 0.0
H835 H 0.50455 0.51112 0.18097 0.0
H836 H 0.44318 0.53535 0.1764 0.0
C837 C 0.46762 0.55661 0.11526 0.0
C838 C 0.47455 0.53118 0.86915 0.0
C839 C 0.45565 0.51727 0.89116 0.0
H840 H 0.52152 0.56531 0.85288 0.0
C841 C 0.47256 0.52393 0.91456 0.0
H842 H 0.46312 0.52534 0.85067 0.0
C843 C 0.50754 0.54315 0.91573 0.0
C844 C 0.52608 0.55761 0.89357 0.0
H845 H 0.45883 0.51499 0.93201 0.0
H846 H 0.52014 0.54524 0.93393 0.0
C847 C 0.50864 0.55313 0.87039 0.0
C848 C 0.16963 0.06329 1.01441 0.0
C849 C 0.18483 1.00247 1.00767 0.0
H850 H 0.15244 0.12699 0.0441 0.0
C851 C 0.19622 0.96032 0.02722 0.0
H852 H 0.16053 0.09713 1.00004 0.0
C853 C 0.19111 0.97687 0.05261 0.0
C854 C 0.17455 0.03637 0.05941 0.0
H855 H 0.20873 0.91366 1.02294 0.0
H856 H 0.19927 0.94183 0.06684 0.0
C857 C 0.16459 0.07999 0.03986 0.0
C858 C 0.80744 0.11373 1.01695 0.0
C859 C 0.79603 0.07451 0.99649 0.0
H860 H 0.81349 0.12277 0.05696 0.0
C861 C 0.77873 1.01481 1.00203 0.0
H862 H 0.82022 0.16071 1.01388 0.0
C863 C 0.77432 0.99381 0.02694 0.0
C864 C 0.78728 0.03131 0.04725 0.0
H865 H 0.76915 0.98298 0.98722 0.0
H866 H 0.76105 0.94732 0.03018 0.0
C867 C 0.80322 0.09236 0.04193 0.0
C868 C 0.17426 0.52397 0.53951 0.0
C869 C 0.18643 0.58696 0.54659 0.0
H870 H 0.16135 0.45802 0.50937 0.0
C871 C 0.19696 0.63094 0.52741 0.0
H872 H 0.1659 0.48874 0.55362 0.0
C873 C 0.19392 0.61377 0.50193 0.0
C874 C 0.18032 0.5519 0.49476 0.0
H875 H 0.20715 0.67941 0.53203 0.0
H876 H 0.20121 0.65006 0.4879 0.0
C877 C 0.17126 0.5067 0.51398 0.0
C878 C 0.80479 0.59825 0.5168 0.0
C879 C 0.80235 0.55115 0.49726 0.0
H880 H 0.80634 0.6162 0.55659 0.0
C881 C 0.79717 0.48434 0.50381 0.0
H882 H 0.80829 0.65027 0.51251 0.0
C883 C 0.79589 0.46488 0.52915 0.0
C884 C 0.79954 0.51165 0.54869 0.0
H885 H 0.79532 0.44661 0.48939 0.0
H886 H 0.79248 0.41283 0.53344 0.0
C887 C 0.8033 0.57882 0.54215 0.0
C888 C 0.67649 0.09809 0.53003 0.0
C889 C 0.67658 0.0487 0.54882 0.0
H890 H 0.67626 0.12036 0.49048 0.0
C891 C 0.67883 0.98205 0.54127 0.0
H892 H 0.67516 0.14995 0.53517 0.0
C893 C 0.67932 0.96515 0.51565 0.0
C894 C 0.67804 1.01443 0.49685 0.0
H895 H 0.67877 0.94277 0.55516 0.0
H896 H 0.68014 0.91325 0.5105 0.0
C897 C 0.67744 0.08121 0.50439 0.0
C898 C 0.30705 0.02215 0.51331 0.0
C899 C 0.29671 0.08593 0.50575 0.0
H900 H 0.31793 0.95642 0.54398 0.0
C901 C 0.2871 0.13164 0.52463 0.0
H902 H 0.31463 0.98562 0.49944 0.0
C903 C 0.2893 0.11525 0.55026 0.0
C904 C 0.30122 0.05254 0.5579 0.0
H905 H 0.27832 0.18086 0.51964 0.0
H906 H 0.2828 0.15269 0.56406 0.0
C907 C 0.30932 1.00573 0.53899 0.0
C908 C 0.67715 0.4883 0.0423 0.0
C909 C 0.67766 0.55423 0.05085 0.0
H910 H 0.67597 0.4228 1.01051 0.0
C911 C 0.68017 0.60534 0.03282 0.0
H912 H 0.67508 0.44777 0.05558 0.0
C913 C 0.68073 0.5911 1.00695 0.0
C914 C 0.6784 0.52535 0.99836 0.0
H915 H 0.68103 0.65667 0.03873 0.0
H916 H 0.68147 0.63177 0.99367 0.0
C917 C 0.67732 0.47409 1.01642 0.0
C918 C 0.28077 0.47944 1.00027 0.0
C919 C 0.29918 0.53673 0.99324 0.0
H920 H 0.26123 0.41919 0.03015 0.0
C921 C 0.31058 0.57964 1.0126 0.0
H922 H 0.27142 0.44501 0.98622 0.0
C923 C 0.30515 0.56414 0.0381 0.0
C924 C 0.28806 0.50535 0.04505 0.0
H925 H 0.32419 0.62505 1.00819 0.0
H926 H 0.3154 0.59715 0.05233 0.0
C927 C 0.27522 0.46419 0.0257 0.0
loop_
_geom_bond_atom_site_label_1
_geom_bond_atom_site_label_2
_geom_bond_distance
_geom_bond_site_symmetry_2
_ccdc_geom_bond_type
C0 C1 1.351 . S
C0 N3 1.368 . S
C0 H5 0.931 . S
C1 C0 1.351 . S
C1 N2 1.373 . S
C1 H29 0.930 . S
N2 C1 1.373 . S
N2 C4 1.340 . S
N3 C0 1.368 . S
N3 C4 1.321 . S
N3 Co6 2.135 . S
C4 N2 1.340 . S
C4 N3 1.321 . S
C4 H28 0.930 1_545 S
H5 C0 0.931 . S
Co6 N3 2.135 . S
Co6 N9 2.121 . S
Co6 O14 2.055 . S
Co6 O17 2.039 1_545 S
Co6 N20 2.140 . S
C7 O8 1.227 . S
C7 O17 1.265 . S
O8 C7 1.227 . S
N9 Co6 2.121 . S
N9 C11 1.375 1_545 S
N9 C12 1.313 . S
C10 C11 1.338 . S
C10 N13 1.377 1_565 S
C10 H30 0.930 . S
C11 N9 1.375 1_565 S
C11 C10 1.338 . S
C11 H15 0.931 . S
C12 N9 1.313 . S
C12 N13 1.344 . S
C12 H16 0.930 . S
N13 C10 1.377 1_545 S
N13 C12 1.344 . S
O14 Co6 2.055 . S
O14 C18 1.253 . S
H15 C11 0.931 . S
H16 C12 0.930 . S
O17 Co6 2.039 1_565 S
O17 C7 1.265 . S
C18 O14 1.253 . S
C18 O19 1.227 . S
O19 C18 1.227 . S
N20 Co6 2.140 . S
N20 C23 1.346 1_545 S
N20 C24 1.345 . S
C21 C22 1.387 1_545 S
C21 C25 1.391 . S
C22 C21 1.387 1_565 S
C22 C23 1.369 . S
C22 H31 0.929 . S
C23 N20 1.346 1_565 S
C23 C22 1.369 . S
C23 H26 0.928 . S
C24 N20 1.345 . S
C24 C25 1.371 . S
C24 H27 0.931 . S
C25 C21 1.391 . S
C25 C24 1.371 . S
C25 H32 0.930 . S
H26 C23 0.928 . S
H27 C24 0.931 . S
H28 C4 0.930 1_565 S
H29 C1 0.930 . S
H30 C10 0.930 . S
H31 C22 0.929 . S
H32 C25 0.930 . S
C33 C34 1.351 . S
C33 N36 1.368 . S
C33 H38 0.931 . S
C34 C33 1.351 . S
C34 N35 1.373 1_565 S
C34 H62 0.930 . S
N35 C34 1.373 1_545 S
N35 C37 1.340 . S
N36 C33 1.368 . S
N36 C37 1.321 1_565 S
N36 Co39 2.135 1_565 S
C37 N35 1.340 . S
C37 N36 1.321 1_545 S
C37 H61 0.930 . S
H38 C33 0.931 . S
Co39 N36 2.135 1_545 S
Co39 N42 2.121 . S
Co39 O47 2.055 1_545 S
Co39 O50 2.039 . S
Co39 N53 2.140 . S
C40 O41 1.227 . S
C40 O50 1.265 . S
O41 C40 1.227 . S
N42 Co39 2.121 . S
N42 C44 1.375 . S
N42 C45 1.313 1_545 S
C43 C44 1.338 . S
C43 N46 1.377 . S
C43 H63 0.930 . S
C44 N42 1.375 . S
C44 C43 1.338 . S
C44 H48 0.931 . S
C45 N42 1.313 1_565 S
C45 N46 1.344 1_565 S
C45 H49 0.930 . S
N46 C43 1.377 . S
N46 C45 1.344 1_545 S
O47 Co39 2.055 1_565 S
O47 C51 1.253 . S
H48 C44 0.931 . S
H49 C45 0.930 . S
O50 Co39 2.039 . S
O50 C40 1.265 . S
C51 O47 1.253 . S
C51 O52 1.227 . S
O52 C51 1.227 . S
N53 Co39 2.140 . S
N53 C56 1.346 . S
N53 C57 1.345 1_545 S
C54 C55 1.387 . S
C54 C58 1.391 1_545 S
C55 C54 1.387 . S
C55 C56 1.369 . S
C55 H64 0.929 . S
C56 N53 1.346 . S
C56 C55 1.369 . S
C56 H59 0.928 . S
C57 N53 1.345 1_565 S
C57 C58 1.371 . S
C57 H60 0.931 . S
C58 C54 1.391 1_565 S
C58 C57 1.371 . S
C58 H65 0.930 . S
H59 C56 0.928 . S
H60 C57 0.931 . S
H61 C37 0.930 . S
H62 C34 0.930 . S
H63 C43 0.930 . S
H64 C55 0.929 . S
H65 C58 0.930 . S
C66 C67 1.351 . S
C66 N69 1.368 . S
C66 H71 0.931 . S
C67 C66 1.351 . S
C67 N68 1.373 1_565 S
C67 H95 0.930 . S
N68 C67 1.373 1_545 S
N68 C70 1.340 . S
N69 C66 1.368 . S
N69 C70 1.321 1_565 S
N69 Co72 2.135 1_565 S
C70 N68 1.340 . S
C70 N69 1.321 1_545 S
C70 H94 0.930 . S
H71 C66 0.931 . S
Co72 N69 2.135 1_545 S
Co72 N75 2.121 . S
Co72 O80 2.055 1_545 S
Co72 O83 2.039 . S
Co72 N86 2.140 . S
C73 O74 1.227 . S
C73 O83 1.265 . S
O74 C73 1.227 . S
N75 Co72 2.121 . S
N75 C77 1.375 . S
N75 C78 1.313 1_545 S
C76 C77 1.338 . S
C76 N79 1.377 . S
C76 H96 0.930 . S
C77 N75 1.375 . S
C77 C76 1.338 . S
C77 H81 0.931 . S
C78 N75 1.313 1_565 S
C78 N79 1.344 1_565 S
C78 H82 0.930 . S
N79 C76 1.377 . S
N79 C78 1.344 1_545 S
O80 Co72 2.055 1_565 S
O80 C84 1.253 . S
H81 C77 0.931 . S
H82 C78 0.930 . S
O83 Co72 2.039 . S
O83 C73 1.265 . S
C84 O80 1.253 . S
C84 O85 1.227 . S
O85 C84 1.227 . S
N86 Co72 2.140 . S
N86 C89 1.346 . S
N86 C90 1.345 1_545 S
C87 C88 1.387 . S
C87 C91 1.391 1_545 S
C88 C87 1.387 . S
C88 C89 1.369 . S
C88 H97 0.929 . S
C89 N86 1.346 . S
C89 C88 1.369 . S
C89 H92 0.928 . S
C90 N86 1.345 1_565 S
C90 C91 1.371 . S
C90 H93 0.931 . S
C91 C87 1.391 1_565 S
C91 C90 1.371 . S
C91 H98 0.930 . S
H92 C89 0.928 . S
H93 C90 0.931 . S
H94 C70 0.930 . S
H95 C67 0.930 . S
H96 C76 0.930 . S
H97 C88 0.929 . S
H98 C91 0.930 . S
C99 C100 1.351 . S
C99 N102 1.368 . S
C99 H104 0.931 . S
C100 C99 1.351 . S
C100 N101 1.373 . S
C100 H128 0.930 . S
N101 C100 1.373 . S
N101 C103 1.340 . S
N102 C99 1.368 . S
N102 C103 1.321 . S
N102 Co105 2.135 . S
C103 N101 1.340 . S
C103 N102 1.321 . S
C103 H127 0.930 1_545 S
H104 C99 0.931 . S
Co105 N102 2.135 . S
Co105 N108 2.121 . S
Co105 O113 2.055 . S
Co105 O116 2.039 1_545 S
Co105 N119 2.140 . S
C106 O107 1.227 . S
C106 O116 1.265 . S
O107 C106 1.227 . S
N108 Co105 2.121 . S
N108 C110 1.375 1_545 S
N108 C111 1.313 . S
C109 C110 1.338 . S
C109 N112 1.377 1_565 S
C109 H129 0.930 . S
C110 N108 1.375 1_565 S
C110 C109 1.338 . S
C110 H114 0.931 . S
C111 N108 1.313 . S
C111 N112 1.344 . S
C111 H115 0.930 . S
N112 C109 1.377 1_545 S
N112 C111 1.344 . S
O113 Co105 2.055 . S
O113 C117 1.253 . S
H114 C110 0.931 . S
H115 C111 0.930 . S
O116 Co105 2.039 1_565 S
O116 C106 1.265 . S
C117 O113 1.253 . S
C117 O118 1.227 . S
O118 C117 1.227 . S
N119 Co105 2.140 . S
N119 C122 1.346 1_545 S
N119 C123 1.345 . S
C120 C121 1.387 1_545 S
C120 C124 1.391 . S
C121 C120 1.387 1_565 S
C121 C122 1.369 . S
C121 H130 0.929 . S
C122 N119 1.346 1_565 S
C122 C121 1.369 . S
C122 H125 0.928 . S
C123 N119 1.345 . S
C123 C124 1.371 . S
C123 H126 0.931 . S
C124 C120 1.391 . S
C124 C123 1.371 . S
C124 H131 0.930 . S
H125 C122 0.928 . S
H126 C123 0.931 . S
H127 C103 0.930 1_565 S
H128 C100 0.930 . S
H129 C109 0.930 . S
H130 C121 0.929 . S
H131 C124 0.930 . S
C132 C133 1.351 . S
C132 N135 1.368 . S
C132 H137 0.931 . S
C133 C132 1.351 . S
C133 N134 1.373 . S
C133 H161 0.930 . S
N134 C133 1.373 . S
N134 C136 1.340 . S
N135 C132 1.368 . S
N135 C136 1.321 . S
N135 Co138 2.135 . S
C136 N134 1.340 . S
C136 N135 1.321 . S
C136 H160 0.930 . S
H137 C132 0.931 . S
Co138 N135 2.135 . S
Co138 N141 2.121 . S
Co138 O146 2.055 . S
Co138 O149 2.039 . S
Co138 N152 2.140 . S
C139 O140 1.227 . S
C139 O149 1.265 . S
O140 C139 1.227 . S
N141 Co138 2.121 . S
N141 C143 1.375 . S
N141 C144 1.313 . S
C142 C143 1.338 . S
C142 N145 1.377 . S
C142 H162 0.930 . S
C143 N141 1.375 . S
C143 C142 1.338 . S
C143 H147 0.931 . S
C144 N141 1.313 . S
C144 N145 1.344 . S
C144 H148 0.930 . S
N145 C142 1.377 . S
N145 C144 1.344 . S
O146 Co138 2.055 . S
O146 C150 1.253 . S
H147 C143 0.931 . S
H148 C144 0.930 . S
O149 Co138 2.039 . S
O149 C139 1.265 . S
C150 O146 1.253 . S
C150 O151 1.227 . S
O151 C150 1.227 . S
N152 Co138 2.140 . S
N152 C155 1.346 . S
N152 C156 1.345 . S
C153 C154 1.387 . S
C153 C157 1.391 . S
C154 C153 1.387 . S
C154 C155 1.369 . S
C154 H163 0.929 . S
C155 N152 1.346 . S
C155 C154 1.369 . S
C155 H158 0.928 . S
C156 N152 1.345 . S
C156 C157 1.371 . S
C156 H159 0.931 . S
C157 C153 1.391 . S
C157 C156 1.371 . S
C157 H164 0.930 . S
H158 C155 0.928 . S
H159 C156 0.931 . S
H160 C136 0.930 . S
H161 C133 0.930 . S
H162 C142 0.930 . S
H163 C154 0.929 . S
H164 C157 0.930 . S
C165 C166 1.351 . S
C165 N168 1.368 . S
C165 H170 0.931 . S
C166 C165 1.351 . S
C166 N167 1.373 . S
C166 H194 0.930 . S
N167 C166 1.373 . S
N167 C169 1.340 . S
N168 C165 1.368 . S
N168 C169 1.321 . S
N168 Co171 2.135 . S
C169 N167 1.340 . S
C169 N168 1.321 . S
C169 H193 0.930 . S
H170 C165 0.931 . S
Co171 N168 2.135 . S
Co171 N174 2.121 . S
Co171 O179 2.055 . S
Co171 O182 2.039 . S
Co171 N185 2.140 . S
C172 O173 1.227 . S
C172 O182 1.265 . S
O173 C172 1.227 . S
N174 Co171 2.121 . S
N174 C176 1.375 . S
N174 C177 1.313 . S
C175 C176 1.338 . S
C175 N178 1.377 . S
C175 H195 0.930 . S
C176 N174 1.375 . S
C176 C175 1.338 . S
C176 H180 0.931 . S
C177 N174 1.313 . S
C177 N178 1.344 . S
C177 H181 0.930 . S
N178 C175 1.377 . S
N178 C177 1.344 . S
O179 Co171 2.055 . S
O179 C183 1.253 . S
H180 C176 0.931 . S
H181 C177 0.930 . S
O182 Co171 2.039 . S
O182 C172 1.265 . S
C183 O179 1.253 . S
C183 O184 1.227 . S
O184 C183 1.227 . S
N185 Co171 2.140 . S
N185 C188 1.346 . S
N185 C189 1.345 . S
C186 C187 1.387 . S
C186 C190 1.391 . S
C187 C186 1.387 . S
C187 C188 1.369 . S
C187 H196 0.929 . S
C188 N185 1.346 . S
C188 C187 1.369 . S
C188 H191 0.928 . S
C189 N185 1.345 . S
C189 C190 1.371 . S
C189 H192 0.931 . S
C190 C186 1.391 . S
C190 C189 1.371 . S
C190 H197 0.930 . S
H191 C188 0.928 . S
H192 C189 0.931 . S
H193 C169 0.930 . S
H194 C166 0.930 . S
H195 C175 0.930 . S
H196 C187 0.929 . S
H197 C190 0.930 . S
C198 C199 1.351 . S
C198 N201 1.368 . S
C198 H203 0.931 . S
C199 C198 1.351 . S
C199 N200 1.373 . S
C199 H227 0.930 . S
N200 C199 1.373 . S
N200 C202 1.340 . S
N201 C198 1.368 . S
N201 C202 1.321 . S
N201 Co204 2.135 . S
C202 N200 1.340 . S
C202 N201 1.321 . S
C202 H226 0.930 . S
H203 C198 0.931 . S
Co204 N201 2.135 . S
Co204 N207 2.121 . S
Co204 O212 2.055 . S
Co204 O215 2.039 . S
Co204 N218 2.140 . S
C205 O206 1.227 . S
C205 O215 1.265 . S
O206 C205 1.227 . S
N207 Co204 2.121 . S
N207 C209 1.375 . S
N207 C210 1.313 . S
C208 C209 1.338 . S
C208 N211 1.377 . S
C208 H228 0.930 . S
C209 N207 1.375 . S
C209 C208 1.338 . S
C209 H213 0.931 . S
C210 N207 1.313 . S
C210 N211 1.344 . S
C210 H214 0.930 . S
N211 C208 1.377 . S
N211 C210 1.344 . S
O212 Co204 2.055 . S
O212 C216 1.253 . S
H213 C209 0.931 . S
H214 C210 0.930 . S
O215 Co204 2.039 . S
O215 C205 1.265 . S
C216 O212 1.253 . S
C216 O217 1.227 . S
O217 C216 1.227 . S
N218 Co204 2.140 . S
N218 C221 1.346 . S
N218 C222 1.345 . S
C219 C220 1.387 . S
C219 C223 1.391 . S
C220 C219 1.387 . S
C220 C221 1.369 . S
C220 H229 0.929 . S
C221 N218 1.346 . S
C221 C220 1.369 . S
C221 H224 0.928 . S
C222 N218 1.345 . S
C222 C223 1.371 . S
C222 H225 0.931 . S
C223 C219 1.391 . S
C223 C222 1.371 . S
C223 H230 0.930 . S
H224 C221 0.928 . S
H225 C222 0.931 . S
H226 C202 0.930 . S
H227 C199 0.930 . S
H228 C208 0.930 . S
H229 C220 0.929 . S
H230 C223 0.930 . S
C231 C232 1.351 . S
C231 N234 1.368 . S
C231 H236 0.931 . S
C232 C231 1.351 . S
C232 N233 1.373 . S
C232 H260 0.930 . S
N233 C232 1.373 . S
N233 C235 1.340 . S
N234 C231 1.368 . S
N234 C235 1.321 . S
N234 Co237 2.135 . S
C235 N233 1.340 . S
C235 N234 1.321 . S
C235 H259 0.930 . S
H236 C231 0.931 . S
Co237 N234 2.135 . S
Co237 N240 2.121 . S
Co237 O245 2.055 . S
Co237 O248 2.039 . S
Co237 N251 2.140 . S
C238 O239 1.227 . S
C238 O248 1.265 . S
O239 C238 1.227 . S
N240 Co237 2.121 . S
N240 C242 1.375 . S
N240 C243 1.313 . S
C241 C242 1.338 . S
C241 N244 1.377 . S
C241 H261 0.930 . S
C242 N240 1.375 . S
C242 C241 1.338 . S
C242 H246 0.931 . S
C243 N240 1.313 . S
C243 N244 1.344 . S
C243 H247 0.930 . S
N244 C241 1.377 . S
N244 C243 1.344 . S
O245 Co237 2.055 . S
O245 C249 1.253 . S
H246 C242 0.931 . S
H247 C243 0.930 . S
O248 Co237 2.039 . S
O248 C238 1.265 . S
C249 O245 1.253 . S
C249 O250 1.227 . S
O250 C249 1.227 . S
N251 Co237 2.140 . S
N251 C254 1.346 . S
N251 C255 1.345 . S
C252 C253 1.387 . S
C252 C256 1.391 . S
C253 C252 1.387 . S
C253 C254 1.369 . S
C253 H262 0.929 . S
C254 N251 1.346 . S
C254 C253 1.369 . S
C254 H257 0.928 . S
C255 N251 1.345 . S
C255 C256 1.371 . S
C255 H258 0.931 . S
C256 C252 1.391 . S
C256 C255 1.371 . S
C256 H263 0.930 . S
H257 C254 0.928 . S
H258 C255 0.931 . S
H259 C235 0.930 . S
H260 C232 0.930 . S
H261 C241 0.930 . S
H262 C253 0.929 . S
H263 C256 0.930 . S
C264 C265 1.351 . S
C264 N267 1.368 . S
C264 H269 0.931 . S
C265 C264 1.351 . S
C265 N266 1.373 . S
C265 H293 0.930 . S
N266 C265 1.373 . S
N266 C268 1.340 . S
N267 C264 1.368 . S
N267 C268 1.321 . S
N267 Co270 2.135 . S
C268 N266 1.340 . S
C268 N267 1.321 . S
C268 H292 0.930 1_545 S
H269 C264 0.931 . S
Co270 N267 2.135 . S
Co270 N273 2.121 . S
Co270 O278 2.055 . S
Co270 O281 2.039 1_545 S
Co270 N284 2.140 . S
C271 O272 1.227 . S
C271 O281 1.265 . S
O272 C271 1.227 . S
N273 Co270 2.121 . S
N273 C275 1.375 1_545 S
N273 C276 1.313 . S
C274 C275 1.338 . S
C274 N277 1.377 1_565 S
C274 H294 0.930 . S
C275 N273 1.375 1_565 S
C275 C274 1.338 . S
C275 H279 0.931 . S
C276 N273 1.313 . S
C276 N277 1.344 . S
C276 H280 0.930 . S
N277 C274 1.377 1_545 S
N277 C276 1.344 . S
O278 Co270 2.055 . S
O278 C282 1.253 . S
H279 C275 0.931 . S
H280 C276 0.930 . S
O281 Co270 2.039 1_565 S
O281 C271 1.265 . S
C282 O278 1.253 . S
C282 O283 1.227 . S
O283 C282 1.227 . S
N284 Co270 2.140 . S
N284 C287 1.346 1_545 S
N284 C288 1.345 . S
C285 C286 1.387 1_545 S
C285 C289 1.391 . S
C286 C285 1.387 1_565 S
C286 C287 1.369 . S
C286 H295 0.929 . S
C287 N284 1.346 1_565 S
C287 C286 1.369 . S
C287 H290 0.928 . S
C288 N284 1.345 . S
C288 C289 1.371 . S
C288 H291 0.931 . S
C289 C285 1.391 . S
C289 C288 1.371 . S
C289 H296 0.930 . S
H290 C287 0.928 . S
H291 C288 0.931 . S
H292 C268 0.930 1_565 S
H293 C265 0.930 . S
H294 C274 0.930 . S
H295 C286 0.929 . S
H296 C289 0.930 . S
C297 C298 1.351 . S
C297 N300 1.368 . S
C297 H302 0.931 . S
C298 C297 1.351 . S
C298 N299 1.373 1_565 S
C298 H326 0.930 . S
N299 C298 1.373 1_545 S
N299 C301 1.340 . S
N300 C297 1.368 . S
N300 C301 1.321 1_565 S
N300 Co303 2.135 1_565 S
C301 N299 1.340 . S
C301 N300 1.321 1_545 S
C301 H325 0.930 . S
H302 C297 0.931 . S
Co303 N300 2.135 1_545 S
Co303 N306 2.121 . S
Co303 O311 2.055 1_545 S
Co303 O314 2.039 . S
Co303 N317 2.140 . S
C304 O305 1.227 . S
C304 O314 1.265 . S
O305 C304 1.227 . S
N306 Co303 2.121 . S
N306 C308 1.375 . S
N306 C309 1.313 1_545 S
C307 C308 1.338 . S
C307 N310 1.377 . S
C307 H327 0.930 . S
C308 N306 1.375 . S
C308 C307 1.338 . S
C308 H312 0.931 . S
C309 N306 1.313 1_565 S
C309 N310 1.344 1_565 S
C309 H313 0.930 . S
N310 C307 1.377 . S
N310 C309 1.344 1_545 S
O311 Co303 2.055 1_565 S
O311 C315 1.253 . S
H312 C308 0.931 . S
H313 C309 0.930 . S
O314 Co303 2.039 . S
O314 C304 1.265 . S
C315 O311 1.253 . S
C315 O316 1.227 . S
O316 C315 1.227 . S
N317 Co303 2.140 . S
N317 C320 1.346 . S
N317 C321 1.345 1_545 S
C318 C319 1.387 . S
C318 C322 1.391 1_545 S
C319 C318 1.387 . S
C319 C320 1.369 . S
C319 H328 0.929 . S
C320 N317 1.346 . S
C320 C319 1.369 . S
C320 H323 0.928 . S
C321 N317 1.345 1_565 S
C321 C322 1.371 . S
C321 H324 0.931 . S
C322 C318 1.391 1_565 S
C322 C321 1.371 . S
C322 H329 0.930 . S
H323 C320 0.928 . S
H324 C321 0.931 . S
H325 C301 0.930 . S
H326 C298 0.930 . S
H327 C307 0.930 . S
H328 C319 0.929 . S
H329 C322 0.930 . S
C330 C331 1.351 . S
C330 N333 1.368 . S
C330 H335 0.931 . S
C331 C330 1.351 . S
C331 N332 1.373 1_565 S
C331 H359 0.930 . S
N332 C331 1.373 1_545 S
N332 C334 1.340 . S
N333 C330 1.368 . S
N333 C334 1.321 1_565 S
N333 Co336 2.135 1_565 S
C334 N332 1.340 . S
C334 N333 1.321 1_545 S
C334 H358 0.930 . S
H335 C330 0.931 . S
Co336 N333 2.135 1_545 S
Co336 N339 2.121 . S
Co336 O344 2.055 1_545 S
Co336 O347 2.039 . S
Co336 N350 2.140 . S
C337 O338 1.227 . S
C337 O347 1.265 . S
O338 C337 1.227 . S
N339 Co336 2.121 . S
N339 C341 1.375 . S
N339 C342 1.313 1_545 S
C340 C341 1.338 . S
C340 N343 1.377 . S
C340 H360 0.930 . S
C341 N339 1.375 . S
C341 C340 1.338 . S
C341 H345 0.931 . S
C342 N339 1.313 1_565 S
C342 N343 1.344 1_565 S
C342 H346 0.930 . S
N343 C340 1.377 . S
N343 C342 1.344 1_545 S
O344 Co336 2.055 1_565 S
O344 C348 1.253 . S
H345 C341 0.931 . S
H346 C342 0.930 . S
O347 Co336 2.039 . S
O347 C337 1.265 . S
C348 O344 1.253 . S
C348 O349 1.227 . S
O349 C348 1.227 . S
N350 Co336 2.140 . S
N350 C353 1.346 . S
N350 C354 1.345 1_545 S
C351 C352 1.387 . S
C351 C355 1.391 1_545 S
C352 C351 1.387 . S
C352 C353 1.369 . S
C352 H361 0.929 . S
C353 N350 1.346 . S
C353 C352 1.369 . S
C353 H356 0.928 . S
C354 N350 1.345 1_565 S
C354 C355 1.371 . S
C354 H357 0.931 . S
C355 C351 1.391 1_565 S
C355 C354 1.371 . S
C355 H362 0.930 . S
H356 C353 0.928 . S
H357 C354 0.931 . S
H358 C334 0.930 . S
H359 C331 0.930 . S
H360 C340 0.930 . S
H361 C352 0.929 . S
H362 C355 0.930 . S
C363 C364 1.351 . S
C363 N366 1.368 . S
C363 H368 0.931 . S
C364 C363 1.351 . S
C364 N365 1.373 . S
C364 H392 0.930 . S
N365 C364 1.373 . S
N365 C367 1.340 . S
N366 C363 1.368 . S
N366 C367 1.321 . S
N366 Co369 2.135 . S
C367 N365 1.340 . S
C367 N366 1.321 . S
C367 H391 0.930 1_545 S
H368 C363 0.931 . S
Co369 N366 2.135 . S
Co369 N372 2.121 . S
Co369 O377 2.055 . S
Co369 O380 2.039 1_545 S
Co369 N383 2.140 . S
C370 O371 1.227 . S
C370 O380 1.265 . S
O371 C370 1.227 . S
N372 Co369 2.121 . S
N372 C374 1.375 1_545 S
N372 C375 1.313 . S
C373 C374 1.338 . S
C373 N376 1.377 1_565 S
C373 H393 0.930 . S
C374 N372 1.375 1_565 S
C374 C373 1.338 . S
C374 H378 0.931 . S
C375 N372 1.313 . S
C375 N376 1.344 . S
C375 H379 0.930 . S
N376 C373 1.377 1_545 S
N376 C375 1.344 . S
O377 Co369 2.055 . S
O377 C381 1.253 . S
H378 C374 0.931 . S
H379 C375 0.930 . S
O380 Co369 2.039 1_565 S
O380 C370 1.265 . S
C381 O377 1.253 . S
C381 O382 1.227 . S
O382 C381 1.227 . S
N383 Co369 2.140 . S
N383 C386 1.346 1_545 S
N383 C387 1.345 . S
C384 C385 1.387 1_545 S
C384 C388 1.391 . S
C385 C384 1.387 1_565 S
C385 C386 1.369 . S
C385 H394 0.929 . S
C386 N383 1.346 1_565 S
C386 C385 1.369 . S
C386 H389 0.928 . S
C387 N383 1.345 . S
C387 C388 1.371 . S
C387 H390 0.931 . S
C388 C384 1.391 . S
C388 C387 1.371 . S
C388 H395 0.930 . S
H389 C386 0.928 . S
H390 C387 0.931 . S
H391 C367 0.930 1_565 S
H392 C364 0.930 . S
H393 C373 0.930 . S
H394 C385 0.929 . S
H395 C388 0.930 . S
C396 C397 1.351 . S
C396 N399 1.368 . S
C396 H401 0.931 . S
C397 C396 1.351 . S
C397 N398 1.373 . S
C397 H425 0.930 . S
N398 C397 1.373 . S
N398 C400 1.340 . S
N399 C396 1.368 . S
N399 C400 1.321 . S
N399 Co402 2.135 . S
C400 N398 1.340 . S
C400 N399 1.321 . S
C400 H424 0.930 . S
H401 C396 0.931 . S
Co402 N399 2.135 . S
Co402 N405 2.121 . S
Co402 O410 2.055 . S
Co402 O413 2.039 . S
Co402 N416 2.140 . S
C403 O404 1.227 . S
C403 O413 1.265 . S
O404 C403 1.227 . S
N405 Co402 2.121 . S
N405 C407 1.375 . S
N405 C408 1.313 . S
C406 C407 1.338 . S
C406 N409 1.377 . S
C406 H426 0.930 . S
C407 N405 1.375 . S
C407 C406 1.338 . S
C407 H411 0.931 . S
C408 N405 1.313 . S
C408 N409 1.344 . S
C408 H412 0.930 . S
N409 C406 1.377 . S
N409 C408 1.344 . S
O410 Co402 2.055 . S
O410 C414 1.253 . S
H411 C407 0.931 . S
H412 C408 0.930 . S
O413 Co402 2.039 . S
O413 C403 1.265 . S
C414 O410 1.253 . S
C414 O415 1.227 . S
O415 C414 1.227 . S
N416 Co402 2.140 . S
N416 C419 1.346 . S
N416 C420 1.345 . S
C417 C418 1.387 . S
C417 C421 1.391 . S
C418 C417 1.387 . S
C418 C419 1.369 . S
C418 H427 0.929 . S
C419 N416 1.346 . S
C419 C418 1.369 . S
C419 H422 0.928 . S
C420 N416 1.345 . S
C420 C421 1.371 . S
C420 H423 0.931 . S
C421 C417 1.391 . S
C421 C420 1.371 . S
C421 H428 0.930 . S
H422 C419 0.928 . S
H423 C420 0.931 . S
H424 C400 0.930 . S
H425 C397 0.930 . S
H426 C406 0.930 . S
H427 C418 0.929 . S
H428 C421 0.930 . S
C429 C430 1.351 . S
C429 N432 1.368 . S
C429 H434 0.931 . S
C430 C429 1.351 . S
C430 N431 1.373 . S
C430 H458 0.930 . S
N431 C430 1.373 . S
N431 C433 1.340 . S
N432 C429 1.368 . S
N432 C433 1.321 . S
N432 Co435 2.135 . S
C433 N431 1.340 . S
C433 N432 1.321 . S
C433 H457 0.930 . S
H434 C429 0.931 . S
Co435 N432 2.135 . S
Co435 N438 2.121 . S
Co435 O443 2.055 . S
Co435 O446 2.039 . S
Co435 N449 2.140 . S
C436 O437 1.227 . S
C436 O446 1.265 . S
O437 C436 1.227 . S
N438 Co435 2.121 . S
N438 C440 1.375 . S
N438 C441 1.313 . S
C439 C440 1.338 . S
C439 N442 1.377 . S
C439 H459 0.930 . S
C440 N438 1.375 . S
C440 C439 1.338 . S
C440 H444 0.931 . S
C441 N438 1.313 . S
C441 N442 1.344 . S
C441 H445 0.930 . S
N442 C439 1.377 . S
N442 C441 1.344 . S
O443 Co435 2.055 . S
O443 C447 1.253 . S
H444 C440 0.931 . S
H445 C441 0.930 . S
O446 Co435 2.039 . S
O446 C436 1.265 . S
C447 O443 1.253 . S
C447 O448 1.227 . S
O448 C447 1.227 . S
N449 Co435 2.140 . S
N449 C452 1.346 . S
N449 C453 1.345 . S
C450 C451 1.387 . S
C450 C454 1.391 . S
C451 C450 1.387 . S
C451 C452 1.369 . S
C451 H460 0.929 . S
C452 N449 1.346 . S
C452 C451 1.369 . S
C452 H455 0.928 . S
C453 N449 1.345 . S
C453 C454 1.371 . S
C453 H456 0.931 . S
C454 C450 1.391 . S
C454 C453 1.371 . S
C454 H461 0.930 . S
H455 C452 0.928 . S
H456 C453 0.931 . S
H457 C433 0.930 . S
H458 C430 0.930 . S
H459 C439 0.930 . S
H460 C451 0.929 . S
H461 C454 0.930 . S
C462 C463 1.351 . S
C462 N465 1.368 . S
C462 H467 0.931 . S
C463 C462 1.351 . S
C463 N464 1.373 . S
C463 H491 0.930 . S
N464 C463 1.373 . S
N464 C466 1.340 . S
N465 C462 1.368 . S
N465 C466 1.321 . S
N465 Co468 2.135 . S
C466 N464 1.340 . S
C466 N465 1.321 . S
C466 H490 0.930 . S
H467 C462 0.931 . S
Co468 N465 2.135 . S
Co468 N471 2.121 . S
Co468 O476 2.055 . S
Co468 O479 2.039 . S
Co468 N482 2.140 . S
C469 O470 1.227 . S
C469 O479 1.265 . S
O470 C469 1.227 . S
N471 Co468 2.121 . S
N471 C473 1.375 . S
N471 C474 1.313 . S
C472 C473 1.338 . S
C472 N475 1.377 . S
C472 H492 0.930 . S
C473 N471 1.375 . S
C473 C472 1.338 . S
C473 H477 0.931 . S
C474 N471 1.313 . S
C474 N475 1.344 . S
C474 H478 0.930 . S
N475 C472 1.377 . S
N475 C474 1.344 . S
O476 Co468 2.055 . S
O476 C480 1.253 . S
H477 C473 0.931 . S
H478 C474 0.930 . S
O479 Co468 2.039 . S
O479 C469 1.265 . S
C480 O476 1.253 . S
C480 O481 1.227 . S
O481 C480 1.227 . S
N482 Co468 2.140 . S
N482 C485 1.346 . S
N482 C486 1.345 . S
C483 C484 1.387 . S
C483 C487 1.391 . S
C484 C483 1.387 . S
C484 C485 1.369 . S
C484 H493 0.929 . S
C485 N482 1.346 . S
C485 C484 1.369 . S
C485 H488 0.928 . S
C486 N482 1.345 . S
C486 C487 1.371 . S
C486 H489 0.931 . S
C487 C483 1.391 . S
C487 C486 1.371 . S
C487 H494 0.930 . S
H488 C485 0.928 . S
H489 C486 0.931 . S
H490 C466 0.930 . S
H491 C463 0.930 . S
H492 C472 0.930 . S
H493 C484 0.929 . S
H494 C487 0.930 . S
C495 C496 1.351 . S
C495 N498 1.368 . S
C495 H500 0.931 . S
C496 C495 1.351 . S
C496 N497 1.373 . S
C496 H524 0.930 . S
N497 C496 1.373 . S
N497 C499 1.340 . S
N498 C495 1.368 . S
N498 C499 1.321 . S
N498 Co501 2.135 . S
C499 N497 1.340 . S
C499 N498 1.321 . S
C499 H523 0.930 . S
H500 C495 0.931 . S
Co501 N498 2.135 . S
Co501 N504 2.121 . S
Co501 O509 2.055 . S
Co501 O512 2.039 . S
Co501 N515 2.140 . S
C502 O503 1.227 . S
C502 O512 1.265 . S
O503 C502 1.227 . S
N504 Co501 2.121 . S
N504 C506 1.375 . S
N504 C507 1.313 . S
C505 C506 1.338 . S
C505 N508 1.377 . S
C505 H525 0.930 . S
C506 N504 1.375 . S
C506 C505 1.338 . S
C506 H510 0.931 . S
C507 N504 1.313 . S
C507 N508 1.344 . S
C507 H511 0.930 . S
N508 C505 1.377 . S
N508 C507 1.344 . S
O509 Co501 2.055 . S
O509 C513 1.253 . S
H510 C506 0.931 . S
H511 C507 0.930 . S
O512 Co501 2.039 . S
O512 C502 1.265 . S
C513 O509 1.253 . S
C513 O514 1.227 . S
O514 C513 1.227 . S
N515 Co501 2.140 . S
N515 C518 1.346 . S
N515 C519 1.345 . S
C516 C517 1.387 . S
C516 C520 1.391 . S
C517 C516 1.387 . S
C517 C518 1.369 . S
C517 H526 0.929 . S
C518 N515 1.346 . S
C518 C517 1.369 . S
C518 H521 0.928 . S
C519 N515 1.345 . S
C519 C520 1.371 . S
C519 H522 0.931 . S
C520 C516 1.391 . S
C520 C519 1.371 . S
C520 H527 0.930 . S
H521 C518 0.928 . S
H522 C519 0.931 . S
H523 C499 0.930 . S
H524 C496 0.930 . S
H525 C505 0.930 . S
H526 C517 0.929 . S
H527 C520 0.930 . S
C528 C529 1.387 . S
C528 H532 0.950 . S
C528 C537 1.390 . S
C529 C528 1.387 . S
C529 C531 1.387 1_545 S
H530 C537 0.950 . S
C531 C529 1.387 1_565 S
C531 C533 1.390 . S
C531 H535 0.950 . S
H532 C528 0.950 . S
C533 C531 1.390 . S
C533 C534 1.387 1_565 S
C533 H536 0.950 . S
C534 C533 1.387 1_545 S
C534 C537 1.387 . S
H535 C531 0.950 . S
H536 C533 0.950 . S
C537 C528 1.390 . S
C537 H530 0.950 . S
C537 C534 1.387 . S
C538 C539 1.387 . S
C538 H542 0.950 . S
C538 C547 1.390 . S
C539 C538 1.387 . S
C539 C541 1.387 1_565 S
H540 C547 0.950 . S
C541 C539 1.387 1_545 S
C541 C543 1.390 . S
C541 H545 0.950 . S
H542 C538 0.950 . S
C543 C541 1.390 . S
C543 C544 1.387 1_545 S
C543 H546 0.950 . S
C544 C543 1.387 1_565 S
C544 C547 1.387 . S
H545 C541 0.950 . S
H546 C543 0.950 . S
C547 C538 1.390 . S
C547 H540 0.950 . S
C547 C544 1.387 . S
C548 C549 1.387 . S
C548 H552 0.950 . S
C548 C557 1.390 . S
C549 C548 1.387 . S
C549 C551 1.387 1_565 S
H550 C557 0.950 . S
C551 C549 1.387 1_545 S
C551 C553 1.390 . S
C551 H555 0.950 . S
H552 C548 0.950 . S
C553 C551 1.390 . S
C553 C554 1.387 1_545 S
C553 H556 0.950 . S
C554 C553 1.387 1_565 S
C554 C557 1.387 . S
H555 C551 0.950 . S
H556 C553 0.950 . S
C557 C548 1.390 . S
C557 H550 0.950 . S
C557 C554 1.387 . S
C558 C559 1.387 1_565 S
C558 H562 0.950 . S
C558 C567 1.390 . S
C559 C558 1.387 1_545 S
C559 C561 1.387 . S
H560 C567 0.950 . S
C561 C559 1.387 . S
C561 C563 1.390 . S
C561 H565 0.950 . S
H562 C558 0.950 . S
C563 C561 1.390 . S
C563 C564 1.387 . S
C563 H566 0.950 . S
C564 C563 1.387 . S
C564 C567 1.387 1_545 S
H565 C561 0.950 . S
H566 C563 0.950 . S
C567 C558 1.390 . S
C567 H560 0.950 . S
C567 C564 1.387 1_565 S
C568 C569 1.387 . S
C568 H572 0.950 . S
C568 C577 1.390 . S
C569 C568 1.387 . S
C569 C571 1.387 . S
H570 C577 0.950 . S
C571 C569 1.387 . S
C571 C573 1.390 . S
C571 H575 0.950 . S
H572 C568 0.950 . S
C573 C571 1.390 . S
C573 C574 1.387 . S
C573 H576 0.950 . S
C574 C573 1.387 . S
C574 C577 1.387 . S
H575 C571 0.950 . S
H576 C573 0.950 . S
C577 C568 1.390 . S
C577 H570 0.950 . S
C577 C574 1.387 . S
C578 C579 1.387 . S
C578 H582 0.950 . S
C578 C587 1.390 . S
C579 C578 1.387 . S
C579 C581 1.387 . S
H580 C587 0.950 . S
C581 C579 1.387 . S
C581 C583 1.390 . S
C581 H585 0.950 . S
H582 C578 0.950 . S
C583 C581 1.390 . S
C583 C584 1.387 . S
C583 H586 0.950 . S
C584 C583 1.387 . S
C584 C587 1.387 . S
H585 C581 0.950 . S
H586 C583 0.950 . S
C587 C578 1.390 . S
C587 H580 0.950 . S
C587 C584 1.387 . S
C588 C589 1.387 . S
C588 H592 0.950 . S
C588 C597 1.390 . S
C589 C588 1.387 . S
C589 C591 1.387 . S
H590 C597 0.950 . S
C591 C589 1.387 . S
C591 C593 1.390 . S
C591 H595 0.950 . S
H592 C588 0.950 . S
C593 C591 1.390 . S
C593 C594 1.387 . S
C593 H596 0.950 . S
C594 C593 1.387 . S
C594 C597 1.387 . S
H595 C591 0.950 . S
H596 C593 0.950 . S
C597 C588 1.390 . S
C597 H590 0.950 . S
C597 C594 1.387 . S
C598 C599 1.387 . S
C598 H602 0.950 . S
C598 C607 1.390 . S
C599 C598 1.387 . S
C599 C601 1.387 . S
H600 C607 0.950 . S
C601 C599 1.387 . S
C601 C603 1.390 . S
C601 H605 0.950 . S
H602 C598 0.950 . S
C603 C601 1.390 . S
C603 C604 1.387 . S
C603 H606 0.950 . S
C604 C603 1.387 . S
C604 C607 1.387 . S
H605 C601 0.950 . S
H606 C603 0.950 . S
C607 C598 1.390 . S
C607 H600 0.950 . S
C607 C604 1.387 . S
C608 C609 1.387 . S
C608 H612 0.950 . S
C608 C617 1.390 . S
C609 C608 1.387 . S
C609 C611 1.387 . S
H610 C617 0.950 . S
C611 C609 1.387 . S
C611 C613 1.390 . S
C611 H615 0.950 . S
H612 C608 0.950 . S
C613 C611 1.390 . S
C613 C614 1.387 . S
C613 H616 0.950 . S
C614 C613 1.387 . S
C614 C617 1.387 . S
H615 C611 0.950 . S
H616 C613 0.950 . S
C617 C608 1.390 . S
C617 H610 0.950 . S
C617 C614 1.387 . S
C618 C619 1.387 . S
C618 H622 0.950 . S
C618 C627 1.390 . S
C619 C618 1.387 . S
C619 C621 1.387 . S
H620 C627 0.950 . S
C621 C619 1.387 . S
C621 C623 1.390 . S
C621 H625 0.950 . S
H622 C618 0.950 . S
C623 C621 1.390 . S
C623 C624 1.387 . S
C623 H626 0.950 . S
C624 C623 1.387 . S
C624 C627 1.387 . S
H625 C621 0.950 . S
H626 C623 0.950 . S
C627 C618 1.390 . S
C627 H620 0.950 . S
C627 C624 1.387 . S
C628 C629 1.387 . S
C628 H632 0.950 . S
C628 C637 1.390 . S
C629 C628 1.387 . S
C629 C631 1.387 . S
H630 C637 0.950 . S
C631 C629 1.387 . S
C631 C633 1.390 . S
C631 H635 0.950 . S
H632 C628 0.950 . S
C633 C631 1.390 . S
C633 C634 1.387 . S
C633 H636 0.950 . S
C634 C633 1.387 . S
C634 C637 1.387 . S
H635 C631 0.950 . S
H636 C633 0.950 . S
C637 C628 1.390 . S
C637 H630 0.950 . S
C637 C634 1.387 . S
C638 C639 1.387 . S
C638 H642 0.950 . S
C638 C647 1.390 . S
C639 C638 1.387 . S
C639 C641 1.387 . S
H640 C647 0.950 . S
C641 C639 1.387 . S
C641 C643 1.390 . S
C641 H645 0.950 . S
H642 C638 0.950 . S
C643 C641 1.390 . S
C643 C644 1.387 . S
C643 H646 0.950 . S
C644 C643 1.387 . S
C644 C647 1.387 . S
H645 C641 0.950 . S
H646 C643 0.950 . S
C647 C638 1.390 . S
C647 H640 0.950 . S
C647 C644 1.387 . S
C648 C649 1.387 . S
C648 H652 0.950 . S
C648 C657 1.390 . S
C649 C648 1.387 . S
C649 C651 1.387 . S
H650 C657 0.950 . S
C651 C649 1.387 . S
C651 C653 1.390 . S
C651 H655 0.950 . S
H652 C648 0.950 . S
C653 C651 1.390 . S
C653 C654 1.387 . S
C653 H656 0.950 . S
C654 C653 1.387 . S
C654 C657 1.387 . S
H655 C651 0.950 . S
H656 C653 0.950 . S
C657 C648 1.390 . S
C657 H650 0.950 . S
C657 C654 1.387 . S
C658 C659 1.387 . S
C658 H662 0.950 . S
C658 C667 1.390 . S
C659 C658 1.387 . S
C659 C661 1.387 . S
H660 C667 0.950 . S
C661 C659 1.387 . S
C661 C663 1.390 . S
C661 H665 0.950 . S
H662 C658 0.950 . S
C663 C661 1.390 . S
C663 C664 1.387 . S
C663 H666 0.950 . S
C664 C663 1.387 . S
C664 C667 1.387 . S
H665 C661 0.950 . S
H666 C663 0.950 . S
C667 C658 1.390 . S
C667 H660 0.950 . S
C667 C664 1.387 . S
C668 C669 1.387 . S
C668 H672 0.950 . S
C668 C677 1.390 . S
C669 C668 1.387 . S
C669 C671 1.387 . S
H670 C677 0.950 . S
C671 C669 1.387 . S
C671 C673 1.390 . S
C671 H675 0.950 . S
H672 C668 0.950 . S
C673 C671 1.390 . S
C673 C674 1.387 . S
C673 H676 0.950 . S
C674 C673 1.387 . S
C674 C677 1.387 . S
H675 C671 0.950 . S
H676 C673 0.950 . S
C677 C668 1.390 . S
C677 H670 0.950 . S
C677 C674 1.387 . S
C678 C679 1.387 . S
C678 H682 0.950 . S
C678 C687 1.390 . S
C679 C678 1.387 . S
C679 C681 1.387 . S
H680 C687 0.950 . S
C681 C679 1.387 . S
C681 C683 1.390 . S
C681 H685 0.950 . S
H682 C678 0.950 . S
C683 C681 1.390 . S
C683 C684 1.387 . S
C683 H686 0.950 . S
C684 C683 1.387 . S
C684 C687 1.387 . S
H685 C681 0.950 . S
H686 C683 0.950 . S
C687 C678 1.390 . S
C687 H680 0.950 . S
C687 C684 1.387 . S
C688 C689 1.387 . S
C688 H692 0.950 . S
C688 C697 1.390 . S
C689 C688 1.387 . S
C689 C691 1.387 . S
H690 C697 0.950 . S
C691 C689 1.387 . S
C691 C693 1.390 . S
C691 H695 0.950 . S
H692 C688 0.950 . S
C693 C691 1.390 . S
C693 C694 1.387 . S
C693 H696 0.950 . S
C694 C693 1.387 . S
C694 C697 1.387 . S
H695 C691 0.950 . S
H696 C693 0.950 . S
C697 C688 1.390 . S
C697 H690 0.950 . S
C697 C694 1.387 . S
C698 C699 1.387 . S
C698 H702 0.950 . S
C698 C707 1.390 . S
C699 C698 1.387 . S
C699 C701 1.387 . S
H700 C707 0.950 . S
C701 C699 1.387 . S
C701 C703 1.390 . S
C701 H705 0.950 . S
H702 C698 0.950 . S
C703 C701 1.390 . S
C703 C704 1.387 . S
C703 H706 0.950 . S
C704 C703 1.387 . S
C704 C707 1.387 . S
H705 C701 0.950 . S
H706 C703 0.950 . S
C707 C698 1.390 . S
C707 H700 0.950 . S
C707 C704 1.387 . S
C708 C709 1.387 . S
C708 H712 0.950 . S
C708 C717 1.390 . S
C709 C708 1.387 . S
C709 C711 1.387 . S
H710 C717 0.950 . S
C711 C709 1.387 . S
C711 C713 1.390 . S
C711 H715 0.950 . S
H712 C708 0.950 . S
C713 C711 1.390 . S
C713 C714 1.387 . S
C713 H716 0.950 . S
C714 C713 1.387 . S
C714 C717 1.387 . S
H715 C711 0.950 . S
H716 C713 0.950 . S
C717 C708 1.390 . S
C717 H710 0.950 . S
C717 C714 1.387 . S
C718 C719 1.387 . S
C718 H722 0.950 . S
C718 C727 1.390 . S
C719 C718 1.387 . S
C719 C721 1.387 . S
H720 C727 0.950 . S
C721 C719 1.387 . S
C721 C723 1.390 . S
C721 H725 0.950 . S
H722 C718 0.950 . S
C723 C721 1.390 . S
C723 C724 1.387 . S
C723 H726 0.950 . S
C724 C723 1.387 . S
C724 C727 1.387 . S
H725 C721 0.950 . S
H726 C723 0.950 . S
C727 C718 1.390 . S
C727 H720 0.950 . S
C727 C724 1.387 . S
C728 C729 1.387 . S
C728 H732 0.950 . S
C728 C737 1.390 . S
C729 C728 1.387 . S
C729 C731 1.387 . S
H730 C737 0.950 . S
C731 C729 1.387 . S
C731 C733 1.390 . S
C731 H735 0.950 . S
H732 C728 0.950 . S
C733 C731 1.390 . S
C733 C734 1.387 . S
C733 H736 0.950 . S
C734 C733 1.387 . S
C734 C737 1.387 . S
H735 C731 0.950 . S
H736 C733 0.950 . S
C737 C728 1.390 . S
C737 H730 0.950 . S
C737 C734 1.387 . S
C738 C739 1.387 . S
C738 H742 0.950 . S
C738 C747 1.390 . S
C739 C738 1.387 . S
C739 C741 1.387 . S
H740 C747 0.950 . S
C741 C739 1.387 . S
C741 C743 1.390 . S
C741 H745 0.950 . S
H742 C738 0.950 . S
C743 C741 1.390 . S
C743 C744 1.387 . S
C743 H746 0.950 . S
C744 C743 1.387 . S
C744 C747 1.387 . S
H745 C741 0.950 . S
H746 C743 0.950 . S
C747 C738 1.390 . S
C747 H740 0.950 . S
C747 C744 1.387 . S
C748 C749 1.387 . S
C748 H752 0.950 . S
C748 C757 1.390 . S
C749 C748 1.387 . S
C749 C751 1.387 . S
H750 C757 0.950 . S
C751 C749 1.387 . S
C751 C753 1.390 . S
C751 H755 0.950 . S
H752 C748 0.950 . S
C753 C751 1.390 . S
C753 C754 1.387 . S
C753 H756 0.950 . S
C754 C753 1.387 . S
C754 C757 1.387 . S
H755 C751 0.950 . S
H756 C753 0.950 . S
C757 C748 1.390 . S
C757 H750 0.950 . S
C757 C754 1.387 . S
C758 C759 1.387 . S
C758 H762 0.950 . S
C758 C767 1.390 . S
C759 C758 1.387 . S
C759 C761 1.387 . S
H760 C767 0.950 . S
C761 C759 1.387 . S
C761 C763 1.390 . S
C761 H765 0.950 . S
H762 C758 0.950 . S
C763 C761 1.390 . S
C763 C764 1.387 . S
C763 H766 0.950 . S
C764 C763 1.387 . S
C764 C767 1.387 . S
H765 C761 0.950 . S
H766 C763 0.950 . S
C767 C758 1.390 . S
C767 H760 0.950 . S
C767 C764 1.387 . S
C768 C769 1.387 . S
C768 H772 0.950 . S
C768 C777 1.390 1_655 S
C769 C768 1.387 . S
C769 C771 1.387 . S
H770 C777 0.950 . S
C771 C769 1.387 . S
C771 C773 1.390 1_655 S
C771 H775 0.950 . S
H772 C768 0.950 . S
C773 C771 1.390 1_455 S
C773 C774 1.387 . S
C773 H776 0.950 . S
C774 C773 1.387 . S
C774 C777 1.387 . S
H775 C771 0.950 . S
H776 C773 0.950 . S
C777 C768 1.390 1_455 S
C777 H770 0.950 . S
C777 C774 1.387 . S
C778 C779 1.387 . S
C778 H782 0.950 . S
C778 C787 1.390 1_455 S
C779 C778 1.387 . S
C779 C781 1.387 . S
H780 C787 0.950 . S
C781 C779 1.387 . S
C781 C783 1.390 1_455 S
C781 H785 0.950 . S
H782 C778 0.950 . S
C783 C781 1.390 1_655 S
C783 C784 1.387 . S
C783 H786 0.950 . S
C784 C783 1.387 . S
C784 C787 1.387 . S
H785 C781 0.950 . S
H786 C783 0.950 . S
C787 C778 1.390 1_655 S
C787 H780 0.950 . S
C787 C784 1.387 . S
C788 C789 1.387 . S
C788 H792 0.950 . S
C788 C797 1.390 1_655 S
C789 C788 1.387 . S
C789 C791 1.387 . S
H790 C797 0.950 . S
C791 C789 1.387 . S
C791 C793 1.390 1_655 S
C791 H795 0.950 . S
H792 C788 0.950 . S
C793 C791 1.390 1_455 S
C793 C794 1.387 . S
C793 H796 0.950 . S
C794 C793 1.387 . S
C794 C797 1.387 . S
H795 C791 0.950 . S
H796 C793 0.950 . S
C797 C788 1.390 1_455 S
C797 H790 0.950 . S
C797 C794 1.387 . S
C798 C799 1.387 . S
C798 H802 0.950 . S
C798 C807 1.390 1_655 S
C799 C798 1.387 . S
C799 C801 1.387 . S
H800 C807 0.950 . S
C801 C799 1.387 . S
C801 C803 1.390 1_655 S
C801 H805 0.950 . S
H802 C798 0.950 . S
C803 C801 1.390 1_455 S
C803 C804 1.387 . S
C803 H806 0.950 . S
C804 C803 1.387 . S
C804 C807 1.387 . S
H805 C801 0.950 . S
H806 C803 0.950 . S
C807 C798 1.390 1_455 S
C807 H800 0.950 . S
C807 C804 1.387 . S
C808 C809 1.387 . S
C808 H812 0.950 . S
C808 C817 1.390 . S
C809 C808 1.387 . S
C809 C811 1.387 . S
H810 C817 0.950 . S
C811 C809 1.387 . S
C811 C813 1.390 . S
C811 H815 0.950 . S
H812 C808 0.950 . S
C813 C811 1.390 . S
C813 C814 1.387 . S
C813 H816 0.950 . S
C814 C813 1.387 . S
C814 C817 1.387 . S
H815 C811 0.950 . S
H816 C813 0.950 . S
C817 C808 1.390 . S
C817 H810 0.950 . S
C817 C814 1.387 . S
C818 C819 1.387 . S
C818 H822 0.950 . S
C818 C827 1.390 . S
C819 C818 1.387 . S
C819 C821 1.387 . S
H820 C827 0.950 . S
C821 C819 1.387 . S
C821 C823 1.390 . S
C821 H825 0.950 . S
H822 C818 0.950 . S
C823 C821 1.390 . S
C823 C824 1.387 . S
C823 H826 0.950 . S
C824 C823 1.387 . S
C824 C827 1.387 . S
H825 C821 0.950 . S
H826 C823 0.950 . S
C827 C818 1.390 . S
C827 H820 0.950 . S
C827 C824 1.387 . S
C828 C829 1.387 . S
C828 H832 0.950 . S
C828 C837 1.390 . S
C829 C828 1.387 . S
C829 C831 1.387 . S
H830 C837 0.950 . S
C831 C829 1.387 . S
C831 C833 1.390 . S
C831 H835 0.950 . S
H832 C828 0.950 . S
C833 C831 1.390 . S
C833 C834 1.387 . S
C833 H836 0.950 . S
C834 C833 1.387 . S
C834 C837 1.387 . S
H835 C831 0.950 . S
H836 C833 0.950 . S
C837 C828 1.390 . S
C837 H830 0.950 . S
C837 C834 1.387 . S
C838 C839 1.387 . S
C838 H842 0.950 . S
C838 C847 1.390 . S
C839 C838 1.387 . S
C839 C841 1.387 . S
H840 C847 0.950 . S
C841 C839 1.387 . S
C841 C843 1.390 . S
C841 H845 0.950 . S
H842 C838 0.950 . S
C843 C841 1.390 . S
C843 C844 1.387 . S
C843 H846 0.950 . S
C844 C843 1.387 . S
C844 C847 1.387 . S
H845 C841 0.950 . S
H846 C843 0.950 . S
C847 C838 1.390 . S
C847 H840 0.950 . S
C847 C844 1.387 . S
C848 C849 1.387 . S
C848 H852 0.950 . S
C848 C857 1.390 1_556 S
C849 C848 1.387 . S
C849 C851 1.387 . S
H850 C857 0.950 . S
C851 C849 1.387 . S
C851 C853 1.390 1_556 S
C851 H855 0.950 . S
H852 C848 0.950 . S
C853 C851 1.390 1_554 S
C853 C854 1.387 . S
C853 H856 0.950 . S
C854 C853 1.387 . S
C854 C857 1.387 . S
H855 C851 0.950 . S
H856 C853 0.950 . S
C857 C848 1.390 1_554 S
C857 H850 0.950 . S
C857 C854 1.387 . S
C858 C859 1.387 . S
C858 H862 0.950 . S
C858 C867 1.390 1_556 S
C859 C858 1.387 . S
C859 C861 1.387 . S
H860 C867 0.950 . S
C861 C859 1.387 . S
C861 C863 1.390 1_556 S
C861 H865 0.950 . S
H862 C858 0.950 . S
C863 C861 1.390 1_554 S
C863 C864 1.387 . S
C863 H866 0.950 . S
C864 C863 1.387 . S
C864 C867 1.387 . S
H865 C861 0.950 . S
H866 C863 0.950 . S
C867 C858 1.390 1_554 S
C867 H860 0.950 . S
C867 C864 1.387 . S
C868 C869 1.387 . S
C868 H872 0.950 . S
C868 C877 1.390 . S
C869 C868 1.387 . S
C869 C871 1.387 . S
H870 C877 0.950 . S
C871 C869 1.387 . S
C871 C873 1.390 . S
C871 H875 0.950 . S
H872 C868 0.950 . S
C873 C871 1.390 . S
C873 C874 1.387 . S
C873 H876 0.950 . S
C874 C873 1.387 . S
C874 C877 1.387 . S
H875 C871 0.950 . S
H876 C873 0.950 . S
C877 C868 1.390 . S
C877 H870 0.950 . S
C877 C874 1.387 . S
C878 C879 1.387 . S
C878 H882 0.950 . S
C878 C887 1.390 . S
C879 C878 1.387 . S
C879 C881 1.387 . S
H880 C887 0.950 . S
C881 C879 1.387 . S
C881 C883 1.390 . S
C881 H885 0.950 . S
H882 C878 0.950 . S
C883 C881 1.390 . S
C883 C884 1.387 . S
C883 H886 0.950 . S
C884 C883 1.387 . S
C884 C887 1.387 . S
H885 C881 0.950 . S
H886 C883 0.950 . S
C887 C878 1.390 . S
C887 H880 0.950 . S
C887 C884 1.387 . S
C888 C889 1.387 . S
C888 H892 0.950 . S
C888 C897 1.390 . S
C889 C888 1.387 . S
C889 C891 1.387 . S
H890 C897 0.950 . S
C891 C889 1.387 . S
C891 C893 1.390 . S
C891 H895 0.950 . S
H892 C888 0.950 . S
C893 C891 1.390 . S
C893 C894 1.387 . S
C893 H896 0.950 . S
C894 C893 1.387 . S
C894 C897 1.387 . S
H895 C891 0.950 . S
H896 C893 0.950 . S
C897 C888 1.390 . S
C897 H890 0.950 . S
C897 C894 1.387 . S
C898 C899 1.387 . S
C898 H902 0.950 . S
C898 C907 1.390 . S
C899 C898 1.387 . S
C899 C901 1.387 . S
H900 C907 0.950 . S
C901 C899 1.387 . S
C901 C903 1.390 . S
C901 H905 0.950 . S
H902 C898 0.950 . S
C903 C901 1.390 . S
C903 C904 1.387 . S
C903 H906 0.950 . S
C904 C903 1.387 . S
C904 C907 1.387 . S
H905 C901 0.950 . S
H906 C903 0.950 . S
C907 C898 1.390 . S
C907 H900 0.950 . S
C907 C904 1.387 . S
C908 C909 1.387 . S
C908 H912 0.950 . S
C908 C917 1.390 1_554 S
C909 C908 1.387 . S
C909 C911 1.387 . S
H910 C917 0.950 . S
C911 C909 1.387 . S
C911 C913 1.390 1_554 S
C911 H915 0.950 . S
H912 C908 0.950 . S
C913 C911 1.390 1_556 S
C913 C914 1.387 . S
C913 H916 0.950 . S
C914 C913 1.387 . S
C914 C917 1.387 . S
H915 C911 0.950 . S
H916 C913 0.950 . S
C917 C908 1.390 1_556 S
C917 H910 0.950 . S
C917 C914 1.387 . S
C918 C919 1.387 . S
C918 H922 0.950 . S
C918 C927 1.390 1_556 S
C919 C918 1.387 . S
C919 C921 1.387 . S
H920 C927 0.950 . S
C921 C919 1.387 . S
C921 C923 1.390 1_556 S
C921 H925 0.950 . S
H922 C918 0.950 . S
C923 C921 1.390 1_554 S
C923 C924 1.387 . S
C923 H926 0.950 . S
C924 C923 1.387 . S
C924 C927 1.387 . S
H925 C921 0.950 . S
H926 C923 0.950 . S
C927 C918 1.390 1_554 S
C927 H920 0.950 . S
C927 C924 1.387 . S
C529 N13 1.544 . S
C534 N376 1.544 . S
C539 N46 1.544 1_565 S
C544 N343 1.544 1_565 S
C549 N310 1.544 1_565 S
C554 N79 1.544 1_565 S
C559 N277 1.546 . S
C564 N112 1.546 . S
C569 N145 1.546 . S
C574 N508 1.546 . S
C579 N178 1.544 . S
C584 N475 1.544 . S
C589 N442 1.544 . S
C594 N211 1.544 . S
C599 N409 1.546 . S
C604 N244 1.546 . S
C609 C18 1.160 . S
C614 C447 1.160 . S
C619 C414 1.162 . S
C624 C51 1.162 . S
C629 C84 1.162 . S
C634 C513 1.162 . S
C639 C480 1.160 . S
C644 C117 1.160 . S
C649 C106 1.625 . S
C654 C469 1.625 . S
C659 C502 1.627 . S
C664 C73 1.627 . S
C669 C403 1.625 . S
C674 C40 1.625 . S
C679 C7 1.625 . S
C684 C436 1.625 . S
C689 C150 1.162 . S
C694 C315 1.162 . S
C699 C183 1.160 . S
C704 C282 1.160 . S
C709 C216 1.160 . S
C714 C381 1.160 . S
C719 C249 1.160 . S
C724 C348 1.160 . S
C729 C238 1.627 . S
C734 C337 1.627 . S
C739 C205 1.627 . S
C744 C370 1.627 . S
C749 C172 1.625 . S
C754 C271 1.625 . S
C759 C139 1.627 . S
C764 C304 1.627 . S
C769 C54 1.498 . S
C774 C21 1.498 . S
C779 C87 1.498 . S
C784 C120 1.498 . S
C789 C186 1.498 . S
C794 C153 1.498 . S
C799 C252 1.498 . S
C804 C219 1.498 . S
C809 C318 1.498 . S
C814 C285 1.498 . S
C819 C384 1.498 . S
C824 C351 1.498 . S
C829 C417 1.498 . S
C834 C450 1.498 . S
C839 C516 1.498 . S
C844 C483 1.498 . S
C849 N68 1.470 . S
C854 N2 1.470 . S
C859 N101 1.470 . S
C864 N35 1.470 . S
C869 N134 1.470 . S
C874 N200 1.470 . S
C879 N233 1.467 . S
C884 N167 1.467 . S
C889 N266 1.467 . S
C894 N332 1.467 . S
C899 N365 1.470 . S
C904 N299 1.470 . S
C909 N398 1.467 . S
C914 N464 1.467 . S
C919 N497 1.467 . S
C924 N431 1.467 . S
