# Generated by pormake.
# Topology umz, (4)-cn, num edge types: 1
# Building blocks:
#     Node 0, Type 0, BuildingBlock: CEKHIL_clean_sbu_0, # of connection points: 4
#     Node 1, Type 0, BuildingBlock: CEKHIL_clean_sbu_0, # of connection points: 4
#     Node 2, Type 0, BuildingBlock: CEKHIL_clean_sbu_0, # of connection points: 4
#     Node 3, Type 0, BuildingBlock: CEKHIL_clean_sbu_0, # of connection points: 4
#     Node 4, Type 0, BuildingBlock: CEKHIL_clean_sbu_0, # of connection points: 4
#     Node 5, Type 0, BuildingBlock: CEKHIL_clean_sbu_0, # of connection points: 4
#     Node 6, Type 0, BuildingBlock: CEKHIL_clean_sbu_0, # of connection points: 4
#     Node 7, Type 0, BuildingBlock: CEKHIL_clean_sbu_0, # of connection points: 4
#     Node 8, Type 0, BuildingBlock: CEKHIL_clean_sbu_0, # of connection points: 4
#     Node 9, Type 0, BuildingBlock: CEKHIL_clean_sbu_0, # of connection points: 4
#     Node 10, Type 0, BuildingBlock: CEKHIL_clean_sbu_0, # of connection points: 4
#     Node 11, Type 0, BuildingBlock: CEKHIL_clean_sbu_0, # of connection points: 4
#     Node 12, Type 0, BuildingBlock: CEKHIL_clean_sbu_0, # of connection points: 4
#     Node 13, Type 0, BuildingBlock: CEKHIL_clean_sbu_0, # of connection points: 4
#     Node 14, Type 0, BuildingBlock: CEKHIL_clean_sbu_0, # of connection points: 4
#     Node 15, Type 0, BuildingBlock: CEKHIL_clean_sbu_0, # of connection points: 4
#     Edge 16, Type (0, 0), BuildingBlock: OJICUG_clean_linker_0, # of connection points: 2
#     Edge 17, Type (0, 0), BuildingBlock: OJICUG_clean_linker_0, # of connection points: 2
#     Edge 18, Type (0, 0), BuildingBlock: OJICUG_clean_linker_0, # of connection points: 2
#     Edge 19, Type (0, 0), BuildingBlock: OJICUG_clean_linker_0, # of connection points: 2
#     Edge 20, Type (0, 0), BuildingBlock: OJICUG_clean_linker_0, # of connection points: 2
#     Edge 21, Type (0, 0), BuildingBlock: OJICUG_clean_linker_0, # of connection points: 2
#     Edge 22, Type (0, 0), BuildingBlock: OJICUG_clean_linker_0, # of connection points: 2
#     Edge 23, Type (0, 0), BuildingBlock: OJICUG_clean_linker_0, # of connection points: 2
#     Edge 24, Type (0, 0), BuildingBlock: OJICUG_clean_linker_0, # of connection points: 2
#     Edge 25, Type (0, 0), BuildingBlock: OJICUG_clean_linker_0, # of connection points: 2
#     Edge 26, Type (0, 0), BuildingBlock: OJICUG_clean_linker_0, # of connection points: 2
#     Edge 27, Type (0, 0), BuildingBlock: OJICUG_clean_linker_0, # of connection points: 2
#     Edge 28, Type (0, 0), BuildingBlock: OJICUG_clean_linker_0, # of connection points: 2
#     Edge 29, Type (0, 0), BuildingBlock: OJICUG_clean_linker_0, # of connection points: 2
#     Edge 30, Type (0, 0), BuildingBlock: OJICUG_clean_linker_0, # of connection points: 2
#     Edge 31, Type (0, 0), BuildingBlock: OJICUG_clean_linker_0, # of connection points: 2
#     Edge 32, Type (0, 0), BuildingBlock: OJICUG_clean_linker_0, # of connection points: 2
#     Edge 33, Type (0, 0), BuildingBlock: OJICUG_clean_linker_0, # of connection points: 2
#     Edge 34, Type (0, 0), BuildingBlock: OJICUG_clean_linker_0, # of connection points: 2
#     Edge 35, Type (0, 0), BuildingBlock: OJICUG_clean_linker_0, # of connection points: 2
#     Edge 36, Type (0, 0), BuildingBlock: OJICUG_clean_linker_0, # of connection points: 2
#     Edge 37, Type (0, 0), BuildingBlock: OJICUG_clean_linker_0, # of connection points: 2
#     Edge 38, Type (0, 0), BuildingBlock: OJICUG_clean_linker_0, # of connection points: 2
#     Edge 39, Type (0, 0), BuildingBlock: OJICUG_clean_linker_0, # of connection points: 2
#     Edge 40, Type (0, 0), BuildingBlock: OJICUG_clean_linker_0, # of connection points: 2
#     Edge 41, Type (0, 0), BuildingBlock: OJICUG_clean_linker_0, # of connection points: 2
#     Edge 42, Type (0, 0), BuildingBlock: OJICUG_clean_linker_0, # of connection points: 2
#     Edge 43, Type (0, 0), BuildingBlock: OJICUG_clean_linker_0, # of connection points: 2
#     Edge 44, Type (0, 0), BuildingBlock: OJICUG_clean_linker_0, # of connection points: 2
#     Edge 45, Type (0, 0), BuildingBlock: OJICUG_clean_linker_0, # of connection points: 2
#     Edge 46, Type (0, 0), BuildingBlock: OJICUG_clean_linker_0, # of connection points: 2
#     Edge 47, Type (0, 0), BuildingBlock: OJICUG_clean_linker_0, # of connection points: 2
# Relax obj value: 0.257
# Max RMSD: 0.167
# Mean RMSD: 0.167
data_MOF--net-umz--node1-CEKHIL_clean_sbu_0--edge1-OJICUG_clean_linker_0
_symmetry_space_group_name_H-M    P1
_symmetry_Int_Tables_number       1
_symmetry_cell_setting            triclinic
loop_
_symmetry_equiv_pos_as_xyz
'x, y, z'
_cell_length_a     41.845432
_cell_length_b     41.852686
_cell_length_c     16.502499
_cell_angle_alpha  89.99205
_cell_angle_beta   89.957046
_cell_angle_gamma 89.938144
loop_
_atom_site_label
_atom_site_type_symbol
_atom_site_fract_x
_atom_site_fract_y
_atom_site_fract_z
_atom_type_partial_charge
Co0 Co 0.00962 0.6344 0.05368 0.0
O1 O 0.98898 0.67102 0.00596 0.0
O2 O 0.0386 0.67087 0.0515 0.0
C3 C 0.96867 0.62036 0.13646 0.0
O4 O 0.03807 0.60174 0.11141 0.0
Co5 Co 0.97981 0.56648 0.03018 0.0
O6 O 0.01329 0.55393 0.10896 0.0
C7 C 0.01433 0.59712 0.89576 0.0
C8 C 0.015 0.68689 0.01995 0.0
C9 C 0.03618 0.572 0.13143 0.0
O10 O 0.02518 0.61905 0.94341 0.0
O11 O 0.993 0.5769 0.91701 0.0
O12 O 0.98828 0.64292 0.15771 0.0
O13 O 0.97245 0.60986 0.06382 0.0
Co14 Co 0.87681 0.01049 0.56264 0.0
O15 O 0.8399 0.98969 0.51707 0.0
O16 O 0.83999 0.03908 0.56434 0.0
C17 C 0.89244 0.96915 0.64255 0.0
O18 O 0.90951 0.0391 0.61907 0.0
Co19 Co 0.94509 0.98204 0.53398 0.0
O20 O 0.9578 0.01531 0.61313 0.0
C21 C 0.91245 0.01659 0.40262 0.0
C22 C 0.8239 0.01547 0.53336 0.0
C23 C 0.93943 0.03772 0.63735 0.0
O24 O 0.89077 0.02691 0.45189 0.0
O25 O 0.93323 0.99549 0.42196 0.0
O26 O 0.86985 0.98834 0.66636 0.0
O27 O 0.90212 0.97362 0.56944 0.0
Co28 Co 0.50917 0.88061 0.05028 0.0
O29 O 0.52797 0.84415 -0.00266 0.0
O30 O 0.47917 0.84492 0.04828 0.0
C31 C 0.55208 0.89171 0.1297 0.0
O32 O 0.48257 0.91329 0.11381 0.0
Co33 Co 0.54084 0.94786 0.03103 0.0
O34 O 0.50874 0.96036 0.11346 0.0
C35 C 0.50282 0.92082 0.89723 0.0
C36 C 0.50192 0.82866 0.01355 0.0
C37 C 0.48554 0.94271 0.13606 0.0
O38 O 0.4924 0.89807 0.9431 0.0
O39 O 0.52483 0.94025 0.91872 0.0
O40 O 0.53182 0.86973 0.15084 0.0
O41 O 0.54742 0.90374 0.05889 0.0
Co42 Co 0.63696 0.50517 0.55917 0.0
O43 O 0.67361 0.52598 0.51211 0.0
O44 O 0.67376 0.47654 0.55893 0.0
C45 C 0.62187 0.54633 0.64027 0.0
O46 O 0.60448 0.4765 0.61652 0.0
Co47 Co 0.56865 0.53386 0.53316 0.0
O48 O 0.55617 0.50034 0.61194 0.0
C49 C 0.60067 0.49968 0.40019 0.0
C50 C 0.68968 0.50013 0.52716 0.0
C51 C 0.5746 0.47786 0.63547 0.0
O52 O 0.62241 0.48906 0.44879 0.0
O53 O 0.58007 0.52083 0.42047 0.0
O54 O 0.64457 0.52706 0.66291 0.0
O55 O 0.6118 0.54206 0.56746 0.0
Co56 Co 0.0109 0.87706 0.93847 0.0
O57 O 0.9899 0.8406 0.98592 0.0
O58 O 0.03916 0.84001 0.93772 0.0
C59 C 0.9695 0.89265 0.85875 0.0
O60 O 0.03971 0.90925 0.88054 0.0
Co61 Co 0.98311 0.94569 0.96543 0.0
O62 O 0.01661 0.95788 0.88627 0.0
C63 C 0.01734 0.91316 0.09742 0.0
C64 C 0.01555 0.82431 0.97013 0.0
C65 C 0.03875 0.93917 0.86204 0.0
O66 O 0.02761 0.89137 0.04847 0.0
O67 O 0.99632 0.93398 0.07775 0.0
O68 O 0.98844 0.86979 0.83533 0.0
O69 O 0.97424 0.90264 0.93144 0.0
Co70 Co 0.63691 1.00485 0.43198 0.0
O71 O 0.67054 0.98846 0.49998 0.0
O72 O 0.67205 0.03529 0.43845 0.0
C73 C 0.62995 0.95943 0.35845 0.0
O74 O 0.60782 0.02883 0.3532 0.0
Co75 Co 0.56937 0.972 0.42931 0.0
O76 O 0.56567 0.99685 0.32755 0.0
C77 C 0.58534 0.01957 0.55682 0.0
C78 C 0.68671 0.01393 0.48211 0.0
C79 C 0.58268 0.02142 0.31242 0.0
O80 O 0.61349 0.02512 0.52753 0.0
O81 O 0.56658 0.99792 0.52986 0.0
O82 O 0.65283 0.97914 0.34045 0.0
O83 O 0.61469 0.96608 0.42393 0.0
Co84 Co 0.50498 0.638 0.941 0.0
O85 O 0.52588 0.67474 0.98711 0.0
O86 O 0.47644 0.67489 0.94029 0.0
C87 C 0.54614 0.62262 0.86012 0.0
O88 O 0.4763 0.60539 0.88434 0.0
Co89 Co 0.53365 0.56974 0.96843 0.0
O90 O 0.50025 0.55715 0.88953 0.0
C91 C 0.49923 0.60204 0.10061 0.0
C92 C 0.50013 0.69086 0.97136 0.0
C93 C 0.47775 0.57549 0.86574 0.0
O94 O 0.48877 0.62377 0.0517 0.0
O95 O 0.52037 0.58136 0.08078 0.0
O96 O 0.5269 0.64528 0.83711 0.0
O97 O 0.54187 0.61276 0.93316 0.0
Co98 Co 0.87975 0.50528 0.445 0.0
O99 O 0.84314 0.52596 0.49265 0.0
O100 O 0.8432 0.47638 0.44683 0.0
C101 C 0.89396 0.54623 0.36244 0.0
O102 O 0.91244 0.47683 0.38726 0.0
Co103 Co 0.9477 0.53501 0.4691 0.0
O104 O 0.96026 0.50162 0.39004 0.0
C105 C 0.9169 0.50037 0.60307 0.0
C106 C 0.82721 0.50001 0.47839 0.0
C107 C 0.9422 0.47875 0.36735 0.0
O108 O 0.89498 0.48961 0.55525 0.0
O109 O 0.93717 0.5217 0.5821 0.0
O110 O 0.87137 0.52668 0.34104 0.0
O111 O 0.90437 0.54241 0.43513 0.0
Co112 Co 1.00617 0.37886 0.94452 0.0
O113 O 0.02665 0.34212 0.99202 0.0
O114 O 0.97708 0.34248 0.94615 0.0
C115 C 0.04722 0.393 0.86206 0.0
O116 O 0.97786 0.41167 0.88698 0.0
Co117 Co 0.03607 0.44668 0.9691 0.0
O118 O 1.00275 0.45942 0.89009 0.0
C119 C 1.00118 0.41596 0.10278 0.0
C120 C 1.00059 0.32635 0.97777 0.0
C121 C 0.97984 0.44144 0.86727 0.0
O122 O 0.99046 0.39407 0.05483 0.0
O123 O 0.02255 0.43621 0.082 0.0
O124 O 0.02761 0.37049 0.84054 0.0
O125 O 0.04341 0.40337 0.93483 0.0
Co126 Co 0.13762 1.00338 0.43819 0.0
O127 O 0.17409 0.02451 0.48498 0.0
O128 O 0.1748 0.97522 0.43721 0.0
C129 C 0.12194 0.04466 0.35823 0.0
O130 O 0.10539 0.97449 0.38075 0.0
Co131 Co 0.06899 0.03122 0.46541 0.0
O132 O 0.05681 0.99773 0.38634 0.0
C133 C 0.10162 0.99709 0.59744 0.0
C134 C 0.19048 0.99896 0.46893 0.0
C135 C 0.07547 0.97554 0.36223 0.0
O136 O 0.12341 0.98678 0.54848 0.0
O137 O 0.08081 0.01811 0.5777 0.0
O138 O 0.14479 0.0257 0.33479 0.0
O139 O 0.11201 0.04 0.43104 0.0
Co140 Co 0.50362 0.13874 0.93075 0.0
O141 O 0.48767 0.17297 -0.00248 0.0
O142 O 0.53423 0.17383 0.9345 0.0
C143 C 0.45798 0.13116 0.85851 0.0
O144 O 0.52706 0.10886 0.85277 0.0
Co145 Co 0.47045 0.07135 0.93449 0.0
O146 O 0.49487 0.06641 0.83237 0.0
C147 C 0.51922 0.08824 0.05786 0.0
C148 C 0.51314 0.18889 0.97824 0.0
C149 C 0.51931 0.08319 0.81449 0.0
O150 O 0.5244 0.11615 0.02678 0.0
O151 O 0.49744 0.06914 0.03324 0.0
O152 O 0.47759 0.15396 0.83916 0.0
O153 O 0.46471 0.11659 0.92494 0.0
Co154 Co 0.37907 0.51141 0.44203 0.0
O155 O 0.34269 0.49026 0.48941 0.0
O156 O 0.34199 0.53967 0.44243 0.0
C157 C 0.39437 0.47032 0.36102 0.0
O158 O 0.41126 0.54034 0.38433 0.0
Co159 Co 0.44765 0.48326 0.46756 0.0
O160 O 0.45977 0.51691 0.38879 0.0
C161 C 0.41546 0.51715 0.60073 0.0
C162 C 0.32633 0.51592 0.47428 0.0
C163 C 0.44115 0.53922 0.36529 0.0
O164 O 0.39362 0.52766 0.55227 0.0
O165 O 0.43617 0.49613 0.58032 0.0
O166 O 0.37151 0.48941 0.33845 0.0
O167 O 0.40452 0.47473 0.43371 0.0
Co168 Co 1.00371 0.13628 0.06111 0.0
O169 O 0.0249 0.17255 0.01328 0.0
O170 O 0.97558 0.17345 0.06101 0.0
C171 C 0.04497 0.12081 0.14131 0.0
O172 O 0.9747 0.1043 0.11933 0.0
Co173 Co 0.03134 0.06751 0.03559 0.0
O174 O 0.99763 0.05558 0.11444 0.0
C175 C 0.99763 0.09991 0.90258 0.0
C176 C 0.99929 0.18898 0.0286 0.0
C177 C 0.97553 0.07441 0.13823 0.0
O178 O 0.98718 0.12176 0.95115 0.0
O179 O 0.0186 0.07914 0.92288 0.0
O180 O 0.02604 0.14374 0.16433 0.0
O181 O 0.04027 0.11063 0.06878 0.0
Co182 Co 0.38003 0.00917 0.55065 0.0
O183 O 0.34351 0.02787 0.49783 0.0
O184 O 0.34448 0.97902 0.54825 0.0
C185 C 0.39097 0.05201 0.63057 0.0
O186 O 0.41278 0.98262 0.61392 0.0
Co187 Co 0.44715 0.04114 0.53149 0.0
O188 O 0.45977 0.00892 0.61343 0.0
C189 C 0.42035 1.00307 0.39751 0.0
C190 C 0.32815 1.00172 0.51363 0.0
C191 C 0.4422 0.98566 0.63599 0.0
O192 O 0.3976 0.99257 0.44331 0.0
O193 O 0.4397 0.02514 0.4191 0.0
O194 O 0.36905 0.03165 0.6515 0.0
O195 O 0.40301 0.04749 0.55968 0.0
Co196 Co 0.5111 0.37892 0.05964 0.0
O197 O 0.49009 0.34222 0.01373 0.0
O198 O 0.53967 0.34205 0.05968 0.0
C199 C 0.47008 0.39418 0.14102 0.0
O200 O 0.53987 0.41152 0.11612 0.0
Co201 Co 0.48231 0.44718 0.03301 0.0
O202 O 0.51579 0.45971 0.11173 0.0
C203 C 0.51643 0.41501 0.90015 0.0
C204 C 0.51589 0.3261 0.029 0.0
C205 C 0.53838 0.44138 0.13508 0.0
O206 O 0.52703 0.39326 0.94879 0.0
O207 O 0.49531 0.43565 0.92042 0.0
O208 O 0.48939 0.37155 0.16378 0.0
O209 O 0.47423 0.40411 0.06801 0.0
Co210 Co 0.13616 0.50842 0.55411 0.0
O211 O 0.17311 0.48811 0.50704 0.0
O212 O 0.1724 0.53768 0.55288 0.0
C213 C 0.12207 0.46736 0.63654 0.0
O214 O 0.10312 0.53656 0.61133 0.0
Co215 Co 0.06851 0.47817 0.52902 0.0
O216 O 0.05553 0.51138 0.60816 0.0
C217 C 0.09925 0.51317 0.39556 0.0
C218 C 0.18873 0.51424 0.52155 0.0
C219 C 0.07336 0.53439 0.63102 0.0
O220 O 0.12105 0.524 0.44363 0.0
O221 O 0.07907 0.49172 0.41621 0.0
O222 O 0.14447 0.48708 0.65821 0.0
O223 O 0.11182 0.47106 0.56365 0.0
C224 C 0.04525 0.73875 0.00029 0.0
C225 C 0.0162 0.72197 0.00609 0.0
H226 H 0.06801 0.7844 0.98291 0.0
C227 C 0.98744 0.7392 0.00055 0.0
H228 H 0.0678 0.72613 0.00446 0.0
C229 C 0.98757 0.77231 0.9903 0.0
C230 C 0.01645 0.78919 0.98354 0.0
H231 H 0.96463 0.72713 0.00534 0.0
H232 H 0.96485 0.78467 0.98656 0.0
C233 C 0.04537 0.77205 0.98801 0.0
C234 C 0.73828 0.9874 0.51672 0.0
C235 C 0.72142 0.01578 0.50082 0.0
H236 H 0.78354 0.96517 0.53746 0.0
C237 C 0.73855 0.0447 0.4973 0.0
H238 H 0.72599 0.96465 0.51918 0.0
C239 C 0.77187 0.04504 0.50949 0.0
C240 C 0.78866 0.01635 0.52275 0.0
H241 H 0.72625 0.06694 0.4848 0.0
H242 H 0.78456 0.06755 0.50653 0.0
C243 C 0.77141 0.98764 0.5265 0.0
C244 C 0.47104 0.77684 -0.00122 0.0
C245 C 0.50022 0.79355 0.00047 0.0
H246 H 0.4479 0.73108 0.98675 0.0
C247 C 0.5288 0.77614 0.99278 0.0
H248 H 0.44863 0.78958 0.00481 0.0
C249 C 0.52841 0.74295 0.98476 0.0
C250 C 0.49941 0.72611 0.98234 0.0
H251 H 0.55173 0.78812 0.9945 0.0
H252 H 0.55102 0.73048 0.97941 0.0
C253 C 0.47063 0.7434 0.9886 0.0
C254 C 0.74186 0.52782 0.50768 0.0
C255 C 0.72481 0.49903 0.51386 0.0
H256 H 0.78719 0.55054 0.49337 0.0
C257 C 0.74179 0.47003 0.50907 0.0
H258 H 0.72964 0.5506 0.51168 0.0
C259 C 0.77513 0.46999 0.49709 0.0
C260 C 0.79208 0.49895 0.4919 0.0
H261 H 0.7293 0.44745 0.51374 0.0
H262 H 0.78763 0.44738 0.49268 0.0
C263 C 0.775 0.52778 0.49771 0.0
C264 C 0.02787 0.27389 -0.00267 0.0
C265 C 0.99921 0.29128 0.99165 0.0
H266 H 0.05021 0.22832 0.01172 0.0
C267 C 0.97007 0.27466 -0.00248 0.0
H268 H 0.05075 0.28584 0.99249 0.0
C269 C 0.96976 0.24137 0.01005 0.0
C270 C 0.99859 0.22408 0.01473 0.0
H271 H 0.94759 0.28739 0.99325 0.0
H272 H 0.94705 0.22915 0.01525 0.0
C273 C 0.02756 0.24079 0.00784 0.0
C274 C 0.27547 0.02826 0.49255 0.0
C275 C 0.29308 0.9998 0.50001 0.0
H276 H 0.22967 0.05015 0.47872 0.0
C277 C 0.2766 0.9705 0.4974 0.0
H278 H 0.28726 0.05127 0.49496 0.0
C279 C 0.24321 0.96985 0.48655 0.0
C280 C 0.22571 0.99851 0.48051 0.0
H281 H 0.28951 0.94818 0.50321 0.0
H282 H 0.23107 0.94703 0.484 0.0
C283 C 0.2423 0.02763 0.48386 0.0
C284 C 0.54438 0.24054 0.99192 0.0
C285 C 0.51533 0.22365 -0.00391 0.0
H286 H 0.56764 0.28637 0.00077 0.0
C287 C 0.48713 0.24074 0.01242 0.0
H288 H 0.56649 0.22805 0.9791 0.0
C289 C 0.48767 0.27386 0.0222 0.0
C290 C 0.51652 0.29088 0.01801 0.0
H291 H 0.46429 0.22865 0.0154 0.0
H292 H 0.46532 0.28616 0.03364 0.0
C293 C 0.54503 0.27386 0.0041 0.0
C294 C 0.27379 0.54533 0.4918 0.0
C295 C 0.29117 0.51656 0.48734 0.0
H296 H 0.22763 0.56737 0.50752 0.0
C297 C 0.27449 0.48754 0.49348 0.0
H298 H 0.28598 0.56807 0.48714 0.0
C299 C 0.24134 0.48714 0.50304 0.0
C300 C 0.22386 0.51574 0.50849 0.0
H301 H 0.28703 0.46493 0.48971 0.0
H302 H 0.22944 0.46423 0.50734 0.0
C303 C 0.24044 0.54493 0.50338 0.0
C304 C 0.01105 0.57726 0.75464 0.0
C305 C 0.02957 0.59095 0.81646 0.0
H306 H 0.01045 0.54905 0.64704 0.0
C307 C 0.06302 0.59113 0.80839 0.0
H308 H 0.98521 0.5769 0.75907 0.0
C309 C 0.07769 0.5748 0.74389 0.0
C310 C 0.059 0.55814 0.68699 0.0
H311 H 0.07786 0.60124 0.85563 0.0
H312 H 0.10351 0.5731 0.7424 0.0
C313 C 0.02557 0.56106 0.69073 0.0
C314 C 0.93627 0.08005 0.25346 0.0
C315 C 0.95123 0.06101 0.19418 0.0
H316 H 0.91109 0.08058 0.36712 0.0
C317 C 0.94615 0.02783 0.1955 0.0
H318 H 0.93967 0.1057 0.25387 0.0
C319 C 0.92963 0.01363 0.25936 0.0
C320 C 0.9178 0.03223 0.32353 0.0
H321 H 0.95681 0.01251 0.14993 0.0
H322 H 0.92849 0.98778 0.26206 0.0
C323 C 0.91964 0.06571 0.31793 0.0
C324 C 0.50505 0.9427 0.75781 0.0
C325 C 0.48688 0.92843 0.81952 0.0
H326 H 0.50514 0.97161 0.65137 0.0
C327 C 0.45337 0.92847 0.81284 0.0
H328 H 0.53092 0.9429 0.76104 0.0
C329 C 0.43837 0.94525 0.74949 0.0
C330 C 0.45677 0.9622 0.69243 0.0
H331 H 0.43878 0.91794 0.86004 0.0
H332 H 0.41254 0.94688 0.74871 0.0
C333 C 0.49022 0.95939 0.69521 0.0
C334 C 0.57815 0.43638 0.24915 0.0
C335 C 0.56236 0.45527 0.191 0.0
H336 H 0.60375 0.43596 0.36208 0.0
C337 C 0.56625 0.4886 0.19366 0.0
H338 H 0.57569 0.41062 0.24851 0.0
C339 C 0.58243 0.50294 0.25779 0.0
C340 C 0.59512 0.48433 0.32085 0.0
H341 H 0.55494 0.50385 0.149 0.0
H342 H 0.5827 0.5288 0.26148 0.0
C343 C 0.59446 0.45086 0.31384 0.0
C344 C 0.08082 0.93628 0.24706 0.0
C345 C 0.06186 0.95145 0.30617 0.0
H346 H 0.08125 0.91113 0.13344 0.0
C347 C 0.02861 0.94681 0.30452 0.0
H348 H 0.10652 0.93934 0.24692 0.0
C349 C 0.01432 0.93053 0.24048 0.0
C350 C 0.03291 0.91849 0.17652 0.0
H351 H 0.01334 0.95763 0.34995 0.0
H352 H 0.98846 0.92972 0.23753 0.0
C353 C 0.06639 0.91988 0.18245 0.0
C354 C 0.57181 0.06989 0.74649 0.0
C355 C 0.53825 0.0725 0.74435 0.0
H356 H 0.61379 0.05059 0.68787 0.0
C357 C 0.52165 0.06127 0.67666 0.0
H358 H 0.58503 0.07845 0.79852 0.0
C359 C 0.53774 0.0458 0.61465 0.0
C360 C 0.57095 0.04072 0.61874 0.0
H361 H 0.49587 0.06348 0.67294 0.0
H362 H 0.52379 0.03676 0.56432 0.0
C363 C 0.58819 0.05397 0.68364 0.0
C364 C 0.48804 0.56793 0.30741 0.0
C365 C 0.45478 0.5634 0.30937 0.0
H366 H 0.52818 0.58504 0.24027 0.0
C367 C 0.43581 0.57876 0.25066 0.0
H368 H 0.50333 0.55695 0.35251 0.0
C369 C 0.45023 0.59527 0.18611 0.0
C370 C 0.48372 0.59657 0.17984 0.0
H371 H 0.4101 0.5758 0.25075 0.0
H372 H 0.43535 0.60418 0.13739 0.0
C373 C 0.50232 0.58431 0.24345 0.0
C374 C 0.93956 0.43693 0.75415 0.0
C375 C 0.95598 0.45566 0.81144 0.0
H376 H 0.91327 0.43674 0.64224 0.0
C377 C 0.95272 0.48906 0.80821 0.0
H378 H 0.94154 0.41113 0.75525 0.0
C379 C 0.93644 0.50355 0.74444 0.0
C380 C 0.923 0.48504 0.68224 0.0
H381 H 0.96453 0.5042 0.8522 0.0
H382 H 0.93656 0.5294 0.7404 0.0
C383 C 0.92315 0.45157 0.68979 0.0
C384 C 1.00427 0.43526 0.2444 0.0
C385 C 0.98578 0.42202 0.18193 0.0
H386 H 1.00491 0.46314 0.35255 0.0
C387 C 0.95229 0.42229 0.18929 0.0
H388 H 0.03013 0.43529 0.24049 0.0
C389 C 0.93764 0.43864 0.2538 0.0
C390 C 0.95637 0.45487 0.31141 0.0
H391 H 0.93747 0.41255 0.14152 0.0
H392 H 0.91184 0.44074 0.25475 0.0
C393 C 0.98977 0.45147 0.30833 0.0
C394 C 0.06765 0.98595 0.8043 0.0
C395 C 0.06291 0.95273 0.80599 0.0
H396 H 0.08501 0.02604 0.73741 0.0
C397 C 0.07813 0.93371 0.74707 0.0
H398 H 0.0568 1.00126 0.84959 0.0
C399 C 0.0947 0.94809 0.68258 0.0
C400 C 0.09622 0.98156 0.67661 0.0
H401 H 0.07501 0.90803 0.74698 0.0
H402 H 0.10349 0.9332 0.63368 0.0
C403 C 0.08412 1.00018 0.74042 0.0
C404 C 0.56805 0.07431 0.2491 0.0
C405 C 0.57281 0.04107 0.24292 0.0
H406 H 0.54685 0.11612 0.19413 0.0
C407 C 0.56399 0.02527 0.17178 0.0
H408 H 0.57464 0.08688 0.30395 0.0
C409 C 0.54864 0.04168 0.1101 0.0
C410 C 0.54125 0.07432 0.11819 0.0
H411 H 0.56774 0.99976 0.16526 0.0
H412 H 0.54114 0.02832 0.05714 0.0
C413 C 0.5522 0.09097 0.18668 0.0
C414 C 0.42163 0.56596 0.68707 0.0
C415 C 0.42099 0.53249 0.68008 0.0
H416 H 0.44039 0.60621 0.75233 0.0
C417 C 0.43374 0.51389 0.74308 0.0
H418 H 0.41229 0.58084 0.63885 0.0
C419 C 0.44994 0.52824 0.80714 0.0
C420 C 0.4538 0.56157 0.80978 0.0
H421 H 0.43349 0.48803 0.73937 0.0
H422 H 0.46129 0.513 0.85176 0.0
C423 C 0.43796 0.58045 0.7517 0.0
C424 C 0.93438 0.07738 0.75167 0.0
C425 C 0.95331 0.06164 0.69344 0.0
H426 H 0.93392 0.10294 0.86468 0.0
C427 C 0.98663 0.06562 0.69598 0.0
H428 H 0.90862 0.07486 0.7511 0.0
C429 C 1.00094 0.08184 0.76008 0.0
C430 C 0.9823 0.09446 0.82322 0.0
H431 H 1.0019 0.05436 0.65123 0.0
H432 H 0.0268 0.08218 0.76373 0.0
C433 C 0.94883 0.09371 0.81634 0.0
C434 C 0.42828 0.95365 0.31306 0.0
C435 C 0.42808 0.98716 0.31979 0.0
H436 H 0.44687 0.9129 0.24886 0.0
C437 C 0.44232 1.00538 0.25811 0.0
H438 H 0.41779 0.93902 0.36023 0.0
C439 C 0.45909 0.99062 0.1955 0.0
C440 C 0.46203 0.95718 0.19263 0.0
H441 H 0.4424 0.03124 0.26137 0.0
H442 H 0.47126 1.00559 0.15167 0.0
C443 C 0.44514 0.93872 0.24968 0.0
C444 C 0.56528 0.42151 0.81393 0.0
C445 C 0.5318 0.42061 0.82079 0.0
H446 H 0.60547 0.44063 0.74891 0.0
C447 C 0.51317 0.43329 0.75776 0.0
H448 H 0.58018 0.41224 0.86218 0.0
C449 C 0.52747 0.44969 0.69386 0.0
C450 C 0.56078 0.45378 0.69136 0.0
H451 H 0.48731 0.43286 0.76137 0.0
H452 H 0.51219 0.46098 0.64924 0.0
C453 C 0.57972 0.43801 0.74943 0.0
C454 C 0.09278 0.56204 0.30916 0.0
C455 C 0.09316 0.52856 0.31643 0.0
H456 H 0.07418 0.60244 0.24391 0.0
C457 C 0.07995 0.51005 0.25394 0.0
H458 H 0.1025 0.57688 0.35693 0.0
C459 C 0.06364 0.52451 0.19016 0.0
C460 C 0.06014 0.5579 0.1872 0.0
H461 H 0.08 0.48419 0.25777 0.0
H462 H 0.05199 0.50935 0.14594 0.0
C463 C 0.07635 0.57666 0.24477 0.0
C464 C 0.93268 0.5902 0.33274 0.0
C465 C 0.91053 0.56753 0.30451 0.0
H466 H 0.96816 0.62509 0.3018 0.0
C467 C 0.90612 0.56403 0.22069 0.0
H468 H 0.93656 0.59346 0.39711 0.0
C469 C 0.92445 0.58193 0.16619 0.0
C470 C 0.94725 0.60396 0.19442 0.0
H471 H 0.88932 0.5467 0.19713 0.0
H472 H 0.9212 0.57804 0.10183 0.0
C473 C 0.95073 0.60839 0.27824 0.0
C474 C 0.90627 0.95012 0.78237 0.0
C475 C 0.90968 0.94734 0.69808 0.0
H476 H 0.92266 0.935 0.8992 0.0
C477 C 0.93146 0.9248 0.66691 0.0
H478 H 0.88979 0.96732 0.80818 0.0
C479 C 0.95006 0.90603 0.71897 0.0
C480 C 0.94756 0.90974 0.80325 0.0
H481 H 0.93458 0.92208 0.60211 0.0
H482 H 0.96714 0.88944 0.69316 0.0
C483 C 0.92517 0.93166 0.83441 0.0
C484 C 0.59801 0.92826 0.15966 0.0
C485 C 0.57563 0.90552 0.18665 0.0
H486 H 0.63357 0.96276 0.19295 0.0
C487 C 0.57458 0.89781 0.26935 0.0
H488 H 0.59945 0.93462 0.09614 0.0
C489 C 0.59403 0.91398 0.3246 0.0
C490 C 0.61522 0.93787 0.29821 0.0
H491 H 0.55768 0.88036 0.29198 0.0
H492 H 0.59148 0.90876 0.38859 0.0
C493 C 0.61779 0.94416 0.21492 0.0
C494 C 0.60881 0.56507 0.78089 0.0
C495 C 0.60497 0.56804 0.69675 0.0
H496 H 0.59305 0.58001 0.8985 0.0
C497 C 0.5831 0.59069 0.66666 0.0
H498 H 0.62537 0.54777 0.80587 0.0
C499 C 0.56483 0.60939 0.71961 0.0
C500 C 0.56775 0.60552 0.80375 0.0
H501 H 0.57966 0.59356 0.60202 0.0
H502 H 0.54767 0.62609 0.69461 0.0
C503 C 0.59023 0.58348 0.83385 0.0
C504 C 0.1097 0.44957 0.77826 0.0
C505 C 0.10546 0.44602 0.69439 0.0
H506 H 0.09449 0.43555 0.89702 0.0
C507 C 0.08341 0.42327 0.66601 0.0
H508 H 0.12641 0.46696 0.80195 0.0
C509 C 0.06533 0.40504 0.7204 0.0
C510 C 0.06866 0.4095 0.80426 0.0
H511 H 0.07964 0.41996 0.60162 0.0
H512 H 0.048 0.38827 0.6967 0.0
C513 C 0.09135 0.43163 0.83263 0.0
C514 C 0.06423 0.10755 0.28128 0.0
C515 C 0.06691 0.10387 0.19705 0.0
H516 H 0.07956 0.09154 0.39829 0.0
C517 C 0.08946 0.08206 0.1661 0.0
H518 H 0.04702 0.12406 0.3069 0.0
C519 C 0.10835 0.06369 0.21832 0.0
C520 C 0.10475 0.06643 0.30256 0.0
H521 H 0.0921 0.07875 0.10134 0.0
H522 H 0.12495 0.04657 0.19268 0.0
C523 C 0.08282 0.08885 0.33352 0.0
C524 C 0.42687 0.09845 0.66031 0.0
C525 C 0.40465 0.07563 0.68761 0.0
H526 H 0.46072 0.13469 0.69297 0.0
C527 C 0.3973 0.0743 0.77052 0.0
H528 H 0.43294 0.10012 0.59663 0.0
C529 C 0.41329 0.09401 0.82558 0.0
C530 C 0.43663 0.11575 0.79878 0.0
H531 H 0.38027 0.05704 0.79341 0.0
H532 H 0.40834 0.09131 0.88967 0.0
C533 C 0.44257 0.11849 0.71534 0.0
C534 C 0.45162 0.40747 0.28165 0.0
C535 C 0.44849 0.41119 0.19753 0.0
H536 H 0.43694 0.42341 0.39928 0.0
C537 C 0.42582 0.43305 0.1675 0.0
H538 H 0.46893 0.39092 0.30658 0.0
C539 C 0.40725 0.45144 0.2205 0.0
C540 C 0.41129 0.44862 0.3046 0.0
H541 H 0.42283 0.4364 0.10285 0.0
H542 H 0.39053 0.46859 0.19556 0.0
C543 C 0.43335 0.42616 0.33464 0.0
loop_
_geom_bond_atom_site_label_1
_geom_bond_atom_site_label_2
_geom_bond_distance
_geom_bond_site_symmetry_2
_ccdc_geom_bond_type
Co0 O1 2.216 1_455 S
Co0 O2 2.091 . S
Co0 O4 2.004 . S
Co0 O10 2.021 . S
Co0 O12 2.137 1_455 S
Co0 O13 2.244 1_455 S
O1 Co0 2.216 1_655 S
O1 C8 1.247 1_655 S
O2 Co0 2.091 . S
O2 C8 1.261 . S
C3 O12 1.247 . S
C3 O13 1.272 . S
O4 Co0 2.004 . S
O4 C9 1.259 . S
Co5 O6 2.061 . S
Co5 O11 2.052 . S
Co5 O13 2.135 1_455 S
O6 Co5 2.061 . S
O6 C9 1.235 . S
C7 O10 1.238 . S
C7 O11 1.241 . S
C8 O1 1.247 1_455 S
C8 O2 1.261 . S
C9 O4 1.259 . S
C9 O6 1.235 . S
O10 Co0 2.021 . S
O10 C7 1.238 . S
O11 Co5 2.052 . S
O11 C7 1.241 . S
O12 Co0 2.137 1_655 S
O12 C3 1.247 . S
O13 Co0 2.244 1_655 S
O13 C3 1.272 . S
O13 Co5 2.135 1_655 S
Co14 O15 2.216 1_545 S
Co14 O16 2.091 . S
Co14 O18 2.004 . S
Co14 O24 2.021 . S
Co14 O26 2.137 1_545 S
Co14 O27 2.244 1_545 S
O15 Co14 2.216 1_565 S
O15 C22 1.247 1_565 S
O16 Co14 2.091 . S
O16 C22 1.261 . S
C17 O26 1.247 . S
C17 O27 1.272 . S
O18 Co14 2.004 . S
O18 C23 1.259 . S
Co19 O20 2.061 . S
Co19 O25 2.052 . S
Co19 O27 2.135 1_545 S
O20 Co19 2.061 . S
O20 C23 1.235 . S
C21 O24 1.238 . S
C21 O25 1.241 . S
C22 O15 1.247 1_545 S
C22 O16 1.261 . S
C23 O18 1.259 . S
C23 O20 1.235 . S
O24 Co14 2.021 . S
O24 C21 1.238 . S
O25 Co19 2.052 . S
O25 C21 1.241 . S
O26 Co14 2.137 1_565 S
O26 C17 1.247 . S
O27 Co14 2.244 1_565 S
O27 C17 1.272 . S
O27 Co19 2.135 1_565 S
Co28 O29 2.216 . S
Co28 O30 2.091 . S
Co28 O32 2.004 . S
Co28 O38 2.021 . S
Co28 O40 2.137 . S
Co28 O41 2.244 . S
O29 Co28 2.216 . S
O29 C36 1.247 . S
O30 Co28 2.091 . S
O30 C36 1.261 . S
C31 O40 1.247 . S
C31 O41 1.272 . S
O32 Co28 2.004 . S
O32 C37 1.259 . S
Co33 O34 2.061 . S
Co33 O39 2.052 . S
Co33 O41 2.135 . S
O34 Co33 2.061 . S
O34 C37 1.235 . S
C35 O38 1.238 . S
C35 O39 1.241 . S
C36 O29 1.247 . S
C36 O30 1.261 . S
C37 O32 1.259 . S
C37 O34 1.235 . S
O38 Co28 2.021 . S
O38 C35 1.238 . S
O39 Co33 2.052 . S
O39 C35 1.241 . S
O40 Co28 2.137 . S
O40 C31 1.247 . S
O41 Co28 2.244 . S
O41 C31 1.272 . S
O41 Co33 2.135 . S
Co42 O43 2.216 . S
Co42 O44 2.091 . S
Co42 O46 2.004 . S
Co42 O52 2.021 . S
Co42 O54 2.137 . S
Co42 O55 2.244 . S
O43 Co42 2.216 . S
O43 C50 1.247 . S
O44 Co42 2.091 . S
O44 C50 1.261 . S
C45 O54 1.247 . S
C45 O55 1.272 . S
O46 Co42 2.004 . S
O46 C51 1.259 . S
Co47 O48 2.061 . S
Co47 O53 2.052 . S
Co47 O55 2.135 . S
O48 Co47 2.061 . S
O48 C51 1.235 . S
C49 O52 1.238 . S
C49 O53 1.241 . S
C50 O43 1.247 . S
C50 O44 1.261 . S
C51 O46 1.259 . S
C51 O48 1.235 . S
O52 Co42 2.021 . S
O52 C49 1.238 . S
O53 Co47 2.052 . S
O53 C49 1.241 . S
O54 Co42 2.137 . S
O54 C45 1.247 . S
O55 Co42 2.244 . S
O55 C45 1.272 . S
O55 Co47 2.135 . S
Co56 O57 2.216 1_455 S
Co56 O58 2.091 . S
Co56 O60 2.004 . S
Co56 O66 2.021 . S
Co56 O68 2.137 1_455 S
Co56 O69 2.244 1_455 S
O57 Co56 2.216 1_655 S
O57 C64 1.247 1_655 S
O58 Co56 2.091 . S
O58 C64 1.261 . S
C59 O68 1.247 . S
C59 O69 1.272 . S
O60 Co56 2.004 . S
O60 C65 1.259 . S
Co61 O62 2.061 . S
Co61 O67 2.052 . S
Co61 O69 2.135 1_455 S
O62 Co61 2.061 . S
O62 C65 1.235 . S
C63 O66 1.238 . S
C63 O67 1.241 . S
C64 O57 1.247 1_455 S
C64 O58 1.261 . S
C65 O60 1.259 . S
C65 O62 1.235 . S
O66 Co56 2.021 . S
O66 C63 1.238 . S
O67 Co61 2.052 . S
O67 C63 1.241 . S
O68 Co56 2.137 1_655 S
O68 C59 1.247 . S
O69 Co56 2.244 1_655 S
O69 C59 1.272 . S
O69 Co61 2.135 1_655 S
Co70 O71 2.216 1_545 S
Co70 O72 2.091 . S
Co70 O74 2.004 . S
Co70 O80 2.021 . S
Co70 O82 2.137 1_545 S
Co70 O83 2.244 1_545 S
O71 Co70 2.216 1_565 S
O71 C78 1.247 1_565 S
O72 Co70 2.091 . S
O72 C78 1.261 . S
C73 O82 1.247 . S
C73 O83 1.272 . S
O74 Co70 2.004 . S
O74 C79 1.259 . S
Co75 O76 2.061 . S
Co75 O81 2.052 . S
Co75 O83 2.135 1_545 S
O76 Co75 2.061 . S
O76 C79 1.235 . S
C77 O80 1.238 . S
C77 O81 1.241 . S
C78 O71 1.247 1_545 S
C78 O72 1.261 . S
C79 O74 1.259 . S
C79 O76 1.235 . S
O80 Co70 2.021 . S
O80 C77 1.238 . S
O81 Co75 2.052 . S
O81 C77 1.241 . S
O82 Co70 2.137 1_565 S
O82 C73 1.247 . S
O83 Co70 2.244 1_565 S
O83 C73 1.272 . S
O83 Co75 2.135 1_565 S
Co84 O85 2.216 . S
Co84 O86 2.091 . S
Co84 O88 2.004 . S
Co84 O94 2.021 . S
Co84 O96 2.137 . S
Co84 O97 2.244 . S
O85 Co84 2.216 . S
O85 C92 1.247 . S
O86 Co84 2.091 . S
O86 C92 1.261 . S
C87 O96 1.247 . S
C87 O97 1.272 . S
O88 Co84 2.004 . S
O88 C93 1.259 . S
Co89 O90 2.061 . S
Co89 O95 2.052 . S
Co89 O97 2.135 . S
O90 Co89 2.061 . S
O90 C93 1.235 . S
C91 O94 1.238 . S
C91 O95 1.241 . S
C92 O85 1.247 . S
C92 O86 1.261 . S
C93 O88 1.259 . S
C93 O90 1.235 . S
O94 Co84 2.021 . S
O94 C91 1.238 . S
O95 Co89 2.052 . S
O95 C91 1.241 . S
O96 Co84 2.137 . S
O96 C87 1.247 . S
O97 Co84 2.244 . S
O97 C87 1.272 . S
O97 Co89 2.135 . S
Co98 O99 2.216 . S
Co98 O100 2.091 . S
Co98 O102 2.004 . S
Co98 O108 2.021 . S
Co98 O110 2.137 . S
Co98 O111 2.244 . S
O99 Co98 2.216 . S
O99 C106 1.247 . S
O100 Co98 2.091 . S
O100 C106 1.261 . S
C101 O110 1.247 . S
C101 O111 1.272 . S
O102 Co98 2.004 . S
O102 C107 1.259 . S
Co103 O104 2.061 . S
Co103 O109 2.052 . S
Co103 O111 2.135 . S
O104 Co103 2.061 . S
O104 C107 1.235 . S
C105 O108 1.238 . S
C105 O109 1.241 . S
C106 O99 1.247 . S
C106 O100 1.261 . S
C107 O102 1.259 . S
C107 O104 1.235 . S
O108 Co98 2.021 . S
O108 C105 1.238 . S
O109 Co103 2.052 . S
O109 C105 1.241 . S
O110 Co98 2.137 . S
O110 C101 1.247 . S
O111 Co98 2.244 . S
O111 C101 1.272 . S
O111 Co103 2.135 . S
Co112 O113 2.216 1_655 S
Co112 O114 2.091 . S
Co112 O116 2.004 . S
Co112 O122 2.021 . S
Co112 O124 2.137 1_655 S
Co112 O125 2.244 1_655 S
O113 Co112 2.216 1_455 S
O113 C120 1.247 1_455 S
O114 Co112 2.091 . S
O114 C120 1.261 . S
C115 O124 1.247 . S
C115 O125 1.272 . S
O116 Co112 2.004 . S
O116 C121 1.259 . S
Co117 O118 2.061 . S
Co117 O123 2.052 . S
Co117 O125 2.135 1_655 S
O118 Co117 2.061 . S
O118 C121 1.235 . S
C119 O122 1.238 . S
C119 O123 1.241 . S
C120 O113 1.247 1_655 S
C120 O114 1.261 . S
C121 O116 1.259 . S
C121 O118 1.235 . S
O122 Co112 2.021 . S
O122 C119 1.238 . S
O123 Co117 2.052 . S
O123 C119 1.241 . S
O124 Co112 2.137 1_455 S
O124 C115 1.247 . S
O125 Co112 2.244 1_455 S
O125 C115 1.272 . S
O125 Co117 2.135 1_455 S
Co126 O127 2.216 1_565 S
Co126 O128 2.091 . S
Co126 O130 2.004 . S
Co126 O136 2.021 . S
Co126 O138 2.137 1_565 S
Co126 O139 2.244 1_565 S
O127 Co126 2.216 1_545 S
O127 C134 1.247 1_545 S
O128 Co126 2.091 . S
O128 C134 1.261 . S
C129 O138 1.247 . S
C129 O139 1.272 . S
O130 Co126 2.004 . S
O130 C135 1.259 . S
Co131 O132 2.061 . S
Co131 O137 2.052 . S
Co131 O139 2.135 1_565 S
O132 Co131 2.061 . S
O132 C135 1.235 . S
C133 O136 1.238 . S
C133 O137 1.241 . S
C134 O127 1.247 1_565 S
C134 O128 1.261 . S
C135 O130 1.259 . S
C135 O132 1.235 . S
O136 Co126 2.021 . S
O136 C133 1.238 . S
O137 Co131 2.052 . S
O137 C133 1.241 . S
O138 Co126 2.137 1_545 S
O138 C129 1.247 . S
O139 Co126 2.244 1_545 S
O139 C129 1.272 . S
O139 Co131 2.135 1_545 S
Co140 O141 2.216 . S
Co140 O142 2.091 . S
Co140 O144 2.004 . S
Co140 O150 2.021 . S
Co140 O152 2.137 . S
Co140 O153 2.244 . S
O141 Co140 2.216 . S
O141 C148 1.247 . S
O142 Co140 2.091 . S
O142 C148 1.261 . S
C143 O152 1.247 . S
C143 O153 1.272 . S
O144 Co140 2.004 . S
O144 C149 1.259 . S
Co145 O146 2.061 . S
Co145 O151 2.052 . S
Co145 O153 2.135 . S
O146 Co145 2.061 . S
O146 C149 1.235 . S
C147 O150 1.238 . S
C147 O151 1.241 . S
C148 O141 1.247 . S
C148 O142 1.261 . S
C149 O144 1.259 . S
C149 O146 1.235 . S
O150 Co140 2.021 . S
O150 C147 1.238 . S
O151 Co145 2.052 . S
O151 C147 1.241 . S
O152 Co140 2.137 . S
O152 C143 1.247 . S
O153 Co140 2.244 . S
O153 C143 1.272 . S
O153 Co145 2.135 . S
Co154 O155 2.216 . S
Co154 O156 2.091 . S
Co154 O158 2.004 . S
Co154 O164 2.021 . S
Co154 O166 2.137 . S
Co154 O167 2.244 . S
O155 Co154 2.216 . S
O155 C162 1.247 . S
O156 Co154 2.091 . S
O156 C162 1.261 . S
C157 O166 1.247 . S
C157 O167 1.272 . S
O158 Co154 2.004 . S
O158 C163 1.259 . S
Co159 O160 2.061 . S
Co159 O165 2.052 . S
Co159 O167 2.135 . S
O160 Co159 2.061 . S
O160 C163 1.235 . S
C161 O164 1.238 . S
C161 O165 1.241 . S
C162 O155 1.247 . S
C162 O156 1.261 . S
C163 O158 1.259 . S
C163 O160 1.235 . S
O164 Co154 2.021 . S
O164 C161 1.238 . S
O165 Co159 2.052 . S
O165 C161 1.241 . S
O166 Co154 2.137 . S
O166 C157 1.247 . S
O167 Co154 2.244 . S
O167 C157 1.272 . S
O167 Co159 2.135 . S
Co168 O169 2.216 1_655 S
Co168 O170 2.091 . S
Co168 O172 2.004 . S
Co168 O178 2.021 . S
Co168 O180 2.137 1_655 S
Co168 O181 2.244 1_655 S
O169 Co168 2.216 1_455 S
O169 C176 1.247 1_455 S
O170 Co168 2.091 . S
O170 C176 1.261 . S
C171 O180 1.247 . S
C171 O181 1.272 . S
O172 Co168 2.004 . S
O172 C177 1.259 . S
Co173 O174 2.061 . S
Co173 O179 2.052 . S
Co173 O181 2.135 1_655 S
O174 Co173 2.061 . S
O174 C177 1.235 . S
C175 O178 1.238 . S
C175 O179 1.241 . S
C176 O169 1.247 1_655 S
C176 O170 1.261 . S
C177 O172 1.259 . S
C177 O174 1.235 . S
O178 Co168 2.021 . S
O178 C175 1.238 . S
O179 Co173 2.052 . S
O179 C175 1.241 . S
O180 Co168 2.137 1_455 S
O180 C171 1.247 . S
O181 Co168 2.244 1_455 S
O181 C171 1.272 . S
O181 Co173 2.135 1_455 S
Co182 O183 2.216 1_565 S
Co182 O184 2.091 . S
Co182 O186 2.004 . S
Co182 O192 2.021 . S
Co182 O194 2.137 1_565 S
Co182 O195 2.244 1_565 S
O183 Co182 2.216 1_545 S
O183 C190 1.247 1_545 S
O184 Co182 2.091 . S
O184 C190 1.261 . S
C185 O194 1.247 . S
C185 O195 1.272 . S
O186 Co182 2.004 . S
O186 C191 1.259 . S
Co187 O188 2.061 . S
Co187 O193 2.052 . S
Co187 O195 2.135 1_565 S
O188 Co187 2.061 . S
O188 C191 1.235 . S
C189 O192 1.238 . S
C189 O193 1.241 . S
C190 O183 1.247 1_565 S
C190 O184 1.261 . S
C191 O186 1.259 . S
C191 O188 1.235 . S
O192 Co182 2.021 . S
O192 C189 1.238 . S
O193 Co187 2.052 . S
O193 C189 1.241 . S
O194 Co182 2.137 1_545 S
O194 C185 1.247 . S
O195 Co182 2.244 1_545 S
O195 C185 1.272 . S
O195 Co187 2.135 1_545 S
Co196 O197 2.216 . S
Co196 O198 2.091 . S
Co196 O200 2.004 . S
Co196 O206 2.021 . S
Co196 O208 2.137 . S
Co196 O209 2.244 . S
O197 Co196 2.216 . S
O197 C204 1.247 . S
O198 Co196 2.091 . S
O198 C204 1.261 . S
C199 O208 1.247 . S
C199 O209 1.272 . S
O200 Co196 2.004 . S
O200 C205 1.259 . S
Co201 O202 2.061 . S
Co201 O207 2.052 . S
Co201 O209 2.135 . S
O202 Co201 2.061 . S
O202 C205 1.235 . S
C203 O206 1.238 . S
C203 O207 1.241 . S
C204 O197 1.247 . S
C204 O198 1.261 . S
C205 O200 1.259 . S
C205 O202 1.235 . S
O206 Co196 2.021 . S
O206 C203 1.238 . S
O207 Co201 2.052 . S
O207 C203 1.241 . S
O208 Co196 2.137 . S
O208 C199 1.247 . S
O209 Co196 2.244 . S
O209 C199 1.272 . S
O209 Co201 2.135 . S
Co210 O211 2.216 . S
Co210 O212 2.091 . S
Co210 O214 2.004 . S
Co210 O220 2.021 . S
Co210 O222 2.137 . S
Co210 O223 2.244 . S
O211 Co210 2.216 . S
O211 C218 1.247 . S
O212 Co210 2.091 . S
O212 C218 1.261 . S
C213 O222 1.247 . S
C213 O223 1.272 . S
O214 Co210 2.004 . S
O214 C219 1.259 . S
Co215 O216 2.061 . S
Co215 O221 2.052 . S
Co215 O223 2.135 . S
O216 Co215 2.061 . S
O216 C219 1.235 . S
C217 O220 1.238 . S
C217 O221 1.241 . S
C218 O211 1.247 . S
C218 O212 1.261 . S
C219 O214 1.259 . S
C219 O216 1.235 . S
O220 Co210 2.021 . S
O220 C217 1.238 . S
O221 Co215 2.052 . S
O221 C217 1.241 . S
O222 Co210 2.137 . S
O222 C213 1.247 . S
O223 Co210 2.244 . S
O223 C213 1.272 . S
O223 Co215 2.135 . S
C224 C225 1.387 1_455 S
C224 H228 0.950 . S
C224 C233 1.390 1_554 S
C225 C224 1.387 1_655 S
C225 C227 1.387 . S
H226 C233 0.950 . S
C227 C225 1.387 . S
C227 C229 1.390 1_554 S
C227 H231 0.950 . S
H228 C224 0.950 . S
C229 C227 1.390 1_556 S
C229 C230 1.387 . S
C229 H232 0.950 . S
C230 C229 1.387 . S
C230 C233 1.387 1_655 S
H231 C227 0.950 . S
H232 C229 0.950 . S
C233 C224 1.390 1_556 S
C233 H226 0.950 . S
C233 C230 1.387 1_455 S
C234 C235 1.387 . S
C234 H238 0.950 . S
C234 C243 1.390 . S
C235 C234 1.387 . S
C235 C237 1.387 1_565 S
H236 C243 0.950 . S
C237 C235 1.387 1_545 S
C237 C239 1.390 . S
C237 H241 0.950 . S
H238 C234 0.950 . S
C239 C237 1.390 . S
C239 C240 1.387 1_545 S
C239 H242 0.950 . S
C240 C239 1.387 1_565 S
C240 C243 1.387 . S
H241 C237 0.950 . S
H242 C239 0.950 . S
C243 C234 1.390 . S
C243 H236 0.950 . S
C243 C240 1.387 . S
C244 C245 1.387 . S
C244 H248 0.950 . S
C244 C253 1.390 1_554 S
C245 C244 1.387 . S
C245 C247 1.387 . S
H246 C253 0.950 . S
C247 C245 1.387 . S
C247 C249 1.390 1_554 S
C247 H251 0.950 . S
H248 C244 0.950 . S
C249 C247 1.390 1_556 S
C249 C250 1.387 . S
C249 H252 0.950 . S
C250 C249 1.387 . S
C250 C253 1.387 . S
H251 C247 0.950 . S
H252 C249 0.950 . S
C253 C244 1.390 1_556 S
C253 H246 0.950 . S
C253 C250 1.387 . S
C254 C255 1.387 . S
C254 H258 0.950 . S
C254 C263 1.390 . S
C255 C254 1.387 . S
C255 C257 1.387 . S
H256 C263 0.950 . S
C257 C255 1.387 . S
C257 C259 1.390 . S
C257 H261 0.950 . S
H258 C254 0.950 . S
C259 C257 1.390 . S
C259 C260 1.387 . S
C259 H262 0.950 . S
C260 C259 1.387 . S
C260 C263 1.387 . S
H261 C257 0.950 . S
H262 C259 0.950 . S
C263 C254 1.390 . S
C263 H256 0.950 . S
C263 C260 1.387 . S
C264 C265 1.387 . S
C264 H268 0.950 . S
C264 C273 1.390 1_556 S
C265 C264 1.387 . S
C265 C267 1.387 1_455 S
H266 C273 0.950 . S
C267 C265 1.387 1_655 S
C267 C269 1.390 1_556 S
C267 H271 0.950 . S
H268 C264 0.950 . S
C269 C267 1.390 1_554 S
C269 C270 1.387 1_655 S
C269 H272 0.950 . S
C270 C269 1.387 1_455 S
C270 C273 1.387 . S
H271 C267 0.950 . S
H272 C269 0.950 . S
C273 C264 1.390 1_554 S
C273 H266 0.950 . S
C273 C270 1.387 . S
C274 C275 1.387 . S
C274 H278 0.950 . S
C274 C283 1.390 . S
C275 C274 1.387 . S
C275 C277 1.387 1_545 S
H276 C283 0.950 . S
C277 C275 1.387 1_565 S
C277 C279 1.390 . S
C277 H281 0.950 . S
H278 C274 0.950 . S
C279 C277 1.390 . S
C279 C280 1.387 1_565 S
C279 H282 0.950 . S
C280 C279 1.387 1_545 S
C280 C283 1.387 . S
H281 C277 0.950 . S
H282 C279 0.950 . S
C283 C274 1.390 . S
C283 H276 0.950 . S
C283 C280 1.387 . S
C284 C285 1.387 . S
C284 H288 0.950 . S
C284 C293 1.390 . S
C285 C284 1.387 . S
C285 C287 1.387 1_556 S
H286 C293 0.950 . S
C287 C285 1.387 1_554 S
C287 C289 1.390 . S
C287 H291 0.950 . S
H288 C284 0.950 . S
C289 C287 1.390 . S
C289 C290 1.387 . S
C289 H292 0.950 . S
C290 C289 1.387 . S
C290 C293 1.387 1_554 S
H291 C287 0.950 . S
H292 C289 0.950 . S
C293 C284 1.390 . S
C293 H286 0.950 . S
C293 C290 1.387 1_556 S
C294 C295 1.387 . S
C294 H298 0.950 . S
C294 C303 1.390 . S
C295 C294 1.387 . S
C295 C297 1.387 . S
H296 C303 0.950 . S
C297 C295 1.387 . S
C297 C299 1.390 . S
C297 H301 0.950 . S
H298 C294 0.950 . S
C299 C297 1.390 . S
C299 C300 1.387 . S
C299 H302 0.950 . S
C300 C299 1.387 . S
C300 C303 1.387 . S
H301 C297 0.950 . S
H302 C299 0.950 . S
C303 C294 1.390 . S
C303 H296 0.950 . S
C303 C300 1.387 . S
C304 C305 1.387 . S
C304 H308 0.950 . S
C304 C313 1.390 . S
C305 C304 1.387 . S
C305 C307 1.387 . S
H306 C313 0.950 . S
C307 C305 1.387 . S
C307 C309 1.390 . S
C307 H311 0.950 1_556 S
H308 C304 0.950 . S
C309 C307 1.390 . S
C309 C310 1.387 . S
C309 H312 0.950 . S
C310 C309 1.387 . S
C310 C313 1.387 . S
H311 C307 0.950 1_554 S
H312 C309 0.950 . S
C313 C304 1.390 . S
C313 H306 0.950 . S
C313 C310 1.387 . S
C314 C315 1.387 . S
C314 H318 0.950 . S
C314 C323 1.390 . S
C315 C314 1.387 . S
C315 C317 1.387 . S
H316 C323 0.950 . S
C317 C315 1.387 . S
C317 C319 1.390 . S
C317 H321 0.950 . S
H318 C314 0.950 . S
C319 C317 1.390 . S
C319 C320 1.387 . S
C319 H322 0.950 . S
C320 C319 1.387 . S
C320 C323 1.387 . S
H321 C317 0.950 . S
H322 C319 0.950 . S
C323 C314 1.390 . S
C323 H316 0.950 . S
C323 C320 1.387 . S
C324 C325 1.387 . S
C324 H328 0.950 . S
C324 C333 1.390 . S
C325 C324 1.387 . S
C325 C327 1.387 . S
H326 C333 0.950 . S
C327 C325 1.387 . S
C327 C329 1.390 . S
C327 H331 0.950 . S
H328 C324 0.950 . S
C329 C327 1.390 . S
C329 C330 1.387 . S
C329 H332 0.950 . S
C330 C329 1.387 . S
C330 C333 1.387 . S
H331 C327 0.950 . S
H332 C329 0.950 . S
C333 C324 1.390 . S
C333 H326 0.950 . S
C333 C330 1.387 . S
C334 C335 1.387 . S
C334 H338 0.950 . S
C334 C343 1.390 . S
C335 C334 1.387 . S
C335 C337 1.387 . S
H336 C343 0.950 . S
C337 C335 1.387 . S
C337 C339 1.390 . S
C337 H341 0.950 . S
H338 C334 0.950 . S
C339 C337 1.390 . S
C339 C340 1.387 . S
C339 H342 0.950 . S
C340 C339 1.387 . S
C340 C343 1.387 . S
H341 C337 0.950 . S
H342 C339 0.950 . S
C343 C334 1.390 . S
C343 H336 0.950 . S
C343 C340 1.387 . S
C344 C345 1.387 . S
C344 H348 0.950 . S
C344 C353 1.390 . S
C345 C344 1.387 . S
C345 C347 1.387 . S
H346 C353 0.950 . S
C347 C345 1.387 . S
C347 C349 1.390 . S
C347 H351 0.950 . S
H348 C344 0.950 . S
C349 C347 1.390 . S
C349 C350 1.387 . S
C349 H352 0.950 . S
C350 C349 1.387 . S
C350 C353 1.387 . S
H351 C347 0.950 . S
H352 C349 0.950 . S
C353 C344 1.390 . S
C353 H346 0.950 . S
C353 C350 1.387 . S
C354 C355 1.387 . S
C354 H358 0.950 . S
C354 C363 1.390 . S
C355 C354 1.387 . S
C355 C357 1.387 . S
H356 C363 0.950 . S
C357 C355 1.387 . S
C357 C359 1.390 . S
C357 H361 0.950 . S
H358 C354 0.950 . S
C359 C357 1.390 . S
C359 C360 1.387 . S
C359 H362 0.950 . S
C360 C359 1.387 . S
C360 C363 1.387 . S
H361 C357 0.950 . S
H362 C359 0.950 . S
C363 C354 1.390 . S
C363 H356 0.950 . S
C363 C360 1.387 . S
C364 C365 1.387 . S
C364 H368 0.950 . S
C364 C373 1.390 . S
C365 C364 1.387 . S
C365 C367 1.387 . S
H366 C373 0.950 . S
C367 C365 1.387 . S
C367 C369 1.390 . S
C367 H371 0.950 . S
H368 C364 0.950 . S
C369 C367 1.390 . S
C369 C370 1.387 . S
C369 H372 0.950 . S
C370 C369 1.387 . S
C370 C373 1.387 . S
H371 C367 0.950 . S
H372 C369 0.950 . S
C373 C364 1.390 . S
C373 H366 0.950 . S
C373 C370 1.387 . S
C374 C375 1.387 . S
C374 H378 0.950 . S
C374 C383 1.390 . S
C375 C374 1.387 . S
C375 C377 1.387 . S
H376 C383 0.950 . S
C377 C375 1.387 . S
C377 C379 1.390 . S
C377 H381 0.950 . S
H378 C374 0.950 . S
C379 C377 1.390 . S
C379 C380 1.387 . S
C379 H382 0.950 . S
C380 C379 1.387 . S
C380 C383 1.387 . S
H381 C377 0.950 . S
H382 C379 0.950 . S
C383 C374 1.390 . S
C383 H376 0.950 . S
C383 C380 1.387 . S
C384 C385 1.387 . S
C384 H388 0.950 . S
C384 C393 1.390 . S
C385 C384 1.387 . S
C385 C387 1.387 . S
H386 C393 0.950 . S
C387 C385 1.387 . S
C387 C389 1.390 . S
C387 H391 0.950 . S
H388 C384 0.950 . S
C389 C387 1.390 . S
C389 C390 1.387 . S
C389 H392 0.950 . S
C390 C389 1.387 . S
C390 C393 1.387 . S
H391 C387 0.950 . S
H392 C389 0.950 . S
C393 C384 1.390 . S
C393 H386 0.950 . S
C393 C390 1.387 . S
C394 C395 1.387 . S
C394 H398 0.950 . S
C394 C403 1.390 . S
C395 C394 1.387 . S
C395 C397 1.387 . S
H396 C403 0.950 . S
C397 C395 1.387 . S
C397 C399 1.390 . S
C397 H401 0.950 . S
H398 C394 0.950 . S
C399 C397 1.390 . S
C399 C400 1.387 . S
C399 H402 0.950 . S
C400 C399 1.387 . S
C400 C403 1.387 . S
H401 C397 0.950 . S
H402 C399 0.950 . S
C403 C394 1.390 . S
C403 H396 0.950 . S
C403 C400 1.387 . S
C404 C405 1.387 . S
C404 H408 0.950 . S
C404 C413 1.390 . S
C405 C404 1.387 . S
C405 C407 1.387 . S
H406 C413 0.950 . S
C407 C405 1.387 . S
C407 C409 1.390 . S
C407 H411 0.950 . S
H408 C404 0.950 . S
C409 C407 1.390 . S
C409 C410 1.387 . S
C409 H412 0.950 1_554 S
C410 C409 1.387 . S
C410 C413 1.387 . S
H411 C407 0.950 . S
H412 C409 0.950 1_556 S
C413 C404 1.390 . S
C413 H406 0.950 . S
C413 C410 1.387 . S
C414 C415 1.387 . S
C414 H418 0.950 . S
C414 C423 1.390 . S
C415 C414 1.387 . S
C415 C417 1.387 . S
H416 C423 0.950 . S
C417 C415 1.387 . S
C417 C419 1.390 . S
C417 H421 0.950 . S
H418 C414 0.950 . S
C419 C417 1.390 . S
C419 C420 1.387 . S
C419 H422 0.950 . S
C420 C419 1.387 . S
C420 C423 1.387 . S
H421 C417 0.950 . S
H422 C419 0.950 . S
C423 C414 1.390 . S
C423 H416 0.950 . S
C423 C420 1.387 . S
C424 C425 1.387 . S
C424 H428 0.950 . S
C424 C433 1.390 . S
C425 C424 1.387 . S
C425 C427 1.387 . S
H426 C433 0.950 1_554 S
C427 C425 1.387 . S
C427 C429 1.390 . S
C427 H431 0.950 . S
H428 C424 0.950 . S
C429 C427 1.390 . S
C429 C430 1.387 . S
C429 H432 0.950 . S
C430 C429 1.387 . S
C430 C433 1.387 . S
H431 C427 0.950 . S
H432 C429 0.950 . S
C433 C424 1.390 . S
C433 H426 0.950 1_556 S
C433 C430 1.387 . S
C434 C435 1.387 . S
C434 H438 0.950 . S
C434 C443 1.390 . S
C435 C434 1.387 . S
C435 C437 1.387 . S
H436 C443 0.950 . S
C437 C435 1.387 . S
C437 C439 1.390 . S
C437 H441 0.950 . S
H438 C434 0.950 . S
C439 C437 1.390 . S
C439 C440 1.387 . S
C439 H442 0.950 . S
C440 C439 1.387 . S
C440 C443 1.387 . S
H441 C437 0.950 . S
H442 C439 0.950 . S
C443 C434 1.390 . S
C443 H436 0.950 . S
C443 C440 1.387 . S
C444 C445 1.387 . S
C444 H448 0.950 . S
C444 C453 1.390 . S
C445 C444 1.387 . S
C445 C447 1.387 . S
H446 C453 0.950 . S
C447 C445 1.387 . S
C447 C449 1.390 . S
C447 H451 0.950 . S
H448 C444 0.950 . S
C449 C447 1.390 . S
C449 C450 1.387 . S
C449 H452 0.950 . S
C450 C449 1.387 . S
C450 C453 1.387 . S
H451 C447 0.950 . S
H452 C449 0.950 . S
C453 C444 1.390 . S
C453 H446 0.950 . S
C453 C450 1.387 . S
C454 C455 1.387 . S
C454 H458 0.950 . S
C454 C463 1.390 . S
C455 C454 1.387 . S
C455 C457 1.387 . S
H456 C463 0.950 . S
C457 C455 1.387 . S
C457 C459 1.390 . S
C457 H461 0.950 . S
H458 C454 0.950 . S
C459 C457 1.390 . S
C459 C460 1.387 . S
C459 H462 0.950 . S
C460 C459 1.387 . S
C460 C463 1.387 . S
H461 C457 0.950 . S
H462 C459 0.950 . S
C463 C454 1.390 . S
C463 H456 0.950 . S
C463 C460 1.387 . S
C464 C465 1.387 . S
C464 H468 0.950 . S
C464 C473 1.390 . S
C465 C464 1.387 . S
C465 C467 1.387 . S
H466 C473 0.950 . S
C467 C465 1.387 . S
C467 C469 1.390 . S
C467 H471 0.950 . S
H468 C464 0.950 . S
C469 C467 1.390 . S
C469 C470 1.387 . S
C469 H472 0.950 . S
C470 C469 1.387 . S
C470 C473 1.387 . S
H471 C467 0.950 . S
H472 C469 0.950 . S
C473 C464 1.390 . S
C473 H466 0.950 . S
C473 C470 1.387 . S
C474 C475 1.387 . S
C474 H478 0.950 . S
C474 C483 1.390 . S
C475 C474 1.387 . S
C475 C477 1.387 . S
H476 C483 0.950 . S
C477 C475 1.387 . S
C477 C479 1.390 . S
C477 H481 0.950 . S
H478 C474 0.950 . S
C479 C477 1.390 . S
C479 C480 1.387 . S
C479 H482 0.950 . S
C480 C479 1.387 . S
C480 C483 1.387 . S
H481 C477 0.950 . S
H482 C479 0.950 . S
C483 C474 1.390 . S
C483 H476 0.950 . S
C483 C480 1.387 . S
C484 C485 1.387 . S
C484 H488 0.950 . S
C484 C493 1.390 . S
C485 C484 1.387 . S
C485 C487 1.387 . S
H486 C493 0.950 . S
C487 C485 1.387 . S
C487 C489 1.390 . S
C487 H491 0.950 . S
H488 C484 0.950 . S
C489 C487 1.390 . S
C489 C490 1.387 . S
C489 H492 0.950 . S
C490 C489 1.387 . S
C490 C493 1.387 . S
H491 C487 0.950 . S
H492 C489 0.950 . S
C493 C484 1.390 . S
C493 H486 0.950 . S
C493 C490 1.387 . S
C494 C495 1.387 . S
C494 H498 0.950 . S
C494 C503 1.390 . S
C495 C494 1.387 . S
C495 C497 1.387 . S
H496 C503 0.950 . S
C497 C495 1.387 . S
C497 C499 1.390 . S
C497 H501 0.950 . S
H498 C494 0.950 . S
C499 C497 1.390 . S
C499 C500 1.387 . S
C499 H502 0.950 . S
C500 C499 1.387 . S
C500 C503 1.387 . S
H501 C497 0.950 . S
H502 C499 0.950 . S
C503 C494 1.390 . S
C503 H496 0.950 . S
C503 C500 1.387 . S
C504 C505 1.387 . S
C504 H508 0.950 . S
C504 C513 1.390 . S
C505 C504 1.387 . S
C505 C507 1.387 . S
H506 C513 0.950 . S
C507 C505 1.387 . S
C507 C509 1.390 . S
C507 H511 0.950 . S
H508 C504 0.950 . S
C509 C507 1.390 . S
C509 C510 1.387 . S
C509 H512 0.950 . S
C510 C509 1.387 . S
C510 C513 1.387 . S
H511 C507 0.950 . S
H512 C509 0.950 . S
C513 C504 1.390 . S
C513 H506 0.950 . S
C513 C510 1.387 . S
C514 C515 1.387 . S
C514 H518 0.950 . S
C514 C523 1.390 . S
C515 C514 1.387 . S
C515 C517 1.387 . S
H516 C523 0.950 . S
C517 C515 1.387 . S
C517 C519 1.390 . S
C517 H521 0.950 . S
H518 C514 0.950 . S
C519 C517 1.390 . S
C519 C520 1.387 . S
C519 H522 0.950 . S
C520 C519 1.387 . S
C520 C523 1.387 . S
H521 C517 0.950 . S
H522 C519 0.950 . S
C523 C514 1.390 . S
C523 H516 0.950 . S
C523 C520 1.387 . S
C524 C525 1.387 . S
C524 H528 0.950 . S
C524 C533 1.390 . S
C525 C524 1.387 . S
C525 C527 1.387 . S
H526 C533 0.950 . S
C527 C525 1.387 . S
C527 C529 1.390 . S
C527 H531 0.950 . S
H528 C524 0.950 . S
C529 C527 1.390 . S
C529 C530 1.387 . S
C529 H532 0.950 . S
C530 C529 1.387 . S
C530 C533 1.387 . S
H531 C527 0.950 . S
H532 C529 0.950 . S
C533 C524 1.390 . S
C533 H526 0.950 . S
C533 C530 1.387 . S
C534 C535 1.387 . S
C534 H538 0.950 . S
C534 C543 1.390 . S
C535 C534 1.387 . S
C535 C537 1.387 . S
H536 C543 0.950 . S
C537 C535 1.387 . S
C537 C539 1.390 . S
C537 H541 0.950 . S
H538 C534 0.950 . S
C539 C537 1.390 . S
C539 C540 1.387 . S
C539 H542 0.950 . S
C540 C539 1.387 . S
C540 C543 1.387 . S
H541 C537 0.950 . S
H542 C539 0.950 . S
C543 C534 1.390 . S
C543 H536 0.950 . S
C543 C540 1.387 . S
C225 C8 1.245 1_655 S
C230 C64 1.245 1_655 S
C235 C78 1.244 1_565 S
C240 C22 1.244 1_565 S
C245 C36 1.244 . S
C250 C92 1.244 . S
C255 C50 1.244 . S
C260 C106 1.244 . S
C265 C120 1.245 1_455 S
C270 C176 1.245 1_455 S
C275 C190 1.245 1_545 S
C280 C134 1.245 1_545 S
C285 C148 1.243 . S
C290 C204 1.244 . S
C295 C162 1.244 . S
C300 C218 1.244 . S
C305 C7 1.449 1_556 S
C310 C219 1.463 . S
C315 C177 1.461 . S
C320 C21 1.448 . S
C325 C35 1.448 1_556 S
C330 C191 1.461 . S
C335 C205 1.462 . S
C340 C49 1.451 . S
C345 C135 1.461 . S
C350 C63 1.448 1_554 S
C355 C149 1.463 . S
C360 C77 1.449 . S
C365 C163 1.463 . S
C370 C91 1.449 1_554 S
C375 C121 1.461 . S
C380 C105 1.451 . S
C385 C119 1.448 1_554 S
C390 C107 1.461 . S
C395 C65 1.461 . S
C400 C133 1.450 . S
C405 C79 1.461 . S
C410 C147 1.449 1_554 S
C415 C161 1.448 . S
C420 C93 1.462 . S
C425 C23 1.463 . S
C430 C175 1.448 1_556 S
C435 C189 1.448 . S
C440 C37 1.463 . S
C445 C203 1.449 1_556 S
C450 C51 1.463 . S
C455 C217 1.448 . S
C460 C9 1.463 . S
C465 C101 1.275 . S
C470 C3 1.273 . S
C475 C17 1.273 . S
C480 C59 1.276 . S
C485 C31 1.276 . S
C490 C73 1.274 . S
C495 C45 1.274 . S
C500 C87 1.276 . S
C505 C213 1.276 . S
C510 C115 1.273 . S
C515 C171 1.276 . S
C520 C129 1.274 . S
C525 C185 1.273 . S
C530 C143 1.276 . S
C535 C199 1.276 . S
C540 C157 1.274 . S
