# Generated by pormake.
# Topology umg, (4)-cn, num edge types: 1
# Building blocks:
#     Node 0, Type 0, BuildingBlock: ESEHIV_clean_sbu_0, # of connection points: 4
#     Node 1, Type 0, BuildingBlock: ESEHIV_clean_sbu_0, # of connection points: 4
#     Node 2, Type 0, BuildingBlock: ESEHIV_clean_sbu_0, # of connection points: 4
#     Node 3, Type 0, BuildingBlock: ESEHIV_clean_sbu_0, # of connection points: 4
#     Node 4, Type 0, BuildingBlock: ESEHIV_clean_sbu_0, # of connection points: 4
#     Node 5, Type 0, BuildingBlock: ESEHIV_clean_sbu_0, # of connection points: 4
#     Node 6, Type 0, BuildingBlock: ESEHIV_clean_sbu_0, # of connection points: 4
#     Node 7, Type 0, BuildingBlock: ESEHIV_clean_sbu_0, # of connection points: 4
#     Node 8, Type 0, BuildingBlock: ESEHIV_clean_sbu_0, # of connection points: 4
#     Node 9, Type 0, BuildingBlock: ESEHIV_clean_sbu_0, # of connection points: 4
#     Node 10, Type 0, BuildingBlock: ESEHIV_clean_sbu_0, # of connection points: 4
#     Node 11, Type 0, BuildingBlock: ESEHIV_clean_sbu_0, # of connection points: 4
#     Edge 12, Type (0, 0), BuildingBlock: UVAHIK_clean_linker_0, # of connection points: 2
#     Edge 13, Type (0, 0), BuildingBlock: UVAHIK_clean_linker_0, # of connection points: 2
#     Edge 14, Type (0, 0), BuildingBlock: UVAHIK_clean_linker_0, # of connection points: 2
#     Edge 15, Type (0, 0), BuildingBlock: UVAHIK_clean_linker_0, # of connection points: 2
#     Edge 16, Type (0, 0), BuildingBlock: UVAHIK_clean_linker_0, # of connection points: 2
#     Edge 17, Type (0, 0), BuildingBlock: UVAHIK_clean_linker_0, # of connection points: 2
#     Edge 18, Type (0, 0), BuildingBlock: UVAHIK_clean_linker_0, # of connection points: 2
#     Edge 19, Type (0, 0), BuildingBlock: UVAHIK_clean_linker_0, # of connection points: 2
#     Edge 20, Type (0, 0), BuildingBlock: UVAHIK_clean_linker_0, # of connection points: 2
#     Edge 21, Type (0, 0), BuildingBlock: UVAHIK_clean_linker_0, # of connection points: 2
#     Edge 22, Type (0, 0), BuildingBlock: UVAHIK_clean_linker_0, # of connection points: 2
#     Edge 23, Type (0, 0), BuildingBlock: UVAHIK_clean_linker_0, # of connection points: 2
#     Edge 24, Type (0, 0), BuildingBlock: UVAHIK_clean_linker_0, # of connection points: 2
#     Edge 25, Type (0, 0), BuildingBlock: UVAHIK_clean_linker_0, # of connection points: 2
#     Edge 26, Type (0, 0), BuildingBlock: UVAHIK_clean_linker_0, # of connection points: 2
#     Edge 27, Type (0, 0), BuildingBlock: UVAHIK_clean_linker_0, # of connection points: 2
#     Edge 28, Type (0, 0), BuildingBlock: UVAHIK_clean_linker_0, # of connection points: 2
#     Edge 29, Type (0, 0), BuildingBlock: UVAHIK_clean_linker_0, # of connection points: 2
#     Edge 30, Type (0, 0), BuildingBlock: UVAHIK_clean_linker_0, # of connection points: 2
#     Edge 31, Type (0, 0), BuildingBlock: UVAHIK_clean_linker_0, # of connection points: 2
#     Edge 32, Type (0, 0), BuildingBlock: UVAHIK_clean_linker_0, # of connection points: 2
#     Edge 33, Type (0, 0), BuildingBlock: UVAHIK_clean_linker_0, # of connection points: 2
#     Edge 34, Type (0, 0), BuildingBlock: UVAHIK_clean_linker_0, # of connection points: 2
#     Edge 35, Type (0, 0), BuildingBlock: UVAHIK_clean_linker_0, # of connection points: 2
# Relax obj value: 0.032
# Max RMSD: 0.100
# Mean RMSD: 0.081
data_MOF--net-umg--node1-ESEHIV_clean_sbu_0--edge1-UVAHIK_clean_linker_0
_symmetry_space_group_name_H-M    P1
_symmetry_Int_Tables_number       1
_symmetry_cell_setting            triclinic
loop_
_symmetry_equiv_pos_as_xyz
'x, y, z'
_cell_length_a     37.768852
_cell_length_b     42.994143
_cell_length_c     113.85153
_cell_angle_alpha  89.595379
_cell_angle_beta   90.332115
_cell_angle_gamma 116.09425
loop_
_atom_site_label
_atom_site_type_symbol
_atom_site_fract_x
_atom_site_fract_y
_atom_site_fract_z
_atom_type_partial_charge
Cu0 Cu 0.30588 0.5696 0.11204 0.0
N1 N 0.28456 0.53712 0.1 0.0
N2 N 0.27129 0.5181 0.08148 0.0
C3 C 0.29183 0.54528 0.08855 0.0
C4 C 0.25018 0.49166 0.08885 0.0
C5 C 0.25828 0.50354 0.10027 0.0
O6 O 0.36257 0.59574 0.10933 0.0
C7 C 0.23998 0.57918 0.11584 0.0
O8 O 0.22907 0.54741 0.11969 0.0
H9 H 0.31199 0.57088 0.08553 0.0
H10 H 0.24524 0.48897 0.10817 0.0
N11 N 0.30103 0.55045 0.12708 0.0
N12 N 0.29972 0.54968 0.14675 0.0
C13 C 0.30387 0.56863 0.1369 0.0
C14 C 0.2953 0.5188 0.13076 0.0
C15 C 0.29442 0.51822 0.14292 0.0
C16 C 0.38037 0.57797 0.1061 0.0
O17 O 0.3598 0.54455 0.10443 0.0
H18 H 0.30944 0.59554 0.13672 0.0
H19 H 0.29213 0.49774 0.12506 0.0
O20 O 0.2749 0.596 0.11187 0.0
H21 H 0.22951 0.46587 0.0862 0.0
H22 H 0.28982 0.49621 0.14845 0.0
Cu23 Cu 0.75009 0.28937 0.432 0.0
N24 N 0.73668 0.24251 0.43047 0.0
N25 N 0.70121 0.18511 0.43145 0.0
C26 C 0.70224 0.21632 0.43368 0.0
C27 C 0.73663 0.19216 0.42668 0.0
C28 C 0.75847 0.22763 0.4261 0.0
O29 O 0.72097 0.29372 0.44538 0.0
C30 C 0.70679 0.28926 0.41173 0.0
O31 O 0.67898 0.26215 0.41687 0.0
H32 H 0.67818 0.2203 0.43733 0.0
H33 H 0.7881 0.24161 0.42274 0.0
N34 N 0.80351 0.31235 0.43551 0.0
N35 N 0.8649 0.35387 0.43737 0.0
C36 C 0.82968 0.34412 0.43201 0.0
C37 C 0.82282 0.30156 0.44325 0.0
C38 C 0.86073 0.32716 0.44444 0.0
C39 C 0.73204 0.32114 0.45147 0.0
O40 O 0.76157 0.34974 0.44776 0.0
H41 H 0.82245 0.36041 0.42613 0.0
H42 H 0.80975 0.2772 0.44798 0.0
O43 O 0.73914 0.3062 0.41716 0.0
H44 H 0.74631 0.17316 0.42388 0.0
H45 H 0.88325 0.32647 0.45021 0.0
Cu46 Cu 0.44412 0.73853 0.76277 0.0
N47 N 0.4081 0.69242 0.76048 0.0
N48 N 0.38966 0.63547 0.7589 0.0
C49 C 0.41693 0.66602 0.76303 0.0
C50 C 0.36237 0.64303 0.75352 0.0
C51 C 0.37387 0.67826 0.7545 0.0
O52 O 0.47059 0.73626 0.77732 0.0
C53 C 0.46089 0.75838 0.73952 0.0
O54 O 0.42714 0.75999 0.74059 0.0
H55 H 0.44436 0.66969 0.76717 0.0
H56 H 0.35939 0.6927 0.75064 0.0
N57 N 0.42009 0.76834 0.7647 0.0
N58 N 0.41269 0.81724 0.76568 0.0
C59 C 0.43655 0.80277 0.76252 0.0
C60 C 0.38458 0.76074 0.76936 0.0
C61 C 0.37994 0.7908 0.77 0.0
C62 C 0.47341 0.75476 0.78629 0.0
O63 O 0.46755 0.78253 0.78506 0.0
H64 H 0.46599 0.81706 0.75904 0.0
H65 H 0.36387 0.73524 0.77231 0.0
O66 O 0.47598 0.75089 0.74852 0.0
H67 H 0.33658 0.62468 0.74891 0.0
H68 H 0.35443 0.79299 0.77339 0.0
Cu69 Cu 0.78572 0.52927 0.10499 0.0
N70 N 0.78291 0.50827 0.09046 0.0
N71 N 0.77908 0.49837 0.07111 0.0
C72 C 0.78087 0.52065 0.07968 0.0
C73 C 0.78005 0.47102 0.07675 0.0
C74 C 0.78253 0.47725 0.08865 0.0
O75 O 0.75731 0.55745 0.10362 0.0
C76 C 0.86674 0.57489 0.10209 0.0
O77 O 0.855 0.58132 0.09186 0.0
H78 H 0.78032 0.54533 0.07818 0.0
H79 H 0.78406 0.4604 0.09553 0.0
N80 N 0.76009 0.4946 0.11618 0.0
N81 N 0.74405 0.46367 0.13287 0.0
C82 C 0.77016 0.4929 0.12748 0.0
C83 C 0.72651 0.46573 0.1144 0.0
C84 C 0.7166 0.44659 0.12463 0.0
C85 C 0.74765 0.57005 0.11244 0.0
O86 O 0.76067 0.56708 0.12292 0.0
H87 H 0.79622 0.51253 0.13161 0.0
H88 H 0.71028 0.45917 0.1062 0.0
O89 O 0.84108 0.55478 0.1093 0.0
H90 H 0.77967 0.44835 0.07256 0.0
H91 H 0.69074 0.42226 0.12594 0.0
Cu92 Cu 0.29971 0.75722 0.44188 0.0
N93 N 0.31667 0.8049 0.4425 0.0
N94 N 0.35731 0.8614 0.44246 0.0
C95 C 0.35442 0.829 0.44215 0.0
C96 C 0.31991 0.85752 0.443 0.0
C97 C 0.29487 0.8226 0.44295 0.0
O98 O 0.31907 0.74353 0.45586 0.0
C99 C 0.31403 0.71896 0.4231 0.0
O100 O 0.2986 0.6914 0.42989 0.0
H101 H 0.37923 0.82285 0.44167 0.0
H102 H 0.26304 0.81107 0.44301 0.0
N103 N 0.2449 0.73483 0.4429 0.0
N104 N 0.18338 0.69272 0.4424 0.0
C105 C 0.21982 0.70514 0.43771 0.0
C106 C 0.2235 0.74138 0.45107 0.0
C107 C 0.18554 0.71553 0.45076 0.0
C108 C 0.35421 0.74868 0.45814 0.0
O109 O 0.38152 0.76214 0.45005 0.0
H110 H 0.22872 0.69147 0.43133 0.0
H111 H 0.23538 0.76222 0.45736 0.0
O112 O 0.31773 0.74794 0.42693 0.0
H113 H 0.31124 0.87839 0.4431 0.0
H114 H 0.16191 0.71273 0.45666 0.0
Cu115 Cu 0.52003 0.27614 0.75577 0.0
N116 N 0.48477 0.29521 0.75271 0.0
N117 N 0.45715 0.33182 0.75145 0.0
C118 C 0.48721 0.32626 0.75593 0.0
C119 C 0.43505 0.303 0.74525 0.0
C120 C 0.45218 0.28066 0.74602 0.0
O121 O 0.55131 0.2988 0.7696 0.0
C122 C 0.56491 0.31031 0.73586 0.0
O123 O 0.56203 0.33713 0.74038 0.0
H124 H 0.51118 0.34474 0.76115 0.0
H125 H 0.44185 0.25561 0.74187 0.0
N126 N 0.4905 0.2287 0.75902 0.0
N127 N 0.46908 0.17116 0.76023 0.0
C128 C 0.49944 0.20186 0.75727 0.0
C129 C 0.45363 0.21445 0.76334 0.0
C130 C 0.44033 0.17914 0.76405 0.0
C131 C 0.58791 0.31958 0.76981 0.0
O132 O 0.6083 0.32659 0.76003 0.0
H133 H 0.52714 0.20467 0.75366 0.0
H134 H 0.43736 0.22882 0.76571 0.0
O135 O 0.55062 0.28171 0.74149 0.0
H136 H 0.40828 0.29822 0.7405 0.0
H137 H 0.41172 0.16071 0.76721 0.0
Cu138 Cu 0.5385 0.76508 0.59463 0.0
N139 N 0.56629 0.81298 0.5932 0.0
N140 N 0.5772 0.8684 0.59203 0.0
C141 C 0.55061 0.83498 0.59076 0.0
C142 C 0.61098 0.8672 0.59535 0.0
C143 C 0.60408 0.83301 0.59612 0.0
O144 O 0.50416 0.74804 0.58104 0.0
C145 C 0.49309 0.72914 0.61534 0.0
O146 O 0.48219 0.69954 0.60988 0.0
H147 H 0.51995 0.82646 0.58848 0.0
H148 H 0.62462 0.82343 0.59919 0.0
N149 N 0.57369 0.74531 0.59394 0.0
N150 N 0.59551 0.70471 0.59391 0.0
C151 C 0.5676 0.71367 0.59779 0.0
C152 C 0.60671 0.75677 0.58742 0.0
C153 C 0.62026 0.73179 0.5874 0.0
C154 C 0.47268 0.7508 0.57872 0.0
O155 O 0.45758 0.76352 0.58665 0.0
H156 H 0.54171 0.69636 0.60254 0.0
H157 H 0.6187 0.78067 0.58244 0.0
O158 O 0.51367 0.75745 0.61 0.0
H159 H 0.6382 0.88927 0.59769 0.0
H160 H 0.64529 0.7328 0.58253 0.0
Cu161 Cu 0.75938 0.46118 0.91542 0.0
N162 N 0.77107 0.49506 0.92699 0.0
N163 N 0.77605 0.5158 0.94524 0.0
C164 C 0.76796 0.48764 0.93855 0.0
C165 C 0.78474 0.54213 0.93749 0.0
C166 C 0.78149 0.52921 0.92623 0.0
O167 O 0.79307 0.43763 0.91795 0.0
C168 C 0.6832 0.44996 0.91331 0.0
O169 O 0.70305 0.48223 0.9098 0.0
H170 H 0.76001 0.46184 0.94192 0.0
H171 H 0.78574 0.54355 0.9181 0.0
N172 N 0.76855 0.47803 0.89998 0.0
N173 N 0.75978 0.47619 0.88048 0.0
C174 C 0.7471 0.45956 0.89082 0.0
C175 C 0.79629 0.50745 0.89532 0.0
C176 C 0.79094 0.50637 0.88325 0.0
C177 C 0.82841 0.45647 0.92131 0.0
O178 O 0.83943 0.48946 0.92335 0.0
H179 H 0.72307 0.4339 0.89177 0.0
H180 H 0.81897 0.52796 0.90029 0.0
O181 O 0.70232 0.43319 0.91659 0.0
H182 H 0.792 0.56866 0.93975 0.0
H183 H 0.80852 0.52629 0.87704 0.0
Cu184 Cu 0.30798 0.73937 0.27666 0.0
N185 N 0.25331 0.71787 0.27847 0.0
N186 N 0.19103 0.67696 0.27859 0.0
C187 C 0.22748 0.68711 0.27409 0.0
C188 C 0.19402 0.70241 0.28597 0.0
C189 C 0.23245 0.72764 0.28585 0.0
O190 O 0.32085 0.71885 0.26311 0.0
C191 C 0.31498 0.70775 0.29781 0.0
O192 O 0.28487 0.68081 0.29345 0.0
H193 H 0.23572 0.6715 0.26832 0.0
H194 H 0.2448 0.75078 0.29117 0.0
N195 N 0.32395 0.78613 0.27308 0.0
N196 N 0.3608 0.84291 0.27029 0.0
C197 C 0.35852 0.8137 0.27549 0.0
C198 C 0.30375 0.79839 0.26624 0.0
C199 C 0.32637 0.83333 0.26448 0.0
C200 C 0.3211 0.68938 0.26257 0.0
O201 O 0.3155 0.67067 0.27215 0.0
H202 H 0.38212 0.8121 0.2805 0.0
H203 H 0.27499 0.78271 0.2625 0.0
O204 O 0.33119 0.73523 0.29161 0.0
H205 H 0.17035 0.7023 0.29132 0.0
H206 H 0.31835 0.85031 0.2592 0.0
Cu207 Cu 0.56972 0.28112 0.59076 0.0
N208 N 0.53752 0.23361 0.5893 0.0
N209 N 0.52069 0.17686 0.58973 0.0
C210 C 0.5476 0.20874 0.59291 0.0
C211 C 0.49183 0.18176 0.58421 0.0
C212 C 0.50228 0.21682 0.58396 0.0
O213 O 0.60931 0.29643 0.57832 0.0
C214 C 0.61498 0.316 0.61138 0.0
O215 O 0.63162 0.34416 0.60492 0.0
H216 H 0.57494 0.21415 0.59745 0.0
H217 H 0.48578 0.22907 0.57986 0.0
N218 N 0.54048 0.30602 0.58825 0.0
N219 N 0.52741 0.35188 0.58767 0.0
C220 C 0.54513 0.33536 0.59365 0.0
C221 C 0.51888 0.30388 0.57858 0.0
C222 C 0.51061 0.332 0.57822 0.0
C223 C 0.62234 0.27708 0.57337 0.0
O224 O 0.61415 0.24657 0.57792 0.0
H225 H 0.5642 0.34615 0.60116 0.0
H226 H 0.51274 0.28503 0.57168 0.0
O227 O 0.59029 0.28797 0.60673 0.0
H228 H 0.46601 0.16168 0.58013 0.0
H229 H 0.49581 0.33857 0.57114 0.0
Cu230 Cu 0.29032 0.51384 0.92202 0.0
N231 N 0.30784 0.53376 0.93674 0.0
N232 N 0.31214 0.54277 0.95613 0.0
C233 C 0.29209 0.52111 0.94733 0.0
C234 C 0.34153 0.57004 0.95083 0.0
C235 C 0.33882 0.56437 0.93889 0.0
O236 O 0.23326 0.48706 0.92291 0.0
C237 C 0.32236 0.46598 0.92533 0.0
O238 O 0.30347 0.46001 0.93537 0.0
H239 H 0.26615 0.49676 0.94852 0.0
H240 H 0.35805 0.58137 0.93222 0.0
N241 N 0.30192 0.54975 0.91112 0.0
N242 N 0.32768 0.58729 0.89626 0.0
C243 C 0.32547 0.55821 0.90158 0.0
C244 C 0.2887 0.57403 0.9118 0.0
C245 C 0.30447 0.59716 0.90269 0.0
C246 C 0.21093 0.47617 0.91394 0.0
O247 O 0.22688 0.48021 0.90348 0.0
H248 H 0.34129 0.54383 0.89876 0.0
H249 H 0.26915 0.57493 0.91855 0.0
O250 O 0.31863 0.48689 0.91801 0.0
H251 H 0.36375 0.59231 0.95527 0.0
H252 H 0.29899 0.61941 0.90088 0.0
Cu253 Cu 0.7439 0.2863 0.26587 0.0
N254 N 0.79838 0.30401 0.26813 0.0
N255 N 0.86154 0.34243 0.26991 0.0
C256 C 0.82659 0.33509 0.26469 0.0
C257 C 0.85524 0.31475 0.27675 0.0
C258 C 0.81631 0.29105 0.27559 0.0
O259 O 0.73327 0.30817 0.25211 0.0
C260 C 0.73944 0.31859 0.28701 0.0
O261 O 0.77259 0.34354 0.28321 0.0
H262 H 0.82097 0.35316 0.25925 0.0
H263 H 0.80144 0.26704 0.28043 0.0
N264 N 0.72364 0.23901 0.26263 0.0
N265 N 0.68379 0.18226 0.26168 0.0
C266 C 0.69147 0.21241 0.26714 0.0
C267 C 0.73679 0.22514 0.25415 0.0
C268 C 0.71226 0.19021 0.25352 0.0
C269 C 0.74102 0.34002 0.251 0.0
O270 O 0.75505 0.3608 0.26002 0.0
H271 H 0.67313 0.21536 0.27389 0.0
H272 H 0.76187 0.23971 0.24859 0.0
O273 O 0.72084 0.29241 0.28047 0.0
H274 H 0.87677 0.31253 0.28258 0.0
H275 H 0.71481 0.1721 0.24742 0.0
C276 C 0.28637 0.50463 0.97357 0.0
C277 C 0.3041 0.53801 0.96857 0.0
C278 C 0.27958 0.50021 0.98569 0.0
C279 C 0.26861 0.5448 1.01206 0.0
H280 H 0.29768 0.48132 0.02928 0.0
C281 C 0.28287 0.54919 0.06243 0.0
C282 C 0.27131 0.51805 0.06877 0.0
C283 C 0.28385 0.54952 0.05016 0.0
C284 C 0.28879 0.49875 0.0246 0.0
H285 H 0.32773 0.59281 0.97238 0.0
H286 H 0.31603 0.58515 0.99346 0.0
H287 H 0.30457 0.48559 1.00794 0.0
H288 H 0.2514 0.46268 0.06701 0.0
H289 H 0.25226 0.46314 0.04557 0.0
H290 H 0.2528 0.55805 0.02864 0.0
C291 C 0.30731 0.56237 0.98802 0.0
C292 C 0.29281 0.50124 1.01236 0.0
C293 C 0.3144 0.56679 0.97595 0.0
C294 C 0.26024 0.48711 0.06246 0.0
C295 C 0.26114 0.48743 0.05014 0.0
C296 C 0.26437 0.54219 0.02427 0.0
C297 C 0.28996 0.52905 0.99306 0.0
C298 C 0.28332 0.52467 1.00597 0.0
C299 C 0.27306 0.51869 0.04384 0.0
C300 C 0.27498 0.51954 0.03074 0.0
H301 H 0.27839 0.48195 0.96814 0.0
H302 H 0.26594 0.47419 0.98928 0.0
H303 H 0.26033 0.56265 1.00738 0.0
H304 H 0.29103 0.57349 0.0669 0.0
H305 H 0.29372 0.57416 0.04565 0.0
C306 C 0.66987 0.27404 0.39262 0.0
C307 C 0.70269 0.29671 0.39917 0.0
C308 C 0.6681 0.27836 0.38048 0.0
C309 C 0.7108 0.34034 0.35588 0.0
H310 H 0.68486 0.25762 0.33743 0.0
C311 C 0.75138 0.3458 0.30691 0.0
C312 C 0.72736 0.31889 0.29939 0.0
C313 C 0.74314 0.3444 0.31891 0.0
C314 C 0.69139 0.28092 0.3424 0.0
H315 H 0.75852 0.34273 0.39813 0.0
H316 H 0.75528 0.35038 0.37694 0.0
H317 H 0.67995 0.25331 0.35873 0.0
H318 H 0.67459 0.27014 0.29852 0.0
H319 H 0.65959 0.26807 0.31943 0.0
H320 H 0.72246 0.36802 0.33956 0.0
C321 C 0.73091 0.32924 0.38122 0.0
C322 C 0.68868 0.27843 0.35464 0.0
C323 C 0.73283 0.32477 0.39336 0.0
C324 C 0.69382 0.29124 0.30407 0.0
C325 C 0.68542 0.28993 0.31609 0.0
C326 C 0.7132 0.34281 0.34362 0.0
C327 C 0.69893 0.30562 0.3746 0.0
C328 C 0.69892 0.30817 0.36155 0.0
C329 C 0.71046 0.31615 0.32372 0.0
C330 C 0.70417 0.3132 0.33671 0.0
H331 H 0.64604 0.2522 0.39679 0.0
H332 H 0.64282 0.26001 0.37565 0.0
H333 H 0.71838 0.36366 0.36095 0.0
H334 H 0.77752 0.3675 0.30364 0.0
H335 H 0.76346 0.36486 0.32447 0.0
C336 C 0.47305 0.78288 0.71931 0.0
C337 C 0.47684 0.76019 0.7276 0.0
C338 C 0.48034 0.78035 0.70742 0.0
C339 C 0.47049 0.71626 0.68579 0.0
H340 H 0.53077 0.79482 0.66568 0.0
C341 C 0.48322 0.70211 0.63542 0.0
C342 C 0.48718 0.73003 0.62817 0.0
C343 C 0.48355 0.70509 0.64767 0.0
C344 C 0.51323 0.77262 0.67111 0.0
H345 H 0.49206 0.71755 0.73005 0.0
H346 H 0.504 0.71254 0.7091 0.0
H347 H 0.53191 0.80259 0.68688 0.0
H348 H 0.49238 0.78227 0.62807 0.0
H349 H 0.49087 0.7869 0.64931 0.0
H350 H 0.45014 0.68652 0.67008 0.0
C351 C 0.49594 0.7326 0.71188 0.0
C352 C 0.51432 0.77709 0.68328 0.0
C353 C 0.48955 0.7357 0.72385 0.0
C354 C 0.48959 0.76037 0.63342 0.0
C355 C 0.48923 0.76315 0.64564 0.0
C356 C 0.46885 0.71186 0.67358 0.0
C357 C 0.49064 0.7545 0.70353 0.0
C358 C 0.49272 0.74904 0.69074 0.0
C359 C 0.48725 0.73591 0.65297 0.0
C360 C 0.48985 0.74009 0.66604 0.0
H361 H 0.46297 0.80179 0.72197 0.0
H362 H 0.47579 0.79742 0.70119 0.0
H363 H 0.4531 0.69428 0.69133 0.0
H364 H 0.48174 0.67851 0.63164 0.0
H365 H 0.48232 0.68362 0.65296 0.0
C366 C 0.75799 0.4737 0.0513 0.0
C367 C 0.77693 0.50271 0.05858 0.0
C368 C 0.75659 0.47763 0.03913 0.0
C369 C 0.8077 0.53649 1.01473 0.0
H370 H 0.71132 0.4817 0.99763 0.0
C371 C 0.79571 0.54799 0.96409 0.0
C372 C 0.77474 0.51688 0.95794 0.0
C373 C 0.79502 0.54858 0.9764 0.0
C374 C 0.73864 0.49696 1.00223 0.0
H375 H 0.80941 0.55865 0.05872 0.0
H376 H 0.80703 0.56555 0.03741 0.0
H377 H 0.71198 0.47828 0.01899 0.0
H378 H 0.73567 0.46215 0.96009 0.0
H379 H 0.73553 0.46298 0.98134 0.0
H380 H 0.83467 0.55454 0.99796 0.0
C381 C 0.79326 0.53974 0.04116 0.0
C382 C 0.73895 0.49504 1.0145 0.0
C383 C 0.79432 0.53582 0.05337 0.0
C384 C 0.75274 0.48654 0.96444 0.0
C385 C 0.75215 0.48711 0.9767 0.0
C386 C 0.80749 0.53824 1.00243 0.0
C387 C 0.77437 0.51066 0.0339 0.0
C388 C 0.77358 0.51445 0.02089 0.0
C389 C 0.77331 0.51809 0.98288 0.0
C390 C 0.77306 0.51813 0.99601 0.0
H391 H 0.74398 0.44788 0.05503 0.0
H392 H 0.74212 0.45466 0.03379 0.0
H393 H 0.83497 0.55155 0.01939 0.0
H394 H 0.81316 0.57184 0.95942 0.0
H395 H 0.81136 0.57301 0.98084 0.0
C396 C 0.34704 0.73846 0.31648 0.0
C397 C 0.32552 0.70743 0.31038 0.0
C398 C 0.35163 0.73817 0.32871 0.0
C399 C 0.30284 0.68358 0.35459 0.0
H400 H 0.39432 0.74974 0.37135 0.0
C401 C 0.31083 0.68351 0.40528 0.0
C402 C 0.32313 0.71605 0.41059 0.0
C403 C 0.31571 0.681 0.39318 0.0
C404 C 0.36851 0.73116 0.36679 0.0
H405 H 0.29422 0.65161 0.31222 0.0
H406 H 0.30316 0.651 0.33338 0.0
H407 H 0.39517 0.74802 0.34991 0.0
H408 H 0.35183 0.77151 0.40741 0.0
H409 H 0.36027 0.7671 0.38641 0.0
H410 H 0.27602 0.66698 0.37143 0.0
C411 C 0.31548 0.6757 0.32884 0.0
C412 C 0.36895 0.73022 0.35449 0.0
C413 C 0.31062 0.67603 0.31666 0.0
C414 C 0.34189 0.746 0.40362 0.0
C415 C 0.34697 0.74349 0.39156 0.0
C416 C 0.30249 0.68441 0.36686 0.0
C417 C 0.33505 0.70682 0.33509 0.0
C418 C 0.33594 0.70663 0.34821 0.0
C419 C 0.33326 0.71097 0.38614 0.0
C420 C 0.33512 0.70845 0.37312 0.0
H421 H 0.35876 0.76313 0.31191 0.0
H422 H 0.36663 0.76269 0.33319 0.0
H423 H 0.27652 0.66553 0.3501 0.0
H424 H 0.29634 0.65991 0.41038 0.0
H425 H 0.30526 0.65554 0.38931 0.0
C426 C 0.57434 0.28257 0.71752 0.0
C427 C 0.58061 0.31261 0.72379 0.0
C428 C 0.58507 0.28468 0.70567 0.0
C429 C 0.60409 0.34287 0.67982 0.0
H430 H 0.63808 0.27907 0.66547 0.0
C431 C 0.63854 0.34923 0.63022 0.0
C432 C 0.62082 0.31736 0.62432 0.0
C433 C 0.6397 0.35029 0.64252 0.0
C434 C 0.62851 0.29702 0.66935 0.0
H435 H 0.60509 0.36859 0.7227 0.0
H436 H 0.6247 0.37236 0.70222 0.0
H437 H 0.62943 0.278 0.68674 0.0
H438 H 0.59209 0.26159 0.62675 0.0
H439 H 0.59428 0.26349 0.64812 0.0
H440 H 0.60286 0.36168 0.66244 0.0
C441 C 0.61046 0.34703 0.70631 0.0
C442 C 0.62343 0.29635 0.68154 0.0
C443 C 0.59946 0.34489 0.71811 0.0
C444 C 0.60587 0.2866 0.631 0.0
C445 C 0.60732 0.28767 0.64327 0.0
C446 C 0.60941 0.34368 0.66766 0.0
C447 C 0.6026 0.31691 0.69983 0.0
C448 C 0.61066 0.31899 0.68694 0.0
C449 C 0.62351 0.31952 0.6492 0.0
C450 C 0.62119 0.32048 0.66224 0.0
H451 H 0.55975 0.25727 0.72161 0.0
H452 H 0.57815 0.26087 0.70098 0.0
H453 H 0.59352 0.36028 0.68358 0.0
H454 H 0.65033 0.3734 0.62535 0.0
H455 H 0.65279 0.37525 0.64682 0.0
C456 C 0.32091 0.69188 0.24056 0.0
C457 C 0.32292 0.67473 0.25093 0.0
C458 C 0.31884 0.67678 0.2296 0.0
C459 C 0.33899 0.61234 0.21361 0.0
H460 H 0.25921 0.61288 0.19214 0.0
C461 C 0.30885 0.54392 0.1682 0.0
C462 C 0.30083 0.56115 0.15874 0.0
C463 C 0.31077 0.55579 0.17974 0.0
C464 C 0.28201 0.61284 0.19794 0.0
H465 H 0.32572 0.6287 0.25783 0.0
H466 H 0.32263 0.60252 0.23858 0.0
H467 H 0.26592 0.63828 0.21153 0.0
H468 H 0.28755 0.60408 0.15423 0.0
H469 H 0.29239 0.62529 0.17406 0.0
H470 H 0.35574 0.58762 0.1999 0.0
C471 C 0.3225 0.62763 0.239 0.0
C472 C 0.28575 0.62736 0.20908 0.0
C473 C 0.32417 0.6426 0.25002 0.0
C474 C 0.29444 0.59032 0.16118 0.0
C475 C 0.2966 0.60226 0.17265 0.0
C476 C 0.33551 0.59808 0.20238 0.0
C477 C 0.31908 0.64429 0.22869 0.0
C478 C 0.31453 0.62761 0.21701 0.0
C479 C 0.30476 0.58521 0.18212 0.0
C480 C 0.30724 0.5985 0.19434 0.0
H481 H 0.31993 0.71666 0.2409 0.0
H482 H 0.3168 0.69049 0.2218 0.0
H483 H 0.36155 0.61229 0.21952 0.0
H484 H 0.31417 0.52152 0.1667 0.0
H485 H 0.3167 0.54173 0.1868 0.0
C486 C 0.72591 0.34939 0.47011 0.0
C487 C 0.71629 0.31922 0.4635 0.0
C488 C 0.71472 0.34723 0.48191 0.0
C489 C 0.65006 0.28474 0.50462 0.0
H490 H 0.72378 0.35069 0.52646 0.0
C491 C 0.64171 0.25992 0.5544 0.0
C492 C 0.63959 0.28584 0.56142 0.0
C493 C 0.65213 0.26623 0.54257 0.0
C494 C 0.70286 0.33226 0.52043 0.0
H495 H 0.68669 0.26308 0.4641 0.0
H496 H 0.6684 0.25923 0.48462 0.0
H497 H 0.73793 0.35723 0.50543 0.0
H498 H 0.64885 0.33933 0.56163 0.0
H499 H 0.66827 0.35059 0.54093 0.0
H500 H 0.61592 0.25905 0.51973 0.0
C501 C 0.68364 0.28471 0.4807 0.0
C502 C 0.71074 0.33607 0.50836 0.0
C503 C 0.69433 0.28689 0.46888 0.0
C504 C 0.65019 0.31881 0.55646 0.0
C505 C 0.66129 0.32529 0.54463 0.0
C506 C 0.64259 0.28063 0.51667 0.0
C507 C 0.69406 0.31482 0.48745 0.0
C508 C 0.6846 0.31216 0.50027 0.0
C509 C 0.66132 0.29874 0.53751 0.0
C510 C 0.66904 0.30415 0.52471 0.0
H511 H 0.74269 0.37472 0.46621 0.0
H512 H 0.72261 0.37103 0.48671 0.0
H513 H 0.62865 0.26628 0.49872 0.0
H514 H 0.63372 0.23421 0.5579 0.0
H515 H 0.65239 0.24544 0.5373 0.0
C516 C 0.4736 0.75995 0.80821 0.0
C517 C 0.47276 0.74044 0.79826 0.0
C518 C 0.46466 0.74446 0.81933 0.0
C519 C 0.44872 0.66555 0.83673 0.0
H520 H 0.37569 0.68939 0.85383 0.0
C521 C 0.35722 0.58624 0.87691 0.0
C522 C 0.35 0.60475 0.88597 0.0
C523 C 0.37631 0.60316 0.86656 0.0
C524 C 0.39654 0.68273 0.8493 0.0
H525 H 0.46445 0.68974 0.7924 0.0
H526 H 0.44869 0.66274 0.8118 0.0
H527 H 0.40348 0.71882 0.83549 0.0
H528 H 0.35948 0.65592 0.89154 0.0
H529 H 0.39297 0.68536 0.87372 0.0
H530 H 0.44125 0.62908 0.85058 0.0
C531 C 0.45641 0.69009 0.81101 0.0
C532 C 0.41257 0.69971 0.83874 0.0
C533 C 0.46547 0.70562 0.79986 0.0
C534 C 0.36368 0.64072 0.88464 0.0
C535 C 0.38289 0.65761 0.87438 0.0
C536 C 0.43269 0.64854 0.84735 0.0
C537 C 0.45451 0.70902 0.82082 0.0
C538 C 0.43892 0.69145 0.8323 0.0
C539 C 0.38879 0.63903 0.86509 0.0
C540 C 0.4064 0.65697 0.85379 0.0
H541 H 0.47942 0.78687 0.80734 0.0
H542 H 0.46445 0.76006 0.82674 0.0
H543 H 0.46906 0.65864 0.83203 0.0
H544 H 0.34689 0.55849 0.87764 0.0
H545 H 0.38007 0.58793 0.85958 0.0
C546 C 0.72646 0.41736 0.14787 0.0
C547 C 0.7446 0.45274 0.14488 0.0
C548 C 0.72556 0.40656 0.15952 0.0
C549 C 0.773 0.43525 0.18868 0.0
H550 H 0.67861 0.3572 0.1998 0.0
C551 C 0.75299 0.38995 0.23736 0.0
C552 C 0.73784 0.35403 0.23928 0.0
C553 C 0.75265 0.40317 0.2261 0.0
C554 C 0.7053 0.37887 0.19681 0.0
H555 H 0.77622 0.50452 0.15189 0.0
H556 H 0.77444 0.48573 0.17228 0.0
H557 H 0.68095 0.37823 0.17976 0.0
H558 H 0.70965 0.30385 0.23084 0.0
H559 H 0.70895 0.32685 0.21127 0.0
H560 H 0.79725 0.4358 0.20579 0.0
C561 C 0.76132 0.46626 0.16556 0.0
C562 C 0.70671 0.39092 0.1853 0.0
C563 C 0.76236 0.47707 0.15386 0.0
C564 C 0.72151 0.33165 0.22971 0.0
C565 C 0.72095 0.34484 0.21847 0.0
C566 C 0.77152 0.42326 0.20023 0.0
C567 C 0.74263 0.43083 0.16856 0.0
C568 C 0.74073 0.41903 0.18101 0.0
C569 C 0.73688 0.38078 0.21649 0.0
C570 C 0.73778 0.3947 0.2044 0.0
H571 H 0.71319 0.39785 0.14117 0.0
H572 H 0.71174 0.37905 0.16142 0.0
H573 H 0.79986 0.45667 0.18567 0.0
H574 H 0.76584 0.40796 0.24452 0.0
H575 H 0.76474 0.43096 0.22491 0.0
C576 C 0.47813 0.73777 0.55757 0.0
C577 C 0.45661 0.74393 0.56657 0.0
C578 C 0.46558 0.73483 0.54589 0.0
C579 C 0.38034 0.71614 0.52669 0.0
H580 H 0.45862 0.77345 0.50407 0.0
C581 C 0.33775 0.73735 0.47951 0.0
C582 C 0.36461 0.74297 0.4703 0.0
C583 C 0.34823 0.73472 0.49114 0.0
C584 C 0.43646 0.75671 0.51017 0.0
H585 H 0.40404 0.75044 0.57031 0.0
H586 H 0.38169 0.74461 0.54984 0.0
H587 H 0.47738 0.77323 0.52454 0.0
H588 H 0.42316 0.74898 0.4661 0.0
H589 H 0.44104 0.74309 0.48635 0.0
H590 H 0.33952 0.69901 0.51235 0.0
C591 C 0.40848 0.74231 0.5519 0.0
C592 C 0.44724 0.75677 0.52195 0.0
C593 C 0.42133 0.74573 0.56362 0.0
C594 C 0.40186 0.74486 0.47299 0.0
C595 C 0.41219 0.74177 0.48464 0.0
C596 C 0.36964 0.71567 0.51487 0.0
C597 C 0.43092 0.73751 0.54289 0.0
C598 C 0.41927 0.73668 0.53035 0.0
C599 C 0.38572 0.73717 0.49391 0.0
C600 C 0.39748 0.73619 0.50644 0.0
H601 H 0.50542 0.73619 0.55949 0.0
H602 H 0.48323 0.73071 0.53916 0.0
H603 H 0.35826 0.70009 0.53295 0.0
H604 H 0.30887 0.736 0.4778 0.0
H605 H 0.32719 0.73182 0.49798 0.0
C606 C 0.70379 0.43901 0.86784 0.0
C607 C 0.74348 0.46333 0.86901 0.0
C608 C 0.68831 0.42472 0.85692 0.0
C609 C 0.70444 0.43697 0.82482 0.0
H610 H 0.6346 0.33859 0.82409 0.0
C611 C 0.64685 0.36099 0.78127 0.0
C612 C 0.60709 0.33631 0.78101 0.0
C613 C 0.66465 0.37706 0.79182 0.0
C614 C 0.6537 0.36616 0.82413 0.0
H615 H 0.79771 0.49228 0.85943 0.0
H616 H 0.77062 0.4673 0.8403 0.0
H617 H 0.66343 0.36602 0.84265 0.0
H618 H 0.5549 0.30933 0.79169 0.0
H619 H 0.58578 0.33735 0.81 0.0
H620 H 0.69455 0.43699 0.80625 0.0
C621 C 0.75144 0.45943 0.84788 0.0
C622 C 0.67026 0.38193 0.8348 0.0
C623 C 0.767 0.47379 0.85886 0.0
C624 C 0.58561 0.32809 0.79156 0.0
C625 C 0.60341 0.34405 0.80209 0.0
C626 C 0.68783 0.42115 0.81412 0.0
C627 C 0.71202 0.43432 0.84682 0.0
C628 C 0.69557 0.4176 0.83532 0.0
C629 C 0.64317 0.36874 0.80238 0.0
C630 C 0.66197 0.38558 0.81366 0.0
H631 H 0.68449 0.43098 0.87539 0.0
H632 H 0.65758 0.40613 0.8564 0.0
H633 H 0.7235 0.46454 0.8249 0.0
H634 H 0.6643 0.368 0.77332 0.0
H635 H 0.69541 0.39568 0.79173 0.0
C636 C 0.93782 0.60738 0.0962 0.0
C637 C 0.90949 0.58713 0.10452 0.0
C638 C 0.97775 0.6157 0.09785 0.0
C639 C 0.05083 0.61634 0.12019 0.0
H640 H 0.10531 0.60407 0.09315 0.0
C641 C 0.17967 0.58034 0.12393 0.0
C642 C 0.21043 0.59309 0.1157 0.0
C643 C 0.14775 0.58833 0.12298 0.0
C644 C 0.09091 0.60835 0.10075 0.0
H645 H 0.90135 0.56084 0.12133 0.0
H646 H 0.97071 0.57496 0.12414 0.0
H647 H 0.03982 0.60125 0.09073 0.0
H648 H 0.2327 0.62541 0.10025 0.0
H649 H 0.17628 0.6393 0.09848 0.0
H650 H 0.10141 0.6221 0.13027 0.0
C651 C 0.96223 0.58482 0.11639 0.0
C652 C 0.05324 0.60669 0.09937 0.0
C653 C 0.92231 0.57654 0.11474 0.0
C654 C 0.2095 0.61541 0.10676 0.0
C655 C 0.17707 0.62308 0.1057 0.0
C656 C 0.08843 0.61791 0.12157 0.0
C657 C 0.99042 0.60398 0.10786 0.0
C658 C 0.03229 0.60982 0.10912 0.0
C659 C 0.14545 0.60903 0.11369 0.0
C660 C 0.10853 0.61306 0.11192 0.0
H661 H 0.92907 0.61614 0.08825 0.0
H662 H 0.99866 0.63095 0.09119 0.0
H663 H 0.03599 0.61962 0.12786 0.0
H664 H 0.1796 0.56312 0.13094 0.0
H665 H 0.12384 0.57673 0.12921 0.0
C666 C 0.63854 0.14774 0.4414 0.0
C667 C 0.66849 0.1516 0.4334 0.0
C668 C 0.60575 0.11583 0.44283 0.0
C669 C 0.56967 0.02228 0.43876 0.0
H670 H 0.46664 0.02155 0.43787 0.0
C671 C 0.42579 0.89541 0.43572 0.0
C672 C 0.39279 0.89341 0.44192 0.0
C673 C 0.45997 0.92664 0.435 0.0
C674 C 0.49515 0.02128 0.43832 0.0
H675 H 0.68745 0.12435 0.42081 0.0
H676 H 0.63045 0.06851 0.42349 0.0
H677 H 0.52566 0.07633 0.43626 0.0
H678 H 0.37003 0.92226 0.45246 0.0
H679 H 0.42987 0.97666 0.45141 0.0
H680 H 0.53928 0.9673 0.44097 0.0
C681 C 0.63256 0.09036 0.42864 0.0
C682 C 0.52896 0.05268 0.43737 0.0
C683 C 0.66527 0.12239 0.42713 0.0
C684 C 0.39481 0.92318 0.44748 0.0
C685 C 0.4291 0.95435 0.44685 0.0
C686 C 0.53584 0.99085 0.43982 0.0
C687 C 0.60225 0.0869 0.43639 0.0
C688 C 0.56654 0.0535 0.43755 0.0
C689 C 0.46203 0.95653 0.44054 0.0
C690 C 0.49814 0.98996 0.43959 0.0
H691 H 0.6403 0.16932 0.4466 0.0
H692 H 0.58311 0.11375 0.44902 0.0
H693 H 0.59832 0.02222 0.43904 0.0
H694 H 0.42489 0.87301 0.4312 0.0
H695 H 0.48447 0.92748 0.42989 0.0
C696 C 0.46571 0.38485 0.7622 0.0
C697 C 0.45034 0.36228 0.75262 0.0
C698 C 0.45828 0.41391 0.76338 0.0
C699 C 0.38959 0.44961 0.75333 0.0
H700 H 0.47252 0.53729 0.76359 0.0
C701 C 0.37562 0.57854 0.75006 0.0
C702 C 0.39246 0.60296 0.75907 0.0
C703 C 0.38129 0.54844 0.74976 0.0
C704 C 0.44881 0.51291 0.76086 0.0
H705 H 0.4161 0.35361 0.73656 0.0
H706 H 0.40324 0.40388 0.73862 0.0
H707 H 0.48565 0.48677 0.7622 0.0
H708 H 0.42683 0.61384 0.77513 0.0
H709 H 0.43645 0.56144 0.77466 0.0
H710 H 0.3528 0.47575 0.75194 0.0
C711 C 0.42032 0.39877 0.74538 0.0
C712 C 0.45639 0.48389 0.76006 0.0
C713 C 0.42775 0.36983 0.7442 0.0
C714 C 0.41407 0.59596 0.76794 0.0
C715 C 0.41967 0.56589 0.76765 0.0
C716 C 0.38201 0.47861 0.75414 0.0
C717 C 0.43528 0.42114 0.75501 0.0
C718 C 0.42695 0.45188 0.75622 0.0
C719 C 0.40383 0.54192 0.75847 0.0
C720 C 0.41156 0.51072 0.75786 0.0
H721 H 0.48287 0.37975 0.76892 0.0
H722 H 0.46997 0.43036 0.77098 0.0
H723 H 0.36598 0.42526 0.75053 0.0
H724 H 0.35921 0.58321 0.74301 0.0
H725 H 0.36898 0.5308 0.74248 0.0
C726 C 0.56238 0.14595 0.59052 0.0
C727 C 0.52477 0.14514 0.5906 0.0
C728 C 0.5666 0.11532 0.59091 0.0
C729 C 0.51278 0.02143 0.5852 0.0
H730 H 0.59912 0.01832 0.60297 0.0
C731 C 0.53168 0.89595 0.59244 0.0
C732 C 0.57007 0.89873 0.59128 0.0
C733 C 0.52509 0.92549 0.59226 0.0
C734 C 0.57509 0.01891 0.59788 0.0
H735 H 0.4621 0.1115 0.5913 0.0
H736 H 0.46941 0.05775 0.59216 0.0
H737 H 0.58888 0.07042 0.60337 0.0
H738 H 0.63138 0.93498 0.58864 0.0
H739 H 0.61987 0.98645 0.58848 0.0
H740 H 0.49892 0.96966 0.57982 0.0
C741 C 0.49565 0.08217 0.5916 0.0
C742 C 0.5692 0.04876 0.5981 0.0
C743 C 0.49143 0.11291 0.59115 0.0
C744 C 0.60156 0.93181 0.58977 0.0
C745 C 0.59498 0.96135 0.58966 0.0
C746 C 0.51855 0.99145 0.58505 0.0
C747 C 0.53333 0.08303 0.59146 0.0
C748 C 0.53822 0.05054 0.59167 0.0
C749 C 0.55672 0.95852 0.591 0.0
C750 C 0.54999 0.99001 0.5913 0.0
H751 H 0.58866 0.17024 0.58983 0.0
H752 H 0.59603 0.11699 0.59053 0.0
H753 H 0.48897 0.02206 0.58003 0.0
H754 H 0.50669 0.8711 0.59379 0.0
H755 H 0.49532 0.92254 0.59343 0.0
C756 C 0.37452 0.46069 0.91302 0.0
C757 C 0.35147 0.45201 0.92326 0.0
C758 C 0.4048 0.45058 0.91167 0.0
C759 C 0.47225 0.42778 0.92931 0.0
H760 H 0.50046 0.4052 0.89895 0.0
C761 C 0.61725 0.41483 0.92279 0.0
C762 C 0.63971 0.43513 0.9134 0.0
C763 C 0.57727 0.40755 0.92382 0.0
C764 C 0.49295 0.41139 0.90751 0.0
H765 H 0.34129 0.42459 0.93991 0.0
H766 H 0.39386 0.4068 0.9375 0.0
H767 H 0.43922 0.41073 0.90107 0.0
H768 H 0.63769 0.46166 0.89735 0.0
H769 H 0.56858 0.44872 0.89902 0.0
H770 H 0.52665 0.42962 0.93566 0.0
C771 C 0.38888 0.42184 0.93058 0.0
C772 C 0.45789 0.41467 0.90871 0.0
C773 C 0.35854 0.43188 0.93192 0.0
C774 C 0.62103 0.44595 0.90469 0.0
C775 C 0.58127 0.43835 0.90562 0.0
C776 C 0.50735 0.4245 0.92811 0.0
C777 C 0.41285 0.43155 0.92053 0.0
C778 C 0.44759 0.42382 0.91955 0.0
C779 C 0.5591 0.41999 0.91537 0.0
C780 C 0.51869 0.41723 0.91712 0.0
H781 H 0.36999 0.47622 0.90617 0.0
H782 H 0.42291 0.45889 0.90386 0.0
H783 H 0.46551 0.43515 0.93778 0.0
H784 H 0.63108 0.40645 0.92967 0.0
H785 H 0.5609 0.39311 0.9314 0.0
C786 C 0.14911 0.62776 0.26597 0.0
C787 C 0.15733 0.64402 0.27697 0.0
C788 C 0.11646 0.59559 0.26448 0.0
C789 C 1.02295 0.53473 0.27939 0.0
H790 H 0.02844 0.46793 0.25766 0.0
C791 C 0.91622 0.38901 0.28046 0.0
C792 C 0.89581 0.37544 0.26993 0.0
C793 C 0.94787 0.42202 0.28069 0.0
C794 C 0.02651 0.48649 0.2637 0.0
H795 H 0.1387 0.63902 0.2951 0.0
H796 H 0.08302 0.58256 0.29272 0.0
H797 H 0.0843 0.52509 0.25939 0.0
H798 H 0.89296 0.3853 0.25137 0.0
H799 H 0.94956 0.44296 0.2517 0.0
H800 H 0.96582 0.49525 0.28406 0.0
C801 C 0.10048 0.59498 0.28506 0.0
C802 C 0.05839 0.51936 0.26466 0.0
C803 C 0.13259 0.62737 0.28647 0.0
C804 C 0.90826 0.39525 0.25958 0.0
C805 C 0.94057 0.42804 0.25976 0.0
C806 C 0.99154 0.50168 0.2786 0.0
C807 C 0.09171 0.57862 0.27402 0.0
C808 C 0.0572 0.54393 0.27259 0.0
C809 C 0.96027 0.44186 0.27036 0.0
C810 C 0.99311 0.47722 0.2708 0.0
H811 H 0.16764 0.64022 0.25849 0.0
H812 H 0.11049 0.58428 0.2558 0.0
H813 H 1.02021 0.55303 0.28536 0.0
H814 H 0.90693 0.37448 0.28858 0.0
H815 H 0.9627 0.43211 0.28896 0.0
C816 C 0.69594 0.57819 0.10067 0.0
C817 C 0.71776 0.58356 0.11113 0.0
C818 C 0.66458 0.58713 0.09986 0.0
C819 C 0.59433 0.60284 0.11884 0.0
H820 H 0.56149 0.62583 0.089 0.0
C821 C 0.44839 0.61553 0.11375 0.0
C822 C 0.42374 0.59283 0.10519 0.0
C823 C 0.48856 0.6232 0.11421 0.0
C824 C 0.57046 0.61967 0.09742 0.0
H825 H 0.72493 0.60427 0.12876 0.0
H826 H 0.67114 0.62096 0.12723 0.0
H827 H 0.62468 0.62336 0.09048 0.0
H828 H 0.42194 0.56214 0.09 0.0
H829 H 0.49194 0.57642 0.09053 0.0
H830 H 0.53977 0.59895 0.1257 0.0
C831 C 0.67744 0.60886 0.11974 0.0
C832 C 0.60656 0.61795 0.09826 0.0
C833 C 0.70855 0.59953 0.12059 0.0
C834 C 0.44036 0.57984 0.09666 0.0
C835 C 0.48047 0.58808 0.09696 0.0
C836 C 0.55848 0.60504 0.11802 0.0
C837 C 0.65441 0.60211 0.10944 0.0
C838 C 0.61852 0.6085 0.1089 0.0
C839 C 0.5048 0.60893 0.10595 0.0
C840 C 0.54566 0.61254 0.10723 0.0
H841 H 0.70202 0.56577 0.09322 0.0
H842 H 0.64735 0.58092 0.09184 0.0
H843 H 0.60202 0.59503 0.12715 0.0
H844 H 0.43617 0.62552 0.12052 0.0
H845 H 0.50668 0.63942 0.12122 0.0
C846 C 0.90843 0.40584 0.42606 0.0
C847 C 0.89857 0.38713 0.43667 0.0
C848 C 0.94105 0.43832 0.42547 0.0
C849 C 0.03188 0.49519 0.44212 0.0
H850 H 0.02609 0.56853 0.42338 0.0
C851 C 0.12964 0.63948 0.45021 0.0
C852 C 0.1515 0.65892 0.44059 0.0
C853 C 0.10012 0.60592 0.44865 0.0
C854 C 0.02816 0.54812 0.42854 0.0
H855 H 0.91425 0.388 0.45502 0.0
H856 H 0.97008 0.44484 0.45416 0.0
H857 H 0.97168 0.51023 0.42278 0.0
H858 H 0.15926 0.65895 0.42177 0.0
H859 H 0.1063 0.60005 0.41894 0.0
H860 H 0.08747 0.5337 0.44831 0.0
C861 C 0.95381 0.43415 0.44615 0.0
C862 C 0.99714 0.51469 0.42818 0.0
C863 C 0.92166 0.40157 0.44668 0.0
C864 C 0.14277 0.64437 0.42931 0.0
C865 C 0.11257 0.61091 0.4277 0.0
C866 C 0.06244 0.52865 0.44263 0.0
C867 C 0.96413 0.45295 0.43553 0.0
C868 C 0.99832 0.4879 0.43512 0.0
C869 C 0.09141 0.59132 0.4374 0.0
C870 C 0.06058 0.55546 0.43597 0.0
H871 H 0.89121 0.39509 0.4182 0.0
H872 H 0.94834 0.45177 0.41711 0.0
H873 H 0.03444 0.47511 0.44733 0.0
H874 H 0.13611 0.64988 0.45902 0.0
H875 H 0.08402 0.59131 0.45624 0.0
C876 C 0.43051 0.10854 0.75664 0.0
C877 C 0.46658 0.13671 0.75944 0.0
C878 C 0.4267 0.07469 0.75673 0.0
C879 C 0.4836 0.022 0.75768 0.0
H880 H 0.38338 0.95094 0.76854 0.0
C881 C 0.44512 0.87511 0.75612 0.0
C882 C 0.42088 0.85341 0.76501 0.0
C883 C 0.45221 0.90997 0.75535 0.0
C884 C 0.4118 0.97036 0.76562 0.0
H885 H 0.5273 0.15144 0.76429 0.0
H886 H 0.52061 0.0921 0.76479 0.0
H887 H 0.3936 1.01054 0.76751 0.0
H888 H 0.3864 0.85187 0.78033 0.0
H889 H 0.39937 0.91244 0.7792 0.0
H890 H 0.50221 0.98172 0.75626 0.0
C891 C 0.49528 0.09619 0.76228 0.0
C892 C 0.41747 1.00473 0.76482 0.0
C893 C 0.49919 0.13026 0.76203 0.0
C894 C 0.40456 0.86762 0.77323 0.0
C895 C 0.41198 0.90248 0.77255 0.0
C896 C 0.47802 0.98754 0.75858 0.0
C897 C 0.45873 0.0678 0.75982 0.0
C898 C 0.45334 0.03113 0.76077 0.0
C899 C 0.43556 0.92418 0.76352 0.0
C900 C 0.44197 0.96114 0.76256 0.0
H901 H 0.40504 0.11272 0.75437 0.0
H902 H 0.39841 0.05388 0.7544 0.0
H903 H 0.51153 0.04139 0.75442 0.0
H904 H 0.45787 0.86492 0.74959 0.0
H905 H 0.47006 0.92552 0.74817 0.0
C906 C 0.57971 0.65062 0.60496 0.0
C907 C 0.59443 0.6709 0.59481 0.0
C908 C 0.57554 0.61666 0.60546 0.0
C909 C 0.60373 0.55468 0.58982 0.0
H910 H 0.51045 0.48535 0.60502 0.0
C911 C 0.54037 0.40938 0.57976 0.0
C912 C 0.53359 0.38701 0.58943 0.0
C913 C 0.54932 0.44416 0.58143 0.0
C914 C 0.53681 0.50453 0.60085 0.0
H915 H 0.61635 0.67162 0.57723 0.0
H916 H 0.60812 0.61233 0.5779 0.0
H917 H 0.52437 0.54635 0.60608 0.0
H918 H 0.53003 0.3832 0.60838 0.0
H919 H 0.54464 0.4443 0.61132 0.0
H920 H 0.61487 0.51242 0.58412 0.0
C921 C 0.60089 0.62274 0.58567 0.0
C922 C 0.54498 0.53953 0.60149 0.0
C923 C 0.60558 0.6568 0.58524 0.0
C924 C 0.53514 0.39999 0.60081 0.0
C925 C 0.54337 0.43476 0.60248 0.0
C926 C 0.59517 0.5197 0.58902 0.0
C927 C 0.58547 0.60205 0.59574 0.0
C928 C 0.57831 0.56506 0.59585 0.0
C929 C 0.55109 0.4572 0.59279 0.0
C930 C 0.56141 0.49431 0.59441 0.0
H931 H 0.57124 0.66103 0.61249 0.0
H932 H 0.56431 0.60184 0.61345 0.0
H933 H 0.63017 0.57355 0.58561 0.0
H934 H 0.53996 0.40023 0.5709 0.0
H935 H 0.55489 0.46093 0.57382 0.0
C936 C 0.15121 0.46737 0.92574 0.0
C937 C 0.16751 0.46289 0.91518 0.0
C938 C 0.11085 0.45816 0.92658 0.0
C939 C 1.02348 0.44216 0.90776 0.0
H940 H 0.96866 0.4158 0.93754 0.0
C941 C 0.86211 0.4223 0.91313 0.0
C942 C 0.85872 0.44349 0.92196 0.0
C943 C 0.89598 0.41666 0.91249 0.0
C944 C 0.98352 0.42294 0.92914 0.0
H945 H 0.15365 0.44369 0.89738 0.0
H946 H 0.08312 0.4265 0.89893 0.0
H947 H 0.03525 0.4206 0.9359 0.0
H948 H 0.88667 0.47359 0.9374 0.0
H949 H 0.94479 0.46279 0.93654 0.0
H950 H 0.97152 0.44455 0.90107 0.0
C951 C 0.10165 0.43811 0.90649 0.0
C952 C 1.02188 0.426 0.92821 0.0
C953 C 0.14215 0.44773 0.90562 0.0
C954 C 0.88845 0.457 0.93054 0.0
C955 C 0.92172 0.45077 0.93005 0.0
C956 C 0.9849 0.43862 0.90866 0.0
C957 C 0.08545 0.44378 0.91692 0.0
C958 C 0.04289 0.43657 0.91758 0.0
C959 C 0.92651 0.43146 0.92083 0.0
C960 C 0.96484 0.4298 0.91944 0.0
H961 H 0.16986 0.47917 0.93327 0.0
H962 H 0.09994 0.46358 0.9347 0.0
H963 H 0.0386 0.45081 0.89946 0.0
H964 H 0.83986 0.41196 0.90633 0.0
H965 H 0.89884 0.40157 0.9053 0.0
C966 C 0.41708 0.89037 0.2802 0.0
C967 C 0.39382 0.87681 0.27013 0.0
C968 C 0.448 0.92402 0.2801 0.0
C969 C 0.48635 1.00646 0.26247 0.0
H970 H 0.58172 0.02957 0.28064 0.0
C971 C 0.63231 0.12778 0.25373 0.0
C972 C 0.65055 0.149 0.26342 0.0
C973 C 0.60027 0.09538 0.25531 0.0
C974 C 0.55507 0.0235 0.27561 0.0
H975 H 0.38579 0.88711 0.25193 0.0
H976 H 0.44033 0.94477 0.25152 0.0
H977 H 0.52795 0.97104 0.28178 0.0
H978 H 0.64982 0.15282 0.28235 0.0
H979 H 0.59407 0.09534 0.28516 0.0
H980 H 0.51445 0.05857 0.25593 0.0
C981 C 0.43397 0.93041 0.2597 0.0
C982 C 0.5241 0.98997 0.27628 0.0
C983 C 0.40275 0.89715 0.25989 0.0
C984 C 0.63613 0.13702 0.27474 0.0
C985 C 0.6045 0.10416 0.27635 0.0
C986 C 0.51754 0.03966 0.26165 0.0
C987 C 0.45679 0.94466 0.26984 0.0
C988 C 0.48937 0.98081 0.26962 0.0
C989 C 0.58615 0.08313 0.26662 0.0
C990 C 0.55231 0.04846 0.26813 0.0
H991 H 0.41063 0.87528 0.28824 0.0
H992 H 0.46443 0.93402 0.28813 0.0
H993 H 0.45983 1.001 0.25747 0.0
H994 H 0.64259 0.13647 0.24491 0.0
H995 H 0.58679 0.07965 0.24766 0.0
loop_
_geom_bond_atom_site_label_1
_geom_bond_atom_site_label_2
_geom_bond_distance
_geom_bond_site_symmetry_2
_ccdc_geom_bond_type
Cu0 N1 1.999 . S
Cu0 O6 1.974 . S
Cu0 N11 1.985 . S
Cu0 O20 1.959 . S
N1 Cu0 1.999 . S
N1 C3 1.263 . S
N1 C5 1.389 . S
N2 C3 1.358 . S
N2 C4 1.400 . S
C3 N1 1.263 . S
C3 N2 1.358 . S
C3 H9 0.930 . S
C4 N2 1.400 . S
C4 C5 1.351 . S
C4 H21 0.930 . S
C5 N1 1.389 . S
C5 C4 1.351 . S
C5 H10 0.930 . S
O6 Cu0 1.974 . S
O6 C16 1.282 . S
C7 O8 1.261 . S
C7 O20 1.251 . S
O8 C7 1.261 . S
H9 C3 0.930 . S
H10 C5 0.930 . S
N11 Cu0 1.985 . S
N11 C13 1.335 . S
N11 C14 1.390 . S
N12 C13 1.345 . S
N12 C15 1.336 . S
C13 N11 1.335 . S
C13 N12 1.345 . S
C13 H18 0.930 . S
C14 N11 1.390 . S
C14 C15 1.346 . S
C14 H19 0.930 . S
C15 N12 1.336 . S
C15 C14 1.346 . S
C15 H22 0.929 . S
C16 O6 1.282 . S
C16 O17 1.216 . S
O17 C16 1.216 . S
H18 C13 0.930 . S
H19 C14 0.930 . S
O20 Cu0 1.959 . S
O20 C7 1.251 . S
H21 C4 0.930 . S
H22 C15 0.929 . S
Cu23 N24 1.999 . S
Cu23 O29 1.974 . S
Cu23 N34 1.985 . S
Cu23 O43 1.959 . S
N24 Cu23 1.999 . S
N24 C26 1.263 . S
N24 C28 1.389 . S
N25 C26 1.358 . S
N25 C27 1.400 . S
C26 N24 1.263 . S
C26 N25 1.358 . S
C26 H32 0.930 . S
C27 N25 1.400 . S
C27 C28 1.351 . S
C27 H44 0.930 . S
C28 N24 1.389 . S
C28 C27 1.351 . S
C28 H33 0.930 . S
O29 Cu23 1.974 . S
O29 C39 1.282 . S
C30 O31 1.261 . S
C30 O43 1.251 . S
O31 C30 1.261 . S
H32 C26 0.930 . S
H33 C28 0.930 . S
N34 Cu23 1.985 . S
N34 C36 1.335 . S
N34 C37 1.390 . S
N35 C36 1.345 . S
N35 C38 1.336 . S
C36 N34 1.335 . S
C36 N35 1.345 . S
C36 H41 0.930 . S
C37 N34 1.390 . S
C37 C38 1.346 . S
C37 H42 0.930 . S
C38 N35 1.336 . S
C38 C37 1.346 . S
C38 H45 0.929 . S
C39 O29 1.282 . S
C39 O40 1.216 . S
O40 C39 1.216 . S
H41 C36 0.930 . S
H42 C37 0.930 . S
O43 Cu23 1.959 . S
O43 C30 1.251 . S
H44 C27 0.930 . S
H45 C38 0.929 . S
Cu46 N47 1.999 . S
Cu46 O52 1.974 . S
Cu46 N57 1.985 . S
Cu46 O66 1.959 . S
N47 Cu46 1.999 . S
N47 C49 1.263 . S
N47 C51 1.389 . S
N48 C49 1.358 . S
N48 C50 1.400 . S
C49 N47 1.263 . S
C49 N48 1.358 . S
C49 H55 0.930 . S
C50 N48 1.400 . S
C50 C51 1.351 . S
C50 H67 0.930 . S
C51 N47 1.389 . S
C51 C50 1.351 . S
C51 H56 0.930 . S
O52 Cu46 1.974 . S
O52 C62 1.282 . S
C53 O54 1.261 . S
C53 O66 1.251 . S
O54 C53 1.261 . S
H55 C49 0.930 . S
H56 C51 0.930 . S
N57 Cu46 1.985 . S
N57 C59 1.335 . S
N57 C60 1.390 . S
N58 C59 1.345 . S
N58 C61 1.336 . S
C59 N57 1.335 . S
C59 N58 1.345 . S
C59 H64 0.930 . S
C60 N57 1.390 . S
C60 C61 1.346 . S
C60 H65 0.930 . S
C61 N58 1.336 . S
C61 C60 1.346 . S
C61 H68 0.929 . S
C62 O52 1.282 . S
C62 O63 1.216 . S
O63 C62 1.216 . S
H64 C59 0.930 . S
H65 C60 0.930 . S
O66 Cu46 1.959 . S
O66 C53 1.251 . S
H67 C50 0.930 . S
H68 C61 0.929 . S
Cu69 N70 1.999 . S
Cu69 O75 1.974 . S
Cu69 N80 1.985 . S
Cu69 O89 1.959 . S
N70 Cu69 1.999 . S
N70 C72 1.263 . S
N70 C74 1.389 . S
N71 C72 1.358 . S
N71 C73 1.400 . S
C72 N70 1.263 . S
C72 N71 1.358 . S
C72 H78 0.930 . S
C73 N71 1.400 . S
C73 C74 1.351 . S
C73 H90 0.930 . S
C74 N70 1.389 . S
C74 C73 1.351 . S
C74 H79 0.930 . S
O75 Cu69 1.974 . S
O75 C85 1.282 . S
C76 O77 1.261 . S
C76 O89 1.251 . S
O77 C76 1.261 . S
H78 C72 0.930 . S
H79 C74 0.930 . S
N80 Cu69 1.985 . S
N80 C82 1.335 . S
N80 C83 1.390 . S
N81 C82 1.345 . S
N81 C84 1.336 . S
C82 N80 1.335 . S
C82 N81 1.345 . S
C82 H87 0.930 . S
C83 N80 1.390 . S
C83 C84 1.346 . S
C83 H88 0.930 . S
C84 N81 1.336 . S
C84 C83 1.346 . S
C84 H91 0.929 . S
C85 O75 1.282 . S
C85 O86 1.216 . S
O86 C85 1.216 . S
H87 C82 0.930 . S
H88 C83 0.930 . S
O89 Cu69 1.959 . S
O89 C76 1.251 . S
H90 C73 0.930 . S
H91 C84 0.929 . S
Cu92 N93 1.999 . S
Cu92 O98 1.974 . S
Cu92 N103 1.985 . S
Cu92 O112 1.959 . S
N93 Cu92 1.999 . S
N93 C95 1.263 . S
N93 C97 1.389 . S
N94 C95 1.358 . S
N94 C96 1.400 . S
C95 N93 1.263 . S
C95 N94 1.358 . S
C95 H101 0.930 . S
C96 N94 1.400 . S
C96 C97 1.351 . S
C96 H113 0.930 . S
C97 N93 1.389 . S
C97 C96 1.351 . S
C97 H102 0.930 . S
O98 Cu92 1.974 . S
O98 C108 1.282 . S
C99 O100 1.261 . S
C99 O112 1.251 . S
O100 C99 1.261 . S
H101 C95 0.930 . S
H102 C97 0.930 . S
N103 Cu92 1.985 . S
N103 C105 1.335 . S
N103 C106 1.390 . S
N104 C105 1.345 . S
N104 C107 1.336 . S
C105 N103 1.335 . S
C105 N104 1.345 . S
C105 H110 0.930 . S
C106 N103 1.390 . S
C106 C107 1.346 . S
C106 H111 0.930 . S
C107 N104 1.336 . S
C107 C106 1.346 . S
C107 H114 0.929 . S
C108 O98 1.282 . S
C108 O109 1.216 . S
O109 C108 1.216 . S
H110 C105 0.930 . S
H111 C106 0.930 . S
O112 Cu92 1.959 . S
O112 C99 1.251 . S
H113 C96 0.930 . S
H114 C107 0.929 . S
Cu115 N116 1.999 . S
Cu115 O121 1.974 . S
Cu115 N126 1.985 . S
Cu115 O135 1.959 . S
N116 Cu115 1.999 . S
N116 C118 1.263 . S
N116 C120 1.389 . S
N117 C118 1.358 . S
N117 C119 1.400 . S
C118 N116 1.263 . S
C118 N117 1.358 . S
C118 H124 0.930 . S
C119 N117 1.400 . S
C119 C120 1.351 . S
C119 H136 0.930 . S
C120 N116 1.389 . S
C120 C119 1.351 . S
C120 H125 0.930 . S
O121 Cu115 1.974 . S
O121 C131 1.282 . S
C122 O123 1.261 . S
C122 O135 1.251 . S
O123 C122 1.261 . S
H124 C118 0.930 . S
H125 C120 0.930 . S
N126 Cu115 1.985 . S
N126 C128 1.335 . S
N126 C129 1.390 . S
N127 C128 1.345 . S
N127 C130 1.336 . S
C128 N126 1.335 . S
C128 N127 1.345 . S
C128 H133 0.930 . S
C129 N126 1.390 . S
C129 C130 1.346 . S
C129 H134 0.930 . S
C130 N127 1.336 . S
C130 C129 1.346 . S
C130 H137 0.929 . S
C131 O121 1.282 . S
C131 O132 1.216 . S
O132 C131 1.216 . S
H133 C128 0.930 . S
H134 C129 0.930 . S
O135 Cu115 1.959 . S
O135 C122 1.251 . S
H136 C119 0.930 . S
H137 C130 0.929 . S
Cu138 N139 1.999 . S
Cu138 O144 1.974 . S
Cu138 N149 1.985 . S
Cu138 O158 1.959 . S
N139 Cu138 1.999 . S
N139 C141 1.263 . S
N139 C143 1.389 . S
N140 C141 1.358 . S
N140 C142 1.400 . S
C141 N139 1.263 . S
C141 N140 1.358 . S
C141 H147 0.930 . S
C142 N140 1.400 . S
C142 C143 1.351 . S
C142 H159 0.930 . S
C143 N139 1.389 . S
C143 C142 1.351 . S
C143 H148 0.930 . S
O144 Cu138 1.974 . S
O144 C154 1.282 . S
C145 O146 1.261 . S
C145 O158 1.251 . S
O146 C145 1.261 . S
H147 C141 0.930 . S
H148 C143 0.930 . S
N149 Cu138 1.985 . S
N149 C151 1.335 . S
N149 C152 1.390 . S
N150 C151 1.345 . S
N150 C153 1.336 . S
C151 N149 1.335 . S
C151 N150 1.345 . S
C151 H156 0.930 . S
C152 N149 1.390 . S
C152 C153 1.346 . S
C152 H157 0.930 . S
C153 N150 1.336 . S
C153 C152 1.346 . S
C153 H160 0.929 . S
C154 O144 1.282 . S
C154 O155 1.216 . S
O155 C154 1.216 . S
H156 C151 0.930 . S
H157 C152 0.930 . S
O158 Cu138 1.959 . S
O158 C145 1.251 . S
H159 C142 0.930 . S
H160 C153 0.929 . S
Cu161 N162 1.999 . S
Cu161 O167 1.974 . S
Cu161 N172 1.985 . S
Cu161 O181 1.959 . S
N162 Cu161 1.999 . S
N162 C164 1.263 . S
N162 C166 1.389 . S
N163 C164 1.358 . S
N163 C165 1.400 . S
C164 N162 1.263 . S
C164 N163 1.358 . S
C164 H170 0.930 . S
C165 N163 1.400 . S
C165 C166 1.351 . S
C165 H182 0.930 . S
C166 N162 1.389 . S
C166 C165 1.351 . S
C166 H171 0.930 . S
O167 Cu161 1.974 . S
O167 C177 1.282 . S
C168 O169 1.261 . S
C168 O181 1.251 . S
O169 C168 1.261 . S
H170 C164 0.930 . S
H171 C166 0.930 . S
N172 Cu161 1.985 . S
N172 C174 1.335 . S
N172 C175 1.390 . S
N173 C174 1.345 . S
N173 C176 1.336 . S
C174 N172 1.335 . S
C174 N173 1.345 . S
C174 H179 0.930 . S
C175 N172 1.390 . S
C175 C176 1.346 . S
C175 H180 0.930 . S
C176 N173 1.336 . S
C176 C175 1.346 . S
C176 H183 0.929 . S
C177 O167 1.282 . S
C177 O178 1.216 . S
O178 C177 1.216 . S
H179 C174 0.930 . S
H180 C175 0.930 . S
O181 Cu161 1.959 . S
O181 C168 1.251 . S
H182 C165 0.930 . S
H183 C176 0.929 . S
Cu184 N185 1.999 . S
Cu184 O190 1.974 . S
Cu184 N195 1.985 . S
Cu184 O204 1.959 . S
N185 Cu184 1.999 . S
N185 C187 1.263 . S
N185 C189 1.389 . S
N186 C187 1.358 . S
N186 C188 1.400 . S
C187 N185 1.263 . S
C187 N186 1.358 . S
C187 H193 0.930 . S
C188 N186 1.400 . S
C188 C189 1.351 . S
C188 H205 0.930 . S
C189 N185 1.389 . S
C189 C188 1.351 . S
C189 H194 0.930 . S
O190 Cu184 1.974 . S
O190 C200 1.282 . S
C191 O192 1.261 . S
C191 O204 1.251 . S
O192 C191 1.261 . S
H193 C187 0.930 . S
H194 C189 0.930 . S
N195 Cu184 1.985 . S
N195 C197 1.335 . S
N195 C198 1.390 . S
N196 C197 1.345 . S
N196 C199 1.336 . S
C197 N195 1.335 . S
C197 N196 1.345 . S
C197 H202 0.930 . S
C198 N195 1.390 . S
C198 C199 1.346 . S
C198 H203 0.930 . S
C199 N196 1.336 . S
C199 C198 1.346 . S
C199 H206 0.929 . S
C200 O190 1.282 . S
C200 O201 1.216 . S
O201 C200 1.216 . S
H202 C197 0.930 . S
H203 C198 0.930 . S
O204 Cu184 1.959 . S
O204 C191 1.251 . S
H205 C188 0.930 . S
H206 C199 0.929 . S
Cu207 N208 1.999 . S
Cu207 O213 1.974 . S
Cu207 N218 1.985 . S
Cu207 O227 1.959 . S
N208 Cu207 1.999 . S
N208 C210 1.263 . S
N208 C212 1.389 . S
N209 C210 1.358 . S
N209 C211 1.400 . S
C210 N208 1.263 . S
C210 N209 1.358 . S
C210 H216 0.930 . S
C211 N209 1.400 . S
C211 C212 1.351 . S
C211 H228 0.930 . S
C212 N208 1.389 . S
C212 C211 1.351 . S
C212 H217 0.930 . S
O213 Cu207 1.974 . S
O213 C223 1.282 . S
C214 O215 1.261 . S
C214 O227 1.251 . S
O215 C214 1.261 . S
H216 C210 0.930 . S
H217 C212 0.930 . S
N218 Cu207 1.985 . S
N218 C220 1.335 . S
N218 C221 1.390 . S
N219 C220 1.345 . S
N219 C222 1.336 . S
C220 N218 1.335 . S
C220 N219 1.345 . S
C220 H225 0.930 . S
C221 N218 1.390 . S
C221 C222 1.346 . S
C221 H226 0.930 . S
C222 N219 1.336 . S
C222 C221 1.346 . S
C222 H229 0.929 . S
C223 O213 1.282 . S
C223 O224 1.216 . S
O224 C223 1.216 . S
H225 C220 0.930 . S
H226 C221 0.930 . S
O227 Cu207 1.959 . S
O227 C214 1.251 . S
H228 C211 0.930 . S
H229 C222 0.929 . S
Cu230 N231 1.999 . S
Cu230 O236 1.974 . S
Cu230 N241 1.985 . S
Cu230 O250 1.959 . S
N231 Cu230 1.999 . S
N231 C233 1.263 . S
N231 C235 1.389 . S
N232 C233 1.358 . S
N232 C234 1.400 . S
C233 N231 1.263 . S
C233 N232 1.358 . S
C233 H239 0.930 . S
C234 N232 1.400 . S
C234 C235 1.351 . S
C234 H251 0.930 . S
C235 N231 1.389 . S
C235 C234 1.351 . S
C235 H240 0.930 . S
O236 Cu230 1.974 . S
O236 C246 1.282 . S
C237 O238 1.261 . S
C237 O250 1.251 . S
O238 C237 1.261 . S
H239 C233 0.930 . S
H240 C235 0.930 . S
N241 Cu230 1.985 . S
N241 C243 1.335 . S
N241 C244 1.390 . S
N242 C243 1.345 . S
N242 C245 1.336 . S
C243 N241 1.335 . S
C243 N242 1.345 . S
C243 H248 0.930 . S
C244 N241 1.390 . S
C244 C245 1.346 . S
C244 H249 0.930 . S
C245 N242 1.336 . S
C245 C244 1.346 . S
C245 H252 0.929 . S
C246 O236 1.282 . S
C246 O247 1.216 . S
O247 C246 1.216 . S
H248 C243 0.930 . S
H249 C244 0.930 . S
O250 Cu230 1.959 . S
O250 C237 1.251 . S
H251 C234 0.930 . S
H252 C245 0.929 . S
Cu253 N254 1.999 . S
Cu253 O259 1.974 . S
Cu253 N264 1.985 . S
Cu253 O273 1.959 . S
N254 Cu253 1.999 . S
N254 C256 1.263 . S
N254 C258 1.389 . S
N255 C256 1.358 . S
N255 C257 1.400 . S
C256 N254 1.263 . S
C256 N255 1.358 . S
C256 H262 0.930 . S
C257 N255 1.400 . S
C257 C258 1.351 . S
C257 H274 0.930 . S
C258 N254 1.389 . S
C258 C257 1.351 . S
C258 H263 0.930 . S
O259 Cu253 1.974 . S
O259 C269 1.282 . S
C260 O261 1.261 . S
C260 O273 1.251 . S
O261 C260 1.261 . S
H262 C256 0.930 . S
H263 C258 0.930 . S
N264 Cu253 1.985 . S
N264 C266 1.335 . S
N264 C267 1.390 . S
N265 C266 1.345 . S
N265 C268 1.336 . S
C266 N264 1.335 . S
C266 N265 1.345 . S
C266 H271 0.930 . S
C267 N264 1.390 . S
C267 C268 1.346 . S
C267 H272 0.930 . S
C268 N265 1.336 . S
C268 C267 1.346 . S
C268 H275 0.929 . S
C269 O259 1.282 . S
C269 O270 1.216 . S
O270 C269 1.216 . S
H271 C266 0.930 . S
H272 C267 0.930 . S
O273 Cu253 1.959 . S
O273 C260 1.251 . S
H274 C257 0.930 . S
H275 C268 0.929 . S
C276 C277 1.349 . S
C276 C278 1.327 . S
C276 H301 0.950 . S
C277 C276 1.349 . S
C277 C293 1.349 . S
C278 C276 1.327 . S
C278 C297 1.429 . S
C278 H302 0.950 . S
C279 C296 1.574 1_556 S
C279 C298 1.368 . S
C279 H303 0.949 . S
H280 C284 0.949 . S
C281 C282 1.349 . S
C281 C283 1.327 . S
C281 H304 0.950 . S
C282 C281 1.349 . S
C282 C294 1.349 . S
C283 C281 1.327 . S
C283 C299 1.429 . S
C283 H305 0.950 . S
C284 H280 0.949 . S
C284 C292 1.574 1_554 S
C284 C300 1.368 . S
H285 C293 0.950 . S
H286 C291 0.950 . S
H287 C292 0.949 . S
H288 C294 0.950 . S
H289 C295 0.950 . S
H290 C296 0.949 . S
C291 H286 0.950 . S
C291 C293 1.327 . S
C291 C297 1.429 . S
C292 C284 1.574 1_556 S
C292 H287 0.949 . S
C292 C298 1.368 . S
C293 C277 1.349 . S
C293 H285 0.950 . S
C293 C291 1.327 . S
C294 C282 1.349 . S
C294 H288 0.950 . S
C294 C295 1.327 . S
C295 H289 0.950 . S
C295 C294 1.327 . S
C295 C299 1.429 . S
C296 C279 1.574 1_554 S
C296 H290 0.949 . S
C296 C300 1.368 . S
C297 C278 1.429 . S
C297 C291 1.429 . S
C297 C298 1.523 . S
C298 C279 1.368 . S
C298 C292 1.368 . S
C298 C297 1.523 . S
C299 C283 1.429 . S
C299 C295 1.429 . S
C299 C300 1.523 . S
C300 C284 1.368 . S
C300 C296 1.368 . S
C300 C299 1.523 . S
H301 C276 0.950 . S
H302 C278 0.950 . S
H303 C279 0.949 . S
H304 C281 0.950 . S
H305 C283 0.950 . S
C306 C307 1.349 . S
C306 C308 1.327 . S
C306 H331 0.950 . S
C307 C306 1.349 . S
C307 C323 1.349 . S
C308 C306 1.327 . S
C308 C327 1.429 . S
C308 H332 0.950 . S
C309 C326 1.574 . S
C309 C328 1.368 . S
C309 H333 0.949 . S
H310 C314 0.949 . S
C311 C312 1.349 . S
C311 C313 1.327 . S
C311 H334 0.950 . S
C312 C311 1.349 . S
C312 C324 1.349 . S
C313 C311 1.327 . S
C313 C329 1.429 . S
C313 H335 0.950 . S
C314 H310 0.949 . S
C314 C322 1.574 . S
C314 C330 1.368 . S
H315 C323 0.950 . S
H316 C321 0.950 . S
H317 C322 0.949 . S
H318 C324 0.950 . S
H319 C325 0.950 . S
H320 C326 0.949 . S
C321 H316 0.950 . S
C321 C323 1.327 . S
C321 C327 1.429 . S
C322 C314 1.574 . S
C322 H317 0.949 . S
C322 C328 1.368 . S
C323 C307 1.349 . S
C323 H315 0.950 . S
C323 C321 1.327 . S
C324 C312 1.349 . S
C324 H318 0.950 . S
C324 C325 1.327 . S
C325 H319 0.950 . S
C325 C324 1.327 . S
C325 C329 1.429 . S
C326 C309 1.574 . S
C326 H320 0.949 . S
C326 C330 1.368 . S
C327 C308 1.429 . S
C327 C321 1.429 . S
C327 C328 1.523 . S
C328 C309 1.368 . S
C328 C322 1.368 . S
C328 C327 1.523 . S
C329 C313 1.429 . S
C329 C325 1.429 . S
C329 C330 1.523 . S
C330 C314 1.368 . S
C330 C326 1.368 . S
C330 C329 1.523 . S
H331 C306 0.950 . S
H332 C308 0.950 . S
H333 C309 0.949 . S
H334 C311 0.950 . S
H335 C313 0.950 . S
C336 C337 1.349 . S
C336 C338 1.327 . S
C336 H361 0.950 . S
C337 C336 1.349 . S
C337 C353 1.349 . S
C338 C336 1.327 . S
C338 C357 1.429 . S
C338 H362 0.950 . S
C339 C356 1.574 . S
C339 C358 1.368 . S
C339 H363 0.949 . S
H340 C344 0.949 . S
C341 C342 1.349 . S
C341 C343 1.327 . S
C341 H364 0.950 . S
C342 C341 1.349 . S
C342 C354 1.349 . S
C343 C341 1.327 . S
C343 C359 1.429 . S
C343 H365 0.950 . S
C344 H340 0.949 . S
C344 C352 1.574 . S
C344 C360 1.368 . S
H345 C353 0.950 . S
H346 C351 0.950 . S
H347 C352 0.949 . S
H348 C354 0.950 . S
H349 C355 0.950 . S
H350 C356 0.949 . S
C351 H346 0.950 . S
C351 C353 1.327 . S
C351 C357 1.429 . S
C352 C344 1.574 . S
C352 H347 0.949 . S
C352 C358 1.368 . S
C353 C337 1.349 . S
C353 H345 0.950 . S
C353 C351 1.327 . S
C354 C342 1.349 . S
C354 H348 0.950 . S
C354 C355 1.327 . S
C355 H349 0.950 . S
C355 C354 1.327 . S
C355 C359 1.429 . S
C356 C339 1.574 . S
C356 H350 0.949 . S
C356 C360 1.368 . S
C357 C338 1.429 . S
C357 C351 1.429 . S
C357 C358 1.523 . S
C358 C339 1.368 . S
C358 C352 1.368 . S
C358 C357 1.523 . S
C359 C343 1.429 . S
C359 C355 1.429 . S
C359 C360 1.523 . S
C360 C344 1.368 . S
C360 C356 1.368 . S
C360 C359 1.523 . S
H361 C336 0.950 . S
H362 C338 0.950 . S
H363 C339 0.949 . S
H364 C341 0.950 . S
H365 C343 0.950 . S
C366 C367 1.349 . S
C366 C368 1.327 . S
C366 H391 0.950 . S
C367 C366 1.349 . S
C367 C383 1.349 . S
C368 C366 1.327 . S
C368 C387 1.429 . S
C368 H392 0.950 . S
C369 C386 1.574 1_554 S
C369 C388 1.368 . S
C369 H393 0.949 . S
H370 C374 0.949 . S
C371 C372 1.349 . S
C371 C373 1.327 . S
C371 H394 0.950 . S
C372 C371 1.349 . S
C372 C384 1.349 . S
C373 C371 1.327 . S
C373 C389 1.429 . S
C373 H395 0.950 . S
C374 H370 0.949 . S
C374 C382 1.574 1_556 S
C374 C390 1.368 . S
H375 C383 0.950 . S
H376 C381 0.950 . S
H377 C382 0.949 . S
H378 C384 0.950 . S
H379 C385 0.950 . S
H380 C386 0.949 . S
C381 H376 0.950 . S
C381 C383 1.327 . S
C381 C387 1.429 . S
C382 C374 1.574 1_554 S
C382 H377 0.949 . S
C382 C388 1.368 . S
C383 C367 1.349 . S
C383 H375 0.950 . S
C383 C381 1.327 . S
C384 C372 1.349 . S
C384 H378 0.950 . S
C384 C385 1.327 . S
C385 H379 0.950 . S
C385 C384 1.327 . S
C385 C389 1.429 . S
C386 C369 1.574 1_556 S
C386 H380 0.949 . S
C386 C390 1.368 . S
C387 C368 1.429 . S
C387 C381 1.429 . S
C387 C388 1.523 . S
C388 C369 1.368 . S
C388 C382 1.368 . S
C388 C387 1.523 . S
C389 C373 1.429 . S
C389 C385 1.429 . S
C389 C390 1.523 . S
C390 C374 1.368 . S
C390 C386 1.368 . S
C390 C389 1.523 . S
H391 C366 0.950 . S
H392 C368 0.950 . S
H393 C369 0.949 . S
H394 C371 0.950 . S
H395 C373 0.950 . S
C396 C397 1.349 . S
C396 C398 1.327 . S
C396 H421 0.950 . S
C397 C396 1.349 . S
C397 C413 1.349 . S
C398 C396 1.327 . S
C398 C417 1.429 . S
C398 H422 0.950 . S
C399 C416 1.574 . S
C399 C418 1.368 . S
C399 H423 0.949 . S
H400 C404 0.949 . S
C401 C402 1.349 . S
C401 C403 1.327 . S
C401 H424 0.950 . S
C402 C401 1.349 . S
C402 C414 1.349 . S
C403 C401 1.327 . S
C403 C419 1.429 . S
C403 H425 0.950 . S
C404 H400 0.949 . S
C404 C412 1.574 . S
C404 C420 1.368 . S
H405 C413 0.950 . S
H406 C411 0.950 . S
H407 C412 0.949 . S
H408 C414 0.950 . S
H409 C415 0.950 . S
H410 C416 0.949 . S
C411 H406 0.950 . S
C411 C413 1.327 . S
C411 C417 1.429 . S
C412 C404 1.574 . S
C412 H407 0.949 . S
C412 C418 1.368 . S
C413 C397 1.349 . S
C413 H405 0.950 . S
C413 C411 1.327 . S
C414 C402 1.349 . S
C414 H408 0.950 . S
C414 C415 1.327 . S
C415 H409 0.950 . S
C415 C414 1.327 . S
C415 C419 1.429 . S
C416 C399 1.574 . S
C416 H410 0.949 . S
C416 C420 1.368 . S
C417 C398 1.429 . S
C417 C411 1.429 . S
C417 C418 1.523 . S
C418 C399 1.368 . S
C418 C412 1.368 . S
C418 C417 1.523 . S
C419 C403 1.429 . S
C419 C415 1.429 . S
C419 C420 1.523 . S
C420 C404 1.368 . S
C420 C416 1.368 . S
C420 C419 1.523 . S
H421 C396 0.950 . S
H422 C398 0.950 . S
H423 C399 0.949 . S
H424 C401 0.950 . S
H425 C403 0.950 . S
C426 C427 1.349 . S
C426 C428 1.327 . S
C426 H451 0.950 . S
C427 C426 1.349 . S
C427 C443 1.349 . S
C428 C426 1.327 . S
C428 C447 1.429 . S
C428 H452 0.950 . S
C429 C446 1.574 . S
C429 C448 1.368 . S
C429 H453 0.949 . S
H430 C434 0.949 . S
C431 C432 1.349 . S
C431 C433 1.327 . S
C431 H454 0.950 . S
C432 C431 1.349 . S
C432 C444 1.349 . S
C433 C431 1.327 . S
C433 C449 1.429 . S
C433 H455 0.950 . S
C434 H430 0.949 . S
C434 C442 1.574 . S
C434 C450 1.368 . S
H435 C443 0.950 . S
H436 C441 0.950 . S
H437 C442 0.949 . S
H438 C444 0.950 . S
H439 C445 0.950 . S
H440 C446 0.949 . S
C441 H436 0.950 . S
C441 C443 1.327 . S
C441 C447 1.429 . S
C442 C434 1.574 . S
C442 H437 0.949 . S
C442 C448 1.368 . S
C443 C427 1.349 . S
C443 H435 0.950 . S
C443 C441 1.327 . S
C444 C432 1.349 . S
C444 H438 0.950 . S
C444 C445 1.327 . S
C445 H439 0.950 . S
C445 C444 1.327 . S
C445 C449 1.429 . S
C446 C429 1.574 . S
C446 H440 0.949 . S
C446 C450 1.368 . S
C447 C428 1.429 . S
C447 C441 1.429 . S
C447 C448 1.523 . S
C448 C429 1.368 . S
C448 C442 1.368 . S
C448 C447 1.523 . S
C449 C433 1.429 . S
C449 C445 1.429 . S
C449 C450 1.523 . S
C450 C434 1.368 . S
C450 C446 1.368 . S
C450 C449 1.523 . S
H451 C426 0.950 . S
H452 C428 0.950 . S
H453 C429 0.949 . S
H454 C431 0.950 . S
H455 C433 0.950 . S
C456 C457 1.349 . S
C456 C458 1.327 . S
C456 H481 0.950 . S
C457 C456 1.349 . S
C457 C473 1.349 . S
C458 C456 1.327 . S
C458 C477 1.429 . S
C458 H482 0.950 . S
C459 C476 1.574 . S
C459 C478 1.368 . S
C459 H483 0.949 . S
H460 C464 0.949 . S
C461 C462 1.349 . S
C461 C463 1.327 . S
C461 H484 0.950 . S
C462 C461 1.349 . S
C462 C474 1.349 . S
C463 C461 1.327 . S
C463 C479 1.429 . S
C463 H485 0.950 . S
C464 H460 0.949 . S
C464 C472 1.574 . S
C464 C480 1.368 . S
H465 C473 0.950 . S
H466 C471 0.950 . S
H467 C472 0.949 . S
H468 C474 0.950 . S
H469 C475 0.950 . S
H470 C476 0.949 . S
C471 H466 0.950 . S
C471 C473 1.327 . S
C471 C477 1.429 . S
C472 C464 1.574 . S
C472 H467 0.949 . S
C472 C478 1.368 . S
C473 C457 1.349 . S
C473 H465 0.950 . S
C473 C471 1.327 . S
C474 C462 1.349 . S
C474 H468 0.950 . S
C474 C475 1.327 . S
C475 H469 0.950 . S
C475 C474 1.327 . S
C475 C479 1.429 . S
C476 C459 1.574 . S
C476 H470 0.949 . S
C476 C480 1.368 . S
C477 C458 1.429 . S
C477 C471 1.429 . S
C477 C478 1.523 . S
C478 C459 1.368 . S
C478 C472 1.368 . S
C478 C477 1.523 . S
C479 C463 1.429 . S
C479 C475 1.429 . S
C479 C480 1.523 . S
C480 C464 1.368 . S
C480 C476 1.368 . S
C480 C479 1.523 . S
H481 C456 0.950 . S
H482 C458 0.950 . S
H483 C459 0.949 . S
H484 C461 0.950 . S
H485 C463 0.950 . S
C486 C487 1.349 . S
C486 C488 1.327 . S
C486 H511 0.950 . S
C487 C486 1.349 . S
C487 C503 1.349 . S
C488 C486 1.327 . S
C488 C507 1.429 . S
C488 H512 0.950 . S
C489 C506 1.574 . S
C489 C508 1.368 . S
C489 H513 0.949 . S
H490 C494 0.949 . S
C491 C492 1.349 . S
C491 C493 1.327 . S
C491 H514 0.950 . S
C492 C491 1.349 . S
C492 C504 1.349 . S
C493 C491 1.327 . S
C493 C509 1.429 . S
C493 H515 0.950 . S
C494 H490 0.949 . S
C494 C502 1.574 . S
C494 C510 1.368 . S
H495 C503 0.950 . S
H496 C501 0.950 . S
H497 C502 0.949 . S
H498 C504 0.950 . S
H499 C505 0.950 . S
H500 C506 0.949 . S
C501 H496 0.950 . S
C501 C503 1.327 . S
C501 C507 1.429 . S
C502 C494 1.574 . S
C502 H497 0.949 . S
C502 C508 1.368 . S
C503 C487 1.349 . S
C503 H495 0.950 . S
C503 C501 1.327 . S
C504 C492 1.349 . S
C504 H498 0.950 . S
C504 C505 1.327 . S
C505 H499 0.950 . S
C505 C504 1.327 . S
C505 C509 1.429 . S
C506 C489 1.574 . S
C506 H500 0.949 . S
C506 C510 1.368 . S
C507 C488 1.429 . S
C507 C501 1.429 . S
C507 C508 1.523 . S
C508 C489 1.368 . S
C508 C502 1.368 . S
C508 C507 1.523 . S
C509 C493 1.429 . S
C509 C505 1.429 . S
C509 C510 1.523 . S
C510 C494 1.368 . S
C510 C506 1.368 . S
C510 C509 1.523 . S
H511 C486 0.950 . S
H512 C488 0.950 . S
H513 C489 0.949 . S
H514 C491 0.950 . S
H515 C493 0.950 . S
C516 C517 1.349 . S
C516 C518 1.327 . S
C516 H541 0.950 . S
C517 C516 1.349 . S
C517 C533 1.349 . S
C518 C516 1.327 . S
C518 C537 1.429 . S
C518 H542 0.950 . S
C519 C536 1.574 . S
C519 C538 1.368 . S
C519 H543 0.949 . S
H520 C524 0.949 . S
C521 C522 1.349 . S
C521 C523 1.327 . S
C521 H544 0.950 . S
C522 C521 1.349 . S
C522 C534 1.349 . S
C523 C521 1.327 . S
C523 C539 1.429 . S
C523 H545 0.950 . S
C524 H520 0.949 . S
C524 C532 1.574 . S
C524 C540 1.368 . S
H525 C533 0.950 . S
H526 C531 0.950 . S
H527 C532 0.949 . S
H528 C534 0.950 . S
H529 C535 0.950 . S
H530 C536 0.949 . S
C531 H526 0.950 . S
C531 C533 1.327 . S
C531 C537 1.429 . S
C532 C524 1.574 . S
C532 H527 0.949 . S
C532 C538 1.368 . S
C533 C517 1.349 . S
C533 H525 0.950 . S
C533 C531 1.327 . S
C534 C522 1.349 . S
C534 H528 0.950 . S
C534 C535 1.327 . S
C535 H529 0.950 . S
C535 C534 1.327 . S
C535 C539 1.429 . S
C536 C519 1.574 . S
C536 H530 0.949 . S
C536 C540 1.368 . S
C537 C518 1.429 . S
C537 C531 1.429 . S
C537 C538 1.523 . S
C538 C519 1.368 . S
C538 C532 1.368 . S
C538 C537 1.523 . S
C539 C523 1.429 . S
C539 C535 1.429 . S
C539 C540 1.523 . S
C540 C524 1.368 . S
C540 C536 1.368 . S
C540 C539 1.523 . S
H541 C516 0.950 . S
H542 C518 0.950 . S
H543 C519 0.949 . S
H544 C521 0.950 . S
H545 C523 0.950 . S
C546 C547 1.349 . S
C546 C548 1.327 . S
C546 H571 0.950 . S
C547 C546 1.349 . S
C547 C563 1.349 . S
C548 C546 1.327 . S
C548 C567 1.429 . S
C548 H572 0.950 . S
C549 C566 1.574 . S
C549 C568 1.368 . S
C549 H573 0.949 . S
H550 C554 0.949 . S
C551 C552 1.349 . S
C551 C553 1.327 . S
C551 H574 0.950 . S
C552 C551 1.349 . S
C552 C564 1.349 . S
C553 C551 1.327 . S
C553 C569 1.429 . S
C553 H575 0.950 . S
C554 H550 0.949 . S
C554 C562 1.574 . S
C554 C570 1.368 . S
H555 C563 0.950 . S
H556 C561 0.950 . S
H557 C562 0.949 . S
H558 C564 0.950 . S
H559 C565 0.950 . S
H560 C566 0.949 . S
C561 H556 0.950 . S
C561 C563 1.327 . S
C561 C567 1.429 . S
C562 C554 1.574 . S
C562 H557 0.949 . S
C562 C568 1.368 . S
C563 C547 1.349 . S
C563 H555 0.950 . S
C563 C561 1.327 . S
C564 C552 1.349 . S
C564 H558 0.950 . S
C564 C565 1.327 . S
C565 H559 0.950 . S
C565 C564 1.327 . S
C565 C569 1.429 . S
C566 C549 1.574 . S
C566 H560 0.949 . S
C566 C570 1.368 . S
C567 C548 1.429 . S
C567 C561 1.429 . S
C567 C568 1.523 . S
C568 C549 1.368 . S
C568 C562 1.368 . S
C568 C567 1.523 . S
C569 C553 1.429 . S
C569 C565 1.429 . S
C569 C570 1.523 . S
C570 C554 1.368 . S
C570 C566 1.368 . S
C570 C569 1.523 . S
H571 C546 0.950 . S
H572 C548 0.950 . S
H573 C549 0.949 . S
H574 C551 0.950 . S
H575 C553 0.950 . S
C576 C577 1.349 . S
C576 C578 1.327 . S
C576 H601 0.950 . S
C577 C576 1.349 . S
C577 C593 1.349 . S
C578 C576 1.327 . S
C578 C597 1.429 . S
C578 H602 0.950 . S
C579 C596 1.574 . S
C579 C598 1.368 . S
C579 H603 0.949 . S
H580 C584 0.949 . S
C581 C582 1.349 . S
C581 C583 1.327 . S
C581 H604 0.950 . S
C582 C581 1.349 . S
C582 C594 1.349 . S
C583 C581 1.327 . S
C583 C599 1.429 . S
C583 H605 0.950 . S
C584 H580 0.949 . S
C584 C592 1.574 . S
C584 C600 1.368 . S
H585 C593 0.950 . S
H586 C591 0.950 . S
H587 C592 0.949 . S
H588 C594 0.950 . S
H589 C595 0.950 . S
H590 C596 0.949 . S
C591 H586 0.950 . S
C591 C593 1.327 . S
C591 C597 1.429 . S
C592 C584 1.574 . S
C592 H587 0.949 . S
C592 C598 1.368 . S
C593 C577 1.349 . S
C593 H585 0.950 . S
C593 C591 1.327 . S
C594 C582 1.349 . S
C594 H588 0.950 . S
C594 C595 1.327 . S
C595 H589 0.950 . S
C595 C594 1.327 . S
C595 C599 1.429 . S
C596 C579 1.574 . S
C596 H590 0.949 . S
C596 C600 1.368 . S
C597 C578 1.429 . S
C597 C591 1.429 . S
C597 C598 1.523 . S
C598 C579 1.368 . S
C598 C592 1.368 . S
C598 C597 1.523 . S
C599 C583 1.429 . S
C599 C595 1.429 . S
C599 C600 1.523 . S
C600 C584 1.368 . S
C600 C596 1.368 . S
C600 C599 1.523 . S
H601 C576 0.950 . S
H602 C578 0.950 . S
H603 C579 0.949 . S
H604 C581 0.950 . S
H605 C583 0.950 . S
C606 C607 1.349 . S
C606 C608 1.327 . S
C606 H631 0.950 . S
C607 C606 1.349 . S
C607 C623 1.349 . S
C608 C606 1.327 . S
C608 C627 1.429 . S
C608 H632 0.950 . S
C609 C626 1.574 . S
C609 C628 1.368 . S
C609 H633 0.949 . S
H610 C614 0.949 . S
C611 C612 1.349 . S
C611 C613 1.327 . S
C611 H634 0.950 . S
C612 C611 1.349 . S
C612 C624 1.349 . S
C613 C611 1.327 . S
C613 C629 1.429 . S
C613 H635 0.950 . S
C614 H610 0.949 . S
C614 C622 1.574 . S
C614 C630 1.368 . S
H615 C623 0.950 . S
H616 C621 0.950 . S
H617 C622 0.949 . S
H618 C624 0.950 . S
H619 C625 0.950 . S
H620 C626 0.949 . S
C621 H616 0.950 . S
C621 C623 1.327 . S
C621 C627 1.429 . S
C622 C614 1.574 . S
C622 H617 0.949 . S
C622 C628 1.368 . S
C623 C607 1.349 . S
C623 H615 0.950 . S
C623 C621 1.327 . S
C624 C612 1.349 . S
C624 H618 0.950 . S
C624 C625 1.327 . S
C625 H619 0.950 . S
C625 C624 1.327 . S
C625 C629 1.429 . S
C626 C609 1.574 . S
C626 H620 0.949 . S
C626 C630 1.368 . S
C627 C608 1.429 . S
C627 C621 1.429 . S
C627 C628 1.523 . S
C628 C609 1.368 . S
C628 C622 1.368 . S
C628 C627 1.523 . S
C629 C613 1.429 . S
C629 C625 1.429 . S
C629 C630 1.523 . S
C630 C614 1.368 . S
C630 C626 1.368 . S
C630 C629 1.523 . S
H631 C606 0.950 . S
H632 C608 0.950 . S
H633 C609 0.949 . S
H634 C611 0.950 . S
H635 C613 0.950 . S
C636 C637 1.349 . S
C636 C638 1.327 . S
C636 H661 0.950 . S
C637 C636 1.349 . S
C637 C653 1.349 . S
C638 C636 1.327 . S
C638 C657 1.429 . S
C638 H662 0.950 . S
C639 C656 1.574 1_655 S
C639 C658 1.368 . S
C639 H663 0.949 . S
H640 C644 0.949 . S
C641 C642 1.349 . S
C641 C643 1.327 . S
C641 H664 0.950 . S
C642 C641 1.349 . S
C642 C654 1.349 . S
C643 C641 1.327 . S
C643 C659 1.429 . S
C643 H665 0.950 . S
C644 H640 0.949 . S
C644 C652 1.574 1_455 S
C644 C660 1.368 . S
H645 C653 0.950 . S
H646 C651 0.950 . S
H647 C652 0.949 . S
H648 C654 0.950 . S
H649 C655 0.950 . S
H650 C656 0.949 . S
C651 H646 0.950 . S
C651 C653 1.327 . S
C651 C657 1.429 . S
C652 C644 1.574 1_655 S
C652 H647 0.949 . S
C652 C658 1.368 . S
C653 C637 1.349 . S
C653 H645 0.950 . S
C653 C651 1.327 . S
C654 C642 1.349 . S
C654 H648 0.950 . S
C654 C655 1.327 . S
C655 H649 0.950 . S
C655 C654 1.327 . S
C655 C659 1.429 . S
C656 C639 1.574 1_455 S
C656 H650 0.949 . S
C656 C660 1.368 . S
C657 C638 1.429 . S
C657 C651 1.429 . S
C657 C658 1.523 . S
C658 C639 1.368 . S
C658 C652 1.368 . S
C658 C657 1.523 . S
C659 C643 1.429 . S
C659 C655 1.429 . S
C659 C660 1.523 . S
C660 C644 1.368 . S
C660 C656 1.368 . S
C660 C659 1.523 . S
H661 C636 0.950 . S
H662 C638 0.950 . S
H663 C639 0.949 . S
H664 C641 0.950 . S
H665 C643 0.950 . S
C666 C667 1.349 . S
C666 C668 1.327 . S
C666 H691 0.950 . S
C667 C666 1.349 . S
C667 C683 1.349 . S
C668 C666 1.327 . S
C668 C687 1.429 . S
C668 H692 0.950 . S
C669 C686 1.574 1_545 S
C669 C688 1.368 . S
C669 H693 0.949 . S
H670 C674 0.949 . S
C671 C672 1.349 . S
C671 C673 1.327 . S
C671 H694 0.950 . S
C672 C671 1.349 . S
C672 C684 1.349 . S
C673 C671 1.327 . S
C673 C689 1.429 . S
C673 H695 0.950 . S
C674 H670 0.949 . S
C674 C682 1.574 1_565 S
C674 C690 1.368 . S
H675 C683 0.950 . S
H676 C681 0.950 . S
H677 C682 0.949 . S
H678 C684 0.950 . S
H679 C685 0.950 . S
H680 C686 0.949 . S
C681 H676 0.950 . S
C681 C683 1.327 . S
C681 C687 1.429 . S
C682 C674 1.574 1_545 S
C682 H677 0.949 . S
C682 C688 1.368 . S
C683 C667 1.349 . S
C683 H675 0.950 . S
C683 C681 1.327 . S
C684 C672 1.349 . S
C684 H678 0.950 . S
C684 C685 1.327 . S
C685 H679 0.950 . S
C685 C684 1.327 . S
C685 C689 1.429 . S
C686 C669 1.574 1_565 S
C686 H680 0.949 . S
C686 C690 1.368 . S
C687 C668 1.429 . S
C687 C681 1.429 . S
C687 C688 1.523 . S
C688 C669 1.368 . S
C688 C682 1.368 . S
C688 C687 1.523 . S
C689 C673 1.429 . S
C689 C685 1.429 . S
C689 C690 1.523 . S
C690 C674 1.368 . S
C690 C686 1.368 . S
C690 C689 1.523 . S
H691 C666 0.950 . S
H692 C668 0.950 . S
H693 C669 0.949 . S
H694 C671 0.950 . S
H695 C673 0.950 . S
C696 C697 1.349 . S
C696 C698 1.327 . S
C696 H721 0.950 . S
C697 C696 1.349 . S
C697 C713 1.349 . S
C698 C696 1.327 . S
C698 C717 1.429 . S
C698 H722 0.950 . S
C699 C716 1.574 . S
C699 C718 1.368 . S
C699 H723 0.949 . S
H700 C704 0.949 . S
C701 C702 1.349 . S
C701 C703 1.327 . S
C701 H724 0.950 . S
C702 C701 1.349 . S
C702 C714 1.349 . S
C703 C701 1.327 . S
C703 C719 1.429 . S
C703 H725 0.950 . S
C704 H700 0.949 . S
C704 C712 1.574 . S
C704 C720 1.368 . S
H705 C713 0.950 . S
H706 C711 0.950 . S
H707 C712 0.949 . S
H708 C714 0.950 . S
H709 C715 0.950 . S
H710 C716 0.949 . S
C711 H706 0.950 . S
C711 C713 1.327 . S
C711 C717 1.429 . S
C712 C704 1.574 . S
C712 H707 0.949 . S
C712 C718 1.368 . S
C713 C697 1.349 . S
C713 H705 0.950 . S
C713 C711 1.327 . S
C714 C702 1.349 . S
C714 H708 0.950 . S
C714 C715 1.327 . S
C715 H709 0.950 . S
C715 C714 1.327 . S
C715 C719 1.429 . S
C716 C699 1.574 . S
C716 H710 0.949 . S
C716 C720 1.368 . S
C717 C698 1.429 . S
C717 C711 1.429 . S
C717 C718 1.523 . S
C718 C699 1.368 . S
C718 C712 1.368 . S
C718 C717 1.523 . S
C719 C703 1.429 . S
C719 C715 1.429 . S
C719 C720 1.523 . S
C720 C704 1.368 . S
C720 C716 1.368 . S
C720 C719 1.523 . S
H721 C696 0.950 . S
H722 C698 0.950 . S
H723 C699 0.949 . S
H724 C701 0.950 . S
H725 C703 0.950 . S
C726 C727 1.349 . S
C726 C728 1.327 . S
C726 H751 0.950 . S
C727 C726 1.349 . S
C727 C743 1.349 . S
C728 C726 1.327 . S
C728 C747 1.429 . S
C728 H752 0.950 . S
C729 C746 1.574 1_545 S
C729 C748 1.368 . S
C729 H753 0.949 . S
H730 C734 0.949 . S
C731 C732 1.349 . S
C731 C733 1.327 . S
C731 H754 0.950 . S
C732 C731 1.349 . S
C732 C744 1.349 . S
C733 C731 1.327 . S
C733 C749 1.429 . S
C733 H755 0.950 . S
C734 H730 0.949 . S
C734 C742 1.574 1_565 S
C734 C750 1.368 . S
H735 C743 0.950 . S
H736 C741 0.950 . S
H737 C742 0.949 . S
H738 C744 0.950 . S
H739 C745 0.950 . S
H740 C746 0.949 . S
C741 H736 0.950 . S
C741 C743 1.327 . S
C741 C747 1.429 . S
C742 C734 1.574 1_545 S
C742 H737 0.949 . S
C742 C748 1.368 . S
C743 C727 1.349 . S
C743 H735 0.950 . S
C743 C741 1.327 . S
C744 C732 1.349 . S
C744 H738 0.950 . S
C744 C745 1.327 . S
C745 H739 0.950 . S
C745 C744 1.327 . S
C745 C749 1.429 . S
C746 C729 1.574 1_565 S
C746 H740 0.949 . S
C746 C750 1.368 . S
C747 C728 1.429 . S
C747 C741 1.429 . S
C747 C748 1.523 . S
C748 C729 1.368 . S
C748 C742 1.368 . S
C748 C747 1.523 . S
C749 C733 1.429 . S
C749 C745 1.429 . S
C749 C750 1.523 . S
C750 C734 1.368 . S
C750 C746 1.368 . S
C750 C749 1.523 . S
H751 C726 0.950 . S
H752 C728 0.950 . S
H753 C729 0.949 . S
H754 C731 0.950 . S
H755 C733 0.950 . S
C756 C757 1.349 . S
C756 C758 1.327 . S
C756 H781 0.950 . S
C757 C756 1.349 . S
C757 C773 1.349 . S
C758 C756 1.327 . S
C758 C777 1.429 . S
C758 H782 0.950 . S
C759 C776 1.574 . S
C759 C778 1.368 . S
C759 H783 0.949 . S
H760 C764 0.949 . S
C761 C762 1.349 . S
C761 C763 1.327 . S
C761 H784 0.950 . S
C762 C761 1.349 . S
C762 C774 1.349 . S
C763 C761 1.327 . S
C763 C779 1.429 . S
C763 H785 0.950 . S
C764 H760 0.949 . S
C764 C772 1.574 . S
C764 C780 1.368 . S
H765 C773 0.950 . S
H766 C771 0.950 . S
H767 C772 0.949 . S
H768 C774 0.950 . S
H769 C775 0.950 . S
H770 C776 0.949 . S
C771 H766 0.950 . S
C771 C773 1.327 . S
C771 C777 1.429 . S
C772 C764 1.574 . S
C772 H767 0.949 . S
C772 C778 1.368 . S
C773 C757 1.349 . S
C773 H765 0.950 . S
C773 C771 1.327 . S
C774 C762 1.349 . S
C774 H768 0.950 . S
C774 C775 1.327 . S
C775 H769 0.950 . S
C775 C774 1.327 . S
C775 C779 1.429 . S
C776 C759 1.574 . S
C776 H770 0.949 . S
C776 C780 1.368 . S
C777 C758 1.429 . S
C777 C771 1.429 . S
C777 C778 1.523 . S
C778 C759 1.368 . S
C778 C772 1.368 . S
C778 C777 1.523 . S
C779 C763 1.429 . S
C779 C775 1.429 . S
C779 C780 1.523 . S
C780 C764 1.368 . S
C780 C776 1.368 . S
C780 C779 1.523 . S
H781 C756 0.950 . S
H782 C758 0.950 . S
H783 C759 0.949 . S
H784 C761 0.950 . S
H785 C763 0.950 . S
C786 C787 1.349 . S
C786 C788 1.327 . S
C786 H811 0.950 . S
C787 C786 1.349 . S
C787 C803 1.349 . S
C788 C786 1.327 . S
C788 C807 1.429 . S
C788 H812 0.950 . S
C789 C806 1.574 1_455 S
C789 C808 1.368 . S
C789 H813 0.949 . S
H790 C794 0.949 . S
C791 C792 1.349 . S
C791 C793 1.327 . S
C791 H814 0.950 . S
C792 C791 1.349 . S
C792 C804 1.349 . S
C793 C791 1.327 . S
C793 C809 1.429 . S
C793 H815 0.950 . S
C794 H790 0.949 . S
C794 C802 1.574 1_655 S
C794 C810 1.368 . S
H795 C803 0.950 . S
H796 C801 0.950 . S
H797 C802 0.949 . S
H798 C804 0.950 . S
H799 C805 0.950 . S
H800 C806 0.949 . S
C801 H796 0.950 . S
C801 C803 1.327 . S
C801 C807 1.429 . S
C802 C794 1.574 1_455 S
C802 H797 0.949 . S
C802 C808 1.368 . S
C803 C787 1.349 . S
C803 H795 0.950 . S
C803 C801 1.327 . S
C804 C792 1.349 . S
C804 H798 0.950 . S
C804 C805 1.327 . S
C805 H799 0.950 . S
C805 C804 1.327 . S
C805 C809 1.429 . S
C806 C789 1.574 1_655 S
C806 H800 0.949 . S
C806 C810 1.368 . S
C807 C788 1.429 . S
C807 C801 1.429 . S
C807 C808 1.523 . S
C808 C789 1.368 . S
C808 C802 1.368 . S
C808 C807 1.523 . S
C809 C793 1.429 . S
C809 C805 1.429 . S
C809 C810 1.523 . S
C810 C794 1.368 . S
C810 C806 1.368 . S
C810 C809 1.523 . S
H811 C786 0.950 . S
H812 C788 0.950 . S
H813 C789 0.949 . S
H814 C791 0.950 . S
H815 C793 0.950 . S
C816 C817 1.349 . S
C816 C818 1.327 . S
C816 H841 0.950 . S
C817 C816 1.349 . S
C817 C833 1.349 . S
C818 C816 1.327 . S
C818 C837 1.429 . S
C818 H842 0.950 . S
C819 C836 1.574 . S
C819 C838 1.368 . S
C819 H843 0.949 . S
H820 C824 0.949 . S
C821 C822 1.349 . S
C821 C823 1.327 . S
C821 H844 0.950 . S
C822 C821 1.349 . S
C822 C834 1.349 . S
C823 C821 1.327 . S
C823 C839 1.429 . S
C823 H845 0.950 . S
C824 H820 0.949 . S
C824 C832 1.574 . S
C824 C840 1.368 . S
H825 C833 0.950 . S
H826 C831 0.950 . S
H827 C832 0.949 . S
H828 C834 0.950 . S
H829 C835 0.950 . S
H830 C836 0.949 . S
C831 H826 0.950 . S
C831 C833 1.327 . S
C831 C837 1.429 . S
C832 C824 1.574 . S
C832 H827 0.949 . S
C832 C838 1.368 . S
C833 C817 1.349 . S
C833 H825 0.950 . S
C833 C831 1.327 . S
C834 C822 1.349 . S
C834 H828 0.950 . S
C834 C835 1.327 . S
C835 H829 0.950 . S
C835 C834 1.327 . S
C835 C839 1.429 . S
C836 C819 1.574 . S
C836 H830 0.949 . S
C836 C840 1.368 . S
C837 C818 1.429 . S
C837 C831 1.429 . S
C837 C838 1.523 . S
C838 C819 1.368 . S
C838 C832 1.368 . S
C838 C837 1.523 . S
C839 C823 1.429 . S
C839 C835 1.429 . S
C839 C840 1.523 . S
C840 C824 1.368 . S
C840 C836 1.368 . S
C840 C839 1.523 . S
H841 C816 0.950 . S
H842 C818 0.950 . S
H843 C819 0.949 . S
H844 C821 0.950 . S
H845 C823 0.950 . S
C846 C847 1.349 . S
C846 C848 1.327 . S
C846 H871 0.950 . S
C847 C846 1.349 . S
C847 C863 1.349 . S
C848 C846 1.327 . S
C848 C867 1.429 . S
C848 H872 0.950 . S
C849 C866 1.574 1_655 S
C849 C868 1.368 . S
C849 H873 0.949 . S
H850 C854 0.949 . S
C851 C852 1.349 . S
C851 C853 1.327 . S
C851 H874 0.950 . S
C852 C851 1.349 . S
C852 C864 1.349 . S
C853 C851 1.327 . S
C853 C869 1.429 . S
C853 H875 0.950 . S
C854 H850 0.949 . S
C854 C862 1.574 1_455 S
C854 C870 1.368 . S
H855 C863 0.950 . S
H856 C861 0.950 . S
H857 C862 0.949 . S
H858 C864 0.950 . S
H859 C865 0.950 . S
H860 C866 0.949 . S
C861 H856 0.950 . S
C861 C863 1.327 . S
C861 C867 1.429 . S
C862 C854 1.574 1_655 S
C862 H857 0.949 . S
C862 C868 1.368 . S
C863 C847 1.349 . S
C863 H855 0.950 . S
C863 C861 1.327 . S
C864 C852 1.349 . S
C864 H858 0.950 . S
C864 C865 1.327 . S
C865 H859 0.950 . S
C865 C864 1.327 . S
C865 C869 1.429 . S
C866 C849 1.574 1_455 S
C866 H860 0.949 . S
C866 C870 1.368 . S
C867 C848 1.429 . S
C867 C861 1.429 . S
C867 C868 1.523 . S
C868 C849 1.368 . S
C868 C862 1.368 . S
C868 C867 1.523 . S
C869 C853 1.429 . S
C869 C865 1.429 . S
C869 C870 1.523 . S
C870 C854 1.368 . S
C870 C866 1.368 . S
C870 C869 1.523 . S
H871 C846 0.950 . S
H872 C848 0.950 . S
H873 C849 0.949 . S
H874 C851 0.950 . S
H875 C853 0.950 . S
C876 C877 1.349 . S
C876 C878 1.327 . S
C876 H901 0.950 . S
C877 C876 1.349 . S
C877 C893 1.349 . S
C878 C876 1.327 . S
C878 C897 1.429 . S
C878 H902 0.950 . S
C879 C896 1.574 1_545 S
C879 C898 1.368 . S
C879 H903 0.949 . S
H880 C884 0.949 . S
C881 C882 1.349 . S
C881 C883 1.327 . S
C881 H904 0.950 . S
C882 C881 1.349 . S
C882 C894 1.349 . S
C883 C881 1.327 . S
C883 C899 1.429 . S
C883 H905 0.950 . S
C884 H880 0.949 . S
C884 C892 1.574 1_565 S
C884 C900 1.368 . S
H885 C893 0.950 . S
H886 C891 0.950 . S
H887 C892 0.949 . S
H888 C894 0.950 . S
H889 C895 0.950 . S
H890 C896 0.949 . S
C891 H886 0.950 . S
C891 C893 1.327 . S
C891 C897 1.429 . S
C892 C884 1.574 1_545 S
C892 H887 0.949 . S
C892 C898 1.368 . S
C893 C877 1.349 . S
C893 H885 0.950 . S
C893 C891 1.327 . S
C894 C882 1.349 . S
C894 H888 0.950 . S
C894 C895 1.327 . S
C895 H889 0.950 . S
C895 C894 1.327 . S
C895 C899 1.429 . S
C896 C879 1.574 1_565 S
C896 H890 0.949 . S
C896 C900 1.368 . S
C897 C878 1.429 . S
C897 C891 1.429 . S
C897 C898 1.523 . S
C898 C879 1.368 . S
C898 C892 1.368 . S
C898 C897 1.523 . S
C899 C883 1.429 . S
C899 C895 1.429 . S
C899 C900 1.523 . S
C900 C884 1.368 . S
C900 C896 1.368 . S
C900 C899 1.523 . S
H901 C876 0.950 . S
H902 C878 0.950 . S
H903 C879 0.949 . S
H904 C881 0.950 . S
H905 C883 0.950 . S
C906 C907 1.349 . S
C906 C908 1.327 . S
C906 H931 0.950 . S
C907 C906 1.349 . S
C907 C923 1.349 . S
C908 C906 1.327 . S
C908 C927 1.429 . S
C908 H932 0.950 . S
C909 C926 1.574 . S
C909 C928 1.368 . S
C909 H933 0.949 . S
H910 C914 0.949 . S
C911 C912 1.349 . S
C911 C913 1.327 . S
C911 H934 0.950 . S
C912 C911 1.349 . S
C912 C924 1.349 . S
C913 C911 1.327 . S
C913 C929 1.429 . S
C913 H935 0.950 . S
C914 H910 0.949 . S
C914 C922 1.574 . S
C914 C930 1.368 . S
H915 C923 0.950 . S
H916 C921 0.950 . S
H917 C922 0.949 . S
H918 C924 0.950 . S
H919 C925 0.950 . S
H920 C926 0.949 . S
C921 H916 0.950 . S
C921 C923 1.327 . S
C921 C927 1.429 . S
C922 C914 1.574 . S
C922 H917 0.949 . S
C922 C928 1.368 . S
C923 C907 1.349 . S
C923 H915 0.950 . S
C923 C921 1.327 . S
C924 C912 1.349 . S
C924 H918 0.950 . S
C924 C925 1.327 . S
C925 H919 0.950 . S
C925 C924 1.327 . S
C925 C929 1.429 . S
C926 C909 1.574 . S
C926 H920 0.949 . S
C926 C930 1.368 . S
C927 C908 1.429 . S
C927 C921 1.429 . S
C927 C928 1.523 . S
C928 C909 1.368 . S
C928 C922 1.368 . S
C928 C927 1.523 . S
C929 C913 1.429 . S
C929 C925 1.429 . S
C929 C930 1.523 . S
C930 C914 1.368 . S
C930 C926 1.368 . S
C930 C929 1.523 . S
H931 C906 0.950 . S
H932 C908 0.950 . S
H933 C909 0.949 . S
H934 C911 0.950 . S
H935 C913 0.950 . S
C936 C937 1.349 . S
C936 C938 1.327 . S
C936 H961 0.950 . S
C937 C936 1.349 . S
C937 C953 1.349 . S
C938 C936 1.327 . S
C938 C957 1.429 . S
C938 H962 0.950 . S
C939 C956 1.574 1_455 S
C939 C958 1.368 . S
C939 H963 0.949 . S
H940 C944 0.949 . S
C941 C942 1.349 . S
C941 C943 1.327 . S
C941 H964 0.950 . S
C942 C941 1.349 . S
C942 C954 1.349 . S
C943 C941 1.327 . S
C943 C959 1.429 . S
C943 H965 0.950 . S
C944 H940 0.949 . S
C944 C952 1.574 1_655 S
C944 C960 1.368 . S
H945 C953 0.950 . S
H946 C951 0.950 . S
H947 C952 0.949 . S
H948 C954 0.950 . S
H949 C955 0.950 . S
H950 C956 0.949 . S
C951 H946 0.950 . S
C951 C953 1.327 . S
C951 C957 1.429 . S
C952 C944 1.574 1_455 S
C952 H947 0.949 . S
C952 C958 1.368 . S
C953 C937 1.349 . S
C953 H945 0.950 . S
C953 C951 1.327 . S
C954 C942 1.349 . S
C954 H948 0.950 . S
C954 C955 1.327 . S
C955 H949 0.950 . S
C955 C954 1.327 . S
C955 C959 1.429 . S
C956 C939 1.574 1_655 S
C956 H950 0.949 . S
C956 C960 1.368 . S
C957 C938 1.429 . S
C957 C951 1.429 . S
C957 C958 1.523 . S
C958 C939 1.368 . S
C958 C952 1.368 . S
C958 C957 1.523 . S
C959 C943 1.429 . S
C959 C955 1.429 . S
C959 C960 1.523 . S
C960 C944 1.368 . S
C960 C956 1.368 . S
C960 C959 1.523 . S
H961 C936 0.950 . S
H962 C938 0.950 . S
H963 C939 0.949 . S
H964 C941 0.950 . S
H965 C943 0.950 . S
C966 C967 1.349 . S
C966 C968 1.327 . S
C966 H991 0.950 . S
C967 C966 1.349 . S
C967 C983 1.349 . S
C968 C966 1.327 . S
C968 C987 1.429 . S
C968 H992 0.950 . S
C969 C986 1.574 1_565 S
C969 C988 1.368 . S
C969 H993 0.949 . S
H970 C974 0.949 . S
C971 C972 1.349 . S
C971 C973 1.327 . S
C971 H994 0.950 . S
C972 C971 1.349 . S
C972 C984 1.349 . S
C973 C971 1.327 . S
C973 C989 1.429 . S
C973 H995 0.950 . S
C974 H970 0.949 . S
C974 C982 1.574 1_545 S
C974 C990 1.368 . S
H975 C983 0.950 . S
H976 C981 0.950 . S
H977 C982 0.949 . S
H978 C984 0.950 . S
H979 C985 0.950 . S
H980 C986 0.949 . S
C981 H976 0.950 . S
C981 C983 1.327 . S
C981 C987 1.429 . S
C982 C974 1.574 1_565 S
C982 H977 0.949 . S
C982 C988 1.368 . S
C983 C967 1.349 . S
C983 H975 0.950 . S
C983 C981 1.327 . S
C984 C972 1.349 . S
C984 H978 0.950 . S
C984 C985 1.327 . S
C985 H979 0.950 . S
C985 C984 1.327 . S
C985 C989 1.429 . S
C986 C969 1.574 1_545 S
C986 H980 0.949 . S
C986 C990 1.368 . S
C987 C968 1.429 . S
C987 C981 1.429 . S
C987 C988 1.523 . S
C988 C969 1.368 . S
C988 C982 1.368 . S
C988 C987 1.523 . S
C989 C973 1.429 . S
C989 C985 1.429 . S
C989 C990 1.523 . S
C990 C974 1.368 . S
C990 C986 1.368 . S
C990 C989 1.523 . S
H991 C966 0.950 . S
H992 C968 0.950 . S
H993 C969 0.949 . S
H994 C971 0.950 . S
H995 C973 0.950 . S
C277 N232 1.627 . S
C282 N2 1.627 . S
C307 C30 1.666 . S
C312 C260 1.667 . S
C337 C53 1.667 . S
C342 C145 1.665 . S
C367 N71 1.627 . S
C372 N163 1.627 . S
C397 C191 1.667 . S
C402 C99 1.665 . S
C427 C122 1.667 . S
C432 C214 1.665 . S
C457 C200 1.671 . S
C462 N12 1.676 . S
C487 C39 1.658 . S
C492 C223 1.658 . S
C517 C62 1.671 . S
C522 N242 1.676 . S
C547 N81 1.676 . S
C552 C269 1.671 . S
C577 C154 1.658 . S
C582 C108 1.658 . S
C607 N173 1.676 . S
C612 C131 1.671 . S
C637 C76 1.073 . S
C642 C7 1.073 . S
C667 N25 1.016 . S
C672 N94 1.016 . S
C697 N117 0.966 . S
C702 N48 0.966 . S
C727 N209 1.015 . S
C732 N140 1.015 . S
C757 C237 1.073 . S
C762 C168 1.073 . S
C787 N186 0.967 . S
C792 N255 0.967 . S
C817 C85 2.032 . S
C822 C16 2.032 . S
C847 N35 1.904 . S
C852 N104 1.904 . S
C877 N127 1.949 . S
C882 N58 1.949 . S
C907 N150 1.903 . S
C912 N219 1.903 . S
C937 C246 2.031 . S
C942 C177 2.031 . S
C967 N196 1.950 . S
C972 N265 1.950 . S
