# Generated by pormake.
# Topology uog, (4)-cn, num edge types: 1
# Building blocks:
#     Node 0, Type 0, BuildingBlock: ICAMEG_clean_sbu_1, # of connection points: 4
#     Node 1, Type 0, BuildingBlock: ICAMEG_clean_sbu_1, # of connection points: 4
#     Node 2, Type 0, BuildingBlock: ICAMEG_clean_sbu_1, # of connection points: 4
#     Node 3, Type 0, BuildingBlock: ICAMEG_clean_sbu_1, # of connection points: 4
#     Node 4, Type 0, BuildingBlock: ICAMEG_clean_sbu_1, # of connection points: 4
#     Node 5, Type 0, BuildingBlock: ICAMEG_clean_sbu_1, # of connection points: 4
#     Edge 6, Type (0, 0), BuildingBlock: UVAHIK_clean_linker_0, # of connection points: 2
#     Edge 7, Type (0, 0), BuildingBlock: UVAHIK_clean_linker_0, # of connection points: 2
#     Edge 8, Type (0, 0), BuildingBlock: UVAHIK_clean_linker_0, # of connection points: 2
#     Edge 9, Type (0, 0), BuildingBlock: UVAHIK_clean_linker_0, # of connection points: 2
#     Edge 10, Type (0, 0), BuildingBlock: UVAHIK_clean_linker_0, # of connection points: 2
#     Edge 11, Type (0, 0), BuildingBlock: UVAHIK_clean_linker_0, # of connection points: 2
#     Edge 12, Type (0, 0), BuildingBlock: UVAHIK_clean_linker_0, # of connection points: 2
#     Edge 13, Type (0, 0), BuildingBlock: UVAHIK_clean_linker_0, # of connection points: 2
#     Edge 14, Type (0, 0), BuildingBlock: UVAHIK_clean_linker_0, # of connection points: 2
#     Edge 15, Type (0, 0), BuildingBlock: UVAHIK_clean_linker_0, # of connection points: 2
#     Edge 16, Type (0, 0), BuildingBlock: UVAHIK_clean_linker_0, # of connection points: 2
#     Edge 17, Type (0, 0), BuildingBlock: UVAHIK_clean_linker_0, # of connection points: 2
# Relax obj value: 0.051
# Max RMSD: 0.120
# Mean RMSD: 0.120
data_MOF--net-uog--node1-ICAMEG_clean_sbu_1--edge1-UVAHIK_clean_linker_0
_symmetry_space_group_name_H-M    P1
_symmetry_Int_Tables_number       1
_symmetry_cell_setting            triclinic
loop_
_symmetry_equiv_pos_as_xyz
'x, y, z'
_cell_length_a     38.589452
_cell_length_b     38.587128
_cell_length_c     58.566601
_cell_angle_alpha  89.973305
_cell_angle_beta   90.003335
_cell_angle_gamma 120.00508
loop_
_atom_site_label
_atom_site_type_symbol
_atom_site_fract_x
_atom_site_fract_y
_atom_site_fract_z
_atom_type_partial_charge
Co0 Co 0.61826 0.32755 0.1608 0.0
Co1 Co 0.52267 0.2579 0.17826 0.0
O2 O 0.57129 0.27393 0.16063 0.0
C3 C 0.59368 0.31087 0.11261 0.0
O4 O 0.55704 0.29815 0.11977 0.0
C5 C 0.5491 0.20145 0.19232 0.0
O6 O 0.58532 0.23235 0.19438 0.0
O7 O 0.55435 0.28244 0.20646 0.0
O8 O 0.6147 0.33127 0.19468 0.0
H9 H 0.43502 0.27832 0.2336 0.0
H10 H 0.62245 0.26075 0.13848 0.0
O11 O 0.62256 0.32456 0.12682 0.0
H12 H 0.72522 0.30958 0.19887 0.0
H13 H 0.75615 0.43271 0.13573 0.0
H14 H 0.64027 0.40394 0.18421 0.0
H15 H 0.68455 0.3417 0.19253 0.0
H16 H 0.69658 0.36515 0.13647 0.0
O17 O 0.52023 0.20636 0.18613 0.0
H18 H 0.49604 0.29859 0.21086 0.0
H19 H 0.44568 0.18119 0.18366 0.0
H20 H 0.69934 0.47184 0.18414 0.0
H21 H 0.66265 0.22793 0.14413 0.0
H22 H 0.75783 0.48656 0.15976 0.0
H23 H 0.71438 0.25227 0.17456 0.0
O24 O 0.58462 0.3528 0.15654 0.0
H25 H 0.48672 0.1746 0.10697 0.0
H26 H 0.45509 0.26018 0.15487 0.0
H27 H 0.41728 0.23159 0.11929 0.0
H28 H 0.43303 0.18843 0.09506 0.0
H29 H 0.52401 0.20412 0.14258 0.0
H30 H 0.38424 0.15954 0.20625 0.0
H31 H 0.37859 0.20834 0.23137 0.0
O32 O 0.52404 0.30894 0.17064 0.0
C33 C 0.5894 0.31169 0.21036 0.0
C34 C 0.43707 0.25682 0.22266 0.0
C35 C 0.4086 0.19014 0.20734 0.0
N36 N 0.47426 0.24119 0.19582 0.0
C37 C 0.47149 0.26815 0.2097 0.0
C38 C 0.44348 0.20254 0.19463 0.0
C39 C 0.40544 0.21754 0.22142 0.0
C40 C 0.64519 0.27178 0.1516 0.0
N41 N 0.6513 0.30325 0.16507 0.0
C42 C 0.66774 0.25296 0.15479 0.0
C43 C 0.69672 0.26659 0.17188 0.0
C44 C 0.7028 0.29873 0.18554 0.0
C45 C 0.67963 0.31676 0.18189 0.0
C46 C 0.73089 0.42665 0.14646 0.0
C47 C 0.66572 0.41007 0.17367 0.0
C48 C 0.69706 0.38848 0.14691 0.0
N49 N 0.66515 0.38058 0.16051 0.0
C50 C 0.69903 0.44859 0.17365 0.0
C51 C 0.73181 0.45684 0.15995 0.0
C52 C 0.54877 0.34273 0.16192 0.0
C53 C 0.47952 0.19329 0.1174 0.0
C54 C 0.46222 0.24159 0.14438 0.0
C55 C 0.44062 0.22536 0.12428 0.0
C56 C 0.44945 0.20112 0.11071 0.0
N57 N 0.49172 0.23384 0.15081 0.0
C58 C 0.50043 0.20997 0.13763 0.0
Co59 Co 0.29474 0.62134 0.48964 0.0
Co60 Co 0.26088 0.52356 0.50629 0.0
O61 O 0.29658 0.57176 0.48914 0.0
C62 C 0.28417 0.59794 0.44104 0.0
O63 O 0.25633 0.56217 0.4476 0.0
C64 C 0.34163 0.54512 0.52184 0.0
O65 O 0.34839 0.58183 0.5241 0.0
O66 O 0.26816 0.55497 0.53468 0.0
O67 O 0.28764 0.61789 0.52351 0.0
H68 H 0.14737 0.4391 0.55952 0.0
H69 H 0.36227 0.61852 0.46731 0.0
O70 O 0.30226 0.62565 0.45571 0.0
H71 H 0.4239 0.72141 0.52726 0.0
H72 H 0.33865 0.76245 0.46515 0.0
H73 H 0.24543 0.64924 0.51353 0.0
H74 H 0.35094 0.68615 0.52097 0.0
H75 H 0.34063 0.69952 0.4655 0.0
O76 O 0.30763 0.51745 0.515 0.0
H77 H 0.19218 0.49987 0.53755 0.0
H78 H 0.25498 0.44397 0.51177 0.0
H79 H 0.24261 0.71173 0.51384 0.0
H80 H 0.43539 0.65328 0.47286 0.0
H81 H 0.28947 0.76888 0.48952 0.0
H82 H 0.46665 0.70502 0.50309 0.0
O83 O 0.23545 0.59175 0.48552 0.0
H84 H 0.30751 0.48478 0.43574 0.0
H85 H 0.19007 0.45941 0.48172 0.0
H86 H 0.18029 0.42181 0.44599 0.0
H87 H 0.23931 0.4344 0.42273 0.0
H88 H 0.31586 0.52193 0.4715 0.0
H89 H 0.21106 0.3827 0.5336 0.0
H90 H 0.1567 0.37996 0.55762 0.0
O91 O 0.21387 0.52898 0.49785 0.0
C92 C 0.27784 0.59116 0.53891 0.0
C93 C 0.17087 0.43988 0.54906 0.0
C94 C 0.20666 0.40825 0.53454 0.0
N95 N 0.22594 0.47533 0.52327 0.0
C96 C 0.19625 0.47416 0.53653 0.0
C97 C 0.23148 0.44304 0.52226 0.0
C98 C 0.17615 0.40673 0.54801 0.0
C99 C 0.37568 0.64125 0.48036 0.0
N100 N 0.35235 0.65032 0.49379 0.0
C101 C 0.41709 0.66073 0.48348 0.0
C102 C 0.4346 0.68972 0.50046 0.0
C103 C 0.41063 0.6989 0.51404 0.0
C104 C 0.36932 0.67875 0.51046 0.0
C105 C 0.31812 0.73779 0.47585 0.0
C106 C 0.26607 0.67408 0.50301 0.0
C107 C 0.31904 0.70206 0.47608 0.0
N108 N 0.29336 0.67088 0.48965 0.0
C109 C 0.26426 0.70934 0.5032 0.0
C110 C 0.29053 0.74138 0.48954 0.0
C111 C 0.20761 0.55615 0.48993 0.0
C112 C 0.28156 0.47897 0.44575 0.0
C113 C 0.21586 0.46514 0.47166 0.0
C114 C 0.21016 0.44369 0.45147 0.0
C115 C 0.24329 0.45075 0.43844 0.0
N116 N 0.25348 0.49278 0.47871 0.0
C117 C 0.28611 0.49981 0.46605 0.0
Co118 Co 0.66632 0.29282 0.82708 0.0
Co119 Co 0.73272 0.26237 0.84436 0.0
O120 O 0.71884 0.29693 0.82704 0.0
C121 C 0.68264 0.28382 0.77893 0.0
O122 O 0.6946 0.25933 0.78618 0.0
C123 C 0.78975 0.34397 0.86 0.0
O124 O 0.75918 0.34987 0.86181 0.0
O125 O 0.7071 0.26832 0.87247 0.0
O126 O 0.66258 0.28621 0.861 0.0
H127 H 0.70644 0.14975 0.89767 0.0
H128 H 0.73548 0.3616 0.80471 0.0
O129 O 0.66946 0.2996 0.79306 0.0
H130 H 0.68998 0.42081 0.86384 0.0
H131 H 0.56538 0.33102 0.80143 0.0
H132 H 0.58939 0.24162 0.85084 0.0
H133 H 0.65473 0.34777 0.85788 0.0
H134 H 0.63159 0.33586 0.80227 0.0
O135 O 0.78445 0.3102 0.85345 0.0
H136 H 0.68887 0.19307 0.87539 0.0
H137 H 0.80801 0.25962 0.85055 0.0
H138 H 0.52281 0.23596 0.85067 0.0
H139 H 0.77144 0.43483 0.80995 0.0
H140 H 0.51049 0.28088 0.82582 0.0
H141 H 0.74881 0.46488 0.83976 0.0
O142 O 0.63861 0.23359 0.82315 0.0
H143 H 0.81991 0.31237 0.77458 0.0
H144 H 0.7298 0.1931 0.81991 0.0
H145 H 0.75962 0.18512 0.78447 0.0
H146 H 0.80505 0.24507 0.76154 0.0
H147 H 0.78915 0.31892 0.81002 0.0
H148 H 0.82696 0.21724 0.8727 0.0
H149 H 0.77593 0.16174 0.8964 0.0
O150 O 0.68146 0.21416 0.8355 0.0
C151 C 0.67988 0.27709 0.87652 0.0
C152 C 0.7289 0.17375 0.88734 0.0
C153 C 0.79657 0.21167 0.87336 0.0
N154 N 0.7473 0.22861 0.86155 0.0
C155 C 0.7191 0.19829 0.87464 0.0
C156 C 0.78568 0.23562 0.86089 0.0
C157 C 0.76791 0.18053 0.88665 0.0
C158 C 0.72523 0.37448 0.81757 0.0
N159 N 0.69299 0.35043 0.83095 0.0
C160 C 0.7458 0.41595 0.82052 0.0
C161 C 0.73313 0.43279 0.83727 0.0
C162 C 0.70014 0.40808 0.8508 0.0
C163 C 0.68036 0.36673 0.84739 0.0
C164 C 0.5704 0.31133 0.81235 0.0
C165 C 0.5843 0.26143 0.8401 0.0
C166 C 0.60779 0.31387 0.81286 0.0
N167 N 0.61438 0.28923 0.82672 0.0
C168 C 0.54652 0.25801 0.84002 0.0
C169 C 0.53962 0.2832 0.82606 0.0
C170 C 0.64769 0.20668 0.82748 0.0
C171 C 0.80022 0.28603 0.78444 0.0
C172 C 0.7494 0.21928 0.80998 0.0
C173 C 0.7663 0.21461 0.78997 0.0
C174 C 0.79182 0.24826 0.77712 0.0
N175 N 0.75772 0.25642 0.81704 0.0
C176 C 0.78284 0.28957 0.80458 0.0
Co177 Co 0.37037 0.66661 0.15599 0.0
Co178 Co 0.46905 0.72929 0.17127 0.0
O179 O 0.42059 0.71745 0.15464 0.0
C180 C 0.39153 0.67812 0.10714 0.0
O181 O 0.42705 0.68474 0.11327 0.0
C182 C 0.45174 0.79202 0.18589 0.0
O183 O 0.41451 0.76351 0.18883 0.0
O184 O 0.43843 0.70814 0.20019 0.0
O185 O 0.37554 0.66325 0.18975 0.0
H186 H 0.55245 0.69951 0.2249 0.0
H187 H 0.3729 0.73686 0.13361 0.0
O188 O 0.3645 0.66952 0.12215 0.0
H189 H 0.2753 0.69968 0.1963 0.0
H190 H 0.22727 0.57172 0.13404 0.0
H191 H 0.34208 0.58938 0.18 0.0
H192 H 0.30901 0.66073 0.18917 0.0
H193 H 0.29113 0.63575 0.13338 0.0
O194 O 0.47788 0.78359 0.17887 0.0
H195 H 0.49144 0.68448 0.20348 0.0
H196 H 0.55039 0.80126 0.17483 0.0
H197 H 0.2787 0.52496 0.18131 0.0
H198 H 0.33965 0.77644 0.14004 0.0
H199 H 0.22073 0.51584 0.15821 0.0
H200 H 0.29055 0.75799 0.17162 0.0
O201 O 0.39845 0.63568 0.15119 0.0
H202 H 0.50724 0.80967 0.09876 0.0
H203 H 0.53064 0.71828 0.14669 0.0
H204 H 0.56688 0.74249 0.11022 0.0
H205 H 0.55527 0.78856 0.08598 0.0
H206 H 0.4714 0.78443 0.13527 0.0
H207 H 0.61193 0.81769 0.1961 0.0
H208 H 0.61325 0.76654 0.22127 0.0
O209 O 0.46119 0.67539 0.16395 0.0
C210 C 0.40252 0.68141 0.20486 0.0
C211 C 0.55228 0.722 0.21393 0.0
C212 C 0.58565 0.78835 0.19779 0.0
N213 N 0.51748 0.74185 0.18779 0.0
C214 C 0.51787 0.71362 0.20171 0.0
C215 C 0.5507 0.77892 0.18583 0.0
C216 C 0.58638 0.75963 0.2119 0.0
C217 C 0.35127 0.72839 0.14724 0.0
N218 N 0.34275 0.69638 0.16091 0.0
C219 C 0.33266 0.75102 0.15086 0.0
C220 C 0.30516 0.74069 0.16861 0.0
C221 C 0.29661 0.70799 0.18247 0.0
C222 C 0.31584 0.68609 0.17837 0.0
C223 C 0.25229 0.57536 0.14421 0.0
C224 C 0.3169 0.5857 0.17001 0.0
C225 C 0.28853 0.6115 0.14387 0.0
N226 N 0.32017 0.61636 0.15678 0.0
C227 C 0.28113 0.54913 0.17077 0.0
C228 C 0.24863 0.54402 0.15779 0.0
C229 C 0.43353 0.64231 0.15594 0.0
C230 C 0.5126 0.78965 0.10919 0.0
C231 C 0.52531 0.73815 0.13619 0.0
C232 C 0.54601 0.75188 0.11559 0.0
C233 C 0.5395 0.77775 0.10201 0.0
N234 N 0.49894 0.74991 0.1431 0.0
C235 C 0.4925 0.77537 0.12991 0.0
Co236 Co 0.70612 0.37595 0.49354 0.0
Co237 Co 0.73789 0.47322 0.51033 0.0
O238 O 0.70305 0.4249 0.49305 0.0
C239 C 0.71641 0.39966 0.44498 0.0
O240 O 0.74379 0.43557 0.4516 0.0
C241 C 0.65636 0.45097 0.5251 0.0
O242 O 0.6491 0.41404 0.5271 0.0
O243 O 0.73033 0.44169 0.5387 0.0
O244 O 0.71296 0.37933 0.52744 0.0
H245 H 0.84971 0.55821 0.56435 0.0
H246 H 0.63785 0.3772 0.47107 0.0
O247 O 0.69879 0.37172 0.45959 0.0
H248 H 0.57758 0.27372 0.53086 0.0
H249 H 0.66521 0.23563 0.46891 0.0
H250 H 0.75647 0.3494 0.51751 0.0
H251 H 0.6506 0.31042 0.52476 0.0
H252 H 0.66173 0.29776 0.46927 0.0
O253 O 0.69067 0.47865 0.51869 0.0
H254 H 0.80598 0.49745 0.54211 0.0
H255 H 0.74261 0.55232 0.51567 0.0
H256 H 0.76079 0.28772 0.51782 0.0
H257 H 0.56466 0.34098 0.47643 0.0
H258 H 0.71492 0.23029 0.49339 0.0
H259 H 0.53408 0.28893 0.50657 0.0
O260 O 0.76545 0.40656 0.48948 0.0
H261 H 0.69162 0.51093 0.43922 0.0
H262 H 0.80862 0.53865 0.4863 0.0
H263 H 0.81853 0.57623 0.45052 0.0
H264 H 0.75973 0.56244 0.42671 0.0
H265 H 0.68316 0.47382 0.47503 0.0
H266 H 0.78542 0.61356 0.53778 0.0
H267 H 0.83953 0.61681 0.56226 0.0
O268 O 0.78554 0.46876 0.50222 0.0
C269 C 0.72155 0.40574 0.54289 0.0
C270 C 0.82632 0.55721 0.55369 0.0
C271 C 0.7902 0.58825 0.5388 0.0
N272 N 0.772 0.52148 0.52748 0.0
C273 C 0.80155 0.52294 0.541 0.0
C274 C 0.76599 0.55347 0.52637 0.0
C275 C 0.82056 0.59006 0.55253 0.0
C276 C 0.62475 0.35435 0.48409 0.0
N277 N 0.6485 0.34592 0.49758 0.0
C278 C 0.58329 0.33404 0.4871 0.0
C279 C 0.56616 0.30488 0.50403 0.0
C280 C 0.59055 0.29636 0.51768 0.0
C281 C 0.6319 0.31733 0.5142 0.0
C282 C 0.68531 0.26042 0.47966 0.0
C283 C 0.73626 0.32443 0.50695 0.0
C284 C 0.68354 0.2957 0.4799 0.0
N285 N 0.70868 0.32703 0.49353 0.0
C286 C 0.73891 0.28964 0.50714 0.0
C287 C 0.7132 0.25744 0.4934 0.0
C288 C 0.79268 0.44229 0.49414 0.0
C289 C 0.71747 0.51724 0.44946 0.0
C290 C 0.78295 0.53236 0.47598 0.0
C291 C 0.78871 0.55382 0.45578 0.0
C292 C 0.7557 0.5461 0.44244 0.0
N293 N 0.74538 0.50406 0.48274 0.0
C294 C 0.71286 0.49642 0.46979 0.0
Co295 Co 0.32394 0.70543 0.82298 0.0
Co296 Co 0.2592 0.7386 0.839 0.0
O297 O 0.27212 0.70294 0.82211 0.0
C298 C 0.30953 0.71364 0.77442 0.0
O299 O 0.29894 0.73954 0.78099 0.0
C300 C 0.1983 0.65777 0.85381 0.0
O301 O 0.22744 0.64984 0.85627 0.0
O302 O 0.28158 0.72997 0.86766 0.0
O303 O 0.32737 0.71348 0.85678 0.0
H304 H 0.28681 0.85082 0.89288 0.0
H305 H 0.25465 0.63668 0.80069 0.0
O306 O 0.32123 0.69728 0.78908 0.0
H307 H 0.29552 0.57803 0.86259 0.0
H308 H 0.4222 0.66205 0.80002 0.0
H309 H 0.40098 0.75612 0.84676 0.0
H310 H 0.33243 0.65084 0.85568 0.0
H311 H 0.35697 0.65938 0.79984 0.0
O312 O 0.20574 0.69213 0.84696 0.0
H313 H 0.30314 0.8061 0.87112 0.0
H314 H 0.18585 0.74546 0.84325 0.0
H315 H 0.46659 0.75965 0.8476 0.0
H316 H 0.21708 0.56368 0.8069 0.0
H317 H 0.47751 0.71236 0.8241 0.0
H318 H 0.2374 0.53392 0.83809 0.0
O319 O 0.35312 0.76442 0.81825 0.0
H320 H 0.17662 0.69428 0.76736 0.0
H321 H 0.26787 0.81037 0.81446 0.0
H322 H 0.24186 0.82129 0.77834 0.0
H323 H 0.19587 0.76296 0.75451 0.0
H324 H 0.20362 0.68478 0.80351 0.0
H325 H 0.16812 0.78928 0.86485 0.0
H326 H 0.21886 0.84253 0.88981 0.0
O327 O 0.31224 0.78572 0.83138 0.0
C328 C 0.30891 0.72153 0.87209 0.0
C329 C 0.26448 0.82781 0.882 0.0
C330 C 0.19785 0.79324 0.86629 0.0
N331 N 0.24559 0.77345 0.8558 0.0
C332 C 0.2736 0.80249 0.86959 0.0
C333 C 0.20803 0.76847 0.85414 0.0
C334 C 0.22634 0.82312 0.88029 0.0
C335 C 0.26393 0.62391 0.81414 0.0
N336 N 0.29583 0.64797 0.82771 0.0
C337 C 0.24243 0.58257 0.81764 0.0
C338 C 0.25381 0.5659 0.83517 0.0
C339 C 0.2864 0.59064 0.84893 0.0
C340 C 0.30715 0.63185 0.84496 0.0
C341 C 0.41779 0.68276 0.81037 0.0
C342 C 0.40545 0.73529 0.8366 0.0
C343 C 0.38095 0.68145 0.8103 0.0
N344 N 0.37512 0.70738 0.82341 0.0
C345 C 0.44268 0.7375 0.83709 0.0
C346 C 0.4488 0.71099 0.82389 0.0
C347 C 0.34551 0.79216 0.82311 0.0
C348 C 0.19656 0.71993 0.77761 0.0
C349 C 0.248 0.78487 0.80415 0.0
C350 C 0.23327 0.79122 0.78374 0.0
C351 C 0.20743 0.75848 0.7704 0.0
N352 N 0.23725 0.74699 0.8111 0.0
C353 C 0.21182 0.71473 0.79814 0.0
C354 C 0.50226 0.12819 0.19711 0.0
C355 C 0.54171 0.16044 0.19597 0.0
C356 C 0.49484 0.08906 0.19918 0.0
C357 C 0.53911 0.02737 0.18571 0.0
H358 H 0.45479 0.94924 0.2246 0.0
C359 C 0.50409 0.86399 0.19002 0.0
C360 C 0.46347 0.83422 0.19007 0.0
C361 C 0.51536 0.90411 0.19316 0.0
C362 C 0.47821 0.97063 0.21351 0.0
H363 H 0.60435 0.17706 0.19659 0.0
H364 H 0.59127 0.10837 0.20013 0.0
H365 H 0.47195 0.01927 0.2262 0.0
H366 H 0.40282 0.82311 0.19369 0.0
H367 H 0.42245 0.8933 0.19873 0.0
H368 H 0.54471 0.97878 0.17251 0.0
C369 C 0.56616 0.11354 0.19935 0.0
C370 C 0.48811 0.01072 0.2145 0.0
C371 C 0.57363 0.15282 0.19744 0.0
C372 C 0.43437 0.84534 0.19367 0.0
C373 C 0.44565 0.88556 0.19668 0.0
C374 C 0.52909 0.98727 0.18464 0.0
C375 C 0.52667 0.08126 0.20003 0.0
C376 C 0.51837 0.0394 0.20042 0.0
C377 C 0.48629 0.91544 0.19629 0.0
C378 C 0.49823 0.95835 0.19835 0.0
H379 H 0.47699 0.13306 0.19608 0.0
H380 H 0.46409 0.06478 0.1994 0.0
H381 H 0.56216 0.0487 0.17441 0.0
H382 H 0.52729 0.85636 0.18748 0.0
H383 H 0.54693 0.92626 0.19315 0.0
C384 C 0.41345 0.56704 0.52971 0.0
C385 C 0.37398 0.53605 0.52607 0.0
C386 C 0.44434 0.55844 0.53239 0.0
C387 C 0.46543 0.47739 0.54605 0.0
H388 H 0.56118 0.54051 0.51003 0.0
C389 C 0.58403 0.43013 0.53009 0.0
C390 C 0.6243 0.46055 0.52898 0.0
C391 C 0.5537 0.43976 0.53205 0.0
C392 C 0.53496 0.52298 0.52051 0.0
H393 H 0.33576 0.47168 0.523 0.0
H394 H 0.3897 0.45678 0.52763 0.0
H395 H 0.50811 0.5571 0.50968 0.0
H396 H 0.66454 0.5248 0.53009 0.0
H397 H 0.61186 0.54147 0.534 0.0
H398 H 0.49227 0.44313 0.55678 0.0
C399 C 0.39672 0.48766 0.52855 0.0
C400 C 0.50454 0.5325 0.52028 0.0
C401 C 0.36588 0.49625 0.52574 0.0
C402 C 0.63374 0.50066 0.53064 0.0
C403 C 0.60353 0.51025 0.53277 0.0
C404 C 0.496 0.46796 0.54637 0.0
C405 C 0.43633 0.51869 0.53161 0.0
C406 C 0.46935 0.50967 0.53292 0.0
C407 C 0.56312 0.47998 0.53308 0.0
C408 C 0.53103 0.49054 0.53349 0.0
H409 H 0.42066 0.59802 0.53005 0.0
H410 H 0.47456 0.58293 0.53495 0.0
H411 H 0.43876 0.45952 0.55613 0.0
H412 H 0.57584 0.39894 0.52876 0.0
H413 H 0.52286 0.41573 0.53201 0.0
C414 C 0.83872 0.41667 0.86622 0.0
C415 C 0.83085 0.37712 0.86403 0.0
C416 C 0.87807 0.44822 0.86827 0.0
C417 C 0.98112 0.47219 0.88218 0.0
H418 H 0.01192 0.56248 0.84167 0.0
C419 C 0.14603 0.58646 0.86121 0.0
C420 C 0.15645 0.62664 0.85828 0.0
C421 C 0.10603 0.55694 0.86431 0.0
C422 C 0.00376 0.53786 0.85339 0.0
H423 H 0.85785 0.33947 0.86308 0.0
H424 H 0.92633 0.39448 0.86664 0.0
H425 H 0.94221 0.50967 0.84355 0.0
H426 H 0.13336 0.66765 0.8571 0.0
H427 H 0.06391 0.61641 0.86294 0.0
H428 H 0.04278 0.50026 0.8919 0.0
C429 C 0.90217 0.40111 0.86688 0.0
C430 C 0.96378 0.50759 0.85445 0.0
C431 C 0.86293 0.36963 0.86467 0.0
C432 C 0.12626 0.63687 0.85908 0.0
C433 C 0.0864 0.60746 0.86232 0.0
C434 C 0.02114 0.5026 0.88121 0.0
C435 C 0.9102 0.44077 0.86835 0.0
C436 C 0.95211 0.47425 0.86866 0.0
C437 C 0.07571 0.56708 0.86467 0.0
C438 C 0.03298 0.53559 0.86663 0.0
H439 H 0.81462 0.42339 0.86577 0.0
H440 H 0.8834 0.47851 0.86958 0.0
H441 H 0.97286 0.447 0.89347 0.0
H442 H 0.16862 0.57764 0.86058 0.0
H443 H 0.09877 0.52605 0.86579 0.0
C444 C 0.13486 0.50526 0.48659 0.0
C445 C 0.16554 0.54557 0.48606 0.0
C446 C 0.09489 0.49508 0.48433 0.0
C447 C 0.02869 0.53448 0.49552 0.0
H448 H 0.95276 0.44616 0.458 0.0
C449 C 0.86463 0.4949 0.4902 0.0
C450 C 0.83506 0.4542 0.49004 0.0
C451 C 0.90485 0.50659 0.48734 0.0
C452 C 0.97349 0.47061 0.46876 0.0
H453 H 0.17817 0.60677 0.48229 0.0
H454 H 0.10803 0.58885 0.47865 0.0
H455 H 0.02364 0.46612 0.45685 0.0
H456 H 0.8247 0.39379 0.48649 0.0
H457 H 0.89528 0.41415 0.48221 0.0
H458 H 0.97884 0.53829 0.50814 0.0
C459 C 0.11519 0.56524 0.48077 0.0
C460 C 0.01406 0.48214 0.46799 0.0
C461 C 0.15531 0.57545 0.48275 0.0
C462 C 0.8467 0.42541 0.48661 0.0
C463 C 0.88716 0.43712 0.48403 0.0
C464 C 0.98816 0.52273 0.49648 0.0
C465 C 0.08462 0.52498 0.48175 0.0
C466 C 0.042 0.51412 0.48142 0.0
C467 C 0.91676 0.47788 0.4846 0.0
C468 C 0.96 0.4906 0.48315 0.0
H469 H 0.14155 0.48143 0.4891 0.0
H470 H 0.07191 0.46385 0.48538 0.0
H471 H 0.04949 0.55877 0.50637 0.0
H472 H 0.85686 0.51798 0.49264 0.0
H473 H 0.92664 0.53825 0.48735 0.0
C474 C 0.41697 0.8442 0.81539 0.0
C475 C 0.37712 0.83427 0.81945 0.0
C476 C 0.44708 0.88423 0.81343 0.0
C477 C 0.46557 0.9857 0.80167 0.0
H478 H 0.5588 0.02001 0.84019 0.0
C479 C 0.57688 0.15247 0.82032 0.0
C480 C 0.61746 0.16429 0.82326 0.0
C481 C 0.54823 0.11204 0.81767 0.0
C482 C 0.53339 0.01094 0.82898 0.0
H483 H 0.33766 0.85875 0.82402 0.0
H484 H 0.3901 0.92831 0.8203 0.0
H485 H 0.50808 0.94949 0.83866 0.0
H486 H 0.65984 0.14291 0.82486 0.0
H487 H 0.61034 0.07298 0.81946 0.0
H488 H 0.49088 0.04707 0.79186 0.0
C489 C 0.39796 0.90512 0.81863 0.0
C490 C 0.50429 0.97049 0.82816 0.0
C491 C 0.36796 0.86521 0.82087 0.0
C492 C 0.62884 0.13492 0.82283 0.0
C493 C 0.60034 0.09466 0.81989 0.0
C494 C 0.49492 0.02617 0.80227 0.0
C495 C 0.43786 0.91505 0.8152 0.0
C496 C 0.46992 0.95754 0.81469 0.0
C497 C 0.55958 0.08259 0.81765 0.0
C498 C 0.52904 0.03936 0.81612 0.0
H499 H 0.4251 0.82115 0.81424 0.0
H500 H 0.47764 0.89114 0.81067 0.0
H501 H 0.43946 0.97639 0.79099 0.0
H502 H 0.56706 0.17431 0.82068 0.0
H503 H 0.51706 0.10383 0.8163 0.0
C504 C 0.4828 0.61842 0.15257 0.0
C505 C 0.44284 0.60987 0.15235 0.0
C506 C 0.49183 0.58783 0.15036 0.0
C507 C 0.45151 0.48269 0.16256 0.0
H508 H 0.53672 0.4923 0.1232 0.0
C509 C 0.49399 0.35949 0.15938 0.0
C510 C 0.53492 0.37175 0.15796 0.0
C511 C 0.48086 0.3869 0.15622 0.0
C512 C 0.51314 0.48933 0.13447 0.0
H513 H 0.38099 0.56232 0.14939 0.0
H514 H 0.39695 0.50862 0.14598 0.0
H515 H 0.51691 0.54325 0.12183 0.0
H516 H 0.59416 0.42263 0.1521 0.0
H517 H 0.57141 0.47073 0.14738 0.0
H518 H 0.44869 0.4299 0.176 0.0
C519 C 0.42116 0.53922 0.1477 0.0
C520 C 0.50167 0.51838 0.13356 0.0
C521 C 0.41209 0.56996 0.14956 0.0
C522 C 0.56239 0.41209 0.15316 0.0
C523 C 0.54928 0.43965 0.15029 0.0
C524 C 0.46328 0.4539 0.16369 0.0
C525 C 0.46112 0.54792 0.14821 0.0
C526 C 0.471 0.51549 0.14774 0.0
C527 C 0.50834 0.42744 0.1519 0.0
C528 C 0.49452 0.45704 0.14982 0.0
H529 H 0.50725 0.64874 0.15473 0.0
H530 H 0.52287 0.59529 0.15107 0.0
H531 H 0.42815 0.48008 0.17391 0.0
H532 H 0.47194 0.32865 0.16296 0.0
H533 H 0.44907 0.37623 0.15717 0.0
C534 C 0.68056 0.261 0.918 0.0
C535 C 0.66868 0.27803 0.90063 0.0
C536 C 0.67096 0.26294 0.9408 0.0
C537 C 0.60476 0.28425 0.97752 0.0
H538 H 0.68232 0.29908 0.0241 0.0
C539 C 0.64034 0.3291 0.07938 0.0
C540 C 0.60134 0.30756 0.08821 0.0
C541 C 0.6478 0.3252 0.05645 0.0
C542 C 0.66047 0.29543 0.01132 0.0
H543 H 0.63706 0.31022 0.89373 0.0
H544 H 0.62171 0.31494 0.93339 0.0
H545 H 0.69679 0.29353 0.98439 0.0
H546 H 0.53959 0.26475 0.08004 0.0
H547 H 0.5527 0.25688 0.04026 0.0
H548 H 0.5693 0.28811 0.00434 0.0
C549 C 0.63756 0.29914 0.92943 0.0
C550 C 0.66849 0.29153 0.9885 0.0
C551 C 0.64667 0.29671 0.90661 0.0
C552 C 0.56992 0.28205 0.07366 0.0
C553 C 0.57746 0.2777 0.0508 0.0
C554 C 0.59695 0.28866 0.00032 0.0
C555 C 0.64968 0.28241 0.94687 0.0
C556 C 0.64076 0.28589 0.97126 0.0
C557 C 0.61653 0.29918 0.04187 0.0
C558 C 0.62471 0.29434 0.01755 0.0
H559 H 0.69719 0.24601 0.914 0.0
H560 H 0.68009 0.24896 0.95366 0.0
H561 H 0.58238 0.27937 0.96481 0.0
H562 H 0.66514 0.34922 0.09015 0.0
H563 H 0.67811 0.3429 0.05015 0.0
C564 C 0.41648 0.69605 0.24667 0.0
C565 C 0.39103 0.67164 0.22916 0.0
C566 C 0.4049 0.6876 0.26954 0.0
C567 C 0.33849 0.6068 0.3084 0.0
H568 H 0.35047 0.69312 0.34754 0.0
C569 C 0.27312 0.57787 0.39978 0.0
C570 C 0.29569 0.606 0.4167 0.0
C571 C 0.28438 0.58559 0.37681 0.0
C572 C 0.34741 0.66873 0.33697 0.0
H573 H 0.33367 0.61874 0.22209 0.0
H574 H 0.31381 0.60391 0.26202 0.0
H575 H 0.37184 0.70696 0.30782 0.0
H576 H 0.34815 0.66406 0.42281 0.0
H577 H 0.36829 0.67703 0.38299 0.0
H578 H 0.31475 0.56863 0.33756 0.0
C579 C 0.34268 0.62957 0.25799 0.0
C580 C 0.35959 0.6767 0.31419 0.0
C581 C 0.35403 0.63823 0.23511 0.0
C582 C 0.32986 0.64189 0.41018 0.0
C583 C 0.3413 0.64944 0.38728 0.0
C584 C 0.32666 0.59887 0.33126 0.0
C585 C 0.36785 0.65434 0.27542 0.0
C586 C 0.35523 0.64583 0.29966 0.0
C587 C 0.31867 0.62147 0.37027 0.0
C588 C 0.33095 0.62974 0.34585 0.0
H589 H 0.44516 0.72203 0.24273 0.0
H590 H 0.42506 0.70699 0.28266 0.0
H591 H 0.33516 0.5825 0.29763 0.0
H592 H 0.24658 0.54996 0.40424 0.0
H593 H 0.26588 0.5636 0.36417 0.0
C594 C 0.71217 0.28903 0.74017 0.0
C595 C 0.68642 0.29491 0.75454 0.0
C596 C 0.71712 0.30123 0.71734 0.0
C597 C 0.70766 0.31062 0.66679 0.0
H598 H 0.70278 0.40555 0.65075 0.0
C599 C 0.70159 0.35286 0.573 0.0
C600 C 0.72007 0.39357 0.56705 0.0
C601 C 0.69871 0.34123 0.59583 0.0
C602 C 0.70481 0.37928 0.6549 0.0
H603 H 0.64493 0.31727 0.75617 0.0
H604 H 0.65221 0.33701 0.71621 0.0
H605 H 0.69639 0.38514 0.69043 0.0
H606 H 0.75126 0.45405 0.58051 0.0
H607 H 0.74759 0.43385 0.62021 0.0
H608 H 0.71788 0.30579 0.63138 0.0
C609 C 0.66968 0.32423 0.72264 0.0
C610 C 0.70041 0.36711 0.6777 0.0
C611 C 0.66521 0.3126 0.74554 0.0
C612 C 0.73643 0.42241 0.58448 0.0
C613 C 0.73407 0.41077 0.60731 0.0
C614 C 0.7126 0.3231 0.64402 0.0
C615 C 0.69598 0.31907 0.70826 0.0
C616 C 0.70145 0.33243 0.68396 0.0
C617 C 0.71483 0.36999 0.61333 0.0
C618 C 0.71094 0.35743 0.63772 0.0
H619 H 0.72924 0.27584 0.74669 0.0
H620 H 0.73815 0.29734 0.70697 0.0
H621 H 0.7082 0.28351 0.67083 0.0
H622 H 0.68862 0.32979 0.56008 0.0
H623 H 0.68307 0.30956 0.59973 0.0
C624 C 0.29436 0.72006 0.91396 0.0
C625 C 0.31882 0.71949 0.89632 0.0
C626 C 0.30269 0.71625 0.93675 0.0
C627 C 0.38311 0.7287 0.97541 0.0
H628 H 0.29617 0.65354 0.01398 0.0
C629 C 0.41105 0.68776 0.06581 0.0
C630 C 0.38322 0.6822 0.08293 0.0
C631 C 0.40336 0.69226 0.04299 0.0
C632 C 0.32073 0.67508 0.00357 0.0
H633 H 0.37174 0.71524 0.88895 0.0
H634 H 0.38633 0.70895 0.92875 0.0
H635 H 0.28274 0.66279 0.97446 0.0
H636 H 0.32566 0.67743 0.08955 0.0
H637 H 0.31271 0.6862 0.04994 0.0
H638 H 0.42106 0.74155 0.00453 0.0
C639 C 0.36074 0.71235 0.92488 0.0
C640 C 0.313 0.68029 0.9809 0.0
C641 C 0.35222 0.71577 0.90207 0.0
C642 C 0.3476 0.68132 0.07675 0.0
C643 C 0.34006 0.68614 0.05398 0.0
C644 C 0.39081 0.72377 -0.00185 0.0
C645 C 0.33586 0.71219 0.94243 0.0
C646 C 0.3441 0.70711 0.96658 0.0
C647 C 0.36782 0.69164 0.03678 0.0
C648 C 0.35972 0.69685 0.01253 0.0
H649 H 0.26839 0.72286 0.91018 0.0
H650 H 0.28323 0.71662 0.94996 0.0
H651 H 0.40759 0.7499 0.96481 0.0
H652 H 0.43875 0.6885 0.06999 0.0
H653 H 0.42514 0.69582 0.03018 0.0
C654 C 0.72573 0.42085 0.40387 0.0
C655 C 0.70446 0.39184 0.42068 0.0
C656 C 0.71374 0.41352 0.38099 0.0
C657 C 0.62608 0.35293 0.34482 0.0
H658 H 0.70385 0.3754 0.29691 0.0
C659 C 0.5785 0.29805 0.25242 0.0
C660 C 0.60196 0.32283 0.23443 0.0
C661 C 0.59109 0.30779 0.27506 0.0
C662 C 0.68178 0.36952 0.31001 0.0
H663 H 0.65385 0.33241 0.42665 0.0
H664 H 0.63293 0.31985 0.38683 0.0
H665 H 0.726 0.39038 0.33651 0.0
H666 H 0.65677 0.37782 0.22627 0.0
H667 H 0.67813 0.39526 0.26573 0.0
H668 H 0.58188 0.33253 0.31846 0.0
C669 C 0.65879 0.34826 0.39134 0.0
C670 C 0.69451 0.37802 0.33271 0.0
C671 C 0.67097 0.3554 0.41414 0.0
C672 C 0.63803 0.35789 0.23967 0.0
C673 C 0.65045 0.36778 0.26233 0.0
C674 C 0.61338 0.34476 0.32213 0.0
C675 C 0.67999 0.37724 0.37453 0.0
C676 C 0.66675 0.3695 0.35036 0.0
C677 C 0.62728 0.34273 0.28032 0.0
C678 C 0.64101 0.35264 0.30443 0.0
H679 H 0.7516 0.44926 0.40836 0.0
H680 H 0.73047 0.43651 0.36841 0.0
H681 H 0.60408 0.34661 0.35805 0.0
H682 H 0.55067 0.27069 0.24904 0.0
H683 H 0.57276 0.28743 0.28841 0.0
C684 C 0.32638 0.68273 0.74189 0.0
C685 C 0.30616 0.70195 0.75016 0.0
C686 C 0.3225 0.67081 0.71907 0.0
C687 C 0.29298 0.62841 0.6739 0.0
H688 H 0.28126 0.69202 0.62658 0.0
C689 C 0.2608 0.57427 0.58032 0.0
C690 C 0.27889 0.6032 0.56304 0.0
C691 C 0.26242 0.5858 0.60311 0.0
C692 C 0.28494 0.67406 0.63951 0.0
H693 H 0.26562 0.72333 0.74112 0.0
H694 H 0.25767 0.70133 0.70154 0.0
H695 H 0.28942 0.71414 0.666 0.0
H696 H 0.31284 0.66703 0.5563 0.0
H697 H 0.3171 0.68701 0.5959 0.0
H698 H 0.29058 0.58942 0.64729 0.0
C699 C 0.27753 0.69647 0.71242 0.0
C700 C 0.28899 0.68645 0.66225 0.0
C701 C 0.28192 0.70895 0.73517 0.0
C702 C 0.29849 0.64389 0.5691 0.0
C703 C 0.30063 0.6554 0.59189 0.0
C704 C 0.2895 0.61631 0.65113 0.0
C705 C 0.29776 0.67721 0.70404 0.0
C706 C 0.29312 0.66384 0.67978 0.0
C707 C 0.28264 0.62655 0.60924 0.0
C708 C 0.28549 0.63899 0.63359 0.0
H709 H 0.3455 0.67716 0.75301 0.0
H710 H 0.33925 0.65689 0.7132 0.0
H711 H 0.2954 0.60978 0.6869 0.0
H712 H 0.2451 0.54265 0.57624 0.0
H713 H 0.24752 0.5627 0.61588 0.0
loop_
_geom_bond_atom_site_label_1
_geom_bond_atom_site_label_2
_geom_bond_distance
_geom_bond_site_symmetry_2
_ccdc_geom_bond_type
Co0 O2 2.143 . S
Co0 O8 2.074 . S
Co0 O11 2.093 . S
Co0 O24 2.097 . S
Co0 N41 2.151 . S
Co0 N49 2.214 . S
Co1 O2 2.160 . S
Co1 O7 2.058 . S
Co1 O17 2.057 . S
Co1 O32 2.037 . S
Co1 N36 2.145 . S
Co1 N57 2.257 . S
O2 Co0 2.143 . S
O2 Co1 2.160 . S
C3 O4 1.278 . S
C3 O11 1.224 . S
O4 C3 1.278 . S
C5 O6 1.245 . S
C5 O17 1.232 . S
O6 C5 1.245 . S
O7 Co1 2.058 . S
O7 C33 1.269 . S
O8 Co0 2.074 . S
O8 C33 1.257 . S
H9 C34 0.930 . S
H10 C40 0.930 . S
O11 Co0 2.093 . S
O11 C3 1.224 . S
H12 C44 0.929 . S
H13 C46 0.930 . S
H14 C47 0.930 . S
H15 C45 0.929 . S
H16 C48 0.928 . S
O17 Co1 2.057 . S
O17 C5 1.232 . S
H18 C37 0.929 . S
H19 C38 0.929 . S
H20 C50 0.931 . S
H21 C42 0.929 . S
H22 C51 0.930 . S
H23 C43 0.931 . S
O24 Co0 2.097 . S
O24 C52 1.214 . S
H25 C53 0.929 . S
H26 C54 0.929 . S
H27 C55 0.930 . S
H28 C56 0.929 . S
H29 C58 0.930 . S
H30 C35 0.930 . S
H31 C39 0.930 . S
O32 Co1 2.037 . S
O32 C52 1.234 . S
C33 O7 1.269 . S
C33 O8 1.257 . S
C34 H9 0.930 . S
C34 C37 1.388 . S
C34 C39 1.418 . S
C35 H30 0.930 . S
C35 C38 1.404 . S
C35 C39 1.353 . S
N36 Co1 2.145 . S
N36 C37 1.397 . S
N36 C38 1.334 . S
C37 H18 0.929 . S
C37 C34 1.388 . S
C37 N36 1.397 . S
C38 H19 0.929 . S
C38 C35 1.404 . S
C38 N36 1.334 . S
C39 H31 0.930 . S
C39 C34 1.418 . S
C39 C35 1.353 . S
C40 H10 0.930 . S
C40 N41 1.330 . S
C40 C42 1.446 . S
N41 Co0 2.151 . S
N41 C40 1.330 . S
N41 C45 1.418 . S
C42 H21 0.929 . S
C42 C40 1.446 . S
C42 C43 1.332 . S
C43 H23 0.931 . S
C43 C42 1.332 . S
C43 C44 1.267 . S
C44 H12 0.929 . S
C44 C43 1.267 . S
C44 C45 1.251 . S
C45 H15 0.929 . S
C45 N41 1.418 . S
C45 C44 1.251 . S
C46 H13 0.930 . S
C46 C48 1.406 . S
C46 C51 1.261 . S
C47 H14 0.930 . S
C47 N49 1.325 . S
C47 C50 1.357 . S
C48 H16 0.928 . S
C48 C46 1.406 . S
C48 N49 1.261 . S
N49 Co0 2.214 . S
N49 C47 1.325 . S
N49 C48 1.261 . S
C50 H20 0.931 . S
C50 C47 1.357 . S
C50 C51 1.312 . S
C51 H22 0.930 . S
C51 C46 1.261 . S
C51 C50 1.312 . S
C52 O24 1.214 . S
C52 O32 1.234 . S
C53 H25 0.929 . S
C53 C56 1.391 . S
C53 C58 1.391 . S
C54 H26 0.929 . S
C54 C55 1.390 . S
C54 N57 1.391 . S
C55 H27 0.930 . S
C55 C54 1.390 . S
C55 C56 1.392 . S
C56 H28 0.929 . S
C56 C53 1.391 . S
C56 C55 1.392 . S
N57 Co1 2.257 . S
N57 C54 1.391 . S
N57 C58 1.388 . S
C58 H29 0.930 . S
C58 C53 1.391 . S
C58 N57 1.388 . S
Co59 O61 2.143 . S
Co59 O67 2.074 . S
Co59 O70 2.093 . S
Co59 O83 2.097 . S
Co59 N100 2.151 . S
Co59 N108 2.214 . S
Co60 O61 2.160 . S
Co60 O66 2.058 . S
Co60 O76 2.057 . S
Co60 O91 2.037 . S
Co60 N95 2.145 . S
Co60 N116 2.257 . S
O61 Co59 2.143 . S
O61 Co60 2.160 . S
C62 O63 1.278 . S
C62 O70 1.224 . S
O63 C62 1.278 . S
C64 O65 1.245 . S
C64 O76 1.232 . S
O65 C64 1.245 . S
O66 Co60 2.058 . S
O66 C92 1.269 . S
O67 Co59 2.074 . S
O67 C92 1.257 . S
H68 C93 0.930 . S
H69 C99 0.930 . S
O70 Co59 2.093 . S
O70 C62 1.224 . S
H71 C103 0.929 . S
H72 C105 0.930 . S
H73 C106 0.930 . S
H74 C104 0.929 . S
H75 C107 0.928 . S
O76 Co60 2.057 . S
O76 C64 1.232 . S
H77 C96 0.929 . S
H78 C97 0.929 . S
H79 C109 0.931 . S
H80 C101 0.929 . S
H81 C110 0.930 . S
H82 C102 0.931 . S
O83 Co59 2.097 . S
O83 C111 1.214 . S
H84 C112 0.929 . S
H85 C113 0.929 . S
H86 C114 0.930 . S
H87 C115 0.929 . S
H88 C117 0.930 . S
H89 C94 0.930 . S
H90 C98 0.930 . S
O91 Co60 2.037 . S
O91 C111 1.234 . S
C92 O66 1.269 . S
C92 O67 1.257 . S
C93 H68 0.930 . S
C93 C96 1.388 . S
C93 C98 1.418 . S
C94 H89 0.930 . S
C94 C97 1.404 . S
C94 C98 1.353 . S
N95 Co60 2.145 . S
N95 C96 1.397 . S
N95 C97 1.334 . S
C96 H77 0.929 . S
C96 C93 1.388 . S
C96 N95 1.397 . S
C97 H78 0.929 . S
C97 C94 1.404 . S
C97 N95 1.334 . S
C98 H90 0.930 . S
C98 C93 1.418 . S
C98 C94 1.353 . S
C99 H69 0.930 . S
C99 N100 1.330 . S
C99 C101 1.446 . S
N100 Co59 2.151 . S
N100 C99 1.330 . S
N100 C104 1.418 . S
C101 H80 0.929 . S
C101 C99 1.446 . S
C101 C102 1.332 . S
C102 H82 0.931 . S
C102 C101 1.332 . S
C102 C103 1.267 . S
C103 H71 0.929 . S
C103 C102 1.267 . S
C103 C104 1.251 . S
C104 H74 0.929 . S
C104 N100 1.418 . S
C104 C103 1.251 . S
C105 H72 0.930 . S
C105 C107 1.406 . S
C105 C110 1.261 . S
C106 H73 0.930 . S
C106 N108 1.325 . S
C106 C109 1.357 . S
C107 H75 0.928 . S
C107 C105 1.406 . S
C107 N108 1.261 . S
N108 Co59 2.214 . S
N108 C106 1.325 . S
N108 C107 1.261 . S
C109 H79 0.931 . S
C109 C106 1.357 . S
C109 C110 1.312 . S
C110 H81 0.930 . S
C110 C105 1.261 . S
C110 C109 1.312 . S
C111 O83 1.214 . S
C111 O91 1.234 . S
C112 H84 0.929 . S
C112 C115 1.391 . S
C112 C117 1.391 . S
C113 H85 0.929 . S
C113 C114 1.390 . S
C113 N116 1.391 . S
C114 H86 0.930 . S
C114 C113 1.390 . S
C114 C115 1.392 . S
C115 H87 0.929 . S
C115 C112 1.391 . S
C115 C114 1.392 . S
N116 Co60 2.257 . S
N116 C113 1.391 . S
N116 C117 1.388 . S
C117 H88 0.930 . S
C117 C112 1.391 . S
C117 N116 1.388 . S
Co118 O120 2.143 . S
Co118 O126 2.074 . S
Co118 O129 2.093 . S
Co118 O142 2.097 . S
Co118 N159 2.151 . S
Co118 N167 2.214 . S
Co119 O120 2.160 . S
Co119 O125 2.058 . S
Co119 O135 2.057 . S
Co119 O150 2.037 . S
Co119 N154 2.145 . S
Co119 N175 2.257 . S
O120 Co118 2.143 . S
O120 Co119 2.160 . S
C121 O122 1.278 . S
C121 O129 1.224 . S
O122 C121 1.278 . S
C123 O124 1.245 . S
C123 O135 1.232 . S
O124 C123 1.245 . S
O125 Co119 2.058 . S
O125 C151 1.269 . S
O126 Co118 2.074 . S
O126 C151 1.257 . S
H127 C152 0.930 . S
H128 C158 0.930 . S
O129 Co118 2.093 . S
O129 C121 1.224 . S
H130 C162 0.929 . S
H131 C164 0.930 . S
H132 C165 0.930 . S
H133 C163 0.929 . S
H134 C166 0.928 . S
O135 Co119 2.057 . S
O135 C123 1.232 . S
H136 C155 0.929 . S
H137 C156 0.929 . S
H138 C168 0.931 . S
H139 C160 0.929 . S
H140 C169 0.930 . S
H141 C161 0.931 . S
O142 Co118 2.097 . S
O142 C170 1.214 . S
H143 C171 0.929 . S
H144 C172 0.929 . S
H145 C173 0.930 . S
H146 C174 0.929 . S
H147 C176 0.930 . S
H148 C153 0.930 . S
H149 C157 0.930 . S
O150 Co119 2.037 . S
O150 C170 1.234 . S
C151 O125 1.269 . S
C151 O126 1.257 . S
C152 H127 0.930 . S
C152 C155 1.388 . S
C152 C157 1.418 . S
C153 H148 0.930 . S
C153 C156 1.404 . S
C153 C157 1.353 . S
N154 Co119 2.145 . S
N154 C155 1.397 . S
N154 C156 1.334 . S
C155 H136 0.929 . S
C155 C152 1.388 . S
C155 N154 1.397 . S
C156 H137 0.929 . S
C156 C153 1.404 . S
C156 N154 1.334 . S
C157 H149 0.930 . S
C157 C152 1.418 . S
C157 C153 1.353 . S
C158 H128 0.930 . S
C158 N159 1.330 . S
C158 C160 1.446 . S
N159 Co118 2.151 . S
N159 C158 1.330 . S
N159 C163 1.418 . S
C160 H139 0.929 . S
C160 C158 1.446 . S
C160 C161 1.332 . S
C161 H141 0.931 . S
C161 C160 1.332 . S
C161 C162 1.267 . S
C162 H130 0.929 . S
C162 C161 1.267 . S
C162 C163 1.251 . S
C163 H133 0.929 . S
C163 N159 1.418 . S
C163 C162 1.251 . S
C164 H131 0.930 . S
C164 C166 1.406 . S
C164 C169 1.261 . S
C165 H132 0.930 . S
C165 N167 1.325 . S
C165 C168 1.357 . S
C166 H134 0.928 . S
C166 C164 1.406 . S
C166 N167 1.261 . S
N167 Co118 2.214 . S
N167 C165 1.325 . S
N167 C166 1.261 . S
C168 H138 0.931 . S
C168 C165 1.357 . S
C168 C169 1.312 . S
C169 H140 0.930 . S
C169 C164 1.261 . S
C169 C168 1.312 . S
C170 O142 1.214 . S
C170 O150 1.234 . S
C171 H143 0.929 . S
C171 C174 1.391 . S
C171 C176 1.391 . S
C172 H144 0.929 . S
C172 C173 1.390 . S
C172 N175 1.391 . S
C173 H145 0.930 . S
C173 C172 1.390 . S
C173 C174 1.392 . S
C174 H146 0.929 . S
C174 C171 1.391 . S
C174 C173 1.392 . S
N175 Co119 2.257 . S
N175 C172 1.391 . S
N175 C176 1.388 . S
C176 H147 0.930 . S
C176 C171 1.391 . S
C176 N175 1.388 . S
Co177 O179 2.143 . S
Co177 O185 2.074 . S
Co177 O188 2.093 . S
Co177 O201 2.097 . S
Co177 N218 2.151 . S
Co177 N226 2.214 . S
Co178 O179 2.160 . S
Co178 O184 2.058 . S
Co178 O194 2.057 . S
Co178 O209 2.037 . S
Co178 N213 2.145 . S
Co178 N234 2.257 . S
O179 Co177 2.143 . S
O179 Co178 2.160 . S
C180 O181 1.278 . S
C180 O188 1.224 . S
O181 C180 1.278 . S
C182 O183 1.245 . S
C182 O194 1.232 . S
O183 C182 1.245 . S
O184 Co178 2.058 . S
O184 C210 1.269 . S
O185 Co177 2.074 . S
O185 C210 1.257 . S
H186 C211 0.930 . S
H187 C217 0.930 . S
O188 Co177 2.093 . S
O188 C180 1.224 . S
H189 C221 0.929 . S
H190 C223 0.930 . S
H191 C224 0.930 . S
H192 C222 0.929 . S
H193 C225 0.928 . S
O194 Co178 2.057 . S
O194 C182 1.232 . S
H195 C214 0.929 . S
H196 C215 0.929 . S
H197 C227 0.931 . S
H198 C219 0.929 . S
H199 C228 0.930 . S
H200 C220 0.931 . S
O201 Co177 2.097 . S
O201 C229 1.214 . S
H202 C230 0.929 . S
H203 C231 0.929 . S
H204 C232 0.930 . S
H205 C233 0.929 . S
H206 C235 0.930 . S
H207 C212 0.930 . S
H208 C216 0.930 . S
O209 Co178 2.037 . S
O209 C229 1.234 . S
C210 O184 1.269 . S
C210 O185 1.257 . S
C211 H186 0.930 . S
C211 C214 1.388 . S
C211 C216 1.418 . S
C212 H207 0.930 . S
C212 C215 1.404 . S
C212 C216 1.353 . S
N213 Co178 2.145 . S
N213 C214 1.397 . S
N213 C215 1.334 . S
C214 H195 0.929 . S
C214 C211 1.388 . S
C214 N213 1.397 . S
C215 H196 0.929 . S
C215 C212 1.404 . S
C215 N213 1.334 . S
C216 H208 0.930 . S
C216 C211 1.418 . S
C216 C212 1.353 . S
C217 H187 0.930 . S
C217 N218 1.330 . S
C217 C219 1.446 . S
N218 Co177 2.151 . S
N218 C217 1.330 . S
N218 C222 1.418 . S
C219 H198 0.929 . S
C219 C217 1.446 . S
C219 C220 1.332 . S
C220 H200 0.931 . S
C220 C219 1.332 . S
C220 C221 1.267 . S
C221 H189 0.929 . S
C221 C220 1.267 . S
C221 C222 1.251 . S
C222 H192 0.929 . S
C222 N218 1.418 . S
C222 C221 1.251 . S
C223 H190 0.930 . S
C223 C225 1.406 . S
C223 C228 1.261 . S
C224 H191 0.930 . S
C224 N226 1.325 . S
C224 C227 1.357 . S
C225 H193 0.928 . S
C225 C223 1.406 . S
C225 N226 1.261 . S
N226 Co177 2.214 . S
N226 C224 1.325 . S
N226 C225 1.261 . S
C227 H197 0.931 . S
C227 C224 1.357 . S
C227 C228 1.312 . S
C228 H199 0.930 . S
C228 C223 1.261 . S
C228 C227 1.312 . S
C229 O201 1.214 . S
C229 O209 1.234 . S
C230 H202 0.929 . S
C230 C233 1.391 . S
C230 C235 1.391 . S
C231 H203 0.929 . S
C231 C232 1.390 . S
C231 N234 1.391 . S
C232 H204 0.930 . S
C232 C231 1.390 . S
C232 C233 1.392 . S
C233 H205 0.929 . S
C233 C230 1.391 . S
C233 C232 1.392 . S
N234 Co178 2.257 . S
N234 C231 1.391 . S
N234 C235 1.388 . S
C235 H206 0.930 . S
C235 C230 1.391 . S
C235 N234 1.388 . S
Co236 O238 2.143 . S
Co236 O244 2.074 . S
Co236 O247 2.093 . S
Co236 O260 2.097 . S
Co236 N277 2.151 . S
Co236 N285 2.214 . S
Co237 O238 2.160 . S
Co237 O243 2.058 . S
Co237 O253 2.057 . S
Co237 O268 2.037 . S
Co237 N272 2.145 . S
Co237 N293 2.257 . S
O238 Co236 2.143 . S
O238 Co237 2.160 . S
C239 O240 1.278 . S
C239 O247 1.224 . S
O240 C239 1.278 . S
C241 O242 1.245 . S
C241 O253 1.232 . S
O242 C241 1.245 . S
O243 Co237 2.058 . S
O243 C269 1.269 . S
O244 Co236 2.074 . S
O244 C269 1.257 . S
H245 C270 0.930 . S
H246 C276 0.930 . S
O247 Co236 2.093 . S
O247 C239 1.224 . S
H248 C280 0.929 . S
H249 C282 0.930 . S
H250 C283 0.930 . S
H251 C281 0.929 . S
H252 C284 0.928 . S
O253 Co237 2.057 . S
O253 C241 1.232 . S
H254 C273 0.929 . S
H255 C274 0.929 . S
H256 C286 0.931 . S
H257 C278 0.929 . S
H258 C287 0.930 . S
H259 C279 0.931 . S
O260 Co236 2.097 . S
O260 C288 1.214 . S
H261 C289 0.929 . S
H262 C290 0.929 . S
H263 C291 0.930 . S
H264 C292 0.929 . S
H265 C294 0.930 . S
H266 C271 0.930 . S
H267 C275 0.930 . S
O268 Co237 2.037 . S
O268 C288 1.234 . S
C269 O243 1.269 . S
C269 O244 1.257 . S
C270 H245 0.930 . S
C270 C273 1.388 . S
C270 C275 1.418 . S
C271 H266 0.930 . S
C271 C274 1.404 . S
C271 C275 1.353 . S
N272 Co237 2.145 . S
N272 C273 1.397 . S
N272 C274 1.334 . S
C273 H254 0.929 . S
C273 C270 1.388 . S
C273 N272 1.397 . S
C274 H255 0.929 . S
C274 C271 1.404 . S
C274 N272 1.334 . S
C275 H267 0.930 . S
C275 C270 1.418 . S
C275 C271 1.353 . S
C276 H246 0.930 . S
C276 N277 1.330 . S
C276 C278 1.446 . S
N277 Co236 2.151 . S
N277 C276 1.330 . S
N277 C281 1.418 . S
C278 H257 0.929 . S
C278 C276 1.446 . S
C278 C279 1.332 . S
C279 H259 0.931 . S
C279 C278 1.332 . S
C279 C280 1.267 . S
C280 H248 0.929 . S
C280 C279 1.267 . S
C280 C281 1.251 . S
C281 H251 0.929 . S
C281 N277 1.418 . S
C281 C280 1.251 . S
C282 H249 0.930 . S
C282 C284 1.406 . S
C282 C287 1.261 . S
C283 H250 0.930 . S
C283 N285 1.325 . S
C283 C286 1.357 . S
C284 H252 0.928 . S
C284 C282 1.406 . S
C284 N285 1.261 . S
N285 Co236 2.214 . S
N285 C283 1.325 . S
N285 C284 1.261 . S
C286 H256 0.931 . S
C286 C283 1.357 . S
C286 C287 1.312 . S
C287 H258 0.930 . S
C287 C282 1.261 . S
C287 C286 1.312 . S
C288 O260 1.214 . S
C288 O268 1.234 . S
C289 H261 0.929 . S
C289 C292 1.391 . S
C289 C294 1.391 . S
C290 H262 0.929 . S
C290 C291 1.390 . S
C290 N293 1.391 . S
C291 H263 0.930 . S
C291 C290 1.390 . S
C291 C292 1.392 . S
C292 H264 0.929 . S
C292 C289 1.391 . S
C292 C291 1.392 . S
N293 Co237 2.257 . S
N293 C290 1.391 . S
N293 C294 1.388 . S
C294 H265 0.930 . S
C294 C289 1.391 . S
C294 N293 1.388 . S
Co295 O297 2.143 . S
Co295 O303 2.074 . S
Co295 O306 2.093 . S
Co295 O319 2.097 . S
Co295 N336 2.151 . S
Co295 N344 2.214 . S
Co296 O297 2.160 . S
Co296 O302 2.058 . S
Co296 O312 2.057 . S
Co296 O327 2.037 . S
Co296 N331 2.145 . S
Co296 N352 2.257 . S
O297 Co295 2.143 . S
O297 Co296 2.160 . S
C298 O299 1.278 . S
C298 O306 1.224 . S
O299 C298 1.278 . S
C300 O301 1.245 . S
C300 O312 1.232 . S
O301 C300 1.245 . S
O302 Co296 2.058 . S
O302 C328 1.269 . S
O303 Co295 2.074 . S
O303 C328 1.257 . S
H304 C329 0.930 . S
H305 C335 0.930 . S
O306 Co295 2.093 . S
O306 C298 1.224 . S
H307 C339 0.929 . S
H308 C341 0.930 . S
H309 C342 0.930 . S
H310 C340 0.929 . S
H311 C343 0.928 . S
O312 Co296 2.057 . S
O312 C300 1.232 . S
H313 C332 0.929 . S
H314 C333 0.929 . S
H315 C345 0.931 . S
H316 C337 0.929 . S
H317 C346 0.930 . S
H318 C338 0.931 . S
O319 Co295 2.097 . S
O319 C347 1.214 . S
H320 C348 0.929 . S
H321 C349 0.929 . S
H322 C350 0.930 . S
H323 C351 0.929 . S
H324 C353 0.930 . S
H325 C330 0.930 . S
H326 C334 0.930 . S
O327 Co296 2.037 . S
O327 C347 1.234 . S
C328 O302 1.269 . S
C328 O303 1.257 . S
C329 H304 0.930 . S
C329 C332 1.388 . S
C329 C334 1.418 . S
C330 H325 0.930 . S
C330 C333 1.404 . S
C330 C334 1.353 . S
N331 Co296 2.145 . S
N331 C332 1.397 . S
N331 C333 1.334 . S
C332 H313 0.929 . S
C332 C329 1.388 . S
C332 N331 1.397 . S
C333 H314 0.929 . S
C333 C330 1.404 . S
C333 N331 1.334 . S
C334 H326 0.930 . S
C334 C329 1.418 . S
C334 C330 1.353 . S
C335 H305 0.930 . S
C335 N336 1.330 . S
C335 C337 1.446 . S
N336 Co295 2.151 . S
N336 C335 1.330 . S
N336 C340 1.418 . S
C337 H316 0.929 . S
C337 C335 1.446 . S
C337 C338 1.332 . S
C338 H318 0.931 . S
C338 C337 1.332 . S
C338 C339 1.267 . S
C339 H307 0.929 . S
C339 C338 1.267 . S
C339 C340 1.251 . S
C340 H310 0.929 . S
C340 N336 1.418 . S
C340 C339 1.251 . S
C341 H308 0.930 . S
C341 C343 1.406 . S
C341 C346 1.261 . S
C342 H309 0.930 . S
C342 N344 1.325 . S
C342 C345 1.357 . S
C343 H311 0.928 . S
C343 C341 1.406 . S
C343 N344 1.261 . S
N344 Co295 2.214 . S
N344 C342 1.325 . S
N344 C343 1.261 . S
C345 H315 0.931 . S
C345 C342 1.357 . S
C345 C346 1.312 . S
C346 H317 0.930 . S
C346 C341 1.261 . S
C346 C345 1.312 . S
C347 O319 1.214 . S
C347 O327 1.234 . S
C348 H320 0.929 . S
C348 C351 1.391 . S
C348 C353 1.391 . S
C349 H321 0.929 . S
C349 C350 1.390 . S
C349 N352 1.391 . S
C350 H322 0.930 . S
C350 C349 1.390 . S
C350 C351 1.392 . S
C351 H323 0.929 . S
C351 C348 1.391 . S
C351 C350 1.392 . S
N352 Co296 2.257 . S
N352 C349 1.391 . S
N352 C353 1.388 . S
C353 H324 0.930 . S
C353 C348 1.391 . S
C353 N352 1.388 . S
C354 C355 1.349 . S
C354 C356 1.327 . S
C354 H379 0.950 . S
C355 C354 1.349 . S
C355 C371 1.349 . S
C356 C354 1.327 . S
C356 C375 1.429 . S
C356 H380 0.950 . S
C357 C374 1.574 1_545 S
C357 C376 1.368 . S
C357 H381 0.949 . S
H358 C362 0.949 . S
C359 C360 1.349 . S
C359 C361 1.327 . S
C359 H382 0.950 . S
C360 C359 1.349 . S
C360 C372 1.349 . S
C361 C359 1.327 . S
C361 C377 1.429 . S
C361 H383 0.950 . S
C362 H358 0.949 . S
C362 C370 1.574 1_565 S
C362 C378 1.368 . S
H363 C371 0.950 . S
H364 C369 0.950 . S
H365 C370 0.949 . S
H366 C372 0.950 . S
H367 C373 0.950 . S
H368 C374 0.949 . S
C369 H364 0.950 . S
C369 C371 1.327 . S
C369 C375 1.429 . S
C370 C362 1.574 1_545 S
C370 H365 0.949 . S
C370 C376 1.368 . S
C371 C355 1.349 . S
C371 H363 0.950 . S
C371 C369 1.327 . S
C372 C360 1.349 . S
C372 H366 0.950 . S
C372 C373 1.327 . S
C373 H367 0.950 . S
C373 C372 1.327 . S
C373 C377 1.429 . S
C374 C357 1.574 1_565 S
C374 H368 0.949 . S
C374 C378 1.368 . S
C375 C356 1.429 . S
C375 C369 1.429 . S
C375 C376 1.523 . S
C376 C357 1.368 . S
C376 C370 1.368 . S
C376 C375 1.523 . S
C377 C361 1.429 . S
C377 C373 1.429 . S
C377 C378 1.523 . S
C378 C362 1.368 . S
C378 C374 1.368 . S
C378 C377 1.523 . S
H379 C354 0.950 . S
H380 C356 0.950 . S
H381 C357 0.949 . S
H382 C359 0.950 . S
H383 C361 0.950 . S
C384 C385 1.349 . S
C384 C386 1.327 . S
C384 H409 0.950 . S
C385 C384 1.349 . S
C385 C401 1.349 . S
C386 C384 1.327 . S
C386 C405 1.429 . S
C386 H410 0.950 . S
C387 C404 1.574 . S
C387 C406 1.368 . S
C387 H411 0.949 . S
H388 C392 0.949 . S
C389 C390 1.349 . S
C389 C391 1.327 . S
C389 H412 0.950 . S
C390 C389 1.349 . S
C390 C402 1.349 . S
C391 C389 1.327 . S
C391 C407 1.429 . S
C391 H413 0.950 . S
C392 H388 0.949 . S
C392 C400 1.574 . S
C392 C408 1.368 . S
H393 C401 0.950 . S
H394 C399 0.950 . S
H395 C400 0.949 . S
H396 C402 0.950 . S
H397 C403 0.950 . S
H398 C404 0.949 . S
C399 H394 0.950 . S
C399 C401 1.327 . S
C399 C405 1.429 . S
C400 C392 1.574 . S
C400 H395 0.949 . S
C400 C406 1.368 . S
C401 C385 1.349 . S
C401 H393 0.950 . S
C401 C399 1.327 . S
C402 C390 1.349 . S
C402 H396 0.950 . S
C402 C403 1.327 . S
C403 H397 0.950 . S
C403 C402 1.327 . S
C403 C407 1.429 . S
C404 C387 1.574 . S
C404 H398 0.949 . S
C404 C408 1.368 . S
C405 C386 1.429 . S
C405 C399 1.429 . S
C405 C406 1.523 . S
C406 C387 1.368 . S
C406 C400 1.368 . S
C406 C405 1.523 . S
C407 C391 1.429 . S
C407 C403 1.429 . S
C407 C408 1.523 . S
C408 C392 1.368 . S
C408 C404 1.368 . S
C408 C407 1.523 . S
H409 C384 0.950 . S
H410 C386 0.950 . S
H411 C387 0.949 . S
H412 C389 0.950 . S
H413 C391 0.950 . S
C414 C415 1.349 . S
C414 C416 1.327 . S
C414 H439 0.950 . S
C415 C414 1.349 . S
C415 C431 1.349 . S
C416 C414 1.327 . S
C416 C435 1.429 . S
C416 H440 0.950 . S
C417 C434 1.574 1_655 S
C417 C436 1.368 . S
C417 H441 0.949 . S
H418 C422 0.949 . S
C419 C420 1.349 . S
C419 C421 1.327 . S
C419 H442 0.950 . S
C420 C419 1.349 . S
C420 C432 1.349 . S
C421 C419 1.327 . S
C421 C437 1.429 . S
C421 H443 0.950 . S
C422 H418 0.949 . S
C422 C430 1.574 1_455 S
C422 C438 1.368 . S
H423 C431 0.950 . S
H424 C429 0.950 . S
H425 C430 0.949 . S
H426 C432 0.950 . S
H427 C433 0.950 . S
H428 C434 0.949 . S
C429 H424 0.950 . S
C429 C431 1.327 . S
C429 C435 1.429 . S
C430 C422 1.574 1_655 S
C430 H425 0.949 . S
C430 C436 1.368 . S
C431 C415 1.349 . S
C431 H423 0.950 . S
C431 C429 1.327 . S
C432 C420 1.349 . S
C432 H426 0.950 . S
C432 C433 1.327 . S
C433 H427 0.950 . S
C433 C432 1.327 . S
C433 C437 1.429 . S
C434 C417 1.574 1_455 S
C434 H428 0.949 . S
C434 C438 1.368 . S
C435 C416 1.429 . S
C435 C429 1.429 . S
C435 C436 1.523 . S
C436 C417 1.368 . S
C436 C430 1.368 . S
C436 C435 1.523 . S
C437 C421 1.429 . S
C437 C433 1.429 . S
C437 C438 1.523 . S
C438 C422 1.368 . S
C438 C434 1.368 . S
C438 C437 1.523 . S
H439 C414 0.950 . S
H440 C416 0.950 . S
H441 C417 0.949 . S
H442 C419 0.950 . S
H443 C421 0.950 . S
C444 C445 1.349 . S
C444 C446 1.327 . S
C444 H469 0.950 . S
C445 C444 1.349 . S
C445 C461 1.349 . S
C446 C444 1.327 . S
C446 C465 1.429 . S
C446 H470 0.950 . S
C447 C464 1.574 1_455 S
C447 C466 1.368 . S
C447 H471 0.949 . S
H448 C452 0.949 . S
C449 C450 1.349 . S
C449 C451 1.327 . S
C449 H472 0.950 . S
C450 C449 1.349 . S
C450 C462 1.349 . S
C451 C449 1.327 . S
C451 C467 1.429 . S
C451 H473 0.950 . S
C452 H448 0.949 . S
C452 C460 1.574 1_655 S
C452 C468 1.368 . S
H453 C461 0.950 . S
H454 C459 0.950 . S
H455 C460 0.949 . S
H456 C462 0.950 . S
H457 C463 0.950 . S
H458 C464 0.949 . S
C459 H454 0.950 . S
C459 C461 1.327 . S
C459 C465 1.429 . S
C460 C452 1.574 1_455 S
C460 H455 0.949 . S
C460 C466 1.368 . S
C461 C445 1.349 . S
C461 H453 0.950 . S
C461 C459 1.327 . S
C462 C450 1.349 . S
C462 H456 0.950 . S
C462 C463 1.327 . S
C463 H457 0.950 . S
C463 C462 1.327 . S
C463 C467 1.429 . S
C464 C447 1.574 1_655 S
C464 H458 0.949 . S
C464 C468 1.368 . S
C465 C446 1.429 . S
C465 C459 1.429 . S
C465 C466 1.523 . S
C466 C447 1.368 . S
C466 C460 1.368 . S
C466 C465 1.523 . S
C467 C451 1.429 . S
C467 C463 1.429 . S
C467 C468 1.523 . S
C468 C452 1.368 . S
C468 C464 1.368 . S
C468 C467 1.523 . S
H469 C444 0.950 . S
H470 C446 0.950 . S
H471 C447 0.949 . S
H472 C449 0.950 . S
H473 C451 0.950 . S
C474 C475 1.349 . S
C474 C476 1.327 . S
C474 H499 0.950 . S
C475 C474 1.349 . S
C475 C491 1.349 . S
C476 C474 1.327 . S
C476 C495 1.429 . S
C476 H500 0.950 . S
C477 C494 1.574 1_565 S
C477 C496 1.368 . S
C477 H501 0.949 . S
H478 C482 0.949 . S
C479 C480 1.349 . S
C479 C481 1.327 . S
C479 H502 0.950 . S
C480 C479 1.349 . S
C480 C492 1.349 . S
C481 C479 1.327 . S
C481 C497 1.429 . S
C481 H503 0.950 . S
C482 H478 0.949 . S
C482 C490 1.574 1_545 S
C482 C498 1.368 . S
H483 C491 0.950 . S
H484 C489 0.950 . S
H485 C490 0.949 . S
H486 C492 0.950 . S
H487 C493 0.950 . S
H488 C494 0.949 . S
C489 H484 0.950 . S
C489 C491 1.327 . S
C489 C495 1.429 . S
C490 C482 1.574 1_565 S
C490 H485 0.949 . S
C490 C496 1.368 . S
C491 C475 1.349 . S
C491 H483 0.950 . S
C491 C489 1.327 . S
C492 C480 1.349 . S
C492 H486 0.950 . S
C492 C493 1.327 . S
C493 H487 0.950 . S
C493 C492 1.327 . S
C493 C497 1.429 . S
C494 C477 1.574 1_545 S
C494 H488 0.949 . S
C494 C498 1.368 . S
C495 C476 1.429 . S
C495 C489 1.429 . S
C495 C496 1.523 . S
C496 C477 1.368 . S
C496 C490 1.368 . S
C496 C495 1.523 . S
C497 C481 1.429 . S
C497 C493 1.429 . S
C497 C498 1.523 . S
C498 C482 1.368 . S
C498 C494 1.368 . S
C498 C497 1.523 . S
H499 C474 0.950 . S
H500 C476 0.950 . S
H501 C477 0.949 . S
H502 C479 0.950 . S
H503 C481 0.950 . S
C504 C505 1.349 . S
C504 C506 1.327 . S
C504 H529 0.950 . S
C505 C504 1.349 . S
C505 C521 1.349 . S
C506 C504 1.327 . S
C506 C525 1.429 . S
C506 H530 0.950 . S
C507 C524 1.574 . S
C507 C526 1.368 . S
C507 H531 0.949 . S
H508 C512 0.949 . S
C509 C510 1.349 . S
C509 C511 1.327 . S
C509 H532 0.950 . S
C510 C509 1.349 . S
C510 C522 1.349 . S
C511 C509 1.327 . S
C511 C527 1.429 . S
C511 H533 0.950 . S
C512 H508 0.949 . S
C512 C520 1.574 . S
C512 C528 1.368 . S
H513 C521 0.950 . S
H514 C519 0.950 . S
H515 C520 0.949 . S
H516 C522 0.950 . S
H517 C523 0.950 . S
H518 C524 0.949 . S
C519 H514 0.950 . S
C519 C521 1.327 . S
C519 C525 1.429 . S
C520 C512 1.574 . S
C520 H515 0.949 . S
C520 C526 1.368 . S
C521 C505 1.349 . S
C521 H513 0.950 . S
C521 C519 1.327 . S
C522 C510 1.349 . S
C522 H516 0.950 . S
C522 C523 1.327 . S
C523 H517 0.950 . S
C523 C522 1.327 . S
C523 C527 1.429 . S
C524 C507 1.574 . S
C524 H518 0.949 . S
C524 C528 1.368 . S
C525 C506 1.429 . S
C525 C519 1.429 . S
C525 C526 1.523 . S
C526 C507 1.368 . S
C526 C520 1.368 . S
C526 C525 1.523 . S
C527 C511 1.429 . S
C527 C523 1.429 . S
C527 C528 1.523 . S
C528 C512 1.368 . S
C528 C524 1.368 . S
C528 C527 1.523 . S
H529 C504 0.950 . S
H530 C506 0.950 . S
H531 C507 0.949 . S
H532 C509 0.950 . S
H533 C511 0.950 . S
C534 C535 1.349 . S
C534 C536 1.327 . S
C534 H559 0.950 . S
C535 C534 1.349 . S
C535 C551 1.349 . S
C536 C534 1.327 . S
C536 C555 1.429 . S
C536 H560 0.950 . S
C537 C554 1.574 1_556 S
C537 C556 1.368 . S
C537 H561 0.949 . S
H538 C542 0.949 . S
C539 C540 1.349 . S
C539 C541 1.327 . S
C539 H562 0.950 . S
C540 C539 1.349 . S
C540 C552 1.349 . S
C541 C539 1.327 . S
C541 C557 1.429 . S
C541 H563 0.950 . S
C542 H538 0.949 . S
C542 C550 1.574 1_554 S
C542 C558 1.368 . S
H543 C551 0.950 . S
H544 C549 0.950 . S
H545 C550 0.949 . S
H546 C552 0.950 . S
H547 C553 0.950 . S
H548 C554 0.949 . S
C549 H544 0.950 . S
C549 C551 1.327 . S
C549 C555 1.429 . S
C550 C542 1.574 1_556 S
C550 H545 0.949 . S
C550 C556 1.368 . S
C551 C535 1.349 . S
C551 H543 0.950 . S
C551 C549 1.327 . S
C552 C540 1.349 . S
C552 H546 0.950 . S
C552 C553 1.327 . S
C553 H547 0.950 . S
C553 C552 1.327 . S
C553 C557 1.429 . S
C554 C537 1.574 1_554 S
C554 H548 0.949 . S
C554 C558 1.368 . S
C555 C536 1.429 . S
C555 C549 1.429 . S
C555 C556 1.523 . S
C556 C537 1.368 . S
C556 C550 1.368 . S
C556 C555 1.523 . S
C557 C541 1.429 . S
C557 C553 1.429 . S
C557 C558 1.523 . S
C558 C542 1.368 . S
C558 C554 1.368 . S
C558 C557 1.523 . S
H559 C534 0.950 . S
H560 C536 0.950 . S
H561 C537 0.949 . S
H562 C539 0.950 . S
H563 C541 0.950 . S
C564 C565 1.349 . S
C564 C566 1.327 . S
C564 H589 0.950 . S
C565 C564 1.349 . S
C565 C581 1.349 . S
C566 C564 1.327 . S
C566 C585 1.429 . S
C566 H590 0.950 . S
C567 C584 1.574 . S
C567 C586 1.368 . S
C567 H591 0.949 . S
H568 C572 0.949 . S
C569 C570 1.349 . S
C569 C571 1.327 . S
C569 H592 0.950 . S
C570 C569 1.349 . S
C570 C582 1.349 . S
C571 C569 1.327 . S
C571 C587 1.429 . S
C571 H593 0.950 . S
C572 H568 0.949 . S
C572 C580 1.574 . S
C572 C588 1.368 . S
H573 C581 0.950 . S
H574 C579 0.950 . S
H575 C580 0.949 . S
H576 C582 0.950 . S
H577 C583 0.950 . S
H578 C584 0.949 . S
C579 H574 0.950 . S
C579 C581 1.327 . S
C579 C585 1.429 . S
C580 C572 1.574 . S
C580 H575 0.949 . S
C580 C586 1.368 . S
C581 C565 1.349 . S
C581 H573 0.950 . S
C581 C579 1.327 . S
C582 C570 1.349 . S
C582 H576 0.950 . S
C582 C583 1.327 . S
C583 H577 0.950 . S
C583 C582 1.327 . S
C583 C587 1.429 . S
C584 C567 1.574 . S
C584 H578 0.949 . S
C584 C588 1.368 . S
C585 C566 1.429 . S
C585 C579 1.429 . S
C585 C586 1.523 . S
C586 C567 1.368 . S
C586 C580 1.368 . S
C586 C585 1.523 . S
C587 C571 1.429 . S
C587 C583 1.429 . S
C587 C588 1.523 . S
C588 C572 1.368 . S
C588 C584 1.368 . S
C588 C587 1.523 . S
H589 C564 0.950 . S
H590 C566 0.950 . S
H591 C567 0.949 . S
H592 C569 0.950 . S
H593 C571 0.950 . S
C594 C595 1.349 . S
C594 C596 1.327 . S
C594 H619 0.950 . S
C595 C594 1.349 . S
C595 C611 1.349 . S
C596 C594 1.327 . S
C596 C615 1.429 . S
C596 H620 0.950 . S
C597 C614 1.574 . S
C597 C616 1.368 . S
C597 H621 0.949 . S
H598 C602 0.949 . S
C599 C600 1.349 . S
C599 C601 1.327 . S
C599 H622 0.950 . S
C600 C599 1.349 . S
C600 C612 1.349 . S
C601 C599 1.327 . S
C601 C617 1.429 . S
C601 H623 0.950 . S
C602 H598 0.949 . S
C602 C610 1.574 . S
C602 C618 1.368 . S
H603 C611 0.950 . S
H604 C609 0.950 . S
H605 C610 0.949 . S
H606 C612 0.950 . S
H607 C613 0.950 . S
H608 C614 0.949 . S
C609 H604 0.950 . S
C609 C611 1.327 . S
C609 C615 1.429 . S
C610 C602 1.574 . S
C610 H605 0.949 . S
C610 C616 1.368 . S
C611 C595 1.349 . S
C611 H603 0.950 . S
C611 C609 1.327 . S
C612 C600 1.349 . S
C612 H606 0.950 . S
C612 C613 1.327 . S
C613 H607 0.950 . S
C613 C612 1.327 . S
C613 C617 1.429 . S
C614 C597 1.574 . S
C614 H608 0.949 . S
C614 C618 1.368 . S
C615 C596 1.429 . S
C615 C609 1.429 . S
C615 C616 1.523 . S
C616 C597 1.368 . S
C616 C610 1.368 . S
C616 C615 1.523 . S
C617 C601 1.429 . S
C617 C613 1.429 . S
C617 C618 1.523 . S
C618 C602 1.368 . S
C618 C614 1.368 . S
C618 C617 1.523 . S
H619 C594 0.950 . S
H620 C596 0.950 . S
H621 C597 0.949 . S
H622 C599 0.950 . S
H623 C601 0.950 . S
C624 C625 1.349 . S
C624 C626 1.327 . S
C624 H649 0.950 . S
C625 C624 1.349 . S
C625 C641 1.349 . S
C626 C624 1.327 . S
C626 C645 1.429 . S
C626 H650 0.950 . S
C627 C644 1.574 1_556 S
C627 C646 1.368 . S
C627 H651 0.949 . S
H628 C632 0.949 . S
C629 C630 1.349 . S
C629 C631 1.327 . S
C629 H652 0.950 . S
C630 C629 1.349 . S
C630 C642 1.349 . S
C631 C629 1.327 . S
C631 C647 1.429 . S
C631 H653 0.950 . S
C632 H628 0.949 . S
C632 C640 1.574 1_554 S
C632 C648 1.368 . S
H633 C641 0.950 . S
H634 C639 0.950 . S
H635 C640 0.949 . S
H636 C642 0.950 . S
H637 C643 0.950 . S
H638 C644 0.949 . S
C639 H634 0.950 . S
C639 C641 1.327 . S
C639 C645 1.429 . S
C640 C632 1.574 1_556 S
C640 H635 0.949 . S
C640 C646 1.368 . S
C641 C625 1.349 . S
C641 H633 0.950 . S
C641 C639 1.327 . S
C642 C630 1.349 . S
C642 H636 0.950 . S
C642 C643 1.327 . S
C643 H637 0.950 . S
C643 C642 1.327 . S
C643 C647 1.429 . S
C644 C627 1.574 1_554 S
C644 H638 0.949 . S
C644 C648 1.368 . S
C645 C626 1.429 . S
C645 C639 1.429 . S
C645 C646 1.523 . S
C646 C627 1.368 . S
C646 C640 1.368 . S
C646 C645 1.523 . S
C647 C631 1.429 . S
C647 C643 1.429 . S
C647 C648 1.523 . S
C648 C632 1.368 . S
C648 C644 1.368 . S
C648 C647 1.523 . S
H649 C624 0.950 . S
H650 C626 0.950 . S
H651 C627 0.949 . S
H652 C629 0.950 . S
H653 C631 0.950 . S
C654 C655 1.349 . S
C654 C656 1.327 . S
C654 H679 0.950 . S
C655 C654 1.349 . S
C655 C671 1.349 . S
C656 C654 1.327 . S
C656 C675 1.429 . S
C656 H680 0.950 . S
C657 C674 1.574 . S
C657 C676 1.368 . S
C657 H681 0.949 . S
H658 C662 0.949 . S
C659 C660 1.349 . S
C659 C661 1.327 . S
C659 H682 0.950 . S
C660 C659 1.349 . S
C660 C672 1.349 . S
C661 C659 1.327 . S
C661 C677 1.429 . S
C661 H683 0.950 . S
C662 H658 0.949 . S
C662 C670 1.574 . S
C662 C678 1.368 . S
H663 C671 0.950 . S
H664 C669 0.950 . S
H665 C670 0.949 . S
H666 C672 0.950 . S
H667 C673 0.950 . S
H668 C674 0.949 . S
C669 H664 0.950 . S
C669 C671 1.327 . S
C669 C675 1.429 . S
C670 C662 1.574 . S
C670 H665 0.949 . S
C670 C676 1.368 . S
C671 C655 1.349 . S
C671 H663 0.950 . S
C671 C669 1.327 . S
C672 C660 1.349 . S
C672 H666 0.950 . S
C672 C673 1.327 . S
C673 H667 0.950 . S
C673 C672 1.327 . S
C673 C677 1.429 . S
C674 C657 1.574 . S
C674 H668 0.949 . S
C674 C678 1.368 . S
C675 C656 1.429 . S
C675 C669 1.429 . S
C675 C676 1.523 . S
C676 C657 1.368 . S
C676 C670 1.368 . S
C676 C675 1.523 . S
C677 C661 1.429 . S
C677 C673 1.429 . S
C677 C678 1.523 . S
C678 C662 1.368 . S
C678 C674 1.368 . S
C678 C677 1.523 . S
H679 C654 0.950 . S
H680 C656 0.950 . S
H681 C657 0.949 . S
H682 C659 0.950 . S
H683 C661 0.950 . S
C684 C685 1.349 . S
C684 C686 1.327 . S
C684 H709 0.950 . S
C685 C684 1.349 . S
C685 C701 1.349 . S
C686 C684 1.327 . S
C686 C705 1.429 . S
C686 H710 0.950 . S
C687 C704 1.574 . S
C687 C706 1.368 . S
C687 H711 0.949 . S
H688 C692 0.949 . S
C689 C690 1.349 . S
C689 C691 1.327 . S
C689 H712 0.950 . S
C690 C689 1.349 . S
C690 C702 1.349 . S
C691 C689 1.327 . S
C691 C707 1.429 . S
C691 H713 0.950 . S
C692 H688 0.949 . S
C692 C700 1.574 . S
C692 C708 1.368 . S
H693 C701 0.950 . S
H694 C699 0.950 . S
H695 C700 0.949 . S
H696 C702 0.950 . S
H697 C703 0.950 . S
H698 C704 0.949 . S
C699 H694 0.950 . S
C699 C701 1.327 . S
C699 C705 1.429 . S
C700 C692 1.574 . S
C700 H695 0.949 . S
C700 C706 1.368 . S
C701 C685 1.349 . S
C701 H693 0.950 . S
C701 C699 1.327 . S
C702 C690 1.349 . S
C702 H696 0.950 . S
C702 C703 1.327 . S
C703 H697 0.950 . S
C703 C702 1.327 . S
C703 C707 1.429 . S
C704 C687 1.574 . S
C704 H698 0.949 . S
C704 C708 1.368 . S
C705 C686 1.429 . S
C705 C699 1.429 . S
C705 C706 1.523 . S
C706 C687 1.368 . S
C706 C700 1.368 . S
C706 C705 1.523 . S
C707 C691 1.429 . S
C707 C703 1.429 . S
C707 C708 1.523 . S
C708 C692 1.368 . S
C708 C704 1.368 . S
C708 C707 1.523 . S
H709 C684 0.950 . S
H710 C686 0.950 . S
H711 C687 0.949 . S
H712 C689 0.950 . S
H713 C691 0.950 . S
C355 C5 1.126 . S
C360 C182 1.126 . S
C385 C64 1.125 . S
C390 C241 1.125 . S
C415 C123 1.125 . S
C420 C300 1.125 . S
C445 C111 1.918 . S
C450 C288 1.918 . S
C475 C347 1.918 . S
C480 C170 1.918 . S
C505 C229 1.919 . S
C510 C52 1.919 . S
C535 C151 1.275 . S
C540 C3 1.269 . S
C565 C210 1.275 . S
C570 C62 1.268 . S
C595 C121 1.268 . S
C600 C269 1.275 . S
C625 C328 1.275 . S
C630 C180 1.268 . S
C655 C239 1.268 . S
C660 C33 1.275 . S
C685 C298 1.268 . S
C690 C92 1.275 . S
