# Generated by pormake.
# Topology smu, (6)-cn, num edge types: 1
# Building blocks:
#     Node 0, Type 0, BuildingBlock: BETDIP_clean_sbu_0, # of connection points: 6
#     Node 1, Type 0, BuildingBlock: BETDIP_clean_sbu_0, # of connection points: 6
#     Node 2, Type 0, BuildingBlock: BETDIP_clean_sbu_0, # of connection points: 6
#     Node 3, Type 0, BuildingBlock: BETDIP_clean_sbu_0, # of connection points: 6
#     Node 4, Type 0, BuildingBlock: BETDIP_clean_sbu_0, # of connection points: 6
#     Node 5, Type 0, BuildingBlock: BETDIP_clean_sbu_0, # of connection points: 6
#     Edge 6, Type (0, 0), BuildingBlock: UVAHIK_clean_linker_0, # of connection points: 2
#     Edge 7, Type (0, 0), BuildingBlock: UVAHIK_clean_linker_0, # of connection points: 2
#     Edge 8, Type (0, 0), BuildingBlock: UVAHIK_clean_linker_0, # of connection points: 2
#     Edge 9, Type (0, 0), BuildingBlock: UVAHIK_clean_linker_0, # of connection points: 2
#     Edge 10, Type (0, 0), BuildingBlock: UVAHIK_clean_linker_0, # of connection points: 2
#     Edge 11, Type (0, 0), BuildingBlock: UVAHIK_clean_linker_0, # of connection points: 2
#     Edge 12, Type (0, 0), BuildingBlock: UVAHIK_clean_linker_0, # of connection points: 2
#     Edge 13, Type (0, 0), BuildingBlock: UVAHIK_clean_linker_0, # of connection points: 2
#     Edge 14, Type (0, 0), BuildingBlock: UVAHIK_clean_linker_0, # of connection points: 2
#     Edge 15, Type (0, 0), BuildingBlock: UVAHIK_clean_linker_0, # of connection points: 2
#     Edge 16, Type (0, 0), BuildingBlock: UVAHIK_clean_linker_0, # of connection points: 2
#     Edge 17, Type (0, 0), BuildingBlock: UVAHIK_clean_linker_0, # of connection points: 2
#     Edge 18, Type (0, 0), BuildingBlock: UVAHIK_clean_linker_0, # of connection points: 2
#     Edge 19, Type (0, 0), BuildingBlock: UVAHIK_clean_linker_0, # of connection points: 2
#     Edge 20, Type (0, 0), BuildingBlock: UVAHIK_clean_linker_0, # of connection points: 2
#     Edge 21, Type (0, 0), BuildingBlock: UVAHIK_clean_linker_0, # of connection points: 2
#     Edge 22, Type (0, 0), BuildingBlock: UVAHIK_clean_linker_0, # of connection points: 2
#     Edge 23, Type (0, 0), BuildingBlock: UVAHIK_clean_linker_0, # of connection points: 2
# Relax obj value: 0.218
# Max RMSD: 0.300
# Mean RMSD: 0.300
data_MOF--net-smu--node1-BETDIP_clean_sbu_0--edge1-UVAHIK_clean_linker_0
_symmetry_space_group_name_H-M    P1
_symmetry_Int_Tables_number       1
_symmetry_cell_setting            triclinic
loop_
_symmetry_equiv_pos_as_xyz
'x, y, z'
_cell_length_a     47.222961
_cell_length_b     47.177238
_cell_length_c     34.901868
_cell_angle_alpha  90.168302
_cell_angle_beta   89.951082
_cell_angle_gamma 119.83295
loop_
_atom_site_label
_atom_site_type_symbol
_atom_site_fract_x
_atom_site_fract_y
_atom_site_fract_z
_atom_type_partial_charge
Tb0 Tb 0.32961 0.0595 0.28156 0.0
Tb1 Tb 0.37409 0.13083 0.27965 0.0
C2 C 0.29224 1.00087 0.29851 0.0
C3 C 0.25611 0.98149 0.29845 0.0
C4 C 0.23757 0.99411 0.31526 0.0
C5 C 0.20352 0.97651 0.31401 0.0
C6 C 0.18705 0.94593 0.29569 0.0
C7 C 0.20557 0.93328 0.27883 0.0
C8 C 0.23979 0.95088 0.2803 0.0
C9 C 0.33287 0.08504 0.21286 0.0
C10 C 0.30084 0.10684 0.28202 0.0
C11 C 0.41528 0.19014 0.27352 0.0
C12 C 0.43996 0.22526 0.27132 0.0
C13 C 0.44347 0.2433 0.23795 0.0
C14 C 0.46488 0.27712 0.2373 0.0
C15 C 0.48285 0.2936 0.27017 0.0
C16 C 0.47967 0.27538 0.30329 0.0
C17 C 0.45858 0.24158 0.3038 0.0
C18 C 0.35361 0.1037 0.34847 0.0
C19 C 0.40487 0.08562 0.26775 0.0
O20 O 0.30513 0.02447 0.32394 0.0
O21 O 0.3064 1.00999 0.26492 0.0
O22 O 0.35641 0.09314 0.23584 0.0
O23 O 0.30669 0.06255 0.22903 0.0
O24 O 0.29774 0.07968 0.29711 0.0
O25 O 0.32856 0.12868 0.26655 0.0
O26 O 0.39115 0.17512 0.24909 0.0
O27 O 0.41667 0.17135 0.30012 0.0
O28 O 0.36276 0.09352 0.32087 0.0
O29 O 0.35517 0.13073 0.33831 0.0
O30 O 0.4083 0.11495 0.26321 0.0
O31 O 0.37646 0.05992 0.27739 0.0
H32 H 0.24931 0.01784 0.32908 0.0
H33 H 0.19009 0.98727 0.32669 0.0
H34 H 0.19362 0.90969 0.26468 0.0
H35 H 0.25352 0.94071 0.26697 0.0
H36 H 0.42929 0.23137 0.21257 0.0
H37 H 0.46667 0.29053 0.21142 0.0
H38 H 0.49347 0.28729 0.32891 0.0
H39 H 0.45624 0.22835 0.33002 0.0
Tb40 Tb 0.76429 0.70959 0.2781 0.0
Tb41 Tb 0.80266 0.67731 0.266 0.0
C42 C 0.74593 0.74871 0.30052 0.0
C43 C 0.76312 0.78457 0.30602 0.0
C44 C 0.79524 0.80164 0.3202 0.0
C45 C 0.81231 0.83586 0.32142 0.0
C46 C 0.79763 0.85378 0.30855 0.0
C47 C 0.7651 0.83648 0.2955 0.0
C48 C 0.74811 0.80229 0.29418 0.0
C49 C 0.76441 0.69322 0.20588 0.0
C50 C 0.84081 0.75057 0.26405 0.0
C51 C 0.83008 0.64513 0.24621 0.0
C52 C 0.83471 0.61665 0.25325 0.0
C53 C 0.83345 0.59738 0.2219 0.0
C54 C 0.843 0.57378 0.2257 0.0
C55 C 0.8541 0.56871 0.26109 0.0
C56 C 0.85423 0.58729 0.29291 0.0
C57 C 0.84472 0.61104 0.28903 0.0
C58 C 0.79474 0.69009 0.339 0.0
C59 C 0.72522 0.63387 0.27304 0.0
O60 O 0.75356 0.73184 0.32379 0.0
O61 O 0.74374 0.73896 0.26505 0.0
O62 O 0.78911 0.70506 0.22804 0.0
O63 O 0.7396 0.69107 0.22424 0.0
O64 O 0.81622 0.74829 0.28455 0.0
O65 O 0.83709 0.72501 0.24492 0.0
O66 O 0.80235 0.64008 0.23182 0.0
O67 O 0.84214 0.66901 0.27114 0.0
O68 O 0.77445 0.67944 0.31257 0.0
O69 O 0.82168 0.69328 0.32562 0.0
O70 O 0.75275 0.63627 0.26021 0.0
O71 O 0.72445 0.65959 0.28743 0.0
H72 H 0.80747 0.78863 0.32957 0.0
H73 H 0.83737 0.84826 0.33132 0.0
H74 H 0.75277 0.84938 0.28601 0.0
H75 H 0.72338 0.78968 0.28313 0.0
H76 H 0.82636 0.60153 0.19387 0.0
H77 H 0.84296 0.56051 0.20033 0.0
H78 H 0.8621 0.58382 0.32076 0.0
H79 H 0.84615 0.62562 0.31375 0.0
Tb80 Tb 0.97976 0.27694 0.28021 0.0
Tb81 Tb 0.90818 0.24811 0.28009 0.0
C82 C 0.03936 0.30012 0.29428 0.0
C83 C 0.05938 0.28401 0.29341 0.0
C84 C 0.0449 0.25044 0.30129 0.0
C85 C 0.06346 0.23491 0.30133 0.0
C86 C 0.09704 0.25247 0.29332 0.0
C87 C 0.11153 0.28603 0.28482 0.0
C88 C 0.09283 0.30168 0.28497 0.0
C89 C 0.95315 0.252 0.21244 0.0
C90 C 0.93456 0.20076 0.28488 0.0
C91 C 0.84829 0.22764 0.27352 0.0
C92 C 0.81281 0.21572 0.27038 0.0
C93 C 0.79534 0.19936 0.23727 0.0
C94 C 0.76136 0.18578 0.23569 0.0
C95 C 0.74406 0.18792 0.26739 0.0
C96 C 0.76168 0.2048 0.30024 0.0
C97 C 0.79566 0.21865 0.30165 0.0
C98 C 0.93711 0.25803 0.34867 0.0
C99 C 0.95049 0.32392 0.26646 0.0
O100 O 1.01667 0.2892 0.3207 0.0
O101 O 0.02851 0.30386 0.26119 0.0
O102 O 0.94485 0.26771 0.23498 0.0
O103 O 0.97592 0.24897 0.22906 0.0
O104 O 0.96145 0.22595 0.29874 0.0
O105 O 0.91182 0.20512 0.26898 0.0
O106 O 0.86423 0.21898 0.24981 0.0
O107 O 0.86644 0.24861 0.29993 0.0
O108 O 0.94619 0.2762 0.3201 0.0
O109 O 0.90996 0.23216 0.33987 0.0
O110 O 0.92167 0.29731 0.26302 0.0
O111 O 0.97714 0.32245 0.27541 0.0
H112 H 1.01916 0.23608 0.3077 0.0
H113 H 0.05136 0.20896 0.30726 0.0
H114 H 0.13738 0.30028 0.27866 0.0
H115 H 0.10451 0.32756 0.27872 0.0
H116 H 0.80787 0.19659 0.21277 0.0
H117 H 0.74851 0.17277 0.21005 0.0
H118 H 0.74917 0.20725 0.32496 0.0
H119 H 0.8084 0.23099 0.32765 0.0
Tb120 Tb 0.09906 0.3742 0.7939 0.0
Tb121 Tb 0.12128 0.32762 0.76959 0.0
C122 C 0.09425 0.41945 0.82654 0.0
C123 C 0.11022 0.45531 0.82044 0.0
C124 C 0.12732 0.47686 0.85061 0.0
C125 C 0.14305 0.51078 0.84519 0.0
C126 C 0.14184 0.52396 0.8095 0.0
C127 C 0.12469 0.5023 0.77931 0.0
C128 C 0.10918 0.46842 0.78465 0.0
C129 C 0.08833 0.35886 0.72062 0.0
C130 C 0.17375 0.40312 0.7743 0.0
C131 C 0.14582 0.29611 0.73954 0.0
C132 C 0.15067 0.26822 0.74875 0.0
C133 C 0.14629 0.24548 0.72013 0.0
C134 C 0.15606 0.22226 0.72627 0.0
C135 C 0.17089 0.2216 0.76105 0.0
C136 C 0.17371 0.24345 0.79034 0.0
C137 C 0.16355 0.26632 0.78435 0.0
C138 C 0.10479 0.32234 0.84329 0.0
C139 C 0.04774 0.30109 0.78185 0.0
O140 O 0.11304 0.40843 0.83889 0.0
O141 O 0.0743 0.40062 0.79989 0.0
O142 O 0.11319 0.3626 0.73912 0.0
O143 O 0.07115 0.36679 0.74225 0.0
O144 O 0.14995 0.40969 0.7801 0.0
O145 O 0.16781 0.37287 0.77035 0.0
O146 O 0.11624 0.29022 0.73175 0.0
O147 O 0.16186 0.32203 0.76098 0.0
O148 O 0.11838 0.34805 0.82346 0.0
O149 O 0.10339 0.29899 0.82254 0.0
O150 O 0.06939 0.30055 0.75829 0.0
O151 O 0.05576 0.32625 0.80534 0.0
H152 H 0.12856 0.46744 0.87845 0.0
H153 H 0.15575 0.52669 0.86917 0.0
H154 H 0.1236 0.51154 0.75131 0.0
H155 H 0.09651 0.45256 0.76062 0.0
H156 H 0.13639 0.24642 0.69247 0.0
H157 H 0.15266 0.20535 0.70335 0.0
H158 H 0.18522 0.24407 0.81737 0.0
H159 H 0.16719 0.2835 0.80709 0.0
Tb160 Tb 0.3113 0.9461 0.78757 0.0
Tb161 Tb 0.24015 0.92036 0.77004 0.0
C162 C 0.3646 0.95462 0.81434 0.0
C163 C 0.3837 0.93765 0.80898 0.0
C164 C 0.38872 0.92173 0.84001 0.0
C165 C 0.40656 0.90549 0.8353 0.0
C166 C 0.42003 0.90502 0.79947 0.0
C167 C 0.4149 0.92091 0.76844 0.0
C168 C 0.39693 0.93695 0.77308 0.0
C169 C 0.29926 0.95249 0.7153 0.0
C170 C 0.26641 0.87016 0.77198 0.0
C171 C 0.18283 0.89367 0.74461 0.0
C172 C 0.15112 0.89119 0.75371 0.0
C173 C 0.13312 0.89523 0.72448 0.0
C174 C 0.10065 0.88705 0.73069 0.0
C175 C 0.08538 0.87415 0.76612 0.0
C176 C 0.1042 0.87204 0.79604 0.0
C177 C 0.13673 0.88065 0.78998 0.0
C178 C 0.2558 0.93906 0.8423 0.0
C179 C 0.2859 0.99508 0.77986 0.0
O180 O 0.33669 0.93832 0.83211 0.0
O181 O 0.36245 0.97053 0.78496 0.0
O182 O 0.28135 0.92843 0.73654 0.0
O183 O 0.32598 0.97191 0.73315 0.0
O184 O 0.29649 0.89462 0.77718 0.0
O185 O 0.24138 0.87502 0.76858 0.0
O186 O 0.20633 0.9215 0.73138 0.0
O187 O 0.19332 0.88012 0.76921 0.0
O188 O 0.26768 0.92582 0.8211 0.0
O189 O 0.23197 0.93891 0.824 0.0
O190 O 0.26192 0.97231 0.75906 0.0
O191 O 0.30571 0.98866 0.80046 0.0
H192 H 0.37886 0.92191 0.868 0.0
H193 H 0.41029 0.89378 0.85989 0.0
H194 H 0.42452 0.92066 0.74033 0.0
H195 H 0.39341 0.94874 0.74842 0.0
H196 H 0.14372 0.90341 0.69633 0.0
H197 H 0.08724 0.88987 0.70726 0.0
H198 H 0.09341 0.86203 0.82361 0.0
H199 H 0.15003 0.87741 0.81323 0.0
Tb200 Tb 0.67235 0.73512 0.77752 0.0
Tb201 Tb 0.71701 0.80652 0.76035 0.0
C202 C 0.6268 0.68037 0.79971 0.0
C203 C 0.59042 0.66381 0.7996 0.0
C204 C 0.57296 0.659 0.83388 0.0
C205 C 0.53866 0.64212 0.8339 0.0
C206 C 0.52092 0.62951 0.79962 0.0
C207 C 0.53851 0.63462 0.76535 0.0
C208 C 0.57268 0.65147 0.76532 0.0
C209 C 0.695 0.74781 0.70677 0.0
C210 C 0.64087 0.77978 0.7616 0.0
C211 C 0.74671 0.86343 0.73335 0.0
C212 C 0.77585 0.89576 0.73887 0.0
C213 C 0.78374 0.91936 0.7104 0.0
C214 C 0.80707 0.95198 0.71727 0.0
C215 C 0.8232 0.96179 0.75285 0.0
C216 C 0.81628 0.93766 0.78079 0.0
C217 C 0.79273 0.90493 0.77389 0.0
C218 C 0.71797 0.7916 0.83317 0.0
C219 C 0.74692 0.76158 0.77533 0.0
O220 O 0.64276 0.70536 0.82272 0.0
O221 O 0.64088 0.68553 0.76627 0.0
O222 O 0.68604 0.76475 0.72611 0.0
O223 O 0.68954 0.72226 0.72605 0.0
O224 O 0.63574 0.75017 0.7691 0.0
O225 O 0.6704 0.80471 0.75637 0.0
O226 O 0.75047 0.83946 0.72 0.0
O227 O 0.72498 0.85406 0.76074 0.0
O228 O 0.6934 0.77905 0.81106 0.0
O229 O 0.74192 0.81544 0.8153 0.0
O230 O 0.74906 0.78595 0.75433 0.0
O231 O 0.71972 0.74086 0.79363 0.0
H232 H 0.58582 0.66805 0.86078 0.0
H233 H 0.52604 0.639 0.86082 0.0
H234 H 0.52591 0.62484 0.73847 0.0
H235 H 0.58511 0.65436 0.73831 0.0
H236 H 0.77064 0.91285 0.68341 0.0
H237 H 0.8112 0.96972 0.69522 0.0
H238 H 0.82853 0.94415 0.80828 0.0
H239 H 0.7868 0.88707 0.79638 0.0
C240 C 0.25503 0.9745 0.89484 0.0
C241 C 0.26898 0.95684 0.87904 0.0
C242 C 0.26733 0.99258 0.92855 0.0
C243 C 0.30634 0.04263 0.98899 0.0
H244 H 0.33494 1.00901 0.07257 0.0
C245 C 0.30986 0.07979 0.14753 0.0
C246 C 0.3357 0.08343 0.1708 0.0
C247 C 0.30762 0.06993 0.10927 0.0
C248 C 0.32753 0.01902 0.04928 0.0
H249 H 0.30607 0.94335 0.88737 0.0
H250 H 0.32855 0.97586 0.94572 0.0
H251 H 0.31889 0.9795 1.01173 0.0
H252 H 0.38015 0.08068 0.17197 0.0
H253 H 0.37604 0.06303 0.10498 0.0
H254 H 0.31355 0.08129 1.02733 0.0
C255 C 0.30786 0.97563 0.93205 0.0
C256 C 0.31833 1.00209 1.01427 0.0
C257 C 0.29528 0.95725 0.89826 0.0
C258 C 0.36023 0.07859 0.15451 0.0
C259 C 0.35765 0.06808 0.11633 0.0
C260 C 0.31513 0.05928 1.02409 0.0
C261 C 0.29416 0.99377 0.94758 0.0
C262 C 0.30694 1.01328 0.98381 0.0
C263 C 0.33085 0.06283 0.09358 0.0
C264 C 0.32533 0.04741 0.05488 0.0
H265 H 0.23455 0.97457 0.88098 0.0
H266 H 0.25539 1.00532 0.93989 0.0
H267 H 0.29864 0.05266 0.96602 0.0
H268 H 0.29042 0.08291 0.15956 0.0
H269 H 0.28656 0.06591 0.09267 0.0
C270 C 0.73895 0.77017 0.65714 0.0
C271 C 0.70559 0.75239 0.6663 0.0
C272 C 0.75012 0.76679 0.62101 0.0
C273 C 0.72424 0.70594 0.54183 0.0
H274 H 0.79889 0.77384 0.4878 0.0
C275 C 0.75492 0.68621 0.38831 0.0
C276 C 0.78765 0.69809 0.37781 0.0
C277 C 0.74686 0.69428 0.42362 0.0
C278 C 0.77824 0.75452 0.50279 0.0
H279 H 0.65767 0.71807 0.64464 0.0
H280 H 0.67665 0.71327 0.58111 0.0
H281 H 0.78033 0.78702 0.54736 0.0
H282 H 0.83774 0.72789 0.39637 0.0
H283 H 0.82364 0.74208 0.45889 0.0
H284 H 0.72195 0.67348 0.49749 0.0
C285 C 0.6945 0.72933 0.60188 0.0
C286 C 0.7675 0.76209 0.53694 0.0
C287 C 0.68345 0.73251 0.63806 0.0
C288 C 0.81231 0.71822 0.40378 0.0
C289 C 0.8042 0.72655 0.43938 0.0
C290 C 0.73486 0.69845 0.50783 0.0
C291 C 0.72812 0.74541 0.59326 0.0
C292 C 0.74006 0.73794 0.55676 0.0
C293 C 0.77127 0.71454 0.44978 0.0
C294 C 0.76177 0.72264 0.48751 0.0
H295 H 0.75664 0.78514 0.67864 0.0
H296 H 0.77616 0.77945 0.61574 0.0
H297 H 0.70371 0.68636 0.55666 0.0
H298 H 0.73528 0.67072 0.36897 0.0
H299 H 0.72132 0.68498 0.43016 0.0
C300 C 0.96189 0.28621 0.15387 0.0
C301 C 0.95553 0.25641 0.17029 0.0
C302 C 0.97353 0.29399 0.11609 0.0
C303 C 0.98367 0.25958 1.0245 0.0
H304 H 0.06366 0.34259 1.01399 0.0
C305 C 0.06903 0.28515 0.89494 0.0
C306 C 0.08708 0.31701 0.88029 0.0
C307 C 0.05089 0.27892 0.92872 0.0
C308 C 0.04105 0.31956 1.01597 0.0
H309 H 0.95476 0.21088 0.15951 0.0
H310 H 0.9737 0.22377 0.0933 0.0
H311 H 0.03327 0.32923 0.07402 0.0
H312 H 0.10078 0.36742 0.89052 0.0
H313 H 0.06832 0.35667 0.94883 0.0
H314 H 0.99107 0.24981 0.96658 0.0
C315 C 0.96995 0.24126 0.10948 0.0
C316 C 1.02359 0.31188 0.05056 0.0
C317 C 0.95893 0.23376 0.14738 0.0
C318 C 0.08684 0.34261 0.90065 0.0
C319 C 0.06841 0.33637 0.93443 0.0
C320 C 1.00086 0.26739 0.98977 0.0
C321 C 0.97853 0.27193 0.09376 0.0
C322 C 0.99499 0.28154 0.05553 0.0
C323 C 0.04996 0.30433 0.94894 0.0
C324 C 0.03025 0.29722 0.98514 0.0
H325 H 0.96012 0.30444 0.17104 0.0
H326 H 0.97965 0.31771 0.10476 0.0
H327 H 0.96153 0.23616 1.02715 0.0
H328 H 0.06872 0.26479 0.88013 0.0
H329 H 0.03786 0.25404 0.93913 0.0
C330 C 0.35186 0.06304 0.39494 0.0
C331 C 0.34324 0.08673 0.38584 0.0
C332 C 0.34197 0.04586 0.42938 0.0
C333 C 0.30955 0.04691 0.52673 0.0
H334 H 0.29608 0.95882 0.52917 0.0
C335 C 0.27123 0.96715 0.66472 0.0
C336 C 0.29371 0.95713 0.67473 0.0
C337 C 0.27194 0.9797 0.62809 0.0
C338 C 0.29964 0.98335 0.5289 0.0
H339 H 0.31732 0.111 0.40566 0.0
H340 H 0.29896 0.08019 0.4658 0.0
H341 H 0.3068 0.98751 0.46832 0.0
H342 H 0.33386 0.9515 0.65428 0.0
H343 H 0.33401 0.97171 0.5897 0.0
H344 H 0.30173 0.04213 0.58758 0.0
C345 C 0.31406 0.07534 0.44659 0.0
C346 C 0.30612 1.00004 0.49403 0.0
C347 C 0.32446 0.09298 0.4121 0.0
C348 C 0.3158 0.95838 0.64697 0.0
C349 C 0.31598 0.97011 0.61012 0.0
C350 C 0.30244 0.02992 0.56156 0.0
C351 C 0.32259 0.05137 0.45569 0.0
C352 C 0.31211 0.03245 0.49247 0.0
C353 C 0.29473 0.98183 0.60062 0.0
C354 C 0.29816 0.99824 0.56312 0.0
H355 H 0.36658 0.05787 0.3754 0.0
H356 H 0.35 0.02849 0.43546 0.0
H357 H 0.31426 0.07183 0.52703 0.0
H358 H 0.25443 0.96719 0.68574 0.0
H359 H 0.25525 0.98852 0.62153 0.0
C360 C 0.69643 0.75333 0.89035 0.0
C361 C 0.72225 0.77924 0.87069 0.0
C362 C 0.70219 0.74185 0.92505 0.0
C363 C 0.76192 0.76735 1.00526 0.0
H364 H 0.72161 0.67463 1.02588 0.0
C365 C 0.7923 0.72117 0.14432 0.0
C366 C 0.76517 0.69644 0.16361 0.0
C367 C 0.78929 0.729 0.1062 0.0
C368 C 0.73295 0.70065 1.02077 0.0
H369 H 0.77426 0.81376 0.87251 0.0
H370 H 0.78414 0.79408 0.93232 0.0
H371 H 0.70999 0.6932 0.96572 0.0
H372 H 0.71442 0.6592 0.15756 0.0
H373 H 0.70914 0.67254 0.09178 0.0
H374 H 0.78438 0.77499 0.06043 0.0
C375 C 0.75942 0.78253 0.92135 0.0
C376 C 0.72616 0.71128 0.98624 0.0
C377 C 0.7537 0.79378 0.88686 0.0
C378 C 0.7358 0.67829 0.14332 0.0
C379 C 0.73281 0.68596 0.10543 0.0
C380 C 0.76858 0.75676 0.03982 0.0
C381 C 0.73383 0.75638 0.94101 0.0
C382 C 0.74049 0.7448 0.97803 0.0
C383 C 0.75914 0.71215 0.08664 0.0
C384 C 0.75409 0.72324 0.04826 0.0
H385 H 0.67185 0.74217 0.87923 0.0
H386 H 0.68179 0.72195 0.93969 0.0
H387 H 0.7731 0.79337 1.00024 0.0
H388 H 0.81515 0.73578 0.15934 0.0
H389 H 0.8103 0.74895 0.0925 0.0
C390 C 0.94582 0.24397 0.41615 0.0
C391 C 0.95515 0.26626 0.38568 0.0
C392 C 0.96349 0.25297 0.45085 0.0
C393 C 1.0208 0.3278 0.50591 0.0
H394 H 0.03331 0.26789 0.56993 0.0
C395 C 0.05682 0.35684 0.66306 0.0
C396 C 0.07961 0.34966 0.67974 0.0
C397 C 0.04502 0.3464 0.62614 0.0
C398 C 0.03042 0.28502 0.5521 0.0
H399 H 0.99034 0.31537 0.36775 0.0
H400 H 1.02148 0.33049 0.42675 0.0
H401 H 1.0056 0.24928 0.50781 0.0
H402 H 0.10791 0.32563 0.67036 0.0
H403 H 0.08703 0.30706 0.6047 0.0
H404 H 0.04562 0.36355 0.54958 0.0
C405 C 1.00027 0.30631 0.42471 0.0
C406 C 1.0141 0.27424 0.51671 0.0
C407 C 0.98254 0.29748 0.39052 0.0
C408 C 0.09064 0.33184 0.65813 0.0
C409 C 0.07843 0.32098 0.62076 0.0
C410 C 0.03706 0.3385 0.54095 0.0
C411 C 0.99085 0.28447 0.45573 0.0
C412 C 1.00881 0.29546 0.49321 0.0
C413 C 0.05544 0.32824 0.60434 0.0
C414 C 0.04164 0.31721 0.56494 0.0
H415 H 0.9248 0.21973 0.41329 0.0
H416 H 0.95522 0.23553 0.4741 0.0
H417 H 1.01694 0.3449 0.48922 0.0
H418 H 0.04757 0.37033 0.67885 0.0
H419 H 0.02698 0.35202 0.61497 0.0
C420 C 0.4563 0.10087 0.2329 0.0
C421 C 0.43454 0.08303 0.26247 0.0
C422 C 0.48775 0.10514 0.232 0.0
C423 C 0.55108 0.11293 0.29744 0.0
H424 H 0.59639 0.11357 0.20448 0.0
C425 C 0.689 0.15399 0.29813 0.0
C426 C 0.70774 0.17207 0.26655 0.0
C427 C 0.65488 0.13898 0.29742 0.0
C428 C 0.58427 0.1139 0.23068 0.0
H429 H 0.42813 0.05469 0.31365 0.0
H430 H 0.48365 0.06248 0.31244 0.0
H431 H 0.53764 0.09263 0.20284 0.0
H432 H 0.70524 0.1888 0.2096 0.0
H433 H 0.64593 0.16343 0.2086 0.0
H434 H 0.59771 0.13546 0.32505 0.0
C435 C 0.47614 0.07294 0.28976 0.0
C436 C 0.55049 0.10162 0.22976 0.0
C437 C 0.44429 0.06814 0.29023 0.0
C438 C 0.69151 0.17474 0.23422 0.0
C439 C 0.65741 0.16001 0.23364 0.0
C440 C 0.58493 0.12552 0.29831 0.0
C441 C 0.49846 0.09218 0.2611 0.0
C442 C 0.53355 0.10138 0.26301 0.0
C443 C 0.63854 0.14186 0.26522 0.0
C444 C 0.60213 0.12663 0.26481 0.0
H445 H 0.44943 0.1128 0.2113 0.0
H446 H 0.50433 0.1203 0.20973 0.0
H447 H 0.53887 0.11359 0.32343 0.0
H448 H 0.7007 0.15102 0.32326 0.0
H449 H 0.64133 0.1248 0.32204 0.0
C450 C 0.66987 0.59213 0.29812 0.0
C451 C 0.69547 0.60127 0.27177 0.0
C452 C 0.64329 0.56008 0.29817 0.0
C453 C 0.59938 0.48635 0.23778 0.0
H454 H 0.57799 0.43783 0.3329 0.0
C455 C 0.52566 0.34556 0.23952 0.0
C456 C 0.50442 0.32973 0.27025 0.0
C457 C 0.54631 0.37948 0.23997 0.0
C458 C 0.58313 0.45106 0.30615 0.0
H459 H 0.71269 0.58451 0.22391 0.0
H460 H 0.66636 0.52923 0.22357 0.0
H461 H 0.61742 0.49624 0.33308 0.0
H462 H 0.48753 0.33719 0.32509 0.0
H463 H 0.52297 0.39637 0.32559 0.0
H464 H 0.56524 0.44148 0.21069 0.0
C465 C 0.66677 0.54654 0.24434 0.0
C466 C 0.60579 0.48458 0.30633 0.0
C467 C 0.69344 0.57819 0.24473 0.0
C468 C 0.50399 0.34864 0.30123 0.0
C469 C 0.5244 0.38259 0.30153 0.0
C470 C 0.5765 0.45296 0.23764 0.0
C471 C 0.6416 0.53694 0.27132 0.0
C472 C 0.61464 0.50243 0.27201 0.0
C473 C 0.54599 0.39851 0.27098 0.0
C474 C 0.56854 0.43465 0.27168 0.0
H475 H 0.67087 0.60938 0.31937 0.0
H476 H 0.62414 0.55333 0.31922 0.0
H477 H 0.60545 0.49958 0.21095 0.0
H478 H 0.52682 0.33163 0.21545 0.0
H479 H 0.56301 0.39065 0.21627 0.0
C480 C 0.9284 0.35626 0.23551 0.0
C481 C 0.95118 0.35546 0.26073 0.0
C482 C 0.92343 0.38304 0.2346 0.0
C483 C 0.93072 0.4506 0.29541 0.0
H484 H 0.90464 0.47521 0.2016 0.0
C485 C 0.89403 0.55227 0.28704 0.0
C486 C 0.86676 0.54522 0.26401 0.0
C487 C 0.90724 0.53136 0.28746 0.0
C488 C 0.91165 0.46851 0.22813 0.0
H489 H 0.9876 0.3829 0.3039 0.0
H490 H 0.97921 0.43039 0.30211 0.0
H491 H 0.92537 0.43721 0.19901 0.0
H492 H 0.83124 0.5094 0.22482 0.0
H493 H 0.85446 0.47348 0.22516 0.0
H494 H 0.9168 0.48204 0.32443 0.0
C495 C 0.96496 0.40993 0.28317 0.0
C496 C 0.92361 0.44669 0.22666 0.0
C497 C 0.97013 0.38296 0.28386 0.0
C498 C 0.85266 0.5162 0.24222 0.0
C499 C 0.866 0.4955 0.24243 0.0
C500 C 0.91893 0.47269 0.29684 0.0
C501 C 0.94102 0.41001 0.25901 0.0
C502 C 0.93261 0.43675 0.26034 0.0
C503 C 0.89372 0.50297 0.26465 0.0
C504 C 0.90853 0.48135 0.26328 0.0
H505 H 0.91332 0.33544 0.21735 0.0
H506 H 0.90451 0.38178 0.21596 0.0
H507 H 0.93707 0.44336 0.322 0.0
H508 H 0.9059 0.57451 0.30387 0.0
H509 H 0.92867 0.53797 0.30478 0.0
C510 C 0.1893 0.58109 0.8191 0.0
C511 C 0.15814 0.56009 0.80376 0.0
C512 C 0.20452 0.61497 0.81352 0.0
C513 C 0.20105 0.67777 0.75201 0.0
H514 H 0.24917 0.73693 0.83519 0.0
C515 C 0.22944 0.81127 0.75574 0.0
C516 C 0.25957 0.83579 0.77029 0.0
C517 C 0.22089 0.77838 0.7572 0.0
C518 C 0.23628 0.7208 0.81144 0.0
H519 H 0.11836 0.55857 0.77114 0.0
H520 H 0.14456 0.61739 0.76179 0.0
H521 H 0.22636 0.67817 0.84352 0.0
H522 H 0.30471 0.84479 0.79705 0.0
H523 H 0.28962 0.78692 0.79974 0.0
H524 H 0.21027 0.72031 0.72029 0.0
C525 C 0.1577 0.60772 0.77739 0.0
C526 C 0.22313 0.68702 0.81621 0.0
C527 C 0.14258 0.5739 0.78283 0.0
C528 C 0.28137 0.82655 0.78548 0.0
C529 C 0.27261 0.79339 0.7873 0.0
C530 C 0.21405 0.71145 0.74732 0.0
C531 C 0.18895 0.6288 0.79255 0.0
C532 C 0.20485 0.66497 0.78677 0.0
C533 C 0.24209 0.76888 0.77346 0.0
C534 C 0.23137 0.7334 0.77717 0.0
H535 H 0.20219 0.57128 0.83495 0.0
H536 H 0.22873 0.63027 0.82521 0.0
H537 H 0.18785 0.66173 0.72832 0.0
H538 H 0.21201 0.81737 0.74374 0.0
H539 H 0.19706 0.76026 0.7467 0.0
C540 C 0.46845 0.90314 0.77246 0.0
C541 C 0.4397 0.88845 0.79442 0.0
C542 C 0.48688 0.88765 0.76725 0.0
C543 C 0.50201 0.8238 0.808 0.0
H544 H 0.54409 0.83207 0.70996 0.0
C545 C 0.58284 0.7649 0.77705 0.0
C546 C 0.61315 0.78625 0.76014 0.0
C547 C 0.5583 0.77344 0.77917 0.0
C548 C 0.53258 0.82958 0.73756 0.0
H549 H 0.40774 0.8457 0.82799 0.0
H550 H 0.43984 0.81852 0.81873 0.0
H551 H 0.50808 0.85475 0.7183 0.0
H552 H 0.64084 0.83268 0.73085 0.0
H553 H 0.59837 0.84726 0.73433 0.0
H554 H 0.52694 0.79886 0.82724 0.0
C555 C 0.44837 0.84229 0.80593 0.0
C556 C 0.512 0.84271 0.74241 0.0
C557 C 0.42995 0.85788 0.81125 0.0
C558 C 0.61786 0.81563 0.74417 0.0
C559 C 0.59336 0.82395 0.74595 0.0
C560 C 0.52257 0.81053 0.80307 0.0
C561 C 0.47705 0.85693 0.78373 0.0
C562 C 0.49694 0.84062 0.77791 0.0
C563 C 0.56344 0.80326 0.76394 0.0
C564 C 0.53862 0.81385 0.76801 0.0
H565 H 0.47704 0.92693 0.75967 0.0
H566 H 0.50918 0.90007 0.75071 0.0
H567 H 0.49107 0.82191 0.83583 0.0
H568 H 0.57845 0.74213 0.78974 0.0
H569 H 0.5354 0.75684 0.79297 0.0
C570 C 0.2179 0.46191 0.78522 0.0
C571 C 0.2085 0.42983 0.77351 0.0
C572 C 0.25113 0.48573 0.78814 0.0
C573 C 0.33225 0.49204 0.80032 0.0
H574 H 0.36733 0.58241 0.77031 0.0
C575 C 0.46726 0.58781 0.82901 0.0
C576 C 0.48435 0.61011 0.79948 0.0
C577 C 0.43321 0.56799 0.82751 0.0
C578 C 0.35797 0.55722 0.7787 0.0
H579 H 0.22697 0.39834 0.75391 0.0
H580 H 0.28416 0.43954 0.7585 0.0
H581 H 0.30893 0.54385 0.76277 0.0
H582 H 0.47837 0.62981 0.74592 0.0
H583 H 0.41928 0.5948 0.74289 0.0
H584 H 0.38109 0.50492 0.81538 0.0
C585 C 0.26608 0.44626 0.76635 0.0
C586 C 0.32438 0.53518 0.77472 0.0
C587 C 0.2331 0.4226 0.76345 0.0
C588 C 0.46622 0.61262 0.76894 0.0
C589 C 0.43217 0.59277 0.76743 0.0
C590 C 0.36568 0.514 0.80437 0.0
C591 C 0.27567 0.47797 0.7795 0.0
C592 C 0.31113 0.50216 0.78508 0.0
C593 C 0.41519 0.56981 0.79641 0.0
C594 C 0.37914 0.54689 0.79341 0.0
H595 H 0.19966 0.46836 0.79328 0.0
H596 H 0.25759 0.50989 0.79842 0.0
H597 H 0.32294 0.46697 0.8092 0.0
H598 H 0.48024 0.58491 0.85286 0.0
H599 H 0.42103 0.55099 0.85069 0.0
C600 C 0.27369 0.13581 0.25477 0.0
C601 C 0.27363 0.11393 0.28206 0.0
C602 C 0.25051 0.14583 0.2561 0.0
C603 C 0.19815 0.15832 0.32295 0.0
H604 H 0.16299 0.17318 0.22957 0.0
C605 C 0.11122 0.21235 0.32228 0.0
C606 C 0.11646 0.23544 0.29369 0.0
C607 C 0.12809 0.19497 0.32164 0.0
C608 C 0.17282 0.16946 0.2559 0.0
H609 H 0.24848 0.08453 0.33154 0.0
H610 H 0.20761 0.10239 0.33415 0.0
H611 H 0.19422 0.14482 0.22659 0.0
H612 H 0.14389 0.25857 0.24223 0.0
H613 H 0.17373 0.22863 0.24139 0.0
H614 H 0.17722 0.18355 0.35215 0.0
C615 C 0.22587 0.11178 0.31174 0.0
C616 C 0.19059 0.15305 0.25422 0.0
C617 C 0.24905 0.10137 0.31012 0.0
C618 C 0.13942 0.24114 0.26481 0.0
C619 C 0.15622 0.22366 0.26408 0.0
C620 C 0.18033 0.17477 0.32464 0.0
C621 C 0.22662 0.13442 0.28491 0.0
C622 C 0.20404 0.14785 0.28759 0.0
C623 C 0.15057 0.20016 0.29232 0.0
C624 C 0.16797 0.18108 0.29101 0.0
H625 H 0.29216 0.14578 0.23259 0.0
H626 H 0.2521 0.16354 0.23527 0.0
H627 H 0.20849 0.15506 0.34912 0.0
H628 H 0.09398 0.20764 0.34522 0.0
H629 H 0.12302 0.17699 0.34373 0.0
C630 C 0.8852 0.79899 0.2987 0.0
C631 C 0.8737 0.77975 0.26542 0.0
C632 C 0.9185 0.82196 0.30263 0.0
C633 C 0.99653 0.86693 0.24874 0.0
H634 H 0.03605 0.85839 0.34211 0.0
C635 C 0.13457 0.91265 0.25938 0.0
C636 C 0.15072 0.92792 0.29358 0.0
C637 C 0.10051 0.89722 0.25689 0.0
C638 C 1.02544 0.8615 0.31608 0.0
H639 H 0.88734 0.77097 0.2092 0.0
H640 H 0.94493 0.81115 0.2157 0.0
H641 H 0.97674 0.82966 0.33594 0.0
H642 H 0.14357 0.93812 0.35233 0.0
H643 H 0.08427 0.91158 0.34785 0.0
H644 H 0.04517 0.89836 0.22861 0.0
C645 C 0.92857 0.80859 0.23889 0.0
C646 C 0.9914 0.84509 0.31261 0.0
C647 C 0.89554 0.78545 0.2352 0.0
C648 C 0.13193 0.9269 0.32541 0.0
C649 C 0.09789 0.91142 0.32295 0.0
C650 C 0.03055 0.8834 0.25225 0.0
C651 C 0.94067 0.82638 0.27309 0.0
C652 C 0.97655 0.84717 0.27864 0.0
C653 C 0.08173 0.89659 0.28856 0.0
C654 C 0.04547 0.88046 0.28571 0.0
H655 H 0.86891 0.79492 0.32255 0.0
H656 H 0.92706 0.83555 0.32919 0.0
H657 H 0.98585 0.86934 0.22237 0.0
H658 H 0.14829 0.91321 0.23423 0.0
H659 H 0.08888 0.88563 0.23012 0.0
C660 C 0.943 0.15704 0.31551 0.0
C661 C 0.92891 0.16696 0.28683 0.0
C662 C 0.93436 0.12399 0.31875 0.0
C663 C 0.89752 0.04602 0.26432 0.0
H664 H 0.86678 1.0039 0.36278 0.0
C665 C 0.81284 0.90714 0.27632 0.0
C666 C 0.81644 0.89027 0.30739 0.0
C667 C 0.83055 0.94126 0.27475 0.0
C668 C 0.87577 1.01529 0.33517 0.0
H669 H 0.89606 0.15039 0.23805 0.0
H670 H 0.88157 0.09347 0.24332 0.0
H671 H 0.89256 0.06335 0.35808 0.0
H672 H 0.84164 0.89646 0.36137 0.0
H673 H 0.87302 0.95606 0.35828 0.0
H674 H 0.8805 0.99821 0.24116 0.0
C675 C 0.89905 0.11088 0.26348 0.0
C676 C 0.89059 0.0494 0.33253 0.0
C677 C 0.90721 0.14355 0.26064 0.0
C678 C 0.8384 0.90856 0.33684 0.0
C679 C 0.85618 0.9428 0.33527 0.0
C680 C 0.88291 1.01204 0.26697 0.0
C681 C 0.91209 0.10053 0.29284 0.0
C682 C 0.90088 0.06506 0.29688 0.0
C683 C 0.85254 0.95961 0.30413 0.0
C684 C 0.87105 0.99609 0.30224 0.0
H685 H 0.95974 0.17455 0.33614 0.0
H686 H 0.94492 0.11674 0.34158 0.0
H687 H 0.90567 0.05739 0.23653 0.0
H688 H 0.79656 0.89397 0.25282 0.0
H689 H 0.82666 0.95328 0.2506 0.0
C690 C 0.20034 0.19348 0.73487 0.0
C691 C 0.18532 0.19988 0.76594 0.0
C692 C 0.21555 0.17477 0.7397 0.0
C693 C 0.22116 0.1161 0.80638 0.0
H694 H 0.29667 0.1357 0.7439 0.0
C695 C 0.28803 0.04151 0.817 0.0
C696 C 0.28782 0.02717 0.78163 0.0
C697 C 0.28117 0.06722 0.81868 0.0
C698 C 0.27574 0.13011 0.76172 0.0
H699 H 0.1741 0.19065 0.82652 0.0
H700 H 0.20183 0.15937 0.83527 0.0
H701 H 0.27231 0.17064 0.74016 0.0
H702 H 0.2826 0.02954 0.72029 0.0
H703 H 0.27213 0.07521 0.72302 0.0
H704 H 0.22493 0.07557 0.82794 0.0
C705 C 0.20136 0.16833 0.8069 0.0
C706 C 0.26149 0.14989 0.75932 0.0
C707 C 0.18575 0.18671 0.80196 0.0
C708 C 0.28313 0.04042 0.74788 0.0
C709 C 0.27711 0.06651 0.74945 0.0
C710 C 0.23576 0.09662 0.80919 0.0
C711 C 0.21667 0.16224 0.77587 0.0
C712 C 0.23348 0.14272 0.7809 0.0
C713 C 0.27488 0.0794 0.78491 0.0
C714 C 0.26275 0.10301 0.78627 0.0
H715 H 0.20107 0.2035 0.70679 0.0
H716 H 0.22637 0.1701 0.71485 0.0
H717 H 0.19945 0.10944 0.82315 0.0
H718 H 0.2912 0.03142 0.84341 0.0
H719 H 0.27969 0.07682 0.84637 0.0
C720 C 0.0281 0.84355 0.74048 0.0
C721 C 0.0495 0.86029 0.77094 0.0
C722 C 0.99435 0.82826 0.74551 0.0
C723 C 0.93018 0.82527 0.80982 0.0
H724 H 0.87557 0.7462 0.75186 0.0
C725 C 0.78911 0.75897 0.81575 0.0
C726 C 0.77673 0.75942 0.77936 0.0
C727 C 0.82122 0.76512 0.81961 0.0
C728 C 0.89058 0.76806 0.76852 0.0
H729 H 0.05175 0.87468 0.83051 0.0
H730 H 0.99291 0.84682 0.83972 0.0
H731 H 0.93479 0.77061 0.74956 0.0
H732 H 0.78668 0.76398 0.71848 0.0
H733 H 0.84208 0.7732 0.725 0.0
H734 H 0.88562 0.82246 0.82863 0.0
C735 C 1.00227 0.84596 0.81167 0.0
C736 C 0.9245 0.78233 0.76688 0.0
C737 C 0.03611 0.86167 0.80649 0.0
C738 C 0.79578 0.76347 0.7468 0.0
C739 C 0.8274 0.76869 0.75055 0.0
C740 C 0.89619 0.81066 0.81192 0.0
C741 C 0.98092 0.82877 0.78132 0.0
C742 C 0.94481 0.81171 0.78654 0.0
C743 C 0.84082 0.77077 0.78701 0.0
C744 C 0.87615 0.78244 0.79046 0.0
H745 H 0.03729 0.84143 0.71283 0.0
H746 H 0.97881 0.81599 0.72115 0.0
H747 H 0.94489 0.84799 0.82509 0.0
H748 H 0.77483 0.75608 0.84123 0.0
H749 H 0.8311 0.76659 0.84801 0.0
C750 C 1.00307 0.25312 0.74916 0.0
C751 C 1.01543 0.2712 0.78307 0.0
C752 C 0.97712 0.22114 0.75014 0.0
C753 C 0.94015 0.15016 0.81435 0.0
H754 H 0.88097 0.11143 0.72843 0.0
C755 C 0.8456 1.01051 0.79751 0.0
C756 C 0.84542 0.99725 0.7612 0.0
C757 C 0.864 0.04429 0.80403 0.0
C758 C 0.89737 0.12189 0.75261 0.0
H759 H 1.00923 0.27072 0.84455 0.0
H760 H 0.96313 0.21442 0.84643 0.0
H761 H 0.9137 0.17067 0.73375 0.0
H762 H 0.86619 1.00934 0.70404 0.0
H763 H 0.89744 0.06804 0.71522 0.0
H764 H 0.92358 0.10099 0.83296 0.0
C765 C 0.97385 0.22503 0.81901 0.0
C766 C 0.91615 0.15586 0.75571 0.0
C767 C 0.99991 0.25738 0.81795 0.0
C768 C 0.865 0.01859 0.73207 0.0
C769 C 0.88299 0.05229 0.73846 0.0
C770 C 0.92097 0.11606 0.81147 0.0
C771 C 0.96277 0.20621 0.78515 0.0
C772 C 0.9386 0.17048 0.78591 0.0
C773 C 0.88229 0.06557 0.77429 0.0
C774 C 0.90014 0.1016 0.77992 0.0
H775 H 1.01469 0.26316 0.72187 0.0
H776 H 0.96973 0.20751 0.72352 0.0
H777 H 0.95734 0.16046 0.83781 0.0
H778 H 0.83058 0.99499 0.82055 0.0
H779 H 0.863 0.05387 0.83193 0.0
loop_
_geom_bond_atom_site_label_1
_geom_bond_atom_site_label_2
_geom_bond_distance
_geom_bond_site_symmetry_2
_ccdc_geom_bond_type
Tb0 C2 2.809 . S
Tb0 O20 2.484 . S
Tb0 O21 2.440 . S
Tb0 O22 2.658 . S
Tb0 O23 2.409 . S
Tb0 O24 2.378 . S
Tb0 O28 2.325 . S
Tb0 O31 2.341 . S
Tb1 C11 2.809 . S
Tb1 O22 2.325 . S
Tb1 O25 2.341 . S
Tb1 O26 2.484 . S
Tb1 O27 2.440 . S
Tb1 O28 2.658 . S
Tb1 O29 2.409 . S
Tb1 O30 2.378 . S
C2 Tb0 2.809 . S
C2 C3 1.514 1_545 S
C2 O20 1.248 . S
C2 O21 1.266 . S
C3 C2 1.514 1_565 S
C3 C4 1.359 . S
C3 C8 1.348 . S
C4 C3 1.359 . S
C4 C5 1.380 . S
C4 H32 0.929 . S
C5 C4 1.380 . S
C5 C6 1.347 . S
C5 H33 0.931 . S
C6 C5 1.347 . S
C6 C7 1.369 . S
C7 C6 1.369 . S
C7 C8 1.408 . S
C7 H34 0.930 . S
C8 C3 1.348 . S
C8 C7 1.408 . S
C8 H35 0.930 . S
C9 O22 1.281 . S
C9 O23 1.254 . S
C10 O24 1.236 . S
C10 O25 1.266 . S
C11 Tb1 2.809 . S
C11 C12 1.514 . S
C11 O26 1.248 . S
C11 O27 1.266 . S
C12 C11 1.514 . S
C12 C13 1.359 . S
C12 C17 1.348 . S
C13 C12 1.359 . S
C13 C14 1.380 . S
C13 H36 0.929 . S
C14 C13 1.380 . S
C14 C15 1.347 . S
C14 H37 0.931 . S
C15 C14 1.347 . S
C15 C16 1.369 . S
C16 C15 1.369 . S
C16 C17 1.408 . S
C16 H38 0.930 . S
C17 C12 1.348 . S
C17 C16 1.408 . S
C17 H39 0.930 . S
C18 O28 1.281 . S
C18 O29 1.254 . S
C19 O30 1.236 . S
C19 O31 1.266 . S
O20 Tb0 2.484 . S
O20 C2 1.248 . S
O21 Tb0 2.440 . S
O21 C2 1.266 . S
O22 Tb0 2.658 . S
O22 Tb1 2.325 . S
O22 C9 1.281 . S
O23 Tb0 2.409 . S
O23 C9 1.254 . S
O24 Tb0 2.378 . S
O24 C10 1.236 . S
O25 Tb1 2.341 . S
O25 C10 1.266 . S
O26 Tb1 2.484 . S
O26 C11 1.248 . S
O27 Tb1 2.440 . S
O27 C11 1.266 . S
O28 Tb0 2.325 . S
O28 Tb1 2.658 . S
O28 C18 1.281 . S
O29 Tb1 2.409 . S
O29 C18 1.254 . S
O30 Tb1 2.378 . S
O30 C19 1.236 . S
O31 Tb0 2.341 . S
O31 C19 1.266 . S
H32 C4 0.929 . S
H33 C5 0.931 . S
H34 C7 0.930 . S
H35 C8 0.930 . S
H36 C13 0.929 . S
H37 C14 0.931 . S
H38 C16 0.930 . S
H39 C17 0.930 . S
Tb40 C42 2.809 . S
Tb40 O60 2.484 . S
Tb40 O61 2.440 . S
Tb40 O62 2.658 . S
Tb40 O63 2.409 . S
Tb40 O64 2.378 . S
Tb40 O68 2.325 . S
Tb40 O71 2.341 . S
Tb41 C51 2.809 . S
Tb41 O62 2.325 . S
Tb41 O65 2.341 . S
Tb41 O66 2.484 . S
Tb41 O67 2.440 . S
Tb41 O68 2.658 . S
Tb41 O69 2.409 . S
Tb41 O70 2.378 . S
C42 Tb40 2.809 . S
C42 C43 1.514 . S
C42 O60 1.248 . S
C42 O61 1.266 . S
C43 C42 1.514 . S
C43 C44 1.359 . S
C43 C48 1.348 . S
C44 C43 1.359 . S
C44 C45 1.380 . S
C44 H72 0.929 . S
C45 C44 1.380 . S
C45 C46 1.347 . S
C45 H73 0.931 . S
C46 C45 1.347 . S
C46 C47 1.369 . S
C47 C46 1.369 . S
C47 C48 1.408 . S
C47 H74 0.930 . S
C48 C43 1.348 . S
C48 C47 1.408 . S
C48 H75 0.930 . S
C49 O62 1.281 . S
C49 O63 1.254 . S
C50 O64 1.236 . S
C50 O65 1.266 . S
C51 Tb41 2.809 . S
C51 C52 1.514 . S
C51 O66 1.248 . S
C51 O67 1.266 . S
C52 C51 1.514 . S
C52 C53 1.359 . S
C52 C57 1.348 . S
C53 C52 1.359 . S
C53 C54 1.380 . S
C53 H76 0.929 . S
C54 C53 1.380 . S
C54 C55 1.347 . S
C54 H77 0.931 . S
C55 C54 1.347 . S
C55 C56 1.369 . S
C56 C55 1.369 . S
C56 C57 1.408 . S
C56 H78 0.930 . S
C57 C52 1.348 . S
C57 C56 1.408 . S
C57 H79 0.930 . S
C58 O68 1.281 . S
C58 O69 1.254 . S
C59 O70 1.236 . S
C59 O71 1.266 . S
O60 Tb40 2.484 . S
O60 C42 1.248 . S
O61 Tb40 2.440 . S
O61 C42 1.266 . S
O62 Tb40 2.658 . S
O62 Tb41 2.325 . S
O62 C49 1.281 . S
O63 Tb40 2.409 . S
O63 C49 1.254 . S
O64 Tb40 2.378 . S
O64 C50 1.236 . S
O65 Tb41 2.341 . S
O65 C50 1.266 . S
O66 Tb41 2.484 . S
O66 C51 1.248 . S
O67 Tb41 2.440 . S
O67 C51 1.266 . S
O68 Tb40 2.325 . S
O68 Tb41 2.658 . S
O68 C58 1.281 . S
O69 Tb41 2.409 . S
O69 C58 1.254 . S
O70 Tb41 2.378 . S
O70 C59 1.236 . S
O71 Tb40 2.341 . S
O71 C59 1.266 . S
H72 C44 0.929 . S
H73 C45 0.931 . S
H74 C47 0.930 . S
H75 C48 0.930 . S
H76 C53 0.929 . S
H77 C54 0.931 . S
H78 C56 0.930 . S
H79 C57 0.930 . S
Tb80 C82 2.809 . S
Tb80 O100 2.484 . S
Tb80 O101 2.440 . S
Tb80 O102 2.658 . S
Tb80 O103 2.409 . S
Tb80 O104 2.378 . S
Tb80 O108 2.325 . S
Tb80 O111 2.341 . S
Tb81 C91 2.809 . S
Tb81 O102 2.325 . S
Tb81 O105 2.341 . S
Tb81 O106 2.484 . S
Tb81 O107 2.440 . S
Tb81 O108 2.658 . S
Tb81 O109 2.409 . S
Tb81 O110 2.378 . S
C82 Tb80 2.809 . S
C82 C83 1.514 1_655 S
C82 O100 1.248 . S
C82 O101 1.266 . S
C83 C82 1.514 1_455 S
C83 C84 1.359 . S
C83 C88 1.348 . S
C84 C83 1.359 . S
C84 C85 1.380 . S
C84 H112 0.929 . S
C85 C84 1.380 . S
C85 C86 1.347 . S
C85 H113 0.931 . S
C86 C85 1.347 . S
C86 C87 1.369 . S
C87 C86 1.369 . S
C87 C88 1.408 . S
C87 H114 0.930 . S
C88 C83 1.348 . S
C88 C87 1.408 . S
C88 H115 0.930 . S
C89 O102 1.281 . S
C89 O103 1.254 . S
C90 O104 1.236 . S
C90 O105 1.266 . S
C91 Tb81 2.809 . S
C91 C92 1.514 . S
C91 O106 1.248 . S
C91 O107 1.266 . S
C92 C91 1.514 . S
C92 C93 1.359 . S
C92 C97 1.348 . S
C93 C92 1.359 . S
C93 C94 1.380 . S
C93 H116 0.929 . S
C94 C93 1.380 . S
C94 C95 1.347 . S
C94 H117 0.931 . S
C95 C94 1.347 . S
C95 C96 1.369 . S
C96 C95 1.369 . S
C96 C97 1.408 . S
C96 H118 0.930 . S
C97 C92 1.348 . S
C97 C96 1.408 . S
C97 H119 0.930 . S
C98 O108 1.281 . S
C98 O109 1.254 . S
C99 O110 1.236 . S
C99 O111 1.266 . S
O100 Tb80 2.484 . S
O100 C82 1.248 . S
O101 Tb80 2.440 . S
O101 C82 1.266 . S
O102 Tb80 2.658 . S
O102 Tb81 2.325 . S
O102 C89 1.281 . S
O103 Tb80 2.409 . S
O103 C89 1.254 . S
O104 Tb80 2.378 . S
O104 C90 1.236 . S
O105 Tb81 2.341 . S
O105 C90 1.266 . S
O106 Tb81 2.484 . S
O106 C91 1.248 . S
O107 Tb81 2.440 . S
O107 C91 1.266 . S
O108 Tb80 2.325 . S
O108 Tb81 2.658 . S
O108 C98 1.281 . S
O109 Tb81 2.409 . S
O109 C98 1.254 . S
O110 Tb81 2.378 . S
O110 C99 1.236 . S
O111 Tb80 2.341 . S
O111 C99 1.266 . S
H112 C84 0.929 . S
H113 C85 0.931 . S
H114 C87 0.930 . S
H115 C88 0.930 . S
H116 C93 0.929 . S
H117 C94 0.931 . S
H118 C96 0.930 . S
H119 C97 0.930 . S
Tb120 C122 2.809 . S
Tb120 O140 2.484 . S
Tb120 O141 2.440 . S
Tb120 O142 2.658 . S
Tb120 O143 2.409 . S
Tb120 O144 2.378 . S
Tb120 O148 2.325 . S
Tb120 O151 2.341 . S
Tb121 C131 2.809 . S
Tb121 O142 2.325 . S
Tb121 O145 2.341 . S
Tb121 O146 2.484 . S
Tb121 O147 2.440 . S
Tb121 O148 2.658 . S
Tb121 O149 2.409 . S
Tb121 O150 2.378 . S
C122 Tb120 2.809 . S
C122 C123 1.514 . S
C122 O140 1.248 . S
C122 O141 1.266 . S
C123 C122 1.514 . S
C123 C124 1.359 . S
C123 C128 1.348 . S
C124 C123 1.359 . S
C124 C125 1.380 . S
C124 H152 0.929 . S
C125 C124 1.380 . S
C125 C126 1.347 . S
C125 H153 0.931 . S
C126 C125 1.347 . S
C126 C127 1.369 . S
C127 C126 1.369 . S
C127 C128 1.408 . S
C127 H154 0.930 . S
C128 C123 1.348 . S
C128 C127 1.408 . S
C128 H155 0.930 . S
C129 O142 1.281 . S
C129 O143 1.254 . S
C130 O144 1.236 . S
C130 O145 1.266 . S
C131 Tb121 2.809 . S
C131 C132 1.514 . S
C131 O146 1.248 . S
C131 O147 1.266 . S
C132 C131 1.514 . S
C132 C133 1.359 . S
C132 C137 1.348 . S
C133 C132 1.359 . S
C133 C134 1.380 . S
C133 H156 0.929 . S
C134 C133 1.380 . S
C134 C135 1.347 . S
C134 H157 0.931 . S
C135 C134 1.347 . S
C135 C136 1.369 . S
C136 C135 1.369 . S
C136 C137 1.408 . S
C136 H158 0.930 . S
C137 C132 1.348 . S
C137 C136 1.408 . S
C137 H159 0.930 . S
C138 O148 1.281 . S
C138 O149 1.254 . S
C139 O150 1.236 . S
C139 O151 1.266 . S
O140 Tb120 2.484 . S
O140 C122 1.248 . S
O141 Tb120 2.440 . S
O141 C122 1.266 . S
O142 Tb120 2.658 . S
O142 Tb121 2.325 . S
O142 C129 1.281 . S
O143 Tb120 2.409 . S
O143 C129 1.254 . S
O144 Tb120 2.378 . S
O144 C130 1.236 . S
O145 Tb121 2.341 . S
O145 C130 1.266 . S
O146 Tb121 2.484 . S
O146 C131 1.248 . S
O147 Tb121 2.440 . S
O147 C131 1.266 . S
O148 Tb120 2.325 . S
O148 Tb121 2.658 . S
O148 C138 1.281 . S
O149 Tb121 2.409 . S
O149 C138 1.254 . S
O150 Tb121 2.378 . S
O150 C139 1.236 . S
O151 Tb120 2.341 . S
O151 C139 1.266 . S
H152 C124 0.929 . S
H153 C125 0.931 . S
H154 C127 0.930 . S
H155 C128 0.930 . S
H156 C133 0.929 . S
H157 C134 0.931 . S
H158 C136 0.930 . S
H159 C137 0.930 . S
Tb160 C162 2.809 . S
Tb160 O180 2.484 . S
Tb160 O181 2.440 . S
Tb160 O182 2.658 . S
Tb160 O183 2.409 . S
Tb160 O184 2.378 . S
Tb160 O188 2.325 . S
Tb160 O191 2.341 . S
Tb161 C171 2.809 . S
Tb161 O182 2.325 . S
Tb161 O185 2.341 . S
Tb161 O186 2.484 . S
Tb161 O187 2.440 . S
Tb161 O188 2.658 . S
Tb161 O189 2.409 . S
Tb161 O190 2.378 . S
C162 Tb160 2.809 . S
C162 C163 1.514 . S
C162 O180 1.248 . S
C162 O181 1.266 . S
C163 C162 1.514 . S
C163 C164 1.359 . S
C163 C168 1.348 . S
C164 C163 1.359 . S
C164 C165 1.380 . S
C164 H192 0.929 . S
C165 C164 1.380 . S
C165 C166 1.347 . S
C165 H193 0.931 . S
C166 C165 1.347 . S
C166 C167 1.369 . S
C167 C166 1.369 . S
C167 C168 1.408 . S
C167 H194 0.930 . S
C168 C163 1.348 . S
C168 C167 1.408 . S
C168 H195 0.930 . S
C169 O182 1.281 . S
C169 O183 1.254 . S
C170 O184 1.236 . S
C170 O185 1.266 . S
C171 Tb161 2.809 . S
C171 C172 1.514 . S
C171 O186 1.248 . S
C171 O187 1.266 . S
C172 C171 1.514 . S
C172 C173 1.359 . S
C172 C177 1.348 . S
C173 C172 1.359 . S
C173 C174 1.380 . S
C173 H196 0.929 . S
C174 C173 1.380 . S
C174 C175 1.347 . S
C174 H197 0.931 . S
C175 C174 1.347 . S
C175 C176 1.369 . S
C176 C175 1.369 . S
C176 C177 1.408 . S
C176 H198 0.930 . S
C177 C172 1.348 . S
C177 C176 1.408 . S
C177 H199 0.930 . S
C178 O188 1.281 . S
C178 O189 1.254 . S
C179 O190 1.236 . S
C179 O191 1.266 . S
O180 Tb160 2.484 . S
O180 C162 1.248 . S
O181 Tb160 2.440 . S
O181 C162 1.266 . S
O182 Tb160 2.658 . S
O182 Tb161 2.325 . S
O182 C169 1.281 . S
O183 Tb160 2.409 . S
O183 C169 1.254 . S
O184 Tb160 2.378 . S
O184 C170 1.236 . S
O185 Tb161 2.341 . S
O185 C170 1.266 . S
O186 Tb161 2.484 . S
O186 C171 1.248 . S
O187 Tb161 2.440 . S
O187 C171 1.266 . S
O188 Tb160 2.325 . S
O188 Tb161 2.658 . S
O188 C178 1.281 . S
O189 Tb161 2.409 . S
O189 C178 1.254 . S
O190 Tb161 2.378 . S
O190 C179 1.236 . S
O191 Tb160 2.341 . S
O191 C179 1.266 . S
H192 C164 0.929 . S
H193 C165 0.931 . S
H194 C167 0.930 . S
H195 C168 0.930 . S
H196 C173 0.929 . S
H197 C174 0.931 . S
H198 C176 0.930 . S
H199 C177 0.930 . S
Tb200 C202 2.809 . S
Tb200 O220 2.484 . S
Tb200 O221 2.440 . S
Tb200 O222 2.658 . S
Tb200 O223 2.409 . S
Tb200 O224 2.378 . S
Tb200 O228 2.325 . S
Tb200 O231 2.341 . S
Tb201 C211 2.809 . S
Tb201 O222 2.325 . S
Tb201 O225 2.341 . S
Tb201 O226 2.484 . S
Tb201 O227 2.440 . S
Tb201 O228 2.658 . S
Tb201 O229 2.409 . S
Tb201 O230 2.378 . S
C202 Tb200 2.809 . S
C202 C203 1.514 . S
C202 O220 1.248 . S
C202 O221 1.266 . S
C203 C202 1.514 . S
C203 C204 1.359 . S
C203 C208 1.348 . S
C204 C203 1.359 . S
C204 C205 1.380 . S
C204 H232 0.929 . S
C205 C204 1.380 . S
C205 C206 1.347 . S
C205 H233 0.931 . S
C206 C205 1.347 . S
C206 C207 1.369 . S
C207 C206 1.369 . S
C207 C208 1.408 . S
C207 H234 0.930 . S
C208 C203 1.348 . S
C208 C207 1.408 . S
C208 H235 0.930 . S
C209 O222 1.281 . S
C209 O223 1.254 . S
C210 O224 1.236 . S
C210 O225 1.266 . S
C211 Tb201 2.809 . S
C211 C212 1.514 . S
C211 O226 1.248 . S
C211 O227 1.266 . S
C212 C211 1.514 . S
C212 C213 1.359 . S
C212 C217 1.348 . S
C213 C212 1.359 . S
C213 C214 1.380 . S
C213 H236 0.929 . S
C214 C213 1.380 . S
C214 C215 1.347 . S
C214 H237 0.931 . S
C215 C214 1.347 . S
C215 C216 1.369 . S
C216 C215 1.369 . S
C216 C217 1.408 . S
C216 H238 0.930 . S
C217 C212 1.348 . S
C217 C216 1.408 . S
C217 H239 0.930 . S
C218 O228 1.281 . S
C218 O229 1.254 . S
C219 O230 1.236 . S
C219 O231 1.266 . S
O220 Tb200 2.484 . S
O220 C202 1.248 . S
O221 Tb200 2.440 . S
O221 C202 1.266 . S
O222 Tb200 2.658 . S
O222 Tb201 2.325 . S
O222 C209 1.281 . S
O223 Tb200 2.409 . S
O223 C209 1.254 . S
O224 Tb200 2.378 . S
O224 C210 1.236 . S
O225 Tb201 2.341 . S
O225 C210 1.266 . S
O226 Tb201 2.484 . S
O226 C211 1.248 . S
O227 Tb201 2.440 . S
O227 C211 1.266 . S
O228 Tb200 2.325 . S
O228 Tb201 2.658 . S
O228 C218 1.281 . S
O229 Tb201 2.409 . S
O229 C218 1.254 . S
O230 Tb201 2.378 . S
O230 C219 1.236 . S
O231 Tb200 2.341 . S
O231 C219 1.266 . S
H232 C204 0.929 . S
H233 C205 0.931 . S
H234 C207 0.930 . S
H235 C208 0.930 . S
H236 C213 0.929 . S
H237 C214 0.931 . S
H238 C216 0.930 . S
H239 C217 0.930 . S
C240 C241 1.349 . S
C240 C242 1.327 . S
C240 H265 0.950 . S
C241 C240 1.349 . S
C241 C257 1.349 . S
C242 C240 1.327 . S
C242 C261 1.429 . S
C242 H266 0.950 . S
C243 C260 1.574 . S
C243 C262 1.368 1_545 S
C243 H267 0.949 . S
H244 C248 0.949 . S
C245 C246 1.349 . S
C245 C247 1.327 . S
C245 H268 0.950 . S
C246 C245 1.349 . S
C246 C258 1.349 . S
C247 C245 1.327 . S
C247 C263 1.429 . S
C247 H269 0.950 . S
C248 H244 0.949 . S
C248 C256 1.574 . S
C248 C264 1.368 1_565 S
H249 C257 0.950 . S
H250 C255 0.950 . S
H251 C256 0.949 . S
H252 C258 0.950 . S
H253 C259 0.950 . S
H254 C260 0.949 . S
C255 H250 0.950 . S
C255 C257 1.327 . S
C255 C261 1.429 . S
C256 C248 1.574 . S
C256 H251 0.949 . S
C256 C262 1.368 1_554 S
C257 C241 1.349 . S
C257 H249 0.950 . S
C257 C255 1.327 . S
C258 C246 1.349 . S
C258 H252 0.950 . S
C258 C259 1.327 . S
C259 H253 0.950 . S
C259 C258 1.327 . S
C259 C263 1.429 . S
C260 C243 1.574 . S
C260 H254 0.949 . S
C260 C264 1.368 1_556 S
C261 C242 1.429 . S
C261 C255 1.429 . S
C261 C262 1.523 . S
C262 C243 1.368 1_565 S
C262 C256 1.368 1_556 S
C262 C261 1.523 . S
C263 C247 1.429 . S
C263 C259 1.429 . S
C263 C264 1.523 . S
C264 C248 1.368 1_545 S
C264 C260 1.368 1_554 S
C264 C263 1.523 . S
H265 C240 0.950 . S
H266 C242 0.950 . S
H267 C243 0.949 . S
H268 C245 0.950 . S
H269 C247 0.950 . S
C270 C271 1.349 . S
C270 C272 1.327 . S
C270 H295 0.950 . S
C271 C270 1.349 . S
C271 C287 1.349 . S
C272 C270 1.327 . S
C272 C291 1.429 . S
C272 H296 0.950 . S
C273 C290 1.574 . S
C273 C292 1.368 . S
C273 H297 0.949 . S
H274 C278 0.949 . S
C275 C276 1.349 . S
C275 C277 1.327 . S
C275 H298 0.950 . S
C276 C275 1.349 . S
C276 C288 1.349 . S
C277 C275 1.327 . S
C277 C293 1.429 . S
C277 H299 0.950 . S
C278 H274 0.949 . S
C278 C286 1.574 . S
C278 C294 1.368 . S
H279 C287 0.950 . S
H280 C285 0.950 . S
H281 C286 0.949 . S
H282 C288 0.950 . S
H283 C289 0.950 . S
H284 C290 0.949 . S
C285 H280 0.950 . S
C285 C287 1.327 . S
C285 C291 1.429 . S
C286 C278 1.574 . S
C286 H281 0.949 . S
C286 C292 1.368 . S
C287 C271 1.349 . S
C287 H279 0.950 . S
C287 C285 1.327 . S
C288 C276 1.349 . S
C288 H282 0.950 . S
C288 C289 1.327 . S
C289 H283 0.950 . S
C289 C288 1.327 . S
C289 C293 1.429 . S
C290 C273 1.574 . S
C290 H284 0.949 . S
C290 C294 1.368 . S
C291 C272 1.429 . S
C291 C285 1.429 . S
C291 C292 1.523 . S
C292 C273 1.368 . S
C292 C286 1.368 . S
C292 C291 1.523 . S
C293 C277 1.429 . S
C293 C289 1.429 . S
C293 C294 1.523 . S
C294 C278 1.368 . S
C294 C290 1.368 . S
C294 C293 1.523 . S
H295 C270 0.950 . S
H296 C272 0.950 . S
H297 C273 0.949 . S
H298 C275 0.950 . S
H299 C277 0.950 . S
C300 C301 1.349 . S
C300 C302 1.327 . S
C300 H325 0.950 . S
C301 C300 1.349 . S
C301 C317 1.349 . S
C302 C300 1.327 . S
C302 C321 1.429 . S
C302 H326 0.950 . S
C303 C320 1.589 . S
C303 C322 1.353 1_556 S
C303 H327 0.949 . S
H304 C308 0.949 . S
C305 C306 1.349 . S
C305 C307 1.327 . S
C305 H328 0.950 . S
C306 C305 1.349 . S
C306 C318 1.349 . S
C307 C305 1.327 . S
C307 C323 1.429 . S
C307 H329 0.950 . S
C308 H304 0.949 . S
C308 C316 1.589 . S
C308 C324 1.353 1_554 S
H309 C317 0.950 . S
H310 C315 0.950 . S
H311 C316 0.949 . S
H312 C318 0.950 . S
H313 C319 0.950 . S
H314 C320 0.949 . S
C315 H310 0.950 . S
C315 C317 1.327 . S
C315 C321 1.429 . S
C316 C308 1.589 . S
C316 H311 0.949 . S
C316 C322 1.368 1_455 S
C317 C301 1.349 . S
C317 H309 0.950 . S
C317 C315 1.327 . S
C318 C306 1.349 . S
C318 H312 0.950 . S
C318 C319 1.327 . S
C319 H313 0.950 . S
C319 C318 1.327 . S
C319 C323 1.429 . S
C320 C303 1.589 . S
C320 H314 0.949 . S
C320 C324 1.368 1_655 S
C321 C302 1.429 . S
C321 C315 1.429 . S
C321 C322 1.523 . S
C322 C303 1.353 1_554 S
C322 C316 1.368 1_655 S
C322 C321 1.523 . S
C323 C307 1.429 . S
C323 C319 1.429 . S
C323 C324 1.523 . S
C324 C308 1.353 1_556 S
C324 C320 1.368 1_455 S
C324 C323 1.523 . S
H325 C300 0.950 . S
H326 C302 0.950 . S
H327 C303 0.949 . S
H328 C305 0.950 . S
H329 C307 0.950 . S
C330 C331 1.349 . S
C330 C332 1.327 . S
C330 H355 0.950 . S
C331 C330 1.349 . S
C331 C347 1.349 . S
C332 C330 1.327 . S
C332 C351 1.429 . S
C332 H356 0.950 . S
C333 C350 1.574 . S
C333 C352 1.368 . S
C333 H357 0.949 . S
H334 C338 0.949 . S
C335 C336 1.349 . S
C335 C337 1.327 . S
C335 H358 0.950 . S
C336 C335 1.349 . S
C336 C348 1.349 . S
C337 C335 1.327 . S
C337 C353 1.429 . S
C337 H359 0.950 . S
C338 H334 0.949 . S
C338 C346 1.574 . S
C338 C354 1.368 . S
H339 C347 0.950 . S
H340 C345 0.950 . S
H341 C346 0.949 . S
H342 C348 0.950 . S
H343 C349 0.950 . S
H344 C350 0.949 . S
C345 H340 0.950 . S
C345 C347 1.327 . S
C345 C351 1.429 . S
C346 C338 1.574 . S
C346 H341 0.949 . S
C346 C352 1.368 1_565 S
C347 C331 1.349 . S
C347 H339 0.950 . S
C347 C345 1.327 . S
C348 C336 1.349 . S
C348 H342 0.950 . S
C348 C349 1.327 . S
C349 H343 0.950 . S
C349 C348 1.327 . S
C349 C353 1.429 . S
C350 C333 1.574 . S
C350 H344 0.949 . S
C350 C354 1.368 1_545 S
C351 C332 1.429 . S
C351 C345 1.429 . S
C351 C352 1.523 . S
C352 C333 1.368 . S
C352 C346 1.368 1_545 S
C352 C351 1.523 . S
C353 C337 1.429 . S
C353 C349 1.429 . S
C353 C354 1.523 . S
C354 C338 1.368 . S
C354 C350 1.368 1_565 S
C354 C353 1.523 . S
H355 C330 0.950 . S
H356 C332 0.950 . S
H357 C333 0.949 . S
H358 C335 0.950 . S
H359 C337 0.950 . S
C360 C361 1.349 . S
C360 C362 1.327 . S
C360 H385 0.950 . S
C361 C360 1.349 . S
C361 C377 1.349 . S
C362 C360 1.327 . S
C362 C381 1.429 . S
C362 H386 0.950 . S
C363 C380 1.561 1_556 S
C363 C382 1.380 . S
C363 H387 0.950 . S
H364 C368 0.950 . S
C365 C366 1.349 . S
C365 C367 1.327 . S
C365 H388 0.950 . S
C366 C365 1.349 . S
C366 C378 1.349 . S
C367 C365 1.327 . S
C367 C383 1.429 . S
C367 H389 0.950 . S
C368 H364 0.950 . S
C368 C376 1.561 1_554 S
C368 C384 1.380 . S
H369 C377 0.950 . S
H370 C375 0.950 . S
H371 C376 0.949 . S
H372 C378 0.950 . S
H373 C379 0.950 . S
H374 C380 0.949 . S
C375 H370 0.950 . S
C375 C377 1.327 . S
C375 C381 1.429 . S
C376 C368 1.561 1_556 S
C376 H371 0.949 . S
C376 C382 1.368 . S
C377 C361 1.349 . S
C377 H369 0.950 . S
C377 C375 1.327 . S
C378 C366 1.349 . S
C378 H372 0.950 . S
C378 C379 1.327 . S
C379 H373 0.950 . S
C379 C378 1.327 . S
C379 C383 1.429 . S
C380 C363 1.561 1_554 S
C380 H374 0.949 . S
C380 C384 1.368 . S
C381 C362 1.429 . S
C381 C375 1.429 . S
C381 C382 1.523 . S
C382 C363 1.380 . S
C382 C376 1.368 . S
C382 C381 1.523 . S
C383 C367 1.429 . S
C383 C379 1.429 . S
C383 C384 1.523 . S
C384 C368 1.380 . S
C384 C380 1.368 . S
C384 C383 1.523 . S
H385 C360 0.950 . S
H386 C362 0.950 . S
H387 C363 0.950 . S
H388 C365 0.950 . S
H389 C367 0.950 . S
C390 C391 1.349 . S
C390 C392 1.327 . S
C390 H415 0.950 . S
C391 C390 1.349 . S
C391 C407 1.349 . S
C392 C390 1.327 . S
C392 C411 1.429 . S
C392 H416 0.950 . S
C393 C410 1.574 . S
C393 C412 1.368 1_455 S
C393 H417 0.949 . S
H394 C398 0.944 . S
C395 C396 1.349 . S
C395 C397 1.327 . S
C395 H418 0.950 . S
C396 C395 1.349 . S
C396 C408 1.349 . S
C397 C395 1.327 . S
C397 C413 1.429 . S
C397 H419 0.950 . S
C398 H394 0.944 . S
C398 C406 1.583 . S
C398 C414 1.365 1_655 S
H399 C407 0.950 . S
H400 C405 0.950 . S
H401 C406 0.949 . S
H402 C408 0.950 . S
H403 C409 0.950 . S
H404 C410 0.949 . S
C405 H400 0.950 . S
C405 C407 1.327 . S
C405 C411 1.429 . S
C406 C398 1.583 . S
C406 H401 0.949 . S
C406 C412 1.368 . S
C407 C391 1.349 . S
C407 H399 0.950 . S
C407 C405 1.327 . S
C408 C396 1.349 . S
C408 H402 0.950 . S
C408 C409 1.327 . S
C409 H403 0.950 . S
C409 C408 1.327 . S
C409 C413 1.429 . S
C410 C393 1.574 . S
C410 H404 0.949 . S
C410 C414 1.368 . S
C411 C392 1.429 . S
C411 C405 1.429 . S
C411 C412 1.523 . S
C412 C393 1.368 1_655 S
C412 C406 1.368 . S
C412 C411 1.523 . S
C413 C397 1.429 . S
C413 C409 1.429 . S
C413 C414 1.523 . S
C414 C398 1.365 1_455 S
C414 C410 1.368 . S
C414 C413 1.523 . S
H415 C390 0.950 . S
H416 C392 0.950 . S
H417 C393 0.949 . S
H418 C395 0.950 . S
H419 C397 0.950 . S
C420 C421 1.349 . S
C420 C422 1.327 . S
C420 H445 0.950 . S
C421 C420 1.349 . S
C421 C437 1.349 . S
C422 C420 1.327 . S
C422 C441 1.429 . S
C422 H446 0.950 . S
C423 C440 1.574 . S
C423 C442 1.368 . S
C423 H447 0.949 . S
H424 C428 0.949 . S
C425 C426 1.349 . S
C425 C427 1.327 . S
C425 H448 0.950 . S
C426 C425 1.349 . S
C426 C438 1.349 . S
C427 C425 1.327 . S
C427 C443 1.429 . S
C427 H449 0.950 . S
C428 H424 0.949 . S
C428 C436 1.574 . S
C428 C444 1.368 . S
H429 C437 0.950 . S
H430 C435 0.950 . S
H431 C436 0.949 . S
H432 C438 0.950 . S
H433 C439 0.950 . S
H434 C440 0.949 . S
C435 H430 0.950 . S
C435 C437 1.327 . S
C435 C441 1.429 . S
C436 C428 1.574 . S
C436 H431 0.949 . S
C436 C442 1.368 . S
C437 C421 1.349 . S
C437 H429 0.950 . S
C437 C435 1.327 . S
C438 C426 1.349 . S
C438 H432 0.950 . S
C438 C439 1.327 . S
C439 H433 0.950 . S
C439 C438 1.327 . S
C439 C443 1.429 . S
C440 C423 1.574 . S
C440 H434 0.949 . S
C440 C444 1.368 . S
C441 C422 1.429 . S
C441 C435 1.429 . S
C441 C442 1.523 . S
C442 C423 1.368 . S
C442 C436 1.368 . S
C442 C441 1.523 . S
C443 C427 1.429 . S
C443 C439 1.429 . S
C443 C444 1.523 . S
C444 C428 1.368 . S
C444 C440 1.368 . S
C444 C443 1.523 . S
H445 C420 0.950 . S
H446 C422 0.950 . S
H447 C423 0.949 . S
H448 C425 0.950 . S
H449 C427 0.950 . S
C450 C451 1.349 . S
C450 C452 1.327 . S
C450 H475 0.950 . S
C451 C450 1.349 . S
C451 C467 1.349 . S
C452 C450 1.327 . S
C452 C471 1.429 . S
C452 H476 0.950 . S
C453 C470 1.574 . S
C453 C472 1.368 . S
C453 H477 0.949 . S
H454 C458 0.949 . S
C455 C456 1.349 . S
C455 C457 1.327 . S
C455 H478 0.950 . S
C456 C455 1.349 . S
C456 C468 1.349 . S
C457 C455 1.327 . S
C457 C473 1.429 . S
C457 H479 0.950 . S
C458 H454 0.949 . S
C458 C466 1.574 . S
C458 C474 1.368 . S
H459 C467 0.950 . S
H460 C465 0.950 . S
H461 C466 0.949 . S
H462 C468 0.950 . S
H463 C469 0.950 . S
H464 C470 0.949 . S
C465 H460 0.950 . S
C465 C467 1.327 . S
C465 C471 1.429 . S
C466 C458 1.574 . S
C466 H461 0.949 . S
C466 C472 1.368 . S
C467 C451 1.349 . S
C467 H459 0.950 . S
C467 C465 1.327 . S
C468 C456 1.349 . S
C468 H462 0.950 . S
C468 C469 1.327 . S
C469 H463 0.950 . S
C469 C468 1.327 . S
C469 C473 1.429 . S
C470 C453 1.574 . S
C470 H464 0.949 . S
C470 C474 1.368 . S
C471 C452 1.429 . S
C471 C465 1.429 . S
C471 C472 1.523 . S
C472 C453 1.368 . S
C472 C466 1.368 . S
C472 C471 1.523 . S
C473 C457 1.429 . S
C473 C469 1.429 . S
C473 C474 1.523 . S
C474 C458 1.368 . S
C474 C470 1.368 . S
C474 C473 1.523 . S
H475 C450 0.950 . S
H476 C452 0.950 . S
H477 C453 0.949 . S
H478 C455 0.950 . S
H479 C457 0.950 . S
C480 C481 1.349 . S
C480 C482 1.327 . S
C480 H505 0.950 . S
C481 C480 1.349 . S
C481 C497 1.349 . S
C482 C480 1.327 . S
C482 C501 1.429 . S
C482 H506 0.950 . S
C483 C500 1.574 . S
C483 C502 1.368 . S
C483 H507 0.949 . S
H484 C488 0.949 . S
C485 C486 1.349 . S
C485 C487 1.327 . S
C485 H508 0.950 . S
C486 C485 1.349 . S
C486 C498 1.349 . S
C487 C485 1.327 . S
C487 C503 1.429 . S
C487 H509 0.950 . S
C488 H484 0.949 . S
C488 C496 1.574 . S
C488 C504 1.368 . S
H489 C497 0.950 . S
H490 C495 0.950 . S
H491 C496 0.949 . S
H492 C498 0.950 . S
H493 C499 0.950 . S
H494 C500 0.949 . S
C495 H490 0.950 . S
C495 C497 1.327 . S
C495 C501 1.429 . S
C496 C488 1.574 . S
C496 H491 0.949 . S
C496 C502 1.368 . S
C497 C481 1.349 . S
C497 H489 0.950 . S
C497 C495 1.327 . S
C498 C486 1.349 . S
C498 H492 0.950 . S
C498 C499 1.327 . S
C499 H493 0.950 . S
C499 C498 1.327 . S
C499 C503 1.429 . S
C500 C483 1.574 . S
C500 H494 0.949 . S
C500 C504 1.368 . S
C501 C482 1.429 . S
C501 C495 1.429 . S
C501 C502 1.523 . S
C502 C483 1.368 . S
C502 C496 1.368 . S
C502 C501 1.523 . S
C503 C487 1.429 . S
C503 C499 1.429 . S
C503 C504 1.523 . S
C504 C488 1.368 . S
C504 C500 1.368 . S
C504 C503 1.523 . S
H505 C480 0.950 . S
H506 C482 0.950 . S
H507 C483 0.949 . S
H508 C485 0.950 . S
H509 C487 0.950 . S
C510 C511 1.349 . S
C510 C512 1.327 . S
C510 H535 0.950 . S
C511 C510 1.349 . S
C511 C527 1.349 . S
C512 C510 1.327 . S
C512 C531 1.429 . S
C512 H536 0.950 . S
C513 C530 1.574 . S
C513 C532 1.368 . S
C513 H537 0.949 . S
H514 C518 0.949 . S
C515 C516 1.349 . S
C515 C517 1.327 . S
C515 H538 0.950 . S
C516 C515 1.349 . S
C516 C528 1.349 . S
C517 C515 1.327 . S
C517 C533 1.429 . S
C517 H539 0.950 . S
C518 H514 0.949 . S
C518 C526 1.574 . S
C518 C534 1.368 . S
H519 C527 0.950 . S
H520 C525 0.950 . S
H521 C526 0.949 . S
H522 C528 0.950 . S
H523 C529 0.950 . S
H524 C530 0.949 . S
C525 H520 0.950 . S
C525 C527 1.327 . S
C525 C531 1.429 . S
C526 C518 1.574 . S
C526 H521 0.949 . S
C526 C532 1.368 . S
C527 C511 1.349 . S
C527 H519 0.950 . S
C527 C525 1.327 . S
C528 C516 1.349 . S
C528 H522 0.950 . S
C528 C529 1.327 . S
C529 H523 0.950 . S
C529 C528 1.327 . S
C529 C533 1.429 . S
C530 C513 1.574 . S
C530 H524 0.949 . S
C530 C534 1.368 . S
C531 C512 1.429 . S
C531 C525 1.429 . S
C531 C532 1.523 . S
C532 C513 1.368 . S
C532 C526 1.368 . S
C532 C531 1.523 . S
C533 C517 1.429 . S
C533 C529 1.429 . S
C533 C534 1.523 . S
C534 C518 1.368 . S
C534 C530 1.368 . S
C534 C533 1.523 . S
H535 C510 0.950 . S
H536 C512 0.950 . S
H537 C513 0.949 . S
H538 C515 0.950 . S
H539 C517 0.950 . S
C540 C541 1.349 . S
C540 C542 1.327 . S
C540 H565 0.950 . S
C541 C540 1.349 . S
C541 C557 1.349 . S
C542 C540 1.327 . S
C542 C561 1.429 . S
C542 H566 0.950 . S
C543 C560 1.574 . S
C543 C562 1.368 . S
C543 H567 0.949 . S
H544 C548 0.949 . S
C545 C546 1.349 . S
C545 C547 1.327 . S
C545 H568 0.950 . S
C546 C545 1.349 . S
C546 C558 1.349 . S
C547 C545 1.327 . S
C547 C563 1.429 . S
C547 H569 0.950 . S
C548 H544 0.949 . S
C548 C556 1.574 . S
C548 C564 1.368 . S
H549 C557 0.950 . S
H550 C555 0.950 . S
H551 C556 0.949 . S
H552 C558 0.950 . S
H553 C559 0.950 . S
H554 C560 0.949 . S
C555 H550 0.950 . S
C555 C557 1.327 . S
C555 C561 1.429 . S
C556 C548 1.574 . S
C556 H551 0.949 . S
C556 C562 1.368 . S
C557 C541 1.349 . S
C557 H549 0.950 . S
C557 C555 1.327 . S
C558 C546 1.349 . S
C558 H552 0.950 . S
C558 C559 1.327 . S
C559 H553 0.950 . S
C559 C558 1.327 . S
C559 C563 1.429 . S
C560 C543 1.574 . S
C560 H554 0.949 . S
C560 C564 1.368 . S
C561 C542 1.429 . S
C561 C555 1.429 . S
C561 C562 1.523 . S
C562 C543 1.368 . S
C562 C556 1.368 . S
C562 C561 1.523 . S
C563 C547 1.429 . S
C563 C559 1.429 . S
C563 C564 1.523 . S
C564 C548 1.368 . S
C564 C560 1.368 . S
C564 C563 1.523 . S
H565 C540 0.950 . S
H566 C542 0.950 . S
H567 C543 0.949 . S
H568 C545 0.950 . S
H569 C547 0.950 . S
C570 C571 1.349 . S
C570 C572 1.327 . S
C570 H595 0.950 . S
C571 C570 1.349 . S
C571 C587 1.349 . S
C572 C570 1.327 . S
C572 C591 1.429 . S
C572 H596 0.950 . S
C573 C590 1.574 . S
C573 C592 1.368 . S
C573 H597 0.949 . S
H574 C578 0.949 . S
C575 C576 1.349 . S
C575 C577 1.327 . S
C575 H598 0.950 . S
C576 C575 1.349 . S
C576 C588 1.349 . S
C577 C575 1.327 . S
C577 C593 1.429 . S
C577 H599 0.950 . S
C578 H574 0.949 . S
C578 C586 1.574 . S
C578 C594 1.368 . S
H579 C587 0.950 . S
H580 C585 0.950 . S
H581 C586 0.949 . S
H582 C588 0.950 . S
H583 C589 0.950 . S
H584 C590 0.949 . S
C585 H580 0.950 . S
C585 C587 1.327 . S
C585 C591 1.429 . S
C586 C578 1.574 . S
C586 H581 0.949 . S
C586 C592 1.368 . S
C587 C571 1.349 . S
C587 H579 0.950 . S
C587 C585 1.327 . S
C588 C576 1.349 . S
C588 H582 0.950 . S
C588 C589 1.327 . S
C589 H583 0.950 . S
C589 C588 1.327 . S
C589 C593 1.429 . S
C590 C573 1.574 . S
C590 H584 0.949 . S
C590 C594 1.368 . S
C591 C572 1.429 . S
C591 C585 1.429 . S
C591 C592 1.523 . S
C592 C573 1.368 . S
C592 C586 1.368 . S
C592 C591 1.523 . S
C593 C577 1.429 . S
C593 C589 1.429 . S
C593 C594 1.523 . S
C594 C578 1.368 . S
C594 C590 1.368 . S
C594 C593 1.523 . S
H595 C570 0.950 . S
H596 C572 0.950 . S
H597 C573 0.949 . S
H598 C575 0.950 . S
H599 C577 0.950 . S
C600 C601 1.349 . S
C600 C602 1.327 . S
C600 H625 0.950 . S
C601 C600 1.349 . S
C601 C617 1.349 . S
C602 C600 1.327 . S
C602 C621 1.429 . S
C602 H626 0.950 . S
C603 C620 1.574 . S
C603 C622 1.368 . S
C603 H627 0.949 . S
H604 C608 0.949 . S
C605 C606 1.349 . S
C605 C607 1.327 . S
C605 H628 0.950 . S
C606 C605 1.349 . S
C606 C618 1.349 . S
C607 C605 1.327 . S
C607 C623 1.429 . S
C607 H629 0.950 . S
C608 H604 0.949 . S
C608 C616 1.574 . S
C608 C624 1.368 . S
H609 C617 0.950 . S
H610 C615 0.950 . S
H611 C616 0.949 . S
H612 C618 0.950 . S
H613 C619 0.950 . S
H614 C620 0.949 . S
C615 H610 0.950 . S
C615 C617 1.327 . S
C615 C621 1.429 . S
C616 C608 1.574 . S
C616 H611 0.949 . S
C616 C622 1.368 . S
C617 C601 1.349 . S
C617 H609 0.950 . S
C617 C615 1.327 . S
C618 C606 1.349 . S
C618 H612 0.950 . S
C618 C619 1.327 . S
C619 H613 0.950 . S
C619 C618 1.327 . S
C619 C623 1.429 . S
C620 C603 1.574 . S
C620 H614 0.949 . S
C620 C624 1.368 . S
C621 C602 1.429 . S
C621 C615 1.429 . S
C621 C622 1.523 . S
C622 C603 1.368 . S
C622 C616 1.368 . S
C622 C621 1.523 . S
C623 C607 1.429 . S
C623 C619 1.429 . S
C623 C624 1.523 . S
C624 C608 1.368 . S
C624 C620 1.368 . S
C624 C623 1.523 . S
H625 C600 0.950 . S
H626 C602 0.950 . S
H627 C603 0.949 . S
H628 C605 0.950 . S
H629 C607 0.950 . S
C630 C631 1.349 . S
C630 C632 1.327 . S
C630 H655 0.950 . S
C631 C630 1.349 . S
C631 C647 1.349 . S
C632 C630 1.327 . S
C632 C651 1.429 . S
C632 H656 0.950 . S
C633 C650 1.574 1_655 S
C633 C652 1.368 . S
C633 H657 0.949 . S
H634 C638 0.949 . S
C635 C636 1.349 . S
C635 C637 1.327 . S
C635 H658 0.950 . S
C636 C635 1.349 . S
C636 C648 1.349 . S
C637 C635 1.327 . S
C637 C653 1.429 . S
C637 H659 0.950 . S
C638 H634 0.949 . S
C638 C646 1.574 1_455 S
C638 C654 1.368 . S
H639 C647 0.950 . S
H640 C645 0.950 . S
H641 C646 0.949 . S
H642 C648 0.950 . S
H643 C649 0.950 . S
H644 C650 0.949 . S
C645 H640 0.950 . S
C645 C647 1.327 . S
C645 C651 1.429 . S
C646 C638 1.574 1_655 S
C646 H641 0.949 . S
C646 C652 1.368 . S
C647 C631 1.349 . S
C647 H639 0.950 . S
C647 C645 1.327 . S
C648 C636 1.349 . S
C648 H642 0.950 . S
C648 C649 1.327 . S
C649 H643 0.950 . S
C649 C648 1.327 . S
C649 C653 1.429 . S
C650 C633 1.574 1_455 S
C650 H644 0.949 . S
C650 C654 1.368 . S
C651 C632 1.429 . S
C651 C645 1.429 . S
C651 C652 1.523 . S
C652 C633 1.368 . S
C652 C646 1.368 . S
C652 C651 1.523 . S
C653 C637 1.429 . S
C653 C649 1.429 . S
C653 C654 1.523 . S
C654 C638 1.368 . S
C654 C650 1.368 . S
C654 C653 1.523 . S
H655 C630 0.950 . S
H656 C632 0.950 . S
H657 C633 0.949 . S
H658 C635 0.950 . S
H659 C637 0.950 . S
C660 C661 1.349 . S
C660 C662 1.327 . S
C660 H685 0.950 . S
C661 C660 1.349 . S
C661 C677 1.349 . S
C662 C660 1.327 . S
C662 C681 1.429 . S
C662 H686 0.950 . S
C663 C680 1.574 1_545 S
C663 C682 1.368 . S
C663 H687 0.949 . S
H664 C668 0.949 . S
C665 C666 1.349 . S
C665 C667 1.327 . S
C665 H688 0.950 . S
C666 C665 1.349 . S
C666 C678 1.349 . S
C667 C665 1.327 . S
C667 C683 1.429 . S
C667 H689 0.950 . S
C668 H664 0.949 . S
C668 C676 1.574 1_565 S
C668 C684 1.368 . S
H669 C677 0.950 . S
H670 C675 0.950 . S
H671 C676 0.949 . S
H672 C678 0.950 . S
H673 C679 0.950 . S
H674 C680 0.949 . S
C675 H670 0.950 . S
C675 C677 1.327 . S
C675 C681 1.429 . S
C676 C668 1.574 1_545 S
C676 H671 0.949 . S
C676 C682 1.368 . S
C677 C661 1.349 . S
C677 H669 0.950 . S
C677 C675 1.327 . S
C678 C666 1.349 . S
C678 H672 0.950 . S
C678 C679 1.327 . S
C679 H673 0.950 . S
C679 C678 1.327 . S
C679 C683 1.429 . S
C680 C663 1.574 1_565 S
C680 H674 0.949 . S
C680 C684 1.368 . S
C681 C662 1.429 . S
C681 C675 1.429 . S
C681 C682 1.523 . S
C682 C663 1.368 . S
C682 C676 1.368 . S
C682 C681 1.523 . S
C683 C667 1.429 . S
C683 C679 1.429 . S
C683 C684 1.523 . S
C684 C668 1.368 . S
C684 C680 1.368 . S
C684 C683 1.523 . S
H685 C660 0.950 . S
H686 C662 0.950 . S
H687 C663 0.949 . S
H688 C665 0.950 . S
H689 C667 0.950 . S
C690 C691 1.349 . S
C690 C692 1.327 . S
C690 H715 0.950 . S
C691 C690 1.349 . S
C691 C707 1.349 . S
C692 C690 1.327 . S
C692 C711 1.429 . S
C692 H716 0.950 . S
C693 C710 1.574 . S
C693 C712 1.368 . S
C693 H717 0.949 . S
H694 C698 0.949 . S
C695 C696 1.349 . S
C695 C697 1.327 . S
C695 H718 0.950 . S
C696 C695 1.349 . S
C696 C708 1.349 . S
C697 C695 1.327 . S
C697 C713 1.429 1_565 S
C697 H719 0.950 . S
C698 H694 0.949 . S
C698 C706 1.574 . S
C698 C714 1.368 . S
H699 C707 0.950 . S
H700 C705 0.950 . S
H701 C706 0.949 . S
H702 C708 0.950 1_545 S
H703 C709 0.950 . S
H704 C710 0.949 1_565 S
C705 H700 0.950 . S
C705 C707 1.327 . S
C705 C711 1.429 . S
C706 C698 1.574 . S
C706 H701 0.949 . S
C706 C712 1.368 . S
C707 C691 1.349 . S
C707 H699 0.950 . S
C707 C705 1.327 . S
C708 C696 1.349 . S
C708 H702 0.950 1_565 S
C708 C709 1.327 1_565 S
C709 H703 0.950 . S
C709 C708 1.327 1_545 S
C709 C713 1.429 . S
C710 C693 1.574 . S
C710 H704 0.949 1_545 S
C710 C714 1.368 . S
C711 C692 1.429 . S
C711 C705 1.429 . S
C711 C712 1.523 . S
C712 C693 1.368 . S
C712 C706 1.368 . S
C712 C711 1.523 . S
C713 C697 1.429 1_545 S
C713 C709 1.429 . S
C713 C714 1.523 . S
C714 C698 1.368 . S
C714 C710 1.368 . S
C714 C713 1.523 . S
H715 C690 0.950 . S
H716 C692 0.950 . S
H717 C693 0.949 . S
H718 C695 0.950 . S
H719 C697 0.950 . S
C720 C721 1.349 . S
C720 C722 1.327 1_455 S
C720 H745 0.950 . S
C721 C720 1.349 . S
C721 C737 1.349 . S
C722 C720 1.327 1_655 S
C722 C741 1.429 . S
C722 H746 0.950 . S
C723 C740 1.574 . S
C723 C742 1.368 . S
C723 H747 0.949 . S
H724 C728 0.949 . S
C725 C726 1.349 . S
C725 C727 1.327 . S
C725 H748 0.950 . S
C726 C725 1.349 . S
C726 C738 1.349 . S
C727 C725 1.327 . S
C727 C743 1.429 . S
C727 H749 0.950 . S
C728 H724 0.949 . S
C728 C736 1.574 . S
C728 C744 1.368 . S
H729 C737 0.950 . S
H730 C735 0.950 . S
H731 C736 0.949 . S
H732 C738 0.950 . S
H733 C739 0.950 . S
H734 C740 0.949 . S
C735 H730 0.950 . S
C735 C737 1.327 1_655 S
C735 C741 1.429 . S
C736 C728 1.574 . S
C736 H731 0.949 . S
C736 C742 1.368 . S
C737 C721 1.349 . S
C737 H729 0.950 . S
C737 C735 1.327 1_455 S
C738 C726 1.349 . S
C738 H732 0.950 . S
C738 C739 1.327 . S
C739 H733 0.950 . S
C739 C738 1.327 . S
C739 C743 1.429 . S
C740 C723 1.574 . S
C740 H734 0.949 . S
C740 C744 1.368 . S
C741 C722 1.429 . S
C741 C735 1.429 . S
C741 C742 1.523 . S
C742 C723 1.368 . S
C742 C736 1.368 . S
C742 C741 1.523 . S
C743 C727 1.429 . S
C743 C739 1.429 . S
C743 C744 1.523 . S
C744 C728 1.368 . S
C744 C740 1.368 . S
C744 C743 1.523 . S
H745 C720 0.950 . S
H746 C722 0.950 . S
H747 C723 0.949 . S
H748 C725 0.950 . S
H749 C727 0.950 . S
C750 C751 1.349 . S
C750 C752 1.327 . S
C750 H775 0.950 . S
C751 C750 1.349 . S
C751 C767 1.349 . S
C752 C750 1.327 . S
C752 C771 1.429 1_455 S
C752 H776 0.950 . S
C753 C770 1.574 . S
C753 C772 1.368 . S
C753 H777 0.949 . S
H754 C758 0.949 . S
C755 C756 1.349 . S
C755 C757 1.327 1_565 S
C755 H778 0.950 . S
C756 C755 1.349 . S
C756 C768 1.349 . S
C757 C755 1.327 1_545 S
C757 C773 1.429 . S
C757 H779 0.950 . S
C758 H754 0.949 . S
C758 C766 1.574 . S
C758 C774 1.368 . S
H759 C767 0.950 . S
H760 C765 0.950 . S
H761 C766 0.949 . S
H762 C768 0.950 . S
H763 C769 0.950 . S
H764 C770 0.949 . S
C765 H760 0.950 . S
C765 C767 1.327 1_655 S
C765 C771 1.429 . S
C766 C758 1.574 . S
C766 H761 0.949 . S
C766 C772 1.368 . S
C767 C751 1.349 . S
C767 H759 0.950 . S
C767 C765 1.327 1_455 S
C768 C756 1.349 . S
C768 H762 0.950 . S
C768 C769 1.327 1_565 S
C769 H763 0.950 . S
C769 C768 1.327 1_545 S
C769 C773 1.429 . S
C770 C753 1.574 . S
C770 H764 0.949 . S
C770 C774 1.368 . S
C771 C752 1.429 1_655 S
C771 C765 1.429 . S
C771 C772 1.523 . S
C772 C753 1.368 . S
C772 C766 1.368 . S
C772 C771 1.523 . S
C773 C757 1.429 . S
C773 C769 1.429 . S
C773 C774 1.523 . S
C774 C758 1.368 . S
C774 C770 1.368 . S
C774 C773 1.523 . S
H775 C750 0.950 . S
H776 C752 0.950 . S
H777 C753 0.949 . S
H778 C755 0.950 . S
H779 C757 0.950 . S
C241 C178 2.531 . S
C246 C9 2.240 . S
C271 C209 2.250 . S
C276 C58 2.528 . S
C301 C89 2.240 . S
C306 C138 2.531 . S
C331 C18 2.528 . S
C336 C169 2.250 . S
C361 C218 2.531 . S
C366 C49 2.240 . S
C391 C98 2.528 . S
C396 C129 2.250 . S
C421 C19 2.035 . S
C426 C95 1.989 . S
C451 C59 2.035 . S
C456 C15 1.989 . S
C481 C99 2.035 . S
C486 C55 1.989 . S
C511 C126 1.913 . S
C516 C170 1.868 . S
C541 C166 1.913 . S
C546 C210 1.868 . S
C571 C130 1.868 . S
C576 C206 1.913 . S
C601 C10 0.930 . S
C606 C86 0.945 . S
C631 C50 0.930 . S
C636 C6 0.945 . S
C661 C90 0.930 . S
C666 C46 0.945 . S
C691 C135 1.049 . S
C696 C179 1.072 . S
C721 C175 1.049 . S
C726 C219 1.072 . S
C751 C139 1.072 . S
C756 C215 1.049 . S
