# Generated by pormake.
# Topology sxb, (6)-cn, num edge types: 1
# Building blocks:
#     Node 0, Type 0, BuildingBlock: KUMBOL_clean_sbu_1, # of connection points: 6
#     Node 1, Type 0, BuildingBlock: KUMBOL_clean_sbu_1, # of connection points: 6
#     Node 2, Type 0, BuildingBlock: KUMBOL_clean_sbu_1, # of connection points: 6
#     Node 3, Type 0, BuildingBlock: KUMBOL_clean_sbu_1, # of connection points: 6
#     Edge 4, Type (0, 0), BuildingBlock: XIVTED_clean_linker_0, # of connection points: 2
#     Edge 5, Type (0, 0), BuildingBlock: XIVTED_clean_linker_0, # of connection points: 2
#     Edge 6, Type (0, 0), BuildingBlock: XIVTED_clean_linker_0, # of connection points: 2
#     Edge 7, Type (0, 0), BuildingBlock: XIVTED_clean_linker_0, # of connection points: 2
#     Edge 8, Type (0, 0), BuildingBlock: XIVTED_clean_linker_0, # of connection points: 2
#     Edge 9, Type (0, 0), BuildingBlock: XIVTED_clean_linker_0, # of connection points: 2
#     Edge 10, Type (0, 0), BuildingBlock: XIVTED_clean_linker_0, # of connection points: 2
#     Edge 11, Type (0, 0), BuildingBlock: XIVTED_clean_linker_0, # of connection points: 2
#     Edge 12, Type (0, 0), BuildingBlock: XIVTED_clean_linker_0, # of connection points: 2
#     Edge 13, Type (0, 0), BuildingBlock: XIVTED_clean_linker_0, # of connection points: 2
#     Edge 14, Type (0, 0), BuildingBlock: XIVTED_clean_linker_0, # of connection points: 2
#     Edge 15, Type (0, 0), BuildingBlock: XIVTED_clean_linker_0, # of connection points: 2
# Relax obj value: 0.015
# Max RMSD: 0.059
# Mean RMSD: 0.059
data_MOF--net-sxb--node1-KUMBOL_clean_sbu_1--edge1-XIVTED_clean_linker_0
_symmetry_space_group_name_H-M    P1
_symmetry_Int_Tables_number       1
_symmetry_cell_setting            triclinic
loop_
_symmetry_equiv_pos_as_xyz
'x, y, z'
_cell_length_a     15.193606
_cell_length_b     47.682105
_cell_length_c     30.030895
_cell_angle_alpha  114.36428
_cell_angle_beta   89.930073
_cell_angle_gamma 90.361117
loop_
_atom_site_label
_atom_site_type_symbol
_atom_site_fract_x
_atom_site_fract_y
_atom_site_fract_z
_atom_type_partial_charge
C0 C 0.18778 0.09376 0.08953 0.0
C1 C 0.29633 0.09978 0.03447 0.0
C2 C 0.21478 0.0883 0.04222 0.0
C3 C 0.35056 0.1166 0.07461 0.0
C4 C 0.24228 0.11058 0.12982 0.0
C5 C 0.32368 0.12195 0.12208 0.0
N6 N 0.10923 0.0821 0.096 0.0
C7 C 0.07999 0.08715 0.14166 0.0
C8 C 0.21357 0.11532 0.17672 0.0
C9 C 0.13199 0.10364 0.18265 0.0
Gd10 Gd 1.02744 0.96358 0.96443 0.0
Gd11 Gd 1.02828 0.05549 0.02463 0.0
N12 N 0.16253 0.07093 0.00374 0.0
C13 C 0.32113 0.09391 0.98652 0.0
C14 C 0.18426 0.06645 0.95727 0.0
C15 C 0.26442 0.07744 0.94783 0.0
H16 H 0.13944 0.0551 0.92754 0.0
H17 H 0.28192 0.0735 0.91079 0.0
H18 H 0.90045 0.9654 0.05673 0.0
H19 H 1.01584 0.07908 0.14676 0.0
H20 H 0.75574 0.94538 0.06766 0.0
H21 H 0.38329 0.10235 0.97905 0.0
H22 H 0.4136 0.12552 0.06931 0.0
H23 H 0.06029 0.93777 0.84311 0.0
H24 H 0.25365 0.12811 0.20859 0.0
H25 H 0.10882 0.10752 0.21882 0.0
H26 H 0.64959 0.88928 0.90383 0.0
H27 H 0.36647 0.13489 0.15261 0.0
H28 H 0.83197 0.88591 0.77133 0.0
H29 H 0.97894 0.90735 0.76719 0.0
N30 N 0.95811 0.93507 0.88977 0.0
C31 C 0.87822 0.92301 0.89296 0.0
C32 C 0.99506 0.92934 0.84542 0.0
C33 C 0.86683 0.89962 0.80483 0.0
C34 C 0.94968 0.91176 0.80232 0.0
C35 C 0.8303 0.905 0.85048 0.0
H36 H 0.70992 0.87909 0.82257 0.0
N37 N 0.88995 0.94726 0.97946 0.0
C38 C 0.84381 0.92884 0.939 0.0
C39 C 0.72894 0.92307 0.99033 0.0
C40 C 0.7612 0.91668 0.94344 0.0
C41 C 0.86082 0.9525 0.02513 0.0
C42 C 0.77933 0.94084 0.03132 0.0
O43 O 0.15453 0.03054 0.02716 0.0
O44 O 0.15649 0.98497 0.95811 0.0
O45 O 0.07058 0.9358 0.00203 0.0
O46 O 0.08097 0.9181 0.92321 0.0
O47 O 0.99692 0.02959 0.94398 0.0
O48 O 0.08119 0.9857 0.91694 0.0
O49 O 0.89996 0.98801 0.9625 0.0
O50 O 0.89866 0.0343 0.03049 0.0
O51 O 0.97789 0.08495 0.99131 0.0
O52 O 0.98202 0.10128 0.0701 0.0
O53 O 0.05757 0.98991 0.04494 0.0
O54 O 0.97346 0.03381 0.07273 0.0
C55 C 0.19718 0.0077 0.99336 0.0
C56 C 0.03927 1.00725 0.90918 0.0
C57 C 0.18084 0.89929 0.96403 0.0
C58 C 0.26251 0.85759 0.9715 0.0
C59 C 0.34006 0.89914 0.96054 0.0
C60 C 0.26002 0.91301 0.95935 0.0
C61 C 0.3415 0.87158 0.96647 0.0
C62 C 0.18215 0.87175 0.97034 0.0
C63 C 0.09605 0.9131 0.96195 0.0
C64 C 0.71337 0.89874 0.90113 0.0
C65 C 0.74773 0.89296 0.85483 0.0
H66 H 0.66567 0.91415 -0.00472 0.0
C67 C 0.85789 0.01147 -0.00456 0.0
C68 C 1.01273 0.01143 0.07955 0.0
C69 C 0.87486 0.12281 0.03713 0.0
C70 C 0.79112 0.16449 0.03028 0.0
C71 C 0.72241 0.13039 0.06258 0.0
C72 C 0.80065 0.11405 0.05615 0.0
C73 C 0.71769 0.15556 0.05022 0.0
C74 C 0.8697 0.14768 0.02369 0.0
C75 C 0.9595 0.10735 0.03324 0.0
H76 H 0.40119 0.90978 0.95691 0.0
H77 H 0.25972 0.9343 0.95462 0.0
H78 H 0.40449 0.86145 0.96782 0.0
H79 H 0.1205 0.86115 0.97356 0.0
H80 H 0.66549 0.1238 0.07785 0.0
H81 H 0.80375 0.09496 0.06673 0.0
H82 H 0.65673 0.16827 0.05711 0.0
H83 H 0.92719 0.1538 0.00814 0.0
C84 C 0.19271 0.92764 0.41397 0.0
C85 C 0.2686 0.91114 0.47032 0.0
C86 C 0.19767 0.9261 0.45928 0.0
C87 C 0.33423 0.8975 0.4352 0.0
C88 C 0.25759 0.91323 0.37826 0.0
C89 C 0.32866 0.89849 0.38931 0.0
N90 N 0.1234 0.94231 0.40427 0.0
C91 C 0.10998 0.9399 0.35785 0.0
C92 C 0.24797 0.9133 0.33199 0.0
C93 C 0.17303 0.92622 0.32151 0.0
Gd94 Gd 0.03754 0.05535 0.52013 0.0
Gd95 Gd 1.02062 0.96291 0.46813 0.0
N96 N 0.13445 0.94014 0.4932 0.0
C97 C 0.27197 0.91068 0.51665 0.0
C98 C 0.1363 0.93935 0.53806 0.0
C99 C 0.20547 0.92481 0.55061 0.0
H100 H 0.08409 0.94979 0.56395 0.0
H101 H 0.20731 0.92441 0.58637 0.0
H102 H 0.97895 0.06874 0.42377 0.0
H103 H 0.04937 0.94724 0.34765 0.0
H104 H 0.85821 0.09448 0.40023 0.0
H105 H 0.32559 0.89949 0.52655 0.0
H106 H 0.38941 0.88598 0.44307 0.0
H107 H 1.00534 0.07143 0.64038 0.0
H108 H 0.29623 0.9024 0.30355 0.0
H109 H 0.16263 0.92494 0.28506 0.0
H110 H 0.67387 0.13453 0.54254 0.0
H111 H 0.37923 0.88746 0.36237 0.0
H112 H 0.76076 0.11813 0.68306 0.0
H113 H 0.89168 0.09471 0.7024 0.0
N114 N 0.93397 0.07679 0.58332 0.0
C115 C 0.86623 0.09186 0.57315 0.0
C116 C 0.94579 0.07919 0.62985 0.0
C117 C 0.80915 0.10682 0.6549 0.0
C118 C 0.88257 0.09342 0.66585 0.0
C119 C 0.80123 0.1068 0.60847 0.0
H120 H 0.68111 0.13338 0.62355 0.0
N121 N 0.92647 0.07872 0.49419 0.0
C122 C 0.86302 0.09323 0.52768 0.0
C123 C 0.79191 0.10878 0.46959 0.0
C124 C 0.79362 0.10853 0.51607 0.0
C125 C 0.92633 0.07937 0.44923 0.0
C126 C 0.85864 0.09418 0.43608 0.0
O127 O 0.15234 0.98598 0.49951 0.0
O128 O 0.15591 0.02792 0.48076 0.0
O129 O 0.08833 0.09546 0.50958 0.0
O130 O 0.11578 0.08963 0.57679 0.0
O131 O 0.98182 0.98988 0.54627 0.0
O132 O 0.07359 0.03242 0.57073 0.0
O133 O 0.90462 0.03288 0.49006 0.0
O134 O 0.90075 0.98991 0.50644 0.0
O135 O 0.9715 0.92293 0.47972 0.0
O136 O 0.9445 0.92771 0.41165 0.0
O137 O 0.07462 0.02799 0.44173 0.0
O138 O 0.98189 0.98581 0.41796 0.0
C139 C 0.19641 1.00704 0.49087 0.0
C140 C 1.02978 0.01129 0.5795 0.0
C141 C 0.17552 0.13588 0.57283 0.0
C142 C 0.23663 0.18186 0.56683 0.0
C143 C 0.25849 0.17338 0.64054 0.0
C144 C 0.21127 0.14589 0.62005 0.0
C145 C 0.27112 0.19124 0.61428 0.0
C146 C 0.18779 0.15412 0.5463 0.0
C147 C 0.125 0.10668 0.55257 0.0
C148 C 0.72785 0.12273 0.55084 0.0
C149 C 0.73174 0.12192 0.5969 0.0
H150 H 0.7395 0.12022 0.45925 0.0
C151 C 0.86063 0.01143 0.49772 0.0
C152 C 1.0245 1.00709 0.40905 0.0
C153 C 0.88627 0.88162 0.4167 0.0
C154 C 0.82742 0.83557 0.42337 0.0
C155 C 0.80174 0.84398 0.34992 0.0
C156 C 0.84879 0.87152 0.36986 0.0
C157 C 0.79098 0.82614 0.37635 0.0
C158 C 0.87614 0.86335 0.44335 0.0
C159 C 0.93557 0.91108 0.43656 0.0
H160 H 0.28527 0.18094 0.67706 0.0
H161 H 0.20251 0.13252 0.64144 0.0
H162 H 0.30716 0.21273 0.63151 0.0
H163 H 0.1606 0.14662 0.50982 0.0
H164 H 0.77348 0.83639 0.31372 0.0
H165 H 0.85581 0.88492 0.3484 0.0
H166 H 0.75482 0.80465 0.35962 0.0
H167 H 0.90471 0.87086 0.47952 0.0
C168 C 0.70164 0.58624 0.08433 0.0
C169 C 0.80225 0.59972 0.03299 0.0
C170 C 0.72326 0.58608 0.0391 0.0
C171 C 0.86148 0.61221 0.07221 0.0
C172 C 0.75957 0.60001 0.1243 0.0
C173 C 0.84038 0.61223 0.11765 0.0
N174 N 0.62179 0.575 0.09013 0.0
C175 C 0.59244 0.5802 0.13594 0.0
C176 C 0.73305 0.60233 0.17032 0.0
C177 C 0.64845 0.59292 0.17631 0.0
Gd178 Gd 0.54511 0.46059 0.96711 0.0
Gd179 Gd 0.53548 0.55393 0.01867 0.0
N180 N 0.66593 0.57323 0.00127 0.0
C181 C 0.8185 0.60097 0.98786 0.0
C182 C 0.6791 0.57558 0.95793 0.0
C183 C 0.7561 0.5892 0.95039 0.0
H184 H 0.63053 0.56645 0.9291 0.0
H185 H 0.7674 0.59052 0.91571 0.0
H186 H 0.50144 0.45005 0.06894 0.0
H187 H 0.52519 0.57538 0.14215 0.0
H188 H 0.3879 0.42467 0.09831 0.0
H189 H 0.87833 0.61139 0.98185 0.0
H190 H 0.92301 0.62249 0.06806 0.0
H191 H 0.49526 0.44383 0.84932 0.0
H192 H 0.77573 0.61271 0.20188 0.0
H193 H 0.62551 0.59617 0.21225 0.0
H194 H 0.19671 0.37603 0.96016 0.0
H195 H 0.88585 0.62267 0.14789 0.0
H196 H 0.26167 0.38871 0.81335 0.0
H197 H 0.38046 0.41564 0.78992 0.0
N198 N 0.43848 0.43537 0.90751 0.0
C199 C 0.37641 0.41941 0.92047 0.0
C200 C 0.44208 0.4334 0.8609 0.0
C201 C 0.31124 0.40154 0.84 0.0
C202 C 0.37787 0.41687 0.82671 0.0
C203 C 0.31031 0.40245 0.8872 0.0
H204 H 0.19433 0.37377 0.87688 0.0
N205 N 0.44174 0.43759 -0.00062 0.0
C206 C 0.37798 0.42064 0.96769 0.0
C207 C 0.31641 0.40685 0.03021 0.0
C208 C 0.31325 0.40495 0.98245 0.0
C209 C 0.44708 0.43857 0.04532 0.0
C210 C 0.38387 0.42361 0.06167 0.0
O211 O 0.6604 0.52754 0.98433 0.0
O212 O 0.65864 0.48935 0.01092 0.0
O213 O 0.59256 0.41946 0.97392 0.0
O214 O 0.63283 0.42942 0.91173 0.0
O215 O 0.49121 0.52397 0.94208 0.0
O216 O 0.58202 0.48184 0.91459 0.0
O217 O 0.4077 0.48077 0.97172 0.0
O218 O 0.40191 0.53376 0.02023 0.0
O219 O 0.48215 0.5824 0.98457 0.0
O220 O 0.49282 0.60053 0.06317 0.0
O221 O 0.57397 0.48979 0.0465 0.0
O222 O 0.48662 0.53283 0.06964 0.0
C223 C 0.70251 0.50819 -0.0026 0.0
C224 C 0.53991 0.50385 0.90789 0.0
C225 C 0.68978 0.38228 0.91419 0.0
C226 C 0.74488 0.33585 0.92019 0.0
C227 C 0.79066 0.34852 0.85307 0.0
C228 C 0.73911 0.37494 0.87132 0.0
C229 C 0.79397 0.32918 0.87737 0.0
C230 C 0.69201 0.36238 0.93831 0.0
C231 C 0.63713 0.41075 0.93348 0.0
C232 C 0.24714 0.38814 0.94938 0.0
C233 C 0.24571 0.38688 0.90194 0.0
H234 H 0.26765 0.39521 0.04298 0.0
C235 C 0.36469 0.50667 -0.00435 0.0
C236 C 0.52264 0.51052 0.07824 0.0
C237 C 0.38337 0.62127 0.03031 0.0
C238 C 0.30012 0.66341 0.02517 0.0
C239 C 0.22654 0.62473 0.04566 0.0
C240 C 0.30644 0.60979 0.04261 0.0
C241 C 0.22317 0.65132 0.03696 0.0
C242 C 0.3802 0.648 0.0217 0.0
C243 C 0.46768 0.60571 0.0259 0.0
H244 H 0.8284 0.34304 0.81997 0.0
H245 H 0.7382 0.38967 0.85189 0.0
H246 H 0.8342 0.3087 0.86229 0.0
H247 H 0.65413 0.36772 0.9714 0.0
H248 H 0.16699 0.61568 0.05476 0.0
H249 H 0.30828 0.58935 0.04983 0.0
H250 H 0.16011 0.66224 0.03902 0.0
H251 H 0.44048 0.65699 0.01305 0.0
C252 C 0.70447 0.4265 0.4153 0.0
C253 C 0.77666 0.40987 0.47254 0.0
C254 C 0.70671 0.42475 0.46051 0.0
C255 C 0.84394 0.39642 0.43842 0.0
C256 C 0.77118 0.41238 0.38065 0.0
C257 C 0.84112 0.39762 0.39262 0.0
N258 N 0.63632 0.44125 0.40478 0.0
C259 C 0.62608 0.43936 0.35843 0.0
C260 C 0.76461 0.41284 0.3345 0.0
C261 C 0.69097 0.42593 0.3231 0.0
Gd262 Gd 0.54299 0.55372 0.51974 0.0
Gd263 Gd 0.53001 0.46133 0.46685 0.0
N264 N 0.64188 0.43861 0.49344 0.0
C265 C 0.77747 0.40931 0.51883 0.0
C266 C 0.64126 0.4377 0.53823 0.0
C267 C 0.70941 0.42326 0.55177 0.0
H268 H 0.58769 0.44784 0.56326 0.0
H269 H 0.70918 0.42275 0.58747 0.0
H270 H 0.48157 0.56745 0.42415 0.0
H271 H 0.56662 0.44688 0.34744 0.0
H272 H 0.35825 0.59246 0.40113 0.0
H273 H 0.83026 0.39818 0.52948 0.0
H274 H 0.89836 0.38493 0.44705 0.0
H275 H 0.5123 0.5691 0.6399 0.0
H276 H 0.81434 0.40216 0.30685 0.0
H277 H 0.68304 0.42501 0.28671 0.0
H278 H 0.17277 0.62969 0.54311 0.0
H279 H 0.89303 0.38678 0.36648 0.0
H280 H 0.26392 0.61303 0.68276 0.0
H281 H 0.39765 0.59083 0.70185 0.0
N282 N 0.43906 0.57401 0.58304 0.0
C283 C 0.3697 0.58853 0.57308 0.0
C284 C 0.45172 0.57629 0.62945 0.0
C285 C 0.31284 0.60238 0.65461 0.0
C286 C 0.38786 0.58966 0.66543 0.0
C287 C 0.30398 0.60261 0.6084 0.0
H288 H 0.18159 0.62794 0.62367 0.0
N289 N 0.42963 0.57653 0.49438 0.0
C290 C 0.36551 0.59023 0.52788 0.0
C291 C 0.29197 0.60565 0.4703 0.0
C292 C 0.29451 0.60501 0.51652 0.0
C293 C 0.42861 0.57753 0.44966 0.0
C294 C 0.35939 0.59189 0.43678 0.0
O295 O 0.66143 0.48469 0.49805 0.0
O296 O 0.66275 0.52715 0.48056 0.0
O297 O 0.59139 0.59424 0.50951 0.0
O298 O 0.61966 0.58844 0.57664 0.0
O299 O 0.49102 0.48787 0.54526 0.0
O300 O 0.58147 0.5307 0.56987 0.0
O301 O 0.41155 0.53037 0.48844 0.0
O302 O 0.40987 0.48778 0.50563 0.0
O303 O 0.48106 0.42079 0.47671 0.0
O304 O 0.45559 0.42626 0.40905 0.0
O305 O 0.58149 0.52708 0.44143 0.0
O306 O 0.49155 0.48412 0.41623 0.0
C307 C 0.70432 0.50613 0.48986 0.0
C308 C 0.53903 0.50928 0.57854 0.0
C309 C 0.67734 0.63502 0.57298 0.0
C310 C 0.73646 0.68136 0.5674 0.0
C311 C 0.76194 0.67224 0.64023 0.0
C312 C 0.71478 0.64473 0.61977 0.0
C313 C 0.77284 0.69041 0.61436 0.0
C314 C 0.68766 0.65362 0.5469 0.0
C315 C 0.62805 0.60556 0.5525 0.0
C316 C 0.22802 0.61831 0.55124 0.0
C317 C 0.23282 0.61716 0.59703 0.0
H318 H 0.23833 0.61671 0.46015 0.0
C319 C 0.36853 0.5089 0.49648 0.0
C320 C 0.53306 0.50592 0.40806 0.0
C321 C 0.39847 0.37947 0.41234 0.0
C322 C 0.3391 0.33317 0.41799 0.0
C323 C 0.32066 0.34092 0.34343 0.0
C324 C 0.36562 0.36886 0.36443 0.0
C325 C 0.3074 0.3232 0.36988 0.0
C326 C 0.38571 0.36136 0.43904 0.0
C327 C 0.44657 0.40916 0.4332 0.0
H328 H 0.79016 0.67954 0.67638 0.0
H329 H 0.70764 0.63107 0.6408 0.0
H330 H 0.80906 0.71187 0.63148 0.0
H331 H 0.65918 0.64638 0.51076 0.0
H332 H 0.29609 0.33291 0.30639 0.0
H333 H 0.37492 0.38212 0.34289 0.0
H334 H 0.27309 0.30138 0.35232 0.0
H335 H 0.41072 0.36928 0.47604 0.0
H336 H 0.38914 0.67686 0.95638 0.0
H337 H 0.16357 0.84175 0.03428 0.0
H338 H 0.20375 0.71538 0.07505 0.0
H339 H 0.36512 0.80694 0.92384 0.0
H340 H 0.17215 0.79436 0.04684 0.0
H341 H 0.37928 0.72379 0.94258 0.0
C342 C 0.34667 0.69521 0.97972 0.0
C343 C 0.29661 0.692 0.01674 0.0
C344 C 0.21455 0.79709 0.01987 0.0
C345 C 0.28411 0.74565 0.00061 0.0
C346 C 0.20925 0.82406 0.01244 0.0
C347 C 0.26429 0.82844 0.97823 0.0
C348 C 0.2751 0.77424 0.99277 0.0
C349 C 0.32266 0.80479 0.95125 0.0
C350 C 0.34066 0.72193 0.97159 0.0
C351 C 0.24212 0.7165 0.04544 0.0
N352 N 0.32662 0.77874 0.95913 0.0
N353 N 0.23719 0.74221 0.0367 0.0
H354 H 0.6085 0.30984 0.95029 0.0
H355 H 0.92091 0.2068 0.03612 0.0
H356 H 0.89188 0.31339 0.94561 0.0
H357 H 0.64889 0.18395 -0.00599 0.0
H358 H 0.90913 0.25065 0.01444 0.0
H359 H 0.61921 0.26947 0.98086 0.0
C360 C 0.67287 0.30243 0.9564 0.0
C361 C 0.74944 0.31464 0.94492 0.0
C362 C 0.852 0.23606 0.01021 0.0
C363 C 0.76223 0.26858 0.97947 0.0
C364 C 0.85877 0.21077 0.02216 0.0
C365 C 0.78569 0.1914 0.01707 0.0
C366 C 0.77136 0.24238 -0.00639 0.0
C367 C 0.7066 0.19842 -0.00035 0.0
C368 C 0.67898 0.27926 0.9734 0.0
C369 C 0.83128 0.3042 0.95336 0.0
N370 N 0.70152 0.22332 0.98874 0.0
N371 N 0.83556 0.28171 0.96996 0.0
H372 H 0.11865 0.19872 0.51278 0.0
H373 H 0.45553 0.31723 0.4738 0.0
H374 H 0.3895 0.21037 0.56038 0.0
H375 H 0.1866 0.30403 0.42296 0.0
H376 H 0.4312 0.2794 0.50847 0.0
H377 H 0.14261 0.23666 0.47829 0.0
C378 C 0.18335 0.20898 0.51548 0.0
C379 C 0.25183 0.20168 0.54011 0.0
C380 C 0.37745 0.28484 0.48979 0.0
C381 C 0.27939 0.24548 0.50159 0.0
C382 C 0.39114 0.30666 0.47045 0.0
C383 C 0.32334 0.31348 0.44488 0.0
C384 C 0.29534 0.26983 0.48363 0.0
C385 C 0.24125 0.29898 0.4415 0.0
C386 C 0.19683 0.23086 0.49623 0.0
C387 C 0.33429 0.2158 0.54265 0.0
N388 N 0.22973 0.27776 0.46034 0.0
N389 N 0.34558 0.23711 0.52398 0.0
H390 H 0.94947 0.81721 0.47351 0.0
H391 H 0.61467 0.69993 0.51742 0.0
H392 H 0.6748 0.80839 0.43356 0.0
H393 H 0.88895 0.70906 0.55825 0.0
H394 H 0.63611 0.73875 0.48445 0.0
H395 H 0.92805 0.77858 0.50692 0.0
C396 C 0.88449 0.80746 0.47236 0.0
C397 C 0.81407 0.81571 0.45015 0.0
C398 C 0.69167 0.73219 0.50053 0.0
C399 C 0.78928 0.77117 0.48739 0.0
C400 C 0.67957 0.70981 0.51888 0.0
C401 C 0.74986 0.70155 0.54117 0.0
C402 C 0.77468 0.74632 0.5044 0.0
C403 C 0.83254 0.71521 0.54225 0.0
C404 C 0.8724 0.78519 0.49096 0.0
C405 C 0.73128 0.80223 0.44949 0.0
N406 N 0.84253 0.737 0.52445 0.0
N407 N 0.72132 0.78054 0.46748 0.0
H408 H 0.30567 0.04299 0.06868 0.0
H409 H 0.74948 0.97531 0.92078 0.0
H410 H 0.31098 0.97331 0.92061 0.0
H411 H 0.74402 0.04671 0.06749 0.0
H412 H 0.58916 0.97353 0.92064 0.0
H413 H 0.46597 0.04486 0.0688 0.0
C414 C 0.34044 0.02818 0.03606 0.0
C415 C 0.29456 0.00822 -0.00561 0.0
C416 C 0.62293 0.9897 0.95281 0.0
C417 C 0.47873 0.00953 -0.0052 0.0
C418 C 0.71467 0.99059 0.95306 0.0
C419 C 0.76052 0.01105 -0.00566 0.0
C420 C 0.57635 0.00972 -0.00607 0.0
C421 C 0.71157 0.03071 0.03471 0.0
C422 C 0.43218 0.02909 0.0363 0.0
C423 C 0.34348 0.98903 0.95362 0.0
N424 N 0.62217 0.02956 0.03347 0.0
N425 N 0.43289 0.99013 0.95488 0.0
H426 H 0.30658 0.9755 0.52647 0.0
H427 H 0.75042 0.04423 0.46443 0.0
H428 H 0.31027 0.04023 0.45998 0.0
H429 H 0.74672 0.97761 0.5273 0.0
H430 H 0.58956 0.04394 0.46406 0.0
H431 H 0.46743 0.97589 0.52705 0.0
C432 C 0.34104 0.98947 0.51137 0.0
C433 C 0.29436 1.00732 0.4922 0.0
C434 C 0.62387 0.02943 0.47806 0.0
C435 C 0.4794 0.0088 0.49433 0.0
C436 C 0.71598 0.02985 0.47878 0.0
C437 C 0.76266 0.0114 0.4968 0.0
C438 C 0.5776 0.01011 0.49499 0.0
C439 C 0.71388 0.99237 0.51327 0.0
C440 C 0.43313 0.98996 0.51219 0.0
C441 C 0.34312 0.02591 0.47486 0.0
N442 N 0.62431 0.99224 0.51197 0.0
N443 N 0.4327 0.02616 0.47635 0.0
H444 H 0.81428 0.53395 0.9529 0.0
H445 H 0.25567 0.46653 0.01343 0.0
H446 H 0.81409 0.4781 0.03489 0.0
H447 H 0.25254 0.54482 0.9769 0.0
H448 H 0.09417 0.4656 0.01235 0.0
H449 H 0.97472 0.53433 0.9537 0.0
C450 C 0.84785 0.52219 0.9718 0.0
C451 C 0.80024 0.50695 -0.00466 0.0
C452 C 0.12881 0.48298 0.00456 0.0
C453 C 0.98492 0.50572 -0.00595 0.0
C454 C 0.22093 0.48321 0.00451 0.0
C455 C 0.26735 0.50555 -0.00524 0.0
C456 C 0.08284 0.50516 -0.0056 0.0
C457 C 0.21911 0.52739 0.98506 0.0
C458 C 0.93971 0.52209 0.97174 0.0
C459 C 0.84788 0.49054 0.01681 0.0
N460 N 0.12956 0.52658 0.9849 0.0
N461 N 0.93755 0.49031 0.01557 0.0
H462 H 0.25721 0.47552 0.52819 0.0
H463 H 0.81553 0.53956 0.45817 0.0
H464 H 0.25578 0.54029 0.46175 0.0
H465 H 0.81718 0.47465 0.52436 0.0
H466 H 0.97632 0.54045 0.45979 0.0
H467 H 0.09647 0.4746 0.52646 0.0
C468 C 0.22324 0.48973 0.51347 0.0
C469 C 0.27056 0.50844 0.49581 0.0
C470 C 0.9416 0.52582 0.47365 0.0
C471 C 0.08553 0.50749 0.4938 0.0
C472 C 0.84956 0.52532 0.47281 0.0
C473 C 0.80228 0.50659 0.49045 0.0
C474 C 0.98732 0.5075 0.49233 0.0
C475 C 0.85047 0.48881 0.5092 0.0
C476 C 0.13121 0.48921 0.51257 0.0
C477 C 0.22244 0.52616 0.47694 0.0
N478 N 0.9401 0.48967 0.50957 0.0
N479 N 0.13279 0.5253 0.47652 0.0
H480 H 0.88205 0.99388 0.34785 0.0
H481 H 0.14799 0.99547 0.12287 0.0
H482 H 0.15596 0.02026 0.35962 0.0
H483 H 0.88027 0.02782 0.14725 0.0
H484 H 0.14897 0.99436 0.20363 0.0
H485 H 0.87629 0.99604 0.26725 0.0
C486 C 0.94088 0.9999 0.33324 0.0
C487 C 1.01955 1.00698 0.36008 0.0
C488 C 0.0901 1.00173 0.19128 0.0
C489 C 1.01373 0.00908 0.26875 0.0
C490 C 0.08937 1.00227 0.14531 0.0
C491 C 1.01393 0.01177 0.12871 0.0
C492 C 1.01414 0.00998 0.22027 0.0
C493 C 0.93979 0.02055 0.15915 0.0
C494 C 0.93738 1.00136 0.28771 0.0
C495 C 0.09397 0.01487 0.34003 0.0
N496 N 0.94129 0.01912 0.20349 0.0
N497 N 0.08951 0.01542 0.2953 0.0
H498 H 0.17067 0.98802 0.84106 0.0
H499 H 0.89281 1.00118 0.62868 0.0
H500 H 0.90855 0.02558 0.8658 0.0
H501 H 0.17053 0.02222 0.64135 0.0
H502 H 0.896 0.99999 0.70945 0.0
H503 H 0.17088 0.98997 0.76038 0.0
C504 C 0.11309 0.99643 0.82927 0.0
C505 C 0.03954 1.00674 0.85987 0.0
C506 C 0.95613 1.00492 0.69454 0.0
C507 C 0.0391 0.0087 0.76837 0.0
C508 C 0.95444 1.00551 0.6486 0.0
C509 C 1.03151 0.01185 0.62876 0.0
C510 C 0.03594 0.00988 0.72012 0.0
C511 C 0.10972 0.01748 0.65588 0.0
C512 C 0.11358 0.99777 0.78366 0.0
C513 C 0.96671 0.01763 0.8433 0.0
N514 N 0.1103 0.016 0.70018 0.0
N515 N 0.96797 0.01808 0.79841 0.0
H516 H 0.66447 0.52221 0.36242 0.0
H517 H 0.38161 0.52197 0.14019 0.0
H518 H 0.39501 0.4904 0.34304 0.0
H519 H 0.65922 0.5021 0.129 0.0
H520 H 0.38055 0.52032 0.22134 0.0
H521 H 0.65936 0.52459 0.28275 0.0
C522 C 0.60413 0.51577 0.3413 0.0
C523 C 0.53008 0.50604 0.35908 0.0
C524 C 0.44146 0.51639 0.20095 0.0
C525 C 0.52337 0.50922 0.26841 0.0
C526 C 0.44223 0.51759 0.15512 0.0
C527 C 0.52053 0.51207 0.1282 0.0
C528 C 0.52004 0.51044 0.22004 0.0
C529 C 0.59741 0.50625 0.14862 0.0
C530 C 0.60135 0.51706 0.29588 0.0
C531 C 0.45364 0.49778 0.33023 0.0
N532 N 0.59538 0.5058 0.19346 0.0
N533 N 0.45185 0.49983 0.28629 0.0
H534 H 0.67973 0.52292 0.64109 0.0
H535 H 0.40725 0.52116 0.8644 0.0
H536 H 0.40597 0.49627 0.62732 0.0
H537 H 0.67475 0.48851 0.84149 0.0
H538 H 0.40912 0.52306 0.78418 0.0
H539 H 0.68307 0.52122 0.72207 0.0
C540 C 0.6204 0.51693 0.65533 0.0
C541 C 0.54252 0.5096 0.62776 0.0
C542 C 0.46735 0.51549 0.79677 0.0
C543 C 0.54555 0.50811 0.71966 0.0
C544 C 0.46648 0.5145 0.84247 0.0
C545 C 0.54088 0.50456 0.85931 0.0
C546 C 0.54387 0.50725 0.76825 0.0
C547 C 0.61587 0.49605 0.82945 0.0
C548 C 0.62252 0.51576 0.70112 0.0
C549 C 0.46742 0.50181 0.64743 0.0
N550 N 0.61587 0.49786 0.78536 0.0
N551 N 0.47052 0.50156 0.69243 0.0
loop_
_geom_bond_atom_site_label_1
_geom_bond_atom_site_label_2
_geom_bond_distance
_geom_bond_site_symmetry_2
_ccdc_geom_bond_type
C0 C2 1.422 . S
C0 C4 1.415 . S
C0 N6 1.369 . S
C1 C2 1.421 . S
C1 C3 1.417 . S
C1 C13 1.440 . S
C2 C0 1.422 . S
C2 C1 1.421 . S
C2 N12 1.359 . S
C3 C1 1.417 . S
C3 C5 1.329 . S
C3 H22 0.930 . S
C4 C0 1.415 . S
C4 C5 1.437 . S
C4 C8 1.413 . S
C5 C3 1.329 . S
C5 C4 1.437 . S
C5 H27 0.929 . S
N6 C0 1.369 . S
N6 C7 1.338 . S
N6 Gd11 2.622 . S
C7 N6 1.338 . S
C7 C9 1.378 . S
C7 H19 0.929 . S
C8 C4 1.413 . S
C8 C9 1.348 . S
C8 H24 0.931 . S
C9 C7 1.378 . S
C9 C8 1.348 . S
C9 H25 0.930 . S
Gd10 N30 2.622 . S
Gd10 N37 2.570 . S
Gd10 O44 2.353 1_655 S
Gd10 O45 2.468 1_655 S
Gd10 O46 2.427 1_655 S
Gd10 O48 2.388 1_655 S
Gd10 O49 2.386 . S
Gd10 O53 2.307 1_556 S
Gd10 C63 2.805 1_655 S
Gd11 N6 2.622 . S
Gd11 N12 2.570 . S
Gd11 O43 2.386 . S
Gd11 O47 2.307 1_554 S
Gd11 O50 2.353 1_455 S
Gd11 O51 2.468 1_455 S
Gd11 O52 2.427 1_455 S
Gd11 O54 2.388 1_455 S
Gd11 C75 2.805 1_455 S
N12 C2 1.359 . S
N12 Gd11 2.570 . S
N12 C14 1.343 1_554 S
C13 C1 1.440 . S
C13 C15 1.311 1_554 S
C13 H21 0.923 1_554 S
C14 N12 1.343 1_556 S
C14 C15 1.390 . S
C14 H16 0.931 . S
C15 C13 1.311 1_556 S
C15 C14 1.390 . S
C15 H17 0.930 . S
H16 C14 0.931 . S
H17 C15 0.930 . S
H18 C41 0.931 . S
H19 C7 0.929 . S
H20 C42 0.930 . S
H21 C13 0.923 1_556 S
H22 C3 0.930 . S
H23 C32 0.929 . S
H24 C8 0.931 . S
H25 C9 0.930 . S
H26 C64 0.930 . S
H27 C5 0.929 . S
H28 C33 0.931 . S
H29 C34 0.930 . S
N30 Gd10 2.622 . S
N30 C31 1.369 . S
N30 C32 1.338 . S
C31 N30 1.369 . S
C31 C35 1.415 . S
C31 C38 1.422 . S
C32 H23 0.929 . S
C32 N30 1.338 . S
C32 C34 1.378 . S
C33 H28 0.931 . S
C33 C34 1.348 . S
C33 C35 1.413 . S
C34 H29 0.930 . S
C34 C32 1.378 . S
C34 C33 1.348 . S
C35 C31 1.415 . S
C35 C33 1.413 . S
C35 C65 1.437 . S
H36 C65 0.929 . S
N37 Gd10 2.570 . S
N37 C38 1.359 . S
N37 C41 1.343 1_556 S
C38 C31 1.422 . S
C38 N37 1.359 . S
C38 C40 1.421 . S
C39 C40 1.434 . S
C39 C42 1.315 1_556 S
C39 H66 0.926 1_556 S
C40 C38 1.421 . S
C40 C39 1.434 . S
C40 C64 1.417 . S
C41 H18 0.931 . S
C41 N37 1.343 1_554 S
C41 C42 1.390 . S
C42 H20 0.930 . S
C42 C39 1.315 1_554 S
C42 C41 1.390 . S
O43 Gd11 2.386 . S
O43 C55 1.265 1_545 S
O44 Gd10 2.353 1_455 S
O44 C55 1.242 1_556 S
O45 Gd10 2.468 1_455 S
O45 C63 1.263 . S
O46 Gd10 2.427 1_455 S
O46 C63 1.252 . S
O47 Gd11 2.307 1_556 S
O47 C56 1.261 1_545 S
O48 Gd10 2.388 1_455 S
O48 C56 1.252 . S
O49 Gd10 2.386 . S
O49 C67 1.265 1_565 S
O50 Gd11 2.353 1_655 S
O50 C67 1.242 1_554 S
O51 Gd11 2.468 1_655 S
O51 C75 1.263 . S
O52 Gd11 2.427 1_655 S
O52 C75 1.252 . S
O53 Gd10 2.307 1_554 S
O53 C68 1.261 1_565 S
O54 Gd11 2.388 1_655 S
O54 C68 1.252 . S
C55 O43 1.265 1_565 S
C55 O44 1.242 1_554 S
C56 O47 1.261 1_565 S
C56 O48 1.252 . S
C57 C60 1.394 . S
C57 C62 1.370 . S
C57 C63 1.500 . S
C58 C61 1.383 . S
C58 C62 1.395 . S
C59 C60 1.396 . S
C59 C61 1.365 . S
C59 H76 0.929 . S
C60 C57 1.394 . S
C60 C59 1.396 . S
C60 H77 0.930 . S
C61 C58 1.383 . S
C61 C59 1.365 . S
C61 H78 0.931 . S
C62 C57 1.370 . S
C62 C58 1.395 . S
C62 H79 0.930 1_556 S
C63 Gd10 2.805 1_455 S
C63 O45 1.263 . S
C63 O46 1.252 . S
C63 C57 1.500 . S
C64 H26 0.930 . S
C64 C40 1.417 . S
C64 C65 1.329 . S
C65 C35 1.437 . S
C65 H36 0.929 . S
C65 C64 1.329 . S
H66 C39 0.926 1_554 S
C67 O49 1.265 1_545 S
C67 O50 1.242 1_556 S
C68 O53 1.261 1_545 S
C68 O54 1.252 . S
C69 C72 1.394 . S
C69 C74 1.370 . S
C69 C75 1.500 . S
C70 C73 1.383 . S
C70 C74 1.395 . S
C71 C72 1.396 . S
C71 C73 1.365 . S
C71 H80 0.929 . S
C72 C69 1.394 . S
C72 C71 1.396 . S
C72 H81 0.930 . S
C73 C70 1.383 . S
C73 C71 1.365 . S
C73 H82 0.931 . S
C74 C69 1.370 . S
C74 C70 1.395 . S
C74 H83 0.930 1_554 S
C75 Gd11 2.805 1_655 S
C75 O51 1.263 . S
C75 O52 1.252 . S
C75 C69 1.500 . S
H76 C59 0.929 . S
H77 C60 0.930 . S
H78 C61 0.931 . S
H79 C62 0.930 1_554 S
H80 C71 0.929 . S
H81 C72 0.930 . S
H82 C73 0.931 . S
H83 C74 0.930 1_556 S
C84 C86 1.422 . S
C84 C88 1.415 . S
C84 N90 1.369 . S
C85 C86 1.421 . S
C85 C87 1.417 . S
C85 C97 1.422 . S
C86 C84 1.422 . S
C86 C85 1.421 . S
C86 N96 1.359 . S
C87 C85 1.417 . S
C87 C89 1.329 . S
C87 H106 0.930 . S
C88 C84 1.415 . S
C88 C89 1.437 . S
C88 C92 1.413 . S
C89 C87 1.329 . S
C89 C88 1.437 . S
C89 H111 0.929 . S
N90 C84 1.369 . S
N90 C91 1.338 . S
N90 Gd95 2.622 . S
C91 N90 1.338 . S
C91 C93 1.378 . S
C91 H103 0.929 . S
C92 C88 1.413 . S
C92 C93 1.348 . S
C92 H108 0.931 . S
C93 C91 1.378 . S
C93 C92 1.348 . S
C93 H109 0.930 . S
Gd94 N114 2.622 . S
Gd94 N121 2.570 . S
Gd94 O128 2.353 1_655 S
Gd94 O129 2.468 1_655 S
Gd94 O130 2.427 1_655 S
Gd94 O132 2.388 1_655 S
Gd94 O133 2.386 . S
Gd94 O137 2.307 . S
Gd94 C147 2.805 1_655 S
Gd95 N90 2.622 . S
Gd95 N96 2.570 . S
Gd95 O127 2.386 . S
Gd95 O131 2.307 . S
Gd95 O134 2.353 1_455 S
Gd95 O135 2.468 1_455 S
Gd95 O136 2.427 1_455 S
Gd95 O138 2.388 1_455 S
Gd95 C159 2.805 1_455 S
N96 C86 1.359 . S
N96 Gd95 2.570 . S
N96 C98 1.343 . S
C97 C85 1.422 . S
C97 C99 1.321 . S
C97 H105 0.931 . S
C98 N96 1.343 . S
C98 C99 1.390 . S
C98 H100 0.931 . S
C99 C97 1.321 . S
C99 C98 1.390 . S
C99 H101 0.930 . S
H100 C98 0.931 . S
H101 C99 0.930 . S
H102 C125 0.931 . S
H103 C91 0.929 . S
H104 C126 0.930 . S
H105 C97 0.931 . S
H106 C87 0.930 . S
H107 C116 0.929 . S
H108 C92 0.931 . S
H109 C93 0.930 . S
H110 C148 0.930 . S
H111 C89 0.929 . S
H112 C117 0.931 . S
H113 C118 0.930 . S
N114 Gd94 2.622 . S
N114 C115 1.369 . S
N114 C116 1.338 . S
C115 N114 1.369 . S
C115 C119 1.415 . S
C115 C122 1.422 . S
C116 H107 0.929 . S
C116 N114 1.338 . S
C116 C118 1.378 . S
C117 H112 0.931 . S
C117 C118 1.348 . S
C117 C119 1.413 . S
C118 H113 0.930 . S
C118 C116 1.378 . S
C118 C117 1.348 . S
C119 C115 1.415 . S
C119 C117 1.413 . S
C119 C149 1.437 . S
H120 C149 0.929 . S
N121 Gd94 2.570 . S
N121 C122 1.359 . S
N121 C125 1.343 . S
C122 C115 1.422 . S
C122 N121 1.359 . S
C122 C124 1.421 . S
C123 C124 1.422 . S
C123 C126 1.321 . S
C123 H150 0.931 . S
C124 C122 1.421 . S
C124 C123 1.422 . S
C124 C148 1.417 . S
C125 H102 0.931 . S
C125 N121 1.343 . S
C125 C126 1.390 . S
C126 H104 0.930 . S
C126 C123 1.321 . S
C126 C125 1.390 . S
O127 Gd95 2.386 . S
O127 C139 1.265 1_565 S
O128 Gd94 2.353 1_455 S
O128 C139 1.242 . S
O129 Gd94 2.468 1_455 S
O129 C147 1.263 . S
O130 Gd94 2.427 1_455 S
O130 C147 1.252 . S
O131 Gd95 2.307 . S
O131 C140 1.261 1_565 S
O132 Gd94 2.388 1_455 S
O132 C140 1.252 . S
O133 Gd94 2.386 . S
O133 C151 1.265 1_545 S
O134 Gd95 2.353 1_655 S
O134 C151 1.242 . S
O135 Gd95 2.468 1_655 S
O135 C159 1.263 . S
O136 Gd95 2.427 1_655 S
O136 C159 1.252 . S
O137 Gd94 2.307 . S
O137 C152 1.261 1_545 S
O138 Gd95 2.388 1_655 S
O138 C152 1.252 . S
C139 O127 1.265 1_545 S
C139 O128 1.242 . S
C140 O131 1.261 1_545 S
C140 O132 1.252 . S
C141 C144 1.394 . S
C141 C146 1.370 . S
C141 C147 1.500 . S
C142 C145 1.383 . S
C142 C146 1.395 . S
C143 C144 1.396 . S
C143 C145 1.365 . S
C143 H160 0.929 . S
C144 C141 1.394 . S
C144 C143 1.396 . S
C144 H161 0.930 . S
C145 C142 1.383 . S
C145 C143 1.365 . S
C145 H162 0.931 . S
C146 C141 1.370 . S
C146 C142 1.395 . S
C146 H163 0.930 . S
C147 Gd94 2.805 1_455 S
C147 O129 1.263 . S
C147 O130 1.252 . S
C147 C141 1.500 . S
C148 H110 0.930 . S
C148 C124 1.417 . S
C148 C149 1.329 . S
C149 C119 1.437 . S
C149 H120 0.929 . S
C149 C148 1.329 . S
H150 C123 0.931 . S
C151 O133 1.265 1_565 S
C151 O134 1.242 . S
C152 O137 1.261 1_565 S
C152 O138 1.252 . S
C153 C156 1.394 . S
C153 C158 1.370 . S
C153 C159 1.500 . S
C154 C157 1.383 . S
C154 C158 1.395 . S
C155 C156 1.396 . S
C155 C157 1.365 . S
C155 H164 0.929 . S
C156 C153 1.394 . S
C156 C155 1.396 . S
C156 H165 0.930 . S
C157 C154 1.383 . S
C157 C155 1.365 . S
C157 H166 0.931 . S
C158 C153 1.370 . S
C158 C154 1.395 . S
C158 H167 0.930 . S
C159 Gd95 2.805 1_655 S
C159 O135 1.263 . S
C159 O136 1.252 . S
C159 C153 1.500 . S
H160 C143 0.929 . S
H161 C144 0.930 . S
H162 C145 0.931 . S
H163 C146 0.930 . S
H164 C155 0.929 . S
H165 C156 0.930 . S
H166 C157 0.931 . S
H167 C158 0.930 . S
C168 C170 1.422 . S
C168 C172 1.415 . S
C168 N174 1.369 . S
C169 C170 1.421 . S
C169 C171 1.417 . S
C169 C181 1.440 . S
C170 C168 1.422 . S
C170 C169 1.421 . S
C170 N180 1.359 . S
C171 C169 1.417 . S
C171 C173 1.329 . S
C171 H190 0.930 . S
C172 C168 1.415 . S
C172 C173 1.437 . S
C172 C176 1.413 . S
C173 C171 1.329 . S
C173 C172 1.437 . S
C173 H195 0.929 . S
N174 C168 1.369 . S
N174 C175 1.338 . S
N174 Gd179 2.622 . S
C175 N174 1.338 . S
C175 C177 1.378 . S
C175 H187 0.929 . S
C176 C172 1.413 . S
C176 C177 1.348 . S
C176 H192 0.931 . S
C177 C175 1.378 . S
C177 C176 1.348 . S
C177 H193 0.930 . S
Gd178 N198 2.622 . S
Gd178 N205 2.570 . S
Gd178 O212 2.353 . S
Gd178 O213 2.468 . S
Gd178 O214 2.427 . S
Gd178 O216 2.388 . S
Gd178 O217 2.386 . S
Gd178 O221 2.307 1_556 S
Gd178 C231 2.805 . S
Gd179 N174 2.622 . S
Gd179 N180 2.570 . S
Gd179 O211 2.386 . S
Gd179 O215 2.307 1_554 S
Gd179 O218 2.353 . S
Gd179 O219 2.468 . S
Gd179 O220 2.427 . S
Gd179 O222 2.388 . S
Gd179 C243 2.805 . S
N180 C170 1.359 . S
N180 Gd179 2.570 . S
N180 C182 1.343 1_554 S
C181 C169 1.440 . S
C181 C183 1.311 1_554 S
C181 H189 0.923 1_554 S
C182 N180 1.343 1_556 S
C182 C183 1.390 . S
C182 H184 0.931 . S
C183 C181 1.311 1_556 S
C183 C182 1.390 . S
C183 H185 0.930 . S
H184 C182 0.931 . S
H185 C183 0.930 . S
H186 C209 0.931 . S
H187 C175 0.929 . S
H188 C210 0.930 . S
H189 C181 0.923 1_556 S
H190 C171 0.930 . S
H191 C200 0.929 . S
H192 C176 0.931 . S
H193 C177 0.930 . S
H194 C232 0.930 . S
H195 C173 0.929 . S
H196 C201 0.931 . S
H197 C202 0.930 . S
N198 Gd178 2.622 . S
N198 C199 1.369 . S
N198 C200 1.338 . S
C199 N198 1.369 . S
C199 C203 1.415 . S
C199 C206 1.422 . S
C200 H191 0.929 . S
C200 N198 1.338 . S
C200 C202 1.378 . S
C201 H196 0.931 . S
C201 C202 1.348 . S
C201 C203 1.413 . S
C202 H197 0.930 . S
C202 C200 1.378 . S
C202 C201 1.348 . S
C203 C199 1.415 . S
C203 C201 1.413 . S
C203 C233 1.437 . S
H204 C233 0.929 . S
N205 Gd178 2.570 . S
N205 C206 1.359 . S
N205 C209 1.343 1_556 S
C206 C199 1.422 . S
C206 N205 1.359 . S
C206 C208 1.421 . S
C207 C208 1.434 . S
C207 C210 1.315 1_556 S
C207 H234 0.926 1_556 S
C208 C206 1.421 . S
C208 C207 1.434 . S
C208 C232 1.417 . S
C209 H186 0.931 . S
C209 N205 1.343 1_554 S
C209 C210 1.390 . S
C210 H188 0.930 . S
C210 C207 1.315 1_554 S
C210 C209 1.390 . S
O211 Gd179 2.386 . S
O211 C223 1.265 . S
O212 Gd178 2.353 . S
O212 C223 1.242 1_556 S
O213 Gd178 2.468 . S
O213 C231 1.263 . S
O214 Gd178 2.427 . S
O214 C231 1.252 . S
O215 Gd179 2.307 1_556 S
O215 C224 1.261 . S
O216 Gd178 2.388 . S
O216 C224 1.252 . S
O217 Gd178 2.386 . S
O217 C235 1.265 . S
O218 Gd179 2.353 . S
O218 C235 1.242 1_554 S
O219 Gd179 2.468 . S
O219 C243 1.263 . S
O220 Gd179 2.427 . S
O220 C243 1.252 . S
O221 Gd178 2.307 1_554 S
O221 C236 1.261 . S
O222 Gd179 2.388 . S
O222 C236 1.252 . S
C223 O211 1.265 . S
C223 O212 1.242 1_554 S
C224 O215 1.261 . S
C224 O216 1.252 . S
C225 C228 1.394 . S
C225 C230 1.370 . S
C225 C231 1.500 . S
C226 C229 1.383 . S
C226 C230 1.395 . S
C227 C228 1.396 . S
C227 C229 1.365 . S
C227 H244 0.929 . S
C228 C225 1.394 . S
C228 C227 1.396 . S
C228 H245 0.930 . S
C229 C226 1.383 . S
C229 C227 1.365 . S
C229 H246 0.931 . S
C230 C225 1.370 . S
C230 C226 1.395 . S
C230 H247 0.930 1_556 S
C231 Gd178 2.805 . S
C231 O213 1.263 . S
C231 O214 1.252 . S
C231 C225 1.500 . S
C232 H194 0.930 . S
C232 C208 1.417 . S
C232 C233 1.329 . S
C233 C203 1.437 . S
C233 H204 0.929 . S
C233 C232 1.329 . S
H234 C207 0.926 1_554 S
C235 O217 1.265 . S
C235 O218 1.242 1_556 S
C236 O221 1.261 . S
C236 O222 1.252 . S
C237 C240 1.394 . S
C237 C242 1.370 . S
C237 C243 1.500 . S
C238 C241 1.383 . S
C238 C242 1.395 . S
C239 C240 1.396 . S
C239 C241 1.365 . S
C239 H248 0.929 . S
C240 C237 1.394 . S
C240 C239 1.396 . S
C240 H249 0.930 . S
C241 C238 1.383 . S
C241 C239 1.365 . S
C241 H250 0.931 . S
C242 C237 1.370 . S
C242 C238 1.395 . S
C242 H251 0.930 1_554 S
C243 Gd179 2.805 . S
C243 O219 1.263 . S
C243 O220 1.252 . S
C243 C237 1.500 . S
H244 C227 0.929 . S
H245 C228 0.930 . S
H246 C229 0.931 . S
H247 C230 0.930 1_554 S
H248 C239 0.929 . S
H249 C240 0.930 . S
H250 C241 0.931 . S
H251 C242 0.930 1_556 S
C252 C254 1.422 . S
C252 C256 1.415 . S
C252 N258 1.369 . S
C253 C254 1.421 . S
C253 C255 1.417 . S
C253 C265 1.422 . S
C254 C252 1.422 . S
C254 C253 1.421 . S
C254 N264 1.359 . S
C255 C253 1.417 . S
C255 C257 1.329 . S
C255 H274 0.930 . S
C256 C252 1.415 . S
C256 C257 1.437 . S
C256 C260 1.413 . S
C257 C255 1.329 . S
C257 C256 1.437 . S
C257 H279 0.929 . S
N258 C252 1.369 . S
N258 C259 1.338 . S
N258 Gd263 2.622 . S
C259 N258 1.338 . S
C259 C261 1.378 . S
C259 H271 0.929 . S
C260 C256 1.413 . S
C260 C261 1.348 . S
C260 H276 0.931 . S
C261 C259 1.378 . S
C261 C260 1.348 . S
C261 H277 0.930 . S
Gd262 N282 2.622 . S
Gd262 N289 2.570 . S
Gd262 O296 2.353 . S
Gd262 O297 2.468 . S
Gd262 O298 2.427 . S
Gd262 O300 2.388 . S
Gd262 O301 2.386 . S
Gd262 O305 2.307 . S
Gd262 C315 2.805 . S
Gd263 N258 2.622 . S
Gd263 N264 2.570 . S
Gd263 O295 2.386 . S
Gd263 O299 2.307 . S
Gd263 O302 2.353 . S
Gd263 O303 2.468 . S
Gd263 O304 2.427 . S
Gd263 O306 2.388 . S
Gd263 C327 2.805 . S
N264 C254 1.359 . S
N264 Gd263 2.570 . S
N264 C266 1.343 . S
C265 C253 1.422 . S
C265 C267 1.321 . S
C265 H273 0.931 . S
C266 N264 1.343 . S
C266 C267 1.390 . S
C266 H268 0.931 . S
C267 C265 1.321 . S
C267 C266 1.390 . S
C267 H269 0.930 . S
H268 C266 0.931 . S
H269 C267 0.930 . S
H270 C293 0.931 . S
H271 C259 0.929 . S
H272 C294 0.930 . S
H273 C265 0.931 . S
H274 C255 0.930 . S
H275 C284 0.929 . S
H276 C260 0.931 . S
H277 C261 0.930 . S
H278 C316 0.930 . S
H279 C257 0.929 . S
H280 C285 0.931 . S
H281 C286 0.930 . S
N282 Gd262 2.622 . S
N282 C283 1.369 . S
N282 C284 1.338 . S
C283 N282 1.369 . S
C283 C287 1.415 . S
C283 C290 1.422 . S
C284 H275 0.929 . S
C284 N282 1.338 . S
C284 C286 1.378 . S
C285 H280 0.931 . S
C285 C286 1.348 . S
C285 C287 1.413 . S
C286 H281 0.930 . S
C286 C284 1.378 . S
C286 C285 1.348 . S
C287 C283 1.415 . S
C287 C285 1.413 . S
C287 C317 1.437 . S
H288 C317 0.929 . S
N289 Gd262 2.570 . S
N289 C290 1.359 . S
N289 C293 1.343 . S
C290 C283 1.422 . S
C290 N289 1.359 . S
C290 C292 1.421 . S
C291 C292 1.422 . S
C291 C294 1.321 . S
C291 H318 0.931 . S
C292 C290 1.421 . S
C292 C291 1.422 . S
C292 C316 1.417 . S
C293 H270 0.931 . S
C293 N289 1.343 . S
C293 C294 1.390 . S
C294 H272 0.930 . S
C294 C291 1.321 . S
C294 C293 1.390 . S
O295 Gd263 2.386 . S
O295 C307 1.265 . S
O296 Gd262 2.353 . S
O296 C307 1.242 . S
O297 Gd262 2.468 . S
O297 C315 1.263 . S
O298 Gd262 2.427 . S
O298 C315 1.252 . S
O299 Gd263 2.307 . S
O299 C308 1.261 . S
O300 Gd262 2.388 . S
O300 C308 1.252 . S
O301 Gd262 2.386 . S
O301 C319 1.265 . S
O302 Gd263 2.353 . S
O302 C319 1.242 . S
O303 Gd263 2.468 . S
O303 C327 1.263 . S
O304 Gd263 2.427 . S
O304 C327 1.252 . S
O305 Gd262 2.307 . S
O305 C320 1.261 . S
O306 Gd263 2.388 . S
O306 C320 1.252 . S
C307 O295 1.265 . S
C307 O296 1.242 . S
C308 O299 1.261 . S
C308 O300 1.252 . S
C309 C312 1.394 . S
C309 C314 1.370 . S
C309 C315 1.500 . S
C310 C313 1.383 . S
C310 C314 1.395 . S
C311 C312 1.396 . S
C311 C313 1.365 . S
C311 H328 0.929 . S
C312 C309 1.394 . S
C312 C311 1.396 . S
C312 H329 0.930 . S
C313 C310 1.383 . S
C313 C311 1.365 . S
C313 H330 0.931 . S
C314 C309 1.370 . S
C314 C310 1.395 . S
C314 H331 0.930 . S
C315 Gd262 2.805 . S
C315 O297 1.263 . S
C315 O298 1.252 . S
C315 C309 1.500 . S
C316 H278 0.930 . S
C316 C292 1.417 . S
C316 C317 1.329 . S
C317 C287 1.437 . S
C317 H288 0.929 . S
C317 C316 1.329 . S
H318 C291 0.931 . S
C319 O301 1.265 . S
C319 O302 1.242 . S
C320 O305 1.261 . S
C320 O306 1.252 . S
C321 C324 1.394 . S
C321 C326 1.370 . S
C321 C327 1.500 . S
C322 C325 1.383 . S
C322 C326 1.395 . S
C323 C324 1.396 . S
C323 C325 1.365 . S
C323 H332 0.929 . S
C324 C321 1.394 . S
C324 C323 1.396 . S
C324 H333 0.930 . S
C325 C322 1.383 . S
C325 C323 1.365 . S
C325 H334 0.931 . S
C326 C321 1.370 . S
C326 C322 1.395 . S
C326 H335 0.930 . S
C327 Gd263 2.805 . S
C327 O303 1.263 . S
C327 O304 1.252 . S
C327 C321 1.500 . S
H328 C311 0.929 . S
H329 C312 0.930 . S
H330 C313 0.931 . S
H331 C314 0.930 . S
H332 C323 0.929 . S
H333 C324 0.930 . S
H334 C325 0.931 . S
H335 C326 0.930 . S
H336 C342 0.930 . S
H337 C346 0.930 . S
H338 C351 0.929 . S
H339 C349 0.929 . S
H340 C344 0.929 . S
H341 C350 0.929 . S
C342 H336 0.930 . S
C342 C343 1.367 . S
C342 C350 1.378 . S
C343 C342 1.367 . S
C343 C351 1.433 1_556 S
C344 H340 0.929 . S
C344 C346 1.378 . S
C344 C348 1.350 . S
C345 C348 1.463 1_556 S
C345 C350 1.350 . S
C345 N353 1.427 1_556 S
C346 H337 0.930 . S
C346 C344 1.378 . S
C346 C347 1.367 . S
C347 C346 1.367 . S
C347 C349 1.433 1_554 S
C348 C344 1.350 . S
C348 C345 1.463 1_554 S
C348 N352 1.427 1_554 S
C349 H339 0.929 . S
C349 C347 1.433 1_556 S
C349 N352 1.384 . S
C350 H341 0.929 . S
C350 C342 1.378 . S
C350 C345 1.350 . S
C351 H338 0.929 . S
C351 C343 1.433 1_554 S
C351 N353 1.384 . S
N352 C348 1.427 1_556 S
N352 C349 1.384 . S
N353 C345 1.427 1_554 S
N353 C351 1.384 . S
H354 C360 0.930 . S
H355 C364 0.930 . S
H356 C369 0.929 . S
H357 C367 0.929 . S
H358 C362 0.929 . S
H359 C368 0.929 . S
C360 H354 0.930 . S
C360 C361 1.367 . S
C360 C368 1.378 . S
C361 C360 1.367 . S
C361 C369 1.433 1_554 S
C362 H358 0.929 . S
C362 C364 1.378 . S
C362 C366 1.352 . S
C363 C366 1.481 1_554 S
C363 C368 1.353 . S
C363 N371 1.415 1_554 S
C364 H355 0.930 . S
C364 C362 1.378 . S
C364 C365 1.367 . S
C365 C364 1.367 . S
C365 C367 1.433 1_556 S
C366 C362 1.352 . S
C366 C363 1.481 1_556 S
C366 N370 1.417 1_556 S
C367 H357 0.929 . S
C367 C365 1.433 1_554 S
C367 N370 1.384 . S
C368 H359 0.929 . S
C368 C360 1.378 . S
C368 C363 1.353 . S
C369 H356 0.929 . S
C369 C361 1.433 1_556 S
C369 N371 1.384 . S
N370 C366 1.417 1_554 S
N370 C367 1.384 . S
N371 C363 1.415 1_556 S
N371 C369 1.384 . S
H372 C378 0.930 . S
H373 C382 0.930 . S
H374 C387 0.929 . S
H375 C385 0.929 . S
H376 C380 0.929 . S
H377 C386 0.929 . S
C378 H372 0.930 . S
C378 C379 1.367 . S
C378 C386 1.378 . S
C379 C378 1.367 . S
C379 C387 1.433 . S
C380 H376 0.929 . S
C380 C382 1.378 . S
C380 C384 1.350 . S
C381 C384 1.463 . S
C381 C386 1.350 . S
C381 N389 1.427 . S
C382 H373 0.930 . S
C382 C380 1.378 . S
C382 C383 1.367 . S
C383 C382 1.367 . S
C383 C385 1.433 . S
C384 C380 1.350 . S
C384 C381 1.463 . S
C384 N388 1.427 . S
C385 H375 0.929 . S
C385 C383 1.433 . S
C385 N388 1.384 . S
C386 H377 0.929 . S
C386 C378 1.378 . S
C386 C381 1.350 . S
C387 H374 0.929 . S
C387 C379 1.433 . S
C387 N389 1.384 . S
N388 C384 1.427 . S
N388 C385 1.384 . S
N389 C381 1.427 . S
N389 C387 1.384 . S
H390 C396 0.930 . S
H391 C400 0.930 . S
H392 C405 0.929 . S
H393 C403 0.929 . S
H394 C398 0.929 . S
H395 C404 0.929 . S
C396 H390 0.930 . S
C396 C397 1.367 . S
C396 C404 1.378 . S
C397 C396 1.367 . S
C397 C405 1.433 . S
C398 H394 0.929 . S
C398 C400 1.378 . S
C398 C402 1.350 . S
C399 C402 1.463 . S
C399 C404 1.350 . S
C399 N407 1.427 . S
C400 H391 0.930 . S
C400 C398 1.378 . S
C400 C401 1.367 . S
C401 C400 1.367 . S
C401 C403 1.433 . S
C402 C398 1.350 . S
C402 C399 1.463 . S
C402 N406 1.427 . S
C403 H393 0.929 . S
C403 C401 1.433 . S
C403 N406 1.384 . S
C404 H395 0.929 . S
C404 C396 1.378 . S
C404 C399 1.350 . S
C405 H392 0.929 . S
C405 C397 1.433 . S
C405 N407 1.384 . S
N406 C402 1.427 . S
N406 C403 1.384 . S
N407 C399 1.427 . S
N407 C405 1.384 . S
H408 C414 0.930 . S
H409 C418 0.930 . S
H410 C423 0.929 . S
H411 C421 0.929 . S
H412 C416 0.929 . S
H413 C422 0.929 . S
C414 H408 0.930 . S
C414 C415 1.379 1_545 S
C414 C422 1.378 . S
C415 C414 1.379 1_565 S
C415 C423 1.420 1_554 S
C416 H412 0.929 . S
C416 C418 1.378 . S
C416 C420 1.348 1_565 S
C417 C420 1.462 1_564 S
C417 C422 1.350 1_565 S
C417 N425 1.428 1_554 S
C418 H409 0.930 . S
C418 C416 1.378 . S
C418 C419 1.375 1_565 S
C419 C418 1.375 1_545 S
C419 C421 1.425 1_556 S
C420 C416 1.348 1_545 S
C420 C417 1.462 1_546 S
C420 N424 1.430 1_556 S
C421 H411 0.929 . S
C421 C419 1.425 1_554 S
C421 N424 1.384 . S
C422 H413 0.929 . S
C422 C414 1.378 . S
C422 C417 1.350 1_545 S
C423 H410 0.929 . S
C423 C415 1.420 1_556 S
C423 N425 1.384 . S
N424 C420 1.430 1_554 S
N424 C421 1.384 . S
N425 C417 1.428 1_556 S
N425 C423 1.384 . S
H426 C432 0.930 . S
H427 C436 0.930 . S
H428 C441 0.929 . S
H429 C439 0.929 . S
H430 C434 0.929 . S
H431 C440 0.929 . S
C432 H426 0.930 . S
C432 C433 1.367 1_565 S
C432 C440 1.378 . S
C433 C432 1.367 1_545 S
C433 C441 1.433 . S
C434 H430 0.929 . S
C434 C436 1.378 . S
C434 C438 1.351 . S
C435 C438 1.462 . S
C435 C440 1.351 1_545 S
C435 N443 1.426 . S
C436 H427 0.930 . S
C436 C434 1.378 . S
C436 C437 1.367 1_545 S
C437 C436 1.367 1_565 S
C437 C439 1.433 . S
C438 C434 1.351 . S
C438 C435 1.462 . S
C438 N442 1.426 1_545 S
C439 H429 0.929 . S
C439 C437 1.433 . S
C439 N442 1.384 . S
C440 H431 0.929 . S
C440 C432 1.378 . S
C440 C435 1.351 1_565 S
C441 H428 0.929 . S
C441 C433 1.433 . S
C441 N443 1.384 . S
N442 C438 1.426 1_565 S
N442 C439 1.384 . S
N443 C435 1.426 . S
N443 C441 1.384 . S
H444 C450 0.930 . S
H445 C454 0.930 . S
H446 C459 0.929 . S
H447 C457 0.929 . S
H448 C452 0.929 . S
H449 C458 0.929 . S
C450 H444 0.930 . S
C450 C451 1.373 . S
C450 C458 1.378 . S
C451 C450 1.373 . S
C451 C459 1.427 1_556 S
C452 H448 0.929 . S
C452 C454 1.378 . S
C452 C456 1.355 . S
C453 C456 1.462 1_656 S
C453 C458 1.352 . S
C453 N461 1.425 1_556 S
C454 H445 0.930 . S
C454 C452 1.378 . S
C454 C455 1.376 . S
C455 C454 1.376 . S
C455 C457 1.424 1_554 S
C456 C452 1.355 . S
C456 C453 1.462 1_454 S
C456 N460 1.422 1_554 S
C457 H447 0.929 . S
C457 C455 1.424 1_556 S
C457 N460 1.384 . S
C458 H449 0.929 . S
C458 C450 1.378 . S
C458 C453 1.352 . S
C459 H446 0.929 . S
C459 C451 1.427 1_554 S
C459 N461 1.384 . S
N460 C456 1.422 1_556 S
N460 C457 1.384 . S
N461 C453 1.425 1_554 S
N461 C459 1.384 . S
H462 C468 0.930 . S
H463 C472 0.930 . S
H464 C477 0.929 . S
H465 C475 0.929 . S
H466 C470 0.929 . S
H467 C476 0.929 . S
C468 H462 0.930 . S
C468 C469 1.367 . S
C468 C476 1.378 . S
C469 C468 1.367 . S
C469 C477 1.433 . S
C470 H466 0.929 . S
C470 C472 1.378 . S
C470 C474 1.350 . S
C471 C474 1.463 1_455 S
C471 C476 1.350 . S
C471 N479 1.427 . S
C472 H463 0.930 . S
C472 C470 1.378 . S
C472 C473 1.367 . S
C473 C472 1.367 . S
C473 C475 1.433 . S
C474 C470 1.350 . S
C474 C471 1.463 1_655 S
C474 N478 1.427 . S
C475 H465 0.929 . S
C475 C473 1.433 . S
C475 N478 1.384 . S
C476 H467 0.929 . S
C476 C468 1.378 . S
C476 C471 1.350 . S
C477 H464 0.929 . S
C477 C469 1.433 . S
C477 N479 1.384 . S
N478 C474 1.427 . S
N478 C475 1.384 . S
N479 C471 1.427 . S
N479 C477 1.384 . S
H480 C486 0.930 . S
H481 C490 0.930 . S
H482 C495 0.929 . S
H483 C493 0.929 . S
H484 C488 0.929 . S
H485 C494 0.929 . S
C486 H480 0.930 . S
C486 C487 1.365 . S
C486 C494 1.378 . S
C487 C486 1.365 . S
C487 C495 1.437 1_665 S
C488 H484 0.929 . S
C488 C490 1.378 . S
C488 C492 1.379 . S
C489 C492 1.436 1_665 S
C489 C494 1.371 . S
C489 N497 1.416 1_665 S
C490 H481 0.930 . S
C490 C488 1.378 . S
C490 C491 1.373 . S
C491 C490 1.373 . S
C491 C493 1.425 1_445 S
C492 C488 1.379 . S
C492 C489 1.436 1_445 S
C492 N496 1.412 1_445 S
C493 H483 0.929 . S
C493 C491 1.425 1_665 S
C493 N496 1.384 . S
C494 H485 0.929 . S
C494 C486 1.378 . S
C494 C489 1.371 . S
C495 H482 0.929 . S
C495 C487 1.437 1_445 S
C495 N497 1.384 . S
N496 C492 1.412 1_665 S
N496 C493 1.384 . S
N497 C489 1.416 1_445 S
N497 C495 1.384 . S
H498 C504 0.930 . S
H499 C508 0.930 . S
H500 C513 0.929 . S
H501 C511 0.929 . S
H502 C506 0.929 . S
H503 C512 0.929 . S
C504 H498 0.930 . S
C504 C505 1.367 1_565 S
C504 C512 1.378 . S
C505 C504 1.367 1_545 S
C505 C513 1.432 1_455 S
C506 H502 0.929 . S
C506 C508 1.378 . S
C506 C510 1.371 . S
C507 C510 1.442 1_465 S
C507 C512 1.364 . S
C507 N515 1.421 1_465 S
C508 H499 0.930 . S
C508 C506 1.378 . S
C508 C509 1.373 . S
C509 C508 1.373 . S
C509 C511 1.427 1_645 S
C510 C506 1.371 . S
C510 C507 1.442 1_645 S
C510 N514 1.418 1_645 S
C511 H501 0.929 . S
C511 C509 1.427 1_465 S
C511 N514 1.384 . S
C512 H503 0.929 . S
C512 C504 1.378 . S
C512 C507 1.364 . S
C513 H500 0.929 . S
C513 C505 1.432 1_655 S
C513 N515 1.384 . S
N514 C510 1.418 1_465 S
N514 C511 1.384 . S
N515 C507 1.421 1_645 S
N515 C513 1.384 . S
H516 C522 0.930 . S
H517 C526 0.930 . S
H518 C531 0.929 . S
H519 C529 0.929 . S
H520 C524 0.929 . S
H521 C530 0.929 . S
C522 H516 0.930 . S
C522 C523 1.367 . S
C522 C530 1.378 . S
C523 C522 1.367 . S
C523 C531 1.433 . S
C524 H520 0.929 . S
C524 C526 1.378 . S
C524 C528 1.350 . S
C525 C528 1.463 . S
C525 C530 1.350 . S
C525 N533 1.427 . S
C526 H517 0.930 . S
C526 C524 1.378 . S
C526 C527 1.367 . S
C527 C526 1.367 . S
C527 C529 1.433 . S
C528 C524 1.350 . S
C528 C525 1.463 . S
C528 N532 1.427 . S
C529 H519 0.929 . S
C529 C527 1.433 . S
C529 N532 1.384 . S
C530 H521 0.929 . S
C530 C522 1.378 . S
C530 C525 1.350 . S
C531 H518 0.929 . S
C531 C523 1.433 . S
C531 N533 1.384 . S
N532 C528 1.427 . S
N532 C529 1.384 . S
N533 C525 1.427 . S
N533 C531 1.384 . S
H534 C540 0.930 . S
H535 C544 0.930 . S
H536 C549 0.929 . S
H537 C547 0.929 . S
H538 C542 0.929 . S
H539 C548 0.929 . S
C540 H534 0.930 . S
C540 C541 1.367 . S
C540 C548 1.378 . S
C541 C540 1.367 . S
C541 C549 1.433 . S
C542 H538 0.929 . S
C542 C544 1.378 . S
C542 C546 1.350 . S
C543 C546 1.463 . S
C543 C548 1.350 . S
C543 N551 1.427 . S
C544 H535 0.930 . S
C544 C542 1.378 . S
C544 C545 1.367 . S
C545 C544 1.367 . S
C545 C547 1.433 . S
C546 C542 1.350 . S
C546 C543 1.463 . S
C546 N550 1.427 . S
C547 H537 0.929 . S
C547 C545 1.433 . S
C547 N550 1.384 . S
C548 H539 0.929 . S
C548 C540 1.378 . S
C548 C543 1.350 . S
C549 H536 0.929 . S
C549 C541 1.433 . S
C549 N551 1.384 . S
N550 C546 1.427 . S
N550 C547 1.384 . S
N551 C543 1.427 . S
N551 C549 1.384 . S
C343 C238 1.417 1_556 S
C347 C58 1.420 1_554 S
C361 C226 1.408 1_554 S
C365 C70 1.404 1_556 S
C379 C142 1.415 . S
C383 C322 1.410 . S
C397 C154 1.396 . S
C401 C310 1.400 . S
C415 C55 1.975 . S
C419 C67 1.975 . S
C433 C139 1.975 . S
C437 C151 1.975 . S
C451 C223 1.975 1_556 S
C455 C235 1.974 1_554 S
C469 C319 1.975 . S
C473 C307 1.975 . S
C487 C152 1.472 . S
C491 C68 1.477 1_455 S
C505 C56 1.475 1_545 S
C509 C140 1.481 1_655 S
C523 C320 1.484 . S
C527 C236 1.478 . S
C541 C308 1.478 . S
C545 C224 1.486 . S
