# Generated by pormake.
# Topology wkd, (5)-cn, num edge types: 1
# Building blocks:
#     Node 0, Type 0, BuildingBlock: BEQFEK_clean_sbu_0, # of connection points: 5
#     Node 1, Type 0, BuildingBlock: BEQFEK_clean_sbu_0, # of connection points: 5
#     Node 2, Type 0, BuildingBlock: BEQFEK_clean_sbu_0, # of connection points: 5
#     Node 3, Type 0, BuildingBlock: BEQFEK_clean_sbu_0, # of connection points: 5
#     Node 4, Type 0, BuildingBlock: BEQFEK_clean_sbu_0, # of connection points: 5
#     Node 5, Type 0, BuildingBlock: BEQFEK_clean_sbu_0, # of connection points: 5
#     Node 6, Type 0, BuildingBlock: BEQFEK_clean_sbu_0, # of connection points: 5
#     Node 7, Type 0, BuildingBlock: BEQFEK_clean_sbu_0, # of connection points: 5
#     Node 8, Type 0, BuildingBlock: BEQFEK_clean_sbu_0, # of connection points: 5
#     Node 9, Type 0, BuildingBlock: BEQFEK_clean_sbu_0, # of connection points: 5
#     Node 10, Type 0, BuildingBlock: BEQFEK_clean_sbu_0, # of connection points: 5
#     Node 11, Type 0, BuildingBlock: BEQFEK_clean_sbu_0, # of connection points: 5
#     Edge 12, Type (0, 0), BuildingBlock: AJUNOK_clean_linker_0, # of connection points: 2
#     Edge 13, Type (0, 0), BuildingBlock: AJUNOK_clean_linker_0, # of connection points: 2
#     Edge 14, Type (0, 0), BuildingBlock: AJUNOK_clean_linker_0, # of connection points: 2
#     Edge 15, Type (0, 0), BuildingBlock: AJUNOK_clean_linker_0, # of connection points: 2
#     Edge 16, Type (0, 0), BuildingBlock: AJUNOK_clean_linker_0, # of connection points: 2
#     Edge 17, Type (0, 0), BuildingBlock: AJUNOK_clean_linker_0, # of connection points: 2
#     Edge 18, Type (0, 0), BuildingBlock: AJUNOK_clean_linker_0, # of connection points: 2
#     Edge 19, Type (0, 0), BuildingBlock: AJUNOK_clean_linker_0, # of connection points: 2
#     Edge 20, Type (0, 0), BuildingBlock: AJUNOK_clean_linker_0, # of connection points: 2
#     Edge 21, Type (0, 0), BuildingBlock: AJUNOK_clean_linker_0, # of connection points: 2
#     Edge 22, Type (0, 0), BuildingBlock: AJUNOK_clean_linker_0, # of connection points: 2
#     Edge 23, Type (0, 0), BuildingBlock: AJUNOK_clean_linker_0, # of connection points: 2
#     Edge 24, Type (0, 0), BuildingBlock: AJUNOK_clean_linker_0, # of connection points: 2
#     Edge 25, Type (0, 0), BuildingBlock: AJUNOK_clean_linker_0, # of connection points: 2
#     Edge 26, Type (0, 0), BuildingBlock: AJUNOK_clean_linker_0, # of connection points: 2
#     Edge 27, Type (0, 0), BuildingBlock: AJUNOK_clean_linker_0, # of connection points: 2
#     Edge 28, Type (0, 0), BuildingBlock: AJUNOK_clean_linker_0, # of connection points: 2
#     Edge 29, Type (0, 0), BuildingBlock: AJUNOK_clean_linker_0, # of connection points: 2
#     Edge 30, Type (0, 0), BuildingBlock: AJUNOK_clean_linker_0, # of connection points: 2
#     Edge 31, Type (0, 0), BuildingBlock: AJUNOK_clean_linker_0, # of connection points: 2
#     Edge 32, Type (0, 0), BuildingBlock: AJUNOK_clean_linker_0, # of connection points: 2
#     Edge 33, Type (0, 0), BuildingBlock: AJUNOK_clean_linker_0, # of connection points: 2
#     Edge 34, Type (0, 0), BuildingBlock: AJUNOK_clean_linker_0, # of connection points: 2
#     Edge 35, Type (0, 0), BuildingBlock: AJUNOK_clean_linker_0, # of connection points: 2
#     Edge 36, Type (0, 0), BuildingBlock: AJUNOK_clean_linker_0, # of connection points: 2
#     Edge 37, Type (0, 0), BuildingBlock: AJUNOK_clean_linker_0, # of connection points: 2
#     Edge 38, Type (0, 0), BuildingBlock: AJUNOK_clean_linker_0, # of connection points: 2
#     Edge 39, Type (0, 0), BuildingBlock: AJUNOK_clean_linker_0, # of connection points: 2
#     Edge 40, Type (0, 0), BuildingBlock: AJUNOK_clean_linker_0, # of connection points: 2
#     Edge 41, Type (0, 0), BuildingBlock: AJUNOK_clean_linker_0, # of connection points: 2
# Relax obj value: 0.066
# Max RMSD: 0.100
# Mean RMSD: 0.099
data_MOF--net-wkd--node1-BEQFEK_clean_sbu_0--edge1-AJUNOK_clean_linker_0
_symmetry_space_group_name_H-M    P1
_symmetry_Int_Tables_number       1
_symmetry_cell_setting            triclinic
loop_
_symmetry_equiv_pos_as_xyz
'x, y, z'
_cell_length_a     18.336258
_cell_length_b     18.327996
_cell_length_c     102.15809
_cell_angle_alpha  90.040692
_cell_angle_beta   90.037633
_cell_angle_gamma 119.86037
loop_
_atom_site_label
_atom_site_type_symbol
_atom_site_fract_x
_atom_site_fract_y
_atom_site_fract_z
_atom_type_partial_charge
Co0 Co 0.91977 0.35022 0.07598 0.0
Co1 Co 1.00104 0.26051 0.0913 0.0
C2 C 0.86707 0.16894 0.0711 0.0
O3 O 0.8623 0.23439 0.0684 0.0
O4 O 0.9164 0.16959 0.07996 0.0
C5 C 0.79783 0.39539 0.06559 0.0
O6 O 0.73816 0.31855 0.06834 0.0
C7 C 0.01448 0.14522 0.11012 0.0
C8 C 0.15132 0.21304 0.11399 0.0
C9 C 0.07671 0.14233 0.11747 0.0
N10 N 0.05081 0.21543 0.10278 0.0
N11 N 0.13265 0.25515 0.10506 0.0
C12 C 0.92285 0.0812 0.10954 0.0
H13 H 0.90948 0.04736 0.10005 0.0
H14 H 0.88481 0.11298 0.10982 0.0
H15 H 0.90411 0.03469 0.11759 0.0
C16 C 0.89255 0.39002 0.10318 0.0
N17 N 0.91622 0.34978 0.0946 0.0
N18 N 0.95147 0.31315 0.10104 0.0
C19 C 0.95143 0.32911 0.11393 0.0
C20 C 0.91389 0.37802 0.11573 0.0
C21 C 0.85979 0.44701 0.09923 0.0
H22 H 0.90212 0.49234 0.09178 0.0
H23 H 0.79684 0.40895 0.09469 0.0
H24 H 0.8548 0.48218 0.1077 0.0
O25 O 0.03736 0.41059 0.07009 0.0
O26 O 0.09496 0.34579 0.08042 0.0
H27 H 0.05693 0.32392 0.12187 0.0
H28 H 0.98629 0.32478 0.13415 0.0
C29 C 0.99016 0.30145 0.12431 0.0
H30 H 0.95639 0.23195 0.12468 0.0
H31 H 0.17569 0.31192 0.10068 0.0
O32 O 0.87349 0.41787 0.06842 0.0
C33 C 0.10064 0.40212 0.07254 0.0
Co34 Co 0.59288 0.92054 0.24231 0.0
Co35 Co 0.76266 0.01675 0.25785 0.0
C36 C 0.73076 0.88121 0.2381 0.0
O37 O 0.65596 0.86525 0.23568 0.0
O38 O 0.77758 0.93808 0.24626 0.0
C39 C 0.42666 0.7903 0.23259 0.0
O40 O 0.44597 0.73332 0.23626 0.0
C41 C 0.88913 0.0354 0.2775 0.0
C42 C 0.95113 0.17173 0.28155 0.0
C43 C 0.94902 0.09832 0.28549 0.0
N44 N 0.85626 0.07011 0.26953 0.0
N45 N 0.89473 0.15182 0.27186 0.0
C46 C 0.85771 0.94287 0.27813 0.0
H47 H 0.79442 0.90714 0.27359 0.0
H48 H 0.85534 0.92253 0.28843 0.0
H49 H 0.90134 0.92874 0.27262 0.0
C50 C 0.52381 0.8922 0.26938 0.0
N51 N 0.58865 0.91993 0.26092 0.0
N52 N 0.65984 0.96101 0.26745 0.0
C53 C 0.64231 0.96113 0.28027 0.0
C54 C 0.55572 0.91711 0.28193 0.0
C55 C 0.43351 0.85152 0.26531 0.0
H56 H 0.42632 0.88927 0.25747 0.0
H57 H 0.41378 0.78811 0.2613 0.0
H58 H 0.39193 0.84537 0.27362 0.0
O59 O 0.64554 0.03804 0.23587 0.0
O60 O 0.76445 0.10721 0.24701 0.0
H61 H 0.74969 0.07196 0.28773 0.0
H62 H 0.67842 1.00505 0.3003 0.0
C63 C 0.70699 1.0059 0.29071 0.0
H64 H 0.74439 0.9742 0.29201 0.0
H65 H 0.88032 0.19359 0.26715 0.0
O66 O 0.47884 0.86763 0.23451 0.0
C67 C 0.71268 0.10602 0.23859 0.0
Co68 Co 0.68509 0.57833 0.40871 0.0
Co69 Co 0.75544 0.74761 0.4244 0.0
C70 C 0.8588 0.71645 0.40411 0.0
O71 O 0.80205 0.64095 0.40162 0.0
O72 O 0.84696 0.76097 0.41251 0.0
C73 C 0.64848 0.41435 0.39763 0.0
O74 O 0.72846 0.43847 0.39918 0.0
C75 C 0.86503 0.86656 0.44466 0.0
C76 C 0.813 0.95205 0.44628 0.0
C77 C 0.87431 0.93683 0.45133 0.0
N78 N 0.80041 0.841 0.43622 0.0
N79 N 0.76978 0.89252 0.43723 0.0
C80 C 0.91872 0.82651 0.4457 0.0
H81 H 0.88838 0.77197 0.45244 0.0
H82 H 0.98218 0.87178 0.44952 0.0
H83 H 0.92424 0.80248 0.436 0.0
C84 C 0.655 0.51092 0.43611 0.0
N85 N 0.68536 0.57476 0.42742 0.0
N86 N 0.70718 0.64519 0.43373 0.0
C87 C 0.68593 0.62815 0.44642 0.0
C88 C 0.65416 0.54236 0.44854 0.0
C89 C 0.62782 0.42193 0.43246 0.0
H90 H 0.67116 0.42099 0.425 0.0
H91 H 0.6275 0.38505 0.44109 0.0
H92 H 0.56378 0.39222 0.42815 0.0
O93 O 0.61989 0.63366 0.40242 0.0
O94 O 0.66896 0.7518 0.41383 0.0
H95 H 0.63138 0.65713 0.46305 0.0
H96 H 0.74195 0.72888 0.46036 0.0
C97 C 0.68045 0.68969 0.45548 0.0
H98 H 0.66507 0.732 0.44985 0.0
H99 H 0.71928 0.88703 0.43173 0.0
O100 O 0.62127 0.46293 0.40119 0.0
C101 C 0.61961 0.70143 0.4052 0.0
Co102 Co 0.10942 0.66781 0.57522 0.0
Co103 Co 0.02229 0.75365 0.59004 0.0
C104 C 0.15417 0.84628 0.56969 0.0
O105 O 0.16252 0.78258 0.56725 0.0
O106 O 0.10374 0.84423 0.57844 0.0
C107 C 0.23811 0.62786 0.56639 0.0
O108 O 0.29491 0.70373 0.57018 0.0
C109 C 1.00815 0.86982 0.60846 0.0
C110 C 0.87166 0.80201 0.61254 0.0
C111 C 0.94643 0.87327 0.61583 0.0
N112 N 0.97152 0.79882 0.60129 0.0
N113 N 0.88985 0.75907 0.60368 0.0
C114 C 0.09979 0.93367 0.60783 0.0
H115 H 0.13732 0.90202 0.60629 0.0
H116 H 0.12109 0.97322 0.61677 0.0
H117 H 0.11069 0.97528 0.59929 0.0
C118 C 0.13701 0.6317 0.60267 0.0
N119 N 0.11301 0.67056 0.59387 0.0
N120 N 0.07631 0.70661 0.60008 0.0
C121 C 0.07661 0.69246 0.61303 0.0
C122 C 0.11467 0.64432 0.6151 0.0
C123 C 0.17061 0.57489 0.59906 0.0
H124 H 0.13037 0.53017 0.59136 0.0
H125 H 0.23482 0.61326 0.59499 0.0
H126 H 0.17333 0.53915 0.60763 0.0
O127 O 0.99175 0.60233 0.56951 0.0
O128 O 0.92909 0.66351 0.57951 0.0
H129 H 0.97069 0.6975 0.62082 0.0
H130 H 0.0424 0.6994 0.63317 0.0
C131 C 0.0377 0.72101 0.62324 0.0
H132 H 0.07108 0.79053 0.62339 0.0
H133 H 0.84668 0.70169 0.59945 0.0
O134 O 0.1607 0.60377 0.56794 0.0
C135 C 0.92622 0.60687 0.57193 0.0
Co136 Co 0.43356 0.09804 0.74188 0.0
Co137 Co 0.26681 1.00768 0.75819 0.0
C138 C 0.2962 0.13839 0.73776 0.0
O139 O 0.37034 0.15329 0.73506 0.0
O140 O 0.25147 0.08456 0.74641 0.0
C141 C 0.60032 0.22334 0.73122 0.0
O142 O 0.58545 0.28364 0.73476 0.0
C143 C 0.14432 0.99468 0.77807 0.0
C144 C 0.08204 0.85925 0.78281 0.0
C145 C 0.08567 0.93392 0.78642 0.0
N146 N 0.17521 0.95766 0.77019 0.0
N147 N 0.13652 0.87647 0.77292 0.0
C148 C 0.17664 0.08744 0.7783 0.0
H149 H 0.23929 0.12173 0.77355 0.0
H150 H 0.18071 0.10991 0.78851 0.0
H151 H 0.13255 0.10098 0.7728 0.0
C152 C 0.5072 0.13084 0.7688 0.0
N153 N 0.44116 0.10247 0.76052 0.0
N154 N 0.371 0.06354 0.76733 0.0
C155 C 0.39028 0.06532 0.78011 0.0
C156 C 0.477 0.10842 0.78148 0.0
C157 C 0.59686 0.17021 0.76449 0.0
H158 H 0.60296 0.12989 0.75696 0.0
H159 H 0.61586 0.23212 0.75996 0.0
H160 H 0.63958 0.17929 0.7728 0.0
O161 O 0.3776 0.97871 0.73587 0.0
O162 O 0.26104 0.91482 0.74763 0.0
H163 H 0.28345 0.9562 0.78804 0.0
H164 H 0.35711 0.02424 0.80029 0.0
C165 C 0.32713 0.02253 0.79079 0.0
H166 H 0.29058 0.0551 0.79215 0.0
H167 H 0.14963 0.83332 0.76836 0.0
O168 O 0.54627 0.14734 0.73369 0.0
C169 C 0.30968 0.91254 0.73898 0.0
Co170 Co 0.34777 0.44937 0.90911 0.0
Co171 Co 0.25826 0.27806 0.92424 0.0
C172 C 0.16683 0.32211 0.90415 0.0
O173 O 0.23201 0.39238 0.90151 0.0
O174 O 0.16791 0.27298 0.91287 0.0
C175 C 0.39353 0.61668 0.89884 0.0
O176 O 0.3165 0.59969 0.90145 0.0
C177 C 0.1431 0.14998 0.94317 0.0
C178 C 0.20677 0.07563 0.94593 0.0
C179 C 0.13811 0.08205 0.94995 0.0
N180 N 0.21224 0.1827 0.93558 0.0
N181 N 0.24962 0.13757 0.93725 0.0
C182 C 0.08165 0.18116 0.9435 0.0
H183 H 0.10103 0.23491 0.93671 0.0
H184 H 0.07724 0.20143 0.95355 0.0
H185 H 0.0183 0.12924 0.94075 0.0
C186 C 0.38622 0.51507 0.93642 0.0
N187 N 0.34704 0.45165 0.92774 0.0
N188 N 0.3109 0.37959 0.9341 0.0
C189 C 0.32648 0.39496 0.947 0.0
C190 C 0.37422 0.48119 0.94892 0.0
C191 C 0.44182 0.6051 0.93263 0.0
H192 H 0.48869 0.60954 0.92534 0.0
H193 H 0.40309 0.62884 0.92794 0.0
H194 H 0.47511 0.64514 0.9412 0.0
O195 O 0.40777 0.39156 0.90305 0.0
O196 O 0.34335 0.2691 0.91329 0.0
H197 H 0.31978 0.28262 0.9545 0.0
H198 H 0.32502 0.35473 0.96706 0.0
C199 C 0.29941 0.32822 0.95728 0.0
H200 H 0.23002 0.29433 0.95797 0.0
H201 H 0.30501 0.14959 0.93255 0.0
O202 O 0.41589 0.56336 0.90171 0.0
C203 C 0.39936 0.31972 0.90539 0.0
Co204 Co 0.67771 0.11354 0.86931 0.0
Co205 Co 0.76619 0.03013 0.85418 0.0
C206 C 0.85949 0.16745 0.87384 0.0
O207 O 0.79444 0.17264 0.87667 0.0
O208 O 0.85747 0.11617 0.86522 0.0
C209 C 0.6323 0.23554 0.87976 0.0
O210 O 0.70971 0.29518 0.87735 0.0
C211 C 0.87969 0.0128 0.83537 0.0
C212 C 0.81337 0.87476 0.83276 0.0
C213 C 0.88315 0.94854 0.82873 0.0
N214 N 0.81034 0.97836 0.84292 0.0
N215 N 0.77134 0.89584 0.84134 0.0
C216 C 0.94268 0.10477 0.83502 0.0
H217 H 0.91929 0.14128 0.8405 0.0
H218 H 0.95617 0.12736 0.82477 0.0
H219 H 1.00249 0.11543 0.83945 0.0
C220 C 0.63775 0.13879 0.84195 0.0
N221 N 0.67717 0.11487 0.85065 0.0
N222 N 0.71351 0.07891 0.84432 0.0
C223 C 0.69831 0.0788 0.8314 0.0
C224 C 0.6501 0.11691 0.82945 0.0
C225 C 0.58178 0.17305 0.84574 0.0
H226 H 0.5354 0.13104 0.8531 0.0
H227 H 0.62034 0.23572 0.85034 0.0
H228 H 0.54791 0.17905 0.83717 0.0
O229 O 0.61793 0.99654 0.87561 0.0
O230 O 0.68178 0.93779 0.86534 0.0
H231 H 0.70529 0.97374 0.82367 0.0
H232 H 0.70342 0.04318 0.81126 0.0
C233 C 0.72687 0.04023 0.82114 0.0
H234 H 0.79639 0.07495 0.82079 0.0
H235 H 0.71546 0.85381 0.84603 0.0
O236 O 0.60975 0.16013 0.8767 0.0
C237 C 0.62625 0.93299 0.8733 0.0
Co238 Co 0.58348 0.68017 0.03658 0.0
Co239 Co 0.752 0.7658 1.02077 0.0
C240 C 0.71223 0.86176 0.04062 0.0
O241 O 0.64261 0.79717 0.04373 0.0
O242 O 0.75955 0.85875 0.03175 0.0
C243 C 0.41778 0.63621 0.04739 0.0
O244 O 0.43452 0.71306 0.04466 0.0
C245 C 0.87484 0.87496 1.00083 0.0
C246 C 0.94049 0.80375 0.99687 0.0
C247 C 0.93493 0.8729 0.99278 0.0
N248 N 0.84493 0.8086 1.00899 0.0
N249 N 0.88567 0.76738 1.00673 0.0
C250 C 0.8406 0.93383 1.00007 0.0
H251 H 0.7776 0.90532 1.00471 0.0
H252 H 0.83672 0.95019 0.98973 0.0
H253 H 0.88348 0.99264 1.0054 0.0
C254 C 0.51283 0.63847 1.00958 0.0
N255 N 0.57792 0.67798 1.01796 0.0
N256 N 0.6488 0.71177 1.01131 0.0
C257 C 0.63091 0.69393 0.99849 0.0
C258 C 0.54435 0.64755 0.99696 0.0
C259 C 0.42316 0.5857 1.01374 0.0
H260 H 0.41814 0.53841 1.021 0.0
H261 H 0.40235 0.62645 1.01857 0.0
H262 H 0.38118 0.553 1.00532 0.0
O263 O 0.6413 0.62011 0.04259 0.0
O264 O 0.76219 0.6824 0.03192 0.0
H265 H 0.66679 0.68777 0.97841 0.0
H266 H 0.72856 0.78625 0.98654 0.0
C267 C 0.69534 0.71727 0.98793 0.0
H268 H 0.74172 0.69819 0.9908 0.0
H269 H 0.87367 0.71238 1.01156 0.0
O270 O 0.47065 0.61349 0.04441 0.0
C271 C 0.71252 0.62764 0.04005 0.0
Co272 Co 0.9248 0.58804 0.20317 0.0
Co273 Co 0.02011 0.7583 0.18788 0.0
C274 C 0.88536 0.72488 0.2079 0.0
O275 O 0.86894 0.64975 0.21012 0.0
O276 O 0.94209 0.7719 0.19977 0.0
C277 C 0.79565 0.42196 0.2128 0.0
O278 O 0.73892 0.44212 0.20935 0.0
C279 C 0.02971 0.88164 0.16861 0.0
C280 C 0.16553 0.9508 0.16409 0.0
C281 C 0.0894 0.94431 0.16062 0.0
N282 N 0.06903 0.85229 0.17629 0.0
N283 N 0.15034 0.89487 0.17369 0.0
C284 C 0.93612 0.84333 0.1681 0.0
H285 H 0.905 0.77689 0.17142 0.0
H286 H 0.91492 0.84679 0.15806 0.0
H287 H 0.91698 0.87816 0.17486 0.0
C288 C 0.89532 0.52001 0.17599 0.0
N289 N 0.92314 0.58446 0.18456 0.0
N290 N 0.96475 0.65595 0.17815 0.0
C291 C 0.96562 0.63905 0.16531 0.0
C292 C 0.92108 0.55255 0.16351 0.0
C293 C 0.8537 0.4294 0.1799 0.0
H294 H 0.89208 0.42092 0.18749 0.0
H295 H 0.79127 0.41066 0.18418 0.0
H296 H 0.84537 0.38793 0.17144 0.0
O297 O 0.04298 0.64166 0.20945 0.0
O298 O 0.11216 0.76089 0.19839 0.0
H299 H 0.07739 0.7477 0.15843 0.0
H300 H 0.01492 0.67582 0.14557 0.0
C301 C 1.01247 0.70412 0.15503 0.0
H302 H 0.98021 0.74061 0.15326 0.0
H303 H 0.19502 0.88351 0.17812 0.0
O304 O 0.87293 0.47369 0.21079 0.0
C305 C 0.11103 0.70876 0.20674 0.0
Co306 Co 0.34416 0.9105 0.36898 0.0
Co307 Co 0.2706 1.00781 0.35362 0.0
C308 C 0.16882 0.87476 0.37376 0.0
O309 O 0.22653 0.85674 0.37599 0.0
O310 O 0.1791 0.9311 0.36549 0.0
C311 C 0.38574 0.78122 0.37861 0.0
O312 O 0.31161 0.72068 0.37481 0.0
C313 C 0.15955 0.02735 0.3346 0.0
C314 C 0.22863 0.16499 0.33162 0.0
C315 C 0.15771 0.09162 0.32772 0.0
N316 N 0.22907 0.06123 0.34214 0.0
N317 N 0.26973 0.14358 0.34034 0.0
C318 C 0.09497 0.93584 0.33439 0.0
H319 H 0.11142 0.90025 0.34144 0.0
H320 H 0.09048 0.90986 0.32443 0.0
H321 H 0.03246 0.92789 0.33685 0.0
C322 C 0.38482 0.88364 0.34177 0.0
N323 N 0.34653 0.9097 0.35034 0.0
N324 N 0.31557 0.95054 0.34392 0.0
C325 C 0.3331 0.95159 0.33109 0.0
C326 C 0.37732 0.90913 0.32928 0.0
C327 C 0.43697 0.84533 0.34574 0.0
H328 H 0.48117 0.88367 0.35362 0.0
H329 H 0.3951 0.78139 0.34968 0.0
H330 H 0.47324 0.84088 0.33739 0.0
O331 O 0.4104 0.0287 0.37532 0.0
O332 O 0.36064 0.09838 0.36424 0.0
H333 H 0.338 0.06334 0.3237 0.0
H334 H 0.33652 0.99333 0.31105 0.0
C335 C 0.31211 0.99657 0.32083 0.0
H336 H 0.24299 0.96689 0.32003 0.0
H337 H 0.32604 0.1852 0.34499 0.0
O338 O 0.40586 0.85739 0.37663 0.0
C339 C 0.41159 0.097 0.37257 0.0
Co340 Co 0.44536 0.33354 0.53631 0.0
Co341 Co 0.27676 0.2612 0.52059 0.0
C342 C 0.31165 0.15651 0.54 0.0
O343 O 0.38338 0.21747 0.54323 0.0
O344 O 0.26611 0.16486 0.53134 0.0
C345 C 0.606 0.36901 0.54796 0.0
O346 O 0.57936 0.28808 0.54705 0.0
C347 C 0.15678 0.15424 0.50023 0.0
C348 C 0.07879 0.21428 0.49786 0.0
C349 C 0.08977 0.14948 0.49315 0.0
N350 N 0.18371 0.21873 0.50873 0.0
N351 N 0.13633 0.25385 0.50733 0.0
C352 C 0.19911 0.10324 0.49833 0.0
H353 H 0.26648 0.14057 0.50111 0.0
H354 H 0.19296 0.08152 0.48804 0.0
H355 H 0.16898 0.04733 0.50481 0.0
C356 C 0.51501 0.36826 0.50937 0.0
N357 N 0.4496 0.33544 0.51773 0.0
N358 N 0.38007 0.31471 0.51124 0.0
C359 C 0.39952 0.33903 0.49868 0.0
C360 C 0.48611 0.37371 0.49695 0.0
C361 C 0.60149 0.38716 0.51322 0.0
H362 H 0.59691 0.33752 0.51993 0.0
H363 H 0.63921 0.39 0.50454 0.0
H364 H 0.6336 0.4478 0.5186 0.0
O365 O 0.39113 0.39746 0.54261 0.0
O366 O 0.26995 0.34485 0.53202 0.0
H367 H 0.369 0.38957 0.48174 0.0
H368 H 0.30621 0.27711 0.48385 0.0
C369 C 0.33765 0.33845 0.48904 0.0
H370 H 0.28917 0.34687 0.49418 0.0
H371 H 0.14443 0.306 0.51265 0.0
O372 O 0.55979 0.39749 0.54381 0.0
C373 C 0.32242 0.39628 0.54028 0.0
Co374 Co 0.10107 0.42914 0.70252 0.0
Co375 Co 1.01142 0.26181 0.68626 0.0
C376 C 0.14192 0.29215 0.70678 0.0
O377 O 0.15672 0.3664 0.70941 0.0
O378 O 0.08812 0.24699 0.69814 0.0
C379 C 0.2266 0.59657 0.71298 0.0
O380 O 0.28672 0.5819 0.70928 0.0
C381 C 0.99979 0.13753 0.66684 0.0
C382 C 0.86491 0.07494 0.66166 0.0
C383 C 0.93962 0.07724 0.65856 0.0
N384 N 0.9621 0.16962 0.67431 0.0
N385 N 0.8813 0.13091 0.67131 0.0
C386 C 0.09276 0.17109 0.66682 0.0
H387 H 0.12635 0.23739 0.67025 0.0
H388 H 0.11499 0.16671 0.6569 0.0
H389 H 0.10775 0.13369 0.67372 0.0
C390 C 0.13107 0.50192 0.67561 0.0
N391 N 0.1049 0.4362 0.68388 0.0
N392 N 0.06726 0.36575 0.67709 0.0
C393 C 0.06839 0.38453 0.66431 0.0
C394 C 0.10874 0.47124 0.66294 0.0
C395 C 0.16765 0.59141 0.67993 0.0
H396 H 0.1266 0.59582 0.68749 0.0
H397 H 0.23016 0.61264 0.68441 0.0
H398 H 0.17485 0.6335 0.67163 0.0
O399 O 0.98195 0.37308 0.70849 0.0
O400 O 0.91822 0.25623 0.69672 0.0
H401 H 0.96017 0.27793 0.6561 0.0
H402 H 0.03123 0.35043 0.644 0.0
C403 C 0.02714 0.32076 0.65363 0.0
H404 H 0.05896 0.28323 0.6527 0.0
H405 H 0.83788 0.1449 0.67553 0.0
O406 O 0.15046 0.54212 0.71067 0.0
C407 C 0.91585 0.30507 0.70535 0.0
C408 C 0.74024 0.93811 0.06191 0.0
C409 C 0.74264 0.94051 0.04814 0.0
C410 C 0.77912 0.01255 0.06931 0.0
C411 C 0.81908 0.0918 0.0632 0.0
H412 H 0.71164 0.87831 0.06698 0.0
H413 H 0.77896 1.00811 0.07989 0.0
S414 S 0.83795 0.13184 0.02745 0.0
N415 N 0.78611 0.02823 0.0287 0.0
N416 N 0.85578 0.1682 0.04261 0.0
C417 C 0.81849 0.09497 0.04946 0.0
C418 C 0.78118 0.01925 0.04193 0.0
C419 C 0.88924 0.84641 0.21943 0.0
C420 C 0.84296 0.76157 0.21557 0.0
C421 C 0.8525 0.88357 0.22691 0.0
C422 C 0.76731 0.8381 0.23056 0.0
H423 H 0.95499 0.88429 0.21681 0.0
H424 H 0.89093 0.94909 0.22967 0.0
S425 S 0.61811 0.61431 0.22279 0.0
N426 N 0.70754 0.63266 0.21603 0.0
N427 N 0.63732 0.70369 0.22971 0.0
C428 C 0.71984 0.75341 0.22666 0.0
C429 C 0.75799 0.7148 0.21929 0.0
C430 C 0.9769 0.71056 0.39246 0.0
C431 C 0.93797 0.75651 0.39645 0.0
C432 C 0.05248 0.74916 0.38528 0.0
C433 C 0.09002 0.83419 0.38151 0.0
H434 H 0.94945 0.6448 0.39506 0.0
H435 H 0.08092 0.71193 0.38248 0.0
S436 S 1.01204 0.9813 0.38929 0.0
N437 N 0.9427 0.89148 0.39606 0.0
N438 N 0.08254 0.9629 0.38235 0.0
C439 C 0.05105 0.88028 0.38534 0.0
C440 C 0.97562 0.84174 0.39286 0.0
C441 C 0.28381 0.07709 0.56093 0.0
C442 C 0.27746 0.07623 0.5472 0.0
C443 C 0.24479 1.00209 0.56816 0.0
C444 C 0.20077 0.92363 0.56186 0.0
H445 H 0.31632 0.13633 0.56616 0.0
H446 H 0.24847 1.00547 0.57875 0.0
S447 S 0.16936 0.88707 0.5261 0.0
N448 N 0.22496 0.99049 0.52758 0.0
N449 N 0.15494 0.8492 0.54114 0.0
C450 C 0.1966 0.92171 0.54812 0.0
C451 C 0.23407 0.99816 0.54079 0.0
C452 C 0.30419 0.26279 0.72592 0.0
C453 C 0.25737 0.17824 0.72994 0.0
C454 C 0.26655 0.30034 0.71858 0.0
C455 C 0.18177 0.25363 0.71466 0.0
H456 H 0.36982 0.30038 0.72863 0.0
H457 H 0.30427 0.36576 0.71577 0.0
S458 S 0.03281 0.02974 0.72246 0.0
N459 N 0.12194 0.04924 0.72943 0.0
N460 N 0.05238 0.11863 0.7154 0.0
C461 C 0.13488 0.16891 0.71852 0.0
C462 C 0.17238 0.13152 0.72621 0.0
C463 C 0.93579 0.21734 0.8951 0.0
C464 C 0.93796 0.21718 0.88134 0.0
C465 C 1.01041 0.25353 0.90247 0.0
C466 C 0.0895 0.29324 0.89631 0.0
H467 H 0.87613 0.18559 0.9002 0.0
H468 H 1.00624 0.24917 0.91305 0.0
S469 S 0.12874 0.31438 0.86054 0.0
N470 N 0.02522 0.26195 0.86186 0.0
N471 N 0.16542 0.33335 0.87568 0.0
C472 C 0.09236 0.29703 0.88257 0.0
C473 C 0.01653 0.25803 0.87509 0.0
C474 C 0.11882 0.04484 0.12724 0.0
C475 C 0.069 0.0831 0.12787 0.0
C476 C 0.1226 0.99798 0.13777 0.0
C477 C 0.07734 0.98832 0.14938 0.0
H478 H 0.15654 0.05268 0.11863 0.0
H479 H 0.16248 0.97017 0.13689 0.0
S480 S 0.9431 0.08246 0.15627 0.0
N481 N 0.97609 0.11159 0.14112 0.0
N482 N 0.98438 0.02477 0.16107 0.0
C483 C 0.02705 0.02625 0.15012 0.0
C484 C 0.02268 0.07348 0.13932 0.0
C485 C 0.02986 0.03698 0.29635 0.0
C486 C 0.99617 0.09121 0.29679 0.0
C487 C 0.07936 0.03454 0.30666 0.0
C488 C 0.09708 0.08649 0.31772 0.0
H489 H 0.02101 0.99868 0.28779 0.0
H490 H 0.10713 0.99472 0.30568 0.0
S491 S 0.02004 0.23549 0.32409 0.0
N492 N 0.98077 0.19475 0.30961 0.0
N493 N 0.07487 0.19092 0.32878 0.0
C494 C 0.06262 0.13961 0.3184 0.0
C495 C 1.01193 0.14178 0.30799 0.0
C496 C 0.02667 0.12778 0.47094 0.0
C497 C 0.04159 0.09303 0.48219 0.0
C498 C 0.97476 0.07646 0.46084 0.0
C499 C 0.93563 0.98834 0.46159 0.0
H500 H 0.05449 0.19536 0.47001 0.0
H501 H 0.96415 0.10607 0.45244 0.0
S502 S 0.94854 0.86572 0.48948 0.0
N503 N 1.01002 0.96494 0.4938 0.0
N504 N 0.91171 0.86823 0.47483 0.0
C505 C 0.95006 0.95255 0.47278 0.0
C506 C 1.00329 1.005 0.48308 0.0
C507 C 0.9074 0.02416 0.63566 0.0
C508 C 0.95029 0.0314 0.64745 0.0
C509 C 0.90955 0.97561 0.62523 0.0
C510 C 0.95536 0.93327 0.62617 0.0
H511 H 0.87063 0.05522 0.63454 0.0
H512 H 0.87377 0.96981 0.61646 0.0
S513 S 0.07335 0.9262 0.65514 0.0
N514 N 0.03628 0.9881 0.65965 0.0
N515 N 0.04172 0.89828 0.63989 0.0
C516 C 0.99918 0.94032 0.63782 0.0
C517 C 0.99642 0.98921 0.6485 0.0
C518 C 1.0058 0.99692 0.797 0.0
C519 C 0.04126 0.94434 0.79776 0.0
C520 C 0.95774 1.0014 0.80735 0.0
C521 C 0.94375 0.95352 0.81878 0.0
H522 H 1.0119 0.03192 0.78815 0.0
H523 H 0.92791 0.03919 0.8061 0.0
S524 S 0.02757 0.81121 0.82608 0.0
N525 N 0.06291 0.84737 0.81126 0.0
N526 N 0.97187 0.85527 0.83055 0.0
C527 C 0.98056 0.90262 0.8198 0.0
C528 C 0.02953 0.89818 0.80934 0.0
C529 C 1.01356 0.01347 0.98159 0.0
C530 C 0.97884 0.92557 0.98125 0.0
C531 C 0.06201 0.06409 0.97112 0.0
C532 C 0.07708 0.02833 0.95999 0.0
H533 H 1.00666 0.04378 0.99022 0.0
H534 H 0.0914 0.13174 0.97208 0.0
S535 S 0.99437 0.80139 0.95376 0.0
N536 N 0.95832 0.80486 0.96842 0.0
N537 N 0.04991 0.90013 0.9489 0.0
C538 C 0.04057 0.94062 0.95936 0.0
C539 C 0.99128 0.8892 0.96994 0.0
C540 C 0.27013 0.59114 0.0542 0.0
C541 C 0.33786 0.57565 0.05389 0.0
C542 C 0.19378 0.53442 0.06016 0.0
C543 C 0.18225 0.46028 0.06621 0.0
H544 H 0.27569 0.64718 0.0497 0.0
H545 H 0.1436 0.54942 0.0601 0.0
S546 S 0.34063 0.39074 0.06828 0.0
N547 N 0.38871 0.48069 0.06026 0.0
N548 N 0.2456 0.37468 0.07152 0.0
C549 C 0.2497 0.44422 0.06604 0.0
C550 C 0.32726 0.50163 0.05987 0.0
C551 C 0.83299 0.33056 0.22601 0.0
C552 C 0.77155 0.34042 0.21923 0.0
C553 C 0.81316 0.25493 0.23225 0.0
C554 C 0.73119 0.18531 0.23186 0.0
H555 H 0.8972 0.38202 0.22663 0.0
H556 H 0.86294 0.25103 0.23735 0.0
S557 S 0.54704 0.17776 0.21527 0.0
N558 N 0.62512 0.27386 0.21245 0.0
N559 N 0.58771 0.13121 0.22407 0.0
C560 C 0.669 0.194 0.22505 0.0
C561 C 0.68916 0.2716 0.21878 0.0
C562 C 0.43314 0.67942 0.38542 0.0
C563 C 0.44634 0.76198 0.38529 0.0
C564 C 0.48981 0.66033 0.39171 0.0
C565 C 0.56138 0.72287 0.39827 0.0
H566 H 0.37878 0.62902 0.38058 0.0
H567 H 0.47674 0.59582 0.39158 0.0
S568 S 0.62583 0.94949 0.40068 0.0
N569 N 0.53754 0.90714 0.3922 0.0
N570 N 0.64315 0.87135 0.40398 0.0
C571 C 0.57549 0.80578 0.39816 0.0
C572 C 0.51832 0.8253 0.39169 0.0
C573 C 0.77919 0.56257 0.56485 0.0
C574 C 0.84521 0.54473 0.56583 0.0
C575 C 0.70253 0.50551 0.55898 0.0
C576 C 0.68816 0.42762 0.55405 0.0
H577 H 0.78695 0.62154 0.5685 0.0
H578 H 0.65382 0.52247 0.55843 0.0
S579 S 0.83995 0.34956 0.55438 0.0
N580 N 0.89085 0.44291 0.56143 0.0
N581 N 0.74631 0.33551 0.55056 0.0
C582 C 0.75322 0.4085 0.55507 0.0
C583 C 0.83181 0.46707 0.5609 0.0
C584 C 0.32871 0.74564 0.71944 0.0
C585 C 0.24652 0.6763 0.71972 0.0
C586 C 0.34844 0.82183 0.7256 0.0
C587 C 0.287 0.83145 0.73243 0.0
H588 H 0.37823 0.74146 0.71432 0.0
H589 H 0.41264 0.87334 0.72508 0.0
S590 S 0.06208 0.6687 0.73619 0.0
N591 N 0.10308 0.62226 0.72746 0.0
N592 N 0.14017 0.76471 0.73904 0.0
C593 C 0.20458 0.76241 0.73284 0.0
C594 C 0.18435 0.68516 0.72648 0.0
C595 C 0.53185 0.35853 0.89305 0.0
C596 C 0.45704 0.29596 0.89888 0.0
C597 C 0.58814 0.33855 0.88694 0.0
C598 C 0.57154 0.25504 0.88625 0.0
H599 H 0.54775 0.42391 0.89329 0.0
H600 H 0.64486 0.38906 0.88264 0.0
S601 S 0.38409 0.06727 0.89989 0.0
N602 N 0.36934 0.1467 0.90353 0.0
N603 N 0.47446 0.10893 0.89199 0.0
C604 C 0.49667 0.19164 0.89198 0.0
C605 C 0.43973 0.21213 0.89832 0.0
C606 C 0.49489 0.84056 0.88594 0.0
C607 C 0.56881 0.85194 0.87985 0.0
C608 C 0.43855 0.76441 0.89201 0.0
C609 C 0.45422 0.69677 0.89238 0.0
H610 H 0.4797 0.89061 0.88593 0.0
H611 H 0.38252 0.75884 0.89651 0.0
S612 S 0.63903 0.69395 0.87799 0.0
N613 N 0.65465 0.78872 0.87463 0.0
N614 N 0.54937 0.64604 0.88608 0.0
C615 C 0.52819 0.70735 0.8864 0.0
C616 C 0.58521 0.78468 0.88012 0.0
C617 C 0.69471 0.44004 0.05874 0.0
C618 C 0.77797 0.45584 0.05909 0.0
C619 C 0.67449 0.49627 0.05267 0.0
C620 C 0.73654 0.57019 0.04655 0.0
H621 H 0.64461 0.38403 0.06326 0.0
H622 H 0.60931 0.48102 0.05268 0.0
S623 S 0.96439 0.64077 0.04464 0.0
N624 N 0.92328 0.55115 0.05275 0.0
N625 N 0.88505 0.65619 0.04129 0.0
C626 C 0.82011 0.58669 0.04679 0.0
C627 C 0.84087 0.5298 0.05308 0.0
C628 C 0.336 0.82797 0.21923 0.0
C629 C 0.34534 0.76643 0.22608 0.0
C630 C 0.26046 0.8085 0.21298 0.0
C631 C 0.1904 0.72682 0.21342 0.0
H632 H 0.38777 0.89201 0.21858 0.0
H633 H 0.25697 0.85838 0.20785 0.0
S634 S 0.18149 0.54245 0.23014 0.0
N635 N 0.27787 0.62015 0.23295 0.0
N636 N 0.13543 0.58341 0.2213 0.0
C637 C 0.19863 0.66449 0.22028 0.0
C638 C 0.27612 0.68427 0.22656 0.0
C639 C 0.51482 0.32063 0.38568 0.0
C640 C 0.58967 0.33231 0.39145 0.0
C641 C 0.45817 0.24469 0.37958 0.0
C642 C 0.47312 0.17651 0.37917 0.0
H643 H 0.50012 0.37103 0.38572 0.0
H644 H 0.40177 0.23933 0.37524 0.0
S645 S 0.65913 0.17381 0.39304 0.0
N646 N 0.67555 0.26892 0.39644 0.0
N647 N 0.56851 0.12557 0.38515 0.0
C648 C 0.54737 0.1869 0.38502 0.0
C649 C 0.60577 0.26489 0.39109 0.0
C650 C 0.20126 0.49971 0.55305 0.0
C651 C 0.26232 0.57024 0.56 0.0
C652 C 0.22139 0.44423 0.54674 0.0
C653 C 0.3033 0.45618 0.5472 0.0
H654 H 0.13715 0.48741 0.55234 0.0
H655 H 0.17193 0.39129 0.54149 0.0
S656 S 0.48634 0.63031 0.56433 0.0
N657 N 0.40816 0.64858 0.5671 0.0
N658 N 0.4462 0.54406 0.55533 0.0
C659 C 0.36504 0.52612 0.55422 0.0
C660 C 0.34455 0.58318 0.56058 0.0
C661 C 0.74917 0.32513 0.72472 0.0
C662 C 0.67986 0.24291 0.72449 0.0
C663 C 0.82525 0.34451 0.71859 0.0
C664 C 0.83478 0.28269 0.71184 0.0
H665 H 0.74509 0.37492 0.72978 0.0
H666 H 0.87677 0.40875 0.71908 0.0
S667 S 0.67195 0.05758 0.70821 0.0
N668 N 0.62566 0.09903 0.71686 0.0
N669 N 0.76791 0.13551 0.70533 0.0
C670 C 0.76572 0.20025 0.71147 0.0
C671 C 0.68859 0.18037 0.7178 0.0
C672 C 0.99152 0.51734 0.14576 0.0
C673 C 0.91688 0.50609 0.15144 0.0
C674 C 0.98983 0.47614 0.13413 0.0
C675 C 0.91338 0.42161 0.12787 0.0
H676 H 0.05166 0.55863 0.15032 0.0
H677 H 0.04878 0.48701 0.12997 0.0
S678 S 0.70068 0.36983 0.13895 0.0
N679 N 0.76464 0.43659 0.15008 0.0
N680 N 0.76133 0.35768 0.12824 0.0
C681 C 0.8383 0.40939 0.13349 0.0
C682 C 0.84005 0.45167 0.14533 0.0
C683 C 0.52283 0.98738 0.30001 0.0
C684 C 0.50878 0.91265 0.29395 0.0
C685 C 0.4808 0.98545 0.31154 0.0
C686 C 0.42228 0.90869 0.31729 0.0
H687 H 0.56682 0.04783 0.2958 0.0
H688 H 0.49396 0.04448 0.31598 0.0
S689 S 0.36259 0.69563 0.30518 0.0
N690 N 0.43296 0.75994 0.2945 0.0
N691 N 0.35204 0.75625 0.31611 0.0
C692 C 0.40741 0.8335 0.31133 0.0
C693 C 0.45077 0.83549 0.29961 0.0
C694 C 0.50247 0.37739 0.47252 0.0
C695 C 0.5353 0.41372 0.48482 0.0
C696 C 0.54173 0.41825 0.46084 0.0
C697 C 0.61808 0.49505 0.46095 0.0
H698 H 0.44434 0.3179 0.47187 0.0
H699 H 0.51021 0.39051 0.4517 0.0
S700 S 0.73617 0.61265 0.49047 0.0
N701 N 0.64939 0.53222 0.49627 0.0
N702 N 0.73056 0.60041 0.47444 0.0
C703 C 0.65506 0.52875 0.47317 0.0
C704 C 0.61221 0.49016 0.48506 0.0
C705 C 0.18819 0.61503 0.63331 0.0
C706 C 0.113 0.60025 0.62731 0.0
C707 C 0.18683 0.5746 0.64508 0.0
C708 C 0.11023 0.51807 0.65108 0.0
H709 H 0.24818 0.65821 0.6289 0.0
H710 H 0.24574 0.58655 0.6494 0.0
S711 S 0.89655 0.45822 0.63925 0.0
N712 N 0.96032 0.5245 0.62811 0.0
N713 N 0.95792 0.45084 0.65038 0.0
C714 C 0.03493 0.50359 0.64523 0.0
C715 C 0.03626 0.54393 0.63326 0.0
C716 C 0.51228 0.0387 0.7993 0.0
C717 C 0.52476 0.1133 0.79341 0.0
C718 C 0.55266 0.04067 0.81103 0.0
C719 C 0.60745 0.11735 0.8172 0.0
H720 H 0.47025 0.97833 0.79485 0.0
H721 H 0.54078 0.98174 0.81533 0.0
S722 S 0.66245 0.33006 0.8056 0.0
N723 N 0.59585 0.26576 0.79448 0.0
N724 N 0.67317 0.2696 0.81653 0.0
C725 C 0.62107 0.19242 0.81137 0.0
C726 C 0.57969 0.19039 0.79941 0.0
C727 C 0.51312 0.54425 0.979 0.0
C728 C 0.49811 0.60469 0.98493 0.0
C729 C 0.47315 0.50516 0.96728 0.0
C730 C 0.41644 0.52482 0.96116 0.0
H731 H 0.55655 0.52756 0.98342 0.0
H732 H 0.48676 0.45928 0.96294 0.0
S733 S 0.35517 0.67804 0.97284 0.0
N734 N 0.42292 0.68236 0.98393 0.0
N735 N 0.34668 0.60782 0.96188 0.0
C736 C 0.40059 0.58482 0.96701 0.0
C737 C 0.44142 0.62474 0.97896 0.0
loop_
_geom_bond_atom_site_label_1
_geom_bond_atom_site_label_2
_geom_bond_distance
_geom_bond_site_symmetry_2
_ccdc_geom_bond_type
Co0 O3 1.970 . S
Co0 N17 1.989 . S
Co0 O25 1.967 1_655 S
Co0 O32 1.920 . S
Co1 O4 1.966 1_455 S
Co1 N10 2.022 . S
Co1 N18 1.993 . S
Co1 O26 1.941 . S
C2 O3 1.258 . S
C2 O4 1.263 . S
O3 Co0 1.970 . S
O3 C2 1.258 . S
O4 Co1 1.966 1_655 S
O4 C2 1.263 . S
C5 O6 1.235 . S
C5 O32 1.289 . S
O6 C5 1.235 . S
C7 C9 1.400 . S
C7 N10 1.351 . S
C7 C12 1.501 1_455 S
C8 C9 1.387 . S
C8 N11 1.341 . S
C9 C7 1.400 . S
C9 C8 1.387 . S
N10 Co1 2.022 . S
N10 C7 1.351 . S
N10 N11 1.365 . S
N11 C8 1.341 . S
N11 N10 1.365 . S
N11 H31 0.862 . S
C12 C7 1.501 1_655 S
C12 H13 0.961 . S
C12 H14 0.961 . S
C12 H15 0.960 . S
H13 C12 0.961 . S
H14 C12 0.961 . S
H15 C12 0.960 . S
C16 N17 1.342 . S
C16 C20 1.401 . S
C16 C21 1.499 . S
N17 Co0 1.989 . S
N17 C16 1.342 . S
N17 N18 1.388 1_655 S
N18 Co1 1.993 . S
N18 N17 1.388 1_455 S
N18 C19 1.346 . S
C19 N18 1.346 . S
C19 C20 1.396 1_455 S
C19 C29 1.510 . S
C20 C16 1.401 . S
C20 C19 1.396 1_655 S
C21 C16 1.499 . S
C21 H22 0.959 . S
C21 H23 0.960 . S
C21 H24 0.961 . S
H22 C21 0.959 . S
H23 C21 0.960 . S
H24 C21 0.961 . S
O25 Co0 1.967 1_455 S
O25 C33 1.258 . S
O26 Co1 1.941 . S
O26 C33 1.266 . S
H27 C29 0.959 . S
H28 C29 0.961 1_655 S
C29 C19 1.510 . S
C29 H27 0.959 . S
C29 H28 0.961 1_455 S
C29 H30 0.960 . S
H30 C29 0.960 . S
H31 N11 0.862 . S
O32 Co0 1.920 . S
O32 C5 1.289 . S
C33 O25 1.258 . S
C33 O26 1.266 . S
Co34 O37 1.970 . S
Co34 N51 1.989 . S
Co34 O59 1.967 1_565 S
Co34 O66 1.920 . S
Co35 O38 1.966 1_545 S
Co35 N44 2.022 . S
Co35 N52 1.993 . S
Co35 O60 1.941 . S
C36 O37 1.258 . S
C36 O38 1.263 . S
O37 Co34 1.970 . S
O37 C36 1.258 . S
O38 Co35 1.966 1_565 S
O38 C36 1.263 . S
C39 O40 1.235 . S
C39 O66 1.289 . S
O40 C39 1.235 . S
C41 C43 1.400 . S
C41 N44 1.351 . S
C41 C46 1.501 1_545 S
C42 C43 1.387 . S
C42 N45 1.341 . S
C43 C41 1.400 . S
C43 C42 1.387 . S
N44 Co35 2.022 . S
N44 C41 1.351 . S
N44 N45 1.365 . S
N45 C42 1.341 . S
N45 N44 1.365 . S
N45 H65 0.862 . S
C46 C41 1.501 1_565 S
C46 H47 0.961 . S
C46 H48 0.961 . S
C46 H49 0.960 . S
H47 C46 0.961 . S
H48 C46 0.961 . S
H49 C46 0.960 . S
C50 N51 1.342 . S
C50 C54 1.401 . S
C50 C55 1.499 . S
N51 Co34 1.989 . S
N51 C50 1.342 . S
N51 N52 1.388 1_565 S
N52 Co35 1.993 . S
N52 N51 1.388 1_545 S
N52 C53 1.347 1_545 S
C53 N52 1.347 1_565 S
C53 C54 1.392 . S
C53 C63 1.513 1_565 S
C54 C50 1.401 . S
C54 C53 1.392 . S
C55 C50 1.499 . S
C55 H56 0.959 . S
C55 H57 0.960 . S
C55 H58 0.961 . S
H56 C55 0.959 . S
H57 C55 0.960 . S
H58 C55 0.961 . S
O59 Co34 1.967 1_545 S
O59 C67 1.258 . S
O60 Co35 1.941 . S
O60 C67 1.266 . S
H61 C63 0.959 . S
H62 C63 0.961 1_565 S
C63 C53 1.513 1_545 S
C63 H61 0.959 . S
C63 H62 0.961 1_545 S
C63 H64 0.960 . S
H64 C63 0.960 . S
H65 N45 0.862 . S
O66 Co34 1.920 . S
O66 C39 1.289 . S
C67 O59 1.258 . S
C67 O60 1.266 . S
Co68 O71 1.970 . S
Co68 N85 1.989 . S
Co68 O93 1.967 . S
Co68 O100 1.920 . S
Co69 O72 1.966 . S
Co69 N78 2.022 . S
Co69 N86 1.993 . S
Co69 O94 1.941 . S
C70 O71 1.258 . S
C70 O72 1.263 . S
O71 Co68 1.970 . S
O71 C70 1.258 . S
O72 Co69 1.966 . S
O72 C70 1.263 . S
C73 O74 1.235 . S
C73 O100 1.289 . S
O74 C73 1.235 . S
C75 C77 1.400 . S
C75 N78 1.351 . S
C75 C80 1.501 . S
C76 C77 1.387 . S
C76 N79 1.341 . S
C77 C75 1.400 . S
C77 C76 1.387 . S
N78 Co69 2.022 . S
N78 C75 1.351 . S
N78 N79 1.365 . S
N79 C76 1.341 . S
N79 N78 1.365 . S
N79 H99 0.862 . S
C80 C75 1.501 . S
C80 H81 0.961 . S
C80 H82 0.961 . S
C80 H83 0.960 1_655 S
H81 C80 0.961 . S
H82 C80 0.961 . S
H83 C80 0.960 1_455 S
C84 N85 1.342 . S
C84 C88 1.401 . S
C84 C89 1.499 . S
N85 Co68 1.989 . S
N85 C84 1.342 . S
N85 N86 1.388 . S
N86 Co69 1.993 . S
N86 N85 1.388 . S
N86 C87 1.346 . S
C87 N86 1.346 . S
C87 C88 1.396 . S
C87 C97 1.510 . S
C88 C84 1.401 . S
C88 C87 1.396 . S
C89 C84 1.499 . S
C89 H90 0.959 . S
C89 H91 0.960 . S
C89 H92 0.961 . S
H90 C89 0.959 . S
H91 C89 0.960 . S
H92 C89 0.961 . S
O93 Co68 1.967 . S
O93 C101 1.258 . S
O94 Co69 1.941 . S
O94 C101 1.266 . S
H95 C97 0.959 . S
H96 C97 0.961 . S
C97 C87 1.510 . S
C97 H95 0.959 . S
C97 H96 0.961 . S
C97 H98 0.960 . S
H98 C97 0.960 . S
H99 N79 0.862 . S
O100 Co68 1.920 . S
O100 C73 1.289 . S
C101 O93 1.258 . S
C101 O94 1.266 . S
Co102 O105 1.970 . S
Co102 N119 1.989 . S
Co102 O127 1.967 1_455 S
Co102 O134 1.920 . S
Co103 O106 1.966 1_655 S
Co103 N112 2.022 . S
Co103 N120 1.993 . S
Co103 O128 1.941 . S
C104 O105 1.258 . S
C104 O106 1.263 . S
O105 Co102 1.970 . S
O105 C104 1.258 . S
O106 Co103 1.966 1_455 S
O106 C104 1.263 . S
C107 O108 1.235 . S
C107 O134 1.289 . S
O108 C107 1.235 . S
C109 C111 1.400 . S
C109 N112 1.351 . S
C109 C114 1.501 1_655 S
C110 C111 1.387 . S
C110 N113 1.341 . S
C111 C109 1.400 . S
C111 C110 1.387 . S
N112 Co103 2.022 . S
N112 C109 1.351 . S
N112 N113 1.365 . S
N113 C110 1.341 . S
N113 N112 1.365 . S
N113 H133 0.862 . S
C114 C109 1.501 1_455 S
C114 H115 0.961 . S
C114 H116 0.961 . S
C114 H117 0.960 . S
H115 C114 0.961 . S
H116 C114 0.961 . S
H117 C114 0.960 . S
C118 N119 1.342 . S
C118 C122 1.401 . S
C118 C123 1.499 . S
N119 Co102 1.989 . S
N119 C118 1.342 . S
N119 N120 1.388 1_455 S
N120 Co103 1.993 . S
N120 N119 1.388 1_655 S
N120 C121 1.346 . S
C121 N120 1.346 . S
C121 C122 1.396 1_655 S
C121 C131 1.510 . S
C122 C118 1.401 . S
C122 C121 1.396 1_455 S
C123 C118 1.499 . S
C123 H124 0.959 . S
C123 H125 0.960 . S
C123 H126 0.961 . S
H124 C123 0.959 . S
H125 C123 0.960 . S
H126 C123 0.961 . S
O127 Co102 1.967 1_655 S
O127 C135 1.258 . S
O128 Co103 1.941 . S
O128 C135 1.266 . S
H129 C131 0.959 . S
H130 C131 0.961 1_455 S
C131 C121 1.510 . S
C131 H129 0.959 . S
C131 H130 0.961 1_655 S
C131 H132 0.960 . S
H132 C131 0.960 . S
H133 N113 0.862 . S
O134 Co102 1.920 . S
O134 C107 1.289 . S
C135 O127 1.258 . S
C135 O128 1.266 . S
Co136 O139 1.970 . S
Co136 N153 1.989 . S
Co136 O161 1.967 1_545 S
Co136 O168 1.920 . S
Co137 O140 1.966 1_565 S
Co137 N146 2.022 . S
Co137 N154 1.993 . S
Co137 O162 1.941 . S
C138 O139 1.258 . S
C138 O140 1.263 . S
O139 Co136 1.970 . S
O139 C138 1.258 . S
O140 Co137 1.966 1_545 S
O140 C138 1.263 . S
C141 O142 1.235 . S
C141 O168 1.289 . S
O142 C141 1.235 . S
C143 C145 1.400 . S
C143 N146 1.351 . S
C143 C148 1.501 1_565 S
C144 C145 1.387 . S
C144 N147 1.341 . S
C145 C143 1.400 . S
C145 C144 1.387 . S
N146 Co137 2.022 . S
N146 C143 1.351 . S
N146 N147 1.365 . S
N147 C144 1.341 . S
N147 N146 1.365 . S
N147 H167 0.862 . S
C148 C143 1.501 1_545 S
C148 H149 0.961 . S
C148 H150 0.961 . S
C148 H151 0.960 . S
H149 C148 0.961 . S
H150 C148 0.961 . S
H151 C148 0.960 . S
C152 N153 1.342 . S
C152 C156 1.401 . S
C152 C157 1.499 . S
N153 Co136 1.989 . S
N153 C152 1.342 . S
N153 N154 1.388 1_545 S
N154 Co137 1.993 . S
N154 N153 1.388 1_565 S
N154 C155 1.347 1_565 S
C155 N154 1.347 1_545 S
C155 C156 1.392 . S
C155 C165 1.513 1_545 S
C156 C152 1.401 . S
C156 C155 1.392 . S
C157 C152 1.499 . S
C157 H158 0.959 . S
C157 H159 0.960 . S
C157 H160 0.961 . S
H158 C157 0.959 . S
H159 C157 0.960 . S
H160 C157 0.961 . S
O161 Co136 1.967 1_565 S
O161 C169 1.258 . S
O162 Co137 1.941 . S
O162 C169 1.266 . S
H163 C165 0.959 . S
H164 C165 0.961 1_545 S
C165 C155 1.513 1_565 S
C165 H163 0.959 . S
C165 H164 0.961 1_565 S
C165 H166 0.960 . S
H166 C165 0.960 . S
H167 N147 0.862 . S
O168 Co136 1.920 . S
O168 C141 1.289 . S
C169 O161 1.258 . S
C169 O162 1.266 . S
Co170 O173 1.970 . S
Co170 N187 1.989 . S
Co170 O195 1.967 . S
Co170 O202 1.920 . S
Co171 O174 1.966 . S
Co171 N180 2.022 . S
Co171 N188 1.993 . S
Co171 O196 1.941 . S
C172 O173 1.258 . S
C172 O174 1.263 . S
O173 Co170 1.970 . S
O173 C172 1.258 . S
O174 Co171 1.966 . S
O174 C172 1.263 . S
C175 O176 1.235 . S
C175 O202 1.289 . S
O176 C175 1.235 . S
C177 C179 1.400 . S
C177 N180 1.351 . S
C177 C182 1.501 . S
C178 C179 1.387 . S
C178 N181 1.341 . S
C179 C177 1.400 . S
C179 C178 1.387 . S
N180 Co171 2.022 . S
N180 C177 1.351 . S
N180 N181 1.365 . S
N181 C178 1.341 . S
N181 N180 1.365 . S
N181 H201 0.862 . S
C182 C177 1.501 . S
C182 H183 0.961 . S
C182 H184 0.961 . S
C182 H185 0.960 1_455 S
H183 C182 0.961 . S
H184 C182 0.961 . S
H185 C182 0.960 1_655 S
C186 N187 1.342 . S
C186 C190 1.401 . S
C186 C191 1.499 . S
N187 Co170 1.989 . S
N187 C186 1.342 . S
N187 N188 1.388 . S
N188 Co171 1.993 . S
N188 N187 1.388 . S
N188 C189 1.346 . S
C189 N188 1.346 . S
C189 C190 1.396 . S
C189 C199 1.510 . S
C190 C186 1.401 . S
C190 C189 1.396 . S
C191 C186 1.499 . S
C191 H192 0.959 . S
C191 H193 0.960 . S
C191 H194 0.961 . S
H192 C191 0.959 . S
H193 C191 0.960 . S
H194 C191 0.961 . S
O195 Co170 1.967 . S
O195 C203 1.258 . S
O196 Co171 1.941 . S
O196 C203 1.266 . S
H197 C199 0.959 . S
H198 C199 0.961 . S
C199 C189 1.510 . S
C199 H197 0.959 . S
C199 H198 0.961 . S
C199 H200 0.960 . S
H200 C199 0.960 . S
H201 N181 0.862 . S
O202 Co170 1.920 . S
O202 C175 1.289 . S
C203 O195 1.258 . S
C203 O196 1.266 . S
Co204 O207 1.970 . S
Co204 N221 1.989 . S
Co204 O229 1.967 1_545 S
Co204 O236 1.920 . S
Co205 O208 1.966 1_565 S
Co205 N214 2.022 . S
Co205 N222 1.993 . S
Co205 O230 1.941 . S
C206 O207 1.258 . S
C206 O208 1.263 . S
O207 Co204 1.970 . S
O207 C206 1.258 . S
O208 Co205 1.966 1_545 S
O208 C206 1.263 . S
C209 O210 1.235 . S
C209 O236 1.289 . S
O210 C209 1.235 . S
C211 C213 1.400 . S
C211 N214 1.351 . S
C211 C216 1.501 1_565 S
C212 C213 1.387 . S
C212 N215 1.341 . S
C213 C211 1.400 . S
C213 C212 1.387 . S
N214 Co205 2.022 . S
N214 C211 1.351 . S
N214 N215 1.365 . S
N215 C212 1.341 . S
N215 N214 1.365 . S
N215 H235 0.862 . S
C216 C211 1.501 1_545 S
C216 H217 0.961 . S
C216 H218 0.961 . S
C216 H219 0.960 . S
H217 C216 0.961 . S
H218 C216 0.961 . S
H219 C216 0.960 . S
C220 N221 1.342 . S
C220 C224 1.401 . S
C220 C225 1.499 . S
N221 Co204 1.989 . S
N221 C220 1.342 . S
N221 N222 1.388 1_545 S
N222 Co205 1.993 . S
N222 N221 1.388 1_565 S
N222 C223 1.346 . S
C223 N222 1.346 . S
C223 C224 1.396 1_565 S
C223 C233 1.510 . S
C224 C220 1.401 . S
C224 C223 1.396 1_545 S
C225 C220 1.499 . S
C225 H226 0.959 . S
C225 H227 0.960 . S
C225 H228 0.961 . S
H226 C225 0.959 . S
H227 C225 0.960 . S
H228 C225 0.961 . S
O229 Co204 1.967 1_565 S
O229 C237 1.258 . S
O230 Co205 1.941 . S
O230 C237 1.266 . S
H231 C233 0.959 . S
H232 C233 0.961 1_545 S
C233 C223 1.510 . S
C233 H231 0.959 . S
C233 H232 0.961 1_565 S
C233 H234 0.960 . S
H234 C233 0.960 . S
H235 N215 0.862 . S
O236 Co204 1.920 . S
O236 C209 1.289 . S
C237 O229 1.258 . S
C237 O230 1.266 . S
Co238 O241 1.970 . S
Co238 N255 1.989 1_554 S
Co238 O263 1.967 . S
Co238 O270 1.920 . S
Co239 O242 1.966 1_556 S
Co239 N248 2.022 . S
Co239 N256 1.993 . S
Co239 O264 1.941 1_556 S
C240 O241 1.258 . S
C240 O242 1.263 . S
O241 Co238 1.970 . S
O241 C240 1.258 . S
O242 Co239 1.966 1_554 S
O242 C240 1.263 . S
C243 O244 1.235 . S
C243 O270 1.289 . S
O244 C243 1.235 . S
C245 C247 1.400 . S
C245 N248 1.351 . S
C245 C250 1.501 . S
C246 C247 1.387 . S
C246 N249 1.341 . S
C247 C245 1.400 . S
C247 C246 1.387 . S
N248 Co239 2.022 . S
N248 C245 1.351 . S
N248 N249 1.365 . S
N249 C246 1.341 . S
N249 N248 1.365 . S
N249 H269 0.862 . S
C250 C245 1.501 . S
C250 H251 0.961 . S
C250 H252 0.961 . S
C250 H253 0.960 1_565 S
H251 C250 0.961 . S
H252 C250 0.961 . S
H253 C250 0.960 1_545 S
C254 N255 1.342 . S
C254 C258 1.401 . S
C254 C259 1.499 . S
N255 Co238 1.989 1_556 S
N255 C254 1.342 . S
N255 N256 1.388 . S
N256 Co239 1.993 . S
N256 N255 1.388 . S
N256 C257 1.346 . S
C257 N256 1.346 . S
C257 C258 1.396 . S
C257 C267 1.510 . S
C258 C254 1.401 . S
C258 C257 1.396 . S
C259 C254 1.499 . S
C259 H260 0.933 1_556 S
C259 H261 0.960 . S
C259 H262 0.961 . S
H260 C259 0.933 1_554 S
H261 C259 0.960 . S
H262 C259 0.961 . S
O263 Co238 1.967 . S
O263 C271 1.258 . S
O264 Co239 1.941 1_554 S
O264 C271 1.266 . S
H265 C267 0.959 . S
H266 C267 0.961 . S
C267 C257 1.510 . S
C267 H265 0.959 . S
C267 H266 0.961 . S
C267 H268 0.960 . S
H268 C267 0.960 . S
H269 N249 0.862 . S
O270 Co238 1.920 . S
O270 C243 1.289 . S
C271 O263 1.258 . S
C271 O264 1.266 . S
Co272 O275 1.970 . S
Co272 N289 1.989 . S
Co272 O297 1.967 1_655 S
Co272 O304 1.920 . S
Co273 O276 1.966 1_455 S
Co273 N282 2.022 . S
Co273 N290 1.993 . S
Co273 O298 1.941 . S
C274 O275 1.258 . S
C274 O276 1.263 . S
O275 Co272 1.970 . S
O275 C274 1.258 . S
O276 Co273 1.966 1_655 S
O276 C274 1.263 . S
C277 O278 1.235 . S
C277 O304 1.289 . S
O278 C277 1.235 . S
C279 C281 1.400 . S
C279 N282 1.351 . S
C279 C284 1.501 1_455 S
C280 C281 1.387 . S
C280 N283 1.341 . S
C281 C279 1.400 . S
C281 C280 1.387 . S
N282 Co273 2.022 . S
N282 C279 1.351 . S
N282 N283 1.365 . S
N283 C280 1.341 . S
N283 N282 1.365 . S
N283 H303 0.862 . S
C284 C279 1.501 1_655 S
C284 H285 0.961 . S
C284 H286 0.961 . S
C284 H287 0.960 . S
H285 C284 0.961 . S
H286 C284 0.961 . S
H287 C284 0.960 . S
C288 N289 1.342 . S
C288 C292 1.401 . S
C288 C293 1.499 . S
N289 Co272 1.989 . S
N289 C288 1.342 . S
N289 N290 1.388 1_655 S
N290 Co273 1.993 . S
N290 N289 1.388 1_455 S
N290 C291 1.347 1_455 S
C291 N290 1.347 1_655 S
C291 C292 1.392 . S
C291 C301 1.513 1_655 S
C292 C288 1.401 . S
C292 C291 1.392 . S
C293 C288 1.499 . S
C293 H294 0.959 . S
C293 H295 0.960 . S
C293 H296 0.961 . S
H294 C293 0.959 . S
H295 C293 0.960 . S
H296 C293 0.961 . S
O297 Co272 1.967 1_455 S
O297 C305 1.258 . S
O298 Co273 1.941 . S
O298 C305 1.266 . S
H299 C301 0.959 . S
H300 C301 0.961 1_655 S
C301 C291 1.513 1_455 S
C301 H299 0.959 . S
C301 H300 0.961 1_455 S
C301 H302 0.960 . S
H302 C301 0.960 . S
H303 N283 0.862 . S
O304 Co272 1.920 . S
O304 C277 1.289 . S
C305 O297 1.258 . S
C305 O298 1.266 . S
Co306 O309 1.970 . S
Co306 N323 1.989 . S
Co306 O331 1.967 1_565 S
Co306 O338 1.920 . S
Co307 O310 1.966 1_545 S
Co307 N316 2.022 . S
Co307 N324 1.993 . S
Co307 O332 1.941 . S
C308 O309 1.258 . S
C308 O310 1.263 . S
O309 Co306 1.970 . S
O309 C308 1.258 . S
O310 Co307 1.966 1_565 S
O310 C308 1.263 . S
C311 O312 1.235 . S
C311 O338 1.289 . S
O312 C311 1.235 . S
C313 C315 1.400 . S
C313 N316 1.351 . S
C313 C318 1.501 1_545 S
C314 C315 1.387 . S
C314 N317 1.341 . S
C315 C313 1.400 . S
C315 C314 1.387 . S
N316 Co307 2.022 . S
N316 C313 1.351 . S
N316 N317 1.365 . S
N317 C314 1.341 . S
N317 N316 1.365 . S
N317 H337 0.862 . S
C318 C313 1.501 1_565 S
C318 H319 0.961 . S
C318 H320 0.961 . S
C318 H321 0.960 . S
H319 C318 0.961 . S
H320 C318 0.961 . S
H321 C318 0.960 . S
C322 N323 1.342 . S
C322 C326 1.401 . S
C322 C327 1.499 . S
N323 Co306 1.989 . S
N323 C322 1.342 . S
N323 N324 1.388 1_565 S
N324 Co307 1.993 . S
N324 N323 1.388 1_545 S
N324 C325 1.346 . S
C325 N324 1.346 . S
C325 C326 1.396 1_545 S
C325 C335 1.510 . S
C326 C322 1.401 . S
C326 C325 1.396 1_565 S
C327 C322 1.499 . S
C327 H328 0.959 . S
C327 H329 0.960 . S
C327 H330 0.961 . S
H328 C327 0.959 . S
H329 C327 0.960 . S
H330 C327 0.961 . S
O331 Co306 1.967 1_545 S
O331 C339 1.258 . S
O332 Co307 1.941 . S
O332 C339 1.266 . S
H333 C335 0.959 . S
H334 C335 0.961 1_565 S
C335 C325 1.510 . S
C335 H333 0.959 . S
C335 H334 0.961 1_545 S
C335 H336 0.960 . S
H336 C335 0.960 . S
H337 N317 0.862 . S
O338 Co306 1.920 . S
O338 C311 1.289 . S
C339 O331 1.258 . S
C339 O332 1.266 . S
Co340 O343 1.970 . S
Co340 N357 1.989 . S
Co340 O365 1.967 . S
Co340 O372 1.920 . S
Co341 O344 1.966 . S
Co341 N350 2.022 . S
Co341 N358 1.993 . S
Co341 O366 1.941 . S
C342 O343 1.258 . S
C342 O344 1.263 . S
O343 Co340 1.970 . S
O343 C342 1.258 . S
O344 Co341 1.966 . S
O344 C342 1.263 . S
C345 O346 1.235 . S
C345 O372 1.289 . S
O346 C345 1.235 . S
C347 C349 1.400 . S
C347 N350 1.351 . S
C347 C352 1.501 . S
C348 C349 1.387 . S
C348 N351 1.341 . S
C349 C347 1.400 . S
C349 C348 1.387 . S
N350 Co341 2.022 . S
N350 C347 1.351 . S
N350 N351 1.365 . S
N351 C348 1.341 . S
N351 N350 1.365 . S
N351 H371 0.862 . S
C352 C347 1.501 . S
C352 H353 0.961 . S
C352 H354 0.961 . S
C352 H355 0.960 1_545 S
H353 C352 0.961 . S
H354 C352 0.961 . S
H355 C352 0.960 1_565 S
C356 N357 1.342 . S
C356 C360 1.401 . S
C356 C361 1.499 . S
N357 Co340 1.989 . S
N357 C356 1.342 . S
N357 N358 1.388 . S
N358 Co341 1.993 . S
N358 N357 1.388 . S
N358 C359 1.346 . S
C359 N358 1.346 . S
C359 C360 1.396 . S
C359 C369 1.510 . S
C360 C356 1.401 . S
C360 C359 1.396 . S
C361 C356 1.499 . S
C361 H362 0.959 . S
C361 H363 0.960 . S
C361 H364 0.961 . S
H362 C361 0.959 . S
H363 C361 0.960 . S
H364 C361 0.961 . S
O365 Co340 1.967 . S
O365 C373 1.258 . S
O366 Co341 1.941 . S
O366 C373 1.266 . S
H367 C369 0.959 . S
H368 C369 0.961 . S
C369 C359 1.510 . S
C369 H367 0.959 . S
C369 H368 0.961 . S
C369 H370 0.960 . S
H370 C369 0.960 . S
H371 N351 0.862 . S
O372 Co340 1.920 . S
O372 C345 1.289 . S
C373 O365 1.258 . S
C373 O366 1.266 . S
Co374 O377 1.970 . S
Co374 N391 1.989 . S
Co374 O399 1.967 1_455 S
Co374 O406 1.920 . S
Co375 O378 1.966 1_655 S
Co375 N384 2.022 . S
Co375 N392 1.993 . S
Co375 O400 1.941 . S
C376 O377 1.258 . S
C376 O378 1.263 . S
O377 Co374 1.970 . S
O377 C376 1.258 . S
O378 Co375 1.966 1_455 S
O378 C376 1.263 . S
C379 O380 1.235 . S
C379 O406 1.289 . S
O380 C379 1.235 . S
C381 C383 1.400 . S
C381 N384 1.351 . S
C381 C386 1.501 1_655 S
C382 C383 1.387 . S
C382 N385 1.341 . S
C383 C381 1.400 . S
C383 C382 1.387 . S
N384 Co375 2.022 . S
N384 C381 1.351 . S
N384 N385 1.365 . S
N385 C382 1.341 . S
N385 N384 1.365 . S
N385 H405 0.862 . S
C386 C381 1.501 1_455 S
C386 H387 0.961 . S
C386 H388 0.961 . S
C386 H389 0.960 . S
H387 C386 0.961 . S
H388 C386 0.961 . S
H389 C386 0.960 . S
C390 N391 1.342 . S
C390 C394 1.401 . S
C390 C395 1.499 . S
N391 Co374 1.989 . S
N391 C390 1.342 . S
N391 N392 1.388 1_455 S
N392 Co375 1.993 . S
N392 N391 1.388 1_655 S
N392 C393 1.347 1_655 S
C393 N392 1.347 1_455 S
C393 C394 1.392 . S
C393 C403 1.513 1_455 S
C394 C390 1.401 . S
C394 C393 1.392 . S
C395 C390 1.499 . S
C395 H396 0.959 . S
C395 H397 0.960 . S
C395 H398 0.961 . S
H396 C395 0.959 . S
H397 C395 0.960 . S
H398 C395 0.961 . S
O399 Co374 1.967 1_655 S
O399 C407 1.258 . S
O400 Co375 1.941 . S
O400 C407 1.266 . S
H401 C403 0.959 . S
H402 C403 0.961 1_455 S
C403 C393 1.513 1_655 S
C403 H401 0.959 . S
C403 H402 0.961 1_655 S
C403 H404 0.960 . S
H404 C403 0.960 . S
H405 N385 0.862 . S
O406 Co374 1.920 . S
O406 C379 1.289 . S
C407 O399 1.258 . S
C407 O400 1.266 . S
C408 C409 1.369 . S
C408 C410 1.419 1_565 S
C408 H412 0.930 . S
C409 C408 1.369 . S
C409 C418 1.429 1_565 S
C410 C408 1.419 1_545 S
C410 C411 1.363 . S
C410 H413 0.929 . S
C411 C410 1.363 . S
C411 C417 1.428 . S
H412 C408 0.930 . S
H413 C410 0.929 . S
S414 N415 1.613 . S
S414 N416 1.610 . S
N415 S414 1.613 . S
N415 C418 1.350 . S
N416 S414 1.610 . S
N416 C417 1.351 . S
C417 C411 1.428 . S
C417 N416 1.351 . S
C417 C418 1.434 . S
C418 C409 1.429 1_545 S
C418 N415 1.350 . S
C418 C417 1.434 . S
C419 C420 1.369 . S
C419 C421 1.419 . S
C419 H423 0.930 . S
C420 C419 1.369 . S
C420 C429 1.429 . S
C421 C419 1.419 . S
C421 C422 1.363 . S
C421 H424 0.929 . S
C422 C421 1.363 . S
C422 C428 1.428 . S
H423 C419 0.930 . S
H424 C421 0.929 . S
S425 N426 1.613 . S
S425 N427 1.610 . S
N426 S425 1.613 . S
N426 C429 1.350 . S
N427 S425 1.610 . S
N427 C428 1.351 . S
C428 C422 1.428 . S
C428 N427 1.351 . S
C428 C429 1.434 . S
C429 C420 1.429 . S
C429 N426 1.350 . S
C429 C428 1.434 . S
C430 C431 1.369 . S
C430 C432 1.419 1_655 S
C430 H434 0.930 . S
C431 C430 1.369 . S
C431 C440 1.429 1_655 S
C432 C430 1.419 1_455 S
C432 C433 1.363 . S
C432 H435 0.929 . S
C433 C432 1.363 . S
C433 C439 1.428 . S
H434 C430 0.930 . S
H435 C432 0.929 . S
S436 N437 1.613 1_445 S
S436 N438 1.610 1_545 S
N437 S436 1.613 1_665 S
N437 C440 1.350 1_655 S
N438 S436 1.610 1_565 S
N438 C439 1.351 . S
C439 C433 1.428 . S
C439 N438 1.351 . S
C439 C440 1.434 . S
C440 C431 1.429 1_455 S
C440 N437 1.350 1_455 S
C440 C439 1.434 . S
C441 C442 1.369 . S
C441 C443 1.419 1_545 S
C441 H445 0.930 . S
C442 C441 1.369 . S
C442 C451 1.429 1_545 S
C443 C441 1.419 1_565 S
C443 C444 1.363 . S
C443 H446 0.929 . S
C444 C443 1.363 . S
C444 C450 1.428 . S
H445 C441 0.930 . S
H446 C443 0.929 . S
S447 N448 1.613 . S
S447 N449 1.610 . S
N448 S447 1.613 . S
N448 C451 1.350 . S
N449 S447 1.610 . S
N449 C450 1.351 . S
C450 C444 1.428 . S
C450 N449 1.351 . S
C450 C451 1.434 . S
C451 C442 1.429 1_565 S
C451 N448 1.350 . S
C451 C450 1.434 . S
C452 C453 1.369 . S
C452 C454 1.419 . S
C452 H456 0.930 . S
C453 C452 1.369 . S
C453 C462 1.429 . S
C454 C452 1.419 . S
C454 C455 1.363 . S
C454 H457 0.929 . S
C455 C454 1.363 . S
C455 C461 1.428 . S
H456 C452 0.930 . S
H457 C454 0.929 . S
S458 N459 1.613 1_655 S
S458 N460 1.610 . S
N459 S458 1.613 1_455 S
N459 C462 1.350 . S
N460 S458 1.610 . S
N460 C461 1.351 1_655 S
C461 C455 1.428 . S
C461 N460 1.351 1_455 S
C461 C462 1.434 . S
C462 C453 1.429 . S
C462 N459 1.350 . S
C462 C461 1.434 . S
C463 C464 1.369 . S
C463 C465 1.419 . S
C463 H467 0.930 . S
C464 C463 1.369 . S
C464 C473 1.429 . S
C465 C463 1.419 . S
C465 C466 1.363 1_655 S
C465 H468 0.929 . S
C466 C465 1.363 1_455 S
C466 C472 1.428 . S
H467 C463 0.930 . S
H468 C465 0.929 . S
S469 N470 1.613 1_455 S
S469 N471 1.610 . S
N470 S469 1.613 1_655 S
N470 C473 1.350 . S
N471 S469 1.610 . S
N471 C472 1.351 . S
C472 C466 1.428 . S
C472 N471 1.351 . S
C472 C473 1.434 1_455 S
C473 C464 1.429 . S
C473 N470 1.350 . S
C473 C472 1.434 1_655 S
C474 C475 1.369 . S
C474 C476 1.419 1_545 S
C474 H478 0.931 . S
C475 C474 1.369 . S
C475 C484 1.429 . S
C476 C474 1.419 1_565 S
C476 C477 1.363 . S
C476 H479 0.929 . S
C477 C476 1.363 . S
C477 C483 1.428 1_565 S
H478 C474 0.931 . S
H479 C476 0.929 . S
S480 N481 1.613 . S
S480 N482 1.610 . S
N481 S480 1.613 . S
N481 C484 1.350 . S
N482 S480 1.610 . S
N482 C483 1.351 . S
C483 C477 1.428 1_545 S
C483 N482 1.351 . S
C483 C484 1.434 . S
C484 C475 1.429 . S
C484 N481 1.350 . S
C484 C483 1.434 . S
C485 C486 1.369 1_465 S
C485 C487 1.419 . S
C485 H489 0.930 1_455 S
C486 C485 1.369 1_645 S
C486 C495 1.429 1_655 S
C487 C485 1.419 . S
C487 C488 1.363 1_565 S
C487 H490 0.929 . S
C488 C487 1.363 1_545 S
C488 C494 1.428 . S
H489 C485 0.930 1_655 S
H490 C487 0.929 . S
S491 N492 1.613 . S
S491 N493 1.610 . S
N492 S491 1.613 . S
N492 C495 1.350 . S
N493 S491 1.610 . S
N493 C494 1.351 . S
C494 C488 1.428 . S
C494 N493 1.351 . S
C494 C495 1.434 . S
C495 C486 1.429 1_455 S
C495 N492 1.350 . S
C495 C494 1.434 . S
C496 C497 1.369 . S
C496 C498 1.419 1_455 S
C496 H500 0.930 . S
C497 C496 1.369 . S
C497 C506 1.429 1_545 S
C498 C496 1.419 1_655 S
C498 C499 1.363 1_545 S
C498 H501 0.929 . S
C499 C498 1.363 1_565 S
C499 C505 1.428 . S
H500 C496 0.930 . S
H501 C498 0.929 . S
S502 N503 1.613 1_655 S
S502 N504 1.610 . S
N503 S502 1.613 1_455 S
N503 C506 1.350 . S
N504 S502 1.610 . S
N504 C505 1.351 . S
C505 C499 1.428 . S
C505 N504 1.351 . S
C505 C506 1.434 1_655 S
C506 C497 1.429 1_565 S
C506 N503 1.350 . S
C506 C505 1.434 1_455 S
C507 C508 1.369 . S
C507 C509 1.419 1_545 S
C507 H511 0.930 . S
C508 C507 1.369 . S
C508 C517 1.429 1_545 S
C509 C507 1.419 1_565 S
C509 C510 1.363 . S
C509 H512 0.929 . S
C510 C509 1.363 . S
C510 C516 1.428 . S
H511 C507 0.930 . S
H512 C509 0.929 . S
S513 N514 1.613 . S
S513 N515 1.610 . S
N514 S513 1.613 . S
N514 C517 1.350 1_455 S
N515 S513 1.610 . S
N515 C516 1.351 1_455 S
C516 C510 1.428 . S
C516 N515 1.351 1_655 S
C516 C517 1.434 . S
C517 C508 1.429 1_565 S
C517 N514 1.350 1_655 S
C517 C516 1.434 . S
C518 C519 1.369 1_645 S
C518 C520 1.419 . S
C518 H522 0.930 1_655 S
C519 C518 1.369 1_465 S
C519 C528 1.429 1_455 S
C520 C518 1.419 . S
C520 C521 1.363 1_545 S
C520 H523 0.929 . S
C521 C520 1.363 1_565 S
C521 C527 1.428 . S
H522 C518 0.930 1_455 S
H523 C520 0.929 . S
S524 N525 1.613 1_655 S
S524 N526 1.610 . S
N525 S524 1.613 1_455 S
N525 C528 1.350 1_455 S
N526 S524 1.610 . S
N526 C527 1.351 . S
C527 C521 1.428 . S
C527 N526 1.351 . S
C527 C528 1.434 . S
C528 C519 1.429 1_655 S
C528 N525 1.350 1_655 S
C528 C527 1.434 . S
C529 C530 1.369 1_545 S
C529 C531 1.419 1_655 S
C529 H533 0.930 1_655 S
C530 C529 1.369 1_565 S
C530 C539 1.429 . S
C531 C529 1.419 1_455 S
C531 C532 1.363 . S
C531 H534 0.929 . S
C532 C531 1.363 . S
C532 C538 1.428 1_445 S
H533 C529 0.930 1_455 S
H534 C531 0.929 . S
S535 N536 1.613 . S
S535 N537 1.610 . S
N536 S535 1.613 . S
N536 C539 1.350 . S
N537 S535 1.610 . S
N537 C538 1.348 . S
C538 C532 1.428 1_665 S
C538 N537 1.348 . S
C538 C539 1.437 . S
C539 C530 1.429 . S
C539 N536 1.350 . S
C539 C538 1.437 . S
C540 C541 1.369 . S
C540 C542 1.419 . S
C540 H544 0.930 . S
C541 C540 1.369 . S
C541 C550 1.429 . S
C542 C540 1.419 . S
C542 C543 1.363 . S
C542 H545 0.929 . S
C543 C542 1.363 . S
C543 C549 1.428 . S
H544 C540 0.930 . S
H545 C542 0.929 . S
S546 N547 1.613 . S
S546 N548 1.610 . S
N547 S546 1.613 . S
N547 C550 1.350 . S
N548 S546 1.610 . S
N548 C549 1.351 . S
C549 C543 1.428 . S
C549 N548 1.351 . S
C549 C550 1.434 . S
C550 C541 1.429 . S
C550 N547 1.350 . S
C550 C549 1.434 . S
C551 C552 1.369 . S
C551 C553 1.419 . S
C551 H555 0.930 . S
C552 C551 1.369 . S
C552 C561 1.429 . S
C553 C551 1.419 . S
C553 C554 1.363 . S
C553 H556 0.929 . S
C554 C553 1.363 . S
C554 C560 1.428 . S
H555 C551 0.930 . S
H556 C553 0.929 . S
S557 N558 1.613 . S
S557 N559 1.610 . S
N558 S557 1.613 . S
N558 C561 1.350 . S
N559 S557 1.610 . S
N559 C560 1.351 . S
C560 C554 1.428 . S
C560 N559 1.351 . S
C560 C561 1.434 . S
C561 C552 1.429 . S
C561 N558 1.350 . S
C561 C560 1.434 . S
C562 C563 1.369 . S
C562 C564 1.419 . S
C562 H566 0.930 . S
C563 C562 1.369 . S
C563 C572 1.429 . S
C564 C562 1.419 . S
C564 C565 1.363 . S
C564 H567 0.929 . S
C565 C564 1.363 . S
C565 C571 1.428 . S
H566 C562 0.930 . S
H567 C564 0.929 . S
S568 N569 1.613 . S
S568 N570 1.610 . S
N569 S568 1.613 . S
N569 C572 1.350 . S
N570 S568 1.610 . S
N570 C571 1.351 . S
C571 C565 1.428 . S
C571 N570 1.351 . S
C571 C572 1.434 . S
C572 C563 1.429 . S
C572 N569 1.350 . S
C572 C571 1.434 . S
C573 C574 1.369 . S
C573 C575 1.419 . S
C573 H577 0.930 . S
C574 C573 1.369 . S
C574 C583 1.429 . S
C575 C573 1.419 . S
C575 C576 1.363 . S
C575 H578 0.929 . S
C576 C575 1.363 . S
C576 C582 1.428 . S
H577 C573 0.930 . S
H578 C575 0.929 . S
S579 N580 1.613 . S
S579 N581 1.610 . S
N580 S579 1.613 . S
N580 C583 1.350 . S
N581 S579 1.610 . S
N581 C582 1.351 . S
C582 C576 1.428 . S
C582 N581 1.351 . S
C582 C583 1.434 . S
C583 C574 1.429 . S
C583 N580 1.350 . S
C583 C582 1.434 . S
C584 C585 1.369 . S
C584 C586 1.419 . S
C584 H588 0.930 . S
C585 C584 1.369 . S
C585 C594 1.429 . S
C586 C584 1.419 . S
C586 C587 1.363 . S
C586 H589 0.929 . S
C587 C586 1.363 . S
C587 C593 1.428 . S
H588 C584 0.930 . S
H589 C586 0.929 . S
S590 N591 1.613 . S
S590 N592 1.610 . S
N591 S590 1.613 . S
N591 C594 1.350 . S
N592 S590 1.610 . S
N592 C593 1.351 . S
C593 C587 1.428 . S
C593 N592 1.351 . S
C593 C594 1.434 . S
C594 C585 1.429 . S
C594 N591 1.350 . S
C594 C593 1.434 . S
C595 C596 1.369 . S
C595 C597 1.419 . S
C595 H599 0.930 . S
C596 C595 1.369 . S
C596 C605 1.429 . S
C597 C595 1.419 . S
C597 C598 1.363 . S
C597 H600 0.929 . S
C598 C597 1.363 . S
C598 C604 1.428 . S
H599 C595 0.930 . S
H600 C597 0.929 . S
S601 N602 1.613 . S
S601 N603 1.610 . S
N602 S601 1.613 . S
N602 C605 1.350 . S
N603 S601 1.610 . S
N603 C604 1.351 . S
C604 C598 1.428 . S
C604 N603 1.351 . S
C604 C605 1.434 . S
C605 C596 1.429 . S
C605 N602 1.350 . S
C605 C604 1.434 . S
C606 C607 1.369 . S
C606 C608 1.419 . S
C606 H610 0.930 . S
C607 C606 1.369 . S
C607 C616 1.429 . S
C608 C606 1.419 . S
C608 C609 1.363 . S
C608 H611 0.929 . S
C609 C608 1.363 . S
C609 C615 1.428 . S
H610 C606 0.930 . S
H611 C608 0.929 . S
S612 N613 1.613 . S
S612 N614 1.610 . S
N613 S612 1.613 . S
N613 C616 1.350 . S
N614 S612 1.610 . S
N614 C615 1.351 . S
C615 C609 1.428 . S
C615 N614 1.351 . S
C615 C616 1.434 . S
C616 C607 1.429 . S
C616 N613 1.350 . S
C616 C615 1.434 . S
C617 C618 1.369 . S
C617 C619 1.419 . S
C617 H621 0.930 . S
C618 C617 1.369 . S
C618 C627 1.429 . S
C619 C617 1.419 . S
C619 C620 1.363 . S
C619 H622 0.929 . S
C620 C619 1.363 . S
C620 C626 1.428 . S
H621 C617 0.930 . S
H622 C619 0.929 . S
S623 N624 1.613 . S
S623 N625 1.610 . S
N624 S623 1.613 . S
N624 C627 1.350 . S
N625 S623 1.610 . S
N625 C626 1.351 . S
C626 C620 1.428 . S
C626 N625 1.351 . S
C626 C627 1.434 . S
C627 C618 1.429 . S
C627 N624 1.350 . S
C627 C626 1.434 . S
C628 C629 1.369 . S
C628 C630 1.419 . S
C628 H632 0.930 . S
C629 C628 1.369 . S
C629 C638 1.429 . S
C630 C628 1.419 . S
C630 C631 1.363 . S
C630 H633 0.929 . S
C631 C630 1.363 . S
C631 C637 1.428 . S
H632 C628 0.930 . S
H633 C630 0.929 . S
S634 N635 1.613 . S
S634 N636 1.610 . S
N635 S634 1.613 . S
N635 C638 1.350 . S
N636 S634 1.610 . S
N636 C637 1.351 . S
C637 C631 1.428 . S
C637 N636 1.351 . S
C637 C638 1.434 . S
C638 C629 1.429 . S
C638 N635 1.350 . S
C638 C637 1.434 . S
C639 C640 1.369 . S
C639 C641 1.419 . S
C639 H643 0.930 . S
C640 C639 1.369 . S
C640 C649 1.429 . S
C641 C639 1.419 . S
C641 C642 1.363 . S
C641 H644 0.929 . S
C642 C641 1.363 . S
C642 C648 1.428 . S
H643 C639 0.930 . S
H644 C641 0.929 . S
S645 N646 1.613 . S
S645 N647 1.610 . S
N646 S645 1.613 . S
N646 C649 1.350 . S
N647 S645 1.610 . S
N647 C648 1.351 . S
C648 C642 1.428 . S
C648 N647 1.351 . S
C648 C649 1.434 . S
C649 C640 1.429 . S
C649 N646 1.350 . S
C649 C648 1.434 . S
C650 C651 1.369 . S
C650 C652 1.419 . S
C650 H654 0.930 . S
C651 C650 1.369 . S
C651 C660 1.429 . S
C652 C650 1.419 . S
C652 C653 1.363 . S
C652 H655 0.929 . S
C653 C652 1.363 . S
C653 C659 1.428 . S
H654 C650 0.930 . S
H655 C652 0.929 . S
S656 N657 1.613 . S
S656 N658 1.610 . S
N657 S656 1.613 . S
N657 C660 1.350 . S
N658 S656 1.610 . S
N658 C659 1.351 . S
C659 C653 1.428 . S
C659 N658 1.351 . S
C659 C660 1.434 . S
C660 C651 1.429 . S
C660 N657 1.350 . S
C660 C659 1.434 . S
C661 C662 1.369 . S
C661 C663 1.419 . S
C661 H665 0.930 . S
C662 C661 1.369 . S
C662 C671 1.429 . S
C663 C661 1.419 . S
C663 C664 1.363 . S
C663 H666 0.929 . S
C664 C663 1.363 . S
C664 C670 1.428 . S
H665 C661 0.930 . S
H666 C663 0.929 . S
S667 N668 1.613 1_565 S
S667 N669 1.610 1_565 S
N668 S667 1.613 1_545 S
N668 C671 1.350 . S
N669 S667 1.610 1_545 S
N669 C670 1.351 . S
C670 C664 1.428 . S
C670 N669 1.351 . S
C670 C671 1.434 . S
C671 C662 1.429 . S
C671 N668 1.350 . S
C671 C670 1.434 . S
C672 C673 1.369 1_455 S
C672 C674 1.419 . S
C672 H676 0.930 . S
C673 C672 1.369 1_655 S
C673 C682 1.429 . S
C674 C672 1.419 . S
C674 C675 1.363 1_455 S
C674 H677 0.929 . S
C675 C674 1.363 1_655 S
C675 C681 1.428 . S
H676 C672 0.930 . S
H677 C674 0.929 . S
S678 N679 1.613 . S
S678 N680 1.610 . S
N679 S678 1.613 . S
N679 C682 1.350 . S
N680 S678 1.610 . S
N680 C681 1.351 . S
C681 C675 1.428 . S
C681 N680 1.351 . S
C681 C682 1.434 . S
C682 C673 1.429 . S
C682 N679 1.350 . S
C682 C681 1.434 . S
C683 C684 1.369 1_545 S
C683 C685 1.419 . S
C683 H687 0.930 . S
C684 C683 1.369 1_565 S
C684 C693 1.429 . S
C685 C683 1.419 . S
C685 C686 1.363 1_545 S
C685 H688 0.929 . S
C686 C685 1.363 1_565 S
C686 C692 1.428 . S
H687 C683 0.930 . S
H688 C685 0.929 . S
S689 N690 1.613 . S
S689 N691 1.610 . S
N690 S689 1.613 . S
N690 C693 1.350 . S
N691 S689 1.610 . S
N691 C692 1.351 . S
C692 C686 1.428 . S
C692 N691 1.351 . S
C692 C693 1.434 . S
C693 C684 1.429 . S
C693 N690 1.350 . S
C693 C692 1.434 . S
C694 C695 1.369 . S
C694 C696 1.419 . S
C694 H698 0.930 . S
C695 C694 1.369 . S
C695 C704 1.429 . S
C696 C694 1.419 . S
C696 C697 1.363 . S
C696 H699 0.929 . S
C697 C696 1.363 . S
C697 C703 1.428 . S
H698 C694 0.930 . S
H699 C696 0.929 . S
S700 N701 1.613 . S
S700 N702 1.610 . S
N701 S700 1.613 . S
N701 C704 1.350 . S
N702 S700 1.610 . S
N702 C703 1.351 . S
C703 C697 1.428 . S
C703 N702 1.351 . S
C703 C704 1.434 . S
C704 C695 1.429 . S
C704 N701 1.350 . S
C704 C703 1.434 . S
C705 C706 1.369 . S
C705 C707 1.419 . S
C705 H709 0.930 . S
C706 C705 1.369 . S
C706 C715 1.429 1_455 S
C707 C705 1.419 . S
C707 C708 1.363 . S
C707 H710 0.929 . S
C708 C707 1.363 . S
C708 C714 1.428 1_455 S
H709 C705 0.930 . S
H710 C707 0.929 . S
S711 N712 1.613 . S
S711 N713 1.610 . S
N712 S711 1.613 . S
N712 C715 1.350 . S
N713 S711 1.610 . S
N713 C714 1.351 . S
C714 C708 1.428 1_655 S
C714 N713 1.351 . S
C714 C715 1.434 . S
C715 C706 1.429 1_655 S
C715 N712 1.350 . S
C715 C714 1.434 . S
C716 C717 1.369 1_565 S
C716 C718 1.419 . S
C716 H720 0.930 . S
C717 C716 1.369 1_545 S
C717 C726 1.429 . S
C718 C716 1.419 . S
C718 C719 1.363 1_565 S
C718 H721 0.929 . S
C719 C718 1.363 1_545 S
C719 C725 1.428 . S
H720 C716 0.930 . S
H721 C718 0.929 . S
S722 N723 1.613 . S
S722 N724 1.610 . S
N723 S722 1.613 . S
N723 C726 1.350 . S
N724 S722 1.610 . S
N724 C725 1.351 . S
C725 C719 1.428 . S
C725 N724 1.351 . S
C725 C726 1.434 . S
C726 C717 1.429 . S
C726 N723 1.350 . S
C726 C725 1.434 . S
C727 C728 1.369 . S
C727 C729 1.419 . S
C727 H731 0.930 . S
C728 C727 1.369 . S
C728 C737 1.429 . S
C729 C727 1.419 . S
C729 C730 1.363 . S
C729 H732 0.929 . S
C730 C729 1.363 . S
C730 C736 1.428 . S
H731 C727 0.930 . S
H732 C729 0.929 . S
S733 N734 1.613 . S
S733 N735 1.610 . S
N734 S733 1.613 . S
N734 C737 1.350 . S
N735 S733 1.610 . S
N735 C736 1.351 . S
C736 C730 1.428 . S
C736 N735 1.351 . S
C736 C737 1.434 . S
C737 C728 1.429 . S
C737 N734 1.350 . S
C737 C736 1.434 . S
C409 C240 2.091 . S
C411 C2 2.095 . S
C420 C274 2.005 . S
C422 C36 2.009 . S
C431 C70 2.091 . S
C433 C308 2.095 . S
C442 C342 2.091 . S
C444 C104 2.095 . S
C453 C138 2.005 . S
C455 C376 2.008 . S
C464 C206 2.094 . S
C466 C172 2.091 . S
C475 C9 1.169 . S
C477 C281 1.167 . S
C486 C43 1.161 . S
C488 C315 1.170 . S
C497 C349 1.086 . S
C499 C77 1.082 . S
C508 C383 1.172 . S
C510 C111 1.174 . S
C519 C145 1.161 . S
C521 C213 1.170 . S
C530 C247 1.074 . S
C532 C179 1.078 . S
C541 C243 1.420 . S
C543 C33 1.426 . S
C552 C277 1.555 . S
C554 C67 1.569 . S
C563 C311 1.621 . S
C565 C101 1.638 . S
C574 C135 1.428 . S
C576 C345 1.416 . S
C585 C379 1.559 . S
C587 C169 1.569 . S
C596 C203 1.637 . S
C598 C209 1.621 . S
C607 C237 1.428 . S
C609 C175 1.418 . S
C618 C5 1.619 . S
C620 C271 1.638 . S
C629 C39 1.555 . S
C631 C305 1.569 . S
C640 C73 1.415 . S
C642 C339 1.426 . S
C651 C107 1.617 . S
C653 C373 1.638 . S
C662 C141 1.559 . S
C664 C407 1.569 . S
C673 C292 1.482 . S
C675 C20 1.480 . S
C684 C54 1.480 . S
C686 C326 1.481 . S
C695 C360 1.618 . S
C697 C88 1.616 . S
C706 C122 1.479 . S
C708 C394 1.481 . S
C717 C156 1.480 . S
C719 C224 1.481 . S
C728 C258 1.616 . S
C730 C190 1.618 . S
