# Generated by pormake.
# Topology lta, (4)-cn, num edge types: 1
# Building blocks:
#     Node 0, Type 0, BuildingBlock: QUQFOY_clean_sbu_3, # of connection points: 4
#     Node 1, Type 0, BuildingBlock: QUQFOY_clean_sbu_3, # of connection points: 4
#     Node 2, Type 0, BuildingBlock: QUQFOY_clean_sbu_3, # of connection points: 4
#     Node 3, Type 0, BuildingBlock: QUQFOY_clean_sbu_3, # of connection points: 4
#     Node 4, Type 0, BuildingBlock: QUQFOY_clean_sbu_3, # of connection points: 4
#     Node 5, Type 0, BuildingBlock: QUQFOY_clean_sbu_3, # of connection points: 4
#     Node 6, Type 0, BuildingBlock: QUQFOY_clean_sbu_3, # of connection points: 4
#     Node 7, Type 0, BuildingBlock: QUQFOY_clean_sbu_3, # of connection points: 4
#     Node 8, Type 0, BuildingBlock: QUQFOY_clean_sbu_3, # of connection points: 4
#     Node 9, Type 0, BuildingBlock: QUQFOY_clean_sbu_3, # of connection points: 4
#     Node 10, Type 0, BuildingBlock: QUQFOY_clean_sbu_3, # of connection points: 4
#     Node 11, Type 0, BuildingBlock: QUQFOY_clean_sbu_3, # of connection points: 4
#     Node 12, Type 0, BuildingBlock: QUQFOY_clean_sbu_3, # of connection points: 4
#     Node 13, Type 0, BuildingBlock: QUQFOY_clean_sbu_3, # of connection points: 4
#     Node 14, Type 0, BuildingBlock: QUQFOY_clean_sbu_3, # of connection points: 4
#     Node 15, Type 0, BuildingBlock: QUQFOY_clean_sbu_3, # of connection points: 4
#     Node 16, Type 0, BuildingBlock: QUQFOY_clean_sbu_3, # of connection points: 4
#     Node 17, Type 0, BuildingBlock: QUQFOY_clean_sbu_3, # of connection points: 4
#     Node 18, Type 0, BuildingBlock: QUQFOY_clean_sbu_3, # of connection points: 4
#     Node 19, Type 0, BuildingBlock: QUQFOY_clean_sbu_3, # of connection points: 4
#     Node 20, Type 0, BuildingBlock: QUQFOY_clean_sbu_3, # of connection points: 4
#     Node 21, Type 0, BuildingBlock: QUQFOY_clean_sbu_3, # of connection points: 4
#     Node 22, Type 0, BuildingBlock: QUQFOY_clean_sbu_3, # of connection points: 4
#     Node 23, Type 0, BuildingBlock: QUQFOY_clean_sbu_3, # of connection points: 4
#     Edge 24, Type (0, 0), BuildingBlock: AJUNOK_clean_linker_0, # of connection points: 2
#     Edge 25, Type (0, 0), BuildingBlock: AJUNOK_clean_linker_0, # of connection points: 2
#     Edge 26, Type (0, 0), BuildingBlock: AJUNOK_clean_linker_0, # of connection points: 2
#     Edge 27, Type (0, 0), BuildingBlock: AJUNOK_clean_linker_0, # of connection points: 2
#     Edge 28, Type (0, 0), BuildingBlock: AJUNOK_clean_linker_0, # of connection points: 2
#     Edge 29, Type (0, 0), BuildingBlock: AJUNOK_clean_linker_0, # of connection points: 2
#     Edge 30, Type (0, 0), BuildingBlock: AJUNOK_clean_linker_0, # of connection points: 2
#     Edge 31, Type (0, 0), BuildingBlock: AJUNOK_clean_linker_0, # of connection points: 2
#     Edge 32, Type (0, 0), BuildingBlock: AJUNOK_clean_linker_0, # of connection points: 2
#     Edge 33, Type (0, 0), BuildingBlock: AJUNOK_clean_linker_0, # of connection points: 2
#     Edge 34, Type (0, 0), BuildingBlock: AJUNOK_clean_linker_0, # of connection points: 2
#     Edge 35, Type (0, 0), BuildingBlock: AJUNOK_clean_linker_0, # of connection points: 2
#     Edge 36, Type (0, 0), BuildingBlock: AJUNOK_clean_linker_0, # of connection points: 2
#     Edge 37, Type (0, 0), BuildingBlock: AJUNOK_clean_linker_0, # of connection points: 2
#     Edge 38, Type (0, 0), BuildingBlock: AJUNOK_clean_linker_0, # of connection points: 2
#     Edge 39, Type (0, 0), BuildingBlock: AJUNOK_clean_linker_0, # of connection points: 2
#     Edge 40, Type (0, 0), BuildingBlock: AJUNOK_clean_linker_0, # of connection points: 2
#     Edge 41, Type (0, 0), BuildingBlock: AJUNOK_clean_linker_0, # of connection points: 2
#     Edge 42, Type (0, 0), BuildingBlock: AJUNOK_clean_linker_0, # of connection points: 2
#     Edge 43, Type (0, 0), BuildingBlock: AJUNOK_clean_linker_0, # of connection points: 2
#     Edge 44, Type (0, 0), BuildingBlock: AJUNOK_clean_linker_0, # of connection points: 2
#     Edge 45, Type (0, 0), BuildingBlock: AJUNOK_clean_linker_0, # of connection points: 2
#     Edge 46, Type (0, 0), BuildingBlock: AJUNOK_clean_linker_0, # of connection points: 2
#     Edge 47, Type (0, 0), BuildingBlock: AJUNOK_clean_linker_0, # of connection points: 2
#     Edge 48, Type (0, 0), BuildingBlock: AJUNOK_clean_linker_0, # of connection points: 2
#     Edge 49, Type (0, 0), BuildingBlock: AJUNOK_clean_linker_0, # of connection points: 2
#     Edge 50, Type (0, 0), BuildingBlock: AJUNOK_clean_linker_0, # of connection points: 2
#     Edge 51, Type (0, 0), BuildingBlock: AJUNOK_clean_linker_0, # of connection points: 2
#     Edge 52, Type (0, 0), BuildingBlock: AJUNOK_clean_linker_0, # of connection points: 2
#     Edge 53, Type (0, 0), BuildingBlock: AJUNOK_clean_linker_0, # of connection points: 2
#     Edge 54, Type (0, 0), BuildingBlock: AJUNOK_clean_linker_0, # of connection points: 2
#     Edge 55, Type (0, 0), BuildingBlock: AJUNOK_clean_linker_0, # of connection points: 2
#     Edge 56, Type (0, 0), BuildingBlock: AJUNOK_clean_linker_0, # of connection points: 2
#     Edge 57, Type (0, 0), BuildingBlock: AJUNOK_clean_linker_0, # of connection points: 2
#     Edge 58, Type (0, 0), BuildingBlock: AJUNOK_clean_linker_0, # of connection points: 2
#     Edge 59, Type (0, 0), BuildingBlock: AJUNOK_clean_linker_0, # of connection points: 2
#     Edge 60, Type (0, 0), BuildingBlock: AJUNOK_clean_linker_0, # of connection points: 2
#     Edge 61, Type (0, 0), BuildingBlock: AJUNOK_clean_linker_0, # of connection points: 2
#     Edge 62, Type (0, 0), BuildingBlock: AJUNOK_clean_linker_0, # of connection points: 2
#     Edge 63, Type (0, 0), BuildingBlock: AJUNOK_clean_linker_0, # of connection points: 2
#     Edge 64, Type (0, 0), BuildingBlock: AJUNOK_clean_linker_0, # of connection points: 2
#     Edge 65, Type (0, 0), BuildingBlock: AJUNOK_clean_linker_0, # of connection points: 2
#     Edge 66, Type (0, 0), BuildingBlock: AJUNOK_clean_linker_0, # of connection points: 2
#     Edge 67, Type (0, 0), BuildingBlock: AJUNOK_clean_linker_0, # of connection points: 2
#     Edge 68, Type (0, 0), BuildingBlock: AJUNOK_clean_linker_0, # of connection points: 2
#     Edge 69, Type (0, 0), BuildingBlock: AJUNOK_clean_linker_0, # of connection points: 2
#     Edge 70, Type (0, 0), BuildingBlock: AJUNOK_clean_linker_0, # of connection points: 2
#     Edge 71, Type (0, 0), BuildingBlock: AJUNOK_clean_linker_0, # of connection points: 2
# Relax obj value: 0.273
# Max RMSD: 0.160
# Mean RMSD: 0.160
data_MOF--net-lta--node1-QUQFOY_clean_sbu_3--edge1-AJUNOK_clean_linker_0
_symmetry_space_group_name_H-M    P1
_symmetry_Int_Tables_number       1
_symmetry_cell_setting            triclinic
loop_
_symmetry_equiv_pos_as_xyz
'x, y, z'
_cell_length_a     43.896521
_cell_length_b     43.952973
_cell_length_c     44.031858
_cell_angle_alpha  90.207817
_cell_angle_beta   89.898554
_cell_angle_gamma 89.922631
loop_
_atom_site_label
_atom_site_type_symbol
_atom_site_fract_x
_atom_site_fract_y
_atom_site_fract_z
_atom_type_partial_charge
C0 C 0.13844 0.34628 0.44142 0.0
O1 O 0.13786 0.37064 0.45694 0.0
Cd2 Cd 0.11602 0.37449 0.50568 0.0
O3 O 0.13142 0.32073 0.45317 0.0
Cd4 Cd 0.12125 0.3014 0.50599 0.0
C5 C 0.05196 0.32845 0.49334 0.0
O6 O 0.14502 0.34052 0.53463 0.0
O7 O 0.11119 0.31645 0.56008 0.0
O8 O 0.16658 0.27207 0.50601 0.0
C9 C 0.1318 0.33672 0.55979 0.0
O10 O 0.06469 0.35426 0.49719 0.0
C11 C 0.15415 0.24632 0.50948 0.0
O12 O 0.06734 0.30394 0.49493 0.0
O13 O 0.12521 0.24543 0.51065 0.0
C14 C 0.6058 0.13408 0.45479 0.0
O15 O 0.58807 0.13233 0.47751 0.0
Cd16 Cd 0.60376 0.11726 0.52637 0.0
O17 O 0.63456 0.13098 0.4579 0.0
Cd18 Cd 0.67195 0.12605 0.50114 0.0
C19 C 0.64785 0.05435 0.50497 0.0
O20 O 0.64246 0.15277 0.53777 0.0
O21 O 0.67597 0.12414 0.55808 0.0
O22 O 0.69555 0.1692 0.47862 0.0
C23 C 0.65516 0.14385 0.56181 0.0
O24 O 0.62394 0.06596 0.51679 0.0
C25 C 0.72292 0.16053 0.48169 0.0
O26 O 0.66967 0.07118 0.49604 0.0
O27 O 0.72709 0.13433 0.49317 0.0
C28 C 0.85122 0.62678 0.42599 0.0
O29 O 0.85297 0.60238 0.44121 0.0
Cd30 Cd 0.86139 0.59904 0.49418 0.0
O31 O 0.85207 0.65284 0.43875 0.0
Cd32 Cd 0.85463 0.67425 0.49154 0.0
C33 C 0.92562 0.64588 0.49561 0.0
O34 O 0.82612 0.63426 0.51383 0.0
O35 O 0.84775 0.66267 0.5469 0.0
O36 O 0.81352 0.70276 0.47172 0.0
C37 C 0.83085 0.63988 0.54155 0.0
O38 O 0.9124 0.62023 0.49818 0.0
C39 C 0.82094 0.72851 0.48238 0.0
O40 O 0.91028 0.67018 0.49136 0.0
O41 O 0.84549 0.72975 0.49771 0.0
C42 C 0.36944 0.84389 0.43394 0.0
O43 O 0.38824 0.84603 0.45568 0.0
Cd44 Cd 0.37509 0.86189 0.50499 0.0
O45 O 0.34082 0.84705 0.43827 0.0
Cd46 Cd 0.30582 0.85235 0.48364 0.0
C47 C 0.3294 0.92408 0.48601 0.0
O48 O 0.33755 0.8258 0.51805 0.0
O49 O 0.30569 0.85473 0.54077 0.0
O50 O 0.27962 0.8097 0.4625 0.0
C51 C 0.32653 0.83484 0.54294 0.0
O52 O 0.35411 0.91298 0.49642 0.0
C53 C 0.25278 0.81894 0.46795 0.0
O54 O 0.30736 0.9069 0.47844 0.0
O55 O 0.25015 0.84508 0.48014 0.0
C56 C 0.1419 0.62567 0.5345 0.0
O57 O 0.1413 0.60143 0.5188 0.0
Cd58 Cd 0.12101 0.59768 0.46953 0.0
O59 O 0.13558 0.65147 0.52281 0.0
Cd60 Cd 0.12688 0.67134 0.4697 0.0
C61 C 0.05703 0.64453 0.4805 0.0
O62 O 0.15092 0.6318 0.4419 0.0
O63 O 0.11857 0.6564 0.41523 0.0
O64 O 0.17276 0.69975 0.47142 0.0
C65 C 0.13854 0.63551 0.41635 0.0
O66 O 0.0698 0.61869 0.47684 0.0
C67 C 0.1612 0.72563 0.46615 0.0
O68 O 0.0724 0.66907 0.47919 0.0
O69 O 0.13237 0.72711 0.46343 0.0
C70 C 0.36233 0.13648 0.51233 0.0
O71 O 0.38039 0.1355 0.48979 0.0
Cd72 Cd 0.36658 0.11807 0.44074 0.0
O73 O 0.33384 0.13185 0.50897 0.0
Cd74 Cd 0.29596 0.12451 0.46705 0.0
C75 C 0.32508 0.05422 0.46412 0.0
O76 O 0.32436 0.1485 0.42796 0.0
O77 O 0.28834 0.12054 0.41107 0.0
O78 O 0.27125 0.1666 0.49059 0.0
C79 C 0.31114 0.13721 0.40511 0.0
O80 O 0.3485 0.06643 0.45203 0.0
C81 C 0.24457 0.15558 0.49035 0.0
O82 O 0.30245 0.07025 0.47277 0.0
O83 O 0.24118 0.12934 0.47854 0.0
C84 C 0.84623 0.35341 0.54077 0.0
O85 O 0.85137 0.37763 0.52605 0.0
Cd86 Cd 0.86045 0.38251 0.4734 0.0
O87 O 0.84428 0.32761 0.52758 0.0
Cd88 Cd 0.84833 0.30898 0.47372 0.0
C89 C 0.92141 0.33243 0.47228 0.0
O90 O 0.82288 0.35108 0.45184 0.0
O91 O 0.84668 0.32409 0.41889 0.0
O92 O 0.80271 0.28073 0.48049 0.0
C93 C 0.82891 0.3463 0.42422 0.0
O94 O 0.91037 0.35908 0.4694 0.0
C95 C 0.81333 0.25492 0.47313 0.0
O96 O 0.904 0.30949 0.47565 0.0
O97 O 0.84156 0.2534 0.4667 0.0
C98 C 0.61556 0.83558 0.52531 0.0
O99 O 0.59463 0.83927 0.50587 0.0
Cd100 Cd 0.60244 0.86229 0.45812 0.0
O101 O 0.64331 0.84119 0.51883 0.0
Cd102 Cd 0.67197 0.8536 0.47098 0.0
C103 C 0.64669 0.92456 0.47878 0.0
O104 O 0.63887 0.83049 0.43417 0.0
O105 O 0.66849 0.86448 0.41542 0.0
O106 O 0.70024 0.80772 0.47546 0.0
C107 C 0.64936 0.84334 0.41079 0.0
O108 O 0.62144 0.91338 0.46989 0.0
C109 C 0.72655 0.8195 0.47588 0.0
O110 O 0.66997 0.90764 0.48216 0.0
O111 O 0.72818 0.84837 0.47509 0.0
C112 C 0.41833 0.11159 0.34438 0.0
O113 O 0.43202 0.10091 0.36735 0.0
Cd114 Cd 0.48533 0.09506 0.37414 0.0
O115 O 0.43285 0.11953 0.3206 0.0
Cd116 Cd 0.48732 0.11606 0.3038 0.0
C117 C 0.49641 0.04115 0.31892 0.0
O118 O 0.50697 0.1377 0.34958 0.0
O119 O 0.54176 0.11946 0.32055 0.0
O120 O 0.48443 0.1629 0.27617 0.0
C121 C 0.53506 0.13369 0.3448 0.0
O122 O 0.49743 0.04888 0.34677 0.0
C123 C 0.48907 0.15161 0.25003 0.0
O124 O 0.49057 0.06064 0.29839 0.0
O125 O 0.49277 0.123 0.24836 0.0
C126 C 0.8315 0.45795 0.35918 0.0
O127 O 0.83121 0.47945 0.37849 0.0
Cd128 Cd 0.85292 0.52746 0.36825 0.0
O129 O 0.83936 0.46259 0.33168 0.0
Cd130 Cd 0.84996 0.50663 0.29725 0.0
C131 C 0.91807 0.50139 0.32956 0.0
O132 O 0.82477 0.54452 0.32617 0.0
O133 O 0.85766 0.56308 0.29556 0.0
O134 O 0.8067 0.48733 0.27204 0.0
C135 C 0.83763 0.56796 0.31584 0.0
O136 O 0.9049 0.51305 0.35269 0.0
C137 C 0.81725 0.48812 0.24524 0.0
O138 O 0.90324 0.49585 0.30532 0.0
O139 O 0.84426 0.49816 0.24192 0.0
C140 C 0.56148 0.83474 0.31562 0.0
O141 O 0.54534 0.81121 0.3127 0.0
Cd142 Cd 0.50119 0.84059 0.29481 0.0
O143 O 0.55001 0.85916 0.30578 0.0
Cd144 Cd 0.49554 0.84693 0.28455 0.0
C145 C 0.50035 0.91191 0.29307 0.0
O146 O 0.46609 0.82169 0.32756 0.0
O147 O 0.44341 0.85923 0.30653 0.0
O148 O 0.50775 0.79727 0.26168 0.0
C149 C 0.44278 0.83845 0.32649 0.0
O150 O 0.50386 0.89365 0.3149 0.0
C151 C 0.49504 0.80237 0.23642 0.0
O152 O 0.49484 0.90039 0.26723 0.0
O153 O 0.48378 0.82872 0.23244 0.0
C154 C 0.12895 0.51988 0.35933 0.0
O155 O 0.12916 0.50136 0.38136 0.0
Cd156 Cd 0.11113 0.45109 0.37674 0.0
O157 O 0.12297 0.51108 0.33235 0.0
Cd158 Cd 0.1158 0.46166 0.30434 0.0
C159 C 0.04618 0.4672 0.33363 0.0
O160 O 0.14409 0.4318 0.33882 0.0
O161 O 0.11561 0.40464 0.3102 0.0
O162 O 0.15722 0.48189 0.27668 0.0
C163 C 0.13576 0.40553 0.33083 0.0
O164 O 0.05903 0.46023 0.35861 0.0
C165 C 0.14816 0.4745 0.25036 0.0
O166 O 0.06155 0.46929 0.30919 0.0
O167 O 0.12269 0.46079 0.24855 0.0
C168 C 0.43351 0.8414 0.60932 0.0
O169 O 0.45134 0.84256 0.58664 0.0
Cd170 Cd 0.50361 0.855 0.58914 0.0
O171 O 0.44327 0.84442 0.63642 0.0
Cd172 Cd 0.49376 0.84859 0.66271 0.0
C173 C 0.49661 0.9194 0.63559 0.0
O174 O 0.52095 0.82019 0.62574 0.0
O175 O 0.55051 0.84418 0.65599 0.0
O176 O 0.47197 0.80793 0.69011 0.0
C177 C 0.54792 0.82616 0.63356 0.0
O178 O 0.50223 0.90662 0.61013 0.0
C179 C 0.47984 0.81653 0.71645 0.0
O180 O 0.49151 0.90359 0.65923 0.0
O181 O 0.49484 0.84122 0.7184 0.0
C182 C 0.12226 0.45188 0.61727 0.0
O183 O 0.12116 0.47018 0.59508 0.0
Cd184 Cd 0.10763 0.52197 0.60055 0.0
O185 O 0.11955 0.46114 0.64462 0.0
Cd186 Cd 0.11679 0.51073 0.67298 0.0
C187 C 0.04475 0.51161 0.64865 0.0
O188 O 0.14383 0.53914 0.63618 0.0
O189 O 0.11932 0.56778 0.6672 0.0
O190 O 0.16074 0.48923 0.69526 0.0
C191 C 0.13768 0.56579 0.64497 0.0
O192 O 0.05679 0.51791 0.62305 0.0
C193 C 0.15463 0.49508 0.72277 0.0
O194 O 0.06133 0.50703 0.67194 0.0
O195 O 0.12945 0.50859 0.72804 0.0
C196 C 0.54901 0.13427 0.62345 0.0
O197 O 0.53597 0.1302 0.59806 0.0
Cd198 Cd 0.48515 0.11548 0.58862 0.0
O199 O 0.53455 0.13209 0.64849 0.0
Cd200 Cd 0.48001 0.12258 0.66306 0.0
C201 C 0.48548 0.05144 0.63462 0.0
O202 O 0.45767 0.14796 0.62105 0.0
O203 O 0.42579 0.12055 0.64554 0.0
O204 O 0.47839 0.16611 0.69526 0.0
C205 C 0.43053 0.13895 0.6239 0.0
O206 O 0.48428 0.06389 0.60854 0.0
C207 C 0.47325 0.15208 0.71981 0.0
O208 O 0.48536 0.06752 0.65876 0.0
O209 O 0.47193 0.12321 0.71871 0.0
C210 C 0.83116 0.52927 0.60878 0.0
O211 O 0.83396 0.50826 0.58915 0.0
Cd212 Cd 0.85522 0.46042 0.60059 0.0
O213 O 0.83541 0.52403 0.63695 0.0
Cd214 Cd 0.8431 0.47782 0.66983 0.0
C215 C 0.91494 0.48469 0.64777 0.0
O216 O 0.82164 0.44031 0.63709 0.0
O217 O 0.85334 0.42166 0.66884 0.0
O218 O 0.7953 0.49021 0.69204 0.0
C219 C 0.83396 0.41684 0.64802 0.0
O220 O 0.90458 0.47429 0.62275 0.0
C221 C 0.80325 0.48778 0.71957 0.0
O222 O 0.89731 0.48921 0.67036 0.0
O223 O 0.83115 0.48176 0.72469 0.0
C224 C 0.35046 0.43041 0.14264 0.0
O225 O 0.37155 0.44987 0.13976 0.0
Cd226 Cd 0.36479 0.49537 0.11268 0.0
O227 O 0.323 0.43684 0.13562 0.0
Cd228 Cd 0.29418 0.48486 0.12275 0.0
C229 C 0.3177 0.46971 0.05352 0.0
O230 O 0.32853 0.52285 0.14102 0.0
O231 O 0.29983 0.53844 0.10505 0.0
O232 O 0.26703 0.48476 0.16938 0.0
C233 C 0.32018 0.54474 0.12453 0.0
O234 O 0.34342 0.47815 0.064 0.0
C235 C 0.24049 0.48367 0.15815 0.0
O236 O 0.29394 0.46971 0.07008 0.0
O237 O 0.23833 0.48235 0.12938 0.0
C238 C 0.34444 0.53624 0.86242 0.0
O239 O 0.36826 0.52059 0.86725 0.0
Cd240 Cd 0.3727 0.46669 0.86624 0.0
O241 O 0.31909 0.52365 0.85604 0.0
Cd242 Cd 0.29932 0.47055 0.85175 0.0
C243 C 0.3206 0.45573 0.92392 0.0
O244 O 0.34218 0.45064 0.82525 0.0
O245 O 0.31261 0.416 0.8426 0.0
O246 O 0.27389 0.48548 0.80659 0.0
C247 C 0.33618 0.42262 0.82724 0.0
O248 O 0.34751 0.45385 0.91326 0.0
C249 C 0.24729 0.47761 0.81447 0.0
O250 O 0.29831 0.46359 0.90709 0.0
O251 O 0.24389 0.46711 0.84116 0.0
C252 C 0.44661 0.35531 0.82998 0.0
O253 O 0.4679 0.37467 0.83225 0.0
Cd254 Cd 0.51534 0.36402 0.85472 0.0
O255 O 0.45103 0.32733 0.83636 0.0
Cd256 Cd 0.49518 0.29254 0.84769 0.0
C257 C 0.48911 0.32158 0.91721 0.0
O258 O 0.53327 0.32335 0.82484 0.0
O259 O 0.55161 0.29115 0.85602 0.0
O260 O 0.47581 0.2664 0.80452 0.0
C261 C 0.55659 0.31298 0.83791 0.0
O262 O 0.50042 0.34546 0.90526 0.0
C263 C 0.47883 0.23965 0.81472 0.0
O264 O 0.48398 0.29787 0.90132 0.0
O265 O 0.49018 0.23685 0.84113 0.0
C266 C 0.61085 0.42633 0.85455 0.0
O267 O 0.58763 0.44149 0.86282 0.0
Cd268 Cd 0.58422 0.49535 0.86667 0.0
O269 O 0.6357 0.43946 0.84739 0.0
Cd270 Cd 0.65434 0.4933 0.8474 0.0
C271 C 0.63829 0.50056 0.92221 0.0
O272 O 0.61022 0.51432 0.82337 0.0
O273 O 0.63986 0.5481 0.84233 0.0
O274 O 0.68126 0.48002 0.80205 0.0
C275 C 0.61638 0.5422 0.82662 0.0
O276 O 0.61083 0.50462 0.91392 0.0
C277 C 0.70704 0.4902 0.81006 0.0
O278 O 0.6589 0.49391 0.90286 0.0
O279 O 0.70899 0.50149 0.83661 0.0
C280 C 0.50715 0.61172 0.82114 0.0
O281 O 0.48594 0.59214 0.82152 0.0
Cd282 Cd 0.44093 0.60067 0.84961 0.0
O283 O 0.50219 0.63912 0.82958 0.0
Cd284 Cd 0.45713 0.67214 0.84308 0.0
C285 C 0.47306 0.64305 0.90972 0.0
O286 O 0.416 0.64143 0.82619 0.0
O287 O 0.40396 0.67129 0.86281 0.0
O288 O 0.4593 0.69918 0.79678 0.0
C289 C 0.39568 0.65062 0.84439 0.0
O290 O 0.4621 0.61882 0.89802 0.0
C291 C 0.46297 0.72543 0.80823 0.0
O292 O 0.47426 0.6678 0.89485 0.0
O293 O 0.46473 0.7274 0.83702 0.0
C294 C 0.61789 0.51194 0.13504 0.0
O295 O 0.59708 0.49198 0.13539 0.0
Cd296 Cd 0.60448 0.44586 0.10972 0.0
O297 O 0.64502 0.50518 0.12688 0.0
Cd298 Cd 0.67515 0.45708 0.11687 0.0
C299 C 0.64967 0.47196 0.04893 0.0
O300 O 0.64162 0.42184 0.13961 0.0
O301 O 0.66841 0.40149 0.10438 0.0
O302 O 0.7009 0.4648 0.16335 0.0
C303 C 0.64901 0.39796 0.12551 0.0
O304 O 0.62437 0.46402 0.06074 0.0
C305 C 0.72782 0.46354 0.15299 0.0
O306 O 0.67432 0.47098 0.06399 0.0
O307 O 0.73098 0.45967 0.1245 0.0
C308 C 0.43227 0.60309 0.1072 0.0
O309 O 0.44893 0.58026 0.1011 0.0
Cd310 Cd 0.50273 0.5808 0.09559 0.0
O311 O 0.44366 0.62939 0.11161 0.0
Cd312 Cd 0.49572 0.65238 0.11062 0.0
C313 C 0.50221 0.63259 0.03699 0.0
O314 O 0.52094 0.61161 0.13587 0.0
O315 O 0.55163 0.64255 0.114 0.0
O316 O 0.47996 0.67813 0.15565 0.0
C317 C 0.54815 0.61955 0.13096 0.0
O318 O 0.50745 0.60597 0.047 0.0
C319 C 0.48905 0.70441 0.14821 0.0
O320 O 0.49546 0.65427 0.05513 0.0
O321 O 0.50024 0.70732 0.1217 0.0
C322 C 0.53545 0.3417 0.12077 0.0
O323 O 0.51912 0.36551 0.12203 0.0
Cd324 Cd 0.46582 0.36636 0.11338 0.0
O325 O 0.52369 0.31535 0.11806 0.0
Cd326 Cd 0.47179 0.29195 0.1178 0.0
C327 C 0.46808 0.32128 0.0477 0.0
O328 O 0.44687 0.32984 0.14744 0.0
O329 O 0.41573 0.30087 0.1236 0.0
O330 O 0.49329 0.26626 0.15972 0.0
C331 C 0.41952 0.32272 0.14214 0.0
O332 O 0.46436 0.34645 0.06168 0.0
C333 C 0.48417 0.2397 0.15317 0.0
O334 O 0.4722 0.29662 0.0624 0.0
O335 O 0.46945 0.23658 0.12842 0.0
C336 C 0.16714 0.38178 0.3707 0.0
C337 C 0.14119 0.38016 0.35204 0.0
C338 C 0.168 0.36689 0.39866 0.0
C339 C 0.14321 0.34944 0.40858 0.0
H340 H 0.18552 0.39727 0.3652 0.0
H341 H 0.18682 0.37154 0.41389 0.0
S342 S 0.07296 0.33239 0.36537 0.0
N343 N 0.09238 0.35556 0.34312 0.0
N344 N 0.09434 0.3271 0.39575 0.0
C345 C 0.11908 0.34411 0.38837 0.0
C346 C 0.11801 0.35957 0.3599 0.0
C347 C 0.56424 0.15435 0.4226 0.0
C348 C 0.59195 0.13847 0.42454 0.0
C349 C 0.54721 0.15435 0.39587 0.0
C350 C 0.55697 0.13818 0.36998 0.0
H351 H 0.55497 0.16594 0.44233 0.0
H352 H 0.52542 0.16597 0.39605 0.0
S353 S 0.62977 0.09576 0.36221 0.0
N354 N 0.63 0.10853 0.39754 0.0
N355 N 0.59772 0.10824 0.34704 0.0
C356 C 0.58574 0.12397 0.37085 0.0
C357 C 0.6033 0.12418 0.39822 0.0
C358 C 0.87196 0.61864 0.37433 0.0
C359 C 0.84666 0.62395 0.39317 0.0
C360 C 0.86845 0.60437 0.346 0.0
C361 C 0.83958 0.5945 0.33623 0.0
H362 H 0.89477 0.62279 0.38276 0.0
H363 H 0.88877 0.59776 0.3336 0.0
S364 S 0.76594 0.60819 0.37517 0.0
N365 N 0.7917 0.6226 0.39842 0.0
N366 N 0.78502 0.59534 0.34538 0.0
C367 C 0.81391 0.60299 0.35338 0.0
C368 C 0.81749 0.61771 0.38198 0.0
C369 C 0.40467 0.81627 0.39988 0.0
C370 C 0.38195 0.83848 0.4034 0.0
C371 C 0.42256 0.81501 0.37366 0.0
C372 C 0.41888 0.83638 0.3502 0.0
H373 H 0.40969 0.80068 0.41822 0.0
H374 H 0.44067 0.79826 0.37272 0.0
S375 S 0.35998 0.89699 0.34724 0.0
N376 N 0.35444 0.88038 0.38039 0.0
N377 N 0.38855 0.87856 0.33098 0.0
C378 C 0.3947 0.85738 0.35252 0.0
C379 C 0.3761 0.85831 0.37921 0.0
C380 C 0.16946 0.58902 0.60508 0.0
C381 C 0.14351 0.59106 0.62376 0.0
C382 C 0.17074 0.60416 0.57725 0.0
C383 C 0.14627 0.62213 0.56737 0.0
H384 H 0.18756 0.57315 0.61051 0.0
H385 H 0.1896 0.59933 0.56206 0.0
S386 S 0.07577 0.63957 0.61034 0.0
N387 N 0.09482 0.61607 0.63256 0.0
N388 N 0.09745 0.64486 0.58011 0.0
C389 C 0.122 0.62757 0.5875 0.0
C390 C 0.12057 0.61194 0.61589 0.0
C391 C 0.40227 0.15848 0.54553 0.0
C392 C 0.37544 0.14135 0.54282 0.0
C393 C 0.41861 0.15923 0.57268 0.0
C394 C 0.4091 0.14244 0.59816 0.0
H395 H 0.41139 0.17055 0.52612 0.0
H396 H 0.43976 0.17189 0.57307 0.0
S397 S 0.33819 0.09693 0.60394 0.0
N398 N 0.3382 0.10972 0.56871 0.0
N399 N 0.3693 0.11072 0.61992 0.0
C400 C 0.38112 0.12691 0.59648 0.0
C401 C 0.3642 0.12646 0.56875 0.0
C402 C 0.86387 0.37821 0.61952 0.0
C403 C 0.83528 0.38947 0.62871 0.0
C404 C 0.86698 0.36222 0.59206 0.0
C405 C 0.84155 0.35653 0.57357 0.0
H406 H 0.88432 0.38496 0.6315 0.0
H407 H 0.88969 0.35714 0.58377 0.0
S408 S 0.76128 0.37555 0.59087 0.0
N409 N 0.78071 0.38962 0.61978 0.0
N410 N 0.78664 0.35904 0.56844 0.0
C411 C 0.81256 0.36412 0.58451 0.0
C412 C 0.80939 0.3807 0.61218 0.0
C413 C 0.59544 0.84427 0.6078 0.0
C414 C 0.57251 0.82211 0.61093 0.0
C415 C 0.61226 0.8466 0.58071 0.0
C416 C 0.60647 0.82688 0.5562 0.0
H417 H 0.59844 0.86163 0.62506 0.0
H418 H 0.62768 0.86562 0.57793 0.0
S419 S 0.55419 0.76088 0.55575 0.0
N420 N 0.54918 0.77672 0.58946 0.0
N421 N 0.58028 0.78165 0.53849 0.0
C422 C 0.58621 0.80266 0.56042 0.0
C423 C 0.5694 0.80007 0.58792 0.0
C424 C 0.34869 0.15448 0.36693 0.0
C425 C 0.33019 0.13097 0.37822 0.0
C426 C 0.37594 0.14796 0.35153 0.0
C427 C 0.38562 0.11775 0.34758 0.0
H428 H 0.34369 0.17794 0.37276 0.0
H429 H 0.39108 0.16657 0.34592 0.0
S430 S 0.34323 0.04814 0.36841 0.0
N431 N 0.32132 0.07638 0.38024 0.0
N432 N 0.3731 0.06428 0.35231 0.0
C433 C 0.36582 0.09416 0.35576 0.0
C434 C 0.33779 0.10075 0.37078 0.0
C435 C 0.84419 0.37521 0.37767 0.0
C436 C 0.82393 0.371 0.40211 0.0
C437 C 0.84479 0.40282 0.36171 0.0
C438 C 0.8253 0.42691 0.36994 0.0
H439 H 0.86118 0.3581 0.37233 0.0
H440 H 0.8622 0.40614 0.34457 0.0
S441 S 0.76366 0.42473 0.42743 0.0
N442 N 0.78041 0.39118 0.42999 0.0
N443 N 0.78208 0.44312 0.40044 0.0
C444 C 0.80303 0.42181 0.39219 0.0
C445 C 0.80217 0.39376 0.40814 0.0
C446 C 0.60439 0.86262 0.34057 0.0
C447 C 0.58962 0.83485 0.3342 0.0
C448 C 0.62611 0.86483 0.36382 0.0
C449 C 0.63351 0.8394 0.38157 0.0
H450 H 0.59774 0.88325 0.32893 0.0
H451 H 0.63529 0.88702 0.36942 0.0
S452 S 0.60611 0.76045 0.37038 0.0
N453 N 0.58774 0.78048 0.34456 0.0
N454 N 0.62803 0.78494 0.38858 0.0
C455 C 0.6211 0.81106 0.37364 0.0
C456 C 0.5993 0.80869 0.34981 0.0
C457 C 0.16261 0.58799 0.39779 0.0
C458 C 0.13971 0.61015 0.39417 0.0
C459 C 0.16009 0.55935 0.38426 0.0
C460 C 0.13502 0.55205 0.36599 0.0
H461 H 0.18152 0.59193 0.41308 0.0
H462 H 0.17699 0.54218 0.38958 0.0
S463 S 0.07156 0.60331 0.34487 0.0
N464 N 0.09299 0.62401 0.36781 0.0
N465 N 0.0888 0.57001 0.3417 0.0
C466 C 0.11362 0.57485 0.35945 0.0
C467 C 0.11589 0.60406 0.37365 0.0
C468 C 0.35358 0.8592 0.58627 0.0
C469 C 0.34604 0.83263 0.57001 0.0
C470 C 0.38096 0.86098 0.60265 0.0
C471 C 0.40114 0.83616 0.6033 0.0
H472 H 0.3402 0.87974 0.58351 0.0
H473 H 0.38775 0.8827 0.61215 0.0
S474 S 0.38854 0.75976 0.57019 0.0
N475 N 0.35825 0.7796 0.56007 0.0
N476 N 0.40969 0.7831 0.5907 0.0
C477 C 0.39202 0.80852 0.59035 0.0
C478 C 0.36429 0.80666 0.57382 0.0
C479 C 0.10374 0.39858 0.61253 0.0
C480 C 0.12771 0.41963 0.61065 0.0
C481 C 0.10618 0.36988 0.59855 0.0
C482 C 0.13264 0.36169 0.58231 0.0
H483 H 0.08225 0.40518 0.62276 0.0
H484 H 0.08637 0.35522 0.59831 0.0
S485 S 0.20358 0.40705 0.57607 0.0
N486 N 0.17983 0.42917 0.59517 0.0
N487 N 0.1848 0.3752 0.56937 0.0
C488 C 0.15774 0.38154 0.58308 0.0
C489 C 0.15513 0.41064 0.59705 0.0
C490 C 0.60192 0.11587 0.62091 0.0
C491 C 0.58172 0.14065 0.62264 0.0
C492 C 0.62951 0.1183 0.60495 0.0
C493 C 0.63718 0.1455 0.59004 0.0
H494 H 0.59468 0.09359 0.6285 0.0
H495 H 0.64259 0.09776 0.60084 0.0
S496 S 0.59536 0.21859 0.59446 0.0
N497 N 0.57385 0.19441 0.61349 0.0
N498 N 0.62564 0.1991 0.58341 0.0
C499 C 0.61935 0.17147 0.59566 0.0
C500 C 0.59144 0.16898 0.61195 0.0
C501 C 0.80653 0.56403 0.57217 0.0
C502 C 0.82529 0.56033 0.59767 0.0
C503 C 0.80637 0.59122 0.55589 0.0
C504 C 0.82536 0.61564 0.56417 0.0
H505 H 0.79316 0.54512 0.56367 0.0
H506 H 0.79276 0.59229 0.53541 0.0
S507 S 0.87542 0.61884 0.63194 0.0
N508 N 0.86051 0.58437 0.63283 0.0
N509 N 0.86061 0.63567 0.60189 0.0
C510 C 0.84214 0.61326 0.59129 0.0
C511 C 0.84204 0.58548 0.60813 0.0
C512 C 0.35303 0.37551 0.12917 0.0
C513 C 0.35966 0.39907 0.1498 0.0
C514 C 0.37059 0.34875 0.1287 0.0
C515 C 0.39515 0.34498 0.14889 0.0
H516 H 0.33639 0.37902 0.11138 0.0
H517 H 0.36671 0.33239 0.11067 0.0
S518 S 0.41635 0.39696 0.21191 0.0
N519 N 0.38846 0.41473 0.19413 0.0
N520 N 0.42109 0.36437 0.19371 0.0
C521 C 0.39925 0.36675 0.17198 0.0
C522 C 0.38159 0.3939 0.1723 0.0
C523 C 0.35542 0.61402 0.82999 0.0
C524 C 0.37223 0.62844 0.85309 0.0
C525 C 0.34288 0.58504 0.83442 0.0
C526 C 0.34755 0.56947 0.8618 0.0
H527 H 0.35441 0.62396 0.80753 0.0
H528 H 0.33234 0.57356 0.81533 0.0
S529 S 0.386 0.59894 0.93063 0.0
N530 N 0.38919 0.62666 0.9056 0.0
N531 N 0.36669 0.57167 0.91342 0.0
C532 C 0.36173 0.58476 0.88593 0.0
C533 C 0.37375 0.61452 0.88173 0.0
C534 C 0.39068 0.3574 0.84008 0.0
C535 C 0.41591 0.36661 0.82267 0.0
C536 C 0.36334 0.37403 0.83944 0.0
C537 C 0.36057 0.4002 0.82128 0.0
H538 H 0.39289 0.33892 0.85614 0.0
H539 H 0.34531 0.3678 0.85504 0.0
S540 S 0.41769 0.42897 0.76631 0.0
N541 N 0.43471 0.40006 0.7831 0.0
N542 N 0.38335 0.43104 0.78154 0.0
C543 C 0.38448 0.40737 0.80131 0.0
C544 C 0.41222 0.39065 0.80213 0.0
C545 C 0.60678 0.37966 0.823 0.0
C546 C 0.60766 0.39318 0.85191 0.0
C547 C 0.59353 0.35091 0.81887 0.0
C548 C 0.58146 0.33469 0.84361 0.0
H549 H 0.61344 0.3926 0.80317 0.0
H550 H 0.59012 0.34262 0.79592 0.0
S551 S 0.58285 0.35868 0.92441 0.0
N552 N 0.5987 0.38722 0.90592 0.0
N553 N 0.57482 0.33273 0.89841 0.0
C554 C 0.58552 0.34659 0.873 0.0
C555 C 0.59829 0.3761 0.87707 0.0
C556 C 0.56935 0.55729 0.79938 0.0
C557 C 0.59287 0.56526 0.81954 0.0
C558 C 0.54265 0.57453 0.79765 0.0
C559 C 0.53847 0.6005 0.8159 0.0
H560 H 0.57067 0.53642 0.78627 0.0
H561 H 0.52427 0.56622 0.78348 0.0
S562 S 0.59519 0.63401 0.86861 0.0
N563 N 0.61201 0.60314 0.85512 0.0
N564 N 0.56161 0.63566 0.85184 0.0
C565 C 0.56305 0.61057 0.83376 0.0
C566 C 0.59035 0.59289 0.83561 0.0
C567 C 0.58613 0.54991 0.16183 0.0
C568 C 0.60851 0.54373 0.13984 0.0
C569 C 0.56871 0.57648 0.16054 0.0
C570 C 0.57291 0.59768 0.13709 0.0
H571 H 0.58038 0.53296 0.17871 0.0
H572 H 0.55021 0.57925 0.17666 0.0
S573 S 0.63163 0.59399 0.0765 0.0
N574 N 0.63657 0.56241 0.09612 0.0
N575 N 0.60365 0.61258 0.09357 0.0
C576 C 0.59737 0.59333 0.11683 0.0
C577 C 0.61526 0.5662 0.11824 0.0
C578 C 0.35442 0.57292 0.08991 0.0
C579 C 0.34224 0.56929 0.11923 0.0
C580 C 0.38288 0.58669 0.08571 0.0
C581 C 0.39945 0.59798 0.11057 0.0
H582 H 0.34358 0.56222 0.07054 0.0
H583 H 0.39297 0.5865 0.06323 0.0
S584 S 0.37522 0.59834 0.19107 0.0
N585 N 0.34723 0.58096 0.17294 0.0
N586 N 0.40028 0.60798 0.16477 0.0
C587 C 0.38607 0.59742 0.13946 0.0
C588 C 0.35745 0.5828 0.14385 0.0
C589 C 0.61487 0.36246 0.09762 0.0
C590 C 0.62688 0.37282 0.1254 0.0
C591 C 0.58589 0.34901 0.09644 0.0
C592 C 0.56853 0.34531 0.123 0.0
H593 H 0.62625 0.36778 0.07645 0.0
H594 H 0.57594 0.34407 0.07447 0.0
S595 S 0.59228 0.36318 0.20159 0.0
N596 N 0.62123 0.37419 0.18029 0.0
N597 N 0.56683 0.34893 0.17791 0.0
C598 C 0.5817 0.35239 0.15105 0.0
C599 C 0.61104 0.36603 0.15229 0.0
C600 C 0.0045 0.35448 0.47682 0.0
C601 C 0.01903 0.32758 0.48613 0.0
C602 C 0.97327 0.35527 0.47112 0.0
C603 C 0.95498 0.32923 0.47468 0.0
H604 H 0.01727 0.37538 0.47413 0.0
H605 H 0.96336 0.37685 0.46457 0.0
S606 S 0.98218 0.25235 0.49665 0.0
N607 N 0.01312 0.27366 0.49706 0.0
N608 N 0.95408 0.27516 0.48654 0.0
C609 C 0.96933 0.30178 0.48288 0.0
C610 C 0.00139 0.30096 0.48858 0.0
C611 C 0.62149 0.00453 0.49899 0.0
C612 C 0.64889 0.02108 0.49956 0.0
C613 C 0.62116 0.97345 0.49222 0.0
C614 C 0.64826 0.95743 0.48611 0.0
H615 H 0.59989 0.01574 0.50321 0.0
H616 H 0.59937 0.9619 0.49188 0.0
S617 S 0.72632 -0.01018 0.48576 0.0
N618 N 0.70403 0.019 0.49405 0.0
N619 N 0.70345 0.9603 0.48166 0.0
C620 C 0.67596 0.9735 0.48715 0.0
C621 C 0.67626 0.00536 0.49374 0.0
C622 C 0.97494 0.67192 0.48314 0.0
C623 C 0.9594 0.64661 0.49508 0.0
C624 C 0.00667 0.67148 0.47916 0.0
C625 C 0.02394 0.64564 0.48681 0.0
H626 H 0.96245 0.69187 0.47587 0.0
H627 H 0.01758 0.69112 0.46912 0.0
S628 S -0.00505 0.57513 0.52291 0.0
N629 N 0.96433 0.59621 0.51747 0.0
N630 N 0.02367 0.59536 0.50974 0.0
C631 C 0.0089 0.62078 0.50011 0.0
C632 C 0.97673 0.62128 0.50432 0.0
C633 C 0.35306 0.00553 0.47171 0.0
C634 C 0.32512 0.02106 0.46952 0.0
C635 C 0.3541 0.97432 0.47758 0.0
C636 C 0.32724 0.95726 0.48102 0.0
H637 H 0.37441 0.01762 0.46925 0.0
H638 H 0.37622 0.96345 0.47897 0.0
S639 S 0.24817 -0.01302 0.47704 0.0
N640 N 0.26986 0.01707 0.47122 0.0
N641 N 0.27182 0.95816 0.48185 0.0
C642 C 0.29909 0.97242 0.47873 0.0
C643 C 0.29804 0.00437 0.47312 0.0
C644 C 0.48879 0.96553 0.27769 0.0
C645 C 0.50219 0.94508 0.29822 0.0
C646 C 0.48796 -0.00314 0.28392 0.0
C647 C 0.50053 0.00871 0.31087 0.0
H648 H 0.47795 0.95721 0.2572 0.0
H649 H 0.47644 0.01169 0.26805 0.0
S650 S 0.54238 0.96513 0.3697 0.0
N651 N 0.5312 0.93924 0.34492 0.0
N652 N 0.52969 -0.00212 0.35656 0.0
C653 C 0.51544 -0.01138 0.33073 0.0
C654 C 0.51626 0.95686 0.32441 0.0
C655 C 0.96638 0.48351 0.30492 0.0
C656 C 0.95077 0.49297 0.33129 0.0
C657 C -0.00291 0.4749 0.30594 0.0
C658 C 0.01337 0.47505 0.33342 0.0
H659 H 0.95489 0.48286 0.28318 0.0
H660 H 0.00812 0.46801 0.28498 0.0
S661 S 0.98335 0.49816 0.40902 0.0
N662 N 0.95417 0.50213 0.3858 0.0
N663 N 0.01175 0.48584 0.38767 0.0
C664 C -0.00193 0.48434 0.36002 0.0
C665 C 0.96686 0.49336 0.35896 0.0
C666 C 0.49645 0.96966 0.60962 0.0
C667 C 0.49447 0.95307 0.63681 0.0
C668 C 0.49335 0.00125 0.60934 0.0
C669 C 0.48827 0.01786 0.63625 0.0
H670 H 0.50017 0.95822 0.5881 0.0
H671 H 0.49509 0.01267 0.58765 0.0
S672 S 0.48163 -0.01446 0.71381 0.0
N673 N 0.48735 0.95571 0.69164 0.0
N674 N 0.48162 0.01534 0.6911 0.0
C675 C 0.48647 0.0017 0.66377 0.0
C676 C 0.48953 0.9693 0.66404 0.0
C677 C 0.96385 0.49776 0.62241 0.0
C678 C 0.94766 0.49276 0.64951 0.0
C679 C -0.00515 0.50477 0.62265 0.0
C680 C 0.01129 0.5068 0.65 0.0
H681 H 0.95252 0.49622 0.60061 0.0
H682 H 0.00607 0.50794 0.60096 0.0
S683 S 0.97937 0.49687 0.7275 0.0
N684 N 0.95006 0.49135 0.70468 0.0
N685 N 0.0087 0.50423 0.70518 0.0
C686 C -0.00468 0.50244 0.67743 0.0
C687 C 0.96346 0.49554 0.67717 0.0
C688 C 0.29178 0.46726 0.97175 0.0
C689 C 0.31662 0.45303 0.9572 0.0
C690 C 0.29125 0.47099 0.00341 0.0
C691 C 0.31566 0.46085 0.02135 0.0
H692 H 0.27354 0.47724 0.95856 0.0
H693 H 0.2726 0.48355 0.01365 0.0
S694 S 0.38263 0.41647 -0.00473 0.0
N695 N 0.36365 0.42426 0.96391 0.0
N696 N 0.36284 0.43205 0.02319 0.0
C697 C 0.33927 0.4444 0.00744 0.0
C698 C 0.33967 0.44024 0.97539 0.0
C699 C 0.48092 0.29432 0.96644 0.0
C700 C 0.48167 0.3217 0.95 0.0
C701 C 0.47562 0.29423 -0.00213 0.0
C702 C 0.4705 0.3215 0.01401 0.0
H703 H 0.48533 0.27283 0.95511 0.0
H704 H 0.47615 0.27264 0.00964 0.0
S705 S 0.46701 0.39913 0.98065 0.0
N706 N 0.47475 0.37656 0.95165 0.0
N707 N 0.46443 0.37658 0.0104 0.0
C708 C 0.4699 0.34895 -0.00253 0.0
C709 C 0.47562 0.34901 0.96559 0.0
C710 C 0.66906 0.48069 0.96567 0.0
C711 C 0.6448 0.49883 0.95512 0.0
C712 C 0.67156 0.47318 -0.00347 0.0
C713 C 0.64976 0.48339 0.0176 0.0
H714 H 0.68517 0.47073 0.94983 0.0
H715 H 0.68961 0.45795 0.00361 0.0
S716 S 0.58611 0.5367 0.00296 0.0
N717 N 0.60162 0.53077 0.96925 0.0
N718 N 0.60619 0.51616 0.02701 0.0
C719 C 0.62696 0.50345 0.00783 0.0
C720 C 0.62455 0.51134 0.97662 0.0
C721 C 0.47974 0.66642 0.96108 0.0
C722 C 0.48456 0.64193 0.94106 0.0
C723 C 0.48716 0.66395 -0.00805 0.0
C724 C 0.49992 0.637 0.00368 0.0
H725 H 0.4688 0.68703 0.95318 0.0
H726 H 0.48155 0.68279 0.00687 0.0
S727 S 0.52207 0.56857 0.9588 0.0
N728 N 0.50621 0.59158 0.93388 0.0
N729 N 0.52076 0.58689 -0.00844 0.0
C730 C 0.50699 0.61328 -0.01683 0.0
C731 C 0.4991 0.61574 0.95195 0.0
C732 C 0.16741 0.19378 0.49229 0.0
C733 C 0.17336 0.21905 0.51097 0.0
C734 C 0.18989 0.17149 0.48742 0.0
C735 C 0.21871 0.17408 0.50117 0.0
H736 H 0.14635 0.19248 0.47957 0.0
H737 H 0.18549 0.15351 0.47113 0.0
S738 S 0.24239 0.23246 0.55737 0.0
N739 N 0.2078 0.24284 0.54699 0.0
N740 N 0.24984 0.20096 0.53821 0.0
C741 C 0.22352 0.1976 0.52229 0.0
C742 C 0.20084 0.22016 0.52709 0.0
C743 C 0.74068 0.21095 0.46408 0.0
C744 C 0.7481 0.18184 0.47502 0.0
C745 C 0.76245 0.23389 0.46248 0.0
C746 C 0.79271 0.22863 0.47123 0.0
H747 H 0.71748 0.21666 0.45793 0.0
H748 H 0.75527 0.25627 0.45505 0.0
S749 S 0.82513 0.15563 0.49789 0.0
N750 N 0.78865 0.14825 0.49234 0.0
N751 N 0.82996 0.19171 0.4886 0.0
C752 C 0.80118 0.19918 0.48013 0.0
C753 C 0.77876 0.17568 0.4822 0.0
C754 C 0.77456 0.75076 0.45955 0.0
C755 C 0.80019 0.75472 0.47829 0.0
C756 C 0.75162 0.77259 0.45824 0.0
C757 C 0.75347 0.79958 0.4752 0.0
H758 H 0.77146 0.73005 0.4465 0.0
H759 H 0.73183 0.76792 0.44429 0.0
S760 S 0.81693 0.82281 0.52547 0.0
N761 N 0.82708 0.78886 0.51269 0.0
N762 N 0.78372 0.83049 0.50958 0.0
C763 C 0.77971 0.80498 0.49257 0.0
C764 C 0.80316 0.78239 0.49427 0.0
C765 C 0.21003 0.74724 0.44912 0.0
C766 C 0.18137 0.75204 0.46245 0.0
C767 C 0.23211 0.76996 0.44917 0.0
C768 C 0.22662 0.79834 0.46301 0.0
H769 H 0.21586 0.7253 0.43938 0.0
H770 H 0.25419 0.76459 0.4395 0.0
S771 S 0.1538 0.82333 0.49824 0.0
N772 N 0.1473 0.78792 0.48731 0.0
N773 N 0.18923 0.83095 0.48804 0.0
C774 C 0.19727 0.80419 0.47472 0.0
C775 C 0.17452 0.78093 0.4743 0.0
C776 C 0.50237 0.201 0.2272 0.0
C777 C 0.49069 0.17159 0.22334 0.0
C778 C 0.50156 0.22208 0.20367 0.0
C779 C 0.48845 0.21486 0.17538 0.0
H780 H 0.51178 0.20805 0.24885 0.0
H781 H 0.51032 0.24466 0.20828 0.0
S782 S 0.45649 0.13992 0.15314 0.0
N783 N 0.46744 0.13527 0.18872 0.0
N784 N 0.46512 0.17538 0.14427 0.0
C785 C 0.47777 0.18502 0.17073 0.0
C786 C 0.47909 0.16325 0.19478 0.0
C787 C 0.77075 0.46275 0.22646 0.0
C788 C 0.79776 0.47851 0.21968 0.0
C789 C 0.74913 0.45685 0.20418 0.0
C790 C 0.75362 0.4662 0.17408 0.0
H791 H 0.76565 0.45572 0.24947 0.0
H792 H 0.72823 0.44556 0.21087 0.0
S793 S 0.82175 0.50534 0.14353 0.0
N794 N 0.82901 0.5013 0.18011 0.0
N795 N 0.78798 0.48977 0.1378 0.0
C796 C 0.78131 0.48019 0.16633 0.0
C797 C 0.80349 0.48646 0.18927 0.0
C798 C 0.49118 0.76008 0.16116 0.0
C799 C 0.48875 0.72958 0.17055 0.0
C800 C 0.49243 0.78389 0.18251 0.0
C801 C 0.49208 0.77778 0.21382 0.0
H802 H 0.49221 0.76556 0.13721 0.0
H803 H 0.4945 0.80707 0.1745 0.0
S804 S 0.485 0.70207 0.25019 0.0
N805 N 0.48507 0.69485 0.21341 0.0
N806 N 0.48798 0.73936 0.2532 0.0
C807 C 0.48926 0.74748 0.22343 0.0
C808 C 0.48744 0.72342 0.20187 0.0
C809 C 0.19421 0.4981 0.22835 0.0
C810 C 0.16809 0.48013 0.22394 0.0
C811 C 0.21671 0.50007 0.20615 0.0
C812 C 0.2139 0.4845 0.17845 0.0
H813 H 0.19807 0.50985 0.24967 0.0
H814 H 0.23695 0.51324 0.21116 0.0
S815 S 0.14845 0.43737 0.15386 0.0
N816 N 0.13941 0.44852 0.18862 0.0
N817 N 0.18196 0.45275 0.14637 0.0
C818 C 0.18701 0.46823 0.17263 0.0
C819 C 0.164 0.46592 0.19554 0.0
C820 C 0.44839 0.75072 0.76066 0.0
C821 C 0.46446 0.75199 0.78813 0.0
C822 C 0.45232 0.77287 0.73853 0.0
C823 C 0.47278 0.7971 0.74279 0.0
H824 H 0.43324 0.73188 0.75577 0.0
H825 H 0.43999 0.77022 0.71739 0.0
S826 S 0.51812 0.8124 0.8122 0.0
N827 N 0.49961 0.7806 0.8198 0.0
N828 N 0.50747 0.82251 0.77769 0.0
C829 C 0.48765 0.79978 0.77097 0.0
C830 C 0.48338 0.77712 0.79379 0.0
C831 C 0.19345 0.49031 0.80001 0.0
C832 C 0.22237 0.47895 0.79223 0.0
C833 C 0.17112 0.49487 0.77757 0.0
C834 C 0.177 0.48773 0.74687 0.0
H835 H 0.18851 0.49686 0.82324 0.0
H836 H 0.14945 0.50468 0.78421 0.0
S837 S 0.24836 0.45359 0.7161 0.0
N838 N 0.255 0.45831 0.75266 0.0
N839 N 0.21335 0.46608 0.71071 0.0
C840 C 0.20546 0.47477 0.73936 0.0
C841 C 0.22808 0.47059 0.76201 0.0
C842 C 0.48784 0.16485 0.77309 0.0
C843 C 0.4688 0.16949 0.7479 0.0
C844 C 0.48927 0.18663 0.7965 0.0
C845 C 0.47169 0.21341 0.79511 0.0
H846 H 0.50333 0.14566 0.77352 0.0
H847 H 0.50584 0.1836 0.81445 0.0
S848 S 0.41364 0.23227 0.737 0.0
N849 N 0.42884 0.19996 0.72515 0.0
N850 N 0.4311 0.2406 0.76915 0.0
C851 C 0.45041 0.2165 0.77152 0.0
C852 C 0.44911 0.19457 0.74783 0.0
C853 C 0.72612 0.48683 0.75726 0.0
C854 C 0.73268 0.49016 0.7883 0.0
C855 C 0.74918 0.48674 0.73552 0.0
C856 C 0.77997 0.48957 0.7438 0.0
H857 H 0.70283 0.48445 0.74949 0.0
H858 H 0.74267 0.48391 0.71195 0.0
S859 S 0.80952 0.4991 0.82212 0.0
N860 N 0.77219 0.49684 0.82643 0.0
N861 N 0.81597 0.49605 0.78525 0.0
C862 C 0.78706 0.49297 0.77476 0.0
C863 C 0.76331 0.49348 0.79708 0.0
loop_
_geom_bond_atom_site_label_1
_geom_bond_atom_site_label_2
_geom_bond_distance
_geom_bond_site_symmetry_2
_ccdc_geom_bond_type
C0 O1 1.306 . S
C0 O3 1.160 . S
O1 C0 1.306 . S
O1 Cd2 2.228 . S
Cd2 O1 2.228 . S
Cd2 O6 2.273 . S
Cd2 O10 2.277 . S
O3 C0 1.160 . S
O3 Cd4 2.203 . S
Cd4 O3 2.203 . S
Cd4 O6 2.411 . S
Cd4 O7 2.333 . S
Cd4 O8 2.352 . S
Cd4 O12 2.277 . S
Cd4 O13 2.356 . S
C5 O10 1.209 . S
C5 O12 1.226 . S
O6 Cd2 2.273 . S
O6 Cd4 2.411 . S
O6 C9 1.320 . S
O7 Cd4 2.333 . S
O7 C9 1.214 . S
O8 Cd4 2.352 . S
O8 C11 1.258 . S
C9 O6 1.320 . S
C9 O7 1.214 . S
O10 Cd2 2.277 . S
O10 C5 1.209 . S
C11 O8 1.258 . S
C11 O13 1.282 . S
O12 Cd4 2.277 . S
O12 C5 1.226 . S
O13 Cd4 2.356 . S
O13 C11 1.282 . S
C14 O15 1.306 . S
C14 O17 1.160 . S
O15 C14 1.306 . S
O15 Cd16 2.228 . S
Cd16 O15 2.228 . S
Cd16 O20 2.273 . S
Cd16 O24 2.277 . S
O17 C14 1.160 . S
O17 Cd18 2.203 . S
Cd18 O17 2.203 . S
Cd18 O20 2.411 . S
Cd18 O21 2.333 . S
Cd18 O22 2.352 . S
Cd18 O26 2.277 . S
Cd18 O27 2.356 . S
C19 O24 1.209 . S
C19 O26 1.226 . S
O20 Cd16 2.273 . S
O20 Cd18 2.411 . S
O20 C23 1.320 . S
O21 Cd18 2.333 . S
O21 C23 1.214 . S
O22 Cd18 2.352 . S
O22 C25 1.258 . S
C23 O20 1.320 . S
C23 O21 1.214 . S
O24 Cd16 2.277 . S
O24 C19 1.209 . S
C25 O22 1.258 . S
C25 O27 1.282 . S
O26 Cd18 2.277 . S
O26 C19 1.226 . S
O27 Cd18 2.356 . S
O27 C25 1.282 . S
C28 O29 1.306 . S
C28 O31 1.160 . S
O29 C28 1.306 . S
O29 Cd30 2.228 . S
Cd30 O29 2.228 . S
Cd30 O34 2.273 . S
Cd30 O38 2.277 . S
O31 C28 1.160 . S
O31 Cd32 2.203 . S
Cd32 O31 2.203 . S
Cd32 O34 2.411 . S
Cd32 O35 2.333 . S
Cd32 O36 2.352 . S
Cd32 O40 2.277 . S
Cd32 O41 2.356 . S
C33 O38 1.209 . S
C33 O40 1.226 . S
O34 Cd30 2.273 . S
O34 Cd32 2.411 . S
O34 C37 1.320 . S
O35 Cd32 2.333 . S
O35 C37 1.214 . S
O36 Cd32 2.352 . S
O36 C39 1.258 . S
C37 O34 1.320 . S
C37 O35 1.214 . S
O38 Cd30 2.277 . S
O38 C33 1.209 . S
C39 O36 1.258 . S
C39 O41 1.282 . S
O40 Cd32 2.277 . S
O40 C33 1.226 . S
O41 Cd32 2.356 . S
O41 C39 1.282 . S
C42 O43 1.306 . S
C42 O45 1.160 . S
O43 C42 1.306 . S
O43 Cd44 2.228 . S
Cd44 O43 2.228 . S
Cd44 O48 2.273 . S
Cd44 O52 2.277 . S
O45 C42 1.160 . S
O45 Cd46 2.203 . S
Cd46 O45 2.203 . S
Cd46 O48 2.411 . S
Cd46 O49 2.333 . S
Cd46 O50 2.352 . S
Cd46 O54 2.277 . S
Cd46 O55 2.356 . S
C47 O52 1.209 . S
C47 O54 1.226 . S
O48 Cd44 2.273 . S
O48 Cd46 2.411 . S
O48 C51 1.320 . S
O49 Cd46 2.333 . S
O49 C51 1.214 . S
O50 Cd46 2.352 . S
O50 C53 1.258 . S
C51 O48 1.320 . S
C51 O49 1.214 . S
O52 Cd44 2.277 . S
O52 C47 1.209 . S
C53 O50 1.258 . S
C53 O55 1.282 . S
O54 Cd46 2.277 . S
O54 C47 1.226 . S
O55 Cd46 2.356 . S
O55 C53 1.282 . S
C56 O57 1.306 . S
C56 O59 1.160 . S
O57 C56 1.306 . S
O57 Cd58 2.228 . S
Cd58 O57 2.228 . S
Cd58 O62 2.273 . S
Cd58 O66 2.277 . S
O59 C56 1.160 . S
O59 Cd60 2.203 . S
Cd60 O59 2.203 . S
Cd60 O62 2.411 . S
Cd60 O63 2.333 . S
Cd60 O64 2.352 . S
Cd60 O68 2.277 . S
Cd60 O69 2.356 . S
C61 O66 1.209 . S
C61 O68 1.226 . S
O62 Cd58 2.273 . S
O62 Cd60 2.411 . S
O62 C65 1.320 . S
O63 Cd60 2.333 . S
O63 C65 1.214 . S
O64 Cd60 2.352 . S
O64 C67 1.258 . S
C65 O62 1.320 . S
C65 O63 1.214 . S
O66 Cd58 2.277 . S
O66 C61 1.209 . S
C67 O64 1.258 . S
C67 O69 1.282 . S
O68 Cd60 2.277 . S
O68 C61 1.226 . S
O69 Cd60 2.356 . S
O69 C67 1.282 . S
C70 O71 1.306 . S
C70 O73 1.160 . S
O71 C70 1.306 . S
O71 Cd72 2.228 . S
Cd72 O71 2.228 . S
Cd72 O76 2.273 . S
Cd72 O80 2.277 . S
O73 C70 1.160 . S
O73 Cd74 2.203 . S
Cd74 O73 2.203 . S
Cd74 O76 2.411 . S
Cd74 O77 2.333 . S
Cd74 O78 2.352 . S
Cd74 O82 2.277 . S
Cd74 O83 2.356 . S
C75 O80 1.209 . S
C75 O82 1.226 . S
O76 Cd72 2.273 . S
O76 Cd74 2.411 . S
O76 C79 1.320 . S
O77 Cd74 2.333 . S
O77 C79 1.214 . S
O78 Cd74 2.352 . S
O78 C81 1.258 . S
C79 O76 1.320 . S
C79 O77 1.214 . S
O80 Cd72 2.277 . S
O80 C75 1.209 . S
C81 O78 1.258 . S
C81 O83 1.282 . S
O82 Cd74 2.277 . S
O82 C75 1.226 . S
O83 Cd74 2.356 . S
O83 C81 1.282 . S
C84 O85 1.306 . S
C84 O87 1.160 . S
O85 C84 1.306 . S
O85 Cd86 2.228 . S
Cd86 O85 2.228 . S
Cd86 O90 2.273 . S
Cd86 O94 2.277 . S
O87 C84 1.160 . S
O87 Cd88 2.203 . S
Cd88 O87 2.203 . S
Cd88 O90 2.411 . S
Cd88 O91 2.333 . S
Cd88 O92 2.352 . S
Cd88 O96 2.277 . S
Cd88 O97 2.356 . S
C89 O94 1.209 . S
C89 O96 1.226 . S
O90 Cd86 2.273 . S
O90 Cd88 2.411 . S
O90 C93 1.320 . S
O91 Cd88 2.333 . S
O91 C93 1.214 . S
O92 Cd88 2.352 . S
O92 C95 1.258 . S
C93 O90 1.320 . S
C93 O91 1.214 . S
O94 Cd86 2.277 . S
O94 C89 1.209 . S
C95 O92 1.258 . S
C95 O97 1.282 . S
O96 Cd88 2.277 . S
O96 C89 1.226 . S
O97 Cd88 2.356 . S
O97 C95 1.282 . S
C98 O99 1.306 . S
C98 O101 1.160 . S
O99 C98 1.306 . S
O99 Cd100 2.228 . S
Cd100 O99 2.228 . S
Cd100 O104 2.273 . S
Cd100 O108 2.277 . S
O101 C98 1.160 . S
O101 Cd102 2.203 . S
Cd102 O101 2.203 . S
Cd102 O104 2.411 . S
Cd102 O105 2.333 . S
Cd102 O106 2.352 . S
Cd102 O110 2.277 . S
Cd102 O111 2.356 . S
C103 O108 1.209 . S
C103 O110 1.226 . S
O104 Cd100 2.273 . S
O104 Cd102 2.411 . S
O104 C107 1.320 . S
O105 Cd102 2.333 . S
O105 C107 1.214 . S
O106 Cd102 2.352 . S
O106 C109 1.258 . S
C107 O104 1.320 . S
C107 O105 1.214 . S
O108 Cd100 2.277 . S
O108 C103 1.209 . S
C109 O106 1.258 . S
C109 O111 1.282 . S
O110 Cd102 2.277 . S
O110 C103 1.226 . S
O111 Cd102 2.356 . S
O111 C109 1.282 . S
C112 O113 1.306 . S
C112 O115 1.160 . S
O113 C112 1.306 . S
O113 Cd114 2.228 . S
Cd114 O113 2.228 . S
Cd114 O118 2.273 . S
Cd114 O122 2.277 . S
O115 C112 1.160 . S
O115 Cd116 2.203 . S
Cd116 O115 2.203 . S
Cd116 O118 2.411 . S
Cd116 O119 2.333 . S
Cd116 O120 2.352 . S
Cd116 O124 2.277 . S
Cd116 O125 2.356 . S
C117 O122 1.209 . S
C117 O124 1.226 . S
O118 Cd114 2.273 . S
O118 Cd116 2.411 . S
O118 C121 1.320 . S
O119 Cd116 2.333 . S
O119 C121 1.214 . S
O120 Cd116 2.352 . S
O120 C123 1.258 . S
C121 O118 1.320 . S
C121 O119 1.214 . S
O122 Cd114 2.277 . S
O122 C117 1.209 . S
C123 O120 1.258 . S
C123 O125 1.282 . S
O124 Cd116 2.277 . S
O124 C117 1.226 . S
O125 Cd116 2.356 . S
O125 C123 1.282 . S
C126 O127 1.306 . S
C126 O129 1.160 . S
O127 C126 1.306 . S
O127 Cd128 2.228 . S
Cd128 O127 2.228 . S
Cd128 O132 2.273 . S
Cd128 O136 2.277 . S
O129 C126 1.160 . S
O129 Cd130 2.203 . S
Cd130 O129 2.203 . S
Cd130 O132 2.411 . S
Cd130 O133 2.333 . S
Cd130 O134 2.352 . S
Cd130 O138 2.277 . S
Cd130 O139 2.356 . S
C131 O136 1.209 . S
C131 O138 1.226 . S
O132 Cd128 2.273 . S
O132 Cd130 2.411 . S
O132 C135 1.320 . S
O133 Cd130 2.333 . S
O133 C135 1.214 . S
O134 Cd130 2.352 . S
O134 C137 1.258 . S
C135 O132 1.320 . S
C135 O133 1.214 . S
O136 Cd128 2.277 . S
O136 C131 1.209 . S
C137 O134 1.258 . S
C137 O139 1.282 . S
O138 Cd130 2.277 . S
O138 C131 1.226 . S
O139 Cd130 2.356 . S
O139 C137 1.282 . S
C140 O141 1.306 . S
C140 O143 1.160 . S
O141 C140 1.306 . S
O141 Cd142 2.228 . S
Cd142 O141 2.228 . S
Cd142 O146 2.273 . S
Cd142 O150 2.277 . S
O143 C140 1.160 . S
O143 Cd144 2.203 . S
Cd144 O143 2.203 . S
Cd144 O146 2.411 . S
Cd144 O147 2.333 . S
Cd144 O148 2.352 . S
Cd144 O152 2.277 . S
Cd144 O153 2.356 . S
C145 O150 1.209 . S
C145 O152 1.226 . S
O146 Cd142 2.273 . S
O146 Cd144 2.411 . S
O146 C149 1.320 . S
O147 Cd144 2.333 . S
O147 C149 1.214 . S
O148 Cd144 2.352 . S
O148 C151 1.258 . S
C149 O146 1.320 . S
C149 O147 1.214 . S
O150 Cd142 2.277 . S
O150 C145 1.209 . S
C151 O148 1.258 . S
C151 O153 1.282 . S
O152 Cd144 2.277 . S
O152 C145 1.226 . S
O153 Cd144 2.356 . S
O153 C151 1.282 . S
C154 O155 1.306 . S
C154 O157 1.160 . S
O155 C154 1.306 . S
O155 Cd156 2.228 . S
Cd156 O155 2.228 . S
Cd156 O160 2.273 . S
Cd156 O164 2.277 . S
O157 C154 1.160 . S
O157 Cd158 2.203 . S
Cd158 O157 2.203 . S
Cd158 O160 2.411 . S
Cd158 O161 2.333 . S
Cd158 O162 2.352 . S
Cd158 O166 2.277 . S
Cd158 O167 2.356 . S
C159 O164 1.209 . S
C159 O166 1.226 . S
O160 Cd156 2.273 . S
O160 Cd158 2.411 . S
O160 C163 1.320 . S
O161 Cd158 2.333 . S
O161 C163 1.214 . S
O162 Cd158 2.352 . S
O162 C165 1.258 . S
C163 O160 1.320 . S
C163 O161 1.214 . S
O164 Cd156 2.277 . S
O164 C159 1.209 . S
C165 O162 1.258 . S
C165 O167 1.282 . S
O166 Cd158 2.277 . S
O166 C159 1.226 . S
O167 Cd158 2.356 . S
O167 C165 1.282 . S
C168 O169 1.306 . S
C168 O171 1.160 . S
O169 C168 1.306 . S
O169 Cd170 2.228 . S
Cd170 O169 2.228 . S
Cd170 O174 2.273 . S
Cd170 O178 2.277 . S
O171 C168 1.160 . S
O171 Cd172 2.203 . S
Cd172 O171 2.203 . S
Cd172 O174 2.411 . S
Cd172 O175 2.333 . S
Cd172 O176 2.352 . S
Cd172 O180 2.277 . S
Cd172 O181 2.356 . S
C173 O178 1.209 . S
C173 O180 1.226 . S
O174 Cd170 2.273 . S
O174 Cd172 2.411 . S
O174 C177 1.320 . S
O175 Cd172 2.333 . S
O175 C177 1.214 . S
O176 Cd172 2.352 . S
O176 C179 1.258 . S
C177 O174 1.320 . S
C177 O175 1.214 . S
O178 Cd170 2.277 . S
O178 C173 1.209 . S
C179 O176 1.258 . S
C179 O181 1.282 . S
O180 Cd172 2.277 . S
O180 C173 1.226 . S
O181 Cd172 2.356 . S
O181 C179 1.282 . S
C182 O183 1.306 . S
C182 O185 1.160 . S
O183 C182 1.306 . S
O183 Cd184 2.228 . S
Cd184 O183 2.228 . S
Cd184 O188 2.273 . S
Cd184 O192 2.277 . S
O185 C182 1.160 . S
O185 Cd186 2.203 . S
Cd186 O185 2.203 . S
Cd186 O188 2.411 . S
Cd186 O189 2.333 . S
Cd186 O190 2.352 . S
Cd186 O194 2.277 . S
Cd186 O195 2.356 . S
C187 O192 1.209 . S
C187 O194 1.226 . S
O188 Cd184 2.273 . S
O188 Cd186 2.411 . S
O188 C191 1.320 . S
O189 Cd186 2.333 . S
O189 C191 1.214 . S
O190 Cd186 2.352 . S
O190 C193 1.258 . S
C191 O188 1.320 . S
C191 O189 1.214 . S
O192 Cd184 2.277 . S
O192 C187 1.209 . S
C193 O190 1.258 . S
C193 O195 1.282 . S
O194 Cd186 2.277 . S
O194 C187 1.226 . S
O195 Cd186 2.356 . S
O195 C193 1.282 . S
C196 O197 1.306 . S
C196 O199 1.160 . S
O197 C196 1.306 . S
O197 Cd198 2.228 . S
Cd198 O197 2.228 . S
Cd198 O202 2.273 . S
Cd198 O206 2.277 . S
O199 C196 1.160 . S
O199 Cd200 2.203 . S
Cd200 O199 2.203 . S
Cd200 O202 2.411 . S
Cd200 O203 2.333 . S
Cd200 O204 2.352 . S
Cd200 O208 2.277 . S
Cd200 O209 2.356 . S
C201 O206 1.209 . S
C201 O208 1.226 . S
O202 Cd198 2.273 . S
O202 Cd200 2.411 . S
O202 C205 1.320 . S
O203 Cd200 2.333 . S
O203 C205 1.214 . S
O204 Cd200 2.352 . S
O204 C207 1.258 . S
C205 O202 1.320 . S
C205 O203 1.214 . S
O206 Cd198 2.277 . S
O206 C201 1.209 . S
C207 O204 1.258 . S
C207 O209 1.282 . S
O208 Cd200 2.277 . S
O208 C201 1.226 . S
O209 Cd200 2.356 . S
O209 C207 1.282 . S
C210 O211 1.306 . S
C210 O213 1.160 . S
O211 C210 1.306 . S
O211 Cd212 2.228 . S
Cd212 O211 2.228 . S
Cd212 O216 2.273 . S
Cd212 O220 2.277 . S
O213 C210 1.160 . S
O213 Cd214 2.203 . S
Cd214 O213 2.203 . S
Cd214 O216 2.411 . S
Cd214 O217 2.333 . S
Cd214 O218 2.352 . S
Cd214 O222 2.277 . S
Cd214 O223 2.356 . S
C215 O220 1.209 . S
C215 O222 1.226 . S
O216 Cd212 2.273 . S
O216 Cd214 2.411 . S
O216 C219 1.320 . S
O217 Cd214 2.333 . S
O217 C219 1.214 . S
O218 Cd214 2.352 . S
O218 C221 1.258 . S
C219 O216 1.320 . S
C219 O217 1.214 . S
O220 Cd212 2.277 . S
O220 C215 1.209 . S
C221 O218 1.258 . S
C221 O223 1.282 . S
O222 Cd214 2.277 . S
O222 C215 1.226 . S
O223 Cd214 2.356 . S
O223 C221 1.282 . S
C224 O225 1.306 . S
C224 O227 1.160 . S
O225 C224 1.306 . S
O225 Cd226 2.228 . S
Cd226 O225 2.228 . S
Cd226 O230 2.273 . S
Cd226 O234 2.277 . S
O227 C224 1.160 . S
O227 Cd228 2.203 . S
Cd228 O227 2.203 . S
Cd228 O230 2.411 . S
Cd228 O231 2.333 . S
Cd228 O232 2.352 . S
Cd228 O236 2.277 . S
Cd228 O237 2.356 . S
C229 O234 1.209 . S
C229 O236 1.226 . S
O230 Cd226 2.273 . S
O230 Cd228 2.411 . S
O230 C233 1.320 . S
O231 Cd228 2.333 . S
O231 C233 1.214 . S
O232 Cd228 2.352 . S
O232 C235 1.258 . S
C233 O230 1.320 . S
C233 O231 1.214 . S
O234 Cd226 2.277 . S
O234 C229 1.209 . S
C235 O232 1.258 . S
C235 O237 1.282 . S
O236 Cd228 2.277 . S
O236 C229 1.226 . S
O237 Cd228 2.356 . S
O237 C235 1.282 . S
C238 O239 1.306 . S
C238 O241 1.160 . S
O239 C238 1.306 . S
O239 Cd240 2.228 . S
Cd240 O239 2.228 . S
Cd240 O244 2.273 . S
Cd240 O248 2.277 . S
O241 C238 1.160 . S
O241 Cd242 2.203 . S
Cd242 O241 2.203 . S
Cd242 O244 2.411 . S
Cd242 O245 2.333 . S
Cd242 O246 2.352 . S
Cd242 O250 2.277 . S
Cd242 O251 2.356 . S
C243 O248 1.209 . S
C243 O250 1.226 . S
O244 Cd240 2.273 . S
O244 Cd242 2.411 . S
O244 C247 1.320 . S
O245 Cd242 2.333 . S
O245 C247 1.214 . S
O246 Cd242 2.352 . S
O246 C249 1.258 . S
C247 O244 1.320 . S
C247 O245 1.214 . S
O248 Cd240 2.277 . S
O248 C243 1.209 . S
C249 O246 1.258 . S
C249 O251 1.282 . S
O250 Cd242 2.277 . S
O250 C243 1.226 . S
O251 Cd242 2.356 . S
O251 C249 1.282 . S
C252 O253 1.306 . S
C252 O255 1.160 . S
O253 C252 1.306 . S
O253 Cd254 2.228 . S
Cd254 O253 2.228 . S
Cd254 O258 2.273 . S
Cd254 O262 2.277 . S
O255 C252 1.160 . S
O255 Cd256 2.203 . S
Cd256 O255 2.203 . S
Cd256 O258 2.411 . S
Cd256 O259 2.333 . S
Cd256 O260 2.352 . S
Cd256 O264 2.277 . S
Cd256 O265 2.356 . S
C257 O262 1.209 . S
C257 O264 1.226 . S
O258 Cd254 2.273 . S
O258 Cd256 2.411 . S
O258 C261 1.320 . S
O259 Cd256 2.333 . S
O259 C261 1.214 . S
O260 Cd256 2.352 . S
O260 C263 1.258 . S
C261 O258 1.320 . S
C261 O259 1.214 . S
O262 Cd254 2.277 . S
O262 C257 1.209 . S
C263 O260 1.258 . S
C263 O265 1.282 . S
O264 Cd256 2.277 . S
O264 C257 1.226 . S
O265 Cd256 2.356 . S
O265 C263 1.282 . S
C266 O267 1.306 . S
C266 O269 1.160 . S
O267 C266 1.306 . S
O267 Cd268 2.228 . S
Cd268 O267 2.228 . S
Cd268 O272 2.273 . S
Cd268 O276 2.277 . S
O269 C266 1.160 . S
O269 Cd270 2.203 . S
Cd270 O269 2.203 . S
Cd270 O272 2.411 . S
Cd270 O273 2.333 . S
Cd270 O274 2.352 . S
Cd270 O278 2.277 . S
Cd270 O279 2.356 . S
C271 O276 1.209 . S
C271 O278 1.226 . S
O272 Cd268 2.273 . S
O272 Cd270 2.411 . S
O272 C275 1.320 . S
O273 Cd270 2.333 . S
O273 C275 1.214 . S
O274 Cd270 2.352 . S
O274 C277 1.258 . S
C275 O272 1.320 . S
C275 O273 1.214 . S
O276 Cd268 2.277 . S
O276 C271 1.209 . S
C277 O274 1.258 . S
C277 O279 1.282 . S
O278 Cd270 2.277 . S
O278 C271 1.226 . S
O279 Cd270 2.356 . S
O279 C277 1.282 . S
C280 O281 1.306 . S
C280 O283 1.160 . S
O281 C280 1.306 . S
O281 Cd282 2.228 . S
Cd282 O281 2.228 . S
Cd282 O286 2.273 . S
Cd282 O290 2.277 . S
O283 C280 1.160 . S
O283 Cd284 2.203 . S
Cd284 O283 2.203 . S
Cd284 O286 2.411 . S
Cd284 O287 2.333 . S
Cd284 O288 2.352 . S
Cd284 O292 2.277 . S
Cd284 O293 2.356 . S
C285 O290 1.209 . S
C285 O292 1.226 . S
O286 Cd282 2.273 . S
O286 Cd284 2.411 . S
O286 C289 1.320 . S
O287 Cd284 2.333 . S
O287 C289 1.214 . S
O288 Cd284 2.352 . S
O288 C291 1.258 . S
C289 O286 1.320 . S
C289 O287 1.214 . S
O290 Cd282 2.277 . S
O290 C285 1.209 . S
C291 O288 1.258 . S
C291 O293 1.282 . S
O292 Cd284 2.277 . S
O292 C285 1.226 . S
O293 Cd284 2.356 . S
O293 C291 1.282 . S
C294 O295 1.306 . S
C294 O297 1.160 . S
O295 C294 1.306 . S
O295 Cd296 2.228 . S
Cd296 O295 2.228 . S
Cd296 O300 2.273 . S
Cd296 O304 2.277 . S
O297 C294 1.160 . S
O297 Cd298 2.203 . S
Cd298 O297 2.203 . S
Cd298 O300 2.411 . S
Cd298 O301 2.333 . S
Cd298 O302 2.352 . S
Cd298 O306 2.277 . S
Cd298 O307 2.356 . S
C299 O304 1.209 . S
C299 O306 1.226 . S
O300 Cd296 2.273 . S
O300 Cd298 2.411 . S
O300 C303 1.320 . S
O301 Cd298 2.333 . S
O301 C303 1.214 . S
O302 Cd298 2.352 . S
O302 C305 1.258 . S
C303 O300 1.320 . S
C303 O301 1.214 . S
O304 Cd296 2.277 . S
O304 C299 1.209 . S
C305 O302 1.258 . S
C305 O307 1.282 . S
O306 Cd298 2.277 . S
O306 C299 1.226 . S
O307 Cd298 2.356 . S
O307 C305 1.282 . S
C308 O309 1.306 . S
C308 O311 1.160 . S
O309 C308 1.306 . S
O309 Cd310 2.228 . S
Cd310 O309 2.228 . S
Cd310 O314 2.273 . S
Cd310 O318 2.277 . S
O311 C308 1.160 . S
O311 Cd312 2.203 . S
Cd312 O311 2.203 . S
Cd312 O314 2.411 . S
Cd312 O315 2.333 . S
Cd312 O316 2.352 . S
Cd312 O320 2.277 . S
Cd312 O321 2.356 . S
C313 O318 1.209 . S
C313 O320 1.226 . S
O314 Cd310 2.273 . S
O314 Cd312 2.411 . S
O314 C317 1.320 . S
O315 Cd312 2.333 . S
O315 C317 1.214 . S
O316 Cd312 2.352 . S
O316 C319 1.258 . S
C317 O314 1.320 . S
C317 O315 1.214 . S
O318 Cd310 2.277 . S
O318 C313 1.209 . S
C319 O316 1.258 . S
C319 O321 1.282 . S
O320 Cd312 2.277 . S
O320 C313 1.226 . S
O321 Cd312 2.356 . S
O321 C319 1.282 . S
C322 O323 1.306 . S
C322 O325 1.160 . S
O323 C322 1.306 . S
O323 Cd324 2.228 . S
Cd324 O323 2.228 . S
Cd324 O328 2.273 . S
Cd324 O332 2.277 . S
O325 C322 1.160 . S
O325 Cd326 2.203 . S
Cd326 O325 2.203 . S
Cd326 O328 2.411 . S
Cd326 O329 2.333 . S
Cd326 O330 2.352 . S
Cd326 O334 2.277 . S
Cd326 O335 2.356 . S
C327 O332 1.209 . S
C327 O334 1.226 . S
O328 Cd324 2.273 . S
O328 Cd326 2.411 . S
O328 C331 1.320 . S
O329 Cd326 2.333 . S
O329 C331 1.214 . S
O330 Cd326 2.352 . S
O330 C333 1.258 . S
C331 O328 1.320 . S
C331 O329 1.214 . S
O332 Cd324 2.277 . S
O332 C327 1.209 . S
C333 O330 1.258 . S
C333 O335 1.282 . S
O334 Cd326 2.277 . S
O334 C327 1.226 . S
O335 Cd326 2.356 . S
O335 C333 1.282 . S
C336 C337 1.369 . S
C336 C338 1.419 . S
C336 H340 0.930 . S
C337 C336 1.369 . S
C337 C346 1.429 . S
C338 C336 1.419 . S
C338 C339 1.363 . S
C338 H341 0.929 . S
C339 C338 1.363 . S
C339 C345 1.428 . S
H340 C336 0.930 . S
H341 C338 0.929 . S
S342 N343 1.613 . S
S342 N344 1.610 . S
N343 S342 1.613 . S
N343 C346 1.350 . S
N344 S342 1.610 . S
N344 C345 1.351 . S
C345 C339 1.428 . S
C345 N344 1.351 . S
C345 C346 1.434 . S
C346 C337 1.429 . S
C346 N343 1.350 . S
C346 C345 1.434 . S
C347 C348 1.369 . S
C347 C349 1.419 . S
C347 H351 0.930 . S
C348 C347 1.369 . S
C348 C357 1.429 . S
C349 C347 1.419 . S
C349 C350 1.363 . S
C349 H352 0.929 . S
C350 C349 1.363 . S
C350 C356 1.428 . S
H351 C347 0.930 . S
H352 C349 0.929 . S
S353 N354 1.613 . S
S353 N355 1.610 . S
N354 S353 1.613 . S
N354 C357 1.350 . S
N355 S353 1.610 . S
N355 C356 1.351 . S
C356 C350 1.428 . S
C356 N355 1.351 . S
C356 C357 1.434 . S
C357 C348 1.429 . S
C357 N354 1.350 . S
C357 C356 1.434 . S
C358 C359 1.369 . S
C358 C360 1.419 . S
C358 H362 0.930 . S
C359 C358 1.369 . S
C359 C368 1.429 . S
C360 C358 1.419 . S
C360 C361 1.363 . S
C360 H363 0.929 . S
C361 C360 1.363 . S
C361 C367 1.428 . S
H362 C358 0.930 . S
H363 C360 0.929 . S
S364 N365 1.613 . S
S364 N366 1.610 . S
N365 S364 1.613 . S
N365 C368 1.350 . S
N366 S364 1.610 . S
N366 C367 1.351 . S
C367 C361 1.428 . S
C367 N366 1.351 . S
C367 C368 1.434 . S
C368 C359 1.429 . S
C368 N365 1.350 . S
C368 C367 1.434 . S
C369 C370 1.369 . S
C369 C371 1.419 . S
C369 H373 0.930 . S
C370 C369 1.369 . S
C370 C379 1.429 . S
C371 C369 1.419 . S
C371 C372 1.363 . S
C371 H374 0.929 . S
C372 C371 1.363 . S
C372 C378 1.428 . S
H373 C369 0.930 . S
H374 C371 0.929 . S
S375 N376 1.613 . S
S375 N377 1.610 . S
N376 S375 1.613 . S
N376 C379 1.350 . S
N377 S375 1.610 . S
N377 C378 1.351 . S
C378 C372 1.428 . S
C378 N377 1.351 . S
C378 C379 1.434 . S
C379 C370 1.429 . S
C379 N376 1.350 . S
C379 C378 1.434 . S
C380 C381 1.369 . S
C380 C382 1.419 . S
C380 H384 0.930 . S
C381 C380 1.369 . S
C381 C390 1.429 . S
C382 C380 1.419 . S
C382 C383 1.363 . S
C382 H385 0.929 . S
C383 C382 1.363 . S
C383 C389 1.428 . S
H384 C380 0.930 . S
H385 C382 0.929 . S
S386 N387 1.613 . S
S386 N388 1.610 . S
N387 S386 1.613 . S
N387 C390 1.350 . S
N388 S386 1.610 . S
N388 C389 1.351 . S
C389 C383 1.428 . S
C389 N388 1.351 . S
C389 C390 1.434 . S
C390 C381 1.429 . S
C390 N387 1.350 . S
C390 C389 1.434 . S
C391 C392 1.369 . S
C391 C393 1.419 . S
C391 H395 0.930 . S
C392 C391 1.369 . S
C392 C401 1.429 . S
C393 C391 1.419 . S
C393 C394 1.363 . S
C393 H396 0.929 . S
C394 C393 1.363 . S
C394 C400 1.428 . S
H395 C391 0.930 . S
H396 C393 0.929 . S
S397 N398 1.613 . S
S397 N399 1.610 . S
N398 S397 1.613 . S
N398 C401 1.350 . S
N399 S397 1.610 . S
N399 C400 1.351 . S
C400 C394 1.428 . S
C400 N399 1.351 . S
C400 C401 1.434 . S
C401 C392 1.429 . S
C401 N398 1.350 . S
C401 C400 1.434 . S
C402 C403 1.369 . S
C402 C404 1.419 . S
C402 H406 0.930 . S
C403 C402 1.369 . S
C403 C412 1.429 . S
C404 C402 1.419 . S
C404 C405 1.363 . S
C404 H407 0.929 . S
C405 C404 1.363 . S
C405 C411 1.428 . S
H406 C402 0.930 . S
H407 C404 0.929 . S
S408 N409 1.613 . S
S408 N410 1.610 . S
N409 S408 1.613 . S
N409 C412 1.350 . S
N410 S408 1.610 . S
N410 C411 1.351 . S
C411 C405 1.428 . S
C411 N410 1.351 . S
C411 C412 1.434 . S
C412 C403 1.429 . S
C412 N409 1.350 . S
C412 C411 1.434 . S
C413 C414 1.369 . S
C413 C415 1.419 . S
C413 H417 0.930 . S
C414 C413 1.369 . S
C414 C423 1.429 . S
C415 C413 1.419 . S
C415 C416 1.363 . S
C415 H418 0.929 . S
C416 C415 1.363 . S
C416 C422 1.428 . S
H417 C413 0.930 . S
H418 C415 0.929 . S
S419 N420 1.613 . S
S419 N421 1.610 . S
N420 S419 1.613 . S
N420 C423 1.350 . S
N421 S419 1.610 . S
N421 C422 1.351 . S
C422 C416 1.428 . S
C422 N421 1.351 . S
C422 C423 1.434 . S
C423 C414 1.429 . S
C423 N420 1.350 . S
C423 C422 1.434 . S
C424 C425 1.369 . S
C424 C426 1.419 . S
C424 H428 0.930 . S
C425 C424 1.369 . S
C425 C434 1.429 . S
C426 C424 1.419 . S
C426 C427 1.363 . S
C426 H429 0.929 . S
C427 C426 1.363 . S
C427 C433 1.428 . S
H428 C424 0.930 . S
H429 C426 0.929 . S
S430 N431 1.613 . S
S430 N432 1.610 . S
N431 S430 1.613 . S
N431 C434 1.350 . S
N432 S430 1.610 . S
N432 C433 1.351 . S
C433 C427 1.428 . S
C433 N432 1.351 . S
C433 C434 1.434 . S
C434 C425 1.429 . S
C434 N431 1.350 . S
C434 C433 1.434 . S
C435 C436 1.369 . S
C435 C437 1.419 . S
C435 H439 0.930 . S
C436 C435 1.369 . S
C436 C445 1.429 . S
C437 C435 1.419 . S
C437 C438 1.363 . S
C437 H440 0.929 . S
C438 C437 1.363 . S
C438 C444 1.428 . S
H439 C435 0.930 . S
H440 C437 0.929 . S
S441 N442 1.613 . S
S441 N443 1.610 . S
N442 S441 1.613 . S
N442 C445 1.350 . S
N443 S441 1.610 . S
N443 C444 1.351 . S
C444 C438 1.428 . S
C444 N443 1.351 . S
C444 C445 1.434 . S
C445 C436 1.429 . S
C445 N442 1.350 . S
C445 C444 1.434 . S
C446 C447 1.369 . S
C446 C448 1.419 . S
C446 H450 0.930 . S
C447 C446 1.369 . S
C447 C456 1.429 . S
C448 C446 1.419 . S
C448 C449 1.363 . S
C448 H451 0.929 . S
C449 C448 1.363 . S
C449 C455 1.428 . S
H450 C446 0.930 . S
H451 C448 0.929 . S
S452 N453 1.613 . S
S452 N454 1.610 . S
N453 S452 1.613 . S
N453 C456 1.350 . S
N454 S452 1.610 . S
N454 C455 1.351 . S
C455 C449 1.428 . S
C455 N454 1.351 . S
C455 C456 1.434 . S
C456 C447 1.429 . S
C456 N453 1.350 . S
C456 C455 1.434 . S
C457 C458 1.369 . S
C457 C459 1.419 . S
C457 H461 0.930 . S
C458 C457 1.369 . S
C458 C467 1.429 . S
C459 C457 1.419 . S
C459 C460 1.363 . S
C459 H462 0.929 . S
C460 C459 1.363 . S
C460 C466 1.428 . S
H461 C457 0.930 . S
H462 C459 0.929 . S
S463 N464 1.613 . S
S463 N465 1.610 . S
N464 S463 1.613 . S
N464 C467 1.350 . S
N465 S463 1.610 . S
N465 C466 1.351 . S
C466 C460 1.428 . S
C466 N465 1.351 . S
C466 C467 1.434 . S
C467 C458 1.429 . S
C467 N464 1.350 . S
C467 C466 1.434 . S
C468 C469 1.369 . S
C468 C470 1.419 . S
C468 H472 0.930 . S
C469 C468 1.369 . S
C469 C478 1.429 . S
C470 C468 1.419 . S
C470 C471 1.363 . S
C470 H473 0.929 . S
C471 C470 1.363 . S
C471 C477 1.428 . S
H472 C468 0.930 . S
H473 C470 0.929 . S
S474 N475 1.613 . S
S474 N476 1.610 . S
N475 S474 1.613 . S
N475 C478 1.350 . S
N476 S474 1.610 . S
N476 C477 1.351 . S
C477 C471 1.428 . S
C477 N476 1.351 . S
C477 C478 1.434 . S
C478 C469 1.429 . S
C478 N475 1.350 . S
C478 C477 1.434 . S
C479 C480 1.369 . S
C479 C481 1.419 . S
C479 H483 0.930 . S
C480 C479 1.369 . S
C480 C489 1.429 . S
C481 C479 1.419 . S
C481 C482 1.363 . S
C481 H484 0.929 . S
C482 C481 1.363 . S
C482 C488 1.428 . S
H483 C479 0.930 . S
H484 C481 0.929 . S
S485 N486 1.613 . S
S485 N487 1.610 . S
N486 S485 1.613 . S
N486 C489 1.350 . S
N487 S485 1.610 . S
N487 C488 1.351 . S
C488 C482 1.428 . S
C488 N487 1.351 . S
C488 C489 1.434 . S
C489 C480 1.429 . S
C489 N486 1.350 . S
C489 C488 1.434 . S
C490 C491 1.369 . S
C490 C492 1.419 . S
C490 H494 0.930 . S
C491 C490 1.369 . S
C491 C500 1.429 . S
C492 C490 1.419 . S
C492 C493 1.363 . S
C492 H495 0.929 . S
C493 C492 1.363 . S
C493 C499 1.428 . S
H494 C490 0.930 . S
H495 C492 0.929 . S
S496 N497 1.613 . S
S496 N498 1.610 . S
N497 S496 1.613 . S
N497 C500 1.350 . S
N498 S496 1.610 . S
N498 C499 1.351 . S
C499 C493 1.428 . S
C499 N498 1.351 . S
C499 C500 1.434 . S
C500 C491 1.429 . S
C500 N497 1.350 . S
C500 C499 1.434 . S
C501 C502 1.369 . S
C501 C503 1.419 . S
C501 H505 0.930 . S
C502 C501 1.369 . S
C502 C511 1.429 . S
C503 C501 1.419 . S
C503 C504 1.363 . S
C503 H506 0.929 . S
C504 C503 1.363 . S
C504 C510 1.428 . S
H505 C501 0.930 . S
H506 C503 0.929 . S
S507 N508 1.613 . S
S507 N509 1.610 . S
N508 S507 1.613 . S
N508 C511 1.350 . S
N509 S507 1.610 . S
N509 C510 1.351 . S
C510 C504 1.428 . S
C510 N509 1.351 . S
C510 C511 1.434 . S
C511 C502 1.429 . S
C511 N508 1.350 . S
C511 C510 1.434 . S
C512 C513 1.369 . S
C512 C514 1.419 . S
C512 H516 0.930 . S
C513 C512 1.369 . S
C513 C522 1.429 . S
C514 C512 1.419 . S
C514 C515 1.363 . S
C514 H517 0.929 . S
C515 C514 1.363 . S
C515 C521 1.428 . S
H516 C512 0.930 . S
H517 C514 0.929 . S
S518 N519 1.613 . S
S518 N520 1.610 . S
N519 S518 1.613 . S
N519 C522 1.350 . S
N520 S518 1.610 . S
N520 C521 1.351 . S
C521 C515 1.428 . S
C521 N520 1.351 . S
C521 C522 1.434 . S
C522 C513 1.429 . S
C522 N519 1.350 . S
C522 C521 1.434 . S
C523 C524 1.369 . S
C523 C525 1.419 . S
C523 H527 0.930 . S
C524 C523 1.369 . S
C524 C533 1.429 . S
C525 C523 1.419 . S
C525 C526 1.363 . S
C525 H528 0.929 . S
C526 C525 1.363 . S
C526 C532 1.428 . S
H527 C523 0.930 . S
H528 C525 0.929 . S
S529 N530 1.613 . S
S529 N531 1.610 . S
N530 S529 1.613 . S
N530 C533 1.350 . S
N531 S529 1.610 . S
N531 C532 1.351 . S
C532 C526 1.428 . S
C532 N531 1.351 . S
C532 C533 1.434 . S
C533 C524 1.429 . S
C533 N530 1.350 . S
C533 C532 1.434 . S
C534 C535 1.369 . S
C534 C536 1.419 . S
C534 H538 0.930 . S
C535 C534 1.369 . S
C535 C544 1.429 . S
C536 C534 1.419 . S
C536 C537 1.363 . S
C536 H539 0.929 . S
C537 C536 1.363 . S
C537 C543 1.428 . S
H538 C534 0.930 . S
H539 C536 0.929 . S
S540 N541 1.613 . S
S540 N542 1.610 . S
N541 S540 1.613 . S
N541 C544 1.350 . S
N542 S540 1.610 . S
N542 C543 1.351 . S
C543 C537 1.428 . S
C543 N542 1.351 . S
C543 C544 1.434 . S
C544 C535 1.429 . S
C544 N541 1.350 . S
C544 C543 1.434 . S
C545 C546 1.369 . S
C545 C547 1.419 . S
C545 H549 0.930 . S
C546 C545 1.369 . S
C546 C555 1.429 . S
C547 C545 1.419 . S
C547 C548 1.363 . S
C547 H550 0.929 . S
C548 C547 1.363 . S
C548 C554 1.428 . S
H549 C545 0.930 . S
H550 C547 0.929 . S
S551 N552 1.613 . S
S551 N553 1.610 . S
N552 S551 1.613 . S
N552 C555 1.350 . S
N553 S551 1.610 . S
N553 C554 1.351 . S
C554 C548 1.428 . S
C554 N553 1.351 . S
C554 C555 1.434 . S
C555 C546 1.429 . S
C555 N552 1.350 . S
C555 C554 1.434 . S
C556 C557 1.369 . S
C556 C558 1.419 . S
C556 H560 0.930 . S
C557 C556 1.369 . S
C557 C566 1.429 . S
C558 C556 1.419 . S
C558 C559 1.363 . S
C558 H561 0.929 . S
C559 C558 1.363 . S
C559 C565 1.428 . S
H560 C556 0.930 . S
H561 C558 0.929 . S
S562 N563 1.613 . S
S562 N564 1.610 . S
N563 S562 1.613 . S
N563 C566 1.350 . S
N564 S562 1.610 . S
N564 C565 1.351 . S
C565 C559 1.428 . S
C565 N564 1.351 . S
C565 C566 1.434 . S
C566 C557 1.429 . S
C566 N563 1.350 . S
C566 C565 1.434 . S
C567 C568 1.369 . S
C567 C569 1.419 . S
C567 H571 0.930 . S
C568 C567 1.369 . S
C568 C577 1.429 . S
C569 C567 1.419 . S
C569 C570 1.363 . S
C569 H572 0.929 . S
C570 C569 1.363 . S
C570 C576 1.428 . S
H571 C567 0.930 . S
H572 C569 0.929 . S
S573 N574 1.613 . S
S573 N575 1.610 . S
N574 S573 1.613 . S
N574 C577 1.350 . S
N575 S573 1.610 . S
N575 C576 1.351 . S
C576 C570 1.428 . S
C576 N575 1.351 . S
C576 C577 1.434 . S
C577 C568 1.429 . S
C577 N574 1.350 . S
C577 C576 1.434 . S
C578 C579 1.369 . S
C578 C580 1.419 . S
C578 H582 0.930 . S
C579 C578 1.369 . S
C579 C588 1.429 . S
C580 C578 1.419 . S
C580 C581 1.363 . S
C580 H583 0.929 . S
C581 C580 1.363 . S
C581 C587 1.428 . S
H582 C578 0.930 . S
H583 C580 0.929 . S
S584 N585 1.613 . S
S584 N586 1.610 . S
N585 S584 1.613 . S
N585 C588 1.350 . S
N586 S584 1.610 . S
N586 C587 1.351 . S
C587 C581 1.428 . S
C587 N586 1.351 . S
C587 C588 1.434 . S
C588 C579 1.429 . S
C588 N585 1.350 . S
C588 C587 1.434 . S
C589 C590 1.369 . S
C589 C591 1.419 . S
C589 H593 0.930 . S
C590 C589 1.369 . S
C590 C599 1.429 . S
C591 C589 1.419 . S
C591 C592 1.363 . S
C591 H594 0.929 . S
C592 C591 1.363 . S
C592 C598 1.428 . S
H593 C589 0.930 . S
H594 C591 0.929 . S
S595 N596 1.613 . S
S595 N597 1.610 . S
N596 S595 1.613 . S
N596 C599 1.350 . S
N597 S595 1.610 . S
N597 C598 1.351 . S
C598 C592 1.428 . S
C598 N597 1.351 . S
C598 C599 1.434 . S
C599 C590 1.429 . S
C599 N596 1.350 . S
C599 C598 1.434 . S
C600 C601 1.369 . S
C600 C602 1.419 1_455 S
C600 H604 0.930 . S
C601 C600 1.369 . S
C601 C610 1.429 . S
C602 C600 1.419 1_655 S
C602 C603 1.363 . S
C602 H605 0.929 . S
C603 C602 1.363 . S
C603 C609 1.428 . S
H604 C600 0.930 . S
H605 C602 0.929 . S
S606 N607 1.613 . S
S606 N608 1.610 1_455 S
N607 S606 1.613 . S
N607 C610 1.350 . S
N608 S606 1.610 1_655 S
N608 C609 1.351 . S
C609 C603 1.428 . S
C609 N608 1.351 . S
C609 C610 1.434 1_655 S
C610 C601 1.429 . S
C610 N607 1.350 . S
C610 C609 1.434 1_455 S
C611 C612 1.369 . S
C611 C613 1.419 1_545 S
C611 H615 0.930 . S
C612 C611 1.369 . S
C612 C621 1.429 . S
C613 C611 1.419 1_565 S
C613 C614 1.363 . S
C613 H616 0.929 . S
C614 C613 1.363 . S
C614 C620 1.428 . S
H615 C611 0.930 . S
H616 C613 0.929 . S
S617 N618 1.613 . S
S617 N619 1.610 1_545 S
N618 S617 1.613 . S
N618 C621 1.350 . S
N619 S617 1.610 1_565 S
N619 C620 1.351 . S
C620 C614 1.428 . S
C620 N619 1.351 . S
C620 C621 1.434 1_565 S
C621 C612 1.429 . S
C621 N618 1.350 . S
C621 C620 1.434 1_545 S
C622 C623 1.369 . S
C622 C624 1.419 1_655 S
C622 H626 0.930 . S
C623 C622 1.369 . S
C623 C632 1.429 . S
C624 C622 1.419 1_455 S
C624 C625 1.363 . S
C624 H627 0.929 . S
C625 C624 1.363 . S
C625 C631 1.428 . S
H626 C622 0.930 . S
H627 C624 0.929 . S
S628 N629 1.613 . S
S628 N630 1.610 1_655 S
N629 S628 1.613 . S
N629 C632 1.350 . S
N630 S628 1.610 1_455 S
N630 C631 1.351 . S
C631 C625 1.428 . S
C631 N630 1.351 . S
C631 C632 1.434 1_455 S
C632 C623 1.429 . S
C632 N629 1.350 . S
C632 C631 1.434 1_655 S
C633 C634 1.369 . S
C633 C635 1.419 1_545 S
C633 H637 0.930 . S
C634 C633 1.369 . S
C634 C643 1.429 . S
C635 C633 1.419 1_565 S
C635 C636 1.363 . S
C635 H638 0.929 . S
C636 C635 1.363 . S
C636 C642 1.428 . S
H637 C633 0.930 . S
H638 C635 0.929 . S
S639 N640 1.613 . S
S639 N641 1.610 1_545 S
N640 S639 1.613 . S
N640 C643 1.350 . S
N641 S639 1.610 1_565 S
N641 C642 1.351 . S
C642 C636 1.428 . S
C642 N641 1.351 . S
C642 C643 1.434 1_565 S
C643 C634 1.429 . S
C643 N640 1.350 . S
C643 C642 1.434 1_545 S
C644 C645 1.369 . S
C644 C646 1.419 1_565 S
C644 H648 0.930 . S
C645 C644 1.369 . S
C645 C654 1.429 . S
C646 C644 1.419 1_545 S
C646 C647 1.363 . S
C646 H649 0.929 . S
C647 C646 1.363 . S
C647 C653 1.428 . S
H648 C644 0.930 . S
H649 C646 0.929 . S
S650 N651 1.613 1_545 S
S650 N652 1.610 . S
N651 S650 1.613 1_565 S
N651 C654 1.350 . S
N652 S650 1.610 . S
N652 C653 1.351 . S
C653 C647 1.428 . S
C653 N652 1.351 . S
C653 C654 1.434 1_545 S
C654 C645 1.429 . S
C654 N651 1.350 . S
C654 C653 1.434 1_565 S
C655 C656 1.369 . S
C655 C657 1.419 1_655 S
C655 H659 0.930 . S
C656 C655 1.369 . S
C656 C665 1.429 . S
C657 C655 1.419 1_455 S
C657 C658 1.363 . S
C657 H660 0.929 . S
C658 C657 1.363 . S
C658 C664 1.428 . S
H659 C655 0.930 . S
H660 C657 0.929 . S
S661 N662 1.613 . S
S661 N663 1.610 1_655 S
N662 S661 1.613 . S
N662 C665 1.350 . S
N663 S661 1.610 1_455 S
N663 C664 1.351 . S
C664 C658 1.428 . S
C664 N663 1.351 . S
C664 C665 1.434 1_455 S
C665 C656 1.429 . S
C665 N662 1.350 . S
C665 C664 1.434 1_655 S
C666 C667 1.369 . S
C666 C668 1.419 1_565 S
C666 H670 0.930 . S
C667 C666 1.369 . S
C667 C676 1.429 . S
C668 C666 1.419 1_545 S
C668 C669 1.363 . S
C668 H671 0.929 . S
C669 C668 1.363 . S
C669 C675 1.428 . S
H670 C666 0.930 . S
H671 C668 0.929 . S
S672 N673 1.613 1_545 S
S672 N674 1.610 . S
N673 S672 1.613 1_565 S
N673 C676 1.350 . S
N674 S672 1.610 . S
N674 C675 1.351 . S
C675 C669 1.428 . S
C675 N674 1.351 . S
C675 C676 1.434 1_545 S
C676 C667 1.429 . S
C676 N673 1.350 . S
C676 C675 1.434 1_565 S
C677 C678 1.369 . S
C677 C679 1.419 1_655 S
C677 H681 0.930 . S
C678 C677 1.369 . S
C678 C687 1.429 . S
C679 C677 1.419 1_455 S
C679 C680 1.363 . S
C679 H682 0.929 . S
C680 C679 1.363 . S
C680 C686 1.428 . S
H681 C677 0.930 . S
H682 C679 0.929 . S
S683 N684 1.613 1_455 S
S683 N685 1.610 . S
N684 S683 1.613 1_655 S
N684 C687 1.350 . S
N685 S683 1.610 . S
N685 C686 1.351 . S
C686 C680 1.428 . S
C686 N685 1.351 . S
C686 C687 1.434 1_455 S
C687 C678 1.429 . S
C687 N684 1.350 . S
C687 C686 1.434 1_655 S
C688 C689 1.369 . S
C688 C690 1.419 1_556 S
C688 H692 0.930 . S
C689 C688 1.369 . S
C689 C698 1.429 . S
C690 C688 1.419 1_554 S
C690 C691 1.363 . S
C690 H693 0.929 . S
C691 C690 1.363 . S
C691 C697 1.428 . S
H692 C688 0.930 . S
H693 C690 0.929 . S
S694 N695 1.613 . S
S694 N696 1.610 1_556 S
N695 S694 1.613 . S
N695 C698 1.350 . S
N696 S694 1.610 1_554 S
N696 C697 1.351 . S
C697 C691 1.428 . S
C697 N696 1.351 . S
C697 C698 1.434 1_554 S
C698 C689 1.429 . S
C698 N695 1.350 . S
C698 C697 1.434 1_556 S
C699 C700 1.369 . S
C699 C701 1.419 1_556 S
C699 H703 0.930 . S
C700 C699 1.369 . S
C700 C709 1.429 . S
C701 C699 1.419 1_554 S
C701 C702 1.363 . S
C701 H704 0.929 . S
C702 C701 1.363 . S
C702 C708 1.428 . S
H703 C699 0.930 . S
H704 C701 0.929 . S
S705 N706 1.613 1_554 S
S705 N707 1.610 . S
N706 S705 1.613 1_556 S
N706 C709 1.350 . S
N707 S705 1.610 . S
N707 C708 1.351 . S
C708 C702 1.428 . S
C708 N707 1.351 . S
C708 C709 1.434 1_554 S
C709 C700 1.429 . S
C709 N706 1.350 . S
C709 C708 1.434 1_556 S
C710 C711 1.369 . S
C710 C712 1.419 1_556 S
C710 H714 0.930 . S
C711 C710 1.369 . S
C711 C720 1.429 . S
C712 C710 1.419 1_554 S
C712 C713 1.363 . S
C712 H715 0.929 . S
C713 C712 1.363 . S
C713 C719 1.428 . S
H714 C710 0.930 . S
H715 C712 0.929 . S
S716 N717 1.613 . S
S716 N718 1.610 1_556 S
N717 S716 1.613 . S
N717 C720 1.350 . S
N718 S716 1.610 1_554 S
N718 C719 1.351 . S
C719 C713 1.428 . S
C719 N718 1.351 . S
C719 C720 1.434 1_554 S
C720 C711 1.429 . S
C720 N717 1.350 . S
C720 C719 1.434 1_556 S
C721 C722 1.369 . S
C721 C723 1.419 1_556 S
C721 H725 0.930 . S
C722 C721 1.369 . S
C722 C731 1.429 . S
C723 C721 1.419 1_554 S
C723 C724 1.363 . S
C723 H726 0.929 . S
C724 C723 1.363 . S
C724 C730 1.428 . S
H725 C721 0.930 . S
H726 C723 0.929 . S
S727 N728 1.613 1_554 S
S727 N729 1.610 . S
N728 S727 1.613 1_556 S
N728 C731 1.350 . S
N729 S727 1.610 . S
N729 C730 1.351 . S
C730 C724 1.428 . S
C730 N729 1.351 . S
C730 C731 1.434 1_554 S
C731 C722 1.429 . S
C731 N728 1.350 . S
C731 C730 1.434 1_556 S
C732 C733 1.369 . S
C732 C734 1.419 . S
C732 H736 0.930 . S
C733 C732 1.369 . S
C733 C742 1.429 . S
C734 C732 1.419 . S
C734 C735 1.363 . S
C734 H737 0.929 . S
C735 C734 1.363 . S
C735 C741 1.428 . S
H736 C732 0.930 . S
H737 C734 0.929 . S
S738 N739 1.613 . S
S738 N740 1.610 . S
N739 S738 1.613 . S
N739 C742 1.350 . S
N740 S738 1.610 . S
N740 C741 1.351 . S
C741 C735 1.428 . S
C741 N740 1.351 . S
C741 C742 1.434 . S
C742 C733 1.429 . S
C742 N739 1.350 . S
C742 C741 1.434 . S
C743 C744 1.369 . S
C743 C745 1.419 . S
C743 H747 0.930 . S
C744 C743 1.369 . S
C744 C753 1.429 . S
C745 C743 1.419 . S
C745 C746 1.363 . S
C745 H748 0.929 . S
C746 C745 1.363 . S
C746 C752 1.428 . S
H747 C743 0.930 . S
H748 C745 0.929 . S
S749 N750 1.613 . S
S749 N751 1.610 . S
N750 S749 1.613 . S
N750 C753 1.350 . S
N751 S749 1.610 . S
N751 C752 1.351 . S
C752 C746 1.428 . S
C752 N751 1.351 . S
C752 C753 1.434 . S
C753 C744 1.429 . S
C753 N750 1.350 . S
C753 C752 1.434 . S
C754 C755 1.369 . S
C754 C756 1.419 . S
C754 H758 0.930 . S
C755 C754 1.369 . S
C755 C764 1.429 . S
C756 C754 1.419 . S
C756 C757 1.363 . S
C756 H759 0.929 . S
C757 C756 1.363 . S
C757 C763 1.428 . S
H758 C754 0.930 . S
H759 C756 0.929 . S
S760 N761 1.613 . S
S760 N762 1.610 . S
N761 S760 1.613 . S
N761 C764 1.350 . S
N762 S760 1.610 . S
N762 C763 1.351 . S
C763 C757 1.428 . S
C763 N762 1.351 . S
C763 C764 1.434 . S
C764 C755 1.429 . S
C764 N761 1.350 . S
C764 C763 1.434 . S
C765 C766 1.369 . S
C765 C767 1.419 . S
C765 H769 0.930 . S
C766 C765 1.369 . S
C766 C775 1.429 . S
C767 C765 1.419 . S
C767 C768 1.363 . S
C767 H770 0.929 . S
C768 C767 1.363 . S
C768 C774 1.428 . S
H769 C765 0.930 . S
H770 C767 0.929 . S
S771 N772 1.613 . S
S771 N773 1.610 . S
N772 S771 1.613 . S
N772 C775 1.350 . S
N773 S771 1.610 . S
N773 C774 1.351 . S
C774 C768 1.428 . S
C774 N773 1.351 . S
C774 C775 1.434 . S
C775 C766 1.429 . S
C775 N772 1.350 . S
C775 C774 1.434 . S
C776 C777 1.369 . S
C776 C778 1.419 . S
C776 H780 0.930 . S
C777 C776 1.369 . S
C777 C786 1.429 . S
C778 C776 1.419 . S
C778 C779 1.363 . S
C778 H781 0.929 . S
C779 C778 1.363 . S
C779 C785 1.428 . S
H780 C776 0.930 . S
H781 C778 0.929 . S
S782 N783 1.613 . S
S782 N784 1.610 . S
N783 S782 1.613 . S
N783 C786 1.350 . S
N784 S782 1.610 . S
N784 C785 1.351 . S
C785 C779 1.428 . S
C785 N784 1.351 . S
C785 C786 1.434 . S
C786 C777 1.429 . S
C786 N783 1.350 . S
C786 C785 1.434 . S
C787 C788 1.369 . S
C787 C789 1.419 . S
C787 H791 0.930 . S
C788 C787 1.369 . S
C788 C797 1.429 . S
C789 C787 1.419 . S
C789 C790 1.363 . S
C789 H792 0.929 . S
C790 C789 1.363 . S
C790 C796 1.428 . S
H791 C787 0.930 . S
H792 C789 0.929 . S
S793 N794 1.613 . S
S793 N795 1.610 . S
N794 S793 1.613 . S
N794 C797 1.350 . S
N795 S793 1.610 . S
N795 C796 1.351 . S
C796 C790 1.428 . S
C796 N795 1.351 . S
C796 C797 1.434 . S
C797 C788 1.429 . S
C797 N794 1.350 . S
C797 C796 1.434 . S
C798 C799 1.369 . S
C798 C800 1.419 . S
C798 H802 0.930 . S
C799 C798 1.369 . S
C799 C808 1.429 . S
C800 C798 1.419 . S
C800 C801 1.363 . S
C800 H803 0.929 . S
C801 C800 1.363 . S
C801 C807 1.428 . S
H802 C798 0.930 . S
H803 C800 0.929 . S
S804 N805 1.613 . S
S804 N806 1.610 . S
N805 S804 1.613 . S
N805 C808 1.350 . S
N806 S804 1.610 . S
N806 C807 1.351 . S
C807 C801 1.428 . S
C807 N806 1.351 . S
C807 C808 1.434 . S
C808 C799 1.429 . S
C808 N805 1.350 . S
C808 C807 1.434 . S
C809 C810 1.369 . S
C809 C811 1.419 . S
C809 H813 0.930 . S
C810 C809 1.369 . S
C810 C819 1.429 . S
C811 C809 1.419 . S
C811 C812 1.363 . S
C811 H814 0.929 . S
C812 C811 1.363 . S
C812 C818 1.428 . S
H813 C809 0.930 . S
H814 C811 0.929 . S
S815 N816 1.613 . S
S815 N817 1.610 . S
N816 S815 1.613 . S
N816 C819 1.350 . S
N817 S815 1.610 . S
N817 C818 1.351 . S
C818 C812 1.428 . S
C818 N817 1.351 . S
C818 C819 1.434 . S
C819 C810 1.429 . S
C819 N816 1.350 . S
C819 C818 1.434 . S
C820 C821 1.369 . S
C820 C822 1.419 . S
C820 H824 0.930 . S
C821 C820 1.369 . S
C821 C830 1.429 . S
C822 C820 1.419 . S
C822 C823 1.363 . S
C822 H825 0.929 . S
C823 C822 1.363 . S
C823 C829 1.428 . S
H824 C820 0.930 . S
H825 C822 0.929 . S
S826 N827 1.613 . S
S826 N828 1.610 . S
N827 S826 1.613 . S
N827 C830 1.350 . S
N828 S826 1.610 . S
N828 C829 1.351 . S
C829 C823 1.428 . S
C829 N828 1.351 . S
C829 C830 1.434 . S
C830 C821 1.429 . S
C830 N827 1.350 . S
C830 C829 1.434 . S
C831 C832 1.369 . S
C831 C833 1.419 . S
C831 H835 0.930 . S
C832 C831 1.369 . S
C832 C841 1.429 . S
C833 C831 1.419 . S
C833 C834 1.363 . S
C833 H836 0.929 . S
C834 C833 1.363 . S
C834 C840 1.428 . S
H835 C831 0.930 . S
H836 C833 0.929 . S
S837 N838 1.613 . S
S837 N839 1.610 . S
N838 S837 1.613 . S
N838 C841 1.350 . S
N839 S837 1.610 . S
N839 C840 1.351 . S
C840 C834 1.428 . S
C840 N839 1.351 . S
C840 C841 1.434 . S
C841 C832 1.429 . S
C841 N838 1.350 . S
C841 C840 1.434 . S
C842 C843 1.369 . S
C842 C844 1.419 . S
C842 H846 0.930 . S
C843 C842 1.369 . S
C843 C852 1.429 . S
C844 C842 1.419 . S
C844 C845 1.363 . S
C844 H847 0.929 . S
C845 C844 1.363 . S
C845 C851 1.428 . S
H846 C842 0.930 . S
H847 C844 0.929 . S
S848 N849 1.613 . S
S848 N850 1.610 . S
N849 S848 1.613 . S
N849 C852 1.350 . S
N850 S848 1.610 . S
N850 C851 1.351 . S
C851 C845 1.428 . S
C851 N850 1.351 . S
C851 C852 1.434 . S
C852 C843 1.429 . S
C852 N849 1.350 . S
C852 C851 1.434 . S
C853 C854 1.369 . S
C853 C855 1.419 . S
C853 H857 0.930 . S
C854 C853 1.369 . S
C854 C863 1.429 . S
C855 C853 1.419 . S
C855 C856 1.363 . S
C855 H858 0.929 . S
C856 C855 1.363 . S
C856 C862 1.428 . S
H857 C853 0.930 . S
H858 C855 0.929 . S
S859 N860 1.613 . S
S859 N861 1.610 . S
N860 S859 1.613 . S
N860 C863 1.350 . S
N861 S859 1.610 . S
N861 C862 1.351 . S
C862 C856 1.428 . S
C862 N861 1.351 . S
C862 C863 1.434 . S
C863 C854 1.429 . S
C863 N860 1.350 . S
C863 C862 1.434 . S
C337 C163 1.512 . S
C339 C0 1.464 . S
C348 C14 1.464 . S
C350 C121 1.513 . S
C359 C28 1.465 . S
C361 C135 1.513 . S
C370 C42 1.464 . S
C372 C149 1.513 . S
C381 C191 1.513 . S
C383 C56 1.466 . S
C392 C70 1.472 . S
C394 C205 1.515 . S
C403 C219 1.515 . S
C405 C84 1.470 . S
C414 C177 1.515 . S
C416 C98 1.470 . S
C425 C79 1.514 . S
C427 C112 1.469 . S
C436 C93 1.512 . S
C438 C126 1.465 . S
C447 C140 1.470 . S
C449 C107 1.514 . S
C458 C65 1.514 . S
C460 C154 1.469 . S
C469 C51 1.514 . S
C471 C168 1.468 . S
C480 C182 1.465 . S
C482 C9 1.513 . S
C491 C196 1.471 . S
C493 C23 1.515 . S
C502 C210 1.465 . S
C504 C37 1.513 . S
C513 C224 1.471 . S
C515 C331 1.515 . S
C524 C289 1.513 . S
C526 C238 1.466 . S
C535 C252 1.466 . S
C537 C247 1.513 . S
C546 C266 1.469 . S
C548 C261 1.514 . S
C557 C275 1.515 . S
C559 C280 1.470 . S
C568 C294 1.465 . S
C570 C317 1.513 . S
C579 C233 1.515 . S
C581 C308 1.471 . S
C590 C303 1.515 . S
C592 C322 1.471 . S
C601 C5 1.520 . S
C603 C89 1.521 . S
C612 C19 1.520 . S
C614 C103 1.521 . S
C623 C33 1.519 . S
C625 C61 1.519 . S
C634 C75 1.519 . S
C636 C47 1.520 . S
C645 C145 1.520 . S
C647 C117 1.519 . S
C656 C131 1.519 . S
C658 C159 1.520 . S
C667 C173 1.521 . S
C669 C201 1.520 . S
C678 C215 1.520 . S
C680 C187 1.519 . S
C689 C243 1.519 . S
C691 C229 1.520 . S
C700 C257 1.519 . S
C702 C327 1.519 . S
C711 C271 1.520 . S
C713 C299 1.521 . S
C722 C285 1.519 . S
C724 C313 1.519 . S
C733 C11 1.165 . S
C735 C81 1.166 . S
C744 C25 1.162 . S
C746 C95 1.163 . S
C755 C39 1.163 . S
C757 C109 1.164 . S
C766 C67 1.163 . S
C768 C53 1.163 . S
C777 C123 1.164 . S
C779 C333 1.163 . S
C788 C137 1.162 . S
C790 C305 1.163 . S
C799 C319 1.165 . S
C801 C151 1.166 . S
C810 C165 1.163 . S
C812 C235 1.165 . S
C821 C291 1.163 . S
C823 C179 1.163 . S
C832 C249 1.166 . S
C834 C193 1.165 . S
C843 C207 1.164 . S
C845 C263 1.165 . S
C854 C277 1.163 . S
C856 C221 1.165 . S
