# Generated by pormake.
# Topology wkc, (5)-cn, num edge types: 1
# Building blocks:
#     Node 0, Type 0, BuildingBlock: XOMCOT_clean_sbu_0, # of connection points: 5
#     Node 1, Type 0, BuildingBlock: XOMCOT_clean_sbu_0, # of connection points: 5
#     Node 2, Type 0, BuildingBlock: XOMCOT_clean_sbu_0, # of connection points: 5
#     Node 3, Type 0, BuildingBlock: XOMCOT_clean_sbu_0, # of connection points: 5
#     Node 4, Type 0, BuildingBlock: XOMCOT_clean_sbu_0, # of connection points: 5
#     Node 5, Type 0, BuildingBlock: XOMCOT_clean_sbu_0, # of connection points: 5
#     Node 6, Type 0, BuildingBlock: XOMCOT_clean_sbu_0, # of connection points: 5
#     Node 7, Type 0, BuildingBlock: XOMCOT_clean_sbu_0, # of connection points: 5
#     Node 8, Type 0, BuildingBlock: XOMCOT_clean_sbu_0, # of connection points: 5
#     Node 9, Type 0, BuildingBlock: XOMCOT_clean_sbu_0, # of connection points: 5
#     Node 10, Type 0, BuildingBlock: XOMCOT_clean_sbu_0, # of connection points: 5
#     Node 11, Type 0, BuildingBlock: XOMCOT_clean_sbu_0, # of connection points: 5
#     Edge 12, Type (0, 0), BuildingBlock: TEMPAE_clean_linker_10, # of connection points: 2
#     Edge 13, Type (0, 0), BuildingBlock: TEMPAE_clean_linker_10, # of connection points: 2
#     Edge 14, Type (0, 0), BuildingBlock: TEMPAE_clean_linker_10, # of connection points: 2
#     Edge 15, Type (0, 0), BuildingBlock: TEMPAE_clean_linker_10, # of connection points: 2
#     Edge 16, Type (0, 0), BuildingBlock: TEMPAE_clean_linker_10, # of connection points: 2
#     Edge 17, Type (0, 0), BuildingBlock: TEMPAE_clean_linker_10, # of connection points: 2
#     Edge 18, Type (0, 0), BuildingBlock: TEMPAE_clean_linker_10, # of connection points: 2
#     Edge 19, Type (0, 0), BuildingBlock: TEMPAE_clean_linker_10, # of connection points: 2
#     Edge 20, Type (0, 0), BuildingBlock: TEMPAE_clean_linker_10, # of connection points: 2
#     Edge 21, Type (0, 0), BuildingBlock: TEMPAE_clean_linker_10, # of connection points: 2
#     Edge 22, Type (0, 0), BuildingBlock: TEMPAE_clean_linker_10, # of connection points: 2
#     Edge 23, Type (0, 0), BuildingBlock: TEMPAE_clean_linker_10, # of connection points: 2
#     Edge 24, Type (0, 0), BuildingBlock: TEMPAE_clean_linker_10, # of connection points: 2
#     Edge 25, Type (0, 0), BuildingBlock: TEMPAE_clean_linker_10, # of connection points: 2
#     Edge 26, Type (0, 0), BuildingBlock: TEMPAE_clean_linker_10, # of connection points: 2
#     Edge 27, Type (0, 0), BuildingBlock: TEMPAE_clean_linker_10, # of connection points: 2
#     Edge 28, Type (0, 0), BuildingBlock: TEMPAE_clean_linker_10, # of connection points: 2
#     Edge 29, Type (0, 0), BuildingBlock: TEMPAE_clean_linker_10, # of connection points: 2
#     Edge 30, Type (0, 0), BuildingBlock: TEMPAE_clean_linker_10, # of connection points: 2
#     Edge 31, Type (0, 0), BuildingBlock: TEMPAE_clean_linker_10, # of connection points: 2
#     Edge 32, Type (0, 0), BuildingBlock: TEMPAE_clean_linker_10, # of connection points: 2
#     Edge 33, Type (0, 0), BuildingBlock: TEMPAE_clean_linker_10, # of connection points: 2
#     Edge 34, Type (0, 0), BuildingBlock: TEMPAE_clean_linker_10, # of connection points: 2
#     Edge 35, Type (0, 0), BuildingBlock: TEMPAE_clean_linker_10, # of connection points: 2
#     Edge 36, Type (0, 0), BuildingBlock: TEMPAE_clean_linker_10, # of connection points: 2
#     Edge 37, Type (0, 0), BuildingBlock: TEMPAE_clean_linker_10, # of connection points: 2
#     Edge 38, Type (0, 0), BuildingBlock: TEMPAE_clean_linker_10, # of connection points: 2
#     Edge 39, Type (0, 0), BuildingBlock: TEMPAE_clean_linker_10, # of connection points: 2
#     Edge 40, Type (0, 0), BuildingBlock: TEMPAE_clean_linker_10, # of connection points: 2
#     Edge 41, Type (0, 0), BuildingBlock: TEMPAE_clean_linker_10, # of connection points: 2
# Relax obj value: 0.256
# Max RMSD: 0.220
# Mean RMSD: 0.220
data_MOF--net-wkc--node1-XOMCOT_clean_sbu_0--edge1-TEMPAE_clean_linker_10
_symmetry_space_group_name_H-M    P1
_symmetry_Int_Tables_number       1
_symmetry_cell_setting            triclinic
loop_
_symmetry_equiv_pos_as_xyz
'x, y, z'
_cell_length_a     39.21601
_cell_length_b     39.221823
_cell_length_c     46.049584
_cell_angle_alpha  89.85709
_cell_angle_beta   90.140942
_cell_angle_gamma 119.93887
loop_
_atom_site_label
_atom_site_type_symbol
_atom_site_fract_x
_atom_site_fract_y
_atom_site_fract_z
_atom_type_partial_charge
Co0 Co 0.27553 0.43407 0.99642 0.0
C1 C 0.2905 0.3858 0.95547 0.0
C2 C 0.23365 0.37958 0.94776 0.0
C3 C 0.23941 0.35619 0.92823 0.0
N4 N 0.2657 0.39791 0.96485 0.0
N5 N 0.27528 0.36034 0.93307 0.0
H6 H 0.31885 0.3949 0.96532 0.0
H7 H 0.20795 0.38289 0.94937 0.0
C8 C 0.20187 0.40199 0.03056 0.0
O9 O 0.22505 0.41104 0.05334 0.0
N10 N 0.28615 0.4716 0.02764 0.0
C11 C 0.31405 0.48465 0.04853 0.0
C12 C 0.31205 0.51313 0.0645 0.0
C13 C 0.26839 0.49337 0.03083 0.0
N14 N 0.28329 0.51859 0.05343 0.0
C15 C 0.31715 0.40677 0.03233 0.0
C16 C 0.25271 0.33576 0.04784 0.0
C17 C 0.28873 0.34801 0.06181 0.0
C18 C 0.32167 0.38308 0.05278 0.0
C19 C 0.24979 0.36023 0.0271 0.0
N20 N 0.2808 0.39714 0.02198 0.0
H21 H 0.34294 0.43342 0.02538 0.0
H22 H 0.22223 0.34972 0.01576 0.0
H23 H 0.33573 0.47589 0.05173 0.0
H24 H 0.24507 0.49077 0.01675 0.0
O25 O 0.3295 0.46488 0.98434 0.0
O26 O 0.28135 0.47433 0.96885 0.0
O27 O 0.21675 0.40867 0.00494 0.0
C28 C 0.31869 0.4853 0.96856 0.0
H29 H 0.21892 0.33786 0.91161 0.0
H30 H 0.33156 0.52982 0.08211 0.0
H31 H 0.22701 0.30785 0.05319 0.0
H32 H 0.35039 0.39303 0.06232 0.0
Co33 Co 0.84259 0.26237 0.15865 0.0
C34 C 0.90361 0.28196 0.11326 0.0
C35 C 0.87192 0.22016 0.12242 0.0
C36 C 0.90183 0.22773 0.10331 0.0
N37 N 0.87299 0.2542 0.1288 0.0
N38 N 0.92205 0.26671 0.09763 0.0
H39 H 0.91325 0.31297 0.11432 0.0
H40 H 0.8523 0.19188 0.13204 0.0
C41 C 0.77597 0.17895 0.15492 0.0
O42 O 0.75758 0.18985 0.13651 0.0
N43 N 0.81313 0.27102 0.18851 0.0
C44 C 0.82903 0.29755 0.2101 0.0
C45 C 0.79922 0.29616 0.22659 0.0
C46 C 0.77381 0.25429 0.19181 0.0
N47 N 0.7645 0.26895 0.21512 0.0
C48 C 0.91751 0.29155 0.18651 0.0
C49 C 0.88918 0.24299 0.23468 0.0
C50 C 0.92902 0.27205 0.23387 0.0
C51 C 0.9433 0.29599 0.20906 0.0
C52 C 0.86452 0.23931 0.21163 0.0
N53 N 0.87865 0.26373 0.1881 0.0
H54 H 0.92849 0.31139 0.16821 0.0
H55 H 0.83353 0.21826 0.21362 0.0
H56 H 0.86023 0.31703 0.21336 0.0
H57 H 0.75249 0.2323 0.17737 0.0
O58 O 0.86767 0.31762 0.14946 0.0
O59 O 0.81279 0.27163 0.12892 0.0
O60 O 0.80975 0.20401 0.16465 0.0
C61 C 0.83909 0.30882 0.13127 0.0
H62 H 0.90945 0.2063 0.09572 0.0
H63 H 0.80287 0.3148 0.245 0.0
H64 H 0.87653 0.2245 0.25362 0.0
H65 H 0.97392 0.31866 0.20738 0.0
Co66 Co 0.58754 0.84106 0.324 0.0
C67 C 0.63239 0.907 0.28233 0.0
C68 C 0.64052 0.85806 0.27357 0.0
C69 C 0.65994 0.88633 0.25258 0.0
N70 N 0.62438 0.87154 0.29301 0.0
N71 N 0.65484 0.91724 0.25811 0.0
H72 H 0.61954 0.92375 0.29059 0.0
H73 H 0.63729 0.82904 0.27386 0.0
C74 C 0.6491 0.81839 0.33137 0.0
O75 O 0.67472 0.85609 0.32868 0.0
N76 N 0.5497 0.81072 0.35373 0.0
C77 C 0.53747 0.8257 0.37492 0.0
C78 C 0.50882 0.79522 0.39077 0.0
C79 C 0.52786 0.77126 0.35658 0.0
N80 N 0.5027 0.76099 0.37927 0.0
C81 C 0.63302 0.91516 0.35422 0.0
C82 C 0.64938 0.88343 0.40232 0.0
C83 C 0.66145 0.92357 0.40228 0.0
C84 C 0.65348 0.93949 0.37761 0.0
C85 C 0.62937 0.8603 0.37844 0.0
N86 N 0.62188 0.87618 0.35442 0.0
H87 H 0.62429 0.92745 0.33688 0.0
H88 H 0.61802 0.82897 0.38 0.0
H89 H 0.54809 0.8567 0.37818 0.0
H90 H 0.52989 0.75066 0.34209 0.0
O91 O 0.55744 0.86656 0.3157 0.0
O92 O 0.54832 0.81193 0.29448 0.0
O93 O 0.61228 0.8064 0.32845 0.0
C94 C 0.53766 0.83839 0.29724 0.0
H95 H 0.67599 0.88382 0.23441 0.0
H96 H 0.49246 0.79804 0.4086 0.0
H97 H 0.65341 0.86938 0.42126 0.0
H98 H 0.66178 0.97027 0.3767 0.0
Co99 Co 0.74548 0.58301 0.49647 0.0
C100 C 0.73637 0.63695 0.45706 0.0
C101 C 0.78607 0.63108 0.44505 0.0
C102 C 0.78126 0.65415 0.42458 0.0
N103 N 0.75789 0.62041 0.46533 0.0
N104 N 0.74996 0.65776 0.4322 0.0
H105 H 0.71023 0.63238 0.46834 0.0
H106 H 0.80774 0.62169 0.44467 0.0
C107 C 0.81748 0.6109 0.5322 0.0
O108 O 0.79307 0.60079 0.55424 0.0
N109 N 0.73208 0.54378 0.52705 0.0
C110 C 0.70343 0.5308 0.54734 0.0
C111 C 0.70176 0.49928 0.56168 0.0
C112 C 0.74685 0.51919 0.52919 0.0
N113 N 0.7289 0.49182 0.55019 0.0
C114 C 0.70575 0.61157 0.53293 0.0
C115 C 0.77159 0.6812 0.54871 0.0
C116 C 0.73619 0.66934 0.56352 0.0
C117 C 0.70252 0.63486 0.55429 0.0
C118 C 0.77341 0.65658 0.52766 0.0
N119 N 0.74162 0.62026 0.52235 0.0
H120 H 0.67938 0.5858 0.52556 0.0
H121 H 0.80073 0.66645 0.51617 0.0
H122 H 0.6835 0.54156 0.55118 0.0
H123 H 0.76914 0.52033 0.51476 0.0
O124 O 0.69173 0.55472 0.48327 0.0
O125 O 0.73855 0.54299 0.46839 0.0
O126 O 0.80384 0.60608 0.50618 0.0
C127 C 0.70166 0.53374 0.46743 0.0
H128 H 0.79917 0.66696 0.40543 0.0
H129 H 0.68138 0.48256 0.57885 0.0
H130 H 0.79784 0.70881 0.55369 0.0
H131 H 0.67408 0.62477 0.56423 0.0
Co132 Co 0.17221 0.74334 0.66326 0.0
C133 C 0.10876 0.72995 0.623 0.0
C134 C 0.15856 0.78759 0.61651 0.0
C135 C 0.12923 0.78211 0.59711 0.0
N136 N 0.14546 0.75482 0.63273 0.0
N137 N 0.09805 0.7457 0.60115 0.0
H138 H 0.09003 0.701 0.6321 0.0
H139 H 0.18732 0.81351 0.61853 0.0
C140 C 0.21462 0.81513 0.69936 0.0
O141 O 0.2008 0.79053 0.72137 0.0
N142 N 0.19916 0.73048 0.69331 0.0
C143 C 0.18426 0.69836 0.71047 0.0
C144 C 0.21438 0.69787 0.72526 0.0
C145 C 0.23858 0.74841 0.69743 0.0
N146 N 0.24881 0.72945 0.71725 0.0
C147 C 0.10417 0.70095 0.69981 0.0
C148 C 0.0986 0.76542 0.717 0.0
C149 C 0.07509 0.72919 0.73069 0.0
C150 C 0.07665 0.69625 0.72085 0.0
C151 C 0.12523 0.76851 0.69568 0.0
N152 N 0.13071 0.73743 0.68966 0.0
H153 H 0.10414 0.67514 0.69187 0.0
H154 H 0.14209 0.79629 0.68459 0.0
H155 H 0.15415 0.67503 0.71111 0.0
H156 H 0.25917 0.77427 0.68543 0.0
O157 O 0.14846 0.68996 0.6497 0.0
O158 O 0.20602 0.73846 0.6347 0.0
O159 O 0.206 0.80169 0.67332 0.0
C160 C 0.17948 0.70121 0.6337 0.0
H161 H 0.13095 0.80309 0.58103 0.0
H162 H 0.21083 0.67443 0.73955 0.0
H163 H 0.09674 0.79114 0.72299 0.0
H164 H 0.05784 0.66736 0.73008 0.0
Co165 Co 0.43803 0.17001 0.82971 0.0
C166 C 0.38811 0.10606 0.78981 0.0
C167 C 0.38043 0.15598 0.78294 0.0
C168 C 0.35662 0.12664 0.76366 0.0
N169 N 0.39995 0.14282 0.79933 0.0
N170 N 0.36169 0.09536 0.76795 0.0
H171 H 0.39829 0.08732 0.79905 0.0
H172 H 0.3834 0.18483 0.78475 0.0
C173 C 0.40767 0.21181 0.86577 0.0
O174 O 0.41928 0.19895 0.88792 0.0
N175 N 0.47747 0.19764 0.85968 0.0
C176 C 0.49177 0.18318 0.87999 0.0
C177 C 0.52085 0.21391 0.89541 0.0
C178 C 0.49913 0.23717 0.86257 0.0
N179 N 0.52542 0.24784 0.88452 0.0
C180 C 0.41455 0.10154 0.86512 0.0
C181 C 0.34591 0.09549 0.88621 0.0
C182 C 0.3603 0.07261 0.89894 0.0
C183 C 0.39374 0.07412 0.88673 0.0
C184 C 0.36741 0.12198 0.86406 0.0
N185 N 0.40361 0.12791 0.85627 0.0
H186 H 0.44036 0.10233 0.85625 0.0
H187 H 0.35538 0.13856 0.85398 0.0
H188 H 0.48334 0.15284 0.88317 0.0
H189 H 0.49557 0.25763 0.84885 0.0
O190 O 0.46884 0.14761 0.816 0.0
O191 O 0.47623 0.20452 0.80095 0.0
O192 O 0.41215 0.20264 0.83982 0.0
C193 C 0.48794 0.17871 0.79996 0.0
H194 H 0.33749 0.12844 0.7475 0.0
H195 H 0.53847 0.21147 0.91255 0.0
H196 H 0.31924 0.0942 0.89391 0.0
H197 H 0.40443 0.05499 0.89433 0.0
Co198 Co 0.58586 0.74539 0.82397 0.0
C199 C 0.63958 0.73499 0.86286 0.0
C200 C 0.63446 0.78491 0.87552 0.0
C201 C 0.6572 0.77929 0.89583 0.0
N202 N 0.62351 0.7571 0.85491 0.0
N203 N 0.66035 0.74786 0.88781 0.0
H204 H 0.63464 0.70892 0.85129 0.0
H205 H 0.6254 0.80681 0.87626 0.0
C206 C 0.61653 0.81728 0.78775 0.0
O207 O 0.60659 0.79266 0.76585 0.0
N208 N 0.54628 0.73233 0.79363 0.0
C209 C 0.52661 0.69832 0.77873 0.0
C210 C 0.49639 0.69808 0.76358 0.0
C211 C 0.52626 0.75154 0.78807 0.0
N212 N 0.49605 0.73161 0.76927 0.0
C213 C 0.61119 0.70435 0.78577 0.0
C214 C 0.68317 0.76845 0.77181 0.0
C215 C 0.66962 0.73364 0.75582 0.0
C216 C 0.63384 0.70075 0.76406 0.0
C217 C 0.65919 0.77069 0.79322 0.0
N218 N 0.62195 0.74 0.7978 0.0
H219 H 0.585 0.67834 0.79279 0.0
H220 H 0.67015 0.79762 0.80547 0.0
H221 H 0.53081 0.67335 0.78051 0.0
H222 H 0.53296 0.7789 0.79845 0.0
O223 O 0.55664 0.69196 0.8376 0.0
O224 O 0.54663 0.74011 0.85213 0.0
O225 O 0.61041 0.80378 0.81385 0.0
C226 C 0.53635 0.70296 0.85327 0.0
H227 H 0.67005 0.79671 0.91518 0.0
H228 H 0.47454 0.6735 0.7511 0.0
H229 H 0.71164 0.79396 0.76748 0.0
H230 H 0.62247 0.67267 0.75324 0.0
Co231 Co 0.84262 0.58306 0.99499 0.0
C232 C 0.90833 0.63354 0.03576 0.0
C233 C 0.85359 0.62867 0.04832 0.0
C234 C 0.88127 0.64965 0.06938 0.0
N235 N 0.8707 0.61926 0.02679 0.0
N236 N 0.91571 0.65274 0.06134 0.0
H237 H 0.92944 0.62783 0.0253 0.0
H238 H 0.8227 0.61981 0.04913 0.0
C239 C 0.818 0.64341 0.98924 0.0
O240 O 0.85508 0.66939 0.99428 0.0
N241 N 0.81457 0.54593 0.96433 0.0
C242 C 0.83132 0.536 0.94294 0.0
C243 C 0.80227 0.50536 0.9275 0.0
C244 C 0.77552 0.52093 0.96188 0.0
N245 N 0.76721 0.49563 0.93952 0.0
C246 C 0.9169 0.62653 0.96502 0.0
C247 C 0.88799 0.64927 0.91864 0.0
C248 C 0.92741 0.6586 0.91822 0.0
C249 C 0.94193 0.64741 0.94208 0.0
C250 C 0.8642 0.6289 0.94218 0.0
N251 N 0.87885 0.61866 0.96556 0.0
H252 H 0.9275 0.61412 0.98103 0.0
H253 H 0.83318 0.61892 0.94043 0.0
H254 H 0.86264 0.54921 0.93941 0.0
H255 H 0.75399 0.51988 0.97707 0.0
O256 O 0.86877 0.5537 0.00409 0.0
O257 O 0.81256 0.54264 0.02361 0.0
O258 O 0.80695 0.60662 0.98995 0.0
C259 C 0.83967 0.53277 0.02158 0.0
H260 H 0.8763 0.66129 0.0892 0.0
H261 H 0.80676 0.49072 0.90925 0.0
H262 H 0.87476 0.65539 0.90015 0.0
H263 H 0.97194 0.65315 0.94253 0.0
Co264 Co 0.26366 0.83697 0.16236 0.0
C265 C 0.28007 0.90482 0.20116 0.0
C266 C 0.23231 0.85026 0.2164 0.0
C267 C 0.23986 0.87893 0.23673 0.0
N268 N 0.25694 0.86656 0.19368 0.0
N269 N 0.26992 0.91326 0.22706 0.0
H270 H 0.30563 0.92573 0.1893 0.0
H271 H 0.21109 0.81927 0.21851 0.0
C272 C 0.17841 0.81142 0.15959 0.0
O273 O 0.18946 0.84866 0.16375 0.0
N274 N 0.27151 0.80749 0.13213 0.0
C275 C 0.29692 0.82346 0.10986 0.0
C276 C 0.29868 0.79403 0.09514 0.0
C277 C 0.25837 0.76847 0.13087 0.0
N278 N 0.27474 0.75951 0.10844 0.0
C279 C 0.29199 0.90921 0.12973 0.0
C280 C 0.2371 0.8769 0.08558 0.0
C281 C 0.26721 0.91601 0.0832 0.0
C282 C 0.2946 0.9324 0.10581 0.0
C283 C 0.23544 0.85492 0.10986 0.0
N284 N 0.26199 0.87124 0.13212 0.0
H285 H 0.31608 0.92092 0.14486 0.0
H286 H 0.21435 0.82385 0.10952 0.0
H287 H 0.31423 0.8546 0.10529 0.0
H288 H 0.23912 0.74755 0.14693 0.0
O289 O 0.31959 0.86403 0.1698 0.0
O290 O 0.27586 0.80878 0.19137 0.0
O291 O 0.20441 0.80068 0.1595 0.0
C292 C 0.31253 0.836 0.18815 0.0
H293 H 0.22475 0.87468 0.25721 0.0
H294 H 0.31704 0.79793 0.07649 0.0
H295 H 0.21608 0.86281 0.06815 0.0
H296 H 0.31948 0.96196 0.10405 0.0
Co297 Co 0.43454 0.26309 0.32786 0.0
C298 C 0.3874 0.28218 0.3687 0.0
C299 C 0.38157 0.22618 0.37834 0.0
C300 C 0.36019 0.23373 0.39848 0.0
N301 N 0.39736 0.25583 0.35879 0.0
N302 N 0.36403 0.26908 0.39237 0.0
H303 H 0.39817 0.31115 0.35972 0.0
H304 H 0.38603 0.20112 0.37852 0.0
C305 C 0.37398 0.17859 0.32086 0.0
O306 O 0.34792 0.19016 0.32346 0.0
N307 N 0.47268 0.27162 0.29813 0.0
C308 C 0.48418 0.29903 0.27704 0.0
C309 C 0.51489 0.29998 0.26217 0.0
C310 C 0.49683 0.25646 0.29606 0.0
N311 N 0.52309 0.27348 0.27422 0.0
C312 C 0.38948 0.29198 0.29703 0.0
C313 C 0.37198 0.24283 0.24967 0.0
C314 C 0.36022 0.27117 0.24931 0.0
C315 C 0.36883 0.29564 0.27361 0.0
C316 C 0.39217 0.23993 0.2736 0.0
N317 N 0.4 0.26366 0.29736 0.0
H318 H 0.39909 0.3137 0.31384 0.0
H319 H 0.40348 0.21991 0.27221 0.0
H320 H 0.47183 0.31792 0.27332 0.0
H321 H 0.4965 0.23504 0.31109 0.0
O322 O 0.46397 0.31859 0.33638 0.0
O323 O 0.4738 0.27328 0.35741 0.0
O324 O 0.41072 0.20387 0.32337 0.0
C325 C 0.48409 0.3103 0.3547 0.0
H326 H 0.34411 0.21524 0.41671 0.0
H327 H 0.53055 0.31935 0.24422 0.0
H328 H 0.36762 0.22441 0.23095 0.0
H329 H 0.36096 0.31846 0.27417 0.0
Co330 Co 0.17429 0.43528 0.48862 0.0
C331 C 0.11073 0.38563 0.52888 0.0
C332 C 0.16163 0.37999 0.53689 0.0
C333 C 0.13253 0.35654 0.55647 0.0
N334 N 0.14771 0.39801 0.51961 0.0
N335 N 0.10062 0.36034 0.55146 0.0
H336 H 0.09144 0.39468 0.519 0.0
H337 H 0.19087 0.3838 0.53554 0.0
C338 C 0.21835 0.40602 0.45428 0.0
O339 O 0.20518 0.41636 0.43158 0.0
N340 N 0.20125 0.47406 0.45803 0.0
C341 C 0.18608 0.48712 0.43734 0.0
C342 C 0.2163 0.51767 0.42259 0.0
C343 C 0.24071 0.49764 0.45578 0.0
N344 N 0.25065 0.5244 0.43422 0.0
C345 C 0.10577 0.40797 0.45234 0.0
C346 C 0.10196 0.33886 0.43484 0.0
C347 C 0.07782 0.35093 0.42117 0.0
C348 C 0.07851 0.38494 0.4312 0.0
C349 C 0.1284 0.36264 0.45623 0.0
N350 N 0.13301 0.39883 0.46237 0.0
H351 H 0.10567 0.4339 0.45995 0.0
H352 H 0.14571 0.35219 0.46729 0.0
H353 H 0.15547 0.47689 0.43344 0.0
H354 H 0.26158 0.49607 0.47035 0.0
O355 O 0.15026 0.4652 0.50106 0.0
O356 O 0.20778 0.47478 0.51684 0.0
O357 O 0.20857 0.41087 0.4799 0.0
C358 C 0.18114 0.48541 0.51717 0.0
H359 H 0.13494 0.3386 0.57335 0.0
H360 H 0.2131 0.53414 0.40493 0.0
H361 H 0.10078 0.31162 0.42877 0.0
H362 H 0.05939 0.39467 0.42193 0.0
Co363 Co 0.7475 0.17146 0.65488 0.0
C364 C 0.73289 0.10786 0.69553 0.0
C365 C 0.78958 0.15845 0.70342 0.0
C366 C 0.78374 0.12924 0.72303 0.0
N367 N 0.75767 0.14479 0.68619 0.0
N368 N 0.74796 0.09751 0.71808 0.0
H369 H 0.70458 0.08875 0.68563 0.0
H370 H 0.81516 0.18753 0.70194 0.0
C371 C 0.82024 0.21297 0.61968 0.0
O372 O 0.79608 0.19933 0.59742 0.0
N373 N 0.73637 0.19868 0.624 0.0
C374 C 0.70969 0.18403 0.60226 0.0
C375 C 0.7105 0.21466 0.58715 0.0
C376 C 0.75232 0.23816 0.62203 0.0
N377 N 0.73727 0.24871 0.59958 0.0
C378 C 0.70491 0.10258 0.61934 0.0
C379 C 0.76894 0.09577 0.60295 0.0
C380 C 0.73263 0.07208 0.58939 0.0
C381 C 0.6999 0.07433 0.59886 0.0
C382 C 0.77237 0.12326 0.62365 0.0
N383 N 0.74151 0.12926 0.62921 0.0
H384 H 0.67934 0.10377 0.62648 0.0
H385 H 0.8002 0.14026 0.63465 0.0
H386 H 0.68969 0.15355 0.59776 0.0
H387 H 0.7743 0.25867 0.63697 0.0
O388 O 0.69377 0.14869 0.66754 0.0
O389 O 0.74241 0.20595 0.68276 0.0
O390 O 0.80623 0.20448 0.64558 0.0
C391 C 0.70499 0.1799 0.68328 0.0
H392 H 0.80407 0.13143 0.73983 0.0
H393 H 0.69141 0.21193 0.56921 0.0
H394 H 0.79451 0.09345 0.5973 0.0
H395 H 0.67099 0.05569 0.58962 0.0
C396 C 0.37791 0.25321 0.84995 0.0
C397 C 0.38669 0.23386 0.87187 0.0
C398 C 0.35893 0.27481 0.85656 0.0
C399 C 0.34822 0.27673 0.88568 0.0
C400 C 0.35647 0.25665 0.90769 0.0
C401 C 0.37563 0.23573 0.90056 0.0
C402 C 0.35083 0.296 0.83252 0.0
C403 C 0.34536 0.25751 0.93899 0.0
C404 C 0.33438 0.35914 0.91589 0.0
C405 C 0.29329 0.34081 0.91832 0.0
C406 C 0.35256 0.33946 0.90363 0.0
C407 C 0.32917 0.30024 0.89376 0.0
C408 C 0.28761 0.28213 0.89505 0.0
C409 C 0.27019 0.30267 0.9072 0.0
C410 C 0.39692 0.36008 0.90246 0.0
C411 C 0.26154 0.24027 0.88507 0.0
H412 H 0.38632 0.25195 0.82775 0.0
H413 H 0.38189 0.22069 0.91773 0.0
H414 H 0.31898 0.28628 0.83176 0.0
H415 H 0.36677 0.3281 0.83688 0.0
H416 H 0.35998 0.29081 0.81093 0.0
H417 H 0.35278 0.23935 0.95337 0.0
H418 H 0.3609 0.28821 0.94714 0.0
H419 H 0.31332 0.24656 0.94067 0.0
H420 H 0.35241 0.38887 0.92389 0.0
H421 H 0.23847 0.2882 0.90911 0.0
H422 H 0.40685 0.3572 0.88053 0.0
H423 H 0.40776 0.34608 0.9181 0.0
H424 H 0.41069 0.39183 0.90789 0.0
H425 H 0.27041 0.23598 0.86313 0.0
H426 H 0.22999 0.23194 0.88447 0.0
H427 H 0.2649 0.21994 0.90006 0.0
C428 C 0.14387 0.35927 0.06123 0.0
C429 C 0.15875 0.38078 0.03545 0.0
C430 C 0.1037 0.34068 0.06787 0.0
C431 C 0.07747 0.34404 0.04848 0.0
C432 C 0.09209 0.36511 0.02209 0.0
C433 C 0.13262 0.38299 0.01573 0.0
C434 C 0.08948 0.31796 0.096 0.0
C435 C 0.06513 0.36973 0.00103 0.0
C436 C 0.97036 0.26792 0.0623 0.0
C437 C 0.95892 0.28779 0.0819 0.0
C438 C 1.00812 0.28652 0.04984 0.0
C439 C 0.03513 0.32624 0.05673 0.0
C440 C 0.02294 0.3473 0.07485 0.0
C441 C 0.98521 0.32783 0.08733 0.0
C442 C 0.01986 0.26288 0.03072 0.0
C443 C 0.05062 0.38984 0.08252 0.0
H444 H 0.16379 0.35696 0.07642 0.0
H445 H 0.14402 0.3997 0.99584 0.0
H446 H 0.07714 0.33194 0.1102 0.0
H447 H 0.06559 0.28746 0.09162 0.0
H448 H 0.11338 0.31661 0.10802 0.0
H449 H 0.08052 0.38493 0.98073 0.0
H450 H 0.03981 0.34055 0.99537 0.0
H451 H 0.05304 0.38696 0.01138 0.0
H452 H 0.95018 0.23737 0.05723 0.0
H453 H 0.97722 0.34379 0.10239 0.0
H454 H 0.0415 0.25747 0.04241 0.0
H455 H 0.03431 0.27942 0.01064 0.0
H456 H 0.99427 0.23402 0.02459 0.0
H457 H 0.07382 0.39178 0.0974 0.0
H458 H 0.03517 0.40356 0.09335 0.0
H459 H 0.06548 0.4071 0.06277 0.0
C460 C 0.77896 0.12567 0.18282 0.0
C461 C 0.75674 0.13817 0.16668 0.0
C462 C 0.76122 0.08857 0.19625 0.0
C463 C 0.72008 0.06318 0.19373 0.0
C464 C 0.69753 0.07518 0.17695 0.0
C465 C 0.71615 0.11247 0.16352 0.0
C466 C 0.78649 0.07693 0.21369 0.0
C467 C 0.65357 0.04909 0.17388 0.0
C468 C 0.68095 0.95512 0.21231 0.0
C469 C 0.66939 0.95326 0.24141 0.0
C470 C 0.69667 0.99039 0.19633 0.0
C471 C 0.70075 0.02476 0.20961 0.0
C472 C 0.68833 0.02295 0.2387 0.0
C473 C 0.67304 0.98741 0.25424 0.0
C474 C 0.7097 0.99107 0.16541 0.0
C475 C 0.69206 0.05886 0.25371 0.0
H476 H 0.81038 0.14515 0.18529 0.0
H477 H 0.6987 0.12191 0.15124 0.0
H478 H 0.77735 0.07285 0.23681 0.0
H479 H 0.78242 0.04843 0.2058 0.0
H480 H 0.81826 0.0993 0.21248 0.0
H481 H 0.6405 0.06183 0.159 0.0
H482 H 0.6465 0.01974 0.16559 0.0
H483 H 0.63944 0.04449 0.19548 0.0
H484 H 0.6778 0.929 0.20189 0.0
H485 H 0.66483 0.98674 0.27674 0.0
H486 H 0.74186 0.01152 0.1636 0.0
H487 H 0.69498 1.00218 0.15068 0.0
H488 H 0.70311 0.96153 0.15781 0.0
H489 H 0.72358 0.08157 0.25572 0.0
H490 H 0.6788 0.05204 0.27574 0.0
H491 H 0.67757 0.07182 0.2406 0.0
C492 C 0.73495 0.68012 0.38607 0.0
C493 C 0.73338 0.67804 0.4165 0.0
C494 C 0.71926 0.70012 0.37057 0.0
C495 C 0.70208 0.71907 0.38586 0.0
C496 C 0.70005 0.71672 0.41659 0.0
C497 C 0.71545 0.69603 0.43149 0.0
C498 C 0.72152 0.70139 0.33783 0.0
C499 C 0.68258 0.73699 0.43381 0.0
C500 C 0.7023 0.80716 0.35091 0.0
C501 C 0.66275 0.79164 0.34275 0.0
C502 C 0.71543 0.78376 0.36457 0.0
C503 C 0.68856 0.7435 0.36995 0.0
C504 C 0.64885 0.72722 0.36093 0.0
C505 C 0.63634 0.75152 0.34761 0.0
C506 C 0.75792 0.8025 0.37404 0.0
C507 C 0.6194 0.68432 0.3659 0.0
H508 H 0.74817 0.66575 0.37433 0.0
H509 H 0.71443 0.6948 0.45499 0.0
H510 H 0.69188 0.691 0.3284 0.0
H511 H 0.74066 0.73215 0.33044 0.0
H512 H 0.7334 0.68304 0.32911 0.0
H513 H 0.68189 0.73115 0.45748 0.0
H514 H 0.70006 0.76924 0.43018 0.0
H515 H 0.65215 0.72712 0.42632 0.0
H516 H 0.72304 0.83809 0.34739 0.0
H517 H 0.60573 0.73922 0.34145 0.0
H518 H 0.77192 0.78667 0.36431 0.0
H519 H 0.75948 0.80025 0.39798 0.0
H520 H 0.77527 0.83401 0.36777 0.0
H521 H 0.63056 0.66563 0.3567 0.0
H522 H 0.59032 0.67559 0.356 0.0
H523 H 0.61528 0.67818 0.38955 0.0
C524 C 0.04464 0.74994 0.5755 0.0
C525 C 0.06071 0.72735 0.58601 0.0
C526 C 1.00675 0.73198 0.56308 0.0
C527 C 0.98444 0.69041 0.56086 0.0
C528 C 1.00138 0.66764 0.57006 0.0
C529 C 0.03913 0.68633 0.5826 0.0
C530 C 0.98978 0.7574 0.55382 0.0
C531 C 0.9789 0.62332 0.56792 0.0
C532 C 0.87329 0.6412 0.56741 0.0
C533 C 0.86048 0.63128 0.53853 0.0
C534 C 0.91334 0.6607 0.5747 0.0
C535 C 0.94183 0.67052 0.55266 0.0
C536 C 0.92933 0.6607 0.52339 0.0
C537 C 0.88877 0.64132 0.51663 0.0
C538 C 0.9251 0.67071 0.60617 0.0
C539 C 0.95881 0.67043 0.49932 0.0
H540 H 0.06099 0.78159 0.57814 0.0
H541 H 0.05164 0.66871 0.59008 0.0
H542 H 0.97681 0.74906 0.53176 0.0
H543 H 0.96576 0.7527 0.56888 0.0
H544 H 0.01223 0.78919 0.55384 0.0
H545 H 0.99773 0.61025 0.57279 0.0
H546 H 0.95406 0.61117 0.58353 0.0
H547 H 0.9662 0.61398 0.54587 0.0
H548 H 0.85192 0.6339 0.58461 0.0
H549 H 0.87923 0.63386 0.49428 0.0
H550 H 0.94531 0.70284 0.60853 0.0
H551 H 0.94116 0.65572 0.61371 0.0
H552 H 0.89936 0.66189 0.62061 0.0
H553 H 0.97986 0.70255 0.49889 0.0
H554 H 0.94451 0.66128 0.47768 0.0
H555 H 0.97615 0.65557 0.50336 0.0
C556 C 0.23917 0.87077 0.73451 0.0
C557 C 0.23695 0.85806 0.7057 0.0
C558 C 0.25994 0.91076 0.74181 0.0
C559 C 0.27947 0.93924 0.71986 0.0
C560 C 0.27733 0.92684 0.69065 0.0
C561 C 0.25592 0.88634 0.68387 0.0
C562 C 0.26111 0.92248 0.77321 0.0
C563 C 0.29794 0.95632 0.66667 0.0
C564 C 0.30406 0.04248 0.74216 0.0
C565 C 0.34244 0.05794 0.75303 0.0
C566 C 0.28388 1.00465 0.72981 0.0
C567 C 0.30257 0.98173 0.72808 0.0
C568 C 0.34199 0.998 0.73769 0.0
C569 C 0.36135 0.03575 0.7501 0.0
C570 C 0.2418 0.9884 0.72007 0.0
C571 C 0.3632 0.97481 0.73608 0.0
H572 H 0.22448 0.84937 0.75163 0.0
H573 H 0.25437 0.87685 0.66158 0.0
H574 H 0.29195 0.93801 0.78114 0.0
H575 H 0.24965 0.94314 0.77522 0.0
H576 H 0.24351 0.89677 0.78756 0.0
H577 H 0.29287 0.94211 0.64503 0.0
H578 H 0.2876 0.97797 0.66606 0.0
H579 H 0.33007 0.97296 0.67097 0.0
H580 H 0.28916 0.05929 0.74443 0.0
H581 H 0.39126 0.04777 0.75786 0.0
H582 H 0.2219 0.96451 0.73504 0.0
H583 H 0.23743 0.97543 0.69806 0.0
H584 H 0.23299 0.01128 0.71977 0.0
H585 H 0.34973 0.94988 0.75164 0.0
H586 H 0.39499 0.9931 0.74135 0.0
H587 H 0.3602 0.96219 0.71406 0.0
C588 C 0.80735 0.69698 0.96958 0.0
C589 C 0.79162 0.65722 0.97722 0.0
C590 C 0.7844 0.71045 0.9556 0.0
C591 C 0.74432 0.68375 0.94942 0.0
C592 C 0.72784 0.64376 0.9578 0.0
C593 C 0.75175 0.63089 0.97138 0.0
C594 C 0.80342 0.75319 0.94675 0.0
C595 C 0.68511 0.61445 0.95205 0.0
C596 C 0.68155 0.73105 0.93375 0.0
C597 C 0.68008 0.73048 0.90329 0.0
C598 C 0.70106 0.71466 0.94907 0.0
C599 C 0.72024 0.69784 0.93359 0.0
C600 C 0.71849 0.69683 0.90282 0.0
C601 C 0.69819 0.71284 0.8881 0.0
C602 C 0.70159 0.7158 0.98184 0.0
C603 C 0.73906 0.67987 0.88539 0.0
H604 H 0.83813 0.71766 0.97376 0.0
H605 H 0.73928 0.60014 0.97713 0.0
H606 H 0.80151 0.75543 0.92284 0.0
H607 H 0.78756 0.76701 0.9567 0.0
H608 H 0.83487 0.77025 0.95328 0.0
H609 H 0.67622 0.58496 0.96123 0.0
H610 H 0.66614 0.62512 0.96151 0.0
H611 H 0.67952 0.61142 0.92831 0.0
H612 H 0.66709 0.74404 0.94565 0.0
H613 H 0.6974 0.71256 0.86458 0.0
H614 H 0.73218 0.73474 0.98967 0.0
H615 H 0.69103 0.68587 0.99074 0.0
H616 H 0.683 0.72735 0.99068 0.0
H617 H 0.77123 0.69719 0.8894 0.0
H618 H 0.73371 0.67996 0.8617 0.0
H619 H 0.729 0.6492 0.89236 0.0
C620 C 0.11281 0.7994 0.14226 0.0
C621 C 0.1377 0.78434 0.14908 0.0
C622 C 0.07598 0.77585 0.12916 0.0
C623 C 0.06313 0.73588 0.12307 0.0
C624 C 0.08736 0.71998 0.13091 0.0
C625 C 0.12451 0.74446 0.1436 0.0
C626 C 0.05144 0.79425 0.12085 0.0
C627 C 0.07446 0.67734 0.12525 0.0
C628 C 0.95336 0.67246 0.10744 0.0
C629 C 0.95262 0.67172 0.07697 0.0
C630 C 0.98917 0.69184 0.12279 0.0
C631 C 0.02513 0.71156 0.10731 0.0
C632 C 0.02455 0.71039 0.07655 0.0
C633 C 0.98838 0.69029 0.0618 0.0
C634 C 0.98848 0.6918 0.15556 0.0
C635 C 0.06207 0.73154 0.05914 0.0
H636 H 0.12261 0.83015 0.14625 0.0
H637 H 0.14346 0.73251 0.14877 0.0
H638 H 0.04725 0.7928 0.09695 0.0
H639 H 0.02183 0.77765 0.13083 0.0
H640 H 0.06519 0.8255 0.1277 0.0
H641 H 0.09518 0.66872 0.13464 0.0
H642 H 0.04476 0.65809 0.13452 0.0
H643 H 0.07235 0.67189 0.10151 0.0
H644 H 0.92588 0.65768 0.11929 0.0
H645 H 0.98798 0.69012 0.03828 0.0
H646 H 0.99942 0.72215 0.16361 0.0
H647 H 1.00838 0.68173 0.16428 0.0
H648 H 0.95845 0.67254 0.16435 0.0
H649 H 0.07649 0.76365 0.06326 0.0
H650 H 0.05676 0.72641 0.03543 0.0
H651 H 0.08298 0.72179 0.06602 0.0
C652 C 0.3208 0.11272 0.30391 0.0
C653 C 0.36072 0.13797 0.3104 0.0
C654 C 0.30771 0.07571 0.29125 0.0
C655 C 0.33505 0.06312 0.28514 0.0
C656 C 0.37524 0.08785 0.29245 0.0
C657 C 0.38765 0.12507 0.30486 0.0
C658 C 0.26466 0.05052 0.28364 0.0
C659 C 0.40524 0.07533 0.28661 0.0
C660 C 0.2897 0.95296 0.27213 0.0
C661 C 0.28831 0.95087 0.24169 0.0
C662 C 0.30626 0.98937 0.28658 0.0
C663 C 0.3214 0.0246 0.27023 0.0
C664 C 0.32078 0.02272 0.23949 0.0
C665 C 0.30446 0.98595 0.22563 0.0
C666 C 0.3068 0.99006 0.31935 0.0
C667 C 0.3361 0.05946 0.22119 0.0
H668 H 0.29964 0.12225 0.30802 0.0
H669 H 0.41855 0.14431 0.30973 0.0
H670 H 0.26134 0.04544 0.25985 0.0
H671 H 0.25226 0.02133 0.29427 0.0
H672 H 0.24703 0.06423 0.29032 0.0
H673 H 0.43486 0.09683 0.29509 0.0
H674 H 0.39575 0.04622 0.29668 0.0
H675 H 0.40755 0.07206 0.26289 0.0
H676 H 0.27789 0.92606 0.28469 0.0
H677 H 0.30319 0.98456 0.20213 0.0
H678 H 0.28737 1.001 0.32739 0.0
H679 H 0.33695 0.01056 0.32736 0.0
H680 H 0.29674 0.96048 0.32885 0.0
H681 H 0.31802 0.07354 0.22503 0.0
H682 H 0.33546 0.05322 0.19762 0.0
H683 H 0.36677 0.08102 0.2275 0.0
C684 C 0.24294 0.37307 0.42095 0.0
C685 C 0.24098 0.38542 0.4492 0.0
C686 C 0.26396 0.3537 0.41488 0.0
C687 C 0.2841 0.34662 0.43752 0.0
C688 C 0.28231 0.35888 0.46617 0.0
C689 C 0.26055 0.37796 0.47173 0.0
C690 C 0.26463 0.34086 0.38405 0.0
C691 C 0.30367 0.35215 0.49082 0.0
C692 C 0.30823 0.26652 0.41915 0.0
C693 C 0.34606 0.28851 0.40727 0.0
C694 C 0.28848 0.28508 0.43068 0.0
C695 C 0.30713 0.32671 0.4306 0.0
C696 C 0.34623 0.34906 0.42021 0.0
C697 C 0.3651 0.32972 0.40854 0.0
C698 C 0.24672 0.26007 0.44123 0.0
C699 C 0.36744 0.39346 0.42004 0.0
H700 H 0.22774 0.37831 0.40334 0.0
H701 H 0.25923 0.38741 0.49359 0.0
H702 H 0.29531 0.35569 0.37587 0.0
H703 H 0.25336 0.3087 0.38341 0.0
H704 H 0.24661 0.34772 0.36907 0.0
H705 H 0.29908 0.36301 0.51188 0.0
H706 H 0.29352 0.32031 0.49292 0.0
H707 H 0.33569 0.36733 0.48617 0.0
H708 H 0.29327 0.2347 0.4181 0.0
H709 H 0.39462 0.3469 0.39995 0.0
H710 H 0.22632 0.26265 0.42581 0.0
H711 H 0.24288 0.2705 0.46268 0.0
H712 H 0.23809 0.22852 0.44309 0.0
H713 H 0.35384 0.40374 0.4036 0.0
H714 H 0.39918 0.40647 0.4148 0.0
H715 H 0.36466 0.40476 0.44144 0.0
C716 C 0.89129 0.25522 0.63545 0.0
C717 C 0.86331 0.23482 0.61371 0.0
C718 C 0.93186 0.27668 0.62883 0.0
C719 C 0.94463 0.27742 0.59989 0.0
C720 C 0.91646 0.25621 0.5781 0.0
C721 C 0.87641 0.23543 0.58523 0.0
C722 C 0.961 0.29905 0.65263 0.0
C723 C 0.92855 0.25579 0.54701 0.0
C724 C 0.04015 0.35919 0.56823 0.0
C725 C 0.06325 0.34112 0.56649 0.0
C726 C 1.00243 0.33971 0.58074 0.0
C727 C 0.98713 0.301 0.59168 0.0
C728 C 0.01098 0.28326 0.59117 0.0
C729 C 0.04875 0.30355 0.57868 0.0
C730 C 0.97824 0.35993 0.58098 0.0
C731 C 0.99581 0.24198 0.60238 0.0
H732 H 0.88149 0.25491 0.65749 0.0
H733 H 0.85525 0.21953 0.56821 0.0
H734 H 0.98351 0.28986 0.65395 0.0
H735 H 0.97666 0.33098 0.64758 0.0
H736 H 0.94662 0.29442 0.67417 0.0
H737 H 0.9031 0.2368 0.53284 0.0
H738 H 0.9434 0.2861 0.53804 0.0
H739 H 0.94991 0.24509 0.54608 0.0
H740 H 0.05141 0.38852 0.55948 0.0
H741 H 0.06626 0.28927 0.57735 0.0
H742 H 0.96548 0.35783 0.60283 0.0
H743 H 0.95338 0.34502 0.56548 0.0
H744 H 0.99584 0.39145 0.57476 0.0
H745 H 0.98257 0.2385 0.62422 0.0
H746 H 0.01938 0.23416 0.60368 0.0
H747 H 0.97235 0.22076 0.58771 0.0
C748 C 0.6493 0.87298 0.75268 0.0
C749 C 0.63701 0.86021 0.78126 0.0
C750 C 0.66817 0.91293 0.74517 0.0
C751 C 0.67494 0.94133 0.76667 0.0
C752 C 0.66298 0.92888 0.7957 0.0
C753 C 0.64427 0.88842 0.8027 0.0
C754 C 0.68058 0.92469 0.714 0.0
C755 C 0.66954 0.95825 0.81921 0.0
C756 C 0.7528 0.04544 0.74527 0.0
C757 C 0.72977 0.06 0.73301 0.0
C758 C 0.73534 0.00763 0.75775 0.0
C759 C 0.69379 0.98375 0.75815 0.0
C760 C 0.6704 0.99904 0.74707 0.0
C761 C 0.68863 0.03683 0.73459 0.0
C762 C 0.76144 0.99246 0.76912 0.0
C763 C 0.62603 0.97481 0.7472 0.0
H764 H 0.64424 0.85164 0.73589 0.0
H765 H 0.63493 0.87889 0.82482 0.0
H766 H 0.6651 0.93947 0.70486 0.0
H767 H 0.71261 0.94601 0.71296 0.0
H768 H 0.67412 0.89909 0.70004 0.0
H769 H 0.6595 0.94407 0.84081 0.0
H770 H 0.70123 0.98064 0.82061 0.0
H771 H 0.65345 0.97402 0.81378 0.0
H772 H 0.78456 0.06297 0.74405 0.0
H773 H 0.67057 0.0481 0.72577 0.0
H774 H 0.75911 0.9688 0.75465 0.0
H775 H 0.75174 0.97949 0.79106 0.0
H776 H 0.79281 0.01597 0.77026 0.0
H777 H 0.61626 0.94984 0.73188 0.0
H778 H 0.61208 0.99233 0.74071 0.0
H779 H 0.61525 0.96221 0.76909 0.0
C780 C 0.2361 0.68676 0.1062 0.0
C781 C 0.27143 0.72209 0.10168 0.0
C782 C 0.23272 0.65035 0.09887 0.0
C783 C 0.26558 0.6494 0.08707 0.0
C784 C 0.30137 0.685 0.0828 0.0
C785 C 0.30381 0.72077 0.09012 0.0
C786 C 0.19404 0.61299 0.1036 0.0
C787 C 0.33731 0.68537 0.07062 0.0
C788 C 0.27991 0.5609 0.09153 0.0
C789 C 0.27342 0.54775 0.06266 0.0
C790 C 0.27512 0.59251 0.10023 0.0
C791 C 0.26342 0.61145 0.07957 0.0
C792 C 0.25449 0.59682 0.0508 0.0
C793 C 0.25962 0.56514 0.04268 0.0
C794 C 0.28483 0.60705 0.13114 0.0
C795 C 0.2418 0.61611 0.02814 0.0
H796 H 0.21097 0.6877 0.11496 0.0
H797 H 0.33144 0.74786 0.08716 0.0
H798 H 0.18305 0.59717 0.0827 0.0
H799 H 0.19824 0.59313 0.11851 0.0
H800 H 0.17126 0.61874 0.11285 0.0
H801 H 0.36281 0.71563 0.06845 0.0
H802 H 0.34597 0.66815 0.08493 0.0
H803 H 0.33052 0.67121 0.04893 0.0
H804 H 0.28967 0.54701 0.10726 0.0
H805 H 0.25464 0.5553 0.02033 0.0
H806 H 0.26106 0.61112 0.14048 0.0
H807 H 0.31221 0.63613 0.13146 0.0
H808 H 0.28922 0.58655 0.14527 0.0
H809 H 0.21818 0.62098 0.03675 0.0
H810 H 0.23105 0.59826 0.008 0.0
H811 H 0.26708 0.64534 0.02244 0.0
C812 C 0.69515 0.24931 0.20482 0.0
C813 C 0.72601 0.26032 0.22474 0.0
C814 C 0.6592 0.24585 0.21344 0.0
C815 C 0.65404 0.2536 0.24265 0.0
C816 C 0.68417 0.26228 0.26319 0.0
C817 C 0.71973 0.26549 0.25399 0.0
C818 C 0.62772 0.23637 0.19088 0.0
C819 C 0.67985 0.27058 0.29457 0.0
C820 C 0.59061 0.29973 0.25605 0.0
C821 C 0.55573 0.26799 0.26681 0.0
C822 C 0.62254 0.29523 0.24806 0.0
C823 C 0.61971 0.25796 0.25086 0.0
C824 C 0.5847 0.22572 0.26187 0.0
C825 C 0.5531 0.23117 0.26985 0.0
C826 C 0.65947 0.33053 0.23674 0.0
C827 C 0.5806 0.18554 0.26506 0.0
H828 H 0.69976 0.24537 0.18219 0.0
H829 H 0.7431 0.27309 0.26963 0.0
H830 H 0.59857 0.21352 0.19908 0.0
H831 H 0.62577 0.26312 0.18621 0.0
H832 H 0.63397 0.22594 0.17024 0.0
H833 H 0.70389 0.27226 0.30841 0.0
H834 H 0.68027 0.29902 0.2961 0.0
H835 H 0.65124 0.24747 0.30338 0.0
H836 H 0.59317 0.32845 0.25423 0.0
H837 H 0.52611 0.20653 0.27799 0.0
H838 H 0.66632 0.32436 0.21468 0.0
H839 H 0.68479 0.33669 0.25095 0.0
H840 H 0.65674 0.35738 0.23567 0.0
H841 H 0.58468 0.17514 0.24366 0.0
H842 H 0.55143 0.1635 0.27388 0.0
H843 H 0.60387 0.18717 0.27971 0.0
C844 C 0.4595 0.71508 0.41686 0.0
C845 C 0.47226 0.72227 0.38791 0.0
C846 C 0.42595 0.67987 0.42503 0.0
C847 C 0.40461 0.65098 0.40372 0.0
C848 C 0.41888 0.65685 0.37484 0.0
C849 C 0.45259 0.69248 0.36726 0.0
C850 C 0.41193 0.67479 0.45609 0.0
C851 C 0.39712 0.62665 0.35152 0.0
C852 C 0.32247 0.55108 0.42958 0.0
C853 C 0.28939 0.55569 0.42647 0.0
C854 C 0.36022 0.58151 0.42179 0.0
C855 C 0.36492 0.61742 0.41088 0.0
C856 C 0.33159 0.62213 0.40771 0.0
C857 C 0.29436 0.59128 0.41551 0.0
C858 C 0.39503 0.57535 0.42531 0.0
C859 C 0.33528 0.66006 0.39646 0.0
H860 H 0.47511 0.73765 0.43303 0.0
H861 H 0.4622 0.69784 0.34485 0.0
H862 H 0.38452 0.67643 0.45708 0.0
H863 H 0.40492 0.64547 0.4645 0.0
H864 H 0.43412 0.69777 0.47062 0.0
H865 H 0.41482 0.63294 0.33138 0.0
H866 H 0.38896 0.59675 0.35934 0.0
H867 H 0.36944 0.62646 0.3461 0.0
H868 H 0.31872 0.5235 0.43777 0.0
H869 H 0.2691 0.59535 0.41353 0.0
H870 H 0.41638 0.59712 0.44088 0.0
H871 H 0.41051 0.58022 0.40426 0.0
H872 H 0.38629 0.54531 0.43325 0.0
H873 H 0.35442 0.68467 0.41117 0.0
H874 H 0.30634 0.65864 0.3947 0.0
H875 H 0.34934 0.66708 0.37474 0.0
C876 C 0.77162 0.46221 0.55419 0.0
C877 C 0.7346 0.45914 0.55722 0.0
C878 C 0.77721 0.43037 0.56114 0.0
C879 C 0.74493 0.39462 0.57112 0.0
C880 C 0.70755 0.39144 0.57417 0.0
C881 C 0.70288 0.42367 0.56721 0.0
C882 C 0.81754 0.4349 0.55775 0.0
C883 C 0.67223 0.35375 0.58446 0.0
C884 C 0.73927 0.29581 0.56312 0.0
C885 C 0.74474 0.28751 0.59185 0.0
C886 C 0.74146 0.33156 0.55574 0.0
C887 C 0.74941 0.35985 0.57763 0.0
C888 C 0.75723 0.35264 0.60636 0.0
C889 C 0.7548 0.31653 0.61314 0.0
C890 C 0.73312 0.33811 0.52482 0.0
C891 C 0.76594 0.38211 0.6303 0.0
H892 H 0.79628 0.48966 0.54673 0.0
H893 H 0.67404 0.42078 0.56909 0.0
H894 H 0.82741 0.42878 0.57873 0.0
H895 H 0.81636 0.41316 0.54183 0.0
H896 H 0.83975 0.46487 0.55035 0.0
H897 H 0.64537 0.35636 0.58618 0.0
H898 H 0.66614 0.32951 0.5692 0.0
H899 H 0.67836 0.34532 0.60604 0.0
H900 H 0.73232 0.27385 0.54646 0.0
H901 H 0.75889 0.31031 0.6354 0.0
H902 H 0.75627 0.3673 0.51689 0.0
H903 H 0.70471 0.33786 0.5239 0.0
H904 H 0.73139 0.31511 0.50987 0.0
H905 H 0.78871 0.41198 0.62326 0.0
H906 H 0.77614 0.37437 0.65049 0.0
H907 H 0.73892 0.38334 0.63536 0.0
C908 C 0.29267 0.71704 0.749 0.0
C909 C 0.28792 0.73821 0.72617 0.0
C910 C 0.3296 0.72176 0.75597 0.0
C911 C 0.36324 0.74936 0.74045 0.0
C912 C 0.35941 0.77296 0.71883 0.0
C913 C 0.32182 0.76684 0.71171 0.0
C914 C 0.33221 0.69571 0.77907 0.0
C915 C 0.3948 0.80367 0.70245 0.0
C916 C 0.45893 0.76732 0.77523 0.0
C917 C 0.46629 0.74079 0.7598 0.0
C918 C 0.427 0.77263 0.76792 0.0
C919 C 0.40134 0.75029 0.74507 0.0
C920 C 0.40985 0.72517 0.72845 0.0
C921 C 0.44245 0.72126 0.73571 0.0
C922 C 0.41969 0.80074 0.78554 0.0
C923 C 0.38318 0.70053 0.70402 0.0
H924 H 0.26745 0.69588 0.76125 0.0
H925 H 0.31921 0.78395 0.69431 0.0
H926 H 0.34244 0.6766 0.76918 0.0
H927 H 0.35402 0.71384 0.79588 0.0
H928 H 0.30351 0.67662 0.78986 0.0
H929 H 0.38809 0.82403 0.69016 0.0
H930 H 0.41957 0.82112 0.71756 0.0
H931 H 0.40481 0.78903 0.68682 0.0
H932 H 0.47707 0.78288 0.79373 0.0
H933 H 0.44852 0.70184 0.72288 0.0
H934 H 0.39467 0.78385 0.80052 0.0
H935 H 0.41168 0.81844 0.77119 0.0
H936 H 0.44583 0.82101 0.79867 0.0
H937 H 0.35383 0.67916 0.71289 0.0
H938 H 0.39499 0.68395 0.69228 0.0
H939 H 0.37884 0.71939 0.68821 0.0
C940 C 0.69461 0.46295 0.93602 0.0
C941 C 0.72969 0.46226 0.93189 0.0
C942 C 0.65804 0.43036 0.92848 0.0
C943 C 0.65667 0.39632 0.91677 0.0
C944 C 0.69201 0.39555 0.91262 0.0
C945 C 0.72796 0.42843 0.92022 0.0
C946 C 0.62095 0.43226 0.93309 0.0
C947 C 0.69188 0.35971 0.90048 0.0
C948 C 0.56809 0.29402 0.9222 0.0
C949 C 0.55455 0.28695 0.89342 0.0
C950 C 0.59981 0.33047 0.93057 0.0
C951 C 0.61849 0.36068 0.90963 0.0
C952 C 0.60342 0.35459 0.88095 0.0
C953 C 0.57158 0.31775 0.87317 0.0
C954 C 0.61478 0.33578 0.96142 0.0
C955 C 0.62247 0.38612 0.85801 0.0
H956 H 0.69585 0.48912 0.94483 0.0
H957 H 0.7548 0.42732 0.91752 0.0
H958 H 0.60466 0.42669 0.9123 0.0
H959 H 0.60133 0.40893 0.94852 0.0
H960 H 0.6271 0.46121 0.94172 0.0
H961 H 0.72204 0.36421 0.89803 0.0
H962 H 0.6749 0.3341 0.91501 0.0
H963 H 0.67723 0.35211 0.87894 0.0
H964 H 0.55444 0.2706 0.93808 0.0
H965 H 0.56135 0.31249 0.85089 0.0
H966 H 0.61915 0.36384 0.97052 0.0
H967 H 0.64377 0.33723 0.96169 0.0
H968 H 0.59437 0.31125 0.97578 0.0
H969 H 0.62782 0.41485 0.86644 0.0
H970 H 0.6042 0.37885 0.83804 0.0
H971 H 0.65146 0.38961 0.85208 0.0
C972 C 0.35481 0.31606 0.21319 0.0
C973 C 0.34288 0.27766 0.22256 0.0
C974 C 0.3416 0.32299 0.18674 0.0
C975 C 0.31624 0.29077 0.16896 0.0
C976 C 0.30326 0.25189 0.17851 0.0
C977 C 0.31658 0.24578 0.20529 0.0
C978 C 0.35585 0.36493 0.17741 0.0
C979 C 0.27632 0.21686 0.16005 0.0
C980 C 0.26513 0.31655 0.11023 0.0
C981 C 0.29167 0.32634 0.08715 0.0
C982 C 0.2715 0.30272 0.13665 0.0
C983 C 0.305 0.29832 0.13985 0.0
C984 C 0.33031 0.30551 0.1159 0.0
C985 C 0.32347 0.3197 0.08984 0.0
C986 C 0.24398 0.2956 0.16173 0.0
C987 C 0.36599 0.30052 0.11831 0.0
H988 H 0.37567 0.34093 0.22602 0.0
H989 H 0.30681 0.216 0.21253 0.0
H990 H 0.37427 0.37176 0.15765 0.0
H991 H 0.33047 0.36883 0.17181 0.0
H992 H 0.37349 0.38652 0.19455 0.0
H993 H 0.26715 0.1885 0.17131 0.0
H994 H 0.24961 0.21817 0.15397 0.0
H995 H 0.2915 0.21745 0.13959 0.0
H996 H 0.24071 0.32201 0.10826 0.0
H997 H 0.34374 0.32687 0.07187 0.0
H998 H 0.25914 0.31922 0.1781 0.0
H999 H 0.23571 0.26724 0.17257 0.0
H1000 H 0.21673 0.29535 0.1547 0.0
H1001 H 0.3881 0.32362 0.13276 0.0
H1002 H 0.3799 0.30276 0.09687 0.0
H1003 H 0.35787 0.27161 0.12816 0.0
C1004 C 0.01556 0.32272 0.39225 0.0
C1005 C 0.05424 0.33017 0.39525 0.0
C1006 C 0.99518 0.30882 0.36596 0.0
C1007 C 0.01417 0.30267 0.34209 0.0
C1008 C 0.05246 0.30814 0.34549 0.0
C1009 C 0.07201 0.32171 0.37213 0.0
C1010 C 0.95412 0.30272 0.3633 0.0
C1011 C 0.07374 0.30213 0.3205 0.0
C1012 C 0.95026 0.24822 0.27724 0.0
C1013 C 0.95429 0.27953 0.25989 0.0
C1014 C 0.97039 0.25519 0.30375 0.0
C1015 C 0.99541 0.29437 0.31296 0.0
C1016 C 1.00101 0.32606 0.29495 0.0
C1017 C 0.98023 0.31826 0.26874 0.0
C1018 C 0.96374 0.22069 0.3224 0.0
C1019 C 0.02777 0.36831 0.30391 0.0
H1020 H 1.00167 0.32886 0.41024 0.0
H1021 H 0.10208 0.32783 0.37432 0.0
H1022 H 0.95444 0.32524 0.34848 0.0
H1023 H 0.93396 0.27346 0.35374 0.0
H1024 H 0.94211 0.30493 0.38459 0.0
H1025 H 0.10129 0.30304 0.3276 0.0
H1026 H 0.05456 0.27353 0.30969 0.0
H1027 H 0.08137 0.32557 0.30406 0.0
H1028 H 0.93073 0.21819 0.27035 0.0
H1029 H 0.98313 0.34267 0.25578 0.0
H1030 H 0.94859 0.2206 0.34274 0.0
H1031 H 0.99229 0.22332 0.32867 0.0
H1032 H 0.94561 0.19209 0.31121 0.0
H1033 H 0.01575 0.37492 0.32353 0.0
H1034 H 0.03108 0.38943 0.28653 0.0
H1035 H 0.05736 0.37312 0.30963 0.0
C1036 C 0.7045 0.94169 0.44661 0.0
C1037 C 0.67855 0.94745 0.42895 0.0
C1038 C 0.71752 0.96113 0.47335 0.0
C1039 C 0.70461 0.98723 0.48244 0.0
C1040 C 0.67961 0.99427 0.46426 0.0
C1041 C 0.6667 0.97413 0.43785 0.0
C1042 C 0.74412 0.95288 0.49223 0.0
C1043 C 0.66543 0.02217 0.47311 0.0
C1044 C 0.69716 0.00929 0.56135 0.0
C1045 C 0.72922 0.04752 0.564 0.0
C1046 C 0.69018 0.98825 0.53537 0.0
C1047 C 0.71565 0.00614 0.51144 0.0
C1048 C 0.74932 0.04385 0.51456 0.0
C1049 C 0.75578 0.06406 0.54089 0.0
C1050 C 0.6543 0.94781 0.53301 0.0
C1051 C 0.77701 0.06399 0.4895 0.0
H1052 H 0.71422 0.92152 0.43972 0.0
H1053 H 0.64612 0.97828 0.42469 0.0
H1054 H 0.77089 0.98079 0.49823 0.0
H1055 H 0.7287 0.93856 0.5127 0.0
H1056 H 0.75319 0.93342 0.48133 0.0
H1057 H 0.64801 0.02615 0.45573 0.0
H1058 H 0.64682 0.01079 0.49281 0.0
H1059 H 0.69084 0.05138 0.47865 0.0
H1060 H 0.67686 0.99632 0.57934 0.0
H1061 H 0.7804 0.09379 0.5428 0.0
H1062 H 0.66229 0.92676 0.52353 0.0
H1063 H 0.63249 0.94897 0.51826 0.0
H1064 H 0.64009 0.93635 0.55441 0.0
H1065 H 0.78534 0.04377 0.47901 0.0
H1066 H 0.80422 0.09098 0.49645 0.0
H1067 H 0.76198 0.07234 0.47286 0.0
C1068 C 0.70033 0.69176 0.59646 0.0
C1069 C 0.73468 0.69073 0.58971 0.0
C1070 C 0.69543 0.70444 0.62374 0.0
C1071 C 0.72615 0.71769 0.64446 0.0
C1072 C 0.76229 0.7203 0.63686 0.0
C1073 C 0.76596 0.70628 0.60971 0.0
C1074 C 0.6563 0.70103 0.63104 0.0
C1075 C 0.79623 0.73562 0.65799 0.0
C1076 C 0.70851 0.76422 0.71048 0.0
C1077 C 0.6909 0.73202 0.72961 0.0
C1078 C 0.72286 0.76094 0.68335 0.0
C1079 C 0.71849 0.72434 0.67489 0.0
C1080 C 0.70296 0.69249 0.69474 0.0
C1081 C 0.68999 0.69696 0.72202 0.0
C1082 C 0.7406 0.79598 0.66318 0.0
C1083 C 0.69764 0.65286 0.6865 0.0
H1084 H 0.6765 0.68109 0.58084 0.0
H1085 H 0.79264 0.70558 0.60491 0.0
H1086 H 0.64171 0.67877 0.64845 0.0
H1087 H 0.66067 0.72942 0.6394 0.0
H1088 H 0.63624 0.69221 0.61199 0.0
H1089 H 0.82427 0.74288 0.64703 0.0
H1090 H 0.80002 0.76227 0.66927 0.0
H1091 H 0.79013 0.71296 0.67478 0.0
H1092 H 0.70931 0.79146 0.71596 0.0
H1093 H 0.67767 0.67233 0.73699 0.0
H1094 H 0.71904 0.79187 0.64597 0.0
H1095 H 0.76718 0.79891 0.65234 0.0
H1096 H 0.74874 0.82379 0.67484 0.0
H1097 H 0.67628 0.64026 0.66832 0.0
H1098 H 0.6867 0.63166 0.70489 0.0
H1099 H 0.72587 0.65603 0.67886 0.0
C1100 C 0.01238 0.69498 0.75888 0.0
C1101 C 0.05117 0.72602 0.75639 0.0
C1102 C 0.9916 0.68826 0.78496 0.0
C1103 C 0.01039 0.71282 0.80917 0.0
C1104 C 0.04884 0.74544 0.80628 0.0
C1105 C 0.06872 0.75179 0.7798 0.0
C1106 C 0.95035 0.6536 0.78707 0.0
C1107 C 0.07001 0.77201 0.83166 0.0
C1108 C 0.94759 0.70331 0.87469 0.0
C1109 C 0.95156 0.67564 0.89162 0.0
C1110 C 0.96704 0.71629 0.84795 0.0
C1111 C 0.9915 0.70171 0.83818 0.0
C1112 C 0.99686 0.67501 0.85564 0.0
C1113 C 0.97657 0.66204 0.88198 0.0
C1114 C 0.96047 0.74459 0.82978 0.0
C1115 C 0.0231 0.65913 0.84609 0.0
H1116 H 0.99872 0.67531 0.74065 0.0
H1117 H 0.09888 0.7756 0.77796 0.0
H1118 H 0.95033 0.6307 0.80128 0.0
H1119 H 0.93037 0.66266 0.79704 0.0
H1120 H 0.93836 0.64031 0.76551 0.0
H1121 H 0.09776 0.79861 0.82497 0.0
H1122 H 0.0509 0.78144 0.84258 0.0
H1123 H 0.07724 0.75561 0.8479 0.0
H1124 H 0.92876 0.7144 0.88213 0.0
H1125 H 0.97929 0.64008 0.89447 0.0
H1126 H 0.94566 0.73016 0.80916 0.0
H1127 H 0.98905 0.77069 0.82398 0.0
H1128 H 0.94211 0.75466 0.84112 0.0
H1129 H 0.0108 0.64106 0.82623 0.0
H1130 H 0.02618 0.64068 0.86308 0.0
H1131 H 0.05282 0.68371 0.84056 0.0
C1132 C 0.27368 0.91994 0.02935 0.0
C1133 C 0.27327 0.93771 0.05562 0.0
C1134 C 0.28364 0.94115 0.00326 0.0
C1135 C 0.29301 0.98097 0.00345 0.0
C1136 C 0.29068 0.99849 0.02968 0.0
C1137 C 0.28123 0.97672 0.05559 0.0
C1138 C 0.2865 0.92162 0.97587 0.0
C1139 C 0.29983 0.0407 0.03058 0.0
C1140 C 0.3666 0.04711 0.9472 0.0
C1141 C 0.34225 0.04896 0.9256 0.0
C1142 C 0.35085 0.02526 0.97262 0.0
C1143 C 0.30967 1.00534 0.97696 0.0
C1144 C 0.28483 0.00768 0.95565 0.0
C1145 C 0.3014 0.02927 0.93008 0.0
C1146 C 0.37835 0.02322 0.99471 0.0
C1147 C 0.24081 0.98715 0.9598 0.0
H1148 H 0.26805 0.88992 0.02941 0.0
H1149 H 0.28065 0.99034 0.0759 0.0
H1150 H 0.27003 0.92582 0.95793 0.0
H1151 H 0.31774 0.93547 0.96904 0.0
H1152 H 0.27493 0.88958 0.97888 0.0
H1153 H 0.29183 0.04829 0.05176 0.0
H1154 H 0.33176 0.06062 0.02692 0.0
H1155 H 0.28387 0.04636 0.01301 0.0
H1156 H 0.39826 0.06311 0.94441 0.0
H1157 H 0.28231 0.03032 0.91349 0.0
H1158 H 0.37053 0.99214 0.99819 0.0
H1159 H 0.37528 0.03481 0.01589 0.0
H1160 H 0.40966 0.04024 0.98789 0.0
H1161 H 0.22867 0.95486 0.96078 0.0
H1162 H 0.22582 0.99374 0.94198 0.0
H1163 H 0.23373 0.99613 0.98073 0.0
C1164 C 0.38836 0.53539 0.9583 0.0
C1165 C 0.34826 0.52007 0.9522 0.0
C1166 C 0.4174 0.56765 0.94289 0.0
C1167 C 0.40623 0.58484 0.92047 0.0
C1168 C 0.36574 0.57008 0.91456 0.0
C1169 C 0.33715 0.53796 0.93067 0.0
C1170 C 0.46017 0.58265 0.95013 0.0
C1171 C 0.35271 0.58737 0.89061 0.0
C1172 C 0.48631 0.68479 0.89298 0.0
C1173 C 0.50184 0.67364 0.8699 0.0
C1174 C 0.45435 0.65632 0.90927 0.0
C1175 C 0.43722 0.61598 0.90185 0.0
C1176 C 0.45194 0.6049 0.87783 0.0
C1177 C 0.48424 0.63377 0.86236 0.0
C1178 C 0.43984 0.66921 0.935 0.0
C1179 C 0.43424 0.56234 0.86889 0.0
H1180 H 0.3972 0.52204 0.97516 0.0
H1181 H 0.3062 0.52629 0.92595 0.0
H1182 H 0.47485 0.57731 0.93155 0.0
H1183 H 0.47559 0.61487 0.95392 0.0
H1184 H 0.46384 0.56812 0.96968 0.0
H1185 H 0.32025 0.57451 0.89011 0.0
H1186 H 0.36671 0.6197 0.89325 0.0
H1187 H 0.36234 0.58194 0.86933 0.0
H1188 H 0.4998 0.71561 0.8988 0.0
H1189 H 0.49573 0.62503 0.84423 0.0
H1190 H 0.4457 0.65765 0.95528 0.0
H1191 H 0.40755 0.65692 0.93353 0.0
H1192 H 0.45434 0.70176 0.93666 0.0
H1193 H 0.43945 0.54567 0.88614 0.0
H1194 H 0.44693 0.55898 0.84828 0.0
H1195 H 0.40193 0.54875 0.86616 0.0
C1196 C 0.86201 0.48396 0.02969 0.0
C1197 C 0.83716 0.49861 0.03741 0.0
C1198 C 0.8602 0.45155 0.04419 0.0
C1199 C 0.83326 0.4336 0.06731 0.0
C1200 C 0.80789 0.4481 0.07511 0.0
C1201 C 0.80994 0.48027 0.05992 0.0
C1202 C 0.88749 0.43682 0.03494 0.0
C1203 C 0.77917 0.43014 0.0999 0.0
C1204 C 0.81025 0.33117 0.09175 0.0
C1205 C 0.8366 0.34016 0.11495 0.0
C1206 C 0.80851 0.36122 0.07614 0.0
C1207 C 0.8333 0.40108 0.08423 0.0
C1208 C 0.85939 0.41013 0.10799 0.0
C1209 C 0.86091 0.37966 0.12287 0.0
C1210 C 0.78067 0.3504 0.05071 0.0
C1211 C 0.886 0.45212 0.11758 0.0
H1212 H 0.88287 0.49772 0.01213 0.0
H1213 H 0.79065 0.49144 0.06598 0.0
H1214 H 0.90796 0.44066 0.05294 0.0
H1215 H 0.87032 0.4049 0.03001 0.0
H1216 H 0.90513 0.45256 0.01551 0.0
H1217 H 0.76062 0.44397 0.10267 0.0
H1218 H 0.75967 0.39815 0.09623 0.0
H1219 H 0.79545 0.43352 0.12042 0.0
H1220 H 0.7914 0.30072 0.08552 0.0
H1221 H 0.88114 0.38687 0.14094 0.0
H1222 H 0.79759 0.36384 0.03056 0.0
H1223 H 0.76054 0.36229 0.05391 0.0
H1224 H 0.76276 0.31806 0.04757 0.0
H1225 H 0.90681 0.46908 0.09989 0.0
H1226 H 0.90328 0.45409 0.13729 0.0
H1227 H 0.86834 0.46646 0.12219 0.0
C1228 C 0.48931 0.86114 0.28867 0.0
C1229 C 0.50414 0.83645 0.2809 0.0
C1230 C 0.45742 0.85981 0.27378 0.0
C1231 C 0.44015 0.83351 0.25023 0.0
C1232 C 0.45499 0.80851 0.24222 0.0
C1233 C 0.48668 0.81009 0.25779 0.0
C1234 C 0.44226 0.88668 0.28323 0.0
C1235 C 0.43767 0.78041 0.21701 0.0
C1236 C 0.33692 0.80843 0.22693 0.0
C1237 C 0.34491 0.8348 0.2039 0.0
C1238 C 0.36759 0.80738 0.24205 0.0
C1239 C 0.40713 0.83296 0.23368 0.0
C1240 C 0.41527 0.85919 0.21013 0.0
C1241 C 0.3841 0.85998 0.19567 0.0
C1242 C 0.35773 0.77936 0.26728 0.0
C1243 C 0.45697 0.88667 0.20032 0.0
H1244 H 0.50248 0.88142 0.30664 0.0
H1245 H 0.49804 0.79098 0.25166 0.0
H1246 H 0.44544 0.90693 0.26525 0.0
H1247 H 0.41045 0.8691 0.28846 0.0
H1248 H 0.45813 0.90452 0.30255 0.0
H1249 H 0.45237 0.76277 0.21365 0.0
H1250 H 0.40584 0.76003 0.22069 0.0
H1251 H 0.4404 0.79706 0.19681 0.0
H1252 H 0.30669 0.78891 0.2334 0.0
H1253 H 0.3905 0.88023 0.17773 0.0
H1254 H 0.37126 0.79618 0.28746 0.0
H1255 H 0.37017 0.75979 0.26362 0.0
H1256 H 0.3255 0.76085 0.2707 0.0
H1257 H 0.47385 0.9074 0.21807 0.0
H1258 H 0.45822 0.90401 0.18083 0.0
H1259 H 0.47188 0.86968 0.19525 0.0
C1260 C 0.53436 0.33307 0.39465 0.0
C1261 C 0.51781 0.34184 0.37078 0.0
C1262 C 0.56589 0.36317 0.41024 0.0
C1263 C 0.58158 0.40287 0.40143 0.0
C1264 C 0.56559 0.4117 0.37686 0.0
C1265 C 0.53373 0.38115 0.36201 0.0
C1266 C 0.58171 0.35261 0.43658 0.0
C1267 C 0.5817 0.45354 0.36652 0.0
C1268 C 0.63158 0.48536 0.45643 0.0
C1269 C 0.67159 0.49991 0.45055 0.0
C1270 C 0.60217 0.45324 0.44109 0.0
C1271 C 0.6129 0.43549 0.41891 0.0
C1272 C 0.65327 0.44993 0.41289 0.0
C1273 C 0.68221 0.48181 0.42898 0.0
C1274 C 0.55954 0.4385 0.44851 0.0
C1275 C 0.66584 0.43213 0.38912 0.0
H1276 H 0.52218 0.30273 0.4015 0.0
H1277 H 0.52136 0.38812 0.34338 0.0
H1278 H 0.61392 0.36485 0.43448 0.0
H1279 H 0.57681 0.36587 0.45625 0.0
H1280 H 0.56748 0.32029 0.43985 0.0
H1281 H 0.56783 0.4552 0.3459 0.0
H1282 H 0.5766 0.47077 0.38327 0.0
H1283 H 0.61396 0.46778 0.36319 0.0
H1284 H 0.62311 0.49892 0.47329 0.0
H1285 H 0.71308 0.49294 0.42437 0.0
H1286 H 0.54452 0.40662 0.45366 0.0
H1287 H 0.5442 0.44223 0.42954 0.0
H1288 H 0.55619 0.4543 0.46729 0.0
H1289 H 0.65333 0.40017 0.39303 0.0
H1290 H 0.69836 0.44614 0.38754 0.0
H1291 H 0.65422 0.4354 0.36794 0.0
C1292 C 0.16234 0.53626 0.5267 0.0
C1293 C 0.18591 0.51982 0.5337 0.0
C1294 C 0.16533 0.56836 0.54219 0.0
C1295 C 0.19213 0.58412 0.56564 0.0
C1296 C 0.21665 0.5682 0.57249 0.0
C1297 C 0.21347 0.53636 0.55624 0.0
C1298 C 0.13897 0.58469 0.5339 0.0
C1299 C 0.24519 0.58387 0.59759 0.0
C1300 C 0.21258 0.68364 0.59452 0.0
C1301 C 0.18458 0.67208 0.61674 0.0
C1302 C 0.2162 0.6554 0.57805 0.0
C1303 C 0.1917 0.61485 0.58435 0.0
C1304 C 0.16435 0.60325 0.60742 0.0
C1305 C 0.16094 0.63193 0.62313 0.0
C1306 C 0.24533 0.66884 0.55337 0.0
C1307 C 0.13797 0.56041 0.61513 0.0
H1308 H 0.14134 0.52397 0.50903 0.0
H1309 H 0.23182 0.5238 0.56166 0.0
H1310 H 0.11769 0.57905 0.55165 0.0
H1311 H 0.15665 0.61703 0.53088 0.0
H1312 H 0.12219 0.57134 0.51363 0.0
H1313 H 0.26413 0.57027 0.5988 0.0
H1314 H 0.26427 0.61623 0.59572 0.0
H1315 H 0.22866 0.57791 0.61826 0.0
H1316 H 0.23098 0.71465 0.58958 0.0
H1317 H 0.13959 0.62279 0.64056 0.0
H1318 H 0.22933 0.65835 0.53246 0.0
H1319 H 0.26472 0.65591 0.55554 0.0
H1320 H 0.26393 0.70139 0.55243 0.0
H1321 H 0.11737 0.54501 0.59694 0.0
H1322 H 0.12045 0.55649 0.63504 0.0
H1323 H 0.15578 0.5459 0.61851 0.0
C1324 C 0.63568 0.16242 0.6927 0.0
C1325 C 0.67572 0.18561 0.6996 0.0
C1326 C 0.60683 0.16595 0.70812 0.0
C1327 C 0.61811 0.19293 0.73141 0.0
C1328 C 0.65861 0.21723 0.73805 0.0
C1329 C 0.68703 0.2135 0.72188 0.0
C1330 C 0.56408 0.13976 0.70005 0.0
C1331 C 0.67178 0.24602 0.76293 0.0
C1332 C 0.53866 0.21271 0.76076 0.0
C1333 C 0.52251 0.18458 0.78298 0.0
C1334 C 0.57067 0.21675 0.74421 0.0
C1335 C 0.58713 0.1925 0.75039 0.0
C1336 C 0.57172 0.16511 0.77351 0.0
C1337 C 0.53953 0.16132 0.78931 0.0
C1338 C 0.58602 0.24597 0.71953 0.0
C1339 C 0.58854 0.13894 0.7811 0.0
H1340 H 0.62672 0.14119 0.67521 0.0
H1341 H 0.71796 0.23159 0.72721 0.0
H1342 H 0.54858 0.11844 0.71783 0.0
H1343 H 0.54946 0.15754 0.69718 0.0
H1344 H 0.56046 0.12303 0.67974 0.0
H1345 H 0.70428 0.26518 0.76369 0.0
H1346 H 0.65817 0.26487 0.76123 0.0
H1347 H 0.66184 0.22967 0.78375 0.0
H1348 H 0.5257 0.23085 0.75586 0.0
H1349 H 0.52759 0.13987 0.80673 0.0
H1350 H 0.58008 0.23002 0.69859 0.0
H1351 H 0.61837 0.26521 0.72137 0.0
H1352 H 0.57216 0.2647 0.71891 0.0
H1353 H 0.58324 0.11829 0.76296 0.0
H1354 H 0.57528 0.12147 0.80113 0.0
H1355 H 0.62085 0.15688 0.78423 0.0
loop_
_geom_bond_atom_site_label_1
_geom_bond_atom_site_label_2
_geom_bond_distance
_geom_bond_site_symmetry_2
_ccdc_geom_bond_type
Co0 N4 2.148 . S
Co0 N10 2.128 1_556 S
Co0 N20 2.194 1_556 S
Co0 O25 2.351 . S
Co0 O26 2.155 . S
Co0 O27 2.096 . S
C1 N4 1.301 . S
C1 N5 1.328 . S
C1 H6 0.930 . S
C2 C3 1.333 . S
C2 N4 1.317 . S
C2 H7 0.930 . S
C3 C2 1.333 . S
C3 N5 1.350 . S
C3 H29 0.931 . S
N4 Co0 2.148 . S
N4 C1 1.301 . S
N4 C2 1.317 . S
N5 C1 1.328 . S
N5 C3 1.350 . S
H6 C1 0.930 . S
H7 C2 0.930 . S
C8 O9 1.224 . S
C8 O27 1.247 1_554 S
O9 C8 1.224 . S
N10 Co0 2.128 1_554 S
N10 C11 1.355 . S
N10 C13 1.311 . S
C11 N10 1.355 . S
C11 C12 1.363 . S
C11 H23 0.929 . S
C12 C11 1.363 . S
C12 N14 1.375 . S
C12 H30 0.931 . S
C13 N10 1.311 . S
C13 N14 1.347 . S
C13 H24 0.929 . S
N14 C12 1.375 . S
N14 C13 1.347 . S
C15 C18 1.365 . S
C15 N20 1.328 . S
C15 H21 0.929 . S
C16 C17 1.362 . S
C16 C19 1.378 . S
C16 H31 0.929 . S
C17 C16 1.362 . S
C17 C18 1.366 . S
C18 C15 1.365 . S
C18 C17 1.366 . S
C18 H32 0.930 . S
C19 C16 1.378 . S
C19 N20 1.315 . S
C19 H22 0.930 . S
N20 Co0 2.194 1_554 S
N20 C15 1.328 . S
N20 C19 1.315 . S
H21 C15 0.929 . S
H22 C19 0.930 . S
H23 C11 0.929 . S
H24 C13 0.929 . S
O25 Co0 2.351 . S
O25 C28 1.244 . S
O26 Co0 2.155 . S
O26 C28 1.240 . S
O27 Co0 2.096 . S
O27 C8 1.247 1_556 S
C28 O25 1.244 . S
C28 O26 1.240 . S
H29 C3 0.931 . S
H30 C12 0.931 . S
H31 C16 0.929 . S
H32 C18 0.930 . S
Co33 N37 2.148 . S
Co33 N43 2.128 . S
Co33 N53 2.194 . S
Co33 O58 2.351 . S
Co33 O59 2.155 . S
Co33 O60 2.096 . S
C34 N37 1.301 . S
C34 N38 1.328 . S
C34 H39 0.930 . S
C35 C36 1.333 . S
C35 N37 1.317 . S
C35 H40 0.930 . S
C36 C35 1.333 . S
C36 N38 1.350 . S
C36 H62 0.931 . S
N37 Co33 2.148 . S
N37 C34 1.301 . S
N37 C35 1.317 . S
N38 C34 1.328 . S
N38 C36 1.350 . S
H39 C34 0.930 . S
H40 C35 0.930 . S
C41 O42 1.224 . S
C41 O60 1.247 . S
O42 C41 1.224 . S
N43 Co33 2.128 . S
N43 C44 1.355 . S
N43 C46 1.311 . S
C44 N43 1.355 . S
C44 C45 1.363 . S
C44 H56 0.929 . S
C45 C44 1.363 . S
C45 N47 1.375 . S
C45 H63 0.931 . S
C46 N43 1.311 . S
C46 N47 1.347 . S
C46 H57 0.929 . S
N47 C45 1.375 . S
N47 C46 1.347 . S
C48 C51 1.365 . S
C48 N53 1.328 . S
C48 H54 0.929 . S
C49 C50 1.362 . S
C49 C52 1.378 . S
C49 H64 0.929 . S
C50 C49 1.362 . S
C50 C51 1.366 . S
C51 C48 1.365 . S
C51 C50 1.366 . S
C51 H65 0.930 . S
C52 C49 1.378 . S
C52 N53 1.315 . S
C52 H55 0.930 . S
N53 Co33 2.194 . S
N53 C48 1.328 . S
N53 C52 1.315 . S
H54 C48 0.929 . S
H55 C52 0.930 . S
H56 C44 0.929 . S
H57 C46 0.929 . S
O58 Co33 2.351 . S
O58 C61 1.244 . S
O59 Co33 2.155 . S
O59 C61 1.240 . S
O60 Co33 2.096 . S
O60 C41 1.247 . S
C61 O58 1.244 . S
C61 O59 1.240 . S
H62 C36 0.931 . S
H63 C45 0.931 . S
H64 C49 0.929 . S
H65 C51 0.930 . S
Co66 N70 2.148 . S
Co66 N76 2.128 . S
Co66 N86 2.194 . S
Co66 O91 2.351 . S
Co66 O92 2.155 . S
Co66 O93 2.096 . S
C67 N70 1.301 . S
C67 N71 1.328 . S
C67 H72 0.930 . S
C68 C69 1.333 . S
C68 N70 1.317 . S
C68 H73 0.930 . S
C69 C68 1.333 . S
C69 N71 1.350 . S
C69 H95 0.931 . S
N70 Co66 2.148 . S
N70 C67 1.301 . S
N70 C68 1.317 . S
N71 C67 1.328 . S
N71 C69 1.350 . S
H72 C67 0.930 . S
H73 C68 0.930 . S
C74 O75 1.224 . S
C74 O93 1.247 . S
O75 C74 1.224 . S
N76 Co66 2.128 . S
N76 C77 1.355 . S
N76 C79 1.311 . S
C77 N76 1.355 . S
C77 C78 1.363 . S
C77 H89 0.929 . S
C78 C77 1.363 . S
C78 N80 1.375 . S
C78 H96 0.931 . S
C79 N76 1.311 . S
C79 N80 1.347 . S
C79 H90 0.929 . S
N80 C78 1.375 . S
N80 C79 1.347 . S
C81 C84 1.365 . S
C81 N86 1.328 . S
C81 H87 0.929 . S
C82 C83 1.362 . S
C82 C85 1.378 . S
C82 H97 0.929 . S
C83 C82 1.362 . S
C83 C84 1.366 . S
C84 C81 1.365 . S
C84 C83 1.366 . S
C84 H98 0.930 . S
C85 C82 1.378 . S
C85 N86 1.315 . S
C85 H88 0.930 . S
N86 Co66 2.194 . S
N86 C81 1.328 . S
N86 C85 1.315 . S
H87 C81 0.929 . S
H88 C85 0.930 . S
H89 C77 0.929 . S
H90 C79 0.929 . S
O91 Co66 2.351 . S
O91 C94 1.244 . S
O92 Co66 2.155 . S
O92 C94 1.240 . S
O93 Co66 2.096 . S
O93 C74 1.247 . S
C94 O91 1.244 . S
C94 O92 1.240 . S
H95 C69 0.931 . S
H96 C78 0.931 . S
H97 C82 0.929 . S
H98 C84 0.930 . S
Co99 N103 2.148 . S
Co99 N109 2.128 . S
Co99 N119 2.194 . S
Co99 O124 2.351 . S
Co99 O125 2.155 . S
Co99 O126 2.096 . S
C100 N103 1.301 . S
C100 N104 1.328 . S
C100 H105 0.930 . S
C101 C102 1.333 . S
C101 N103 1.317 . S
C101 H106 0.930 . S
C102 C101 1.333 . S
C102 N104 1.350 . S
C102 H128 0.931 . S
N103 Co99 2.148 . S
N103 C100 1.301 . S
N103 C101 1.317 . S
N104 C100 1.328 . S
N104 C102 1.350 . S
H105 C100 0.930 . S
H106 C101 0.930 . S
C107 O108 1.224 . S
C107 O126 1.247 . S
O108 C107 1.224 . S
N109 Co99 2.128 . S
N109 C110 1.355 . S
N109 C112 1.311 . S
C110 N109 1.355 . S
C110 C111 1.363 . S
C110 H122 0.929 . S
C111 C110 1.363 . S
C111 N113 1.375 . S
C111 H129 0.931 . S
C112 N109 1.311 . S
C112 N113 1.347 . S
C112 H123 0.929 . S
N113 C111 1.375 . S
N113 C112 1.347 . S
C114 C117 1.365 . S
C114 N119 1.328 . S
C114 H120 0.929 . S
C115 C116 1.362 . S
C115 C118 1.378 . S
C115 H130 0.929 . S
C116 C115 1.362 . S
C116 C117 1.366 . S
C117 C114 1.365 . S
C117 C116 1.366 . S
C117 H131 0.930 . S
C118 C115 1.378 . S
C118 N119 1.315 . S
C118 H121 0.930 . S
N119 Co99 2.194 . S
N119 C114 1.328 . S
N119 C118 1.315 . S
H120 C114 0.929 . S
H121 C118 0.930 . S
H122 C110 0.929 . S
H123 C112 0.929 . S
O124 Co99 2.351 . S
O124 C127 1.244 . S
O125 Co99 2.155 . S
O125 C127 1.240 . S
O126 Co99 2.096 . S
O126 C107 1.247 . S
C127 O124 1.244 . S
C127 O125 1.240 . S
H128 C102 0.931 . S
H129 C111 0.931 . S
H130 C115 0.929 . S
H131 C117 0.930 . S
Co132 N136 2.148 . S
Co132 N142 2.128 . S
Co132 N152 2.194 . S
Co132 O157 2.351 . S
Co132 O158 2.155 . S
Co132 O159 2.096 . S
C133 N136 1.301 . S
C133 N137 1.328 . S
C133 H138 0.930 . S
C134 C135 1.333 . S
C134 N136 1.317 . S
C134 H139 0.930 . S
C135 C134 1.333 . S
C135 N137 1.350 . S
C135 H161 0.931 . S
N136 Co132 2.148 . S
N136 C133 1.301 . S
N136 C134 1.317 . S
N137 C133 1.328 . S
N137 C135 1.350 . S
H138 C133 0.930 . S
H139 C134 0.930 . S
C140 O141 1.224 . S
C140 O159 1.247 . S
O141 C140 1.224 . S
N142 Co132 2.128 . S
N142 C143 1.355 . S
N142 C145 1.311 . S
C143 N142 1.355 . S
C143 C144 1.363 . S
C143 H155 0.929 . S
C144 C143 1.363 . S
C144 N146 1.375 . S
C144 H162 0.931 . S
C145 N142 1.311 . S
C145 N146 1.347 . S
C145 H156 0.929 . S
N146 C144 1.375 . S
N146 C145 1.347 . S
C147 C150 1.365 . S
C147 N152 1.328 . S
C147 H153 0.929 . S
C148 C149 1.362 . S
C148 C151 1.378 . S
C148 H163 0.929 . S
C149 C148 1.362 . S
C149 C150 1.366 . S
C150 C147 1.365 . S
C150 C149 1.366 . S
C150 H164 0.930 . S
C151 C148 1.378 . S
C151 N152 1.315 . S
C151 H154 0.930 . S
N152 Co132 2.194 . S
N152 C147 1.328 . S
N152 C151 1.315 . S
H153 C147 0.929 . S
H154 C151 0.930 . S
H155 C143 0.929 . S
H156 C145 0.929 . S
O157 Co132 2.351 . S
O157 C160 1.244 . S
O158 Co132 2.155 . S
O158 C160 1.240 . S
O159 Co132 2.096 . S
O159 C140 1.247 . S
C160 O157 1.244 . S
C160 O158 1.240 . S
H161 C135 0.931 . S
H162 C144 0.931 . S
H163 C148 0.929 . S
H164 C150 0.930 . S
Co165 N169 2.148 . S
Co165 N175 2.128 . S
Co165 N185 2.194 . S
Co165 O190 2.351 . S
Co165 O191 2.155 . S
Co165 O192 2.096 . S
C166 N169 1.301 . S
C166 N170 1.328 . S
C166 H171 0.930 . S
C167 C168 1.333 . S
C167 N169 1.317 . S
C167 H172 0.930 . S
C168 C167 1.333 . S
C168 N170 1.350 . S
C168 H194 0.931 . S
N169 Co165 2.148 . S
N169 C166 1.301 . S
N169 C167 1.317 . S
N170 C166 1.328 . S
N170 C168 1.350 . S
H171 C166 0.930 . S
H172 C167 0.930 . S
C173 O174 1.224 . S
C173 O192 1.247 . S
O174 C173 1.224 . S
N175 Co165 2.128 . S
N175 C176 1.355 . S
N175 C178 1.311 . S
C176 N175 1.355 . S
C176 C177 1.363 . S
C176 H188 0.929 . S
C177 C176 1.363 . S
C177 N179 1.375 . S
C177 H195 0.931 . S
C178 N175 1.311 . S
C178 N179 1.347 . S
C178 H189 0.929 . S
N179 C177 1.375 . S
N179 C178 1.347 . S
C180 C183 1.365 . S
C180 N185 1.328 . S
C180 H186 0.929 . S
C181 C182 1.362 . S
C181 C184 1.378 . S
C181 H196 0.929 . S
C182 C181 1.362 . S
C182 C183 1.366 . S
C183 C180 1.365 . S
C183 C182 1.366 . S
C183 H197 0.930 . S
C184 C181 1.378 . S
C184 N185 1.315 . S
C184 H187 0.930 . S
N185 Co165 2.194 . S
N185 C180 1.328 . S
N185 C184 1.315 . S
H186 C180 0.929 . S
H187 C184 0.930 . S
H188 C176 0.929 . S
H189 C178 0.929 . S
O190 Co165 2.351 . S
O190 C193 1.244 . S
O191 Co165 2.155 . S
O191 C193 1.240 . S
O192 Co165 2.096 . S
O192 C173 1.247 . S
C193 O190 1.244 . S
C193 O191 1.240 . S
H194 C168 0.931 . S
H195 C177 0.931 . S
H196 C181 0.929 . S
H197 C183 0.930 . S
Co198 N202 2.148 . S
Co198 N208 2.128 . S
Co198 N218 2.194 . S
Co198 O223 2.351 . S
Co198 O224 2.155 . S
Co198 O225 2.096 . S
C199 N202 1.301 . S
C199 N203 1.328 . S
C199 H204 0.930 . S
C200 C201 1.333 . S
C200 N202 1.317 . S
C200 H205 0.930 . S
C201 C200 1.333 . S
C201 N203 1.350 . S
C201 H227 0.931 . S
N202 Co198 2.148 . S
N202 C199 1.301 . S
N202 C200 1.317 . S
N203 C199 1.328 . S
N203 C201 1.350 . S
H204 C199 0.930 . S
H205 C200 0.930 . S
C206 O207 1.224 . S
C206 O225 1.247 . S
O207 C206 1.224 . S
N208 Co198 2.128 . S
N208 C209 1.355 . S
N208 C211 1.311 . S
C209 N208 1.355 . S
C209 C210 1.363 . S
C209 H221 0.929 . S
C210 C209 1.363 . S
C210 N212 1.375 . S
C210 H228 0.931 . S
C211 N208 1.311 . S
C211 N212 1.347 . S
C211 H222 0.929 . S
N212 C210 1.375 . S
N212 C211 1.347 . S
C213 C216 1.365 . S
C213 N218 1.328 . S
C213 H219 0.929 . S
C214 C215 1.362 . S
C214 C217 1.378 . S
C214 H229 0.929 . S
C215 C214 1.362 . S
C215 C216 1.366 . S
C216 C213 1.365 . S
C216 C215 1.366 . S
C216 H230 0.930 . S
C217 C214 1.378 . S
C217 N218 1.315 . S
C217 H220 0.930 . S
N218 Co198 2.194 . S
N218 C213 1.328 . S
N218 C217 1.315 . S
H219 C213 0.929 . S
H220 C217 0.930 . S
H221 C209 0.929 . S
H222 C211 0.929 . S
O223 Co198 2.351 . S
O223 C226 1.244 . S
O224 Co198 2.155 . S
O224 C226 1.240 . S
O225 Co198 2.096 . S
O225 C206 1.247 . S
C226 O223 1.244 . S
C226 O224 1.240 . S
H227 C201 0.931 . S
H228 C210 0.931 . S
H229 C214 0.929 . S
H230 C216 0.930 . S
Co231 N235 2.148 1_556 S
Co231 N241 2.128 . S
Co231 N251 2.194 . S
Co231 O256 2.351 1_556 S
Co231 O257 2.155 1_556 S
Co231 O258 2.096 1_556 S
C232 N235 1.301 . S
C232 N236 1.328 . S
C232 H237 0.930 . S
C233 C234 1.333 . S
C233 N235 1.317 . S
C233 H238 0.930 . S
C234 C233 1.333 . S
C234 N236 1.350 . S
C234 H260 0.931 . S
N235 Co231 2.148 1_554 S
N235 C232 1.301 . S
N235 C233 1.317 . S
N236 C232 1.328 . S
N236 C234 1.350 . S
H237 C232 0.930 . S
H238 C233 0.930 . S
C239 O240 1.224 . S
C239 O258 1.247 1_556 S
O240 C239 1.224 . S
N241 Co231 2.128 . S
N241 C242 1.355 . S
N241 C244 1.311 . S
C242 N241 1.355 . S
C242 C243 1.363 . S
C242 H254 0.929 . S
C243 C242 1.363 . S
C243 N245 1.375 . S
C243 H261 0.931 . S
C244 N241 1.311 . S
C244 N245 1.347 . S
C244 H255 0.929 . S
N245 C243 1.375 . S
N245 C244 1.347 . S
C246 C249 1.365 . S
C246 N251 1.328 . S
C246 H252 0.929 . S
C247 C248 1.362 . S
C247 C250 1.378 . S
C247 H262 0.929 . S
C248 C247 1.362 . S
C248 C249 1.366 . S
C249 C246 1.365 . S
C249 C248 1.366 . S
C249 H263 0.930 . S
C250 C247 1.378 . S
C250 N251 1.315 . S
C250 H253 0.930 . S
N251 Co231 2.194 . S
N251 C246 1.328 . S
N251 C250 1.315 . S
H252 C246 0.929 . S
H253 C250 0.930 . S
H254 C242 0.929 . S
H255 C244 0.929 . S
O256 Co231 2.351 1_554 S
O256 C259 1.244 . S
O257 Co231 2.155 1_554 S
O257 C259 1.240 . S
O258 Co231 2.096 1_554 S
O258 C239 1.247 1_554 S
C259 O256 1.244 . S
C259 O257 1.240 . S
H260 C234 0.931 . S
H261 C243 0.931 . S
H262 C247 0.929 . S
H263 C249 0.930 . S
Co264 N268 2.148 . S
Co264 N274 2.128 . S
Co264 N284 2.194 . S
Co264 O289 2.351 . S
Co264 O290 2.155 . S
Co264 O291 2.096 . S
C265 N268 1.301 . S
C265 N269 1.328 . S
C265 H270 0.930 . S
C266 C267 1.333 . S
C266 N268 1.317 . S
C266 H271 0.930 . S
C267 C266 1.333 . S
C267 N269 1.350 . S
C267 H293 0.931 . S
N268 Co264 2.148 . S
N268 C265 1.301 . S
N268 C266 1.317 . S
N269 C265 1.328 . S
N269 C267 1.350 . S
H270 C265 0.930 . S
H271 C266 0.930 . S
C272 O273 1.224 . S
C272 O291 1.247 . S
O273 C272 1.224 . S
N274 Co264 2.128 . S
N274 C275 1.355 . S
N274 C277 1.311 . S
C275 N274 1.355 . S
C275 C276 1.363 . S
C275 H287 0.929 . S
C276 C275 1.363 . S
C276 N278 1.375 . S
C276 H294 0.931 . S
C277 N274 1.311 . S
C277 N278 1.347 . S
C277 H288 0.929 . S
N278 C276 1.375 . S
N278 C277 1.347 . S
C279 C282 1.365 . S
C279 N284 1.328 . S
C279 H285 0.929 . S
C280 C281 1.362 . S
C280 C283 1.378 . S
C280 H295 0.929 . S
C281 C280 1.362 . S
C281 C282 1.366 . S
C282 C279 1.365 . S
C282 C281 1.366 . S
C282 H296 0.930 . S
C283 C280 1.378 . S
C283 N284 1.315 . S
C283 H286 0.930 . S
N284 Co264 2.194 . S
N284 C279 1.328 . S
N284 C283 1.315 . S
H285 C279 0.929 . S
H286 C283 0.930 . S
H287 C275 0.929 . S
H288 C277 0.929 . S
O289 Co264 2.351 . S
O289 C292 1.244 . S
O290 Co264 2.155 . S
O290 C292 1.240 . S
O291 Co264 2.096 . S
O291 C272 1.247 . S
C292 O289 1.244 . S
C292 O290 1.240 . S
H293 C267 0.931 . S
H294 C276 0.931 . S
H295 C280 0.929 . S
H296 C282 0.930 . S
Co297 N301 2.148 . S
Co297 N307 2.128 . S
Co297 N317 2.194 . S
Co297 O322 2.351 . S
Co297 O323 2.155 . S
Co297 O324 2.096 . S
C298 N301 1.301 . S
C298 N302 1.328 . S
C298 H303 0.930 . S
C299 C300 1.333 . S
C299 N301 1.317 . S
C299 H304 0.930 . S
C300 C299 1.333 . S
C300 N302 1.350 . S
C300 H326 0.931 . S
N301 Co297 2.148 . S
N301 C298 1.301 . S
N301 C299 1.317 . S
N302 C298 1.328 . S
N302 C300 1.350 . S
H303 C298 0.930 . S
H304 C299 0.930 . S
C305 O306 1.224 . S
C305 O324 1.247 . S
O306 C305 1.224 . S
N307 Co297 2.128 . S
N307 C308 1.355 . S
N307 C310 1.311 . S
C308 N307 1.355 . S
C308 C309 1.363 . S
C308 H320 0.929 . S
C309 C308 1.363 . S
C309 N311 1.375 . S
C309 H327 0.931 . S
C310 N307 1.311 . S
C310 N311 1.347 . S
C310 H321 0.929 . S
N311 C309 1.375 . S
N311 C310 1.347 . S
C312 C315 1.365 . S
C312 N317 1.328 . S
C312 H318 0.929 . S
C313 C314 1.362 . S
C313 C316 1.378 . S
C313 H328 0.929 . S
C314 C313 1.362 . S
C314 C315 1.366 . S
C315 C312 1.365 . S
C315 C314 1.366 . S
C315 H329 0.930 . S
C316 C313 1.378 . S
C316 N317 1.315 . S
C316 H319 0.930 . S
N317 Co297 2.194 . S
N317 C312 1.328 . S
N317 C316 1.315 . S
H318 C312 0.929 . S
H319 C316 0.930 . S
H320 C308 0.929 . S
H321 C310 0.929 . S
O322 Co297 2.351 . S
O322 C325 1.244 . S
O323 Co297 2.155 . S
O323 C325 1.240 . S
O324 Co297 2.096 . S
O324 C305 1.247 . S
C325 O322 1.244 . S
C325 O323 1.240 . S
H326 C300 0.931 . S
H327 C309 0.931 . S
H328 C313 0.929 . S
H329 C315 0.930 . S
Co330 N334 2.148 . S
Co330 N340 2.128 . S
Co330 N350 2.194 . S
Co330 O355 2.351 . S
Co330 O356 2.155 . S
Co330 O357 2.096 . S
C331 N334 1.301 . S
C331 N335 1.328 . S
C331 H336 0.930 . S
C332 C333 1.333 . S
C332 N334 1.317 . S
C332 H337 0.930 . S
C333 C332 1.333 . S
C333 N335 1.350 . S
C333 H359 0.931 . S
N334 Co330 2.148 . S
N334 C331 1.301 . S
N334 C332 1.317 . S
N335 C331 1.328 . S
N335 C333 1.350 . S
H336 C331 0.930 . S
H337 C332 0.930 . S
C338 O339 1.224 . S
C338 O357 1.247 . S
O339 C338 1.224 . S
N340 Co330 2.128 . S
N340 C341 1.355 . S
N340 C343 1.311 . S
C341 N340 1.355 . S
C341 C342 1.363 . S
C341 H353 0.929 . S
C342 C341 1.363 . S
C342 N344 1.375 . S
C342 H360 0.931 . S
C343 N340 1.311 . S
C343 N344 1.347 . S
C343 H354 0.929 . S
N344 C342 1.375 . S
N344 C343 1.347 . S
C345 C348 1.365 . S
C345 N350 1.328 . S
C345 H351 0.929 . S
C346 C347 1.362 . S
C346 C349 1.378 . S
C346 H361 0.929 . S
C347 C346 1.362 . S
C347 C348 1.366 . S
C348 C345 1.365 . S
C348 C347 1.366 . S
C348 H362 0.930 . S
C349 C346 1.378 . S
C349 N350 1.315 . S
C349 H352 0.930 . S
N350 Co330 2.194 . S
N350 C345 1.328 . S
N350 C349 1.315 . S
H351 C345 0.929 . S
H352 C349 0.930 . S
H353 C341 0.929 . S
H354 C343 0.929 . S
O355 Co330 2.351 . S
O355 C358 1.244 . S
O356 Co330 2.155 . S
O356 C358 1.240 . S
O357 Co330 2.096 . S
O357 C338 1.247 . S
C358 O355 1.244 . S
C358 O356 1.240 . S
H359 C333 0.931 . S
H360 C342 0.931 . S
H361 C346 0.929 . S
H362 C348 0.930 . S
Co363 N367 2.148 . S
Co363 N373 2.128 . S
Co363 N383 2.194 . S
Co363 O388 2.351 . S
Co363 O389 2.155 . S
Co363 O390 2.096 . S
C364 N367 1.301 . S
C364 N368 1.328 . S
C364 H369 0.930 . S
C365 C366 1.333 . S
C365 N367 1.317 . S
C365 H370 0.930 . S
C366 C365 1.333 . S
C366 N368 1.350 . S
C366 H392 0.931 . S
N367 Co363 2.148 . S
N367 C364 1.301 . S
N367 C365 1.317 . S
N368 C364 1.328 . S
N368 C366 1.350 . S
H369 C364 0.930 . S
H370 C365 0.930 . S
C371 O372 1.224 . S
C371 O390 1.247 . S
O372 C371 1.224 . S
N373 Co363 2.128 . S
N373 C374 1.355 . S
N373 C376 1.311 . S
C374 N373 1.355 . S
C374 C375 1.363 . S
C374 H386 0.929 . S
C375 C374 1.363 . S
C375 N377 1.375 . S
C375 H393 0.931 . S
C376 N373 1.311 . S
C376 N377 1.347 . S
C376 H387 0.929 . S
N377 C375 1.375 . S
N377 C376 1.347 . S
C378 C381 1.365 . S
C378 N383 1.328 . S
C378 H384 0.929 . S
C379 C380 1.362 . S
C379 C382 1.378 . S
C379 H394 0.929 . S
C380 C379 1.362 . S
C380 C381 1.366 . S
C381 C378 1.365 . S
C381 C380 1.366 . S
C381 H395 0.930 . S
C382 C379 1.378 . S
C382 N383 1.315 . S
C382 H385 0.930 . S
N383 Co363 2.194 . S
N383 C378 1.328 . S
N383 C382 1.315 . S
H384 C378 0.929 . S
H385 C382 0.930 . S
H386 C374 0.929 . S
H387 C376 0.929 . S
O388 Co363 2.351 . S
O388 C391 1.244 . S
O389 Co363 2.155 . S
O389 C391 1.240 . S
O390 Co363 2.096 . S
O390 C371 1.247 . S
C391 O388 1.244 . S
C391 O389 1.240 . S
H392 C366 0.931 . S
H393 C375 0.931 . S
H394 C379 0.929 . S
H395 C381 0.930 . S
C396 C397 1.391 . S
C396 C398 1.394 . S
C396 H412 0.931 . S
C397 C396 1.391 . S
C397 C401 1.376 . S
C398 C396 1.394 . S
C398 C399 1.369 . S
C398 C402 1.531 . S
C399 C398 1.369 . S
C399 C400 1.410 . S
C399 C407 1.503 . S
C400 C399 1.410 . S
C400 C401 1.392 . S
C400 C403 1.511 . S
C401 C397 1.376 . S
C401 C400 1.392 . S
C401 H413 0.929 . S
C402 C398 1.531 . S
C402 H414 0.960 . S
C402 H415 0.962 . S
C402 H416 0.960 . S
C403 C400 1.511 . S
C403 H417 0.961 . S
C403 H418 0.961 . S
C403 H419 0.961 . S
C404 C405 1.370 . S
C404 C406 1.363 . S
C404 H420 0.931 . S
C405 C404 1.370 . S
C405 C409 1.408 . S
C406 C404 1.363 . S
C406 C407 1.370 . S
C406 C410 1.524 . S
C407 C399 1.503 . S
C407 C406 1.370 . S
C407 C408 1.403 . S
C408 C407 1.403 . S
C408 C409 1.404 . S
C408 C411 1.539 . S
C409 C405 1.408 . S
C409 C408 1.404 . S
C409 H421 0.930 . S
C410 C406 1.524 . S
C410 H422 0.956 . S
C410 H423 0.961 . S
C410 H424 0.961 . S
C411 C408 1.539 . S
C411 H425 0.958 . S
C411 H426 0.961 . S
C411 H427 0.960 . S
H412 C396 0.931 . S
H413 C401 0.929 . S
H414 C402 0.960 . S
H415 C402 0.962 . S
H416 C402 0.960 . S
H417 C403 0.961 . S
H418 C403 0.961 . S
H419 C403 0.961 . S
H420 C404 0.931 . S
H421 C409 0.930 . S
H422 C410 0.956 . S
H423 C410 0.961 . S
H424 C410 0.961 . S
H425 C411 0.958 . S
H426 C411 0.961 . S
H427 C411 0.960 . S
C428 C429 1.391 . S
C428 C430 1.394 . S
C428 H444 0.931 . S
C429 C428 1.391 . S
C429 C433 1.376 . S
C430 C428 1.394 . S
C430 C431 1.369 . S
C430 C434 1.531 . S
C431 C430 1.369 . S
C431 C432 1.410 . S
C431 C439 1.503 . S
C432 C431 1.410 . S
C432 C433 1.392 . S
C432 C435 1.511 . S
C433 C429 1.376 . S
C433 C432 1.392 . S
C433 H445 0.929 1_554 S
C434 C430 1.531 . S
C434 H446 0.960 . S
C434 H447 0.962 . S
C434 H448 0.960 . S
C435 C432 1.511 . S
C435 H449 0.963 1_554 S
C435 H450 0.961 . S
C435 H451 0.961 . S
C436 C437 1.370 . S
C436 C438 1.363 1_655 S
C436 H452 0.931 . S
C437 C436 1.370 . S
C437 C441 1.408 1_655 S
C438 C436 1.363 1_455 S
C438 C439 1.370 . S
C438 C442 1.524 . S
C439 C431 1.503 . S
C439 C438 1.370 . S
C439 C440 1.403 . S
C440 C439 1.403 . S
C440 C441 1.404 . S
C440 C443 1.539 . S
C441 C437 1.408 1_455 S
C441 C440 1.404 . S
C441 H453 0.930 . S
C442 C438 1.524 . S
C442 H454 0.956 . S
C442 H455 0.961 . S
C442 H456 0.962 . S
C443 C440 1.539 . S
C443 H457 0.958 . S
C443 H458 0.961 . S
C443 H459 0.960 . S
H444 C428 0.931 . S
H445 C433 0.929 1_556 S
H446 C434 0.960 . S
H447 C434 0.962 . S
H448 C434 0.960 . S
H449 C435 0.963 1_556 S
H450 C435 0.961 . S
H451 C435 0.961 . S
H452 C436 0.931 . S
H453 C441 0.930 . S
H454 C442 0.956 . S
H455 C442 0.961 . S
H456 C442 0.962 . S
H457 C443 0.958 . S
H458 C443 0.961 . S
H459 C443 0.960 . S
C460 C461 1.391 . S
C460 C462 1.394 . S
C460 H476 0.931 . S
C461 C460 1.391 . S
C461 C465 1.376 . S
C462 C460 1.394 . S
C462 C463 1.369 . S
C462 C466 1.531 . S
C463 C462 1.369 . S
C463 C464 1.410 . S
C463 C471 1.503 . S
C464 C463 1.410 . S
C464 C465 1.392 . S
C464 C467 1.511 . S
C465 C461 1.376 . S
C465 C464 1.392 . S
C465 H477 0.929 . S
C466 C462 1.531 . S
C466 H478 0.960 . S
C466 H479 0.962 . S
C466 H480 0.960 . S
C467 C464 1.511 . S
C467 H481 0.961 . S
C467 H482 0.961 . S
C467 H483 0.961 . S
C468 C469 1.370 . S
C468 C470 1.363 1_565 S
C468 H484 0.931 . S
C469 C468 1.370 . S
C469 C473 1.408 1_565 S
C470 C468 1.363 1_545 S
C470 C471 1.370 . S
C470 C474 1.524 . S
C471 C463 1.503 . S
C471 C470 1.370 . S
C471 C472 1.403 . S
C472 C471 1.403 . S
C472 C473 1.404 . S
C472 C475 1.539 . S
C473 C469 1.408 1_545 S
C473 C472 1.404 . S
C473 H485 0.930 . S
C474 C470 1.524 . S
C474 H486 0.956 . S
C474 H487 0.961 . S
C474 H488 0.961 1_545 S
C475 C472 1.539 . S
C475 H489 0.958 . S
C475 H490 0.961 . S
C475 H491 0.960 . S
H476 C460 0.931 . S
H477 C465 0.929 . S
H478 C466 0.960 . S
H479 C466 0.962 . S
H480 C466 0.960 . S
H481 C467 0.961 . S
H482 C467 0.961 . S
H483 C467 0.961 . S
H484 C468 0.931 . S
H485 C473 0.930 . S
H486 C474 0.956 . S
H487 C474 0.961 . S
H488 C474 0.961 1_565 S
H489 C475 0.958 . S
H490 C475 0.961 . S
H491 C475 0.960 . S
C492 C493 1.391 . S
C492 C494 1.394 . S
C492 H508 0.931 . S
C493 C492 1.391 . S
C493 C497 1.376 . S
C494 C492 1.394 . S
C494 C495 1.369 . S
C494 C498 1.531 . S
C495 C494 1.369 . S
C495 C496 1.410 . S
C495 C503 1.503 . S
C496 C495 1.410 . S
C496 C497 1.392 . S
C496 C499 1.511 . S
C497 C493 1.376 . S
C497 C496 1.392 . S
C497 H509 0.929 . S
C498 C494 1.531 . S
C498 H510 0.960 . S
C498 H511 0.962 . S
C498 H512 0.960 . S
C499 C496 1.511 . S
C499 H513 0.961 . S
C499 H514 0.961 . S
C499 H515 0.961 . S
C500 C501 1.370 . S
C500 C502 1.363 . S
C500 H516 0.931 . S
C501 C500 1.370 . S
C501 C505 1.408 . S
C502 C500 1.363 . S
C502 C503 1.370 . S
C502 C506 1.524 . S
C503 C495 1.503 . S
C503 C502 1.370 . S
C503 C504 1.403 . S
C504 C503 1.403 . S
C504 C505 1.404 . S
C504 C507 1.539 . S
C505 C501 1.408 . S
C505 C504 1.404 . S
C505 H517 0.930 . S
C506 C502 1.524 . S
C506 H518 0.956 . S
C506 H519 0.961 . S
C506 H520 0.961 . S
C507 C504 1.539 . S
C507 H521 0.958 . S
C507 H522 0.961 . S
C507 H523 0.960 . S
H508 C492 0.931 . S
H509 C497 0.929 . S
H510 C498 0.960 . S
H511 C498 0.962 . S
H512 C498 0.960 . S
H513 C499 0.961 . S
H514 C499 0.961 . S
H515 C499 0.961 . S
H516 C500 0.931 . S
H517 C505 0.930 . S
H518 C506 0.956 . S
H519 C506 0.961 . S
H520 C506 0.961 . S
H521 C507 0.958 . S
H522 C507 0.961 . S
H523 C507 0.960 . S
C524 C525 1.391 1_655 S
C524 C526 1.394 . S
C524 H540 0.931 . S
C525 C524 1.391 1_455 S
C525 C529 1.376 . S
C526 C524 1.394 . S
C526 C527 1.369 . S
C526 C530 1.531 . S
C527 C526 1.369 . S
C527 C528 1.410 . S
C527 C535 1.503 . S
C528 C527 1.410 . S
C528 C529 1.392 1_655 S
C528 C531 1.511 . S
C529 C525 1.376 . S
C529 C528 1.392 1_455 S
C529 H541 0.929 . S
C530 C526 1.531 . S
C530 H542 0.960 . S
C530 H543 0.962 . S
C530 H544 0.960 . S
C531 C528 1.511 . S
C531 H545 0.961 1_655 S
C531 H546 0.961 . S
C531 H547 0.961 . S
C532 C533 1.370 . S
C532 C534 1.363 . S
C532 H548 0.931 . S
C533 C532 1.370 . S
C533 C537 1.408 . S
C534 C532 1.363 . S
C534 C535 1.370 . S
C534 C538 1.524 . S
C535 C527 1.503 . S
C535 C534 1.370 . S
C535 C536 1.403 . S
C536 C535 1.403 . S
C536 C537 1.404 . S
C536 C539 1.539 . S
C537 C533 1.408 . S
C537 C536 1.404 . S
C537 H549 0.930 . S
C538 C534 1.524 . S
C538 H550 0.956 . S
C538 H551 0.961 . S
C538 H552 0.961 . S
C539 C536 1.539 . S
C539 H553 0.958 . S
C539 H554 0.961 . S
C539 H555 0.960 . S
H540 C524 0.931 . S
H541 C529 0.929 . S
H542 C530 0.960 . S
H543 C530 0.962 . S
H544 C530 0.960 . S
H545 C531 0.961 1_455 S
H546 C531 0.961 . S
H547 C531 0.961 . S
H548 C532 0.931 . S
H549 C537 0.930 . S
H550 C538 0.956 . S
H551 C538 0.961 . S
H552 C538 0.961 . S
H553 C539 0.958 . S
H554 C539 0.961 . S
H555 C539 0.960 . S
C556 C557 1.391 . S
C556 C558 1.394 . S
C556 H572 0.931 . S
C557 C556 1.391 . S
C557 C561 1.376 . S
C558 C556 1.394 . S
C558 C559 1.369 . S
C558 C562 1.531 . S
C559 C558 1.369 . S
C559 C560 1.410 . S
C559 C567 1.503 . S
C560 C559 1.410 . S
C560 C561 1.392 . S
C560 C563 1.511 . S
C561 C557 1.376 . S
C561 C560 1.392 . S
C561 H573 0.929 . S
C562 C558 1.531 . S
C562 H574 0.960 . S
C562 H575 0.962 . S
C562 H576 0.960 . S
C563 C560 1.511 . S
C563 H577 0.961 . S
C563 H578 0.961 . S
C563 H579 0.961 . S
C564 C565 1.370 . S
C564 C566 1.363 1_545 S
C564 H580 0.931 . S
C565 C564 1.370 . S
C565 C569 1.408 1_545 S
C566 C564 1.363 1_565 S
C566 C567 1.370 . S
C566 C570 1.524 . S
C567 C559 1.503 . S
C567 C566 1.370 . S
C567 C568 1.403 . S
C568 C567 1.403 . S
C568 C569 1.404 . S
C568 C571 1.539 . S
C569 C565 1.408 1_565 S
C569 C568 1.404 . S
C569 H581 0.930 . S
C570 C566 1.524 . S
C570 H582 0.956 . S
C570 H583 0.961 . S
C570 H584 0.961 1_565 S
C571 C568 1.539 . S
C571 H585 0.958 . S
C571 H586 0.961 . S
C571 H587 0.960 . S
H572 C556 0.931 . S
H573 C561 0.929 . S
H574 C562 0.960 . S
H575 C562 0.962 . S
H576 C562 0.960 . S
H577 C563 0.961 . S
H578 C563 0.961 . S
H579 C563 0.961 . S
H580 C564 0.931 . S
H581 C569 0.930 . S
H582 C570 0.956 . S
H583 C570 0.961 . S
H584 C570 0.961 1_545 S
H585 C571 0.958 . S
H586 C571 0.961 . S
H587 C571 0.960 . S
C588 C589 1.391 . S
C588 C590 1.394 . S
C588 H604 0.931 . S
C589 C588 1.391 . S
C589 C593 1.376 . S
C590 C588 1.394 . S
C590 C591 1.369 . S
C590 C594 1.531 . S
C591 C590 1.369 . S
C591 C592 1.410 . S
C591 C599 1.503 . S
C592 C591 1.410 . S
C592 C593 1.392 . S
C592 C595 1.511 . S
C593 C589 1.376 . S
C593 C592 1.392 . S
C593 H605 0.929 1_556 S
C594 C590 1.531 . S
C594 H606 0.960 . S
C594 H607 0.962 . S
C594 H608 0.960 . S
C595 C592 1.511 . S
C595 H609 0.961 1_556 S
C595 H610 0.961 . S
C595 H611 0.961 . S
C596 C597 1.370 . S
C596 C598 1.363 . S
C596 H612 0.931 . S
C597 C596 1.370 . S
C597 C601 1.408 . S
C598 C596 1.363 . S
C598 C599 1.370 . S
C598 C602 1.524 . S
C599 C591 1.503 . S
C599 C598 1.370 . S
C599 C600 1.403 . S
C600 C599 1.403 . S
C600 C601 1.404 . S
C600 C603 1.539 . S
C601 C597 1.408 . S
C601 C600 1.404 . S
C601 H613 0.930 . S
C602 C598 1.524 . S
C602 H614 0.956 . S
C602 H615 0.961 . S
C602 H616 0.961 . S
C603 C600 1.539 . S
C603 H617 0.958 . S
C603 H618 0.961 . S
C603 H619 0.960 . S
H604 C588 0.931 . S
H605 C593 0.929 1_554 S
H606 C594 0.960 . S
H607 C594 0.962 . S
H608 C594 0.960 . S
H609 C595 0.961 1_554 S
H610 C595 0.961 . S
H611 C595 0.961 . S
H612 C596 0.931 . S
H613 C601 0.930 . S
H614 C602 0.956 . S
H615 C602 0.961 . S
H616 C602 0.961 . S
H617 C603 0.958 . S
H618 C603 0.961 . S
H619 C603 0.960 . S
C620 C621 1.391 . S
C620 C622 1.394 . S
C620 H636 0.931 . S
C621 C620 1.391 . S
C621 C625 1.376 . S
C622 C620 1.394 . S
C622 C623 1.369 . S
C622 C626 1.531 . S
C623 C622 1.369 . S
C623 C624 1.410 . S
C623 C631 1.503 . S
C624 C623 1.410 . S
C624 C625 1.392 . S
C624 C627 1.511 . S
C625 C621 1.376 . S
C625 C624 1.392 . S
C625 H637 0.929 . S
C626 C622 1.531 . S
C626 H638 0.960 . S
C626 H639 0.962 . S
C626 H640 0.960 . S
C627 C624 1.511 . S
C627 H641 0.961 . S
C627 H642 0.961 . S
C627 H643 0.961 . S
C628 C629 1.370 . S
C628 C630 1.363 1_655 S
C628 H644 0.931 . S
C629 C628 1.370 . S
C629 C633 1.408 . S
C630 C628 1.363 1_455 S
C630 C631 1.370 . S
C630 C634 1.524 . S
C631 C623 1.503 . S
C631 C630 1.370 . S
C631 C632 1.403 . S
C632 C631 1.403 . S
C632 C633 1.404 1_455 S
C632 C635 1.539 . S
C633 C629 1.408 . S
C633 C632 1.404 1_655 S
C633 H645 0.930 . S
C634 C630 1.524 . S
C634 H646 0.956 . S
C634 H647 0.961 . S
C634 H648 0.961 . S
C635 C632 1.539 . S
C635 H649 0.958 . S
C635 H650 0.961 . S
C635 H651 0.960 . S
H636 C620 0.931 . S
H637 C625 0.929 . S
H638 C626 0.960 . S
H639 C626 0.962 . S
H640 C626 0.960 . S
H641 C627 0.961 . S
H642 C627 0.961 . S
H643 C627 0.961 . S
H644 C628 0.931 . S
H645 C633 0.930 . S
H646 C634 0.956 . S
H647 C634 0.961 . S
H648 C634 0.961 . S
H649 C635 0.958 . S
H650 C635 0.961 . S
H651 C635 0.960 . S
C652 C653 1.391 . S
C652 C654 1.394 . S
C652 H668 0.931 . S
C653 C652 1.391 . S
C653 C657 1.376 . S
C654 C652 1.394 . S
C654 C655 1.369 . S
C654 C658 1.531 . S
C655 C654 1.369 . S
C655 C656 1.410 . S
C655 C663 1.503 . S
C656 C655 1.410 . S
C656 C657 1.392 . S
C656 C659 1.511 . S
C657 C653 1.376 . S
C657 C656 1.392 . S
C657 H669 0.929 . S
C658 C654 1.531 . S
C658 H670 0.960 . S
C658 H671 0.962 . S
C658 H672 0.960 . S
C659 C656 1.511 . S
C659 H673 0.961 . S
C659 H674 0.961 . S
C659 H675 0.961 . S
C660 C661 1.370 . S
C660 C662 1.363 1_565 S
C660 H676 0.931 . S
C661 C660 1.370 . S
C661 C665 1.408 1_565 S
C662 C660 1.363 1_545 S
C662 C663 1.370 . S
C662 C666 1.524 . S
C663 C655 1.503 . S
C663 C662 1.370 . S
C663 C664 1.403 . S
C664 C663 1.403 . S
C664 C665 1.404 . S
C664 C667 1.539 . S
C665 C661 1.408 1_545 S
C665 C664 1.404 . S
C665 H677 0.930 1_545 S
C666 C662 1.524 . S
C666 H678 0.956 . S
C666 H679 0.961 . S
C666 H680 0.961 . S
C667 C664 1.539 . S
C667 H681 0.958 . S
C667 H682 0.961 . S
C667 H683 0.960 . S
H668 C652 0.931 . S
H669 C657 0.929 . S
H670 C658 0.960 . S
H671 C658 0.962 . S
H672 C658 0.960 . S
H673 C659 0.961 . S
H674 C659 0.961 . S
H675 C659 0.961 . S
H676 C660 0.931 . S
H677 C665 0.930 1_565 S
H678 C666 0.956 . S
H679 C666 0.961 . S
H680 C666 0.961 . S
H681 C667 0.958 . S
H682 C667 0.961 . S
H683 C667 0.960 . S
C684 C685 1.391 . S
C684 C686 1.394 . S
C684 H700 0.931 . S
C685 C684 1.391 . S
C685 C689 1.376 . S
C686 C684 1.394 . S
C686 C687 1.369 . S
C686 C690 1.531 . S
C687 C686 1.369 . S
C687 C688 1.410 . S
C687 C695 1.503 . S
C688 C687 1.410 . S
C688 C689 1.392 . S
C688 C691 1.511 . S
C689 C685 1.376 . S
C689 C688 1.392 . S
C689 H701 0.929 . S
C690 C686 1.531 . S
C690 H702 0.960 . S
C690 H703 0.962 . S
C690 H704 0.960 . S
C691 C688 1.511 . S
C691 H705 0.961 . S
C691 H706 0.961 . S
C691 H707 0.961 . S
C692 C693 1.370 . S
C692 C694 1.363 . S
C692 H708 0.931 . S
C693 C692 1.370 . S
C693 C697 1.408 . S
C694 C692 1.363 . S
C694 C695 1.370 . S
C694 C698 1.524 . S
C695 C687 1.503 . S
C695 C694 1.370 . S
C695 C696 1.403 . S
C696 C695 1.403 . S
C696 C697 1.404 . S
C696 C699 1.539 . S
C697 C693 1.408 . S
C697 C696 1.404 . S
C697 H709 0.930 . S
C698 C694 1.524 . S
C698 H710 0.956 . S
C698 H711 0.961 . S
C698 H712 0.961 . S
C699 C696 1.539 . S
C699 H713 0.958 . S
C699 H714 0.961 . S
C699 H715 0.960 . S
H700 C684 0.931 . S
H701 C689 0.929 . S
H702 C690 0.960 . S
H703 C690 0.962 . S
H704 C690 0.960 . S
H705 C691 0.961 . S
H706 C691 0.961 . S
H707 C691 0.961 . S
H708 C692 0.931 . S
H709 C697 0.930 . S
H710 C698 0.956 . S
H711 C698 0.961 . S
H712 C698 0.961 . S
H713 C699 0.958 . S
H714 C699 0.961 . S
H715 C699 0.960 . S
C716 C717 1.391 . S
C716 C718 1.394 . S
C716 H732 0.931 . S
C717 C716 1.391 . S
C717 C721 1.376 . S
C718 C716 1.394 . S
C718 C719 1.369 . S
C718 C722 1.531 . S
C719 C718 1.369 . S
C719 C720 1.410 . S
C719 C727 1.503 . S
C720 C719 1.410 . S
C720 C721 1.392 . S
C720 C723 1.511 . S
C721 C717 1.376 . S
C721 C720 1.392 . S
C721 H733 0.929 . S
C722 C718 1.531 . S
C722 H734 0.960 . S
C722 H735 0.962 . S
C722 H736 0.960 . S
C723 C720 1.511 . S
C723 H737 0.961 . S
C723 H738 0.961 . S
C723 H739 0.961 . S
C724 C725 1.370 1_655 S
C724 C726 1.363 . S
C724 H740 0.923 . S
C725 C724 1.370 1_455 S
C725 C729 1.408 . S
C726 C724 1.363 . S
C726 C727 1.370 . S
C726 C730 1.524 . S
C727 C719 1.503 . S
C727 C726 1.370 . S
C727 C728 1.403 . S
C728 C727 1.403 . S
C728 C729 1.404 1_655 S
C728 C731 1.539 . S
C729 C725 1.408 . S
C729 C728 1.404 1_455 S
C729 H741 0.930 . S
C730 C726 1.524 . S
C730 H742 0.956 . S
C730 H743 0.961 . S
C730 H744 0.961 . S
C731 C728 1.539 . S
C731 H745 0.958 . S
C731 H746 0.961 . S
C731 H747 0.960 . S
H732 C716 0.931 . S
H733 C721 0.929 . S
H734 C722 0.960 . S
H735 C722 0.962 . S
H736 C722 0.960 . S
H737 C723 0.961 . S
H738 C723 0.961 . S
H739 C723 0.961 . S
H740 C724 0.923 . S
H741 C729 0.930 . S
H742 C730 0.956 . S
H743 C730 0.961 . S
H744 C730 0.961 . S
H745 C731 0.958 . S
H746 C731 0.961 . S
H747 C731 0.960 . S
C748 C749 1.391 . S
C748 C750 1.394 . S
C748 H764 0.931 . S
C749 C748 1.391 . S
C749 C753 1.376 . S
C750 C748 1.394 . S
C750 C751 1.369 . S
C750 C754 1.531 . S
C751 C750 1.369 . S
C751 C752 1.410 . S
C751 C759 1.503 . S
C752 C751 1.410 . S
C752 C753 1.392 . S
C752 C755 1.511 . S
C753 C749 1.376 . S
C753 C752 1.392 . S
C753 H765 0.929 . S
C754 C750 1.531 . S
C754 H766 0.960 . S
C754 H767 0.962 . S
C754 H768 0.960 . S
C755 C752 1.511 . S
C755 H769 0.961 . S
C755 H770 0.961 . S
C755 H771 0.961 . S
C756 C757 1.370 . S
C756 C758 1.363 1_545 S
C756 H772 0.931 . S
C757 C756 1.370 . S
C757 C761 1.408 1_545 S
C758 C756 1.363 1_565 S
C758 C759 1.370 . S
C758 C762 1.524 . S
C759 C751 1.503 . S
C759 C758 1.370 . S
C759 C760 1.403 . S
C760 C759 1.403 . S
C760 C761 1.404 . S
C760 C763 1.539 . S
C761 C757 1.408 1_565 S
C761 C760 1.404 . S
C761 H773 0.930 . S
C762 C758 1.524 . S
C762 H774 0.956 . S
C762 H775 0.961 . S
C762 H776 0.961 1_565 S
C763 C760 1.539 . S
C763 H777 0.958 . S
C763 H778 0.961 . S
C763 H779 0.960 . S
H764 C748 0.931 . S
H765 C753 0.929 . S
H766 C754 0.960 . S
H767 C754 0.962 . S
H768 C754 0.960 . S
H769 C755 0.961 . S
H770 C755 0.961 . S
H771 C755 0.961 . S
H772 C756 0.931 . S
H773 C761 0.930 . S
H774 C762 0.956 . S
H775 C762 0.961 . S
H776 C762 0.961 1_545 S
H777 C763 0.958 . S
H778 C763 0.961 . S
H779 C763 0.960 . S
C780 C781 1.391 . S
C780 C782 1.394 . S
C780 H796 0.931 . S
C781 C780 1.391 . S
C781 C785 1.376 . S
C782 C780 1.394 . S
C782 C783 1.369 . S
C782 C786 1.531 . S
C783 C782 1.369 . S
C783 C784 1.410 . S
C783 C791 1.503 . S
C784 C783 1.410 . S
C784 C785 1.392 . S
C784 C787 1.511 . S
C785 C781 1.376 . S
C785 C784 1.392 . S
C785 H797 0.929 . S
C786 C782 1.531 . S
C786 H798 0.960 . S
C786 H799 0.962 . S
C786 H800 0.960 . S
C787 C784 1.511 . S
C787 H801 0.961 . S
C787 H802 0.961 . S
C787 H803 0.961 . S
C788 C789 1.370 . S
C788 C790 1.363 . S
C788 H804 0.931 . S
C789 C788 1.370 . S
C789 C793 1.408 . S
C790 C788 1.363 . S
C790 C791 1.370 . S
C790 C794 1.524 . S
C791 C783 1.503 . S
C791 C790 1.370 . S
C791 C792 1.403 . S
C792 C791 1.403 . S
C792 C793 1.404 . S
C792 C795 1.539 . S
C793 C789 1.408 . S
C793 C792 1.404 . S
C793 H805 0.930 . S
C794 C790 1.524 . S
C794 H806 0.956 . S
C794 H807 0.961 . S
C794 H808 0.961 . S
C795 C792 1.539 . S
C795 H809 0.958 . S
C795 H810 0.961 . S
C795 H811 0.960 . S
H796 C780 0.931 . S
H797 C785 0.929 . S
H798 C786 0.960 . S
H799 C786 0.962 . S
H800 C786 0.960 . S
H801 C787 0.961 . S
H802 C787 0.961 . S
H803 C787 0.961 . S
H804 C788 0.931 . S
H805 C793 0.930 . S
H806 C794 0.956 . S
H807 C794 0.961 . S
H808 C794 0.961 . S
H809 C795 0.958 . S
H810 C795 0.961 . S
H811 C795 0.960 . S
C812 C813 1.391 . S
C812 C814 1.394 . S
C812 H828 0.931 . S
C813 C812 1.391 . S
C813 C817 1.376 . S
C814 C812 1.394 . S
C814 C815 1.369 . S
C814 C818 1.531 . S
C815 C814 1.369 . S
C815 C816 1.410 . S
C815 C823 1.503 . S
C816 C815 1.410 . S
C816 C817 1.392 . S
C816 C819 1.511 . S
C817 C813 1.376 . S
C817 C816 1.392 . S
C817 H829 0.929 . S
C818 C814 1.531 . S
C818 H830 0.960 . S
C818 H831 0.962 . S
C818 H832 0.960 . S
C819 C816 1.511 . S
C819 H833 0.961 . S
C819 H834 0.961 . S
C819 H835 0.961 . S
C820 C821 1.370 . S
C820 C822 1.363 . S
C820 H836 0.931 . S
C821 C820 1.370 . S
C821 C825 1.408 . S
C822 C820 1.363 . S
C822 C823 1.370 . S
C822 C826 1.524 . S
C823 C815 1.503 . S
C823 C822 1.370 . S
C823 C824 1.403 . S
C824 C823 1.403 . S
C824 C825 1.404 . S
C824 C827 1.539 . S
C825 C821 1.408 . S
C825 C824 1.404 . S
C825 H837 0.930 . S
C826 C822 1.524 . S
C826 H838 0.956 . S
C826 H839 0.961 . S
C826 H840 0.961 . S
C827 C824 1.539 . S
C827 H841 0.958 . S
C827 H842 0.961 . S
C827 H843 0.960 . S
H828 C812 0.931 . S
H829 C817 0.929 . S
H830 C818 0.960 . S
H831 C818 0.962 . S
H832 C818 0.960 . S
H833 C819 0.961 . S
H834 C819 0.961 . S
H835 C819 0.961 . S
H836 C820 0.931 . S
H837 C825 0.930 . S
H838 C826 0.956 . S
H839 C826 0.961 . S
H840 C826 0.961 . S
H841 C827 0.958 . S
H842 C827 0.961 . S
H843 C827 0.960 . S
C844 C845 1.391 . S
C844 C846 1.394 . S
C844 H860 0.931 . S
C845 C844 1.391 . S
C845 C849 1.376 . S
C846 C844 1.394 . S
C846 C847 1.369 . S
C846 C850 1.531 . S
C847 C846 1.369 . S
C847 C848 1.410 . S
C847 C855 1.503 . S
C848 C847 1.410 . S
C848 C849 1.392 . S
C848 C851 1.511 . S
C849 C845 1.376 . S
C849 C848 1.392 . S
C849 H861 0.929 . S
C850 C846 1.531 . S
C850 H862 0.960 . S
C850 H863 0.962 . S
C850 H864 0.960 . S
C851 C848 1.511 . S
C851 H865 0.961 . S
C851 H866 0.961 . S
C851 H867 0.961 . S
C852 C853 1.370 . S
C852 C854 1.363 . S
C852 H868 0.931 . S
C853 C852 1.370 . S
C853 C857 1.408 . S
C854 C852 1.363 . S
C854 C855 1.370 . S
C854 C858 1.524 . S
C855 C847 1.503 . S
C855 C854 1.370 . S
C855 C856 1.403 . S
C856 C855 1.403 . S
C856 C857 1.404 . S
C856 C859 1.539 . S
C857 C853 1.408 . S
C857 C856 1.404 . S
C857 H869 0.930 . S
C858 C854 1.524 . S
C858 H870 0.956 . S
C858 H871 0.961 . S
C858 H872 0.961 . S
C859 C856 1.539 . S
C859 H873 0.958 . S
C859 H874 0.961 . S
C859 H875 0.960 . S
H860 C844 0.931 . S
H861 C849 0.929 . S
H862 C850 0.960 . S
H863 C850 0.962 . S
H864 C850 0.960 . S
H865 C851 0.961 . S
H866 C851 0.961 . S
H867 C851 0.961 . S
H868 C852 0.931 . S
H869 C857 0.930 . S
H870 C858 0.956 . S
H871 C858 0.961 . S
H872 C858 0.961 . S
H873 C859 0.958 . S
H874 C859 0.961 . S
H875 C859 0.960 . S
C876 C877 1.391 . S
C876 C878 1.394 . S
C876 H892 0.931 . S
C877 C876 1.391 . S
C877 C881 1.376 . S
C878 C876 1.394 . S
C878 C879 1.369 . S
C878 C882 1.531 . S
C879 C878 1.369 . S
C879 C880 1.410 . S
C879 C887 1.503 . S
C880 C879 1.410 . S
C880 C881 1.392 . S
C880 C883 1.511 . S
C881 C877 1.376 . S
C881 C880 1.392 . S
C881 H893 0.929 . S
C882 C878 1.531 . S
C882 H894 0.960 . S
C882 H895 0.962 . S
C882 H896 0.960 . S
C883 C880 1.511 . S
C883 H897 0.961 . S
C883 H898 0.961 . S
C883 H899 0.961 . S
C884 C885 1.370 . S
C884 C886 1.363 . S
C884 H900 0.931 . S
C885 C884 1.370 . S
C885 C889 1.408 . S
C886 C884 1.363 . S
C886 C887 1.370 . S
C886 C890 1.524 . S
C887 C879 1.503 . S
C887 C886 1.370 . S
C887 C888 1.403 . S
C888 C887 1.403 . S
C888 C889 1.404 . S
C888 C891 1.539 . S
C889 C885 1.408 . S
C889 C888 1.404 . S
C889 H901 0.930 . S
C890 C886 1.524 . S
C890 H902 0.956 . S
C890 H903 0.961 . S
C890 H904 0.961 . S
C891 C888 1.539 . S
C891 H905 0.958 . S
C891 H906 0.961 . S
C891 H907 0.960 . S
H892 C876 0.931 . S
H893 C881 0.929 . S
H894 C882 0.960 . S
H895 C882 0.962 . S
H896 C882 0.960 . S
H897 C883 0.961 . S
H898 C883 0.961 . S
H899 C883 0.961 . S
H900 C884 0.931 . S
H901 C889 0.930 . S
H902 C890 0.956 . S
H903 C890 0.961 . S
H904 C890 0.961 . S
H905 C891 0.958 . S
H906 C891 0.961 . S
H907 C891 0.960 . S
C908 C909 1.391 . S
C908 C910 1.394 . S
C908 H924 0.931 . S
C909 C908 1.391 . S
C909 C913 1.376 . S
C910 C908 1.394 . S
C910 C911 1.369 . S
C910 C914 1.531 . S
C911 C910 1.369 . S
C911 C912 1.410 . S
C911 C919 1.503 . S
C912 C911 1.410 . S
C912 C913 1.392 . S
C912 C915 1.511 . S
C913 C909 1.376 . S
C913 C912 1.392 . S
C913 H925 0.929 . S
C914 C910 1.531 . S
C914 H926 0.960 . S
C914 H927 0.962 . S
C914 H928 0.960 . S
C915 C912 1.511 . S
C915 H929 0.961 . S
C915 H930 0.961 . S
C915 H931 0.961 . S
C916 C917 1.370 . S
C916 C918 1.363 . S
C916 H932 0.931 . S
C917 C916 1.370 . S
C917 C921 1.408 . S
C918 C916 1.363 . S
C918 C919 1.370 . S
C918 C922 1.524 . S
C919 C911 1.503 . S
C919 C918 1.370 . S
C919 C920 1.403 . S
C920 C919 1.403 . S
C920 C921 1.404 . S
C920 C923 1.539 . S
C921 C917 1.408 . S
C921 C920 1.404 . S
C921 H933 0.930 . S
C922 C918 1.524 . S
C922 H934 0.956 . S
C922 H935 0.961 . S
C922 H936 0.961 . S
C923 C920 1.539 . S
C923 H937 0.958 . S
C923 H938 0.961 . S
C923 H939 0.960 . S
H924 C908 0.931 . S
H925 C913 0.929 . S
H926 C914 0.960 . S
H927 C914 0.962 . S
H928 C914 0.960 . S
H929 C915 0.961 . S
H930 C915 0.961 . S
H931 C915 0.961 . S
H932 C916 0.931 . S
H933 C921 0.930 . S
H934 C922 0.956 . S
H935 C922 0.961 . S
H936 C922 0.961 . S
H937 C923 0.958 . S
H938 C923 0.961 . S
H939 C923 0.960 . S
C940 C941 1.391 . S
C940 C942 1.394 . S
C940 H956 0.931 . S
C941 C940 1.391 . S
C941 C945 1.376 . S
C942 C940 1.394 . S
C942 C943 1.369 . S
C942 C946 1.531 . S
C943 C942 1.369 . S
C943 C944 1.410 . S
C943 C951 1.503 . S
C944 C943 1.410 . S
C944 C945 1.392 . S
C944 C947 1.511 . S
C945 C941 1.376 . S
C945 C944 1.392 . S
C945 H957 0.929 . S
C946 C942 1.531 . S
C946 H958 0.960 . S
C946 H959 0.962 . S
C946 H960 0.960 . S
C947 C944 1.511 . S
C947 H961 0.961 . S
C947 H962 0.961 . S
C947 H963 0.961 . S
C948 C949 1.370 . S
C948 C950 1.363 . S
C948 H964 0.931 . S
C949 C948 1.370 . S
C949 C953 1.408 . S
C950 C948 1.363 . S
C950 C951 1.370 . S
C950 C954 1.524 . S
C951 C943 1.503 . S
C951 C950 1.370 . S
C951 C952 1.403 . S
C952 C951 1.403 . S
C952 C953 1.404 . S
C952 C955 1.539 . S
C953 C949 1.408 . S
C953 C952 1.404 . S
C953 H965 0.930 . S
C954 C950 1.524 . S
C954 H966 0.956 . S
C954 H967 0.961 . S
C954 H968 0.961 . S
C955 C952 1.539 . S
C955 H969 0.958 . S
C955 H970 0.961 . S
C955 H971 0.960 . S
H956 C940 0.931 . S
H957 C945 0.929 . S
H958 C946 0.960 . S
H959 C946 0.962 . S
H960 C946 0.960 . S
H961 C947 0.961 . S
H962 C947 0.961 . S
H963 C947 0.961 . S
H964 C948 0.931 . S
H965 C953 0.930 . S
H966 C954 0.956 . S
H967 C954 0.961 . S
H968 C954 0.961 . S
H969 C955 0.958 . S
H970 C955 0.961 . S
H971 C955 0.960 . S
C972 C973 1.391 . S
C972 C974 1.394 . S
C972 H988 0.931 . S
C973 C972 1.391 . S
C973 C977 1.376 . S
C974 C972 1.394 . S
C974 C975 1.369 . S
C974 C978 1.531 . S
C975 C974 1.369 . S
C975 C976 1.410 . S
C975 C983 1.503 . S
C976 C975 1.410 . S
C976 C977 1.392 . S
C976 C979 1.511 . S
C977 C973 1.376 . S
C977 C976 1.392 . S
C977 H989 0.929 . S
C978 C974 1.531 . S
C978 H990 0.960 . S
C978 H991 0.962 . S
C978 H992 0.960 . S
C979 C976 1.511 . S
C979 H993 0.961 . S
C979 H994 0.961 . S
C979 H995 0.961 . S
C980 C981 1.370 . S
C980 C982 1.363 . S
C980 H996 0.931 . S
C981 C980 1.370 . S
C981 C985 1.408 . S
C982 C980 1.363 . S
C982 C983 1.370 . S
C982 C986 1.524 . S
C983 C975 1.503 . S
C983 C982 1.370 . S
C983 C984 1.403 . S
C984 C983 1.403 . S
C984 C985 1.404 . S
C984 C987 1.539 . S
C985 C981 1.408 . S
C985 C984 1.404 . S
C985 H997 0.930 . S
C986 C982 1.524 . S
C986 H998 0.956 . S
C986 H999 0.961 . S
C986 H1000 0.961 . S
C987 C984 1.539 . S
C987 H1001 0.958 . S
C987 H1002 0.961 . S
C987 H1003 0.960 . S
H988 C972 0.931 . S
H989 C977 0.929 . S
H990 C978 0.960 . S
H991 C978 0.962 . S
H992 C978 0.960 . S
H993 C979 0.961 . S
H994 C979 0.961 . S
H995 C979 0.961 . S
H996 C980 0.931 . S
H997 C985 0.930 . S
H998 C986 0.956 . S
H999 C986 0.961 . S
H1000 C986 0.961 . S
H1001 C987 0.958 . S
H1002 C987 0.961 . S
H1003 C987 0.960 . S
C1004 C1005 1.391 . S
C1004 C1006 1.394 . S
C1004 H1020 0.931 . S
C1005 C1004 1.391 . S
C1005 C1009 1.376 . S
C1006 C1004 1.394 . S
C1006 C1007 1.369 . S
C1006 C1010 1.531 1_455 S
C1007 C1006 1.369 . S
C1007 C1008 1.410 . S
C1007 C1015 1.503 1_455 S
C1008 C1007 1.410 . S
C1008 C1009 1.392 . S
C1008 C1011 1.511 . S
C1009 C1005 1.376 . S
C1009 C1008 1.392 . S
C1009 H1021 0.929 . S
C1010 C1006 1.531 1_655 S
C1010 H1022 0.960 . S
C1010 H1023 0.962 . S
C1010 H1024 0.960 . S
C1011 C1008 1.511 . S
C1011 H1025 0.961 . S
C1011 H1026 0.961 . S
C1011 H1027 0.961 . S
C1012 C1013 1.370 . S
C1012 C1014 1.363 . S
C1012 H1028 0.931 . S
C1013 C1012 1.370 . S
C1013 C1017 1.408 . S
C1014 C1012 1.363 . S
C1014 C1015 1.370 . S
C1014 C1018 1.524 . S
C1015 C1007 1.503 1_655 S
C1015 C1014 1.370 . S
C1015 C1016 1.403 . S
C1016 C1015 1.403 . S
C1016 C1017 1.404 . S
C1016 C1019 1.539 1_655 S
C1017 C1013 1.408 . S
C1017 C1016 1.404 . S
C1017 H1029 0.930 . S
C1018 C1014 1.524 . S
C1018 H1030 0.956 . S
C1018 H1031 0.961 . S
C1018 H1032 0.961 . S
C1019 C1016 1.539 1_455 S
C1019 H1033 0.958 . S
C1019 H1034 0.961 . S
C1019 H1035 0.960 . S
H1020 C1004 0.931 . S
H1021 C1009 0.929 . S
H1022 C1010 0.960 . S
H1023 C1010 0.962 . S
H1024 C1010 0.960 . S
H1025 C1011 0.961 . S
H1026 C1011 0.961 . S
H1027 C1011 0.961 . S
H1028 C1012 0.931 . S
H1029 C1017 0.930 . S
H1030 C1018 0.956 . S
H1031 C1018 0.961 . S
H1032 C1018 0.961 . S
H1033 C1019 0.958 . S
H1034 C1019 0.961 . S
H1035 C1019 0.960 . S
C1036 C1037 1.391 . S
C1036 C1038 1.394 . S
C1036 H1052 0.931 . S
C1037 C1036 1.391 . S
C1037 C1041 1.376 . S
C1038 C1036 1.394 . S
C1038 C1039 1.369 . S
C1038 C1042 1.531 1_565 S
C1039 C1038 1.369 . S
C1039 C1040 1.410 . S
C1039 C1047 1.503 1_565 S
C1040 C1039 1.410 . S
C1040 C1041 1.392 . S
C1040 C1043 1.511 . S
C1041 C1037 1.376 . S
C1041 C1040 1.392 . S
C1041 H1053 0.929 . S
C1042 C1038 1.531 1_545 S
C1042 H1054 0.960 . S
C1042 H1055 0.962 1_545 S
C1042 H1056 0.960 . S
C1043 C1040 1.511 . S
C1043 H1057 0.961 . S
C1043 H1058 0.961 . S
C1043 H1059 0.961 1_565 S
C1044 C1045 1.370 . S
C1044 C1046 1.363 1_545 S
C1044 H1060 0.931 . S
C1045 C1044 1.370 . S
C1045 C1049 1.408 . S
C1046 C1044 1.363 1_565 S
C1046 C1047 1.370 1_565 S
C1046 C1050 1.524 . S
C1047 C1039 1.503 1_545 S
C1047 C1046 1.370 1_545 S
C1047 C1048 1.403 . S
C1048 C1047 1.403 . S
C1048 C1049 1.404 . S
C1048 C1051 1.539 . S
C1049 C1045 1.408 . S
C1049 C1048 1.404 . S
C1049 H1061 0.930 . S
C1050 C1046 1.524 . S
C1050 H1062 0.956 . S
C1050 H1063 0.961 . S
C1050 H1064 0.961 . S
C1051 C1048 1.539 . S
C1051 H1065 0.958 . S
C1051 H1066 0.961 . S
C1051 H1067 0.960 . S
H1052 C1036 0.931 . S
H1053 C1041 0.929 . S
H1054 C1042 0.960 . S
H1055 C1042 0.962 1_565 S
H1056 C1042 0.960 . S
H1057 C1043 0.961 . S
H1058 C1043 0.961 . S
H1059 C1043 0.961 1_545 S
H1060 C1044 0.931 . S
H1061 C1049 0.930 . S
H1062 C1050 0.956 . S
H1063 C1050 0.961 . S
H1064 C1050 0.961 . S
H1065 C1051 0.958 . S
H1066 C1051 0.961 . S
H1067 C1051 0.960 . S
C1068 C1069 1.391 . S
C1068 C1070 1.394 . S
C1068 H1084 0.931 . S
C1069 C1068 1.391 . S
C1069 C1073 1.376 . S
C1070 C1068 1.394 . S
C1070 C1071 1.369 . S
C1070 C1074 1.531 . S
C1071 C1070 1.369 . S
C1071 C1072 1.410 . S
C1071 C1079 1.503 . S
C1072 C1071 1.410 . S
C1072 C1073 1.392 . S
C1072 C1075 1.511 . S
C1073 C1069 1.376 . S
C1073 C1072 1.392 . S
C1073 H1085 0.929 . S
C1074 C1070 1.531 . S
C1074 H1086 0.960 . S
C1074 H1087 0.962 . S
C1074 H1088 0.960 . S
C1075 C1072 1.511 . S
C1075 H1089 0.961 . S
C1075 H1090 0.961 . S
C1075 H1091 0.961 . S
C1076 C1077 1.370 . S
C1076 C1078 1.363 . S
C1076 H1092 0.931 . S
C1077 C1076 1.370 . S
C1077 C1081 1.408 . S
C1078 C1076 1.363 . S
C1078 C1079 1.370 . S
C1078 C1082 1.524 . S
C1079 C1071 1.503 . S
C1079 C1078 1.370 . S
C1079 C1080 1.403 . S
C1080 C1079 1.403 . S
C1080 C1081 1.404 . S
C1080 C1083 1.539 . S
C1081 C1077 1.408 . S
C1081 C1080 1.404 . S
C1081 H1093 0.930 . S
C1082 C1078 1.524 . S
C1082 H1094 0.956 . S
C1082 H1095 0.961 . S
C1082 H1096 0.961 . S
C1083 C1080 1.539 . S
C1083 H1097 0.958 . S
C1083 H1098 0.961 . S
C1083 H1099 0.960 . S
H1084 C1068 0.931 . S
H1085 C1073 0.929 . S
H1086 C1074 0.960 . S
H1087 C1074 0.962 . S
H1088 C1074 0.960 . S
H1089 C1075 0.961 . S
H1090 C1075 0.961 . S
H1091 C1075 0.961 . S
H1092 C1076 0.931 . S
H1093 C1081 0.930 . S
H1094 C1082 0.956 . S
H1095 C1082 0.961 . S
H1096 C1082 0.961 . S
H1097 C1083 0.958 . S
H1098 C1083 0.961 . S
H1099 C1083 0.960 . S
C1100 C1101 1.391 . S
C1100 C1102 1.394 1_455 S
C1100 H1116 0.931 . S
C1101 C1100 1.391 . S
C1101 C1105 1.376 . S
C1102 C1100 1.394 1_655 S
C1102 C1103 1.369 1_655 S
C1102 C1106 1.531 . S
C1103 C1102 1.369 1_455 S
C1103 C1104 1.410 . S
C1103 C1111 1.503 1_455 S
C1104 C1103 1.410 . S
C1104 C1105 1.392 . S
C1104 C1107 1.511 . S
C1105 C1101 1.376 . S
C1105 C1104 1.392 . S
C1105 H1117 0.929 . S
C1106 C1102 1.531 . S
C1106 H1118 0.960 . S
C1106 H1119 0.962 . S
C1106 H1120 0.960 . S
C1107 C1104 1.511 . S
C1107 H1121 0.961 . S
C1107 H1122 0.961 . S
C1107 H1123 0.961 . S
C1108 C1109 1.370 . S
C1108 C1110 1.363 . S
C1108 H1124 0.931 . S
C1109 C1108 1.370 . S
C1109 C1113 1.408 . S
C1110 C1108 1.363 . S
C1110 C1111 1.370 . S
C1110 C1114 1.524 . S
C1111 C1103 1.503 1_655 S
C1111 C1110 1.370 . S
C1111 C1112 1.403 . S
C1112 C1111 1.403 . S
C1112 C1113 1.404 . S
C1112 C1115 1.539 . S
C1113 C1109 1.408 . S
C1113 C1112 1.404 . S
C1113 H1125 0.930 . S
C1114 C1110 1.524 . S
C1114 H1126 0.956 . S
C1114 H1127 0.961 1_655 S
C1114 H1128 0.961 . S
C1115 C1112 1.539 . S
C1115 H1129 0.958 . S
C1115 H1130 0.961 1_655 S
C1115 H1131 0.960 1_655 S
H1116 C1100 0.931 . S
H1117 C1105 0.929 . S
H1118 C1106 0.960 . S
H1119 C1106 0.962 . S
H1120 C1106 0.960 . S
H1121 C1107 0.961 . S
H1122 C1107 0.961 . S
H1123 C1107 0.961 . S
H1124 C1108 0.931 . S
H1125 C1113 0.930 . S
H1126 C1114 0.956 . S
H1127 C1114 0.961 1_455 S
H1128 C1114 0.961 . S
H1129 C1115 0.958 . S
H1130 C1115 0.961 1_455 S
H1131 C1115 0.960 1_455 S
C1132 C1133 1.391 . S
C1132 C1134 1.394 . S
C1132 H1148 0.931 . S
C1133 C1132 1.391 . S
C1133 C1137 1.376 . S
C1134 C1132 1.394 . S
C1134 C1135 1.369 . S
C1134 C1138 1.531 1_554 S
C1135 C1134 1.369 . S
C1135 C1136 1.410 1_565 S
C1135 C1143 1.503 1_564 S
C1136 C1135 1.410 1_545 S
C1136 C1137 1.392 1_545 S
C1136 C1139 1.511 . S
C1137 C1133 1.376 . S
C1137 C1136 1.392 1_565 S
C1137 H1149 0.929 . S
C1138 C1134 1.531 1_556 S
C1138 H1150 0.960 . S
C1138 H1151 0.962 . S
C1138 H1152 0.960 . S
C1139 C1136 1.511 . S
C1139 H1153 0.961 . S
C1139 H1154 0.961 . S
C1139 H1155 0.961 . S
C1140 C1141 1.370 . S
C1140 C1142 1.363 . S
C1140 H1156 0.931 . S
C1141 C1140 1.370 . S
C1141 C1145 1.408 . S
C1142 C1140 1.363 . S
C1142 C1143 1.370 . S
C1142 C1146 1.524 . S
C1143 C1135 1.503 1_546 S
C1143 C1142 1.370 . S
C1143 C1144 1.403 . S
C1144 C1143 1.403 . S
C1144 C1145 1.404 . S
C1144 C1147 1.539 . S
C1145 C1141 1.408 . S
C1145 C1144 1.404 . S
C1145 H1157 0.930 . S
C1146 C1142 1.524 . S
C1146 H1158 0.956 1_545 S
C1146 H1159 0.950 1_556 S
C1146 H1160 0.961 . S
C1147 C1144 1.539 . S
C1147 H1161 0.955 1_545 S
C1147 H1162 0.961 . S
C1147 H1163 0.960 1_556 S
H1148 C1132 0.931 . S
H1149 C1137 0.929 . S
H1150 C1138 0.960 . S
H1151 C1138 0.962 . S
H1152 C1138 0.960 . S
H1153 C1139 0.961 . S
H1154 C1139 0.961 . S
H1155 C1139 0.961 . S
H1156 C1140 0.931 . S
H1157 C1145 0.930 . S
H1158 C1146 0.956 1_565 S
H1159 C1146 0.950 1_554 S
H1160 C1146 0.961 . S
H1161 C1147 0.955 1_565 S
H1162 C1147 0.961 . S
H1163 C1147 0.960 1_554 S
C1164 C1165 1.391 . S
C1164 C1166 1.394 . S
C1164 H1180 0.931 . S
C1165 C1164 1.391 . S
C1165 C1169 1.376 . S
C1166 C1164 1.394 . S
C1166 C1167 1.369 . S
C1166 C1170 1.531 . S
C1167 C1166 1.369 . S
C1167 C1168 1.410 . S
C1167 C1175 1.503 . S
C1168 C1167 1.410 . S
C1168 C1169 1.392 . S
C1168 C1171 1.511 . S
C1169 C1165 1.376 . S
C1169 C1168 1.392 . S
C1169 H1181 0.929 . S
C1170 C1166 1.531 . S
C1170 H1182 0.960 . S
C1170 H1183 0.962 . S
C1170 H1184 0.960 . S
C1171 C1168 1.511 . S
C1171 H1185 0.961 . S
C1171 H1186 0.961 . S
C1171 H1187 0.961 . S
C1172 C1173 1.370 . S
C1172 C1174 1.363 . S
C1172 H1188 0.931 . S
C1173 C1172 1.370 . S
C1173 C1177 1.408 . S
C1174 C1172 1.363 . S
C1174 C1175 1.370 . S
C1174 C1178 1.524 . S
C1175 C1167 1.503 . S
C1175 C1174 1.370 . S
C1175 C1176 1.403 . S
C1176 C1175 1.403 . S
C1176 C1177 1.404 . S
C1176 C1179 1.539 . S
C1177 C1173 1.408 . S
C1177 C1176 1.404 . S
C1177 H1189 0.930 . S
C1178 C1174 1.524 . S
C1178 H1190 0.956 . S
C1178 H1191 0.961 . S
C1178 H1192 0.961 . S
C1179 C1176 1.539 . S
C1179 H1193 0.958 . S
C1179 H1194 0.961 . S
C1179 H1195 0.960 . S
H1180 C1164 0.931 . S
H1181 C1169 0.929 . S
H1182 C1170 0.960 . S
H1183 C1170 0.962 . S
H1184 C1170 0.960 . S
H1185 C1171 0.961 . S
H1186 C1171 0.961 . S
H1187 C1171 0.961 . S
H1188 C1172 0.931 . S
H1189 C1177 0.930 . S
H1190 C1178 0.956 . S
H1191 C1178 0.961 . S
H1192 C1178 0.961 . S
H1193 C1179 0.958 . S
H1194 C1179 0.961 . S
H1195 C1179 0.960 . S
C1196 C1197 1.391 . S
C1196 C1198 1.394 . S
C1196 H1212 0.931 . S
C1197 C1196 1.391 . S
C1197 C1201 1.376 . S
C1198 C1196 1.394 . S
C1198 C1199 1.369 . S
C1198 C1202 1.531 . S
C1199 C1198 1.369 . S
C1199 C1200 1.410 . S
C1199 C1207 1.503 . S
C1200 C1199 1.410 . S
C1200 C1201 1.392 . S
C1200 C1203 1.511 . S
C1201 C1197 1.376 . S
C1201 C1200 1.392 . S
C1201 H1213 0.929 . S
C1202 C1198 1.531 . S
C1202 H1214 0.960 . S
C1202 H1215 0.962 . S
C1202 H1216 0.960 . S
C1203 C1200 1.511 . S
C1203 H1217 0.961 . S
C1203 H1218 0.961 . S
C1203 H1219 0.961 . S
C1204 C1205 1.370 . S
C1204 C1206 1.363 . S
C1204 H1220 0.931 . S
C1205 C1204 1.370 . S
C1205 C1209 1.408 . S
C1206 C1204 1.363 . S
C1206 C1207 1.370 . S
C1206 C1210 1.524 . S
C1207 C1199 1.503 . S
C1207 C1206 1.370 . S
C1207 C1208 1.403 . S
C1208 C1207 1.403 . S
C1208 C1209 1.404 . S
C1208 C1211 1.539 . S
C1209 C1205 1.408 . S
C1209 C1208 1.404 . S
C1209 H1221 0.930 . S
C1210 C1206 1.524 . S
C1210 H1222 0.956 . S
C1210 H1223 0.961 . S
C1210 H1224 0.961 . S
C1211 C1208 1.539 . S
C1211 H1225 0.958 . S
C1211 H1226 0.961 . S
C1211 H1227 0.960 . S
H1212 C1196 0.931 . S
H1213 C1201 0.929 . S
H1214 C1202 0.960 . S
H1215 C1202 0.962 . S
H1216 C1202 0.960 . S
H1217 C1203 0.961 . S
H1218 C1203 0.961 . S
H1219 C1203 0.961 . S
H1220 C1204 0.931 . S
H1221 C1209 0.930 . S
H1222 C1210 0.956 . S
H1223 C1210 0.961 . S
H1224 C1210 0.961 . S
H1225 C1211 0.958 . S
H1226 C1211 0.961 . S
H1227 C1211 0.960 . S
C1228 C1229 1.391 . S
C1228 C1230 1.394 . S
C1228 H1244 0.931 . S
C1229 C1228 1.391 . S
C1229 C1233 1.376 . S
C1230 C1228 1.394 . S
C1230 C1231 1.369 . S
C1230 C1234 1.531 . S
C1231 C1230 1.369 . S
C1231 C1232 1.410 . S
C1231 C1239 1.503 . S
C1232 C1231 1.410 . S
C1232 C1233 1.392 . S
C1232 C1235 1.511 . S
C1233 C1229 1.376 . S
C1233 C1232 1.392 . S
C1233 H1245 0.929 . S
C1234 C1230 1.531 . S
C1234 H1246 0.960 . S
C1234 H1247 0.962 . S
C1234 H1248 0.960 . S
C1235 C1232 1.511 . S
C1235 H1249 0.961 . S
C1235 H1250 0.961 . S
C1235 H1251 0.961 . S
C1236 C1237 1.370 . S
C1236 C1238 1.363 . S
C1236 H1252 0.931 . S
C1237 C1236 1.370 . S
C1237 C1241 1.408 . S
C1238 C1236 1.363 . S
C1238 C1239 1.370 . S
C1238 C1242 1.524 . S
C1239 C1231 1.503 . S
C1239 C1238 1.370 . S
C1239 C1240 1.403 . S
C1240 C1239 1.403 . S
C1240 C1241 1.404 . S
C1240 C1243 1.539 . S
C1241 C1237 1.408 . S
C1241 C1240 1.404 . S
C1241 H1253 0.930 . S
C1242 C1238 1.524 . S
C1242 H1254 0.956 . S
C1242 H1255 0.961 . S
C1242 H1256 0.961 . S
C1243 C1240 1.539 . S
C1243 H1257 0.958 . S
C1243 H1258 0.961 . S
C1243 H1259 0.960 . S
H1244 C1228 0.931 . S
H1245 C1233 0.929 . S
H1246 C1234 0.960 . S
H1247 C1234 0.962 . S
H1248 C1234 0.960 . S
H1249 C1235 0.961 . S
H1250 C1235 0.961 . S
H1251 C1235 0.961 . S
H1252 C1236 0.931 . S
H1253 C1241 0.930 . S
H1254 C1242 0.956 . S
H1255 C1242 0.961 . S
H1256 C1242 0.961 . S
H1257 C1243 0.958 . S
H1258 C1243 0.961 . S
H1259 C1243 0.960 . S
C1260 C1261 1.391 . S
C1260 C1262 1.394 . S
C1260 H1276 0.931 . S
C1261 C1260 1.391 . S
C1261 C1265 1.376 . S
C1262 C1260 1.394 . S
C1262 C1263 1.369 . S
C1262 C1266 1.531 . S
C1263 C1262 1.369 . S
C1263 C1264 1.410 . S
C1263 C1271 1.503 . S
C1264 C1263 1.410 . S
C1264 C1265 1.392 . S
C1264 C1267 1.511 . S
C1265 C1261 1.376 . S
C1265 C1264 1.392 . S
C1265 H1277 0.929 . S
C1266 C1262 1.531 . S
C1266 H1278 0.960 . S
C1266 H1279 0.962 . S
C1266 H1280 0.960 . S
C1267 C1264 1.511 . S
C1267 H1281 0.961 . S
C1267 H1282 0.961 . S
C1267 H1283 0.961 . S
C1268 C1269 1.370 . S
C1268 C1270 1.363 . S
C1268 H1284 0.931 . S
C1269 C1268 1.370 . S
C1269 C1273 1.408 . S
C1270 C1268 1.363 . S
C1270 C1271 1.370 . S
C1270 C1274 1.524 . S
C1271 C1263 1.503 . S
C1271 C1270 1.370 . S
C1271 C1272 1.403 . S
C1272 C1271 1.403 . S
C1272 C1273 1.404 . S
C1272 C1275 1.539 . S
C1273 C1269 1.408 . S
C1273 C1272 1.404 . S
C1273 H1285 0.930 . S
C1274 C1270 1.524 . S
C1274 H1286 0.956 . S
C1274 H1287 0.961 . S
C1274 H1288 0.961 . S
C1275 C1272 1.539 . S
C1275 H1289 0.958 . S
C1275 H1290 0.961 . S
C1275 H1291 0.960 . S
H1276 C1260 0.931 . S
H1277 C1265 0.929 . S
H1278 C1266 0.960 . S
H1279 C1266 0.962 . S
H1280 C1266 0.960 . S
H1281 C1267 0.961 . S
H1282 C1267 0.961 . S
H1283 C1267 0.961 . S
H1284 C1268 0.931 . S
H1285 C1273 0.930 . S
H1286 C1274 0.956 . S
H1287 C1274 0.961 . S
H1288 C1274 0.961 . S
H1289 C1275 0.958 . S
H1290 C1275 0.961 . S
H1291 C1275 0.960 . S
C1292 C1293 1.391 . S
C1292 C1294 1.394 . S
C1292 H1308 0.931 . S
C1293 C1292 1.391 . S
C1293 C1297 1.376 . S
C1294 C1292 1.394 . S
C1294 C1295 1.369 . S
C1294 C1298 1.531 . S
C1295 C1294 1.369 . S
C1295 C1296 1.410 . S
C1295 C1303 1.503 . S
C1296 C1295 1.410 . S
C1296 C1297 1.392 . S
C1296 C1299 1.511 . S
C1297 C1293 1.376 . S
C1297 C1296 1.392 . S
C1297 H1309 0.929 . S
C1298 C1294 1.531 . S
C1298 H1310 0.960 . S
C1298 H1311 0.962 . S
C1298 H1312 0.960 . S
C1299 C1296 1.511 . S
C1299 H1313 0.961 . S
C1299 H1314 0.961 . S
C1299 H1315 0.961 . S
C1300 C1301 1.370 . S
C1300 C1302 1.363 . S
C1300 H1316 0.931 . S
C1301 C1300 1.370 . S
C1301 C1305 1.408 . S
C1302 C1300 1.363 . S
C1302 C1303 1.370 . S
C1302 C1306 1.524 . S
C1303 C1295 1.503 . S
C1303 C1302 1.370 . S
C1303 C1304 1.403 . S
C1304 C1303 1.403 . S
C1304 C1305 1.404 . S
C1304 C1307 1.539 . S
C1305 C1301 1.408 . S
C1305 C1304 1.404 . S
C1305 H1317 0.930 . S
C1306 C1302 1.524 . S
C1306 H1318 0.956 . S
C1306 H1319 0.961 . S
C1306 H1320 0.961 . S
C1307 C1304 1.539 . S
C1307 H1321 0.958 . S
C1307 H1322 0.961 . S
C1307 H1323 0.960 . S
H1308 C1292 0.931 . S
H1309 C1297 0.929 . S
H1310 C1298 0.960 . S
H1311 C1298 0.962 . S
H1312 C1298 0.960 . S
H1313 C1299 0.961 . S
H1314 C1299 0.961 . S
H1315 C1299 0.961 . S
H1316 C1300 0.931 . S
H1317 C1305 0.930 . S
H1318 C1306 0.956 . S
H1319 C1306 0.961 . S
H1320 C1306 0.961 . S
H1321 C1307 0.958 . S
H1322 C1307 0.961 . S
H1323 C1307 0.960 . S
C1324 C1325 1.391 . S
C1324 C1326 1.394 . S
C1324 H1340 0.931 . S
C1325 C1324 1.391 . S
C1325 C1329 1.376 . S
C1326 C1324 1.394 . S
C1326 C1327 1.369 . S
C1326 C1330 1.531 . S
C1327 C1326 1.369 . S
C1327 C1328 1.410 . S
C1327 C1335 1.503 . S
C1328 C1327 1.410 . S
C1328 C1329 1.392 . S
C1328 C1331 1.511 . S
C1329 C1325 1.376 . S
C1329 C1328 1.392 . S
C1329 H1341 0.929 . S
C1330 C1326 1.531 . S
C1330 H1342 0.960 . S
C1330 H1343 0.962 . S
C1330 H1344 0.960 . S
C1331 C1328 1.511 . S
C1331 H1345 0.961 . S
C1331 H1346 0.961 . S
C1331 H1347 0.961 . S
C1332 C1333 1.370 . S
C1332 C1334 1.363 . S
C1332 H1348 0.931 . S
C1333 C1332 1.370 . S
C1333 C1337 1.408 . S
C1334 C1332 1.363 . S
C1334 C1335 1.370 . S
C1334 C1338 1.524 . S
C1335 C1327 1.503 . S
C1335 C1334 1.370 . S
C1335 C1336 1.403 . S
C1336 C1335 1.403 . S
C1336 C1337 1.404 . S
C1336 C1339 1.539 . S
C1337 C1333 1.408 . S
C1337 C1336 1.404 . S
C1337 H1349 0.930 . S
C1338 C1334 1.524 . S
C1338 H1350 0.956 . S
C1338 H1351 0.961 . S
C1338 H1352 0.961 . S
C1339 C1336 1.539 . S
C1339 H1353 0.958 . S
C1339 H1354 0.961 . S
C1339 H1355 0.960 . S
H1340 C1324 0.931 . S
H1341 C1329 0.929 . S
H1342 C1330 0.960 . S
H1343 C1330 0.962 . S
H1344 C1330 0.960 . S
H1345 C1331 0.961 . S
H1346 C1331 0.961 . S
H1347 C1331 0.961 . S
H1348 C1332 0.931 . S
H1349 C1337 0.930 . S
H1350 C1338 0.956 . S
H1351 C1338 0.961 . S
H1352 C1338 0.961 . S
H1353 C1339 0.958 . S
H1354 C1339 0.961 . S
H1355 C1339 0.960 . S
C397 C173 1.606 . S
C405 N5 1.722 . S
C429 C8 1.620 . S
C437 N38 1.721 . S
C461 C41 1.614 . S
C469 N71 1.721 . S
C493 N104 1.717 . S
C501 C74 1.639 . S
C525 N137 1.713 . S
C533 C107 1.649 . S
C557 C140 1.616 . S
C565 N170 1.721 . S
C589 C239 1.643 . S
C597 N203 1.720 . S
C621 C272 1.644 . S
C629 N236 1.720 . S
C653 C305 1.630 . S
C661 N269 1.721 . S
C685 C338 1.625 . S
C693 N302 1.721 . S
C717 C371 1.645 . S
C725 N335 1.719 . S
C749 C206 1.620 . S
C757 N368 1.721 . S
C781 N278 1.297 . S
C789 N14 1.289 . S
C813 N47 1.312 . S
C821 N311 1.313 . S
C845 N80 1.263 . S
C853 N344 1.287 . S
C877 N113 1.299 . S
C885 N377 1.290 . S
C909 N146 1.263 . S
C917 N212 1.292 . S
C941 N245 1.284 . S
C949 N179 1.286 . S
C973 C314 1.084 . S
C981 C17 1.088 . S
C1005 C347 1.100 . S
C1013 C50 1.095 . S
C1037 C83 1.091 . S
C1045 C380 1.092 . S
C1069 C116 1.099 . S
C1077 C215 1.095 . S
C1101 C149 1.102 . S
C1109 C248 1.096 . S
C1133 C281 1.074 . S
C1141 C182 1.085 . S
C1165 C28 0.952 . S
C1173 C226 0.907 . S
C1197 C259 0.963 . S
C1205 C61 0.903 . S
C1229 C94 0.933 . S
C1237 C292 0.922 . S
C1261 C325 0.884 . S
C1269 C127 0.940 . S
C1293 C358 0.909 . S
C1301 C160 0.931 . S
C1325 C391 0.904 . S
C1333 C193 0.933 . S
