# Generated by pormake.
# Topology vby, (6)-cn, num edge types: 1
# Building blocks:
#     Node 0, Type 0, BuildingBlock: HISSIN_clean_sbu_0, # of connection points: 6
#     Node 1, Type 0, BuildingBlock: HISSIN_clean_sbu_0, # of connection points: 6
#     Node 2, Type 0, BuildingBlock: HISSIN_clean_sbu_0, # of connection points: 6
#     Node 3, Type 0, BuildingBlock: HISSIN_clean_sbu_0, # of connection points: 6
#     Node 4, Type 0, BuildingBlock: HISSIN_clean_sbu_0, # of connection points: 6
#     Node 5, Type 0, BuildingBlock: HISSIN_clean_sbu_0, # of connection points: 6
#     Node 6, Type 0, BuildingBlock: HISSIN_clean_sbu_0, # of connection points: 6
#     Node 7, Type 0, BuildingBlock: HISSIN_clean_sbu_0, # of connection points: 6
#     Edge 8, Type (0, 0), BuildingBlock: UVAHIK_clean_linker_0, # of connection points: 2
#     Edge 9, Type (0, 0), BuildingBlock: UVAHIK_clean_linker_0, # of connection points: 2
#     Edge 10, Type (0, 0), BuildingBlock: UVAHIK_clean_linker_0, # of connection points: 2
#     Edge 11, Type (0, 0), BuildingBlock: UVAHIK_clean_linker_0, # of connection points: 2
#     Edge 12, Type (0, 0), BuildingBlock: UVAHIK_clean_linker_0, # of connection points: 2
#     Edge 13, Type (0, 0), BuildingBlock: UVAHIK_clean_linker_0, # of connection points: 2
#     Edge 14, Type (0, 0), BuildingBlock: UVAHIK_clean_linker_0, # of connection points: 2
#     Edge 15, Type (0, 0), BuildingBlock: UVAHIK_clean_linker_0, # of connection points: 2
#     Edge 16, Type (0, 0), BuildingBlock: UVAHIK_clean_linker_0, # of connection points: 2
#     Edge 17, Type (0, 0), BuildingBlock: UVAHIK_clean_linker_0, # of connection points: 2
#     Edge 18, Type (0, 0), BuildingBlock: UVAHIK_clean_linker_0, # of connection points: 2
#     Edge 19, Type (0, 0), BuildingBlock: UVAHIK_clean_linker_0, # of connection points: 2
#     Edge 20, Type (0, 0), BuildingBlock: UVAHIK_clean_linker_0, # of connection points: 2
#     Edge 21, Type (0, 0), BuildingBlock: UVAHIK_clean_linker_0, # of connection points: 2
#     Edge 22, Type (0, 0), BuildingBlock: UVAHIK_clean_linker_0, # of connection points: 2
#     Edge 23, Type (0, 0), BuildingBlock: UVAHIK_clean_linker_0, # of connection points: 2
#     Edge 24, Type (0, 0), BuildingBlock: UVAHIK_clean_linker_0, # of connection points: 2
#     Edge 25, Type (0, 0), BuildingBlock: UVAHIK_clean_linker_0, # of connection points: 2
#     Edge 26, Type (0, 0), BuildingBlock: UVAHIK_clean_linker_0, # of connection points: 2
#     Edge 27, Type (0, 0), BuildingBlock: UVAHIK_clean_linker_0, # of connection points: 2
#     Edge 28, Type (0, 0), BuildingBlock: UVAHIK_clean_linker_0, # of connection points: 2
#     Edge 29, Type (0, 0), BuildingBlock: UVAHIK_clean_linker_0, # of connection points: 2
#     Edge 30, Type (0, 0), BuildingBlock: UVAHIK_clean_linker_0, # of connection points: 2
#     Edge 31, Type (0, 0), BuildingBlock: UVAHIK_clean_linker_0, # of connection points: 2
# Relax obj value: 0.194
# Max RMSD: 0.213
# Mean RMSD: 0.213
data_MOF--net-vby--node1-HISSIN_clean_sbu_0--edge1-UVAHIK_clean_linker_0
_symmetry_space_group_name_H-M    P1
_symmetry_Int_Tables_number       1
_symmetry_cell_setting            triclinic
loop_
_symmetry_equiv_pos_as_xyz
'x, y, z'
_cell_length_a     20.000583
_cell_length_b     120.42397
_cell_length_c     39.704201
_cell_angle_alpha  90.08161
_cell_angle_beta   90.610125
_cell_angle_gamma 90.238852
loop_
_atom_site_label
_atom_site_type_symbol
_atom_site_fract_x
_atom_site_fract_y
_atom_site_fract_z
_atom_type_partial_charge
Eu0 Eu 0.03938 0.37115 0.01519 0.0
Eu1 Eu 0.04553 0.39867 0.0174 0.0
C2 C 0.04039 0.38561 0.94764 0.0
C3 C 0.07069 0.33942 0.00608 0.0
C4 C 0.03536 0.32997 -0.00463 0.0
C5 C 0.17372 0.3288 0.00548 0.0
C6 C 0.06863 0.31996 -0.00982 0.0
C7 C 0.14031 0.33885 0.01058 0.0
C8 C 0.13804 0.3192 -0.00433 0.0
C9 C 0.03288 0.34946 0.01458 0.0
O10 O 0.93569 0.39479 0.02319 0.0
O11 O 0.93332 0.37649 0.00592 0.0
C12 C 0.9029 0.38573 0.01429 0.0
O13 O 1.00789 0.3768 0.06675 0.0
O14 O 0.08221 0.41435 -0.00254 0.0
O15 O 1.02541 0.41422 0.0439 0.0
O16 O 0.07459 0.39209 0.06849 0.0
C17 C 0.04034 0.3844 0.08405 0.0
O18 O 0.14845 0.37501 0.02453 0.0
O19 O 0.15054 0.39318 0.00686 0.0
O20 O 1.01482 0.39394 0.96456 0.0
O21 O 0.05432 0.3553 0.04025 0.0
O22 O 1.01185 0.35564 -0.0103 0.0
O23 O 0.06733 0.37708 0.96326 0.0
C24 C 1.03048 0.43143 0.01375 0.0
C25 C 1.00935 0.43825 0.04024 0.0
C26 C 1.02549 0.44734 0.97611 0.0
C27 C 0.99812 0.44956 0.03499 0.0
C28 C 0.03667 0.43601 0.98138 0.0
C29 C 1.00818 0.45431 0.00311 0.0
C30 C 0.05647 0.42026 0.02165 0.0
C31 C 0.18123 0.38401 0.01571 0.0
H32 H 0.98157 0.33025 -0.00807 0.0
H33 H 0.22732 0.32851 0.00951 0.0
H34 H 0.0395 0.31271 0.98306 0.0
H35 H 0.16857 0.34608 0.01872 0.0
H36 H 1.00513 0.43497 0.06554 0.0
H37 H 0.03267 0.45072 0.95114 0.0
H38 H 0.98557 0.45468 0.05642 0.0
H39 H 0.05318 0.43099 0.96044 0.0
Eu40 Eu 1.01277 0.62939 0.98206 0.0
Eu41 Eu 1.01874 0.65705 0.98399 0.0
C42 C 1.0176 0.64366 0.9151 0.0
C43 C 1.0277 0.59661 -0.01421 0.0
C44 C 0.0492 0.5898 0.95935 0.0
C45 C 0.03183 0.58067 0.02335 0.0
C46 C 0.06017 0.57848 0.96459 0.0
C47 C 1.02087 0.59201 0.0181 0.0
C48 C 0.04951 0.57372 -0.00361 0.0
C49 C 1.002 0.60779 0.97782 0.0
O50 O 0.90962 0.65315 0.97517 0.0
O51 O 0.90762 0.63489 -0.00788 0.0
C52 C 0.87696 0.6441 0.98366 0.0
O53 O 0.042 0.63406 0.03512 0.0
O54 O 1.00456 0.67285 0.95852 0.0
O55 O 0.04511 0.67263 0.00945 0.0
O56 O 0.99304 0.65126 0.03633 0.0
C57 C 1.01839 0.64258 0.05187 0.0
O58 O 0.12267 0.6333 0.97685 0.0
O59 O 0.12503 0.65175 -0.00739 0.0
O60 O 0.0487 0.65148 0.93216 0.0
O61 O 0.9758 0.6137 0.00188 0.0
O62 O 0.03354 0.61383 0.95575 0.0
O63 O 0.98494 0.63578 0.93063 0.0
C64 C 0.98667 0.6888 -0.00791 0.0
C65 C 1.02136 0.69824 0.00341 0.0
C66 C 0.88403 0.69952 -0.00982 0.0
C67 C 0.98803 0.7083 0.0076 0.0
C68 C 0.91748 0.68943 -0.01392 0.0
C69 C 0.91921 0.70912 0.00045 0.0
C70 C 1.02491 0.67875 -0.01574 0.0
C71 C 0.15538 0.64244 -0.015 0.0
H72 H 0.0539 0.59309 0.9341 0.0
H73 H 1.02419 0.57728 0.04827 0.0
H74 H 0.07301 0.57337 0.94317 0.0
H75 H 1.00407 0.59703 0.039 0.0
H76 H 0.07483 0.69792 0.00801 0.0
H77 H 0.83084 0.69985 -0.01511 0.0
H78 H 1.01679 0.71555 0.01514 0.0
H79 H 0.88968 0.68221 0.97746 0.0
Eu80 Eu 0.04701 0.6284 0.48482 0.0
Eu81 Eu 0.04181 0.65603 0.48387 0.0
C82 C 0.04143 0.64243 0.55221 0.0
C83 C 0.03532 0.59545 0.47968 0.0
C84 C 1.02106 0.58817 0.50622 0.0
C85 C 0.03246 0.57979 0.44082 0.0
C86 C 1.0149 0.57678 0.50037 0.0
C87 C 0.03893 0.59122 0.44671 0.0
C88 C 1.023 0.57243 0.46782 0.0
C89 C 0.05786 0.60682 0.48803 0.0
O90 O 0.15059 0.65225 0.49376 0.0
O91 O 0.15261 0.63406 0.47594 0.0
C92 C 0.18329 0.64325 0.48514 0.0
O93 O 1.01905 0.6332 0.43175 0.0
O94 O 0.04722 0.67157 0.51197 0.0
O95 O 1.02417 0.67185 0.45844 0.0
O96 O 0.06821 0.65047 0.43141 0.0
C97 C 0.04304 0.64181 0.41544 0.0
O98 O 0.93724 0.63235 0.49016 0.0
O99 O 0.93605 0.65066 0.47312 0.0
O100 O 1.01008 0.65012 0.53503 0.0
O101 O 0.08489 0.61288 0.46456 0.0
O102 O 1.02442 0.61264 0.50985 0.0
O103 O 0.07407 0.63456 0.53674 0.0
C104 C 0.07451 0.68801 0.48282 0.0
C105 C 0.12367 0.68952 0.45822 0.0
C106 C 0.09601 0.70663 0.50365 0.0
C107 C 0.15865 0.69961 0.4563 0.0
C108 C 0.06114 0.69662 0.50545 0.0
C109 C 0.14521 0.70827 0.47911 0.0
C110 C 0.03524 0.67771 0.48562 0.0
C111 C 0.90502 0.64142 0.48125 0.0
H112 H 1.01854 0.5912 0.53189 0.0
H113 H 0.03907 0.57666 0.41549 0.0
H114 H 1.00661 0.57132 0.52158 0.0
H115 H 0.0503 0.59663 0.42576 0.0
H116 H 0.13489 0.68294 0.44054 0.0
H117 H 0.08351 0.71318 0.52119 0.0
H118 H 0.19653 0.70061 0.43724 0.0
H119 H 1.02314 0.69562 0.52449 0.0
Eu120 Eu 1.01622 0.37309 0.51594 0.0
Eu121 Eu 1.01213 0.40063 0.51564 0.0
C122 C 1.0195 0.38699 0.58386 0.0
C123 C 0.98169 0.34126 0.5088 0.0
C124 C 0.92234 0.33866 0.52578 0.0
C125 C 0.97675 0.32327 0.48105 0.0
C126 C 0.89126 0.32835 0.52091 0.0
C127 C 1.0079 0.33355 0.48601 0.0
C128 C 0.9189 0.32044 0.499 0.0
C129 C 1.02056 0.3514 0.51678 0.0
O130 O 0.12186 0.39673 0.52182 0.0
O131 O 0.12236 0.37827 0.50635 0.0
C132 C 0.15371 0.38757 0.51384 0.0
O133 O 0.98564 0.37854 0.46369 0.0
O134 O 0.03806 0.4167 0.53836 0.0
O135 O 0.97206 0.41588 0.49454 0.0
O136 O 0.0406 0.39524 0.46342 0.0
C137 C 1.01326 0.38681 0.44727 0.0
O138 O 0.90802 0.37705 0.52542 0.0
O139 O 0.90602 0.39508 0.50646 0.0
O140 O 0.98665 0.39481 0.56789 0.0
O141 O 0.04166 0.35738 0.49161 0.0
O142 O 1.00141 0.35744 0.5422 0.0
O143 O 0.04995 0.37916 0.56705 0.0
C144 C 1.03073 0.43289 0.5038 0.0
C145 C 0.03556 0.43523 0.46922 0.0
C146 C 0.05899 0.4521 0.51641 0.0
C147 C 0.05042 0.44601 0.45836 0.0
C148 C 0.04408 0.44135 0.52722 0.0
C149 C 0.06071 0.45463 0.48185 0.0
C150 C 1.0034 0.42228 0.51611 0.0
C151 C 0.8753 0.38599 0.51612 0.0
H152 H 0.90099 0.34442 0.54361 0.0
H153 H 0.99867 0.31746 0.46354 0.0
H154 H 0.8471 0.32641 0.53535 0.0
H155 H 0.05369 0.33536 0.4727 0.0
H156 H 1.02549 0.42885 0.45057 0.0
H157 H 0.06569 0.45854 0.53523 0.0
H158 H 0.05225 0.44766 0.43157 0.0
H159 H 0.03992 0.43977 0.55398 0.0
Eu160 Eu 0.54242 0.87147 0.01009 0.0
Eu161 Eu 0.54857 0.89901 0.01073 0.0
C162 C 0.54378 0.88546 0.94179 0.0
C163 C 0.5739 0.83968 0.00332 0.0
C164 C 0.53911 0.83022 -0.00781 0.0
C165 C 0.67638 0.82892 0.00558 0.0
C166 C 0.57232 0.82014 -0.01176 0.0
C167 C 0.64305 0.83904 0.00943 0.0
C168 C 0.64111 0.81932 -0.00455 0.0
C169 C 0.5358 0.84979 0.01074 0.0
O170 O 0.43871 0.89518 0.01665 0.0
O171 O 0.43643 0.87679 0.00031 0.0
C172 C 0.40595 0.88607 0.0082 0.0
O173 O 0.51036 0.87745 0.06118 0.0
O174 O 0.58586 0.91449 -0.01054 0.0
O175 O 0.52876 0.9148 0.03575 0.0
O176 O 0.57652 0.89282 0.06248 0.0
C177 C 0.54252 0.88514 0.07825 0.0
O178 O 0.6514 0.87536 0.01962 0.0
O179 O 0.65363 0.89341 0.00088 0.0
O180 O 0.51793 0.89388 0.95818 0.0
O181 O 0.55614 0.85579 0.03627 0.0
O182 O 0.51581 0.8558 -0.01473 0.0
O183 O 0.57098 0.87707 0.95796 0.0
C184 C 0.5349 0.93179 0.00417 0.0
C185 C 0.49148 0.93745 0.02579 0.0
C186 C 0.5513 0.94891 0.97275 0.0
C187 C 0.47947 0.9488 0.02142 0.0
C188 C 0.56326 0.93758 0.9771 0.0
C189 C 0.51101 0.95473 -0.00449 0.0
C190 C 0.56013 0.92063 0.0131 0.0
C191 C 0.68426 0.8843 0.01037 0.0
H192 H 0.48567 0.83056 -0.0125 0.0
H193 H 0.72955 0.82858 0.01091 0.0
H194 H 0.54349 0.81289 0.9808 0.0
H195 H 0.67093 0.84627 0.01791 0.0
H196 H 0.46929 0.93327 0.04708 0.0
H197 H 0.577 0.95323 0.95275 0.0
H198 H 0.44735 0.95301 0.03909 0.0
H199 H 0.5978 0.9335 0.96031 0.0
Eu200 Eu 0.51377 0.1299 0.96616 0.0
Eu201 Eu 0.51996 0.15745 0.9673 0.0
C202 C 0.51974 0.14391 0.89884 0.0
C203 C 0.52725 0.09713 0.97259 0.0
C204 C 0.57057 0.09143 0.951 0.0
C205 C 0.51079 0.08004 0.00418 0.0
C206 C 0.58249 0.08008 0.95546 0.0
C207 C 0.49892 0.09137 -0.00026 0.0
C208 C 0.55097 0.07418 0.98144 0.0
C209 C 0.50213 0.10828 0.96356 0.0
O210 O 0.41097 0.15359 0.95777 0.0
O211 O 0.40866 0.13548 0.976 0.0
C212 C 0.37808 0.14463 0.96676 0.0
O213 O 0.54445 0.13495 0.01877 0.0
O214 O 0.50486 0.17324 0.94188 0.0
O215 O 0.54811 0.17302 -0.00772 0.0
O216 O 0.4912 0.15173 0.01929 0.0
C217 C 0.51846 0.14331 0.03531 0.0
O218 O 0.62366 0.13372 0.96032 0.0
O219 O 0.62596 0.1521 0.9768 0.0
O220 O 0.55167 0.15162 0.916 0.0
O221 O 0.47601 0.11441 -0.01288 0.0
O222 O 0.5339 0.11413 0.94108 0.0
O223 O 0.48595 0.13618 0.9145 0.0
C224 C 0.48916 0.18921 0.97578 0.0
C225 C 0.5247 0.19865 -0.01362 0.0
C226 C 0.38629 0.19987 0.97655 0.0
C227 C 0.49161 0.20868 -0.0084 0.0
C228 C 0.41952 0.18981 0.97141 0.0
C229 C 0.42217 0.20946 -0.01375 0.0
C230 C 0.52674 0.17914 0.96734 0.0
C231 C 0.65642 0.14283 0.96883 0.0
H232 H 0.59273 0.09558 0.92965 0.0
H233 H 0.48509 0.07575 0.02424 0.0
H234 H 0.61453 0.07585 0.93781 0.0
H235 H 0.46446 0.09547 0.01651 0.0
H236 H 0.57851 0.19835 -0.01027 0.0
H237 H 0.33266 0.20017 0.97262 0.0
H238 H 0.52088 0.21592 -0.00135 0.0
H239 H 0.39109 0.18258 0.96337 0.0
Eu240 Eu 0.55006 0.12957 0.46644 0.0
Eu241 Eu 0.54548 0.15709 0.46739 0.0
C242 C 0.54688 0.143 0.53548 0.0
C243 C 0.53475 0.09684 0.47306 0.0
C244 C 0.56329 0.09112 0.50045 0.0
C245 C 0.4779 0.07981 0.45592 0.0
C246 C 0.55076 0.0798 0.50499 0.0
C247 C 0.49049 0.09113 0.45136 0.0
C248 C 0.50969 0.07393 0.48212 0.0
C249 C 0.56049 0.10796 0.46398 0.0
O250 O 0.65385 0.15316 0.45808 0.0
O251 O 0.65558 0.13515 0.47712 0.0
C252 C 0.68649 0.14423 0.46758 0.0
O253 O 0.57711 0.13582 0.41489 0.0
O254 O 0.5199 0.17268 0.4924 0.0
O255 O 0.56032 0.17286 0.44186 0.0
O256 O 0.51225 0.15126 0.41593 0.0
C257 C 0.54349 0.14356 0.39899 0.0
O258 O 0.44017 0.13338 0.46025 0.0
O259 O 0.43923 0.15182 0.47617 0.0
O260 O 0.57464 0.15138 0.51961 0.0
O261 O 0.52846 0.11379 0.44133 0.0
O262 O 0.58766 0.1141 0.48758 0.0
O263 O 0.52026 0.13462 0.51879 0.0
C264 C 0.57991 0.18888 0.47597 0.0
C265 C 0.63955 0.19152 0.45931 0.0
C266 C 0.58455 0.20678 0.50425 0.0
C267 C 0.67063 0.20181 0.46459 0.0
C268 C 0.5534 0.19652 0.49887 0.0
C269 C 0.6427 0.20966 0.4866 0.0
C270 C 0.54106 0.17878 0.46752 0.0
C271 C 0.40811 0.14251 0.46838 0.0
H272 H 0.59843 0.09522 0.51732 0.0
H273 H 0.4452 0.07556 0.43816 0.0
H274 H 0.57666 0.07553 0.52522 0.0
H275 H 0.46812 0.09527 0.42984 0.0
H276 H 0.66115 0.18581 0.4414 0.0
H277 H 0.56239 0.21254 0.52182 0.0
H278 H 0.71501 0.20379 0.45037 0.0
H279 H 0.50738 0.19468 0.51195 0.0
Eu280 Eu 0.51481 0.8714 0.50909 0.0
Eu281 Eu 0.51029 0.89891 0.51101 0.0
C282 C 0.51638 0.88467 0.57804 0.0
C283 C 0.47858 0.83978 0.49872 0.0
C284 C 0.41957 0.83715 0.51595 0.0
C285 C 0.47045 0.82215 0.46894 0.0
C286 C 0.38725 0.827 0.51027 0.0
C287 C 0.50302 0.83228 0.47478 0.0
C288 C 0.41311 0.8193 0.4872 0.0
C289 C 0.51872 0.84971 0.50754 0.0
O290 O 0.62011 0.89508 0.5173 0.0
O291 O 0.62124 0.87669 0.50087 0.0
C292 C 0.65226 0.88597 0.50902 0.0
O293 O 0.48565 0.87739 0.45716 0.0
O294 O 0.53191 0.91461 0.53661 0.0
O295 O 0.47243 0.91445 0.49045 0.0
O296 O 0.54062 0.89408 0.45856 0.0
C297 C 0.51386 0.88579 0.44157 0.0
O298 O 0.40651 0.87529 0.51871 0.0
O299 O 0.40486 0.89334 0.50001 0.0
O300 O 0.48304 0.89248 0.56231 0.0
O301 O 0.53933 0.85596 0.48291 0.0
O302 O 0.50083 0.85546 0.5338 0.0
O303 O 0.54736 0.87697 0.56096 0.0
C304 C 0.52521 0.93167 0.50543 0.0
C305 C 0.4969 0.93744 0.47807 0.0
C306 C 0.58141 0.94871 0.52311 0.0
C307 C 0.50924 0.94877 0.47379 0.0
C308 C 0.569 0.93736 0.52742 0.0
C309 C 0.5499 0.95462 0.4969 0.0
C310 C 0.49967 0.92051 0.5142 0.0
C311 C 0.37389 0.88424 0.50939 0.0
H312 H 0.39933 0.84277 0.53451 0.0
H313 H 0.49187 0.81635 0.45122 0.0
H314 H 0.34263 0.82508 0.52439 0.0
H315 H 0.54868 0.83408 0.46136 0.0
H316 H 0.46209 0.93335 0.46099 0.0
H317 H 0.6138 0.95294 0.54106 0.0
H318 H 0.48354 0.95307 0.45355 0.0
H319 H 0.59115 0.93319 0.54894 0.0
C320 C 0.2909 0.39405 0.01341 0.0
C321 C 0.25536 0.38398 0.0158 0.0
C322 C 0.3607 0.39417 0.01362 0.0
C323 C 0.50674 0.37704 -0.00461 0.0
H324 H 0.60234 0.3984 0.05127 0.0
C325 C 0.79328 0.37564 0.0116 0.0
C326 C 0.82873 0.38573 0.01411 0.0
C327 C 0.72349 0.37548 0.01186 0.0
C328 C 0.57654 0.39249 0.03512 0.0
H329 H 0.2656 0.36611 0.02009 0.0
H330 H 0.388 0.36633 0.0201 0.0
H331 H 0.48047 0.39788 0.05183 0.0
H332 H 0.81828 0.40358 0.01854 0.0
H333 H 0.69624 0.40333 0.01811 0.0
H334 H 0.60236 0.37178 0.97807 0.0
C335 C 0.36144 0.37412 0.0181 0.0
C336 C 0.50666 0.39217 0.03558 0.0
C337 C 0.29141 0.37401 0.01826 0.0
C338 C 0.79257 0.39566 0.01673 0.0
C339 C 0.72253 0.39551 0.01668 0.0
C340 C 0.57659 0.37744 -0.00534 0.0
C341 C 0.39677 0.38422 0.0159 0.0
C342 C 0.47102 0.38443 0.01577 0.0
C343 C 0.68706 0.3854 0.01431 0.0
C344 C 0.6125 0.38514 0.0146 0.0
H345 H 0.26485 0.40189 0.01155 0.0
H346 H 0.3865 0.40206 0.01153 0.0
H347 H 0.48059 0.3711 0.97948 0.0
H348 H 0.8194 0.3678 0.00987 0.0
H349 H 0.69818 0.36752 0.01068 0.0
C350 C 0.26503 0.65252 -0.01265 0.0
C351 C 0.22955 0.64243 -0.01477 0.0
C352 C 0.33482 0.65268 -0.01287 0.0
C353 C 0.48167 0.63558 0.96451 0.0
H354 H 0.57761 0.6571 0.01971 0.0
C355 C 0.76729 0.63406 -0.01392 0.0
C356 C 0.80283 0.64413 0.98362 0.0
C357 C 0.6975 0.63395 -0.0141 0.0
C358 C 0.55146 0.65112 0.00392 0.0
H359 H 0.23996 0.62456 0.98154 0.0
H360 H 0.362 0.6248 0.98201 0.0
H361 H 0.45582 0.65644 0.02106 0.0
H362 H 0.79257 0.662 0.97924 0.0
H363 H 0.6702 0.66178 0.97925 0.0
H364 H 0.57773 0.63015 0.94792 0.0
C365 C 0.33571 0.63263 0.98312 0.0
C366 C 0.48161 0.65074 0.00462 0.0
C367 C 0.26568 0.63248 0.98305 0.0
C368 C 0.76677 0.6541 0.98113 0.0
C369 C 0.69675 0.65399 0.98131 0.0
C370 C 0.55154 0.6359 0.96405 0.0
C371 C 0.37119 0.64274 -0.01489 0.0
C372 C 0.44573 0.64299 -0.01516 0.0
C373 C 0.66142 0.64389 0.98357 0.0
C374 C 0.58718 0.64368 0.98371 0.0
H375 H 0.23896 0.66037 -0.01125 0.0
H376 H 0.36018 0.66064 -0.01197 0.0
H377 H 0.45585 0.62964 0.94848 0.0
H378 H 0.79333 0.62622 -0.01203 0.0
H379 H 0.67171 0.62605 -0.01195 0.0
C380 C 0.794 0.63154 0.48419 0.0
C381 C 0.83082 0.64145 0.4811 0.0
C382 C 0.72398 0.63174 0.48461 0.0
C383 C 0.57859 0.64983 0.46334 0.0
H384 H 0.48287 0.6296 0.52162 0.0
C385 C 0.29388 0.6533 0.48792 0.0
C386 C 0.25746 0.64331 0.48566 0.0
C387 C 0.36394 0.65321 0.48777 0.0
C388 C 0.50893 0.63526 0.50508 0.0
H389 H 0.82259 0.65936 0.47642 0.0
H390 H 0.70146 0.65972 0.478 0.0
H391 H 0.60467 0.62904 0.52019 0.0
H392 H 0.26632 0.62538 0.48199 0.0
H393 H 0.38795 0.62526 0.48201 0.0
H394 H 0.48256 0.65614 0.4487 0.0
C395 C 0.72622 0.65175 0.47922 0.0
C396 C 0.57878 0.63491 0.50411 0.0
C397 C 0.79599 0.65154 0.4785 0.0
C398 C 0.29265 0.63325 0.48366 0.0
C399 C 0.36246 0.63315 0.48389 0.0
C400 C 0.50879 0.65025 0.46457 0.0
C401 C 0.68915 0.64186 0.48224 0.0
C402 C 0.6146 0.64217 0.48315 0.0
C403 C 0.39892 0.64312 0.48581 0.0
C404 C 0.47319 0.64294 0.48534 0.0
H405 H 0.81919 0.62362 0.48612 0.0
H406 H 0.69718 0.62394 0.48646 0.0
H407 H 0.60421 0.65542 0.44643 0.0
H408 H 0.26835 0.6612 0.48946 0.0
H409 H 0.39078 0.66102 0.48951 0.0
C410 C 0.76482 0.37602 0.5197 0.0
C411 C 0.80118 0.38596 0.51637 0.0
C412 C 0.69479 0.37612 0.5195 0.0
C413 C 0.55089 0.39427 0.53517 0.0
H414 H 0.45241 0.3733 0.47935 0.0
C415 C 0.26458 0.39752 0.51542 0.0
C416 C 0.22786 0.38756 0.51369 0.0
C417 C 0.33459 0.39737 0.5155 0.0
C418 C 0.47897 0.37912 0.49547 0.0
H419 H 0.79228 0.40383 0.51061 0.0
H420 H 0.67061 0.40397 0.51053 0.0
H421 H 0.57422 0.37268 0.48101 0.0
H422 H 0.23618 0.3696 0.51113 0.0
H423 H 0.35746 0.36934 0.51215 0.0
H424 H 0.45598 0.40062 0.55013 0.0
C425 C 0.69618 0.39611 0.51331 0.0
C426 C 0.54884 0.37877 0.49634 0.0
C427 C 0.76597 0.396 0.51314 0.0
C428 C 0.26274 0.37746 0.51217 0.0
C429 C 0.33254 0.3773 0.51256 0.0
C430 C 0.481 0.39457 0.53456 0.0
C431 C 0.65979 0.38618 0.5164 0.0
C432 C 0.58554 0.38636 0.51612 0.0
C433 C 0.36951 0.38725 0.51416 0.0
C434 C 0.44406 0.38701 0.51464 0.0
H435 H 0.79036 0.36814 0.5222 0.0
H436 H 0.668 0.36834 0.52216 0.0
H437 H 0.57786 0.40015 0.55095 0.0
H438 H 0.23931 0.40545 0.51646 0.0
H439 H 0.36129 0.40521 0.51625 0.0
C440 C 0.79382 0.89433 0.00762 0.0
C441 C 0.75839 0.88427 0.01047 0.0
C442 C 0.8636 0.89446 0.00754 0.0
C443 C 1.01218 0.87748 0.0298 0.0
H444 H 0.10362 0.89865 0.97268 0.0
C445 C 0.29634 0.87595 0.00606 0.0
C446 C 0.33178 0.88606 0.00807 0.0
C447 C 0.22655 0.87579 0.00656 0.0
C448 C 0.07877 0.89276 -0.01102 0.0
H449 H 0.76877 0.86643 0.01535 0.0
H450 H 0.89083 0.86662 0.01434 0.0
H451 H 0.98181 0.89797 0.97248 0.0
H452 H 0.32129 0.90393 0.0119 0.0
H453 H 0.19895 0.90363 0.0124 0.0
H454 H 0.10958 0.87215 0.04571 0.0
C455 C 0.86457 0.87445 0.01287 0.0
C456 C 1.00889 0.89238 -0.01104 0.0
C457 C 0.79453 0.87433 0.01328 0.0
C458 C 0.2956 0.89601 0.01033 0.0
C459 C 0.22557 0.89585 0.01047 0.0
C460 C 0.08209 0.8778 0.02956 0.0
C461 C 0.90003 0.88453 0.00995 0.0
C462 C 0.97459 0.88476 0.00948 0.0
C463 C 0.19036 0.88572 0.00877 0.0
C464 C 0.11612 0.88546 0.00922 0.0
H465 H 0.7677 0.90217 0.00577 0.0
H466 H 0.88896 0.90241 0.00599 0.0
H467 H 0.98768 0.87164 0.04635 0.0
H468 H 0.32245 0.86811 0.00438 0.0
H469 H 0.20082 0.86787 0.00485 0.0
C470 C 0.2679 0.15463 0.96388 0.0
C471 C 0.30395 0.14466 0.96656 0.0
C472 C 0.19786 0.15451 0.96408 0.0
C473 C 0.05256 0.13641 0.9472 0.0
H474 H 0.95711 0.15693 0.00439 0.0
C475 C 0.76682 0.1329 0.96664 0.0
C476 C 0.73059 0.14284 0.96902 0.0
C477 C 0.83686 0.13307 0.9666 0.0
C478 C 0.98281 0.15123 -0.0121 0.0
H479 H 0.29446 0.12675 0.97119 0.0
H480 H 0.17282 0.12659 0.97127 0.0
H481 H 0.07887 0.15763 0.00275 0.0
H482 H 0.73982 0.16077 0.97278 0.0
H483 H 0.86102 0.16108 0.97184 0.0
H484 H 0.95682 0.13011 0.93185 0.0
C485 C 0.19861 0.13448 0.96899 0.0
C486 C 0.05265 0.15164 -0.01297 0.0
C487 C 0.26841 0.1346 0.96917 0.0
C488 C 0.76598 0.15293 0.97124 0.0
C489 C 0.83577 0.15311 0.9709 0.0
C490 C 0.98269 0.13607 0.94781 0.0
C491 C 0.16253 0.14442 0.96653 0.0
C492 C 0.08828 0.14421 0.96676 0.0
C493 C 0.87226 0.14319 0.96866 0.0
C494 C 0.94682 0.14346 0.96822 0.0
H495 H 0.29372 0.16252 0.96188 0.0
H496 H 0.1713 0.1623 0.96193 0.0
H497 H 0.07867 0.13066 0.93105 0.0
H498 H 0.74117 0.12497 0.96505 0.0
H499 H 0.86321 0.12525 0.96534 0.0
C500 C 0.29904 0.1526 0.47 0.0
C501 C 0.33396 0.1425 0.46848 0.0
C502 C 0.22925 0.15275 0.46982 0.0
C503 C 0.08039 0.13547 0.44864 0.0
H504 H 0.98829 0.15745 0.50232 0.0
C505 C 0.79568 0.1342 0.47093 0.0
C506 C 0.76062 0.14424 0.46753 0.0
C507 C 0.86547 0.13405 0.47068 0.0
C508 C 1.01335 0.15134 0.48696 0.0
H509 H 0.32258 0.12461 0.46583 0.0
H510 H 0.20056 0.12484 0.46639 0.0
H511 H 0.1101 0.15679 0.50352 0.0
H512 H 0.77171 0.16205 0.46141 0.0
H513 H 0.89408 0.1618 0.46135 0.0
H514 H 0.98321 0.12989 0.4327 0.0
C515 C 0.22724 0.13268 0.467 0.0
C516 C 0.08322 0.15096 0.48756 0.0
C517 C 0.29727 0.13254 0.46687 0.0
C518 C 0.79714 0.15417 0.46404 0.0
C519 C 0.86717 0.15404 0.46417 0.0
C520 C 1.0105 0.13578 0.44831 0.0
C521 C 0.1923 0.1428 0.46844 0.0
C522 C 0.11774 0.14304 0.46831 0.0
C523 C 0.90201 0.14396 0.46736 0.0
C524 C 0.97625 0.14374 0.46741 0.0
H525 H 0.32557 0.16046 0.47093 0.0
H526 H 0.20432 0.16071 0.47025 0.0
H527 H 0.10509 0.12939 0.43303 0.0
H528 H 0.76926 0.12638 0.47359 0.0
H529 H 0.89091 0.12618 0.47354 0.0
C530 C 0.76301 0.89597 0.51106 0.0
C531 C 0.72642 0.88599 0.50914 0.0
C532 C 0.83305 0.89584 0.51111 0.0
C533 C 0.97703 0.87794 0.53032 0.0
H534 H 0.07466 0.89787 0.47194 0.0
C535 C 0.26315 0.87433 0.51273 0.0
C536 C 0.29976 0.88425 0.50945 0.0
C537 C 0.19312 0.87448 0.51257 0.0
C538 C 0.04835 0.89234 0.48878 0.0
H539 H 0.73499 0.86804 0.50607 0.0
H540 H 0.85664 0.86786 0.50641 0.0
H541 H 0.9529 0.89854 0.47274 0.0
H542 H 0.29132 0.90213 0.50403 0.0
H543 H 0.17008 0.90241 0.50467 0.0
H544 H 0.07217 0.87185 0.54686 0.0
C545 C 0.83124 0.87577 0.50791 0.0
C546 C 0.9785 0.89273 0.48916 0.0
C547 C 0.76144 0.8759 0.50748 0.0
C548 C 0.26481 0.89431 0.50628 0.0
C549 C 0.19503 0.89447 0.50644 0.0
C550 C 0.04691 0.87762 0.53021 0.0
C551 C 0.86784 0.88573 0.50967 0.0
C552 C 0.94209 0.88551 0.50985 0.0
C553 C 0.15812 0.88456 0.50943 0.0
C554 C 0.08356 0.88481 0.50939 0.0
H555 H 0.73764 0.90388 0.51234 0.0
H556 H 0.86001 0.90364 0.51271 0.0
H557 H 0.95029 0.87235 0.54682 0.0
H558 H 0.28851 0.86643 0.51506 0.0
H559 H 0.16646 0.86667 0.51446 0.0
C560 C 0.99978 0.55607 0.01863 0.0
C561 C 0.05038 0.56144 0.00039 0.0
C562 C 0.99581 0.54449 0.01941 0.0
C563 C 0.09192 0.51885 0.00365 0.0
H564 H 0.91604 0.5056 -0.00798 0.0
C565 C 0.05752 0.47195 0.98064 0.0
C566 C 1.00715 0.46658 -0.00096 0.0
C567 C 0.06141 0.48353 0.9798 0.0
C568 C 0.96541 0.50916 -0.00439 0.0
H569 H 0.13812 0.55881 0.96982 0.0
H570 H 0.13071 0.53859 0.97083 0.0
H571 H 0.9276 0.52575 -0.0058 0.0
H572 H 0.91971 0.4692 0.02982 0.0
H573 H 0.92693 0.48943 0.02868 0.0
H574 H 0.12973 0.50226 0.00504 0.0
C575 C 0.09426 0.54335 -0.01533 0.0
C576 C 0.97206 0.52072 -0.00307 0.0
C577 C 0.0982 0.55494 0.98386 0.0
C578 C 0.95944 0.47308 0.01566 0.0
C579 C 0.96328 0.48467 0.01477 0.0
C580 C 0.08527 0.5073 0.00232 0.0
C581 C 0.04232 0.53799 0.00198 0.0
C582 C 0.03539 0.5257 0.001 0.0
C583 C 1.01502 0.49003 -0.00268 0.0
C584 C 1.02194 0.50232 -0.00174 0.0
H585 H 0.96162 0.56081 0.03131 0.0
H586 H 0.95578 0.54063 0.0334 0.0
H587 H 0.14129 0.52241 0.00725 0.0
H588 H 0.09559 0.46721 0.96788 0.0
H589 H 0.10128 0.48739 0.9657 0.0
C590 C 0.1111 0.47368 0.48799 0.0
C591 C 0.06767 0.46637 0.47079 0.0
C592 C 0.11103 0.48502 0.48068 0.0
C593 C 0.99953 0.50658 0.44633 0.0
H594 H 0.15816 0.52498 0.45577 0.0
C595 C 0.99525 0.55481 0.43621 0.0
C596 C 1.02858 0.56026 0.46289 0.0
C597 C 1.00209 0.54332 0.43183 0.0
C598 C 0.11343 0.51994 0.45303 0.0
H599 H 0.99209 0.46522 0.4313 0.0
H600 H 0.99336 0.48497 0.4179 0.0
H601 H 0.16877 0.50482 0.45632 0.0
H602 H 0.09668 0.55803 0.50519 0.0
H603 H 0.10843 0.53809 0.49761 0.0
H604 H 0.94425 0.52177 0.44352 0.0
C605 C 1.02662 0.48195 0.43751 0.0
C606 C 0.11946 0.50839 0.45343 0.0
C607 C 1.02656 0.4706 0.4449 0.0
C608 C 0.06955 0.55404 0.48471 0.0
C609 C 0.07698 0.54264 0.48011 0.0
C610 C 0.99359 0.51815 0.44569 0.0
C611 C 0.06774 0.48934 0.45585 0.0
C612 C 0.06241 0.50156 0.45097 0.0
C613 C 0.04334 0.53714 0.45369 0.0
C614 C 0.0503 0.52494 0.44993 0.0
H615 H 0.14401 0.47067 0.50778 0.0
H616 H 0.14298 0.49045 0.49556 0.0
H617 H 0.95441 0.5016 0.44476 0.0
H618 H 0.96342 0.55941 0.41901 0.0
H619 H 0.9757 0.53929 0.4112 0.0
C620 C 0.5127 0.97337 0.02387 0.0
C621 C 0.50745 0.96706 -0.0059 0.0
C622 C 0.51627 0.98494 0.0226 0.0
C623 C 0.48398 1.00916 0.96762 0.0
H624 H 0.61459 0.02368 0.02587 0.0
C625 C 0.54905 0.05553 0.95322 0.0
C626 C 0.55439 0.06185 0.98295 0.0
C627 C 0.54535 0.04395 0.95458 0.0
C628 C 0.57743 0.01977 0.00968 0.0
H629 H 0.49937 0.96805 0.93968 0.0
H630 H 0.50649 0.98827 0.93742 0.0
H631 H 0.60079 1.00357 0.02838 0.0
H632 H 0.56248 0.0609 0.03737 0.0
H633 H 0.55513 0.04068 0.03978 0.0
H634 H 0.46063 0.02535 0.94891 0.0
C635 C 0.50746 0.98425 0.96179 0.0
C636 C 0.56942 1.00824 0.01115 0.0
C637 C 0.50393 0.97265 0.96306 0.0
C638 C 0.55785 0.05629 0.01403 0.0
C639 C 0.55419 0.04469 0.01538 0.0
C640 C 0.492 0.02068 0.96615 0.0
C641 C 0.51472 0.99052 -0.00847 0.0
C642 C 0.52257 1.0028 -0.00985 0.0
C643 C 0.54684 0.0384 -0.01432 0.0
C644 C 0.53887 0.02613 -0.01286 0.0
H645 H 0.51641 0.96935 0.0482 0.0
H646 H 0.52085 0.98953 0.046 0.0
H647 H 0.44684 1.00525 0.95143 0.0
H648 H 0.54536 0.05953 0.92887 0.0
H649 H 0.54071 0.03935 0.93121 0.0
C650 C 0.51047 0.05527 0.45401 0.0
C651 C 0.50579 0.06161 0.48368 0.0
C652 C 0.51412 0.04371 0.45545 0.0
C653 C 0.48326 0.0195 0.51042 0.0
H654 H 0.61363 1.00522 0.45331 0.0
C655 C 0.54878 0.97324 0.52525 0.0
C656 C 0.55373 0.96694 0.49552 0.0
C657 C 0.54519 0.98481 0.52394 0.0
C658 C 0.57656 1.00906 0.46917 0.0
H659 H 0.49869 0.06069 0.53806 0.0
H660 H 0.50591 0.04047 0.54062 0.0
H661 H 0.59934 0.0253 0.45058 0.0
H662 H 0.56136 0.96794 0.44117 0.0
H663 H 0.55416 0.98815 0.43883 0.0
H664 H 0.46044 1.00327 0.52899 0.0
C665 C 0.5064 0.04447 0.5162 0.0
C666 C 0.56826 0.02057 0.46758 0.0
C667 C 0.5028 0.05606 0.51477 0.0
C668 C 0.55702 0.97253 0.46451 0.0
C669 C 0.55345 0.98412 0.4632 0.0
C670 C 0.49155 1.008 0.51201 0.0
C671 C 0.51323 0.03818 0.48658 0.0
C672 C 0.52145 0.02592 0.48816 0.0
C673 C 0.5464 0.99038 0.49288 0.0
C674 C 0.53832 1.00264 0.49141 0.0
H675 H 0.51377 0.05927 0.42965 0.0
H676 H 0.51833 0.03909 0.43213 0.0
H677 H 0.4462 0.02335 0.52629 0.0
H678 H 0.54525 0.96922 0.54955 0.0
H679 H 0.5408 0.98939 0.5473 0.0
C680 C 0.2191 0.30496 0.01733 0.0
C681 C 0.17195 0.30828 -0.00712 0.0
C682 C 0.24688 0.29434 0.01633 0.0
C683 C 0.21299 0.26622 0.98321 0.0
H684 H 0.40003 0.26122 0.00459 0.0
C685 C 0.34114 0.22371 0.96472 0.0
C686 C 0.38841 0.22038 -0.0109 0.0
C687 C 0.31343 0.23435 0.96578 0.0
C688 C 0.34748 0.26246 -0.00103 0.0
H689 H 0.1192 0.3032 0.94737 0.0
H690 H 0.16787 0.28467 0.94555 0.0
H691 H 0.35647 0.2801 0.00419 0.0
H692 H 0.44148 0.22545 0.03452 0.0
H693 H 0.39289 0.24399 0.03646 0.0
H694 H 0.20398 0.24858 0.97801 0.0
C695 C 0.18237 0.29021 0.96589 0.0
C696 C 0.32256 0.27329 -0.00132 0.0
C697 C 0.1546 0.30084 0.96689 0.0
C698 C 0.40598 0.22783 0.01507 0.0
C699 C 0.37826 0.23845 0.01613 0.0
C700 C 0.2379 0.25539 0.98351 0.0
C701 C 0.22817 0.28679 -0.00916 0.0
C702 C 0.25503 0.27529 -0.00923 0.0
C703 C 0.33231 0.24189 -0.00875 0.0
C704 C 0.30545 0.25338 -0.0086 0.0
H705 H 0.23283 0.31044 0.03796 0.0
H706 H 0.28145 0.29192 0.03616 0.0
H707 H 0.16044 0.26746 0.97759 0.0
H708 H 0.32726 0.21825 0.9441 0.0
H709 H 0.27876 0.23677 0.946 0.0
C710 C 0.71899 0.80511 0.02005 0.0
C711 C 0.67461 0.80834 -0.00581 0.0
C712 C 0.74614 0.79444 0.02046 0.0
C713 C 0.71383 0.76614 -0.01168 0.0
H714 H 0.89806 0.76099 0.0151 0.0
C715 C 0.84117 0.72333 0.97602 0.0
C716 C 0.88561 0.72009 0.00183 0.0
C717 C 0.81397 0.734 0.97571 0.0
C718 C 0.84625 0.76228 0.00798 0.0
H719 H 0.62621 0.80302 0.94774 0.0
H720 H 0.67385 0.7844 0.94837 0.0
H721 H 0.85588 0.77993 0.01224 0.0
H722 H 0.93408 0.72538 0.0483 0.0
H723 H 0.88634 0.74399 0.04784 0.0
H724 H 0.70419 0.74849 0.98406 0.0
C725 C 0.6866 0.79006 0.96869 0.0
C726 C 0.82213 0.77314 0.00628 0.0
C727 C 0.65944 0.80074 0.96828 0.0
C728 C 0.90079 0.72767 0.0278 0.0
C729 C 0.87357 0.73834 0.02748 0.0
C730 C 0.73795 0.75528 -0.00997 0.0
C731 C 0.72957 0.78674 -0.00498 0.0
C732 C 0.75564 0.7752 -0.00359 0.0
C733 C 0.83054 0.74168 0.0012 0.0
C734 C 0.80444 0.75322 -0.00012 0.0
H735 H 0.73093 0.81071 0.04065 0.0
H736 H 0.77846 0.79211 0.04131 0.0
H737 H 0.66202 0.76743 0.9812 0.0
H738 H 0.82924 0.71776 0.95537 0.0
H739 H 0.78161 0.73635 0.95488 0.0
C740 C 0.20096 0.72453 0.50716 0.0
C741 C 0.18086 0.71909 0.47736 0.0
C742 C 0.22769 0.73523 0.50613 0.0
C743 C 0.3071 0.75609 0.45206 0.0
H744 H 0.23222 0.7768 0.5162 0.0
C745 C 0.37399 0.80303 0.45224 0.0
C746 C 0.38317 0.80804 0.48395 0.0
C747 C 0.34807 0.79224 0.44962 0.0
C748 C 0.25428 0.77112 0.49837 0.0
H749 H 0.17581 0.72047 0.42294 0.0
H750 H 0.22346 0.73922 0.42114 0.0
H751 H 0.19295 0.75767 0.51505 0.0
H752 H 0.37381 0.8056 0.53778 0.0
H753 H 0.32957 0.78683 0.53334 0.0
H754 H 0.36937 0.76952 0.43578 0.0
C755 C 0.21828 0.73515 0.44528 0.0
C756 C 0.23166 0.76015 0.49769 0.0
C757 C 0.19118 0.72441 0.44631 0.0
C758 C 0.36599 0.80206 0.51295 0.0
C759 C 0.34057 0.79128 0.51037 0.0
C760 C 0.33018 0.76708 0.45289 0.0
C761 C 0.2353 0.74075 0.47527 0.0
C762 C 0.25831 0.75248 0.47482 0.0
C763 C 0.3312 0.78623 0.4787 0.0
C764 C 0.30452 0.7747 0.47634 0.0
H765 H 0.19509 0.72056 0.53142 0.0
H766 H 0.24179 0.73925 0.5296 0.0
H767 H 0.32868 0.75034 0.43425 0.0
H768 H 0.38643 0.80748 0.42944 0.0
H769 H 0.34072 0.78866 0.42482 0.0
C770 C 0.82015 0.30743 0.49592 0.0
C771 C 0.88978 0.30909 0.49629 0.0
C772 C 0.79326 0.2967 0.49472 0.0
C773 C 0.83505 0.2677 0.47281 0.0
H774 H 0.68518 0.26046 0.53003 0.0
C775 C 0.74145 0.22265 0.49026 0.0
C776 C 0.67181 0.221 0.48969 0.0
C777 C 0.76836 0.23338 0.49166 0.0
C778 C 0.72663 0.26238 0.51366 0.0
H779 H 0.98567 0.30072 0.4961 0.0
H780 H 0.93884 0.28206 0.49382 0.0
H781 H 0.73067 0.27928 0.53031 0.0
H782 H 0.57594 0.22938 0.48983 0.0
H783 H 0.62283 0.24803 0.49249 0.0
H784 H 0.83102 0.2508 0.45616 0.0
C785 C 0.90497 0.28905 0.49393 0.0
C786 C 0.75261 0.27317 0.51378 0.0
C787 C 0.93182 0.29977 0.49517 0.0
C788 C 0.62979 0.23032 0.4909 0.0
C789 C 0.65666 0.24104 0.49236 0.0
C790 C 0.80908 0.25691 0.4727 0.0
C791 C 0.83541 0.28738 0.49385 0.0
C792 C 0.80713 0.27595 0.49336 0.0
C793 C 0.72624 0.2427 0.49256 0.0
C794 C 0.75456 0.25412 0.49311 0.0
H795 H 0.78637 0.31444 0.49635 0.0
H796 H 0.73942 0.2957 0.49422 0.0
H797 H 0.87648 0.26962 0.45643 0.0
H798 H 0.77522 0.21565 0.48978 0.0
H799 H 0.8222 0.23438 0.49227 0.0
C800 C 1.00301 0.37606 0.1387 0.0
C801 C 0.03757 0.38444 0.12136 0.0
C802 C 0.99968 0.37622 0.17389 0.0
C803 C 1.01546 0.39512 0.24697 0.0
H804 H 0.03825 0.36793 0.29793 0.0
C805 C 0.04581 0.39511 0.39182 0.0
C806 C 1.01414 0.38658 0.40991 0.0
C807 C 0.04761 0.39481 0.35663 0.0
C808 C 0.03091 0.37558 0.28408 0.0
H809 H 0.09605 0.39955 0.12752 0.0
H810 H 0.0905 0.39978 0.18877 0.0
H811 H 0.04344 0.36742 0.2366 0.0
H812 H 0.95899 0.3711 0.40503 0.0
H813 H 0.96137 0.37067 0.3437 0.0
H814 H 1.00273 0.40328 0.29436 0.0
C815 C 0.06536 0.39314 0.17516 0.0
C816 C 0.03397 0.37529 0.2489 0.0
C817 C 0.06889 0.39296 0.14002 0.0
C818 C 0.98401 0.37779 0.39194 0.0
C819 C 0.98573 0.3775 0.35674 0.0
C820 C 1.01225 0.39541 0.28212 0.0
C821 C 1.0306 0.38479 0.19253 0.0
C822 C 1.02652 0.38506 0.22993 0.0
C823 C 1.01769 0.386 0.33863 0.0
C824 C 1.02015 0.38565 0.30115 0.0
H825 H 0.97822 0.36938 0.12513 0.0
H826 H 0.97193 0.36972 0.18647 0.0
H827 H 1.00842 0.40277 0.23309 0.0
H828 H 0.06976 0.40199 0.40481 0.0
H829 H 0.07347 0.40142 0.34356 0.0
C830 C 1.02939 0.63237 0.10668 0.0
C831 C 1.0204 0.64241 0.08919 0.0
C832 C 0.03141 0.63222 0.14192 0.0
C833 C 0.07015 0.64951 0.21532 0.0
H834 H 0.96101 0.62854 0.26459 0.0
C835 C 0.04828 0.65175 0.36009 0.0
C836 C 0.04145 0.64178 0.37811 0.0
C837 C 0.04564 0.65177 0.32487 0.0
C838 C 0.99274 0.63434 0.25133 0.0
H839 H 1.00707 0.66017 0.09501 0.0
H840 H 1.01186 0.65991 0.15654 0.0
H841 H 0.9574 0.62856 0.20319 0.0
H842 H 1.02768 0.62398 0.37326 0.0
H843 H 1.02557 0.62394 0.31194 0.0
H844 H 0.10714 0.65512 0.26311 0.0
C845 C 1.01695 0.65217 0.14292 0.0
C846 C 0.99033 0.63437 0.2161 0.0
C847 C 1.01384 0.6523 0.10771 0.0
C848 C 0.03256 0.63182 0.36013 0.0
C849 C 0.03091 0.63181 0.32489 0.0
C850 C 0.07337 0.64938 0.25053 0.0
C851 C 1.02559 0.64212 0.16038 0.0
C852 C 1.02874 0.64199 0.19775 0.0
C853 C 0.0371 0.6418 0.30672 0.0
C854 C 0.03444 0.64182 0.26909 0.0
H855 H 0.03442 0.6246 0.09318 0.0
H856 H 0.03853 0.62437 0.15474 0.0
H857 H 0.10094 0.65539 0.20178 0.0
H858 H 0.05458 0.65958 0.37319 0.0
H859 H 0.04927 0.65965 0.31196 0.0
C860 C 1.00964 0.63375 0.8598 0.0
C861 C 1.01984 0.64365 0.87788 0.0
C862 C 1.01264 0.63367 0.82464 0.0
C863 C 0.06982 0.65072 0.75154 0.0
H864 H 0.95846 0.63002 0.70101 0.0
C865 C 1.02671 0.65256 0.60673 0.0
C866 C 0.03952 0.64261 0.58943 0.0
C867 C 1.02524 0.65275 0.64194 0.0
C868 C 0.99001 0.6358 0.71487 0.0
H869 H 0.03999 0.66127 0.87337 0.0
H870 H 0.04205 0.66127 0.81205 0.0
H871 H 0.95214 0.63045 0.76225 0.0
H872 H 0.05997 0.62505 0.59538 0.0
H873 H 0.05534 0.62535 0.657 0.0
H874 H 0.10539 0.65631 0.70365 0.0
C875 C 0.03412 0.65346 0.82487 0.0
C876 C 0.98685 0.63602 0.75003 0.0
C877 C 0.03247 0.65349 0.86009 0.0
C878 C 0.05024 0.63284 0.60803 0.0
C879 C 0.04731 0.633 0.64322 0.0
C880 C 0.0719 0.65064 0.71634 0.0
C881 C 1.02455 0.64353 0.80658 0.0
C882 C 1.02705 0.64343 0.76896 0.0
C883 C 0.03509 0.64296 0.66047 0.0
C884 C 0.03234 0.64313 0.69773 0.0
H885 H 1.00052 0.62601 0.87285 0.0
H886 H 1.00654 0.6258 0.81173 0.0
H887 H 0.10261 0.65639 0.76503 0.0
H888 H 1.01853 0.66022 0.59307 0.0
H889 H 1.01544 0.66053 0.6547 0.0
C890 C 0.99193 0.3955 0.63979 0.0
C891 C 1.0221 0.38697 0.62122 0.0
C892 C 0.99423 0.39544 0.67503 0.0
C893 C 1.01891 0.37672 0.74779 0.0
H894 H 0.05307 0.40405 0.79689 0.0
C895 C 0.06769 0.37722 0.89152 0.0
C896 C 0.03894 0.38586 0.91027 0.0
C897 C 0.06592 0.37742 0.8563 0.0
C898 C 0.04268 0.39636 0.7836 0.0
H899 H 0.07855 0.37166 0.62525 0.0
H900 H 0.08281 0.37159 0.6866 0.0
H901 H 0.04915 0.40429 0.73549 0.0
H902 H 0.98562 0.40147 0.9065 0.0
H903 H 0.98184 0.40173 0.84517 0.0
H904 H 1.01214 0.36879 0.79585 0.0
C905 C 0.05676 0.37828 0.67394 0.0
C906 C 0.04048 0.3965 0.74838 0.0
C907 C 0.05465 0.37836 0.63872 0.0
C908 C 1.00848 0.3947 0.89291 0.0
C909 C 1.00664 0.39488 0.85769 0.0
C910 C 1.02098 0.37658 0.78301 0.0
C911 C 1.02655 0.38681 0.69253 0.0
C912 C 1.02865 0.38668 0.73003 0.0
C913 C 0.03527 0.38624 0.83891 0.0
C914 C 0.03297 0.3864 0.80138 0.0
H915 H 0.96635 0.40225 0.62715 0.0
H916 H 0.9698 0.40207 0.68857 0.0
H917 H 1.00863 0.36904 0.73447 0.0
H918 H 0.09179 0.3703 0.90401 0.0
H919 H 0.08931 0.3707 0.84268 0.0
C920 C 0.50573 0.87678 0.13291 0.0
C921 C 0.53995 0.8852 0.11557 0.0
C922 C 0.50294 0.87687 0.16809 0.0
C923 C 0.52006 0.89549 0.24177 0.0
H924 H 0.54246 0.86801 0.29135 0.0
C925 C 0.5479 0.89451 0.38692 0.0
C926 C 0.51567 0.88586 0.40422 0.0
C927 C 0.55055 0.89448 0.35172 0.0
C928 C 0.53528 0.87574 0.2779 0.0
H929 H 0.59821 0.90032 0.12173 0.0
H930 H 0.59361 0.90043 0.18308 0.0
H931 H 0.54784 0.86784 0.23005 0.0
H932 H 0.4604 0.87044 0.39792 0.0
H933 H 0.46426 0.87047 0.33663 0.0
H934 H 0.50724 0.90338 0.28959 0.0
C935 C 0.56836 0.89382 0.16944 0.0
C936 C 0.53843 0.87564 0.24273 0.0
C937 C 0.57133 0.89371 0.13425 0.0
C938 C 0.48585 0.87722 0.38546 0.0
C939 C 0.48842 0.87719 0.35028 0.0
C940 C 0.51677 0.89558 0.27694 0.0
C941 C 0.53412 0.8854 0.18679 0.0
C942 C 0.53087 0.88551 0.22423 0.0
C943 C 0.52097 0.88581 0.33294 0.0
C944 C 0.52434 0.88571 0.29547 0.0
H945 H 0.48086 0.87011 0.11933 0.0
H946 H 0.47548 0.87033 0.18063 0.0
H947 H 0.51304 0.90321 0.22827 0.0
H948 H 0.57164 0.90128 0.40053 0.0
H949 H 0.57678 0.90117 0.33925 0.0
C950 C 0.5512 0.1346 0.09046 0.0
C951 C 0.52001 0.14328 0.07268 0.0
C952 C 0.55325 0.13463 0.12569 0.0
C953 C 0.53807 0.15332 0.19942 0.0
H954 H 0.51258 0.1258 0.24834 0.0
C955 C 0.50725 0.15206 0.34409 0.0
C956 C 0.54073 0.14357 0.36165 0.0
C957 C 0.50453 0.15204 0.30887 0.0
C958 C 0.52049 0.13354 0.23506 0.0
H959 H 0.46606 0.15876 0.07817 0.0
H960 H 0.4689 0.15873 0.13952 0.0
H961 H 0.50777 0.12572 0.18696 0.0
H962 H 0.59769 0.1284 0.35583 0.0
H963 H 0.5932 0.12841 0.29446 0.0
H964 H 0.55055 0.16113 0.24756 0.0
C965 C 0.4927 0.15198 0.12623 0.0
C966 C 0.51778 0.13349 0.19984 0.0
C967 C 0.49071 0.15196 0.091 0.0
C968 C 0.57138 0.13506 0.34315 0.0
C969 C 0.56847 0.13503 0.30794 0.0
C970 C 0.54063 0.15337 0.23463 0.0
C971 C 0.52409 0.14332 0.14403 0.0
C972 C 0.52661 0.14338 0.18156 0.0
C973 C 0.53502 0.14352 0.29037 0.0
C974 C 0.53197 0.14348 0.25289 0.0
H975 H 0.57451 0.1278 0.0772 0.0
H976 H 0.57864 0.1279 0.13853 0.0
H977 H 0.54618 0.16105 0.18617 0.0
H978 H 0.48298 0.15873 0.35752 0.0
H979 H 0.47769 0.15863 0.29614 0.0
C980 C 0.55628 0.15235 0.84423 0.0
C981 C 0.52231 0.14389 0.86153 0.0
C982 C 0.55914 0.15228 0.80904 0.0
C983 C 0.5428 0.13363 0.73539 0.0
H984 H 0.51925 0.16104 0.68563 0.0
C985 C 0.51355 0.13438 0.59039 0.0
C986 C 0.54532 0.14302 0.57284 0.0
C987 C 0.51126 0.13448 0.62559 0.0
C988 C 0.52677 0.15333 0.69913 0.0
H989 H 0.46451 0.12872 0.85527 0.0
H990 H 0.46922 0.12864 0.79395 0.0
H991 H 0.51417 0.16125 0.74695 0.0
H992 H 0.6001 0.15851 0.57871 0.0
H993 H 0.59685 0.1586 0.64003 0.0
H994 H 0.55564 0.1257 0.68762 0.0
C995 C 0.49424 0.13527 0.80762 0.0
C996 C 0.52379 0.15345 0.73431 0.0
C997 C 0.4912 0.13536 0.8428 0.0
C998 C 0.57501 0.15173 0.59136 0.0
C999 C 0.57278 0.15182 0.62656 0.0
C1000 C 0.54593 0.1335 0.70022 0.0
C1001 C 0.52828 0.14372 0.79031 0.0
C1002 C 0.53167 0.1436 0.75287 0.0
C1003 C 0.54076 0.14321 0.64414 0.0
C1004 C 0.53787 0.14335 0.68162 0.0
H1005 H 0.58092 0.15904 0.85784 0.0
H1006 H 0.58642 0.15884 0.79652 0.0
H1007 H 0.55012 0.12592 0.74893 0.0
H1008 H 0.48992 0.12756 0.57697 0.0
H1009 H 0.48538 0.12779 0.63824 0.0
C1010 C 0.48892 0.89315 0.63395 0.0
C1011 C 0.51927 0.88463 0.6154 0.0
C1012 C 0.49218 0.8932 0.66915 0.0
C1013 C 0.52071 0.87496 0.74262 0.0
H1014 H 0.55413 0.90269 0.78974 0.0
C1015 C 0.57119 0.87667 0.88625 0.0
C1016 C 0.5421 0.88541 0.9044 0.0
C1017 C 0.56907 0.87656 0.85102 0.0
C1018 C 0.54397 0.89489 0.77702 0.0
H1019 H 0.57674 0.86944 0.61944 0.0
H1020 H 0.58261 0.86956 0.68085 0.0
H1021 H 0.5489 0.90248 0.72838 0.0
H1022 H 0.48782 0.9009 0.89958 0.0
H1023 H 0.48345 0.90064 0.83825 0.0
H1024 H 0.51544 0.86737 0.79124 0.0
C1025 C 0.55577 0.87616 0.66814 0.0
C1026 C 0.54102 0.89477 0.74181 0.0
C1027 C 0.5527 0.87612 0.63291 0.0
C1028 C 0.51097 0.89405 0.88645 0.0
C1029 C 0.50879 0.89394 0.85122 0.0
C1030 C 0.52353 0.87507 0.77784 0.0
C1031 C 0.52569 0.88471 0.68669 0.0
C1032 C 0.52927 0.88481 0.72417 0.0
C1033 C 0.53776 0.88519 0.83304 0.0
C1034 C 0.53513 0.88505 0.79551 0.0
H1035 H 0.46264 0.89983 0.62132 0.0
H1036 H 0.46771 0.89984 0.68265 0.0
H1037 H 0.51062 0.86716 0.72985 0.0
H1038 H 0.59579 0.86988 0.8992 0.0
H1039 H 0.59272 0.86977 0.83786 0.0
loop_
_geom_bond_atom_site_label_1
_geom_bond_atom_site_label_2
_geom_bond_distance
_geom_bond_site_symmetry_2
_ccdc_geom_bond_type
Eu0 C9 2.828 . S
Eu0 O11 2.392 1_455 S
Eu0 O13 2.418 . S
Eu0 O18 2.373 . S
Eu0 O21 2.488 . S
Eu0 O22 2.471 1_554 S
Eu0 O23 2.349 1_554 S
Eu1 O10 2.372 1_454 S
Eu1 O14 2.480 1_554 S
Eu1 O15 2.486 . S
Eu1 O16 2.369 . S
Eu1 O19 2.392 . S
Eu1 O20 2.393 1_554 S
Eu1 C30 2.832 . S
C2 O20 1.244 . S
C2 O23 1.265 . S
C3 C4 1.379 1_554 S
C3 C7 1.373 . S
C3 C9 1.505 . S
C4 C3 1.379 1_556 S
C4 C6 1.369 . S
C4 H32 0.930 . S
C5 C7 1.383 . S
C5 C8 1.382 1_554 S
C5 H33 0.930 . S
C6 C4 1.369 . S
C6 C8 1.392 . S
C6 H34 0.930 . S
C7 C3 1.373 . S
C7 C5 1.383 . S
C7 H35 0.931 . S
C8 C5 1.382 1_556 S
C8 C6 1.392 . S
C9 Eu0 2.828 . S
C9 C3 1.505 . S
C9 O21 1.249 . S
C9 O22 1.244 1_554 S
O10 Eu1 2.372 1_656 S
O10 C12 1.258 1_556 S
O11 Eu0 2.392 1_655 S
O11 C12 1.242 . S
C12 O10 1.258 1_554 S
C12 O11 1.242 . S
O13 Eu0 2.418 . S
O13 C17 1.244 . S
O14 Eu1 2.480 1_556 S
O14 C30 1.249 1_556 S
O15 Eu1 2.486 . S
O15 C30 1.244 . S
O16 Eu1 2.369 . S
O16 C17 1.265 . S
C17 O13 1.244 . S
C17 O16 1.265 . S
O18 Eu0 2.373 . S
O18 C31 1.258 . S
O19 Eu1 2.392 . S
O19 C31 1.242 . S
O20 Eu1 2.393 1_556 S
O20 C2 1.244 . S
O21 Eu0 2.488 . S
O21 C9 1.249 . S
O22 Eu0 2.471 1_556 S
O22 C9 1.244 1_556 S
O23 Eu0 2.349 1_556 S
O23 C2 1.265 . S
C24 C25 1.379 . S
C24 C28 1.373 1_554 S
C24 C30 1.505 1_655 S
C25 C24 1.379 . S
C25 C27 1.369 . S
C25 H36 0.930 . S
C26 C28 1.383 . S
C26 C29 1.382 1_556 S
C26 H37 0.930 . S
C27 C25 1.369 . S
C27 C29 1.392 . S
C27 H38 0.930 . S
C28 C24 1.373 1_556 S
C28 C26 1.383 . S
C28 H39 0.931 . S
C29 C26 1.382 1_554 S
C29 C27 1.392 . S
C30 Eu1 2.832 . S
C30 O14 1.249 1_554 S
C30 O15 1.244 . S
C30 C24 1.505 1_455 S
C31 O18 1.258 . S
C31 O19 1.242 . S
H32 C4 0.930 . S
H33 C5 0.930 . S
H34 C6 0.930 . S
H35 C7 0.931 . S
H36 C25 0.930 . S
H37 C26 0.930 . S
H38 C27 0.930 . S
H39 C28 0.931 . S
Eu40 C49 2.828 . S
Eu40 O51 2.392 . S
Eu40 O53 2.418 . S
Eu40 O58 2.373 1_655 S
Eu40 O61 2.488 . S
Eu40 O62 2.471 1_554 S
Eu40 O63 2.349 1_554 S
Eu41 O50 2.373 1_554 S
Eu41 O54 2.488 1_554 S
Eu41 O55 2.471 . S
Eu41 O56 2.349 . S
Eu41 O59 2.393 1_655 S
Eu41 O60 2.418 1_554 S
Eu41 C70 2.828 . S
C42 O60 1.244 . S
C42 O63 1.265 . S
C43 C44 1.379 1_554 S
C43 C47 1.373 . S
C43 C49 1.505 1_455 S
C44 C43 1.379 1_556 S
C44 C46 1.369 . S
C44 H72 0.930 . S
C45 C47 1.383 . S
C45 C48 1.382 1_554 S
C45 H73 0.930 . S
C46 C44 1.369 . S
C46 C48 1.392 . S
C46 H74 0.930 . S
C47 C43 1.373 . S
C47 C45 1.383 . S
C47 H75 0.931 . S
C48 C45 1.382 1_556 S
C48 C46 1.392 . S
C49 Eu40 2.828 . S
C49 C43 1.505 1_655 S
C49 O61 1.249 . S
C49 O62 1.244 1_554 S
O50 Eu41 2.373 1_556 S
O50 C52 1.258 1_556 S
O51 Eu40 2.392 . S
O51 C52 1.242 . S
C52 O50 1.258 1_554 S
C52 O51 1.242 . S
O53 Eu40 2.418 . S
O53 C57 1.244 . S
O54 Eu41 2.488 1_556 S
O54 C70 1.249 1_556 S
O55 Eu41 2.471 . S
O55 C70 1.244 . S
O56 Eu41 2.349 . S
O56 C57 1.265 . S
C57 O53 1.244 . S
C57 O56 1.265 . S
O58 Eu40 2.373 1_455 S
O58 C71 1.258 . S
O59 Eu41 2.393 1_455 S
O59 C71 1.250 . S
O60 Eu41 2.418 1_556 S
O60 C42 1.244 . S
O61 Eu40 2.488 . S
O61 C49 1.249 . S
O62 Eu40 2.471 1_556 S
O62 C49 1.244 1_556 S
O63 Eu40 2.349 1_556 S
O63 C42 1.265 . S
C64 C65 1.379 . S
C64 C68 1.373 1_554 S
C64 C70 1.505 . S
C65 C64 1.379 . S
C65 C67 1.369 . S
C65 H76 0.930 . S
C66 C68 1.383 . S
C66 C69 1.382 1_556 S
C66 H77 0.930 . S
C67 C65 1.369 . S
C67 C69 1.392 . S
C67 H78 0.930 . S
C68 C64 1.373 1_556 S
C68 C66 1.383 . S
C68 H79 0.931 . S
C69 C66 1.382 1_554 S
C69 C67 1.392 . S
C70 Eu41 2.828 . S
C70 O54 1.249 1_554 S
C70 O55 1.244 . S
C70 C64 1.505 . S
C71 O58 1.258 . S
C71 O59 1.250 . S
H72 C44 0.930 . S
H73 C45 0.930 . S
H74 C46 0.930 . S
H75 C47 0.931 . S
H76 C65 0.930 . S
H77 C66 0.930 . S
H78 C67 0.930 . S
H79 C68 0.931 . S
Eu80 C89 2.828 . S
Eu80 O91 2.392 . S
Eu80 O93 2.418 . S
Eu80 O98 2.373 1_455 S
Eu80 O101 2.488 . S
Eu80 O102 2.471 . S
Eu80 O103 2.349 . S
Eu81 O90 2.373 . S
Eu81 O94 2.488 . S
Eu81 O95 2.471 . S
Eu81 O96 2.349 . S
Eu81 O99 2.392 1_455 S
Eu81 O100 2.418 . S
Eu81 C110 2.828 . S
C82 O100 1.244 . S
C82 O103 1.265 . S
C83 C84 1.379 . S
C83 C87 1.373 . S
C83 C89 1.505 1_655 S
C84 C83 1.379 . S
C84 C86 1.369 . S
C84 H112 0.930 . S
C85 C87 1.383 . S
C85 C88 1.382 . S
C85 H113 0.930 . S
C86 C84 1.369 . S
C86 C88 1.392 . S
C86 H114 0.930 . S
C87 C83 1.373 . S
C87 C85 1.383 . S
C87 H115 0.931 . S
C88 C85 1.382 . S
C88 C86 1.392 . S
C89 Eu80 2.828 . S
C89 C83 1.505 1_455 S
C89 O101 1.249 . S
C89 O102 1.244 . S
O90 Eu81 2.373 . S
O90 C92 1.258 . S
O91 Eu80 2.392 . S
O91 C92 1.242 . S
C92 O90 1.258 . S
C92 O91 1.242 . S
O93 Eu80 2.418 . S
O93 C97 1.244 . S
O94 Eu81 2.488 . S
O94 C110 1.249 . S
O95 Eu81 2.471 . S
O95 C110 1.244 . S
O96 Eu81 2.349 . S
O96 C97 1.265 . S
C97 O93 1.244 . S
C97 O96 1.265 . S
O98 Eu80 2.373 1_655 S
O98 C111 1.258 . S
O99 Eu81 2.392 1_655 S
O99 C111 1.242 . S
O100 Eu81 2.418 . S
O100 C82 1.244 . S
O101 Eu80 2.488 . S
O101 C89 1.249 . S
O102 Eu80 2.471 . S
O102 C89 1.244 . S
O103 Eu80 2.349 . S
O103 C82 1.265 . S
C104 C105 1.379 . S
C104 C108 1.373 . S
C104 C110 1.505 . S
C105 C104 1.379 . S
C105 C107 1.369 . S
C105 H116 0.930 . S
C106 C108 1.383 . S
C106 C109 1.382 . S
C106 H117 0.930 . S
C107 C105 1.369 . S
C107 C109 1.392 . S
C107 H118 0.930 . S
C108 C104 1.373 . S
C108 C106 1.383 . S
C108 H119 0.931 . S
C109 C106 1.382 . S
C109 C107 1.392 . S
C110 Eu81 2.828 . S
C110 O94 1.249 . S
C110 O95 1.244 . S
C110 C104 1.505 . S
C111 O98 1.258 . S
C111 O99 1.242 . S
H112 C84 0.930 . S
H113 C85 0.930 . S
H114 C86 0.930 . S
H115 C87 0.931 . S
H116 C105 0.930 . S
H117 C106 0.930 . S
H118 C107 0.930 . S
H119 C108 0.931 . S
Eu120 C129 2.828 . S
Eu120 O131 2.392 1_655 S
Eu120 O133 2.418 . S
Eu120 O138 2.373 . S
Eu120 O141 2.488 . S
Eu120 O142 2.471 . S
Eu120 O143 2.349 . S
Eu121 O130 2.373 1_655 S
Eu121 O134 2.488 . S
Eu121 O135 2.471 . S
Eu121 O136 2.349 . S
Eu121 O139 2.392 . S
Eu121 O140 2.418 . S
Eu121 C150 2.828 . S
C122 O140 1.244 . S
C122 O143 1.265 . S
C123 C124 1.379 . S
C123 C127 1.373 . S
C123 C129 1.505 . S
C124 C123 1.379 . S
C124 C126 1.369 . S
C124 H152 0.930 . S
C125 C127 1.383 . S
C125 C128 1.382 . S
C125 H153 0.930 . S
C126 C124 1.369 . S
C126 C128 1.392 . S
C126 H154 0.930 . S
C127 C123 1.373 . S
C127 C125 1.383 . S
C127 H155 0.931 . S
C128 C125 1.382 . S
C128 C126 1.392 . S
C129 Eu120 2.828 . S
C129 C123 1.505 . S
C129 O141 1.249 . S
C129 O142 1.244 . S
O130 Eu121 2.373 1_455 S
O130 C132 1.258 . S
O131 Eu120 2.392 1_455 S
O131 C132 1.242 . S
C132 O130 1.258 . S
C132 O131 1.242 . S
O133 Eu120 2.418 . S
O133 C137 1.244 . S
O134 Eu121 2.488 . S
O134 C150 1.249 . S
O135 Eu121 2.471 . S
O135 C150 1.244 . S
O136 Eu121 2.349 . S
O136 C137 1.265 . S
C137 O133 1.244 . S
C137 O136 1.265 . S
O138 Eu120 2.373 . S
O138 C151 1.258 . S
O139 Eu121 2.392 . S
O139 C151 1.242 . S
O140 Eu121 2.418 . S
O140 C122 1.244 . S
O141 Eu120 2.488 . S
O141 C129 1.249 . S
O142 Eu120 2.471 . S
O142 C129 1.244 . S
O143 Eu120 2.349 . S
O143 C122 1.265 . S
C144 C145 1.379 . S
C144 C148 1.373 . S
C144 C150 1.505 1_455 S
C145 C144 1.379 . S
C145 C147 1.369 . S
C145 H156 0.930 . S
C146 C148 1.383 . S
C146 C149 1.382 . S
C146 H157 0.930 . S
C147 C145 1.369 . S
C147 C149 1.392 . S
C147 H158 0.930 . S
C148 C144 1.373 . S
C148 C146 1.383 . S
C148 H159 0.931 . S
C149 C146 1.382 . S
C149 C147 1.392 . S
C150 Eu121 2.828 . S
C150 O134 1.249 . S
C150 O135 1.244 . S
C150 C144 1.505 1_655 S
C151 O138 1.258 . S
C151 O139 1.242 . S
H152 C124 0.930 . S
H153 C125 0.930 . S
H154 C126 0.930 . S
H155 C127 0.931 . S
H156 C145 0.930 . S
H157 C146 0.930 . S
H158 C147 0.930 . S
H159 C148 0.931 . S
Eu160 C169 2.828 . S
Eu160 O171 2.392 . S
Eu160 O173 2.418 . S
Eu160 O178 2.373 . S
Eu160 O181 2.488 . S
Eu160 O182 2.471 1_554 S
Eu160 O183 2.349 1_554 S
Eu161 O170 2.372 1_554 S
Eu161 O174 2.481 1_554 S
Eu161 O175 2.485 . S
Eu161 O176 2.368 . S
Eu161 O179 2.392 . S
Eu161 O180 2.394 1_554 S
Eu161 C190 2.831 . S
C162 O180 1.244 . S
C162 O183 1.265 . S
C163 C164 1.379 1_554 S
C163 C167 1.373 . S
C163 C169 1.505 . S
C164 C163 1.379 1_556 S
C164 C166 1.369 . S
C164 H192 0.930 . S
C165 C167 1.383 . S
C165 C168 1.382 1_554 S
C165 H193 0.930 . S
C166 C164 1.369 . S
C166 C168 1.392 . S
C166 H194 0.930 . S
C167 C163 1.373 . S
C167 C165 1.383 . S
C167 H195 0.931 . S
C168 C165 1.382 1_556 S
C168 C166 1.392 . S
C169 Eu160 2.828 . S
C169 C163 1.505 . S
C169 O181 1.249 . S
C169 O182 1.244 1_554 S
O170 Eu161 2.372 1_556 S
O170 C172 1.258 1_556 S
O171 Eu160 2.392 . S
O171 C172 1.242 . S
C172 O170 1.258 1_554 S
C172 O171 1.242 . S
O173 Eu160 2.418 . S
O173 C177 1.244 . S
O174 Eu161 2.481 1_556 S
O174 C190 1.249 1_556 S
O175 Eu161 2.485 . S
O175 C190 1.244 . S
O176 Eu161 2.368 . S
O176 C177 1.265 . S
C177 O173 1.244 . S
C177 O176 1.265 . S
O178 Eu160 2.373 . S
O178 C191 1.258 . S
O179 Eu161 2.392 . S
O179 C191 1.242 . S
O180 Eu161 2.394 1_556 S
O180 C162 1.244 . S
O181 Eu160 2.488 . S
O181 C169 1.249 . S
O182 Eu160 2.471 1_556 S
O182 C169 1.244 1_556 S
O183 Eu160 2.349 1_556 S
O183 C162 1.265 . S
C184 C185 1.379 . S
C184 C188 1.373 1_554 S
C184 C190 1.505 . S
C185 C184 1.379 . S
C185 C187 1.369 . S
C185 H196 0.930 . S
C186 C188 1.383 . S
C186 C189 1.382 1_556 S
C186 H197 0.930 . S
C187 C185 1.369 . S
C187 C189 1.392 . S
C187 H198 0.930 . S
C188 C184 1.373 1_556 S
C188 C186 1.383 . S
C188 H199 0.931 . S
C189 C186 1.382 1_554 S
C189 C187 1.392 . S
C190 Eu161 2.831 . S
C190 O174 1.249 1_554 S
C190 O175 1.244 . S
C190 C184 1.505 . S
C191 O178 1.258 . S
C191 O179 1.242 . S
H192 C164 0.930 . S
H193 C165 0.930 . S
H194 C166 0.930 . S
H195 C167 0.931 . S
H196 C185 0.930 . S
H197 C186 0.930 . S
H198 C187 0.930 . S
H199 C188 0.931 . S
Eu200 C209 2.828 . S
Eu200 O211 2.392 . S
Eu200 O213 2.418 . S
Eu200 O218 2.373 . S
Eu200 O221 2.488 . S
Eu200 O222 2.471 1_554 S
Eu200 O223 2.349 1_554 S
Eu201 O210 2.373 1_554 S
Eu201 O214 2.488 1_554 S
Eu201 O215 2.472 . S
Eu201 O216 2.350 . S
Eu201 O219 2.393 . S
Eu201 O220 2.416 1_554 S
Eu201 C230 2.828 . S
C202 O220 1.244 . S
C202 O223 1.265 . S
C203 C204 1.379 1_554 S
C203 C207 1.373 . S
C203 C209 1.505 . S
C204 C203 1.379 1_556 S
C204 C206 1.369 . S
C204 H232 0.930 . S
C205 C207 1.383 . S
C205 C208 1.382 1_554 S
C205 H233 0.930 . S
C206 C204 1.369 . S
C206 C208 1.392 . S
C206 H234 0.930 . S
C207 C203 1.373 . S
C207 C205 1.383 . S
C207 H235 0.931 . S
C208 C205 1.382 1_556 S
C208 C206 1.392 . S
C209 Eu200 2.828 . S
C209 C203 1.505 . S
C209 O221 1.249 . S
C209 O222 1.244 1_554 S
O210 Eu201 2.373 1_556 S
O210 C212 1.258 1_556 S
O211 Eu200 2.392 . S
O211 C212 1.242 . S
C212 O210 1.258 1_554 S
C212 O211 1.242 . S
O213 Eu200 2.418 . S
O213 C217 1.244 . S
O214 Eu201 2.488 1_556 S
O214 C230 1.249 1_556 S
O215 Eu201 2.472 . S
O215 C230 1.244 . S
O216 Eu201 2.350 . S
O216 C217 1.265 . S
C217 O213 1.244 . S
C217 O216 1.265 . S
O218 Eu200 2.373 . S
O218 C231 1.258 . S
O219 Eu201 2.393 . S
O219 C231 1.250 . S
O220 Eu201 2.416 1_556 S
O220 C202 1.244 . S
O221 Eu200 2.488 . S
O221 C209 1.249 . S
O222 Eu200 2.471 1_556 S
O222 C209 1.244 1_556 S
O223 Eu200 2.349 1_556 S
O223 C202 1.265 . S
C224 C225 1.379 . S
C224 C228 1.373 1_554 S
C224 C230 1.505 . S
C225 C224 1.379 . S
C225 C227 1.369 . S
C225 H236 0.930 . S
C226 C228 1.383 . S
C226 C229 1.382 1_556 S
C226 H237 0.930 . S
C227 C225 1.369 . S
C227 C229 1.392 . S
C227 H238 0.930 . S
C228 C224 1.373 1_556 S
C228 C226 1.383 . S
C228 H239 0.931 . S
C229 C226 1.382 1_554 S
C229 C227 1.392 . S
C230 Eu201 2.828 . S
C230 O214 1.249 1_554 S
C230 O215 1.244 . S
C230 C224 1.505 . S
C231 O218 1.258 . S
C231 O219 1.250 . S
H232 C204 0.930 . S
H233 C205 0.930 . S
H234 C206 0.930 . S
H235 C207 0.931 . S
H236 C225 0.930 . S
H237 C226 0.930 . S
H238 C227 0.930 . S
H239 C228 0.931 . S
Eu240 C249 2.828 . S
Eu240 O251 2.392 . S
Eu240 O253 2.418 . S
Eu240 O258 2.373 . S
Eu240 O261 2.488 . S
Eu240 O262 2.471 . S
Eu240 O263 2.349 . S
Eu241 O250 2.373 . S
Eu241 O254 2.488 . S
Eu241 O255 2.471 . S
Eu241 O256 2.349 . S
Eu241 O259 2.392 . S
Eu241 O260 2.418 . S
Eu241 C270 2.828 . S
C242 O260 1.244 . S
C242 O263 1.265 . S
C243 C244 1.379 . S
C243 C247 1.373 . S
C243 C249 1.505 . S
C244 C243 1.379 . S
C244 C246 1.369 . S
C244 H272 0.930 . S
C245 C247 1.383 . S
C245 C248 1.382 . S
C245 H273 0.930 . S
C246 C244 1.369 . S
C246 C248 1.392 . S
C246 H274 0.930 . S
C247 C243 1.373 . S
C247 C245 1.383 . S
C247 H275 0.931 . S
C248 C245 1.382 . S
C248 C246 1.392 . S
C249 Eu240 2.828 . S
C249 C243 1.505 . S
C249 O261 1.249 . S
C249 O262 1.244 . S
O250 Eu241 2.373 . S
O250 C252 1.258 . S
O251 Eu240 2.392 . S
O251 C252 1.242 . S
C252 O250 1.258 . S
C252 O251 1.242 . S
O253 Eu240 2.418 . S
O253 C257 1.244 . S
O254 Eu241 2.488 . S
O254 C270 1.249 . S
O255 Eu241 2.471 . S
O255 C270 1.244 . S
O256 Eu241 2.349 . S
O256 C257 1.265 . S
C257 O253 1.244 . S
C257 O256 1.265 . S
O258 Eu240 2.373 . S
O258 C271 1.258 . S
O259 Eu241 2.392 . S
O259 C271 1.242 . S
O260 Eu241 2.418 . S
O260 C242 1.244 . S
O261 Eu240 2.488 . S
O261 C249 1.249 . S
O262 Eu240 2.471 . S
O262 C249 1.244 . S
O263 Eu240 2.349 . S
O263 C242 1.265 . S
C264 C265 1.379 . S
C264 C268 1.373 . S
C264 C270 1.505 . S
C265 C264 1.379 . S
C265 C267 1.369 . S
C265 H276 0.930 . S
C266 C268 1.383 . S
C266 C269 1.382 . S
C266 H277 0.930 . S
C267 C265 1.369 . S
C267 C269 1.392 . S
C267 H278 0.930 . S
C268 C264 1.373 . S
C268 C266 1.383 . S
C268 H279 0.931 . S
C269 C266 1.382 . S
C269 C267 1.392 . S
C270 Eu241 2.828 . S
C270 O254 1.249 . S
C270 O255 1.244 . S
C270 C264 1.505 . S
C271 O258 1.258 . S
C271 O259 1.242 . S
H272 C244 0.930 . S
H273 C245 0.930 . S
H274 C246 0.930 . S
H275 C247 0.931 . S
H276 C265 0.930 . S
H277 C266 0.930 . S
H278 C267 0.930 . S
H279 C268 0.931 . S
Eu280 C289 2.828 . S
Eu280 O291 2.392 . S
Eu280 O293 2.418 . S
Eu280 O298 2.373 . S
Eu280 O301 2.488 . S
Eu280 O302 2.471 . S
Eu280 O303 2.349 . S
Eu281 O290 2.373 . S
Eu281 O294 2.488 . S
Eu281 O295 2.471 . S
Eu281 O296 2.349 . S
Eu281 O299 2.392 . S
Eu281 O300 2.418 . S
Eu281 C310 2.828 . S
C282 O300 1.244 . S
C282 O303 1.265 . S
C283 C284 1.379 . S
C283 C287 1.373 . S
C283 C289 1.505 . S
C284 C283 1.379 . S
C284 C286 1.369 . S
C284 H312 0.930 . S
C285 C287 1.383 . S
C285 C288 1.382 . S
C285 H313 0.930 . S
C286 C284 1.369 . S
C286 C288 1.392 . S
C286 H314 0.930 . S
C287 C283 1.373 . S
C287 C285 1.383 . S
C287 H315 0.931 . S
C288 C285 1.382 . S
C288 C286 1.392 . S
C289 Eu280 2.828 . S
C289 C283 1.505 . S
C289 O301 1.249 . S
C289 O302 1.244 . S
O290 Eu281 2.373 . S
O290 C292 1.258 . S
O291 Eu280 2.392 . S
O291 C292 1.242 . S
C292 O290 1.258 . S
C292 O291 1.242 . S
O293 Eu280 2.418 . S
O293 C297 1.244 . S
O294 Eu281 2.488 . S
O294 C310 1.249 . S
O295 Eu281 2.471 . S
O295 C310 1.244 . S
O296 Eu281 2.349 . S
O296 C297 1.265 . S
C297 O293 1.244 . S
C297 O296 1.265 . S
O298 Eu280 2.373 . S
O298 C311 1.258 . S
O299 Eu281 2.392 . S
O299 C311 1.242 . S
O300 Eu281 2.418 . S
O300 C282 1.244 . S
O301 Eu280 2.488 . S
O301 C289 1.249 . S
O302 Eu280 2.471 . S
O302 C289 1.244 . S
O303 Eu280 2.349 . S
O303 C282 1.265 . S
C304 C305 1.379 . S
C304 C308 1.373 . S
C304 C310 1.505 . S
C305 C304 1.379 . S
C305 C307 1.369 . S
C305 H316 0.930 . S
C306 C308 1.383 . S
C306 C309 1.382 . S
C306 H317 0.930 . S
C307 C305 1.369 . S
C307 C309 1.392 . S
C307 H318 0.930 . S
C308 C304 1.373 . S
C308 C306 1.383 . S
C308 H319 0.931 . S
C309 C306 1.382 . S
C309 C307 1.392 . S
C310 Eu281 2.828 . S
C310 O294 1.249 . S
C310 O295 1.244 . S
C310 C304 1.505 . S
C311 O298 1.258 . S
C311 O299 1.242 . S
H312 C284 0.930 . S
H313 C285 0.930 . S
H314 C286 0.930 . S
H315 C287 0.931 . S
H316 C305 0.930 . S
H317 C306 0.930 . S
H318 C307 0.930 . S
H319 C308 0.931 . S
C320 C321 1.349 . S
C320 C322 1.327 . S
C320 H345 0.950 . S
C321 C320 1.349 . S
C321 C337 1.349 1_554 S
C322 C320 1.327 . S
C322 C341 1.429 . S
C322 H346 0.950 . S
C323 C340 1.574 . S
C323 C342 1.368 1_556 S
C323 H347 0.949 . S
H324 C328 0.949 . S
C325 C326 1.349 1_556 S
C325 C327 1.327 . S
C325 H348 0.950 . S
C326 C325 1.349 1_554 S
C326 C338 1.349 . S
C327 C325 1.327 . S
C327 C343 1.429 1_556 S
C327 H349 0.950 . S
C328 H324 0.949 . S
C328 C336 1.574 . S
C328 C344 1.368 . S
H329 C337 0.950 . S
H330 C335 0.950 . S
H331 C336 0.949 . S
H332 C338 0.950 . S
H333 C339 0.950 . S
H334 C340 0.949 . S
C335 H330 0.950 . S
C335 C337 1.327 . S
C335 C341 1.429 1_556 S
C336 C328 1.574 . S
C336 H331 0.949 . S
C336 C342 1.368 . S
C337 C321 1.349 1_556 S
C337 H329 0.950 . S
C337 C335 1.327 . S
C338 C326 1.349 . S
C338 H332 0.950 . S
C338 C339 1.327 . S
C339 H333 0.950 . S
C339 C338 1.327 . S
C339 C343 1.429 . S
C340 C323 1.574 . S
C340 H334 0.949 . S
C340 C344 1.368 1_556 S
C341 C322 1.429 . S
C341 C335 1.429 1_554 S
C341 C342 1.523 . S
C342 C323 1.368 1_554 S
C342 C336 1.368 . S
C342 C341 1.523 . S
C343 C327 1.429 1_554 S
C343 C339 1.429 . S
C343 C344 1.523 . S
C344 C328 1.368 . S
C344 C340 1.368 1_554 S
C344 C343 1.523 . S
H345 C320 0.950 . S
H346 C322 0.950 . S
H347 C323 0.949 . S
H348 C325 0.950 . S
H349 C327 0.950 . S
C350 C351 1.349 . S
C350 C352 1.327 . S
C350 H375 0.950 . S
C351 C350 1.349 . S
C351 C367 1.349 . S
C352 C350 1.327 . S
C352 C371 1.429 . S
C352 H376 0.950 . S
C353 C370 1.574 . S
C353 C372 1.368 . S
C353 H377 0.949 . S
H354 C358 0.949 . S
C355 C356 1.349 . S
C355 C357 1.327 . S
C355 H378 0.950 . S
C356 C355 1.349 . S
C356 C368 1.349 . S
C357 C355 1.327 . S
C357 C373 1.429 . S
C357 H379 0.950 . S
C358 H354 0.949 . S
C358 C366 1.574 . S
C358 C374 1.368 . S
H359 C367 0.950 . S
H360 C365 0.950 . S
H361 C366 0.949 . S
H362 C368 0.950 . S
H363 C369 0.950 . S
H364 C370 0.949 . S
C365 H360 0.950 . S
C365 C367 1.327 . S
C365 C371 1.429 . S
C366 C358 1.574 . S
C366 H361 0.949 . S
C366 C372 1.368 . S
C367 C351 1.349 . S
C367 H359 0.950 . S
C367 C365 1.327 . S
C368 C356 1.349 . S
C368 H362 0.950 . S
C368 C369 1.327 . S
C369 H363 0.950 . S
C369 C368 1.327 . S
C369 C373 1.429 . S
C370 C353 1.574 . S
C370 H364 0.949 . S
C370 C374 1.368 . S
C371 C352 1.429 . S
C371 C365 1.429 . S
C371 C372 1.523 . S
C372 C353 1.368 . S
C372 C366 1.368 . S
C372 C371 1.523 . S
C373 C357 1.429 . S
C373 C369 1.429 . S
C373 C374 1.523 . S
C374 C358 1.368 . S
C374 C370 1.368 . S
C374 C373 1.523 . S
H375 C350 0.950 . S
H376 C352 0.950 . S
H377 C353 0.949 . S
H378 C355 0.950 . S
H379 C357 0.950 . S
C380 C381 1.349 . S
C380 C382 1.327 . S
C380 H405 0.950 . S
C381 C380 1.349 . S
C381 C397 1.349 . S
C382 C380 1.327 . S
C382 C401 1.429 . S
C382 H406 0.950 . S
C383 C400 1.574 . S
C383 C402 1.368 . S
C383 H407 0.949 . S
H384 C388 0.949 . S
C385 C386 1.349 . S
C385 C387 1.327 . S
C385 H408 0.950 . S
C386 C385 1.349 . S
C386 C398 1.349 . S
C387 C385 1.327 . S
C387 C403 1.429 . S
C387 H409 0.950 . S
C388 H384 0.949 . S
C388 C396 1.574 . S
C388 C404 1.368 . S
H389 C397 0.950 . S
H390 C395 0.950 . S
H391 C396 0.949 . S
H392 C398 0.950 . S
H393 C399 0.950 . S
H394 C400 0.949 . S
C395 H390 0.950 . S
C395 C397 1.327 . S
C395 C401 1.429 . S
C396 C388 1.574 . S
C396 H391 0.949 . S
C396 C402 1.368 . S
C397 C381 1.349 . S
C397 H389 0.950 . S
C397 C395 1.327 . S
C398 C386 1.349 . S
C398 H392 0.950 . S
C398 C399 1.327 . S
C399 H393 0.950 . S
C399 C398 1.327 . S
C399 C403 1.429 . S
C400 C383 1.574 . S
C400 H394 0.949 . S
C400 C404 1.368 . S
C401 C382 1.429 . S
C401 C395 1.429 . S
C401 C402 1.523 . S
C402 C383 1.368 . S
C402 C396 1.368 . S
C402 C401 1.523 . S
C403 C387 1.429 . S
C403 C399 1.429 . S
C403 C404 1.523 . S
C404 C388 1.368 . S
C404 C400 1.368 . S
C404 C403 1.523 . S
H405 C380 0.950 . S
H406 C382 0.950 . S
H407 C383 0.949 . S
H408 C385 0.950 . S
H409 C387 0.950 . S
C410 C411 1.349 . S
C410 C412 1.327 . S
C410 H435 0.950 . S
C411 C410 1.349 . S
C411 C427 1.349 . S
C412 C410 1.327 . S
C412 C431 1.429 . S
C412 H436 0.950 . S
C413 C430 1.574 . S
C413 C432 1.368 . S
C413 H437 0.949 . S
H414 C418 0.949 . S
C415 C416 1.349 . S
C415 C417 1.327 . S
C415 H438 0.950 . S
C416 C415 1.349 . S
C416 C428 1.349 . S
C417 C415 1.327 . S
C417 C433 1.429 . S
C417 H439 0.950 . S
C418 H414 0.949 . S
C418 C426 1.574 . S
C418 C434 1.368 . S
H419 C427 0.950 . S
H420 C425 0.950 . S
H421 C426 0.949 . S
H422 C428 0.950 . S
H423 C429 0.950 . S
H424 C430 0.949 . S
C425 H420 0.950 . S
C425 C427 1.327 . S
C425 C431 1.429 . S
C426 C418 1.574 . S
C426 H421 0.949 . S
C426 C432 1.368 . S
C427 C411 1.349 . S
C427 H419 0.950 . S
C427 C425 1.327 . S
C428 C416 1.349 . S
C428 H422 0.950 . S
C428 C429 1.327 . S
C429 H423 0.950 . S
C429 C428 1.327 . S
C429 C433 1.429 . S
C430 C413 1.574 . S
C430 H424 0.949 . S
C430 C434 1.368 . S
C431 C412 1.429 . S
C431 C425 1.429 . S
C431 C432 1.523 . S
C432 C413 1.368 . S
C432 C426 1.368 . S
C432 C431 1.523 . S
C433 C417 1.429 . S
C433 C429 1.429 . S
C433 C434 1.523 . S
C434 C418 1.368 . S
C434 C430 1.368 . S
C434 C433 1.523 . S
H435 C410 0.950 . S
H436 C412 0.950 . S
H437 C413 0.949 . S
H438 C415 0.950 . S
H439 C417 0.950 . S
C440 C441 1.349 1_556 S
C440 C442 1.327 . S
C440 H465 0.950 . S
C441 C440 1.349 1_554 S
C441 C457 1.349 . S
C442 C440 1.327 . S
C442 C461 1.429 1_556 S
C442 H466 0.950 . S
C443 C460 1.574 . S
C443 C462 1.362 1_455 S
C443 H467 0.949 . S
H444 C448 0.949 . S
C445 C446 1.349 . S
C445 C447 1.327 . S
C445 H468 0.950 . S
C446 C445 1.349 . S
C446 C458 1.349 1_554 S
C447 C445 1.327 . S
C447 C463 1.429 . S
C447 H469 0.950 . S
C448 H444 0.949 . S
C448 C456 1.574 . S
C448 C464 1.368 1_556 S
H449 C457 0.950 . S
H450 C455 0.950 . S
H451 C456 0.949 1_655 S
H452 C458 0.950 . S
H453 C459 0.950 . S
H454 C460 0.949 . S
C455 H450 0.950 . S
C455 C457 1.327 . S
C455 C461 1.429 . S
C456 C448 1.574 . S
C456 H451 0.949 1_455 S
C456 C462 1.363 1_456 S
C457 C441 1.349 . S
C457 H449 0.950 . S
C457 C455 1.327 . S
C458 C446 1.349 1_556 S
C458 H452 0.950 . S
C458 C459 1.327 . S
C459 H453 0.950 . S
C459 C458 1.327 . S
C459 C463 1.429 1_556 S
C460 C443 1.574 . S
C460 H454 0.949 . S
C460 C464 1.368 . S
C461 C442 1.429 1_554 S
C461 C455 1.429 . S
C461 C462 1.538 . S
C462 C443 1.362 1_655 S
C462 C456 1.363 1_654 S
C462 C461 1.538 . S
C463 C447 1.429 . S
C463 C459 1.429 1_554 S
C463 C464 1.523 . S
C464 C448 1.368 1_554 S
C464 C460 1.368 . S
C464 C463 1.523 . S
H465 C440 0.950 . S
H466 C442 0.950 . S
H467 C443 0.949 . S
H468 C445 0.950 . S
H469 C447 0.950 . S
C470 C471 1.349 . S
C470 C472 1.327 . S
C470 H495 0.950 . S
C471 C470 1.349 . S
C471 C487 1.349 1_554 S
C472 C470 1.327 . S
C472 C491 1.429 . S
C472 H496 0.950 . S
C473 C490 1.574 . S
C473 C492 1.363 1_656 S
C473 H497 0.941 1_655 S
H474 C478 0.949 . S
C475 C476 1.349 1_556 S
C475 C477 1.327 . S
C475 H498 0.950 . S
C476 C475 1.349 1_554 S
C476 C488 1.349 . S
C477 C475 1.327 . S
C477 C493 1.429 1_556 S
C477 H499 0.950 . S
C478 H474 0.949 . S
C478 C486 1.574 . S
C478 C494 1.368 . S
H479 C487 0.950 . S
H480 C485 0.950 . S
H481 C486 0.946 1_455 S
H482 C488 0.950 . S
H483 C489 0.950 . S
H484 C490 0.949 . S
C485 H480 0.950 . S
C485 C487 1.327 . S
C485 C491 1.429 1_556 S
C486 C478 1.574 . S
C486 H481 0.946 1_655 S
C486 C492 1.363 1_655 S
C487 C471 1.349 1_556 S
C487 H479 0.950 . S
C487 C485 1.327 . S
C488 C476 1.349 . S
C488 H482 0.950 . S
C488 C489 1.327 . S
C489 H483 0.950 . S
C489 C488 1.327 . S
C489 C493 1.429 . S
C490 C473 1.574 . S
C490 H484 0.949 . S
C490 C494 1.368 1_556 S
C491 C472 1.429 . S
C491 C485 1.429 1_554 S
C491 C492 1.537 . S
C492 C473 1.363 1_454 S
C492 C486 1.363 1_455 S
C492 C491 1.537 . S
C493 C477 1.429 1_554 S
C493 C489 1.429 . S
C493 C494 1.523 . S
C494 C478 1.368 . S
C494 C490 1.368 1_554 S
C494 C493 1.523 . S
H495 C470 0.950 . S
H496 C472 0.950 . S
H497 C473 0.941 1_455 S
H498 C475 0.950 . S
H499 C477 0.950 . S
C500 C501 1.349 . S
C500 C502 1.327 . S
C500 H525 0.950 . S
C501 C500 1.349 . S
C501 C517 1.349 . S
C502 C500 1.327 . S
C502 C521 1.429 . S
C502 H526 0.950 . S
C503 C520 1.574 . S
C503 C522 1.368 . S
C503 H527 0.949 . S
H504 C508 0.949 . S
C505 C506 1.349 . S
C505 C507 1.327 . S
C505 H528 0.950 . S
C506 C505 1.349 . S
C506 C518 1.349 . S
C507 C505 1.327 . S
C507 C523 1.429 . S
C507 H529 0.950 . S
C508 H504 0.949 . S
C508 C516 1.574 . S
C508 C524 1.361 1_455 S
H509 C517 0.950 . S
H510 C515 0.950 . S
H511 C516 0.949 . S
H512 C518 0.950 . S
H513 C519 0.950 . S
H514 C520 0.949 1_655 S
C515 H510 0.950 . S
C515 C517 1.327 . S
C515 C521 1.429 . S
C516 C508 1.574 . S
C516 H511 0.949 . S
C516 C522 1.368 . S
C517 C501 1.349 . S
C517 H509 0.950 . S
C517 C515 1.327 . S
C518 C506 1.349 . S
C518 H512 0.950 . S
C518 C519 1.327 . S
C519 H513 0.950 . S
C519 C518 1.327 . S
C519 C523 1.429 . S
C520 C503 1.574 . S
C520 H514 0.949 1_455 S
C520 C524 1.363 1_455 S
C521 C502 1.429 . S
C521 C515 1.429 . S
C521 C522 1.523 . S
C522 C503 1.368 . S
C522 C516 1.368 . S
C522 C521 1.523 . S
C523 C507 1.429 . S
C523 C519 1.429 . S
C523 C524 1.539 . S
C524 C508 1.361 1_655 S
C524 C520 1.363 1_655 S
C524 C523 1.539 . S
H525 C500 0.950 . S
H526 C502 0.950 . S
H527 C503 0.949 . S
H528 C505 0.950 . S
H529 C507 0.950 . S
C530 C531 1.349 . S
C530 C532 1.327 . S
C530 H555 0.950 . S
C531 C530 1.349 . S
C531 C547 1.349 . S
C532 C530 1.327 . S
C532 C551 1.429 . S
C532 H556 0.950 . S
C533 C550 1.574 . S
C533 C552 1.368 . S
C533 H557 0.949 . S
H534 C538 0.949 1_455 S
C535 C536 1.349 . S
C535 C537 1.327 . S
C535 H558 0.950 . S
C536 C535 1.349 . S
C536 C548 1.349 . S
C537 C535 1.327 . S
C537 C553 1.429 . S
C537 H559 0.950 . S
C538 H534 0.949 1_655 S
C538 C546 1.574 . S
C538 C554 1.363 1_655 S
H539 C547 0.950 . S
H540 C545 0.950 . S
H541 C546 0.949 . S
H542 C548 0.950 . S
H543 C549 0.950 . S
H544 C550 0.949 . S
C545 H540 0.950 . S
C545 C547 1.327 . S
C545 C551 1.429 . S
C546 C538 1.574 . S
C546 H541 0.949 . S
C546 C552 1.368 . S
C547 C531 1.349 . S
C547 H539 0.950 . S
C547 C545 1.327 . S
C548 C536 1.349 . S
C548 H542 0.950 . S
C548 C549 1.327 . S
C549 H543 0.950 . S
C549 C548 1.327 . S
C549 C553 1.429 . S
C550 C533 1.574 . S
C550 H544 0.949 . S
C550 C554 1.361 1_655 S
C551 C532 1.429 . S
C551 C545 1.429 . S
C551 C552 1.523 . S
C552 C533 1.368 . S
C552 C546 1.368 . S
C552 C551 1.523 . S
C553 C537 1.429 . S
C553 C549 1.429 . S
C553 C554 1.539 . S
C554 C538 1.363 1_455 S
C554 C550 1.361 1_455 S
C554 C553 1.539 . S
H555 C530 0.950 . S
H556 C532 0.950 . S
H557 C533 0.949 . S
H558 C535 0.950 . S
H559 C537 0.950 . S
C560 C561 1.349 1_554 S
C560 C562 1.327 . S
C560 H585 0.950 . S
C561 C560 1.349 1_556 S
C561 C577 1.349 . S
C562 C560 1.327 . S
C562 C581 1.429 . S
C562 H586 0.950 1_455 S
C563 C580 1.574 . S
C563 C582 1.368 1_556 S
C563 H587 0.949 . S
H564 C568 0.949 . S
C565 C566 1.349 1_556 S
C565 C567 1.327 . S
C565 H588 0.950 . S
C566 C565 1.349 1_554 S
C566 C578 1.349 . S
C567 C565 1.327 . S
C567 C583 1.429 1_556 S
C567 H589 0.950 1_655 S
C568 H564 0.949 . S
C568 C576 1.574 . S
C568 C584 1.368 . S
H569 C577 0.950 . S
H570 C575 0.950 . S
H571 C576 0.949 . S
H572 C578 0.950 . S
H573 C579 0.950 . S
H574 C580 0.949 . S
C575 H570 0.950 . S
C575 C577 1.327 . S
C575 C581 1.429 1_556 S
C576 C568 1.574 . S
C576 H571 0.949 . S
C576 C582 1.368 1_655 S
C577 C561 1.349 . S
C577 H569 0.950 . S
C577 C575 1.327 . S
C578 C566 1.349 . S
C578 H572 0.950 . S
C578 C579 1.327 . S
C579 H573 0.950 . S
C579 C578 1.327 . S
C579 C583 1.429 . S
C580 C563 1.574 . S
C580 H574 0.949 . S
C580 C584 1.368 1_456 S
C581 C562 1.429 . S
C581 C575 1.429 1_554 S
C581 C582 1.523 . S
C582 C563 1.368 1_554 S
C582 C576 1.368 1_455 S
C582 C581 1.523 . S
C583 C567 1.429 1_554 S
C583 C579 1.429 . S
C583 C584 1.523 . S
C584 C568 1.368 . S
C584 C580 1.368 1_654 S
C584 C583 1.523 . S
H585 C560 0.950 . S
H586 C562 0.950 1_655 S
H587 C563 0.949 . S
H588 C565 0.950 . S
H589 C567 0.950 1_455 S
C590 C591 1.349 . S
C590 C592 1.327 . S
C590 H615 0.950 . S
C591 C590 1.349 . S
C591 C607 1.349 . S
C592 C590 1.327 . S
C592 C611 1.429 . S
C592 H616 0.950 . S
C593 C610 1.574 . S
C593 C612 1.368 1_655 S
C593 H617 0.949 . S
H594 C598 0.949 . S
C595 C596 1.349 . S
C595 C597 1.327 . S
C595 H618 0.950 . S
C596 C595 1.349 . S
C596 C608 1.349 . S
C597 C595 1.327 . S
C597 C613 1.429 . S
C597 H619 0.950 . S
C598 H594 0.949 . S
C598 C606 1.574 . S
C598 C614 1.368 1_455 S
H599 C607 0.950 . S
H600 C605 0.950 1_655 S
H601 C606 0.949 . S
H602 C608 0.950 . S
H603 C609 0.950 1_455 S
H604 C610 0.949 . S
C605 H600 0.950 1_455 S
C605 C607 1.327 . S
C605 C611 1.429 . S
C606 C598 1.574 . S
C606 H601 0.949 . S
C606 C612 1.368 . S
C607 C591 1.349 . S
C607 H599 0.950 . S
C607 C605 1.327 . S
C608 C596 1.349 . S
C608 H602 0.950 . S
C608 C609 1.327 . S
C609 H603 0.950 1_655 S
C609 C608 1.327 . S
C609 C613 1.429 . S
C610 C593 1.574 . S
C610 H604 0.949 . S
C610 C614 1.368 . S
C611 C592 1.429 . S
C611 C605 1.429 . S
C611 C612 1.523 . S
C612 C593 1.368 1_455 S
C612 C606 1.368 . S
C612 C611 1.523 . S
C613 C597 1.429 . S
C613 C609 1.429 . S
C613 C614 1.523 . S
C614 C598 1.368 1_655 S
C614 C610 1.368 . S
C614 C613 1.523 . S
H615 C590 0.950 . S
H616 C592 0.950 . S
H617 C593 0.949 . S
H618 C595 0.950 . S
H619 C597 0.950 . S
C620 C621 1.349 . S
C620 C622 1.327 . S
C620 H645 0.950 . S
C621 C620 1.349 . S
C621 C637 1.349 1_554 S
C622 C620 1.327 . S
C622 C641 1.429 . S
C622 H646 0.950 . S
C623 C640 1.574 1_565 S
C623 C642 1.368 1_556 S
C623 H647 0.949 . S
H624 C628 0.949 . S
C625 C626 1.349 . S
C625 C627 1.327 . S
C625 H648 0.950 . S
C626 C625 1.349 . S
C626 C638 1.349 1_556 S
C627 C625 1.327 . S
C627 C643 1.429 1_556 S
C627 H649 0.950 . S
C628 H624 0.949 . S
C628 C636 1.574 1_545 S
C628 C644 1.368 . S
H629 C637 0.950 . S
H630 C635 0.950 . S
H631 C636 0.949 . S
H632 C638 0.950 . S
H633 C639 0.950 . S
H634 C640 0.949 . S
C635 H630 0.950 . S
C635 C637 1.327 . S
C635 C641 1.429 1_556 S
C636 C628 1.574 1_565 S
C636 H631 0.949 . S
C636 C642 1.368 . S
C637 C621 1.349 1_556 S
C637 H629 0.950 . S
C637 C635 1.327 . S
C638 C626 1.349 1_554 S
C638 H632 0.950 . S
C638 C639 1.327 . S
C639 H633 0.950 . S
C639 C638 1.327 . S
C639 C643 1.429 . S
C640 C623 1.574 1_545 S
C640 H634 0.949 . S
C640 C644 1.368 1_556 S
C641 C622 1.429 . S
C641 C635 1.429 1_554 S
C641 C642 1.523 . S
C642 C623 1.368 1_554 S
C642 C636 1.368 . S
C642 C641 1.523 . S
C643 C627 1.429 1_554 S
C643 C639 1.429 . S
C643 C644 1.523 . S
C644 C628 1.368 . S
C644 C640 1.368 1_554 S
C644 C643 1.523 . S
H645 C620 0.950 . S
H646 C622 0.950 . S
H647 C623 0.949 . S
H648 C625 0.950 . S
H649 C627 0.950 . S
C650 C651 1.349 . S
C650 C652 1.327 . S
C650 H675 0.950 . S
C651 C650 1.349 . S
C651 C667 1.349 . S
C652 C650 1.327 . S
C652 C671 1.429 . S
C652 H676 0.950 . S
C653 C670 1.574 1_545 S
C653 C672 1.368 . S
C653 H677 0.949 . S
H654 C658 0.949 . S
C655 C656 1.349 . S
C655 C657 1.327 . S
C655 H678 0.950 . S
C656 C655 1.349 . S
C656 C668 1.349 . S
C657 C655 1.327 . S
C657 C673 1.429 . S
C657 H679 0.950 . S
C658 H654 0.949 . S
C658 C666 1.574 1_565 S
C658 C674 1.368 . S
H659 C667 0.950 . S
H660 C665 0.950 . S
H661 C666 0.949 . S
H662 C668 0.950 . S
H663 C669 0.950 . S
H664 C670 0.949 . S
C665 H660 0.950 . S
C665 C667 1.327 . S
C665 C671 1.429 . S
C666 C658 1.574 1_545 S
C666 H661 0.949 . S
C666 C672 1.368 . S
C667 C651 1.349 . S
C667 H659 0.950 . S
C667 C665 1.327 . S
C668 C656 1.349 . S
C668 H662 0.950 . S
C668 C669 1.327 . S
C669 H663 0.950 . S
C669 C668 1.327 . S
C669 C673 1.429 . S
C670 C653 1.574 1_565 S
C670 H664 0.949 . S
C670 C674 1.368 . S
C671 C652 1.429 . S
C671 C665 1.429 . S
C671 C672 1.523 . S
C672 C653 1.368 . S
C672 C666 1.368 . S
C672 C671 1.523 . S
C673 C657 1.429 . S
C673 C669 1.429 . S
C673 C674 1.523 . S
C674 C658 1.368 . S
C674 C670 1.368 . S
C674 C673 1.523 . S
H675 C650 0.950 . S
H676 C652 0.950 . S
H677 C653 0.949 . S
H678 C655 0.950 . S
H679 C657 0.950 . S
C680 C681 1.349 1_554 S
C680 C682 1.327 . S
C680 H705 0.950 . S
C681 C680 1.349 1_556 S
C681 C697 1.349 . S
C682 C680 1.327 . S
C682 C701 1.441 . S
C682 H706 0.950 . S
C683 C700 1.574 . S
C683 C702 1.368 1_556 S
C683 H707 0.949 . S
H684 C688 0.949 . S
C685 C686 1.349 1_556 S
C685 C687 1.327 . S
C685 H708 0.950 . S
C686 C685 1.349 1_554 S
C686 C698 1.349 . S
C687 C685 1.327 . S
C687 C703 1.429 1_556 S
C687 H709 0.950 . S
C688 H684 0.949 . S
C688 C696 1.574 . S
C688 C704 1.368 . S
H689 C697 0.950 . S
H690 C695 0.950 . S
H691 C696 0.949 . S
H692 C698 0.950 . S
H693 C699 0.950 . S
H694 C700 0.949 . S
C695 H690 0.950 . S
C695 C697 1.327 . S
C695 C701 1.414 1_556 S
C696 C688 1.574 . S
C696 H691 0.949 . S
C696 C702 1.368 . S
C697 C681 1.349 . S
C697 H689 0.950 . S
C697 C695 1.327 . S
C698 C686 1.349 . S
C698 H692 0.950 . S
C698 C699 1.327 . S
C699 H693 0.950 . S
C699 C698 1.327 . S
C699 C703 1.429 . S
C700 C683 1.574 . S
C700 H694 0.949 . S
C700 C704 1.368 1_556 S
C701 C682 1.441 . S
C701 C695 1.414 1_554 S
C701 C702 1.525 . S
C702 C683 1.368 1_554 S
C702 C696 1.368 . S
C702 C701 1.525 . S
C703 C687 1.429 1_554 S
C703 C699 1.429 . S
C703 C704 1.523 . S
C704 C688 1.368 . S
C704 C700 1.368 1_554 S
C704 C703 1.523 . S
H705 C680 0.950 . S
H706 C682 0.950 . S
H707 C683 0.949 . S
H708 C685 0.950 . S
H709 C687 0.950 . S
C710 C711 1.349 1_554 S
C710 C712 1.327 . S
C710 H735 0.950 . S
C711 C710 1.349 1_556 S
C711 C727 1.349 . S
C712 C710 1.327 . S
C712 C731 1.438 . S
C712 H736 0.950 . S
C713 C730 1.574 . S
C713 C732 1.368 1_556 S
C713 H737 0.949 . S
H714 C718 0.949 . S
C715 C716 1.365 . S
C715 C717 1.324 1_554 S
C715 H738 0.936 1_554 S
C716 C715 1.365 . S
C716 C728 1.349 . S
C717 C715 1.324 1_556 S
C717 C733 1.429 1_556 S
C717 H739 0.950 . S
C718 H714 0.949 . S
C718 C726 1.574 . S
C718 C734 1.368 . S
H719 C727 0.950 . S
H720 C725 0.950 . S
H721 C726 0.949 . S
H722 C728 0.950 . S
H723 C729 0.950 . S
H724 C730 0.949 . S
C725 H720 0.950 . S
C725 C727 1.327 . S
C725 C731 1.417 1_556 S
C726 C718 1.574 . S
C726 H721 0.949 . S
C726 C732 1.368 . S
C727 C711 1.349 . S
C727 H719 0.950 . S
C727 C725 1.327 . S
C728 C716 1.349 . S
C728 H722 0.950 . S
C728 C729 1.327 . S
C729 H723 0.950 . S
C729 C728 1.327 . S
C729 C733 1.429 . S
C730 C713 1.574 . S
C730 H724 0.949 . S
C730 C734 1.368 1_556 S
C731 C712 1.438 . S
C731 C725 1.417 1_554 S
C731 C732 1.525 . S
C732 C713 1.368 1_554 S
C732 C726 1.368 . S
C732 C731 1.525 . S
C733 C717 1.429 1_554 S
C733 C729 1.429 . S
C733 C734 1.523 . S
C734 C718 1.368 . S
C734 C730 1.368 1_554 S
C734 C733 1.523 . S
H735 C710 0.950 . S
H736 C712 0.950 . S
H737 C713 0.949 . S
H738 C715 0.936 1_556 S
H739 C717 0.950 . S
C740 C741 1.349 . S
C740 C742 1.327 . S
C740 H765 0.950 . S
C741 C740 1.349 . S
C741 C757 1.349 . S
C742 C740 1.327 . S
C742 C761 1.429 . S
C742 H766 0.950 . S
C743 C760 1.574 . S
C743 C762 1.368 . S
C743 H767 0.949 . S
H744 C748 0.949 . S
C745 C746 1.349 . S
C745 C747 1.327 . S
C745 H768 0.950 . S
C746 C745 1.349 . S
C746 C758 1.349 . S
C747 C745 1.327 . S
C747 C763 1.429 . S
C747 H769 0.950 . S
C748 H744 0.949 . S
C748 C756 1.574 . S
C748 C764 1.368 . S
H749 C757 0.950 . S
H750 C755 0.950 . S
H751 C756 0.949 . S
H752 C758 0.950 . S
H753 C759 0.950 . S
H754 C760 0.949 . S
C755 H750 0.950 . S
C755 C757 1.327 . S
C755 C761 1.429 . S
C756 C748 1.574 . S
C756 H751 0.949 . S
C756 C762 1.368 . S
C757 C741 1.349 . S
C757 H749 0.950 . S
C757 C755 1.327 . S
C758 C746 1.349 . S
C758 H752 0.950 . S
C758 C759 1.327 . S
C759 H753 0.950 . S
C759 C758 1.327 . S
C759 C763 1.429 . S
C760 C743 1.574 . S
C760 H754 0.949 . S
C760 C764 1.368 . S
C761 C742 1.429 . S
C761 C755 1.429 . S
C761 C762 1.523 . S
C762 C743 1.368 . S
C762 C756 1.368 . S
C762 C761 1.523 . S
C763 C747 1.429 . S
C763 C759 1.429 . S
C763 C764 1.523 . S
C764 C748 1.368 . S
C764 C760 1.368 . S
C764 C763 1.523 . S
H765 C740 0.950 . S
H766 C742 0.950 . S
H767 C743 0.949 . S
H768 C745 0.950 . S
H769 C747 0.950 . S
C770 C771 1.349 . S
C770 C772 1.327 . S
C770 H795 0.950 . S
C771 C770 1.349 . S
C771 C787 1.349 . S
C772 C770 1.327 . S
C772 C791 1.429 . S
C772 H796 0.950 . S
C773 C790 1.574 . S
C773 C792 1.368 . S
C773 H797 0.949 . S
H774 C778 0.949 . S
C775 C776 1.349 . S
C775 C777 1.327 . S
C775 H798 0.950 . S
C776 C775 1.349 . S
C776 C788 1.349 . S
C777 C775 1.327 . S
C777 C793 1.429 . S
C777 H799 0.950 . S
C778 H774 0.949 . S
C778 C786 1.574 . S
C778 C794 1.368 . S
H779 C787 0.950 . S
H780 C785 0.950 . S
H781 C786 0.949 . S
H782 C788 0.950 . S
H783 C789 0.950 . S
H784 C790 0.949 . S
C785 H780 0.950 . S
C785 C787 1.327 . S
C785 C791 1.429 . S
C786 C778 1.574 . S
C786 H781 0.949 . S
C786 C792 1.368 . S
C787 C771 1.349 . S
C787 H779 0.950 . S
C787 C785 1.327 . S
C788 C776 1.349 . S
C788 H782 0.950 . S
C788 C789 1.327 . S
C789 H783 0.950 . S
C789 C788 1.327 . S
C789 C793 1.429 . S
C790 C773 1.574 . S
C790 H784 0.949 . S
C790 C794 1.368 . S
C791 C772 1.429 . S
C791 C785 1.429 . S
C791 C792 1.523 . S
C792 C773 1.368 . S
C792 C786 1.368 . S
C792 C791 1.523 . S
C793 C777 1.429 . S
C793 C789 1.429 . S
C793 C794 1.523 . S
C794 C778 1.368 . S
C794 C790 1.368 . S
C794 C793 1.523 . S
H795 C770 0.950 . S
H796 C772 0.950 . S
H797 C773 0.949 . S
H798 C775 0.950 . S
H799 C777 0.950 . S
C800 C801 1.349 . S
C800 C802 1.327 . S
C800 H825 0.950 . S
C801 C800 1.349 . S
C801 C817 1.349 . S
C802 C800 1.327 . S
C802 C821 1.429 . S
C802 H826 0.950 . S
C803 C820 1.574 . S
C803 C822 1.368 1_655 S
C803 H827 0.949 . S
H804 C808 0.949 . S
C805 C806 1.349 . S
C805 C807 1.327 . S
C805 H828 0.950 . S
C806 C805 1.349 . S
C806 C818 1.349 . S
C807 C805 1.327 . S
C807 C823 1.429 . S
C807 H829 0.950 . S
C808 H804 0.949 . S
C808 C816 1.574 . S
C808 C824 1.368 1_455 S
H809 C817 0.950 . S
H810 C815 0.950 1_655 S
H811 C816 0.949 . S
H812 C818 0.950 . S
H813 C819 0.950 1_455 S
H814 C820 0.949 . S
C815 H810 0.950 1_455 S
C815 C817 1.327 . S
C815 C821 1.429 . S
C816 C808 1.574 . S
C816 H811 0.949 . S
C816 C822 1.368 . S
C817 C801 1.349 . S
C817 H809 0.950 . S
C817 C815 1.327 . S
C818 C806 1.349 . S
C818 H812 0.950 . S
C818 C819 1.327 . S
C819 H813 0.950 1_655 S
C819 C818 1.327 . S
C819 C823 1.429 . S
C820 C803 1.574 . S
C820 H814 0.949 . S
C820 C824 1.368 . S
C821 C802 1.429 . S
C821 C815 1.429 . S
C821 C822 1.523 . S
C822 C803 1.368 1_455 S
C822 C816 1.368 . S
C822 C821 1.523 . S
C823 C807 1.429 . S
C823 C819 1.429 . S
C823 C824 1.523 . S
C824 C808 1.368 1_655 S
C824 C820 1.368 . S
C824 C823 1.523 . S
H825 C800 0.950 . S
H826 C802 0.950 . S
H827 C803 0.949 . S
H828 C805 0.950 . S
H829 C807 0.950 . S
C830 C831 1.349 . S
C830 C832 1.326 1_655 S
C830 H855 0.950 1_655 S
C831 C830 1.349 . S
C831 C847 1.349 . S
C832 C830 1.326 1_455 S
C832 C851 1.427 1_455 S
C832 H856 0.952 . S
C833 C850 1.574 . S
C833 C852 1.368 . S
C833 H857 0.949 . S
H834 C838 0.949 . S
C835 C836 1.349 . S
C835 C837 1.327 1_455 S
C835 H858 0.950 1_455 S
C836 C835 1.349 . S
C836 C848 1.349 . S
C837 C835 1.327 1_655 S
C837 C853 1.428 1_655 S
C837 H859 0.951 . S
C838 H834 0.949 . S
C838 C846 1.574 . S
C838 C854 1.368 . S
H839 C847 0.950 . S
H840 C845 0.950 . S
H841 C846 0.949 . S
H842 C848 0.950 . S
H843 C849 0.950 . S
H844 C850 0.949 . S
C845 H840 0.950 . S
C845 C847 1.327 . S
C845 C851 1.429 . S
C846 C838 1.574 . S
C846 H841 0.949 . S
C846 C852 1.368 1_455 S
C847 C831 1.349 . S
C847 H839 0.950 . S
C847 C845 1.327 . S
C848 C836 1.349 . S
C848 H842 0.950 . S
C848 C849 1.327 . S
C849 H843 0.950 . S
C849 C848 1.327 . S
C849 C853 1.429 . S
C850 C833 1.574 . S
C850 H844 0.949 . S
C850 C854 1.368 1_655 S
C851 C832 1.427 1_655 S
C851 C845 1.429 . S
C851 C852 1.523 . S
C852 C833 1.368 . S
C852 C846 1.368 1_655 S
C852 C851 1.523 . S
C853 C837 1.428 1_455 S
C853 C849 1.429 . S
C853 C854 1.523 . S
C854 C838 1.368 . S
C854 C850 1.368 1_455 S
C854 C853 1.523 . S
H855 C830 0.950 1_455 S
H856 C832 0.952 . S
H857 C833 0.949 . S
H858 C835 0.950 1_655 S
H859 C837 0.951 . S
C860 C861 1.349 . S
C860 C862 1.327 . S
C860 H885 0.950 . S
C861 C860 1.349 . S
C861 C877 1.349 . S
C862 C860 1.327 . S
C862 C881 1.429 . S
C862 H886 0.950 . S
C863 C880 1.574 . S
C863 C882 1.368 1_455 S
C863 H887 0.949 . S
H864 C868 0.949 . S
C865 C866 1.349 . S
C865 C867 1.327 . S
C865 H888 0.950 . S
C866 C865 1.349 . S
C866 C878 1.349 . S
C867 C865 1.327 . S
C867 C883 1.429 . S
C867 H889 0.950 . S
C868 H864 0.949 . S
C868 C876 1.574 . S
C868 C884 1.368 1_655 S
H869 C877 0.950 . S
H870 C875 0.950 1_455 S
H871 C876 0.949 . S
H872 C878 0.950 . S
H873 C879 0.950 1_655 S
H874 C880 0.949 . S
C875 H870 0.950 1_655 S
C875 C877 1.327 . S
C875 C881 1.429 . S
C876 C868 1.574 . S
C876 H871 0.949 . S
C876 C882 1.368 . S
C877 C861 1.349 . S
C877 H869 0.950 . S
C877 C875 1.327 . S
C878 C866 1.349 . S
C878 H872 0.950 . S
C878 C879 1.327 . S
C879 H873 0.950 1_455 S
C879 C878 1.327 . S
C879 C883 1.429 . S
C880 C863 1.574 . S
C880 H874 0.949 . S
C880 C884 1.368 . S
C881 C862 1.429 . S
C881 C875 1.429 . S
C881 C882 1.523 . S
C882 C863 1.368 1_655 S
C882 C876 1.368 . S
C882 C881 1.523 . S
C883 C867 1.429 . S
C883 C879 1.429 . S
C883 C884 1.523 . S
C884 C868 1.368 1_455 S
C884 C880 1.368 . S
C884 C883 1.523 . S
H885 C860 0.950 . S
H886 C862 0.950 . S
H887 C863 0.949 . S
H888 C865 0.950 . S
H889 C867 0.950 . S
C890 C891 1.349 . S
C890 C892 1.327 . S
C890 H915 0.950 . S
C891 C890 1.349 . S
C891 C907 1.349 . S
C892 C890 1.327 . S
C892 C911 1.429 . S
C892 H916 0.950 . S
C893 C910 1.574 . S
C893 C912 1.368 1_455 S
C893 H917 0.949 . S
H894 C898 0.949 . S
C895 C896 1.349 . S
C895 C897 1.327 . S
C895 H918 0.950 . S
C896 C895 1.349 . S
C896 C908 1.349 . S
C897 C895 1.327 . S
C897 C913 1.429 . S
C897 H919 0.950 . S
C898 H894 0.949 . S
C898 C906 1.574 . S
C898 C914 1.368 1_655 S
H899 C907 0.950 1_455 S
H900 C905 0.951 . S
H901 C906 0.949 . S
H902 C908 0.950 1_655 S
H903 C909 0.952 . S
H904 C910 0.949 . S
C905 H900 0.951 . S
C905 C907 1.327 1_455 S
C905 C911 1.427 1_455 S
C906 C898 1.574 . S
C906 H901 0.949 . S
C906 C912 1.368 . S
C907 C891 1.349 . S
C907 H899 0.950 1_655 S
C907 C905 1.327 1_655 S
C908 C896 1.349 . S
C908 H902 0.950 1_455 S
C908 C909 1.326 1_455 S
C909 H903 0.952 . S
C909 C908 1.326 1_655 S
C909 C913 1.427 1_655 S
C910 C893 1.574 . S
C910 H904 0.949 . S
C910 C914 1.368 . S
C911 C892 1.429 . S
C911 C905 1.427 1_655 S
C911 C912 1.523 . S
C912 C893 1.368 1_655 S
C912 C906 1.368 . S
C912 C911 1.523 . S
C913 C897 1.429 . S
C913 C909 1.427 1_455 S
C913 C914 1.523 . S
C914 C898 1.368 1_455 S
C914 C910 1.368 . S
C914 C913 1.523 . S
H915 C890 0.950 . S
H916 C892 0.950 . S
H917 C893 0.949 . S
H918 C895 0.950 . S
H919 C897 0.950 . S
C920 C921 1.349 . S
C920 C922 1.327 . S
C920 H945 0.950 . S
C921 C920 1.349 . S
C921 C937 1.349 . S
C922 C920 1.327 . S
C922 C941 1.429 . S
C922 H946 0.950 . S
C923 C940 1.574 . S
C923 C942 1.368 . S
C923 H947 0.949 . S
H924 C928 0.949 . S
C925 C926 1.349 . S
C925 C927 1.327 . S
C925 H948 0.950 . S
C926 C925 1.349 . S
C926 C938 1.349 . S
C927 C925 1.327 . S
C927 C943 1.429 . S
C927 H949 0.950 . S
C928 H924 0.949 . S
C928 C936 1.574 . S
C928 C944 1.368 . S
H929 C937 0.950 . S
H930 C935 0.950 . S
H931 C936 0.949 . S
H932 C938 0.950 . S
H933 C939 0.950 . S
H934 C940 0.949 . S
C935 H930 0.950 . S
C935 C937 1.327 . S
C935 C941 1.429 . S
C936 C928 1.574 . S
C936 H931 0.949 . S
C936 C942 1.368 . S
C937 C921 1.349 . S
C937 H929 0.950 . S
C937 C935 1.327 . S
C938 C926 1.349 . S
C938 H932 0.950 . S
C938 C939 1.327 . S
C939 H933 0.950 . S
C939 C938 1.327 . S
C939 C943 1.429 . S
C940 C923 1.574 . S
C940 H934 0.949 . S
C940 C944 1.368 . S
C941 C922 1.429 . S
C941 C935 1.429 . S
C941 C942 1.523 . S
C942 C923 1.368 . S
C942 C936 1.368 . S
C942 C941 1.523 . S
C943 C927 1.429 . S
C943 C939 1.429 . S
C943 C944 1.523 . S
C944 C928 1.368 . S
C944 C940 1.368 . S
C944 C943 1.523 . S
H945 C920 0.950 . S
H946 C922 0.950 . S
H947 C923 0.949 . S
H948 C925 0.950 . S
H949 C927 0.950 . S
C950 C951 1.349 . S
C950 C952 1.327 . S
C950 H975 0.950 . S
C951 C950 1.349 . S
C951 C967 1.349 . S
C952 C950 1.327 . S
C952 C971 1.429 . S
C952 H976 0.950 . S
C953 C970 1.574 . S
C953 C972 1.368 . S
C953 H977 0.949 . S
H954 C958 0.949 . S
C955 C956 1.349 . S
C955 C957 1.327 . S
C955 H978 0.950 . S
C956 C955 1.349 . S
C956 C968 1.349 . S
C957 C955 1.327 . S
C957 C973 1.429 . S
C957 H979 0.950 . S
C958 H954 0.949 . S
C958 C966 1.574 . S
C958 C974 1.368 . S
H959 C967 0.950 . S
H960 C965 0.950 . S
H961 C966 0.949 . S
H962 C968 0.950 . S
H963 C969 0.950 . S
H964 C970 0.949 . S
C965 H960 0.950 . S
C965 C967 1.327 . S
C965 C971 1.429 . S
C966 C958 1.574 . S
C966 H961 0.949 . S
C966 C972 1.368 . S
C967 C951 1.349 . S
C967 H959 0.950 . S
C967 C965 1.327 . S
C968 C956 1.349 . S
C968 H962 0.950 . S
C968 C969 1.327 . S
C969 H963 0.950 . S
C969 C968 1.327 . S
C969 C973 1.429 . S
C970 C953 1.574 . S
C970 H964 0.949 . S
C970 C974 1.368 . S
C971 C952 1.429 . S
C971 C965 1.429 . S
C971 C972 1.523 . S
C972 C953 1.368 . S
C972 C966 1.368 . S
C972 C971 1.523 . S
C973 C957 1.429 . S
C973 C969 1.429 . S
C973 C974 1.523 . S
C974 C958 1.368 . S
C974 C970 1.368 . S
C974 C973 1.523 . S
H975 C950 0.950 . S
H976 C952 0.950 . S
H977 C953 0.949 . S
H978 C955 0.950 . S
H979 C957 0.950 . S
C980 C981 1.349 . S
C980 C982 1.327 . S
C980 H1005 0.950 . S
C981 C980 1.349 . S
C981 C997 1.349 . S
C982 C980 1.327 . S
C982 C1001 1.429 . S
C982 H1006 0.950 . S
C983 C1000 1.574 . S
C983 C1002 1.368 . S
C983 H1007 0.949 . S
H984 C988 0.949 . S
C985 C986 1.349 . S
C985 C987 1.327 . S
C985 H1008 0.950 . S
C986 C985 1.349 . S
C986 C998 1.349 . S
C987 C985 1.327 . S
C987 C1003 1.429 . S
C987 H1009 0.950 . S
C988 H984 0.949 . S
C988 C996 1.574 . S
C988 C1004 1.368 . S
H989 C997 0.950 . S
H990 C995 0.950 . S
H991 C996 0.949 . S
H992 C998 0.950 . S
H993 C999 0.950 . S
H994 C1000 0.949 . S
C995 H990 0.950 . S
C995 C997 1.327 . S
C995 C1001 1.429 . S
C996 C988 1.574 . S
C996 H991 0.949 . S
C996 C1002 1.368 . S
C997 C981 1.349 . S
C997 H989 0.950 . S
C997 C995 1.327 . S
C998 C986 1.349 . S
C998 H992 0.950 . S
C998 C999 1.327 . S
C999 H993 0.950 . S
C999 C998 1.327 . S
C999 C1003 1.429 . S
C1000 C983 1.574 . S
C1000 H994 0.949 . S
C1000 C1004 1.368 . S
C1001 C982 1.429 . S
C1001 C995 1.429 . S
C1001 C1002 1.523 . S
C1002 C983 1.368 . S
C1002 C996 1.368 . S
C1002 C1001 1.523 . S
C1003 C987 1.429 . S
C1003 C999 1.429 . S
C1003 C1004 1.523 . S
C1004 C988 1.368 . S
C1004 C1000 1.368 . S
C1004 C1003 1.523 . S
H1005 C980 0.950 . S
H1006 C982 0.950 . S
H1007 C983 0.949 . S
H1008 C985 0.950 . S
H1009 C987 0.950 . S
C1010 C1011 1.349 . S
C1010 C1012 1.327 . S
C1010 H1035 0.950 . S
C1011 C1010 1.349 . S
C1011 C1027 1.349 . S
C1012 C1010 1.327 . S
C1012 C1031 1.429 . S
C1012 H1036 0.950 . S
C1013 C1030 1.574 . S
C1013 C1032 1.368 . S
C1013 H1037 0.949 . S
H1014 C1018 0.949 . S
C1015 C1016 1.349 . S
C1015 C1017 1.327 . S
C1015 H1038 0.950 . S
C1016 C1015 1.349 . S
C1016 C1028 1.349 . S
C1017 C1015 1.327 . S
C1017 C1033 1.429 . S
C1017 H1039 0.950 . S
C1018 H1014 0.949 . S
C1018 C1026 1.574 . S
C1018 C1034 1.368 . S
H1019 C1027 0.950 . S
H1020 C1025 0.950 . S
H1021 C1026 0.949 . S
H1022 C1028 0.950 . S
H1023 C1029 0.950 . S
H1024 C1030 0.949 . S
C1025 H1020 0.950 . S
C1025 C1027 1.327 . S
C1025 C1031 1.429 . S
C1026 C1018 1.574 . S
C1026 H1021 0.949 . S
C1026 C1032 1.368 . S
C1027 C1011 1.349 . S
C1027 H1019 0.950 . S
C1027 C1025 1.327 . S
C1028 C1016 1.349 . S
C1028 H1022 0.950 . S
C1028 C1029 1.327 . S
C1029 H1023 0.950 . S
C1029 C1028 1.327 . S
C1029 C1033 1.429 . S
C1030 C1013 1.574 . S
C1030 H1024 0.949 . S
C1030 C1034 1.368 . S
C1031 C1012 1.429 . S
C1031 C1025 1.429 . S
C1031 C1032 1.523 . S
C1032 C1013 1.368 . S
C1032 C1026 1.368 . S
C1032 C1031 1.523 . S
C1033 C1017 1.429 . S
C1033 C1029 1.429 . S
C1033 C1034 1.523 . S
C1034 C1018 1.368 . S
C1034 C1030 1.368 . S
C1034 C1033 1.523 . S
H1035 C1010 0.950 . S
H1036 C1012 0.950 . S
H1037 C1013 0.949 . S
H1038 C1015 0.950 . S
H1039 C1017 0.950 . S
C321 C31 2.342 . S
C326 C12 2.342 . S
C351 C71 2.342 . S
C356 C52 2.342 . S
C381 C111 2.342 . S
C386 C92 2.342 . S
C411 C151 2.342 . S
C416 C132 2.342 . S
C441 C191 2.342 . S
C446 C172 2.342 . S
C471 C212 2.342 . S
C476 C231 2.342 . S
C501 C271 2.342 . S
C506 C252 2.342 . S
C531 C292 2.342 . S
C536 C311 2.342 . S
C561 C48 2.401 . S
C566 C29 2.402 . S
C591 C149 2.401 . S
C596 C88 2.401 . S
C621 C189 2.401 . S
C626 C208 2.401 . S
C651 C248 2.402 . S
C656 C309 2.402 . S
C681 C8 1.739 . S
C686 C229 1.739 . S
C711 C168 1.739 . S
C716 C69 1.739 . S
C741 C109 1.739 . S
C746 C288 1.739 . S
C771 C128 1.739 . S
C776 C269 1.739 . S
C801 C17 1.587 . S
C806 C137 1.587 . S
C831 C57 1.519 . S
C836 C97 1.519 . S
C861 C42 1.587 . S
C866 C82 1.587 . S
C891 C122 1.519 . S
C896 C2 1.519 . S
C921 C177 1.587 . S
C926 C297 1.587 . S
C951 C217 1.519 . S
C956 C257 1.519 . S
C981 C202 1.587 . S
C986 C242 1.587 . S
C1011 C282 1.519 . S
C1016 C162 1.519 . S
