# Generated by pormake.
# Topology qtz-e, (6)-cn, num edge types: 1
# Building blocks:
#     Node 0, Type 0, BuildingBlock: CIFDUS_clean_sbu_1, # of connection points: 6
#     Node 1, Type 0, BuildingBlock: CIFDUS_clean_sbu_1, # of connection points: 6
#     Node 2, Type 0, BuildingBlock: CIFDUS_clean_sbu_1, # of connection points: 6
#     Node 3, Type 0, BuildingBlock: CIFDUS_clean_sbu_1, # of connection points: 6
#     Node 4, Type 0, BuildingBlock: CIFDUS_clean_sbu_1, # of connection points: 6
#     Node 5, Type 0, BuildingBlock: CIFDUS_clean_sbu_1, # of connection points: 6
#     Edge 6, Type (0, 0), BuildingBlock: UVAHIK_clean_linker_0, # of connection points: 2
#     Edge 7, Type (0, 0), BuildingBlock: UVAHIK_clean_linker_0, # of connection points: 2
#     Edge 8, Type (0, 0), BuildingBlock: UVAHIK_clean_linker_0, # of connection points: 2
#     Edge 9, Type (0, 0), BuildingBlock: UVAHIK_clean_linker_0, # of connection points: 2
#     Edge 10, Type (0, 0), BuildingBlock: UVAHIK_clean_linker_0, # of connection points: 2
#     Edge 11, Type (0, 0), BuildingBlock: UVAHIK_clean_linker_0, # of connection points: 2
#     Edge 12, Type (0, 0), BuildingBlock: UVAHIK_clean_linker_0, # of connection points: 2
#     Edge 13, Type (0, 0), BuildingBlock: UVAHIK_clean_linker_0, # of connection points: 2
#     Edge 14, Type (0, 0), BuildingBlock: UVAHIK_clean_linker_0, # of connection points: 2
#     Edge 15, Type (0, 0), BuildingBlock: UVAHIK_clean_linker_0, # of connection points: 2
#     Edge 16, Type (0, 0), BuildingBlock: UVAHIK_clean_linker_0, # of connection points: 2
#     Edge 17, Type (0, 0), BuildingBlock: UVAHIK_clean_linker_0, # of connection points: 2
#     Edge 18, Type (0, 0), BuildingBlock: UVAHIK_clean_linker_0, # of connection points: 2
#     Edge 19, Type (0, 0), BuildingBlock: UVAHIK_clean_linker_0, # of connection points: 2
#     Edge 20, Type (0, 0), BuildingBlock: UVAHIK_clean_linker_0, # of connection points: 2
#     Edge 21, Type (0, 0), BuildingBlock: UVAHIK_clean_linker_0, # of connection points: 2
#     Edge 22, Type (0, 0), BuildingBlock: UVAHIK_clean_linker_0, # of connection points: 2
#     Edge 23, Type (0, 0), BuildingBlock: UVAHIK_clean_linker_0, # of connection points: 2
# Relax obj value: 0.336
# Max RMSD: 0.228
# Mean RMSD: 0.228
data_MOF--net-qtz-e--node1-CIFDUS_clean_sbu_1--edge1-UVAHIK_clean_linker_0
_symmetry_space_group_name_H-M    P1
_symmetry_Int_Tables_number       1
_symmetry_cell_setting            triclinic
loop_
_symmetry_equiv_pos_as_xyz
'x, y, z'
_cell_length_a     35.662296
_cell_length_b     35.614825
_cell_length_c     39.438019
_cell_angle_alpha  89.911793
_cell_angle_beta   90.118755
_cell_angle_gamma 120.013
loop_
_atom_site_label
_atom_site_type_symbol
_atom_site_fract_x
_atom_site_fract_y
_atom_site_fract_z
_atom_type_partial_charge
O0 O 0.27216 0.44849 0.03287 0.0
Mn1 Mn 0.22766 0.45805 0.00482 0.0
O2 O 0.32121 0.51429 0.05348 0.0
Mn3 Mn 0.31226 0.54629 0.02068 0.0
O4 O 0.18381 0.46838 0.97768 0.0
O5 O 0.19904 0.39701 0.9885 0.0
Mn6 Mn 0.14223 0.37045 0.99169 0.0
O7 O 0.18703 0.43925 0.04743 0.0
O8 O 0.12564 0.40361 0.96555 0.0
O9 O 0.26886 0.47665 0.96311 0.0
O10 O 0.32869 0.53973 0.97728 0.0
O11 O 0.15648 0.33105 0.97311 0.0
O12 O 0.13286 0.37082 0.03788 0.0
C13 C 0.25614 0.55417 0.02735 0.0
C14 C 0.30402 0.47305 0.05254 0.0
C15 C 0.14644 0.44507 0.964 0.0
C16 C 0.19598 0.36249 0.97573 0.0
C17 C 0.15347 0.40381 0.05704 0.0
C18 C 0.30718 0.50819 0.95687 0.0
O19 O 0.25578 0.51926 0.01942 0.0
O20 O 0.29482 0.58667 0.03112 0.0
O21 O 0.81165 0.25649 0.33673 0.0
Mn22 Mn 0.76836 0.20071 0.31033 0.0
O23 O 0.78781 0.30378 0.32566 0.0
Mn24 Mn 0.74024 0.2699 0.29794 0.0
O25 O 0.72337 0.14727 0.2838 0.0
O26 O 0.81216 0.18121 0.30541 0.0
Mn27 Mn 0.78771 0.12483 0.31408 0.0
O28 O 0.74648 0.16622 0.35626 0.0
O29 O 0.74131 0.0953 0.28397 0.0
O30 O 0.79083 0.23404 0.2642 0.0
O31 O 0.75203 0.26648 0.2528 0.0
O32 O 0.84452 0.14383 0.30186 0.0
O33 O 0.77195 0.11973 0.35925 0.0
C34 C 0.68898 0.21688 0.32537 0.0
C35 C 0.81358 0.29344 0.34019 0.0
C36 C 0.71652 0.10983 0.27499 0.0
C37 C 0.84768 0.18147 0.29854 0.0
C38 C 0.75224 0.13784 0.37214 0.0
C39 C 0.77864 0.25431 0.24406 0.0
O40 O 0.72346 0.21833 0.31418 0.0
O41 O 0.68498 0.24935 0.31559 0.0
O42 O 0.56045 0.82602 0.6846 0.0
Mn43 Mn 0.55543 0.77421 0.65553 0.0
O44 O 0.4931 0.80314 0.70454 0.0
Mn45 Mn 0.46436 0.75844 0.6741 0.0
O46 O 0.54821 0.72179 0.62761 0.0
O47 O 0.61435 0.81369 0.63547 0.0
Mn48 Mn 0.64261 0.78461 0.63249 0.0
O49 O 0.58352 0.75788 0.69563 0.0
O50 O 0.61126 0.7369 0.60428 0.0
O51 O 0.52897 0.79132 0.61531 0.0
O52 O 0.46176 0.77517 0.63004 0.0
O53 O 0.67914 0.83925 0.61545 0.0
O54 O 0.6482 0.77015 0.67656 0.0
C55 C 0.46243 0.69842 0.68475 0.0
C56 C 0.53362 0.83026 0.70385 0.0
C57 C 0.57071 0.71179 0.60836 0.0
C58 C 0.64772 0.8465 0.62192 0.0
C59 C 0.61942 0.75792 0.69969 0.0
C60 C 0.49305 0.79007 0.60899 0.0
O61 O 0.49587 0.73316 0.67359 0.0
O62 O 0.42858 0.70242 0.68878 0.0
O63 O 0.7216 0.54565 0.03043 0.0
Mn64 Mn 0.77966 0.56578 0.00436 0.0
O65 O 0.68273 0.47265 0.02399 0.0
Mn66 Mn 0.71612 0.46721 0.99044 0.0
O67 O 0.83608 0.58359 0.97872 0.0
O68 O 0.79257 0.62674 0.00343 0.0
Mn69 Mn 0.8458 0.66469 0.0158 0.0
O70 O 0.81261 0.57715 0.05132 0.0
O71 O 0.88298 0.65405 0.98876 0.0
O72 O 0.74718 0.55636 0.95826 0.0
O73 O 0.71033 0.48467 0.94738 0.0
O74 O 0.82011 0.69504 0.99739 0.0
O75 O 0.84438 0.6494 0.0608 0.0
C76 C 0.77746 0.47457 0.00601 0.0
C77 C 0.6886 0.5081 0.03699 0.0
C78 C 0.87319 0.61761 0.97524 0.0
C79 C 0.7874 0.65714 0.99118 0.0
C80 C 0.83297 0.61091 0.07058 0.0
C81 C 0.72333 0.5239 0.93911 0.0
O82 O 0.7686 0.5052 0.00349 0.0
O83 O 0.7455 0.437 0.99774 0.0
O84 O 0.15596 0.72536 0.36493 0.0
Mn85 Mn 0.20863 0.776 0.33918 0.0
O86 O 0.17425 0.6742 0.37487 0.0
Mn87 Mn 0.2156 0.69241 0.34128 0.0
O88 O 0.26083 0.82502 0.31398 0.0
O89 O 0.17265 0.80328 0.32881 0.0
Mn90 Mn 0.20216 0.85989 0.33543 0.0
O91 O 0.22952 0.81041 0.3853 0.0
O92 O 0.25062 0.88176 0.307 0.0
O93 O 0.18831 0.74326 0.29339 0.0
O94 O 0.19435 0.68335 0.29709 0.0
O95 O 0.14766 0.84595 0.31903 0.0
O96 O 0.21462 0.86494 0.38147 0.0
C97 C 0.27946 0.74605 0.35233 0.0
C98 C 0.14959 0.69012 0.37929 0.0
C99 C 0.27267 0.86289 0.30235 0.0
C100 C 0.14029 0.80653 0.31798 0.0
C101 C 0.22794 0.84296 0.39805 0.0
C102 C 0.18409 0.70809 0.28111 0.0
O103 O 0.24536 0.74896 0.34714 0.0
O104 O 0.27214 0.70667 0.35055 0.0
O105 O 0.44969 0.17385 0.71196 0.0
Mn106 Mn 0.44587 0.22075 0.6821 0.0
O107 O 0.51727 0.20658 0.73377 0.0
Mn108 Mn 0.54135 0.2511 0.70251 0.0
O109 O 0.44355 0.26756 0.65245 0.0
O110 O 0.38912 0.17528 0.66321 0.0
Mn111 Mn 0.35128 0.19351 0.66161 0.0
O112 O 0.41452 0.23298 0.72186 0.0
O113 O 0.37571 0.24245 0.63358 0.0
O114 O 0.47667 0.208 0.64279 0.0
O115 O 0.54598 0.23381 0.65913 0.0
O116 O 0.32422 0.13772 0.64361 0.0
O117 O 0.34454 0.2044 0.70655 0.0
C118 C 0.53152 0.3054 0.70966 0.0
C119 C 0.4788 0.1744 0.73176 0.0
C120 C 0.4157 0.27161 0.63457 0.0
C121 C 0.36086 0.13964 0.64918 0.0
C122 C 0.37524 0.2234 0.72807 0.0
C123 C 0.51512 0.21468 0.63778 0.0
O124 O 0.50273 0.26753 0.69944 0.0
O125 O 0.56885 0.30898 0.71544 0.0
C126 C 0.19514 0.71759 0.21919 0.0
C127 C 0.16781 0.6961 0.24647 0.0
C128 C 0.18247 0.70198 0.1863 0.0
C129 C 0.10936 0.59714 0.14442 0.0
H130 H 0.18084 0.66478 0.06923 0.0
C131 C 0.19433 0.53419 0.06526 0.0
C132 C 0.21775 0.55665 0.0366 0.0
C133 C 0.16621 0.54539 0.08075 0.0
C134 C 0.15936 0.64487 0.08923 0.0
H135 H 0.10482 0.6441 0.26146 0.0
H136 H 0.08087 0.61846 0.20374 0.0
H137 H 0.17049 0.70116 0.11654 0.0
H138 H 0.22796 0.60556 -0.00051 0.0
H139 H 0.17601 0.62296 0.02473 0.0
H140 H 0.09662 0.54076 0.11642 0.0
C141 C 0.11296 0.64604 0.20742 0.0
C142 C 0.15422 0.66609 0.11701 0.0
C143 C 0.12633 0.6609 0.24048 0.0
C144 C 0.2099 0.58777 0.02167 0.0
C145 C 0.1805 0.598 0.03645 0.0
C146 C 0.11303 0.57584 0.11602 0.0
C147 C 0.14166 0.66501 0.17995 0.0
C148 C 0.13278 0.64275 0.14635 0.0
C149 C 0.16042 0.57899 0.06752 0.0
C150 C 0.14167 0.59955 0.08961 0.0
H151 H 0.22736 0.74481 0.22352 0.0
H152 H 0.20617 0.71738 0.16639 0.0
H153 H 0.09145 0.57744 0.16588 0.0
H154 H 0.2011 0.51114 0.07778 0.0
H155 H 0.1525 0.5303 0.10485 0.0
C156 C 0.55873 0.18973 0.60609 0.0
C157 C 0.52442 0.19842 0.60643 0.0
C158 C 0.57018 0.17733 0.57625 0.0
C159 C 0.54038 0.13816 0.48936 0.0
H160 H 0.66067 0.22194 0.47117 0.0
C161 C 0.6198 0.17395 0.35642 0.0
C162 C 0.66479 0.19146 0.35488 0.0
C163 C 0.59844 0.16209 0.38767 0.0
C164 C 0.62741 0.1973 0.47598 0.0
H165 H 0.47385 0.19897 0.57623 0.0
H166 H 0.49422 0.17724 0.52352 0.0
H167 H 0.62944 0.22363 0.52486 0.0
H168 H 0.72277 0.21137 0.38459 0.0
H169 H 0.68555 0.18612 0.43806 0.0
H170 H 0.53858 0.11189 0.44006 0.0
C171 C 0.51174 0.17964 0.54664 0.0
C172 C 0.60943 0.19862 0.50678 0.0
C173 C 0.50024 0.19218 0.57668 0.0
C174 C 0.68776 0.1949 0.3846 0.0
C175 C 0.66645 0.18202 0.41554 0.0
C176 C 0.55869 0.13633 0.45843 0.0
C177 C 0.54764 0.17343 0.54609 0.0
C178 C 0.56581 0.16934 0.51371 0.0
C179 C 0.62198 0.16782 0.41777 0.0
C180 C 0.60246 0.16612 0.45136 0.0
H181 H 0.57742 0.19337 0.6288 0.0
H182 H 0.59777 0.17234 0.57643 0.0
H183 H 0.50656 0.11529 0.4943 0.0
H184 H 0.60174 0.17247 0.33384 0.0
H185 H 0.5643 0.15184 0.3884 0.0
C186 C 0.30662 0.49398 0.89453 0.0
C187 C 0.32903 0.50745 0.92541 0.0
C188 C 0.32909 0.49776 0.86447 0.0
C189 C 0.43824 0.56748 0.831 0.0
H190 H 0.38626 0.50307 0.74858 0.0
C191 C 0.49648 0.658 0.7103 0.0
C192 C 0.461 0.65776 0.69477 0.0
C193 C 0.49011 0.62369 0.73144 0.0
C194 C 0.40159 0.52115 0.77142 0.0
H195 H 0.39133 0.5312 0.94985 0.0
H196 H 0.43026 0.53665 0.89778 0.0
H197 H 0.35351 0.47189 0.80337 0.0
H198 H 0.39252 0.61825 0.68381 0.0
H199 H 0.38105 0.5593 0.72072 0.0
H200 H 0.48437 0.61791 0.79957 0.0
C201 C 0.39578 0.5247 0.89634 0.0
C202 C 0.38267 0.50338 0.8028 0.0
C203 C 0.37352 0.52168 0.92616 0.0
C204 C 0.42041 0.61976 0.69619 0.0
C205 C 0.41392 0.58559 0.71726 0.0
C206 C 0.45703 0.58518 0.7998 0.0
C207 C 0.37425 0.51452 0.86492 0.0
C208 C 0.39948 0.52743 0.83279 0.0
C209 C 0.44801 0.58887 0.73739 0.0
C210 C 0.43746 0.56344 0.76945 0.0
H211 H 0.27222 0.48261 0.8934 0.0
H212 H 0.31143 0.48996 0.84075 0.0
H213 H 0.45215 0.58722 0.85341 0.0
H214 H 0.5281 0.68626 0.70931 0.0
H215 H 0.51742 0.62663 0.74575 0.0
C216 C 0.84607 0.29868 0.21128 0.0
C217 C 0.80104 0.27096 0.21161 0.0
C218 C 0.86645 0.3242 0.1828 0.0
C219 C 0.84839 0.34425 0.09321 0.0
H220 H 0.90557 0.46496 0.1206 0.0
C221 C 0.83842 0.46032 0.00462 0.0
C222 C 0.81671 0.47862 0.0213 0.0
C223 C 0.86266 0.44641 0.02317 0.0
C224 C 0.89044 0.43152 0.11235 0.0
H225 H 0.74213 0.24601 0.18223 0.0
H226 H 0.7775 0.28959 0.13215 0.0
H227 H 0.89445 0.40943 0.16194 0.0
H228 H 0.806 0.50038 0.06945 0.0
H229 H 0.84777 0.47624 0.10198 0.0
H230 H 0.84042 0.36549 0.04465 0.0
C231 C 0.79741 0.29162 0.15363 0.0
C232 C 0.88433 0.39965 0.13599 0.0
C233 C 0.77703 0.26671 0.18228 0.0
C234 C 0.82356 0.48751 0.05599 0.0
C235 C 0.84741 0.47327 0.07464 0.0
C236 C 0.85441 0.37602 0.06963 0.0
C237 C 0.84207 0.32196 0.15408 0.0
C238 C 0.86076 0.35549 0.12714 0.0
C239 C 0.86442 0.4496 0.05876 0.0
C240 C 0.87294 0.41974 0.07953 0.0
H241 H 0.86482 0.30351 0.23403 0.0
H242 H 0.90074 0.34755 0.18395 0.0
H243 H 0.83085 0.31053 0.08555 0.0
H244 H 0.83319 0.45294 0.97779 0.0
H245 H 0.87618 0.42918 0.01008 0.0
C246 C 0.52316 0.83146 0.55451 0.0
C247 C 0.48822 0.80908 0.57697 0.0
C248 C 0.51856 0.85132 0.52535 0.0
C249 C 0.43956 0.87704 0.48252 0.0
H250 H 0.4823 0.85122 0.40089 0.0
C251 C 0.33001 0.8232 0.37076 0.0
C252 C 0.32292 0.78231 0.36095 0.0
C253 C 0.36868 0.85265 0.38701 0.0
C254 C 0.47017 0.85895 0.4234 0.0
H255 H 0.42087 0.78967 0.58596 0.0
H256 H 0.41213 0.82156 0.53487 0.0
H257 H 0.51371 0.85018 0.45514 0.0
H258 H 0.35331 0.74303 0.35521 0.0
H259 H 0.41881 0.79237 0.38418 0.0
H260 H 0.39211 0.87985 0.45164 0.0
C261 C 0.44385 0.82592 0.54023 0.0
C262 C 0.48868 0.85891 0.45466 0.0
C263 C 0.44862 0.80675 0.56944 0.0
C264 C 0.3572 0.7738 0.36344 0.0
C265 C 0.39545 0.80279 0.37977 0.0
C266 C 0.42012 0.87563 0.45146 0.0
C267 C 0.47868 0.8486 0.51773 0.0
C268 C 0.47097 0.86427 0.48484 0.0
C269 C 0.40055 0.84131 0.39399 0.0
C270 C 0.43259 0.86252 0.42197 0.0
H271 H 0.5541 0.83374 0.55941 0.0
H272 H 0.54612 0.86844 0.50868 0.0
H273 H 0.4268 0.88383 0.50514 0.0
H274 H 0.30488 0.83139 0.3681 0.0
H275 H 0.37204 0.88274 0.39642 0.0
C276 C 0.6798 0.54849 0.90626 0.0
C277 C 0.70756 0.53118 0.90679 0.0
C278 C 0.65717 0.54652 0.87661 0.0
C279 C 0.64578 0.51484 0.78512 0.0
H280 H 0.52323 0.44952 0.80566 0.0
C281 C 0.54511 0.37953 0.69879 0.0
C282 C 0.52389 0.34114 0.71774 0.0
C283 C 0.55502 0.41919 0.71348 0.0
C284 C 0.55727 0.46806 0.79924 0.0
H285 H 0.7353 0.50024 0.87708 0.0
H286 H 0.69634 0.49673 0.82549 0.0
H287 H 0.57428 0.49413 0.84936 0.0
H288 H 0.49439 0.31341 0.76573 0.0
H289 H 0.51183 0.38147 0.79178 0.0
H290 H 0.63 0.48508 0.73662 0.0
C291 C 0.69225 0.51261 0.84741 0.0
C292 C 0.5866 0.49419 0.82427 0.0
C293 C 0.71442 0.51425 0.877 0.0
C294 C 0.50893 0.34229 0.75021 0.0
C295 C 0.51955 0.38187 0.76522 0.0
C296 C 0.61664 0.48826 0.76033 0.0
C297 C 0.66213 0.52723 0.84714 0.0
C298 C 0.63142 0.51499 0.8182 0.0
C299 C 0.54582 0.42119 0.74794 0.0
C300 C 0.57236 0.46166 0.76802 0.0
H301 H 0.67362 0.56108 0.92927 0.0
H302 H 0.63428 0.55809 0.8772 0.0
H303 H 0.68008 0.53166 0.77938 0.0
H304 H 0.55793 0.37952 0.67392 0.0
H305 H 0.57402 0.44855 0.69895 0.0
C306 C 0.347 0.47311 0.10202 0.0
C307 C 0.3274 0.45501 0.07079 0.0
C308 C 0.38134 0.4685 0.11393 0.0
C309 C 0.47531 0.49561 0.10944 0.0
H310 H 0.50233 0.40765 0.08157 0.0
C311 C 0.64054 0.53594 0.0568 0.0
C312 C 0.65352 0.50479 0.0587 0.0
C313 C 0.60122 0.52744 0.07114 0.0
C314 C 0.49546 0.43238 0.09032 0.0
H315 H 0.32454 0.41387 0.02937 0.0
H316 H 0.38529 0.40689 0.04934 0.0
H317 H 0.42715 0.38945 0.08569 0.0
H318 H 0.63843 0.44266 0.08004 0.0
H319 H 0.57074 0.42853 0.10609 0.0
H320 H 0.5436 0.53869 0.1136 0.0
C321 C 0.37404 0.42405 0.06518 0.0
C322 C 0.45221 0.42198 0.09227 0.0
C323 C 0.33909 0.42798 0.05363 0.0
C324 C 0.62872 0.46693 0.0778 0.0
C325 C 0.58984 0.45872 0.09253 0.0
C326 C 0.5185 0.50587 0.1078 0.0
C327 C 0.39729 0.4466 0.09434 0.0
C328 C 0.44167 0.45398 0.1004 0.0
C329 C 0.57459 0.4879 0.08801 0.0
C330 C 0.52916 0.47493 0.09678 0.0
H331 H 0.3381 0.49376 0.11585 0.0
H332 H 0.39757 0.48505 0.13706 0.0
H333 H 0.4687 0.52136 0.11555 0.0
H334 H 0.65901 0.56528 0.04206 0.0
H335 H 0.59041 0.55057 0.06689 0.0
C336 C 0.06936 0.64979 0.38083 0.0
C337 C 0.10879 0.66188 0.39706 0.0
C338 C 0.03234 0.61072 0.38936 0.0
C339 C 0.95649 0.52421 0.41057 0.0
H340 H 0.99201 0.43755 0.41479 0.0
C341 C 0.83299 0.34673 0.38637 0.0
C342 C 0.84626 0.32648 0.3626 0.0
C343 C 0.86331 0.38471 0.4025 0.0
C344 C 0.98149 0.46128 0.41374 0.0
H345 H 0.13949 0.64665 0.43801 0.0
H346 H 0.07448 0.57959 0.45408 0.0
H347 H 0.04546 0.51357 0.42271 0.0
H348 H 0.90131 0.32799 0.33837 0.0
H349 H 0.95473 0.39537 0.3658 0.0
H350 H 0.89318 0.47225 0.39895 0.0
C351 C 0.07229 0.59907 0.43389 0.0
C352 C 0.01203 0.50493 0.41882 0.0
C353 C 0.10936 0.63772 0.42501 0.0
C354 C 0.89052 0.34296 0.35689 0.0
C355 C 0.92098 0.38151 0.37267 0.0
C356 C 0.926 0.48057 0.40531 0.0
C357 C 0.03427 0.5836 0.41455 0.0
C358 C 0.00017 0.5371 0.41622 0.0
C359 C 0.90749 0.40373 0.39462 0.0
C360 C 0.93842 0.44873 0.40579 0.0
H361 H 0.06821 0.6677 0.35903 0.0
H362 H 0.00365 0.59992 0.37389 0.0
H363 H 0.94618 0.54805 0.40875 0.0
H364 H 0.79886 0.33423 0.39125 0.0
H365 H 0.8519 0.40031 0.4199 0.0
C366 C 0.44639 0.09397 0.73197 0.0
C367 C 0.47165 0.13407 0.74817 0.0
C368 C 0.45251 0.05904 0.7397 0.0
C369 C 0.46968 0.98755 0.76614 0.0
H370 H 0.59243 0.02896 0.75438 0.0
C371 C 0.52794 0.86677 0.75504 0.0
C372 C 0.54742 0.87016 0.7234 0.0
C373 C 0.52544 0.90172 0.7682 0.0
C374 C 0.55821 0.01702 0.75812 0.0
H375 H 0.51827 0.16729 0.7884 0.0
H376 H 0.52874 0.10636 0.8018 0.0
H377 H 0.56711 0.081 0.76036 0.0
H378 H 0.58406 0.91382 0.6826 0.0
H379 H 0.58018 0.9755 0.70585 0.0
H380 H 0.46057 0.92361 0.76266 0.0
C381 C 0.50506 0.10218 0.78272 0.0
C382 C 0.54369 0.04668 0.76177 0.0
C383 C 0.49881 0.1369 0.77516 0.0
C384 C 0.56927 0.91061 0.70721 0.0
C385 C 0.56675 0.94577 0.72043 0.0
C386 C 0.48426 0.95791 0.76301 0.0
C387 C 0.48388 0.06387 0.7637 0.0
C388 C 0.49919 0.0322 0.76505 0.0
C389 C 0.54243 0.94063 0.74992 0.0
C390 C 0.52856 0.97237 0.75823 0.0
H391 H 0.42532 0.09086 0.71101 0.0
H392 H 0.43565 0.02971 0.72472 0.0
H393 H 0.43528 0.97562 0.76853 0.0
H394 H 0.511 0.83582 0.76801 0.0
H395 H 0.50725 0.89723 0.79129 0.0
C396 C 0.57062 0.65447 0.57088 0.0
C397 C 0.54953 0.66718 0.59438 0.0
C398 C 0.55283 0.61072 0.562 0.0
C399 C 0.45427 0.50032 0.57537 0.0
H400 H 0.53895 0.46276 0.57079 0.0
C401 C 0.40245 0.32054 0.59612 0.0
C402 C 0.43062 0.31329 0.61649 0.0
C403 C 0.41608 0.36166 0.58226 0.0
C404 C 0.51475 0.47255 0.57231 0.0
H405 H 0.49205 0.64398 0.62566 0.0
H406 H 0.46255 0.56864 0.61176 0.0
H407 H 0.56279 0.53926 0.56761 0.0
H408 H 0.4959 0.34309 0.63661 0.0
H409 H 0.51865 0.41442 0.61464 0.0
H410 H 0.40677 0.43401 0.58354 0.0
C411 C 0.49201 0.59197 0.59909 0.0
C412 C 0.52842 0.51669 0.56977 0.0
C413 C 0.50929 0.63555 0.60741 0.0
C414 C 0.47314 0.34751 0.62141 0.0
C415 C 0.48646 0.38859 0.60822 0.0
C416 C 0.44074 0.45628 0.5788 0.0
C417 C 0.51397 0.57863 0.57691 0.0
C418 C 0.49857 0.53142 0.57261 0.0
C419 C 0.45797 0.3966 0.5889 0.0
C420 C 0.47103 0.44194 0.57867 0.0
H421 H 0.60148 0.67808 0.56013 0.0
H422 H 0.57027 0.602 0.5442 0.0
H423 H 0.43001 0.51007 0.57647 0.0
H424 H 0.3696 0.29476 0.59145 0.0
H425 H 0.39343 0.36616 0.56693 0.0
C426 C 0.08329 0.44391 0.93458 0.0
C427 C 0.12445 0.46753 0.94957 0.0
C428 C 0.05932 0.46413 0.92685 0.0
C429 C 0.06397 0.57181 0.92382 0.0
H430 H 0.94363 0.50174 0.95019 0.0
C431 C 0.9506 0.6367 0.96709 0.0
C432 C 0.90671 0.61177 0.95796 0.0
C433 C 0.98007 0.62353 0.95738 0.0
C434 C 0.97697 0.5216 0.94214 0.0
H435 H 0.17412 0.53178 0.96531 0.0
H436 H 0.13179 0.56642 0.95354 0.0
H437 H 0.98927 0.46937 0.94876 0.0
H438 H 0.8603 0.55639 0.92851 0.0
H439 H 0.91157 0.53388 0.9115 0.0
H440 H 0.05148 0.6247 0.91906 0.0
C441 C 0.11803 0.53247 0.94719 0.0
C442 C 0.00323 0.50296 0.94117 0.0
C443 C 0.14226 0.51242 0.95432 0.0
C444 C 0.89378 0.57597 0.93636 0.0
C445 C 0.92309 0.56293 0.9267 0.0
C446 C 0.03765 0.59066 0.92517 0.0
C447 C 0.07563 0.50826 0.93443 0.0
C448 C 0.04719 0.52779 0.93224 0.0
C449 C 0.96601 0.58535 0.93839 0.0
C450 C 0.99392 0.56571 0.93451 0.0
H451 H 0.06879 0.40942 0.93004 0.0
H452 H 0.02731 0.4447 0.91605 0.0
H453 H 0.09753 0.59186 0.91648 0.0
H454 H 0.96148 0.66433 0.98381 0.0
H455 H 0.013 0.64141 0.96678 0.0
C456 C 0.34172 0.8673 0.28362 0.0
C457 C 0.31524 0.88617 0.28503 0.0
C458 C 0.3838 0.89051 0.27105 0.0
C459 C 0.47113 0.00329 0.25959 0.0
H460 H 0.53045 0.94781 0.21969 0.0
C461 C 0.6532 0.09981 0.24112 0.0
C462 C 0.67492 0.08123 0.25776 0.0
C463 C 0.60931 0.07478 0.23324 0.0
C464 C 0.51423 0.96373 0.23065 0.0
H465 H 0.31156 0.94347 0.27219 0.0
H466 H 0.38485 0.9837 0.24924 0.0
H467 H 0.45174 0.90688 0.22626 0.0
H468 H 0.66881 0.02098 0.27599 0.0
H469 H 0.59185 0.97709 0.26222 0.0
H470 H 0.5335 0.05979 0.26459 0.0
C471 C 0.37331 0.95123 0.25882 0.0
C472 C 0.46919 0.94032 0.23457 0.0
C473 C 0.33118 0.92809 0.27179 0.0
C474 C 0.65298 0.03619 0.26313 0.0
C475 C 0.60886 0.01107 0.25527 0.0
C476 C 0.51594 0.02674 0.25535 0.0
C477 C 0.40053 0.9331 0.25908 0.0
C478 C 0.44721 0.95948 0.24996 0.0
C479 C 0.58618 0.03064 0.24185 0.0
C480 C 0.53812 0.00697 0.24157 0.0
H481 H 0.33063 0.83501 0.29342 0.0
H482 H 0.4038 0.87559 0.27222 0.0
H483 H 0.45566 0.01901 0.2721 0.0
H484 H 0.66941 0.13437 0.2362 0.0
H485 H 0.59287 0.09054 0.22225 0.0
C486 C 0.32299 0.23013 0.76632 0.0
C487 C 0.36482 0.23668 0.76081 0.0
C488 C 0.31326 0.24476 0.79595 0.0
C489 C 0.35896 0.32721 0.86067 0.0
H490 H 0.2515 0.25123 0.90733 0.0
C491 C 0.23612 0.32258 0.97341 0.0
C492 C 0.23239 0.35825 0.96314 0.0
C493 C 0.26307 0.31143 0.95579 0.0
C494 C 0.28208 0.27281 0.89515 0.0
H495 H 0.42836 0.26169 0.78329 0.0
H496 H 0.41177 0.28923 0.83472 0.0
H497 H 0.2767 0.2222 0.86279 0.0
H498 H 0.254 0.41062 0.92706 0.0
H499 H 0.3015 0.39167 0.89619 0.0
H500 H 0.36328 0.37832 0.89224 0.0
C501 C 0.38679 0.27285 0.81573 0.0
C502 C 0.29625 0.25617 0.8694 0.0
C503 C 0.39636 0.25739 0.78621 0.0
C504 C 0.25786 0.38416 0.93626 0.0
C505 C 0.28472 0.37293 0.91843 0.0
C506 C 0.34452 0.34407 0.88636 0.0
C507 C 0.34511 0.26667 0.82077 0.0
C508 C 0.3342 0.28335 0.85135 0.0
C509 C 0.28608 0.33526 0.9271 0.0
C510 C 0.30541 0.31716 0.90342 0.0
H511 H 0.29768 0.21424 0.74751 0.0
H512 H 0.28092 0.23984 0.79907 0.0
H513 H 0.38826 0.34886 0.84697 0.0
H514 H 0.2164 0.30194 0.99395 0.0
H515 H 0.26392 0.28264 0.96344 0.0
C516 C 0.92175 0.21259 0.27461 0.0
C517 C 0.88782 0.21905 0.28534 0.0
C518 C 0.95855 0.24597 0.25931 0.0
C519 C 0.99005 0.3397 0.20617 0.0
H520 H 0.10374 0.35145 0.21506 0.0
C521 C 0.12003 0.42544 0.10305 0.0
C522 C 0.1373 0.39988 0.09186 0.0
C523 C 0.09756 0.41602 0.13386 0.0
C524 C 0.07227 0.34881 0.21237 0.0
H525 H 0.86767 0.26682 0.2907 0.0
H526 H 0.93253 0.3257 0.26376 0.0
H527 H 0.04853 0.3113 0.25786 0.0
H528 H 0.14588 0.3454 0.10386 0.0
H529 H 0.107 0.32885 0.15747 0.0
H530 H 0.01278 0.37485 0.15963 0.0
C531 C 0.92982 0.2942 0.26671 0.0
C532 C 0.04071 0.3259 0.23691 0.0
C533 C 0.8927 0.26052 0.28208 0.0
C534 C 0.13333 0.36591 0.11234 0.0
C535 C 0.11124 0.35666 0.14312 0.0
C536 C 0.02159 0.36254 0.18154 0.0
C537 C 0.9626 0.28687 0.25441 0.0
C538 C 0.99871 0.31955 0.23331 0.0
C539 C 0.09209 0.38086 0.15388 0.0
C540 C 0.06248 0.36574 0.18362 0.0
H541 H 0.91935 0.18115 0.27695 0.0
H542 H 0.98294 0.23903 0.24985 0.0
H543 H 0.95791 0.33502 0.20256 0.0
H544 H 0.12152 0.45083 0.08705 0.0
H545 H 0.08316 0.43524 0.1414 0.0
C546 C 0.61411 0.89299 0.60844 0.0
C547 C 0.65058 0.88782 0.61115 0.0
C548 C 0.61682 0.92871 0.59096 0.0
C549 C 0.69366 0.0379 0.55766 0.0
H550 H 0.62686 0.00189 0.47441 0.0
C551 C 0.76177 0.12354 0.43217 0.0
C552 C 0.73464 0.12383 0.40656 0.0
C553 C 0.74464 0.10328 0.46317 0.0
C554 C 0.64504 0.01299 0.49784 0.0
H555 H 0.71973 0.91912 0.60178 0.0
H556 H 0.72478 0.9816 0.57302 0.0
H557 H 0.60795 0.9504 0.52105 0.0
H558 H 0.66834 0.10337 0.39303 0.0
H559 H 0.63804 0.06839 0.44774 0.0
H560 H 0.73198 0.09983 0.53412 0.0
C561 C 0.6937 0.95754 0.58319 0.0
C562 C 0.63411 0.98339 0.5246 0.0
C563 C 0.69069 0.92147 0.59958 0.0
C564 C 0.69004 0.10456 0.4128 0.0
C565 C 0.6727 0.08406 0.44393 0.0
C566 C 0.70432 0.06757 0.5311 0.0
C567 C 0.65659 0.96078 0.57745 0.0
C568 C 0.6597 0.99496 0.55407 0.0
C569 C 0.69974 0.0823 0.46923 0.0
C570 C 0.68162 0.05482 0.50016 0.0
H571 H 0.58322 0.86869 0.6183 0.0
H572 H 0.58776 0.93069 0.5872 0.0
H573 H 0.71366 0.04778 0.58026 0.0
H574 H 0.79619 0.13756 0.42769 0.0
H575 H 0.76647 0.10192 0.48161 0.0
C576 C 0.66166 0.73145 0.73214 0.0
C577 C 0.62815 0.74141 0.73166 0.0
C578 C 0.67191 0.7171 0.76164 0.0
C579 C 0.63482 0.67063 0.84692 0.0
H580 H 0.75851 0.72209 0.86154 0.0
C581 C 0.72195 0.65832 0.97005 0.0
C582 C 0.75668 0.65122 0.96405 0.0
C583 C 0.69945 0.66325 0.94275 0.0
C584 C 0.72386 0.70711 0.85771 0.0
H585 H 0.57767 0.74192 0.76187 0.0
H586 H 0.5965 0.71746 0.81432 0.0
H587 H 0.73234 0.74429 0.81306 0.0
H588 H 0.79484 0.64272 0.92552 0.0
H589 H 0.75595 0.65154 0.87791 0.0
H590 H 0.627 0.63391 0.89246 0.0
C591 C 0.61462 0.72081 0.79141 0.0
C592 C 0.70879 0.71982 0.82989 0.0
C593 C 0.60402 0.73505 0.76148 0.0
C594 C 0.76764 0.64746 0.93064 0.0
C595 C 0.74571 0.65298 0.90349 0.0
C596 C 0.65006 0.6581 0.8752 0.0
C597 C 0.64939 0.71261 0.7919 0.0
C598 C 0.66416 0.70113 0.82362 0.0
C599 C 0.71226 0.66222 0.90923 0.0
C600 C 0.69481 0.67568 0.8804 0.0
H601 H 0.68036 0.73476 0.70958 0.0
H602 H 0.69796 0.70979 0.76075 0.0
H603 H 0.60024 0.65559 0.84278 0.0
H604 H 0.71371 0.66226 0.99571 0.0
H605 H 0.67405 0.67069 0.94787 0.0
C606 C 0.09228 0.72844 0.29942 0.0
C607 C 0.10003 0.77106 0.30254 0.0
C608 C 0.05627 0.69719 0.28126 0.0
C609 C 0.94847 0.66794 0.25026 0.0
H610 H 0.97723 0.63111 0.16664 0.0
C611 C 0.84627 0.63324 0.13095 0.0
C612 C 0.84764 0.60721 0.10487 0.0
C613 C 0.86952 0.63943 0.16091 0.0
C614 C 0.96807 0.6398 0.19023 0.0
H615 H 0.07383 0.81315 0.29123 0.0
H616 H 0.01084 0.75857 0.26055 0.0
H617 H 0.03274 0.66778 0.20993 0.0
H618 H 0.87339 0.56612 0.09016 0.0
H619 H 0.91248 0.57497 0.14329 0.0
H620 H 0.88408 0.64061 0.23081 0.0
C621 C 0.03307 0.74953 0.27156 0.0
C622 C 9e-05 0.66103 0.21499 0.0
C623 C 0.06934 0.78083 0.28906 0.0
C624 C 0.87055 0.58516 0.11024 0.0
C625 C 0.89379 0.59114 0.14045 0.0
C626 C 0.91625 0.64597 0.22587 0.0
C627 C 0.02673 0.70773 0.26677 0.0
C628 C 0.99097 0.67689 0.24455 0.0
C629 C 0.8949 0.6197 0.1657 0.0
C630 C 0.92607 0.63347 0.19476 0.0
H631 H 0.114 0.71918 0.31059 0.0
H632 H 0.05152 0.66487 0.27839 0.0
H633 H 0.94058 0.67949 0.27304 0.0
H634 H 0.82923 0.65102 0.12732 0.0
H635 H 0.86985 0.6622 0.17921 0.0
C636 C 0.34812 0.06453 0.65029 0.0
C637 C 0.36924 0.10602 0.63578 0.0
C638 C 0.34264 0.02861 0.63176 0.0
C639 C 0.36643 0.99381 0.54816 0.0
H640 H 0.2454 0.90505 0.55429 0.0
C641 C 0.28089 0.85871 0.44595 0.0
C642 C 0.24378 0.85803 0.43297 0.0
C643 C 0.3001 0.881 0.4762 0.0
C644 C 0.27941 0.92926 0.55242 0.0
H645 H 0.40258 0.14307 0.59138 0.0
H646 H 0.39326 0.08086 0.55883 0.0
H647 H 0.2768 0.96096 0.59741 0.0
H648 H 0.19611 0.87746 0.44263 0.0
H649 H 0.22858 0.91499 0.49527 0.0
H650 H 0.36775 0.96318 0.50167 0.0
C651 C 0.38183 0.07567 0.58476 0.0
C652 C 0.29769 0.96122 0.57743 0.0
C653 C 0.38757 0.11157 0.60347 0.0
C654 C 0.22474 0.87748 0.4519 0.0
C655 C 0.24331 0.89887 0.48222 0.0
C656 C 0.34804 0.96164 0.52307 0.0
C657 C 0.35727 0.0334 0.598 0.0
C658 C 0.34106 0.99491 0.57507 0.0
C659 C 0.28183 0.90196 0.49435 0.0
C660 C 0.30385 0.93 0.52427 0.0
H661 H 0.33311 0.05945 0.675 0.0
H662 H 0.32441 0.99674 0.64311 0.0
H663 H 0.40005 0.01883 0.54571 0.0
H664 H 0.2963 0.84407 0.4319 0.0
H665 H 0.32965 0.88261 0.48503 0.0
loop_
_geom_bond_atom_site_label_1
_geom_bond_atom_site_label_2
_geom_bond_distance
_geom_bond_site_symmetry_2
_ccdc_geom_bond_type
O0 Mn1 2.163 1_554 S
O0 C14 1.244 . S
Mn1 O0 2.163 1_556 S
Mn1 O4 2.160 . S
Mn1 O5 2.221 . S
Mn1 O7 2.163 1_556 S
Mn1 O9 2.160 . S
Mn1 O19 2.221 1_556 S
O2 Mn3 2.087 . S
O2 C14 1.256 . S
Mn3 O2 2.087 . S
Mn3 O10 2.089 1_554 S
Mn3 O19 2.290 . S
Mn3 O20 2.251 . S
O4 Mn1 2.160 . S
O4 C15 1.239 . S
O5 Mn1 2.221 . S
O5 Mn6 2.290 . S
O5 C16 1.278 . S
Mn6 O5 2.290 . S
Mn6 O8 2.089 . S
Mn6 O11 2.251 . S
Mn6 O12 2.087 1_556 S
O7 Mn1 2.163 1_554 S
O7 C17 1.244 . S
O8 Mn6 2.089 . S
O8 C15 1.256 . S
O9 Mn1 2.160 . S
O9 C18 1.239 . S
O10 Mn3 2.089 1_556 S
O10 C18 1.256 . S
O11 Mn6 2.251 . S
O11 C16 1.241 . S
O12 Mn6 2.087 1_554 S
O12 C17 1.256 . S
C13 O19 1.278 . S
C13 O20 1.241 . S
C14 O0 1.244 . S
C14 O2 1.256 . S
C15 O4 1.239 . S
C15 O8 1.256 . S
C16 O5 1.278 . S
C16 O11 1.241 . S
C17 O7 1.244 . S
C17 O12 1.256 . S
C18 O9 1.239 . S
C18 O10 1.256 . S
O19 Mn1 2.221 1_554 S
O19 Mn3 2.290 . S
O19 C13 1.278 . S
O20 Mn3 2.251 . S
O20 C13 1.241 . S
O21 Mn22 2.163 . S
O21 C35 1.244 . S
Mn22 O21 2.163 . S
Mn22 O25 2.160 . S
Mn22 O26 2.221 . S
Mn22 O28 2.163 . S
Mn22 O30 2.160 . S
Mn22 O40 2.221 . S
O23 Mn24 2.087 . S
O23 C35 1.256 . S
Mn24 O23 2.087 . S
Mn24 O31 2.089 . S
Mn24 O40 2.290 . S
Mn24 O41 2.251 . S
O25 Mn22 2.160 . S
O25 C36 1.239 . S
O26 Mn22 2.221 . S
O26 Mn27 2.290 . S
O26 C37 1.278 . S
Mn27 O26 2.290 . S
Mn27 O29 2.089 . S
Mn27 O32 2.251 . S
Mn27 O33 2.087 . S
O28 Mn22 2.163 . S
O28 C38 1.244 . S
O29 Mn27 2.089 . S
O29 C36 1.256 . S
O30 Mn22 2.160 . S
O30 C39 1.239 . S
O31 Mn24 2.089 . S
O31 C39 1.256 . S
O32 Mn27 2.251 . S
O32 C37 1.241 . S
O33 Mn27 2.087 . S
O33 C38 1.256 . S
C34 O40 1.278 . S
C34 O41 1.241 . S
C35 O21 1.244 . S
C35 O23 1.256 . S
C36 O25 1.239 . S
C36 O29 1.256 . S
C37 O26 1.278 . S
C37 O32 1.241 . S
C38 O28 1.244 . S
C38 O33 1.256 . S
C39 O30 1.239 . S
C39 O31 1.256 . S
O40 Mn22 2.221 . S
O40 Mn24 2.290 . S
O40 C34 1.278 . S
O41 Mn24 2.251 . S
O41 C34 1.241 . S
O42 Mn43 2.163 . S
O42 C56 1.244 . S
Mn43 O42 2.163 . S
Mn43 O46 2.160 . S
Mn43 O47 2.221 . S
Mn43 O49 2.163 . S
Mn43 O51 2.160 . S
Mn43 O61 2.221 . S
O44 Mn45 2.087 . S
O44 C56 1.256 . S
Mn45 O44 2.087 . S
Mn45 O52 2.089 . S
Mn45 O61 2.290 . S
Mn45 O62 2.251 . S
O46 Mn43 2.160 . S
O46 C57 1.239 . S
O47 Mn43 2.221 . S
O47 Mn48 2.290 . S
O47 C58 1.278 . S
Mn48 O47 2.290 . S
Mn48 O50 2.089 . S
Mn48 O53 2.251 . S
Mn48 O54 2.087 . S
O49 Mn43 2.163 . S
O49 C59 1.244 . S
O50 Mn48 2.089 . S
O50 C57 1.256 . S
O51 Mn43 2.160 . S
O51 C60 1.239 . S
O52 Mn45 2.089 . S
O52 C60 1.256 . S
O53 Mn48 2.251 . S
O53 C58 1.241 . S
O54 Mn48 2.087 . S
O54 C59 1.256 . S
C55 O61 1.278 . S
C55 O62 1.241 . S
C56 O42 1.244 . S
C56 O44 1.256 . S
C57 O46 1.239 . S
C57 O50 1.256 . S
C58 O47 1.278 . S
C58 O53 1.241 . S
C59 O49 1.244 . S
C59 O54 1.256 . S
C60 O51 1.239 . S
C60 O52 1.256 . S
O61 Mn43 2.221 . S
O61 Mn45 2.290 . S
O61 C55 1.278 . S
O62 Mn45 2.251 . S
O62 C55 1.241 . S
O63 Mn64 2.163 1_554 S
O63 C77 1.244 . S
Mn64 O63 2.163 1_556 S
Mn64 O67 2.160 . S
Mn64 O68 2.221 . S
Mn64 O70 2.163 1_556 S
Mn64 O72 2.160 . S
Mn64 O82 2.221 1_556 S
O65 Mn66 2.087 . S
O65 C77 1.256 . S
Mn66 O65 2.087 . S
Mn66 O73 2.089 1_554 S
Mn66 O82 2.290 . S
Mn66 O83 2.251 . S
O67 Mn64 2.160 . S
O67 C78 1.239 . S
O68 Mn64 2.221 . S
O68 Mn69 2.290 . S
O68 C79 1.278 . S
Mn69 O68 2.290 . S
Mn69 O71 2.089 . S
Mn69 O74 2.251 . S
Mn69 O75 2.087 1_556 S
O70 Mn64 2.163 1_554 S
O70 C80 1.244 . S
O71 Mn69 2.089 . S
O71 C78 1.256 . S
O72 Mn64 2.160 . S
O72 C81 1.239 . S
O73 Mn66 2.089 1_556 S
O73 C81 1.256 . S
O74 Mn69 2.251 . S
O74 C79 1.241 . S
O75 Mn69 2.087 1_554 S
O75 C80 1.256 . S
C76 O82 1.278 . S
C76 O83 1.241 . S
C77 O63 1.244 . S
C77 O65 1.256 . S
C78 O67 1.239 . S
C78 O71 1.256 . S
C79 O68 1.278 . S
C79 O74 1.241 . S
C80 O70 1.244 . S
C80 O75 1.256 . S
C81 O72 1.239 . S
C81 O73 1.256 . S
O82 Mn64 2.221 1_554 S
O82 Mn66 2.290 . S
O82 C76 1.278 . S
O83 Mn66 2.251 . S
O83 C76 1.241 . S
O84 Mn85 2.163 . S
O84 C98 1.244 . S
Mn85 O84 2.163 . S
Mn85 O88 2.160 . S
Mn85 O89 2.221 . S
Mn85 O91 2.163 . S
Mn85 O93 2.160 . S
Mn85 O103 2.221 . S
O86 Mn87 2.087 . S
O86 C98 1.256 . S
Mn87 O86 2.087 . S
Mn87 O94 2.089 . S
Mn87 O103 2.290 . S
Mn87 O104 2.251 . S
O88 Mn85 2.160 . S
O88 C99 1.239 . S
O89 Mn85 2.221 . S
O89 Mn90 2.290 . S
O89 C100 1.278 . S
Mn90 O89 2.290 . S
Mn90 O92 2.089 . S
Mn90 O95 2.251 . S
Mn90 O96 2.087 . S
O91 Mn85 2.163 . S
O91 C101 1.244 . S
O92 Mn90 2.089 . S
O92 C99 1.256 . S
O93 Mn85 2.160 . S
O93 C102 1.239 . S
O94 Mn87 2.089 . S
O94 C102 1.256 . S
O95 Mn90 2.251 . S
O95 C100 1.241 . S
O96 Mn90 2.087 . S
O96 C101 1.256 . S
C97 O103 1.278 . S
C97 O104 1.241 . S
C98 O84 1.244 . S
C98 O86 1.256 . S
C99 O88 1.239 . S
C99 O92 1.256 . S
C100 O89 1.278 . S
C100 O95 1.241 . S
C101 O91 1.244 . S
C101 O96 1.256 . S
C102 O93 1.239 . S
C102 O94 1.256 . S
O103 Mn85 2.221 . S
O103 Mn87 2.290 . S
O103 C97 1.278 . S
O104 Mn87 2.251 . S
O104 C97 1.241 . S
O105 Mn106 2.163 . S
O105 C119 1.244 . S
Mn106 O105 2.163 . S
Mn106 O109 2.160 . S
Mn106 O110 2.221 . S
Mn106 O112 2.163 . S
Mn106 O114 2.160 . S
Mn106 O124 2.221 . S
O107 Mn108 2.087 . S
O107 C119 1.256 . S
Mn108 O107 2.087 . S
Mn108 O115 2.089 . S
Mn108 O124 2.290 . S
Mn108 O125 2.251 . S
O109 Mn106 2.160 . S
O109 C120 1.239 . S
O110 Mn106 2.221 . S
O110 Mn111 2.290 . S
O110 C121 1.278 . S
Mn111 O110 2.290 . S
Mn111 O113 2.089 . S
Mn111 O116 2.251 . S
Mn111 O117 2.087 . S
O112 Mn106 2.163 . S
O112 C122 1.244 . S
O113 Mn111 2.089 . S
O113 C120 1.256 . S
O114 Mn106 2.160 . S
O114 C123 1.239 . S
O115 Mn108 2.089 . S
O115 C123 1.256 . S
O116 Mn111 2.251 . S
O116 C121 1.241 . S
O117 Mn111 2.087 . S
O117 C122 1.256 . S
C118 O124 1.278 . S
C118 O125 1.241 . S
C119 O105 1.244 . S
C119 O107 1.256 . S
C120 O109 1.239 . S
C120 O113 1.256 . S
C121 O110 1.278 . S
C121 O116 1.241 . S
C122 O112 1.244 . S
C122 O117 1.256 . S
C123 O114 1.239 . S
C123 O115 1.256 . S
O124 Mn106 2.221 . S
O124 Mn108 2.290 . S
O124 C118 1.278 . S
O125 Mn108 2.251 . S
O125 C118 1.241 . S
C126 C127 1.349 . S
C126 C128 1.327 . S
C126 H151 0.950 . S
C127 C126 1.349 . S
C127 C143 1.349 . S
C128 C126 1.327 . S
C128 C147 1.429 . S
C128 H152 0.950 . S
C129 C146 1.574 . S
C129 C148 1.368 . S
C129 H153 0.949 . S
H130 C134 0.949 . S
C131 C132 1.349 . S
C131 C133 1.327 . S
C131 H154 0.950 . S
C132 C131 1.349 . S
C132 C144 1.349 . S
C133 C131 1.327 . S
C133 C149 1.429 . S
C133 H155 0.950 . S
C134 H130 0.949 . S
C134 C142 1.574 . S
C134 C150 1.368 . S
H135 C143 0.950 . S
H136 C141 0.950 . S
H137 C142 0.949 . S
H138 C144 0.950 . S
H139 C145 0.950 . S
H140 C146 0.949 . S
C141 H136 0.950 . S
C141 C143 1.327 . S
C141 C147 1.429 . S
C142 C134 1.574 . S
C142 H137 0.949 . S
C142 C148 1.368 . S
C143 C127 1.349 . S
C143 H135 0.950 . S
C143 C141 1.327 . S
C144 C132 1.349 . S
C144 H138 0.950 . S
C144 C145 1.327 . S
C145 H139 0.950 . S
C145 C144 1.327 . S
C145 C149 1.429 . S
C146 C129 1.574 . S
C146 H140 0.949 . S
C146 C150 1.368 . S
C147 C128 1.429 . S
C147 C141 1.429 . S
C147 C148 1.523 . S
C148 C129 1.368 . S
C148 C142 1.368 . S
C148 C147 1.523 . S
C149 C133 1.429 . S
C149 C145 1.429 . S
C149 C150 1.523 . S
C150 C134 1.368 . S
C150 C146 1.368 . S
C150 C149 1.523 . S
H151 C126 0.950 . S
H152 C128 0.950 . S
H153 C129 0.949 . S
H154 C131 0.950 . S
H155 C133 0.950 . S
C156 C157 1.349 . S
C156 C158 1.327 . S
C156 H181 0.950 . S
C157 C156 1.349 . S
C157 C173 1.349 . S
C158 C156 1.327 . S
C158 C177 1.429 . S
C158 H182 0.950 . S
C159 C176 1.574 . S
C159 C178 1.368 . S
C159 H183 0.949 . S
H160 C164 0.949 . S
C161 C162 1.349 . S
C161 C163 1.327 . S
C161 H184 0.950 . S
C162 C161 1.349 . S
C162 C174 1.349 . S
C163 C161 1.327 . S
C163 C179 1.429 . S
C163 H185 0.950 . S
C164 H160 0.949 . S
C164 C172 1.574 . S
C164 C180 1.368 . S
H165 C173 0.950 . S
H166 C171 0.950 . S
H167 C172 0.949 . S
H168 C174 0.950 . S
H169 C175 0.950 . S
H170 C176 0.949 . S
C171 H166 0.950 . S
C171 C173 1.327 . S
C171 C177 1.429 . S
C172 C164 1.574 . S
C172 H167 0.949 . S
C172 C178 1.368 . S
C173 C157 1.349 . S
C173 H165 0.950 . S
C173 C171 1.327 . S
C174 C162 1.349 . S
C174 H168 0.950 . S
C174 C175 1.327 . S
C175 H169 0.950 . S
C175 C174 1.327 . S
C175 C179 1.429 . S
C176 C159 1.574 . S
C176 H170 0.949 . S
C176 C180 1.368 . S
C177 C158 1.429 . S
C177 C171 1.429 . S
C177 C178 1.523 . S
C178 C159 1.368 . S
C178 C172 1.368 . S
C178 C177 1.523 . S
C179 C163 1.429 . S
C179 C175 1.429 . S
C179 C180 1.523 . S
C180 C164 1.368 . S
C180 C176 1.368 . S
C180 C179 1.523 . S
H181 C156 0.950 . S
H182 C158 0.950 . S
H183 C159 0.949 . S
H184 C161 0.950 . S
H185 C163 0.950 . S
C186 C187 1.349 . S
C186 C188 1.327 . S
C186 H211 0.950 . S
C187 C186 1.349 . S
C187 C203 1.349 . S
C188 C186 1.327 . S
C188 C207 1.429 . S
C188 H212 0.950 . S
C189 C206 1.574 . S
C189 C208 1.368 . S
C189 H213 0.949 . S
H190 C194 0.949 . S
C191 C192 1.349 . S
C191 C193 1.327 . S
C191 H214 0.950 . S
C192 C191 1.349 . S
C192 C204 1.349 . S
C193 C191 1.327 . S
C193 C209 1.429 . S
C193 H215 0.950 . S
C194 H190 0.949 . S
C194 C202 1.574 . S
C194 C210 1.368 . S
H195 C203 0.950 . S
H196 C201 0.950 . S
H197 C202 0.949 . S
H198 C204 0.950 . S
H199 C205 0.950 . S
H200 C206 0.949 . S
C201 H196 0.950 . S
C201 C203 1.327 . S
C201 C207 1.429 . S
C202 C194 1.574 . S
C202 H197 0.949 . S
C202 C208 1.368 . S
C203 C187 1.349 . S
C203 H195 0.950 . S
C203 C201 1.327 . S
C204 C192 1.349 . S
C204 H198 0.950 . S
C204 C205 1.327 . S
C205 H199 0.950 . S
C205 C204 1.327 . S
C205 C209 1.429 . S
C206 C189 1.574 . S
C206 H200 0.949 . S
C206 C210 1.368 . S
C207 C188 1.429 . S
C207 C201 1.429 . S
C207 C208 1.523 . S
C208 C189 1.368 . S
C208 C202 1.368 . S
C208 C207 1.523 . S
C209 C193 1.429 . S
C209 C205 1.429 . S
C209 C210 1.523 . S
C210 C194 1.368 . S
C210 C206 1.368 . S
C210 C209 1.523 . S
H211 C186 0.950 . S
H212 C188 0.950 . S
H213 C189 0.949 . S
H214 C191 0.950 . S
H215 C193 0.950 . S
C216 C217 1.349 . S
C216 C218 1.327 . S
C216 H241 0.950 . S
C217 C216 1.349 . S
C217 C233 1.349 . S
C218 C216 1.327 . S
C218 C237 1.429 . S
C218 H242 0.950 . S
C219 C236 1.574 . S
C219 C238 1.368 . S
C219 H243 0.949 . S
H220 C224 0.949 . S
C221 C222 1.349 . S
C221 C223 1.327 . S
C221 H244 0.950 . S
C222 C221 1.349 . S
C222 C234 1.349 . S
C223 C221 1.327 . S
C223 C239 1.429 . S
C223 H245 0.950 . S
C224 H220 0.949 . S
C224 C232 1.574 . S
C224 C240 1.368 . S
H225 C233 0.950 . S
H226 C231 0.950 . S
H227 C232 0.949 . S
H228 C234 0.950 . S
H229 C235 0.950 . S
H230 C236 0.949 . S
C231 H226 0.950 . S
C231 C233 1.327 . S
C231 C237 1.429 . S
C232 C224 1.574 . S
C232 H227 0.949 . S
C232 C238 1.368 . S
C233 C217 1.349 . S
C233 H225 0.950 . S
C233 C231 1.327 . S
C234 C222 1.349 . S
C234 H228 0.950 . S
C234 C235 1.327 . S
C235 H229 0.950 . S
C235 C234 1.327 . S
C235 C239 1.429 . S
C236 C219 1.574 . S
C236 H230 0.949 . S
C236 C240 1.368 . S
C237 C218 1.429 . S
C237 C231 1.429 . S
C237 C238 1.523 . S
C238 C219 1.368 . S
C238 C232 1.368 . S
C238 C237 1.523 . S
C239 C223 1.429 . S
C239 C235 1.429 . S
C239 C240 1.523 . S
C240 C224 1.368 . S
C240 C236 1.368 . S
C240 C239 1.523 . S
H241 C216 0.950 . S
H242 C218 0.950 . S
H243 C219 0.949 . S
H244 C221 0.950 . S
H245 C223 0.950 . S
C246 C247 1.349 . S
C246 C248 1.327 . S
C246 H271 0.950 . S
C247 C246 1.349 . S
C247 C263 1.349 . S
C248 C246 1.327 . S
C248 C267 1.429 . S
C248 H272 0.950 . S
C249 C266 1.574 . S
C249 C268 1.368 . S
C249 H273 0.949 . S
H250 C254 0.949 . S
C251 C252 1.349 . S
C251 C253 1.327 . S
C251 H274 0.950 . S
C252 C251 1.349 . S
C252 C264 1.349 . S
C253 C251 1.327 . S
C253 C269 1.429 . S
C253 H275 0.950 . S
C254 H250 0.949 . S
C254 C262 1.574 . S
C254 C270 1.368 . S
H255 C263 0.950 . S
H256 C261 0.950 . S
H257 C262 0.949 . S
H258 C264 0.950 . S
H259 C265 0.950 . S
H260 C266 0.949 . S
C261 H256 0.950 . S
C261 C263 1.327 . S
C261 C267 1.429 . S
C262 C254 1.574 . S
C262 H257 0.949 . S
C262 C268 1.368 . S
C263 C247 1.349 . S
C263 H255 0.950 . S
C263 C261 1.327 . S
C264 C252 1.349 . S
C264 H258 0.950 . S
C264 C265 1.327 . S
C265 H259 0.950 . S
C265 C264 1.327 . S
C265 C269 1.429 . S
C266 C249 1.574 . S
C266 H260 0.949 . S
C266 C270 1.368 . S
C267 C248 1.429 . S
C267 C261 1.429 . S
C267 C268 1.523 . S
C268 C249 1.368 . S
C268 C262 1.368 . S
C268 C267 1.523 . S
C269 C253 1.429 . S
C269 C265 1.429 . S
C269 C270 1.523 . S
C270 C254 1.368 . S
C270 C266 1.368 . S
C270 C269 1.523 . S
H271 C246 0.950 . S
H272 C248 0.950 . S
H273 C249 0.949 . S
H274 C251 0.950 . S
H275 C253 0.950 . S
C276 C277 1.349 . S
C276 C278 1.327 . S
C276 H301 0.950 . S
C277 C276 1.349 . S
C277 C293 1.349 . S
C278 C276 1.327 . S
C278 C297 1.429 . S
C278 H302 0.950 . S
C279 C296 1.574 . S
C279 C298 1.368 . S
C279 H303 0.949 . S
H280 C284 0.949 . S
C281 C282 1.349 . S
C281 C283 1.327 . S
C281 H304 0.950 . S
C282 C281 1.349 . S
C282 C294 1.349 . S
C283 C281 1.327 . S
C283 C299 1.429 . S
C283 H305 0.950 . S
C284 H280 0.949 . S
C284 C292 1.574 . S
C284 C300 1.368 . S
H285 C293 0.950 . S
H286 C291 0.950 . S
H287 C292 0.949 . S
H288 C294 0.950 . S
H289 C295 0.950 . S
H290 C296 0.949 . S
C291 H286 0.950 . S
C291 C293 1.327 . S
C291 C297 1.429 . S
C292 C284 1.574 . S
C292 H287 0.949 . S
C292 C298 1.368 . S
C293 C277 1.349 . S
C293 H285 0.950 . S
C293 C291 1.327 . S
C294 C282 1.349 . S
C294 H288 0.950 . S
C294 C295 1.327 . S
C295 H289 0.950 . S
C295 C294 1.327 . S
C295 C299 1.429 . S
C296 C279 1.574 . S
C296 H290 0.949 . S
C296 C300 1.368 . S
C297 C278 1.429 . S
C297 C291 1.429 . S
C297 C298 1.523 . S
C298 C279 1.368 . S
C298 C292 1.368 . S
C298 C297 1.523 . S
C299 C283 1.429 . S
C299 C295 1.429 . S
C299 C300 1.523 . S
C300 C284 1.368 . S
C300 C296 1.368 . S
C300 C299 1.523 . S
H301 C276 0.950 . S
H302 C278 0.950 . S
H303 C279 0.949 . S
H304 C281 0.950 . S
H305 C283 0.950 . S
C306 C307 1.349 . S
C306 C308 1.327 . S
C306 H331 0.950 . S
C307 C306 1.349 . S
C307 C323 1.349 1_554 S
C308 C306 1.327 . S
C308 C327 1.429 . S
C308 H332 0.950 . S
C309 C326 1.574 . S
C309 C328 1.368 1_556 S
C309 H333 0.949 . S
H310 C314 0.949 . S
C311 C312 1.349 1_556 S
C311 C313 1.327 . S
C311 H334 0.950 . S
C312 C311 1.349 1_554 S
C312 C324 1.349 . S
C313 C311 1.327 . S
C313 C329 1.429 1_556 S
C313 H335 0.950 . S
C314 H310 0.949 . S
C314 C322 1.574 . S
C314 C330 1.368 . S
H315 C323 0.950 . S
H316 C321 0.950 . S
H317 C322 0.949 . S
H318 C324 0.950 . S
H319 C325 0.950 . S
H320 C326 0.949 . S
C321 H316 0.950 . S
C321 C323 1.327 . S
C321 C327 1.429 1_556 S
C322 C314 1.574 . S
C322 H317 0.949 . S
C322 C328 1.368 . S
C323 C307 1.349 1_556 S
C323 H315 0.950 . S
C323 C321 1.327 . S
C324 C312 1.349 . S
C324 H318 0.950 . S
C324 C325 1.327 . S
C325 H319 0.950 . S
C325 C324 1.327 . S
C325 C329 1.429 . S
C326 C309 1.574 . S
C326 H320 0.949 . S
C326 C330 1.368 1_556 S
C327 C308 1.429 . S
C327 C321 1.429 1_554 S
C327 C328 1.523 . S
C328 C309 1.368 1_554 S
C328 C322 1.368 . S
C328 C327 1.523 . S
C329 C313 1.429 1_554 S
C329 C325 1.429 . S
C329 C330 1.523 . S
C330 C314 1.368 . S
C330 C326 1.368 1_554 S
C330 C329 1.523 . S
H331 C306 0.950 . S
H332 C308 0.950 . S
H333 C309 0.949 . S
H334 C311 0.950 . S
H335 C313 0.950 . S
C336 C337 1.349 . S
C336 C338 1.327 . S
C336 H361 0.950 . S
C337 C336 1.349 . S
C337 C353 1.349 . S
C338 C336 1.327 . S
C338 C357 1.429 . S
C338 H362 0.950 . S
C339 C356 1.574 . S
C339 C358 1.368 1_655 S
C339 H363 0.949 . S
H340 C344 0.949 . S
C341 C342 1.349 . S
C341 C343 1.327 . S
C341 H364 0.950 . S
C342 C341 1.349 . S
C342 C354 1.349 . S
C343 C341 1.327 . S
C343 C359 1.429 . S
C343 H365 0.950 . S
C344 H340 0.949 . S
C344 C352 1.574 . S
C344 C360 1.368 1_455 S
H345 C353 0.950 . S
H346 C351 0.950 . S
H347 C352 0.949 . S
H348 C354 0.950 . S
H349 C355 0.950 . S
H350 C356 0.949 . S
C351 H346 0.950 . S
C351 C353 1.327 . S
C351 C357 1.429 . S
C352 C344 1.574 . S
C352 H347 0.949 . S
C352 C358 1.368 . S
C353 C337 1.349 . S
C353 H345 0.950 . S
C353 C351 1.327 . S
C354 C342 1.349 . S
C354 H348 0.950 . S
C354 C355 1.327 . S
C355 H349 0.950 . S
C355 C354 1.327 . S
C355 C359 1.429 . S
C356 C339 1.574 . S
C356 H350 0.949 . S
C356 C360 1.368 . S
C357 C338 1.429 . S
C357 C351 1.429 . S
C357 C358 1.523 . S
C358 C339 1.368 1_455 S
C358 C352 1.368 . S
C358 C357 1.523 . S
C359 C343 1.429 . S
C359 C355 1.429 . S
C359 C360 1.523 . S
C360 C344 1.368 1_655 S
C360 C356 1.368 . S
C360 C359 1.523 . S
H361 C336 0.950 . S
H362 C338 0.950 . S
H363 C339 0.949 . S
H364 C341 0.950 . S
H365 C343 0.950 . S
C366 C367 1.349 . S
C366 C368 1.327 . S
C366 H391 0.950 . S
C367 C366 1.349 . S
C367 C383 1.349 . S
C368 C366 1.327 . S
C368 C387 1.429 . S
C368 H392 0.950 . S
C369 C386 1.574 . S
C369 C388 1.368 1_565 S
C369 H393 0.949 . S
H370 C374 0.949 . S
C371 C372 1.349 . S
C371 C373 1.327 . S
C371 H394 0.950 . S
C372 C371 1.349 . S
C372 C384 1.349 . S
C373 C371 1.327 . S
C373 C389 1.429 . S
C373 H395 0.950 . S
C374 H370 0.949 . S
C374 C382 1.574 . S
C374 C390 1.368 1_545 S
H375 C383 0.950 . S
H376 C381 0.950 . S
H377 C382 0.949 . S
H378 C384 0.950 . S
H379 C385 0.950 . S
H380 C386 0.949 . S
C381 H376 0.950 . S
C381 C383 1.327 . S
C381 C387 1.429 . S
C382 C374 1.574 . S
C382 H377 0.949 . S
C382 C388 1.368 . S
C383 C367 1.349 . S
C383 H375 0.950 . S
C383 C381 1.327 . S
C384 C372 1.349 . S
C384 H378 0.950 . S
C384 C385 1.327 . S
C385 H379 0.950 . S
C385 C384 1.327 . S
C385 C389 1.429 . S
C386 C369 1.574 . S
C386 H380 0.949 . S
C386 C390 1.368 . S
C387 C368 1.429 . S
C387 C381 1.429 . S
C387 C388 1.523 . S
C388 C369 1.368 1_545 S
C388 C382 1.368 . S
C388 C387 1.523 . S
C389 C373 1.429 . S
C389 C385 1.429 . S
C389 C390 1.523 . S
C390 C374 1.368 1_565 S
C390 C386 1.368 . S
C390 C389 1.523 . S
H391 C366 0.950 . S
H392 C368 0.950 . S
H393 C369 0.949 . S
H394 C371 0.950 . S
H395 C373 0.950 . S
C396 C397 1.349 . S
C396 C398 1.327 . S
C396 H421 0.950 . S
C397 C396 1.349 . S
C397 C413 1.349 . S
C398 C396 1.327 . S
C398 C417 1.429 . S
C398 H422 0.950 . S
C399 C416 1.574 . S
C399 C418 1.368 . S
C399 H423 0.949 . S
H400 C404 0.949 . S
C401 C402 1.349 . S
C401 C403 1.327 . S
C401 H424 0.950 . S
C402 C401 1.349 . S
C402 C414 1.349 . S
C403 C401 1.327 . S
C403 C419 1.429 . S
C403 H425 0.950 . S
C404 H400 0.949 . S
C404 C412 1.574 . S
C404 C420 1.368 . S
H405 C413 0.950 . S
H406 C411 0.950 . S
H407 C412 0.949 . S
H408 C414 0.950 . S
H409 C415 0.950 . S
H410 C416 0.949 . S
C411 H406 0.950 . S
C411 C413 1.327 . S
C411 C417 1.429 . S
C412 C404 1.574 . S
C412 H407 0.949 . S
C412 C418 1.368 . S
C413 C397 1.349 . S
C413 H405 0.950 . S
C413 C411 1.327 . S
C414 C402 1.349 . S
C414 H408 0.950 . S
C414 C415 1.327 . S
C415 H409 0.950 . S
C415 C414 1.327 . S
C415 C419 1.429 . S
C416 C399 1.574 . S
C416 H410 0.949 . S
C416 C420 1.368 . S
C417 C398 1.429 . S
C417 C411 1.429 . S
C417 C418 1.523 . S
C418 C399 1.368 . S
C418 C412 1.368 . S
C418 C417 1.523 . S
C419 C403 1.429 . S
C419 C415 1.429 . S
C419 C420 1.523 . S
C420 C404 1.368 . S
C420 C416 1.368 . S
C420 C419 1.523 . S
H421 C396 0.950 . S
H422 C398 0.950 . S
H423 C399 0.949 . S
H424 C401 0.950 . S
H425 C403 0.950 . S
C426 C427 1.349 . S
C426 C428 1.327 . S
C426 H451 0.950 . S
C427 C426 1.349 . S
C427 C443 1.349 1_556 S
C428 C426 1.327 . S
C428 C447 1.429 . S
C428 H452 0.950 . S
C429 C446 1.574 . S
C429 C448 1.368 1_554 S
C429 H453 0.949 . S
H430 C434 0.949 . S
C431 C432 1.349 1_554 S
C431 C433 1.327 . S
C431 H454 0.950 . S
C432 C431 1.349 1_556 S
C432 C444 1.349 . S
C433 C431 1.327 . S
C433 C449 1.429 1_554 S
C433 H455 0.950 . S
C434 H430 0.949 . S
C434 C442 1.574 . S
C434 C450 1.368 . S
H435 C443 0.950 . S
H436 C441 0.950 . S
H437 C442 0.949 . S
H438 C444 0.950 . S
H439 C445 0.950 . S
H440 C446 0.949 . S
C441 H436 0.950 . S
C441 C443 1.327 . S
C441 C447 1.429 1_554 S
C442 C434 1.574 . S
C442 H437 0.949 . S
C442 C448 1.368 1_655 S
C443 C427 1.349 1_554 S
C443 H435 0.950 . S
C443 C441 1.327 . S
C444 C432 1.349 . S
C444 H438 0.950 . S
C444 C445 1.327 . S
C445 H439 0.950 . S
C445 C444 1.327 . S
C445 C449 1.429 . S
C446 C429 1.574 . S
C446 H440 0.949 . S
C446 C450 1.368 1_454 S
C447 C428 1.429 . S
C447 C441 1.429 1_556 S
C447 C448 1.523 . S
C448 C429 1.368 1_556 S
C448 C442 1.368 1_455 S
C448 C447 1.523 . S
C449 C433 1.429 1_556 S
C449 C445 1.429 . S
C449 C450 1.523 . S
C450 C434 1.368 . S
C450 C446 1.368 1_656 S
C450 C449 1.523 . S
H451 C426 0.950 . S
H452 C428 0.950 . S
H453 C429 0.949 . S
H454 C431 0.950 . S
H455 C433 0.950 . S
C456 C457 1.349 . S
C456 C458 1.327 . S
C456 H481 0.950 . S
C457 C456 1.349 . S
C457 C473 1.349 . S
C458 C456 1.327 . S
C458 C477 1.429 . S
C458 H482 0.950 . S
C459 C476 1.574 . S
C459 C478 1.368 1_545 S
C459 H483 0.949 . S
H460 C464 0.949 . S
C461 C462 1.349 . S
C461 C463 1.327 . S
C461 H484 0.950 . S
C462 C461 1.349 . S
C462 C474 1.349 . S
C463 C461 1.327 . S
C463 C479 1.429 . S
C463 H485 0.950 . S
C464 H460 0.949 . S
C464 C472 1.574 . S
C464 C480 1.368 1_565 S
H465 C473 0.950 . S
H466 C471 0.950 . S
H467 C472 0.949 . S
H468 C474 0.950 . S
H469 C475 0.950 . S
H470 C476 0.949 . S
C471 H466 0.950 . S
C471 C473 1.327 . S
C471 C477 1.429 . S
C472 C464 1.574 . S
C472 H467 0.949 . S
C472 C478 1.368 . S
C473 C457 1.349 . S
C473 H465 0.950 . S
C473 C471 1.327 . S
C474 C462 1.349 . S
C474 H468 0.950 . S
C474 C475 1.327 . S
C475 H469 0.950 . S
C475 C474 1.327 . S
C475 C479 1.429 . S
C476 C459 1.574 . S
C476 H470 0.949 . S
C476 C480 1.368 . S
C477 C458 1.429 . S
C477 C471 1.429 . S
C477 C478 1.523 . S
C478 C459 1.368 1_565 S
C478 C472 1.368 . S
C478 C477 1.523 . S
C479 C463 1.429 . S
C479 C475 1.429 . S
C479 C480 1.523 . S
C480 C464 1.368 1_545 S
C480 C476 1.368 . S
C480 C479 1.523 . S
H481 C456 0.950 . S
H482 C458 0.950 . S
H483 C459 0.949 . S
H484 C461 0.950 . S
H485 C463 0.950 . S
C486 C487 1.349 . S
C486 C488 1.327 . S
C486 H511 0.950 . S
C487 C486 1.349 . S
C487 C503 1.349 . S
C488 C486 1.327 . S
C488 C507 1.429 . S
C488 H512 0.950 . S
C489 C506 1.574 . S
C489 C508 1.368 . S
C489 H513 0.949 . S
H490 C494 0.949 . S
C491 C492 1.349 . S
C491 C493 1.327 . S
C491 H514 0.950 . S
C492 C491 1.349 . S
C492 C504 1.349 . S
C493 C491 1.327 . S
C493 C509 1.429 . S
C493 H515 0.950 . S
C494 H490 0.949 . S
C494 C502 1.574 . S
C494 C510 1.368 . S
H495 C503 0.950 . S
H496 C501 0.950 . S
H497 C502 0.949 . S
H498 C504 0.950 . S
H499 C505 0.950 . S
H500 C506 0.949 . S
C501 H496 0.950 . S
C501 C503 1.327 . S
C501 C507 1.429 . S
C502 C494 1.574 . S
C502 H497 0.949 . S
C502 C508 1.368 . S
C503 C487 1.349 . S
C503 H495 0.950 . S
C503 C501 1.327 . S
C504 C492 1.349 . S
C504 H498 0.950 . S
C504 C505 1.327 . S
C505 H499 0.950 . S
C505 C504 1.327 . S
C505 C509 1.429 . S
C506 C489 1.574 . S
C506 H500 0.949 . S
C506 C510 1.368 . S
C507 C488 1.429 . S
C507 C501 1.429 . S
C507 C508 1.523 . S
C508 C489 1.368 . S
C508 C502 1.368 . S
C508 C507 1.523 . S
C509 C493 1.429 . S
C509 C505 1.429 . S
C509 C510 1.523 . S
C510 C494 1.368 . S
C510 C506 1.368 . S
C510 C509 1.523 . S
H511 C486 0.950 . S
H512 C488 0.950 . S
H513 C489 0.949 . S
H514 C491 0.950 . S
H515 C493 0.950 . S
C516 C517 1.349 . S
C516 C518 1.327 . S
C516 H541 0.950 . S
C517 C516 1.349 . S
C517 C533 1.349 . S
C518 C516 1.327 . S
C518 C537 1.429 . S
C518 H542 0.950 . S
C519 C536 1.574 1_655 S
C519 C538 1.368 . S
C519 H543 0.949 . S
H520 C524 0.949 . S
C521 C522 1.349 . S
C521 C523 1.327 . S
C521 H544 0.950 . S
C522 C521 1.349 . S
C522 C534 1.349 . S
C523 C521 1.327 . S
C523 C539 1.429 . S
C523 H545 0.950 . S
C524 H520 0.949 . S
C524 C532 1.574 1_455 S
C524 C540 1.368 . S
H525 C533 0.950 . S
H526 C531 0.950 . S
H527 C532 0.949 . S
H528 C534 0.950 . S
H529 C535 0.950 . S
H530 C536 0.949 . S
C531 H526 0.950 . S
C531 C533 1.327 . S
C531 C537 1.429 . S
C532 C524 1.574 1_655 S
C532 H527 0.949 . S
C532 C538 1.368 . S
C533 C517 1.349 . S
C533 H525 0.950 . S
C533 C531 1.327 . S
C534 C522 1.349 . S
C534 H528 0.950 . S
C534 C535 1.327 . S
C535 H529 0.950 . S
C535 C534 1.327 . S
C535 C539 1.429 . S
C536 C519 1.574 1_455 S
C536 H530 0.949 . S
C536 C540 1.368 . S
C537 C518 1.429 . S
C537 C531 1.429 . S
C537 C538 1.523 . S
C538 C519 1.368 . S
C538 C532 1.368 . S
C538 C537 1.523 . S
C539 C523 1.429 . S
C539 C535 1.429 . S
C539 C540 1.523 . S
C540 C524 1.368 . S
C540 C536 1.368 . S
C540 C539 1.523 . S
H541 C516 0.950 . S
H542 C518 0.950 . S
H543 C519 0.949 . S
H544 C521 0.950 . S
H545 C523 0.950 . S
C546 C547 1.349 . S
C546 C548 1.327 . S
C546 H571 0.950 . S
C547 C546 1.349 . S
C547 C563 1.349 . S
C548 C546 1.327 . S
C548 C567 1.429 . S
C548 H572 0.950 . S
C549 C566 1.574 . S
C549 C568 1.368 1_545 S
C549 H573 0.949 . S
H550 C554 0.949 . S
C551 C552 1.349 . S
C551 C553 1.327 . S
C551 H574 0.950 . S
C552 C551 1.349 . S
C552 C564 1.349 . S
C553 C551 1.327 . S
C553 C569 1.429 . S
C553 H575 0.950 . S
C554 H550 0.949 . S
C554 C562 1.574 . S
C554 C570 1.368 1_565 S
H555 C563 0.950 . S
H556 C561 0.950 . S
H557 C562 0.949 . S
H558 C564 0.950 . S
H559 C565 0.950 . S
H560 C566 0.949 . S
C561 H556 0.950 . S
C561 C563 1.327 . S
C561 C567 1.429 . S
C562 C554 1.574 . S
C562 H557 0.949 . S
C562 C568 1.368 . S
C563 C547 1.349 . S
C563 H555 0.950 . S
C563 C561 1.327 . S
C564 C552 1.349 . S
C564 H558 0.950 . S
C564 C565 1.327 . S
C565 H559 0.950 . S
C565 C564 1.327 . S
C565 C569 1.429 . S
C566 C549 1.574 . S
C566 H560 0.949 . S
C566 C570 1.368 . S
C567 C548 1.429 . S
C567 C561 1.429 . S
C567 C568 1.523 . S
C568 C549 1.368 1_565 S
C568 C562 1.368 . S
C568 C567 1.523 . S
C569 C553 1.429 . S
C569 C565 1.429 . S
C569 C570 1.523 . S
C570 C554 1.368 1_545 S
C570 C566 1.368 . S
C570 C569 1.523 . S
H571 C546 0.950 . S
H572 C548 0.950 . S
H573 C549 0.949 . S
H574 C551 0.950 . S
H575 C553 0.950 . S
C576 C577 1.349 . S
C576 C578 1.327 . S
C576 H601 0.950 . S
C577 C576 1.349 . S
C577 C593 1.349 . S
C578 C576 1.327 . S
C578 C597 1.429 . S
C578 H602 0.950 . S
C579 C596 1.574 . S
C579 C598 1.368 . S
C579 H603 0.949 . S
H580 C584 0.949 . S
C581 C582 1.349 . S
C581 C583 1.327 . S
C581 H604 0.950 . S
C582 C581 1.349 . S
C582 C594 1.349 . S
C583 C581 1.327 . S
C583 C599 1.429 . S
C583 H605 0.950 . S
C584 H580 0.949 . S
C584 C592 1.574 . S
C584 C600 1.368 . S
H585 C593 0.950 . S
H586 C591 0.950 . S
H587 C592 0.949 . S
H588 C594 0.950 . S
H589 C595 0.950 . S
H590 C596 0.949 . S
C591 H586 0.950 . S
C591 C593 1.327 . S
C591 C597 1.429 . S
C592 C584 1.574 . S
C592 H587 0.949 . S
C592 C598 1.368 . S
C593 C577 1.349 . S
C593 H585 0.950 . S
C593 C591 1.327 . S
C594 C582 1.349 . S
C594 H588 0.950 . S
C594 C595 1.327 . S
C595 H589 0.950 . S
C595 C594 1.327 . S
C595 C599 1.429 . S
C596 C579 1.574 . S
C596 H590 0.949 . S
C596 C600 1.368 . S
C597 C578 1.429 . S
C597 C591 1.429 . S
C597 C598 1.523 . S
C598 C579 1.368 . S
C598 C592 1.368 . S
C598 C597 1.523 . S
C599 C583 1.429 . S
C599 C595 1.429 . S
C599 C600 1.523 . S
C600 C584 1.368 . S
C600 C596 1.368 . S
C600 C599 1.523 . S
H601 C576 0.950 . S
H602 C578 0.950 . S
H603 C579 0.949 . S
H604 C581 0.950 . S
H605 C583 0.950 . S
C606 C607 1.349 . S
C606 C608 1.327 . S
C606 H631 0.950 . S
C607 C606 1.349 . S
C607 C623 1.349 . S
C608 C606 1.327 . S
C608 C627 1.429 . S
C608 H632 0.950 . S
C609 C626 1.574 . S
C609 C628 1.368 . S
C609 H633 0.949 . S
H610 C614 0.949 . S
C611 C612 1.349 . S
C611 C613 1.327 . S
C611 H634 0.950 . S
C612 C611 1.349 . S
C612 C624 1.349 . S
C613 C611 1.327 . S
C613 C629 1.429 . S
C613 H635 0.950 . S
C614 H610 0.949 . S
C614 C622 1.574 . S
C614 C630 1.368 . S
H615 C623 0.950 . S
H616 C621 0.950 . S
H617 C622 0.949 . S
H618 C624 0.950 . S
H619 C625 0.950 . S
H620 C626 0.949 . S
C621 H616 0.950 . S
C621 C623 1.327 . S
C621 C627 1.429 . S
C622 C614 1.574 . S
C622 H617 0.949 . S
C622 C628 1.368 1_655 S
C623 C607 1.349 . S
C623 H615 0.950 . S
C623 C621 1.327 . S
C624 C612 1.349 . S
C624 H618 0.950 . S
C624 C625 1.327 . S
C625 H619 0.950 . S
C625 C624 1.327 . S
C625 C629 1.429 . S
C626 C609 1.574 . S
C626 H620 0.949 . S
C626 C630 1.368 1_455 S
C627 C608 1.429 . S
C627 C621 1.429 . S
C627 C628 1.523 . S
C628 C609 1.368 . S
C628 C622 1.368 1_455 S
C628 C627 1.523 . S
C629 C613 1.429 . S
C629 C625 1.429 . S
C629 C630 1.523 . S
C630 C614 1.368 . S
C630 C626 1.368 1_655 S
C630 C629 1.523 . S
H631 C606 0.950 . S
H632 C608 0.950 . S
H633 C609 0.949 . S
H634 C611 0.950 . S
H635 C613 0.950 . S
C636 C637 1.349 . S
C636 C638 1.327 . S
C636 H661 0.950 . S
C637 C636 1.349 . S
C637 C653 1.349 . S
C638 C636 1.327 . S
C638 C657 1.429 . S
C638 H662 0.950 . S
C639 C656 1.574 . S
C639 C658 1.368 . S
C639 H663 0.949 . S
H640 C644 0.949 . S
C641 C642 1.349 . S
C641 C643 1.327 . S
C641 H664 0.950 . S
C642 C641 1.349 . S
C642 C654 1.349 . S
C643 C641 1.327 . S
C643 C659 1.429 . S
C643 H665 0.950 . S
C644 H640 0.949 . S
C644 C652 1.574 . S
C644 C660 1.368 . S
H645 C653 0.950 . S
H646 C651 0.950 . S
H647 C652 0.949 . S
H648 C654 0.950 . S
H649 C655 0.950 . S
H650 C656 0.949 . S
C651 H646 0.950 . S
C651 C653 1.327 . S
C651 C657 1.429 . S
C652 C644 1.574 . S
C652 H647 0.949 . S
C652 C658 1.368 1_565 S
C653 C637 1.349 . S
C653 H645 0.950 . S
C653 C651 1.327 . S
C654 C642 1.349 . S
C654 H648 0.950 . S
C654 C655 1.327 . S
C655 H649 0.950 . S
C655 C654 1.327 . S
C655 C659 1.429 . S
C656 C639 1.574 . S
C656 H650 0.949 . S
C656 C660 1.368 1_545 S
C657 C638 1.429 . S
C657 C651 1.429 . S
C657 C658 1.523 . S
C658 C639 1.368 . S
C658 C652 1.368 1_545 S
C658 C657 1.523 . S
C659 C643 1.429 . S
C659 C655 1.429 . S
C659 C660 1.523 . S
C660 C644 1.368 . S
C660 C656 1.368 1_565 S
C660 C659 1.523 . S
H661 C636 0.950 . S
H662 C638 0.950 . S
H663 C639 0.949 . S
H664 C641 0.950 . S
H665 C643 0.950 . S
C127 C102 0.769 . S
C132 C13 0.762 . S
C157 C123 0.769 . S
C162 C34 0.762 . S
C187 C18 0.769 . S
C192 C55 0.762 . S
C217 C39 0.769 . S
C222 C76 0.762 . S
C247 C60 0.769 . S
C252 C97 0.762 . S
C277 C81 0.769 . S
C282 C118 0.762 . S
C307 C14 0.893 . S
C312 C77 0.893 . S
C337 C98 0.893 . S
C342 C35 0.893 . S
C367 C119 0.893 . S
C372 C56 0.893 . S
C397 C57 0.894 . S
C402 C120 0.894 . S
C427 C15 0.894 . S
C432 C78 0.894 . S
C457 C99 0.894 . S
C462 C36 0.894 . S
C487 C122 0.925 . S
C492 C16 0.912 . S
C517 C37 0.912 . S
C522 C17 0.925 . S
C547 C58 0.912 . S
C552 C38 0.925 . S
C577 C59 0.925 . S
C582 C79 0.912 . S
C607 C100 0.912 . S
C612 C80 0.925 . S
C637 C121 0.912 . S
C642 C101 0.925 . S
