# Generated by pormake.
# Topology umo, (4)-cn, num edge types: 1
# Building blocks:
#     Node 0, Type 0, BuildingBlock: MUDLON_clean_sbu_0, # of connection points: 4
#     Node 1, Type 0, BuildingBlock: MUDLON_clean_sbu_0, # of connection points: 4
#     Node 2, Type 0, BuildingBlock: MUDLON_clean_sbu_0, # of connection points: 4
#     Node 3, Type 0, BuildingBlock: MUDLON_clean_sbu_0, # of connection points: 4
#     Node 4, Type 0, BuildingBlock: MUDLON_clean_sbu_0, # of connection points: 4
#     Node 5, Type 0, BuildingBlock: MUDLON_clean_sbu_0, # of connection points: 4
#     Node 6, Type 0, BuildingBlock: MUDLON_clean_sbu_0, # of connection points: 4
#     Node 7, Type 0, BuildingBlock: MUDLON_clean_sbu_0, # of connection points: 4
#     Node 8, Type 0, BuildingBlock: MUDLON_clean_sbu_0, # of connection points: 4
#     Node 9, Type 0, BuildingBlock: MUDLON_clean_sbu_0, # of connection points: 4
#     Node 10, Type 0, BuildingBlock: MUDLON_clean_sbu_0, # of connection points: 4
#     Node 11, Type 0, BuildingBlock: MUDLON_clean_sbu_0, # of connection points: 4
#     Edge 12, Type (0, 0), BuildingBlock: TEMPAE_clean_linker_10, # of connection points: 2
#     Edge 13, Type (0, 0), BuildingBlock: TEMPAE_clean_linker_10, # of connection points: 2
#     Edge 14, Type (0, 0), BuildingBlock: TEMPAE_clean_linker_10, # of connection points: 2
#     Edge 15, Type (0, 0), BuildingBlock: TEMPAE_clean_linker_10, # of connection points: 2
#     Edge 16, Type (0, 0), BuildingBlock: TEMPAE_clean_linker_10, # of connection points: 2
#     Edge 17, Type (0, 0), BuildingBlock: TEMPAE_clean_linker_10, # of connection points: 2
#     Edge 18, Type (0, 0), BuildingBlock: TEMPAE_clean_linker_10, # of connection points: 2
#     Edge 19, Type (0, 0), BuildingBlock: TEMPAE_clean_linker_10, # of connection points: 2
#     Edge 20, Type (0, 0), BuildingBlock: TEMPAE_clean_linker_10, # of connection points: 2
#     Edge 21, Type (0, 0), BuildingBlock: TEMPAE_clean_linker_10, # of connection points: 2
#     Edge 22, Type (0, 0), BuildingBlock: TEMPAE_clean_linker_10, # of connection points: 2
#     Edge 23, Type (0, 0), BuildingBlock: TEMPAE_clean_linker_10, # of connection points: 2
#     Edge 24, Type (0, 0), BuildingBlock: TEMPAE_clean_linker_10, # of connection points: 2
#     Edge 25, Type (0, 0), BuildingBlock: TEMPAE_clean_linker_10, # of connection points: 2
#     Edge 26, Type (0, 0), BuildingBlock: TEMPAE_clean_linker_10, # of connection points: 2
#     Edge 27, Type (0, 0), BuildingBlock: TEMPAE_clean_linker_10, # of connection points: 2
#     Edge 28, Type (0, 0), BuildingBlock: TEMPAE_clean_linker_10, # of connection points: 2
#     Edge 29, Type (0, 0), BuildingBlock: TEMPAE_clean_linker_10, # of connection points: 2
#     Edge 30, Type (0, 0), BuildingBlock: TEMPAE_clean_linker_10, # of connection points: 2
#     Edge 31, Type (0, 0), BuildingBlock: TEMPAE_clean_linker_10, # of connection points: 2
#     Edge 32, Type (0, 0), BuildingBlock: TEMPAE_clean_linker_10, # of connection points: 2
#     Edge 33, Type (0, 0), BuildingBlock: TEMPAE_clean_linker_10, # of connection points: 2
#     Edge 34, Type (0, 0), BuildingBlock: TEMPAE_clean_linker_10, # of connection points: 2
#     Edge 35, Type (0, 0), BuildingBlock: TEMPAE_clean_linker_10, # of connection points: 2
# Relax obj value: 0.142
# Max RMSD: 0.179
# Mean RMSD: 0.179
data_MOF--net-umo--node1-MUDLON_clean_sbu_0--edge1-TEMPAE_clean_linker_10
_symmetry_space_group_name_H-M    P1
_symmetry_Int_Tables_number       1
_symmetry_cell_setting            triclinic
loop_
_symmetry_equiv_pos_as_xyz
'x, y, z'
_cell_length_a     50.834987
_cell_length_b     50.81228
_cell_length_c     39.97492
_cell_angle_alpha  90.086138
_cell_angle_beta   89.971817
_cell_angle_gamma 120.15006
loop_
_atom_site_label
_atom_site_type_symbol
_atom_site_fract_x
_atom_site_fract_y
_atom_site_fract_z
_atom_type_partial_charge
Mg0 Mg 0.16219 0.57778 0.39276 0.0
C1 C 0.14248 0.5765 0.46303 0.0
O2 O 0.12156 0.57854 0.44587 0.0
C3 C 0.21579 0.57939 0.35888 0.0
O4 O 0.22845 0.60693 0.37165 0.0
C5 C 0.09811 0.52756 0.38544 0.0
O6 O 0.10954 0.51457 0.40427 0.0
O7 O 0.1154 0.55483 0.37592 0.0
O8 O 0.16278 0.57387 0.44716 0.0
O9 O 0.18478 0.6262 0.38327 0.0
C10 C 0.17655 0.64431 0.39471 0.0
O11 O 0.1505 0.63325 0.41055 0.0
O12 O 0.18785 0.56087 0.36507 0.0
Mg13 Mg 0.61216 0.16553 0.56931 0.0
C14 C 0.59105 0.15573 0.63796 0.0
O15 O 0.56667 0.14572 0.61913 0.0
C16 C 0.65708 0.18124 0.51232 0.0
O17 O 0.63666 0.15347 0.5033 0.0
C18 C 0.58885 0.09837 0.56405 0.0
O19 O 0.60945 0.10541 0.5875 0.0
O20 O 0.58529 0.1193 0.55144 0.0
O21 O 0.61666 0.16542 0.62358 0.0
O22 O 0.58598 0.18805 0.56446 0.0
C23 C 0.60094 0.21685 0.56245 0.0
O24 O 0.63062 0.23051 0.55888 0.0
O25 O 0.65371 0.19158 0.54003 0.0
Mg26 Mg 0.43015 0.61685 0.73835 0.0
C27 C 0.40892 0.59578 0.80806 0.0
O28 O 0.38828 0.57365 0.78965 0.0
C29 C 0.46192 0.66299 0.68409 0.0
O30 O 0.46716 0.64131 0.67449 0.0
C31 C 0.45173 0.57081 0.73729 0.0
O32 O 0.43787 0.5633 0.76637 0.0
O33 O 0.45216 0.59233 0.72069 0.0
O34 O 0.43053 0.61876 0.7934 0.0
O35 O 0.38296 0.59274 0.72332 0.0
C36 C 0.36608 0.56416 0.71951 0.0
O37 O 0.37754 0.54626 0.72351 0.0
O38 O 0.44853 0.66014 0.71192 0.0
Mg39 Mg 0.81453 0.42771 0.89699 0.0
C40 C 0.8316 0.42753 0.96742 0.0
O41 O 0.85384 0.42777 0.95044 0.0
C42 C 0.77305 0.42493 0.84243 0.0
O43 O 0.77528 0.40071 0.83639 0.0
C44 C 0.87206 0.45 0.85588 0.0
O45 O 0.85327 0.42843 0.83547 0.0
O46 O 0.86188 0.45449 0.883 0.0
O47 O 0.81107 0.42958 0.95135 0.0
O48 O 0.79678 0.37981 0.88742 0.0
C49 C 0.80937 0.36439 0.89484 0.0
O50 O 0.83718 0.37828 0.90683 0.0
O51 O 0.7873 0.44166 0.86741 0.0
Mg52 Mg 0.37624 0.82711 0.06501 0.0
C53 C 0.3972 0.83249 0.1332 0.0
O54 O 0.42152 0.8447 0.11408 0.0
C55 C 0.34146 0.80066 1.00276 0.0
O56 O 0.36974 0.81727 0.99254 0.0
C57 C 0.42354 0.88644 0.03447 0.0
O58 O 0.43297 0.86858 0.02228 0.0
O59 O 0.39981 0.875 0.05259 0.0
O60 O 0.37134 0.8228 0.11937 0.0
O61 O 0.40583 0.80863 0.0569 0.0
C62 C 0.39287 0.77998 0.05355 0.0
O63 O 0.36319 0.76447 0.04969 0.0
O64 O 0.3359 0.80085 0.03381 0.0
Mg65 Mg 0.57404 0.40481 0.22954 0.0
C66 C 0.56587 0.41791 0.30065 0.0
O67 O 0.56459 0.43985 0.28476 0.0
C68 C 0.57286 0.36914 0.17057 0.0
O69 O 0.59125 0.39752 0.16166 0.0
C70 C 0.52352 0.41812 0.22023 0.0
O71 O 0.50973 0.39336 0.23855 0.0
O72 O 0.5511 0.4283 0.21194 0.0
O73 O 0.56793 0.39783 0.28359 0.0
O74 O 0.62275 0.43261 0.22361 0.0
C75 C 0.63897 0.4567 0.24048 0.0
O76 O 0.62555 0.46745 0.25966 0.0
O77 O 0.56054 0.36405 0.19937 0.0
Mg78 Mg 0.43264 0.82215 0.45334 0.0
C79 C 0.43692 0.83954 0.38154 0.0
O80 O 0.44315 0.86494 0.39682 0.0
C81 C 0.46405 0.8048 0.50647 0.0
O82 O 0.47995 0.83452 0.5098 0.0
C83 C 0.45372 0.88002 0.4926 0.0
O84 O 0.42897 0.862 0.50959 0.0
O85 O 0.46077 0.86937 0.46759 0.0
O86 O 0.43354 0.81718 0.39914 0.0
O87 O 0.38532 0.8066 0.46324 0.0
C88 C 0.37137 0.81893 0.45014 0.0
O89 O 0.38691 0.84426 0.43313 0.0
O90 O 0.444 0.79341 0.48353 0.0
Mg91 Mg 0.59661 0.44033 0.62411 0.0
C92 C 0.57879 0.42959 0.55327 0.0
O93 O 0.55357 0.41231 0.56985 0.0
C94 C 0.63529 0.45489 0.68497 0.0
O95 O 0.61053 0.45364 0.69671 0.0
C96 C 0.54669 0.45406 0.64175 0.0
O97 O 0.52965 0.42759 0.62721 0.0
O98 O 0.57522 0.46472 0.64378 0.0
O99 O 0.60298 0.44644 0.56986 0.0
O100 O 0.56673 0.39167 0.62809 0.0
C101 C 0.56745 0.37512 0.65139 0.0
O102 O 0.58429 0.38816 0.6779 0.0
O103 O 0.63716 0.45161 0.65362 0.0
Mg104 Mg 0.15931 0.60241 0.78582 0.0
C105 C 0.13778 0.59029 0.71513 0.0
O106 O 0.11584 0.56684 0.73085 0.0
C107 C 0.19542 0.63785 0.84453 0.0
O108 O 0.1901 0.6102 0.8507 0.0
C109 C 0.09397 0.58354 0.79759 0.0
O110 O 0.10313 0.60929 0.78161 0.0
O111 O 0.11307 0.57498 0.80357 0.0
O112 O 0.15907 0.6113 0.73234 0.0
O113 O 0.18269 0.57673 0.78829 0.0
C114 C 0.17403 0.55218 0.77208 0.0
O115 O 0.14829 0.54004 0.75546 0.0
O116 O 0.18469 0.64242 0.81779 0.0
Mg117 Mg 0.56704 0.1726 0.95947 0.0
C118 C 0.56109 0.15321 0.88837 0.0
O119 O 0.55589 0.12856 0.90454 0.0
C120 C 0.5666 0.20693 0.01902 0.0
O121 O 0.58222 0.19412 0.02876 0.0
C122 C 0.54769 0.11293 0.9954 0.0
O123 O 0.57382 0.12942 1.0108 0.0
O124 O 0.53925 0.12538 0.97369 0.0
O125 O 0.56468 0.17608 0.90521 0.0
O126 O 0.61473 0.18905 0.96837 0.0
C127 C 0.62959 0.1783 0.9539 0.0
O128 O 0.6149 0.15355 0.93568 0.0
O129 O 0.55578 0.20163 0.98945 0.0
Mg130 Mg 0.38509 0.56195 0.13 0.0
C131 C 0.39863 0.56287 0.05826 0.0
O132 O 0.42283 0.56519 0.07294 0.0
C133 C 0.3443 0.54514 0.19108 0.0
O134 O 0.36393 0.53742 0.20171 0.0
C135 C 0.42311 0.54092 0.16607 0.0
O136 O 0.43239 0.567 0.18146 0.0
O137 O 0.40284 0.53263 0.14355 0.0
O138 O 0.3764 0.55909 0.07642 0.0
O139 O 0.42026 0.60899 0.13441 0.0
C140 C 0.41987 0.62645 0.15688 0.0
O141 O 0.40056 0.61445 0.18179 0.0
O142 O 0.34673 0.55493 0.16127 0.0
Mg143 Mg 0.81762 0.37685 0.28722 0.0
C144 C 0.83244 0.39677 0.2171 0.0
O145 O 0.8529 0.42007 0.23443 0.0
C146 C 0.80114 0.32713 0.33947 0.0
O147 O 0.83054 0.34297 0.3452 0.0
C148 C 0.87446 0.41519 0.32805 0.0
O149 O 0.85477 0.41738 0.34744 0.0
O150 O 0.86509 0.39929 0.30155 0.0
O151 O 0.81407 0.37259 0.23274 0.0
O152 O 0.79853 0.40541 0.29864 0.0
C153 C 0.81175 0.43412 0.29494 0.0
O154 O 0.84052 0.44925 0.28614 0.0
O155 O 0.79007 0.33501 0.31553 0.0
C156 C 0.22734 0.68823 0.38043 0.0
C157 C 0.19947 0.67706 0.39708 0.0
C158 C 0.25232 0.71651 0.38885 0.0
C159 C 0.24925 0.73417 0.41433 0.0
C160 C 0.2203 0.72465 0.42843 0.0
C161 C 0.19566 0.69603 0.41971 0.0
C162 C 0.28271 0.72598 0.37279 0.0
C163 C 0.21587 0.74334 0.4548 0.0
C164 C 0.3218 0.77309 0.46413 0.0
C165 C 0.33783 0.801 0.4474 0.0
C166 C 0.29172 0.75202 0.45553 0.0
C167 C 0.27721 0.75922 0.42983 0.0
C168 C 0.29205 0.78868 0.41559 0.0
C169 C 0.32235 0.80927 0.42446 0.0
C170 C 0.2766 0.72096 0.4717 0.0
C171 C 0.27697 0.7976 0.38898 0.0
H172 H 0.23028 0.67396 0.36239 0.0
H173 H 0.17406 0.68776 0.43238 0.0
H174 H 0.29364 0.7499 0.36414 0.0
H175 H 0.29807 0.72454 0.3915 0.0
H176 H 0.2806 0.71131 0.35113 0.0
H177 H 0.19164 0.73718 0.45674 0.0
H178 H 0.22307 0.73913 0.47945 0.0
H179 H 0.22991 0.76804 0.44941 0.0
H180 H 0.33341 0.76677 0.48239 0.0
H181 H 0.33442 0.83101 0.41174 0.0
H182 H 0.27449 0.70375 0.4531 0.0
H183 H 0.25334 0.71441 0.4802 0.0
H184 H 0.2897 0.72006 0.49348 0.0
H185 H 0.27932 0.78882 0.3644 0.0
H186 H 0.28767 0.82272 0.38706 0.0
H187 H 0.25232 0.78767 0.39409 0.0
C188 C 0.60303 0.26659 0.56756 0.0
C189 C 0.58648 0.23492 0.57109 0.0
C190 C 0.59234 0.28485 0.58117 0.0
C191 C 0.56433 0.27106 0.59871 0.0
C192 C 0.54648 0.23897 0.60042 0.0
C193 C 0.55781 0.22121 0.58659 0.0
C194 C 0.61193 0.31904 0.57834 0.0
C195 C 0.51637 0.22339 0.61853 0.0
C196 C 0.5683 0.32727 0.66252 0.0
C197 C 0.55733 0.34295 0.64362 0.0
C198 C 0.56763 0.30128 0.64959 0.0
C199 C 0.55554 0.29081 0.61722 0.0
C200 C 0.54063 0.304 0.60022 0.0
C201 C 0.5417 0.33001 0.61365 0.0
C202 C 0.5831 0.28732 0.6689 0.0
C203 C 0.52659 0.29285 0.56615 0.0
H204 H 0.62503 0.27727 0.55532 0.0
H205 H 0.54487 0.19669 0.58943 0.0
H206 H 0.59857 0.32882 0.56766 0.0
H207 H 0.6197 0.3291 0.60359 0.0
H208 H 0.63228 0.32602 0.56239 0.0
H209 H 0.50228 0.19919 0.61082 0.0
H210 H 0.52051 0.224 0.64584 0.0
H211 H 0.50331 0.23516 0.614 0.0
H212 H 0.57989 0.33677 0.686 0.0
H213 H 0.53247 0.34159 0.59926 0.0
H214 H 0.60554 0.29435 0.65737 0.0
H215 H 0.56946 0.26213 0.66794 0.0
H216 H 0.58683 0.29467 0.69551 0.0
H217 H 0.54484 0.30169 0.54698 0.0
H218 H 0.51045 0.30079 0.55974 0.0
H219 H 0.51444 0.26763 0.56486 0.0
C220 C 0.19276 0.52329 0.73853 0.0
C221 C 0.19584 0.54147 0.7664 0.0
C222 C 0.21678 0.51893 0.72849 0.0
C223 C 0.24429 0.53303 0.74686 0.0
C224 C 0.24628 0.54877 0.77688 0.0
C225 C 0.22202 0.55285 0.78624 0.0
C226 C 0.2136 0.50155 0.69668 0.0
C227 C 0.27505 0.56374 0.79755 0.0
C228 C 0.31318 0.52404 0.73451 0.0
C229 C 0.33291 0.55163 0.71859 0.0
C230 C 0.28298 0.51607 0.74156 0.0
C231 C 0.27258 0.53617 0.73228 0.0
C232 C 0.29156 0.56241 0.71312 0.0
C233 C 0.32154 0.56985 0.7066 0.0
C234 C 0.26326 0.48763 0.76148 0.0
C235 C 0.28121 0.58421 0.70217 0.0
H236 H 0.17246 0.5142 0.72319 0.0
H237 H 0.2243 0.56646 0.80814 0.0
H238 H 0.22496 0.51789 0.67593 0.0
H239 H 0.22472 0.48763 0.6991 0.0
H240 H 0.18935 0.48642 0.68979 0.0
H241 H 0.27164 0.57186 0.8221 0.0
H242 H 0.28344 0.54768 0.80202 0.0
H243 H 0.29306 0.58355 0.78373 0.0
H244 H 0.3219 0.50985 0.74377 0.0
H245 H 0.3367 0.59098 0.69385 0.0
H246 H 0.23932 0.47625 0.75275 0.0
H247 H 0.26352 0.49382 0.78816 0.0
H248 H 0.27163 0.47124 0.75989 0.0
H249 H 0.25846 0.5717 0.69025 0.0
H250 H 0.29733 0.6015 0.68425 0.0
H251 H 0.27924 0.59626 0.72437 0.0
C252 C 0.79842 0.31383 0.9173 0.0
C253 C 0.79004 0.33094 0.89699 0.0
C254 C 0.77698 0.28381 0.92632 0.0
C255 C 0.7466 0.27101 0.91501 0.0
C256 C 0.73903 0.28707 0.89162 0.0
C257 C 0.76092 0.31677 0.88275 0.0
C258 C 0.78628 0.26696 0.95016 0.0
C259 C 0.70698 0.27417 0.87849 0.0
C260 C 0.67893 0.19223 0.92574 0.0
C261 C 0.66295 0.19792 0.95067 0.0
C262 C 0.70826 0.21493 0.91614 0.0
C263 C 0.7215 0.24387 0.93162 0.0
C264 C 0.70697 0.24834 0.9595 0.0
C265 C 0.67793 0.2252 0.96882 0.0
C266 C 0.72366 0.20881 0.88737 0.0
C267 C 0.72047 0.27871 0.97715 0.0
H268 H 0.82105 0.32448 0.92804 0.0
H269 H 0.75451 0.32964 0.86641 0.0
H270 H 0.7812 0.27066 0.97616 0.0
H271 H 0.7736 0.24211 0.94517 0.0
H272 H 0.81107 0.27536 0.94847 0.0
H273 H 0.70554 0.28843 0.85834 0.0
H274 H 0.69831 0.25086 0.86857 0.0
H275 H 0.69173 0.27264 0.89922 0.0
H276 H 0.66777 0.17096 0.91198 0.0
H277 H 0.66602 0.22948 0.98869 0.0
H278 H 0.74872 0.22104 0.89071 0.0
H279 H 0.71866 0.21696 0.8638 0.0
H280 H 0.71527 0.18408 0.8846 0.0
H281 H 0.74465 0.28724 0.98351 0.0
H282 H 0.708 0.27741 1.00049 0.0
H283 H 0.71965 0.29561 0.96027 0.0
C284 C 0.39444 0.73215 0.05879 0.0
C285 C 0.40905 0.76374 0.06287 0.0
C286 C 0.40537 0.71504 0.0747 0.0
C287 C 0.43176 0.72999 0.09499 0.0
C288 C 0.44832 0.76215 0.09654 0.0
C289 C 0.43668 0.77873 0.08049 0.0
C290 C 0.38721 0.68073 0.07186 0.0
C291 C 0.47698 0.77911 0.11705 0.0
C292 C 0.42125 0.6758 0.16399 0.0
C293 C 0.43284 0.65898 0.14852 0.0
C294 C 0.42406 0.70186 0.1486 0.0
C295 C 0.43912 0.7113 0.11737 0.0
C296 C 0.4551 0.69736 0.10465 0.0
C297 C 0.45165 0.67114 0.12033 0.0
C298 C 0.4075 0.71677 0.16359 0.0
C299 C 0.47281 0.70785 0.07241 0.0
H300 H 0.37335 0.72052 0.04477 0.0
H301 H 0.44826 0.80323 0.08361 0.0
H302 H 0.40212 0.67175 0.06396 0.0
H303 H 0.37752 0.67072 0.09664 0.0
H304 H 0.36823 0.67286 0.05363 0.0
H305 H 0.49206 0.80226 0.10682 0.0
H306 H 0.47089 0.78173 0.14301 0.0
H307 H 0.48981 0.76677 0.11807 0.0
H308 H 0.40729 0.66698 0.18622 0.0
H309 H 0.46147 0.65873 0.10877 0.0
H310 H 0.38663 0.71028 0.14879 0.0
H311 H 0.4219 0.7419 0.16269 0.0
H312 H 0.40075 0.70974 0.18996 0.0
H313 H 0.45689 0.69825 0.05095 0.0
H314 H 0.48968 0.70012 0.07039 0.0
H315 H 0.48484 0.73303 0.07034 0.0
C316 C 0.76304 0.43285 0.30602 0.0
C317 C 0.7929 0.44871 0.29386 0.0
C318 C 0.74226 0.44237 0.29845 0.0
C319 C 0.75166 0.46853 0.27834 0.0
C320 C 0.78256 0.48641 0.26889 0.0
C321 C 0.80291 0.47621 0.27672 0.0
C322 C 0.70958 0.42282 0.30951 0.0
C323 C 0.79365 0.51489 0.24827 0.0
C324 C 0.6855 0.45515 0.22454 0.0
C325 C 0.67172 0.46742 0.24469 0.0
C326 C 0.71344 0.45806 0.23354 0.0
C327 C 0.728 0.47379 0.2633 0.0
C328 C 0.71607 0.48938 0.28144 0.0
C329 C 0.68791 0.48595 0.27195 0.0
C330 C 0.72564 0.44149 0.2131 0.0
C331 C 0.73145 0.50724 0.31264 0.0
H332 H 0.75534 0.41189 0.31985 0.0
H333 H 0.82607 0.48877 0.26748 0.0
H334 H 0.70127 0.437 0.32143 0.0
H335 H 0.69501 0.4116 0.28737 0.0
H336 H 0.70666 0.40489 0.32748 0.0
H337 H 0.81866 0.53006 0.25063 0.0
H338 H 0.78833 0.50856 0.22154 0.0
H339 H 0.78221 0.5277 0.25575 0.0
H340 H 0.67342 0.44136 0.203 0.0
H341 H 0.67766 0.49594 0.28739 0.0
H342 H 0.72257 0.42134 0.22722 0.0
H343 H 0.75033 0.45638 0.20841 0.0
H344 H 0.71381 0.43359 0.18866 0.0
H345 H 0.7255 0.49135 0.33403 0.0
H346 H 0.72401 0.52383 0.31878 0.0
H347 H 0.75657 0.51962 0.30989 0.0
C348 C 0.16117 0.6153 0.66018 0.0
C349 C 0.13922 0.59 0.67804 0.0
C350 C 0.16321 0.61431 0.62512 0.0
C351 C 0.14308 0.58728 0.60761 0.0
C352 C 0.12099 0.56169 0.62556 0.0
C353 C 0.11921 0.56343 0.66043 0.0
C354 C 0.18679 0.6422 0.60678 0.0
C355 C 0.09923 0.53236 0.60793 0.0
C356 C 0.12515 0.58944 0.5158 0.0
C357 C 0.14326 0.57945 0.50001 0.0
C358 C 0.12557 0.5929 0.55065 0.0
C359 C 0.14427 0.58583 0.57041 0.0
C360 C 0.16278 0.57589 0.55468 0.0
C361 C 0.16221 0.57301 0.51962 0.0
C362 C 0.10572 0.60383 0.56635 0.0
C363 C 0.18274 0.56777 0.57496 0.0
H364 H 0.17675 0.63588 0.67358 0.0
H365 H 0.1023 0.54365 0.67395 0.0
H366 H 0.20209 0.6367 0.59242 0.0
H367 H 0.17548 0.6497 0.5885 0.0
H368 H 0.20078 0.66141 0.62401 0.0
H369 H 0.08399 0.51423 0.62564 0.0
H370 H 0.08498 0.5364 0.59002 0.0
H371 H 0.11213 0.52401 0.59328 0.0
H372 H 0.11066 0.59479 0.50088 0.0
H373 H 0.1763 0.56535 0.50761 0.0
H374 H 0.11966 0.62401 0.58234 0.0
H375 H 0.08845 0.5858 0.5827 0.0
H376 H 0.09375 0.60995 0.54736 0.0
H377 H 0.19838 0.58728 0.59095 0.0
H378 H 0.19645 0.5613 0.55894 0.0
H379 H 0.16844 0.54848 0.59186 0.0
C380 C 0.61331 0.16649 0.69611 0.0
C381 C 0.58816 0.15684 0.67484 0.0
C382 C 0.61017 0.16754 0.73103 0.0
C383 C 0.58126 0.15884 0.74492 0.0
C384 C 0.55595 0.14949 0.7235 0.0
C385 C 0.55969 0.14855 0.68886 0.0
C386 C 0.63768 0.17755 0.7531 0.0
C387 C 0.52474 0.14006 0.73721 0.0
C388 C 0.56306 0.12964 0.83419 0.0
C389 C 0.56563 0.15487 0.85154 0.0
C390 C 0.56864 0.13088 0.79969 0.0
C391 C 0.57692 0.15799 0.78189 0.0
C392 C 0.57955 0.18359 0.79916 0.0
C393 C 0.5739 0.18175 0.83381 0.0
C394 C 0.56547 0.10303 0.78225 0.0
C395 C 0.58818 0.21286 0.781 0.0
H396 H 0.63539 0.17305 0.68551 0.0
H397 H 0.5401 0.14125 0.67271 0.0
H398 H 0.64109 0.19683 0.76918 0.0
H399 H 0.63397 0.15865 0.76995 0.0
H400 H 0.65875 0.18466 0.73841 0.0
H401 H 0.50765 0.13451 0.7171 0.0
H402 H 0.51687 0.1198 0.75347 0.0
H403 H 0.52569 0.15856 0.75289 0.0
H404 H 0.55681 0.10879 0.8476 0.0
H405 H 0.57612 0.20141 0.84701 0.0
H406 H 0.58695 0.10877 0.76916 0.0
H407 H 0.54732 0.09504 0.76302 0.0
H408 H 0.55982 0.08403 0.79988 0.0
H409 H 0.61027 0.22126 0.76801 0.0
H410 H 0.59004 0.23094 0.79815 0.0
H411 H 0.57093 0.2087 0.76156 0.0
C412 C 0.37938 0.57612 1.0068 0.0
C413 C 0.39884 0.56739 0.02159 0.0
C414 C 0.38112 0.58253 0.97236 0.0
C415 C 0.40245 0.57961 0.95218 0.0
C416 C 0.4219 0.57048 0.96698 0.0
C417 C 0.42002 0.56473 1.00149 0.0
C418 C 0.36024 0.59254 0.95759 0.0
C419 C 0.44454 0.5665 0.9463 0.0
C420 C 0.38668 0.56428 0.85928 0.0
C421 C 0.40722 0.59255 0.84504 0.0
C422 C 0.38473 0.55993 0.89401 0.0
C423 C 0.4035 0.58456 0.91531 0.0
C424 C 0.42394 0.61337 0.90124 0.0
C425 C 0.42574 0.61698 0.86621 0.0
C426 C 0.36295 0.52874 0.90786 0.0
C427 C 0.44405 0.64027 0.92319 0.0
H428 H 0.36322 0.57859 0.02225 0.0
H429 H 0.43513 0.55798 1.01274 0.0
H430 H 0.3738 0.6147 0.94468 0.0
H431 H 0.34521 0.57581 0.93857 0.0
H432 H 0.3458 0.5949 0.97686 0.0
H433 H 0.45818 0.55948 0.96166 0.0
H434 H 0.43244 0.54903 0.92668 0.0
H435 H 0.46029 0.58809 0.93339 0.0
H436 H 0.37231 0.54518 0.8432 0.0
H437 H 0.44154 0.63892 0.85544 0.0
H438 H 0.34689 0.5301 0.9256 0.0
H439 H 0.37577 0.52002 0.922 0.0
H440 H 0.3496 0.51208 0.88792 0.0
H441 H 0.43001 0.64409 0.94168 0.0
H442 H 0.45758 0.66147 0.90853 0.0
H443 H 0.45993 0.63555 0.93748 0.0
C444 C 0.81087 0.37489 0.16035 0.0
C445 C 0.82998 0.39996 0.18048 0.0
C446 C 0.80885 0.37826 0.12563 0.0
C447 C 0.82611 0.40741 0.11082 0.0
C448 C 0.8449 0.43283 0.13117 0.0
C449 C 0.84671 0.42877 0.16561 0.0
C450 C 0.78875 0.35056 0.10469 0.0
C451 C 0.86354 0.46433 0.11649 0.0
C452 C 0.84995 0.41516 0.01972 0.0
C453 C 0.82965 0.42241 1.00413 0.0
C454 C 0.84843 0.40944 0.05418 0.0
C455 C 0.82624 0.41126 0.07382 0.0
C456 C 0.80552 0.4184 0.05831 0.0
C457 C 0.80738 0.42376 0.02359 0.0
C458 C 0.87089 0.40178 0.06962 0.0
C459 C 0.78171 0.42081 0.07848 0.0
H460 H 0.79778 0.35258 0.17165 0.0
H461 H 0.86132 0.44838 0.18093 0.0
H462 H 0.77249 0.35441 0.08999 0.0
H463 H 0.80287 0.34649 0.08657 0.0
H464 H 0.77571 0.32978 0.12014 0.0
H465 H 0.87564 0.48198 0.13599 0.0
H466 H 0.88064 0.4648 0.09887 0.0
H467 H 0.8487 0.47038 0.10205 0.0
H468 H 0.86709 0.41376 1.00494 0.0
H469 H 0.79154 0.42922 1.01175 0.0
H470 H 0.85862 0.37999 0.08353 0.0
H471 H 0.8855 0.41968 0.08787 0.0
H472 H 0.88576 0.39978 0.05064 0.0
H473 H 0.76755 0.39941 0.09252 0.0
H474 H 0.7666 0.42545 0.06256 0.0
H475 H 0.79292 0.43937 0.09717 0.0
C476 C 0.42907 0.83596 0.18225 0.0
C477 C 0.40075 0.82991 0.16972 0.0
C478 C 0.43395 0.83512 0.21663 0.0
C479 C 0.40998 0.82815 0.23932 0.0
C480 C 0.38102 0.82111 0.22688 0.0
C481 C 0.37671 0.82199 0.19216 0.0
C482 C 0.46512 0.84259 0.22871 0.0
C483 C 0.35488 0.81353 0.25031 0.0
C484 C 0.42002 0.80834 0.32865 0.0
C485 C 0.43078 0.83639 0.34498 0.0
C486 C 0.41261 0.80509 0.29438 0.0
C487 C 0.41607 0.83048 0.27603 0.0
C488 C 0.42695 0.85881 0.2924 0.0
C489 C 0.43416 0.8614 0.32656 0.0
C490 C 0.40118 0.77455 0.27777 0.0
C491 C 0.43117 0.88651 0.27376 0.0
H492 H 0.44773 0.8417 0.16513 0.0
H493 H 0.35474 0.81713 0.18268 0.0
H494 H 0.4754 0.86393 0.24358 0.0
H495 H 0.46332 0.82431 0.24535 0.0
H496 H 0.48072 0.84554 0.20775 0.0
H497 H 0.3333 0.80649 0.23669 0.0
H498 H 0.35143 0.79494 0.26752 0.0
H499 H 0.36027 0.83368 0.26596 0.0
H500 H 0.41712 0.78883 0.34269 0.0
H501 H 0.44235 0.88316 0.33889 0.0
H502 H 0.41694 0.77654 0.25743 0.0
H503 H 0.37865 0.76687 0.26614 0.0
H504 H 0.39903 0.75686 0.29566 0.0
H505 H 0.44815 0.89239 0.2535 0.0
H506 H 0.43896 0.90664 0.29036 0.0
H507 H 0.40947 0.88158 0.26181 0.0
C508 C 0.57482 0.39899 0.35518 0.0
C509 C 0.5678 0.41863 0.33774 0.0
C510 C 0.57825 0.40085 0.39019 0.0
C511 C 0.57442 0.42276 0.40818 0.0
C512 C 0.56726 0.44255 0.39069 0.0
C513 C 0.56408 0.44027 0.35577 0.0
C514 C 0.58588 0.37934 0.40796 0.0
C515 C 0.5627 0.46603 0.4089 0.0
C516 C 0.55104 0.40865 0.49951 0.0
C517 C 0.57842 0.42814 0.51613 0.0
C518 C 0.54962 0.40638 0.46453 0.0
C519 C 0.57624 0.42402 0.44544 0.0
C520 C 0.60407 0.44358 0.46195 0.0
C521 C 0.60484 0.44544 0.49715 0.0
C522 C 0.51947 0.38529 0.448 0.0
C523 C 0.63294 0.46273 0.44241 0.0
H524 H 0.57797 0.38236 0.34147 0.0
H525 H 0.55869 0.45559 0.34257 0.0
H526 H 0.60696 0.39242 0.42291 0.0
H527 H 0.56737 0.36489 0.42565 0.0
H528 H 0.58913 0.36431 0.3903 0.0
H529 H 0.55805 0.48027 0.39155 0.0
H530 H 0.54335 0.45457 0.42658 0.0
H531 H 0.58321 0.48116 0.42388 0.0
H532 H 0.53046 0.39507 0.51384 0.0
H533 H 0.6261 0.46044 0.50976 0.0
H534 H 0.52156 0.36872 0.43175 0.0
H535 H 0.51269 0.39858 0.43175 0.0
H536 H 0.50104 0.3725 0.46646 0.0
H537 H 0.63764 0.44801 0.42589 0.0
H538 H 0.65291 0.47599 0.45895 0.0
H539 H 0.63016 0.47881 0.42607 0.0
C540 C 0.91774 0.44905 0.36579 0.0
C541 C 0.90726 0.43145 0.33656 0.0
C542 C 0.94881 0.46486 0.37389 0.0
C543 C 0.96988 0.46303 0.35224 0.0
C544 C 0.95946 0.44528 0.32273 0.0
C545 C 0.92827 0.4297 0.31525 0.0
C546 C 0.95911 0.48354 0.40561 0.0
C547 C 0.98126 0.44278 0.29903 0.0
C548 C 0.05293 0.52507 0.35721 0.0
C549 C 0.06542 0.51098 0.37646 0.0
C550 C 0.02185 0.50972 0.3491 0.0
C551 C 0.00285 0.47957 0.36052 0.0
C552 C 0.01533 0.46517 0.37985 0.0
C553 C 0.04646 0.48105 0.38759 0.0
C554 C 0.00934 0.52579 0.3284 0.0
C555 C -0.00423 0.43302 0.39245 0.0
H556 H 0.90167 0.45055 0.38238 0.0
H557 H 0.9204 0.41619 0.29259 0.0
H558 H 0.97099 0.47524 0.42203 0.0
H559 H 0.9756 0.50765 0.39955 0.0
H560 H 0.93985 0.48262 0.41975 0.0
H561 H 0.96949 0.42808 0.27711 0.0
H562 H -0.00162 0.46571 0.28989 0.0
H563 H 0.99378 0.43328 0.31234 0.0
H564 H 0.0674 0.5482 0.34853 0.0
H565 H 0.0559 0.46997 0.40249 0.0
H566 H 0.99124 0.52711 0.34253 0.0
H567 H -0.00121 0.51267 0.3052 0.0
H568 H 0.02716 0.54921 0.32137 0.0
H569 H 0.97726 0.43157 0.40848 0.0
H570 H 0.00901 0.42507 0.40712 0.0
H571 H 0.98487 0.41728 0.37107 0.0
C572 C 0.50057 0.93092 0.48536 0.0
C573 C 0.47354 0.91213 0.50282 0.0
C574 C 0.51975 0.9613 0.49496 0.0
C575 C 0.51169 0.97319 0.52263 0.0
C576 C 0.48443 0.95439 0.54031 0.0
C577 C 0.46569 0.92406 0.53021 0.0
C578 C 0.54867 0.98067 0.47552 0.0
C579 C 0.47507 0.96633 0.56991 0.0
C580 C 0.57364 0.04331 0.5666 0.0
C581 C 0.56948 0.06641 0.55305 0.0
C582 C 0.55506 0.01286 0.55682 0.0
C583 C 0.53174 0.00536 0.533 0.0
C584 C 0.5275 0.02857 0.51912 0.0
C585 C 0.54645 0.05882 0.52928 0.0
C586 C 0.56031 0.9887 0.57206 0.0
C587 C 0.50283 0.02141 0.49368 0.0
H588 H 0.50683 0.92189 0.46418 0.0
H589 H 0.44486 0.90971 0.54383 0.0
H590 H 0.54852 0.0008 0.46502 0.0
H591 H 0.56862 0.98926 0.49242 0.0
H592 H 0.55169 0.96795 0.45467 0.0
H593 H 0.45316 0.94878 0.58095 0.0
H594 H 0.49288 0.97447 0.58955 0.0
H595 H 0.47281 0.98606 0.56219 0.0
H596 H 0.59139 0.04897 0.58495 0.0
H597 H 0.54305 0.07652 0.5187 0.0
H598 H 0.56507 0.97648 0.55208 0.0
H599 H 0.53949 0.97163 0.5853 0.0
H600 H 0.57958 -0.00167 0.59004 0.0
H601 H 0.50604 0.01013 0.47153 0.0
H602 H 0.5026 0.04211 0.48521 0.0
H603 H 0.48026 0.00531 0.50451 0.0
C604 C 0.48176 0.56272 0.693 0.0
C605 C 0.4661 0.55399 0.72356 0.0
C606 C 0.49511 0.54672 0.67945 0.0
C607 C 0.49271 0.52137 0.69685 0.0
C608 C 0.47703 0.51249 0.72775 0.0
C609 C 0.46393 0.52893 0.74076 0.0
C610 C 0.51171 0.55688 0.64645 0.0
C611 C 0.47402 0.48556 0.74701 0.0
C612 C 0.50267 0.4627 0.64826 0.0
C613 C 0.53287 0.47126 0.6558 0.0
C614 C 0.48935 0.47892 0.66131 0.0
C615 C 0.50656 0.50408 0.68269 0.0
C616 C 0.537 0.51275 0.69053 0.0
C617 C 0.54985 0.49632 0.67686 0.0
C618 C 0.4569 0.46921 0.65215 0.0
C619 C 0.55597 0.53931 0.71346 0.0
H620 H 0.48358 0.58208 0.67956 0.0
H621 H 0.45184 0.52201 0.76436 0.0
H622 H 0.53566 0.5625 0.64959 0.0
H623 H 0.50103 0.53811 0.62792 0.0
H624 H 0.5116 0.57712 0.63614 0.0
H625 H 0.46131 0.48176 0.7708 0.0
H626 H 0.46205 0.46466 0.73153 0.0
H627 H 0.4969 0.48905 0.75282 0.0
H628 H 0.48947 0.44345 0.63188 0.0
H629 H 0.57316 0.50298 0.68293 0.0
H630 H 0.45598 0.4883 0.63988 0.0
H631 H 0.44276 0.46331 0.67508 0.0
H632 H 0.4467 0.44927 0.63502 0.0
H633 H 0.55788 0.56041 0.703 0.0
H634 H 0.57924 0.543 0.71721 0.0
H635 H 0.54473 0.53543 0.73821 0.0
C636 C 0.0402 0.57262 0.79828 0.0
C637 C 0.06158 0.56402 0.80686 0.0
C638 C 0.00929 0.55397 0.80608 0.0
C639 C -0.00045 0.52609 0.82292 0.0
C640 C 0.02101 0.51734 0.83182 0.0
C641 C 0.05178 0.5364 0.82366 0.0
C642 C 0.98705 0.56406 0.7962 0.0
C643 C 0.01146 0.48781 0.84991 0.0
C644 C 0.92469 0.49151 0.86999 0.0
C645 C 0.90472 0.46914 0.84749 0.0
C646 C 0.95563 0.51007 0.86238 0.0
C647 C 0.9669 0.50622 0.8315 0.0
C648 C 0.94694 0.4836 0.80873 0.0
C649 C 0.91607 0.4653 0.81701 0.0
C650 C 0.97624 0.5339 0.88733 0.0
C651 C 0.95818 0.47887 0.77554 0.0
H652 H 0.04756 0.59389 0.78525 0.0
H653 H 0.06814 0.52956 0.83037 0.0
H654 H 0.96928 0.54682 0.77953 0.0
H655 H 0.97536 0.56595 0.81875 0.0
H656 H -0.00172 0.58635 0.7831 0.0
H657 H 0.03097 0.48432 0.85506 0.0
H658 H 0.00045 0.48745 0.874 0.0
H659 H 0.99443 0.46837 0.83477 0.0
H660 H 0.91616 0.4946 0.89365 0.0
H661 H 0.90082 0.44807 0.7995 0.0
H662 H 0.98653 0.55684 0.87587 0.0
H663 H 0.99517 0.5301 0.89441 0.0
H664 H 0.96397 0.53374 0.91041 0.0
H665 H 0.96794 0.50009 0.76058 0.0
H666 H 0.9398 0.46012 0.76077 0.0
H667 H 0.97661 0.47357 0.77964 0.0
C668 C 0.53681 0.06619 0.02741 0.0
C669 C 0.52882 0.07989 1.00202 0.0
C670 C 0.51949 0.03474 0.03324 0.0
C671 C 0.49371 0.01658 1.01304 0.0
C672 C 0.48543 0.03029 0.98751 0.0
C673 C 0.50302 0.06178 0.98237 0.0
C674 C 0.52888 0.0209 0.06085 0.0
C675 C 0.45816 0.01163 0.96537 0.0
C676 C 0.46598 0.93206 1.00652 0.0
C677 C 0.44107 0.91966 0.02843 0.0
C678 C 0.48326 0.96357 1.0012 0.0
C679 C 0.47554 0.98315 0.01836 0.0
C680 C 0.4504 0.97079 0.04045 0.0
C681 C 0.43339 0.93918 0.04514 0.0
C682 C 0.5098 0.97593 0.97724 0.0
C683 C 0.44157 0.99099 0.05929 0.0
H684 H 0.55666 0.08003 0.04274 0.0
H685 H 0.49672 0.07215 0.96262 0.0
H686 H 0.50987 0.00875 0.07879 0.0
H687 H 0.53413 0.00388 0.05022 0.0
H688 H 0.54915 0.03825 0.07475 0.0
H689 H 0.45465 0.02582 0.94679 0.0
H690 H 0.46106 0.99422 0.95174 0.0
H691 H 0.43732 -0.00065 0.98083 0.0
H692 H 0.47203 0.91713 0.99347 0.0
H693 H 0.41424 0.92981 0.06221 0.0
H694 H 0.53112 0.99186 0.99055 0.0
H695 H 0.50656 0.989 0.95705 0.0
H696 H 0.51266 0.95763 0.96566 0.0
H697 H 0.46089 0.00744 0.07498 0.0
H698 H 0.42147 0.9778 0.07566 0.0
H699 H 0.43633 0.0044 0.04141 0.0
C700 C 0.43006 0.49636 0.15455 0.0
C701 C 0.43668 0.52187 0.1742 0.0
C702 C 0.4435 0.47866 0.16137 0.0
C703 C 0.46385 0.48652 0.18863 0.0
C704 C 0.47033 0.512 0.20882 0.0
C705 C 0.45675 0.52944 0.20128 0.0
C706 C 0.43618 0.45174 0.13919 0.0
C707 C 0.49175 0.52093 0.23827 0.0
C708 C 0.47922 0.42653 0.22491 0.0
C709 C 0.50775 0.4349 0.21112 0.0
C710 C 0.46457 0.44302 0.21764 0.0
C711 C 0.47869 0.46833 0.19586 0.0
C712 C 0.50723 0.47659 0.18141 0.0
C713 C 0.52148 0.45985 0.18932 0.0
C714 C 0.43421 0.43364 0.23367 0.0
C715 C 0.52286 0.50331 0.15785 0.0
H716 H 0.41463 0.49041 0.13352 0.0
H717 H 0.4619 0.54904 0.21665 0.0
H718 H 0.45732 0.45488 0.12736 0.0
H719 H 0.42659 0.43065 0.15436 0.0
H720 H 0.41968 0.44851 0.11915 0.0
H721 H 0.49387 0.54098 0.25191 0.0
H722 H 0.48366 0.50162 0.256 0.0
H723 H 0.51468 0.52637 0.2296 0.0
H724 H 0.46849 0.40733 0.24185 0.0
H725 H 0.54348 0.4664 0.17847 0.0
H726 H 0.41689 0.42886 0.21412 0.0
H727 H 0.43599 0.45254 0.24929 0.0
H728 H 0.42606 0.41311 0.24963 0.0
H729 H 0.5077 0.5003 0.13645 0.0
H730 H 0.5446 0.50622 0.14798 0.0
H731 H 0.52769 0.52454 0.17096 0.0
C732 C 0.26383 0.59259 0.32827 0.0
C733 C 0.23332 0.5713 0.33537 0.0
C734 C 0.28043 0.58639 0.30462 0.0
C735 C 0.26628 0.55814 0.28753 0.0
C736 C 0.23564 0.53631 0.29489 0.0
C737 C 0.21952 0.54314 0.31873 0.0
C738 C 0.31307 0.61029 0.29763 0.0
C739 C 0.21979 0.50591 0.27728 0.0
C740 C 0.30338 0.55739 0.20499 0.0
C741 C 0.32192 0.54559 0.21473 0.0
C742 C 0.28431 0.56058 0.22815 0.0
C743 C 0.28373 0.55176 0.26188 0.0
C744 C 0.30155 0.53879 0.27155 0.0
C745 C 0.32039 0.53587 0.24791 0.0
C746 C 0.26562 0.57445 0.21679 0.0
C747 C 0.30159 0.52905 0.30721 0.0
H748 H 0.27477 0.61442 0.34094 0.0
H749 H 0.19596 0.52656 0.32396 0.0
H750 H 0.32823 0.60085 0.30228 0.0
H751 H 0.31566 0.6171 0.27093 0.0
H752 H 0.32085 0.63096 0.31333 0.0
H753 H 0.19614 0.49115 0.28635 0.0
H754 H 0.21912 0.50938 0.24996 0.0
H755 H 0.23265 0.49383 0.28103 0.0
H756 H 0.30433 0.56494 0.17944 0.0
H757 H 0.33451 0.5266 0.25572 0.0
H758 H 0.2739 0.59674 0.22933 0.0
H759 H 0.24146 0.55965 0.22404 0.0
H760 H 0.26682 0.57801 0.18929 0.0
H761 H 0.31155 0.5493 0.32383 0.0
H762 H 0.31489 0.51729 0.31016 0.0
H763 H 0.27798 0.51361 0.31585 0.0
C764 C 0.74925 0.29115 0.36238 0.0
C765 C 0.7808 0.3028 0.36313 0.0
C766 C 0.73008 0.27044 0.38672 0.0
C767 C 0.74266 0.26081 0.41227 0.0
C768 C 0.77433 0.27165 0.41249 0.0
C769 C 0.79303 0.29262 0.38806 0.0
C770 C 0.69646 0.25958 0.38567 0.0
C771 C 0.78857 0.2616 0.43898 0.0
C772 C 0.69734 0.23304 0.49317 0.0
C773 C 0.68131 0.20139 0.48848 0.0
C774 C 0.71782 0.25259 0.46888 0.0
C775 C 0.72272 0.2402 0.43933 0.0
C776 C 0.70753 0.20822 0.43507 0.0
C777 C 0.68688 0.18923 0.45958 0.0
C778 C 0.7334 0.28656 0.47431 0.0
C779 C 0.71245 0.19408 0.4042 0.0
H780 H 0.73957 0.29892 0.34333 0.0
H781 H 0.81735 0.30139 0.3888 0.0
H782 H 0.68315 0.23435 0.38488 0.0
H783 H 0.68972 0.26688 0.40874 0.0
H784 H 0.69012 0.26857 0.36368 0.0
H785 H 0.81321 0.27062 0.43448 0.0
H786 H 0.7858 0.26953 0.46391 0.0
H787 H 0.77688 0.23639 0.43989 0.0
H788 H 0.6931 0.24268 0.51533 0.0
H789 H 0.67472 0.16479 0.45579 0.0
H790 H 0.72619 0.29701 0.45463 0.0
H791 H 0.75841 0.29681 0.47219 0.0
H792 H 0.72806 0.29255 0.49915 0.0
H793 H 0.70388 0.20039 0.38187 0.0
H794 H 0.70065 0.16886 0.40578 0.0
H795 H 0.7371 0.20293 0.4003 0.0
C796 C 0.48427 0.69193 0.63111 0.0
C797 C 0.4673 0.68768 0.66037 0.0
C798 C 0.48638 0.71238 0.6062 0.0
C799 C 0.4709 0.72881 0.61043 0.0
C800 C 0.45471 0.72551 0.64047 0.0
C801 C 0.45324 0.70512 0.66515 0.0
C802 C 0.50428 0.71556 0.57481 0.0
C803 C 0.43783 0.74256 0.64593 0.0
C804 C 0.4904 0.7975 0.55562 0.0
C805 C 0.46719 0.78494 0.53148 0.0
C806 C 0.49225 0.77945 0.5811 0.0
C807 C 0.47022 0.7481 0.58271 0.0
C808 C 0.44709 0.73516 0.55806 0.0
C809 C 0.44594 0.75368 0.53268 0.0
C810 C 0.51748 0.79404 0.60662 0.0
C811 C 0.42309 0.70184 0.55893 0.0
H812 H 0.49537 0.6787 0.62726 0.0
H813 H 0.44 0.70194 0.6876 0.0
H814 H 0.48859 0.70647 0.55312 0.0
H815 H 0.5206 0.73991 0.56968 0.0
H816 H 0.51707 0.70319 0.57656 0.0
H817 H 0.42777 0.73883 0.67137 0.0
H818 H 0.45333 0.76732 0.64223 0.0
H819 H 0.41927 0.73502 0.62724 0.0
H820 H 0.50699 0.82161 0.55488 0.0
H821 H 0.42787 0.74375 0.51426 0.0
H822 H 0.53032 0.78171 0.60762 0.0
H823 H 0.50769 0.79248 0.63184 0.0
H824 H 0.53363 0.81837 0.601 0.0
H825 H 0.43399 0.68763 0.55823 0.0
H826 H 0.4069 0.69519 0.53767 0.0
H827 H 0.41007 0.69661 0.58265 0.0
C828 C 0.75797 0.46142 0.8189 0.0
C829 C 0.7542 0.43213 0.82009 0.0
C830 C 0.74067 0.46823 0.79675 0.0
C831 C 0.7187 0.44506 0.77583 0.0
C832 C 0.71466 0.41541 0.77722 0.0
C833 C 0.7326 0.40941 0.79906 0.0
C834 C 0.74596 0.50022 0.79561 0.0
C835 C 0.69111 0.38985 0.75588 0.0
C836 C 0.65104 0.44949 0.7426 0.0
C837 C 0.65825 0.45565 0.70854 0.0
C838 C 0.67093 0.44694 0.76495 0.0
C839 C 0.69907 0.45122 0.75318 0.0
C840 C 0.70715 0.45885 0.71915 0.0
C841 C 0.6865 0.46067 0.69714 0.0
C842 C 0.66112 0.43821 0.80083 0.0
C843 C 0.73718 0.46413 0.70576 0.0
H844 H 0.77478 0.47914 0.83489 0.0
H845 H 0.72941 0.38666 0.79992 0.0
H846 H 0.75169 0.5092 0.76972 0.0
H847 H 0.72486 0.50018 0.80278 0.0
H848 H 0.7646 0.5159 0.81259 0.0
H849 H 0.69067 0.36803 0.76011 0.0
H850 H 0.66818 0.38639 0.7614 0.0
H851 H 0.69575 0.39584 0.72902 0.0
H852 H 0.62923 0.44546 0.75167 0.0
H853 H 0.69233 0.46561 0.67092 0.0
H854 H 0.67886 0.45457 0.81815 0.0
H855 H 0.65823 0.41544 0.80596 0.0
H856 H 0.63936 0.43744 0.80651 0.0
H857 H 0.75612 0.48047 0.72196 0.0
H858 H 0.74145 0.47304 0.67976 0.0
H859 H 0.73746 0.44244 0.706 0.0
C860 C 0.28717 0.76171 0.98883 0.0
C861 C 0.31762 0.77973 0.97891 0.0
C862 C 0.26524 0.74009 0.96692 0.0
C863 C 0.27406 0.73612 0.9345 0.0
C864 C 0.30455 0.75495 0.92404 0.0
C865 C 0.32584 0.77657 0.94623 0.0
C866 C 0.23287 0.72077 0.97885 0.0
C867 C 0.31507 0.75131 0.88988 0.0
C868 C 0.23121 0.6584 0.89299 0.0
C869 C 0.21453 0.66301 0.86803 0.0
C870 C 0.25017 0.68184 0.91504 0.0
C871 C 0.25231 0.71063 0.91251 0.0
C872 C 0.23501 0.71531 0.88789 0.0
C873 C 0.21649 0.69151 0.86574 0.0
C874 C 0.26854 0.67594 0.94054 0.0
C875 C 0.23635 0.74555 0.8847 0.0
H876 H 0.28055 0.76408 0.01394 0.0
H877 H 0.34927 0.79038 0.9382 0.0
H878 H 0.21682 0.72085 0.9601 0.0
H879 H 0.22746 0.69685 0.98175 0.0
H880 H 0.22893 0.72878 1.00321 0.0
H881 H 0.33906 0.76894 0.88479 0.0
H882 H 0.31304 0.72857 0.88795 0.0
H883 H 0.30044 0.75258 0.87012 0.0
H884 H 0.22995 0.63653 0.89496 0.0
H885 H 0.20354 0.69521 0.84668 0.0
H886 H 0.26356 0.68081 0.96609 0.0
H887 H 0.29318 0.6914 0.93595 0.0
H888 H 0.26379 0.65209 0.93977 0.0
H889 H 0.23133 0.75239 0.90918 0.0
H890 H 0.22003 0.74493 0.86581 0.0
H891 H 0.25963 0.76337 0.87738 0.0
C892 C 0.54607 0.31366 0.15443 0.0
C893 C 0.5682 0.34398 0.14781 0.0
C894 C 0.54254 0.28989 0.13329 0.0
C895 C 0.5619 0.29656 0.10518 0.0
C896 C 0.58392 0.32717 0.09815 0.0
C897 C 0.58665 0.35044 0.11937 0.0
C898 C 0.51853 0.25758 0.14138 0.0
C899 C 0.60532 0.33532 0.06876 0.0
C900 C 0.58008 0.23746 0.07178 0.0
C901 C 0.5635 0.22841 0.04176 0.0
C902 C 0.57908 0.25897 0.09299 0.0
C903 C 0.56075 0.27161 0.08429 0.0
C904 C 0.54316 0.26188 0.05457 0.0
C905 C 0.5449 0.24054 0.03353 0.0
C906 C 0.59849 0.26893 0.12418 0.0
C907 C 0.52306 0.27454 0.04465 0.0
H908 H 0.53158 0.30847 0.17621 0.0
H909 H 0.60386 0.37376 0.114 0.0
H910 H 0.50406 0.24658 0.11912 0.0
H911 H 0.52955 0.2442 0.14808 0.0
H912 H 0.50375 0.25639 0.16248 0.0
H913 H 0.62044 0.3603 0.06602 0.0
H914 H 0.6197 0.32478 0.0719 0.0
H915 H 0.59221 0.32619 0.04526 0.0
H916 H 0.59454 0.22827 0.07844 0.0
H917 H 0.53187 0.23355 1.01051 0.0
H918 H 0.58428 0.26597 0.14648 0.0
H919 H 0.61573 0.29348 0.12241 0.0
H920 H 0.61049 0.25597 0.12814 0.0
H921 H 0.50786 0.27239 0.06569 0.0
H922 H 0.50889 0.26282 0.02238 0.0
H923 H 0.5373 0.29914 0.03891 0.0
loop_
_geom_bond_atom_site_label_1
_geom_bond_atom_site_label_2
_geom_bond_distance
_geom_bond_site_symmetry_2
_ccdc_geom_bond_type
Mg0 O7 2.141 . S
Mg0 O8 2.048 . S
Mg0 O9 2.048 . S
Mg0 O12 2.141 . S
C1 O2 1.313 . S
C1 O8 1.195 . S
O2 C1 1.313 . S
C3 O4 1.245 . S
C3 O12 1.289 . S
O4 C3 1.245 . S
C5 O6 1.245 . S
C5 O7 1.289 . S
O6 C5 1.245 . S
O7 Mg0 2.141 . S
O7 C5 1.289 . S
O8 Mg0 2.048 . S
O8 C1 1.195 . S
O9 Mg0 2.048 . S
O9 C10 1.195 . S
C10 O9 1.195 . S
C10 O11 1.313 . S
O11 C10 1.313 . S
O12 Mg0 2.141 . S
O12 C3 1.289 . S
Mg13 O20 2.141 . S
Mg13 O21 2.048 . S
Mg13 O22 2.048 . S
Mg13 O25 2.141 . S
C14 O15 1.313 . S
C14 O21 1.195 . S
O15 C14 1.313 . S
C16 O17 1.245 . S
C16 O25 1.289 . S
O17 C16 1.245 . S
C18 O19 1.245 . S
C18 O20 1.289 . S
O19 C18 1.245 . S
O20 Mg13 2.141 . S
O20 C18 1.289 . S
O21 Mg13 2.048 . S
O21 C14 1.195 . S
O22 Mg13 2.048 . S
O22 C23 1.195 . S
C23 O22 1.195 . S
C23 O24 1.313 . S
O24 C23 1.313 . S
O25 Mg13 2.141 . S
O25 C16 1.289 . S
Mg26 O33 2.141 . S
Mg26 O34 2.048 . S
Mg26 O35 2.048 . S
Mg26 O38 2.141 . S
C27 O28 1.313 . S
C27 O34 1.195 . S
O28 C27 1.313 . S
C29 O30 1.245 . S
C29 O38 1.289 . S
O30 C29 1.245 . S
C31 O32 1.245 . S
C31 O33 1.289 . S
O32 C31 1.245 . S
O33 Mg26 2.141 . S
O33 C31 1.289 . S
O34 Mg26 2.048 . S
O34 C27 1.195 . S
O35 Mg26 2.048 . S
O35 C36 1.195 . S
C36 O35 1.195 . S
C36 O37 1.313 . S
O37 C36 1.313 . S
O38 Mg26 2.141 . S
O38 C29 1.289 . S
Mg39 O46 2.141 . S
Mg39 O47 2.048 . S
Mg39 O48 2.048 . S
Mg39 O51 2.141 . S
C40 O41 1.313 . S
C40 O47 1.195 . S
O41 C40 1.313 . S
C42 O43 1.245 . S
C42 O51 1.289 . S
O43 C42 1.245 . S
C44 O45 1.245 . S
C44 O46 1.289 . S
O45 C44 1.245 . S
O46 Mg39 2.141 . S
O46 C44 1.289 . S
O47 Mg39 2.048 . S
O47 C40 1.195 . S
O48 Mg39 2.048 . S
O48 C49 1.195 . S
C49 O48 1.195 . S
C49 O50 1.313 . S
O50 C49 1.313 . S
O51 Mg39 2.141 . S
O51 C42 1.289 . S
Mg52 O59 2.141 . S
Mg52 O60 2.048 . S
Mg52 O61 2.048 . S
Mg52 O64 2.141 . S
C53 O54 1.313 . S
C53 O60 1.195 . S
O54 C53 1.313 . S
C55 O56 1.245 . S
C55 O64 1.289 . S
O56 C55 1.245 . S
C57 O58 1.245 . S
C57 O59 1.289 . S
O58 C57 1.245 . S
O59 Mg52 2.141 . S
O59 C57 1.289 . S
O60 Mg52 2.048 . S
O60 C53 1.195 . S
O61 Mg52 2.048 . S
O61 C62 1.195 . S
C62 O61 1.195 . S
C62 O63 1.313 . S
O63 C62 1.313 . S
O64 Mg52 2.141 . S
O64 C55 1.289 . S
Mg65 O72 2.141 . S
Mg65 O73 2.048 . S
Mg65 O74 2.048 . S
Mg65 O77 2.141 . S
C66 O67 1.313 . S
C66 O73 1.195 . S
O67 C66 1.313 . S
C68 O69 1.245 . S
C68 O77 1.289 . S
O69 C68 1.245 . S
C70 O71 1.245 . S
C70 O72 1.289 . S
O71 C70 1.245 . S
O72 Mg65 2.141 . S
O72 C70 1.289 . S
O73 Mg65 2.048 . S
O73 C66 1.195 . S
O74 Mg65 2.048 . S
O74 C75 1.195 . S
C75 O74 1.195 . S
C75 O76 1.313 . S
O76 C75 1.313 . S
O77 Mg65 2.141 . S
O77 C68 1.289 . S
Mg78 O85 2.141 . S
Mg78 O86 2.048 . S
Mg78 O87 2.048 . S
Mg78 O90 2.141 . S
C79 O80 1.313 . S
C79 O86 1.195 . S
O80 C79 1.313 . S
C81 O82 1.245 . S
C81 O90 1.289 . S
O82 C81 1.245 . S
C83 O84 1.245 . S
C83 O85 1.289 . S
O84 C83 1.245 . S
O85 Mg78 2.141 . S
O85 C83 1.289 . S
O86 Mg78 2.048 . S
O86 C79 1.195 . S
O87 Mg78 2.048 . S
O87 C88 1.195 . S
C88 O87 1.195 . S
C88 O89 1.313 . S
O89 C88 1.313 . S
O90 Mg78 2.141 . S
O90 C81 1.289 . S
Mg91 O98 2.141 . S
Mg91 O99 2.048 . S
Mg91 O100 2.048 . S
Mg91 O103 2.141 . S
C92 O93 1.313 . S
C92 O99 1.195 . S
O93 C92 1.313 . S
C94 O95 1.245 . S
C94 O103 1.289 . S
O95 C94 1.245 . S
C96 O97 1.245 . S
C96 O98 1.289 . S
O97 C96 1.245 . S
O98 Mg91 2.141 . S
O98 C96 1.289 . S
O99 Mg91 2.048 . S
O99 C92 1.195 . S
O100 Mg91 2.048 . S
O100 C101 1.195 . S
C101 O100 1.195 . S
C101 O102 1.313 . S
O102 C101 1.313 . S
O103 Mg91 2.141 . S
O103 C94 1.289 . S
Mg104 O111 2.141 . S
Mg104 O112 2.048 . S
Mg104 O113 2.048 . S
Mg104 O116 2.141 . S
C105 O106 1.313 . S
C105 O112 1.195 . S
O106 C105 1.313 . S
C107 O108 1.245 . S
C107 O116 1.289 . S
O108 C107 1.245 . S
C109 O110 1.245 . S
C109 O111 1.289 . S
O110 C109 1.245 . S
O111 Mg104 2.141 . S
O111 C109 1.289 . S
O112 Mg104 2.048 . S
O112 C105 1.195 . S
O113 Mg104 2.048 . S
O113 C114 1.195 . S
C114 O113 1.195 . S
C114 O115 1.313 . S
O115 C114 1.313 . S
O116 Mg104 2.141 . S
O116 C107 1.289 . S
Mg117 O124 2.141 . S
Mg117 O125 2.048 . S
Mg117 O126 2.048 . S
Mg117 O129 2.141 . S
C118 O119 1.313 . S
C118 O125 1.195 . S
O119 C118 1.313 . S
C120 O121 1.245 . S
C120 O129 1.289 . S
O121 C120 1.245 . S
C122 O123 1.245 . S
C122 O124 1.289 . S
O123 C122 1.245 . S
O124 Mg117 2.141 . S
O124 C122 1.289 . S
O125 Mg117 2.048 . S
O125 C118 1.195 . S
O126 Mg117 2.048 . S
O126 C127 1.195 . S
C127 O126 1.195 . S
C127 O128 1.313 . S
O128 C127 1.313 . S
O129 Mg117 2.141 . S
O129 C120 1.289 . S
Mg130 O137 2.141 . S
Mg130 O138 2.048 . S
Mg130 O139 2.048 . S
Mg130 O142 2.141 . S
C131 O132 1.313 . S
C131 O138 1.195 . S
O132 C131 1.313 . S
C133 O134 1.245 . S
C133 O142 1.289 . S
O134 C133 1.245 . S
C135 O136 1.245 . S
C135 O137 1.289 . S
O136 C135 1.245 . S
O137 Mg130 2.141 . S
O137 C135 1.289 . S
O138 Mg130 2.048 . S
O138 C131 1.195 . S
O139 Mg130 2.048 . S
O139 C140 1.195 . S
C140 O139 1.195 . S
C140 O141 1.313 . S
O141 C140 1.313 . S
O142 Mg130 2.141 . S
O142 C133 1.289 . S
Mg143 O150 2.141 . S
Mg143 O151 2.048 . S
Mg143 O152 2.048 . S
Mg143 O155 2.141 . S
C144 O145 1.313 . S
C144 O151 1.195 . S
O145 C144 1.313 . S
C146 O147 1.245 . S
C146 O155 1.289 . S
O147 C146 1.245 . S
C148 O149 1.245 . S
C148 O150 1.289 . S
O149 C148 1.245 . S
O150 Mg143 2.141 . S
O150 C148 1.289 . S
O151 Mg143 2.048 . S
O151 C144 1.195 . S
O152 Mg143 2.048 . S
O152 C153 1.195 . S
C153 O152 1.195 . S
C153 O154 1.313 . S
O154 C153 1.313 . S
O155 Mg143 2.141 . S
O155 C146 1.289 . S
C156 C157 1.391 . S
C156 C158 1.394 . S
C156 H172 0.931 . S
C157 C156 1.391 . S
C157 C161 1.376 . S
C158 C156 1.394 . S
C158 C159 1.369 . S
C158 C162 1.531 . S
C159 C158 1.369 . S
C159 C160 1.410 . S
C159 C167 1.503 . S
C160 C159 1.410 . S
C160 C161 1.392 . S
C160 C163 1.511 . S
C161 C157 1.376 . S
C161 C160 1.392 . S
C161 H173 0.929 . S
C162 C158 1.531 . S
C162 H174 0.960 . S
C162 H175 0.962 . S
C162 H176 0.960 . S
C163 C160 1.511 . S
C163 H177 0.961 . S
C163 H178 0.961 . S
C163 H179 0.961 . S
C164 C165 1.370 . S
C164 C166 1.363 . S
C164 H180 0.931 . S
C165 C164 1.370 . S
C165 C169 1.408 . S
C166 C164 1.363 . S
C166 C167 1.370 . S
C166 C170 1.524 . S
C167 C159 1.503 . S
C167 C166 1.370 . S
C167 C168 1.403 . S
C168 C167 1.403 . S
C168 C169 1.404 . S
C168 C171 1.539 . S
C169 C165 1.408 . S
C169 C168 1.404 . S
C169 H181 0.930 . S
C170 C166 1.524 . S
C170 H182 0.956 . S
C170 H183 0.961 . S
C170 H184 0.961 . S
C171 C168 1.539 . S
C171 H185 0.958 . S
C171 H186 0.961 . S
C171 H187 0.960 . S
H172 C156 0.931 . S
H173 C161 0.929 . S
H174 C162 0.960 . S
H175 C162 0.962 . S
H176 C162 0.960 . S
H177 C163 0.961 . S
H178 C163 0.961 . S
H179 C163 0.961 . S
H180 C164 0.931 . S
H181 C169 0.930 . S
H182 C170 0.956 . S
H183 C170 0.961 . S
H184 C170 0.961 . S
H185 C171 0.958 . S
H186 C171 0.961 . S
H187 C171 0.960 . S
C188 C189 1.391 . S
C188 C190 1.394 . S
C188 H204 0.931 . S
C189 C188 1.391 . S
C189 C193 1.376 . S
C190 C188 1.394 . S
C190 C191 1.369 . S
C190 C194 1.531 . S
C191 C190 1.369 . S
C191 C192 1.410 . S
C191 C199 1.503 . S
C192 C191 1.410 . S
C192 C193 1.392 . S
C192 C195 1.511 . S
C193 C189 1.376 . S
C193 C192 1.392 . S
C193 H205 0.929 . S
C194 C190 1.531 . S
C194 H206 0.960 . S
C194 H207 0.962 . S
C194 H208 0.960 . S
C195 C192 1.511 . S
C195 H209 0.961 . S
C195 H210 0.961 . S
C195 H211 0.961 . S
C196 C197 1.370 . S
C196 C198 1.363 . S
C196 H212 0.931 . S
C197 C196 1.370 . S
C197 C201 1.408 . S
C198 C196 1.363 . S
C198 C199 1.370 . S
C198 C202 1.524 . S
C199 C191 1.503 . S
C199 C198 1.370 . S
C199 C200 1.403 . S
C200 C199 1.403 . S
C200 C201 1.404 . S
C200 C203 1.539 . S
C201 C197 1.408 . S
C201 C200 1.404 . S
C201 H213 0.930 . S
C202 C198 1.524 . S
C202 H214 0.956 . S
C202 H215 0.961 . S
C202 H216 0.961 . S
C203 C200 1.539 . S
C203 H217 0.958 . S
C203 H218 0.961 . S
C203 H219 0.960 . S
H204 C188 0.931 . S
H205 C193 0.929 . S
H206 C194 0.960 . S
H207 C194 0.962 . S
H208 C194 0.960 . S
H209 C195 0.961 . S
H210 C195 0.961 . S
H211 C195 0.961 . S
H212 C196 0.931 . S
H213 C201 0.930 . S
H214 C202 0.956 . S
H215 C202 0.961 . S
H216 C202 0.961 . S
H217 C203 0.958 . S
H218 C203 0.961 . S
H219 C203 0.960 . S
C220 C221 1.391 . S
C220 C222 1.394 . S
C220 H236 0.931 . S
C221 C220 1.391 . S
C221 C225 1.376 . S
C222 C220 1.394 . S
C222 C223 1.369 . S
C222 C226 1.531 . S
C223 C222 1.369 . S
C223 C224 1.410 . S
C223 C231 1.503 . S
C224 C223 1.410 . S
C224 C225 1.392 . S
C224 C227 1.511 . S
C225 C221 1.376 . S
C225 C224 1.392 . S
C225 H237 0.929 . S
C226 C222 1.531 . S
C226 H238 0.960 . S
C226 H239 0.962 . S
C226 H240 0.960 . S
C227 C224 1.511 . S
C227 H241 0.961 . S
C227 H242 0.961 . S
C227 H243 0.961 . S
C228 C229 1.370 . S
C228 C230 1.363 . S
C228 H244 0.931 . S
C229 C228 1.370 . S
C229 C233 1.408 . S
C230 C228 1.363 . S
C230 C231 1.370 . S
C230 C234 1.524 . S
C231 C223 1.503 . S
C231 C230 1.370 . S
C231 C232 1.403 . S
C232 C231 1.403 . S
C232 C233 1.404 . S
C232 C235 1.539 . S
C233 C229 1.408 . S
C233 C232 1.404 . S
C233 H245 0.930 . S
C234 C230 1.524 . S
C234 H246 0.956 . S
C234 H247 0.961 . S
C234 H248 0.961 . S
C235 C232 1.539 . S
C235 H249 0.958 . S
C235 H250 0.961 . S
C235 H251 0.960 . S
H236 C220 0.931 . S
H237 C225 0.929 . S
H238 C226 0.960 . S
H239 C226 0.962 . S
H240 C226 0.960 . S
H241 C227 0.961 . S
H242 C227 0.961 . S
H243 C227 0.961 . S
H244 C228 0.931 . S
H245 C233 0.930 . S
H246 C234 0.956 . S
H247 C234 0.961 . S
H248 C234 0.961 . S
H249 C235 0.958 . S
H250 C235 0.961 . S
H251 C235 0.960 . S
C252 C253 1.391 . S
C252 C254 1.394 . S
C252 H268 0.931 . S
C253 C252 1.391 . S
C253 C257 1.376 . S
C254 C252 1.394 . S
C254 C255 1.369 . S
C254 C258 1.531 . S
C255 C254 1.369 . S
C255 C256 1.410 . S
C255 C263 1.503 . S
C256 C255 1.410 . S
C256 C257 1.392 . S
C256 C259 1.511 . S
C257 C253 1.376 . S
C257 C256 1.392 . S
C257 H269 0.929 . S
C258 C254 1.531 . S
C258 H270 0.960 . S
C258 H271 0.962 . S
C258 H272 0.960 . S
C259 C256 1.511 . S
C259 H273 0.961 . S
C259 H274 0.961 . S
C259 H275 0.961 . S
C260 C261 1.370 . S
C260 C262 1.363 . S
C260 H276 0.931 . S
C261 C260 1.370 . S
C261 C265 1.408 . S
C262 C260 1.363 . S
C262 C263 1.370 . S
C262 C266 1.524 . S
C263 C255 1.503 . S
C263 C262 1.370 . S
C263 C264 1.403 . S
C264 C263 1.403 . S
C264 C265 1.404 . S
C264 C267 1.539 . S
C265 C261 1.408 . S
C265 C264 1.404 . S
C265 H277 0.930 . S
C266 C262 1.524 . S
C266 H278 0.956 . S
C266 H279 0.961 . S
C266 H280 0.961 . S
C267 C264 1.539 . S
C267 H281 0.958 . S
C267 H282 0.961 . S
C267 H283 0.960 . S
H268 C252 0.931 . S
H269 C257 0.929 . S
H270 C258 0.960 . S
H271 C258 0.962 . S
H272 C258 0.960 . S
H273 C259 0.961 . S
H274 C259 0.961 . S
H275 C259 0.961 . S
H276 C260 0.931 . S
H277 C265 0.930 . S
H278 C266 0.956 . S
H279 C266 0.961 . S
H280 C266 0.961 . S
H281 C267 0.958 . S
H282 C267 0.961 . S
H283 C267 0.960 . S
C284 C285 1.391 . S
C284 C286 1.394 . S
C284 H300 0.931 . S
C285 C284 1.391 . S
C285 C289 1.376 . S
C286 C284 1.394 . S
C286 C287 1.369 . S
C286 C290 1.531 . S
C287 C286 1.369 . S
C287 C288 1.410 . S
C287 C295 1.503 . S
C288 C287 1.410 . S
C288 C289 1.392 . S
C288 C291 1.511 . S
C289 C285 1.376 . S
C289 C288 1.392 . S
C289 H301 0.929 . S
C290 C286 1.531 . S
C290 H302 0.960 . S
C290 H303 0.962 . S
C290 H304 0.960 . S
C291 C288 1.511 . S
C291 H305 0.961 . S
C291 H306 0.961 . S
C291 H307 0.961 . S
C292 C293 1.370 . S
C292 C294 1.363 . S
C292 H308 0.931 . S
C293 C292 1.370 . S
C293 C297 1.408 . S
C294 C292 1.363 . S
C294 C295 1.370 . S
C294 C298 1.524 . S
C295 C287 1.503 . S
C295 C294 1.370 . S
C295 C296 1.403 . S
C296 C295 1.403 . S
C296 C297 1.404 . S
C296 C299 1.539 . S
C297 C293 1.408 . S
C297 C296 1.404 . S
C297 H309 0.930 . S
C298 C294 1.524 . S
C298 H310 0.956 . S
C298 H311 0.961 . S
C298 H312 0.961 . S
C299 C296 1.539 . S
C299 H313 0.958 . S
C299 H314 0.961 . S
C299 H315 0.960 . S
H300 C284 0.931 . S
H301 C289 0.929 . S
H302 C290 0.960 . S
H303 C290 0.962 . S
H304 C290 0.960 . S
H305 C291 0.961 . S
H306 C291 0.961 . S
H307 C291 0.961 . S
H308 C292 0.931 . S
H309 C297 0.930 . S
H310 C298 0.956 . S
H311 C298 0.961 . S
H312 C298 0.961 . S
H313 C299 0.958 . S
H314 C299 0.961 . S
H315 C299 0.960 . S
C316 C317 1.391 . S
C316 C318 1.394 . S
C316 H332 0.931 . S
C317 C316 1.391 . S
C317 C321 1.376 . S
C318 C316 1.394 . S
C318 C319 1.369 . S
C318 C322 1.531 . S
C319 C318 1.369 . S
C319 C320 1.410 . S
C319 C327 1.503 . S
C320 C319 1.410 . S
C320 C321 1.392 . S
C320 C323 1.511 . S
C321 C317 1.376 . S
C321 C320 1.392 . S
C321 H333 0.929 . S
C322 C318 1.531 . S
C322 H334 0.960 . S
C322 H335 0.962 . S
C322 H336 0.960 . S
C323 C320 1.511 . S
C323 H337 0.961 . S
C323 H338 0.961 . S
C323 H339 0.961 . S
C324 C325 1.370 . S
C324 C326 1.363 . S
C324 H340 0.931 . S
C325 C324 1.370 . S
C325 C329 1.408 . S
C326 C324 1.363 . S
C326 C327 1.370 . S
C326 C330 1.524 . S
C327 C319 1.503 . S
C327 C326 1.370 . S
C327 C328 1.403 . S
C328 C327 1.403 . S
C328 C329 1.404 . S
C328 C331 1.539 . S
C329 C325 1.408 . S
C329 C328 1.404 . S
C329 H341 0.930 . S
C330 C326 1.524 . S
C330 H342 0.956 . S
C330 H343 0.961 . S
C330 H344 0.961 . S
C331 C328 1.539 . S
C331 H345 0.958 . S
C331 H346 0.961 . S
C331 H347 0.960 . S
H332 C316 0.931 . S
H333 C321 0.929 . S
H334 C322 0.960 . S
H335 C322 0.962 . S
H336 C322 0.960 . S
H337 C323 0.961 . S
H338 C323 0.961 . S
H339 C323 0.961 . S
H340 C324 0.931 . S
H341 C329 0.930 . S
H342 C330 0.956 . S
H343 C330 0.961 . S
H344 C330 0.961 . S
H345 C331 0.958 . S
H346 C331 0.961 . S
H347 C331 0.960 . S
C348 C349 1.391 . S
C348 C350 1.394 . S
C348 H364 0.931 . S
C349 C348 1.391 . S
C349 C353 1.376 . S
C350 C348 1.394 . S
C350 C351 1.369 . S
C350 C354 1.531 . S
C351 C350 1.369 . S
C351 C352 1.410 . S
C351 C359 1.503 . S
C352 C351 1.410 . S
C352 C353 1.392 . S
C352 C355 1.511 . S
C353 C349 1.376 . S
C353 C352 1.392 . S
C353 H365 0.929 . S
C354 C350 1.531 . S
C354 H366 0.960 . S
C354 H367 0.962 . S
C354 H368 0.960 . S
C355 C352 1.511 . S
C355 H369 0.961 . S
C355 H370 0.961 . S
C355 H371 0.961 . S
C356 C357 1.370 . S
C356 C358 1.363 . S
C356 H372 0.931 . S
C357 C356 1.370 . S
C357 C361 1.408 . S
C358 C356 1.363 . S
C358 C359 1.370 . S
C358 C362 1.524 . S
C359 C351 1.503 . S
C359 C358 1.370 . S
C359 C360 1.403 . S
C360 C359 1.403 . S
C360 C361 1.404 . S
C360 C363 1.539 . S
C361 C357 1.408 . S
C361 C360 1.404 . S
C361 H373 0.930 . S
C362 C358 1.524 . S
C362 H374 0.956 . S
C362 H375 0.961 . S
C362 H376 0.961 . S
C363 C360 1.539 . S
C363 H377 0.958 . S
C363 H378 0.961 . S
C363 H379 0.960 . S
H364 C348 0.931 . S
H365 C353 0.929 . S
H366 C354 0.960 . S
H367 C354 0.962 . S
H368 C354 0.960 . S
H369 C355 0.961 . S
H370 C355 0.961 . S
H371 C355 0.961 . S
H372 C356 0.931 . S
H373 C361 0.930 . S
H374 C362 0.956 . S
H375 C362 0.961 . S
H376 C362 0.961 . S
H377 C363 0.958 . S
H378 C363 0.961 . S
H379 C363 0.960 . S
C380 C381 1.391 . S
C380 C382 1.394 . S
C380 H396 0.931 . S
C381 C380 1.391 . S
C381 C385 1.376 . S
C382 C380 1.394 . S
C382 C383 1.369 . S
C382 C386 1.531 . S
C383 C382 1.369 . S
C383 C384 1.410 . S
C383 C391 1.503 . S
C384 C383 1.410 . S
C384 C385 1.392 . S
C384 C387 1.511 . S
C385 C381 1.376 . S
C385 C384 1.392 . S
C385 H397 0.929 . S
C386 C382 1.531 . S
C386 H398 0.960 . S
C386 H399 0.962 . S
C386 H400 0.960 . S
C387 C384 1.511 . S
C387 H401 0.961 . S
C387 H402 0.961 . S
C387 H403 0.961 . S
C388 C389 1.370 . S
C388 C390 1.363 . S
C388 H404 0.931 . S
C389 C388 1.370 . S
C389 C393 1.408 . S
C390 C388 1.363 . S
C390 C391 1.370 . S
C390 C394 1.524 . S
C391 C383 1.503 . S
C391 C390 1.370 . S
C391 C392 1.403 . S
C392 C391 1.403 . S
C392 C393 1.404 . S
C392 C395 1.539 . S
C393 C389 1.408 . S
C393 C392 1.404 . S
C393 H405 0.930 . S
C394 C390 1.524 . S
C394 H406 0.956 . S
C394 H407 0.961 . S
C394 H408 0.961 . S
C395 C392 1.539 . S
C395 H409 0.958 . S
C395 H410 0.961 . S
C395 H411 0.960 . S
H396 C380 0.931 . S
H397 C385 0.929 . S
H398 C386 0.960 . S
H399 C386 0.962 . S
H400 C386 0.960 . S
H401 C387 0.961 . S
H402 C387 0.961 . S
H403 C387 0.961 . S
H404 C388 0.931 . S
H405 C393 0.930 . S
H406 C394 0.956 . S
H407 C394 0.961 . S
H408 C394 0.961 . S
H409 C395 0.958 . S
H410 C395 0.961 . S
H411 C395 0.960 . S
C412 C413 1.391 . S
C412 C414 1.394 . S
C412 H428 0.931 1_556 S
C413 C412 1.391 . S
C413 C417 1.376 . S
C414 C412 1.394 . S
C414 C415 1.369 . S
C414 C418 1.531 . S
C415 C414 1.369 . S
C415 C416 1.410 . S
C415 C423 1.503 . S
C416 C415 1.410 . S
C416 C417 1.392 . S
C416 C419 1.511 . S
C417 C413 1.376 . S
C417 C416 1.392 . S
C417 H429 0.929 . S
C418 C414 1.531 . S
C418 H430 0.960 . S
C418 H431 0.962 . S
C418 H432 0.960 . S
C419 C416 1.511 . S
C419 H433 0.961 . S
C419 H434 0.961 . S
C419 H435 0.961 . S
C420 C421 1.370 . S
C420 C422 1.363 . S
C420 H436 0.931 . S
C421 C420 1.370 . S
C421 C425 1.408 . S
C422 C420 1.363 . S
C422 C423 1.370 . S
C422 C426 1.524 . S
C423 C415 1.503 . S
C423 C422 1.370 . S
C423 C424 1.403 . S
C424 C423 1.403 . S
C424 C425 1.404 . S
C424 C427 1.539 . S
C425 C421 1.408 . S
C425 C424 1.404 . S
C425 H437 0.930 . S
C426 C422 1.524 . S
C426 H438 0.956 . S
C426 H439 0.961 . S
C426 H440 0.961 . S
C427 C424 1.539 . S
C427 H441 0.958 . S
C427 H442 0.961 . S
C427 H443 0.960 . S
H428 C412 0.931 1_554 S
H429 C417 0.929 . S
H430 C418 0.960 . S
H431 C418 0.962 . S
H432 C418 0.960 . S
H433 C419 0.961 . S
H434 C419 0.961 . S
H435 C419 0.961 . S
H436 C420 0.931 . S
H437 C425 0.930 . S
H438 C426 0.956 . S
H439 C426 0.961 . S
H440 C426 0.961 . S
H441 C427 0.958 . S
H442 C427 0.961 . S
H443 C427 0.960 . S
C444 C445 1.391 . S
C444 C446 1.394 . S
C444 H460 0.931 . S
C445 C444 1.391 . S
C445 C449 1.376 . S
C446 C444 1.394 . S
C446 C447 1.369 . S
C446 C450 1.531 . S
C447 C446 1.369 . S
C447 C448 1.410 . S
C447 C455 1.503 . S
C448 C447 1.410 . S
C448 C449 1.392 . S
C448 C451 1.511 . S
C449 C445 1.376 . S
C449 C448 1.392 . S
C449 H461 0.929 . S
C450 C446 1.531 . S
C450 H462 0.960 . S
C450 H463 0.962 . S
C450 H464 0.960 . S
C451 C448 1.511 . S
C451 H465 0.961 . S
C451 H466 0.961 . S
C451 H467 0.961 . S
C452 C453 1.370 . S
C452 C454 1.363 . S
C452 H468 0.931 . S
C453 C452 1.370 . S
C453 C457 1.408 . S
C454 C452 1.363 . S
C454 C455 1.370 . S
C454 C458 1.524 . S
C455 C447 1.503 . S
C455 C454 1.370 . S
C455 C456 1.403 . S
C456 C455 1.403 . S
C456 C457 1.404 . S
C456 C459 1.539 . S
C457 C453 1.408 . S
C457 C456 1.404 . S
C457 H469 0.930 . S
C458 C454 1.524 . S
C458 H470 0.956 . S
C458 H471 0.961 . S
C458 H472 0.961 . S
C459 C456 1.539 . S
C459 H473 0.958 . S
C459 H474 0.961 . S
C459 H475 0.960 . S
H460 C444 0.931 . S
H461 C449 0.929 . S
H462 C450 0.960 . S
H463 C450 0.962 . S
H464 C450 0.960 . S
H465 C451 0.961 . S
H466 C451 0.961 . S
H467 C451 0.961 . S
H468 C452 0.931 . S
H469 C457 0.930 . S
H470 C458 0.956 . S
H471 C458 0.961 . S
H472 C458 0.961 . S
H473 C459 0.958 . S
H474 C459 0.961 . S
H475 C459 0.960 . S
C476 C477 1.391 . S
C476 C478 1.394 . S
C476 H492 0.931 . S
C477 C476 1.391 . S
C477 C481 1.376 . S
C478 C476 1.394 . S
C478 C479 1.369 . S
C478 C482 1.531 . S
C479 C478 1.369 . S
C479 C480 1.410 . S
C479 C487 1.503 . S
C480 C479 1.410 . S
C480 C481 1.392 . S
C480 C483 1.511 . S
C481 C477 1.376 . S
C481 C480 1.392 . S
C481 H493 0.929 . S
C482 C478 1.531 . S
C482 H494 0.960 . S
C482 H495 0.962 . S
C482 H496 0.960 . S
C483 C480 1.511 . S
C483 H497 0.961 . S
C483 H498 0.961 . S
C483 H499 0.961 . S
C484 C485 1.370 . S
C484 C486 1.363 . S
C484 H500 0.931 . S
C485 C484 1.370 . S
C485 C489 1.408 . S
C486 C484 1.363 . S
C486 C487 1.370 . S
C486 C490 1.524 . S
C487 C479 1.503 . S
C487 C486 1.370 . S
C487 C488 1.403 . S
C488 C487 1.403 . S
C488 C489 1.404 . S
C488 C491 1.539 . S
C489 C485 1.408 . S
C489 C488 1.404 . S
C489 H501 0.930 . S
C490 C486 1.524 . S
C490 H502 0.956 . S
C490 H503 0.961 . S
C490 H504 0.961 . S
C491 C488 1.539 . S
C491 H505 0.958 . S
C491 H506 0.961 . S
C491 H507 0.960 . S
H492 C476 0.931 . S
H493 C481 0.929 . S
H494 C482 0.960 . S
H495 C482 0.962 . S
H496 C482 0.960 . S
H497 C483 0.961 . S
H498 C483 0.961 . S
H499 C483 0.961 . S
H500 C484 0.931 . S
H501 C489 0.930 . S
H502 C490 0.956 . S
H503 C490 0.961 . S
H504 C490 0.961 . S
H505 C491 0.958 . S
H506 C491 0.961 . S
H507 C491 0.960 . S
C508 C509 1.391 . S
C508 C510 1.394 . S
C508 H524 0.931 . S
C509 C508 1.391 . S
C509 C513 1.376 . S
C510 C508 1.394 . S
C510 C511 1.369 . S
C510 C514 1.531 . S
C511 C510 1.369 . S
C511 C512 1.410 . S
C511 C519 1.503 . S
C512 C511 1.410 . S
C512 C513 1.392 . S
C512 C515 1.511 . S
C513 C509 1.376 . S
C513 C512 1.392 . S
C513 H525 0.929 . S
C514 C510 1.531 . S
C514 H526 0.960 . S
C514 H527 0.962 . S
C514 H528 0.960 . S
C515 C512 1.511 . S
C515 H529 0.961 . S
C515 H530 0.961 . S
C515 H531 0.961 . S
C516 C517 1.370 . S
C516 C518 1.363 . S
C516 H532 0.931 . S
C517 C516 1.370 . S
C517 C521 1.408 . S
C518 C516 1.363 . S
C518 C519 1.370 . S
C518 C522 1.524 . S
C519 C511 1.503 . S
C519 C518 1.370 . S
C519 C520 1.403 . S
C520 C519 1.403 . S
C520 C521 1.404 . S
C520 C523 1.539 . S
C521 C517 1.408 . S
C521 C520 1.404 . S
C521 H533 0.930 . S
C522 C518 1.524 . S
C522 H534 0.956 . S
C522 H535 0.961 . S
C522 H536 0.961 . S
C523 C520 1.539 . S
C523 H537 0.958 . S
C523 H538 0.961 . S
C523 H539 0.960 . S
H524 C508 0.931 . S
H525 C513 0.929 . S
H526 C514 0.960 . S
H527 C514 0.962 . S
H528 C514 0.960 . S
H529 C515 0.961 . S
H530 C515 0.961 . S
H531 C515 0.961 . S
H532 C516 0.931 . S
H533 C521 0.930 . S
H534 C522 0.956 . S
H535 C522 0.961 . S
H536 C522 0.961 . S
H537 C523 0.958 . S
H538 C523 0.961 . S
H539 C523 0.960 . S
C540 C541 1.391 . S
C540 C542 1.394 . S
C540 H556 0.931 . S
C541 C540 1.391 . S
C541 C545 1.376 . S
C542 C540 1.394 . S
C542 C543 1.369 . S
C542 C546 1.531 . S
C543 C542 1.369 . S
C543 C544 1.410 . S
C543 C551 1.503 1_655 S
C544 C543 1.410 . S
C544 C545 1.392 . S
C544 C547 1.511 . S
C545 C541 1.376 . S
C545 C544 1.392 . S
C545 H557 0.929 . S
C546 C542 1.531 . S
C546 H558 0.960 . S
C546 H559 0.962 . S
C546 H560 0.960 . S
C547 C544 1.511 . S
C547 H561 0.961 . S
C547 H562 0.961 1_655 S
C547 H563 0.961 . S
C548 C549 1.370 . S
C548 C550 1.363 . S
C548 H564 0.931 . S
C549 C548 1.370 . S
C549 C553 1.408 . S
C550 C548 1.363 . S
C550 C551 1.370 . S
C550 C554 1.524 . S
C551 C543 1.503 1_455 S
C551 C550 1.370 . S
C551 C552 1.403 . S
C552 C551 1.403 . S
C552 C553 1.404 . S
C552 C555 1.539 1_455 S
C553 C549 1.408 . S
C553 C552 1.404 . S
C553 H565 0.930 . S
C554 C550 1.524 . S
C554 H566 0.956 . S
C554 H567 0.961 . S
C554 H568 0.961 . S
C555 C552 1.539 1_655 S
C555 H569 0.958 . S
C555 H570 0.961 . S
C555 H571 0.960 . S
H556 C540 0.931 . S
H557 C545 0.929 . S
H558 C546 0.960 . S
H559 C546 0.962 . S
H560 C546 0.960 . S
H561 C547 0.961 . S
H562 C547 0.961 1_455 S
H563 C547 0.961 . S
H564 C548 0.931 . S
H565 C553 0.930 . S
H566 C554 0.956 . S
H567 C554 0.961 . S
H568 C554 0.961 . S
H569 C555 0.958 . S
H570 C555 0.961 . S
H571 C555 0.960 . S
C572 C573 1.391 . S
C572 C574 1.394 . S
C572 H588 0.931 . S
C573 C572 1.391 . S
C573 C577 1.376 . S
C574 C572 1.394 . S
C574 C575 1.369 . S
C574 C578 1.531 . S
C575 C574 1.369 . S
C575 C576 1.410 . S
C575 C583 1.503 1_565 S
C576 C575 1.410 . S
C576 C577 1.392 . S
C576 C579 1.511 . S
C577 C573 1.376 . S
C577 C576 1.392 . S
C577 H589 0.929 . S
C578 C574 1.531 . S
C578 H590 0.960 1_565 S
C578 H591 0.962 . S
C578 H592 0.960 . S
C579 C576 1.511 . S
C579 H593 0.961 . S
C579 H594 0.961 1_565 S
C579 H595 0.961 1_565 S
C580 C581 1.370 . S
C580 C582 1.363 . S
C580 H596 0.931 . S
C581 C580 1.370 . S
C581 C585 1.408 . S
C582 C580 1.363 . S
C582 C583 1.370 . S
C582 C586 1.524 1_545 S
C583 C575 1.503 1_545 S
C583 C582 1.370 . S
C583 C584 1.403 . S
C584 C583 1.403 . S
C584 C585 1.404 . S
C584 C587 1.539 . S
C585 C581 1.408 . S
C585 C584 1.404 . S
C585 H597 0.930 . S
C586 C582 1.524 1_565 S
C586 H598 0.956 . S
C586 H599 0.961 . S
C586 H600 0.961 . S
C587 C584 1.539 . S
C587 H601 0.958 . S
C587 H602 0.961 . S
C587 H603 0.960 . S
H588 C572 0.931 . S
H589 C577 0.929 . S
H590 C578 0.960 1_545 S
H591 C578 0.962 . S
H592 C578 0.960 . S
H593 C579 0.961 . S
H594 C579 0.961 1_545 S
H595 C579 0.961 1_545 S
H596 C580 0.931 . S
H597 C585 0.930 . S
H598 C586 0.956 . S
H599 C586 0.961 . S
H600 C586 0.961 . S
H601 C587 0.958 . S
H602 C587 0.961 . S
H603 C587 0.960 . S
C604 C605 1.391 . S
C604 C606 1.394 . S
C604 H620 0.931 . S
C605 C604 1.391 . S
C605 C609 1.376 . S
C606 C604 1.394 . S
C606 C607 1.369 . S
C606 C610 1.531 . S
C607 C606 1.369 . S
C607 C608 1.410 . S
C607 C615 1.503 . S
C608 C607 1.410 . S
C608 C609 1.392 . S
C608 C611 1.511 . S
C609 C605 1.376 . S
C609 C608 1.392 . S
C609 H621 0.929 . S
C610 C606 1.531 . S
C610 H622 0.960 . S
C610 H623 0.962 . S
C610 H624 0.960 . S
C611 C608 1.511 . S
C611 H625 0.961 . S
C611 H626 0.961 . S
C611 H627 0.961 . S
C612 C613 1.370 . S
C612 C614 1.363 . S
C612 H628 0.931 . S
C613 C612 1.370 . S
C613 C617 1.408 . S
C614 C612 1.363 . S
C614 C615 1.370 . S
C614 C618 1.524 . S
C615 C607 1.503 . S
C615 C614 1.370 . S
C615 C616 1.403 . S
C616 C615 1.403 . S
C616 C617 1.404 . S
C616 C619 1.539 . S
C617 C613 1.408 . S
C617 C616 1.404 . S
C617 H629 0.930 . S
C618 C614 1.524 . S
C618 H630 0.956 . S
C618 H631 0.961 . S
C618 H632 0.961 . S
C619 C616 1.539 . S
C619 H633 0.958 . S
C619 H634 0.961 . S
C619 H635 0.960 . S
H620 C604 0.931 . S
H621 C609 0.929 . S
H622 C610 0.960 . S
H623 C610 0.962 . S
H624 C610 0.960 . S
H625 C611 0.961 . S
H626 C611 0.961 . S
H627 C611 0.961 . S
H628 C612 0.931 . S
H629 C617 0.930 . S
H630 C618 0.956 . S
H631 C618 0.961 . S
H632 C618 0.961 . S
H633 C619 0.958 . S
H634 C619 0.961 . S
H635 C619 0.960 . S
C636 C637 1.391 . S
C636 C638 1.394 . S
C636 H652 0.931 . S
C637 C636 1.391 . S
C637 C641 1.376 . S
C638 C636 1.394 . S
C638 C639 1.369 . S
C638 C642 1.531 1_455 S
C639 C638 1.369 . S
C639 C640 1.410 . S
C639 C647 1.503 1_455 S
C640 C639 1.410 . S
C640 C641 1.392 . S
C640 C643 1.511 . S
C641 C637 1.376 . S
C641 C640 1.392 . S
C641 H653 0.929 . S
C642 C638 1.531 1_655 S
C642 H654 0.960 . S
C642 H655 0.962 . S
C642 H656 0.960 . S
C643 C640 1.511 . S
C643 H657 0.961 . S
C643 H658 0.961 . S
C643 H659 0.961 . S
C644 C645 1.370 . S
C644 C646 1.363 . S
C644 H660 0.931 . S
C645 C644 1.370 . S
C645 C649 1.408 . S
C646 C644 1.363 . S
C646 C647 1.370 . S
C646 C650 1.524 1_655 S
C647 C639 1.503 1_655 S
C647 C646 1.370 . S
C647 C648 1.403 . S
C648 C647 1.403 . S
C648 C649 1.404 . S
C648 C651 1.539 . S
C649 C645 1.408 . S
C649 C648 1.404 . S
C649 H661 0.930 . S
C650 C646 1.524 1_455 S
C650 H662 0.956 . S
C650 H663 0.961 . S
C650 H664 0.961 1_455 S
C651 C648 1.539 . S
C651 H665 0.958 . S
C651 H666 0.961 . S
C651 H667 0.960 . S
H652 C636 0.931 . S
H653 C641 0.929 . S
H654 C642 0.960 . S
H655 C642 0.962 . S
H656 C642 0.960 . S
H657 C643 0.961 . S
H658 C643 0.961 . S
H659 C643 0.961 . S
H660 C644 0.931 . S
H661 C649 0.930 . S
H662 C650 0.956 . S
H663 C650 0.961 . S
H664 C650 0.961 1_655 S
H665 C651 0.958 . S
H666 C651 0.961 . S
H667 C651 0.960 . S
C668 C669 1.391 . S
C668 C670 1.394 1_556 S
C668 H684 0.931 . S
C669 C668 1.391 . S
C669 C673 1.376 . S
C670 C668 1.394 1_554 S
C670 C671 1.369 1_554 S
C670 C674 1.531 . S
C671 C670 1.369 1_556 S
C671 C672 1.410 . S
C671 C679 1.503 1_546 S
C672 C671 1.410 . S
C672 C673 1.392 . S
C672 C675 1.511 1_545 S
C673 C669 1.376 . S
C673 C672 1.392 . S
C673 H685 0.929 . S
C674 C670 1.531 . S
C674 H686 0.960 . S
C674 H687 0.962 . S
C674 H688 0.960 . S
C675 C672 1.511 1_565 S
C675 H689 0.961 . S
C675 H690 0.961 . S
C675 H691 0.961 . S
C676 C677 1.370 . S
C676 C678 1.363 . S
C676 H692 0.931 . S
C677 C676 1.370 . S
C677 C681 1.408 . S
C678 C676 1.363 . S
C678 C679 1.370 . S
C678 C682 1.524 1_554 S
C679 C671 1.503 1_564 S
C679 C678 1.370 . S
C679 C680 1.403 . S
C680 C679 1.403 . S
C680 C681 1.404 . S
C680 C683 1.514 1_565 S
C681 C677 1.408 . S
C681 C680 1.404 . S
C681 H693 0.930 . S
C682 C678 1.524 1_556 S
C682 H694 0.956 . S
C682 H695 0.961 . S
C682 H696 0.961 . S
C683 C680 1.514 1_545 S
C683 H697 0.970 . S
C683 H698 0.959 1_545 S
C683 H699 0.975 . S
H684 C668 0.931 . S
H685 C673 0.929 . S
H686 C674 0.960 . S
H687 C674 0.962 . S
H688 C674 0.960 . S
H689 C675 0.961 . S
H690 C675 0.961 . S
H691 C675 0.961 . S
H692 C676 0.931 . S
H693 C681 0.930 . S
H694 C682 0.956 . S
H695 C682 0.961 . S
H696 C682 0.961 . S
H697 C683 0.970 . S
H698 C683 0.959 1_565 S
H699 C683 0.975 . S
C700 C701 1.391 . S
C700 C702 1.394 . S
C700 H716 0.931 . S
C701 C700 1.391 . S
C701 C705 1.376 . S
C702 C700 1.394 . S
C702 C703 1.369 . S
C702 C706 1.531 . S
C703 C702 1.369 . S
C703 C704 1.410 . S
C703 C711 1.503 . S
C704 C703 1.410 . S
C704 C705 1.392 . S
C704 C707 1.511 . S
C705 C701 1.376 . S
C705 C704 1.392 . S
C705 H717 0.929 . S
C706 C702 1.531 . S
C706 H718 0.960 . S
C706 H719 0.962 . S
C706 H720 0.960 . S
C707 C704 1.511 . S
C707 H721 0.961 . S
C707 H722 0.961 . S
C707 H723 0.961 . S
C708 C709 1.370 . S
C708 C710 1.363 . S
C708 H724 0.931 . S
C709 C708 1.370 . S
C709 C713 1.408 . S
C710 C708 1.363 . S
C710 C711 1.370 . S
C710 C714 1.524 . S
C711 C703 1.503 . S
C711 C710 1.370 . S
C711 C712 1.403 . S
C712 C711 1.403 . S
C712 C713 1.404 . S
C712 C715 1.539 . S
C713 C709 1.408 . S
C713 C712 1.404 . S
C713 H725 0.930 . S
C714 C710 1.524 . S
C714 H726 0.956 . S
C714 H727 0.961 . S
C714 H728 0.961 . S
C715 C712 1.539 . S
C715 H729 0.958 . S
C715 H730 0.961 . S
C715 H731 0.960 . S
H716 C700 0.931 . S
H717 C705 0.929 . S
H718 C706 0.960 . S
H719 C706 0.962 . S
H720 C706 0.960 . S
H721 C707 0.961 . S
H722 C707 0.961 . S
H723 C707 0.961 . S
H724 C708 0.931 . S
H725 C713 0.930 . S
H726 C714 0.956 . S
H727 C714 0.961 . S
H728 C714 0.961 . S
H729 C715 0.958 . S
H730 C715 0.961 . S
H731 C715 0.960 . S
C732 C733 1.391 . S
C732 C734 1.394 . S
C732 H748 0.931 . S
C733 C732 1.391 . S
C733 C737 1.376 . S
C734 C732 1.394 . S
C734 C735 1.369 . S
C734 C738 1.531 . S
C735 C734 1.369 . S
C735 C736 1.410 . S
C735 C743 1.503 . S
C736 C735 1.410 . S
C736 C737 1.392 . S
C736 C739 1.511 . S
C737 C733 1.376 . S
C737 C736 1.392 . S
C737 H749 0.929 . S
C738 C734 1.531 . S
C738 H750 0.960 . S
C738 H751 0.962 . S
C738 H752 0.960 . S
C739 C736 1.511 . S
C739 H753 0.961 . S
C739 H754 0.961 . S
C739 H755 0.961 . S
C740 C741 1.370 . S
C740 C742 1.363 . S
C740 H756 0.931 . S
C741 C740 1.370 . S
C741 C745 1.408 . S
C742 C740 1.363 . S
C742 C743 1.370 . S
C742 C746 1.524 . S
C743 C735 1.503 . S
C743 C742 1.370 . S
C743 C744 1.403 . S
C744 C743 1.403 . S
C744 C745 1.404 . S
C744 C747 1.539 . S
C745 C741 1.408 . S
C745 C744 1.404 . S
C745 H757 0.930 . S
C746 C742 1.524 . S
C746 H758 0.956 . S
C746 H759 0.961 . S
C746 H760 0.961 . S
C747 C744 1.539 . S
C747 H761 0.958 . S
C747 H762 0.961 . S
C747 H763 0.960 . S
H748 C732 0.931 . S
H749 C737 0.929 . S
H750 C738 0.960 . S
H751 C738 0.962 . S
H752 C738 0.960 . S
H753 C739 0.961 . S
H754 C739 0.961 . S
H755 C739 0.961 . S
H756 C740 0.931 . S
H757 C745 0.930 . S
H758 C746 0.956 . S
H759 C746 0.961 . S
H760 C746 0.961 . S
H761 C747 0.958 . S
H762 C747 0.961 . S
H763 C747 0.960 . S
C764 C765 1.391 . S
C764 C766 1.394 . S
C764 H780 0.931 . S
C765 C764 1.391 . S
C765 C769 1.376 . S
C766 C764 1.394 . S
C766 C767 1.369 . S
C766 C770 1.531 . S
C767 C766 1.369 . S
C767 C768 1.410 . S
C767 C775 1.503 . S
C768 C767 1.410 . S
C768 C769 1.392 . S
C768 C771 1.511 . S
C769 C765 1.376 . S
C769 C768 1.392 . S
C769 H781 0.929 . S
C770 C766 1.531 . S
C770 H782 0.960 . S
C770 H783 0.962 . S
C770 H784 0.960 . S
C771 C768 1.511 . S
C771 H785 0.961 . S
C771 H786 0.961 . S
C771 H787 0.961 . S
C772 C773 1.370 . S
C772 C774 1.363 . S
C772 H788 0.931 . S
C773 C772 1.370 . S
C773 C777 1.408 . S
C774 C772 1.363 . S
C774 C775 1.370 . S
C774 C778 1.524 . S
C775 C767 1.503 . S
C775 C774 1.370 . S
C775 C776 1.403 . S
C776 C775 1.403 . S
C776 C777 1.404 . S
C776 C779 1.539 . S
C777 C773 1.408 . S
C777 C776 1.404 . S
C777 H789 0.930 . S
C778 C774 1.524 . S
C778 H790 0.956 . S
C778 H791 0.961 . S
C778 H792 0.961 . S
C779 C776 1.539 . S
C779 H793 0.958 . S
C779 H794 0.961 . S
C779 H795 0.960 . S
H780 C764 0.931 . S
H781 C769 0.929 . S
H782 C770 0.960 . S
H783 C770 0.962 . S
H784 C770 0.960 . S
H785 C771 0.961 . S
H786 C771 0.961 . S
H787 C771 0.961 . S
H788 C772 0.931 . S
H789 C777 0.930 . S
H790 C778 0.956 . S
H791 C778 0.961 . S
H792 C778 0.961 . S
H793 C779 0.958 . S
H794 C779 0.961 . S
H795 C779 0.960 . S
C796 C797 1.391 . S
C796 C798 1.394 . S
C796 H812 0.931 . S
C797 C796 1.391 . S
C797 C801 1.376 . S
C798 C796 1.394 . S
C798 C799 1.369 . S
C798 C802 1.531 . S
C799 C798 1.369 . S
C799 C800 1.410 . S
C799 C807 1.503 . S
C800 C799 1.410 . S
C800 C801 1.392 . S
C800 C803 1.511 . S
C801 C797 1.376 . S
C801 C800 1.392 . S
C801 H813 0.929 . S
C802 C798 1.531 . S
C802 H814 0.960 . S
C802 H815 0.962 . S
C802 H816 0.960 . S
C803 C800 1.511 . S
C803 H817 0.961 . S
C803 H818 0.961 . S
C803 H819 0.961 . S
C804 C805 1.370 . S
C804 C806 1.363 . S
C804 H820 0.931 . S
C805 C804 1.370 . S
C805 C809 1.408 . S
C806 C804 1.363 . S
C806 C807 1.370 . S
C806 C810 1.524 . S
C807 C799 1.503 . S
C807 C806 1.370 . S
C807 C808 1.403 . S
C808 C807 1.403 . S
C808 C809 1.404 . S
C808 C811 1.539 . S
C809 C805 1.408 . S
C809 C808 1.404 . S
C809 H821 0.930 . S
C810 C806 1.524 . S
C810 H822 0.956 . S
C810 H823 0.961 . S
C810 H824 0.961 . S
C811 C808 1.539 . S
C811 H825 0.958 . S
C811 H826 0.961 . S
C811 H827 0.960 . S
H812 C796 0.931 . S
H813 C801 0.929 . S
H814 C802 0.960 . S
H815 C802 0.962 . S
H816 C802 0.960 . S
H817 C803 0.961 . S
H818 C803 0.961 . S
H819 C803 0.961 . S
H820 C804 0.931 . S
H821 C809 0.930 . S
H822 C810 0.956 . S
H823 C810 0.961 . S
H824 C810 0.961 . S
H825 C811 0.958 . S
H826 C811 0.961 . S
H827 C811 0.960 . S
C828 C829 1.391 . S
C828 C830 1.394 . S
C828 H844 0.931 . S
C829 C828 1.391 . S
C829 C833 1.376 . S
C830 C828 1.394 . S
C830 C831 1.369 . S
C830 C834 1.531 . S
C831 C830 1.369 . S
C831 C832 1.410 . S
C831 C839 1.503 . S
C832 C831 1.410 . S
C832 C833 1.392 . S
C832 C835 1.511 . S
C833 C829 1.376 . S
C833 C832 1.392 . S
C833 H845 0.929 . S
C834 C830 1.531 . S
C834 H846 0.960 . S
C834 H847 0.962 . S
C834 H848 0.960 . S
C835 C832 1.511 . S
C835 H849 0.961 . S
C835 H850 0.961 . S
C835 H851 0.961 . S
C836 C837 1.370 . S
C836 C838 1.363 . S
C836 H852 0.931 . S
C837 C836 1.370 . S
C837 C841 1.408 . S
C838 C836 1.363 . S
C838 C839 1.370 . S
C838 C842 1.524 . S
C839 C831 1.503 . S
C839 C838 1.370 . S
C839 C840 1.403 . S
C840 C839 1.403 . S
C840 C841 1.404 . S
C840 C843 1.539 . S
C841 C837 1.408 . S
C841 C840 1.404 . S
C841 H853 0.930 . S
C842 C838 1.524 . S
C842 H854 0.956 . S
C842 H855 0.961 . S
C842 H856 0.961 . S
C843 C840 1.539 . S
C843 H857 0.958 . S
C843 H858 0.961 . S
C843 H859 0.960 . S
H844 C828 0.931 . S
H845 C833 0.929 . S
H846 C834 0.960 . S
H847 C834 0.962 . S
H848 C834 0.960 . S
H849 C835 0.961 . S
H850 C835 0.961 . S
H851 C835 0.961 . S
H852 C836 0.931 . S
H853 C841 0.930 . S
H854 C842 0.956 . S
H855 C842 0.961 . S
H856 C842 0.961 . S
H857 C843 0.958 . S
H858 C843 0.961 . S
H859 C843 0.960 . S
C860 C861 1.391 . S
C860 C862 1.394 . S
C860 H876 0.931 1_556 S
C861 C860 1.391 . S
C861 C865 1.376 . S
C862 C860 1.394 . S
C862 C863 1.369 . S
C862 C866 1.531 . S
C863 C862 1.369 . S
C863 C864 1.410 . S
C863 C871 1.503 . S
C864 C863 1.410 . S
C864 C865 1.392 . S
C864 C867 1.511 . S
C865 C861 1.376 . S
C865 C864 1.392 . S
C865 H877 0.929 . S
C866 C862 1.531 . S
C866 H878 0.960 . S
C866 H879 0.962 . S
C866 H880 0.960 . S
C867 C864 1.511 . S
C867 H881 0.961 . S
C867 H882 0.961 . S
C867 H883 0.961 . S
C868 C869 1.370 . S
C868 C870 1.363 . S
C868 H884 0.931 . S
C869 C868 1.370 . S
C869 C873 1.408 . S
C870 C868 1.363 . S
C870 C871 1.370 . S
C870 C874 1.524 . S
C871 C863 1.503 . S
C871 C870 1.370 . S
C871 C872 1.403 . S
C872 C871 1.403 . S
C872 C873 1.404 . S
C872 C875 1.539 . S
C873 C869 1.408 . S
C873 C872 1.404 . S
C873 H885 0.930 . S
C874 C870 1.524 . S
C874 H886 0.956 . S
C874 H887 0.961 . S
C874 H888 0.961 . S
C875 C872 1.539 . S
C875 H889 0.958 . S
C875 H890 0.961 . S
C875 H891 0.960 . S
H876 C860 0.931 1_554 S
H877 C865 0.929 . S
H878 C866 0.960 . S
H879 C866 0.962 . S
H880 C866 0.960 . S
H881 C867 0.961 . S
H882 C867 0.961 . S
H883 C867 0.961 . S
H884 C868 0.931 . S
H885 C873 0.930 . S
H886 C874 0.956 . S
H887 C874 0.961 . S
H888 C874 0.961 . S
H889 C875 0.958 . S
H890 C875 0.961 . S
H891 C875 0.960 . S
C892 C893 1.391 . S
C892 C894 1.394 . S
C892 H908 0.931 . S
C893 C892 1.391 . S
C893 C897 1.376 . S
C894 C892 1.394 . S
C894 C895 1.369 . S
C894 C898 1.531 . S
C895 C894 1.369 . S
C895 C896 1.410 . S
C895 C903 1.503 . S
C896 C895 1.410 . S
C896 C897 1.392 . S
C896 C899 1.511 . S
C897 C893 1.376 . S
C897 C896 1.392 . S
C897 H909 0.929 . S
C898 C894 1.531 . S
C898 H910 0.960 . S
C898 H911 0.962 . S
C898 H912 0.960 . S
C899 C896 1.511 . S
C899 H913 0.961 . S
C899 H914 0.961 . S
C899 H915 0.961 . S
C900 C901 1.370 . S
C900 C902 1.363 . S
C900 H916 0.931 . S
C901 C900 1.370 . S
C901 C905 1.408 . S
C902 C900 1.363 . S
C902 C903 1.370 . S
C902 C906 1.524 . S
C903 C895 1.503 . S
C903 C902 1.370 . S
C903 C904 1.403 . S
C904 C903 1.403 . S
C904 C905 1.404 . S
C904 C907 1.539 . S
C905 C901 1.408 . S
C905 C904 1.404 . S
C905 H917 0.930 1_554 S
C906 C902 1.524 . S
C906 H918 0.956 . S
C906 H919 0.961 . S
C906 H920 0.961 . S
C907 C904 1.539 . S
C907 H921 0.958 . S
C907 H922 0.961 . S
C907 H923 0.960 . S
H908 C892 0.931 . S
H909 C897 0.929 . S
H910 C898 0.960 . S
H911 C898 0.962 . S
H912 C898 0.960 . S
H913 C899 0.961 . S
H914 C899 0.961 . S
H915 C899 0.961 . S
H916 C900 0.931 . S
H917 C905 0.930 1_556 S
H918 C906 0.956 . S
H919 C906 0.961 . S
H920 C906 0.961 . S
H921 C907 0.958 . S
H922 C907 0.961 . S
H923 C907 0.960 . S
C157 C10 1.469 . S
C165 C88 1.492 . S
C189 C23 1.493 . S
C197 C101 1.510 . S
C221 C114 1.523 . S
C229 C36 1.513 . S
C253 C49 1.519 . S
C261 C127 1.514 . S
C285 C62 1.502 . S
C293 C140 1.513 . S
C317 C153 1.470 . S
C325 C75 1.491 . S
C349 C105 1.700 . S
C357 C1 1.715 . S
C381 C14 1.680 . S
C389 C118 1.706 . S
C413 C131 1.700 1_556 S
C421 C27 1.715 . S
C445 C144 1.689 . S
C453 C40 1.699 1_554 S
C477 C53 1.719 . S
C485 C79 1.701 . S
C509 C66 1.697 . S
C517 C92 1.715 . S
C541 C148 1.840 . S
C549 C5 1.874 . S
C573 C83 1.878 . S
C581 C18 1.853 . S
C605 C31 1.879 . S
C613 C96 1.853 . S
C637 C109 1.853 . S
C645 C44 1.852 . S
C669 C122 1.865 . S
C677 C57 1.875 . S
C701 C135 1.882 . S
C709 C70 1.854 . S
C733 C3 1.396 . S
C741 C133 1.411 . S
C765 C146 1.423 . S
C773 C16 1.422 . S
C797 C29 1.397 . S
C805 C81 1.408 . S
C829 C42 1.429 . S
C837 C94 1.423 . S
C861 C55 1.430 1_556 S
C869 C107 1.423 . S
C893 C68 1.406 . S
C901 C120 1.410 1_554 S
