# Generated by pormake.
# Topology wnd, (6)-cn, num edge types: 1
# Building blocks:
#     Node 0, Type 0, BuildingBlock: UKALOJ_clean_sbu_0, # of connection points: 6
#     Node 1, Type 0, BuildingBlock: UKALOJ_clean_sbu_0, # of connection points: 6
#     Node 2, Type 0, BuildingBlock: UKALOJ_clean_sbu_0, # of connection points: 6
#     Node 3, Type 0, BuildingBlock: UKALOJ_clean_sbu_0, # of connection points: 6
#     Node 4, Type 0, BuildingBlock: UKALOJ_clean_sbu_0, # of connection points: 6
#     Node 5, Type 0, BuildingBlock: UKALOJ_clean_sbu_0, # of connection points: 6
#     Node 6, Type 0, BuildingBlock: UKALOJ_clean_sbu_0, # of connection points: 6
#     Node 7, Type 0, BuildingBlock: UKALOJ_clean_sbu_0, # of connection points: 6
#     Node 8, Type 0, BuildingBlock: UKALOJ_clean_sbu_0, # of connection points: 6
#     Node 9, Type 0, BuildingBlock: UKALOJ_clean_sbu_0, # of connection points: 6
#     Node 10, Type 0, BuildingBlock: UKALOJ_clean_sbu_0, # of connection points: 6
#     Node 11, Type 0, BuildingBlock: UKALOJ_clean_sbu_0, # of connection points: 6
#     Node 12, Type 0, BuildingBlock: UKALOJ_clean_sbu_0, # of connection points: 6
#     Node 13, Type 0, BuildingBlock: UKALOJ_clean_sbu_0, # of connection points: 6
#     Node 14, Type 0, BuildingBlock: UKALOJ_clean_sbu_0, # of connection points: 6
#     Node 15, Type 0, BuildingBlock: UKALOJ_clean_sbu_0, # of connection points: 6
#     Node 16, Type 0, BuildingBlock: UKALOJ_clean_sbu_0, # of connection points: 6
#     Node 17, Type 0, BuildingBlock: UKALOJ_clean_sbu_0, # of connection points: 6
#     Node 18, Type 0, BuildingBlock: UKALOJ_clean_sbu_0, # of connection points: 6
#     Node 19, Type 0, BuildingBlock: UKALOJ_clean_sbu_0, # of connection points: 6
#     Node 20, Type 0, BuildingBlock: UKALOJ_clean_sbu_0, # of connection points: 6
#     Node 21, Type 0, BuildingBlock: UKALOJ_clean_sbu_0, # of connection points: 6
#     Node 22, Type 0, BuildingBlock: UKALOJ_clean_sbu_0, # of connection points: 6
#     Node 23, Type 0, BuildingBlock: UKALOJ_clean_sbu_0, # of connection points: 6
#     Node 24, Type 0, BuildingBlock: UKALOJ_clean_sbu_0, # of connection points: 6
#     Node 25, Type 0, BuildingBlock: UKALOJ_clean_sbu_0, # of connection points: 6
#     Node 26, Type 0, BuildingBlock: UKALOJ_clean_sbu_0, # of connection points: 6
#     Node 27, Type 0, BuildingBlock: UKALOJ_clean_sbu_0, # of connection points: 6
#     Node 28, Type 0, BuildingBlock: UKALOJ_clean_sbu_0, # of connection points: 6
#     Node 29, Type 0, BuildingBlock: UKALOJ_clean_sbu_0, # of connection points: 6
#     Node 30, Type 0, BuildingBlock: UKALOJ_clean_sbu_0, # of connection points: 6
#     Node 31, Type 0, BuildingBlock: UKALOJ_clean_sbu_0, # of connection points: 6
#     Node 32, Type 0, BuildingBlock: UKALOJ_clean_sbu_0, # of connection points: 6
#     Node 33, Type 0, BuildingBlock: UKALOJ_clean_sbu_0, # of connection points: 6
#     Node 34, Type 0, BuildingBlock: UKALOJ_clean_sbu_0, # of connection points: 6
#     Node 35, Type 0, BuildingBlock: UKALOJ_clean_sbu_0, # of connection points: 6
#     Edge 36, Type (0, 0), None
#     Edge 37, Type (0, 0), None
#     Edge 38, Type (0, 0), None
#     Edge 39, Type (0, 0), None
#     Edge 40, Type (0, 0), None
#     Edge 41, Type (0, 0), None
#     Edge 42, Type (0, 0), None
#     Edge 43, Type (0, 0), None
#     Edge 44, Type (0, 0), None
#     Edge 45, Type (0, 0), None
#     Edge 46, Type (0, 0), None
#     Edge 47, Type (0, 0), None
#     Edge 48, Type (0, 0), None
#     Edge 49, Type (0, 0), None
#     Edge 50, Type (0, 0), None
#     Edge 51, Type (0, 0), None
#     Edge 52, Type (0, 0), None
#     Edge 53, Type (0, 0), None
#     Edge 54, Type (0, 0), None
#     Edge 55, Type (0, 0), None
#     Edge 56, Type (0, 0), None
#     Edge 57, Type (0, 0), None
#     Edge 58, Type (0, 0), None
#     Edge 59, Type (0, 0), None
#     Edge 60, Type (0, 0), None
#     Edge 61, Type (0, 0), None
#     Edge 62, Type (0, 0), None
#     Edge 63, Type (0, 0), None
#     Edge 64, Type (0, 0), None
#     Edge 65, Type (0, 0), None
#     Edge 66, Type (0, 0), None
#     Edge 67, Type (0, 0), None
#     Edge 68, Type (0, 0), None
#     Edge 69, Type (0, 0), None
#     Edge 70, Type (0, 0), None
#     Edge 71, Type (0, 0), None
#     Edge 72, Type (0, 0), None
#     Edge 73, Type (0, 0), None
#     Edge 74, Type (0, 0), None
#     Edge 75, Type (0, 0), None
#     Edge 76, Type (0, 0), None
#     Edge 77, Type (0, 0), None
#     Edge 78, Type (0, 0), None
#     Edge 79, Type (0, 0), None
#     Edge 80, Type (0, 0), None
#     Edge 81, Type (0, 0), None
#     Edge 82, Type (0, 0), None
#     Edge 83, Type (0, 0), None
#     Edge 84, Type (0, 0), None
#     Edge 85, Type (0, 0), None
#     Edge 86, Type (0, 0), None
#     Edge 87, Type (0, 0), None
#     Edge 88, Type (0, 0), None
#     Edge 89, Type (0, 0), None
#     Edge 90, Type (0, 0), None
#     Edge 91, Type (0, 0), None
#     Edge 92, Type (0, 0), None
#     Edge 93, Type (0, 0), None
#     Edge 94, Type (0, 0), None
#     Edge 95, Type (0, 0), None
#     Edge 96, Type (0, 0), None
#     Edge 97, Type (0, 0), None
#     Edge 98, Type (0, 0), None
#     Edge 99, Type (0, 0), None
#     Edge 100, Type (0, 0), None
#     Edge 101, Type (0, 0), None
#     Edge 102, Type (0, 0), None
#     Edge 103, Type (0, 0), None
#     Edge 104, Type (0, 0), None
#     Edge 105, Type (0, 0), None
#     Edge 106, Type (0, 0), None
#     Edge 107, Type (0, 0), None
#     Edge 108, Type (0, 0), None
#     Edge 109, Type (0, 0), None
#     Edge 110, Type (0, 0), None
#     Edge 111, Type (0, 0), None
#     Edge 112, Type (0, 0), None
#     Edge 113, Type (0, 0), None
#     Edge 114, Type (0, 0), None
#     Edge 115, Type (0, 0), None
#     Edge 116, Type (0, 0), None
#     Edge 117, Type (0, 0), None
#     Edge 118, Type (0, 0), None
#     Edge 119, Type (0, 0), None
#     Edge 120, Type (0, 0), None
#     Edge 121, Type (0, 0), None
#     Edge 122, Type (0, 0), None
#     Edge 123, Type (0, 0), None
#     Edge 124, Type (0, 0), None
#     Edge 125, Type (0, 0), None
#     Edge 126, Type (0, 0), None
#     Edge 127, Type (0, 0), None
#     Edge 128, Type (0, 0), None
#     Edge 129, Type (0, 0), None
#     Edge 130, Type (0, 0), None
#     Edge 131, Type (0, 0), None
#     Edge 132, Type (0, 0), None
#     Edge 133, Type (0, 0), None
#     Edge 134, Type (0, 0), None
#     Edge 135, Type (0, 0), None
#     Edge 136, Type (0, 0), None
#     Edge 137, Type (0, 0), None
#     Edge 138, Type (0, 0), None
#     Edge 139, Type (0, 0), None
#     Edge 140, Type (0, 0), None
#     Edge 141, Type (0, 0), None
#     Edge 142, Type (0, 0), None
#     Edge 143, Type (0, 0), None
# Relax obj value: 0.068
# Max RMSD: 0.168
# Mean RMSD: 0.168
data_MOF--net-wnd--node1-UKALOJ_clean_sbu_0--edge1-none
_symmetry_space_group_name_H-M    P1
_symmetry_Int_Tables_number       1
_symmetry_cell_setting            triclinic
loop_
_symmetry_equiv_pos_as_xyz
'x, y, z'
_cell_length_a     13.597398
_cell_length_b     13.597368
_cell_length_c     139.83023
_cell_angle_alpha  90.000497
_cell_angle_beta   89.999595
_cell_angle_gamma 119.99956
loop_
_atom_site_label
_atom_site_type_symbol
_atom_site_fract_x
_atom_site_fract_y
_atom_site_fract_z
_atom_type_partial_charge
Zn0 Zn 0.48186 0.009 0.06967 0.0
O1 O 0.52926 0.88272 0.06954 0.0
C2 C 0.25789 0.83422 0.07715 0.0
Zn3 Zn 0.4792 0.00697 0.08579 0.0
C4 C 0.54181 0.84226 0.07736 0.0
O5 O 0.52729 0.87914 0.08536 0.0
C6 C 0.42871 0.1781 0.07792 0.0
O7 O 0.6535 0.1358 0.08616 0.0
O8 O 0.65314 0.13351 0.07041 0.0
N9 N 0.45822 0.00283 0.1007 0.0
C10 C 0.45588 0.08138 0.10656 0.0
C11 C 0.36197 0.9214 0.11352 0.0
N12 N 0.40048 0.90378 0.10515 0.0
N13 N 0.39647 0.03241 0.11456 0.0
C14 C 0.47331 -0.03636 0.04741 0.0
C15 C 0.52414 0.12975 0.04217 0.0
N16 N 0.49175 0.03059 0.05508 0.0
N17 N 0.5233 0.13354 0.05178 0.0
N18 N 0.49358 0.02422 0.03921 0.0
H19 H 0.51042 0.82922 0.04661 0.0
H20 H 0.36952 0.79171 0.04281 0.0
H21 H 0.40277 0.80698 0.05532 0.0
C22 C 0.43659 0.84061 0.04812 0.0
C23 C 0.49846 0.20296 0.10411 0.0
H24 H 0.53408 0.25734 0.1105 0.0
H25 H 0.42612 0.21293 0.10173 0.0
H26 H 0.56415 0.23174 0.09847 0.0
O27 O 0.43304 0.13183 0.08558 0.0
O28 O 0.43911 0.13865 0.07003 0.0
C29 C 0.70582 0.17208 0.07823 0.0
O30 O 0.30762 0.87747 0.06924 0.0
O31 O 0.30859 0.87667 0.08498 0.0
Zn32 Zn -0.01031 0.49481 0.08579 0.0
O33 O 0.86086 0.54028 0.08616 0.0
C34 C 0.81859 0.2732 0.07792 0.0
Zn35 Zn -0.01233 0.49543 0.06967 0.0
C36 C 0.82459 0.55632 0.07823 0.0
O37 O 0.86316 0.5422 0.07041 0.0
C38 C 0.16245 0.44625 0.07715 0.0
O39 O 0.11396 0.66912 0.06954 0.0
O40 O 0.11753 0.67074 0.08536 0.0
N41 N -0.03404 0.48366 0.05508 0.0
C42 C 0.03278 0.53212 0.04741 0.0
C43 C 0.86658 0.41681 0.04219 0.0
N44 N 0.86295 0.41224 0.05179 0.0
N45 N -0.02795 0.49175 0.03921 0.0
C46 C 0.91534 0.39713 0.10656 0.0
C47 C 0.07534 0.4632 0.11352 0.0
N48 N -0.00613 0.47801 0.1007 0.0
N49 N 0.09293 0.51932 0.10515 0.0
N50 N -0.03567 0.38669 0.11456 0.0
H51 H 0.73938 0.29935 0.1105 0.0
H52 H 0.78379 0.23581 0.10173 0.0
H53 H 0.76496 0.35501 0.09848 0.0
C54 C 0.79375 0.31811 0.10411 0.0
C55 C 0.15581 0.61845 0.0481 0.0
H56 H 0.16716 0.70363 0.04658 0.0
H57 H 0.20464 0.60018 0.04279 0.0
H58 H 0.18954 0.61838 0.0553 0.0
O59 O 0.11921 0.45273 0.06924 0.0
O60 O 0.12 0.45451 0.08498 0.0
C61 C 0.1544 0.72212 0.07736 0.0
O62 O 0.86483 0.32379 0.08558 0.0
O63 O 0.85804 0.32303 0.07004 0.0
Zn64 Zn 0.50125 0.51483 0.06967 0.0
O65 O 0.32756 0.46743 0.06954 0.0
C66 C 0.55043 0.73878 0.07715 0.0
Zn67 Zn 0.50186 0.51748 0.08579 0.0
C68 C 0.27456 0.45487 0.07736 0.0
O69 O 0.32593 0.46939 0.08536 0.0
C70 C 0.72347 0.56797 0.07792 0.0
O71 O 0.45639 0.34317 0.08616 0.0
O72 O 0.45447 0.34355 0.07041 0.0
N73 N 0.5187 0.53847 0.1007 0.0
C74 C 0.5996 0.54083 0.10656 0.0
C75 C 0.53352 0.63475 0.11352 0.0
N76 N 0.47739 0.59622 0.10515 0.0
N77 N 0.61005 0.60027 0.11456 0.0
C78 C 0.46433 0.52316 0.04741 0.0
C79 C 0.5796 0.4723 0.04217 0.0
N80 N 0.51293 0.50488 0.05508 0.0
N81 N 0.58434 0.47332 0.05178 0.0
N82 N 0.50458 0.50276 0.03921 0.0
H83 H 0.29278 0.48599 0.04661 0.0
H84 H 0.39613 0.62686 0.04279 0.0
H85 H 0.37822 0.59377 0.05531 0.0
C86 C 0.37799 0.55985 0.04811 0.0
C87 C 0.67862 0.49827 0.10411 0.0
H88 H 0.6974 0.46268 0.1105 0.0
H89 H 0.76091 0.57061 0.10173 0.0
H90 H 0.64171 0.43257 0.09848 0.0
O91 O 0.67287 0.56363 0.08558 0.0
O92 O 0.67365 0.55758 0.07003 0.0
C93 C 0.44036 0.29087 0.07823 0.0
O94 O 0.54394 0.68907 0.06924 0.0
O95 O 0.54217 0.68807 0.08498 0.0
Zn96 Zn -0.0111 0.4936 0.48302 0.0
O97 O 0.11774 0.6679 0.48264 0.0
C98 C 0.16003 0.44311 0.49089 0.0
Zn99 Zn -0.00906 0.49627 0.49913 0.0
C100 C 0.15402 0.72023 0.49057 0.0
O101 O 0.11544 0.66755 0.49839 0.0
C102 C 0.81616 0.27229 0.49166 0.0
O103 O 0.86465 0.54366 0.49927 0.0
O104 O 0.86107 0.5417 0.48345 0.0
N105 N 0.01252 0.50616 0.51373 0.0
C106 C -0.05443 0.48771 0.5214 0.0
C107 C 0.11167 0.53854 0.52663 0.0
N108 N 0.11548 0.53771 0.51703 0.0
N109 N 0.00615 0.50797 0.5296 0.0
C110 C 0.06338 0.47038 0.46224 0.0
C111 C 0.90343 0.37639 0.45528 0.0
N112 N -0.01521 0.47263 0.46811 0.0
N113 N 0.88575 0.41484 0.46366 0.0
N114 N 0.01446 0.41097 0.45424 0.0
H115 H 0.23936 0.54868 0.45831 0.0
H116 H 0.19497 0.44068 0.46708 0.0
H117 H 0.21369 0.57865 0.47034 0.0
C118 C 0.18496 0.513 0.4647 0.0
C119 C 0.82254 0.45099 0.52069 0.0
H120 H 0.81115 0.52481 0.52219 0.0
H121 H 0.77364 0.38391 0.526 0.0
H122 H 0.78891 0.41717 0.51348 0.0
O123 O 0.85941 0.32203 0.49956 0.0
O124 O 0.8586 0.323 0.48383 0.0
C125 C 0.8242 0.55621 0.49145 0.0
O126 O 0.11376 0.44743 0.48323 0.0
O127 O 0.12059 0.45352 0.49877 0.0
Zn128 Zn 0.49676 0.51565 0.49913 0.0
O129 O 0.44936 0.34197 0.49926 0.0
C130 C 0.72072 0.56484 0.49166 0.0
Zn131 Zn 0.49942 0.51628 0.48302 0.0
C132 C 0.43681 0.28896 0.49144 0.0
O133 O 0.45133 0.34035 0.48344 0.0
C134 C 0.54991 0.73789 0.49089 0.0
O135 O 0.32511 0.4708 0.48264 0.0
O136 O 0.32548 0.46888 0.49839 0.0
N137 N 0.52044 0.53317 0.4681 0.0
C138 C 0.52284 0.6141 0.46224 0.0
C139 C 0.61674 0.54801 0.45528 0.0
N140 N 0.57817 0.49185 0.46365 0.0
N141 N 0.58228 0.62456 0.45424 0.0
C142 C 0.50507 0.4787 0.5214 0.0
C143 C 0.45421 0.59397 0.52663 0.0
N144 N 0.4868 0.52731 0.51373 0.0
N145 N 0.45524 0.59872 0.51703 0.0
N146 N 0.48466 0.51894 0.5296 0.0
H147 H 0.4679 0.30715 0.52219 0.0
H148 H 0.60877 0.4105 0.52601 0.0
H149 H 0.57568 0.39259 0.51349 0.0
C150 C 0.54176 0.39236 0.5207 0.0
C151 C 0.48029 0.69313 0.46469 0.0
H152 H 0.44472 0.71194 0.4583 0.0
H153 H 0.55263 0.7754 0.46708 0.0
H154 H 0.41457 0.65621 0.47033 0.0
O155 O 0.54556 0.68729 0.48323 0.0
O156 O 0.53952 0.68805 0.49877 0.0
C157 C 0.27281 0.45476 0.49057 0.0
O158 O 0.67099 0.55834 0.49956 0.0
O159 O 0.67002 0.55659 0.48383 0.0
Zn160 Zn 0.47736 0.00208 0.49913 0.0
O161 O 0.65106 0.12837 0.49927 0.0
C162 C 0.42818 0.17685 0.49166 0.0
Zn163 Zn 0.47676 0.00411 0.48302 0.0
C164 C 0.70406 0.16881 0.49145 0.0
O165 O 0.65268 0.13193 0.48345 0.0
C166 C 0.25514 0.833 0.49088 0.0
O167 O 0.52224 0.87529 0.48264 0.0
O168 O 0.52413 0.87757 0.49839 0.0
N169 N 0.46002 0.00832 0.46811 0.0
C170 C 0.37915 0.92983 0.46224 0.0
C171 C 0.44531 0.08986 0.45529 0.0
N172 N 0.5014 0.10741 0.46367 0.0
N173 N 0.36877 -0.02113 0.45424 0.0
C174 C 0.51402 0.04717 0.5214 0.0
C175 C 0.3987 0.88098 0.52662 0.0
N176 N 0.46556 -0.01964 0.51373 0.0
N177 N 0.39412 0.87735 0.51702 0.0
N178 N 0.47364 -0.01355 0.5296 0.0
H179 H 0.68554 0.18153 0.52222 0.0
H180 H 0.58212 0.21904 0.52602 0.0
H181 H 0.60031 0.20394 0.51351 0.0
C182 C 0.60037 0.1702 0.52071 0.0
C183 C 0.30009 0.80825 0.46469 0.0
H184 H 0.28132 0.7539 0.4583 0.0
H185 H 0.2178 0.7983 0.46707 0.0
H186 H 0.33696 0.77941 0.47032 0.0
O187 O 0.30574 0.87924 0.48323 0.0
O188 O 0.30496 0.87245 0.49877 0.0
C189 C 0.53826 0.83901 0.49058 0.0
O190 O 0.43466 0.13363 0.49956 0.0
O191 O 0.43645 0.1344 0.48383 0.0
Zn192 Zn 0.50082 0.00538 0.98302 0.0
O193 O 0.32651 0.87655 0.98264 0.0
C194 C 0.5513 0.83426 0.99089 0.0
Zn195 Zn 0.49815 0.00335 0.99913 0.0
C196 C 0.27419 0.84027 0.99057 0.0
O197 O 0.32686 0.87885 0.99839 0.0
C198 C 0.72212 0.17813 0.99166 0.0
O199 O 0.45076 0.12964 0.99927 0.0
O200 O 0.45271 0.13322 0.98345 0.0
N201 N 0.48826 -0.01823 1.01373 0.0
C202 C 0.50669 0.04872 1.0214 0.0
C203 C 0.45588 0.88262 1.02664 0.0
N204 N 0.45673 0.87882 1.01703 0.0
N205 N 0.48642 -0.01186 1.0296 0.0
C206 C 0.52403 0.9309 0.96224 0.0
C207 C 0.61802 0.09085 0.95528 0.0
N208 N 0.52178 0.0095 0.96811 0.0
N209 N 0.57957 0.10854 0.96366 0.0
N210 N 0.58343 -0.02018 0.95424 0.0
H211 H 0.44572 0.75492 0.95831 0.0
H212 H 0.55373 0.79931 0.96708 0.0
H213 H 0.41576 0.78059 0.97034 0.0
C214 C 0.4814 0.80932 0.9647 0.0
C215 C 0.5434 0.17175 1.02069 0.0
H216 H 0.46958 0.18314 1.02219 0.0
H217 H 0.61049 0.22066 1.026 0.0
H218 H 0.57722 0.20538 1.01348 0.0
O219 O 0.67238 0.13488 0.99956 0.0
O220 O 0.67142 0.13569 0.98383 0.0
C221 C 0.4382 0.17009 0.99145 0.0
O222 O 0.54698 0.88053 0.98323 0.0
O223 O 0.54089 0.87369 0.99877 0.0
Zn224 Zn -0.00969 0.51753 0.98302 0.0
O225 O 0.11913 0.47205 0.98264 0.0
C226 C 0.16141 0.73915 0.99088 0.0
Zn227 Zn -0.00766 0.51693 0.99913 0.0
C228 C 0.15542 0.45604 0.99058 0.0
O229 O 0.11685 0.47017 0.99839 0.0
C230 C 0.81755 0.5661 0.99166 0.0
O231 O 0.86605 0.34323 0.99927 0.0
O232 O 0.86249 0.34161 0.98345 0.0
N233 N 0.01405 0.52872 1.01373 0.0
C234 C -0.05276 0.48025 1.0214 0.0
C235 C 0.11342 0.59559 1.02662 0.0
N236 N 0.11705 0.60017 1.01702 0.0
N237 N 0.00796 0.52063 1.0296 0.0
C238 C 0.06458 0.61514 0.96224 0.0
C239 C 0.90454 0.54896 0.95529 0.0
N240 N -0.01391 0.53426 0.96811 0.0
N241 N 0.887 0.49288 0.96367 0.0
N242 N 0.01554 0.62551 0.95424 0.0
H243 H 0.24051 0.71297 0.9583 0.0
H244 H 0.1961 0.77649 0.96707 0.0
H245 H 0.21501 0.65733 0.97032 0.0
C246 C 0.18616 0.6942 0.96469 0.0
C247 C 0.82421 0.39389 1.02071 0.0
H248 H 0.81288 0.30873 1.02222 0.0
H249 H 0.77537 0.41215 1.02602 0.0
H250 H 0.79048 0.39395 1.01351 0.0
O251 O 0.86079 0.55962 0.99956 0.0
O252 O 0.86001 0.55783 0.98383 0.0
C253 C 0.82561 0.29023 0.99145 0.0
O254 O 0.11518 0.68855 0.98323 0.0
O255 O 0.12196 0.68933 0.99877 0.0
Zn256 Zn 0.47813 0.49487 0.98302 0.0
O257 O 0.52361 0.66918 0.98264 0.0
C258 C 0.25654 0.44438 0.99089 0.0
Zn259 Zn 0.47877 0.49753 0.99913 0.0
C260 C 0.53965 0.72148 0.99057 0.0
O261 O 0.52553 0.6688 0.99839 0.0
C262 C 0.42957 0.27357 0.99166 0.0
O263 O 0.65245 0.54494 0.99926 0.0
O264 O 0.65407 0.54296 0.98344 0.0
N265 N 0.46711 0.50749 1.01373 0.0
C266 C 0.51573 0.48924 1.0214 0.0
C267 C 0.40045 0.54009 1.02663 0.0
N268 N 0.39569 0.53904 1.01703 0.0
N269 N 0.4755 0.50965 1.0296 0.0
C270 C 0.3803 0.47144 0.96224 0.0
C271 C 0.44639 0.37755 0.95528 0.0
N272 N 0.46123 0.47385 0.9681 0.0
N273 N 0.50255 0.41611 0.96365 0.0
N274 N 0.36984 0.412 0.95424 0.0
H275 H 0.28247 0.54957 0.9583 0.0
H276 H 0.219 0.44166 0.96708 0.0
H277 H 0.3382 0.57972 0.97033 0.0
C278 C 0.30128 0.514 0.96469 0.0
C279 C 0.60207 0.45255 1.0207 0.0
H280 H 0.68728 0.52641 1.02219 0.0
H281 H 0.58393 0.38554 1.02601 0.0
H282 H 0.60186 0.41864 1.01349 0.0
O283 O 0.43608 0.3233 0.99956 0.0
O284 O 0.43782 0.32427 0.98383 0.0
C285 C 0.70545 0.55748 0.99144 0.0
O286 O 0.30712 0.44872 0.98323 0.0
O287 O 0.30637 0.45477 0.99877 0.0
Zn288 Zn -0.01471 0.51255 0.56967 0.0
O289 O 0.11157 0.46514 0.56954 0.0
C290 C 0.16007 0.73651 0.57715 0.0
Zn291 Zn -0.01268 0.51521 0.58578 0.0
C292 C 0.15203 0.45259 0.57736 0.0
O293 O 0.11516 0.46711 0.58536 0.0
C294 C 0.8162 0.56569 0.57792 0.0
O295 O 0.8585 0.34091 0.58616 0.0
O296 O 0.86078 0.34126 0.57041 0.0
N297 N -0.00854 0.53618 0.6007 0.0
C298 C 0.91292 0.53851 0.60656 0.0
C299 C 0.07289 0.63243 0.61352 0.0
N300 N 0.09052 0.59392 0.60515 0.0
N301 N -0.03812 0.59792 0.61456 0.0
C302 C 0.03066 0.52108 0.54741 0.0
C303 C 0.86455 0.47027 0.54217 0.0
N304 N -0.03629 0.50265 0.55508 0.0
N305 N 0.86076 0.47112 0.55177 0.0
N306 N -0.02993 0.50082 0.53921 0.0
H307 H 0.16506 0.48396 0.54661 0.0
H308 H 0.20259 0.62487 0.54281 0.0
H309 H 0.18731 0.5916 0.55532 0.0
C310 C 0.15368 0.55779 0.54812 0.0
C311 C 0.79133 0.49593 0.60411 0.0
H312 H 0.73695 0.46031 0.6105 0.0
H313 H 0.78136 0.56827 0.60173 0.0
H314 H 0.76256 0.43025 0.59847 0.0
O315 O 0.86246 0.56136 0.58557 0.0
O316 O 0.85564 0.5553 0.57003 0.0
C317 C 0.82221 0.28858 0.57823 0.0
O318 O 0.11683 0.68678 0.56924 0.0
O319 O 0.11762 0.68581 0.58498 0.0
Zn320 Zn 0.47946 0.49316 0.56967 0.0
O321 O 0.52687 0.66684 0.56954 0.0
C322 C 0.25551 0.44397 0.57715 0.0
Zn323 Zn 0.47682 0.49254 0.58579 0.0
C324 C 0.53942 0.71985 0.57736 0.0
O325 O 0.5249 0.66847 0.58536 0.0
C326 C 0.42632 0.27092 0.57792 0.0
O327 O 0.65112 0.53801 0.58616 0.0
O328 O 0.65075 0.53993 0.57041 0.0
N329 N 0.45583 0.47569 0.6007 0.0
C330 C 0.45346 0.39479 0.60656 0.0
C331 C 0.35955 0.46087 0.61352 0.0
N332 N 0.39808 0.517 0.60515 0.0
N333 N 0.39403 0.38434 0.61456 0.0
C334 C 0.47115 0.5301 0.54741 0.0
C335 C 0.52198 0.41481 0.54217 0.0
N336 N 0.48941 0.48148 0.55508 0.0
N337 N 0.52095 0.41006 0.55178 0.0
N338 N 0.49155 0.48985 0.53921 0.0
H339 H 0.50832 0.70165 0.54661 0.0
H340 H 0.36746 0.59831 0.5428 0.0
H341 H 0.40055 0.61622 0.55531 0.0
C342 C 0.43446 0.61644 0.54811 0.0
C343 C 0.49602 0.31578 0.60411 0.0
H344 H 0.53162 0.29699 0.6105 0.0
H345 H 0.42369 0.23348 0.60173 0.0
H346 H 0.56173 0.35268 0.59848 0.0
O347 O 0.43067 0.32153 0.58557 0.0
O348 O 0.43671 0.32076 0.57003 0.0
C349 C 0.70342 0.55405 0.57823 0.0
O350 O 0.30523 0.45046 0.56924 0.0
O351 O 0.30622 0.45223 0.58498 0.0
Zn352 Zn 0.49887 0.00673 0.56967 0.0
O353 O 0.32518 0.88044 0.56954 0.0
C354 C 0.54805 0.83196 0.57715 0.0
Zn355 Zn 0.49948 0.00471 0.58579 0.0
C356 C 0.27218 0.84 0.57736 0.0
O357 O 0.32356 0.87687 0.58536 0.0
C358 C 0.72109 0.17581 0.57792 0.0
O359 O 0.45401 0.13354 0.58616 0.0
O360 O 0.45209 0.13123 0.57041 0.0
N361 N 0.51628 0.00054 0.6007 0.0
C362 C 0.59717 0.07906 0.60656 0.0
C363 C 0.53108 0.91906 0.61352 0.0
N364 N 0.47496 0.90147 0.60515 0.0
N365 N 0.6076 0.03006 0.61456 0.0
C366 C 0.46216 -0.03837 0.54741 0.0
C367 C 0.57748 0.12782 0.54218 0.0
N368 N 0.51063 0.02844 0.55508 0.0
N369 N 0.58207 0.13145 0.55179 0.0
N370 N 0.50253 0.02235 0.53921 0.0
H371 H 0.29064 0.82725 0.54658 0.0
H372 H 0.39408 0.78977 0.54279 0.0
H373 H 0.37588 0.80486 0.5553 0.0
C374 C 0.37582 0.8386 0.5481 0.0
C375 C 0.67619 0.20064 0.60411 0.0
H376 H 0.69496 0.25501 0.6105 0.0
H377 H 0.75849 0.2106 0.60173 0.0
H378 H 0.6393 0.22945 0.59848 0.0
O379 O 0.6705 0.12957 0.58558 0.0
O380 O 0.67126 0.13636 0.57004 0.0
C381 C 0.43797 0.1698 0.57823 0.0
O382 O 0.54156 0.87519 0.56924 0.0
O383 O 0.53979 0.87441 0.58498 0.0
Zn384 Zn 0.14433 0.33892 0.41912 0.0
O385 O 0.31864 0.46776 0.41949 0.0
C386 C 0.09381 0.51002 0.41125 0.0
Zn387 Zn 0.14695 0.34093 0.40301 0.0
C388 C 0.37094 0.50402 0.41156 0.0
O389 O 0.31823 0.46544 0.40374 0.0
C390 C 0.92301 0.16615 0.41049 0.0
O391 O 0.19436 0.21465 0.40287 0.0
O392 O 0.19243 0.21109 0.4187 0.0
N393 N 0.15692 0.36262 0.38841 0.0
C394 C 0.13874 0.29586 0.38074 0.0
C395 C 0.18958 0.46206 0.37552 0.0
N396 N 0.18847 0.46563 0.38512 0.0
N397 N 0.15918 0.35663 0.37254 0.0
C398 C 0.12078 0.41337 0.43989 0.0
C399 C 0.02677 0.25339 0.44685 0.0
N400 N 0.12334 0.33483 0.43403 0.0
N401 N 0.06556 0.23579 0.43849 0.0
N402 N 0.06102 0.36436 0.44787 0.0
H403 H 0.19903 0.58932 0.44382 0.0
H404 H 0.09115 0.54498 0.43505 0.0
H405 H 0.22916 0.56371 0.4318 0.0
C406 C 0.16344 0.53496 0.43743 0.0
C407 C 0.10212 0.17285 0.38143 0.0
H408 H 0.17599 0.16156 0.37992 0.0
H409 H 0.03509 0.12402 0.37611 0.0
H410 H 0.06826 0.13907 0.38863 0.0
O411 O -0.02729 0.20938 0.40258 0.0
O412 O -0.02626 0.20862 0.41832 0.0
C413 C 0.20693 0.1742 0.4107 0.0
O414 O 0.09816 0.46377 0.41891 0.0
O415 O 0.10419 0.47057 0.40337 0.0
Zn416 Zn 0.65483 0.82672 0.41912 0.0
O417 O 0.52598 0.87218 0.4195 0.0
C418 C 0.48372 0.60513 0.41125 0.0
Zn419 Zn 0.6528 0.82737 0.40301 0.0
C420 C 0.48972 0.88824 0.41156 0.0
O421 O 0.5283 0.87415 0.40374 0.0
C422 C 0.82759 0.77818 0.41049 0.0
O423 O 0.77908 0.00104 0.40288 0.0
O424 O 0.78266 0.00267 0.4187 0.0
N425 N 0.63133 0.81579 0.38841 0.0
C426 C 0.69831 0.86444 0.38075 0.0
C427 C 0.53226 0.74915 0.3755 0.0
N428 N 0.52841 0.74438 0.3851 0.0
N429 N 0.63778 0.82421 0.37254 0.0
C430 C 0.58016 0.72862 0.43988 0.0
C431 C 0.74006 0.79439 0.44686 0.0
N432 N 0.6588 0.80969 0.43404 0.0
N433 N 0.75779 0.85083 0.4385 0.0
N434 N 0.62905 0.71777 0.44787 0.0
H435 H 0.40416 0.63109 0.44381 0.0
H436 H 0.44849 0.56745 0.43504 0.0
H437 H 0.42994 0.68683 0.43179 0.0
C438 C 0.45857 0.6498 0.43742 0.0
C439 C 0.82132 0.95078 0.38146 0.0
H440 H 0.83269 0.036 0.37997 0.0
H441 H 0.87027 0.9327 0.37615 0.0
H442 H 0.85493 0.95048 0.38866 0.0
O443 O 0.78434 0.78467 0.40258 0.0
O444 O 0.78514 0.78644 0.41831 0.0
C445 C 0.81953 0.05405 0.4107 0.0
O446 O 0.53 0.6557 0.4189 0.0
O447 O 0.52314 0.65497 0.40336 0.0
Zn448 Zn 0.16699 0.84941 0.41912 0.0
O449 O 0.12153 0.67511 0.41949 0.0
C450 C 0.38861 0.89991 0.41125 0.0
Zn451 Zn 0.16638 0.84677 0.40301 0.0
C452 C 0.10548 0.6228 0.41156 0.0
O453 O 0.11959 0.67548 0.40374 0.0
C454 C 0.21556 0.07072 0.41049 0.0
O455 O -0.00731 0.79938 0.40287 0.0
O456 O -0.00893 0.8013 0.41869 0.0
N457 N 0.17815 0.8369 0.38841 0.0
C458 C 0.12974 0.85537 0.38074 0.0
C459 C 0.2451 0.80458 0.37551 0.0
N460 N 0.24961 0.80537 0.38512 0.0
N461 N 0.17018 0.83515 0.37254 0.0
C462 C 0.26486 0.87274 0.43988 0.0
C463 C 0.19901 -0.03315 0.44685 0.0
N464 N 0.18385 0.87035 0.43403 0.0
N465 N 0.14266 0.92818 0.43849 0.0
N466 N 0.27562 0.93246 0.44787 0.0
H467 H 0.36238 0.79429 0.44382 0.0
H468 H 0.42609 0.90228 0.43505 0.0
H469 H 0.30674 0.76436 0.43179 0.0
C470 C 0.34371 0.83 0.43743 0.0
C471 C 0.04338 0.89203 0.38144 0.0
H472 H -0.04178 0.81821 0.37992 0.0
H473 H 0.06166 -0.04082 0.37613 0.0
H474 H 0.04341 0.92574 0.38864 0.0
O475 O 0.20909 0.02102 0.40258 0.0
O476 O 0.20727 0.02001 0.41831 0.0
C477 C -0.06031 0.7868 0.4107 0.0
O478 O 0.33802 0.8956 0.41891 0.0
O479 O 0.33877 0.88951 0.40337 0.0
Zn480 Zn 0.65775 0.82961 0.83246 0.0
O481 O 0.53146 0.87702 0.8326 0.0
C482 C 0.48297 0.60566 0.82499 0.0
Zn483 Zn 0.65573 0.82698 0.81635 0.0
C484 C 0.49101 0.88958 0.82478 0.0
O485 O 0.52789 0.87507 0.81678 0.0
C486 C 0.82683 0.77647 0.82422 0.0
O487 O 0.78456 0.00129 0.81597 0.0
O488 O 0.78226 0.00089 0.83172 0.0
N489 N 0.65152 0.80599 0.80144 0.0
C490 C 0.73 0.80355 0.79557 0.0
C491 C 0.56997 0.70968 0.78862 0.0
N492 N 0.55244 0.74827 0.797 0.0
N493 N 0.68096 0.7441 0.78758 0.0
C494 C 0.61275 0.82138 0.85474 0.0
C495 C 0.77898 0.87232 0.85995 0.0
N496 N 0.6795 0.8396 0.84706 0.0
N497 N 0.78253 0.87121 0.85035 0.0
N498 N 0.67354 0.84186 0.86293 0.0
H499 H 0.47839 0.85855 0.85556 0.0
H500 H 0.44092 0.71766 0.85936 0.0
H501 H 0.45594 0.75081 0.84685 0.0
C502 C 0.48972 0.78469 0.85405 0.0
C503 C 0.85159 0.84607 0.79802 0.0
H504 H 0.90594 0.88161 0.79163 0.0
H505 H 0.86151 0.77372 0.80041 0.0
H506 H 0.88044 0.91181 0.80365 0.0
O507 O 0.78059 0.78083 0.81656 0.0
O508 O 0.78737 0.78684 0.8321 0.0
C509 C 0.82083 0.05359 0.82391 0.0
O510 O 0.5262 0.65537 0.8329 0.0
O511 O 0.52544 0.65639 0.81716 0.0
Zn512 Zn 0.16357 0.84902 0.83246 0.0
O513 O 0.11617 0.67533 0.8326 0.0
C514 C 0.38753 0.89821 0.82499 0.0
Zn515 Zn 0.16621 0.84963 0.81635 0.0
C516 C 0.10362 0.62232 0.82478 0.0
O517 O 0.11812 0.67371 0.81678 0.0
C518 C 0.21671 0.07125 0.82422 0.0
O519 O -0.00808 0.80415 0.81597 0.0
O520 O -0.00772 0.80223 0.83173 0.0
N521 N 0.18716 0.86638 0.80144 0.0
C522 C 0.18944 0.94722 0.79558 0.0
C523 C 0.28339 0.88117 0.78862 0.0
N524 N 0.24492 0.82508 0.797 0.0
N525 N 0.24884 0.95765 0.78758 0.0
C526 C 0.1722 0.81244 0.85473 0.0
C527 C 0.12132 0.92773 0.85996 0.0
N528 N 0.15368 0.86081 0.84706 0.0
N529 N 0.12209 0.93223 0.85035 0.0
N530 N 0.15196 0.85287 0.86293 0.0
H531 H 0.13514 0.64095 0.85555 0.0
H532 H 0.27608 0.74443 0.85934 0.0
H533 H 0.24266 0.72619 0.84683 0.0
C534 C 0.20893 0.72614 0.85404 0.0
C535 C 0.14685 0.02622 0.79803 0.0
H536 H 0.1112 0.04494 0.79164 0.0
H537 H 0.21918 0.10854 0.8004 0.0
H538 H 0.08119 -0.01067 0.80367 0.0
O539 O 0.21238 0.02065 0.81656 0.0
O540 O 0.20632 0.02141 0.8321 0.0
C541 C -0.06039 0.78811 0.82391 0.0
O542 O 0.33781 0.89173 0.8329 0.0
O543 O 0.33682 0.88993 0.81716 0.0
Zn544 Zn 0.14418 0.33545 0.83247 0.0
O545 O 0.31786 0.46172 0.8326 0.0
C546 C 0.09498 0.51021 0.82499 0.0
Zn547 Zn 0.14354 0.33748 0.81635 0.0
C548 C 0.37086 0.50218 0.82478 0.0
O549 O 0.31948 0.46532 0.81678 0.0
C550 C 0.92195 0.16636 0.82422 0.0
O551 O 0.18901 0.20864 0.81597 0.0
O552 O 0.19096 0.21094 0.83172 0.0
N553 N 0.12663 0.34157 0.80144 0.0
C554 C 0.04573 0.26299 0.79558 0.0
C555 C 0.11171 0.42294 0.78861 0.0
N556 N 0.16788 0.44061 0.79699 0.0
N557 N 0.03522 0.31192 0.78757 0.0
C558 C 0.1812 0.38091 0.85473 0.0
C559 C 0.06599 0.21483 0.85998 0.0
N560 N 0.13258 0.31392 0.84706 0.0
N561 N 0.06121 0.21099 0.85037 0.0
N562 N 0.141 0.32037 0.86293 0.0
H563 H 0.35274 0.51534 0.8555 0.0
H564 H 0.24942 0.55286 0.85933 0.0
H565 H 0.26716 0.53755 0.84681 0.0
C566 C 0.2675 0.50394 0.85401 0.0
C567 C -0.03324 0.14142 0.79803 0.0
H568 H -0.05201 0.08701 0.79164 0.0
H569 H 0.88445 0.13144 0.80041 0.0
H570 H 0.00369 0.11267 0.80367 0.0
O571 O -0.02747 0.21263 0.81657 0.0
O572 O -0.02822 0.20579 0.83211 0.0
C573 C 0.20506 0.17238 0.82391 0.0
O574 O 0.10148 0.46698 0.8329 0.0
O575 O 0.10324 0.46778 0.81716 0.0
Zn576 Zn 0.16727 0.33857 0.31635 0.0
O577 O -0.00703 0.20974 0.31597 0.0
C578 C 0.21779 0.16746 0.32422 0.0
Zn579 Zn 0.16465 0.33655 0.33246 0.0
C580 C -0.05933 0.17347 0.32391 0.0
O581 O -0.00663 0.21204 0.33172 0.0
C582 C 0.3886 0.51133 0.32499 0.0
O583 O 0.11723 0.46284 0.3326 0.0
O584 O 0.11919 0.46641 0.31678 0.0
N585 N 0.15466 0.31481 0.34706 0.0
C586 C 0.17287 0.38158 0.35474 0.0
C587 C 0.12195 0.21536 0.35995 0.0
N588 N 0.12306 0.21179 0.35035 0.0
N589 N 0.15238 0.3208 0.36293 0.0
C590 C 0.19071 0.26429 0.29557 0.0
C591 C 0.28457 0.42431 0.28862 0.0
N592 N 0.18827 0.34277 0.30144 0.0
N593 N 0.24599 0.44185 0.29699 0.0
N594 N 0.25016 0.31332 0.28758 0.0
H595 H 0.11265 0.08835 0.29163 0.0
H596 H 0.22054 0.13278 0.30041 0.0
H597 H 0.08245 0.11386 0.30365 0.0
C598 C 0.14819 0.1427 0.29802 0.0
C599 C 0.20955 0.50461 0.35405 0.0
H600 H 0.13569 0.51593 0.35555 0.0
H601 H 0.27657 0.55341 0.35936 0.0
H602 H 0.24343 0.53838 0.34685 0.0
O603 O 0.33888 0.4681 0.33289 0.0
O604 O 0.33787 0.46886 0.31716 0.0
C605 C 0.10468 0.50329 0.32478 0.0
O606 O 0.21342 0.2137 0.31656 0.0
O607 O 0.20742 0.20693 0.3321 0.0
Zn608 Zn 0.65678 0.85076 0.31635 0.0
O609 O 0.78562 0.80529 0.31597 0.0
C610 C 0.82789 0.07235 0.32422 0.0
Zn611 Zn 0.65881 0.85012 0.33247 0.0
C612 C 0.82189 0.78924 0.32391 0.0
O613 O 0.78332 0.80334 0.33172 0.0
C614 C 0.48403 0.89931 0.32499 0.0
O615 O 0.53254 0.67644 0.3326 0.0
O616 O 0.52894 0.67481 0.31678 0.0
N617 N 0.68034 0.86172 0.34706 0.0
C618 C 0.61335 0.8131 0.35473 0.0
C619 C 0.77942 0.92833 0.35998 0.0
N620 N 0.78327 0.93311 0.35037 0.0
N621 N 0.6739 0.8533 0.36293 0.0
C622 C 0.73127 0.94856 0.29558 0.0
C623 C 0.57132 0.88258 0.28861 0.0
N624 N 0.65269 0.86767 0.30144 0.0
N625 N 0.55365 0.82642 0.29699 0.0
N626 N 0.68234 -0.04093 0.28757 0.0
H627 H 0.90725 0.04629 0.29164 0.0
H628 H 0.86283 0.10984 0.30041 0.0
H629 H 0.88159 -0.00941 0.30367 0.0
C630 C 0.85284 0.02753 0.29803 0.0
C631 C 0.49032 0.7268 0.35401 0.0
H632 H 0.47892 0.64156 0.35551 0.0
H633 H 0.4414 0.74489 0.35933 0.0
H634 H 0.45671 0.72712 0.34681 0.0
O635 O 0.52728 0.89282 0.3329 0.0
O636 O 0.52647 0.89105 0.31716 0.0
C637 C 0.49208 0.62343 0.32478 0.0
O638 O 0.78163 0.02177 0.31657 0.0
O639 O 0.78847 0.02252 0.33211 0.0
Zn640 Zn 0.14523 0.83073 0.33247 0.0
O641 O 0.31893 0.87813 0.3326 0.0
C642 C 0.09605 0.60677 0.32499 0.0
Zn643 Zn 0.14463 0.82809 0.31635 0.0
C644 C 0.37193 0.89069 0.32478 0.0
O645 O 0.32055 0.87618 0.31678 0.0
C646 C 0.92301 0.77759 0.32422 0.0
O647 O 0.19011 0.00238 0.31597 0.0
O648 O 0.19202 0.00202 0.33173 0.0
N649 N 0.12788 0.80714 0.30144 0.0
C650 C 0.04704 0.80485 0.29558 0.0
C651 C 0.11309 0.71091 0.28862 0.0
N652 N 0.16918 0.74938 0.297 0.0
N653 N 0.03662 0.74545 0.28758 0.0
C654 C 0.18183 0.82213 0.35473 0.0
C655 C 0.06652 0.873 0.35996 0.0
N656 N 0.13344 0.84063 0.34706 0.0
N657 N 0.06202 0.8722 0.35035 0.0
N658 N 0.14141 0.84238 0.36293 0.0
H659 H 0.35332 0.8592 0.35555 0.0
H660 H 0.24985 0.71826 0.35934 0.0
H661 H 0.26809 0.75168 0.34683 0.0
C662 C 0.26814 0.78541 0.35404 0.0
C663 C -0.03196 0.84744 0.29803 0.0
H664 H -0.05069 0.88309 0.29164 0.0
H665 H 0.88571 0.7751 0.3004 0.0
H666 H 0.00492 0.9131 0.30367 0.0
O667 O -0.0264 0.78192 0.31656 0.0
O668 O -0.02716 0.78798 0.3321 0.0
C669 C 0.20614 0.05469 0.32391 0.0
O670 O 0.10253 0.65649 0.3329 0.0
O671 O 0.10433 0.65748 0.31716 0.0
Zn672 Zn 0.65345 0.84732 0.90301 0.0
O673 O 0.77973 0.79991 0.90287 0.0
C674 C 0.82823 0.07126 0.91049 0.0
Zn675 Zn 0.65546 0.84994 0.91912 0.0
C676 C 0.82017 0.78734 0.9107 0.0
O677 O 0.78329 0.80184 0.9187 0.0
C678 C 0.48436 0.90046 0.91125 0.0
O679 O 0.52662 0.67563 0.91949 0.0
O680 O 0.52894 0.67604 0.90374 0.0
N681 N 0.65955 0.87093 0.93403 0.0
C682 C 0.58101 0.87349 0.93989 0.0
C683 C 0.741 -0.0325 0.94685 0.0
N684 N 0.75859 0.9287 0.93849 0.0
N685 N 0.63003 0.93325 0.94787 0.0
C686 C 0.6985 0.85551 0.88074 0.0
C687 C 0.5323 0.8047 0.87552 0.0
N688 N 0.63175 0.83735 0.88841 0.0
N689 N 0.52874 0.80582 0.88512 0.0
N690 N 0.63772 0.83506 0.87254 0.0
H691 H 0.83279 0.81825 0.87991 0.0
H692 H 0.87033 -0.04084 0.87611 0.0
H693 H 0.85529 0.92597 0.88863 0.0
C694 C 0.82151 0.89212 0.88142 0.0
C695 C 0.45943 0.83084 0.93743 0.0
H696 H 0.40507 0.79525 0.94383 0.0
H697 H 0.44941 0.90313 0.93505 0.0
H698 H 0.43068 0.76511 0.9318 0.0
O699 O 0.53061 0.89611 0.91891 0.0
O700 O 0.52382 0.89009 0.90337 0.0
C701 C 0.49036 0.62334 0.91156 0.0
O702 O 0.785 0.02156 0.90258 0.0
O703 O 0.78576 0.02053 0.91832 0.0
Zn704 Zn 0.14761 0.82789 0.90301 0.0
O705 O 0.195 0.00158 0.90287 0.0
C706 C 0.92366 0.77871 0.91049 0.0
Zn707 Zn 0.14497 0.82728 0.91912 0.0
C708 C 0.20757 0.05459 0.9107 0.0
O709 O 0.19308 0.0032 0.91869 0.0
C710 C 0.09447 0.60565 0.91125 0.0
O711 O 0.31927 0.87275 0.91949 0.0
O712 O 0.3189 0.87468 0.90374 0.0
N713 N 0.12404 0.81042 0.93403 0.0
C714 C 0.12165 0.72942 0.93988 0.0
C715 C 0.02755 0.79527 0.94685 0.0
N716 N 0.06621 0.85162 0.93849 0.0
N717 N 0.06194 0.71865 0.94787 0.0
C718 C 0.139 0.86454 0.88074 0.0
C719 C 0.18977 0.74917 0.87551 0.0
N720 N 0.15747 0.81612 0.88841 0.0
N721 N 0.18898 0.74466 0.88512 0.0
N722 N 0.15921 0.8241 0.87254 0.0
H723 H 0.17617 0.03607 0.87992 0.0
H724 H 0.03519 0.93264 0.87614 0.0
H725 H 0.06865 0.95089 0.88864 0.0
C726 C 0.10235 0.95091 0.88144 0.0
C727 C 0.16439 0.65056 0.93743 0.0
H728 H 0.20011 0.6319 0.94382 0.0
H729 H 0.09211 0.56819 0.93505 0.0
H730 H 0.23003 0.68753 0.93179 0.0
O731 O 0.09878 0.65625 0.91891 0.0
O732 O 0.10487 0.6555 0.90337 0.0
C733 C 0.37158 0.8888 0.91156 0.0
O734 O -0.02664 0.78518 0.90258 0.0
O735 O -0.02563 0.787 0.91831 0.0
Zn736 Zn 0.16701 0.34147 0.90301 0.0
O737 O -0.00666 0.21519 0.90288 0.0
C738 C 0.2162 0.1667 0.91049 0.0
Zn739 Zn 0.16766 0.33944 0.91912 0.0
C740 C -0.05966 0.17474 0.9107 0.0
O741 O -0.00829 0.2116 0.9187 0.0
C742 C 0.38925 0.51055 0.91124 0.0
O743 O 0.1222 0.46829 0.9195 0.0
O744 O 0.12023 0.46596 0.90374 0.0
N745 N 0.1847 0.33547 0.93404 0.0
C746 C 0.26577 0.41412 0.93989 0.0
C747 C 0.2 0.25423 0.94686 0.0
N748 N 0.14356 0.23649 0.9385 0.0
N749 N 0.27663 0.36524 0.94787 0.0
C750 C 0.1299 0.29595 0.88075 0.0
C751 C 0.2452 0.46199 0.8755 0.0
N752 N 0.17858 0.36293 0.88841 0.0
N753 N 0.25 0.46584 0.8851 0.0
N754 N 0.17012 0.35648 0.87254 0.0
H755 H -0.04167 0.16158 0.87997 0.0
H756 H 0.06162 0.12399 0.87615 0.0
H757 H 0.04386 0.13933 0.88866 0.0
C758 C 0.04356 0.17294 0.88146 0.0
C759 C 0.34459 0.5357 0.93742 0.0
H760 H 0.36331 0.59012 0.94381 0.0
H761 H 0.42694 0.54579 0.93504 0.0
H762 H 0.30757 0.56433 0.93179 0.0
O763 O 0.33868 0.46427 0.9189 0.0
O764 O 0.33941 0.47113 0.90336 0.0
C765 C 0.10613 0.50454 0.91156 0.0
O766 O 0.20972 0.20993 0.90258 0.0
O767 O 0.20794 0.20913 0.91832 0.0
Zn768 Zn 0.81308 0.67363 0.73634 0.0
O769 O 0.86047 0.54733 0.73621 0.0
C770 C 0.58911 0.49884 0.74382 0.0
Zn771 Zn 0.81042 0.6716 0.75245 0.0
C772 C 0.87303 0.50689 0.74403 0.0
O773 O 0.85854 0.54378 0.75203 0.0
C774 C 0.75993 0.84272 0.74458 0.0
O775 O -0.01527 0.80045 0.75283 0.0
O776 O -0.01563 0.79812 0.73708 0.0
N777 N 0.78945 0.66758 0.76737 0.0
C778 C 0.78708 0.74622 0.77322 0.0
C779 C 0.69293 0.58631 0.78019 0.0
N780 N 0.73159 0.56857 0.77183 0.0
N781 N 0.72735 0.69732 0.78121 0.0
C782 C 0.80458 0.6283 0.71408 0.0
C783 C 0.8554 0.79442 0.70884 0.0
N784 N 0.82298 0.69521 0.72175 0.0
N785 N 0.85452 0.79817 0.71844 0.0
N786 N 0.82486 0.68891 0.70587 0.0
H787 H 0.84172 0.49391 0.71327 0.0
H788 H 0.70081 0.45638 0.70947 0.0
H789 H 0.73407 0.47162 0.72198 0.0
C790 C 0.76789 0.50527 0.71478 0.0
C791 C 0.82985 0.86781 0.77076 0.0
H792 H 0.86558 0.92222 0.77714 0.0
H793 H 0.75758 0.87792 0.76838 0.0
H794 H 0.89548 0.89644 0.76512 0.0
O795 O 0.76423 0.79643 0.75224 0.0
O796 O 0.77035 0.80329 0.7367 0.0
C797 C 0.03705 0.83671 0.74489 0.0
O798 O 0.63884 0.5421 0.73591 0.0
O799 O 0.63983 0.54128 0.75165 0.0
Zn800 Zn 0.31891 0.16003 0.73634 0.0
O801 O 0.4452 0.33373 0.73621 0.0
C802 C 0.4937 0.11088 0.74382 0.0
Zn803 Zn 0.32094 0.15944 0.75245 0.0
C804 C 0.48563 0.38674 0.74403 0.0
O805 O 0.44875 0.33536 0.75203 0.0
C806 C 0.14983 0.93782 0.74458 0.0
O807 O 0.1921 0.2049 0.75283 0.0
O808 O 0.1944 0.20681 0.73708 0.0
N809 N 0.32504 0.14258 0.76736 0.0
C810 C 0.24648 0.06153 0.77322 0.0
C811 C 0.40647 0.12748 0.78018 0.0
N812 N 0.42408 0.18383 0.77182 0.0
N813 N 0.29549 0.05079 0.7812 0.0
C814 C 0.36407 0.19678 0.71407 0.0
C815 C 0.19789 0.08144 0.70885 0.0
N816 N 0.29724 0.14828 0.72175 0.0
N817 N 0.19425 0.07684 0.71845 0.0
N818 N 0.30336 0.15641 0.70587 0.0
H819 H 0.49841 0.36831 0.71325 0.0
H820 H 0.53594 0.26491 0.70946 0.0
H821 H 0.52081 0.28306 0.72197 0.0
C822 C 0.48709 0.28314 0.71476 0.0
C823 C 0.12489 -0.01738 0.77076 0.0
H824 H 0.07053 -0.0361 0.77716 0.0
H825 H 0.11484 0.90028 0.76839 0.0
H826 H 0.09616 0.01959 0.76513 0.0
O827 O 0.19609 -0.01159 0.75224 0.0
O828 O 0.18927 -0.01236 0.7367 0.0
C829 C 0.15583 0.22094 0.74489 0.0
O830 O 0.45046 0.11734 0.73591 0.0
O831 O 0.45124 0.11916 0.75165 0.0
Zn832 Zn 0.83313 0.18212 0.75246 0.0
O833 O 0.78766 0.00781 0.75283 0.0
C834 C 0.05472 0.23261 0.74458 0.0
Zn835 Zn 0.83249 0.17946 0.73634 0.0
C836 C 0.7716 0.9555 0.74489 0.0
O837 O 0.78571 0.00819 0.73708 0.0
C838 C 0.88167 0.40341 0.74382 0.0
O839 O 0.65881 0.13207 0.73621 0.0
O840 O 0.65718 0.13402 0.75203 0.0
N841 N 0.84415 0.16952 0.72175 0.0
C842 C 0.79556 0.1878 0.71408 0.0
C843 C 0.91085 0.13696 0.70884 0.0
N844 N 0.91556 0.13796 0.71845 0.0
N845 N 0.83584 0.16742 0.70587 0.0
C846 C 0.9312 0.20563 0.77322 0.0
C847 C 0.86534 0.29971 0.78019 0.0
N848 N 0.85011 0.20313 0.76737 0.0
N849 N 0.80891 0.26095 0.77183 0.0
N850 N -0.05799 0.26539 0.78121 0.0
H851 H 0.02883 0.12728 0.77715 0.0
H852 H 0.09241 0.23519 0.76838 0.0
H853 H -0.02693 0.09722 0.76513 0.0
C854 C 0.01008 0.16292 0.77076 0.0
C855 C 0.70921 0.22448 0.71478 0.0
H856 H 0.62401 0.15062 0.71327 0.0
H857 H 0.72737 0.29151 0.70946 0.0
H858 H 0.7094 0.25835 0.72198 0.0
O859 O 0.87519 0.3537 0.73591 0.0
O860 O 0.87341 0.35271 0.75165 0.0
C861 C 0.60581 0.1195 0.74403 0.0
O862 O 0.00414 0.22829 0.75224 0.0
O863 O 0.00489 0.22221 0.7367 0.0
Zn864 Zn 0.3262 0.16472 0.1658 0.0
O865 O 0.19991 0.21212 0.16593 0.0
C866 C 0.15141 0.94076 0.15832 0.0
Zn867 Zn 0.32417 0.16207 0.14969 0.0
C868 C 0.15946 0.22468 0.15811 0.0
O869 O 0.19634 0.21018 0.15011 0.0
C870 C 0.49529 0.11157 0.15756 0.0
O871 O 0.45301 0.33637 0.14931 0.0
O872 O 0.4507 0.33601 0.16506 0.0
N873 N 0.32012 0.14109 0.13477 0.0
C874 C 0.39872 0.13863 0.12892 0.0
C875 C 0.23878 0.04455 0.12195 0.0
N876 N 0.22111 0.08327 0.13032 0.0
N877 N 0.34977 0.07889 0.12093 0.0
C878 C 0.28084 0.15622 0.18806 0.0
C879 C 0.44696 0.20703 0.1933 0.0
N880 N 0.34777 0.17462 0.18039 0.0
N881 N 0.45072 0.20615 0.1837 0.0
N882 N 0.34145 0.1765 0.19627 0.0
H883 H 0.14646 0.19337 0.18886 0.0
H884 H 0.10892 0.05246 0.19267 0.0
H885 H 0.12417 0.08572 0.18015 0.0
C886 C 0.15782 0.11954 0.18736 0.0
C887 C 0.52031 0.18135 0.13138 0.0
H888 H 0.5747 0.21702 0.12499 0.0
H889 H 0.53038 0.10908 0.13376 0.0
H890 H 0.54899 0.24703 0.13701 0.0
O891 O 0.44901 0.11589 0.1499 0.0
O892 O 0.45585 0.12198 0.16544 0.0
C893 C 0.48927 0.38869 0.15724 0.0
O894 O 0.19465 -0.00952 0.16622 0.0
O895 O 0.19386 -0.00852 0.15049 0.0
Zn896 Zn 0.83204 0.18414 0.1658 0.0
O897 O 0.78464 0.01045 0.16593 0.0
C898 C 0.05598 0.23331 0.15832 0.0
Zn899 Zn 0.83468 0.18475 0.14969 0.0
C900 C 0.77207 0.95744 0.15811 0.0
O901 O 0.78657 0.00882 0.15011 0.0
C902 C 0.88518 0.40637 0.15756 0.0
O903 O 0.66037 0.13929 0.14931 0.0
O904 O 0.66075 0.13735 0.16506 0.0
N905 N 0.85566 0.20168 0.13477 0.0
C906 C 0.85812 0.28273 0.12892 0.0
C907 C -0.04779 0.21687 0.12195 0.0
N908 N 0.91348 0.16048 0.13032 0.0
N909 N 0.91786 0.29352 0.12093 0.0
C910 C 0.84038 0.14723 0.18807 0.0
C911 C 0.78955 0.26254 0.1933 0.0
N912 N 0.8221 0.19582 0.18039 0.0
N913 N 0.79056 0.26725 0.18369 0.0
N914 N 0.82 0.18752 0.19627 0.0
H915 H 0.80318 -0.02432 0.18887 0.0
H916 H -0.05593 0.07903 0.19268 0.0
H917 H 0.91093 0.06106 0.18016 0.0
C918 C 0.87704 0.06088 0.18737 0.0
C919 C 0.8154 0.3616 0.13138 0.0
H920 H 0.77974 0.38033 0.12499 0.0
H921 H 0.88768 0.44395 0.13376 0.0
H922 H 0.74972 0.32461 0.13701 0.0
O923 O 0.88086 0.35577 0.1499 0.0
O924 O 0.87478 0.35653 0.16544 0.0
C925 C 0.60807 0.12324 0.15725 0.0
O926 O 0.00628 0.22684 0.16623 0.0
O927 O 0.00527 0.22503 0.15049 0.0
Zn928 Zn 0.81199 0.67257 0.14968 0.0
O929 O 0.85745 0.54373 0.14931 0.0
C930 C 0.59038 0.50147 0.15756 0.0
Zn931 Zn 0.81261 0.67055 0.1658 0.0
C932 C 0.87351 0.50748 0.15724 0.0
O933 O 0.8594 0.54606 0.16506 0.0
C934 C 0.76343 0.84532 0.15832 0.0
O935 O -0.01371 0.79684 0.16593 0.0
O936 O -0.01208 0.8004 0.15011 0.0
N937 N 0.80087 0.64888 0.18039 0.0
C938 C 0.84935 0.71571 0.18807 0.0
C939 C 0.73403 0.54953 0.19329 0.0
N940 N 0.72944 0.54588 0.18368 0.0
N941 N 0.80898 0.655 0.19626 0.0
C942 C 0.71402 0.59803 0.12892 0.0
C943 C 0.77986 0.75798 0.12195 0.0
N944 N 0.79507 0.67663 0.13477 0.0
N945 N 0.83625 0.77565 0.13031 0.0
N946 N 0.70322 0.64698 0.12093 0.0
H947 H 0.61645 0.42205 0.12499 0.0
H948 H 0.55281 0.46636 0.13375 0.0
H949 H 0.67215 0.44776 0.13701 0.0
C950 C 0.63516 0.47644 0.13138 0.0
C951 C 0.9357 0.83874 0.18737 0.0
H952 H 0.02088 0.85008 0.18889 0.0
H953 H 0.91745 0.88758 0.19268 0.0
H954 H 0.93564 0.87246 0.18017 0.0
O955 O 0.76991 0.80209 0.16623 0.0
O956 O 0.77171 0.80288 0.15049 0.0
C957 C 0.0393 0.83727 0.15811 0.0
O958 O 0.64096 0.54773 0.1499 0.0
O959 O 0.64022 0.54091 0.16544 0.0
Zn960 Zn 0.83223 0.6702 0.64969 0.0
O961 O 0.65793 0.54137 0.64931 0.0
C962 C 0.88273 0.49908 0.65756 0.0
Zn963 Zn 0.82958 0.66818 0.6658 0.0
C964 C 0.60561 0.5051 0.65725 0.0
O965 O 0.6583 0.54368 0.66506 0.0
C966 C 0.05354 0.84297 0.65832 0.0
O967 O 0.78218 0.79446 0.66593 0.0
O968 O 0.78412 0.79803 0.65011 0.0
N969 N 0.81969 0.6466 0.68039 0.0
C970 C 0.83806 0.7135 0.68806 0.0
C971 C 0.78727 0.54739 0.6933 0.0
N972 N 0.78816 0.54364 0.68369 0.0
N973 N 0.81777 0.65288 0.69627 0.0
C974 C 0.85566 0.59566 0.62892 0.0
C975 C -0.05027 0.75561 0.62195 0.0
N976 N 0.85321 0.67425 0.63477 0.0
N977 N 0.91101 0.77327 0.63032 0.0
N978 N 0.9154 0.64461 0.62093 0.0
H979 H 0.77728 0.41969 0.62499 0.0
H980 H 0.88523 0.464 0.63376 0.0
H981 H 0.74727 0.44538 0.63701 0.0
C982 C 0.81295 0.47407 0.63138 0.0
C983 C 0.87473 0.83652 0.68736 0.0
H984 H 0.8009 0.84788 0.68887 0.0
H985 H -0.05819 0.88542 0.69267 0.0
H986 H 0.90854 0.87018 0.68016 0.0
O987 O 0.00382 0.79972 0.66622 0.0
O988 O 0.00282 0.80051 0.65049 0.0
C989 C 0.76962 0.83491 0.65811 0.0
O990 O 0.87841 0.54536 0.6499 0.0
O991 O 0.87232 0.53853 0.66544 0.0
Zn992 Zn 0.32375 0.18177 0.6658 0.0
O993 O 0.19746 0.00808 0.66593 0.0
C994 C 0.14896 0.23093 0.65832 0.0
Zn995 Zn 0.32173 0.18239 0.64968 0.0
C996 C 0.15703 0.95507 0.65811 0.0
O997 O 0.1939 0.00645 0.65011 0.0
C998 C 0.49283 0.40399 0.65756 0.0
O999 O 0.45057 0.13692 0.64931 0.0
O1000 O 0.44825 0.13498 0.66506 0.0
N1001 N 0.31768 0.19932 0.63477 0.0
C1002 C 0.39628 0.28037 0.62892 0.0
C1003 C 0.23633 0.21452 0.62195 0.0
N1004 N 0.21866 0.15813 0.63031 0.0
N1005 N 0.34733 0.29116 0.62093 0.0
C1006 C 0.27858 0.14498 0.68807 0.0
C1007 C 0.44475 0.26031 0.69329 0.0
N1008 N 0.3454 0.19349 0.68039 0.0
N1009 N 0.4484 0.26493 0.68369 0.0
N1010 N 0.33928 0.18533 0.69626 0.0
H1011 H 0.14422 -0.02655 0.68888 0.0
H1012 H 0.10671 0.07686 0.69268 0.0
H1013 H 0.12183 0.0587 0.68017 0.0
C1014 C 0.15555 0.05862 0.68737 0.0
C1015 C 0.51787 0.35923 0.63138 0.0
H1016 H 0.57225 0.37794 0.62499 0.0
H1017 H 0.52794 0.44158 0.63375 0.0
H1018 H 0.54654 0.32224 0.63701 0.0
O1019 O 0.44657 0.35341 0.6499 0.0
O1020 O 0.45339 0.35416 0.66544 0.0
C1021 C 0.48683 0.12087 0.65724 0.0
O1022 O 0.19221 0.22446 0.66622 0.0
O1023 O 0.19141 0.22266 0.65049 0.0
Zn1024 Zn 0.81016 0.16234 0.6658 0.0
O1025 O -0.01615 0.20973 0.66593 0.0
C1026 C 0.76099 0.93839 0.65832 0.0
Zn1027 Zn 0.80955 0.15969 0.64969 0.0
C1028 C 0.03685 0.22231 0.65811 0.0
O1029 O -0.01452 0.2078 0.65011 0.0
C1030 C 0.58794 0.1092 0.65756 0.0
O1031 O 0.85501 0.334 0.64931 0.0
O1032 O 0.85695 0.33362 0.66506 0.0
N1033 N 0.79262 0.13871 0.63477 0.0
C1034 C 0.71157 0.13627 0.62892 0.0
C1035 C 0.77741 0.04217 0.62195 0.0
N1036 N 0.83381 0.08089 0.63032 0.0
N1037 N 0.70077 0.07652 0.62093 0.0
C1038 C 0.84708 0.15398 0.68807 0.0
C1039 C 0.73176 0.2048 0.6933 0.0
N1040 N 0.79849 0.17226 0.68039 0.0
N1041 N 0.72705 0.20379 0.68369 0.0
N1042 N 0.8068 0.17436 0.69627 0.0
H1043 H 0.01863 0.19118 0.68887 0.0
H1044 H 0.91528 0.05029 0.69268 0.0
H1045 H 0.93326 0.08345 0.68016 0.0
C1046 C 0.93344 0.11732 0.68737 0.0
C1047 C 0.6327 0.17899 0.63138 0.0
H1048 H 0.61398 0.21466 0.62499 0.0
H1049 H 0.55035 0.10671 0.63376 0.0
H1050 H 0.66969 0.24466 0.63701 0.0
O1051 O 0.63853 0.11351 0.6499 0.0
O1052 O 0.63776 0.1196 0.66544 0.0
C1053 C 0.87106 0.3863 0.65725 0.0
O1054 O 0.76746 -0.0119 0.66623 0.0
O1055 O 0.76926 -0.01089 0.65049 0.0
Zn1056 Zn 0.32267 0.18385 0.25245 0.0
O1057 O 0.19383 0.00955 0.25283 0.0
C1058 C 0.15155 0.23435 0.24458 0.0
Zn1059 Zn 0.32065 0.1812 0.23634 0.0
C1060 C 0.15757 0.95723 0.24489 0.0
O1061 O 0.19615 0.00991 0.23708 0.0
C1062 C 0.49543 0.40516 0.24382 0.0
O1063 O 0.44694 0.13381 0.23621 0.0
O1064 O 0.4505 0.13574 0.25203 0.0
N1065 N 0.29908 0.1713 0.22175 0.0
C1066 C 0.36601 0.18969 0.21408 0.0
C1067 C 0.1999 0.13889 0.20884 0.0
N1068 N 0.19613 0.13978 0.21844 0.0
N1069 N 0.3054 0.1694 0.20587 0.0
C1070 C 0.24804 0.2072 0.27322 0.0
C1071 C 0.40795 0.30135 0.28019 0.0
N1072 N 0.32669 0.20483 0.26737 0.0
N1073 N 0.42569 0.26269 0.27183 0.0
N1074 N 0.29693 0.26693 0.28121 0.0
H1075 H 0.07204 0.1287 0.27714 0.0
H1076 H 0.11634 0.2367 0.26838 0.0
H1077 H 0.09782 0.0988 0.26512 0.0
C1078 C 0.12645 0.16443 0.27076 0.0
C1079 C 0.48903 0.22637 0.21478 0.0
H1080 H 0.50039 0.15254 0.21327 0.0
H1081 H 0.53793 0.29345 0.20947 0.0
H1082 H 0.52268 0.26019 0.22199 0.0
O1083 O 0.45218 0.35544 0.23591 0.0
O1084 O 0.45299 0.35445 0.25165 0.0
C1085 C 0.48738 0.12124 0.24403 0.0
O1086 O 0.19784 0.23005 0.25224 0.0
O1087 O 0.19098 0.22393 0.2367 0.0
Zn1088 Zn 0.81481 0.16178 0.23634 0.0
O1089 O 0.86221 0.33546 0.23621 0.0
C1090 C 0.59086 0.1126 0.24382 0.0
Zn1091 Zn 0.81216 0.16115 0.25246 0.0
C1092 C 0.87476 0.38847 0.24403 0.0
O1093 O 0.86026 0.33709 0.25203 0.0
C1094 C 0.76166 0.93954 0.24458 0.0
O1095 O -0.01353 0.20662 0.25283 0.0
O1096 O -0.01392 0.20856 0.23708 0.0
N1097 N 0.79114 0.14417 0.26737 0.0
C1098 C 0.78864 0.06307 0.27322 0.0
C1099 C 0.69457 0.12896 0.28019 0.0
N1100 N 0.73333 0.18538 0.27183 0.0
N1101 N 0.72888 0.05227 0.28121 0.0
C1102 C 0.8065 0.19873 0.21407 0.0
C1103 C 0.85733 0.08342 0.20884 0.0
N1104 N 0.82475 0.15013 0.22175 0.0
N1105 N 0.85629 0.0787 0.21845 0.0
N1106 N 0.8269 0.15847 0.20587 0.0
H1107 H 0.8437 0.37029 0.21327 0.0
H1108 H 0.70281 0.26694 0.20946 0.0
H1109 H 0.73597 0.28492 0.22198 0.0
C1110 C 0.76984 0.28509 0.21477 0.0
C1111 C 0.83134 -0.01581 0.27076 0.0
H1112 H 0.86697 -0.03456 0.27715 0.0
H1113 H 0.75906 0.90186 0.26838 0.0
H1114 H 0.89704 0.0212 0.26513 0.0
O1115 O 0.76599 -0.00986 0.25224 0.0
O1116 O 0.77206 -0.01061 0.2367 0.0
C1117 C 0.03877 0.22268 0.24489 0.0
O1118 O 0.64057 0.11909 0.23591 0.0
O1119 O 0.64156 0.12086 0.25165 0.0
Zn1120 Zn 0.83424 0.67537 0.23634 0.0
O1121 O 0.66054 0.54907 0.23621 0.0
C1122 C 0.8834 0.50059 0.24382 0.0
Zn1123 Zn 0.83483 0.67334 0.25245 0.0
C1124 C 0.60754 0.50864 0.24403 0.0
O1125 O 0.65891 0.54552 0.25203 0.0
C1126 C 0.05645 0.84444 0.24458 0.0
O1127 O 0.78937 0.80217 0.25283 0.0
O1128 O 0.78746 0.79987 0.23708 0.0
N1129 N 0.85169 0.66924 0.26736 0.0
C1130 C 0.93273 0.7478 0.27322 0.0
C1131 C 0.86679 0.58781 0.28018 0.0
N1132 N 0.81044 0.5702 0.27182 0.0
N1133 N -0.05653 0.6988 0.2812 0.0
C1134 C 0.7975 0.63021 0.21407 0.0
C1135 C 0.91286 0.79638 0.20885 0.0
N1136 N 0.846 0.69703 0.22175 0.0
N1137 N 0.91745 0.80003 0.21845 0.0
N1138 N 0.83788 0.69092 0.20587 0.0
H1139 H 0.62597 0.49587 0.21325 0.0
H1140 H 0.72937 0.45834 0.20946 0.0
H1141 H 0.71119 0.47347 0.22197 0.0
C1142 C 0.71114 0.50719 0.21476 0.0
C1143 C 0.01164 0.86939 0.27076 0.0
H1144 H 0.03036 0.92375 0.27716 0.0
H1145 H 0.09398 0.87944 0.26839 0.0
H1146 H -0.02533 0.89812 0.26513 0.0
O1147 O 0.00586 0.79819 0.25224 0.0
O1148 O 0.00663 0.80501 0.2367 0.0
C1149 C 0.77333 0.83843 0.24489 0.0
O1150 O 0.87693 0.54382 0.23591 0.0
O1151 O 0.87512 0.54303 0.25165 0.0
loop_
_geom_bond_atom_site_label_1
_geom_bond_atom_site_label_2
_geom_bond_distance
_geom_bond_site_symmetry_2
_ccdc_geom_bond_type
Zn0 O1 2.055 1_545 S
Zn0 O8 2.046 . S
Zn0 N16 2.036 . S
Zn0 O28 2.053 . S
Zn0 O30 2.066 1_545 S
O1 Zn0 2.055 1_565 S
O1 C4 1.259 . S
C2 O30 1.256 . S
C2 O31 1.244 . S
Zn3 O5 2.046 1_545 S
Zn3 O7 2.055 . S
Zn3 N9 2.036 . S
Zn3 O27 2.066 . S
Zn3 O31 2.053 1_545 S
C4 O1 1.259 . S
C4 O5 1.254 . S
O5 Zn3 2.046 1_565 S
O5 C4 1.254 . S
C6 O27 1.256 . S
C6 O28 1.244 . S
O7 Zn3 2.055 . S
O7 C29 1.259 . S
O8 Zn0 2.046 . S
O8 C29 1.254 . S
N9 Zn3 2.036 . S
N9 C10 1.298 . S
N9 N12 1.398 1_545 S
C10 N9 1.298 . S
C10 N13 1.367 . S
C10 C23 1.481 . S
C11 N12 1.299 . S
C11 N13 1.379 1_565 S
N12 N9 1.398 1_565 S
N12 C11 1.299 . S
N13 C10 1.367 . S
N13 C11 1.379 1_545 S
C14 N16 1.298 1_565 S
C14 N18 1.367 1_565 S
C14 C22 1.481 . S
C15 N17 1.299 . S
C15 N18 1.379 . S
N16 Zn0 2.036 . S
N16 C14 1.298 1_545 S
N16 N17 1.398 . S
N17 C15 1.299 . S
N17 N16 1.398 . S
N18 C14 1.367 1_545 S
N18 C15 1.379 . S
H19 C22 0.980 . S
H20 C22 0.981 . S
H21 C22 0.981 . S
C22 C14 1.481 . S
C22 H19 0.980 . S
C22 H20 0.981 . S
C22 H21 0.981 . S
C23 C10 1.481 . S
C23 H24 0.980 . S
C23 H25 0.981 . S
C23 H26 0.981 . S
H24 C23 0.980 . S
H25 C23 0.981 . S
H26 C23 0.981 . S
O27 Zn3 2.066 . S
O27 C6 1.256 . S
O28 Zn0 2.053 . S
O28 C6 1.244 . S
C29 O7 1.259 . S
C29 O8 1.254 . S
O30 Zn0 2.066 1_565 S
O30 C2 1.256 . S
O31 C2 1.244 . S
O31 Zn3 2.053 1_565 S
Zn32 O33 2.055 1_455 S
Zn32 O40 2.046 . S
Zn32 N48 2.036 . S
Zn32 O60 2.053 . S
Zn32 O62 2.066 1_455 S
O33 Zn32 2.055 1_655 S
O33 C36 1.259 . S
C34 O62 1.256 . S
C34 O63 1.244 . S
Zn35 O37 2.046 1_455 S
Zn35 O39 2.055 . S
Zn35 N41 2.036 . S
Zn35 O59 2.066 . S
Zn35 O63 2.053 1_455 S
C36 O33 1.259 . S
C36 O37 1.254 . S
O37 Zn35 2.046 1_655 S
O37 C36 1.254 . S
C38 O59 1.256 . S
C38 O60 1.244 . S
O39 Zn35 2.055 . S
O39 C61 1.259 . S
O40 Zn32 2.046 . S
O40 C61 1.254 . S
N41 Zn35 2.036 . S
N41 C42 1.298 . S
N41 N44 1.398 1_455 S
C42 N41 1.298 . S
C42 N45 1.367 . S
C42 C55 1.481 . S
C43 N44 1.299 . S
C43 N45 1.379 1_655 S
N44 N41 1.398 1_655 S
N44 C43 1.299 . S
N45 C42 1.367 . S
N45 C43 1.379 1_455 S
C46 N48 1.298 1_655 S
C46 N50 1.367 1_655 S
C46 C54 1.481 . S
C47 N49 1.299 . S
C47 N50 1.379 . S
N48 Zn32 2.036 . S
N48 C46 1.298 1_455 S
N48 N49 1.398 . S
N49 C47 1.299 . S
N49 N48 1.398 . S
N50 C46 1.367 1_455 S
N50 C47 1.379 . S
H51 C54 0.980 . S
H52 C54 0.981 . S
H53 C54 0.981 . S
C54 C46 1.481 . S
C54 H51 0.980 . S
C54 H52 0.981 . S
C54 H53 0.981 . S
C55 C42 1.481 . S
C55 H56 0.980 . S
C55 H57 0.981 . S
C55 H58 0.981 . S
H56 C55 0.980 . S
H57 C55 0.981 . S
H58 C55 0.981 . S
O59 Zn35 2.066 . S
O59 C38 1.256 . S
O60 Zn32 2.053 . S
O60 C38 1.244 . S
C61 O39 1.259 . S
C61 O40 1.254 . S
O62 Zn32 2.066 1_655 S
O62 C34 1.256 . S
O63 C34 1.244 . S
O63 Zn35 2.053 1_655 S
Zn64 O65 2.055 . S
Zn64 O72 2.046 . S
Zn64 N80 2.036 . S
Zn64 O92 2.053 . S
Zn64 O94 2.066 . S
O65 Zn64 2.055 . S
O65 C68 1.259 . S
C66 O94 1.256 . S
C66 O95 1.244 . S
Zn67 O69 2.046 . S
Zn67 O71 2.055 . S
Zn67 N73 2.036 . S
Zn67 O91 2.066 . S
Zn67 O95 2.053 . S
C68 O65 1.259 . S
C68 O69 1.254 . S
O69 Zn67 2.046 . S
O69 C68 1.254 . S
C70 O91 1.256 . S
C70 O92 1.244 . S
O71 Zn67 2.055 . S
O71 C93 1.259 . S
O72 Zn64 2.046 . S
O72 C93 1.254 . S
N73 Zn67 2.036 . S
N73 C74 1.298 . S
N73 N76 1.398 . S
C74 N73 1.298 . S
C74 N77 1.367 . S
C74 C87 1.481 . S
C75 N76 1.299 . S
C75 N77 1.379 . S
N76 N73 1.398 . S
N76 C75 1.299 . S
N77 C74 1.367 . S
N77 C75 1.379 . S
C78 N80 1.298 . S
C78 N82 1.367 . S
C78 C86 1.481 . S
C79 N81 1.299 . S
C79 N82 1.379 . S
N80 Zn64 2.036 . S
N80 C78 1.298 . S
N80 N81 1.398 . S
N81 C79 1.299 . S
N81 N80 1.398 . S
N82 C78 1.367 . S
N82 C79 1.379 . S
H83 C86 0.980 . S
H84 C86 0.981 . S
H85 C86 0.981 . S
C86 C78 1.481 . S
C86 H83 0.980 . S
C86 H84 0.981 . S
C86 H85 0.981 . S
C87 C74 1.481 . S
C87 H88 0.980 . S
C87 H89 0.981 . S
C87 H90 0.981 . S
H88 C87 0.980 . S
H89 C87 0.981 . S
H90 C87 0.981 . S
O91 Zn67 2.066 . S
O91 C70 1.256 . S
O92 Zn64 2.053 . S
O92 C70 1.244 . S
C93 O71 1.259 . S
C93 O72 1.254 . S
O94 Zn64 2.066 . S
O94 C66 1.256 . S
O95 C66 1.244 . S
O95 Zn67 2.053 . S
Zn96 O97 2.055 . S
Zn96 O104 2.046 1_455 S
Zn96 N112 2.036 . S
Zn96 O124 2.053 1_455 S
Zn96 O126 2.066 . S
O97 Zn96 2.055 . S
O97 C100 1.259 . S
C98 O126 1.256 . S
C98 O127 1.244 . S
Zn99 O101 2.046 . S
Zn99 O103 2.055 1_455 S
Zn99 N105 2.036 . S
Zn99 O123 2.066 1_455 S
Zn99 O127 2.053 . S
C100 O97 1.259 . S
C100 O101 1.254 . S
O101 Zn99 2.046 . S
O101 C100 1.254 . S
C102 O123 1.256 . S
C102 O124 1.244 . S
O103 Zn99 2.055 1_655 S
O103 C125 1.259 . S
O104 Zn96 2.046 1_655 S
O104 C125 1.254 . S
N105 Zn99 2.036 . S
N105 C106 1.298 1_455 S
N105 N108 1.398 . S
C106 N105 1.298 1_655 S
C106 N109 1.367 1_655 S
C106 C119 1.481 . S
C107 N108 1.299 . S
C107 N109 1.379 . S
N108 N105 1.398 . S
N108 C107 1.299 . S
N109 C106 1.367 1_455 S
N109 C107 1.379 . S
C110 N112 1.298 . S
C110 N114 1.367 . S
C110 C118 1.481 . S
C111 N113 1.299 . S
C111 N114 1.379 1_655 S
N112 Zn96 2.036 . S
N112 C110 1.298 . S
N112 N113 1.398 1_455 S
N113 C111 1.299 . S
N113 N112 1.398 1_655 S
N114 C110 1.367 . S
N114 C111 1.379 1_455 S
H115 C118 0.980 . S
H116 C118 0.981 . S
H117 C118 0.981 . S
C118 C110 1.481 . S
C118 H115 0.980 . S
C118 H116 0.981 . S
C118 H117 0.981 . S
C119 C106 1.481 . S
C119 H120 0.980 . S
C119 H121 0.981 . S
C119 H122 0.981 . S
H120 C119 0.980 . S
H121 C119 0.981 . S
H122 C119 0.981 . S
O123 Zn99 2.066 1_655 S
O123 C102 1.256 . S
O124 Zn96 2.053 1_655 S
O124 C102 1.244 . S
C125 O103 1.259 . S
C125 O104 1.254 . S
O126 Zn96 2.066 . S
O126 C98 1.256 . S
O127 C98 1.244 . S
O127 Zn99 2.053 . S
Zn128 O129 2.055 . S
Zn128 O136 2.046 . S
Zn128 N144 2.036 . S
Zn128 O156 2.053 . S
Zn128 O158 2.066 . S
O129 Zn128 2.055 . S
O129 C132 1.259 . S
C130 O158 1.256 . S
C130 O159 1.244 . S
Zn131 O133 2.046 . S
Zn131 O135 2.055 . S
Zn131 N137 2.036 . S
Zn131 O155 2.066 . S
Zn131 O159 2.053 . S
C132 O129 1.259 . S
C132 O133 1.254 . S
O133 Zn131 2.046 . S
O133 C132 1.254 . S
C134 O155 1.256 . S
C134 O156 1.244 . S
O135 Zn131 2.055 . S
O135 C157 1.259 . S
O136 Zn128 2.046 . S
O136 C157 1.254 . S
N137 Zn131 2.036 . S
N137 C138 1.298 . S
N137 N140 1.398 . S
C138 N137 1.298 . S
C138 N141 1.367 . S
C138 C151 1.481 . S
C139 N140 1.299 . S
C139 N141 1.379 . S
N140 N137 1.398 . S
N140 C139 1.299 . S
N141 C138 1.367 . S
N141 C139 1.379 . S
C142 N144 1.298 . S
C142 N146 1.367 . S
C142 C150 1.481 . S
C143 N145 1.299 . S
C143 N146 1.379 . S
N144 Zn128 2.036 . S
N144 C142 1.298 . S
N144 N145 1.398 . S
N145 C143 1.299 . S
N145 N144 1.398 . S
N146 C142 1.367 . S
N146 C143 1.379 . S
H147 C150 0.980 . S
H148 C150 0.981 . S
H149 C150 0.981 . S
C150 C142 1.481 . S
C150 H147 0.980 . S
C150 H148 0.981 . S
C150 H149 0.981 . S
C151 C138 1.481 . S
C151 H152 0.980 . S
C151 H153 0.981 . S
C151 H154 0.981 . S
H152 C151 0.980 . S
H153 C151 0.981 . S
H154 C151 0.981 . S
O155 Zn131 2.066 . S
O155 C134 1.256 . S
O156 Zn128 2.053 . S
O156 C134 1.244 . S
C157 O135 1.259 . S
C157 O136 1.254 . S
O158 Zn128 2.066 . S
O158 C130 1.256 . S
O159 C130 1.244 . S
O159 Zn131 2.053 . S
Zn160 O161 2.055 . S
Zn160 O168 2.046 1_545 S
Zn160 N176 2.036 . S
Zn160 O188 2.053 1_545 S
Zn160 O190 2.066 . S
O161 Zn160 2.055 . S
O161 C164 1.259 . S
C162 O190 1.256 . S
C162 O191 1.244 . S
Zn163 O165 2.046 . S
Zn163 O167 2.055 1_545 S
Zn163 N169 2.036 . S
Zn163 O187 2.066 1_545 S
Zn163 O191 2.053 . S
C164 O161 1.259 . S
C164 O165 1.254 . S
O165 Zn163 2.046 . S
O165 C164 1.254 . S
C166 O187 1.256 . S
C166 O188 1.244 . S
O167 Zn163 2.055 1_565 S
O167 C189 1.259 . S
O168 Zn160 2.046 1_565 S
O168 C189 1.254 . S
N169 Zn163 2.036 . S
N169 C170 1.298 1_545 S
N169 N172 1.398 . S
C170 N169 1.298 1_565 S
C170 N173 1.367 . S
C170 C183 1.481 . S
C171 N172 1.299 . S
C171 N173 1.379 1_545 S
N172 N169 1.398 . S
N172 C171 1.299 . S
N173 C170 1.367 . S
N173 C171 1.379 1_565 S
C174 N176 1.298 . S
C174 N178 1.367 . S
C174 C182 1.481 . S
C175 N177 1.299 . S
C175 N178 1.379 1_565 S
N176 Zn160 2.036 . S
N176 C174 1.298 . S
N176 N177 1.398 1_545 S
N177 C175 1.299 . S
N177 N176 1.398 1_565 S
N178 C174 1.367 . S
N178 C175 1.379 1_545 S
H179 C182 0.980 . S
H180 C182 0.981 . S
H181 C182 0.981 . S
C182 C174 1.481 . S
C182 H179 0.980 . S
C182 H180 0.981 . S
C182 H181 0.981 . S
C183 C170 1.481 . S
C183 H184 0.980 . S
C183 H185 0.981 . S
C183 H186 0.981 . S
H184 C183 0.980 . S
H185 C183 0.981 . S
H186 C183 0.981 . S
O187 Zn163 2.066 1_565 S
O187 C166 1.256 . S
O188 Zn160 2.053 1_565 S
O188 C166 1.244 . S
C189 O167 1.259 . S
C189 O168 1.254 . S
O190 Zn160 2.066 . S
O190 C162 1.256 . S
O191 C162 1.244 . S
O191 Zn163 2.053 . S
Zn192 O193 2.055 1_545 S
Zn192 O200 2.046 . S
Zn192 N208 2.036 . S
Zn192 O220 2.053 . S
Zn192 O222 2.066 1_545 S
O193 Zn192 2.055 1_565 S
O193 C196 1.259 . S
C194 O222 1.256 . S
C194 O223 1.244 . S
Zn195 O197 2.046 1_545 S
Zn195 O199 2.055 . S
Zn195 N201 2.036 . S
Zn195 O219 2.066 . S
Zn195 O223 2.053 1_545 S
C196 O193 1.259 . S
C196 O197 1.254 . S
O197 Zn195 2.046 1_565 S
O197 C196 1.254 . S
C198 O219 1.256 . S
C198 O220 1.244 . S
O199 Zn195 2.055 . S
O199 C221 1.259 . S
O200 Zn192 2.046 . S
O200 C221 1.254 . S
N201 Zn195 2.036 . S
N201 C202 1.298 . S
N201 N204 1.398 1_545 S
C202 N201 1.298 . S
C202 N205 1.367 . S
C202 C215 1.481 . S
C203 N204 1.299 . S
C203 N205 1.379 1_565 S
N204 N201 1.398 1_565 S
N204 C203 1.299 . S
N205 C202 1.367 . S
N205 C203 1.379 1_545 S
C206 N208 1.298 1_565 S
C206 N210 1.367 . S
C206 C214 1.481 . S
C207 N209 1.299 . S
C207 N210 1.379 1_545 S
N208 Zn192 2.036 . S
N208 C206 1.298 1_545 S
N208 N209 1.398 . S
N209 C207 1.299 . S
N209 N208 1.398 . S
N210 C206 1.367 . S
N210 C207 1.379 1_565 S
H211 C214 0.980 . S
H212 C214 0.981 . S
H213 C214 0.981 . S
C214 C206 1.481 . S
C214 H211 0.980 . S
C214 H212 0.981 . S
C214 H213 0.981 . S
C215 C202 1.481 . S
C215 H216 0.980 . S
C215 H217 0.981 . S
C215 H218 0.981 . S
H216 C215 0.980 . S
H217 C215 0.981 . S
H218 C215 0.981 . S
O219 Zn195 2.066 . S
O219 C198 1.256 . S
O220 Zn192 2.053 . S
O220 C198 1.244 . S
C221 O199 1.259 . S
C221 O200 1.254 . S
O222 Zn192 2.066 1_565 S
O222 C194 1.256 . S
O223 C194 1.244 . S
O223 Zn195 2.053 1_565 S
Zn224 O225 2.055 . S
Zn224 O232 2.046 1_455 S
Zn224 N240 2.036 . S
Zn224 O252 2.053 1_455 S
Zn224 O254 2.066 . S
O225 Zn224 2.055 . S
O225 C228 1.259 . S
C226 O254 1.256 . S
C226 O255 1.244 . S
Zn227 O229 2.046 . S
Zn227 O231 2.055 1_455 S
Zn227 N233 2.036 . S
Zn227 O251 2.066 1_455 S
Zn227 O255 2.053 . S
C228 O225 1.259 . S
C228 O229 1.254 . S
O229 Zn227 2.046 . S
O229 C228 1.254 . S
C230 O251 1.256 . S
C230 O252 1.244 . S
O231 Zn227 2.055 1_655 S
O231 C253 1.259 . S
O232 Zn224 2.046 1_655 S
O232 C253 1.254 . S
N233 Zn227 2.036 . S
N233 C234 1.298 1_455 S
N233 N236 1.398 . S
C234 N233 1.298 1_655 S
C234 N237 1.367 1_655 S
C234 C247 1.481 . S
C235 N236 1.299 . S
C235 N237 1.379 . S
N236 N233 1.398 . S
N236 C235 1.299 . S
N237 C234 1.367 1_455 S
N237 C235 1.379 . S
C238 N240 1.298 . S
C238 N242 1.367 . S
C238 C246 1.481 . S
C239 N241 1.299 . S
C239 N242 1.379 1_655 S
N240 Zn224 2.036 . S
N240 C238 1.298 . S
N240 N241 1.398 1_455 S
N241 C239 1.299 . S
N241 N240 1.398 1_655 S
N242 C238 1.367 . S
N242 C239 1.379 1_455 S
H243 C246 0.980 . S
H244 C246 0.981 . S
H245 C246 0.981 . S
C246 C238 1.481 . S
C246 H243 0.980 . S
C246 H244 0.981 . S
C246 H245 0.981 . S
C247 C234 1.481 . S
C247 H248 0.980 . S
C247 H249 0.981 . S
C247 H250 0.981 . S
H248 C247 0.980 . S
H249 C247 0.981 . S
H250 C247 0.981 . S
O251 Zn227 2.066 1_655 S
O251 C230 1.256 . S
O252 Zn224 2.053 1_655 S
O252 C230 1.244 . S
C253 O231 1.259 . S
C253 O232 1.254 . S
O254 Zn224 2.066 . S
O254 C226 1.256 . S
O255 C226 1.244 . S
O255 Zn227 2.053 . S
Zn256 O257 2.055 . S
Zn256 O264 2.046 . S
Zn256 N272 2.036 . S
Zn256 O284 2.053 . S
Zn256 O286 2.066 . S
O257 Zn256 2.055 . S
O257 C260 1.259 . S
C258 O286 1.256 . S
C258 O287 1.244 . S
Zn259 O261 2.046 . S
Zn259 O263 2.055 . S
Zn259 N265 2.036 . S
Zn259 O283 2.066 . S
Zn259 O287 2.053 . S
C260 O257 1.259 . S
C260 O261 1.254 . S
O261 Zn259 2.046 . S
O261 C260 1.254 . S
C262 O283 1.256 . S
C262 O284 1.244 . S
O263 Zn259 2.055 . S
O263 C285 1.259 . S
O264 Zn256 2.046 . S
O264 C285 1.254 . S
N265 Zn259 2.036 . S
N265 C266 1.298 . S
N265 N268 1.398 . S
C266 N265 1.298 . S
C266 N269 1.367 . S
C266 C279 1.481 . S
C267 N268 1.299 . S
C267 N269 1.379 . S
N268 N265 1.398 . S
N268 C267 1.299 . S
N269 C266 1.367 . S
N269 C267 1.379 . S
C270 N272 1.298 . S
C270 N274 1.367 . S
C270 C278 1.481 . S
C271 N273 1.299 . S
C271 N274 1.379 . S
N272 Zn256 2.036 . S
N272 C270 1.298 . S
N272 N273 1.398 . S
N273 C271 1.299 . S
N273 N272 1.398 . S
N274 C270 1.367 . S
N274 C271 1.379 . S
H275 C278 0.980 . S
H276 C278 0.981 . S
H277 C278 0.981 . S
C278 C270 1.481 . S
C278 H275 0.980 . S
C278 H276 0.981 . S
C278 H277 0.981 . S
C279 C266 1.481 . S
C279 H280 0.980 . S
C279 H281 0.981 . S
C279 H282 0.981 . S
H280 C279 0.980 . S
H281 C279 0.981 . S
H282 C279 0.981 . S
O283 Zn259 2.066 . S
O283 C262 1.256 . S
O284 Zn256 2.053 . S
O284 C262 1.244 . S
C285 O263 1.259 . S
C285 O264 1.254 . S
O286 Zn256 2.066 . S
O286 C258 1.256 . S
O287 C258 1.244 . S
O287 Zn259 2.053 . S
Zn288 O289 2.055 . S
Zn288 O296 2.046 1_455 S
Zn288 N304 2.036 . S
Zn288 O316 2.053 1_455 S
Zn288 O318 2.066 . S
O289 Zn288 2.055 . S
O289 C292 1.259 . S
C290 O318 1.256 . S
C290 O319 1.244 . S
Zn291 O293 2.046 . S
Zn291 O295 2.055 1_455 S
Zn291 N297 2.036 . S
Zn291 O315 2.066 1_455 S
Zn291 O319 2.053 . S
C292 O289 1.259 . S
C292 O293 1.254 . S
O293 Zn291 2.046 . S
O293 C292 1.254 . S
C294 O315 1.256 . S
C294 O316 1.244 . S
O295 Zn291 2.055 1_655 S
O295 C317 1.259 . S
O296 Zn288 2.046 1_655 S
O296 C317 1.254 . S
N297 Zn291 2.036 . S
N297 C298 1.298 1_455 S
N297 N300 1.398 . S
C298 N297 1.298 1_655 S
C298 N301 1.367 . S
C298 C311 1.481 . S
C299 N300 1.299 . S
C299 N301 1.379 1_455 S
N300 N297 1.398 . S
N300 C299 1.299 . S
N301 C298 1.367 . S
N301 C299 1.379 1_655 S
C302 N304 1.298 . S
C302 N306 1.367 . S
C302 C310 1.481 . S
C303 N305 1.299 . S
C303 N306 1.379 1_655 S
N304 Zn288 2.036 . S
N304 C302 1.298 . S
N304 N305 1.398 1_455 S
N305 C303 1.299 . S
N305 N304 1.398 1_655 S
N306 C302 1.367 . S
N306 C303 1.379 1_455 S
H307 C310 0.980 . S
H308 C310 0.981 . S
H309 C310 0.981 . S
C310 C302 1.481 . S
C310 H307 0.980 . S
C310 H308 0.981 . S
C310 H309 0.981 . S
C311 C298 1.481 . S
C311 H312 0.980 . S
C311 H313 0.981 . S
C311 H314 0.981 . S
H312 C311 0.980 . S
H313 C311 0.981 . S
H314 C311 0.981 . S
O315 Zn291 2.066 1_655 S
O315 C294 1.256 . S
O316 Zn288 2.053 1_655 S
O316 C294 1.244 . S
C317 O295 1.259 . S
C317 O296 1.254 . S
O318 Zn288 2.066 . S
O318 C290 1.256 . S
O319 C290 1.244 . S
O319 Zn291 2.053 . S
Zn320 O321 2.055 . S
Zn320 O328 2.046 . S
Zn320 N336 2.036 . S
Zn320 O348 2.053 . S
Zn320 O350 2.066 . S
O321 Zn320 2.055 . S
O321 C324 1.259 . S
C322 O350 1.256 . S
C322 O351 1.244 . S
Zn323 O325 2.046 . S
Zn323 O327 2.055 . S
Zn323 N329 2.036 . S
Zn323 O347 2.066 . S
Zn323 O351 2.053 . S
C324 O321 1.259 . S
C324 O325 1.254 . S
O325 Zn323 2.046 . S
O325 C324 1.254 . S
C326 O347 1.256 . S
C326 O348 1.244 . S
O327 Zn323 2.055 . S
O327 C349 1.259 . S
O328 Zn320 2.046 . S
O328 C349 1.254 . S
N329 Zn323 2.036 . S
N329 C330 1.298 . S
N329 N332 1.398 . S
C330 N329 1.298 . S
C330 N333 1.367 . S
C330 C343 1.481 . S
C331 N332 1.299 . S
C331 N333 1.379 . S
N332 N329 1.398 . S
N332 C331 1.299 . S
N333 C330 1.367 . S
N333 C331 1.379 . S
C334 N336 1.298 . S
C334 N338 1.367 . S
C334 C342 1.481 . S
C335 N337 1.299 . S
C335 N338 1.379 . S
N336 Zn320 2.036 . S
N336 C334 1.298 . S
N336 N337 1.398 . S
N337 C335 1.299 . S
N337 N336 1.398 . S
N338 C334 1.367 . S
N338 C335 1.379 . S
H339 C342 0.980 . S
H340 C342 0.981 . S
H341 C342 0.981 . S
C342 C334 1.481 . S
C342 H339 0.980 . S
C342 H340 0.981 . S
C342 H341 0.981 . S
C343 C330 1.481 . S
C343 H344 0.980 . S
C343 H345 0.981 . S
C343 H346 0.981 . S
H344 C343 0.980 . S
H345 C343 0.981 . S
H346 C343 0.981 . S
O347 Zn323 2.066 . S
O347 C326 1.256 . S
O348 Zn320 2.053 . S
O348 C326 1.244 . S
C349 O327 1.259 . S
C349 O328 1.254 . S
O350 Zn320 2.066 . S
O350 C322 1.256 . S
O351 C322 1.244 . S
O351 Zn323 2.053 . S
Zn352 O353 2.055 1_545 S
Zn352 O360 2.046 . S
Zn352 N368 2.036 . S
Zn352 O380 2.053 . S
Zn352 O382 2.066 1_545 S
O353 Zn352 2.055 1_565 S
O353 C356 1.259 . S
C354 O382 1.256 . S
C354 O383 1.244 . S
Zn355 O357 2.046 1_545 S
Zn355 O359 2.055 . S
Zn355 N361 2.036 . S
Zn355 O379 2.066 . S
Zn355 O383 2.053 1_545 S
C356 O353 1.259 . S
C356 O357 1.254 . S
O357 Zn355 2.046 1_565 S
O357 C356 1.254 . S
C358 O379 1.256 . S
C358 O380 1.244 . S
O359 Zn355 2.055 . S
O359 C381 1.259 . S
O360 Zn352 2.046 . S
O360 C381 1.254 . S
N361 Zn355 2.036 . S
N361 C362 1.298 . S
N361 N364 1.398 1_545 S
C362 N361 1.298 . S
C362 N365 1.367 . S
C362 C375 1.481 . S
C363 N364 1.299 . S
C363 N365 1.379 1_565 S
N364 N361 1.398 1_565 S
N364 C363 1.299 . S
N365 C362 1.367 . S
N365 C363 1.379 1_545 S
C366 N368 1.298 1_565 S
C366 N370 1.367 1_565 S
C366 C374 1.481 . S
C367 N369 1.299 . S
C367 N370 1.379 . S
N368 Zn352 2.036 . S
N368 C366 1.298 1_545 S
N368 N369 1.398 . S
N369 C367 1.299 . S
N369 N368 1.398 . S
N370 C366 1.367 1_545 S
N370 C367 1.379 . S
H371 C374 0.980 . S
H372 C374 0.981 . S
H373 C374 0.981 . S
C374 C366 1.481 . S
C374 H371 0.980 . S
C374 H372 0.981 . S
C374 H373 0.981 . S
C375 C362 1.481 . S
C375 H376 0.980 . S
C375 H377 0.981 . S
C375 H378 0.981 . S
H376 C375 0.980 . S
H377 C375 0.981 . S
H378 C375 0.981 . S
O379 Zn355 2.066 . S
O379 C358 1.256 . S
O380 Zn352 2.053 . S
O380 C358 1.244 . S
C381 O359 1.259 . S
C381 O360 1.254 . S
O382 Zn352 2.066 1_565 S
O382 C354 1.256 . S
O383 C354 1.244 . S
O383 Zn355 2.053 1_565 S
Zn384 O385 2.055 . S
Zn384 O392 2.046 . S
Zn384 N400 2.036 . S
Zn384 O412 2.053 . S
Zn384 O414 2.066 . S
O385 Zn384 2.055 . S
O385 C388 1.259 . S
C386 O414 1.256 . S
C386 O415 1.244 . S
Zn387 O389 2.046 . S
Zn387 O391 2.055 . S
Zn387 N393 2.036 . S
Zn387 O411 2.066 . S
Zn387 O415 2.053 . S
C388 O385 1.259 . S
C388 O389 1.254 . S
O389 Zn387 2.046 . S
O389 C388 1.254 . S
C390 O411 1.256 . S
C390 O412 1.244 . S
O391 Zn387 2.055 . S
O391 C413 1.259 . S
O392 Zn384 2.046 . S
O392 C413 1.254 . S
N393 Zn387 2.036 . S
N393 C394 1.298 . S
N393 N396 1.398 . S
C394 N393 1.298 . S
C394 N397 1.367 . S
C394 C407 1.481 . S
C395 N396 1.299 . S
C395 N397 1.379 . S
N396 N393 1.398 . S
N396 C395 1.299 . S
N397 C394 1.367 . S
N397 C395 1.379 . S
C398 N400 1.298 . S
C398 N402 1.367 . S
C398 C406 1.481 . S
C399 N401 1.299 . S
C399 N402 1.379 . S
N400 Zn384 2.036 . S
N400 C398 1.298 . S
N400 N401 1.398 . S
N401 C399 1.299 . S
N401 N400 1.398 . S
N402 C398 1.367 . S
N402 C399 1.379 . S
H403 C406 0.980 . S
H404 C406 0.981 . S
H405 C406 0.981 . S
C406 C398 1.481 . S
C406 H403 0.980 . S
C406 H404 0.981 . S
C406 H405 0.981 . S
C407 C394 1.481 . S
C407 H408 0.980 . S
C407 H409 0.981 . S
C407 H410 0.981 . S
H408 C407 0.980 . S
H409 C407 0.981 . S
H410 C407 0.981 . S
O411 Zn387 2.066 . S
O411 C390 1.256 . S
O412 Zn384 2.053 . S
O412 C390 1.244 . S
C413 O391 1.259 . S
C413 O392 1.254 . S
O414 Zn384 2.066 . S
O414 C386 1.256 . S
O415 C386 1.244 . S
O415 Zn387 2.053 . S
Zn416 O417 2.055 . S
Zn416 O424 2.046 1_565 S
Zn416 N432 2.036 . S
Zn416 O444 2.053 . S
Zn416 O446 2.066 . S
O417 Zn416 2.055 . S
O417 C420 1.259 . S
C418 O446 1.256 . S
C418 O447 1.244 . S
Zn419 O421 2.046 . S
Zn419 O423 2.055 1_565 S
Zn419 N425 2.036 . S
Zn419 O443 2.066 . S
Zn419 O447 2.053 . S
C420 O417 1.259 . S
C420 O421 1.254 . S
O421 Zn419 2.046 . S
O421 C420 1.254 . S
C422 O443 1.256 . S
C422 O444 1.244 . S
O423 Zn419 2.055 1_545 S
O423 C445 1.259 . S
O424 Zn416 2.046 1_545 S
O424 C445 1.254 . S
N425 Zn419 2.036 . S
N425 C426 1.298 . S
N425 N428 1.398 . S
C426 N425 1.298 . S
C426 N429 1.367 . S
C426 C439 1.481 1_565 S
C427 N428 1.299 . S
C427 N429 1.379 . S
N428 N425 1.398 . S
N428 C427 1.299 . S
N429 C426 1.367 . S
N429 C427 1.379 . S
C430 N432 1.298 . S
C430 N434 1.367 . S
C430 C438 1.481 . S
C431 N433 1.299 . S
C431 N434 1.379 . S
N432 Zn416 2.036 . S
N432 C430 1.298 . S
N432 N433 1.398 . S
N433 C431 1.299 . S
N433 N432 1.398 . S
N434 C430 1.367 . S
N434 C431 1.379 . S
H435 C438 0.980 . S
H436 C438 0.981 . S
H437 C438 0.981 . S
C438 C430 1.481 . S
C438 H435 0.980 . S
C438 H436 0.981 . S
C438 H437 0.981 . S
C439 C426 1.481 1_545 S
C439 H440 0.980 . S
C439 H441 0.981 . S
C439 H442 0.981 . S
H440 C439 0.980 . S
H441 C439 0.981 . S
H442 C439 0.981 . S
O443 Zn419 2.066 . S
O443 C422 1.256 . S
O444 Zn416 2.053 . S
O444 C422 1.244 . S
C445 O423 1.259 . S
C445 O424 1.254 . S
O446 Zn416 2.066 . S
O446 C418 1.256 . S
O447 C418 1.244 . S
O447 Zn419 2.053 . S
Zn448 O449 2.055 . S
Zn448 O456 2.046 . S
Zn448 N464 2.036 . S
Zn448 O476 2.053 1_565 S
Zn448 O478 2.066 . S
O449 Zn448 2.055 . S
O449 C452 1.259 . S
C450 O478 1.256 . S
C450 O479 1.244 . S
Zn451 O453 2.046 . S
Zn451 O455 2.055 . S
Zn451 N457 2.036 . S
Zn451 O475 2.066 1_565 S
Zn451 O479 2.053 . S
C452 O449 1.259 . S
C452 O453 1.254 . S
O453 Zn451 2.046 . S
O453 C452 1.254 . S
C454 O475 1.256 . S
C454 O476 1.244 . S
O455 Zn451 2.055 . S
O455 C477 1.259 1_455 S
O456 Zn448 2.046 . S
O456 C477 1.254 1_455 S
N457 Zn451 2.036 . S
N457 C458 1.298 . S
N457 N460 1.398 . S
C458 N457 1.298 . S
C458 N461 1.367 . S
C458 C471 1.481 . S
C459 N460 1.299 . S
C459 N461 1.379 . S
N460 N457 1.398 . S
N460 C459 1.299 . S
N461 C458 1.367 . S
N461 C459 1.379 . S
C462 N464 1.298 . S
C462 N466 1.367 . S
C462 C470 1.481 . S
C463 N465 1.299 . S
C463 N466 1.379 1_545 S
N464 Zn448 2.036 . S
N464 C462 1.298 . S
N464 N465 1.398 1_565 S
N465 C463 1.299 . S
N465 N464 1.398 1_545 S
N466 C462 1.367 . S
N466 C463 1.379 1_565 S
H467 C470 0.980 . S
H468 C470 0.981 . S
H469 C470 0.981 . S
C470 C462 1.481 . S
C470 H467 0.980 . S
C470 H468 0.981 . S
C470 H469 0.981 . S
C471 C458 1.481 . S
C471 H472 0.980 . S
C471 H473 0.981 1_455 S
C471 H474 0.981 . S
H472 C471 0.980 . S
H473 C471 0.981 1_655 S
H474 C471 0.981 . S
O475 Zn451 2.066 1_545 S
O475 C454 1.256 . S
O476 Zn448 2.053 1_545 S
O476 C454 1.244 . S
C477 O455 1.259 1_655 S
C477 O456 1.254 1_655 S
O478 Zn448 2.066 . S
O478 C450 1.256 . S
O479 C450 1.244 . S
O479 Zn451 2.053 . S
Zn480 O481 2.055 . S
Zn480 O488 2.046 1_565 S
Zn480 N496 2.036 . S
Zn480 O508 2.053 . S
Zn480 O510 2.066 . S
O481 Zn480 2.055 . S
O481 C484 1.259 . S
C482 O510 1.256 . S
C482 O511 1.244 . S
Zn483 O485 2.046 . S
Zn483 O487 2.055 1_565 S
Zn483 N489 2.036 . S
Zn483 O507 2.066 . S
Zn483 O511 2.053 . S
C484 O481 1.259 . S
C484 O485 1.254 . S
O485 Zn483 2.046 . S
O485 C484 1.254 . S
C486 O507 1.256 . S
C486 O508 1.244 . S
O487 Zn483 2.055 1_545 S
O487 C509 1.259 . S
O488 Zn480 2.046 1_545 S
O488 C509 1.254 . S
N489 Zn483 2.036 . S
N489 C490 1.298 . S
N489 N492 1.398 . S
C490 N489 1.298 . S
C490 N493 1.367 . S
C490 C503 1.481 1_565 S
C491 N492 1.299 . S
C491 N493 1.379 . S
N492 N489 1.398 . S
N492 C491 1.299 . S
N493 C490 1.367 . S
N493 C491 1.379 . S
C494 N496 1.298 . S
C494 N498 1.367 . S
C494 C502 1.481 . S
C495 N497 1.299 . S
C495 N498 1.379 . S
N496 Zn480 2.036 . S
N496 C494 1.298 . S
N496 N497 1.398 . S
N497 C495 1.299 . S
N497 N496 1.398 . S
N498 C494 1.367 . S
N498 C495 1.379 . S
H499 C502 0.980 . S
H500 C502 0.981 . S
H501 C502 0.981 . S
C502 C494 1.481 . S
C502 H499 0.980 . S
C502 H500 0.981 . S
C502 H501 0.981 . S
C503 C490 1.481 1_545 S
C503 H504 0.980 . S
C503 H505 0.981 . S
C503 H506 0.981 1_545 S
H504 C503 0.980 . S
H505 C503 0.981 . S
H506 C503 0.981 1_565 S
O507 Zn483 2.066 . S
O507 C486 1.256 . S
O508 Zn480 2.053 . S
O508 C486 1.244 . S
C509 O487 1.259 . S
C509 O488 1.254 . S
O510 Zn480 2.066 . S
O510 C482 1.256 . S
O511 C482 1.244 . S
O511 Zn483 2.053 . S
Zn512 O513 2.055 . S
Zn512 O520 2.046 . S
Zn512 N528 2.036 . S
Zn512 O540 2.053 1_565 S
Zn512 O542 2.066 . S
O513 Zn512 2.055 . S
O513 C516 1.259 . S
C514 O542 1.256 . S
C514 O543 1.244 . S
Zn515 O517 2.046 . S
Zn515 O519 2.055 . S
Zn515 N521 2.036 . S
Zn515 O539 2.066 1_565 S
Zn515 O543 2.053 . S
C516 O513 1.259 . S
C516 O517 1.254 . S
O517 Zn515 2.046 . S
O517 C516 1.254 . S
C518 O539 1.256 . S
C518 O540 1.244 . S
O519 Zn515 2.055 . S
O519 C541 1.259 1_455 S
O520 Zn512 2.046 . S
O520 C541 1.254 1_455 S
N521 Zn515 2.036 . S
N521 C522 1.298 . S
N521 N524 1.398 . S
C522 N521 1.298 . S
C522 N525 1.367 . S
C522 C535 1.481 . S
C523 N524 1.299 . S
C523 N525 1.379 . S
N524 N521 1.398 . S
N524 C523 1.299 . S
N525 C522 1.367 . S
N525 C523 1.379 . S
C526 N528 1.298 . S
C526 N530 1.367 . S
C526 C534 1.481 . S
C527 N529 1.299 . S
C527 N530 1.379 . S
N528 Zn512 2.036 . S
N528 C526 1.298 . S
N528 N529 1.398 . S
N529 C527 1.299 . S
N529 N528 1.398 . S
N530 C526 1.367 . S
N530 C527 1.379 . S
H531 C534 0.980 . S
H532 C534 0.981 . S
H533 C534 0.981 . S
C534 C526 1.481 . S
C534 H531 0.980 . S
C534 H532 0.981 . S
C534 H533 0.981 . S
C535 C522 1.481 . S
C535 H536 0.980 . S
C535 H537 0.981 . S
C535 H538 0.981 1_565 S
H536 C535 0.980 . S
H537 C535 0.981 . S
H538 C535 0.981 1_545 S
O539 Zn515 2.066 1_545 S
O539 C518 1.256 . S
O540 Zn512 2.053 1_545 S
O540 C518 1.244 . S
C541 O519 1.259 1_655 S
C541 O520 1.254 1_655 S
O542 Zn512 2.066 . S
O542 C514 1.256 . S
O543 C514 1.244 . S
O543 Zn515 2.053 . S
Zn544 O545 2.055 . S
Zn544 O552 2.046 . S
Zn544 N560 2.036 . S
Zn544 O572 2.053 . S
Zn544 O574 2.066 . S
O545 Zn544 2.055 . S
O545 C548 1.259 . S
C546 O574 1.256 . S
C546 O575 1.244 . S
Zn547 O549 2.046 . S
Zn547 O551 2.055 . S
Zn547 N553 2.036 . S
Zn547 O571 2.066 . S
Zn547 O575 2.053 . S
C548 O545 1.259 . S
C548 O549 1.254 . S
O549 Zn547 2.046 . S
O549 C548 1.254 . S
C550 O571 1.256 1_655 S
C550 O572 1.244 1_655 S
O551 Zn547 2.055 . S
O551 C573 1.259 . S
O552 Zn544 2.046 . S
O552 C573 1.254 . S
N553 Zn547 2.036 . S
N553 C554 1.298 . S
N553 N556 1.398 . S
C554 N553 1.298 . S
C554 N557 1.367 . S
C554 C567 1.481 . S
C555 N556 1.299 . S
C555 N557 1.379 . S
N556 N553 1.398 . S
N556 C555 1.299 . S
N557 C554 1.367 . S
N557 C555 1.379 . S
C558 N560 1.298 . S
C558 N562 1.367 . S
C558 C566 1.481 . S
C559 N561 1.299 . S
C559 N562 1.379 . S
N560 Zn544 2.036 . S
N560 C558 1.298 . S
N560 N561 1.398 . S
N561 C559 1.299 . S
N561 N560 1.398 . S
N562 C558 1.367 . S
N562 C559 1.379 . S
H563 C566 0.980 . S
H564 C566 0.981 . S
H565 C566 0.981 . S
C566 C558 1.481 . S
C566 H563 0.980 . S
C566 H564 0.981 . S
C566 H565 0.981 . S
C567 C554 1.481 . S
C567 H568 0.980 . S
C567 H569 0.981 . S
C567 H570 0.981 . S
H568 C567 0.980 . S
H569 C567 0.981 . S
H570 C567 0.981 . S
O571 Zn547 2.066 . S
O571 C550 1.256 1_455 S
O572 Zn544 2.053 . S
O572 C550 1.244 1_455 S
C573 O551 1.259 . S
C573 O552 1.254 . S
O574 Zn544 2.066 . S
O574 C546 1.256 . S
O575 C546 1.244 . S
O575 Zn547 2.053 . S
Zn576 O577 2.055 . S
Zn576 O584 2.046 . S
Zn576 N592 2.036 . S
Zn576 O604 2.053 . S
Zn576 O606 2.066 . S
O577 Zn576 2.055 . S
O577 C580 1.259 1_455 S
C578 O606 1.256 . S
C578 O607 1.244 . S
Zn579 O581 2.046 . S
Zn579 O583 2.055 . S
Zn579 N585 2.036 . S
Zn579 O603 2.066 . S
Zn579 O607 2.053 . S
C580 O577 1.259 1_655 S
C580 O581 1.254 1_655 S
O581 Zn579 2.046 . S
O581 C580 1.254 1_455 S
C582 O603 1.256 . S
C582 O604 1.244 . S
O583 Zn579 2.055 . S
O583 C605 1.259 . S
O584 Zn576 2.046 . S
O584 C605 1.254 . S
N585 Zn579 2.036 . S
N585 C586 1.298 . S
N585 N588 1.398 . S
C586 N585 1.298 . S
C586 N589 1.367 . S
C586 C599 1.481 . S
C587 N588 1.299 . S
C587 N589 1.379 . S
N588 N585 1.398 . S
N588 C587 1.299 . S
N589 C586 1.367 . S
N589 C587 1.379 . S
C590 N592 1.298 . S
C590 N594 1.367 . S
C590 C598 1.481 . S
C591 N593 1.299 . S
C591 N594 1.379 . S
N592 Zn576 2.036 . S
N592 C590 1.298 . S
N592 N593 1.398 . S
N593 C591 1.299 . S
N593 N592 1.398 . S
N594 C590 1.367 . S
N594 C591 1.379 . S
H595 C598 0.980 . S
H596 C598 0.981 . S
H597 C598 0.981 . S
C598 C590 1.481 . S
C598 H595 0.980 . S
C598 H596 0.981 . S
C598 H597 0.981 . S
C599 C586 1.481 . S
C599 H600 0.980 . S
C599 H601 0.981 . S
C599 H602 0.981 . S
H600 C599 0.980 . S
H601 C599 0.981 . S
H602 C599 0.981 . S
O603 Zn579 2.066 . S
O603 C582 1.256 . S
O604 Zn576 2.053 . S
O604 C582 1.244 . S
C605 O583 1.259 . S
C605 O584 1.254 . S
O606 Zn576 2.066 . S
O606 C578 1.256 . S
O607 C578 1.244 . S
O607 Zn579 2.053 . S
Zn608 O609 2.055 . S
Zn608 O616 2.046 . S
Zn608 N624 2.036 . S
Zn608 O636 2.053 . S
Zn608 O638 2.066 1_565 S
O609 Zn608 2.055 . S
O609 C612 1.259 . S
C610 O638 1.256 . S
C610 O639 1.244 . S
Zn611 O613 2.046 . S
Zn611 O615 2.055 . S
Zn611 N617 2.036 . S
Zn611 O635 2.066 . S
Zn611 O639 2.053 1_565 S
C612 O609 1.259 . S
C612 O613 1.254 . S
O613 Zn611 2.046 . S
O613 C612 1.254 . S
C614 O635 1.256 . S
C614 O636 1.244 . S
O615 Zn611 2.055 . S
O615 C637 1.259 . S
O616 Zn608 2.046 . S
O616 C637 1.254 . S
N617 Zn611 2.036 . S
N617 C618 1.298 . S
N617 N620 1.398 . S
C618 N617 1.298 . S
C618 N621 1.367 . S
C618 C631 1.481 . S
C619 N620 1.299 . S
C619 N621 1.379 . S
N620 N617 1.398 . S
N620 C619 1.299 . S
N621 C618 1.367 . S
N621 C619 1.379 . S
C622 N624 1.298 . S
C622 N626 1.367 . S
C622 C630 1.481 . S
C623 N625 1.299 . S
C623 N626 1.379 . S
N624 Zn608 2.036 . S
N624 C622 1.298 . S
N624 N625 1.398 . S
N625 C623 1.299 . S
N625 N624 1.398 . S
N626 C622 1.367 . S
N626 C623 1.379 . S
H627 C630 0.980 . S
H628 C630 0.981 . S
H629 C630 0.981 1_545 S
C630 C622 1.481 . S
C630 H627 0.980 . S
C630 H628 0.981 . S
C630 H629 0.981 1_565 S
C631 C618 1.481 . S
C631 H632 0.980 . S
C631 H633 0.981 . S
C631 H634 0.981 . S
H632 C631 0.980 . S
H633 C631 0.981 . S
H634 C631 0.981 . S
O635 Zn611 2.066 . S
O635 C614 1.256 . S
O636 Zn608 2.053 . S
O636 C614 1.244 . S
C637 O615 1.259 . S
C637 O616 1.254 . S
O638 Zn608 2.066 1_545 S
O638 C610 1.256 . S
O639 C610 1.244 . S
O639 Zn611 2.053 1_545 S
Zn640 O641 2.055 . S
Zn640 O648 2.046 1_565 S
Zn640 N656 2.036 . S
Zn640 O668 2.053 . S
Zn640 O670 2.066 . S
O641 Zn640 2.055 . S
O641 C644 1.259 . S
C642 O670 1.256 . S
C642 O671 1.244 . S
Zn643 O645 2.046 . S
Zn643 O647 2.055 1_565 S
Zn643 N649 2.036 . S
Zn643 O667 2.066 . S
Zn643 O671 2.053 . S
C644 O641 1.259 . S
C644 O645 1.254 . S
O645 Zn643 2.046 . S
O645 C644 1.254 . S
C646 O667 1.256 1_655 S
C646 O668 1.244 1_655 S
O647 Zn643 2.055 1_545 S
O647 C669 1.259 . S
O648 Zn640 2.046 1_545 S
O648 C669 1.254 . S
N649 Zn643 2.036 . S
N649 C650 1.298 . S
N649 N652 1.398 . S
C650 N649 1.298 . S
C650 N653 1.367 . S
C650 C663 1.481 1_565 S
C651 N652 1.299 . S
C651 N653 1.379 . S
N652 N649 1.398 . S
N652 C651 1.299 . S
N653 C650 1.367 . S
N653 C651 1.379 . S
C654 N656 1.298 . S
C654 N658 1.367 . S
C654 C662 1.481 . S
C655 N657 1.299 . S
C655 N658 1.379 . S
N656 Zn640 2.036 . S
N656 C654 1.298 . S
N656 N657 1.398 . S
N657 C655 1.299 . S
N657 N656 1.398 . S
N658 C654 1.367 . S
N658 C655 1.379 . S
H659 C662 0.980 . S
H660 C662 0.981 . S
H661 C662 0.981 . S
C662 C654 1.481 . S
C662 H659 0.980 . S
C662 H660 0.981 . S
C662 H661 0.981 . S
C663 C650 1.481 1_545 S
C663 H664 0.980 . S
C663 H665 0.981 . S
C663 H666 0.981 1_545 S
H664 C663 0.980 . S
H665 C663 0.981 . S
H666 C663 0.981 1_565 S
O667 Zn643 2.066 . S
O667 C646 1.256 1_455 S
O668 Zn640 2.053 . S
O668 C646 1.244 1_455 S
C669 O647 1.259 . S
C669 O648 1.254 . S
O670 Zn640 2.066 . S
O670 C642 1.256 . S
O671 C642 1.244 . S
O671 Zn643 2.053 . S
Zn672 O673 2.055 . S
Zn672 O680 2.046 . S
Zn672 N688 2.036 . S
Zn672 O700 2.053 . S
Zn672 O702 2.066 1_565 S
O673 Zn672 2.055 . S
O673 C676 1.259 . S
C674 O702 1.256 . S
C674 O703 1.244 . S
Zn675 O677 2.046 . S
Zn675 O679 2.055 . S
Zn675 N681 2.036 . S
Zn675 O699 2.066 . S
Zn675 O703 2.053 1_565 S
C676 O673 1.259 . S
C676 O677 1.254 . S
O677 Zn675 2.046 . S
O677 C676 1.254 . S
C678 O699 1.256 . S
C678 O700 1.244 . S
O679 Zn675 2.055 . S
O679 C701 1.259 . S
O680 Zn672 2.046 . S
O680 C701 1.254 . S
N681 Zn675 2.036 . S
N681 C682 1.298 . S
N681 N684 1.398 1_565 S
C682 N681 1.298 . S
C682 N685 1.367 . S
C682 C695 1.481 . S
C683 N684 1.299 . S
C683 N685 1.379 1_545 S
N684 N681 1.398 1_545 S
N684 C683 1.299 . S
N685 C682 1.367 . S
N685 C683 1.379 1_565 S
C686 N688 1.298 . S
C686 N690 1.367 . S
C686 C694 1.481 . S
C687 N689 1.299 . S
C687 N690 1.379 . S
N688 Zn672 2.036 . S
N688 C686 1.298 . S
N688 N689 1.398 . S
N689 C687 1.299 . S
N689 N688 1.398 . S
N690 C686 1.367 . S
N690 C687 1.379 . S
H691 C694 0.980 . S
H692 C694 0.981 . S
H693 C694 0.981 . S
C694 C686 1.481 . S
C694 H691 0.980 . S
C694 H692 0.981 . S
C694 H693 0.981 . S
C695 C682 1.481 . S
C695 H696 0.980 . S
C695 H697 0.981 . S
C695 H698 0.981 . S
H696 C695 0.980 . S
H697 C695 0.981 . S
H698 C695 0.981 . S
O699 Zn675 2.066 . S
O699 C678 1.256 . S
O700 Zn672 2.053 . S
O700 C678 1.244 . S
C701 O679 1.259 . S
C701 O680 1.254 . S
O702 Zn672 2.066 1_545 S
O702 C674 1.256 . S
O703 C674 1.244 . S
O703 Zn675 2.053 1_545 S
Zn704 O705 2.055 1_565 S
Zn704 O712 2.046 . S
Zn704 N720 2.036 . S
Zn704 O732 2.053 . S
Zn704 O734 2.066 . S
O705 Zn704 2.055 1_545 S
O705 C708 1.259 . S
C706 O734 1.256 . S
C706 O735 1.244 . S
Zn707 O709 2.046 1_565 S
Zn707 O711 2.055 . S
Zn707 N713 2.036 . S
Zn707 O731 2.066 . S
Zn707 O735 2.053 . S
C708 O705 1.259 . S
C708 O709 1.254 . S
O709 Zn707 2.046 1_545 S
O709 C708 1.254 . S
C710 O731 1.256 . S
C710 O732 1.244 . S
O711 Zn707 2.055 . S
O711 C733 1.259 . S
O712 Zn704 2.046 . S
O712 C733 1.254 . S
N713 Zn707 2.036 . S
N713 C714 1.298 . S
N713 N716 1.398 . S
C714 N713 1.298 . S
C714 N717 1.367 . S
C714 C727 1.481 . S
C715 N716 1.299 . S
C715 N717 1.379 . S
N716 N713 1.398 . S
N716 C715 1.299 . S
N717 C714 1.367 . S
N717 C715 1.379 . S
C718 N720 1.298 . S
C718 N722 1.367 . S
C718 C726 1.481 1_565 S
C719 N721 1.299 . S
C719 N722 1.379 . S
N720 Zn704 2.036 . S
N720 C718 1.298 . S
N720 N721 1.398 . S
N721 C719 1.299 . S
N721 N720 1.398 . S
N722 C718 1.367 . S
N722 C719 1.379 . S
H723 C726 0.980 . S
H724 C726 0.981 . S
H725 C726 0.981 . S
C726 C718 1.481 1_545 S
C726 H723 0.980 . S
C726 H724 0.981 . S
C726 H725 0.981 . S
C727 C714 1.481 . S
C727 H728 0.980 . S
C727 H729 0.981 . S
C727 H730 0.981 . S
H728 C727 0.980 . S
H729 C727 0.981 . S
H730 C727 0.981 . S
O731 Zn707 2.066 . S
O731 C710 1.256 . S
O732 Zn704 2.053 . S
O732 C710 1.244 . S
C733 O711 1.259 . S
C733 O712 1.254 . S
O734 Zn704 2.066 . S
O734 C706 1.256 . S
O735 C706 1.244 . S
O735 Zn707 2.053 . S
Zn736 O737 2.055 . S
Zn736 O744 2.046 . S
Zn736 N752 2.036 . S
Zn736 O764 2.053 . S
Zn736 O766 2.066 . S
O737 Zn736 2.055 . S
O737 C740 1.259 1_455 S
C738 O766 1.256 . S
C738 O767 1.244 . S
Zn739 O741 2.046 . S
Zn739 O743 2.055 . S
Zn739 N745 2.036 . S
Zn739 O763 2.066 . S
Zn739 O767 2.053 . S
C740 O737 1.259 1_655 S
C740 O741 1.254 1_655 S
O741 Zn739 2.046 . S
O741 C740 1.254 1_455 S
C742 O763 1.256 . S
C742 O764 1.244 . S
O743 Zn739 2.055 . S
O743 C765 1.259 . S
O744 Zn736 2.046 . S
O744 C765 1.254 . S
N745 Zn739 2.036 . S
N745 C746 1.298 . S
N745 N748 1.398 . S
C746 N745 1.298 . S
C746 N749 1.367 . S
C746 C759 1.481 . S
C747 N748 1.299 . S
C747 N749 1.379 . S
N748 N745 1.398 . S
N748 C747 1.299 . S
N749 C746 1.367 . S
N749 C747 1.379 . S
C750 N752 1.298 . S
C750 N754 1.367 . S
C750 C758 1.481 . S
C751 N753 1.299 . S
C751 N754 1.379 . S
N752 Zn736 2.036 . S
N752 C750 1.298 . S
N752 N753 1.398 . S
N753 C751 1.299 . S
N753 N752 1.398 . S
N754 C750 1.367 . S
N754 C751 1.379 . S
H755 C758 0.980 . S
H756 C758 0.981 1_655 S
H757 C758 0.981 . S
C758 C750 1.481 . S
C758 H755 0.980 . S
C758 H756 0.981 1_455 S
C758 H757 0.981 . S
C759 C746 1.481 . S
C759 H760 0.980 . S
C759 H761 0.981 . S
C759 H762 0.981 . S
H760 C759 0.980 . S
H761 C759 0.981 . S
H762 C759 0.981 . S
O763 Zn739 2.066 . S
O763 C742 1.256 . S
O764 Zn736 2.053 . S
O764 C742 1.244 . S
C765 O743 1.259 . S
C765 O744 1.254 . S
O766 Zn736 2.066 . S
O766 C738 1.256 . S
O767 C738 1.244 . S
O767 Zn739 2.053 . S
Zn768 O769 2.055 . S
Zn768 O776 2.046 1_655 S
Zn768 N784 2.036 . S
Zn768 O796 2.053 . S
Zn768 O798 2.066 . S
O769 Zn768 2.055 . S
O769 C772 1.259 . S
C770 O798 1.256 . S
C770 O799 1.244 . S
Zn771 O773 2.046 . S
Zn771 O775 2.055 1_655 S
Zn771 N777 2.036 . S
Zn771 O795 2.066 . S
Zn771 O799 2.053 . S
C772 O769 1.259 . S
C772 O773 1.254 . S
O773 Zn771 2.046 . S
O773 C772 1.254 . S
C774 O795 1.256 . S
C774 O796 1.244 . S
O775 Zn771 2.055 1_455 S
O775 C797 1.259 . S
O776 Zn768 2.046 1_455 S
O776 C797 1.254 . S
N777 Zn771 2.036 . S
N777 C778 1.298 . S
N777 N780 1.398 . S
C778 N777 1.298 . S
C778 N781 1.367 . S
C778 C791 1.481 1_655 S
C779 N780 1.299 . S
C779 N781 1.379 . S
N780 N777 1.398 . S
N780 C779 1.299 . S
N781 C778 1.367 . S
N781 C779 1.379 . S
C782 N784 1.298 . S
C782 N786 1.367 . S
C782 C790 1.481 . S
C783 N785 1.299 . S
C783 N786 1.379 . S
N784 Zn768 2.036 . S
N784 C782 1.298 . S
N784 N785 1.398 . S
N785 C783 1.299 . S
N785 N784 1.398 . S
N786 C782 1.367 . S
N786 C783 1.379 . S
H787 C790 0.980 . S
H788 C790 0.981 . S
H789 C790 0.981 . S
C790 C782 1.481 . S
C790 H787 0.980 . S
C790 H788 0.981 . S
C790 H789 0.981 . S
C791 C778 1.481 1_455 S
C791 H792 0.980 . S
C791 H793 0.981 . S
C791 H794 0.981 1_455 S
H792 C791 0.980 . S
H793 C791 0.981 . S
H794 C791 0.981 1_655 S
O795 Zn771 2.066 . S
O795 C774 1.256 . S
O796 Zn768 2.053 . S
O796 C774 1.244 . S
C797 O775 1.259 . S
C797 O776 1.254 . S
O798 Zn768 2.066 . S
O798 C770 1.256 . S
O799 C770 1.244 . S
O799 Zn771 2.053 . S
Zn800 O801 2.055 . S
Zn800 O808 2.046 . S
Zn800 N816 2.036 . S
Zn800 O828 2.053 . S
Zn800 O830 2.066 . S
O801 Zn800 2.055 . S
O801 C804 1.259 . S
C802 O830 1.256 . S
C802 O831 1.244 . S
Zn803 O805 2.046 . S
Zn803 O807 2.055 . S
Zn803 N809 2.036 . S
Zn803 O827 2.066 . S
Zn803 O831 2.053 . S
C804 O801 1.259 . S
C804 O805 1.254 . S
O805 Zn803 2.046 . S
O805 C804 1.254 . S
C806 O827 1.256 1_565 S
C806 O828 1.244 1_565 S
O807 Zn803 2.055 . S
O807 C829 1.259 . S
O808 Zn800 2.046 . S
O808 C829 1.254 . S
N809 Zn803 2.036 . S
N809 C810 1.298 . S
N809 N812 1.398 . S
C810 N809 1.298 . S
C810 N813 1.367 . S
C810 C823 1.481 . S
C811 N812 1.299 . S
C811 N813 1.379 . S
N812 N809 1.398 . S
N812 C811 1.299 . S
N813 C810 1.367 . S
N813 C811 1.379 . S
C814 N816 1.298 . S
C814 N818 1.367 . S
C814 C822 1.481 . S
C815 N817 1.299 . S
C815 N818 1.379 . S
N816 Zn800 2.036 . S
N816 C814 1.298 . S
N816 N817 1.398 . S
N817 C815 1.299 . S
N817 N816 1.398 . S
N818 C814 1.367 . S
N818 C815 1.379 . S
H819 C822 0.980 . S
H820 C822 0.981 . S
H821 C822 0.981 . S
C822 C814 1.481 . S
C822 H819 0.980 . S
C822 H820 0.981 . S
C822 H821 0.981 . S
C823 C810 1.481 . S
C823 H824 0.980 . S
C823 H825 0.981 . S
C823 H826 0.981 . S
H824 C823 0.980 . S
H825 C823 0.981 . S
H826 C823 0.981 . S
O827 Zn803 2.066 . S
O827 C806 1.256 1_545 S
O828 Zn800 2.053 . S
O828 C806 1.244 1_545 S
C829 O807 1.259 . S
C829 O808 1.254 . S
O830 Zn800 2.066 . S
O830 C802 1.256 . S
O831 C802 1.244 . S
O831 Zn803 2.053 . S
Zn832 O833 2.055 . S
Zn832 O840 2.046 . S
Zn832 N848 2.036 . S
Zn832 O860 2.053 . S
Zn832 O862 2.066 1_655 S
O833 Zn832 2.055 . S
O833 C836 1.259 1_545 S
C834 O862 1.256 . S
C834 O863 1.244 . S
Zn835 O837 2.046 . S
Zn835 O839 2.055 . S
Zn835 N841 2.036 . S
Zn835 O859 2.066 . S
Zn835 O863 2.053 1_655 S
C836 O833 1.259 1_565 S
C836 O837 1.254 1_565 S
O837 Zn835 2.046 . S
O837 C836 1.254 1_545 S
C838 O859 1.256 . S
C838 O860 1.244 . S
O839 Zn835 2.055 . S
O839 C861 1.259 . S
O840 Zn832 2.046 . S
O840 C861 1.254 . S
N841 Zn835 2.036 . S
N841 C842 1.298 . S
N841 N844 1.398 . S
C842 N841 1.298 . S
C842 N845 1.367 . S
C842 C855 1.481 . S
C843 N844 1.299 . S
C843 N845 1.379 . S
N844 N841 1.398 . S
N844 C843 1.299 . S
N845 C842 1.367 . S
N845 C843 1.379 . S
C846 N848 1.298 . S
C846 N850 1.367 . S
C846 C854 1.481 . S
C847 N849 1.299 . S
C847 N850 1.379 . S
N848 Zn832 2.036 . S
N848 C846 1.298 . S
N848 N849 1.398 . S
N849 C847 1.299 . S
N849 N848 1.398 . S
N850 C846 1.367 . S
N850 C847 1.379 . S
H851 C854 0.980 . S
H852 C854 0.981 . S
H853 C854 0.981 1_455 S
C854 C846 1.481 . S
C854 H851 0.980 . S
C854 H852 0.981 . S
C854 H853 0.981 1_655 S
C855 C842 1.481 . S
C855 H856 0.980 . S
C855 H857 0.981 . S
C855 H858 0.981 . S
H856 C855 0.980 . S
H857 C855 0.981 . S
H858 C855 0.981 . S
O859 Zn835 2.066 . S
O859 C838 1.256 . S
O860 Zn832 2.053 . S
O860 C838 1.244 . S
C861 O839 1.259 . S
C861 O840 1.254 . S
O862 Zn832 2.066 1_455 S
O862 C834 1.256 . S
O863 C834 1.244 . S
O863 Zn835 2.053 1_455 S
Zn864 O865 2.055 . S
Zn864 O872 2.046 . S
Zn864 N880 2.036 . S
Zn864 O892 2.053 . S
Zn864 O894 2.066 . S
O865 Zn864 2.055 . S
O865 C868 1.259 . S
C866 O894 1.256 . S
C866 O895 1.244 . S
Zn867 O869 2.046 . S
Zn867 O871 2.055 . S
Zn867 N873 2.036 . S
Zn867 O891 2.066 . S
Zn867 O895 2.053 . S
C868 O865 1.259 . S
C868 O869 1.254 . S
O869 Zn867 2.046 . S
O869 C868 1.254 . S
C870 O891 1.256 . S
C870 O892 1.244 . S
O871 Zn867 2.055 . S
O871 C893 1.259 . S
O872 Zn864 2.046 . S
O872 C893 1.254 . S
N873 Zn867 2.036 . S
N873 C874 1.298 . S
N873 N876 1.398 . S
C874 N873 1.298 . S
C874 N877 1.367 . S
C874 C887 1.481 . S
C875 N876 1.299 . S
C875 N877 1.379 . S
N876 N873 1.398 . S
N876 C875 1.299 . S
N877 C874 1.367 . S
N877 C875 1.379 . S
C878 N880 1.298 . S
C878 N882 1.367 . S
C878 C886 1.481 . S
C879 N881 1.299 . S
C879 N882 1.379 . S
N880 Zn864 2.036 . S
N880 C878 1.298 . S
N880 N881 1.398 . S
N881 C879 1.299 . S
N881 N880 1.398 . S
N882 C878 1.367 . S
N882 C879 1.379 . S
H883 C886 0.980 . S
H884 C886 0.981 . S
H885 C886 0.981 . S
C886 C878 1.481 . S
C886 H883 0.980 . S
C886 H884 0.981 . S
C886 H885 0.981 . S
C887 C874 1.481 . S
C887 H888 0.980 . S
C887 H889 0.981 . S
C887 H890 0.981 . S
H888 C887 0.980 . S
H889 C887 0.981 . S
H890 C887 0.981 . S
O891 Zn867 2.066 . S
O891 C870 1.256 . S
O892 Zn864 2.053 . S
O892 C870 1.244 . S
C893 O871 1.259 . S
C893 O872 1.254 . S
O894 Zn864 2.066 . S
O894 C866 1.256 . S
O895 C866 1.244 . S
O895 Zn867 2.053 . S
Zn896 O897 2.055 . S
Zn896 O904 2.046 . S
Zn896 N912 2.036 . S
Zn896 O924 2.053 . S
Zn896 O926 2.066 1_655 S
O897 Zn896 2.055 . S
O897 C900 1.259 1_545 S
C898 O926 1.256 . S
C898 O927 1.244 . S
Zn899 O901 2.046 . S
Zn899 O903 2.055 . S
Zn899 N905 2.036 . S
Zn899 O923 2.066 . S
Zn899 O927 2.053 1_655 S
C900 O897 1.259 1_565 S
C900 O901 1.254 1_565 S
O901 Zn899 2.046 . S
O901 C900 1.254 1_545 S
C902 O923 1.256 . S
C902 O924 1.244 . S
O903 Zn899 2.055 . S
O903 C925 1.259 . S
O904 Zn896 2.046 . S
O904 C925 1.254 . S
N905 Zn899 2.036 . S
N905 C906 1.298 . S
N905 N908 1.398 1_655 S
C906 N905 1.298 . S
C906 N909 1.367 . S
C906 C919 1.481 . S
C907 N908 1.299 . S
C907 N909 1.379 1_455 S
N908 N905 1.398 1_455 S
N908 C907 1.299 . S
N909 C906 1.367 . S
N909 C907 1.379 1_655 S
C910 N912 1.298 . S
C910 N914 1.367 . S
C910 C918 1.481 . S
C911 N913 1.299 . S
C911 N914 1.379 . S
N912 Zn896 2.036 . S
N912 C910 1.298 . S
N912 N913 1.398 . S
N913 C911 1.299 . S
N913 N912 1.398 . S
N914 C910 1.367 . S
N914 C911 1.379 . S
H915 C918 0.980 . S
H916 C918 0.981 1_565 S
H917 C918 0.981 . S
C918 C910 1.481 . S
C918 H915 0.980 . S
C918 H916 0.981 1_545 S
C918 H917 0.981 . S
C919 C906 1.481 . S
C919 H920 0.980 . S
C919 H921 0.981 . S
C919 H922 0.981 . S
H920 C919 0.980 . S
H921 C919 0.981 . S
H922 C919 0.981 . S
O923 Zn899 2.066 . S
O923 C902 1.256 . S
O924 Zn896 2.053 . S
O924 C902 1.244 . S
C925 O903 1.259 . S
C925 O904 1.254 . S
O926 Zn896 2.066 1_455 S
O926 C898 1.256 . S
O927 C898 1.244 . S
O927 Zn899 2.053 1_455 S
Zn928 O929 2.055 . S
Zn928 O936 2.046 1_655 S
Zn928 N944 2.036 . S
Zn928 O956 2.053 . S
Zn928 O958 2.066 . S
O929 Zn928 2.055 . S
O929 C932 1.259 . S
C930 O958 1.256 . S
C930 O959 1.244 . S
Zn931 O933 2.046 . S
Zn931 O935 2.055 1_655 S
Zn931 N937 2.036 . S
Zn931 O955 2.066 . S
Zn931 O959 2.053 . S
C932 O929 1.259 . S
C932 O933 1.254 . S
O933 Zn931 2.046 . S
O933 C932 1.254 . S
C934 O955 1.256 . S
C934 O956 1.244 . S
O935 Zn931 2.055 1_455 S
O935 C957 1.259 . S
O936 Zn928 2.046 1_455 S
O936 C957 1.254 . S
N937 Zn931 2.036 . S
N937 C938 1.298 . S
N937 N940 1.398 . S
C938 N937 1.298 . S
C938 N941 1.367 . S
C938 C951 1.481 1_655 S
C939 N940 1.299 . S
C939 N941 1.379 . S
N940 N937 1.398 . S
N940 C939 1.299 . S
N941 C938 1.367 . S
N941 C939 1.379 . S
C942 N944 1.298 . S
C942 N946 1.367 . S
C942 C950 1.481 . S
C943 N945 1.299 . S
C943 N946 1.379 . S
N944 Zn928 2.036 . S
N944 C942 1.298 . S
N944 N945 1.398 . S
N945 C943 1.299 . S
N945 N944 1.398 . S
N946 C942 1.367 . S
N946 C943 1.379 . S
H947 C950 0.980 . S
H948 C950 0.981 . S
H949 C950 0.981 . S
C950 C942 1.481 . S
C950 H947 0.980 . S
C950 H948 0.981 . S
C950 H949 0.981 . S
C951 C938 1.481 1_455 S
C951 H952 0.980 . S
C951 H953 0.981 . S
C951 H954 0.981 . S
H952 C951 0.980 . S
H953 C951 0.981 . S
H954 C951 0.981 . S
O955 Zn931 2.066 . S
O955 C934 1.256 . S
O956 Zn928 2.053 . S
O956 C934 1.244 . S
C957 O935 1.259 . S
C957 O936 1.254 . S
O958 Zn928 2.066 . S
O958 C930 1.256 . S
O959 C930 1.244 . S
O959 Zn931 2.053 . S
Zn960 O961 2.055 . S
Zn960 O968 2.046 . S
Zn960 N976 2.036 . S
Zn960 O988 2.053 1_655 S
Zn960 O990 2.066 . S
O961 Zn960 2.055 . S
O961 C964 1.259 . S
C962 O990 1.256 . S
C962 O991 1.244 . S
Zn963 O965 2.046 . S
Zn963 O967 2.055 . S
Zn963 N969 2.036 . S
Zn963 O987 2.066 1_655 S
Zn963 O991 2.053 . S
C964 O961 1.259 . S
C964 O965 1.254 . S
O965 Zn963 2.046 . S
O965 C964 1.254 . S
C966 O987 1.256 . S
C966 O988 1.244 . S
O967 Zn963 2.055 . S
O967 C989 1.259 . S
O968 Zn960 2.046 . S
O968 C989 1.254 . S
N969 Zn963 2.036 . S
N969 C970 1.298 . S
N969 N972 1.398 . S
C970 N969 1.298 . S
C970 N973 1.367 . S
C970 C983 1.481 . S
C971 N972 1.299 . S
C971 N973 1.379 . S
N972 N969 1.398 . S
N972 C971 1.299 . S
N973 C970 1.367 . S
N973 C971 1.379 . S
C974 N976 1.298 . S
C974 N978 1.367 . S
C974 C982 1.481 . S
C975 N977 1.299 . S
C975 N978 1.379 1_455 S
N976 Zn960 2.036 . S
N976 C974 1.298 . S
N976 N977 1.398 1_655 S
N977 C975 1.299 . S
N977 N976 1.398 1_455 S
N978 C974 1.367 . S
N978 C975 1.379 1_655 S
H979 C982 0.980 . S
H980 C982 0.981 . S
H981 C982 0.981 . S
C982 C974 1.481 . S
C982 H979 0.980 . S
C982 H980 0.981 . S
C982 H981 0.981 . S
C983 C970 1.481 . S
C983 H984 0.980 . S
C983 H985 0.981 . S
C983 H986 0.981 . S
H984 C983 0.980 . S
H985 C983 0.981 . S
H986 C983 0.981 . S
O987 Zn963 2.066 1_455 S
O987 C966 1.256 . S
O988 Zn960 2.053 1_455 S
O988 C966 1.244 . S
C989 O967 1.259 . S
C989 O968 1.254 . S
O990 Zn960 2.066 . S
O990 C962 1.256 . S
O991 C962 1.244 . S
O991 Zn963 2.053 . S
Zn992 O993 2.055 . S
Zn992 O1000 2.046 . S
Zn992 N1008 2.036 . S
Zn992 O1020 2.053 . S
Zn992 O1022 2.066 . S
O993 Zn992 2.055 . S
O993 C996 1.259 1_545 S
C994 O1022 1.256 . S
C994 O1023 1.244 . S
Zn995 O997 2.046 . S
Zn995 O999 2.055 . S
Zn995 N1001 2.036 . S
Zn995 O1019 2.066 . S
Zn995 O1023 2.053 . S
C996 O993 1.259 1_565 S
C996 O997 1.254 1_565 S
O997 Zn995 2.046 . S
O997 C996 1.254 1_545 S
C998 O1019 1.256 . S
C998 O1020 1.244 . S
O999 Zn995 2.055 . S
O999 C1021 1.259 . S
O1000 Zn992 2.046 . S
O1000 C1021 1.254 . S
N1001 Zn995 2.036 . S
N1001 C1002 1.298 . S
N1001 N1004 1.398 . S
C1002 N1001 1.298 . S
C1002 N1005 1.367 . S
C1002 C1015 1.481 . S
C1003 N1004 1.299 . S
C1003 N1005 1.379 . S
N1004 N1001 1.398 . S
N1004 C1003 1.299 . S
N1005 C1002 1.367 . S
N1005 C1003 1.379 . S
C1006 N1008 1.298 . S
C1006 N1010 1.367 . S
C1006 C1014 1.481 . S
C1007 N1009 1.299 . S
C1007 N1010 1.379 . S
N1008 Zn992 2.036 . S
N1008 C1006 1.298 . S
N1008 N1009 1.398 . S
N1009 C1007 1.299 . S
N1009 N1008 1.398 . S
N1010 C1006 1.367 . S
N1010 C1007 1.379 . S
H1011 C1014 0.980 . S
H1012 C1014 0.981 1_565 S
H1013 C1014 0.981 . S
C1014 C1006 1.481 . S
C1014 H1011 0.980 . S
C1014 H1012 0.981 1_545 S
C1014 H1013 0.981 . S
C1015 C1002 1.481 . S
C1015 H1016 0.980 . S
C1015 H1017 0.981 . S
C1015 H1018 0.981 . S
H1016 C1015 0.980 . S
H1017 C1015 0.981 . S
H1018 C1015 0.981 . S
O1019 Zn995 2.066 . S
O1019 C998 1.256 . S
O1020 Zn992 2.053 . S
O1020 C998 1.244 . S
C1021 O999 1.259 . S
C1021 O1000 1.254 . S
O1022 Zn992 2.066 . S
O1022 C994 1.256 . S
O1023 C994 1.244 . S
O1023 Zn995 2.053 . S
Zn1024 O1025 2.055 1_655 S
Zn1024 O1032 2.046 . S
Zn1024 N1040 2.036 . S
Zn1024 O1052 2.053 . S
Zn1024 O1054 2.066 . S
O1025 Zn1024 2.055 1_455 S
O1025 C1028 1.259 . S
C1026 O1054 1.256 . S
C1026 O1055 1.244 . S
Zn1027 O1029 2.046 1_655 S
Zn1027 O1031 2.055 . S
Zn1027 N1033 2.036 . S
Zn1027 O1051 2.066 . S
Zn1027 O1055 2.053 . S
C1028 O1025 1.259 . S
C1028 O1029 1.254 . S
O1029 Zn1027 2.046 1_455 S
O1029 C1028 1.254 . S
C1030 O1051 1.256 . S
C1030 O1052 1.244 . S
O1031 Zn1027 2.055 . S
O1031 C1053 1.259 . S
O1032 Zn1024 2.046 . S
O1032 C1053 1.254 . S
N1033 Zn1027 2.036 . S
N1033 C1034 1.298 . S
N1033 N1036 1.398 . S
C1034 N1033 1.298 . S
C1034 N1037 1.367 . S
C1034 C1047 1.481 . S
C1035 N1036 1.299 . S
C1035 N1037 1.379 . S
N1036 N1033 1.398 . S
N1036 C1035 1.299 . S
N1037 C1034 1.367 . S
N1037 C1035 1.379 . S
C1038 N1040 1.298 . S
C1038 N1042 1.367 . S
C1038 C1046 1.481 1_655 S
C1039 N1041 1.299 . S
C1039 N1042 1.379 . S
N1040 Zn1024 2.036 . S
N1040 C1038 1.298 . S
N1040 N1041 1.398 . S
N1041 C1039 1.299 . S
N1041 N1040 1.398 . S
N1042 C1038 1.367 . S
N1042 C1039 1.379 . S
H1043 C1046 0.980 . S
H1044 C1046 0.981 . S
H1045 C1046 0.981 . S
C1046 C1038 1.481 1_455 S
C1046 H1043 0.980 . S
C1046 H1044 0.981 . S
C1046 H1045 0.981 . S
C1047 C1034 1.481 . S
C1047 H1048 0.980 . S
C1047 H1049 0.981 . S
C1047 H1050 0.981 . S
H1048 C1047 0.980 . S
H1049 C1047 0.981 . S
H1050 C1047 0.981 . S
O1051 Zn1027 2.066 . S
O1051 C1030 1.256 . S
O1052 Zn1024 2.053 . S
O1052 C1030 1.244 . S
C1053 O1031 1.259 . S
C1053 O1032 1.254 . S
O1054 Zn1024 2.066 . S
O1054 C1026 1.256 . S
O1055 C1026 1.244 . S
O1055 Zn1027 2.053 . S
Zn1056 O1057 2.055 . S
Zn1056 O1064 2.046 . S
Zn1056 N1072 2.036 . S
Zn1056 O1084 2.053 . S
Zn1056 O1086 2.066 . S
O1057 Zn1056 2.055 . S
O1057 C1060 1.259 1_545 S
C1058 O1086 1.256 . S
C1058 O1087 1.244 . S
Zn1059 O1061 2.046 . S
Zn1059 O1063 2.055 . S
Zn1059 N1065 2.036 . S
Zn1059 O1083 2.066 . S
Zn1059 O1087 2.053 . S
C1060 O1057 1.259 1_565 S
C1060 O1061 1.254 1_565 S
O1061 Zn1059 2.046 . S
O1061 C1060 1.254 1_545 S
C1062 O1083 1.256 . S
C1062 O1084 1.244 . S
O1063 Zn1059 2.055 . S
O1063 C1085 1.259 . S
O1064 Zn1056 2.046 . S
O1064 C1085 1.254 . S
N1065 Zn1059 2.036 . S
N1065 C1066 1.298 . S
N1065 N1068 1.398 . S
C1066 N1065 1.298 . S
C1066 N1069 1.367 . S
C1066 C1079 1.481 . S
C1067 N1068 1.299 . S
C1067 N1069 1.379 . S
N1068 N1065 1.398 . S
N1068 C1067 1.299 . S
N1069 C1066 1.367 . S
N1069 C1067 1.379 . S
C1070 N1072 1.298 . S
C1070 N1074 1.367 . S
C1070 C1078 1.481 . S
C1071 N1073 1.299 . S
C1071 N1074 1.379 . S
N1072 Zn1056 2.036 . S
N1072 C1070 1.298 . S
N1072 N1073 1.398 . S
N1073 C1071 1.299 . S
N1073 N1072 1.398 . S
N1074 C1070 1.367 . S
N1074 C1071 1.379 . S
H1075 C1078 0.980 . S
H1076 C1078 0.981 . S
H1077 C1078 0.981 . S
C1078 C1070 1.481 . S
C1078 H1075 0.980 . S
C1078 H1076 0.981 . S
C1078 H1077 0.981 . S
C1079 C1066 1.481 . S
C1079 H1080 0.980 . S
C1079 H1081 0.981 . S
C1079 H1082 0.981 . S
H1080 C1079 0.980 . S
H1081 C1079 0.981 . S
H1082 C1079 0.981 . S
O1083 Zn1059 2.066 . S
O1083 C1062 1.256 . S
O1084 Zn1056 2.053 . S
O1084 C1062 1.244 . S
C1085 O1063 1.259 . S
C1085 O1064 1.254 . S
O1086 Zn1056 2.066 . S
O1086 C1058 1.256 . S
O1087 C1058 1.244 . S
O1087 Zn1059 2.053 . S
Zn1088 O1089 2.055 . S
Zn1088 O1096 2.046 1_655 S
Zn1088 N1104 2.036 . S
Zn1088 O1116 2.053 . S
Zn1088 O1118 2.066 . S
O1089 Zn1088 2.055 . S
O1089 C1092 1.259 . S
C1090 O1118 1.256 . S
C1090 O1119 1.244 . S
Zn1091 O1093 2.046 . S
Zn1091 O1095 2.055 1_655 S
Zn1091 N1097 2.036 . S
Zn1091 O1115 2.066 . S
Zn1091 O1119 2.053 . S
C1092 O1089 1.259 . S
C1092 O1093 1.254 . S
O1093 Zn1091 2.046 . S
O1093 C1092 1.254 . S
C1094 O1115 1.256 1_565 S
C1094 O1116 1.244 1_565 S
O1095 Zn1091 2.055 1_455 S
O1095 C1117 1.259 . S
O1096 Zn1088 2.046 1_455 S
O1096 C1117 1.254 . S
N1097 Zn1091 2.036 . S
N1097 C1098 1.298 . S
N1097 N1100 1.398 . S
C1098 N1097 1.298 . S
C1098 N1101 1.367 . S
C1098 C1111 1.481 1_655 S
C1099 N1100 1.299 . S
C1099 N1101 1.379 . S
N1100 N1097 1.398 . S
N1100 C1099 1.299 . S
N1101 C1098 1.367 . S
N1101 C1099 1.379 . S
C1102 N1104 1.298 . S
C1102 N1106 1.367 . S
C1102 C1110 1.481 . S
C1103 N1105 1.299 . S
C1103 N1106 1.379 . S
N1104 Zn1088 2.036 . S
N1104 C1102 1.298 . S
N1104 N1105 1.398 . S
N1105 C1103 1.299 . S
N1105 N1104 1.398 . S
N1106 C1102 1.367 . S
N1106 C1103 1.379 . S
H1107 C1110 0.980 . S
H1108 C1110 0.981 . S
H1109 C1110 0.981 . S
C1110 C1102 1.481 . S
C1110 H1107 0.980 . S
C1110 H1108 0.981 . S
C1110 H1109 0.981 . S
C1111 C1098 1.481 1_455 S
C1111 H1112 0.980 . S
C1111 H1113 0.981 . S
C1111 H1114 0.981 1_455 S
H1112 C1111 0.980 . S
H1113 C1111 0.981 . S
H1114 C1111 0.981 1_655 S
O1115 Zn1091 2.066 . S
O1115 C1094 1.256 1_545 S
O1116 Zn1088 2.053 . S
O1116 C1094 1.244 1_545 S
C1117 O1095 1.259 . S
C1117 O1096 1.254 . S
O1118 Zn1088 2.066 . S
O1118 C1090 1.256 . S
O1119 C1090 1.244 . S
O1119 Zn1091 2.053 . S
Zn1120 O1121 2.055 . S
Zn1120 O1128 2.046 . S
Zn1120 N1136 2.036 . S
Zn1120 O1148 2.053 1_655 S
Zn1120 O1150 2.066 . S
O1121 Zn1120 2.055 . S
O1121 C1124 1.259 . S
C1122 O1150 1.256 . S
C1122 O1151 1.244 . S
Zn1123 O1125 2.046 . S
Zn1123 O1127 2.055 . S
Zn1123 N1129 2.036 . S
Zn1123 O1147 2.066 1_655 S
Zn1123 O1151 2.053 . S
C1124 O1121 1.259 . S
C1124 O1125 1.254 . S
O1125 Zn1123 2.046 . S
O1125 C1124 1.254 . S
C1126 O1147 1.256 . S
C1126 O1148 1.244 . S
O1127 Zn1123 2.055 . S
O1127 C1149 1.259 . S
O1128 Zn1120 2.046 . S
O1128 C1149 1.254 . S
N1129 Zn1123 2.036 . S
N1129 C1130 1.298 . S
N1129 N1132 1.398 . S
C1130 N1129 1.298 . S
C1130 N1133 1.367 . S
C1130 C1143 1.481 . S
C1131 N1132 1.299 . S
C1131 N1133 1.379 . S
N1132 N1129 1.398 . S
N1132 C1131 1.299 . S
N1133 C1130 1.367 . S
N1133 C1131 1.379 . S
C1134 N1136 1.298 . S
C1134 N1138 1.367 . S
C1134 C1142 1.481 . S
C1135 N1137 1.299 . S
C1135 N1138 1.379 . S
N1136 Zn1120 2.036 . S
N1136 C1134 1.298 . S
N1136 N1137 1.398 . S
N1137 C1135 1.299 . S
N1137 N1136 1.398 . S
N1138 C1134 1.367 . S
N1138 C1135 1.379 . S
H1139 C1142 0.980 . S
H1140 C1142 0.981 . S
H1141 C1142 0.981 . S
C1142 C1134 1.481 . S
C1142 H1139 0.980 . S
C1142 H1140 0.981 . S
C1142 H1141 0.981 . S
C1143 C1130 1.481 . S
C1143 H1144 0.980 . S
C1143 H1145 0.981 . S
C1143 H1146 0.981 1_655 S
H1144 C1143 0.980 . S
H1145 C1143 0.981 . S
H1146 C1143 0.981 1_455 S
O1147 Zn1123 2.066 1_455 S
O1147 C1126 1.256 . S
O1148 Zn1120 2.053 1_455 S
O1148 C1126 1.244 . S
C1149 O1127 1.259 . S
C1149 O1128 1.254 . S
O1150 Zn1120 2.066 . S
O1150 C1122 1.256 . S
O1151 C1122 1.244 . S
O1151 Zn1123 2.053 . S
N877 N13 1.846 . S
N909 N50 1.847 1_655 S
N77 N946 1.845 . S
N114 N402 1.846 . S
N141 N434 1.849 . S
N466 N173 1.843 . S
N210 N685 1.845 . S
N717 N242 1.842 . S
N274 N749 1.851 . S
N978 N301 1.846 . S
N333 N1005 1.847 . S
N1037 N365 1.845 . S
N781 N493 1.846 . S
N525 N813 1.843 1_565 S
N850 N557 1.850 1_655 S
N594 N1074 1.846 . S
N626 N1101 1.850 1_565 S
N1133 N653 1.842 1_655 S
N18 N205 1.451 1_554 S
N237 N45 1.453 1_556 S
N82 N269 1.453 1_554 S
N306 N109 1.451 . S
N146 N338 1.454 . S
N370 N178 1.454 . S
N589 N397 1.455 . S
N429 N621 1.451 . S
N658 N461 1.452 . S
N498 N690 1.456 . S
N722 N530 1.452 . S
N562 N754 1.451 . S
N786 N973 1.452 . S
N1010 N818 1.453 . S
N1042 N845 1.453 . S
N1069 N882 1.452 . S
N914 N1106 1.454 . S
N941 N1138 1.453 . S
C4 C66 1.636 . S
C61 C2 1.636 . S
C38 C68 1.637 . S
C125 C130 1.635 . S
C162 C132 1.636 . S
C102 C164 1.635 . S
C262 C221 1.636 . S
C253 C198 1.635 . S
C285 C230 1.638 . S
C322 C292 1.635 . S
C324 C354 1.636 . S
C356 C290 1.636 . S
C454 C413 1.638 . S
C390 C445 1.637 1_455 S
C422 C477 1.636 . S
C514 C484 1.636 . S
C516 C546 1.634 . S
C482 C548 1.637 . S
C605 C642 1.637 . S
C582 C637 1.636 . S
C644 C614 1.636 . S
C706 C676 1.636 1_455 S
C738 C708 1.634 . S
C674 C740 1.637 . S
C838 C772 1.636 . S
C804 C770 1.636 . S
C802 C861 1.638 . S
C868 C898 1.635 . S
C900 C934 1.636 . S
C866 C957 1.636 1_545 S
C989 C1026 1.637 1_565 S
C996 C966 1.636 . S
C994 C1028 1.637 . S
C1085 C1090 1.635 . S
C1122 C1092 1.636 . S
C1062 C1124 1.635 . S
C93 C6 0.927 . S
C34 C29 0.927 . S
C36 C70 0.926 . S
C157 C98 0.928 . S
C134 C189 0.927 . S
C166 C100 0.926 . S
C260 C194 0.927 . S
C226 C196 0.926 . S
C228 C258 0.925 . S
C349 C294 0.928 . S
C381 C326 0.927 . S
C317 C358 0.927 . S
C386 C452 0.925 . S
C418 C388 0.927 . S
C450 C420 0.926 . S
C541 C486 0.926 . S
C518 C573 0.928 . S
C550 C509 0.927 . S
C669 C578 0.925 . S
C580 C610 0.927 . S
C646 C612 0.926 . S
C733 C678 0.926 . S
C710 C765 0.928 . S
C742 C701 0.927 . S
C774 C836 0.926 . S
C797 C806 0.926 . S
C829 C834 0.925 . S
C925 C870 0.927 . S
C902 C932 0.927 . S
C930 C893 0.927 . S
C1053 C962 0.926 . S
C964 C998 0.926 . S
C1030 C1021 0.926 . S
C1117 C1058 0.928 . S
C1094 C1149 0.927 . S
C1126 C1060 0.927 . S
