# Generated by pormake.
# Topology fob, (5)-cn, num edge types: 1
# Building blocks:
#     Node 0, Type 0, BuildingBlock: XOMCOT_clean_sbu_0, # of connection points: 5
#     Node 1, Type 0, BuildingBlock: XOMCOT_clean_sbu_0, # of connection points: 5
#     Node 2, Type 0, BuildingBlock: XOMCOT_clean_sbu_0, # of connection points: 5
#     Node 3, Type 0, BuildingBlock: XOMCOT_clean_sbu_0, # of connection points: 5
#     Node 4, Type 0, BuildingBlock: XOMCOT_clean_sbu_0, # of connection points: 5
#     Node 5, Type 0, BuildingBlock: XOMCOT_clean_sbu_0, # of connection points: 5
#     Node 6, Type 0, BuildingBlock: XOMCOT_clean_sbu_0, # of connection points: 5
#     Node 7, Type 0, BuildingBlock: XOMCOT_clean_sbu_0, # of connection points: 5
#     Node 8, Type 0, BuildingBlock: XOMCOT_clean_sbu_0, # of connection points: 5
#     Node 9, Type 0, BuildingBlock: XOMCOT_clean_sbu_0, # of connection points: 5
#     Node 10, Type 0, BuildingBlock: XOMCOT_clean_sbu_0, # of connection points: 5
#     Node 11, Type 0, BuildingBlock: XOMCOT_clean_sbu_0, # of connection points: 5
#     Node 12, Type 0, BuildingBlock: XOMCOT_clean_sbu_0, # of connection points: 5
#     Node 13, Type 0, BuildingBlock: XOMCOT_clean_sbu_0, # of connection points: 5
#     Node 14, Type 0, BuildingBlock: XOMCOT_clean_sbu_0, # of connection points: 5
#     Node 15, Type 0, BuildingBlock: XOMCOT_clean_sbu_0, # of connection points: 5
#     Edge 16, Type (0, 0), BuildingBlock: XUDNAN_clean_linker_2, # of connection points: 2
#     Edge 17, Type (0, 0), BuildingBlock: XUDNAN_clean_linker_2, # of connection points: 2
#     Edge 18, Type (0, 0), BuildingBlock: XUDNAN_clean_linker_2, # of connection points: 2
#     Edge 19, Type (0, 0), BuildingBlock: XUDNAN_clean_linker_2, # of connection points: 2
#     Edge 20, Type (0, 0), BuildingBlock: XUDNAN_clean_linker_2, # of connection points: 2
#     Edge 21, Type (0, 0), BuildingBlock: XUDNAN_clean_linker_2, # of connection points: 2
#     Edge 22, Type (0, 0), BuildingBlock: XUDNAN_clean_linker_2, # of connection points: 2
#     Edge 23, Type (0, 0), BuildingBlock: XUDNAN_clean_linker_2, # of connection points: 2
#     Edge 24, Type (0, 0), BuildingBlock: XUDNAN_clean_linker_2, # of connection points: 2
#     Edge 25, Type (0, 0), BuildingBlock: XUDNAN_clean_linker_2, # of connection points: 2
#     Edge 26, Type (0, 0), BuildingBlock: XUDNAN_clean_linker_2, # of connection points: 2
#     Edge 27, Type (0, 0), BuildingBlock: XUDNAN_clean_linker_2, # of connection points: 2
#     Edge 28, Type (0, 0), BuildingBlock: XUDNAN_clean_linker_2, # of connection points: 2
#     Edge 29, Type (0, 0), BuildingBlock: XUDNAN_clean_linker_2, # of connection points: 2
#     Edge 30, Type (0, 0), BuildingBlock: XUDNAN_clean_linker_2, # of connection points: 2
#     Edge 31, Type (0, 0), BuildingBlock: XUDNAN_clean_linker_2, # of connection points: 2
#     Edge 32, Type (0, 0), BuildingBlock: XUDNAN_clean_linker_2, # of connection points: 2
#     Edge 33, Type (0, 0), BuildingBlock: XUDNAN_clean_linker_2, # of connection points: 2
#     Edge 34, Type (0, 0), BuildingBlock: XUDNAN_clean_linker_2, # of connection points: 2
#     Edge 35, Type (0, 0), BuildingBlock: XUDNAN_clean_linker_2, # of connection points: 2
#     Edge 36, Type (0, 0), BuildingBlock: XUDNAN_clean_linker_2, # of connection points: 2
#     Edge 37, Type (0, 0), BuildingBlock: XUDNAN_clean_linker_2, # of connection points: 2
#     Edge 38, Type (0, 0), BuildingBlock: XUDNAN_clean_linker_2, # of connection points: 2
#     Edge 39, Type (0, 0), BuildingBlock: XUDNAN_clean_linker_2, # of connection points: 2
#     Edge 40, Type (0, 0), BuildingBlock: XUDNAN_clean_linker_2, # of connection points: 2
#     Edge 41, Type (0, 0), BuildingBlock: XUDNAN_clean_linker_2, # of connection points: 2
#     Edge 42, Type (0, 0), BuildingBlock: XUDNAN_clean_linker_2, # of connection points: 2
#     Edge 43, Type (0, 0), BuildingBlock: XUDNAN_clean_linker_2, # of connection points: 2
#     Edge 44, Type (0, 0), BuildingBlock: XUDNAN_clean_linker_2, # of connection points: 2
#     Edge 45, Type (0, 0), BuildingBlock: XUDNAN_clean_linker_2, # of connection points: 2
#     Edge 46, Type (0, 0), BuildingBlock: XUDNAN_clean_linker_2, # of connection points: 2
#     Edge 47, Type (0, 0), BuildingBlock: XUDNAN_clean_linker_2, # of connection points: 2
#     Edge 48, Type (0, 0), BuildingBlock: XUDNAN_clean_linker_2, # of connection points: 2
#     Edge 49, Type (0, 0), BuildingBlock: XUDNAN_clean_linker_2, # of connection points: 2
#     Edge 50, Type (0, 0), BuildingBlock: XUDNAN_clean_linker_2, # of connection points: 2
#     Edge 51, Type (0, 0), BuildingBlock: XUDNAN_clean_linker_2, # of connection points: 2
#     Edge 52, Type (0, 0), BuildingBlock: XUDNAN_clean_linker_2, # of connection points: 2
#     Edge 53, Type (0, 0), BuildingBlock: XUDNAN_clean_linker_2, # of connection points: 2
#     Edge 54, Type (0, 0), BuildingBlock: XUDNAN_clean_linker_2, # of connection points: 2
#     Edge 55, Type (0, 0), BuildingBlock: XUDNAN_clean_linker_2, # of connection points: 2
# Relax obj value: 0.074
# Max RMSD: 0.139
# Mean RMSD: 0.139
data_MOF--net-fob--node1-XOMCOT_clean_sbu_0--edge1-XUDNAN_clean_linker_2
_symmetry_space_group_name_H-M    P1
_symmetry_Int_Tables_number       1
_symmetry_cell_setting            triclinic
loop_
_symmetry_equiv_pos_as_xyz
'x, y, z'
_cell_length_a     26.77256
_cell_length_b     64.542534
_cell_length_c     49.529547
_cell_angle_alpha  100.32805
_cell_angle_beta   90.089193
_cell_angle_gamma 89.755812
loop_
_atom_site_label
_atom_site_type_symbol
_atom_site_fract_x
_atom_site_fract_y
_atom_site_fract_z
_atom_type_partial_charge
Co0 Co 0.10524 0.14476 0.46998 0.0
C1 C 0.08656 0.10003 0.47687 0.0
C2 C 0.08594 0.10407 0.43479 0.0
C3 C 0.07279 0.08365 0.43577 0.0
N4 N 0.09443 0.11447 0.46052 0.0
N5 N 0.07321 0.08113 0.46217 0.0
H6 H 0.0879 0.10341 0.49904 0.0
H7 H 0.08693 0.11113 0.41657 0.0
C8 C 0.16363 0.1564 0.42193 0.0
O9 O 0.15236 0.17644 0.42894 0.0
N10 N 0.11595 0.17499 0.47969 0.0
C11 C 0.0816 0.19056 0.48312 0.0
C12 C 0.10595 0.20966 0.48853 0.0
C13 C 0.16039 0.1848 0.4845 0.0
N14 N 0.15565 0.20604 0.48899 0.0
C15 C 1.00084 0.14097 0.46317 0.0
C16 C 0.98972 0.16158 0.41927 0.0
C17 C 0.9472 0.15358 0.43029 0.0
C18 C 0.9534 0.14302 0.45243 0.0
C19 C 0.03676 0.15894 0.43047 0.0
N20 N 0.04189 0.14887 0.45233 0.0
H21 H 0.00472 0.13265 0.48014 0.0
H22 H 0.06826 0.16536 0.42168 0.0
H23 H 0.04167 0.18832 0.48119 0.0
H24 H 0.19562 0.17643 0.48321 0.0
O25 O 0.08037 0.14548 0.50648 0.0
O26 O 0.15973 0.14037 0.49401 0.0
O27 O 0.14539 0.14267 0.43485 0.0
C28 C 0.12637 0.14258 0.51345 0.0
H29 H 0.06267 0.07166 0.41843 0.0
H30 H 0.08833 0.22498 0.49067 0.0
H31 H 0.98676 0.17004 0.40233 0.0
H32 H 0.92203 0.13603 0.4612 0.0
Co33 Co 0.12927 0.15325 0.75788 0.0
C34 C 0.09598 0.19753 0.76127 0.0
C35 C 0.17221 0.19538 0.7742 0.0
C36 C 0.15932 0.21631 0.77697 0.0
N37 N 0.1324 0.18364 0.76462 0.0
N38 N 0.11146 0.21765 0.76885 0.0
H39 H 0.05876 0.19303 0.75397 0.0
H40 H 0.20815 0.18917 0.77889 0.0
C41 C 0.18686 0.13972 0.80462 0.0
O42 O 0.16007 0.12261 0.80353 0.0
N43 N 0.12647 0.12264 0.75048 0.0
C44 C 0.08557 0.11048 0.74479 0.0
C45 C 0.10019 0.08983 0.73749 0.0
C46 C 0.1656 0.1091 0.74588 0.0
N47 N 0.1504 0.08896 0.73826 0.0
C48 C 0.02437 0.15307 0.77005 0.0
C49 C 0.03349 0.15836 0.82638 0.0
C50 C 0.98645 0.15407 0.81443 0.0
C51 C 0.98168 0.15228 0.78599 0.0
C52 C 0.07501 0.15939 0.80971 0.0
N53 N 0.07079 0.15511 0.78175 0.0
H54 H 0.02008 0.15115 0.74808 0.0
H55 H 0.11012 0.1637 0.81965 0.0
H56 H 0.04758 0.11596 0.74475 0.0
H57 H 0.20432 0.11393 0.74748 0.0
O58 O 0.09698 0.15359 0.72308 0.0
O59 O 0.17881 0.15207 0.72956 0.0
O60 O 0.1774 0.15301 0.78904 0.0
C61 C 0.14175 0.15244 0.71269 0.0
H62 H 0.18348 0.22956 0.7842 0.0
H63 H 0.07572 0.07645 0.73174 0.0
H64 H 0.03816 0.1608 0.84846 0.0
H65 H 0.94566 0.14941 0.77607 0.0
Co66 Co 0.88897 0.89108 0.50786 0.0
C67 C 0.93399 0.93264 0.50326 0.0
C68 C 0.8539 0.93376 0.50601 0.0
C69 C 0.87074 0.95328 0.5028 0.0
N70 N 0.89342 0.9208 0.5062 0.0
N71 N 0.92099 0.95258 0.50118 0.0
H72 H 0.97197 0.92673 0.50209 0.0
H73 H 0.81535 0.9292 0.50769 0.0
C74 C 0.83784 0.89115 0.56223 0.0
O75 O 0.86805 0.87654 0.56806 0.0
N76 N 0.88291 0.86089 0.50915 0.0
C77 C 0.90945 0.84907 0.52416 0.0
C78 C 0.89084 0.82888 0.51982 0.0
C79 C 0.84894 0.8473 0.49554 0.0
N80 N 0.85315 0.82786 0.50174 0.0
C81 C 0.99091 0.88314 0.51964 0.0
C82 C 0.99558 0.91029 0.56955 0.0
C83 C 0.03869 0.89915 0.55935 0.0
C84 C 0.03597 0.88543 0.53404 0.0
C85 C 0.95116 0.90743 0.55456 0.0
N86 N 0.94892 0.89358 0.53028 0.0
H87 H 0.98946 0.87272 0.49998 0.0
H88 H 0.91902 0.91684 0.56214 0.0
H89 H 0.93903 0.85465 0.53841 0.0
H90 H 0.82082 0.85146 0.48174 0.0
O91 O 0.91953 0.88434 0.47206 0.0
O92 O 0.83816 0.8884 0.48003 0.0
O93 O 0.84304 0.89857 0.54023 0.0
C94 C 0.87434 0.8846 0.46233 0.0
H95 H 0.84787 0.96702 0.50192 0.0
H96 H 0.90386 0.81594 0.52923 0.0
H97 H 0.99612 0.92118 0.58892 0.0
H98 H 0.06862 0.87687 0.52515 0.0
Co99 Co 0.89033 0.89198 0.22303 0.0
C100 C 0.91808 0.84592 0.21476 0.0
C101 C 0.84385 0.85156 0.20158 0.0
C102 C 0.8509 0.83022 0.19879 0.0
N103 N 0.88632 0.86156 0.21085 0.0
N104 N 0.8976 0.8266 0.20706 0.0
H105 H 0.95436 0.84842 0.22413 0.0
H106 H 0.80907 0.85932 0.19828 0.0
C107 C 0.84615 0.88785 0.16641 0.0
O108 O 0.87753 0.87258 0.15692 0.0
N109 N 0.89177 0.92221 0.23558 0.0
C110 C 0.92589 0.93362 0.25189 0.0
C111 C 0.91218 0.95463 0.25567 0.0
C112 C 0.858 0.93634 0.22968 0.0
N113 N 0.86977 0.95618 0.24146 0.0
C114 C 0.99429 0.88546 0.20948 0.0
C115 C 0.99598 0.91005 0.16923 0.0
C116 C 0.04022 0.90026 0.17551 0.0
C117 C 0.03909 0.88787 0.19599 0.0
C118 C 0.95205 0.90714 0.18311 0.0
N119 N 0.95097 0.89424 0.20219 0.0
H120 H 0.99516 0.87735 0.22664 0.0
H121 H 0.91934 0.9159 0.17905 0.0
H122 H 0.95858 0.92715 0.26027 0.0
H123 H 0.82498 0.93229 0.21733 0.0
O124 O 0.91977 0.88764 0.25706 0.0
O125 O 0.83836 0.88978 0.24916 0.0
O126 O 0.84671 0.89663 0.19162 0.0
C127 C 0.87422 0.88726 0.26607 0.0
H128 H 0.82275 0.81834 0.1925 0.0
H129 H 0.93234 0.96778 0.26731 0.0
H130 H 0.99533 0.92008 0.15389 0.0
H131 H 0.07291 0.88078 0.20229 0.0
Co132 Co 0.1073 0.65407 0.96929 0.0
C133 C 0.07155 0.61378 0.98139 0.0
C134 C 0.14277 0.60981 0.96129 0.0
C135 C 0.12842 0.59073 0.96768 0.0
N136 N 0.10687 0.62418 0.96983 0.0
N137 N 0.08383 0.59336 0.98051 0.0
H138 H 0.0379 0.62115 -0.00925 0.0
H139 H 0.1777 0.61308 0.95203 0.0
C140 C 0.1633 0.65952 0.9182 0.0
O141 O 0.13759 0.67658 0.9164 0.0
N142 N 0.10746 0.68438 0.96942 0.0
C143 C 0.06908 0.6967 0.96397 0.0
C144 C 0.0836 0.71739 0.96931 0.0
C145 C 0.14521 0.698 0.97765 0.0
N146 N 0.13128 0.71818 0.97789 0.0
C147 C 0.00222 0.65514 0.95859 0.0
C148 C 0.0061 0.63666 0.90385 0.0
C149 C 0.9598 0.64328 0.91555 0.0
C150 C 0.95808 0.65239 0.94337 0.0
C151 C 0.04944 0.63993 0.91974 0.0
N152 N 0.04751 0.64999 0.94646 0.0
H153 H 1.00001 0.66219 0.98002 0.0
H154 H 0.08409 0.63388 0.91044 0.0
H155 H 0.03259 0.69154 0.95671 0.0
H156 H 0.18154 0.69338 0.98419 0.0
O157 O 0.0766 0.65917 0.00513 0.0
O158 O 0.15814 0.65765 -0.00268 0.0
O159 O 0.15392 0.64887 0.93695 0.0
C160 C 0.12176 0.65968 0.01495 0.0
H161 H 0.1501 0.5763 0.96427 0.0
H162 H 0.06075 0.73089 0.96722 0.0
H163 H 0.00893 0.62916 0.88251 0.0
H164 H 0.92288 0.65719 0.95337 0.0
Co165 Co 0.09861 0.63882 0.25009 0.0
C166 C 0.05327 0.68076 0.24865 0.0
C167 C 0.13027 0.68315 0.26035 0.0
C168 C 0.11369 0.70276 0.25692 0.0
N169 N 0.09208 0.66937 0.25576 0.0
N170 N 0.06534 0.70117 0.24931 0.0
H171 H 0.01779 0.67413 0.24146 0.0
H172 H 0.1684 0.67896 0.26431 0.0
C173 C 0.1464 0.65333 0.30623 0.0
O174 O 0.11881 0.67041 0.31199 0.0
N175 N 0.10631 0.60852 0.2439 0.0
C176 C 0.07349 0.59374 0.23246 0.0
C177 C 0.09387 0.57409 0.23297 0.0
C178 C 0.14607 0.59777 0.25101 0.0
N179 N 0.13942 0.57669 0.24481 0.0
C180 C 0.99249 0.63741 0.25566 0.0
C181 C 0.98934 0.62824 0.30798 0.0
C182 C 0.94438 0.62999 0.29401 0.0
C183 C 0.94645 0.63459 0.26751 0.0
C184 C 0.03491 0.63099 0.29521 0.0
N185 N 0.03617 0.63616 0.26959 0.0
H186 H 0.99261 0.64026 0.23489 0.0
H187 H 0.06872 0.62818 0.30578 0.0
H188 H 0.0371 0.59701 0.22466 0.0
H189 H 0.17938 0.60527 0.26048 0.0
O190 O 0.07249 0.63729 0.21351 0.0
O191 O 0.15255 0.64067 0.22475 0.0
O192 O 0.1407 0.64018 0.28397 0.0
C193 C 0.11828 0.6395 0.2059 0.0
H194 H 0.13642 0.71671 0.25797 0.0
H195 H 0.07595 0.55911 0.22586 0.0
H196 H 0.98938 0.62407 0.32821 0.0
H197 H 0.91265 0.63597 0.2559 0.0
Co198 Co 0.88143 0.41042 0.01769 0.0
C199 C 0.91869 0.4543 0.02223 0.0
C200 C 0.84367 0.45297 0.03719 0.0
C201 C 0.85732 0.47373 0.03989 0.0
N202 N 0.8822 0.44081 0.02638 0.0
N203 N 0.90443 0.4746 0.03052 0.0
H204 H 0.95478 0.44938 0.01348 0.0
H205 H 0.80774 0.44716 0.04235 0.0
C206 C 0.83802 0.3997 0.06985 0.0
O207 O 0.87169 0.38491 0.07042 0.0
N208 N 0.87875 0.37963 0.00826 0.0
C209 C 0.90716 0.36698 0.98952 0.0
C210 C 0.88938 0.34671 0.98603 0.0
C211 C 0.84254 0.36677 0.0148 0.0
N212 N 0.84907 0.34662 0.00214 0.0
C213 C 0.98377 0.40056 0.02576 0.0
C214 C 0.98983 0.41836 0.08073 0.0
C215 C 0.03123 0.40747 0.06783 0.0
C216 C 0.02816 0.39898 0.03986 0.0
C217 C 0.94567 0.4194 0.06578 0.0
N218 N 0.94231 0.40956 0.03897 0.0
H219 H 0.98323 0.39479 0.00405 0.0
H220 H 0.91424 0.42811 0.07579 0.0
H221 H 0.93706 0.37207 0.97772 0.0
H222 H 0.81036 0.37204 0.02732 0.0
O223 O 0.91106 0.4115 0.98263 0.0
O224 O 0.82957 0.41177 -0.00904 0.0
O225 O 0.83751 0.41049 0.05064 0.0
C226 C 0.86566 0.41197 0.9734 0.0
H227 H 0.8338 0.48718 0.04752 0.0
H228 H 0.90442 0.33314 0.97238 0.0
H229 H 0.99122 0.42556 0.10222 0.0
H230 H 0.06004 0.39123 0.02888 0.0
Co231 Co 0.89174 0.40167 0.72918 0.0
C232 C 0.93172 0.35997 0.73617 0.0
C233 C 0.8646 0.35649 0.71244 0.0
C234 C 0.87976 0.33684 0.71666 0.0
N235 N 0.89811 0.37102 0.72397 0.0
N236 N 0.92193 0.33912 0.73176 0.0
H237 H 0.96131 0.36705 0.74938 0.0
H238 H 0.82991 0.35994 0.70294 0.0
C239 C 0.84728 0.38992 0.67154 0.0
O240 O 0.88104 0.37542 0.66297 0.0
N241 N 0.88416 0.43194 0.73495 0.0
C242 C 0.91849 0.44683 0.7437 0.0
C243 C 0.89693 0.46638 0.74401 0.0
C244 C 0.84235 0.44248 0.73041 0.0
N245 N 0.8491 0.46355 0.73546 0.0
C246 C 0.99686 0.39785 0.71729 0.0
C247 C 0.99404 0.415 0.67008 0.0
C248 C 0.0396 0.40738 0.67838 0.0
C249 C 0.04079 0.39896 0.70251 0.0
C250 C 0.95084 0.41334 0.68534 0.0
N251 N 0.95211 0.40393 0.70795 0.0
H252 H 0.99941 0.39273 0.73671 0.0
H253 H 0.91663 0.42009 0.67919 0.0
H254 H 0.95665 0.44369 0.74899 0.0
H255 H 0.8076 0.43479 0.72355 0.0
O256 O 0.92043 0.40403 0.76539 0.0
O257 O 0.83965 0.40042 0.75547 0.0
O258 O 0.84761 0.40015 0.69608 0.0
C259 C 0.87476 0.40262 0.77392 0.0
H260 H 0.85974 0.32222 0.71048 0.0
H261 H 0.91547 0.48143 0.74932 0.0
H262 H 0.9917 0.42211 0.6519 0.0
H263 H 0.07565 0.39381 0.71032 0.0
Co264 Co 0.62936 0.15248 0.97682 0.0
C265 C 0.58691 0.11002 0.97719 0.0
C266 C 0.66717 0.10999 0.97805 0.0
C267 C 0.6508 0.09003 0.97953 0.0
N268 N 0.62715 0.12251 0.9767 0.0
N269 N 0.60053 0.09013 0.9788 0.0
H270 H 0.54858 0.11538 0.97698 0.0
H271 H 0.7056 0.11514 0.97835 0.0
C272 C 0.68086 0.15471 0.92295 0.0
O273 O 0.64835 0.16836 0.91675 0.0
N274 N 0.63271 0.1829 0.97701 0.0
C275 C 0.60523 0.1944 0.962 0.0
C276 C 0.62271 0.21468 0.96609 0.0
C277 C 0.66634 0.19678 0.99034 0.0
N278 N 0.66085 0.21614 0.98393 0.0
C279 C 0.52711 0.15971 0.96647 0.0
C280 C 0.52299 0.13736 0.91336 0.0
C281 C 0.48098 0.14884 0.9245 0.0
C282 C 0.48296 0.15958 0.95164 0.0
C283 C 0.56686 0.13805 0.92894 0.0
N284 N 0.5691 0.15004 0.95462 0.0
H285 H 0.52838 0.16863 0.9871 0.0
H286 H 0.59894 0.12904 0.92032 0.0
H287 H 0.57626 0.18851 0.94753 0.0
H288 H 0.69558 0.19277 0.0036 0.0
O289 O 0.59883 0.15746 0.01271 0.0
O290 O 0.68031 0.15495 0.00476 0.0
O291 O 0.67582 0.14675 0.94457 0.0
C292 C 0.64397 0.15721 0.02244 0.0
H293 H 0.67389 0.07644 0.98086 0.0
H294 H 0.6092 0.22732 0.95626 0.0
H295 H 0.52244 0.12855 0.89258 0.0
H296 H 0.45089 0.16824 0.96115 0.0
Co297 Co 0.61347 0.14321 0.25909 0.0
C298 C 0.56968 0.18325 0.24847 0.0
C299 C 0.63764 0.18838 0.27172 0.0
C300 C 0.6203 0.2075 0.26688 0.0
N301 N 0.60574 0.17322 0.2603 0.0
N302 N 0.57766 0.20427 0.25218 0.0
H303 H 0.53847 0.17526 0.23729 0.0
H304 H 0.67179 0.18569 0.28228 0.0
C305 C 0.64602 0.14268 0.31724 0.0
O306 O 0.60716 0.13138 0.32139 0.0
N307 N 0.62317 0.11286 0.25806 0.0
C308 C 0.59832 0.10017 0.27244 0.0
C309 C 0.62222 0.08103 0.26963 0.0
C310 C 0.66198 0.10083 0.24652 0.0
N311 N 0.66209 0.08148 0.25336 0.0
C312 C 0.51248 0.13047 0.26377 0.0
C313 C 0.49147 0.15676 0.31294 0.0
C314 C 0.45506 0.14238 0.30098 0.0
C315 C 0.4656 0.12954 0.27568 0.0
C316 C 0.53795 0.15715 0.30028 0.0
N317 N 0.549 0.14311 0.27697 0.0
H318 H 0.52033 0.12034 0.24438 0.0
H319 H 0.56557 0.16839 0.30956 0.0
H320 H 0.56634 0.10449 0.28545 0.0
H321 H 0.69112 0.10631 0.23447 0.0
O322 O 0.58981 0.13815 0.22186 0.0
O323 O 0.66904 0.14357 0.23434 0.0
O324 O 0.65232 0.14893 0.29445 0.0
C325 C 0.63588 0.1405 0.21476 0.0
H326 H 0.63866 0.22253 0.27292 0.0
H327 H 0.61171 0.06789 0.27925 0.0
H328 H 0.48469 0.16724 0.33225 0.0
H329 H 0.43797 0.11876 0.26523 0.0
Co330 Co 0.39392 0.90287 0.01268 0.0
C331 C 0.42288 0.94518 0.00145 0.0
C332 C 0.39072 0.94714 0.04146 0.0
C333 C 0.40619 0.96691 0.03863 0.0
N334 N 0.40138 0.93337 0.01824 0.0
N335 N 0.42611 0.96562 0.0135 0.0
H336 H 0.43762 0.939 0.98128 0.0
H337 H 0.3744 0.94319 0.05975 0.0
C338 C 0.34251 0.89425 0.06363 0.0
O339 O 0.37001 0.87732 0.06347 0.0
N340 N 0.38593 0.87241 0.00692 0.0
C341 C 0.42078 0.85713 0.00073 0.0
C342 C 0.39785 0.83781 -0.00213 0.0
C343 C 0.34215 0.86207 0.00692 0.0
N344 N 0.34843 0.84093 0.00195 0.0
C345 C 0.49834 0.89582 0.01979 0.0
C346 C 0.50231 0.91103 0.0755 0.0
C347 C 0.54646 0.90444 0.06145 0.0
C348 C 0.54421 0.89658 0.03331 0.0
C349 C 0.4571 0.90964 0.0613 0.0
N350 N 0.45511 0.9017 0.0338 0.0
H351 H 0.498 0.89081 -0.00217 0.0
H352 H 0.42447 0.91591 0.07254 0.0
H353 H 0.46014 0.85945 -0.0018 0.0
H354 H 0.30642 0.86996 0.01067 0.0
O355 O 0.42227 0.9001 0.97644 0.0
O356 O 0.34163 0.90419 0.98627 0.0
O357 O 0.34937 0.90607 0.04587 0.0
C358 C 0.37673 0.90172 0.96785 0.0
H359 H 0.4035 0.98113 0.05394 0.0
H360 H 0.4164 0.82265 -0.00637 0.0
H361 H 0.50282 0.91751 0.09725 0.0
H362 H 0.57786 0.89183 0.02167 0.0
Co363 Co 0.38823 0.90061 0.72529 0.0
C364 C 0.42589 0.85588 0.71964 0.0
C365 C 0.34741 0.85813 0.7119 0.0
C366 C 0.35996 0.83721 0.70932 0.0
N367 N 0.38885 0.86992 0.7176 0.0
N368 N 0.40922 0.83582 0.71424 0.0
H369 H 0.46398 0.85993 0.72517 0.0
H370 H 0.31028 0.86438 0.70999 0.0
C371 C 0.33886 0.8899 0.66947 0.0
O372 O 0.36919 0.8739 0.6617 0.0
N373 N 0.38564 0.93103 0.73329 0.0
C374 C 0.42186 0.94465 0.74348 0.0
C375 C 0.40414 0.96494 0.7444 0.0
C376 C 0.34658 0.94305 0.7284 0.0
N377 N 0.3569 0.96382 0.73468 0.0
C378 C 0.49307 0.89713 0.71328 0.0
C379 C 0.48929 0.91398 0.66584 0.0
C380 C 0.53559 0.90763 0.67486 0.0
C381 C 0.53719 0.89925 0.69905 0.0
C382 C 0.44615 0.91159 0.6807 0.0
N383 N 0.44794 0.90235 0.70345 0.0
H384 H 0.49557 0.89188 0.73271 0.0
H385 H 0.41175 0.91794 0.67426 0.0
H386 H 0.4588 0.94017 0.74925 0.0
H387 H 0.31122 0.93666 0.72029 0.0
O388 O 0.41874 0.90027 0.76049 0.0
O389 O 0.33715 0.89968 0.75228 0.0
O390 O 0.34263 0.90138 0.69319 0.0
C391 C 0.37339 0.89975 0.7698 0.0
H392 H 0.33461 0.82401 0.70478 0.0
H393 H 0.42498 0.97931 0.75081 0.0
H394 H 0.48628 0.92088 0.64752 0.0
H395 H 0.57238 0.89495 0.7074 0.0
Co396 Co 0.6035 0.641 0.46121 0.0
C397 C 0.56823 0.59922 0.47153 0.0
C398 C 0.63542 0.59616 0.44794 0.0
C399 C 0.62308 0.57663 0.45352 0.0
N400 N 0.60004 0.61033 0.45841 0.0
N401 N 0.58083 0.57861 0.46848 0.0
H402 H 0.53809 0.60613 0.48448 0.0
H403 H 0.66957 0.59985 0.43824 0.0
C404 C 0.64023 0.62567 0.40399 0.0
O405 O 0.60074 0.6135 0.39948 0.0
N406 N 0.60832 0.67127 0.46489 0.0
C407 C 0.57476 0.68544 0.47734 0.0
C408 C 0.59493 0.70529 0.47978 0.0
C409 C 0.64828 0.68264 0.45967 0.0
N410 N 0.64095 0.70347 0.46861 0.0
C411 C 0.49861 0.63539 0.45132 0.0
C412 C 0.49442 0.65099 0.40296 0.0
C413 C 0.45133 0.64232 0.41242 0.0
C414 C 0.45353 0.63495 0.43724 0.0
C415 C 0.53924 0.65081 0.41762 0.0
N416 N 0.54155 0.64184 0.44063 0.0
H417 H 0.49839 0.63098 0.47119 0.0
H418 H 0.57209 0.65779 0.41038 0.0
H419 H 0.53891 0.68152 0.48508 0.0
H420 H 0.68285 0.6758 0.45082 0.0
O421 O 0.57565 0.64451 0.49751 0.0
O422 O 0.65656 0.64142 0.4877 0.0
O423 O 0.64612 0.63773 0.42719 0.0
C424 C 0.62139 0.64379 0.50615 0.0
H425 H 0.6451 0.56237 0.44834 0.0
H426 H 0.57753 0.71993 0.48939 0.0
H427 H 0.49371 0.6574 0.3842 0.0
H428 H 0.42042 0.62908 0.44588 0.0
Co429 Co 0.60917 0.64908 0.74979 0.0
C430 C 0.57656 0.69239 0.74741 0.0
C431 C 0.64904 0.69271 0.76553 0.0
C432 C 0.63728 0.71294 0.76187 0.0
N433 N 0.61026 0.67985 0.75703 0.0
N434 N 0.59176 0.71255 0.75017 0.0
H435 H 0.54308 0.68673 0.73655 0.0
H436 H 0.68481 0.68759 0.77214 0.0
C437 C 0.66265 0.65761 0.80476 0.0
O438 O 0.63313 0.67351 0.81446 0.0
N439 N 0.60768 0.6187 0.74169 0.0
C440 C 0.56694 0.60702 0.73379 0.0
C441 C 0.58069 0.58618 0.7283 0.0
C442 C 0.64589 0.60485 0.7408 0.0
N443 N 0.63032 0.58479 0.73258 0.0
C444 C 0.50554 0.65531 0.76487 0.0
C445 C 0.51035 0.63709 0.81117 0.0
C446 C 0.46444 0.64495 0.80379 0.0
C447 C 0.46231 0.6541 0.78024 0.0
C448 C 0.5527 0.63875 0.79532 0.0
N449 N 0.55056 0.64855 0.77305 0.0
H450 H 0.50193 0.66067 0.74564 0.0
H451 H 0.58662 0.63127 0.80045 0.0
H452 H 0.52986 0.61328 0.73178 0.0
H453 H 0.68432 0.60941 0.74519 0.0
O454 O 0.57732 0.64966 0.7148 0.0
O455 O 0.65911 0.64913 0.72212 0.0
O456 O 0.65678 0.64724 0.78055 0.0
C457 C 0.62251 0.64948 0.70497 0.0
H458 H 0.66173 0.72647 0.76558 0.0
H459 H 0.55594 0.57305 0.72161 0.0
H460 H 0.51351 0.62946 0.82888 0.0
H461 H 0.42713 0.65949 0.77309 0.0
Co462 Co 0.39652 0.39187 0.51313 0.0
C463 C 0.42811 0.43554 0.50868 0.0
C464 C 0.34982 0.43318 0.51721 0.0
C465 C 0.36078 0.45393 0.51701 0.0
N466 N 0.39198 0.42169 0.51231 0.0
N467 N 0.40988 0.45542 0.5117 0.0
H468 H 0.46699 0.43136 0.50495 0.0
H469 H 0.3137 0.42693 0.5212 0.0
C470 C 0.3422 0.3865 0.56529 0.0
O471 O 0.36483 0.36861 0.56644 0.0
N472 N 0.39985 0.36163 0.51382 0.0
C473 C 0.43809 0.35042 0.52195 0.0
C474 C 0.42511 0.32956 0.5183 0.0
C475 C 0.36364 0.34716 0.5058 0.0
N476 N 0.37842 0.3275 0.50818 0.0
C477 C 0.50228 0.39154 0.52116 0.0
C478 C 0.50282 0.41059 0.57575 0.0
C479 C 0.54804 0.40358 0.563 0.0
C480 C 0.54755 0.3942 0.53529 0.0
C481 C 0.45812 0.40723 0.561 0.0
N482 N 0.45803 0.39703 0.53432 0.0
H483 H 0.50273 0.38405 0.49986 0.0
H484 H 0.42398 0.41312 0.57111 0.0
H485 H 0.47292 0.35655 0.53072 0.0
H486 H 0.32739 0.35083 0.49815 0.0
O487 O 0.4244 0.38694 0.47662 0.0
O488 O 0.3436 0.38695 0.4863 0.0
O489 O 0.35269 0.39701 0.54657 0.0
C490 C 0.37855 0.38513 0.46782 0.0
H491 H 0.33473 0.467 0.52076 0.0
H492 H 0.448 0.31687 0.52321 0.0
H493 H 0.50195 0.41831 0.59705 0.0
H494 H 0.58191 0.389 0.52461 0.0
Co495 Co 0.38369 0.39208 0.22765 0.0
C496 C 0.41653 0.34731 0.22008 0.0
C497 C 0.34241 0.35077 0.20476 0.0
C498 C 0.35403 0.32969 0.2008 0.0
N499 N 0.38165 0.36182 0.21661 0.0
N500 N 0.40057 0.32748 0.21043 0.0
H501 H 0.45262 0.35119 0.22947 0.0
H502 H 0.30726 0.35753 0.19982 0.0
C503 C 0.33195 0.40871 0.18131 0.0
O504 O 0.36027 0.42553 0.18431 0.0
N505 N 0.38424 0.4226 0.23923 0.0
C506 C 0.42303 0.43499 0.24908 0.0
C507 C 0.40634 0.45534 0.2568 0.0
C508 C 0.34409 0.43568 0.24196 0.0
N509 N 0.35676 0.45582 0.25224 0.0
C510 C 0.48895 0.3954 0.21922 0.0
C511 C 0.48724 0.38992 0.16264 0.0
C512 C 0.5323 0.39491 0.17655 0.0
C513 C 0.53323 0.39714 0.20507 0.0
C514 C 0.44354 0.38847 0.17768 0.0
N515 N 0.4442 0.39258 0.20577 0.0
H516 H 0.49082 0.39681 0.24121 0.0
H517 H 0.40961 0.38389 0.16653 0.0
H518 H 0.46081 0.42987 0.25144 0.0
H519 H 0.3063 0.43051 0.23678 0.0
O520 O 0.4138 0.38891 0.26203 0.0
O521 O 0.33232 0.39038 0.2545 0.0
O522 O 0.33833 0.39459 0.19603 0.0
C523 C 0.36858 0.38852 0.27143 0.0
H524 H 0.32942 0.31692 0.19223 0.0
H525 H 0.42913 0.46879 0.26511 0.0
H526 H 0.48569 0.38756 0.14044 0.0
H527 H 0.56782 0.40052 0.21636 0.0
H528 H 0.1507 0.24841 0.50932 0.0
H529 H 0.2508 0.19893 0.46995 0.0
H530 H 0.31723 0.22497 0.4699 0.0
H531 H 0.1928 0.2879 0.47126 0.0
H532 H 0.18734 0.30936 0.49992 0.0
H533 H 0.14718 0.28678 0.49769 0.0
H534 H 0.17667 0.28131 0.54576 0.0
H535 H 0.21668 0.30393 0.54819 0.0
H536 H 0.24252 0.27884 0.55226 0.0
H537 H 0.37354 0.25596 0.47436 0.0
H538 H 0.4164 0.29031 0.48338 0.0
H539 H 0.28014 0.32051 0.51778 0.0
C540 C 0.18647 0.243 0.50061 0.0
C541 C 0.19522 0.22139 0.48992 0.0
C542 C 0.24298 0.21515 0.47888 0.0
C543 C 0.28105 0.22992 0.47849 0.0
C544 C 0.27101 0.25099 0.48903 0.0
C545 C 0.22497 0.25759 0.49987 0.0
C546 C 0.22419 0.28129 0.50977 0.0
C547 C 0.18558 0.29196 0.49369 0.0
C548 C 0.21445 0.28665 0.54084 0.0
C549 C 0.2771 0.2869 0.50288 0.0
C550 C 0.30336 0.26912 0.49096 0.0
C551 C 0.35333 0.27001 0.48356 0.0
C552 C 0.37737 0.28955 0.4888 0.0
C553 C 0.35152 0.308 0.50113 0.0
C554 C 0.30048 0.30668 0.50792 0.0
H555 H 0.90609 0.98045 0.46725 0.0
H556 H 0.00777 0.96384 0.52804 0.0
H557 H 0.05853 0.99558 0.5254 0.0
H558 H 1.00165 0.99948 0.42562 0.0
H559 H 0.96214 1.02001 0.41698 0.0
H560 H 0.93486 0.99605 0.4239 0.0
H561 H 0.87899 1.01781 0.46141 0.0
H562 H 0.90639 0.04182 0.45478 0.0
H563 H 0.90764 0.0359 0.48899 0.0
H564 H 0.0941 0.03113 0.51818 0.0
H565 H 0.11738 0.06437 0.50271 0.0
H566 H 0.99514 0.05581 0.44451 0.0
C567 C 0.93922 0.98349 0.47988 0.0
C568 C 0.95304 0.96985 0.49797 0.0
C569 C 0.99688 0.9741 0.51397 0.0
C570 C 0.02562 0.99213 0.5127 0.0
C571 C 0.01043 1.0055 0.49494 0.0
C572 C 0.96872 1.00111 0.47843 0.0
C573 C 0.96086 1.01755 0.46052 0.0
C574 C 0.96515 1.00768 0.42994 0.0
C575 C 0.91048 0.02894 0.46682 0.0
C576 C 0.00421 0.0321 0.46972 0.0
C577 C 0.03214 0.02509 0.48983 0.0
C578 C 0.07281 0.03657 0.5022 0.0
C579 C 0.08562 0.05546 0.49346 0.0
C580 C 0.05839 0.06246 0.47226 0.0
C581 C 0.01709 0.05061 0.46043 0.0
H582 H 0.23476 0.079 0.7641 0.0
H583 H 0.13289 0.05635 0.69733 0.0
H584 H 0.17829 0.02251 0.68784 0.0
H585 H 0.34812 0.05207 0.73188 0.0
H586 H 0.37119 0.04592 0.76374 0.0
H587 H 0.33372 0.0692 0.76387 0.0
H588 H 0.2721 0.05678 0.79773 0.0
H589 H 0.30901 0.03339 0.79764 0.0
H590 H 0.24365 0.03118 0.78885 0.0
H591 H 0.22973 0.99065 0.6874 0.0
H592 H 0.2859 0.9622 0.69537 0.0
H593 H 0.35549 1.00438 0.76295 0.0
C594 C 0.22295 0.06703 0.74712 0.0
C595 C 0.18044 0.07023 0.73134 0.0
C596 C 0.16517 0.05411 0.70968 0.0
C597 C 0.19084 0.0349 0.70409 0.0
C598 C 0.23179 0.032 0.72037 0.0
C599 C 0.24806 0.04758 0.74138 0.0
C600 C 0.29147 0.03974 0.75668 0.0
C601 C 0.33894 0.05249 0.75386 0.0
C602 C 0.27824 0.0403 0.78702 0.0
C603 C 0.29636 1.01726 0.74119 0.0
C604 C 0.26164 1.01328 0.72026 0.0
C605 C 0.25729 0.99358 0.70362 0.0
C606 C 0.28919 0.97742 0.70848 0.0
C607 C 0.3251 0.98093 0.72985 0.0
C608 C 0.32886 1.00124 0.74627 0.0
H609 H 0.9304 0.29733 0.70952 0.0
H610 H 0.97498 0.3444 0.77929 0.0
H611 H 0.02523 0.3178 0.79702 0.0
H612 H 0.92165 0.25336 0.74738 0.0
H613 H 0.94608 0.23432 0.71936 0.0
H614 H 0.91153 0.25684 0.71247 0.0
H615 H 0.98588 0.26702 0.68418 0.0
H616 H 0.02064 0.24457 0.691 0.0
H617 H 0.04685 0.27059 0.69979 0.0
H618 H 0.07436 0.287 0.8061 0.0
H619 H 0.11832 0.25338 0.80641 0.0
H620 H 0.04126 0.22535 0.7318 0.0
C621 C 0.95015 0.30195 0.72872 0.0
C622 C 0.949 0.32309 0.74282 0.0
C623 C 0.97593 0.3285 0.76774 0.0
C624 C 0.00432 0.31343 0.77815 0.0
C625 C 0.00529 0.29288 0.76357 0.0
C626 C 0.97877 0.28703 0.73949 0.0
C627 C 0.98763 0.26393 0.72753 0.0
C628 C 0.93881 0.25137 0.72664 0.0
C629 C 0.01169 0.26139 0.69893 0.0
C630 C 0.02381 0.25786 0.74847 0.0
C631 C 0.03329 0.27485 0.7691 0.0
C632 C 0.06697 0.27354 0.79018 0.0
C633 C 0.09198 0.25442 0.79011 0.0
C634 C 0.0832 0.23677 0.76918 0.0
C635 C 0.04813 0.23849 0.74827 0.0
H636 H 0.79321 0.80672 0.53107 0.0
H637 H 0.8469 0.80813 0.44912 0.0
H638 H 0.79993 0.77534 0.43139 0.0
H639 H 0.79408 0.75081 0.52764 0.0
H640 H 0.73669 0.75031 0.54649 0.0
H641 H 0.77553 0.7734 0.55261 0.0
H642 H 0.70087 0.79633 0.54197 0.0
H643 H 0.66171 0.77334 0.536 0.0
H644 H 0.66804 0.78929 0.50984 0.0
H645 H 0.75093 0.74098 0.42361 0.0
H646 H 0.69441 0.71075 0.42506 0.0
H647 H 0.66631 0.73397 0.51121 0.0
C648 C 0.79476 0.80004 0.50941 0.0
C649 C 0.82364 0.80964 0.49133 0.0
C650 C 0.82476 0.80082 0.46309 0.0
C651 C 0.79846 0.78223 0.45296 0.0
C652 C 0.7705 0.77296 0.47136 0.0
C653 C 0.76769 0.78183 0.4989 0.0
C654 C 0.73314 0.76938 0.51414 0.0
C655 C 0.76158 0.76045 0.53654 0.0
C656 C 0.68828 0.78289 0.52619 0.0
C657 C 0.71727 0.75201 0.49097 0.0
C658 C 0.73986 0.75412 0.46653 0.0
C659 C 0.73256 0.73935 0.44256 0.0
C660 C 0.70072 0.72223 0.44354 0.0
C661 C 0.67585 0.72029 0.46813 0.0
C662 C 0.68445 0.73534 0.49209 0.0
H663 H 0.83472 0.98698 0.28146 0.0
H664 H 0.84504 0.96742 0.19341 0.0
H665 H 0.79848 0.99943 0.18671 0.0
H666 H 0.70906 1.00498 0.28092 0.0
H667 H 0.71698 0.02665 0.3091 0.0
H668 H 0.75575 1.00355 0.30681 0.0
H669 H 0.83489 0.02675 0.30874 0.0
H670 H 0.79628 0.04994 0.31094 0.0
H671 H 0.84238 0.044 0.28416 0.0
H672 H 0.75051 0.03376 0.18989 0.0
H673 H 0.69538 0.06506 0.20257 0.0
H674 H 0.70948 0.06029 0.28828 0.0
C675 C 0.82771 0.98973 0.26085 0.0
C676 C 0.8439 0.97506 0.23789 0.0
C677 C 0.83305 0.97867 0.21115 0.0
C678 C 0.80692 0.9968 0.20721 0.0
C679 C 0.79116 1.011 0.23028 0.0
C680 C 0.8005 1.0075 0.25659 0.0
C681 C 0.77556 0.02416 0.27782 0.0
C682 C 0.73705 1.01424 0.29464 0.0
C683 C 0.81461 0.03697 0.29652 0.0
C684 C 0.75043 0.03745 0.25937 0.0
C685 C 0.76081 0.02991 0.23204 0.0
C686 C 0.74203 0.03976 0.21123 0.0
C687 C 0.71104 0.05753 0.21853 0.0
C688 C 0.6983 0.06488 0.24628 0.0
C689 C 0.71866 0.05482 0.2669 0.0
H690 H 0.97122 0.81762 0.24189 0.0
H691 H 0.87271 0.78913 0.17598 0.0
H692 H 0.9047 0.75404 0.1801 0.0
H693 H 0.07631 0.78203 0.22213 0.0
H694 H 0.09409 0.78126 0.25705 0.0
H695 H 0.06381 0.80434 0.24885 0.0
H696 H 0.99526 0.80161 0.28487 0.0
H697 H 0.02514 0.77846 0.29308 0.0
H698 H 0.96054 0.77749 0.28265 0.0
H699 H 0.94526 0.72194 0.19185 0.0
H700 H 0.99483 0.69488 0.20926 0.0
H701 H 0.06883 0.74365 0.26705 0.0
C702 C 0.9568 0.80406 0.22808 0.0
C703 C 0.91896 0.80624 0.20873 0.0
C704 C 0.9009 0.78794 0.1913 0.0
C705 C 0.91907 0.7679 0.19337 0.0
C706 C 0.95566 0.76629 0.21287 0.0
C707 C 0.97468 0.78384 0.22981 0.0
C708 C 0.01385 0.77758 0.24909 0.0
C709 C 0.06505 0.78686 0.24396 0.0
C710 C 0.99771 0.78418 0.2792 0.0
C711 C 0.01361 0.75379 0.24036 0.0
C712 C 0.97961 0.74766 0.21949 0.0
C713 C 0.97202 0.72654 0.20821 0.0
C714 C 1.00008 0.71125 0.21841 0.0
C715 C 0.03553 0.71708 0.23967 0.0
C716 C 0.04226 0.7387 0.2507 0.0
H717 H 0.35053 0.80027 0.97474 0.0
H718 H 0.26134 0.84524 0.03053 0.0
H719 H 0.19772 0.81793 0.03189 0.0
H720 H 0.24873 0.77396 0.93638 0.0
H721 H 0.27701 0.74819 0.93239 0.0
H722 H 0.31579 0.77125 0.93602 0.0
H723 H 0.36056 0.7599 0.97747 0.0
H724 H 0.32168 0.73686 0.97404 0.0
H725 H 0.3242 0.75499 0.00626 0.0
H726 H 0.14253 0.78628 0.02597 0.0
H727 H 0.09905 0.75221 0.01298 0.0
H728 H 0.22517 0.72705 0.96281 0.0
C729 C 0.31786 0.80435 0.98743 0.0
C730 C 0.31092 0.825 0.00242 0.0
C731 C 0.26718 0.8297 0.01847 0.0
C732 C 0.23101 0.81422 0.01958 0.0
C733 C 0.23912 0.79407 0.00458 0.0
C734 C 0.28143 0.78907 0.98881 0.0
C735 C 0.28055 0.76627 0.97425 0.0
C736 C 0.2805 0.76484 0.94291 0.0
C737 C 0.32435 0.75377 0.98358 0.0
C738 C 0.23104 0.75924 0.98428 0.0
C739 C 0.20777 0.77558 0.00171 0.0
C740 C 0.16057 0.77334 0.01256 0.0
C741 C 0.13618 0.754 0.00509 0.0
C742 C 0.15912 0.7371 0.9872 0.0
C743 C 0.20746 0.73965 0.97698 0.0
H744 H 0.97362 0.48063 -0.00779 0.0
H745 H 0.89719 0.51167 0.06568 0.0
H746 H 0.93765 0.54517 0.06159 0.0
H747 H 0.09127 0.51047 0.00504 0.0
H748 H 0.10031 0.51163 0.96928 0.0
H749 H 0.06793 0.48964 0.97893 0.0
H750 H 0.99212 0.49683 0.94935 0.0
H751 H 0.02407 0.5189 0.93976 0.0
H752 H 0.96321 0.52253 0.95545 0.0
H753 H 0.98153 0.5757 0.04821 0.0
H754 H 0.0288 0.60133 0.02703 0.0
H755 H 0.07824 0.55102 0.96229 0.0
C756 C 0.96626 0.49439 0.00771 0.0
C757 C 0.93204 0.49354 0.02922 0.0
C758 C 0.92272 0.512 0.04885 0.0
C759 C 0.94574 0.53108 0.04679 0.0
C760 C 0.97831 0.53152 0.02503 0.0
C761 C 0.98896 0.51368 0.00592 0.0
C762 C 0.02399 0.51878 0.98396 0.0
C763 C 0.07384 0.50692 0.98434 0.0
C764 C 0.99936 0.51398 0.95545 0.0
C765 C 0.03065 0.5423 -0.00646 0.0
C766 C 0.00401 0.54927 0.01733 0.0
C767 C 0.00275 0.57043 0.02966 0.0
C768 C 0.02937 0.5849 0.01735 0.0
C769 C 0.05701 0.57819 -0.00704 0.0
C770 C 0.05786 0.55655 0.98108 0.0
H771 H 0.14814 0.53595 0.21768 0.0
H772 H 0.20693 0.58064 0.28629 0.0
H773 H 0.26555 0.55372 0.29673 0.0
H774 H 0.15663 0.48996 0.25099 0.0
H775 H 0.1755 0.4721 0.22047 0.0
H776 H 0.13635 0.49443 0.21778 0.0
H777 H 0.19947 0.50738 0.18529 0.0
H778 H 0.2388 0.48496 0.18702 0.0
H779 H 0.26384 0.5112 0.19569 0.0
H780 H 0.31957 0.52275 0.29917 0.0
H781 H 0.36759 0.48959 0.29274 0.0
H782 H 0.27487 0.46413 0.22283 0.0
C783 C 0.17297 0.53999 0.23506 0.0
C784 C 0.17297 0.56056 0.25105 0.0
C785 C 0.2066 0.56522 0.27343 0.0
C786 C 0.23983 0.54993 0.2797 0.0
C787 C 0.2391 0.52994 0.26348 0.0
C788 C 0.20664 0.52487 0.24161 0.0
C789 C 0.21478 0.50226 0.22709 0.0
C790 C 0.16802 0.4889 0.22921 0.0
C791 C 0.23014 0.50141 0.19699 0.0
C792 C 0.25754 0.49565 0.24393 0.0
C793 C 0.27053 0.51186 0.26494 0.0
C794 C 0.30969 0.50992 0.28284 0.0
C795 C 0.33692 0.49105 0.27894 0.0
C796 C 0.32515 0.47428 0.25727 0.0
C797 C 0.28431 0.47655 0.2398 0.0
H798 H 0.70875 0.23844 0.951 0.0
H799 H 0.67978 0.23523 0.03603 0.0
H800 H 0.72417 0.2692 0.05052 0.0
H801 H 0.83452 0.2601 0.96245 0.0
H802 H 0.82826 0.27609 0.93629 0.0
H803 H 0.79458 0.25168 0.93324 0.0
H804 H 0.7116 0.27164 0.92886 0.0
H805 H 0.74493 0.29614 0.93222 0.0
H806 H 0.69438 0.29348 0.95532 0.0
H807 H 0.76561 0.30524 0.05485 0.0
H808 H 0.81186 0.33746 0.04932 0.0
H809 H 0.81929 0.31523 0.96158 0.0
C810 C 0.71234 0.24489 0.97265 0.0
C811 C 0.69101 0.23447 -0.00748 0.0
C812 C 0.69634 0.24308 0.02068 0.0
C813 C 0.72112 0.26236 0.02899 0.0
C814 C 0.74107 0.27249 0.0088 0.0
C815 C 0.7379 0.26377 0.98124 0.0
C816 C 0.76361 0.2774 0.96361 0.0
C817 C 0.80787 0.26561 0.94798 0.0
C818 C 0.7264 0.28512 0.94384 0.0
C819 C 0.78119 0.29535 0.98547 0.0
C820 C 0.76724 0.29242 0.0114 0.0
C821 C 0.77733 0.3075 0.03468 0.0
C822 C 0.80321 0.32579 0.03137 0.0
C823 C 0.81939 0.32863 0.00509 0.0
C824 C 0.80793 0.31324 0.98192 0.0
H825 H 0.71583 0.57658 0.75919 0.0
H826 H 0.61172 0.54962 0.69533 0.0
H827 H 0.6578 0.51607 0.68894 0.0
H828 H 0.82742 0.54974 0.72668 0.0
H829 H 0.85431 0.5457 0.75872 0.0
H830 H 0.8143 0.56809 0.75785 0.0
H831 H 0.75748 0.55669 0.79474 0.0
H832 H 0.79709 0.53421 0.79567 0.0
H833 H 0.73128 0.53057 0.78876 0.0
H834 H 0.71161 0.48513 0.69055 0.0
H835 H 0.77261 0.45853 0.69894 0.0
H836 H 0.84436 0.50476 0.76127 0.0
C837 C 0.70325 0.5637 0.74362 0.0
C838 C 0.6598 0.56571 0.72793 0.0
C839 C 0.64424 0.54838 0.70795 0.0
C840 C 0.67038 0.52927 0.70402 0.0
C841 C 0.71233 0.52767 0.72011 0.0
C842 C 0.72904 0.54437 0.7394 0.0
C843 C 0.77478 0.53808 0.7543 0.0
C844 C 0.82041 0.55118 0.74906 0.0
C845 C 0.76452 0.54 0.7852 0.0
C846 C 0.78066 0.5152 0.74048 0.0
C847 C 0.74413 0.50962 0.72084 0.0
C848 C 0.74059 0.48931 0.70578 0.0
C849 C 0.77537 0.47422 0.71085 0.0
C850 C 0.81352 0.47943 0.73076 0.0
C851 C 0.81612 0.5003 0.74569 0.0
H852 H 0.6 0.06546 0.01729 0.0
H853 H 0.5294 0.07517 0.94192 0.0
H854 H 0.47814 0.04306 0.94138 0.0
H855 H 0.60485 1.00926 0.00349 0.0
H856 H 0.58949 1.00638 0.03804 0.0
H857 H 0.6211 0.02968 0.03195 0.0
H858 H 0.5512 0.05308 0.05788 0.0
H859 H 0.51963 0.02986 0.06427 0.0
H860 H 0.48711 0.04846 0.04737 0.0
H861 H 0.43895 1.00837 0.94801 0.0
H862 H 0.40562 0.9771 0.96483 0.0
H863 H 0.49623 0.99242 0.03804 0.0
C864 C 0.57357 0.06074 0.00078 0.0
C865 C 0.56854 0.07247 0.97951 0.0
C866 C 0.53337 0.06623 0.95833 0.0
C867 C 0.50449 0.04803 0.95783 0.0
C868 C 0.51069 0.03659 0.979 0.0
C869 C 0.54361 0.04299 0.0004 0.0
C870 C 0.5415 0.02862 0.0214 0.0
C871 C 0.59225 1.01785 0.02385 0.0
C872 C 0.52379 0.04073 0.04938 0.0
C873 C 0.50271 1.01296 0.00836 0.0
C874 C 0.48592 1.01758 0.98368 0.0
C875 C 0.45141 1.00477 0.96745 0.0
C876 C 0.43292 0.98704 0.97699 0.0
C877 C 0.44827 0.98263 0.00269 0.0
C878 C 0.48372 0.99569 0.01843 0.0
H879 H 0.46839 0.31894 0.24826 0.0
H880 H 0.39004 0.29119 0.1739 0.0
H881 H 0.42776 0.25666 0.17631 0.0
H882 H 0.58333 0.28792 0.23381 0.0
H883 H 0.59254 0.28547 0.26916 0.0
H884 H 0.56102 0.30827 0.26094 0.0
H885 H 0.48509 0.30087 0.29009 0.0
H886 H 0.5162 0.27798 0.29825 0.0
H887 H 0.4551 0.27552 0.2827 0.0
H888 H 0.47119 0.22481 0.18761 0.0
H889 H 0.51974 0.19804 0.20632 0.0
H890 H 0.56992 0.24615 0.27352 0.0
C891 C 0.45988 0.30568 0.23226 0.0
C892 C 0.42604 0.30779 0.21093 0.0
C893 C 0.41528 0.28993 0.19062 0.0
C894 C 0.43672 0.27025 0.19173 0.0
C895 C 0.46907 0.26861 0.21328 0.0
C896 C 0.4809 0.28584 0.23311 0.0
C897 C 0.51583 0.27959 0.25445 0.0
C898 C 0.56617 0.29099 0.25459 0.0
C899 C 0.49159 0.28374 0.28306 0.0
C900 C 0.52141 0.25617 0.24359 0.0
C901 C 0.49416 0.25018 0.21981 0.0
C902 C 0.49276 0.22931 0.20621 0.0
C903 C 0.52016 0.21416 0.21714 0.0
C904 C 0.54865 0.2199 0.24145 0.0
C905 C 0.54906 0.24125 0.25476 0.0
H906 H 0.48237 0.82802 0.74965 0.0
H907 H 0.39847 0.80005 0.67748 0.0
H908 H 0.4414 0.7661 0.67722 0.0
H909 H 0.59992 0.79828 0.7319 0.0
H910 H 0.61196 0.79523 0.7668 0.0
H911 H 0.57829 0.81799 0.75998 0.0
H912 H 0.50509 0.80935 0.79017 0.0
H913 H 0.53843 0.78656 0.79703 0.0
H914 H 0.47643 0.78373 0.78263 0.0
H915 H 0.48919 0.73505 0.68573 0.0
H916 H 0.53743 0.70785 0.70339 0.0
H917 H 0.58994 0.75471 0.77136 0.0
C918 C 0.47396 0.81481 0.73354 0.0
C919 C 0.43731 0.81662 0.71344 0.0
C920 C 0.42629 0.79891 0.69304 0.0
C921 C 0.45066 0.77963 0.69266 0.0
C922 C 0.48594 0.77822 0.71295 0.0
C923 C 0.49766 0.79525 0.73307 0.0
C924 C 0.53467 0.7889 0.75348 0.0
C925 C 0.58415 0.80081 0.753 0.0
C926 C 0.5123 0.79234 0.78254 0.0
C927 C 0.54118 0.76559 0.74187 0.0
C928 C 0.51303 0.75993 0.71831 0.0
C929 C 0.51141 0.73928 0.70416 0.0
C930 C 0.53865 0.72388 0.71451 0.0
C931 C 0.56701 0.72906 0.73897 0.0
C932 C 0.5689 0.75032 0.75255 0.0
H933 H 0.57957 0.53624 0.44893 0.0
H934 H 0.52618 0.58432 0.5155 0.0
H935 H 0.48084 0.55735 0.53489 0.0
H936 H 0.46848 0.50614 0.44005 0.0
H937 H 0.49935 0.48087 0.43323 0.0
H938 H 0.53005 0.50374 0.42509 0.0
H939 H 0.60579 0.49695 0.45496 0.0
H940 H 0.57527 0.47404 0.4632 0.0
H941 H 0.59606 0.49467 0.49032 0.0
H942 H 0.43711 0.52595 0.54572 0.0
H943 H 0.39797 0.49166 0.54751 0.0
H944 H 0.48092 0.463 0.47528 0.0
C945 C 0.55897 0.54104 0.4678 0.0
C946 C 0.55626 0.56253 0.4805 0.0
C947 C 0.52822 0.56813 0.505 0.0
C948 C 0.50263 0.55285 0.51637 0.0
C949 C 0.50558 0.53193 0.50318 0.0
C950 C 0.53316 0.52593 0.47951 0.0
C951 C 0.52853 0.50239 0.469 0.0
C952 C 0.50521 0.49804 0.44013 0.0
C953 C 0.57945 0.49136 0.4694 0.0
C954 C 0.49336 0.49621 0.49022 0.0
C955 C 0.48084 0.51355 0.50977 0.0
C956 C 0.447 0.51222 0.5307 0.0
C957 C 0.42485 0.49272 0.5315 0.0
C958 C 0.43664 0.47473 0.51164 0.0
C959 C 0.47199 0.47645 0.49097 0.0
H960 H 0.22523 0.18189 0.39876 0.0
H961 H 0.18685 0.11625 0.39605 0.0
H962 H 0.25405 0.10561 0.36213 0.0
H963 H 0.2596 0.1776 0.32624 0.0
H964 H 0.3104 0.19594 0.33404 0.0
H965 H 0.25614 0.19834 0.35588 0.0
H966 H 0.31277 0.19663 0.39792 0.0
H967 H 0.36713 0.19409 0.37624 0.0
H968 H 0.35455 0.17455 0.39714 0.0
H969 H 0.32894 0.10214 0.33104 0.0
H970 H 0.4065 0.10597 0.30556 0.0
H971 H 0.39579 0.17395 0.32903 0.0
C972 C 0.23015 0.16528 0.39063 0.0
C973 C 0.20052 0.14989 0.39987 0.0
C974 C 0.20898 0.12831 0.38916 0.0
C975 C 0.24697 0.12212 0.36987 0.0
C976 C 0.27607 0.13772 0.36158 0.0
C977 C 0.26802 0.15885 0.37159 0.0
C978 C 0.30647 0.17244 0.36082 0.0
C979 C 0.28166 0.18693 0.34319 0.0
C980 C 0.33703 0.18517 0.38444 0.0
C981 C 0.338 0.15563 0.34351 0.0
C982 C 0.31958 0.13572 0.34399 0.0
C983 C 0.34336 0.11766 0.33024 0.0
C984 C 0.38726 0.12001 0.31572 0.0
C985 C 0.40708 0.14027 0.31518 0.0
C986 C 0.38174 0.15826 0.32915 0.0
H987 H 0.74613 0.14618 0.31027 0.0
H988 H 0.63144 0.14943 0.37262 0.0
H989 H 0.69628 0.15587 0.40883 0.0
H990 H 0.83098 0.11693 0.34281 0.0
H991 H 0.88603 0.12935 0.3323 0.0
H992 H 0.83036 0.12768 0.31164 0.0
H993 H 0.83093 0.1682 0.31463 0.0
H994 H 0.88667 0.17 0.33535 0.0
H995 H 0.83202 0.18513 0.3478 0.0
H996 H 0.77361 0.16065 0.43786 0.0
H997 H 0.85797 0.16056 0.45781 0.0
H998 H 0.92205 0.15111 0.37596 0.0
C999 C 0.73469 0.1487 0.33158 0.0
C1000 C 0.68398 0.14764 0.33884 0.0
C1001 C 0.67025 0.15032 0.36681 0.0
C1002 C 0.70671 0.15407 0.38743 0.0
C1003 C 0.75657 0.1548 0.3796 0.0
C1004 C 0.77062 0.15199 0.35234 0.0
C1005 C 0.82685 0.15144 0.34929 0.0
C1006 C 0.84458 0.13008 0.33306 0.0
C1007 C 0.84518 0.16979 0.33599 0.0
C1008 C 0.84228 0.15425 0.37911 0.0
C1009 C 0.80122 0.15648 0.39627 0.0
C1010 C 0.80606 0.15886 0.42463 0.0
C1011 C 0.85416 0.15861 0.43574 0.0
C1012 C 0.89679 0.15565 0.41847 0.0
C1013 C 0.89048 0.15372 0.3898 0.0
H1014 H 0.24972 0.11213 0.82436 0.0
H1015 H 0.2151 0.17855 0.83023 0.0
H1016 H 0.28572 0.18768 0.86203 0.0
H1017 H 0.29091 0.11463 0.89534 0.0
H1018 H 0.34095 0.09593 0.88621 0.0
H1019 H 0.28551 0.09436 0.86528 0.0
H1020 H 0.3398 0.09637 0.82264 0.0
H1021 H 0.39542 0.09811 0.84342 0.0
H1022 H 0.38197 0.11816 0.82335 0.0
H1023 H 0.35966 0.18992 0.89203 0.0
H1024 H 0.43538 0.18527 0.91869 0.0
H1025 H 0.42609 0.11752 0.89251 0.0
C1026 C 0.25667 0.12854 0.83276 0.0
C1027 C 0.22693 0.14467 0.82509 0.0
C1028 C 0.23758 0.166 0.8359 0.0
C1029 C 0.27748 0.17133 0.854 0.0
C1030 C 0.30667 0.15515 0.86083 0.0
C1031 C 0.29705 0.13419 0.85058 0.0
C1032 C 0.336 0.12004 0.86034 0.0
C1033 C 0.31189 0.10538 0.87784 0.0
C1034 C 0.36501 0.10743 0.83598 0.0
C1035 C 0.3689 0.13638 0.87762 0.0
C1036 C 0.35086 0.15649 0.8777 0.0
C1037 C 0.37418 0.17428 0.89223 0.0
C1038 C 0.41701 0.17147 0.90734 0.0
C1039 C 0.43629 0.15106 0.90768 0.0
C1040 C 0.41216 0.13329 0.89243 0.0
H1041 H 0.89372 0.17275 0.81673 0.0
H1042 H 0.98241 0.12705 0.85042 0.0
H1043 H 0.91094 0.12022 0.879 0.0
H1044 H 0.83365 0.19467 0.87965 0.0
H1045 H 0.77447 0.19892 0.86408 0.0
H1046 H 0.8313 0.1991 0.84475 0.0
H1047 H 0.79561 0.17004 0.80673 0.0
H1048 H 0.73873 0.1697 0.82606 0.0
H1049 H 0.77389 0.14572 0.8156 0.0
H1050 H 0.83181 0.11892 0.90451 0.0
H1051 H 0.7514 0.12514 0.92857 0.0
H1052 H 0.71369 0.1726 0.87969 0.0
C1053 C 0.89771 0.16118 0.82997 0.0
C1054 C 0.9433 0.15035 0.83144 0.0
C1055 C 0.94774 0.13556 0.84922 0.0
C1056 C 0.90732 0.13148 0.86533 0.0
C1057 C 0.86289 0.14243 0.86351 0.0
C1058 C 0.85786 0.15712 0.84652 0.0
C1059 C 0.80695 0.16764 0.84987 0.0
C1060 C 0.81191 0.19149 0.86021 0.0
C1061 C 0.77703 0.16299 0.82296 0.0
C1062 C 0.78445 0.15669 0.87158 0.0
C1063 C 0.81722 0.14203 0.87885 0.0
C1064 C 0.80571 0.13031 0.89897 0.0
C1065 C 0.75987 0.13398 0.91252 0.0
C1066 C 0.72616 0.14938 0.90606 0.0
C1067 C 0.7384 0.16061 0.88495 0.0
H1068 H 0.61426 0.87998 0.66409 0.0
H1069 H 0.56165 0.94105 0.65065 0.0
H1070 H 0.63653 0.94446 0.62287 0.0
H1071 H 0.74771 0.89353 0.66913 0.0
H1072 H 0.76694 0.86783 0.65156 0.0
H1073 H 0.7106 0.87074 0.67178 0.0
H1074 H 0.66019 0.85233 0.62957 0.0
H1075 H 0.71626 0.8494 0.60924 0.0
H1076 H 0.66267 0.86263 0.59808 0.0
H1077 H 0.71326 0.9401 0.59383 0.0
H1078 H 0.78782 0.92844 0.56587 0.0
H1079 H 0.79262 0.87088 0.59966 0.0
C1080 C 0.61894 0.89425 0.65575 0.0
C1081 C 0.58196 0.91021 0.65945 0.0
C1082 C 0.58907 0.92847 0.64775 0.0
C1083 C 0.63169 0.93064 0.63214 0.0
C1084 C 0.66706 0.91451 0.62863 0.0
C1085 C 0.66135 0.89672 0.64021 0.0
C1086 C 0.70391 0.8813 0.6323 0.0
C1087 C 0.73408 0.87817 0.65771 0.0
C1088 C 0.68459 0.86017 0.61635 0.0
C1089 C 0.73391 0.89303 0.61402 0.0
C1090 C 0.71206 0.91219 0.61227 0.0
C1091 C 0.73112 0.92527 0.59531 0.0
C1092 C 0.77336 0.91849 0.57946 0.0
C1093 C 0.79615 0.89885 0.58081 0.0
C1094 C 0.77652 0.88615 0.59863 0.0
H1095 H 0.28422 0.86323 0.63107 0.0
H1096 H 0.30559 0.92904 0.66648 0.0
H1097 H 0.23417 0.9388 0.63978 0.0
H1098 H 0.24271 0.8716 0.5622 0.0
H1099 H 0.1971 0.85084 0.5591 0.0
H1100 H 0.25337 0.84922 0.57865 0.0
H1101 H 0.20018 0.84484 0.62091 0.0
H1102 H 0.14382 0.8466 0.60159 0.0
H1103 H 0.15357 0.86441 0.63359 0.0
H1104 H 0.15701 0.94122 0.61253 0.0
H1105 H 0.07905 0.93624 0.58553 0.0
H1106 H 0.10602 0.86879 0.56814 0.0
C1107 C 0.27451 0.87971 0.63259 0.0
C1108 C 0.3002 0.89544 0.65077 0.0
C1109 C 0.28593 0.9168 0.6528 0.0
C1110 C 0.24566 0.92249 0.63761 0.0
C1111 C 0.22007 0.9066 0.62043 0.0
C1112 C 0.23396 0.88565 0.61768 0.0
C1113 C 0.19786 0.87162 0.59922 0.0
C1114 C 0.22435 0.86015 0.57325 0.0
C1115 C 0.17235 0.85595 0.61477 0.0
C1116 C 0.16115 0.88792 0.59253 0.0
C1117 C 0.17494 0.908 0.60481 0.0
C1118 C 0.14595 0.92559 0.60261 0.0
C1119 C 0.10155 0.92259 0.58744 0.0
C1120 C 0.08644 0.90214 0.57477 0.0
C1121 C 0.11697 0.88464 0.57725 0.0
H1122 H 0.79637 0.86444 0.12303 0.0
H1123 H 0.81166 0.92774 0.16956 0.0
H1124 H 0.74071 0.93957 0.14445 0.0
H1125 H 0.75529 0.8804 0.05711 0.0
H1126 H 0.7119 0.85884 0.04976 0.0
H1127 H 0.76844 0.85596 0.06859 0.0
H1128 H 0.716 0.84556 0.10797 0.0
H1129 H 0.65938 0.84861 0.08946 0.0
H1130 H 0.66759 0.86311 0.12381 0.0
H1131 H 0.66235 0.9435 0.11944 0.0
H1132 H 0.58293 0.93974 0.09357 0.0
H1133 H 0.61817 0.87422 0.06212 0.0
C1134 C 0.78562 0.8809 0.12725 0.0
C1135 C 0.8091 0.89519 0.14828 0.0
C1136 C 0.79355 0.91652 0.15377 0.0
C1137 C 0.75358 0.92342 0.13947 0.0
C1138 C 0.72983 0.9088 0.11958 0.0
C1139 C 0.74549 0.88805 0.11316 0.0
C1140 C 0.71079 0.87527 0.09244 0.0
C1141 C 0.73825 0.86714 0.06537 0.0
C1142 C 0.68704 0.85707 0.10414 0.0
C1143 C 0.67242 0.89192 0.08901 0.0
C1144 C 0.68443 0.91119 0.10471 0.0
C1145 C 0.65293 0.92862 0.10664 0.0
C1146 C 0.60784 0.92631 0.0921 0.0
C1147 C 0.59488 0.90675 0.07588 0.0
C1148 C 0.62782 0.88942 0.07407 0.0
H1149 H 0.11187 0.87102 0.15514 0.0
H1150 H 0.07542 0.93753 0.16457 0.0
H1151 H 0.15235 0.94344 0.13977 0.0
H1152 H 0.24777 0.87755 0.16298 0.0
H1153 H 0.2615 0.85461 0.13748 0.0
H1154 H 0.20504 0.85568 0.15747 0.0
H1155 H 0.15265 0.84835 0.11275 0.0
H1156 H 0.20886 0.84726 0.09264 0.0
H1157 H 0.15946 0.86527 0.08773 0.0
H1158 H 0.22881 0.94187 0.11143 0.0
H1159 H 0.30132 0.93298 0.08107 0.0
H1160 H 0.29092 0.86764 0.09088 0.0
C1161 C 0.12057 0.88687 0.15236 0.0
C1162 C 0.08762 0.90382 0.16167 0.0
C1163 C 0.0998 0.92428 0.15727 0.0
C1164 C 0.14358 0.92783 0.14342 0.0
C1165 C 0.17492 0.91077 0.13423 0.0
C1166 C 0.16418 0.89069 0.13852 0.0
C1167 C 0.20319 0.87499 0.12535 0.0
C1168 C 0.23103 0.86513 0.14713 0.0
C1169 C 0.17962 0.85797 0.10331 0.0
C1170 C 0.23703 0.88935 0.11263 0.0
C1171 C 0.22002 0.90993 0.11814 0.0
C1172 C 0.24298 0.92589 0.10728 0.0
C1173 C 0.28414 0.92066 0.09002 0.0
C1174 C 0.30214 0.89968 0.08391 0.0
C1175 C 0.27864 0.8839 0.0957 0.0
H1176 H 0.21335 0.68272 0.88545 0.0
H1177 H 0.20744 0.62073 0.9078 0.0
H1178 H 0.28149 0.60988 0.87926 0.0
H1179 H 0.25625 0.66502 0.81431 0.0
H1180 H 0.29649 0.68743 0.81513 0.0
H1181 H 0.24043 0.68987 0.83557 0.0
H1182 H 0.2928 0.70337 0.87918 0.0
H1183 H 0.349 0.70086 0.85893 0.0
H1184 H 0.34409 0.68761 0.8879 0.0
H1185 H 0.35907 0.60639 0.85112 0.0
H1186 H 0.43443 0.61021 0.82384 0.0
H1187 H 0.39094 0.67443 0.81969 0.0
C1188 C 0.22707 0.66674 0.8839 0.0
C1189 C 0.20462 0.65258 0.89888 0.0
C1190 C 0.22417 0.6319 0.89666 0.0
C1191 C 0.26614 0.62555 0.88041 0.0
C1192 C 0.28809 0.64002 0.86642 0.0
C1193 C 0.26915 0.66014 0.86781 0.0
C1194 C 0.30136 0.67289 0.85173 0.0
C1195 C 0.27187 0.67917 0.82776 0.0
C1196 C 0.32309 0.69232 0.87057 0.0
C1197 C 0.34171 0.65687 0.84149 0.0
C1198 C 0.33315 0.638 0.85012 0.0
C1199 C 0.36607 0.62104 0.84408 0.0
C1200 C 0.40894 0.62341 0.82878 0.0
C1201 C 0.41859 0.64262 0.81972 0.0
C1202 C 0.38424 0.65949 0.82607 0.0
H1203 H 0.71029 0.68089 0.84952 0.0
H1204 H 0.7068 0.61904 0.79772 0.0
H1205 H 0.77899 0.60802 0.82252 0.0
H1206 H 0.84105 0.68559 0.85154 0.0
H1207 H 0.84459 0.69878 0.88679 0.0
H1208 H 0.78931 0.70138 0.86693 0.0
H1209 H 0.73513 0.68786 0.90341 0.0
H1210 H 0.79031 0.68531 0.92348 0.0
H1211 H 0.75009 0.66295 0.91316 0.0
H1212 H 0.85518 0.60442 0.84994 0.0
H1213 H 0.93029 0.60835 0.87942 0.0
H1214 H 0.88556 0.67237 0.91366 0.0
C1215 C 0.72414 0.66492 0.84383 0.0
C1216 C 0.70293 0.65084 0.82171 0.0
C1217 C 0.72262 0.63016 0.81451 0.0
C1218 C 0.76352 0.62369 0.82855 0.0
C1219 C 0.78435 0.63805 0.84982 0.0
C1220 C 0.76533 0.6582 0.85759 0.0
C1221 C 0.79678 0.67085 0.88013 0.0
C1222 C 0.81926 0.6903 0.87077 0.0
C1223 C 0.76625 0.67711 0.90662 0.0
C1224 C 0.83676 0.65477 0.88338 0.0
C1225 C 0.82867 0.63593 0.86578 0.0
C1226 C 0.86174 0.61902 0.86403 0.0
C1227 C 0.9044 0.62143 0.88069 0.0
C1228 C 0.91358 0.64062 0.89883 0.0
C1229 C 0.87901 0.65741 0.9003 0.0
H1230 H 0.21449 0.68055 0.33472 0.0
H1231 H 0.16745 0.61528 0.31907 0.0
H1232 H 0.23927 0.60575 0.34571 0.0
H1233 H 0.34314 0.6694 0.32574 0.0
H1234 H 0.36424 0.69053 0.35209 0.0
H1235 H 0.30601 0.69299 0.33468 0.0
H1236 H 0.25936 0.70013 0.38123 0.0
H1237 H 0.31759 0.69798 0.39884 0.0
H1238 H 0.26546 0.68167 0.40438 0.0
H1239 H 0.31696 0.6029 0.37207 0.0
H1240 H 0.39771 0.60675 0.39657 0.0
H1241 H 0.39864 0.67342 0.39309 0.0
C1242 C 0.21871 0.6644 0.33767 0.0
C1243 C 0.18518 0.64866 0.32537 0.0
C1244 C 0.19261 0.62754 0.32866 0.0
C1245 C 0.23323 0.62199 0.34371 0.0
C1246 C 0.26641 0.63773 0.35505 0.0
C1247 C 0.25979 0.65851 0.35225 0.0
C1248 C 0.30317 0.67197 0.36483 0.0
C1249 C 0.33076 0.6818 0.34303 0.0
C1250 C 0.28532 0.68894 0.38874 0.0
C1251 C 0.33518 0.65548 0.37496 0.0
C1252 C 0.31287 0.6359 0.3693 0.0
C1253 C 0.3348 0.61814 0.37669 0.0
C1254 C 0.38057 0.62046 0.39054 0.0
C1255 C 0.40422 0.64033 0.39657 0.0
C1256 C 0.38143 0.65803 0.38846 0.0
H1257 H 0.73237 0.64445 0.40937 0.0
H1258 H 0.6384 0.60366 0.35125 0.0
H1259 H 0.7062 0.60025 0.31696 0.0
H1260 H 0.79181 0.67157 0.36031 0.0
H1261 H 0.85166 0.6728 0.37723 0.0
H1262 H 0.79519 0.67244 0.39685 0.0
H1263 H 0.82806 0.63986 0.41541 0.0
H1264 H 0.88448 0.64002 0.39568 0.0
H1265 H 0.84663 0.61663 0.39156 0.0
H1266 H 0.78429 0.60102 0.2892 0.0
H1267 H 0.86725 0.60603 0.26968 0.0
H1268 H 0.91093 0.64585 0.34612 0.0
C1269 C 0.72583 0.6349 0.38938 0.0
C1270 C 0.67995 0.62434 0.38298 0.0
C1271 C 0.67316 0.6119 0.35663 0.0
C1272 C 0.71146 0.60986 0.33702 0.0
C1273 C 0.75635 0.6203 0.34411 0.0
C1274 C 0.76371 0.6326 0.36963 0.0
C1275 C 0.81574 0.64192 0.37221 0.0
C1276 C 0.81344 0.66612 0.37692 0.0
C1277 C 0.84547 0.63413 0.39507 0.0
C1278 C 0.83659 0.6329 0.34413 0.0
C1279 C 0.80163 0.62054 0.32822 0.0
C1280 C 0.81193 0.61069 0.30143 0.0
C1281 C 0.85906 0.61368 0.29051 0.0
C1282 C 0.89544 0.62636 0.30637 0.0
C1283 C 0.88403 0.63592 0.33362 0.0
H1284 H 0.59956 0.36664 0.14886 0.0
H1285 H 0.56691 0.43326 0.17205 0.0
H1286 H 0.64456 0.44175 0.14932 0.0
H1287 H 0.73353 0.37096 0.15913 0.0
H1288 H 0.74858 0.35079 0.13012 0.0
H1289 H 0.69033 0.34979 0.14801 0.0
H1290 H 0.64168 0.34858 0.10248 0.0
H1291 H 0.69982 0.34937 0.08447 0.0
H1292 H 0.6521 0.3688 0.08232 0.0
H1293 H 0.72274 0.44301 0.12277 0.0
H1294 H 0.7982 0.43705 0.09373 0.0
H1295 H 0.78386 0.36965 0.08952 0.0
C1296 C 0.60895 0.38295 0.14893 0.0
C1297 C 0.57759 0.39939 0.16186 0.0
C1298 C 0.59071 0.42058 0.16199 0.0
C1299 C 0.63465 0.4255 0.14926 0.0
C1300 C 0.66515 0.40901 0.13678 0.0
C1301 C 0.65306 0.38816 0.13648 0.0
C1302 C 0.69254 0.37352 0.12149 0.0
C1303 C 0.71774 0.3605 0.14085 0.0
C1304 C 0.6702 0.35923 0.09619 0.0
C1305 C 0.72838 0.38942 0.11325 0.0
C1306 C 0.71166 0.40979 0.12225 0.0
C1307 C 0.7366 0.42717 0.11588 0.0
C1308 C 0.77934 0.42365 0.09944 0.0
C1309 C 0.79703 0.40296 0.0899 0.0
C1310 C 0.77173 0.38565 0.09724 0.0
H1311 H 0.08664 0.43692 0.10265 0.0
H1312 H 0.07925 0.37041 0.06737 0.0
H1313 H 0.15765 0.36415 0.09083 0.0
H1314 H 0.22105 0.44157 0.09738 0.0
H1315 H 0.22752 0.45956 0.12952 0.0
H1316 H 0.17042 0.45911 0.11012 0.0
H1317 H 0.1199 0.45253 0.15234 0.0
H1318 H 0.17694 0.45311 0.17175 0.0
H1319 H 0.13636 0.4306 0.16863 0.0
H1320 H 0.23403 0.36454 0.11865 0.0
H1321 H 0.30581 0.3716 0.15014 0.0
H1322 H 0.26769 0.43809 0.16654 0.0
C1323 C 0.10153 0.42106 0.10008 0.0
C1324 C 0.07713 0.40412 0.08318 0.0
C1325 C 0.09773 0.3836 0.08005 0.0
C1326 C 0.14214 0.37989 0.09329 0.0
C1327 C 0.16572 0.3969 0.10945 0.0
C1328 C 0.14637 0.41709 0.11298 0.0
C1329 C 0.17967 0.43247 0.13158 0.0
C1330 C 0.20092 0.44916 0.11622 0.0
C1331 C 0.15151 0.44277 0.15762 0.0
C1332 C 0.22032 0.41766 0.13812 0.0
C1333 C 0.21127 0.39722 0.12509 0.0
C1334 C 0.24187 0.38048 0.12879 0.0
C1335 C 0.28246 0.38464 0.14668 0.0
C1336 C 0.29239 0.40538 0.16039 0.0
C1337 C 0.26141 0.42217 0.15576 0.0
H1338 H 0.79504 0.36461 0.63012 0.0
H1339 H 0.81432 0.42931 0.67098 0.0
H1340 H 0.74265 0.44023 0.64556 0.0
H1341 H 0.75406 0.37749 0.56264 0.0
H1342 H 0.70955 0.35627 0.55696 0.0
H1343 H 0.7658 0.3538 0.57621 0.0
H1344 H 0.71256 0.34594 0.61679 0.0
H1345 H 0.65621 0.34859 0.59782 0.0
H1346 H 0.66498 0.36447 0.63132 0.0
H1347 H 0.66366 0.44356 0.62053 0.0
H1348 H 0.58499 0.43949 0.59386 0.0
H1349 H 0.6174 0.37308 0.56731 0.0
C1350 C 0.78487 0.38112 0.63305 0.0
C1351 C 0.80966 0.39614 0.6527 0.0
C1352 C 0.795 0.41756 0.65639 0.0
C1353 C 0.75462 0.42393 0.64191 0.0
C1354 C 0.72956 0.4087 0.62348 0.0
C1355 C 0.7444 0.38779 0.61862 0.0
C1356 C 0.70905 0.37454 0.59871 0.0
C1357 C 0.73624 0.36496 0.57204 0.0
C1358 C 0.68424 0.35738 0.61197 0.0
C1359 C 0.67152 0.39118 0.59386 0.0
C1360 C 0.68421 0.41078 0.60833 0.0
C1361 C 0.65369 0.42838 0.60867 0.0
C1362 C 0.60903 0.42592 0.59367 0.0
C1363 C 0.59558 0.40605 0.57845 0.0
C1364 C 0.62741 0.38852 0.57843 0.0
H1365 H 0.11047 0.37669 0.66342 0.0
H1366 H 0.07313 0.44119 0.6574 0.0
H1367 H 0.14996 0.44347 0.63053 0.0
H1368 H 0.24547 0.38362 0.66939 0.0
H1369 H 0.25914 0.35834 0.64861 0.0
H1370 H 0.20258 0.36206 0.66861 0.0
H1371 H 0.15022 0.34931 0.62477 0.0
H1372 H 0.20656 0.34547 0.60468 0.0
H1373 H 0.15746 0.36212 0.59553 0.0
H1374 H 0.22868 0.43848 0.60329 0.0
H1375 H 0.3024 0.42609 0.57526 0.0
H1376 H 0.28906 0.36459 0.59853 0.0
C1377 C 0.11886 0.39136 0.65672 0.0
C1378 C 0.08599 0.4088 0.66251 0.0
C1379 C 0.09765 0.42761 0.65298 0.0
C1380 C 0.14134 0.4291 0.63791 0.0
C1381 C 0.17288 0.41162 0.6325 0.0
C1382 C 0.16215 0.39307 0.64147 0.0
C1383 C 0.20109 0.37628 0.63165 0.0
C1384 C 0.2287 0.3697 0.65602 0.0
C1385 C 0.17741 0.35717 0.61305 0.0
C1386 C 0.23516 0.38826 0.61553 0.0
C1387 C 0.21833 0.40866 0.61651 0.0
C1388 C 0.24238 0.42258 0.60247 0.0
C1389 C 0.28421 0.41535 0.58656 0.0
C1390 C 0.30157 0.39436 0.58471 0.0
C1391 C 0.27711 0.38078 0.5998 0.0
H1392 H 0.07133 0.15256 0.67275 0.0
H1393 H 0.23121 0.14838 0.68568 0.0
H1394 H 0.2451 0.14452 0.63572 0.0
H1395 H 0.06582 0.11447 0.61048 0.0
H1396 H 0.0189 0.12868 0.59499 0.0
H1397 H 0.0217 0.13114 0.63176 0.0
H1398 H 0.02888 0.17172 0.63676 0.0
H1399 H 0.02582 0.16939 0.60002 0.0
H1400 H 0.07768 0.18274 0.61873 0.0
H1401 H 0.24125 0.14107 0.58418 0.0
H1402 H 0.2198 0.13939 0.53519 0.0
H1403 H 0.06268 0.14574 0.55676 0.0
C1404 C 0.10928 0.15088 0.6651 0.0
C1405 C 0.15019 0.15079 0.68302 0.0
C1406 C 0.1993 0.14854 0.67224 0.0
C1407 C 0.20757 0.14628 0.64393 0.0
C1408 C 0.16633 0.14631 0.62677 0.0
C1409 C 0.11819 0.14862 0.63697 0.0
C1410 C 0.08032 0.1483 0.61425 0.0
C1411 C 0.04459 0.12953 0.61279 0.0
C1412 C 0.0515 0.16929 0.61765 0.0
C1413 C 0.11468 0.14553 0.58969 0.0
C1414 C 0.16414 0.14434 0.59725 0.0
C1415 C 0.20263 0.14196 0.57799 0.0
C1416 C 0.19012 0.14098 0.55026 0.0
C1417 C 0.13965 0.14242 0.54225 0.0
C1418 C 0.10162 0.14456 0.56225 0.0
H1419 H 0.94261 0.88194 0.42082 0.0
H1420 H 0.78341 0.88111 0.43707 0.0
H1421 H 0.76605 0.87925 0.38775 0.0
H1422 H 0.93639 0.91516 0.37252 0.0
H1423 H 0.98505 0.90209 0.35066 0.0
H1424 H 0.9853 0.90108 0.38672 0.0
H1425 H 0.98694 0.86027 0.37561 0.0
H1426 H 0.98702 0.86114 0.33944 0.0
H1427 H 0.93958 0.84647 0.35355 0.0
H1428 H 0.76581 0.88044 0.33756 0.0
H1429 H 0.78293 0.88404 0.28962 0.0
H1430 H 0.9422 0.8841 0.30629 0.0
C1431 C 0.90414 0.88096 0.41392 0.0
C1432 C 0.86434 0.88161 0.43267 0.0
C1433 C 0.81447 0.88061 0.42298 0.0
C1434 C 0.80422 0.8795 0.39502 0.0
C1435 C 0.84429 0.87931 0.37711 0.0
C1436 C 0.89327 0.87989 0.38611 0.0
C1437 C 0.92938 0.88075 0.36289 0.0
C1438 C 0.96086 0.90098 0.36854 0.0
C1439 C 0.96269 0.86098 0.35756 0.0
C1440 C 0.89301 0.88106 0.33958 0.0
C1441 C 0.84414 0.88005 0.34814 0.0
C1442 C 0.80393 0.88101 0.33051 0.0
C1443 C 0.81401 0.88312 0.30338 0.0
C1444 C 0.86385 0.8843 0.2943 0.0
C1445 C 0.90372 0.88309 0.31262 0.0
H1446 H 0.05344 0.6547 0.05402 0.0
H1447 H 0.21158 0.66419 0.04169 0.0
H1448 H 0.22835 0.66016 0.08959 0.0
H1449 H 0.04717 0.68184 0.1253 0.0
H1450 H 0.00334 0.66323 0.13467 0.0
H1451 H 0.00395 0.66849 0.10016 0.0
H1452 H 0.01577 0.62859 0.08144 0.0
H1453 H 0.01598 0.62322 0.11588 0.0
H1454 H 0.06777 0.6148 0.0933 0.0
H1455 H 0.22803 0.65337 0.13819 0.0
H1456 H 0.21006 0.64592 0.18448 0.0
H1457 H 0.0524 0.64018 0.16402 0.0
C1458 C 0.09148 0.65638 0.06155 0.0
C1459 C 0.1312 0.65992 0.04429 0.0
C1460 C 0.18058 0.66159 0.0547 0.0
C1461 C 0.19048 0.65928 0.08182 0.0
C1462 C 0.15056 0.65526 0.09811 0.0
C1463 C 0.10201 0.65397 0.08842 0.0
C1464 C 0.066 0.64874 0.10968 0.0
C1465 C 0.02788 0.66664 0.11794 0.0
C1466 C 0.03986 0.62758 0.09946 0.0
C1467 C 0.10189 0.64721 0.13283 0.0
C1468 C 0.15048 0.65103 0.12582 0.0
C1469 C 0.1901 0.65041 0.14395 0.0
C1470 C 0.17958 0.64609 0.17012 0.0
C1471 C 0.12991 0.64241 0.17776 0.0
C1472 C 0.0908 0.64283 0.15873 0.0
H1473 H 0.93474 0.4121 0.93304 0.0
H1474 H 0.77497 0.41087 0.94746 0.0
H1475 H 0.75971 0.40856 0.89774 0.0
H1476 H 0.93014 0.44359 0.87964 0.0
H1477 H 0.98035 0.42929 0.86033 0.0
H1478 H 0.97824 0.43143 0.89707 0.0
H1479 H 0.98167 0.39073 0.89156 0.0
H1480 H 0.9835 0.38846 0.8548 0.0
H1481 H 0.93563 0.37509 0.87055 0.0
H1482 H 0.76234 0.4053 0.84635 0.0
H1483 H 0.78234 0.4024 0.79716 0.0
H1484 H 0.94053 0.40584 0.81681 0.0
C1485 C 0.89649 0.4115 0.9258 0.0
C1486 C 0.85598 0.4117 0.94405 0.0
C1487 C 0.80652 0.4108 0.93379 0.0
C1488 C 0.79751 0.40945 0.90562 0.0
C1489 C 0.83839 0.40907 0.88814 0.0
C1490 C 0.88688 0.41016 0.89785 0.0
C1491 C 0.9243 0.40922 0.87481 0.0
C1492 C 0.95506 0.4296 0.87817 0.0
C1493 C 0.95826 0.38971 0.87282 0.0
C1494 C 0.88929 0.40733 0.85053 0.0
C1495 C 0.83991 0.40725 0.85863 0.0
C1496 C 0.80085 0.40542 0.83977 0.0
C1497 C 0.8126 0.40374 0.8119 0.0
C1498 C 0.86297 0.40393 0.80323 0.0
C1499 C 0.90168 0.4057 0.82284 0.0
H1500 H 0.57099 0.1417 0.17273 0.0
H1501 H 0.729 0.1434 0.1927 0.0
H1502 H 0.74862 0.14914 0.14575 0.0
H1503 H 0.5821 0.11477 0.10267 0.0
H1504 H 0.53259 0.12985 0.0907 0.0
H1505 H 0.532 0.12519 0.12546 0.0
H1506 H 0.52648 0.16546 0.14329 0.0
H1507 H 0.52776 0.17026 0.10858 0.0
H1508 H 0.57336 0.18248 0.13311 0.0
H1509 H 0.75029 0.155 0.09659 0.0
H1510 H 0.7343 0.15907 0.04864 0.0
H1511 H 0.57488 0.15452 0.06212 0.0
C1512 C 0.60981 0.14299 0.16718 0.0
C1513 C 0.64856 0.14196 0.18624 0.0
C1514 C 0.6988 0.14404 0.1783 0.0
C1515 C 0.71025 0.14738 0.15176 0.0
C1516 C 0.67097 0.14871 0.13361 0.0
C1517 C 0.62179 0.14649 0.14098 0.0
C1518 C 0.58633 0.14881 0.11792 0.0
C1519 C 0.55652 0.12844 0.10864 0.0
C1520 C 0.55144 0.16789 0.12623 0.0
C1521 C 0.62322 0.15255 0.09626 0.0
C1522 C 0.67185 0.15248 0.10568 0.0
C1523 C 0.71237 0.15514 0.08903 0.0
C1524 C 0.70291 0.1575 0.06188 0.0
C1525 C 0.65336 0.15722 0.05176 0.0
C1526 C 0.61312 0.15503 0.06937 0.0
H1527 H 0.44184 0.89895 0.81061 0.0
H1528 H 0.28239 0.9001 0.79477 0.0
H1529 H 0.26565 0.90036 0.84384 0.0
H1530 H 0.43672 0.86483 0.86074 0.0
H1531 H 0.48571 0.87849 0.88166 0.0
H1532 H 0.48498 0.87816 0.84522 0.0
H1533 H 0.48663 0.91899 0.85406 0.0
H1534 H 0.4873 0.91945 0.89051 0.0
H1535 H 0.43941 0.93355 0.87557 0.0
H1536 H 0.26643 0.90121 0.89471 0.0
H1537 H 0.28479 0.90206 0.94382 0.0
H1538 H 0.44364 0.90008 0.92598 0.0
C1539 C 0.4034 0.8992 0.81744 0.0
C1540 C 0.36339 0.89951 0.79895 0.0
C1541 C 0.3136 0.89984 0.80864 0.0
C1542 C 0.30371 0.89999 0.83644 0.0
C1543 C 0.34405 0.89976 0.85417 0.0
C1544 C 0.39288 0.89932 0.84506 0.0
C1545 C 0.42947 0.89926 0.86833 0.0
C1546 C 0.46107 0.87898 0.86371 0.0
C1547 C 0.46264 0.91899 0.87235 0.0
C1548 C 0.39358 0.89983 0.89198 0.0
C1549 C 0.34448 0.90012 0.88341 0.0
C1550 C 0.30472 0.90092 0.90168 0.0
C1551 C 0.3155 0.90143 0.92949 0.0
C1552 C 0.36559 0.90109 0.93862 0.0
C1553 C 0.40498 0.90026 0.91957 0.0
H1554 H 0.55408 0.64632 0.54787 0.0
H1555 H 0.7132 0.64454 0.53074 0.0
H1556 H 0.73078 0.64661 0.58019 0.0
H1557 H 0.55948 0.68289 0.61212 0.0
H1558 H 0.51101 0.66981 0.62782 0.0
H1559 H 0.51115 0.6687 0.59121 0.0
H1560 H 0.5102 0.62789 0.5836 0.0
H1561 H 0.51005 0.62887 0.62016 0.0
H1562 H 0.55792 0.61421 0.59929 0.0
H1563 H 0.73071 0.64829 0.63113 0.0
H1564 H 0.71341 0.64911 0.68019 0.0
H1565 H 0.55407 0.64968 0.66378 0.0
C1566 C 0.59267 0.64648 0.5545 0.0
C1567 C 0.63236 0.64532 0.53556 0.0
C1568 C 0.68229 0.64543 0.54499 0.0
C1569 C 0.69261 0.64663 0.57298 0.0
C1570 C 0.65253 0.6477 0.59112 0.0
C1571 C 0.60358 0.64763 0.58227 0.0
C1572 C 0.56729 0.64851 0.60584 0.0
C1573 C 0.53536 0.66868 0.60945 0.0
C1574 C 0.53445 0.62869 0.60199 0.0
C1575 C 0.6035 0.64899 0.62938 0.0
C1576 C 0.65247 0.64857 0.62045 0.0
C1577 C 0.69255 0.64867 0.63838 0.0
C1578 C 0.6823 0.64913 0.66619 0.0
C1579 C 0.63238 0.64946 0.67574 0.0
C1580 C 0.59258 0.64947 0.65707 0.0
H1581 H 0.43803 0.38629 0.31114 0.0
H1582 H 0.27817 0.3855 0.29626 0.0
H1583 H 0.2632 0.38213 0.34456 0.0
H1584 H 0.43907 0.34886 0.35795 0.0
H1585 H 0.48706 0.36279 0.37938 0.0
H1586 H 0.485 0.36393 0.34331 0.0
H1587 H 0.48191 0.40472 0.35483 0.0
H1588 H 0.4841 0.40372 0.39088 0.0
H1589 H 0.43386 0.41752 0.3774 0.0
H1590 H 0.26597 0.3804 0.39498 0.0
H1591 H 0.28604 0.38151 0.44394 0.0
H1592 H 0.44413 0.38353 0.4253 0.0
C1593 C 0.39985 0.38523 0.31795 0.0
C1594 C 0.35922 0.3861 0.3 0.0
C1595 C 0.30983 0.38484 0.30972 0.0
C1596 C 0.30098 0.38285 0.33706 0.0
C1597 C 0.34196 0.38212 0.35427 0.0
C1598 C 0.3904 0.3833 0.34508 0.0
C1599 C 0.42787 0.38307 0.36791 0.0
C1600 C 0.46174 0.36349 0.36177 0.0
C1601 C 0.45873 0.40347 0.37305 0.0
C1602 C 0.39293 0.38191 0.39152 0.0
C1603 C 0.34355 0.38121 0.38323 0.0
C1604 C 0.3045 0.3808 0.40168 0.0
C1605 C 0.31627 0.38143 0.42942 0.0
C1606 C 0.36662 0.38255 0.43836 0.0
C1607 C 0.40531 0.38251 0.41904 0.0
loop_
_geom_bond_atom_site_label_1
_geom_bond_atom_site_label_2
_geom_bond_distance
_geom_bond_site_symmetry_2
_ccdc_geom_bond_type
Co0 N4 2.148 . S
Co0 N10 2.128 . S
Co0 N20 2.194 . S
Co0 O25 2.351 . S
Co0 O26 2.155 . S
Co0 O27 2.096 . S
C1 N4 1.301 . S
C1 N5 1.328 . S
C1 H6 0.930 . S
C2 C3 1.333 . S
C2 N4 1.317 . S
C2 H7 0.930 . S
C3 C2 1.333 . S
C3 N5 1.350 . S
C3 H29 0.931 . S
N4 Co0 2.148 . S
N4 C1 1.301 . S
N4 C2 1.317 . S
N5 C1 1.328 . S
N5 C3 1.350 . S
H6 C1 0.930 . S
H7 C2 0.930 . S
C8 O9 1.224 . S
C8 O27 1.247 . S
O9 C8 1.224 . S
N10 Co0 2.128 . S
N10 C11 1.355 . S
N10 C13 1.311 . S
C11 N10 1.355 . S
C11 C12 1.363 . S
C11 H23 0.929 . S
C12 C11 1.363 . S
C12 N14 1.375 . S
C12 H30 0.931 . S
C13 N10 1.311 . S
C13 N14 1.347 . S
C13 H24 0.929 . S
N14 C12 1.375 . S
N14 C13 1.347 . S
C15 C18 1.365 . S
C15 N20 1.328 1_655 S
C15 H21 0.929 . S
C16 C17 1.362 1_455 S
C16 C19 1.378 . S
C16 H31 0.929 . S
C17 C16 1.362 1_655 S
C17 C18 1.366 . S
C18 C15 1.365 . S
C18 C17 1.366 . S
C18 H32 0.930 . S
C19 C16 1.378 . S
C19 N20 1.315 . S
C19 H22 0.930 . S
N20 Co0 2.194 . S
N20 C15 1.328 1_455 S
N20 C19 1.315 . S
H21 C15 0.929 . S
H22 C19 0.930 . S
H23 C11 0.929 . S
H24 C13 0.929 . S
O25 Co0 2.351 . S
O25 C28 1.244 . S
O26 Co0 2.155 . S
O26 C28 1.240 . S
O27 Co0 2.096 . S
O27 C8 1.247 . S
C28 O25 1.244 . S
C28 O26 1.240 . S
H29 C3 0.931 . S
H30 C12 0.931 . S
H31 C16 0.929 . S
H32 C18 0.930 . S
Co33 N37 2.148 . S
Co33 N43 2.128 . S
Co33 N53 2.194 . S
Co33 O58 2.351 . S
Co33 O59 2.155 . S
Co33 O60 2.096 . S
C34 N37 1.301 . S
C34 N38 1.328 . S
C34 H39 0.930 . S
C35 C36 1.333 . S
C35 N37 1.317 . S
C35 H40 0.930 . S
C36 C35 1.333 . S
C36 N38 1.350 . S
C36 H62 0.931 . S
N37 Co33 2.148 . S
N37 C34 1.301 . S
N37 C35 1.317 . S
N38 C34 1.328 . S
N38 C36 1.350 . S
H39 C34 0.930 . S
H40 C35 0.930 . S
C41 O42 1.224 . S
C41 O60 1.247 . S
O42 C41 1.224 . S
N43 Co33 2.128 . S
N43 C44 1.355 . S
N43 C46 1.311 . S
C44 N43 1.355 . S
C44 C45 1.363 . S
C44 H56 0.929 . S
C45 C44 1.363 . S
C45 N47 1.375 . S
C45 H63 0.931 . S
C46 N43 1.311 . S
C46 N47 1.347 . S
C46 H57 0.929 . S
N47 C45 1.375 . S
N47 C46 1.347 . S
C48 C51 1.365 . S
C48 N53 1.328 1_655 S
C48 H54 0.929 . S
C49 C50 1.362 1_455 S
C49 C52 1.378 . S
C49 H64 0.929 . S
C50 C49 1.362 1_655 S
C50 C51 1.366 . S
C51 C48 1.365 . S
C51 C50 1.366 . S
C51 H65 0.930 . S
C52 C49 1.378 . S
C52 N53 1.315 . S
C52 H55 0.930 . S
N53 Co33 2.194 . S
N53 C48 1.328 1_455 S
N53 C52 1.315 . S
H54 C48 0.929 . S
H55 C52 0.930 . S
H56 C44 0.929 . S
H57 C46 0.929 . S
O58 Co33 2.351 . S
O58 C61 1.244 . S
O59 Co33 2.155 . S
O59 C61 1.240 . S
O60 Co33 2.096 . S
O60 C41 1.247 . S
C61 O58 1.244 . S
C61 O59 1.240 . S
H62 C36 0.931 . S
H63 C45 0.931 . S
H64 C49 0.929 . S
H65 C51 0.930 . S
Co66 N70 2.148 . S
Co66 N76 2.128 . S
Co66 N86 2.194 . S
Co66 O91 2.351 . S
Co66 O92 2.155 . S
Co66 O93 2.096 . S
C67 N70 1.301 . S
C67 N71 1.328 . S
C67 H72 0.930 . S
C68 C69 1.333 . S
C68 N70 1.317 . S
C68 H73 0.930 . S
C69 C68 1.333 . S
C69 N71 1.350 . S
C69 H95 0.931 . S
N70 Co66 2.148 . S
N70 C67 1.301 . S
N70 C68 1.317 . S
N71 C67 1.328 . S
N71 C69 1.350 . S
H72 C67 0.930 . S
H73 C68 0.930 . S
C74 O75 1.224 . S
C74 O93 1.247 . S
O75 C74 1.224 . S
N76 Co66 2.128 . S
N76 C77 1.355 . S
N76 C79 1.311 . S
C77 N76 1.355 . S
C77 C78 1.363 . S
C77 H89 0.929 . S
C78 C77 1.363 . S
C78 N80 1.375 . S
C78 H96 0.931 . S
C79 N76 1.311 . S
C79 N80 1.347 . S
C79 H90 0.929 . S
N80 C78 1.375 . S
N80 C79 1.347 . S
C81 C84 1.365 . S
C81 N86 1.328 1_455 S
C81 H87 0.929 . S
C82 C83 1.362 1_655 S
C82 C85 1.378 . S
C82 H97 0.929 . S
C83 C82 1.362 1_455 S
C83 C84 1.366 . S
C84 C81 1.365 . S
C84 C83 1.366 . S
C84 H98 0.930 . S
C85 C82 1.378 . S
C85 N86 1.315 . S
C85 H88 0.930 . S
N86 Co66 2.194 . S
N86 C81 1.328 1_655 S
N86 C85 1.315 . S
H87 C81 0.929 . S
H88 C85 0.930 . S
H89 C77 0.929 . S
H90 C79 0.929 . S
O91 Co66 2.351 . S
O91 C94 1.244 . S
O92 Co66 2.155 . S
O92 C94 1.240 . S
O93 Co66 2.096 . S
O93 C74 1.247 . S
C94 O91 1.244 . S
C94 O92 1.240 . S
H95 C69 0.931 . S
H96 C78 0.931 . S
H97 C82 0.929 . S
H98 C84 0.930 . S
Co99 N103 2.148 . S
Co99 N109 2.128 . S
Co99 N119 2.194 . S
Co99 O124 2.351 . S
Co99 O125 2.155 . S
Co99 O126 2.096 . S
C100 N103 1.301 . S
C100 N104 1.328 . S
C100 H105 0.930 . S
C101 C102 1.333 . S
C101 N103 1.317 . S
C101 H106 0.930 . S
C102 C101 1.333 . S
C102 N104 1.350 . S
C102 H128 0.931 . S
N103 Co99 2.148 . S
N103 C100 1.301 . S
N103 C101 1.317 . S
N104 C100 1.328 . S
N104 C102 1.350 . S
H105 C100 0.930 . S
H106 C101 0.930 . S
C107 O108 1.224 . S
C107 O126 1.247 . S
O108 C107 1.224 . S
N109 Co99 2.128 . S
N109 C110 1.355 . S
N109 C112 1.311 . S
C110 N109 1.355 . S
C110 C111 1.363 . S
C110 H122 0.929 . S
C111 C110 1.363 . S
C111 N113 1.375 . S
C111 H129 0.931 . S
C112 N109 1.311 . S
C112 N113 1.347 . S
C112 H123 0.929 . S
N113 C111 1.375 . S
N113 C112 1.347 . S
C114 C117 1.365 . S
C114 N119 1.328 1_455 S
C114 H120 0.929 . S
C115 C116 1.362 1_655 S
C115 C118 1.378 . S
C115 H130 0.929 . S
C116 C115 1.362 1_455 S
C116 C117 1.366 . S
C117 C114 1.365 . S
C117 C116 1.366 . S
C117 H131 0.930 . S
C118 C115 1.378 . S
C118 N119 1.315 . S
C118 H121 0.930 . S
N119 Co99 2.194 . S
N119 C114 1.328 1_655 S
N119 C118 1.315 . S
H120 C114 0.929 . S
H121 C118 0.930 . S
H122 C110 0.929 . S
H123 C112 0.929 . S
O124 Co99 2.351 . S
O124 C127 1.244 . S
O125 Co99 2.155 . S
O125 C127 1.240 . S
O126 Co99 2.096 . S
O126 C107 1.247 . S
C127 O124 1.244 . S
C127 O125 1.240 . S
H128 C102 0.931 . S
H129 C111 0.931 . S
H130 C115 0.929 . S
H131 C117 0.930 . S
Co132 N136 2.148 . S
Co132 N142 2.128 . S
Co132 N152 2.194 . S
Co132 O157 2.351 1_556 S
Co132 O158 2.155 1_556 S
Co132 O159 2.096 . S
C133 N136 1.301 . S
C133 N137 1.328 . S
C133 H138 0.930 . S
C134 C135 1.333 . S
C134 N136 1.317 . S
C134 H139 0.930 . S
C135 C134 1.333 . S
C135 N137 1.350 . S
C135 H161 0.931 . S
N136 Co132 2.148 . S
N136 C133 1.301 . S
N136 C134 1.317 . S
N137 C133 1.328 . S
N137 C135 1.350 . S
H138 C133 0.930 . S
H139 C134 0.930 . S
C140 O141 1.224 . S
C140 O159 1.247 . S
O141 C140 1.224 . S
N142 Co132 2.128 . S
N142 C143 1.355 . S
N142 C145 1.311 . S
C143 N142 1.355 . S
C143 C144 1.363 . S
C143 H155 0.929 . S
C144 C143 1.363 . S
C144 N146 1.375 . S
C144 H162 0.931 . S
C145 N142 1.311 . S
C145 N146 1.347 . S
C145 H156 0.929 . S
N146 C144 1.375 . S
N146 C145 1.347 . S
C147 C150 1.365 . S
C147 N152 1.328 1_655 S
C147 H153 0.929 . S
C148 C149 1.362 1_455 S
C148 C151 1.378 . S
C148 H163 0.929 . S
C149 C148 1.362 1_655 S
C149 C150 1.366 . S
C150 C147 1.365 . S
C150 C149 1.366 . S
C150 H164 0.930 . S
C151 C148 1.378 . S
C151 N152 1.315 . S
C151 H154 0.930 . S
N152 Co132 2.194 . S
N152 C147 1.328 1_455 S
N152 C151 1.315 . S
H153 C147 0.929 . S
H154 C151 0.930 . S
H155 C143 0.929 . S
H156 C145 0.929 . S
O157 Co132 2.351 1_554 S
O157 C160 1.244 . S
O158 Co132 2.155 1_554 S
O158 C160 1.240 . S
O159 Co132 2.096 . S
O159 C140 1.247 . S
C160 O157 1.244 . S
C160 O158 1.240 . S
H161 C135 0.931 . S
H162 C144 0.931 . S
H163 C148 0.929 . S
H164 C150 0.930 . S
Co165 N169 2.148 . S
Co165 N175 2.128 . S
Co165 N185 2.194 . S
Co165 O190 2.351 . S
Co165 O191 2.155 . S
Co165 O192 2.096 . S
C166 N169 1.301 . S
C166 N170 1.328 . S
C166 H171 0.930 . S
C167 C168 1.333 . S
C167 N169 1.317 . S
C167 H172 0.930 . S
C168 C167 1.333 . S
C168 N170 1.350 . S
C168 H194 0.931 . S
N169 Co165 2.148 . S
N169 C166 1.301 . S
N169 C167 1.317 . S
N170 C166 1.328 . S
N170 C168 1.350 . S
H171 C166 0.930 . S
H172 C167 0.930 . S
C173 O174 1.224 . S
C173 O192 1.247 . S
O174 C173 1.224 . S
N175 Co165 2.128 . S
N175 C176 1.355 . S
N175 C178 1.311 . S
C176 N175 1.355 . S
C176 C177 1.363 . S
C176 H188 0.929 . S
C177 C176 1.363 . S
C177 N179 1.375 . S
C177 H195 0.931 . S
C178 N175 1.311 . S
C178 N179 1.347 . S
C178 H189 0.929 . S
N179 C177 1.375 . S
N179 C178 1.347 . S
C180 C183 1.365 . S
C180 N185 1.328 1_655 S
C180 H186 0.929 . S
C181 C182 1.362 1_455 S
C181 C184 1.378 . S
C181 H196 0.929 . S
C182 C181 1.362 1_655 S
C182 C183 1.366 . S
C183 C180 1.365 . S
C183 C182 1.366 . S
C183 H197 0.930 . S
C184 C181 1.378 . S
C184 N185 1.315 . S
C184 H187 0.930 . S
N185 Co165 2.194 . S
N185 C180 1.328 1_455 S
N185 C184 1.315 . S
H186 C180 0.929 . S
H187 C184 0.930 . S
H188 C176 0.929 . S
H189 C178 0.929 . S
O190 Co165 2.351 . S
O190 C193 1.244 . S
O191 Co165 2.155 . S
O191 C193 1.240 . S
O192 Co165 2.096 . S
O192 C173 1.247 . S
C193 O190 1.244 . S
C193 O191 1.240 . S
H194 C168 0.931 . S
H195 C177 0.931 . S
H196 C181 0.929 . S
H197 C183 0.930 . S
Co198 N202 2.148 . S
Co198 N208 2.128 . S
Co198 N218 2.194 . S
Co198 O223 2.351 1_554 S
Co198 O224 2.155 1_554 S
Co198 O225 2.096 . S
C199 N202 1.301 . S
C199 N203 1.328 . S
C199 H204 0.930 . S
C200 C201 1.333 . S
C200 N202 1.317 . S
C200 H205 0.930 . S
C201 C200 1.333 . S
C201 N203 1.350 . S
C201 H227 0.931 . S
N202 Co198 2.148 . S
N202 C199 1.301 . S
N202 C200 1.317 . S
N203 C199 1.328 . S
N203 C201 1.350 . S
H204 C199 0.930 . S
H205 C200 0.930 . S
C206 O207 1.224 . S
C206 O225 1.247 . S
O207 C206 1.224 . S
N208 Co198 2.128 . S
N208 C209 1.355 . S
N208 C211 1.311 . S
C209 N208 1.355 . S
C209 C210 1.363 . S
C209 H221 0.929 . S
C210 C209 1.363 . S
C210 N212 1.375 . S
C210 H228 0.931 . S
C211 N208 1.311 . S
C211 N212 1.347 . S
C211 H222 0.929 . S
N212 C210 1.375 . S
N212 C211 1.347 . S
C213 C216 1.365 . S
C213 N218 1.328 1_455 S
C213 H219 0.929 . S
C214 C215 1.362 1_655 S
C214 C217 1.378 . S
C214 H229 0.929 . S
C215 C214 1.362 1_455 S
C215 C216 1.366 . S
C216 C213 1.365 . S
C216 C215 1.366 . S
C216 H230 0.930 . S
C217 C214 1.378 . S
C217 N218 1.315 . S
C217 H220 0.930 . S
N218 Co198 2.194 . S
N218 C213 1.328 1_655 S
N218 C217 1.315 . S
H219 C213 0.929 . S
H220 C217 0.930 . S
H221 C209 0.929 . S
H222 C211 0.929 . S
O223 Co198 2.351 1_556 S
O223 C226 1.244 . S
O224 Co198 2.155 1_556 S
O224 C226 1.240 . S
O225 Co198 2.096 . S
O225 C206 1.247 . S
C226 O223 1.244 . S
C226 O224 1.240 . S
H227 C201 0.931 . S
H228 C210 0.931 . S
H229 C214 0.929 . S
H230 C216 0.930 . S
Co231 N235 2.148 . S
Co231 N241 2.128 . S
Co231 N251 2.194 . S
Co231 O256 2.351 . S
Co231 O257 2.155 . S
Co231 O258 2.096 . S
C232 N235 1.301 . S
C232 N236 1.328 . S
C232 H237 0.930 . S
C233 C234 1.333 . S
C233 N235 1.317 . S
C233 H238 0.930 . S
C234 C233 1.333 . S
C234 N236 1.350 . S
C234 H260 0.931 . S
N235 Co231 2.148 . S
N235 C232 1.301 . S
N235 C233 1.317 . S
N236 C232 1.328 . S
N236 C234 1.350 . S
H237 C232 0.930 . S
H238 C233 0.930 . S
C239 O240 1.224 . S
C239 O258 1.247 . S
O240 C239 1.224 . S
N241 Co231 2.128 . S
N241 C242 1.355 . S
N241 C244 1.311 . S
C242 N241 1.355 . S
C242 C243 1.363 . S
C242 H254 0.929 . S
C243 C242 1.363 . S
C243 N245 1.375 . S
C243 H261 0.931 . S
C244 N241 1.311 . S
C244 N245 1.347 . S
C244 H255 0.929 . S
N245 C243 1.375 . S
N245 C244 1.347 . S
C246 C249 1.365 . S
C246 N251 1.328 1_455 S
C246 H252 0.929 . S
C247 C248 1.362 1_655 S
C247 C250 1.378 . S
C247 H262 0.929 . S
C248 C247 1.362 1_455 S
C248 C249 1.366 . S
C249 C246 1.365 . S
C249 C248 1.366 . S
C249 H263 0.930 . S
C250 C247 1.378 . S
C250 N251 1.315 . S
C250 H253 0.930 . S
N251 Co231 2.194 . S
N251 C246 1.328 1_655 S
N251 C250 1.315 . S
H252 C246 0.929 . S
H253 C250 0.930 . S
H254 C242 0.929 . S
H255 C244 0.929 . S
O256 Co231 2.351 . S
O256 C259 1.244 . S
O257 Co231 2.155 . S
O257 C259 1.240 . S
O258 Co231 2.096 . S
O258 C239 1.247 . S
C259 O256 1.244 . S
C259 O257 1.240 . S
H260 C234 0.931 . S
H261 C243 0.931 . S
H262 C247 0.929 . S
H263 C249 0.930 . S
Co264 N268 2.148 . S
Co264 N274 2.128 . S
Co264 N284 2.194 . S
Co264 O289 2.351 1_556 S
Co264 O290 2.155 1_556 S
Co264 O291 2.096 . S
C265 N268 1.301 . S
C265 N269 1.328 . S
C265 H270 0.930 . S
C266 C267 1.333 . S
C266 N268 1.317 . S
C266 H271 0.930 . S
C267 C266 1.333 . S
C267 N269 1.350 . S
C267 H293 0.931 . S
N268 Co264 2.148 . S
N268 C265 1.301 . S
N268 C266 1.317 . S
N269 C265 1.328 . S
N269 C267 1.350 . S
H270 C265 0.930 . S
H271 C266 0.930 . S
C272 O273 1.224 . S
C272 O291 1.247 . S
O273 C272 1.224 . S
N274 Co264 2.128 . S
N274 C275 1.355 . S
N274 C277 1.311 . S
C275 N274 1.355 . S
C275 C276 1.363 . S
C275 H287 0.929 . S
C276 C275 1.363 . S
C276 N278 1.375 . S
C276 H294 0.931 . S
C277 N274 1.311 . S
C277 N278 1.347 . S
C277 H288 0.929 . S
N278 C276 1.375 . S
N278 C277 1.347 . S
C279 C282 1.365 . S
C279 N284 1.328 . S
C279 H285 0.929 . S
C280 C281 1.362 . S
C280 C283 1.378 . S
C280 H295 0.929 . S
C281 C280 1.362 . S
C281 C282 1.366 . S
C282 C279 1.365 . S
C282 C281 1.366 . S
C282 H296 0.930 . S
C283 C280 1.378 . S
C283 N284 1.315 . S
C283 H286 0.930 . S
N284 Co264 2.194 . S
N284 C279 1.328 . S
N284 C283 1.315 . S
H285 C279 0.929 . S
H286 C283 0.930 . S
H287 C275 0.929 . S
H288 C277 0.929 . S
O289 Co264 2.351 1_554 S
O289 C292 1.244 . S
O290 Co264 2.155 1_554 S
O290 C292 1.240 . S
O291 Co264 2.096 . S
O291 C272 1.247 . S
C292 O289 1.244 . S
C292 O290 1.240 . S
H293 C267 0.931 . S
H294 C276 0.931 . S
H295 C280 0.929 . S
H296 C282 0.930 . S
Co297 N301 2.148 . S
Co297 N307 2.128 . S
Co297 N317 2.194 . S
Co297 O322 2.351 . S
Co297 O323 2.155 . S
Co297 O324 2.096 . S
C298 N301 1.301 . S
C298 N302 1.328 . S
C298 H303 0.930 . S
C299 C300 1.333 . S
C299 N301 1.317 . S
C299 H304 0.930 . S
C300 C299 1.333 . S
C300 N302 1.350 . S
C300 H326 0.931 . S
N301 Co297 2.148 . S
N301 C298 1.301 . S
N301 C299 1.317 . S
N302 C298 1.328 . S
N302 C300 1.350 . S
H303 C298 0.930 . S
H304 C299 0.930 . S
C305 O306 1.224 . S
C305 O324 1.247 . S
O306 C305 1.224 . S
N307 Co297 2.128 . S
N307 C308 1.355 . S
N307 C310 1.311 . S
C308 N307 1.355 . S
C308 C309 1.363 . S
C308 H320 0.929 . S
C309 C308 1.363 . S
C309 N311 1.375 . S
C309 H327 0.931 . S
C310 N307 1.311 . S
C310 N311 1.347 . S
C310 H321 0.929 . S
N311 C309 1.375 . S
N311 C310 1.347 . S
C312 C315 1.365 . S
C312 N317 1.328 . S
C312 H318 0.929 . S
C313 C314 1.362 . S
C313 C316 1.378 . S
C313 H328 0.929 . S
C314 C313 1.362 . S
C314 C315 1.366 . S
C315 C312 1.365 . S
C315 C314 1.366 . S
C315 H329 0.930 . S
C316 C313 1.378 . S
C316 N317 1.315 . S
C316 H319 0.930 . S
N317 Co297 2.194 . S
N317 C312 1.328 . S
N317 C316 1.315 . S
H318 C312 0.929 . S
H319 C316 0.930 . S
H320 C308 0.929 . S
H321 C310 0.929 . S
O322 Co297 2.351 . S
O322 C325 1.244 . S
O323 Co297 2.155 . S
O323 C325 1.240 . S
O324 Co297 2.096 . S
O324 C305 1.247 . S
C325 O322 1.244 . S
C325 O323 1.240 . S
H326 C300 0.931 . S
H327 C309 0.931 . S
H328 C313 0.929 . S
H329 C315 0.930 . S
Co330 N334 2.148 . S
Co330 N340 2.128 . S
Co330 N350 2.194 . S
Co330 O355 2.351 1_554 S
Co330 O356 2.155 1_554 S
Co330 O357 2.096 . S
C331 N334 1.301 . S
C331 N335 1.328 . S
C331 H336 0.930 . S
C332 C333 1.333 . S
C332 N334 1.317 . S
C332 H337 0.930 . S
C333 C332 1.333 . S
C333 N335 1.350 . S
C333 H359 0.931 . S
N334 Co330 2.148 . S
N334 C331 1.301 . S
N334 C332 1.317 . S
N335 C331 1.328 . S
N335 C333 1.350 . S
H336 C331 0.930 . S
H337 C332 0.930 . S
C338 O339 1.224 . S
C338 O357 1.247 . S
O339 C338 1.224 . S
N340 Co330 2.128 . S
N340 C341 1.355 . S
N340 C343 1.311 . S
C341 N340 1.355 . S
C341 C342 1.363 . S
C341 H353 0.929 . S
C342 C341 1.363 . S
C342 N344 1.375 . S
C342 H360 0.931 . S
C343 N340 1.311 . S
C343 N344 1.347 . S
C343 H354 0.929 . S
N344 C342 1.375 . S
N344 C343 1.347 . S
C345 C348 1.365 . S
C345 N350 1.328 . S
C345 H351 0.929 . S
C346 C347 1.362 . S
C346 C349 1.378 . S
C346 H361 0.929 . S
C347 C346 1.362 . S
C347 C348 1.366 . S
C348 C345 1.365 . S
C348 C347 1.366 . S
C348 H362 0.930 . S
C349 C346 1.378 . S
C349 N350 1.315 . S
C349 H352 0.930 . S
N350 Co330 2.194 . S
N350 C345 1.328 . S
N350 C349 1.315 . S
H351 C345 0.929 . S
H352 C349 0.930 . S
H353 C341 0.929 . S
H354 C343 0.929 . S
O355 Co330 2.351 1_556 S
O355 C358 1.244 . S
O356 Co330 2.155 1_556 S
O356 C358 1.240 . S
O357 Co330 2.096 . S
O357 C338 1.247 . S
C358 O355 1.244 . S
C358 O356 1.240 . S
H359 C333 0.931 . S
H360 C342 0.931 . S
H361 C346 0.929 . S
H362 C348 0.930 . S
Co363 N367 2.148 . S
Co363 N373 2.128 . S
Co363 N383 2.194 . S
Co363 O388 2.351 . S
Co363 O389 2.155 . S
Co363 O390 2.096 . S
C364 N367 1.301 . S
C364 N368 1.328 . S
C364 H369 0.930 . S
C365 C366 1.333 . S
C365 N367 1.317 . S
C365 H370 0.930 . S
C366 C365 1.333 . S
C366 N368 1.350 . S
C366 H392 0.931 . S
N367 Co363 2.148 . S
N367 C364 1.301 . S
N367 C365 1.317 . S
N368 C364 1.328 . S
N368 C366 1.350 . S
H369 C364 0.930 . S
H370 C365 0.930 . S
C371 O372 1.224 . S
C371 O390 1.247 . S
O372 C371 1.224 . S
N373 Co363 2.128 . S
N373 C374 1.355 . S
N373 C376 1.311 . S
C374 N373 1.355 . S
C374 C375 1.363 . S
C374 H386 0.929 . S
C375 C374 1.363 . S
C375 N377 1.375 . S
C375 H393 0.931 . S
C376 N373 1.311 . S
C376 N377 1.347 . S
C376 H387 0.929 . S
N377 C375 1.375 . S
N377 C376 1.347 . S
C378 C381 1.365 . S
C378 N383 1.328 . S
C378 H384 0.929 . S
C379 C380 1.362 . S
C379 C382 1.378 . S
C379 H394 0.929 . S
C380 C379 1.362 . S
C380 C381 1.366 . S
C381 C378 1.365 . S
C381 C380 1.366 . S
C381 H395 0.930 . S
C382 C379 1.378 . S
C382 N383 1.315 . S
C382 H385 0.930 . S
N383 Co363 2.194 . S
N383 C378 1.328 . S
N383 C382 1.315 . S
H384 C378 0.929 . S
H385 C382 0.930 . S
H386 C374 0.929 . S
H387 C376 0.929 . S
O388 Co363 2.351 . S
O388 C391 1.244 . S
O389 Co363 2.155 . S
O389 C391 1.240 . S
O390 Co363 2.096 . S
O390 C371 1.247 . S
C391 O388 1.244 . S
C391 O389 1.240 . S
H392 C366 0.931 . S
H393 C375 0.931 . S
H394 C379 0.929 . S
H395 C381 0.930 . S
Co396 N400 2.148 . S
Co396 N406 2.128 . S
Co396 N416 2.194 . S
Co396 O421 2.351 . S
Co396 O422 2.155 . S
Co396 O423 2.096 . S
C397 N400 1.301 . S
C397 N401 1.328 . S
C397 H402 0.930 . S
C398 C399 1.333 . S
C398 N400 1.317 . S
C398 H403 0.930 . S
C399 C398 1.333 . S
C399 N401 1.350 . S
C399 H425 0.931 . S
N400 Co396 2.148 . S
N400 C397 1.301 . S
N400 C398 1.317 . S
N401 C397 1.328 . S
N401 C399 1.350 . S
H402 C397 0.930 . S
H403 C398 0.930 . S
C404 O405 1.224 . S
C404 O423 1.247 . S
O405 C404 1.224 . S
N406 Co396 2.128 . S
N406 C407 1.355 . S
N406 C409 1.311 . S
C407 N406 1.355 . S
C407 C408 1.363 . S
C407 H419 0.929 . S
C408 C407 1.363 . S
C408 N410 1.375 . S
C408 H426 0.931 . S
C409 N406 1.311 . S
C409 N410 1.347 . S
C409 H420 0.929 . S
N410 C408 1.375 . S
N410 C409 1.347 . S
C411 C414 1.365 . S
C411 N416 1.328 . S
C411 H417 0.929 . S
C412 C413 1.362 . S
C412 C415 1.378 . S
C412 H427 0.929 . S
C413 C412 1.362 . S
C413 C414 1.366 . S
C414 C411 1.365 . S
C414 C413 1.366 . S
C414 H428 0.930 . S
C415 C412 1.378 . S
C415 N416 1.315 . S
C415 H418 0.930 . S
N416 Co396 2.194 . S
N416 C411 1.328 . S
N416 C415 1.315 . S
H417 C411 0.929 . S
H418 C415 0.930 . S
H419 C407 0.929 . S
H420 C409 0.929 . S
O421 Co396 2.351 . S
O421 C424 1.244 . S
O422 Co396 2.155 . S
O422 C424 1.240 . S
O423 Co396 2.096 . S
O423 C404 1.247 . S
C424 O421 1.244 . S
C424 O422 1.240 . S
H425 C399 0.931 . S
H426 C408 0.931 . S
H427 C412 0.929 . S
H428 C414 0.930 . S
Co429 N433 2.148 . S
Co429 N439 2.128 . S
Co429 N449 2.194 . S
Co429 O454 2.351 . S
Co429 O455 2.155 . S
Co429 O456 2.096 . S
C430 N433 1.301 . S
C430 N434 1.328 . S
C430 H435 0.930 . S
C431 C432 1.333 . S
C431 N433 1.317 . S
C431 H436 0.930 . S
C432 C431 1.333 . S
C432 N434 1.350 . S
C432 H458 0.931 . S
N433 Co429 2.148 . S
N433 C430 1.301 . S
N433 C431 1.317 . S
N434 C430 1.328 . S
N434 C432 1.350 . S
H435 C430 0.930 . S
H436 C431 0.930 . S
C437 O438 1.224 . S
C437 O456 1.247 . S
O438 C437 1.224 . S
N439 Co429 2.128 . S
N439 C440 1.355 . S
N439 C442 1.311 . S
C440 N439 1.355 . S
C440 C441 1.363 . S
C440 H452 0.929 . S
C441 C440 1.363 . S
C441 N443 1.375 . S
C441 H459 0.931 . S
C442 N439 1.311 . S
C442 N443 1.347 . S
C442 H453 0.929 . S
N443 C441 1.375 . S
N443 C442 1.347 . S
C444 C447 1.365 . S
C444 N449 1.328 . S
C444 H450 0.929 . S
C445 C446 1.362 . S
C445 C448 1.378 . S
C445 H460 0.929 . S
C446 C445 1.362 . S
C446 C447 1.366 . S
C447 C444 1.365 . S
C447 C446 1.366 . S
C447 H461 0.930 . S
C448 C445 1.378 . S
C448 N449 1.315 . S
C448 H451 0.930 . S
N449 Co429 2.194 . S
N449 C444 1.328 . S
N449 C448 1.315 . S
H450 C444 0.929 . S
H451 C448 0.930 . S
H452 C440 0.929 . S
H453 C442 0.929 . S
O454 Co429 2.351 . S
O454 C457 1.244 . S
O455 Co429 2.155 . S
O455 C457 1.240 . S
O456 Co429 2.096 . S
O456 C437 1.247 . S
C457 O454 1.244 . S
C457 O455 1.240 . S
H458 C432 0.931 . S
H459 C441 0.931 . S
H460 C445 0.929 . S
H461 C447 0.930 . S
Co462 N466 2.148 . S
Co462 N472 2.128 . S
Co462 N482 2.194 . S
Co462 O487 2.351 . S
Co462 O488 2.155 . S
Co462 O489 2.096 . S
C463 N466 1.301 . S
C463 N467 1.328 . S
C463 H468 0.930 . S
C464 C465 1.333 . S
C464 N466 1.317 . S
C464 H469 0.930 . S
C465 C464 1.333 . S
C465 N467 1.350 . S
C465 H491 0.931 . S
N466 Co462 2.148 . S
N466 C463 1.301 . S
N466 C464 1.317 . S
N467 C463 1.328 . S
N467 C465 1.350 . S
H468 C463 0.930 . S
H469 C464 0.930 . S
C470 O471 1.224 . S
C470 O489 1.247 . S
O471 C470 1.224 . S
N472 Co462 2.128 . S
N472 C473 1.355 . S
N472 C475 1.311 . S
C473 N472 1.355 . S
C473 C474 1.363 . S
C473 H485 0.929 . S
C474 C473 1.363 . S
C474 N476 1.375 . S
C474 H492 0.931 . S
C475 N472 1.311 . S
C475 N476 1.347 . S
C475 H486 0.929 . S
N476 C474 1.375 . S
N476 C475 1.347 . S
C477 C480 1.365 . S
C477 N482 1.328 . S
C477 H483 0.929 . S
C478 C479 1.362 . S
C478 C481 1.378 . S
C478 H493 0.929 . S
C479 C478 1.362 . S
C479 C480 1.366 . S
C480 C477 1.365 . S
C480 C479 1.366 . S
C480 H494 0.930 . S
C481 C478 1.378 . S
C481 N482 1.315 . S
C481 H484 0.930 . S
N482 Co462 2.194 . S
N482 C477 1.328 . S
N482 C481 1.315 . S
H483 C477 0.929 . S
H484 C481 0.930 . S
H485 C473 0.929 . S
H486 C475 0.929 . S
O487 Co462 2.351 . S
O487 C490 1.244 . S
O488 Co462 2.155 . S
O488 C490 1.240 . S
O489 Co462 2.096 . S
O489 C470 1.247 . S
C490 O487 1.244 . S
C490 O488 1.240 . S
H491 C465 0.931 . S
H492 C474 0.931 . S
H493 C478 0.929 . S
H494 C480 0.930 . S
Co495 N499 2.148 . S
Co495 N505 2.128 . S
Co495 N515 2.194 . S
Co495 O520 2.351 . S
Co495 O521 2.155 . S
Co495 O522 2.096 . S
C496 N499 1.301 . S
C496 N500 1.328 . S
C496 H501 0.930 . S
C497 C498 1.333 . S
C497 N499 1.317 . S
C497 H502 0.930 . S
C498 C497 1.333 . S
C498 N500 1.350 . S
C498 H524 0.931 . S
N499 Co495 2.148 . S
N499 C496 1.301 . S
N499 C497 1.317 . S
N500 C496 1.328 . S
N500 C498 1.350 . S
H501 C496 0.930 . S
H502 C497 0.930 . S
C503 O504 1.224 . S
C503 O522 1.247 . S
O504 C503 1.224 . S
N505 Co495 2.128 . S
N505 C506 1.355 . S
N505 C508 1.311 . S
C506 N505 1.355 . S
C506 C507 1.363 . S
C506 H518 0.929 . S
C507 C506 1.363 . S
C507 N509 1.375 . S
C507 H525 0.931 . S
C508 N505 1.311 . S
C508 N509 1.347 . S
C508 H519 0.929 . S
N509 C507 1.375 . S
N509 C508 1.347 . S
C510 C513 1.365 . S
C510 N515 1.328 . S
C510 H516 0.929 . S
C511 C512 1.362 . S
C511 C514 1.378 . S
C511 H526 0.929 . S
C512 C511 1.362 . S
C512 C513 1.366 . S
C513 C510 1.365 . S
C513 C512 1.366 . S
C513 H527 0.930 . S
C514 C511 1.378 . S
C514 N515 1.315 . S
C514 H517 0.930 . S
N515 Co495 2.194 . S
N515 C510 1.328 . S
N515 C514 1.315 . S
H516 C510 0.929 . S
H517 C514 0.930 . S
H518 C506 0.929 . S
H519 C508 0.929 . S
O520 Co495 2.351 . S
O520 C523 1.244 . S
O521 Co495 2.155 . S
O521 C523 1.240 . S
O522 Co495 2.096 . S
O522 C503 1.247 . S
C523 O520 1.244 . S
C523 O521 1.240 . S
H524 C498 0.931 . S
H525 C507 0.931 . S
H526 C511 0.929 . S
H527 C513 0.930 . S
H528 C540 0.930 . S
H529 C542 0.930 . S
H530 C543 0.930 . S
H531 C547 0.959 . S
H532 C547 0.959 . S
H533 C547 0.961 . S
H534 C548 0.960 . S
H535 C548 0.961 . S
H536 C548 0.959 . S
H537 C551 0.929 . S
H538 C552 0.931 . S
H539 C554 0.930 . S
C540 H528 0.930 . S
C540 C541 1.399 . S
C540 C545 1.399 . S
C541 C540 1.399 . S
C541 C542 1.376 . S
C542 H529 0.930 . S
C542 C541 1.376 . S
C542 C543 1.388 . S
C543 H530 0.930 . S
C543 C542 1.388 . S
C543 C544 1.390 . S
C544 C543 1.390 . S
C544 C545 1.394 . S
C544 C550 1.465 . S
C545 C540 1.399 . S
C545 C544 1.394 . S
C545 C546 1.516 . S
C546 C545 1.516 . S
C546 C547 1.502 . S
C546 C548 1.561 . S
C546 C549 1.526 . S
C547 H531 0.959 . S
C547 H532 0.959 . S
C547 H533 0.961 . S
C547 C546 1.502 . S
C548 H534 0.960 . S
C548 H535 0.961 . S
C548 H536 0.959 . S
C548 C546 1.561 . S
C549 C546 1.526 . S
C549 C550 1.396 . S
C549 C554 1.390 . S
C550 C544 1.465 . S
C550 C549 1.396 . S
C550 C551 1.399 . S
C551 H537 0.929 . S
C551 C550 1.399 . S
C551 C552 1.385 . S
C552 H538 0.931 . S
C552 C551 1.385 . S
C552 C553 1.389 . S
C553 C552 1.389 . S
C553 C554 1.387 . S
C554 H539 0.930 . S
C554 C549 1.390 . S
C554 C553 1.387 . S
H555 C567 0.930 . S
H556 C569 0.930 . S
H557 C570 0.930 1_545 S
H558 C574 0.959 . S
H559 C574 0.959 . S
H560 C574 0.961 . S
H561 C575 0.960 . S
H562 C575 0.961 . S
H563 C575 0.975 . S
H564 C578 0.929 . S
H565 C579 0.931 . S
H566 C581 0.930 . S
C567 H555 0.930 . S
C567 C568 1.399 . S
C567 C572 1.399 . S
C568 C567 1.399 . S
C568 C569 1.376 . S
C569 H556 0.930 . S
C569 C568 1.376 . S
C569 C570 1.388 . S
C570 H557 0.930 1_565 S
C570 C569 1.388 . S
C570 C571 1.390 . S
C571 C570 1.390 . S
C571 C572 1.394 . S
C571 C577 1.465 1_665 S
C572 C567 1.399 . S
C572 C571 1.394 . S
C572 C573 1.516 . S
C573 C572 1.516 . S
C573 C574 1.502 1_655 S
C573 C575 1.561 . S
C573 C576 1.526 1_665 S
C574 H558 0.959 . S
C574 H559 0.959 . S
C574 H560 0.961 . S
C574 C573 1.502 1_455 S
C575 H561 0.960 . S
C575 H562 0.961 . S
C575 H563 0.975 . S
C575 C573 1.561 . S
C576 C573 1.526 1_445 S
C576 C577 1.396 . S
C576 C581 1.390 . S
C577 C571 1.465 1_445 S
C577 C576 1.396 . S
C577 C578 1.399 . S
C578 H564 0.929 . S
C578 C577 1.399 . S
C578 C579 1.385 . S
C579 H565 0.931 . S
C579 C578 1.385 . S
C579 C580 1.389 . S
C580 C579 1.389 . S
C580 C581 1.387 . S
C581 H566 0.930 . S
C581 C576 1.390 . S
C581 C580 1.387 . S
H582 C594 0.930 . S
H583 C596 0.930 . S
H584 C597 0.930 . S
H585 C601 0.959 . S
H586 C601 0.959 . S
H587 C601 0.961 . S
H588 C602 0.960 1_545 S
H589 C602 0.961 . S
H590 C602 0.959 . S
H591 C605 0.929 . S
H592 C606 0.931 . S
H593 C608 0.930 . S
C594 H582 0.930 . S
C594 C595 1.399 . S
C594 C599 1.399 . S
C595 C594 1.399 . S
C595 C596 1.376 . S
C596 H583 0.930 . S
C596 C595 1.376 . S
C596 C597 1.388 . S
C597 H584 0.930 . S
C597 C596 1.388 . S
C597 C598 1.390 . S
C598 C597 1.390 . S
C598 C599 1.394 . S
C598 C604 1.465 1_545 S
C599 C594 1.399 . S
C599 C598 1.394 . S
C599 C600 1.516 . S
C600 C599 1.516 . S
C600 C601 1.502 . S
C600 C602 1.561 1_545 S
C600 C603 1.526 1_545 S
C601 H585 0.959 . S
C601 H586 0.959 . S
C601 H587 0.961 . S
C601 C600 1.502 . S
C602 H588 0.960 1_565 S
C602 H589 0.961 . S
C602 H590 0.959 . S
C602 C600 1.561 1_565 S
C603 C600 1.526 1_565 S
C603 C604 1.396 . S
C603 C608 1.390 . S
C604 C598 1.465 1_565 S
C604 C603 1.396 . S
C604 C605 1.399 . S
C605 H591 0.929 . S
C605 C604 1.399 . S
C605 C606 1.385 . S
C606 H592 0.931 . S
C606 C605 1.385 . S
C606 C607 1.389 . S
C607 C606 1.389 . S
C607 C608 1.387 . S
C608 H593 0.930 . S
C608 C603 1.390 . S
C608 C607 1.387 . S
H609 C621 0.930 . S
H610 C623 0.926 1_455 S
H611 C624 0.930 . S
H612 C628 0.959 . S
H613 C628 0.959 . S
H614 C628 0.961 . S
H615 C629 0.960 . S
H616 C629 0.961 . S
H617 C629 0.959 1_455 S
H618 C632 0.929 . S
H619 C633 0.931 . S
H620 C635 0.930 . S
C621 H609 0.930 . S
C621 C622 1.399 . S
C621 C626 1.399 . S
C622 C621 1.399 . S
C622 C623 1.376 . S
C623 H610 0.926 1_655 S
C623 C622 1.376 . S
C623 C624 1.388 1_655 S
C624 H611 0.930 . S
C624 C623 1.388 1_455 S
C624 C625 1.390 . S
C625 C624 1.390 . S
C625 C626 1.394 1_455 S
C625 C631 1.465 . S
C626 C621 1.399 . S
C626 C625 1.394 1_655 S
C626 C627 1.516 . S
C627 C626 1.516 . S
C627 C628 1.502 . S
C627 C629 1.561 . S
C627 C630 1.526 1_655 S
C628 H612 0.959 . S
C628 H613 0.959 . S
C628 H614 0.961 . S
C628 C627 1.502 . S
C629 H615 0.960 . S
C629 H616 0.961 . S
C629 H617 0.959 1_655 S
C629 C627 1.561 . S
C630 C627 1.526 1_455 S
C630 C631 1.396 . S
C630 C635 1.390 . S
C631 C625 1.465 . S
C631 C630 1.396 . S
C631 C632 1.399 . S
C632 H618 0.929 . S
C632 C631 1.399 . S
C632 C633 1.385 . S
C633 H619 0.931 . S
C633 C632 1.385 . S
C633 C634 1.389 . S
C634 C633 1.389 . S
C634 C635 1.387 . S
C635 H620 0.930 . S
C635 C630 1.390 . S
C635 C634 1.387 . S
H636 C648 0.930 . S
H637 C650 0.930 . S
H638 C651 0.930 . S
H639 C655 0.959 . S
H640 C655 0.959 . S
H641 C655 0.961 . S
H642 C656 0.960 . S
H643 C656 0.961 . S
H644 C656 0.959 . S
H645 C659 0.929 . S
H646 C660 0.931 . S
H647 C662 0.930 . S
C648 H636 0.930 . S
C648 C649 1.399 . S
C648 C653 1.399 . S
C649 C648 1.399 . S
C649 C650 1.376 . S
C650 H637 0.930 . S
C650 C649 1.376 . S
C650 C651 1.388 . S
C651 H638 0.930 . S
C651 C650 1.388 . S
C651 C652 1.390 . S
C652 C651 1.390 . S
C652 C653 1.394 . S
C652 C658 1.465 . S
C653 C648 1.399 . S
C653 C652 1.394 . S
C653 C654 1.516 . S
C654 C653 1.516 . S
C654 C655 1.502 . S
C654 C656 1.561 . S
C654 C657 1.526 . S
C655 H639 0.959 . S
C655 H640 0.959 . S
C655 H641 0.961 . S
C655 C654 1.502 . S
C656 H642 0.960 . S
C656 H643 0.961 . S
C656 H644 0.959 . S
C656 C654 1.561 . S
C657 C654 1.526 . S
C657 C658 1.396 . S
C657 C662 1.390 . S
C658 C652 1.465 . S
C658 C657 1.396 . S
C658 C659 1.399 . S
C659 H645 0.929 . S
C659 C658 1.399 . S
C659 C660 1.385 . S
C660 H646 0.931 . S
C660 C659 1.385 . S
C660 C661 1.389 . S
C661 C660 1.389 . S
C661 C662 1.387 . S
C662 H647 0.930 . S
C662 C657 1.390 . S
C662 C661 1.387 . S
H663 C675 0.930 . S
H664 C677 0.930 . S
H665 C678 0.930 . S
H666 C682 0.959 . S
H667 C682 0.959 1_545 S
H668 C682 0.961 . S
H669 C683 0.960 . S
H670 C683 0.961 . S
H671 C683 0.959 . S
H672 C686 0.929 . S
H673 C687 0.931 . S
H674 C689 0.930 . S
C675 H663 0.930 . S
C675 C676 1.399 . S
C675 C680 1.399 . S
C676 C675 1.399 . S
C676 C677 1.376 . S
C677 H664 0.930 . S
C677 C676 1.376 . S
C677 C678 1.388 . S
C678 H665 0.930 . S
C678 C677 1.388 . S
C678 C679 1.390 . S
C679 C678 1.390 . S
C679 C680 1.394 . S
C679 C685 1.465 1_565 S
C680 C675 1.399 . S
C680 C679 1.394 . S
C680 C681 1.516 1_565 S
C681 C680 1.516 1_545 S
C681 C682 1.502 1_545 S
C681 C683 1.561 . S
C681 C684 1.526 . S
C682 H666 0.959 . S
C682 H667 0.959 1_565 S
C682 H668 0.961 . S
C682 C681 1.502 1_565 S
C683 H669 0.960 . S
C683 H670 0.961 . S
C683 H671 0.959 . S
C683 C681 1.561 . S
C684 C681 1.526 . S
C684 C685 1.396 . S
C684 C689 1.390 . S
C685 C679 1.465 1_545 S
C685 C684 1.396 . S
C685 C686 1.399 . S
C686 H672 0.929 . S
C686 C685 1.399 . S
C686 C687 1.385 . S
C687 H673 0.931 . S
C687 C686 1.385 . S
C687 C688 1.389 . S
C688 C687 1.389 . S
C688 C689 1.387 . S
C689 H674 0.930 . S
C689 C684 1.390 . S
C689 C688 1.387 . S
H690 C702 0.930 . S
H691 C704 0.930 . S
H692 C705 0.930 . S
H693 C709 0.959 . S
H694 C709 0.959 . S
H695 C709 0.961 . S
H696 C710 0.960 . S
H697 C710 0.961 . S
H698 C710 0.959 . S
H699 C713 0.929 . S
H700 C714 0.931 . S
H701 C716 0.930 . S
C702 H690 0.930 . S
C702 C703 1.399 . S
C702 C707 1.399 . S
C703 C702 1.399 . S
C703 C704 1.376 . S
C704 H691 0.930 . S
C704 C703 1.376 . S
C704 C705 1.388 . S
C705 H692 0.930 . S
C705 C704 1.388 . S
C705 C706 1.390 . S
C706 C705 1.390 . S
C706 C707 1.394 . S
C706 C712 1.465 1_655 S
C707 C702 1.399 . S
C707 C706 1.394 . S
C707 C708 1.516 . S
C708 C707 1.516 . S
C708 C709 1.502 1_655 S
C708 C710 1.561 . S
C708 C711 1.526 1_655 S
C709 H693 0.959 . S
C709 H694 0.959 . S
C709 H695 0.961 . S
C709 C708 1.502 1_455 S
C710 H696 0.960 . S
C710 H697 0.961 . S
C710 H698 0.959 . S
C710 C708 1.561 . S
C711 C708 1.526 1_455 S
C711 C712 1.396 . S
C711 C716 1.390 . S
C712 C706 1.465 1_455 S
C712 C711 1.396 . S
C712 C713 1.399 . S
C713 H699 0.929 . S
C713 C712 1.399 . S
C713 C714 1.385 . S
C714 H700 0.931 . S
C714 C713 1.385 . S
C714 C715 1.389 . S
C715 C714 1.389 . S
C715 C716 1.387 . S
C716 H701 0.930 . S
C716 C711 1.390 . S
C716 C715 1.387 . S
H717 C729 0.930 . S
H718 C731 0.930 . S
H719 C732 0.930 . S
H720 C736 0.959 . S
H721 C736 0.959 . S
H722 C736 0.961 . S
H723 C737 0.960 . S
H724 C737 0.961 . S
H725 C737 0.959 . S
H726 C740 0.929 . S
H727 C741 0.931 . S
H728 C743 0.930 . S
C729 H717 0.930 . S
C729 C730 1.399 1_556 S
C729 C734 1.399 . S
C730 C729 1.399 1_554 S
C730 C731 1.376 . S
C731 H718 0.930 . S
C731 C730 1.376 . S
C731 C732 1.388 . S
C732 H719 0.930 . S
C732 C731 1.388 . S
C732 C733 1.390 . S
C733 C732 1.390 . S
C733 C734 1.394 1_554 S
C733 C739 1.465 . S
C734 C729 1.399 . S
C734 C733 1.394 1_556 S
C734 C735 1.516 . S
C735 C734 1.516 . S
C735 C736 1.502 . S
C735 C737 1.561 . S
C735 C738 1.526 . S
C736 H720 0.959 . S
C736 H721 0.959 . S
C736 H722 0.961 . S
C736 C735 1.502 . S
C737 H723 0.960 . S
C737 H724 0.961 . S
C737 H725 0.959 . S
C737 C735 1.561 . S
C738 C735 1.526 . S
C738 C739 1.396 1_556 S
C738 C743 1.390 . S
C739 C733 1.465 . S
C739 C738 1.396 1_554 S
C739 C740 1.399 . S
C740 H726 0.929 . S
C740 C739 1.399 . S
C740 C741 1.385 . S
C741 H727 0.931 . S
C741 C740 1.385 . S
C741 C742 1.389 1_554 S
C742 C741 1.389 1_556 S
C742 C743 1.387 . S
C743 H728 0.930 . S
C743 C738 1.390 . S
C743 C742 1.387 . S
H744 C756 0.930 1_456 S
H745 C758 0.930 . S
H746 C759 0.930 . S
H747 C763 0.959 1_554 S
H748 C763 0.959 . S
H749 C763 0.961 . S
H750 C764 0.960 . S
H751 C764 0.961 . S
H752 C764 0.959 1_655 S
H753 C767 0.929 . S
H754 C768 0.927 1_655 S
H755 C770 0.930 . S
C756 H744 0.930 1_654 S
C756 C757 1.399 . S
C756 C761 1.399 1_554 S
C757 C756 1.399 . S
C757 C758 1.376 . S
C758 H745 0.930 . S
C758 C757 1.376 . S
C758 C759 1.388 . S
C759 H746 0.930 . S
C759 C758 1.388 . S
C759 C760 1.390 . S
C760 C759 1.390 . S
C760 C761 1.394 1_554 S
C760 C766 1.465 . S
C761 C756 1.399 1_556 S
C761 C760 1.394 1_556 S
C761 C762 1.516 1_655 S
C762 C761 1.516 1_455 S
C762 C763 1.502 . S
C762 C764 1.561 . S
C762 C765 1.526 . S
C763 H747 0.959 1_556 S
C763 H748 0.959 . S
C763 H749 0.961 . S
C763 C762 1.502 . S
C764 H750 0.960 . S
C764 H751 0.961 . S
C764 H752 0.959 1_455 S
C764 C762 1.561 . S
C765 C762 1.526 . S
C765 C766 1.396 1_456 S
C765 C770 1.390 . S
C766 C760 1.465 . S
C766 C765 1.396 1_654 S
C766 C767 1.399 . S
C767 H753 0.929 . S
C767 C766 1.399 . S
C767 C768 1.384 1_655 S
C768 H754 0.927 1_455 S
C768 C767 1.384 1_455 S
C768 C769 1.396 1_554 S
C769 C768 1.396 1_556 S
C769 C770 1.387 . S
C770 H755 0.930 . S
C770 C765 1.390 . S
C770 C769 1.387 . S
H771 C783 0.930 . S
H772 C785 0.930 . S
H773 C786 0.930 . S
H774 C790 0.959 . S
H775 C790 0.959 . S
H776 C790 0.961 . S
H777 C791 0.960 . S
H778 C791 0.961 . S
H779 C791 0.959 . S
H780 C794 0.929 . S
H781 C795 0.931 . S
H782 C797 0.930 . S
C783 H771 0.930 . S
C783 C784 1.399 . S
C783 C788 1.399 . S
C784 C783 1.399 . S
C784 C785 1.376 . S
C785 H772 0.930 . S
C785 C784 1.376 . S
C785 C786 1.388 . S
C786 H773 0.930 . S
C786 C785 1.388 . S
C786 C787 1.390 . S
C787 C786 1.390 . S
C787 C788 1.394 . S
C787 C793 1.465 . S
C788 C783 1.399 . S
C788 C787 1.394 . S
C788 C789 1.516 . S
C789 C788 1.516 . S
C789 C790 1.502 . S
C789 C791 1.561 . S
C789 C792 1.526 . S
C790 H774 0.959 . S
C790 H775 0.959 . S
C790 H776 0.961 . S
C790 C789 1.502 . S
C791 H777 0.960 . S
C791 H778 0.961 . S
C791 H779 0.959 . S
C791 C789 1.561 . S
C792 C789 1.526 . S
C792 C793 1.396 . S
C792 C797 1.390 . S
C793 C787 1.465 . S
C793 C792 1.396 . S
C793 C794 1.399 . S
C794 H780 0.929 . S
C794 C793 1.399 . S
C794 C795 1.385 . S
C795 H781 0.931 . S
C795 C794 1.385 . S
C795 C796 1.389 . S
C796 C795 1.389 . S
C796 C797 1.387 . S
C797 H782 0.930 . S
C797 C792 1.390 . S
C797 C796 1.387 . S
H798 C810 0.930 . S
H799 C812 0.930 . S
H800 C813 0.930 . S
H801 C817 0.959 . S
H802 C817 0.959 . S
H803 C817 0.961 . S
H804 C818 0.960 . S
H805 C818 0.961 . S
H806 C818 0.959 . S
H807 C821 0.929 . S
H808 C822 0.931 . S
H809 C824 0.930 . S
C810 H798 0.930 . S
C810 C811 1.399 . S
C810 C815 1.399 . S
C811 C810 1.399 . S
C811 C812 1.376 1_556 S
C812 H799 0.930 . S
C812 C811 1.376 1_554 S
C812 C813 1.388 . S
C813 H800 0.930 . S
C813 C812 1.388 . S
C813 C814 1.390 . S
C814 C813 1.390 . S
C814 C815 1.394 1_554 S
C814 C820 1.465 . S
C815 C810 1.399 . S
C815 C814 1.394 1_556 S
C815 C816 1.516 . S
C816 C815 1.516 . S
C816 C817 1.502 . S
C816 C818 1.561 . S
C816 C819 1.526 . S
C817 H801 0.959 . S
C817 H802 0.959 . S
C817 H803 0.961 . S
C817 C816 1.502 . S
C818 H804 0.960 . S
C818 H805 0.961 . S
C818 H806 0.959 . S
C818 C816 1.561 . S
C819 C816 1.526 . S
C819 C820 1.396 1_556 S
C819 C824 1.390 . S
C820 C814 1.465 . S
C820 C819 1.396 1_554 S
C820 C821 1.399 . S
C821 H807 0.929 . S
C821 C820 1.399 . S
C821 C822 1.385 . S
C822 H808 0.931 . S
C822 C821 1.385 . S
C822 C823 1.389 . S
C823 C822 1.389 . S
C823 C824 1.387 1_554 S
C824 H809 0.930 . S
C824 C819 1.390 . S
C824 C823 1.387 1_556 S
H825 C837 0.930 . S
H826 C839 0.930 . S
H827 C840 0.930 . S
H828 C844 0.959 . S
H829 C844 0.959 . S
H830 C844 0.961 . S
H831 C845 0.960 . S
H832 C845 0.961 . S
H833 C845 0.959 . S
H834 C848 0.929 . S
H835 C849 0.931 . S
H836 C851 0.930 . S
C837 H825 0.930 . S
C837 C838 1.399 . S
C837 C842 1.399 . S
C838 C837 1.399 . S
C838 C839 1.376 . S
C839 H826 0.930 . S
C839 C838 1.376 . S
C839 C840 1.388 . S
C840 H827 0.930 . S
C840 C839 1.388 . S
C840 C841 1.390 . S
C841 C840 1.390 . S
C841 C842 1.394 . S
C841 C847 1.465 . S
C842 C837 1.399 . S
C842 C841 1.394 . S
C842 C843 1.516 . S
C843 C842 1.516 . S
C843 C844 1.502 . S
C843 C845 1.561 . S
C843 C846 1.526 . S
C844 H828 0.959 . S
C844 H829 0.959 . S
C844 H830 0.961 . S
C844 C843 1.502 . S
C845 H831 0.960 . S
C845 H832 0.961 . S
C845 H833 0.959 . S
C845 C843 1.561 . S
C846 C843 1.526 . S
C846 C847 1.396 . S
C846 C851 1.390 . S
C847 C841 1.465 . S
C847 C846 1.396 . S
C847 C848 1.399 . S
C848 H834 0.929 . S
C848 C847 1.399 . S
C848 C849 1.385 . S
C849 H835 0.931 . S
C849 C848 1.385 . S
C849 C850 1.389 . S
C850 C849 1.389 . S
C850 C851 1.387 . S
C851 H836 0.930 . S
C851 C846 1.390 . S
C851 C850 1.387 . S
H852 C864 0.930 . S
H853 C866 0.930 . S
H854 C867 0.930 . S
H855 C871 0.959 . S
H856 C871 0.959 . S
H857 C871 0.961 1_545 S
H858 C872 0.960 . S
H859 C872 0.961 . S
H860 C872 0.959 . S
H861 C875 0.929 . S
H862 C876 0.931 . S
H863 C878 0.930 . S
C864 H852 0.930 . S
C864 C865 1.399 1_554 S
C864 C869 1.399 . S
C865 C864 1.399 1_556 S
C865 C866 1.376 . S
C866 H853 0.930 . S
C866 C865 1.376 . S
C866 C867 1.388 . S
C867 H854 0.930 . S
C867 C866 1.388 . S
C867 C868 1.390 . S
C868 C867 1.390 . S
C868 C869 1.394 1_556 S
C868 C874 1.465 1_545 S
C869 C864 1.399 . S
C869 C868 1.394 1_554 S
C869 C870 1.516 . S
C870 C869 1.516 . S
C870 C871 1.502 1_545 S
C870 C872 1.561 . S
C870 C873 1.526 1_545 S
C871 H855 0.959 . S
C871 H856 0.959 . S
C871 H857 0.961 1_565 S
C871 C870 1.502 1_565 S
C872 H858 0.960 . S
C872 H859 0.961 . S
C872 H860 0.959 . S
C872 C870 1.561 . S
C873 C870 1.526 1_565 S
C873 C874 1.396 1_554 S
C873 C878 1.390 . S
C874 C868 1.465 1_565 S
C874 C873 1.396 1_556 S
C874 C875 1.399 . S
C875 H861 0.929 . S
C875 C874 1.399 . S
C875 C876 1.385 . S
C876 H862 0.931 . S
C876 C875 1.385 . S
C876 C877 1.389 1_556 S
C877 C876 1.389 1_554 S
C877 C878 1.387 . S
C878 H863 0.930 . S
C878 C873 1.390 . S
C878 C877 1.387 . S
H879 C891 0.930 . S
H880 C893 0.930 . S
H881 C894 0.930 . S
H882 C898 0.959 . S
H883 C898 0.959 . S
H884 C898 0.961 . S
H885 C899 0.960 . S
H886 C899 0.961 . S
H887 C899 0.959 . S
H888 C902 0.929 . S
H889 C903 0.931 . S
H890 C905 0.930 . S
C891 H879 0.930 . S
C891 C892 1.399 . S
C891 C896 1.399 . S
C892 C891 1.399 . S
C892 C893 1.376 . S
C893 H880 0.930 . S
C893 C892 1.376 . S
C893 C894 1.388 . S
C894 H881 0.930 . S
C894 C893 1.388 . S
C894 C895 1.390 . S
C895 C894 1.390 . S
C895 C896 1.394 . S
C895 C901 1.465 . S
C896 C891 1.399 . S
C896 C895 1.394 . S
C896 C897 1.516 . S
C897 C896 1.516 . S
C897 C898 1.502 . S
C897 C899 1.561 . S
C897 C900 1.526 . S
C898 H882 0.959 . S
C898 H883 0.959 . S
C898 H884 0.961 . S
C898 C897 1.502 . S
C899 H885 0.960 . S
C899 H886 0.961 . S
C899 H887 0.959 . S
C899 C897 1.561 . S
C900 C897 1.526 . S
C900 C901 1.396 . S
C900 C905 1.390 . S
C901 C895 1.465 . S
C901 C900 1.396 . S
C901 C902 1.399 . S
C902 H888 0.929 . S
C902 C901 1.399 . S
C902 C903 1.385 . S
C903 H889 0.931 . S
C903 C902 1.385 . S
C903 C904 1.389 . S
C904 C903 1.389 . S
C904 C905 1.387 . S
C905 H890 0.930 . S
C905 C900 1.390 . S
C905 C904 1.387 . S
H906 C918 0.930 . S
H907 C920 0.930 . S
H908 C921 0.930 . S
H909 C925 0.959 . S
H910 C925 0.959 . S
H911 C925 0.961 . S
H912 C926 0.960 . S
H913 C926 0.961 . S
H914 C926 0.959 . S
H915 C929 0.929 . S
H916 C930 0.931 . S
H917 C932 0.930 . S
C918 H906 0.930 . S
C918 C919 1.399 . S
C918 C923 1.399 . S
C919 C918 1.399 . S
C919 C920 1.376 . S
C920 H907 0.930 . S
C920 C919 1.376 . S
C920 C921 1.388 . S
C921 H908 0.930 . S
C921 C920 1.388 . S
C921 C922 1.390 . S
C922 C921 1.390 . S
C922 C923 1.394 . S
C922 C928 1.465 . S
C923 C918 1.399 . S
C923 C922 1.394 . S
C923 C924 1.516 . S
C924 C923 1.516 . S
C924 C925 1.502 . S
C924 C926 1.561 . S
C924 C927 1.526 . S
C925 H909 0.959 . S
C925 H910 0.959 . S
C925 H911 0.961 . S
C925 C924 1.502 . S
C926 H912 0.960 . S
C926 H913 0.961 . S
C926 H914 0.959 . S
C926 C924 1.561 . S
C927 C924 1.526 . S
C927 C928 1.396 . S
C927 C932 1.390 . S
C928 C922 1.465 . S
C928 C927 1.396 . S
C928 C929 1.399 . S
C929 H915 0.929 . S
C929 C928 1.399 . S
C929 C930 1.385 . S
C930 H916 0.931 . S
C930 C929 1.385 . S
C930 C931 1.389 . S
C931 C930 1.389 . S
C931 C932 1.387 . S
C932 H917 0.930 . S
C932 C927 1.390 . S
C932 C931 1.387 . S
H933 C945 0.930 . S
H934 C947 0.930 . S
H935 C948 0.930 . S
H936 C952 0.959 . S
H937 C952 0.959 . S
H938 C952 0.961 . S
H939 C953 0.960 . S
H940 C953 0.961 . S
H941 C953 0.959 . S
H942 C956 0.929 . S
H943 C957 0.931 . S
H944 C959 0.930 . S
C945 H933 0.930 . S
C945 C946 1.399 . S
C945 C950 1.399 . S
C946 C945 1.399 . S
C946 C947 1.376 . S
C947 H934 0.930 . S
C947 C946 1.376 . S
C947 C948 1.388 . S
C948 H935 0.930 . S
C948 C947 1.388 . S
C948 C949 1.390 . S
C949 C948 1.390 . S
C949 C950 1.394 . S
C949 C955 1.465 . S
C950 C945 1.399 . S
C950 C949 1.394 . S
C950 C951 1.516 . S
C951 C950 1.516 . S
C951 C952 1.502 . S
C951 C953 1.561 . S
C951 C954 1.526 . S
C952 H936 0.959 . S
C952 H937 0.959 . S
C952 H938 0.961 . S
C952 C951 1.502 . S
C953 H939 0.960 . S
C953 H940 0.961 . S
C953 H941 0.959 . S
C953 C951 1.561 . S
C954 C951 1.526 . S
C954 C955 1.396 . S
C954 C959 1.390 . S
C955 C949 1.465 . S
C955 C954 1.396 . S
C955 C956 1.399 . S
C956 H942 0.929 . S
C956 C955 1.399 . S
C956 C957 1.385 . S
C957 H943 0.931 . S
C957 C956 1.385 . S
C957 C958 1.389 . S
C958 C957 1.389 . S
C958 C959 1.387 . S
C959 H944 0.930 . S
C959 C954 1.390 . S
C959 C958 1.387 . S
H960 C972 0.930 . S
H961 C974 0.930 . S
H962 C975 0.930 . S
H963 C979 0.959 . S
H964 C979 0.959 . S
H965 C979 0.961 . S
H966 C980 0.960 . S
H967 C980 0.961 . S
H968 C980 0.959 . S
H969 C983 0.929 . S
H970 C984 0.931 . S
H971 C986 0.930 . S
C972 H960 0.930 . S
C972 C973 1.399 . S
C972 C977 1.399 . S
C973 C972 1.399 . S
C973 C974 1.376 . S
C974 H961 0.930 . S
C974 C973 1.376 . S
C974 C975 1.388 . S
C975 H962 0.930 . S
C975 C974 1.388 . S
C975 C976 1.390 . S
C976 C975 1.390 . S
C976 C977 1.394 . S
C976 C982 1.465 . S
C977 C972 1.399 . S
C977 C976 1.394 . S
C977 C978 1.516 . S
C978 C977 1.516 . S
C978 C979 1.502 . S
C978 C980 1.561 . S
C978 C981 1.526 . S
C979 H963 0.959 . S
C979 H964 0.959 . S
C979 H965 0.961 . S
C979 C978 1.502 . S
C980 H966 0.960 . S
C980 H967 0.961 . S
C980 H968 0.959 . S
C980 C978 1.561 . S
C981 C978 1.526 . S
C981 C982 1.396 . S
C981 C986 1.390 . S
C982 C976 1.465 . S
C982 C981 1.396 . S
C982 C983 1.399 . S
C983 H969 0.929 . S
C983 C982 1.399 . S
C983 C984 1.385 . S
C984 H970 0.931 . S
C984 C983 1.385 . S
C984 C985 1.389 . S
C985 C984 1.389 . S
C985 C986 1.387 . S
C986 H971 0.930 . S
C986 C981 1.390 . S
C986 C985 1.387 . S
H987 C999 0.930 . S
H988 C1001 0.930 . S
H989 C1002 0.930 . S
H990 C1006 0.959 . S
H991 C1006 0.959 . S
H992 C1006 0.961 . S
H993 C1007 0.960 . S
H994 C1007 0.961 . S
H995 C1007 0.959 . S
H996 C1010 0.929 . S
H997 C1011 0.931 . S
H998 C1013 0.930 . S
C999 H987 0.930 . S
C999 C1000 1.399 . S
C999 C1004 1.399 . S
C1000 C999 1.399 . S
C1000 C1001 1.376 . S
C1001 H988 0.930 . S
C1001 C1000 1.376 . S
C1001 C1002 1.388 . S
C1002 H989 0.930 . S
C1002 C1001 1.388 . S
C1002 C1003 1.390 . S
C1003 C1002 1.390 . S
C1003 C1004 1.394 . S
C1003 C1009 1.465 . S
C1004 C999 1.399 . S
C1004 C1003 1.394 . S
C1004 C1005 1.516 . S
C1005 C1004 1.516 . S
C1005 C1006 1.502 . S
C1005 C1007 1.561 . S
C1005 C1008 1.526 . S
C1006 H990 0.959 . S
C1006 H991 0.959 . S
C1006 H992 0.961 . S
C1006 C1005 1.502 . S
C1007 H993 0.960 . S
C1007 H994 0.961 . S
C1007 H995 0.959 . S
C1007 C1005 1.561 . S
C1008 C1005 1.526 . S
C1008 C1009 1.396 . S
C1008 C1013 1.390 . S
C1009 C1003 1.465 . S
C1009 C1008 1.396 . S
C1009 C1010 1.399 . S
C1010 H996 0.929 . S
C1010 C1009 1.399 . S
C1010 C1011 1.385 . S
C1011 H997 0.931 . S
C1011 C1010 1.385 . S
C1011 C1012 1.389 . S
C1012 C1011 1.389 . S
C1012 C1013 1.387 . S
C1013 H998 0.930 . S
C1013 C1008 1.390 . S
C1013 C1012 1.387 . S
H1014 C1026 0.930 . S
H1015 C1028 0.930 . S
H1016 C1029 0.930 . S
H1017 C1033 0.959 . S
H1018 C1033 0.959 . S
H1019 C1033 0.961 . S
H1020 C1034 0.960 . S
H1021 C1034 0.961 . S
H1022 C1034 0.959 . S
H1023 C1037 0.929 . S
H1024 C1038 0.931 . S
H1025 C1040 0.930 . S
C1026 H1014 0.930 . S
C1026 C1027 1.399 . S
C1026 C1031 1.399 . S
C1027 C1026 1.399 . S
C1027 C1028 1.376 . S
C1028 H1015 0.930 . S
C1028 C1027 1.376 . S
C1028 C1029 1.388 . S
C1029 H1016 0.930 . S
C1029 C1028 1.388 . S
C1029 C1030 1.390 . S
C1030 C1029 1.390 . S
C1030 C1031 1.394 . S
C1030 C1036 1.465 . S
C1031 C1026 1.399 . S
C1031 C1030 1.394 . S
C1031 C1032 1.516 . S
C1032 C1031 1.516 . S
C1032 C1033 1.502 . S
C1032 C1034 1.561 . S
C1032 C1035 1.526 . S
C1033 H1017 0.959 . S
C1033 H1018 0.959 . S
C1033 H1019 0.961 . S
C1033 C1032 1.502 . S
C1034 H1020 0.960 . S
C1034 H1021 0.961 . S
C1034 H1022 0.959 . S
C1034 C1032 1.561 . S
C1035 C1032 1.526 . S
C1035 C1036 1.396 . S
C1035 C1040 1.390 . S
C1036 C1030 1.465 . S
C1036 C1035 1.396 . S
C1036 C1037 1.399 . S
C1037 H1023 0.929 . S
C1037 C1036 1.399 . S
C1037 C1038 1.385 . S
C1038 H1024 0.931 . S
C1038 C1037 1.385 . S
C1038 C1039 1.389 . S
C1039 C1038 1.389 . S
C1039 C1040 1.387 . S
C1040 H1025 0.930 . S
C1040 C1035 1.390 . S
C1040 C1039 1.387 . S
H1041 C1053 0.930 . S
H1042 C1055 0.930 . S
H1043 C1056 0.930 . S
H1044 C1060 0.959 . S
H1045 C1060 0.959 . S
H1046 C1060 0.961 . S
H1047 C1061 0.960 . S
H1048 C1061 0.961 . S
H1049 C1061 0.959 . S
H1050 C1064 0.929 . S
H1051 C1065 0.931 . S
H1052 C1067 0.930 . S
C1053 H1041 0.930 . S
C1053 C1054 1.399 . S
C1053 C1058 1.399 . S
C1054 C1053 1.399 . S
C1054 C1055 1.376 . S
C1055 H1042 0.930 . S
C1055 C1054 1.376 . S
C1055 C1056 1.388 . S
C1056 H1043 0.930 . S
C1056 C1055 1.388 . S
C1056 C1057 1.390 . S
C1057 C1056 1.390 . S
C1057 C1058 1.394 . S
C1057 C1063 1.465 . S
C1058 C1053 1.399 . S
C1058 C1057 1.394 . S
C1058 C1059 1.516 . S
C1059 C1058 1.516 . S
C1059 C1060 1.502 . S
C1059 C1061 1.561 . S
C1059 C1062 1.526 . S
C1060 H1044 0.959 . S
C1060 H1045 0.959 . S
C1060 H1046 0.961 . S
C1060 C1059 1.502 . S
C1061 H1047 0.960 . S
C1061 H1048 0.961 . S
C1061 H1049 0.959 . S
C1061 C1059 1.561 . S
C1062 C1059 1.526 . S
C1062 C1063 1.396 . S
C1062 C1067 1.390 . S
C1063 C1057 1.465 . S
C1063 C1062 1.396 . S
C1063 C1064 1.399 . S
C1064 H1050 0.929 . S
C1064 C1063 1.399 . S
C1064 C1065 1.385 . S
C1065 H1051 0.931 . S
C1065 C1064 1.385 . S
C1065 C1066 1.389 . S
C1066 C1065 1.389 . S
C1066 C1067 1.387 . S
C1067 H1052 0.930 . S
C1067 C1062 1.390 . S
C1067 C1066 1.387 . S
H1068 C1080 0.930 . S
H1069 C1082 0.930 . S
H1070 C1083 0.930 . S
H1071 C1087 0.959 . S
H1072 C1087 0.959 . S
H1073 C1087 0.961 . S
H1074 C1088 0.960 . S
H1075 C1088 0.961 . S
H1076 C1088 0.959 . S
H1077 C1091 0.929 . S
H1078 C1092 0.931 . S
H1079 C1094 0.930 . S
C1080 H1068 0.930 . S
C1080 C1081 1.399 . S
C1080 C1085 1.399 . S
C1081 C1080 1.399 . S
C1081 C1082 1.376 . S
C1082 H1069 0.930 . S
C1082 C1081 1.376 . S
C1082 C1083 1.388 . S
C1083 H1070 0.930 . S
C1083 C1082 1.388 . S
C1083 C1084 1.390 . S
C1084 C1083 1.390 . S
C1084 C1085 1.394 . S
C1084 C1090 1.465 . S
C1085 C1080 1.399 . S
C1085 C1084 1.394 . S
C1085 C1086 1.516 . S
C1086 C1085 1.516 . S
C1086 C1087 1.502 . S
C1086 C1088 1.561 . S
C1086 C1089 1.526 . S
C1087 H1071 0.959 . S
C1087 H1072 0.959 . S
C1087 H1073 0.961 . S
C1087 C1086 1.502 . S
C1088 H1074 0.960 . S
C1088 H1075 0.961 . S
C1088 H1076 0.959 . S
C1088 C1086 1.561 . S
C1089 C1086 1.526 . S
C1089 C1090 1.396 . S
C1089 C1094 1.390 . S
C1090 C1084 1.465 . S
C1090 C1089 1.396 . S
C1090 C1091 1.399 . S
C1091 H1077 0.929 . S
C1091 C1090 1.399 . S
C1091 C1092 1.385 . S
C1092 H1078 0.931 . S
C1092 C1091 1.385 . S
C1092 C1093 1.389 . S
C1093 C1092 1.389 . S
C1093 C1094 1.387 . S
C1094 H1079 0.930 . S
C1094 C1089 1.390 . S
C1094 C1093 1.387 . S
H1095 C1107 0.930 . S
H1096 C1109 0.930 . S
H1097 C1110 0.930 . S
H1098 C1114 0.959 . S
H1099 C1114 0.959 . S
H1100 C1114 0.961 . S
H1101 C1115 0.960 . S
H1102 C1115 0.961 . S
H1103 C1115 0.959 . S
H1104 C1118 0.929 . S
H1105 C1119 0.931 . S
H1106 C1121 0.930 . S
C1107 H1095 0.930 . S
C1107 C1108 1.399 . S
C1107 C1112 1.399 . S
C1108 C1107 1.399 . S
C1108 C1109 1.376 . S
C1109 H1096 0.930 . S
C1109 C1108 1.376 . S
C1109 C1110 1.388 . S
C1110 H1097 0.930 . S
C1110 C1109 1.388 . S
C1110 C1111 1.390 . S
C1111 C1110 1.390 . S
C1111 C1112 1.394 . S
C1111 C1117 1.465 . S
C1112 C1107 1.399 . S
C1112 C1111 1.394 . S
C1112 C1113 1.516 . S
C1113 C1112 1.516 . S
C1113 C1114 1.502 . S
C1113 C1115 1.561 . S
C1113 C1116 1.526 . S
C1114 H1098 0.959 . S
C1114 H1099 0.959 . S
C1114 H1100 0.961 . S
C1114 C1113 1.502 . S
C1115 H1101 0.960 . S
C1115 H1102 0.961 . S
C1115 H1103 0.959 . S
C1115 C1113 1.561 . S
C1116 C1113 1.526 . S
C1116 C1117 1.396 . S
C1116 C1121 1.390 . S
C1117 C1111 1.465 . S
C1117 C1116 1.396 . S
C1117 C1118 1.399 . S
C1118 H1104 0.929 . S
C1118 C1117 1.399 . S
C1118 C1119 1.385 . S
C1119 H1105 0.931 . S
C1119 C1118 1.385 . S
C1119 C1120 1.389 . S
C1120 C1119 1.389 . S
C1120 C1121 1.387 . S
C1121 H1106 0.930 . S
C1121 C1116 1.390 . S
C1121 C1120 1.387 . S
H1122 C1134 0.930 . S
H1123 C1136 0.930 . S
H1124 C1137 0.930 . S
H1125 C1141 0.959 . S
H1126 C1141 0.959 . S
H1127 C1141 0.961 . S
H1128 C1142 0.960 . S
H1129 C1142 0.961 . S
H1130 C1142 0.959 . S
H1131 C1145 0.929 . S
H1132 C1146 0.931 . S
H1133 C1148 0.930 . S
C1134 H1122 0.930 . S
C1134 C1135 1.399 . S
C1134 C1139 1.399 . S
C1135 C1134 1.399 . S
C1135 C1136 1.376 . S
C1136 H1123 0.930 . S
C1136 C1135 1.376 . S
C1136 C1137 1.388 . S
C1137 H1124 0.930 . S
C1137 C1136 1.388 . S
C1137 C1138 1.390 . S
C1138 C1137 1.390 . S
C1138 C1139 1.394 . S
C1138 C1144 1.465 . S
C1139 C1134 1.399 . S
C1139 C1138 1.394 . S
C1139 C1140 1.516 . S
C1140 C1139 1.516 . S
C1140 C1141 1.502 . S
C1140 C1142 1.561 . S
C1140 C1143 1.526 . S
C1141 H1125 0.959 . S
C1141 H1126 0.959 . S
C1141 H1127 0.961 . S
C1141 C1140 1.502 . S
C1142 H1128 0.960 . S
C1142 H1129 0.961 . S
C1142 H1130 0.959 . S
C1142 C1140 1.561 . S
C1143 C1140 1.526 . S
C1143 C1144 1.396 . S
C1143 C1148 1.390 . S
C1144 C1138 1.465 . S
C1144 C1143 1.396 . S
C1144 C1145 1.399 . S
C1145 H1131 0.929 . S
C1145 C1144 1.399 . S
C1145 C1146 1.385 . S
C1146 H1132 0.931 . S
C1146 C1145 1.385 . S
C1146 C1147 1.389 . S
C1147 C1146 1.389 . S
C1147 C1148 1.387 . S
C1148 H1133 0.930 . S
C1148 C1143 1.390 . S
C1148 C1147 1.387 . S
H1149 C1161 0.930 . S
H1150 C1163 0.930 . S
H1151 C1164 0.930 . S
H1152 C1168 0.959 . S
H1153 C1168 0.959 . S
H1154 C1168 0.961 . S
H1155 C1169 0.960 . S
H1156 C1169 0.961 . S
H1157 C1169 0.959 . S
H1158 C1172 0.929 . S
H1159 C1173 0.931 . S
H1160 C1175 0.930 . S
C1161 H1149 0.930 . S
C1161 C1162 1.399 . S
C1161 C1166 1.399 . S
C1162 C1161 1.399 . S
C1162 C1163 1.376 . S
C1163 H1150 0.930 . S
C1163 C1162 1.376 . S
C1163 C1164 1.388 . S
C1164 H1151 0.930 . S
C1164 C1163 1.388 . S
C1164 C1165 1.390 . S
C1165 C1164 1.390 . S
C1165 C1166 1.394 . S
C1165 C1171 1.465 . S
C1166 C1161 1.399 . S
C1166 C1165 1.394 . S
C1166 C1167 1.516 . S
C1167 C1166 1.516 . S
C1167 C1168 1.502 . S
C1167 C1169 1.561 . S
C1167 C1170 1.526 . S
C1168 H1152 0.959 . S
C1168 H1153 0.959 . S
C1168 H1154 0.961 . S
C1168 C1167 1.502 . S
C1169 H1155 0.960 . S
C1169 H1156 0.961 . S
C1169 H1157 0.959 . S
C1169 C1167 1.561 . S
C1170 C1167 1.526 . S
C1170 C1171 1.396 . S
C1170 C1175 1.390 . S
C1171 C1165 1.465 . S
C1171 C1170 1.396 . S
C1171 C1172 1.399 . S
C1172 H1158 0.929 . S
C1172 C1171 1.399 . S
C1172 C1173 1.385 . S
C1173 H1159 0.931 . S
C1173 C1172 1.385 . S
C1173 C1174 1.389 . S
C1174 C1173 1.389 . S
C1174 C1175 1.387 . S
C1175 H1160 0.930 . S
C1175 C1170 1.390 . S
C1175 C1174 1.387 . S
H1176 C1188 0.930 . S
H1177 C1190 0.930 . S
H1178 C1191 0.930 . S
H1179 C1195 0.959 . S
H1180 C1195 0.959 . S
H1181 C1195 0.961 . S
H1182 C1196 0.960 . S
H1183 C1196 0.961 . S
H1184 C1196 0.959 . S
H1185 C1199 0.929 . S
H1186 C1200 0.931 . S
H1187 C1202 0.930 . S
C1188 H1176 0.930 . S
C1188 C1189 1.399 . S
C1188 C1193 1.399 . S
C1189 C1188 1.399 . S
C1189 C1190 1.376 . S
C1190 H1177 0.930 . S
C1190 C1189 1.376 . S
C1190 C1191 1.388 . S
C1191 H1178 0.930 . S
C1191 C1190 1.388 . S
C1191 C1192 1.390 . S
C1192 C1191 1.390 . S
C1192 C1193 1.394 . S
C1192 C1198 1.465 . S
C1193 C1188 1.399 . S
C1193 C1192 1.394 . S
C1193 C1194 1.516 . S
C1194 C1193 1.516 . S
C1194 C1195 1.502 . S
C1194 C1196 1.561 . S
C1194 C1197 1.526 . S
C1195 H1179 0.959 . S
C1195 H1180 0.959 . S
C1195 H1181 0.961 . S
C1195 C1194 1.502 . S
C1196 H1182 0.960 . S
C1196 H1183 0.961 . S
C1196 H1184 0.959 . S
C1196 C1194 1.561 . S
C1197 C1194 1.526 . S
C1197 C1198 1.396 . S
C1197 C1202 1.390 . S
C1198 C1192 1.465 . S
C1198 C1197 1.396 . S
C1198 C1199 1.399 . S
C1199 H1185 0.929 . S
C1199 C1198 1.399 . S
C1199 C1200 1.385 . S
C1200 H1186 0.931 . S
C1200 C1199 1.385 . S
C1200 C1201 1.389 . S
C1201 C1200 1.389 . S
C1201 C1202 1.387 . S
C1202 H1187 0.930 . S
C1202 C1197 1.390 . S
C1202 C1201 1.387 . S
H1203 C1215 0.930 . S
H1204 C1217 0.930 . S
H1205 C1218 0.930 . S
H1206 C1222 0.959 . S
H1207 C1222 0.959 . S
H1208 C1222 0.961 . S
H1209 C1223 0.960 . S
H1210 C1223 0.961 . S
H1211 C1223 0.959 . S
H1212 C1226 0.929 . S
H1213 C1227 0.931 . S
H1214 C1229 0.930 . S
C1215 H1203 0.930 . S
C1215 C1216 1.399 . S
C1215 C1220 1.399 . S
C1216 C1215 1.399 . S
C1216 C1217 1.376 . S
C1217 H1204 0.930 . S
C1217 C1216 1.376 . S
C1217 C1218 1.388 . S
C1218 H1205 0.930 . S
C1218 C1217 1.388 . S
C1218 C1219 1.390 . S
C1219 C1218 1.390 . S
C1219 C1220 1.394 . S
C1219 C1225 1.465 . S
C1220 C1215 1.399 . S
C1220 C1219 1.394 . S
C1220 C1221 1.516 . S
C1221 C1220 1.516 . S
C1221 C1222 1.502 . S
C1221 C1223 1.561 . S
C1221 C1224 1.526 . S
C1222 H1206 0.959 . S
C1222 H1207 0.959 . S
C1222 H1208 0.961 . S
C1222 C1221 1.502 . S
C1223 H1209 0.960 . S
C1223 H1210 0.961 . S
C1223 H1211 0.959 . S
C1223 C1221 1.561 . S
C1224 C1221 1.526 . S
C1224 C1225 1.396 . S
C1224 C1229 1.390 . S
C1225 C1219 1.465 . S
C1225 C1224 1.396 . S
C1225 C1226 1.399 . S
C1226 H1212 0.929 . S
C1226 C1225 1.399 . S
C1226 C1227 1.385 . S
C1227 H1213 0.931 . S
C1227 C1226 1.385 . S
C1227 C1228 1.389 . S
C1228 C1227 1.389 . S
C1228 C1229 1.387 . S
C1229 H1214 0.930 . S
C1229 C1224 1.390 . S
C1229 C1228 1.387 . S
H1230 C1242 0.930 . S
H1231 C1244 0.930 . S
H1232 C1245 0.930 . S
H1233 C1249 0.959 . S
H1234 C1249 0.959 . S
H1235 C1249 0.961 . S
H1236 C1250 0.960 . S
H1237 C1250 0.961 . S
H1238 C1250 0.959 . S
H1239 C1253 0.929 . S
H1240 C1254 0.931 . S
H1241 C1256 0.930 . S
C1242 H1230 0.930 . S
C1242 C1243 1.399 . S
C1242 C1247 1.399 . S
C1243 C1242 1.399 . S
C1243 C1244 1.376 . S
C1244 H1231 0.930 . S
C1244 C1243 1.376 . S
C1244 C1245 1.388 . S
C1245 H1232 0.930 . S
C1245 C1244 1.388 . S
C1245 C1246 1.390 . S
C1246 C1245 1.390 . S
C1246 C1247 1.394 . S
C1246 C1252 1.465 . S
C1247 C1242 1.399 . S
C1247 C1246 1.394 . S
C1247 C1248 1.516 . S
C1248 C1247 1.516 . S
C1248 C1249 1.502 . S
C1248 C1250 1.561 . S
C1248 C1251 1.526 . S
C1249 H1233 0.959 . S
C1249 H1234 0.959 . S
C1249 H1235 0.961 . S
C1249 C1248 1.502 . S
C1250 H1236 0.960 . S
C1250 H1237 0.961 . S
C1250 H1238 0.959 . S
C1250 C1248 1.561 . S
C1251 C1248 1.526 . S
C1251 C1252 1.396 . S
C1251 C1256 1.390 . S
C1252 C1246 1.465 . S
C1252 C1251 1.396 . S
C1252 C1253 1.399 . S
C1253 H1239 0.929 . S
C1253 C1252 1.399 . S
C1253 C1254 1.385 . S
C1254 H1240 0.931 . S
C1254 C1253 1.385 . S
C1254 C1255 1.389 . S
C1255 C1254 1.389 . S
C1255 C1256 1.387 . S
C1256 H1241 0.930 . S
C1256 C1251 1.390 . S
C1256 C1255 1.387 . S
H1257 C1269 0.930 . S
H1258 C1271 0.930 . S
H1259 C1272 0.930 . S
H1260 C1276 0.959 . S
H1261 C1276 0.959 . S
H1262 C1276 0.961 . S
H1263 C1277 0.960 . S
H1264 C1277 0.961 . S
H1265 C1277 0.959 . S
H1266 C1280 0.929 . S
H1267 C1281 0.931 . S
H1268 C1283 0.930 . S
C1269 H1257 0.930 . S
C1269 C1270 1.399 . S
C1269 C1274 1.399 . S
C1270 C1269 1.399 . S
C1270 C1271 1.376 . S
C1271 H1258 0.930 . S
C1271 C1270 1.376 . S
C1271 C1272 1.388 . S
C1272 H1259 0.930 . S
C1272 C1271 1.388 . S
C1272 C1273 1.390 . S
C1273 C1272 1.390 . S
C1273 C1274 1.394 . S
C1273 C1279 1.465 . S
C1274 C1269 1.399 . S
C1274 C1273 1.394 . S
C1274 C1275 1.516 . S
C1275 C1274 1.516 . S
C1275 C1276 1.502 . S
C1275 C1277 1.561 . S
C1275 C1278 1.526 . S
C1276 H1260 0.959 . S
C1276 H1261 0.959 . S
C1276 H1262 0.961 . S
C1276 C1275 1.502 . S
C1277 H1263 0.960 . S
C1277 H1264 0.961 . S
C1277 H1265 0.959 . S
C1277 C1275 1.561 . S
C1278 C1275 1.526 . S
C1278 C1279 1.396 . S
C1278 C1283 1.390 . S
C1279 C1273 1.465 . S
C1279 C1278 1.396 . S
C1279 C1280 1.399 . S
C1280 H1266 0.929 . S
C1280 C1279 1.399 . S
C1280 C1281 1.385 . S
C1281 H1267 0.931 . S
C1281 C1280 1.385 . S
C1281 C1282 1.389 . S
C1282 C1281 1.389 . S
C1282 C1283 1.387 . S
C1283 H1268 0.930 . S
C1283 C1278 1.390 . S
C1283 C1282 1.387 . S
H1284 C1296 0.930 . S
H1285 C1298 0.930 . S
H1286 C1299 0.930 . S
H1287 C1303 0.959 . S
H1288 C1303 0.959 . S
H1289 C1303 0.961 . S
H1290 C1304 0.960 . S
H1291 C1304 0.961 . S
H1292 C1304 0.959 . S
H1293 C1307 0.929 . S
H1294 C1308 0.931 . S
H1295 C1310 0.930 . S
C1296 H1284 0.930 . S
C1296 C1297 1.399 . S
C1296 C1301 1.399 . S
C1297 C1296 1.399 . S
C1297 C1298 1.376 . S
C1298 H1285 0.930 . S
C1298 C1297 1.376 . S
C1298 C1299 1.388 . S
C1299 H1286 0.930 . S
C1299 C1298 1.388 . S
C1299 C1300 1.390 . S
C1300 C1299 1.390 . S
C1300 C1301 1.394 . S
C1300 C1306 1.465 . S
C1301 C1296 1.399 . S
C1301 C1300 1.394 . S
C1301 C1302 1.516 . S
C1302 C1301 1.516 . S
C1302 C1303 1.502 . S
C1302 C1304 1.561 . S
C1302 C1305 1.526 . S
C1303 H1287 0.959 . S
C1303 H1288 0.959 . S
C1303 H1289 0.961 . S
C1303 C1302 1.502 . S
C1304 H1290 0.960 . S
C1304 H1291 0.961 . S
C1304 H1292 0.959 . S
C1304 C1302 1.561 . S
C1305 C1302 1.526 . S
C1305 C1306 1.396 . S
C1305 C1310 1.390 . S
C1306 C1300 1.465 . S
C1306 C1305 1.396 . S
C1306 C1307 1.399 . S
C1307 H1293 0.929 . S
C1307 C1306 1.399 . S
C1307 C1308 1.385 . S
C1308 H1294 0.931 . S
C1308 C1307 1.385 . S
C1308 C1309 1.389 . S
C1309 C1308 1.389 . S
C1309 C1310 1.387 . S
C1310 H1295 0.930 . S
C1310 C1305 1.390 . S
C1310 C1309 1.387 . S
H1311 C1323 0.930 . S
H1312 C1325 0.930 . S
H1313 C1326 0.930 . S
H1314 C1330 0.959 . S
H1315 C1330 0.959 . S
H1316 C1330 0.961 . S
H1317 C1331 0.960 . S
H1318 C1331 0.961 . S
H1319 C1331 0.959 . S
H1320 C1334 0.929 . S
H1321 C1335 0.931 . S
H1322 C1337 0.930 . S
C1323 H1311 0.930 . S
C1323 C1324 1.399 . S
C1323 C1328 1.399 . S
C1324 C1323 1.399 . S
C1324 C1325 1.376 . S
C1325 H1312 0.930 . S
C1325 C1324 1.376 . S
C1325 C1326 1.388 . S
C1326 H1313 0.930 . S
C1326 C1325 1.388 . S
C1326 C1327 1.390 . S
C1327 C1326 1.390 . S
C1327 C1328 1.394 . S
C1327 C1333 1.465 . S
C1328 C1323 1.399 . S
C1328 C1327 1.394 . S
C1328 C1329 1.516 . S
C1329 C1328 1.516 . S
C1329 C1330 1.502 . S
C1329 C1331 1.561 . S
C1329 C1332 1.526 . S
C1330 H1314 0.959 . S
C1330 H1315 0.959 . S
C1330 H1316 0.961 . S
C1330 C1329 1.502 . S
C1331 H1317 0.960 . S
C1331 H1318 0.961 . S
C1331 H1319 0.959 . S
C1331 C1329 1.561 . S
C1332 C1329 1.526 . S
C1332 C1333 1.396 . S
C1332 C1337 1.390 . S
C1333 C1327 1.465 . S
C1333 C1332 1.396 . S
C1333 C1334 1.399 . S
C1334 H1320 0.929 . S
C1334 C1333 1.399 . S
C1334 C1335 1.385 . S
C1335 H1321 0.931 . S
C1335 C1334 1.385 . S
C1335 C1336 1.389 . S
C1336 C1335 1.389 . S
C1336 C1337 1.387 . S
C1337 H1322 0.930 . S
C1337 C1332 1.390 . S
C1337 C1336 1.387 . S
H1338 C1350 0.930 . S
H1339 C1352 0.930 . S
H1340 C1353 0.930 . S
H1341 C1357 0.959 . S
H1342 C1357 0.959 . S
H1343 C1357 0.961 . S
H1344 C1358 0.960 . S
H1345 C1358 0.961 . S
H1346 C1358 0.959 . S
H1347 C1361 0.929 . S
H1348 C1362 0.931 . S
H1349 C1364 0.930 . S
C1350 H1338 0.930 . S
C1350 C1351 1.399 . S
C1350 C1355 1.399 . S
C1351 C1350 1.399 . S
C1351 C1352 1.376 . S
C1352 H1339 0.930 . S
C1352 C1351 1.376 . S
C1352 C1353 1.388 . S
C1353 H1340 0.930 . S
C1353 C1352 1.388 . S
C1353 C1354 1.390 . S
C1354 C1353 1.390 . S
C1354 C1355 1.394 . S
C1354 C1360 1.465 . S
C1355 C1350 1.399 . S
C1355 C1354 1.394 . S
C1355 C1356 1.516 . S
C1356 C1355 1.516 . S
C1356 C1357 1.502 . S
C1356 C1358 1.561 . S
C1356 C1359 1.526 . S
C1357 H1341 0.959 . S
C1357 H1342 0.959 . S
C1357 H1343 0.961 . S
C1357 C1356 1.502 . S
C1358 H1344 0.960 . S
C1358 H1345 0.961 . S
C1358 H1346 0.959 . S
C1358 C1356 1.561 . S
C1359 C1356 1.526 . S
C1359 C1360 1.396 . S
C1359 C1364 1.390 . S
C1360 C1354 1.465 . S
C1360 C1359 1.396 . S
C1360 C1361 1.399 . S
C1361 H1347 0.929 . S
C1361 C1360 1.399 . S
C1361 C1362 1.385 . S
C1362 H1348 0.931 . S
C1362 C1361 1.385 . S
C1362 C1363 1.389 . S
C1363 C1362 1.389 . S
C1363 C1364 1.387 . S
C1364 H1349 0.930 . S
C1364 C1359 1.390 . S
C1364 C1363 1.387 . S
H1365 C1377 0.930 . S
H1366 C1379 0.930 . S
H1367 C1380 0.930 . S
H1368 C1384 0.959 . S
H1369 C1384 0.959 . S
H1370 C1384 0.961 . S
H1371 C1385 0.960 . S
H1372 C1385 0.961 . S
H1373 C1385 0.959 . S
H1374 C1388 0.929 . S
H1375 C1389 0.931 . S
H1376 C1391 0.930 . S
C1377 H1365 0.930 . S
C1377 C1378 1.399 . S
C1377 C1382 1.399 . S
C1378 C1377 1.399 . S
C1378 C1379 1.376 . S
C1379 H1366 0.930 . S
C1379 C1378 1.376 . S
C1379 C1380 1.388 . S
C1380 H1367 0.930 . S
C1380 C1379 1.388 . S
C1380 C1381 1.390 . S
C1381 C1380 1.390 . S
C1381 C1382 1.394 . S
C1381 C1387 1.465 . S
C1382 C1377 1.399 . S
C1382 C1381 1.394 . S
C1382 C1383 1.516 . S
C1383 C1382 1.516 . S
C1383 C1384 1.502 . S
C1383 C1385 1.561 . S
C1383 C1386 1.526 . S
C1384 H1368 0.959 . S
C1384 H1369 0.959 . S
C1384 H1370 0.961 . S
C1384 C1383 1.502 . S
C1385 H1371 0.960 . S
C1385 H1372 0.961 . S
C1385 H1373 0.959 . S
C1385 C1383 1.561 . S
C1386 C1383 1.526 . S
C1386 C1387 1.396 . S
C1386 C1391 1.390 . S
C1387 C1381 1.465 . S
C1387 C1386 1.396 . S
C1387 C1388 1.399 . S
C1388 H1374 0.929 . S
C1388 C1387 1.399 . S
C1388 C1389 1.385 . S
C1389 H1375 0.931 . S
C1389 C1388 1.385 . S
C1389 C1390 1.389 . S
C1390 C1389 1.389 . S
C1390 C1391 1.387 . S
C1391 H1376 0.930 . S
C1391 C1386 1.390 . S
C1391 C1390 1.387 . S
H1392 C1404 0.930 . S
H1393 C1406 0.930 . S
H1394 C1407 0.930 . S
H1395 C1411 0.959 . S
H1396 C1411 0.959 . S
H1397 C1411 0.961 . S
H1398 C1412 0.960 . S
H1399 C1412 0.961 . S
H1400 C1412 0.959 . S
H1401 C1415 0.929 . S
H1402 C1416 0.931 . S
H1403 C1418 0.930 . S
C1404 H1392 0.930 . S
C1404 C1405 1.399 . S
C1404 C1409 1.399 . S
C1405 C1404 1.399 . S
C1405 C1406 1.376 . S
C1406 H1393 0.930 . S
C1406 C1405 1.376 . S
C1406 C1407 1.388 . S
C1407 H1394 0.930 . S
C1407 C1406 1.388 . S
C1407 C1408 1.390 . S
C1408 C1407 1.390 . S
C1408 C1409 1.394 . S
C1408 C1414 1.465 . S
C1409 C1404 1.399 . S
C1409 C1408 1.394 . S
C1409 C1410 1.516 . S
C1410 C1409 1.516 . S
C1410 C1411 1.502 . S
C1410 C1412 1.561 . S
C1410 C1413 1.526 . S
C1411 H1395 0.959 . S
C1411 H1396 0.959 . S
C1411 H1397 0.961 . S
C1411 C1410 1.502 . S
C1412 H1398 0.960 . S
C1412 H1399 0.961 . S
C1412 H1400 0.959 . S
C1412 C1410 1.561 . S
C1413 C1410 1.526 . S
C1413 C1414 1.396 . S
C1413 C1418 1.390 . S
C1414 C1408 1.465 . S
C1414 C1413 1.396 . S
C1414 C1415 1.399 . S
C1415 H1401 0.929 . S
C1415 C1414 1.399 . S
C1415 C1416 1.385 . S
C1416 H1402 0.931 . S
C1416 C1415 1.385 . S
C1416 C1417 1.389 . S
C1417 C1416 1.389 . S
C1417 C1418 1.387 . S
C1418 H1403 0.930 . S
C1418 C1413 1.390 . S
C1418 C1417 1.387 . S
H1419 C1431 0.930 . S
H1420 C1433 0.930 . S
H1421 C1434 0.930 . S
H1422 C1438 0.959 . S
H1423 C1438 0.959 . S
H1424 C1438 0.961 . S
H1425 C1439 0.960 . S
H1426 C1439 0.961 . S
H1427 C1439 0.959 . S
H1428 C1442 0.929 . S
H1429 C1443 0.931 . S
H1430 C1445 0.930 . S
C1431 H1419 0.930 . S
C1431 C1432 1.399 . S
C1431 C1436 1.399 . S
C1432 C1431 1.399 . S
C1432 C1433 1.376 . S
C1433 H1420 0.930 . S
C1433 C1432 1.376 . S
C1433 C1434 1.388 . S
C1434 H1421 0.930 . S
C1434 C1433 1.388 . S
C1434 C1435 1.390 . S
C1435 C1434 1.390 . S
C1435 C1436 1.394 . S
C1435 C1441 1.465 . S
C1436 C1431 1.399 . S
C1436 C1435 1.394 . S
C1436 C1437 1.516 . S
C1437 C1436 1.516 . S
C1437 C1438 1.502 . S
C1437 C1439 1.561 . S
C1437 C1440 1.526 . S
C1438 H1422 0.959 . S
C1438 H1423 0.959 . S
C1438 H1424 0.961 . S
C1438 C1437 1.502 . S
C1439 H1425 0.960 . S
C1439 H1426 0.961 . S
C1439 H1427 0.959 . S
C1439 C1437 1.561 . S
C1440 C1437 1.526 . S
C1440 C1441 1.396 . S
C1440 C1445 1.390 . S
C1441 C1435 1.465 . S
C1441 C1440 1.396 . S
C1441 C1442 1.399 . S
C1442 H1428 0.929 . S
C1442 C1441 1.399 . S
C1442 C1443 1.385 . S
C1443 H1429 0.931 . S
C1443 C1442 1.385 . S
C1443 C1444 1.389 . S
C1444 C1443 1.389 . S
C1444 C1445 1.387 . S
C1445 H1430 0.930 . S
C1445 C1440 1.390 . S
C1445 C1444 1.387 . S
H1446 C1458 0.930 . S
H1447 C1460 0.930 . S
H1448 C1461 0.930 . S
H1449 C1465 0.959 . S
H1450 C1465 0.959 . S
H1451 C1465 0.961 . S
H1452 C1466 0.960 . S
H1453 C1466 0.961 . S
H1454 C1466 0.959 1_655 S
H1455 C1469 0.929 . S
H1456 C1470 0.931 . S
H1457 C1472 0.930 . S
C1458 H1446 0.930 . S
C1458 C1459 1.399 . S
C1458 C1463 1.399 . S
C1459 C1458 1.399 . S
C1459 C1460 1.376 . S
C1460 H1447 0.930 . S
C1460 C1459 1.376 . S
C1460 C1461 1.388 . S
C1461 H1448 0.930 . S
C1461 C1460 1.388 . S
C1461 C1462 1.390 . S
C1462 C1461 1.390 . S
C1462 C1463 1.394 . S
C1462 C1468 1.465 . S
C1463 C1458 1.399 . S
C1463 C1462 1.394 . S
C1463 C1464 1.516 . S
C1464 C1463 1.516 . S
C1464 C1465 1.502 . S
C1464 C1466 1.561 . S
C1464 C1467 1.526 . S
C1465 H1449 0.959 . S
C1465 H1450 0.959 . S
C1465 H1451 0.961 . S
C1465 C1464 1.502 . S
C1466 H1452 0.960 . S
C1466 H1453 0.961 . S
C1466 H1454 0.959 1_455 S
C1466 C1464 1.561 . S
C1467 C1464 1.526 . S
C1467 C1468 1.396 . S
C1467 C1472 1.390 . S
C1468 C1462 1.465 . S
C1468 C1467 1.396 . S
C1468 C1469 1.399 . S
C1469 H1455 0.929 . S
C1469 C1468 1.399 . S
C1469 C1470 1.385 . S
C1470 H1456 0.931 . S
C1470 C1469 1.385 . S
C1470 C1471 1.389 . S
C1471 C1470 1.389 . S
C1471 C1472 1.387 . S
C1472 H1457 0.930 . S
C1472 C1467 1.390 . S
C1472 C1471 1.387 . S
H1473 C1485 0.930 . S
H1474 C1487 0.930 . S
H1475 C1488 0.930 . S
H1476 C1492 0.959 1_455 S
H1477 C1492 0.959 . S
H1478 C1492 0.965 . S
H1479 C1493 0.960 . S
H1480 C1493 0.961 . S
H1481 C1493 0.959 . S
H1482 C1496 0.929 . S
H1483 C1497 0.931 . S
H1484 C1499 0.930 . S
C1485 H1473 0.930 . S
C1485 C1486 1.399 . S
C1485 C1490 1.399 . S
C1486 C1485 1.399 . S
C1486 C1487 1.376 . S
C1487 H1474 0.930 . S
C1487 C1486 1.376 . S
C1487 C1488 1.388 . S
C1488 H1475 0.930 . S
C1488 C1487 1.388 . S
C1488 C1489 1.390 . S
C1489 C1488 1.390 . S
C1489 C1490 1.394 . S
C1489 C1495 1.465 . S
C1490 C1485 1.399 . S
C1490 C1489 1.394 . S
C1490 C1491 1.516 . S
C1491 C1490 1.516 . S
C1491 C1492 1.502 . S
C1491 C1493 1.561 . S
C1491 C1494 1.526 . S
C1492 H1476 0.959 1_655 S
C1492 H1477 0.959 . S
C1492 H1478 0.965 . S
C1492 C1491 1.502 . S
C1493 H1479 0.960 . S
C1493 H1480 0.961 . S
C1493 H1481 0.959 . S
C1493 C1491 1.561 . S
C1494 C1491 1.526 . S
C1494 C1495 1.396 . S
C1494 C1499 1.390 . S
C1495 C1489 1.465 . S
C1495 C1494 1.396 . S
C1495 C1496 1.399 . S
C1496 H1482 0.929 . S
C1496 C1495 1.399 . S
C1496 C1497 1.385 . S
C1497 H1483 0.931 . S
C1497 C1496 1.385 . S
C1497 C1498 1.389 . S
C1498 C1497 1.389 . S
C1498 C1499 1.387 . S
C1499 H1484 0.930 . S
C1499 C1494 1.390 . S
C1499 C1498 1.387 . S
H1500 C1512 0.930 . S
H1501 C1514 0.930 . S
H1502 C1515 0.930 . S
H1503 C1519 0.959 . S
H1504 C1519 0.959 . S
H1505 C1519 0.961 . S
H1506 C1520 0.960 . S
H1507 C1520 0.961 . S
H1508 C1520 0.959 . S
H1509 C1523 0.929 . S
H1510 C1524 0.931 . S
H1511 C1526 0.930 . S
C1512 H1500 0.930 . S
C1512 C1513 1.399 . S
C1512 C1517 1.399 . S
C1513 C1512 1.399 . S
C1513 C1514 1.376 . S
C1514 H1501 0.930 . S
C1514 C1513 1.376 . S
C1514 C1515 1.388 . S
C1515 H1502 0.930 . S
C1515 C1514 1.388 . S
C1515 C1516 1.390 . S
C1516 C1515 1.390 . S
C1516 C1517 1.394 . S
C1516 C1522 1.465 . S
C1517 C1512 1.399 . S
C1517 C1516 1.394 . S
C1517 C1518 1.516 . S
C1518 C1517 1.516 . S
C1518 C1519 1.502 . S
C1518 C1520 1.561 . S
C1518 C1521 1.526 . S
C1519 H1503 0.959 . S
C1519 H1504 0.959 . S
C1519 H1505 0.961 . S
C1519 C1518 1.502 . S
C1520 H1506 0.960 . S
C1520 H1507 0.961 . S
C1520 H1508 0.959 . S
C1520 C1518 1.561 . S
C1521 C1518 1.526 . S
C1521 C1522 1.396 . S
C1521 C1526 1.390 . S
C1522 C1516 1.465 . S
C1522 C1521 1.396 . S
C1522 C1523 1.399 . S
C1523 H1509 0.929 . S
C1523 C1522 1.399 . S
C1523 C1524 1.385 . S
C1524 H1510 0.931 . S
C1524 C1523 1.385 . S
C1524 C1525 1.389 . S
C1525 C1524 1.389 . S
C1525 C1526 1.387 . S
C1526 H1511 0.930 . S
C1526 C1521 1.390 . S
C1526 C1525 1.387 . S
H1527 C1539 0.930 . S
H1528 C1541 0.930 . S
H1529 C1542 0.930 . S
H1530 C1546 0.959 . S
H1531 C1546 0.959 . S
H1532 C1546 0.961 . S
H1533 C1547 0.960 . S
H1534 C1547 0.961 . S
H1535 C1547 0.959 . S
H1536 C1550 0.929 . S
H1537 C1551 0.931 . S
H1538 C1553 0.930 . S
C1539 H1527 0.930 . S
C1539 C1540 1.399 . S
C1539 C1544 1.399 . S
C1540 C1539 1.399 . S
C1540 C1541 1.376 . S
C1541 H1528 0.930 . S
C1541 C1540 1.376 . S
C1541 C1542 1.388 . S
C1542 H1529 0.930 . S
C1542 C1541 1.388 . S
C1542 C1543 1.390 . S
C1543 C1542 1.390 . S
C1543 C1544 1.394 . S
C1543 C1549 1.465 . S
C1544 C1539 1.399 . S
C1544 C1543 1.394 . S
C1544 C1545 1.516 . S
C1545 C1544 1.516 . S
C1545 C1546 1.502 . S
C1545 C1547 1.561 . S
C1545 C1548 1.526 . S
C1546 H1530 0.959 . S
C1546 H1531 0.959 . S
C1546 H1532 0.961 . S
C1546 C1545 1.502 . S
C1547 H1533 0.960 . S
C1547 H1534 0.961 . S
C1547 H1535 0.959 . S
C1547 C1545 1.561 . S
C1548 C1545 1.526 . S
C1548 C1549 1.396 . S
C1548 C1553 1.390 . S
C1549 C1543 1.465 . S
C1549 C1548 1.396 . S
C1549 C1550 1.399 . S
C1550 H1536 0.929 . S
C1550 C1549 1.399 . S
C1550 C1551 1.385 . S
C1551 H1537 0.931 . S
C1551 C1550 1.385 . S
C1551 C1552 1.389 . S
C1552 C1551 1.389 . S
C1552 C1553 1.387 . S
C1553 H1538 0.930 . S
C1553 C1548 1.390 . S
C1553 C1552 1.387 . S
H1554 C1566 0.930 . S
H1555 C1568 0.930 . S
H1556 C1569 0.930 . S
H1557 C1573 0.959 . S
H1558 C1573 0.959 . S
H1559 C1573 0.961 . S
H1560 C1574 0.960 . S
H1561 C1574 0.961 . S
H1562 C1574 0.959 . S
H1563 C1577 0.929 . S
H1564 C1578 0.931 . S
H1565 C1580 0.930 . S
C1566 H1554 0.930 . S
C1566 C1567 1.399 . S
C1566 C1571 1.399 . S
C1567 C1566 1.399 . S
C1567 C1568 1.376 . S
C1568 H1555 0.930 . S
C1568 C1567 1.376 . S
C1568 C1569 1.388 . S
C1569 H1556 0.930 . S
C1569 C1568 1.388 . S
C1569 C1570 1.390 . S
C1570 C1569 1.390 . S
C1570 C1571 1.394 . S
C1570 C1576 1.465 . S
C1571 C1566 1.399 . S
C1571 C1570 1.394 . S
C1571 C1572 1.516 . S
C1572 C1571 1.516 . S
C1572 C1573 1.502 . S
C1572 C1574 1.561 . S
C1572 C1575 1.526 . S
C1573 H1557 0.959 . S
C1573 H1558 0.959 . S
C1573 H1559 0.961 . S
C1573 C1572 1.502 . S
C1574 H1560 0.960 . S
C1574 H1561 0.961 . S
C1574 H1562 0.959 . S
C1574 C1572 1.561 . S
C1575 C1572 1.526 . S
C1575 C1576 1.396 . S
C1575 C1580 1.390 . S
C1576 C1570 1.465 . S
C1576 C1575 1.396 . S
C1576 C1577 1.399 . S
C1577 H1563 0.929 . S
C1577 C1576 1.399 . S
C1577 C1578 1.385 . S
C1578 H1564 0.931 . S
C1578 C1577 1.385 . S
C1578 C1579 1.389 . S
C1579 C1578 1.389 . S
C1579 C1580 1.387 . S
C1580 H1565 0.930 . S
C1580 C1575 1.390 . S
C1580 C1579 1.387 . S
H1581 C1593 0.930 . S
H1582 C1595 0.930 . S
H1583 C1596 0.930 . S
H1584 C1600 0.959 . S
H1585 C1600 0.959 . S
H1586 C1600 0.961 . S
H1587 C1601 0.960 . S
H1588 C1601 0.961 . S
H1589 C1601 0.959 . S
H1590 C1604 0.929 . S
H1591 C1605 0.931 . S
H1592 C1607 0.930 . S
C1593 H1581 0.930 . S
C1593 C1594 1.399 . S
C1593 C1598 1.399 . S
C1594 C1593 1.399 . S
C1594 C1595 1.376 . S
C1595 H1582 0.930 . S
C1595 C1594 1.376 . S
C1595 C1596 1.388 . S
C1596 H1583 0.930 . S
C1596 C1595 1.388 . S
C1596 C1597 1.390 . S
C1597 C1596 1.390 . S
C1597 C1598 1.394 . S
C1597 C1603 1.465 . S
C1598 C1593 1.399 . S
C1598 C1597 1.394 . S
C1598 C1599 1.516 . S
C1599 C1598 1.516 . S
C1599 C1600 1.502 . S
C1599 C1601 1.561 . S
C1599 C1602 1.526 . S
C1600 H1584 0.959 . S
C1600 H1585 0.959 . S
C1600 H1586 0.961 . S
C1600 C1599 1.502 . S
C1601 H1587 0.960 . S
C1601 H1588 0.961 . S
C1601 H1589 0.959 . S
C1601 C1599 1.561 . S
C1602 C1599 1.526 . S
C1602 C1603 1.396 . S
C1602 C1607 1.390 . S
C1603 C1597 1.465 . S
C1603 C1602 1.396 . S
C1603 C1604 1.399 . S
C1604 H1590 0.929 . S
C1604 C1603 1.399 . S
C1604 C1605 1.385 . S
C1605 H1591 0.931 . S
C1605 C1604 1.385 . S
C1605 C1606 1.389 . S
C1606 C1605 1.389 . S
C1606 C1607 1.387 . S
C1607 H1592 0.930 . S
C1607 C1602 1.390 . S
C1607 C1606 1.387 . S
C541 N14 1.668 . S
C553 N476 1.616 . S
C568 N71 1.588 . S
C580 N5 1.597 . S
C595 N47 1.621 . S
C607 N377 1.668 . S
C622 N236 1.607 . S
C634 N38 1.585 . S
C649 N80 1.622 . S
C661 N410 1.667 . S
C676 N113 1.669 . S
C688 N311 1.615 . S
C703 N104 1.588 . S
C715 N170 1.596 . S
C730 N344 1.657 . S
C742 N146 1.623 . S
C757 N203 1.580 . S
C769 N137 1.606 . S
C784 N179 1.660 . S
C796 N509 1.620 . S
C811 N278 1.622 . S
C823 N212 1.668 . S
C838 N443 1.619 . S
C850 N245 1.669 . S
C865 N269 1.607 . S
C877 N335 1.584 . S
C892 N500 1.582 . S
C904 N302 1.603 . S
C919 N368 1.583 . S
C931 N434 1.603 . S
C946 N401 1.594 . S
C958 N467 1.590 . S
C973 C8 1.252 . S
C985 C314 1.241 . S
C1000 C305 1.223 . S
C1012 C17 1.249 . S
C1027 C41 1.253 . S
C1039 C281 1.240 . S
C1054 C50 1.253 . S
C1066 C272 1.235 . S
C1081 C380 1.235 . S
C1093 C74 1.249 . S
C1108 C371 1.241 . S
C1120 C83 1.203 . S
C1135 C107 1.232 . S
C1147 C347 1.203 . S
C1162 C116 1.239 . S
C1174 C338 1.247 . S
C1189 C140 1.250 . S
C1201 C446 1.247 . S
C1216 C437 1.211 . S
C1228 C149 1.207 . S
C1243 C173 1.208 . S
C1255 C413 1.213 . S
C1270 C404 1.250 . S
C1282 C182 1.224 . S
C1297 C512 1.246 . S
C1309 C206 1.241 . S
C1324 C215 1.236 . S
C1336 C503 1.249 . S
C1351 C239 1.222 . S
C1363 C479 1.208 . S
C1378 C248 1.238 . S
C1390 C470 1.247 . S
C1405 C61 0.967 . S
C1417 C28 0.968 . S
C1432 C94 0.968 . S
C1444 C127 0.972 . S
C1459 C160 0.975 . S
C1471 C193 0.974 . S
C1486 C226 0.965 . S
C1498 C259 0.968 . S
C1513 C325 0.968 . S
C1525 C292 0.969 . S
C1540 C391 0.965 . S
C1552 C358 0.968 . S
C1567 C424 0.968 . S
C1579 C457 0.969 . S
C1594 C523 0.965 . S
C1606 C490 0.968 . S
