# Generated by pormake.
# Topology uml, (4)-cn, num edge types: 1
# Building blocks:
#     Node 0, Type 0, BuildingBlock: CEKHIL_clean_sbu_0, # of connection points: 4
#     Node 1, Type 0, BuildingBlock: CEKHIL_clean_sbu_0, # of connection points: 4
#     Node 2, Type 0, BuildingBlock: CEKHIL_clean_sbu_0, # of connection points: 4
#     Node 3, Type 0, BuildingBlock: CEKHIL_clean_sbu_0, # of connection points: 4
#     Node 4, Type 0, BuildingBlock: CEKHIL_clean_sbu_0, # of connection points: 4
#     Node 5, Type 0, BuildingBlock: CEKHIL_clean_sbu_0, # of connection points: 4
#     Node 6, Type 0, BuildingBlock: CEKHIL_clean_sbu_0, # of connection points: 4
#     Node 7, Type 0, BuildingBlock: CEKHIL_clean_sbu_0, # of connection points: 4
#     Node 8, Type 0, BuildingBlock: CEKHIL_clean_sbu_0, # of connection points: 4
#     Node 9, Type 0, BuildingBlock: CEKHIL_clean_sbu_0, # of connection points: 4
#     Node 10, Type 0, BuildingBlock: CEKHIL_clean_sbu_0, # of connection points: 4
#     Node 11, Type 0, BuildingBlock: CEKHIL_clean_sbu_0, # of connection points: 4
#     Node 12, Type 0, BuildingBlock: CEKHIL_clean_sbu_0, # of connection points: 4
#     Node 13, Type 0, BuildingBlock: CEKHIL_clean_sbu_0, # of connection points: 4
#     Node 14, Type 0, BuildingBlock: CEKHIL_clean_sbu_0, # of connection points: 4
#     Node 15, Type 0, BuildingBlock: CEKHIL_clean_sbu_0, # of connection points: 4
#     Node 16, Type 0, BuildingBlock: CEKHIL_clean_sbu_0, # of connection points: 4
#     Node 17, Type 0, BuildingBlock: CEKHIL_clean_sbu_0, # of connection points: 4
#     Node 18, Type 0, BuildingBlock: CEKHIL_clean_sbu_0, # of connection points: 4
#     Node 19, Type 0, BuildingBlock: CEKHIL_clean_sbu_0, # of connection points: 4
#     Node 20, Type 0, BuildingBlock: CEKHIL_clean_sbu_0, # of connection points: 4
#     Node 21, Type 0, BuildingBlock: CEKHIL_clean_sbu_0, # of connection points: 4
#     Node 22, Type 0, BuildingBlock: CEKHIL_clean_sbu_0, # of connection points: 4
#     Node 23, Type 0, BuildingBlock: CEKHIL_clean_sbu_0, # of connection points: 4
#     Node 24, Type 0, BuildingBlock: CEKHIL_clean_sbu_0, # of connection points: 4
#     Node 25, Type 0, BuildingBlock: CEKHIL_clean_sbu_0, # of connection points: 4
#     Node 26, Type 0, BuildingBlock: CEKHIL_clean_sbu_0, # of connection points: 4
#     Node 27, Type 0, BuildingBlock: CEKHIL_clean_sbu_0, # of connection points: 4
#     Node 28, Type 0, BuildingBlock: CEKHIL_clean_sbu_0, # of connection points: 4
#     Node 29, Type 0, BuildingBlock: CEKHIL_clean_sbu_0, # of connection points: 4
#     Node 30, Type 0, BuildingBlock: CEKHIL_clean_sbu_0, # of connection points: 4
#     Node 31, Type 0, BuildingBlock: CEKHIL_clean_sbu_0, # of connection points: 4
#     Node 32, Type 0, BuildingBlock: CEKHIL_clean_sbu_0, # of connection points: 4
#     Node 33, Type 0, BuildingBlock: CEKHIL_clean_sbu_0, # of connection points: 4
#     Node 34, Type 0, BuildingBlock: CEKHIL_clean_sbu_0, # of connection points: 4
#     Node 35, Type 0, BuildingBlock: CEKHIL_clean_sbu_0, # of connection points: 4
#     Edge 36, Type (0, 0), None
#     Edge 37, Type (0, 0), None
#     Edge 38, Type (0, 0), None
#     Edge 39, Type (0, 0), None
#     Edge 40, Type (0, 0), None
#     Edge 41, Type (0, 0), None
#     Edge 42, Type (0, 0), None
#     Edge 43, Type (0, 0), None
#     Edge 44, Type (0, 0), None
#     Edge 45, Type (0, 0), None
#     Edge 46, Type (0, 0), None
#     Edge 47, Type (0, 0), None
#     Edge 48, Type (0, 0), None
#     Edge 49, Type (0, 0), None
#     Edge 50, Type (0, 0), None
#     Edge 51, Type (0, 0), None
#     Edge 52, Type (0, 0), None
#     Edge 53, Type (0, 0), None
#     Edge 54, Type (0, 0), None
#     Edge 55, Type (0, 0), None
#     Edge 56, Type (0, 0), None
#     Edge 57, Type (0, 0), None
#     Edge 58, Type (0, 0), None
#     Edge 59, Type (0, 0), None
#     Edge 60, Type (0, 0), None
#     Edge 61, Type (0, 0), None
#     Edge 62, Type (0, 0), None
#     Edge 63, Type (0, 0), None
#     Edge 64, Type (0, 0), None
#     Edge 65, Type (0, 0), None
#     Edge 66, Type (0, 0), None
#     Edge 67, Type (0, 0), None
#     Edge 68, Type (0, 0), None
#     Edge 69, Type (0, 0), None
#     Edge 70, Type (0, 0), None
#     Edge 71, Type (0, 0), None
#     Edge 72, Type (0, 0), None
#     Edge 73, Type (0, 0), None
#     Edge 74, Type (0, 0), None
#     Edge 75, Type (0, 0), None
#     Edge 76, Type (0, 0), None
#     Edge 77, Type (0, 0), None
#     Edge 78, Type (0, 0), None
#     Edge 79, Type (0, 0), None
#     Edge 80, Type (0, 0), None
#     Edge 81, Type (0, 0), None
#     Edge 82, Type (0, 0), None
#     Edge 83, Type (0, 0), None
#     Edge 84, Type (0, 0), None
#     Edge 85, Type (0, 0), None
#     Edge 86, Type (0, 0), None
#     Edge 87, Type (0, 0), None
#     Edge 88, Type (0, 0), None
#     Edge 89, Type (0, 0), None
#     Edge 90, Type (0, 0), None
#     Edge 91, Type (0, 0), None
#     Edge 92, Type (0, 0), None
#     Edge 93, Type (0, 0), None
#     Edge 94, Type (0, 0), None
#     Edge 95, Type (0, 0), None
#     Edge 96, Type (0, 0), None
#     Edge 97, Type (0, 0), None
#     Edge 98, Type (0, 0), None
#     Edge 99, Type (0, 0), None
#     Edge 100, Type (0, 0), None
#     Edge 101, Type (0, 0), None
#     Edge 102, Type (0, 0), None
#     Edge 103, Type (0, 0), None
#     Edge 104, Type (0, 0), None
#     Edge 105, Type (0, 0), None
#     Edge 106, Type (0, 0), None
#     Edge 107, Type (0, 0), None
# Relax obj value: 0.147
# Max RMSD: 0.431
# Mean RMSD: 0.255
data_MOF--net-uml--node1-CEKHIL_clean_sbu_0--edge1-none
_symmetry_space_group_name_H-M    P1
_symmetry_Int_Tables_number       1
_symmetry_cell_setting            triclinic
loop_
_symmetry_equiv_pos_as_xyz
'x, y, z'
_cell_length_a     39.730965
_cell_length_b     39.90298
_cell_length_c     12.362686
_cell_angle_alpha  88.236524
_cell_angle_beta   89.997483
_cell_angle_gamma 119.8041
loop_
_atom_site_label
_atom_site_type_symbol
_atom_site_fract_x
_atom_site_fract_y
_atom_site_fract_z
_atom_type_partial_charge
Co0 Co 0.35873 0.1308 0.19588 0.0
O1 O 0.39136 0.10869 0.18276 0.0
O2 O 0.40496 0.1636 0.1038 0.0
C3 C 0.34343 0.11293 0.3765 0.0
O4 O 0.32765 0.15999 0.19999 0.0
Co5 Co 0.27282 0.06696 0.23974 0.0
O6 O 0.26666 0.1134 0.24948 0.0
C7 C 0.30431 0.08077 0.01845 0.0
C8 C 0.41239 0.13513 0.1118 0.0
C9 C 0.29149 0.14851 0.22382 0.0
O10 O 0.33422 0.1106 0.05196 0.0
O11 O 0.27803 0.05613 0.08399 0.0
O12 O 0.37571 0.14399 0.34871 0.0
O13 O 0.32478 0.09299 0.29532 0.0
Co14 Co 0.89214 0.28494 0.18519 0.0
O15 O 0.88367 0.28464 0.33976 0.0
O16 O 0.92451 0.26903 0.26819 0.0
C17 C 0.89811 0.34251 0.13531 0.0
O18 O 0.90609 0.28394 0.02178 0.0
Co19 Co 0.82351 0.27615 0.04836 0.0
O20 O 0.86303 0.29596 0.9329 0.0
C21 C 0.82207 0.20674 0.1344 0.0
C22 C 0.90812 0.27267 0.35516 0.0
C23 C 0.89323 0.29263 0.93393 0.0
O24 O 0.85344 0.22893 0.18179 0.0
O25 O 0.80343 0.21931 0.07789 0.0
O26 O 0.92568 0.33976 0.18334 0.0
O27 O 0.86462 0.31079 0.14325 0.0
Co28 Co 0.7009 0.64759 0.20451 0.0
O29 O 0.64591 0.6114 0.21022 0.0
O30 O 0.68863 0.59688 0.15166 0.0
C31 C 0.70564 0.67486 0.37056 0.0
O32 O 0.76075 0.6789 0.192 0.0
Co33 Co 0.72504 0.73279 0.17944 0.0
O34 O 0.77691 0.74095 0.21607 0.0
C35 C 0.70306 0.68889 0.98185 0.0
C36 C 0.65205 0.58707 0.15903 0.0
C37 C 0.78614 0.71493 0.20527 0.0
O38 O 0.69759 0.66031 0.04441 0.0
O39 O 0.71389 0.72218 0.01964 0.0
O40 O 0.70443 0.64187 0.36328 0.0
O41 O 0.69871 0.68755 0.27963 0.0
Co42 Co 0.07403 0.39071 0.30572 0.0
O43 O 0.05666 0.42809 0.29982 0.0
O44 O 0.11356 0.4411 0.35736 0.0
C45 C 0.05051 0.36347 0.1401 0.0
O46 O 0.10164 0.35843 0.31858 0.0
Co47 Co 0.01246 0.30575 0.33083 0.0
O48 O 0.05563 0.29642 0.29591 0.0
C49 C 0.034 0.35012 0.52794 0.0
C50 C 0.08759 0.45198 0.35008 0.0
C51 C 0.0909 0.32232 0.30645 0.0
O52 O 0.05781 0.37847 0.46585 0.0
O53 O 0.01132 0.31693 0.48996 0.0
O54 O 0.08289 0.39591 0.1468 0.0
O55 O 0.03116 0.35119 0.23146 0.0
Co56 Co 0.63149 0.75932 0.32423 0.0
O57 O 0.62373 0.76035 0.16958 0.0
O58 O 0.67941 0.77346 0.24174 0.0
C59 C 0.57836 0.70255 0.3726 0.0
O60 O 0.64604 0.75914 0.48759 0.0
Co61 Co 0.5729 0.76981 0.46265 0.0
O62 O 0.59178 0.74893 0.57753 0.0
C63 C 0.64212 0.83839 0.37728 0.0
C64 C 0.65978 0.7707 0.15455 0.0
C65 C 0.6247 0.75092 0.57569 0.0
O66 O 0.65073 0.81588 0.32894 0.0
O67 O 0.61094 0.82626 0.43353 0.0
O68 O 0.60818 0.70416 0.32476 0.0
O69 O 0.57813 0.73508 0.36545 0.0
Co70 Co 0.2452 0.91112 0.31369 0.0
O71 O 0.29974 0.93209 0.32704 0.0
O72 O 0.25761 0.87727 0.40464 0.0
C73 C 0.24844 0.92966 0.1334 0.0
O74 O 0.18496 0.88275 0.30958 0.0
Co75 Co 0.22363 0.97536 0.26972 0.0
O76 O 0.17072 0.92949 0.26021 0.0
C77 C 0.24206 0.96183 0.49074 0.0
C78 C 0.29374 0.90514 0.39697 0.0
C79 C 0.16034 0.89437 0.28612 0.0
O80 O 0.24148 0.93157 0.45791 0.0
O81 O 0.2406 -0.01352 0.42472 0.0
O82 O 0.24877 0.89807 0.16062 0.0
O83 O 0.24997 0.9496 0.21492 0.0
Co84 Co 0.6152 0.92033 0.83996 0.0
O85 O 0.60208 0.91721 0.6906 0.0
O86 O 0.66186 0.94969 0.75599 0.0
C87 C 0.57072 0.93494 0.90487 0.0
O88 O 0.63985 0.93204 0.98282 0.0
Co89 Co 0.55809 0.86422 0.0172 0.0
O90 O 0.59373 0.90554 0.11281 0.0
C91 C 0.61009 0.84283 0.90018 0.0
C92 C 0.63907 0.94022 0.67377 0.0
C93 C 0.62849 0.92823 0.08083 0.0
O94 O 0.62306 0.87339 0.83773 0.0
O95 O 0.58307 0.83354 0.97122 0.0
O96 O 0.60236 0.96085 0.85662 0.0
O97 O 0.56395 0.89971 0.89905 0.0
Co98 Co 0.07084 0.75282 0.78201 0.0
O99 O 0.07804 0.74415 0.63476 0.0
O100 O 0.03865 0.76483 0.69462 0.0
C101 C 0.06435 0.69935 0.86905 0.0
O102 O 0.05631 0.76538 0.92243 0.0
Co103 Co 0.13553 0.76582 0.94614 0.0
O104 O 0.09607 0.76293 0.0485 0.0
C105 C 0.13994 0.83185 0.81944 0.0
C106 C 0.05473 0.75759 0.61417 0.0
C107 C 0.06747 0.76697 0.01961 0.0
O108 O 0.11114 0.80867 0.76361 0.0
O109 O 0.15526 0.82064 0.89282 0.0
O110 O 0.036 0.69844 0.81439 0.0
O111 O 0.0978 0.72974 0.84872 0.0
Co112 Co 0.22894 0.38409 0.80728 0.0
O113 O 0.23306 0.3978 0.65629 0.0
O114 O 0.20673 0.33787 0.72829 0.0
C115 C 0.29007 0.42625 0.85865 0.0
O116 O 0.22038 0.35824 0.9518 0.0
Co117 Co 0.23691 0.44137 0.9833 0.0
O118 O 0.24035 0.40261 0.0795 0.0
C119 C 0.16108 0.39433 0.87929 0.0
C120 C 0.21612 0.36067 0.64326 0.0
C121 C 0.22815 0.36827 0.04928 0.0
O122 O 0.17568 0.37876 0.81983 0.0
O123 O 0.1812 0.42163 0.94345 0.0
O124 O 0.28229 0.39512 0.80886 0.0
O125 O 0.26224 0.43431 0.85956 0.0
Co126 Co 0.86551 0.65501 0.7058 0.0
O127 O 0.8561 0.64118 0.85676 0.0
O128 O 0.88827 0.70121 0.78488 0.0
C129 C 0.88633 0.61425 0.65412 0.0
O130 O 0.88228 0.68097 0.56135 0.0
Co131 Co 0.81697 0.59711 0.53067 0.0
O132 O 0.85838 0.63651 0.43382 0.0
C133 C 0.78661 0.64297 0.63359 0.0
C134 C 0.87529 0.67833 0.86986 0.0
C135 C 0.87997 0.67098 0.46383 0.0
O136 O 0.81674 0.65893 0.69304 0.0
O137 O 0.77994 0.61577 0.56954 0.0
O138 O 0.90889 0.64555 0.70427 0.0
O139 O 0.8501 0.60508 0.65338 0.0
Co140 Co 0.34243 0.29135 0.73074 0.0
O141 O 0.35825 0.30077 0.87803 0.0
O142 O 0.29787 0.27781 0.81828 0.0
C143 C 0.38771 0.34541 0.64263 0.0
O144 O 0.31522 0.27761 0.59056 0.0
Co145 Co 0.39541 0.2802 0.56704 0.0
O146 O 0.35801 0.28136 0.46442 0.0
C147 C 0.33515 0.21337 0.69345 0.0
C148 C 0.32132 0.286 0.89872 0.0
C149 C 0.32495 0.27621 0.49339 0.0
O150 O 0.32922 0.23621 0.75001 0.0
O151 O 0.36139 0.22498 0.61914 0.0
O152 O 0.35974 0.34522 0.6976 0.0
O153 O 0.39239 0.31594 0.6634 0.0
Co154 Co 0.71308 0.12223 0.67241 0.0
O155 O 0.70313 0.12545 0.82173 0.0
O156 O 0.7313 0.0937 0.75644 0.0
C157 C 0.65378 0.10645 0.6077 0.0
O158 O 0.72616 0.11066 0.52964 0.0
Co159 Co 0.71093 0.17777 0.49525 0.0
O160 O 0.70574 0.13654 0.3999 0.0
C161 C 0.78471 0.20012 0.61065 0.0
C162 C 0.71779 0.103 0.83862 0.0
C163 C 0.71836 0.11425 0.43173 0.0
O164 O 0.76745 0.16968 0.67362 0.0
O165 O 0.76669 0.20911 0.53974 0.0
O166 O 0.6601 0.08102 0.65668 0.0
O167 O 0.68169 0.14195 0.61324 0.0
Co168 Co 0.02538 0.46408 0.52925 0.0
O169 O 0.05795 0.44191 0.51621 0.0
O170 O 0.07162 0.49687 0.43716 0.0
C171 C 1.01006 0.44623 0.70987 0.0
O172 O 0.99434 0.49331 0.5333 0.0
Co173 Co 0.93945 0.40028 0.57308 0.0
O174 O 0.93333 0.44674 0.58271 0.0
C175 C 0.97095 0.41408 0.35181 0.0
C176 C 0.07898 0.46836 0.44527 0.0
C177 C 0.95817 0.48185 0.55707 0.0
O178 O 1.00087 0.44389 0.38532 0.0
O179 O 0.94466 0.38944 0.41734 0.0
O180 O 0.04235 0.47727 0.68208 0.0
O181 O 0.9914 0.42629 0.62868 0.0
Co182 Co 0.55867 0.61832 0.51869 0.0
O183 O 0.55023 0.61805 0.67325 0.0
O184 O 0.59106 0.60242 0.60167 0.0
C185 C 0.56464 0.67585 0.46869 0.0
O186 O 0.57261 0.61729 0.35529 0.0
Co187 Co 0.49002 0.60948 0.38189 0.0
O188 O 0.52951 0.62924 0.26637 0.0
C189 C 0.48861 0.5401 0.46802 0.0
C190 C 0.57467 0.60608 0.68865 0.0
C191 C 0.55973 0.62594 0.26742 0.0
O192 O 0.51998 0.56231 0.51539 0.0
O193 O 0.46996 0.55264 0.41148 0.0
O194 O 0.59223 0.67315 0.51673 0.0
O195 O 0.53114 0.64415 0.47672 0.0
Co196 Co 0.36764 -0.01899 0.53768 0.0
O197 O 0.31265 0.9448 0.54345 0.0
O198 O 0.35543 0.93032 0.48486 0.0
C199 C 0.37237 0.0083 0.70372 0.0
O200 O 0.42748 0.01235 0.52514 0.0
Co201 Co 0.39175 0.06621 0.51261 0.0
O202 O 0.44363 0.0744 0.54918 0.0
C203 C 0.36977 0.0223 0.31502 0.0
C204 C 0.31885 0.92051 0.49232 0.0
C205 C 0.45287 0.04838 0.53837 0.0
O206 O 0.3643 -0.00628 0.37758 0.0
O207 O 0.3806 0.05559 0.35281 0.0
O208 O 0.37119 0.97532 0.69645 0.0
O209 O 0.36542 0.02097 0.6128 0.0
Co210 Co 0.74071 0.7241 0.63904 0.0
O211 O 0.7233 0.76145 0.63315 0.0
O212 O 0.78021 0.7745 0.6907 0.0
C213 C 0.71721 0.69685 0.47343 0.0
O214 O 0.76836 0.69185 0.65188 0.0
Co215 Co 0.67917 0.63913 0.66418 0.0
O216 O 0.72235 0.62983 0.62921 0.0
C217 C 0.70069 0.68351 0.86126 0.0
C218 C 0.75422 0.78535 0.68343 0.0
C219 C 0.75762 0.65573 0.63973 0.0
O220 O 0.72451 0.71185 0.79917 0.0
O221 O 0.67802 0.65031 0.82331 0.0
O222 O 0.74957 0.72931 0.48012 0.0
O223 O 0.69786 0.68456 0.5648 0.0
Co224 Co 0.29829 0.0927 0.65761 0.0
O225 O 0.29056 0.09374 0.50295 0.0
O226 O 0.34624 0.10688 0.57518 0.0
C227 C 0.24518 0.03591 0.70588 0.0
O228 O 0.31282 0.09252 0.82101 0.0
Co229 Co 0.23965 0.10313 0.79597 0.0
O230 O 0.2585 0.08221 0.91084 0.0
C231 C 0.30887 0.17175 0.71075 0.0
C232 C 0.32661 0.1041 0.48797 0.0
C233 C 0.29145 0.08425 0.90906 0.0
O234 O 0.3175 0.14925 0.66236 0.0
O235 O 0.27768 0.15958 0.76697 0.0
O236 O 0.27501 0.03754 0.65809 0.0
O237 O 0.24492 0.06843 0.69875 0.0
Co238 Co 0.91186 0.24438 0.64704 0.0
O239 O 0.96639 0.26529 0.66041 0.0
O240 O 0.92421 0.21049 0.738 0.0
C241 C 0.91509 0.26292 0.46677 0.0
O242 O 0.85163 0.21606 0.64293 0.0
Co243 Co 0.89037 0.30868 0.60315 0.0
O244 O 0.83745 0.26284 0.59358 0.0
C245 C 0.90886 0.29517 0.82408 0.0
C246 C 0.96036 0.23833 0.73035 0.0
C247 C 0.82703 0.22771 0.61948 0.0
O248 O 0.90817 0.26485 0.79127 0.0
O249 O 0.90742 0.31984 0.7581 0.0
O250 O 0.91541 0.23132 0.49397 0.0
O251 O 0.91667 0.28288 0.54828 0.0
Co252 Co 0.28189 0.25363 0.17364 0.0
O253 O 0.26877 0.2505 0.02428 0.0
O254 O 0.32855 0.28301 0.08967 0.0
C255 C 0.23738 0.2682 0.23855 0.0
O256 O 0.30655 0.26535 0.3165 0.0
Co257 Co 0.22481 0.19751 0.35091 0.0
O258 O 0.26042 0.23886 0.44649 0.0
C259 C 0.27683 0.17615 0.23385 0.0
C260 C 0.30576 0.27352 0.00745 0.0
C261 C 0.29517 0.26158 0.41449 0.0
O262 O 0.28979 0.20671 0.17141 0.0
O263 O 0.24981 0.16684 0.3049 0.0
O264 O 0.26902 0.29412 0.19029 0.0
O265 O 0.23064 0.23298 0.23274 0.0
Co266 Co 0.73752 0.08616 0.11513 0.0
O267 O 0.74468 0.07746 0.96788 0.0
O268 O 0.70534 0.09821 0.02776 0.0
C269 C 0.73098 0.03267 0.20218 0.0
O270 O 0.72302 0.09876 0.25556 0.0
Co271 Co 0.80219 0.0991 0.27925 0.0
O272 O 0.76276 0.09625 0.38163 0.0
C273 C 0.80666 0.16515 0.15252 0.0
C274 C 0.72139 0.09094 0.94731 0.0
C275 C 0.73417 0.10031 0.35275 0.0
O276 O 0.77786 0.14199 0.09669 0.0
O277 O 0.82196 0.15392 0.22592 0.0
O278 O 0.70263 0.03179 0.14754 0.0
O279 O 0.76445 0.06304 0.18182 0.0
Co280 Co 0.89565 0.71746 0.14053 0.0
O281 O 0.89977 0.73117 0.98955 0.0
O282 O 0.87344 0.67124 0.06153 0.0
C283 C 0.95679 0.75963 0.19189 0.0
O284 O 0.8871 0.69161 0.28505 0.0
Co285 Co 0.90362 0.77473 0.31658 0.0
O286 O 0.90711 0.73598 0.41274 0.0
C287 C 0.82778 0.72767 0.21262 0.0
C288 C 0.88283 0.69405 0.97651 0.0
C289 C 0.89492 0.70165 0.3825 0.0
O290 O 0.84238 0.71212 0.1531 0.0
O291 O 0.8479 0.75496 0.27679 0.0
O292 O 0.949 0.72849 0.14209 0.0
O293 O 0.92896 0.76768 0.19282 0.0
Co294 Co 0.53219 -0.01158 0.0389 0.0
O295 O 0.52278 0.97459 0.18986 0.0
O296 O 0.55496 0.03462 0.11796 0.0
C297 C 0.55299 0.94767 0.98718 0.0
O298 O 0.54895 0.01437 0.89444 0.0
Co299 Co 0.48364 0.93051 0.86376 0.0
O300 O 0.52504 0.96992 0.76689 0.0
C301 C 0.45328 0.97637 0.96673 0.0
C302 C 0.54197 0.01174 0.20294 0.0
C303 C 0.54663 0.00438 0.7969 0.0
O304 O 0.48342 -0.00767 0.02616 0.0
O305 O 0.44661 0.94917 0.90268 0.0
O306 O 0.57557 0.97895 0.03735 0.0
O307 O 0.51676 0.93848 0.98648 0.0
Co308 Co 1.00912 0.62468 0.06393 0.0
O309 O 0.02494 0.6341 0.21122 0.0
O310 O 0.96456 0.61116 0.15147 0.0
C311 C 0.05438 0.6787 0.9758 0.0
O312 O 0.9819 0.61094 0.92375 0.0
Co313 Co 0.06207 0.61347 0.90025 0.0
O314 O 0.02468 0.61467 0.79762 0.0
C315 C 1.00179 0.54667 0.0267 0.0
C316 C 0.988 0.61934 0.23192 0.0
C317 C 0.99163 0.60953 0.82659 0.0
O318 O 0.99588 0.56953 0.08324 0.0
O319 O 0.02802 0.55827 0.95238 0.0
O320 O 0.02643 0.67856 0.03076 0.0
O321 O 0.05908 0.64924 0.99659 0.0
Co322 Co 0.37965 0.45553 0.00611 0.0
O323 O 0.36971 0.45874 0.15542 0.0
O324 O 0.39791 0.42702 0.09013 0.0
C325 C 0.32037 0.43971 0.94136 0.0
O326 O 0.39275 0.44397 0.86333 0.0
Co327 Co 0.37746 0.51105 0.82895 0.0
O328 O 0.37231 0.46983 0.7336 0.0
C329 C 0.45126 0.53343 0.94429 0.0
C330 C 0.38438 0.4363 0.17232 0.0
C331 C 0.38495 0.44757 0.76542 0.0
O332 O 0.43401 0.503 0.0073 0.0
O333 O 0.43323 0.5424 0.87338 0.0
O334 O 0.32669 0.41429 0.99038 0.0
O335 O 0.34825 0.47522 0.94693 0.0
Co336 Co 0.69194 0.79741 0.8625 0.0
O337 O 0.72453 0.77524 0.8495 0.0
O338 O 0.7382 0.83021 0.7705 0.0
C339 C 0.67659 0.77955 0.04308 0.0
O340 O 0.6609 0.82663 0.8665 0.0
Co341 Co 0.606 0.7336 0.90619 0.0
O342 O 0.59988 0.78006 0.91579 0.0
C343 C 0.63757 0.74739 0.68502 0.0
C344 C 0.74558 0.8017 0.77861 0.0
C345 C 0.62473 0.81517 0.89018 0.0
O346 O 0.66746 0.77722 0.71854 0.0
O347 O 0.61126 0.72275 0.75049 0.0
O348 O 0.70889 0.81058 0.01535 0.0
O349 O 0.65794 0.75961 0.96188 0.0
Co350 Co 0.22544 0.95164 0.85188 0.0
O351 O 0.21701 0.95138 0.00644 0.0
O352 O 0.25781 0.93572 0.93481 0.0
C353 C 0.23145 0.00919 0.80193 0.0
O354 O 0.23934 0.95061 0.68844 0.0
Co355 Co 0.15678 0.94284 0.71519 0.0
O356 O 0.19628 0.96264 0.59967 0.0
C357 C 0.15533 0.87344 0.80126 0.0
C358 C 0.24144 0.93939 0.0218 0.0
C359 C 0.22647 0.95931 0.60063 0.0
O360 O 0.18671 0.89565 0.84859 0.0
O361 O 0.13669 0.886 0.74476 0.0
O362 O 0.25903 0.00646 0.84993 0.0
O363 O 0.19793 0.97751 0.80996 0.0
Co364 Co 0.03422 0.31419 0.87118 0.0
O365 O 0.97924 0.27797 0.8769 0.0
O366 O 0.02203 0.26351 0.81832 0.0
C367 C 0.03895 0.34147 0.03723 0.0
O368 O 0.09406 0.34554 0.85868 0.0
Co369 Co 0.05831 0.39939 0.84613 0.0
O370 O 0.11019 0.40758 0.88276 0.0
C371 C 0.03636 0.35549 0.64853 0.0
C372 C 0.98545 0.25369 0.82575 0.0
C373 C 0.11944 0.38158 0.87195 0.0
O374 O 0.0309 0.32692 0.71108 0.0
O375 O 0.04717 0.38878 0.68632 0.0
O376 O 0.03776 0.30849 0.02996 0.0
O377 O 0.03199 0.35414 0.94631 0.0
Co378 Co 0.40743 0.05753 0.97222 0.0
O379 O 0.39003 0.09489 0.96634 0.0
O380 O 0.44698 0.10791 0.02391 0.0
C381 C 0.38393 0.0303 0.8066 0.0
O382 O 0.43505 0.02526 0.98505 0.0
Co383 Co 0.34586 0.97257 0.99732 0.0
O384 O 0.38902 0.96325 0.96234 0.0
C385 C 0.3674 0.01693 0.19443 0.0
C386 C 0.42098 0.11876 0.01659 0.0
C387 C 0.4243 -0.01086 0.97288 0.0
O388 O 0.39122 0.04527 0.13234 0.0
O389 O 0.34472 -0.01627 0.15646 0.0
O390 O 0.4163 0.06274 0.81329 0.0
O391 O 0.36457 0.01801 0.89795 0.0
Co392 Co 0.96493 0.426 0.99097 0.0
O393 O 0.95719 0.42702 0.83631 0.0
O394 O 0.01289 0.44019 0.90854 0.0
C395 C 0.91188 0.36924 0.03928 0.0
O396 O 0.97947 0.42584 0.15437 0.0
Co397 Co 0.9063 0.43644 0.12931 0.0
O398 O 0.92515 0.41552 0.24419 0.0
C399 C 0.9755 0.50505 0.04404 0.0
C400 C 0.99325 0.4374 0.82133 0.0
C401 C 0.95809 0.41756 0.24242 0.0
O402 O 0.98412 0.48255 0.99567 0.0
O403 O 0.94432 0.49289 0.10029 0.0
O404 O 0.9417 0.37085 0.99149 0.0
O405 O 0.91156 0.40173 0.03211 0.0
Co406 Co 0.57844 0.57777 0.9805 0.0
O407 O 0.63298 0.59874 0.9938 0.0
O408 O 0.59081 0.54388 0.07139 0.0
C409 C 0.58164 0.59632 0.80025 0.0
O410 O 0.5182 0.54941 0.97644 0.0
Co411 Co 0.55688 0.64203 0.93668 0.0
O412 O 0.50397 0.59617 0.92722 0.0
C413 C 0.57538 0.62851 0.15759 0.0
C414 C 0.62694 0.57175 0.06367 0.0
C415 C 0.49358 0.56104 0.95308 0.0
O416 O 0.57473 0.59821 0.12476 0.0
O417 O 0.57392 0.65317 0.09163 0.0
O418 O 0.58199 0.56473 0.82741 0.0
O419 O 0.58321 0.61626 0.88178 0.0
Co420 Co 0.94857 0.58697 0.50684 0.0
O421 O 0.93545 0.58385 0.35747 0.0
O422 O 0.99523 0.61635 0.42286 0.0
C423 C 0.90408 0.60154 0.57179 0.0
O424 O 0.97322 0.59869 0.6497 0.0
Co425 Co 0.89149 0.53085 0.68411 0.0
O426 O 0.9271 0.57219 0.77969 0.0
C427 C 0.94352 0.5095 0.56708 0.0
C428 C 0.97244 0.60687 0.34064 0.0
C429 C 0.96185 0.59491 0.74769 0.0
O430 O 0.95647 0.54005 0.5046 0.0
O431 O 0.9165 0.50019 0.63814 0.0
O432 O 0.9357 0.62747 0.5235 0.0
O433 O 0.89731 0.56632 0.56595 0.0
Co434 Co 0.40414 0.41949 0.44883 0.0
O435 O 0.4113 0.41079 0.30157 0.0
O436 O 0.37193 0.4315 0.36146 0.0
C437 C 0.39765 0.36605 0.53588 0.0
O438 O 0.38963 0.43208 0.58925 0.0
Co439 Co 0.46883 0.4325 0.61293 0.0
O440 O 0.42938 0.42961 0.71532 0.0
C441 C 0.47323 0.49851 0.48619 0.0
C442 C 0.38799 0.42425 0.28101 0.0
C443 C 0.40078 0.43364 0.68644 0.0
O444 O 0.44444 0.47533 0.43035 0.0
O445 O 0.48855 0.48731 0.55961 0.0
O446 O 0.36927 0.36511 0.48126 0.0
O447 O 0.43111 0.39642 0.51551 0.0
Co448 Co 0.56236 0.05088 0.4736 0.0
O449 O 0.56649 0.06459 0.32262 0.0
O450 O 0.54013 0.00465 0.39462 0.0
C451 C 0.62348 0.093 0.525 0.0
O452 O 0.55379 0.02502 0.61813 0.0
Co453 Co 0.57035 0.10816 0.64964 0.0
O454 O 0.57378 0.06939 0.74583 0.0
C455 C 0.49451 0.06113 0.54568 0.0
C456 C 0.54953 0.02746 0.30959 0.0
C457 C 0.56159 0.03506 0.71559 0.0
O458 O 0.5091 0.04557 0.48617 0.0
O459 O 0.51463 0.08842 0.60986 0.0
O460 O 0.6157 0.06188 0.47517 0.0
O461 O 0.59568 0.1011 0.52589 0.0
Co462 Co 0.1988 0.32163 0.37257 0.0
O463 O 0.1894 0.3078 0.52353 0.0
O464 O 0.22155 0.36784 0.45164 0.0
C465 C 0.21963 0.28091 0.32086 0.0
O466 O 0.21555 0.34759 0.22811 0.0
Co467 Co 0.15028 0.26371 0.19742 0.0
O468 O 0.19167 0.30313 0.10056 0.0
C469 C 0.11989 0.30955 0.30035 0.0
C470 C 0.20857 0.34496 0.53662 0.0
C471 C 0.21326 0.33759 0.1306 0.0
O472 O 0.15001 0.32552 0.35981 0.0
O473 O 0.11323 0.28236 0.23629 0.0
O474 O 0.2422 0.3122 0.37104 0.0
O475 O 0.1834 0.2717 0.32015 0.0
Co476 Co 0.67574 0.95802 0.39707 0.0
O477 O 0.69157 0.96746 0.54436 0.0
O478 O 0.63118 0.9445 0.4846 0.0
C479 C 0.72101 0.01203 0.30893 0.0
O480 O 0.64853 0.94426 0.25689 0.0
Co481 Co 0.72869 0.9468 0.23341 0.0
O482 O 0.69132 0.94801 0.13077 0.0
C483 C 0.66842 0.88001 0.35993 0.0
C484 C 0.65463 0.95269 0.56504 0.0
C485 C 0.65827 0.94288 0.15972 0.0
O486 O 0.66251 0.90287 0.41643 0.0
O487 O 0.69465 0.8916 0.28559 0.0
O488 O 0.69306 0.01189 0.36387 0.0
O489 O 0.7257 -0.01743 0.32974 0.0
Co490 Co 0.04639 0.78888 0.33927 0.0
O491 O 0.03646 0.79211 0.48859 0.0
O492 O 0.06463 0.76036 0.42329 0.0
C493 C 0.9871 0.77308 0.27458 0.0
O494 O 0.05945 0.77729 0.19649 0.0
Co495 Co 0.04421 0.84439 0.16207 0.0
O496 O 0.03898 0.80313 0.06677 0.0
C497 C 0.11802 0.86675 0.27735 0.0
C498 C 0.05112 0.76966 0.50548 0.0
C499 C 0.0516 0.78084 0.09861 0.0
O500 O 0.10076 0.83633 0.34041 0.0
O501 O 0.09999 0.87572 0.20644 0.0
O502 O 0.99341 0.74765 0.32361 0.0
O503 O 0.015 0.80858 0.28011 0.0
loop_
_geom_bond_atom_site_label_1
_geom_bond_atom_site_label_2
_geom_bond_distance
_geom_bond_site_symmetry_2
_ccdc_geom_bond_type
Co0 O1 2.216 . S
Co0 O2 2.091 . S
Co0 O4 2.004 . S
Co0 O10 2.021 . S
Co0 O12 2.137 . S
Co0 O13 2.244 . S
O1 Co0 2.216 . S
O1 C8 1.247 . S
O2 Co0 2.091 . S
O2 C8 1.261 . S
C3 O12 1.247 . S
C3 O13 1.272 . S
O4 Co0 2.004 . S
O4 C9 1.259 . S
Co5 O6 2.061 . S
Co5 O11 2.052 . S
Co5 O13 2.135 . S
O6 Co5 2.061 . S
O6 C9 1.235 . S
C7 O10 1.238 1_556 S
C7 O11 1.241 1_556 S
C8 O1 1.247 . S
C8 O2 1.261 . S
C9 O4 1.259 . S
C9 O6 1.235 . S
O10 Co0 2.021 . S
O10 C7 1.238 1_554 S
O11 Co5 2.052 . S
O11 C7 1.241 1_554 S
O12 Co0 2.137 . S
O12 C3 1.247 . S
O13 Co0 2.244 . S
O13 C3 1.272 . S
O13 Co5 2.135 . S
Co14 O15 2.216 . S
Co14 O16 2.091 . S
Co14 O18 2.004 . S
Co14 O24 2.021 . S
Co14 O26 2.137 . S
Co14 O27 2.244 . S
O15 Co14 2.216 . S
O15 C22 1.247 . S
O16 Co14 2.091 . S
O16 C22 1.261 . S
C17 O26 1.247 . S
C17 O27 1.272 . S
O18 Co14 2.004 . S
O18 C23 1.259 1_554 S
Co19 O20 2.061 . S
Co19 O25 2.052 1_556 S
Co19 O27 2.135 1_556 S
O20 Co19 2.061 . S
O20 C23 1.235 . S
C21 O24 1.238 . S
C21 O25 1.241 . S
C22 O15 1.247 . S
C22 O16 1.261 . S
C23 O18 1.259 1_556 S
C23 O20 1.235 . S
O24 Co14 2.021 . S
O24 C21 1.238 . S
O25 Co19 2.052 1_554 S
O25 C21 1.241 . S
O26 Co14 2.137 . S
O26 C17 1.247 . S
O27 Co14 2.244 . S
O27 C17 1.272 . S
O27 Co19 2.135 1_554 S
Co28 O29 2.216 . S
Co28 O30 2.091 . S
Co28 O32 2.004 . S
Co28 O38 2.021 . S
Co28 O40 2.137 . S
Co28 O41 2.244 . S
O29 Co28 2.216 . S
O29 C36 1.247 . S
O30 Co28 2.091 . S
O30 C36 1.261 . S
C31 O40 1.247 . S
C31 O41 1.272 . S
O32 Co28 2.004 . S
O32 C37 1.259 . S
Co33 O34 2.061 . S
Co33 O39 2.052 . S
Co33 O41 2.135 . S
O34 Co33 2.061 . S
O34 C37 1.235 . S
C35 O38 1.238 1_556 S
C35 O39 1.241 1_556 S
C36 O29 1.247 . S
C36 O30 1.261 . S
C37 O32 1.259 . S
C37 O34 1.235 . S
O38 Co28 2.021 . S
O38 C35 1.238 1_554 S
O39 Co33 2.052 . S
O39 C35 1.241 1_554 S
O40 Co28 2.137 . S
O40 C31 1.247 . S
O41 Co28 2.244 . S
O41 C31 1.272 . S
O41 Co33 2.135 . S
Co42 O43 2.216 . S
Co42 O44 2.091 . S
Co42 O46 2.004 . S
Co42 O52 2.021 . S
Co42 O54 2.137 . S
Co42 O55 2.244 . S
O43 Co42 2.216 . S
O43 C50 1.247 . S
O44 Co42 2.091 . S
O44 C50 1.261 . S
C45 O54 1.247 . S
C45 O55 1.272 . S
O46 Co42 2.004 . S
O46 C51 1.259 . S
Co47 O48 2.061 . S
Co47 O53 2.052 1_455 S
Co47 O55 2.135 . S
O48 Co47 2.061 . S
O48 C51 1.235 . S
C49 O52 1.238 . S
C49 O53 1.241 1_455 S
C50 O43 1.247 . S
C50 O44 1.261 . S
C51 O46 1.259 . S
C51 O48 1.235 . S
O52 Co42 2.021 . S
O52 C49 1.238 . S
O53 Co47 2.052 1_655 S
O53 C49 1.241 1_655 S
O54 Co42 2.137 . S
O54 C45 1.247 . S
O55 Co42 2.244 . S
O55 C45 1.272 . S
O55 Co47 2.135 . S
Co56 O57 2.216 . S
Co56 O58 2.091 . S
Co56 O60 2.004 . S
Co56 O66 2.021 . S
Co56 O68 2.137 . S
Co56 O69 2.244 . S
O57 Co56 2.216 . S
O57 C64 1.247 . S
O58 Co56 2.091 . S
O58 C64 1.261 . S
C59 O68 1.247 . S
C59 O69 1.272 . S
O60 Co56 2.004 . S
O60 C65 1.259 . S
Co61 O62 2.061 . S
Co61 O67 2.052 . S
Co61 O69 2.135 . S
O62 Co61 2.061 . S
O62 C65 1.235 . S
C63 O66 1.238 . S
C63 O67 1.241 . S
C64 O57 1.247 . S
C64 O58 1.261 . S
C65 O60 1.259 . S
C65 O62 1.235 . S
O66 Co56 2.021 . S
O66 C63 1.238 . S
O67 Co61 2.052 . S
O67 C63 1.241 . S
O68 Co56 2.137 . S
O68 C59 1.247 . S
O69 Co56 2.244 . S
O69 C59 1.272 . S
O69 Co61 2.135 . S
Co70 O71 2.216 . S
Co70 O72 2.091 . S
Co70 O74 2.004 . S
Co70 O80 2.021 . S
Co70 O82 2.137 . S
Co70 O83 2.244 1_565 S
O71 Co70 2.216 . S
O71 C78 1.247 . S
O72 Co70 2.091 . S
O72 C78 1.261 . S
C73 O82 1.247 . S
C73 O83 1.272 1_565 S
O74 Co70 2.004 . S
O74 C79 1.259 . S
Co75 O76 2.061 1_545 S
Co75 O81 2.052 . S
Co75 O83 2.135 . S
O76 Co75 2.061 1_565 S
O76 C79 1.235 . S
C77 O80 1.238 . S
C77 O81 1.241 1_565 S
C78 O71 1.247 . S
C78 O72 1.261 . S
C79 O74 1.259 . S
C79 O76 1.235 . S
O80 Co70 2.021 . S
O80 C77 1.238 . S
O81 Co75 2.052 . S
O81 C77 1.241 1_545 S
O82 Co70 2.137 . S
O82 C73 1.247 . S
O83 Co70 2.244 1_545 S
O83 C73 1.272 1_545 S
O83 Co75 2.135 . S
Co84 O85 2.216 . S
Co84 O86 2.091 1_565 S
Co84 O88 2.004 1_565 S
Co84 O94 2.021 . S
Co84 O96 2.137 . S
Co84 O97 2.244 . S
O85 Co84 2.216 . S
O85 C92 1.247 . S
O86 Co84 2.091 1_545 S
O86 C92 1.261 1_545 S
C87 O96 1.247 . S
C87 O97 1.272 . S
O88 Co84 2.004 1_545 S
O88 C93 1.259 1_546 S
Co89 O90 2.061 . S
Co89 O95 2.052 1_554 S
Co89 O97 2.135 1_554 S
O90 Co89 2.061 . S
O90 C93 1.235 . S
C91 O94 1.238 . S
C91 O95 1.241 . S
C92 O85 1.247 . S
C92 O86 1.261 1_565 S
C93 O88 1.259 1_564 S
C93 O90 1.235 . S
O94 Co84 2.021 . S
O94 C91 1.238 . S
O95 Co89 2.052 1_556 S
O95 C91 1.241 . S
O96 Co84 2.137 . S
O96 C87 1.247 . S
O97 Co84 2.244 . S
O97 C87 1.272 . S
O97 Co89 2.135 1_556 S
Co98 O99 2.216 . S
Co98 O100 2.091 1_455 S
Co98 O102 2.004 . S
Co98 O108 2.021 . S
Co98 O110 2.137 . S
Co98 O111 2.244 . S
O99 Co98 2.216 . S
O99 C106 1.247 . S
O100 Co98 2.091 1_655 S
O100 C106 1.261 1_655 S
C101 O110 1.247 . S
C101 O111 1.272 . S
O102 Co98 2.004 . S
O102 C107 1.259 1_556 S
Co103 O104 2.061 . S
Co103 O109 2.052 1_554 S
Co103 O111 2.135 1_554 S
O104 Co103 2.061 . S
O104 C107 1.235 . S
C105 O108 1.238 . S
C105 O109 1.241 . S
C106 O99 1.247 . S
C106 O100 1.261 1_455 S
C107 O102 1.259 1_554 S
C107 O104 1.235 . S
O108 Co98 2.021 . S
O108 C105 1.238 . S
O109 Co103 2.052 1_556 S
O109 C105 1.241 . S
O110 Co98 2.137 . S
O110 C101 1.247 . S
O111 Co98 2.244 . S
O111 C101 1.272 . S
O111 Co103 2.135 1_556 S
Co112 O113 2.216 . S
Co112 O114 2.091 . S
Co112 O116 2.004 . S
Co112 O122 2.021 . S
Co112 O124 2.137 . S
Co112 O125 2.244 . S
O113 Co112 2.216 . S
O113 C120 1.247 . S
O114 Co112 2.091 . S
O114 C120 1.261 . S
C115 O124 1.247 . S
C115 O125 1.272 . S
O116 Co112 2.004 . S
O116 C121 1.259 1_556 S
Co117 O118 2.061 . S
Co117 O123 2.052 1_554 S
Co117 O125 2.135 1_554 S
O118 Co117 2.061 . S
O118 C121 1.235 . S
C119 O122 1.238 . S
C119 O123 1.241 . S
C120 O113 1.247 . S
C120 O114 1.261 . S
C121 O116 1.259 1_554 S
C121 O118 1.235 . S
O122 Co112 2.021 . S
O122 C119 1.238 . S
O123 Co117 2.052 1_556 S
O123 C119 1.241 . S
O124 Co112 2.137 . S
O124 C115 1.247 . S
O125 Co112 2.244 . S
O125 C115 1.272 . S
O125 Co117 2.135 1_556 S
Co126 O127 2.216 . S
Co126 O128 2.091 . S
Co126 O130 2.004 . S
Co126 O136 2.021 . S
Co126 O138 2.137 . S
Co126 O139 2.244 . S
O127 Co126 2.216 . S
O127 C134 1.247 . S
O128 Co126 2.091 . S
O128 C134 1.261 . S
C129 O138 1.247 . S
C129 O139 1.272 . S
O130 Co126 2.004 . S
O130 C135 1.259 . S
Co131 O132 2.061 . S
Co131 O137 2.052 . S
Co131 O139 2.135 . S
O132 Co131 2.061 . S
O132 C135 1.235 . S
C133 O136 1.238 . S
C133 O137 1.241 . S
C134 O127 1.247 . S
C134 O128 1.261 . S
C135 O130 1.259 . S
C135 O132 1.235 . S
O136 Co126 2.021 . S
O136 C133 1.238 . S
O137 Co131 2.052 . S
O137 C133 1.241 . S
O138 Co126 2.137 . S
O138 C129 1.247 . S
O139 Co126 2.244 . S
O139 C129 1.272 . S
O139 Co131 2.135 . S
Co140 O141 2.216 . S
Co140 O142 2.091 . S
Co140 O144 2.004 . S
Co140 O150 2.021 . S
Co140 O152 2.137 . S
Co140 O153 2.244 . S
O141 Co140 2.216 . S
O141 C148 1.247 . S
O142 Co140 2.091 . S
O142 C148 1.261 . S
C143 O152 1.247 . S
C143 O153 1.272 . S
O144 Co140 2.004 . S
O144 C149 1.259 . S
Co145 O146 2.061 . S
Co145 O151 2.052 . S
Co145 O153 2.135 . S
O146 Co145 2.061 . S
O146 C149 1.235 . S
C147 O150 1.238 . S
C147 O151 1.241 . S
C148 O141 1.247 . S
C148 O142 1.261 . S
C149 O144 1.259 . S
C149 O146 1.235 . S
O150 Co140 2.021 . S
O150 C147 1.238 . S
O151 Co145 2.052 . S
O151 C147 1.241 . S
O152 Co140 2.137 . S
O152 C143 1.247 . S
O153 Co140 2.244 . S
O153 C143 1.272 . S
O153 Co145 2.135 . S
Co154 O155 2.216 . S
Co154 O156 2.091 . S
Co154 O158 2.004 . S
Co154 O164 2.021 . S
Co154 O166 2.137 . S
Co154 O167 2.244 . S
O155 Co154 2.216 . S
O155 C162 1.247 . S
O156 Co154 2.091 . S
O156 C162 1.261 . S
C157 O166 1.247 . S
C157 O167 1.272 . S
O158 Co154 2.004 . S
O158 C163 1.259 . S
Co159 O160 2.061 . S
Co159 O165 2.052 . S
Co159 O167 2.135 . S
O160 Co159 2.061 . S
O160 C163 1.235 . S
C161 O164 1.238 . S
C161 O165 1.241 . S
C162 O155 1.247 . S
C162 O156 1.261 . S
C163 O158 1.259 . S
C163 O160 1.235 . S
O164 Co154 2.021 . S
O164 C161 1.238 . S
O165 Co159 2.052 . S
O165 C161 1.241 . S
O166 Co154 2.137 . S
O166 C157 1.247 . S
O167 Co154 2.244 . S
O167 C157 1.272 . S
O167 Co159 2.135 . S
Co168 O169 2.216 . S
Co168 O170 2.091 . S
Co168 O172 2.004 . S
Co168 O178 2.021 . S
Co168 O180 2.137 . S
Co168 O181 2.244 1_455 S
O169 Co168 2.216 . S
O169 C176 1.247 . S
O170 Co168 2.091 . S
O170 C176 1.261 . S
C171 O180 1.247 . S
C171 O181 1.272 1_455 S
O172 Co168 2.004 . S
O172 C177 1.259 . S
Co173 O174 2.061 1_655 S
Co173 O179 2.052 . S
Co173 O181 2.135 . S
O174 Co173 2.061 1_455 S
O174 C177 1.235 . S
C175 O178 1.269 . S
C175 O179 1.212 1_455 S
C176 O169 1.247 . S
C176 O170 1.261 . S
C177 O172 1.259 . S
C177 O174 1.235 . S
O178 Co168 2.021 . S
O178 C175 1.269 . S
O179 Co173 2.052 . S
O179 C175 1.212 1_655 S
O180 Co168 2.137 . S
O180 C171 1.247 . S
O181 Co168 2.244 1_655 S
O181 C171 1.272 1_655 S
O181 Co173 2.135 . S
Co182 O183 2.216 . S
Co182 O184 2.091 . S
Co182 O186 2.004 . S
Co182 O192 2.021 . S
Co182 O194 2.137 . S
Co182 O195 2.244 . S
O183 Co182 2.216 . S
O183 C190 1.247 . S
O184 Co182 2.091 . S
O184 C190 1.261 . S
C185 O194 1.247 . S
C185 O195 1.272 . S
O186 Co182 2.004 . S
O186 C191 1.259 . S
Co187 O188 2.061 . S
Co187 O193 2.052 . S
Co187 O195 2.135 . S
O188 Co187 2.061 . S
O188 C191 1.235 . S
C189 O192 1.238 . S
C189 O193 1.241 . S
C190 O183 1.247 . S
C190 O184 1.261 . S
C191 O186 1.259 . S
C191 O188 1.235 . S
O192 Co182 2.021 . S
O192 C189 1.238 . S
O193 Co187 2.052 . S
O193 C189 1.241 . S
O194 Co182 2.137 . S
O194 C185 1.247 . S
O195 Co182 2.244 . S
O195 C185 1.272 . S
O195 Co187 2.135 . S
Co196 O197 2.216 . S
Co196 O198 2.091 . S
Co196 O200 2.004 . S
Co196 O206 2.021 . S
Co196 O208 2.137 . S
Co196 O209 2.244 1_565 S
O197 Co196 2.216 . S
O197 C204 1.247 . S
O198 Co196 2.091 . S
O198 C204 1.261 . S
C199 O208 1.247 . S
C199 O209 1.272 1_565 S
O200 Co196 2.004 . S
O200 C205 1.259 . S
Co201 O202 2.061 1_545 S
Co201 O207 2.052 . S
Co201 O209 2.135 . S
O202 Co201 2.061 1_565 S
O202 C205 1.235 . S
C203 O206 1.238 . S
C203 O207 1.241 1_565 S
C204 O197 1.247 . S
C204 O198 1.261 . S
C205 O200 1.259 . S
C205 O202 1.235 . S
O206 Co196 2.021 . S
O206 C203 1.238 . S
O207 Co201 2.052 . S
O207 C203 1.241 1_545 S
O208 Co196 2.137 . S
O208 C199 1.247 . S
O209 Co196 2.244 1_545 S
O209 C199 1.272 1_545 S
O209 Co201 2.135 . S
Co210 O211 2.216 . S
Co210 O212 2.091 . S
Co210 O214 2.004 . S
Co210 O220 2.021 . S
Co210 O222 2.137 . S
Co210 O223 2.244 . S
O211 Co210 2.216 . S
O211 C218 1.247 . S
O212 Co210 2.091 . S
O212 C218 1.261 . S
C213 O222 1.247 . S
C213 O223 1.272 . S
O214 Co210 2.004 . S
O214 C219 1.259 . S
Co215 O216 2.061 . S
Co215 O221 2.052 . S
Co215 O223 2.135 . S
O216 Co215 2.061 . S
O216 C219 1.235 . S
C217 O220 1.238 . S
C217 O221 1.241 . S
C218 O211 1.247 . S
C218 O212 1.261 . S
C219 O214 1.259 . S
C219 O216 1.235 . S
O220 Co210 2.021 . S
O220 C217 1.238 . S
O221 Co215 2.052 . S
O221 C217 1.241 . S
O222 Co210 2.137 . S
O222 C213 1.247 . S
O223 Co210 2.244 . S
O223 C213 1.272 . S
O223 Co215 2.135 . S
Co224 O225 2.216 . S
Co224 O226 2.091 . S
Co224 O228 2.004 . S
Co224 O234 2.021 . S
Co224 O236 2.137 . S
Co224 O237 2.244 . S
O225 Co224 2.216 . S
O225 C232 1.247 . S
O226 Co224 2.091 . S
O226 C232 1.261 . S
C227 O236 1.247 . S
C227 O237 1.272 . S
O228 Co224 2.004 . S
O228 C233 1.259 . S
Co229 O230 2.061 . S
Co229 O235 2.052 . S
Co229 O237 2.135 . S
O230 Co229 2.061 . S
O230 C233 1.235 . S
C231 O234 1.238 . S
C231 O235 1.241 . S
C232 O225 1.247 . S
C232 O226 1.261 . S
C233 O228 1.259 . S
C233 O230 1.235 . S
O234 Co224 2.021 . S
O234 C231 1.238 . S
O235 Co229 2.052 . S
O235 C231 1.241 . S
O236 Co224 2.137 . S
O236 C227 1.247 . S
O237 Co224 2.244 . S
O237 C227 1.272 . S
O237 Co229 2.135 . S
Co238 O239 2.216 . S
Co238 O240 2.091 . S
Co238 O242 2.004 . S
Co238 O248 2.021 . S
Co238 O250 2.137 . S
Co238 O251 2.244 . S
O239 Co238 2.216 . S
O239 C246 1.247 . S
O240 Co238 2.091 . S
O240 C246 1.261 . S
C241 O250 1.247 . S
C241 O251 1.272 . S
O242 Co238 2.004 . S
O242 C247 1.259 . S
Co243 O244 2.061 . S
Co243 O249 2.052 . S
Co243 O251 2.135 . S
O244 Co243 2.061 . S
O244 C247 1.235 . S
C245 O248 1.238 . S
C245 O249 1.241 . S
C246 O239 1.247 . S
C246 O240 1.261 . S
C247 O242 1.259 . S
C247 O244 1.235 . S
O248 Co238 2.021 . S
O248 C245 1.238 . S
O249 Co243 2.052 . S
O249 C245 1.241 . S
O250 Co238 2.137 . S
O250 C241 1.247 . S
O251 Co238 2.244 . S
O251 C241 1.272 . S
O251 Co243 2.135 . S
Co252 O253 2.216 1_554 S
Co252 O254 2.091 . S
Co252 O256 2.004 . S
Co252 O262 2.021 . S
Co252 O264 2.137 . S
Co252 O265 2.244 . S
O253 Co252 2.216 1_556 S
O253 C260 1.247 . S
O254 Co252 2.091 . S
O254 C260 1.261 1_554 S
C255 O264 1.247 . S
C255 O265 1.272 . S
O256 Co252 2.004 . S
O256 C261 1.259 . S
Co257 O258 2.061 . S
Co257 O263 2.052 . S
Co257 O265 2.135 . S
O258 Co257 2.061 . S
O258 C261 1.235 . S
C259 O262 1.238 . S
C259 O263 1.241 . S
C260 O253 1.247 . S
C260 O254 1.261 1_556 S
C261 O256 1.259 . S
C261 O258 1.235 . S
O262 Co252 2.021 . S
O262 C259 1.238 . S
O263 Co257 2.052 . S
O263 C259 1.241 . S
O264 Co252 2.137 . S
O264 C255 1.247 . S
O265 Co252 2.244 . S
O265 C255 1.272 . S
O265 Co257 2.135 . S
Co266 O267 2.216 1_554 S
Co266 O268 2.091 . S
Co266 O270 2.004 . S
Co266 O276 2.021 . S
Co266 O278 2.137 . S
Co266 O279 2.244 . S
O267 Co266 2.216 1_556 S
O267 C274 1.247 . S
O268 Co266 2.091 . S
O268 C274 1.261 1_554 S
C269 O278 1.247 . S
C269 O279 1.272 . S
O270 Co266 2.004 . S
O270 C275 1.259 . S
Co271 O272 2.061 . S
Co271 O277 2.052 . S
Co271 O279 2.135 . S
O272 Co271 2.061 . S
O272 C275 1.235 . S
C273 O276 1.238 . S
C273 O277 1.241 . S
C274 O267 1.247 . S
C274 O268 1.261 1_556 S
C275 O270 1.259 . S
C275 O272 1.235 . S
O276 Co266 2.021 . S
O276 C273 1.238 . S
O277 Co271 2.052 . S
O277 C273 1.241 . S
O278 Co266 2.137 . S
O278 C269 1.247 . S
O279 Co266 2.244 . S
O279 C269 1.272 . S
O279 Co271 2.135 . S
Co280 O281 2.216 1_554 S
Co280 O282 2.091 . S
Co280 O284 2.004 . S
Co280 O290 2.021 . S
Co280 O292 2.137 . S
Co280 O293 2.244 . S
O281 Co280 2.216 1_556 S
O281 C288 1.247 . S
O282 Co280 2.091 . S
O282 C288 1.261 1_554 S
C283 O292 1.247 . S
C283 O293 1.272 . S
O284 Co280 2.004 . S
O284 C289 1.259 . S
Co285 O286 2.061 . S
Co285 O291 2.052 . S
Co285 O293 2.135 . S
O286 Co285 2.061 . S
O286 C289 1.235 . S
C287 O290 1.238 . S
C287 O291 1.241 . S
C288 O281 1.247 . S
C288 O282 1.261 1_556 S
C289 O284 1.259 . S
C289 O286 1.235 . S
O290 Co280 2.021 . S
O290 C287 1.238 . S
O291 Co285 2.052 . S
O291 C287 1.241 . S
O292 Co280 2.137 . S
O292 C283 1.247 . S
O293 Co280 2.244 . S
O293 C283 1.272 . S
O293 Co285 2.135 . S
Co294 O295 2.216 . S
Co294 O296 2.091 1_565 S
Co294 O298 2.004 1_554 S
Co294 O304 2.021 . S
Co294 O306 2.137 . S
Co294 O307 2.244 1_554 S
O295 Co294 2.216 . S
O295 C302 1.247 . S
O296 Co294 2.091 1_545 S
O296 C302 1.261 1_545 S
C297 O306 1.247 1_556 S
C297 O307 1.272 . S
O298 Co294 2.004 1_556 S
O298 C303 1.259 . S
Co299 O300 2.061 . S
Co299 O305 2.052 . S
Co299 O307 2.135 . S
O300 Co299 2.061 . S
O300 C303 1.235 . S
C301 O304 1.238 1_556 S
C301 O305 1.241 . S
C302 O295 1.247 . S
C302 O296 1.261 1_565 S
C303 O298 1.259 . S
C303 O300 1.235 . S
O304 Co294 2.021 . S
O304 C301 1.238 1_554 S
O305 Co299 2.052 . S
O305 C301 1.241 . S
O306 Co294 2.137 . S
O306 C297 1.247 1_554 S
O307 Co294 2.244 1_556 S
O307 C297 1.272 . S
O307 Co299 2.135 . S
Co308 O309 2.216 . S
Co308 O310 2.091 1_455 S
Co308 O312 2.006 1_554 S
Co308 O318 2.021 . S
Co308 O320 2.137 . S
Co308 O321 2.244 1_554 S
O309 Co308 2.216 . S
O309 C316 1.247 . S
O310 Co308 2.091 1_655 S
O310 C316 1.261 1_655 S
C311 O320 1.247 1_556 S
C311 O321 1.272 . S
O312 Co308 2.006 1_556 S
O312 C317 1.261 . S
Co313 O314 2.061 . S
Co313 O319 2.052 . S
Co313 O321 2.135 . S
O314 Co313 2.061 . S
O314 C317 1.235 . S
C315 O318 1.238 1_556 S
C315 O319 1.241 . S
C316 O309 1.247 . S
C316 O310 1.261 1_455 S
C317 O312 1.261 . S
C317 O314 1.235 . S
O318 Co308 2.021 . S
O318 C315 1.238 1_554 S
O319 Co313 2.052 . S
O319 C315 1.241 . S
O320 Co308 2.137 . S
O320 C311 1.247 1_554 S
O321 Co308 2.244 1_556 S
O321 C311 1.272 . S
O321 Co313 2.135 . S
Co322 O323 2.216 . S
Co322 O324 2.091 . S
Co322 O326 2.004 1_554 S
Co322 O332 2.021 . S
Co322 O334 2.137 . S
Co322 O335 2.244 1_554 S
O323 Co322 2.216 . S
O323 C330 1.247 . S
O324 Co322 2.091 . S
O324 C330 1.261 . S
C325 O334 1.247 1_556 S
C325 O335 1.272 . S
O326 Co322 2.004 1_556 S
O326 C331 1.259 . S
Co327 O328 2.061 . S
Co327 O333 2.052 . S
Co327 O335 2.135 . S
O328 Co327 2.061 . S
O328 C331 1.235 . S
C329 O332 1.238 1_556 S
C329 O333 1.241 . S
C330 O323 1.247 . S
C330 O324 1.261 . S
C331 O326 1.259 . S
C331 O328 1.235 . S
O332 Co322 2.021 . S
O332 C329 1.238 1_554 S
O333 Co327 2.052 . S
O333 C329 1.241 . S
O334 Co322 2.137 . S
O334 C325 1.247 1_554 S
O335 Co322 2.244 1_556 S
O335 C325 1.272 . S
O335 Co327 2.135 . S
Co336 O337 2.216 . S
Co336 O338 2.091 . S
Co336 O340 2.004 . S
Co336 O346 2.021 . S
Co336 O348 2.137 . S
Co336 O349 2.244 . S
O337 Co336 2.216 . S
O337 C344 1.247 . S
O338 Co336 2.091 . S
O338 C344 1.261 . S
C339 O348 1.247 1_554 S
C339 O349 1.264 1_554 S
O340 Co336 2.004 . S
O340 C345 1.259 . S
Co341 O342 2.061 . S
Co341 O347 2.052 . S
Co341 O349 2.135 . S
O342 Co341 2.061 . S
O342 C345 1.235 . S
C343 O346 1.238 . S
C343 O347 1.241 . S
C344 O337 1.247 . S
C344 O338 1.261 . S
C345 O340 1.259 . S
C345 O342 1.235 . S
O346 Co336 2.021 . S
O346 C343 1.238 . S
O347 Co341 2.052 . S
O347 C343 1.241 . S
O348 Co336 2.137 . S
O348 C339 1.247 1_556 S
O349 Co336 2.244 . S
O349 C339 1.264 1_556 S
O349 Co341 2.135 . S
Co350 O351 2.216 1_556 S
Co350 O352 2.091 1_545 S
Co350 O354 2.004 1_545 S
Co350 O360 2.021 1_545 S
Co350 O362 2.137 . S
Co350 O363 2.244 . S
O351 Co350 2.216 1_554 S
O351 C358 1.247 1_545 S
O352 Co350 2.091 1_565 S
O352 C358 1.261 1_556 S
C353 O362 1.247 . S
C353 O363 1.272 . S
O354 Co350 2.004 1_565 S
O354 C359 1.259 . S
Co355 O356 2.061 1_545 S
Co355 O361 2.052 1_545 S
Co355 O363 2.135 . S
O356 Co355 2.061 1_565 S
O356 C359 1.235 . S
C357 O360 1.238 . S
C357 O361 1.241 . S
C358 O351 1.247 1_565 S
C358 O352 1.261 1_554 S
C359 O354 1.259 . S
C359 O356 1.235 . S
O360 Co350 2.021 1_565 S
O360 C357 1.238 . S
O361 Co355 2.052 1_565 S
O361 C357 1.241 . S
O362 Co350 2.137 . S
O362 C353 1.247 . S
O363 Co350 2.244 . S
O363 C353 1.272 . S
O363 Co355 2.135 . S
Co364 O365 2.216 . S
Co364 O366 2.091 . S
Co364 O368 2.004 1_655 S
Co364 O374 2.021 1_655 S
Co364 O376 2.137 1_556 S
Co364 O377 2.244 1_655 S
O365 Co364 2.216 . S
O365 C372 1.247 . S
O366 Co364 2.091 . S
O366 C372 1.261 . S
C367 O376 1.247 1_455 S
C367 O377 1.272 1_554 S
O368 Co364 2.004 1_455 S
O368 C373 1.259 . S
Co369 O370 2.061 . S
Co369 O375 2.052 . S
Co369 O377 2.135 . S
O370 Co369 2.061 . S
O370 C373 1.235 . S
C371 O374 1.238 . S
C371 O375 1.241 . S
C372 O365 1.247 . S
C372 O366 1.261 . S
C373 O368 1.259 . S
C373 O370 1.235 . S
O374 Co364 2.021 1_455 S
O374 C371 1.238 . S
O375 Co369 2.052 . S
O375 C371 1.241 . S
O376 Co364 2.137 1_554 S
O376 C367 1.247 1_655 S
O377 Co364 2.244 1_455 S
O377 C367 1.272 1_556 S
O377 Co369 2.135 . S
Co378 O379 2.216 1_556 S
Co378 O380 2.091 1_556 S
Co378 O382 2.004 . S
Co378 O388 2.021 1_546 S
Co378 O390 2.137 . S
Co378 O391 2.244 1_545 S
O379 Co378 2.216 1_554 S
O379 C386 1.247 . S
O380 Co378 2.091 1_554 S
O380 C386 1.261 . S
C381 O390 1.247 1_565 S
C381 O391 1.272 . S
O382 Co378 2.004 . S
O382 C387 1.259 1_545 S
Co383 O384 2.061 . S
Co383 O389 2.052 1_556 S
Co383 O391 2.135 . S
O384 Co383 2.061 . S
O384 C387 1.235 . S
C385 O388 1.238 . S
C385 O389 1.241 . S
C386 O379 1.247 . S
C386 O380 1.261 . S
C387 O382 1.259 1_565 S
C387 O384 1.235 . S
O388 Co378 2.021 1_564 S
O388 C385 1.238 . S
O389 Co383 2.052 1_554 S
O389 C385 1.241 . S
O390 Co378 2.137 . S
O390 C381 1.247 1_545 S
O391 Co378 2.244 1_565 S
O391 C381 1.272 . S
O391 Co383 2.135 . S
Co392 O393 2.216 1_455 S
Co392 O394 2.091 . S
Co392 O396 2.004 1_556 S
Co392 O402 2.021 . S
Co392 O404 2.137 1_455 S
Co392 O405 2.244 1_456 S
O393 Co392 2.216 1_655 S
O393 C400 1.247 1_655 S
O394 Co392 2.091 . S
O394 C400 1.261 . S
C395 O404 1.247 1_554 S
C395 O405 1.272 . S
O396 Co392 2.004 1_554 S
O396 C401 1.259 . S
Co397 O398 2.061 1_655 S
Co397 O403 2.052 . S
Co397 O405 2.135 . S
O398 Co397 2.061 1_455 S
O398 C401 1.235 . S
C399 O402 1.238 1_554 S
C399 O403 1.241 1_455 S
C400 O393 1.247 1_455 S
C400 O394 1.261 . S
C401 O396 1.259 . S
C401 O398 1.235 . S
O402 Co392 2.021 . S
O402 C399 1.238 1_556 S
O403 Co397 2.052 . S
O403 C399 1.241 1_655 S
O404 Co392 2.137 1_655 S
O404 C395 1.247 1_556 S
O405 Co392 2.244 1_654 S
O405 C395 1.272 . S
O405 Co397 2.135 . S
Co406 O407 2.216 1_556 S
Co406 O408 2.091 1_556 S
Co406 O410 2.004 . S
Co406 O416 2.021 1_556 S
Co406 O418 2.137 . S
Co406 O419 2.244 . S
O407 Co406 2.216 1_554 S
O407 C414 1.247 . S
O408 Co406 2.091 1_554 S
O408 C414 1.261 . S
C409 O418 1.247 . S
C409 O419 1.272 . S
O410 Co406 2.004 . S
O410 C415 1.259 . S
Co411 O412 2.061 . S
Co411 O417 2.052 1_556 S
Co411 O419 2.135 . S
O412 Co411 2.061 . S
O412 C415 1.235 . S
C413 O416 1.238 . S
C413 O417 1.241 . S
C414 O407 1.247 . S
C414 O408 1.261 . S
C415 O410 1.259 . S
C415 O412 1.235 . S
O416 Co406 2.021 1_554 S
O416 C413 1.238 . S
O417 Co411 2.052 1_554 S
O417 C413 1.241 . S
O418 Co406 2.137 . S
O418 C409 1.247 . S
O419 Co406 2.244 . S
O419 C409 1.272 . S
O419 Co411 2.135 . S
Co420 O421 2.216 . S
Co420 O422 2.091 1_655 S
Co420 O424 2.004 1_655 S
Co420 O430 2.021 1_655 S
Co420 O432 2.137 . S
Co420 O433 2.244 . S
O421 Co420 2.216 . S
O421 C428 1.247 1_655 S
O422 Co420 2.091 1_455 S
O422 C428 1.261 . S
C423 O432 1.247 . S
C423 O433 1.272 . S
O424 Co420 2.004 1_455 S
O424 C429 1.259 . S
Co425 O426 2.061 . S
Co425 O431 2.052 . S
Co425 O433 2.135 . S
O426 Co425 2.061 . S
O426 C429 1.235 1_655 S
C427 O430 1.238 . S
C427 O431 1.241 1_455 S
C428 O421 1.247 1_455 S
C428 O422 1.261 . S
C429 O424 1.259 . S
C429 O426 1.235 1_455 S
O430 Co420 2.021 1_455 S
O430 C427 1.238 . S
O431 Co425 2.052 . S
O431 C427 1.241 1_655 S
O432 Co420 2.137 . S
O432 C423 1.247 . S
O433 Co420 2.244 . S
O433 C423 1.272 . S
O433 Co425 2.135 . S
Co434 O435 2.216 . S
Co434 O436 2.091 . S
Co434 O438 2.004 . S
Co434 O444 2.021 . S
Co434 O446 2.137 . S
Co434 O447 2.244 . S
O435 Co434 2.216 . S
O435 C442 1.247 . S
O436 Co434 2.091 . S
O436 C442 1.261 . S
C437 O446 1.247 . S
C437 O447 1.272 . S
O438 Co434 2.004 . S
O438 C443 1.259 . S
Co439 O440 2.061 . S
Co439 O445 2.052 . S
Co439 O447 2.135 . S
O440 Co439 2.061 . S
O440 C443 1.235 . S
C441 O444 1.238 . S
C441 O445 1.241 . S
C442 O435 1.247 . S
C442 O436 1.261 . S
C443 O438 1.259 . S
C443 O440 1.235 . S
O444 Co434 2.021 . S
O444 C441 1.238 . S
O445 Co439 2.052 . S
O445 C441 1.241 . S
O446 Co434 2.137 . S
O446 C437 1.247 . S
O447 Co434 2.244 . S
O447 C437 1.272 . S
O447 Co439 2.135 . S
Co448 O449 2.215 . S
Co448 O450 2.094 1_545 S
Co448 O452 2.006 1_545 S
Co448 O458 2.020 1_545 S
Co448 O460 2.137 . S
Co448 O461 2.241 . S
O449 Co448 2.215 . S
O449 C456 1.247 1_545 S
O450 Co448 2.094 1_565 S
O450 C456 1.261 . S
C451 O460 1.247 . S
C451 O461 1.272 . S
O452 Co448 2.006 1_565 S
O452 C457 1.259 . S
Co453 O454 2.061 . S
Co453 O459 2.052 . S
Co453 O461 2.135 . S
O454 Co453 2.061 . S
O454 C457 1.235 1_545 S
C455 O458 1.238 . S
C455 O459 1.241 1_565 S
C456 O449 1.247 1_565 S
C456 O450 1.261 . S
C457 O452 1.259 . S
C457 O454 1.235 1_565 S
O458 Co448 2.020 1_565 S
O458 C455 1.238 . S
O459 Co453 2.052 . S
O459 C455 1.241 1_545 S
O460 Co448 2.137 . S
O460 C451 1.247 . S
O461 Co448 2.241 . S
O461 C451 1.272 . S
O461 Co453 2.135 . S
Co462 O463 2.216 . S
Co462 O464 2.091 . S
Co462 O466 2.004 . S
Co462 O472 2.021 . S
Co462 O474 2.137 . S
Co462 O475 2.244 . S
O463 Co462 2.216 . S
O463 C470 1.247 . S
O464 Co462 2.091 . S
O464 C470 1.261 . S
C465 O474 1.247 . S
C465 O475 1.272 . S
O466 Co462 2.004 . S
O466 C471 1.259 . S
Co467 O468 2.061 . S
Co467 O473 2.052 . S
Co467 O475 2.135 . S
O468 Co467 2.061 . S
O468 C471 1.235 . S
C469 O472 1.238 . S
C469 O473 1.241 . S
C470 O463 1.247 . S
C470 O464 1.261 . S
C471 O466 1.259 . S
C471 O468 1.235 . S
O472 Co462 2.021 . S
O472 C469 1.238 . S
O473 Co467 2.052 . S
O473 C469 1.241 . S
O474 Co462 2.137 . S
O474 C465 1.247 . S
O475 Co462 2.244 . S
O475 C465 1.272 . S
O475 Co467 2.135 . S
Co476 O477 2.216 . S
Co476 O478 2.091 1_545 S
Co476 O480 2.004 1_545 S
Co476 O486 2.021 1_545 S
Co476 O488 2.137 . S
Co476 O489 2.244 . S
O477 Co476 2.216 . S
O477 C484 1.247 1_545 S
O478 Co476 2.091 1_565 S
O478 C484 1.261 . S
C479 O488 1.247 . S
C479 O489 1.272 . S
O480 Co476 2.004 1_565 S
O480 C485 1.259 . S
Co481 O482 2.061 1_545 S
Co481 O487 2.052 1_545 S
Co481 O489 2.135 . S
O482 Co481 2.061 1_565 S
O482 C485 1.235 . S
C483 O486 1.238 . S
C483 O487 1.241 . S
C484 O477 1.247 1_565 S
C484 O478 1.261 . S
C485 O480 1.259 . S
C485 O482 1.235 . S
O486 Co476 2.021 1_565 S
O486 C483 1.238 . S
O487 Co481 2.052 1_565 S
O487 C483 1.241 . S
O488 Co476 2.137 . S
O488 C479 1.247 . S
O489 Co476 2.244 . S
O489 C479 1.272 . S
O489 Co481 2.135 . S
Co490 O491 2.216 1_455 S
Co490 O492 2.091 . S
Co490 O494 2.004 . S
Co490 O500 2.021 . S
Co490 O502 2.137 1_455 S
Co490 O503 2.244 1_455 S
O491 Co490 2.216 1_655 S
O491 C498 1.247 1_655 S
O492 Co490 2.091 . S
O492 C498 1.261 . S
C493 O502 1.247 . S
C493 O503 1.272 . S
O494 Co490 2.004 . S
O494 C499 1.259 . S
Co495 O496 2.061 1_655 S
Co495 O501 2.052 1_655 S
Co495 O503 2.135 . S
O496 Co495 2.061 1_455 S
O496 C499 1.235 . S
C497 O500 1.238 . S
C497 O501 1.241 . S
C498 O491 1.247 1_455 S
C498 O492 1.261 . S
C499 O494 1.259 . S
C499 O496 1.235 . S
O500 Co490 2.021 . S
O500 C497 1.238 . S
O501 Co495 2.052 1_455 S
O501 C497 1.241 . S
O502 Co490 2.137 1_655 S
O502 C493 1.247 . S
O503 Co490 2.244 1_655 S
O503 C493 1.272 . S
O503 Co495 2.135 . S
C232 C3 1.660 . S
C241 C22 1.674 . S
C213 C31 1.970 . S
C367 C45 1.947 . S
C64 C339 1.670 . S
C73 C358 1.651 . S
C92 C484 1.385 . S
C498 C106 1.392 . S
C470 C120 1.390 . S
C134 C288 1.367 . S
C260 C148 1.371 . S
C162 C274 1.366 . S
C400 C171 1.593 . S
C190 C409 1.575 . S
C381 C199 1.849 . S
C456 C302 1.322 . S
C428 C316 1.312 . S
C330 C442 1.321 . S
C259 C9 2.168 . S
C273 C21 2.452 . S
C287 C37 2.360 . S
C51 C469 2.167 . S
C63 C483 2.423 . S
C79 C497 2.343 . S
C91 C345 2.269 . S
C357 C105 2.417 . S
C373 C119 2.375 . S
C219 C133 2.184 . S
C147 C231 2.505 . S
C161 C247 2.333 . S
C177 C427 2.241 . S
C441 C189 2.437 . S
C455 C205 2.241 . S
C387 C301 2.284 . S
C315 C399 2.472 1_556 S
C329 C415 2.416 . S
C386 C8 2.322 . S
C17 C395 2.294 . S
C36 C414 2.552 . S
C176 C50 2.361 . S
C59 C185 2.206 . S
C78 C204 2.383 . S
C297 C87 2.292 . S
C101 C311 2.336 . S
C325 C115 2.475 . S
C129 C423 2.196 . S
C437 C143 2.267 . S
C451 C157 2.387 . S
C344 C218 2.404 . S
C353 C227 2.238 . S
C372 C246 2.549 . S
C255 C465 2.233 . S
C479 C269 2.252 . S
C493 C283 2.371 . S
C7 C233 1.423 . S
C23 C245 1.459 . S
C35 C217 2.203 . S
C371 C49 2.199 . S
C343 C65 1.493 . S
C359 C77 1.448 . S
C485 C93 0.770 . S
C499 C107 0.779 . S
C471 C121 0.738 . S
C135 C289 0.754 . S
C149 C261 0.806 . S
C163 C275 0.778 . S
C401 C175 1.538 . S
C413 C191 1.476 . S
C203 C385 2.136 . S
C303 C457 0.818 . S
C429 C317 0.834 . S
C443 C331 0.853 . S
