# Generated by pormake.
# Topology uoc, (4)-cn, num edge types: 1
# Building blocks:
#     Node 0, Type 0, BuildingBlock: QUQFOY_clean_sbu_1, # of connection points: 4
#     Node 1, Type 0, BuildingBlock: QUQFOY_clean_sbu_1, # of connection points: 4
#     Node 2, Type 0, BuildingBlock: QUQFOY_clean_sbu_1, # of connection points: 4
#     Node 3, Type 0, BuildingBlock: QUQFOY_clean_sbu_1, # of connection points: 4
#     Node 4, Type 0, BuildingBlock: QUQFOY_clean_sbu_1, # of connection points: 4
#     Node 5, Type 0, BuildingBlock: QUQFOY_clean_sbu_1, # of connection points: 4
#     Node 6, Type 0, BuildingBlock: QUQFOY_clean_sbu_1, # of connection points: 4
#     Node 7, Type 0, BuildingBlock: QUQFOY_clean_sbu_1, # of connection points: 4
#     Edge 8, Type (0, 0), BuildingBlock: MIFKUJ_clean_linker_0, # of connection points: 2
#     Edge 9, Type (0, 0), BuildingBlock: MIFKUJ_clean_linker_0, # of connection points: 2
#     Edge 10, Type (0, 0), BuildingBlock: MIFKUJ_clean_linker_0, # of connection points: 2
#     Edge 11, Type (0, 0), BuildingBlock: MIFKUJ_clean_linker_0, # of connection points: 2
#     Edge 12, Type (0, 0), BuildingBlock: MIFKUJ_clean_linker_0, # of connection points: 2
#     Edge 13, Type (0, 0), BuildingBlock: MIFKUJ_clean_linker_0, # of connection points: 2
#     Edge 14, Type (0, 0), BuildingBlock: MIFKUJ_clean_linker_0, # of connection points: 2
#     Edge 15, Type (0, 0), BuildingBlock: MIFKUJ_clean_linker_0, # of connection points: 2
#     Edge 16, Type (0, 0), BuildingBlock: MIFKUJ_clean_linker_0, # of connection points: 2
#     Edge 17, Type (0, 0), BuildingBlock: MIFKUJ_clean_linker_0, # of connection points: 2
#     Edge 18, Type (0, 0), BuildingBlock: MIFKUJ_clean_linker_0, # of connection points: 2
#     Edge 19, Type (0, 0), BuildingBlock: MIFKUJ_clean_linker_0, # of connection points: 2
#     Edge 20, Type (0, 0), BuildingBlock: MIFKUJ_clean_linker_0, # of connection points: 2
#     Edge 21, Type (0, 0), BuildingBlock: MIFKUJ_clean_linker_0, # of connection points: 2
#     Edge 22, Type (0, 0), BuildingBlock: MIFKUJ_clean_linker_0, # of connection points: 2
#     Edge 23, Type (0, 0), BuildingBlock: MIFKUJ_clean_linker_0, # of connection points: 2
# Relax obj value: 0.074
# Max RMSD: 0.105
# Mean RMSD: 0.105
data_MOF--net-uoc--node1-QUQFOY_clean_sbu_1--edge1-MIFKUJ_clean_linker_0
_symmetry_space_group_name_H-M    P1
_symmetry_Int_Tables_number       1
_symmetry_cell_setting            triclinic
loop_
_symmetry_equiv_pos_as_xyz
'x, y, z'
_cell_length_a     35.693392
_cell_length_b     35.682838
_cell_length_c     73.194542
_cell_angle_alpha  89.863704
_cell_angle_beta   90.040341
_cell_angle_gamma 111.67725
loop_
_atom_site_label
_atom_site_type_symbol
_atom_site_fract_x
_atom_site_fract_y
_atom_site_fract_z
_atom_type_partial_charge
O0 O 0.14919 0.22701 0.1245 0.0
Cd1 Cd 0.18731 0.28606 0.12613 0.0
Cd2 Cd 0.11573 0.29753 0.13019 0.0
O3 O 0.0925 0.23781 0.12171 0.0
O4 O 0.23704 0.28741 0.11329 0.0
O5 O 0.19732 0.31769 0.1027 0.0
C6 C 0.22781 0.3069 0.10026 0.0
C7 C 0.08422 0.34138 0.12039 0.0
C8 C 0.11148 0.21384 0.12161 0.0
C9 C 0.17381 0.31392 0.1626 0.0
O10 O 0.1391 0.30933 0.15638 0.0
O11 O 0.20031 0.30904 0.15228 0.0
O12 O 0.06721 0.31254 0.13177 0.0
O13 O 0.11902 0.34476 0.11396 0.0
O14 O 0.73007 0.64264 0.39659 0.0
Cd15 Cd 0.78933 0.67915 0.39311 0.0
Cd16 Cd 0.79736 0.60672 0.38857 0.0
O17 O 0.73874 0.58473 0.3984 0.0
O18 O 0.79246 0.73064 0.40476 0.0
O19 O 0.82299 0.69179 0.416 0.0
C20 C 0.81269 0.72273 0.41784 0.0
C21 C 0.84356 0.57913 0.39915 0.0
C22 C 0.716 0.60492 0.39955 0.0
C23 C 0.81156 0.66252 0.35572 0.0
O24 O 0.80619 0.62756 0.36192 0.0
O25 O 0.80938 0.68989 0.36632 0.0
O26 O 0.81387 0.55903 0.38873 0.0
O27 O 0.84662 0.6149 0.40406 0.0
O28 O 0.36397 0.26962 0.62607 0.0
Cd29 Cd 0.32483 0.21083 0.6263 0.0
Cd30 Cd 0.39401 0.19715 0.62861 0.0
O31 O 0.41788 0.25635 0.61912 0.0
O32 O 0.27561 0.2112 0.61353 0.0
O33 O 0.31495 0.18106 0.60244 0.0
C34 C 0.28464 0.19226 0.60026 0.0
C35 C 0.42017 0.15014 0.61755 0.0
C36 C 0.40064 0.28148 0.62124 0.0
C37 C 0.33901 0.18167 0.66205 0.0
O38 O 0.37371 0.18718 0.6555 0.0
O39 O 0.31167 0.18549 0.65191 0.0
O40 O 0.44075 0.17909 0.62822 0.0
O41 O 0.38479 0.14837 0.61263 0.0
O42 O 0.77293 0.85722 0.89465 0.0
Cd43 Cd 0.71386 0.81943 0.89214 0.0
Cd44 Cd 0.70263 0.89013 0.88768 0.0
O45 O 0.76218 0.91408 0.89631 0.0
O46 O 0.71154 0.76874 0.90446 0.0
O47 O 0.68116 0.80803 0.91529 0.0
C48 C 0.69154 0.77719 0.91745 0.0
C49 C 0.65602 0.91613 0.89916 0.0
C50 C 0.78606 0.89506 0.89717 0.0
C51 C 0.68749 0.83372 0.85515 0.0
O52 O 0.69154 0.86837 0.86124 0.0
O53 O 0.69232 0.80738 0.86566 0.0
O54 O 0.68426 0.9366 0.8881 0.0
O55 O 0.65478 0.88097 0.90421 0.0
O56 O 0.64455 0.72494 0.62228 0.0
Cd57 Cd 0.6806 0.78478 0.6231 0.0
Cd58 Cd 0.60916 0.79348 0.62573 0.0
O59 O 0.58824 0.73444 0.61617 0.0
O60 O 0.73112 0.78852 0.61024 0.0
O61 O 0.68859 0.81525 0.5994 0.0
C62 C 0.7204 0.80656 0.59707 0.0
C63 C 0.58089 0.83896 0.61479 0.0
C64 C 0.60762 0.711 0.61778 0.0
C65 C 0.66372 0.8107 0.6592 0.0
O66 O 0.62868 0.80336 0.65265 0.0
O67 O 0.69198 0.8091 0.64902 0.0
O68 O 0.56073 0.80888 0.62504 0.0
O69 O 0.617 0.84266 0.61015 0.0
O70 O 0.22941 0.13701 0.89706 0.0
Cd71 Cd 0.28885 0.17391 0.89481 0.0
Cd72 Cd 0.29804 0.10192 0.8907 0.0
O73 O 0.23834 0.07927 0.89918 0.0
O74 O 0.29118 0.2248 0.90683 0.0
O75 O 0.3209 0.18532 0.91817 0.0
C76 C 0.31062 0.21627 0.92006 0.0
C77 C 0.34318 0.07356 0.90183 0.0
C78 C 0.21525 0.09917 0.8997 0.0
C79 C 0.31502 0.15866 0.85804 0.0
O80 O 0.3097 0.12376 0.86428 0.0
O81 O 0.31107 0.18558 0.86839 0.0
O82 O 0.31424 0.05405 0.89092 0.0
O83 O 0.34591 0.10907 0.907 0.0
O84 O 0.86541 0.7727 0.11902 0.0
Cd85 Cd 0.82496 0.71486 0.1222 0.0
Cd86 Cd 0.89584 0.7014 0.12872 0.0
O87 O 0.92202 0.76132 0.12066 0.0
O88 O 0.77577 0.71552 0.10945 0.0
O89 O 0.81142 0.68042 0.09958 0.0
C90 C 0.78236 0.69326 0.09695 0.0
C91 C 0.9254 0.65553 0.11964 0.0
C92 C 0.90359 0.78536 0.11813 0.0
C93 C 0.83502 0.68813 0.15981 0.0
O94 O 0.86931 0.68963 0.15427 0.0
O95 O 0.8107 0.6954 0.14891 0.0
O96 O 0.94222 0.68334 0.13147 0.0
O97 O 0.89204 0.65444 0.11235 0.0
O98 O 0.27552 0.36423 0.39831 0.0
Cd99 Cd 0.21686 0.32542 0.39568 0.0
Cd100 Cd 0.20473 0.39583 0.39072 0.0
O101 O 0.26379 0.42058 0.39991 0.0
O102 O 0.21621 0.2751 0.4078 0.0
O103 O 0.18402 0.31253 0.41882 0.0
C104 C 0.1956 0.28244 0.42084 0.0
C105 C 0.15725 0.42182 0.40117 0.0
C106 C 0.28808 0.40203 0.40087 0.0
C107 C 0.19156 0.33894 0.35841 0.0
O108 O 0.19529 0.37364 0.36432 0.0
O109 O 0.19595 0.31275 0.36916 0.0
O110 O 0.18606 0.4421 0.39034 0.0
O111 O 0.1559 0.38686 0.4066 0.0
H112 H 0.21369 0.34344 0.0694 0.0
H113 H 0.238 0.33953 0.03849 0.0
H114 H 0.31048 0.27527 0.05918 0.0
H115 H 0.28716 0.27995 0.09012 0.0
H116 H 0.34886 0.32246 0.03169 0.0
H117 H 0.21665 0.22411 0.04165 0.0
H118 H 0.14484 0.19909 0.05036 0.0
H119 H 0.12128 0.27125 1.00815 0.0
H120 H 0.1931 0.29704 0.99931 0.0
H121 H 0.34574 0.20308 0.95162 0.0
H122 H 0.34211 0.23025 0.982 0.0
H123 H 0.28208 0.30446 0.95906 0.0
H124 H 0.28573 0.27775 0.92872 0.0
H125 H 0.23956 0.25581 0.98727 0.0
H126 H 0.37518 0.34784 0.97587 0.0
H127 H 0.44677 0.36648 0.96763 0.0
H128 H 0.46357 0.29823 0.01316 0.0
H129 H 0.39192 0.27871 0.02154 0.0
C130 C 0.23553 0.32931 0.06745 0.0
C131 C 0.24813 0.31165 0.08224 0.0
C132 C 0.24923 0.32686 0.04973 0.0
C133 C 0.27538 0.30626 0.04642 0.0
C134 C 0.29018 0.29113 0.06134 0.0
C135 C 0.27672 0.2938 0.07906 0.0
C136 C 0.2846 0.29751 0.02741 0.0
C137 C 0.32496 0.3077 0.02201 0.0
C138 C 0.25351 0.27827 0.0147 0.0
C139 C 0.21031 0.26286 0.01996 0.0
C140 C 0.1962 0.23488 0.03432 0.0
C141 C 0.1555 0.22051 0.03926 0.0
C142 C 0.12854 0.23369 0.02986 0.0
C143 C 0.14222 0.26115 0.01545 0.0
C144 C 0.18291 0.27562 0.01045 0.0
C145 C 0.33269 0.22594 0.95296 0.0
C146 C 0.31584 0.23805 0.93772 0.0
C147 C 0.33064 0.24146 0.97035 0.0
C148 C 0.31168 0.2693 0.97281 0.0
C149 C 0.29674 0.28293 0.95749 0.0
C150 C 0.29901 0.26769 0.94012 0.0
C151 C 0.30379 0.28118 0.99146 0.0
C152 C 0.26352 0.27113 0.99685 0.0
C153 C 0.33496 0.29971 1.00421 0.0
C154 C 0.37808 0.31153 0.99923 0.0
C155 C 0.39405 0.33653 0.98404 0.0
C156 C 0.43466 0.34731 0.97936 0.0
C157 C 0.45968 0.33347 0.98984 0.0
C158 C 0.44415 0.3089 1.00505 0.0
C159 C 0.40356 0.29801 0.00978 0.0
H160 H 0.49111 0.34185 0.98619 0.0
H161 H 0.09704 0.22253 0.0337 0.0
H162 H 0.83573 0.6192 0.33088 0.0
H163 H 0.83908 0.62694 0.29768 0.0
H164 H 0.80256 0.72905 0.30197 0.0
H165 H 0.79953 0.72179 0.33536 0.0
H166 H 0.75774 0.66937 0.27586 0.0
H167 H 0.89539 0.7476 0.29126 0.0
H168 H 0.96083 0.76041 0.30626 0.0
H169 H 0.97314 0.66105 0.27732 0.0
H170 H 0.90747 0.64728 0.26234 0.0
H171 H 0.79137 0.72039 0.18091 0.0
H172 H 0.78603 0.71838 0.21426 0.0
H173 H 0.8517 0.63821 0.21645 0.0
H174 H 0.85906 0.64222 0.18326 0.0
H175 H 0.88197 0.69198 0.23994 0.0
H176 H 0.74446 0.60957 0.22595 0.0
H177 H 0.67782 0.59267 0.21148 0.0
H178 H 0.66329 0.69376 0.23791 0.0
H179 H 0.73008 0.71156 0.25236 0.0
C180 C 0.82884 0.64362 0.32481 0.0
C181 C 0.81744 0.66994 0.33578 0.0
C182 C 0.83078 0.64799 0.30582 0.0
C183 C 0.82107 0.67856 0.29736 0.0
C184 C 0.81014 0.70524 0.30824 0.0
C185 C 0.80871 0.70123 0.32731 0.0
C186 C 0.82142 0.6817 0.27712 0.0
C187 C 0.78497 0.67494 0.26795 0.0
C188 C 0.85673 0.68785 0.26686 0.0
C189 C 0.89634 0.6962 0.27579 0.0
C190 C 0.91189 0.72827 0.28821 0.0
C191 C 0.94906 0.73575 0.29668 0.0
C192 C 0.97109 0.71151 0.29277 0.0
C193 C 0.95603 0.67979 0.28034 0.0
C194 C 0.91886 0.67216 0.27184 0.0
C195 C 0.80395 0.70174 0.18852 0.0
C196 C 0.82557 0.6814 0.17951 0.0
C197 C 0.80084 0.70052 0.20762 0.0
C198 C 0.81823 0.67791 0.21802 0.0
C199 C 0.83826 0.65615 0.20885 0.0
C200 C 0.84223 0.6582 0.18985 0.0
C201 C 0.81796 0.67872 0.23843 0.0
C202 C 0.85457 0.68641 0.24771 0.0
C203 C 0.78261 0.67278 0.24876 0.0
C204 C 0.74246 0.66213 0.24008 0.0
C205 C 0.72719 0.62837 0.22856 0.0
C206 C 0.68936 0.6186 0.22039 0.0
C207 C 0.66638 0.6422 0.22373 0.0
C208 C 0.68114 0.67555 0.23531 0.0
C209 C 0.71896 0.68547 0.24351 0.0
H210 H 0.63711 0.63458 0.21739 0.0
H211 H 0.99986 0.71735 0.29935 0.0
H212 H 0.29476 0.15263 0.56969 0.0
H213 H 0.269 0.15575 0.53896 0.0
H214 H 0.20375 0.2274 0.55937 0.0
H215 H 0.22826 0.22328 0.59014 0.0
H216 H 0.16129 0.18011 0.53332 0.0
H217 H 0.29864 0.27093 0.5399 0.0
H218 H 0.37097 0.29067 0.54694 0.0
H219 H 0.38229 0.21172 0.50493 0.0
H220 H 0.30985 0.19109 0.49781 0.0
H221 H 0.16304 0.29689 0.45279 0.0
H222 H 0.16747 0.26942 0.48305 0.0
H223 H 0.22221 0.19168 0.45919 0.0
H224 H 0.21809 0.21903 0.42898 0.0
H225 H 0.26755 0.23701 0.4864 0.0
H226 H 0.12837 0.15267 0.47812 0.0
H227 H 0.05673 0.13819 0.47129 0.0
H228 H 0.04963 0.2114 0.51664 0.0
H229 H 0.1214 0.22678 0.52359 0.0
C230 C 0.27425 0.16832 0.56771 0.0
C231 C 0.26391 0.18804 0.58236 0.0
C232 C 0.25971 0.17031 0.5501 0.0
C233 C 0.23517 0.19265 0.54673 0.0
C234 C 0.22277 0.21014 0.56155 0.0
C235 C 0.23692 0.2078 0.57918 0.0
C236 C 0.22497 0.20052 0.5277 0.0
C237 C 0.18455 0.19274 0.52309 0.0
C238 C 0.25519 0.21675 0.51423 0.0
C239 C 0.29875 0.22911 0.51847 0.0
C240 C 0.3165 0.25755 0.53226 0.0
C241 C 0.35751 0.26893 0.53625 0.0
C242 C 0.38118 0.25236 0.52642 0.0
C243 C 0.3639 0.22446 0.51255 0.0
C244 C 0.32287 0.21292 0.50853 0.0
C245 C 0.17506 0.2732 0.45391 0.0
C246 C 0.19043 0.26036 0.43845 0.0
C247 C 0.17755 0.25748 0.47124 0.0
C248 C 0.19528 0.22852 0.47342 0.0
C249 C 0.20855 0.21408 0.45786 0.0
C250 C 0.20602 0.2297 0.44057 0.0
C251 C 0.20386 0.21639 0.49195 0.0
C252 C 0.24416 0.22376 0.49652 0.0
C253 C 0.17359 0.20048 0.5054 0.0
C254 C 0.13038 0.19114 0.50128 0.0
C255 C 0.11163 0.16595 0.48655 0.0
C256 C 0.07097 0.15752 0.48267 0.0
C257 C 0.04866 0.17393 0.4935 0.0
C258 C 0.06695 0.19873 0.50826 0.0
C259 C 0.10761 0.20726 0.51219 0.0
H260 H 0.01719 0.16738 0.49047 0.0
H261 H 0.41294 0.26123 0.52953 0.0
H262 H 0.65026 0.86787 0.83148 0.0
H263 H 0.64562 0.8607 0.79818 0.0
H264 H 0.70651 0.77659 0.80057 0.0
H265 H 0.71026 0.78269 0.83399 0.0
H266 H 0.73964 0.84938 0.77511 0.0
H267 H 0.61915 0.73584 0.79047 0.0
H268 H 0.55389 0.70241 0.80596 0.0
H269 H 0.50602 0.78199 0.77898 0.0
H270 H 0.57124 0.81631 0.76352 0.0
H271 H 0.7202 0.79704 0.68067 0.0
H272 H 0.72449 0.79943 0.714 0.0
H273 H 0.62635 0.84251 0.71609 0.0
H274 H 0.62071 0.83821 0.68284 0.0
H275 H 0.61278 0.7879 0.73999 0.0
H276 H 0.72997 0.90356 0.72546 0.0
H277 H 0.7949 0.94209 0.71064 0.0
H278 H 0.84899 0.86623 0.73638 0.0
H279 H 0.78421 0.82689 0.75118 0.0
C280 C 0.6621 0.84736 0.82494 0.0
C281 C 0.68053 0.82575 0.83534 0.0
C282 C 0.65947 0.84335 0.80594 0.0
C283 C 0.67587 0.81826 0.79696 0.0
C284 C 0.69372 0.79613 0.80729 0.0
C285 C 0.69556 0.79943 0.82636 0.0
C286 C 0.67567 0.81656 0.77673 0.0
C287 C 0.71208 0.83539 0.76735 0.0
C288 C 0.63947 0.79955 0.76675 0.0
C289 C 0.60022 0.77892 0.77599 0.0
C290 C 0.59484 0.74648 0.78798 0.0
C291 C 0.55783 0.72731 0.79672 0.0
C292 C 0.52586 0.74014 0.7935 0.0
C293 C 0.53082 0.77212 0.78148 0.0
C294 C 0.5678 0.79141 0.77272 0.0
C295 C 0.69997 0.80763 0.68823 0.0
C296 C 0.67015 0.8175 0.67912 0.0
C297 C 0.70249 0.80908 0.70733 0.0
C298 C 0.67596 0.82149 0.71769 0.0
C299 C 0.64704 0.8326 0.7085 0.0
C300 C 0.64399 0.83037 0.68946 0.0
C301 C 0.67692 0.82109 0.73808 0.0
C302 C 0.64056 0.80187 0.74759 0.0
C303 C 0.71315 0.83849 0.74818 0.0
C304 C 0.75212 0.86201 0.73927 0.0
C305 C 0.75562 0.89489 0.72784 0.0
C306 C 0.79241 0.91691 0.71947 0.0
C307 C 0.82601 0.90654 0.72252 0.0
C308 C 0.82292 0.87418 0.734 0.0
C309 C 0.78618 0.85203 0.7424 0.0
H310 H 0.85448 0.92364 0.71603 0.0
H311 H 0.49722 0.72525 0.80027 0.0
H312 H 0.1581 0.37493 0.33382 0.0
H313 H 0.1552 0.36724 0.30057 0.0
H314 H 0.21044 0.27861 0.3047 0.0
H315 H 0.21267 0.28547 0.3381 0.0
H316 H 0.24814 0.34602 0.27899 0.0
H317 H 0.11958 0.24388 0.29371 0.0
H318 H 0.05284 0.21714 0.30852 0.0
H319 H 0.01776 0.30423 0.27995 0.0
H320 H 0.08454 0.33188 0.26517 0.0
H321 H 0.22579 0.29325 0.18424 0.0
H322 H 0.22989 0.29577 0.21761 0.0
H323 H 0.14321 0.35396 0.21906 0.0
H324 H 0.13765 0.34969 0.18582 0.0
H325 H 0.12204 0.29796 0.24261 0.0
H326 H 0.24867 0.40334 0.22909 0.0
H327 H 0.31572 0.43468 0.21487 0.0
H328 H 0.35518 0.34829 0.24141 0.0
H329 H 0.28817 0.3161 0.25562 0.0
C330 C 0.1691 0.35336 0.32769 0.0
C331 C 0.18554 0.33074 0.33858 0.0
C332 C 0.16744 0.34904 0.3087 0.0
C333 C 0.18272 0.32247 0.30021 0.0
C334 C 0.19855 0.29931 0.31103 0.0
C335 C 0.19951 0.30305 0.33008 0.0
C336 C 0.18335 0.32016 0.27999 0.0
C337 C 0.22066 0.33491 0.27097 0.0
C338 C 0.14744 0.30685 0.26963 0.0
C339 C 0.10721 0.29019 0.27846 0.0
C340 C 0.09777 0.25757 0.29071 0.0
C341 C 0.0599 0.24219 0.29907 0.0
C342 C 0.03111 0.25904 0.29522 0.0
C343 C 0.0401 0.29124 0.28295 0.0
C344 C 0.07794 0.30675 0.27456 0.0
C345 C 0.20819 0.30724 0.19168 0.0
C346 C 0.1814 0.32127 0.18241 0.0
C347 C 0.21057 0.30873 0.21079 0.0
C348 C 0.187 0.32526 0.22097 0.0
C349 C 0.1615 0.34077 0.2116 0.0
C350 C 0.15852 0.33855 0.19257 0.0
C351 C 0.18699 0.32444 0.24136 0.0
C352 C 0.14971 0.30903 0.25049 0.0
C353 C 0.22299 0.33782 0.25181 0.0
C354 C 0.26327 0.35705 0.24325 0.0
C355 C 0.27155 0.39082 0.23177 0.0
C356 C 0.30956 0.40878 0.22374 0.0
C357 C 0.33966 0.39341 0.22719 0.0
C358 C 0.33182 0.36011 0.23873 0.0
C359 C 0.29384 0.34202 0.24678 0.0
H360 H 0.36907 0.40736 0.22097 0.0
H361 H 0.00181 0.24709 0.3017 0.0
H362 H 0.78258 0.78366 0.58713 0.0
H363 H 0.80804 0.78167 0.55641 0.0
H364 H 0.73044 0.83995 0.53532 0.0
H365 H 0.70395 0.84104 0.56606 0.0
H366 H 0.72116 0.77591 0.51613 0.0
H367 H 0.83636 0.88715 0.53618 0.0
H368 H 0.89266 0.92478 0.55656 0.0
H369 H 0.9446 0.83484 0.54916 0.0
H370 H 0.88831 0.79635 0.52893 0.0
H371 H 0.7898 0.78574 0.4261 0.0
H372 H 0.78478 0.81178 0.45642 0.0
H373 H 0.84173 0.73545 0.47995 0.0
H374 H 0.84679 0.70896 0.44956 0.0
H375 H 0.86388 0.81356 0.49715 0.0
H376 H 0.74557 0.70022 0.47942 0.0
H377 H 0.6898 0.66296 0.45869 0.0
H378 H 0.64402 0.75839 0.46194 0.0
H379 H 0.69999 0.79657 0.48244 0.0
C380 C 0.77149 0.79687 0.57604 0.0
C381 C 0.74107 0.81239 0.57909 0.0
C382 C 0.78626 0.79585 0.55843 0.0
C383 C 0.77139 0.81083 0.54346 0.0
C384 C 0.74239 0.82812 0.54661 0.0
C385 C 0.72739 0.82892 0.56423 0.0
C386 C 0.78318 0.80491 0.52445 0.0
C387 C 0.75243 0.78501 0.51193 0.0
C388 C 0.82395 0.81561 0.519 0.0
C389 C 0.8579 0.83869 0.53115 0.0
C390 C 0.85961 0.87522 0.53901 0.0
C391 C 0.89156 0.89674 0.55052 0.0
C392 C 0.92214 0.88216 0.55419 0.0
C393 C 0.92088 0.84608 0.54632 0.0
C394 C 0.88898 0.82443 0.53481 0.0
C395 C 0.80222 0.77514 0.43762 0.0
C396 C 0.8183 0.74488 0.4354 0.0
C397 C 0.79924 0.79005 0.45498 0.0
C398 C 0.81232 0.7751 0.47047 0.0
C399 C 0.83138 0.74733 0.46817 0.0
C400 C 0.83422 0.73221 0.45078 0.0
C401 C 0.80187 0.78492 0.48904 0.0
C402 C 0.83273 0.80513 0.50141 0.0
C403 C 0.7612 0.77459 0.49442 0.0
C404 C 0.72722 0.75145 0.48229 0.0
C405 C 0.7238 0.71341 0.47559 0.0
C406 C 0.69214 0.6921 0.4639 0.0
C407 C 0.66345 0.70835 0.45896 0.0
C408 C 0.66631 0.74588 0.46575 0.0
C409 C 0.69799 0.76737 0.47741 0.0
H410 H 0.63896 0.69181 0.4499 0.0
H411 H 0.94685 0.89887 0.5631 0.0
H412 H 0.28498 0.19927 0.68347 0.0
H413 H 0.27997 0.19583 0.7169 0.0
H414 H 0.37237 0.14513 0.719 0.0
H415 H 0.37833 0.1494 0.68563 0.0
H416 H 0.29884 0.10658 0.7425 0.0
H417 H 0.40319 0.23594 0.72721 0.0
H418 H 0.42859 0.30153 0.71127 0.0
H419 H 0.33737 0.33485 0.73699 0.0
H420 H 0.31102 0.26914 0.75287 0.0
H421 H 0.351 0.12262 0.83487 0.0
H422 H 0.35508 0.12796 0.80162 0.0
H423 H 0.29693 0.21465 0.80292 0.0
H424 H 0.29467 0.21086 0.83636 0.0
H425 H 0.34921 0.23504 0.77716 0.0
H426 H 0.24461 0.11123 0.79303 0.0
H427 H 0.21282 0.0455 0.80841 0.0
H428 H 0.29447 0.00081 0.78127 0.0
H429 H 0.32714 0.0665 0.76591 0.0
C430 C 0.30379 0.18682 0.69103 0.0
C431 C 0.33209 0.17464 0.68193 0.0
C432 C 0.30103 0.18507 0.71011 0.0
C433 C 0.32598 0.17046 0.72037 0.0
C434 C 0.3529 0.15654 0.71129 0.0
C435 C 0.35628 0.15904 0.69225 0.0
C436 C 0.32527 0.17121 0.74061 0.0
C437 C 0.31023 0.13456 0.75013 0.0
C438 C 0.33878 0.20785 0.75046 0.0
C439 C 0.35487 0.24746 0.74106 0.0
C440 C 0.38832 0.2571 0.72933 0.0
C441 C 0.40293 0.29433 0.72034 0.0
C442 C 0.38453 0.32229 0.72307 0.0
C443 C 0.35155 0.31313 0.73486 0.0
C444 C 0.33678 0.27592 0.74387 0.0
C445 C 0.33962 0.14327 0.82808 0.0
C446 C 0.32228 0.16613 0.83821 0.0
C447 C 0.34163 0.14605 0.80904 0.0
C448 C 0.32516 0.17076 0.79964 0.0
C449 C 0.30957 0.19511 0.80979 0.0
C450 C 0.30836 0.193 0.82892 0.0
C451 C 0.32324 0.17019 0.77927 0.0
C452 C 0.33767 0.2069 0.76965 0.0
C453 C 0.30822 0.13355 0.7693 0.0
C454 C 0.28856 0.09392 0.77845 0.0
C455 C 0.25597 0.08748 0.79043 0.0
C456 C 0.23777 0.05022 0.79914 0.0
C457 C 0.25168 0.01903 0.79585 0.0
C458 C 0.28376 0.02501 0.78382 0.0
C459 C 0.30211 0.06224 0.77509 0.0
H460 H 0.23755 0.99021 0.80261 0.0
H461 H 0.39589 0.35109 0.71609 0.0
H462 H 0.72466 0.72239 0.0867 0.0
H463 H 0.69856 0.72388 0.05606 0.0
H464 H 0.76483 0.65275 0.03617 0.0
H465 H 0.79201 0.65205 0.06683 0.0
H466 H 0.77993 0.71662 0.01574 0.0
H467 H 0.6587 0.61587 0.03804 0.0
H468 H 0.60188 0.58505 0.05924 0.0
H469 H 0.56206 0.68335 0.05015 0.0
H470 H 0.61897 0.71507 0.02908 0.0
H471 H 0.71116 0.71211 0.92592 0.0
H472 H 0.71527 0.68564 0.95633 0.0
H473 H 0.66479 0.76727 0.97978 0.0
H474 H 0.66034 0.79391 0.94931 0.0
H475 H 0.63882 0.69208 0.99768 0.0
H476 H 0.7631 0.79549 0.97825 0.0
H477 H 0.81996 0.82744 0.95719 0.0
H478 H 0.85404 0.72424 0.96147 0.0
H479 H 0.79693 0.69139 0.98234 0.0
C480 C 0.73304 0.70626 0.07592 0.0
C481 C 0.76062 0.68724 0.07924 0.0
C482 C 0.71788 0.707 0.05836 0.0
C483 C 0.72949 0.68827 0.04373 0.0
C484 C 0.75543 0.66748 0.0472 0.0
C485 C 0.77081 0.66693 0.06478 0.0
C486 C 0.71797 0.69399 0.02463 0.0
C487 C 0.74892 0.71031 0.01174 0.0
C488 C 0.67765 0.68704 0.01944 0.0
C489 C 0.64331 0.668 0.03208 0.0
C490 C 0.63801 0.63108 0.04066 0.0
C491 C 0.60574 0.61341 0.05264 0.0
C492 C 0.57842 0.63226 0.05607 0.0
C493 C 0.58326 0.66878 0.04749 0.0
C494 C 0.61548 0.68659 0.03551 0.0
C495 C 0.70002 0.72385 0.93747 0.0
C496 C 0.68583 0.75549 0.93518 0.0
C497 C 0.7025 0.70871 0.95487 0.0
C498 C 0.69102 0.72498 0.97036 0.0
C499 C 0.67394 0.75437 0.96802 0.0
C500 C 0.67144 0.76958 0.95058 0.0
C501 C 0.70076 0.7144 0.98897 0.0
C502 C 0.66965 0.69762 1.00172 0.0
C503 C 0.74094 0.72097 0.99412 0.0
C504 C 0.77548 0.74079 0.98168 0.0
C505 C 0.78252 0.77947 0.97458 0.0
C506 C 0.81482 0.79776 0.9627 0.0
C507 C 0.84053 0.77783 0.95795 0.0
C508 C 0.83405 0.73961 0.96513 0.0
C509 C 0.80173 0.72114 0.97699 0.0
H510 H 0.86553 0.79205 0.94876 0.0
H511 H 0.55347 0.61854 0.06535 0.0
H512 H 0.14221 0.15439 0.12356 0.0
H513 H 0.1065 0.08213 0.11989 0.0
H514 H 0.99622 0.10144 0.10889 0.0
H515 H 0.03168 0.17414 0.11297 0.0
H516 H 0.98372 0.04203 0.13276 0.0
H517 H 0.04876 0.07586 0.07469 0.0
H518 H 0.106 0.10664 0.0537 0.0
H519 H 0.16509 0.03141 0.07583 0.0
H520 H 0.10852 0.00064 0.09719 0.0
H521 H 0.87342 0.84184 0.10746 0.0
H522 H 0.90919 0.91447 0.1049 0.0
H523 H 0.02064 0.90066 0.11918 0.0
H524 H 0.98506 0.82746 0.12151 0.0
H525 H 0.03113 0.95742 0.09214 0.0
H526 H 0.96809 0.92718 0.15137 0.0
H527 H 0.9113 0.8971 0.17268 0.0
H528 H 0.84858 0.96646 0.1481 0.0
H529 H 0.9048 0.99655 0.12647 0.0
C530 C 0.1104 0.14343 0.12024 0.0
C531 C 0.0898 0.17012 0.11856 0.0
C532 C 0.09007 0.10203 0.11804 0.0
C533 C 0.04881 0.08639 0.11386 0.0
C534 C 0.02812 0.1129 0.11206 0.0
C535 C 0.04843 0.15443 0.11437 0.0
C536 C 0.02704 0.0422 0.11225 0.0
C537 C 0.99365 0.02365 0.12361 0.0
C538 C 0.04064 0.01809 0.10066 0.0
C539 C 0.0745 0.03615 0.08765 0.0
C540 C 0.07408 0.06605 0.07517 0.0
C541 C 0.10639 0.08348 0.06319 0.0
C542 C 0.13919 0.07103 0.06345 0.0
C543 C 0.13968 0.04104 0.07565 0.0
C544 C 0.10747 0.02357 0.08769 0.0
C545 C 0.90561 0.8541 0.10992 0.0
C546 C 0.92632 0.82887 0.11492 0.0
C547 C 0.92599 0.89567 0.10847 0.0
C548 C 0.9674 0.913 0.11218 0.0
C549 C 0.98861 0.88784 0.11633 0.0
C550 C 0.96824 0.84607 0.1177 0.0
C551 C 0.98794 0.95746 0.11265 0.0
C552 C 0.02109 0.97596 0.10114 0.0
C553 C 0.97415 0.98163 0.12409 0.0
C554 C 0.94047 0.96381 0.13719 0.0
C555 C 0.94206 0.9358 0.15043 0.0
C556 C 0.91 0.91878 0.16257 0.0
C557 C 0.87631 0.92978 0.16171 0.0
C558 C 0.87467 0.95793 0.14873 0.0
C559 C 0.90664 0.97499 0.13654 0.0
H560 H 0.85151 0.91657 0.17113 0.0
H561 H 0.16419 0.08458 0.05418 0.0
H562 H 0.08027 0.37907 0.41271 0.0
H563 H 0.0256 0.40447 0.41678 0.0
H564 H 0.10804 0.52514 0.40486 0.0
H565 H 0.16252 0.49993 0.4004 0.0
H566 H 0.05097 0.51746 0.43521 0.0
H567 H 0.05646 0.47962 0.37179 0.0
H568 H 0.05679 0.43226 0.34736 0.0
H569 H 0.9413 0.34934 0.36525 0.0
H570 H 0.94061 0.396 0.38998 0.0
H571 H 0.92249 0.61993 0.40832 0.0
H572 H 0.97469 0.59168 0.41283 0.0
H573 H 0.88545 0.47154 0.40664 0.0
H574 H 0.8338 0.49991 0.40111 0.0
H575 H 0.94486 0.47558 0.38748 0.0
H576 H 0.9346 0.51319 0.44926 0.0
H577 H 0.93302 0.55788 0.47464 0.0
H578 H 0.05386 0.63704 0.46195 0.0
H579 H 0.05598 0.59309 0.43632 0.0
C580 C 0.08688 0.41109 0.41128 0.0
C581 C 0.1256 0.43749 0.40614 0.0
C582 C 0.05564 0.42553 0.41357 0.0
C583 C 0.06283 0.46665 0.41105 0.0
C584 C 0.10194 0.49334 0.40691 0.0
C585 C 0.13296 0.47885 0.40429 0.0
C586 C 0.02907 0.48141 0.41119 0.0
C587 C 0.02778 0.50857 0.42476 0.0
C588 C 0.99843 0.46897 0.39779 0.0
C589 C 0.99872 0.44106 0.38286 0.0
C590 C 0.03132 0.45112 0.37062 0.0
C591 C 0.03154 0.42444 0.3567 0.0
C592 C 0.99915 0.38775 0.35479 0.0
C593 C 0.96641 0.37773 0.36677 0.0
C594 C 0.96609 0.40428 0.38073 0.0
C595 C 0.91398 0.58748 0.4082 0.0
C596 C 0.87411 0.56212 0.40434 0.0
C597 C 0.94382 0.57127 0.41088 0.0
C598 C 0.93414 0.5293 0.41028 0.0
C599 C 0.8939 0.50398 0.40709 0.0
C600 C 0.86431 0.52021 0.40401 0.0
C601 C 0.96619 0.51187 0.41163 0.0
C602 C 0.96746 0.48426 0.39819 0.0
C603 C 0.99641 0.52352 0.42534 0.0
C604 C 0.9953 0.55 0.44077 0.0
C605 C 0.96073 0.54027 0.45179 0.0
C606 C 0.95976 0.56545 0.46624 0.0
C607 C 0.99328 0.60033 0.46988 0.0
C608 C 0.0279 0.61004 0.4591 0.0
C609 C 0.02902 0.58497 0.44463 0.0
H610 H 0.99247 0.61978 0.48107 0.0
H611 H 0.99936 0.36715 0.344 0.0
H612 H 0.4548 0.31971 0.59447 0.0
H613 H 0.48935 0.39272 0.59033 0.0
H614 H 0.43358 0.41335 0.63973 0.0
H615 H 0.39691 0.34098 0.64294 0.0
H616 H 0.43178 0.4649 0.61787 0.0
H617 H 0.5382 0.41997 0.63554 0.0
H618 H 0.58137 0.37982 0.63333 0.0
H619 H 0.62064 0.42879 0.57996 0.0
H620 H 0.57732 0.4689 0.58179 0.0
H621 H 0.62859 0.65204 0.63286 0.0
H622 H 0.59337 0.57941 0.63056 0.0
H623 H 0.50631 0.59759 0.59414 0.0
H624 H 0.54037 0.67077 0.59734 0.0
H625 H 0.57884 0.52681 0.60637 0.0
H626 H 0.4159 0.52226 0.59808 0.0
H627 H 0.37512 0.56239 0.6065 0.0
H628 H 0.4532 0.6123 0.65213 0.0
H629 H 0.49412 0.57213 0.6441 0.0
C630 C 0.45012 0.34006 0.60438 0.0
C631 C 0.42335 0.32499 0.61901 0.0
C632 C 0.46997 0.38173 0.60209 0.0
C633 C 0.46459 0.40882 0.61484 0.0
C634 C 0.43811 0.39337 0.62958 0.0
C635 C 0.41732 0.35197 0.6315 0.0
C636 C 0.4861 0.45324 0.61302 0.0
C637 C 0.46397 0.47832 0.61534 0.0
C638 C 0.52817 0.47113 0.60986 0.0
C639 C 0.55418 0.44704 0.60872 0.0
C640 C 0.55583 0.42194 0.62329 0.0
C641 C 0.58036 0.39924 0.62211 0.0
C642 C 0.60363 0.40166 0.60649 0.0
C643 C 0.60253 0.42688 0.59204 0.0
C644 C 0.57802 0.44962 0.59314 0.0
C645 C 0.60195 0.64059 0.62433 0.0
C646 C 0.58701 0.66705 0.61539 0.0
C647 C 0.5819 0.59897 0.62296 0.0
C648 C 0.54683 0.58279 0.61234 0.0
C649 C 0.53272 0.60923 0.60278 0.0
C650 C 0.55226 0.65103 0.60454 0.0
C651 C 0.52474 0.53833 0.61187 0.0
C652 C 0.54664 0.51329 0.60885 0.0
C653 C 0.48282 0.52045 0.61535 0.0
C654 C 0.45833 0.54461 0.62033 0.0
C655 C 0.42429 0.54177 0.60992 0.0
C656 C 0.40117 0.56451 0.61463 0.0
C657 C 0.41166 0.59001 0.62979 0.0
C658 C 0.44521 0.59269 0.64033 0.0
C659 C 0.46839 0.56997 0.6357 0.0
H660 H 0.39374 0.6076 0.63341 0.0
H661 H 0.62261 0.38406 0.60561 0.0
H662 H 0.57976 0.87328 0.91152 0.0
H663 H 0.52543 0.89869 0.91667 0.0
H664 H 0.60728 0.01952 0.9046 0.0
H665 H 0.66141 0.99431 0.89905 0.0
H666 H 0.55169 0.01124 0.93573 0.0
H667 H 0.55415 0.97492 0.87189 0.0
H668 H 0.55337 0.92819 0.84699 0.0
H669 H 0.43889 0.84463 0.86565 0.0
H670 H 0.43932 0.89065 0.89085 0.0
H671 H 0.42204 0.11414 0.91107 0.0
H672 H 0.47428 0.08578 0.91509 0.0
H673 H 0.38482 0.96577 0.90883 0.0
H674 H 0.33312 0.99429 0.90376 0.0
H675 H 0.44333 0.97026 0.88904 0.0
H676 H 0.43596 0.00667 0.95127 0.0
H677 H 0.4356 0.05093 0.97704 0.0
H678 H 0.55583 0.13029 0.96347 0.0
H679 H 0.55673 0.08678 0.93746 0.0
C680 C 0.58633 0.90534 0.91028 0.0
C681 C 0.62475 0.93179 0.90478 0.0
C682 C 0.55529 0.91978 0.9132 0.0
C683 C 0.56239 0.96094 0.91095 0.0
C684 C 0.60127 0.98768 0.90645 0.0
C685 C 0.63208 0.97319 0.90321 0.0
C686 C 0.52866 0.97569 0.91168 0.0
C687 C 0.528 0.00255 0.92552 0.0
C688 C 0.49739 0.96351 0.89858 0.0
C689 C 0.49701 0.93597 0.88338 0.0
C690 C 0.529 0.9464 0.87079 0.0
C691 C 0.52859 0.92009 0.8566 0.0
C692 C 0.49616 0.8834 0.85477 0.0
C693 C 0.46402 0.87301 0.8671 0.0
C694 C 0.46433 0.8992 0.88133 0.0
C695 C 0.41348 0.08168 0.91088 0.0
C696 C 0.37356 0.05641 0.90708 0.0
C697 C 0.44336 0.0654 0.91327 0.0
C698 C 0.43365 0.02344 0.91245 0.0
C699 C 0.3933 -0.00181 0.90944 0.0
C700 C 0.36369 0.0145 0.90662 0.0
C701 C 0.46574 0.00601 0.91325 0.0
C702 C 0.46641 0.97872 0.89954 0.0
C703 C 0.49664 0.01743 0.92666 0.0
C704 C 0.49627 0.04362 0.94232 0.0
C705 C 0.46222 0.03371 0.9537 0.0
C706 C 0.46194 0.05864 0.96836 0.0
C707 C 0.49564 0.09345 0.97186 0.0
C708 C 0.52974 0.10334 0.96073 0.0
C709 C 0.53017 0.07852 0.94604 0.0
H710 H 0.49536 0.11271 0.98322 0.0
H711 H 0.49589 0.86307 0.84378 0.0
H712 H 0.89528 0.58933 0.09723 0.0
H713 H 0.92092 0.53466 0.09371 0.0
H714 H 0.02022 0.59712 0.12955 0.0
H715 H 0.99494 0.65149 0.13319 0.0
H716 H 0.99423 0.5294 0.08222 0.0
H717 H 0.03084 0.5282 0.15912 0.0
H718 H 0.00812 0.54559 0.18863 0.0
H719 H 0.89117 0.52451 0.16588 0.0
H720 H 0.913 0.50642 0.13634 0.0
H721 H 0.11685 0.41308 0.1017 0.0
H722 H 0.08744 0.46478 0.09785 0.0
H723 H 0.97926 0.38789 0.12523 0.0
H724 H 0.00858 0.33665 0.12938 0.0
H725 H 0.00452 0.4598 0.1397 0.0
H726 H 0.98102 0.40721 0.07889 0.0
H727 H 0.99916 0.38655 0.0491 0.0
H728 H 0.08084 0.5078 0.03898 0.0
H729 H 0.06358 0.52909 0.06883 0.0
C730 C 0.92287 0.59165 0.10415 0.0
C731 C 0.94284 0.6246 0.11562 0.0
C732 C 0.93753 0.56046 0.10209 0.0
C733 C 0.97219 0.56161 0.11155 0.0
C734 C 0.99316 0.59538 0.12229 0.0
C735 C 0.97863 0.62648 0.12434 0.0
C736 C 0.98509 0.52651 0.11134 0.0
C737 C 0.99651 0.51411 0.09476 0.0
C738 C 0.98737 0.50613 0.12766 0.0
C739 C 0.97373 0.51636 0.14547 0.0
C740 C 1.00024 0.52712 0.16044 0.0
C741 C 0.98751 0.53712 0.17717 0.0
C742 C 0.94827 0.53629 0.17911 0.0
C743 C 0.92161 0.5253 0.16434 0.0
C744 C 0.93416 0.51521 0.1476 0.0
C745 C 0.08657 0.40699 0.10665 0.0
C746 C 0.06516 0.37084 0.11594 0.0
C747 C 0.06973 0.43653 0.10439 0.0
C748 C 0.03106 0.43026 0.11124 0.0
C749 C 0.00919 0.39356 0.11991 0.0
C750 C 0.02601 0.36421 0.12224 0.0
C751 C 0.01436 0.4628 0.11059 0.0
C752 C 0.00228 0.47489 0.12709 0.0
C753 C 0.01092 0.48234 0.09415 0.0
C754 C 0.02127 0.46966 0.07618 0.0
C755 C 0.00309 0.42941 0.07038 0.0
C756 C 0.01316 0.41759 0.05347 0.0
C757 C 0.04121 0.44582 0.04217 0.0
C758 C 0.05915 0.48596 0.04775 0.0
C759 C 0.0492 0.49792 0.06466 0.0
H760 H 0.04897 0.43662 0.02909 0.0
H761 H 0.93849 0.54408 0.19206 0.0
H762 H 0.34747 0.37127 0.40311 0.0
H763 H 0.41957 0.40802 0.40677 0.0
H764 H 0.39978 0.51997 0.41028 0.0
H765 H 0.32724 0.48336 0.40626 0.0
H766 H 0.45877 0.52592 0.38684 0.0
H767 H 0.4269 0.47839 0.4481 0.0
H768 H 0.39723 0.42812 0.47237 0.0
H769 H 0.47139 0.36296 0.45588 0.0
H770 H 0.50112 0.41254 0.43133 0.0
H771 H 0.66178 0.64023 0.40709 0.0
H772 H 0.5891 0.60727 0.41112 0.0
H773 H 0.59868 0.49093 0.40506 0.0
H774 H 0.67178 0.52369 0.40124 0.0
H775 H 0.54459 0.49041 0.43176 0.0
H776 H 0.57171 0.53401 0.36919 0.0
H777 H 0.601 0.58319 0.34446 0.0
H778 H 0.53494 0.65472 0.36328 0.0
H779 H 0.50567 0.6062 0.38829 0.0
C780 C 0.35828 0.40369 0.40482 0.0
C781 C 0.33152 0.42439 0.40435 0.0
C782 C 0.39958 0.42464 0.40703 0.0
C783 C 0.41504 0.46669 0.40902 0.0
C784 C 0.38843 0.48747 0.40883 0.0
C785 C 0.347 0.46651 0.40656 0.0
C786 C 0.45921 0.489 0.41011 0.0
C787 C 0.47742 0.51873 0.39692 0.0
C788 C 0.48366 0.47881 0.42294 0.0
C789 C 0.46602 0.44905 0.43778 0.0
C790 C 0.43668 0.45319 0.44956 0.0
C791 C 0.41988 0.42484 0.46339 0.0
C792 C 0.43236 0.39233 0.46564 0.0
C793 C 0.46174 0.38815 0.45411 0.0
C794 C 0.47862 0.4164 0.44025 0.0
C795 C 0.64856 0.6076 0.40674 0.0
C796 C 0.67253 0.58458 0.4036 0.0
C797 C 0.60698 0.58884 0.40904 0.0
C798 C 0.58846 0.54673 0.40807 0.0
C799 C 0.61243 0.52351 0.40578 0.0
C800 C 0.65415 0.54227 0.40355 0.0
C801 C 0.54393 0.52712 0.40847 0.0
C802 C 0.52576 0.49786 0.42187 0.0
C803 C 0.51943 0.53761 0.3958 0.0
C804 C 0.53685 0.56671 0.38072 0.0
C805 C 0.56368 0.56039 0.36814 0.0
C806 C 0.58024 0.58811 0.35406 0.0
C807 C 0.56993 0.62212 0.35233 0.0
C808 C 0.54295 0.6284 0.36465 0.0
C809 C 0.52635 0.60079 0.37877 0.0
H810 H 0.58278 0.64355 0.34142 0.0
H811 H 0.4193 0.3704 0.47635 0.0
H812 H 0.37802 0.07395 0.60485 0.0
H813 H 0.40383 0.01987 0.5998 0.0
H814 H 0.52387 0.10153 0.61315 0.0
H815 H 0.4983 0.15542 0.61849 0.0
H816 H 0.51926 0.04885 0.58235 0.0
H817 H 0.47437 0.04452 0.64522 0.0
H818 H 0.42436 0.04059 0.66912 0.0
H819 H 0.34476 0.92731 0.64757 0.0
H820 H 0.3941 0.9309 0.62336 0.0
H821 H 0.62132 0.91887 0.60734 0.0
H822 H 0.59244 0.97077 0.6035 0.0
H823 H 0.47265 0.87947 0.60649 0.0
H824 H 0.50159 0.82801 0.61145 0.0
H825 H 0.4735 0.93578 0.62679 0.0
H826 H 0.51829 0.93526 0.56538 0.0
H827 H 0.56607 0.93811 0.54062 0.0
H828 H 0.64219 0.05728 0.55728 0.0
H829 H 0.59512 0.05495 0.58231 0.0
C830 C 0.41 0.08053 0.60642 0.0
C831 C 0.43609 0.11886 0.61217 0.0
C832 C 0.42467 0.04961 0.60357 0.0
C833 C 0.46572 0.05669 0.60619 0.0
C834 C 0.49212 0.09547 0.61102 0.0
C835 C 0.47741 0.12617 0.61414 0.0
C836 C 0.48077 0.02312 0.60533 0.0
C837 C 0.5095 0.02413 0.59208 0.0
C838 C 0.46723 0.99048 0.61776 0.0
C839 C 0.43769 0.98822 0.63236 0.0
C840 C 0.44604 0.01896 0.64548 0.0
C841 C 0.41786 0.01676 0.6591 0.0
C842 C 0.38135 0.98378 0.65983 0.0
C843 C 0.37301 0.95288 0.64697 0.0
C844 C 0.40108 0.95497 0.6333 0.0
C845 C 0.58883 0.90987 0.60686 0.0
C846 C 0.56369 0.86943 0.6097 0.0
C847 C 0.57226 0.93956 0.60457 0.0
C848 C 0.53018 0.92922 0.60449 0.0
C849 C 0.50515 0.88845 0.60658 0.0
C850 C 0.5217 0.85897 0.60933 0.0
C851 C 0.51224 0.96098 0.60367 0.0
C852 C 0.48303 0.95991 0.61676 0.0
C853 C 0.52499 0.99321 0.59089 0.0
C854 C 0.55331 0.99478 0.57582 0.0
C855 C 0.54535 0.96197 0.56384 0.0
C856 C 0.57229 0.96351 0.54975 0.0
C857 C 0.60719 0.99781 0.5474 0.0
C858 C 0.61516 0.03071 0.55912 0.0
C859 C 0.58833 0.02932 0.57325 0.0
H860 H 0.62801 -0.00106 0.53648 0.0
H861 H 0.35957 0.98213 0.67038 0.0
H862 H 0.82655 0.9765 0.90143 0.0
H863 H 0.8993 0.01229 0.90488 0.0
H864 H 0.91693 0.89907 0.90346 0.0
H865 H 0.84444 0.86306 0.90034 0.0
H866 H 0.96454 0.94824 0.92876 0.0
H867 H 0.93202 0.9578 0.8655 0.0
H868 H 0.89606 0.97428 0.83979 0.0
H869 H 0.94107 0.09865 0.85601 0.0
H870 H 0.97688 0.08279 0.88197 0.0
H871 H 0.17191 0.0178 0.90237 0.0
H872 H 0.09867 0.98418 0.90495 0.0
H873 H 0.0862 0.09988 0.90632 0.0
H874 H 0.15904 0.13365 0.90351 0.0
H875 H 0.03571 0.05108 0.88218 0.0
H876 H 0.07172 0.0415 0.94468 0.0
H877 H 0.10816 0.02424 0.96997 0.0
H878 H 0.05743 0.8993 0.95483 0.0
H879 H 0.02109 0.91589 0.92929 0.0
C880 C 0.84586 0.95919 0.902 0.0
C881 C 0.82968 0.91694 0.90043 0.0
C882 C 0.88744 0.9797 0.90391 0.0
C883 C 0.91355 0.95835 0.90417 0.0
C884 C 0.89734 0.91613 0.90326 0.0
C885 C 0.85586 0.89563 0.90139 0.0
C886 C 0.95789 0.97992 0.90463 0.0
C887 C 0.98019 0.9705 0.9185 0.0
C888 C 0.97818 0.00942 0.89141 0.0
C889 C 0.95676 0.01903 0.87579 0.0
C890 C 0.93399 0.9886 0.86367 0.0
C891 C 0.91368 0.99784 0.84904 0.0
C892 C 0.91618 0.03746 0.8463 0.0
C893 C 0.9391 0.06796 0.85816 0.0
C894 C 0.95942 0.05887 0.87283 0.0
C895 C 0.15361 0.03609 0.9034 0.0
C896 C 0.17135 0.07841 0.90265 0.0
C897 C 0.11177 0.01683 0.90494 0.0
C898 C 0.087 0.03956 0.90592 0.0
C899 C 0.10473 0.08177 0.90555 0.0
C900 C 0.14643 0.101 0.90397 0.0
C901 C 0.04248 0.0195 0.90633 0.0
C902 C 0.02011 0.02909 0.89255 0.0
C903 C 0.02223 0.99008 0.91959 0.0
C904 C 0.04398 0.98001 0.93497 0.0
C905 C 0.06859 0.01039 0.94665 0.0
C906 C 0.08918 0.00072 0.96105 0.0
C907 C 0.0852 0.96072 0.96398 0.0
C908 C 0.06053 0.93029 0.95254 0.0
C909 C 0.03989 0.9398 0.93811 0.0
H910 H 0.10116 0.95329 0.97513 0.0
H911 H 0.90044 0.04456 0.83496 0.0
loop_
_geom_bond_atom_site_label_1
_geom_bond_atom_site_label_2
_geom_bond_distance
_geom_bond_site_symmetry_2
_ccdc_geom_bond_type
O0 Cd1 2.223 . S
O0 C8 1.315 . S
Cd1 O0 2.223 . S
Cd1 O4 2.297 . S
Cd1 O5 2.439 . S
Cd1 O11 2.240 . S
Cd2 O3 2.240 . S
Cd2 O10 2.223 . S
Cd2 O12 2.297 . S
Cd2 O13 2.439 . S
O3 Cd2 2.240 . S
O3 C8 1.279 . S
O4 Cd1 2.297 . S
O4 C6 1.247 . S
O5 Cd1 2.439 . S
O5 C6 1.208 . S
C6 O4 1.247 . S
C6 O5 1.208 . S
C7 O12 1.247 . S
C7 O13 1.208 . S
C8 O0 1.315 . S
C8 O3 1.279 . S
C9 O10 1.315 . S
C9 O11 1.279 . S
O10 Cd2 2.223 . S
O10 C9 1.315 . S
O11 Cd1 2.240 . S
O11 C9 1.279 . S
O12 Cd2 2.297 . S
O12 C7 1.247 . S
O13 Cd2 2.439 . S
O13 C7 1.208 . S
O14 Cd15 2.223 . S
O14 C22 1.315 . S
Cd15 O14 2.223 . S
Cd15 O18 2.297 . S
Cd15 O19 2.439 . S
Cd15 O25 2.240 . S
Cd16 O17 2.240 . S
Cd16 O24 2.223 . S
Cd16 O26 2.297 . S
Cd16 O27 2.439 . S
O17 Cd16 2.240 . S
O17 C22 1.279 . S
O18 Cd15 2.297 . S
O18 C20 1.247 . S
O19 Cd15 2.439 . S
O19 C20 1.208 . S
C20 O18 1.247 . S
C20 O19 1.208 . S
C21 O26 1.247 . S
C21 O27 1.208 . S
C22 O14 1.315 . S
C22 O17 1.279 . S
C23 O24 1.315 . S
C23 O25 1.279 . S
O24 Cd16 2.223 . S
O24 C23 1.315 . S
O25 Cd15 2.240 . S
O25 C23 1.279 . S
O26 Cd16 2.297 . S
O26 C21 1.247 . S
O27 Cd16 2.439 . S
O27 C21 1.208 . S
O28 Cd29 2.223 . S
O28 C36 1.315 . S
Cd29 O28 2.223 . S
Cd29 O32 2.297 . S
Cd29 O33 2.439 . S
Cd29 O39 2.240 . S
Cd30 O31 2.240 . S
Cd30 O38 2.223 . S
Cd30 O40 2.297 . S
Cd30 O41 2.439 . S
O31 Cd30 2.240 . S
O31 C36 1.279 . S
O32 Cd29 2.297 . S
O32 C34 1.247 . S
O33 Cd29 2.439 . S
O33 C34 1.208 . S
C34 O32 1.247 . S
C34 O33 1.208 . S
C35 O40 1.247 . S
C35 O41 1.208 . S
C36 O28 1.315 . S
C36 O31 1.279 . S
C37 O38 1.315 . S
C37 O39 1.279 . S
O38 Cd30 2.223 . S
O38 C37 1.315 . S
O39 Cd29 2.240 . S
O39 C37 1.279 . S
O40 Cd30 2.297 . S
O40 C35 1.247 . S
O41 Cd30 2.439 . S
O41 C35 1.208 . S
O42 Cd43 2.223 . S
O42 C50 1.315 . S
Cd43 O42 2.223 . S
Cd43 O46 2.297 . S
Cd43 O47 2.439 . S
Cd43 O53 2.240 . S
Cd44 O45 2.240 . S
Cd44 O52 2.223 . S
Cd44 O54 2.297 . S
Cd44 O55 2.439 . S
O45 Cd44 2.240 . S
O45 C50 1.279 . S
O46 Cd43 2.297 . S
O46 C48 1.247 . S
O47 Cd43 2.439 . S
O47 C48 1.208 . S
C48 O46 1.247 . S
C48 O47 1.208 . S
C49 O54 1.247 . S
C49 O55 1.208 . S
C50 O42 1.315 . S
C50 O45 1.279 . S
C51 O52 1.315 . S
C51 O53 1.279 . S
O52 Cd44 2.223 . S
O52 C51 1.315 . S
O53 Cd43 2.240 . S
O53 C51 1.279 . S
O54 Cd44 2.297 . S
O54 C49 1.247 . S
O55 Cd44 2.439 . S
O55 C49 1.208 . S
O56 Cd57 2.223 . S
O56 C64 1.315 . S
Cd57 O56 2.223 . S
Cd57 O60 2.297 . S
Cd57 O61 2.439 . S
Cd57 O67 2.240 . S
Cd58 O59 2.240 . S
Cd58 O66 2.223 . S
Cd58 O68 2.297 . S
Cd58 O69 2.439 . S
O59 Cd58 2.240 . S
O59 C64 1.279 . S
O60 Cd57 2.297 . S
O60 C62 1.247 . S
O61 Cd57 2.439 . S
O61 C62 1.208 . S
C62 O60 1.247 . S
C62 O61 1.208 . S
C63 O68 1.247 . S
C63 O69 1.208 . S
C64 O56 1.315 . S
C64 O59 1.279 . S
C65 O66 1.315 . S
C65 O67 1.279 . S
O66 Cd58 2.223 . S
O66 C65 1.315 . S
O67 Cd57 2.240 . S
O67 C65 1.279 . S
O68 Cd58 2.297 . S
O68 C63 1.247 . S
O69 Cd58 2.439 . S
O69 C63 1.208 . S
O70 Cd71 2.223 . S
O70 C78 1.315 . S
Cd71 O70 2.223 . S
Cd71 O74 2.297 . S
Cd71 O75 2.439 . S
Cd71 O81 2.240 . S
Cd72 O73 2.240 . S
Cd72 O80 2.223 . S
Cd72 O82 2.297 . S
Cd72 O83 2.439 . S
O73 Cd72 2.240 . S
O73 C78 1.279 . S
O74 Cd71 2.297 . S
O74 C76 1.247 . S
O75 Cd71 2.439 . S
O75 C76 1.208 . S
C76 O74 1.247 . S
C76 O75 1.208 . S
C77 O82 1.247 . S
C77 O83 1.208 . S
C78 O70 1.315 . S
C78 O73 1.279 . S
C79 O80 1.315 . S
C79 O81 1.279 . S
O80 Cd72 2.223 . S
O80 C79 1.315 . S
O81 Cd71 2.240 . S
O81 C79 1.279 . S
O82 Cd72 2.297 . S
O82 C77 1.247 . S
O83 Cd72 2.439 . S
O83 C77 1.208 . S
O84 Cd85 2.223 . S
O84 C92 1.315 . S
Cd85 O84 2.223 . S
Cd85 O88 2.297 . S
Cd85 O89 2.439 . S
Cd85 O95 2.240 . S
Cd86 O87 2.240 . S
Cd86 O94 2.223 . S
Cd86 O96 2.297 . S
Cd86 O97 2.439 . S
O87 Cd86 2.240 . S
O87 C92 1.279 . S
O88 Cd85 2.297 . S
O88 C90 1.247 . S
O89 Cd85 2.439 . S
O89 C90 1.208 . S
C90 O88 1.247 . S
C90 O89 1.208 . S
C91 O96 1.247 . S
C91 O97 1.208 . S
C92 O84 1.315 . S
C92 O87 1.279 . S
C93 O94 1.315 . S
C93 O95 1.279 . S
O94 Cd86 2.223 . S
O94 C93 1.315 . S
O95 Cd85 2.240 . S
O95 C93 1.279 . S
O96 Cd86 2.297 . S
O96 C91 1.247 . S
O97 Cd86 2.439 . S
O97 C91 1.208 . S
O98 Cd99 2.223 . S
O98 C106 1.315 . S
Cd99 O98 2.223 . S
Cd99 O102 2.297 . S
Cd99 O103 2.439 . S
Cd99 O109 2.240 . S
Cd100 O101 2.240 . S
Cd100 O108 2.223 . S
Cd100 O110 2.297 . S
Cd100 O111 2.439 . S
O101 Cd100 2.240 . S
O101 C106 1.279 . S
O102 Cd99 2.297 . S
O102 C104 1.247 . S
O103 Cd99 2.439 . S
O103 C104 1.208 . S
C104 O102 1.247 . S
C104 O103 1.208 . S
C105 O110 1.247 . S
C105 O111 1.208 . S
C106 O98 1.315 . S
C106 O101 1.279 . S
C107 O108 1.315 . S
C107 O109 1.279 . S
O108 Cd100 2.223 . S
O108 C107 1.315 . S
O109 Cd99 2.240 . S
O109 C107 1.279 . S
O110 Cd100 2.297 . S
O110 C105 1.247 . S
O111 Cd100 2.439 . S
O111 C105 1.208 . S
H112 C130 0.951 . S
H113 C132 0.951 . S
H114 C134 0.950 . S
H115 C135 0.950 . S
H116 C137 0.950 . S
H117 C140 0.950 . S
H118 C141 0.950 . S
H119 C143 0.950 . S
H120 C144 0.950 . S
H121 C145 0.951 . S
H122 C147 0.951 . S
H123 C149 0.950 . S
H124 C150 0.950 . S
H125 C152 0.950 . S
H126 C155 0.950 . S
H127 C156 0.950 . S
H128 C158 0.950 . S
H129 C159 0.950 . S
C130 H112 0.951 . S
C130 C131 1.366 . S
C130 C132 1.388 . S
C131 C130 1.366 . S
C131 C135 1.385 . S
C132 H113 0.951 . S
C132 C130 1.388 . S
C132 C133 1.366 . S
C133 C132 1.366 . S
C133 C134 1.414 . S
C133 C136 1.499 . S
C134 H114 0.950 . S
C134 C133 1.414 . S
C134 C135 1.374 . S
C135 H115 0.950 . S
C135 C131 1.385 . S
C135 C134 1.374 . S
C136 C133 1.499 . S
C136 C137 1.373 . S
C136 C138 1.389 . S
C137 H116 0.950 . S
C137 C136 1.373 . S
C137 C153 1.377 1_554 S
C138 C136 1.389 . S
C138 C139 1.524 . S
C138 C152 1.377 1_554 S
C139 C138 1.524 . S
C139 C140 1.397 . S
C139 C144 1.363 1_554 S
C140 H117 0.950 . S
C140 C139 1.397 . S
C140 C141 1.334 . S
C141 H118 0.950 . S
C141 C140 1.334 . S
C141 C142 1.287 . S
C142 C141 1.287 . S
C142 C143 1.524 1_554 S
C142 H161 0.913 . S
C143 H119 0.950 . S
C143 C142 1.524 1_556 S
C143 C144 1.415 . S
C144 H120 0.950 . S
C144 C139 1.363 1_556 S
C144 C143 1.415 . S
C145 H121 0.951 . S
C145 C146 1.366 . S
C145 C147 1.388 . S
C146 C145 1.366 . S
C146 C150 1.385 . S
C147 H122 0.951 . S
C147 C145 1.388 . S
C147 C148 1.366 . S
C148 C147 1.366 . S
C148 C149 1.414 . S
C148 C151 1.499 . S
C149 H123 0.950 . S
C149 C148 1.414 . S
C149 C150 1.374 . S
C150 H124 0.950 . S
C150 C146 1.385 . S
C150 C149 1.374 . S
C151 C148 1.499 . S
C151 C152 1.373 . S
C151 C153 1.389 . S
C152 H125 0.950 . S
C152 C138 1.377 1_556 S
C152 C151 1.373 . S
C153 C137 1.377 1_556 S
C153 C151 1.389 . S
C153 C154 1.524 . S
C154 C153 1.524 . S
C154 C155 1.397 . S
C154 C159 1.363 1_556 S
C155 H126 0.950 . S
C155 C154 1.397 . S
C155 C156 1.334 . S
C156 H127 0.950 . S
C156 C155 1.334 . S
C156 C157 1.287 . S
C157 C156 1.287 . S
C157 C158 1.524 1_556 S
C157 H160 0.999 . S
C158 H128 0.950 . S
C158 C157 1.524 1_554 S
C158 C159 1.415 . S
C159 H129 0.950 . S
C159 C154 1.363 1_554 S
C159 C158 1.415 . S
H160 C157 0.999 . S
H161 C142 0.913 . S
H162 C180 0.951 . S
H163 C182 0.951 . S
H164 C184 0.950 . S
H165 C185 0.950 . S
H166 C187 0.950 . S
H167 C190 0.950 . S
H168 C191 0.950 . S
H169 C193 0.950 . S
H170 C194 0.950 . S
H171 C195 0.951 . S
H172 C197 0.951 . S
H173 C199 0.950 . S
H174 C200 0.950 . S
H175 C202 0.950 . S
H176 C205 0.950 . S
H177 C206 0.950 . S
H178 C208 0.950 . S
H179 C209 0.950 . S
C180 H162 0.951 . S
C180 C181 1.366 . S
C180 C182 1.388 . S
C181 C180 1.366 . S
C181 C185 1.385 . S
C182 H163 0.951 . S
C182 C180 1.388 . S
C182 C183 1.366 . S
C183 C182 1.366 . S
C183 C184 1.414 . S
C183 C186 1.499 . S
C184 H164 0.950 . S
C184 C183 1.414 . S
C184 C185 1.374 . S
C185 H165 0.950 . S
C185 C181 1.385 . S
C185 C184 1.374 . S
C186 C183 1.499 . S
C186 C187 1.373 . S
C186 C188 1.389 . S
C187 H166 0.950 . S
C187 C186 1.373 . S
C187 C203 1.377 . S
C188 C186 1.389 . S
C188 C189 1.524 . S
C188 C202 1.377 . S
C189 C188 1.524 . S
C189 C190 1.397 . S
C189 C194 1.363 . S
C190 H167 0.950 . S
C190 C189 1.397 . S
C190 C191 1.334 . S
C191 H168 0.950 . S
C191 C190 1.334 . S
C191 C192 1.287 . S
C192 C191 1.287 . S
C192 C193 1.524 . S
C192 H211 0.913 . S
C193 H169 0.950 . S
C193 C192 1.524 . S
C193 C194 1.415 . S
C194 H170 0.950 . S
C194 C189 1.363 . S
C194 C193 1.415 . S
C195 H171 0.951 . S
C195 C196 1.366 . S
C195 C197 1.388 . S
C196 C195 1.366 . S
C196 C200 1.385 . S
C197 H172 0.951 . S
C197 C195 1.388 . S
C197 C198 1.366 . S
C198 C197 1.366 . S
C198 C199 1.414 . S
C198 C201 1.499 . S
C199 H173 0.950 . S
C199 C198 1.414 . S
C199 C200 1.374 . S
C200 H174 0.950 . S
C200 C196 1.385 . S
C200 C199 1.374 . S
C201 C198 1.499 . S
C201 C202 1.373 . S
C201 C203 1.389 . S
C202 H175 0.950 . S
C202 C188 1.377 . S
C202 C201 1.373 . S
C203 C187 1.377 . S
C203 C201 1.389 . S
C203 C204 1.524 . S
C204 C203 1.524 . S
C204 C205 1.397 . S
C204 C209 1.363 . S
C205 H176 0.950 . S
C205 C204 1.397 . S
C205 C206 1.334 . S
C206 H177 0.950 . S
C206 C205 1.334 . S
C206 C207 1.287 . S
C207 C206 1.287 . S
C207 C208 1.524 . S
C207 H210 0.999 . S
C208 H178 0.950 . S
C208 C207 1.524 . S
C208 C209 1.415 . S
C209 H179 0.950 . S
C209 C204 1.363 . S
C209 C208 1.415 . S
H210 C207 0.999 . S
H211 C192 0.913 . S
H212 C230 0.951 . S
H213 C232 0.951 . S
H214 C234 0.950 . S
H215 C235 0.950 . S
H216 C237 0.950 . S
H217 C240 0.950 . S
H218 C241 0.950 . S
H219 C243 0.950 . S
H220 C244 0.950 . S
H221 C245 0.951 . S
H222 C247 0.951 . S
H223 C249 0.950 . S
H224 C250 0.950 . S
H225 C252 0.950 . S
H226 C255 0.950 . S
H227 C256 0.950 . S
H228 C258 0.950 . S
H229 C259 0.950 . S
C230 H212 0.951 . S
C230 C231 1.366 . S
C230 C232 1.388 . S
C231 C230 1.366 . S
C231 C235 1.385 . S
C232 H213 0.951 . S
C232 C230 1.388 . S
C232 C233 1.366 . S
C233 C232 1.366 . S
C233 C234 1.414 . S
C233 C236 1.499 . S
C234 H214 0.950 . S
C234 C233 1.414 . S
C234 C235 1.374 . S
C235 H215 0.950 . S
C235 C231 1.385 . S
C235 C234 1.374 . S
C236 C233 1.499 . S
C236 C237 1.373 . S
C236 C238 1.389 . S
C237 H216 0.950 . S
C237 C236 1.373 . S
C237 C253 1.377 . S
C238 C236 1.389 . S
C238 C239 1.524 . S
C238 C252 1.377 . S
C239 C238 1.524 . S
C239 C240 1.397 . S
C239 C244 1.363 . S
C240 H217 0.950 . S
C240 C239 1.397 . S
C240 C241 1.334 . S
C241 H218 0.950 . S
C241 C240 1.334 . S
C241 C242 1.287 . S
C242 C241 1.287 . S
C242 C243 1.524 . S
C242 H261 0.913 . S
C243 H219 0.950 . S
C243 C242 1.524 . S
C243 C244 1.415 . S
C244 H220 0.950 . S
C244 C239 1.363 . S
C244 C243 1.415 . S
C245 H221 0.951 . S
C245 C246 1.366 . S
C245 C247 1.388 . S
C246 C245 1.366 . S
C246 C250 1.385 . S
C247 H222 0.951 . S
C247 C245 1.388 . S
C247 C248 1.366 . S
C248 C247 1.366 . S
C248 C249 1.414 . S
C248 C251 1.499 . S
C249 H223 0.950 . S
C249 C248 1.414 . S
C249 C250 1.374 . S
C250 H224 0.950 . S
C250 C246 1.385 . S
C250 C249 1.374 . S
C251 C248 1.499 . S
C251 C252 1.373 . S
C251 C253 1.389 . S
C252 H225 0.950 . S
C252 C238 1.377 . S
C252 C251 1.373 . S
C253 C237 1.377 . S
C253 C251 1.389 . S
C253 C254 1.524 . S
C254 C253 1.524 . S
C254 C255 1.397 . S
C254 C259 1.363 . S
C255 H226 0.950 . S
C255 C254 1.397 . S
C255 C256 1.334 . S
C256 H227 0.950 . S
C256 C255 1.334 . S
C256 C257 1.287 . S
C257 C256 1.287 . S
C257 C258 1.524 . S
C257 H260 0.999 . S
C258 H228 0.950 . S
C258 C257 1.524 . S
C258 C259 1.415 . S
C259 H229 0.950 . S
C259 C254 1.363 . S
C259 C258 1.415 . S
H260 C257 0.999 . S
H261 C242 0.913 . S
H262 C280 0.951 . S
H263 C282 0.951 . S
H264 C284 0.950 . S
H265 C285 0.950 . S
H266 C287 0.950 . S
H267 C290 0.950 . S
H268 C291 0.950 . S
H269 C293 0.950 . S
H270 C294 0.950 . S
H271 C295 0.951 . S
H272 C297 0.951 . S
H273 C299 0.950 . S
H274 C300 0.950 . S
H275 C302 0.950 . S
H276 C305 0.950 . S
H277 C306 0.950 . S
H278 C308 0.950 . S
H279 C309 0.950 . S
C280 H262 0.951 . S
C280 C281 1.366 . S
C280 C282 1.388 . S
C281 C280 1.366 . S
C281 C285 1.385 . S
C282 H263 0.951 . S
C282 C280 1.388 . S
C282 C283 1.366 . S
C283 C282 1.366 . S
C283 C284 1.414 . S
C283 C286 1.499 . S
C284 H264 0.950 . S
C284 C283 1.414 . S
C284 C285 1.374 . S
C285 H265 0.950 . S
C285 C281 1.385 . S
C285 C284 1.374 . S
C286 C283 1.499 . S
C286 C287 1.373 . S
C286 C288 1.389 . S
C287 H266 0.950 . S
C287 C286 1.373 . S
C287 C303 1.377 . S
C288 C286 1.389 . S
C288 C289 1.524 . S
C288 C302 1.377 . S
C289 C288 1.524 . S
C289 C290 1.397 . S
C289 C294 1.363 . S
C290 H267 0.950 . S
C290 C289 1.397 . S
C290 C291 1.334 . S
C291 H268 0.950 . S
C291 C290 1.334 . S
C291 C292 1.287 . S
C292 C291 1.287 . S
C292 C293 1.524 . S
C292 H311 0.913 . S
C293 H269 0.950 . S
C293 C292 1.524 . S
C293 C294 1.415 . S
C294 H270 0.950 . S
C294 C289 1.363 . S
C294 C293 1.415 . S
C295 H271 0.951 . S
C295 C296 1.366 . S
C295 C297 1.388 . S
C296 C295 1.366 . S
C296 C300 1.385 . S
C297 H272 0.951 . S
C297 C295 1.388 . S
C297 C298 1.366 . S
C298 C297 1.366 . S
C298 C299 1.414 . S
C298 C301 1.499 . S
C299 H273 0.950 . S
C299 C298 1.414 . S
C299 C300 1.374 . S
C300 H274 0.950 . S
C300 C296 1.385 . S
C300 C299 1.374 . S
C301 C298 1.499 . S
C301 C302 1.373 . S
C301 C303 1.389 . S
C302 H275 0.950 . S
C302 C288 1.377 . S
C302 C301 1.373 . S
C303 C287 1.377 . S
C303 C301 1.389 . S
C303 C304 1.524 . S
C304 C303 1.524 . S
C304 C305 1.397 . S
C304 C309 1.363 . S
C305 H276 0.950 . S
C305 C304 1.397 . S
C305 C306 1.334 . S
C306 H277 0.950 . S
C306 C305 1.334 . S
C306 C307 1.287 . S
C307 C306 1.287 . S
C307 C308 1.524 . S
C307 H310 0.999 . S
C308 H278 0.950 . S
C308 C307 1.524 . S
C308 C309 1.415 . S
C309 H279 0.950 . S
C309 C304 1.363 . S
C309 C308 1.415 . S
H310 C307 0.999 . S
H311 C292 0.913 . S
H312 C330 0.951 . S
H313 C332 0.951 . S
H314 C334 0.950 . S
H315 C335 0.950 . S
H316 C337 0.950 . S
H317 C340 0.950 . S
H318 C341 0.950 . S
H319 C343 0.950 . S
H320 C344 0.950 . S
H321 C345 0.951 . S
H322 C347 0.951 . S
H323 C349 0.950 . S
H324 C350 0.950 . S
H325 C352 0.950 . S
H326 C355 0.950 . S
H327 C356 0.950 . S
H328 C358 0.950 . S
H329 C359 0.950 . S
C330 H312 0.951 . S
C330 C331 1.366 . S
C330 C332 1.388 . S
C331 C330 1.366 . S
C331 C335 1.385 . S
C332 H313 0.951 . S
C332 C330 1.388 . S
C332 C333 1.366 . S
C333 C332 1.366 . S
C333 C334 1.414 . S
C333 C336 1.499 . S
C334 H314 0.950 . S
C334 C333 1.414 . S
C334 C335 1.374 . S
C335 H315 0.950 . S
C335 C331 1.385 . S
C335 C334 1.374 . S
C336 C333 1.499 . S
C336 C337 1.373 . S
C336 C338 1.389 . S
C337 H316 0.950 . S
C337 C336 1.373 . S
C337 C353 1.377 . S
C338 C336 1.389 . S
C338 C339 1.524 . S
C338 C352 1.377 . S
C339 C338 1.524 . S
C339 C340 1.397 . S
C339 C344 1.363 . S
C340 H317 0.950 . S
C340 C339 1.397 . S
C340 C341 1.334 . S
C341 H318 0.950 . S
C341 C340 1.334 . S
C341 C342 1.287 . S
C342 C341 1.287 . S
C342 C343 1.524 . S
C342 H361 0.913 . S
C343 H319 0.950 . S
C343 C342 1.524 . S
C343 C344 1.415 . S
C344 H320 0.950 . S
C344 C339 1.363 . S
C344 C343 1.415 . S
C345 H321 0.951 . S
C345 C346 1.366 . S
C345 C347 1.388 . S
C346 C345 1.366 . S
C346 C350 1.385 . S
C347 H322 0.951 . S
C347 C345 1.388 . S
C347 C348 1.366 . S
C348 C347 1.366 . S
C348 C349 1.414 . S
C348 C351 1.499 . S
C349 H323 0.950 . S
C349 C348 1.414 . S
C349 C350 1.374 . S
C350 H324 0.950 . S
C350 C346 1.385 . S
C350 C349 1.374 . S
C351 C348 1.499 . S
C351 C352 1.373 . S
C351 C353 1.389 . S
C352 H325 0.950 . S
C352 C338 1.377 . S
C352 C351 1.373 . S
C353 C337 1.377 . S
C353 C351 1.389 . S
C353 C354 1.524 . S
C354 C353 1.524 . S
C354 C355 1.397 . S
C354 C359 1.363 . S
C355 H326 0.950 . S
C355 C354 1.397 . S
C355 C356 1.334 . S
C356 H327 0.950 . S
C356 C355 1.334 . S
C356 C357 1.287 . S
C357 C356 1.287 . S
C357 C358 1.524 . S
C357 H360 0.999 . S
C358 H328 0.950 . S
C358 C357 1.524 . S
C358 C359 1.415 . S
C359 H329 0.950 . S
C359 C354 1.363 . S
C359 C358 1.415 . S
H360 C357 0.999 . S
H361 C342 0.913 . S
H362 C380 0.951 . S
H363 C382 0.951 . S
H364 C384 0.950 . S
H365 C385 0.950 . S
H366 C387 0.950 . S
H367 C390 0.950 . S
H368 C391 0.950 . S
H369 C393 0.950 . S
H370 C394 0.950 . S
H371 C395 0.951 . S
H372 C397 0.951 . S
H373 C399 0.950 . S
H374 C400 0.950 . S
H375 C402 0.950 . S
H376 C405 0.950 . S
H377 C406 0.950 . S
H378 C408 0.950 . S
H379 C409 0.950 . S
C380 H362 0.951 . S
C380 C381 1.366 . S
C380 C382 1.388 . S
C381 C380 1.366 . S
C381 C385 1.385 . S
C382 H363 0.951 . S
C382 C380 1.388 . S
C382 C383 1.366 . S
C383 C382 1.366 . S
C383 C384 1.414 . S
C383 C386 1.499 . S
C384 H364 0.950 . S
C384 C383 1.414 . S
C384 C385 1.374 . S
C385 H365 0.950 . S
C385 C381 1.385 . S
C385 C384 1.374 . S
C386 C383 1.499 . S
C386 C387 1.373 . S
C386 C388 1.389 . S
C387 H366 0.950 . S
C387 C386 1.373 . S
C387 C403 1.377 . S
C388 C386 1.389 . S
C388 C389 1.524 . S
C388 C402 1.377 . S
C389 C388 1.524 . S
C389 C390 1.397 . S
C389 C394 1.363 . S
C390 H367 0.950 . S
C390 C389 1.397 . S
C390 C391 1.334 . S
C391 H368 0.950 . S
C391 C390 1.334 . S
C391 C392 1.287 . S
C392 C391 1.287 . S
C392 C393 1.524 . S
C392 H411 0.913 . S
C393 H369 0.950 . S
C393 C392 1.524 . S
C393 C394 1.415 . S
C394 H370 0.950 . S
C394 C389 1.363 . S
C394 C393 1.415 . S
C395 H371 0.951 . S
C395 C396 1.366 . S
C395 C397 1.388 . S
C396 C395 1.366 . S
C396 C400 1.385 . S
C397 H372 0.951 . S
C397 C395 1.388 . S
C397 C398 1.366 . S
C398 C397 1.366 . S
C398 C399 1.414 . S
C398 C401 1.499 . S
C399 H373 0.950 . S
C399 C398 1.414 . S
C399 C400 1.374 . S
C400 H374 0.950 . S
C400 C396 1.385 . S
C400 C399 1.374 . S
C401 C398 1.499 . S
C401 C402 1.373 . S
C401 C403 1.389 . S
C402 H375 0.950 . S
C402 C388 1.377 . S
C402 C401 1.373 . S
C403 C387 1.377 . S
C403 C401 1.389 . S
C403 C404 1.524 . S
C404 C403 1.524 . S
C404 C405 1.397 . S
C404 C409 1.363 . S
C405 H376 0.950 . S
C405 C404 1.397 . S
C405 C406 1.334 . S
C406 H377 0.950 . S
C406 C405 1.334 . S
C406 C407 1.287 . S
C407 C406 1.287 . S
C407 C408 1.524 . S
C407 H410 0.999 . S
C408 H378 0.950 . S
C408 C407 1.524 . S
C408 C409 1.415 . S
C409 H379 0.950 . S
C409 C404 1.363 . S
C409 C408 1.415 . S
H410 C407 0.999 . S
H411 C392 0.913 . S
H412 C430 0.951 . S
H413 C432 0.951 . S
H414 C434 0.950 . S
H415 C435 0.950 . S
H416 C437 0.950 . S
H417 C440 0.950 . S
H418 C441 0.950 . S
H419 C443 0.950 . S
H420 C444 0.950 . S
H421 C445 0.951 . S
H422 C447 0.951 . S
H423 C449 0.950 . S
H424 C450 0.950 . S
H425 C452 0.950 . S
H426 C455 0.950 . S
H427 C456 0.950 . S
H428 C458 0.950 . S
H429 C459 0.950 . S
C430 H412 0.951 . S
C430 C431 1.366 . S
C430 C432 1.388 . S
C431 C430 1.366 . S
C431 C435 1.385 . S
C432 H413 0.951 . S
C432 C430 1.388 . S
C432 C433 1.366 . S
C433 C432 1.366 . S
C433 C434 1.414 . S
C433 C436 1.499 . S
C434 H414 0.950 . S
C434 C433 1.414 . S
C434 C435 1.374 . S
C435 H415 0.950 . S
C435 C431 1.385 . S
C435 C434 1.374 . S
C436 C433 1.499 . S
C436 C437 1.373 . S
C436 C438 1.389 . S
C437 H416 0.950 . S
C437 C436 1.373 . S
C437 C453 1.377 . S
C438 C436 1.389 . S
C438 C439 1.524 . S
C438 C452 1.377 . S
C439 C438 1.524 . S
C439 C440 1.397 . S
C439 C444 1.363 . S
C440 H417 0.950 . S
C440 C439 1.397 . S
C440 C441 1.334 . S
C441 H418 0.950 . S
C441 C440 1.334 . S
C441 C442 1.287 . S
C442 C441 1.287 . S
C442 C443 1.524 . S
C442 H461 0.913 . S
C443 H419 0.950 . S
C443 C442 1.524 . S
C443 C444 1.415 . S
C444 H420 0.950 . S
C444 C439 1.363 . S
C444 C443 1.415 . S
C445 H421 0.951 . S
C445 C446 1.366 . S
C445 C447 1.388 . S
C446 C445 1.366 . S
C446 C450 1.385 . S
C447 H422 0.951 . S
C447 C445 1.388 . S
C447 C448 1.366 . S
C448 C447 1.366 . S
C448 C449 1.414 . S
C448 C451 1.499 . S
C449 H423 0.950 . S
C449 C448 1.414 . S
C449 C450 1.374 . S
C450 H424 0.950 . S
C450 C446 1.385 . S
C450 C449 1.374 . S
C451 C448 1.499 . S
C451 C452 1.373 . S
C451 C453 1.389 . S
C452 H425 0.950 . S
C452 C438 1.377 . S
C452 C451 1.373 . S
C453 C437 1.377 . S
C453 C451 1.389 . S
C453 C454 1.524 . S
C454 C453 1.524 . S
C454 C455 1.397 . S
C454 C459 1.363 . S
C455 H426 0.950 . S
C455 C454 1.397 . S
C455 C456 1.334 . S
C456 H427 0.950 . S
C456 C455 1.334 . S
C456 C457 1.287 . S
C457 C456 1.287 . S
C457 C458 1.524 . S
C457 H460 0.999 . S
C458 H428 0.950 . S
C458 C457 1.524 . S
C458 C459 1.415 . S
C459 H429 0.950 . S
C459 C454 1.363 . S
C459 C458 1.415 . S
H460 C457 0.999 . S
H461 C442 0.913 . S
H462 C480 0.951 . S
H463 C482 0.951 . S
H464 C484 0.950 . S
H465 C485 0.950 . S
H466 C487 0.950 . S
H467 C490 0.950 . S
H468 C491 0.950 . S
H469 C493 0.950 . S
H470 C494 0.950 . S
H471 C495 0.951 . S
H472 C497 0.951 . S
H473 C499 0.950 . S
H474 C500 0.950 . S
H475 C502 0.950 . S
H476 C505 0.950 . S
H477 C506 0.950 . S
H478 C508 0.950 . S
H479 C509 0.950 . S
C480 H462 0.951 . S
C480 C481 1.366 . S
C480 C482 1.388 . S
C481 C480 1.366 . S
C481 C485 1.385 . S
C482 H463 0.951 . S
C482 C480 1.388 . S
C482 C483 1.366 . S
C483 C482 1.366 . S
C483 C484 1.414 . S
C483 C486 1.499 . S
C484 H464 0.950 . S
C484 C483 1.414 . S
C484 C485 1.374 . S
C485 H465 0.950 . S
C485 C481 1.385 . S
C485 C484 1.374 . S
C486 C483 1.499 . S
C486 C487 1.373 . S
C486 C488 1.389 . S
C487 H466 0.950 . S
C487 C486 1.373 . S
C487 C503 1.377 1_554 S
C488 C486 1.389 . S
C488 C489 1.524 . S
C488 C502 1.377 1_554 S
C489 C488 1.524 . S
C489 C490 1.397 . S
C489 C494 1.363 . S
C490 H467 0.950 . S
C490 C489 1.397 . S
C490 C491 1.334 . S
C491 H468 0.950 . S
C491 C490 1.334 . S
C491 C492 1.287 . S
C492 C491 1.287 . S
C492 C493 1.524 . S
C492 H511 0.913 . S
C493 H469 0.950 . S
C493 C492 1.524 . S
C493 C494 1.415 . S
C494 H470 0.950 . S
C494 C489 1.363 . S
C494 C493 1.415 . S
C495 H471 0.951 . S
C495 C496 1.366 . S
C495 C497 1.388 . S
C496 C495 1.366 . S
C496 C500 1.385 . S
C497 H472 0.951 . S
C497 C495 1.388 . S
C497 C498 1.366 . S
C498 C497 1.366 . S
C498 C499 1.414 . S
C498 C501 1.499 . S
C499 H473 0.950 . S
C499 C498 1.414 . S
C499 C500 1.374 . S
C500 H474 0.950 . S
C500 C496 1.385 . S
C500 C499 1.374 . S
C501 C498 1.499 . S
C501 C502 1.373 . S
C501 C503 1.389 . S
C502 H475 0.950 . S
C502 C488 1.377 1_556 S
C502 C501 1.373 . S
C503 C487 1.377 1_556 S
C503 C501 1.389 . S
C503 C504 1.524 . S
C504 C503 1.524 . S
C504 C505 1.397 . S
C504 C509 1.363 . S
C505 H476 0.950 . S
C505 C504 1.397 . S
C505 C506 1.334 . S
C506 H477 0.950 . S
C506 C505 1.334 . S
C506 C507 1.287 . S
C507 C506 1.287 . S
C507 C508 1.524 . S
C507 H510 0.999 . S
C508 H478 0.950 . S
C508 C507 1.524 . S
C508 C509 1.415 . S
C509 H479 0.950 . S
C509 C504 1.363 . S
C509 C508 1.415 . S
H510 C507 0.999 . S
H511 C492 0.913 . S
H512 C530 0.951 . S
H513 C532 0.951 . S
H514 C534 0.950 . S
H515 C535 0.950 . S
H516 C537 0.950 . S
H517 C540 0.950 . S
H518 C541 0.950 . S
H519 C543 0.950 . S
H520 C544 0.950 1_565 S
H521 C545 0.951 . S
H522 C547 0.951 . S
H523 C549 0.950 . S
H524 C550 0.950 . S
H525 C552 0.950 . S
H526 C555 0.950 . S
H527 C556 0.950 . S
H528 C558 0.950 . S
H529 C559 0.950 1_545 S
C530 H512 0.951 . S
C530 C531 1.366 . S
C530 C532 1.388 . S
C531 C530 1.366 . S
C531 C535 1.385 . S
C532 H513 0.951 . S
C532 C530 1.388 . S
C532 C533 1.366 . S
C533 C532 1.366 . S
C533 C534 1.414 . S
C533 C536 1.499 . S
C534 H514 0.950 . S
C534 C533 1.414 . S
C534 C535 1.374 . S
C535 H515 0.950 . S
C535 C531 1.385 . S
C535 C534 1.374 . S
C536 C533 1.499 . S
C536 C537 1.373 1_455 S
C536 C538 1.389 . S
C537 H516 0.950 . S
C537 C536 1.373 1_655 S
C537 C553 1.377 1_545 S
C538 C536 1.389 . S
C538 C539 1.524 . S
C538 C552 1.377 1_545 S
C539 C538 1.524 . S
C539 C540 1.397 . S
C539 C544 1.363 . S
C540 H517 0.950 . S
C540 C539 1.397 . S
C540 C541 1.334 . S
C541 H518 0.950 . S
C541 C540 1.334 . S
C541 C542 1.287 . S
C542 C541 1.287 . S
C542 C543 1.524 . S
C542 H561 0.913 . S
C543 H519 0.950 . S
C543 C542 1.524 . S
C543 C544 1.415 . S
C544 H520 0.950 1_545 S
C544 C539 1.363 . S
C544 C543 1.415 . S
C545 H521 0.951 . S
C545 C546 1.366 . S
C545 C547 1.388 . S
C546 C545 1.366 . S
C546 C550 1.385 . S
C547 H522 0.951 . S
C547 C545 1.388 . S
C547 C548 1.366 . S
C548 C547 1.366 . S
C548 C549 1.414 . S
C548 C551 1.499 . S
C549 H523 0.950 . S
C549 C548 1.414 . S
C549 C550 1.374 . S
C550 H524 0.950 . S
C550 C546 1.385 . S
C550 C549 1.374 . S
C551 C548 1.499 . S
C551 C552 1.373 1_655 S
C551 C553 1.389 . S
C552 H525 0.950 . S
C552 C538 1.377 1_565 S
C552 C551 1.373 1_455 S
C553 C537 1.377 1_565 S
C553 C551 1.389 . S
C553 C554 1.524 . S
C554 C553 1.524 . S
C554 C555 1.397 . S
C554 C559 1.363 . S
C555 H526 0.950 . S
C555 C554 1.397 . S
C555 C556 1.334 . S
C556 H527 0.950 . S
C556 C555 1.334 . S
C556 C557 1.287 . S
C557 C556 1.287 . S
C557 C558 1.524 . S
C557 H560 0.999 . S
C558 H528 0.950 . S
C558 C557 1.524 . S
C558 C559 1.415 . S
C559 H529 0.950 1_565 S
C559 C554 1.363 . S
C559 C558 1.415 . S
H560 C557 0.999 . S
H561 C542 0.913 . S
H562 C580 0.951 . S
H563 C582 0.951 . S
H564 C584 0.950 . S
H565 C585 0.950 . S
H566 C587 0.950 . S
H567 C590 0.950 . S
H568 C591 0.950 . S
H569 C593 0.950 . S
H570 C594 0.950 . S
H571 C595 0.951 . S
H572 C597 0.951 . S
H573 C599 0.950 . S
H574 C600 0.950 . S
H575 C602 0.950 . S
H576 C605 0.950 . S
H577 C606 0.950 . S
H578 C608 0.950 . S
H579 C609 0.950 . S
C580 H562 0.951 . S
C580 C581 1.366 . S
C580 C582 1.388 . S
C581 C580 1.366 . S
C581 C585 1.385 . S
C582 H563 0.951 . S
C582 C580 1.388 . S
C582 C583 1.366 . S
C583 C582 1.366 . S
C583 C584 1.414 . S
C583 C586 1.499 . S
C584 H564 0.950 . S
C584 C583 1.414 . S
C584 C585 1.374 . S
C585 H565 0.950 . S
C585 C581 1.385 . S
C585 C584 1.374 . S
C586 C583 1.499 . S
C586 C587 1.373 . S
C586 C588 1.389 1_455 S
C587 H566 0.950 . S
C587 C586 1.373 . S
C587 C603 1.377 . S
C588 C586 1.389 1_655 S
C588 C589 1.524 . S
C588 C602 1.377 . S
C589 C588 1.524 . S
C589 C590 1.397 1_655 S
C589 C594 1.363 . S
C590 H567 0.950 . S
C590 C589 1.397 1_455 S
C590 C591 1.334 . S
C591 H568 0.950 . S
C591 C590 1.334 . S
C591 C592 1.287 1_455 S
C592 C591 1.287 1_655 S
C592 C593 1.524 . S
C592 H611 0.913 . S
C593 H569 0.950 . S
C593 C592 1.524 . S
C593 C594 1.415 . S
C594 H570 0.950 . S
C594 C589 1.363 . S
C594 C593 1.415 . S
C595 H571 0.951 . S
C595 C596 1.366 . S
C595 C597 1.388 . S
C596 C595 1.366 . S
C596 C600 1.385 . S
C597 H572 0.951 . S
C597 C595 1.388 . S
C597 C598 1.366 . S
C598 C597 1.366 . S
C598 C599 1.414 . S
C598 C601 1.499 . S
C599 H573 0.950 . S
C599 C598 1.414 . S
C599 C600 1.374 . S
C600 H574 0.950 . S
C600 C596 1.385 . S
C600 C599 1.374 . S
C601 C598 1.499 . S
C601 C602 1.373 . S
C601 C603 1.389 1_655 S
C602 H575 0.950 . S
C602 C588 1.377 . S
C602 C601 1.373 . S
C603 C587 1.377 . S
C603 C601 1.389 1_455 S
C603 C604 1.524 . S
C604 C603 1.524 . S
C604 C605 1.397 1_455 S
C604 C609 1.363 . S
C605 H576 0.950 . S
C605 C604 1.397 1_655 S
C605 C606 1.334 . S
C606 H577 0.950 . S
C606 C605 1.334 . S
C606 C607 1.287 1_655 S
C607 C606 1.287 1_455 S
C607 C608 1.524 . S
C607 H610 0.999 . S
C608 H578 0.950 . S
C608 C607 1.524 . S
C608 C609 1.415 . S
C609 H579 0.950 . S
C609 C604 1.363 . S
C609 C608 1.415 . S
H610 C607 0.999 . S
H611 C592 0.913 . S
H612 C630 0.951 . S
H613 C632 0.951 . S
H614 C634 0.950 . S
H615 C635 0.950 . S
H616 C637 0.950 . S
H617 C640 0.950 . S
H618 C641 0.950 . S
H619 C643 0.950 . S
H620 C644 0.950 . S
H621 C645 0.951 . S
H622 C647 0.951 . S
H623 C649 0.950 . S
H624 C650 0.950 . S
H625 C652 0.950 . S
H626 C655 0.950 . S
H627 C656 0.950 . S
H628 C658 0.950 . S
H629 C659 0.950 . S
C630 H612 0.951 . S
C630 C631 1.366 . S
C630 C632 1.388 . S
C631 C630 1.366 . S
C631 C635 1.385 . S
C632 H613 0.951 . S
C632 C630 1.388 . S
C632 C633 1.366 . S
C633 C632 1.366 . S
C633 C634 1.414 . S
C633 C636 1.499 . S
C634 H614 0.950 . S
C634 C633 1.414 . S
C634 C635 1.374 . S
C635 H615 0.950 . S
C635 C631 1.385 . S
C635 C634 1.374 . S
C636 C633 1.499 . S
C636 C637 1.373 . S
C636 C638 1.389 . S
C637 H616 0.950 . S
C637 C636 1.373 . S
C637 C653 1.377 . S
C638 C636 1.389 . S
C638 C639 1.524 . S
C638 C652 1.377 . S
C639 C638 1.524 . S
C639 C640 1.397 . S
C639 C644 1.363 . S
C640 H617 0.950 . S
C640 C639 1.397 . S
C640 C641 1.334 . S
C641 H618 0.950 . S
C641 C640 1.334 . S
C641 C642 1.287 . S
C642 C641 1.287 . S
C642 C643 1.524 . S
C642 H661 0.913 . S
C643 H619 0.950 . S
C643 C642 1.524 . S
C643 C644 1.415 . S
C644 H620 0.950 . S
C644 C639 1.363 . S
C644 C643 1.415 . S
C645 H621 0.951 . S
C645 C646 1.366 . S
C645 C647 1.388 . S
C646 C645 1.366 . S
C646 C650 1.385 . S
C647 H622 0.951 . S
C647 C645 1.388 . S
C647 C648 1.366 . S
C648 C647 1.366 . S
C648 C649 1.414 . S
C648 C651 1.499 . S
C649 H623 0.950 . S
C649 C648 1.414 . S
C649 C650 1.374 . S
C650 H624 0.950 . S
C650 C646 1.385 . S
C650 C649 1.374 . S
C651 C648 1.499 . S
C651 C652 1.373 . S
C651 C653 1.389 . S
C652 H625 0.950 . S
C652 C638 1.377 . S
C652 C651 1.373 . S
C653 C637 1.377 . S
C653 C651 1.389 . S
C653 C654 1.524 . S
C654 C653 1.524 . S
C654 C655 1.397 . S
C654 C659 1.363 . S
C655 H626 0.950 . S
C655 C654 1.397 . S
C655 C656 1.334 . S
C656 H627 0.950 . S
C656 C655 1.334 . S
C656 C657 1.287 . S
C657 C656 1.287 . S
C657 C658 1.524 . S
C657 H660 0.999 . S
C658 H628 0.950 . S
C658 C657 1.524 . S
C658 C659 1.415 . S
C659 H629 0.950 . S
C659 C654 1.363 . S
C659 C658 1.415 . S
H660 C657 0.999 . S
H661 C642 0.913 . S
H662 C680 0.951 . S
H663 C682 0.951 . S
H664 C684 0.950 1_545 S
H665 C685 0.950 . S
H666 C687 0.950 . S
H667 C690 0.950 . S
H668 C691 0.950 . S
H669 C693 0.950 . S
H670 C694 0.950 . S
H671 C695 0.951 . S
H672 C697 0.951 . S
H673 C699 0.950 1_565 S
H674 C700 0.950 . S
H675 C702 0.950 . S
H676 C705 0.950 . S
H677 C706 0.950 . S
H678 C708 0.950 . S
H679 C709 0.950 . S
C680 H662 0.951 . S
C680 C681 1.366 . S
C680 C682 1.388 . S
C681 C680 1.366 . S
C681 C685 1.385 . S
C682 H663 0.951 . S
C682 C680 1.388 . S
C682 C683 1.366 . S
C683 C682 1.366 . S
C683 C684 1.414 . S
C683 C686 1.499 . S
C684 H664 0.950 1_565 S
C684 C683 1.414 . S
C684 C685 1.374 . S
C685 H665 0.950 . S
C685 C681 1.385 . S
C685 C684 1.374 . S
C686 C683 1.499 . S
C686 C687 1.373 1_565 S
C686 C688 1.389 . S
C687 H666 0.950 . S
C687 C686 1.373 1_545 S
C687 C703 1.377 . S
C688 C686 1.389 . S
C688 C689 1.524 . S
C688 C702 1.377 . S
C689 C688 1.524 . S
C689 C690 1.397 . S
C689 C694 1.363 . S
C690 H667 0.950 . S
C690 C689 1.397 . S
C690 C691 1.334 . S
C691 H668 0.950 . S
C691 C690 1.334 . S
C691 C692 1.287 . S
C692 C691 1.287 . S
C692 C693 1.524 . S
C692 H711 0.913 . S
C693 H669 0.950 . S
C693 C692 1.524 . S
C693 C694 1.415 . S
C694 H670 0.950 . S
C694 C689 1.363 . S
C694 C693 1.415 . S
C695 H671 0.951 . S
C695 C696 1.366 . S
C695 C697 1.388 . S
C696 C695 1.366 . S
C696 C700 1.385 . S
C697 H672 0.951 . S
C697 C695 1.388 . S
C697 C698 1.366 . S
C698 C697 1.366 . S
C698 C699 1.414 . S
C698 C701 1.499 . S
C699 H673 0.950 1_545 S
C699 C698 1.414 . S
C699 C700 1.374 . S
C700 H674 0.950 . S
C700 C696 1.385 . S
C700 C699 1.374 . S
C701 C698 1.499 . S
C701 C702 1.373 1_545 S
C701 C703 1.389 . S
C702 H675 0.950 . S
C702 C688 1.377 . S
C702 C701 1.373 1_565 S
C703 C687 1.377 . S
C703 C701 1.389 . S
C703 C704 1.524 . S
C704 C703 1.524 . S
C704 C705 1.397 . S
C704 C709 1.363 . S
C705 H676 0.950 . S
C705 C704 1.397 . S
C705 C706 1.334 . S
C706 H677 0.950 . S
C706 C705 1.334 . S
C706 C707 1.287 . S
C707 C706 1.287 . S
C707 C708 1.524 . S
C707 H710 0.999 . S
C708 H678 0.950 . S
C708 C707 1.524 . S
C708 C709 1.415 . S
C709 H679 0.950 . S
C709 C704 1.363 . S
C709 C708 1.415 . S
H710 C707 0.999 . S
H711 C692 0.913 . S
H712 C730 0.951 . S
H713 C732 0.951 . S
H714 C734 0.950 . S
H715 C735 0.950 . S
H716 C737 0.950 . S
H717 C740 0.950 . S
H718 C741 0.950 . S
H719 C743 0.950 . S
H720 C744 0.950 . S
H721 C745 0.951 . S
H722 C747 0.951 . S
H723 C749 0.950 . S
H724 C750 0.950 . S
H725 C752 0.950 . S
H726 C755 0.950 . S
H727 C756 0.950 . S
H728 C758 0.950 . S
H729 C759 0.950 . S
C730 H712 0.951 . S
C730 C731 1.366 . S
C730 C732 1.388 . S
C731 C730 1.366 . S
C731 C735 1.385 . S
C732 H713 0.951 . S
C732 C730 1.388 . S
C732 C733 1.366 . S
C733 C732 1.366 . S
C733 C734 1.414 . S
C733 C736 1.499 . S
C734 H714 0.950 . S
C734 C733 1.414 . S
C734 C735 1.374 . S
C735 H715 0.950 . S
C735 C731 1.385 . S
C735 C734 1.374 . S
C736 C733 1.499 . S
C736 C737 1.373 . S
C736 C738 1.389 . S
C737 H716 0.950 . S
C737 C736 1.373 . S
C737 C753 1.377 1_655 S
C738 C736 1.389 . S
C738 C739 1.524 . S
C738 C752 1.377 1_655 S
C739 C738 1.524 . S
C739 C740 1.397 . S
C739 C744 1.363 . S
C740 H717 0.950 . S
C740 C739 1.397 . S
C740 C741 1.334 . S
C741 H718 0.950 . S
C741 C740 1.334 . S
C741 C742 1.287 . S
C742 C741 1.287 . S
C742 C743 1.524 . S
C742 H761 0.913 . S
C743 H719 0.950 . S
C743 C742 1.524 . S
C743 C744 1.415 . S
C744 H720 0.950 . S
C744 C739 1.363 . S
C744 C743 1.415 . S
C745 H721 0.951 . S
C745 C746 1.366 . S
C745 C747 1.388 . S
C746 C745 1.366 . S
C746 C750 1.385 . S
C747 H722 0.951 . S
C747 C745 1.388 . S
C747 C748 1.366 . S
C748 C747 1.366 . S
C748 C749 1.414 . S
C748 C751 1.499 . S
C749 H723 0.950 . S
C749 C748 1.414 . S
C749 C750 1.374 . S
C750 H724 0.950 . S
C750 C746 1.385 . S
C750 C749 1.374 . S
C751 C748 1.499 . S
C751 C752 1.373 . S
C751 C753 1.389 . S
C752 H725 0.950 . S
C752 C738 1.377 1_455 S
C752 C751 1.373 . S
C753 C737 1.377 1_455 S
C753 C751 1.389 . S
C753 C754 1.524 . S
C754 C753 1.524 . S
C754 C755 1.397 . S
C754 C759 1.363 . S
C755 H726 0.950 . S
C755 C754 1.397 . S
C755 C756 1.334 . S
C756 H727 0.950 . S
C756 C755 1.334 . S
C756 C757 1.287 . S
C757 C756 1.287 . S
C757 C758 1.524 . S
C757 H760 0.999 . S
C758 H728 0.950 . S
C758 C757 1.524 . S
C758 C759 1.415 . S
C759 H729 0.950 . S
C759 C754 1.363 . S
C759 C758 1.415 . S
H760 C757 0.999 . S
H761 C742 0.913 . S
H762 C780 0.951 . S
H763 C782 0.951 . S
H764 C784 0.950 . S
H765 C785 0.950 . S
H766 C787 0.950 . S
H767 C790 0.950 . S
H768 C791 0.950 . S
H769 C793 0.950 . S
H770 C794 0.950 . S
H771 C795 0.951 . S
H772 C797 0.951 . S
H773 C799 0.950 . S
H774 C800 0.950 . S
H775 C802 0.950 . S
H776 C805 0.950 . S
H777 C806 0.950 . S
H778 C808 0.950 . S
H779 C809 0.950 . S
C780 H762 0.951 . S
C780 C781 1.366 . S
C780 C782 1.388 . S
C781 C780 1.366 . S
C781 C785 1.385 . S
C782 H763 0.951 . S
C782 C780 1.388 . S
C782 C783 1.366 . S
C783 C782 1.366 . S
C783 C784 1.414 . S
C783 C786 1.499 . S
C784 H764 0.950 . S
C784 C783 1.414 . S
C784 C785 1.374 . S
C785 H765 0.950 . S
C785 C781 1.385 . S
C785 C784 1.374 . S
C786 C783 1.499 . S
C786 C787 1.373 . S
C786 C788 1.389 . S
C787 H766 0.950 . S
C787 C786 1.373 . S
C787 C803 1.377 . S
C788 C786 1.389 . S
C788 C789 1.524 . S
C788 C802 1.377 . S
C789 C788 1.524 . S
C789 C790 1.397 . S
C789 C794 1.363 . S
C790 H767 0.950 . S
C790 C789 1.397 . S
C790 C791 1.334 . S
C791 H768 0.950 . S
C791 C790 1.334 . S
C791 C792 1.287 . S
C792 C791 1.287 . S
C792 C793 1.524 . S
C792 H811 0.913 . S
C793 H769 0.950 . S
C793 C792 1.524 . S
C793 C794 1.415 . S
C794 H770 0.950 . S
C794 C789 1.363 . S
C794 C793 1.415 . S
C795 H771 0.951 . S
C795 C796 1.366 . S
C795 C797 1.388 . S
C796 C795 1.366 . S
C796 C800 1.385 . S
C797 H772 0.951 . S
C797 C795 1.388 . S
C797 C798 1.366 . S
C798 C797 1.366 . S
C798 C799 1.414 . S
C798 C801 1.499 . S
C799 H773 0.950 . S
C799 C798 1.414 . S
C799 C800 1.374 . S
C800 H774 0.950 . S
C800 C796 1.385 . S
C800 C799 1.374 . S
C801 C798 1.499 . S
C801 C802 1.373 . S
C801 C803 1.389 . S
C802 H775 0.950 . S
C802 C788 1.377 . S
C802 C801 1.373 . S
C803 C787 1.377 . S
C803 C801 1.389 . S
C803 C804 1.524 . S
C804 C803 1.524 . S
C804 C805 1.397 . S
C804 C809 1.363 . S
C805 H776 0.950 . S
C805 C804 1.397 . S
C805 C806 1.334 . S
C806 H777 0.950 . S
C806 C805 1.334 . S
C806 C807 1.287 . S
C807 C806 1.287 . S
C807 C808 1.524 . S
C807 H810 0.999 . S
C808 H778 0.950 . S
C808 C807 1.524 . S
C808 C809 1.415 . S
C809 H779 0.950 . S
C809 C804 1.363 . S
C809 C808 1.415 . S
H810 C807 0.999 . S
H811 C792 0.913 . S
H812 C830 0.951 . S
H813 C832 0.951 . S
H814 C834 0.950 . S
H815 C835 0.950 . S
H816 C837 0.950 . S
H817 C840 0.950 1_545 S
H818 C841 0.950 . S
H819 C843 0.950 . S
H820 C844 0.950 . S
H821 C845 0.951 . S
H822 C847 0.951 . S
H823 C849 0.950 . S
H824 C850 0.950 . S
H825 C852 0.950 . S
H826 C855 0.950 1_565 S
H827 C856 0.950 . S
H828 C858 0.950 . S
H829 C859 0.950 . S
C830 H812 0.951 . S
C830 C831 1.366 . S
C830 C832 1.388 . S
C831 C830 1.366 . S
C831 C835 1.385 . S
C832 H813 0.951 . S
C832 C830 1.388 . S
C832 C833 1.366 . S
C833 C832 1.366 . S
C833 C834 1.414 . S
C833 C836 1.499 . S
C834 H814 0.950 . S
C834 C833 1.414 . S
C834 C835 1.374 . S
C835 H815 0.950 . S
C835 C831 1.385 . S
C835 C834 1.374 . S
C836 C833 1.499 . S
C836 C837 1.373 . S
C836 C838 1.389 1_545 S
C837 H816 0.950 . S
C837 C836 1.373 . S
C837 C853 1.377 . S
C838 C836 1.389 1_565 S
C838 C839 1.524 . S
C838 C852 1.377 . S
C839 C838 1.524 . S
C839 C840 1.397 . S
C839 C844 1.363 . S
C840 H817 0.950 1_565 S
C840 C839 1.397 . S
C840 C841 1.334 . S
C841 H818 0.950 . S
C841 C840 1.334 . S
C841 C842 1.287 . S
C842 C841 1.287 . S
C842 C843 1.524 . S
C842 H861 0.913 . S
C843 H819 0.950 . S
C843 C842 1.524 . S
C843 C844 1.415 . S
C844 H820 0.950 . S
C844 C839 1.363 . S
C844 C843 1.415 . S
C845 H821 0.951 . S
C845 C846 1.366 . S
C845 C847 1.388 . S
C846 C845 1.366 . S
C846 C850 1.385 . S
C847 H822 0.951 . S
C847 C845 1.388 . S
C847 C848 1.366 . S
C848 C847 1.366 . S
C848 C849 1.414 . S
C848 C851 1.499 . S
C849 H823 0.950 . S
C849 C848 1.414 . S
C849 C850 1.374 . S
C850 H824 0.950 . S
C850 C846 1.385 . S
C850 C849 1.374 . S
C851 C848 1.499 . S
C851 C852 1.373 . S
C851 C853 1.389 1_565 S
C852 H825 0.950 . S
C852 C838 1.377 . S
C852 C851 1.373 . S
C853 C837 1.377 . S
C853 C851 1.389 1_545 S
C853 C854 1.524 . S
C854 C853 1.524 . S
C854 C855 1.397 . S
C854 C859 1.363 . S
C855 H826 0.950 1_545 S
C855 C854 1.397 . S
C855 C856 1.334 . S
C856 H827 0.950 . S
C856 C855 1.334 . S
C856 C857 1.287 . S
C857 C856 1.287 . S
C857 C858 1.524 . S
C857 H860 0.999 . S
C858 H828 0.950 . S
C858 C857 1.524 . S
C858 C859 1.415 . S
C859 H829 0.950 . S
C859 C854 1.363 . S
C859 C858 1.415 . S
H860 C857 0.999 . S
H861 C842 0.913 . S
H862 C880 0.951 . S
H863 C882 0.951 . S
H864 C884 0.950 . S
H865 C885 0.950 . S
H866 C887 0.950 . S
H867 C890 0.952 . S
H868 C891 0.950 1_565 S
H869 C893 0.950 . S
H870 C894 0.950 . S
H871 C895 0.951 . S
H872 C897 0.951 . S
H873 C899 0.950 . S
H874 C900 0.950 . S
H875 C902 0.950 . S
H876 C905 0.952 . S
H877 C906 0.950 1_545 S
H878 C908 0.950 . S
H879 C909 0.950 . S
C880 H862 0.951 . S
C880 C881 1.366 . S
C880 C882 1.388 . S
C881 C880 1.366 . S
C881 C885 1.385 . S
C882 H863 0.951 . S
C882 C880 1.388 . S
C882 C883 1.366 . S
C883 C882 1.366 . S
C883 C884 1.414 . S
C883 C886 1.499 . S
C884 H864 0.950 . S
C884 C883 1.414 . S
C884 C885 1.374 . S
C885 H865 0.950 . S
C885 C881 1.385 . S
C885 C884 1.374 . S
C886 C883 1.499 . S
C886 C887 1.373 . S
C886 C888 1.389 1_565 S
C887 H866 0.950 . S
C887 C886 1.373 . S
C887 C903 1.377 1_655 S
C888 C886 1.389 1_545 S
C888 C889 1.524 . S
C888 C902 1.377 1_655 S
C889 C888 1.524 . S
C889 C890 1.395 1_545 S
C889 C894 1.363 . S
C890 H867 0.952 . S
C890 C889 1.395 1_565 S
C890 C891 1.333 1_565 S
C891 H868 0.950 1_545 S
C891 C890 1.333 1_545 S
C891 C892 1.287 . S
C892 C891 1.287 . S
C892 C893 1.524 . S
C892 H911 0.913 . S
C893 H869 0.950 . S
C893 C892 1.524 . S
C893 C894 1.415 . S
C894 H870 0.950 . S
C894 C889 1.363 . S
C894 C893 1.415 . S
C895 H871 0.951 . S
C895 C896 1.366 . S
C895 C897 1.388 . S
C896 C895 1.366 . S
C896 C900 1.385 . S
C897 H872 0.951 . S
C897 C895 1.388 . S
C897 C898 1.366 . S
C898 C897 1.366 . S
C898 C899 1.414 . S
C898 C901 1.499 . S
C899 H873 0.950 . S
C899 C898 1.414 . S
C899 C900 1.374 . S
C900 H874 0.950 . S
C900 C896 1.385 . S
C900 C899 1.374 . S
C901 C898 1.499 . S
C901 C902 1.373 . S
C901 C903 1.389 1_545 S
C902 H875 0.950 . S
C902 C888 1.377 1_455 S
C902 C901 1.373 . S
C903 C887 1.377 1_455 S
C903 C901 1.389 1_565 S
C903 C904 1.524 . S
C904 C903 1.524 . S
C904 C905 1.395 1_565 S
C904 C909 1.363 . S
C905 H876 0.952 . S
C905 C904 1.395 1_545 S
C905 C906 1.333 1_545 S
C906 H877 0.950 1_565 S
C906 C905 1.333 1_565 S
C906 C907 1.287 . S
C907 C906 1.287 . S
C907 C908 1.524 . S
C907 H910 0.999 . S
C908 H878 0.950 . S
C908 C907 1.524 . S
C908 C909 1.415 . S
C909 H879 0.950 . S
C909 C904 1.363 . S
C909 C908 1.415 . S
H910 C907 0.999 . S
H911 C892 0.913 . S
C131 C6 1.304 . S
C146 C76 1.303 . S
C181 C23 1.179 . S
C196 C93 1.178 . S
C231 C34 1.304 . S
C246 C104 1.303 . S
C281 C51 1.178 . S
C296 C65 1.179 . S
C331 C107 1.178 . S
C346 C9 1.179 . S
C381 C62 1.304 . S
C396 C20 1.304 . S
C431 C37 1.179 . S
C446 C79 1.180 . S
C481 C90 1.304 . S
C496 C48 1.304 . S
C531 C8 1.569 . S
C546 C92 1.569 . S
C581 C105 1.645 . S
C596 C21 1.644 . S
C631 C36 1.568 . S
C646 C64 1.568 . S
C681 C49 1.645 . S
C696 C77 1.644 . S
C731 C91 1.645 . S
C746 C7 1.645 . S
C781 C106 1.569 . S
C796 C22 1.568 . S
C831 C35 1.644 . S
C846 C63 1.644 . S
C881 C50 1.568 . S
C896 C78 1.569 . S
