# Generated by pormake.
# Topology lcs-a, (4)-cn, num edge types: 1
# Building blocks:
#     Node 0, Type 0, BuildingBlock: NAHDIM_clean_sbu_0, # of connection points: 4
#     Node 1, Type 0, BuildingBlock: NAHDIM_clean_sbu_0, # of connection points: 4
#     Node 2, Type 0, BuildingBlock: NAHDIM_clean_sbu_0, # of connection points: 4
#     Node 3, Type 0, BuildingBlock: NAHDIM_clean_sbu_0, # of connection points: 4
#     Node 4, Type 0, BuildingBlock: NAHDIM_clean_sbu_0, # of connection points: 4
#     Node 5, Type 0, BuildingBlock: NAHDIM_clean_sbu_0, # of connection points: 4
#     Node 6, Type 0, BuildingBlock: NAHDIM_clean_sbu_0, # of connection points: 4
#     Node 7, Type 0, BuildingBlock: NAHDIM_clean_sbu_0, # of connection points: 4
#     Node 8, Type 0, BuildingBlock: NAHDIM_clean_sbu_0, # of connection points: 4
#     Node 9, Type 0, BuildingBlock: NAHDIM_clean_sbu_0, # of connection points: 4
#     Node 10, Type 0, BuildingBlock: NAHDIM_clean_sbu_0, # of connection points: 4
#     Node 11, Type 0, BuildingBlock: NAHDIM_clean_sbu_0, # of connection points: 4
#     Node 12, Type 0, BuildingBlock: NAHDIM_clean_sbu_0, # of connection points: 4
#     Node 13, Type 0, BuildingBlock: NAHDIM_clean_sbu_0, # of connection points: 4
#     Node 14, Type 0, BuildingBlock: NAHDIM_clean_sbu_0, # of connection points: 4
#     Node 15, Type 0, BuildingBlock: NAHDIM_clean_sbu_0, # of connection points: 4
#     Node 16, Type 0, BuildingBlock: NAHDIM_clean_sbu_0, # of connection points: 4
#     Node 17, Type 0, BuildingBlock: NAHDIM_clean_sbu_0, # of connection points: 4
#     Node 18, Type 0, BuildingBlock: NAHDIM_clean_sbu_0, # of connection points: 4
#     Node 19, Type 0, BuildingBlock: NAHDIM_clean_sbu_0, # of connection points: 4
#     Node 20, Type 0, BuildingBlock: NAHDIM_clean_sbu_0, # of connection points: 4
#     Node 21, Type 0, BuildingBlock: NAHDIM_clean_sbu_0, # of connection points: 4
#     Node 22, Type 0, BuildingBlock: NAHDIM_clean_sbu_0, # of connection points: 4
#     Node 23, Type 0, BuildingBlock: NAHDIM_clean_sbu_0, # of connection points: 4
#     Node 24, Type 0, BuildingBlock: NAHDIM_clean_sbu_0, # of connection points: 4
#     Node 25, Type 0, BuildingBlock: NAHDIM_clean_sbu_0, # of connection points: 4
#     Node 26, Type 0, BuildingBlock: NAHDIM_clean_sbu_0, # of connection points: 4
#     Node 27, Type 0, BuildingBlock: NAHDIM_clean_sbu_0, # of connection points: 4
#     Node 28, Type 0, BuildingBlock: NAHDIM_clean_sbu_0, # of connection points: 4
#     Node 29, Type 0, BuildingBlock: NAHDIM_clean_sbu_0, # of connection points: 4
#     Node 30, Type 0, BuildingBlock: NAHDIM_clean_sbu_0, # of connection points: 4
#     Node 31, Type 0, BuildingBlock: NAHDIM_clean_sbu_0, # of connection points: 4
#     Node 32, Type 0, BuildingBlock: NAHDIM_clean_sbu_0, # of connection points: 4
#     Node 33, Type 0, BuildingBlock: NAHDIM_clean_sbu_0, # of connection points: 4
#     Node 34, Type 0, BuildingBlock: NAHDIM_clean_sbu_0, # of connection points: 4
#     Node 35, Type 0, BuildingBlock: NAHDIM_clean_sbu_0, # of connection points: 4
#     Node 36, Type 0, BuildingBlock: NAHDIM_clean_sbu_0, # of connection points: 4
#     Node 37, Type 0, BuildingBlock: NAHDIM_clean_sbu_0, # of connection points: 4
#     Node 38, Type 0, BuildingBlock: NAHDIM_clean_sbu_0, # of connection points: 4
#     Node 39, Type 0, BuildingBlock: NAHDIM_clean_sbu_0, # of connection points: 4
#     Node 40, Type 0, BuildingBlock: NAHDIM_clean_sbu_0, # of connection points: 4
#     Node 41, Type 0, BuildingBlock: NAHDIM_clean_sbu_0, # of connection points: 4
#     Node 42, Type 0, BuildingBlock: NAHDIM_clean_sbu_0, # of connection points: 4
#     Node 43, Type 0, BuildingBlock: NAHDIM_clean_sbu_0, # of connection points: 4
#     Node 44, Type 0, BuildingBlock: NAHDIM_clean_sbu_0, # of connection points: 4
#     Node 45, Type 0, BuildingBlock: NAHDIM_clean_sbu_0, # of connection points: 4
#     Node 46, Type 0, BuildingBlock: NAHDIM_clean_sbu_0, # of connection points: 4
#     Node 47, Type 0, BuildingBlock: NAHDIM_clean_sbu_0, # of connection points: 4
#     Node 48, Type 0, BuildingBlock: NAHDIM_clean_sbu_0, # of connection points: 4
#     Node 49, Type 0, BuildingBlock: NAHDIM_clean_sbu_0, # of connection points: 4
#     Node 50, Type 0, BuildingBlock: NAHDIM_clean_sbu_0, # of connection points: 4
#     Node 51, Type 0, BuildingBlock: NAHDIM_clean_sbu_0, # of connection points: 4
#     Node 52, Type 0, BuildingBlock: NAHDIM_clean_sbu_0, # of connection points: 4
#     Node 53, Type 0, BuildingBlock: NAHDIM_clean_sbu_0, # of connection points: 4
#     Node 54, Type 0, BuildingBlock: NAHDIM_clean_sbu_0, # of connection points: 4
#     Node 55, Type 0, BuildingBlock: NAHDIM_clean_sbu_0, # of connection points: 4
#     Node 56, Type 0, BuildingBlock: NAHDIM_clean_sbu_0, # of connection points: 4
#     Node 57, Type 0, BuildingBlock: NAHDIM_clean_sbu_0, # of connection points: 4
#     Node 58, Type 0, BuildingBlock: NAHDIM_clean_sbu_0, # of connection points: 4
#     Node 59, Type 0, BuildingBlock: NAHDIM_clean_sbu_0, # of connection points: 4
#     Node 60, Type 0, BuildingBlock: NAHDIM_clean_sbu_0, # of connection points: 4
#     Node 61, Type 0, BuildingBlock: NAHDIM_clean_sbu_0, # of connection points: 4
#     Node 62, Type 0, BuildingBlock: NAHDIM_clean_sbu_0, # of connection points: 4
#     Node 63, Type 0, BuildingBlock: NAHDIM_clean_sbu_0, # of connection points: 4
#     Node 64, Type 0, BuildingBlock: NAHDIM_clean_sbu_0, # of connection points: 4
#     Node 65, Type 0, BuildingBlock: NAHDIM_clean_sbu_0, # of connection points: 4
#     Node 66, Type 0, BuildingBlock: NAHDIM_clean_sbu_0, # of connection points: 4
#     Node 67, Type 0, BuildingBlock: NAHDIM_clean_sbu_0, # of connection points: 4
#     Node 68, Type 0, BuildingBlock: NAHDIM_clean_sbu_0, # of connection points: 4
#     Node 69, Type 0, BuildingBlock: NAHDIM_clean_sbu_0, # of connection points: 4
#     Node 70, Type 0, BuildingBlock: NAHDIM_clean_sbu_0, # of connection points: 4
#     Node 71, Type 0, BuildingBlock: NAHDIM_clean_sbu_0, # of connection points: 4
#     Node 72, Type 0, BuildingBlock: NAHDIM_clean_sbu_0, # of connection points: 4
#     Node 73, Type 0, BuildingBlock: NAHDIM_clean_sbu_0, # of connection points: 4
#     Node 74, Type 0, BuildingBlock: NAHDIM_clean_sbu_0, # of connection points: 4
#     Node 75, Type 0, BuildingBlock: NAHDIM_clean_sbu_0, # of connection points: 4
#     Node 76, Type 0, BuildingBlock: NAHDIM_clean_sbu_0, # of connection points: 4
#     Node 77, Type 0, BuildingBlock: NAHDIM_clean_sbu_0, # of connection points: 4
#     Node 78, Type 0, BuildingBlock: NAHDIM_clean_sbu_0, # of connection points: 4
#     Node 79, Type 0, BuildingBlock: NAHDIM_clean_sbu_0, # of connection points: 4
#     Node 80, Type 0, BuildingBlock: NAHDIM_clean_sbu_0, # of connection points: 4
#     Node 81, Type 0, BuildingBlock: NAHDIM_clean_sbu_0, # of connection points: 4
#     Node 82, Type 0, BuildingBlock: NAHDIM_clean_sbu_0, # of connection points: 4
#     Node 83, Type 0, BuildingBlock: NAHDIM_clean_sbu_0, # of connection points: 4
#     Node 84, Type 0, BuildingBlock: NAHDIM_clean_sbu_0, # of connection points: 4
#     Node 85, Type 0, BuildingBlock: NAHDIM_clean_sbu_0, # of connection points: 4
#     Node 86, Type 0, BuildingBlock: NAHDIM_clean_sbu_0, # of connection points: 4
#     Node 87, Type 0, BuildingBlock: NAHDIM_clean_sbu_0, # of connection points: 4
#     Node 88, Type 0, BuildingBlock: NAHDIM_clean_sbu_0, # of connection points: 4
#     Node 89, Type 0, BuildingBlock: NAHDIM_clean_sbu_0, # of connection points: 4
#     Node 90, Type 0, BuildingBlock: NAHDIM_clean_sbu_0, # of connection points: 4
#     Node 91, Type 0, BuildingBlock: NAHDIM_clean_sbu_0, # of connection points: 4
#     Node 92, Type 0, BuildingBlock: NAHDIM_clean_sbu_0, # of connection points: 4
#     Node 93, Type 0, BuildingBlock: NAHDIM_clean_sbu_0, # of connection points: 4
#     Node 94, Type 0, BuildingBlock: NAHDIM_clean_sbu_0, # of connection points: 4
#     Node 95, Type 0, BuildingBlock: NAHDIM_clean_sbu_0, # of connection points: 4
#     Edge 96, Type (0, 0), BuildingBlock: AJUNOK_clean_linker_0, # of connection points: 2
#     Edge 97, Type (0, 0), BuildingBlock: AJUNOK_clean_linker_0, # of connection points: 2
#     Edge 98, Type (0, 0), BuildingBlock: AJUNOK_clean_linker_0, # of connection points: 2
#     Edge 99, Type (0, 0), BuildingBlock: AJUNOK_clean_linker_0, # of connection points: 2
#     Edge 100, Type (0, 0), BuildingBlock: AJUNOK_clean_linker_0, # of connection points: 2
#     Edge 101, Type (0, 0), BuildingBlock: AJUNOK_clean_linker_0, # of connection points: 2
#     Edge 102, Type (0, 0), BuildingBlock: AJUNOK_clean_linker_0, # of connection points: 2
#     Edge 103, Type (0, 0), BuildingBlock: AJUNOK_clean_linker_0, # of connection points: 2
#     Edge 104, Type (0, 0), BuildingBlock: AJUNOK_clean_linker_0, # of connection points: 2
#     Edge 105, Type (0, 0), BuildingBlock: AJUNOK_clean_linker_0, # of connection points: 2
#     Edge 106, Type (0, 0), BuildingBlock: AJUNOK_clean_linker_0, # of connection points: 2
#     Edge 107, Type (0, 0), BuildingBlock: AJUNOK_clean_linker_0, # of connection points: 2
#     Edge 108, Type (0, 0), BuildingBlock: AJUNOK_clean_linker_0, # of connection points: 2
#     Edge 109, Type (0, 0), BuildingBlock: AJUNOK_clean_linker_0, # of connection points: 2
#     Edge 110, Type (0, 0), BuildingBlock: AJUNOK_clean_linker_0, # of connection points: 2
#     Edge 111, Type (0, 0), BuildingBlock: AJUNOK_clean_linker_0, # of connection points: 2
#     Edge 112, Type (0, 0), BuildingBlock: AJUNOK_clean_linker_0, # of connection points: 2
#     Edge 113, Type (0, 0), BuildingBlock: AJUNOK_clean_linker_0, # of connection points: 2
#     Edge 114, Type (0, 0), BuildingBlock: AJUNOK_clean_linker_0, # of connection points: 2
#     Edge 115, Type (0, 0), BuildingBlock: AJUNOK_clean_linker_0, # of connection points: 2
#     Edge 116, Type (0, 0), BuildingBlock: AJUNOK_clean_linker_0, # of connection points: 2
#     Edge 117, Type (0, 0), BuildingBlock: AJUNOK_clean_linker_0, # of connection points: 2
#     Edge 118, Type (0, 0), BuildingBlock: AJUNOK_clean_linker_0, # of connection points: 2
#     Edge 119, Type (0, 0), BuildingBlock: AJUNOK_clean_linker_0, # of connection points: 2
#     Edge 120, Type (0, 0), BuildingBlock: AJUNOK_clean_linker_0, # of connection points: 2
#     Edge 121, Type (0, 0), BuildingBlock: AJUNOK_clean_linker_0, # of connection points: 2
#     Edge 122, Type (0, 0), BuildingBlock: AJUNOK_clean_linker_0, # of connection points: 2
#     Edge 123, Type (0, 0), BuildingBlock: AJUNOK_clean_linker_0, # of connection points: 2
#     Edge 124, Type (0, 0), BuildingBlock: AJUNOK_clean_linker_0, # of connection points: 2
#     Edge 125, Type (0, 0), BuildingBlock: AJUNOK_clean_linker_0, # of connection points: 2
#     Edge 126, Type (0, 0), BuildingBlock: AJUNOK_clean_linker_0, # of connection points: 2
#     Edge 127, Type (0, 0), BuildingBlock: AJUNOK_clean_linker_0, # of connection points: 2
#     Edge 128, Type (0, 0), BuildingBlock: AJUNOK_clean_linker_0, # of connection points: 2
#     Edge 129, Type (0, 0), BuildingBlock: AJUNOK_clean_linker_0, # of connection points: 2
#     Edge 130, Type (0, 0), BuildingBlock: AJUNOK_clean_linker_0, # of connection points: 2
#     Edge 131, Type (0, 0), BuildingBlock: AJUNOK_clean_linker_0, # of connection points: 2
#     Edge 132, Type (0, 0), BuildingBlock: AJUNOK_clean_linker_0, # of connection points: 2
#     Edge 133, Type (0, 0), BuildingBlock: AJUNOK_clean_linker_0, # of connection points: 2
#     Edge 134, Type (0, 0), BuildingBlock: AJUNOK_clean_linker_0, # of connection points: 2
#     Edge 135, Type (0, 0), BuildingBlock: AJUNOK_clean_linker_0, # of connection points: 2
#     Edge 136, Type (0, 0), BuildingBlock: AJUNOK_clean_linker_0, # of connection points: 2
#     Edge 137, Type (0, 0), BuildingBlock: AJUNOK_clean_linker_0, # of connection points: 2
#     Edge 138, Type (0, 0), BuildingBlock: AJUNOK_clean_linker_0, # of connection points: 2
#     Edge 139, Type (0, 0), BuildingBlock: AJUNOK_clean_linker_0, # of connection points: 2
#     Edge 140, Type (0, 0), BuildingBlock: AJUNOK_clean_linker_0, # of connection points: 2
#     Edge 141, Type (0, 0), BuildingBlock: AJUNOK_clean_linker_0, # of connection points: 2
#     Edge 142, Type (0, 0), BuildingBlock: AJUNOK_clean_linker_0, # of connection points: 2
#     Edge 143, Type (0, 0), BuildingBlock: AJUNOK_clean_linker_0, # of connection points: 2
#     Edge 144, Type (0, 0), BuildingBlock: AJUNOK_clean_linker_0, # of connection points: 2
#     Edge 145, Type (0, 0), BuildingBlock: AJUNOK_clean_linker_0, # of connection points: 2
#     Edge 146, Type (0, 0), BuildingBlock: AJUNOK_clean_linker_0, # of connection points: 2
#     Edge 147, Type (0, 0), BuildingBlock: AJUNOK_clean_linker_0, # of connection points: 2
#     Edge 148, Type (0, 0), BuildingBlock: AJUNOK_clean_linker_0, # of connection points: 2
#     Edge 149, Type (0, 0), BuildingBlock: AJUNOK_clean_linker_0, # of connection points: 2
#     Edge 150, Type (0, 0), BuildingBlock: AJUNOK_clean_linker_0, # of connection points: 2
#     Edge 151, Type (0, 0), BuildingBlock: AJUNOK_clean_linker_0, # of connection points: 2
#     Edge 152, Type (0, 0), BuildingBlock: AJUNOK_clean_linker_0, # of connection points: 2
#     Edge 153, Type (0, 0), BuildingBlock: AJUNOK_clean_linker_0, # of connection points: 2
#     Edge 154, Type (0, 0), BuildingBlock: AJUNOK_clean_linker_0, # of connection points: 2
#     Edge 155, Type (0, 0), BuildingBlock: AJUNOK_clean_linker_0, # of connection points: 2
#     Edge 156, Type (0, 0), BuildingBlock: AJUNOK_clean_linker_0, # of connection points: 2
#     Edge 157, Type (0, 0), BuildingBlock: AJUNOK_clean_linker_0, # of connection points: 2
#     Edge 158, Type (0, 0), BuildingBlock: AJUNOK_clean_linker_0, # of connection points: 2
#     Edge 159, Type (0, 0), BuildingBlock: AJUNOK_clean_linker_0, # of connection points: 2
#     Edge 160, Type (0, 0), BuildingBlock: AJUNOK_clean_linker_0, # of connection points: 2
#     Edge 161, Type (0, 0), BuildingBlock: AJUNOK_clean_linker_0, # of connection points: 2
#     Edge 162, Type (0, 0), BuildingBlock: AJUNOK_clean_linker_0, # of connection points: 2
#     Edge 163, Type (0, 0), BuildingBlock: AJUNOK_clean_linker_0, # of connection points: 2
#     Edge 164, Type (0, 0), BuildingBlock: AJUNOK_clean_linker_0, # of connection points: 2
#     Edge 165, Type (0, 0), BuildingBlock: AJUNOK_clean_linker_0, # of connection points: 2
#     Edge 166, Type (0, 0), BuildingBlock: AJUNOK_clean_linker_0, # of connection points: 2
#     Edge 167, Type (0, 0), BuildingBlock: AJUNOK_clean_linker_0, # of connection points: 2
#     Edge 168, Type (0, 0), BuildingBlock: AJUNOK_clean_linker_0, # of connection points: 2
#     Edge 169, Type (0, 0), BuildingBlock: AJUNOK_clean_linker_0, # of connection points: 2
#     Edge 170, Type (0, 0), BuildingBlock: AJUNOK_clean_linker_0, # of connection points: 2
#     Edge 171, Type (0, 0), BuildingBlock: AJUNOK_clean_linker_0, # of connection points: 2
#     Edge 172, Type (0, 0), BuildingBlock: AJUNOK_clean_linker_0, # of connection points: 2
#     Edge 173, Type (0, 0), BuildingBlock: AJUNOK_clean_linker_0, # of connection points: 2
#     Edge 174, Type (0, 0), BuildingBlock: AJUNOK_clean_linker_0, # of connection points: 2
#     Edge 175, Type (0, 0), BuildingBlock: AJUNOK_clean_linker_0, # of connection points: 2
#     Edge 176, Type (0, 0), BuildingBlock: AJUNOK_clean_linker_0, # of connection points: 2
#     Edge 177, Type (0, 0), BuildingBlock: AJUNOK_clean_linker_0, # of connection points: 2
#     Edge 178, Type (0, 0), BuildingBlock: AJUNOK_clean_linker_0, # of connection points: 2
#     Edge 179, Type (0, 0), BuildingBlock: AJUNOK_clean_linker_0, # of connection points: 2
#     Edge 180, Type (0, 0), BuildingBlock: AJUNOK_clean_linker_0, # of connection points: 2
#     Edge 181, Type (0, 0), BuildingBlock: AJUNOK_clean_linker_0, # of connection points: 2
#     Edge 182, Type (0, 0), BuildingBlock: AJUNOK_clean_linker_0, # of connection points: 2
#     Edge 183, Type (0, 0), BuildingBlock: AJUNOK_clean_linker_0, # of connection points: 2
#     Edge 184, Type (0, 0), BuildingBlock: AJUNOK_clean_linker_0, # of connection points: 2
#     Edge 185, Type (0, 0), BuildingBlock: AJUNOK_clean_linker_0, # of connection points: 2
#     Edge 186, Type (0, 0), BuildingBlock: AJUNOK_clean_linker_0, # of connection points: 2
#     Edge 187, Type (0, 0), BuildingBlock: AJUNOK_clean_linker_0, # of connection points: 2
#     Edge 188, Type (0, 0), BuildingBlock: AJUNOK_clean_linker_0, # of connection points: 2
#     Edge 189, Type (0, 0), BuildingBlock: AJUNOK_clean_linker_0, # of connection points: 2
#     Edge 190, Type (0, 0), BuildingBlock: AJUNOK_clean_linker_0, # of connection points: 2
#     Edge 191, Type (0, 0), BuildingBlock: AJUNOK_clean_linker_0, # of connection points: 2
#     Edge 192, Type (0, 0), BuildingBlock: AJUNOK_clean_linker_0, # of connection points: 2
#     Edge 193, Type (0, 0), BuildingBlock: AJUNOK_clean_linker_0, # of connection points: 2
#     Edge 194, Type (0, 0), BuildingBlock: AJUNOK_clean_linker_0, # of connection points: 2
#     Edge 195, Type (0, 0), BuildingBlock: AJUNOK_clean_linker_0, # of connection points: 2
#     Edge 196, Type (0, 0), BuildingBlock: AJUNOK_clean_linker_0, # of connection points: 2
#     Edge 197, Type (0, 0), BuildingBlock: AJUNOK_clean_linker_0, # of connection points: 2
#     Edge 198, Type (0, 0), BuildingBlock: AJUNOK_clean_linker_0, # of connection points: 2
#     Edge 199, Type (0, 0), BuildingBlock: AJUNOK_clean_linker_0, # of connection points: 2
#     Edge 200, Type (0, 0), BuildingBlock: AJUNOK_clean_linker_0, # of connection points: 2
#     Edge 201, Type (0, 0), BuildingBlock: AJUNOK_clean_linker_0, # of connection points: 2
#     Edge 202, Type (0, 0), BuildingBlock: AJUNOK_clean_linker_0, # of connection points: 2
#     Edge 203, Type (0, 0), BuildingBlock: AJUNOK_clean_linker_0, # of connection points: 2
#     Edge 204, Type (0, 0), BuildingBlock: AJUNOK_clean_linker_0, # of connection points: 2
#     Edge 205, Type (0, 0), BuildingBlock: AJUNOK_clean_linker_0, # of connection points: 2
#     Edge 206, Type (0, 0), BuildingBlock: AJUNOK_clean_linker_0, # of connection points: 2
#     Edge 207, Type (0, 0), BuildingBlock: AJUNOK_clean_linker_0, # of connection points: 2
#     Edge 208, Type (0, 0), BuildingBlock: AJUNOK_clean_linker_0, # of connection points: 2
#     Edge 209, Type (0, 0), BuildingBlock: AJUNOK_clean_linker_0, # of connection points: 2
#     Edge 210, Type (0, 0), BuildingBlock: AJUNOK_clean_linker_0, # of connection points: 2
#     Edge 211, Type (0, 0), BuildingBlock: AJUNOK_clean_linker_0, # of connection points: 2
#     Edge 212, Type (0, 0), BuildingBlock: AJUNOK_clean_linker_0, # of connection points: 2
#     Edge 213, Type (0, 0), BuildingBlock: AJUNOK_clean_linker_0, # of connection points: 2
#     Edge 214, Type (0, 0), BuildingBlock: AJUNOK_clean_linker_0, # of connection points: 2
#     Edge 215, Type (0, 0), BuildingBlock: AJUNOK_clean_linker_0, # of connection points: 2
#     Edge 216, Type (0, 0), BuildingBlock: AJUNOK_clean_linker_0, # of connection points: 2
#     Edge 217, Type (0, 0), BuildingBlock: AJUNOK_clean_linker_0, # of connection points: 2
#     Edge 218, Type (0, 0), BuildingBlock: AJUNOK_clean_linker_0, # of connection points: 2
#     Edge 219, Type (0, 0), BuildingBlock: AJUNOK_clean_linker_0, # of connection points: 2
#     Edge 220, Type (0, 0), BuildingBlock: AJUNOK_clean_linker_0, # of connection points: 2
#     Edge 221, Type (0, 0), BuildingBlock: AJUNOK_clean_linker_0, # of connection points: 2
#     Edge 222, Type (0, 0), BuildingBlock: AJUNOK_clean_linker_0, # of connection points: 2
#     Edge 223, Type (0, 0), BuildingBlock: AJUNOK_clean_linker_0, # of connection points: 2
#     Edge 224, Type (0, 0), BuildingBlock: AJUNOK_clean_linker_0, # of connection points: 2
#     Edge 225, Type (0, 0), BuildingBlock: AJUNOK_clean_linker_0, # of connection points: 2
#     Edge 226, Type (0, 0), BuildingBlock: AJUNOK_clean_linker_0, # of connection points: 2
#     Edge 227, Type (0, 0), BuildingBlock: AJUNOK_clean_linker_0, # of connection points: 2
#     Edge 228, Type (0, 0), BuildingBlock: AJUNOK_clean_linker_0, # of connection points: 2
#     Edge 229, Type (0, 0), BuildingBlock: AJUNOK_clean_linker_0, # of connection points: 2
#     Edge 230, Type (0, 0), BuildingBlock: AJUNOK_clean_linker_0, # of connection points: 2
#     Edge 231, Type (0, 0), BuildingBlock: AJUNOK_clean_linker_0, # of connection points: 2
#     Edge 232, Type (0, 0), BuildingBlock: AJUNOK_clean_linker_0, # of connection points: 2
#     Edge 233, Type (0, 0), BuildingBlock: AJUNOK_clean_linker_0, # of connection points: 2
#     Edge 234, Type (0, 0), BuildingBlock: AJUNOK_clean_linker_0, # of connection points: 2
#     Edge 235, Type (0, 0), BuildingBlock: AJUNOK_clean_linker_0, # of connection points: 2
#     Edge 236, Type (0, 0), BuildingBlock: AJUNOK_clean_linker_0, # of connection points: 2
#     Edge 237, Type (0, 0), BuildingBlock: AJUNOK_clean_linker_0, # of connection points: 2
#     Edge 238, Type (0, 0), BuildingBlock: AJUNOK_clean_linker_0, # of connection points: 2
#     Edge 239, Type (0, 0), BuildingBlock: AJUNOK_clean_linker_0, # of connection points: 2
#     Edge 240, Type (0, 0), BuildingBlock: AJUNOK_clean_linker_0, # of connection points: 2
#     Edge 241, Type (0, 0), BuildingBlock: AJUNOK_clean_linker_0, # of connection points: 2
#     Edge 242, Type (0, 0), BuildingBlock: AJUNOK_clean_linker_0, # of connection points: 2
#     Edge 243, Type (0, 0), BuildingBlock: AJUNOK_clean_linker_0, # of connection points: 2
#     Edge 244, Type (0, 0), BuildingBlock: AJUNOK_clean_linker_0, # of connection points: 2
#     Edge 245, Type (0, 0), BuildingBlock: AJUNOK_clean_linker_0, # of connection points: 2
#     Edge 246, Type (0, 0), BuildingBlock: AJUNOK_clean_linker_0, # of connection points: 2
#     Edge 247, Type (0, 0), BuildingBlock: AJUNOK_clean_linker_0, # of connection points: 2
#     Edge 248, Type (0, 0), BuildingBlock: AJUNOK_clean_linker_0, # of connection points: 2
#     Edge 249, Type (0, 0), BuildingBlock: AJUNOK_clean_linker_0, # of connection points: 2
#     Edge 250, Type (0, 0), BuildingBlock: AJUNOK_clean_linker_0, # of connection points: 2
#     Edge 251, Type (0, 0), BuildingBlock: AJUNOK_clean_linker_0, # of connection points: 2
#     Edge 252, Type (0, 0), BuildingBlock: AJUNOK_clean_linker_0, # of connection points: 2
#     Edge 253, Type (0, 0), BuildingBlock: AJUNOK_clean_linker_0, # of connection points: 2
#     Edge 254, Type (0, 0), BuildingBlock: AJUNOK_clean_linker_0, # of connection points: 2
#     Edge 255, Type (0, 0), BuildingBlock: AJUNOK_clean_linker_0, # of connection points: 2
#     Edge 256, Type (0, 0), BuildingBlock: AJUNOK_clean_linker_0, # of connection points: 2
#     Edge 257, Type (0, 0), BuildingBlock: AJUNOK_clean_linker_0, # of connection points: 2
#     Edge 258, Type (0, 0), BuildingBlock: AJUNOK_clean_linker_0, # of connection points: 2
#     Edge 259, Type (0, 0), BuildingBlock: AJUNOK_clean_linker_0, # of connection points: 2
#     Edge 260, Type (0, 0), BuildingBlock: AJUNOK_clean_linker_0, # of connection points: 2
#     Edge 261, Type (0, 0), BuildingBlock: AJUNOK_clean_linker_0, # of connection points: 2
#     Edge 262, Type (0, 0), BuildingBlock: AJUNOK_clean_linker_0, # of connection points: 2
#     Edge 263, Type (0, 0), BuildingBlock: AJUNOK_clean_linker_0, # of connection points: 2
#     Edge 264, Type (0, 0), BuildingBlock: AJUNOK_clean_linker_0, # of connection points: 2
#     Edge 265, Type (0, 0), BuildingBlock: AJUNOK_clean_linker_0, # of connection points: 2
#     Edge 266, Type (0, 0), BuildingBlock: AJUNOK_clean_linker_0, # of connection points: 2
#     Edge 267, Type (0, 0), BuildingBlock: AJUNOK_clean_linker_0, # of connection points: 2
#     Edge 268, Type (0, 0), BuildingBlock: AJUNOK_clean_linker_0, # of connection points: 2
#     Edge 269, Type (0, 0), BuildingBlock: AJUNOK_clean_linker_0, # of connection points: 2
#     Edge 270, Type (0, 0), BuildingBlock: AJUNOK_clean_linker_0, # of connection points: 2
#     Edge 271, Type (0, 0), BuildingBlock: AJUNOK_clean_linker_0, # of connection points: 2
#     Edge 272, Type (0, 0), BuildingBlock: AJUNOK_clean_linker_0, # of connection points: 2
#     Edge 273, Type (0, 0), BuildingBlock: AJUNOK_clean_linker_0, # of connection points: 2
#     Edge 274, Type (0, 0), BuildingBlock: AJUNOK_clean_linker_0, # of connection points: 2
#     Edge 275, Type (0, 0), BuildingBlock: AJUNOK_clean_linker_0, # of connection points: 2
#     Edge 276, Type (0, 0), BuildingBlock: AJUNOK_clean_linker_0, # of connection points: 2
#     Edge 277, Type (0, 0), BuildingBlock: AJUNOK_clean_linker_0, # of connection points: 2
#     Edge 278, Type (0, 0), BuildingBlock: AJUNOK_clean_linker_0, # of connection points: 2
#     Edge 279, Type (0, 0), BuildingBlock: AJUNOK_clean_linker_0, # of connection points: 2
#     Edge 280, Type (0, 0), BuildingBlock: AJUNOK_clean_linker_0, # of connection points: 2
#     Edge 281, Type (0, 0), BuildingBlock: AJUNOK_clean_linker_0, # of connection points: 2
#     Edge 282, Type (0, 0), BuildingBlock: AJUNOK_clean_linker_0, # of connection points: 2
#     Edge 283, Type (0, 0), BuildingBlock: AJUNOK_clean_linker_0, # of connection points: 2
#     Edge 284, Type (0, 0), BuildingBlock: AJUNOK_clean_linker_0, # of connection points: 2
#     Edge 285, Type (0, 0), BuildingBlock: AJUNOK_clean_linker_0, # of connection points: 2
#     Edge 286, Type (0, 0), BuildingBlock: AJUNOK_clean_linker_0, # of connection points: 2
#     Edge 287, Type (0, 0), BuildingBlock: AJUNOK_clean_linker_0, # of connection points: 2
# Relax obj value: 0.791
# Max RMSD: 0.300
# Mean RMSD: 0.293
data_MOF--net-lcs-a--node1-NAHDIM_clean_sbu_0--edge1-AJUNOK_clean_linker_0
_symmetry_space_group_name_H-M    P1
_symmetry_Int_Tables_number       1
_symmetry_cell_setting            triclinic
loop_
_symmetry_equiv_pos_as_xyz
'x, y, z'
_cell_length_a     68.564943
_cell_length_b     68.598547
_cell_length_c     68.643241
_cell_angle_alpha  90.050172
_cell_angle_beta   89.996242
_cell_angle_gamma 90.021387
loop_
_atom_site_label
_atom_site_type_symbol
_atom_site_fract_x
_atom_site_fract_y
_atom_site_fract_z
_atom_type_partial_charge
C0 C 0.07161 0.32909 0.31442 0.0
O1 O 0.07766 0.32085 0.33057 0.0
O2 O 0.06046 0.27835 0.32941 0.0
Zn3 Zn 0.04393 0.29919 0.31721 0.0
O4 O 0.02929 0.31213 0.3391 0.0
C5 C 0.02898 0.26996 0.29117 0.0
O6 O 0.04716 0.26397 0.29184 0.0
O7 O 0.05879 0.3204 0.30428 0.0
C8 C 0.01301 0.32085 0.33782 0.0
O9 O 0.00399 0.32154 0.32095 0.0
C10 C 0.06449 0.27901 0.34747 0.0
O11 O 0.06053 0.29499 0.35724 0.0
O12 O 0.02452 0.28583 0.29966 0.0
C13 C 0.91533 0.8202 0.5664 0.0
O14 O 0.92482 0.82218 0.5829 0.0
O15 O 0.96291 0.80095 0.58034 0.0
Zn16 Zn 0.94164 0.7905 0.56307 0.0
O17 O 0.92548 0.77572 0.58259 0.0
C18 C 0.97018 0.77686 0.53606 0.0
O19 O 0.97698 0.79448 0.53927 0.0
O20 O 0.92302 0.8101 0.5529 0.0
C21 C 0.91987 0.75812 0.58247 0.0
O22 O 0.92369 0.74719 0.56721 0.0
C23 C 0.97016 0.78635 0.58915 0.0
O24 O 0.96505 0.7687 0.58372 0.0
O25 O 0.95368 0.77235 0.54323 0.0
C26 C 0.41643 0.66463 0.81541 0.0
O27 O 0.41122 0.6737 0.83142 0.0
O28 O 0.43068 0.71866 0.82504 0.0
Zn29 Zn 0.44373 0.69474 0.81432 0.0
O30 O 0.45776 0.68269 0.83697 0.0
C31 C 0.46298 0.71955 0.78653 0.0
O32 O 0.44592 0.72827 0.78617 0.0
O33 O 0.42714 0.67363 0.80331 0.0
C34 C 0.47226 0.67129 0.83533 0.0
O35 O 0.47848 0.66651 0.81787 0.0
C36 C 0.42723 0.71936 0.84321 0.0
O37 O 0.42677 0.70305 0.85318 0.0
O38 O 0.46467 0.70377 0.79604 0.0
C39 C 0.5796 0.17006 0.06464 0.0
O40 O 0.57007 0.16497 0.08045 0.0
O41 O 0.5297 0.18396 0.07887 0.0
Zn42 Zn 0.55189 0.19772 0.06573 0.0
O43 O 0.56722 0.20952 0.08795 0.0
C44 C 0.52496 0.21732 0.04038 0.0
O45 O 0.51721 0.19982 0.03945 0.0
O46 O 0.57074 0.18056 0.05227 0.0
C47 C 0.57903 0.22374 0.0869 0.0
O48 O 0.5826 0.2317 0.06988 0.0
C49 C 0.52191 0.19594 0.09066 0.0
O50 O 0.52819 0.21404 0.09104 0.0
O51 O 0.541 0.21946 0.0494 0.0
C52 C 0.07143 0.66365 0.18136 0.0
O53 O 0.08095 0.673 0.16766 0.0
O54 O 0.06403 0.71556 0.16619 0.0
Zn55 Zn 0.04593 0.69537 0.17762 0.0
O56 O 0.0317 0.68381 0.15478 0.0
C57 C 0.02973 0.72445 0.20347 0.0
O58 O 0.04772 0.73103 0.2035 0.0
O59 O 0.05817 0.67259 0.19062 0.0
C60 C 0.01887 0.67049 0.15558 0.0
O61 O 0.01305 0.66393 0.1726 0.0
C62 C 0.06919 0.71361 0.14849 0.0
O63 O 0.06575 0.69694 0.13974 0.0
O64 O 0.02599 0.70869 0.19444 0.0
C65 C 0.58177 0.82181 0.42906 0.0
O66 O 0.5739 0.82629 0.41219 0.0
O67 O 0.53049 0.81016 0.41406 0.0
Zn68 Zn 0.55229 0.79576 0.42717 0.0
O69 O 0.56724 0.7841 0.40469 0.0
C70 C 0.52503 0.77546 0.45186 0.0
O71 O 0.517 0.79281 0.45308 0.0
O72 O 0.57172 0.81192 0.44103 0.0
C73 C 0.57852 0.76945 0.40528 0.0
O74 O 0.58179 0.76085 0.42205 0.0
C75 C 0.52255 0.79815 0.40239 0.0
O76 O 0.52802 0.7798 0.40273 0.0
O77 O 0.54119 0.77376 0.44297 0.0
C78 C 0.42342 0.3286 0.6847 0.0
O79 O 0.41507 0.3187 0.67061 0.0
O80 O 0.43536 0.27847 0.66932 0.0
Zn81 Zn 0.44949 0.2978 0.68653 0.0
O82 O 0.46836 0.31126 0.66871 0.0
C83 C 0.461 0.26595 0.71102 0.0
O84 O 0.444 0.25905 0.70553 0.0
O85 O 0.43342 0.31943 0.69726 0.0
C86 C 0.48141 0.3011 0.66045 0.0
O87 O 0.48329 0.28273 0.66555 0.0
C88 C 0.43417 0.28172 0.6511 0.0
O89 O 0.43913 0.29898 0.64449 0.0
O90 O 0.46541 0.28334 0.7064 0.0
C91 C 0.91432 0.17237 0.92655 0.0
O92 O 0.92383 0.17112 0.90997 0.0
O93 O 0.96486 0.18535 0.91658 0.0
Zn94 Zn 0.94325 0.1986 0.93121 0.0
O95 O 0.92941 0.21422 0.91059 0.0
C96 C 0.97125 0.21065 0.95879 0.0
O97 O 0.976 0.19217 0.95713 0.0
O98 O 0.92268 0.18076 0.94079 0.0
C99 C 0.92492 0.23216 0.91045 0.0
O100 O 0.92929 0.24314 0.92553 0.0
C101 C 0.97455 0.19817 0.90736 0.0
O102 O 0.97 0.21663 0.90965 0.0
O103 O 0.95545 0.21642 0.95103 0.0
C104 C 0.31429 0.07688 0.33099 0.0
O105 O 0.32882 0.08395 0.32077 0.0
O106 O 0.32512 0.06391 0.27845 0.0
Zn107 Zn 0.31426 0.04989 0.30161 0.0
O108 O 0.33724 0.03674 0.31423 0.0
C109 C 0.28756 0.03147 0.2754 0.0
O110 O 0.28691 0.04913 0.26802 0.0
O111 O 0.30212 0.06588 0.32242 0.0
C112 C 0.3362 0.022 0.32535 0.0
O113 O 0.31908 0.01424 0.32908 0.0
C114 C 0.34331 0.06732 0.27783 0.0
O115 O 0.35333 0.06776 0.29411 0.0
O116 O 0.29686 0.02879 0.29119 0.0
C117 C 0.17416 0.06501 0.58357 0.0
O118 O 0.16659 0.08035 0.57505 0.0
O119 O 0.18024 0.07636 0.52972 0.0
Zn120 Zn 0.19801 0.06621 0.5508 0.0
O121 O 0.21202 0.08959 0.56169 0.0
C122 C 0.21444 0.03906 0.5232 0.0
O123 O 0.19655 0.03893 0.51633 0.0
O124 O 0.18542 0.05405 0.57383 0.0
C125 C 0.22505 0.08926 0.57484 0.0
O126 O 0.23126 0.07246 0.58158 0.0
C127 C 0.17526 0.09421 0.53024 0.0
O128 O 0.17865 0.10421 0.54619 0.0
O129 O 0.21809 0.0488 0.53853 0.0
C130 C 0.17911 0.92339 0.83019 0.0
O131 O 0.16242 0.92249 0.82081 0.0
O132 O 0.17149 0.93026 0.77761 0.0
Zn133 Zn 0.1863 0.94516 0.79812 0.0
O134 O 0.16586 0.96338 0.80896 0.0
C135 C 0.21514 0.9566 0.76992 0.0
O136 O 0.21213 0.93895 0.76311 0.0
O137 O 0.19399 0.92959 0.82108 0.0
C138 C 0.16425 0.98145 0.80541 0.0
O139 O 0.17747 0.9902 0.79466 0.0
C140 C 0.16433 0.94203 0.76526 0.0
O141 O 0.16928 0.96049 0.76609 0.0
O142 O 0.20766 0.96121 0.78621 0.0
C143 C 0.32287 0.92038 0.08367 0.0
O144 O 0.32741 0.90436 0.07428 0.0
O145 O 0.31412 0.91493 0.02794 0.0
Zn146 Zn 0.29942 0.92424 0.05144 0.0
O147 O 0.28482 0.90095 0.06148 0.0
C148 C 0.2816 0.95293 0.02657 0.0
O149 O 0.29915 0.9536 0.01891 0.0
O150 O 0.31438 0.93393 0.07435 0.0
C151 C 0.27114 0.90236 0.07386 0.0
O152 O 0.26611 0.91964 0.08041 0.0
C153 C 0.31731 0.89678 0.02611 0.0
O154 O 0.31665 0.8856 0.0416 0.0
O155 O 0.27898 0.94293 0.04193 0.0
C156 C 0.30783 0.91993 0.16673 0.0
O157 O 0.31881 0.90909 0.17803 0.0
O158 O 0.32971 0.93382 0.21348 0.0
Zn159 Zn 0.31522 0.94986 0.19367 0.0
O160 O 0.33666 0.96356 0.17887 0.0
C161 C 0.29133 0.96565 0.2241 0.0
O162 O 0.29207 0.94754 0.23026 0.0
O163 O 0.30018 0.93523 0.17375 0.0
C164 C 0.33582 0.97799 0.16734 0.0
O165 O 0.31902 0.98664 0.16423 0.0
C166 C 0.34705 0.92903 0.20903 0.0
O167 O 0.35212 0.92885 0.19058 0.0
O168 O 0.29922 0.96986 0.20788 0.0
C169 C 0.32239 0.06249 0.41367 0.0
O170 O 0.32907 0.07702 0.4242 0.0
O171 O 0.31488 0.07459 0.46553 0.0
Zn172 Zn 0.29681 0.06212 0.44392 0.0
O173 O 0.283 0.08519 0.43203 0.0
C174 C 0.28025 0.03604 0.47228 0.0
O175 O 0.29829 0.03566 0.4787 0.0
O176 O 0.3108 0.05042 0.42157 0.0
C177 C 0.26902 0.08443 0.41992 0.0
O178 O 0.26176 0.06743 0.41492 0.0
C179 C 0.30999 0.09245 0.46458 0.0
O180 O 0.316 0.07443 0.46671 0.0
O181 O 0.27663 0.045 0.45649 0.0
C182 C 0.17561 0.06596 0.66799 0.0
O183 O 0.15938 0.07142 0.67653 0.0
O184 O 0.16495 0.05403 0.72169 0.0
Zn185 Zn 0.17502 0.03932 0.6983 0.0
O186 O 0.15169 0.02677 0.68575 0.0
C187 C 0.2061 0.02198 0.72035 0.0
O188 O 0.20887 0.04013 0.72582 0.0
O189 O 0.1872 0.05498 0.67729 0.0
C190 C 0.15155 0.01572 0.6709 0.0
O191 O 0.16808 0.01024 0.66293 0.0
C192 C 0.14711 0.05909 0.72204 0.0
O193 O 0.13678 0.05758 0.70601 0.0
O194 O 0.193 0.01833 0.70777 0.0
C195 C 0.17433 0.93162 0.91416 0.0
O196 O 0.16276 0.91945 0.92332 0.0
O197 O 0.17991 0.91532 0.96603 0.0
Zn198 Zn 0.19904 0.92587 0.94641 0.0
O199 O 0.21202 0.90221 0.9347 0.0
C200 C 0.21526 0.95069 0.97619 0.0
O201 O 0.19703 0.95126 0.98204 0.0
O202 O 0.18795 0.93986 0.92359 0.0
C203 C 0.22654 0.9021 0.92322 0.0
O204 O 0.23544 0.91858 0.91922 0.0
C205 C 0.17349 0.89809 0.96354 0.0
O206 O 0.176 0.8898 0.94649 0.0
O207 O 0.21937 0.94164 0.96055 0.0
C208 C 0.32855 0.30848 0.07266 0.0
O209 O 0.31865 0.32132 0.08282 0.0
O210 O 0.27896 0.32714 0.05929 0.0
Zn211 Zn 0.29976 0.31274 0.04431 0.0
O212 O 0.3145 0.33397 0.0305 0.0
C213 C 0.27132 0.28727 0.0258 0.0
O214 O 0.26313 0.28723 0.04311 0.0
O215 O 0.31968 0.29854 0.05984 0.0
C216 C 0.3225 0.33307 0.01387 0.0
O217 O 0.32191 0.31661 0.0041 0.0
C218 C 0.28271 0.34477 0.0637 0.0
O219 O 0.30076 0.35105 0.06249 0.0
O220 O 0.28738 0.2962 0.02355 0.0
C221 C 0.8301 0.17703 0.92185 0.0
O222 O 0.82099 0.16478 0.91034 0.0
O223 O 0.77437 0.16853 0.92483 0.0
Zn224 Zn 0.7951 0.17556 0.94425 0.0
O225 O 0.80212 0.15009 0.95664 0.0
C226 C 0.7686 0.20327 0.96225 0.0
O227 O 0.7623 0.20568 0.94434 0.0
O228 O 0.82051 0.18613 0.9348 0.0
C229 C 0.81296 0.1484 0.97151 0.0
O230 O 0.81952 0.16421 0.9801 0.0
C231 C 0.77377 0.15056 0.92032 0.0
O232 O 0.79035 0.14129 0.91794 0.0
O233 O 0.78316 0.19219 0.96523 0.0
C234 C 0.06999 0.57927 0.17611 0.0
O235 O 0.08666 0.57104 0.17163 0.0
O236 O 0.07571 0.52243 0.18266 0.0
Zn237 Zn 0.06684 0.54554 0.1984 0.0
O238 O 0.09072 0.55453 0.21278 0.0
C239 C 0.03607 0.52175 0.21359 0.0
O240 O 0.03515 0.51602 0.19534 0.0
O241 O 0.05705 0.56912 0.18459 0.0
C242 C 0.09177 0.5693 0.2239 0.0
O243 O 0.07604 0.5796 0.22752 0.0
C244 C 0.09367 0.52107 0.17832 0.0
O245 O 0.1046 0.53677 0.17893 0.0
O246 O 0.04761 0.53555 0.21806 0.0
C247 C 0.66568 0.81184 0.4314 0.0
O248 O 0.67759 0.82241 0.42083 0.0
O249 O 0.71412 0.82877 0.44253 0.0
Zn250 Zn 0.69601 0.81356 0.45992 0.0
O251 O 0.68532 0.83318 0.47897 0.0
C252 C 0.72627 0.78552 0.46705 0.0
O253 O 0.73015 0.7889 0.44862 0.0
O254 O 0.67214 0.80353 0.44662 0.0
C255 C 0.69559 0.84653 0.48671 0.0
O256 O 0.71455 0.84646 0.48396 0.0
C257 C 0.71002 0.84633 0.43824 0.0
O258 O 0.6927 0.85314 0.44279 0.0
O259 O 0.71121 0.79327 0.47458 0.0
C260 C 0.93605 0.91452 0.1681 0.0
O261 O 0.92412 0.92481 0.15728 0.0
O262 O 0.91927 0.96526 0.1776 0.0
Zn263 Zn 0.93154 0.94492 0.19483 0.0
O264 O 0.9089 0.93227 0.20853 0.0
C265 C 0.95493 0.975 0.21284 0.0
O266 O 0.95352 0.98309 0.19555 0.0
O267 O 0.94532 0.92309 0.18163 0.0
C268 C 0.90981 0.9207 0.22292 0.0
O269 O 0.92685 0.91655 0.23061 0.0
C270 C 0.90165 0.96269 0.17236 0.0
O271 O 0.89394 0.94529 0.17438 0.0
O272 O 0.94773 0.95812 0.21541 0.0
C273 C 0.16184 0.68399 0.57386 0.0
O274 O 0.17075 0.67024 0.58375 0.0
O275 O 0.21501 0.67052 0.56443 0.0
Zn276 Zn 0.19338 0.68278 0.54887 0.0
O277 O 0.18057 0.66059 0.53456 0.0
C278 C 0.22212 0.70759 0.5306 0.0
O279 O 0.2306 0.70652 0.54773 0.0
O280 O 0.17215 0.69568 0.56392 0.0
C281 C 0.17395 0.66116 0.51729 0.0
O282 O 0.17486 0.67758 0.50752 0.0
C283 C 0.21377 0.65256 0.5688 0.0
O284 O 0.19688 0.64374 0.56677 0.0
O285 O 0.20537 0.69997 0.52843 0.0
C286 C 0.07277 0.41316 0.31116 0.0
O287 O 0.08835 0.42307 0.31627 0.0
O288 O 0.07253 0.46765 0.31456 0.0
Zn289 Zn 0.0642 0.44877 0.29389 0.0
O290 O 0.08883 0.44574 0.27863 0.0
C291 C 0.03119 0.47199 0.27887 0.0
O292 O 0.0287 0.47808 0.29685 0.0
O293 O 0.05859 0.42199 0.30316 0.0
C294 C 0.0914 0.43274 0.26573 0.0
O295 O 0.0768 0.42133 0.26091 0.0
C296 C 0.07603 0.48449 0.30772 0.0
O297 O 0.07019 0.4886 0.28999 0.0
O298 O 0.04404 0.45911 0.27538 0.0
C299 C 0.42552 0.58093 0.82074 0.0
O300 O 0.41041 0.57086 0.82674 0.0
O301 O 0.41939 0.52627 0.81 0.0
Zn302 Zn 0.42907 0.54977 0.79542 0.0
O303 O 0.40604 0.5604 0.78086 0.0
C304 C 0.45834 0.52507 0.77837 0.0
O305 O 0.45851 0.51742 0.79592 0.0
O306 O 0.4386 0.57238 0.81081 0.0
C307 C 0.4072 0.56939 0.76476 0.0
O308 O 0.42429 0.57157 0.75638 0.0
C309 C 0.4013 0.5245 0.81361 0.0
O310 O 0.38986 0.53973 0.8118 0.0
O311 O 0.44822 0.5403 0.77541 0.0
C312 C 0.93889 0.6633 0.66888 0.0
O313 O 0.9418 0.67076 0.65152 0.0
O314 O 0.97519 0.69255 0.6585 0.0
Zn315 Zn 0.95291 0.69973 0.67646 0.0
O316 O 0.93384 0.71451 0.65972 0.0
C317 C 0.96351 0.7332 0.70068 0.0
O318 O 0.94866 0.74172 0.69213 0.0
O319 O 0.94158 0.67383 0.68391 0.0
C320 C 0.91886 0.72536 0.65889 0.0
O321 O 0.91031 0.73139 0.67492 0.0
C322 C 0.97548 0.69768 0.64071 0.0
O323 O 0.96151 0.70886 0.63397 0.0
O324 O 0.96622 0.7151 0.69784 0.0
C325 C 0.07882 0.16263 0.41987 0.0
O326 O 0.06887 0.15837 0.40409 0.0
O327 O 0.0569 0.20931 0.40936 0.0
Zn328 Zn 0.04652 0.18719 0.42536 0.0
O329 O 0.0295 0.17237 0.40655 0.0
C330 C 0.01469 0.20649 0.44432 0.0
O331 O 0.00491 0.19827 0.43008 0.0
O332 O 0.07067 0.17272 0.43312 0.0
C333 C 0.01501 0.1609 0.40769 0.0
O334 O 0.00804 0.15594 0.42481 0.0
C335 C 0.06096 0.20772 0.39136 0.0
O336 O 0.05844 0.19085 0.3827 0.0
O337 O 0.03239 0.20165 0.44693 0.0
C338 C 0.57717 0.32662 0.17272 0.0
O339 O 0.58598 0.31591 0.15953 0.0
O340 O 0.5328 0.29671 0.16014 0.0
Zn341 Zn 0.55541 0.29178 0.17762 0.0
O342 O 0.57322 0.27668 0.15977 0.0
C343 C 0.53637 0.25978 0.19536 0.0
O344 O 0.54402 0.25104 0.18016 0.0
O345 O 0.56513 0.31851 0.18423 0.0
C346 C 0.58396 0.26165 0.16084 0.0
O347 O 0.58602 0.25263 0.17759 0.0
C348 C 0.53239 0.30766 0.14526 0.0
O349 O 0.54797 0.31775 0.14055 0.0
O350 O 0.54184 0.27706 0.19931 0.0
C351 C 0.41598 0.8242 0.92839 0.0
O352 O 0.42444 0.83112 0.91269 0.0
O353 O 0.44139 0.78647 0.90863 0.0
Zn354 Zn 0.45106 0.80542 0.92868 0.0
O355 O 0.46481 0.82591 0.91282 0.0
C356 C 0.46375 0.77248 0.94939 0.0
O357 O 0.44562 0.76757 0.94557 0.0
O358 O 0.42604 0.81433 0.9404 0.0
C359 C 0.48324 0.82597 0.91134 0.0
O360 O 0.49346 0.81656 0.92451 0.0
C361 C 0.45139 0.78182 0.89379 0.0
O362 O 0.46908 0.78884 0.89182 0.0
O363 O 0.46917 0.78984 0.94584 0.0
C364 C 0.92373 0.32812 0.82386 0.0
O365 O 0.9231 0.3193 0.84082 0.0
O366 O 0.96 0.30192 0.84054 0.0
Zn367 Zn 0.94377 0.29444 0.81752 0.0
O368 O 0.92379 0.27532 0.82729 0.0
C369 C 0.96138 0.26499 0.79256 0.0
O370 O 0.94587 0.2548 0.79728 0.0
O371 O 0.93117 0.31932 0.80936 0.0
C372 C 0.91112 0.26325 0.83334 0.0
O373 O 0.89815 0.25648 0.821 0.0
C374 C 0.97478 0.31312 0.84045 0.0
O375 O 0.9817 0.31967 0.82384 0.0
O376 O 0.9623 0.28273 0.7979 0.0
C377 C 0.41443 0.17333 0.56813 0.0
O378 O 0.42347 0.16464 0.58258 0.0
O379 O 0.44354 0.21624 0.58288 0.0
Zn380 Zn 0.45018 0.19313 0.56626 0.0
O381 O 0.46319 0.17449 0.58476 0.0
C382 C 0.46526 0.22008 0.53854 0.0
O383 O 0.44736 0.22677 0.53969 0.0
O384 O 0.42419 0.18413 0.55668 0.0
C385 C 0.48143 0.1714 0.58454 0.0
O386 O 0.49168 0.17791 0.56974 0.0
C387 C 0.43648 0.21456 0.59991 0.0
O388 O 0.43346 0.19707 0.60707 0.0
O389 O 0.46905 0.20372 0.54635 0.0
C390 C 0.57578 0.66757 0.31475 0.0
O391 O 0.58602 0.67681 0.32803 0.0
O392 O 0.53302 0.69739 0.33101 0.0
Zn393 Zn 0.55509 0.70332 0.31308 0.0
O394 O 0.57373 0.71708 0.33109 0.0
C395 C 0.53395 0.73508 0.29826 0.0
O396 O 0.5401 0.74249 0.31479 0.0
O397 O 0.56377 0.67705 0.30437 0.0
C398 C 0.58262 0.73329 0.33032 0.0
O399 O 0.58215 0.74349 0.31414 0.0
C400 C 0.53424 0.68722 0.34642 0.0
O401 O 0.55099 0.67925 0.35111 0.0
O402 O 0.54128 0.71908 0.29247 0.0
C403 C 0.07985 0.8248 0.07031 0.0
O404 O 0.07019 0.83322 0.08452 0.0
O405 O 0.057 0.77918 0.08398 0.0
Zn406 Zn 0.04642 0.80102 0.06777 0.0
O407 O 0.03091 0.81676 0.08709 0.0
C408 C 0.01266 0.7846 0.04802 0.0
O409 O 0.00288 0.79517 0.06061 0.0
O410 O 0.07079 0.81377 0.0585 0.0
C411 C 0.01758 0.82957 0.08655 0.0
O412 O 0.01066 0.83554 0.06974 0.0
C413 C 0.06457 0.7819 0.10067 0.0
O414 O 0.06513 0.79957 0.10799 0.0
O415 O 0.03105 0.7867 0.04701 0.0
C416 C 0.67412 0.91868 0.66153 0.0
O417 O 0.65836 0.91201 0.67011 0.0
O418 O 0.65795 0.96248 0.68647 0.0
Zn419 Zn 0.67524 0.94071 0.6959 0.0
O420 O 0.6574 0.92312 0.71122 0.0
C421 C 0.7004 0.97048 0.71155 0.0
O422 O 0.69605 0.97913 0.69505 0.0
O423 O 0.68582 0.92914 0.67137 0.0
C424 C 0.6595 0.92109 0.7295 0.0
O425 O 0.67576 0.92713 0.7376 0.0
C426 C 0.64038 0.9596 0.6812 0.0
O427 O 0.63308 0.94194 0.68229 0.0
O428 O 0.69509 0.95288 0.71393 0.0
C429 C 0.82448 0.9223 0.4125 0.0
O430 O 0.8283 0.90698 0.42326 0.0
O431 O 0.77603 0.91462 0.43593 0.0
Zn432 Zn 0.79963 0.92994 0.44414 0.0
O433 O 0.81411 0.91086 0.46099 0.0
C434 C 0.78587 0.95231 0.47673 0.0
O435 O 0.79662 0.93984 0.48645 0.0
O436 O 0.81399 0.93593 0.41941 0.0
C437 C 0.82764 0.91053 0.47359 0.0
O438 O 0.8359 0.92679 0.47944 0.0
C439 C 0.77707 0.89665 0.43158 0.0
O440 O 0.79419 0.88811 0.43148 0.0
O441 O 0.78746 0.9528 0.45829 0.0
C442 C 0.82029 0.07319 0.16664 0.0
O443 O 0.83643 0.07891 0.17523 0.0
O444 O 0.83467 0.02704 0.18805 0.0
Zn445 Zn 0.81837 0.04849 0.19951 0.0
O446 O 0.83749 0.0637 0.21581 0.0
C447 C 0.79789 0.03144 0.23258 0.0
O448 O 0.80985 0.04219 0.24296 0.0
O449 O 0.80849 0.06249 0.17607 0.0
C450 C 0.83701 0.07648 0.22918 0.0
O451 O 0.8202 0.08313 0.23552 0.0
C452 C 0.85211 0.02967 0.18237 0.0
O453 O 0.86 0.04702 0.18418 0.0
O454 O 0.79758 0.03369 0.21422 0.0
C455 C 0.67638 0.07533 0.91348 0.0
O456 O 0.67734 0.09223 0.92245 0.0
O457 O 0.71058 0.08358 0.94382 0.0
Zn458 Zn 0.68691 0.06733 0.9502 0.0
O459 O 0.66805 0.08587 0.96317 0.0
C460 C 0.71293 0.0389 0.96545 0.0
O461 O 0.72066 0.04077 0.94803 0.0
O462 O 0.67779 0.05978 0.92353 0.0
C463 C 0.66532 0.08612 0.98147 0.0
O464 O 0.67185 0.07145 0.99187 0.0
C465 C 0.71413 0.09972 0.95217 0.0
O466 O 0.70364 0.10491 0.96729 0.0
O467 O 0.69617 0.04626 0.96841 0.0
C468 C 0.67541 0.07222 0.82943 0.0
O469 O 0.66007 0.07984 0.82094 0.0
O470 O 0.65481 0.02876 0.80557 0.0
Zn471 Zn 0.67383 0.04891 0.79603 0.0
O472 O 0.65764 0.06826 0.78116 0.0
C473 C 0.69752 0.01786 0.78024 0.0
O474 O 0.69239 0.00916 0.7965 0.0
O475 O 0.68544 0.05955 0.82043 0.0
C476 C 0.66039 0.07191 0.76324 0.0
O477 O 0.67639 0.06554 0.75486 0.0
C478 C 0.63743 0.03308 0.81042 0.0
O479 O 0.63143 0.05117 0.80872 0.0
O480 O 0.69267 0.03557 0.77778 0.0
C481 C 0.67273 0.92581 0.57713 0.0
O482 O 0.65888 0.9169 0.56732 0.0
O483 O 0.70435 0.90199 0.54003 0.0
Zn484 Zn 0.69062 0.92792 0.53964 0.0
O485 O 0.66501 0.92931 0.52477 0.0
C486 C 0.71111 0.95421 0.51228 0.0
O487 O 0.69564 0.95267 0.50108 0.0
O488 O 0.68671 0.93358 0.56785 0.0
C489 C 0.65707 0.91712 0.51324 0.0
O490 O 0.63966 0.921 0.50626 0.0
C491 C 0.70037 0.88658 0.54948 0.0
O492 O 0.68374 0.88518 0.55884 0.0
O493 O 0.71092 0.94619 0.52895 0.0
C494 C 0.83056 0.92271 0.32893 0.0
O495 O 0.84699 0.9276 0.3204 0.0
O496 O 0.83466 0.96276 0.30421 0.0
Zn497 Zn 0.81916 0.93971 0.29515 0.0
O498 O 0.83796 0.92594 0.27739 0.0
C499 C 0.79512 0.95541 0.26455 0.0
O500 O 0.80625 0.94468 0.25328 0.0
O501 O 0.81462 0.92492 0.31974 0.0
C502 C 0.83741 0.91329 0.26391 0.0
O503 O 0.8207 0.90576 0.25835 0.0
C504 C 0.84247 0.97383 0.29164 0.0
O505 O 0.83961 0.97017 0.27308 0.0
O506 O 0.79563 0.95246 0.2828 0.0
C507 C 0.81911 0.06986 0.08229 0.0
O508 O 0.82431 0.08557 0.07267 0.0
O509 O 0.78014 0.08657 0.05724 0.0
Zn510 Zn 0.79855 0.06534 0.04824 0.0
O511 O 0.818 0.07828 0.03051 0.0
C512 C 0.76872 0.0539 0.02352 0.0
O513 O 0.76826 0.07301 0.02282 0.0
O514 O 0.80986 0.05647 0.07339 0.0
C515 C 0.81805 0.07517 0.01228 0.0
O516 O 0.80978 0.05923 0.00567 0.0
C517 C 0.78173 0.10425 0.05197 0.0
O518 O 0.79627 0.10948 0.0407 0.0
O519 O 0.78176 0.04553 0.03371 0.0
C520 C 0.66593 0.67247 0.92714 0.0
O521 O 0.67563 0.65914 0.9174 0.0
O522 O 0.69502 0.6544 0.96805 0.0
Zn523 Zn 0.70146 0.6739 0.94721 0.0
O524 O 0.71528 0.65838 0.92639 0.0
C525 C 0.71681 0.69871 0.9772 0.0
O526 O 0.70032 0.69376 0.98563 0.0
O527 O 0.67502 0.68325 0.93916 0.0
C528 C 0.73373 0.65858 0.92494 0.0
O529 O 0.74352 0.67192 0.93457 0.0
C530 C 0.69101 0.63686 0.96362 0.0
O531 O 0.69161 0.63133 0.94532 0.0
O532 O 0.71953 0.69366 0.95959 0.0
C533 C 0.16388 0.81836 0.07568 0.0
O534 O 0.17402 0.83357 0.08141 0.0
O535 O 0.18363 0.83182 0.02843 0.0
Zn536 Zn 0.1952 0.81504 0.04939 0.0
O537 O 0.21263 0.83352 0.06407 0.0
C538 C 0.22743 0.79289 0.03219 0.0
O539 O 0.23833 0.80202 0.04498 0.0
O540 O 0.17186 0.8061 0.06431 0.0
C541 C 0.22582 0.83226 0.07698 0.0
O542 O 0.23116 0.81515 0.08369 0.0
C543 C 0.1778 0.84919 0.03116 0.0
O544 O 0.17928 0.85694 0.0486 0.0
O545 O 0.20899 0.79428 0.03356 0.0
C546 C 0.91724 0.41159 0.81732 0.0
O547 O 0.90008 0.41951 0.81423 0.0
O548 O 0.90734 0.43917 0.78019 0.0
Zn549 Zn 0.92522 0.44711 0.80214 0.0
O550 O 0.90859 0.46312 0.82023 0.0
C551 C 0.9509 0.46115 0.77241 0.0
O552 O 0.94537 0.44488 0.76395 0.0
O553 O 0.93254 0.42172 0.81446 0.0
C554 C 0.91102 0.48141 0.82176 0.0
O555 O 0.92705 0.48914 0.81471 0.0
C556 C 0.89215 0.44889 0.77605 0.0
O557 O 0.88897 0.46546 0.78507 0.0
O558 O 0.9465 0.46369 0.79023 0.0
C559 C 0.3298 0.17676 0.57243 0.0
O560 O 0.32063 0.16239 0.58116 0.0
O561 O 0.30078 0.16211 0.52823 0.0
Zn562 Zn 0.29428 0.17868 0.55126 0.0
O563 O 0.2804 0.15978 0.56894 0.0
C564 C 0.26008 0.19501 0.53467 0.0
O565 O 0.25259 0.17926 0.54252 0.0
O566 O 0.32028 0.18766 0.5609 0.0
C567 C 0.26608 0.16164 0.58049 0.0
O568 O 0.25887 0.17905 0.58393 0.0
C569 C 0.31038 0.14632 0.52926 0.0
O570 O 0.317 0.14051 0.54623 0.0
O571 O 0.27759 0.19952 0.5388 0.0
C572 C 0.06758 0.07518 0.83177 0.0
O573 O 0.08279 0.06562 0.83834 0.0
O574 O 0.08216 0.05137 0.78814 0.0
Zn575 Zn 0.06378 0.04153 0.80881 0.0
O576 O 0.08114 0.02343 0.82415 0.0
C577 C 0.03756 0.03475 0.77784 0.0
O578 O 0.04124 0.05335 0.77506 0.0
O579 O 0.05492 0.06597 0.82187 0.0
C580 C 0.08488 0.00794 0.81469 0.0
O581 O 0.07263 0.00242 0.80106 0.0
C582 C 0.10013 0.05466 0.79144 0.0
O583 O 0.10709 0.05194 0.80903 0.0
O584 O 0.04293 0.02712 0.79383 0.0
C585 C 0.82867 0.31776 0.42202 0.0
O586 O 0.81877 0.33144 0.41304 0.0
O587 O 0.79886 0.33149 0.46571 0.0
Zn588 Zn 0.79317 0.3145 0.44249 0.0
O589 O 0.7797 0.33275 0.42398 0.0
C590 C 0.77754 0.28683 0.46921 0.0
O591 O 0.79427 0.29044 0.47783 0.0
O592 O 0.81964 0.30617 0.43332 0.0
C593 C 0.76124 0.33384 0.42349 0.0
O594 O 0.75101 0.32007 0.43201 0.0
C595 C 0.80632 0.3483 0.46332 0.0
O596 O 0.81028 0.35423 0.44559 0.0
O597 O 0.77491 0.29348 0.45212 0.0
C598 C 0.92258 0.58101 0.67468 0.0
O599 O 0.90429 0.57539 0.67427 0.0
O600 O 0.90573 0.55687 0.71446 0.0
Zn601 Zn 0.92351 0.54581 0.69369 0.0
O602 O 0.90628 0.53039 0.6756 0.0
C603 C 0.94729 0.52973 0.72479 0.0
O604 O 0.94229 0.54595 0.73367 0.0
O605 O 0.93546 0.56927 0.68096 0.0
C606 C 0.90886 0.51231 0.6725 0.0
O607 O 0.92508 0.50412 0.67852 0.0
C608 C 0.88739 0.55866 0.71231 0.0
O609 O 0.87917 0.55222 0.69626 0.0
O610 O 0.94241 0.52748 0.70705 0.0
C611 C 0.57374 0.41093 0.16495 0.0
O612 O 0.58971 0.42058 0.16067 0.0
O613 O 0.58674 0.43223 0.20884 0.0
Zn614 Zn 0.56928 0.44356 0.18817 0.0
O615 O 0.58611 0.46201 0.17252 0.0
C616 C 0.55734 0.47021 0.21498 0.0
O617 O 0.57638 0.4719 0.21403 0.0
O618 O 0.56021 0.41985 0.17396 0.0
C619 C 0.58175 0.47985 0.17019 0.0
O620 O 0.56388 0.48561 0.17398 0.0
C621 C 0.60498 0.42946 0.20722 0.0
O622 O 0.6138 0.4344 0.19097 0.0
O623 O 0.54881 0.45802 0.2039 0.0
C624 C 0.57074 0.82977 0.81361 0.0
O625 O 0.57996 0.81964 0.82692 0.0
O626 O 0.56525 0.77686 0.82526 0.0
Zn627 Zn 0.54716 0.79692 0.81346 0.0
O628 O 0.53187 0.80718 0.8361 0.0
C629 C 0.53171 0.76675 0.7886 0.0
O630 O 0.54928 0.75946 0.79076 0.0
O631 O 0.55911 0.82094 0.80223 0.0
C632 C 0.51843 0.81989 0.83581 0.0
O633 O 0.51236 0.82699 0.81911 0.0
C634 C 0.56916 0.77797 0.84335 0.0
O635 O 0.56484 0.7941 0.85272 0.0
O636 O 0.52808 0.78351 0.79567 0.0
C637 C 0.41209 0.3199 0.06651 0.0
O638 O 0.4214 0.32273 0.08301 0.0
O639 O 0.46301 0.30883 0.07829 0.0
Zn640 Zn 0.44205 0.29464 0.06365 0.0
O641 O 0.4286 0.27961 0.08507 0.0
C642 C 0.47125 0.28162 0.03764 0.0
O643 O 0.47622 0.30006 0.03909 0.0
O644 O 0.4211 0.31125 0.05284 0.0
C645 C 0.41728 0.265 0.08431 0.0
O646 O 0.41292 0.25723 0.06737 0.0
C647 C 0.47236 0.29597 0.08778 0.0
O648 O 0.46835 0.27747 0.08489 0.0
O649 O 0.45506 0.2762 0.04486 0.0
C650 C 0.91977 0.16058 0.31467 0.0
O651 O 0.91517 0.17077 0.33024 0.0
O652 O 0.93192 0.21082 0.32746 0.0
Zn653 Zn 0.94626 0.18958 0.31327 0.0
O654 O 0.95975 0.17551 0.3352 0.0
C655 C 0.96373 0.21778 0.28775 0.0
O656 O 0.94608 0.22524 0.2884 0.0
O657 O 0.92969 0.16899 0.3015 0.0
C658 C 0.97505 0.16516 0.33448 0.0
O659 O 0.98394 0.16265 0.31771 0.0
C660 C 0.94415 0.21926 0.33855 0.0
O661 O 0.96274 0.21488 0.337 0.0
O662 O 0.9667 0.20137 0.29578 0.0
C663 C 0.08209 0.66735 0.55066 0.0
O664 O 0.07112 0.65753 0.56287 0.0
O665 O 0.03383 0.6823 0.56866 0.0
Zn666 Zn 0.05436 0.69686 0.5538 0.0
O667 O 0.06895 0.71162 0.57478 0.0
C668 C 0.02346 0.71264 0.53029 0.0
O669 O 0.01642 0.69495 0.53241 0.0
O670 O 0.07407 0.68035 0.54023 0.0
C671 C 0.0662 0.72952 0.5786 0.0
O672 O 0.05483 0.73978 0.56711 0.0
C673 C 0.03689 0.67834 0.58649 0.0
O674 O 0.05482 0.67907 0.59314 0.0
O675 O 0.04057 0.7162 0.5365 0.0
C676 C 0.57355 0.16622 0.67457 0.0
O677 O 0.57525 0.17665 0.65861 0.0
O678 O 0.56047 0.21909 0.66925 0.0
Zn679 Zn 0.54793 0.19536 0.68107 0.0
O680 O 0.5339 0.18348 0.65829 0.0
C681 C 0.52904 0.21835 0.71081 0.0
O682 O 0.54588 0.22751 0.71112 0.0
O683 O 0.56571 0.17415 0.68936 0.0
C684 C 0.52017 0.17108 0.65848 0.0
O685 O 0.51343 0.16465 0.6752 0.0
C686 C 0.54736 0.22852 0.66015 0.0
O687 O 0.52908 0.22304 0.66189 0.0
O688 O 0.5275 0.20303 0.70053 0.0
C689 C 0.08343 0.3153 0.92815 0.0
O690 O 0.07341 0.32426 0.91454 0.0
O691 O 0.03485 0.31056 0.91189 0.0
Zn692 Zn 0.05207 0.29067 0.92533 0.0
O693 O 0.06489 0.27505 0.90372 0.0
C694 C 0.02639 0.27321 0.95642 0.0
O695 O 0.02355 0.29068 0.96374 0.0
O696 O 0.07489 0.3026 0.93855 0.0
C697 C 0.05801 0.27519 0.88654 0.0
O698 O 0.04171 0.28457 0.88312 0.0
C699 C 0.01635 0.30985 0.9123 0.0
O700 O 0.0079 0.29803 0.92474 0.0
O701 O 0.03733 0.27111 0.94161 0.0
C702 C 0.91935 0.83249 0.17971 0.0
O703 O 0.91062 0.82196 0.16634 0.0
O704 O 0.92994 0.78095 0.16654 0.0
Zn705 Zn 0.94598 0.80224 0.17897 0.0
O706 O 0.96101 0.81449 0.15698 0.0
C707 C 0.96283 0.77402 0.20525 0.0
O708 O 0.94531 0.76628 0.20445 0.0
O709 O 0.93131 0.82411 0.19106 0.0
C710 C 0.97586 0.8254 0.15869 0.0
O711 O 0.9826 0.8295 0.17614 0.0
C712 C 0.92601 0.78234 0.14847 0.0
O713 O 0.9295 0.79891 0.13957 0.0
O714 O 0.96583 0.79019 0.19675 0.0
C715 C 0.4133 0.67114 0.42553 0.0
O716 O 0.4222 0.66863 0.40875 0.0
O717 O 0.46362 0.68368 0.41248 0.0
Zn718 Zn 0.44257 0.69724 0.42764 0.0
O719 O 0.42789 0.71233 0.40712 0.0
C720 C 0.47213 0.71037 0.4531 0.0
O721 O 0.47732 0.69203 0.45126 0.0
O722 O 0.42246 0.67995 0.43899 0.0
C723 C 0.41736 0.72742 0.40902 0.0
O724 O 0.41499 0.73518 0.42636 0.0
C725 C 0.47233 0.69652 0.40237 0.0
O726 O 0.46721 0.71488 0.40418 0.0
O727 O 0.45575 0.7157 0.44626 0.0
C728 C 0.81036 0.57379 0.83141 0.0
O729 O 0.82105 0.5856 0.82085 0.0
O730 O 0.82166 0.56901 0.77784 0.0
Zn731 Zn 0.81257 0.54946 0.79784 0.0
O732 O 0.83708 0.53562 0.80566 0.0
C733 C 0.78909 0.53118 0.7678 0.0
O734 O 0.79136 0.54808 0.75909 0.0
O735 O 0.80206 0.55945 0.82315 0.0
C736 C 0.83847 0.52345 0.81951 0.0
O737 O 0.82275 0.51818 0.82909 0.0
C738 C 0.83931 0.57468 0.77892 0.0
O739 O 0.84849 0.57269 0.79558 0.0
O740 O 0.79562 0.52907 0.78501 0.0
C741 C 0.67066 0.55499 0.08003 0.0
O742 O 0.66008 0.56679 0.06933 0.0
O743 O 0.68346 0.56743 0.02815 0.0
Zn744 Zn 0.69843 0.55619 0.05072 0.0
O745 O 0.71223 0.5789 0.06332 0.0
C746 C 0.71766 0.53087 0.02342 0.0
O747 O 0.70044 0.53096 0.015 0.0
O748 O 0.68264 0.54371 0.07158 0.0
C749 C 0.72165 0.59003 0.05195 0.0
O750 O 0.72285 0.58555 0.03337 0.0
C751 C 0.67786 0.58509 0.0286 0.0
O752 O 0.67732 0.59419 0.04544 0.0
O753 O 0.71952 0.53904 0.03992 0.0
C754 C 0.67721 0.42608 0.33122 0.0
O755 O 0.66428 0.41567 0.32171 0.0
O756 O 0.66715 0.42868 0.27709 0.0
Zn757 Zn 0.67663 0.44841 0.29678 0.0
O758 O 0.65268 0.46309 0.30512 0.0
C759 C 0.70295 0.46367 0.26752 0.0
O760 O 0.70121 0.44606 0.26018 0.0
O761 O 0.68736 0.4384 0.32189 0.0
C762 C 0.6526 0.47564 0.31873 0.0
O763 O 0.66915 0.48064 0.32695 0.0
C764 C 0.64932 0.42356 0.27773 0.0
O765 O 0.6392 0.42767 0.29344 0.0
O766 O 0.6946 0.46757 0.28359 0.0
C767 C 0.81877 0.43086 0.57822 0.0
O768 O 0.82736 0.41835 0.5666 0.0
O769 O 0.80669 0.41771 0.52804 0.0
Zn770 Zn 0.7913 0.43327 0.54783 0.0
O771 O 0.77198 0.41405 0.55848 0.0
C772 C 0.78099 0.4599 0.51743 0.0
O773 O 0.79823 0.45491 0.51077 0.0
O774 O 0.80597 0.44224 0.57121 0.0
C775 C 0.7622 0.40421 0.54625 0.0
O776 O 0.76335 0.4088 0.5277 0.0
C777 C 0.80896 0.39945 0.53048 0.0
O778 O 0.80451 0.39178 0.54744 0.0
O779 O 0.77595 0.45407 0.53426 0.0
C780 C 0.81122 0.41772 0.66124 0.0
O781 O 0.82522 0.40828 0.67019 0.0
O782 O 0.82142 0.42414 0.71641 0.0
Zn783 Zn 0.81283 0.4416 0.69458 0.0
O784 O 0.83736 0.45449 0.68526 0.0
C785 C 0.78701 0.46127 0.72164 0.0
O786 O 0.78542 0.44382 0.72932 0.0
O787 O 0.80098 0.42976 0.67087 0.0
C788 C 0.83754 0.46817 0.67281 0.0
O789 O 0.82096 0.47423 0.66541 0.0
C790 C 0.83944 0.4198 0.71687 0.0
O791 O 0.84886 0.4179 0.70033 0.0
O792 O 0.79654 0.46323 0.70588 0.0
C793 C 0.82289 0.56875 0.91503 0.0
O794 O 0.82525 0.58489 0.92508 0.0
O795 O 0.81574 0.57827 0.96859 0.0
Zn796 Zn 0.80034 0.56311 0.94647 0.0
O797 O 0.78402 0.58423 0.9342 0.0
C798 C 0.78576 0.5365 0.97535 0.0
O799 O 0.8031 0.53944 0.98292 0.0
O800 O 0.8159 0.55399 0.9238 0.0
C801 C 0.7712 0.58467 0.92089 0.0
O802 O 0.76482 0.5684 0.91304 0.0
C803 C 0.80187 0.59047 0.96956 0.0
O804 O 0.81699 0.57867 0.96973 0.0
O805 O 0.78205 0.54362 0.95865 0.0
C806 C 0.68291 0.57523 0.16106 0.0
O807 O 0.66792 0.58224 0.17067 0.0
O808 O 0.67197 0.56304 0.21459 0.0
Zn809 Zn 0.68313 0.54853 0.19156 0.0
O810 O 0.66093 0.53375 0.17917 0.0
C811 C 0.70973 0.53056 0.21839 0.0
O812 O 0.70982 0.5481 0.22609 0.0
O813 O 0.69477 0.56428 0.1701 0.0
C814 C 0.64977 0.5241 0.19032 0.0
O815 O 0.65335 0.52369 0.20911 0.0
C816 C 0.65402 0.5676 0.21529 0.0
O817 O 0.64385 0.5677 0.19908 0.0
O818 O 0.70116 0.52806 0.20216 0.0
C819 C 0.66805 0.43081 0.41519 0.0
O820 O 0.66267 0.41466 0.4239 0.0
O821 O 0.6813 0.4215 0.47025 0.0
Zn822 Zn 0.69442 0.43189 0.44609 0.0
O823 O 0.70788 0.40874 0.43436 0.0
C824 C 0.71389 0.46134 0.46905 0.0
O825 O 0.69671 0.4631 0.47736 0.0
O826 O 0.67819 0.44299 0.42475 0.0
C827 C 0.72409 0.40895 0.42544 0.0
O828 O 0.73318 0.42561 0.4229 0.0
C829 C 0.67708 0.40345 0.47064 0.0
O830 O 0.67673 0.39367 0.45421 0.0
O831 O 0.7156 0.45007 0.45448 0.0
C832 C 0.83097 0.82306 0.5692 0.0
O833 O 0.82221 0.84004 0.57054 0.0
O834 O 0.77657 0.82972 0.56018 0.0
Zn835 Zn 0.79899 0.81755 0.54569 0.0
O836 O 0.8096 0.84016 0.53051 0.0
C837 C 0.78166 0.78176 0.52733 0.0
O838 O 0.77896 0.77429 0.54474 0.0
O839 O 0.8217 0.80895 0.56154 0.0
C840 C 0.81934 0.83845 0.51488 0.0
O841 O 0.82265 0.821 0.50772 0.0
C842 C 0.75884 0.82578 0.55642 0.0
O843 O 0.75455 0.80965 0.54709 0.0
O844 O 0.78995 0.79824 0.52565 0.0
C845 C 0.32927 0.67796 0.42091 0.0
O846 O 0.31966 0.66206 0.41625 0.0
O847 O 0.27728 0.66743 0.42954 0.0
Zn848 Zn 0.29847 0.68017 0.44532 0.0
O849 O 0.31121 0.65781 0.45929 0.0
C850 C 0.26999 0.70584 0.46209 0.0
O851 O 0.26251 0.70459 0.44452 0.0
O852 O 0.32041 0.69128 0.43023 0.0
C853 C 0.32073 0.65835 0.47513 0.0
O854 O 0.32266 0.67501 0.48438 0.0
C855 C 0.26776 0.65623 0.4408 0.0
O856 O 0.27205 0.6558 0.45943 0.0
O857 O 0.28649 0.69803 0.46529 0.0
C858 C 0.56532 0.0823 0.66757 0.0
O859 O 0.57878 0.07231 0.65836 0.0
O860 O 0.57572 0.02823 0.6752 0.0
Zn861 Zn 0.56524 0.04953 0.6926 0.0
O862 O 0.58856 0.05872 0.70758 0.0
C863 C 0.53897 0.02139 0.70994 0.0
O864 O 0.5404 0.01293 0.69283 0.0
O865 O 0.55487 0.0737 0.68019 0.0
C866 C 0.58905 0.07262 0.7198 0.0
O867 O 0.57293 0.08202 0.72411 0.0
C868 C 0.59374 0.02876 0.67079 0.0
O869 O 0.60334 0.04512 0.67347 0.0
O870 O 0.5471 0.03786 0.71248 0.0
C871 C 0.16661 0.31192 0.91365 0.0
O872 O 0.17544 0.32831 0.90922 0.0
O873 O 0.21153 0.33075 0.93644 0.0
Zn874 Zn 0.19156 0.31078 0.94476 0.0
O875 O 0.17248 0.32592 0.96136 0.0
C876 C 0.2229 0.28678 0.95799 0.0
O877 O 0.23049 0.29251 0.94138 0.0
O878 O 0.17614 0.29925 0.92315 0.0
C879 C 0.17527 0.32828 0.97947 0.0
O880 O 0.18901 0.31802 0.988 0.0
C881 C 0.20688 0.34868 0.93703 0.0
O882 O 0.18859 0.35362 0.93965 0.0
O883 O 0.20522 0.29104 0.96154 0.0
C884 C 0.43729 0.41087 0.67229 0.0
O885 O 0.4257 0.42086 0.66082 0.0
O886 O 0.42067 0.46215 0.67874 0.0
Zn887 Zn 0.43366 0.44378 0.69782 0.0
O888 O 0.4116 0.43453 0.71479 0.0
C889 C 0.45798 0.4754 0.7117 0.0
O890 O 0.45451 0.48261 0.69433 0.0
O891 O 0.4451 0.41935 0.68676 0.0
C892 C 0.40009 0.44734 0.72158 0.0
O893 O 0.40425 0.46586 0.71904 0.0
C894 C 0.40312 0.45855 0.67382 0.0
O895 O 0.39597 0.44119 0.67759 0.0
O896 O 0.45188 0.45835 0.7156 0.0
C897 C 0.66245 0.18341 0.07499 0.0
O898 O 0.6724 0.16926 0.08315 0.0
O899 O 0.7149 0.1714 0.06305 0.0
Zn900 Zn 0.69237 0.18283 0.04841 0.0
O901 O 0.67942 0.16021 0.03507 0.0
C902 C 0.72022 0.20787 0.03015 0.0
O903 O 0.72807 0.20729 0.0476 0.0
O904 O 0.67143 0.19529 0.06403 0.0
C905 C 0.67082 0.16072 0.0187 0.0
O906 O 0.67018 0.17718 0.00895 0.0
C907 C 0.71519 0.15334 0.06716 0.0
O908 O 0.69888 0.14333 0.06672 0.0
O909 O 0.70364 0.20001 0.02755 0.0
C910 C 0.55839 0.91298 0.82197 0.0
O911 O 0.57064 0.92273 0.83296 0.0
O912 O 0.57016 0.96723 0.81628 0.0
Zn913 Zn 0.56149 0.94617 0.79766 0.0
O914 O 0.58612 0.93705 0.7848 0.0
C915 C 0.53658 0.97453 0.77896 0.0
O916 O 0.53582 0.98202 0.79655 0.0
O917 O 0.54961 0.92186 0.80834 0.0
C918 C 0.58689 0.92421 0.77149 0.0
O919 O 0.57062 0.9166 0.76481 0.0
C920 C 0.58764 0.96661 0.82243 0.0
O921 O 0.5971 0.95001 0.82131 0.0
O922 O 0.54537 0.9584 0.77648 0.0
C923 C 0.93383 0.07848 0.3294 0.0
O924 O 0.92091 0.06898 0.33985 0.0
O925 O 0.91489 0.02989 0.31191 0.0
Zn926 Zn 0.93038 0.05151 0.29966 0.0
O927 O 0.90997 0.06774 0.28616 0.0
C928 C 0.95475 0.02263 0.28159 0.0
O929 O 0.95332 0.01454 0.29887 0.0
O930 O 0.94474 0.06877 0.31807 0.0
C931 C 0.91064 0.07367 0.26867 0.0
O932 O 0.92656 0.07066 0.25846 0.0
C933 C 0.89716 0.03325 0.31614 0.0
O934 O 0.8912 0.05139 0.31728 0.0
O935 O 0.94747 0.03948 0.27909 0.0
C936 C 0.41632 0.16463 0.17652 0.0
O937 O 0.408 0.17419 0.16217 0.0
O938 O 0.46138 0.1922 0.16202 0.0
Zn939 Zn 0.43876 0.19933 0.17875 0.0
O940 O 0.42179 0.21344 0.15941 0.0
C941 C 0.45878 0.23193 0.19431 0.0
O942 O 0.45214 0.23965 0.17813 0.0
O943 O 0.4282 0.17363 0.18752 0.0
C944 C 0.41175 0.22897 0.15946 0.0
O945 O 0.40981 0.23893 0.1757 0.0
C946 C 0.45994 0.18339 0.1458 0.0
O947 O 0.44276 0.17732 0.13991 0.0
O948 O 0.45226 0.21538 0.19952 0.0
C949 C 0.58146 0.66739 0.92521 0.0
O950 O 0.57322 0.66 0.9096 0.0
O951 O 0.55734 0.71176 0.9074 0.0
Zn952 Zn 0.54739 0.68964 0.92374 0.0
O953 O 0.53416 0.67195 0.90445 0.0
C954 C 0.52857 0.71869 0.94763 0.0
O955 O 0.54548 0.72758 0.94613 0.0
O956 O 0.57145 0.67859 0.93605 0.0
C957 C 0.51662 0.66628 0.90622 0.0
O958 O 0.50769 0.66892 0.92294 0.0
C959 C 0.56463 0.70894 0.8906 0.0
O960 O 0.56582 0.69109 0.88379 0.0
O961 O 0.52705 0.70126 0.9415 0.0
C962 C 0.06856 0.83028 0.66961 0.0
O963 O 0.06862 0.82223 0.65223 0.0
O964 O 0.03435 0.79833 0.65835 0.0
Zn965 Zn 0.05653 0.79291 0.67658 0.0
O966 O 0.07537 0.77907 0.6589 0.0
C967 C 0.02949 0.78377 0.7059 0.0
O968 O 0.02612 0.80245 0.70337 0.0
O969 O 0.06549 0.81946 0.68433 0.0
C970 C 0.07406 0.76083 0.65604 0.0
O971 O 0.06427 0.75018 0.66858 0.0
C972 C 0.02205 0.78499 0.65479 0.0
O973 O 0.02388 0.76801 0.6634 0.0
O974 O 0.04473 0.77658 0.69809 0.0
C975 C 0.91305 0.32041 0.42915 0.0
O976 O 0.92335 0.32984 0.41606 0.0
O977 O 0.94097 0.27417 0.41487 0.0
Zn978 Zn 0.94738 0.29717 0.43143 0.0
O979 O 0.96169 0.31378 0.41194 0.0
C980 C 0.98167 0.28203 0.44984 0.0
O981 O 0.99043 0.29251 0.43645 0.0
O982 O 0.92134 0.30747 0.43947 0.0
C983 C 0.97448 0.32715 0.41158 0.0
O984 O 0.98153 0.3341 0.42796 0.0
C985 C 0.93102 0.27541 0.39932 0.0
O986 O 0.92331 0.29225 0.39454 0.0
O987 O 0.96352 0.28461 0.45263 0.0
C988 C 0.41607 0.82938 0.31859 0.0
O989 O 0.40771 0.82007 0.33309 0.0
O990 O 0.46093 0.80046 0.33164 0.0
Zn991 Zn 0.43753 0.79409 0.31569 0.0
O992 O 0.42072 0.78035 0.33539 0.0
C993 C 0.4557 0.76087 0.2994 0.0
O994 O 0.44878 0.75319 0.31549 0.0
O995 O 0.42743 0.82004 0.30734 0.0
C996 C 0.4096 0.76556 0.33537 0.0
O997 O 0.40622 0.75626 0.31897 0.0
C998 C 0.46098 0.81069 0.34705 0.0
O999 O 0.44468 0.81881 0.35297 0.0
O1000 O 0.44992 0.77778 0.29451 0.0
C1001 C 0.91343 0.66853 0.07328 0.0
O1002 O 0.92404 0.66303 0.08821 0.0
O1003 O 0.93623 0.7147 0.08388 0.0
Zn1004 Zn 0.94595 0.69266 0.06734 0.0
O1005 O 0.96325 0.67751 0.08553 0.0
C1006 C 0.97789 0.70973 0.04579 0.0
O1007 O 0.98855 0.69867 0.05718 0.0
O1008 O 0.92132 0.67893 0.06013 0.0
C1009 C 0.97652 0.6647 0.08416 0.0
O1010 O 0.98192 0.65817 0.067 0.0
C1011 C 0.93191 0.71284 0.10178 0.0
O1012 O 0.93412 0.69581 0.11021 0.0
O1013 O 0.95955 0.70709 0.04551 0.0
C1014 C 0.07406 0.15875 0.819 0.0
O1015 O 0.08427 0.16996 0.83069 0.0
O1016 O 0.0335 0.19199 0.83401 0.0
Zn1017 Zn 0.05411 0.19422 0.81347 0.0
O1018 O 0.07498 0.2099 0.82707 0.0
C1019 C 0.03251 0.22467 0.79866 0.0
O1020 O 0.03721 0.23031 0.81633 0.0
O1021 O 0.06168 0.16664 0.8077 0.0
C1022 C 0.0802 0.22699 0.82231 0.0
O1023 O 0.07735 0.23276 0.80428 0.0
C1024 C 0.0342 0.18234 0.84978 0.0
O1025 O 0.04962 0.17173 0.85372 0.0
O1026 O 0.03945 0.2087 0.79224 0.0
C1027 C 0.57965 0.3245 0.56433 0.0
O1028 O 0.57077 0.33589 0.5769 0.0
O1029 O 0.54918 0.2829 0.58347 0.0
Zn1030 Zn 0.54351 0.30484 0.56513 0.0
O1031 O 0.53117 0.32453 0.58313 0.0
C1032 C 0.52755 0.27697 0.53848 0.0
O1033 O 0.54533 0.26994 0.53927 0.0
O1034 O 0.56973 0.31208 0.55485 0.0
C1035 C 0.51285 0.32366 0.58569 0.0
O1036 O 0.50207 0.31654 0.57158 0.0
C1037 C 0.5585 0.28556 0.59928 0.0
O1038 O 0.56566 0.3029 0.60307 0.0
O1039 O 0.5242 0.29355 0.54606 0.0
C1040 C 0.1728 0.41828 0.16037 0.0
O1041 O 0.15626 0.41552 0.16963 0.0
O1042 O 0.15946 0.45542 0.18979 0.0
Zn1043 Zn 0.17992 0.43522 0.19607 0.0
O1044 O 0.16639 0.41603 0.21356 0.0
C1045 C 0.20386 0.46752 0.20541 0.0
O1046 O 0.19876 0.47255 0.18765 0.0
O1047 O 0.18731 0.4248 0.1699 0.0
C1048 C 0.16764 0.4194 0.23171 0.0
O1049 O 0.18343 0.42792 0.23838 0.0
C1050 C 0.14124 0.45321 0.19251 0.0
O1051 O 0.13472 0.43688 0.20004 0.0
O1052 O 0.20065 0.45009 0.21073 0.0
C1053 C 0.31737 0.41346 0.91326 0.0
O1054 O 0.31289 0.3974 0.92265 0.0
O1055 O 0.27925 0.40999 0.941 0.0
Zn1056 Zn 0.30265 0.42609 0.94767 0.0
O1057 O 0.31822 0.40789 0.96437 0.0
C1058 C 0.28716 0.44952 0.97863 0.0
O1059 O 0.29807 0.43828 0.9896 0.0
O1060 O 0.31557 0.42981 0.92184 0.0
C1061 C 0.3309 0.40759 0.97781 0.0
O1062 O 0.33737 0.42392 0.98545 0.0
C1063 C 0.26931 0.40246 0.95464 0.0
O1064 O 0.27446 0.40561 0.97279 0.0
O1065 O 0.29026 0.44965 0.96037 0.0
C1066 C 0.31661 0.56694 0.66431 0.0
O1067 O 0.3317 0.57379 0.67391 0.0
O1068 O 0.33297 0.51998 0.68472 0.0
Zn1069 Zn 0.31612 0.54116 0.696 0.0
O1070 O 0.33509 0.55691 0.71185 0.0
C1071 C 0.28854 0.53179 0.72813 0.0
O1072 O 0.2904 0.54995 0.7339 0.0
O1073 O 0.30546 0.55481 0.67274 0.0
C1074 C 0.33481 0.57134 0.72343 0.0
O1075 O 0.3183 0.58001 0.72776 0.0
C1076 C 0.35003 0.5234 0.6783 0.0
O1077 O 0.35675 0.54132 0.67872 0.0
O1078 O 0.29662 0.52651 0.71233 0.0
C1079 C 0.16814 0.56628 0.41218 0.0
O1080 O 0.15741 0.5799 0.4203 0.0
O1081 O 0.20851 0.58562 0.44118 0.0
Zn1082 Zn 0.18715 0.56701 0.44841 0.0
O1083 O 0.1677 0.58453 0.46163 0.0
C1084 C 0.21732 0.54277 0.46115 0.0
O1085 O 0.2224 0.54575 0.44293 0.0
O1086 O 0.17903 0.5559 0.42291 0.0
C1087 C 0.16853 0.58626 0.48003 0.0
O1088 O 0.17809 0.57301 0.49 0.0
C1089 C 0.20602 0.60118 0.43142 0.0
O1090 O 0.1885 0.60564 0.42518 0.0
O1091 O 0.20043 0.54814 0.4666 0.0
C1092 C 0.18149 0.57106 0.32886 0.0
O1093 O 0.16971 0.58176 0.31822 0.0
O1094 O 0.15778 0.52644 0.30675 0.0
Zn1095 Zn 0.17787 0.54543 0.29692 0.0
O1096 O 0.16168 0.56481 0.28196 0.0
C1097 C 0.18709 0.52311 0.26465 0.0
O1098 O 0.16832 0.5263 0.26266 0.0
O1099 O 0.18979 0.55646 0.32106 0.0
C1100 C 0.16452 0.57115 0.26484 0.0
O1101 O 0.18121 0.56751 0.25616 0.0
C1102 C 0.14265 0.53319 0.3151 0.0
O1103 O 0.14105 0.5521 0.31758 0.0
O1104 O 0.196 0.53028 0.27923 0.0
C1105 C 0.17039 0.42329 0.07601 0.0
O1106 O 0.16116 0.40965 0.06624 0.0
O1107 O 0.21685 0.41196 0.04848 0.0
Zn1108 Zn 0.19295 0.42681 0.04122 0.0
O1109 O 0.1778 0.40611 0.02706 0.0
C1110 C 0.20945 0.44516 0.00798 0.0
O1111 O 0.20119 0.43041 -0.00101 0.0
O1112 O 0.18221 0.43444 0.06714 0.0
C1113 C 0.16474 0.40355 0.0142 0.0
O1114 O 0.15649 0.41867 0.00587 0.0
C1115 C 0.21598 0.39605 0.05789 0.0
O1116 O 0.19892 0.38952 0.06361 0.0
O1117 O 0.20453 0.44871 0.02547 0.0
C1118 C 0.3242 0.41528 0.82965 0.0
O1119 O 0.34143 0.4158 0.82132 0.0
O1120 O 0.33822 0.45574 0.80745 0.0
Zn1121 Zn 0.31743 0.43737 0.79705 0.0
O1122 O 0.3308 0.42142 0.77639 0.0
C1123 C 0.30246 0.47055 0.7786 0.0
O1124 O 0.32128 0.47389 0.77893 0.0
O1125 O 0.30957 0.42194 0.82044 0.0
C1126 C 0.32758 0.42552 0.75866 0.0
O1127 O 0.31063 0.433 0.75393 0.0
C1128 C 0.3562 0.45443 0.80306 0.0
O1129 O 0.36213 0.43982 0.79223 0.0
O1130 O 0.29594 0.45458 0.78545 0.0
C1131 C 0.32006 0.56702 0.57985 0.0
O1132 O 0.32959 0.58137 0.57151 0.0
O1133 O 0.27762 0.58611 0.55329 0.0
Zn1134 Zn 0.29949 0.56863 0.54477 0.0
O1135 O 0.3188 0.58679 0.53238 0.0
C1136 C 0.27068 0.54453 0.52605 0.0
O1137 O 0.26172 0.54641 0.54287 0.0
O1138 O 0.30856 0.55672 0.56962 0.0
C1139 C 0.32448 0.58513 0.51486 0.0
O1140 O 0.32086 0.56881 0.50552 0.0
C1141 C 0.28115 0.60283 0.56049 0.0
O1142 O 0.2993 0.60864 0.56225 0.0
O1143 O 0.2881 0.55068 0.5245 0.0
C1144 C 0.16284 0.16816 0.4168 0.0
O1145 O 0.17334 0.15414 0.40908 0.0
O1146 O 0.18715 0.15672 0.46247 0.0
Zn1147 Zn 0.19625 0.1735 0.44052 0.0
O1148 O 0.2133 0.15539 0.42491 0.0
C1149 C 0.22772 0.19391 0.45927 0.0
O1150 O 0.23826 0.18071 0.45028 0.0
O1151 O 0.1709 0.18043 0.4281 0.0
C1152 C 0.2279 0.15682 0.41362 0.0
O1153 O 0.23483 0.17407 0.40906 0.0
C1154 C 0.18195 0.13909 0.46019 0.0
O1155 O 0.1833 0.131 0.44289 0.0
O1156 O 0.20977 0.19544 0.45491 0.0
C1157 C 0.66396 0.31894 0.57005 0.0
O1158 O 0.67365 0.33462 0.57526 0.0
O1159 O 0.69279 0.33426 0.53186 0.0
Zn1160 Zn 0.69933 0.31335 0.5515 0.0
O1161 O 0.71641 0.32679 0.57126 0.0
C1162 C 0.7109 0.2891 0.51917 0.0
O1163 O 0.69494 0.2964 0.51148 0.0
O1164 O 0.67316 0.3053 0.56152 0.0
C1165 C 0.73438 0.32729 0.56685 0.0
O1166 O 0.74183 0.31233 0.55752 0.0
C1167 C 0.69324 0.35245 0.53557 0.0
O1168 O 0.69874 0.35845 0.55288 0.0
O1169 O 0.71443 0.29252 0.53703 0.0
C1170 C 0.41768 0.91393 0.32185 0.0
O1171 O 0.40063 0.92261 0.323 0.0
O1172 O 0.40754 0.93844 0.28187 0.0
Zn1173 Zn 0.42496 0.9484 0.30295 0.0
O1174 O 0.40684 0.96579 0.31814 0.0
C1175 C 0.44759 0.97992 0.2853 0.0
O1176 O 0.43778 0.99117 0.29728 0.0
O1177 O 0.43238 0.92377 0.31631 0.0
C1178 C 0.40805 0.9796 0.33041 0.0
O1179 O 0.42519 0.9855 0.33662 0.0
C1180 C 0.40118 0.95072 0.26965 0.0
O1181 O 0.40586 0.96918 0.27168 0.0
O1182 O 0.44649 0.96154 0.28748 0.0
C1183 C 0.82899 0.66939 0.07846 0.0
O1184 O 0.8199 0.65275 0.08115 0.0
O1185 O 0.80248 0.65756 0.0375 0.0
Zn1186 Zn 0.79445 0.67601 0.05878 0.0
O1187 O 0.77676 0.65931 0.07534 0.0
C1188 C 0.78302 0.70248 0.0283 0.0
O1189 O 0.80003 0.69742 0.0211 0.0
O1190 O 0.81965 0.68357 0.07105 0.0
C1191 C 0.75849 0.66218 0.07427 0.0
O1192 O 0.75222 0.67943 0.06887 0.0
C1193 C 0.78922 0.65182 0.02598 0.0
O1194 O 0.77143 0.65843 0.02838 0.0
O1195 O 0.77906 0.69757 0.04572 0.0
C1196 C 0.57306 0.58305 0.31812 0.0
O1197 O 0.58946 0.57395 0.32194 0.0
O1198 O 0.58762 0.55413 0.28079 0.0
Zn1199 Zn 0.56781 0.54723 0.30142 0.0
O1200 O 0.58267 0.53246 0.32199 0.0
C1201 C 0.55553 0.51509 0.28084 0.0
O1202 O 0.57374 0.5113 0.28535 0.0
O1203 O 0.55906 0.57335 0.31075 0.0
C1204 C 0.57975 0.51535 0.32838 0.0
O1205 O 0.56287 0.50688 0.32509 0.0
C1206 C 0.60595 0.55228 0.28295 0.0
O1207 O 0.61279 0.54518 0.29934 0.0
O1208 O 0.54792 0.53086 0.28693 0.0
C1209 C 0.33165 0.82104 0.92394 0.0
O1210 O 0.32245 0.83767 0.92158 0.0
O1211 O 0.30176 0.83336 0.9586 0.0
Zn1212 Zn 0.29512 0.81419 0.93742 0.0
O1213 O 0.28076 0.82996 0.91709 0.0
C1214 C 0.26352 0.80041 0.9588 0.0
O1215 O 0.25804 0.81814 0.95414 0.0
O1216 O 0.32176 0.80612 0.92881 0.0
C1217 C 0.26336 0.82807 0.91106 0.0
O1218 O 0.25434 0.8114 0.91381 0.0
C1219 C 0.29628 0.85105 0.95881 0.0
O1220 O 0.28483 0.85748 0.94493 0.0
O1221 O 0.27933 0.7938 0.95171 0.0
C1222 C 0.42044 0.08036 0.1719 0.0
O1223 O 0.40416 0.0711 0.16788 0.0
O1224 O 0.40803 0.05346 0.21029 0.0
Zn1225 Zn 0.42668 0.04503 0.18956 0.0
O1226 O 0.40941 0.02959 0.17144 0.0
C1227 C 0.44415 0.01251 0.20907 0.0
O1228 O 0.43048 0.00311 0.19953 0.0
O1229 O 0.43467 0.07089 0.17907 0.0
C1230 C 0.41028 0.01471 0.16048 0.0
O1231 O 0.42709 0.00597 0.15766 0.0
C1232 C 0.39342 0.04306 0.21479 0.0
O1233 O 0.39112 0.02606 0.20631 0.0
O1234 O 0.44712 0.03034 0.20501 0.0
C1235 C 0.06208 0.91449 0.67417 0.0
O1236 O 0.07247 0.92488 0.66191 0.0
O1237 O 0.08332 0.94335 0.71794 0.0
Zn1238 Zn 0.06401 0.94902 0.69693 0.0
O1239 O 0.08089 0.96203 0.67678 0.0
C1240 C 0.05105 0.98356 0.7142 0.0
O1241 O 0.0688 0.98813 0.70865 0.0
O1242 O 0.05447 0.92274 0.68888 0.0
C1243 C 0.07822 0.97737 0.6668 0.0
O1244 O 0.06097 0.98569 0.66681 0.0
C1245 C 0.09812 0.93269 0.7146 0.0
O1246 O 0.09999 0.92453 0.69739 0.0
O1247 O 0.0443 0.96685 0.70981 0.0
C1248 C 0.06666 0.24358 0.38936 0.0
C1249 C 0.06589 0.22536 0.37995 0.0
C1250 C 0.06792 0.26089 0.37871 0.0
C1251 C 0.06838 0.2607 0.35822 0.0
H1252 H 0.0653 0.24462 0.40505 0.0
H1253 H 0.06733 0.27453 0.38665 0.0
S1254 S 0.07065 0.2167 0.32673 0.0
N1255 N 0.06862 0.20805 0.34907 0.0
N1256 N 0.07096 0.24064 0.32904 0.0
C1257 C 0.06948 0.24254 0.3487 0.0
C1258 C 0.06821 0.22486 0.35957 0.0
C1259 C -0.00161 0.80039 0.60739 0.0
C1260 C 0.9817 0.78857 0.60699 0.0
C1261 C 0.01104 0.79994 0.62347 0.0
C1262 C 0.00724 0.78768 0.6395 0.0
H1263 H 0.00221 0.80919 0.59486 0.0
H1264 H 0.02433 0.80847 0.6229 0.0
S1265 S 0.96328 0.75711 0.64683 0.0
N1266 N 0.96054 0.7665 0.62487 0.0
N1267 N 0.9842 0.76573 0.65509 0.0
C1268 C 0.98982 0.77696 0.63977 0.0
C1269 C 0.97705 0.7774 0.62347 0.0
C1270 C 0.42871 0.75472 0.88518 0.0
C1271 C 0.44353 0.76774 0.87953 0.0
C1272 C 0.42246 0.73984 0.87269 0.0
C1273 C 0.4305 0.73769 0.85398 0.0
H1274 H 0.42254 0.7554 0.8997 0.0
H1275 H 0.41183 0.72944 0.87803 0.0
S1276 S 0.46827 0.76935 0.83147 0.0
N1277 N 0.46504 0.7785 0.85348 0.0
N1278 N 0.45309 0.75073 0.82987 0.0
C1279 C 0.44443 0.75141 0.84768 0.0
C1280 C 0.45104 0.76636 0.86053 0.0
C1281 C 0.49319 0.19487 0.13717 0.0
C1282 C 0.4768 0.18348 0.13237 0.0
C1283 C 0.508 0.19815 0.12367 0.0
C1284 C 0.50727 0.18986 0.105 0.0
H1285 H 0.49424 0.20214 0.15115 0.0
H1286 H 0.51994 0.20767 0.12777 0.0
S1287 S 0.46897 0.15699 0.08579 0.0
N1288 N 0.46157 0.16251 0.10803 0.0
N1289 N 0.48993 0.16849 0.08273 0.0
C1290 C 0.49177 0.17736 0.10034 0.0
C1291 C 0.47639 0.17422 0.11402 0.0
C1292 C 0.06965 0.76645 0.13316 0.0
C1293 C 0.07015 0.76499 0.11273 0.0
C1294 C 0.07116 0.74982 0.14488 0.0
C1295 C 0.07329 0.73116 0.13658 0.0
H1296 H 0.06679 0.78033 0.14014 0.0
H1297 H 0.06931 0.75153 0.16046 0.0
S1298 S 0.08008 0.72028 0.08397 0.0
N1299 N 0.07624 0.74402 0.08482 0.0
N1300 N 0.07933 0.71276 0.10679 0.0
C1301 C 0.07594 0.72984 0.11626 0.0
C1302 C 0.07424 0.74676 0.10434 0.0
C1303 C 0.4775 0.8189 0.37859 0.0
C1304 C 0.47838 0.81054 0.35982 0.0
C1305 C 0.49251 0.81595 0.39217 0.0
C1306 C 0.50868 0.8044 0.3874 0.0
H1307 H 0.46475 0.82702 0.38316 0.0
H1308 H 0.4909 0.82176 0.40676 0.0
S1309 S 0.51982 0.78208 0.33949 0.0
N1310 N 0.49831 0.79245 0.33654 0.0
N1311 N 0.52612 0.78665 0.36224 0.0
C1312 C 0.51045 0.79716 0.36837 0.0
C1313 C 0.4954 0.80032 0.3545 0.0
C1314 C 0.42993 0.22995 0.63228 0.0
C1315 C 0.4333 0.23206 0.61217 0.0
C1316 C 0.42908 0.24619 0.64462 0.0
C1317 C 0.43151 0.26522 0.63736 0.0
H1318 H 0.42869 0.21559 0.63873 0.0
H1319 H 0.42729 0.24368 0.6601 0.0
S1320 S 0.43816 0.27882 0.58535 0.0
N1321 N 0.43714 0.25479 0.58523 0.0
N1322 N 0.43558 0.2853 0.60836 0.0
C1323 C 0.43368 0.26761 0.61707 0.0
C1324 C 0.4346 0.25105 0.60451 0.0
C1325 C 0.99155 0.20481 0.87634 0.0
C1326 C 0.98932 0.19283 0.89277 0.0
C1327 C 0.00574 0.20088 0.86234 0.0
C1328 C 0.01854 0.18499 0.86434 0.0
H1329 H 0.98222 0.21738 0.87424 0.0
H1330 H 0.00692 0.21074 0.85006 0.0
S1331 S 0.01842 0.14893 0.90465 0.0
N1332 N 0.00059 0.16416 0.91018 0.0
N1333 N 0.02773 0.15685 0.88392 0.0
C1334 C 0.01632 0.17269 0.88061 0.0
C1335 C 0.00157 0.17657 0.8948 0.0
C1336 C 0.38358 0.06693 0.2405 0.0
C1337 C 0.37936 0.05003 0.22957 0.0
C1338 C 0.37121 0.07315 0.25549 0.0
C1339 C 0.35398 0.063 0.25976 0.0
H1340 H 0.39686 0.07508 0.23793 0.0
H1341 H 0.37542 0.08567 0.26417 0.0
S1342 S 0.33592 0.01818 0.23532 0.0
N1343 N 0.35644 0.02348 0.22392 0.0
N1344 N 0.3331 0.0354 0.25188 0.0
C1345 C 0.34918 0.04652 0.24852 0.0
C1346 C 0.36191 0.03997 0.23348 0.0
C1347 C 0.17847 0.10699 0.47691 0.0
C1348 C 0.17621 0.12736 0.47727 0.0
C1349 C 0.17632 0.09592 0.4939 0.0
C1350 C 0.17177 0.10484 0.51182 0.0
H1351 H 0.18313 0.09967 0.46371 0.0
H1352 H 0.1796 0.08048 0.49319 0.0
S1353 S 0.15982 0.15709 0.51938 0.0
N1354 N 0.16604 0.15557 0.49619 0.0
N1355 N 0.16165 0.13474 0.52806 0.0
C1356 C 0.16745 0.1249 0.51187 0.0
C1357 C 0.16983 0.13618 0.49462 0.0
C1358 C 0.11359 0.94463 0.74516 0.0
C1359 C 0.11435 0.93223 0.72882 0.0
C1360 C 0.12973 0.94695 0.75732 0.0
C1361 C 0.1471 0.93676 0.75384 0.0
H1362 H 0.10074 0.95331 0.74818 0.0
H1363 H 0.12878 0.95723 0.76929 0.0
S1364 S 0.15634 0.90112 0.71447 0.0
N1365 N 0.13371 0.9085 0.71072 0.0
N1366 N 0.16403 0.91291 0.73402 0.0
C1367 C 0.14786 0.92348 0.73838 0.0
C1368 C 0.13145 0.9212 0.72575 0.0
C1369 C 0.31783 0.85803 0.9873 0.0
C1370 C 0.30292 0.86417 0.97458 0.0
C1371 C 0.32343 0.86942 0.00326 0.0
C1372 C 0.31453 0.88746 0.00698 0.0
H1373 H 0.3249 0.84406 0.98525 0.0
H1374 H 0.33431 0.86373 0.01319 0.0
S1375 S 0.27498 0.9104 0.978 0.0
N1376 N 0.27963 0.88972 0.96661 0.0
N1377 N 0.29031 0.91119 -0.00347 0.0
C1378 C 0.30019 0.8942 0.99395 0.0
C1379 C 0.29433 0.88252 0.97777 0.0
C1380 C 0.36315 0.92255 0.24102 0.0
C1381 C 0.36222 0.93308 0.22354 0.0
C1382 C 0.37632 0.92796 0.25572 0.0
C1383 C 0.38843 0.94442 0.25355 0.0
H1384 H 0.3535 0.91027 0.24341 0.0
H1385 H 0.37654 0.9196 0.2691 0.0
S1386 S 0.39112 0.97684 0.21044 0.0
N1387 N 0.37443 0.96048 0.20475 0.0
N1388 N 0.39881 0.97092 0.23244 0.0
C1389 C 0.38766 0.95493 0.23604 0.0
C1390 C 0.37461 0.94918 0.221 0.0
C1391 C 0.32235 0.10239 0.4978 0.0
C1392 C 0.31276 0.10679 0.48024 0.0
C1393 C 0.32218 0.11567 0.51334 0.0
C1394 C 0.31234 0.13365 0.51189 0.0
H1395 H 0.32948 0.08845 0.49978 0.0
H1396 H 0.32931 0.1115 0.52679 0.0
S1397 S 0.28586 0.15204 0.46834 0.0
N1398 N 0.294 0.13036 0.46182 0.0
N1399 N 0.29357 0.15535 0.49088 0.0
C1400 C 0.3034 0.13843 0.49403 0.0
C1401 C 0.30367 0.12495 0.47826 0.0
C1402 C 0.10538 0.0655 0.75724 0.0
C1403 C 0.11333 0.05917 0.77501 0.0
C1404 C 0.11689 0.06696 0.7405 0.0
C1405 C 0.1368 0.06199 0.74079 0.0
H1406 H 0.08994 0.06864 0.75602 0.0
H1407 H 0.10982 0.07107 0.727 0.0
S1408 S 0.1652 0.04656 0.78422 0.0
N1409 N 0.14276 0.04959 0.79239 0.0
N1410 N 0.16441 0.05216 0.76085 0.0
C1411 C 0.14529 0.05697 0.7588 0.0
C1412 C 0.13353 0.05559 0.77593 0.0
C1413 C 0.17103 0.89384 -0.00039 0.0
C1414 C 0.16924 0.88583 0.98081 0.0
C1415 C 0.17247 0.88187 0.01606 0.0
C1416 C 0.17223 0.86144 0.01431 0.0
H1417 H 0.17263 0.90943 0.0016 0.0
H1418 H 0.17502 0.88872 0.03006 0.0
S1419 S 0.16348 0.83327 0.96894 0.0
N1420 N 0.16396 0.85624 0.96184 0.0
N1421 N 0.16687 0.83379 0.99274 0.0
C1422 C 0.16849 0.85329 0.99587 0.0
C1423 C 0.16688 0.86549 0.97913 0.0
C1424 C 0.23269 0.36665 0.07153 0.0
C1425 C 0.23376 0.38419 0.0609 0.0
C1426 C 0.24882 0.35419 0.07304 0.0
C1427 C 0.26666 0.35901 0.06427 0.0
H1428 H 0.21914 0.36221 0.07834 0.0
H1429 H 0.24722 0.34055 0.08081 0.0
S1430 S 0.27723 0.40296 0.03451 0.0
N1431 N 0.2543 0.40558 0.04132 0.0
N1432 N 0.28457 0.38233 0.04443 0.0
C1433 C 0.26814 0.37671 0.05403 0.0
C1434 C 0.2517 0.38927 0.05229 0.0
C1435 C 0.74234 0.10632 0.9301 0.0
C1436 C 0.72854 0.11327 0.94358 0.0
C1437 C 0.75615 0.1188 0.92175 0.0
C1438 C 0.75666 0.13878 0.92638 0.0
H1439 H 0.74278 0.091 0.92626 0.0
H1440 H 0.76692 0.11258 0.912 0.0
S1441 S 0.72247 0.16461 0.95962 0.0
N1442 N 0.71537 0.14165 0.9603 0.0
N1443 N 0.74116 0.16517 0.94449 0.0
C1444 C 0.74233 0.14611 0.9392 0.0
C1445 C 0.72839 0.13333 0.94788 0.0
C1446 C 0.13356 0.48356 0.17406 0.0
C1447 C 0.12762 0.46908 0.1873 0.0
C1448 C 0.12172 0.49969 0.17008 0.0
C1449 C 0.10347 0.50193 0.17912 0.0
H1450 H 0.14769 0.48271 0.16706 0.0
H1451 H 0.12725 0.5109 0.16044 0.0
S1452 S 0.08106 0.46803 0.2149 0.0
N1453 N 0.10213 0.45783 0.20925 0.0
N1454 N 0.07981 0.48809 0.2017 0.0
C1455 C 0.09696 0.48714 0.19179 0.0
C1456 C 0.10908 0.47074 0.19592 0.0
C1457 C 0.76077 0.86448 0.4268 0.0
C1458 C 0.75914 0.88473 0.42965 0.0
C1459 C 0.74449 0.85227 0.42825 0.0
C1460 C 0.72591 0.85981 0.43255 0.0
H1461 H 0.77487 0.85781 0.42433 0.0
H1462 H 0.74672 0.83669 0.4269 0.0
S1463 S 0.71327 0.91216 0.43856 0.0
N1464 N 0.73705 0.91205 0.43486 0.0
N1465 N 0.70644 0.88911 0.43752 0.0
C1466 C 0.72378 0.8802 0.43391 0.0
C1467 C 0.74041 0.89266 0.4325 0.0
C1468 C 0.89659 -0.00125 0.17185 0.0
C1469 C 0.88874 0.97987 0.17004 0.0
C1470 C 0.88454 0.01496 0.17474 0.0
C1471 C 0.86416 0.01292 0.17599 0.0
H1472 H 0.91224 0.00095 0.1722 0.0
H1473 H 0.89138 0.029 0.17706 0.0
S1474 S 0.83603 0.96728 0.16839 0.0
N1475 N 0.85908 0.96055 0.16678 0.0
N1476 N 0.83647 0.991 0.17237 0.0
C1477 C 0.856 0.99442 0.17248 0.0
C1478 C 0.86828 0.97791 0.16941 0.0
C1479 C 0.24624 0.60811 0.56909 0.0
C1480 C 0.26485 0.61597 0.56563 0.0
C1481 C 0.23003 0.62019 0.57172 0.0
C1482 C 0.2317 0.64063 0.57072 0.0
H1483 H 0.24406 0.59247 0.56922 0.0
H1484 H 0.21591 0.61334 0.57354 0.0
S1485 S 0.27768 0.66852 0.56397 0.0
N1486 N 0.28442 0.64544 0.56299 0.0
N1487 N 0.25391 0.66821 0.5678 0.0
C1488 C 0.25048 0.6487 0.56853 0.0
C1489 C 0.26705 0.63635 0.56597 0.0
C1490 C 0.09019 0.51674 0.31536 0.0
C1491 C 0.0919 0.49637 0.31581 0.0
C1492 C 0.10669 0.52866 0.31686 0.0
C1493 C 0.1255 0.52055 0.31823 0.0
H1494 H 0.07617 0.52346 0.31257 0.0
H1495 H 0.10476 0.54427 0.31538 0.0
S1496 S 0.13746 0.46799 0.32225 0.0
N1497 N 0.1135 0.46856 0.31981 0.0
N1498 N 0.14466 0.49097 0.32209 0.0
C1499 C 0.12725 0.50023 0.32011 0.0
C1500 C 0.11037 0.48811 0.31904 0.0
C1501 C 0.36341 0.48536 0.8209 0.0
C1502 C 0.36966 0.47057 0.80811 0.0
C1503 C 0.37447 0.5023 0.82369 0.0
C1504 C 0.39231 0.50497 0.81401 0.0
H1505 H 0.34947 0.48427 0.82824 0.0
H1506 H 0.36863 0.51375 0.83287 0.0
S1507 S 0.41569 0.47042 0.77951 0.0
N1508 N 0.39532 0.45947 0.78617 0.0
N1509 N 0.41616 0.49119 0.79164 0.0
C1510 C 0.3993 0.48987 0.802 0.0
C1511 C 0.38795 0.47268 0.79899 0.0
C1512 C 0.91704 0.72914 0.60423 0.0
C1513 C 0.91401 0.74917 0.60125 0.0
C1514 C 0.91681 0.72122 0.62302 0.0
C1515 C 0.91339 0.73296 0.6395 0.0
H1516 H 0.9211 0.71974 0.59222 0.0
H1517 H 0.92056 0.70597 0.62475 0.0
S1518 S 0.90087 0.7855 0.63921 0.0
N1519 N 0.90453 0.78003 0.61606 0.0
N1520 N 0.90421 0.76502 0.65141 0.0
C1521 C 0.9083 0.75255 0.63658 0.0
C1522 C 0.90862 0.76069 0.61742 0.0
C1523 C 0.00488 0.15742 0.35383 0.0
C1524 C 0.9845 0.15934 0.35299 0.0
C1525 C 0.01456 0.15634 0.37176 0.0
C1526 C 0.00423 0.15683 0.38948 0.0
H1527 H 0.01356 0.15815 0.34066 0.0
H1528 H 0.03037 0.15621 0.37176 0.0
S1529 S 0.95046 0.15838 0.39506 0.0
N1530 N 0.95408 0.15917 0.37129 0.0
N1531 N 0.97236 0.15701 0.405 0.0
C1532 C 0.98376 0.15691 0.3888 0.0
C1533 C 0.97387 0.15823 0.37053 0.0
C1534 C 0.58547 0.22222 0.12269 0.0
C1535 C 0.58564 0.23306 0.10526 0.0
C1536 C 0.58715 0.2314 0.14089 0.0
C1537 C 0.58878 0.25177 0.14228 0.0
H1538 H 0.58287 0.20664 0.12235 0.0
H1539 H 0.58546 0.22263 0.1539 0.0
S1540 S 0.59334 0.28643 0.10105 0.0
N1541 N 0.59034 0.26497 0.09055 0.0
N1542 N 0.59326 0.28221 0.12473 0.0
C1543 C 0.59085 0.26254 0.12495 0.0
C1544 C 0.58934 0.25318 0.10642 0.0
C1545 C 0.51247 0.82787 0.88985 0.0
C1546 C 0.49217 0.8299 0.89201 0.0
C1547 C 0.52094 0.82577 0.87143 0.0
C1548 C 0.5095 0.82584 0.85443 0.0
H1549 H 0.5218 0.8266 0.90252 0.0
H1550 H 0.53652 0.82322 0.87054 0.0
S1551 S 0.45608 0.83338 0.85168 0.0
N1552 N 0.46107 0.83408 0.8752 0.0
N1553 N 0.4772 0.83009 0.84062 0.0
C1554 C 0.48947 0.8296 0.85616 0.0
C1555 C 0.48076 0.83171 0.87495 0.0
C1556 C 0.9235 0.26012 0.88718 0.0
C1557 C 0.91816 0.24093 0.89195 0.0
C1558 C 0.92063 0.26743 0.86831 0.0
C1559 C 0.91196 0.25595 0.85366 0.0
H1560 H 0.93095 0.26922 0.89773 0.0
H1561 H 0.92569 0.28203 0.86506 0.0
S1562 S 0.8931 0.20555 0.85954 0.0
N1563 N 0.90219 0.21117 0.8811 0.0
N1564 N 0.89652 0.22498 0.84576 0.0
C1565 C 0.90534 0.23719 0.85865 0.0
C1566 C 0.90851 0.22966 0.87777 0.0
C1567 C 0.51178 0.16812 0.60429 0.0
C1568 C 0.49143 0.16591 0.60293 0.0
C1569 C 0.52115 0.16836 0.62239 0.0
C1570 C 0.51059 0.16617 0.63982 0.0
H1571 H 0.52046 0.17106 0.59143 0.0
H1572 H 0.53668 0.17131 0.62276 0.0
S1573 S 0.45764 0.15609 0.64411 0.0
N1574 N 0.46142 0.15852 0.62048 0.0
N1575 N 0.47916 0.15898 0.65452 0.0
C1576 C 0.49059 0.16191 0.63861 0.0
C1577 C 0.48098 0.16177 0.62014 0.0
C1578 C 0.58434 0.77178 0.36946 0.0
C1579 C 0.58483 0.76055 0.38664 0.0
C1580 C 0.58579 0.76304 0.35105 0.0
C1581 C 0.58756 0.74272 0.34913 0.0
H1582 H 0.58167 0.78733 0.37018 0.0
H1583 H 0.58387 0.77215 0.33831 0.0
S1584 S 0.59304 0.70717 0.38954 0.0
N1585 N 0.58998 0.72836 0.40055 0.0
N1586 N 0.59262 0.71192 0.36597 0.0
C1587 C 0.59 0.73157 0.3662 0.0
C1588 C 0.58866 0.74049 0.38496 0.0
C1589 C 0.98679 0.83408 0.10536 0.0
C1590 C 0.00727 0.83383 0.10496 0.0
C1591 C 0.97666 0.83255 0.12305 0.0
C1592 C 0.98667 0.83106 0.14092 0.0
H1593 H 0.97854 0.83391 0.0919 0.0
H1594 H 0.96089 0.83158 0.12266 0.0
S1595 S 0.0403 0.83278 0.14774 0.0
N1596 N 0.03719 0.83418 0.12393 0.0
N1597 N 0.01818 0.83164 0.15718 0.0
C1598 C 0.0071 0.83258 0.14079 0.0
C1599 C 0.0174 0.83386 0.12278 0.0
C1600 C 0.60644 0.91356 0.74267 0.0
C1601 C 0.60582 0.9197 0.76219 0.0
C1602 C 0.62417 0.91252 0.73255 0.0
C1603 C 0.64194 0.91744 0.74163 0.0
H1604 H 0.59307 0.91066 0.73477 0.0
H1605 H 0.62376 0.90888 0.7172 0.0
S1606 S 0.64838 0.93067 0.79376 0.0
N1607 N 0.62461 0.92805 0.79106 0.0
N1608 N 0.65794 0.92595 0.7722 0.0
C1609 C 0.64164 0.92182 0.76169 0.0
C1610 C 0.62356 0.92305 0.77192 0.0
C1611 C 0.82992 0.89164 0.50443 0.0
C1612 C 0.83068 0.89203 0.48401 0.0
C1613 C 0.82716 0.87401 0.51439 0.0
C1614 C 0.82536 0.85621 0.50425 0.0
H1615 H 0.82999 0.90511 0.51267 0.0
H1616 H 0.82563 0.87444 0.53009 0.0
S1617 S 0.82898 0.84946 0.45074 0.0
N1618 N 0.83138 0.87318 0.45406 0.0
N1619 N 0.82643 0.84001 0.47271 0.0
C1620 C 0.82765 0.85632 0.48391 0.0
C1621 C 0.83024 0.87427 0.4738 0.0
C1622 C 0.87313 0.07932 0.22883 0.0
C1623 C 0.85554 0.08096 0.23927 0.0
C1624 C 0.89114 0.07871 0.2384 0.0
C1625 C 0.89225 0.07947 0.25884 0.0
H1626 H 0.87293 0.07742 0.21316 0.0
H1627 H 0.90411 0.07626 0.22973 0.0
S1628 S 0.85067 0.08696 0.29273 0.0
N1629 N 0.84048 0.08577 0.27096 0.0
N1630 N 0.87436 0.08468 0.28906 0.0
C1631 C 0.8749 0.08289 0.26935 0.0
C1632 C 0.85652 0.08363 0.25954 0.0
C1633 C 0.66373 0.14065 0.98915 0.0
C1634 C 0.66451 0.14222 0.00954 0.0
C1635 C 0.66199 0.12243 0.98007 0.0
C1636 C 0.6611 0.10508 0.99107 0.0
H1637 H 0.66582 0.15339 0.98007 0.0
H1638 H 0.66286 0.12192 0.96433 0.0
S1639 S 0.65744 0.10196 0.04493 0.0
N1640 N 0.66042 0.12541 0.04047 0.0
N1641 N 0.65734 0.09112 0.02343 0.0
C1642 C 0.65966 0.10672 0.01145 0.0
C1643 C 0.66138 0.12529 0.02068 0.0
C1644 C 0.62526 0.07117 0.72115 0.0
C1645 C 0.6076 0.07683 0.72993 0.0
C1646 C 0.64281 0.07153 0.73152 0.0
C1647 C 0.64332 0.07729 0.75118 0.0
H1648 H 0.62542 0.06553 0.7064 0.0
H1649 H 0.65575 0.06586 0.72444 0.0
S1650 S 0.60172 0.09673 0.77984 0.0
N1651 N 0.59213 0.09094 0.75853 0.0
N1652 N 0.62516 0.09146 0.77816 0.0
C1653 C 0.62609 0.08468 0.75957 0.0
C1654 C 0.6082 0.08448 0.74891 0.0
C1655 C 0.6867 0.89881 0.50257 0.0
C1656 C 0.66689 0.89879 0.50771 0.0
C1657 C 0.69609 0.88164 0.49666 0.0
C1658 C 0.68586 0.86388 0.49521 0.0
H1659 H 0.69497 0.91225 0.50291 0.0
H1660 H 0.71134 0.88248 0.49261 0.0
S1661 S 0.63341 0.85634 0.50655 0.0
N1662 N 0.6372 0.87973 0.51085 0.0
N1663 N 0.65462 0.84748 0.49938 0.0
C1664 C 0.66594 0.86374 0.50023 0.0
C1665 C 0.65647 0.88121 0.50642 0.0
C1666 C 0.89114 0.91172 0.25278 0.0
C1667 C 0.89152 0.91447 0.23251 0.0
C1668 C 0.87341 0.90981 0.26274 0.0
C1669 C 0.8555 0.91011 0.25274 0.0
H1670 H 0.90449 0.91242 0.2612 0.0
H1671 H 0.87367 0.90911 0.27851 0.0
S1672 S 0.84877 0.91398 0.19933 0.0
N1673 N 0.87261 0.91523 0.20251 0.0
N1674 N 0.8393 0.91132 0.2213 0.0
C1675 C 0.85576 0.91113 0.23233 0.0
C1676 C 0.87379 0.91341 0.22219 0.0
C1677 C 0.82772 0.12718 -0.00279 0.0
C1678 C 0.81701 0.12885 0.97982 0.0
C1679 C 0.82958 0.10923 0.00674 0.0
C1680 C 0.82077 0.09224 -0.0007 0.0
H1681 H 0.83402 0.13996 0.00403 0.0
H1682 H 0.83703 0.10893 0.02066 0.0
S1683 S 0.79375 0.08817 0.95255 0.0
N1684 N 0.7995 0.11146 0.95425 0.0
N1685 N 0.80296 0.07781 0.97218 0.0
C1686 C 0.81145 0.09338 0.98105 0.0
C1687 C 0.80951 0.11168 0.97135 0.0
C1688 C 0.74216 0.60534 0.91354 0.0
C1689 C 0.76238 0.60367 0.91619 0.0
C1690 C 0.73304 0.62362 0.91438 0.0
C1691 C 0.74386 0.64078 0.91795 0.0
H1692 H 0.73317 0.59239 0.91243 0.0
H1693 H 0.71726 0.62405 0.91373 0.0
S1694 S 0.79781 0.64427 0.92081 0.0
N1695 N 0.79334 0.62071 0.91874 0.0
N1696 N 0.77629 0.65505 0.92032 0.0
C1697 C 0.76432 0.63939 0.91824 0.0
C1698 C 0.77356 0.62081 0.91741 0.0
C1699 C 0.26877 0.86644 0.07904 0.0
C1700 C 0.25968 0.88484 0.07882 0.0
C1701 C 0.25777 0.84924 0.08038 0.0
C1702 C 0.23731 0.84994 0.08111 0.0
H1703 H 0.28445 0.8653 0.07737 0.0
H1704 H 0.26524 0.83536 0.07937 0.0
S1705 S 0.20661 0.89439 0.08287 0.0
N1706 N 0.22915 0.90271 0.08123 0.0
N1707 N 0.20848 0.87039 0.08326 0.0
C1708 C 0.22815 0.86824 0.08213 0.0
C1709 C 0.23935 0.88572 0.08112 0.0
C1710 C 0.85834 0.49509 0.83075 0.0
C1711 C 0.85751 0.51424 0.82358 0.0
C1712 C 0.8761 0.48501 0.83165 0.0
C1713 C 0.89368 0.49378 0.82557 0.0
H1714 H 0.84508 0.48742 0.8346 0.0
H1715 H 0.87583 0.46987 0.83613 0.0
S1716 S 0.89961 0.54507 0.80924 0.0
N1717 N 0.87596 0.54256 0.81291 0.0
N1718 N 0.90934 0.52378 0.81477 0.0
C1719 C 0.89321 0.51355 0.8201 0.0
C1720 C 0.87511 0.52372 0.81899 0.0
C1721 C 0.26452 0.12591 0.58652 0.0
C1722 C 0.25468 0.14383 0.58465 0.0
C1723 C 0.25455 0.10813 0.58482 0.0
C1724 C 0.23447 0.10771 0.58076 0.0
H1725 H 0.28024 0.12562 0.58813 0.0
H1726 H 0.26288 0.09472 0.58527 0.0
S1727 S 0.20149 0.15042 0.5773 0.0
N1728 N 0.22332 0.15996 0.58085 0.0
N1729 N 0.20466 0.12657 0.57734 0.0
C1730 C 0.22421 0.12546 0.58039 0.0
C1731 C 0.2343 0.14354 0.58247 0.0
C1732 C 0.11636 0.99588 0.82889 0.0
C1733 C 0.10541 0.00196 0.81272 0.0
C1734 C 0.13581 0.98977 0.82664 0.0
C1735 C 0.14503 0.99046 0.80832 0.0
H1736 H 0.10969 0.99526 0.84318 0.0
H1737 H 0.14363 0.98427 0.8392 0.0
S1738 S 0.12284 0.0061 0.76167 0.0
N1739 N 0.10523 0.00854 0.77788 0.0
N1740 N 0.14195 -0.00186 0.77394 0.0
C1741 C 0.13443 -0.00275 0.79225 0.0
C1742 C 0.11455 0.00275 0.79438 0.0
C1743 C 0.72252 0.37282 0.42182 0.0
C1744 C 0.7335 0.39012 0.42053 0.0
C1745 C 0.73146 0.35452 0.42097 0.0
C1746 C 0.75178 0.35274 0.41885 0.0
H1747 H 0.70695 0.37336 0.42447 0.0
H1748 H 0.72246 0.34174 0.4232 0.0
S1749 S 0.78676 0.39348 0.41135 0.0
N1750 N 0.76547 0.40428 0.41447 0.0
N1751 N 0.78231 0.36987 0.41263 0.0
C1752 C 0.76272 0.36987 0.41565 0.0
C1753 C 0.75357 0.38857 0.41658 0.0
C1754 C 0.87383 0.47001 0.67472 0.0
C1755 C 0.85612 0.47844 0.66869 0.0
C1756 C 0.8913 0.48056 0.6742 0.0
C1757 C 0.8917 0.50004 0.66785 0.0
H1758 H 0.87412 0.45542 0.68074 0.0
H1759 H 0.90427 0.47375 0.6801 0.0
S1760 S 0.85004 0.52776 0.6473 0.0
N1761 N 0.84058 0.50655 0.65363 0.0
N1762 N 0.87343 0.52645 0.65286 0.0
C1763 C 0.87444 0.50809 0.66021 0.0
C1764 C 0.85664 0.49727 0.66058 0.0
C1765 C 0.61429 0.51767 0.19267 0.0
C1766 C 0.63196 0.5149 0.18272 0.0
C1767 C 0.59743 0.50761 0.18711 0.0
C1768 C 0.59786 0.49396 0.17181 0.0
H1769 H 0.61361 0.52734 0.20515 0.0
H1770 H 0.58435 0.50952 0.19577 0.0
S1771 S 0.64023 0.48253 0.14032 0.0
N1772 N 0.64861 0.49893 0.15586 0.0
N1773 N 0.61707 0.47908 0.14606 0.0
C1774 C 0.61525 0.49167 0.16123 0.0
C1775 C 0.63229 0.50241 0.16652 0.0
C1776 C 0.57116 0.74444 0.88674 0.0
C1777 C 0.56975 0.72585 0.87823 0.0
C1778 C 0.57283 0.76116 0.87526 0.0
C1779 C 0.57292 0.76003 0.85478 0.0
H1780 H 0.57014 0.74621 0.90239 0.0
H1781 H 0.57283 0.77516 0.88258 0.0
S1782 S 0.57298 0.71453 0.8254 0.0
N1783 N 0.5712 0.70701 0.84817 0.0
N1784 N 0.5742 0.73854 0.82655 0.0
C1785 C 0.57328 0.74141 0.84612 0.0
C1786 C 0.57169 0.7243 0.85786 0.0
C1787 C 0.50097 0.31468 0.10028 0.0
C1788 C 0.48593 0.3012 0.10341 0.0
C1789 C 0.5156 0.31738 0.11432 0.0
C1790 C 0.51544 0.30681 0.13194 0.0
H1791 H 0.50196 0.32242 0.08656 0.0
H1792 H 0.52745 0.32728 0.111 0.0
S1793 S 0.47712 0.27189 0.14789 0.0
N1794 N 0.47039 0.27869 0.12584 0.0
N1795 N 0.49748 0.28391 0.15241 0.0
C1796 C 0.49959 0.29426 0.13565 0.0
C1797 C 0.48494 0.29139 0.12129 0.0
C1798 C 0.92597 0.24794 0.3516 0.0
C1799 C 0.93788 0.23164 0.35478 0.0
C1800 C 0.92283 0.26157 0.36653 0.0
C1801 C 0.93135 0.25917 0.38509 0.0
H1802 H 0.92 0.25073 0.33726 0.0
H1803 H 0.91442 0.2745 0.36319 0.0
S1804 S 0.96089 0.2167 0.40129 0.0
N1805 N 0.95625 0.2124 0.37809 0.0
N1806 N 0.95007 0.23761 0.4063 0.0
C1807 C 0.94197 0.24196 0.38875 0.0
C1808 C 0.94534 0.22832 0.37351 0.0
C1809 C 0.00237 0.68676 0.59391 0.0
C1810 C 0.02042 0.67945 0.60037 0.0
C1811 C 0.98789 0.69225 0.60712 0.0
C1812 C 0.99071 0.69043 0.62732 0.0
H1813 H -0.00031 0.68927 0.57856 0.0
H1814 H 0.97451 0.69838 0.60137 0.0
S1815 S 0.03434 0.66974 0.65174 0.0
N1816 N 0.03963 0.66896 0.62829 0.0
N1817 N 0.01222 0.67914 0.65316 0.0
C1818 C 0.00816 0.68197 0.63399 0.0
C1819 C 0.02303 0.67648 0.6205 0.0
C1820 C 0.54355 0.24006 0.62638 0.0
C1821 C 0.5524 0.24237 0.64466 0.0
C1822 C 0.54655 0.25358 0.61151 0.0
C1823 C 0.55815 0.27024 0.61448 0.0
H1824 H 0.53402 0.22776 0.62358 0.0
H1825 H 0.53912 0.25121 0.59779 0.0
S1826 S 0.58533 0.28236 0.65975 0.0
N1827 N 0.57403 0.26171 0.66487 0.0
N1828 N 0.57938 0.28771 0.63705 0.0
C1829 C 0.56763 0.27238 0.63261 0.0
C1830 C 0.56482 0.2583 0.64768 0.0
C1831 C 0.00491 0.32072 0.85963 0.0
C1832 C 0.9847 0.3174 0.85906 0.0
C1833 C 0.01501 0.32055 0.87742 0.0
C1834 C 0.00521 0.31673 0.89511 0.0
H1835 H 0.01318 0.32209 0.84626 0.0
H1836 H 0.03075 0.32182 0.87704 0.0
S1837 S 0.95163 0.31324 0.90159 0.0
N1838 N 0.95475 0.31487 0.87781 0.0
N1839 N 0.97371 0.31408 0.91115 0.0
C1840 C 0.98475 0.31593 0.89481 0.0
C1841 C 0.9745 0.31629 0.87677 0.0
C1842 C 0.92558 0.74605 0.14538 0.0
C1843 C 0.92288 0.76446 0.13676 0.0
C1844 C 0.92742 0.72922 0.13397 0.0
C1845 C 0.92667 0.73018 0.11351 0.0
H1846 H 0.92746 0.74469 0.16099 0.0
H1847 H 0.9305 0.71557 0.14126 0.0
S1848 S 0.9159 0.77421 0.08399 0.0
N1849 N 0.91655 0.78216 0.10667 0.0
N1850 N 0.92016 0.75057 0.08524 0.0
C1851 C 0.92228 0.7482 0.1048 0.0
C1852 C 0.9203 0.76533 0.11642 0.0
C1853 C 0.50133 0.69882 0.35611 0.0
C1854 C 0.51755 0.68689 0.36006 0.0
C1855 C 0.48644 0.70116 0.36973 0.0
C1856 C 0.48693 0.69138 0.38765 0.0
H1857 H 0.5004 0.70711 0.34272 0.0
H1858 H 0.47461 0.71109 0.36636 0.0
S1859 S 0.52495 0.65708 0.40463 0.0
N1860 N 0.53251 0.66413 0.38289 0.0
N1861 N 0.50402 0.66842 0.40839 0.0
C1862 C 0.50235 0.67853 0.39147 0.0
C1863 C 0.51779 0.67632 0.37768 0.0
C1864 C 0.84286 0.56967 0.74305 0.0
C1865 C 0.851 0.57599 0.7608 0.0
C1866 C 0.85471 0.56505 0.72709 0.0
C1867 C 0.87514 0.56663 0.72823 0.0
H1868 H 0.82735 0.56691 0.74182 0.0
H1869 H 0.84779 0.5592 0.71416 0.0
S1870 S 0.90327 0.58707 0.76972 0.0
N1871 N 0.88044 0.58696 0.77734 0.0
N1872 N 0.90271 0.57825 0.74735 0.0
C1873 C 0.8833 0.57488 0.74515 0.0
C1874 C 0.87121 0.57963 0.76141 0.0
C1875 C 0.67599 0.6292 0.99575 0.0
C1876 C 0.68585 0.6228 0.97899 0.0
C1877 C 0.6721 0.61643 0.01115 0.0
C1878 C 0.67813 0.59682 0.01048 0.0
H1879 H 0.67158 0.64431 -0.00287 0.0
H1880 H 0.66507 0.62222 0.02405 0.0
S1881 S 0.70415 0.57286 0.96938 0.0
N1882 N 0.70102 0.59559 0.96216 0.0
N1883 N 0.69394 0.57151 0.99112 0.0
C1884 C 0.68732 0.59006 0.99336 0.0
C1885 C 0.69116 0.60309 0.97763 0.0
C1886 C 0.63695 0.42523 0.22423 0.0
C1887 C 0.61651 0.42338 0.22445 0.0
C1888 C 0.64789 0.42327 0.24135 0.0
C1889 C 0.63878 0.41944 0.25933 0.0
H1890 H 0.6445 0.42941 0.21102 0.0
H1891 H 0.6634 0.42623 0.24066 0.0
S1892 S 0.58626 0.4086 0.26684 0.0
N1893 N 0.58802 0.41404 0.24349 0.0
N1894 N 0.6086 0.41031 0.27562 0.0
C1895 C 0.61865 0.41541 0.25932 0.0
C1896 C 0.6075 0.41745 0.2419 0.0
C1897 C 0.8081 0.36635 0.51546 0.0
C1898 C 0.81164 0.38647 0.51341 0.0
C1899 C 0.80696 0.35408 0.49922 0.0
C1900 C 0.80946 0.36135 0.48024 0.0
H1901 H 0.8053 0.36007 0.52966 0.0
H1902 H 0.80358 0.33884 0.50161 0.0
S1903 S 0.82106 0.41258 0.46699 0.0
N1904 N 0.81915 0.41286 0.49095 0.0
N1905 N 0.81712 0.38978 0.46039 0.0
C1906 C 0.81408 0.38125 0.47801 0.0
C1907 C 0.81515 0.3938 0.49459 0.0
C1908 C 0.88211 0.42396 0.75135 0.0
C1909 C 0.87777 0.44101 0.76197 0.0
C1910 C 0.86905 0.41649 0.73753 0.0
C1911 C 0.85103 0.42555 0.73405 0.0
H1912 H 0.8959 0.41654 0.75336 0.0
H1913 H 0.87332 0.40382 0.72912 0.0
S1914 S 0.83237 0.47032 0.75821 0.0
N1915 N 0.8539 0.46654 0.76825 0.0
N1916 N 0.82935 0.45237 0.74248 0.0
C1917 C 0.8462 0.44224 0.745 0.0
C1918 C 0.8596 0.45002 0.75887 0.0
C1919 C 0.81012 0.62522 0.01207 0.0
C1920 C 0.79343 0.63717 0.01074 0.0
C1921 C 0.81346 0.61015 -0.0014 0.0
C1922 C 0.80021 0.60676 0.98335 0.0
H1923 H 0.82039 0.62714 0.02392 0.0
H1924 H 0.82616 0.60096 0.00039 0.0
S1925 S 0.75536 0.63482 0.97233 0.0
N1926 N 0.76432 0.64524 0.99209 0.0
N1927 N 0.77059 0.61697 0.96695 0.0
C1928 C 0.78394 0.61899 0.98147 0.0
C1929 C 0.78052 0.6342 0.99512 0.0
C1930 C 0.61229 0.56898 0.25123 0.0
C1931 C 0.61932 0.55783 0.26693 0.0
C1932 C 0.6241 0.5732 0.23514 0.0
C1933 C 0.64345 0.5665 0.23409 0.0
H1934 H 0.59736 0.57414 0.25111 0.0
H1935 H 0.61777 0.58121 0.2231 0.0
S1936 S 0.66913 0.53715 0.27169 0.0
N1937 N 0.6471 0.54063 0.28072 0.0
N1938 N 0.66935 0.5486 0.25056 0.0
C1939 C 0.65097 0.55602 0.25009 0.0
C1940 C 0.63888 0.55165 0.26646 0.0
C1941 C 0.67569 0.36048 0.50482 0.0
C1942 C 0.68741 0.36664 0.52046 0.0
C1943 C 0.67115 0.37308 0.48947 0.0
C1944 C 0.6782 0.39234 0.48908 0.0
H1945 H 0.67031 0.34564 0.50418 0.0
H1946 H 0.6627 0.36741 0.47739 0.0
S1947 S 0.70885 0.41592 0.52701 0.0
N1948 N 0.70532 0.39355 0.53513 0.0
N1949 N 0.69686 0.41726 0.50621 0.0
C1950 C 0.68917 0.39902 0.50512 0.0
C1951 C 0.69379 0.38615 0.5208 0.0
C1952 C 0.71032 0.85232 0.55758 0.0
C1953 C 0.71547 0.87128 0.55164 0.0
C1954 C 0.72451 0.83771 0.55974 0.0
C1955 C 0.74437 0.84172 0.55659 0.0
H1956 H 0.69518 0.84862 0.5602 0.0
H1957 H 0.7199 0.82314 0.56372 0.0
S1958 S 0.7656 0.88902 0.54101 0.0
N1959 N 0.74197 0.89321 0.5427 0.0
N1960 N 0.76849 0.86596 0.54714 0.0
C1961 C 0.74975 0.8607 0.55103 0.0
C1962 C 0.73534 0.87542 0.54843 0.0
C1963 C 0.24126 0.60905 0.43482 0.0
C1964 C 0.22238 0.61511 0.42953 0.0
C1965 C 0.2564 0.62249 0.43692 0.0
C1966 C 0.25331 0.64238 0.43346 0.0
H1967 H 0.24417 0.59395 0.4384 0.0
H1968 H 0.27039 0.61742 0.44227 0.0
S1969 S 0.20749 0.66573 0.41729 0.0
N1970 N 0.20198 0.64236 0.41922 0.0
N1971 N 0.2308 0.66756 0.42312 0.0
C1972 C 0.23507 0.64856 0.42675 0.0
C1973 C 0.21949 0.6349 0.42473 0.0
C1974 C 0.62548 0.01122 0.66875 0.0
C1975 C 0.60496 0.01037 0.66885 0.0
C1976 C 0.63678 0.99457 0.67195 0.0
C1977 C 0.62807 0.9763 0.67517 0.0
H1978 H 0.63298 0.02505 0.66732 0.0
H1979 H 0.65248 0.99623 0.67261 0.0
S1980 S 0.57499 0.9655 0.67343 0.0
N1981 N 0.57643 0.98925 0.6699 0.0
N1982 N 0.5977 0.95787 0.6758 0.0
C1983 C 0.60762 0.97489 0.67362 0.0
C1984 C 0.59607 0.99193 0.67044 0.0
C1985 C 0.23732 0.36625 0.92777 0.0
C1986 C 0.22209 0.36314 0.94102 0.0
C1987 C 0.25233 0.37945 0.93209 0.0
C1988 C 0.25281 0.38947 0.95003 0.0
H1989 H 0.23762 0.35846 0.91404 0.0
H1990 H 0.26389 0.38144 0.92152 0.0
S1991 S 0.21644 0.38552 0.98987 0.0
N1992 N 0.20827 0.37074 0.97272 0.0
N1993 N 0.23672 0.39513 0.98114 0.0
C1994 C 0.23763 0.3863 0.96342 0.0
C1995 C 0.22219 0.37322 0.95883 0.0
C1996 C 0.38348 0.51002 0.67283 0.0
C1997 C 0.36317 0.50706 0.67312 0.0
C1998 C 0.39642 0.4943 0.67137 0.0
C1999 C 0.38956 0.47499 0.67009 0.0
H2000 H 0.38952 0.52447 0.67487 0.0
H2001 H 0.4119 0.49728 0.67245 0.0
S2002 S 0.33763 0.45982 0.66644 0.0
N2003 N 0.33677 0.48371 0.66919 0.0
N2004 N 0.36102 0.45413 0.66636 0.0
C2005 C 0.36927 0.47202 0.66855 0.0
C2006 C 0.3561 0.48805 0.67013 0.0
C2007 C 0.73886 0.12786 0.0776 0.0
C2008 C 0.73357 0.1427 0.0646 0.0
C2009 C 0.75495 0.11583 0.07374 0.0
C2010 C 0.76605 0.11818 0.05664 0.0
H2011 H 0.7303 0.1253 0.09062 0.0
H2012 H 0.7585 0.10439 0.08402 0.0
S2013 S 0.75659 0.15362 0.01691 0.0
N2014 N 0.73977 0.15838 0.03345 0.0
N2015 N 0.76984 0.13575 0.02608 0.0
C2016 C 0.76082 0.133 0.04351 0.0
C2017 C 0.74457 0.14526 0.0475 0.0
C2018 C 0.63158 -0.0004 0.82316 0.0
C2019 C 0.62393 0.01754 0.81691 0.0
C2020 C 0.61941 0.98366 0.82682 0.0
C2021 C 0.59909 0.98491 0.82413 0.0
H2022 H 0.64719 -0.00242 0.82455 0.0
H2023 H 0.6262 0.96992 0.83062 0.0
S2024 S 0.57148 0.02959 0.81091 0.0
N2025 N 0.59457 0.03642 0.81051 0.0
N2026 N 0.57164 0.00639 0.81729 0.0
C2027 C 0.59109 0.00326 0.81952 0.0
C2028 C 0.60353 0.01958 0.81587 0.0
C2029 C 0.86237 0.99048 0.31737 0.0
C2030 C 0.85575 0.98967 0.2979 0.0
C2031 C 0.8758 0.00468 0.32344 0.0
C2032 C 0.88285 0.01856 0.31026 0.0
H2033 H 0.85743 0.97986 0.32795 0.0
H2034 H 0.88076 0.00475 0.33843 0.0
S2035 S 0.86979 0.0236 0.25813 0.0
N2036 N 0.85707 0.00462 0.26572 0.0
N2037 N 0.88221 0.03123 0.27728 0.0
C2038 C 0.87619 0.01821 0.29095 0.0
C2039 C 0.86264 0.00378 0.28471 0.0
C2040 C 0.40886 0.25846 0.13839 0.0
C2041 C 0.40768 0.23811 0.14033 0.0
C2042 C 0.41071 0.26713 0.11999 0.0
C2043 C 0.41117 0.25581 0.10286 0.0
H2044 H 0.40989 0.26769 0.15116 0.0
H2045 H 0.41277 0.28278 0.11927 0.0
S2046 S 0.40535 0.20214 0.09994 0.0
N2047 N 0.40466 0.20703 0.12349 0.0
N2048 N 0.40795 0.22338 0.08893 0.0
C2049 C 0.40817 0.23562 0.1045 0.0
C2050 C 0.40647 0.22676 0.12325 0.0
C2051 C 0.47408 0.66701 0.87135 0.0
C2052 C 0.48324 0.66571 0.85304 0.0
C2053 C 0.48477 0.66533 0.88865 0.0
C2054 C 0.5051 0.66254 0.88831 0.0
H2055 H 0.45864 0.67024 0.87237 0.0
H2056 H 0.47718 0.66759 0.9023 0.0
S2057 S 0.5356 0.65528 0.84419 0.0
N2058 N 0.51344 0.65917 0.83563 0.0
N2059 N 0.53358 0.6561 0.86814 0.0
C2060 C 0.51417 0.65961 0.87012 0.0
C2061 C 0.50323 0.66118 0.85248 0.0
C2062 C 0.072 0.76541 0.62012 0.0
C2063 C 0.07677 0.75335 0.636 0.0
C2064 C 0.0698 0.75775 0.60134 0.0
C2065 C 0.07256 0.73777 0.5976 0.0
H2066 H 0.06855 0.78066 0.6224 0.0
H2067 H 0.06497 0.76744 0.58986 0.0
S2068 S 0.08862 0.70072 0.6337 0.0
N2069 N 0.08634 0.72098 0.64651 0.0
N2070 N 0.08306 0.70659 0.61105 0.0
C2071 C 0.07908 0.72589 0.61307 0.0
C2072 C 0.08091 0.73366 0.63231 0.0
C2073 C 0.98271 0.32597 0.35728 0.0
C2074 C 0.0031 0.32723 0.35588 0.0
C2075 C 0.97334 0.32769 0.37534 0.0
C2076 C 0.98399 0.33103 0.3926 0.0
H2077 H 0.97403 0.32222 0.34464 0.0
H2078 H 0.95774 0.32523 0.37595 0.0
S2079 S 0.03734 0.3393 0.39597 0.0
N2080 N 0.03341 0.33479 0.37266 0.0
N2081 N 0.01576 0.33825 0.40661 0.0
C2082 C 0.00416 0.3343 0.39105 0.0
C2083 C 0.01374 0.33229 0.37268 0.0
C2084 C 0.40575 0.73574 0.35582 0.0
C2085 C 0.40577 0.75618 0.35441 0.0
C2086 C 0.40815 0.7265 0.37387 0.0
C2087 C 0.41037 0.73734 0.39118 0.0
H2088 H 0.40551 0.72682 0.3428 0.0
H2089 H 0.40933 0.71075 0.37412 0.0
S2090 S 0.40783 0.79116 0.39566 0.0
N2091 N 0.40549 0.78693 0.37209 0.0
N2092 N 0.40982 0.76954 0.40602 0.0
C2093 C 0.40841 0.7577 0.39019 0.0
C2094 C 0.40615 0.76712 0.37179 0.0
C2095 C 0.97841 0.65976 0.11992 0.0
C2096 C 0.98806 0.66075 0.10184 0.0
C2097 C 0.98873 0.66132 0.13747 0.0
C2098 C 0.00897 0.66443 0.13748 0.0
H2099 H 0.96264 0.65888 0.12047 0.0
H2100 H 0.98061 0.66156 0.15101 0.0
S2101 S 0.04134 0.66558 0.0942 0.0
N2102 N 0.01921 0.66281 0.08508 0.0
N2103 N 0.0386 0.66618 0.11809 0.0
C2104 C 0.01895 0.66401 0.11957 0.0
C2105 C 0.00849 0.66202 0.10171 0.0
C2106 C 0.07053 0.2594 0.83532 0.0
C2107 C 0.08024 0.24158 0.83821 0.0
C2108 C 0.06419 0.2706 0.85114 0.0
C2109 C 0.0677 0.26466 0.87043 0.0
H2110 H 0.06625 0.26396 0.82083 0.0
H2111 H 0.05573 0.28361 0.84821 0.0
S2112 S 0.09574 0.22107 0.88575 0.0
N2113 N 0.09531 0.21979 0.86172 0.0
N2114 N 0.08385 0.24121 0.89152 0.0
C2115 C 0.07912 0.24794 0.87352 0.0
C2116 C 0.08531 0.23633 0.85738 0.0
C2117 C 0.50235 0.29542 0.63138 0.0
C2118 C 0.49134 0.30847 0.64273 0.0
C2119 C 0.50956 0.30086 0.61317 0.0
C2120 C 0.50631 0.31958 0.60564 0.0
H2121 H 0.50484 0.28059 0.63618 0.0
H2122 H 0.51723 0.29008 0.6046 0.0
S2123 S 0.47988 0.35987 0.62989 0.0
N2124 N 0.47853 0.34156 0.64547 0.0
N2125 N 0.49235 0.35161 0.611 0.0
C2126 C 0.49603 0.33309 0.61696 0.0
C2127 C 0.48855 0.32759 0.63561 0.0
C2128 C 0.13386 0.40853 0.23969 0.0
C2129 C 0.14914 0.42191 0.24239 0.0
C2130 C 0.11521 0.41216 0.24725 0.0
C2131 C 0.11112 0.42943 0.25757 0.0
H2132 H 0.13627 0.39531 0.23137 0.0
H2133 H 0.10392 0.40136 0.24489 0.0
S2134 S 0.14583 0.46994 0.2672 0.0
N2135 N 0.1588 0.4535 0.25536 0.0
N2136 N 0.12381 0.46045 0.26936 0.0
C2137 C 0.1263 0.443 0.26027 0.0
C2138 C 0.1453 0.4392 0.25275 0.0
C2139 C 0.33097 0.36848 0.01609 0.0
C2140 C 0.32957 0.35136 0.00475 0.0
C2141 C 0.33352 0.3868 0.00741 0.0
C2142 C 0.33465 0.3886 0.98709 0.0
H2143 H 0.32894 0.36792 0.03173 0.0
H2144 H 0.33297 0.39969 0.01653 0.0
S2145 S 0.33549 0.34828 0.95108 0.0
N2146 N 0.33241 0.33733 0.97227 0.0
N2147 N 0.337 0.37179 0.95603 0.0
C2148 C 0.33514 0.37153 0.97574 0.0
C2149 C 0.33268 0.35288 0.98456 0.0
C2150 C 0.37089 0.57381 0.72379 0.0
C2151 C 0.35308 0.57604 0.73374 0.0
C2152 C 0.38863 0.57324 0.73385 0.0
C2153 C 0.38912 0.57447 0.75426 0.0
H2154 H 0.37102 0.57143 0.70818 0.0
H2155 H 0.40185 0.57042 0.72567 0.0
S2156 S 0.34689 0.58338 0.78687 0.0
N2157 N 0.33723 0.5819 0.76487 0.0
N2158 N 0.37063 0.5805 0.78391 0.0
C2159 C 0.37159 0.57825 0.76426 0.0
C2160 C 0.35353 0.57916 0.75395 0.0
C2161 C 0.16757 0.62535 0.51865 0.0
C2162 C 0.16804 0.64268 0.50767 0.0
C2163 C 0.1659 0.60713 0.50963 0.0
C2164 C 0.16456 0.60544 0.48926 0.0
H2165 H 0.16956 0.62571 0.5343 0.0
H2166 H 0.16684 0.59422 0.51867 0.0
S2167 S 0.16145 0.64652 0.45412 0.0
N2168 N 0.16428 0.65713 0.47552 0.0
N2169 N 0.16099 0.62288 0.45855 0.0
C2170 C 0.16304 0.62272 0.47825 0.0
C2171 C 0.16485 0.64134 0.48746 0.0
C2172 C 0.14601 0.56969 0.23369 0.0
C2173 C 0.14704 0.57596 0.25317 0.0
C2174 C 0.12807 0.56854 0.224 0.0
C2175 C 0.1106 0.57395 0.2333 0.0
H2176 H 0.15885 0.56416 0.22635 0.0
H2177 H 0.12781 0.56256 0.20939 0.0
S2178 S 0.10588 0.59423 0.28315 0.0
N2179 N 0.12941 0.58974 0.28067 0.0
N2180 N 0.09572 0.58794 0.26226 0.0
C2181 C 0.11165 0.58193 0.25212 0.0
C2182 C 0.12989 0.58285 0.2621 0.0
C2183 C 0.17014 0.3678 0.01725 0.0
C2184 C 0.16219 0.38342 0.00657 0.0
C2185 C 0.17266 0.34939 0.00888 0.0
C2186 C 0.16725 0.34575 0.98948 0.0
H2187 H 0.17565 0.37005 0.03188 0.0
H2188 H 0.18009 0.33834 0.01735 0.0
S2189 S 0.14143 0.38031 0.95674 0.0
N2190 N 0.14587 0.39312 0.97664 0.0
N2191 N 0.15015 0.35829 0.96099 0.0
C2192 C 0.15713 0.36054 0.97938 0.0
C2193 C 0.15472 0.37945 0.9879 0.0
C2194 C 0.36141 0.41775 0.7478 0.0
C2195 C 0.34482 0.42972 0.74648 0.0
C2196 C 0.37919 0.42339 0.73941 0.0
C2197 C 0.38112 0.44145 0.72991 0.0
H2198 H 0.36076 0.40418 0.75584 0.0
H2199 H 0.39167 0.41382 0.74093 0.0
S2200 S 0.34189 0.47787 0.72192 0.0
N2201 N 0.33126 0.46012 0.73417 0.0
N2202 N 0.36474 0.47092 0.71893 0.0
C2203 C 0.36454 0.45336 0.72812 0.0
C2204 C 0.34635 0.44743 0.73623 0.0
C2205 C 0.33076 0.62099 0.51426 0.0
C2206 C 0.3292 0.60323 0.50401 0.0
C2207 C 0.32951 0.63893 0.50462 0.0
C2208 C 0.32665 0.63978 0.48438 0.0
H2209 H 0.33158 0.62111 0.53002 0.0
H2210 H 0.32943 0.65213 0.5133 0.0
S2211 S 0.32641 0.59775 0.45025 0.0
N2212 N 0.32819 0.58779 0.47206 0.0
N2213 N 0.32588 0.62151 0.45397 0.0
C2214 C 0.32727 0.62224 0.47372 0.0
C2215 C 0.3286 0.60395 0.48352 0.0
C2216 C 0.22913 0.12085 0.40941 0.0
C2217 C 0.23912 0.13879 0.4099 0.0
C2218 C 0.2391 0.10312 0.41118 0.0
C2219 C 0.2594 0.10273 0.41384 0.0
H2220 H 0.21334 0.12055 0.40879 0.0
H2221 H 0.23067 0.08977 0.41184 0.0
S2222 S 0.29276 0.14531 0.41264 0.0
N2223 N 0.27075 0.15486 0.41051 0.0
N2224 N 0.28949 0.12149 0.41407 0.0
C2225 C 0.26975 0.12041 0.41269 0.0
C2226 C 0.25961 0.13848 0.41061 0.0
C2227 C 0.75571 0.36941 0.53881 0.0
C2228 C 0.75444 0.38501 0.55203 0.0
C2229 C 0.75016 0.35058 0.5442 0.0
C2230 C 0.74274 0.34668 0.5629 0.0
H2231 H 0.7614 0.37165 0.52426 0.0
H2232 H 0.75113 0.33912 0.53337 0.0
S2233 S 0.73611 0.38246 0.60279 0.0
N2234 N 0.74539 0.39536 0.5847 0.0
N2235 N 0.73412 0.35989 0.59457 0.0
C2236 C 0.7412 0.36213 0.57623 0.0
C2237 C 0.74728 0.38131 0.57087 0.0
C2238 C 0.37204 0.9812 0.33419 0.0
C2239 C 0.39013 0.99094 0.33422 0.0
C2240 C 0.35446 0.9915 0.33285 0.0
C2241 C 0.35436 0.01191 0.33111 0.0
H2242 H 0.37152 0.96541 0.33414 0.0
H2243 H 0.34099 0.9833 0.33181 0.0
S2244 S 0.39753 0.04447 0.33324 0.0
N2245 N 0.40672 0.02226 0.33465 0.0
N2246 N 0.37365 0.04166 0.33186 0.0
C2247 C 0.37223 0.02192 0.33261 0.0
C2248 C 0.39014 0.01141 0.33428 0.0
C2249 C 0.74002 0.61018 0.07617 0.0
C2250 C 0.72911 0.60892 0.05888 0.0
C2251 C 0.74873 0.62786 0.0818 0.0
C2252 C 0.74607 0.64493 0.07075 0.0
H2253 H 0.74263 0.59725 0.08484 0.0
H2254 H 0.75808 0.62806 0.09452 0.0
S2255 S 0.71704 0.64943 0.02527 0.0
N2256 N 0.71528 0.62621 0.0313 0.0
N2257 N 0.73047 0.65961 0.04244 0.0
C2258 C 0.73406 0.64402 0.05413 0.0
C2259 C 0.72589 0.62593 0.04803 0.0
C2260 C 0.59826 0.48465 0.32314 0.0
C2261 C 0.59739 0.50338 0.33142 0.0
C2262 C 0.6162 0.47549 0.3198 0.0
C2263 C 0.63392 0.48459 0.32485 0.0
H2264 H 0.58517 0.47765 0.31772 0.0
H2265 H 0.61618 0.46149 0.31247 0.0
S2266 S 0.63924 0.53228 0.34985 0.0
N2267 N 0.61549 0.52971 0.34673 0.0
N2268 N 0.64926 0.51239 0.34071 0.0
C2269 C 0.63313 0.50254 0.33473 0.0
C2270 C 0.61484 0.51193 0.33799 0.0
C2271 C 0.2536 0.88209 0.90908 0.0
C2272 C 0.2343 0.88328 0.91588 0.0
C2273 C 0.26232 0.86399 0.90533 0.0
C2274 C 0.25212 0.84638 0.90832 0.0
H2275 H 0.26246 0.8951 0.90779 0.0
H2276 H 0.27765 0.86377 0.90148 0.0
S2277 S 0.19976 0.84193 0.9214 0.0
N2278 N 0.20414 0.86558 0.92192 0.0
N2279 N 0.22058 0.83159 0.91513 0.0
C2280 C 0.23216 0.84752 0.91296 0.0
C2281 C 0.22328 0.86597 0.91679 0.0
C2282 C 0.37418 0.01592 0.15653 0.0
C2283 C 0.39151 0.00484 0.15617 0.0
C2284 C 0.35589 0.00701 0.15848 0.0
C2285 C 0.35427 0.98669 0.16029 0.0
H2286 H 0.37484 0.0317 0.15667 0.0
H2287 H 0.34316 0.01621 0.1601 0.0
S2288 S 0.39457 0.95084 0.15613 0.0
N2289 N 0.40548 0.97227 0.15476 0.0
N2290 N 0.37105 0.95554 0.15829 0.0
C2291 C 0.37121 0.97535 0.15789 0.0
C2292 C 0.38986 0.98441 0.1558 0.0
C2293 C 0.11346 0.97821 0.65807 0.0
C2294 C 0.09594 0.98845 0.6614 0.0
C2295 C 0.13161 0.98754 0.65942 0.0
C2296 C 0.13281 0.00735 0.66443 0.0
H2297 H 0.11321 0.96257 0.65586 0.0
H2298 H 0.14473 0.97884 0.65815 0.0
S2299 S 0.09144 0.04155 0.67073 0.0
N2300 N 0.08102 0.02019 0.66684 0.0
N2301 N 0.11516 0.0376 0.66961 0.0
C2302 C 0.11546 0.01816 0.66581 0.0
C2303 C 0.09698 0.00874 0.66416 0.0
C2304 C 0.97802 0.25085 0.28236 0.0
C2305 C 0.98063 0.23051 0.28311 0.0
C2306 C 0.99395 0.2636 0.28338 0.0
C2307 C 0.01315 0.25653 0.28498 0.0
H2308 H 0.96351 0.25709 0.28245 0.0
H2309 H 0.99108 0.27911 0.2841 0.0
S2310 S 0.0281 0.2045 0.28318 0.0
N2311 N 0.00405 0.20388 0.28235 0.0
N2312 N 0.03403 0.22781 0.28408 0.0
C2313 C 0.0161 0.23624 0.28355 0.0
C2314 C -0.00017 0.22324 0.28267 0.0
C2315 C 0.98971 0.72606 0.52705 0.0
C2316 C 0.01 0.72912 0.52618 0.0
C2317 C 0.9767 0.74175 0.52854 0.0
C2318 C 0.98344 0.76113 0.52913 0.0
H2319 H 0.98383 0.71144 0.52803 0.0
H2320 H 0.96137 0.73853 0.53054 0.0
S2321 S 0.03484 0.77707 0.52258 0.0
N2322 N 0.03594 0.75303 0.52251 0.0
N2323 N 0.01154 0.78253 0.52522 0.0
C2324 C 0.0035 0.76443 0.52603 0.0
C2325 C 0.01677 0.74843 0.52459 0.0
C2326 C 0.49665 0.76248 0.77971 0.0
C2327 C 0.51518 0.75413 0.78258 0.0
C2328 C 0.47982 0.75092 0.779 0.0
C2329 C 0.48086 0.73056 0.78133 0.0
H2330 H 0.49494 0.77817 0.77926 0.0
H2331 H 0.46583 0.75821 0.77818 0.0
S2332 S 0.52614 0.70115 0.78509 0.0
N2333 N 0.53381 0.72396 0.78455 0.0
N2334 N 0.50216 0.70228 0.78332 0.0
C2335 C 0.49944 0.72187 0.78208 0.0
C2336 C 0.51661 0.73364 0.78269 0.0
C2337 C 0.48061 0.24779 0.02798 0.0
C2338 C 0.48629 0.26663 0.03371 0.0
C2339 C 0.49375 0.23215 0.02862 0.0
C2340 C 0.51302 0.23468 0.0353 0.0
H2341 H 0.46561 0.24491 0.02393 0.0
H2342 H 0.48835 0.21776 0.02498 0.0
S2343 S 0.5357 0.28163 0.05013 0.0
N2344 N 0.51298 0.28734 0.04464 0.0
N2345 N 0.53761 0.25802 0.04596 0.0
C2346 C 0.51929 0.25377 0.03968 0.0
C2347 C 0.50593 0.26972 0.03887 0.0
C2348 C 0.99429 0.72928 0.21032 0.0
C2349 C 0.01327 0.73709 0.20961 0.0
C2350 C 0.97788 0.7414 0.21094 0.0
C2351 C 0.97982 0.76182 0.2107 0.0
H2352 H 0.99201 0.7137 0.20909 0.0
H2353 H 0.96362 0.73467 0.21002 0.0
S2354 S 0.02624 0.78953 0.21354 0.0
N2355 N 0.03305 0.76648 0.21226 0.0
N2356 N 0.00216 0.78925 0.21329 0.0
C2357 C -0.00131 0.76976 0.21225 0.0
C2358 C 0.01544 0.7574 0.21176 0.0
C2359 C 0.48116 0.74403 0.46364 0.0
C2360 C 0.487 0.72547 0.45722 0.0
C2361 C 0.4941 0.75986 0.46339 0.0
C2362 C 0.51332 0.7578 0.45642 0.0
H2363 H 0.46618 0.74657 0.46799 0.0
H2364 H 0.48858 0.77404 0.4676 0.0
S2365 S 0.53632 0.7117 0.43956 0.0
N2366 N 0.51376 0.70552 0.44516 0.0
N2367 N 0.53803 0.73517 0.44457 0.0
C2368 C 0.51975 0.73896 0.45127 0.0
C2369 C 0.50659 0.72282 0.45168 0.0
C2370 C 0.49526 0.26024 0.72198 0.0
C2371 C 0.47689 0.25252 0.71701 0.0
C2372 C 0.512 0.24854 0.72199 0.0
C2373 C 0.51102 0.22867 0.71694 0.0
H2374 H 0.49702 0.27574 0.72448 0.0
H2375 H 0.52596 0.25553 0.72443 0.0
S2376 S 0.4658 0.20035 0.70754 0.0
N2377 N 0.45823 0.22299 0.71054 0.0
N2378 N 0.48967 0.20102 0.71056 0.0
C2379 C 0.49243 0.22029 0.71436 0.0
C2380 C 0.47536 0.23221 0.7144 0.0
C2381 C 0.99432 0.25995 0.9676 0.0
C2382 C 0.01381 0.25664 0.96214 0.0
C2383 C 0.98079 0.24459 0.96808 0.0
C2384 C 0.98636 0.22538 0.96346 0.0
H2385 H 0.9891 0.27466 0.97001 0.0
H2386 H 0.96562 0.24798 0.97095 0.0
S2387 S 0.03649 0.20875 0.95136 0.0
N2388 N 0.03856 0.23254 0.95433 0.0
N2389 N 0.01334 0.20366 0.95554 0.0
C2390 C 0.00624 0.22166 0.95984 0.0
C2391 C 0.01991 0.23732 0.95907 0.0
C2392 C 0.28225 0.01679 0.24256 0.0
C2393 C 0.28302 0.01443 0.26291 0.0
C2394 C 0.28347 0.00071 0.23004 0.0
C2395 C 0.28526 0.98164 0.23736 0.0
H2396 H 0.28226 0.03121 0.23615 0.0
H2397 H 0.28417 0.00339 0.2145 0.0
S2398 S 0.28354 0.96739 0.28954 0.0
N2399 N 0.28249 0.99143 0.28983 0.0
N2400 N 0.28455 0.96115 0.26633 0.0
C2401 C 0.28387 0.97894 0.25766 0.0
C2402 C 0.28281 0.99536 0.27043 0.0
C2403 C 0.2446 0.03119 0.47796 0.0
C2404 C 0.26376 0.03101 0.48536 0.0
C2405 C 0.22845 0.03187 0.49043 0.0
C2406 C 0.23086 0.03259 0.51077 0.0
H2407 H 0.24206 0.03213 0.46241 0.0
H2408 H 0.21411 0.03343 0.484 0.0
S2409 S 0.27758 0.0279 0.5376 0.0
N2410 N 0.28397 0.02808 0.51441 0.0
N2411 N 0.25357 0.02959 0.53779 0.0
C2412 C 0.24976 0.03025 0.51837 0.0
C2413 C 0.26623 0.02936 0.50567 0.0
C2414 C 0.21561 0.97029 0.73635 0.0
C2415 C 0.2198 0.97264 0.75628 0.0
C2416 C 0.21293 0.98649 0.72426 0.0
C2417 C 0.21458 0.0056 0.73158 0.0
H2418 H 0.21251 0.95599 0.73041 0.0
H2419 H 0.20814 0.98401 0.70942 0.0
S2420 S 0.2303 0.0193 0.78151 0.0
N2421 N 0.22916 0.99527 0.7819 0.0
N2422 N 0.22433 0.02577 0.75913 0.0
C2423 C 0.22129 0.00804 0.75081 0.0
C2424 C 0.22387 0.99152 0.76317 0.0
C2425 C 0.25026 0.95898 0.98188 0.0
C2426 C 0.23131 0.95667 0.98939 0.0
C2427 C 0.2665 0.95991 0.99423 0.0
C2428 C 0.26441 0.95821 0.01456 0.0
H2429 H 0.25271 0.95887 0.96628 0.0
H2430 H 0.28084 0.9603 0.98763 0.0
S2431 S 0.21768 0.95602 0.04176 0.0
N2432 N 0.21116 0.95594 0.0186 0.0
N2433 N 0.24172 0.95739 0.04178 0.0
C2434 C 0.24542 0.95798 0.02233 0.0
C2435 C 0.22885 0.95727 0.00975 0.0
C2436 C 0.2396 0.27904 0.00984 0.0
C2437 C 0.25991 0.28149 0.00835 0.0
C2438 C 0.22776 0.27882 0.9932 0.0
C2439 C 0.23578 0.28103 0.97443 0.0
H2440 H 0.23256 0.27877 0.02396 0.0
H2441 H 0.2121 0.27835 0.99524 0.0
S2442 S 0.2886 0.28268 0.96247 0.0
N2443 N 0.28787 0.28229 0.98651 0.0
N2444 N 0.26565 0.28186 0.95524 0.0
C2445 C 0.25625 0.28106 0.97265 0.0
C2446 C 0.26831 0.28132 0.98962 0.0
C2447 C 0.75298 0.20999 0.01458 0.0
C2448 C 0.73263 0.21205 0.01299 0.0
C2449 C 0.76476 0.20866 -0.00202 0.0
C2450 C 0.75671 0.20963 0.97915 0.0
H2451 H 0.75977 0.20787 0.02867 0.0
H2452 H 0.78016 0.20573 -4e-05 0.0
S2453 S 0.70471 0.21905 0.96726 0.0
N2454 N 0.70526 0.21786 0.99127 0.0
N2455 N 0.72745 0.21585 0.96 0.0
C2456 C 0.73666 0.21379 0.97741 0.0
C2457 C 0.72461 0.21485 0.99436 0.0
C2458 C 0.02666 0.51699 0.24836 0.0
C2459 C 0.0282 0.50933 0.22939 0.0
C2460 C 0.02499 0.50469 0.26457 0.0
C2461 C 0.0251 0.48432 0.26233 0.0
H2462 H 0.02825 0.53251 0.25084 0.0
H2463 H 0.02563 0.51118 0.27895 0.0
S2464 S 0.02452 0.45708 0.21567 0.0
N2465 N 0.02624 0.48019 0.20917 0.0
N2466 N 0.02347 0.45714 0.2397 0.0
C2467 C 0.0243 0.4766 0.24338 0.0
C2468 C 0.02576 0.48911 0.22685 0.0
C2469 C 0.75016 0.76984 0.51389 0.0
C2470 C 0.76964 0.77535 0.51067 0.0
C2471 C 0.7363 0.77124 0.49894 0.0
C2472 C 0.74155 0.77788 0.48025 0.0
H2473 H 0.74513 0.76647 0.52847 0.0
H2474 H 0.72112 0.76863 0.50247 0.0
S2475 S 0.79168 0.78966 0.4635 0.0
N2476 N 0.79418 0.78439 0.48683 0.0
N2477 N 0.76829 0.78668 0.4586 0.0
C2478 C 0.76147 0.78087 0.47626 0.0
C2479 C 0.7755 0.77968 0.49155 0.0
C2480 C 0.95904 0.00748 0.22878 0.0
C2481 C 0.96013 0.98704 0.23003 0.0
C2482 C 0.95896 0.01909 0.24557 0.0
C2483 C 0.96008 0.01074 0.26428 0.0
H2484 H 0.9568 0.01454 0.21485 0.0
H2485 H 0.95675 0.03463 0.24385 0.0
S2486 S 0.96793 0.95826 0.27511 0.0
N2487 N 0.96579 0.95919 0.25117 0.0
N2488 N 0.96583 0.98098 0.28277 0.0
C2489 C 0.96338 0.9905 0.26558 0.0
C2490 C 0.96333 0.97866 0.24845 0.0
C2491 C 0.26595 0.71259 0.49765 0.0
C2492 C 0.25763 0.71158 0.47892 0.0
C2493 C 0.25428 0.71312 0.51439 0.0
C2494 C 0.2338 0.71254 0.51307 0.0
H2495 H 0.28162 0.71175 0.4995 0.0
H2496 H 0.26144 0.71256 0.52844 0.0
S2497 S 0.20471 0.71385 0.46747 0.0
N2498 N 0.22759 0.71306 0.46003 0.0
N2499 N 0.20569 0.71404 0.49149 0.0
C2500 C 0.22529 0.71354 0.49443 0.0
C2501 C 0.2372 0.71308 0.47735 0.0
C2502 C 0.46571 0.4928 0.76334 0.0
C2503 C 0.46438 0.51317 0.76139 0.0
C2504 C 0.46547 0.48062 0.74696 0.0
C2505 C 0.46401 0.48834 0.728 0.0
H2506 H 0.46527 0.48606 0.7776 0.0
H2507 H 0.46501 0.46501 0.74932 0.0
S2508 S 0.46543 0.54088 0.71503 0.0
N2509 N 0.46541 0.54064 0.73908 0.0
N2510 N 0.46513 0.51779 0.70822 0.0
C2511 C 0.46517 0.50873 0.72582 0.0
C2512 C 0.4653 0.52113 0.74254 0.0
C2513 C 0.01529 0.75024 0.70879 0.0
C2514 C 0.01302 0.77053 0.71096 0.0
C2515 C -0.00093 0.73786 0.70742 0.0
C2516 C 0.97992 0.74528 0.70807 0.0
H2517 H 0.02963 0.74399 0.70659 0.0
H2518 H 0.00166 0.72262 0.7042 0.0
S2519 S 0.96606 0.7964 0.71889 0.0
N2520 N 0.99011 0.79682 0.7178 0.0
N2521 N 0.95969 0.77354 0.71488 0.0
C2522 C 0.97748 0.76512 0.71259 0.0
C2523 C 0.99401 0.77774 0.71417 0.0
C2524 C 0.98683 0.22762 0.45408 0.0
C2525 C 0.00711 0.22501 0.45245 0.0
C2526 C 0.97868 0.24629 0.45571 0.0
C2527 C 0.99051 0.26308 0.45526 0.0
H2528 H 0.97711 0.21524 0.45265 0.0
H2529 H 0.96294 0.24756 0.45537 0.0
S2530 S 0.04456 0.26406 0.45442 0.0
N2531 N 0.03896 0.24067 0.45331 0.0
N2532 N 0.02357 0.27578 0.45576 0.0
C2533 C 0.01085 0.26058 0.45554 0.0
C2534 C 0.01918 0.24153 0.45429 0.0
C2535 C 0.48197 0.25893 0.20164 0.0
C2536 C 0.47791 0.23883 0.20154 0.0
C2537 C 0.50124 0.26583 0.20223 0.0
C2538 C 0.51712 0.25282 0.20217 0.0
H2539 H 0.47024 0.26935 0.19979 0.0
H2540 H 0.50368 0.28135 0.20068 0.0
S2541 S 0.51433 0.19894 0.20442 0.0
N2542 N 0.49134 0.20609 0.20382 0.0
N2543 N 0.52753 0.21909 0.20413 0.0
C2544 C 0.51323 0.23279 0.20373 0.0
C2545 C 0.49361 0.22577 0.20363 0.0
C2546 C 0.49639 0.76148 0.9616 0.0
C2547 C 0.47872 0.75716 0.95212 0.0
C2548 C 0.51209 0.74832 0.96125 0.0
C2549 C 0.51073 0.73041 0.9513 0.0
H2550 H 0.49835 0.77545 0.96872 0.0
H2551 H 0.52566 0.75259 0.96811 0.0
S2552 S 0.46768 0.71238 0.92373 0.0
N2553 N 0.46075 0.73365 0.93255 0.0
N2554 N 0.4901 0.70908 0.93179 0.0
C2555 C 0.49284 0.72561 0.94239 0.0
C2556 C 0.47688 0.73896 0.94281 0.0
C2557 C 0.01529 0.25499 0.78976 0.0
C2558 C 0.01593 0.23455 0.78927 0.0
C2559 C -0.00244 0.265 0.78833 0.0
C2560 C 0.97973 0.25485 0.78694 0.0
H2561 H 0.0284 0.26324 0.79295 0.0
H2562 H -0.00221 0.28067 0.79025 0.0
S2563 S 0.97413 0.20131 0.78112 0.0
N2564 N -0.00219 0.2046 0.78404 0.0
N2565 N 0.9643 0.22329 0.78164 0.0
C2566 C 0.98046 0.2345 0.7841 0.0
C2567 C -0.00137 0.22435 0.78525 0.0
C2568 C 0.50502 0.25431 0.52036 0.0
C2569 C 0.51127 0.26299 0.53786 0.0
C2570 C 0.48992 0.24033 0.52037 0.0
C2571 C 0.48115 0.23446 0.53794 0.0
H2572 H 0.51176 0.25838 0.50668 0.0
H2573 H 0.4852 0.23402 0.50669 0.0
S2574 S 0.49302 0.25223 0.58754 0.0
N2575 N 0.50779 0.2645 0.57303 0.0
N2576 N 0.48006 0.23798 0.57311 0.0
C2577 C 0.48753 0.24289 0.55543 0.0
C2578 C 0.50248 0.25722 0.55538 0.0
C2579 C 0.49019 0.76698 0.28979 0.0
C2580 C 0.47474 0.75366 0.29227 0.0
C2581 C 0.50967 0.76066 0.28981 0.0
C2582 C 0.51429 0.74081 0.29165 0.0
H2583 H 0.48739 0.78252 0.28983 0.0
H2584 H 0.52118 0.77149 0.2898 0.0
S2585 S 0.4791 0.69994 0.29574 0.0
N2586 N 0.4653 0.71965 0.29472 0.0
N2587 N 0.50183 0.7077 0.29394 0.0
C2588 C 0.49893 0.72722 0.29211 0.0
C2589 C 0.47915 0.73368 0.29262 0.0
C2590 C 0.01514 0.74945 0.03891 0.0
C2591 C 0.00367 0.7664 0.04055 0.0
C2592 C 0.00652 0.73092 0.03845 0.0
C2593 C 0.98614 0.72867 0.03928 0.0
H2594 H 0.03089 0.7503 0.03991 0.0
H2595 H 0.01595 0.71826 0.03903 0.0
S2596 S 0.9497 0.76875 0.03835 0.0
N2597 N 0.97099 0.77997 0.03924 0.0
N2598 N 0.95471 0.74521 0.03787 0.0
C2599 C 0.97453 0.7456 0.03819 0.0
C2600 C 0.98333 0.76447 0.03898 0.0
C2601 C 0.70436 0.97394 0.74765 0.0
C2602 C 0.70559 0.98235 0.72896 0.0
C2603 C 0.70353 0.98555 0.76444 0.0
C2604 C 0.70396 0.00603 0.76324 0.0
H2605 H 0.70255 0.95835 0.74933 0.0
H2606 H 0.70113 0.97837 0.77828 0.0
S2607 S 0.71236 0.03499 0.71832 0.0
N2608 N 0.71107 0.01222 0.71064 0.0
N2609 N 0.70961 0.03401 0.74219 0.0
C2610 C 0.7076 0.01449 0.7449 0.0
C2611 C 0.7084 0.00265 0.72777 0.0
C2612 C 0.73222 0.96189 0.48352 0.0
C2613 C 0.73017 0.96019 0.50386 0.0
C2614 C 0.7507 0.96167 0.47474 0.0
C2615 C 0.76776 0.95964 0.486 0.0
H2616 H 0.71951 0.96174 0.47416 0.0
H2617 H 0.75141 0.96123 0.45898 0.0
S2618 S 0.77055 0.96011 0.53994 0.0
N2619 N 0.74696 0.96063 0.53513 0.0
N2620 N 0.7816 0.95992 0.51857 0.0
C2621 C 0.76599 0.96046 0.50637 0.0
C2622 C 0.74721 0.96081 0.51533 0.0
C2623 C 0.78836 0.99649 0.22893 0.0
C2624 C 0.79033 0.01301 0.24099 0.0
C2625 C 0.78768 0.97768 0.23685 0.0
C2626 C 0.78866 0.97469 0.2571 0.0
H2627 H 0.78922 -0.00214 0.21324 0.0
H2628 H 0.78802 0.96536 0.22697 0.0
S2629 S 0.78845 0.01346 0.29496 0.0
N2630 N 0.78935 0.02542 0.27412 0.0
N2631 N 0.78764 0.99013 0.2891 0.0
C2632 C 0.78786 0.99122 0.26933 0.0
C2633 C 0.78884 0.01038 0.26123 0.0
C2634 C 0.72053 0.04348 0.00069 0.0
C2635 C 0.72601 0.03581 0.98244 0.0
C2636 C 0.73447 0.04736 0.01506 0.0
C2637 C 0.75425 0.04313 0.01199 0.0
H2638 H 0.70574 0.04838 0.00329 0.0
H2639 H 0.72997 0.05518 0.02804 0.0
S2640 S 0.77558 0.01871 0.9689 0.0
N2641 N 0.75218 0.02098 0.96356 0.0
N2642 N 0.77829 0.02803 0.99094 0.0
C2643 C 0.75959 0.0332 0.99497 0.0
C2644 C 0.74545 0.0295 0.98012 0.0
C2645 C 0.73125 0.70668 0.00972 0.0
C2646 C 0.73359 0.70514 0.9894 0.0
C2647 C 0.7474 0.70776 0.0222 0.0
C2648 C 0.7666 0.70728 0.01491 0.0
H2649 H 0.71689 0.70574 0.01623 0.0
H2650 H 0.74472 0.70759 0.03775 0.0
S2651 S 0.7806 0.70783 0.96262 0.0
N2652 N 0.75656 0.70662 0.9624 0.0
N2653 N 0.78689 0.70852 0.98582 0.0
C2654 C 0.7691 0.7079 0.99454 0.0
C2655 C 0.75261 0.70685 0.9818 0.0
C2656 C 0.23383 0.7926 0.9778 0.0
C2657 C 0.25416 0.79124 0.97583 0.0
C2658 C 0.22487 0.79058 0.99602 0.0
C2659 C 0.23604 0.78774 0.01303 0.0
H2660 H 0.22494 0.79679 0.96544 0.0
H2661 H 0.20933 0.79327 -0.00305 0.0
S2662 S 0.28947 0.77961 0.01501 0.0
N2663 N 0.28492 0.78381 0.99175 0.0
N2664 N 0.26816 0.78059 0.0262 0.0
C2665 C 0.25615 0.7843 0.0109 0.0
C2666 C 0.26522 0.78593 0.99222 0.0
C2667 C 0.95429 0.51394 0.75692 0.0
C2668 C 0.9538 0.51262 0.73645 0.0
C2669 C 0.95537 0.4972 0.76858 0.0
C2670 C 0.9559 0.47842 0.76025 0.0
H2671 H 0.95248 0.52788 0.7641 0.0
H2672 H 0.95431 0.49902 0.78421 0.0
S2673 S 0.95993 0.46729 0.70744 0.0
N2674 N 0.95771 0.49122 0.7084 0.0
N2675 N 0.95959 0.45979 0.73029 0.0
C2676 C 0.95772 0.47705 0.73986 0.0
C2677 C 0.95669 0.49413 0.72796 0.0
C2678 C 0.25507 0.20378 0.48103 0.0
C2679 C 0.23489 0.20139 0.47821 0.0
C2680 C 0.26311 0.20438 0.49981 0.0
C2681 C 0.25124 0.20215 0.51639 0.0
H2682 H 0.26488 0.2036 0.46865 0.0
H2683 H 0.27885 0.20449 0.5012 0.0
S2684 S 0.19731 0.199 0.5171 0.0
N2685 N 0.20297 0.19988 0.49373 0.0
N2686 N 0.21822 0.20034 0.52896 0.0
C2687 C 0.23093 0.20182 0.51384 0.0
C2688 C 0.22269 0.20163 0.49474 0.0
C2689 C 0.03895 0.02914 0.74195 0.0
C2690 C 0.03462 0.02188 0.76066 0.0
C2691 C 0.04256 0.01652 0.72632 0.0
C2692 C 0.04138 0.99623 0.72863 0.0
H2693 H 0.04133 0.04458 0.73967 0.0
H2694 H 0.04758 0.02265 0.71265 0.0
S2695 S 0.02697 0.96987 0.77347 0.0
N2696 N 0.02671 0.9931 0.77982 0.0
N2697 N 0.03309 0.96944 0.7502 0.0
C2698 C 0.03493 0.98883 0.74657 0.0
C2699 C 0.0316 0.00166 0.76266 0.0
C2700 C 0.74139 0.28391 0.47359 0.0
C2701 C 0.7603 0.28119 0.48114 0.0
C2702 C 0.72506 0.28452 0.48588 0.0
C2703 C 0.72696 0.2824 0.50619 0.0
H2704 H 0.73926 0.28713 0.4583 0.0
H2705 H 0.71109 0.28818 0.47948 0.0
S2706 S 0.77246 0.26944 0.53253 0.0
N2707 N 0.77939 0.27231 0.50968 0.0
N2708 N 0.74871 0.27336 0.53272 0.0
C2709 C 0.7454 0.27715 0.51357 0.0
C2710 C 0.76206 0.27656 0.50105 0.0
C2711 C 0.54451 0.5121 0.24671 0.0
C2712 C 0.54664 0.50351 0.26517 0.0
C2713 C 0.5451 0.50062 0.22977 0.0
C2714 C 0.54731 0.48029 0.23093 0.0
H2715 H 0.54492 0.52782 0.24521 0.0
H2716 H 0.54597 0.50785 0.21576 0.0
S2717 S 0.54973 0.45075 0.27593 0.0
N2718 N 0.54834 0.4735 0.28374 0.0
N2719 N 0.54878 0.4519 0.25191 0.0
C2720 C 0.54688 0.47145 0.24933 0.0
C2721 C 0.54668 0.48311 0.26651 0.0
C2722 C 0.78447 0.5145 0.73576 0.0
C2723 C 0.78356 0.51373 0.75623 0.0
C2724 C 0.78398 0.49745 0.72451 0.0
C2725 C 0.78237 0.47896 0.73325 0.0
H2726 H 0.78694 0.52821 0.72835 0.0
H2727 H 0.78601 0.49876 0.70892 0.0
S2728 S 0.77549 0.46936 0.78606 0.0
N2729 N 0.77804 0.49324 0.78459 0.0
N2730 N 0.77689 0.4612 0.76348 0.0
C2731 C 0.77941 0.47815 0.75355 0.0
C2732 C 0.7801 0.49554 0.76503 0.0
C2733 C 0.734 0.52604 0.99126 0.0
C2734 C 0.73537 0.52674 0.01171 0.0
C2735 C 0.75065 0.52755 0.97953 0.0
C2736 C 0.76934 0.52969 0.98776 0.0
H2737 H 0.7199 0.52579 0.98417 0.0
H2738 H 0.74867 0.52828 0.96389 0.0
S2739 S 0.78114 0.52799 0.04058 0.0
N2740 N 0.75713 0.52647 0.0397 0.0
N2741 N 0.78844 0.52922 0.01769 0.0
C2742 C 0.77109 0.52825 0.00817 0.0
C2743 C 0.75409 0.52681 0.02013 0.0
C2744 C 0.70939 0.47806 0.23478 0.0
C2745 C 0.71016 0.47985 0.25518 0.0
C2746 C 0.71118 0.49443 0.22274 0.0
C2747 C 0.71392 0.5132 0.23063 0.0
H2748 H 0.70587 0.46421 0.22805 0.0
H2749 H 0.70901 0.49249 0.20723 0.0
S2750 S 0.7222 0.5247 0.28288 0.0
N2751 N 0.71754 0.50109 0.28255 0.0
N2752 N 0.72123 0.53189 0.25995 0.0
C2753 C 0.71713 0.51476 0.25085 0.0
C2754 C 0.71511 0.49808 0.26313 0.0
C2755 C 0.73053 0.47208 0.49955 0.0
C2756 C 0.73176 0.46731 0.47966 0.0
C2757 C 0.7471 0.4717 0.51147 0.0
C2758 C 0.76551 0.46661 0.50392 0.0
H2759 H 0.7165 0.47449 0.50639 0.0
H2760 H 0.74517 0.4739 0.52698 0.0
S2761 S 0.77721 0.45785 0.4518 0.0
N2762 N 0.75337 0.46117 0.4522 0.0
N2763 N 0.78451 0.46039 0.47457 0.0
C2764 C 0.76731 0.46435 0.4836 0.0
C2765 C 0.75041 0.4647 0.47147 0.0
C2766 C 0.53229 0.97795 0.74299 0.0
C2767 C 0.53176 0.98653 0.76162 0.0
C2768 C 0.53277 0.98939 0.7261 0.0
C2769 C 0.53291 0.00987 0.7272 0.0
H2770 H 0.53358 0.96229 0.74142 0.0
H2771 H 0.53454 0.98206 0.71222 0.0
S2772 S 0.52739 0.03948 0.77215 0.0
N2773 N 0.52809 0.01673 0.77995 0.0
N2774 N 0.52916 0.03821 0.7482 0.0
C2775 C 0.53031 0.01859 0.74558 0.0
C2776 C 0.52967 0.00693 0.76281 0.0
C2777 C 0.20031 0.50217 0.2159 0.0
C2778 C 0.20564 0.48289 0.2206 0.0
C2779 C 0.19575 0.51572 0.23047 0.0
C2780 C 0.19698 0.51073 0.25023 0.0
H2781 H 0.198 0.50645 0.20089 0.0
H2782 H 0.19012 0.52986 0.22622 0.0
S2783 S 0.21336 0.46355 0.27055 0.0
N2784 N 0.2143 0.46043 0.2467 0.0
N2785 N 0.20596 0.48621 0.274 0.0
C2786 C 0.20415 0.49228 0.25525 0.0
C2787 C 0.20853 0.4783 0.24043 0.0
C2788 C 0.2513 0.45316 0.97318 0.0
C2789 C 0.26741 0.45467 0.98586 0.0
C2790 C 0.23222 0.45179 0.98042 0.0
C2791 C 0.22846 0.45234 0.00055 0.0
H2792 H 0.25348 0.45125 0.95767 0.0
H2793 H 0.22046 0.44901 0.97025 0.0
S2794 S 0.2653 0.45945 0.03962 0.0
N2795 N 0.27816 0.45899 0.01928 0.0
N2796 N 0.24231 0.45697 0.03291 0.0
C2797 C 0.24425 0.45587 0.01323 0.0
C2798 C 0.26372 0.45689 0.00587 0.0
C2799 C 0.29066 0.50421 0.77509 0.0
C2800 C 0.29011 0.48482 0.76851 0.0
C2801 C 0.28722 0.51975 0.76232 0.0
C2802 C 0.28368 0.51634 0.74241 0.0
H2803 H 0.29575 0.50745 0.78969 0.0
H2804 H 0.28967 0.53442 0.76764 0.0
S2805 S 0.27639 0.46805 0.71913 0.0
N2806 N 0.28214 0.46293 0.74192 0.0
N2807 N 0.27603 0.49208 0.71767 0.0
C2808 C 0.28053 0.49697 0.73633 0.0
C2809 C 0.28374 0.48117 0.74946 0.0
C2810 C 0.22753 0.53111 0.49416 0.0
C2811 C 0.23251 0.53941 0.47611 0.0
C2812 C 0.2406 0.5315 0.50992 0.0
C2813 C 0.25907 0.54034 0.50825 0.0
H2814 H 0.21311 0.52505 0.49639 0.0
H2815 H 0.2358 0.52567 0.52378 0.0
S2816 S 0.27921 0.564 0.46389 0.0
N2817 N 0.25742 0.55623 0.45728 0.0
N2818 N 0.28182 0.55709 0.48675 0.0
C2819 C 0.26458 0.54781 0.48994 0.0
C2820 C 0.25133 0.54732 0.4739 0.0
C2821 C 0.45017 0.98389 0.23059 0.0
C2822 C 0.45134 0.00415 0.22768 0.0
C2823 C 0.45123 0.97582 0.24932 0.0
C2824 C 0.45313 0.98777 0.26592 0.0
H2825 H 0.44704 0.97427 0.21846 0.0
H2826 H 0.44875 0.9603 0.25083 0.0
S2827 S 0.46062 0.04131 0.26597 0.0
N2828 N 0.45765 0.03568 0.24277 0.0
N2829 N 0.45919 0.02051 0.27799 0.0
C2830 C 0.45632 0.00781 0.26305 0.0
C2831 C 0.45555 0.01601 0.24392 0.0
C2832 C 0.08373 0.36132 0.32632 0.0
C2833 C 0.07468 0.35024 0.31156 0.0
C2834 C 0.0832 0.38173 0.32605 0.0
C2835 C 0.07333 0.39173 0.31119 0.0
H2836 H 0.09062 0.35424 0.33862 0.0
H2837 H 0.09002 0.38971 0.33785 0.0
S2838 S 0.05026 0.36983 0.26744 0.0
N2839 N 0.05798 0.35102 0.28026 0.0
N2840 N 0.05632 0.3893 0.28021 0.0
C2841 C 0.06517 0.38093 0.29582 0.0
C2842 C 0.06608 0.3602 0.29585 0.0
C2843 C 0.88262 0.80623 0.56 0.0
C2844 C 0.89394 0.82187 0.56688 0.0
C2845 C 0.86234 0.80624 0.56193 0.0
C2846 C 0.85251 0.82206 0.57055 0.0
H2847 H 0.88949 0.79364 0.55337 0.0
H2848 H 0.85434 0.79395 0.55609 0.0
S2849 S 0.87575 0.86622 0.59169 0.0
N2850 N 0.8942 0.85311 0.58345 0.0
N2851 N 0.85587 0.85354 0.58671 0.0
C2852 C 0.86375 0.83765 0.57787 0.0
C2853 C 0.8845 0.83746 0.57611 0.0
C2854 C 0.41361 0.61267 0.83371 0.0
C2855 C 0.42347 0.60225 0.81913 0.0
C2856 C 0.41028 0.63273 0.83185 0.0
C2857 C 0.41647 0.64304 0.8152 0.0
H2858 H 0.40866 0.60532 0.84677 0.0
H2859 H 0.40332 0.64025 0.84386 0.0
S2860 S 0.44008 0.62164 0.77143 0.0
N2861 N 0.43761 0.60319 0.78662 0.0
N2862 N 0.43094 0.64072 0.78288 0.0
C2863 C 0.42532 0.63248 0.8 0.0
C2864 C 0.42901 0.61215 0.80206 0.0
C2865 C 0.6109 0.16527 0.08264 0.0
C2866 C 0.60115 0.1714 0.06564 0.0
C2867 C 0.6306 0.16966 0.08574 0.0
C2868 C 0.6413 0.18048 0.07205 0.0
H2869 H 0.60316 0.15747 0.09397 0.0
H2870 H 0.63745 0.16467 0.09905 0.0
S2871 S 0.62336 0.19802 0.02406 0.0
N2872 N 0.60431 0.18731 0.03409 0.0
N2873 N 0.64114 0.19594 0.0401 0.0
C2874 C 0.63195 0.18616 0.05468 0.0
C2875 C 0.61198 0.18143 0.05139 0.0
C2876 C 0.08371 0.63203 0.16825 0.0
C2877 C 0.07165 0.64207 0.18147 0.0
C2878 C 0.08244 0.61181 0.16604 0.0
C2879 C 0.069 0.60077 0.17687 0.0
H2880 H 0.09409 0.63985 0.15928 0.0
H2881 H 0.0922 0.60475 0.15581 0.0
S2882 S 0.03451 0.61981 0.21405 0.0
N2883 N 0.04618 0.63927 0.20608 0.0
N2884 N 0.0436 0.60131 0.20167 0.0
C2885 C 0.05685 0.61057 0.1902 0.0
C2886 C 0.0583 0.63116 0.19264 0.0
C2887 C 0.61185 0.80571 0.44134 0.0
C2888 C 0.60323 0.82073 0.43037 0.0
C2889 C 0.63192 0.8024 0.44075 0.0
C2890 C 0.64431 0.81407 0.42932 0.0
H2891 H 0.603 0.79601 0.45011 0.0
H2892 H 0.63778 0.79067 0.44954 0.0
S2893 S 0.62903 0.85581 0.39839 0.0
N2894 N 0.60852 0.84761 0.40796 0.0
N2895 N 0.64645 0.84161 0.40698 0.0
C2896 C 0.6359 0.82922 0.41828 0.0
C2897 C 0.61535 0.83253 0.41885 0.0
C2898 C 0.41454 0.36074 0.67025 0.0
C2899 C 0.4275 0.34951 0.68143 0.0
C2900 C 0.41847 0.38035 0.66614 0.0
C2901 C 0.43558 0.38942 0.67299 0.0
H2902 H 0.40107 0.35443 0.66492 0.0
H2903 H 0.40759 0.38863 0.65825 0.0
S2904 S 0.47577 0.36563 0.70016 0.0
N2905 N 0.45923 0.34837 0.69745 0.0
N2906 N 0.46655 0.38518 0.68962 0.0
C2907 C 0.44916 0.37808 0.68326 0.0
C2908 C 0.44513 0.35816 0.68756 0.0
C2909 C 0.8627 0.17066 0.90706 0.0
C2910 C 0.85155 0.176 0.92336 0.0
C2911 C 0.88294 0.16835 0.90848 0.0
C2912 C 0.89277 0.17107 0.92632 0.0
H2913 H 0.85578 0.16851 0.89303 0.0
H2914 H 0.89096 0.16499 0.8953 0.0
S2915 S 0.86976 0.18249 0.97394 0.0
N2916 N 0.85154 0.1824 0.95826 0.0
N2917 N 0.88943 0.17746 0.96104 0.0
C2918 C 0.8816 0.17542 0.94295 0.0
C2919 C 0.86106 0.17813 0.94142 0.0
C2920 C 0.30168 0.06513 0.36289 0.0
C2921 C 0.3164 0.07477 0.35234 0.0
C2922 C 0.30424 0.06026 0.38246 0.0
C2923 C 0.32151 0.06507 0.3924 0.0
H2924 H 0.28811 0.06103 0.35592 0.0
H2925 H 0.29231 0.05312 0.38995 0.0
S2926 S 0.36474 0.08997 0.37171 0.0
N2927 N 0.34915 0.08867 0.35342 0.0
N2928 N 0.35364 0.07978 0.39046 0.0
C2929 C 0.33632 0.07478 0.3822 0.0
C2930 C 0.33383 0.07963 0.36215 0.0
C2931 C 0.16131 0.07578 0.61574 0.0
C2932 C 0.17436 0.06413 0.60507 0.0
C2933 C 0.16249 0.07705 0.63603 0.0
C2934 C 0.17683 0.06679 0.6465 0.0
H2935 H 0.15008 0.08408 0.60836 0.0
H2936 H 0.15182 0.08593 0.64357 0.0
S2937 S 0.21519 0.03487 0.62536 0.0
N2938 N 0.20248 0.04246 0.60644 0.0
N2939 N 0.20487 0.04505 0.64453 0.0
C2940 C 0.19026 0.05536 0.63597 0.0
C2941 C 0.18892 0.05389 0.6153 0.0
C2942 C 0.16142 0.92003 0.8618 0.0
C2943 C 0.17895 0.9237 0.85175 0.0
C2944 C 0.15987 0.92322 0.88189 0.0
C2945 C 0.17572 0.93042 0.8927 0.0
H2946 H 0.1486 0.91498 0.85406 0.0
H2947 H 0.14612 0.92006 0.88899 0.0
S2948 S 0.22533 0.94122 0.87362 0.0
N2949 N 0.21289 0.93382 0.85443 0.0
N2950 N 0.20982 0.94044 0.89197 0.0
C2951 C 0.19344 0.93392 0.88289 0.0
C2952 C 0.19513 0.9303 0.86252 0.0
C2953 C 0.31088 0.93678 0.13478 0.0
C2954 C 0.31113 0.91928 0.14551 0.0
C2955 C 0.31578 0.93711 0.11504 0.0
C2956 C 0.32098 0.91996 0.10513 0.0
H2957 H 0.30718 0.95048 0.14171 0.0
H2958 H 0.31514 0.95093 0.10742 0.0
S2959 S 0.32358 0.87025 0.12659 0.0
N2960 N 0.31699 0.8844 0.14491 0.0
N2961 N 0.32601 0.88483 0.10763 0.0
C2962 C 0.32148 0.90234 0.11574 0.0
C2963 C 0.31654 0.90205 0.13593 0.0
C2964 C 0.38047 0.32332 0.08423 0.0
C2965 C 0.3905 0.31944 0.06673 0.0
C2966 C 0.36052 0.31939 0.08612 0.0
C2967 C 0.34984 0.31126 0.07066 0.0
H2968 H 0.38816 0.3289 0.09684 0.0
H2969 H 0.35345 0.32252 0.09989 0.0
S2970 S 0.36862 0.30057 0.02095 0.0
N2971 N 0.38774 0.30879 0.033 0.0
N2972 N 0.35044 0.30089 0.03668 0.0
C2973 C 0.35951 0.30794 0.05283 0.0
C2974 C 0.37975 0.31225 0.05081 0.0
C2975 C 0.93072 0.86486 0.19139 0.0
C2976 C 0.92175 0.8537 0.17674 0.0
C2977 C 0.93606 0.88423 0.18813 0.0
C2978 C 0.93249 0.89337 0.17012 0.0
H2979 H 0.93396 0.85849 0.20546 0.0
H2980 H 0.94273 0.89216 0.20005 0.0
S2981 S 0.90983 0.87055 0.12666 0.0
N2982 N 0.90982 0.85317 0.14327 0.0
N2983 N 0.91971 0.88976 0.1373 0.0
C2984 C 0.92346 0.88246 0.15532 0.0
C2985 C 0.91805 0.86264 0.15861 0.0
C2986 C 0.1292 0.66892 0.57955 0.0
C2987 C 0.14142 0.6804 0.56777 0.0
C2988 C 0.11036 0.66385 0.57348 0.0
C2989 C 0.10303 0.66996 0.55531 0.0
H2990 H 0.13418 0.66389 0.59366 0.0
H2991 H 0.10133 0.65553 0.5834 0.0
S2992 S 0.12976 0.69875 0.51815 0.0
N2993 N 0.14513 0.69692 0.53655 0.0
N2994 N 0.10997 0.68694 0.52502 0.0
C2995 C 0.11533 0.68089 0.54311 0.0
C2996 C 0.13441 0.6863 0.54939 0.0
C2997 C 0.91849 0.63561 0.68025 0.0
C2998 C 0.93517 0.64236 0.6706 0.0
C2999 C 0.91434 0.61564 0.68101 0.0
C3000 C 0.92705 0.60185 0.67262 0.0
H3001 H 0.90844 0.64583 0.68691 0.0
H3002 H 0.90128 0.61094 0.68856 0.0
S3003 S 0.9729 0.61237 0.64616 0.0
N3004 N 0.96444 0.63403 0.65244 0.0
N3005 N 0.95707 0.59633 0.65467 0.0
C3006 C 0.94394 0.60845 0.66322 0.0
C3007 C 0.94787 0.6288 0.66198 0.0
C3008 C 0.13057 0.16356 0.40062 0.0
C3009 C 0.14155 0.16584 0.4177 0.0
C3010 C 0.11024 0.16143 0.4015 0.0
C3011 C 0.10032 0.16125 0.41951 0.0
H3012 H 0.13767 0.16397 0.38652 0.0
H3013 H 0.10222 0.16071 0.38792 0.0
S3014 S 0.12312 0.16293 0.46843 0.0
N3015 N 0.14154 0.16532 0.45312 0.0
N3016 N 0.10338 0.16107 0.45477 0.0
C3017 C 0.11136 0.16229 0.43668 0.0
C3018 C 0.13198 0.16465 0.43578 0.0
C3019 C 0.56202 0.359 0.17943 0.0
C3020 C 0.57719 0.34814 0.17088 0.0
C3021 C 0.56045 0.37911 0.17652 0.0
C3022 C 0.5741 0.38932 0.16512 0.0
H3023 H 0.55103 0.35192 0.18828 0.0
H3024 H 0.54864 0.38673 0.18373 0.0
S3025 S 0.61648 0.36771 0.13922 0.0
N3026 N 0.60602 0.34905 0.15024 0.0
N3027 N 0.60317 0.38694 0.14488 0.0
C3028 C 0.58927 0.37864 0.1563 0.0
C3029 C 0.59081 0.35807 0.15919 0.0
C3030 C 0.38374 0.8394 0.92228 0.0
C3031 C 0.39455 0.82338 0.92889 0.0
C3032 C 0.36346 0.83828 0.92032 0.0
C3033 C 0.35325 0.82096 0.92458 0.0
H3034 H 0.39103 0.8529 0.9185 0.0
H3035 H 0.35578 0.85118 0.91546 0.0
S3036 S 0.37532 0.77426 0.94075 0.0
N3037 N 0.39396 0.78935 0.93872 0.0
N3038 N 0.35581 0.78707 0.93485 0.0
C3039 C 0.36402 0.80465 0.93084 0.0
C3040 C 0.38468 0.80592 0.93309 0.0
C3041 C 0.90751 0.35779 0.81086 0.0
C3042 C 0.92138 0.34929 0.82317 0.0
C3043 C 0.90588 0.3781 0.80962 0.0
C3044 C 0.91851 0.39041 0.82018 0.0
H3045 H 0.89793 0.34872 0.80216 0.0
H3046 H 0.89508 0.38421 0.79985 0.0
S3047 S 0.95721 0.37493 0.85445 0.0
N3048 N 0.94757 0.35435 0.84646 0.0
N3049 N 0.94511 0.3926 0.84344 0.0
C3050 C 0.93241 0.382 0.83253 0.0
C3051 C 0.93368 0.36137 0.83421 0.0
C3052 C 0.38223 0.16056 0.57924 0.0
C3053 C 0.39285 0.17415 0.56817 0.0
C3054 C 0.36195 0.16198 0.58114 0.0
C3055 C 0.35143 0.17711 0.57211 0.0
H3056 H 0.38963 0.14869 0.58655 0.0
H3057 H 0.35447 0.15089 0.58953 0.0
S3058 S 0.3725 0.21724 0.54249 0.0
N3059 N 0.39143 0.20374 0.54865 0.0
N3060 N 0.35336 0.20649 0.55232 0.0
C3061 C 0.36192 0.19103 0.56127 0.0
C3062 C 0.38258 0.1895 0.55922 0.0
C3063 C 0.59056 0.63529 0.32246 0.0
C3064 C 0.57479 0.64607 0.31514 0.0
C3065 C 0.58955 0.61497 0.32403 0.0
C3066 C 0.57264 0.60464 0.31851 0.0
H3067 H 0.60387 0.64258 0.32687 0.0
H3068 H 0.6023 0.60732 0.32933 0.0
S3069 S 0.52648 0.62637 0.30043 0.0
N3070 N 0.5412 0.64514 0.30362 0.0
N3071 N 0.53926 0.60698 0.30668 0.0
C3072 C 0.5565 0.61534 0.31178 0.0
C3073 C 0.5576 0.63603 0.31002 0.0
C3074 C 0.11253 0.83855 0.07859 0.0
C3075 C 0.10119 0.82284 0.07199 0.0
C3076 C 0.13276 0.83668 0.08085 0.0
C3077 C 0.14232 0.81892 0.07684 0.0
H3078 H 0.10576 0.8525 0.08162 0.0
H3079 H 0.141 0.84946 0.08511 0.0
S3080 S 0.11857 0.77241 0.06265 0.0
N3081 N 0.10056 0.78831 0.06376 0.0
N3082 N 0.13849 0.78473 0.06825 0.0
C3083 C 0.13093 0.80278 0.07138 0.0
C3084 C 0.1104 0.80476 0.06886 0.0
C3085 C 0.65829 0.91504 0.60877 0.0
C3086 C 0.67366 0.92407 0.59864 0.0
C3087 C 0.65906 0.91243 0.62898 0.0
C3088 C 0.67522 0.91879 0.63995 0.0
H3089 H 0.64544 0.91001 0.60108 0.0
H3090 H 0.64658 0.90586 0.63607 0.0
S3091 S 0.72002 0.94202 0.62029 0.0
N3092 N 0.70606 0.9385 0.60104 0.0
N3093 N 0.70749 0.93354 0.63898 0.0
C3094 C 0.69097 0.92732 0.62994 0.0
C3095 C 0.69017 0.93003 0.60934 0.0
C3096 C 0.83428 0.93803 0.38141 0.0
C3097 C 0.82784 0.92142 0.39141 0.0
C3098 C 0.83573 0.93796 0.36108 0.0
C3099 C 0.83019 0.9215 0.35018 0.0
H3100 H 0.83802 0.95118 0.38933 0.0
H3101 H 0.84061 0.95109 0.35377 0.0
S3102 S 0.81208 0.87454 0.36942 0.0
N3103 N 0.81609 0.88799 0.38899 0.0
N3104 N 0.8181 0.88829 0.3506 0.0
C3105 C 0.82378 0.90481 0.35994 0.0
C3106 C 0.82281 0.90466 0.38066 0.0
C3107 C 0.83486 0.07913 0.11368 0.0
C3108 C 0.81925 0.07039 0.10373 0.0
C3109 C 0.83468 0.08085 0.13403 0.0
C3110 C 0.81872 0.07416 0.14513 0.0
H3111 H 0.84741 0.08445 0.1057 0.0
H3112 H 0.84738 0.08704 0.14109 0.0
S3113 S 0.77292 0.05288 0.12547 0.0
N3114 N 0.78664 0.0567 0.1061 0.0
N3115 N 0.78604 0.06023 0.14425 0.0
C3116 C 0.80259 0.06628 0.13516 0.0
C3117 C 0.80293 0.06426 0.11449 0.0
C3118 C 0.66902 0.05765 0.86171 0.0
C3119 C 0.6767 0.07308 0.85066 0.0
C3120 C 0.66893 0.05842 0.88211 0.0
C3121 C 0.67638 0.07473 0.892 0.0
H3122 H 0.6628 0.04503 0.85451 0.0
H3123 H 0.66277 0.04631 0.89014 0.0
S3124 S 0.6995 0.1182 0.86932 0.0
N3125 N 0.69266 0.10457 0.85068 0.0
N3126 N 0.69279 0.10618 0.88905 0.0
C3127 C 0.68441 0.09013 0.88096 0.0
C3128 C 0.68448 0.08927 0.86023 0.0
C3129 C 0.61433 0.66254 0.91041 0.0
C3130 C 0.603 0.66739 0.92684 0.0
C3131 C 0.63462 0.66472 0.91051 0.0
C3132 C 0.6444 0.67192 0.92699 0.0
H3133 H 0.60748 0.65745 0.89713 0.0
H3134 H 0.6427 0.66083 0.89751 0.0
S3135 S 0.62185 0.68473 0.97448 0.0
N3136 N 0.60327 0.67839 0.96053 0.0
N3137 N 0.64147 0.6825 0.96071 0.0
C3138 C 0.63336 0.67639 0.9437 0.0
C3139 C 0.61267 0.67407 0.94364 0.0
C3140 C 0.05747 0.10614 0.81559 0.0
C3141 C 0.06848 0.0967 0.8301 0.0
C3142 C 0.05992 0.126 0.81169 0.0
C3143 C 0.07336 0.13737 0.82223 0.0
H3144 H 0.04717 0.09807 0.80675 0.0
H3145 H 0.05103 0.13246 0.80037 0.0
S3146 S 0.10529 0.11985 0.86232 0.0
N3147 N 0.09304 0.10032 0.8554 0.0
N3148 N 0.0976 0.13772 0.84819 0.0
C3149 C 0.08435 0.12818 0.83695 0.0
C3150 C 0.08188 0.10788 0.84089 0.0
C3151 C 0.88086 0.30418 0.43383 0.0
C3152 C 0.89152 0.32076 0.42811 0.0
C3153 C 0.86067 0.30311 0.43116 0.0
C3154 C 0.85025 0.31859 0.42272 0.0
H3155 H 0.8882 0.29167 0.44007 0.0
H3156 H 0.85318 0.29002 0.43585 0.0
S3157 S 0.87119 0.3658 0.40625 0.0
N3158 N 0.89014 0.35328 0.41418 0.0
N3159 N 0.8521 0.35143 0.40927 0.0
C3160 C 0.8607 0.33537 0.41705 0.0
C3161 C 0.88133 0.33643 0.41976 0.0
C3162 C 0.55668 0.882 0.80302 0.0
C3163 C 0.56009 0.89153 0.82089 0.0
C3164 C 0.56085 0.86219 0.80062 0.0
C3165 C 0.56855 0.85108 0.81599 0.0
H3166 H 0.55121 0.88997 0.79056 0.0
H3167 H 0.55798 0.85552 0.7866 0.0
S3168 S 0.57835 0.86869 0.86629 0.0
N3169 N 0.57053 0.88816 0.85453 0.0
N3170 N 0.57821 0.85082 0.85018 0.0
C3171 C 0.57165 0.86032 0.83409 0.0
C3172 C 0.5674 0.88054 0.83651 0.0
C3173 C 0.91883 0.11055 0.33779 0.0
C3174 C 0.92992 0.09923 0.32481 0.0
C3175 C 0.91445 0.13005 0.33373 0.0
C3176 C 0.92091 0.13906 0.31646 0.0
H3177 H 0.91376 0.1044 0.35142 0.0
H3178 H 0.90649 0.13829 0.3446 0.0
S3179 S 0.94854 0.11517 0.27647 0.0
N3180 N 0.94611 0.09809 0.29319 0.0
N3181 N 0.93747 0.13456 0.2854 0.0
C3182 C 0.93116 0.12761 0.30284 0.0
C3183 C 0.93586 0.10781 0.3071 0.0
C3184 C 0.5637 0.13369 0.6874 0.0
C3185 C 0.5733 0.14468 0.673 0.0
C3186 C 0.56038 0.11375 0.68501 0.0
C3187 C 0.56682 0.1038 0.66828 0.0
H3188 H 0.55819 0.14058 0.7005 0.0
H3189 H 0.55299 0.10605 0.69664 0.0
S3190 S 0.59298 0.12559 0.6263 0.0
N3191 N 0.58937 0.14402 0.64135 0.0
N3192 N 0.58335 0.10634 0.63705 0.0
C3193 C 0.57664 0.11448 0.65382 0.0
C3194 C 0.57989 0.13492 0.65617 0.0
C3195 C 0.13485 0.32987 0.91482 0.0
C3196 C 0.14517 0.31215 0.9162 0.0
C3197 C 0.115 0.33095 0.91951 0.0
C3198 C 0.10479 0.31444 0.92598 0.0
H3199 H 0.14216 0.34314 0.91038 0.0
H3200 H 0.10756 0.3448 0.918 0.0
S3201 S 0.12452 0.26424 0.93065 0.0
N3202 N 0.14327 0.27747 0.9234 0.0
N3203 N 0.1061 0.27959 0.93253 0.0
C3204 C 0.11482 0.29659 0.92726 0.0
C3205 C 0.13495 0.29542 0.92222 0.0
C3206 C 0.38139 0.66416 0.40942 0.0
C3207 C 0.3917 0.67086 0.42589 0.0
C3208 C 0.36122 0.6669 0.4077 0.0
C3209 C 0.35068 0.67677 0.42219 0.0
H3210 H 0.38899 0.65711 0.39751 0.0
H3211 H 0.35385 0.66145 0.39484 0.0
S3212 S 0.37012 0.69513 0.46925 0.0
N3213 N 0.38931 0.68614 0.45787 0.0
N3214 N 0.35159 0.6918 0.4543 0.0
C3215 C 0.36062 0.683 0.43901 0.0
C3216 C 0.38106 0.67984 0.44098 0.0
C3217 C 0.80793 0.55653 0.86333 0.0
C3218 C 0.8128 0.5735 0.85287 0.0
C3219 C 0.81221 0.55474 0.88317 0.0
C3220 C 0.82135 0.56992 0.89351 0.0
H3221 H 0.80104 0.54429 0.85612 0.0
H3222 H 0.8079 0.54144 0.89049 0.0
S3223 S 0.83693 0.61759 0.87301 0.0
N3224 N 0.82718 0.60589 0.85438 0.0
N3225 N 0.8352 0.60259 0.89172 0.0
C3226 C 0.82633 0.587 0.88324 0.0
C3227 C 0.822 0.5888 0.86297 0.0
C3228 C 0.65998 0.57044 0.11116 0.0
C3229 C 0.6744 0.56051 0.10053 0.0
C3230 C 0.66334 0.57645 0.13037 0.0
C3231 C 0.6813 0.57282 0.13968 0.0
H3232 H 0.64584 0.57327 0.10471 0.0
H3233 H 0.65143 0.58329 0.13818 0.0
S3234 S 0.72497 0.55018 0.11713 0.0
N3235 N 0.70811 0.5492 0.10002 0.0
N3236 N 0.71442 0.56071 0.136 0.0
C3237 C 0.69624 0.56396 0.1288 0.0
C3238 C 0.69277 0.55767 0.10931 0.0
C3239 C 0.66504 0.41332 0.36298 0.0
C3240 C 0.67583 0.4274 0.35272 0.0
C3241 C 0.66165 0.41514 0.383 0.0
C3242 C 0.66883 0.43118 0.39362 0.0
H3243 H 0.65913 0.40072 0.3555 0.0
H3244 H 0.65368 0.40359 0.39024 0.0
S3245 S 0.69685 0.4729 0.3734 0.0
N3246 N 0.6932 0.45834 0.35462 0.0
N3247 N 0.6863 0.46206 0.39208 0.0
C3248 C 0.67916 0.4457 0.38343 0.0
C3249 C 0.6829 0.44368 0.36308 0.0
C3250 C 0.80686 0.43785 0.63144 0.0
C3251 C 0.81231 0.41998 0.63989 0.0
C3252 C 0.81004 0.44156 0.6117 0.0
C3253 C 0.81859 0.4275 0.5995 0.0
H3254 H 0.80044 0.44932 0.64019 0.0
H3255 H 0.80549 0.45553 0.60591 0.0
S3256 S 0.83456 0.37789 0.61432 0.0
N3257 N 0.82626 0.38787 0.63458 0.0
N3258 N 0.83196 0.39463 0.59725 0.0
C3259 C 0.82405 0.40947 0.60773 0.0
C3260 C 0.8209 0.40575 0.62794 0.0
C3261 C 0.41014 0.1126 0.15884 0.0
C3262 C 0.42005 0.10178 0.17308 0.0
C3263 C 0.4083 0.13288 0.16047 0.0
C3264 C 0.41604 0.14303 0.17658 0.0
H3265 H 0.40392 0.10535 0.14626 0.0
H3266 H 0.4011 0.14065 0.14878 0.0
S3267 S 0.44075 0.12078 0.21927 0.0
N3268 N 0.43609 0.10224 0.20465 0.0
N3269 N 0.43238 0.14029 0.20796 0.0
C3270 C 0.42524 0.13217 0.19135 0.0
C3271 C 0.42734 0.11157 0.18952 0.0
C3272 C 0.0678 0.86332 0.65442 0.0
C3273 C 0.06824 0.85179 0.6714 0.0
C3274 C 0.06547 0.88357 0.65542 0.0
C3275 C 0.06327 0.89303 0.67341 0.0
H3276 H 0.06896 0.85669 0.64015 0.0
H3277 H 0.06523 0.89185 0.64199 0.0
S3278 S 0.06553 0.86998 0.72229 0.0
N3279 N 0.06779 0.85165 0.70686 0.0
N3280 N 0.06323 0.88968 0.70871 0.0
C3281 C 0.06418 0.88181 0.69055 0.0
C3282 C 0.06676 0.8612 0.68955 0.0
C3283 C 0.405 0.88169 0.33282 0.0
C3284 C 0.41833 0.89243 0.32159 0.0
C3285 C 0.40397 0.86134 0.33134 0.0
C3286 C 0.416 0.85099 0.31831 0.0
H3287 H 0.39527 0.88908 0.34284 0.0
H3288 H 0.39372 0.85368 0.3406 0.0
S3289 S 0.45242 0.87264 0.28451 0.0
N3290 N 0.44326 0.89143 0.2964 0.0
N3291 N 0.44116 0.8533 0.29332 0.0
C3292 C 0.42911 0.86168 0.30665 0.0
C3293 C 0.43037 0.88235 0.30841 0.0
C3294 C 0.88057 0.67923 0.06198 0.0
C3295 C 0.89187 0.66746 0.07441 0.0
C3296 C 0.86033 0.68044 0.06406 0.0
C3297 C 0.85049 0.66969 0.07844 0.0
H3298 H 0.88738 0.68791 0.0507 0.0
H3299 H 0.8523 0.6895 0.05394 0.0
S3300 S 0.87303 0.63679 0.11485 0.0
N3301 N 0.89159 0.64498 0.10188 0.0
N3302 N 0.85337 0.64699 0.10542 0.0
C3303 C 0.86148 0.65777 0.09092 0.0
C3304 C 0.88219 0.65671 0.08899 0.0
C3305 C 0.6326 0.3371 0.57348 0.0
C3306 C 0.64236 0.3194 0.56977 0.0
C3307 C 0.61238 0.33873 0.5712 0.0
C3308 C 0.60112 0.3228 0.56501 0.0
H3309 H 0.64063 0.34998 0.57783 0.0
H3310 H 0.60552 0.35264 0.57426 0.0
S3311 S 0.61921 0.27269 0.55521 0.0
N3312 N 0.63897 0.28524 0.56083 0.0
N3313 N 0.60097 0.28832 0.55649 0.0
C3314 C 0.61059 0.30488 0.56164 0.0
C3315 C 0.63118 0.30317 0.56408 0.0
C3316 C 0.15463 0.41698 0.10815 0.0
C3317 C 0.17126 0.42214 0.09744 0.0
C3318 C 0.15545 0.41507 0.12847 0.0
C3319 C 0.17303 0.41796 0.13877 0.0
H3320 H 0.14082 0.41468 0.10082 0.0
H3321 H 0.14207 0.41167 0.13613 0.0
S3322 S 0.22133 0.42892 0.11691 0.0
N3323 N 0.2062 0.42833 0.09823 0.0
N3324 N 0.20784 0.42451 0.13633 0.0
C3325 C 0.18996 0.42228 0.12805 0.0
C3326 C 0.18905 0.42446 0.10741 0.0
C3327 C 0.33636 0.41999 0.88309 0.0
C3328 C 0.31956 0.41267 0.89208 0.0
C3329 C 0.33816 0.4197 0.86276 0.0
C3330 C 0.32296 0.41262 0.85087 0.0
H3331 H 0.3481 0.42601 0.89179 0.0
H3332 H 0.3512 0.42586 0.85631 0.0
S3333 S 0.27606 0.39179 0.86773 0.0
N3334 N 0.28772 0.39767 0.88796 0.0
N3335 N 0.29076 0.39789 0.84965 0.0
C3336 C 0.30617 0.40512 0.85979 0.0
C3337 C 0.30456 0.40495 0.88047 0.0
C3338 C 0.33237 0.57611 0.63284 0.0
C3339 C 0.31612 0.56847 0.6428 0.0
C3340 C 0.33373 0.57508 0.61252 0.0
C3341 C 0.31896 0.56631 0.60134 0.0
H3342 H 0.34443 0.58252 0.64077 0.0
H3343 H 0.34653 0.58115 0.60552 0.0
S3344 S 0.27245 0.54583 0.62012 0.0
N3345 N 0.28427 0.55307 0.63978 0.0
N3346 N 0.2869 0.55102 0.60161 0.0
C3347 C 0.30239 0.55905 0.61104 0.0
C3348 C 0.30092 0.56023 0.63174 0.0
C3349 C 0.15904 0.57746 0.3788 0.0
C3350 C 0.17177 0.56693 0.39092 0.0
C3351 C 0.1629 0.5797 0.3589 0.0
C3352 C 0.17966 0.57149 0.35032 0.0
H3353 H 0.14591 0.58396 0.38469 0.0
H3354 H 0.15229 0.5874 0.3501 0.0
S3355 S 0.2187 0.54425 0.37592 0.0
N3356 N 0.2026 0.54932 0.39305 0.0
N3357 N 0.20976 0.55361 0.35566 0.0
C3358 C 0.19282 0.56146 0.36235 0.0
C3359 C 0.18888 0.5591 0.38261 0.0
loop_
_geom_bond_atom_site_label_1
_geom_bond_atom_site_label_2
_geom_bond_distance
_geom_bond_site_symmetry_2
_ccdc_geom_bond_type
C0 O1 1.160 . S
C0 O7 1.185 . S
O1 C0 1.160 . S
O2 Zn3 1.899 . S
O2 C10 1.284 . S
Zn3 O2 1.899 . S
Zn3 O4 2.032 . S
Zn3 O7 2.086 . S
Zn3 O12 1.977 . S
O4 Zn3 2.032 . S
O4 C8 1.278 . S
C5 O6 1.203 . S
C5 O12 1.267 . S
O6 C5 1.203 . S
O7 C0 1.185 . S
O7 Zn3 2.086 . S
C8 O4 1.278 . S
C8 O9 1.211 . S
O9 C8 1.211 . S
C10 O2 1.284 . S
C10 O11 1.273 . S
O11 C10 1.273 . S
O12 Zn3 1.977 . S
O12 C5 1.267 . S
C13 O14 1.160 . S
C13 O20 1.185 . S
O14 C13 1.160 . S
O15 Zn16 1.899 . S
O15 C23 1.284 . S
Zn16 O15 1.899 . S
Zn16 O17 2.032 . S
Zn16 O20 2.086 . S
Zn16 O25 1.977 . S
O17 Zn16 2.032 . S
O17 C21 1.278 . S
C18 O19 1.203 . S
C18 O25 1.267 . S
O19 C18 1.203 . S
O20 C13 1.185 . S
O20 Zn16 2.086 . S
C21 O17 1.278 . S
C21 O22 1.211 . S
O22 C21 1.211 . S
C23 O15 1.284 . S
C23 O24 1.273 . S
O24 C23 1.273 . S
O25 Zn16 1.977 . S
O25 C18 1.267 . S
C26 O27 1.160 . S
C26 O33 1.185 . S
O27 C26 1.160 . S
O28 Zn29 1.899 . S
O28 C36 1.284 . S
Zn29 O28 1.899 . S
Zn29 O30 2.032 . S
Zn29 O33 2.086 . S
Zn29 O38 1.977 . S
O30 Zn29 2.032 . S
O30 C34 1.278 . S
C31 O32 1.203 . S
C31 O38 1.267 . S
O32 C31 1.203 . S
O33 C26 1.185 . S
O33 Zn29 2.086 . S
C34 O30 1.278 . S
C34 O35 1.211 . S
O35 C34 1.211 . S
C36 O28 1.284 . S
C36 O37 1.273 . S
O37 C36 1.273 . S
O38 Zn29 1.977 . S
O38 C31 1.267 . S
C39 O40 1.160 . S
C39 O46 1.185 . S
O40 C39 1.160 . S
O41 Zn42 1.899 . S
O41 C49 1.284 . S
Zn42 O41 1.899 . S
Zn42 O43 2.032 . S
Zn42 O46 2.086 . S
Zn42 O51 1.977 . S
O43 Zn42 2.032 . S
O43 C47 1.278 . S
C44 O45 1.203 . S
C44 O51 1.267 . S
O45 C44 1.203 . S
O46 C39 1.185 . S
O46 Zn42 2.086 . S
C47 O43 1.278 . S
C47 O48 1.211 . S
O48 C47 1.211 . S
C49 O41 1.284 . S
C49 O50 1.273 . S
O50 C49 1.273 . S
O51 Zn42 1.977 . S
O51 C44 1.267 . S
C52 O53 1.160 . S
C52 O59 1.185 . S
O53 C52 1.160 . S
O54 Zn55 1.899 . S
O54 C62 1.284 . S
Zn55 O54 1.899 . S
Zn55 O56 2.032 . S
Zn55 O59 2.086 . S
Zn55 O64 1.977 . S
O56 Zn55 2.032 . S
O56 C60 1.278 . S
C57 O58 1.203 . S
C57 O64 1.267 . S
O58 C57 1.203 . S
O59 C52 1.185 . S
O59 Zn55 2.086 . S
C60 O56 1.278 . S
C60 O61 1.211 . S
O61 C60 1.211 . S
C62 O54 1.284 . S
C62 O63 1.273 . S
O63 C62 1.273 . S
O64 Zn55 1.977 . S
O64 C57 1.267 . S
C65 O66 1.160 . S
C65 O72 1.185 . S
O66 C65 1.160 . S
O67 Zn68 1.899 . S
O67 C75 1.284 . S
Zn68 O67 1.899 . S
Zn68 O69 2.032 . S
Zn68 O72 2.086 . S
Zn68 O77 1.977 . S
O69 Zn68 2.032 . S
O69 C73 1.278 . S
C70 O71 1.203 . S
C70 O77 1.267 . S
O71 C70 1.203 . S
O72 C65 1.185 . S
O72 Zn68 2.086 . S
C73 O69 1.278 . S
C73 O74 1.211 . S
O74 C73 1.211 . S
C75 O67 1.284 . S
C75 O76 1.273 . S
O76 C75 1.273 . S
O77 Zn68 1.977 . S
O77 C70 1.267 . S
C78 O79 1.160 . S
C78 O85 1.185 . S
O79 C78 1.160 . S
O80 Zn81 1.899 . S
O80 C88 1.284 . S
Zn81 O80 1.899 . S
Zn81 O82 2.032 . S
Zn81 O85 2.086 . S
Zn81 O90 1.977 . S
O82 Zn81 2.032 . S
O82 C86 1.278 . S
C83 O84 1.203 . S
C83 O90 1.267 . S
O84 C83 1.203 . S
O85 C78 1.185 . S
O85 Zn81 2.086 . S
C86 O82 1.278 . S
C86 O87 1.211 . S
O87 C86 1.211 . S
C88 O80 1.284 . S
C88 O89 1.273 . S
O89 C88 1.273 . S
O90 Zn81 1.977 . S
O90 C83 1.267 . S
C91 O92 1.160 . S
C91 O98 1.185 . S
O92 C91 1.160 . S
O93 Zn94 1.899 . S
O93 C101 1.284 . S
Zn94 O93 1.899 . S
Zn94 O95 2.032 . S
Zn94 O98 2.086 . S
Zn94 O103 1.977 . S
O95 Zn94 2.032 . S
O95 C99 1.278 . S
C96 O97 1.203 . S
C96 O103 1.267 . S
O97 C96 1.203 . S
O98 C91 1.185 . S
O98 Zn94 2.086 . S
C99 O95 1.278 . S
C99 O100 1.211 . S
O100 C99 1.211 . S
C101 O93 1.284 . S
C101 O102 1.273 . S
O102 C101 1.273 . S
O103 Zn94 1.977 . S
O103 C96 1.267 . S
C104 O105 1.160 . S
C104 O111 1.185 . S
O105 C104 1.160 . S
O106 Zn107 1.899 . S
O106 C114 1.284 . S
Zn107 O106 1.899 . S
Zn107 O108 2.032 . S
Zn107 O111 2.086 . S
Zn107 O116 1.977 . S
O108 Zn107 2.032 . S
O108 C112 1.278 . S
C109 O110 1.203 . S
C109 O116 1.267 . S
O110 C109 1.203 . S
O111 C104 1.185 . S
O111 Zn107 2.086 . S
C112 O108 1.278 . S
C112 O113 1.211 . S
O113 C112 1.211 . S
C114 O106 1.284 . S
C114 O115 1.273 . S
O115 C114 1.273 . S
O116 Zn107 1.977 . S
O116 C109 1.267 . S
C117 O118 1.160 . S
C117 O124 1.185 . S
O118 C117 1.160 . S
O119 Zn120 1.899 . S
O119 C127 1.284 . S
Zn120 O119 1.899 . S
Zn120 O121 2.032 . S
Zn120 O124 2.086 . S
Zn120 O129 1.977 . S
O121 Zn120 2.032 . S
O121 C125 1.278 . S
C122 O123 1.203 . S
C122 O129 1.267 . S
O123 C122 1.203 . S
O124 C117 1.185 . S
O124 Zn120 2.086 . S
C125 O121 1.278 . S
C125 O126 1.211 . S
O126 C125 1.211 . S
C127 O119 1.284 . S
C127 O128 1.273 . S
O128 C127 1.273 . S
O129 Zn120 1.977 . S
O129 C122 1.267 . S
C130 O131 1.160 . S
C130 O137 1.185 . S
O131 C130 1.160 . S
O132 Zn133 1.899 . S
O132 C140 1.284 . S
Zn133 O132 1.899 . S
Zn133 O134 2.032 . S
Zn133 O137 2.086 . S
Zn133 O142 1.977 . S
O134 Zn133 2.032 . S
O134 C138 1.278 . S
C135 O136 1.203 . S
C135 O142 1.267 . S
O136 C135 1.203 . S
O137 C130 1.185 . S
O137 Zn133 2.086 . S
C138 O134 1.278 . S
C138 O139 1.211 . S
O139 C138 1.211 . S
C140 O132 1.284 . S
C140 O141 1.273 . S
O141 C140 1.273 . S
O142 Zn133 1.977 . S
O142 C135 1.267 . S
C143 O144 1.160 . S
C143 O150 1.185 . S
O144 C143 1.160 . S
O145 Zn146 1.899 . S
O145 C153 1.284 . S
Zn146 O145 1.899 . S
Zn146 O147 2.032 . S
Zn146 O150 2.086 . S
Zn146 O155 1.977 . S
O147 Zn146 2.032 . S
O147 C151 1.278 . S
C148 O149 1.203 . S
C148 O155 1.267 . S
O149 C148 1.203 . S
O150 C143 1.185 . S
O150 Zn146 2.086 . S
C151 O147 1.278 . S
C151 O152 1.211 . S
O152 C151 1.211 . S
C153 O145 1.284 . S
C153 O154 1.273 . S
O154 C153 1.273 . S
O155 Zn146 1.977 . S
O155 C148 1.267 . S
C156 O157 1.160 . S
C156 O163 1.185 . S
O157 C156 1.160 . S
O158 Zn159 1.899 . S
O158 C166 1.284 . S
Zn159 O158 1.899 . S
Zn159 O160 2.032 . S
Zn159 O163 2.086 . S
Zn159 O168 1.977 . S
O160 Zn159 2.032 . S
O160 C164 1.278 . S
C161 O162 1.203 . S
C161 O168 1.267 . S
O162 C161 1.203 . S
O163 C156 1.185 . S
O163 Zn159 2.086 . S
C164 O160 1.278 . S
C164 O165 1.211 . S
O165 C164 1.211 . S
C166 O158 1.284 . S
C166 O167 1.273 . S
O167 C166 1.273 . S
O168 Zn159 1.977 . S
O168 C161 1.267 . S
C169 O170 1.160 . S
C169 O176 1.185 . S
O170 C169 1.160 . S
O171 Zn172 1.899 . S
O171 C179 1.284 . S
Zn172 O171 1.899 . S
Zn172 O173 2.032 . S
Zn172 O176 2.086 . S
Zn172 O181 1.977 . S
O173 Zn172 2.032 . S
O173 C177 1.278 . S
C174 O175 1.203 . S
C174 O181 1.267 . S
O175 C174 1.203 . S
O176 C169 1.185 . S
O176 Zn172 2.086 . S
C177 O173 1.278 . S
C177 O178 1.211 . S
O178 C177 1.211 . S
C179 O171 1.284 . S
C179 O180 1.273 . S
O180 C179 1.273 . S
O181 Zn172 1.977 . S
O181 C174 1.267 . S
C182 O183 1.160 . S
C182 O189 1.185 . S
O183 C182 1.160 . S
O184 Zn185 1.899 . S
O184 C192 1.284 . S
Zn185 O184 1.899 . S
Zn185 O186 2.032 . S
Zn185 O189 2.086 . S
Zn185 O194 1.977 . S
O186 Zn185 2.032 . S
O186 C190 1.278 . S
C187 O188 1.203 . S
C187 O194 1.267 . S
O188 C187 1.203 . S
O189 C182 1.185 . S
O189 Zn185 2.086 . S
C190 O186 1.278 . S
C190 O191 1.211 . S
O191 C190 1.211 . S
C192 O184 1.284 . S
C192 O193 1.273 . S
O193 C192 1.273 . S
O194 Zn185 1.977 . S
O194 C187 1.267 . S
C195 O196 1.160 . S
C195 O202 1.185 . S
O196 C195 1.160 . S
O197 Zn198 1.899 . S
O197 C205 1.284 . S
Zn198 O197 1.899 . S
Zn198 O199 2.032 . S
Zn198 O202 2.086 . S
Zn198 O207 1.977 . S
O199 Zn198 2.032 . S
O199 C203 1.278 . S
C200 O201 1.203 . S
C200 O207 1.267 . S
O201 C200 1.203 . S
O202 C195 1.185 . S
O202 Zn198 2.086 . S
C203 O199 1.278 . S
C203 O204 1.211 . S
O204 C203 1.211 . S
C205 O197 1.284 . S
C205 O206 1.273 . S
O206 C205 1.273 . S
O207 Zn198 1.977 . S
O207 C200 1.267 . S
C208 O209 1.160 . S
C208 O215 1.185 . S
O209 C208 1.160 . S
O210 Zn211 1.899 . S
O210 C218 1.284 . S
Zn211 O210 1.899 . S
Zn211 O212 2.032 . S
Zn211 O215 2.086 . S
Zn211 O220 1.977 . S
O212 Zn211 2.032 . S
O212 C216 1.278 . S
C213 O214 1.203 . S
C213 O220 1.267 . S
O214 C213 1.203 . S
O215 C208 1.185 . S
O215 Zn211 2.086 . S
C216 O212 1.278 . S
C216 O217 1.211 . S
O217 C216 1.211 . S
C218 O210 1.284 . S
C218 O219 1.273 . S
O219 C218 1.273 . S
O220 Zn211 1.977 . S
O220 C213 1.267 . S
C221 O222 1.160 . S
C221 O228 1.185 . S
O222 C221 1.160 . S
O223 Zn224 1.899 . S
O223 C231 1.284 . S
Zn224 O223 1.899 . S
Zn224 O225 2.032 . S
Zn224 O228 2.086 . S
Zn224 O233 1.977 . S
O225 Zn224 2.032 . S
O225 C229 1.278 . S
C226 O227 1.203 . S
C226 O233 1.267 . S
O227 C226 1.203 . S
O228 C221 1.185 . S
O228 Zn224 2.086 . S
C229 O225 1.278 . S
C229 O230 1.211 . S
O230 C229 1.211 . S
C231 O223 1.284 . S
C231 O232 1.273 . S
O232 C231 1.273 . S
O233 Zn224 1.977 . S
O233 C226 1.267 . S
C234 O235 1.160 . S
C234 O241 1.185 . S
O235 C234 1.160 . S
O236 Zn237 1.899 . S
O236 C244 1.284 . S
Zn237 O236 1.899 . S
Zn237 O238 2.032 . S
Zn237 O241 2.086 . S
Zn237 O246 1.977 . S
O238 Zn237 2.032 . S
O238 C242 1.278 . S
C239 O240 1.203 . S
C239 O246 1.267 . S
O240 C239 1.203 . S
O241 C234 1.185 . S
O241 Zn237 2.086 . S
C242 O238 1.278 . S
C242 O243 1.211 . S
O243 C242 1.211 . S
C244 O236 1.284 . S
C244 O245 1.273 . S
O245 C244 1.273 . S
O246 Zn237 1.977 . S
O246 C239 1.267 . S
C247 O248 1.160 . S
C247 O254 1.185 . S
O248 C247 1.160 . S
O249 Zn250 1.899 . S
O249 C257 1.284 . S
Zn250 O249 1.899 . S
Zn250 O251 2.032 . S
Zn250 O254 2.086 . S
Zn250 O259 1.977 . S
O251 Zn250 2.032 . S
O251 C255 1.278 . S
C252 O253 1.203 . S
C252 O259 1.267 . S
O253 C252 1.203 . S
O254 C247 1.185 . S
O254 Zn250 2.086 . S
C255 O251 1.278 . S
C255 O256 1.211 . S
O256 C255 1.211 . S
C257 O249 1.284 . S
C257 O258 1.273 . S
O258 C257 1.273 . S
O259 Zn250 1.977 . S
O259 C252 1.267 . S
C260 O261 1.160 . S
C260 O267 1.185 . S
O261 C260 1.160 . S
O262 Zn263 1.899 . S
O262 C270 1.284 . S
Zn263 O262 1.899 . S
Zn263 O264 2.032 . S
Zn263 O267 2.086 . S
Zn263 O272 1.977 . S
O264 Zn263 2.032 . S
O264 C268 1.278 . S
C265 O266 1.203 . S
C265 O272 1.267 . S
O266 C265 1.203 . S
O267 C260 1.185 . S
O267 Zn263 2.086 . S
C268 O264 1.278 . S
C268 O269 1.211 . S
O269 C268 1.211 . S
C270 O262 1.284 . S
C270 O271 1.273 . S
O271 C270 1.273 . S
O272 Zn263 1.977 . S
O272 C265 1.267 . S
C273 O274 1.160 . S
C273 O280 1.185 . S
O274 C273 1.160 . S
O275 Zn276 1.899 . S
O275 C283 1.284 . S
Zn276 O275 1.899 . S
Zn276 O277 2.032 . S
Zn276 O280 2.086 . S
Zn276 O285 1.977 . S
O277 Zn276 2.032 . S
O277 C281 1.278 . S
C278 O279 1.203 . S
C278 O285 1.267 . S
O279 C278 1.203 . S
O280 C273 1.185 . S
O280 Zn276 2.086 . S
C281 O277 1.278 . S
C281 O282 1.211 . S
O282 C281 1.211 . S
C283 O275 1.284 . S
C283 O284 1.273 . S
O284 C283 1.273 . S
O285 Zn276 1.977 . S
O285 C278 1.267 . S
C286 O287 1.160 . S
C286 O293 1.185 . S
O287 C286 1.160 . S
O288 Zn289 1.899 . S
O288 C296 1.284 . S
Zn289 O288 1.899 . S
Zn289 O290 2.032 . S
Zn289 O293 2.086 . S
Zn289 O298 1.977 . S
O290 Zn289 2.032 . S
O290 C294 1.278 . S
C291 O292 1.203 . S
C291 O298 1.267 . S
O292 C291 1.203 . S
O293 C286 1.185 . S
O293 Zn289 2.086 . S
C294 O290 1.278 . S
C294 O295 1.211 . S
O295 C294 1.211 . S
C296 O288 1.284 . S
C296 O297 1.273 . S
O297 C296 1.273 . S
O298 Zn289 1.977 . S
O298 C291 1.267 . S
C299 O300 1.160 . S
C299 O306 1.185 . S
O300 C299 1.160 . S
O301 Zn302 1.899 . S
O301 C309 1.284 . S
Zn302 O301 1.899 . S
Zn302 O303 2.032 . S
Zn302 O306 2.086 . S
Zn302 O311 1.977 . S
O303 Zn302 2.032 . S
O303 C307 1.278 . S
C304 O305 1.203 . S
C304 O311 1.267 . S
O305 C304 1.203 . S
O306 C299 1.185 . S
O306 Zn302 2.086 . S
C307 O303 1.278 . S
C307 O308 1.211 . S
O308 C307 1.211 . S
C309 O301 1.284 . S
C309 O310 1.273 . S
O310 C309 1.273 . S
O311 Zn302 1.977 . S
O311 C304 1.267 . S
C312 O313 1.160 . S
C312 O319 1.185 . S
O313 C312 1.160 . S
O314 Zn315 1.899 . S
O314 C322 1.284 . S
Zn315 O314 1.899 . S
Zn315 O316 2.032 . S
Zn315 O319 2.086 . S
Zn315 O324 1.977 . S
O316 Zn315 2.032 . S
O316 C320 1.278 . S
C317 O318 1.203 . S
C317 O324 1.267 . S
O318 C317 1.203 . S
O319 C312 1.185 . S
O319 Zn315 2.086 . S
C320 O316 1.278 . S
C320 O321 1.211 . S
O321 C320 1.211 . S
C322 O314 1.284 . S
C322 O323 1.273 . S
O323 C322 1.273 . S
O324 Zn315 1.977 . S
O324 C317 1.267 . S
C325 O326 1.160 . S
C325 O332 1.185 . S
O326 C325 1.160 . S
O327 Zn328 1.899 . S
O327 C335 1.284 . S
Zn328 O327 1.899 . S
Zn328 O329 2.032 . S
Zn328 O332 2.086 . S
Zn328 O337 1.977 . S
O329 Zn328 2.032 . S
O329 C333 1.278 . S
C330 O331 1.203 . S
C330 O337 1.267 . S
O331 C330 1.203 . S
O332 C325 1.185 . S
O332 Zn328 2.086 . S
C333 O329 1.278 . S
C333 O334 1.211 . S
O334 C333 1.211 . S
C335 O327 1.284 . S
C335 O336 1.273 . S
O336 C335 1.273 . S
O337 Zn328 1.977 . S
O337 C330 1.267 . S
C338 O339 1.160 . S
C338 O345 1.185 . S
O339 C338 1.160 . S
O340 Zn341 1.899 . S
O340 C348 1.284 . S
Zn341 O340 1.899 . S
Zn341 O342 2.032 . S
Zn341 O345 2.086 . S
Zn341 O350 1.977 . S
O342 Zn341 2.032 . S
O342 C346 1.278 . S
C343 O344 1.203 . S
C343 O350 1.267 . S
O344 C343 1.203 . S
O345 C338 1.185 . S
O345 Zn341 2.086 . S
C346 O342 1.278 . S
C346 O347 1.211 . S
O347 C346 1.211 . S
C348 O340 1.284 . S
C348 O349 1.273 . S
O349 C348 1.273 . S
O350 Zn341 1.977 . S
O350 C343 1.267 . S
C351 O352 1.160 . S
C351 O358 1.185 . S
O352 C351 1.160 . S
O353 Zn354 1.899 . S
O353 C361 1.284 . S
Zn354 O353 1.899 . S
Zn354 O355 2.032 . S
Zn354 O358 2.086 . S
Zn354 O363 1.977 . S
O355 Zn354 2.032 . S
O355 C359 1.278 . S
C356 O357 1.203 . S
C356 O363 1.267 . S
O357 C356 1.203 . S
O358 C351 1.185 . S
O358 Zn354 2.086 . S
C359 O355 1.278 . S
C359 O360 1.211 . S
O360 C359 1.211 . S
C361 O353 1.284 . S
C361 O362 1.273 . S
O362 C361 1.273 . S
O363 Zn354 1.977 . S
O363 C356 1.267 . S
C364 O365 1.160 . S
C364 O371 1.185 . S
O365 C364 1.160 . S
O366 Zn367 1.899 . S
O366 C374 1.284 . S
Zn367 O366 1.899 . S
Zn367 O368 2.032 . S
Zn367 O371 2.086 . S
Zn367 O376 1.977 . S
O368 Zn367 2.032 . S
O368 C372 1.278 . S
C369 O370 1.203 . S
C369 O376 1.267 . S
O370 C369 1.203 . S
O371 C364 1.185 . S
O371 Zn367 2.086 . S
C372 O368 1.278 . S
C372 O373 1.211 . S
O373 C372 1.211 . S
C374 O366 1.284 . S
C374 O375 1.273 . S
O375 C374 1.273 . S
O376 Zn367 1.977 . S
O376 C369 1.267 . S
C377 O378 1.160 . S
C377 O384 1.185 . S
O378 C377 1.160 . S
O379 Zn380 1.899 . S
O379 C387 1.284 . S
Zn380 O379 1.899 . S
Zn380 O381 2.032 . S
Zn380 O384 2.086 . S
Zn380 O389 1.977 . S
O381 Zn380 2.032 . S
O381 C385 1.278 . S
C382 O383 1.203 . S
C382 O389 1.267 . S
O383 C382 1.203 . S
O384 C377 1.185 . S
O384 Zn380 2.086 . S
C385 O381 1.278 . S
C385 O386 1.211 . S
O386 C385 1.211 . S
C387 O379 1.284 . S
C387 O388 1.273 . S
O388 C387 1.273 . S
O389 Zn380 1.977 . S
O389 C382 1.267 . S
C390 O391 1.160 . S
C390 O397 1.185 . S
O391 C390 1.160 . S
O392 Zn393 1.899 . S
O392 C400 1.284 . S
Zn393 O392 1.899 . S
Zn393 O394 2.032 . S
Zn393 O397 2.086 . S
Zn393 O402 1.977 . S
O394 Zn393 2.032 . S
O394 C398 1.278 . S
C395 O396 1.203 . S
C395 O402 1.267 . S
O396 C395 1.203 . S
O397 C390 1.185 . S
O397 Zn393 2.086 . S
C398 O394 1.278 . S
C398 O399 1.211 . S
O399 C398 1.211 . S
C400 O392 1.284 . S
C400 O401 1.273 . S
O401 C400 1.273 . S
O402 Zn393 1.977 . S
O402 C395 1.267 . S
C403 O404 1.160 . S
C403 O410 1.185 . S
O404 C403 1.160 . S
O405 Zn406 1.899 . S
O405 C413 1.284 . S
Zn406 O405 1.899 . S
Zn406 O407 2.032 . S
Zn406 O410 2.086 . S
Zn406 O415 1.977 . S
O407 Zn406 2.032 . S
O407 C411 1.278 . S
C408 O409 1.203 . S
C408 O415 1.267 . S
O409 C408 1.203 . S
O410 C403 1.185 . S
O410 Zn406 2.086 . S
C411 O407 1.278 . S
C411 O412 1.211 . S
O412 C411 1.211 . S
C413 O405 1.284 . S
C413 O414 1.273 . S
O414 C413 1.273 . S
O415 Zn406 1.977 . S
O415 C408 1.267 . S
C416 O417 1.160 . S
C416 O423 1.185 . S
O417 C416 1.160 . S
O418 Zn419 1.899 . S
O418 C426 1.284 . S
Zn419 O418 1.899 . S
Zn419 O420 2.032 . S
Zn419 O423 2.086 . S
Zn419 O428 1.977 . S
O420 Zn419 2.032 . S
O420 C424 1.278 . S
C421 O422 1.203 . S
C421 O428 1.267 . S
O422 C421 1.203 . S
O423 C416 1.185 . S
O423 Zn419 2.086 . S
C424 O420 1.278 . S
C424 O425 1.211 . S
O425 C424 1.211 . S
C426 O418 1.284 . S
C426 O427 1.273 . S
O427 C426 1.273 . S
O428 Zn419 1.977 . S
O428 C421 1.267 . S
C429 O430 1.160 . S
C429 O436 1.185 . S
O430 C429 1.160 . S
O431 Zn432 1.899 . S
O431 C439 1.284 . S
Zn432 O431 1.899 . S
Zn432 O433 2.032 . S
Zn432 O436 2.086 . S
Zn432 O441 1.977 . S
O433 Zn432 2.032 . S
O433 C437 1.278 . S
C434 O435 1.203 . S
C434 O441 1.267 . S
O435 C434 1.203 . S
O436 C429 1.185 . S
O436 Zn432 2.086 . S
C437 O433 1.278 . S
C437 O438 1.211 . S
O438 C437 1.211 . S
C439 O431 1.284 . S
C439 O440 1.273 . S
O440 C439 1.273 . S
O441 Zn432 1.977 . S
O441 C434 1.267 . S
C442 O443 1.160 . S
C442 O449 1.185 . S
O443 C442 1.160 . S
O444 Zn445 1.899 . S
O444 C452 1.284 . S
Zn445 O444 1.899 . S
Zn445 O446 2.032 . S
Zn445 O449 2.086 . S
Zn445 O454 1.977 . S
O446 Zn445 2.032 . S
O446 C450 1.278 . S
C447 O448 1.203 . S
C447 O454 1.267 . S
O448 C447 1.203 . S
O449 C442 1.185 . S
O449 Zn445 2.086 . S
C450 O446 1.278 . S
C450 O451 1.211 . S
O451 C450 1.211 . S
C452 O444 1.284 . S
C452 O453 1.273 . S
O453 C452 1.273 . S
O454 Zn445 1.977 . S
O454 C447 1.267 . S
C455 O456 1.160 . S
C455 O462 1.185 . S
O456 C455 1.160 . S
O457 Zn458 1.899 . S
O457 C465 1.284 . S
Zn458 O457 1.899 . S
Zn458 O459 2.032 . S
Zn458 O462 2.086 . S
Zn458 O467 1.977 . S
O459 Zn458 2.032 . S
O459 C463 1.278 . S
C460 O461 1.203 . S
C460 O467 1.267 . S
O461 C460 1.203 . S
O462 C455 1.185 . S
O462 Zn458 2.086 . S
C463 O459 1.278 . S
C463 O464 1.211 . S
O464 C463 1.211 . S
C465 O457 1.284 . S
C465 O466 1.273 . S
O466 C465 1.273 . S
O467 Zn458 1.977 . S
O467 C460 1.267 . S
C468 O469 1.160 . S
C468 O475 1.185 . S
O469 C468 1.160 . S
O470 Zn471 1.899 . S
O470 C478 1.284 . S
Zn471 O470 1.899 . S
Zn471 O472 2.032 . S
Zn471 O475 2.086 . S
Zn471 O480 1.977 . S
O472 Zn471 2.032 . S
O472 C476 1.278 . S
C473 O474 1.203 . S
C473 O480 1.267 . S
O474 C473 1.203 . S
O475 C468 1.185 . S
O475 Zn471 2.086 . S
C476 O472 1.278 . S
C476 O477 1.211 . S
O477 C476 1.211 . S
C478 O470 1.284 . S
C478 O479 1.273 . S
O479 C478 1.273 . S
O480 Zn471 1.977 . S
O480 C473 1.267 . S
C481 O482 1.160 . S
C481 O488 1.185 . S
O482 C481 1.160 . S
O483 Zn484 1.899 . S
O483 C491 1.284 . S
Zn484 O483 1.899 . S
Zn484 O485 2.032 . S
Zn484 O488 2.086 . S
Zn484 O493 1.977 . S
O485 Zn484 2.032 . S
O485 C489 1.278 . S
C486 O487 1.203 . S
C486 O493 1.267 . S
O487 C486 1.203 . S
O488 C481 1.185 . S
O488 Zn484 2.086 . S
C489 O485 1.278 . S
C489 O490 1.211 . S
O490 C489 1.211 . S
C491 O483 1.284 . S
C491 O492 1.273 . S
O492 C491 1.273 . S
O493 Zn484 1.977 . S
O493 C486 1.267 . S
C494 O495 1.160 . S
C494 O501 1.185 . S
O495 C494 1.160 . S
O496 Zn497 1.899 . S
O496 C504 1.284 . S
Zn497 O496 1.899 . S
Zn497 O498 2.032 . S
Zn497 O501 2.086 . S
Zn497 O506 1.977 . S
O498 Zn497 2.032 . S
O498 C502 1.278 . S
C499 O500 1.203 . S
C499 O506 1.267 . S
O500 C499 1.203 . S
O501 C494 1.185 . S
O501 Zn497 2.086 . S
C502 O498 1.278 . S
C502 O503 1.211 . S
O503 C502 1.211 . S
C504 O496 1.284 . S
C504 O505 1.273 . S
O505 C504 1.273 . S
O506 Zn497 1.977 . S
O506 C499 1.267 . S
C507 O508 1.160 . S
C507 O514 1.185 . S
O508 C507 1.160 . S
O509 Zn510 1.899 . S
O509 C517 1.284 . S
Zn510 O509 1.899 . S
Zn510 O511 2.032 . S
Zn510 O514 2.086 . S
Zn510 O519 1.977 . S
O511 Zn510 2.032 . S
O511 C515 1.278 . S
C512 O513 1.203 . S
C512 O519 1.267 . S
O513 C512 1.203 . S
O514 C507 1.185 . S
O514 Zn510 2.086 . S
C515 O511 1.278 . S
C515 O516 1.211 . S
O516 C515 1.211 . S
C517 O509 1.284 . S
C517 O518 1.273 . S
O518 C517 1.273 . S
O519 Zn510 1.977 . S
O519 C512 1.267 . S
C520 O521 1.160 . S
C520 O527 1.185 . S
O521 C520 1.160 . S
O522 Zn523 1.899 . S
O522 C530 1.284 . S
Zn523 O522 1.899 . S
Zn523 O524 2.032 . S
Zn523 O527 2.086 . S
Zn523 O532 1.977 . S
O524 Zn523 2.032 . S
O524 C528 1.278 . S
C525 O526 1.203 . S
C525 O532 1.267 . S
O526 C525 1.203 . S
O527 C520 1.185 . S
O527 Zn523 2.086 . S
C528 O524 1.278 . S
C528 O529 1.211 . S
O529 C528 1.211 . S
C530 O522 1.284 . S
C530 O531 1.273 . S
O531 C530 1.273 . S
O532 Zn523 1.977 . S
O532 C525 1.267 . S
C533 O534 1.160 . S
C533 O540 1.185 . S
O534 C533 1.160 . S
O535 Zn536 1.899 . S
O535 C543 1.284 . S
Zn536 O535 1.899 . S
Zn536 O537 2.032 . S
Zn536 O540 2.086 . S
Zn536 O545 1.977 . S
O537 Zn536 2.032 . S
O537 C541 1.278 . S
C538 O539 1.203 . S
C538 O545 1.267 . S
O539 C538 1.203 . S
O540 C533 1.185 . S
O540 Zn536 2.086 . S
C541 O537 1.278 . S
C541 O542 1.211 . S
O542 C541 1.211 . S
C543 O535 1.284 . S
C543 O544 1.273 . S
O544 C543 1.273 . S
O545 Zn536 1.977 . S
O545 C538 1.267 . S
C546 O547 1.160 . S
C546 O553 1.185 . S
O547 C546 1.160 . S
O548 Zn549 1.899 . S
O548 C556 1.284 . S
Zn549 O548 1.899 . S
Zn549 O550 2.032 . S
Zn549 O553 2.086 . S
Zn549 O558 1.977 . S
O550 Zn549 2.032 . S
O550 C554 1.278 . S
C551 O552 1.203 . S
C551 O558 1.267 . S
O552 C551 1.203 . S
O553 C546 1.185 . S
O553 Zn549 2.086 . S
C554 O550 1.278 . S
C554 O555 1.211 . S
O555 C554 1.211 . S
C556 O548 1.284 . S
C556 O557 1.273 . S
O557 C556 1.273 . S
O558 Zn549 1.977 . S
O558 C551 1.267 . S
C559 O560 1.160 . S
C559 O566 1.185 . S
O560 C559 1.160 . S
O561 Zn562 1.899 . S
O561 C569 1.284 . S
Zn562 O561 1.899 . S
Zn562 O563 2.032 . S
Zn562 O566 2.086 . S
Zn562 O571 1.977 . S
O563 Zn562 2.032 . S
O563 C567 1.278 . S
C564 O565 1.203 . S
C564 O571 1.267 . S
O565 C564 1.203 . S
O566 C559 1.185 . S
O566 Zn562 2.086 . S
C567 O563 1.278 . S
C567 O568 1.211 . S
O568 C567 1.211 . S
C569 O561 1.284 . S
C569 O570 1.273 . S
O570 C569 1.273 . S
O571 Zn562 1.977 . S
O571 C564 1.267 . S
C572 O573 1.160 . S
C572 O579 1.185 . S
O573 C572 1.160 . S
O574 Zn575 1.899 . S
O574 C582 1.284 . S
Zn575 O574 1.899 . S
Zn575 O576 2.032 . S
Zn575 O579 2.086 . S
Zn575 O584 1.977 . S
O576 Zn575 2.032 . S
O576 C580 1.278 . S
C577 O578 1.203 . S
C577 O584 1.267 . S
O578 C577 1.203 . S
O579 C572 1.185 . S
O579 Zn575 2.086 . S
C580 O576 1.278 . S
C580 O581 1.211 . S
O581 C580 1.211 . S
C582 O574 1.284 . S
C582 O583 1.273 . S
O583 C582 1.273 . S
O584 Zn575 1.977 . S
O584 C577 1.267 . S
C585 O586 1.160 . S
C585 O592 1.185 . S
O586 C585 1.160 . S
O587 Zn588 1.899 . S
O587 C595 1.284 . S
Zn588 O587 1.899 . S
Zn588 O589 2.032 . S
Zn588 O592 2.086 . S
Zn588 O597 1.977 . S
O589 Zn588 2.032 . S
O589 C593 1.278 . S
C590 O591 1.203 . S
C590 O597 1.267 . S
O591 C590 1.203 . S
O592 C585 1.185 . S
O592 Zn588 2.086 . S
C593 O589 1.278 . S
C593 O594 1.211 . S
O594 C593 1.211 . S
C595 O587 1.284 . S
C595 O596 1.273 . S
O596 C595 1.273 . S
O597 Zn588 1.977 . S
O597 C590 1.267 . S
C598 O599 1.160 . S
C598 O605 1.185 . S
O599 C598 1.160 . S
O600 Zn601 1.899 . S
O600 C608 1.284 . S
Zn601 O600 1.899 . S
Zn601 O602 2.032 . S
Zn601 O605 2.086 . S
Zn601 O610 1.977 . S
O602 Zn601 2.032 . S
O602 C606 1.278 . S
C603 O604 1.203 . S
C603 O610 1.267 . S
O604 C603 1.203 . S
O605 C598 1.185 . S
O605 Zn601 2.086 . S
C606 O602 1.278 . S
C606 O607 1.211 . S
O607 C606 1.211 . S
C608 O600 1.284 . S
C608 O609 1.273 . S
O609 C608 1.273 . S
O610 Zn601 1.977 . S
O610 C603 1.267 . S
C611 O612 1.160 . S
C611 O618 1.185 . S
O612 C611 1.160 . S
O613 Zn614 1.899 . S
O613 C621 1.284 . S
Zn614 O613 1.899 . S
Zn614 O615 2.032 . S
Zn614 O618 2.086 . S
Zn614 O623 1.977 . S
O615 Zn614 2.032 . S
O615 C619 1.278 . S
C616 O617 1.203 . S
C616 O623 1.267 . S
O617 C616 1.203 . S
O618 C611 1.185 . S
O618 Zn614 2.086 . S
C619 O615 1.278 . S
C619 O620 1.211 . S
O620 C619 1.211 . S
C621 O613 1.284 . S
C621 O622 1.273 . S
O622 C621 1.273 . S
O623 Zn614 1.977 . S
O623 C616 1.267 . S
C624 O625 1.160 . S
C624 O631 1.185 . S
O625 C624 1.160 . S
O626 Zn627 1.899 . S
O626 C634 1.284 . S
Zn627 O626 1.899 . S
Zn627 O628 2.032 . S
Zn627 O631 2.086 . S
Zn627 O636 1.977 . S
O628 Zn627 2.032 . S
O628 C632 1.278 . S
C629 O630 1.203 . S
C629 O636 1.267 . S
O630 C629 1.203 . S
O631 C624 1.185 . S
O631 Zn627 2.086 . S
C632 O628 1.278 . S
C632 O633 1.211 . S
O633 C632 1.211 . S
C634 O626 1.284 . S
C634 O635 1.273 . S
O635 C634 1.273 . S
O636 Zn627 1.977 . S
O636 C629 1.267 . S
C637 O638 1.160 . S
C637 O644 1.185 . S
O638 C637 1.160 . S
O639 Zn640 1.899 . S
O639 C647 1.284 . S
Zn640 O639 1.899 . S
Zn640 O641 2.032 . S
Zn640 O644 2.086 . S
Zn640 O649 1.977 . S
O641 Zn640 2.032 . S
O641 C645 1.278 . S
C642 O643 1.203 . S
C642 O649 1.267 . S
O643 C642 1.203 . S
O644 C637 1.185 . S
O644 Zn640 2.086 . S
C645 O641 1.278 . S
C645 O646 1.211 . S
O646 C645 1.211 . S
C647 O639 1.284 . S
C647 O648 1.273 . S
O648 C647 1.273 . S
O649 Zn640 1.977 . S
O649 C642 1.267 . S
C650 O651 1.160 . S
C650 O657 1.185 . S
O651 C650 1.160 . S
O652 Zn653 1.899 . S
O652 C660 1.284 . S
Zn653 O652 1.899 . S
Zn653 O654 2.032 . S
Zn653 O657 2.086 . S
Zn653 O662 1.977 . S
O654 Zn653 2.032 . S
O654 C658 1.278 . S
C655 O656 1.203 . S
C655 O662 1.267 . S
O656 C655 1.203 . S
O657 C650 1.185 . S
O657 Zn653 2.086 . S
C658 O654 1.278 . S
C658 O659 1.211 . S
O659 C658 1.211 . S
C660 O652 1.284 . S
C660 O661 1.273 . S
O661 C660 1.273 . S
O662 Zn653 1.977 . S
O662 C655 1.267 . S
C663 O664 1.160 . S
C663 O670 1.185 . S
O664 C663 1.160 . S
O665 Zn666 1.899 . S
O665 C673 1.284 . S
Zn666 O665 1.899 . S
Zn666 O667 2.032 . S
Zn666 O670 2.086 . S
Zn666 O675 1.977 . S
O667 Zn666 2.032 . S
O667 C671 1.278 . S
C668 O669 1.203 . S
C668 O675 1.267 . S
O669 C668 1.203 . S
O670 C663 1.185 . S
O670 Zn666 2.086 . S
C671 O667 1.278 . S
C671 O672 1.211 . S
O672 C671 1.211 . S
C673 O665 1.284 . S
C673 O674 1.273 . S
O674 C673 1.273 . S
O675 Zn666 1.977 . S
O675 C668 1.267 . S
C676 O677 1.160 . S
C676 O683 1.185 . S
O677 C676 1.160 . S
O678 Zn679 1.899 . S
O678 C686 1.284 . S
Zn679 O678 1.899 . S
Zn679 O680 2.032 . S
Zn679 O683 2.086 . S
Zn679 O688 1.977 . S
O680 Zn679 2.032 . S
O680 C684 1.278 . S
C681 O682 1.203 . S
C681 O688 1.267 . S
O682 C681 1.203 . S
O683 C676 1.185 . S
O683 Zn679 2.086 . S
C684 O680 1.278 . S
C684 O685 1.211 . S
O685 C684 1.211 . S
C686 O678 1.284 . S
C686 O687 1.273 . S
O687 C686 1.273 . S
O688 Zn679 1.977 . S
O688 C681 1.267 . S
C689 O690 1.160 . S
C689 O696 1.185 . S
O690 C689 1.160 . S
O691 Zn692 1.899 . S
O691 C699 1.284 . S
Zn692 O691 1.899 . S
Zn692 O693 2.032 . S
Zn692 O696 2.086 . S
Zn692 O701 1.977 . S
O693 Zn692 2.032 . S
O693 C697 1.278 . S
C694 O695 1.203 . S
C694 O701 1.267 . S
O695 C694 1.203 . S
O696 C689 1.185 . S
O696 Zn692 2.086 . S
C697 O693 1.278 . S
C697 O698 1.211 . S
O698 C697 1.211 . S
C699 O691 1.284 . S
C699 O700 1.273 . S
O700 C699 1.273 . S
O701 Zn692 1.977 . S
O701 C694 1.267 . S
C702 O703 1.160 . S
C702 O709 1.185 . S
O703 C702 1.160 . S
O704 Zn705 1.899 . S
O704 C712 1.284 . S
Zn705 O704 1.899 . S
Zn705 O706 2.032 . S
Zn705 O709 2.086 . S
Zn705 O714 1.977 . S
O706 Zn705 2.032 . S
O706 C710 1.278 . S
C707 O708 1.203 . S
C707 O714 1.267 . S
O708 C707 1.203 . S
O709 C702 1.185 . S
O709 Zn705 2.086 . S
C710 O706 1.278 . S
C710 O711 1.211 . S
O711 C710 1.211 . S
C712 O704 1.284 . S
C712 O713 1.273 . S
O713 C712 1.273 . S
O714 Zn705 1.977 . S
O714 C707 1.267 . S
C715 O716 1.160 . S
C715 O722 1.185 . S
O716 C715 1.160 . S
O717 Zn718 1.899 . S
O717 C725 1.284 . S
Zn718 O717 1.899 . S
Zn718 O719 2.032 . S
Zn718 O722 2.086 . S
Zn718 O727 1.977 . S
O719 Zn718 2.032 . S
O719 C723 1.278 . S
C720 O721 1.203 . S
C720 O727 1.267 . S
O721 C720 1.203 . S
O722 C715 1.185 . S
O722 Zn718 2.086 . S
C723 O719 1.278 . S
C723 O724 1.211 . S
O724 C723 1.211 . S
C725 O717 1.284 . S
C725 O726 1.273 . S
O726 C725 1.273 . S
O727 Zn718 1.977 . S
O727 C720 1.267 . S
C728 O729 1.160 . S
C728 O735 1.185 . S
O729 C728 1.160 . S
O730 Zn731 1.899 . S
O730 C738 1.284 . S
Zn731 O730 1.899 . S
Zn731 O732 2.032 . S
Zn731 O735 2.086 . S
Zn731 O740 1.977 . S
O732 Zn731 2.032 . S
O732 C736 1.278 . S
C733 O734 1.203 . S
C733 O740 1.267 . S
O734 C733 1.203 . S
O735 C728 1.185 . S
O735 Zn731 2.086 . S
C736 O732 1.278 . S
C736 O737 1.211 . S
O737 C736 1.211 . S
C738 O730 1.284 . S
C738 O739 1.273 . S
O739 C738 1.273 . S
O740 Zn731 1.977 . S
O740 C733 1.267 . S
C741 O742 1.160 . S
C741 O748 1.185 . S
O742 C741 1.160 . S
O743 Zn744 1.899 . S
O743 C751 1.284 . S
Zn744 O743 1.899 . S
Zn744 O745 2.032 . S
Zn744 O748 2.086 . S
Zn744 O753 1.977 . S
O745 Zn744 2.032 . S
O745 C749 1.278 . S
C746 O747 1.203 . S
C746 O753 1.267 . S
O747 C746 1.203 . S
O748 C741 1.185 . S
O748 Zn744 2.086 . S
C749 O745 1.278 . S
C749 O750 1.211 . S
O750 C749 1.211 . S
C751 O743 1.284 . S
C751 O752 1.273 . S
O752 C751 1.273 . S
O753 Zn744 1.977 . S
O753 C746 1.267 . S
C754 O755 1.160 . S
C754 O761 1.185 . S
O755 C754 1.160 . S
O756 Zn757 1.899 . S
O756 C764 1.284 . S
Zn757 O756 1.899 . S
Zn757 O758 2.032 . S
Zn757 O761 2.086 . S
Zn757 O766 1.977 . S
O758 Zn757 2.032 . S
O758 C762 1.278 . S
C759 O760 1.203 . S
C759 O766 1.267 . S
O760 C759 1.203 . S
O761 C754 1.185 . S
O761 Zn757 2.086 . S
C762 O758 1.278 . S
C762 O763 1.211 . S
O763 C762 1.211 . S
C764 O756 1.284 . S
C764 O765 1.273 . S
O765 C764 1.273 . S
O766 Zn757 1.977 . S
O766 C759 1.267 . S
C767 O768 1.160 . S
C767 O774 1.185 . S
O768 C767 1.160 . S
O769 Zn770 1.899 . S
O769 C777 1.284 . S
Zn770 O769 1.899 . S
Zn770 O771 2.032 . S
Zn770 O774 2.086 . S
Zn770 O779 1.977 . S
O771 Zn770 2.032 . S
O771 C775 1.278 . S
C772 O773 1.203 . S
C772 O779 1.267 . S
O773 C772 1.203 . S
O774 C767 1.185 . S
O774 Zn770 2.086 . S
C775 O771 1.278 . S
C775 O776 1.211 . S
O776 C775 1.211 . S
C777 O769 1.284 . S
C777 O778 1.273 . S
O778 C777 1.273 . S
O779 Zn770 1.977 . S
O779 C772 1.267 . S
C780 O781 1.160 . S
C780 O787 1.185 . S
O781 C780 1.160 . S
O782 Zn783 1.899 . S
O782 C790 1.284 . S
Zn783 O782 1.899 . S
Zn783 O784 2.032 . S
Zn783 O787 2.086 . S
Zn783 O792 1.977 . S
O784 Zn783 2.032 . S
O784 C788 1.278 . S
C785 O786 1.203 . S
C785 O792 1.267 . S
O786 C785 1.203 . S
O787 C780 1.185 . S
O787 Zn783 2.086 . S
C788 O784 1.278 . S
C788 O789 1.211 . S
O789 C788 1.211 . S
C790 O782 1.284 . S
C790 O791 1.273 . S
O791 C790 1.273 . S
O792 Zn783 1.977 . S
O792 C785 1.267 . S
C793 O794 1.160 . S
C793 O800 1.185 . S
O794 C793 1.160 . S
O795 Zn796 1.899 . S
O795 C803 1.284 . S
Zn796 O795 1.899 . S
Zn796 O797 2.032 . S
Zn796 O800 2.086 . S
Zn796 O805 1.977 . S
O797 Zn796 2.032 . S
O797 C801 1.278 . S
C798 O799 1.203 . S
C798 O805 1.267 . S
O799 C798 1.203 . S
O800 C793 1.185 . S
O800 Zn796 2.086 . S
C801 O797 1.278 . S
C801 O802 1.211 . S
O802 C801 1.211 . S
C803 O795 1.284 . S
C803 O804 1.273 . S
O804 C803 1.273 . S
O805 Zn796 1.977 . S
O805 C798 1.267 . S
C806 O807 1.160 . S
C806 O813 1.185 . S
O807 C806 1.160 . S
O808 Zn809 1.899 . S
O808 C816 1.284 . S
Zn809 O808 1.899 . S
Zn809 O810 2.032 . S
Zn809 O813 2.086 . S
Zn809 O818 1.977 . S
O810 Zn809 2.032 . S
O810 C814 1.278 . S
C811 O812 1.203 . S
C811 O818 1.267 . S
O812 C811 1.203 . S
O813 C806 1.185 . S
O813 Zn809 2.086 . S
C814 O810 1.278 . S
C814 O815 1.211 . S
O815 C814 1.211 . S
C816 O808 1.284 . S
C816 O817 1.273 . S
O817 C816 1.273 . S
O818 Zn809 1.977 . S
O818 C811 1.267 . S
C819 O820 1.160 . S
C819 O826 1.185 . S
O820 C819 1.160 . S
O821 Zn822 1.899 . S
O821 C829 1.284 . S
Zn822 O821 1.899 . S
Zn822 O823 2.032 . S
Zn822 O826 2.086 . S
Zn822 O831 1.977 . S
O823 Zn822 2.032 . S
O823 C827 1.278 . S
C824 O825 1.203 . S
C824 O831 1.267 . S
O825 C824 1.203 . S
O826 C819 1.185 . S
O826 Zn822 2.086 . S
C827 O823 1.278 . S
C827 O828 1.211 . S
O828 C827 1.211 . S
C829 O821 1.284 . S
C829 O830 1.273 . S
O830 C829 1.273 . S
O831 Zn822 1.977 . S
O831 C824 1.267 . S
C832 O833 1.160 . S
C832 O839 1.185 . S
O833 C832 1.160 . S
O834 Zn835 1.899 . S
O834 C842 1.284 . S
Zn835 O834 1.899 . S
Zn835 O836 2.032 . S
Zn835 O839 2.086 . S
Zn835 O844 1.977 . S
O836 Zn835 2.032 . S
O836 C840 1.278 . S
C837 O838 1.203 . S
C837 O844 1.267 . S
O838 C837 1.203 . S
O839 C832 1.185 . S
O839 Zn835 2.086 . S
C840 O836 1.278 . S
C840 O841 1.211 . S
O841 C840 1.211 . S
C842 O834 1.284 . S
C842 O843 1.273 . S
O843 C842 1.273 . S
O844 Zn835 1.977 . S
O844 C837 1.267 . S
C845 O846 1.160 . S
C845 O852 1.185 . S
O846 C845 1.160 . S
O847 Zn848 1.899 . S
O847 C855 1.284 . S
Zn848 O847 1.899 . S
Zn848 O849 2.032 . S
Zn848 O852 2.086 . S
Zn848 O857 1.977 . S
O849 Zn848 2.032 . S
O849 C853 1.278 . S
C850 O851 1.203 . S
C850 O857 1.267 . S
O851 C850 1.203 . S
O852 C845 1.185 . S
O852 Zn848 2.086 . S
C853 O849 1.278 . S
C853 O854 1.211 . S
O854 C853 1.211 . S
C855 O847 1.284 . S
C855 O856 1.273 . S
O856 C855 1.273 . S
O857 Zn848 1.977 . S
O857 C850 1.267 . S
C858 O859 1.160 . S
C858 O865 1.185 . S
O859 C858 1.160 . S
O860 Zn861 1.899 . S
O860 C868 1.284 . S
Zn861 O860 1.899 . S
Zn861 O862 2.032 . S
Zn861 O865 2.086 . S
Zn861 O870 1.977 . S
O862 Zn861 2.032 . S
O862 C866 1.278 . S
C863 O864 1.203 . S
C863 O870 1.267 . S
O864 C863 1.203 . S
O865 C858 1.185 . S
O865 Zn861 2.086 . S
C866 O862 1.278 . S
C866 O867 1.211 . S
O867 C866 1.211 . S
C868 O860 1.284 . S
C868 O869 1.273 . S
O869 C868 1.273 . S
O870 Zn861 1.977 . S
O870 C863 1.267 . S
C871 O872 1.160 . S
C871 O878 1.185 . S
O872 C871 1.160 . S
O873 Zn874 1.899 . S
O873 C881 1.284 . S
Zn874 O873 1.899 . S
Zn874 O875 2.032 . S
Zn874 O878 2.086 . S
Zn874 O883 1.977 . S
O875 Zn874 2.032 . S
O875 C879 1.278 . S
C876 O877 1.203 . S
C876 O883 1.267 . S
O877 C876 1.203 . S
O878 C871 1.185 . S
O878 Zn874 2.086 . S
C879 O875 1.278 . S
C879 O880 1.211 . S
O880 C879 1.211 . S
C881 O873 1.284 . S
C881 O882 1.273 . S
O882 C881 1.273 . S
O883 Zn874 1.977 . S
O883 C876 1.267 . S
C884 O885 1.160 . S
C884 O891 1.185 . S
O885 C884 1.160 . S
O886 Zn887 1.899 . S
O886 C894 1.284 . S
Zn887 O886 1.899 . S
Zn887 O888 2.032 . S
Zn887 O891 2.086 . S
Zn887 O896 1.977 . S
O888 Zn887 2.032 . S
O888 C892 1.278 . S
C889 O890 1.203 . S
C889 O896 1.267 . S
O890 C889 1.203 . S
O891 C884 1.185 . S
O891 Zn887 2.086 . S
C892 O888 1.278 . S
C892 O893 1.211 . S
O893 C892 1.211 . S
C894 O886 1.284 . S
C894 O895 1.273 . S
O895 C894 1.273 . S
O896 Zn887 1.977 . S
O896 C889 1.267 . S
C897 O898 1.160 . S
C897 O904 1.185 . S
O898 C897 1.160 . S
O899 Zn900 1.899 . S
O899 C907 1.284 . S
Zn900 O899 1.899 . S
Zn900 O901 2.032 . S
Zn900 O904 2.086 . S
Zn900 O909 1.977 . S
O901 Zn900 2.032 . S
O901 C905 1.278 . S
C902 O903 1.203 . S
C902 O909 1.267 . S
O903 C902 1.203 . S
O904 C897 1.185 . S
O904 Zn900 2.086 . S
C905 O901 1.278 . S
C905 O906 1.211 . S
O906 C905 1.211 . S
C907 O899 1.284 . S
C907 O908 1.273 . S
O908 C907 1.273 . S
O909 Zn900 1.977 . S
O909 C902 1.267 . S
C910 O911 1.160 . S
C910 O917 1.185 . S
O911 C910 1.160 . S
O912 Zn913 1.899 . S
O912 C920 1.284 . S
Zn913 O912 1.899 . S
Zn913 O914 2.032 . S
Zn913 O917 2.086 . S
Zn913 O922 1.977 . S
O914 Zn913 2.032 . S
O914 C918 1.278 . S
C915 O916 1.203 . S
C915 O922 1.267 . S
O916 C915 1.203 . S
O917 C910 1.185 . S
O917 Zn913 2.086 . S
C918 O914 1.278 . S
C918 O919 1.211 . S
O919 C918 1.211 . S
C920 O912 1.284 . S
C920 O921 1.273 . S
O921 C920 1.273 . S
O922 Zn913 1.977 . S
O922 C915 1.267 . S
C923 O924 1.160 . S
C923 O930 1.185 . S
O924 C923 1.160 . S
O925 Zn926 1.899 . S
O925 C933 1.284 . S
Zn926 O925 1.899 . S
Zn926 O927 2.032 . S
Zn926 O930 2.086 . S
Zn926 O935 1.977 . S
O927 Zn926 2.032 . S
O927 C931 1.278 . S
C928 O929 1.203 . S
C928 O935 1.267 . S
O929 C928 1.203 . S
O930 C923 1.185 . S
O930 Zn926 2.086 . S
C931 O927 1.278 . S
C931 O932 1.211 . S
O932 C931 1.211 . S
C933 O925 1.284 . S
C933 O934 1.273 . S
O934 C933 1.273 . S
O935 Zn926 1.977 . S
O935 C928 1.267 . S
C936 O937 1.160 . S
C936 O943 1.185 . S
O937 C936 1.160 . S
O938 Zn939 1.899 . S
O938 C946 1.284 . S
Zn939 O938 1.899 . S
Zn939 O940 2.032 . S
Zn939 O943 2.086 . S
Zn939 O948 1.977 . S
O940 Zn939 2.032 . S
O940 C944 1.278 . S
C941 O942 1.203 . S
C941 O948 1.267 . S
O942 C941 1.203 . S
O943 C936 1.185 . S
O943 Zn939 2.086 . S
C944 O940 1.278 . S
C944 O945 1.211 . S
O945 C944 1.211 . S
C946 O938 1.284 . S
C946 O947 1.273 . S
O947 C946 1.273 . S
O948 Zn939 1.977 . S
O948 C941 1.267 . S
C949 O950 1.160 . S
C949 O956 1.185 . S
O950 C949 1.160 . S
O951 Zn952 1.899 . S
O951 C959 1.284 . S
Zn952 O951 1.899 . S
Zn952 O953 2.032 . S
Zn952 O956 2.086 . S
Zn952 O961 1.977 . S
O953 Zn952 2.032 . S
O953 C957 1.278 . S
C954 O955 1.203 . S
C954 O961 1.267 . S
O955 C954 1.203 . S
O956 C949 1.185 . S
O956 Zn952 2.086 . S
C957 O953 1.278 . S
C957 O958 1.211 . S
O958 C957 1.211 . S
C959 O951 1.284 . S
C959 O960 1.273 . S
O960 C959 1.273 . S
O961 Zn952 1.977 . S
O961 C954 1.267 . S
C962 O963 1.160 . S
C962 O969 1.185 . S
O963 C962 1.160 . S
O964 Zn965 1.899 . S
O964 C972 1.284 . S
Zn965 O964 1.899 . S
Zn965 O966 2.032 . S
Zn965 O969 2.086 . S
Zn965 O974 1.977 . S
O966 Zn965 2.032 . S
O966 C970 1.278 . S
C967 O968 1.203 . S
C967 O974 1.267 . S
O968 C967 1.203 . S
O969 C962 1.185 . S
O969 Zn965 2.086 . S
C970 O966 1.278 . S
C970 O971 1.211 . S
O971 C970 1.211 . S
C972 O964 1.284 . S
C972 O973 1.273 . S
O973 C972 1.273 . S
O974 Zn965 1.977 . S
O974 C967 1.267 . S
C975 O976 1.160 . S
C975 O982 1.185 . S
O976 C975 1.160 . S
O977 Zn978 1.899 . S
O977 C985 1.284 . S
Zn978 O977 1.899 . S
Zn978 O979 2.032 . S
Zn978 O982 2.086 . S
Zn978 O987 1.977 . S
O979 Zn978 2.032 . S
O979 C983 1.278 . S
C980 O981 1.203 . S
C980 O987 1.267 . S
O981 C980 1.203 . S
O982 C975 1.185 . S
O982 Zn978 2.086 . S
C983 O979 1.278 . S
C983 O984 1.211 . S
O984 C983 1.211 . S
C985 O977 1.284 . S
C985 O986 1.273 . S
O986 C985 1.273 . S
O987 Zn978 1.977 . S
O987 C980 1.267 . S
C988 O989 1.160 . S
C988 O995 1.185 . S
O989 C988 1.160 . S
O990 Zn991 1.899 . S
O990 C998 1.284 . S
Zn991 O990 1.899 . S
Zn991 O992 2.032 . S
Zn991 O995 2.086 . S
Zn991 O1000 1.977 . S
O992 Zn991 2.032 . S
O992 C996 1.278 . S
C993 O994 1.203 . S
C993 O1000 1.267 . S
O994 C993 1.203 . S
O995 C988 1.185 . S
O995 Zn991 2.086 . S
C996 O992 1.278 . S
C996 O997 1.211 . S
O997 C996 1.211 . S
C998 O990 1.284 . S
C998 O999 1.273 . S
O999 C998 1.273 . S
O1000 Zn991 1.977 . S
O1000 C993 1.267 . S
C1001 O1002 1.160 . S
C1001 O1008 1.185 . S
O1002 C1001 1.160 . S
O1003 Zn1004 1.899 . S
O1003 C1011 1.284 . S
Zn1004 O1003 1.899 . S
Zn1004 O1005 2.032 . S
Zn1004 O1008 2.086 . S
Zn1004 O1013 1.977 . S
O1005 Zn1004 2.032 . S
O1005 C1009 1.278 . S
C1006 O1007 1.203 . S
C1006 O1013 1.267 . S
O1007 C1006 1.203 . S
O1008 C1001 1.185 . S
O1008 Zn1004 2.086 . S
C1009 O1005 1.278 . S
C1009 O1010 1.211 . S
O1010 C1009 1.211 . S
C1011 O1003 1.284 . S
C1011 O1012 1.273 . S
O1012 C1011 1.273 . S
O1013 Zn1004 1.977 . S
O1013 C1006 1.267 . S
C1014 O1015 1.160 . S
C1014 O1021 1.185 . S
O1015 C1014 1.160 . S
O1016 Zn1017 1.899 . S
O1016 C1024 1.284 . S
Zn1017 O1016 1.899 . S
Zn1017 O1018 2.032 . S
Zn1017 O1021 2.086 . S
Zn1017 O1026 1.977 . S
O1018 Zn1017 2.032 . S
O1018 C1022 1.278 . S
C1019 O1020 1.203 . S
C1019 O1026 1.267 . S
O1020 C1019 1.203 . S
O1021 C1014 1.185 . S
O1021 Zn1017 2.086 . S
C1022 O1018 1.278 . S
C1022 O1023 1.211 . S
O1023 C1022 1.211 . S
C1024 O1016 1.284 . S
C1024 O1025 1.273 . S
O1025 C1024 1.273 . S
O1026 Zn1017 1.977 . S
O1026 C1019 1.267 . S
C1027 O1028 1.160 . S
C1027 O1034 1.185 . S
O1028 C1027 1.160 . S
O1029 Zn1030 1.899 . S
O1029 C1037 1.284 . S
Zn1030 O1029 1.899 . S
Zn1030 O1031 2.032 . S
Zn1030 O1034 2.086 . S
Zn1030 O1039 1.977 . S
O1031 Zn1030 2.032 . S
O1031 C1035 1.278 . S
C1032 O1033 1.203 . S
C1032 O1039 1.267 . S
O1033 C1032 1.203 . S
O1034 C1027 1.185 . S
O1034 Zn1030 2.086 . S
C1035 O1031 1.278 . S
C1035 O1036 1.211 . S
O1036 C1035 1.211 . S
C1037 O1029 1.284 . S
C1037 O1038 1.273 . S
O1038 C1037 1.273 . S
O1039 Zn1030 1.977 . S
O1039 C1032 1.267 . S
C1040 O1041 1.160 . S
C1040 O1047 1.185 . S
O1041 C1040 1.160 . S
O1042 Zn1043 1.899 . S
O1042 C1050 1.284 . S
Zn1043 O1042 1.899 . S
Zn1043 O1044 2.032 . S
Zn1043 O1047 2.086 . S
Zn1043 O1052 1.977 . S
O1044 Zn1043 2.032 . S
O1044 C1048 1.278 . S
C1045 O1046 1.203 . S
C1045 O1052 1.267 . S
O1046 C1045 1.203 . S
O1047 C1040 1.185 . S
O1047 Zn1043 2.086 . S
C1048 O1044 1.278 . S
C1048 O1049 1.211 . S
O1049 C1048 1.211 . S
C1050 O1042 1.284 . S
C1050 O1051 1.273 . S
O1051 C1050 1.273 . S
O1052 Zn1043 1.977 . S
O1052 C1045 1.267 . S
C1053 O1054 1.160 . S
C1053 O1060 1.185 . S
O1054 C1053 1.160 . S
O1055 Zn1056 1.899 . S
O1055 C1063 1.284 . S
Zn1056 O1055 1.899 . S
Zn1056 O1057 2.032 . S
Zn1056 O1060 2.086 . S
Zn1056 O1065 1.977 . S
O1057 Zn1056 2.032 . S
O1057 C1061 1.278 . S
C1058 O1059 1.203 . S
C1058 O1065 1.267 . S
O1059 C1058 1.203 . S
O1060 C1053 1.185 . S
O1060 Zn1056 2.086 . S
C1061 O1057 1.278 . S
C1061 O1062 1.211 . S
O1062 C1061 1.211 . S
C1063 O1055 1.284 . S
C1063 O1064 1.273 . S
O1064 C1063 1.273 . S
O1065 Zn1056 1.977 . S
O1065 C1058 1.267 . S
C1066 O1067 1.160 . S
C1066 O1073 1.185 . S
O1067 C1066 1.160 . S
O1068 Zn1069 1.899 . S
O1068 C1076 1.284 . S
Zn1069 O1068 1.899 . S
Zn1069 O1070 2.032 . S
Zn1069 O1073 2.086 . S
Zn1069 O1078 1.977 . S
O1070 Zn1069 2.032 . S
O1070 C1074 1.278 . S
C1071 O1072 1.203 . S
C1071 O1078 1.267 . S
O1072 C1071 1.203 . S
O1073 C1066 1.185 . S
O1073 Zn1069 2.086 . S
C1074 O1070 1.278 . S
C1074 O1075 1.211 . S
O1075 C1074 1.211 . S
C1076 O1068 1.284 . S
C1076 O1077 1.273 . S
O1077 C1076 1.273 . S
O1078 Zn1069 1.977 . S
O1078 C1071 1.267 . S
C1079 O1080 1.160 . S
C1079 O1086 1.185 . S
O1080 C1079 1.160 . S
O1081 Zn1082 1.899 . S
O1081 C1089 1.284 . S
Zn1082 O1081 1.899 . S
Zn1082 O1083 2.032 . S
Zn1082 O1086 2.086 . S
Zn1082 O1091 1.977 . S
O1083 Zn1082 2.032 . S
O1083 C1087 1.278 . S
C1084 O1085 1.203 . S
C1084 O1091 1.267 . S
O1085 C1084 1.203 . S
O1086 C1079 1.185 . S
O1086 Zn1082 2.086 . S
C1087 O1083 1.278 . S
C1087 O1088 1.211 . S
O1088 C1087 1.211 . S
C1089 O1081 1.284 . S
C1089 O1090 1.273 . S
O1090 C1089 1.273 . S
O1091 Zn1082 1.977 . S
O1091 C1084 1.267 . S
C1092 O1093 1.160 . S
C1092 O1099 1.185 . S
O1093 C1092 1.160 . S
O1094 Zn1095 1.899 . S
O1094 C1102 1.284 . S
Zn1095 O1094 1.899 . S
Zn1095 O1096 2.032 . S
Zn1095 O1099 2.086 . S
Zn1095 O1104 1.977 . S
O1096 Zn1095 2.032 . S
O1096 C1100 1.278 . S
C1097 O1098 1.203 . S
C1097 O1104 1.267 . S
O1098 C1097 1.203 . S
O1099 C1092 1.185 . S
O1099 Zn1095 2.086 . S
C1100 O1096 1.278 . S
C1100 O1101 1.211 . S
O1101 C1100 1.211 . S
C1102 O1094 1.284 . S
C1102 O1103 1.273 . S
O1103 C1102 1.273 . S
O1104 Zn1095 1.977 . S
O1104 C1097 1.267 . S
C1105 O1106 1.160 . S
C1105 O1112 1.185 . S
O1106 C1105 1.160 . S
O1107 Zn1108 1.899 . S
O1107 C1115 1.284 . S
Zn1108 O1107 1.899 . S
Zn1108 O1109 2.032 . S
Zn1108 O1112 2.086 . S
Zn1108 O1117 1.977 . S
O1109 Zn1108 2.032 . S
O1109 C1113 1.278 . S
C1110 O1111 1.203 . S
C1110 O1117 1.267 . S
O1111 C1110 1.203 . S
O1112 C1105 1.185 . S
O1112 Zn1108 2.086 . S
C1113 O1109 1.278 . S
C1113 O1114 1.211 . S
O1114 C1113 1.211 . S
C1115 O1107 1.284 . S
C1115 O1116 1.273 . S
O1116 C1115 1.273 . S
O1117 Zn1108 1.977 . S
O1117 C1110 1.267 . S
C1118 O1119 1.160 . S
C1118 O1125 1.185 . S
O1119 C1118 1.160 . S
O1120 Zn1121 1.899 . S
O1120 C1128 1.284 . S
Zn1121 O1120 1.899 . S
Zn1121 O1122 2.032 . S
Zn1121 O1125 2.086 . S
Zn1121 O1130 1.977 . S
O1122 Zn1121 2.032 . S
O1122 C1126 1.278 . S
C1123 O1124 1.203 . S
C1123 O1130 1.267 . S
O1124 C1123 1.203 . S
O1125 C1118 1.185 . S
O1125 Zn1121 2.086 . S
C1126 O1122 1.278 . S
C1126 O1127 1.211 . S
O1127 C1126 1.211 . S
C1128 O1120 1.284 . S
C1128 O1129 1.273 . S
O1129 C1128 1.273 . S
O1130 Zn1121 1.977 . S
O1130 C1123 1.267 . S
C1131 O1132 1.160 . S
C1131 O1138 1.185 . S
O1132 C1131 1.160 . S
O1133 Zn1134 1.899 . S
O1133 C1141 1.284 . S
Zn1134 O1133 1.899 . S
Zn1134 O1135 2.032 . S
Zn1134 O1138 2.086 . S
Zn1134 O1143 1.977 . S
O1135 Zn1134 2.032 . S
O1135 C1139 1.278 . S
C1136 O1137 1.203 . S
C1136 O1143 1.267 . S
O1137 C1136 1.203 . S
O1138 C1131 1.185 . S
O1138 Zn1134 2.086 . S
C1139 O1135 1.278 . S
C1139 O1140 1.211 . S
O1140 C1139 1.211 . S
C1141 O1133 1.284 . S
C1141 O1142 1.273 . S
O1142 C1141 1.273 . S
O1143 Zn1134 1.977 . S
O1143 C1136 1.267 . S
C1144 O1145 1.160 . S
C1144 O1151 1.185 . S
O1145 C1144 1.160 . S
O1146 Zn1147 1.899 . S
O1146 C1154 1.284 . S
Zn1147 O1146 1.899 . S
Zn1147 O1148 2.032 . S
Zn1147 O1151 2.086 . S
Zn1147 O1156 1.977 . S
O1148 Zn1147 2.032 . S
O1148 C1152 1.278 . S
C1149 O1150 1.203 . S
C1149 O1156 1.267 . S
O1150 C1149 1.203 . S
O1151 C1144 1.185 . S
O1151 Zn1147 2.086 . S
C1152 O1148 1.278 . S
C1152 O1153 1.211 . S
O1153 C1152 1.211 . S
C1154 O1146 1.284 . S
C1154 O1155 1.273 . S
O1155 C1154 1.273 . S
O1156 Zn1147 1.977 . S
O1156 C1149 1.267 . S
C1157 O1158 1.160 . S
C1157 O1164 1.185 . S
O1158 C1157 1.160 . S
O1159 Zn1160 1.899 . S
O1159 C1167 1.284 . S
Zn1160 O1159 1.899 . S
Zn1160 O1161 2.032 . S
Zn1160 O1164 2.086 . S
Zn1160 O1169 1.977 . S
O1161 Zn1160 2.032 . S
O1161 C1165 1.278 . S
C1162 O1163 1.203 . S
C1162 O1169 1.267 . S
O1163 C1162 1.203 . S
O1164 C1157 1.185 . S
O1164 Zn1160 2.086 . S
C1165 O1161 1.278 . S
C1165 O1166 1.211 . S
O1166 C1165 1.211 . S
C1167 O1159 1.284 . S
C1167 O1168 1.273 . S
O1168 C1167 1.273 . S
O1169 Zn1160 1.977 . S
O1169 C1162 1.267 . S
C1170 O1171 1.160 . S
C1170 O1177 1.185 . S
O1171 C1170 1.160 . S
O1172 Zn1173 1.899 . S
O1172 C1180 1.284 . S
Zn1173 O1172 1.899 . S
Zn1173 O1174 2.032 . S
Zn1173 O1177 2.086 . S
Zn1173 O1182 1.977 . S
O1174 Zn1173 2.032 . S
O1174 C1178 1.278 . S
C1175 O1176 1.203 . S
C1175 O1182 1.267 . S
O1176 C1175 1.203 . S
O1177 C1170 1.185 . S
O1177 Zn1173 2.086 . S
C1178 O1174 1.278 . S
C1178 O1179 1.211 . S
O1179 C1178 1.211 . S
C1180 O1172 1.284 . S
C1180 O1181 1.273 . S
O1181 C1180 1.273 . S
O1182 Zn1173 1.977 . S
O1182 C1175 1.267 . S
C1183 O1184 1.160 . S
C1183 O1190 1.185 . S
O1184 C1183 1.160 . S
O1185 Zn1186 1.899 . S
O1185 C1193 1.284 . S
Zn1186 O1185 1.899 . S
Zn1186 O1187 2.032 . S
Zn1186 O1190 2.086 . S
Zn1186 O1195 1.977 . S
O1187 Zn1186 2.032 . S
O1187 C1191 1.278 . S
C1188 O1189 1.203 . S
C1188 O1195 1.267 . S
O1189 C1188 1.203 . S
O1190 C1183 1.185 . S
O1190 Zn1186 2.086 . S
C1191 O1187 1.278 . S
C1191 O1192 1.211 . S
O1192 C1191 1.211 . S
C1193 O1185 1.284 . S
C1193 O1194 1.273 . S
O1194 C1193 1.273 . S
O1195 Zn1186 1.977 . S
O1195 C1188 1.267 . S
C1196 O1197 1.160 . S
C1196 O1203 1.185 . S
O1197 C1196 1.160 . S
O1198 Zn1199 1.899 . S
O1198 C1206 1.284 . S
Zn1199 O1198 1.899 . S
Zn1199 O1200 2.032 . S
Zn1199 O1203 2.086 . S
Zn1199 O1208 1.977 . S
O1200 Zn1199 2.032 . S
O1200 C1204 1.278 . S
C1201 O1202 1.203 . S
C1201 O1208 1.267 . S
O1202 C1201 1.203 . S
O1203 C1196 1.185 . S
O1203 Zn1199 2.086 . S
C1204 O1200 1.278 . S
C1204 O1205 1.211 . S
O1205 C1204 1.211 . S
C1206 O1198 1.284 . S
C1206 O1207 1.273 . S
O1207 C1206 1.273 . S
O1208 Zn1199 1.977 . S
O1208 C1201 1.267 . S
C1209 O1210 1.160 . S
C1209 O1216 1.185 . S
O1210 C1209 1.160 . S
O1211 Zn1212 1.899 . S
O1211 C1219 1.284 . S
Zn1212 O1211 1.899 . S
Zn1212 O1213 2.032 . S
Zn1212 O1216 2.086 . S
Zn1212 O1221 1.977 . S
O1213 Zn1212 2.032 . S
O1213 C1217 1.278 . S
C1214 O1215 1.203 . S
C1214 O1221 1.267 . S
O1215 C1214 1.203 . S
O1216 C1209 1.185 . S
O1216 Zn1212 2.086 . S
C1217 O1213 1.278 . S
C1217 O1218 1.211 . S
O1218 C1217 1.211 . S
C1219 O1211 1.284 . S
C1219 O1220 1.273 . S
O1220 C1219 1.273 . S
O1221 Zn1212 1.977 . S
O1221 C1214 1.267 . S
C1222 O1223 1.160 . S
C1222 O1229 1.185 . S
O1223 C1222 1.160 . S
O1224 Zn1225 1.899 . S
O1224 C1232 1.284 . S
Zn1225 O1224 1.899 . S
Zn1225 O1226 2.032 . S
Zn1225 O1229 2.086 . S
Zn1225 O1234 1.977 . S
O1226 Zn1225 2.032 . S
O1226 C1230 1.278 . S
C1227 O1228 1.203 . S
C1227 O1234 1.267 . S
O1228 C1227 1.203 . S
O1229 C1222 1.185 . S
O1229 Zn1225 2.086 . S
C1230 O1226 1.278 . S
C1230 O1231 1.211 . S
O1231 C1230 1.211 . S
C1232 O1224 1.284 . S
C1232 O1233 1.273 . S
O1233 C1232 1.273 . S
O1234 Zn1225 1.977 . S
O1234 C1227 1.267 . S
C1235 O1236 1.160 . S
C1235 O1242 1.185 . S
O1236 C1235 1.160 . S
O1237 Zn1238 1.899 . S
O1237 C1245 1.284 . S
Zn1238 O1237 1.899 . S
Zn1238 O1239 2.032 . S
Zn1238 O1242 2.086 . S
Zn1238 O1247 1.977 . S
O1239 Zn1238 2.032 . S
O1239 C1243 1.278 . S
C1240 O1241 1.203 . S
C1240 O1247 1.267 . S
O1241 C1240 1.203 . S
O1242 C1235 1.185 . S
O1242 Zn1238 2.086 . S
C1243 O1239 1.278 . S
C1243 O1244 1.211 . S
O1244 C1243 1.211 . S
C1245 O1237 1.284 . S
C1245 O1246 1.273 . S
O1246 C1245 1.273 . S
O1247 Zn1238 1.977 . S
O1247 C1240 1.267 . S
C1248 C1249 1.369 . S
C1248 C1250 1.419 . S
C1248 H1252 0.930 . S
C1249 C1248 1.369 . S
C1249 C1258 1.429 . S
C1250 C1248 1.419 . S
C1250 C1251 1.363 . S
C1250 H1253 0.929 . S
C1251 C1250 1.363 . S
C1251 C1257 1.428 . S
H1252 C1248 0.930 . S
H1253 C1250 0.929 . S
S1254 N1255 1.613 . S
S1254 N1256 1.610 . S
N1255 S1254 1.613 . S
N1255 C1258 1.350 . S
N1256 S1254 1.610 . S
N1256 C1257 1.351 . S
C1257 C1251 1.428 . S
C1257 N1256 1.351 . S
C1257 C1258 1.434 . S
C1258 C1249 1.429 . S
C1258 N1255 1.350 . S
C1258 C1257 1.434 . S
C1259 C1260 1.394 . S
C1259 C1261 1.401 1_655 S
C1259 H1263 0.923 1_655 S
C1260 C1259 1.394 . S
C1260 C1269 1.429 . S
C1261 C1259 1.401 1_455 S
C1261 C1262 1.363 . S
C1261 H1264 0.929 . S
C1262 C1261 1.363 . S
C1262 C1268 1.428 1_455 S
H1263 C1259 0.923 1_455 S
H1264 C1261 0.929 . S
S1265 N1266 1.613 . S
S1265 N1267 1.610 . S
N1266 S1265 1.613 . S
N1266 C1269 1.350 . S
N1267 S1265 1.610 . S
N1267 C1268 1.351 . S
C1268 C1262 1.428 1_655 S
C1268 N1267 1.351 . S
C1268 C1269 1.434 . S
C1269 C1260 1.429 . S
C1269 N1266 1.350 . S
C1269 C1268 1.434 . S
C1270 C1271 1.369 . S
C1270 C1272 1.419 . S
C1270 H1274 0.930 . S
C1271 C1270 1.369 . S
C1271 C1280 1.429 . S
C1272 C1270 1.419 . S
C1272 C1273 1.363 . S
C1272 H1275 0.929 . S
C1273 C1272 1.363 . S
C1273 C1279 1.428 . S
H1274 C1270 0.930 . S
H1275 C1272 0.929 . S
S1276 N1277 1.613 . S
S1276 N1278 1.610 . S
N1277 S1276 1.613 . S
N1277 C1280 1.350 . S
N1278 S1276 1.610 . S
N1278 C1279 1.351 . S
C1279 C1273 1.428 . S
C1279 N1278 1.351 . S
C1279 C1280 1.434 . S
C1280 C1271 1.429 . S
C1280 N1277 1.350 . S
C1280 C1279 1.434 . S
C1281 C1282 1.369 . S
C1281 C1283 1.419 . S
C1281 H1285 0.930 . S
C1282 C1281 1.369 . S
C1282 C1291 1.429 . S
C1283 C1281 1.419 . S
C1283 C1284 1.363 . S
C1283 H1286 0.929 . S
C1284 C1283 1.363 . S
C1284 C1290 1.428 . S
H1285 C1281 0.930 . S
H1286 C1283 0.929 . S
S1287 N1288 1.613 . S
S1287 N1289 1.610 . S
N1288 S1287 1.613 . S
N1288 C1291 1.350 . S
N1289 S1287 1.610 . S
N1289 C1290 1.351 . S
C1290 C1284 1.428 . S
C1290 N1289 1.351 . S
C1290 C1291 1.434 . S
C1291 C1282 1.429 . S
C1291 N1288 1.350 . S
C1291 C1290 1.434 . S
C1292 C1293 1.369 . S
C1292 C1294 1.419 . S
C1292 H1296 0.930 . S
C1293 C1292 1.369 . S
C1293 C1302 1.429 . S
C1294 C1292 1.419 . S
C1294 C1295 1.363 . S
C1294 H1297 0.929 . S
C1295 C1294 1.363 . S
C1295 C1301 1.428 . S
H1296 C1292 0.930 . S
H1297 C1294 0.929 . S
S1298 N1299 1.613 . S
S1298 N1300 1.610 . S
N1299 S1298 1.613 . S
N1299 C1302 1.350 . S
N1300 S1298 1.610 . S
N1300 C1301 1.351 . S
C1301 C1295 1.428 . S
C1301 N1300 1.351 . S
C1301 C1302 1.434 . S
C1302 C1293 1.429 . S
C1302 N1299 1.350 . S
C1302 C1301 1.434 . S
C1303 C1304 1.369 . S
C1303 C1305 1.419 . S
C1303 H1307 0.930 . S
C1304 C1303 1.369 . S
C1304 C1313 1.429 . S
C1305 C1303 1.419 . S
C1305 C1306 1.363 . S
C1305 H1308 0.929 . S
C1306 C1305 1.363 . S
C1306 C1312 1.428 . S
H1307 C1303 0.930 . S
H1308 C1305 0.929 . S
S1309 N1310 1.613 . S
S1309 N1311 1.610 . S
N1310 S1309 1.613 . S
N1310 C1313 1.350 . S
N1311 S1309 1.610 . S
N1311 C1312 1.351 . S
C1312 C1306 1.428 . S
C1312 N1311 1.351 . S
C1312 C1313 1.434 . S
C1313 C1304 1.429 . S
C1313 N1310 1.350 . S
C1313 C1312 1.434 . S
C1314 C1315 1.369 . S
C1314 C1316 1.419 . S
C1314 H1318 0.930 . S
C1315 C1314 1.369 . S
C1315 C1324 1.429 . S
C1316 C1314 1.419 . S
C1316 C1317 1.363 . S
C1316 H1319 0.929 . S
C1317 C1316 1.363 . S
C1317 C1323 1.428 . S
H1318 C1314 0.930 . S
H1319 C1316 0.929 . S
S1320 N1321 1.613 . S
S1320 N1322 1.610 . S
N1321 S1320 1.613 . S
N1321 C1324 1.350 . S
N1322 S1320 1.610 . S
N1322 C1323 1.351 . S
C1323 C1317 1.428 . S
C1323 N1322 1.351 . S
C1323 C1324 1.434 . S
C1324 C1315 1.429 . S
C1324 N1321 1.350 . S
C1324 C1323 1.434 . S
C1325 C1326 1.369 . S
C1325 C1327 1.419 . S
C1325 H1329 0.930 . S
C1326 C1325 1.369 . S
C1326 C1335 1.429 . S
C1327 C1325 1.419 . S
C1327 C1328 1.363 1_655 S
C1327 H1330 0.929 . S
C1328 C1327 1.363 1_455 S
C1328 C1334 1.428 . S
H1329 C1325 0.930 . S
H1330 C1327 0.929 . S
S1331 N1332 1.613 . S
S1331 N1333 1.610 . S
N1332 S1331 1.613 . S
N1332 C1335 1.350 1_455 S
N1333 S1331 1.610 . S
N1333 C1334 1.351 . S
C1334 C1328 1.428 . S
C1334 N1333 1.351 . S
C1334 C1335 1.434 1_455 S
C1335 C1326 1.429 . S
C1335 N1332 1.350 1_655 S
C1335 C1334 1.434 1_655 S
C1336 C1337 1.369 . S
C1336 C1338 1.419 . S
C1336 H1340 0.930 . S
C1337 C1336 1.369 . S
C1337 C1346 1.429 . S
C1338 C1336 1.419 . S
C1338 C1339 1.363 . S
C1338 H1341 0.929 . S
C1339 C1338 1.363 . S
C1339 C1345 1.428 . S
H1340 C1336 0.930 . S
H1341 C1338 0.929 . S
S1342 N1343 1.613 . S
S1342 N1344 1.610 . S
N1343 S1342 1.613 . S
N1343 C1346 1.350 . S
N1344 S1342 1.610 . S
N1344 C1345 1.351 . S
C1345 C1339 1.428 . S
C1345 N1344 1.351 . S
C1345 C1346 1.434 . S
C1346 C1337 1.429 . S
C1346 N1343 1.350 . S
C1346 C1345 1.434 . S
C1347 C1348 1.369 . S
C1347 C1349 1.419 . S
C1347 H1351 0.930 . S
C1348 C1347 1.369 . S
C1348 C1357 1.429 . S
C1349 C1347 1.419 . S
C1349 C1350 1.363 . S
C1349 H1352 0.929 . S
C1350 C1349 1.363 . S
C1350 C1356 1.428 . S
H1351 C1347 0.930 . S
H1352 C1349 0.929 . S
S1353 N1354 1.613 . S
S1353 N1355 1.610 . S
N1354 S1353 1.613 . S
N1354 C1357 1.350 . S
N1355 S1353 1.610 . S
N1355 C1356 1.351 . S
C1356 C1350 1.428 . S
C1356 N1355 1.351 . S
C1356 C1357 1.434 . S
C1357 C1348 1.429 . S
C1357 N1354 1.350 . S
C1357 C1356 1.434 . S
C1358 C1359 1.369 . S
C1358 C1360 1.419 . S
C1358 H1362 0.930 . S
C1359 C1358 1.369 . S
C1359 C1368 1.429 . S
C1360 C1358 1.419 . S
C1360 C1361 1.363 . S
C1360 H1363 0.929 . S
C1361 C1360 1.363 . S
C1361 C1367 1.428 . S
H1362 C1358 0.930 . S
H1363 C1360 0.929 . S
S1364 N1365 1.613 . S
S1364 N1366 1.610 . S
N1365 S1364 1.613 . S
N1365 C1368 1.350 . S
N1366 S1364 1.610 . S
N1366 C1367 1.351 . S
C1367 C1361 1.428 . S
C1367 N1366 1.351 . S
C1367 C1368 1.434 . S
C1368 C1359 1.429 . S
C1368 N1365 1.350 . S
C1368 C1367 1.434 . S
C1369 C1370 1.369 . S
C1369 C1371 1.419 1_556 S
C1369 H1373 0.930 . S
C1370 C1369 1.369 . S
C1370 C1379 1.429 1_556 S
C1371 C1369 1.419 1_554 S
C1371 C1372 1.363 . S
C1371 H1374 0.929 . S
C1372 C1371 1.363 . S
C1372 C1378 1.428 . S
H1373 C1369 0.930 . S
H1374 C1371 0.929 . S
S1375 N1376 1.605 1_554 S
S1375 N1377 1.610 . S
N1376 S1375 1.605 1_556 S
N1376 C1379 1.349 1_556 S
N1377 S1375 1.610 . S
N1377 C1378 1.351 . S
C1378 C1372 1.428 . S
C1378 N1377 1.351 . S
C1378 C1379 1.434 . S
C1379 C1370 1.429 1_554 S
C1379 N1376 1.349 1_554 S
C1379 C1378 1.434 . S
C1380 C1381 1.369 . S
C1380 C1382 1.419 . S
C1380 H1384 0.930 . S
C1381 C1380 1.369 . S
C1381 C1390 1.429 . S
C1382 C1380 1.419 . S
C1382 C1383 1.363 . S
C1382 H1385 0.929 . S
C1383 C1382 1.363 . S
C1383 C1389 1.428 . S
H1384 C1380 0.930 . S
H1385 C1382 0.929 . S
S1386 N1387 1.613 . S
S1386 N1388 1.610 . S
N1387 S1386 1.613 . S
N1387 C1390 1.350 . S
N1388 S1386 1.610 . S
N1388 C1389 1.351 . S
C1389 C1383 1.428 . S
C1389 N1388 1.351 . S
C1389 C1390 1.434 . S
C1390 C1381 1.429 . S
C1390 N1387 1.350 . S
C1390 C1389 1.434 . S
C1391 C1392 1.369 . S
C1391 C1393 1.419 . S
C1391 H1395 0.930 . S
C1392 C1391 1.369 . S
C1392 C1401 1.429 . S
C1393 C1391 1.419 . S
C1393 C1394 1.363 . S
C1393 H1396 0.929 . S
C1394 C1393 1.363 . S
C1394 C1400 1.428 . S
H1395 C1391 0.930 . S
H1396 C1393 0.929 . S
S1397 N1398 1.613 . S
S1397 N1399 1.610 . S
N1398 S1397 1.613 . S
N1398 C1401 1.350 . S
N1399 S1397 1.610 . S
N1399 C1400 1.351 . S
C1400 C1394 1.428 . S
C1400 N1399 1.351 . S
C1400 C1401 1.434 . S
C1401 C1392 1.429 . S
C1401 N1398 1.350 . S
C1401 C1400 1.434 . S
C1402 C1403 1.369 . S
C1402 C1404 1.419 . S
C1402 H1406 0.930 . S
C1403 C1402 1.369 . S
C1403 C1412 1.429 . S
C1404 C1402 1.419 . S
C1404 C1405 1.363 . S
C1404 H1407 0.929 . S
C1405 C1404 1.363 . S
C1405 C1411 1.428 . S
H1406 C1402 0.930 . S
H1407 C1404 0.929 . S
S1408 N1409 1.613 . S
S1408 N1410 1.610 . S
N1409 S1408 1.613 . S
N1409 C1412 1.350 . S
N1410 S1408 1.610 . S
N1410 C1411 1.351 . S
C1411 C1405 1.428 . S
C1411 N1410 1.351 . S
C1411 C1412 1.434 . S
C1412 C1403 1.429 . S
C1412 N1409 1.350 . S
C1412 C1411 1.434 . S
C1413 C1414 1.329 1_554 S
C1413 C1415 1.446 . S
C1413 H1417 0.945 . S
C1414 C1413 1.329 1_556 S
C1414 C1423 1.429 . S
C1415 C1413 1.446 . S
C1415 C1416 1.363 . S
C1415 H1418 0.929 . S
C1416 C1415 1.363 . S
C1416 C1422 1.428 1_554 S
H1417 C1413 0.945 . S
H1418 C1415 0.929 . S
S1419 N1420 1.613 . S
S1419 N1421 1.610 . S
N1420 S1419 1.613 . S
N1420 C1423 1.350 . S
N1421 S1419 1.610 . S
N1421 C1422 1.351 . S
C1422 C1416 1.428 1_556 S
C1422 N1421 1.351 . S
C1422 C1423 1.434 . S
C1423 C1414 1.429 . S
C1423 N1420 1.350 . S
C1423 C1422 1.434 . S
C1424 C1425 1.369 . S
C1424 C1426 1.419 . S
C1424 H1428 0.930 . S
C1425 C1424 1.369 . S
C1425 C1434 1.429 . S
C1426 C1424 1.419 . S
C1426 C1427 1.363 . S
C1426 H1429 0.929 . S
C1427 C1426 1.363 . S
C1427 C1433 1.428 . S
H1428 C1424 0.930 . S
H1429 C1426 0.929 . S
S1430 N1431 1.613 . S
S1430 N1432 1.610 . S
N1431 S1430 1.613 . S
N1431 C1434 1.350 . S
N1432 S1430 1.610 . S
N1432 C1433 1.351 . S
C1433 C1427 1.428 . S
C1433 N1432 1.351 . S
C1433 C1434 1.434 . S
C1434 C1425 1.429 . S
C1434 N1431 1.350 . S
C1434 C1433 1.434 . S
C1435 C1436 1.369 . S
C1435 C1437 1.419 . S
C1435 H1439 0.930 . S
C1436 C1435 1.369 . S
C1436 C1445 1.429 . S
C1437 C1435 1.419 . S
C1437 C1438 1.363 . S
C1437 H1440 0.929 . S
C1438 C1437 1.363 . S
C1438 C1444 1.428 . S
H1439 C1435 0.930 . S
H1440 C1437 0.929 . S
S1441 N1442 1.613 . S
S1441 N1443 1.610 . S
N1442 S1441 1.613 . S
N1442 C1445 1.350 . S
N1443 S1441 1.610 . S
N1443 C1444 1.351 . S
C1444 C1438 1.428 . S
C1444 N1443 1.351 . S
C1444 C1445 1.434 . S
C1445 C1436 1.429 . S
C1445 N1442 1.350 . S
C1445 C1444 1.434 . S
C1446 C1447 1.369 . S
C1446 C1448 1.419 . S
C1446 H1450 0.930 . S
C1447 C1446 1.369 . S
C1447 C1456 1.429 . S
C1448 C1446 1.419 . S
C1448 C1449 1.363 . S
C1448 H1451 0.929 . S
C1449 C1448 1.363 . S
C1449 C1455 1.428 . S
H1450 C1446 0.930 . S
H1451 C1448 0.929 . S
S1452 N1453 1.613 . S
S1452 N1454 1.610 . S
N1453 S1452 1.613 . S
N1453 C1456 1.350 . S
N1454 S1452 1.610 . S
N1454 C1455 1.351 . S
C1455 C1449 1.428 . S
C1455 N1454 1.351 . S
C1455 C1456 1.434 . S
C1456 C1447 1.429 . S
C1456 N1453 1.350 . S
C1456 C1455 1.434 . S
C1457 C1458 1.369 . S
C1457 C1459 1.419 . S
C1457 H1461 0.930 . S
C1458 C1457 1.369 . S
C1458 C1467 1.429 . S
C1459 C1457 1.419 . S
C1459 C1460 1.363 . S
C1459 H1462 0.929 . S
C1460 C1459 1.363 . S
C1460 C1466 1.428 . S
H1461 C1457 0.930 . S
H1462 C1459 0.929 . S
S1463 N1464 1.613 . S
S1463 N1465 1.610 . S
N1464 S1463 1.613 . S
N1464 C1467 1.350 . S
N1465 S1463 1.610 . S
N1465 C1466 1.351 . S
C1466 C1460 1.428 . S
C1466 N1465 1.351 . S
C1466 C1467 1.434 . S
C1467 C1458 1.429 . S
C1467 N1464 1.350 . S
C1467 C1466 1.434 . S
C1468 C1469 1.416 . S
C1468 C1470 1.384 1_565 S
C1468 H1472 0.919 1_565 S
C1469 C1468 1.416 . S
C1469 C1478 1.429 . S
C1470 C1468 1.384 1_545 S
C1470 C1471 1.363 . S
C1470 H1473 0.929 . S
C1471 C1470 1.363 . S
C1471 C1477 1.428 1_545 S
H1472 C1468 0.919 1_545 S
H1473 C1470 0.929 . S
S1474 N1475 1.613 . S
S1474 N1476 1.610 . S
N1475 S1474 1.613 . S
N1475 C1478 1.350 . S
N1476 S1474 1.610 . S
N1476 C1477 1.351 . S
C1477 C1471 1.428 1_565 S
C1477 N1476 1.351 . S
C1477 C1478 1.434 . S
C1478 C1469 1.429 . S
C1478 N1475 1.350 . S
C1478 C1477 1.434 . S
C1479 C1480 1.369 . S
C1479 C1481 1.419 . S
C1479 H1483 0.930 . S
C1480 C1479 1.369 . S
C1480 C1489 1.429 . S
C1481 C1479 1.419 . S
C1481 C1482 1.363 . S
C1481 H1484 0.929 . S
C1482 C1481 1.363 . S
C1482 C1488 1.428 . S
H1483 C1479 0.930 . S
H1484 C1481 0.929 . S
S1485 N1486 1.613 . S
S1485 N1487 1.610 . S
N1486 S1485 1.613 . S
N1486 C1489 1.350 . S
N1487 S1485 1.610 . S
N1487 C1488 1.351 . S
C1488 C1482 1.428 . S
C1488 N1487 1.351 . S
C1488 C1489 1.434 . S
C1489 C1480 1.429 . S
C1489 N1486 1.350 . S
C1489 C1488 1.434 . S
C1490 C1491 1.369 . S
C1490 C1492 1.419 . S
C1490 H1494 0.930 . S
C1491 C1490 1.369 . S
C1491 C1500 1.429 . S
C1492 C1490 1.419 . S
C1492 C1493 1.363 . S
C1492 H1495 0.929 . S
C1493 C1492 1.363 . S
C1493 C1499 1.428 . S
H1494 C1490 0.930 . S
H1495 C1492 0.929 . S
S1496 N1497 1.613 . S
S1496 N1498 1.610 . S
N1497 S1496 1.613 . S
N1497 C1500 1.350 . S
N1498 S1496 1.610 . S
N1498 C1499 1.351 . S
C1499 C1493 1.428 . S
C1499 N1498 1.351 . S
C1499 C1500 1.434 . S
C1500 C1491 1.429 . S
C1500 N1497 1.350 . S
C1500 C1499 1.434 . S
C1501 C1502 1.369 . S
C1501 C1503 1.419 . S
C1501 H1505 0.930 . S
C1502 C1501 1.369 . S
C1502 C1511 1.429 . S
C1503 C1501 1.419 . S
C1503 C1504 1.363 . S
C1503 H1506 0.929 . S
C1504 C1503 1.363 . S
C1504 C1510 1.428 . S
H1505 C1501 0.930 . S
H1506 C1503 0.929 . S
S1507 N1508 1.613 . S
S1507 N1509 1.610 . S
N1508 S1507 1.613 . S
N1508 C1511 1.350 . S
N1509 S1507 1.610 . S
N1509 C1510 1.351 . S
C1510 C1504 1.428 . S
C1510 N1509 1.351 . S
C1510 C1511 1.434 . S
C1511 C1502 1.429 . S
C1511 N1508 1.350 . S
C1511 C1510 1.434 . S
C1512 C1513 1.369 . S
C1512 C1514 1.419 . S
C1512 H1516 0.930 . S
C1513 C1512 1.369 . S
C1513 C1522 1.429 . S
C1514 C1512 1.419 . S
C1514 C1515 1.363 . S
C1514 H1517 0.929 . S
C1515 C1514 1.363 . S
C1515 C1521 1.428 . S
H1516 C1512 0.930 . S
H1517 C1514 0.929 . S
S1518 N1519 1.613 . S
S1518 N1520 1.610 . S
N1519 S1518 1.613 . S
N1519 C1522 1.350 . S
N1520 S1518 1.610 . S
N1520 C1521 1.351 . S
C1521 C1515 1.428 . S
C1521 N1520 1.351 . S
C1521 C1522 1.434 . S
C1522 C1513 1.429 . S
C1522 N1519 1.350 . S
C1522 C1521 1.434 . S
C1523 C1524 1.369 1_455 S
C1523 C1525 1.419 . S
C1523 H1527 0.930 . S
C1524 C1523 1.369 1_655 S
C1524 C1533 1.429 . S
C1525 C1523 1.419 . S
C1525 C1526 1.363 . S
C1525 H1528 0.929 . S
C1526 C1525 1.363 . S
C1526 C1532 1.428 1_455 S
H1527 C1523 0.930 . S
H1528 C1525 0.929 . S
S1529 N1530 1.613 . S
S1529 N1531 1.610 . S
N1530 S1529 1.613 . S
N1530 C1533 1.350 . S
N1531 S1529 1.610 . S
N1531 C1532 1.351 . S
C1532 C1526 1.428 1_655 S
C1532 N1531 1.351 . S
C1532 C1533 1.434 . S
C1533 C1524 1.429 . S
C1533 N1530 1.350 . S
C1533 C1532 1.434 . S
C1534 C1535 1.369 . S
C1534 C1536 1.419 . S
C1534 H1538 0.930 . S
C1535 C1534 1.369 . S
C1535 C1544 1.429 . S
C1536 C1534 1.419 . S
C1536 C1537 1.363 . S
C1536 H1539 0.929 . S
C1537 C1536 1.363 . S
C1537 C1543 1.428 . S
H1538 C1534 0.930 . S
H1539 C1536 0.929 . S
S1540 N1541 1.613 . S
S1540 N1542 1.610 . S
N1541 S1540 1.613 . S
N1541 C1544 1.350 . S
N1542 S1540 1.610 . S
N1542 C1543 1.351 . S
C1543 C1537 1.428 . S
C1543 N1542 1.351 . S
C1543 C1544 1.434 . S
C1544 C1535 1.429 . S
C1544 N1541 1.350 . S
C1544 C1543 1.434 . S
C1545 C1546 1.369 . S
C1545 C1547 1.419 . S
C1545 H1549 0.930 . S
C1546 C1545 1.369 . S
C1546 C1555 1.429 . S
C1547 C1545 1.419 . S
C1547 C1548 1.363 . S
C1547 H1550 0.929 . S
C1548 C1547 1.363 . S
C1548 C1554 1.428 . S
H1549 C1545 0.930 . S
H1550 C1547 0.929 . S
S1551 N1552 1.613 . S
S1551 N1553 1.610 . S
N1552 S1551 1.613 . S
N1552 C1555 1.350 . S
N1553 S1551 1.610 . S
N1553 C1554 1.351 . S
C1554 C1548 1.428 . S
C1554 N1553 1.351 . S
C1554 C1555 1.434 . S
C1555 C1546 1.429 . S
C1555 N1552 1.350 . S
C1555 C1554 1.434 . S
C1556 C1557 1.369 . S
C1556 C1558 1.419 . S
C1556 H1560 0.930 . S
C1557 C1556 1.369 . S
C1557 C1566 1.429 . S
C1558 C1556 1.419 . S
C1558 C1559 1.363 . S
C1558 H1561 0.929 . S
C1559 C1558 1.363 . S
C1559 C1565 1.428 . S
H1560 C1556 0.930 . S
H1561 C1558 0.929 . S
S1562 N1563 1.613 . S
S1562 N1564 1.610 . S
N1563 S1562 1.613 . S
N1563 C1566 1.350 . S
N1564 S1562 1.610 . S
N1564 C1565 1.351 . S
C1565 C1559 1.428 . S
C1565 N1564 1.351 . S
C1565 C1566 1.434 . S
C1566 C1557 1.429 . S
C1566 N1563 1.350 . S
C1566 C1565 1.434 . S
C1567 C1568 1.369 . S
C1567 C1569 1.419 . S
C1567 H1571 0.930 . S
C1568 C1567 1.369 . S
C1568 C1577 1.429 . S
C1569 C1567 1.419 . S
C1569 C1570 1.363 . S
C1569 H1572 0.929 . S
C1570 C1569 1.363 . S
C1570 C1576 1.428 . S
H1571 C1567 0.930 . S
H1572 C1569 0.929 . S
S1573 N1574 1.613 . S
S1573 N1575 1.610 . S
N1574 S1573 1.613 . S
N1574 C1577 1.350 . S
N1575 S1573 1.610 . S
N1575 C1576 1.351 . S
C1576 C1570 1.428 . S
C1576 N1575 1.351 . S
C1576 C1577 1.434 . S
C1577 C1568 1.429 . S
C1577 N1574 1.350 . S
C1577 C1576 1.434 . S
C1578 C1579 1.369 . S
C1578 C1580 1.419 . S
C1578 H1582 0.930 . S
C1579 C1578 1.369 . S
C1579 C1588 1.429 . S
C1580 C1578 1.419 . S
C1580 C1581 1.363 . S
C1580 H1583 0.929 . S
C1581 C1580 1.363 . S
C1581 C1587 1.428 . S
H1582 C1578 0.930 . S
H1583 C1580 0.929 . S
S1584 N1585 1.613 . S
S1584 N1586 1.610 . S
N1585 S1584 1.613 . S
N1585 C1588 1.350 . S
N1586 S1584 1.610 . S
N1586 C1587 1.351 . S
C1587 C1581 1.428 . S
C1587 N1586 1.351 . S
C1587 C1588 1.434 . S
C1588 C1579 1.429 . S
C1588 N1585 1.350 . S
C1588 C1587 1.434 . S
C1589 C1590 1.386 . S
C1589 C1591 1.409 1_455 S
C1589 H1593 0.923 1_455 S
C1590 C1589 1.386 . S
C1590 C1599 1.429 . S
C1591 C1589 1.409 1_655 S
C1591 C1592 1.363 . S
C1591 H1594 0.929 . S
C1592 C1591 1.363 . S
C1592 C1598 1.428 1_655 S
H1593 C1589 0.923 1_655 S
H1594 C1591 0.929 . S
S1595 N1596 1.613 . S
S1595 N1597 1.610 . S
N1596 S1595 1.613 . S
N1596 C1599 1.350 . S
N1597 S1595 1.610 . S
N1597 C1598 1.351 . S
C1598 C1592 1.428 1_455 S
C1598 N1597 1.351 . S
C1598 C1599 1.434 . S
C1599 C1590 1.429 . S
C1599 N1596 1.350 . S
C1599 C1598 1.434 . S
C1600 C1601 1.369 . S
C1600 C1602 1.419 . S
C1600 H1604 0.930 . S
C1601 C1600 1.369 . S
C1601 C1610 1.429 . S
C1602 C1600 1.419 . S
C1602 C1603 1.363 . S
C1602 H1605 0.929 . S
C1603 C1602 1.363 . S
C1603 C1609 1.428 . S
H1604 C1600 0.930 . S
H1605 C1602 0.929 . S
S1606 N1607 1.613 . S
S1606 N1608 1.610 . S
N1607 S1606 1.613 . S
N1607 C1610 1.350 . S
N1608 S1606 1.610 . S
N1608 C1609 1.351 . S
C1609 C1603 1.428 . S
C1609 N1608 1.351 . S
C1609 C1610 1.434 . S
C1610 C1601 1.429 . S
C1610 N1607 1.350 . S
C1610 C1609 1.434 . S
C1611 C1612 1.369 . S
C1611 C1613 1.419 . S
C1611 H1615 0.930 . S
C1612 C1611 1.369 . S
C1612 C1621 1.429 . S
C1613 C1611 1.419 . S
C1613 C1614 1.363 . S
C1613 H1616 0.929 . S
C1614 C1613 1.363 . S
C1614 C1620 1.428 . S
H1615 C1611 0.930 . S
H1616 C1613 0.929 . S
S1617 N1618 1.613 . S
S1617 N1619 1.610 . S
N1618 S1617 1.613 . S
N1618 C1621 1.350 . S
N1619 S1617 1.610 . S
N1619 C1620 1.351 . S
C1620 C1614 1.428 . S
C1620 N1619 1.351 . S
C1620 C1621 1.434 . S
C1621 C1612 1.429 . S
C1621 N1618 1.350 . S
C1621 C1620 1.434 . S
C1622 C1623 1.369 . S
C1622 C1624 1.419 . S
C1622 H1626 0.930 . S
C1623 C1622 1.369 . S
C1623 C1632 1.429 . S
C1624 C1622 1.419 . S
C1624 C1625 1.363 . S
C1624 H1627 0.929 . S
C1625 C1624 1.363 . S
C1625 C1631 1.428 . S
H1626 C1622 0.930 . S
H1627 C1624 0.929 . S
S1628 N1629 1.613 . S
S1628 N1630 1.610 . S
N1629 S1628 1.613 . S
N1629 C1632 1.350 . S
N1630 S1628 1.610 . S
N1630 C1631 1.351 . S
C1631 C1625 1.428 . S
C1631 N1630 1.351 . S
C1631 C1632 1.434 . S
C1632 C1623 1.429 . S
C1632 N1629 1.350 . S
C1632 C1631 1.434 . S
C1633 C1634 1.369 1_556 S
C1633 C1635 1.419 . S
C1633 H1637 0.930 . S
C1634 C1633 1.369 1_554 S
C1634 C1643 1.429 . S
C1635 C1633 1.419 . S
C1635 C1636 1.363 . S
C1635 H1638 0.929 . S
C1636 C1635 1.363 . S
C1636 C1642 1.428 . S
H1637 C1633 0.930 . S
H1638 C1635 0.929 . S
S1639 N1640 1.613 . S
S1639 N1641 1.610 . S
N1640 S1639 1.613 . S
N1640 C1643 1.350 . S
N1641 S1639 1.610 . S
N1641 C1642 1.351 1_554 S
C1642 C1636 1.428 . S
C1642 N1641 1.351 1_556 S
C1642 C1643 1.434 1_556 S
C1643 C1634 1.429 . S
C1643 N1640 1.350 . S
C1643 C1642 1.434 1_554 S
C1644 C1645 1.369 . S
C1644 C1646 1.419 . S
C1644 H1648 0.930 . S
C1645 C1644 1.369 . S
C1645 C1654 1.429 . S
C1646 C1644 1.419 . S
C1646 C1647 1.363 . S
C1646 H1649 0.929 . S
C1647 C1646 1.363 . S
C1647 C1653 1.428 . S
H1648 C1644 0.930 . S
H1649 C1646 0.929 . S
S1650 N1651 1.613 . S
S1650 N1652 1.610 . S
N1651 S1650 1.613 . S
N1651 C1654 1.350 . S
N1652 S1650 1.610 . S
N1652 C1653 1.351 . S
C1653 C1647 1.428 . S
C1653 N1652 1.351 . S
C1653 C1654 1.434 . S
C1654 C1645 1.429 . S
C1654 N1651 1.350 . S
C1654 C1653 1.434 . S
C1655 C1656 1.369 . S
C1655 C1657 1.419 . S
C1655 H1659 0.930 . S
C1656 C1655 1.369 . S
C1656 C1665 1.429 . S
C1657 C1655 1.419 . S
C1657 C1658 1.363 . S
C1657 H1660 0.929 . S
C1658 C1657 1.363 . S
C1658 C1664 1.428 . S
H1659 C1655 0.930 . S
H1660 C1657 0.929 . S
S1661 N1662 1.613 . S
S1661 N1663 1.610 . S
N1662 S1661 1.613 . S
N1662 C1665 1.350 . S
N1663 S1661 1.610 . S
N1663 C1664 1.351 . S
C1664 C1658 1.428 . S
C1664 N1663 1.351 . S
C1664 C1665 1.434 . S
C1665 C1656 1.429 . S
C1665 N1662 1.350 . S
C1665 C1664 1.434 . S
C1666 C1667 1.369 . S
C1666 C1668 1.419 . S
C1666 H1670 0.930 . S
C1667 C1666 1.369 . S
C1667 C1676 1.429 . S
C1668 C1666 1.419 . S
C1668 C1669 1.363 . S
C1668 H1671 0.929 . S
C1669 C1668 1.363 . S
C1669 C1675 1.428 . S
H1670 C1666 0.930 . S
H1671 C1668 0.929 . S
S1672 N1673 1.613 . S
S1672 N1674 1.610 . S
N1673 S1672 1.613 . S
N1673 C1676 1.350 . S
N1674 S1672 1.610 . S
N1674 C1675 1.351 . S
C1675 C1669 1.428 . S
C1675 N1674 1.351 . S
C1675 C1676 1.434 . S
C1676 C1667 1.429 . S
C1676 N1673 1.350 . S
C1676 C1675 1.434 . S
C1677 C1678 1.369 1_554 S
C1677 C1679 1.419 . S
C1677 H1681 0.930 . S
C1678 C1677 1.369 1_556 S
C1678 C1687 1.429 . S
C1679 C1677 1.419 . S
C1679 C1680 1.363 . S
C1679 H1682 0.929 . S
C1680 C1679 1.363 . S
C1680 C1686 1.428 . S
H1681 C1677 0.930 . S
H1682 C1679 0.929 . S
S1683 N1684 1.613 . S
S1683 N1685 1.579 1_556 S
N1684 S1683 1.613 . S
N1684 C1687 1.350 . S
N1685 S1683 1.579 1_554 S
N1685 C1686 1.360 . S
C1686 C1680 1.428 . S
C1686 N1685 1.360 . S
C1686 C1687 1.434 1_554 S
C1687 C1678 1.429 . S
C1687 N1684 1.350 . S
C1687 C1686 1.434 1_556 S
C1688 C1689 1.369 . S
C1688 C1690 1.419 . S
C1688 H1692 0.930 . S
C1689 C1688 1.369 . S
C1689 C1698 1.429 . S
C1690 C1688 1.419 . S
C1690 C1691 1.363 . S
C1690 H1693 0.929 . S
C1691 C1690 1.363 . S
C1691 C1697 1.428 . S
H1692 C1688 0.930 . S
H1693 C1690 0.929 . S
S1694 N1695 1.613 . S
S1694 N1696 1.610 . S
N1695 S1694 1.613 . S
N1695 C1698 1.350 . S
N1696 S1694 1.610 . S
N1696 C1697 1.351 . S
C1697 C1691 1.428 . S
C1697 N1696 1.351 . S
C1697 C1698 1.434 . S
C1698 C1689 1.429 . S
C1698 N1695 1.350 . S
C1698 C1697 1.434 . S
C1699 C1700 1.369 . S
C1699 C1701 1.419 . S
C1699 H1703 0.930 . S
C1700 C1699 1.369 . S
C1700 C1709 1.429 . S
C1701 C1699 1.419 . S
C1701 C1702 1.363 . S
C1701 H1704 0.929 . S
C1702 C1701 1.363 . S
C1702 C1708 1.428 . S
H1703 C1699 0.930 . S
H1704 C1701 0.929 . S
S1705 N1706 1.613 . S
S1705 N1707 1.610 . S
N1706 S1705 1.613 . S
N1706 C1709 1.350 . S
N1707 S1705 1.610 . S
N1707 C1708 1.351 . S
C1708 C1702 1.428 . S
C1708 N1707 1.351 . S
C1708 C1709 1.434 . S
C1709 C1700 1.429 . S
C1709 N1706 1.350 . S
C1709 C1708 1.434 . S
C1710 C1711 1.369 . S
C1710 C1712 1.419 . S
C1710 H1714 0.930 . S
C1711 C1710 1.369 . S
C1711 C1720 1.429 . S
C1712 C1710 1.419 . S
C1712 C1713 1.363 . S
C1712 H1715 0.929 . S
C1713 C1712 1.363 . S
C1713 C1719 1.428 . S
H1714 C1710 0.930 . S
H1715 C1712 0.929 . S
S1716 N1717 1.613 . S
S1716 N1718 1.610 . S
N1717 S1716 1.613 . S
N1717 C1720 1.350 . S
N1718 S1716 1.610 . S
N1718 C1719 1.351 . S
C1719 C1713 1.428 . S
C1719 N1718 1.351 . S
C1719 C1720 1.434 . S
C1720 C1711 1.429 . S
C1720 N1717 1.350 . S
C1720 C1719 1.434 . S
C1721 C1722 1.369 . S
C1721 C1723 1.419 . S
C1721 H1725 0.930 . S
C1722 C1721 1.369 . S
C1722 C1731 1.429 . S
C1723 C1721 1.419 . S
C1723 C1724 1.363 . S
C1723 H1726 0.929 . S
C1724 C1723 1.363 . S
C1724 C1730 1.428 . S
H1725 C1721 0.930 . S
H1726 C1723 0.929 . S
S1727 N1728 1.613 . S
S1727 N1729 1.610 . S
N1728 S1727 1.613 . S
N1728 C1731 1.350 . S
N1729 S1727 1.610 . S
N1729 C1730 1.351 . S
C1730 C1724 1.428 . S
C1730 N1729 1.351 . S
C1730 C1731 1.434 . S
C1731 C1722 1.429 . S
C1731 N1728 1.350 . S
C1731 C1730 1.434 . S
C1732 C1733 1.369 . S
C1732 C1734 1.432 . S
C1732 H1736 0.930 . S
C1733 C1732 1.369 . S
C1733 C1742 1.429 . S
C1734 C1732 1.432 . S
C1734 C1735 1.357 1_545 S
C1734 H1737 0.922 1_545 S
C1735 C1734 1.357 1_565 S
C1735 C1741 1.428 1_565 S
H1736 C1732 0.930 . S
H1737 C1734 0.922 1_565 S
S1738 N1739 1.613 . S
S1738 N1740 1.610 1_545 S
N1739 S1738 1.613 . S
N1739 C1742 1.350 . S
N1740 S1738 1.610 1_565 S
N1740 C1741 1.351 1_565 S
C1741 C1735 1.428 1_545 S
C1741 N1740 1.351 1_545 S
C1741 C1742 1.434 . S
C1742 C1733 1.429 . S
C1742 N1739 1.350 . S
C1742 C1741 1.434 . S
C1743 C1744 1.369 . S
C1743 C1745 1.419 . S
C1743 H1747 0.930 . S
C1744 C1743 1.369 . S
C1744 C1753 1.429 . S
C1745 C1743 1.419 . S
C1745 C1746 1.363 . S
C1745 H1748 0.929 . S
C1746 C1745 1.363 . S
C1746 C1752 1.428 . S
H1747 C1743 0.930 . S
H1748 C1745 0.929 . S
S1749 N1750 1.613 . S
S1749 N1751 1.610 . S
N1750 S1749 1.613 . S
N1750 C1753 1.350 . S
N1751 S1749 1.610 . S
N1751 C1752 1.351 . S
C1752 C1746 1.428 . S
C1752 N1751 1.351 . S
C1752 C1753 1.434 . S
C1753 C1744 1.429 . S
C1753 N1750 1.350 . S
C1753 C1752 1.434 . S
C1754 C1755 1.369 . S
C1754 C1756 1.419 . S
C1754 H1758 0.930 . S
C1755 C1754 1.369 . S
C1755 C1764 1.429 . S
C1756 C1754 1.419 . S
C1756 C1757 1.363 . S
C1756 H1759 0.929 . S
C1757 C1756 1.363 . S
C1757 C1763 1.428 . S
H1758 C1754 0.930 . S
H1759 C1756 0.929 . S
S1760 N1761 1.613 . S
S1760 N1762 1.610 . S
N1761 S1760 1.613 . S
N1761 C1764 1.350 . S
N1762 S1760 1.610 . S
N1762 C1763 1.351 . S
C1763 C1757 1.428 . S
C1763 N1762 1.351 . S
C1763 C1764 1.434 . S
C1764 C1755 1.429 . S
C1764 N1761 1.350 . S
C1764 C1763 1.434 . S
C1765 C1766 1.369 . S
C1765 C1767 1.419 . S
C1765 H1769 0.930 . S
C1766 C1765 1.369 . S
C1766 C1775 1.429 . S
C1767 C1765 1.419 . S
C1767 C1768 1.363 . S
C1767 H1770 0.929 . S
C1768 C1767 1.363 . S
C1768 C1774 1.428 . S
H1769 C1765 0.930 . S
H1770 C1767 0.929 . S
S1771 N1772 1.613 . S
S1771 N1773 1.610 . S
N1772 S1771 1.613 . S
N1772 C1775 1.350 . S
N1773 S1771 1.610 . S
N1773 C1774 1.351 . S
C1774 C1768 1.428 . S
C1774 N1773 1.351 . S
C1774 C1775 1.434 . S
C1775 C1766 1.429 . S
C1775 N1772 1.350 . S
C1775 C1774 1.434 . S
C1776 C1777 1.369 . S
C1776 C1778 1.419 . S
C1776 H1780 0.930 . S
C1777 C1776 1.369 . S
C1777 C1786 1.429 . S
C1778 C1776 1.419 . S
C1778 C1779 1.363 . S
C1778 H1781 0.929 . S
C1779 C1778 1.363 . S
C1779 C1785 1.428 . S
H1780 C1776 0.930 . S
H1781 C1778 0.929 . S
S1782 N1783 1.613 . S
S1782 N1784 1.610 . S
N1783 S1782 1.613 . S
N1783 C1786 1.350 . S
N1784 S1782 1.610 . S
N1784 C1785 1.351 . S
C1785 C1779 1.428 . S
C1785 N1784 1.351 . S
C1785 C1786 1.434 . S
C1786 C1777 1.429 . S
C1786 N1783 1.350 . S
C1786 C1785 1.434 . S
C1787 C1788 1.369 . S
C1787 C1789 1.419 . S
C1787 H1791 0.930 . S
C1788 C1787 1.369 . S
C1788 C1797 1.429 . S
C1789 C1787 1.419 . S
C1789 C1790 1.363 . S
C1789 H1792 0.929 . S
C1790 C1789 1.363 . S
C1790 C1796 1.428 . S
H1791 C1787 0.930 . S
H1792 C1789 0.929 . S
S1793 N1794 1.613 . S
S1793 N1795 1.610 . S
N1794 S1793 1.613 . S
N1794 C1797 1.350 . S
N1795 S1793 1.610 . S
N1795 C1796 1.351 . S
C1796 C1790 1.428 . S
C1796 N1795 1.351 . S
C1796 C1797 1.434 . S
C1797 C1788 1.429 . S
C1797 N1794 1.350 . S
C1797 C1796 1.434 . S
C1798 C1799 1.369 . S
C1798 C1800 1.419 . S
C1798 H1802 0.930 . S
C1799 C1798 1.369 . S
C1799 C1808 1.429 . S
C1800 C1798 1.419 . S
C1800 C1801 1.363 . S
C1800 H1803 0.929 . S
C1801 C1800 1.363 . S
C1801 C1807 1.428 . S
H1802 C1798 0.930 . S
H1803 C1800 0.929 . S
S1804 N1805 1.613 . S
S1804 N1806 1.610 . S
N1805 S1804 1.613 . S
N1805 C1808 1.350 . S
N1806 S1804 1.610 . S
N1806 C1807 1.351 . S
C1807 C1801 1.428 . S
C1807 N1806 1.351 . S
C1807 C1808 1.434 . S
C1808 C1799 1.429 . S
C1808 N1805 1.350 . S
C1808 C1807 1.434 . S
C1809 C1810 1.325 1_655 S
C1809 C1811 1.449 . S
C1809 H1813 0.946 . S
C1810 C1809 1.325 1_455 S
C1810 C1819 1.429 . S
C1811 C1809 1.449 . S
C1811 C1812 1.363 . S
C1811 H1814 0.929 . S
C1812 C1811 1.363 . S
C1812 C1818 1.428 1_655 S
H1813 C1809 0.946 . S
H1814 C1811 0.929 . S
S1815 N1816 1.613 . S
S1815 N1817 1.610 . S
N1816 S1815 1.613 . S
N1816 C1819 1.350 . S
N1817 S1815 1.610 . S
N1817 C1818 1.351 . S
C1818 C1812 1.428 1_455 S
C1818 N1817 1.351 . S
C1818 C1819 1.434 . S
C1819 C1810 1.429 . S
C1819 N1816 1.350 . S
C1819 C1818 1.434 . S
C1820 C1821 1.369 . S
C1820 C1822 1.419 . S
C1820 H1824 0.930 . S
C1821 C1820 1.369 . S
C1821 C1830 1.429 . S
C1822 C1820 1.419 . S
C1822 C1823 1.363 . S
C1822 H1825 0.929 . S
C1823 C1822 1.363 . S
C1823 C1829 1.428 . S
H1824 C1820 0.930 . S
H1825 C1822 0.929 . S
S1826 N1827 1.613 . S
S1826 N1828 1.610 . S
N1827 S1826 1.613 . S
N1827 C1830 1.350 . S
N1828 S1826 1.610 . S
N1828 C1829 1.351 . S
C1829 C1823 1.428 . S
C1829 N1828 1.351 . S
C1829 C1830 1.434 . S
C1830 C1821 1.429 . S
C1830 N1827 1.350 . S
C1830 C1829 1.434 . S
C1831 C1832 1.369 1_455 S
C1831 C1833 1.419 . S
C1831 H1835 0.930 . S
C1832 C1831 1.369 1_655 S
C1832 C1841 1.429 . S
C1833 C1831 1.419 . S
C1833 C1834 1.363 . S
C1833 H1836 0.929 . S
C1834 C1833 1.363 . S
C1834 C1840 1.428 1_455 S
H1835 C1831 0.930 . S
H1836 C1833 0.929 . S
S1837 N1838 1.613 . S
S1837 N1839 1.610 . S
N1838 S1837 1.613 . S
N1838 C1841 1.350 . S
N1839 S1837 1.610 . S
N1839 C1840 1.351 . S
C1840 C1834 1.428 1_655 S
C1840 N1839 1.351 . S
C1840 C1841 1.434 . S
C1841 C1832 1.429 . S
C1841 N1838 1.350 . S
C1841 C1840 1.434 . S
C1842 C1843 1.369 . S
C1842 C1844 1.419 . S
C1842 H1846 0.930 . S
C1843 C1842 1.369 . S
C1843 C1852 1.429 . S
C1844 C1842 1.419 . S
C1844 C1845 1.363 . S
C1844 H1847 0.929 . S
C1845 C1844 1.363 . S
C1845 C1851 1.428 . S
H1846 C1842 0.930 . S
H1847 C1844 0.929 . S
S1848 N1849 1.613 . S
S1848 N1850 1.610 . S
N1849 S1848 1.613 . S
N1849 C1852 1.350 . S
N1850 S1848 1.610 . S
N1850 C1851 1.351 . S
C1851 C1845 1.428 . S
C1851 N1850 1.351 . S
C1851 C1852 1.434 . S
C1852 C1843 1.429 . S
C1852 N1849 1.350 . S
C1852 C1851 1.434 . S
C1853 C1854 1.369 . S
C1853 C1855 1.419 . S
C1853 H1857 0.930 . S
C1854 C1853 1.369 . S
C1854 C1863 1.429 . S
C1855 C1853 1.419 . S
C1855 C1856 1.363 . S
C1855 H1858 0.929 . S
C1856 C1855 1.363 . S
C1856 C1862 1.428 . S
H1857 C1853 0.930 . S
H1858 C1855 0.929 . S
S1859 N1860 1.613 . S
S1859 N1861 1.610 . S
N1860 S1859 1.613 . S
N1860 C1863 1.350 . S
N1861 S1859 1.610 . S
N1861 C1862 1.351 . S
C1862 C1856 1.428 . S
C1862 N1861 1.351 . S
C1862 C1863 1.434 . S
C1863 C1854 1.429 . S
C1863 N1860 1.350 . S
C1863 C1862 1.434 . S
C1864 C1865 1.369 . S
C1864 C1866 1.419 . S
C1864 H1868 0.930 . S
C1865 C1864 1.369 . S
C1865 C1874 1.429 . S
C1866 C1864 1.419 . S
C1866 C1867 1.363 . S
C1866 H1869 0.929 . S
C1867 C1866 1.363 . S
C1867 C1873 1.428 . S
H1868 C1864 0.930 . S
H1869 C1866 0.929 . S
S1870 N1871 1.613 . S
S1870 N1872 1.610 . S
N1871 S1870 1.613 . S
N1871 C1874 1.350 . S
N1872 S1870 1.610 . S
N1872 C1873 1.351 . S
C1873 C1867 1.428 . S
C1873 N1872 1.351 . S
C1873 C1874 1.434 . S
C1874 C1865 1.429 . S
C1874 N1871 1.350 . S
C1874 C1873 1.434 . S
C1875 C1876 1.369 . S
C1875 C1877 1.419 1_556 S
C1875 H1879 0.930 . S
C1876 C1875 1.369 . S
C1876 C1885 1.429 . S
C1877 C1875 1.419 1_554 S
C1877 C1878 1.363 . S
C1877 H1880 0.929 . S
C1878 C1877 1.363 . S
C1878 C1884 1.428 . S
H1879 C1875 0.930 . S
H1880 C1877 0.929 . S
S1881 N1882 1.613 1_554 S
S1881 N1883 1.610 . S
N1882 S1881 1.613 1_556 S
N1882 C1885 1.350 . S
N1883 S1881 1.610 . S
N1883 C1884 1.351 . S
C1884 C1878 1.428 . S
C1884 N1883 1.351 . S
C1884 C1885 1.434 1_554 S
C1885 C1876 1.429 . S
C1885 N1882 1.350 . S
C1885 C1884 1.434 1_556 S
C1886 C1887 1.369 . S
C1886 C1888 1.419 . S
C1886 H1890 0.930 . S
C1887 C1886 1.369 . S
C1887 C1896 1.429 . S
C1888 C1886 1.419 . S
C1888 C1889 1.363 . S
C1888 H1891 0.929 . S
C1889 C1888 1.363 . S
C1889 C1895 1.428 . S
H1890 C1886 0.930 . S
H1891 C1888 0.929 . S
S1892 N1893 1.613 . S
S1892 N1894 1.610 . S
N1893 S1892 1.613 . S
N1893 C1896 1.350 . S
N1894 S1892 1.610 . S
N1894 C1895 1.351 . S
C1895 C1889 1.428 . S
C1895 N1894 1.351 . S
C1895 C1896 1.434 . S
C1896 C1887 1.429 . S
C1896 N1893 1.350 . S
C1896 C1895 1.434 . S
C1897 C1898 1.369 . S
C1897 C1899 1.419 . S
C1897 H1901 0.930 . S
C1898 C1897 1.369 . S
C1898 C1907 1.429 . S
C1899 C1897 1.419 . S
C1899 C1900 1.363 . S
C1899 H1902 0.929 . S
C1900 C1899 1.363 . S
C1900 C1906 1.428 . S
H1901 C1897 0.930 . S
H1902 C1899 0.929 . S
S1903 N1904 1.613 . S
S1903 N1905 1.610 . S
N1904 S1903 1.613 . S
N1904 C1907 1.350 . S
N1905 S1903 1.610 . S
N1905 C1906 1.351 . S
C1906 C1900 1.428 . S
C1906 N1905 1.351 . S
C1906 C1907 1.434 . S
C1907 C1898 1.429 . S
C1907 N1904 1.350 . S
C1907 C1906 1.434 . S
C1908 C1909 1.369 . S
C1908 C1910 1.419 . S
C1908 H1912 0.930 . S
C1909 C1908 1.369 . S
C1909 C1918 1.429 . S
C1910 C1908 1.419 . S
C1910 C1911 1.363 . S
C1910 H1913 0.929 . S
C1911 C1910 1.363 . S
C1911 C1917 1.428 . S
H1912 C1908 0.930 . S
H1913 C1910 0.929 . S
S1914 N1915 1.613 . S
S1914 N1916 1.610 . S
N1915 S1914 1.613 . S
N1915 C1918 1.350 . S
N1916 S1914 1.610 . S
N1916 C1917 1.351 . S
C1917 C1911 1.428 . S
C1917 N1916 1.351 . S
C1917 C1918 1.434 . S
C1918 C1909 1.429 . S
C1918 N1915 1.350 . S
C1918 C1917 1.434 . S
C1919 C1920 1.369 . S
C1919 C1921 1.419 1_554 S
C1919 H1923 0.930 . S
C1920 C1919 1.369 . S
C1920 C1929 1.429 1_554 S
C1921 C1919 1.419 1_556 S
C1921 C1922 1.363 . S
C1921 H1924 0.929 . S
C1922 C1921 1.363 . S
C1922 C1928 1.428 . S
H1923 C1919 0.930 . S
H1924 C1921 0.929 . S
S1925 N1926 1.613 . S
S1925 N1927 1.610 . S
N1926 S1925 1.613 . S
N1926 C1929 1.350 . S
N1927 S1925 1.610 . S
N1927 C1928 1.351 . S
C1928 C1922 1.428 . S
C1928 N1927 1.351 . S
C1928 C1929 1.434 . S
C1929 C1920 1.429 1_556 S
C1929 N1926 1.350 . S
C1929 C1928 1.434 . S
C1930 C1931 1.369 . S
C1930 C1932 1.419 . S
C1930 H1934 0.930 . S
C1931 C1930 1.369 . S
C1931 C1940 1.429 . S
C1932 C1930 1.419 . S
C1932 C1933 1.363 . S
C1932 H1935 0.929 . S
C1933 C1932 1.363 . S
C1933 C1939 1.428 . S
H1934 C1930 0.930 . S
H1935 C1932 0.929 . S
S1936 N1937 1.613 . S
S1936 N1938 1.610 . S
N1937 S1936 1.613 . S
N1937 C1940 1.350 . S
N1938 S1936 1.610 . S
N1938 C1939 1.351 . S
C1939 C1933 1.428 . S
C1939 N1938 1.351 . S
C1939 C1940 1.434 . S
C1940 C1931 1.429 . S
C1940 N1937 1.350 . S
C1940 C1939 1.434 . S
C1941 C1942 1.369 . S
C1941 C1943 1.419 . S
C1941 H1945 0.930 . S
C1942 C1941 1.369 . S
C1942 C1951 1.429 . S
C1943 C1941 1.419 . S
C1943 C1944 1.363 . S
C1943 H1946 0.929 . S
C1944 C1943 1.363 . S
C1944 C1950 1.428 . S
H1945 C1941 0.930 . S
H1946 C1943 0.929 . S
S1947 N1948 1.613 . S
S1947 N1949 1.610 . S
N1948 S1947 1.613 . S
N1948 C1951 1.350 . S
N1949 S1947 1.610 . S
N1949 C1950 1.351 . S
C1950 C1944 1.428 . S
C1950 N1949 1.351 . S
C1950 C1951 1.434 . S
C1951 C1942 1.429 . S
C1951 N1948 1.350 . S
C1951 C1950 1.434 . S
C1952 C1953 1.369 . S
C1952 C1954 1.419 . S
C1952 H1956 0.930 . S
C1953 C1952 1.369 . S
C1953 C1962 1.429 . S
C1954 C1952 1.419 . S
C1954 C1955 1.363 . S
C1954 H1957 0.929 . S
C1955 C1954 1.363 . S
C1955 C1961 1.428 . S
H1956 C1952 0.930 . S
H1957 C1954 0.929 . S
S1958 N1959 1.613 . S
S1958 N1960 1.610 . S
N1959 S1958 1.613 . S
N1959 C1962 1.350 . S
N1960 S1958 1.610 . S
N1960 C1961 1.351 . S
C1961 C1955 1.428 . S
C1961 N1960 1.351 . S
C1961 C1962 1.434 . S
C1962 C1953 1.429 . S
C1962 N1959 1.350 . S
C1962 C1961 1.434 . S
C1963 C1964 1.369 . S
C1963 C1965 1.419 . S
C1963 H1967 0.930 . S
C1964 C1963 1.369 . S
C1964 C1973 1.429 . S
C1965 C1963 1.419 . S
C1965 C1966 1.363 . S
C1965 H1968 0.929 . S
C1966 C1965 1.363 . S
C1966 C1972 1.428 . S
H1967 C1963 0.930 . S
H1968 C1965 0.929 . S
S1969 N1970 1.613 . S
S1969 N1971 1.610 . S
N1970 S1969 1.613 . S
N1970 C1973 1.350 . S
N1971 S1969 1.610 . S
N1971 C1972 1.351 . S
C1972 C1966 1.428 . S
C1972 N1971 1.351 . S
C1972 C1973 1.434 . S
C1973 C1964 1.429 . S
C1973 N1970 1.350 . S
C1973 C1972 1.434 . S
C1974 C1975 1.369 . S
C1974 C1976 1.419 . S
C1974 H1978 0.930 . S
C1975 C1974 1.369 . S
C1975 C1984 1.429 . S
C1976 C1974 1.419 . S
C1976 C1977 1.363 1_545 S
C1976 H1979 0.929 . S
C1977 C1976 1.363 1_565 S
C1977 C1983 1.428 . S
H1978 C1974 0.930 . S
H1979 C1976 0.929 . S
S1980 N1981 1.608 . S
S1980 N1982 1.610 . S
N1981 S1980 1.608 . S
N1981 C1984 1.351 1_565 S
N1982 S1980 1.610 . S
N1982 C1983 1.351 . S
C1983 C1977 1.428 . S
C1983 N1982 1.351 . S
C1983 C1984 1.434 1_565 S
C1984 C1975 1.429 . S
C1984 N1981 1.351 1_545 S
C1984 C1983 1.434 1_545 S
C1985 C1986 1.369 . S
C1985 C1987 1.419 . S
C1985 H1989 0.930 . S
C1986 C1985 1.369 . S
C1986 C1995 1.429 . S
C1987 C1985 1.419 . S
C1987 C1988 1.363 . S
C1987 H1990 0.929 . S
C1988 C1987 1.363 . S
C1988 C1994 1.428 . S
H1989 C1985 0.930 . S
H1990 C1987 0.929 . S
S1991 N1992 1.613 . S
S1991 N1993 1.610 . S
N1992 S1991 1.613 . S
N1992 C1995 1.350 . S
N1993 S1991 1.610 . S
N1993 C1994 1.351 . S
C1994 C1988 1.428 . S
C1994 N1993 1.351 . S
C1994 C1995 1.434 . S
C1995 C1986 1.429 . S
C1995 N1992 1.350 . S
C1995 C1994 1.434 . S
C1996 C1997 1.369 . S
C1996 C1998 1.419 . S
C1996 H2000 0.930 . S
C1997 C1996 1.369 . S
C1997 C2006 1.429 . S
C1998 C1996 1.419 . S
C1998 C1999 1.363 . S
C1998 H2001 0.929 . S
C1999 C1998 1.363 . S
C1999 C2005 1.428 . S
H2000 C1996 0.930 . S
H2001 C1998 0.929 . S
S2002 N2003 1.613 . S
S2002 N2004 1.610 . S
N2003 S2002 1.613 . S
N2003 C2006 1.350 . S
N2004 S2002 1.610 . S
N2004 C2005 1.351 . S
C2005 C1999 1.428 . S
C2005 N2004 1.351 . S
C2005 C2006 1.434 . S
C2006 C1997 1.429 . S
C2006 N2003 1.350 . S
C2006 C2005 1.434 . S
C2007 C2008 1.369 . S
C2007 C2009 1.419 . S
C2007 H2011 0.930 . S
C2008 C2007 1.369 . S
C2008 C2017 1.429 . S
C2009 C2007 1.419 . S
C2009 C2010 1.363 . S
C2009 H2012 0.929 . S
C2010 C2009 1.363 . S
C2010 C2016 1.428 . S
H2011 C2007 0.930 . S
H2012 C2009 0.929 . S
S2013 N2014 1.613 . S
S2013 N2015 1.610 . S
N2014 S2013 1.613 . S
N2014 C2017 1.350 . S
N2015 S2013 1.610 . S
N2015 C2016 1.351 . S
C2016 C2010 1.428 . S
C2016 N2015 1.351 . S
C2016 C2017 1.434 . S
C2017 C2008 1.429 . S
C2017 N2014 1.350 . S
C2017 C2016 1.434 . S
C2018 C2019 1.369 1_565 S
C2018 C2020 1.419 . S
C2018 H2022 0.930 . S
C2019 C2018 1.369 1_545 S
C2019 C2028 1.429 . S
C2020 C2018 1.419 . S
C2020 C2021 1.363 . S
C2020 H2023 0.929 . S
C2021 C2020 1.363 . S
C2021 C2027 1.428 . S
H2022 C2018 0.930 . S
H2023 C2020 0.929 . S
S2024 N2025 1.613 . S
S2024 N2026 1.610 . S
N2025 S2024 1.613 . S
N2025 C2028 1.350 . S
N2026 S2024 1.610 . S
N2026 C2027 1.351 1_545 S
C2027 C2021 1.428 . S
C2027 N2026 1.351 1_565 S
C2027 C2028 1.434 1_565 S
C2028 C2019 1.429 . S
C2028 N2025 1.350 . S
C2028 C2027 1.434 1_545 S
C2029 C2030 1.369 . S
C2029 C2031 1.419 1_565 S
C2029 H2033 0.930 . S
C2030 C2029 1.369 . S
C2030 C2039 1.429 1_565 S
C2031 C2029 1.419 1_545 S
C2031 C2032 1.363 . S
C2031 H2034 0.929 . S
C2032 C2031 1.363 . S
C2032 C2038 1.428 . S
H2033 C2029 0.930 . S
H2034 C2031 0.929 . S
S2035 N2036 1.613 . S
S2035 N2037 1.610 . S
N2036 S2035 1.613 . S
N2036 C2039 1.350 . S
N2037 S2035 1.610 . S
N2037 C2038 1.351 . S
C2038 C2032 1.428 . S
C2038 N2037 1.351 . S
C2038 C2039 1.434 . S
C2039 C2030 1.429 1_545 S
C2039 N2036 1.350 . S
C2039 C2038 1.434 . S
C2040 C2041 1.369 . S
C2040 C2042 1.419 . S
C2040 H2044 0.930 . S
C2041 C2040 1.369 . S
C2041 C2050 1.429 . S
C2042 C2040 1.419 . S
C2042 C2043 1.363 . S
C2042 H2045 0.929 . S
C2043 C2042 1.363 . S
C2043 C2049 1.428 . S
H2044 C2040 0.930 . S
H2045 C2042 0.929 . S
S2046 N2047 1.613 . S
S2046 N2048 1.610 . S
N2047 S2046 1.613 . S
N2047 C2050 1.350 . S
N2048 S2046 1.610 . S
N2048 C2049 1.351 . S
C2049 C2043 1.428 . S
C2049 N2048 1.351 . S
C2049 C2050 1.434 . S
C2050 C2041 1.429 . S
C2050 N2047 1.350 . S
C2050 C2049 1.434 . S
C2051 C2052 1.369 . S
C2051 C2053 1.419 . S
C2051 H2055 0.930 . S
C2052 C2051 1.369 . S
C2052 C2061 1.429 . S
C2053 C2051 1.419 . S
C2053 C2054 1.363 . S
C2053 H2056 0.929 . S
C2054 C2053 1.363 . S
C2054 C2060 1.428 . S
H2055 C2051 0.930 . S
H2056 C2053 0.929 . S
S2057 N2058 1.613 . S
S2057 N2059 1.610 . S
N2058 S2057 1.613 . S
N2058 C2061 1.350 . S
N2059 S2057 1.610 . S
N2059 C2060 1.351 . S
C2060 C2054 1.428 . S
C2060 N2059 1.351 . S
C2060 C2061 1.434 . S
C2061 C2052 1.429 . S
C2061 N2058 1.350 . S
C2061 C2060 1.434 . S
C2062 C2063 1.369 . S
C2062 C2064 1.419 . S
C2062 H2066 0.930 . S
C2063 C2062 1.369 . S
C2063 C2072 1.429 . S
C2064 C2062 1.419 . S
C2064 C2065 1.363 . S
C2064 H2067 0.929 . S
C2065 C2064 1.363 . S
C2065 C2071 1.428 . S
H2066 C2062 0.930 . S
H2067 C2064 0.929 . S
S2068 N2069 1.613 . S
S2068 N2070 1.610 . S
N2069 S2068 1.613 . S
N2069 C2072 1.350 . S
N2070 S2068 1.610 . S
N2070 C2071 1.351 . S
C2071 C2065 1.428 . S
C2071 N2070 1.351 . S
C2071 C2072 1.434 . S
C2072 C2063 1.429 . S
C2072 N2069 1.350 . S
C2072 C2071 1.434 . S
C2073 C2074 1.369 1_655 S
C2073 C2075 1.419 . S
C2073 H2077 0.930 . S
C2074 C2073 1.369 1_455 S
C2074 C2083 1.429 . S
C2075 C2073 1.419 . S
C2075 C2076 1.363 . S
C2075 H2078 0.929 . S
C2076 C2075 1.363 . S
C2076 C2082 1.428 . S
H2077 C2073 0.930 . S
H2078 C2075 0.929 . S
S2079 N2080 1.613 . S
S2079 N2081 1.610 . S
N2080 S2079 1.613 . S
N2080 C2083 1.350 . S
N2081 S2079 1.610 . S
N2081 C2082 1.351 1_455 S
C2082 C2076 1.428 . S
C2082 N2081 1.351 1_655 S
C2082 C2083 1.434 1_655 S
C2083 C2074 1.429 . S
C2083 N2080 1.350 . S
C2083 C2082 1.434 1_455 S
C2084 C2085 1.369 . S
C2084 C2086 1.419 . S
C2084 H2088 0.930 . S
C2085 C2084 1.369 . S
C2085 C2094 1.429 . S
C2086 C2084 1.419 . S
C2086 C2087 1.363 . S
C2086 H2089 0.929 . S
C2087 C2086 1.363 . S
C2087 C2093 1.428 . S
H2088 C2084 0.930 . S
H2089 C2086 0.929 . S
S2090 N2091 1.613 . S
S2090 N2092 1.610 . S
N2091 S2090 1.613 . S
N2091 C2094 1.350 . S
N2092 S2090 1.610 . S
N2092 C2093 1.351 . S
C2093 C2087 1.428 . S
C2093 N2092 1.351 . S
C2093 C2094 1.434 . S
C2094 C2085 1.429 . S
C2094 N2091 1.350 . S
C2094 C2093 1.434 . S
C2095 C2096 1.369 . S
C2095 C2097 1.419 . S
C2095 H2099 0.930 . S
C2096 C2095 1.369 . S
C2096 C2105 1.429 1_655 S
C2097 C2095 1.419 . S
C2097 C2098 1.363 1_655 S
C2097 H2100 0.929 . S
C2098 C2097 1.363 1_455 S
C2098 C2104 1.428 . S
H2099 C2095 0.930 . S
H2100 C2097 0.929 . S
S2101 N2102 1.613 . S
S2101 N2103 1.610 . S
N2102 S2101 1.613 . S
N2102 C2105 1.350 . S
N2103 S2101 1.610 . S
N2103 C2104 1.351 . S
C2104 C2098 1.428 . S
C2104 N2103 1.351 . S
C2104 C2105 1.434 . S
C2105 C2096 1.429 1_455 S
C2105 N2102 1.350 . S
C2105 C2104 1.434 . S
C2106 C2107 1.369 . S
C2106 C2108 1.419 . S
C2106 H2110 0.930 . S
C2107 C2106 1.369 . S
C2107 C2116 1.429 . S
C2108 C2106 1.419 . S
C2108 C2109 1.363 . S
C2108 H2111 0.929 . S
C2109 C2108 1.363 . S
C2109 C2115 1.428 . S
H2110 C2106 0.930 . S
H2111 C2108 0.929 . S
S2112 N2113 1.613 . S
S2112 N2114 1.610 . S
N2113 S2112 1.613 . S
N2113 C2116 1.350 . S
N2114 S2112 1.610 . S
N2114 C2115 1.351 . S
C2115 C2109 1.428 . S
C2115 N2114 1.351 . S
C2115 C2116 1.434 . S
C2116 C2107 1.429 . S
C2116 N2113 1.350 . S
C2116 C2115 1.434 . S
C2117 C2118 1.369 . S
C2117 C2119 1.419 . S
C2117 H2121 0.930 . S
C2118 C2117 1.369 . S
C2118 C2127 1.429 . S
C2119 C2117 1.419 . S
C2119 C2120 1.363 . S
C2119 H2122 0.929 . S
C2120 C2119 1.363 . S
C2120 C2126 1.428 . S
H2121 C2117 0.930 . S
H2122 C2119 0.929 . S
S2123 N2124 1.613 . S
S2123 N2125 1.610 . S
N2124 S2123 1.613 . S
N2124 C2127 1.350 . S
N2125 S2123 1.610 . S
N2125 C2126 1.351 . S
C2126 C2120 1.428 . S
C2126 N2125 1.351 . S
C2126 C2127 1.434 . S
C2127 C2118 1.429 . S
C2127 N2124 1.350 . S
C2127 C2126 1.434 . S
C2128 C2129 1.369 . S
C2128 C2130 1.419 . S
C2128 H2132 0.930 . S
C2129 C2128 1.369 . S
C2129 C2138 1.429 . S
C2130 C2128 1.419 . S
C2130 C2131 1.363 . S
C2130 H2133 0.929 . S
C2131 C2130 1.363 . S
C2131 C2137 1.428 . S
H2132 C2128 0.930 . S
H2133 C2130 0.929 . S
S2134 N2135 1.613 . S
S2134 N2136 1.610 . S
N2135 S2134 1.613 . S
N2135 C2138 1.350 . S
N2136 S2134 1.610 . S
N2136 C2137 1.351 . S
C2137 C2131 1.428 . S
C2137 N2136 1.351 . S
C2137 C2138 1.434 . S
C2138 C2129 1.429 . S
C2138 N2135 1.350 . S
C2138 C2137 1.434 . S
C2139 C2140 1.369 . S
C2139 C2141 1.443 . S
C2139 H2143 0.930 . S
C2140 C2139 1.369 . S
C2140 C2149 1.429 1_554 S
C2141 C2139 1.443 . S
C2141 C2142 1.321 1_554 S
C2141 H2144 0.949 . S
C2142 C2141 1.321 1_556 S
C2142 C2148 1.428 . S
H2143 C2139 0.930 . S
H2144 C2141 0.949 . S
S2145 N2146 1.613 . S
S2145 N2147 1.610 . S
N2146 S2145 1.613 . S
N2146 C2149 1.350 . S
N2147 S2145 1.610 . S
N2147 C2148 1.351 . S
C2148 C2142 1.428 . S
C2148 N2147 1.351 . S
C2148 C2149 1.434 . S
C2149 C2140 1.429 1_556 S
C2149 N2146 1.350 . S
C2149 C2148 1.434 . S
C2150 C2151 1.369 . S
C2150 C2152 1.419 . S
C2150 H2154 0.930 . S
C2151 C2150 1.369 . S
C2151 C2160 1.429 . S
C2152 C2150 1.419 . S
C2152 C2153 1.363 . S
C2152 H2155 0.929 . S
C2153 C2152 1.363 . S
C2153 C2159 1.428 . S
H2154 C2150 0.930 . S
H2155 C2152 0.929 . S
S2156 N2157 1.613 . S
S2156 N2158 1.610 . S
N2157 S2156 1.613 . S
N2157 C2160 1.350 . S
N2158 S2156 1.610 . S
N2158 C2159 1.351 . S
C2159 C2153 1.428 . S
C2159 N2158 1.351 . S
C2159 C2160 1.434 . S
C2160 C2151 1.429 . S
C2160 N2157 1.350 . S
C2160 C2159 1.434 . S
C2161 C2162 1.369 . S
C2161 C2163 1.419 . S
C2161 H2165 0.930 . S
C2162 C2161 1.369 . S
C2162 C2171 1.429 . S
C2163 C2161 1.419 . S
C2163 C2164 1.363 . S
C2163 H2166 0.929 . S
C2164 C2163 1.363 . S
C2164 C2170 1.428 . S
H2165 C2161 0.930 . S
H2166 C2163 0.929 . S
S2167 N2168 1.613 . S
S2167 N2169 1.610 . S
N2168 S2167 1.613 . S
N2168 C2171 1.350 . S
N2169 S2167 1.610 . S
N2169 C2170 1.351 . S
C2170 C2164 1.428 . S
C2170 N2169 1.351 . S
C2170 C2171 1.434 . S
C2171 C2162 1.429 . S
C2171 N2168 1.350 . S
C2171 C2170 1.434 . S
C2172 C2173 1.369 . S
C2172 C2174 1.419 . S
C2172 H2176 0.930 . S
C2173 C2172 1.369 . S
C2173 C2182 1.429 . S
C2174 C2172 1.419 . S
C2174 C2175 1.363 . S
C2174 H2177 0.929 . S
C2175 C2174 1.363 . S
C2175 C2181 1.428 . S
H2176 C2172 0.930 . S
H2177 C2174 0.929 . S
S2178 N2179 1.613 . S
S2178 N2180 1.610 . S
N2179 S2178 1.613 . S
N2179 C2182 1.350 . S
N2180 S2178 1.610 . S
N2180 C2181 1.351 . S
C2181 C2175 1.428 . S
C2181 N2180 1.351 . S
C2181 C2182 1.434 . S
C2182 C2173 1.429 . S
C2182 N2179 1.350 . S
C2182 C2181 1.434 . S
C2183 C2184 1.369 . S
C2183 C2185 1.419 . S
C2183 H2187 0.930 . S
C2184 C2183 1.369 . S
C2184 C2193 1.429 . S
C2185 C2183 1.419 . S
C2185 C2186 1.363 1_554 S
C2185 H2188 0.929 . S
C2186 C2185 1.363 1_556 S
C2186 C2192 1.428 . S
H2187 C2183 0.930 . S
H2188 C2185 0.929 . S
S2189 N2190 1.613 1_556 S
S2189 N2191 1.610 . S
N2190 S2189 1.613 1_554 S
N2190 C2193 1.350 . S
N2191 S2189 1.610 . S
N2191 C2192 1.351 . S
C2192 C2186 1.428 . S
C2192 N2191 1.351 . S
C2192 C2193 1.434 1_556 S
C2193 C2184 1.429 . S
C2193 N2190 1.350 . S
C2193 C2192 1.434 1_554 S
C2194 C2195 1.369 . S
C2194 C2196 1.419 . S
C2194 H2198 0.930 . S
C2195 C2194 1.369 . S
C2195 C2204 1.429 . S
C2196 C2194 1.419 . S
C2196 C2197 1.363 . S
C2196 H2199 0.929 . S
C2197 C2196 1.363 . S
C2197 C2203 1.428 . S
H2198 C2194 0.930 . S
H2199 C2196 0.929 . S
S2200 N2201 1.613 . S
S2200 N2202 1.610 . S
N2201 S2200 1.613 . S
N2201 C2204 1.350 . S
N2202 S2200 1.610 . S
N2202 C2203 1.351 . S
C2203 C2197 1.428 . S
C2203 N2202 1.351 . S
C2203 C2204 1.434 . S
C2204 C2195 1.429 . S
C2204 N2201 1.350 . S
C2204 C2203 1.434 . S
C2205 C2206 1.369 . S
C2205 C2207 1.419 . S
C2205 H2209 0.930 . S
C2206 C2205 1.369 . S
C2206 C2215 1.429 . S
C2207 C2205 1.419 . S
C2207 C2208 1.363 . S
C2207 H2210 0.929 . S
C2208 C2207 1.363 . S
C2208 C2214 1.428 . S
H2209 C2205 0.930 . S
H2210 C2207 0.929 . S
S2211 N2212 1.613 . S
S2211 N2213 1.610 . S
N2212 S2211 1.613 . S
N2212 C2215 1.350 . S
N2213 S2211 1.610 . S
N2213 C2214 1.351 . S
C2214 C2208 1.428 . S
C2214 N2213 1.351 . S
C2214 C2215 1.434 . S
C2215 C2206 1.429 . S
C2215 N2212 1.350 . S
C2215 C2214 1.434 . S
C2216 C2217 1.369 . S
C2216 C2218 1.419 . S
C2216 H2220 0.930 . S
C2217 C2216 1.369 . S
C2217 C2226 1.429 . S
C2218 C2216 1.419 . S
C2218 C2219 1.363 . S
C2218 H2221 0.929 . S
C2219 C2218 1.363 . S
C2219 C2225 1.428 . S
H2220 C2216 0.930 . S
H2221 C2218 0.929 . S
S2222 N2223 1.613 . S
S2222 N2224 1.610 . S
N2223 S2222 1.613 . S
N2223 C2226 1.350 . S
N2224 S2222 1.610 . S
N2224 C2225 1.351 . S
C2225 C2219 1.428 . S
C2225 N2224 1.351 . S
C2225 C2226 1.434 . S
C2226 C2217 1.429 . S
C2226 N2223 1.350 . S
C2226 C2225 1.434 . S
C2227 C2228 1.369 . S
C2227 C2229 1.419 . S
C2227 H2231 0.930 . S
C2228 C2227 1.369 . S
C2228 C2237 1.429 . S
C2229 C2227 1.419 . S
C2229 C2230 1.363 . S
C2229 H2232 0.929 . S
C2230 C2229 1.363 . S
C2230 C2236 1.428 . S
H2231 C2227 0.930 . S
H2232 C2229 0.929 . S
S2233 N2234 1.613 . S
S2233 N2235 1.610 . S
N2234 S2233 1.613 . S
N2234 C2237 1.350 . S
N2235 S2233 1.610 . S
N2235 C2236 1.351 . S
C2236 C2230 1.428 . S
C2236 N2235 1.351 . S
C2236 C2237 1.434 . S
C2237 C2228 1.429 . S
C2237 N2234 1.350 . S
C2237 C2236 1.434 . S
C2238 C2239 1.369 . S
C2238 C2240 1.419 . S
C2238 H2242 0.930 . S
C2239 C2238 1.369 . S
C2239 C2248 1.401 1_565 S
C2240 C2238 1.419 . S
C2240 C2241 1.363 1_565 S
C2240 H2243 0.929 . S
C2241 C2240 1.363 1_545 S
C2241 C2247 1.428 . S
H2242 C2238 0.930 . S
H2243 C2240 0.929 . S
S2244 N2245 1.613 . S
S2244 N2246 1.610 . S
N2245 S2244 1.613 . S
N2245 C2248 1.363 . S
N2246 S2244 1.610 . S
N2246 C2247 1.351 . S
C2247 C2241 1.428 . S
C2247 N2246 1.351 . S
C2247 C2248 1.451 . S
C2248 C2239 1.401 1_545 S
C2248 N2245 1.363 . S
C2248 C2247 1.451 . S
C2249 C2250 1.369 . S
C2249 C2251 1.419 . S
C2249 H2253 0.930 . S
C2250 C2249 1.369 . S
C2250 C2259 1.429 . S
C2251 C2249 1.419 . S
C2251 C2252 1.363 . S
C2251 H2254 0.929 . S
C2252 C2251 1.363 . S
C2252 C2258 1.428 . S
H2253 C2249 0.930 . S
H2254 C2251 0.929 . S
S2255 N2256 1.613 . S
S2255 N2257 1.610 . S
N2256 S2255 1.613 . S
N2256 C2259 1.350 . S
N2257 S2255 1.610 . S
N2257 C2258 1.351 . S
C2258 C2252 1.428 . S
C2258 N2257 1.351 . S
C2258 C2259 1.434 . S
C2259 C2250 1.429 . S
C2259 N2256 1.350 . S
C2259 C2258 1.434 . S
C2260 C2261 1.369 . S
C2260 C2262 1.419 . S
C2260 H2264 0.930 . S
C2261 C2260 1.369 . S
C2261 C2270 1.429 . S
C2262 C2260 1.419 . S
C2262 C2263 1.363 . S
C2262 H2265 0.929 . S
C2263 C2262 1.363 . S
C2263 C2269 1.428 . S
H2264 C2260 0.930 . S
H2265 C2262 0.929 . S
S2266 N2267 1.613 . S
S2266 N2268 1.610 . S
N2267 S2266 1.613 . S
N2267 C2270 1.350 . S
N2268 S2266 1.610 . S
N2268 C2269 1.351 . S
C2269 C2263 1.428 . S
C2269 N2268 1.351 . S
C2269 C2270 1.434 . S
C2270 C2261 1.429 . S
C2270 N2267 1.350 . S
C2270 C2269 1.434 . S
C2271 C2272 1.369 . S
C2271 C2273 1.419 . S
C2271 H2275 0.930 . S
C2272 C2271 1.369 . S
C2272 C2281 1.429 . S
C2273 C2271 1.419 . S
C2273 C2274 1.363 . S
C2273 H2276 0.929 . S
C2274 C2273 1.363 . S
C2274 C2280 1.428 . S
H2275 C2271 0.930 . S
H2276 C2273 0.929 . S
S2277 N2278 1.613 . S
S2277 N2279 1.610 . S
N2278 S2277 1.613 . S
N2278 C2281 1.350 . S
N2279 S2277 1.610 . S
N2279 C2280 1.351 . S
C2280 C2274 1.428 . S
C2280 N2279 1.351 . S
C2280 C2281 1.434 . S
C2281 C2272 1.429 . S
C2281 N2278 1.350 . S
C2281 C2280 1.434 . S
C2282 C2283 1.369 . S
C2282 C2284 1.419 . S
C2282 H2286 0.930 . S
C2283 C2282 1.369 . S
C2283 C2292 1.429 1_545 S
C2284 C2282 1.419 . S
C2284 C2285 1.363 1_545 S
C2284 H2287 0.929 . S
C2285 C2284 1.363 1_565 S
C2285 C2291 1.428 . S
H2286 C2282 0.930 . S
H2287 C2284 0.929 . S
S2288 N2289 1.613 . S
S2288 N2290 1.610 . S
N2289 S2288 1.613 . S
N2289 C2292 1.350 . S
N2290 S2288 1.610 . S
N2290 C2291 1.351 . S
C2291 C2285 1.428 . S
C2291 N2290 1.351 . S
C2291 C2292 1.434 . S
C2292 C2283 1.429 1_565 S
C2292 N2289 1.350 . S
C2292 C2291 1.434 . S
C2293 C2294 1.369 . S
C2293 C2295 1.419 . S
C2293 H2297 0.930 . S
C2294 C2293 1.369 . S
C2294 C2303 1.429 1_565 S
C2295 C2293 1.419 . S
C2295 C2296 1.363 1_565 S
C2295 H2298 0.929 . S
C2296 C2295 1.363 1_545 S
C2296 C2302 1.428 . S
H2297 C2293 0.930 . S
H2298 C2295 0.929 . S
S2299 N2300 1.613 . S
S2299 N2301 1.610 . S
N2300 S2299 1.613 . S
N2300 C2303 1.350 . S
N2301 S2299 1.610 . S
N2301 C2302 1.351 . S
C2302 C2296 1.428 . S
C2302 N2301 1.351 . S
C2302 C2303 1.434 . S
C2303 C2294 1.429 1_545 S
C2303 N2300 1.350 . S
C2303 C2302 1.434 . S
C2304 C2305 1.369 . S
C2304 C2306 1.419 . S
C2304 H2308 0.930 . S
C2305 C2304 1.369 . S
C2305 C2314 1.429 1_655 S
C2306 C2304 1.419 . S
C2306 C2307 1.363 1_655 S
C2306 H2309 0.929 . S
C2307 C2306 1.363 1_455 S
C2307 C2313 1.428 . S
H2308 C2304 0.930 . S
H2309 C2306 0.929 . S
S2310 N2311 1.613 . S
S2310 N2312 1.610 . S
N2311 S2310 1.613 . S
N2311 C2314 1.350 . S
N2312 S2310 1.610 . S
N2312 C2313 1.351 . S
C2313 C2307 1.428 . S
C2313 N2312 1.351 . S
C2313 C2314 1.434 . S
C2314 C2305 1.429 1_455 S
C2314 N2311 1.350 . S
C2314 C2313 1.434 . S
C2315 C2316 1.369 1_655 S
C2315 C2317 1.419 . S
C2315 H2319 0.930 . S
C2316 C2315 1.369 1_455 S
C2316 C2325 1.429 . S
C2317 C2315 1.419 . S
C2317 C2318 1.363 . S
C2317 H2320 0.929 . S
C2318 C2317 1.363 . S
C2318 C2324 1.428 1_655 S
H2319 C2315 0.930 . S
H2320 C2317 0.929 . S
S2321 N2322 1.613 . S
S2321 N2323 1.610 . S
N2322 S2321 1.613 . S
N2322 C2325 1.350 . S
N2323 S2321 1.610 . S
N2323 C2324 1.351 . S
C2324 C2318 1.428 1_455 S
C2324 N2323 1.351 . S
C2324 C2325 1.434 . S
C2325 C2316 1.429 . S
C2325 N2322 1.350 . S
C2325 C2324 1.434 . S
C2326 C2327 1.369 . S
C2326 C2328 1.419 . S
C2326 H2330 0.930 . S
C2327 C2326 1.369 . S
C2327 C2336 1.429 . S
C2328 C2326 1.419 . S
C2328 C2329 1.363 . S
C2328 H2331 0.929 . S
C2329 C2328 1.363 . S
C2329 C2335 1.428 . S
H2330 C2326 0.930 . S
H2331 C2328 0.929 . S
S2332 N2333 1.613 . S
S2332 N2334 1.610 . S
N2333 S2332 1.613 . S
N2333 C2336 1.350 . S
N2334 S2332 1.610 . S
N2334 C2335 1.351 . S
C2335 C2329 1.428 . S
C2335 N2334 1.351 . S
C2335 C2336 1.434 . S
C2336 C2327 1.429 . S
C2336 N2333 1.350 . S
C2336 C2335 1.434 . S
C2337 C2338 1.369 . S
C2337 C2339 1.419 . S
C2337 H2341 0.930 . S
C2338 C2337 1.369 . S
C2338 C2347 1.429 . S
C2339 C2337 1.419 . S
C2339 C2340 1.363 . S
C2339 H2342 0.929 . S
C2340 C2339 1.363 . S
C2340 C2346 1.428 . S
H2341 C2337 0.930 . S
H2342 C2339 0.929 . S
S2343 N2344 1.613 . S
S2343 N2345 1.610 . S
N2344 S2343 1.613 . S
N2344 C2347 1.350 . S
N2345 S2343 1.610 . S
N2345 C2346 1.351 . S
C2346 C2340 1.428 . S
C2346 N2345 1.351 . S
C2346 C2347 1.434 . S
C2347 C2338 1.429 . S
C2347 N2344 1.350 . S
C2347 C2346 1.434 . S
C2348 C2349 1.369 1_655 S
C2348 C2350 1.419 . S
C2348 H2352 0.930 . S
C2349 C2348 1.369 1_455 S
C2349 C2358 1.429 . S
C2350 C2348 1.419 . S
C2350 C2351 1.363 . S
C2350 H2353 0.929 . S
C2351 C2350 1.363 . S
C2351 C2357 1.428 1_655 S
H2352 C2348 0.930 . S
H2353 C2350 0.929 . S
S2354 N2355 1.613 . S
S2354 N2356 1.610 . S
N2355 S2354 1.613 . S
N2355 C2358 1.350 . S
N2356 S2354 1.610 . S
N2356 C2357 1.351 . S
C2357 C2351 1.428 1_455 S
C2357 N2356 1.351 . S
C2357 C2358 1.434 . S
C2358 C2349 1.429 . S
C2358 N2355 1.350 . S
C2358 C2357 1.434 . S
C2359 C2360 1.369 . S
C2359 C2361 1.419 . S
C2359 H2363 0.930 . S
C2360 C2359 1.369 . S
C2360 C2369 1.429 . S
C2361 C2359 1.419 . S
C2361 C2362 1.363 . S
C2361 H2364 0.929 . S
C2362 C2361 1.363 . S
C2362 C2368 1.428 . S
H2363 C2359 0.930 . S
H2364 C2361 0.929 . S
S2365 N2366 1.613 . S
S2365 N2367 1.610 . S
N2366 S2365 1.613 . S
N2366 C2369 1.350 . S
N2367 S2365 1.610 . S
N2367 C2368 1.351 . S
C2368 C2362 1.428 . S
C2368 N2367 1.351 . S
C2368 C2369 1.434 . S
C2369 C2360 1.429 . S
C2369 N2366 1.350 . S
C2369 C2368 1.434 . S
C2370 C2371 1.369 . S
C2370 C2372 1.419 . S
C2370 H2374 0.930 . S
C2371 C2370 1.369 . S
C2371 C2380 1.429 . S
C2372 C2370 1.419 . S
C2372 C2373 1.363 . S
C2372 H2375 0.929 . S
C2373 C2372 1.363 . S
C2373 C2379 1.428 . S
H2374 C2370 0.930 . S
H2375 C2372 0.929 . S
S2376 N2377 1.613 . S
S2376 N2378 1.610 . S
N2377 S2376 1.613 . S
N2377 C2380 1.350 . S
N2378 S2376 1.610 . S
N2378 C2379 1.351 . S
C2379 C2373 1.428 . S
C2379 N2378 1.351 . S
C2379 C2380 1.434 . S
C2380 C2371 1.429 . S
C2380 N2377 1.350 . S
C2380 C2379 1.434 . S
C2381 C2382 1.370 . S
C2381 C2383 1.418 1_455 S
C2381 H2385 0.930 1_455 S
C2382 C2381 1.370 . S
C2382 C2391 1.429 . S
C2383 C2381 1.418 1_655 S
C2383 C2384 1.363 . S
C2383 H2386 0.929 . S
C2384 C2383 1.363 . S
C2384 C2390 1.422 1_655 S
H2385 C2381 0.930 1_655 S
H2386 C2383 0.929 . S
S2387 N2388 1.613 . S
S2387 N2389 1.610 . S
N2388 S2387 1.613 . S
N2388 C2391 1.350 . S
N2389 S2387 1.610 . S
N2389 C2390 1.352 . S
C2390 C2384 1.422 1_455 S
C2390 N2389 1.352 . S
C2390 C2391 1.440 . S
C2391 C2382 1.429 . S
C2391 N2388 1.350 . S
C2391 C2390 1.440 . S
C2392 C2393 1.369 . S
C2392 C2394 1.419 . S
C2392 H2396 0.930 . S
C2393 C2392 1.369 . S
C2393 C2402 1.429 1_545 S
C2394 C2392 1.419 . S
C2394 C2395 1.363 1_545 S
C2394 H2397 0.929 . S
C2395 C2394 1.363 1_565 S
C2395 C2401 1.428 . S
H2396 C2392 0.930 . S
H2397 C2394 0.929 . S
S2398 N2399 1.613 . S
S2398 N2400 1.610 . S
N2399 S2398 1.613 . S
N2399 C2402 1.350 . S
N2400 S2398 1.610 . S
N2400 C2401 1.351 . S
C2401 C2395 1.428 . S
C2401 N2400 1.351 . S
C2401 C2402 1.434 . S
C2402 C2393 1.429 1_565 S
C2402 N2399 1.350 . S
C2402 C2401 1.434 . S
C2403 C2404 1.369 . S
C2403 C2405 1.419 . S
C2403 H2407 0.930 . S
C2404 C2403 1.369 . S
C2404 C2413 1.429 . S
C2405 C2403 1.419 . S
C2405 C2406 1.363 . S
C2405 H2408 0.929 . S
C2406 C2405 1.363 . S
C2406 C2412 1.428 . S
H2407 C2403 0.930 . S
H2408 C2405 0.929 . S
S2409 N2410 1.613 . S
S2409 N2411 1.610 . S
N2410 S2409 1.613 . S
N2410 C2413 1.350 . S
N2411 S2409 1.610 . S
N2411 C2412 1.351 . S
C2412 C2406 1.428 . S
C2412 N2411 1.351 . S
C2412 C2413 1.434 . S
C2413 C2404 1.429 . S
C2413 N2410 1.350 . S
C2413 C2412 1.434 . S
C2414 C2415 1.369 . S
C2414 C2416 1.419 1_565 S
C2414 H2418 0.930 . S
C2415 C2414 1.369 . S
C2415 C2424 1.429 . S
C2416 C2414 1.419 1_545 S
C2416 C2417 1.363 . S
C2416 H2419 0.929 . S
C2417 C2416 1.363 . S
C2417 C2423 1.428 . S
H2418 C2414 0.930 . S
H2419 C2416 0.929 . S
S2420 N2421 1.613 1_545 S
S2420 N2422 1.610 . S
N2421 S2420 1.613 1_565 S
N2421 C2424 1.350 . S
N2422 S2420 1.610 . S
N2422 C2423 1.351 . S
C2423 C2417 1.428 . S
C2423 N2422 1.351 . S
C2423 C2424 1.434 1_545 S
C2424 C2415 1.429 . S
C2424 N2421 1.350 . S
C2424 C2423 1.434 1_565 S
C2425 C2426 1.369 . S
C2425 C2427 1.419 . S
C2425 H2429 0.930 . S
C2426 C2425 1.369 . S
C2426 C2435 1.429 1_556 S
C2427 C2425 1.419 . S
C2427 C2428 1.363 1_556 S
C2427 H2430 0.929 . S
C2428 C2427 1.363 1_554 S
C2428 C2434 1.428 . S
H2429 C2425 0.930 . S
H2430 C2427 0.929 . S
S2431 N2432 1.613 . S
S2431 N2433 1.610 . S
N2432 S2431 1.613 . S
N2432 C2435 1.350 . S
N2433 S2431 1.610 . S
N2433 C2434 1.351 . S
C2434 C2428 1.428 . S
C2434 N2433 1.351 . S
C2434 C2435 1.434 . S
C2435 C2426 1.429 1_554 S
C2435 N2432 1.350 . S
C2435 C2434 1.434 . S
C2436 C2437 1.369 . S
C2436 C2438 1.419 . S
C2436 H2440 0.930 . S
C2437 C2436 1.369 . S
C2437 C2446 1.429 1_554 S
C2438 C2436 1.419 . S
C2438 C2439 1.363 1_554 S
C2438 H2441 0.929 . S
C2439 C2438 1.363 1_556 S
C2439 C2445 1.428 . S
H2440 C2436 0.930 . S
H2441 C2438 0.929 . S
S2442 N2443 1.613 . S
S2442 N2444 1.610 . S
N2443 S2442 1.613 . S
N2443 C2446 1.350 . S
N2444 S2442 1.610 . S
N2444 C2445 1.351 . S
C2445 C2439 1.428 . S
C2445 N2444 1.351 . S
C2445 C2446 1.434 . S
C2446 C2437 1.429 1_556 S
C2446 N2443 1.350 . S
C2446 C2445 1.434 . S
C2447 C2448 1.369 . S
C2447 C2449 1.419 . S
C2447 H2451 0.930 . S
C2448 C2447 1.369 . S
C2448 C2457 1.429 1_554 S
C2449 C2447 1.419 . S
C2449 C2450 1.363 1_554 S
C2449 H2452 0.929 . S
C2450 C2449 1.363 1_556 S
C2450 C2456 1.428 . S
H2451 C2447 0.930 . S
H2452 C2449 0.929 . S
S2453 N2454 1.613 . S
S2453 N2455 1.610 . S
N2454 S2453 1.613 . S
N2454 C2457 1.350 . S
N2455 S2453 1.610 . S
N2455 C2456 1.351 . S
C2456 C2450 1.428 . S
C2456 N2455 1.351 . S
C2456 C2457 1.434 . S
C2457 C2448 1.429 1_556 S
C2457 N2454 1.350 . S
C2457 C2456 1.434 . S
C2458 C2459 1.369 . S
C2458 C2460 1.419 . S
C2458 H2462 0.930 . S
C2459 C2458 1.369 . S
C2459 C2468 1.429 . S
C2460 C2458 1.419 . S
C2460 C2461 1.363 . S
C2460 H2463 0.929 . S
C2461 C2460 1.363 . S
C2461 C2467 1.428 . S
H2462 C2458 0.930 . S
H2463 C2460 0.929 . S
S2464 N2465 1.613 . S
S2464 N2466 1.610 . S
N2465 S2464 1.613 . S
N2465 C2468 1.350 . S
N2466 S2464 1.610 . S
N2466 C2467 1.351 . S
C2467 C2461 1.428 . S
C2467 N2466 1.351 . S
C2467 C2468 1.434 . S
C2468 C2459 1.429 . S
C2468 N2465 1.350 . S
C2468 C2467 1.434 . S
C2469 C2470 1.369 . S
C2469 C2471 1.419 . S
C2469 H2473 0.930 . S
C2470 C2469 1.369 . S
C2470 C2479 1.429 . S
C2471 C2469 1.419 . S
C2471 C2472 1.363 . S
C2471 H2474 0.929 . S
C2472 C2471 1.363 . S
C2472 C2478 1.428 . S
H2473 C2469 0.930 . S
H2474 C2471 0.929 . S
S2475 N2476 1.613 . S
S2475 N2477 1.610 . S
N2476 S2475 1.613 . S
N2476 C2479 1.350 . S
N2477 S2475 1.610 . S
N2477 C2478 1.351 . S
C2478 C2472 1.428 . S
C2478 N2477 1.351 . S
C2478 C2479 1.434 . S
C2479 C2470 1.429 . S
C2479 N2476 1.350 . S
C2479 C2478 1.434 . S
C2480 C2481 1.330 1_545 S
C2480 C2482 1.453 . S
C2480 H2484 0.936 . S
C2481 C2480 1.330 1_565 S
C2481 C2490 1.429 . S
C2482 C2480 1.453 . S
C2482 C2483 1.363 . S
C2482 H2485 0.929 . S
C2483 C2482 1.363 . S
C2483 C2489 1.428 1_545 S
H2484 C2480 0.936 . S
H2485 C2482 0.929 . S
S2486 N2487 1.613 . S
S2486 N2488 1.610 . S
N2487 S2486 1.613 . S
N2487 C2490 1.350 . S
N2488 S2486 1.610 . S
N2488 C2489 1.351 . S
C2489 C2483 1.428 1_565 S
C2489 N2488 1.351 . S
C2489 C2490 1.434 . S
C2490 C2481 1.429 . S
C2490 N2487 1.350 . S
C2490 C2489 1.434 . S
C2491 C2492 1.369 . S
C2491 C2493 1.419 . S
C2491 H2495 0.930 . S
C2492 C2491 1.369 . S
C2492 C2501 1.429 . S
C2493 C2491 1.419 . S
C2493 C2494 1.363 . S
C2493 H2496 0.929 . S
C2494 C2493 1.363 . S
C2494 C2500 1.428 . S
H2495 C2491 0.930 . S
H2496 C2493 0.929 . S
S2497 N2498 1.613 . S
S2497 N2499 1.610 . S
N2498 S2497 1.613 . S
N2498 C2501 1.350 . S
N2499 S2497 1.610 . S
N2499 C2500 1.351 . S
C2500 C2494 1.428 . S
C2500 N2499 1.351 . S
C2500 C2501 1.434 . S
C2501 C2492 1.429 . S
C2501 N2498 1.350 . S
C2501 C2500 1.434 . S
C2502 C2503 1.369 . S
C2502 C2504 1.419 . S
C2502 H2506 0.930 . S
C2503 C2502 1.369 . S
C2503 C2512 1.429 . S
C2504 C2502 1.419 . S
C2504 C2505 1.363 . S
C2504 H2507 0.929 . S
C2505 C2504 1.363 . S
C2505 C2511 1.428 . S
H2506 C2502 0.930 . S
H2507 C2504 0.929 . S
S2508 N2509 1.613 . S
S2508 N2510 1.610 . S
N2509 S2508 1.613 . S
N2509 C2512 1.350 . S
N2510 S2508 1.610 . S
N2510 C2511 1.351 . S
C2511 C2505 1.428 . S
C2511 N2510 1.351 . S
C2511 C2512 1.434 . S
C2512 C2503 1.429 . S
C2512 N2509 1.350 . S
C2512 C2511 1.434 . S
C2513 C2514 1.369 . S
C2513 C2515 1.419 1_455 S
C2513 H2517 0.930 . S
C2514 C2513 1.369 . S
C2514 C2523 1.429 . S
C2515 C2513 1.419 1_655 S
C2515 C2516 1.363 . S
C2515 H2518 0.929 . S
C2516 C2515 1.363 . S
C2516 C2522 1.428 . S
H2517 C2513 0.930 . S
H2518 C2515 0.929 . S
S2519 N2520 1.613 1_655 S
S2519 N2521 1.610 . S
N2520 S2519 1.613 1_455 S
N2520 C2523 1.350 . S
N2521 S2519 1.610 . S
N2521 C2522 1.351 . S
C2522 C2516 1.428 . S
C2522 N2521 1.351 . S
C2522 C2523 1.434 1_655 S
C2523 C2514 1.429 . S
C2523 N2520 1.350 . S
C2523 C2522 1.434 1_455 S
C2524 C2525 1.369 1_655 S
C2524 C2526 1.419 . S
C2524 H2528 0.930 . S
C2525 C2524 1.369 1_455 S
C2525 C2534 1.429 . S
C2526 C2524 1.419 . S
C2526 C2527 1.363 . S
C2526 H2529 0.929 . S
C2527 C2526 1.363 . S
C2527 C2533 1.428 1_655 S
H2528 C2524 0.930 . S
H2529 C2526 0.929 . S
S2530 N2531 1.613 . S
S2530 N2532 1.610 . S
N2531 S2530 1.613 . S
N2531 C2534 1.350 . S
N2532 S2530 1.610 . S
N2532 C2533 1.351 . S
C2533 C2527 1.428 1_455 S
C2533 N2532 1.351 . S
C2533 C2534 1.434 . S
C2534 C2525 1.429 . S
C2534 N2531 1.350 . S
C2534 C2533 1.434 . S
C2535 C2536 1.369 . S
C2535 C2537 1.419 . S
C2535 H2539 0.930 . S
C2536 C2535 1.369 . S
C2536 C2545 1.429 . S
C2537 C2535 1.419 . S
C2537 C2538 1.363 . S
C2537 H2540 0.929 . S
C2538 C2537 1.363 . S
C2538 C2544 1.428 . S
H2539 C2535 0.930 . S
H2540 C2537 0.929 . S
S2541 N2542 1.613 . S
S2541 N2543 1.610 . S
N2542 S2541 1.613 . S
N2542 C2545 1.350 . S
N2543 S2541 1.610 . S
N2543 C2544 1.351 . S
C2544 C2538 1.428 . S
C2544 N2543 1.351 . S
C2544 C2545 1.434 . S
C2545 C2536 1.429 . S
C2545 N2542 1.350 . S
C2545 C2544 1.434 . S
C2546 C2547 1.369 . S
C2546 C2548 1.419 . S
C2546 H2550 0.930 . S
C2547 C2546 1.369 . S
C2547 C2556 1.429 . S
C2548 C2546 1.419 . S
C2548 C2549 1.363 . S
C2548 H2551 0.929 . S
C2549 C2548 1.363 . S
C2549 C2555 1.428 . S
H2550 C2546 0.930 . S
H2551 C2548 0.929 . S
S2552 N2553 1.613 . S
S2552 N2554 1.610 . S
N2553 S2552 1.613 . S
N2553 C2556 1.350 . S
N2554 S2552 1.610 . S
N2554 C2555 1.351 . S
C2555 C2549 1.428 . S
C2555 N2554 1.351 . S
C2555 C2556 1.434 . S
C2556 C2547 1.429 . S
C2556 N2553 1.350 . S
C2556 C2555 1.434 . S
C2557 C2558 1.369 . S
C2557 C2559 1.432 . S
C2557 H2561 0.930 . S
C2558 C2557 1.369 . S
C2558 C2567 1.429 1_455 S
C2559 C2557 1.432 . S
C2559 C2560 1.349 1_455 S
C2559 H2562 0.931 . S
C2560 C2559 1.349 1_655 S
C2560 C2566 1.428 . S
H2561 C2557 0.930 . S
H2562 C2559 0.931 . S
S2563 N2564 1.613 . S
S2563 N2565 1.610 . S
N2564 S2563 1.613 . S
N2564 C2567 1.350 . S
N2565 S2563 1.610 . S
N2565 C2566 1.351 . S
C2566 C2560 1.428 . S
C2566 N2565 1.351 . S
C2566 C2567 1.434 . S
C2567 C2558 1.429 1_655 S
C2567 N2564 1.350 . S
C2567 C2566 1.434 . S
C2568 C2569 1.369 . S
C2568 C2570 1.419 . S
C2568 H2572 0.930 . S
C2569 C2568 1.369 . S
C2569 C2578 1.429 . S
C2570 C2568 1.419 . S
C2570 C2571 1.363 . S
C2570 H2573 0.929 . S
C2571 C2570 1.363 . S
C2571 C2577 1.428 . S
H2572 C2568 0.930 . S
H2573 C2570 0.929 . S
S2574 N2575 1.613 . S
S2574 N2576 1.610 . S
N2575 S2574 1.613 . S
N2575 C2578 1.350 . S
N2576 S2574 1.610 . S
N2576 C2577 1.351 . S
C2577 C2571 1.428 . S
C2577 N2576 1.351 . S
C2577 C2578 1.434 . S
C2578 C2569 1.429 . S
C2578 N2575 1.350 . S
C2578 C2577 1.434 . S
C2579 C2580 1.369 . S
C2579 C2581 1.419 . S
C2579 H2583 0.930 . S
C2580 C2579 1.369 . S
C2580 C2589 1.429 . S
C2581 C2579 1.419 . S
C2581 C2582 1.363 . S
C2581 H2584 0.929 . S
C2582 C2581 1.363 . S
C2582 C2588 1.428 . S
H2583 C2579 0.930 . S
H2584 C2581 0.929 . S
S2585 N2586 1.613 . S
S2585 N2587 1.610 . S
N2586 S2585 1.613 . S
N2586 C2589 1.350 . S
N2587 S2585 1.610 . S
N2587 C2588 1.351 . S
C2588 C2582 1.428 . S
C2588 N2587 1.351 . S
C2588 C2589 1.434 . S
C2589 C2580 1.429 . S
C2589 N2586 1.350 . S
C2589 C2588 1.434 . S
C2590 C2591 1.369 . S
C2590 C2592 1.419 . S
C2590 H2594 0.930 . S
C2591 C2590 1.369 . S
C2591 C2600 1.429 1_455 S
C2592 C2590 1.419 . S
C2592 C2593 1.363 1_455 S
C2592 H2595 0.929 . S
C2593 C2592 1.363 1_655 S
C2593 C2599 1.428 . S
H2594 C2590 0.930 . S
H2595 C2592 0.929 . S
S2596 N2597 1.613 . S
S2596 N2598 1.610 . S
N2597 S2596 1.613 . S
N2597 C2600 1.350 . S
N2598 S2596 1.610 . S
N2598 C2599 1.351 . S
C2599 C2593 1.428 . S
C2599 N2598 1.351 . S
C2599 C2600 1.434 . S
C2600 C2591 1.429 1_655 S
C2600 N2597 1.350 . S
C2600 C2599 1.434 . S
C2601 C2602 1.369 . S
C2601 C2603 1.419 1_565 S
C2601 H2605 0.930 . S
C2602 C2601 1.369 . S
C2602 C2611 1.429 . S
C2603 C2601 1.419 1_545 S
C2603 C2604 1.363 . S
C2603 H2606 0.929 . S
C2604 C2603 1.363 . S
C2604 C2610 1.428 . S
H2605 C2601 0.930 . S
H2606 C2603 0.929 . S
S2607 N2608 1.613 1_545 S
S2607 N2609 1.610 . S
N2608 S2607 1.613 1_565 S
N2608 C2611 1.350 . S
N2609 S2607 1.610 . S
N2609 C2610 1.351 . S
C2610 C2604 1.428 . S
C2610 N2609 1.351 . S
C2610 C2611 1.434 1_545 S
C2611 C2602 1.429 . S
C2611 N2608 1.350 . S
C2611 C2610 1.434 1_565 S
C2612 C2613 1.369 . S
C2612 C2614 1.419 . S
C2612 H2616 0.930 . S
C2613 C2612 1.369 . S
C2613 C2622 1.429 . S
C2614 C2612 1.419 . S
C2614 C2615 1.363 . S
C2614 H2617 0.929 . S
C2615 C2614 1.363 . S
C2615 C2621 1.428 . S
H2616 C2612 0.930 . S
H2617 C2614 0.929 . S
S2618 N2619 1.613 . S
S2618 N2620 1.610 . S
N2619 S2618 1.613 . S
N2619 C2622 1.350 . S
N2620 S2618 1.610 . S
N2620 C2621 1.351 . S
C2621 C2615 1.428 . S
C2621 N2620 1.351 . S
C2621 C2622 1.434 . S
C2622 C2613 1.429 . S
C2622 N2619 1.350 . S
C2622 C2621 1.434 . S
C2623 C2624 1.369 . S
C2623 C2625 1.419 1_545 S
C2623 H2627 0.930 . S
C2624 C2623 1.369 . S
C2624 C2633 1.429 . S
C2625 C2623 1.419 1_565 S
C2625 C2626 1.363 . S
C2625 H2628 0.929 . S
C2626 C2625 1.363 . S
C2626 C2632 1.455 . S
H2627 C2623 0.930 . S
H2628 C2625 0.929 . S
S2629 N2630 1.613 . S
S2629 N2631 1.610 . S
N2630 S2629 1.613 . S
N2630 C2633 1.350 . S
N2631 S2629 1.610 . S
N2631 C2632 1.348 1_545 S
C2632 C2626 1.455 . S
C2632 N2631 1.348 1_565 S
C2632 C2633 1.407 1_565 S
C2633 C2624 1.429 . S
C2633 N2630 1.350 . S
C2633 C2632 1.407 1_545 S
C2634 C2635 1.369 . S
C2634 C2636 1.419 1_556 S
C2634 H2638 0.930 . S
C2635 C2634 1.369 . S
C2635 C2644 1.429 . S
C2636 C2634 1.419 1_554 S
C2636 C2637 1.363 . S
C2636 H2639 0.929 . S
C2637 C2636 1.363 . S
C2637 C2643 1.428 . S
H2638 C2634 0.930 . S
H2639 C2636 0.929 . S
S2640 N2641 1.613 1_565 S
S2640 N2642 1.610 1_566 S
N2641 S2640 1.613 1_545 S
N2641 C2644 1.350 . S
N2642 S2640 1.610 1_544 S
N2642 C2643 1.351 . S
C2643 C2637 1.428 . S
C2643 N2642 1.351 . S
C2643 C2644 1.434 1_554 S
C2644 C2635 1.429 . S
C2644 N2641 1.350 . S
C2644 C2643 1.434 1_556 S
C2645 C2646 1.371 1_554 S
C2645 C2647 1.417 . S
C2645 H2649 0.928 . S
C2646 C2645 1.371 1_556 S
C2646 C2655 1.429 . S
C2647 C2645 1.417 . S
C2647 C2648 1.363 . S
C2647 H2650 0.929 . S
C2648 C2647 1.363 . S
C2648 C2654 1.386 1_554 S
H2649 C2645 0.928 . S
H2650 C2647 0.929 . S
S2651 N2652 1.613 . S
S2651 N2653 1.610 . S
N2652 S2651 1.613 . S
N2652 C2655 1.350 . S
N2653 S2651 1.610 . S
N2653 C2654 1.360 . S
C2654 C2648 1.386 1_556 S
C2654 N2653 1.360 . S
C2654 C2655 1.475 . S
C2655 C2646 1.429 . S
C2655 N2652 1.350 . S
C2655 C2654 1.475 . S
C2656 C2657 1.369 . S
C2656 C2658 1.378 1_556 S
C2656 H2660 0.930 . S
C2657 C2656 1.369 . S
C2657 C2666 1.439 . S
C2658 C2656 1.378 1_554 S
C2658 C2659 1.405 . S
C2658 H2661 0.929 . S
C2659 C2658 1.405 . S
C2659 C2665 1.428 . S
H2660 C2656 0.930 . S
H2661 C2658 0.929 . S
S2662 N2663 1.613 . S
S2662 N2664 1.610 . S
N2663 S2662 1.613 . S
N2663 C2666 1.349 1_554 S
N2664 S2662 1.610 . S
N2664 C2665 1.351 . S
C2665 C2659 1.428 . S
C2665 N2664 1.351 . S
C2665 C2666 1.424 1_554 S
C2666 C2657 1.439 . S
C2666 N2663 1.349 1_556 S
C2666 C2665 1.424 1_556 S
C2667 C2668 1.369 . S
C2667 C2669 1.419 . S
C2667 H2671 0.930 . S
C2668 C2667 1.369 . S
C2668 C2677 1.429 . S
C2669 C2667 1.419 . S
C2669 C2670 1.363 . S
C2669 H2672 0.929 . S
C2670 C2669 1.363 . S
C2670 C2676 1.428 . S
H2671 C2667 0.930 . S
H2672 C2669 0.929 . S
S2673 N2674 1.613 . S
S2673 N2675 1.610 . S
N2674 S2673 1.613 . S
N2674 C2677 1.350 . S
N2675 S2673 1.610 . S
N2675 C2676 1.351 . S
C2676 C2670 1.428 . S
C2676 N2675 1.351 . S
C2676 C2677 1.434 . S
C2677 C2668 1.429 . S
C2677 N2674 1.350 . S
C2677 C2676 1.434 . S
C2678 C2679 1.369 . S
C2678 C2680 1.419 . S
C2678 H2682 0.930 . S
C2679 C2678 1.369 . S
C2679 C2688 1.429 . S
C2680 C2678 1.419 . S
C2680 C2681 1.363 . S
C2680 H2683 0.929 . S
C2681 C2680 1.363 . S
C2681 C2687 1.428 . S
H2682 C2678 0.930 . S
H2683 C2680 0.929 . S
S2684 N2685 1.613 . S
S2684 N2686 1.610 . S
N2685 S2684 1.613 . S
N2685 C2688 1.350 . S
N2686 S2684 1.610 . S
N2686 C2687 1.351 . S
C2687 C2681 1.428 . S
C2687 N2686 1.351 . S
C2687 C2688 1.434 . S
C2688 C2679 1.429 . S
C2688 N2685 1.350 . S
C2688 C2687 1.434 . S
C2689 C2690 1.369 . S
C2689 C2691 1.419 . S
C2689 H2693 0.930 . S
C2690 C2689 1.369 . S
C2690 C2699 1.429 1_545 S
C2691 C2689 1.419 . S
C2691 C2692 1.363 1_545 S
C2691 H2694 0.929 . S
C2692 C2691 1.363 1_565 S
C2692 C2698 1.428 . S
H2693 C2689 0.930 . S
H2694 C2691 0.929 . S
S2695 N2696 1.613 . S
S2695 N2697 1.610 . S
N2696 S2695 1.613 . S
N2696 C2699 1.350 . S
N2697 S2695 1.610 . S
N2697 C2698 1.351 . S
C2698 C2692 1.428 . S
C2698 N2697 1.351 . S
C2698 C2699 1.434 . S
C2699 C2690 1.429 1_565 S
C2699 N2696 1.350 . S
C2699 C2698 1.434 . S
C2700 C2701 1.369 . S
C2700 C2702 1.419 . S
C2700 H2704 0.930 . S
C2701 C2700 1.369 . S
C2701 C2710 1.429 . S
C2702 C2700 1.419 . S
C2702 C2703 1.363 . S
C2702 H2705 0.929 . S
C2703 C2702 1.363 . S
C2703 C2709 1.428 . S
H2704 C2700 0.930 . S
H2705 C2702 0.929 . S
S2706 N2707 1.613 . S
S2706 N2708 1.610 . S
N2707 S2706 1.613 . S
N2707 C2710 1.350 . S
N2708 S2706 1.610 . S
N2708 C2709 1.351 . S
C2709 C2703 1.428 . S
C2709 N2708 1.351 . S
C2709 C2710 1.434 . S
C2710 C2701 1.429 . S
C2710 N2707 1.350 . S
C2710 C2709 1.434 . S
C2711 C2712 1.369 . S
C2711 C2713 1.419 . S
C2711 H2715 0.930 . S
C2712 C2711 1.369 . S
C2712 C2721 1.429 . S
C2713 C2711 1.419 . S
C2713 C2714 1.363 . S
C2713 H2716 0.929 . S
C2714 C2713 1.363 . S
C2714 C2720 1.428 . S
H2715 C2711 0.930 . S
H2716 C2713 0.929 . S
S2717 N2718 1.613 . S
S2717 N2719 1.610 . S
N2718 S2717 1.613 . S
N2718 C2721 1.350 . S
N2719 S2717 1.610 . S
N2719 C2720 1.351 . S
C2720 C2714 1.428 . S
C2720 N2719 1.351 . S
C2720 C2721 1.434 . S
C2721 C2712 1.429 . S
C2721 N2718 1.350 . S
C2721 C2720 1.434 . S
C2722 C2723 1.369 . S
C2722 C2724 1.419 . S
C2722 H2726 0.930 . S
C2723 C2722 1.369 . S
C2723 C2732 1.429 . S
C2724 C2722 1.419 . S
C2724 C2725 1.363 . S
C2724 H2727 0.929 . S
C2725 C2724 1.363 . S
C2725 C2731 1.428 . S
H2726 C2722 0.930 . S
H2727 C2724 0.929 . S
S2728 N2729 1.613 . S
S2728 N2730 1.610 . S
N2729 S2728 1.613 . S
N2729 C2732 1.350 . S
N2730 S2728 1.610 . S
N2730 C2731 1.351 . S
C2731 C2725 1.428 . S
C2731 N2730 1.351 . S
C2731 C2732 1.434 . S
C2732 C2723 1.429 . S
C2732 N2729 1.350 . S
C2732 C2731 1.434 . S
C2733 C2734 1.369 1_556 S
C2733 C2735 1.419 . S
C2733 H2737 0.930 . S
C2734 C2733 1.369 1_554 S
C2734 C2743 1.429 . S
C2735 C2733 1.419 . S
C2735 C2736 1.363 . S
C2735 H2738 0.929 . S
C2736 C2735 1.363 . S
C2736 C2742 1.428 1_556 S
H2737 C2733 0.930 . S
H2738 C2735 0.929 . S
S2739 N2740 1.613 . S
S2739 N2741 1.610 . S
N2740 S2739 1.613 . S
N2740 C2743 1.350 . S
N2741 S2739 1.610 . S
N2741 C2742 1.351 . S
C2742 C2736 1.428 1_554 S
C2742 N2741 1.351 . S
C2742 C2743 1.434 . S
C2743 C2734 1.429 . S
C2743 N2740 1.350 . S
C2743 C2742 1.434 . S
C2744 C2745 1.369 . S
C2744 C2746 1.419 . S
C2744 H2748 0.930 . S
C2745 C2744 1.369 . S
C2745 C2754 1.429 . S
C2746 C2744 1.419 . S
C2746 C2747 1.363 . S
C2746 H2749 0.929 . S
C2747 C2746 1.363 . S
C2747 C2753 1.428 . S
H2748 C2744 0.930 . S
H2749 C2746 0.929 . S
S2750 N2751 1.613 . S
S2750 N2752 1.610 . S
N2751 S2750 1.613 . S
N2751 C2754 1.350 . S
N2752 S2750 1.610 . S
N2752 C2753 1.351 . S
C2753 C2747 1.428 . S
C2753 N2752 1.351 . S
C2753 C2754 1.434 . S
C2754 C2745 1.429 . S
C2754 N2751 1.350 . S
C2754 C2753 1.434 . S
C2755 C2756 1.369 . S
C2755 C2757 1.419 . S
C2755 H2759 0.930 . S
C2756 C2755 1.369 . S
C2756 C2765 1.429 . S
C2757 C2755 1.419 . S
C2757 C2758 1.363 . S
C2757 H2760 0.929 . S
C2758 C2757 1.363 . S
C2758 C2764 1.428 . S
H2759 C2755 0.930 . S
H2760 C2757 0.929 . S
S2761 N2762 1.613 . S
S2761 N2763 1.610 . S
N2762 S2761 1.613 . S
N2762 C2765 1.350 . S
N2763 S2761 1.610 . S
N2763 C2764 1.351 . S
C2764 C2758 1.428 . S
C2764 N2763 1.351 . S
C2764 C2765 1.434 . S
C2765 C2756 1.429 . S
C2765 N2762 1.350 . S
C2765 C2764 1.434 . S
C2766 C2767 1.369 . S
C2766 C2768 1.419 . S
C2766 H2770 0.930 . S
C2767 C2766 1.369 . S
C2767 C2776 1.429 1_565 S
C2768 C2766 1.419 . S
C2768 C2769 1.363 1_565 S
C2768 H2771 0.929 . S
C2769 C2768 1.363 1_545 S
C2769 C2775 1.428 . S
H2770 C2766 0.930 . S
H2771 C2768 0.929 . S
S2772 N2773 1.613 . S
S2772 N2774 1.610 . S
N2773 S2772 1.613 . S
N2773 C2776 1.350 . S
N2774 S2772 1.610 . S
N2774 C2775 1.351 . S
C2775 C2769 1.428 . S
C2775 N2774 1.351 . S
C2775 C2776 1.434 . S
C2776 C2767 1.429 1_545 S
C2776 N2773 1.350 . S
C2776 C2775 1.434 . S
C2777 C2778 1.369 . S
C2777 C2779 1.419 . S
C2777 H2781 0.930 . S
C2778 C2777 1.369 . S
C2778 C2787 1.429 . S
C2779 C2777 1.419 . S
C2779 C2780 1.363 . S
C2779 H2782 0.929 . S
C2780 C2779 1.363 . S
C2780 C2786 1.428 . S
H2781 C2777 0.930 . S
H2782 C2779 0.929 . S
S2783 N2784 1.613 . S
S2783 N2785 1.610 . S
N2784 S2783 1.613 . S
N2784 C2787 1.350 . S
N2785 S2783 1.610 . S
N2785 C2786 1.351 . S
C2786 C2780 1.428 . S
C2786 N2785 1.351 . S
C2786 C2787 1.434 . S
C2787 C2778 1.429 . S
C2787 N2784 1.350 . S
C2787 C2786 1.434 . S
C2788 C2789 1.369 . S
C2788 C2790 1.419 . S
C2788 H2792 0.930 . S
C2789 C2788 1.369 . S
C2789 C2798 1.429 1_556 S
C2790 C2788 1.419 . S
C2790 C2791 1.363 1_556 S
C2790 H2793 0.929 . S
C2791 C2790 1.363 1_554 S
C2791 C2797 1.428 . S
H2792 C2788 0.930 . S
H2793 C2790 0.929 . S
S2794 N2795 1.613 . S
S2794 N2796 1.610 . S
N2795 S2794 1.613 . S
N2795 C2798 1.350 . S
N2796 S2794 1.610 . S
N2796 C2797 1.351 . S
C2797 C2791 1.428 . S
C2797 N2796 1.351 . S
C2797 C2798 1.434 . S
C2798 C2789 1.429 1_554 S
C2798 N2795 1.350 . S
C2798 C2797 1.434 . S
C2799 C2800 1.369 . S
C2799 C2801 1.419 . S
C2799 H2803 0.930 . S
C2800 C2799 1.369 . S
C2800 C2809 1.429 . S
C2801 C2799 1.419 . S
C2801 C2802 1.363 . S
C2801 H2804 0.929 . S
C2802 C2801 1.363 . S
C2802 C2808 1.428 . S
H2803 C2799 0.930 . S
H2804 C2801 0.929 . S
S2805 N2806 1.613 . S
S2805 N2807 1.610 . S
N2806 S2805 1.613 . S
N2806 C2809 1.350 . S
N2807 S2805 1.610 . S
N2807 C2808 1.351 . S
C2808 C2802 1.428 . S
C2808 N2807 1.351 . S
C2808 C2809 1.434 . S
C2809 C2800 1.429 . S
C2809 N2806 1.350 . S
C2809 C2808 1.434 . S
C2810 C2811 1.369 . S
C2810 C2812 1.419 . S
C2810 H2814 0.930 . S
C2811 C2810 1.369 . S
C2811 C2820 1.429 . S
C2812 C2810 1.419 . S
C2812 C2813 1.363 . S
C2812 H2815 0.929 . S
C2813 C2812 1.363 . S
C2813 C2819 1.428 . S
H2814 C2810 0.930 . S
H2815 C2812 0.929 . S
S2816 N2817 1.613 . S
S2816 N2818 1.610 . S
N2817 S2816 1.613 . S
N2817 C2820 1.350 . S
N2818 S2816 1.610 . S
N2818 C2819 1.351 . S
C2819 C2813 1.428 . S
C2819 N2818 1.351 . S
C2819 C2820 1.434 . S
C2820 C2811 1.429 . S
C2820 N2817 1.350 . S
C2820 C2819 1.434 . S
C2821 C2822 1.369 1_565 S
C2821 C2823 1.419 . S
C2821 H2825 0.930 . S
C2822 C2821 1.369 1_545 S
C2822 C2831 1.429 . S
C2823 C2821 1.419 . S
C2823 C2824 1.363 . S
C2823 H2826 0.929 . S
C2824 C2823 1.363 . S
C2824 C2830 1.428 1_565 S
H2825 C2821 0.930 . S
H2826 C2823 0.929 . S
S2827 N2828 1.613 . S
S2827 N2829 1.610 . S
N2828 S2827 1.613 . S
N2828 C2831 1.350 . S
N2829 S2827 1.610 . S
N2829 C2830 1.351 . S
C2830 C2824 1.428 1_545 S
C2830 N2829 1.351 . S
C2830 C2831 1.434 . S
C2831 C2822 1.429 . S
C2831 N2828 1.350 . S
C2831 C2830 1.434 . S
C2832 C2833 1.369 . S
C2832 C2834 1.419 . S
C2832 H2836 0.930 . S
C2833 C2832 1.369 . S
C2833 C2842 1.429 . S
C2834 C2832 1.419 . S
C2834 C2835 1.363 . S
C2834 H2837 0.929 . S
C2835 C2834 1.363 . S
C2835 C2841 1.428 . S
H2836 C2832 0.930 . S
H2837 C2834 0.929 . S
S2838 N2839 1.613 . S
S2838 N2840 1.610 . S
N2839 S2838 1.613 . S
N2839 C2842 1.350 . S
N2840 S2838 1.610 . S
N2840 C2841 1.351 . S
C2841 C2835 1.428 . S
C2841 N2840 1.351 . S
C2841 C2842 1.434 . S
C2842 C2833 1.429 . S
C2842 N2839 1.350 . S
C2842 C2841 1.434 . S
C2843 C2844 1.369 . S
C2843 C2845 1.419 . S
C2843 H2847 0.930 . S
C2844 C2843 1.369 . S
C2844 C2853 1.429 . S
C2845 C2843 1.419 . S
C2845 C2846 1.363 . S
C2845 H2848 0.929 . S
C2846 C2845 1.363 . S
C2846 C2852 1.428 . S
H2847 C2843 0.930 . S
H2848 C2845 0.929 . S
S2849 N2850 1.613 . S
S2849 N2851 1.610 . S
N2850 S2849 1.613 . S
N2850 C2853 1.350 . S
N2851 S2849 1.610 . S
N2851 C2852 1.351 . S
C2852 C2846 1.428 . S
C2852 N2851 1.351 . S
C2852 C2853 1.434 . S
C2853 C2844 1.429 . S
C2853 N2850 1.350 . S
C2853 C2852 1.434 . S
C2854 C2855 1.369 . S
C2854 C2856 1.419 . S
C2854 H2858 0.930 . S
C2855 C2854 1.369 . S
C2855 C2864 1.429 . S
C2856 C2854 1.419 . S
C2856 C2857 1.363 . S
C2856 H2859 0.929 . S
C2857 C2856 1.363 . S
C2857 C2863 1.428 . S
H2858 C2854 0.930 . S
H2859 C2856 0.929 . S
S2860 N2861 1.613 . S
S2860 N2862 1.610 . S
N2861 S2860 1.613 . S
N2861 C2864 1.350 . S
N2862 S2860 1.610 . S
N2862 C2863 1.351 . S
C2863 C2857 1.428 . S
C2863 N2862 1.351 . S
C2863 C2864 1.434 . S
C2864 C2855 1.429 . S
C2864 N2861 1.350 . S
C2864 C2863 1.434 . S
C2865 C2866 1.369 . S
C2865 C2867 1.419 . S
C2865 H2869 0.930 . S
C2866 C2865 1.369 . S
C2866 C2875 1.429 . S
C2867 C2865 1.419 . S
C2867 C2868 1.363 . S
C2867 H2870 0.929 . S
C2868 C2867 1.363 . S
C2868 C2874 1.428 . S
H2869 C2865 0.930 . S
H2870 C2867 0.929 . S
S2871 N2872 1.613 . S
S2871 N2873 1.610 . S
N2872 S2871 1.613 . S
N2872 C2875 1.350 . S
N2873 S2871 1.610 . S
N2873 C2874 1.351 . S
C2874 C2868 1.428 . S
C2874 N2873 1.351 . S
C2874 C2875 1.434 . S
C2875 C2866 1.429 . S
C2875 N2872 1.350 . S
C2875 C2874 1.434 . S
C2876 C2877 1.369 . S
C2876 C2878 1.419 . S
C2876 H2880 0.930 . S
C2877 C2876 1.369 . S
C2877 C2886 1.429 . S
C2878 C2876 1.419 . S
C2878 C2879 1.363 . S
C2878 H2881 0.929 . S
C2879 C2878 1.363 . S
C2879 C2885 1.428 . S
H2880 C2876 0.930 . S
H2881 C2878 0.929 . S
S2882 N2883 1.613 . S
S2882 N2884 1.610 . S
N2883 S2882 1.613 . S
N2883 C2886 1.350 . S
N2884 S2882 1.610 . S
N2884 C2885 1.351 . S
C2885 C2879 1.428 . S
C2885 N2884 1.351 . S
C2885 C2886 1.434 . S
C2886 C2877 1.429 . S
C2886 N2883 1.350 . S
C2886 C2885 1.434 . S
C2887 C2888 1.369 . S
C2887 C2889 1.419 . S
C2887 H2891 0.930 . S
C2888 C2887 1.369 . S
C2888 C2897 1.429 . S
C2889 C2887 1.419 . S
C2889 C2890 1.363 . S
C2889 H2892 0.929 . S
C2890 C2889 1.363 . S
C2890 C2896 1.428 . S
H2891 C2887 0.930 . S
H2892 C2889 0.929 . S
S2893 N2894 1.613 . S
S2893 N2895 1.610 . S
N2894 S2893 1.613 . S
N2894 C2897 1.350 . S
N2895 S2893 1.610 . S
N2895 C2896 1.351 . S
C2896 C2890 1.428 . S
C2896 N2895 1.351 . S
C2896 C2897 1.434 . S
C2897 C2888 1.429 . S
C2897 N2894 1.350 . S
C2897 C2896 1.434 . S
C2898 C2899 1.369 . S
C2898 C2900 1.419 . S
C2898 H2902 0.930 . S
C2899 C2898 1.369 . S
C2899 C2908 1.429 . S
C2900 C2898 1.419 . S
C2900 C2901 1.363 . S
C2900 H2903 0.929 . S
C2901 C2900 1.363 . S
C2901 C2907 1.428 . S
H2902 C2898 0.930 . S
H2903 C2900 0.929 . S
S2904 N2905 1.613 . S
S2904 N2906 1.610 . S
N2905 S2904 1.613 . S
N2905 C2908 1.350 . S
N2906 S2904 1.610 . S
N2906 C2907 1.351 . S
C2907 C2901 1.428 . S
C2907 N2906 1.351 . S
C2907 C2908 1.434 . S
C2908 C2899 1.429 . S
C2908 N2905 1.350 . S
C2908 C2907 1.434 . S
C2909 C2910 1.369 . S
C2909 C2911 1.419 . S
C2909 H2913 0.930 . S
C2910 C2909 1.369 . S
C2910 C2919 1.429 . S
C2911 C2909 1.419 . S
C2911 C2912 1.363 . S
C2911 H2914 0.929 . S
C2912 C2911 1.363 . S
C2912 C2918 1.428 . S
H2913 C2909 0.930 . S
H2914 C2911 0.929 . S
S2915 N2916 1.613 . S
S2915 N2917 1.610 . S
N2916 S2915 1.613 . S
N2916 C2919 1.350 . S
N2917 S2915 1.610 . S
N2917 C2918 1.351 . S
C2918 C2912 1.428 . S
C2918 N2917 1.351 . S
C2918 C2919 1.434 . S
C2919 C2910 1.429 . S
C2919 N2916 1.350 . S
C2919 C2918 1.434 . S
C2920 C2921 1.369 . S
C2920 C2922 1.419 . S
C2920 H2924 0.930 . S
C2921 C2920 1.369 . S
C2921 C2930 1.429 . S
C2922 C2920 1.419 . S
C2922 C2923 1.363 . S
C2922 H2925 0.929 . S
C2923 C2922 1.363 . S
C2923 C2929 1.428 . S
H2924 C2920 0.930 . S
H2925 C2922 0.929 . S
S2926 N2927 1.613 . S
S2926 N2928 1.610 . S
N2927 S2926 1.613 . S
N2927 C2930 1.350 . S
N2928 S2926 1.610 . S
N2928 C2929 1.351 . S
C2929 C2923 1.428 . S
C2929 N2928 1.351 . S
C2929 C2930 1.434 . S
C2930 C2921 1.429 . S
C2930 N2927 1.350 . S
C2930 C2929 1.434 . S
C2931 C2932 1.369 . S
C2931 C2933 1.419 . S
C2931 H2935 0.930 . S
C2932 C2931 1.369 . S
C2932 C2941 1.429 . S
C2933 C2931 1.419 . S
C2933 C2934 1.363 . S
C2933 H2936 0.929 . S
C2934 C2933 1.363 . S
C2934 C2940 1.428 . S
H2935 C2931 0.930 . S
H2936 C2933 0.929 . S
S2937 N2938 1.613 . S
S2937 N2939 1.610 . S
N2938 S2937 1.613 . S
N2938 C2941 1.350 . S
N2939 S2937 1.610 . S
N2939 C2940 1.351 . S
C2940 C2934 1.428 . S
C2940 N2939 1.351 . S
C2940 C2941 1.434 . S
C2941 C2932 1.429 . S
C2941 N2938 1.350 . S
C2941 C2940 1.434 . S
C2942 C2943 1.369 . S
C2942 C2944 1.419 . S
C2942 H2946 0.930 . S
C2943 C2942 1.369 . S
C2943 C2952 1.429 . S
C2944 C2942 1.419 . S
C2944 C2945 1.363 . S
C2944 H2947 0.929 . S
C2945 C2944 1.363 . S
C2945 C2951 1.428 . S
H2946 C2942 0.930 . S
H2947 C2944 0.929 . S
S2948 N2949 1.613 . S
S2948 N2950 1.610 . S
N2949 S2948 1.613 . S
N2949 C2952 1.350 . S
N2950 S2948 1.610 . S
N2950 C2951 1.351 . S
C2951 C2945 1.428 . S
C2951 N2950 1.351 . S
C2951 C2952 1.434 . S
C2952 C2943 1.429 . S
C2952 N2949 1.350 . S
C2952 C2951 1.434 . S
C2953 C2954 1.369 . S
C2953 C2955 1.419 . S
C2953 H2957 0.930 . S
C2954 C2953 1.369 . S
C2954 C2963 1.429 . S
C2955 C2953 1.419 . S
C2955 C2956 1.363 . S
C2955 H2958 0.929 . S
C2956 C2955 1.363 . S
C2956 C2962 1.428 . S
H2957 C2953 0.930 . S
H2958 C2955 0.929 . S
S2959 N2960 1.613 . S
S2959 N2961 1.610 . S
N2960 S2959 1.613 . S
N2960 C2963 1.350 . S
N2961 S2959 1.610 . S
N2961 C2962 1.351 . S
C2962 C2956 1.428 . S
C2962 N2961 1.351 . S
C2962 C2963 1.434 . S
C2963 C2954 1.429 . S
C2963 N2960 1.350 . S
C2963 C2962 1.434 . S
C2964 C2965 1.369 . S
C2964 C2966 1.419 . S
C2964 H2968 0.930 . S
C2965 C2964 1.369 . S
C2965 C2974 1.429 . S
C2966 C2964 1.419 . S
C2966 C2967 1.363 . S
C2966 H2969 0.929 . S
C2967 C2966 1.363 . S
C2967 C2973 1.428 . S
H2968 C2964 0.930 . S
H2969 C2966 0.929 . S
S2970 N2971 1.613 . S
S2970 N2972 1.610 . S
N2971 S2970 1.613 . S
N2971 C2974 1.350 . S
N2972 S2970 1.610 . S
N2972 C2973 1.351 . S
C2973 C2967 1.428 . S
C2973 N2972 1.351 . S
C2973 C2974 1.434 . S
C2974 C2965 1.429 . S
C2974 N2971 1.350 . S
C2974 C2973 1.434 . S
C2975 C2976 1.369 . S
C2975 C2977 1.419 . S
C2975 H2979 0.930 . S
C2976 C2975 1.369 . S
C2976 C2985 1.429 . S
C2977 C2975 1.419 . S
C2977 C2978 1.363 . S
C2977 H2980 0.929 . S
C2978 C2977 1.363 . S
C2978 C2984 1.428 . S
H2979 C2975 0.930 . S
H2980 C2977 0.929 . S
S2981 N2982 1.613 . S
S2981 N2983 1.610 . S
N2982 S2981 1.613 . S
N2982 C2985 1.350 . S
N2983 S2981 1.610 . S
N2983 C2984 1.351 . S
C2984 C2978 1.428 . S
C2984 N2983 1.351 . S
C2984 C2985 1.434 . S
C2985 C2976 1.429 . S
C2985 N2982 1.350 . S
C2985 C2984 1.434 . S
C2986 C2987 1.369 . S
C2986 C2988 1.419 . S
C2986 H2990 0.930 . S
C2987 C2986 1.369 . S
C2987 C2996 1.429 . S
C2988 C2986 1.419 . S
C2988 C2989 1.363 . S
C2988 H2991 0.929 . S
C2989 C2988 1.363 . S
C2989 C2995 1.428 . S
H2990 C2986 0.930 . S
H2991 C2988 0.929 . S
S2992 N2993 1.613 . S
S2992 N2994 1.610 . S
N2993 S2992 1.613 . S
N2993 C2996 1.350 . S
N2994 S2992 1.610 . S
N2994 C2995 1.351 . S
C2995 C2989 1.428 . S
C2995 N2994 1.351 . S
C2995 C2996 1.434 . S
C2996 C2987 1.429 . S
C2996 N2993 1.350 . S
C2996 C2995 1.434 . S
C2997 C2998 1.369 . S
C2997 C2999 1.419 . S
C2997 H3001 0.930 . S
C2998 C2997 1.369 . S
C2998 C3007 1.429 . S
C2999 C2997 1.419 . S
C2999 C3000 1.363 . S
C2999 H3002 0.929 . S
C3000 C2999 1.363 . S
C3000 C3006 1.428 . S
H3001 C2997 0.930 . S
H3002 C2999 0.929 . S
S3003 N3004 1.613 . S
S3003 N3005 1.610 . S
N3004 S3003 1.613 . S
N3004 C3007 1.350 . S
N3005 S3003 1.610 . S
N3005 C3006 1.351 . S
C3006 C3000 1.428 . S
C3006 N3005 1.351 . S
C3006 C3007 1.434 . S
C3007 C2998 1.429 . S
C3007 N3004 1.350 . S
C3007 C3006 1.434 . S
C3008 C3009 1.369 . S
C3008 C3010 1.419 . S
C3008 H3012 0.930 . S
C3009 C3008 1.369 . S
C3009 C3018 1.429 . S
C3010 C3008 1.419 . S
C3010 C3011 1.363 . S
C3010 H3013 0.929 . S
C3011 C3010 1.363 . S
C3011 C3017 1.428 . S
H3012 C3008 0.930 . S
H3013 C3010 0.929 . S
S3014 N3015 1.613 . S
S3014 N3016 1.610 . S
N3015 S3014 1.613 . S
N3015 C3018 1.350 . S
N3016 S3014 1.610 . S
N3016 C3017 1.351 . S
C3017 C3011 1.428 . S
C3017 N3016 1.351 . S
C3017 C3018 1.434 . S
C3018 C3009 1.429 . S
C3018 N3015 1.350 . S
C3018 C3017 1.434 . S
C3019 C3020 1.369 . S
C3019 C3021 1.419 . S
C3019 H3023 0.930 . S
C3020 C3019 1.369 . S
C3020 C3029 1.429 . S
C3021 C3019 1.419 . S
C3021 C3022 1.363 . S
C3021 H3024 0.929 . S
C3022 C3021 1.363 . S
C3022 C3028 1.428 . S
H3023 C3019 0.930 . S
H3024 C3021 0.929 . S
S3025 N3026 1.613 . S
S3025 N3027 1.610 . S
N3026 S3025 1.613 . S
N3026 C3029 1.350 . S
N3027 S3025 1.610 . S
N3027 C3028 1.351 . S
C3028 C3022 1.428 . S
C3028 N3027 1.351 . S
C3028 C3029 1.434 . S
C3029 C3020 1.429 . S
C3029 N3026 1.350 . S
C3029 C3028 1.434 . S
C3030 C3031 1.369 . S
C3030 C3032 1.419 . S
C3030 H3034 0.930 . S
C3031 C3030 1.369 . S
C3031 C3040 1.429 . S
C3032 C3030 1.419 . S
C3032 C3033 1.363 . S
C3032 H3035 0.929 . S
C3033 C3032 1.363 . S
C3033 C3039 1.428 . S
H3034 C3030 0.930 . S
H3035 C3032 0.929 . S
S3036 N3037 1.613 . S
S3036 N3038 1.610 . S
N3037 S3036 1.613 . S
N3037 C3040 1.350 . S
N3038 S3036 1.610 . S
N3038 C3039 1.351 . S
C3039 C3033 1.428 . S
C3039 N3038 1.351 . S
C3039 C3040 1.434 . S
C3040 C3031 1.429 . S
C3040 N3037 1.350 . S
C3040 C3039 1.434 . S
C3041 C3042 1.369 . S
C3041 C3043 1.419 . S
C3041 H3045 0.930 . S
C3042 C3041 1.369 . S
C3042 C3051 1.429 . S
C3043 C3041 1.419 . S
C3043 C3044 1.363 . S
C3043 H3046 0.929 . S
C3044 C3043 1.363 . S
C3044 C3050 1.428 . S
H3045 C3041 0.930 . S
H3046 C3043 0.929 . S
S3047 N3048 1.613 . S
S3047 N3049 1.610 . S
N3048 S3047 1.613 . S
N3048 C3051 1.350 . S
N3049 S3047 1.610 . S
N3049 C3050 1.351 . S
C3050 C3044 1.428 . S
C3050 N3049 1.351 . S
C3050 C3051 1.434 . S
C3051 C3042 1.429 . S
C3051 N3048 1.350 . S
C3051 C3050 1.434 . S
C3052 C3053 1.369 . S
C3052 C3054 1.419 . S
C3052 H3056 0.930 . S
C3053 C3052 1.369 . S
C3053 C3062 1.429 . S
C3054 C3052 1.419 . S
C3054 C3055 1.363 . S
C3054 H3057 0.929 . S
C3055 C3054 1.363 . S
C3055 C3061 1.428 . S
H3056 C3052 0.930 . S
H3057 C3054 0.929 . S
S3058 N3059 1.613 . S
S3058 N3060 1.610 . S
N3059 S3058 1.613 . S
N3059 C3062 1.350 . S
N3060 S3058 1.610 . S
N3060 C3061 1.351 . S
C3061 C3055 1.428 . S
C3061 N3060 1.351 . S
C3061 C3062 1.434 . S
C3062 C3053 1.429 . S
C3062 N3059 1.350 . S
C3062 C3061 1.434 . S
C3063 C3064 1.369 . S
C3063 C3065 1.419 . S
C3063 H3067 0.930 . S
C3064 C3063 1.369 . S
C3064 C3073 1.429 . S
C3065 C3063 1.419 . S
C3065 C3066 1.363 . S
C3065 H3068 0.929 . S
C3066 C3065 1.363 . S
C3066 C3072 1.428 . S
H3067 C3063 0.930 . S
H3068 C3065 0.929 . S
S3069 N3070 1.613 . S
S3069 N3071 1.610 . S
N3070 S3069 1.613 . S
N3070 C3073 1.350 . S
N3071 S3069 1.610 . S
N3071 C3072 1.351 . S
C3072 C3066 1.428 . S
C3072 N3071 1.351 . S
C3072 C3073 1.434 . S
C3073 C3064 1.429 . S
C3073 N3070 1.350 . S
C3073 C3072 1.434 . S
C3074 C3075 1.369 . S
C3074 C3076 1.419 . S
C3074 H3078 0.930 . S
C3075 C3074 1.369 . S
C3075 C3084 1.429 . S
C3076 C3074 1.419 . S
C3076 C3077 1.363 . S
C3076 H3079 0.929 . S
C3077 C3076 1.363 . S
C3077 C3083 1.428 . S
H3078 C3074 0.930 . S
H3079 C3076 0.929 . S
S3080 N3081 1.613 . S
S3080 N3082 1.610 . S
N3081 S3080 1.613 . S
N3081 C3084 1.350 . S
N3082 S3080 1.610 . S
N3082 C3083 1.351 . S
C3083 C3077 1.428 . S
C3083 N3082 1.351 . S
C3083 C3084 1.434 . S
C3084 C3075 1.429 . S
C3084 N3081 1.350 . S
C3084 C3083 1.434 . S
C3085 C3086 1.369 . S
C3085 C3087 1.419 . S
C3085 H3089 0.930 . S
C3086 C3085 1.369 . S
C3086 C3095 1.429 . S
C3087 C3085 1.419 . S
C3087 C3088 1.363 . S
C3087 H3090 0.929 . S
C3088 C3087 1.363 . S
C3088 C3094 1.428 . S
H3089 C3085 0.930 . S
H3090 C3087 0.929 . S
S3091 N3092 1.613 . S
S3091 N3093 1.610 . S
N3092 S3091 1.613 . S
N3092 C3095 1.350 . S
N3093 S3091 1.610 . S
N3093 C3094 1.351 . S
C3094 C3088 1.428 . S
C3094 N3093 1.351 . S
C3094 C3095 1.434 . S
C3095 C3086 1.429 . S
C3095 N3092 1.350 . S
C3095 C3094 1.434 . S
C3096 C3097 1.369 . S
C3096 C3098 1.419 . S
C3096 H3100 0.930 . S
C3097 C3096 1.369 . S
C3097 C3106 1.429 . S
C3098 C3096 1.419 . S
C3098 C3099 1.363 . S
C3098 H3101 0.929 . S
C3099 C3098 1.363 . S
C3099 C3105 1.428 . S
H3100 C3096 0.930 . S
H3101 C3098 0.929 . S
S3102 N3103 1.613 . S
S3102 N3104 1.610 . S
N3103 S3102 1.613 . S
N3103 C3106 1.350 . S
N3104 S3102 1.610 . S
N3104 C3105 1.351 . S
C3105 C3099 1.428 . S
C3105 N3104 1.351 . S
C3105 C3106 1.434 . S
C3106 C3097 1.429 . S
C3106 N3103 1.350 . S
C3106 C3105 1.434 . S
C3107 C3108 1.369 . S
C3107 C3109 1.419 . S
C3107 H3111 0.930 . S
C3108 C3107 1.369 . S
C3108 C3117 1.429 . S
C3109 C3107 1.419 . S
C3109 C3110 1.363 . S
C3109 H3112 0.929 . S
C3110 C3109 1.363 . S
C3110 C3116 1.428 . S
H3111 C3107 0.930 . S
H3112 C3109 0.929 . S
S3113 N3114 1.613 . S
S3113 N3115 1.610 . S
N3114 S3113 1.613 . S
N3114 C3117 1.350 . S
N3115 S3113 1.610 . S
N3115 C3116 1.351 . S
C3116 C3110 1.428 . S
C3116 N3115 1.351 . S
C3116 C3117 1.434 . S
C3117 C3108 1.429 . S
C3117 N3114 1.350 . S
C3117 C3116 1.434 . S
C3118 C3119 1.369 . S
C3118 C3120 1.419 . S
C3118 H3122 0.930 . S
C3119 C3118 1.369 . S
C3119 C3128 1.429 . S
C3120 C3118 1.419 . S
C3120 C3121 1.363 . S
C3120 H3123 0.929 . S
C3121 C3120 1.363 . S
C3121 C3127 1.428 . S
H3122 C3118 0.930 . S
H3123 C3120 0.929 . S
S3124 N3125 1.613 . S
S3124 N3126 1.610 . S
N3125 S3124 1.613 . S
N3125 C3128 1.350 . S
N3126 S3124 1.610 . S
N3126 C3127 1.351 . S
C3127 C3121 1.428 . S
C3127 N3126 1.351 . S
C3127 C3128 1.434 . S
C3128 C3119 1.429 . S
C3128 N3125 1.350 . S
C3128 C3127 1.434 . S
C3129 C3130 1.369 . S
C3129 C3131 1.419 . S
C3129 H3133 0.930 . S
C3130 C3129 1.369 . S
C3130 C3139 1.429 . S
C3131 C3129 1.419 . S
C3131 C3132 1.363 . S
C3131 H3134 0.929 . S
C3132 C3131 1.363 . S
C3132 C3138 1.428 . S
H3133 C3129 0.930 . S
H3134 C3131 0.929 . S
S3135 N3136 1.613 . S
S3135 N3137 1.610 . S
N3136 S3135 1.613 . S
N3136 C3139 1.350 . S
N3137 S3135 1.610 . S
N3137 C3138 1.351 . S
C3138 C3132 1.428 . S
C3138 N3137 1.351 . S
C3138 C3139 1.434 . S
C3139 C3130 1.429 . S
C3139 N3136 1.350 . S
C3139 C3138 1.434 . S
C3140 C3141 1.369 . S
C3140 C3142 1.419 . S
C3140 H3144 0.930 . S
C3141 C3140 1.369 . S
C3141 C3150 1.429 . S
C3142 C3140 1.419 . S
C3142 C3143 1.363 . S
C3142 H3145 0.929 . S
C3143 C3142 1.363 . S
C3143 C3149 1.428 . S
H3144 C3140 0.930 . S
H3145 C3142 0.929 . S
S3146 N3147 1.613 . S
S3146 N3148 1.610 . S
N3147 S3146 1.613 . S
N3147 C3150 1.350 . S
N3148 S3146 1.610 . S
N3148 C3149 1.351 . S
C3149 C3143 1.428 . S
C3149 N3148 1.351 . S
C3149 C3150 1.434 . S
C3150 C3141 1.429 . S
C3150 N3147 1.350 . S
C3150 C3149 1.434 . S
C3151 C3152 1.369 . S
C3151 C3153 1.419 . S
C3151 H3155 0.930 . S
C3152 C3151 1.369 . S
C3152 C3161 1.429 . S
C3153 C3151 1.419 . S
C3153 C3154 1.363 . S
C3153 H3156 0.929 . S
C3154 C3153 1.363 . S
C3154 C3160 1.428 . S
H3155 C3151 0.930 . S
H3156 C3153 0.929 . S
S3157 N3158 1.613 . S
S3157 N3159 1.610 . S
N3158 S3157 1.613 . S
N3158 C3161 1.350 . S
N3159 S3157 1.610 . S
N3159 C3160 1.351 . S
C3160 C3154 1.428 . S
C3160 N3159 1.351 . S
C3160 C3161 1.434 . S
C3161 C3152 1.429 . S
C3161 N3158 1.350 . S
C3161 C3160 1.434 . S
C3162 C3163 1.369 . S
C3162 C3164 1.419 . S
C3162 H3166 0.930 . S
C3163 C3162 1.369 . S
C3163 C3172 1.429 . S
C3164 C3162 1.419 . S
C3164 C3165 1.363 . S
C3164 H3167 0.929 . S
C3165 C3164 1.363 . S
C3165 C3171 1.428 . S
H3166 C3162 0.930 . S
H3167 C3164 0.929 . S
S3168 N3169 1.613 . S
S3168 N3170 1.610 . S
N3169 S3168 1.613 . S
N3169 C3172 1.350 . S
N3170 S3168 1.610 . S
N3170 C3171 1.351 . S
C3171 C3165 1.428 . S
C3171 N3170 1.351 . S
C3171 C3172 1.434 . S
C3172 C3163 1.429 . S
C3172 N3169 1.350 . S
C3172 C3171 1.434 . S
C3173 C3174 1.369 . S
C3173 C3175 1.419 . S
C3173 H3177 0.930 . S
C3174 C3173 1.369 . S
C3174 C3183 1.429 . S
C3175 C3173 1.419 . S
C3175 C3176 1.363 . S
C3175 H3178 0.929 . S
C3176 C3175 1.363 . S
C3176 C3182 1.428 . S
H3177 C3173 0.930 . S
H3178 C3175 0.929 . S
S3179 N3180 1.613 . S
S3179 N3181 1.610 . S
N3180 S3179 1.613 . S
N3180 C3183 1.350 . S
N3181 S3179 1.610 . S
N3181 C3182 1.351 . S
C3182 C3176 1.428 . S
C3182 N3181 1.351 . S
C3182 C3183 1.434 . S
C3183 C3174 1.429 . S
C3183 N3180 1.350 . S
C3183 C3182 1.434 . S
C3184 C3185 1.369 . S
C3184 C3186 1.419 . S
C3184 H3188 0.930 . S
C3185 C3184 1.369 . S
C3185 C3194 1.429 . S
C3186 C3184 1.419 . S
C3186 C3187 1.363 . S
C3186 H3189 0.929 . S
C3187 C3186 1.363 . S
C3187 C3193 1.428 . S
H3188 C3184 0.930 . S
H3189 C3186 0.929 . S
S3190 N3191 1.613 . S
S3190 N3192 1.610 . S
N3191 S3190 1.613 . S
N3191 C3194 1.350 . S
N3192 S3190 1.610 . S
N3192 C3193 1.351 . S
C3193 C3187 1.428 . S
C3193 N3192 1.351 . S
C3193 C3194 1.434 . S
C3194 C3185 1.429 . S
C3194 N3191 1.350 . S
C3194 C3193 1.434 . S
C3195 C3196 1.369 . S
C3195 C3197 1.419 . S
C3195 H3199 0.930 . S
C3196 C3195 1.369 . S
C3196 C3205 1.429 . S
C3197 C3195 1.419 . S
C3197 C3198 1.363 . S
C3197 H3200 0.929 . S
C3198 C3197 1.363 . S
C3198 C3204 1.428 . S
H3199 C3195 0.930 . S
H3200 C3197 0.929 . S
S3201 N3202 1.613 . S
S3201 N3203 1.610 . S
N3202 S3201 1.613 . S
N3202 C3205 1.350 . S
N3203 S3201 1.610 . S
N3203 C3204 1.351 . S
C3204 C3198 1.428 . S
C3204 N3203 1.351 . S
C3204 C3205 1.434 . S
C3205 C3196 1.429 . S
C3205 N3202 1.350 . S
C3205 C3204 1.434 . S
C3206 C3207 1.369 . S
C3206 C3208 1.419 . S
C3206 H3210 0.930 . S
C3207 C3206 1.369 . S
C3207 C3216 1.429 . S
C3208 C3206 1.419 . S
C3208 C3209 1.363 . S
C3208 H3211 0.929 . S
C3209 C3208 1.363 . S
C3209 C3215 1.428 . S
H3210 C3206 0.930 . S
H3211 C3208 0.929 . S
S3212 N3213 1.613 . S
S3212 N3214 1.610 . S
N3213 S3212 1.613 . S
N3213 C3216 1.350 . S
N3214 S3212 1.610 . S
N3214 C3215 1.351 . S
C3215 C3209 1.428 . S
C3215 N3214 1.351 . S
C3215 C3216 1.434 . S
C3216 C3207 1.429 . S
C3216 N3213 1.350 . S
C3216 C3215 1.434 . S
C3217 C3218 1.369 . S
C3217 C3219 1.419 . S
C3217 H3221 0.930 . S
C3218 C3217 1.369 . S
C3218 C3227 1.429 . S
C3219 C3217 1.419 . S
C3219 C3220 1.363 . S
C3219 H3222 0.929 . S
C3220 C3219 1.363 . S
C3220 C3226 1.428 . S
H3221 C3217 0.930 . S
H3222 C3219 0.929 . S
S3223 N3224 1.613 . S
S3223 N3225 1.610 . S
N3224 S3223 1.613 . S
N3224 C3227 1.350 . S
N3225 S3223 1.610 . S
N3225 C3226 1.351 . S
C3226 C3220 1.428 . S
C3226 N3225 1.351 . S
C3226 C3227 1.434 . S
C3227 C3218 1.429 . S
C3227 N3224 1.350 . S
C3227 C3226 1.434 . S
C3228 C3229 1.369 . S
C3228 C3230 1.419 . S
C3228 H3232 0.930 . S
C3229 C3228 1.369 . S
C3229 C3238 1.429 . S
C3230 C3228 1.419 . S
C3230 C3231 1.363 . S
C3230 H3233 0.929 . S
C3231 C3230 1.363 . S
C3231 C3237 1.428 . S
H3232 C3228 0.930 . S
H3233 C3230 0.929 . S
S3234 N3235 1.613 . S
S3234 N3236 1.610 . S
N3235 S3234 1.613 . S
N3235 C3238 1.350 . S
N3236 S3234 1.610 . S
N3236 C3237 1.351 . S
C3237 C3231 1.428 . S
C3237 N3236 1.351 . S
C3237 C3238 1.434 . S
C3238 C3229 1.429 . S
C3238 N3235 1.350 . S
C3238 C3237 1.434 . S
C3239 C3240 1.369 . S
C3239 C3241 1.419 . S
C3239 H3243 0.930 . S
C3240 C3239 1.369 . S
C3240 C3249 1.429 . S
C3241 C3239 1.419 . S
C3241 C3242 1.363 . S
C3241 H3244 0.929 . S
C3242 C3241 1.363 . S
C3242 C3248 1.428 . S
H3243 C3239 0.930 . S
H3244 C3241 0.929 . S
S3245 N3246 1.613 . S
S3245 N3247 1.610 . S
N3246 S3245 1.613 . S
N3246 C3249 1.350 . S
N3247 S3245 1.610 . S
N3247 C3248 1.351 . S
C3248 C3242 1.428 . S
C3248 N3247 1.351 . S
C3248 C3249 1.434 . S
C3249 C3240 1.429 . S
C3249 N3246 1.350 . S
C3249 C3248 1.434 . S
C3250 C3251 1.369 . S
C3250 C3252 1.419 . S
C3250 H3254 0.930 . S
C3251 C3250 1.369 . S
C3251 C3260 1.429 . S
C3252 C3250 1.419 . S
C3252 C3253 1.363 . S
C3252 H3255 0.929 . S
C3253 C3252 1.363 . S
C3253 C3259 1.428 . S
H3254 C3250 0.930 . S
H3255 C3252 0.929 . S
S3256 N3257 1.613 . S
S3256 N3258 1.610 . S
N3257 S3256 1.613 . S
N3257 C3260 1.350 . S
N3258 S3256 1.610 . S
N3258 C3259 1.351 . S
C3259 C3253 1.428 . S
C3259 N3258 1.351 . S
C3259 C3260 1.434 . S
C3260 C3251 1.429 . S
C3260 N3257 1.350 . S
C3260 C3259 1.434 . S
C3261 C3262 1.369 . S
C3261 C3263 1.419 . S
C3261 H3265 0.930 . S
C3262 C3261 1.369 . S
C3262 C3271 1.429 . S
C3263 C3261 1.419 . S
C3263 C3264 1.363 . S
C3263 H3266 0.929 . S
C3264 C3263 1.363 . S
C3264 C3270 1.428 . S
H3265 C3261 0.930 . S
H3266 C3263 0.929 . S
S3267 N3268 1.613 . S
S3267 N3269 1.610 . S
N3268 S3267 1.613 . S
N3268 C3271 1.350 . S
N3269 S3267 1.610 . S
N3269 C3270 1.351 . S
C3270 C3264 1.428 . S
C3270 N3269 1.351 . S
C3270 C3271 1.434 . S
C3271 C3262 1.429 . S
C3271 N3268 1.350 . S
C3271 C3270 1.434 . S
C3272 C3273 1.369 . S
C3272 C3274 1.419 . S
C3272 H3276 0.930 . S
C3273 C3272 1.369 . S
C3273 C3282 1.429 . S
C3274 C3272 1.419 . S
C3274 C3275 1.363 . S
C3274 H3277 0.929 . S
C3275 C3274 1.363 . S
C3275 C3281 1.428 . S
H3276 C3272 0.930 . S
H3277 C3274 0.929 . S
S3278 N3279 1.613 . S
S3278 N3280 1.610 . S
N3279 S3278 1.613 . S
N3279 C3282 1.350 . S
N3280 S3278 1.610 . S
N3280 C3281 1.351 . S
C3281 C3275 1.428 . S
C3281 N3280 1.351 . S
C3281 C3282 1.434 . S
C3282 C3273 1.429 . S
C3282 N3279 1.350 . S
C3282 C3281 1.434 . S
C3283 C3284 1.369 . S
C3283 C3285 1.419 . S
C3283 H3287 0.930 . S
C3284 C3283 1.369 . S
C3284 C3293 1.429 . S
C3285 C3283 1.419 . S
C3285 C3286 1.363 . S
C3285 H3288 0.929 . S
C3286 C3285 1.363 . S
C3286 C3292 1.428 . S
H3287 C3283 0.930 . S
H3288 C3285 0.929 . S
S3289 N3290 1.613 . S
S3289 N3291 1.610 . S
N3290 S3289 1.613 . S
N3290 C3293 1.350 . S
N3291 S3289 1.610 . S
N3291 C3292 1.351 . S
C3292 C3286 1.428 . S
C3292 N3291 1.351 . S
C3292 C3293 1.434 . S
C3293 C3284 1.429 . S
C3293 N3290 1.350 . S
C3293 C3292 1.434 . S
C3294 C3295 1.369 . S
C3294 C3296 1.419 . S
C3294 H3298 0.930 . S
C3295 C3294 1.369 . S
C3295 C3304 1.429 . S
C3296 C3294 1.419 . S
C3296 C3297 1.363 . S
C3296 H3299 0.929 . S
C3297 C3296 1.363 . S
C3297 C3303 1.428 . S
H3298 C3294 0.930 . S
H3299 C3296 0.929 . S
S3300 N3301 1.613 . S
S3300 N3302 1.610 . S
N3301 S3300 1.613 . S
N3301 C3304 1.350 . S
N3302 S3300 1.610 . S
N3302 C3303 1.351 . S
C3303 C3297 1.428 . S
C3303 N3302 1.351 . S
C3303 C3304 1.434 . S
C3304 C3295 1.429 . S
C3304 N3301 1.350 . S
C3304 C3303 1.434 . S
C3305 C3306 1.369 . S
C3305 C3307 1.419 . S
C3305 H3309 0.930 . S
C3306 C3305 1.369 . S
C3306 C3315 1.429 . S
C3307 C3305 1.419 . S
C3307 C3308 1.363 . S
C3307 H3310 0.929 . S
C3308 C3307 1.363 . S
C3308 C3314 1.428 . S
H3309 C3305 0.930 . S
H3310 C3307 0.929 . S
S3311 N3312 1.613 . S
S3311 N3313 1.610 . S
N3312 S3311 1.613 . S
N3312 C3315 1.350 . S
N3313 S3311 1.610 . S
N3313 C3314 1.351 . S
C3314 C3308 1.428 . S
C3314 N3313 1.351 . S
C3314 C3315 1.434 . S
C3315 C3306 1.429 . S
C3315 N3312 1.350 . S
C3315 C3314 1.434 . S
C3316 C3317 1.369 . S
C3316 C3318 1.419 . S
C3316 H3320 0.930 . S
C3317 C3316 1.369 . S
C3317 C3326 1.429 . S
C3318 C3316 1.419 . S
C3318 C3319 1.363 . S
C3318 H3321 0.929 . S
C3319 C3318 1.363 . S
C3319 C3325 1.428 . S
H3320 C3316 0.930 . S
H3321 C3318 0.929 . S
S3322 N3323 1.613 . S
S3322 N3324 1.610 . S
N3323 S3322 1.613 . S
N3323 C3326 1.350 . S
N3324 S3322 1.610 . S
N3324 C3325 1.351 . S
C3325 C3319 1.428 . S
C3325 N3324 1.351 . S
C3325 C3326 1.434 . S
C3326 C3317 1.429 . S
C3326 N3323 1.350 . S
C3326 C3325 1.434 . S
C3327 C3328 1.369 . S
C3327 C3329 1.419 . S
C3327 H3331 0.930 . S
C3328 C3327 1.369 . S
C3328 C3337 1.429 . S
C3329 C3327 1.419 . S
C3329 C3330 1.363 . S
C3329 H3332 0.929 . S
C3330 C3329 1.363 . S
C3330 C3336 1.428 . S
H3331 C3327 0.930 . S
H3332 C3329 0.929 . S
S3333 N3334 1.613 . S
S3333 N3335 1.610 . S
N3334 S3333 1.613 . S
N3334 C3337 1.350 . S
N3335 S3333 1.610 . S
N3335 C3336 1.351 . S
C3336 C3330 1.428 . S
C3336 N3335 1.351 . S
C3336 C3337 1.434 . S
C3337 C3328 1.429 . S
C3337 N3334 1.350 . S
C3337 C3336 1.434 . S
C3338 C3339 1.369 . S
C3338 C3340 1.419 . S
C3338 H3342 0.930 . S
C3339 C3338 1.369 . S
C3339 C3348 1.429 . S
C3340 C3338 1.419 . S
C3340 C3341 1.363 . S
C3340 H3343 0.929 . S
C3341 C3340 1.363 . S
C3341 C3347 1.428 . S
H3342 C3338 0.930 . S
H3343 C3340 0.929 . S
S3344 N3345 1.613 . S
S3344 N3346 1.610 . S
N3345 S3344 1.613 . S
N3345 C3348 1.350 . S
N3346 S3344 1.610 . S
N3346 C3347 1.351 . S
C3347 C3341 1.428 . S
C3347 N3346 1.351 . S
C3347 C3348 1.434 . S
C3348 C3339 1.429 . S
C3348 N3345 1.350 . S
C3348 C3347 1.434 . S
C3349 C3350 1.369 . S
C3349 C3351 1.419 . S
C3349 H3353 0.930 . S
C3350 C3349 1.369 . S
C3350 C3359 1.429 . S
C3351 C3349 1.419 . S
C3351 C3352 1.363 . S
C3351 H3354 0.929 . S
C3352 C3351 1.363 . S
C3352 C3358 1.428 . S
H3353 C3349 0.930 . S
H3354 C3351 0.929 . S
S3355 N3356 1.613 . S
S3355 N3357 1.610 . S
N3356 S3355 1.613 . S
N3356 C3359 1.350 . S
N3357 S3355 1.610 . S
N3357 C3358 1.351 . S
C3358 C3352 1.428 . S
C3358 N3357 1.351 . S
C3358 C3359 1.434 . S
C3359 C3350 1.429 . S
C3359 N3356 1.350 . S
C3359 C3358 1.434 . S
C1249 C335 1.033 . S
C1251 C10 0.905 . S
C1260 C23 0.889 . S
C1262 C972 1.037 . S
C1271 C361 1.030 . S
C1273 C36 0.894 . S
C1282 C946 1.034 . S
C1284 C49 0.907 . S
C1293 C413 1.039 . S
C1295 C62 0.898 . S
C1304 C998 1.033 . S
C1306 C75 0.887 . S
C1315 C387 1.038 . S
C1317 C88 0.894 . S
C1326 C101 0.909 . S
C1328 C1024 1.033 . S
C1337 C1232 1.031 . S
C1339 C114 0.889 . S
C1348 C1154 1.039 . S
C1350 C127 0.897 . S
C1359 C1245 1.034 . S
C1361 C140 0.907 . S
C1370 C1219 1.031 . S
C1372 C153 0.888 . S
C1381 C166 0.885 . S
C1383 C1180 1.035 . S
C1392 C179 0.886 . S
C1394 C569 1.036 . S
C1403 C582 1.031 . S
C1405 C192 0.901 . S
C1414 C205 0.900 . S
C1416 C543 1.038 . S
C1425 C1115 1.032 . S
C1427 C218 0.888 . S
C1436 C465 1.031 . S
C1438 C231 0.901 . S
C1447 C1050 1.031 . S
C1449 C244 0.888 . S
C1458 C439 1.037 . S
C1460 C257 0.892 . S
C1469 C270 0.904 . S
C1471 C452 1.038 . S
C1480 C1141 1.031 . S
C1482 C283 0.900 . S
C1491 C296 0.887 . S
C1493 C1102 1.036 . S
C1502 C1128 1.031 . S
C1504 C309 0.890 . S
C1513 C21 1.024 . S
C1515 C320 0.881 . S
C1524 C658 1.020 . S
C1526 C333 0.871 . S
C1535 C47 1.023 . S
C1537 C346 0.885 . S
C1546 C359 0.866 . S
C1548 C632 1.017 . S
C1557 C99 1.024 . S
C1559 C372 0.881 . S
C1568 C385 0.874 . S
C1570 C684 1.018 . S
C1579 C73 1.023 . S
C1581 C398 0.886 . S
C1590 C411 0.875 . S
C1592 C710 1.018 . S
C1601 C918 1.017 . S
C1603 C424 0.865 . S
C1612 C437 0.866 . S
C1614 C840 1.017 . S
C1623 C450 0.887 . S
C1625 C931 1.023 . S
C1634 C905 1.023 . S
C1636 C463 0.879 . S
C1645 C866 1.023 . S
C1647 C476 0.886 . S
C1656 C489 0.889 . S
C1658 C255 1.022 . S
C1667 C268 1.020 . S
C1669 C502 0.871 . S
C1678 C229 1.017 . S
C1680 C515 0.864 . S
C1689 C801 1.017 . S
C1691 C528 0.865 . S
C1700 C151 1.018 . S
C1702 C541 0.875 . S
C1711 C736 1.017 . S
C1713 C554 0.865 . S
C1722 C567 0.878 . S
C1724 C125 1.022 . S
C1733 C580 0.861 . S
C1735 C138 1.018 . S
C1744 C827 1.020 . S
C1746 C593 0.881 . S
C1755 C788 1.024 . S
C1757 C606 0.886 . S
C1766 C814 1.024 . S
C1768 C619 0.885 . S
C1777 C959 1.031 . S
C1779 C634 0.903 . S
C1788 C647 0.886 . S
C1790 C348 1.036 . S
C1799 C660 0.891 . S
C1801 C985 1.037 . S
C1810 C673 0.900 . S
C1812 C322 1.038 . S
C1821 C686 0.902 . S
C1823 C1037 1.032 . S
C1832 C374 1.033 . S
C1834 C699 0.907 . S
C1843 C712 0.902 . S
C1845 C1011 1.038 . S
C1854 C400 1.035 . S
C1856 C725 0.908 . S
C1865 C738 0.905 . S
C1867 C608 1.038 . S
C1876 C530 1.031 . S
C1878 C751 0.890 . S
C1887 C621 1.038 . S
C1889 C764 0.896 . S
C1898 C777 0.894 . S
C1900 C595 1.031 . S
C1909 C556 1.032 . S
C1911 C790 0.888 . S
C1920 C1193 1.033 . S
C1922 C803 0.887 . S
C1931 C1206 1.030 . S
C1933 C816 0.894 . S
C1942 C1167 1.030 . S
C1944 C829 0.892 . S
C1953 C491 1.035 . S
C1955 C842 0.888 . S
C1964 C1089 1.031 . S
C1966 C855 0.902 . S
C1975 C868 0.888 . S
C1977 C426 1.032 . S
C1986 C881 0.884 . S
C1988 C1063 1.034 . S
C1997 C1076 1.037 . S
C1999 C894 0.892 . S
C2008 C907 0.885 . S
C2010 C517 1.035 . S
C2019 C478 1.030 . S
C2021 C920 0.897 . S
C2030 C504 1.032 . S
C2032 C933 0.887 . S
C2041 C944 0.884 . S
C2043 C645 1.020 . S
C2052 C34 1.022 . S
C2054 C957 0.884 . S
C2063 C970 0.889 . S
C2065 C671 1.023 . S
C2074 C8 1.023 . S
C2076 C983 0.879 . S
C2085 C996 0.878 . S
C2087 C723 1.019 . S
C2096 C1009 0.883 . S
C2098 C60 1.023 . S
C2107 C1022 0.885 . S
C2109 C697 1.021 . S
C2118 C86 1.024 . S
C2120 C1035 0.884 . S
C2129 C1048 0.864 . S
C2131 C294 1.018 . S
C2140 C216 1.019 . S
C2142 C1061 0.879 . S
C2151 C1074 0.887 . S
C2153 C307 1.023 . S
C2162 C281 1.016 . S
C2164 C1087 0.870 . S
C2173 C1100 0.886 . S
C2175 C242 1.021 . S
C2184 C1113 0.889 . S
C2186 C879 1.023 . S
C2195 C1126 0.862 . S
C2197 C892 1.018 . S
C2206 C1139 0.873 . S
C2208 C853 1.021 . S
C2217 C1152 0.878 . S
C2219 C177 1.022 . S
C2228 C775 1.024 . S
C2230 C1165 0.885 . S
C2239 C1178 0.886 . S
C2241 C112 1.023 . S
C2250 C749 1.016 . S
C2252 C1191 0.864 . S
C2261 C1204 0.886 . S
C2263 C762 1.021 . S
C2272 C203 1.019 . S
C2274 C1217 0.868 . S
C2283 C1230 0.877 . S
C2285 C164 1.022 . S
C2294 C1243 0.881 . S
C2296 C190 1.022 . S
C2305 C655 0.791 . S
C2307 C5 0.790 . S
C2316 C668 0.793 . S
C2318 C18 0.792 . S
C2327 C629 0.788 . S
C2329 C31 0.791 . S
C2338 C642 0.784 . S
C2340 C44 0.788 . S
C2349 C57 0.797 . S
C2351 C707 0.798 . S
C2360 C720 0.783 . S
C2362 C70 0.787 . S
C2371 C83 0.786 . S
C2373 C681 0.789 . S
C2382 C694 0.783 . S
C2384 C96 0.785 . S
C2393 C109 0.791 . S
C2395 C161 0.790 . S
C2404 C174 0.800 . S
C2406 C122 0.800 . S
C2415 C135 0.806 . S
C2417 C187 0.802 . S
C2426 C200 0.790 . S
C2428 C148 0.793 . S
C2437 C213 0.785 . S
C2439 C876 0.786 . S
C2448 C902 0.797 . S
C2450 C226 0.795 . S
C2459 C239 0.790 . S
C2461 C291 0.793 . S
C2470 C837 0.782 . S
C2472 C252 0.785 . S
C2481 C265 0.802 . S
C2483 C928 0.799 . S
C2492 C850 0.801 . S
C2494 C278 0.801 . S
C2503 C304 0.799 . S
C2505 C889 0.797 . S
C2514 C967 0.945 . S
C2516 C317 0.943 . S
C2525 C330 0.938 . S
C2527 C980 0.941 . S
C2536 C941 0.941 . S
C2538 C343 0.943 . S
C2547 C356 0.921 . S
C2549 C954 0.927 . S
C2558 C1019 0.935 . S
C2560 C369 0.940 . S
C2569 C1032 0.921 . S
C2571 C382 0.926 . S
C2580 C993 0.930 . S
C2582 C395 0.926 . S
C2591 C408 0.932 . S
C2593 C1006 0.927 . S
C2602 C421 0.944 . S
C2604 C473 0.943 . S
C2613 C486 0.930 . S
C2615 C434 0.937 . S
C2624 C447 0.940 . S
C2626 C499 0.933 . S
C2635 C460 0.946 . S
C2637 C512 0.943 . S
C2646 C525 0.936 . S
C2648 C1188 0.930 . S
C2657 C1214 0.941 . S
C2659 C538 0.943 . S
C2668 C603 0.935 . S
C2670 C551 0.929 . S
C2679 C1149 0.930 . S
C2681 C564 0.936 . S
C2690 C577 0.936 . S
C2692 C1240 0.930 . S
C2701 C590 0.945 . S
C2703 C1162 0.943 . S
C2712 C1201 0.927 . S
C2714 C616 0.925 . S
C2723 C733 0.802 . S
C2725 C785 0.799 . S
C2734 C746 0.788 . S
C2736 C798 0.788 . S
C2745 C759 0.801 . S
C2747 C811 0.798 . S
C2756 C824 0.782 . S
C2758 C772 0.785 . S
C2767 C915 0.804 . S
C2769 C863 0.803 . S
C2778 C1045 0.934 . S
C2780 C1097 0.929 . S
C2789 C1058 0.932 . S
C2791 C1110 0.928 . S
C2800 C1123 0.942 . S
C2802 C1071 0.935 . S
C2811 C1084 0.922 . S
C2813 C1136 0.927 . S
C2822 C1227 0.940 . S
C2824 C1175 0.942 . S
C2833 C0 1.394 . S
C2835 C286 1.385 . S
C2844 C13 1.391 . S
C2846 C832 1.385 . S
C2855 C299 1.387 . S
C2857 C26 1.394 . S
C2866 C39 1.395 . S
C2868 C897 1.389 . S
C2877 C52 1.394 . S
C2879 C234 1.390 . S
C2888 C65 1.386 . S
C2890 C247 1.387 . S
C2899 C78 1.393 . S
C2901 C884 1.391 . S
C2910 C221 1.387 . S
C2912 C91 1.394 . S
C2921 C104 1.384 . S
C2923 C169 1.393 . S
C2932 C117 1.394 . S
C2934 C182 1.391 . S
C2943 C130 1.395 . S
C2945 C195 1.386 . S
C2954 C156 1.392 . S
C2956 C143 1.385 . S
C2965 C637 1.394 . S
C2967 C208 1.385 . S
C2976 C702 1.384 . S
C2978 C260 1.392 . S
C2987 C273 1.390 . S
C2989 C663 1.393 . S
C2998 C312 1.390 . S
C3000 C598 1.406 . S
C3009 C1144 1.391 . S
C3011 C325 1.406 . S
C3020 C338 1.405 . S
C3022 C611 1.396 . S
C3031 C351 1.390 . S
C3033 C1209 1.406 . S
C3042 C364 1.392 . S
C3044 C546 1.405 . S
C3053 C377 1.392 . S
C3055 C559 1.403 . S
C3064 C390 1.391 . S
C3066 C1196 1.404 . S
C3075 C403 1.390 . S
C3077 C533 1.406 . S
C3086 C481 1.392 . S
C3088 C416 1.403 . S
C3097 C429 1.394 . S
C3099 C494 1.404 . S
C3108 C507 1.390 . S
C3110 C442 1.405 . S
C3119 C468 1.408 . S
C3121 C455 1.392 . S
C3130 C949 1.406 . S
C3132 C520 1.393 . S
C3141 C572 1.406 . S
C3143 C1014 1.395 . S
C3152 C975 1.408 . S
C3154 C585 1.393 . S
C3163 C910 1.392 . S
C3165 C624 1.385 . S
C3174 C923 1.392 . S
C3176 C650 1.392 . S
C3185 C676 1.384 . S
C3187 C858 1.391 . S
C3196 C871 1.394 . S
C3198 C689 1.385 . S
C3207 C715 1.394 . S
C3209 C845 1.385 . S
C3218 C728 1.386 . S
C3220 C793 1.387 . S
C3229 C741 1.392 . S
C3231 C806 1.392 . S
C3240 C754 1.389 . S
C3242 C819 1.393 . S
C3251 C780 1.392 . S
C3253 C767 1.385 . S
C3262 C1222 1.390 . S
C3264 C936 1.406 . S
C3273 C962 1.406 . S
C3275 C1235 1.393 . S
C3284 C1170 1.392 . S
C3286 C988 1.403 . S
C3295 C1001 1.397 . S
C3297 C1183 1.402 . S
C3306 C1157 1.404 . S
C3308 C1027 1.394 . S
C3317 C1105 1.391 . S
C3319 C1040 1.406 . S
C3328 C1053 1.390 . S
C3330 C1118 1.406 . S
C3339 C1066 1.400 . S
C3341 C1131 1.397 . S
C3350 C1079 1.391 . S
C3352 C1092 1.405 . S
