# Generated by pormake.
# Topology acs-f, (3)-cn, num edge types: 1
# Building blocks:
#     Node 0, Type 0, BuildingBlock: WUSLED_clean_sbu_0, # of connection points: 3
#     Node 1, Type 0, BuildingBlock: WUSLED_clean_sbu_0, # of connection points: 3
#     Node 2, Type 0, BuildingBlock: WUSLED_clean_sbu_0, # of connection points: 3
#     Node 3, Type 0, BuildingBlock: WUSLED_clean_sbu_0, # of connection points: 3
#     Node 4, Type 0, BuildingBlock: WUSLED_clean_sbu_0, # of connection points: 3
#     Node 5, Type 0, BuildingBlock: WUSLED_clean_sbu_0, # of connection points: 3
#     Node 6, Type 0, BuildingBlock: WUSLED_clean_sbu_0, # of connection points: 3
#     Node 7, Type 0, BuildingBlock: WUSLED_clean_sbu_0, # of connection points: 3
#     Node 8, Type 0, BuildingBlock: WUSLED_clean_sbu_0, # of connection points: 3
#     Node 9, Type 0, BuildingBlock: WUSLED_clean_sbu_0, # of connection points: 3
#     Node 10, Type 0, BuildingBlock: WUSLED_clean_sbu_0, # of connection points: 3
#     Node 11, Type 0, BuildingBlock: WUSLED_clean_sbu_0, # of connection points: 3
#     Edge 12, Type (0, 0), BuildingBlock: CIFDUS_clean_linker_0, # of connection points: 2
#     Edge 13, Type (0, 0), BuildingBlock: CIFDUS_clean_linker_0, # of connection points: 2
#     Edge 14, Type (0, 0), BuildingBlock: CIFDUS_clean_linker_0, # of connection points: 2
#     Edge 15, Type (0, 0), BuildingBlock: CIFDUS_clean_linker_0, # of connection points: 2
#     Edge 16, Type (0, 0), BuildingBlock: CIFDUS_clean_linker_0, # of connection points: 2
#     Edge 17, Type (0, 0), BuildingBlock: CIFDUS_clean_linker_0, # of connection points: 2
#     Edge 18, Type (0, 0), BuildingBlock: CIFDUS_clean_linker_0, # of connection points: 2
#     Edge 19, Type (0, 0), BuildingBlock: CIFDUS_clean_linker_0, # of connection points: 2
#     Edge 20, Type (0, 0), BuildingBlock: CIFDUS_clean_linker_0, # of connection points: 2
#     Edge 21, Type (0, 0), BuildingBlock: CIFDUS_clean_linker_0, # of connection points: 2
#     Edge 22, Type (0, 0), BuildingBlock: CIFDUS_clean_linker_0, # of connection points: 2
#     Edge 23, Type (0, 0), BuildingBlock: CIFDUS_clean_linker_0, # of connection points: 2
#     Edge 24, Type (0, 0), BuildingBlock: CIFDUS_clean_linker_0, # of connection points: 2
#     Edge 25, Type (0, 0), BuildingBlock: CIFDUS_clean_linker_0, # of connection points: 2
#     Edge 26, Type (0, 0), BuildingBlock: CIFDUS_clean_linker_0, # of connection points: 2
#     Edge 27, Type (0, 0), BuildingBlock: CIFDUS_clean_linker_0, # of connection points: 2
#     Edge 28, Type (0, 0), BuildingBlock: CIFDUS_clean_linker_0, # of connection points: 2
#     Edge 29, Type (0, 0), BuildingBlock: CIFDUS_clean_linker_0, # of connection points: 2
# Relax obj value: 0.268
# Max RMSD: 0.159
# Mean RMSD: 0.148
data_MOF--net-acs-f--node1-WUSLED_clean_sbu_0--edge1-CIFDUS_clean_linker_0
_symmetry_space_group_name_H-M    P1
_symmetry_Int_Tables_number       1
_symmetry_cell_setting            triclinic
loop_
_symmetry_equiv_pos_as_xyz
'x, y, z'
_cell_length_a     48.629123
_cell_length_b     48.632715
_cell_length_c     60.846237
_cell_angle_alpha  89.895765
_cell_angle_beta   89.78579
_cell_angle_gamma 114.76703
loop_
_atom_site_label
_atom_site_type_symbol
_atom_site_fract_x
_atom_site_fract_y
_atom_site_fract_z
_atom_type_partial_charge
C0 C 0.12029 0.36848 0.16024 0.0
C1 C 0.11626 0.38146 0.17987 0.0
C2 C 0.14263 0.35671 0.20023 0.0
C3 C 0.12749 0.37582 0.19961 0.0
C4 C 0.14586 0.34307 0.18055 0.0
C5 C 0.13486 0.34902 0.1607 0.0
U6 U 0.07032 0.3984 0.13161 0.0
O7 O 0.08156 0.43116 0.10455 0.0
O8 O 0.04452 0.3858 0.10067 0.0
C9 C 0.05965 0.41282 0.09196 0.0
C10 C 0.10977 0.3759 0.13939 0.0
C11 C 0.04228 0.42616 0.07934 0.0
C12 C 0.0103 0.42233 0.04779 0.0
C13 C 0.02283 0.40893 0.06269 0.0
C14 C 0.03561 0.47036 0.06638 0.0
C15 C 0.01717 0.45338 0.04912 0.0
C16 C 0.04805 0.45691 0.08135 0.0
C17 C 0.02287 0.41681 0.17879 0.0
C18 C 0.01372 0.45793 0.19491 0.0
C19 C 0.99244 0.40828 0.21198 0.0
C20 C 0.00457 0.39725 0.19516 0.0
C21 C -0.00189 0.43901 0.21252 0.0
C22 C 0.02625 0.44695 0.17818 0.0
C23 C 0.04326 0.40694 0.16648 0.0
O24 O 0.08138 0.35893 0.13446 0.0
O25 O 0.11737 0.40493 0.13635 0.0
O26 O 0.06874 0.42762 0.15853 0.0
O27 O 0.03187 0.38177 0.15502 0.0
H28 H 0.10494 0.39648 0.17986 0.0
H29 H 0.12498 0.38717 0.21427 0.0
H30 H 0.15694 0.32785 0.18044 0.0
H31 H 0.13795 0.33864 0.14571 0.0
H32 H 0.99641 0.40867 0.03458 0.0
H33 H 0.01837 0.38532 0.06057 0.0
H34 H 0.04095 0.49423 0.06802 0.0
H35 H 0.06304 0.47089 0.09395 0.0
H36 H 0.01857 0.4818 0.19514 0.0
H37 H 0.98054 0.39334 0.22542 0.0
H38 H 0.00189 0.374 0.19608 0.0
H39 H 0.04043 0.46255 0.16581 0.0
C40 C 0.62638 0.72895 0.15945 0.0
C41 C 0.61382 0.71582 0.17973 0.0
C42 C 0.63805 0.7649 0.1976 0.0
C43 C 0.6194 0.73363 0.19858 0.0
C44 C 0.65158 0.77767 0.17735 0.0
C45 C 0.64565 0.75985 0.15842 0.0
U46 U 0.59894 0.65243 0.13231 0.0
O47 O 0.56397 0.634 0.10713 0.0
O48 O 0.60993 0.63765 0.1004 0.0
C49 C 0.58212 0.62915 0.09314 0.0
C50 C 0.61828 0.71071 0.13928 0.0
C51 C 0.56881 0.60126 0.08002 0.0
C52 C 0.56221 0.57912 0.0436 0.0
C53 C 0.5782 0.60255 0.0581 0.0
C54 C 0.52812 0.55174 0.07311 0.0
C55 C 0.53644 0.55379 0.05075 0.0
C56 C 0.54413 0.57532 0.08763 0.0
C57 C 0.58781 0.58998 0.17772 0.0
C58 C 0.55522 0.5365 0.18228 0.0
C59 C 0.58958 0.56399 0.21135 0.0
C60 C 0.60036 0.59003 0.19837 0.0
C61 C 0.56611 0.53704 0.20384 0.0
C62 C 0.56577 0.5629 0.16938 0.0
C63 C 0.59561 0.61947 0.16717 0.0
O64 O 0.63645 0.69812 0.1336 0.0
O65 O 0.58949 0.69218 0.1378 0.0
O66 O 0.57319 0.62579 0.16055 0.0
O67 O 0.61966 0.63045 0.15438 0.0
H68 H 0.59898 0.6919 0.1809 0.0
H69 H 0.6082 0.72298 0.21372 0.0
H70 H 0.66651 0.80152 0.17605 0.0
H71 H 0.65572 0.7703 0.14292 0.0
H72 H 0.56913 0.58171 0.0265 0.0
H73 H 0.59698 0.62252 0.05185 0.0
H74 H 0.50871 0.5323 0.07925 0.0
H75 H 0.53645 0.57383 0.10451 0.0
H76 H 0.53769 0.51605 0.17567 0.0
H77 H 0.59838 0.56581 0.22785 0.0
H78 H 0.61732 0.61082 0.20509 0.0
H79 H 0.55589 0.56247 0.15339 0.0
C80 C 0.26482 0.87714 0.16096 0.0
C81 C 0.2778 0.88944 0.18121 0.0
C82 C 0.23286 0.85413 0.20041 0.0
C83 C 0.26197 0.87805 0.20077 0.0
C84 C 0.21973 0.84228 0.18 0.0
C85 C 0.23564 0.85369 0.16042 0.0
U86 U 0.33846 0.92714 0.1339 0.0
O87 O 0.3631 0.91602 0.10766 0.0
O88 O 0.34859 0.9528 0.10275 0.0
C89 C 0.36336 0.93777 0.09466 0.0
C90 C 0.28249 0.88767 0.14063 0.0
C91 C 0.39154 0.95524 0.08224 0.0
C92 C 0.41508 0.98715 0.05057 0.0
C93 C 0.39082 0.97448 0.06525 0.0
C94 C 0.44184 0.96242 0.07005 0.0
C95 C 0.44055 0.98066 0.05247 0.0
C96 C 0.41757 0.94981 0.0848 0.0
C97 C 0.39571 0.97465 0.18083 0.0
C98 C 0.44493 0.9837 0.19602 0.0
C99 C 0.4136 0.00493 0.2138 0.0
C100 C 0.39195 0.9929 0.19734 0.0
C101 C 0.43954 -0.00085 0.21386 0.0
C102 C 0.42303 0.97132 0.17964 0.0
C103 C 0.36841 0.95418 0.16907 0.0
O104 O 0.28969 0.91608 0.13536 0.0
O105 O 0.30534 0.8801 0.13887 0.0
O106 O 0.36755 0.92844 0.16164 0.0
O107 O 0.35335 0.96566 0.15703 0.0
H108 H 0.30047 0.90743 0.18191 0.0
H109 H 0.27292 0.88739 0.21619 0.0
H110 H 0.19721 0.8241 0.17916 0.0
H111 H 0.22535 0.84392 0.1449 0.0
H112 H 0.41323 0.00085 0.03709 0.0
H113 H 0.37085 0.97865 0.06271 0.0
H114 H 0.46135 0.95736 0.07213 0.0
H115 H 0.4188 0.93496 0.09767 0.0
H116 H 0.46469 0.97879 0.19581 0.0
H117 H 0.409 0.0168 0.22737 0.0
H118 H 0.37098 0.99559 0.19867 0.0
H119 H 0.42642 0.95722 0.16713 0.0
C120 C 0.62506 0.86585 0.35228 0.0
C121 C 0.61274 0.86832 0.33196 0.0
C122 C 0.63686 0.83909 0.31441 0.0
C123 C 0.6184 0.85491 0.31326 0.0
C124 C 0.65002 0.83762 0.33472 0.0
C125 C 0.64405 0.8508 0.35351 0.0
U126 U 0.59548 0.91852 0.37819 0.0
O127 O 0.56161 0.90816 0.40441 0.0
O128 O 0.60706 0.94485 0.40899 0.0
C129 C 0.57979 0.92973 0.4173 0.0
C130 C 0.61704 0.87787 0.37224 0.0
C131 C 0.56606 0.94684 0.42957 0.0
C132 C 0.55727 0.96405 0.46523 0.0
C133 C 0.57341 0.95272 0.45181 0.0
C134 C 0.52704 0.96531 0.43402 0.0
C135 C 0.53339 0.96983 0.45665 0.0
C136 C 0.5432 0.95383 0.42057 0.0
C137 C 0.57945 0.96687 0.33152 0.0
C138 C 0.54426 0.98996 0.32638 0.0
C139 C 0.57944 0.99251 0.29732 0.0
C140 C 0.59161 0.97716 0.31066 0.0
C141 C 0.55488 0.99829 0.30465 0.0
C142 C 0.55626 0.97407 0.33966 0.0
C143 C 0.58896 0.94543 0.34253 0.0
O144 O 0.63437 0.90634 0.37674 0.0
O145 O 0.58803 0.87109 0.37435 0.0
O146 O 0.56765 0.92028 0.35037 0.0
O147 O 0.61367 0.95636 0.35447 0.0
H148 H 0.59807 0.87997 0.33067 0.0
H149 H 0.60745 0.85616 0.29806 0.0
H150 H 0.66476 0.8261 0.33615 0.0
H151 H 0.6539 0.84886 0.36906 0.0
H152 H 0.56259 0.96683 0.48258 0.0
H153 H 0.59078 0.94717 0.45908 0.0
H154 H 0.50912 0.97 0.4268 0.0
H155 H 0.53715 0.9494 0.40341 0.0
H156 H 0.52587 0.99459 0.33284 0.0
H157 H 0.58809 0.99791 0.28071 0.0
H158 H 0.60943 0.97164 0.30407 0.0
H159 H 0.54665 0.96636 0.35582 0.0
C160 C 0.12683 0.72936 0.34718 0.0
C161 C 0.11018 0.71787 0.32795 0.0
C162 C 0.14879 0.75764 0.30637 0.0
C163 C 0.12101 0.73193 0.30772 0.0
C164 C 0.16507 0.76942 0.32579 0.0
C165 C 0.15417 0.75534 0.34604 0.0
U166 U 0.07555 0.6585 0.377 0.0
O167 O 0.08663 0.63402 0.40333 0.0
O168 O 0.05228 0.65167 0.40906 0.0
C169 C 0.06686 0.63646 0.4171 0.0
C170 C 0.11684 0.71296 0.36805 0.0
C171 C 0.04937 0.60975 0.43068 0.0
C172 C 0.03284 0.58948 0.46727 0.0
C173 C 0.04625 0.61418 0.45312 0.0
C174 C 0.02453 0.55533 0.43654 0.0
C175 C 0.02227 0.55975 0.45925 0.0
C176 C 0.03806 0.58018 0.42234 0.0
C177 C 0.02274 0.59987 0.33306 0.0
C178 C 0.00185 0.54551 0.32737 0.0
C179 C 0.99558 0.57808 0.29956 0.0
C180 C 0.01054 0.6031 0.31295 0.0
C181 C 0.99213 0.54903 0.30612 0.0
C182 C 0.01741 0.57082 0.34065 0.0
C183 C 0.04512 0.62753 0.34318 0.0
O184 O 0.08915 0.70763 0.3743 0.0
O185 O 0.12293 0.6892 0.36998 0.0
O186 O 0.0706 0.62714 0.34994 0.0
O187 O 0.03561 0.64421 0.3553 0.0
H188 H 0.08907 0.69767 0.32854 0.0
H189 H 0.10775 0.72251 0.29312 0.0
H190 H 0.18673 0.78893 0.32527 0.0
H191 H 0.16744 0.76429 0.36072 0.0
H192 H 0.03096 0.59371 0.48456 0.0
H193 H 0.05491 0.63686 0.45983 0.0
H194 H 0.01674 0.5327 0.42987 0.0
H195 H 0.04037 0.57632 0.40503 0.0
H196 H -0.00112 0.52345 0.33333 0.0
H197 H 0.98894 0.58215 0.28336 0.0
H198 H 0.01463 0.62542 0.30678 0.0
H199 H 0.02662 0.56788 0.35621 0.0
C200 C 0.27623 0.36505 0.34231 0.0
C201 C 0.29173 0.37783 0.32277 0.0
C202 C 0.24478 0.35422 0.30211 0.0
C203 C 0.27614 0.3726 0.30289 0.0
C204 C 0.22962 0.34062 0.3217 0.0
C205 C 0.24522 0.34612 0.34164 0.0
U206 U 0.34851 0.39578 0.37626 0.0
O207 O 0.35796 0.42758 0.40359 0.0
O208 O 0.35891 0.3833 0.40913 0.0
C209 C 0.36371 0.40989 0.4174 0.0
C210 C 0.2918 0.37288 0.36355 0.0
C211 C 0.3909 0.42492 0.43094 0.0
C212 C 0.41254 0.43501 0.46749 0.0
C213 C 0.38899 0.41803 0.45339 0.0
C214 C 0.44101 0.46528 0.43664 0.0
C215 C 0.43857 0.45929 0.4594 0.0
C216 C 0.41735 0.44822 0.42251 0.0
C217 C 0.41426 0.41443 0.3297 0.0
C218 C 0.45926 0.4511 0.31161 0.0
C219 C 0.43084 0.40218 0.29484 0.0
C220 C 0.41091 0.39369 0.31279 0.0
C221 C 0.45474 0.43121 0.29391 0.0
C222 C 0.43896 0.44288 0.32928 0.0
C223 C 0.3905 0.40762 0.34647 0.0
O224 O 0.30557 0.35605 0.36991 0.0
O225 O 0.3081 0.40196 0.36654 0.0
O226 O 0.38062 0.42779 0.35265 0.0
O227 O 0.37802 0.38113 0.35637 0.0
H228 H 0.31572 0.39256 0.323 0.0
H229 H 0.28854 0.38386 0.28827 0.0
H230 H 0.20564 0.32593 0.3217 0.0
H231 H 0.23294 0.33603 0.35659 0.0
H232 H 0.40965 0.42995 0.48491 0.0
H233 H 0.36866 0.40028 0.4602 0.0
H234 H 0.46094 0.4835 0.42983 0.0
H235 H 0.41927 0.45389 0.40517 0.0
H236 H 0.47734 0.47374 0.3111 0.0
H237 H 0.42689 0.38658 0.28129 0.0
H238 H 0.39191 0.37164 0.31282 0.0
H239 H 0.44191 0.45915 0.34222 0.0
C240 C 0.87698 0.63986 0.85155 0.0
C241 C 0.87794 0.62722 0.83102 0.0
C242 C 0.84764 0.65125 0.81505 0.0
C243 C 0.86328 0.63271 0.81298 0.0
C244 C 0.84765 0.6647 0.83554 0.0
C245 C 0.86212 0.65894 0.85365 0.0
U246 U 0.92944 0.60838 0.87551 0.0
O247 O 0.95805 0.62073 0.90515 0.0
O248 O 0.92006 0.57573 0.9025 0.0
C249 C 0.9432 0.5939 0.91421 0.0
C250 C 0.89017 0.63197 0.87092 0.0
C251 C 0.96103 0.58022 0.92586 0.0
C252 C 0.99407 0.58334 0.95658 0.0
C253 C 0.98119 0.59711 0.94228 0.0
C254 C 0.96784 0.53565 0.93775 0.0
C255 C 0.9869 0.55226 0.95486 0.0
C256 C 0.95501 0.54948 0.92338 0.0
C257 C 0.97346 0.58641 0.82913 0.0
C258 C 0.98551 0.54394 0.82039 0.0
C259 C 0.00505 0.58893 0.7975 0.0
C260 C 0.99132 0.60246 0.81127 0.0
C261 C 0.00122 0.55908 0.8014 0.0
C262 C 0.97157 0.55745 0.83414 0.0
C263 C 0.95319 0.59832 0.83933 0.0
O264 O 0.88239 0.60283 0.87347 0.0
O265 O 0.91921 0.64847 0.87403 0.0
O266 O 0.9656 0.62381 0.85033 0.0
O267 O 0.92766 0.57866 0.84797 0.0
H268 H 0.88937 0.61243 0.82909 0.0
H269 H 0.86342 0.62158 0.79761 0.0
H270 H 0.83628 0.67949 0.83764 0.0
H271 H 0.8613 0.669 0.86938 0.0
H272 H 0.00842 0.59674 0.96969 0.0
H273 H 0.98586 0.62072 0.94475 0.0
H274 H 0.96225 0.51177 0.9358 0.0
H275 H 0.93948 0.53578 0.91092 0.0
H276 H 0.98205 0.52082 0.82371 0.0
H277 H 0.01725 0.60118 0.78308 0.0
H278 H 0.99299 0.62478 0.80709 0.0
H279 H 0.95786 0.54458 0.84782 0.0
C280 C 0.35496 0.26087 0.8473 0.0
C281 C 0.35003 0.2725 0.82732 0.0
C282 C 0.34241 0.22545 0.80888 0.0
C283 C 0.34364 0.25489 0.80831 0.0
C284 C 0.3468 0.21375 0.82909 0.0
C285 C 0.35301 0.23134 0.84812 0.0
U286 U 0.38972 0.33913 0.87213 0.0
O287 O 0.37987 0.35698 0.90309 0.0
O288 O 0.42422 0.3558 0.89784 0.0
C289 C 0.40692 0.36312 0.91107 0.0
C290 C 0.36473 0.28022 0.86683 0.0
C291 C 0.42181 0.39103 0.92393 0.0
C292 C 0.42937 0.41411 0.96004 0.0
C293 C 0.41273 0.39056 0.94584 0.0
C294 C 0.46372 0.43997 0.93025 0.0
C295 C 0.45549 0.43884 0.95259 0.0
C296 C 0.44706 0.41619 0.91602 0.0
C297 C 0.41013 0.40148 0.82566 0.0
C298 C 0.43887 0.4561 0.82557 0.0
C299 C 0.42151 0.42927 0.79127 0.0
C300 C 0.40781 0.40212 0.80279 0.0
C301 C 0.4377 0.45666 0.80238 0.0
C302 C 0.42529 0.42861 0.83715 0.0
C303 C 0.39818 0.37164 0.83625 0.0
O304 O 0.39411 0.29627 0.86802 0.0
O305 O 0.34907 0.29588 0.8716 0.0
O306 O 0.37384 0.36381 0.84863 0.0
O307 O 0.4181 0.36229 0.84379 0.0
H308 H 0.35174 0.29542 0.82635 0.0
H309 H 0.34 0.26447 0.79311 0.0
H310 H 0.3465 0.1914 0.83008 0.0
H311 H 0.35714 0.22217 0.86336 0.0
H312 H 0.42252 0.4121 0.97714 0.0
H313 H 0.39351 0.37117 0.9523 0.0
H314 H 0.4834 0.4589 0.92386 0.0
H315 H 0.4545 0.41697 0.89914 0.0
H316 H 0.45083 0.47675 0.83472 0.0
H317 H 0.42062 0.42834 0.7735 0.0
H318 H 0.39631 0.3813 0.79368 0.0
H319 H 0.42725 0.42844 0.85487 0.0
C320 C 0.73819 0.10683 0.84644 0.0
C321 C 0.72585 0.09208 0.82668 0.0
C322 C 0.76575 0.13189 0.80595 0.0
C323 C 0.7396 0.1044 0.80662 0.0
C324 C 0.77835 0.14622 0.82587 0.0
C325 C 0.76466 0.13377 0.84595 0.0
U326 U 0.66482 0.06234 0.87627 0.0
O327 O 0.65442 0.03368 0.90598 0.0
O328 O 0.64669 0.07514 0.90564 0.0
C329 C 0.644 0.05085 0.91667 0.0
C330 C 0.72199 0.09584 0.86732 0.0
C331 C 0.61608 0.03525 0.92972 0.0
C332 C 0.59214 0.00424 0.96164 0.0
C333 C 0.6164 0.01617 0.94692 0.0
C334 C 0.56626 0.02963 0.94185 0.0
C335 C 0.56702 0.01128 0.95954 0.0
C336 C 0.59056 0.04151 0.92704 0.0
C337 C 0.59736 0.02602 0.83404 0.0
C338 C 0.5525 0.02983 0.81971 0.0
C339 C 0.56586 0.98989 0.8069 0.0
C340 C 0.59067 6e-05 0.82113 0.0
C341 C 0.54761 0.00573 0.80532 0.0
C342 C 0.57708 0.03983 0.83406 0.0
C343 C 0.62845 0.04236 0.84253 0.0
O344 O 0.70252 0.1072 0.87211 0.0
O345 O 0.71117 0.06646 0.87074 0.0
O346 O 0.6418 0.02669 0.85173 0.0
O347 O 0.63554 0.069 0.85158 0.0
H348 H 0.70519 0.0714 0.82672 0.0
H349 H 0.72952 0.09257 0.79163 0.0
H350 H 0.79818 0.16763 0.82596 0.0
H351 H 0.77423 0.14565 0.86104 0.0
H352 H 0.59363 0.99049 0.97521 0.0
H353 H 0.63598 0.01133 0.94945 0.0
H354 H 0.54704 0.03512 0.93963 0.0
H355 H 0.5897 0.0562 0.91392 0.0
H356 H 0.53866 0.04238 0.81864 0.0
H357 H 0.56262 0.97145 0.79576 0.0
H358 H 0.60609 0.9892 0.82058 0.0
H359 H 0.58156 0.05992 0.84372 0.0
C360 C 0.35207 0.12196 0.65419 0.0
C361 C 0.35447 0.11121 0.67519 0.0
C362 C 0.34617 0.15255 0.69191 0.0
C363 C 0.35138 0.1263 0.69392 0.0
C364 C 0.3428 0.16259 0.67083 0.0
C365 C 0.34575 0.14741 0.65212 0.0
U366 U 0.38827 0.07442 0.62842 0.0
O367 O 0.37627 0.04488 0.59923 0.0
O368 O 0.41866 0.08641 0.59985 0.0
C369 C 0.40132 0.0622 0.58878 0.0
C370 C 0.35961 0.10904 0.63452 0.0
C371 C 0.41698 0.04714 0.57633 0.0
C372 C 0.42705 0.03101 0.54067 0.0
C373 C 0.41011 0.04145 0.55402 0.0
C374 C 0.45741 0.03058 0.57205 0.0
C375 C 0.45124 0.02587 0.54939 0.0
C376 C 0.44044 0.04123 0.58543 0.0
C377 C 0.42254 0.03879 0.67295 0.0
C378 C 0.47041 0.03546 0.67884 0.0
C379 C 0.42958 0.01302 0.70522 0.0
C380 C 0.41108 0.02178 0.69215 0.0
C381 C 0.45997 0.02119 0.6993 0.0
C382 C 0.45188 0.04434 0.66579 0.0
C383 C 0.4058 0.05523 0.66368 0.0
O384 O 0.38876 0.11966 0.63045 0.0
O385 O 0.34554 0.07948 0.63235 0.0
O386 O 0.37975 0.03948 0.65405 0.0
O387 O 0.42183 0.08147 0.6542 0.0
H388 H 0.35981 0.09182 0.67707 0.0
H389 H 0.35443 0.11823 0.70993 0.0
H390 H 0.33848 0.18256 0.66879 0.0
H391 H 0.34408 0.15613 0.63602 0.0
H392 H 0.4219 0.02817 0.5233 0.0
H393 H 0.39227 0.0462 0.5467 0.0
H394 H 0.4756 0.02646 0.57937 0.0
H395 H 0.44612 0.04559 0.60266 0.0
H396 H 0.49353 0.04149 0.67358 0.0
H397 H 0.42079 0.00222 0.72087 0.0
H398 H 0.38853 0.01736 0.69799 0.0
H399 H 0.46118 0.05728 0.65094 0.0
C400 C 0.88225 0.257 0.66229 0.0
C401 C 0.8945 0.26953 0.68268 0.0
C402 C 0.85991 0.22366 0.70131 0.0
C403 C 0.88348 0.25297 0.70202 0.0
C404 C 0.848 0.2111 0.68077 0.0
C405 C 0.8591 0.22768 0.66142 0.0
U406 U 0.92735 0.33248 0.63507 0.0
O407 O 0.95432 0.34379 0.6045 0.0
O408 O 0.91436 0.35385 0.60762 0.0
C409 C 0.93707 0.35523 0.59517 0.0
C410 C 0.89244 0.27507 0.64211 0.0
C411 C 0.95228 0.3828 0.58193 0.0
C412 C 0.96709 0.40472 0.54558 0.0
C413 C 0.95501 0.37943 0.5593 0.0
C414 C 0.97463 0.43745 0.5771 0.0
C415 C 0.97669 0.43404 0.55423 0.0
C416 C 0.96239 0.41195 0.59088 0.0
C417 C 0.9681 0.39466 0.68016 0.0
C418 C 0.98832 0.44956 0.68055 0.0
C419 C 0.9863 0.42199 0.71416 0.0
C420 C 0.97433 0.39488 0.70258 0.0
C421 C 0.99274 0.44974 0.70349 0.0
C422 C 0.9758 0.42214 0.66898 0.0
C423 C 0.95023 0.36514 0.67016 0.0
O424 O 0.88196 0.29574 0.63959 0.0
O425 O 0.92153 0.2852 0.63771 0.0
O426 O 0.96456 0.352 0.65896 0.0
O427 O 0.92387 0.36099 0.66185 0.0
H428 H 0.91223 0.29231 0.68363 0.0
H429 H 0.89285 0.26343 0.71758 0.0
H430 H 0.83006 0.18847 0.67967 0.0
H431 H 0.84934 0.21775 0.64581 0.0
H432 H 0.96888 0.40128 0.52814 0.0
H433 H 0.9473 0.35706 0.55213 0.0
H434 H 0.98172 0.45974 0.58425 0.0
H435 H 0.96033 0.41494 0.60835 0.0
H436 H 0.9935 0.47045 0.67164 0.0
H437 H 0.9886 0.42074 0.73177 0.0
H438 H 0.96829 0.3738 0.71149 0.0
H439 H 0.97111 0.42232 0.6516 0.0
C440 C 0.72832 0.64087 0.66449 0.0
C441 C 0.7163 0.62787 0.68492 0.0
C442 C 0.76615 0.65273 0.70158 0.0
C443 C 0.73505 0.63359 0.70326 0.0
C444 C 0.77774 0.66679 0.68125 0.0
C445 C 0.75899 0.66077 0.66285 0.0
U446 U 0.65094 0.60935 0.63777 0.0
O447 O 0.63541 0.61994 0.60609 0.0
O448 O 0.63478 0.57498 0.61197 0.0
C449 C 0.62875 0.59267 0.59831 0.0
C450 C 0.70949 0.63217 0.64467 0.0
C451 C 0.6011 0.57828 0.58514 0.0
C452 C 0.5793 0.56922 0.54861 0.0
C453 C 0.60275 0.58596 0.56284 0.0
C454 C 0.55123 0.53776 0.57911 0.0
C455 C 0.55353 0.54442 0.55643 0.0
C456 C 0.57489 0.5545 0.59336 0.0
C457 C 0.58519 0.59124 0.68127 0.0
C458 C 0.53594 0.55015 0.6885 0.0
C459 C 0.55399 0.59493 0.71138 0.0
C460 C 0.58022 0.60766 0.69857 0.0
C461 C 0.53218 0.56556 0.70703 0.0
C462 C 0.56237 0.56285 0.67574 0.0
C463 C 0.6161 0.60212 0.67228 0.0
O464 O 0.69248 0.60302 0.64292 0.0
O465 O 0.69511 0.64898 0.63969 0.0
O466 O 0.62622 0.62684 0.66017 0.0
O467 O 0.62529 0.58164 0.6656 0.0
H468 H 0.6926 0.61247 0.68653 0.0
H469 H 0.72533 0.62203 0.7185 0.0
H470 H 0.80141 0.6821 0.67945 0.0
H471 H 0.76859 0.67113 0.64722 0.0
H472 H 0.58216 0.57483 0.53127 0.0
H473 H 0.62295 0.60405 0.55617 0.0
H474 H 0.53148 0.51914 0.58575 0.0
H475 H 0.5732 0.54817 0.61056 0.0
H476 H 0.51954 0.52738 0.68486 0.0
H477 H 0.55153 0.60738 0.72543 0.0
H478 H 0.5976 0.62957 0.70313 0.0
H479 H 0.56573 0.54974 0.66247 0.0
H480 H 0.18805 0.35162 0.29648 0.0
H481 H 0.26349 0.34878 0.26042 0.0
H482 H 0.23817 0.34834 0.22584 0.0
H483 H 0.1962 0.35205 0.20584 0.0
H484 H 0.11924 0.35133 0.24192 0.0
H485 H 0.14361 0.34962 0.27649 0.0
C486 C 0.19876 0.35022 0.28112 0.0
C487 C 0.22789 0.35063 0.28116 0.0
C488 C 0.18391 0.34958 0.26125 0.0
C489 C 0.24142 0.34923 0.26096 0.0
C490 C 0.22688 0.34878 0.24113 0.0
C491 C 0.18438 0.35084 0.2212 0.0
C492 C 0.15604 0.35224 0.22116 0.0
C493 C 0.19834 0.34946 0.24108 0.0
C494 C 0.14138 0.35105 0.24137 0.0
C495 C 0.15521 0.34987 0.2612 0.0
H496 H 0.64307 0.75087 0.24049 0.0
H497 H 0.64128 0.82248 0.19922 0.0
H498 H 0.64373 0.85275 0.2316 0.0
H499 H 0.64312 0.85771 0.27159 0.0
H500 H 0.6397 0.784 0.31289 0.0
H501 H 0.64272 0.75595 0.28053 0.0
C502 C 0.64304 0.77302 0.23852 0.0
C503 C 0.64189 0.78421 0.21734 0.0
C504 C 0.64349 0.79 0.25725 0.0
C505 C 0.6426 0.81333 0.21522 0.0
C506 C 0.64371 0.83061 0.23377 0.0
C507 C 0.64285 0.83543 0.27357 0.0
C508 C 0.64104 0.82304 0.29474 0.0
C509 C 0.64364 0.81896 0.25486 0.0
C510 C 0.64148 0.7944 0.29689 0.0
C511 C 0.64292 0.77816 0.27836 0.0
H512 H 0.17724 0.81758 0.29575 0.0
H513 H 0.14888 0.72816 0.26825 0.0
H514 H 0.17107 0.75012 0.23288 0.0
H515 H 0.20061 0.79454 0.21025 0.0
H516 H 0.22943 0.88406 0.23765 0.0
H517 H 0.2056 0.86219 0.2727 0.0
C518 C 0.17603 0.80291 0.28204 0.0
C519 C 0.16139 0.77128 0.28468 0.0
C520 C 0.18914 0.81568 0.26178 0.0
C521 C 0.15963 0.75259 0.26663 0.0
C522 C 0.17251 0.76511 0.24642 0.0
C523 C 0.20128 0.80931 0.22377 0.0
C524 C 0.21684 0.84089 0.22131 0.0
C525 C 0.1875 0.79661 0.24385 0.0
C526 C 0.21793 0.85965 0.23916 0.0
C527 C 0.2042 0.84718 0.25919 0.0
H528 H 0.75452 0.65703 0.74512 0.0
H529 H 0.82385 0.6563 0.70084 0.0
H530 H 0.85608 0.65854 0.73193 0.0
H531 H 0.86348 0.65757 0.77165 0.0
H532 H 0.79232 0.65363 0.81596 0.0
H533 H 0.76213 0.65651 0.7849 0.0
C534 C 0.77662 0.65722 0.74222 0.0
C535 C 0.78659 0.65643 0.72058 0.0
C536 C 0.79478 0.65763 0.76021 0.0
C537 C 0.81563 0.65735 0.71723 0.0
C538 C 0.83404 0.65835 0.73504 0.0
C539 C 0.8413 0.65718 0.77455 0.0
C540 C 0.83024 0.65525 0.79618 0.0
C541 C 0.82364 0.658 0.75659 0.0
C542 C 0.80169 0.65549 0.79956 0.0
C543 C 0.78423 0.65687 0.78178 0.0
H544 H 0.36648 0.24605 0.7685 0.0
H545 H 0.30891 0.16449 0.80314 0.0
H546 H 0.30462 0.13477 0.76998 0.0
H547 H 0.31814 0.13182 0.73129 0.0
H548 H 0.37507 0.21371 0.69678 0.0
H549 H 0.37793 0.24351 0.7296 0.0
C550 C 0.35252 0.22186 0.76874 0.0
C551 C 0.33811 0.20758 0.78835 0.0
C552 C 0.34995 0.20495 0.7496 0.0
C553 C 0.32062 0.17606 0.78839 0.0
C554 C 0.31802 0.15905 0.7694 0.0
C555 C 0.33114 0.15619 0.73099 0.0
C556 C 0.34632 0.17052 0.71163 0.0
C557 C 0.33282 0.17322 0.74997 0.0
C558 C 0.36284 0.20216 0.71139 0.0
C559 C 0.36467 0.2192 0.73019 0.0
H560 H 0.80059 0.19097 0.71157 0.0
H561 H 0.89069 0.21852 0.73748 0.0
H562 H 0.86961 0.1921 0.77196 0.0
H563 H 0.82553 0.16148 0.79482 0.0
H564 H 0.73548 0.13505 0.76897 0.0
H565 H 0.75666 0.15992 0.73418 0.0
C566 C 0.81564 0.19086 0.72465 0.0
C567 C 0.84716 0.20668 0.72195 0.0
C568 C 0.80338 0.17566 0.7444 0.0
C569 C 0.86632 0.20678 0.73923 0.0
C570 C 0.8543 0.19156 0.7589 0.0
C571 C 0.81053 0.1613 0.78162 0.0
C572 C 0.77894 0.1463 0.78455 0.0
C573 C 0.82285 0.17608 0.76172 0.0
C574 C 0.75987 0.14595 0.76711 0.0
C575 C 0.77195 0.1604 0.74724 0.0
H576 H 0.04966 0.50713 0.02866 0.0
H577 H 0.96103 0.43268 0.03041 0.0
H578 H 0.9443 0.45609 1.00084 0.0
H579 H 0.95463 0.49808 0.9749 0.0
H580 H 0.04331 0.57248 0.97311 0.0
H581 H 0.06011 0.54891 1.00252 0.0
C582 C 0.02657 0.49621 0.02276 0.0
C583 C 0.00658 0.46826 0.03182 0.0
C584 C 0.01713 0.50976 0.00574 0.0
C585 C 0.97692 0.45411 0.02365 0.0
C586 C 0.96732 0.46751 0.00677 0.0
C587 C 0.97777 0.50893 0.98071 0.0
C588 C 0.9977 0.53698 0.97175 0.0
C589 C 0.98726 0.49529 0.99765 0.0
C590 C 0.02744 0.55101 0.97982 0.0
C591 C 0.03708 0.53752 0.99661 0.0
H592 H 0.43747 0.46288 0.98737 0.0
H593 H 0.5175 0.46674 0.95393 0.0
H594 H 0.54943 0.50206 0.98139 0.0
H595 H 0.5547 0.53056 0.01559 0.0
H596 H 0.47457 0.52617 0.04916 0.0
H597 H 0.44271 0.49122 0.02152 0.0
C598 C 0.46189 0.47125 0.98612 0.0
C599 C 0.47494 0.46207 0.96851 0.0
C600 C 0.48016 0.49104 1.00225 0.0
C601 C 0.50671 0.47371 0.96703 0.0
C602 C 0.52504 0.49368 0.98289 0.0
C603 C 0.53027 0.52209 0.01683 0.0
C604 C 0.51715 0.53097 0.03455 0.0
C605 C 0.51201 0.50233 1.00066 0.0
C606 C 0.48539 0.51936 0.03599 0.0
C607 C 0.4671 0.4996 0.02003 0.0
H608 H 0.46834 0.94864 0.03319 0.0
H609 H 0.46658 0.03661 0.03305 0.0
H610 H 0.50462 0.05343 1.00373 0.0
H611 H 0.5389 0.04334 0.97851 0.0
H612 H 0.54044 0.95525 0.97866 0.0
H613 H 0.50232 0.93846 0.00786 0.0
C614 C 0.47657 0.97163 0.02696 0.0
C615 C 0.46474 0.99138 0.03539 0.0
C616 C 0.49839 0.98112 0.01009 0.0
C617 C 0.47519 0.02089 0.02677 0.0
C618 C 0.49698 0.03054 0.01004 0.0
C619 C 0.53059 0.02034 0.98472 0.0
C620 C 0.54251 0.00059 0.97638 0.0
C621 C 0.50867 0.01082 1.00153 0.0
C622 C 0.53187 0.97101 0.98491 0.0
C623 C 0.51002 0.96136 1.00158 0.0
H624 H 0.43366 0.9871 0.51457 0.0
H625 H 0.51292 0.04558 0.55057 0.0
H626 H 0.54522 0.03391 0.52494 0.0
H627 H 0.55115 0.00838 0.49166 0.0
H628 H 0.47182 0.95015 0.45561 0.0
H629 H 0.43957 0.96169 0.48133 0.0
C630 C 0.45802 0.99751 0.51676 0.0
C631 C 0.47074 0.01722 0.53455 0.0
C632 C 0.47655 0.99121 0.5017 0.0
C633 C 0.50236 0.02996 0.53729 0.0
C634 C 0.52092 0.02357 0.52248 0.0
C635 C 0.5268 0.99806 0.48947 0.0
C636 C 0.51404 0.97848 0.47162 0.0
C637 C 0.50828 0.00437 0.50455 0.0
C638 C 0.48241 0.96573 0.46892 0.0
C639 C 0.46387 0.97204 0.48378 0.0
H640 H 0.95404 0.43986 0.51456 0.0
H641 H 0.02575 0.48817 0.5602 0.0
H642 H 0.04595 0.53128 0.53491 0.0
H643 H 0.04404 0.55458 0.49944 0.0
H644 H 0.97241 0.50615 0.45376 0.0
H645 H 0.95186 0.46332 0.47926 0.0
C646 C 0.97423 0.45973 0.51893 0.0
C647 C 0.98843 0.46071 0.53923 0.0
C648 C 0.98586 0.48427 0.50423 0.0
C649 C 0.01421 0.48691 0.5448 0.0
C650 C 0.02589 0.51148 0.53027 0.0
C651 C 0.02374 0.53479 0.49514 0.0
C652 C 0.00975 0.53363 0.47472 0.0
C653 C 0.01196 0.51035 0.50992 0.0
C654 C 0.98381 0.50754 0.46925 0.0
C655 C 0.97194 0.48312 0.48388 0.0
H656 H 0.46046 0.44268 0.49586 0.0
H657 H 0.46897 0.52108 0.45806 0.0
H658 H 0.50456 0.55423 0.4849 0.0
H659 H 0.53191 0.56109 0.51972 0.0
H660 H 0.52357 0.48259 0.55737 0.0
H661 H 0.48814 0.44952 0.53048 0.0
C662 C 0.46996 0.46703 0.49353 0.0
C663 C 0.46196 0.47928 0.47493 0.0
C664 C 0.49 0.48602 0.50922 0.0
C665 C 0.475 0.51091 0.47201 0.0
C666 C 0.49513 0.52994 0.48749 0.0
C667 C 0.52253 0.53675 0.52201 0.0
C668 C 0.53042 0.52447 0.54067 0.0
C669 C 0.50261 0.51776 0.50624 0.0
C670 C 0.51756 0.49282 0.54346 0.0
C671 C 0.49753 0.47381 0.52793 0.0
H672 H 0.01186 0.50424 0.30271 0.0
H673 H 0.95167 0.53736 0.27182 0.0
H674 H 0.94702 0.50518 0.24009 0.0
H675 H 0.96505 0.47199 0.21928 0.0
H676 H 0.02188 0.4365 0.2519 0.0
H677 H 0.02209 0.46467 0.28507 0.0
C678 C 0.99681 0.50385 0.28952 0.0
C679 C 0.98289 0.52407 0.2896 0.0
C680 C 0.9938 0.48494 0.27145 0.0
C681 C 0.96365 0.52296 0.272 0.0
C682 C 0.96082 0.50443 0.25382 0.0
C683 C 0.97694 0.47009 0.23384 0.0
C684 C 0.99356 0.45244 0.23322 0.0
C685 C 0.97671 0.48616 0.25301 0.0
C686 C 0.00882 0.4499 0.25212 0.0
C687 C 0.00908 0.4661 0.27104 0.0
H688 H 0.51591 0.45553 0.28795 0.0
H689 H 0.43166 0.43354 0.25408 0.0
H690 H 0.45907 0.46171 0.22175 0.0
H691 H 0.5061 0.49834 0.20556 0.0
H692 H 0.59118 0.51785 0.23795 0.0
H693 H 0.56425 0.48489 0.26844 0.0
C694 C 0.50374 0.45639 0.27325 0.0
C695 C 0.47192 0.44274 0.27331 0.0
C696 C 0.51967 0.47254 0.25466 0.0
C697 C 0.4562 0.44379 0.25427 0.0
C698 C 0.47184 0.46006 0.23586 0.0
C699 C 0.51906 0.49473 0.21881 0.0
C700 C 0.55071 0.51145 0.21956 0.0
C701 C 0.50351 0.47532 0.23615 0.0
C702 C 0.56673 0.50627 0.23717 0.0
C703 C 0.55137 0.48724 0.25463 0.0
H704 H 0.50081 0.02936 0.21923 0.0
H705 H 0.41762 0.97746 0.25406 0.0
H706 H 0.446 0.97581 0.28659 0.0
H707 H 0.49405 0.98278 0.30301 0.0
H708 H 0.57792 0.03784 0.26974 0.0
H709 H 0.54964 0.04459 0.23878 0.0
C710 C 0.48904 0.01827 0.23413 0.0
C711 C 0.45727 0.00341 0.23427 0.0
C712 C 0.50554 0.01756 0.25291 0.0
C713 C 0.44211 0.98921 0.25365 0.0
C714 C 0.45831 0.98809 0.27221 0.0
C715 C 0.50639 0.99717 0.28944 0.0
C716 C 0.53821 0.00895 0.2886 0.0
C717 C 0.49003 0.00138 0.27179 0.0
C718 C 0.55342 0.02745 0.2706 0.0
C719 C 0.53727 0.03148 0.25286 0.0
H720 H 0.98789 0.55674 0.75831 0.0
H721 H 0.03157 0.52291 0.80597 0.0
H722 H 0.0378 0.48954 0.77814 0.0
H723 H 0.02569 0.46632 0.74162 0.0
H724 H 0.97597 0.49626 0.69589 0.0
H725 H 0.97891 0.53598 0.72113 0.0
C726 C -0.00054 0.54261 0.76246 0.0
C727 C 0.00931 0.54227 0.78412 0.0
C728 C 0.00197 0.52285 0.74665 0.0
C729 C 0.02371 0.52343 0.78941 0.0
C730 C 0.02725 0.50439 0.77351 0.0
C731 C 0.01544 0.48146 0.7371 0.0
C732 C 0.00014 0.47767 0.71688 0.0
C733 C 0.01558 0.50323 0.75228 0.0
C734 C 0.98811 0.49846 0.71112 0.0
C735 C 0.98939 0.52105 0.72574 0.0
H736 H 0.53958 0.56225 0.7507 0.0
H737 H 0.47159 0.53169 0.70011 0.0
H738 H 0.43431 0.49886 0.72676 0.0
H739 H 0.42308 0.47483 0.76317 0.0
H740 H 0.49353 0.50146 0.81217 0.0
H741 H 0.52722 0.54101 0.7878 0.0
C742 C 0.51639 0.54898 0.74563 0.0
C743 C 0.50828 0.54934 0.7235 0.0
C744 C 0.49551 0.52949 0.76081 0.0
C745 C 0.47833 0.53162 0.71705 0.0
C746 C 0.45708 0.51289 0.73227 0.0
C747 C 0.44579 0.48926 0.76859 0.0
C748 C 0.45577 0.48457 0.78943 0.0
C749 C 0.46573 0.51091 0.75401 0.0
C750 C 0.48496 0.50439 0.79637 0.0
C751 C 0.50448 0.52686 0.78229 0.0
H752 H 0.55794 0.04528 0.77264 0.0
H753 H 0.49487 0.95699 0.79449 0.0
H754 H 0.46285 0.95251 0.76222 0.0
H755 H 0.45199 0.9755 0.72879 0.0
H756 H 0.51637 0.06421 0.70783 0.0
H757 H 0.54916 0.06635 0.73837 0.0
C758 C 0.53714 0.02508 0.77026 0.0
C759 C 0.52827 0.00174 0.78591 0.0
C760 C 0.51935 0.02264 0.75173 0.0
C761 C 0.50176 0.97533 0.78264 0.0
C762 C 0.4836 0.97281 0.76422 0.0
C763 C 0.47332 0.99516 0.73082 0.0
C764 C 0.48163 0.01962 0.71593 0.0
C765 C 0.49202 0.99655 0.74878 0.0
C766 C 0.50954 0.04479 0.7187 0.0
C767 C 0.52821 0.04626 0.73636 0.0
loop_
_geom_bond_atom_site_label_1
_geom_bond_atom_site_label_2
_geom_bond_distance
_geom_bond_site_symmetry_2
_ccdc_geom_bond_type
C0 C1 1.264 . S
C0 C5 1.479 . S
C0 C10 1.465 . S
C1 C0 1.264 . S
C1 C3 1.339 . S
C1 H28 0.931 . S
C2 C3 1.395 . S
C2 C4 1.320 . S
C3 C1 1.339 . S
C3 C2 1.395 . S
C3 H29 0.929 . S
C4 C2 1.320 . S
C4 C5 1.405 . S
C4 H30 0.930 . S
C5 C0 1.479 . S
C5 C4 1.405 . S
C5 H31 0.931 . S
U6 O7 2.454 . S
U6 O8 2.458 1_455 S
U6 C9 2.984 1_455 S
U6 C10 2.847 . S
U6 C23 2.882 1_455 S
U6 O24 2.441 . S
U6 O25 2.420 . S
U6 O26 2.455 1_455 S
U6 O27 2.449 . S
O7 U6 2.454 . S
O7 C9 1.353 1_455 S
O8 U6 2.458 1_655 S
O8 C9 1.286 . S
C9 U6 2.984 1_655 S
C9 O7 1.353 1_655 S
C9 O8 1.286 . S
C9 C11 1.363 . S
C10 C0 1.465 . S
C10 U6 2.847 . S
C10 O24 1.249 . S
C10 O25 1.202 . S
C11 C9 1.363 . S
C11 C13 1.408 1_655 S
C11 C16 1.342 . S
C12 C13 1.310 1_655 S
C12 C15 1.461 . S
C12 H32 0.932 1_655 S
C13 C11 1.408 1_455 S
C13 C12 1.310 1_455 S
C13 H33 0.930 . S
C14 C15 1.474 . S
C14 C16 1.285 . S
C14 H34 0.929 . S
C15 C12 1.461 . S
C15 C14 1.474 . S
C16 C11 1.342 . S
C16 C14 1.285 . S
C16 H35 0.930 . S
C17 C20 1.424 . S
C17 C22 1.245 . S
C17 C23 1.428 . S
C18 C21 1.260 . S
C18 C22 1.477 . S
C18 H36 0.932 . S
C19 C20 1.384 . S
C19 C21 1.479 . S
C19 H37 0.929 . S
C20 C17 1.424 . S
C20 C19 1.384 . S
C20 H38 0.928 . S
C21 C18 1.260 . S
C21 C19 1.479 . S
C22 C17 1.245 . S
C22 C18 1.477 . S
C22 H39 0.932 . S
C23 U6 2.882 1_655 S
C23 C17 1.428 . S
C23 O26 1.301 . S
C23 O27 1.282 1_655 S
O24 U6 2.441 . S
O24 C10 1.249 . S
O25 U6 2.420 . S
O25 C10 1.202 . S
O26 U6 2.455 1_655 S
O26 C23 1.301 . S
O27 U6 2.449 . S
O27 C23 1.282 1_455 S
H28 C1 0.931 . S
H29 C3 0.929 . S
H30 C4 0.930 . S
H31 C5 0.931 . S
H32 C12 0.932 1_455 S
H33 C13 0.930 . S
H34 C14 0.929 . S
H35 C16 0.930 . S
H36 C18 0.932 . S
H37 C19 0.929 . S
H38 C20 0.928 . S
H39 C22 0.932 . S
C40 C41 1.264 . S
C40 C45 1.479 . S
C40 C50 1.465 . S
C41 C40 1.264 . S
C41 C43 1.339 . S
C41 H68 0.931 . S
C42 C43 1.395 . S
C42 C44 1.320 . S
C43 C41 1.339 . S
C43 C42 1.395 . S
C43 H69 0.929 . S
C44 C42 1.320 . S
C44 C45 1.405 . S
C44 H70 0.930 . S
C45 C40 1.479 . S
C45 C44 1.405 . S
C45 H71 0.931 . S
U46 O47 2.454 . S
U46 O48 2.458 . S
U46 C49 2.984 . S
U46 C50 2.847 . S
U46 C63 2.882 . S
U46 O64 2.441 . S
U46 O65 2.420 . S
U46 O66 2.455 . S
U46 O67 2.449 . S
O47 U46 2.454 . S
O47 C49 1.353 . S
O48 U46 2.458 . S
O48 C49 1.286 . S
C49 U46 2.984 . S
C49 O47 1.353 . S
C49 O48 1.286 . S
C49 C51 1.363 . S
C50 C40 1.465 . S
C50 U46 2.847 . S
C50 O64 1.249 . S
C50 O65 1.202 . S
C51 C49 1.363 . S
C51 C53 1.408 . S
C51 C56 1.342 . S
C52 C53 1.310 . S
C52 C55 1.461 . S
C52 H72 0.932 . S
C53 C51 1.408 . S
C53 C52 1.310 . S
C53 H73 0.930 . S
C54 C55 1.474 . S
C54 C56 1.285 . S
C54 H74 0.929 . S
C55 C52 1.461 . S
C55 C54 1.474 . S
C56 C51 1.342 . S
C56 C54 1.285 . S
C56 H75 0.930 . S
C57 C60 1.424 . S
C57 C62 1.245 . S
C57 C63 1.428 . S
C58 C61 1.260 . S
C58 C62 1.477 . S
C58 H76 0.932 . S
C59 C60 1.384 . S
C59 C61 1.479 . S
C59 H77 0.929 . S
C60 C57 1.424 . S
C60 C59 1.384 . S
C60 H78 0.928 . S
C61 C58 1.260 . S
C61 C59 1.479 . S
C62 C57 1.245 . S
C62 C58 1.477 . S
C62 H79 0.932 . S
C63 U46 2.882 . S
C63 C57 1.428 . S
C63 O66 1.301 . S
C63 O67 1.282 . S
O64 U46 2.441 . S
O64 C50 1.249 . S
O65 U46 2.420 . S
O65 C50 1.202 . S
O66 U46 2.455 . S
O66 C63 1.301 . S
O67 U46 2.449 . S
O67 C63 1.282 . S
H68 C41 0.931 . S
H69 C43 0.929 . S
H70 C44 0.930 . S
H71 C45 0.931 . S
H72 C52 0.932 . S
H73 C53 0.930 . S
H74 C54 0.929 . S
H75 C56 0.930 . S
H76 C58 0.932 . S
H77 C59 0.929 . S
H78 C60 0.928 . S
H79 C62 0.932 . S
C80 C81 1.264 . S
C80 C85 1.479 . S
C80 C90 1.465 . S
C81 C80 1.264 . S
C81 C83 1.339 . S
C81 H108 0.931 . S
C82 C83 1.395 . S
C82 C84 1.320 . S
C83 C81 1.339 . S
C83 C82 1.395 . S
C83 H109 0.929 . S
C84 C82 1.320 . S
C84 C85 1.405 . S
C84 H110 0.930 . S
C85 C80 1.479 . S
C85 C84 1.405 . S
C85 H111 0.931 . S
U86 O87 2.454 . S
U86 O88 2.458 1_565 S
U86 C89 2.984 1_565 S
U86 C90 2.847 . S
U86 C103 2.882 1_565 S
U86 O104 2.441 . S
U86 O105 2.420 . S
U86 O106 2.455 1_565 S
U86 O107 2.449 . S
O87 U86 2.454 . S
O87 C89 1.353 1_565 S
O88 U86 2.458 1_545 S
O88 C89 1.286 . S
C89 U86 2.984 1_545 S
C89 O87 1.353 1_545 S
C89 O88 1.286 . S
C89 C91 1.363 . S
C90 C80 1.465 . S
C90 U86 2.847 . S
C90 O104 1.249 . S
C90 O105 1.202 . S
C91 C89 1.363 . S
C91 C93 1.408 1_545 S
C91 C96 1.342 . S
C92 C93 1.310 1_545 S
C92 C95 1.461 . S
C92 H112 0.932 1_545 S
C93 C91 1.408 1_565 S
C93 C92 1.310 1_565 S
C93 H113 0.930 . S
C94 C95 1.474 . S
C94 C96 1.285 . S
C94 H114 0.929 . S
C95 C92 1.461 . S
C95 C94 1.474 . S
C96 C91 1.342 . S
C96 C94 1.285 . S
C96 H115 0.930 . S
C97 C100 1.424 . S
C97 C102 1.245 . S
C97 C103 1.428 . S
C98 C101 1.260 . S
C98 C102 1.477 . S
C98 H116 0.932 . S
C99 C100 1.384 . S
C99 C101 1.479 . S
C99 H117 0.929 . S
C100 C97 1.424 . S
C100 C99 1.384 . S
C100 H118 0.928 . S
C101 C98 1.260 . S
C101 C99 1.479 . S
C102 C97 1.245 . S
C102 C98 1.477 . S
C102 H119 0.932 . S
C103 U86 2.882 1_545 S
C103 C97 1.428 . S
C103 O106 1.301 . S
C103 O107 1.282 1_545 S
O104 U86 2.441 . S
O104 C90 1.249 . S
O105 U86 2.420 . S
O105 C90 1.202 . S
O106 U86 2.455 1_545 S
O106 C103 1.301 . S
O107 U86 2.449 . S
O107 C103 1.282 1_565 S
H108 C81 0.931 . S
H109 C83 0.929 . S
H110 C84 0.930 . S
H111 C85 0.931 . S
H112 C92 0.932 1_565 S
H113 C93 0.930 . S
H114 C94 0.929 . S
H115 C96 0.930 . S
H116 C98 0.932 . S
H117 C99 0.929 . S
H118 C100 0.928 . S
H119 C102 0.932 . S
C120 C121 1.264 . S
C120 C125 1.479 . S
C120 C130 1.465 . S
C121 C120 1.264 . S
C121 C123 1.339 . S
C121 H148 0.931 . S
C122 C123 1.395 . S
C122 C124 1.320 . S
C123 C121 1.339 . S
C123 C122 1.395 . S
C123 H149 0.929 . S
C124 C122 1.320 . S
C124 C125 1.405 . S
C124 H150 0.930 . S
C125 C120 1.479 . S
C125 C124 1.405 . S
C125 H151 0.931 . S
U126 O127 2.454 . S
U126 O128 2.458 1_565 S
U126 C129 2.984 1_565 S
U126 C130 2.847 . S
U126 C143 2.882 1_565 S
U126 O144 2.441 . S
U126 O145 2.420 . S
U126 O146 2.455 1_565 S
U126 O147 2.449 . S
O127 U126 2.454 . S
O127 C129 1.353 1_565 S
O128 U126 2.458 1_545 S
O128 C129 1.286 . S
C129 U126 2.984 1_545 S
C129 O127 1.353 1_545 S
C129 O128 1.286 . S
C129 C131 1.363 . S
C130 C120 1.465 . S
C130 U126 2.847 . S
C130 O144 1.249 . S
C130 O145 1.202 . S
C131 C129 1.363 . S
C131 C133 1.408 1_545 S
C131 C136 1.342 . S
C132 C133 1.310 1_545 S
C132 C135 1.461 . S
C132 H152 0.932 1_545 S
C133 C131 1.408 1_565 S
C133 C132 1.310 1_565 S
C133 H153 0.930 . S
C134 C135 1.474 . S
C134 C136 1.285 . S
C134 H154 0.929 . S
C135 C132 1.461 . S
C135 C134 1.474 . S
C136 C131 1.342 . S
C136 C134 1.285 . S
C136 H155 0.930 . S
C137 C140 1.424 . S
C137 C142 1.245 . S
C137 C143 1.428 . S
C138 C141 1.260 . S
C138 C142 1.477 . S
C138 H156 0.932 . S
C139 C140 1.384 . S
C139 C141 1.479 . S
C139 H157 0.929 . S
C140 C137 1.424 . S
C140 C139 1.384 . S
C140 H158 0.928 . S
C141 C138 1.260 . S
C141 C139 1.479 . S
C142 C137 1.245 . S
C142 C138 1.477 . S
C142 H159 0.932 . S
C143 U126 2.882 1_545 S
C143 C137 1.428 . S
C143 O146 1.301 . S
C143 O147 1.282 1_545 S
O144 U126 2.441 . S
O144 C130 1.249 . S
O145 U126 2.420 . S
O145 C130 1.202 . S
O146 U126 2.455 1_545 S
O146 C143 1.301 . S
O147 U126 2.449 . S
O147 C143 1.282 1_565 S
H148 C121 0.931 . S
H149 C123 0.929 . S
H150 C124 0.930 . S
H151 C125 0.931 . S
H152 C132 0.932 1_565 S
H153 C133 0.930 . S
H154 C134 0.929 . S
H155 C136 0.930 . S
H156 C138 0.932 . S
H157 C139 0.929 . S
H158 C140 0.928 . S
H159 C142 0.932 . S
C160 C161 1.264 . S
C160 C165 1.479 . S
C160 C170 1.465 . S
C161 C160 1.264 . S
C161 C163 1.339 . S
C161 H188 0.931 . S
C162 C163 1.395 . S
C162 C164 1.320 . S
C163 C161 1.339 . S
C163 C162 1.395 . S
C163 H189 0.929 . S
C164 C162 1.320 . S
C164 C165 1.405 . S
C164 H190 0.930 . S
C165 C160 1.479 . S
C165 C164 1.405 . S
C165 H191 0.931 . S
U166 O167 2.454 . S
U166 O168 2.458 1_455 S
U166 C169 2.984 1_455 S
U166 C170 2.847 . S
U166 C183 2.882 1_455 S
U166 O184 2.441 . S
U166 O185 2.420 . S
U166 O186 2.455 1_455 S
U166 O187 2.449 . S
O167 U166 2.454 . S
O167 C169 1.353 1_455 S
O168 U166 2.458 1_655 S
O168 C169 1.286 . S
C169 U166 2.984 1_655 S
C169 O167 1.353 1_655 S
C169 O168 1.286 . S
C169 C171 1.363 . S
C170 C160 1.465 . S
C170 U166 2.847 . S
C170 O184 1.249 . S
C170 O185 1.202 . S
C171 C169 1.363 . S
C171 C173 1.408 1_655 S
C171 C176 1.342 . S
C172 C173 1.310 1_655 S
C172 C175 1.461 . S
C172 H192 0.932 1_655 S
C173 C171 1.408 1_455 S
C173 C172 1.310 1_455 S
C173 H193 0.930 . S
C174 C175 1.474 . S
C174 C176 1.285 . S
C174 H194 0.929 . S
C175 C172 1.461 . S
C175 C174 1.474 . S
C176 C171 1.342 . S
C176 C174 1.285 . S
C176 H195 0.930 . S
C177 C180 1.424 . S
C177 C182 1.245 . S
C177 C183 1.428 . S
C178 C181 1.260 . S
C178 C182 1.477 . S
C178 H196 0.932 . S
C179 C180 1.384 . S
C179 C181 1.479 . S
C179 H197 0.929 . S
C180 C177 1.424 . S
C180 C179 1.384 . S
C180 H198 0.928 . S
C181 C178 1.260 . S
C181 C179 1.479 . S
C182 C177 1.245 . S
C182 C178 1.477 . S
C182 H199 0.932 . S
C183 U166 2.882 1_655 S
C183 C177 1.428 . S
C183 O186 1.301 . S
C183 O187 1.282 1_655 S
O184 U166 2.441 . S
O184 C170 1.249 . S
O185 U166 2.420 . S
O185 C170 1.202 . S
O186 U166 2.455 1_655 S
O186 C183 1.301 . S
O187 U166 2.449 . S
O187 C183 1.282 1_455 S
H188 C161 0.931 . S
H189 C163 0.929 . S
H190 C164 0.930 . S
H191 C165 0.931 . S
H192 C172 0.932 1_455 S
H193 C173 0.930 . S
H194 C174 0.929 . S
H195 C176 0.930 . S
H196 C178 0.932 . S
H197 C179 0.929 . S
H198 C180 0.928 . S
H199 C182 0.932 . S
C200 C201 1.264 . S
C200 C205 1.479 . S
C200 C210 1.465 . S
C201 C200 1.264 . S
C201 C203 1.339 . S
C201 H228 0.931 . S
C202 C203 1.395 . S
C202 C204 1.320 . S
C203 C201 1.339 . S
C203 C202 1.395 . S
C203 H229 0.929 . S
C204 C202 1.320 . S
C204 C205 1.405 . S
C204 H230 0.930 . S
C205 C200 1.479 . S
C205 C204 1.405 . S
C205 H231 0.931 . S
U206 O207 2.454 . S
U206 O208 2.458 . S
U206 C209 2.984 . S
U206 C210 2.847 . S
U206 C223 2.882 . S
U206 O224 2.441 . S
U206 O225 2.420 . S
U206 O226 2.455 . S
U206 O227 2.449 . S
O207 U206 2.454 . S
O207 C209 1.353 . S
O208 U206 2.458 . S
O208 C209 1.286 . S
C209 U206 2.984 . S
C209 O207 1.353 . S
C209 O208 1.286 . S
C209 C211 1.363 . S
C210 C200 1.465 . S
C210 U206 2.847 . S
C210 O224 1.249 . S
C210 O225 1.202 . S
C211 C209 1.363 . S
C211 C213 1.408 . S
C211 C216 1.342 . S
C212 C213 1.310 . S
C212 C215 1.461 . S
C212 H232 0.932 . S
C213 C211 1.408 . S
C213 C212 1.310 . S
C213 H233 0.930 . S
C214 C215 1.474 . S
C214 C216 1.285 . S
C214 H234 0.929 . S
C215 C212 1.461 . S
C215 C214 1.474 . S
C216 C211 1.342 . S
C216 C214 1.285 . S
C216 H235 0.930 . S
C217 C220 1.424 . S
C217 C222 1.245 . S
C217 C223 1.428 . S
C218 C221 1.260 . S
C218 C222 1.477 . S
C218 H236 0.932 . S
C219 C220 1.384 . S
C219 C221 1.479 . S
C219 H237 0.929 . S
C220 C217 1.424 . S
C220 C219 1.384 . S
C220 H238 0.928 . S
C221 C218 1.260 . S
C221 C219 1.479 . S
C222 C217 1.245 . S
C222 C218 1.477 . S
C222 H239 0.932 . S
C223 U206 2.882 . S
C223 C217 1.428 . S
C223 O226 1.301 . S
C223 O227 1.282 . S
O224 U206 2.441 . S
O224 C210 1.249 . S
O225 U206 2.420 . S
O225 C210 1.202 . S
O226 U206 2.455 . S
O226 C223 1.301 . S
O227 U206 2.449 . S
O227 C223 1.282 . S
H228 C201 0.931 . S
H229 C203 0.929 . S
H230 C204 0.930 . S
H231 C205 0.931 . S
H232 C212 0.932 . S
H233 C213 0.930 . S
H234 C214 0.929 . S
H235 C216 0.930 . S
H236 C218 0.932 . S
H237 C219 0.929 . S
H238 C220 0.928 . S
H239 C222 0.932 . S
C240 C241 1.264 . S
C240 C245 1.479 . S
C240 C250 1.465 . S
C241 C240 1.264 . S
C241 C243 1.339 . S
C241 H268 0.931 . S
C242 C243 1.395 . S
C242 C244 1.320 . S
C243 C241 1.339 . S
C243 C242 1.395 . S
C243 H269 0.929 . S
C244 C242 1.320 . S
C244 C245 1.405 . S
C244 H270 0.930 . S
C245 C240 1.479 . S
C245 C244 1.405 . S
C245 H271 0.931 . S
U246 O247 2.454 1_455 S
U246 O248 2.458 . S
U246 C249 2.984 . S
U246 C250 2.847 1_455 S
U246 C263 2.882 . S
U246 O264 2.441 1_455 S
U246 O265 2.420 1_455 S
U246 O266 2.455 . S
U246 O267 2.449 . S
O247 U246 2.454 1_655 S
O247 C249 1.353 1_655 S
O248 U246 2.458 . S
O248 C249 1.286 . S
C249 U246 2.984 . S
C249 O247 1.353 1_455 S
C249 O248 1.286 . S
C249 C251 1.363 . S
C250 C240 1.465 . S
C250 U246 2.847 1_655 S
C250 O264 1.249 . S
C250 O265 1.202 . S
C251 C249 1.363 . S
C251 C253 1.408 . S
C251 C256 1.342 . S
C252 C253 1.310 . S
C252 C255 1.461 . S
C252 H272 0.932 1_455 S
C253 C251 1.408 . S
C253 C252 1.310 . S
C253 H273 0.930 1_455 S
C254 C255 1.474 . S
C254 C256 1.285 . S
C254 H274 0.929 . S
C255 C252 1.461 . S
C255 C254 1.474 . S
C256 C251 1.342 . S
C256 C254 1.285 . S
C256 H275 0.930 . S
C257 C260 1.424 . S
C257 C262 1.245 . S
C257 C263 1.428 . S
C258 C261 1.260 . S
C258 C262 1.477 . S
C258 H276 0.932 . S
C259 C260 1.384 . S
C259 C261 1.479 . S
C259 H277 0.929 . S
C260 C257 1.424 . S
C260 C259 1.384 . S
C260 H278 0.928 . S
C261 C258 1.260 . S
C261 C259 1.479 . S
C262 C257 1.245 . S
C262 C258 1.477 . S
C262 H279 0.932 . S
C263 U246 2.882 . S
C263 C257 1.428 . S
C263 O266 1.301 . S
C263 O267 1.282 . S
O264 U246 2.441 1_655 S
O264 C250 1.249 . S
O265 U246 2.420 1_655 S
O265 C250 1.202 . S
O266 U246 2.455 . S
O266 C263 1.301 . S
O267 U246 2.449 . S
O267 C263 1.282 . S
H268 C241 0.931 . S
H269 C243 0.929 . S
H270 C244 0.930 . S
H271 C245 0.931 . S
H272 C252 0.932 1_655 S
H273 C253 0.930 1_655 S
H274 C254 0.929 . S
H275 C256 0.930 . S
H276 C258 0.932 . S
H277 C259 0.929 . S
H278 C260 0.928 . S
H279 C262 0.932 . S
C280 C281 1.264 . S
C280 C285 1.479 . S
C280 C290 1.465 . S
C281 C280 1.264 . S
C281 C283 1.339 . S
C281 H308 0.931 . S
C282 C283 1.395 . S
C282 C284 1.320 . S
C283 C281 1.339 . S
C283 C282 1.395 . S
C283 H309 0.929 . S
C284 C282 1.320 . S
C284 C285 1.405 . S
C284 H310 0.930 . S
C285 C280 1.479 . S
C285 C284 1.405 . S
C285 H311 0.931 . S
U286 O287 2.454 . S
U286 O288 2.458 . S
U286 C289 2.984 . S
U286 C290 2.847 . S
U286 C303 2.882 . S
U286 O304 2.441 . S
U286 O305 2.420 . S
U286 O306 2.455 . S
U286 O307 2.449 . S
O287 U286 2.454 . S
O287 C289 1.353 . S
O288 U286 2.458 . S
O288 C289 1.286 . S
C289 U286 2.984 . S
C289 O287 1.353 . S
C289 O288 1.286 . S
C289 C291 1.363 . S
C290 C280 1.465 . S
C290 U286 2.847 . S
C290 O304 1.249 . S
C290 O305 1.202 . S
C291 C289 1.363 . S
C291 C293 1.408 . S
C291 C296 1.342 . S
C292 C293 1.310 . S
C292 C295 1.461 . S
C292 H312 0.932 . S
C293 C291 1.408 . S
C293 C292 1.310 . S
C293 H313 0.930 . S
C294 C295 1.474 . S
C294 C296 1.285 . S
C294 H314 0.929 . S
C295 C292 1.461 . S
C295 C294 1.474 . S
C296 C291 1.342 . S
C296 C294 1.285 . S
C296 H315 0.930 . S
C297 C300 1.424 . S
C297 C302 1.245 . S
C297 C303 1.428 . S
C298 C301 1.260 . S
C298 C302 1.477 . S
C298 H316 0.932 . S
C299 C300 1.384 . S
C299 C301 1.479 . S
C299 H317 0.929 . S
C300 C297 1.424 . S
C300 C299 1.384 . S
C300 H318 0.928 . S
C301 C298 1.260 . S
C301 C299 1.479 . S
C302 C297 1.245 . S
C302 C298 1.477 . S
C302 H319 0.932 . S
C303 U286 2.882 . S
C303 C297 1.428 . S
C303 O306 1.301 . S
C303 O307 1.282 . S
O304 U286 2.441 . S
O304 C290 1.249 . S
O305 U286 2.420 . S
O305 C290 1.202 . S
O306 U286 2.455 . S
O306 C303 1.301 . S
O307 U286 2.449 . S
O307 C303 1.282 . S
H308 C281 0.931 . S
H309 C283 0.929 . S
H310 C284 0.930 . S
H311 C285 0.931 . S
H312 C292 0.932 . S
H313 C293 0.930 . S
H314 C294 0.929 . S
H315 C296 0.930 . S
H316 C298 0.932 . S
H317 C299 0.929 . S
H318 C300 0.928 . S
H319 C302 0.932 . S
C320 C321 1.264 . S
C320 C325 1.479 . S
C320 C330 1.465 . S
C321 C320 1.264 . S
C321 C323 1.339 . S
C321 H348 0.931 . S
C322 C323 1.395 . S
C322 C324 1.320 . S
C323 C321 1.339 . S
C323 C322 1.395 . S
C323 H349 0.929 . S
C324 C322 1.320 . S
C324 C325 1.405 . S
C324 H350 0.930 . S
C325 C320 1.479 . S
C325 C324 1.405 . S
C325 H351 0.931 . S
U326 O327 2.456 . S
U326 O328 2.458 . S
U326 C329 2.984 . S
U326 C330 2.847 1_565 S
U326 C343 2.882 . S
U326 O344 2.441 1_565 S
U326 O345 2.420 1_565 S
U326 O346 2.455 . S
U326 O347 2.449 . S
O327 U326 2.456 . S
O327 C329 1.355 . S
O328 U326 2.458 . S
O328 C329 1.286 . S
C329 U326 2.984 . S
C329 O327 1.355 . S
C329 O328 1.286 . S
C329 C331 1.363 . S
C330 C320 1.465 . S
C330 U326 2.847 1_545 S
C330 O344 1.249 . S
C330 O345 1.202 . S
C331 C329 1.363 . S
C331 C333 1.408 . S
C331 C336 1.342 . S
C332 C333 1.310 . S
C332 C335 1.461 . S
C332 H352 0.933 . S
C333 C331 1.408 . S
C333 C332 1.310 . S
C333 H353 0.930 1_565 S
C334 C335 1.474 . S
C334 C336 1.285 . S
C334 H354 0.929 . S
C335 C332 1.461 . S
C335 C334 1.474 . S
C336 C331 1.342 . S
C336 C334 1.285 . S
C336 H355 0.930 . S
C337 C340 1.424 . S
C337 C342 1.245 . S
C337 C343 1.428 . S
C338 C341 1.260 . S
C338 C342 1.477 . S
C338 H356 0.932 . S
C339 C340 1.384 . S
C339 C341 1.479 . S
C339 H357 0.929 . S
C340 C337 1.424 . S
C340 C339 1.384 . S
C340 H358 0.928 . S
C341 C338 1.260 . S
C341 C339 1.479 . S
C342 C337 1.245 . S
C342 C338 1.477 . S
C342 H359 0.932 . S
C343 U326 2.882 . S
C343 C337 1.428 . S
C343 O346 1.301 . S
C343 O347 1.282 . S
O344 U326 2.441 1_545 S
O344 C330 1.249 . S
O345 U326 2.420 1_545 S
O345 C330 1.202 . S
O346 U326 2.455 . S
O346 C343 1.301 . S
O347 U326 2.449 . S
O347 C343 1.282 . S
H348 C321 0.931 . S
H349 C323 0.929 . S
H350 C324 0.930 . S
H351 C325 0.931 . S
H352 C332 0.933 . S
H353 C333 0.930 1_545 S
H354 C334 0.929 . S
H355 C336 0.930 . S
H356 C338 0.932 . S
H357 C339 0.929 . S
H358 C340 0.928 . S
H359 C342 0.932 . S
C360 C361 1.264 . S
C360 C365 1.479 . S
C360 C370 1.465 . S
C361 C360 1.264 . S
C361 C363 1.339 . S
C361 H388 0.931 . S
C362 C363 1.395 . S
C362 C364 1.320 . S
C363 C361 1.339 . S
C363 C362 1.395 . S
C363 H389 0.929 . S
C364 C362 1.320 . S
C364 C365 1.405 . S
C364 H390 0.930 . S
C365 C360 1.479 . S
C365 C364 1.405 . S
C365 H391 0.931 . S
U366 O367 2.454 1_565 S
U366 O368 2.458 . S
U366 C369 2.984 . S
U366 C370 2.847 1_565 S
U366 C383 2.882 . S
U366 O384 2.441 1_565 S
U366 O385 2.420 1_565 S
U366 O386 2.455 . S
U366 O387 2.449 . S
O367 U366 2.454 1_545 S
O367 C369 1.353 1_545 S
O368 U366 2.458 . S
O368 C369 1.286 . S
C369 U366 2.984 . S
C369 O367 1.353 1_565 S
C369 O368 1.286 . S
C369 C371 1.363 . S
C370 C360 1.465 . S
C370 U366 2.847 1_545 S
C370 O384 1.249 . S
C370 O385 1.202 . S
C371 C369 1.363 . S
C371 C373 1.408 . S
C371 C376 1.342 . S
C372 C373 1.310 . S
C372 C375 1.461 . S
C372 H392 0.932 1_565 S
C373 C371 1.408 . S
C373 C372 1.310 . S
C373 H393 0.930 1_565 S
C374 C375 1.474 . S
C374 C376 1.285 . S
C374 H394 0.929 . S
C375 C372 1.461 . S
C375 C374 1.474 . S
C376 C371 1.342 . S
C376 C374 1.285 . S
C376 H395 0.930 . S
C377 C380 1.424 . S
C377 C382 1.245 . S
C377 C383 1.428 . S
C378 C381 1.260 . S
C378 C382 1.477 . S
C378 H396 0.932 . S
C379 C380 1.384 . S
C379 C381 1.479 . S
C379 H397 0.929 . S
C380 C377 1.424 . S
C380 C379 1.384 . S
C380 H398 0.928 . S
C381 C378 1.260 . S
C381 C379 1.479 . S
C382 C377 1.245 . S
C382 C378 1.477 . S
C382 H399 0.932 . S
C383 U366 2.882 . S
C383 C377 1.428 . S
C383 O386 1.301 . S
C383 O387 1.282 . S
O384 U366 2.441 1_545 S
O384 C370 1.249 . S
O385 U366 2.420 1_545 S
O385 C370 1.202 . S
O386 U366 2.455 . S
O386 C383 1.301 . S
O387 U366 2.449 . S
O387 C383 1.282 . S
H388 C361 0.931 . S
H389 C363 0.929 . S
H390 C364 0.930 . S
H391 C365 0.931 . S
H392 C372 0.932 1_545 S
H393 C373 0.930 1_545 S
H394 C374 0.929 . S
H395 C376 0.930 . S
H396 C378 0.932 . S
H397 C379 0.929 . S
H398 C380 0.928 . S
H399 C382 0.932 . S
C400 C401 1.264 . S
C400 C405 1.479 . S
C400 C410 1.465 . S
C401 C400 1.264 . S
C401 C403 1.339 . S
C401 H428 0.931 . S
C402 C403 1.395 . S
C402 C404 1.320 . S
C403 C401 1.339 . S
C403 C402 1.395 . S
C403 H429 0.929 . S
C404 C402 1.320 . S
C404 C405 1.405 . S
C404 H430 0.930 . S
C405 C400 1.479 . S
C405 C404 1.405 . S
C405 H431 0.931 . S
U406 O407 2.456 . S
U406 O408 2.458 . S
U406 C409 2.984 . S
U406 C410 2.847 1_455 S
U406 C423 2.882 . S
U406 O424 2.441 1_455 S
U406 O425 2.420 1_455 S
U406 O426 2.455 . S
U406 O427 2.449 . S
O407 U406 2.456 . S
O407 C409 1.355 . S
O408 U406 2.458 . S
O408 C409 1.286 . S
C409 U406 2.984 . S
C409 O407 1.355 . S
C409 O408 1.286 . S
C409 C411 1.363 . S
C410 C400 1.465 . S
C410 U406 2.847 1_655 S
C410 O424 1.249 . S
C410 O425 1.202 . S
C411 C409 1.363 . S
C411 C413 1.408 . S
C411 C416 1.342 . S
C412 C413 1.310 . S
C412 C415 1.461 . S
C412 H432 0.933 . S
C413 C411 1.408 . S
C413 C412 1.310 . S
C413 H433 0.930 1_455 S
C414 C415 1.474 . S
C414 C416 1.285 . S
C414 H434 0.929 . S
C415 C412 1.461 . S
C415 C414 1.474 . S
C416 C411 1.342 . S
C416 C414 1.285 . S
C416 H435 0.930 . S
C417 C420 1.424 . S
C417 C422 1.245 . S
C417 C423 1.428 . S
C418 C421 1.260 . S
C418 C422 1.477 . S
C418 H436 0.932 . S
C419 C420 1.384 . S
C419 C421 1.479 . S
C419 H437 0.929 . S
C420 C417 1.424 . S
C420 C419 1.384 . S
C420 H438 0.928 . S
C421 C418 1.260 . S
C421 C419 1.479 . S
C422 C417 1.245 . S
C422 C418 1.477 . S
C422 H439 0.932 . S
C423 U406 2.882 . S
C423 C417 1.428 . S
C423 O426 1.301 . S
C423 O427 1.282 . S
O424 U406 2.441 1_655 S
O424 C410 1.249 . S
O425 U406 2.420 1_655 S
O425 C410 1.202 . S
O426 U406 2.455 . S
O426 C423 1.301 . S
O427 U406 2.449 . S
O427 C423 1.282 . S
H428 C401 0.931 . S
H429 C403 0.929 . S
H430 C404 0.930 . S
H431 C405 0.931 . S
H432 C412 0.933 . S
H433 C413 0.930 1_655 S
H434 C414 0.929 . S
H435 C416 0.930 . S
H436 C418 0.932 . S
H437 C419 0.929 . S
H438 C420 0.928 . S
H439 C422 0.932 . S
C440 C441 1.264 . S
C440 C445 1.479 . S
C440 C450 1.465 . S
C441 C440 1.264 . S
C441 C443 1.339 . S
C441 H468 0.931 . S
C442 C443 1.395 . S
C442 C444 1.320 . S
C443 C441 1.339 . S
C443 C442 1.395 . S
C443 H469 0.929 . S
C444 C442 1.320 . S
C444 C445 1.405 . S
C444 H470 0.930 . S
C445 C440 1.479 . S
C445 C444 1.405 . S
C445 H471 0.931 . S
U446 O447 2.454 . S
U446 O448 2.458 . S
U446 C449 2.984 . S
U446 C450 2.847 . S
U446 C463 2.882 . S
U446 O464 2.441 . S
U446 O465 2.420 . S
U446 O466 2.455 . S
U446 O467 2.449 . S
O447 U446 2.454 . S
O447 C449 1.353 . S
O448 U446 2.458 . S
O448 C449 1.286 . S
C449 U446 2.984 . S
C449 O447 1.353 . S
C449 O448 1.286 . S
C449 C451 1.363 . S
C450 C440 1.465 . S
C450 U446 2.847 . S
C450 O464 1.249 . S
C450 O465 1.202 . S
C451 C449 1.363 . S
C451 C453 1.408 . S
C451 C456 1.342 . S
C452 C453 1.310 . S
C452 C455 1.461 . S
C452 H472 0.932 . S
C453 C451 1.408 . S
C453 C452 1.310 . S
C453 H473 0.930 . S
C454 C455 1.474 . S
C454 C456 1.285 . S
C454 H474 0.929 . S
C455 C452 1.461 . S
C455 C454 1.474 . S
C456 C451 1.342 . S
C456 C454 1.285 . S
C456 H475 0.930 . S
C457 C460 1.424 . S
C457 C462 1.245 . S
C457 C463 1.428 . S
C458 C461 1.260 . S
C458 C462 1.477 . S
C458 H476 0.932 . S
C459 C460 1.384 . S
C459 C461 1.479 . S
C459 H477 0.929 . S
C460 C457 1.424 . S
C460 C459 1.384 . S
C460 H478 0.928 . S
C461 C458 1.260 . S
C461 C459 1.479 . S
C462 C457 1.245 . S
C462 C458 1.477 . S
C462 H479 0.932 . S
C463 U446 2.882 . S
C463 C457 1.428 . S
C463 O466 1.301 . S
C463 O467 1.282 . S
O464 U446 2.441 . S
O464 C450 1.249 . S
O465 U446 2.420 . S
O465 C450 1.202 . S
O466 U446 2.455 . S
O466 C463 1.301 . S
O467 U446 2.449 . S
O467 C463 1.282 . S
H468 C441 0.931 . S
H469 C443 0.929 . S
H470 C444 0.930 . S
H471 C445 0.931 . S
H472 C452 0.932 . S
H473 C453 0.930 . S
H474 C454 0.929 . S
H475 C456 0.930 . S
H476 C458 0.932 . S
H477 C459 0.929 . S
H478 C460 0.928 . S
H479 C462 0.932 . S
H480 C486 0.930 . S
H481 C489 0.930 . S
H482 C490 0.930 . S
H483 C491 0.930 . S
H484 C494 0.930 . S
H485 C495 0.930 . S
C486 H480 0.930 . S
C486 C487 1.355 . S
C486 C488 1.415 . S
C487 C486 1.355 . S
C487 C489 1.419 . S
C488 C486 1.415 . S
C488 C493 1.425 . S
C488 C495 1.409 . S
C489 H481 0.930 . S
C489 C487 1.419 . S
C489 C490 1.362 . S
C490 H482 0.930 . S
C490 C489 1.362 . S
C490 C493 1.409 . S
C491 H483 0.930 . S
C491 C492 1.355 . S
C491 C493 1.415 . S
C492 C491 1.355 . S
C492 C494 1.419 . S
C493 C488 1.425 . S
C493 C490 1.409 . S
C493 C491 1.415 . S
C494 H484 0.930 . S
C494 C492 1.419 . S
C494 C495 1.362 . S
C495 H485 0.930 . S
C495 C488 1.409 . S
C495 C494 1.362 . S
H496 C502 0.930 . S
H497 C505 0.930 . S
H498 C506 0.930 . S
H499 C507 0.930 . S
H500 C510 0.930 . S
H501 C511 0.930 . S
C502 H496 0.930 . S
C502 C503 1.355 . S
C502 C504 1.415 . S
C503 C502 1.355 . S
C503 C505 1.419 . S
C504 C502 1.415 . S
C504 C509 1.425 . S
C504 C511 1.409 . S
C505 H497 0.930 . S
C505 C503 1.419 . S
C505 C506 1.362 . S
C506 H498 0.930 . S
C506 C505 1.362 . S
C506 C509 1.409 . S
C507 H499 0.930 . S
C507 C508 1.355 . S
C507 C509 1.415 . S
C508 C507 1.355 . S
C508 C510 1.419 . S
C509 C504 1.425 . S
C509 C506 1.409 . S
C509 C507 1.415 . S
C510 H500 0.930 . S
C510 C508 1.419 . S
C510 C511 1.362 . S
C511 H501 0.930 . S
C511 C504 1.409 . S
C511 C510 1.362 . S
H512 C518 0.930 . S
H513 C521 0.930 . S
H514 C522 0.930 . S
H515 C523 0.930 . S
H516 C526 0.930 . S
H517 C527 0.930 . S
C518 H512 0.930 . S
C518 C519 1.355 . S
C518 C520 1.415 . S
C519 C518 1.355 . S
C519 C521 1.419 . S
C520 C518 1.415 . S
C520 C525 1.425 . S
C520 C527 1.409 . S
C521 H513 0.930 . S
C521 C519 1.419 . S
C521 C522 1.362 . S
C522 H514 0.930 . S
C522 C521 1.362 . S
C522 C525 1.409 . S
C523 H515 0.930 . S
C523 C524 1.355 . S
C523 C525 1.415 . S
C524 C523 1.355 . S
C524 C526 1.419 . S
C525 C520 1.425 . S
C525 C522 1.409 . S
C525 C523 1.415 . S
C526 H516 0.930 . S
C526 C524 1.419 . S
C526 C527 1.362 . S
C527 H517 0.930 . S
C527 C520 1.409 . S
C527 C526 1.362 . S
H528 C534 0.930 . S
H529 C537 0.930 . S
H530 C538 0.930 . S
H531 C539 0.930 . S
H532 C542 0.930 . S
H533 C543 0.930 . S
C534 H528 0.930 . S
C534 C535 1.355 . S
C534 C536 1.415 . S
C535 C534 1.355 . S
C535 C537 1.419 . S
C536 C534 1.415 . S
C536 C541 1.425 . S
C536 C543 1.409 . S
C537 H529 0.930 . S
C537 C535 1.419 . S
C537 C538 1.362 . S
C538 H530 0.930 . S
C538 C537 1.362 . S
C538 C541 1.409 . S
C539 H531 0.930 . S
C539 C540 1.355 . S
C539 C541 1.415 . S
C540 C539 1.355 . S
C540 C542 1.419 . S
C541 C536 1.425 . S
C541 C538 1.409 . S
C541 C539 1.415 . S
C542 H532 0.930 . S
C542 C540 1.419 . S
C542 C543 1.362 . S
C543 H533 0.930 . S
C543 C536 1.409 . S
C543 C542 1.362 . S
H544 C550 0.930 . S
H545 C553 0.930 . S
H546 C554 0.930 . S
H547 C555 0.930 . S
H548 C558 0.930 . S
H549 C559 0.930 . S
C550 H544 0.930 . S
C550 C551 1.355 . S
C550 C552 1.415 . S
C551 C550 1.355 . S
C551 C553 1.419 . S
C552 C550 1.415 . S
C552 C557 1.425 . S
C552 C559 1.409 . S
C553 H545 0.930 . S
C553 C551 1.419 . S
C553 C554 1.362 . S
C554 H546 0.930 . S
C554 C553 1.362 . S
C554 C557 1.409 . S
C555 H547 0.930 . S
C555 C556 1.355 . S
C555 C557 1.415 . S
C556 C555 1.355 . S
C556 C558 1.419 . S
C557 C552 1.425 . S
C557 C554 1.409 . S
C557 C555 1.415 . S
C558 H548 0.930 . S
C558 C556 1.419 . S
C558 C559 1.362 . S
C559 H549 0.930 . S
C559 C552 1.409 . S
C559 C558 1.362 . S
H560 C566 0.930 . S
H561 C569 0.930 . S
H562 C570 0.930 . S
H563 C571 0.930 . S
H564 C574 0.930 . S
H565 C575 0.930 . S
C566 H560 0.930 . S
C566 C567 1.355 . S
C566 C568 1.415 . S
C567 C566 1.355 . S
C567 C569 1.419 . S
C568 C566 1.415 . S
C568 C573 1.425 . S
C568 C575 1.409 . S
C569 H561 0.930 . S
C569 C567 1.419 . S
C569 C570 1.362 . S
C570 H562 0.930 . S
C570 C569 1.362 . S
C570 C573 1.409 . S
C571 H563 0.930 . S
C571 C572 1.355 . S
C571 C573 1.415 . S
C572 C571 1.355 . S
C572 C574 1.419 . S
C573 C568 1.425 . S
C573 C570 1.409 . S
C573 C571 1.415 . S
C574 H564 0.930 . S
C574 C572 1.419 . S
C574 C575 1.362 . S
C575 H565 0.930 . S
C575 C568 1.409 . S
C575 C574 1.362 . S
H576 C582 0.930 . S
H577 C585 0.930 . S
H578 C586 0.934 . S
H579 C587 0.930 . S
H580 C590 0.930 . S
H581 C591 0.933 . S
C582 H576 0.930 . S
C582 C583 1.355 . S
C582 C584 1.415 . S
C583 C582 1.355 . S
C583 C585 1.419 1_554 S
C584 C582 1.415 . S
C584 C589 1.425 1_654 S
C584 C591 1.405 . S
C585 H577 0.930 . S
C585 C583 1.419 1_556 S
C585 C586 1.365 1_655 S
C586 H578 0.934 . S
C586 C585 1.365 1_455 S
C586 C589 1.403 . S
C587 H579 0.930 . S
C587 C588 1.355 . S
C587 C589 1.415 . S
C588 C587 1.355 . S
C588 C590 1.419 1_556 S
C589 C584 1.425 1_456 S
C589 C586 1.403 . S
C589 C587 1.415 . S
C590 H580 0.930 . S
C590 C588 1.419 1_554 S
C590 C591 1.364 1_455 S
C591 H581 0.933 . S
C591 C584 1.405 . S
C591 C590 1.364 1_655 S
H592 C598 0.930 . S
H593 C601 0.930 . S
H594 C602 0.930 . S
H595 C603 0.930 . S
H596 C606 0.930 . S
H597 C607 0.930 . S
C598 H592 0.930 . S
C598 C599 1.355 1_554 S
C598 C600 1.415 . S
C599 C598 1.355 1_556 S
C599 C601 1.419 . S
C600 C598 1.415 . S
C600 C605 1.425 1_554 S
C600 C607 1.409 . S
C601 H593 0.930 . S
C601 C599 1.419 . S
C601 C602 1.362 . S
C602 H594 0.930 . S
C602 C601 1.362 . S
C602 C605 1.409 . S
C603 H595 0.930 . S
C603 C604 1.355 1_556 S
C603 C605 1.415 . S
C604 C603 1.355 1_554 S
C604 C606 1.419 . S
C605 C600 1.425 1_556 S
C605 C602 1.409 . S
C605 C603 1.415 . S
C606 H596 0.930 . S
C606 C604 1.419 . S
C606 C607 1.362 . S
C607 H597 0.930 . S
C607 C600 1.409 . S
C607 C606 1.362 . S
H608 C614 0.930 . S
H609 C617 0.930 . S
H610 C618 0.930 . S
H611 C619 0.930 . S
H612 C622 0.930 . S
H613 C623 0.930 . S
C614 H608 0.930 . S
C614 C615 1.355 . S
C614 C616 1.415 . S
C615 C614 1.355 . S
C615 C617 1.419 1_544 S
C616 C614 1.415 . S
C616 C621 1.425 1_544 S
C616 C623 1.409 . S
C617 H609 0.930 . S
C617 C615 1.419 1_566 S
C617 C618 1.362 . S
C618 H610 0.930 . S
C618 C617 1.362 . S
C618 C621 1.409 . S
C619 H611 0.930 . S
C619 C620 1.355 . S
C619 C621 1.415 . S
C620 C619 1.355 . S
C620 C622 1.419 1_566 S
C621 C616 1.425 1_566 S
C621 C618 1.409 . S
C621 C619 1.415 . S
C622 H612 0.930 . S
C622 C620 1.419 1_544 S
C622 C623 1.362 . S
C623 H613 0.930 . S
C623 C616 1.409 . S
C623 C622 1.362 . S
H624 C630 0.930 . S
H625 C633 0.930 . S
H626 C634 0.930 . S
H627 C635 0.930 . S
H628 C638 0.930 . S
H629 C639 0.930 . S
C630 H624 0.930 . S
C630 C631 1.355 . S
C630 C632 1.415 . S
C631 C630 1.355 . S
C631 C633 1.419 . S
C632 C630 1.415 . S
C632 C637 1.425 1_565 S
C632 C639 1.409 . S
C633 H625 0.930 . S
C633 C631 1.419 . S
C633 C634 1.362 1_565 S
C634 H626 0.930 . S
C634 C633 1.362 1_545 S
C634 C637 1.409 . S
C635 H627 0.930 . S
C635 C636 1.355 . S
C635 C637 1.415 . S
C636 C635 1.355 . S
C636 C638 1.419 . S
C637 C632 1.425 1_545 S
C637 C634 1.409 . S
C637 C635 1.415 . S
C638 H628 0.930 . S
C638 C636 1.419 . S
C638 C639 1.362 1_545 S
C639 H629 0.930 . S
C639 C632 1.409 . S
C639 C638 1.362 1_565 S
H640 C646 0.930 . S
H641 C649 0.930 . S
H642 C650 0.930 . S
H643 C651 0.930 . S
H644 C654 0.930 . S
H645 C655 0.930 . S
C646 H640 0.930 . S
C646 C647 1.355 1_655 S
C646 C648 1.415 . S
C647 C646 1.355 1_455 S
C647 C649 1.419 . S
C648 C646 1.415 . S
C648 C653 1.425 1_655 S
C648 C655 1.409 . S
C649 H641 0.930 . S
C649 C647 1.419 . S
C649 C650 1.362 . S
C650 H642 0.930 . S
C650 C649 1.362 . S
C650 C653 1.409 . S
C651 H643 0.930 . S
C651 C652 1.355 1_455 S
C651 C653 1.415 . S
C652 C651 1.355 1_655 S
C652 C654 1.419 . S
C653 C648 1.425 1_455 S
C653 C650 1.409 . S
C653 C651 1.415 . S
C654 H644 0.930 . S
C654 C652 1.419 . S
C654 C655 1.362 . S
C655 H645 0.930 . S
C655 C648 1.409 . S
C655 C654 1.362 . S
H656 C662 0.930 . S
H657 C665 0.930 . S
H658 C666 0.930 . S
H659 C667 0.930 . S
H660 C670 0.930 . S
H661 C671 0.930 . S
C662 H656 0.930 . S
C662 C663 1.355 . S
C662 C664 1.415 . S
C663 C662 1.355 . S
C663 C665 1.419 . S
C664 C662 1.415 . S
C664 C669 1.425 . S
C664 C671 1.409 . S
C665 H657 0.930 . S
C665 C663 1.419 . S
C665 C666 1.362 . S
C666 H658 0.930 . S
C666 C665 1.362 . S
C666 C669 1.409 . S
C667 H659 0.930 . S
C667 C668 1.355 . S
C667 C669 1.415 . S
C668 C667 1.355 . S
C668 C670 1.419 . S
C669 C664 1.425 . S
C669 C666 1.409 . S
C669 C667 1.415 . S
C670 H660 0.930 . S
C670 C668 1.419 . S
C670 C671 1.362 . S
C671 H661 0.930 . S
C671 C664 1.409 . S
C671 C670 1.362 . S
H672 C678 0.930 . S
H673 C681 0.930 . S
H674 C682 0.930 . S
H675 C683 0.930 . S
H676 C686 0.930 . S
H677 C687 0.930 . S
C678 H672 0.930 . S
C678 C679 1.355 . S
C678 C680 1.415 . S
C679 C678 1.355 . S
C679 C681 1.419 . S
C680 C678 1.415 . S
C680 C685 1.425 . S
C680 C687 1.409 . S
C681 H673 0.930 . S
C681 C679 1.419 . S
C681 C682 1.362 . S
C682 H674 0.930 . S
C682 C681 1.362 . S
C682 C685 1.409 . S
C683 H675 0.930 . S
C683 C684 1.355 . S
C683 C685 1.415 . S
C684 C683 1.355 . S
C684 C686 1.419 . S
C685 C680 1.425 . S
C685 C682 1.409 . S
C685 C683 1.415 . S
C686 H676 0.930 . S
C686 C684 1.419 . S
C686 C687 1.362 . S
C687 H677 0.930 . S
C687 C680 1.409 . S
C687 C686 1.362 . S
H688 C694 0.930 . S
H689 C697 0.930 . S
H690 C698 0.930 . S
H691 C699 0.930 . S
H692 C702 0.930 . S
H693 C703 0.930 . S
C694 H688 0.930 . S
C694 C695 1.355 . S
C694 C696 1.415 . S
C695 C694 1.355 . S
C695 C697 1.419 . S
C696 C694 1.415 . S
C696 C701 1.425 . S
C696 C703 1.409 . S
C697 H689 0.930 . S
C697 C695 1.419 . S
C697 C698 1.362 . S
C698 H690 0.930 . S
C698 C697 1.362 . S
C698 C701 1.409 . S
C699 H691 0.930 . S
C699 C700 1.355 . S
C699 C701 1.415 . S
C700 C699 1.355 . S
C700 C702 1.419 . S
C701 C696 1.425 . S
C701 C698 1.409 . S
C701 C699 1.415 . S
C702 H692 0.930 . S
C702 C700 1.419 . S
C702 C703 1.362 . S
C703 H693 0.930 . S
C703 C696 1.409 . S
C703 C702 1.362 . S
H704 C710 0.930 . S
H705 C713 0.930 . S
H706 C714 0.930 . S
H707 C715 0.930 . S
H708 C718 0.930 . S
H709 C719 0.930 . S
C710 H704 0.930 . S
C710 C711 1.355 . S
C710 C712 1.415 . S
C711 C710 1.355 . S
C711 C713 1.419 . S
C712 C710 1.415 . S
C712 C717 1.425 . S
C712 C719 1.409 . S
C713 H705 0.930 . S
C713 C711 1.419 . S
C713 C714 1.362 . S
C714 H706 0.930 . S
C714 C713 1.362 . S
C714 C717 1.409 . S
C715 H707 0.930 . S
C715 C716 1.355 . S
C715 C717 1.415 . S
C716 C715 1.355 . S
C716 C718 1.419 . S
C717 C712 1.425 . S
C717 C714 1.409 . S
C717 C715 1.415 . S
C718 H708 0.930 . S
C718 C716 1.419 . S
C718 C719 1.362 . S
C719 H709 0.930 . S
C719 C712 1.409 . S
C719 C718 1.362 . S
H720 C726 0.930 . S
H721 C729 0.930 . S
H722 C730 0.930 . S
H723 C731 0.930 . S
H724 C734 0.930 . S
H725 C735 0.930 . S
C726 H720 0.930 . S
C726 C727 1.355 . S
C726 C728 1.415 . S
C727 C726 1.355 . S
C727 C729 1.419 . S
C728 C726 1.415 . S
C728 C733 1.425 . S
C728 C735 1.409 . S
C729 H721 0.930 . S
C729 C727 1.419 . S
C729 C730 1.362 . S
C730 H722 0.930 . S
C730 C729 1.362 . S
C730 C733 1.409 . S
C731 H723 0.930 . S
C731 C732 1.355 . S
C731 C733 1.415 . S
C732 C731 1.355 . S
C732 C734 1.419 . S
C733 C728 1.425 . S
C733 C730 1.409 . S
C733 C731 1.415 . S
C734 H724 0.930 . S
C734 C732 1.419 . S
C734 C735 1.362 . S
C735 H725 0.930 . S
C735 C728 1.409 . S
C735 C734 1.362 . S
H736 C742 0.930 . S
H737 C745 0.930 . S
H738 C746 0.930 . S
H739 C747 0.930 . S
H740 C750 0.930 . S
H741 C751 0.930 . S
C742 H736 0.930 . S
C742 C743 1.355 . S
C742 C744 1.415 . S
C743 C742 1.355 . S
C743 C745 1.419 . S
C744 C742 1.415 . S
C744 C749 1.425 . S
C744 C751 1.409 . S
C745 H737 0.930 . S
C745 C743 1.419 . S
C745 C746 1.362 . S
C746 H738 0.930 . S
C746 C745 1.362 . S
C746 C749 1.409 . S
C747 H739 0.930 . S
C747 C748 1.355 . S
C747 C749 1.415 . S
C748 C747 1.355 . S
C748 C750 1.419 . S
C749 C744 1.425 . S
C749 C746 1.409 . S
C749 C747 1.415 . S
C750 H740 0.930 . S
C750 C748 1.419 . S
C750 C751 1.362 . S
C751 H741 0.930 . S
C751 C744 1.409 . S
C751 C750 1.362 . S
H752 C758 0.930 . S
H753 C761 0.930 . S
H754 C762 0.930 . S
H755 C763 0.930 . S
H756 C766 0.930 . S
H757 C767 0.930 . S
C758 H752 0.930 . S
C758 C759 1.355 . S
C758 C760 1.415 . S
C759 C758 1.355 . S
C759 C761 1.419 . S
C760 C758 1.415 . S
C760 C765 1.425 . S
C760 C767 1.409 . S
C761 H753 0.930 . S
C761 C759 1.419 . S
C761 C762 1.362 . S
C762 H754 0.930 . S
C762 C761 1.362 . S
C762 C765 1.409 . S
C763 H755 0.930 . S
C763 C764 1.355 . S
C763 C765 1.415 . S
C764 C763 1.355 . S
C764 C766 1.419 . S
C765 C760 1.425 . S
C765 C762 1.409 . S
C765 C763 1.415 . S
C766 H756 0.930 . S
C766 C764 1.419 . S
C766 C767 1.362 . S
C767 H757 0.930 . S
C767 C760 1.409 . S
C767 C766 1.362 . S
C487 C202 2.787 . S
C492 C2 2.773 . S
C503 C42 2.801 . S
C508 C122 2.797 . S
C519 C162 2.531 . S
C524 C82 2.535 . S
C535 C442 2.892 . S
C540 C242 2.870 . S
C551 C282 2.885 . S
C556 C362 2.855 . S
C567 C402 2.597 . S
C572 C322 2.587 . S
C583 C15 3.442 . S
C588 C255 3.465 . S
C599 C295 3.436 . S
C604 C55 3.413 . S
C615 C95 3.118 . S
C620 C335 3.133 . S
C631 C375 3.413 . S
C636 C135 3.394 . S
C647 C415 3.139 . S
C652 C175 3.117 . S
C663 C215 3.417 . S
C668 C455 3.440 . S
C679 C181 0.760 . S
C684 C21 0.697 . S
C695 C221 0.601 . S
C700 C61 0.793 . S
C711 C101 0.627 . S
C716 C141 0.810 . S
C727 C261 0.547 . S
C732 C421 0.482 . S
C743 C461 0.676 . S
C748 C301 0.618 . S
C759 C341 0.553 . S
C764 C381 0.497 . S
