# Generated by pormake.
# Topology uoj, (4)-cn, num edge types: 1
# Building blocks:
#     Node 0, Type 0, BuildingBlock: QUQFOY_clean_sbu_3, # of connection points: 4
#     Node 1, Type 0, BuildingBlock: QUQFOY_clean_sbu_3, # of connection points: 4
#     Node 2, Type 0, BuildingBlock: QUQFOY_clean_sbu_3, # of connection points: 4
#     Node 3, Type 0, BuildingBlock: QUQFOY_clean_sbu_3, # of connection points: 4
#     Node 4, Type 0, BuildingBlock: QUQFOY_clean_sbu_3, # of connection points: 4
#     Node 5, Type 0, BuildingBlock: QUQFOY_clean_sbu_3, # of connection points: 4
#     Node 6, Type 0, BuildingBlock: QUQFOY_clean_sbu_3, # of connection points: 4
#     Node 7, Type 0, BuildingBlock: QUQFOY_clean_sbu_3, # of connection points: 4
#     Edge 8, Type (0, 0), BuildingBlock: XUDNAN_clean_linker_2, # of connection points: 2
#     Edge 9, Type (0, 0), BuildingBlock: XUDNAN_clean_linker_2, # of connection points: 2
#     Edge 10, Type (0, 0), BuildingBlock: XUDNAN_clean_linker_2, # of connection points: 2
#     Edge 11, Type (0, 0), BuildingBlock: XUDNAN_clean_linker_2, # of connection points: 2
#     Edge 12, Type (0, 0), BuildingBlock: XUDNAN_clean_linker_2, # of connection points: 2
#     Edge 13, Type (0, 0), BuildingBlock: XUDNAN_clean_linker_2, # of connection points: 2
#     Edge 14, Type (0, 0), BuildingBlock: XUDNAN_clean_linker_2, # of connection points: 2
#     Edge 15, Type (0, 0), BuildingBlock: XUDNAN_clean_linker_2, # of connection points: 2
#     Edge 16, Type (0, 0), BuildingBlock: XUDNAN_clean_linker_2, # of connection points: 2
#     Edge 17, Type (0, 0), BuildingBlock: XUDNAN_clean_linker_2, # of connection points: 2
#     Edge 18, Type (0, 0), BuildingBlock: XUDNAN_clean_linker_2, # of connection points: 2
#     Edge 19, Type (0, 0), BuildingBlock: XUDNAN_clean_linker_2, # of connection points: 2
#     Edge 20, Type (0, 0), BuildingBlock: XUDNAN_clean_linker_2, # of connection points: 2
#     Edge 21, Type (0, 0), BuildingBlock: XUDNAN_clean_linker_2, # of connection points: 2
#     Edge 22, Type (0, 0), BuildingBlock: XUDNAN_clean_linker_2, # of connection points: 2
#     Edge 23, Type (0, 0), BuildingBlock: XUDNAN_clean_linker_2, # of connection points: 2
# Relax obj value: 0.110
# Max RMSD: 0.138
# Mean RMSD: 0.138
data_MOF--net-uoj--node1-QUQFOY_clean_sbu_3--edge1-XUDNAN_clean_linker_2
_symmetry_space_group_name_H-M    P1
_symmetry_Int_Tables_number       1
_symmetry_cell_setting            triclinic
loop_
_symmetry_equiv_pos_as_xyz
'x, y, z'
_cell_length_a     35.078367
_cell_length_b     34.668073
_cell_length_c     36.325286
_cell_angle_alpha  90.152888
_cell_angle_beta   90.213978
_cell_angle_gamma 91.20303074
loop_
_atom_site_label
_atom_site_type_symbol
_atom_site_fract_x
_atom_site_fract_y
_atom_site_fract_z
_atom_type_partial_charge
C0 C 0.04337 0.30974 0.3408 0.0
O1 O 0.00763 0.31317 0.3366 0.0
Cd2 Cd 0.95949 0.28568 0.376 0.0
O3 O 0.05693 0.2933 0.36915 0.0
Cd4 Cd 0.03037 0.26575 0.42659 0.0
C5 C -0.02326 0.34078 0.45177 0.0
O6 O -0.01678 0.22518 0.39486 0.0
O7 O -0.02059 0.22624 0.45395 0.0
O8 O 0.08602 0.22571 0.42783 0.0
C9 C 0.96746 0.21227 0.42369 0.0
O10 O 0.95222 0.32837 0.42847 0.0
C11 C 0.09255 0.22967 0.46204 0.0
O12 O 0.00982 0.32648 0.45369 0.0
O13 O 0.07094 0.25196 0.47973 0.0
C14 C 0.19908 0.87913 0.51394 0.0
O15 O 0.2133 0.88523 0.4824 0.0
Cd16 Cd 0.26759 0.92792 0.47673 0.0
O17 O 0.21567 0.89231 0.54261 0.0
Cd18 Cd 0.27391 0.92681 0.56171 0.0
C19 C 0.23667 0.00584 0.52824 0.0
O20 O 0.32025 0.90935 0.51408 0.0
O21 O 0.32899 0.96324 0.54362 0.0
O22 O 0.28204 0.87255 0.60237 0.0
C23 C 0.34152 0.93852 0.52123 0.0
O24 O 0.24596 -0.00939 0.49766 0.0
C25 C 0.29204 0.89208 0.63046 0.0
O26 O 0.24058 -0.01244 0.55836 0.0
O27 O 0.2932 0.92859 0.62715 0.0
C28 C 0.89372 0.65717 0.3807 0.0
O29 O 0.92961 0.6606 0.37695 0.0
Cd30 Cd 0.96973 0.67492 0.42952 0.0
O31 O 0.87824 0.66452 0.41151 0.0
Cd32 Cd 0.89252 0.68824 0.4742 0.0
C33 C 0.93487 0.60436 0.48895 0.0
O34 O 0.94625 0.73102 0.45932 0.0
O35 O 0.93782 0.71704 0.51671 0.0
O36 O 0.83758 0.72678 0.46217 0.0
C37 C 0.95623 0.73603 0.49264 0.0
O38 O 0.96164 0.61824 0.469 0.0
C39 C 0.82451 0.72519 0.49463 0.0
O40 O 0.90439 0.62292 0.49412 0.0
O41 O 0.84256 0.70546 0.51809 0.0
C42 C 0.72381 0.07624 0.46238 0.0
O43 O 0.69934 0.06278 0.43964 0.0
Cd44 Cd 0.6432 0.02608 0.45579 0.0
O45 O 0.71873 0.07294 0.49693 0.0
Cd46 Cd 0.67155 0.048 0.54116 0.0
C47 C 0.68588 0.95764 0.51214 0.0
O48 O 0.61321 0.05497 0.50619 0.0
O49 O 0.61208 0.01415 0.55101 0.0
O50 O 0.66765 0.10936 0.5726 0.0
C51 C 0.59461 0.03005 0.52472 0.0
O52 O 0.66706 0.96789 0.48383 0.0
C53 C 0.67517 0.0968 0.60453 0.0
O54 O 0.69594 -0.01806 0.53708 0.0
O55 O 0.68312 0.06123 0.60705 0.0
C56 C 0.38548 0.70596 0.97741 0.0
O57 O 0.39018 0.72165 0.00869 0.0
Cd58 Cd 0.43026 0.77822 0.01224 0.0
O59 O 0.39937 0.72185 0.94887 0.0
Cd60 Cd 0.43318 0.78091 0.93057 0.0
C61 C 0.51176 0.74887 0.96785 0.0
O62 O 0.4077 0.82904 0.97335 0.0
O63 O 0.46367 0.83996 0.95019 0.0
O64 O 0.38198 0.78052 0.88603 0.0
C65 C 0.43504 0.85262 0.96718 0.0
O66 O 0.49504 0.75877 -0.00262 0.0
C67 C 0.40143 0.79329 0.85925 0.0
O68 O 0.49467 0.75082 0.93696 0.0
O69 O 0.43669 0.80012 0.86502 0.0
C70 C 0.78439 0.53006 0.16315 0.0
O71 O 0.77925 0.49383 0.16595 0.0
Cd72 Cd 0.76088 0.45037 0.11751 0.0
O73 O 0.77872 0.54756 0.13286 0.0
Cd74 Cd 0.75567 0.52995 0.06991 0.0
C75 C 0.82897 0.47189 0.05188 0.0
O76 O 0.70934 0.48223 0.09009 0.0
O77 O 0.71842 0.48362 0.03175 0.0
O78 O 0.71912 0.58828 0.07125 0.0
C79 C 0.70066 0.46887 0.05872 0.0
O80 O 0.81283 0.44732 0.07304 0.0
C81 C 0.72739 0.59894 0.03879 0.0
O82 O 0.81624 0.50583 0.04837 0.0
O83 O 0.75068 0.57836 0.02114 0.0
C84 C 0.57495 0.22525 0.98669 0.0
O85 O 0.559 0.19975 0.00678 0.0
Cd86 Cd 0.51457 0.15114 0.9868 0.0
O87 O 0.57044 0.22488 0.95183 0.0
Cd88 Cd 0.53805 0.18546 0.90356 0.0
C89 C 0.4534 0.21116 0.93848 0.0
O90 O 0.53744 0.12358 0.93237 0.0
O91 O 0.49554 0.13118 0.88946 0.0
O92 O 0.59245 0.17114 0.86527 0.0
C93 C 0.50983 0.10953 0.91373 0.0
O94 O 0.46135 0.18903 0.96532 0.0
C95 C 0.58153 0.19021 0.83754 0.0
O96 O 0.47692 0.21721 0.91225 0.0
O97 O 0.55074 0.20866 0.84082 0.0
C98 C 0.15577 0.4148 0.11609 0.0
O99 O 0.15068 0.45084 0.11352 0.0
Cd100 Cd 0.16162 0.48825 0.05934 0.0
O101 O 0.16647 0.39514 0.08842 0.0
Cd102 Cd 0.18003 0.40834 0.02243 0.0
C103 C 0.09274 0.44351 0.00711 0.0
O104 O 0.21936 0.46541 0.03387 0.0
O105 O 0.20388 0.45492 0.97718 0.0
O106 O 0.226 0.35744 0.02706 0.0
C107 C 0.2237 0.47406 0.00032 0.0
O108 O 0.10552 0.4746 0.02174 0.0
C109 C 0.21989 0.34395 -0.00499 0.0
O110 O 0.11297 0.41347 0.00619 0.0
O111 O 0.19318 0.35878 0.9765 0.0
H112 H 0.10053 0.43299 0.16487 0.0
H113 H 0.19118 0.35232 0.14566 0.0
H114 H 0.17575 0.31967 0.20459 0.0
H115 H 0.10858 0.43974 0.26456 0.0
H116 H 0.0577 0.44076 0.27106 0.0
H117 H 0.07851 0.45993 0.22951 0.0
H118 H 0.03471 0.41456 0.19039 0.0
H119 H 0.0137 0.39539 0.23176 0.0
H120 H 0.03481 0.36333 0.19881 0.0
H121 H 0.14983 0.29608 0.26574 0.0
H122 H 0.11051 0.278 0.31975 0.0
H123 H 0.03369 0.37094 0.29509 0.0
C124 C 0.11751 0.40882 0.17339 0.0
C125 C 0.14738 0.39541 0.15122 0.0
C126 C 0.1683 0.36304 0.16255 0.0
C127 C 0.15988 0.34454 0.19597 0.0
C128 C 0.13011 0.35848 0.21724 0.0
C129 C 0.1089 0.38954 0.20607 0.0
C130 C 0.07621 0.39679 0.23202 0.0
C131 C 0.08053 0.43667 0.25038 0.0
C132 C 0.03758 0.39222 0.21205 0.0
C133 C 0.08208 0.36477 0.25946 0.0
C134 C 0.11378 0.34349 0.25098 0.0
C135 C 0.12492 0.3125 0.27259 0.0
C136 C 0.10256 0.30255 0.30323 0.0
C137 C 0.06911 0.32304 0.31131 0.0
C138 C 0.05907 0.35473 0.28934 0.0
H139 H 0.34586 0.91519 0.68135 0.0
H140 H 0.26281 0.82437 0.65616 0.0
H141 H 0.28256 0.7889 0.71169 0.0
H142 H 0.41899 0.85156 0.71163 0.0
H143 H 0.43668 0.88328 0.74749 0.0
H144 H 0.41454 0.90305 0.7071 0.0
H145 H 0.36625 0.93885 0.74802 0.0
H146 H 0.38848 0.91948 0.78854 0.0
H147 H 0.33807 0.9119 0.78088 0.0
H148 H 0.30974 0.76428 0.77023 0.0
H149 H 0.34513 0.75017 0.8274 0.0
H150 H 0.4149 0.85358 0.81205 0.0
C151 C 0.33156 0.8881 0.68792 0.0
C152 C 0.30254 0.8726 0.66488 0.0
C153 C 0.285 0.83669 0.67367 0.0
C154 C 0.29601 0.81638 0.70508 0.0
C155 C 0.32509 0.83209 0.72698 0.0
C156 C 0.34287 0.86695 0.71876 0.0
C157 C 0.3745 0.8764 0.74611 0.0
C158 C 0.41348 0.8787 0.72693 0.0
C159 C 0.36632 0.91388 0.76713 0.0
C160 C 0.37146 0.84152 0.77109 0.0
C161 C 0.34249 0.81657 0.75969 0.0
C162 C 0.3328 0.78332 0.77923 0.0
C163 C 0.35301 0.77553 0.81156 0.0
C164 C 0.383 0.80047 0.82358 0.0
C165 C 0.39265 0.83363 0.80287 0.0
H166 H 0.91412 0.64559 0.30824 0.0
H167 H 0.81882 0.6348 0.38388 0.0
H168 H 0.77956 0.60518 0.33478 0.0
H169 H 0.85571 0.66746 0.226 0.0
H170 H 0.88569 0.64034 0.19566 0.0
H171 H 0.90585 0.66343 0.23599 0.0
H172 H 0.93202 0.5979 0.25763 0.0
H173 H 0.91184 0.57461 0.21751 0.0
H174 H 0.89967 0.55718 0.26276 0.0
H175 H 0.75303 0.57022 0.28074 0.0
H176 H 0.73898 0.53604 0.22226 0.0
H177 H 0.84908 0.57251 0.17951 0.0
C178 C 0.88483 0.6375 0.31431 0.0
C179 C 0.86961 0.64249 0.34999 0.0
C180 C 0.83116 0.63142 0.35681 0.0
C181 C 0.80857 0.61454 0.32909 0.0
C182 C 0.82459 0.60942 0.2945 0.0
C183 C 0.86162 0.62099 0.28675 0.0
C184 C 0.87203 0.61103 0.24741 0.0
C185 C 0.8803 0.64776 0.22494 0.0
C186 C 0.90589 0.58355 0.24629 0.0
C187 C 0.83543 0.59102 0.23472 0.0
C188 C 0.8085 0.59046 0.26244 0.0
C189 C 0.77351 0.57113 0.25854 0.0
C190 C 0.76583 0.55175 0.22542 0.0
C191 C 0.79277 0.55235 0.19662 0.0
C192 C 0.82782 0.5725 0.20106 0.0
H193 H 0.62733 0.13268 0.81435 0.0
H194 H 0.58 0.24157 0.7804 0.0
H195 H 0.60881 0.23371 0.71881 0.0
H196 H 0.71631 0.13735 0.75791 0.0
H197 H 0.71303 0.08656 0.74736 0.0
H198 H 0.69526 0.10426 0.7906 0.0
H199 H 0.62921 0.07257 0.7766 0.0
H200 H 0.6467 0.05485 0.73345 0.0
H201 H 0.60494 0.08427 0.73436 0.0
H202 H 0.63641 0.21078 0.65958 0.0
H203 H 0.6557 0.1726 0.60576 0.0
H204 H 0.68216 0.07671 0.67738 0.0
C205 C 0.62408 0.15546 0.79431 0.0
C206 C 0.602 0.18806 0.8022 0.0
C207 C 0.59715 0.21659 0.77492 0.0
C208 C 0.61357 0.21244 0.73999 0.0
C209 C 0.63449 0.17948 0.7328 0.0
C210 C 0.63964 0.15138 0.75917 0.0
C211 C 0.65883 0.11639 0.74313 0.0
C212 C 0.6982 0.11083 0.7608 0.0
C213 C 0.63339 0.07989 0.74711 0.0
C214 C 0.66246 0.12858 0.70328 0.0
C215 C 0.64914 0.16546 0.69813 0.0
C216 C 0.64734 0.18209 0.66335 0.0
C217 C 0.65836 0.16011 0.63292 0.0
C218 C 0.67049 0.12164 0.63735 0.0
C219 C 0.67347 0.10616 0.67315 0.0
H220 H 0.2269 0.05191 0.46857 0.0
H221 H 0.20918 0.04777 0.58673 0.0
H222 H 0.17811 0.11118 0.58394 0.0
H223 H 0.24296 0.15748 0.46094 0.0
H224 H 0.21762 0.15914 0.41774 0.0
H225 H 0.24335 0.11661 0.43017 0.0
H226 H 0.18181 0.07477 0.42128 0.0
H227 H 0.15602 0.117 0.40876 0.0
H228 H 0.13934 0.08709 0.44613 0.0
H229 H 0.14254 0.17138 0.56665 0.0
H230 H 0.10322 0.22054 0.53636 0.0
H231 H 0.14483 0.18375 0.42985 0.0
C232 C 0.21718 0.06451 0.49408 0.0
C233 C 0.2205 0.04487 0.52789 0.0
C234 C 0.20703 0.06236 0.56051 0.0
C235 C 0.18954 0.09843 0.5592 0.0
C236 C 0.18616 0.11665 0.52517 0.0
C237 C 0.19976 0.10021 0.49325 0.0
C238 C 0.18954 0.12341 0.45963 0.0
C239 C 0.22552 0.14016 0.44104 0.0
C240 C 0.16523 0.09912 0.43238 0.0
C241 C 0.16665 0.15475 0.47735 0.0
C242 C 0.16559 0.15094 0.51523 0.0
C243 C 0.1437 0.175 0.53709 0.0
C244 C 0.12151 0.20286 0.51966 0.0
C245 C 0.12109 0.20594 0.48078 0.0
C246 C 0.14485 0.18231 0.45963 0.0
H247 H 0.15224 0.85074 0.45891 0.0
H248 H 0.16351 0.85871 0.57791 0.0
H249 H 0.10184 0.82446 0.58499 0.0
H250 H 0.05125 0.86564 0.4551 0.0
H251 H 0.04294 0.83169 0.41812 0.0
H252 H 0.08827 0.85676 0.42204 0.0
H253 H 0.12288 0.79144 0.42306 0.0
H254 H 0.07768 0.76618 0.41892 0.0
H255 H 0.10928 0.75554 0.45663 0.0
H256 H 0.03962 0.78961 0.57961 0.0
H257 H -0.01938 0.75431 0.5619 0.0
H258 H 0.00915 0.76917 0.44647 0.0
C259 C 0.14182 0.84518 0.48645 0.0
C260 C 0.16271 0.85743 0.51783 0.0
C261 C 0.14802 0.84965 0.55342 0.0
C262 C 0.11299 0.83027 0.55777 0.0
C263 C 0.093 0.81889 0.52631 0.0
C264 C 0.10683 0.8259 0.49134 0.0
C265 C 0.07963 0.81034 0.46217 0.0
C266 C 0.06464 0.84307 0.43793 0.0
C267 C 0.0985 0.77901 0.43883 0.0
C268 C 0.04846 0.79344 0.48629 0.0
C269 C 0.05678 0.79878 0.52318 0.0
C270 C 0.03269 0.78525 0.55083 0.0
C271 C -0.00072 0.76526 0.54048 0.0
C272 C -0.00964 0.75908 0.50285 0.0
C273 C 0.01515 0.77369 0.47545 0.0
H274 H 0.7444 0.92512 0.55149 0.0
H275 H 0.64904 0.89742 0.47893 0.0
H276 H 0.66818 0.82976 0.47691 0.0
H277 H 0.80961 0.87181 0.50657 0.0
H278 H 0.83495 0.8549 0.54646 0.0
H279 H 0.80959 0.89929 0.54879 0.0
H280 H 0.77114 0.87333 0.60459 0.0
H281 H 0.79647 0.82864 0.60235 0.0
H282 H 0.7451 0.82811 0.60068 0.0
H283 H 0.70372 0.77016 0.47167 0.0
H284 H 0.75362 0.72136 0.46521 0.0
H285 H 0.82474 0.78416 0.54346 0.0
C286 C 0.72694 0.90447 0.53621 0.0
C287 C 0.69535 0.9165 0.51532 0.0
C288 C 0.67357 0.8889 0.49495 0.0
C289 C 0.68396 0.85026 0.4939 0.0
C290 C 0.71598 0.83945 0.51368 0.0
C291 C 0.73703 0.86555 0.53479 0.0
C292 C 0.77279 0.84728 0.54969 0.0
C293 C 0.80884 0.86964 0.5371 0.0
C294 C 0.77127 0.84415 0.59184 0.0
C295 C 0.76962 0.80779 0.53175 0.0
C296 C 0.73621 0.8037 0.51164 0.0
C297 C 0.72929 0.77224 0.48837 0.0
C298 C 0.75766 0.74472 0.48481 0.0
C299 C 0.79207 0.74867 0.50481 0.0
C300 C 0.79774 0.77988 0.5293 0.0
H301 H 0.78117 0.10958 0.50338 0.0
H302 H 0.74644 0.08529 0.3906 0.0
H303 H 0.80653 0.11525 0.36836 0.0
H304 H 0.82462 0.20178 0.48596 0.0
H305 H 0.86255 0.19534 0.51884 0.0
H306 H 0.81708 0.17143 0.52561 0.0
H307 H 0.85054 0.10554 0.52916 0.0
H308 H 0.89611 0.12922 0.52213 0.0
H309 H 0.88063 0.09071 0.49179 0.0
H310 H 0.8702 0.1482 0.35857 0.0
H311 H 0.93163 0.18425 0.36185 0.0
H312 H 0.924 0.18639 0.48112 0.0
C313 C 0.7861 0.11049 0.47398 0.0
C314 C 0.75913 0.09503 0.44873 0.0
C315 C 0.7667 0.09697 0.41048 0.0
C316 C 0.80077 0.1138 0.39757 0.0
C317 C 0.82684 0.12849 0.42329 0.0
C318 C 0.81981 0.12714 0.46066 0.0
C319 C 0.85208 0.14558 0.48258 0.0
C320 C 0.83825 0.18061 0.50453 0.0
C321 C 0.87095 0.11599 0.5079 0.0
C322 C 0.87833 0.15774 0.45166 0.0
C323 C 0.86339 0.14748 0.41767 0.0
C324 C 0.88226 0.15631 0.38501 0.0
C325 C 0.91712 0.17671 0.38717 0.0
C326 C 0.93252 0.18806 0.42174 0.0
C327 C 0.91301 0.17797 0.45431 0.0
H328 H 0.2606 0.5258 0.04532 0.0
H329 H 0.24218 0.49618 0.9303 0.0
H330 H 0.28331 0.55155 0.91196 0.0
H331 H 0.25782 0.62769 0.03393 0.0
H332 H 0.29427 0.63785 0.06791 0.0
H333 H 0.26455 0.5951 0.07189 0.0
H334 H 0.32469 0.55292 0.07376 0.0
H335 H 0.35462 0.59555 0.06977 0.0
H336 H 0.35906 0.5567 0.0371 0.0
H337 H 0.32556 0.61016 0.90634 0.0
H338 H 0.36492 0.66939 0.91341 0.0
H339 H 0.35474 0.66105 0.03233 0.0
C340 C 0.26535 0.53083 0.01626 0.0
C341 C 0.24834 0.50677 0.98917 0.0
C342 C 0.25498 0.51437 0.95145 0.0
C343 C 0.27832 0.54563 0.94079 0.0
C344 C 0.29459 0.56886 0.96824 0.0
C345 C 0.28834 0.56191 0.00518 0.0
C346 C 0.30836 0.59178 0.02918 0.0
C347 C 0.27952 0.61445 0.05207 0.0
C348 C 0.33848 0.57311 0.0539 0.0
C349 C 0.32671 0.6168 -7e-05 0.0
C350 C 0.3186 0.60294 0.965 0.0
C351 C 0.33218 0.62129 0.93354 0.0
C352 C 0.35453 0.6549 0.93789 0.0
C353 C 0.36288 0.66985 0.97346 0.0
C354 C 0.34885 0.65036 0.00481 0.0
H355 H 0.68087 0.65015 0.07199 0.0
H356 H 0.72567 0.61757 0.96549 0.0
H357 H 0.68002 0.66061 0.93507 0.0
H358 H 0.58839 0.64614 0.04853 0.0
H359 H 0.57329 0.68676 0.07547 0.0
H360 H 0.61461 0.66066 0.08923 0.0
H361 H 0.65576 0.72362 0.08804 0.0
H362 H 0.61428 0.7502 0.07481 0.0
H363 H 0.65674 0.75283 0.04705 0.0
H364 H 0.6216 0.69698 0.91627 0.0
H365 H 0.55843 0.72692 0.91103 0.0
H366 H 0.55302 0.7357 0.03013 0.0
C367 C 0.68204 0.65313 0.04234 0.0
C368 C 0.70679 0.63064 0.02109 0.0
C369 C 0.70713 0.63485 0.98232 0.0
C370 C 0.68127 0.6592 0.9648 0.0
C371 C 0.65583 0.67952 0.98654 0.0
C372 C 0.65658 0.67729 0.02455 0.0
C373 C 0.62385 0.69857 0.04158 0.0
C374 C 0.59856 0.6714 0.06505 0.0
C375 C 0.63854 0.73338 0.0642 0.0
C376 C 0.60334 0.71133 0.00723 0.0
C377 C 0.62241 0.70066 0.9757 0.0
C378 C 0.60689 0.7063 0.94076 0.0
C379 C 0.5709 0.72311 0.93806 0.0
C380 C 0.55082 0.73378 0.97016 0.0
C381 C 0.56775 0.72832 0.00502 0.0
H382 H 0.68175 0.4303 -0.00496 0.0
H383 H 0.67097 0.42456 0.114 0.0
H384 H 0.63987 0.36037 0.1084 0.0
H385 H 0.59091 0.38335 0.97406 0.0
H386 H 0.60905 0.3582 0.93455 0.0
H387 H 0.62992 0.40401 0.94804 0.0
H388 H 0.69635 0.3728 0.95153 0.0
H389 H 0.67559 0.32676 0.93855 0.0
H390 H 0.70293 0.33131 0.98051 0.0
H391 H 0.61234 0.29626 0.09031 0.0
H392 H 0.58415 0.23846 0.06051 0.0
H393 H 0.61203 0.28617 0.95316 0.0
C394 C 0.67255 0.41568 0.01988 0.0
C395 C 0.67883 0.43231 0.05495 0.0
C396 C 0.66638 0.41233 0.08683 0.0
C397 C 0.64887 0.3758 0.08397 0.0
C398 C 0.64388 0.35984 0.04905 0.0
C399 C 0.65489 0.37926 0.01753 0.0
C400 C 0.64581 0.35573 0.98334 0.0
C401 C 0.61721 0.37656 0.95855 0.0
C402 C 0.68235 0.34608 0.96225 0.0
C403 C 0.628 0.32005 0.00062 0.0
C404 C 0.62747 0.32293 0.03855 0.0
C405 C 0.61244 0.29366 0.06061 0.0
C406 C 0.59664 0.26087 0.04339 0.0
C407 C 0.5958 0.25777 0.00446 0.0
C408 C 0.61227 0.28759 0.98294 0.0
H409 H 0.40825 0.22433 -0.00244 0.0
H410 H 0.41384 0.23928 0.87913 0.0
H411 H 0.3495 0.26754 0.87979 0.0
H412 H 0.30675 0.20134 0.0041 0.0
H413 H 0.30151 0.22828 0.04622 0.0
H414 H 0.34624 0.20614 0.0358 0.0
H415 H 0.3815 0.2723 0.04281 0.0
H416 H 0.33706 0.29443 0.05376 0.0
H417 H 0.36561 0.31286 0.01632 0.0
H418 H 0.28521 0.29583 0.89423 0.0
H419 H 0.23111 0.33006 0.92175 0.0
H420 H 0.26994 0.29807 0.03077 0.0
C421 C 0.39582 0.23315 0.97165 0.0
C422 C 0.4158 0.22938 0.93823 0.0
C423 C 0.39893 0.24199 0.90504 0.0
C424 C 0.36232 0.25768 0.90512 0.0
C425 C 0.34327 0.26063 0.93864 0.0
C426 C 0.35974 0.24915 0.97132 0.0
C427 C 0.33507 0.25837 0.00405 0.0
C428 C 0.3216 0.22132 0.02369 0.0
C429 C 0.35606 0.28615 0.03078 0.0
C430 C 0.30237 0.27767 0.98485 0.0
C431 C 0.3071 0.27794 0.94706 0.0
C432 C 0.28112 0.29558 0.92375 0.0
C433 C 0.25036 0.31473 0.93961 0.0
C434 C 0.24642 0.3166 0.97836 0.0
C435 C 0.27215 0.29685 0.00106 0.0
H436 H -0.0019 0.55993 0.4901 0.0
H437 H 0.87734 0.55771 0.51553 0.0
H438 H 0.87901 0.48717 0.52289 0.0
H439 H -0.00273 0.48612 0.43371 0.0
H440 H 0.04206 0.46543 0.44669 0.0
H441 H 0.03455 0.51581 0.45416 0.0
H442 H 0.05005 0.50815 0.5235 0.0
H443 H 0.05811 0.4575 0.51619 0.0
H444 H 0.02431 0.47259 0.55031 0.0
H445 H 0.88908 0.41835 0.50998 0.0
H446 H 0.90828 0.35646 0.48266 0.0
H447 H 0.02326 0.40181 0.46872 0.0
C448 C -0.02764 0.54477 0.49871 0.0
C449 C 0.93759 0.56424 0.50211 0.0
C450 C 0.90438 0.54344 0.51298 0.0
C451 C 0.90508 0.50331 0.51733 0.0
C452 C 0.93937 0.48464 0.51154 0.0
C453 C -0.02731 0.5048 0.50333 0.0
C454 C 0.0044 0.4778 0.49326 0.0
C455 C 0.02045 0.48683 0.45468 0.0
C456 C 0.03609 0.47909 0.52258 0.0
C457 C -0.01714 0.43957 0.49392 0.0
C458 C 0.94558 0.44402 0.50533 0.0
C459 C 0.91851 0.41413 0.50241 0.0
C460 C 0.92955 0.37921 0.48667 0.0
C461 C 0.96734 0.37446 0.47433 0.0
C462 C -0.00543 0.40447 0.47921 0.0
H463 H 0.52707 0.06263 0.50838 0.0
H464 H 0.58609 0.95426 0.50875 0.0
H465 H 0.52659 0.91969 0.49099 0.0
H466 H 0.45176 0.03013 0.55466 0.0
H467 H 0.41583 0.0576 0.53149 0.0
H468 H 0.46427 0.07504 0.53238 0.0
H469 H 0.46449 0.07817 0.46106 0.0
H470 H 0.41576 0.06052 0.46001 0.0
H471 H 0.45188 0.0357 0.43459 0.0
H472 H 0.46021 0.89567 0.48584 0.0
H473 H 0.39202 0.88387 0.49997 0.0
H474 H 0.37535 0.00717 0.50626 0.0
C475 C 0.52747 0.03187 0.50315 0.0
C476 C 0.56066 0.01092 0.50939 0.0
C477 C 0.56056 0.97056 0.5038 0.0
C478 C 0.52708 0.95082 0.49333 0.0
C479 C 0.49408 0.97194 0.48875 0.0
C480 C 0.49399 0.01166 0.49352 0.0
C481 C 0.45383 0.02654 0.4943 0.0
C482 C 0.44599 0.04857 0.53035 0.0
C483 C 0.44604 0.05172 0.46046 0.0
C484 C 0.43151 -0.01119 0.4922 0.0
C485 C 0.4551 0.95778 0.48734 0.0
C486 C 0.44128 0.91973 0.48872 0.0
C487 C 0.40262 0.91324 0.49677 0.0
C488 C 0.3789 0.94468 0.5042 0.0
C489 C 0.39314 -0.01725 0.5004 0.0
H490 H 0.53796 0.0509 0.95423 0.0
H491 H 0.43457 0.09091 0.90234 0.0
H492 H 0.39942 0.03347 0.92533 0.0
H493 H 0.52627 0.95698 0.92792 0.0
H494 H 0.54612 0.93649 0.96915 0.0
H495 H 0.56035 -0.01575 0.95532 0.0
H496 H 0.53996 0.01021 0.01925 0.0
H497 H 0.52484 0.96231 0.03287 0.0
H498 H 0.49192 0.00147 0.03509 0.0
H499 H 0.37753 0.9689 0.94725 0.0
H500 H 0.37393 0.8982 0.95601 0.0
H501 H 0.49199 0.8994 0.99117 0.0
C502 C 0.50774 0.04784 0.94836 0.0
C503 C 0.48887 0.07515 0.92673 0.0
C504 C 0.44955 0.07005 0.91882 0.0
C505 C 0.42923 0.03789 0.93225 0.0
C506 C 0.44871 0.01126 0.95349 0.0
C507 C 0.48725 0.0157 0.96109 0.0
C508 C 0.50298 -0.01973 0.97925 0.0
C509 C 0.53582 0.96351 0.95653 0.0
C510 C 0.51566 -0.01089 0.01898 0.0
C511 C 0.46786 0.95429 0.97853 0.0
C512 C 0.43639 0.97319 0.96509 0.0
C513 C 0.40169 0.95394 0.9585 0.0
C514 C 0.39978 0.9139 0.96374 0.0
C515 C 0.43268 0.89395 0.97443 0.0
C516 C 0.46641 0.9145 0.98358 0.0
H517 H 0.04348 0.50293 0.00066 0.0
H518 H 0.0499 0.37843 0.99151 0.0
H519 H -0.02024 0.37351 0.98981 0.0
H520 H -0.02441 0.50492 0.0626 0.0
H521 H 0.95015 0.54596 0.04575 0.0
H522 H -0.00019 0.54133 0.03549 0.0
H523 H -0.01445 0.54557 0.96562 0.0
H524 H 0.93562 0.55096 0.97564 0.0
H525 H 0.95061 0.51318 0.94509 0.0
H526 H 0.91169 0.38049 0.00561 0.0
H527 H 0.85008 0.39949 0.03192 0.0
H528 H 0.88696 0.5196 0.02918 0.0
C529 C 0.03017 0.47475 -0.00326 0.0
C530 C 0.05211 0.44108 -0.00363 0.0
C531 C 0.03369 0.40467 0.99166 0.0
C532 C -0.0062 0.40159 0.99062 0.0
C533 C -0.02709 0.43523 -0.00647 0.0
C534 C -0.00953 0.47126 -0.00441 0.0
C535 C 0.962 0.5024 0.00355 0.0
C536 C -0.02747 0.52492 0.03895 0.0
C537 C 0.95822 0.52963 0.9705 0.0
C538 C 0.92622 0.47793 0.00852 0.0
C539 C 0.93293 0.43934 0.00192 0.0
C540 C 0.9057 0.4107 0.00966 0.0
C541 C 0.87096 0.42171 0.02493 0.0
C542 C 0.8638 0.46102 0.03223 0.0
C543 C 0.89141 0.48946 0.02299 0.0
loop_
_geom_bond_atom_site_label_1
_geom_bond_atom_site_label_2
_geom_bond_distance
_geom_bond_site_symmetry_2
_ccdc_geom_bond_type
C0 O1 1.306 . S
C0 O3 1.160 . S
O1 C0 1.306 . S
O1 Cd2 2.228 . S
Cd2 O1 2.228 . S
Cd2 O6 2.273 . S
Cd2 O10 2.277 . S
O3 C0 1.160 . S
O3 Cd4 2.203 . S
Cd4 O3 2.203 . S
Cd4 O6 2.411 . S
Cd4 O7 2.333 . S
Cd4 O8 2.352 . S
Cd4 O12 2.277 . S
Cd4 O13 2.356 . S
C5 O10 1.209 . S
C5 O12 1.226 . S
O6 Cd2 2.273 . S
O6 Cd4 2.411 . S
O6 C9 1.320 . S
O7 Cd4 2.333 . S
O7 C9 1.214 . S
O8 Cd4 2.352 . S
O8 C11 1.258 . S
C9 O6 1.320 . S
C9 O7 1.214 . S
O10 Cd2 2.277 . S
O10 C5 1.209 . S
C11 O8 1.258 . S
C11 O13 1.282 . S
O12 Cd4 2.277 . S
O12 C5 1.226 . S
O13 Cd4 2.356 . S
O13 C11 1.282 . S
C14 O15 1.306 . S
C14 O17 1.160 . S
O15 C14 1.306 . S
O15 Cd16 2.228 . S
Cd16 O15 2.228 . S
Cd16 O20 2.273 . S
Cd16 O24 2.277 . S
O17 C14 1.160 . S
O17 Cd18 2.203 . S
Cd18 O17 2.203 . S
Cd18 O20 2.411 . S
Cd18 O21 2.333 . S
Cd18 O22 2.352 . S
Cd18 O26 2.277 . S
Cd18 O27 2.356 . S
C19 O24 1.209 . S
C19 O26 1.226 . S
O20 Cd16 2.273 . S
O20 Cd18 2.411 . S
O20 C23 1.320 . S
O21 Cd18 2.333 . S
O21 C23 1.214 . S
O22 Cd18 2.352 . S
O22 C25 1.258 . S
C23 O20 1.320 . S
C23 O21 1.214 . S
O24 Cd16 2.277 . S
O24 C19 1.209 . S
C25 O22 1.258 . S
C25 O27 1.282 . S
O26 Cd18 2.277 . S
O26 C19 1.226 . S
O27 Cd18 2.356 . S
O27 C25 1.282 . S
C28 O29 1.306 . S
C28 O31 1.160 . S
O29 C28 1.306 . S
O29 Cd30 2.228 . S
Cd30 O29 2.228 . S
Cd30 O34 2.273 . S
Cd30 O38 2.277 . S
O31 C28 1.160 . S
O31 Cd32 2.203 . S
Cd32 O31 2.203 . S
Cd32 O34 2.411 . S
Cd32 O35 2.333 . S
Cd32 O36 2.352 . S
Cd32 O40 2.277 . S
Cd32 O41 2.356 . S
C33 O38 1.209 . S
C33 O40 1.226 . S
O34 Cd30 2.273 . S
O34 Cd32 2.411 . S
O34 C37 1.320 . S
O35 Cd32 2.333 . S
O35 C37 1.214 . S
O36 Cd32 2.352 . S
O36 C39 1.258 . S
C37 O34 1.320 . S
C37 O35 1.214 . S
O38 Cd30 2.277 . S
O38 C33 1.209 . S
C39 O36 1.258 . S
C39 O41 1.282 . S
O40 Cd32 2.277 . S
O40 C33 1.226 . S
O41 Cd32 2.356 . S
O41 C39 1.282 . S
C42 O43 1.306 . S
C42 O45 1.160 . S
O43 C42 1.306 . S
O43 Cd44 2.228 . S
Cd44 O43 2.228 . S
Cd44 O48 2.273 . S
Cd44 O52 2.277 . S
O45 C42 1.160 . S
O45 Cd46 2.203 . S
Cd46 O45 2.203 . S
Cd46 O48 2.411 . S
Cd46 O49 2.333 . S
Cd46 O50 2.352 . S
Cd46 O54 2.277 . S
Cd46 O55 2.356 . S
C47 O52 1.209 . S
C47 O54 1.226 . S
O48 Cd44 2.273 . S
O48 Cd46 2.411 . S
O48 C51 1.320 . S
O49 Cd46 2.333 . S
O49 C51 1.214 . S
O50 Cd46 2.352 . S
O50 C53 1.258 . S
C51 O48 1.320 . S
C51 O49 1.214 . S
O52 Cd44 2.277 . S
O52 C47 1.209 . S
C53 O50 1.258 . S
C53 O55 1.282 . S
O54 Cd46 2.277 . S
O54 C47 1.226 . S
O55 Cd46 2.356 . S
O55 C53 1.282 . S
C56 O57 1.306 1_556 S
C56 O59 1.160 . S
O57 C56 1.306 1_554 S
O57 Cd58 2.228 . S
Cd58 O57 2.228 . S
Cd58 O62 2.273 1_554 S
Cd58 O66 2.277 . S
O59 C56 1.160 . S
O59 Cd60 2.203 . S
Cd60 O59 2.203 . S
Cd60 O62 2.411 . S
Cd60 O63 2.333 . S
Cd60 O64 2.352 . S
Cd60 O68 2.277 . S
Cd60 O69 2.356 . S
C61 O66 1.209 1_556 S
C61 O68 1.226 . S
O62 Cd58 2.273 1_556 S
O62 Cd60 2.411 . S
O62 C65 1.320 . S
O63 Cd60 2.333 . S
O63 C65 1.214 . S
O64 Cd60 2.352 . S
O64 C67 1.258 . S
C65 O62 1.320 . S
C65 O63 1.214 . S
O66 Cd58 2.277 . S
O66 C61 1.209 1_554 S
C67 O64 1.258 . S
C67 O69 1.282 . S
O68 Cd60 2.277 . S
O68 C61 1.226 . S
O69 Cd60 2.356 . S
O69 C67 1.282 . S
C70 O71 1.306 . S
C70 O73 1.160 . S
O71 C70 1.306 . S
O71 Cd72 2.228 . S
Cd72 O71 2.228 . S
Cd72 O76 2.273 . S
Cd72 O80 2.277 . S
O73 C70 1.160 . S
O73 Cd74 2.203 . S
Cd74 O73 2.203 . S
Cd74 O76 2.411 . S
Cd74 O77 2.333 . S
Cd74 O78 2.352 . S
Cd74 O82 2.277 . S
Cd74 O83 2.356 1_554 S
C75 O80 1.209 . S
C75 O82 1.226 . S
O76 Cd72 2.273 . S
O76 Cd74 2.411 . S
O76 C79 1.320 . S
O77 Cd74 2.333 . S
O77 C79 1.214 . S
O78 Cd74 2.352 . S
O78 C81 1.258 . S
C79 O76 1.320 . S
C79 O77 1.214 . S
O80 Cd72 2.277 . S
O80 C75 1.209 . S
C81 O78 1.258 . S
C81 O83 1.282 1_554 S
O82 Cd74 2.277 . S
O82 C75 1.226 . S
O83 Cd74 2.356 1_556 S
O83 C81 1.282 1_556 S
C84 O85 1.306 1_556 S
C84 O87 1.160 . S
O85 C84 1.306 1_554 S
O85 Cd86 2.228 . S
Cd86 O85 2.228 . S
Cd86 O90 2.273 1_554 S
Cd86 O94 2.277 . S
O87 C84 1.160 . S
O87 Cd88 2.203 . S
Cd88 O87 2.203 . S
Cd88 O90 2.411 . S
Cd88 O91 2.333 . S
Cd88 O92 2.352 . S
Cd88 O96 2.277 . S
Cd88 O97 2.356 . S
C89 O94 1.209 1_556 S
C89 O96 1.226 . S
O90 Cd86 2.273 1_556 S
O90 Cd88 2.411 . S
O90 C93 1.320 . S
O91 Cd88 2.333 . S
O91 C93 1.214 . S
O92 Cd88 2.352 . S
O92 C95 1.258 . S
C93 O90 1.320 . S
C93 O91 1.214 . S
O94 Cd86 2.277 . S
O94 C89 1.209 1_554 S
C95 O92 1.258 . S
C95 O97 1.282 . S
O96 Cd88 2.277 . S
O96 C89 1.226 . S
O97 Cd88 2.356 . S
O97 C95 1.282 . S
C98 O99 1.306 . S
C98 O101 1.160 . S
O99 C98 1.306 . S
O99 Cd100 2.228 . S
Cd100 O99 2.228 . S
Cd100 O104 2.273 . S
Cd100 O108 2.277 . S
O101 C98 1.160 . S
O101 Cd102 2.203 . S
Cd102 O101 2.203 . S
Cd102 O104 2.411 . S
Cd102 O105 2.333 . S
Cd102 O106 2.352 . S
Cd102 O110 2.277 . S
Cd102 O111 2.356 1_554 S
C103 O108 1.209 . S
C103 O110 1.226 . S
O104 Cd100 2.273 . S
O104 Cd102 2.411 . S
O104 C107 1.320 . S
O105 Cd102 2.333 . S
O105 C107 1.214 . S
O106 Cd102 2.352 . S
O106 C109 1.258 . S
C107 O104 1.320 . S
C107 O105 1.214 . S
O108 Cd100 2.277 . S
O108 C103 1.209 . S
C109 O106 1.258 . S
C109 O111 1.282 1_554 S
O110 Cd102 2.277 . S
O110 C103 1.226 . S
O111 Cd102 2.356 1_556 S
O111 C109 1.282 1_556 S
H112 C124 0.930 . S
H113 C126 0.930 . S
H114 C127 0.930 . S
H115 C131 0.959 . S
H116 C131 0.959 . S
H117 C131 0.961 . S
H118 C132 0.960 . S
H119 C132 0.961 . S
H120 C132 0.959 . S
H121 C135 0.929 . S
H122 C136 0.931 . S
H123 C138 0.930 . S
C124 H112 0.930 . S
C124 C125 1.399 . S
C124 C129 1.399 . S
C125 C124 1.399 . S
C125 C126 1.376 . S
C126 H113 0.930 . S
C126 C125 1.376 . S
C126 C127 1.388 . S
C127 H114 0.930 . S
C127 C126 1.388 . S
C127 C128 1.390 . S
C128 C127 1.390 . S
C128 C129 1.394 . S
C128 C134 1.465 . S
C129 C124 1.399 . S
C129 C128 1.394 . S
C129 C130 1.516 . S
C130 C129 1.516 . S
C130 C131 1.502 . S
C130 C132 1.561 . S
C130 C133 1.526 . S
C131 H115 0.959 . S
C131 H116 0.959 . S
C131 H117 0.961 . S
C131 C130 1.502 . S
C132 H118 0.960 . S
C132 H119 0.961 . S
C132 H120 0.959 . S
C132 C130 1.561 . S
C133 C130 1.526 . S
C133 C134 1.396 . S
C133 C138 1.390 . S
C134 C128 1.465 . S
C134 C133 1.396 . S
C134 C135 1.399 . S
C135 H121 0.929 . S
C135 C134 1.399 . S
C135 C136 1.385 . S
C136 H122 0.931 . S
C136 C135 1.385 . S
C136 C137 1.389 . S
C137 C136 1.389 . S
C137 C138 1.387 . S
C138 H123 0.930 . S
C138 C133 1.390 . S
C138 C137 1.387 . S
H139 C151 0.930 . S
H140 C153 0.930 . S
H141 C154 0.930 . S
H142 C158 0.959 . S
H143 C158 0.959 . S
H144 C158 0.961 . S
H145 C159 0.960 . S
H146 C159 0.961 . S
H147 C159 0.959 . S
H148 C162 0.929 . S
H149 C163 0.931 . S
H150 C165 0.930 . S
C151 H139 0.930 . S
C151 C152 1.399 . S
C151 C156 1.399 . S
C152 C151 1.399 . S
C152 C153 1.376 . S
C153 H140 0.930 . S
C153 C152 1.376 . S
C153 C154 1.388 . S
C154 H141 0.930 . S
C154 C153 1.388 . S
C154 C155 1.390 . S
C155 C154 1.390 . S
C155 C156 1.394 . S
C155 C161 1.465 . S
C156 C151 1.399 . S
C156 C155 1.394 . S
C156 C157 1.516 . S
C157 C156 1.516 . S
C157 C158 1.502 . S
C157 C159 1.561 . S
C157 C160 1.526 . S
C158 H142 0.959 . S
C158 H143 0.959 . S
C158 H144 0.961 . S
C158 C157 1.502 . S
C159 H145 0.960 . S
C159 H146 0.961 . S
C159 H147 0.959 . S
C159 C157 1.561 . S
C160 C157 1.526 . S
C160 C161 1.396 . S
C160 C165 1.390 . S
C161 C155 1.465 . S
C161 C160 1.396 . S
C161 C162 1.399 . S
C162 H148 0.929 . S
C162 C161 1.399 . S
C162 C163 1.385 . S
C163 H149 0.931 . S
C163 C162 1.385 . S
C163 C164 1.389 . S
C164 C163 1.389 . S
C164 C165 1.387 . S
C165 H150 0.930 . S
C165 C160 1.390 . S
C165 C164 1.387 . S
H166 C178 0.930 . S
H167 C180 0.930 . S
H168 C181 0.930 . S
H169 C185 0.959 . S
H170 C185 0.959 . S
H171 C185 0.961 . S
H172 C186 0.960 . S
H173 C186 0.961 . S
H174 C186 0.959 . S
H175 C189 0.929 . S
H176 C190 0.931 . S
H177 C192 0.930 . S
C178 H166 0.930 . S
C178 C179 1.399 . S
C178 C183 1.399 . S
C179 C178 1.399 . S
C179 C180 1.376 . S
C180 H167 0.930 . S
C180 C179 1.376 . S
C180 C181 1.388 . S
C181 H168 0.930 . S
C181 C180 1.388 . S
C181 C182 1.390 . S
C182 C181 1.390 . S
C182 C183 1.394 . S
C182 C188 1.465 . S
C183 C178 1.399 . S
C183 C182 1.394 . S
C183 C184 1.516 . S
C184 C183 1.516 . S
C184 C185 1.502 . S
C184 C186 1.561 . S
C184 C187 1.526 . S
C185 H169 0.959 . S
C185 H170 0.959 . S
C185 H171 0.961 . S
C185 C184 1.502 . S
C186 H172 0.960 . S
C186 H173 0.961 . S
C186 H174 0.959 . S
C186 C184 1.561 . S
C187 C184 1.526 . S
C187 C188 1.396 . S
C187 C192 1.390 . S
C188 C182 1.465 . S
C188 C187 1.396 . S
C188 C189 1.399 . S
C189 H175 0.929 . S
C189 C188 1.399 . S
C189 C190 1.385 . S
C190 H176 0.931 . S
C190 C189 1.385 . S
C190 C191 1.389 . S
C191 C190 1.389 . S
C191 C192 1.387 . S
C192 H177 0.930 . S
C192 C187 1.390 . S
C192 C191 1.387 . S
H193 C205 0.930 . S
H194 C207 0.930 . S
H195 C208 0.930 . S
H196 C212 0.959 . S
H197 C212 0.959 . S
H198 C212 0.961 . S
H199 C213 0.960 . S
H200 C213 0.961 . S
H201 C213 0.959 . S
H202 C216 0.929 . S
H203 C217 0.931 . S
H204 C219 0.930 . S
C205 H193 0.930 . S
C205 C206 1.399 . S
C205 C210 1.399 . S
C206 C205 1.399 . S
C206 C207 1.376 . S
C207 H194 0.930 . S
C207 C206 1.376 . S
C207 C208 1.388 . S
C208 H195 0.930 . S
C208 C207 1.388 . S
C208 C209 1.390 . S
C209 C208 1.390 . S
C209 C210 1.394 . S
C209 C215 1.465 . S
C210 C205 1.399 . S
C210 C209 1.394 . S
C210 C211 1.516 . S
C211 C210 1.516 . S
C211 C212 1.502 . S
C211 C213 1.561 . S
C211 C214 1.526 . S
C212 H196 0.959 . S
C212 H197 0.959 . S
C212 H198 0.961 . S
C212 C211 1.502 . S
C213 H199 0.960 . S
C213 H200 0.961 . S
C213 H201 0.959 . S
C213 C211 1.561 . S
C214 C211 1.526 . S
C214 C215 1.396 . S
C214 C219 1.390 . S
C215 C209 1.465 . S
C215 C214 1.396 . S
C215 C216 1.399 . S
C216 H202 0.929 . S
C216 C215 1.399 . S
C216 C217 1.385 . S
C217 H203 0.931 . S
C217 C216 1.385 . S
C217 C218 1.389 . S
C218 C217 1.389 . S
C218 C219 1.387 . S
C219 H204 0.930 . S
C219 C214 1.390 . S
C219 C218 1.387 . S
H220 C232 0.930 . S
H221 C234 0.930 . S
H222 C235 0.930 . S
H223 C239 0.959 . S
H224 C239 0.959 . S
H225 C239 0.961 . S
H226 C240 0.960 . S
H227 C240 0.961 . S
H228 C240 0.959 . S
H229 C243 0.929 . S
H230 C244 0.931 . S
H231 C246 0.930 . S
C232 H220 0.930 . S
C232 C233 1.399 . S
C232 C237 1.399 . S
C233 C232 1.399 . S
C233 C234 1.376 . S
C234 H221 0.930 . S
C234 C233 1.376 . S
C234 C235 1.388 . S
C235 H222 0.930 . S
C235 C234 1.388 . S
C235 C236 1.390 . S
C236 C235 1.390 . S
C236 C237 1.394 . S
C236 C242 1.465 . S
C237 C232 1.399 . S
C237 C236 1.394 . S
C237 C238 1.516 . S
C238 C237 1.516 . S
C238 C239 1.502 . S
C238 C240 1.561 . S
C238 C241 1.526 . S
C239 H223 0.959 . S
C239 H224 0.959 . S
C239 H225 0.961 . S
C239 C238 1.502 . S
C240 H226 0.960 . S
C240 H227 0.961 . S
C240 H228 0.959 . S
C240 C238 1.561 . S
C241 C238 1.526 . S
C241 C242 1.396 . S
C241 C246 1.390 . S
C242 C236 1.465 . S
C242 C241 1.396 . S
C242 C243 1.399 . S
C243 H229 0.929 . S
C243 C242 1.399 . S
C243 C244 1.385 . S
C244 H230 0.931 . S
C244 C243 1.385 . S
C244 C245 1.389 . S
C245 C244 1.389 . S
C245 C246 1.387 . S
C246 H231 0.930 . S
C246 C241 1.390 . S
C246 C245 1.387 . S
H247 C259 0.930 . S
H248 C261 0.930 . S
H249 C262 0.930 . S
H250 C266 0.959 . S
H251 C266 0.959 . S
H252 C266 0.961 . S
H253 C267 0.960 . S
H254 C267 0.961 . S
H255 C267 0.959 . S
H256 C270 0.929 . S
H257 C271 0.931 . S
H258 C273 0.930 . S
C259 H247 0.930 . S
C259 C260 1.399 . S
C259 C264 1.399 . S
C260 C259 1.399 . S
C260 C261 1.376 . S
C261 H248 0.930 . S
C261 C260 1.376 . S
C261 C262 1.388 . S
C262 H249 0.930 . S
C262 C261 1.388 . S
C262 C263 1.390 . S
C263 C262 1.390 . S
C263 C264 1.394 . S
C263 C269 1.465 . S
C264 C259 1.399 . S
C264 C263 1.394 . S
C264 C265 1.516 . S
C265 C264 1.516 . S
C265 C266 1.502 . S
C265 C267 1.561 . S
C265 C268 1.526 . S
C266 H250 0.959 . S
C266 H251 0.959 . S
C266 H252 0.961 . S
C266 C265 1.502 . S
C267 H253 0.960 . S
C267 H254 0.961 . S
C267 H255 0.959 . S
C267 C265 1.561 . S
C268 C265 1.526 . S
C268 C269 1.396 . S
C268 C273 1.390 . S
C269 C263 1.465 . S
C269 C268 1.396 . S
C269 C270 1.399 . S
C270 H256 0.929 . S
C270 C269 1.399 . S
C270 C271 1.385 . S
C271 H257 0.931 . S
C271 C270 1.385 . S
C271 C272 1.389 . S
C272 C271 1.389 . S
C272 C273 1.387 . S
C273 H258 0.930 . S
C273 C268 1.390 . S
C273 C272 1.387 . S
H274 C286 0.930 . S
H275 C288 0.930 . S
H276 C289 0.930 . S
H277 C293 0.959 . S
H278 C293 0.959 . S
H279 C293 0.961 . S
H280 C294 0.960 . S
H281 C294 0.961 . S
H282 C294 0.959 . S
H283 C297 0.929 . S
H284 C298 0.931 . S
H285 C300 0.930 . S
C286 H274 0.930 . S
C286 C287 1.399 . S
C286 C291 1.399 . S
C287 C286 1.399 . S
C287 C288 1.376 . S
C288 H275 0.930 . S
C288 C287 1.376 . S
C288 C289 1.388 . S
C289 H276 0.930 . S
C289 C288 1.388 . S
C289 C290 1.390 . S
C290 C289 1.390 . S
C290 C291 1.394 . S
C290 C296 1.465 . S
C291 C286 1.399 . S
C291 C290 1.394 . S
C291 C292 1.516 . S
C292 C291 1.516 . S
C292 C293 1.502 . S
C292 C294 1.561 . S
C292 C295 1.526 . S
C293 H277 0.959 . S
C293 H278 0.959 . S
C293 H279 0.961 . S
C293 C292 1.502 . S
C294 H280 0.960 . S
C294 H281 0.961 . S
C294 H282 0.959 . S
C294 C292 1.561 . S
C295 C292 1.526 . S
C295 C296 1.396 . S
C295 C300 1.390 . S
C296 C290 1.465 . S
C296 C295 1.396 . S
C296 C297 1.399 . S
C297 H283 0.929 . S
C297 C296 1.399 . S
C297 C298 1.385 . S
C298 H284 0.931 . S
C298 C297 1.385 . S
C298 C299 1.389 . S
C299 C298 1.389 . S
C299 C300 1.387 . S
C300 H285 0.930 . S
C300 C295 1.390 . S
C300 C299 1.387 . S
H301 C313 0.930 . S
H302 C315 0.930 . S
H303 C316 0.930 . S
H304 C320 0.959 . S
H305 C320 0.959 . S
H306 C320 0.961 . S
H307 C321 0.960 . S
H308 C321 0.961 . S
H309 C321 0.959 . S
H310 C324 0.929 . S
H311 C325 0.931 . S
H312 C327 0.930 . S
C313 H301 0.930 . S
C313 C314 1.399 . S
C313 C318 1.399 . S
C314 C313 1.399 . S
C314 C315 1.376 . S
C315 H302 0.930 . S
C315 C314 1.376 . S
C315 C316 1.388 . S
C316 H303 0.930 . S
C316 C315 1.388 . S
C316 C317 1.390 . S
C317 C316 1.390 . S
C317 C318 1.394 . S
C317 C323 1.465 . S
C318 C313 1.399 . S
C318 C317 1.394 . S
C318 C319 1.516 . S
C319 C318 1.516 . S
C319 C320 1.502 . S
C319 C321 1.561 . S
C319 C322 1.526 . S
C320 H304 0.959 . S
C320 H305 0.959 . S
C320 H306 0.961 . S
C320 C319 1.502 . S
C321 H307 0.960 . S
C321 H308 0.961 . S
C321 H309 0.959 . S
C321 C319 1.561 . S
C322 C319 1.526 . S
C322 C323 1.396 . S
C322 C327 1.390 . S
C323 C317 1.465 . S
C323 C322 1.396 . S
C323 C324 1.399 . S
C324 H310 0.929 . S
C324 C323 1.399 . S
C324 C325 1.385 . S
C325 H311 0.931 . S
C325 C324 1.385 . S
C325 C326 1.389 . S
C326 C325 1.389 . S
C326 C327 1.387 . S
C327 H312 0.930 . S
C327 C322 1.390 . S
C327 C326 1.387 . S
H328 C340 0.930 . S
H329 C342 0.930 . S
H330 C343 0.930 . S
H331 C347 0.959 . S
H332 C347 0.959 . S
H333 C347 0.961 . S
H334 C348 0.960 . S
H335 C348 0.961 . S
H336 C348 0.959 . S
H337 C351 0.929 . S
H338 C352 0.931 . S
H339 C354 0.930 . S
C340 H328 0.930 . S
C340 C341 1.399 . S
C340 C345 1.399 . S
C341 C340 1.399 . S
C341 C342 1.376 1_554 S
C342 H329 0.930 . S
C342 C341 1.376 1_556 S
C342 C343 1.388 . S
C343 H330 0.930 . S
C343 C342 1.388 . S
C343 C344 1.390 . S
C344 C343 1.390 . S
C344 C345 1.394 1_556 S
C344 C350 1.465 . S
C345 C340 1.399 . S
C345 C344 1.394 1_554 S
C345 C346 1.516 . S
C346 C345 1.516 . S
C346 C347 1.502 . S
C346 C348 1.561 . S
C346 C349 1.526 . S
C347 H331 0.959 . S
C347 H332 0.959 . S
C347 H333 0.961 . S
C347 C346 1.502 . S
C348 H334 0.960 . S
C348 H335 0.961 . S
C348 H336 0.959 . S
C348 C346 1.561 . S
C349 C346 1.526 . S
C349 C350 1.396 1_554 S
C349 C354 1.390 . S
C350 C344 1.465 . S
C350 C349 1.396 1_556 S
C350 C351 1.399 . S
C351 H337 0.929 . S
C351 C350 1.399 . S
C351 C352 1.385 . S
C352 H338 0.931 . S
C352 C351 1.385 . S
C352 C353 1.389 . S
C353 C352 1.389 . S
C353 C354 1.387 1_556 S
C354 H339 0.930 . S
C354 C349 1.390 . S
C354 C353 1.387 1_554 S
H355 C367 0.930 . S
H356 C369 0.930 . S
H357 C370 0.930 . S
H358 C374 0.959 . S
H359 C374 0.959 . S
H360 C374 0.961 . S
H361 C375 0.960 . S
H362 C375 0.961 . S
H363 C375 0.959 . S
H364 C378 0.929 . S
H365 C379 0.931 . S
H366 C381 0.930 . S
C367 H355 0.930 . S
C367 C368 1.399 . S
C367 C372 1.399 . S
C368 C367 1.399 . S
C368 C369 1.376 1_554 S
C369 H356 0.930 . S
C369 C368 1.376 1_556 S
C369 C370 1.388 . S
C370 H357 0.930 . S
C370 C369 1.388 . S
C370 C371 1.390 . S
C371 C370 1.390 . S
C371 C372 1.394 1_556 S
C371 C377 1.465 . S
C372 C367 1.399 . S
C372 C371 1.394 1_554 S
C372 C373 1.516 . S
C373 C372 1.516 . S
C373 C374 1.502 . S
C373 C375 1.561 . S
C373 C376 1.526 . S
C374 H358 0.959 . S
C374 H359 0.959 . S
C374 H360 0.961 . S
C374 C373 1.502 . S
C375 H361 0.960 . S
C375 H362 0.961 . S
C375 H363 0.959 . S
C375 C373 1.561 . S
C376 C373 1.526 . S
C376 C377 1.396 1_554 S
C376 C381 1.390 . S
C377 C371 1.465 . S
C377 C376 1.396 1_556 S
C377 C378 1.399 . S
C378 H364 0.929 . S
C378 C377 1.399 . S
C378 C379 1.385 . S
C379 H365 0.931 . S
C379 C378 1.385 . S
C379 C380 1.389 . S
C380 C379 1.389 . S
C380 C381 1.387 1_556 S
C381 H366 0.930 . S
C381 C376 1.390 . S
C381 C380 1.387 1_554 S
H382 C394 0.930 . S
H383 C396 0.930 . S
H384 C397 0.930 . S
H385 C401 0.959 . S
H386 C401 0.959 . S
H387 C401 0.961 . S
H388 C402 0.960 . S
H389 C402 0.961 . S
H390 C402 0.959 . S
H391 C405 0.929 . S
H392 C406 0.931 . S
H393 C408 0.930 . S
C394 H382 0.930 . S
C394 C395 1.399 1_556 S
C394 C399 1.399 . S
C395 C394 1.399 1_554 S
C395 C396 1.376 . S
C396 H383 0.930 . S
C396 C395 1.376 . S
C396 C397 1.388 . S
C397 H384 0.930 . S
C397 C396 1.388 . S
C397 C398 1.390 . S
C398 C397 1.390 . S
C398 C399 1.394 1_554 S
C398 C404 1.465 . S
C399 C394 1.399 . S
C399 C398 1.394 1_556 S
C399 C400 1.516 . S
C400 C399 1.516 . S
C400 C401 1.502 . S
C400 C402 1.561 . S
C400 C403 1.526 . S
C401 H385 0.959 . S
C401 H386 0.959 . S
C401 H387 0.961 . S
C401 C400 1.502 . S
C402 H388 0.960 . S
C402 H389 0.961 . S
C402 H390 0.959 . S
C402 C400 1.561 . S
C403 C400 1.526 . S
C403 C404 1.396 1_556 S
C403 C408 1.390 . S
C404 C398 1.465 . S
C404 C403 1.396 1_554 S
C404 C405 1.399 . S
C405 H391 0.929 . S
C405 C404 1.399 . S
C405 C406 1.385 . S
C406 H392 0.931 . S
C406 C405 1.385 . S
C406 C407 1.389 1_554 S
C407 C406 1.389 1_556 S
C407 C408 1.387 . S
C408 H393 0.930 . S
C408 C403 1.390 . S
C408 C407 1.387 . S
H409 C421 0.930 . S
H410 C423 0.930 . S
H411 C424 0.930 . S
H412 C428 0.959 . S
H413 C428 0.959 . S
H414 C428 0.961 . S
H415 C429 0.960 . S
H416 C429 0.961 . S
H417 C429 0.959 . S
H418 C432 0.929 . S
H419 C433 0.931 . S
H420 C435 0.930 . S
C421 H409 0.930 . S
C421 C422 1.399 1_554 S
C421 C426 1.399 . S
C422 C421 1.399 1_556 S
C422 C423 1.376 . S
C423 H410 0.930 . S
C423 C422 1.376 . S
C423 C424 1.388 . S
C424 H411 0.930 . S
C424 C423 1.388 . S
C424 C425 1.390 . S
C425 C424 1.390 . S
C425 C426 1.394 1_556 S
C425 C431 1.465 . S
C426 C421 1.399 . S
C426 C425 1.394 1_554 S
C426 C427 1.516 . S
C427 C426 1.516 . S
C427 C428 1.502 . S
C427 C429 1.561 . S
C427 C430 1.526 . S
C428 H412 0.959 . S
C428 H413 0.959 . S
C428 H414 0.961 . S
C428 C427 1.502 . S
C429 H415 0.960 . S
C429 H416 0.961 . S
C429 H417 0.959 . S
C429 C427 1.561 . S
C430 C427 1.526 . S
C430 C431 1.396 1_554 S
C430 C435 1.390 . S
C431 C425 1.465 . S
C431 C430 1.396 1_556 S
C431 C432 1.399 . S
C432 H418 0.929 . S
C432 C431 1.399 . S
C432 C433 1.385 . S
C433 H419 0.931 . S
C433 C432 1.385 . S
C433 C434 1.389 1_556 S
C434 C433 1.389 1_554 S
C434 C435 1.387 . S
C435 H420 0.930 . S
C435 C430 1.390 . S
C435 C434 1.387 . S
H436 C448 0.930 . S
H437 C450 0.930 . S
H438 C451 0.930 . S
H439 C455 0.959 . S
H440 C455 0.959 . S
H441 C455 0.961 . S
H442 C456 0.960 . S
H443 C456 0.961 1_455 S
H444 C456 0.959 . S
H445 C459 0.929 1_655 S
H446 C460 0.931 . S
H447 C462 0.930 . S
C448 H436 0.930 . S
C448 C449 1.399 . S
C448 C453 1.399 . S
C449 C448 1.399 . S
C449 C450 1.376 . S
C450 H437 0.930 . S
C450 C449 1.376 . S
C450 C451 1.388 . S
C451 H438 0.930 . S
C451 C450 1.388 . S
C451 C452 1.390 . S
C452 C451 1.390 . S
C452 C453 1.394 . S
C452 C458 1.464 . S
C453 C448 1.399 . S
C453 C452 1.394 . S
C453 C454 1.516 1_655 S
C454 C453 1.516 1_455 S
C454 C455 1.502 . S
C454 C456 1.561 1_455 S
C454 C457 1.526 . S
C455 H439 0.959 . S
C455 H440 0.959 . S
C455 H441 0.961 . S
C455 C454 1.502 . S
C456 H442 0.960 . S
C456 H443 0.961 1_655 S
C456 H444 0.959 . S
C456 C454 1.561 1_655 S
C457 C454 1.526 . S
C457 C458 1.397 1_455 S
C457 C462 1.390 . S
C458 C452 1.464 . S
C458 C457 1.397 1_655 S
C458 C459 1.399 1_655 S
C459 H445 0.929 1_455 S
C459 C458 1.399 1_455 S
C459 C460 1.385 . S
C460 H446 0.931 . S
C460 C459 1.385 . S
C460 C461 1.389 . S
C461 C460 1.389 . S
C461 C462 1.387 . S
C462 H447 0.930 . S
C462 C457 1.390 . S
C462 C461 1.387 . S
H463 C475 0.930 . S
H464 C477 0.930 . S
H465 C478 0.935 . S
H466 C482 0.959 . S
H467 C482 0.959 . S
H468 C482 0.961 . S
H469 C483 0.960 . S
H470 C483 0.961 . S
H471 C483 0.959 . S
H472 C486 0.929 . S
H473 C487 0.931 . S
H474 C489 0.930 . S
C475 H463 0.930 . S
C475 C476 1.399 . S
C475 C480 1.399 . S
C476 C475 1.399 . S
C476 C477 1.376 . S
C477 H464 0.930 . S
C477 C476 1.376 . S
C477 C478 1.388 . S
C478 H465 0.935 . S
C478 C477 1.388 . S
C478 C479 1.390 . S
C479 C478 1.390 . S
C479 C480 1.394 . S
C479 C485 1.465 1_545 S
C480 C475 1.399 . S
C480 C479 1.394 . S
C480 C481 1.516 . S
C481 C480 1.516 . S
C481 C482 1.502 . S
C481 C483 1.561 1_545 S
C481 C484 1.526 1_545 S
C482 H466 0.959 . S
C482 H467 0.959 . S
C482 H468 0.961 . S
C482 C481 1.502 . S
C483 H469 0.960 . S
C483 H470 0.961 . S
C483 H471 0.959 . S
C483 C481 1.561 1_565 S
C484 C481 1.526 1_565 S
C484 C485 1.396 . S
C484 C489 1.390 . S
C485 C479 1.465 1_565 S
C485 C484 1.396 . S
C485 C486 1.399 . S
C486 H472 0.929 . S
C486 C485 1.399 . S
C486 C487 1.385 . S
C487 H473 0.931 . S
C487 C486 1.385 . S
C487 C488 1.389 . S
C488 C487 1.389 . S
C488 C489 1.387 . S
C489 H474 0.930 . S
C489 C484 1.390 . S
C489 C488 1.387 . S
H490 C502 0.930 . S
H491 C504 0.930 . S
H492 C505 0.930 . S
H493 C509 0.959 . S
H494 C509 0.959 . S
H495 C509 0.961 . S
H496 C510 0.960 . S
H497 C510 0.961 1_565 S
H498 C510 0.959 . S
H499 C513 0.929 . S
H500 C514 0.931 . S
H501 C516 0.930 . S
C502 H490 0.930 . S
C502 C503 1.399 1_554 S
C502 C507 1.399 . S
C503 C502 1.399 1_556 S
C503 C504 1.376 . S
C504 H491 0.930 . S
C504 C503 1.376 . S
C504 C505 1.388 . S
C505 H492 0.930 . S
C505 C504 1.388 . S
C505 C506 1.390 . S
C506 C505 1.390 . S
C506 C507 1.394 1_556 S
C506 C512 1.465 1_545 S
C507 C502 1.399 . S
C507 C506 1.394 1_554 S
C507 C508 1.516 1_545 S
C508 C507 1.516 1_565 S
C508 C509 1.502 . S
C508 C510 1.561 1_565 S
C508 C511 1.526 . S
C509 H493 0.959 . S
C509 H494 0.959 . S
C509 H495 0.961 . S
C509 C508 1.502 . S
C510 H496 0.960 . S
C510 H497 0.961 1_545 S
C510 H498 0.959 . S
C510 C508 1.561 1_545 S
C511 C508 1.526 . S
C511 C512 1.396 1_554 S
C511 C516 1.390 . S
C512 C506 1.465 1_565 S
C512 C511 1.396 1_556 S
C512 C513 1.399 . S
C513 H499 0.929 . S
C513 C512 1.399 . S
C513 C514 1.385 . S
C514 H500 0.931 . S
C514 C513 1.385 . S
C514 C515 1.389 . S
C515 C514 1.389 . S
C515 C516 1.387 1_556 S
C516 H501 0.930 . S
C516 C511 1.390 . S
C516 C515 1.387 1_554 S
H517 C529 0.930 . S
H518 C531 0.930 . S
H519 C532 0.930 . S
H520 C536 0.959 . S
H521 C536 0.959 . S
H522 C536 0.961 . S
H523 C537 0.960 . S
H524 C537 0.961 . S
H525 C537 0.959 1_556 S
H526 C540 0.929 . S
H527 C541 0.930 1_556 S
H528 C543 0.930 . S
C529 H517 0.930 . S
C529 C530 1.399 . S
C529 C534 1.399 . S
C530 C529 1.399 . S
C530 C531 1.376 1_554 S
C531 H518 0.930 . S
C531 C530 1.376 1_556 S
C531 C532 1.388 . S
C532 H519 0.930 . S
C532 C531 1.388 . S
C532 C533 1.390 1_556 S
C533 C532 1.390 1_554 S
C533 C534 1.394 . S
C533 C539 1.465 1_455 S
C534 C529 1.399 . S
C534 C533 1.394 . S
C534 C535 1.516 . S
C535 C534 1.516 . S
C535 C536 1.502 . S
C535 C537 1.561 . S
C535 C538 1.526 1_455 S
C536 H520 0.959 . S
C536 H521 0.959 . S
C536 H522 0.961 . S
C536 C535 1.502 . S
C537 H523 0.960 . S
C537 H524 0.961 . S
C537 H525 0.959 1_554 S
C537 C535 1.561 . S
C538 C535 1.526 1_655 S
C538 C539 1.396 . S
C538 C543 1.390 . S
C539 C533 1.465 1_655 S
C539 C538 1.396 . S
C539 C540 1.399 1_554 S
C540 H526 0.929 . S
C540 C539 1.399 1_556 S
C540 C541 1.385 1_556 S
C541 H527 0.930 1_554 S
C541 C540 1.385 1_554 S
C541 C542 1.391 . S
C542 C541 1.391 . S
C542 C543 1.387 . S
C543 H528 0.930 . S
C543 C538 1.390 . S
C543 C542 1.387 . S
C125 C98 1.514 . S
C137 C0 1.508 . S
C152 C25 1.567 . S
C164 C67 1.566 . S
C179 C28 1.490 . S
C191 C70 1.489 . S
C206 C95 1.551 . S
C218 C53 1.573 . S
C233 C19 1.480 1_545 S
C245 C11 1.463 . S
C260 C14 1.439 . S
C272 C37 1.441 1_455 S
C287 C47 1.492 1_565 S
C299 C39 1.463 . S
C314 C42 1.392 . S
C326 C9 1.436 1_655 S
C341 C107 1.435 . S
C353 C56 1.387 . S
C368 C81 1.485 . S
C380 C61 1.473 . S
C395 C79 1.440 . S
C407 C84 1.432 . S
C422 C89 1.475 . S
C434 C109 1.474 . S
C449 C33 1.087 . S
C461 C5 1.039 . S
C476 C51 1.018 . S
C488 C23 1.040 . S
C503 C93 1.020 . S
C515 C65 1.050 . S
C530 C103 1.123 . S
C542 C75 1.076 . S
