# Generated by pormake.
# Topology zni, (4)-cn, num edge types: 1
# Building blocks:
#     Node 0, Type 0, BuildingBlock: GALJAG_clean_sbu_0, # of connection points: 4
#     Node 1, Type 0, BuildingBlock: GALJAG_clean_sbu_0, # of connection points: 4
#     Node 2, Type 0, BuildingBlock: GALJAG_clean_sbu_0, # of connection points: 4
#     Node 3, Type 0, BuildingBlock: GALJAG_clean_sbu_0, # of connection points: 4
#     Node 4, Type 0, BuildingBlock: GALJAG_clean_sbu_0, # of connection points: 4
#     Node 5, Type 0, BuildingBlock: GALJAG_clean_sbu_0, # of connection points: 4
#     Node 6, Type 0, BuildingBlock: GALJAG_clean_sbu_0, # of connection points: 4
#     Node 7, Type 0, BuildingBlock: GALJAG_clean_sbu_0, # of connection points: 4
#     Node 8, Type 0, BuildingBlock: GALJAG_clean_sbu_0, # of connection points: 4
#     Node 9, Type 0, BuildingBlock: GALJAG_clean_sbu_0, # of connection points: 4
#     Node 10, Type 0, BuildingBlock: GALJAG_clean_sbu_0, # of connection points: 4
#     Node 11, Type 0, BuildingBlock: GALJAG_clean_sbu_0, # of connection points: 4
#     Node 12, Type 0, BuildingBlock: GALJAG_clean_sbu_0, # of connection points: 4
#     Node 13, Type 0, BuildingBlock: GALJAG_clean_sbu_0, # of connection points: 4
#     Node 14, Type 0, BuildingBlock: GALJAG_clean_sbu_0, # of connection points: 4
#     Node 15, Type 0, BuildingBlock: GALJAG_clean_sbu_0, # of connection points: 4
#     Node 16, Type 0, BuildingBlock: GALJAG_clean_sbu_0, # of connection points: 4
#     Node 17, Type 0, BuildingBlock: GALJAG_clean_sbu_0, # of connection points: 4
#     Node 18, Type 0, BuildingBlock: GALJAG_clean_sbu_0, # of connection points: 4
#     Node 19, Type 0, BuildingBlock: GALJAG_clean_sbu_0, # of connection points: 4
#     Node 20, Type 0, BuildingBlock: GALJAG_clean_sbu_0, # of connection points: 4
#     Node 21, Type 0, BuildingBlock: GALJAG_clean_sbu_0, # of connection points: 4
#     Node 22, Type 0, BuildingBlock: GALJAG_clean_sbu_0, # of connection points: 4
#     Node 23, Type 0, BuildingBlock: GALJAG_clean_sbu_0, # of connection points: 4
#     Node 24, Type 0, BuildingBlock: GALJAG_clean_sbu_0, # of connection points: 4
#     Node 25, Type 0, BuildingBlock: GALJAG_clean_sbu_0, # of connection points: 4
#     Node 26, Type 0, BuildingBlock: GALJAG_clean_sbu_0, # of connection points: 4
#     Node 27, Type 0, BuildingBlock: GALJAG_clean_sbu_0, # of connection points: 4
#     Node 28, Type 0, BuildingBlock: GALJAG_clean_sbu_0, # of connection points: 4
#     Node 29, Type 0, BuildingBlock: GALJAG_clean_sbu_0, # of connection points: 4
#     Node 30, Type 0, BuildingBlock: GALJAG_clean_sbu_0, # of connection points: 4
#     Node 31, Type 0, BuildingBlock: GALJAG_clean_sbu_0, # of connection points: 4
#     Edge 32, Type (0, 0), None
#     Edge 33, Type (0, 0), None
#     Edge 34, Type (0, 0), None
#     Edge 35, Type (0, 0), None
#     Edge 36, Type (0, 0), None
#     Edge 37, Type (0, 0), None
#     Edge 38, Type (0, 0), None
#     Edge 39, Type (0, 0), None
#     Edge 40, Type (0, 0), None
#     Edge 41, Type (0, 0), None
#     Edge 42, Type (0, 0), None
#     Edge 43, Type (0, 0), None
#     Edge 44, Type (0, 0), None
#     Edge 45, Type (0, 0), None
#     Edge 46, Type (0, 0), None
#     Edge 47, Type (0, 0), None
#     Edge 48, Type (0, 0), None
#     Edge 49, Type (0, 0), None
#     Edge 50, Type (0, 0), None
#     Edge 51, Type (0, 0), None
#     Edge 52, Type (0, 0), None
#     Edge 53, Type (0, 0), None
#     Edge 54, Type (0, 0), None
#     Edge 55, Type (0, 0), None
#     Edge 56, Type (0, 0), None
#     Edge 57, Type (0, 0), None
#     Edge 58, Type (0, 0), None
#     Edge 59, Type (0, 0), None
#     Edge 60, Type (0, 0), None
#     Edge 61, Type (0, 0), None
#     Edge 62, Type (0, 0), None
#     Edge 63, Type (0, 0), None
#     Edge 64, Type (0, 0), None
#     Edge 65, Type (0, 0), None
#     Edge 66, Type (0, 0), None
#     Edge 67, Type (0, 0), None
#     Edge 68, Type (0, 0), None
#     Edge 69, Type (0, 0), None
#     Edge 70, Type (0, 0), None
#     Edge 71, Type (0, 0), None
#     Edge 72, Type (0, 0), None
#     Edge 73, Type (0, 0), None
#     Edge 74, Type (0, 0), None
#     Edge 75, Type (0, 0), None
#     Edge 76, Type (0, 0), None
#     Edge 77, Type (0, 0), None
#     Edge 78, Type (0, 0), None
#     Edge 79, Type (0, 0), None
#     Edge 80, Type (0, 0), None
#     Edge 81, Type (0, 0), None
#     Edge 82, Type (0, 0), None
#     Edge 83, Type (0, 0), None
#     Edge 84, Type (0, 0), None
#     Edge 85, Type (0, 0), None
#     Edge 86, Type (0, 0), None
#     Edge 87, Type (0, 0), None
#     Edge 88, Type (0, 0), None
#     Edge 89, Type (0, 0), None
#     Edge 90, Type (0, 0), None
#     Edge 91, Type (0, 0), None
#     Edge 92, Type (0, 0), None
#     Edge 93, Type (0, 0), None
#     Edge 94, Type (0, 0), None
#     Edge 95, Type (0, 0), None
# Relax obj value: 0.234
# Max RMSD: 0.125
# Mean RMSD: 0.125
data_MOF--net-zni--node1-GALJAG_clean_sbu_0--edge1-none
_symmetry_space_group_name_H-M    P1
_symmetry_Int_Tables_number       1
_symmetry_cell_setting            triclinic
loop_
_symmetry_equiv_pos_as_xyz
'x, y, z'
_cell_length_a     26.23192
_cell_length_b     26.231918
_cell_length_c     13.789714
_cell_angle_alpha  89.989183
_cell_angle_beta   89.999901
_cell_angle_gamma 90.000011
loop_
_atom_site_label
_atom_site_type_symbol
_atom_site_fract_x
_atom_site_fract_y
_atom_site_fract_z
_atom_type_partial_charge
In0 In 0.10769 0.10215 0.39251 0.0
O1 O 0.13155 0.06904 0.24584 0.0
O2 O 0.12599 0.0183 0.36506 0.0
C3 C 0.13359 0.20082 0.37398 0.0
C4 C 0.00539 0.10996 0.37098 0.0
C5 C 0.15047 0.09111 0.56763 0.0
O6 O 0.15339 0.16688 0.32058 0.0
O7 O 0.10176 0.18487 0.43538 0.0
O8 O 0.10724 0.07295 0.54702 0.0
O9 O 0.17378 0.11171 0.49778 0.0
C10 C 0.13411 0.02375 0.27581 0.0
O11 O 0.02491 0.08786 0.44311 0.0
O12 O 0.0369 0.12647 0.30988 0.0
In13 In 0.15187 0.8577 0.64251 0.0
O14 O 0.18501 0.88158 0.49585 0.0
O15 O 0.23574 0.87598 0.61506 0.0
C16 C 0.05321 0.8836 0.62397 0.0
C17 C 0.14407 0.7554 0.62099 0.0
C18 C 0.16291 0.90049 0.81761 0.0
O19 O 0.08715 0.9034 0.57057 0.0
O20 O 0.06915 0.85176 0.68538 0.0
O21 O 0.18107 0.85725 0.79702 0.0
O22 O 0.14231 0.92379 0.74776 0.0
C23 C 0.2303 0.88411 0.52582 0.0
O24 O 0.16614 0.77492 0.69313 0.0
O25 O 0.12758 0.78691 0.55988 0.0
In26 In 0.39636 0.90186 0.89249 0.0
O27 O 0.47914 0.91614 0.94311 0.0
O28 O 0.46716 0.87757 0.80987 0.0
C29 C 0.35357 0.9129 0.0676 0.0
C30 C 0.36994 0.98029 0.7758 0.0
C31 C 0.37046 0.8032 0.87397 0.0
O32 O 0.39681 0.93106 0.04699 0.0
O33 O 0.33027 0.89229 -0.00222 0.0
O34 O 0.35067 0.83715 0.82055 0.0
O35 O 0.40228 0.81914 0.93538 0.0
C36 C 0.49866 0.89407 0.87098 0.0
O37 O 0.3725 0.935 0.74584 0.0
O38 O 0.37806 0.98572 0.86505 0.0
In39 In 0.35216 0.14637 0.14249 0.0
O40 O 0.31904 0.12252 -0.00418 0.0
O41 O 0.26831 0.12804 0.11504 0.0
C42 C 0.45083 0.12047 0.12397 0.0
C43 C 0.35996 0.24867 0.12096 0.0
C44 C 0.34113 0.10359 0.31762 0.0
O45 O 0.41689 0.10067 0.07057 0.0
O46 O 0.43489 0.15229 0.18537 0.0
O47 O 0.32296 0.14682 0.29699 0.0
O48 O 0.36173 0.08028 0.2478 0.0
C49 C 0.27376 0.11994 0.02579 0.0
O50 O 0.33787 0.22914 0.19308 0.0
O51 O 0.37647 0.21717 0.05987 0.0
In52 In 0.10769 0.90189 0.09285 0.0
O53 O 0.02491 0.91618 0.04226 0.0
O54 O 0.0369 0.87757 0.17549 0.0
C55 C 0.15046 0.9129 0.91776 0.0
C56 C 0.13408 0.98029 0.20954 0.0
C57 C 0.13359 0.80322 0.11138 0.0
O58 O 0.10722 0.93107 0.93832 0.0
O59 O 0.1738 0.89234 0.9876 0.0
O60 O 0.15339 0.83716 0.16478 0.0
O61 O 0.10175 0.81917 0.04999 0.0
C62 C 0.00539 0.89409 0.11439 0.0
O63 O 0.13155 0.935 0.23951 0.0
O64 O 0.12598 0.98575 0.12029 0.0
In65 In 0.35216 0.85768 0.34287 0.0
O66 O 0.31905 0.88153 0.48953 0.0
O67 O 0.26831 0.87599 0.37031 0.0
C68 C 0.45083 0.88357 0.36139 0.0
C69 C 0.35996 0.75538 0.36441 0.0
C70 C 0.34116 0.90044 0.16776 0.0
O71 O 0.41689 0.90337 0.4148 0.0
O72 O 0.43489 0.85175 0.29999 0.0
O73 O 0.32299 0.85721 0.18835 0.0
O74 O 0.36173 0.92378 0.23759 0.0
C75 C 0.27376 0.88407 0.45956 0.0
O76 O 0.33787 0.77491 0.29229 0.0
O77 O 0.37648 0.78688 0.4255 0.0
In78 In 0.39636 0.10218 0.59287 0.0
O79 O 0.47914 0.08791 0.54226 0.0
O80 O 0.46715 0.12648 0.6755 0.0
C81 C 0.35359 0.09118 0.41778 0.0
C82 C 0.36997 0.02376 0.70955 0.0
C83 C 0.37047 0.20085 0.6114 0.0
O84 O 0.39682 0.07301 0.43835 0.0
O85 O 0.33025 0.11175 0.48761 0.0
O86 O 0.35067 0.1669 0.66481 0.0
O87 O 0.40229 0.18491 0.54998 0.0
C88 C 0.49866 0.10998 0.6144 0.0
O89 O 0.37249 0.06904 0.73952 0.0
O90 O 0.37807 0.01832 0.6203 0.0
In91 In 0.15187 0.14635 0.84285 0.0
O92 O 0.185 0.12246 0.9895 0.0
O93 O 0.23574 0.12808 0.87028 0.0
C94 C 0.0532 0.12045 0.86139 0.0
C95 C 0.14407 0.24864 0.86438 0.0
C96 C 0.16288 0.10358 0.66778 0.0
O97 O 0.08715 0.10065 0.9148 0.0
O98 O 0.06915 0.15228 0.79998 0.0
O99 O 0.18104 0.14681 0.68833 0.0
O100 O 0.14232 0.08024 0.73763 0.0
C101 C 0.23029 0.11997 0.95953 0.0
O102 O 0.16614 0.22913 0.79224 0.0
O103 O 0.12757 0.21713 0.92549 0.0
In104 In 0.89636 0.90189 0.59287 0.0
O105 O 0.97913 0.91618 0.54227 0.0
O106 O 0.96715 0.87756 0.67548 0.0
C107 C 0.85357 0.91294 0.41774 0.0
C108 C 0.86994 0.9803 0.70957 0.0
C109 C 0.87045 0.80322 0.61139 0.0
O110 O 0.89681 0.93109 0.43835 0.0
O111 O 0.83026 0.89234 0.48759 0.0
O112 O 0.85065 0.83716 0.66479 0.0
O113 O 0.90228 0.81917 0.54999 0.0
C114 C 0.99865 0.89407 0.61438 0.0
O115 O 0.8725 0.935 0.73953 0.0
O116 O 0.87806 0.98575 0.62032 0.0
In117 In 0.85217 0.14635 0.34287 0.0
O118 O 0.8379 0.22913 0.29224 0.0
O119 O 0.87648 0.21714 0.42549 0.0
C120 C 0.84113 0.10356 0.16776 0.0
C121 C 0.77375 0.11994 0.45955 0.0
C122 C 0.95084 0.12045 0.36141 0.0
O123 O 0.82298 0.1468 0.18835 0.0
O124 O 0.86173 0.08025 0.23761 0.0
O125 O 0.91689 0.10064 0.41481 0.0
O126 O 0.9349 0.15228 0.29999 0.0
C127 C 0.85998 0.24864 0.36438 0.0
O128 O 0.81904 0.12247 0.48952 0.0
O129 O 0.76831 0.12807 0.37031 0.0
In130 In 0.60768 0.10218 0.09288 0.0
O131 O 0.63155 0.06904 0.23954 0.0
O132 O 0.62599 0.01832 0.12032 0.0
C133 C 0.63359 0.20085 0.1114 0.0
C134 C 0.50539 0.11 0.11438 0.0
C135 C 0.65047 0.09115 0.91777 0.0
O136 O 0.65338 0.1669 0.16482 0.0
O137 O 0.60177 0.18491 0.04998 0.0
O138 O 0.60724 0.07299 0.93838 0.0
O139 O 0.67378 0.11175 0.9876 0.0
C140 C 0.6341 0.02376 0.20957 0.0
O141 O 0.52491 0.0879 0.04227 0.0
O142 O 0.53689 0.12649 0.17549 0.0
In143 In 0.65188 0.85768 0.84288 0.0
O144 O 0.66618 0.77491 0.79229 0.0
O145 O 0.62756 0.78687 0.9255 0.0
C146 C 0.66292 0.90046 0.66775 0.0
C147 C 0.73029 0.8841 0.95958 0.0
C148 C 0.55321 0.88358 0.86141 0.0
O149 O 0.68108 0.85723 0.68838 0.0
O150 O 0.64231 0.92377 0.73758 0.0
O151 O 0.58716 0.90338 0.91481 0.0
O152 O 0.56915 0.85176 0.8 0.0
C153 C 0.64408 0.75538 0.86441 0.0
O154 O 0.685 0.88152 0.98955 0.0
O155 O 0.73573 0.87601 0.87033 0.0
In156 In 0.89636 0.10216 0.89252 0.0
O157 O 0.87249 0.06904 0.74586 0.0
O158 O 0.87807 0.01829 0.86508 0.0
C159 C 0.87045 0.20082 0.87399 0.0
C160 C 0.99865 0.10998 0.87099 0.0
C161 C 0.85359 0.09114 0.06762 0.0
O162 O 0.85065 0.16688 0.82059 0.0
O163 O 0.90228 0.18488 0.93539 0.0
O164 O 0.89682 0.07298 0.04705 0.0
O165 O 0.83025 0.1117 -0.00223 0.0
C166 C 0.86997 0.02375 0.77583 0.0
O167 O 0.97913 0.08786 0.9431 0.0
O168 O 0.96714 0.12649 0.80989 0.0
In169 In 0.65188 0.14637 0.6425 0.0
O170 O 0.66617 0.22914 0.69308 0.0
O171 O 0.62756 0.21717 0.55988 0.0
C172 C 0.66288 0.1036 0.81761 0.0
C173 C 0.73029 0.11998 0.52581 0.0
C174 C 0.55321 0.12047 0.62397 0.0
O175 O 0.68105 0.14683 0.79702 0.0
O176 O 0.64232 0.08026 0.74778 0.0
O177 O 0.58716 0.10067 0.57058 0.0
O178 O 0.56915 0.15229 0.68538 0.0
C179 C 0.64408 0.24867 0.62096 0.0
O180 O 0.685 0.12252 0.49584 0.0
O181 O 0.73574 0.12805 0.61507 0.0
In182 In 0.60768 0.90186 0.39251 0.0
O183 O 0.52491 0.91614 0.4431 0.0
O184 O 0.53689 0.87755 0.30988 0.0
C185 C 0.65045 0.91286 0.56759 0.0
C186 C 0.63407 0.98029 0.27582 0.0
C187 C 0.63358 0.8032 0.37398 0.0
O188 O 0.60722 0.93103 0.54702 0.0
O189 O 0.67379 0.8923 0.49776 0.0
O190 O 0.65337 0.83714 0.32056 0.0
O191 O 0.60177 0.81913 0.4354 0.0
C192 C 0.50539 0.89404 0.37099 0.0
O193 O 0.63155 0.935 0.24585 0.0
O194 O 0.62597 0.98573 0.36508 0.0
In195 In 0.85217 0.8577 0.14252 0.0
O196 O 0.81904 0.88158 -0.00414 0.0
O197 O 0.76831 0.87596 0.11509 0.0
C198 C 0.95084 0.8836 0.12397 0.0
C199 C 0.85998 0.7554 0.12099 0.0
C200 C 0.84117 0.90047 0.3176 0.0
O201 O 0.91689 0.9034 0.07057 0.0
O202 O 0.9349 0.85177 0.18539 0.0
O203 O 0.82301 0.85723 0.29705 0.0
O204 O 0.86173 0.92381 0.24774 0.0
C205 C 0.77375 0.88408 0.02584 0.0
O206 O 0.8379 0.77492 0.19313 0.0
O207 O 0.87648 0.78691 0.05988 0.0
In208 In 0.60769 0.60215 0.8925 0.0
O209 O 0.52491 0.58786 0.94311 0.0
O210 O 0.5369 0.62647 0.80988 0.0
C211 C 0.65047 0.59111 0.06763 0.0
C212 C 0.63411 0.52375 0.77581 0.0
C213 C 0.63359 0.70082 0.87397 0.0
O214 O 0.60724 0.57295 0.04702 0.0
O215 O 0.67378 0.61171 -0.00222 0.0
O216 O 0.6534 0.66688 0.82059 0.0
O217 O 0.60176 0.68488 0.93537 0.0
C218 C 0.50539 0.60996 0.87098 0.0
O219 O 0.63155 0.56904 0.74584 0.0
O220 O 0.62599 0.5183 0.86506 0.0
In221 In 0.65187 0.3577 0.14251 0.0
O222 O 0.68501 0.38158 -0.00415 0.0
O223 O 0.73574 0.37597 0.11506 0.0
C224 C 0.55321 0.3836 0.12398 0.0
C225 C 0.64406 0.2554 0.121 0.0
C226 C 0.66291 0.40048 0.31761 0.0
O227 O 0.58715 0.4034 0.07057 0.0
O228 O 0.56915 0.35177 0.18539 0.0
O229 O 0.68106 0.35725 0.29702 0.0
O230 O 0.64231 0.42379 0.24776 0.0
C231 C 0.7303 0.38411 0.02582 0.0
O232 O 0.66615 0.27492 0.19313 0.0
O233 O 0.62757 0.28691 0.05988 0.0
In234 In 0.89636 0.40186 0.39249 0.0
O235 O 0.97913 0.41614 0.44311 0.0
O236 O 0.96716 0.37757 0.30987 0.0
C237 C 0.85357 0.4129 0.5676 0.0
C238 C 0.86994 0.48029 0.2758 0.0
C239 C 0.87046 0.3032 0.37396 0.0
O240 O 0.89681 0.43105 0.54699 0.0
O241 O 0.83027 0.39229 0.49777 0.0
O242 O 0.85067 0.33715 0.32055 0.0
O243 O 0.90228 0.31913 0.43538 0.0
C244 C 0.99866 0.39407 0.37097 0.0
O245 O 0.8725 0.435 0.24583 0.0
O246 O 0.87805 0.48572 0.36505 0.0
In247 In 0.85216 0.64637 0.64249 0.0
O248 O 0.83787 0.72914 0.69308 0.0
O249 O 0.87649 0.71717 0.55988 0.0
C250 C 0.84113 0.60359 0.81762 0.0
C251 C 0.77376 0.61994 0.52579 0.0
C252 C 0.95083 0.62047 0.62398 0.0
O253 O 0.82297 0.64682 0.79699 0.0
O254 O 0.86173 0.58028 0.7478 0.0
O255 O 0.91689 0.60067 0.57057 0.0
O256 O 0.93489 0.65229 0.68538 0.0
C257 C 0.85998 0.74867 0.62098 0.0
O258 O 0.81904 0.62252 0.49582 0.0
O259 O 0.76831 0.62804 0.61504 0.0
In260 In 0.60769 0.40189 0.59286 0.0
O261 O 0.52491 0.41618 0.54227 0.0
O262 O 0.5369 0.37757 0.67549 0.0
C263 C 0.65046 0.4129 0.41776 0.0
C264 C 0.63408 0.48029 0.70955 0.0
C265 C 0.63359 0.30322 0.61139 0.0
O266 O 0.60722 0.43107 0.43832 0.0
O267 O 0.6738 0.39234 0.4876 0.0
O268 O 0.65339 0.33716 0.66478 0.0
O269 O 0.60175 0.31917 0.54999 0.0
C270 C 0.50539 0.39409 0.61439 0.0
O271 O 0.63155 0.435 0.73952 0.0
O272 O 0.62598 0.48575 0.62029 0.0
In273 In 0.85217 0.35768 0.84287 0.0
O274 O 0.81905 0.38152 0.98953 0.0
O275 O 0.76831 0.37599 0.87031 0.0
C276 C 0.95083 0.38358 0.86139 0.0
C277 C 0.85998 0.25538 0.8644 0.0
C278 C 0.84116 0.40044 0.66776 0.0
O279 O 0.91689 0.40337 0.9148 0.0
O280 O 0.93489 0.35175 0.79998 0.0
O281 O 0.82299 0.35721 0.68835 0.0
O282 O 0.86173 0.42378 0.73759 0.0
C283 C 0.77376 0.38407 0.95956 0.0
O284 O 0.83787 0.2749 0.79229 0.0
O285 O 0.87649 0.28688 0.92549 0.0
In286 In 0.89636 0.60219 0.09287 0.0
O287 O 0.97914 0.58791 0.04226 0.0
O288 O 0.96715 0.62648 0.1755 0.0
C289 C 0.85359 0.59118 0.91778 0.0
C290 C 0.86997 0.52376 0.20955 0.0
C291 C 0.87047 0.70085 0.11141 0.0
O292 O 0.89682 0.57302 0.93836 0.0
O293 O 0.83025 0.61175 0.98761 0.0
O294 O 0.85067 0.6669 0.16481 0.0
O295 O 0.90229 0.68491 0.04999 0.0
C296 C 0.99866 0.60998 0.1144 0.0
O297 O 0.87249 0.56904 0.23952 0.0
O298 O 0.87807 0.51832 0.1203 0.0
In299 In 0.65187 0.64635 0.34285 0.0
O300 O 0.685 0.62247 0.4895 0.0
O301 O 0.73574 0.62808 0.37028 0.0
C302 C 0.5532 0.62045 0.36139 0.0
C303 C 0.64405 0.74864 0.36437 0.0
C304 C 0.66288 0.60358 0.16777 0.0
O305 O 0.58715 0.60065 0.4148 0.0
O306 O 0.56915 0.65228 0.29997 0.0
O307 O 0.68104 0.64681 0.18832 0.0
O308 O 0.64232 0.58024 0.23763 0.0
C309 C 0.73029 0.61997 0.45953 0.0
O310 O 0.66614 0.72913 0.29224 0.0
O311 O 0.62756 0.71713 0.42549 0.0
In312 In 0.39635 0.40189 0.09287 0.0
O313 O 0.3725 0.435 0.23953 0.0
O314 O 0.37805 0.48575 0.12032 0.0
C315 C 0.37045 0.30322 0.1114 0.0
C316 C 0.49865 0.39407 0.11438 0.0
C317 C 0.35357 0.41293 0.91774 0.0
O318 O 0.35065 0.33716 0.16479 0.0
O319 O 0.40228 0.31917 0.05 0.0
O320 O 0.39681 0.43109 0.93835 0.0
O321 O 0.33026 0.39234 0.98759 0.0
C322 C 0.36994 0.4803 0.20957 0.0
O323 O 0.47913 0.41618 0.04227 0.0
O324 O 0.46715 0.37756 0.17548 0.0
In325 In 0.35217 0.64635 0.84286 0.0
O326 O 0.31904 0.62247 0.98952 0.0
O327 O 0.26831 0.62807 0.87031 0.0
C328 C 0.45084 0.62045 0.8614 0.0
C329 C 0.35999 0.74864 0.86437 0.0
C330 C 0.34113 0.60356 0.66776 0.0
O331 O 0.41689 0.60064 0.9148 0.0
O332 O 0.4349 0.65228 0.79999 0.0
O333 O 0.32298 0.6468 0.68835 0.0
O334 O 0.36173 0.58025 0.73761 0.0
C335 C 0.27375 0.61994 0.95955 0.0
O336 O 0.3379 0.72913 0.79225 0.0
O337 O 0.37649 0.71713 0.92549 0.0
In338 In 0.10768 0.60218 0.59288 0.0
O339 O 0.13154 0.56904 0.73954 0.0
O340 O 0.12599 0.51832 0.62032 0.0
C341 C 0.13359 0.70085 0.61141 0.0
C342 C 0.00539 0.61 0.61438 0.0
C343 C 0.15047 0.59115 0.41777 0.0
O344 O 0.15338 0.6669 0.66482 0.0
O345 O 0.10177 0.68491 0.54999 0.0
O346 O 0.10724 0.57299 0.43838 0.0
O347 O 0.17378 0.61175 0.4876 0.0
C348 C 0.1341 0.52376 0.70957 0.0
O349 O 0.02491 0.58791 0.54227 0.0
O350 O 0.03689 0.62649 0.6755 0.0
In351 In 0.15188 0.35768 0.34288 0.0
O352 O 0.16618 0.27491 0.29229 0.0
O353 O 0.12755 0.28688 0.42549 0.0
C354 C 0.16292 0.40046 0.16775 0.0
C355 C 0.23029 0.3841 0.45958 0.0
C356 C 0.05321 0.38358 0.3614 0.0
O357 O 0.18108 0.35723 0.18838 0.0
O358 O 0.14231 0.42377 0.23757 0.0
O359 O 0.08716 0.40338 0.4148 0.0
O360 O 0.06915 0.35176 0.3 0.0
C361 C 0.14406 0.25538 0.36439 0.0
O362 O 0.185 0.38152 0.48955 0.0
O363 O 0.23573 0.376 0.37033 0.0
In364 In 0.39636 0.60216 0.39252 0.0
O365 O 0.37249 0.56904 0.24585 0.0
O366 O 0.37807 0.5183 0.36508 0.0
C367 C 0.37045 0.70082 0.37398 0.0
C368 C 0.49865 0.60998 0.37099 0.0
C369 C 0.35359 0.59115 0.56761 0.0
O370 O 0.35065 0.66688 0.32059 0.0
O371 O 0.40228 0.68488 0.43539 0.0
O372 O 0.39682 0.57298 0.54705 0.0
O373 O 0.33025 0.61171 0.49777 0.0
C374 C 0.36997 0.52375 0.27583 0.0
O375 O 0.47913 0.58786 0.4431 0.0
O376 O 0.46714 0.62649 0.30989 0.0
In377 In 0.15188 0.64637 0.1425 0.0
O378 O 0.16617 0.72914 0.19308 0.0
O379 O 0.12755 0.71717 0.05988 0.0
C380 C 0.16288 0.60361 0.31761 0.0
C381 C 0.23029 0.61998 0.02581 0.0
C382 C 0.05321 0.62047 0.12397 0.0
O383 O 0.18105 0.64684 0.29702 0.0
O384 O 0.14232 0.58027 0.24778 0.0
O385 O 0.08716 0.60067 0.07058 0.0
O386 O 0.06915 0.65229 0.18539 0.0
C387 C 0.14406 0.74867 0.12098 0.0
O388 O 0.185 0.62252 -0.00416 0.0
O389 O 0.23573 0.62806 0.11507 0.0
In390 In 0.10768 0.40186 0.8925 0.0
O391 O 0.13155 0.435 0.74585 0.0
O392 O 0.12597 0.48572 0.86508 0.0
C393 C 0.13358 0.3032 0.87397 0.0
C394 C 0.00539 0.39404 0.87099 0.0
C395 C 0.15045 0.41286 0.06759 0.0
O396 O 0.15338 0.33715 0.82056 0.0
O397 O 0.10177 0.31913 0.93539 0.0
O398 O 0.10722 0.43103 0.04702 0.0
O399 O 0.17379 0.3923 -0.00224 0.0
C400 C 0.13407 0.48029 0.77582 0.0
O401 O 0.02491 0.41614 0.9431 0.0
O402 O 0.03689 0.37755 0.80988 0.0
In403 In 0.35217 0.3577 0.64252 0.0
O404 O 0.3379 0.27491 0.69313 0.0
O405 O 0.37649 0.28691 0.55989 0.0
C406 C 0.34117 0.40047 0.8176 0.0
C407 C 0.27375 0.38407 0.52584 0.0
C408 C 0.45084 0.3836 0.62398 0.0
O409 O 0.32301 0.35723 0.79705 0.0
O410 O 0.36173 0.42381 0.74775 0.0
O411 O 0.41689 0.4034 0.57058 0.0
O412 O 0.4349 0.35177 0.68539 0.0
C413 C 0.36 0.2554 0.621 0.0
O414 O 0.31904 0.38157 0.49586 0.0
O415 O 0.26831 0.37596 0.61509 0.0
loop_
_geom_bond_atom_site_label_1
_geom_bond_atom_site_label_2
_geom_bond_distance
_geom_bond_site_symmetry_2
_ccdc_geom_bond_type
In0 O1 2.294 . S
In0 O2 2.326 . S
In0 O6 2.266 . S
In0 O7 2.326 . S
In0 O8 2.266 . S
In0 O9 2.326 . S
In0 O11 2.294 . S
In0 O12 2.326 . S
O1 In0 2.294 . S
O1 C10 1.240 . S
O2 In0 2.326 . S
O2 C10 1.252 . S
C3 O6 1.252 . S
C3 O7 1.260 . S
C4 O11 1.240 . S
C4 O12 1.252 . S
C5 O8 1.252 . S
C5 O9 1.260 . S
O6 In0 2.266 . S
O6 C3 1.252 . S
O7 In0 2.326 . S
O7 C3 1.260 . S
O8 In0 2.266 . S
O8 C5 1.252 . S
O9 In0 2.326 . S
O9 C5 1.260 . S
C10 O1 1.240 . S
C10 O2 1.252 . S
O11 In0 2.294 . S
O11 C4 1.240 . S
O12 In0 2.326 . S
O12 C4 1.252 . S
In13 O14 2.294 . S
In13 O15 2.326 . S
In13 O19 2.266 . S
In13 O20 2.326 . S
In13 O21 2.266 . S
In13 O22 2.326 . S
In13 O24 2.294 . S
In13 O25 2.326 . S
O14 In13 2.294 . S
O14 C23 1.240 . S
O15 In13 2.326 . S
O15 C23 1.252 . S
C16 O19 1.252 . S
C16 O20 1.260 . S
C17 O24 1.240 . S
C17 O25 1.252 . S
C18 O21 1.252 . S
C18 O22 1.260 . S
O19 In13 2.266 . S
O19 C16 1.252 . S
O20 In13 2.326 . S
O20 C16 1.260 . S
O21 In13 2.266 . S
O21 C18 1.252 . S
O22 In13 2.326 . S
O22 C18 1.260 . S
C23 O14 1.240 . S
C23 O15 1.252 . S
O24 In13 2.294 . S
O24 C17 1.240 . S
O25 In13 2.326 . S
O25 C17 1.252 . S
In26 O27 2.294 . S
In26 O28 2.326 . S
In26 O32 2.266 1_556 S
In26 O33 2.326 . S
In26 O34 2.266 . S
In26 O35 2.326 . S
In26 O37 2.294 . S
In26 O38 2.326 . S
O27 In26 2.294 . S
O27 C36 1.240 . S
O28 In26 2.326 . S
O28 C36 1.252 . S
C29 O32 1.252 . S
C29 O33 1.260 1_554 S
C30 O37 1.240 . S
C30 O38 1.252 . S
C31 O34 1.252 . S
C31 O35 1.260 . S
O32 In26 2.266 1_554 S
O32 C29 1.252 . S
O33 In26 2.326 . S
O33 C29 1.260 1_556 S
O34 In26 2.266 . S
O34 C31 1.252 . S
O35 In26 2.326 . S
O35 C31 1.260 . S
C36 O27 1.240 . S
C36 O28 1.252 . S
O37 In26 2.294 . S
O37 C30 1.240 . S
O38 In26 2.326 . S
O38 C30 1.252 . S
In39 O40 2.294 . S
In39 O41 2.326 . S
In39 O45 2.266 . S
In39 O46 2.326 . S
In39 O47 2.266 . S
In39 O48 2.326 . S
In39 O50 2.294 . S
In39 O51 2.326 . S
O40 In39 2.294 . S
O40 C49 1.240 . S
O41 In39 2.326 . S
O41 C49 1.252 . S
C42 O45 1.252 . S
C42 O46 1.260 . S
C43 O50 1.240 . S
C43 O51 1.252 . S
C44 O47 1.252 . S
C44 O48 1.260 . S
O45 In39 2.266 . S
O45 C42 1.252 . S
O46 In39 2.326 . S
O46 C42 1.260 . S
O47 In39 2.266 . S
O47 C44 1.252 . S
O48 In39 2.326 . S
O48 C44 1.260 . S
C49 O40 1.240 . S
C49 O41 1.252 . S
O50 In39 2.294 . S
O50 C43 1.240 . S
O51 In39 2.326 . S
O51 C43 1.252 . S
In52 O53 2.294 . S
In52 O54 2.326 . S
In52 O58 2.266 1_554 S
In52 O59 2.326 . S
In52 O60 2.266 . S
In52 O61 2.326 . S
In52 O63 2.294 . S
In52 O64 2.326 . S
O53 In52 2.294 . S
O53 C62 1.240 . S
O54 In52 2.326 . S
O54 C62 1.252 . S
C55 O58 1.252 . S
C55 O59 1.260 1_556 S
C56 O63 1.240 . S
C56 O64 1.252 . S
C57 O60 1.252 . S
C57 O61 1.260 . S
O58 In52 2.266 1_556 S
O58 C55 1.252 . S
O59 In52 2.326 . S
O59 C55 1.260 1_554 S
O60 In52 2.266 . S
O60 C57 1.252 . S
O61 In52 2.326 . S
O61 C57 1.260 . S
C62 O53 1.240 . S
C62 O54 1.252 . S
O63 In52 2.294 . S
O63 C56 1.240 . S
O64 In52 2.326 . S
O64 C56 1.252 . S
In65 O66 2.294 . S
In65 O67 2.326 . S
In65 O71 2.266 . S
In65 O72 2.326 . S
In65 O73 2.266 . S
In65 O74 2.326 . S
In65 O76 2.294 . S
In65 O77 2.326 . S
O66 In65 2.294 . S
O66 C75 1.240 . S
O67 In65 2.326 . S
O67 C75 1.252 . S
C68 O71 1.252 . S
C68 O72 1.260 . S
C69 O76 1.240 . S
C69 O77 1.252 . S
C70 O73 1.252 . S
C70 O74 1.260 . S
O71 In65 2.266 . S
O71 C68 1.252 . S
O72 In65 2.326 . S
O72 C68 1.260 . S
O73 In65 2.266 . S
O73 C70 1.252 . S
O74 In65 2.326 . S
O74 C70 1.260 . S
C75 O66 1.240 . S
C75 O67 1.252 . S
O76 In65 2.294 . S
O76 C69 1.240 . S
O77 In65 2.326 . S
O77 C69 1.252 . S
In78 O79 2.294 . S
In78 O80 2.326 . S
In78 O84 2.266 . S
In78 O85 2.326 . S
In78 O86 2.266 . S
In78 O87 2.326 . S
In78 O89 2.294 . S
In78 O90 2.326 . S
O79 In78 2.294 . S
O79 C88 1.240 . S
O80 In78 2.326 . S
O80 C88 1.252 . S
C81 O84 1.252 . S
C81 O85 1.260 . S
C82 O89 1.240 . S
C82 O90 1.252 . S
C83 O86 1.252 . S
C83 O87 1.260 . S
O84 In78 2.266 . S
O84 C81 1.252 . S
O85 In78 2.326 . S
O85 C81 1.260 . S
O86 In78 2.266 . S
O86 C83 1.252 . S
O87 In78 2.326 . S
O87 C83 1.260 . S
C88 O79 1.240 . S
C88 O80 1.252 . S
O89 In78 2.294 . S
O89 C82 1.240 . S
O90 In78 2.326 . S
O90 C82 1.252 . S
In91 O92 2.294 . S
In91 O93 2.326 . S
In91 O97 2.266 . S
In91 O98 2.326 . S
In91 O99 2.266 . S
In91 O100 2.326 . S
In91 O102 2.294 . S
In91 O103 2.326 . S
O92 In91 2.294 . S
O92 C101 1.240 . S
O93 In91 2.326 . S
O93 C101 1.252 . S
C94 O97 1.252 . S
C94 O98 1.260 . S
C95 O102 1.240 . S
C95 O103 1.252 . S
C96 O99 1.252 . S
C96 O100 1.260 . S
O97 In91 2.266 . S
O97 C94 1.252 . S
O98 In91 2.326 . S
O98 C94 1.260 . S
O99 In91 2.266 . S
O99 C96 1.252 . S
O100 In91 2.326 . S
O100 C96 1.260 . S
C101 O92 1.240 . S
C101 O93 1.252 . S
O102 In91 2.294 . S
O102 C95 1.240 . S
O103 In91 2.326 . S
O103 C95 1.252 . S
In104 O105 2.294 . S
In104 O106 2.326 . S
In104 O110 2.266 . S
In104 O111 2.326 . S
In104 O112 2.266 . S
In104 O113 2.326 . S
In104 O115 2.294 . S
In104 O116 2.326 . S
O105 In104 2.294 . S
O105 C114 1.240 . S
O106 In104 2.326 . S
O106 C114 1.252 . S
C107 O110 1.252 . S
C107 O111 1.260 . S
C108 O115 1.240 . S
C108 O116 1.252 . S
C109 O112 1.252 . S
C109 O113 1.260 . S
O110 In104 2.266 . S
O110 C107 1.252 . S
O111 In104 2.326 . S
O111 C107 1.260 . S
O112 In104 2.266 . S
O112 C109 1.252 . S
O113 In104 2.326 . S
O113 C109 1.260 . S
C114 O105 1.240 . S
C114 O106 1.252 . S
O115 In104 2.294 . S
O115 C108 1.240 . S
O116 In104 2.326 . S
O116 C108 1.252 . S
In117 O118 2.294 . S
In117 O119 2.326 . S
In117 O123 2.266 . S
In117 O124 2.326 . S
In117 O125 2.266 . S
In117 O126 2.326 . S
In117 O128 2.294 . S
In117 O129 2.326 . S
O118 In117 2.294 . S
O118 C127 1.240 . S
O119 In117 2.326 . S
O119 C127 1.252 . S
C120 O123 1.252 . S
C120 O124 1.260 . S
C121 O128 1.240 . S
C121 O129 1.252 . S
C122 O125 1.252 . S
C122 O126 1.260 . S
O123 In117 2.266 . S
O123 C120 1.252 . S
O124 In117 2.326 . S
O124 C120 1.260 . S
O125 In117 2.266 . S
O125 C122 1.252 . S
O126 In117 2.326 . S
O126 C122 1.260 . S
C127 O118 1.240 . S
C127 O119 1.252 . S
O128 In117 2.294 . S
O128 C121 1.240 . S
O129 In117 2.326 . S
O129 C121 1.252 . S
In130 O131 2.294 . S
In130 O132 2.326 . S
In130 O136 2.266 . S
In130 O137 2.326 . S
In130 O138 2.266 1_554 S
In130 O139 2.326 . S
In130 O141 2.294 . S
In130 O142 2.326 . S
O131 In130 2.294 . S
O131 C140 1.240 . S
O132 In130 2.326 . S
O132 C140 1.252 . S
C133 O136 1.252 . S
C133 O137 1.260 . S
C134 O141 1.240 . S
C134 O142 1.252 . S
C135 O138 1.252 . S
C135 O139 1.260 1_556 S
O136 In130 2.266 . S
O136 C133 1.252 . S
O137 In130 2.326 . S
O137 C133 1.260 . S
O138 In130 2.266 1_556 S
O138 C135 1.252 . S
O139 In130 2.326 . S
O139 C135 1.260 1_554 S
C140 O131 1.240 . S
C140 O132 1.252 . S
O141 In130 2.294 . S
O141 C134 1.240 . S
O142 In130 2.326 . S
O142 C134 1.252 . S
In143 O144 2.294 . S
In143 O145 2.326 . S
In143 O149 2.266 . S
In143 O150 2.326 . S
In143 O151 2.266 . S
In143 O152 2.326 . S
In143 O154 2.294 . S
In143 O155 2.326 . S
O144 In143 2.294 . S
O144 C153 1.240 . S
O145 In143 2.326 . S
O145 C153 1.252 . S
C146 O149 1.252 . S
C146 O150 1.260 . S
C147 O154 1.240 . S
C147 O155 1.252 . S
C148 O151 1.252 . S
C148 O152 1.260 . S
O149 In143 2.266 . S
O149 C146 1.252 . S
O150 In143 2.326 . S
O150 C146 1.260 . S
O151 In143 2.266 . S
O151 C148 1.252 . S
O152 In143 2.326 . S
O152 C148 1.260 . S
C153 O144 1.240 . S
C153 O145 1.252 . S
O154 In143 2.294 . S
O154 C147 1.240 . S
O155 In143 2.326 . S
O155 C147 1.252 . S
In156 O157 2.294 . S
In156 O158 2.326 . S
In156 O162 2.266 . S
In156 O163 2.326 . S
In156 O164 2.266 1_556 S
In156 O165 2.326 . S
In156 O167 2.294 . S
In156 O168 2.326 . S
O157 In156 2.294 . S
O157 C166 1.240 . S
O158 In156 2.326 . S
O158 C166 1.252 . S
C159 O162 1.252 . S
C159 O163 1.260 . S
C160 O167 1.240 . S
C160 O168 1.252 . S
C161 O164 1.252 . S
C161 O165 1.260 1_554 S
O162 In156 2.266 . S
O162 C159 1.252 . S
O163 In156 2.326 . S
O163 C159 1.260 . S
O164 In156 2.266 1_554 S
O164 C161 1.252 . S
O165 In156 2.326 . S
O165 C161 1.260 1_556 S
C166 O157 1.240 . S
C166 O158 1.252 . S
O167 In156 2.294 . S
O167 C160 1.240 . S
O168 In156 2.326 . S
O168 C160 1.252 . S
In169 O170 2.294 . S
In169 O171 2.326 . S
In169 O175 2.266 . S
In169 O176 2.326 . S
In169 O177 2.266 . S
In169 O178 2.326 . S
In169 O180 2.294 . S
In169 O181 2.326 . S
O170 In169 2.294 . S
O170 C179 1.240 . S
O171 In169 2.326 . S
O171 C179 1.252 . S
C172 O175 1.252 . S
C172 O176 1.260 . S
C173 O180 1.240 . S
C173 O181 1.252 . S
C174 O177 1.252 . S
C174 O178 1.260 . S
O175 In169 2.266 . S
O175 C172 1.252 . S
O176 In169 2.326 . S
O176 C172 1.260 . S
O177 In169 2.266 . S
O177 C174 1.252 . S
O178 In169 2.326 . S
O178 C174 1.260 . S
C179 O170 1.240 . S
C179 O171 1.252 . S
O180 In169 2.294 . S
O180 C173 1.240 . S
O181 In169 2.326 . S
O181 C173 1.252 . S
In182 O183 2.294 . S
In182 O184 2.326 . S
In182 O188 2.266 . S
In182 O189 2.326 . S
In182 O190 2.266 . S
In182 O191 2.326 . S
In182 O193 2.294 . S
In182 O194 2.326 . S
O183 In182 2.294 . S
O183 C192 1.240 . S
O184 In182 2.326 . S
O184 C192 1.252 . S
C185 O188 1.252 . S
C185 O189 1.260 . S
C186 O193 1.240 . S
C186 O194 1.252 . S
C187 O190 1.252 . S
C187 O191 1.260 . S
O188 In182 2.266 . S
O188 C185 1.252 . S
O189 In182 2.326 . S
O189 C185 1.260 . S
O190 In182 2.266 . S
O190 C187 1.252 . S
O191 In182 2.326 . S
O191 C187 1.260 . S
C192 O183 1.240 . S
C192 O184 1.252 . S
O193 In182 2.294 . S
O193 C186 1.240 . S
O194 In182 2.326 . S
O194 C186 1.252 . S
In195 O196 2.294 . S
In195 O197 2.326 . S
In195 O201 2.266 . S
In195 O202 2.326 . S
In195 O203 2.266 . S
In195 O204 2.326 . S
In195 O206 2.294 . S
In195 O207 2.326 . S
O196 In195 2.294 . S
O196 C205 1.240 . S
O197 In195 2.326 . S
O197 C205 1.252 . S
C198 O201 1.252 . S
C198 O202 1.260 . S
C199 O206 1.240 . S
C199 O207 1.252 . S
C200 O203 1.252 . S
C200 O204 1.260 . S
O201 In195 2.266 . S
O201 C198 1.252 . S
O202 In195 2.326 . S
O202 C198 1.260 . S
O203 In195 2.266 . S
O203 C200 1.252 . S
O204 In195 2.326 . S
O204 C200 1.260 . S
C205 O196 1.240 . S
C205 O197 1.252 . S
O206 In195 2.294 . S
O206 C199 1.240 . S
O207 In195 2.326 . S
O207 C199 1.252 . S
In208 O209 2.294 . S
In208 O210 2.326 . S
In208 O214 2.266 1_556 S
In208 O215 2.326 . S
In208 O216 2.266 . S
In208 O217 2.326 . S
In208 O219 2.294 . S
In208 O220 2.326 . S
O209 In208 2.294 . S
O209 C218 1.240 . S
O210 In208 2.326 . S
O210 C218 1.252 . S
C211 O214 1.252 . S
C211 O215 1.260 1_554 S
C212 O219 1.240 . S
C212 O220 1.252 . S
C213 O216 1.252 . S
C213 O217 1.260 . S
O214 In208 2.266 1_554 S
O214 C211 1.252 . S
O215 In208 2.326 . S
O215 C211 1.260 1_556 S
O216 In208 2.266 . S
O216 C213 1.252 . S
O217 In208 2.326 . S
O217 C213 1.260 . S
C218 O209 1.240 . S
C218 O210 1.252 . S
O219 In208 2.294 . S
O219 C212 1.240 . S
O220 In208 2.326 . S
O220 C212 1.252 . S
In221 O222 2.294 . S
In221 O223 2.326 . S
In221 O227 2.266 . S
In221 O228 2.326 . S
In221 O229 2.266 . S
In221 O230 2.326 . S
In221 O232 2.294 . S
In221 O233 2.326 . S
O222 In221 2.294 . S
O222 C231 1.240 . S
O223 In221 2.326 . S
O223 C231 1.252 . S
C224 O227 1.252 . S
C224 O228 1.260 . S
C225 O232 1.240 . S
C225 O233 1.252 . S
C226 O229 1.252 . S
C226 O230 1.260 . S
O227 In221 2.266 . S
O227 C224 1.252 . S
O228 In221 2.326 . S
O228 C224 1.260 . S
O229 In221 2.266 . S
O229 C226 1.252 . S
O230 In221 2.326 . S
O230 C226 1.260 . S
C231 O222 1.240 . S
C231 O223 1.252 . S
O232 In221 2.294 . S
O232 C225 1.240 . S
O233 In221 2.326 . S
O233 C225 1.252 . S
In234 O235 2.294 . S
In234 O236 2.326 . S
In234 O240 2.266 . S
In234 O241 2.326 . S
In234 O242 2.266 . S
In234 O243 2.326 . S
In234 O245 2.294 . S
In234 O246 2.326 . S
O235 In234 2.294 . S
O235 C244 1.240 . S
O236 In234 2.326 . S
O236 C244 1.252 . S
C237 O240 1.252 . S
C237 O241 1.260 . S
C238 O245 1.240 . S
C238 O246 1.252 . S
C239 O242 1.252 . S
C239 O243 1.260 . S
O240 In234 2.266 . S
O240 C237 1.252 . S
O241 In234 2.326 . S
O241 C237 1.260 . S
O242 In234 2.266 . S
O242 C239 1.252 . S
O243 In234 2.326 . S
O243 C239 1.260 . S
C244 O235 1.240 . S
C244 O236 1.252 . S
O245 In234 2.294 . S
O245 C238 1.240 . S
O246 In234 2.326 . S
O246 C238 1.252 . S
In247 O248 2.294 . S
In247 O249 2.326 . S
In247 O253 2.266 . S
In247 O254 2.326 . S
In247 O255 2.266 . S
In247 O256 2.326 . S
In247 O258 2.294 . S
In247 O259 2.326 . S
O248 In247 2.294 . S
O248 C257 1.240 . S
O249 In247 2.326 . S
O249 C257 1.252 . S
C250 O253 1.252 . S
C250 O254 1.260 . S
C251 O258 1.240 . S
C251 O259 1.252 . S
C252 O255 1.252 . S
C252 O256 1.260 . S
O253 In247 2.266 . S
O253 C250 1.252 . S
O254 In247 2.326 . S
O254 C250 1.260 . S
O255 In247 2.266 . S
O255 C252 1.252 . S
O256 In247 2.326 . S
O256 C252 1.260 . S
C257 O248 1.240 . S
C257 O249 1.252 . S
O258 In247 2.294 . S
O258 C251 1.240 . S
O259 In247 2.326 . S
O259 C251 1.252 . S
In260 O261 2.294 . S
In260 O262 2.326 . S
In260 O266 2.266 . S
In260 O267 2.326 . S
In260 O268 2.266 . S
In260 O269 2.326 . S
In260 O271 2.294 . S
In260 O272 2.326 . S
O261 In260 2.294 . S
O261 C270 1.240 . S
O262 In260 2.326 . S
O262 C270 1.252 . S
C263 O266 1.252 . S
C263 O267 1.260 . S
C264 O271 1.240 . S
C264 O272 1.252 . S
C265 O268 1.252 . S
C265 O269 1.260 . S
O266 In260 2.266 . S
O266 C263 1.252 . S
O267 In260 2.326 . S
O267 C263 1.260 . S
O268 In260 2.266 . S
O268 C265 1.252 . S
O269 In260 2.326 . S
O269 C265 1.260 . S
C270 O261 1.240 . S
C270 O262 1.252 . S
O271 In260 2.294 . S
O271 C264 1.240 . S
O272 In260 2.326 . S
O272 C264 1.252 . S
In273 O274 2.294 . S
In273 O275 2.326 . S
In273 O279 2.266 . S
In273 O280 2.326 . S
In273 O281 2.266 . S
In273 O282 2.326 . S
In273 O284 2.294 . S
In273 O285 2.326 . S
O274 In273 2.294 . S
O274 C283 1.240 . S
O275 In273 2.326 . S
O275 C283 1.252 . S
C276 O279 1.252 . S
C276 O280 1.260 . S
C277 O284 1.240 . S
C277 O285 1.252 . S
C278 O281 1.252 . S
C278 O282 1.260 . S
O279 In273 2.266 . S
O279 C276 1.252 . S
O280 In273 2.326 . S
O280 C276 1.260 . S
O281 In273 2.266 . S
O281 C278 1.252 . S
O282 In273 2.326 . S
O282 C278 1.260 . S
C283 O274 1.240 . S
C283 O275 1.252 . S
O284 In273 2.294 . S
O284 C277 1.240 . S
O285 In273 2.326 . S
O285 C277 1.252 . S
In286 O287 2.294 . S
In286 O288 2.326 . S
In286 O292 2.266 1_554 S
In286 O293 2.326 . S
In286 O294 2.266 . S
In286 O295 2.326 . S
In286 O297 2.294 . S
In286 O298 2.326 . S
O287 In286 2.294 . S
O287 C296 1.240 . S
O288 In286 2.326 . S
O288 C296 1.252 . S
C289 O292 1.252 . S
C289 O293 1.260 1_556 S
C290 O297 1.240 . S
C290 O298 1.252 . S
C291 O294 1.252 . S
C291 O295 1.260 . S
O292 In286 2.266 1_556 S
O292 C289 1.252 . S
O293 In286 2.326 . S
O293 C289 1.260 1_554 S
O294 In286 2.266 . S
O294 C291 1.252 . S
O295 In286 2.326 . S
O295 C291 1.260 . S
C296 O287 1.240 . S
C296 O288 1.252 . S
O297 In286 2.294 . S
O297 C290 1.240 . S
O298 In286 2.326 . S
O298 C290 1.252 . S
In299 O300 2.294 . S
In299 O301 2.326 . S
In299 O305 2.266 . S
In299 O306 2.326 . S
In299 O307 2.266 . S
In299 O308 2.326 . S
In299 O310 2.294 . S
In299 O311 2.326 . S
O300 In299 2.294 . S
O300 C309 1.240 . S
O301 In299 2.326 . S
O301 C309 1.252 . S
C302 O305 1.252 . S
C302 O306 1.260 . S
C303 O310 1.240 . S
C303 O311 1.252 . S
C304 O307 1.252 . S
C304 O308 1.260 . S
O305 In299 2.266 . S
O305 C302 1.252 . S
O306 In299 2.326 . S
O306 C302 1.260 . S
O307 In299 2.266 . S
O307 C304 1.252 . S
O308 In299 2.326 . S
O308 C304 1.260 . S
C309 O300 1.240 . S
C309 O301 1.252 . S
O310 In299 2.294 . S
O310 C303 1.240 . S
O311 In299 2.326 . S
O311 C303 1.252 . S
In312 O313 2.294 . S
In312 O314 2.326 . S
In312 O318 2.266 . S
In312 O319 2.326 . S
In312 O320 2.266 1_554 S
In312 O321 2.326 . S
In312 O323 2.294 . S
In312 O324 2.326 . S
O313 In312 2.294 . S
O313 C322 1.240 . S
O314 In312 2.326 . S
O314 C322 1.252 . S
C315 O318 1.252 . S
C315 O319 1.260 . S
C316 O323 1.240 . S
C316 O324 1.252 . S
C317 O320 1.252 . S
C317 O321 1.260 1_556 S
O318 In312 2.266 . S
O318 C315 1.252 . S
O319 In312 2.326 . S
O319 C315 1.260 . S
O320 In312 2.266 1_556 S
O320 C317 1.252 . S
O321 In312 2.326 . S
O321 C317 1.260 1_554 S
C322 O313 1.240 . S
C322 O314 1.252 . S
O323 In312 2.294 . S
O323 C316 1.240 . S
O324 In312 2.326 . S
O324 C316 1.252 . S
In325 O326 2.294 . S
In325 O327 2.326 . S
In325 O331 2.266 . S
In325 O332 2.326 . S
In325 O333 2.266 . S
In325 O334 2.326 . S
In325 O336 2.294 . S
In325 O337 2.326 . S
O326 In325 2.294 . S
O326 C335 1.240 . S
O327 In325 2.326 . S
O327 C335 1.252 . S
C328 O331 1.252 . S
C328 O332 1.260 . S
C329 O336 1.240 . S
C329 O337 1.252 . S
C330 O333 1.252 . S
C330 O334 1.260 . S
O331 In325 2.266 . S
O331 C328 1.252 . S
O332 In325 2.326 . S
O332 C328 1.260 . S
O333 In325 2.266 . S
O333 C330 1.252 . S
O334 In325 2.326 . S
O334 C330 1.260 . S
C335 O326 1.240 . S
C335 O327 1.252 . S
O336 In325 2.294 . S
O336 C329 1.240 . S
O337 In325 2.326 . S
O337 C329 1.252 . S
In338 O339 2.294 . S
In338 O340 2.326 . S
In338 O344 2.266 . S
In338 O345 2.326 . S
In338 O346 2.266 . S
In338 O347 2.326 . S
In338 O349 2.294 . S
In338 O350 2.326 . S
O339 In338 2.294 . S
O339 C348 1.240 . S
O340 In338 2.326 . S
O340 C348 1.252 . S
C341 O344 1.252 . S
C341 O345 1.260 . S
C342 O349 1.240 . S
C342 O350 1.252 . S
C343 O346 1.252 . S
C343 O347 1.260 . S
O344 In338 2.266 . S
O344 C341 1.252 . S
O345 In338 2.326 . S
O345 C341 1.260 . S
O346 In338 2.266 . S
O346 C343 1.252 . S
O347 In338 2.326 . S
O347 C343 1.260 . S
C348 O339 1.240 . S
C348 O340 1.252 . S
O349 In338 2.294 . S
O349 C342 1.240 . S
O350 In338 2.326 . S
O350 C342 1.252 . S
In351 O352 2.294 . S
In351 O353 2.326 . S
In351 O357 2.266 . S
In351 O358 2.326 . S
In351 O359 2.266 . S
In351 O360 2.326 . S
In351 O362 2.294 . S
In351 O363 2.326 . S
O352 In351 2.294 . S
O352 C361 1.240 . S
O353 In351 2.326 . S
O353 C361 1.252 . S
C354 O357 1.252 . S
C354 O358 1.260 . S
C355 O362 1.240 . S
C355 O363 1.252 . S
C356 O359 1.252 . S
C356 O360 1.260 . S
O357 In351 2.266 . S
O357 C354 1.252 . S
O358 In351 2.326 . S
O358 C354 1.260 . S
O359 In351 2.266 . S
O359 C356 1.252 . S
O360 In351 2.326 . S
O360 C356 1.260 . S
C361 O352 1.240 . S
C361 O353 1.252 . S
O362 In351 2.294 . S
O362 C355 1.240 . S
O363 In351 2.326 . S
O363 C355 1.252 . S
In364 O365 2.294 . S
In364 O366 2.326 . S
In364 O370 2.266 . S
In364 O371 2.326 . S
In364 O372 2.266 . S
In364 O373 2.326 . S
In364 O375 2.294 . S
In364 O376 2.326 . S
O365 In364 2.294 . S
O365 C374 1.240 . S
O366 In364 2.326 . S
O366 C374 1.252 . S
C367 O370 1.252 . S
C367 O371 1.260 . S
C368 O375 1.240 . S
C368 O376 1.252 . S
C369 O372 1.252 . S
C369 O373 1.260 . S
O370 In364 2.266 . S
O370 C367 1.252 . S
O371 In364 2.326 . S
O371 C367 1.260 . S
O372 In364 2.266 . S
O372 C369 1.252 . S
O373 In364 2.326 . S
O373 C369 1.260 . S
C374 O365 1.240 . S
C374 O366 1.252 . S
O375 In364 2.294 . S
O375 C368 1.240 . S
O376 In364 2.326 . S
O376 C368 1.252 . S
In377 O378 2.294 . S
In377 O379 2.326 . S
In377 O383 2.266 . S
In377 O384 2.326 . S
In377 O385 2.266 . S
In377 O386 2.326 . S
In377 O388 2.294 . S
In377 O389 2.326 . S
O378 In377 2.294 . S
O378 C387 1.240 . S
O379 In377 2.326 . S
O379 C387 1.252 . S
C380 O383 1.252 . S
C380 O384 1.260 . S
C381 O388 1.240 . S
C381 O389 1.252 . S
C382 O385 1.252 . S
C382 O386 1.260 . S
O383 In377 2.266 . S
O383 C380 1.252 . S
O384 In377 2.326 . S
O384 C380 1.260 . S
O385 In377 2.266 . S
O385 C382 1.252 . S
O386 In377 2.326 . S
O386 C382 1.260 . S
C387 O378 1.240 . S
C387 O379 1.252 . S
O388 In377 2.294 . S
O388 C381 1.240 . S
O389 In377 2.326 . S
O389 C381 1.252 . S
In390 O391 2.294 . S
In390 O392 2.326 . S
In390 O396 2.266 . S
In390 O397 2.326 . S
In390 O398 2.266 1_556 S
In390 O399 2.326 . S
In390 O401 2.294 . S
In390 O402 2.326 . S
O391 In390 2.294 . S
O391 C400 1.240 . S
O392 In390 2.326 . S
O392 C400 1.252 . S
C393 O396 1.252 . S
C393 O397 1.260 . S
C394 O401 1.240 . S
C394 O402 1.252 . S
C395 O398 1.252 . S
C395 O399 1.260 1_554 S
O396 In390 2.266 . S
O396 C393 1.252 . S
O397 In390 2.326 . S
O397 C393 1.260 . S
O398 In390 2.266 1_554 S
O398 C395 1.252 . S
O399 In390 2.326 . S
O399 C395 1.260 1_556 S
C400 O391 1.240 . S
C400 O392 1.252 . S
O401 In390 2.294 . S
O401 C394 1.240 . S
O402 In390 2.326 . S
O402 C394 1.252 . S
In403 O404 2.294 . S
In403 O405 2.326 . S
In403 O409 2.266 . S
In403 O410 2.326 . S
In403 O411 2.266 . S
In403 O412 2.326 . S
In403 O414 2.294 . S
In403 O415 2.326 . S
O404 In403 2.294 . S
O404 C413 1.240 . S
O405 In403 2.326 . S
O405 C413 1.252 . S
C406 O409 1.252 . S
C406 O410 1.260 . S
C407 O414 1.240 . S
C407 O415 1.252 . S
C408 O411 1.252 . S
C408 O412 1.260 . S
O409 In403 2.266 . S
O409 C406 1.252 . S
O410 In403 2.326 . S
O410 C406 1.260 . S
O411 In403 2.266 . S
O411 C408 1.252 . S
O412 In403 2.326 . S
O412 C408 1.260 . S
C413 O404 1.240 . S
C413 O405 1.252 . S
O414 In403 2.294 . S
O414 C407 1.240 . S
O415 In403 2.326 . S
O415 C407 1.252 . S
C10 C56 1.736 1_545 S
C23 C75 1.736 . S
C82 C30 1.736 1_545 S
C101 C49 1.736 1_556 S
C108 C166 1.736 1_565 S
C121 C173 1.736 . S
C186 C140 1.736 1_565 S
C147 C205 1.736 1_556 S
C264 C212 1.736 . S
C283 C231 1.736 1_556 S
C238 C290 1.736 . S
C309 C251 1.736 . S
C322 C374 1.736 . S
C381 C335 1.736 1_554 S
C400 C348 1.736 . S
C355 C407 1.736 . S
C3 C361 1.766 . S
C114 C16 1.766 1_655 S
C31 C329 1.766 . S
C42 C134 1.766 . S
C387 C57 1.766 . S
C192 C68 1.766 . S
C83 C413 1.766 . S
C94 C160 1.766 1_455 S
C257 C109 1.766 . S
C122 C4 1.766 1_655 S
C225 C133 1.766 . S
C148 C36 1.766 . S
C277 C159 1.766 . S
C174 C88 1.766 . S
C303 C187 1.766 . S
C198 C62 1.766 1_655 S
C153 C213 1.766 . S
C316 C224 1.766 . S
C127 C239 1.766 . S
C252 C342 1.766 1_655 S
C179 C265 1.766 . S
C394 C276 1.766 1_455 S
C199 C291 1.766 . S
C302 C368 1.766 . S
C315 C43 1.766 . S
C328 C218 1.766 . S
C341 C17 1.766 . S
C356 C244 1.766 1_455 S
C367 C69 1.766 . S
C296 C382 1.766 1_655 S
C95 C393 1.766 . S
C408 C270 1.766 . S
C5 C96 1.411 . S
C18 C55 1.411 . S
C29 C70 1.411 . S
C81 C44 1.411 . S
C200 C107 1.411 . S
C161 C120 1.411 . S
C172 C135 1.411 . S
C185 C146 1.411 . S
C211 C304 1.411 . S
C263 C226 1.411 . S
C278 C237 1.411 . S
C289 C250 1.411 . S
C406 C317 1.411 . S
C330 C369 1.411 . S
C343 C380 1.411 . S
C354 C395 1.411 . S
