# Generated by pormake.
# Topology bcs, (6)-cn, num edge types: 1
# Building blocks:
#     Node 0, Type 0, BuildingBlock: INOVEN_clean_sbu_0, # of connection points: 6
#     Node 1, Type 0, BuildingBlock: INOVEN_clean_sbu_0, # of connection points: 6
#     Node 2, Type 0, BuildingBlock: INOVEN_clean_sbu_0, # of connection points: 6
#     Node 3, Type 0, BuildingBlock: INOVEN_clean_sbu_0, # of connection points: 6
#     Node 4, Type 0, BuildingBlock: INOVEN_clean_sbu_0, # of connection points: 6
#     Node 5, Type 0, BuildingBlock: INOVEN_clean_sbu_0, # of connection points: 6
#     Node 6, Type 0, BuildingBlock: INOVEN_clean_sbu_0, # of connection points: 6
#     Node 7, Type 0, BuildingBlock: INOVEN_clean_sbu_0, # of connection points: 6
#     Node 8, Type 0, BuildingBlock: INOVEN_clean_sbu_0, # of connection points: 6
#     Node 9, Type 0, BuildingBlock: INOVEN_clean_sbu_0, # of connection points: 6
#     Node 10, Type 0, BuildingBlock: INOVEN_clean_sbu_0, # of connection points: 6
#     Node 11, Type 0, BuildingBlock: INOVEN_clean_sbu_0, # of connection points: 6
#     Node 12, Type 0, BuildingBlock: INOVEN_clean_sbu_0, # of connection points: 6
#     Node 13, Type 0, BuildingBlock: INOVEN_clean_sbu_0, # of connection points: 6
#     Node 14, Type 0, BuildingBlock: INOVEN_clean_sbu_0, # of connection points: 6
#     Node 15, Type 0, BuildingBlock: INOVEN_clean_sbu_0, # of connection points: 6
#     Edge 16, Type (0, 0), BuildingBlock: KIFKEQ_clean_linker_1, # of connection points: 2
#     Edge 17, Type (0, 0), BuildingBlock: KIFKEQ_clean_linker_1, # of connection points: 2
#     Edge 18, Type (0, 0), BuildingBlock: KIFKEQ_clean_linker_1, # of connection points: 2
#     Edge 19, Type (0, 0), BuildingBlock: KIFKEQ_clean_linker_1, # of connection points: 2
#     Edge 20, Type (0, 0), BuildingBlock: KIFKEQ_clean_linker_1, # of connection points: 2
#     Edge 21, Type (0, 0), BuildingBlock: KIFKEQ_clean_linker_1, # of connection points: 2
#     Edge 22, Type (0, 0), BuildingBlock: KIFKEQ_clean_linker_1, # of connection points: 2
#     Edge 23, Type (0, 0), BuildingBlock: KIFKEQ_clean_linker_1, # of connection points: 2
#     Edge 24, Type (0, 0), BuildingBlock: KIFKEQ_clean_linker_1, # of connection points: 2
#     Edge 25, Type (0, 0), BuildingBlock: KIFKEQ_clean_linker_1, # of connection points: 2
#     Edge 26, Type (0, 0), BuildingBlock: KIFKEQ_clean_linker_1, # of connection points: 2
#     Edge 27, Type (0, 0), BuildingBlock: KIFKEQ_clean_linker_1, # of connection points: 2
#     Edge 28, Type (0, 0), BuildingBlock: KIFKEQ_clean_linker_1, # of connection points: 2
#     Edge 29, Type (0, 0), BuildingBlock: KIFKEQ_clean_linker_1, # of connection points: 2
#     Edge 30, Type (0, 0), BuildingBlock: KIFKEQ_clean_linker_1, # of connection points: 2
#     Edge 31, Type (0, 0), BuildingBlock: KIFKEQ_clean_linker_1, # of connection points: 2
#     Edge 32, Type (0, 0), BuildingBlock: KIFKEQ_clean_linker_1, # of connection points: 2
#     Edge 33, Type (0, 0), BuildingBlock: KIFKEQ_clean_linker_1, # of connection points: 2
#     Edge 34, Type (0, 0), BuildingBlock: KIFKEQ_clean_linker_1, # of connection points: 2
#     Edge 35, Type (0, 0), BuildingBlock: KIFKEQ_clean_linker_1, # of connection points: 2
#     Edge 36, Type (0, 0), BuildingBlock: KIFKEQ_clean_linker_1, # of connection points: 2
#     Edge 37, Type (0, 0), BuildingBlock: KIFKEQ_clean_linker_1, # of connection points: 2
#     Edge 38, Type (0, 0), BuildingBlock: KIFKEQ_clean_linker_1, # of connection points: 2
#     Edge 39, Type (0, 0), BuildingBlock: KIFKEQ_clean_linker_1, # of connection points: 2
#     Edge 40, Type (0, 0), BuildingBlock: KIFKEQ_clean_linker_1, # of connection points: 2
#     Edge 41, Type (0, 0), BuildingBlock: KIFKEQ_clean_linker_1, # of connection points: 2
#     Edge 42, Type (0, 0), BuildingBlock: KIFKEQ_clean_linker_1, # of connection points: 2
#     Edge 43, Type (0, 0), BuildingBlock: KIFKEQ_clean_linker_1, # of connection points: 2
#     Edge 44, Type (0, 0), BuildingBlock: KIFKEQ_clean_linker_1, # of connection points: 2
#     Edge 45, Type (0, 0), BuildingBlock: KIFKEQ_clean_linker_1, # of connection points: 2
#     Edge 46, Type (0, 0), BuildingBlock: KIFKEQ_clean_linker_1, # of connection points: 2
#     Edge 47, Type (0, 0), BuildingBlock: KIFKEQ_clean_linker_1, # of connection points: 2
#     Edge 48, Type (0, 0), BuildingBlock: KIFKEQ_clean_linker_1, # of connection points: 2
#     Edge 49, Type (0, 0), BuildingBlock: KIFKEQ_clean_linker_1, # of connection points: 2
#     Edge 50, Type (0, 0), BuildingBlock: KIFKEQ_clean_linker_1, # of connection points: 2
#     Edge 51, Type (0, 0), BuildingBlock: KIFKEQ_clean_linker_1, # of connection points: 2
#     Edge 52, Type (0, 0), BuildingBlock: KIFKEQ_clean_linker_1, # of connection points: 2
#     Edge 53, Type (0, 0), BuildingBlock: KIFKEQ_clean_linker_1, # of connection points: 2
#     Edge 54, Type (0, 0), BuildingBlock: KIFKEQ_clean_linker_1, # of connection points: 2
#     Edge 55, Type (0, 0), BuildingBlock: KIFKEQ_clean_linker_1, # of connection points: 2
#     Edge 56, Type (0, 0), BuildingBlock: KIFKEQ_clean_linker_1, # of connection points: 2
#     Edge 57, Type (0, 0), BuildingBlock: KIFKEQ_clean_linker_1, # of connection points: 2
#     Edge 58, Type (0, 0), BuildingBlock: KIFKEQ_clean_linker_1, # of connection points: 2
#     Edge 59, Type (0, 0), BuildingBlock: KIFKEQ_clean_linker_1, # of connection points: 2
#     Edge 60, Type (0, 0), BuildingBlock: KIFKEQ_clean_linker_1, # of connection points: 2
#     Edge 61, Type (0, 0), BuildingBlock: KIFKEQ_clean_linker_1, # of connection points: 2
#     Edge 62, Type (0, 0), BuildingBlock: KIFKEQ_clean_linker_1, # of connection points: 2
#     Edge 63, Type (0, 0), BuildingBlock: KIFKEQ_clean_linker_1, # of connection points: 2
# Relax obj value: 0.241
# Max RMSD: 0.251
# Mean RMSD: 0.187
data_MOF--net-bcs--node1-INOVEN_clean_sbu_0--edge1-KIFKEQ_clean_linker_1
_symmetry_space_group_name_H-M    P1
_symmetry_Int_Tables_number       1
_symmetry_cell_setting            triclinic
loop_
_symmetry_equiv_pos_as_xyz
'x, y, z'
_cell_length_a     42.105182
_cell_length_b     44.193221
_cell_length_c     40.240325
_cell_angle_alpha  86.92778
_cell_angle_beta   98.324004
_cell_angle_gamma 119.65525
loop_
_atom_site_label
_atom_site_type_symbol
_atom_site_fract_x
_atom_site_fract_y
_atom_site_fract_z
_atom_type_partial_charge
Gd0 Gd 0.0825 0.03738 0.05762 0.0
Gd1 Gd 1.01972 0.01312 0.99351 0.0
C2 C 0.08394 0.98993 0.99607 0.0
C3 C 0.12356 0.0404 0.11222 0.0
C4 C 0.16271 0.05064 0.11727 0.0
C5 C 0.18055 0.05292 0.08954 0.0
C6 C 0.18246 0.05813 0.14954 0.0
C7 C 0.23678 0.06644 0.12683 0.0
C8 C 0.21926 0.06602 0.15432 0.0
C9 C 0.21731 0.06061 0.09429 0.0
C10 C 0.10763 0.08217 1.00597 0.0
C11 C 1.01684 0.05868 0.0557 0.0
C12 C 0.97828 0.01212 0.93981 0.0
C13 C 0.94132 0.00829 0.93736 0.0
C14 C 0.91852 0.98937 0.96178 0.0
C15 C 0.93238 0.02974 0.91588 0.0
C16 C 0.88292 0.01884 0.94771 0.0
C17 C 0.90324 0.03487 0.9209 0.0
C18 C 0.88958 0.99465 0.96696 0.0
C19 C 0.99513 0.97055 0.04709 0.0
O20 O 0.09615 1.0027 0.02766 0.0
O21 O 0.05656 0.99295 0.97766 0.0
O22 O 0.11651 0.06564 0.10303 0.0
O23 O 0.1018 0.01118 0.09501 0.0
O24 O 0.12624 0.08597 0.03549 0.0
O25 O 0.07652 0.05526 1.00638 0.0
O26 O 1.00533 0.04708 0.02372 0.0
O27 O 1.044 0.05525 0.07396 0.0
O28 O 0.98116 0.98469 0.94987 0.0
O29 O 1.00458 0.04123 0.95478 0.0
O30 O 0.97585 0.96526 0.01768 0.0
O31 O 1.02606 0.99674 0.04488 0.0
H32 H 0.16572 0.04777 0.0643 0.0
H33 H 0.16913 0.05683 0.1711 0.0
H34 H 0.23326 0.06975 0.1798 0.0
H35 H 0.23009 0.0608 0.07272 0.0
H36 H 0.92481 0.97263 0.97873 0.0
H37 H 0.94983 0.0448 0.89713 0.0
H38 H 0.89894 0.05388 0.90576 0.0
H39 H 0.87411 0.98168 0.98752 0.0
Gd40 Gd 0.3318 0.77377 0.28066 0.0
Gd41 Gd 0.28419 0.79932 0.29636 0.0
C42 C 0.26436 0.72685 0.32494 0.0
C43 C 0.37124 0.74403 0.28847 0.0
C44 C 0.36615 0.71627 0.31257 0.0
C45 C 0.35726 0.68341 0.30072 0.0
C46 C 0.36242 0.72019 0.34606 0.0
C47 C 0.33717 0.65814 0.35418 0.0
C48 C 0.34811 0.6914 0.36666 0.0
C49 C 0.34293 0.65458 0.32135 0.0
C50 C 0.27625 0.76059 0.23038 0.0
C51 C 0.34805 0.8443 0.24839 0.0
C52 C 0.24958 0.83361 0.29433 0.0
C53 C 0.26103 0.86773 0.27837 0.0
C54 C 0.28042 0.89842 0.29823 0.0
C55 C 0.25875 0.87032 0.24322 0.0
C56 C 0.29758 0.93324 0.24831 0.0
C57 C 0.2768 0.90267 0.2284 0.0
C58 C 0.29865 0.93083 0.28338 0.0
C59 C 0.33989 0.81103 0.34599 0.0
O60 O 0.29751 0.73523 0.31816 0.0
O61 O 0.24932 0.74624 0.31471 0.0
O62 O 0.34395 0.73523 0.26404 0.0
O63 O 0.38279 0.77487 0.30145 0.0
O64 O 0.30985 0.77018 0.22586 0.0
O65 O 0.27311 0.75732 0.26141 0.0
O66 O 0.31557 0.83603 0.25669 0.0
O67 O 0.36415 0.82584 0.25871 0.0
O68 O 0.27188 0.83404 0.32072 0.0
O69 O 0.23855 0.8069 0.2742 0.0
O70 O 0.30614 0.79978 0.35092 0.0
O71 O 0.3428 0.81581 0.31507 0.0
H72 H 0.35959 0.67972 0.27496 0.0
H73 H 0.36845 0.74511 0.35587 0.0
H74 H 0.34404 0.69497 0.39182 0.0
H75 H 0.33582 0.62939 0.31138 0.0
H76 H 0.28289 0.89726 0.32539 0.0
H77 H 0.24416 0.84727 0.22706 0.0
H78 H 0.27441 0.9037 0.20125 0.0
H79 H 0.31424 0.9539 0.29941 0.0
Gd80 Gd 0.56831 0.974 0.59256 0.0
Gd81 Gd 0.61401 0.99148 0.53974 0.0
C82 C 0.55863 0.02608 0.52981 0.0
C83 C 0.53489 0.97948 0.63861 0.0
C84 C 0.51973 1.00298 0.64033 0.0
C85 C 0.48186 0.98908 0.64117 0.0
C86 C 0.54216 0.03919 0.63752 0.0
C87 C 0.48885 0.04703 0.63527 0.0
C88 C 0.52685 0.06099 0.63517 0.0
C89 C 0.4665 0.01093 0.63855 0.0
C90 C 0.53878 0.92454 0.54296 0.0
C91 C 0.62603 0.94265 0.60542 0.0
C92 C 0.64419 0.983 0.49263 0.0
C93 C 0.64799 0.95237 0.48661 0.0
C94 C 0.66956 0.94273 0.51006 0.0
C95 C 0.62473 0.92925 0.46009 0.0
C96 C 0.64104 0.88597 0.48266 0.0
C97 C 0.62102 0.89628 0.45833 0.0
C98 C 0.66635 0.9098 0.50786 0.0
C99 C 0.64237 0.04204 0.58652 0.0
O100 O 0.55161 0.01244 0.56045 0.0
O101 O 0.58224 0.02054 0.5154 0.0
O102 O 0.51806 0.9554 0.61496 0.0
O103 O 0.57079 0.99436 0.64107 0.0
O104 O 0.53672 0.9176 0.57465 0.0
O105 O 0.55502 0.95704 0.53953 0.0
O106 O 0.63108 0.95375 0.57362 0.0
O107 O 0.60289 0.94897 0.61951 0.0
O108 O 0.66361 1.00215 0.5195 0.0
O109 O 0.61016 0.97691 0.48837 0.0
O110 O 0.64445 0.04806 0.55472 0.0
O111 O 0.62734 0.00979 0.59193 0.0
H112 H 0.46405 0.96126 0.64305 0.0
H113 H 0.57141 0.05073 0.63627 0.0
H114 H 0.54461 0.08871 0.63247 0.0
H115 H 0.43715 0.99962 0.63918 0.0
H116 H 0.68776 0.95995 0.53086 0.0
H117 H 0.60789 0.93599 0.44165 0.0
H118 H 0.6022 0.87865 0.43799 0.0
H119 H 0.68263 0.90254 0.5264 0.0
Gd120 Gd 0.31072 0.24998 0.77511 0.0
Gd121 Gd 0.30622 0.31397 0.79312 0.0
C122 C 0.35572 0.32386 0.73558 0.0
C123 C 0.30546 0.1988 0.74258 0.0
C124 C 0.32566 0.19264 0.71944 0.0
C125 C 0.36395 0.20611 0.72624 0.0
C126 C 0.30595 0.17178 0.69062 0.0
C127 C 0.36186 0.17449 0.67759 0.0
C128 C 0.32391 0.16288 0.66975 0.0
C129 C 0.38188 0.19699 0.70554 0.0
C130 C 0.36203 0.29144 0.82458 0.0
C131 C 0.26012 0.23968 0.83163 0.0
C132 C 0.31305 0.36599 0.82549 0.0
C133 C 0.29644 0.37372 0.85107 0.0
C134 C 0.25821 0.36043 0.84832 0.0
C135 C 0.31966 0.39658 0.87773 0.0
C136 C 0.26722 0.39645 0.89622 0.0
C137 C 0.30518 0.40779 0.90023 0.0
C138 C 0.24371 0.37178 0.8707 0.0
C139 C 0.25519 0.27271 0.74344 0.0
O140 O 0.34291 0.28963 0.73652 0.0
O141 O 0.34796 0.33983 0.75733 0.0
O142 O 0.32112 0.20695 0.77386 0.0
O143 O 0.28926 0.21667 0.73069 0.0
O144 O 0.34783 0.25777 0.82465 0.0
O145 O 0.35016 0.30081 0.79799 0.0
O146 O 0.27448 0.27418 0.83198 0.0
O147 O 0.26701 0.22386 0.80899 0.0
O148 O 0.2935 0.35538 0.79576 0.0
O149 O 0.33136 0.34965 0.83582 0.0
O150 O 0.26931 0.30638 0.74345 0.0
O151 O 0.26691 0.26331 0.77007 0.0
H152 H 0.37981 0.22267 0.74814 0.0
H153 H 0.27644 0.16154 0.68477 0.0
H154 H 0.30786 0.14598 0.64811 0.0
H155 H 0.41106 0.20611 0.71251 0.0
H156 H 0.2397 0.34241 0.82813 0.0
H157 H 0.34922 0.40678 0.88043 0.0
H158 H 0.32387 0.4264 0.91994 0.0
H159 H 0.21438 0.3628 0.86672 0.0
Gd160 Gd 0.09675 0.03456 0.55024 0.0
Gd161 Gd 1.02834 0.03996 0.52625 0.0
C162 C 1.02419 0.99092 0.58987 0.0
C163 C 0.15733 0.03738 0.57891 0.0
C164 C 0.17378 0.01659 0.59419 0.0
C165 C 0.15269 0.98043 0.59733 0.0
C166 C 0.21211 0.03313 0.60289 0.0
C167 C 0.20862 0.97755 0.61781 0.0
C168 C 0.22941 0.01386 0.61446 0.0
C169 C 0.16997 0.96105 0.6092 0.0
C170 C 1.04745 0.98734 0.50273 0.0
C171 C 0.10134 0.08379 0.48742 0.0
C172 C 0.96731 0.03384 0.49479 0.0
C173 C 0.94874 0.05264 0.47907 0.0
C174 C 0.96756 0.08467 0.46346 0.0
C175 C 0.91114 0.03842 0.4813 0.0
C176 C 0.91083 0.08801 0.45246 0.0
C177 C 0.89237 0.05592 0.46824 0.0
C178 C 0.94868 0.10221 0.45014 0.0
C179 C 0.07568 0.08802 0.5738 0.0
O180 O 0.06062 1.00452 0.5917 0.0
O181 O 1.00539 0.99689 0.56357 0.0
O182 O 0.14595 0.03207 0.54672 0.0
O183 O 0.13529 0.04185 0.59547 0.0
O184 O 0.08271 1.00154 0.50301 0.0
O185 O 1.04073 0.99763 0.52765 0.0
O186 O 0.0647 0.06864 0.48466 0.0
O187 O 0.12011 0.07927 0.5147 0.0
O188 O 0.97629 0.0379 0.52732 0.0
O189 O 0.99205 0.03254 0.47946 0.0
O190 O 1.04031 0.07538 0.57013 0.0
O191 O 0.0845 0.07758 0.55014 0.0
H192 H 0.12303 0.96724 0.59031 0.0
H193 H 0.22884 0.06099 0.60004 0.0
H194 H 0.25919 0.02745 0.62022 0.0
H195 H 0.15303 0.93323 0.6119 0.0
H196 H 0.99671 0.09612 0.46174 0.0
H197 H 0.89631 0.01385 0.4936 0.0
H198 H 0.86349 0.04451 0.47104 0.0
H199 H 0.96361 0.1267 0.4378 0.0
Gd200 Gd 0.2825 0.7824 0.80961 0.0
Gd201 Gd 0.33258 0.77385 0.75849 0.0
C202 C 0.29952 0.82478 0.73826 0.0
C203 C 0.25384 0.80644 0.84886 0.0
C204 C 0.23682 0.82785 0.85944 0.0
C205 C 0.1982 0.8133 0.85829 0.0
C206 C 0.25864 0.86126 0.87504 0.0
C207 C 0.20399 0.86435 0.888 0.0
C208 C 0.24274 0.87902 0.88877 0.0
C209 C 0.18228 0.83099 0.87202 0.0
C210 C 0.24907 0.72767 0.76518 0.0
C211 C 0.3163 0.73249 0.83039 0.0
C212 C 0.36194 0.75042 0.71935 0.0
C213 C 0.37894 0.72918 0.70821 0.0
C214 C 0.41763 0.74295 0.71137 0.0
C215 C 0.35741 0.69703 0.69025 0.0
C216 C 0.4125 0.69365 0.67903 0.0
C217 C 0.37364 0.67973 0.67624 0.0
C218 C 0.43388 0.72574 0.69734 0.0
C219 C 0.36596 0.82868 0.80279 0.0
O220 O 0.29121 0.82208 0.7693 0.0
O221 O 0.31135 0.80522 0.72609 0.0
O222 O 0.23441 0.77881 0.82906 0.0
O223 O 0.28929 0.82063 0.8471 0.0
O224 O 0.23911 0.72647 0.79464 0.0
O225 O 0.27412 0.75794 0.75997 0.0
O226 O 0.32337 0.73376 0.799 0.0
O227 O 0.30536 0.75281 0.84234 0.0
O228 O 0.38108 0.77696 0.74048 0.0
O229 O 0.3263 0.73683 0.71975 0.0
O230 O 0.37599 0.82979 0.77339 0.0
O231 O 0.34096 0.79839 0.80799 0.0
H232 H 0.17994 0.78747 0.84745 0.0
H233 H 0.28841 0.87365 0.87728 0.0
H234 H 0.26127 0.90454 0.90007 0.0
H235 H 0.15259 0.81766 0.87084 0.0
H236 H 0.43576 0.76786 0.72409 0.0
H237 H 0.32764 0.68531 0.6864 0.0
H238 H 0.35527 0.65516 0.66309 0.0
H239 H 0.46366 0.73853 0.7002 0.0
Gd240 Gd 0.52698 0.03032 0.02483 0.0
Gd241 Gd 0.49728 0.07837 0.02099 0.0
C242 C 0.5637 0.10047 0.97983 0.0
C243 C 0.55119 0.98938 0.012 0.0
C244 C 0.58492 0.99357 1.00071 0.0
C245 C 0.60687 0.98251 0.02143 0.0
C246 C 0.59537 0.00801 0.96945 0.0
C247 C 0.64808 0.9985 0.97922 0.0
C248 C 0.62659 0.01028 0.95875 0.0
C249 C 0.63827 0.98512 1.01088 0.0
C250 C 0.55718 0.07686 0.07656 0.0
C251 C 0.46444 0.01097 0.06777 0.0
C252 C 0.46932 0.11774 0.03004 0.0
C253 C 0.44806 0.1241 0.05259 0.0
C254 C 0.40929 0.1076 0.04628 0.0
C255 C 0.4665 0.1494 0.07856 0.0
C256 C 0.40803 0.14213 0.09091 0.0
C257 C 0.44676 0.15821 0.09752 0.0
C258 C 0.38953 0.11644 0.06525 0.0
C259 C 0.46844 0.02927 0.97094 0.0
O260 O 0.55985 0.06944 0.98733 0.0
O261 O 0.54415 0.1119 0.99225 0.0
O262 O 0.55504 1.0013 0.04221 0.0
O263 O 0.52911 0.99584 0.99018 0.0
O264 O 0.5484 0.04438 0.07904 0.0
O265 O 0.55054 0.08396 0.04629 0.0
O266 O 0.4746 0.04445 0.06579 0.0
O267 O 0.4759 0.99686 0.04782 0.0
O268 O 0.45195 0.08929 0.01145 0.0
O269 O 0.50338 0.1258 0.04133 0.0
O270 O 0.47864 0.06181 0.96567 0.0
O271 O 0.47412 0.02462 1.00174 0.0
H272 H 0.59938 0.97131 0.04562 0.0
H273 H 0.57921 0.0171 0.95303 0.0
H274 H 0.63369 0.02083 0.93429 0.0
H275 H 0.65406 0.97539 0.02695 0.0
H276 H 0.39416 0.08831 0.0262 0.0
H277 H 0.49633 0.16311 0.08374 0.0
H278 H 0.46202 0.17846 0.11673 0.0
H279 H 0.35972 0.10323 0.05972 0.0
Gd280 Gd 0.33765 0.26632 0.31076 0.0
Gd281 Gd 0.28321 0.29435 0.26122 0.0
C282 C 0.29708 0.23444 0.23458 0.0
C283 C 0.36852 0.22989 0.3451 0.0
C284 C 0.3879 0.20904 0.36482 0.0
C285 C 0.42414 0.21582 0.361 0.0
C286 C 0.37097 0.18142 0.38769 0.0
C287 C 0.42493 0.16923 0.40121 0.0
C288 C 0.38862 0.1626 0.40509 0.0
C289 C 0.44168 0.19687 0.37817 0.0
C290 C 0.37064 0.32182 0.26836 0.0
C291 C 0.32366 0.32601 0.33832 0.0
C292 C 0.25293 0.33104 0.22654 0.0
C293 C 0.23377 0.35185 0.20634 0.0
C294 C 0.19536 0.34096 0.20453 0.0
C295 C 0.25308 0.3837 0.18904 0.0
C296 C 0.19713 0.39187 0.1698 0.0
C297 C 0.23562 0.40261 0.17148 0.0
C298 C 0.17798 0.36002 0.18731 0.0
C299 C 0.25009 0.23913 0.30388 0.0
O300 O 0.3066 0.22876 0.26643 0.0
O301 O 0.29066 0.26077 0.22548 0.0
O302 O 0.38565 0.25757 0.32712 0.0
O303 O 0.33407 0.22249 0.34476 0.0
O304 O 0.3869 0.31651 0.29641 0.0
O305 O 0.33809 0.2964 0.26316 0.0
O306 O 0.31132 0.33047 0.30696 0.0
O307 O 0.33226 0.30093 0.34689 0.0
O308 O 0.23443 0.29927 0.23757 0.0
O309 O 0.28862 0.34237 0.23365 0.0
O310 O 0.23365 0.24475 0.27615 0.0
O311 O 0.28278 0.26435 0.3087 0.0
H312 H 0.43951 0.23621 0.34421 0.0
H313 H 0.3434 0.17401 0.39239 0.0
H314 H 0.37297 0.14216 0.42166 0.0
H315 H 0.46921 0.20456 0.37324 0.0
H316 H 0.17811 0.3172 0.21689 0.0
H317 H 0.28241 0.39444 0.18895 0.0
H318 H 0.25311 0.42644 0.15941 0.0
H319 H 0.14869 0.34905 0.18767 0.0
Gd320 Gd 0.59314 0.51738 0.04584 0.0
Gd321 Gd 0.5279 0.52863 0.02335 0.0
C322 C 0.51966 0.47664 0.08478 0.0
C323 C 0.65138 0.51795 0.07744 0.0
C324 C 0.66638 0.4967 0.0947 0.0
C325 C 0.65861 0.46482 0.08094 0.0
C326 C 0.69227 0.51059 0.12356 0.0
C327 C 0.70435 0.46221 0.12363 0.0
C328 C 0.71106 0.49349 0.13797 0.0
C329 C 0.67755 0.44775 0.09527 0.0
C330 C 0.54375 0.47242 0.99715 0.0
C331 C 0.6013 0.5699 0.9843 0.0
C332 C 0.47057 0.53095 0.99331 0.0
C333 C 0.45767 0.55447 0.9774 0.0
C334 C 0.4664 0.58572 0.99329 0.0
C335 C 0.43286 0.54353 0.9476 0.0
C336 C 0.42357 0.59345 0.95089 0.0
C337 C 0.41609 0.56286 0.93438 0.0
C338 C 0.44946 0.60498 0.98018 0.0
C339 C 0.57929 0.57297 0.07183 0.0
O340 O 0.5558 0.48868 0.08661 0.0
O341 O 0.50182 0.48426 0.05884 0.0
O342 O 0.64162 0.51297 0.04498 0.0
O343 O 0.62944 0.52396 0.09254 0.0
O344 O 0.57877 0.4831 1.00056 0.0
O345 O 0.536 0.48316 0.02145 0.0
O346 O 0.56536 0.55872 0.98295 0.0
O347 O 0.61888 0.56104 1.00947 0.0
O348 O 0.48063 0.53462 0.0258 0.0
O349 O 0.49115 0.52377 0.97735 0.0
O350 O 0.54448 0.56273 0.07037 0.0
O351 O 0.58469 0.56185 0.04659 0.0
H352 H 0.6387 0.4536 0.05862 0.0
H353 H 0.6989 0.53535 0.1343 0.0
H354 H 0.73176 0.5054 0.15965 0.0
H355 H 0.67144 0.4234 0.08403 0.0
H356 H 0.4854 0.59471 0.01642 0.0
H357 H 0.42563 0.51945 0.93501 0.0
H358 H 0.39695 0.55361 0.91136 0.0
H359 H 0.45573 0.62826 0.99368 0.0
Gd360 Gd 0.78807 0.28833 0.31149 0.0
Gd361 Gd 0.82762 0.26394 0.26273 0.0
C362 C 0.81571 0.32848 0.24114 0.0
C363 C 0.76999 0.32091 0.35254 0.0
C364 C 0.75017 0.33865 0.3653 0.0
C365 C 0.72937 0.32452 0.39237 0.0
C366 C 0.75437 0.37112 0.35376 0.0
C367 C 0.71802 0.37441 0.39603 0.0
C368 C 0.73847 0.38836 0.36851 0.0
C369 C 0.71385 0.34183 0.40731 0.0
C370 C 0.74228 0.2383 0.26386 0.0
C371 C 0.80148 0.2245 0.33165 0.0
C372 C 0.8517 0.23199 0.22775 0.0
C373 C 0.86758 0.21446 0.20828 0.0
C374 C 0.90544 0.22428 0.21425 0.0
C375 C 0.84559 0.18727 0.18417 0.0
C376 C 0.8987 0.18031 0.17331 0.0
C377 C 0.86066 0.17064 0.16725 0.0
C378 C 0.92055 0.20791 0.19724 0.0
C379 C 0.8719 0.31601 0.30889 0.0
O380 O 0.80837 0.32965 0.27199 0.0
O381 O 0.81949 0.30288 0.22973 0.0
O382 O 0.754 0.28698 0.34905 0.0
O383 O 0.796 0.33687 0.33323 0.0
O384 O 0.73287 0.24235 0.29192 0.0
O385 O 0.77401 0.26307 0.26088 0.0
O386 O 0.80198 0.22079 0.2993 0.0
O387 O 0.80311 0.2527 0.34378 0.0
O388 O 0.87135 0.25358 0.25308 0.0
O389 O 0.8183 0.22794 0.22098 0.0
O390 O 0.88008 0.31393 0.27947 0.0
O391 O 0.84162 0.28966 0.31324 0.0
H392 H 0.72558 0.29998 0.40266 0.0
H393 H 0.77048 0.38363 0.33348 0.0
H394 H 0.74319 0.41332 0.35872 0.0
H395 H 0.69825 0.32927 0.42786 0.0
H396 H 0.92385 0.24501 0.23228 0.0
H397 H 0.81635 0.1784 0.17857 0.0
H398 H 0.84192 0.14959 0.14971 0.0
H399 H 0.94989 0.21756 0.20292 0.0
Gd400 Gd 0.1186 0.47973 0.54543 0.0
Gd401 Gd 0.09024 0.52895 0.54472 0.0
C402 C 0.14983 0.54733 0.49805 0.0
C403 C 0.14202 0.43691 0.5355 0.0
C404 C 0.16493 0.42979 0.51607 0.0
C405 C 0.20086 0.45539 0.51122 0.0
C406 C 0.15126 0.39572 0.50418 0.0
C407 C 0.20931 0.41243 0.48358 0.0
C408 C 0.17311 0.38712 0.48809 0.0
C409 C 0.22282 0.44678 0.49512 0.0
C410 C 0.15054 0.52897 0.59547 0.0
C411 C 0.05425 0.4589 0.58901 0.0
C412 C 0.06825 0.57112 0.55931 0.0
C413 C 1.03536 0.56787 0.57137 0.0
C414 C 1.01643 0.58342 0.55317 0.0
C415 C 1.02224 0.54919 0.60034 0.0
C416 C 0.97232 0.56274 0.59317 0.0
C417 C 0.99105 0.54682 0.61125 0.0
C418 C 0.98513 0.58079 0.56388 0.0
C419 C 0.05688 0.4819 0.49337 0.0
O420 O 0.14203 0.51446 0.50116 0.0
O421 O 0.13855 0.56144 0.51818 0.0
O422 O 0.15887 0.46253 0.55761 0.0
O423 O 0.11127 0.43416 0.51971 0.0
O424 O 0.13969 0.49627 0.6005 0.0
O425 O 0.14348 0.53374 0.56491 0.0
O426 O 0.06058 0.49114 0.58444 0.0
O427 O 0.07048 0.44629 0.57296 0.0
O428 O 0.06304 0.55899 0.52893 0.0
O429 O 0.09015 0.56382 0.58043 0.0
O430 O 0.06533 0.51427 0.49113 0.0
O431 O 0.0649 0.4751 0.52333 0.0
H432 H 0.21217 0.48186 0.52029 0.0
H433 H 0.12368 0.37553 0.50775 0.0
H434 H 0.16148 0.36061 0.47898 0.0
H435 H 0.25064 0.46691 0.49233 0.0
H436 H 1.02606 0.59787 0.53075 0.0
H437 H 1.03613 0.53662 0.61467 0.0
H438 H 0.98165 0.53267 0.63386 0.0
H439 H 0.97159 0.5938 0.54977 0.0
Gd440 Gd 0.83211 0.77988 0.29719 0.0
Gd441 Gd 0.7824 0.80342 0.27148 0.0
C442 C 0.85283 0.83524 0.23627 0.0
C443 C 0.88539 0.76596 0.30743 0.0
C444 C 0.91993 0.78284 0.29279 0.0
C445 C 0.93748 0.76395 0.28787 0.0
C446 C 0.93171 0.81575 0.27831 0.0
C447 C 0.97215 0.80691 0.2481 0.0
C448 C 0.95725 0.82747 0.25557 0.0
C449 C 0.96387 0.77617 0.2659 0.0
C450 C 0.84143 0.83504 0.33231 0.0
C451 C 0.76093 0.74475 0.3311 0.0
C452 C 0.73213 0.82119 0.26436 0.0
C453 C 0.69663 0.80308 0.27744 0.0
C454 C 0.68066 0.76719 0.2837 0.0
C455 C 0.68317 0.82252 0.29056 0.0
C456 C 0.64385 0.77222 0.32171 0.0
C457 C 0.65675 0.80713 0.31244 0.0
C458 C 0.65448 0.75189 0.30584 0.0
C459 C 0.77322 0.74983 0.23481 0.0
O460 O 0.85421 0.80777 0.24933 0.0
O461 O 0.82909 0.84335 0.24534 0.0
O462 O 0.88157 0.78553 0.32778 0.0
O463 O 0.85573 0.74835 0.28594 0.0
O464 O 0.83725 0.80615 0.34536 0.0
O465 O 0.83731 0.83209 0.30084 0.0
O466 O 0.75577 0.76956 0.31571 0.0
O467 O 0.78813 0.74012 0.32521 0.0
O468 O 0.7362 0.80459 0.24087 0.0
O469 O 0.76077 0.83476 0.28768 0.0
O470 O 0.77514 0.77822 0.22237 0.0
O471 O 0.77749 0.75136 0.26653 0.0
H472 H 0.92872 0.73856 0.29882 0.0
H473 H 0.91896 0.83108 0.28239 0.0
H474 H 0.96299 0.85099 0.24181 0.0
H475 H 0.97466 0.75965 0.25998 0.0
H476 H 0.69069 0.75163 0.27381 0.0
H477 H 0.69538 0.85024 0.28626 0.0
H478 H 0.64923 0.82348 0.32468 0.0
H479 H 0.64452 0.72492 0.31248 0.0
Gd480 Gd 0.83868 0.27677 0.81117 0.0
Gd481 Gd 0.7819 0.28308 0.75874 0.0
C482 C 0.75331 0.24716 0.82667 0.0
C483 C 0.87589 0.27695 0.86779 0.0
C484 C 0.86369 0.2515 0.89454 0.0
C485 C 0.83264 0.21871 0.88689 0.0
C486 C 0.88219 0.25935 0.9274 0.0
C487 C 0.84155 0.1998 0.94366 0.0
C488 C 0.87107 0.23372 0.9519 0.0
C489 C 0.82178 0.19312 0.91105 0.0
C490 C 0.7995 0.22289 0.7673 0.0
C491 C 0.86731 0.31273 0.74359 0.0
C492 C 0.74378 0.28158 0.70213 0.0
C493 C 0.75454 0.30547 0.674 0.0
C494 C 0.78574 0.33855 0.67941 0.0
C495 C 0.73388 0.29596 0.64204 0.0
C496 C 0.77273 0.35444 0.62226 0.0
C497 C 0.74303 0.3202 0.61625 0.0
C498 C 0.79461 0.36284 0.65396 0.0
C499 C 0.82234 0.33781 0.80195 0.0
O500 O 0.78857 0.25873 0.83833 0.0
O501 O 0.74259 0.24961 0.79456 0.0
O502 O 0.87862 0.26497 0.83981 0.0
O503 O 0.85905 0.29531 0.86279 0.0
O504 O 0.83376 0.23351 0.77923 0.0
O505 O 0.78753 0.23942 0.78079 0.0
O506 O 0.83193 0.29989 0.73139 0.0
O507 O 0.87782 0.31173 0.77605 0.0
O508 O 0.74229 0.29506 0.72972 0.0
O509 O 0.76054 0.26316 0.70759 0.0
O510 O 0.78851 0.32837 0.78931 0.0
O511 O 0.83312 0.32012 0.78885 0.0
H512 H 0.81753 0.21241 0.86173 0.0
H513 H 0.90571 0.2849 0.93386 0.0
H514 H 0.88652 0.24008 0.97687 0.0
H515 H 0.79933 0.16746 0.90319 0.0
H516 H 0.8024 0.34613 0.70386 0.0
H517 H 0.71013 0.2702 0.63731 0.0
H518 H 0.72601 0.3125 0.59202 0.0
H519 H 0.8173 0.38886 0.66008 0.0
Gd520 Gd 0.80136 0.75628 0.75579 0.0
Gd521 Gd 0.82187 0.80696 0.81816 0.0
C522 C 0.85352 0.74805 0.82522 0.0
C523 C 0.80396 0.7298 0.70155 0.0
C524 C 0.80556 0.69875 0.69282 0.0
C525 C 0.78775 0.6815 0.66184 0.0
C526 C 0.8266 0.68735 0.71446 0.0
C527 C 0.8161 0.64477 0.67229 0.0
C528 C 0.83202 0.66081 0.70423 0.0
C529 C 0.79277 0.65454 0.6517 0.0
C530 C 0.75562 0.72241 0.80391 0.0
C531 C 0.76964 0.81508 0.74853 0.0
C532 C 0.81819 0.83034 0.87396 0.0
C533 C 0.8174 0.85995 0.88767 0.0
C534 C 0.82911 0.89145 0.87063 0.0
C535 C 0.80147 0.85527 0.91703 0.0
C536 C 0.80571 0.91217 0.91089 0.0
C537 C 0.7956 0.88103 0.92852 0.0
C538 C 0.82351 0.91752 0.8823 0.0
C539 C 0.86842 0.84081 0.77067 0.0
O540 O 0.83994 0.74005 0.79236 0.0
O541 O 0.84851 0.77194 0.83999 0.0
O542 O 0.77285 0.72446 0.71047 0.0
O543 O 0.83335 0.75357 0.72014 0.0
O544 O 0.75399 0.70794 0.776 0.0
O545 O 0.781 0.75367 0.80331 0.0
O546 O 0.78356 0.82343 0.78134 0.0
O547 O 0.77439 0.79097 0.73384 0.0
O548 O 0.84941 0.83607 0.86491 0.0
O549 O 0.78906 0.80989 0.85296 0.0
O550 O 0.86982 0.85522 0.79858 0.0
O551 O 0.84262 0.80962 0.77074 0.0
H552 H 0.77097 0.68965 0.64501 0.0
H553 H 0.84025 0.69998 0.73872 0.0
H554 H 0.85047 0.65436 0.72067 0.0
H555 H 0.77944 0.64221 0.62727 0.0
H556 H 0.84143 0.8954 0.84781 0.0
H557 H 0.79208 0.83097 0.93032 0.0
H558 H 0.78122 0.87558 0.9502 0.0
H559 H 0.83208 0.94136 0.86839 0.0
Gd560 Gd 0.598 0.55091 0.56382 0.0
Gd561 Gd 0.53807 0.51953 0.51445 0.0
C562 C 0.60043 0.49935 0.50818 0.0
C563 C 0.65368 0.56509 0.60916 0.0
C564 C 0.68764 0.56425 0.60641 0.0
C565 C 0.70264 0.57263 0.57602 0.0
C566 C 0.70099 0.54892 0.63179 0.0
C567 C 0.73946 0.54488 0.59438 0.0
C568 C 0.72661 0.53924 0.62586 0.0
C569 C 0.72859 0.5633 0.57018 0.0
C570 C 0.60842 0.59121 0.50833 0.0
C571 C 0.53612 0.57195 0.56978 0.0
C572 C 0.48254 0.50148 0.46774 0.0
C573 C 0.44536 0.49676 0.46601 0.0
C574 C 0.41668 0.4728 0.4429 0.0
C575 C 0.43848 0.51684 0.48663 0.0
C576 C 0.37644 0.49375 0.4568 0.0
C577 C 0.4044 0.51547 0.48202 0.0
C578 C 0.3823 0.4711 0.43845 0.0
C579 C 0.52771 0.4794 0.57 0.0
O580 O 0.61211 0.51297 0.53921 0.0
O581 O 0.57322 0.50263 0.49066 0.0
O582 O 0.64927 0.5891 0.59222 0.0
O583 O 0.62379 0.5346 0.60601 0.0
O584 O 0.6152 0.60261 0.53894 0.0
O585 O 0.59541 0.55858 0.50825 0.0
O586 O 0.5238 0.55736 0.53908 0.0
O587 O 0.56403 0.56963 0.58719 0.0
O588 O 0.48863 0.47908 0.48587 0.0
O589 O 0.50985 0.53347 0.47248 0.0
O590 O 0.52226 0.4682 0.53957 0.0
O591 O 0.54038 0.51199 0.5699 0.0
H592 H 0.69258 0.58432 0.5559 0.0
H593 H 0.68951 0.542 0.65526 0.0
H594 H 0.73389 0.5248 0.64508 0.0
H595 H 0.73847 0.56873 0.54598 0.0
H596 H 0.42131 0.45648 0.42731 0.0
H597 H 0.46001 0.53494 0.50511 0.0
H598 H 0.40117 0.53353 0.49646 0.0
H599 H 0.36113 0.4536 0.41925 0.0
Gd600 Gd 1.00548 0.56614 0.0303 0.0
Gd601 Gd 0.05605 0.59114 0.98196 0.0
C602 C 0.99592 0.61914 0.96763 0.0
C603 C 0.96702 0.5632 0.07613 0.0
C604 C 0.95693 0.58845 0.08596 0.0
C605 C 0.9615 0.59635 0.12009 0.0
C606 C 0.95165 0.61033 0.06192 0.0
C607 C 0.96499 0.65204 0.10588 0.0
C608 C 0.95617 0.64217 0.07174 0.0
C609 C 0.96496 0.62769 0.13001 0.0
C610 C 0.98409 0.52018 0.97997 0.0
C611 C 0.06416 0.53554 0.04152 0.0
C612 C 0.0956 0.59276 0.93814 0.0
C613 C 0.11251 0.57084 0.93634 0.0
C614 C 0.14967 0.58593 0.9318 0.0
C615 C 0.09258 0.53505 0.94276 0.0
C616 C 0.14682 0.52978 0.94053 0.0
C617 C 0.10955 0.51474 0.94476 0.0
C618 C 0.16676 0.56552 0.9339 0.0
C619 C 0.07918 0.63564 0.0353 0.0
O620 O 0.98869 0.6051 0.9982 0.0
O621 O 1.02142 0.61572 0.95452 0.0
O622 O 0.95203 0.54786 0.04667 0.0
O623 O 1.00245 0.57439 0.08185 0.0
O624 O 0.9814 0.51141 0.01115 0.0
O625 O 0.99709 0.55258 0.977 0.0
O626 O 0.07329 0.5521 0.01236 0.0
O627 O 1.03808 0.53807 0.05476 0.0
O628 O 0.10921 0.61448 0.9638 0.0
O629 O 0.05955 0.57657 0.93276 0.0
O630 O 0.08207 0.64565 1.00435 0.0
O631 O 0.06458 0.603 0.03603 0.0
H632 H 0.96525 0.57961 0.13904 0.0
H633 H 0.94674 0.60412 0.03545 0.0
H634 H 0.95532 0.65987 0.05243 0.0
H635 H 0.96986 0.63369 0.15662 0.0
H636 H 0.16559 0.61354 0.92727 0.0
H637 H 0.06403 0.52281 0.94707 0.0
H638 H 0.09369 0.48737 0.95031 0.0
H639 H 0.19547 0.57763 0.93019 0.0
H640 H 0.2391 0.26035 0.88416 0.0
H641 H 0.2206 0.16842 0.83301 0.0
H642 H 0.19689 0.22341 0.92344 0.0
H643 H 0.17903 0.13173 0.87235 0.0
H644 H 0.08652 0.07146 0.93695 0.0
H645 H 0.11958 0.11052 0.89283 0.0
H646 H 0.19738 0.18608 0.96907 0.0
H647 H 0.16459 0.14766 0.01232 0.0
C648 C 0.22607 0.23233 0.8812 0.0
C649 C 0.23372 0.21757 0.85547 0.0
C650 C 0.20183 0.21105 0.9038 0.0
C651 C 0.1844 0.17438 0.90125 0.0
C652 C 0.1914 0.15972 0.87498 0.0
C653 C 0.2157 0.18093 0.85254 0.0
C654 C 0.11022 0.09673 0.94404 0.0
C655 C 0.12289 0.10644 0.97812 0.0
C656 C 0.12943 0.11903 0.91886 0.0
C657 C 0.16138 0.15163 0.92726 0.0
C658 C 0.1728 0.1616 0.96137 0.0
C659 C 0.15399 0.13935 0.9863 0.0
H660 H 0.29754 0.10852 0.1701 0.0
H661 H 0.2559 0.02406 0.09857 0.0
H662 H 0.34247 0.09261 0.19773 0.0
H663 H 0.29891 0.00684 0.12664 0.0
H664 H 0.33552 0.95123 0.19391 0.0
H665 H 0.34858 1.00167 0.15867 0.0
H666 H 0.31307 0.04293 0.23161 0.0
H667 H 0.30007 0.99306 0.26607 0.0
C668 C 0.29932 0.08768 0.15938 0.0
C669 C 0.27249 0.06684 0.13322 0.0
C670 C 0.3249 0.07838 0.17516 0.0
C671 C 0.32271 0.04718 0.1657 0.0
C672 C 0.30094 0.0306 0.13526 0.0
C673 C 0.27588 0.04038 0.11911 0.0
C674 C 0.33145 0.97161 0.20265 0.0
C675 C 0.3154 0.96754 0.23208 0.0
C676 C 0.33928 1.00066 0.18264 0.0
C677 C 0.33091 0.02594 0.19171 0.0
C678 C 0.31996 0.02415 0.22356 0.0
C679 C 0.31213 0.99518 0.24345 0.0
H680 H 0.46523 0.88082 0.54363 0.0
H681 H 0.55046 0.91627 0.4801 0.0
H682 H 0.4186 0.85093 0.49583 0.0
H683 H 0.50441 0.88455 0.43234 0.0
H684 H 0.41166 0.86248 0.3455 0.0
H685 H 0.46037 0.88611 0.39325 0.0
H686 H 0.38735 0.80758 0.45654 0.0
H687 H 0.33824 0.78607 0.40918 0.0
C688 C 0.47404 0.88122 0.51954 0.0
C689 C 0.51147 0.90089 0.51557 0.0
C690 C 0.44725 0.86395 0.49189 0.0
C691 C 0.45721 0.86524 0.45957 0.0
C692 C 0.49512 0.88353 0.45628 0.0
C693 C 0.52177 0.90148 0.4838 0.0
C694 C 0.40627 0.85024 0.36964 0.0
C695 C 0.37106 0.82273 0.37372 0.0
C696 C 0.43433 0.86362 0.39719 0.0
C697 C 0.42819 0.84922 0.42941 0.0
C698 C 0.39326 0.82035 0.43273 0.0
C699 C 0.36502 0.80766 0.40542 0.0
H700 H 0.33279 0.10734 0.65638 0.0
H701 H 0.43127 0.20812 0.65879 0.0
H702 H 0.36507 0.08051 0.63712 0.0
H703 H 0.4639 0.18095 0.63951 0.0
H704 H 0.51458 0.10795 0.66948 0.0
H705 H 0.48462 0.14296 0.66971 0.0
H706 H 0.39685 0.07356 0.59485 0.0
H707 H 0.42679 0.03821 0.59502 0.0
C708 C 0.36101 0.124 0.65171 0.0
C709 C 0.3796 0.15984 0.6595 0.0
C710 C 0.37957 0.10855 0.64063 0.0
C711 C 0.41715 0.12857 0.63714 0.0
C712 C 0.43507 0.16481 0.64254 0.0
C713 C 0.41644 0.18033 0.6536 0.0
C714 C 0.48927 0.1006 0.65261 0.0
C715 C 0.47264 0.07014 0.63263 0.0
C716 C 0.47221 0.12077 0.65254 0.0
C717 C 0.43827 0.1109 0.63239 0.0
C718 C 0.42273 0.08149 0.61098 0.0
C719 C 0.43972 0.06122 0.61118 0.0
H720 H 0.2676 0.99743 0.66716 0.0
H721 H 0.19221 0.91189 0.59857 0.0
H722 H 0.29646 0.964 0.69096 0.0
H723 H 0.21981 0.87739 0.62416 0.0
H724 H 0.29124 0.82918 0.66887 0.0
H725 H 0.27417 0.86863 0.63561 0.0
H726 H 0.27551 0.91599 0.7274 0.0
H727 H 0.29347 0.8783 0.75991 0.0
C728 C 0.25734 0.97161 0.65685 0.0
C729 C 0.22725 0.95732 0.6311 0.0
C730 C 0.27371 0.95224 0.6708 0.0
C731 C 0.26011 0.91778 0.65984 0.0
C732 C 0.23106 0.90389 0.63311 0.0
C733 C 0.21483 0.92347 0.61886 0.0
C734 C 0.28855 0.84854 0.68173 0.0
C735 C 0.29346 0.85038 0.71701 0.0
C736 C 0.27848 0.87089 0.66276 0.0
C737 C 0.27353 0.89554 0.67884 0.0
C738 C 0.27967 0.89787 0.71405 0.0
C739 C 0.28964 0.87582 0.73278 0.0
H740 H 0.39248 0.89746 0.78815 0.0
H741 H 0.37236 0.82704 0.87076 0.0
H742 H 0.4148 0.94621 0.8274 0.0
H743 H 0.39763 0.87551 0.91037 0.0
H744 H 0.41753 0.96177 0.97778 0.0
H745 H 0.39084 0.91453 0.93658 0.0
H746 H 0.45905 0.9854 0.86543 0.0
H747 H 0.48279 0.03319 0.90617 0.0
C748 C 0.39344 0.8926 0.81486 0.0
C749 C 0.38068 0.85856 0.82647 0.0
C750 C 0.40655 0.92062 0.83757 0.0
C751 C 0.40828 0.91544 0.8726 0.0
C752 C 0.39596 0.88108 0.88388 0.0
C753 C 0.38178 0.85306 0.86114 0.0
C754 C 0.42644 0.96718 0.95314 0.0
C755 C 0.45208 1.00109 0.94509 0.0
C756 C 0.4115 0.9399 0.92943 0.0
C757 C 0.42288 0.9454 0.89728 0.0
C758 C 0.44875 0.9797 0.88941 0.0
C759 C 0.46271 0.00727 0.91286 0.0
H760 H 0.34892 0.15173 0.06747 0.0
H761 H 0.42024 0.15684 0.15827 0.0
H762 H 0.31644 0.17086 0.09933 0.0
H763 H 0.38879 0.17699 0.18964 0.0
H764 H 0.30392 0.1765 0.24435 0.0
H765 H 0.32922 0.15393 0.20891 0.0
H766 H 0.3272 0.22388 0.13052 0.0
H767 H 0.30346 0.24833 0.16727 0.0
C768 C 0.35761 0.15678 0.09421 0.0
C769 C 0.38732 0.15278 0.11027 0.0
C770 C 0.33928 0.16818 0.11235 0.0
C771 C 0.35005 0.17558 0.147 0.0
C772 C 0.37956 0.17132 0.16302 0.0
C773 C 0.39786 0.16004 0.14495 0.0
C774 C 0.30819 0.18688 0.21938 0.0
C775 C 0.302 0.21466 0.20893 0.0
C776 C 0.32284 0.17384 0.19896 0.0
C777 C 0.33057 0.1872 0.16687 0.0
C778 C 0.3215 0.21296 0.15511 0.0
C779 C 0.30761 0.22679 0.17607 0.0
H780 H 0.17536 0.11314 0.48383 0.0
H781 H 0.07621 0.10645 0.42878 0.0
H782 H 0.21059 0.14854 0.44029 0.0
H783 H 0.11188 0.14328 0.38533 0.0
H784 H 0.2741 0.23794 0.37143 0.0
H785 H 0.23833 0.20193 0.415 0.0
H786 H 0.14296 0.14869 0.34002 0.0
H787 H 0.17858 0.18572 0.29692 0.0
C788 C 0.16094 0.11949 0.46255 0.0
C789 C 0.1226 0.10668 0.46024 0.0
C790 C 0.18146 0.14024 0.43738 0.0
C791 C 0.16467 0.14943 0.40874 0.0
C792 C 0.12621 0.13668 0.40646 0.0
C793 C 0.10555 0.11562 0.43167 0.0
C794 C 0.24559 0.21835 0.3642 0.0
C795 C 0.22946 0.21483 0.33044 0.0
C796 C 0.22483 0.19741 0.38932 0.0
C797 C 0.18717 0.17192 0.38162 0.0
C798 C 0.1714 0.16817 0.3476 0.0
C799 C 0.19209 0.18928 0.32258 0.0
H800 H 0.87297 0.14139 0.11205 0.0
H801 H 0.96363 0.17632 0.19264 0.0
H802 H 0.89898 0.11242 0.0849 0.0
H803 H 0.9907 0.14953 0.16463 0.0
H804 H 1.02755 0.07994 0.12219 0.0
H805 H 0.99935 0.10681 0.14907 0.0
H806 H 0.93612 0.10542 0.05399 0.0
H807 H 0.96364 0.07707 0.02751 0.0
C808 C 0.89845 0.1432 0.12438 0.0
C809 C 0.91542 0.16202 0.15535 0.0
C810 C 0.91401 0.12656 0.10819 0.0
C811 C 0.9477 0.1277 0.1218 0.0
C812 C 0.96466 0.14669 0.15265 0.0
C813 C 0.94903 0.16306 0.1689 0.0
C814 C 1.00766 0.08529 0.10675 0.0
C815 C 0.99859 0.07599 0.07216 0.0
C816 C 0.99129 0.10132 0.12239 0.0
C817 C 0.96493 0.10949 0.10443 0.0
C818 C 0.95569 0.09991 0.06969 0.0
C819 C 0.97193 0.08355 0.05408 0.0
H820 H 0.21672 0.56691 0.47697 0.0
H821 H 0.11684 0.57286 0.45278 0.0
H822 H 0.24386 0.60826 0.43227 0.0
H823 H 0.14253 0.61224 0.40747 0.0
H824 H 0.21368 0.71733 0.36511 0.0
H825 H 0.18614 0.67103 0.40456 0.0
H826 H 0.24437 0.62203 0.3736 0.0
H827 H 0.27296 0.66943 0.33459 0.0
C828 C 0.20039 0.57648 0.46153 0.0
C829 C 0.16501 0.56726 0.46837 0.0
C830 C 0.21576 0.60006 0.43594 0.0
C831 C 0.19569 0.61432 0.41671 0.0
C832 C 0.15934 0.60289 0.42241 0.0
C833 C 0.14442 0.58004 0.44816 0.0
C834 C 0.22035 0.69651 0.36647 0.0
C835 C 0.24556 0.69706 0.34687 0.0
C836 C 0.20445 0.66979 0.38904 0.0
C837 C 0.21283 0.6425 0.39223 0.0
C838 C 0.23773 0.64282 0.3722 0.0
C839 C 0.25399 0.66988 0.3498 0.0
H840 H 0.66985 0.91494 0.58491 0.0
H841 H 0.63193 0.92498 0.67482 0.0
H842 H 0.70167 0.88614 0.61665 0.0
H843 H 0.66403 0.89673 0.70675 0.0
H844 H 0.74369 0.85964 0.76899 0.0
H845 H 0.71144 0.88777 0.73693 0.0
H846 H 0.71331 0.84308 0.64553 0.0
H847 H 0.74512 0.81462 0.6778 0.0
C848 C 0.66787 0.91128 0.61147 0.0
C849 C 0.64688 0.92338 0.62593 0.0
C850 C 0.68667 0.89412 0.63036 0.0
C851 C 0.68698 0.88781 0.66581 0.0
C852 C 0.66612 0.9002 0.68019 0.0
C853 C 0.6469 0.91684 0.66122 0.0
C854 C 0.7374 0.85532 0.74205 0.0
C855 C 0.74826 0.83357 0.72737 0.0
C856 C 0.71815 0.87193 0.72297 0.0
C857 C 0.70824 0.86903 0.6871 0.0
C858 C 0.71944 0.84746 0.67245 0.0
C859 C 0.73819 0.83043 0.6916 0.0
H860 H 0.46993 0.42977 0.99957 0.0
H861 H 0.55661 0.45355 0.93993 0.0
H862 H 0.42565 0.38346 0.9589 0.0
H863 H 0.51233 0.40798 0.89916 0.0
H864 H 0.40849 0.35976 0.81705 0.0
H865 H 0.45215 0.40256 0.86009 0.0
H866 H 0.41967 0.32274 0.93476 0.0
H867 H 0.37608 0.27927 0.89118 0.0
C868 C 0.47942 0.42512 0.97776 0.0
C869 C 0.51657 0.44514 0.97274 0.0
C870 C 0.45424 0.39856 0.95475 0.0
C871 C 0.4658 0.39223 0.92614 0.0
C872 C 0.50287 0.41243 0.92109 0.0
C873 C 0.5281 0.43845 0.94434 0.0
C874 C 0.41081 0.35125 0.84261 0.0
C875 C 0.38916 0.31625 0.85089 0.0
C876 C 0.43577 0.37573 0.86714 0.0
C877 C 0.43912 0.36583 0.90058 0.0
C878 C 0.41734 0.33087 0.90907 0.0
C879 C 0.39274 0.30609 0.88424 0.0
H880 H 0.91179 0.87378 0.32066 0.0
H881 H 0.83484 0.86653 0.38481 0.0
H882 H 0.96302 0.91476 0.36004 0.0
H883 H 0.88571 0.91008 0.42316 0.0
H884 H 0.97837 0.93724 0.508 0.0
H885 H 0.92818 0.90692 0.46323 0.0
H886 H 1.00062 0.96624 0.38981 0.0
H887 H 0.05171 0.99469 0.43535 0.0
C888 C 0.90591 0.88244 0.34252 0.0
C889 C 0.86966 0.86725 0.34996 0.0
C890 C 0.93528 0.90597 0.36519 0.0
C891 C 0.92879 0.91521 0.39542 0.0
C892 C 0.89197 0.90259 0.40085 0.0
C893 C 0.86269 0.87818 0.37866 0.0
C894 C 0.98353 0.94336 0.4822 0.0
C895 C 1.01877 0.9677 0.47489 0.0
C896 C 0.95459 0.92652 0.45644 0.0
C897 C 0.95989 0.93443 0.42264 0.0
C898 C 0.99545 0.95909 0.41542 0.0
C899 C 1.02479 0.97533 0.44138 0.0
H900 H 0.55054 0.59989 0.63435 0.0
H901 H 0.47952 0.58557 0.5413 0.0
H902 H 0.52162 0.62732 0.65974 0.0
H903 H 0.4509 0.61374 0.56625 0.0
H904 H 0.38464 0.64607 0.62402 0.0
H905 H 0.4126 0.61755 0.59914 0.0
H906 H 0.51104 0.67156 0.67028 0.0
H907 H 0.48244 0.69865 0.69618 0.0
C908 C 0.52883 0.60266 0.61897 0.0
C909 C 0.51789 0.58991 0.58531 0.0
C910 C 0.51203 0.61891 0.63371 0.0
C911 C 0.48317 0.6236 0.61573 0.0
C912 C 0.4723 0.61079 0.58193 0.0
C913 C 0.48912 0.59447 0.56722 0.0
C914 C 0.4121 0.65182 0.63498 0.0
C915 C 0.43046 0.67541 0.66287 0.0
C916 C 0.42873 0.63545 0.62005 0.0
C917 C 0.4649 0.6415 0.63196 0.0
C918 C 0.48322 0.66507 0.65984 0.0
C919 C 0.4666 0.6814 0.67477 0.0
H920 H 0.61867 0.0921 0.96086 0.0
H921 H 0.5709 0.15958 0.94779 0.0
H922 H 0.66401 0.12876 0.92422 0.0
H923 H 0.61637 0.1962 0.91081 0.0
H924 H 0.67917 0.22582 0.81597 0.0
H925 H 0.63306 0.19134 0.85319 0.0
H926 H 0.71808 0.19002 0.92638 0.0
H927 H 0.76406 0.22456 0.88964 0.0
C928 C 0.61776 0.11473 0.95016 0.0
C929 C 0.59114 0.12292 0.95737 0.0
C930 C 0.64391 0.13584 0.92927 0.0
C931 C 0.64384 0.16543 0.9147 0.0
C932 C 0.61698 0.17346 0.92154 0.0
C933 C 0.59109 0.15258 0.94286 0.0
C934 C 0.68805 0.21837 0.8401 0.0
C935 C 0.72534 0.22793 0.84972 0.0
C936 C 0.66166 0.19874 0.86145 0.0
C937 C 0.67192 0.18781 0.89263 0.0
C938 C 0.70924 0.19772 0.90237 0.0
C939 C 0.73564 0.21771 0.88131 0.0
H940 H 0.05056 0.49383 0.10047 0.0
H941 H 0.12391 0.52673 0.026 0.0
H942 H 0.08013 0.46181 0.1289 0.0
H943 H 0.15379 0.49481 0.05441 0.0
H944 H 0.22018 0.4458 0.11993 0.0
H945 H 0.19068 0.47761 0.09115 0.0
H946 H 0.09788 0.42023 0.14499 0.0
H947 H 0.12739 0.38857 0.1738 0.0
C948 C 0.073 0.49456 0.08963 0.0
C949 C 0.08358 0.51414 0.05978 0.0
C950 C 0.09054 0.47547 0.10643 0.0
C951 C 0.1208 0.47421 0.09534 0.0
C952 C 0.13142 0.49396 0.06543 0.0
C953 C 0.11362 0.51281 0.04845 0.0
C954 C 0.1935 0.43948 0.12625 0.0
C955 C 0.17759 0.41308 0.15058 0.0
C956 C 0.17581 0.45829 0.10894 0.0
C957 C 0.14048 0.45305 0.11437 0.0
C958 C 0.12468 0.42677 0.13882 0.0
C959 C 0.14217 0.40771 0.15584 0.0
H960 H 0.66633 0.57955 0.9677 0.0
H961 H 0.58709 0.61473 0.94137 0.0
H962 H 0.70336 0.61762 0.92587 0.0
H963 H 0.62513 0.6539 0.89976 0.0
H964 H 0.73261 0.74523 0.85428 0.0
H965 H 0.69451 0.70979 0.89766 0.0
H966 H 0.69241 0.61911 0.86035 0.0
H967 H 0.72922 0.65396 0.81695 0.0
C968 C 0.65678 0.59555 0.95314 0.0
C969 C 0.6234 0.59372 0.9581 0.0
C970 C 0.67815 0.61746 0.929 0.0
C971 C 0.66751 0.6391 0.90933 0.0
C972 C 0.63443 0.63786 0.91456 0.0
C973 C 0.61244 0.61517 0.93828 0.0
C974 C 0.72426 0.71783 0.85556 0.0
C975 C 0.73441 0.70265 0.83216 0.0
C976 C 0.70207 0.69738 0.88022 0.0
C977 C 0.69025 0.66142 0.88267 0.0
C978 C 0.70098 0.64661 0.85951 0.0
C979 C 0.72218 0.66671 0.83452 0.0
H980 H 0.83906 0.39616 0.2547 0.0
H981 H 0.78458 0.31763 0.17561 0.0
H982 H 0.8184 0.43294 0.22242 0.0
H983 H 0.76265 0.35385 0.14366 0.0
H984 H 0.72113 0.45196 0.18966 0.0
H985 H 0.75677 0.42461 0.21368 0.0
H986 H 0.77233 0.40687 0.11415 0.0
H987 H 0.73613 0.43418 0.09001 0.0
C988 C 0.82348 0.38724 0.22994 0.0
C989 C 0.81306 0.35403 0.2177 0.0
C990 C 0.81132 0.4081 0.21162 0.0
C991 C 0.78797 0.39585 0.18097 0.0
C992 C 0.78058 0.36403 0.16721 0.0
C993 C 0.79322 0.34331 0.18543 0.0
C994 C 0.73247 0.44256 0.17292 0.0
C995 C 0.72584 0.44519 0.13799 0.0
C996 C 0.75313 0.42707 0.18666 0.0
C997 C 0.76785 0.41398 0.16583 0.0
C998 C 0.76125 0.4166 0.13083 0.0
C999 C 0.74042 0.43207 0.11704 0.0
H1000 H 1.04102 0.49526 0.42877 0.0
H1001 H 1.01589 0.41047 0.49754 0.0
H1002 H 0.99633 0.45486 0.38486 0.0
H1003 H 0.97101 0.36944 0.45302 0.0
H1004 H 0.86407 0.31643 0.37527 0.0
H1005 H 0.91007 0.35505 0.42037 0.0
H1006 H 0.98662 0.4081 0.34881 0.0
H1007 H 0.9406 0.36994 0.3039 0.0
C1008 C 1.02611 0.46782 0.43439 0.0
C1009 C 1.03187 0.45602 0.46661 0.0
C1010 C 1.00058 0.4446 0.40912 0.0
C1011 C 0.98 0.40887 0.41535 0.0
C1012 C 0.98614 0.39687 0.44751 0.0
C1013 C 1.01202 0.42024 0.4729 0.0
C1014 C 0.89068 0.33649 0.36923 0.0
C1015 C 0.89871 0.3403 0.33604 0.0
C1016 C 0.91716 0.35837 0.3951 0.0
C1017 C 0.9521 0.38464 0.38826 0.0
C1018 C 0.95989 0.38841 0.35496 0.0
C1019 C 0.93353 0.36652 0.32919 0.0
H1020 H 0.60282 0.5734 0.44236 0.0
H1021 H 0.65693 0.66116 0.51184 0.0
H1022 H 0.63773 0.61094 0.39855 0.0
H1023 H 0.69204 0.69828 0.46844 0.0
H1024 H 0.7819 0.73644 0.39648 0.0
H1025 H 0.7428 0.70005 0.43824 0.0
H1026 H 0.64653 0.66577 0.36363 0.0
H1027 H 0.68604 0.70258 0.32192 0.0
C1028 C 0.62189 0.60071 0.44821 0.0
C1029 C 0.62711 0.61419 0.48068 0.0
C1030 C 0.64184 0.62224 0.4231 0.0
C1031 C 0.66793 0.6576 0.43004 0.0
C1032 C 0.67251 0.67112 0.46233 0.0
C1033 C 0.6522 0.64982 0.48718 0.0
C1034 C 0.75236 0.72124 0.38911 0.0
C1035 C 0.73685 0.72272 0.35616 0.0
C1036 C 0.72993 0.70052 0.41302 0.0
C1037 C 0.69145 0.68006 0.40437 0.0
C1038 C 0.67601 0.68115 0.37115 0.0
C1039 C 0.69848 0.7025 0.34739 0.0
H1040 H 0.80705 0.38383 0.82959 0.0
H1041 H 0.8922 0.35633 0.82901 0.0
H1042 H 0.84805 0.43025 0.87154 0.0
H1043 H 0.93218 0.40154 0.87123 0.0
H1044 H 0.95721 0.53221 0.91791 0.0
H1045 H 0.91705 0.48878 0.87348 0.0
H1046 H 0.92336 0.40832 0.93491 0.0
H1047 H 0.96268 0.45144 0.97964 0.0
C1048 C 0.83438 0.38769 0.83842 0.0
C1049 C 0.84634 0.36632 0.82642 0.0
C1050 C 0.85776 0.41418 0.8622 0.0
C1051 C 0.89301 0.41909 0.87455 0.0
C1052 C 0.90498 0.39797 0.86223 0.0
C1053 C 0.88203 0.3721 0.83814 0.0
C1054 C 0.95015 0.50526 0.92176 0.0
C1055 C 0.96289 0.49498 0.95209 0.0
C1056 C 0.92702 0.48051 0.89655 0.0
C1057 C 0.9171 0.44539 0.90107 0.0
C1058 C 0.93071 0.43533 0.93099 0.0
C1059 C 0.95315 0.4599 0.95645 0.0
H1060 H 0.87398 0.90266 0.2174 0.0
H1061 H 0.88726 0.81493 0.19727 0.0
H1062 H 0.91326 0.93594 0.17447 0.0
H1063 H 0.92579 0.8479 0.15399 0.0
H1064 H 0.9411 0.90354 0.04868 0.0
H1065 H 0.91029 0.8716 0.09632 0.0
H1066 H 0.98279 0.96084 0.16139 0.0
H1067 H 1.01467 0.99262 0.1135 0.0
C1068 C 0.88529 0.89048 0.20388 0.0
C1069 C 0.87731 0.85603 0.21073 0.0
C1070 C 0.90804 0.90966 0.17948 0.0
C1071 C 0.92272 0.8946 0.16084 0.0
C1072 C 0.9149 0.86025 0.16787 0.0
C1073 C 0.89283 0.84137 0.1927 0.0
C1074 C 0.95102 0.91613 0.07329 0.0
C1075 C 0.98053 0.95047 0.07738 0.0
C1076 C 0.93332 0.89782 0.10059 0.0
C1077 C 0.94396 0.91367 0.13265 0.0
C1078 C 0.97388 0.94795 0.13696 0.0
C1079 C 0.99233 0.96603 0.10966 0.0
H1080 H 0.89328 0.19142 0.98676 0.0
H1081 H 0.77621 0.1396 0.95123 0.0
H1082 H 0.88855 0.13614 1.00275 0.0
H1083 H 0.77235 0.08356 0.9652 0.0
H1084 H 0.88283 0.03631 0.01165 0.0
H1085 H 0.85942 0.07322 0.02793 0.0
H1086 H 0.80919 0.06933 0.92566 0.0
H1087 H 0.83327 0.03324 0.90919 0.0
C1088 C 0.86613 0.16861 0.98371 0.0
C1089 C 0.83549 0.16991 0.96598 0.0
C1090 C 0.86345 0.13666 0.99297 0.0
C1091 C 0.83034 0.10559 0.98409 0.0
C1092 C 0.79835 0.10723 0.97169 0.0
C1093 C 0.80079 0.13933 0.96328 0.0
C1094 C 0.86542 0.04206 0.99292 0.0
C1095 C 0.86012 0.03219 0.959 0.0
C1096 C 0.85203 0.06315 1.00235 0.0
C1097 C 0.83261 0.07411 0.97809 0.0
C1098 C 0.82381 0.06099 0.94498 0.0
C1099 C 0.8379 0.04062 0.93542 0.0
H1100 H 0.82337 0.19856 0.72109 0.0
H1101 H 0.72506 0.18602 0.75543 0.0
H1102 H 0.78486 0.15468 0.67635 0.0
H1103 H 0.68685 0.1417 0.7115 0.0
H1104 H 0.64232 0.03418 0.65403 0.0
H1105 H 0.68076 0.07807 0.69827 0.0
H1106 H 0.73297 0.1534 0.62332 0.0
H1107 H 0.69348 0.10992 0.57883 0.0
C1108 C 0.79362 0.18615 0.71924 0.0
C1109 C 0.77705 0.19544 0.74157 0.0
C1110 C 0.77172 0.16134 0.69367 0.0
C1111 C 0.73309 0.14505 0.69073 0.0
C1112 C 0.71661 0.15392 0.71347 0.0
C1113 C 0.73843 0.17921 0.73847 0.0
C1114 C 0.66156 0.06022 0.64697 0.0
C1115 C 0.66467 0.06879 0.61305 0.0
C1116 C 0.68363 0.08518 0.67224 0.0
C1117 C 0.70978 0.11883 0.66398 0.0
C1118 C 0.7131 0.12744 0.63013 0.0
C1119 C 0.69042 0.10269 0.6048 0.0
H1120 H 0.5772 0.82408 0.47989 0.0
H1121 H 0.6941 0.86907 0.47806 0.0
H1122 H 0.56623 0.77088 0.45307 0.0
H1123 H 0.6834 0.81654 0.4508 0.0
H1124 H 0.58287 0.772 0.33697 0.0
H1125 H 0.57353 0.77896 0.39341 0.0
H1126 H 0.65932 0.75518 0.43411 0.0
H1127 H 0.66845 0.74813 0.37717 0.0
C1128 C 0.60065 0.82188 0.47507 0.0
C1129 C 0.63633 0.85084 0.47979 0.0
C1130 C 0.59441 0.79142 0.45988 0.0
C1131 C 0.62372 0.79001 0.44863 0.0
C1132 C 0.66006 0.81677 0.45883 0.0
C1133 C 0.66631 0.84712 0.47429 0.0
C1134 C 0.59821 0.76633 0.35799 0.0
C1135 C 0.62694 0.76051 0.35289 0.0
C1136 C 0.59282 0.77012 0.39052 0.0
C1137 C 0.61664 0.76879 0.4183 0.0
C1138 C 0.64106 0.757 0.41317 0.0
C1139 C 0.64617 0.75283 0.38053 0.0
H1140 H 0.82872 0.23389 0.39868 0.0
H1141 H 0.78776 0.15973 0.3161 0.0
H1142 H 0.85064 0.19844 0.4323 0.0
H1143 H 0.81046 0.12513 0.34903 0.0
H1144 H 0.84057 0.0593 0.41905 0.0
H1145 H 0.80695 0.08896 0.39602 0.0
H1146 H 0.90169 0.18793 0.42961 0.0
H1147 H 0.93466 0.15804 0.45437 0.0
C1148 C 0.82358 0.20963 0.38801 0.0
C1149 C 0.80687 0.19977 0.35464 0.0
C1150 C 0.83654 0.18956 0.4071 0.0
C1151 C 0.83285 0.15925 0.39317 0.0
C1152 C 0.81363 0.14817 0.36068 0.0
C1153 C 0.80075 0.16815 0.34169 0.0
C1154 C 0.85404 0.08734 0.42211 0.0
C1155 C 0.89041 0.1063 0.43848 0.0
C1156 C 0.83483 0.10437 0.40864 0.0
C1157 C 0.8516 0.14083 0.4109 0.0
C1158 C 0.88773 0.15978 0.42781 0.0
C1159 C 0.9069 0.1427 0.44148 0.0
H1160 H 0.75196 0.23715 0.19796 0.0
H1161 H 0.67167 0.18766 0.26678 0.0
H1162 H 0.70597 0.1999 0.15196 0.0
H1163 H 0.62577 0.15107 0.22108 0.0
H1164 H 0.56945 0.06336 0.14187 0.0
H1165 H 0.61429 0.10294 0.18621 0.0
H1166 H 0.64664 0.18822 0.11719 0.0
H1167 H 0.60156 0.14796 0.07224 0.0
C1168 C 0.72455 0.21826 0.20325 0.0
C1169 C 0.71547 0.21511 0.236 0.0
C1170 C 0.6981 0.1972 0.17687 0.0
C1171 C 0.66213 0.17246 0.18279 0.0
C1172 C 0.65327 0.1695 0.21564 0.0
C1173 C 0.67958 0.19053 0.24186 0.0
C1174 C 0.58589 0.09062 0.13615 0.0
C1175 C 0.58202 0.10255 0.10357 0.0
C1176 C 0.61155 0.11338 0.16165 0.0
C1177 C 0.63417 0.14881 0.15534 0.0
C1178 C 0.62991 0.161 0.1228 0.0
C1179 C 0.60389 0.13808 0.09717 0.0
H1180 H 0.80386 0.93116 0.97407 0.0
H1181 H 0.77948 0.94815 0.86895 0.0
H1182 H 0.77115 0.95972 0.98878 0.0
H1183 H 0.74896 0.97892 0.88378 0.0
H1184 H 0.71783 0.01953 0.01141 0.0
H1185 H 0.76426 0.00853 0.99349 0.0
H1186 H 0.69188 0.96107 0.90116 0.0
H1187 H 0.64649 0.97316 0.9187 0.0
C1188 C 0.79211 0.94158 0.95411 0.0
C1189 C 0.79362 0.9366 0.92028 0.0
C1190 C 0.77367 0.9584 0.96258 0.0
C1191 C 0.75663 0.97106 0.93741 0.0
C1192 C 0.76078 0.96859 0.90376 0.0
C1193 C 0.77895 0.95147 0.89528 0.0
C1194 C 0.71232 0.00731 0.98705 0.0
C1195 C 0.67853 0.99695 0.96653 0.0
C1196 C 0.73879 1.00087 0.9768 0.0
C1197 C 0.73177 0.98353 0.946 0.0
C1198 C 0.69868 0.97495 0.92479 0.0
C1199 C 0.67247 0.98175 0.93487 0.0
H1200 H 0.95919 0.98114 0.60613 0.0
H1201 H 1.0398 0.94801 0.63481 0.0
H1202 H 0.92246 0.94391 0.6485 0.0
H1203 H 1.00194 0.90951 0.677 0.0
H1204 H 0.89172 0.81751 0.72091 0.0
H1205 H 0.93087 0.85262 0.67804 0.0
H1206 H 0.93451 0.94414 0.71506 0.0
H1207 H 0.89669 0.90961 0.75804 0.0
C1208 C 0.96912 0.96577 0.62136 0.0
C1209 C 1.00278 0.96791 0.61685 0.0
C1210 C 0.9479 0.94434 0.64579 0.0
C1211 C 0.95893 0.92341 0.66624 0.0
C1212 C 0.99236 0.92502 0.66158 0.0
C1213 C 1.01425 0.94732 0.63755 0.0
C1214 C 0.90068 0.84504 0.71972 0.0
C1215 C 0.89059 0.86052 0.74289 0.0
C1216 C 0.92349 0.8653 0.69535 0.0
C1217 C 0.93602 0.90139 0.69296 0.0
C1218 C 0.92545 0.91654 0.71593 0.0
C1219 C 0.90364 0.89662 0.74066 0.0
H1220 H 0.23392 0.91489 0.94046 0.0
H1221 H 0.1332 0.85768 0.87278 0.0
H1222 H 0.20672 0.94437 0.965 0.0
H1223 H 0.10546 0.8859 0.89836 0.0
H1224 H 0.06759 0.95986 0.93207 0.0
H1225 H 0.09567 0.93142 0.90695 0.0
H1226 H 0.16932 0.9485 0.99914 0.0
H1227 H 0.14161 0.97772 0.02385 0.0
C1228 C 0.20597 0.90833 0.93043 0.0
C1229 C 0.18653 0.88317 0.90391 0.0
C1230 C 0.18983 0.92527 0.94516 0.0
C1231 C 0.15314 0.91827 0.93437 0.0
C1232 C 0.13373 0.89314 0.90784 0.0
C1233 C 0.14985 0.87619 0.89313 0.0
C1234 C 0.08978 0.95768 0.94722 0.0
C1235 C 0.10174 0.9716 0.98047 0.0
C1236 C 0.10607 0.94084 0.93265 0.0
C1237 C 0.13544 0.93679 0.95038 0.0
C1238 C 0.14742 0.95086 0.98372 0.0
C1239 C 0.13108 0.96772 0.99829 0.0
H1240 H 1.01453 0.38766 0.58889 0.0
H1241 H 1.0337 0.47941 0.64094 0.0
H1242 H 0.9694 0.35086 0.62619 0.0
H1243 H 0.98922 0.44258 0.67849 0.0
H1244 H 0.93993 0.36076 0.76106 0.0
H1245 H 0.98557 0.39536 0.72367 0.0
H1246 H 0.9046 0.3429 0.63761 0.0
H1247 H 0.85852 0.30865 0.67492 0.0
C1248 C 1.00931 0.39994 0.60841 0.0
C1249 C 1.02765 0.43643 0.61198 0.0
C1250 C 0.98338 0.37889 0.62959 0.0
C1251 C 0.97593 0.39391 0.65521 0.0
C1252 C 0.99463 0.43035 0.65906 0.0
C1253 C 1.01994 0.45139 0.63747 0.0
C1254 C 0.93188 0.35636 0.73418 0.0
C1255 C 0.89559 0.33192 0.72096 0.0
C1256 C 0.95797 0.37632 0.71282 0.0
C1257 C 0.94856 0.37179 0.6778 0.0
C1258 C 0.91259 0.34674 0.66454 0.0
C1259 C 0.88625 0.32725 0.68589 0.0
H1260 H 0.56672 0.06138 0.46685 0.0
H1261 H 0.50459 0.04135 0.54881 0.0
H1262 H 0.537 0.09323 0.43829 0.0
H1263 H 0.47466 0.07315 0.52039 0.0
H1264 H 0.40775 0.12288 0.45784 0.0
H1265 H 0.43741 0.09123 0.4865 0.0
H1266 H 0.51906 0.13374 0.41916 0.0
H1267 H 0.48931 0.16514 0.39041 0.0
C1268 C 0.54678 0.0635 0.47934 0.0
C1269 C 0.53933 0.04751 0.5113 0.0
C1270 C 0.52914 0.0825 0.46245 0.0
C1271 C 0.50194 0.0873 0.47561 0.0
C1272 C 0.4945 0.07116 0.50767 0.0
C1273 C 0.51235 0.05236 0.52466 0.0
C1274 C 0.43194 0.12591 0.44847 0.0
C1275 C 0.44466 0.14813 0.42039 0.0
C1276 C 0.44977 0.10719 0.4657 0.0
C1277 C 0.48211 0.10836 0.45656 0.0
C1278 C 0.49472 0.13047 0.42841 0.0
C1279 C 0.47708 0.14941 0.41137 0.0
H1280 H 0.5732 0.59748 0.13035 0.0
H1281 H 0.65204 0.59513 0.07429 0.0
H1282 H 0.62376 0.63462 0.17351 0.0
H1283 H 0.70209 0.6313 0.11741 0.0
H1284 H 0.77448 0.74116 0.16956 0.0
H1285 H 0.72833 0.69313 0.13251 0.0
H1286 H 0.67485 0.63796 0.21772 0.0
H1287 H 0.72149 0.68645 0.25497 0.0
C1288 C 0.60124 0.60461 0.12748 0.0
C1289 C 0.60882 0.59386 0.0989 0.0
C1290 C 0.63008 0.62547 0.15228 0.0
C1291 C 0.66686 0.63586 0.14874 0.0
C1292 C 0.6741 0.62398 0.12065 0.0
C1293 C 0.64541 0.60328 0.09597 0.0
C1294 C 0.75354 0.71825 0.18044 0.0
C1295 C 0.75144 0.71733 0.21494 0.0
C1296 C 0.7271 0.69076 0.15929 0.0
C1297 C 0.6978 0.66195 0.17222 0.0
C1298 C 0.69697 0.66005 0.20711 0.0
C1299 C 0.72385 0.68751 0.22842 0.0
H1300 H 0.20827 0.20468 0.75159 0.0
H1301 H 0.24071 0.2846 0.67687 0.0
H1302 H 0.16423 0.1617 0.70893 0.0
H1303 H 0.19674 0.24089 0.63362 0.0
H1304 H 0.14895 0.13249 0.57113 0.0
H1305 H 0.19189 0.1803 0.61081 0.0
H1306 H 0.10397 0.15537 0.66912 0.0
H1307 H 0.06093 0.10816 0.62926 0.0
C1308 C 0.20584 0.21304 0.72599 0.0
C1309 C 0.22767 0.2479 0.71741 0.0
C1310 C 0.18063 0.18847 0.70168 0.0
C1311 C 0.17722 0.19814 0.66818 0.0
C1312 C 0.19907 0.23298 0.6594 0.0
C1313 C 0.22391 0.25788 0.68402 0.0
C1314 C 0.13885 0.13742 0.59235 0.0
C1315 C 0.10176 0.11672 0.59732 0.0
C1316 C 0.16327 0.16484 0.61477 0.0
C1317 C 0.15101 0.17142 0.64275 0.0
C1318 C 0.11392 0.15074 0.64763 0.0
C1319 C 0.08942 0.12379 0.62493 0.0
H1320 H 0.70608 0.37419 0.46312 0.0
H1321 H 0.6917 0.41899 0.36829 0.0
H1322 H 0.67911 0.40303 0.48941 0.0
H1323 H 0.66547 0.44846 0.3947 0.0
H1324 H 0.58896 0.47604 0.4423 0.0
H1325 H 0.6165 0.44738 0.41657 0.0
H1326 H 0.68073 0.45189 0.51175 0.0
H1327 H 0.65323 0.48098 0.5374 0.0
C1328 C 0.69713 0.39 0.4475 0.0
C1329 C 0.70147 0.39341 0.4129 0.0
C1330 C 0.68173 0.40719 0.46297 0.0
C1331 C 0.66928 0.42864 0.44478 0.0
C1332 C 0.67377 0.43214 0.41021 0.0
C1333 C 0.68951 0.41523 0.39483 0.0
C1334 C 0.60905 0.47114 0.45798 0.0
C1335 C 0.61833 0.48132 0.49238 0.0
C1336 C 0.62534 0.45462 0.44293 0.0
C1337 C 0.65172 0.44686 0.4614 0.0
C1338 C 0.66075 0.45681 0.49599 0.0
C1339 C 0.6448 0.47382 0.51097 0.0
H1340 H 0.41553 0.94173 0.06406 0.0
H1341 H 0.46576 0.03134 0.13115 0.0
H1342 H 0.38562 0.9041 0.10968 0.0
H1343 H 0.4365 0.99323 0.17718 0.0
H1344 H 0.42106 0.88805 0.24331 0.0
H1345 H 0.44688 0.93214 0.20038 0.0
H1346 H 0.33696 0.90584 0.15472 0.0
H1347 H 0.31113 0.86289 0.19815 0.0
C1348 C 0.4198 0.95338 0.08848 0.0
C1349 C 0.44285 0.98939 0.09414 0.0
C1350 C 0.40272 0.93189 0.11447 0.0
C1351 C 0.40908 0.94592 0.14675 0.0
C1352 C 0.43138 0.98199 0.15239 0.0
C1353 C 0.44782 1.0037 0.12609 0.0
C1354 C 0.40253 0.89212 0.22439 0.0
C1355 C 0.36417 0.87224 0.22407 0.0
C1356 C 0.41724 0.91736 0.20005 0.0
C1357 C 0.39377 0.92235 0.17461 0.0
C1358 C 0.35549 0.90257 0.17435 0.0
C1359 C 0.34083 0.87813 0.19919 0.0
H1360 H 0.99317 0.64026 0.8992 0.0
H1361 H 0.94908 0.6438 0.98762 0.0
H1362 H 0.96129 0.66878 0.86739 0.0
H1363 H 0.91753 0.6729 0.95601 0.0
H1364 H 0.87601 0.74661 0.89613 0.0
H1365 H 0.90744 0.71772 0.92828 0.0
H1366 H 0.91299 0.6765 0.83636 0.0
H1367 H 0.881 0.70494 0.8044 0.0
C1368 C 0.97686 0.64699 0.91249 0.0
C1369 C 0.97506 0.63851 0.94732 0.0
C1370 C 0.95778 0.66379 0.89358 0.0
C1371 C 0.93533 0.67448 0.90762 0.0
C1372 C 0.93384 0.66628 0.94263 0.0
C1373 C 0.95245 0.64891 0.96141 0.0
C1374 C 0.88368 0.73149 0.8822 0.0
C1375 C 0.87471 0.72939 0.84632 0.0
C1376 C 0.90219 0.71421 0.90126 0.0
C1377 C 0.91429 0.69348 0.88642 0.0
C1378 C 0.90552 0.69165 0.85045 0.0
C1379 C 0.88644 0.70844 0.83145 0.0
H1380 H 0.54346 0.45072 0.14158 0.0
H1381 H 0.44617 0.45039 0.08976 0.0
H1382 H 0.50768 0.41418 0.18503 0.0
H1383 H 0.41079 0.41502 0.13339 0.0
H1384 H 0.44294 0.37378 0.27485 0.0
H1385 H 0.47846 0.41063 0.23159 0.0
H1386 H 0.38156 0.36055 0.15761 0.0
H1387 H 0.34598 0.32457 0.20132 0.0
C1388 C 0.51448 0.443 0.13939 0.0
C1389 C 0.498 0.45369 0.11175 0.0
C1390 C 0.4938 0.4221 0.16462 0.0
C1391 C 0.45584 0.41119 0.16328 0.0
C1392 C 0.43954 0.42199 0.13553 0.0
C1393 C 0.46012 0.4427 0.11034 0.0
C1394 C 0.42908 0.37085 0.24939 0.0
C1395 C 0.39137 0.34614 0.24184 0.0
C1396 C 0.44968 0.39185 0.22428 0.0
C1397 C 0.43343 0.3889 0.19049 0.0
C1398 C 0.39543 0.36436 0.18312 0.0
C1399 C 0.3748 0.34345 0.20832 0.0
H1400 H 0.45124 0.66424 0.94894 0.0
H1401 H 0.35106 0.56644 0.92366 0.0
H1402 H 0.41948 0.69562 0.92509 0.0
H1403 H 0.31977 0.59796 0.89907 0.0
H1404 H 0.30708 0.6699 0.8137 0.0
H1405 H 0.32913 0.63485 0.84734 0.0
H1406 H 0.36618 0.70682 0.93119 0.0
H1407 H 0.34368 0.74203 0.89731 0.0
C1408 C 0.42235 0.64941 0.93876 0.0
C1409 C 0.40389 0.61277 0.93786 0.0
C1410 C 0.40415 0.66742 0.92517 0.0
C1411 C 0.3672 0.64921 0.91018 0.0
C1412 C 0.34839 0.61264 0.91017 0.0
C1413 C 0.36645 0.59463 0.924 0.0
C1414 C 0.31927 0.67788 0.83954 0.0
C1415 C 0.32384 0.7087 0.85292 0.0
C1416 C 0.33174 0.65772 0.85884 0.0
C1417 C 0.34954 0.66822 0.89181 0.0
C1418 C 0.35274 0.69829 0.90575 0.0
C1419 C 0.33963 0.71823 0.88652 0.0
H1420 H 0.20126 0.5967 0.5897 0.0
H1421 H 0.13501 0.52394 0.65996 0.0
H1422 H 0.22677 0.64341 0.63138 0.0
H1423 H 0.1576 0.57115 0.70117 0.0
H1424 H 0.2226 0.65871 0.77946 0.0
H1425 H 0.2011 0.61032 0.73989 0.0
H1426 H 0.21845 0.68157 0.65741 0.0
H1427 H 0.24285 0.72966 0.69728 0.0
C1428 C 0.19191 0.59088 0.61415 0.0
C1429 C 0.16634 0.55676 0.62168 0.0
C1430 C 0.20614 0.61784 0.63812 0.0
C1431 C 0.1941 0.61179 0.67002 0.0
C1432 C 0.16835 0.57726 0.6774 0.0
C1433 C 0.15508 0.55003 0.65369 0.0
C1434 C 0.22182 0.66376 0.75279 0.0
C1435 C 0.23442 0.69787 0.74139 0.0
C1436 C 0.20921 0.63596 0.72991 0.0
C1437 C 0.20788 0.64143 0.69492 0.0
C1438 C 0.2199 0.67581 0.68386 0.0
C1439 C 0.23355 0.70361 0.70676 0.0
H1440 H 0.37911 0.39225 0.72091 0.0
H1441 H 0.39149 0.30538 0.69527 0.0
H1442 H 0.42209 0.42882 0.68274 0.0
H1443 H 0.43582 0.34246 0.65775 0.0
H1444 H 0.52321 0.49737 0.63286 0.0
H1445 H 0.48381 0.45952 0.67355 0.0
H1446 H 0.44322 0.37108 0.60639 0.0
H1447 H 0.48365 0.40869 0.56666 0.0
C1448 C 0.39118 0.38091 0.70726 0.0
C1449 C 0.3816 0.34568 0.71128 0.0
C1450 C 0.41629 0.40214 0.68546 0.0
C1451 C 0.43304 0.38902 0.66705 0.0
C1452 C 0.42335 0.35365 0.67102 0.0
C1453 C 0.39791 0.33228 0.6927 0.0
C1454 C 0.50623 0.46975 0.62707 0.0
C1455 C 0.50661 0.45616 0.59643 0.0
C1456 C 0.48323 0.44797 0.65026 0.0
C1457 C 0.45969 0.41197 0.64339 0.0
C1458 C 0.46102 0.39839 0.61305 0.0
C1459 C 0.48419 0.4201 0.59004 0.0
H1460 H 0.28001 0.76513 0.16328 0.0
H1461 H 0.20179 0.72491 0.23449 0.0
H1462 H 0.22977 0.73851 0.11722 0.0
H1463 H 0.15106 0.69847 0.18817 0.0
H1464 H 0.13186 0.70498 0.03685 0.0
H1465 H 0.17697 0.73885 0.08473 0.0
H1466 H 0.12665 0.65028 0.14837 0.0
H1467 H 0.0815 0.61684 0.10077 0.0
C1468 C 0.25196 0.75089 0.16907 0.0
C1469 C 0.24493 0.74686 0.20259 0.0
C1470 C 0.22303 0.73581 0.14256 0.0
C1471 C 0.18617 0.71616 0.14879 0.0
C1472 C 0.17908 0.71303 0.18237 0.0
C1473 C 0.20811 0.72832 0.20895 0.0
C1474 C 0.13007 0.693 0.06121 0.0
C1475 C 0.10323 0.65814 0.06491 0.0
C1476 C 0.15612 0.71231 0.08865 0.0
C1477 C 0.15584 0.69727 0.1205 0.0
C1478 C 0.1277 0.66294 0.12444 0.0
C1479 C 0.10182 0.64365 0.09703 0.0
H1480 H 0.71882 0.36078 0.58056 0.0
H1481 H 0.83709 0.4133 0.60978 0.0
H1482 H 0.72337 0.41449 0.55861 0.0
H1483 H 0.84099 0.46795 0.58955 0.0
H1484 H 0.73187 0.51424 0.53397 0.0
H1485 H 0.75092 0.47191 0.52443 0.0
H1486 H 0.80984 0.49177 0.62499 0.0
H1487 H 0.7901 0.53312 0.63486 0.0
C1488 C 0.74606 0.38327 0.58109 0.0
C1489 C 0.7774 0.38287 0.59836 0.0
C1490 C 0.74863 0.41427 0.56839 0.0
C1491 C 0.7824 0.44548 0.57325 0.0
C1492 C 0.81454 0.44423 0.58602 0.0
C1493 C 0.81212 0.41299 0.598 0.0
C1494 C 0.75012 0.51071 0.55364 0.0
C1495 C 0.75921 0.52699 0.58545 0.0
C1496 C 0.76101 0.48643 0.54804 0.0
C1497 C 0.78171 0.47853 0.57395 0.0
C1498 C 0.79418 0.49758 0.60438 0.0
C1499 C 0.78268 0.52122 0.61016 0.0
H1500 H 1.04133 0.82225 0.23737 0.0
H1501 H 0.93366 0.79774 0.18705 0.0
H1502 H 0.05329 0.8016 0.18816 0.0
H1503 H 0.94321 0.77375 0.13982 0.0
H1504 H 0.94114 0.69701 0.0777 0.0
H1505 H 0.95899 0.75465 0.09831 0.0
H1506 H 1.03311 0.74522 0.17958 0.0
H1507 H 1.01865 0.69038 0.15668 0.0
C1508 C 1.02085 0.81366 0.21519 0.0
C1509 C 0.98633 0.81071 0.21601 0.0
C1510 C 1.02722 0.80111 0.18719 0.0
C1511 C 0.99818 0.78332 0.16092 0.0
C1512 C 0.96619 0.78626 0.15957 0.0
C1513 C 0.96053 0.80017 0.18687 0.0
C1514 C 0.962 0.70778 0.09944 0.0
C1515 C 0.97721 0.68828 0.11643 0.0
C1516 C 0.97208 0.74086 0.11152 0.0
C1517 C 0.99666 0.75466 0.14148 0.0
C1518 C 1.01411 0.7362 0.15654 0.0
C1519 C 1.00485 0.70379 0.14394 0.0
H1520 H 0.90615 0.54982 0.55794 0.0
H1521 H 0.96884 0.57701 0.65704 0.0
H1522 H 0.8599 0.56039 0.5769 0.0
H1523 H 0.92318 0.58813 0.67592 0.0
H1524 H 0.8297 0.59583 0.70639 0.0
H1525 H 0.86143 0.56752 0.68788 0.0
H1526 H 0.86092 0.61306 0.59018 0.0
H1527 H 0.83003 0.64168 0.60869 0.0
C1528 C 0.90974 0.55764 0.58388 0.0
C1529 C 0.94126 0.56306 0.60593 0.0
C1530 C 0.88336 0.56377 0.59473 0.0
C1531 C 0.88813 0.57562 0.62779 0.0
C1532 C 0.91843 0.57872 0.65039 0.0
C1533 C 0.94468 0.57242 0.63957 0.0
C1534 C 0.83613 0.59957 0.68087 0.0
C1535 C 0.82783 0.62153 0.65924 0.0
C1536 C 0.85442 0.58344 0.67033 0.0
C1537 C 0.86421 0.58845 0.63773 0.0
C1538 C 0.85351 0.60835 0.61537 0.0
C1539 C 0.83556 0.6247 0.62599 0.0
H1540 H 0.34784 0.49576 0.39231 0.0
H1541 H 0.336 0.50846 0.49482 0.0
H1542 H 0.31344 0.5247 0.37261 0.0
H1543 H 0.30292 0.53989 0.47475 0.0
H1544 H 0.35777 0.65293 0.42082 0.0
H1545 H 0.34185 0.59965 0.45127 0.0
H1546 H 0.26299 0.53985 0.36647 0.0
H1547 H 0.27879 0.59358 0.33585 0.0
C1548 C 0.33653 0.50336 0.41067 0.0
C1549 C 0.34549 0.50048 0.44525 0.0
C1550 C 0.31646 0.51995 0.39927 0.0
C1551 C 0.30619 0.53528 0.42222 0.0
C1552 C 0.31098 0.52866 0.45658 0.0
C1553 C 0.33028 0.51106 0.46803 0.0
C1554 C 0.33594 0.62862 0.40911 0.0
C1555 C 0.32071 0.62721 0.37544 0.0
C1556 C 0.32643 0.59798 0.42677 0.0
C1557 C 0.30182 0.56552 0.41087 0.0
C1558 C 0.28253 0.56454 0.37905 0.0
C1559 C 0.29209 0.5952 0.36135 0.0
H1560 H 0.20245 0.36668 0.92344 0.0
H1561 H 0.29908 0.46563 0.91085 0.0
H1562 H 0.17349 0.39713 0.94343 0.0
H1563 H 0.27034 0.4958 0.93058 0.0
H1564 H 0.21428 0.54433 0.9739 0.0
H1565 H 0.24468 0.50936 0.974 0.0
H1566 H 0.14925 0.43127 0.91133 0.0
H1567 H 0.11899 0.46591 0.91156 0.0
C1568 C 0.21774 0.39484 0.92555 0.0
C1569 C 0.25281 0.41376 0.91518 0.0
C1570 C 0.2012 0.41225 0.93696 0.0
C1571 C 0.21944 0.44885 0.9381 0.0
C1572 C 0.25567 0.46759 0.93033 0.0
C1573 C 0.27219 0.45022 0.91898 0.0
C1574 C 0.19987 0.51958 0.96033 0.0
C1575 C 0.16449 0.50792 0.94245 0.0
C1576 C 0.21712 0.49953 0.96053 0.0
C1577 C 0.19934 0.46756 0.94272 0.0
C1578 C 0.16342 0.45542 0.92587 0.0
C1579 C 0.14616 0.47537 0.92578 0.0
H1580 H 0.32257 0.31373 0.40641 0.0
H1581 H 0.31447 0.38271 0.3297 0.0
H1582 H 0.30124 0.33813 0.44534 0.0
H1583 H 0.29025 0.40439 0.36658 0.0
H1584 H 0.25625 0.45064 0.43835 0.0
H1585 H 0.29203 0.4348 0.4087 0.0
H1586 H 0.24879 0.33575 0.45805 0.0
H1587 H 0.21455 0.35262 0.48934 0.0
C1588 C 0.3169 0.33448 0.398 0.0
C1589 C 0.31992 0.34591 0.36473 0.0
C1590 C 0.30387 0.34805 0.42013 0.0
C1591 C 0.29299 0.37293 0.40932 0.0
C1592 C 0.2985 0.38577 0.37664 0.0
C1593 C 0.31226 0.37292 0.35501 0.0
C1594 C 0.25512 0.42587 0.44361 0.0
C1595 C 0.23251 0.40305 0.46639 0.0
C1596 C 0.2755 0.41653 0.42622 0.0
C1597 C 0.2739 0.38399 0.43072 0.0
C1598 C 0.25167 0.36135 0.45407 0.0
C1599 C 0.23139 0.3708 0.47171 0.0
loop_
_geom_bond_atom_site_label_1
_geom_bond_atom_site_label_2
_geom_bond_distance
_geom_bond_site_symmetry_2
_ccdc_geom_bond_type
Gd0 C3 2.818 . S
Gd0 O20 2.377 . S
Gd0 O22 2.448 . S
Gd0 O23 2.506 1_545 S
Gd0 O24 2.435 . S
Gd0 O25 2.717 . S
Gd0 O27 2.395 . S
Gd0 O31 2.327 1_445 S
Gd1 C12 2.818 . S
Gd1 O21 2.395 1_545 S
Gd1 O25 2.327 1_656 S
Gd1 O26 2.377 1_556 S
Gd1 O28 2.448 . S
Gd1 O29 2.506 . S
Gd1 O30 2.435 1_546 S
Gd1 O31 2.717 1_546 S
C2 O20 1.240 1_566 S
C2 O21 1.240 1_455 S
C3 Gd0 2.818 . S
C3 C4 1.510 1_545 S
C3 O22 1.249 . S
C3 O23 1.252 1_545 S
C4 C3 1.510 1_565 S
C4 C5 1.404 1_565 S
C4 C6 1.352 . S
C5 C4 1.404 1_545 S
C5 C9 1.389 . S
C5 H32 0.930 . S
C6 C4 1.352 . S
C6 C8 1.374 . S
C6 H33 0.931 . S
C7 C8 1.359 . S
C7 C9 1.364 1_565 S
C8 C6 1.374 . S
C8 C7 1.359 . S
C8 H34 0.931 . S
C9 C5 1.389 . S
C9 C7 1.364 1_545 S
C9 H35 0.931 . S
C10 O24 1.256 . S
C10 O25 1.257 . S
C11 O26 1.240 . S
C11 O27 1.240 1_655 S
C12 Gd1 2.818 . S
C12 C13 1.510 . S
C12 O28 1.249 . S
C12 O29 1.252 . S
C13 C12 1.510 . S
C13 C14 1.404 . S
C13 C15 1.352 . S
C14 C13 1.404 . S
C14 C18 1.389 . S
C14 H36 0.930 . S
C15 C13 1.352 . S
C15 C17 1.374 . S
C15 H37 0.931 . S
C16 C17 1.359 . S
C16 C18 1.364 . S
C17 C15 1.374 . S
C17 C16 1.359 . S
C17 H38 0.931 . S
C18 C14 1.389 . S
C18 C16 1.364 . S
C18 H39 0.931 . S
C19 O30 1.256 . S
C19 O31 1.257 . S
O20 Gd0 2.377 . S
O20 C2 1.240 1_544 S
O21 Gd1 2.395 1_565 S
O21 C2 1.240 1_655 S
O22 Gd0 2.448 . S
O22 C3 1.249 . S
O23 Gd0 2.506 1_565 S
O23 C3 1.252 1_565 S
O24 Gd0 2.435 . S
O24 C10 1.256 . S
O25 Gd0 2.717 . S
O25 Gd1 2.327 1_454 S
O25 C10 1.257 . S
O26 Gd1 2.377 1_554 S
O26 C11 1.240 . S
O27 Gd0 2.395 . S
O27 C11 1.240 1_455 S
O28 Gd1 2.448 . S
O28 C12 1.249 . S
O29 Gd1 2.506 . S
O29 C12 1.252 . S
O30 Gd1 2.435 1_564 S
O30 C19 1.256 . S
O31 Gd0 2.327 1_665 S
O31 Gd1 2.717 1_564 S
O31 C19 1.257 . S
H32 C5 0.930 . S
H33 C6 0.931 . S
H34 C8 0.931 . S
H35 C9 0.931 . S
H36 C14 0.930 . S
H37 C15 0.931 . S
H38 C17 0.931 . S
H39 C18 0.931 . S
Gd40 C43 2.818 . S
Gd40 O60 2.377 . S
Gd40 O62 2.448 . S
Gd40 O63 2.506 . S
Gd40 O64 2.435 . S
Gd40 O65 2.717 . S
Gd40 O67 2.395 . S
Gd40 O71 2.327 . S
Gd41 C52 2.818 . S
Gd41 O61 2.395 . S
Gd41 O65 2.327 . S
Gd41 O66 2.377 . S
Gd41 O68 2.448 . S
Gd41 O69 2.506 . S
Gd41 O70 2.435 . S
Gd41 O71 2.717 . S
C42 O60 1.240 . S
C42 O61 1.240 . S
C43 Gd40 2.818 . S
C43 C44 1.510 . S
C43 O62 1.249 . S
C43 O63 1.252 . S
C44 C43 1.510 . S
C44 C45 1.404 . S
C44 C46 1.352 . S
C45 C44 1.404 . S
C45 C49 1.389 . S
C45 H72 0.930 . S
C46 C44 1.352 . S
C46 C48 1.374 . S
C46 H73 0.931 . S
C47 C48 1.359 . S
C47 C49 1.364 . S
C48 C46 1.374 . S
C48 C47 1.359 . S
C48 H74 0.931 . S
C49 C45 1.389 . S
C49 C47 1.364 . S
C49 H75 0.931 . S
C50 O64 1.256 . S
C50 O65 1.257 . S
C51 O66 1.240 . S
C51 O67 1.240 . S
C52 Gd41 2.818 . S
C52 C53 1.510 . S
C52 O68 1.249 . S
C52 O69 1.252 . S
C53 C52 1.510 . S
C53 C54 1.404 . S
C53 C55 1.352 . S
C54 C53 1.404 . S
C54 C58 1.389 . S
C54 H76 0.930 . S
C55 C53 1.352 . S
C55 C57 1.374 . S
C55 H77 0.931 . S
C56 C57 1.359 . S
C56 C58 1.364 . S
C57 C55 1.374 . S
C57 C56 1.359 . S
C57 H78 0.931 . S
C58 C54 1.389 . S
C58 C56 1.364 . S
C58 H79 0.931 . S
C59 O70 1.256 . S
C59 O71 1.257 . S
O60 Gd40 2.377 . S
O60 C42 1.240 . S
O61 Gd41 2.395 . S
O61 C42 1.240 . S
O62 Gd40 2.448 . S
O62 C43 1.249 . S
O63 Gd40 2.506 . S
O63 C43 1.252 . S
O64 Gd40 2.435 . S
O64 C50 1.256 . S
O65 Gd40 2.717 . S
O65 Gd41 2.327 . S
O65 C50 1.257 . S
O66 Gd41 2.377 . S
O66 C51 1.240 . S
O67 Gd40 2.395 . S
O67 C51 1.240 . S
O68 Gd41 2.448 . S
O68 C52 1.249 . S
O69 Gd41 2.506 . S
O69 C52 1.252 . S
O70 Gd41 2.435 . S
O70 C59 1.256 . S
O71 Gd40 2.327 . S
O71 Gd41 2.717 . S
O71 C59 1.257 . S
H72 C45 0.930 . S
H73 C46 0.931 . S
H74 C48 0.931 . S
H75 C49 0.931 . S
H76 C54 0.930 . S
H77 C55 0.931 . S
H78 C57 0.931 . S
H79 C58 0.931 . S
Gd80 C83 2.818 1_565 S
Gd80 O100 2.377 1_565 S
Gd80 O102 2.448 . S
Gd80 O103 2.506 1_565 S
Gd80 O104 2.435 . S
Gd80 O105 2.717 . S
Gd80 O107 2.395 . S
Gd80 O111 2.327 1_565 S
Gd81 C92 2.818 1_545 S
Gd81 O101 2.395 . S
Gd81 O105 2.327 1_545 S
Gd81 O106 2.377 1_545 S
Gd81 O108 2.448 . S
Gd81 O109 2.506 1_545 S
Gd81 O110 2.435 . S
Gd81 O111 2.717 . S
C82 O100 1.240 . S
C82 O101 1.240 . S
C83 Gd80 2.818 1_545 S
C83 C84 1.510 . S
C83 O102 1.249 1_545 S
C83 O103 1.252 . S
C84 C83 1.510 . S
C84 C85 1.404 . S
C84 C86 1.352 . S
C85 C84 1.404 . S
C85 C89 1.389 . S
C85 H112 0.930 1_545 S
C86 C84 1.352 . S
C86 C88 1.374 . S
C86 H113 0.931 . S
C87 C88 1.359 . S
C87 C89 1.364 . S
C88 C86 1.374 . S
C88 C87 1.359 . S
C88 H114 0.931 . S
C89 C85 1.389 . S
C89 C87 1.364 . S
C89 H115 0.932 . S
C90 O104 1.256 . S
C90 O105 1.257 . S
C91 O106 1.240 . S
C91 O107 1.240 . S
C92 Gd81 2.818 1_565 S
C92 C93 1.510 . S
C92 O108 1.249 1_565 S
C92 O109 1.252 . S
C93 C92 1.510 . S
C93 C94 1.404 . S
C93 C95 1.352 . S
C94 C93 1.404 . S
C94 C98 1.389 . S
C94 H116 0.930 1_565 S
C95 C93 1.352 . S
C95 C97 1.374 . S
C95 H117 0.931 . S
C96 C97 1.359 . S
C96 C98 1.364 . S
C97 C95 1.374 . S
C97 C96 1.359 . S
C97 H118 0.931 . S
C98 C94 1.389 . S
C98 C96 1.364 . S
C98 H119 0.931 . S
C99 O110 1.256 . S
C99 O111 1.257 . S
O100 Gd80 2.377 1_545 S
O100 C82 1.240 . S
O101 Gd81 2.395 . S
O101 C82 1.240 . S
O102 Gd80 2.448 . S
O102 C83 1.249 1_565 S
O103 Gd80 2.506 1_545 S
O103 C83 1.252 . S
O104 Gd80 2.435 . S
O104 C90 1.256 . S
O105 Gd80 2.717 . S
O105 Gd81 2.327 1_565 S
O105 C90 1.257 . S
O106 Gd81 2.377 1_565 S
O106 C91 1.240 . S
O107 Gd80 2.395 . S
O107 C91 1.240 . S
O108 Gd81 2.448 . S
O108 C92 1.249 1_545 S
O109 Gd81 2.506 1_565 S
O109 C92 1.252 . S
O110 Gd81 2.435 . S
O110 C99 1.256 . S
O111 Gd80 2.327 1_545 S
O111 Gd81 2.717 . S
O111 C99 1.257 . S
H112 C85 0.930 1_565 S
H113 C86 0.931 . S
H114 C88 0.931 . S
H115 C89 0.932 . S
H116 C94 0.930 1_545 S
H117 C95 0.931 . S
H118 C97 0.931 . S
H119 C98 0.931 . S
Gd120 C123 2.818 . S
Gd120 O140 2.377 . S
Gd120 O142 2.448 . S
Gd120 O143 2.506 . S
Gd120 O144 2.435 . S
Gd120 O145 2.717 . S
Gd120 O147 2.395 . S
Gd120 O151 2.327 . S
Gd121 C132 2.818 . S
Gd121 O141 2.395 . S
Gd121 O145 2.327 . S
Gd121 O146 2.377 . S
Gd121 O148 2.448 . S
Gd121 O149 2.506 . S
Gd121 O150 2.435 . S
Gd121 O151 2.717 . S
C122 O140 1.240 . S
C122 O141 1.240 . S
C123 Gd120 2.818 . S
C123 C124 1.510 . S
C123 O142 1.249 . S
C123 O143 1.252 . S
C124 C123 1.510 . S
C124 C125 1.404 . S
C124 C126 1.352 . S
C125 C124 1.404 . S
C125 C129 1.389 . S
C125 H152 0.930 . S
C126 C124 1.352 . S
C126 C128 1.374 . S
C126 H153 0.931 . S
C127 C128 1.359 . S
C127 C129 1.364 . S
C128 C126 1.374 . S
C128 C127 1.359 . S
C128 H154 0.931 . S
C129 C125 1.389 . S
C129 C127 1.364 . S
C129 H155 0.931 . S
C130 O144 1.256 . S
C130 O145 1.257 . S
C131 O146 1.240 . S
C131 O147 1.240 . S
C132 Gd121 2.818 . S
C132 C133 1.510 . S
C132 O148 1.249 . S
C132 O149 1.252 . S
C133 C132 1.510 . S
C133 C134 1.404 . S
C133 C135 1.352 . S
C134 C133 1.404 . S
C134 C138 1.389 . S
C134 H156 0.930 . S
C135 C133 1.352 . S
C135 C137 1.374 . S
C135 H157 0.931 . S
C136 C137 1.359 . S
C136 C138 1.364 . S
C137 C135 1.374 . S
C137 C136 1.359 . S
C137 H158 0.931 . S
C138 C134 1.389 . S
C138 C136 1.364 . S
C138 H159 0.931 . S
C139 O150 1.256 . S
C139 O151 1.257 . S
O140 Gd120 2.377 . S
O140 C122 1.240 . S
O141 Gd121 2.395 . S
O141 C122 1.240 . S
O142 Gd120 2.448 . S
O142 C123 1.249 . S
O143 Gd120 2.506 . S
O143 C123 1.252 . S
O144 Gd120 2.435 . S
O144 C130 1.256 . S
O145 Gd120 2.717 . S
O145 Gd121 2.327 . S
O145 C130 1.257 . S
O146 Gd121 2.377 . S
O146 C131 1.240 . S
O147 Gd120 2.395 . S
O147 C131 1.240 . S
O148 Gd121 2.448 . S
O148 C132 1.249 . S
O149 Gd121 2.506 . S
O149 C132 1.252 . S
O150 Gd121 2.435 . S
O150 C139 1.256 . S
O151 Gd120 2.327 . S
O151 Gd121 2.717 . S
O151 C139 1.257 . S
H152 C125 0.930 . S
H153 C126 0.931 . S
H154 C128 0.931 . S
H155 C129 0.931 . S
H156 C134 0.930 . S
H157 C135 0.931 . S
H158 C137 0.931 . S
H159 C138 0.931 . S
Gd160 C163 2.818 1_545 S
Gd160 O180 2.377 1_445 S
Gd160 O182 2.448 1_545 S
Gd160 O183 2.506 1_545 S
Gd160 O184 2.435 1_445 S
Gd160 O185 2.717 1_455 S
Gd160 O187 2.395 . S
Gd160 O191 2.327 . S
Gd161 C172 2.818 . S
Gd161 O181 2.395 . S
Gd161 O185 2.327 . S
Gd161 O186 2.377 1_655 S
Gd161 O188 2.448 . S
Gd161 O189 2.506 . S
Gd161 O190 2.435 1_655 S
Gd161 O191 2.717 1_655 S
C162 O180 1.240 . S
C162 O181 1.241 1_565 S
C163 Gd160 2.818 1_565 S
C163 C164 1.510 . S
C163 O182 1.249 . S
C163 O183 1.252 . S
C164 C163 1.510 . S
C164 C165 1.404 . S
C164 C166 1.352 . S
C165 C164 1.404 . S
C165 C169 1.389 . S
C165 H192 0.930 . S
C166 C164 1.352 . S
C166 C168 1.374 . S
C166 H193 0.931 . S
C167 C168 1.359 . S
C167 C169 1.364 . S
C168 C166 1.374 . S
C168 C167 1.359 . S
C168 H194 0.931 . S
C169 C165 1.389 . S
C169 C167 1.364 . S
C169 H195 0.931 . S
C170 O184 1.256 . S
C170 O185 1.257 1_565 S
C171 O186 1.240 . S
C171 O187 1.240 . S
C172 Gd161 2.818 . S
C172 C173 1.510 . S
C172 O188 1.249 . S
C172 O189 1.252 . S
C173 C172 1.510 . S
C173 C174 1.404 . S
C173 C175 1.352 . S
C174 C173 1.404 . S
C174 C178 1.389 . S
C174 H196 0.930 . S
C175 C173 1.352 . S
C175 C177 1.374 . S
C175 H197 0.931 . S
C176 C177 1.359 . S
C176 C178 1.364 . S
C177 C175 1.374 . S
C177 C176 1.359 . S
C177 H198 0.931 . S
C178 C174 1.389 . S
C178 C176 1.364 . S
C178 H199 0.931 . S
C179 O190 1.256 . S
C179 O191 1.257 . S
O180 Gd160 2.377 1_665 S
O180 C162 1.240 . S
O181 Gd161 2.395 . S
O181 C162 1.241 1_545 S
O182 Gd160 2.448 1_565 S
O182 C163 1.249 . S
O183 Gd160 2.506 1_565 S
O183 C163 1.252 . S
O184 Gd160 2.435 1_665 S
O184 C170 1.256 . S
O185 Gd160 2.717 1_655 S
O185 Gd161 2.327 . S
O185 C170 1.257 1_545 S
O186 Gd161 2.377 1_455 S
O186 C171 1.240 . S
O187 Gd160 2.395 . S
O187 C171 1.240 . S
O188 Gd161 2.448 . S
O188 C172 1.249 . S
O189 Gd161 2.506 . S
O189 C172 1.252 . S
O190 Gd161 2.435 1_455 S
O190 C179 1.256 . S
O191 Gd160 2.327 . S
O191 Gd161 2.717 1_455 S
O191 C179 1.257 . S
H192 C165 0.930 . S
H193 C166 0.931 . S
H194 C168 0.931 . S
H195 C169 0.931 . S
H196 C174 0.930 . S
H197 C175 0.931 . S
H198 C177 0.931 . S
H199 C178 0.931 . S
Gd200 C203 2.818 . S
Gd200 O220 2.377 . S
Gd200 O222 2.448 . S
Gd200 O223 2.506 . S
Gd200 O224 2.435 . S
Gd200 O225 2.717 . S
Gd200 O227 2.395 . S
Gd200 O231 2.327 . S
Gd201 C212 2.818 . S
Gd201 O221 2.395 . S
Gd201 O225 2.327 . S
Gd201 O226 2.377 . S
Gd201 O228 2.448 . S
Gd201 O229 2.506 . S
Gd201 O230 2.435 . S
Gd201 O231 2.717 . S
C202 O220 1.240 . S
C202 O221 1.240 . S
C203 Gd200 2.818 . S
C203 C204 1.510 . S
C203 O222 1.249 . S
C203 O223 1.252 . S
C204 C203 1.510 . S
C204 C205 1.404 . S
C204 C206 1.352 . S
C205 C204 1.404 . S
C205 C209 1.389 . S
C205 H232 0.930 . S
C206 C204 1.352 . S
C206 C208 1.374 . S
C206 H233 0.931 . S
C207 C208 1.359 . S
C207 C209 1.364 . S
C208 C206 1.374 . S
C208 C207 1.359 . S
C208 H234 0.931 . S
C209 C205 1.389 . S
C209 C207 1.364 . S
C209 H235 0.931 . S
C210 O224 1.256 . S
C210 O225 1.257 . S
C211 O226 1.240 . S
C211 O227 1.240 . S
C212 Gd201 2.818 . S
C212 C213 1.510 . S
C212 O228 1.249 . S
C212 O229 1.252 . S
C213 C212 1.510 . S
C213 C214 1.404 . S
C213 C215 1.352 . S
C214 C213 1.404 . S
C214 C218 1.389 . S
C214 H236 0.930 . S
C215 C213 1.352 . S
C215 C217 1.374 . S
C215 H237 0.931 . S
C216 C217 1.359 . S
C216 C218 1.364 . S
C217 C215 1.374 . S
C217 C216 1.359 . S
C217 H238 0.931 . S
C218 C214 1.389 . S
C218 C216 1.364 . S
C218 H239 0.931 . S
C219 O230 1.256 . S
C219 O231 1.257 . S
O220 Gd200 2.377 . S
O220 C202 1.240 . S
O221 Gd201 2.395 . S
O221 C202 1.240 . S
O222 Gd200 2.448 . S
O222 C203 1.249 . S
O223 Gd200 2.506 . S
O223 C203 1.252 . S
O224 Gd200 2.435 . S
O224 C210 1.256 . S
O225 Gd200 2.717 . S
O225 Gd201 2.327 . S
O225 C210 1.257 . S
O226 Gd201 2.377 . S
O226 C211 1.240 . S
O227 Gd200 2.395 . S
O227 C211 1.240 . S
O228 Gd201 2.448 . S
O228 C212 1.249 . S
O229 Gd201 2.506 . S
O229 C212 1.252 . S
O230 Gd201 2.435 . S
O230 C219 1.256 . S
O231 Gd200 2.327 . S
O231 Gd201 2.717 . S
O231 C219 1.257 . S
H232 C205 0.930 . S
H233 C206 0.931 . S
H234 C208 0.931 . S
H235 C209 0.931 . S
H236 C214 0.930 . S
H237 C215 0.931 . S
H238 C217 0.931 . S
H239 C218 0.931 . S
Gd240 C243 2.818 . S
Gd240 O260 2.377 . S
Gd240 O262 2.448 . S
Gd240 O263 2.506 1_545 S
Gd240 O264 2.435 . S
Gd240 O265 2.717 . S
Gd240 O267 2.395 1_545 S
Gd240 O271 2.327 . S
Gd241 C252 2.818 . S
Gd241 O261 2.395 . S
Gd241 O265 2.327 . S
Gd241 O266 2.377 . S
Gd241 O268 2.448 . S
Gd241 O269 2.506 . S
Gd241 O270 2.435 . S
Gd241 O271 2.717 . S
C242 O260 1.260 . S
C242 O261 1.247 . S
C243 Gd240 2.818 . S
C243 C244 1.510 1_544 S
C243 O262 1.249 . S
C243 O263 1.252 1_545 S
C244 C243 1.510 1_566 S
C244 C245 1.404 1_566 S
C244 C246 1.352 . S
C245 C244 1.404 1_544 S
C245 C249 1.390 1_554 S
C245 H272 0.930 . S
C246 C244 1.352 . S
C246 C248 1.374 . S
C246 H273 0.931 . S
C247 C248 1.359 . S
C247 C249 1.364 1_565 S
C248 C246 1.374 . S
C248 C247 1.359 . S
C248 H274 0.931 . S
C249 C245 1.390 1_556 S
C249 C247 1.364 1_545 S
C249 H275 0.930 1_556 S
C250 O264 1.256 . S
C250 O265 1.257 . S
C251 O266 1.240 . S
C251 O267 1.240 1_545 S
C252 Gd241 2.818 . S
C252 C253 1.510 . S
C252 O268 1.249 . S
C252 O269 1.252 . S
C253 C252 1.510 . S
C253 C254 1.404 . S
C253 C255 1.352 . S
C254 C253 1.404 . S
C254 C258 1.389 . S
C254 H276 0.930 . S
C255 C253 1.352 . S
C255 C257 1.374 . S
C255 H277 0.931 . S
C256 C257 1.359 . S
C256 C258 1.364 . S
C257 C255 1.374 . S
C257 C256 1.359 . S
C257 H278 0.931 . S
C258 C254 1.389 . S
C258 C256 1.364 . S
C258 H279 0.931 . S
C259 O270 1.262 1_556 S
C259 O271 1.243 1_556 S
O260 Gd240 2.377 . S
O260 C242 1.260 . S
O261 Gd241 2.395 . S
O261 C242 1.247 . S
O262 Gd240 2.448 . S
O262 C243 1.249 . S
O263 Gd240 2.506 1_565 S
O263 C243 1.252 1_565 S
O264 Gd240 2.435 . S
O264 C250 1.256 . S
O265 Gd240 2.717 . S
O265 Gd241 2.327 . S
O265 C250 1.257 . S
O266 Gd241 2.377 . S
O266 C251 1.240 . S
O267 Gd240 2.395 1_565 S
O267 C251 1.240 1_565 S
O268 Gd241 2.448 . S
O268 C252 1.249 . S
O269 Gd241 2.506 . S
O269 C252 1.252 . S
O270 Gd241 2.435 . S
O270 C259 1.262 1_554 S
O271 Gd240 2.327 . S
O271 Gd241 2.717 . S
O271 C259 1.243 1_554 S
H272 C245 0.930 . S
H273 C246 0.931 . S
H274 C248 0.931 . S
H275 C249 0.930 1_554 S
H276 C254 0.930 . S
H277 C255 0.931 . S
H278 C257 0.931 . S
H279 C258 0.931 . S
Gd280 C283 2.818 . S
Gd280 O300 2.377 . S
Gd280 O302 2.448 . S
Gd280 O303 2.506 . S
Gd280 O304 2.435 . S
Gd280 O305 2.717 . S
Gd280 O307 2.395 . S
Gd280 O311 2.327 . S
Gd281 C292 2.818 . S
Gd281 O301 2.395 . S
Gd281 O305 2.327 . S
Gd281 O306 2.377 . S
Gd281 O308 2.448 . S
Gd281 O309 2.506 . S
Gd281 O310 2.435 . S
Gd281 O311 2.717 . S
C282 O300 1.240 . S
C282 O301 1.240 . S
C283 Gd280 2.818 . S
C283 C284 1.510 . S
C283 O302 1.249 . S
C283 O303 1.252 . S
C284 C283 1.510 . S
C284 C285 1.404 . S
C284 C286 1.352 . S
C285 C284 1.404 . S
C285 C289 1.389 . S
C285 H312 0.930 . S
C286 C284 1.352 . S
C286 C288 1.374 . S
C286 H313 0.931 . S
C287 C288 1.359 . S
C287 C289 1.364 . S
C288 C286 1.374 . S
C288 C287 1.359 . S
C288 H314 0.931 . S
C289 C285 1.389 . S
C289 C287 1.364 . S
C289 H315 0.931 . S
C290 O304 1.256 . S
C290 O305 1.257 . S
C291 O306 1.240 . S
C291 O307 1.240 . S
C292 Gd281 2.818 . S
C292 C293 1.510 . S
C292 O308 1.249 . S
C292 O309 1.252 . S
C293 C292 1.510 . S
C293 C294 1.404 . S
C293 C295 1.352 . S
C294 C293 1.404 . S
C294 C298 1.389 . S
C294 H316 0.930 . S
C295 C293 1.352 . S
C295 C297 1.374 . S
C295 H317 0.931 . S
C296 C297 1.359 . S
C296 C298 1.364 . S
C297 C295 1.374 . S
C297 C296 1.359 . S
C297 H318 0.931 . S
C298 C294 1.389 . S
C298 C296 1.364 . S
C298 H319 0.931 . S
C299 O310 1.256 . S
C299 O311 1.257 . S
O300 Gd280 2.377 . S
O300 C282 1.240 . S
O301 Gd281 2.395 . S
O301 C282 1.240 . S
O302 Gd280 2.448 . S
O302 C283 1.249 . S
O303 Gd280 2.506 . S
O303 C283 1.252 . S
O304 Gd280 2.435 . S
O304 C290 1.256 . S
O305 Gd280 2.717 . S
O305 Gd281 2.327 . S
O305 C290 1.257 . S
O306 Gd281 2.377 . S
O306 C291 1.240 . S
O307 Gd280 2.395 . S
O307 C291 1.240 . S
O308 Gd281 2.448 . S
O308 C292 1.249 . S
O309 Gd281 2.506 . S
O309 C292 1.252 . S
O310 Gd281 2.435 . S
O310 C299 1.256 . S
O311 Gd280 2.327 . S
O311 Gd281 2.717 . S
O311 C299 1.257 . S
H312 C285 0.930 . S
H313 C286 0.931 . S
H314 C288 0.931 . S
H315 C289 0.931 . S
H316 C294 0.930 . S
H317 C295 0.931 . S
H318 C297 0.931 . S
H319 C298 0.931 . S
Gd320 C323 2.818 . S
Gd320 O340 2.377 . S
Gd320 O342 2.448 . S
Gd320 O343 2.506 . S
Gd320 O344 2.435 1_554 S
Gd320 O345 2.717 1_554 S
Gd320 O347 2.395 1_554 S
Gd320 O351 2.327 . S
Gd321 C332 2.818 1_554 S
Gd321 O341 2.395 . S
Gd321 O345 2.327 1_554 S
Gd321 O346 2.383 . S
Gd321 O348 2.448 . S
Gd321 O349 2.506 1_554 S
Gd321 O350 2.435 . S
Gd321 O351 2.717 . S
C322 O340 1.240 . S
C322 O341 1.240 . S
C323 Gd320 2.818 . S
C323 C324 1.510 . S
C323 O342 1.249 . S
C323 O343 1.252 . S
C324 C323 1.510 . S
C324 C325 1.404 . S
C324 C326 1.352 . S
C325 C324 1.404 . S
C325 C329 1.389 . S
C325 H352 0.930 . S
C326 C324 1.352 . S
C326 C328 1.374 . S
C326 H353 0.931 . S
C327 C328 1.359 . S
C327 C329 1.364 . S
C328 C326 1.374 . S
C328 C327 1.359 . S
C328 H354 0.931 . S
C329 C325 1.389 . S
C329 C327 1.364 . S
C329 H355 0.931 . S
C330 O344 1.256 . S
C330 O345 1.257 . S
C331 O346 1.235 1_556 S
C331 O347 1.240 . S
C332 Gd321 2.818 1_556 S
C332 C333 1.510 . S
C332 O348 1.249 1_556 S
C332 O349 1.252 . S
C333 C332 1.510 . S
C333 C334 1.404 . S
C333 C335 1.352 . S
C334 C333 1.404 . S
C334 C338 1.389 . S
C334 H356 0.930 1_556 S
C335 C333 1.352 . S
C335 C337 1.374 . S
C335 H357 0.931 . S
C336 C337 1.359 . S
C336 C338 1.364 . S
C337 C335 1.374 . S
C337 C336 1.359 . S
C337 H358 0.931 . S
C338 C334 1.389 . S
C338 C336 1.364 . S
C338 H359 0.931 . S
C339 O350 1.256 . S
C339 O351 1.257 . S
O340 Gd320 2.377 . S
O340 C322 1.240 . S
O341 Gd321 2.395 . S
O341 C322 1.240 . S
O342 Gd320 2.448 . S
O342 C323 1.249 . S
O343 Gd320 2.506 . S
O343 C323 1.252 . S
O344 Gd320 2.435 1_556 S
O344 C330 1.256 . S
O345 Gd320 2.717 1_556 S
O345 Gd321 2.327 1_556 S
O345 C330 1.257 . S
O346 Gd321 2.383 . S
O346 C331 1.235 1_554 S
O347 Gd320 2.395 1_556 S
O347 C331 1.240 . S
O348 Gd321 2.448 . S
O348 C332 1.249 1_554 S
O349 Gd321 2.506 1_556 S
O349 C332 1.252 . S
O350 Gd321 2.435 . S
O350 C339 1.256 . S
O351 Gd320 2.327 . S
O351 Gd321 2.717 . S
O351 C339 1.257 . S
H352 C325 0.930 . S
H353 C326 0.931 . S
H354 C328 0.931 . S
H355 C329 0.931 . S
H356 C334 0.930 1_554 S
H357 C335 0.931 . S
H358 C337 0.931 . S
H359 C338 0.931 . S
Gd360 C363 2.818 . S
Gd360 O380 2.377 . S
Gd360 O382 2.448 . S
Gd360 O383 2.506 . S
Gd360 O384 2.435 . S
Gd360 O385 2.717 . S
Gd360 O387 2.395 . S
Gd360 O391 2.327 . S
Gd361 C372 2.818 . S
Gd361 O381 2.395 . S
Gd361 O385 2.327 . S
Gd361 O386 2.377 . S
Gd361 O388 2.448 . S
Gd361 O389 2.506 . S
Gd361 O390 2.435 . S
Gd361 O391 2.717 . S
C362 O380 1.240 . S
C362 O381 1.240 . S
C363 Gd360 2.818 . S
C363 C364 1.510 . S
C363 O382 1.249 . S
C363 O383 1.252 . S
C364 C363 1.510 . S
C364 C365 1.404 . S
C364 C366 1.352 . S
C365 C364 1.404 . S
C365 C369 1.389 . S
C365 H392 0.930 . S
C366 C364 1.352 . S
C366 C368 1.374 . S
C366 H393 0.931 . S
C367 C368 1.359 . S
C367 C369 1.364 . S
C368 C366 1.374 . S
C368 C367 1.359 . S
C368 H394 0.931 . S
C369 C365 1.389 . S
C369 C367 1.364 . S
C369 H395 0.931 . S
C370 O384 1.256 . S
C370 O385 1.257 . S
C371 O386 1.240 . S
C371 O387 1.240 . S
C372 Gd361 2.818 . S
C372 C373 1.510 . S
C372 O388 1.249 . S
C372 O389 1.252 . S
C373 C372 1.510 . S
C373 C374 1.404 . S
C373 C375 1.352 . S
C374 C373 1.404 . S
C374 C378 1.389 . S
C374 H396 0.930 . S
C375 C373 1.352 . S
C375 C377 1.374 . S
C375 H397 0.931 . S
C376 C377 1.359 . S
C376 C378 1.364 . S
C377 C375 1.374 . S
C377 C376 1.359 . S
C377 H398 0.931 . S
C378 C374 1.389 . S
C378 C376 1.364 . S
C378 H399 0.931 . S
C379 O390 1.256 . S
C379 O391 1.257 . S
O380 Gd360 2.377 . S
O380 C362 1.240 . S
O381 Gd361 2.395 . S
O381 C362 1.240 . S
O382 Gd360 2.448 . S
O382 C363 1.249 . S
O383 Gd360 2.506 . S
O383 C363 1.252 . S
O384 Gd360 2.435 . S
O384 C370 1.256 . S
O385 Gd360 2.717 . S
O385 Gd361 2.327 . S
O385 C370 1.257 . S
O386 Gd361 2.377 . S
O386 C371 1.240 . S
O387 Gd360 2.395 . S
O387 C371 1.240 . S
O388 Gd361 2.448 . S
O388 C372 1.249 . S
O389 Gd361 2.506 . S
O389 C372 1.252 . S
O390 Gd361 2.435 . S
O390 C379 1.256 . S
O391 Gd360 2.327 . S
O391 Gd361 2.717 . S
O391 C379 1.257 . S
H392 C365 0.930 . S
H393 C366 0.931 . S
H394 C368 0.931 . S
H395 C369 0.931 . S
H396 C374 0.930 . S
H397 C375 0.931 . S
H398 C377 0.931 . S
H399 C378 0.931 . S
Gd400 C403 2.818 . S
Gd400 O420 2.377 . S
Gd400 O422 2.448 . S
Gd400 O423 2.506 . S
Gd400 O424 2.435 . S
Gd400 O425 2.717 . S
Gd400 O427 2.395 . S
Gd400 O431 2.327 . S
Gd401 C412 2.818 1_455 S
Gd401 O421 2.395 . S
Gd401 O425 2.327 . S
Gd401 O426 2.377 1_455 S
Gd401 O428 2.448 1_455 S
Gd401 O429 2.526 . S
Gd401 O430 2.435 1_455 S
Gd401 O431 2.717 . S
C402 O420 1.240 . S
C402 O421 1.240 . S
C403 Gd400 2.818 . S
C403 C404 1.510 . S
C403 O422 1.249 . S
C403 O423 1.252 . S
C404 C403 1.510 . S
C404 C405 1.404 . S
C404 C406 1.352 . S
C405 C404 1.404 . S
C405 C409 1.389 . S
C405 H432 0.930 . S
C406 C404 1.352 . S
C406 C408 1.374 . S
C406 H433 0.931 . S
C407 C408 1.359 . S
C407 C409 1.364 . S
C408 C406 1.374 . S
C408 C407 1.359 . S
C408 H434 0.931 . S
C409 C405 1.389 . S
C409 C407 1.364 . S
C409 H435 0.931 . S
C410 O424 1.256 . S
C410 O425 1.257 . S
C411 O426 1.240 . S
C411 O427 1.240 1_655 S
C412 Gd401 2.818 1_655 S
C412 C413 1.510 . S
C412 O428 1.249 . S
C412 O429 1.219 1_655 S
C413 C412 1.510 . S
C413 C414 1.404 . S
C413 C415 1.352 . S
C414 C413 1.404 . S
C414 C418 1.389 . S
C414 H436 0.930 . S
C415 C413 1.352 . S
C415 C417 1.374 . S
C415 H437 0.931 . S
C416 C417 1.359 . S
C416 C418 1.364 . S
C417 C415 1.374 . S
C417 C416 1.359 . S
C417 H438 0.931 . S
C418 C414 1.389 . S
C418 C416 1.364 . S
C418 H439 0.931 . S
C419 O430 1.256 . S
C419 O431 1.257 1_655 S
O420 Gd400 2.377 . S
O420 C402 1.240 . S
O421 Gd401 2.395 . S
O421 C402 1.240 . S
O422 Gd400 2.448 . S
O422 C403 1.249 . S
O423 Gd400 2.506 . S
O423 C403 1.252 . S
O424 Gd400 2.435 . S
O424 C410 1.256 . S
O425 Gd400 2.717 . S
O425 Gd401 2.327 . S
O425 C410 1.257 . S
O426 Gd401 2.377 1_655 S
O426 C411 1.240 . S
O427 Gd400 2.395 . S
O427 C411 1.240 1_455 S
O428 Gd401 2.448 1_655 S
O428 C412 1.249 . S
O429 Gd401 2.526 . S
O429 C412 1.219 1_455 S
O430 Gd401 2.435 1_655 S
O430 C419 1.256 . S
O431 Gd400 2.327 . S
O431 Gd401 2.717 . S
O431 C419 1.257 1_455 S
H432 C405 0.930 . S
H433 C406 0.931 . S
H434 C408 0.931 . S
H435 C409 0.931 . S
H436 C414 0.930 . S
H437 C415 0.931 . S
H438 C417 0.931 . S
H439 C418 0.931 . S
Gd440 C443 2.818 . S
Gd440 O460 2.377 . S
Gd440 O462 2.448 . S
Gd440 O463 2.506 . S
Gd440 O464 2.435 . S
Gd440 O465 2.717 . S
Gd440 O467 2.395 . S
Gd440 O471 2.327 . S
Gd441 C452 2.818 . S
Gd441 O461 2.395 . S
Gd441 O465 2.327 . S
Gd441 O466 2.377 . S
Gd441 O468 2.448 . S
Gd441 O469 2.506 . S
Gd441 O470 2.435 . S
Gd441 O471 2.717 . S
C442 O460 1.240 . S
C442 O461 1.240 . S
C443 Gd440 2.818 . S
C443 C444 1.510 . S
C443 O462 1.249 . S
C443 O463 1.252 . S
C444 C443 1.510 . S
C444 C445 1.404 . S
C444 C446 1.352 . S
C445 C444 1.404 . S
C445 C449 1.389 . S
C445 H472 0.930 . S
C446 C444 1.352 . S
C446 C448 1.374 . S
C446 H473 0.931 . S
C447 C448 1.359 . S
C447 C449 1.364 . S
C448 C446 1.374 . S
C448 C447 1.359 . S
C448 H474 0.931 . S
C449 C445 1.389 . S
C449 C447 1.364 . S
C449 H475 0.931 . S
C450 O464 1.256 . S
C450 O465 1.257 . S
C451 O466 1.240 . S
C451 O467 1.240 . S
C452 Gd441 2.818 . S
C452 C453 1.510 . S
C452 O468 1.249 . S
C452 O469 1.252 . S
C453 C452 1.510 . S
C453 C454 1.404 . S
C453 C455 1.352 . S
C454 C453 1.404 . S
C454 C458 1.389 . S
C454 H476 0.930 . S
C455 C453 1.352 . S
C455 C457 1.374 . S
C455 H477 0.931 . S
C456 C457 1.359 . S
C456 C458 1.364 . S
C457 C455 1.374 . S
C457 C456 1.359 . S
C457 H478 0.931 . S
C458 C454 1.389 . S
C458 C456 1.364 . S
C458 H479 0.931 . S
C459 O470 1.256 . S
C459 O471 1.257 . S
O460 Gd440 2.377 . S
O460 C442 1.240 . S
O461 Gd441 2.395 . S
O461 C442 1.240 . S
O462 Gd440 2.448 . S
O462 C443 1.249 . S
O463 Gd440 2.506 . S
O463 C443 1.252 . S
O464 Gd440 2.435 . S
O464 C450 1.256 . S
O465 Gd440 2.717 . S
O465 Gd441 2.327 . S
O465 C450 1.257 . S
O466 Gd441 2.377 . S
O466 C451 1.240 . S
O467 Gd440 2.395 . S
O467 C451 1.240 . S
O468 Gd441 2.448 . S
O468 C452 1.249 . S
O469 Gd441 2.506 . S
O469 C452 1.252 . S
O470 Gd441 2.435 . S
O470 C459 1.256 . S
O471 Gd440 2.327 . S
O471 Gd441 2.717 . S
O471 C459 1.257 . S
H472 C445 0.930 . S
H473 C446 0.931 . S
H474 C448 0.931 . S
H475 C449 0.931 . S
H476 C454 0.930 . S
H477 C455 0.931 . S
H478 C457 0.931 . S
H479 C458 0.931 . S
Gd480 C483 2.818 . S
Gd480 O500 2.377 . S
Gd480 O502 2.448 . S
Gd480 O503 2.506 . S
Gd480 O504 2.435 . S
Gd480 O505 2.717 . S
Gd480 O507 2.395 . S
Gd480 O511 2.327 . S
Gd481 C492 2.818 . S
Gd481 O501 2.395 . S
Gd481 O505 2.327 . S
Gd481 O506 2.377 . S
Gd481 O508 2.448 . S
Gd481 O509 2.506 . S
Gd481 O510 2.435 . S
Gd481 O511 2.717 . S
C482 O500 1.240 . S
C482 O501 1.240 . S
C483 Gd480 2.818 . S
C483 C484 1.510 . S
C483 O502 1.249 . S
C483 O503 1.252 . S
C484 C483 1.510 . S
C484 C485 1.404 . S
C484 C486 1.352 . S
C485 C484 1.404 . S
C485 C489 1.389 . S
C485 H512 0.930 . S
C486 C484 1.352 . S
C486 C488 1.374 . S
C486 H513 0.931 . S
C487 C488 1.359 . S
C487 C489 1.364 . S
C488 C486 1.374 . S
C488 C487 1.359 . S
C488 H514 0.931 . S
C489 C485 1.389 . S
C489 C487 1.364 . S
C489 H515 0.931 . S
C490 O504 1.256 . S
C490 O505 1.257 . S
C491 O506 1.240 . S
C491 O507 1.240 . S
C492 Gd481 2.818 . S
C492 C493 1.510 . S
C492 O508 1.249 . S
C492 O509 1.252 . S
C493 C492 1.510 . S
C493 C494 1.404 . S
C493 C495 1.352 . S
C494 C493 1.404 . S
C494 C498 1.389 . S
C494 H516 0.930 . S
C495 C493 1.352 . S
C495 C497 1.374 . S
C495 H517 0.931 . S
C496 C497 1.359 . S
C496 C498 1.364 . S
C497 C495 1.374 . S
C497 C496 1.359 . S
C497 H518 0.931 . S
C498 C494 1.389 . S
C498 C496 1.364 . S
C498 H519 0.931 . S
C499 O510 1.256 . S
C499 O511 1.257 . S
O500 Gd480 2.377 . S
O500 C482 1.240 . S
O501 Gd481 2.395 . S
O501 C482 1.240 . S
O502 Gd480 2.448 . S
O502 C483 1.249 . S
O503 Gd480 2.506 . S
O503 C483 1.252 . S
O504 Gd480 2.435 . S
O504 C490 1.256 . S
O505 Gd480 2.717 . S
O505 Gd481 2.327 . S
O505 C490 1.257 . S
O506 Gd481 2.377 . S
O506 C491 1.240 . S
O507 Gd480 2.395 . S
O507 C491 1.240 . S
O508 Gd481 2.448 . S
O508 C492 1.249 . S
O509 Gd481 2.506 . S
O509 C492 1.252 . S
O510 Gd481 2.435 . S
O510 C499 1.256 . S
O511 Gd480 2.327 . S
O511 Gd481 2.717 . S
O511 C499 1.257 . S
H512 C485 0.930 . S
H513 C486 0.931 . S
H514 C488 0.931 . S
H515 C489 0.931 . S
H516 C494 0.930 . S
H517 C495 0.931 . S
H518 C497 0.931 . S
H519 C498 0.931 . S
Gd520 C523 2.818 . S
Gd520 O540 2.377 . S
Gd520 O542 2.448 . S
Gd520 O543 2.506 . S
Gd520 O544 2.435 . S
Gd520 O545 2.717 . S
Gd520 O547 2.395 . S
Gd520 O551 2.327 . S
Gd521 C532 2.818 . S
Gd521 O541 2.395 . S
Gd521 O545 2.327 . S
Gd521 O546 2.377 . S
Gd521 O548 2.448 . S
Gd521 O549 2.506 . S
Gd521 O550 2.435 . S
Gd521 O551 2.717 . S
C522 O540 1.240 . S
C522 O541 1.240 . S
C523 Gd520 2.818 . S
C523 C524 1.510 . S
C523 O542 1.249 . S
C523 O543 1.252 . S
C524 C523 1.510 . S
C524 C525 1.404 . S
C524 C526 1.352 . S
C525 C524 1.404 . S
C525 C529 1.389 . S
C525 H552 0.930 . S
C526 C524 1.352 . S
C526 C528 1.374 . S
C526 H553 0.931 . S
C527 C528 1.359 . S
C527 C529 1.364 . S
C528 C526 1.374 . S
C528 C527 1.359 . S
C528 H554 0.931 . S
C529 C525 1.389 . S
C529 C527 1.364 . S
C529 H555 0.931 . S
C530 O544 1.256 . S
C530 O545 1.257 . S
C531 O546 1.240 . S
C531 O547 1.240 . S
C532 Gd521 2.818 . S
C532 C533 1.510 . S
C532 O548 1.249 . S
C532 O549 1.252 . S
C533 C532 1.510 . S
C533 C534 1.404 . S
C533 C535 1.352 . S
C534 C533 1.404 . S
C534 C538 1.389 . S
C534 H556 0.930 . S
C535 C533 1.352 . S
C535 C537 1.374 . S
C535 H557 0.931 . S
C536 C537 1.359 . S
C536 C538 1.364 . S
C537 C535 1.374 . S
C537 C536 1.359 . S
C537 H558 0.931 . S
C538 C534 1.389 . S
C538 C536 1.364 . S
C538 H559 0.931 . S
C539 O550 1.256 . S
C539 O551 1.257 . S
O540 Gd520 2.377 . S
O540 C522 1.240 . S
O541 Gd521 2.395 . S
O541 C522 1.240 . S
O542 Gd520 2.448 . S
O542 C523 1.249 . S
O543 Gd520 2.506 . S
O543 C523 1.252 . S
O544 Gd520 2.435 . S
O544 C530 1.256 . S
O545 Gd520 2.717 . S
O545 Gd521 2.327 . S
O545 C530 1.257 . S
O546 Gd521 2.377 . S
O546 C531 1.240 . S
O547 Gd520 2.395 . S
O547 C531 1.240 . S
O548 Gd521 2.448 . S
O548 C532 1.249 . S
O549 Gd521 2.506 . S
O549 C532 1.252 . S
O550 Gd521 2.435 . S
O550 C539 1.256 . S
O551 Gd520 2.327 . S
O551 Gd521 2.717 . S
O551 C539 1.257 . S
H552 C525 0.930 . S
H553 C526 0.931 . S
H554 C528 0.931 . S
H555 C529 0.931 . S
H556 C534 0.930 . S
H557 C535 0.931 . S
H558 C537 0.931 . S
H559 C538 0.931 . S
Gd560 C563 2.818 . S
Gd560 O580 2.377 . S
Gd560 O582 2.448 . S
Gd560 O583 2.506 . S
Gd560 O584 2.435 . S
Gd560 O585 2.717 . S
Gd560 O587 2.395 . S
Gd560 O591 2.327 . S
Gd561 C572 2.818 . S
Gd561 O581 2.395 . S
Gd561 O585 2.327 . S
Gd561 O586 2.377 . S
Gd561 O588 2.448 . S
Gd561 O589 2.506 . S
Gd561 O590 2.435 . S
Gd561 O591 2.717 . S
C562 O580 1.240 . S
C562 O581 1.240 . S
C563 Gd560 2.818 . S
C563 C564 1.510 . S
C563 O582 1.249 . S
C563 O583 1.252 . S
C564 C563 1.510 . S
C564 C565 1.404 . S
C564 C566 1.352 . S
C565 C564 1.404 . S
C565 C569 1.389 . S
C565 H592 0.930 . S
C566 C564 1.352 . S
C566 C568 1.374 . S
C566 H593 0.931 . S
C567 C568 1.359 . S
C567 C569 1.364 . S
C568 C566 1.374 . S
C568 C567 1.359 . S
C568 H594 0.931 . S
C569 C565 1.389 . S
C569 C567 1.364 . S
C569 H595 0.931 . S
C570 O584 1.256 . S
C570 O585 1.257 . S
C571 O586 1.240 . S
C571 O587 1.240 . S
C572 Gd561 2.818 . S
C572 C573 1.510 . S
C572 O588 1.249 . S
C572 O589 1.252 . S
C573 C572 1.510 . S
C573 C574 1.404 . S
C573 C575 1.352 . S
C574 C573 1.404 . S
C574 C578 1.389 . S
C574 H596 0.930 . S
C575 C573 1.352 . S
C575 C577 1.374 . S
C575 H597 0.931 . S
C576 C577 1.359 . S
C576 C578 1.364 . S
C577 C575 1.374 . S
C577 C576 1.359 . S
C577 H598 0.931 . S
C578 C574 1.389 . S
C578 C576 1.364 . S
C578 H599 0.931 . S
C579 O590 1.256 . S
C579 O591 1.257 . S
O580 Gd560 2.377 . S
O580 C562 1.240 . S
O581 Gd561 2.395 . S
O581 C562 1.240 . S
O582 Gd560 2.448 . S
O582 C563 1.249 . S
O583 Gd560 2.506 . S
O583 C563 1.252 . S
O584 Gd560 2.435 . S
O584 C570 1.256 . S
O585 Gd560 2.717 . S
O585 Gd561 2.327 . S
O585 C570 1.257 . S
O586 Gd561 2.377 . S
O586 C571 1.240 . S
O587 Gd560 2.395 . S
O587 C571 1.240 . S
O588 Gd561 2.448 . S
O588 C572 1.249 . S
O589 Gd561 2.506 . S
O589 C572 1.252 . S
O590 Gd561 2.435 . S
O590 C579 1.256 . S
O591 Gd560 2.327 . S
O591 Gd561 2.717 . S
O591 C579 1.257 . S
H592 C565 0.930 . S
H593 C566 0.931 . S
H594 C568 0.931 . S
H595 C569 0.931 . S
H596 C574 0.930 . S
H597 C575 0.931 . S
H598 C577 0.931 . S
H599 C578 0.931 . S
Gd600 C603 2.818 . S
Gd600 O620 2.377 1_554 S
Gd600 O622 2.448 . S
Gd600 O623 2.506 . S
Gd600 O624 2.435 1_554 S
Gd600 O625 2.717 1_554 S
Gd600 O627 2.395 1_655 S
Gd600 O631 2.327 1_655 S
Gd601 C612 2.818 . S
Gd601 O621 2.395 . S
Gd601 O625 2.327 1_455 S
Gd601 O626 2.377 1_556 S
Gd601 O628 2.448 . S
Gd601 O629 2.506 . S
Gd601 O630 2.435 1_556 S
Gd601 O631 2.717 1_556 S
C602 O620 1.240 . S
C602 O621 1.240 1_655 S
C603 Gd600 2.818 . S
C603 C604 1.510 . S
C603 O622 1.249 . S
C603 O623 1.252 . S
C604 C603 1.510 . S
C604 C605 1.404 . S
C604 C606 1.352 . S
C605 C604 1.404 . S
C605 C609 1.389 . S
C605 H632 0.930 . S
C606 C604 1.352 . S
C606 C608 1.374 . S
C606 H633 0.931 . S
C607 C608 1.359 . S
C607 C609 1.364 . S
C608 C606 1.374 . S
C608 C607 1.359 . S
C608 H634 0.931 . S
C609 C605 1.389 . S
C609 C607 1.364 . S
C609 H635 0.931 . S
C610 O624 1.256 . S
C610 O625 1.257 . S
C611 O626 1.240 . S
C611 O627 1.240 . S
C612 Gd601 2.818 . S
C612 C613 1.510 . S
C612 O628 1.249 . S
C612 O629 1.252 . S
C613 C612 1.510 . S
C613 C614 1.404 . S
C613 C615 1.352 . S
C614 C613 1.404 . S
C614 C618 1.389 . S
C614 H636 0.930 . S
C615 C613 1.352 . S
C615 C617 1.374 . S
C615 H637 0.931 . S
C616 C617 1.359 . S
C616 C618 1.364 . S
C617 C615 1.374 . S
C617 C616 1.359 . S
C617 H638 0.931 . S
C618 C614 1.389 . S
C618 C616 1.364 . S
C618 H639 0.931 . S
C619 O630 1.256 . S
C619 O631 1.257 . S
O620 Gd600 2.377 1_556 S
O620 C602 1.240 . S
O621 Gd601 2.395 . S
O621 C602 1.240 1_455 S
O622 Gd600 2.448 . S
O622 C603 1.249 . S
O623 Gd600 2.506 . S
O623 C603 1.252 . S
O624 Gd600 2.435 1_556 S
O624 C610 1.256 . S
O625 Gd600 2.717 1_556 S
O625 Gd601 2.327 1_655 S
O625 C610 1.257 . S
O626 Gd601 2.377 1_554 S
O626 C611 1.240 . S
O627 Gd600 2.395 1_455 S
O627 C611 1.240 . S
O628 Gd601 2.448 . S
O628 C612 1.249 . S
O629 Gd601 2.506 . S
O629 C612 1.252 . S
O630 Gd601 2.435 1_554 S
O630 C619 1.256 . S
O631 Gd600 2.327 1_455 S
O631 Gd601 2.717 1_554 S
O631 C619 1.257 . S
H632 C605 0.930 . S
H633 C606 0.931 . S
H634 C608 0.931 . S
H635 C609 0.931 . S
H636 C614 0.930 . S
H637 C615 0.931 . S
H638 C617 0.931 . S
H639 C618 0.931 . S
H640 C648 0.950 . S
H641 C653 0.950 . S
H642 C650 0.950 . S
H643 C652 0.950 . S
H644 C654 0.950 . S
H645 C656 0.950 . S
H646 C658 0.950 . S
H647 C659 0.950 . S
C648 H640 0.950 . S
C648 C649 1.386 . S
C648 C650 1.391 . S
C649 C648 1.386 . S
C649 C653 1.393 . S
C650 H642 0.950 . S
C650 C648 1.391 . S
C650 C651 1.400 . S
C651 C650 1.400 . S
C651 C652 1.398 . S
C651 C657 1.491 . S
C652 H643 0.950 . S
C652 C651 1.398 . S
C652 C653 1.391 . S
C653 H641 0.950 . S
C653 C649 1.393 . S
C653 C652 1.391 . S
C654 H644 0.950 . S
C654 C655 1.386 . S
C654 C656 1.391 . S
C655 C654 1.386 . S
C655 C659 1.393 . S
C656 H645 0.950 . S
C656 C654 1.391 . S
C656 C657 1.400 . S
C657 C651 1.491 . S
C657 C656 1.400 . S
C657 C658 1.398 . S
C658 H646 0.950 . S
C658 C657 1.398 . S
C658 C659 1.391 . S
C659 H647 0.950 . S
C659 C655 1.393 . S
C659 C658 1.391 . S
H660 C668 0.950 . S
H661 C673 0.950 . S
H662 C670 0.950 . S
H663 C672 0.950 . S
H664 C674 0.950 . S
H665 C676 0.950 . S
H666 C678 0.950 . S
H667 C679 0.950 . S
C668 H660 0.950 . S
C668 C669 1.386 . S
C668 C670 1.391 . S
C669 C668 1.386 . S
C669 C673 1.393 . S
C670 H662 0.950 . S
C670 C668 1.391 . S
C670 C671 1.400 . S
C671 C670 1.400 . S
C671 C672 1.398 . S
C671 C677 1.491 . S
C672 H663 0.950 . S
C672 C671 1.398 . S
C672 C673 1.391 . S
C673 H661 0.950 . S
C673 C669 1.393 . S
C673 C672 1.391 . S
C674 H664 0.950 . S
C674 C675 1.386 . S
C674 C676 1.391 . S
C675 C674 1.386 . S
C675 C679 1.393 . S
C676 H665 0.950 . S
C676 C674 1.391 . S
C676 C677 1.400 . S
C677 C671 1.491 . S
C677 C676 1.400 . S
C677 C678 1.398 . S
C678 H666 0.950 . S
C678 C677 1.398 . S
C678 C679 1.391 . S
C679 H667 0.950 . S
C679 C675 1.393 . S
C679 C678 1.391 . S
H680 C688 0.950 . S
H681 C693 0.950 . S
H682 C690 0.950 . S
H683 C692 0.950 . S
H684 C694 0.950 . S
H685 C696 0.950 . S
H686 C698 0.950 . S
H687 C699 0.950 . S
C688 H680 0.950 . S
C688 C689 1.386 . S
C688 C690 1.391 . S
C689 C688 1.386 . S
C689 C693 1.393 . S
C690 H682 0.950 . S
C690 C688 1.391 . S
C690 C691 1.400 . S
C691 C690 1.400 . S
C691 C692 1.398 . S
C691 C697 1.491 . S
C692 H683 0.950 . S
C692 C691 1.398 . S
C692 C693 1.391 . S
C693 H681 0.950 . S
C693 C689 1.393 . S
C693 C692 1.391 . S
C694 H684 0.950 . S
C694 C695 1.386 . S
C694 C696 1.391 . S
C695 C694 1.386 . S
C695 C699 1.393 . S
C696 H685 0.950 . S
C696 C694 1.391 . S
C696 C697 1.400 . S
C697 C691 1.491 . S
C697 C696 1.400 . S
C697 C698 1.398 . S
C698 H686 0.950 . S
C698 C697 1.398 . S
C698 C699 1.391 . S
C699 H687 0.950 . S
C699 C695 1.393 . S
C699 C698 1.391 . S
H700 C708 0.950 . S
H701 C713 0.950 . S
H702 C710 0.950 . S
H703 C712 0.950 . S
H704 C714 0.950 . S
H705 C716 0.950 . S
H706 C718 0.950 . S
H707 C719 0.950 . S
C708 H700 0.950 . S
C708 C709 1.386 . S
C708 C710 1.391 . S
C709 C708 1.386 . S
C709 C713 1.393 . S
C710 H702 0.950 . S
C710 C708 1.391 . S
C710 C711 1.400 . S
C711 C710 1.400 . S
C711 C712 1.398 . S
C711 C717 1.491 . S
C712 H703 0.950 . S
C712 C711 1.398 . S
C712 C713 1.391 . S
C713 H701 0.950 . S
C713 C709 1.393 . S
C713 C712 1.391 . S
C714 H704 0.950 . S
C714 C715 1.386 . S
C714 C716 1.391 . S
C715 C714 1.386 . S
C715 C719 1.393 . S
C716 H705 0.950 . S
C716 C714 1.391 . S
C716 C717 1.400 . S
C717 C711 1.491 . S
C717 C716 1.400 . S
C717 C718 1.398 . S
C718 H706 0.950 . S
C718 C717 1.398 . S
C718 C719 1.391 . S
C719 H707 0.950 . S
C719 C715 1.393 . S
C719 C718 1.391 . S
H720 C728 0.950 . S
H721 C733 0.950 . S
H722 C730 0.950 . S
H723 C732 0.950 . S
H724 C734 0.950 . S
H725 C736 0.950 . S
H726 C738 0.950 . S
H727 C739 0.950 . S
C728 H720 0.950 . S
C728 C729 1.386 . S
C728 C730 1.391 . S
C729 C728 1.386 . S
C729 C733 1.393 . S
C730 H722 0.950 . S
C730 C728 1.391 . S
C730 C731 1.400 . S
C731 C730 1.400 . S
C731 C732 1.398 . S
C731 C737 1.491 . S
C732 H723 0.950 . S
C732 C731 1.398 . S
C732 C733 1.391 . S
C733 H721 0.950 . S
C733 C729 1.393 . S
C733 C732 1.391 . S
C734 H724 0.950 . S
C734 C735 1.386 . S
C734 C736 1.391 . S
C735 C734 1.386 . S
C735 C739 1.393 . S
C736 H725 0.950 . S
C736 C734 1.391 . S
C736 C737 1.400 . S
C737 C731 1.491 . S
C737 C736 1.400 . S
C737 C738 1.398 . S
C738 H726 0.950 . S
C738 C737 1.398 . S
C738 C739 1.391 . S
C739 H727 0.950 . S
C739 C735 1.393 . S
C739 C738 1.391 . S
H740 C748 0.950 . S
H741 C753 0.950 . S
H742 C750 0.950 . S
H743 C752 0.950 . S
H744 C754 0.950 . S
H745 C756 0.950 . S
H746 C758 0.950 . S
H747 C759 0.950 . S
C748 H740 0.950 . S
C748 C749 1.386 . S
C748 C750 1.391 . S
C749 C748 1.386 . S
C749 C753 1.393 . S
C750 H742 0.950 . S
C750 C748 1.391 . S
C750 C751 1.400 . S
C751 C750 1.400 . S
C751 C752 1.398 . S
C751 C757 1.491 . S
C752 H743 0.950 . S
C752 C751 1.398 . S
C752 C753 1.391 . S
C753 H741 0.950 . S
C753 C749 1.393 . S
C753 C752 1.391 . S
C754 H744 0.950 . S
C754 C755 1.386 . S
C754 C756 1.391 . S
C755 C754 1.386 . S
C755 C759 1.393 . S
C756 H745 0.950 . S
C756 C754 1.391 . S
C756 C757 1.400 . S
C757 C751 1.491 . S
C757 C756 1.400 . S
C757 C758 1.398 . S
C758 H746 0.950 . S
C758 C757 1.398 . S
C758 C759 1.391 . S
C759 H747 0.950 . S
C759 C755 1.393 . S
C759 C758 1.391 . S
H760 C768 0.950 . S
H761 C773 0.950 . S
H762 C770 0.950 . S
H763 C772 0.950 . S
H764 C774 0.950 . S
H765 C776 0.950 . S
H766 C778 0.950 . S
H767 C779 0.950 . S
C768 H760 0.950 . S
C768 C769 1.386 . S
C768 C770 1.391 . S
C769 C768 1.386 . S
C769 C773 1.393 . S
C770 H762 0.950 . S
C770 C768 1.391 . S
C770 C771 1.400 . S
C771 C770 1.400 . S
C771 C772 1.398 . S
C771 C777 1.491 . S
C772 H763 0.950 . S
C772 C771 1.398 . S
C772 C773 1.391 . S
C773 H761 0.950 . S
C773 C769 1.393 . S
C773 C772 1.391 . S
C774 H764 0.950 . S
C774 C775 1.386 . S
C774 C776 1.391 . S
C775 C774 1.386 . S
C775 C779 1.393 . S
C776 H765 0.950 . S
C776 C774 1.391 . S
C776 C777 1.400 . S
C777 C771 1.491 . S
C777 C776 1.400 . S
C777 C778 1.398 . S
C778 H766 0.950 . S
C778 C777 1.398 . S
C778 C779 1.391 . S
C779 H767 0.950 . S
C779 C775 1.393 . S
C779 C778 1.391 . S
H780 C788 0.950 . S
H781 C793 0.950 . S
H782 C790 0.950 . S
H783 C792 0.950 . S
H784 C794 0.950 . S
H785 C796 0.950 . S
H786 C798 0.950 . S
H787 C799 0.950 . S
C788 H780 0.950 . S
C788 C789 1.386 . S
C788 C790 1.391 . S
C789 C788 1.386 . S
C789 C793 1.393 . S
C790 H782 0.950 . S
C790 C788 1.391 . S
C790 C791 1.400 . S
C791 C790 1.400 . S
C791 C792 1.398 . S
C791 C797 1.491 . S
C792 H783 0.950 . S
C792 C791 1.398 . S
C792 C793 1.391 . S
C793 H781 0.950 . S
C793 C789 1.393 . S
C793 C792 1.391 . S
C794 H784 0.950 . S
C794 C795 1.386 . S
C794 C796 1.391 . S
C795 C794 1.386 . S
C795 C799 1.393 . S
C796 H785 0.950 . S
C796 C794 1.391 . S
C796 C797 1.400 . S
C797 C791 1.491 . S
C797 C796 1.400 . S
C797 C798 1.398 . S
C798 H786 0.950 . S
C798 C797 1.398 . S
C798 C799 1.391 . S
C799 H787 0.950 . S
C799 C795 1.393 . S
C799 C798 1.391 . S
H800 C808 0.950 . S
H801 C813 0.950 . S
H802 C810 0.950 . S
H803 C812 0.950 . S
H804 C814 0.950 . S
H805 C816 0.950 . S
H806 C818 0.950 . S
H807 C819 0.950 . S
C808 H800 0.950 . S
C808 C809 1.386 . S
C808 C810 1.391 . S
C809 C808 1.386 . S
C809 C813 1.393 . S
C810 H802 0.950 . S
C810 C808 1.391 . S
C810 C811 1.400 . S
C811 C810 1.400 . S
C811 C812 1.398 . S
C811 C817 1.491 . S
C812 H803 0.950 . S
C812 C811 1.398 . S
C812 C813 1.391 . S
C813 H801 0.950 . S
C813 C809 1.393 . S
C813 C812 1.391 . S
C814 H804 0.950 . S
C814 C815 1.386 . S
C814 C816 1.391 . S
C815 C814 1.386 . S
C815 C819 1.393 . S
C816 H805 0.950 . S
C816 C814 1.391 . S
C816 C817 1.400 . S
C817 C811 1.491 . S
C817 C816 1.400 . S
C817 C818 1.398 . S
C818 H806 0.950 . S
C818 C817 1.398 . S
C818 C819 1.391 . S
C819 H807 0.950 . S
C819 C815 1.393 . S
C819 C818 1.391 . S
H820 C828 0.950 . S
H821 C833 0.950 . S
H822 C830 0.950 . S
H823 C832 0.950 . S
H824 C834 0.950 . S
H825 C836 0.950 . S
H826 C838 0.950 . S
H827 C839 0.950 . S
C828 H820 0.950 . S
C828 C829 1.386 . S
C828 C830 1.391 . S
C829 C828 1.386 . S
C829 C833 1.393 . S
C830 H822 0.950 . S
C830 C828 1.391 . S
C830 C831 1.400 . S
C831 C830 1.400 . S
C831 C832 1.398 . S
C831 C837 1.491 . S
C832 H823 0.950 . S
C832 C831 1.398 . S
C832 C833 1.391 . S
C833 H821 0.950 . S
C833 C829 1.393 . S
C833 C832 1.391 . S
C834 H824 0.950 . S
C834 C835 1.386 . S
C834 C836 1.391 . S
C835 C834 1.386 . S
C835 C839 1.393 . S
C836 H825 0.950 . S
C836 C834 1.391 . S
C836 C837 1.400 . S
C837 C831 1.491 . S
C837 C836 1.400 . S
C837 C838 1.398 . S
C838 H826 0.950 . S
C838 C837 1.398 . S
C838 C839 1.391 . S
C839 H827 0.950 . S
C839 C835 1.393 . S
C839 C838 1.391 . S
H840 C848 0.950 . S
H841 C853 0.950 . S
H842 C850 0.950 . S
H843 C852 0.950 . S
H844 C854 0.950 . S
H845 C856 0.950 . S
H846 C858 0.950 . S
H847 C859 0.950 . S
C848 H840 0.950 . S
C848 C849 1.386 . S
C848 C850 1.391 . S
C849 C848 1.386 . S
C849 C853 1.393 . S
C850 H842 0.950 . S
C850 C848 1.391 . S
C850 C851 1.400 . S
C851 C850 1.400 . S
C851 C852 1.398 . S
C851 C857 1.491 . S
C852 H843 0.950 . S
C852 C851 1.398 . S
C852 C853 1.391 . S
C853 H841 0.950 . S
C853 C849 1.393 . S
C853 C852 1.391 . S
C854 H844 0.950 . S
C854 C855 1.386 . S
C854 C856 1.391 . S
C855 C854 1.386 . S
C855 C859 1.393 . S
C856 H845 0.950 . S
C856 C854 1.391 . S
C856 C857 1.400 . S
C857 C851 1.491 . S
C857 C856 1.400 . S
C857 C858 1.398 . S
C858 H846 0.950 . S
C858 C857 1.398 . S
C858 C859 1.391 . S
C859 H847 0.950 . S
C859 C855 1.393 . S
C859 C858 1.391 . S
H860 C868 0.950 . S
H861 C873 0.950 . S
H862 C870 0.950 . S
H863 C872 0.950 . S
H864 C874 0.950 . S
H865 C876 0.950 . S
H866 C878 0.950 . S
H867 C879 0.950 . S
C868 H860 0.950 . S
C868 C869 1.386 . S
C868 C870 1.391 . S
C869 C868 1.386 . S
C869 C873 1.393 . S
C870 H862 0.950 . S
C870 C868 1.391 . S
C870 C871 1.400 . S
C871 C870 1.400 . S
C871 C872 1.398 . S
C871 C877 1.491 . S
C872 H863 0.950 . S
C872 C871 1.398 . S
C872 C873 1.391 . S
C873 H861 0.950 . S
C873 C869 1.393 . S
C873 C872 1.391 . S
C874 H864 0.950 . S
C874 C875 1.386 . S
C874 C876 1.391 . S
C875 C874 1.386 . S
C875 C879 1.393 . S
C876 H865 0.950 . S
C876 C874 1.391 . S
C876 C877 1.400 . S
C877 C871 1.491 . S
C877 C876 1.400 . S
C877 C878 1.398 . S
C878 H866 0.950 . S
C878 C877 1.398 . S
C878 C879 1.391 . S
C879 H867 0.950 . S
C879 C875 1.393 . S
C879 C878 1.391 . S
H880 C888 0.950 . S
H881 C893 0.950 . S
H882 C890 0.950 . S
H883 C892 0.950 . S
H884 C894 0.950 . S
H885 C896 0.950 . S
H886 C898 0.950 . S
H887 C899 0.950 . S
C888 H880 0.950 . S
C888 C889 1.386 . S
C888 C890 1.391 . S
C889 C888 1.386 . S
C889 C893 1.393 . S
C890 H882 0.950 . S
C890 C888 1.391 . S
C890 C891 1.400 . S
C891 C890 1.400 . S
C891 C892 1.398 . S
C891 C897 1.491 . S
C892 H883 0.950 . S
C892 C891 1.398 . S
C892 C893 1.391 . S
C893 H881 0.950 . S
C893 C889 1.393 . S
C893 C892 1.391 . S
C894 H884 0.950 . S
C894 C895 1.386 . S
C894 C896 1.391 . S
C895 C894 1.386 . S
C895 C899 1.393 . S
C896 H885 0.950 . S
C896 C894 1.391 . S
C896 C897 1.400 . S
C897 C891 1.491 . S
C897 C896 1.400 . S
C897 C898 1.398 . S
C898 H886 0.950 . S
C898 C897 1.398 . S
C898 C899 1.391 . S
C899 H887 0.950 . S
C899 C895 1.393 . S
C899 C898 1.391 . S
H900 C908 0.950 . S
H901 C913 0.950 . S
H902 C910 0.950 . S
H903 C912 0.950 . S
H904 C914 0.950 . S
H905 C916 0.950 . S
H906 C918 0.950 . S
H907 C919 0.950 . S
C908 H900 0.950 . S
C908 C909 1.386 . S
C908 C910 1.391 . S
C909 C908 1.386 . S
C909 C913 1.393 . S
C910 H902 0.950 . S
C910 C908 1.391 . S
C910 C911 1.400 . S
C911 C910 1.400 . S
C911 C912 1.398 . S
C911 C917 1.491 . S
C912 H903 0.950 . S
C912 C911 1.398 . S
C912 C913 1.391 . S
C913 H901 0.950 . S
C913 C909 1.393 . S
C913 C912 1.391 . S
C914 H904 0.950 . S
C914 C915 1.386 . S
C914 C916 1.391 . S
C915 C914 1.386 . S
C915 C919 1.393 . S
C916 H905 0.950 . S
C916 C914 1.391 . S
C916 C917 1.400 . S
C917 C911 1.491 . S
C917 C916 1.400 . S
C917 C918 1.398 . S
C918 H906 0.950 . S
C918 C917 1.398 . S
C918 C919 1.391 . S
C919 H907 0.950 . S
C919 C915 1.393 . S
C919 C918 1.391 . S
H920 C928 0.950 . S
H921 C933 0.950 . S
H922 C930 0.950 . S
H923 C932 0.950 . S
H924 C934 0.950 . S
H925 C936 0.950 . S
H926 C938 0.950 . S
H927 C939 0.950 . S
C928 H920 0.950 . S
C928 C929 1.386 . S
C928 C930 1.391 . S
C929 C928 1.386 . S
C929 C933 1.393 . S
C930 H922 0.950 . S
C930 C928 1.391 . S
C930 C931 1.400 . S
C931 C930 1.400 . S
C931 C932 1.398 . S
C931 C937 1.491 . S
C932 H923 0.950 . S
C932 C931 1.398 . S
C932 C933 1.391 . S
C933 H921 0.950 . S
C933 C929 1.393 . S
C933 C932 1.391 . S
C934 H924 0.950 . S
C934 C935 1.386 . S
C934 C936 1.391 . S
C935 C934 1.386 . S
C935 C939 1.393 . S
C936 H925 0.950 . S
C936 C934 1.391 . S
C936 C937 1.400 . S
C937 C931 1.491 . S
C937 C936 1.400 . S
C937 C938 1.398 . S
C938 H926 0.950 . S
C938 C937 1.398 . S
C938 C939 1.391 . S
C939 H927 0.950 . S
C939 C935 1.393 . S
C939 C938 1.391 . S
H940 C948 0.950 . S
H941 C953 0.950 . S
H942 C950 0.950 . S
H943 C952 0.950 . S
H944 C954 0.950 . S
H945 C956 0.950 . S
H946 C958 0.950 . S
H947 C959 0.950 . S
C948 H940 0.950 . S
C948 C949 1.386 . S
C948 C950 1.391 . S
C949 C948 1.386 . S
C949 C953 1.393 . S
C950 H942 0.950 . S
C950 C948 1.391 . S
C950 C951 1.400 . S
C951 C950 1.400 . S
C951 C952 1.398 . S
C951 C957 1.491 . S
C952 H943 0.950 . S
C952 C951 1.398 . S
C952 C953 1.391 . S
C953 H941 0.950 . S
C953 C949 1.393 . S
C953 C952 1.391 . S
C954 H944 0.950 . S
C954 C955 1.386 . S
C954 C956 1.391 . S
C955 C954 1.386 . S
C955 C959 1.393 . S
C956 H945 0.950 . S
C956 C954 1.391 . S
C956 C957 1.400 . S
C957 C951 1.491 . S
C957 C956 1.400 . S
C957 C958 1.398 . S
C958 H946 0.950 . S
C958 C957 1.398 . S
C958 C959 1.391 . S
C959 H947 0.950 . S
C959 C955 1.393 . S
C959 C958 1.391 . S
H960 C968 0.950 . S
H961 C973 0.950 . S
H962 C970 0.950 . S
H963 C972 0.950 . S
H964 C974 0.950 . S
H965 C976 0.950 . S
H966 C978 0.950 . S
H967 C979 0.950 . S
C968 H960 0.950 . S
C968 C969 1.386 . S
C968 C970 1.391 . S
C969 C968 1.386 . S
C969 C973 1.393 . S
C970 H962 0.950 . S
C970 C968 1.391 . S
C970 C971 1.400 . S
C971 C970 1.400 . S
C971 C972 1.398 . S
C971 C977 1.491 . S
C972 H963 0.950 . S
C972 C971 1.398 . S
C972 C973 1.391 . S
C973 H961 0.950 . S
C973 C969 1.393 . S
C973 C972 1.391 . S
C974 H964 0.950 . S
C974 C975 1.386 . S
C974 C976 1.391 . S
C975 C974 1.386 . S
C975 C979 1.393 . S
C976 H965 0.950 . S
C976 C974 1.391 . S
C976 C977 1.400 . S
C977 C971 1.491 . S
C977 C976 1.400 . S
C977 C978 1.398 . S
C978 H966 0.950 . S
C978 C977 1.398 . S
C978 C979 1.391 . S
C979 H967 0.950 . S
C979 C975 1.393 . S
C979 C978 1.391 . S
H980 C988 0.950 . S
H981 C993 0.950 . S
H982 C990 0.950 . S
H983 C992 0.950 . S
H984 C994 0.950 . S
H985 C996 0.950 . S
H986 C998 0.950 . S
H987 C999 0.950 . S
C988 H980 0.950 . S
C988 C989 1.386 . S
C988 C990 1.391 . S
C989 C988 1.386 . S
C989 C993 1.393 . S
C990 H982 0.950 . S
C990 C988 1.391 . S
C990 C991 1.400 . S
C991 C990 1.400 . S
C991 C992 1.398 . S
C991 C997 1.491 . S
C992 H983 0.950 . S
C992 C991 1.398 . S
C992 C993 1.391 . S
C993 H981 0.950 . S
C993 C989 1.393 . S
C993 C992 1.391 . S
C994 H984 0.950 . S
C994 C995 1.386 . S
C994 C996 1.391 . S
C995 C994 1.386 . S
C995 C999 1.393 . S
C996 H985 0.950 . S
C996 C994 1.391 . S
C996 C997 1.400 . S
C997 C991 1.491 . S
C997 C996 1.400 . S
C997 C998 1.398 . S
C998 H986 0.950 . S
C998 C997 1.398 . S
C998 C999 1.391 . S
C999 H987 0.950 . S
C999 C995 1.393 . S
C999 C998 1.391 . S
H1000 C1008 0.950 1_455 S
H1001 C1013 0.950 . S
H1002 C1010 0.950 . S
H1003 C1012 0.950 . S
H1004 C1014 0.950 . S
H1005 C1016 0.950 . S
H1006 C1018 0.950 . S
H1007 C1019 0.950 . S
C1008 H1000 0.950 1_655 S
C1008 C1009 1.386 . S
C1008 C1010 1.391 . S
C1009 C1008 1.386 . S
C1009 C1013 1.393 . S
C1010 H1002 0.950 . S
C1010 C1008 1.391 . S
C1010 C1011 1.400 . S
C1011 C1010 1.400 . S
C1011 C1012 1.398 . S
C1011 C1017 1.491 . S
C1012 H1003 0.950 . S
C1012 C1011 1.398 . S
C1012 C1013 1.391 . S
C1013 H1001 0.950 . S
C1013 C1009 1.393 . S
C1013 C1012 1.391 . S
C1014 H1004 0.950 . S
C1014 C1015 1.386 . S
C1014 C1016 1.391 . S
C1015 C1014 1.386 . S
C1015 C1019 1.393 . S
C1016 H1005 0.950 . S
C1016 C1014 1.391 . S
C1016 C1017 1.400 . S
C1017 C1011 1.491 . S
C1017 C1016 1.400 . S
C1017 C1018 1.398 . S
C1018 H1006 0.950 . S
C1018 C1017 1.398 . S
C1018 C1019 1.391 . S
C1019 H1007 0.950 . S
C1019 C1015 1.393 . S
C1019 C1018 1.391 . S
H1020 C1028 0.950 . S
H1021 C1033 0.950 . S
H1022 C1030 0.950 . S
H1023 C1032 0.950 . S
H1024 C1034 0.950 . S
H1025 C1036 0.950 . S
H1026 C1038 0.950 . S
H1027 C1039 0.950 . S
C1028 H1020 0.950 . S
C1028 C1029 1.386 . S
C1028 C1030 1.391 . S
C1029 C1028 1.386 . S
C1029 C1033 1.393 . S
C1030 H1022 0.950 . S
C1030 C1028 1.391 . S
C1030 C1031 1.400 . S
C1031 C1030 1.400 . S
C1031 C1032 1.398 . S
C1031 C1037 1.491 . S
C1032 H1023 0.950 . S
C1032 C1031 1.398 . S
C1032 C1033 1.391 . S
C1033 H1021 0.950 . S
C1033 C1029 1.393 . S
C1033 C1032 1.391 . S
C1034 H1024 0.950 . S
C1034 C1035 1.386 . S
C1034 C1036 1.391 . S
C1035 C1034 1.386 . S
C1035 C1039 1.393 . S
C1036 H1025 0.950 . S
C1036 C1034 1.391 . S
C1036 C1037 1.400 . S
C1037 C1031 1.491 . S
C1037 C1036 1.400 . S
C1037 C1038 1.398 . S
C1038 H1026 0.950 . S
C1038 C1037 1.398 . S
C1038 C1039 1.391 . S
C1039 H1027 0.950 . S
C1039 C1035 1.393 . S
C1039 C1038 1.391 . S
H1040 C1048 0.950 . S
H1041 C1053 0.950 . S
H1042 C1050 0.950 . S
H1043 C1052 0.950 . S
H1044 C1054 0.950 . S
H1045 C1056 0.950 . S
H1046 C1058 0.950 . S
H1047 C1059 0.950 . S
C1048 H1040 0.950 . S
C1048 C1049 1.386 . S
C1048 C1050 1.391 . S
C1049 C1048 1.386 . S
C1049 C1053 1.393 . S
C1050 H1042 0.950 . S
C1050 C1048 1.391 . S
C1050 C1051 1.400 . S
C1051 C1050 1.400 . S
C1051 C1052 1.398 . S
C1051 C1057 1.491 . S
C1052 H1043 0.950 . S
C1052 C1051 1.398 . S
C1052 C1053 1.391 . S
C1053 H1041 0.950 . S
C1053 C1049 1.393 . S
C1053 C1052 1.391 . S
C1054 H1044 0.950 . S
C1054 C1055 1.386 . S
C1054 C1056 1.391 . S
C1055 C1054 1.386 . S
C1055 C1059 1.393 . S
C1056 H1045 0.950 . S
C1056 C1054 1.391 . S
C1056 C1057 1.400 . S
C1057 C1051 1.491 . S
C1057 C1056 1.400 . S
C1057 C1058 1.398 . S
C1058 H1046 0.950 . S
C1058 C1057 1.398 . S
C1058 C1059 1.391 . S
C1059 H1047 0.950 . S
C1059 C1055 1.393 . S
C1059 C1058 1.391 . S
H1060 C1068 0.950 . S
H1061 C1073 0.950 . S
H1062 C1070 0.950 . S
H1063 C1072 0.950 . S
H1064 C1074 0.950 . S
H1065 C1076 0.950 . S
H1066 C1078 0.950 . S
H1067 C1079 0.950 . S
C1068 H1060 0.950 . S
C1068 C1069 1.386 . S
C1068 C1070 1.391 . S
C1069 C1068 1.386 . S
C1069 C1073 1.393 . S
C1070 H1062 0.950 . S
C1070 C1068 1.391 . S
C1070 C1071 1.400 . S
C1071 C1070 1.400 . S
C1071 C1072 1.398 . S
C1071 C1077 1.491 . S
C1072 H1063 0.950 . S
C1072 C1071 1.398 . S
C1072 C1073 1.391 . S
C1073 H1061 0.950 . S
C1073 C1069 1.393 . S
C1073 C1072 1.391 . S
C1074 H1064 0.950 . S
C1074 C1075 1.386 . S
C1074 C1076 1.391 . S
C1075 C1074 1.386 . S
C1075 C1079 1.393 . S
C1076 H1065 0.950 . S
C1076 C1074 1.391 . S
C1076 C1077 1.400 . S
C1077 C1071 1.491 . S
C1077 C1076 1.400 . S
C1077 C1078 1.398 . S
C1078 H1066 0.950 . S
C1078 C1077 1.398 . S
C1078 C1079 1.391 . S
C1079 H1067 0.950 . S
C1079 C1075 1.393 . S
C1079 C1078 1.391 . S
H1080 C1088 0.950 . S
H1081 C1093 0.950 . S
H1082 C1090 0.950 . S
H1083 C1092 0.950 . S
H1084 C1094 0.950 . S
H1085 C1096 0.950 . S
H1086 C1098 0.950 . S
H1087 C1099 0.950 . S
C1088 H1080 0.950 . S
C1088 C1089 1.386 . S
C1088 C1090 1.391 . S
C1089 C1088 1.386 . S
C1089 C1093 1.393 . S
C1090 H1082 0.950 . S
C1090 C1088 1.391 . S
C1090 C1091 1.400 . S
C1091 C1090 1.400 . S
C1091 C1092 1.398 . S
C1091 C1097 1.491 . S
C1092 H1083 0.950 . S
C1092 C1091 1.398 . S
C1092 C1093 1.391 . S
C1093 H1081 0.950 . S
C1093 C1089 1.393 . S
C1093 C1092 1.391 . S
C1094 H1084 0.950 . S
C1094 C1095 1.386 . S
C1094 C1096 1.391 . S
C1095 C1094 1.386 . S
C1095 C1099 1.393 . S
C1096 H1085 0.950 . S
C1096 C1094 1.391 . S
C1096 C1097 1.400 . S
C1097 C1091 1.491 . S
C1097 C1096 1.400 . S
C1097 C1098 1.398 . S
C1098 H1086 0.950 . S
C1098 C1097 1.398 . S
C1098 C1099 1.391 . S
C1099 H1087 0.950 . S
C1099 C1095 1.393 . S
C1099 C1098 1.391 . S
H1100 C1108 0.950 . S
H1101 C1113 0.950 . S
H1102 C1110 0.950 . S
H1103 C1112 0.950 . S
H1104 C1114 0.950 . S
H1105 C1116 0.950 . S
H1106 C1118 0.950 . S
H1107 C1119 0.950 . S
C1108 H1100 0.950 . S
C1108 C1109 1.386 . S
C1108 C1110 1.391 . S
C1109 C1108 1.386 . S
C1109 C1113 1.393 . S
C1110 H1102 0.950 . S
C1110 C1108 1.391 . S
C1110 C1111 1.400 . S
C1111 C1110 1.400 . S
C1111 C1112 1.398 . S
C1111 C1117 1.491 . S
C1112 H1103 0.950 . S
C1112 C1111 1.398 . S
C1112 C1113 1.391 . S
C1113 H1101 0.950 . S
C1113 C1109 1.393 . S
C1113 C1112 1.391 . S
C1114 H1104 0.950 . S
C1114 C1115 1.386 . S
C1114 C1116 1.391 . S
C1115 C1114 1.386 . S
C1115 C1119 1.393 . S
C1116 H1105 0.950 . S
C1116 C1114 1.391 . S
C1116 C1117 1.400 . S
C1117 C1111 1.491 . S
C1117 C1116 1.400 . S
C1117 C1118 1.398 . S
C1118 H1106 0.950 . S
C1118 C1117 1.398 . S
C1118 C1119 1.391 . S
C1119 H1107 0.950 . S
C1119 C1115 1.393 . S
C1119 C1118 1.391 . S
H1120 C1128 0.950 . S
H1121 C1133 0.950 . S
H1122 C1130 0.950 . S
H1123 C1132 0.950 . S
H1124 C1134 0.950 . S
H1125 C1136 0.950 . S
H1126 C1138 0.950 . S
H1127 C1139 0.950 . S
C1128 H1120 0.950 . S
C1128 C1129 1.386 . S
C1128 C1130 1.391 . S
C1129 C1128 1.386 . S
C1129 C1133 1.393 . S
C1130 H1122 0.950 . S
C1130 C1128 1.391 . S
C1130 C1131 1.400 . S
C1131 C1130 1.400 . S
C1131 C1132 1.398 . S
C1131 C1137 1.491 . S
C1132 H1123 0.950 . S
C1132 C1131 1.398 . S
C1132 C1133 1.391 . S
C1133 H1121 0.950 . S
C1133 C1129 1.393 . S
C1133 C1132 1.391 . S
C1134 H1124 0.950 . S
C1134 C1135 1.386 . S
C1134 C1136 1.391 . S
C1135 C1134 1.386 . S
C1135 C1139 1.393 . S
C1136 H1125 0.950 . S
C1136 C1134 1.391 . S
C1136 C1137 1.400 . S
C1137 C1131 1.491 . S
C1137 C1136 1.400 . S
C1137 C1138 1.398 . S
C1138 H1126 0.950 . S
C1138 C1137 1.398 . S
C1138 C1139 1.391 . S
C1139 H1127 0.950 . S
C1139 C1135 1.393 . S
C1139 C1138 1.391 . S
H1140 C1148 0.950 . S
H1141 C1153 0.950 . S
H1142 C1150 0.950 . S
H1143 C1152 0.950 . S
H1144 C1154 0.950 . S
H1145 C1156 0.950 . S
H1146 C1158 0.950 . S
H1147 C1159 0.950 . S
C1148 H1140 0.950 . S
C1148 C1149 1.386 . S
C1148 C1150 1.391 . S
C1149 C1148 1.386 . S
C1149 C1153 1.393 . S
C1150 H1142 0.950 . S
C1150 C1148 1.391 . S
C1150 C1151 1.400 . S
C1151 C1150 1.400 . S
C1151 C1152 1.398 . S
C1151 C1157 1.491 . S
C1152 H1143 0.950 . S
C1152 C1151 1.398 . S
C1152 C1153 1.391 . S
C1153 H1141 0.950 . S
C1153 C1149 1.393 . S
C1153 C1152 1.391 . S
C1154 H1144 0.950 . S
C1154 C1155 1.386 . S
C1154 C1156 1.391 . S
C1155 C1154 1.386 . S
C1155 C1159 1.393 . S
C1156 H1145 0.950 . S
C1156 C1154 1.391 . S
C1156 C1157 1.400 . S
C1157 C1151 1.491 . S
C1157 C1156 1.400 . S
C1157 C1158 1.398 . S
C1158 H1146 0.950 . S
C1158 C1157 1.398 . S
C1158 C1159 1.391 . S
C1159 H1147 0.950 . S
C1159 C1155 1.393 . S
C1159 C1158 1.391 . S
H1160 C1168 0.950 . S
H1161 C1173 0.950 . S
H1162 C1170 0.950 . S
H1163 C1172 0.950 . S
H1164 C1174 0.950 . S
H1165 C1176 0.950 . S
H1166 C1178 0.950 . S
H1167 C1179 0.950 . S
C1168 H1160 0.950 . S
C1168 C1169 1.386 . S
C1168 C1170 1.391 . S
C1169 C1168 1.386 . S
C1169 C1173 1.393 . S
C1170 H1162 0.950 . S
C1170 C1168 1.391 . S
C1170 C1171 1.400 . S
C1171 C1170 1.400 . S
C1171 C1172 1.398 . S
C1171 C1177 1.491 . S
C1172 H1163 0.950 . S
C1172 C1171 1.398 . S
C1172 C1173 1.391 . S
C1173 H1161 0.950 . S
C1173 C1169 1.393 . S
C1173 C1172 1.391 . S
C1174 H1164 0.950 . S
C1174 C1175 1.386 . S
C1174 C1176 1.391 . S
C1175 C1174 1.386 . S
C1175 C1179 1.393 . S
C1176 H1165 0.950 . S
C1176 C1174 1.391 . S
C1176 C1177 1.400 . S
C1177 C1171 1.491 . S
C1177 C1176 1.400 . S
C1177 C1178 1.398 . S
C1178 H1166 0.950 . S
C1178 C1177 1.398 . S
C1178 C1179 1.391 . S
C1179 H1167 0.950 . S
C1179 C1175 1.393 . S
C1179 C1178 1.391 . S
H1180 C1188 0.950 . S
H1181 C1193 0.950 . S
H1182 C1190 0.950 . S
H1183 C1192 0.950 . S
H1184 C1194 0.950 . S
H1185 C1196 0.950 1_545 S
H1186 C1198 0.950 . S
H1187 C1199 0.950 . S
C1188 H1180 0.950 . S
C1188 C1189 1.386 . S
C1188 C1190 1.391 . S
C1189 C1188 1.386 . S
C1189 C1193 1.393 . S
C1190 H1182 0.950 . S
C1190 C1188 1.391 . S
C1190 C1191 1.400 . S
C1191 C1190 1.400 . S
C1191 C1192 1.398 . S
C1191 C1197 1.491 . S
C1192 H1183 0.950 . S
C1192 C1191 1.398 . S
C1192 C1193 1.391 . S
C1193 H1181 0.950 . S
C1193 C1189 1.393 . S
C1193 C1192 1.391 . S
C1194 H1184 0.950 . S
C1194 C1195 1.386 1_545 S
C1194 C1196 1.391 1_545 S
C1195 C1194 1.386 1_565 S
C1195 C1199 1.393 . S
C1196 H1185 0.950 1_565 S
C1196 C1194 1.391 1_565 S
C1196 C1197 1.400 . S
C1197 C1191 1.491 . S
C1197 C1196 1.400 . S
C1197 C1198 1.398 . S
C1198 H1186 0.950 . S
C1198 C1197 1.398 . S
C1198 C1199 1.391 . S
C1199 H1187 0.950 . S
C1199 C1195 1.393 . S
C1199 C1198 1.391 . S
H1200 C1208 0.950 . S
H1201 C1213 0.950 . S
H1202 C1210 0.950 . S
H1203 C1212 0.950 . S
H1204 C1214 0.950 . S
H1205 C1216 0.950 . S
H1206 C1218 0.950 . S
H1207 C1219 0.950 . S
C1208 H1200 0.950 . S
C1208 C1209 1.386 . S
C1208 C1210 1.391 . S
C1209 C1208 1.386 . S
C1209 C1213 1.393 . S
C1210 H1202 0.950 . S
C1210 C1208 1.391 . S
C1210 C1211 1.400 . S
C1211 C1210 1.400 . S
C1211 C1212 1.398 . S
C1211 C1217 1.491 . S
C1212 H1203 0.950 . S
C1212 C1211 1.398 . S
C1212 C1213 1.391 . S
C1213 H1201 0.950 . S
C1213 C1209 1.393 . S
C1213 C1212 1.391 . S
C1214 H1204 0.950 . S
C1214 C1215 1.386 . S
C1214 C1216 1.391 . S
C1215 C1214 1.386 . S
C1215 C1219 1.393 . S
C1216 H1205 0.950 . S
C1216 C1214 1.391 . S
C1216 C1217 1.400 . S
C1217 C1211 1.491 . S
C1217 C1216 1.400 . S
C1217 C1218 1.398 . S
C1218 H1206 0.950 . S
C1218 C1217 1.398 . S
C1218 C1219 1.391 . S
C1219 H1207 0.950 . S
C1219 C1215 1.393 . S
C1219 C1218 1.391 . S
H1220 C1228 0.950 . S
H1221 C1233 0.950 . S
H1222 C1230 0.950 . S
H1223 C1232 0.950 . S
H1224 C1234 0.950 1_655 S
H1225 C1236 0.950 . S
H1226 C1238 0.950 . S
H1227 C1239 0.950 . S
C1228 H1220 0.950 . S
C1228 C1229 1.386 . S
C1228 C1230 1.391 . S
C1229 C1228 1.386 . S
C1229 C1233 1.393 . S
C1230 H1222 0.950 . S
C1230 C1228 1.391 . S
C1230 C1231 1.400 . S
C1231 C1230 1.400 . S
C1231 C1232 1.398 . S
C1231 C1237 1.491 . S
C1232 H1223 0.950 . S
C1232 C1231 1.398 . S
C1232 C1233 1.391 . S
C1233 H1221 0.950 . S
C1233 C1229 1.393 . S
C1233 C1232 1.391 . S
C1234 H1224 0.950 1_455 S
C1234 C1235 1.386 . S
C1234 C1236 1.391 . S
C1235 C1234 1.386 . S
C1235 C1239 1.393 . S
C1236 H1225 0.950 . S
C1236 C1234 1.391 . S
C1236 C1237 1.400 . S
C1237 C1231 1.491 . S
C1237 C1236 1.400 . S
C1237 C1238 1.398 . S
C1238 H1226 0.950 . S
C1238 C1237 1.398 . S
C1238 C1239 1.391 . S
C1239 H1227 0.950 . S
C1239 C1235 1.393 . S
C1239 C1238 1.391 . S
H1240 C1248 0.950 . S
H1241 C1253 0.950 . S
H1242 C1250 0.950 . S
H1243 C1252 0.950 . S
H1244 C1254 0.950 . S
H1245 C1256 0.950 . S
H1246 C1258 0.950 . S
H1247 C1259 0.950 . S
C1248 H1240 0.950 . S
C1248 C1249 1.386 . S
C1248 C1250 1.391 . S
C1249 C1248 1.386 . S
C1249 C1253 1.393 . S
C1250 H1242 0.950 . S
C1250 C1248 1.391 . S
C1250 C1251 1.400 . S
C1251 C1250 1.400 . S
C1251 C1252 1.398 . S
C1251 C1257 1.491 . S
C1252 H1243 0.950 . S
C1252 C1251 1.398 . S
C1252 C1253 1.391 . S
C1253 H1241 0.950 . S
C1253 C1249 1.393 . S
C1253 C1252 1.391 . S
C1254 H1244 0.950 . S
C1254 C1255 1.386 . S
C1254 C1256 1.391 . S
C1255 C1254 1.386 . S
C1255 C1259 1.393 . S
C1256 H1245 0.950 . S
C1256 C1254 1.391 . S
C1256 C1257 1.400 . S
C1257 C1251 1.491 . S
C1257 C1256 1.400 . S
C1257 C1258 1.398 . S
C1258 H1246 0.950 . S
C1258 C1257 1.398 . S
C1258 C1259 1.391 . S
C1259 H1247 0.950 . S
C1259 C1255 1.393 . S
C1259 C1258 1.391 . S
H1260 C1268 0.950 . S
H1261 C1273 0.950 . S
H1262 C1270 0.950 . S
H1263 C1272 0.950 . S
H1264 C1274 0.950 . S
H1265 C1276 0.950 . S
H1266 C1278 0.950 . S
H1267 C1279 0.950 . S
C1268 H1260 0.950 . S
C1268 C1269 1.386 . S
C1268 C1270 1.391 . S
C1269 C1268 1.386 . S
C1269 C1273 1.393 . S
C1270 H1262 0.950 . S
C1270 C1268 1.391 . S
C1270 C1271 1.400 . S
C1271 C1270 1.400 . S
C1271 C1272 1.398 . S
C1271 C1277 1.491 . S
C1272 H1263 0.950 . S
C1272 C1271 1.398 . S
C1272 C1273 1.391 . S
C1273 H1261 0.950 . S
C1273 C1269 1.393 . S
C1273 C1272 1.391 . S
C1274 H1264 0.950 . S
C1274 C1275 1.386 . S
C1274 C1276 1.391 . S
C1275 C1274 1.386 . S
C1275 C1279 1.393 . S
C1276 H1265 0.950 . S
C1276 C1274 1.391 . S
C1276 C1277 1.400 . S
C1277 C1271 1.491 . S
C1277 C1276 1.400 . S
C1277 C1278 1.398 . S
C1278 H1266 0.950 . S
C1278 C1277 1.398 . S
C1278 C1279 1.391 . S
C1279 H1267 0.950 . S
C1279 C1275 1.393 . S
C1279 C1278 1.391 . S
H1280 C1288 0.950 . S
H1281 C1293 0.950 . S
H1282 C1290 0.950 . S
H1283 C1292 0.950 . S
H1284 C1294 0.950 . S
H1285 C1296 0.950 . S
H1286 C1298 0.950 . S
H1287 C1299 0.950 . S
C1288 H1280 0.950 . S
C1288 C1289 1.386 . S
C1288 C1290 1.391 . S
C1289 C1288 1.386 . S
C1289 C1293 1.393 . S
C1290 H1282 0.950 . S
C1290 C1288 1.391 . S
C1290 C1291 1.400 . S
C1291 C1290 1.400 . S
C1291 C1292 1.398 . S
C1291 C1297 1.491 . S
C1292 H1283 0.950 . S
C1292 C1291 1.398 . S
C1292 C1293 1.391 . S
C1293 H1281 0.950 . S
C1293 C1289 1.393 . S
C1293 C1292 1.391 . S
C1294 H1284 0.950 . S
C1294 C1295 1.386 . S
C1294 C1296 1.391 . S
C1295 C1294 1.386 . S
C1295 C1299 1.393 . S
C1296 H1285 0.950 . S
C1296 C1294 1.391 . S
C1296 C1297 1.400 . S
C1297 C1291 1.491 . S
C1297 C1296 1.400 . S
C1297 C1298 1.398 . S
C1298 H1286 0.950 . S
C1298 C1297 1.398 . S
C1298 C1299 1.391 . S
C1299 H1287 0.950 . S
C1299 C1295 1.393 . S
C1299 C1298 1.391 . S
H1300 C1308 0.950 . S
H1301 C1313 0.950 . S
H1302 C1310 0.950 . S
H1303 C1312 0.950 . S
H1304 C1314 0.950 . S
H1305 C1316 0.950 . S
H1306 C1318 0.950 . S
H1307 C1319 0.950 . S
C1308 H1300 0.950 . S
C1308 C1309 1.386 . S
C1308 C1310 1.391 . S
C1309 C1308 1.386 . S
C1309 C1313 1.393 . S
C1310 H1302 0.950 . S
C1310 C1308 1.391 . S
C1310 C1311 1.400 . S
C1311 C1310 1.400 . S
C1311 C1312 1.398 . S
C1311 C1317 1.491 . S
C1312 H1303 0.950 . S
C1312 C1311 1.398 . S
C1312 C1313 1.391 . S
C1313 H1301 0.950 . S
C1313 C1309 1.393 . S
C1313 C1312 1.391 . S
C1314 H1304 0.950 . S
C1314 C1315 1.386 . S
C1314 C1316 1.391 . S
C1315 C1314 1.386 . S
C1315 C1319 1.393 . S
C1316 H1305 0.950 . S
C1316 C1314 1.391 . S
C1316 C1317 1.400 . S
C1317 C1311 1.491 . S
C1317 C1316 1.400 . S
C1317 C1318 1.398 . S
C1318 H1306 0.950 . S
C1318 C1317 1.398 . S
C1318 C1319 1.391 . S
C1319 H1307 0.950 . S
C1319 C1315 1.393 . S
C1319 C1318 1.391 . S
H1320 C1328 0.950 . S
H1321 C1333 0.950 . S
H1322 C1330 0.950 . S
H1323 C1332 0.950 . S
H1324 C1334 0.950 . S
H1325 C1336 0.950 . S
H1326 C1338 0.950 . S
H1327 C1339 0.950 . S
C1328 H1320 0.950 . S
C1328 C1329 1.386 . S
C1328 C1330 1.391 . S
C1329 C1328 1.386 . S
C1329 C1333 1.393 . S
C1330 H1322 0.950 . S
C1330 C1328 1.391 . S
C1330 C1331 1.400 . S
C1331 C1330 1.400 . S
C1331 C1332 1.398 . S
C1331 C1337 1.491 . S
C1332 H1323 0.950 . S
C1332 C1331 1.398 . S
C1332 C1333 1.391 . S
C1333 H1321 0.950 . S
C1333 C1329 1.393 . S
C1333 C1332 1.391 . S
C1334 H1324 0.950 . S
C1334 C1335 1.386 . S
C1334 C1336 1.391 . S
C1335 C1334 1.386 . S
C1335 C1339 1.393 . S
C1336 H1325 0.950 . S
C1336 C1334 1.391 . S
C1336 C1337 1.400 . S
C1337 C1331 1.491 . S
C1337 C1336 1.400 . S
C1337 C1338 1.398 . S
C1338 H1326 0.950 . S
C1338 C1337 1.398 . S
C1338 C1339 1.391 . S
C1339 H1327 0.950 . S
C1339 C1335 1.393 . S
C1339 C1338 1.391 . S
H1340 C1348 0.950 . S
H1341 C1353 0.950 1_545 S
H1342 C1350 0.950 . S
H1343 C1352 0.950 . S
H1344 C1354 0.950 . S
H1345 C1356 0.950 . S
H1346 C1358 0.950 . S
H1347 C1359 0.950 . S
C1348 H1340 0.950 . S
C1348 C1349 1.386 . S
C1348 C1350 1.391 . S
C1349 C1348 1.386 . S
C1349 C1353 1.393 . S
C1350 H1342 0.950 . S
C1350 C1348 1.391 . S
C1350 C1351 1.400 . S
C1351 C1350 1.400 . S
C1351 C1352 1.398 . S
C1351 C1357 1.491 . S
C1352 H1343 0.950 . S
C1352 C1351 1.398 . S
C1352 C1353 1.391 . S
C1353 H1341 0.950 1_565 S
C1353 C1349 1.393 . S
C1353 C1352 1.391 . S
C1354 H1344 0.950 . S
C1354 C1355 1.386 . S
C1354 C1356 1.391 . S
C1355 C1354 1.386 . S
C1355 C1359 1.393 . S
C1356 H1345 0.950 . S
C1356 C1354 1.391 . S
C1356 C1357 1.400 . S
C1357 C1351 1.491 . S
C1357 C1356 1.400 . S
C1357 C1358 1.398 . S
C1358 H1346 0.950 . S
C1358 C1357 1.398 . S
C1358 C1359 1.391 . S
C1359 H1347 0.950 . S
C1359 C1355 1.393 . S
C1359 C1358 1.391 . S
H1360 C1368 0.950 . S
H1361 C1373 0.950 . S
H1362 C1370 0.950 . S
H1363 C1372 0.950 . S
H1364 C1374 0.950 . S
H1365 C1376 0.950 . S
H1366 C1378 0.950 . S
H1367 C1379 0.950 . S
C1368 H1360 0.950 . S
C1368 C1369 1.386 . S
C1368 C1370 1.391 . S
C1369 C1368 1.386 . S
C1369 C1373 1.393 . S
C1370 H1362 0.950 . S
C1370 C1368 1.391 . S
C1370 C1371 1.400 . S
C1371 C1370 1.400 . S
C1371 C1372 1.398 . S
C1371 C1377 1.491 . S
C1372 H1363 0.950 . S
C1372 C1371 1.398 . S
C1372 C1373 1.391 . S
C1373 H1361 0.950 . S
C1373 C1369 1.393 . S
C1373 C1372 1.391 . S
C1374 H1364 0.950 . S
C1374 C1375 1.386 . S
C1374 C1376 1.391 . S
C1375 C1374 1.386 . S
C1375 C1379 1.393 . S
C1376 H1365 0.950 . S
C1376 C1374 1.391 . S
C1376 C1377 1.400 . S
C1377 C1371 1.491 . S
C1377 C1376 1.400 . S
C1377 C1378 1.398 . S
C1378 H1366 0.950 . S
C1378 C1377 1.398 . S
C1378 C1379 1.391 . S
C1379 H1367 0.950 . S
C1379 C1375 1.393 . S
C1379 C1378 1.391 . S
H1380 C1388 0.950 . S
H1381 C1393 0.950 . S
H1382 C1390 0.950 . S
H1383 C1392 0.950 . S
H1384 C1394 0.950 . S
H1385 C1396 0.950 . S
H1386 C1398 0.950 . S
H1387 C1399 0.950 . S
C1388 H1380 0.950 . S
C1388 C1389 1.386 . S
C1388 C1390 1.391 . S
C1389 C1388 1.386 . S
C1389 C1393 1.393 . S
C1390 H1382 0.950 . S
C1390 C1388 1.391 . S
C1390 C1391 1.400 . S
C1391 C1390 1.400 . S
C1391 C1392 1.398 . S
C1391 C1397 1.491 . S
C1392 H1383 0.950 . S
C1392 C1391 1.398 . S
C1392 C1393 1.391 . S
C1393 H1381 0.950 . S
C1393 C1389 1.393 . S
C1393 C1392 1.391 . S
C1394 H1384 0.950 . S
C1394 C1395 1.386 . S
C1394 C1396 1.391 . S
C1395 C1394 1.386 . S
C1395 C1399 1.393 . S
C1396 H1385 0.950 . S
C1396 C1394 1.391 . S
C1396 C1397 1.400 . S
C1397 C1391 1.491 . S
C1397 C1396 1.400 . S
C1397 C1398 1.398 . S
C1398 H1386 0.950 . S
C1398 C1397 1.398 . S
C1398 C1399 1.391 . S
C1399 H1387 0.950 . S
C1399 C1395 1.393 . S
C1399 C1398 1.391 . S
H1400 C1408 0.950 . S
H1401 C1413 0.950 . S
H1402 C1410 0.950 . S
H1403 C1412 0.950 . S
H1404 C1414 0.950 . S
H1405 C1416 0.950 . S
H1406 C1418 0.950 . S
H1407 C1419 0.950 . S
C1408 H1400 0.950 . S
C1408 C1409 1.386 . S
C1408 C1410 1.391 . S
C1409 C1408 1.386 . S
C1409 C1413 1.393 . S
C1410 H1402 0.950 . S
C1410 C1408 1.391 . S
C1410 C1411 1.400 . S
C1411 C1410 1.400 . S
C1411 C1412 1.398 . S
C1411 C1417 1.491 . S
C1412 H1403 0.950 . S
C1412 C1411 1.398 . S
C1412 C1413 1.391 . S
C1413 H1401 0.950 . S
C1413 C1409 1.393 . S
C1413 C1412 1.391 . S
C1414 H1404 0.950 . S
C1414 C1415 1.386 . S
C1414 C1416 1.391 . S
C1415 C1414 1.386 . S
C1415 C1419 1.393 . S
C1416 H1405 0.950 . S
C1416 C1414 1.391 . S
C1416 C1417 1.400 . S
C1417 C1411 1.491 . S
C1417 C1416 1.400 . S
C1417 C1418 1.398 . S
C1418 H1406 0.950 . S
C1418 C1417 1.398 . S
C1418 C1419 1.391 . S
C1419 H1407 0.950 . S
C1419 C1415 1.393 . S
C1419 C1418 1.391 . S
H1420 C1428 0.950 . S
H1421 C1433 0.950 . S
H1422 C1430 0.950 . S
H1423 C1432 0.950 . S
H1424 C1434 0.950 . S
H1425 C1436 0.950 . S
H1426 C1438 0.950 . S
H1427 C1439 0.950 . S
C1428 H1420 0.950 . S
C1428 C1429 1.386 . S
C1428 C1430 1.391 . S
C1429 C1428 1.386 . S
C1429 C1433 1.393 . S
C1430 H1422 0.950 . S
C1430 C1428 1.391 . S
C1430 C1431 1.400 . S
C1431 C1430 1.400 . S
C1431 C1432 1.398 . S
C1431 C1437 1.491 . S
C1432 H1423 0.950 . S
C1432 C1431 1.398 . S
C1432 C1433 1.391 . S
C1433 H1421 0.950 . S
C1433 C1429 1.393 . S
C1433 C1432 1.391 . S
C1434 H1424 0.950 . S
C1434 C1435 1.386 . S
C1434 C1436 1.391 . S
C1435 C1434 1.386 . S
C1435 C1439 1.393 . S
C1436 H1425 0.950 . S
C1436 C1434 1.391 . S
C1436 C1437 1.400 . S
C1437 C1431 1.491 . S
C1437 C1436 1.400 . S
C1437 C1438 1.398 . S
C1438 H1426 0.950 . S
C1438 C1437 1.398 . S
C1438 C1439 1.391 . S
C1439 H1427 0.950 . S
C1439 C1435 1.393 . S
C1439 C1438 1.391 . S
H1440 C1448 0.950 . S
H1441 C1453 0.950 . S
H1442 C1450 0.950 . S
H1443 C1452 0.950 . S
H1444 C1454 0.950 . S
H1445 C1456 0.950 . S
H1446 C1458 0.950 . S
H1447 C1459 0.950 . S
C1448 H1440 0.950 . S
C1448 C1449 1.386 . S
C1448 C1450 1.391 . S
C1449 C1448 1.386 . S
C1449 C1453 1.393 . S
C1450 H1442 0.950 . S
C1450 C1448 1.391 . S
C1450 C1451 1.400 . S
C1451 C1450 1.400 . S
C1451 C1452 1.398 . S
C1451 C1457 1.491 . S
C1452 H1443 0.950 . S
C1452 C1451 1.398 . S
C1452 C1453 1.391 . S
C1453 H1441 0.950 . S
C1453 C1449 1.393 . S
C1453 C1452 1.391 . S
C1454 H1444 0.950 . S
C1454 C1455 1.386 . S
C1454 C1456 1.391 . S
C1455 C1454 1.386 . S
C1455 C1459 1.393 . S
C1456 H1445 0.950 . S
C1456 C1454 1.391 . S
C1456 C1457 1.400 . S
C1457 C1451 1.491 . S
C1457 C1456 1.400 . S
C1457 C1458 1.398 . S
C1458 H1446 0.950 . S
C1458 C1457 1.398 . S
C1458 C1459 1.391 . S
C1459 H1447 0.950 . S
C1459 C1455 1.393 . S
C1459 C1458 1.391 . S
H1460 C1468 0.950 . S
H1461 C1473 0.950 . S
H1462 C1470 0.950 . S
H1463 C1472 0.950 . S
H1464 C1474 0.950 . S
H1465 C1476 0.950 . S
H1466 C1478 0.950 . S
H1467 C1479 0.950 . S
C1468 H1460 0.950 . S
C1468 C1469 1.386 . S
C1468 C1470 1.391 . S
C1469 C1468 1.386 . S
C1469 C1473 1.393 . S
C1470 H1462 0.950 . S
C1470 C1468 1.391 . S
C1470 C1471 1.400 . S
C1471 C1470 1.400 . S
C1471 C1472 1.398 . S
C1471 C1477 1.491 . S
C1472 H1463 0.950 . S
C1472 C1471 1.398 . S
C1472 C1473 1.391 . S
C1473 H1461 0.950 . S
C1473 C1469 1.393 . S
C1473 C1472 1.391 . S
C1474 H1464 0.950 . S
C1474 C1475 1.386 . S
C1474 C1476 1.391 . S
C1475 C1474 1.386 . S
C1475 C1479 1.393 . S
C1476 H1465 0.950 . S
C1476 C1474 1.391 . S
C1476 C1477 1.400 . S
C1477 C1471 1.491 . S
C1477 C1476 1.400 . S
C1477 C1478 1.398 . S
C1478 H1466 0.950 . S
C1478 C1477 1.398 . S
C1478 C1479 1.391 . S
C1479 H1467 0.950 . S
C1479 C1475 1.393 . S
C1479 C1478 1.391 . S
H1480 C1488 0.950 . S
H1481 C1493 0.950 . S
H1482 C1490 0.950 . S
H1483 C1492 0.950 . S
H1484 C1494 0.950 . S
H1485 C1496 0.950 . S
H1486 C1498 0.950 . S
H1487 C1499 0.950 . S
C1488 H1480 0.950 . S
C1488 C1489 1.386 . S
C1488 C1490 1.391 . S
C1489 C1488 1.386 . S
C1489 C1493 1.393 . S
C1490 H1482 0.950 . S
C1490 C1488 1.391 . S
C1490 C1491 1.400 . S
C1491 C1490 1.400 . S
C1491 C1492 1.398 . S
C1491 C1497 1.491 . S
C1492 H1483 0.950 . S
C1492 C1491 1.398 . S
C1492 C1493 1.391 . S
C1493 H1481 0.950 . S
C1493 C1489 1.393 . S
C1493 C1492 1.391 . S
C1494 H1484 0.950 . S
C1494 C1495 1.386 . S
C1494 C1496 1.391 . S
C1495 C1494 1.386 . S
C1495 C1499 1.393 . S
C1496 H1485 0.950 . S
C1496 C1494 1.391 . S
C1496 C1497 1.400 . S
C1497 C1491 1.491 . S
C1497 C1496 1.400 . S
C1497 C1498 1.398 . S
C1498 H1486 0.950 . S
C1498 C1497 1.398 . S
C1498 C1499 1.391 . S
C1499 H1487 0.950 . S
C1499 C1495 1.393 . S
C1499 C1498 1.391 . S
H1500 C1508 0.950 . S
H1501 C1513 0.950 . S
H1502 C1510 0.950 . S
H1503 C1512 0.950 . S
H1504 C1514 0.950 . S
H1505 C1516 0.950 . S
H1506 C1518 0.950 . S
H1507 C1519 0.950 . S
C1508 H1500 0.950 . S
C1508 C1509 1.386 . S
C1508 C1510 1.391 . S
C1509 C1508 1.386 . S
C1509 C1513 1.393 . S
C1510 H1502 0.950 . S
C1510 C1508 1.391 . S
C1510 C1511 1.400 . S
C1511 C1510 1.400 . S
C1511 C1512 1.398 . S
C1511 C1517 1.491 . S
C1512 H1503 0.950 . S
C1512 C1511 1.398 . S
C1512 C1513 1.391 . S
C1513 H1501 0.950 . S
C1513 C1509 1.393 . S
C1513 C1512 1.391 . S
C1514 H1504 0.950 . S
C1514 C1515 1.386 . S
C1514 C1516 1.391 . S
C1515 C1514 1.386 . S
C1515 C1519 1.393 . S
C1516 H1505 0.950 . S
C1516 C1514 1.391 . S
C1516 C1517 1.400 . S
C1517 C1511 1.491 . S
C1517 C1516 1.400 . S
C1517 C1518 1.398 . S
C1518 H1506 0.950 . S
C1518 C1517 1.398 . S
C1518 C1519 1.391 . S
C1519 H1507 0.950 . S
C1519 C1515 1.393 . S
C1519 C1518 1.391 . S
H1520 C1528 0.950 . S
H1521 C1533 0.950 . S
H1522 C1530 0.950 . S
H1523 C1532 0.950 . S
H1524 C1534 0.950 . S
H1525 C1536 0.950 . S
H1526 C1538 0.950 . S
H1527 C1539 0.950 . S
C1528 H1520 0.950 . S
C1528 C1529 1.386 . S
C1528 C1530 1.391 . S
C1529 C1528 1.386 . S
C1529 C1533 1.393 . S
C1530 H1522 0.950 . S
C1530 C1528 1.391 . S
C1530 C1531 1.400 . S
C1531 C1530 1.400 . S
C1531 C1532 1.398 . S
C1531 C1537 1.491 . S
C1532 H1523 0.950 . S
C1532 C1531 1.398 . S
C1532 C1533 1.391 . S
C1533 H1521 0.950 . S
C1533 C1529 1.393 . S
C1533 C1532 1.391 . S
C1534 H1524 0.950 . S
C1534 C1535 1.386 . S
C1534 C1536 1.391 . S
C1535 C1534 1.386 . S
C1535 C1539 1.393 . S
C1536 H1525 0.950 . S
C1536 C1534 1.391 . S
C1536 C1537 1.400 . S
C1537 C1531 1.491 . S
C1537 C1536 1.400 . S
C1537 C1538 1.398 . S
C1538 H1526 0.950 . S
C1538 C1537 1.398 . S
C1538 C1539 1.391 . S
C1539 H1527 0.950 . S
C1539 C1535 1.393 . S
C1539 C1538 1.391 . S
H1540 C1548 0.950 . S
H1541 C1553 0.950 . S
H1542 C1550 0.950 . S
H1543 C1552 0.950 . S
H1544 C1554 0.950 . S
H1545 C1556 0.950 . S
H1546 C1558 0.950 . S
H1547 C1559 0.950 . S
C1548 H1540 0.950 . S
C1548 C1549 1.386 . S
C1548 C1550 1.391 . S
C1549 C1548 1.386 . S
C1549 C1553 1.393 . S
C1550 H1542 0.950 . S
C1550 C1548 1.391 . S
C1550 C1551 1.400 . S
C1551 C1550 1.400 . S
C1551 C1552 1.398 . S
C1551 C1557 1.491 . S
C1552 H1543 0.950 . S
C1552 C1551 1.398 . S
C1552 C1553 1.391 . S
C1553 H1541 0.950 . S
C1553 C1549 1.393 . S
C1553 C1552 1.391 . S
C1554 H1544 0.950 . S
C1554 C1555 1.386 . S
C1554 C1556 1.391 . S
C1555 C1554 1.386 . S
C1555 C1559 1.393 . S
C1556 H1545 0.950 . S
C1556 C1554 1.391 . S
C1556 C1557 1.400 . S
C1557 C1551 1.491 . S
C1557 C1556 1.400 . S
C1557 C1558 1.398 . S
C1558 H1546 0.950 . S
C1558 C1557 1.398 . S
C1558 C1559 1.391 . S
C1559 H1547 0.950 . S
C1559 C1555 1.393 . S
C1559 C1558 1.391 . S
H1560 C1568 0.950 . S
H1561 C1573 0.950 . S
H1562 C1570 0.950 . S
H1563 C1572 0.950 . S
H1564 C1574 0.950 . S
H1565 C1576 0.950 . S
H1566 C1578 0.950 . S
H1567 C1579 0.950 . S
C1568 H1560 0.950 . S
C1568 C1569 1.386 . S
C1568 C1570 1.391 . S
C1569 C1568 1.386 . S
C1569 C1573 1.393 . S
C1570 H1562 0.950 . S
C1570 C1568 1.391 . S
C1570 C1571 1.400 . S
C1571 C1570 1.400 . S
C1571 C1572 1.398 . S
C1571 C1577 1.491 . S
C1572 H1563 0.950 . S
C1572 C1571 1.398 . S
C1572 C1573 1.391 . S
C1573 H1561 0.950 . S
C1573 C1569 1.393 . S
C1573 C1572 1.391 . S
C1574 H1564 0.950 . S
C1574 C1575 1.386 . S
C1574 C1576 1.391 . S
C1575 C1574 1.386 . S
C1575 C1579 1.393 . S
C1576 H1565 0.950 . S
C1576 C1574 1.391 . S
C1576 C1577 1.400 . S
C1577 C1571 1.491 . S
C1577 C1576 1.400 . S
C1577 C1578 1.398 . S
C1578 H1566 0.950 . S
C1578 C1577 1.398 . S
C1578 C1579 1.391 . S
C1579 H1567 0.950 . S
C1579 C1575 1.393 . S
C1579 C1578 1.391 . S
H1580 C1588 0.950 . S
H1581 C1593 0.950 . S
H1582 C1590 0.950 . S
H1583 C1592 0.950 . S
H1584 C1594 0.950 . S
H1585 C1596 0.950 . S
H1586 C1598 0.950 . S
H1587 C1599 0.950 . S
C1588 H1580 0.950 . S
C1588 C1589 1.386 . S
C1588 C1590 1.391 . S
C1589 C1588 1.386 . S
C1589 C1593 1.393 . S
C1590 H1582 0.950 . S
C1590 C1588 1.391 . S
C1590 C1591 1.400 . S
C1591 C1590 1.400 . S
C1591 C1592 1.398 . S
C1591 C1597 1.491 . S
C1592 H1583 0.950 . S
C1592 C1591 1.398 . S
C1592 C1593 1.391 . S
C1593 H1581 0.950 . S
C1593 C1589 1.393 . S
C1593 C1592 1.391 . S
C1594 H1584 0.950 . S
C1594 C1595 1.386 . S
C1594 C1596 1.391 . S
C1595 C1594 1.386 . S
C1595 C1599 1.393 . S
C1596 H1585 0.950 . S
C1596 C1594 1.391 . S
C1596 C1597 1.400 . S
C1597 C1591 1.491 . S
C1597 C1596 1.400 . S
C1597 C1598 1.398 . S
C1598 H1586 0.950 . S
C1598 C1597 1.398 . S
C1598 C1599 1.391 . S
C1599 H1587 0.950 . S
C1599 C1595 1.393 . S
C1599 C1598 1.391 . S
C649 C131 1.893 . S
C655 C10 1.892 1_556 S
C669 C7 0.731 . S
C675 C56 0.656 . S
C689 C90 1.016 . S
C695 C59 1.029 . S
C709 C127 0.918 . S
C715 C87 0.918 . S
C729 C167 2.197 . S
C735 C202 2.185 . S
C749 C219 1.264 . S
C755 C259 1.266 1_565 S
C769 C256 2.108 . S
C775 C282 2.105 . S
C789 C171 1.782 . S
C795 C299 1.772 . S
C809 C376 2.848 . S
C815 C11 2.814 . S
C829 C402 1.322 . S
C835 C42 1.346 . S
C849 C91 4.378 . S
C855 C531 4.371 . S
C869 C330 0.910 . S
C875 C130 0.909 . S
C889 C450 0.753 . S
C895 C170 0.733 . S
C909 C571 3.054 . S
C915 C216 3.051 . S
C929 C242 2.091 1_556 S
C935 C482 2.102 . S
C949 C611 3.003 . S
C955 C296 2.975 . S
C969 C331 1.864 . S
C975 C530 1.861 . S
C989 C362 2.229 . S
C995 C327 2.254 . S
C1009 C419 0.630 . S
C1015 C379 0.611 . S
C1029 C570 1.727 . S
C1035 C451 1.734 . S
C1049 C499 0.797 . S
C1055 C610 0.784 . S
C1069 C442 1.741 . S
C1075 C19 1.724 . S
C1089 C487 0.711 . S
C1095 C16 0.784 . S
C1109 C490 0.774 . S
C1115 C99 0.807 . S
C1129 C96 0.495 . S
C1135 C456 0.503 . S
C1149 C371 2.244 . S
C1155 C176 2.264 . S
C1169 C370 0.633 . S
C1175 C250 0.643 . S
C1189 C536 0.886 . S
C1195 C247 0.877 . S
C1209 C162 1.854 . S
C1215 C539 1.859 . S
C1229 C207 3.050 . S
C1235 C2 3.055 . S
C1249 C411 2.116 . S
C1255 C491 2.102 . S
C1269 C82 2.997 . S
C1275 C287 2.972 . S
C1289 C339 0.762 . S
C1295 C459 0.726 . S
C1309 C139 0.902 . S
C1315 C179 0.921 . S
C1329 C367 2.842 . S
C1335 C562 2.820 . S
C1349 C251 1.304 1_565 S
C1355 C51 1.340 . S
C1369 C602 4.376 . S
C1375 C522 4.364 . S
C1389 C322 1.781 . S
C1395 C290 1.769 . S
C1409 C336 2.198 . S
C1415 C211 2.182 . S
C1429 C410 1.254 . S
C1435 C210 1.265 . S
C1449 C122 1.890 . S
C1455 C579 1.898 . S
C1469 C50 1.033 . S
C1475 C619 1.020 . S
C1489 C496 0.700 . S
C1495 C567 0.739 . S
C1509 C447 0.537 . S
C1515 C607 0.541 . S
C1529 C416 0.886 . S
C1535 C527 0.872 . S
C1549 C576 0.764 . S
C1555 C47 0.648 . S
C1569 C136 0.914 . S
C1575 C616 0.917 . S
C1589 C291 2.108 . S
C1595 C407 2.100 . S
