# Generated by pormake.
# Topology smm, (6)-cn, num edge types: 1
# Building blocks:
#     Node 0, Type 0, BuildingBlock: CUKXOW_clean_sbu_0, # of connection points: 6
#     Node 1, Type 0, BuildingBlock: CUKXOW_clean_sbu_0, # of connection points: 6
#     Node 2, Type 0, BuildingBlock: CUKXOW_clean_sbu_0, # of connection points: 6
#     Node 3, Type 0, BuildingBlock: CUKXOW_clean_sbu_0, # of connection points: 6
#     Node 4, Type 0, BuildingBlock: CUKXOW_clean_sbu_0, # of connection points: 6
#     Node 5, Type 0, BuildingBlock: CUKXOW_clean_sbu_0, # of connection points: 6
#     Node 6, Type 0, BuildingBlock: CUKXOW_clean_sbu_0, # of connection points: 6
#     Node 7, Type 0, BuildingBlock: CUKXOW_clean_sbu_0, # of connection points: 6
#     Node 8, Type 0, BuildingBlock: CUKXOW_clean_sbu_0, # of connection points: 6
#     Edge 9, Type (0, 0), BuildingBlock: OJICUG_clean_linker_0, # of connection points: 2
#     Edge 10, Type (0, 0), BuildingBlock: OJICUG_clean_linker_0, # of connection points: 2
#     Edge 11, Type (0, 0), BuildingBlock: OJICUG_clean_linker_0, # of connection points: 2
#     Edge 12, Type (0, 0), BuildingBlock: OJICUG_clean_linker_0, # of connection points: 2
#     Edge 13, Type (0, 0), BuildingBlock: OJICUG_clean_linker_0, # of connection points: 2
#     Edge 14, Type (0, 0), BuildingBlock: OJICUG_clean_linker_0, # of connection points: 2
#     Edge 15, Type (0, 0), BuildingBlock: OJICUG_clean_linker_0, # of connection points: 2
#     Edge 16, Type (0, 0), BuildingBlock: OJICUG_clean_linker_0, # of connection points: 2
#     Edge 17, Type (0, 0), BuildingBlock: OJICUG_clean_linker_0, # of connection points: 2
#     Edge 18, Type (0, 0), BuildingBlock: OJICUG_clean_linker_0, # of connection points: 2
#     Edge 19, Type (0, 0), BuildingBlock: OJICUG_clean_linker_0, # of connection points: 2
#     Edge 20, Type (0, 0), BuildingBlock: OJICUG_clean_linker_0, # of connection points: 2
#     Edge 21, Type (0, 0), BuildingBlock: OJICUG_clean_linker_0, # of connection points: 2
#     Edge 22, Type (0, 0), BuildingBlock: OJICUG_clean_linker_0, # of connection points: 2
#     Edge 23, Type (0, 0), BuildingBlock: OJICUG_clean_linker_0, # of connection points: 2
#     Edge 24, Type (0, 0), BuildingBlock: OJICUG_clean_linker_0, # of connection points: 2
#     Edge 25, Type (0, 0), BuildingBlock: OJICUG_clean_linker_0, # of connection points: 2
#     Edge 26, Type (0, 0), BuildingBlock: OJICUG_clean_linker_0, # of connection points: 2
#     Edge 27, Type (0, 0), BuildingBlock: OJICUG_clean_linker_0, # of connection points: 2
#     Edge 28, Type (0, 0), BuildingBlock: OJICUG_clean_linker_0, # of connection points: 2
#     Edge 29, Type (0, 0), BuildingBlock: OJICUG_clean_linker_0, # of connection points: 2
#     Edge 30, Type (0, 0), BuildingBlock: OJICUG_clean_linker_0, # of connection points: 2
#     Edge 31, Type (0, 0), BuildingBlock: OJICUG_clean_linker_0, # of connection points: 2
#     Edge 32, Type (0, 0), BuildingBlock: OJICUG_clean_linker_0, # of connection points: 2
#     Edge 33, Type (0, 0), BuildingBlock: OJICUG_clean_linker_0, # of connection points: 2
#     Edge 34, Type (0, 0), BuildingBlock: OJICUG_clean_linker_0, # of connection points: 2
#     Edge 35, Type (0, 0), BuildingBlock: OJICUG_clean_linker_0, # of connection points: 2
# Relax obj value: 0.095
# Max RMSD: 0.193
# Mean RMSD: 0.155
data_MOF--net-smm--node1-CUKXOW_clean_sbu_0--edge1-OJICUG_clean_linker_0
_symmetry_space_group_name_H-M    P1
_symmetry_Int_Tables_number       1
_symmetry_cell_setting            triclinic
loop_
_symmetry_equiv_pos_as_xyz
'x, y, z'
_cell_length_a     43.815452
_cell_length_b     36.570173
_cell_length_c     11.220027
_cell_angle_alpha  91.62397
_cell_angle_beta   92.275976
_cell_angle_gamma 121.33436
loop_
_atom_site_label
_atom_site_type_symbol
_atom_site_fract_x
_atom_site_fract_y
_atom_site_fract_z
_atom_type_partial_charge
Tb0 Tb 1.04054 0.27979 0.94161 0.0
C1 C 0.07017 0.26323 0.18344 0.0
Tb2 Tb 0.09504 0.24901 0.93318 0.0
O3 O 0.99137 0.21877 0.96222 0.0
O4 O 1.03911 0.22081 0.94943 0.0
O5 O 0.054 0.28086 0.12952 0.0
C6 C 0.13683 0.21516 0.93471 0.0
O7 O 0.08631 0.24645 0.12492 0.0
C8 C 0.11838 0.32901 0.87244 0.0
C9 C 0.05799 0.2539 0.69531 0.0
O10 O 0.14419 0.2505 -0.0078 0.0
O11 O 0.10525 0.19809 0.87971 0.0
O12 O 0.13077 0.30574 0.83496 0.0
O13 O 0.09665 0.30848 0.94995 0.0
O14 O 0.0694 0.23161 0.75355 0.0
O15 O 0.0488 0.27917 0.75107 0.0
C16 C 1.0128 0.32734 0.00121 0.0
O17 O 0.99896 0.29575 0.9203 0.0
O18 O 0.04378 0.33432 0.0394 0.0
C19 C 1.00609 0.19593 0.96445 0.0
Tb20 Tb 0.84757 0.94057 0.01425 0.0
C21 C 0.88239 0.93571 0.77659 0.0
Tb22 Tb 0.91869 0.94579 0.03396 0.0
O23 O 0.87291 1.00798 0.07856 0.0
O24 O 0.90123 0.98711 -0.01815 0.0
O25 O 0.85437 0.93248 0.82681 0.0
C26 C 0.98555 0.96658 0.0182 0.0
O27 O 0.91083 0.94122 0.83967 0.0
C28 C 0.86519 0.87357 0.09952 0.0
C29 C 0.8851 0.95355 0.267 0.0
O30 O 0.95779 0.92908 -0.01216 0.0
O31 O 0.97574 0.99229 0.05902 0.0
O32 O 0.89822 0.88911 0.13689 0.0
O33 O 0.86406 0.89535 0.01535 0.0
O34 O 0.91557 0.96727 0.21414 0.0
O35 O 0.85385 0.93769 0.20563 0.0
C36 C 0.77863 0.9067 0.94557 0.0
O37 O 0.80447 0.9445 0.92106 0.0
O38 O 0.79152 0.89001 0.01687 0.0
C39 C 0.9041 1.01884 0.03991 0.0
Tb40 Tb 0.27719 0.12329 0.91315 0.0
C41 C 0.23559 0.08203 0.14503 0.0
Tb42 Tb 0.197 0.05558 0.88688 0.0
O43 O 0.26771 0.17453 0.86109 0.0
O44 O 0.22894 0.12083 0.94235 0.0
O45 O 0.26638 0.10703 0.09721 0.0
C46 C 0.12729 1.01986 0.89639 0.0
O47 O 0.2048 0.05902 0.08071 0.0
C48 C 0.23876 1.02775 0.82646 0.0
C49 C 0.23858 0.09581 0.65872 0.0
O50 O 0.1489 0.05766 0.86006 0.0
O51 O 0.14473 1.00109 0.92447 0.0
O52 O 0.20593 1.01089 0.78305 0.0
O53 O 0.24503 0.05544 0.90932 0.0
O54 O 0.2077 0.08057 0.7098 0.0
O55 O 0.2696 0.11049 0.72089 0.0
C56 C 0.34476 0.15511 -0.00588 0.0
O57 O 0.32507 0.17082 0.02017 0.0
O58 O 0.32747 0.1245 0.91163 0.0
C59 C 0.23446 0.15351 0.88977 0.0
Tb60 Tb 0.71976 0.63421 0.36573 0.0
C61 C 0.68529 0.58349 0.1165 0.0
Tb62 Tb 0.66486 0.53515 0.35267 0.0
O63 O 0.7594 0.62214 0.44814 0.0
O64 O 0.71986 0.57674 0.3251 0.0
O65 O 0.69756 0.61982 0.18125 0.0
C66 C 0.63791 0.45055 0.35147 0.0
O67 O 0.67502 0.54653 0.16537 0.0
C68 C 0.63132 0.57778 0.37791 0.0
C69 C 0.69204 0.58961 0.60314 0.0
O70 O 0.62678 0.4697 0.28211 0.0
O71 O 0.66442 0.47919 0.42227 0.0
O72 O 0.61528 0.53624 0.36757 0.0
O73 O 0.66418 0.5921 0.36946 0.0
O74 O 0.6801 0.55218 0.54292 0.0
O75 O 0.70554 0.62687 0.5509 0.0
C76 C 0.76454 0.71346 0.29715 0.0
O77 O 0.76749 0.68032 0.28109 0.0
O78 O 0.73638 0.70268 0.3575 0.0
C79 C 0.74585 0.58429 0.39593 0.0
Tb80 Tb 0.50929 0.18532 0.42019 0.0
C81 C 0.55096 0.19548 0.18691 0.0
Tb82 Tb 0.59061 0.21014 0.44314 0.0
O83 O 0.52072 0.25094 0.39496 0.0
O84 O 0.56078 0.23942 0.42724 0.0
O85 O 0.52 0.18167 0.2352 0.0
C86 C 0.66223 0.25453 0.43878 0.0
O87 O 0.58172 0.20953 0.25005 0.0
C88 C 0.54185 0.12992 0.48858 0.0
C89 C 0.54919 0.20226 0.67348 0.0
O90 O 0.64099 0.2144 0.40288 0.0
O91 O 0.6431 0.26932 0.47929 0.0
O92 O 0.57547 0.14976 0.52694 0.0
O93 O 0.53838 0.1535 0.41551 0.0
O94 O 0.58064 0.22233 0.62397 0.0
O95 O 0.51763 0.18106 0.61076 0.0
C96 C 0.44049 0.14968 0.34867 0.0
O97 O 0.45749 0.18004 0.43232 0.0
O98 O 0.46143 0.13648 0.31659 0.0
C99 C 0.55515 0.26894 0.40619 0.0
Tb100 Tb 0.88655 0.38954 0.38419 0.0
C101 C 0.8729 0.42634 0.1447 0.0
Tb102 Tb 0.85979 0.45517 0.3951 0.0
O103 O 0.8342 0.33015 0.3977 0.0
O104 O 0.83855 0.38871 0.39136 0.0
O105 O 0.8859 0.4053 0.19958 0.0
C106 C 0.82222 0.49427 0.3913 0.0
O107 O 0.86044 0.44776 0.20182 0.0
C108 C 0.92936 0.48676 0.43621 0.0
C109 C 0.87178 0.41842 0.63014 0.0
O110 O 0.81002 0.45482 0.35417 0.0
O111 O 0.85552 0.5116 0.42904 0.0
O112 O 0.91252 0.50421 0.47952 0.0
O113 O 0.90771 0.45575 0.36525 0.0
O114 O 0.85164 0.4304 0.57171 0.0
O115 O 0.89162 0.40568 0.57582 0.0
C116 C 0.92481 0.35654 0.31104 0.0
O117 O 0.89177 0.34286 0.27802 0.0
O118 O 0.93569 0.38696 0.39496 0.0
C119 C 0.8161 0.34923 0.39731 0.0
Tb120 Tb 0.35238 0.91194 0.63598 0.0
C121 C 0.37688 0.89046 0.87821 0.0
Tb122 Tb 0.40075 0.87028 0.6359 0.0
O123 O 0.30013 0.85235 0.64628 0.0
O124 O 0.34556 0.84975 0.64103 0.0
O125 O 0.36816 0.91576 0.82387 0.0
C126 C 0.4329 0.82492 0.64702 0.0
O127 O 0.38554 0.86535 0.81991 0.0
C128 C 0.44013 0.95573 0.6174 0.0
C129 C 0.37376 0.88811 0.39273 0.0
O130 O 0.43647 0.85352 0.72664 0.0
O131 O 0.40978 0.8204 0.56207 0.0
O132 O 0.45268 0.93066 0.62244 0.0
O133 O 0.40687 0.93167 0.62641 0.0
O134 O 0.38327 0.86347 0.44821 0.0
O135 O 0.36527 0.91383 0.44971 0.0
C136 C 0.32825 0.96549 0.66543 0.0
O137 O 0.31801 0.93633 0.57868 0.0
O138 O 0.35331 0.96573 0.73187 0.0
C139 C 0.31193 0.82636 0.64673 0.0
Tb140 Tb 0.14602 0.56404 0.62842 0.0
C141 C 0.1812 0.56399 0.38785 0.0
Tb142 Tb 0.21996 0.57263 0.64074 0.0
O143 O 0.17103 0.63199 0.68866 0.0
O144 O 0.20006 0.61256 0.59388 0.0
O145 O 0.15241 0.55817 0.43907 0.0
C146 C 0.28877 0.59881 0.63008 0.0
O147 O 0.2109 0.57277 0.44921 0.0
C148 C 0.1709 0.4919 0.67474 0.0
C149 C 0.18262 0.56875 0.87579 0.0
O150 O 0.26244 0.56657 0.56854 0.0
O151 O 0.27652 0.61696 0.699 0.0
O152 O 0.20483 0.50685 0.67212 0.0
O153 O 0.1658 0.52243 0.65536 0.0
O154 O 0.21384 0.58622 0.82555 0.0
O155 O 0.15149 0.55088 0.81232 0.0
C156 C 0.07602 0.53643 0.5794 0.0
O157 O 0.09785 0.56768 0.65538 0.0
O158 O 0.09351 0.52035 0.53338 0.0
C159 C 0.20258 0.64407 0.65265 0.0
Tb160 Tb 0.58357 0.74895 0.58628 0.0
C161 C 0.5451 0.70639 0.81674 0.0
Tb162 Tb 0.50479 0.67948 0.55905 0.0
O163 O 0.56752 0.79114 0.67145 0.0
O164 O 0.53476 0.7455 0.53879 0.0
O165 O 0.57593 0.73028 0.76848 0.0
C166 C 0.43584 0.6499 0.58584 0.0
O167 O 0.51425 0.68425 0.75262 0.0
C168 C 0.54662 0.6501 0.51904 0.0
C169 C 0.54587 0.7167 0.32945 0.0
O170 O 0.46248 0.6843 0.63832 0.0
O171 O 0.44784 0.63128 0.51782 0.0
O172 O 0.5129 0.63043 0.48216 0.0
O173 O 0.55359 0.68077 0.59373 0.0
O174 O 0.51462 0.70108 0.37863 0.0
O175 O 0.57686 0.7341 0.39411 0.0
C176 C 0.65427 0.80002 0.62868 0.0
O177 O 0.63307 0.81205 0.58597 0.0
O178 O 0.63587 0.75882 0.63686 0.0
C179 C 0.53683 0.77332 0.61175 0.0
C180 C 0.13682 0.37554 0.69869 0.0
C181 C 0.12399 0.36806 0.8137 0.0
H182 H 0.15998 0.42024 0.5624 0.0
C183 C 0.11953 0.39948 0.87208 0.0
H184 H 0.14018 0.35192 0.65033 0.0
C185 C 0.13068 0.43901 0.82021 0.0
C186 C 0.14593 0.44737 0.70849 0.0
H187 H 0.10985 0.39478 0.96096 0.0
H188 H 0.1302 0.46417 0.87182 0.0
C189 C 0.14762 0.41451 0.64712 0.0
C190 C 0.73433 0.89917 0.78287 0.0
C191 C 0.74544 0.88062 0.8691 0.0
H192 H 0.69652 0.88797 0.63703 0.0
C193 C 0.72748 0.83579 0.87076 0.0
H194 H 0.74817 0.93369 0.77849 0.0
C195 C 0.69928 0.80993 0.78743 0.0
C196 C 0.68773 0.82822 0.70206 0.0
H197 H 0.73579 0.8205 0.93478 0.0
H198 H 0.68589 0.77544 0.79214 0.0
C199 C 0.70532 0.8731 0.70076 0.0
C200 C 0.25652 0.99373 0.66991 0.0
C201 C 0.26416 1.01603 0.7818 0.0
H202 H 0.27118 0.96108 0.54436 0.0
C203 C 0.29502 1.025 0.85054 0.0
H204 H 0.23305 0.98662 0.61447 0.0
C205 C 0.31709 1.01057 0.80978 0.0
C206 C 0.30861 0.98683 0.6997 0.0
H207 H 0.30133 1.04161 0.93771 0.0
H208 H 0.33997 1.01653 0.86663 0.0
C209 C 0.2785 0.97936 0.62925 0.0
C210 C 0.40388 0.12331 0.15543 0.0
C211 C 0.41278 0.1475 0.26458 0.0
H212 H 0.37651 0.10805 -0.01789 0.0
C213 C 0.40043 0.17573 0.28156 0.0
H214 H 0.41354 0.10184 0.13894 0.0
C215 C 0.37993 0.18002 0.19063 0.0
C216 C 0.37136 0.15614 0.08108 0.0
H217 H 0.40742 0.19536 0.36386 0.0
H218 H 0.37031 0.20154 0.20689 0.0
C219 C 0.3834 0.1276 0.06457 0.0
C220 C 0.98533 0.37143 0.25757 0.0
C221 C 0.94799 0.34876 0.23564 0.0
H222 H 1.03549 0.38316 0.19811 0.0
C223 C 0.93273 0.32192 0.13099 0.0
H224 H 0.99785 0.39302 0.33616 0.0
C225 C 0.95416 0.31731 0.05061 0.0
C226 C 0.99138 0.33909 0.07345 0.0
H227 H 0.90406 0.30459 0.11037 0.0
H228 H 0.9414 0.29556 -0.02758 0.0
C229 C 1.00685 0.36642 0.17739 0.0
C230 C 0.80605 0.82716 0.19068 0.0
C231 C 0.836 0.83165 0.13517 0.0
H232 H 0.75974 0.78618 0.28797 0.0
C233 C 0.84173 0.79739 0.13367 0.0
H234 H 0.80179 0.85371 0.1975 0.0
C235 C 0.81826 0.75944 0.18625 0.0
C236 C 0.78862 0.75482 0.24378 0.0
H237 H 0.86501 0.80033 0.09395 0.0
H238 H 0.82381 0.73381 0.18337 0.0
C239 C 0.78242 0.78889 0.24463 0.0
C240 C 1.02012 0.49545 0.44267 0.0
C241 C 1.0383 0.52325 0.54407 0.0
H242 H 0.97224 0.46371 0.3261 0.0
C243 C 1.02045 0.53927 0.60864 0.0
H244 H 1.03325 0.48299 0.38986 0.0
C245 C 0.98515 0.52738 0.5735 0.0
C246 C 0.96691 0.49943 0.4724 0.0
H247 H 1.03373 0.56091 0.6867 0.0
H248 H 0.97208 0.54 0.6259 0.0
C249 C 0.98503 0.4841 0.40656 0.0
C250 C 0.55607 0.59847 0.40213 0.0
C251 C 0.57068 0.63489 0.48146 0.0
H252 H 0.56388 0.55269 0.30774 0.0
C253 C 0.60712 0.65499 0.5205 0.0
H254 H 0.52826 0.58214 0.3692 0.0
C255 C 0.62813 0.63839 0.4819 0.0
C256 C 0.61272 0.60101 0.40559 0.0
H257 H 0.61915 0.68278 0.58225 0.0
H258 H 0.65579 0.65359 0.5157 0.0
C259 C 0.57661 0.58163 0.3659 0.0
C260 C 0.52372 0.06547 0.60699 0.0
C261 C 0.51354 0.08679 0.52732 0.0
H262 H 0.5085 1.00835 0.69797 0.0
C263 C 0.47712 0.0659 0.48621 0.0
H264 H 0.5513 0.08032 0.64153 0.0
C265 C 0.45195 1.02423 0.52123 0.0
C266 C 0.4629 1.00253 0.59703 0.0
H267 H 0.46824 0.08117 0.42481 0.0
H268 H 0.42453 1.00827 0.48431 0.0
C269 C 0.49899 1.02411 0.64026 0.0
C270 C 0.21886 0.20506 -0.02119 0.0
C271 C 0.21076 0.17121 0.89604 0.0
H272 H 0.20172 0.24532 0.05664 0.0
C273 C 0.17851 0.15236 0.82513 0.0
H274 H 0.24353 0.22007 0.03481 0.0
C275 C 0.15423 0.16607 0.83921 0.0
C276 C 0.16198 0.19953 0.9232 0.0
H277 H 0.1721 0.1271 0.75819 0.0
H278 H 0.12953 0.15074 0.78335 0.0
C279 C 0.19478 0.2192 -0.00804 0.0
C280 C 0.93327 0.09692 0.09533 0.0
C281 C 0.93439 0.06383 0.03386 0.0
H282 H 0.95585 0.16436 0.1231 0.0
C283 C 0.96319 0.07467 0.96092 0.0
H284 H 0.91182 0.08978 0.15302 0.0
C285 C 0.98898 0.11801 0.94409 0.0
C286 C 0.98614 0.15088 -0.00012 0.0
H287 H 0.96482 0.04975 0.91253 0.0
H288 H 1.00956 0.12562 0.88215 0.0
C289 C 0.95869 0.13972 0.07836 0.0
C290 C 1.03163 0.94904 -0.02752 0.0
C291 C 1.02205 0.97975 -0.00778 0.0
H292 H 0.07343 0.938 0.92715 0.0
C293 C 0.04691 1.02315 -0.02123 0.0
H294 H 1.01255 0.91531 -0.01804 0.0
C295 C 0.0809 1.03576 0.94386 0.0
C296 C 0.09069 1.00523 0.92503 0.0
H297 H 1.03984 1.04723 -0.00754 0.0
H298 H 0.09971 0.06954 0.93367 0.0
C299 C 0.06611 0.96185 0.94064 0.0
C300 C 0.74922 0.51971 0.33424 0.0
C301 C 0.76398 0.55958 0.39787 0.0
H302 H 0.75597 0.46729 0.28331 0.0
C303 C 0.79748 0.57706 0.46057 0.0
H304 H 0.72355 0.5056 0.28453 0.0
C305 C 0.81622 0.55571 0.45785 0.0
C306 C 0.80168 0.51604 0.39392 0.0
H307 H 0.8096 0.60774 0.5103 0.0
H308 H 0.84217 0.57035 0.50606 0.0
C309 C 0.7678 0.4979 0.33318 0.0
C310 C 0.63269 0.38449 0.43695 0.0
C311 C 0.62027 0.40345 0.35626 0.0
H312 H 0.62187 0.32612 0.51575 0.0
C313 C 0.58891 0.37699 0.28408 0.0
H314 H 0.65688 0.40423 0.4936 0.0
C315 C 0.56913 0.3329 0.29703 0.0
C316 C 0.58047 0.314 0.38101 0.0
H317 H 0.57873 0.39054 0.22073 0.0
H318 H 0.54416 0.31364 0.24361 0.0
C319 C 0.61294 0.33987 0.44888 0.0
C320 C 0.71938 0.25877 0.39453 0.0
C321 C 0.70166 0.27965 0.42966 0.0
H322 H 0.76915 0.26458 0.35742 0.0
C323 C 0.72189 0.32447 0.45343 0.0
H324 H 0.70463 0.22438 0.37539 0.0
C325 C 0.75915 0.34783 0.44179 0.0
C326 C 0.77675 0.32665 0.40716 0.0
H327 H 0.7089 0.34147 0.48054 0.0
H328 H 0.77416 0.38211 0.46188 0.0
C329 C 0.7564 0.2819 0.38418 0.0
C330 C 0.48028 0.7693 0.53728 0.0
C331 C 0.50898 0.78441 0.62402 0.0
H332 H 0.43329 0.76975 0.4771 0.0
C333 C 0.51093 0.81044 0.72182 0.0
H334 H 0.47806 0.74906 0.46095 0.0
C335 C 0.48514 0.82188 0.73159 0.0
C336 C 0.45701 0.80781 0.64324 0.0
H337 H 0.53258 0.82232 0.79031 0.0
H338 H 0.48785 0.84278 0.80688 0.0
C339 C 0.45455 0.78093 0.54673 0.0
C340 C 0.26607 0.70329 0.60542 0.0
C341 C 0.23326 0.68992 0.65788 0.0
H342 H 0.31752 0.75691 0.56201 0.0
C343 C 0.22897 0.72158 0.7143 0.0
H344 H 0.2704 0.6798 0.56126 0.0
C345 C 0.25551 0.76509 0.71408 0.0
C346 C 0.28781 0.77899 0.65892 0.0
H347 H 0.20443 0.71286 0.75646 0.0
H348 H 0.25027 0.78824 0.75553 0.0
C349 C 0.2932 0.74744 0.60648 0.0
C350 C 0.38963 0.66077 0.67322 0.0
C351 C 0.39818 0.63614 0.59893 0.0
H352 H 0.348 0.6682 0.74168 0.0
C353 C 0.37064 0.59924 0.53612 0.0
H354 H 0.41052 0.68959 0.72222 0.0
C355 C 0.33502 0.58721 0.547 0.0
C356 C 0.32644 0.61186 0.62104 0.0
H357 H 0.37661 0.57986 0.47815 0.0
H358 H 0.31419 0.55861 0.49714 0.0
C359 C 0.35398 0.64867 0.68439 0.0
C360 C 0.05045 0.27994 0.49913 0.0
C361 C 0.05957 0.2543 0.56359 0.0
H362 H 0.04721 0.30339 0.33051 0.0
C363 C 0.07291 0.23187 0.50209 0.0
H364 H 1.04048 0.29802 0.54332 0.0
C365 C 0.07711 0.2352 0.37894 0.0
C366 C 0.06797 0.26092 0.31481 0.0
H367 H 0.08051 0.21207 0.54913 0.0
H368 H 0.0872 0.21737 0.33406 0.0
C369 C 0.05457 0.28318 0.37661 0.0
C370 C 0.852 0.92876 0.57727 0.0
C371 C 0.88311 0.93823 0.64547 0.0
H372 H 0.82836 0.9269 0.40562 0.0
C373 C 0.91527 0.95379 0.58856 0.0
H374 H 0.82676 0.91683 0.61821 0.0
C375 C 0.91628 0.96007 0.46603 0.0
C376 C 0.88512 0.95074 0.39813 0.0
H377 H 0.93979 0.96184 0.63884 0.0
H378 H 0.9414 0.97181 0.42454 0.0
C379 C 0.85298 0.93491 0.45521 0.0
C380 C 0.20489 0.07221 0.45876 0.0
C381 C 0.23775 0.09278 0.52716 0.0
H382 H 0.17833 0.05195 0.28419 0.0
C383 C 0.26961 0.10807 0.469 0.0
H384 H 0.17979 0.05965 0.5009 0.0
C385 C 0.26871 0.10339 0.34506 0.0
C386 C 0.23591 0.08317 0.2765 0.0
H387 H 0.29534 0.12368 0.51899 0.0
H388 H 0.29386 0.11598 0.30307 0.0
C389 C 0.20398 0.06734 0.33459 0.0
C390 C 0.67578 0.54933 0.7894 0.0
C391 C 0.68973 0.5886 0.73444 0.0
H392 H 0.66313 0.51684 0.95183 0.0
C393 C 0.70093 0.62607 0.80606 0.0
H394 H 0.66668 0.51967 0.73733 0.0
C395 C 0.69874 0.62432 0.93009 0.0
C396 C 0.6853 0.58506 -0.01514 0.0
H397 H 0.71159 0.65677 0.76668 0.0
H398 H 0.70808 0.6539 -0.01702 0.0
C399 C 0.6736 0.54759 0.91288 0.0
C400 C 0.51756 0.18045 0.86279 0.0
C401 C 0.5497 0.20134 0.80502 0.0
H402 H 0.49273 0.16183 0.02798 0.0
C403 C 0.58241 0.2197 0.87381 0.0
H404 H 0.49191 0.16573 0.81265 0.0
C405 C 0.58293 0.21721 -0.00227 0.0
C406 C 0.55077 0.19646 0.05543 0.0
H407 H 0.60772 0.23584 0.83216 0.0
H408 H 0.60854 0.23192 0.04816 0.0
C409 C 0.51809 0.17809 -0.01345 0.0
C410 C 0.89118 0.40643 0.83035 0.0
C411 C 0.87212 0.42034 0.76179 0.0
H412 H 0.9066 0.39772 0.00465 0.0
C413 C 0.85392 0.43734 0.82033 0.0
H414 H 0.90563 0.39344 0.78829 0.0
C415 C 0.8546 0.44012 0.9448 0.0
C416 C 0.87333 0.42574 0.01323 0.0
H417 H 0.8391 0.44868 0.77024 0.0
H418 H 0.84009 0.45298 -0.01289 0.0
C419 C 0.89172 0.409 0.95466 0.0
C420 C 0.36582 0.91498 0.19818 0.0
C421 C 0.3739 0.88804 0.26091 0.0
H422 H 0.36052 0.937 0.02891 0.0
C423 C 0.38293 0.86177 0.19657 0.0
H424 H 0.35885 0.93573 0.24471 0.0
C425 C 0.38398 0.86256 0.07238 0.0
C426 C 0.37602 0.88963 0.00978 0.0
H427 H 0.38935 0.84063 0.24195 0.0
H428 H 0.39106 0.84194 0.02568 0.0
C429 C 0.36687 0.91577 0.07411 0.0
C430 C 0.21394 0.5805 0.07649 0.0
C431 C 0.18226 0.56737 0.00668 0.0
H432 H 0.2384 0.58938 0.25167 0.0
C433 C 0.15006 0.55227 0.06296 0.0
H434 H 0.23915 0.59206 0.03574 0.0
C435 C 0.14961 0.55076 0.18685 0.0
C436 C 0.18132 0.5641 0.25671 0.0
H437 H 0.12514 0.54178 0.01157 0.0
H438 H 0.12441 0.5392 0.22768 0.0
C439 C 0.21345 0.57874 0.2003 0.0
C440 C 0.51319 0.69236 0.12866 0.0
C441 C 0.54578 0.71369 0.19834 0.0
H442 H 0.48738 0.67276 0.95338 0.0
C443 C 0.57805 0.73067 0.14174 0.0
H444 H 0.4878 0.67853 0.16961 0.0
C445 C 0.57777 0.72713 0.01768 0.0
C446 C 0.54519 0.70639 0.94791 0.0
H447 H 0.60359 0.74693 0.19297 0.0
H448 H 0.60316 0.74115 -0.0234 0.0
C449 C 0.5129 0.68868 0.00465 0.0
loop_
_geom_bond_atom_site_label_1
_geom_bond_atom_site_label_2
_geom_bond_distance
_geom_bond_site_symmetry_2
_ccdc_geom_bond_type
Tb0 O3 2.453 . S
Tb0 O4 2.596 1_655 S
Tb0 O5 2.374 . S
Tb0 O13 2.343 1_655 S
Tb0 O15 2.353 1_554 S
Tb0 O17 2.427 1_554 S
Tb0 O18 2.513 . S
C1 O5 1.251 1_455 S
C1 O7 1.263 . S
Tb2 O4 2.343 . S
Tb2 O7 2.353 . S
Tb2 O10 2.427 . S
Tb2 O11 2.513 1_554 S
Tb2 O12 2.453 . S
Tb2 O13 2.596 . S
Tb2 O14 2.374 1_554 S
O3 Tb0 2.453 . S
O3 C19 1.245 . S
O4 Tb0 2.596 1_455 S
O4 Tb2 2.343 . S
O4 C19 1.259 1_455 S
O5 Tb0 2.374 . S
O5 C1 1.251 1_655 S
C6 O10 1.275 . S
C6 O11 1.246 1_554 S
O7 C1 1.263 . S
O7 Tb2 2.353 . S
C8 O12 1.245 . S
C8 O13 1.259 . S
C9 O14 1.250 . S
C9 O15 1.263 1_455 S
O10 Tb2 2.427 . S
O10 C6 1.275 . S
O11 Tb2 2.513 1_556 S
O11 C6 1.246 1_556 S
O12 Tb2 2.453 . S
O12 C8 1.245 . S
O13 Tb0 2.343 1_455 S
O13 Tb2 2.596 . S
O13 C8 1.259 . S
O14 Tb2 2.374 1_556 S
O14 C9 1.250 . S
O15 Tb0 2.353 1_556 S
O15 C9 1.263 1_655 S
C16 O17 1.275 1_554 S
C16 O18 1.246 . S
O17 Tb0 2.427 1_556 S
O17 C16 1.275 1_556 S
O18 Tb0 2.513 . S
O18 C16 1.246 . S
C19 O3 1.245 . S
C19 O4 1.259 1_655 S
Tb20 O23 2.453 . S
Tb20 O24 2.596 . S
Tb20 O25 2.374 1_554 S
Tb20 O33 2.343 . S
Tb20 O35 2.353 . S
Tb20 O37 2.427 . S
Tb20 O38 2.513 1_554 S
C21 O25 1.251 . S
C21 O27 1.263 . S
Tb22 O24 2.343 . S
Tb22 O27 2.353 1_554 S
Tb22 O30 2.427 . S
Tb22 O31 2.513 . S
Tb22 O32 2.453 . S
Tb22 O33 2.596 . S
Tb22 O34 2.374 . S
O23 Tb20 2.453 . S
O23 C39 1.245 . S
O24 Tb20 2.596 . S
O24 Tb22 2.343 . S
O24 C39 1.259 . S
O25 Tb20 2.374 1_556 S
O25 C21 1.251 . S
C26 O30 1.275 . S
C26 O31 1.246 . S
O27 C21 1.263 . S
O27 Tb22 2.353 1_556 S
C28 O32 1.245 . S
C28 O33 1.259 . S
C29 O34 1.250 . S
C29 O35 1.263 . S
O30 Tb22 2.427 . S
O30 C26 1.275 . S
O31 Tb22 2.513 . S
O31 C26 1.246 . S
O32 Tb22 2.453 . S
O32 C28 1.245 . S
O33 Tb20 2.343 . S
O33 Tb22 2.596 . S
O33 C28 1.259 . S
O34 Tb22 2.374 . S
O34 C29 1.250 . S
O35 Tb20 2.353 . S
O35 C29 1.263 . S
C36 O37 1.275 . S
C36 O38 1.246 1_554 S
O37 Tb20 2.427 . S
O37 C36 1.275 . S
O38 Tb20 2.513 1_556 S
O38 C36 1.246 1_556 S
C39 O23 1.245 . S
C39 O24 1.259 . S
Tb40 O43 2.453 . S
Tb40 O44 2.596 . S
Tb40 O45 2.374 . S
Tb40 O53 2.343 1_554 S
Tb40 O55 2.353 1_554 S
Tb40 O57 2.427 1_554 S
Tb40 O58 2.513 . S
C41 O45 1.251 . S
C41 O47 1.263 1_545 S
Tb42 O44 2.343 1_566 S
Tb42 O47 2.353 1_556 S
Tb42 O50 2.427 1_556 S
Tb42 O51 2.513 . S
Tb42 O52 2.453 . S
Tb42 O53 2.596 1_565 S
Tb42 O54 2.374 . S
O43 Tb40 2.453 . S
O43 C59 1.245 . S
O44 Tb40 2.596 . S
O44 Tb42 2.343 1_544 S
O44 C59 1.259 . S
O45 Tb40 2.374 . S
O45 C41 1.251 . S
C46 O50 1.275 1_556 S
C46 O51 1.246 . S
O47 C41 1.263 1_565 S
O47 Tb42 2.353 1_554 S
C48 O52 1.245 . S
C48 O53 1.259 1_565 S
C49 O54 1.250 1_545 S
C49 O55 1.263 . S
O50 Tb42 2.427 1_554 S
O50 C46 1.275 1_554 S
O51 Tb42 2.513 . S
O51 C46 1.246 . S
O52 Tb42 2.453 . S
O52 C48 1.245 . S
O53 Tb40 2.343 1_556 S
O53 Tb42 2.596 1_545 S
O53 C48 1.259 1_545 S
O54 Tb42 2.374 . S
O54 C49 1.250 1_565 S
O55 Tb40 2.353 1_556 S
O55 C49 1.263 . S
C56 O57 1.275 1_554 S
C56 O58 1.246 . S
O57 Tb40 2.427 1_556 S
O57 C56 1.275 1_556 S
O58 Tb40 2.513 . S
O58 C56 1.246 . S
C59 O43 1.245 . S
C59 O44 1.259 . S
Tb60 O63 2.453 . S
Tb60 O64 2.596 . S
Tb60 O65 2.374 . S
Tb60 O73 2.343 . S
Tb60 O75 2.353 . S
Tb60 O77 2.427 . S
Tb60 O78 2.513 . S
C61 O65 1.251 . S
C61 O67 1.263 . S
Tb62 O64 2.343 . S
Tb62 O67 2.353 . S
Tb62 O70 2.427 . S
Tb62 O71 2.513 . S
Tb62 O72 2.453 . S
Tb62 O73 2.596 . S
Tb62 O74 2.374 . S
O63 Tb60 2.453 . S
O63 C79 1.245 . S
O64 Tb60 2.596 . S
O64 Tb62 2.343 . S
O64 C79 1.259 . S
O65 Tb60 2.374 . S
O65 C61 1.251 . S
C66 O70 1.275 . S
C66 O71 1.246 . S
O67 C61 1.263 . S
O67 Tb62 2.353 . S
C68 O72 1.245 . S
C68 O73 1.259 . S
C69 O74 1.250 . S
C69 O75 1.263 . S
O70 Tb62 2.427 . S
O70 C66 1.275 . S
O71 Tb62 2.513 . S
O71 C66 1.246 . S
O72 Tb62 2.453 . S
O72 C68 1.245 . S
O73 Tb60 2.343 . S
O73 Tb62 2.596 . S
O73 C68 1.259 . S
O74 Tb62 2.374 . S
O74 C69 1.250 . S
O75 Tb60 2.353 . S
O75 C69 1.263 . S
C76 O77 1.275 . S
C76 O78 1.246 . S
O77 Tb60 2.427 . S
O77 C76 1.275 . S
O78 Tb60 2.513 . S
O78 C76 1.246 . S
C79 O63 1.245 . S
C79 O64 1.259 . S
Tb80 O83 2.453 . S
Tb80 O84 2.596 . S
Tb80 O85 2.374 . S
Tb80 O93 2.343 . S
Tb80 O95 2.353 . S
Tb80 O97 2.427 . S
Tb80 O98 2.513 . S
C81 O85 1.251 1_556 S
C81 O87 1.263 1_556 S
Tb82 O84 2.343 . S
Tb82 O87 2.353 . S
Tb82 O90 2.427 . S
Tb82 O91 2.513 . S
Tb82 O92 2.453 . S
Tb82 O93 2.596 . S
Tb82 O94 2.374 . S
O83 Tb80 2.453 . S
O83 C99 1.245 . S
O84 Tb80 2.596 . S
O84 Tb82 2.343 . S
O84 C99 1.259 . S
O85 Tb80 2.374 . S
O85 C81 1.251 1_554 S
C86 O90 1.275 . S
C86 O91 1.246 . S
O87 C81 1.263 1_554 S
O87 Tb82 2.353 . S
C88 O92 1.245 . S
C88 O93 1.259 . S
C89 O94 1.250 . S
C89 O95 1.263 . S
O90 Tb82 2.427 . S
O90 C86 1.275 . S
O91 Tb82 2.513 . S
O91 C86 1.246 . S
O92 Tb82 2.453 . S
O92 C88 1.245 . S
O93 Tb80 2.343 . S
O93 Tb82 2.596 . S
O93 C88 1.259 . S
O94 Tb82 2.374 . S
O94 C89 1.250 . S
O95 Tb80 2.353 . S
O95 C89 1.263 . S
C96 O97 1.275 . S
C96 O98 1.246 . S
O97 Tb80 2.427 . S
O97 C96 1.275 . S
O98 Tb80 2.513 . S
O98 C96 1.246 . S
C99 O83 1.245 . S
C99 O84 1.259 . S
Tb100 O103 2.453 . S
Tb100 O104 2.596 . S
Tb100 O105 2.374 . S
Tb100 O113 2.343 . S
Tb100 O115 2.353 . S
Tb100 O117 2.427 . S
Tb100 O118 2.513 . S
C101 O105 1.251 . S
C101 O107 1.263 . S
Tb102 O104 2.343 . S
Tb102 O107 2.353 . S
Tb102 O110 2.427 . S
Tb102 O111 2.513 . S
Tb102 O112 2.453 . S
Tb102 O113 2.596 . S
Tb102 O114 2.374 . S
O103 Tb100 2.453 . S
O103 C119 1.245 . S
O104 Tb100 2.596 . S
O104 Tb102 2.343 . S
O104 C119 1.259 . S
O105 Tb100 2.374 . S
O105 C101 1.251 . S
C106 O110 1.275 . S
C106 O111 1.246 . S
O107 C101 1.263 . S
O107 Tb102 2.353 . S
C108 O112 1.245 . S
C108 O113 1.259 . S
C109 O114 1.250 . S
C109 O115 1.263 . S
O110 Tb102 2.427 . S
O110 C106 1.275 . S
O111 Tb102 2.513 . S
O111 C106 1.246 . S
O112 Tb102 2.453 . S
O112 C108 1.245 . S
O113 Tb100 2.343 . S
O113 Tb102 2.596 . S
O113 C108 1.259 . S
O114 Tb102 2.374 . S
O114 C109 1.250 . S
O115 Tb100 2.353 . S
O115 C109 1.263 . S
C116 O117 1.275 . S
C116 O118 1.246 . S
O117 Tb100 2.427 . S
O117 C116 1.275 . S
O118 Tb100 2.513 . S
O118 C116 1.246 . S
C119 O103 1.245 . S
C119 O104 1.259 . S
Tb120 O123 2.453 . S
Tb120 O124 2.596 . S
Tb120 O125 2.374 . S
Tb120 O133 2.343 . S
Tb120 O135 2.353 . S
Tb120 O137 2.427 . S
Tb120 O138 2.513 . S
C121 O125 1.251 . S
C121 O127 1.263 . S
Tb122 O124 2.343 . S
Tb122 O127 2.353 . S
Tb122 O130 2.427 . S
Tb122 O131 2.513 . S
Tb122 O132 2.453 . S
Tb122 O133 2.596 . S
Tb122 O134 2.374 . S
O123 Tb120 2.453 . S
O123 C139 1.245 . S
O124 Tb120 2.596 . S
O124 Tb122 2.343 . S
O124 C139 1.259 . S
O125 Tb120 2.374 . S
O125 C121 1.251 . S
C126 O130 1.275 . S
C126 O131 1.246 . S
O127 C121 1.263 . S
O127 Tb122 2.353 . S
C128 O132 1.245 . S
C128 O133 1.259 . S
C129 O134 1.250 . S
C129 O135 1.263 . S
O130 Tb122 2.427 . S
O130 C126 1.275 . S
O131 Tb122 2.513 . S
O131 C126 1.246 . S
O132 Tb122 2.453 . S
O132 C128 1.245 . S
O133 Tb120 2.343 . S
O133 Tb122 2.596 . S
O133 C128 1.259 . S
O134 Tb122 2.374 . S
O134 C129 1.250 . S
O135 Tb120 2.353 . S
O135 C129 1.263 . S
C136 O137 1.275 . S
C136 O138 1.246 . S
O137 Tb120 2.427 . S
O137 C136 1.275 . S
O138 Tb120 2.513 . S
O138 C136 1.246 . S
C139 O123 1.245 . S
C139 O124 1.259 . S
Tb140 O143 2.453 . S
Tb140 O144 2.596 . S
Tb140 O145 2.374 . S
Tb140 O153 2.343 . S
Tb140 O155 2.353 . S
Tb140 O157 2.427 . S
Tb140 O158 2.513 . S
C141 O145 1.251 . S
C141 O147 1.263 . S
Tb142 O144 2.343 . S
Tb142 O147 2.353 . S
Tb142 O150 2.427 . S
Tb142 O151 2.513 . S
Tb142 O152 2.453 . S
Tb142 O153 2.596 . S
Tb142 O154 2.374 . S
O143 Tb140 2.453 . S
O143 C159 1.245 . S
O144 Tb140 2.596 . S
O144 Tb142 2.343 . S
O144 C159 1.259 . S
O145 Tb140 2.374 . S
O145 C141 1.251 . S
C146 O150 1.275 . S
C146 O151 1.246 . S
O147 C141 1.263 . S
O147 Tb142 2.353 . S
C148 O152 1.245 . S
C148 O153 1.259 . S
C149 O154 1.250 . S
C149 O155 1.263 . S
O150 Tb142 2.427 . S
O150 C146 1.275 . S
O151 Tb142 2.513 . S
O151 C146 1.246 . S
O152 Tb142 2.453 . S
O152 C148 1.245 . S
O153 Tb140 2.343 . S
O153 Tb142 2.596 . S
O153 C148 1.259 . S
O154 Tb142 2.374 . S
O154 C149 1.250 . S
O155 Tb140 2.353 . S
O155 C149 1.263 . S
C156 O157 1.275 . S
C156 O158 1.246 . S
O157 Tb140 2.427 . S
O157 C156 1.275 . S
O158 Tb140 2.513 . S
O158 C156 1.246 . S
C159 O143 1.245 . S
C159 O144 1.259 . S
Tb160 O163 2.453 . S
Tb160 O164 2.596 . S
Tb160 O165 2.374 . S
Tb160 O173 2.343 . S
Tb160 O175 2.353 . S
Tb160 O177 2.427 . S
Tb160 O178 2.513 . S
C161 O165 1.251 . S
C161 O167 1.263 . S
Tb162 O164 2.343 . S
Tb162 O167 2.353 . S
Tb162 O170 2.427 . S
Tb162 O171 2.513 . S
Tb162 O172 2.453 . S
Tb162 O173 2.596 . S
Tb162 O174 2.374 . S
O163 Tb160 2.453 . S
O163 C179 1.245 . S
O164 Tb160 2.596 . S
O164 Tb162 2.343 . S
O164 C179 1.259 . S
O165 Tb160 2.374 . S
O165 C161 1.251 . S
C166 O170 1.275 . S
C166 O171 1.246 . S
O167 C161 1.263 . S
O167 Tb162 2.353 . S
C168 O172 1.245 . S
C168 O173 1.259 . S
C169 O174 1.250 . S
C169 O175 1.263 . S
O170 Tb162 2.427 . S
O170 C166 1.275 . S
O171 Tb162 2.513 . S
O171 C166 1.246 . S
O172 Tb162 2.453 . S
O172 C168 1.245 . S
O173 Tb160 2.343 . S
O173 Tb162 2.596 . S
O173 C168 1.259 . S
O174 Tb162 2.374 . S
O174 C169 1.250 . S
O175 Tb160 2.353 . S
O175 C169 1.263 . S
C176 O177 1.275 . S
C176 O178 1.246 . S
O177 Tb160 2.427 . S
O177 C176 1.275 . S
O178 Tb160 2.513 . S
O178 C176 1.246 . S
C179 O163 1.245 . S
C179 O164 1.259 . S
C180 C181 1.387 . S
C180 H184 0.950 . S
C180 C189 1.390 . S
C181 C180 1.387 . S
C181 C183 1.387 . S
H182 C189 0.950 . S
C183 C181 1.387 . S
C183 C185 1.390 . S
C183 H187 0.950 . S
H184 C180 0.950 . S
C185 C183 1.390 . S
C185 C186 1.387 . S
C185 H188 0.950 . S
C186 C185 1.387 . S
C186 C189 1.387 . S
H187 C183 0.950 . S
H188 C185 0.950 . S
C189 C180 1.390 . S
C189 H182 0.950 . S
C189 C186 1.387 . S
C190 C191 1.387 . S
C190 H194 0.950 . S
C190 C199 1.390 . S
C191 C190 1.387 . S
C191 C193 1.387 1_556 S
H192 C199 0.950 . S
C193 C191 1.387 1_554 S
C193 C195 1.387 1_554 S
C193 H197 0.954 . S
H194 C190 0.950 . S
C195 C193 1.387 1_556 S
C195 C196 1.387 . S
C195 H198 0.950 . S
C196 C195 1.387 . S
C196 C199 1.387 . S
H197 C193 0.954 . S
H198 C195 0.950 . S
C199 C190 1.390 . S
C199 H192 0.950 . S
C199 C196 1.387 . S
C200 C201 1.387 . S
C200 H204 0.950 . S
C200 C209 1.390 . S
C201 C200 1.387 . S
C201 C203 1.387 . S
H202 C209 0.950 . S
C203 C201 1.387 . S
C203 C205 1.390 . S
C203 H207 0.958 . S
H204 C200 0.950 . S
C205 C203 1.390 . S
C205 C206 1.387 . S
C205 H208 0.950 . S
C206 C205 1.387 . S
C206 C209 1.387 . S
H207 C203 0.958 . S
H208 C205 0.950 . S
C209 C200 1.390 . S
C209 H202 0.950 . S
C209 C206 1.387 . S
C210 C211 1.387 . S
C210 H214 0.950 . S
C210 C219 1.390 . S
C211 C210 1.387 . S
C211 C213 1.387 . S
H212 C219 0.950 . S
C213 C211 1.387 . S
C213 C215 1.390 . S
C213 H217 0.950 . S
H214 C210 0.950 . S
C215 C213 1.390 . S
C215 C216 1.387 . S
C215 H218 0.950 . S
C216 C215 1.387 . S
C216 C219 1.387 . S
H217 C213 0.950 . S
H218 C215 0.950 . S
C219 C210 1.390 . S
C219 H212 0.950 . S
C219 C216 1.387 . S
C220 C221 1.387 . S
C220 H224 0.950 . S
C220 C229 1.390 . S
C221 C220 1.387 . S
C221 C223 1.387 . S
H222 C229 0.950 . S
C223 C221 1.387 . S
C223 C225 1.390 . S
C223 H227 0.950 . S
H224 C220 0.950 . S
C225 C223 1.390 . S
C225 C226 1.387 . S
C225 H228 0.950 . S
C226 C225 1.387 . S
C226 C229 1.387 . S
H227 C223 0.950 . S
H228 C225 0.950 . S
C229 C220 1.390 . S
C229 H222 0.950 . S
C229 C226 1.387 . S
C230 C231 1.387 . S
C230 H234 0.950 . S
C230 C239 1.390 . S
C231 C230 1.387 . S
C231 C233 1.387 . S
H232 C239 0.950 . S
C233 C231 1.387 . S
C233 C235 1.390 . S
C233 H237 0.950 . S
H234 C230 0.950 . S
C235 C233 1.390 . S
C235 C236 1.387 . S
C235 H238 0.950 . S
C236 C235 1.387 . S
C236 C239 1.387 . S
H237 C233 0.950 . S
H238 C235 0.950 . S
C239 C230 1.390 . S
C239 H232 0.950 . S
C239 C236 1.387 . S
C240 C241 1.387 . S
C240 H244 0.950 . S
C240 C249 1.390 . S
C241 C240 1.387 . S
C241 C243 1.387 . S
H242 C249 0.950 . S
C243 C241 1.387 . S
C243 C245 1.390 . S
C243 H247 0.950 1_655 S
H244 C240 0.950 . S
C245 C243 1.390 . S
C245 C246 1.387 . S
C245 H248 0.950 . S
C246 C245 1.387 . S
C246 C249 1.387 . S
H247 C243 0.950 1_455 S
H248 C245 0.950 . S
C249 C240 1.390 . S
C249 H242 0.950 . S
C249 C246 1.387 . S
C250 C251 1.387 . S
C250 H254 0.950 . S
C250 C259 1.390 . S
C251 C250 1.387 . S
C251 C253 1.387 . S
H252 C259 0.950 . S
C253 C251 1.387 . S
C253 C255 1.390 . S
C253 H257 0.950 . S
H254 C250 0.950 . S
C255 C253 1.390 . S
C255 C256 1.387 . S
C255 H258 0.950 . S
C256 C255 1.387 . S
C256 C259 1.387 . S
H257 C253 0.950 . S
H258 C255 0.950 . S
C259 C250 1.390 . S
C259 H252 0.950 . S
C259 C256 1.387 . S
C260 C261 1.387 . S
C260 H264 0.950 . S
C260 C269 1.390 1_545 S
C261 C260 1.387 . S
C261 C263 1.387 . S
H262 C269 0.950 . S
C263 C261 1.387 . S
C263 C265 1.390 . S
C263 H267 0.950 . S
H264 C260 0.950 . S
C265 C263 1.390 . S
C265 C266 1.387 1_545 S
C265 H268 0.950 . S
C266 C265 1.387 1_565 S
C266 C269 1.387 . S
H267 C263 0.950 . S
H268 C265 0.950 . S
C269 C260 1.390 1_565 S
C269 H262 0.950 . S
C269 C266 1.387 . S
C270 C271 1.387 . S
C270 H274 0.950 . S
C270 C279 1.390 . S
C271 C270 1.387 . S
C271 C273 1.387 1_554 S
H272 C279 0.950 . S
C273 C271 1.387 1_556 S
C273 C275 1.390 . S
C273 H277 0.950 . S
H274 C270 0.950 . S
C275 C273 1.390 . S
C275 C276 1.387 1_556 S
C275 H278 0.950 . S
C276 C275 1.387 1_554 S
C276 C279 1.387 . S
H277 C273 0.950 . S
H278 C275 0.950 . S
C279 C270 1.390 . S
C279 H272 0.950 . S
C279 C276 1.387 . S
C280 C281 1.397 . S
C280 H284 0.950 . S
C280 C289 1.390 . S
C281 C280 1.397 . S
C281 C283 1.395 1_554 S
H282 C289 0.950 . S
C283 C281 1.395 1_556 S
C283 C285 1.390 . S
C283 H287 0.950 . S
H284 C280 0.950 . S
C285 C283 1.390 . S
C285 C286 1.387 1_556 S
C285 H288 0.950 . S
C286 C285 1.387 1_554 S
C286 C289 1.387 . S
H287 C283 0.950 . S
H288 C285 0.950 . S
C289 C280 1.390 . S
C289 H282 0.950 . S
C289 C286 1.387 . S
C290 C291 1.387 1_556 S
C290 H294 0.950 . S
C290 C299 1.390 1_655 S
C291 C290 1.387 1_554 S
C291 C293 1.387 1_655 S
H292 C299 0.950 . S
C293 C291 1.387 1_455 S
C293 C295 1.390 . S
C293 H297 0.950 . S
H294 C290 0.950 . S
C295 C293 1.390 . S
C295 C296 1.387 1_554 S
C295 H298 0.950 1_565 S
C296 C295 1.387 1_556 S
C296 C299 1.387 . S
H297 C293 0.950 . S
H298 C295 0.950 1_545 S
C299 C290 1.390 1_455 S
C299 H292 0.950 . S
C299 C296 1.387 . S
C300 C301 1.387 . S
C300 H304 0.950 . S
C300 C309 1.390 . S
C301 C300 1.387 . S
C301 C303 1.387 . S
H302 C309 0.950 . S
C303 C301 1.387 . S
C303 C305 1.390 . S
C303 H307 0.950 . S
H304 C300 0.950 . S
C305 C303 1.390 . S
C305 C306 1.387 . S
C305 H308 0.950 . S
C306 C305 1.387 . S
C306 C309 1.387 . S
H307 C303 0.950 . S
H308 C305 0.950 . S
C309 C300 1.390 . S
C309 H302 0.950 . S
C309 C306 1.387 . S
C310 C311 1.387 . S
C310 H314 0.950 . S
C310 C319 1.390 . S
C311 C310 1.387 . S
C311 C313 1.387 . S
H312 C319 0.950 . S
C313 C311 1.387 . S
C313 C315 1.390 . S
C313 H317 0.950 . S
H314 C310 0.950 . S
C315 C313 1.390 . S
C315 C316 1.387 . S
C315 H318 0.950 . S
C316 C315 1.387 . S
C316 C319 1.387 . S
H317 C313 0.950 . S
H318 C315 0.950 . S
C319 C310 1.390 . S
C319 H312 0.950 . S
C319 C316 1.387 . S
C320 C321 1.387 . S
C320 H324 0.950 . S
C320 C329 1.390 . S
C321 C320 1.387 . S
C321 C323 1.387 . S
H322 C329 0.950 . S
C323 C321 1.387 . S
C323 C325 1.390 . S
C323 H327 0.950 . S
H324 C320 0.950 . S
C325 C323 1.390 . S
C325 C326 1.387 . S
C325 H328 0.950 . S
C326 C325 1.387 . S
C326 C329 1.387 . S
H327 C323 0.950 . S
H328 C325 0.950 . S
C329 C320 1.390 . S
C329 H322 0.950 . S
C329 C326 1.387 . S
C330 C331 1.387 . S
C330 H334 0.950 . S
C330 C339 1.390 . S
C331 C330 1.387 . S
C331 C333 1.387 . S
H332 C339 0.950 . S
C333 C331 1.387 . S
C333 C335 1.390 . S
C333 H337 0.950 . S
H334 C330 0.950 . S
C335 C333 1.390 . S
C335 C336 1.387 . S
C335 H338 0.950 . S
C336 C335 1.387 . S
C336 C339 1.387 . S
H337 C333 0.950 . S
H338 C335 0.950 . S
C339 C330 1.390 . S
C339 H332 0.950 . S
C339 C336 1.387 . S
C340 C341 1.387 . S
C340 H344 0.950 . S
C340 C349 1.390 . S
C341 C340 1.387 . S
C341 C343 1.387 . S
H342 C349 0.950 . S
C343 C341 1.387 . S
C343 C345 1.390 . S
C343 H347 0.950 . S
H344 C340 0.950 . S
C345 C343 1.390 . S
C345 C346 1.387 . S
C345 H348 0.950 . S
C346 C345 1.387 . S
C346 C349 1.387 . S
H347 C343 0.950 . S
H348 C345 0.950 . S
C349 C340 1.390 . S
C349 H342 0.950 . S
C349 C346 1.387 . S
C350 C351 1.387 . S
C350 H354 0.950 . S
C350 C359 1.390 . S
C351 C350 1.387 . S
C351 C353 1.387 . S
H352 C359 0.950 . S
C353 C351 1.387 . S
C353 C355 1.390 . S
C353 H357 0.950 . S
H354 C350 0.950 . S
C355 C353 1.390 . S
C355 C356 1.387 . S
C355 H358 0.950 . S
C356 C355 1.387 . S
C356 C359 1.387 . S
H357 C353 0.950 . S
H358 C355 0.950 . S
C359 C350 1.390 . S
C359 H352 0.950 . S
C359 C356 1.387 . S
C360 C361 1.387 . S
C360 H364 0.950 . S
C360 C369 1.390 . S
C361 C360 1.387 . S
C361 C363 1.387 1_455 S
H362 C369 0.950 . S
C363 C361 1.387 1_655 S
C363 C365 1.390 . S
C363 H367 0.950 . S
H364 C360 0.950 . S
C365 C363 1.390 . S
C365 C366 1.387 1_655 S
C365 H368 0.950 . S
C366 C365 1.387 1_455 S
C366 C369 1.387 . S
H367 C363 0.950 . S
H368 C365 0.950 . S
C369 C360 1.390 . S
C369 H362 0.950 . S
C369 C366 1.387 . S
C370 C371 1.387 . S
C370 H374 0.950 . S
C370 C379 1.390 . S
C371 C370 1.387 . S
C371 C373 1.387 . S
H372 C379 0.950 . S
C373 C371 1.387 . S
C373 C375 1.390 . S
C373 H377 0.950 . S
H374 C370 0.950 . S
C375 C373 1.390 . S
C375 C376 1.387 . S
C375 H378 0.950 . S
C376 C375 1.387 . S
C376 C379 1.387 . S
H377 C373 0.950 . S
H378 C375 0.950 . S
C379 C370 1.390 . S
C379 H372 0.950 . S
C379 C376 1.387 . S
C380 C381 1.387 1_565 S
C380 H384 0.950 . S
C380 C389 1.390 . S
C381 C380 1.387 1_545 S
C381 C383 1.387 . S
H382 C389 0.950 . S
C383 C381 1.387 . S
C383 C385 1.390 . S
C383 H387 0.950 . S
H384 C380 0.950 . S
C385 C383 1.390 . S
C385 C386 1.387 . S
C385 H388 0.950 . S
C386 C385 1.387 . S
C386 C389 1.387 1_545 S
H387 C383 0.950 . S
H388 C385 0.950 . S
C389 C380 1.390 . S
C389 H382 0.950 . S
C389 C386 1.387 1_565 S
C390 C391 1.387 . S
C390 H394 0.950 . S
C390 C399 1.390 . S
C391 C390 1.387 . S
C391 C393 1.387 . S
H392 C399 0.950 . S
C393 C391 1.387 . S
C393 C395 1.390 . S
C393 H397 0.950 . S
H394 C390 0.950 . S
C395 C393 1.390 . S
C395 C396 1.387 . S
C395 H398 0.950 . S
C396 C395 1.387 . S
C396 C399 1.387 . S
H397 C393 0.950 . S
H398 C395 0.950 . S
C399 C390 1.390 . S
C399 H392 0.950 . S
C399 C396 1.387 . S
C400 C401 1.387 . S
C400 H404 0.950 . S
C400 C409 1.390 . S
C401 C400 1.387 . S
C401 C403 1.387 . S
H402 C409 0.950 . S
C403 C401 1.387 . S
C403 C405 1.390 . S
C403 H407 0.950 . S
H404 C400 0.950 . S
C405 C403 1.390 . S
C405 C406 1.387 . S
C405 H408 0.950 . S
C406 C405 1.387 . S
C406 C409 1.387 . S
H407 C403 0.950 . S
H408 C405 0.950 . S
C409 C400 1.390 . S
C409 H402 0.950 . S
C409 C406 1.387 . S
C410 C411 1.387 . S
C410 H414 0.950 . S
C410 C419 1.390 . S
C411 C410 1.387 . S
C411 C413 1.387 . S
H412 C419 0.950 . S
C413 C411 1.387 . S
C413 C415 1.390 . S
C413 H417 0.950 . S
H414 C410 0.950 . S
C415 C413 1.390 . S
C415 C416 1.387 . S
C415 H418 0.950 . S
C416 C415 1.387 . S
C416 C419 1.387 . S
H417 C413 0.950 . S
H418 C415 0.950 . S
C419 C410 1.390 . S
C419 H412 0.950 . S
C419 C416 1.387 . S
C420 C421 1.387 . S
C420 H424 0.950 . S
C420 C429 1.390 . S
C421 C420 1.387 . S
C421 C423 1.387 . S
H422 C429 0.950 . S
C423 C421 1.387 . S
C423 C425 1.390 . S
C423 H427 0.950 . S
H424 C420 0.950 . S
C425 C423 1.390 . S
C425 C426 1.387 . S
C425 H428 0.950 . S
C426 C425 1.387 . S
C426 C429 1.387 . S
H427 C423 0.950 . S
H428 C425 0.950 . S
C429 C420 1.390 . S
C429 H422 0.950 . S
C429 C426 1.387 . S
C430 C431 1.387 . S
C430 H434 0.950 . S
C430 C439 1.390 . S
C431 C430 1.387 . S
C431 C433 1.387 . S
H432 C439 0.950 . S
C433 C431 1.387 . S
C433 C435 1.390 . S
C433 H437 0.950 . S
H434 C430 0.950 . S
C435 C433 1.390 . S
C435 C436 1.387 . S
C435 H438 0.950 . S
C436 C435 1.387 . S
C436 C439 1.387 . S
H437 C433 0.950 . S
H438 C435 0.950 . S
C439 C430 1.390 . S
C439 H432 0.950 . S
C439 C436 1.387 . S
C440 C441 1.387 . S
C440 H444 0.950 . S
C440 C449 1.390 . S
C441 C440 1.387 . S
C441 C443 1.387 . S
H442 C449 0.950 . S
C443 C441 1.387 . S
C443 C445 1.390 . S
C443 H447 0.950 . S
H444 C440 0.950 . S
C445 C443 1.390 . S
C445 C446 1.387 . S
C445 H448 0.950 . S
C446 C445 1.387 . S
C446 C449 1.387 . S
H447 C443 0.950 . S
H448 C445 0.950 . S
C449 C440 1.390 . S
C449 H442 0.950 . S
C449 C446 1.387 . S
C181 C8 2.110 1_556 S
C186 C148 2.028 . S
C191 C36 1.626 1_556 S
C196 C176 1.576 . S
C201 C48 1.934 . S
C206 C136 1.770 . S
C211 C96 1.270 . S
C216 C56 1.348 . S
C221 C116 1.521 . S
C226 C16 1.451 . S
C231 C28 1.818 . S
C236 C76 1.641 . S
C241 C156 1.967 1_655 S
C246 C108 2.107 . S
C251 C168 2.207 . S
C256 C68 2.123 . S
C261 C88 2.421 . S
C266 C128 2.323 . S
C271 C59 1.580 . S
C276 C6 1.576 . S
C281 C39 1.720 1_545 S
C286 C19 1.637 . S
C291 C26 1.286 . S
C296 C46 1.344 . S
C301 C79 1.523 . S
C306 C106 1.639 . S
C311 C66 1.650 . S
C316 C99 1.502 . S
C321 C86 1.710 . S
C326 C119 1.561 . S
C331 C179 1.642 . S
C336 C126 1.674 . S
C341 C159 2.018 . S
C346 C139 1.927 . S
C351 C166 1.538 . S
C356 C146 1.481 . S
C361 C9 1.197 . S
C366 C1 1.197 . S
C371 C21 1.179 . S
C376 C29 1.179 . S
C381 C49 1.178 . S
C386 C41 1.178 . S
C391 C69 1.207 . S
C396 C61 1.207 1_556 S
C401 C89 1.180 . S
C406 C81 1.180 . S
C411 C109 1.205 . S
C416 C101 1.205 1_556 S
C421 C129 1.193 . S
C426 C121 1.193 1_554 S
C431 C149 1.186 1_554 S
C436 C141 1.186 . S
C441 C169 1.189 . S
C446 C161 1.189 1_554 S
