# Generated by pormake.
# Topology bcg, (8)-cn, num edge types: 1
# Building blocks:
#     Node 0, Type 0, BuildingBlock: EYACOX_clean_sbu_0, # of connection points: 8
#     Node 1, Type 0, BuildingBlock: EYACOX_clean_sbu_0, # of connection points: 8
#     Node 2, Type 0, BuildingBlock: EYACOX_clean_sbu_0, # of connection points: 8
#     Node 3, Type 0, BuildingBlock: EYACOX_clean_sbu_0, # of connection points: 8
#     Edge 4, Type (0, 0), BuildingBlock: MIFKUJ_clean_linker_0, # of connection points: 2
#     Edge 5, Type (0, 0), BuildingBlock: MIFKUJ_clean_linker_0, # of connection points: 2
#     Edge 6, Type (0, 0), BuildingBlock: MIFKUJ_clean_linker_0, # of connection points: 2
#     Edge 7, Type (0, 0), BuildingBlock: MIFKUJ_clean_linker_0, # of connection points: 2
#     Edge 8, Type (0, 0), BuildingBlock: MIFKUJ_clean_linker_0, # of connection points: 2
#     Edge 9, Type (0, 0), BuildingBlock: MIFKUJ_clean_linker_0, # of connection points: 2
#     Edge 10, Type (0, 0), BuildingBlock: MIFKUJ_clean_linker_0, # of connection points: 2
#     Edge 11, Type (0, 0), BuildingBlock: MIFKUJ_clean_linker_0, # of connection points: 2
#     Edge 12, Type (0, 0), BuildingBlock: MIFKUJ_clean_linker_0, # of connection points: 2
#     Edge 13, Type (0, 0), BuildingBlock: MIFKUJ_clean_linker_0, # of connection points: 2
#     Edge 14, Type (0, 0), BuildingBlock: MIFKUJ_clean_linker_0, # of connection points: 2
#     Edge 15, Type (0, 0), BuildingBlock: MIFKUJ_clean_linker_0, # of connection points: 2
#     Edge 16, Type (0, 0), BuildingBlock: MIFKUJ_clean_linker_0, # of connection points: 2
#     Edge 17, Type (0, 0), BuildingBlock: MIFKUJ_clean_linker_0, # of connection points: 2
#     Edge 18, Type (0, 0), BuildingBlock: MIFKUJ_clean_linker_0, # of connection points: 2
#     Edge 19, Type (0, 0), BuildingBlock: MIFKUJ_clean_linker_0, # of connection points: 2
# Relax obj value: 0.090
# Max RMSD: 0.165
# Mean RMSD: 0.165
data_MOF--net-bcg--node1-EYACOX_clean_sbu_0--edge1-MIFKUJ_clean_linker_0
_symmetry_space_group_name_H-M    P1
_symmetry_Int_Tables_number       1
_symmetry_cell_setting            triclinic
loop_
_symmetry_equiv_pos_as_xyz
'x, y, z'
_cell_length_a     27.021246
_cell_length_b     27.350233
_cell_length_c     40.85864
_cell_angle_alpha  90.03953
_cell_angle_beta   120.0603
_cell_angle_gamma 90.032126
loop_
_atom_site_label
_atom_site_type_symbol
_atom_site_fract_x
_atom_site_fract_y
_atom_site_fract_z
_atom_type_partial_charge
Eu0 Eu 0.30052 0.18156 0.96204 0.0
Eu1 Eu 0.21982 0.23251 -0.00111 0.0
O2 O 0.30533 0.16915 0.91074 0.0
O3 O 0.37529 0.1457 0.96467 0.0
O4 O 0.19333 0.15433 0.98628 0.0
O5 O 0.27297 0.1192 0.98733 0.0
O6 O 0.36067 0.21936 0.01709 0.0
O7 O 0.30266 0.19646 0.03868 0.0
C8 C 0.39748 0.17008 0.91653 0.0
C9 C 0.47055 0.20845 0.89246 0.0
C10 C 0.47981 0.22011 0.92836 0.0
C11 C 0.44341 0.20102 0.94053 0.0
C12 C 0.42648 0.17721 0.86824 0.0
C13 C 0.38988 0.15758 0.88041 0.0
C14 C 0.35692 0.15119 0.92849 0.0
C15 C 0.22503 0.1163 0.98895 0.0
O16 O 0.20457 0.22982 0.04699 0.0
O17 O 0.16633 0.2874 0.0053 0.0
C18 C 0.35038 0.21652 0.04506 0.0
O19 O 0.27446 0.29195 -0.00558 0.0
O20 O 0.28083 0.2606 0.94452 0.0
O21 O 0.16044 0.22697 0.93586 0.0
O22 O 0.20797 0.16604 0.92283 0.0
C23 C 0.12121 0.26911 0.04224 0.0
C24 C 0.08176 0.26046 0.08489 0.0
C25 C 0.128 0.25602 0.07806 0.0
C26 C 0.03071 0.28067 0.05665 0.0
C27 C 0.02265 0.29291 0.02125 0.0
C28 C 0.0675 0.28677 0.01368 0.0
C29 C 0.17143 0.26817 0.03616 0.0
C30 C 0.28718 0.29685 0.96744 0.0
C31 C 0.16235 0.1926 0.91381 0.0
H32 H 0.49954 0.22284 0.88365 0.0
H33 H 0.4508 0.21015 0.96841 0.0
H34 H 0.35548 0.13329 0.86186 0.0
H35 H 0.16859 0.24202 0.10017 0.0
H36 H 0.99539 0.28589 0.06187 0.0
H37 H 0.06072 0.29637 0.98601 0.0
Eu38 Eu 0.79407 0.69805 0.98145 0.0
Eu39 Eu 0.73932 0.75755 0.03158 0.0
O40 O 0.80409 0.70125 0.93143 0.0
O41 O 0.83935 0.64009 0.96972 0.0
O42 O 0.6754 0.70343 0.99098 0.0
O43 O 0.73171 0.64554 0.98447 0.0
O44 O 0.85423 0.68485 0.04366 0.0
O45 O 0.78606 0.68897 0.06128 0.0
C46 C 0.8871 0.66429 0.9358 0.0
C47 C 0.98366 0.66741 0.92687 0.0
C48 C 0.99071 0.66962 0.96314 0.0
C49 C 0.94254 0.66832 0.96779 0.0
C50 C 0.92966 0.66443 0.89474 0.0
C51 C 0.88103 0.66279 0.89914 0.0
C52 C 0.83524 0.66186 0.93995 0.0
C53 C 0.68524 0.65804 0.9853 0.0
O54 O 0.73747 0.76945 0.08445 0.0
O55 O 0.67089 0.79968 0.03202 0.0
C56 C 0.83762 0.67705 0.06847 0.0
O57 O 0.82317 0.79747 0.04925 0.0
O58 O 0.84641 0.76557 0.00565 0.0
O59 O 0.72245 0.80514 0.98218 0.0
O60 O 0.71585 0.7423 0.94276 0.0
C61 C 0.64325 0.77542 0.07712 0.0
C62 C 0.60944 0.76831 0.12299 0.0
C63 C 0.65207 0.78231 0.11428 0.0
C64 C 0.55864 0.74807 0.09456 0.0
C65 C 0.54799 0.74241 0.05769 0.0
C66 C 0.5901 0.75603 0.04878 0.0
C67 C 0.68783 0.79133 0.06757 0.0
C68 C 0.8553 0.7957 0.03319 0.0
C69 C 0.70684 0.78793 0.9484 0.0
H70 H 0.02111 0.66898 0.92357 0.0
H71 H 0.94817 0.67061 -0.00407 0.0
H72 H 0.83886 0.66031 0.87431 0.0
H73 H 0.69148 0.79857 0.13606 0.0
H74 H 0.52522 0.73853 0.10085 0.0
H75 H 0.58109 0.75218 0.01992 0.0
Eu76 Eu 0.25613 0.73118 0.54117 0.0
Eu77 Eu 0.31311 0.79078 0.49364 0.0
O78 O 0.25165 0.72465 0.59318 0.0
O79 O 0.20064 0.67665 0.54633 0.0
O80 O 0.37882 0.73811 0.53428 0.0
O81 O 0.32198 0.67996 0.54034 0.0
O82 O 0.19839 0.71962 0.47835 0.0
O83 O 0.27162 0.71965 0.46593 0.0
C84 C 0.16369 0.69762 0.58736 0.0
C85 C 0.07367 0.71089 0.6022 0.0
C86 C 0.06346 0.71623 0.56539 0.0
C87 C 0.10828 0.70972 0.55775 0.0
C88 C 0.12746 0.69854 0.63203 0.0
C89 C 0.17283 0.69157 0.62464 0.0
C90 C 0.21214 0.69111 0.57992 0.0
C91 C 0.37026 0.69333 0.54205 0.0
O92 O 0.31002 0.80143 0.43916 0.0
O93 O 0.37762 0.83464 0.48979 0.0
C94 C 0.21899 0.70816 0.45628 0.0
O95 O 0.23086 0.83142 0.47791 0.0
O96 O 0.215 0.80524 0.52584 0.0
O97 O 0.33964 0.83478 0.54661 0.0
O98 O 0.33541 0.77174 0.58259 0.0
C99 C 0.40175 0.80833 0.44353 0.0
C100 C 0.43021 0.79445 0.39559 0.0
C101 C 0.38892 0.80952 0.40519 0.0
C102 C 0.48357 0.77886 0.42422 0.0
C103 C 0.49772 0.77905 0.46204 0.0
C104 C 0.45705 0.79354 0.47184 0.0
C105 C 0.35876 0.82464 0.4542 0.0
C106 C 0.20513 0.83534 0.49809 0.0
C107 C 0.35135 0.81608 0.57938 0.0
H108 H 0.03853 0.71566 0.60763 0.0
H109 H 0.10004 0.71409 0.52909 0.0
H110 H 0.21485 0.68189 0.64762 0.0
H111 H 0.34751 0.8222 0.3832 0.0
H112 H 0.51591 0.76857 0.41712 0.0
H113 H 0.46884 0.79371 0.50139 0.0
Eu114 Eu 0.71726 0.24292 0.49531 0.0
Eu115 Eu 0.78385 0.29544 0.4503 0.0
O116 O 0.71131 0.23843 0.54684 0.0
O117 O 0.65832 0.19147 0.49963 0.0
O118 O 0.76247 0.21615 0.43594 0.0
O119 O 0.77579 0.18653 0.4916 0.0
O120 O 0.6522 0.24865 0.4328 0.0
O121 O 0.69097 0.31232 0.41542 0.0
C122 C 0.6213 0.21604 0.5397 0.0
C123 C 0.53067 0.23651 0.55249 0.0
C124 C 0.527 0.25065 0.51853 0.0
C125 C 0.57216 0.24059 0.51195 0.0
C126 C 0.57876 0.21287 0.58091 0.0
C127 C 0.62418 0.20186 0.57422 0.0
C128 C 0.67009 0.20635 0.53322 0.0
C129 C 0.78284 0.18239 0.46213 0.0
O130 O 0.79325 0.29421 0.39988 0.0
O131 O 0.8468 0.34194 0.44671 0.0
C132 C 0.64761 0.28493 0.41014 0.0
O133 O 0.76107 0.35815 0.47741 0.0
O134 O 0.69125 0.32156 0.48691 0.0
O135 O 0.85153 0.26602 0.50594 0.0
O136 O 0.80062 0.27876 0.53616 0.0
C137 C 0.88787 0.30911 0.41102 0.0
C138 C 0.92963 0.28327 0.37221 0.0
C139 C 0.88148 0.29672 0.37521 0.0
C140 C 0.98333 0.28296 0.40476 0.0
C141 C 0.99083 0.29619 0.43993 0.0
C142 C 0.94338 0.30939 0.44321 0.0
C143 C 0.83723 0.32365 0.41443 0.0
C144 C 0.71936 0.36006 0.48555 0.0
C145 C 0.8492 0.2718 0.5369 0.0
H146 H 0.49478 0.24405 0.55672 0.0
H147 H 0.56908 0.25179 0.48556 0.0
H148 H 0.66172 0.18337 0.59586 0.0
H149 H 0.83957 0.29753 0.35004 0.0
H150 H 0.02066 0.27423 0.40241 0.0
H151 H 0.94997 0.32012 0.47065 0.0
H152 H 0.58049 0.18604 0.98419 0.0
H153 H 0.67303 0.22248 0.00266 0.0
H154 H 0.58933 0.35536 0.94398 0.0
H155 H 0.4964 0.31708 0.92338 0.0
H156 H 0.65103 0.33006 0.91835 0.0
H157 H 0.69322 0.34875 0.04372 0.0
H158 H 0.70224 0.33045 0.10551 0.0
H159 H 0.82117 0.21534 0.12354 0.0
H160 H 0.81239 0.23234 0.06164 0.0
H161 H 0.97502 0.38245 0.01367 0.0
H162 H 0.87462 0.39326 -0.00382 0.0
H163 H 0.83889 0.24533 0.95433 0.0
H164 H 0.93848 0.23499 0.97078 0.0
H165 H 0.83849 0.30221 0.03383 0.0
H166 H 0.76722 0.28237 0.89404 0.0
H167 H 0.76681 0.31607 0.8381 0.0
H168 H 0.70425 0.45315 0.85409 0.0
H169 H 0.70714 0.42079 0.91144 0.0
C170 C 0.58211 0.2239 0.97699 0.0
C171 C 0.53155 0.249 0.95283 0.0
C172 C 0.6352 0.24489 0.98744 0.0
C173 C 0.63868 0.29187 0.97463 0.0
C174 C 0.58807 0.31896 0.95396 0.0
C175 C 0.53494 0.29744 0.94272 0.0
C176 C 0.6932 0.3086 0.97726 0.0
C177 C 0.69176 0.32471 0.94401 0.0
C178 C 0.74696 0.30272 0.01062 0.0
C179 C 0.75188 0.29174 0.04779 0.0
C180 C 0.72091 0.31922 0.06065 0.0
C181 C 0.726 0.30909 0.09574 0.0
C182 C 0.76206 0.27166 0.11836 0.0
C183 C 0.79319 0.2443 0.10596 0.0
C184 C 0.78825 0.25423 0.07088 0.0
C185 C 0.9447 0.35363 -0.00192 0.0
C186 C 0.96421 0.30813 -0.00702 0.0
C187 C 0.88761 0.35953 0.98874 0.0
C188 C 0.84945 0.32009 0.97399 0.0
C189 C 0.86745 0.27649 0.96508 0.0
C190 C 0.92424 0.2708 0.97397 0.0
C191 C 0.79525 0.32052 0.97476 0.0
C192 C 0.79722 0.30806 0.00869 0.0
C193 C 0.74217 0.33099 0.94252 0.0
C194 C 0.73845 0.34947 0.90736 0.0
C195 C 0.75426 0.3199 0.886 0.0
C196 C 0.75344 0.33875 0.85397 0.0
C197 C 0.73551 0.38678 0.8425 0.0
C198 C 0.7183 0.41601 0.86306 0.0
C199 C 0.71978 0.3975 0.89543 0.0
H200 H 0.73482 0.40132 0.81765 0.0
H201 H 0.76598 0.26394 0.14554 0.0
H202 H 0.06851 0.59862 0.00273 0.0
H203 H 0.17117 0.60824 0.02736 0.0
H204 H 0.14659 0.76413 0.00884 0.0
H205 H 0.04691 0.75428 0.99057 0.0
H206 H 0.20729 0.62754 0.98613 0.0
H207 H 0.26593 0.82959 0.03594 0.0
H208 H 0.24564 0.88985 0.07254 0.0
H209 H 0.21755 0.77382 0.132 0.0
H210 H 0.24078 0.71277 0.09738 0.0
H211 H 0.45968 0.80024 0.01059 0.0
H212 H 0.36067 0.78382 -0.00626 0.0
H213 H 0.40529 0.63426 0.02994 0.0
H214 H 0.50392 0.65075 0.04642 0.0
H215 H 0.34171 0.76425 0.05001 0.0
H216 H 0.30264 0.56499 0.00101 0.0
H217 H 0.29871 0.50967 0.95195 0.0
H218 H 0.26444 0.63183 0.8776 0.0
H219 H 0.26928 0.68783 0.92656 0.0
C220 C 0.08626 0.63515 0.00696 0.0
C221 C 0.04994 0.67593 -0.00546 0.0
C222 C 0.14481 0.6407 0.02011 0.0
C223 C 0.1676 0.68691 0.01958 0.0
C224 C 0.1318 0.72804 0.01067 0.0
C225 C 0.07415 0.72255 -0.00029 0.0
C226 C 0.22455 0.69087 0.02173 0.0
C227 C 0.23667 0.65729 0.00058 0.0
C228 C 0.26331 0.73009 0.03993 0.0
C229 C 0.25478 0.76646 0.06376 0.0
C230 C 0.25669 0.81685 0.05742 0.0
C231 C 0.24477 0.85118 0.0779 0.0
C232 C 0.23078 0.83565 0.10482 0.0
C233 C 0.22928 0.78577 0.11159 0.0
C234 C 0.24202 0.75127 0.09162 0.0
C235 C 0.44741 0.76309 0.01249 0.0
C236 C 0.48936 0.72669 0.02954 0.0
C237 C 0.39098 0.7539 0.00354 0.0
C238 C 0.37549 0.708 0.01114 0.0
C239 C 0.41576 0.66991 0.02355 0.0
C240 C 0.4722 0.67917 0.03257 0.0
C241 C 0.3218 0.70238 0.01273 0.0
C242 C 0.31141 0.73501 0.0353 0.0
C243 C 0.28355 0.66317 -0.0049 0.0
C244 C 0.2874 0.63054 0.9676 0.0
C245 C 0.29527 0.58002 0.97441 0.0
C246 C 0.29271 0.54859 0.94661 0.0
C247 C 0.28153 0.56726 0.91172 0.0
C248 C 0.27337 0.61745 0.9047 0.0
C249 C 0.27665 0.64911 0.93261 0.0
H250 H 0.27905 0.54285 0.89009 0.0
H251 H 0.22084 0.86225 0.12031 0.0
H252 H 0.55019 0.69151 0.4766 0.0
H253 H 0.65137 0.68032 0.49756 0.0
H254 H 0.68166 0.83331 0.52614 0.0
H255 H 0.58015 0.84423 0.50548 0.0
H256 H 0.70929 0.81059 0.47451 0.0
H257 H 0.74686 0.74292 0.59091 0.0
H258 H 0.73466 0.68965 0.63492 0.0
H259 H 0.77055 0.56341 0.58784 0.0
H260 H 0.78225 0.6158 0.54316 0.0
H261 H 1.01041 0.80373 0.55018 0.0
H262 H 0.90899 0.81376 0.52873 0.0
H263 H 0.88042 0.66113 0.49795 0.0
H264 H 0.98251 0.65111 0.52019 0.0
H265 H 0.84943 0.68118 0.54782 0.0
H266 H 0.81251 0.75404 0.43211 0.0
H267 H 0.8269 0.81031 0.39048 0.0
H268 H 0.79766 0.93325 0.44398 0.0
H269 H 0.78448 0.87792 0.4865 0.0
C270 C 0.57928 0.72184 0.48977 0.0
C271 C 0.55781 0.76843 0.49005 0.0
C272 C 0.63696 0.71567 0.50119 0.0
C273 C 0.674 0.75606 0.51285 0.0
C274 C 0.65377 0.80166 0.51698 0.0
C275 C 0.59602 0.80775 0.50581 0.0
C276 C 0.73025 0.75214 0.51472 0.0
C277 C 0.74081 0.7832 0.49147 0.0
C278 C 0.77023 0.71505 0.53557 0.0
C279 C 0.76396 0.68333 0.56286 0.0
C280 C 0.75134 0.70375 0.58948 0.0
C281 C 0.74477 0.6737 0.61472 0.0
C282 C 0.75139 0.62313 0.61399 0.0
C283 C 0.76519 0.60258 0.58829 0.0
C284 C 0.77183 0.63248 0.563 0.0
C285 C 0.98179 0.77315 0.53659 0.0
C286 C 1.00394 0.72686 0.53623 0.0
C287 C 0.92378 0.77872 0.52464 0.0
C288 C 0.88693 0.7381 0.5119 0.0
C289 C 0.90801 0.69296 0.50774 0.0
C290 C 0.96614 0.6874 0.51979 0.0
C291 C 0.82994 0.74111 0.50911 0.0
C292 C 0.81863 0.70931 0.53161 0.0
C293 C 0.79014 0.77835 0.48847 0.0
C294 C 0.79808 0.81176 0.46281 0.0
C295 C 0.80974 0.7931 0.43528 0.0
C296 C 0.81765 0.82486 0.41148 0.0
C297 C 0.81358 0.87535 0.41473 0.0
C298 C 0.80118 0.89419 0.4416 0.0
C299 C 0.79345 0.86263 0.46556 0.0
H300 H 0.82 0.89986 0.39641 0.0
H301 H 0.74614 0.59991 0.63348 0.0
H302 H 0.06545 0.22228 0.4742 0.0
H303 H 0.16664 0.22945 0.49528 0.0
H304 H 0.15298 0.38679 0.49438 0.0
H305 H 0.05056 0.37924 0.47158 0.0
H306 H 0.18481 0.36191 0.44779 0.0
H307 H 0.25167 0.31666 0.5754 0.0
H308 H 0.25962 0.26957 0.62926 0.0
H309 H 0.31028 0.14236 0.59177 0.0
H310 H 0.30127 0.18818 0.53716 0.0
H311 H 0.49915 0.34602 0.51649 0.0
H312 H 0.40337 0.37036 0.50255 0.0
H313 H 0.33756 0.23061 0.44971 0.0
H314 H 0.43301 0.20658 0.46323 0.0
H315 H 0.35356 0.25996 0.52995 0.0
H316 H 0.26855 0.30081 0.39717 0.0
H317 H 0.2576 0.34648 0.34193 0.0
H318 H 0.24136 0.48069 0.39033 0.0
H319 H 0.25293 0.43581 0.44612 0.0
C320 C 0.08487 0.25828 0.48087 0.0
C321 C 0.05039 0.3002 0.47117 0.0
C322 C 0.14293 0.26248 0.49277 0.0
C323 C 0.16764 0.30876 0.49599 0.0
C324 C 0.13482 0.35069 0.49175 0.0
C325 C 0.07644 0.34643 0.47936 0.0
C326 C 0.2223 0.3128 0.49561 0.0
C327 C 0.22219 0.34046 0.46647 0.0
C328 C 0.27081 0.284 0.51931 0.0
C329 C 0.27544 0.25596 0.55194 0.0
C330 C 0.2639 0.27851 0.57836 0.0
C331 C 0.26864 0.252 0.60907 0.0
C332 C 0.28524 0.20295 0.61385 0.0
C333 C 0.29721 0.1803 0.58796 0.0
C334 C 0.29234 0.20656 0.55713 0.0
C335 C 0.46338 0.32213 0.49924 0.0
C336 C 0.47324 0.27445 0.49092 0.0
C337 C 0.40878 0.33579 0.49174 0.0
C338 C 0.36375 0.30197 0.47556 0.0
C339 C 0.37187 0.25722 0.46211 0.0
C340 C 0.42629 0.24376 0.46934 0.0
C341 C 0.31447 0.3075 0.48156 0.0
C342 C 0.31619 0.28187 0.51188 0.0
C343 C 0.26744 0.33783 0.45894 0.0
C344 C 0.26281 0.36507 0.42618 0.0
C345 C 0.26373 0.34016 0.39637 0.0
C346 C 0.25706 0.36587 0.36485 0.0
C347 C 0.24918 0.4165 0.36274 0.0
C348 C 0.24784 0.44152 0.39212 0.0
C349 C 0.2544 0.41595 0.42367 0.0
H350 H 0.24378 0.43632 0.33824 0.0
H351 H 0.2889 0.18251 0.63764 0.0
H352 H 0.67482 0.56259 0.96068 0.0
H353 H 0.6054 0.50132 0.95689 0.0
H354 H 0.53537 0.60672 0.00119 0.0
H355 H 0.60233 0.66788 0.00385 0.0
H356 H 0.5839 0.46345 0.01346 0.0
H357 H 0.41136 0.6004 0.96575 0.0
H358 H 0.38488 0.68003 0.93286 0.0
H359 H 0.44087 0.63039 0.85696 0.0
H360 H 0.46907 0.551 0.89019 0.0
H361 H 0.35002 0.36017 0.02551 0.0
H362 H 0.41597 0.42333 0.02776 0.0
H363 H 0.36307 0.39515 0.9109 0.0
H364 H 0.29777 0.33134 0.90855 0.0
H365 H 0.37662 0.49758 0.93243 0.0
H366 H 0.47075 0.3411 0.97497 0.0
H367 H 0.50689 0.26896 0.0164 0.0
H368 H 0.61265 0.36071 0.1112 0.0
H369 H 0.5757 0.43387 0.07084 0.0
C370 C 0.64421 0.5727 0.96924 0.0
C371 C 0.64341 0.62041 0.98183 0.0
C372 C 0.60489 0.53765 0.96729 0.0
C373 C 0.56458 0.54979 0.97812 0.0
C374 C 0.56501 0.5969 0.99173 0.0
C375 C 0.60346 0.63191 -0.00681 0.0
C376 C 0.52094 0.51396 0.97457 0.0
C377 C 0.53854 0.47075 -0.00417 0.0
C378 C 0.46192 0.52388 0.95184 0.0
C379 C 0.44152 0.56982 0.93005 0.0
C380 C 0.41738 0.60643 0.94178 0.0
C381 C 0.40257 0.6516 0.92332 0.0
C382 C 0.41075 0.66012 0.89264 0.0
C383 C 0.43427 0.62365 0.8806 0.0
C384 C 0.44992 0.57867 0.89933 0.0
C385 C 0.35143 0.36816 3e-05 0.0
C386 C 0.31874 0.34073 0.96683 0.0
C387 C 0.38941 0.40403 0.00147 0.0
C388 C 0.39475 0.41341 0.96962 0.0
C389 C 0.35961 0.38827 0.93579 0.0
C390 C 0.32236 0.35186 0.9345 0.0
C391 C 0.43925 0.44725 0.97199 0.0
C392 C 0.42181 0.49016 0.95034 0.0
C393 C 0.49847 0.43743 -0.00467 0.0
C394 C 0.51992 0.39324 0.01976 0.0
C395 C 0.50107 0.34615 0.00473 0.0
C396 C 0.52172 0.30501 0.02805 0.0
C397 C 0.56183 0.31029 0.06638 0.0
C398 C 0.58127 0.35677 0.08154 0.0
C399 C 0.56043 0.39809 0.05845 0.0
H400 H 0.57798 0.27835 0.08432 0.0
H401 H 0.3991 0.69505 0.87831 0.0
H402 H 0.62853 0.41293 0.43581 0.0
H403 H 0.57839 0.47483 0.45147 0.0
H404 H 0.71284 0.47021 0.56825 0.0
H405 H 0.76295 0.40793 0.55231 0.0
H406 H 0.60547 0.45452 0.55877 0.0
H407 H 0.69383 0.56248 0.51145 0.0
H408 H 0.71819 0.60025 0.46671 0.0
H409 H 0.54178 0.63669 0.39274 0.0
H410 H 0.51611 0.59829 0.4367 0.0
H411 H 0.48289 0.71101 0.56841 0.0
H412 H 0.5523 0.65626 0.56631 0.0
H413 H 0.42856 0.53918 0.52704 0.0
H414 H 0.35849 0.59413 0.52931 0.0
H415 H 0.53717 0.61804 0.50196 0.0
H416 H 0.50319 0.42884 0.54813 0.0
H417 H 0.47599 0.39139 0.59176 0.0
H418 H 0.54045 0.51689 0.66455 0.0
H419 H 0.5688 0.55473 0.6216 0.0
C420 C 0.64853 0.42682 0.4644 0.0
C421 C 0.70027 0.40698 0.49264 0.0
C422 C 0.61961 0.46175 0.47345 0.0
C423 C 0.64187 0.47708 0.51103 0.0
C424 C 0.69499 0.45887 0.53906 0.0
C425 C 0.72402 0.424 0.5299 0.0
C426 C 0.60754 0.50904 0.52142 0.0
C427 C 0.59083 0.49048 0.5465 0.0
C428 C 0.58778 0.55561 0.50489 0.0
C429 C 0.60304 0.57732 0.47764 0.0
C430 C 0.66007 0.57807 0.48555 0.0
C431 C 0.67414 0.59961 0.46026 0.0
C432 C 0.63156 0.62081 0.42687 0.0
C433 C 0.57477 0.62024 0.41862 0.0
C434 C 0.56046 0.59853 0.44376 0.0
C435 C 0.4707 0.6733 0.56012 0.0
C436 C 0.41498 0.65697 0.54874 0.0
C437 C 0.51049 0.64206 0.55887 0.0
C438 C 0.49565 0.59369 0.54632 0.0
C439 C 0.44118 0.57626 0.53716 0.0
C440 C 0.40119 0.60763 0.53855 0.0
C441 C 0.53519 0.56367 0.53922 0.0
C442 C 0.55237 0.58235 0.51442 0.0
C443 C 0.55453 0.51695 0.55537 0.0
C444 C 0.53767 0.49476 0.58147 0.0
C445 C 0.51173 0.44835 0.57351 0.0
C446 C 0.49609 0.42707 0.59811 0.0
C447 C 0.50635 0.45181 0.63087 0.0
C448 C 0.53235 0.49785 0.6391 0.0
C449 C 0.54813 0.51927 0.61459 0.0
H450 H 0.49425 0.43527 0.6499 0.0
H451 H 0.64258 0.63774 0.40743 0.0
H452 H 0.12642 0.07523 0.93738 0.0
H453 H 0.07029 0.01685 0.95045 0.0
H454 H 0.21302 0.99588 0.06322 0.0
H455 H 0.26902 0.05561 0.05012 0.0
H456 H 0.06865 0.92869 0.96837 0.0
H457 H 0.16046 0.99196 0.1256 0.0
H458 H 0.20226 0.06633 0.16408 0.0
H459 H 0.12458 0.15423 0.06354 0.0
H460 H 0.08145 0.08084 0.02473 0.0
H461 H 0.96031 0.7695 0.04808 0.0
H462 H 0.03147 0.82245 0.0462 0.0
H463 H 0.93256 0.94912 0.04069 0.0
H464 H 0.86028 0.89563 0.04217 0.0
H465 H 0.05088 0.9668 0.08083 0.0
H466 H 0.90939 0.90215 0.96572 0.0
H467 H 0.84694 0.84196 0.91812 0.0
H468 H 0.99142 0.78085 0.91589 0.0
H469 H 0.05538 0.83917 0.96483 0.0
C470 C 0.1466 0.05648 0.96438 0.0
C471 C 0.20223 0.06913 0.99254 0.0
C472 C 0.11434 0.02342 0.972 0.0
C473 C 0.13691 0.00262 0.00809 0.0
C474 C 0.19434 0.0121 0.03535 0.0
C475 C 0.22674 0.04542 0.02768 0.0
C476 C 0.09868 0.97427 0.01761 0.0
C477 C 0.06536 0.93651 -0.00677 0.0
C478 C 0.09187 0.98644 0.04889 0.0
C479 C 0.11853 0.03071 0.07221 0.0
C480 C 0.15235 0.02719 0.11176 0.0
C481 C 0.17616 0.06924 0.13364 0.0
C482 C 0.16627 0.11504 0.1163 0.0
C483 C 0.13244 0.11887 0.07703 0.0
C484 C 0.10836 0.07702 0.05507 0.0
C485 C 0.95469 0.80877 0.04782 0.0
C486 C 0.90471 0.82858 0.04507 0.0
C487 C 0.99525 0.83894 0.04653 0.0
C488 C 0.98665 0.88958 0.04243 0.0
C489 C 0.93978 0.91002 0.04367 0.0
C490 C 0.89874 0.87958 0.04481 0.0
C491 C 0.02291 0.9198 0.03247 0.0
C492 C 0.05526 0.95818 0.05648 0.0
C493 C 0.02629 0.91004 -0.00051 0.0
C494 C 0.98775 0.87431 0.9701 0.0
C495 C 0.92829 0.87515 0.95593 0.0
C496 C 0.89246 0.84139 0.92852 0.0
C497 C 0.91522 0.80723 0.91428 0.0
C498 C 0.97379 0.80715 0.92709 0.0
C499 C 1.00993 0.84048 0.95482 0.0
H500 H 0.8874 0.78108 0.89313 0.0
H501 H 0.18466 0.14755 0.13327 0.0
H502 H 0.81667 0.17316 0.40966 0.0
H503 H 0.89127 0.12055 0.4123 0.0
H504 H 0.91721 0.05744 0.51645 0.0
H505 H 0.8433 0.11122 0.51464 0.0
H506 H 0.01898 0.08318 0.51876 0.0
H507 H 0.83936 0.00233 0.42876 0.0
H508 H 0.74595 0.0048 0.37 0.0
H509 H 0.82947 0.03176 0.30581 0.0
H510 H 0.92332 0.03046 0.36437 0.0
H511 H 0.16354 0.86506 0.54323 0.0
H512 H 0.09583 0.92993 0.53224 0.0
H513 H 0.08513 0.96338 0.42575 0.0
H514 H 0.15384 0.8976 0.43659 0.0
H515 H 0.9799 0.96136 0.41851 0.0
H516 H 0.14941 0.04397 0.49403 0.0
H517 H 0.24693 0.063 0.54525 0.0
H518 H 0.19156 0.05274 0.62685 0.0
H519 H 0.09364 0.03313 0.57611 0.0
C520 C 0.83759 0.1477 0.43297 0.0
C521 C 0.82337 0.14606 0.46176 0.0
C522 C 0.88045 0.11768 0.43443 0.0
C523 C 0.90949 0.08465 0.46434 0.0
C524 C 0.89524 0.0826 0.49303 0.0
C525 C 0.85258 0.11299 0.49177 0.0
C526 C 0.95486 0.05231 0.46587 0.0
C527 C 1.01026 0.05598 0.49718 0.0
C528 C 0.94452 0.01933 0.4363 0.0
C529 C 0.88829 0.01663 0.401 0.0
C530 C 0.83776 0.00873 0.40212 0.0
C531 C 0.78473 0.01014 0.36884 0.0
C532 C 0.78176 0.01879 0.33419 0.0
C533 C 0.83184 0.02529 0.33268 0.0
C534 C 0.88495 0.02419 0.36592 0.0
C535 C 0.14711 0.88605 0.51738 0.0
C536 C 0.16425 0.8759 0.49073 0.0
C537 C 0.10852 0.92352 0.5113 0.0
C538 C 0.0858 0.95196 0.47839 0.0
C539 C 0.10234 0.94198 0.45145 0.0
C540 C 0.14168 0.9045 0.45771 0.0
C541 C 0.04343 0.99072 0.47231 0.0
C542 C 0.98874 0.98847 0.44017 0.0
C543 C 0.05505 0.02672 0.50018 0.0
C544 C 0.11422 0.03657 0.53125 0.0
C545 C 0.15813 0.04512 0.52295 0.0
C546 C 0.21344 0.0562 0.55187 0.0
C547 C 0.22544 0.059 0.58926 0.0
C548 C 0.18218 0.05055 0.59785 0.0
C549 C 0.12671 0.0395 0.569 0.0
H550 H 0.26822 0.06796 0.61146 0.0
H551 H 0.7407 0.02038 0.30844 0.0
H552 H 0.60742 0.37369 0.38009 0.0
H553 H 0.53106 0.39087 0.31619 0.0
H554 H 0.49161 0.23672 0.29831 0.0
H555 H 0.56622 0.21986 0.36335 0.0
H556 H 0.54709 0.36166 0.26359 0.0
H557 H 0.36473 0.21493 0.22236 0.0
H558 H 0.30261 0.18565 0.24636 0.0
H559 H 0.33247 0.31835 0.3098 0.0
H560 H 0.39391 0.34897 0.28563 0.0
H561 H 0.46296 0.2245 0.09933 0.0
H562 H 0.49916 0.26798 0.15972 0.0
H563 H 0.33194 0.33045 0.1203 0.0
H564 H 0.29566 0.28562 0.0616 0.0
H565 H 0.36099 0.28135 0.18027 0.0
H566 H 0.44535 0.40437 0.14589 0.0
H567 H 0.50012 0.4441 0.11992 0.0
H568 H 0.65418 0.37611 0.2053 0.0
H569 H 0.60022 0.33499 0.23134 0.0
C570 C 0.58058 0.34379 0.36314 0.0
C571 C 0.59277 0.29542 0.37628 0.0
C572 C 0.5371 0.35366 0.32659 0.0
C573 C 0.5062 0.31512 0.30236 0.0
C574 C 0.51451 0.26718 0.31667 0.0
C575 C 0.55734 0.25742 0.35374 0.0
C576 C 0.47543 0.32311 0.26113 0.0
C577 C 0.50589 0.34481 0.24529 0.0
C578 C 0.42091 0.30277 0.23729 0.0
C579 C 0.38429 0.28422 0.25224 0.0
C580 C 0.35785 0.23807 0.24124 0.0
C581 C 0.32275 0.22119 0.25492 0.0
C582 C 0.31367 0.25009 0.27963 0.0
C583 C 0.33968 0.29594 0.29073 0.0
C584 C 0.37474 0.31305 0.27709 0.0
C585 C 0.43478 0.24879 0.10334 0.0
C586 C 0.37663 0.25138 0.07631 0.0
C587 C 0.45532 0.27379 0.1376 0.0
C588 C 0.41786 0.30207 0.14444 0.0
C589 C 0.36129 0.30854 0.11567 0.0
C590 C 0.34071 0.28293 0.08207 0.0
C591 C 0.43446 0.31698 0.18325 0.0
C592 C 0.40134 0.29952 0.19852 0.0
C593 C 0.48564 0.34253 0.2064 0.0
C594 C 0.51857 0.36649 0.19059 0.0
C595 C 0.49082 0.39749 0.15898 0.0
C596 C 0.52176 0.42035 0.14426 0.0
C597 C 0.58062 0.41285 0.1611 0.0
C598 C 0.6086 0.38207 0.19243 0.0
C599 C 0.57784 0.35899 0.2072 0.0
H600 H 0.60456 0.43087 0.14983 0.0
H601 H 0.28644 0.23697 0.29015 0.0
H602 H 0.60521 0.85472 0.15559 0.0
H603 H 0.57206 0.86413 0.20143 0.0
H604 H 0.57799 0.7078 0.21602 0.0
H605 H 0.61186 0.69856 0.1709 0.0
H606 H 0.47085 0.74719 0.19554 0.0
H607 H 0.66895 0.77824 0.28793 0.0
H608 H 0.76134 0.82115 0.31326 0.0
H609 H 0.67997 0.95697 0.31105 0.0
H610 H 0.58745 0.91511 0.28536 0.0
H611 H 0.42126 0.71827 0.3504 0.0
H612 H 0.44916 0.71902 0.30204 0.0
H613 H 0.45956 0.87643 0.30814 0.0
H614 H 0.43268 0.87535 0.35736 0.0
H615 H 0.55426 0.84189 0.315 0.0
H616 H 0.35836 0.81107 0.22937 0.0
H617 H 0.26526 0.76999 0.2045 0.0
H618 H 0.33653 0.63714 0.18985 0.0
H619 H 0.43091 0.67671 0.21634 0.0
C620 C 0.60237 0.82266 0.17012 0.0
C621 C 0.61243 0.77597 0.16016 0.0
C622 C 0.58245 0.82794 0.19589 0.0
C623 C 0.57167 0.78659 0.21197 0.0
C624 C 0.58545 0.74028 0.20393 0.0
C625 C 0.60588 0.73508 0.17862 0.0
C626 C 0.54235 0.79093 0.23484 0.0
C627 C 0.48939 0.76741 0.22192 0.0
C628 C 0.56521 0.8187 0.26856 0.0
C629 C 0.62117 0.84368 0.28428 0.0
C630 C 0.6708 0.81736 0.29256 0.0
C631 C 0.72328 0.84149 0.30706 0.0
C632 C 0.72666 0.89185 0.31359 0.0
C633 C 0.67763 0.91807 0.30593 0.0
C634 C 0.62512 0.89416 0.29142 0.0
C635 C 0.42657 0.75318 0.34 0.0
C636 C 0.4231 0.79685 0.357 0.0
C637 C 0.44326 0.75361 0.31254 0.0
C638 C 0.45668 0.7978 0.3011 0.0
C639 C 0.44962 0.84176 0.31633 0.0
C640 C 0.43302 0.84128 0.34394 0.0
C641 C 0.48279 0.79759 0.27606 0.0
C642 C 0.53523 0.82184 0.28853 0.0
C643 C 0.45908 0.7707 0.24172 0.0
C644 C 0.4021 0.74681 0.22533 0.0
C645 C 0.3545 0.7729 0.22135 0.0
C646 C 0.30148 0.74983 0.20704 0.0
C647 C 0.29497 0.70097 0.19563 0.0
C648 C 0.34163 0.67499 0.19874 0.0
C649 C 0.39502 0.69768 0.21358 0.0
H650 H 0.25373 0.6833 0.18426 0.0
H651 H 0.76728 0.91047 0.32467 0.0
H652 H 0.44001 0.87958 0.59664 0.0
H653 H 0.50804 0.91157 0.65993 0.0
H654 H 0.40822 0.84608 0.70411 0.0
H655 H 0.34111 0.81415 0.64165 0.0
H656 H 0.45795 0.93389 0.73994 0.0
H657 H 0.51032 0.7804 0.70087 0.0
H658 H 0.53422 0.73384 0.65886 0.0
H659 H 0.67208 0.83314 0.68418 0.0
H660 H 0.64833 0.88068 0.72592 0.0
H661 H 0.59253 0.80063 0.90633 0.0
H662 H 0.54045 0.84152 0.84494 0.0
H663 H 0.70056 0.88554 0.85427 0.0
H664 H 0.75249 0.84386 0.91569 0.0
H665 H 0.63799 0.83931 0.79083 0.0
H666 H 0.60341 0.97341 0.84861 0.0
H667 H 0.57833 0.01851 0.89054 0.0
H668 H 0.40834 0.95936 0.83088 0.0
H669 H 0.43248 0.91334 0.78891 0.0
C670 C 0.43197 0.87332 0.61974 0.0
C671 C 0.38611 0.84372 0.61461 0.0
C672 C 0.47071 0.89157 0.65577 0.0
C673 C 0.46341 0.88072 0.68674 0.0
C674 C 0.41468 0.85494 0.68066 0.0
C675 C 0.37666 0.83629 0.64503 0.0
C676 C 0.50984 0.8883 0.72623 0.0
C677 C 0.49779 0.91398 0.75116 0.0
C678 C 0.56248 0.86329 0.7407 0.0
C679 C 0.57716 0.83437 0.71607 0.0
C680 C 0.54551 0.79242 0.69728 0.0
C681 C 0.55901 0.76586 0.67354 0.0
C682 C 0.60453 0.78061 0.66877 0.0
C683 C 0.63674 0.82184 0.68782 0.0
C684 C 0.62326 0.84862 0.7115 0.0
C685 C 0.61628 0.82032 0.89562 0.0
C686 C 0.6761 0.81961 0.91536 0.0
C687 C 0.58667 0.84396 0.86072 0.0
C688 C 0.61654 0.86723 0.8451 0.0
C689 C 0.67661 0.86822 0.86584 0.0
C690 C 0.70619 0.84452 0.90079 0.0
C691 C 0.58503 0.88326 0.805 0.0
C692 C 0.59975 0.86161 0.77985 0.0
C693 C 0.53495 0.91215 0.79044 0.0
C694 C 0.51997 0.93963 0.81569 0.0
C695 C 0.5608 0.96967 0.84459 0.0
C696 C 0.54672 0.99546 0.86836 0.0
C697 C 0.49188 0.99158 0.86349 0.0
C698 C 0.45086 0.96222 0.83467 0.0
C699 C 0.46469 0.93636 0.81082 0.0
H700 H 0.48112 0.01147 0.88199 0.0
H701 H 0.61493 0.76001 0.65038 0.0
H702 H 0.39557 0.24022 0.81012 0.0
H703 H 0.42273 0.23541 0.76138 0.0
H704 H 0.4822 0.08789 0.79553 0.0
H705 H 0.45578 0.09326 0.84509 0.0
H706 H 0.53879 0.22042 0.78241 0.0
H707 H 0.46548 0.03488 0.70225 0.0
H708 H 0.38815 0.97427 0.68312 0.0
H709 H 0.28047 0.08365 0.6906 0.0
H710 H 0.35535 0.14563 0.7072 0.0
H711 H 0.59234 0.12428 0.61779 0.0
H712 H 0.56852 0.10711 0.66768 0.0
H713 H 0.53153 0.26002 0.67024 0.0
H714 H 0.55897 0.2773 0.62331 0.0
H715 H 0.47236 0.11453 0.66944 0.0
H716 H 0.54609 0.29951 0.74822 0.0
H717 H 0.6203 0.36119 0.761 0.0
H718 H 0.72975 0.2495 0.75826 0.0
H719 H 0.65653 0.18704 0.74593 0.0
C720 C 0.4121 0.20599 0.80617 0.0
C721 C 0.42241 0.16675 0.83104 0.0
C722 C 0.42848 0.2035 0.77863 0.0
C723 C 0.45511 0.16149 0.7748 0.0
C724 C 0.46158 0.12071 0.79767 0.0
C725 C 0.44568 0.12346 0.82568 0.0
C726 C 0.48064 0.16286 0.74951 0.0
C727 C 0.52402 0.19726 0.75766 0.0
C728 C 0.46298 0.13163 0.71779 0.0
C729 C 0.4169 0.09478 0.70707 0.0
C730 C 0.42528 0.04611 0.69973 0.0
C731 C 0.38176 0.01149 0.6892 0.0
C732 C 0.32993 0.02485 0.68643 0.0
C733 C 0.32097 0.07315 0.69332 0.0
C734 C 0.36386 0.10813 0.70309 0.0
C735 C 0.58152 0.15434 0.6303 0.0
C736 C 0.57849 0.20229 0.61688 0.0
C737 C 0.56679 0.14444 0.65835 0.0
C738 C 0.54863 0.18225 0.67348 0.0
C739 C 0.54685 0.23009 0.66035 0.0
C740 C 0.56257 0.24002 0.63324 0.0
C741 C 0.52992 0.17264 0.70207 0.0
C742 C 0.48795 0.13689 0.69463 0.0
C743 C 0.54923 0.20213 0.73488 0.0
C744 C 0.59559 0.23867 0.74582 0.0
C745 C 0.58628 0.288 0.75084 0.0
C746 C 0.62801 0.32314 0.75775 0.0
C747 C 0.67935 0.30932 0.75993 0.0
C748 C 0.6897 0.26019 0.75617 0.0
C749 C 0.64815 0.2249 0.74927 0.0
H750 H 0.71132 0.33664 0.76481 0.0
H751 H 0.29639 -0.00206 0.67842 0.0
H752 H 0.10214 0.69845 0.41691 0.0
H753 H 0.04287 0.67108 0.35133 0.0
H754 H 0.19477 0.63809 0.34596 0.0
H755 H 0.25403 0.6659 0.411 0.0
H756 H 0.1258 0.69556 0.28952 0.0
H757 H 0.10548 0.54844 0.34394 0.0
H758 H 0.08459 0.49803 0.38558 0.0
H759 H 0.91036 0.54706 0.32702 0.0
H760 H 0.93056 0.59931 0.28598 0.0
H761 H 0.94752 0.64406 0.09537 0.0
H762 H 0.01835 0.62551 0.16125 0.0
H763 H 0.89165 0.6526 0.1939 0.0
H764 H 0.82065 0.66891 0.12854 0.0
H765 H 0.95922 0.58328 0.23624 0.0
H766 H 0.98601 0.7434 0.19429 0.0
H767 H 1.00461 0.79756 0.15333 0.0
H768 H 0.16488 0.72546 0.18928 0.0
H769 H 0.14675 0.67035 0.22999 0.0
C770 C 0.12285 0.68443 0.40199 0.0
C771 C 0.18272 0.68484 0.41901 0.0
C772 C 0.08896 0.66863 0.36454 0.0
C773 C 0.11443 0.65248 0.34372 0.0
C774 C 0.1742 0.65057 0.3614 0.0
C775 C 0.20799 0.66653 0.39862 0.0
C776 C 0.0791 0.64256 0.30256 0.0
C777 C 0.09012 0.67016 0.27792 0.0
C778 C 0.03208 0.60994 0.2874 0.0
C779 C 0.01972 0.57818 0.31197 0.0
C780 C 0.06283 0.54894 0.34015 0.0
C781 C 0.0511 0.51998 0.36365 0.0
C782 C 0.99618 0.51921 0.35886 0.0
C783 C 0.95289 0.54762 0.33067 0.0
C784 C 0.9645 0.57703 0.30734 0.0
C785 C 0.93454 0.64502 0.1165 0.0
C786 C 0.87864 0.65867 0.10674 0.0
C787 C 0.9751 0.63458 0.15417 0.0
C788 C 0.96069 0.63876 0.18271 0.0
C789 C 0.90396 0.64922 0.17251 0.0
C790 C 0.86336 0.65886 0.13498 0.0
C791 C 1.00493 0.63745 0.22345 0.0
C792 C 0.99569 0.60782 0.24799 0.0
C793 C 0.05333 0.6686 0.23869 0.0
C794 C 0.06471 0.7024 0.21481 0.0
C795 C 0.02508 0.73898 0.19331 0.0
C796 C 0.03553 0.76982 0.17014 0.0
C797 C 0.08582 0.76486 0.16862 0.0
C798 C 0.12589 0.72918 0.19041 0.0
C799 C 0.11554 0.69812 0.21352 0.0
H800 H 0.09379 0.78872 0.15063 0.0
H801 H 0.98716 0.49661 0.37699 0.0
H802 H 0.95841 0.19725 0.35339 0.0
H803 H 0.99166 0.1856 0.30843 0.0
H804 H 0.93624 0.33164 0.26579 0.0
H805 H 0.90545 0.34394 0.3125 0.0
H806 H 0.9624 0.17939 0.24231 0.0
H807 H 0.02226 0.38588 0.23871 0.0
H808 H 0.06241 0.45587 0.28261 0.0
H809 H 0.12643 0.35828 0.37739 0.0
H810 H 0.0873 0.28781 0.33425 0.0
H811 H 1.00318 0.20357 0.08879 0.0
H812 H 0.98093 0.20186 0.1389 0.0
H813 H 0.14044 0.27509 0.2132 0.0
H814 H 0.15852 0.28325 0.16009 0.0
H815 H 0.07557 0.31244 0.2289 0.0
H816 H 0.09847 0.14441 0.22161 0.0
H817 H 0.09081 0.06307 0.19339 0.0
H818 H 0.90898 0.06426 0.1477 0.0
H819 H 0.91535 0.146 0.17506 0.0
C820 C 0.9514 0.22626 0.33346 0.0
C821 C 0.92847 0.27127 0.33619 0.0
C822 C 0.97104 0.21978 0.30786 0.0
C823 C 0.96806 0.25805 0.28395 0.0
C824 C 0.94074 0.30179 0.28448 0.0
C825 C 0.92166 0.30849 0.31055 0.0
C826 C 0.99509 0.2524 0.2596 0.0
C827 C 0.9871 0.20861 0.23945 0.0
C828 C 0.03048 0.28897 0.25719 0.0
C829 C 0.05114 0.33161 0.28318 0.0
C830 C 0.04466 0.3794 0.26893 0.0
C831 C 0.06734 0.41914 0.29369 0.0
C832 C 0.09691 0.41146 0.33274 0.0
C833 C 0.10336 0.36416 0.34716 0.0
C834 C 0.08077 0.32434 0.32256 0.0
C835 C 0.03425 0.21863 0.11601 0.0
C836 C 0.08225 0.24424 0.12009 0.0
C837 C 0.02174 0.21703 0.14521 0.0
C838 C 0.059 0.23761 0.18081 0.0
C839 C 0.11016 0.25924 0.18615 0.0
C840 C 0.12137 0.26301 0.15598 0.0
C841 C 0.04151 0.23986 0.21062 0.0
C842 C 0.05114 0.28304 0.2318 0.0
C843 C 1.01158 0.20108 0.21641 0.0
C844 C 1.00741 0.15151 0.20029 0.0
C845 C 0.05681 0.12743 0.20542 0.0
C846 C 0.05269 0.08125 0.18955 0.0
C847 C 0.99944 0.05853 0.16875 0.0
C848 C 0.95021 0.0819 0.16385 0.0
C849 C 0.95405 0.12814 0.17958 0.0
H850 H 0.99634 0.02279 0.15645 0.0
H851 H 0.11532 0.44209 0.35184 0.0
H852 H 0.1377 0.10923 0.87291 0.0
H853 H 0.08291 0.10488 0.80415 0.0
H854 H 0.0216 0.25154 0.79988 0.0
H855 H 0.07857 0.25725 0.86895 0.0
H856 H 0.94755 0.15559 0.73929 0.0
H857 H 0.1164 0.27408 0.79603 0.0
H858 H 0.21806 0.28904 0.8426 0.0
H859 H 0.26526 0.16003 0.80473 0.0
H860 H 0.16366 0.14367 0.75873 0.0
H861 H 0.87666 0.31711 0.60216 0.0
H862 H 0.93976 0.28455 0.66516 0.0
H863 H 0.99572 0.17116 0.61763 0.0
H864 H 0.93223 0.20391 0.55395 0.0
H865 H 0.08078 0.22303 0.69997 0.0
H866 H 0.91758 0.12235 0.62852 0.0
H867 H 0.8173 0.10307 0.58193 0.0
H868 H 0.76094 0.18663 0.64624 0.0
H869 H 0.86071 0.20755 0.69256 0.0
C870 C 0.11115 0.14009 0.85742 0.0
C871 C 0.1137 0.18429 0.87588 0.0
C872 C 0.07977 0.1373 0.81826 0.0
C873 C 0.04971 0.17822 0.79753 0.0
C874 C 0.04524 0.21981 0.81598 0.0
C875 C 0.07751 0.22299 0.85529 0.0
C876 C 0.03268 0.18128 0.7576 0.0
C877 C 0.9765 0.16985 0.73046 0.0
C878 C 0.0718 0.19762 0.74656 0.0
C879 C 0.13259 0.2073 0.77444 0.0
C880 C 0.14845 0.24857 0.79807 0.0
C881 C 0.20603 0.25733 0.82432 0.0
C882 C 0.24812 0.2254 0.82676 0.0
C883 C 0.23266 0.18458 0.80301 0.0
C884 C 0.17509 0.17549 0.77692 0.0
C885 C 0.90408 0.28643 0.6053 0.0
C886 C 0.89946 0.26248 0.57361 0.0
C887 C 0.93992 0.26791 0.64112 0.0
C888 C 0.97105 0.22514 0.64547 0.0
C889 C 0.97158 0.2042 0.61437 0.0
C890 C 0.93568 0.22301 0.57826 0.0
C891 C 0.99469 0.19948 0.68157 0.0
C892 C 0.05222 0.2068 0.7084 0.0
C893 C 0.95707 0.17819 0.69219 0.0
C894 C 0.8967 0.16678 0.6639 0.0
C895 C 0.88376 0.13722 0.63242 0.0
C896 C 0.82697 0.12589 0.60608 0.0
C897 C 0.78273 0.14352 0.61112 0.0
C898 C 0.79516 0.17293 0.64231 0.0
C899 C 0.85186 0.18456 0.66862 0.0
H900 H 0.73888 0.13415 0.59095 0.0
H901 H 0.29269 0.23243 0.84692 0.0
H902 H 0.13158 0.61384 0.66894 0.0
H903 H 0.09874 0.60479 0.71493 0.0
H904 H 0.0914 0.76154 0.72222 0.0
H905 H 0.12453 0.77049 0.67668 0.0
H906 H 0.12735 0.63926 0.78909 0.0
H907 H 0.95212 0.78657 0.71009 0.0
H908 H 0.90366 0.82671 0.64768 0.0
H909 H 0.93855 0.70229 0.59837 0.0
H910 H 0.98331 0.66008 0.65959 0.0
H911 H 0.92087 0.74224 0.85048 0.0
H912 H 0.95474 0.74487 0.80492 0.0
H913 H 0.97526 0.58823 0.81259 0.0
H914 H 0.94258 0.58593 0.85879 0.0
H915 H 0.932 0.70761 0.73728 0.0
H916 H 0.10382 0.55944 0.81751 0.0
H917 H 0.1509 0.52097 0.8806 0.0
H918 H 0.12499 0.65167 0.92846 0.0
H919 H 0.0803 0.69144 0.86625 0.0
C920 C 0.12602 0.64628 0.68197 0.0
C921 C 0.13179 0.69289 0.6697 0.0
C922 C 0.1065 0.64112 0.70794 0.0
C923 C 0.09145 0.68247 0.72162 0.0
C924 C 0.10211 0.72903 0.71192 0.0
C925 C 0.12193 0.73415 0.68626 0.0
C926 C 0.0588 0.67724 0.74225 0.0
C927 C 0.0844 0.65367 0.7775 0.0
C928 C 1.00285 0.69673 0.72755 0.0
C929 C 0.97222 0.72049 0.68978 0.0
C930 C 0.94867 0.76745 0.68581 0.0
C931 C 0.92143 0.79047 0.65051 0.0
C932 C 0.91778 0.76705 0.61898 0.0
C933 C 0.94066 0.72027 0.6226 0.0
C934 C 0.96682 0.69669 0.6576 0.0
C935 C 0.93015 0.70819 0.84114 0.0
C936 C 0.92789 0.66377 0.85768 0.0
C937 C 0.9501 0.70971 0.81529 0.0
C938 C 0.96887 0.66688 0.80571 0.0
C939 C 0.96199 0.62197 0.81981 0.0
C940 C 0.94232 0.62051 0.84578 0.0
C941 C 1.00059 0.66983 0.78423 0.0
C942 C 0.97487 0.69305 0.74881 0.0
C943 C 0.05655 0.65039 0.79886 0.0
C944 C 0.08778 0.62809 0.83704 0.0
C945 C 0.10886 0.58012 0.84162 0.0
C946 C 0.1352 0.55808 0.87727 0.0
C947 C 0.14077 0.58369 0.90853 0.0
C948 C 0.12095 0.63174 0.90436 0.0
C949 C 0.09525 0.65413 0.86892 0.0
H950 H 0.16053 0.56625 0.93597 0.0
H951 H 0.89731 0.78518 0.59179 0.0
loop_
_geom_bond_atom_site_label_1
_geom_bond_atom_site_label_2
_geom_bond_distance
_geom_bond_site_symmetry_2
_ccdc_geom_bond_type
Eu0 O2 2.489 . S
Eu0 O3 2.516 1_556 S
Eu0 O5 2.325 1_556 S
Eu0 O6 2.374 1_556 S
Eu0 C14 2.850 . S
Eu0 O20 2.397 1_556 S
Eu0 O22 2.327 . S
Eu1 O4 2.396 . S
Eu1 O7 2.323 . S
Eu1 O16 2.472 . S
Eu1 O17 2.517 1_554 S
Eu1 O19 2.336 1_554 S
Eu1 O21 2.389 1_554 S
Eu1 C29 2.835 . S
O2 Eu0 2.489 . S
O2 C14 1.258 . S
O3 Eu0 2.516 1_554 S
O3 C14 1.246 1_554 S
O4 Eu1 2.396 . S
O4 C15 1.216 . S
O5 Eu0 2.325 1_554 S
O5 C15 1.279 . S
O6 Eu0 2.374 1_554 S
O6 C18 1.239 . S
O7 Eu1 2.323 . S
O7 C18 1.249 . S
C8 C11 1.390 . S
C8 C13 1.370 . S
C8 C14 1.489 . S
C9 C10 1.344 . S
C9 C12 1.413 . S
C9 H32 0.931 . S
C10 C9 1.344 . S
C10 C11 1.423 . S
C11 C8 1.390 . S
C11 C10 1.423 . S
C11 H33 0.930 1_556 S
C12 C9 1.413 . S
C12 C13 1.397 . S
C13 C8 1.370 . S
C13 C12 1.397 . S
C13 H34 0.932 . S
C14 Eu0 2.850 . S
C14 O2 1.258 . S
C14 O3 1.246 1_556 S
C14 C8 1.489 . S
C15 O4 1.216 . S
C15 O5 1.279 . S
O16 Eu1 2.472 . S
O16 C29 1.258 . S
O17 Eu1 2.517 1_556 S
O17 C29 1.227 1_556 S
C18 O6 1.239 . S
C18 O7 1.249 . S
O19 Eu1 2.336 1_556 S
O19 C30 1.279 1_556 S
O20 Eu0 2.397 1_554 S
O20 C30 1.216 . S
O21 Eu1 2.389 1_556 S
O21 C31 1.239 . S
O22 Eu0 2.327 . S
O22 C31 1.249 . S
C23 C25 1.370 . S
C23 C28 1.390 . S
C23 C29 1.489 . S
C24 C25 1.397 . S
C24 C26 1.413 . S
C25 C23 1.370 . S
C25 C24 1.397 . S
C25 H35 0.932 . S
C26 C24 1.413 . S
C26 C27 1.344 1_455 S
C26 H36 0.943 . S
C27 C26 1.344 1_655 S
C27 C28 1.423 1_655 S
C28 C23 1.390 . S
C28 C27 1.423 1_455 S
C28 H37 0.930 . S
C29 Eu1 2.835 . S
C29 O16 1.258 . S
C29 O17 1.227 1_554 S
C29 C23 1.489 . S
C30 O19 1.279 1_554 S
C30 O20 1.216 . S
C31 O21 1.239 . S
C31 O22 1.249 . S
H32 C9 0.931 . S
H33 C11 0.930 1_554 S
H34 C13 0.932 . S
H35 C25 0.932 . S
H36 C26 0.943 . S
H37 C28 0.930 . S
Eu38 O40 2.489 . S
Eu38 O41 2.516 1_556 S
Eu38 O43 2.325 1_556 S
Eu38 O44 2.374 1_556 S
Eu38 C52 2.850 . S
Eu38 O58 2.397 1_556 S
Eu38 O60 2.327 . S
Eu39 O42 2.396 . S
Eu39 O45 2.323 . S
Eu39 O54 2.472 . S
Eu39 O55 2.517 1_554 S
Eu39 O57 2.336 1_554 S
Eu39 O59 2.389 1_554 S
Eu39 C67 2.835 . S
O40 Eu38 2.489 . S
O40 C52 1.258 . S
O41 Eu38 2.516 1_554 S
O41 C52 1.246 1_554 S
O42 Eu39 2.396 . S
O42 C53 1.216 . S
O43 Eu38 2.325 1_554 S
O43 C53 1.279 . S
O44 Eu38 2.374 1_554 S
O44 C56 1.239 . S
O45 Eu39 2.323 . S
O45 C56 1.249 . S
C46 C49 1.390 . S
C46 C51 1.370 . S
C46 C52 1.489 . S
C47 C48 1.344 1_655 S
C47 C50 1.413 . S
C47 H70 0.942 . S
C48 C47 1.344 1_455 S
C48 C49 1.423 1_455 S
C49 C46 1.390 . S
C49 C48 1.423 1_655 S
C49 H71 0.930 1_556 S
C50 C47 1.413 . S
C50 C51 1.397 . S
C51 C46 1.370 . S
C51 C50 1.397 . S
C51 H72 0.932 . S
C52 Eu38 2.850 . S
C52 O40 1.258 . S
C52 O41 1.246 1_556 S
C52 C46 1.489 . S
C53 O42 1.216 . S
C53 O43 1.279 . S
O54 Eu39 2.472 . S
O54 C67 1.258 . S
O55 Eu39 2.517 1_556 S
O55 C67 1.227 1_556 S
C56 O44 1.239 . S
C56 O45 1.249 . S
O57 Eu39 2.336 1_556 S
O57 C68 1.279 1_556 S
O58 Eu38 2.397 1_554 S
O58 C68 1.216 . S
O59 Eu39 2.389 1_556 S
O59 C69 1.239 . S
O60 Eu38 2.327 . S
O60 C69 1.249 . S
C61 C63 1.370 . S
C61 C66 1.390 . S
C61 C67 1.489 . S
C62 C63 1.397 . S
C62 C64 1.413 . S
C63 C61 1.370 . S
C63 C62 1.397 . S
C63 H73 0.932 . S
C64 C62 1.413 . S
C64 C65 1.344 . S
C64 H74 0.931 . S
C65 C64 1.344 . S
C65 C66 1.423 . S
C66 C61 1.390 . S
C66 C65 1.423 . S
C66 H75 0.930 . S
C67 Eu39 2.835 . S
C67 O54 1.258 . S
C67 O55 1.227 1_554 S
C67 C61 1.489 . S
C68 O57 1.279 1_554 S
C68 O58 1.216 . S
C69 O59 1.239 . S
C69 O60 1.249 . S
H70 C47 0.942 . S
H71 C49 0.930 1_554 S
H72 C51 0.932 . S
H73 C63 0.932 . S
H74 C64 0.931 . S
H75 C66 0.930 . S
Eu76 O78 2.472 . S
Eu76 O79 2.507 . S
Eu76 O81 2.336 . S
Eu76 O82 2.389 . S
Eu76 C90 2.835 . S
Eu76 O96 2.396 . S
Eu76 O98 2.323 . S
Eu77 O80 2.396 . S
Eu77 O83 2.323 . S
Eu77 O92 2.472 . S
Eu77 O93 2.507 . S
Eu77 O95 2.336 . S
Eu77 O97 2.389 . S
Eu77 C105 2.835 . S
O78 Eu76 2.472 . S
O78 C90 1.258 . S
O79 Eu76 2.507 . S
O79 C90 1.246 . S
O80 Eu77 2.396 . S
O80 C91 1.216 . S
O81 Eu76 2.336 . S
O81 C91 1.279 . S
O82 Eu76 2.389 . S
O82 C94 1.239 . S
O83 Eu77 2.323 . S
O83 C94 1.249 . S
C84 C87 1.390 . S
C84 C89 1.370 . S
C84 C90 1.489 . S
C85 C86 1.344 1_455 S
C85 C88 1.413 . S
C85 H108 0.942 . S
C86 C85 1.344 1_655 S
C86 C87 1.423 1_655 S
C87 C84 1.390 . S
C87 C86 1.423 1_455 S
C87 H109 0.930 . S
C88 C85 1.413 . S
C88 C89 1.397 . S
C89 C84 1.370 . S
C89 C88 1.397 . S
C89 H110 0.932 . S
C90 Eu76 2.835 . S
C90 O78 1.258 . S
C90 O79 1.246 . S
C90 C84 1.489 . S
C91 O80 1.216 . S
C91 O81 1.279 . S
O92 Eu77 2.472 . S
O92 C105 1.258 . S
O93 Eu77 2.507 . S
O93 C105 1.246 . S
C94 O82 1.239 . S
C94 O83 1.249 . S
O95 Eu77 2.336 . S
O95 C106 1.279 . S
O96 Eu76 2.396 . S
O96 C106 1.216 . S
O97 Eu77 2.389 . S
O97 C107 1.239 . S
O98 Eu76 2.323 . S
O98 C107 1.249 . S
C99 C101 1.370 . S
C99 C104 1.390 . S
C99 C105 1.489 . S
C100 C101 1.397 . S
C100 C102 1.413 . S
C101 C99 1.370 . S
C101 C100 1.397 . S
C101 H111 0.932 . S
C102 C100 1.413 . S
C102 C103 1.344 . S
C102 H112 0.931 . S
C103 C102 1.344 . S
C103 C104 1.423 . S
C104 C99 1.390 . S
C104 C103 1.423 . S
C104 H113 0.930 . S
C105 Eu77 2.835 . S
C105 O92 1.258 . S
C105 O93 1.246 . S
C105 C99 1.489 . S
C106 O95 1.279 . S
C106 O96 1.216 . S
C107 O97 1.239 . S
C107 O98 1.249 . S
H108 C85 0.942 . S
H109 C87 0.930 . S
H110 C89 0.932 . S
H111 C101 0.932 . S
H112 C102 0.931 . S
H113 C104 0.930 . S
Eu114 O116 2.472 . S
Eu114 O117 2.507 . S
Eu114 O119 2.336 . S
Eu114 O120 2.389 . S
Eu114 C128 2.835 . S
Eu114 O134 2.396 . S
Eu114 O136 2.323 . S
Eu115 O118 2.396 . S
Eu115 O121 2.323 . S
Eu115 O130 2.472 . S
Eu115 O131 2.507 . S
Eu115 O133 2.336 . S
Eu115 O135 2.389 . S
Eu115 C143 2.835 . S
O116 Eu114 2.472 . S
O116 C128 1.258 . S
O117 Eu114 2.507 . S
O117 C128 1.246 . S
O118 Eu115 2.396 . S
O118 C129 1.216 . S
O119 Eu114 2.336 . S
O119 C129 1.279 . S
O120 Eu114 2.389 . S
O120 C132 1.239 . S
O121 Eu115 2.323 . S
O121 C132 1.249 . S
C122 C125 1.390 . S
C122 C127 1.370 . S
C122 C128 1.489 . S
C123 C124 1.344 . S
C123 C126 1.413 . S
C123 H146 0.931 . S
C124 C123 1.344 . S
C124 C125 1.423 . S
C125 C122 1.390 . S
C125 C124 1.423 . S
C125 H147 0.930 . S
C126 C123 1.413 . S
C126 C127 1.397 . S
C127 C122 1.370 . S
C127 C126 1.397 . S
C127 H148 0.932 . S
C128 Eu114 2.835 . S
C128 O116 1.258 . S
C128 O117 1.246 . S
C128 C122 1.489 . S
C129 O118 1.216 . S
C129 O119 1.279 . S
O130 Eu115 2.472 . S
O130 C143 1.258 . S
O131 Eu115 2.507 . S
O131 C143 1.246 . S
C132 O120 1.239 . S
C132 O121 1.249 . S
O133 Eu115 2.336 . S
O133 C144 1.279 . S
O134 Eu114 2.396 . S
O134 C144 1.216 . S
O135 Eu115 2.389 . S
O135 C145 1.239 . S
O136 Eu114 2.323 . S
O136 C145 1.249 . S
C137 C139 1.370 . S
C137 C142 1.390 . S
C137 C143 1.489 . S
C138 C139 1.397 . S
C138 C140 1.413 . S
C139 C137 1.370 . S
C139 C138 1.397 . S
C139 H149 0.932 . S
C140 C138 1.413 . S
C140 C141 1.344 1_655 S
C140 H150 0.943 . S
C141 C140 1.344 1_455 S
C141 C142 1.423 1_455 S
C142 C137 1.390 . S
C142 C141 1.423 1_655 S
C142 H151 0.930 . S
C143 Eu115 2.835 . S
C143 O130 1.258 . S
C143 O131 1.246 . S
C143 C137 1.489 . S
C144 O133 1.279 . S
C144 O134 1.216 . S
C145 O135 1.239 . S
C145 O136 1.249 . S
H146 C123 0.931 . S
H147 C125 0.930 . S
H148 C127 0.932 . S
H149 C139 0.932 . S
H150 C140 0.943 . S
H151 C142 0.930 . S
H152 C170 0.951 . S
H153 C172 0.951 . S
H154 C174 0.950 1_554 S
H155 C175 0.950 . S
H156 C177 0.950 . S
H157 C180 0.950 . S
H158 C181 0.950 . S
H159 C183 0.950 . S
H160 C184 0.950 . S
H161 C185 0.951 . S
H162 C187 0.951 . S
H163 C189 0.950 1_556 S
H164 C190 0.950 . S
H165 C192 0.950 . S
H166 C195 0.950 . S
H167 C196 0.950 . S
H168 C198 0.950 . S
H169 C199 0.950 . S
C170 H152 0.951 . S
C170 C171 1.366 . S
C170 C172 1.388 . S
C171 C170 1.366 . S
C171 C175 1.385 . S
C172 H153 0.951 . S
C172 C170 1.388 . S
C172 C173 1.366 . S
C173 C172 1.366 . S
C173 C174 1.414 . S
C173 C176 1.499 . S
C174 H154 0.950 1_556 S
C174 C173 1.414 . S
C174 C175 1.374 . S
C175 H155 0.950 . S
C175 C171 1.385 . S
C175 C174 1.374 . S
C176 C173 1.499 . S
C176 C177 1.373 . S
C176 C178 1.389 1_556 S
C177 H156 0.950 . S
C177 C176 1.373 . S
C177 C193 1.377 . S
C178 C176 1.389 1_554 S
C178 C179 1.524 . S
C178 C192 1.377 . S
C179 C178 1.524 . S
C179 C180 1.397 . S
C179 C184 1.363 . S
C180 H157 0.950 . S
C180 C179 1.397 . S
C180 C181 1.334 . S
C181 H158 0.950 . S
C181 C180 1.334 . S
C181 C182 1.287 . S
C182 C181 1.287 . S
C182 C183 1.524 . S
C182 H201 0.913 . S
C183 H159 0.950 . S
C183 C182 1.524 . S
C183 C184 1.415 . S
C184 H160 0.950 . S
C184 C179 1.363 . S
C184 C183 1.415 . S
C185 H161 0.951 . S
C185 C186 1.366 . S
C185 C187 1.388 . S
C186 C185 1.366 . S
C186 C190 1.385 . S
C187 H162 0.951 . S
C187 C185 1.388 . S
C187 C188 1.366 . S
C188 C187 1.366 . S
C188 C189 1.414 . S
C188 C191 1.499 . S
C189 H163 0.950 1_554 S
C189 C188 1.414 . S
C189 C190 1.374 . S
C190 H164 0.950 . S
C190 C186 1.385 . S
C190 C189 1.374 . S
C191 C188 1.499 . S
C191 C192 1.373 . S
C191 C193 1.389 1_554 S
C192 H165 0.950 . S
C192 C178 1.377 . S
C192 C191 1.373 . S
C193 C177 1.377 . S
C193 C191 1.389 1_556 S
C193 C194 1.524 . S
C194 C193 1.524 . S
C194 C195 1.397 . S
C194 C199 1.363 . S
C195 H166 0.950 . S
C195 C194 1.397 . S
C195 C196 1.334 . S
C196 H167 0.950 . S
C196 C195 1.334 . S
C196 C197 1.287 . S
C197 C196 1.287 . S
C197 C198 1.524 . S
C197 H200 0.999 . S
C198 H168 0.950 . S
C198 C197 1.524 . S
C198 C199 1.415 . S
C199 H169 0.950 . S
C199 C194 1.363 . S
C199 C198 1.415 . S
H200 C197 0.999 . S
H201 C182 0.913 . S
H202 C220 0.951 . S
H203 C222 0.951 . S
H204 C224 0.950 . S
H205 C225 0.950 . S
H206 C227 0.950 . S
H207 C230 0.950 1_556 S
H208 C231 0.950 . S
H209 C233 0.950 . S
H210 C234 0.950 . S
H211 C235 0.951 . S
H212 C237 0.951 . S
H213 C239 0.950 . S
H214 C240 0.950 . S
H215 C242 0.950 . S
H216 C245 0.950 1_554 S
H217 C246 0.950 . S
H218 C248 0.950 . S
H219 C249 0.950 . S
C220 H202 0.951 . S
C220 C221 1.366 1_554 S
C220 C222 1.388 . S
C221 C220 1.366 1_556 S
C221 C225 1.385 . S
C222 H203 0.951 . S
C222 C220 1.388 . S
C222 C223 1.366 1_554 S
C223 C222 1.366 1_556 S
C223 C224 1.414 . S
C223 C226 1.499 . S
C224 H204 0.950 . S
C224 C223 1.414 . S
C224 C225 1.374 . S
C225 H205 0.950 . S
C225 C221 1.385 . S
C225 C224 1.374 . S
C226 C223 1.499 . S
C226 C227 1.373 . S
C226 C228 1.389 1_556 S
C227 H206 0.950 . S
C227 C226 1.373 . S
C227 C243 1.377 . S
C228 C226 1.389 1_554 S
C228 C229 1.524 . S
C228 C242 1.377 . S
C229 C228 1.524 . S
C229 C230 1.397 . S
C229 C234 1.363 . S
C230 H207 0.950 1_554 S
C230 C229 1.397 . S
C230 C231 1.334 . S
C231 H208 0.950 . S
C231 C230 1.334 . S
C231 C232 1.287 . S
C232 C231 1.287 . S
C232 C233 1.524 . S
C232 H251 0.913 . S
C233 H209 0.950 . S
C233 C232 1.524 . S
C233 C234 1.415 . S
C234 H210 0.950 . S
C234 C229 1.363 . S
C234 C233 1.415 . S
C235 H211 0.951 . S
C235 C236 1.366 1_556 S
C235 C237 1.388 . S
C236 C235 1.366 1_554 S
C236 C240 1.385 . S
C237 H212 0.951 . S
C237 C235 1.388 . S
C237 C238 1.366 1_556 S
C238 C237 1.366 1_554 S
C238 C239 1.414 . S
C238 C241 1.499 . S
C239 H213 0.950 . S
C239 C238 1.414 . S
C239 C240 1.374 . S
C240 H214 0.950 . S
C240 C236 1.385 . S
C240 C239 1.374 . S
C241 C238 1.499 . S
C241 C242 1.373 . S
C241 C243 1.389 1_554 S
C242 H215 0.950 . S
C242 C228 1.377 . S
C242 C241 1.373 . S
C243 C227 1.377 . S
C243 C241 1.389 1_556 S
C243 C244 1.524 . S
C244 C243 1.524 . S
C244 C245 1.397 . S
C244 C249 1.363 . S
C245 H216 0.950 1_556 S
C245 C244 1.397 . S
C245 C246 1.334 . S
C246 H217 0.950 . S
C246 C245 1.334 . S
C246 C247 1.287 . S
C247 C246 1.287 . S
C247 C248 1.524 . S
C247 H250 0.999 . S
C248 H218 0.950 . S
C248 C247 1.524 . S
C248 C249 1.415 . S
C249 H219 0.950 . S
C249 C244 1.363 . S
C249 C248 1.415 . S
H250 C247 0.999 . S
H251 C232 0.913 . S
H252 C270 0.951 . S
H253 C272 0.951 . S
H254 C274 0.950 . S
H255 C275 0.950 . S
H256 C277 0.950 . S
H257 C280 0.950 . S
H258 C281 0.950 . S
H259 C283 0.950 . S
H260 C284 0.950 . S
H261 C285 0.951 . S
H262 C287 0.951 . S
H263 C289 0.950 . S
H264 C290 0.950 . S
H265 C292 0.950 . S
H266 C295 0.950 . S
H267 C296 0.950 . S
H268 C298 0.950 . S
H269 C299 0.950 . S
C270 H252 0.951 . S
C270 C271 1.366 . S
C270 C272 1.388 . S
C271 C270 1.366 . S
C271 C275 1.385 . S
C272 H253 0.951 . S
C272 C270 1.388 . S
C272 C273 1.366 . S
C273 C272 1.366 . S
C273 C274 1.414 . S
C273 C276 1.499 . S
C274 H254 0.950 . S
C274 C273 1.414 . S
C274 C275 1.374 . S
C275 H255 0.950 . S
C275 C271 1.385 . S
C275 C274 1.374 . S
C276 C273 1.499 . S
C276 C277 1.373 . S
C276 C278 1.389 . S
C277 H256 0.950 . S
C277 C276 1.373 . S
C277 C293 1.377 . S
C278 C276 1.389 . S
C278 C279 1.524 . S
C278 C292 1.377 . S
C279 C278 1.524 . S
C279 C280 1.397 . S
C279 C284 1.363 . S
C280 H257 0.950 . S
C280 C279 1.397 . S
C280 C281 1.334 . S
C281 H258 0.950 . S
C281 C280 1.334 . S
C281 C282 1.287 . S
C282 C281 1.287 . S
C282 C283 1.524 . S
C282 H301 0.913 . S
C283 H259 0.950 . S
C283 C282 1.524 . S
C283 C284 1.415 . S
C284 H260 0.950 . S
C284 C279 1.363 . S
C284 C283 1.415 . S
C285 H261 0.951 . S
C285 C286 1.366 . S
C285 C287 1.388 . S
C286 C285 1.366 . S
C286 C290 1.385 . S
C287 H262 0.951 . S
C287 C285 1.388 . S
C287 C288 1.366 . S
C288 C287 1.366 . S
C288 C289 1.414 . S
C288 C291 1.499 . S
C289 H263 0.950 . S
C289 C288 1.414 . S
C289 C290 1.374 . S
C290 H264 0.950 . S
C290 C286 1.385 . S
C290 C289 1.374 . S
C291 C288 1.499 . S
C291 C292 1.373 . S
C291 C293 1.389 . S
C292 H265 0.950 . S
C292 C278 1.377 . S
C292 C291 1.373 . S
C293 C277 1.377 . S
C293 C291 1.389 . S
C293 C294 1.524 . S
C294 C293 1.524 . S
C294 C295 1.397 . S
C294 C299 1.363 . S
C295 H266 0.950 . S
C295 C294 1.397 . S
C295 C296 1.334 . S
C296 H267 0.950 . S
C296 C295 1.334 . S
C296 C297 1.287 . S
C297 C296 1.287 . S
C297 C298 1.524 . S
C297 H300 0.999 . S
C298 H268 0.950 . S
C298 C297 1.524 . S
C298 C299 1.415 . S
C299 H269 0.950 . S
C299 C294 1.363 . S
C299 C298 1.415 . S
H300 C297 0.999 . S
H301 C282 0.913 . S
H302 C320 0.951 . S
H303 C322 0.951 . S
H304 C324 0.950 . S
H305 C325 0.950 . S
H306 C327 0.950 . S
H307 C330 0.950 . S
H308 C331 0.950 . S
H309 C333 0.950 . S
H310 C334 0.950 . S
H311 C335 0.951 . S
H312 C337 0.951 . S
H313 C339 0.950 . S
H314 C340 0.950 . S
H315 C342 0.950 . S
H316 C345 0.950 . S
H317 C346 0.950 . S
H318 C348 0.950 . S
H319 C349 0.950 . S
C320 H302 0.951 . S
C320 C321 1.366 . S
C320 C322 1.388 . S
C321 C320 1.366 . S
C321 C325 1.385 . S
C322 H303 0.951 . S
C322 C320 1.388 . S
C322 C323 1.366 . S
C323 C322 1.366 . S
C323 C324 1.414 . S
C323 C326 1.499 . S
C324 H304 0.950 . S
C324 C323 1.414 . S
C324 C325 1.374 . S
C325 H305 0.950 . S
C325 C321 1.385 . S
C325 C324 1.374 . S
C326 C323 1.499 . S
C326 C327 1.373 . S
C326 C328 1.389 . S
C327 H306 0.950 . S
C327 C326 1.373 . S
C327 C343 1.377 . S
C328 C326 1.389 . S
C328 C329 1.524 . S
C328 C342 1.377 . S
C329 C328 1.524 . S
C329 C330 1.397 . S
C329 C334 1.363 . S
C330 H307 0.950 . S
C330 C329 1.397 . S
C330 C331 1.334 . S
C331 H308 0.950 . S
C331 C330 1.334 . S
C331 C332 1.287 . S
C332 C331 1.287 . S
C332 C333 1.524 . S
C332 H351 0.913 . S
C333 H309 0.950 . S
C333 C332 1.524 . S
C333 C334 1.415 . S
C334 H310 0.950 . S
C334 C329 1.363 . S
C334 C333 1.415 . S
C335 H311 0.951 . S
C335 C336 1.366 . S
C335 C337 1.388 . S
C336 C335 1.366 . S
C336 C340 1.385 . S
C337 H312 0.951 . S
C337 C335 1.388 . S
C337 C338 1.366 . S
C338 C337 1.366 . S
C338 C339 1.414 . S
C338 C341 1.499 . S
C339 H313 0.950 . S
C339 C338 1.414 . S
C339 C340 1.374 . S
C340 H314 0.950 . S
C340 C336 1.385 . S
C340 C339 1.374 . S
C341 C338 1.499 . S
C341 C342 1.373 . S
C341 C343 1.389 . S
C342 H315 0.950 . S
C342 C328 1.377 . S
C342 C341 1.373 . S
C343 C327 1.377 . S
C343 C341 1.389 . S
C343 C344 1.524 . S
C344 C343 1.524 . S
C344 C345 1.397 . S
C344 C349 1.363 . S
C345 H316 0.950 . S
C345 C344 1.397 . S
C345 C346 1.334 . S
C346 H317 0.950 . S
C346 C345 1.334 . S
C346 C347 1.287 . S
C347 C346 1.287 . S
C347 C348 1.524 . S
C347 H350 0.999 . S
C348 H318 0.950 . S
C348 C347 1.524 . S
C348 C349 1.415 . S
C349 H319 0.950 . S
C349 C344 1.363 . S
C349 C348 1.415 . S
H350 C347 0.999 . S
H351 C332 0.913 . S
H352 C370 0.951 . S
H353 C372 0.951 . S
H354 C374 0.950 . S
H355 C375 0.950 . S
H356 C377 0.950 . S
H357 C380 0.950 . S
H358 C381 0.950 . S
H359 C383 0.950 . S
H360 C384 0.950 . S
H361 C385 0.951 . S
H362 C387 0.951 . S
H363 C389 0.950 . S
H364 C390 0.950 . S
H365 C392 0.950 . S
H366 C395 0.950 . S
H367 C396 0.950 . S
H368 C398 0.950 . S
H369 C399 0.950 . S
C370 H352 0.951 . S
C370 C371 1.366 1_556 S
C370 C372 1.388 . S
C371 C370 1.366 1_554 S
C371 C375 1.385 . S
C372 H353 0.951 . S
C372 C370 1.388 . S
C372 C373 1.344 1_556 S
C373 C372 1.344 1_554 S
C373 C374 1.425 . S
C373 C376 1.509 . S
C374 H354 0.950 . S
C374 C373 1.425 . S
C374 C375 1.374 . S
C375 H355 0.950 . S
C375 C371 1.385 . S
C375 C374 1.374 . S
C376 C373 1.509 . S
C376 C377 1.373 . S
C376 C378 1.389 1_554 S
C377 H356 0.950 . S
C377 C376 1.373 . S
C377 C393 1.377 . S
C378 C376 1.389 1_556 S
C378 C379 1.524 . S
C378 C392 1.377 . S
C379 C378 1.524 . S
C379 C380 1.397 . S
C379 C384 1.363 . S
C380 H357 0.950 . S
C380 C379 1.397 . S
C380 C381 1.334 . S
C381 H358 0.950 . S
C381 C380 1.334 . S
C381 C382 1.287 . S
C382 C381 1.287 . S
C382 C383 1.524 . S
C382 H401 0.913 . S
C383 H359 0.950 . S
C383 C382 1.524 . S
C383 C384 1.415 . S
C384 H360 0.950 . S
C384 C379 1.363 . S
C384 C383 1.415 . S
C385 H361 0.951 . S
C385 C386 1.366 . S
C385 C387 1.388 . S
C386 C385 1.366 . S
C386 C390 1.385 1_554 S
C387 H362 0.951 . S
C387 C385 1.388 . S
C387 C388 1.366 . S
C388 C387 1.366 . S
C388 C389 1.414 1_554 S
C388 C391 1.499 . S
C389 H363 0.950 . S
C389 C388 1.414 1_556 S
C389 C390 1.374 . S
C390 H364 0.950 . S
C390 C386 1.385 1_556 S
C390 C389 1.374 . S
C391 C388 1.499 . S
C391 C392 1.373 1_554 S
C391 C393 1.389 . S
C392 H365 0.950 . S
C392 C378 1.377 . S
C392 C391 1.373 1_556 S
C393 C377 1.377 . S
C393 C391 1.389 . S
C393 C394 1.524 . S
C394 C393 1.524 . S
C394 C395 1.397 . S
C394 C399 1.363 . S
C395 H366 0.950 . S
C395 C394 1.397 . S
C395 C396 1.334 . S
C396 H367 0.950 . S
C396 C395 1.334 . S
C396 C397 1.287 . S
C397 C396 1.287 . S
C397 C398 1.524 . S
C397 H400 0.999 . S
C398 H368 0.950 . S
C398 C397 1.524 . S
C398 C399 1.415 . S
C399 H369 0.950 . S
C399 C394 1.363 . S
C399 C398 1.415 . S
H400 C397 0.999 . S
H401 C382 0.913 . S
H402 C420 0.951 . S
H403 C422 0.951 . S
H404 C424 0.950 . S
H405 C425 0.950 . S
H406 C427 0.950 . S
H407 C430 0.950 . S
H408 C431 0.950 . S
H409 C433 0.950 . S
H410 C434 0.950 . S
H411 C435 0.951 . S
H412 C437 0.951 . S
H413 C439 0.950 . S
H414 C440 0.950 . S
H415 C442 0.950 . S
H416 C445 0.950 . S
H417 C446 0.950 . S
H418 C448 0.950 . S
H419 C449 0.950 . S
C420 H402 0.951 . S
C420 C421 1.366 . S
C420 C422 1.388 . S
C421 C420 1.366 . S
C421 C425 1.385 . S
C422 H403 0.951 . S
C422 C420 1.388 . S
C422 C423 1.366 . S
C423 C422 1.366 . S
C423 C424 1.414 . S
C423 C426 1.499 . S
C424 H404 0.950 . S
C424 C423 1.414 . S
C424 C425 1.374 . S
C425 H405 0.950 . S
C425 C421 1.385 . S
C425 C424 1.374 . S
C426 C423 1.499 . S
C426 C427 1.373 . S
C426 C428 1.389 . S
C427 H406 0.950 . S
C427 C426 1.373 . S
C427 C443 1.377 . S
C428 C426 1.389 . S
C428 C429 1.524 . S
C428 C442 1.377 . S
C429 C428 1.524 . S
C429 C430 1.397 . S
C429 C434 1.363 . S
C430 H407 0.950 . S
C430 C429 1.397 . S
C430 C431 1.334 . S
C431 H408 0.950 . S
C431 C430 1.334 . S
C431 C432 1.287 . S
C432 C431 1.287 . S
C432 C433 1.524 . S
C432 H451 0.913 . S
C433 H409 0.950 . S
C433 C432 1.524 . S
C433 C434 1.415 . S
C434 H410 0.950 . S
C434 C429 1.363 . S
C434 C433 1.415 . S
C435 H411 0.951 . S
C435 C436 1.366 . S
C435 C437 1.388 . S
C436 C435 1.366 . S
C436 C440 1.385 . S
C437 H412 0.951 . S
C437 C435 1.388 . S
C437 C438 1.366 . S
C438 C437 1.366 . S
C438 C439 1.414 . S
C438 C441 1.499 . S
C439 H413 0.950 . S
C439 C438 1.414 . S
C439 C440 1.374 . S
C440 H414 0.950 . S
C440 C436 1.385 . S
C440 C439 1.374 . S
C441 C438 1.499 . S
C441 C442 1.373 . S
C441 C443 1.389 . S
C442 H415 0.950 . S
C442 C428 1.377 . S
C442 C441 1.373 . S
C443 C427 1.377 . S
C443 C441 1.389 . S
C443 C444 1.524 . S
C444 C443 1.524 . S
C444 C445 1.397 . S
C444 C449 1.363 . S
C445 H416 0.950 . S
C445 C444 1.397 . S
C445 C446 1.334 . S
C446 H417 0.950 . S
C446 C445 1.334 . S
C446 C447 1.287 . S
C447 C446 1.287 . S
C447 C448 1.524 . S
C447 H450 0.999 . S
C448 H418 0.950 . S
C448 C447 1.524 . S
C448 C449 1.415 . S
C449 H419 0.950 . S
C449 C444 1.363 . S
C449 C448 1.415 . S
H450 C447 0.999 . S
H451 C432 0.913 . S
H452 C470 0.951 . S
H453 C472 0.951 . S
H454 C474 0.950 . S
H455 C475 0.950 . S
H456 C477 0.950 . S
H457 C480 0.950 . S
H458 C481 0.950 . S
H459 C483 0.950 . S
H460 C484 0.950 . S
H461 C485 0.951 . S
H462 C487 0.951 . S
H463 C489 0.950 . S
H464 C490 0.950 . S
H465 C492 0.950 . S
H466 C495 0.950 . S
H467 C496 0.950 . S
H468 C498 0.950 . S
H469 C499 0.950 . S
C470 H452 0.951 . S
C470 C471 1.369 1_554 S
C470 C472 1.388 . S
C471 C470 1.369 1_556 S
C471 C475 1.384 . S
C472 H453 0.951 . S
C472 C470 1.388 . S
C472 C473 1.366 . S
C473 C472 1.366 . S
C473 C474 1.414 1_554 S
C473 C476 1.499 . S
C474 H454 0.950 . S
C474 C473 1.414 1_556 S
C474 C475 1.374 . S
C475 H455 0.950 . S
C475 C471 1.384 . S
C475 C474 1.374 . S
C476 C473 1.499 . S
C476 C477 1.371 1_544 S
C476 C478 1.389 . S
C477 H456 0.950 . S
C477 C476 1.371 1_566 S
C477 C493 1.379 1_455 S
C478 C476 1.389 . S
C478 C479 1.524 . S
C478 C492 1.379 1_455 S
C479 C478 1.524 . S
C479 C480 1.397 . S
C479 C484 1.363 . S
C480 H457 0.950 . S
C480 C479 1.397 . S
C480 C481 1.334 . S
C481 H458 0.950 . S
C481 C480 1.334 . S
C481 C482 1.287 . S
C482 C481 1.287 . S
C482 C483 1.524 . S
C482 H501 0.913 . S
C483 H459 0.950 . S
C483 C482 1.524 . S
C483 C484 1.415 . S
C484 H460 0.950 . S
C484 C479 1.363 . S
C484 C483 1.415 . S
C485 H461 0.951 . S
C485 C486 1.366 1_556 S
C485 C487 1.388 . S
C486 C485 1.366 1_554 S
C486 C490 1.385 . S
C487 H462 0.951 . S
C487 C485 1.388 . S
C487 C488 1.366 1_556 S
C488 C487 1.366 1_554 S
C488 C489 1.414 . S
C488 C491 1.499 . S
C489 H463 0.950 . S
C489 C488 1.414 . S
C489 C490 1.374 . S
C490 H464 0.950 . S
C490 C486 1.385 . S
C490 C489 1.374 . S
C491 C488 1.499 . S
C491 C492 1.371 1_565 S
C491 C493 1.389 1_554 S
C492 H465 0.950 . S
C492 C478 1.379 1_655 S
C492 C491 1.371 1_545 S
C493 C477 1.379 1_655 S
C493 C491 1.389 1_556 S
C493 C494 1.524 . S
C494 C493 1.524 . S
C494 C495 1.397 . S
C494 C499 1.363 . S
C495 H466 0.950 . S
C495 C494 1.397 . S
C495 C496 1.334 . S
C496 H467 0.950 . S
C496 C495 1.334 . S
C496 C497 1.287 . S
C497 C496 1.287 . S
C497 C498 1.524 . S
C497 H500 0.999 . S
C498 H468 0.950 . S
C498 C497 1.524 . S
C498 C499 1.415 . S
C499 H469 0.950 . S
C499 C494 1.363 . S
C499 C498 1.415 . S
H500 C497 0.999 . S
H501 C482 0.913 . S
H502 C520 0.951 . S
H503 C522 0.951 . S
H504 C524 0.950 . S
H505 C525 0.950 . S
H506 C527 0.950 . S
H507 C530 0.950 . S
H508 C531 0.950 . S
H509 C533 0.950 . S
H510 C534 0.950 . S
H511 C535 0.951 . S
H512 C537 0.951 . S
H513 C539 0.950 . S
H514 C540 0.950 . S
H515 C542 0.950 . S
H516 C545 0.950 . S
H517 C546 0.950 . S
H518 C548 0.950 . S
H519 C549 0.950 . S
C520 H502 0.951 . S
C520 C521 1.366 . S
C520 C522 1.388 . S
C521 C520 1.366 . S
C521 C525 1.385 . S
C522 H503 0.951 . S
C522 C520 1.388 . S
C522 C523 1.366 . S
C523 C522 1.366 . S
C523 C524 1.414 . S
C523 C526 1.499 . S
C524 H504 0.950 . S
C524 C523 1.414 . S
C524 C525 1.374 . S
C525 H505 0.950 . S
C525 C521 1.385 . S
C525 C524 1.374 . S
C526 C523 1.499 . S
C526 C527 1.373 1_655 S
C526 C528 1.389 1_545 S
C527 H506 0.950 . S
C527 C526 1.373 1_455 S
C527 C543 1.377 . S
C528 C526 1.389 1_565 S
C528 C529 1.524 . S
C528 C542 1.377 . S
C529 C528 1.524 . S
C529 C530 1.397 . S
C529 C534 1.363 . S
C530 H507 0.950 . S
C530 C529 1.397 . S
C530 C531 1.334 . S
C531 H508 0.950 . S
C531 C530 1.334 . S
C531 C532 1.287 . S
C532 C531 1.287 . S
C532 C533 1.524 . S
C532 H551 0.913 . S
C533 H509 0.950 . S
C533 C532 1.524 . S
C533 C534 1.415 . S
C534 H510 0.950 . S
C534 C529 1.363 . S
C534 C533 1.415 . S
C535 H511 0.951 . S
C535 C536 1.366 . S
C535 C537 1.388 . S
C536 C535 1.366 . S
C536 C540 1.385 . S
C537 H512 0.951 . S
C537 C535 1.388 . S
C537 C538 1.366 . S
C538 C537 1.366 . S
C538 C539 1.414 . S
C538 C541 1.499 . S
C539 H513 0.950 . S
C539 C538 1.414 . S
C539 C540 1.374 . S
C540 H514 0.950 . S
C540 C536 1.385 . S
C540 C539 1.374 . S
C541 C538 1.499 . S
C541 C542 1.373 1_455 S
C541 C543 1.389 1_565 S
C542 H515 0.950 . S
C542 C528 1.377 . S
C542 C541 1.373 1_655 S
C543 C527 1.377 . S
C543 C541 1.389 1_545 S
C543 C544 1.524 . S
C544 C543 1.524 . S
C544 C545 1.397 . S
C544 C549 1.363 . S
C545 H516 0.950 . S
C545 C544 1.397 . S
C545 C546 1.334 . S
C546 H517 0.950 . S
C546 C545 1.334 . S
C546 C547 1.287 . S
C547 C546 1.287 . S
C547 C548 1.524 . S
C547 H550 0.999 . S
C548 H518 0.950 . S
C548 C547 1.524 . S
C548 C549 1.415 . S
C549 H519 0.950 . S
C549 C544 1.363 . S
C549 C548 1.415 . S
H550 C547 0.999 . S
H551 C532 0.913 . S
H552 C570 0.951 . S
H553 C572 0.951 . S
H554 C574 0.950 . S
H555 C575 0.950 . S
H556 C577 0.950 . S
H557 C580 0.950 . S
H558 C581 0.950 . S
H559 C583 0.950 . S
H560 C584 0.950 . S
H561 C585 0.951 . S
H562 C587 0.951 . S
H563 C589 0.950 . S
H564 C590 0.950 . S
H565 C592 0.950 . S
H566 C595 0.950 . S
H567 C596 0.950 . S
H568 C598 0.950 . S
H569 C599 0.950 . S
C570 H552 0.951 . S
C570 C571 1.366 . S
C570 C572 1.388 . S
C571 C570 1.366 . S
C571 C575 1.385 . S
C572 H553 0.951 . S
C572 C570 1.388 . S
C572 C573 1.366 . S
C573 C572 1.366 . S
C573 C574 1.414 . S
C573 C576 1.499 . S
C574 H554 0.950 . S
C574 C573 1.414 . S
C574 C575 1.374 . S
C575 H555 0.950 . S
C575 C571 1.385 . S
C575 C574 1.374 . S
C576 C573 1.499 . S
C576 C577 1.373 . S
C576 C578 1.389 . S
C577 H556 0.950 . S
C577 C576 1.373 . S
C577 C593 1.377 . S
C578 C576 1.389 . S
C578 C579 1.524 . S
C578 C592 1.377 . S
C579 C578 1.524 . S
C579 C580 1.397 . S
C579 C584 1.363 . S
C580 H557 0.950 . S
C580 C579 1.397 . S
C580 C581 1.334 . S
C581 H558 0.950 . S
C581 C580 1.334 . S
C581 C582 1.287 . S
C582 C581 1.287 . S
C582 C583 1.524 . S
C582 H601 0.913 . S
C583 H559 0.950 . S
C583 C582 1.524 . S
C583 C584 1.415 . S
C584 H560 0.950 . S
C584 C579 1.363 . S
C584 C583 1.415 . S
C585 H561 0.951 . S
C585 C586 1.366 . S
C585 C587 1.388 . S
C586 C585 1.366 . S
C586 C590 1.385 . S
C587 H562 0.951 . S
C587 C585 1.388 . S
C587 C588 1.366 . S
C588 C587 1.366 . S
C588 C589 1.414 . S
C588 C591 1.499 . S
C589 H563 0.950 . S
C589 C588 1.414 . S
C589 C590 1.374 . S
C590 H564 0.950 . S
C590 C586 1.385 . S
C590 C589 1.374 . S
C591 C588 1.499 . S
C591 C592 1.373 . S
C591 C593 1.389 . S
C592 H565 0.950 . S
C592 C578 1.377 . S
C592 C591 1.373 . S
C593 C577 1.377 . S
C593 C591 1.389 . S
C593 C594 1.524 . S
C594 C593 1.524 . S
C594 C595 1.397 . S
C594 C599 1.363 . S
C595 H566 0.950 . S
C595 C594 1.397 . S
C595 C596 1.334 . S
C596 H567 0.950 . S
C596 C595 1.334 . S
C596 C597 1.287 . S
C597 C596 1.287 . S
C597 C598 1.524 . S
C597 H600 0.999 . S
C598 H568 0.950 . S
C598 C597 1.524 . S
C598 C599 1.415 . S
C599 H569 0.950 . S
C599 C594 1.363 . S
C599 C598 1.415 . S
H600 C597 0.999 . S
H601 C582 0.913 . S
H602 C620 0.951 . S
H603 C622 0.951 . S
H604 C624 0.950 . S
H605 C625 0.950 . S
H606 C627 0.950 . S
H607 C630 0.950 . S
H608 C631 0.950 . S
H609 C633 0.950 . S
H610 C634 0.950 . S
H611 C635 0.951 . S
H612 C637 0.951 . S
H613 C639 0.950 . S
H614 C640 0.950 . S
H615 C642 0.950 . S
H616 C645 0.950 . S
H617 C646 0.950 . S
H618 C648 0.950 . S
H619 C649 0.950 . S
C620 H602 0.951 . S
C620 C621 1.366 . S
C620 C622 1.388 . S
C621 C620 1.366 . S
C621 C625 1.385 . S
C622 H603 0.951 . S
C622 C620 1.388 . S
C622 C623 1.366 . S
C623 C622 1.366 . S
C623 C624 1.414 . S
C623 C626 1.499 . S
C624 H604 0.950 . S
C624 C623 1.414 . S
C624 C625 1.374 . S
C625 H605 0.950 . S
C625 C621 1.385 . S
C625 C624 1.374 . S
C626 C623 1.499 . S
C626 C627 1.373 . S
C626 C628 1.389 . S
C627 H606 0.950 . S
C627 C626 1.373 . S
C627 C643 1.377 . S
C628 C626 1.389 . S
C628 C629 1.524 . S
C628 C642 1.377 . S
C629 C628 1.524 . S
C629 C630 1.397 . S
C629 C634 1.363 . S
C630 H607 0.950 . S
C630 C629 1.397 . S
C630 C631 1.334 . S
C631 H608 0.950 . S
C631 C630 1.334 . S
C631 C632 1.287 . S
C632 C631 1.287 . S
C632 C633 1.524 . S
C632 H651 0.913 . S
C633 H609 0.950 . S
C633 C632 1.524 . S
C633 C634 1.415 . S
C634 H610 0.950 . S
C634 C629 1.363 . S
C634 C633 1.415 . S
C635 H611 0.951 . S
C635 C636 1.366 . S
C635 C637 1.388 . S
C636 C635 1.366 . S
C636 C640 1.385 . S
C637 H612 0.951 . S
C637 C635 1.388 . S
C637 C638 1.366 . S
C638 C637 1.366 . S
C638 C639 1.414 . S
C638 C641 1.499 . S
C639 H613 0.950 . S
C639 C638 1.414 . S
C639 C640 1.374 . S
C640 H614 0.950 . S
C640 C636 1.385 . S
C640 C639 1.374 . S
C641 C638 1.499 . S
C641 C642 1.373 . S
C641 C643 1.389 . S
C642 H615 0.950 . S
C642 C628 1.377 . S
C642 C641 1.373 . S
C643 C627 1.377 . S
C643 C641 1.389 . S
C643 C644 1.524 . S
C644 C643 1.524 . S
C644 C645 1.397 . S
C644 C649 1.363 . S
C645 H616 0.950 . S
C645 C644 1.397 . S
C645 C646 1.334 . S
C646 H617 0.950 . S
C646 C645 1.334 . S
C646 C647 1.287 . S
C647 C646 1.287 . S
C647 C648 1.524 . S
C647 H650 0.999 . S
C648 H618 0.950 . S
C648 C647 1.524 . S
C648 C649 1.415 . S
C649 H619 0.950 . S
C649 C644 1.363 . S
C649 C648 1.415 . S
H650 C647 0.999 . S
H651 C632 0.913 . S
H652 C670 0.951 . S
H653 C672 0.951 . S
H654 C674 0.950 . S
H655 C675 0.950 . S
H656 C677 0.950 . S
H657 C680 0.950 . S
H658 C681 0.950 . S
H659 C683 0.950 . S
H660 C684 0.950 . S
H661 C685 0.951 . S
H662 C687 0.951 . S
H663 C689 0.950 . S
H664 C690 0.950 . S
H665 C692 0.950 . S
H666 C695 0.950 . S
H667 C696 0.950 . S
H668 C698 0.950 . S
H669 C699 0.950 . S
C670 H652 0.951 . S
C670 C671 1.366 . S
C670 C672 1.388 . S
C671 C670 1.366 . S
C671 C675 1.385 . S
C672 H653 0.951 . S
C672 C670 1.388 . S
C672 C673 1.366 . S
C673 C672 1.366 . S
C673 C674 1.414 . S
C673 C676 1.499 . S
C674 H654 0.950 . S
C674 C673 1.414 . S
C674 C675 1.374 . S
C675 H655 0.950 . S
C675 C671 1.385 . S
C675 C674 1.374 . S
C676 C673 1.499 . S
C676 C677 1.373 . S
C676 C678 1.389 . S
C677 H656 0.950 . S
C677 C676 1.373 . S
C677 C693 1.377 . S
C678 C676 1.389 . S
C678 C679 1.524 . S
C678 C692 1.377 . S
C679 C678 1.524 . S
C679 C680 1.397 . S
C679 C684 1.363 . S
C680 H657 0.950 . S
C680 C679 1.397 . S
C680 C681 1.334 . S
C681 H658 0.950 . S
C681 C680 1.334 . S
C681 C682 1.287 . S
C682 C681 1.287 . S
C682 C683 1.524 . S
C682 H701 0.913 . S
C683 H659 0.950 . S
C683 C682 1.524 . S
C683 C684 1.415 . S
C684 H660 0.950 . S
C684 C679 1.363 . S
C684 C683 1.415 . S
C685 H661 0.951 . S
C685 C686 1.366 . S
C685 C687 1.388 . S
C686 C685 1.366 . S
C686 C690 1.385 . S
C687 H662 0.951 . S
C687 C685 1.388 . S
C687 C688 1.366 . S
C688 C687 1.366 . S
C688 C689 1.414 . S
C688 C691 1.499 . S
C689 H663 0.950 . S
C689 C688 1.414 . S
C689 C690 1.374 . S
C690 H664 0.950 . S
C690 C686 1.385 . S
C690 C689 1.374 . S
C691 C688 1.499 . S
C691 C692 1.373 . S
C691 C693 1.389 . S
C692 H665 0.950 . S
C692 C678 1.377 . S
C692 C691 1.373 . S
C693 C677 1.377 . S
C693 C691 1.389 . S
C693 C694 1.524 . S
C694 C693 1.524 . S
C694 C695 1.397 . S
C694 C699 1.363 . S
C695 H666 0.950 . S
C695 C694 1.397 . S
C695 C696 1.334 . S
C696 H667 0.950 . S
C696 C695 1.334 . S
C696 C697 1.287 . S
C697 C696 1.287 . S
C697 C698 1.524 . S
C697 H700 0.999 . S
C698 H668 0.950 . S
C698 C697 1.524 . S
C698 C699 1.415 . S
C699 H669 0.950 . S
C699 C694 1.363 . S
C699 C698 1.415 . S
H700 C697 0.999 . S
H701 C682 0.913 . S
H702 C720 0.951 . S
H703 C722 0.951 . S
H704 C724 0.950 . S
H705 C725 0.950 . S
H706 C727 0.950 . S
H707 C730 0.950 . S
H708 C731 0.950 . S
H709 C733 0.950 . S
H710 C734 0.950 . S
H711 C735 0.951 . S
H712 C737 0.951 . S
H713 C739 0.950 . S
H714 C740 0.950 . S
H715 C742 0.950 . S
H716 C745 0.950 . S
H717 C746 0.950 . S
H718 C748 0.950 . S
H719 C749 0.950 . S
C720 H702 0.951 . S
C720 C721 1.366 . S
C720 C722 1.388 . S
C721 C720 1.366 . S
C721 C725 1.385 . S
C722 H703 0.951 . S
C722 C720 1.388 . S
C722 C723 1.366 . S
C723 C722 1.366 . S
C723 C724 1.414 . S
C723 C726 1.499 . S
C724 H704 0.950 . S
C724 C723 1.414 . S
C724 C725 1.374 . S
C725 H705 0.950 . S
C725 C721 1.385 . S
C725 C724 1.374 . S
C726 C723 1.499 . S
C726 C727 1.373 . S
C726 C728 1.389 . S
C727 H706 0.950 . S
C727 C726 1.373 . S
C727 C743 1.377 . S
C728 C726 1.389 . S
C728 C729 1.524 . S
C728 C742 1.377 . S
C729 C728 1.524 . S
C729 C730 1.397 . S
C729 C734 1.363 . S
C730 H707 0.950 . S
C730 C729 1.397 . S
C730 C731 1.334 . S
C731 H708 0.950 . S
C731 C730 1.334 . S
C731 C732 1.287 . S
C732 C731 1.287 . S
C732 C733 1.524 . S
C732 H751 0.913 . S
C733 H709 0.950 . S
C733 C732 1.524 . S
C733 C734 1.415 . S
C734 H710 0.950 . S
C734 C729 1.363 . S
C734 C733 1.415 . S
C735 H711 0.951 . S
C735 C736 1.366 . S
C735 C737 1.388 . S
C736 C735 1.366 . S
C736 C740 1.385 . S
C737 H712 0.951 . S
C737 C735 1.388 . S
C737 C738 1.366 . S
C738 C737 1.366 . S
C738 C739 1.414 . S
C738 C741 1.499 . S
C739 H713 0.950 . S
C739 C738 1.414 . S
C739 C740 1.374 . S
C740 H714 0.950 . S
C740 C736 1.385 . S
C740 C739 1.374 . S
C741 C738 1.499 . S
C741 C742 1.373 . S
C741 C743 1.389 . S
C742 H715 0.950 . S
C742 C728 1.377 . S
C742 C741 1.373 . S
C743 C727 1.377 . S
C743 C741 1.389 . S
C743 C744 1.524 . S
C744 C743 1.524 . S
C744 C745 1.397 . S
C744 C749 1.363 . S
C745 H716 0.950 . S
C745 C744 1.397 . S
C745 C746 1.334 . S
C746 H717 0.950 . S
C746 C745 1.334 . S
C746 C747 1.287 . S
C747 C746 1.287 . S
C747 C748 1.524 . S
C747 H750 0.999 . S
C748 H718 0.950 . S
C748 C747 1.524 . S
C748 C749 1.415 . S
C749 H719 0.950 . S
C749 C744 1.363 . S
C749 C748 1.415 . S
H750 C747 0.999 . S
H751 C732 0.913 . S
H752 C770 0.951 . S
H753 C772 0.951 . S
H754 C774 0.950 . S
H755 C775 0.950 . S
H756 C777 0.950 . S
H757 C780 0.950 1_455 S
H758 C781 0.950 . S
H759 C783 0.950 . S
H760 C784 0.950 . S
H761 C785 0.951 . S
H762 C787 0.951 . S
H763 C789 0.950 . S
H764 C790 0.950 . S
H765 C792 0.950 . S
H766 C795 0.950 1_655 S
H767 C796 0.950 . S
H768 C798 0.950 . S
H769 C799 0.950 . S
C770 H752 0.951 . S
C770 C771 1.366 . S
C770 C772 1.388 . S
C771 C770 1.366 . S
C771 C775 1.385 . S
C772 H753 0.951 . S
C772 C770 1.388 . S
C772 C773 1.366 . S
C773 C772 1.366 . S
C773 C774 1.414 . S
C773 C776 1.499 . S
C774 H754 0.950 . S
C774 C773 1.414 . S
C774 C775 1.374 . S
C775 H755 0.950 . S
C775 C771 1.385 . S
C775 C774 1.374 . S
C776 C773 1.499 . S
C776 C777 1.373 . S
C776 C778 1.389 1_455 S
C777 H756 0.950 . S
C777 C776 1.373 . S
C777 C793 1.377 . S
C778 C776 1.389 1_655 S
C778 C779 1.524 . S
C778 C792 1.377 . S
C779 C778 1.524 . S
C779 C780 1.397 . S
C779 C784 1.363 . S
C780 H757 0.950 1_655 S
C780 C779 1.397 . S
C780 C781 1.334 . S
C781 H758 0.950 . S
C781 C780 1.334 . S
C781 C782 1.287 . S
C782 C781 1.287 . S
C782 C783 1.524 . S
C782 H801 0.913 . S
C783 H759 0.950 . S
C783 C782 1.524 . S
C783 C784 1.415 . S
C784 H760 0.950 . S
C784 C779 1.363 . S
C784 C783 1.415 . S
C785 H761 0.951 . S
C785 C786 1.366 . S
C785 C787 1.388 . S
C786 C785 1.366 . S
C786 C790 1.385 . S
C787 H762 0.951 . S
C787 C785 1.388 . S
C787 C788 1.366 . S
C788 C787 1.366 . S
C788 C789 1.414 . S
C788 C791 1.499 . S
C789 H763 0.950 . S
C789 C788 1.414 . S
C789 C790 1.374 . S
C790 H764 0.950 . S
C790 C786 1.385 . S
C790 C789 1.374 . S
C791 C788 1.499 . S
C791 C792 1.373 . S
C791 C793 1.389 1_655 S
C792 H765 0.950 . S
C792 C778 1.377 . S
C792 C791 1.373 . S
C793 C777 1.377 . S
C793 C791 1.389 1_455 S
C793 C794 1.524 . S
C794 C793 1.524 . S
C794 C795 1.397 . S
C794 C799 1.363 . S
C795 H766 0.950 1_455 S
C795 C794 1.397 . S
C795 C796 1.334 . S
C796 H767 0.950 . S
C796 C795 1.334 . S
C796 C797 1.287 . S
C797 C796 1.287 . S
C797 C798 1.524 . S
C797 H800 0.999 . S
C798 H768 0.950 . S
C798 C797 1.524 . S
C798 C799 1.415 . S
C799 H769 0.950 . S
C799 C794 1.363 . S
C799 C798 1.415 . S
H800 C797 0.999 . S
H801 C782 0.913 . S
H802 C820 0.951 1_455 S
H803 C822 0.951 1_455 S
H804 C824 0.950 . S
H805 C825 0.950 . S
H806 C827 0.950 . S
H807 C830 0.950 . S
H808 C831 0.950 . S
H809 C833 0.950 . S
H810 C834 0.950 . S
H811 C835 0.951 1_655 S
H812 C837 0.951 1_655 S
H813 C839 0.950 . S
H814 C840 0.950 . S
H815 C842 0.950 . S
H816 C845 0.950 . S
H817 C846 0.950 . S
H818 C848 0.950 . S
H819 C849 0.950 . S
C820 H802 0.951 1_655 S
C820 C821 1.366 . S
C820 C822 1.388 . S
C821 C820 1.366 . S
C821 C825 1.385 . S
C822 H803 0.951 1_655 S
C822 C820 1.388 . S
C822 C823 1.366 . S
C823 C822 1.366 . S
C823 C824 1.414 . S
C823 C826 1.499 . S
C824 H804 0.950 . S
C824 C823 1.414 . S
C824 C825 1.374 . S
C825 H805 0.950 . S
C825 C821 1.385 . S
C825 C824 1.374 . S
C826 C823 1.499 . S
C826 C827 1.373 . S
C826 C828 1.389 1_655 S
C827 H806 0.950 . S
C827 C826 1.373 . S
C827 C843 1.377 . S
C828 C826 1.389 1_455 S
C828 C829 1.524 . S
C828 C842 1.377 . S
C829 C828 1.524 . S
C829 C830 1.397 1_455 S
C829 C834 1.363 . S
C830 H807 0.950 . S
C830 C829 1.397 1_655 S
C830 C831 1.334 . S
C831 H808 0.950 . S
C831 C830 1.334 . S
C831 C832 1.287 1_655 S
C832 C831 1.287 1_455 S
C832 C833 1.524 . S
C832 H851 0.913 . S
C833 H809 0.950 . S
C833 C832 1.524 . S
C833 C834 1.415 . S
C834 H810 0.950 . S
C834 C829 1.363 . S
C834 C833 1.415 . S
C835 H811 0.951 1_455 S
C835 C836 1.366 . S
C835 C837 1.388 . S
C836 C835 1.366 . S
C836 C840 1.385 . S
C837 H812 0.951 1_455 S
C837 C835 1.388 . S
C837 C838 1.366 . S
C838 C837 1.366 . S
C838 C839 1.414 . S
C838 C841 1.499 . S
C839 H813 0.950 . S
C839 C838 1.414 . S
C839 C840 1.374 . S
C840 H814 0.950 . S
C840 C836 1.385 . S
C840 C839 1.374 . S
C841 C838 1.499 . S
C841 C842 1.373 . S
C841 C843 1.389 1_455 S
C842 H815 0.950 . S
C842 C828 1.377 . S
C842 C841 1.373 . S
C843 C827 1.377 . S
C843 C841 1.389 1_655 S
C843 C844 1.524 . S
C844 C843 1.524 . S
C844 C845 1.397 1_655 S
C844 C849 1.363 . S
C845 H816 0.950 . S
C845 C844 1.397 1_455 S
C845 C846 1.334 . S
C846 H817 0.950 . S
C846 C845 1.334 . S
C846 C847 1.287 1_455 S
C847 C846 1.287 1_655 S
C847 C848 1.524 . S
C847 H850 0.999 . S
C848 H818 0.950 . S
C848 C847 1.524 . S
C848 C849 1.415 . S
C849 H819 0.950 . S
C849 C844 1.363 . S
C849 C848 1.415 . S
H850 C847 0.999 . S
H851 C832 0.913 . S
H852 C870 0.951 . S
H853 C872 0.951 . S
H854 C874 0.950 . S
H855 C875 0.950 . S
H856 C877 0.950 . S
H857 C880 0.950 . S
H858 C881 0.950 . S
H859 C883 0.950 . S
H860 C884 0.950 . S
H861 C885 0.951 . S
H862 C887 0.951 . S
H863 C889 0.950 . S
H864 C890 0.950 . S
H865 C892 0.950 . S
H866 C895 0.950 . S
H867 C896 0.950 . S
H868 C898 0.950 . S
H869 C899 0.950 . S
C870 H852 0.951 . S
C870 C871 1.366 . S
C870 C872 1.388 . S
C871 C870 1.366 . S
C871 C875 1.385 . S
C872 H853 0.951 . S
C872 C870 1.388 . S
C872 C873 1.366 . S
C873 C872 1.366 . S
C873 C874 1.414 . S
C873 C876 1.499 . S
C874 H854 0.950 . S
C874 C873 1.414 . S
C874 C875 1.374 . S
C875 H855 0.950 . S
C875 C871 1.385 . S
C875 C874 1.374 . S
C876 C873 1.499 . S
C876 C877 1.373 1_455 S
C876 C878 1.389 . S
C877 H856 0.950 . S
C877 C876 1.373 1_655 S
C877 C893 1.377 . S
C878 C876 1.389 . S
C878 C879 1.524 . S
C878 C892 1.377 . S
C879 C878 1.524 . S
C879 C880 1.397 . S
C879 C884 1.363 . S
C880 H857 0.950 . S
C880 C879 1.397 . S
C880 C881 1.334 . S
C881 H858 0.950 . S
C881 C880 1.334 . S
C881 C882 1.287 . S
C882 C881 1.287 . S
C882 C883 1.524 . S
C882 H901 0.913 . S
C883 H859 0.950 . S
C883 C882 1.524 . S
C883 C884 1.415 . S
C884 H860 0.950 . S
C884 C879 1.363 . S
C884 C883 1.415 . S
C885 H861 0.951 . S
C885 C886 1.366 . S
C885 C887 1.388 . S
C886 C885 1.366 . S
C886 C890 1.385 . S
C887 H862 0.951 . S
C887 C885 1.388 . S
C887 C888 1.366 . S
C888 C887 1.366 . S
C888 C889 1.414 . S
C888 C891 1.499 . S
C889 H863 0.950 . S
C889 C888 1.414 . S
C889 C890 1.374 . S
C890 H864 0.950 . S
C890 C886 1.385 . S
C890 C889 1.374 . S
C891 C888 1.499 . S
C891 C892 1.373 1_655 S
C891 C893 1.389 . S
C892 H865 0.950 . S
C892 C878 1.377 . S
C892 C891 1.373 1_455 S
C893 C877 1.377 . S
C893 C891 1.389 . S
C893 C894 1.524 . S
C894 C893 1.524 . S
C894 C895 1.397 . S
C894 C899 1.363 . S
C895 H866 0.950 . S
C895 C894 1.397 . S
C895 C896 1.334 . S
C896 H867 0.950 . S
C896 C895 1.334 . S
C896 C897 1.287 . S
C897 C896 1.287 . S
C897 C898 1.524 . S
C897 H900 0.999 . S
C898 H868 0.950 . S
C898 C897 1.524 . S
C898 C899 1.415 . S
C899 H869 0.950 . S
C899 C894 1.363 . S
C899 C898 1.415 . S
H900 C897 0.999 . S
H901 C882 0.913 . S
H902 C920 0.951 1_655 S
H903 C922 0.951 1_655 S
H904 C924 0.950 . S
H905 C925 0.950 . S
H906 C927 0.950 . S
H907 C930 0.950 . S
H908 C931 0.950 . S
H909 C933 0.950 . S
H910 C934 0.950 . S
H911 C935 0.951 1_455 S
H912 C937 0.951 1_455 S
H913 C939 0.950 . S
H914 C940 0.950 . S
H915 C942 0.950 . S
H916 C945 0.950 . S
H917 C946 0.950 . S
H918 C948 0.950 . S
H919 C949 0.950 . S
C920 H902 0.951 1_455 S
C920 C921 1.366 . S
C920 C922 1.388 . S
C921 C920 1.366 . S
C921 C925 1.385 . S
C922 H903 0.951 1_455 S
C922 C920 1.388 . S
C922 C923 1.366 . S
C923 C922 1.366 . S
C923 C924 1.414 . S
C923 C926 1.499 . S
C924 H904 0.950 . S
C924 C923 1.414 . S
C924 C925 1.374 . S
C925 H905 0.950 . S
C925 C921 1.385 . S
C925 C924 1.374 . S
C926 C923 1.499 . S
C926 C927 1.373 . S
C926 C928 1.389 1_455 S
C927 H906 0.950 . S
C927 C926 1.373 . S
C927 C943 1.377 . S
C928 C926 1.389 1_655 S
C928 C929 1.524 . S
C928 C942 1.377 . S
C929 C928 1.524 . S
C929 C930 1.397 . S
C929 C934 1.363 . S
C930 H907 0.950 . S
C930 C929 1.397 . S
C930 C931 1.334 . S
C931 H908 0.950 . S
C931 C930 1.334 . S
C931 C932 1.287 . S
C932 C931 1.287 . S
C932 C933 1.524 . S
C932 H951 0.913 . S
C933 H909 0.950 . S
C933 C932 1.524 . S
C933 C934 1.415 . S
C934 H910 0.950 . S
C934 C929 1.363 . S
C934 C933 1.415 . S
C935 H911 0.951 1_655 S
C935 C936 1.366 . S
C935 C937 1.388 . S
C936 C935 1.366 . S
C936 C940 1.385 . S
C937 H912 0.951 1_655 S
C937 C935 1.388 . S
C937 C938 1.366 . S
C938 C937 1.366 . S
C938 C939 1.414 . S
C938 C941 1.499 . S
C939 H913 0.950 . S
C939 C938 1.414 . S
C939 C940 1.374 . S
C940 H914 0.950 . S
C940 C936 1.385 . S
C940 C939 1.374 . S
C941 C938 1.499 . S
C941 C942 1.373 . S
C941 C943 1.389 1_655 S
C942 H915 0.950 . S
C942 C928 1.377 . S
C942 C941 1.373 . S
C943 C927 1.377 . S
C943 C941 1.389 1_455 S
C943 C944 1.524 . S
C944 C943 1.524 . S
C944 C945 1.397 . S
C944 C949 1.363 . S
C945 H916 0.950 . S
C945 C944 1.397 . S
C945 C946 1.334 . S
C946 H917 0.950 . S
C946 C945 1.334 . S
C946 C947 1.287 . S
C947 C946 1.287 . S
C947 C948 1.524 . S
C947 H950 0.999 . S
C948 H918 0.950 . S
C948 C947 1.524 . S
C948 C949 1.415 . S
C949 H919 0.950 . S
C949 C944 1.363 . S
C949 C948 1.415 . S
H950 C947 0.999 . S
H951 C932 0.913 . S
C171 C10 0.657 . S
C186 C27 0.657 . S
C221 C48 0.658 . S
C236 C65 0.658 . S
C271 C103 0.658 . S
C286 C86 0.658 . S
C321 C141 0.658 . S
C336 C124 0.658 . S
C371 C53 1.596 . S
C386 C30 1.596 . S
C421 C144 1.595 . S
C436 C91 1.595 . S
C471 C15 1.595 1_556 S
C486 C68 1.596 . S
C521 C129 1.595 . S
C536 C106 1.595 . S
C571 C132 0.596 . S
C586 C18 0.596 . S
C621 C62 2.043 . S
C636 C100 2.043 . S
C671 C107 0.596 . S
C686 C69 0.596 . S
C721 C12 2.043 . S
C736 C126 2.043 . S
C771 C94 0.596 . S
C786 C56 0.596 . S
C821 C138 2.043 . S
C836 C24 2.043 . S
C871 C31 0.595 . S
C886 C145 0.595 . S
C921 C88 2.044 . S
C936 C50 2.044 . S
