# Generated by pormake.
# Topology eta, (3)-cn, num edge types: 1
# Building blocks:
#     Node 0, Type 0, BuildingBlock: WUSLED_clean_sbu_0, # of connection points: 3
#     Node 1, Type 0, BuildingBlock: WUSLED_clean_sbu_0, # of connection points: 3
#     Node 2, Type 0, BuildingBlock: WUSLED_clean_sbu_0, # of connection points: 3
#     Node 3, Type 0, BuildingBlock: WUSLED_clean_sbu_0, # of connection points: 3
#     Node 4, Type 0, BuildingBlock: WUSLED_clean_sbu_0, # of connection points: 3
#     Node 5, Type 0, BuildingBlock: WUSLED_clean_sbu_0, # of connection points: 3
#     Edge 6, Type (0, 0), BuildingBlock: TEMPAE_clean_linker_10, # of connection points: 2
#     Edge 7, Type (0, 0), BuildingBlock: TEMPAE_clean_linker_10, # of connection points: 2
#     Edge 8, Type (0, 0), BuildingBlock: TEMPAE_clean_linker_10, # of connection points: 2
#     Edge 9, Type (0, 0), BuildingBlock: TEMPAE_clean_linker_10, # of connection points: 2
#     Edge 10, Type (0, 0), BuildingBlock: TEMPAE_clean_linker_10, # of connection points: 2
#     Edge 11, Type (0, 0), BuildingBlock: TEMPAE_clean_linker_10, # of connection points: 2
#     Edge 12, Type (0, 0), BuildingBlock: TEMPAE_clean_linker_10, # of connection points: 2
#     Edge 13, Type (0, 0), BuildingBlock: TEMPAE_clean_linker_10, # of connection points: 2
#     Edge 14, Type (0, 0), BuildingBlock: TEMPAE_clean_linker_10, # of connection points: 2
# Relax obj value: 0.000
# Max RMSD: 0.005
# Mean RMSD: 0.004
data_MOF--net-eta--node1-WUSLED_clean_sbu_0--edge1-TEMPAE_clean_linker_10
_symmetry_space_group_name_H-M    P1
_symmetry_Int_Tables_number       1
_symmetry_cell_setting            triclinic
loop_
_symmetry_equiv_pos_as_xyz
'x, y, z'
_cell_length_a     67.838662
_cell_length_b     68.524058
_cell_length_c     55.347792
_cell_angle_alpha  89.541488
_cell_angle_beta   90.010753
_cell_angle_gamma 120.91313
loop_
_atom_site_label
_atom_site_type_symbol
_atom_site_fract_x
_atom_site_fract_y
_atom_site_fract_z
_atom_type_partial_charge
C0 C 0.2463 0.60575 0.12436 0.0
C1 C 0.26632 0.62672 0.1193 0.0
C2 C 0.27645 0.60952 0.08678 0.0
C3 C 0.2812 0.6286 0.10064 0.0
C4 C 0.25661 0.5885 0.09226 0.0
C5 C 0.24171 0.58667 0.1108 0.0
U6 U 0.22995 0.61921 0.18624 0.0
O7 O 0.20173 0.62479 0.19565 0.0
O8 O 0.2029 0.59607 0.21188 0.0
C9 C 0.19106 0.60624 0.20906 0.0
C10 C 0.22957 0.60339 0.143 0.0
C11 C 0.16606 0.59122 0.20515 0.0
C12 C 0.13165 0.57756 0.18059 0.0
C13 C 0.15558 0.59098 0.18313 0.0
C14 C 0.12839 0.56404 0.22177 0.0
C15 C 0.11773 0.56401 0.19994 0.0
C16 C 0.15224 0.57752 0.22433 0.0
C17 C 0.27836 0.66075 0.22902 0.0
C18 C 0.27381 0.66774 0.27115 0.0
C19 C 0.31054 0.69075 0.25108 0.0
C20 C 0.30133 0.67849 0.22984 0.0
C21 C 0.29695 0.68555 0.27206 0.0
C22 C 0.26458 0.65546 0.24979 0.0
C23 C 0.26951 0.64787 0.20643 0.0
O24 O 0.22924 0.59282 0.16305 0.0
O25 O 0.22774 0.62132 0.14675 0.0
O26 O 0.25847 0.65431 0.192 0.0
O27 O 0.25967 0.62565 0.20828 0.0
H28 H 0.27034 0.64169 0.12961 0.0
H29 H 0.29645 0.64499 0.09709 0.0
H30 H 0.25227 0.57353 0.08181 0.0
H31 H 0.22635 0.57034 0.11433 0.0
H32 H 0.12404 0.57776 0.16345 0.0
H33 H 0.16583 0.60131 0.16797 0.0
H34 H 0.11822 0.55407 0.23714 0.0
H35 H 0.1599 0.57751 0.24151 0.0
H36 H 0.2628 0.66341 0.28687 0.0
H37 H 0.32848 0.70408 0.25117 0.0
H38 H 0.31227 0.68276 0.21404 0.0
H39 H 0.24677 0.64184 0.2495 0.0
C40 C 0.61415 0.23102 0.58524 0.0
C41 C 0.63378 0.25281 0.58727 0.0
C42 C 0.61683 0.26095 0.62187 0.0
C43 C 0.63512 0.2676 0.60543 0.0
C44 C 0.59711 0.2392 0.61945 0.0
C45 C 0.59583 0.22443 0.60139 0.0
U46 U 0.62737 0.2163 0.52255 0.0
O47 O 0.63552 0.19017 0.51241 0.0
O48 O 0.60467 0.18869 0.498 0.0
C49 C 0.61665 0.17857 0.49972 0.0
C50 C 0.61243 0.21475 0.56677 0.0
C51 C 0.60339 0.15378 0.50412 0.0
C52 C 0.57504 0.12039 0.5267 0.0
C53 C 0.58773 0.14409 0.52339 0.0
C54 C 0.59371 0.11591 0.4917 0.0
C55 C 0.57778 0.10596 0.5108 0.0
C56 C 0.60633 0.13953 0.48841 0.0
C57 C 0.66465 0.26524 0.47773 0.0
C58 C 0.67568 0.26047 0.43735 0.0
C59 C 0.68669 0.29809 0.45144 0.0
C60 C 0.67578 0.28875 0.47354 0.0
C61 C 0.68671 0.28409 0.43298 0.0
C62 C 0.66469 0.25111 0.45953 0.0
C63 C 0.65302 0.25603 0.50112 0.0
O64 O 0.60048 0.21317 0.54742 0.0
O65 O 0.63142 0.21479 0.56183 0.0
O66 O 0.66142 0.2463 0.51484 0.0
O67 O 0.63045 0.24472 0.50068 0.0
H68 H 0.64813 0.25831 0.57495 0.0
H69 H 0.65066 0.28411 0.60683 0.0
H70 H 0.58251 0.23361 0.63141 0.0
H71 H 0.58048 0.20775 0.60006 0.0
H72 H 0.56281 0.11335 0.54148 0.0
H73 H 0.58522 0.15482 0.53573 0.0
H74 H 0.59663 0.10545 0.47936 0.0
H75 H 0.61841 0.14669 0.47349 0.0
H76 H 0.67519 0.24918 0.42347 0.0
H77 H 0.6953 0.31635 0.44889 0.0
H78 H 0.676 0.29993 0.48741 0.0
H79 H 0.65613 0.23289 0.46243 0.0
C80 C 0.44864 0.64694 0.78975 0.0
C81 C 0.42838 0.64747 0.78642 0.0
C82 C 0.4456 0.67342 0.75197 0.0
C83 C 0.42687 0.66055 0.7677 0.0
C84 C 0.46601 0.6732 0.75583 0.0
C85 C 0.46746 0.66008 0.77446 0.0
U86 U 0.43412 0.61718 0.85209 0.0
O87 O 0.42607 0.5826 0.86185 0.0
O88 O 0.45629 0.61222 0.87734 0.0
C89 C 0.44454 0.58997 0.8752 0.0
C90 C 0.45035 0.63232 0.80843 0.0
C91 C 0.45804 0.57888 0.87133 0.0
C92 C 0.48706 0.5749 0.84975 0.0
C93 C 0.47432 0.58566 0.85263 0.0
C94 C 0.4672 0.55041 0.88406 0.0
C95 C 0.48364 0.5571 0.86545 0.0
C96 C 0.45457 0.56118 0.88693 0.0
C97 C 0.39403 0.62537 0.89524 0.0
C98 C 0.38872 0.61757 0.93851 0.0
C99 C 0.36235 0.62488 0.91638 0.0
C100 C 0.3746 0.62757 0.89507 0.0
C101 C 0.36927 0.61993 0.93843 0.0
C102 C 0.40096 0.6202 0.91709 0.0
C103 C 0.40696 0.6292 0.87249 0.0
O104 O 0.46148 0.64259 0.82819 0.0
O105 O 0.43158 0.61261 0.81271 0.0
O106 O 0.39945 0.61158 0.85819 0.0
O107 O 0.42949 0.64119 0.87399 0.0
H108 H 0.41362 0.63752 0.79805 0.0
H109 H 0.41081 0.6601 0.76518 0.0
H110 H 0.48092 0.68319 0.74442 0.0
H111 H 0.48329 0.66001 0.77678 0.0
H112 H 0.49941 0.58036 0.83511 0.0
H113 H 0.47719 0.59926 0.84033 0.0
H114 H 0.46435 0.53707 0.89673 0.0
H115 H 0.44214 0.55575 0.90152 0.0
H116 H 0.39439 0.61353 0.9551 0.0
H117 H 0.34769 0.62715 0.91565 0.0
H118 H 0.36902 0.63165 0.87842 0.0
H119 H 0.41588 0.61834 0.91762 0.0
C120 C 0.81854 0.43139 0.12143 0.0
C121 C 0.79523 0.42319 0.12621 0.0
C122 C 0.78854 0.42687 0.08347 0.0
C123 C 0.78037 0.42101 0.10741 0.0
C124 C 0.81193 0.43499 0.07888 0.0
C125 C 0.82674 0.43723 0.09766 0.0
U126 U 0.83232 0.42011 0.18571 0.0
O127 O 0.85942 0.41372 0.19787 0.0
O128 O 0.85897 0.44362 0.21091 0.0
C129 C 0.87004 0.43254 0.21046 0.0
C130 C 0.83467 0.43416 0.14086 0.0
C131 C 0.89516 0.44654 0.20715 0.0
C132 C 0.92914 0.46972 0.18232 0.0
C133 C 0.90514 0.45649 0.18477 0.0
C134 C 0.93329 0.46315 0.22457 0.0
C135 C 0.94353 0.47328 0.20225 0.0
C136 C 0.9094 0.44995 0.22696 0.0
C137 C 0.78255 0.38199 0.22938 0.0
C138 C 0.78691 0.36878 0.26888 0.0
C139 C 0.74954 0.36132 0.25607 0.0
C140 C 0.75909 0.37259 0.23417 0.0
C141 C 0.76327 0.35916 0.27371 0.0
C142 C 0.79646 0.3801 0.2469 0.0
C143 C 0.79192 0.39348 0.20596 0.0
O144 O 0.83495 0.44583 0.15973 0.0
O145 O 0.8353 0.41587 0.1467 0.0
O146 O 0.8028 0.38585 0.19309 0.0
O147 O 0.80236 0.4158 0.206 0.0
H148 H 0.78854 0.41849 0.14446 0.0
H149 H 0.76243 0.41447 0.11155 0.0
H150 H 0.8189 0.43995 0.06077 0.0
H151 H 0.84468 0.44364 0.09362 0.0
H152 H 0.93642 0.47741 0.16493 0.0
H153 H 0.8944 0.45407 0.16925 0.0
H154 H 0.94378 0.46517 0.24019 0.0
H155 H 0.90201 0.44233 0.24436 0.0
H156 H 0.79797 0.3673 0.28193 0.0
H157 H 0.7314 0.35453 0.25928 0.0
H158 H 0.74809 0.37397 0.22093 0.0
H159 H 0.81465 0.38727 0.24352 0.0
C160 C 0.4041 0.8082 0.45794 0.0
C161 C 0.40252 0.78705 0.45547 0.0
C162 C 0.37741 0.7783 0.42053 0.0
C163 C 0.38937 0.77228 0.43688 0.0
C164 C 0.37872 0.79932 0.42344 0.0
C165 C 0.39196 0.8141 0.44191 0.0
U166 U 0.43399 0.82365 0.51994 0.0
O167 O 0.46894 0.85113 0.52926 0.0
O168 O 0.43898 0.85043 0.54522 0.0
C169 C 0.46145 0.86181 0.54257 0.0
C170 C 0.41881 0.82466 0.47649 0.0
C171 C 0.4725 0.88655 0.53817 0.0
C172 C 0.47349 0.91935 0.51945 0.0
C173 C 0.46274 0.89572 0.52282 0.0
C174 C 0.504 0.92486 0.54644 0.0
C175 C 0.49428 0.93423 0.53123 0.0
C176 C 0.4932 0.90131 0.54987 0.0
C177 C 0.42537 0.77479 0.5628 0.0
C178 C 0.43513 0.77762 0.60549 0.0
C179 C 0.42319 0.74258 0.58414 0.0
C180 C 0.4208 0.75239 0.56294 0.0
C181 C 0.43019 0.75496 0.60578 0.0
C182 C 0.43273 0.78745 0.58417 0.0
C183 C 0.42174 0.78414 0.54024 0.0
O184 O 0.40839 0.82489 0.49641 0.0
O185 O 0.43866 0.82621 0.4805 0.0
O186 O 0.43963 0.79502 0.52583 0.0
O187 O 0.40969 0.79417 0.54208 0.0
H188 H 0.41164 0.78206 0.46773 0.0
H189 H 0.38852 0.75611 0.43534 0.0
H190 H 0.36999 0.80464 0.41103 0.0
H191 H 0.39297 0.83035 0.44347 0.0
H192 H 0.46567 0.92596 0.50741 0.0
H193 H 0.44682 0.88464 0.51349 0.0
H194 H 0.5198 0.93577 0.55603 0.0
H195 H 0.501 0.8946 0.56184 0.0
H196 H 0.44042 0.78761 0.62183 0.0
H197 H 0.41967 0.72529 0.58352 0.0
H198 H 0.41521 0.74238 0.54661 0.0
H199 H 0.43636 0.8048 0.58443 0.0
C200 C 0.61533 0.39204 0.78909 0.0
C201 C 0.62377 0.37765 0.79466 0.0
C202 C 0.61779 0.36434 0.75296 0.0
C203 C 0.625 0.36392 0.77675 0.0
C204 C 0.6097 0.37911 0.74751 0.0
C205 C 0.60847 0.39277 0.76539 0.0
U206 U 0.62714 0.41929 0.85211 0.0
O207 O 0.63397 0.45313 0.86255 0.0
O208 O 0.60342 0.42251 0.87671 0.0
C209 C 0.61471 0.44482 0.87494 0.0
C210 C 0.61302 0.40605 0.8077 0.0
C211 C 0.60064 0.45543 0.87095 0.0
C212 C 0.591 0.48007 0.84829 0.0
C213 C 0.60355 0.46904 0.85054 0.0
C214 C 0.5721 0.46366 0.88646 0.0
C215 C 0.57529 0.47774 0.86637 0.0
C216 C 0.58467 0.45273 0.88873 0.0
C217 C 0.66473 0.40905 0.89718 0.0
C218 C 0.68618 0.43158 0.93192 0.0
C219 C 0.67876 0.39326 0.9275 0.0
C220 C 0.66694 0.39104 0.90601 0.0
C221 C 0.68871 0.41361 0.94066 0.0
C222 C 0.67424 0.4293 0.91042 0.0
C223 C 0.65324 0.40644 0.87371 0.0
O224 O 0.60103 0.39507 0.82701 0.0
O225 O 0.63178 0.42538 0.81278 0.0
O226 O 0.6614 0.42474 0.85995 0.0
O227 O 0.63068 0.39417 0.87391 0.0
H228 H 0.62915 0.37684 0.81289 0.0
H229 H 0.63113 0.35263 0.78167 0.0
H230 H 0.60438 0.3802 0.72934 0.0
H231 H 0.60201 0.40385 0.76071 0.0
H232 H 0.59405 0.49089 0.83266 0.0
H233 H 0.61576 0.47147 0.83652 0.0
H234 H 0.55986 0.46106 0.90052 0.0
H235 H 0.58208 0.44233 0.90462 0.0
H236 H 0.69339 0.44739 0.94173 0.0
H237 H 0.68061 0.37919 0.93346 0.0
H238 H 0.65982 0.37531 0.89605 0.0
H239 H 0.67266 0.44342 0.90403 0.0
C240 C 0.36802 0.62746 0.98274 0.0
C241 C 0.35634 0.61761 0.96116 0.0
C242 C 0.356 0.6263 1.00395 0.0
C243 C 0.33168 0.61499 1.00366 0.0
C244 C 0.31979 0.60469 0.98206 0.0
C245 C 0.33223 0.60611 0.96114 0.0
C246 C 0.36934 0.63752 0.02658 0.0
C247 C 0.29389 0.59234 0.98095 0.0
C248 C 0.29725 0.59472 0.06236 0.0
C249 C 0.29169 0.61157 0.06624 0.0
C250 C 0.31063 0.59585 0.04238 0.0
C251 C 0.31862 0.61423 0.02575 0.0
C252 C 0.3134 0.63149 0.02979 0.0
C253 C 0.30007 0.62998 0.04997 0.0
C254 C 0.31594 0.57719 0.03888 0.0
C255 C 0.32146 0.65131 1.01246 0.0
H256 H 0.38664 0.6366 0.9829 0.0
H257 H 0.32302 0.59813 0.94469 0.0
H258 H 0.3662 0.65124 0.03203 0.0
H259 H 0.36337 0.62498 0.04167 0.0
H260 H 0.38812 0.64495 0.0241 0.0
H261 H 0.28721 0.58494 0.96289 0.0
H262 H 0.28633 0.57845 0.99465 0.0
H263 H 0.28789 0.60423 0.9853 0.0
H264 H 0.29112 0.5806 0.075 0.0
H265 H 0.29565 0.64293 0.05264 0.0
H266 H 0.33478 0.58457 0.03746 0.0
H267 H 0.30828 0.56822 0.02172 0.0
H268 H 0.30922 0.56454 0.05391 0.0
H269 H 0.34039 0.66022 1.01023 0.0
H270 H 0.31673 0.66377 1.01864 0.0
H271 H 0.31378 0.64502 0.99441 0.0
C272 C 0.69566 0.3115 0.39845 0.0
C273 C 0.69806 0.29423 0.40928 0.0
C274 C 0.70659 0.32164 0.37644 0.0
C275 C 0.72031 0.3144 0.36483 0.0
C276 C 0.72271 0.29688 0.37555 0.0
C277 C 0.71154 0.28699 0.3976 0.0
C278 C 0.70341 0.34013 0.36558 0.0
C279 C 0.73722 0.28871 0.3638 0.0
C280 C 0.73106 0.32714 0.29741 0.0
C281 C 0.75286 0.34703 0.29702 0.0
C282 C 0.72048 0.31613 0.31926 0.0
C283 C 0.73196 0.32511 0.34139 0.0
C284 C 0.75419 0.34486 0.34114 0.0
C285 C 0.76435 0.35558 0.319 0.0
C286 C 0.69681 0.2951 0.31868 0.0
C287 C 0.76704 0.35499 0.36431 0.0
H288 H 0.685 0.31697 0.40711 0.0
H289 H 0.7137 0.27385 0.40593 0.0
H290 H 0.72033 0.35598 0.36328 0.0
H291 H 0.69564 0.33501 0.34738 0.0
H292 H 0.69226 0.34389 0.3769 0.0
H293 H 0.73724 0.27485 0.37434 0.0
H294 H 0.73077 0.28243 0.34537 0.0
H295 H 0.75519 0.30305 0.36187 0.0
H296 H 0.72219 0.32014 0.28054 0.0
H297 H 0.78108 0.37103 0.31898 0.0
H298 H 0.68447 0.29828 0.32846 0.0
H299 H 0.69692 0.28079 0.32805 0.0
H300 H 0.6905 0.28983 0.29996 0.0
H301 H 0.75746 0.36077 0.3755 0.0
H302 H 0.78464 0.36968 0.361 0.0
H303 H 0.76834 0.34192 0.37499 0.0
C304 C 0.43198 0.69834 0.7338 0.0
C305 C 0.44373 0.68653 0.73126 0.0
C306 C 0.42976 0.71033 0.71423 0.0
C307 C 0.43955 0.7106 0.69153 0.0
C308 C 0.45162 0.69892 0.68891 0.0
C309 C 0.45349 0.68702 0.70872 0.0
C310 C 0.41677 0.72255 0.7178 0.0
C311 C 0.46228 0.69871 0.66503 0.0
C312 C 0.41561 0.72136 0.63402 0.0
C313 C 0.43214 0.74407 0.62844 0.0
C314 C 0.41763 0.71044 0.65466 0.0
C315 C 0.43662 0.72246 0.67027 0.0
C316 C 0.45313 0.74553 0.66506 0.0
C317 C 0.45069 0.75604 0.64424 0.0
C318 C 0.39957 0.68588 0.65956 0.0
C319 C 0.47364 0.75895 0.6812 0.0
H320 H 0.42463 0.69836 0.75117 0.0
H321 H 0.46227 0.67768 0.70637 0.0
H322 H 0.42794 0.74084 0.71313 0.0
H323 H 0.40178 0.71547 0.70551 0.0
H324 H 0.41054 0.72108 0.73667 0.0
H325 H 0.47178 0.68951 0.66617 0.0
H326 H 0.4487 0.69046 0.65114 0.0
H327 H 0.47431 0.71638 0.65876 0.0
H328 H 0.40098 0.71207 0.62222 0.0
H329 H 0.46366 0.7735 0.64001 0.0
H330 H 0.39201 0.68409 0.67781 0.0
H331 H 0.40755 0.67524 0.65932 0.0
H332 H 0.38551 0.67912 0.64606 0.0
H333 H 0.46789 0.75848 0.70008 0.0
H334 H 0.48436 0.77699 0.67529 0.0
H335 H 0.48447 0.75114 0.68127 0.0
C336 C 0.7744 0.41603 0.04087 0.0
C337 C 0.77288 0.42461 0.0633 0.0
C338 C 0.76025 0.41435 0.02146 0.0
C339 C 0.7441 0.4214 0.02446 0.0
C340 C 0.74231 0.42989 0.0471 0.0
C341 C 0.75668 0.43136 0.06624 0.0
C342 C 0.76263 0.40506 0.9977 0.0
C343 C 0.72538 0.43764 0.05104 0.0
C344 C 0.72325 0.43626 0.9671 0.0
C345 C 0.70221 0.41617 0.96297 0.0
C346 C 0.73682 0.43836 0.98726 0.0
C347 C 0.7292 0.41995 1.0038 0.0
C348 C 0.70773 0.39983 1.00005 0.0
C349 C 0.69454 0.39818 0.97972 0.0
C350 C 0.75962 0.46009 0.99053 0.0
C351 C 0.69888 0.37986 1.01729 0.0
H352 H 0.7866 0.41044 0.03851 0.0
H353 H 0.75554 0.43824 0.08339 0.0
H354 H 0.74599 0.38987 0.99272 0.0
H355 H 0.76723 0.41794 0.98316 0.0
H356 H 0.77595 0.40022 0.99833 0.0
H357 H 0.7258 0.44345 0.06981 0.0
H358 H 0.7292 0.45183 0.03841 0.0
H359 H 0.7077 0.42357 0.04709 0.0
H360 H 0.72948 0.45016 0.95415 0.0
H361 H 0.67816 0.38272 0.9769 0.0
H362 H 0.77377 0.45648 0.98929 0.0
H363 H 0.76049 0.46716 1.00872 0.0
H364 H 0.7626 0.47321 0.97673 0.0
H365 H 0.71078 0.37325 1.01744 0.0
H366 H 0.68146 0.36577 1.01236 0.0
H367 H 0.69825 0.38532 0.03595 0.0
C368 C 0.34265 0.75981 0.39362 0.0
C369 C 0.36418 0.76311 0.40006 0.0
C370 C 0.33055 0.74649 0.37361 0.0
C371 C 0.34021 0.73626 0.35956 0.0
C372 C 0.36174 0.73919 0.36621 0.0
C373 C 0.37342 0.75252 0.38636 0.0
C374 C 0.30758 0.74366 0.36728 0.0
C375 C 0.37272 0.7287 0.35167 0.0
C376 C 0.30228 0.68745 0.31725 0.0
C377 C 0.3071 0.6986 0.29473 0.0
C378 C 0.31268 0.69948 0.33853 0.0
C379 C 0.32829 0.72327 0.33733 0.0
C380 C 0.33291 0.73468 0.31473 0.0
C381 C 0.32227 0.72225 0.29378 0.0
C382 C 0.30727 0.68668 0.36225 0.0
C383 C 0.34934 0.76003 0.31263 0.0
H384 H 0.33522 0.76766 0.40428 0.0
H385 H 0.39015 0.75518 0.39099 0.0
H386 H 0.30856 0.75118 0.34917 0.0
H387 H 0.29428 0.72533 0.36637 0.0
H388 H 0.30197 0.75191 0.38059 0.0
H389 H 0.38906 0.7318 0.35976 0.0
H390 H 0.36078 0.71008 0.3502 0.0
H391 H 0.37632 0.73586 0.33304 0.0
H392 H 0.2908 0.66917 0.31818 0.0
H393 H 0.32582 0.7311 0.27657 0.0
H394 H 0.30099 0.69427 0.37558 0.0
H395 H 0.32312 0.6881 0.36975 0.0
H396 H 0.2941 0.66837 0.3603 0.0
H397 H 0.34356 0.76916 0.32443 0.0
H398 H 0.35082 0.76641 0.2938 0.0
H399 H 0.36665 0.76433 0.31886 0.0
C400 C 0.63697 0.34582 0.73204 0.0
C401 C 0.61833 0.34926 0.73394 0.0
C402 C 0.63765 0.33177 0.71404 0.0
C403 C 0.61924 0.32083 0.6975 0.0
C404 C 0.60037 0.32419 0.69935 0.0
C405 C 0.60013 0.3383 0.7175 0.0
C406 C 0.65812 0.3287 0.71266 0.0
C407 C 0.58032 0.31276 0.68221 0.0
C408 C 0.62813 0.29994 0.63709 0.0
C409 C 0.61821 0.27651 0.64147 0.0
C410 C 0.62894 0.3146 0.65524 0.0
C411 C 0.61953 0.30568 0.67838 0.0
C412 C 0.60975 0.28212 0.68302 0.0
C413 C 0.60928 0.26788 0.66459 0.0
C414 C 0.63955 0.33962 0.64953 0.0
C415 C 0.59954 0.27188 0.70741 0.0
H416 H 0.65123 0.35439 0.74444 0.0
H417 H 0.58547 0.34052 0.71901 0.0
H418 H 0.65242 0.31041 0.71463 0.0
H419 H 0.66653 0.33442 0.69471 0.0
H420 H 0.67102 0.33835 0.72686 0.0
H421 H 0.56706 0.31729 0.68589 0.0
H422 H 0.58641 0.31768 0.6633 0.0
H423 H 0.57219 0.29402 0.68366 0.0
H424 H 0.63484 0.3068 0.61927 0.0
H425 H 0.60197 0.24991 0.66837 0.0
H426 H 0.65329 0.3499 0.66271 0.0
H427 H 0.62635 0.34451 0.6512 0.0
H428 H 0.64698 0.34406 0.63102 0.0
H429 H 0.61263 0.2804 0.72171 0.0
H430 H 0.59296 0.25333 0.70827 0.0
H431 H 0.58518 0.27468 0.71155 0.0
C432 C 0.08014 0.55965 0.18676 0.0
C433 C 0.09217 0.55033 0.19774 0.0
C434 C 0.05597 0.54744 0.18594 0.0
C435 C 0.04346 0.52533 0.19626 0.0
C436 C 0.05553 0.51562 0.20681 0.0
C437 C 0.07967 0.52822 0.20745 0.0
C438 C 0.0438 0.55847 0.1746 0.0
C439 C 0.04291 0.49205 0.21788 0.0
C440 C 0.98221 0.50248 0.21843 0.0
C441 C 0.96909 0.4874 0.19999 0.0
C442 C 1.00633 0.51512 0.21724 0.0
C443 C 1.01777 0.51273 0.19709 0.0
C444 C 1.00466 0.49789 0.17817 0.0
C445 C 0.98051 0.48544 0.17983 0.0
C446 C 1.01959 0.53083 0.23774 0.0
C447 C 1.01617 0.49483 0.1564 0.0
H448 H 0.0896 0.57679 0.17944 0.0
H449 H 0.08881 0.52075 0.21565 0.0
H450 H 0.03167 0.54725 0.16057 0.0
H451 H 0.03353 0.56092 0.18853 0.0
H452 H 0.05597 0.57524 0.16623 0.0
H453 H 0.0548 0.48653 0.22439 0.0
H454 H 0.0323 0.49164 0.23335 0.0
H455 H 0.03106 0.47958 0.20448 0.0
H456 H 0.97358 0.50443 0.23387 0.0
H457 H 0.97057 0.4737 0.1656 0.0
H458 H 0.03101 0.54837 0.23074 0.0
H459 H 0.03072 0.52529 0.24633 0.0
H460 H 1.00813 0.53124 0.25181 0.0
H461 H 1.02784 0.51154 0.14768 0.0
H462 H 1.00357 0.48336 0.14281 0.0
H463 H 1.02684 0.48765 0.16214 0.0
C464 C 0.55549 0.06643 0.4938 0.0
C465 C 0.5642 0.08068 0.51398 0.0
C466 C 0.54349 0.04261 0.49633 0.0
C467 C 0.53995 0.03264 0.51963 0.0
C468 C 0.5483 0.04688 0.54013 0.0
C469 C 0.56032 0.07068 0.53706 0.0
C470 C 0.53484 0.0281 0.474 0.0
C471 C 0.54489 0.03697 0.5653 0.0
C472 C 0.4931 0.97031 0.52791 0.0
C473 C 0.50585 0.95941 0.52782 0.0
C474 C 0.50393 0.9941 0.52534 0.0
C475 C 0.52811 1.00736 0.52248 0.0
C476 C 0.54105 0.99643 0.52218 0.0
C477 C 0.52979 0.97266 0.52488 0.0
C478 C 0.48951 1.00507 0.52587 0.0
C479 C 0.56683 1.00985 0.51897 0.0
H480 H 0.558 0.07392 0.47591 0.0
H481 H 0.56715 0.08146 0.55276 0.0
H482 H 0.54295 1.01763 0.47247 0.0
H483 H 0.51601 1.01622 0.47537 0.0
H484 H 0.53857 0.03844 0.45722 0.0
H485 H 0.55158 0.05027 0.57942 0.0
H486 H 0.52636 0.0249 0.56879 0.0
H487 H 0.55378 0.02723 0.56697 0.0
H488 H 0.47464 0.96028 0.53045 0.0
H489 H 0.53977 0.96438 0.52445 0.0
H490 H 0.49198 1.01478 0.50888 0.0
H491 H 0.49509 1.01735 0.54094 0.0
H492 H 0.47091 0.9924 0.52813 0.0
H493 H 0.57136 0.01939 0.50158 0.0
H494 H 0.5744 0.99883 0.51917 0.0
H495 H 0.57482 0.02254 0.53358 0.0
C496 C 0.4867 0.52202 0.86614 0.0
C497 C 0.49726 0.54566 0.86284 0.0
C498 C 0.49948 0.51112 0.86534 0.0
C499 C 0.52348 0.52411 0.86107 0.0
C500 C 0.53416 0.54787 0.85705 0.0
C501 C 0.52095 0.55835 0.85798 0.0
C502 C 0.48735 0.48575 0.86962 0.0
C503 C 0.55968 0.56235 0.85242 0.0
C504 C 0.55911 0.49983 0.88536 0.0
C505 C 0.56254 0.49018 0.86467 0.0
C506 C 0.54668 0.51108 0.88435 0.0
C507 C 0.53748 0.51293 0.86206 0.0
C508 C 0.54118 0.50359 0.841 0.0
C509 C 0.55362 0.49232 0.84256 0.0
C510 C 0.54321 0.52081 0.90724 0.0
C511 C 0.53171 0.50521 0.81688 0.0
H512 H 0.46835 0.51198 0.86947 0.0
H513 H 0.52933 0.57663 0.85562 0.0
H514 H 0.49077 0.47743 0.85441 0.0
H515 H 0.49409 0.48211 0.88625 0.0
H516 H 0.46847 0.47794 0.87163 0.0
H517 H 0.56516 0.58031 0.84817 0.0
H518 H 0.56919 0.56204 0.86859 0.0
H519 H 0.56471 0.55536 0.83719 0.0
H520 H 0.56629 0.49872 0.90245 0.0
H521 H 0.55596 0.48477 0.82649 0.0
H522 H 0.52458 0.51265 0.91127 0.0
H523 H 0.55004 0.5393 0.90485 0.0
H524 H 0.55178 0.51829 0.92305 0.0
H525 H 0.51267 0.49608 0.8178 0.0
H526 H 0.53683 0.49788 0.80204 0.0
H527 H 0.53779 0.52325 0.8124 0.0
loop_
_geom_bond_atom_site_label_1
_geom_bond_atom_site_label_2
_geom_bond_distance
_geom_bond_site_symmetry_2
_ccdc_geom_bond_type
C0 C1 1.264 . S
C0 C5 1.479 . S
C0 C10 1.465 . S
C1 C0 1.264 . S
C1 C3 1.339 . S
C1 H28 0.931 . S
C2 C3 1.395 . S
C2 C4 1.320 . S
C3 C1 1.339 . S
C3 C2 1.395 . S
C3 H29 0.929 . S
C4 C2 1.320 . S
C4 C5 1.405 . S
C4 H30 0.930 . S
C5 C0 1.479 . S
C5 C4 1.405 . S
C5 H31 0.931 . S
U6 O7 2.454 . S
U6 O8 2.458 . S
U6 C9 2.984 . S
U6 C10 2.847 . S
U6 C23 2.882 . S
U6 O24 2.441 . S
U6 O25 2.420 . S
U6 O26 2.455 . S
U6 O27 2.449 . S
O7 U6 2.454 . S
O7 C9 1.353 . S
O8 U6 2.458 . S
O8 C9 1.286 . S
C9 U6 2.984 . S
C9 O7 1.353 . S
C9 O8 1.286 . S
C9 C11 1.363 . S
C10 C0 1.465 . S
C10 U6 2.847 . S
C10 O24 1.249 . S
C10 O25 1.202 . S
C11 C9 1.363 . S
C11 C13 1.408 . S
C11 C16 1.342 . S
C12 C13 1.310 . S
C12 C15 1.461 . S
C12 H32 0.932 . S
C13 C11 1.408 . S
C13 C12 1.310 . S
C13 H33 0.930 . S
C14 C15 1.474 . S
C14 C16 1.285 . S
C14 H34 0.929 . S
C15 C12 1.461 . S
C15 C14 1.474 . S
C16 C11 1.342 . S
C16 C14 1.285 . S
C16 H35 0.930 . S
C17 C20 1.424 . S
C17 C22 1.245 . S
C17 C23 1.428 . S
C18 C21 1.260 . S
C18 C22 1.477 . S
C18 H36 0.932 . S
C19 C20 1.384 . S
C19 C21 1.479 . S
C19 H37 0.929 . S
C20 C17 1.424 . S
C20 C19 1.384 . S
C20 H38 0.928 . S
C21 C18 1.260 . S
C21 C19 1.479 . S
C22 C17 1.245 . S
C22 C18 1.477 . S
C22 H39 0.932 . S
C23 U6 2.882 . S
C23 C17 1.428 . S
C23 O26 1.301 . S
C23 O27 1.282 . S
O24 U6 2.441 . S
O24 C10 1.249 . S
O25 U6 2.420 . S
O25 C10 1.202 . S
O26 U6 2.455 . S
O26 C23 1.301 . S
O27 U6 2.449 . S
O27 C23 1.282 . S
H28 C1 0.931 . S
H29 C3 0.929 . S
H30 C4 0.930 . S
H31 C5 0.931 . S
H32 C12 0.932 . S
H33 C13 0.930 . S
H34 C14 0.929 . S
H35 C16 0.930 . S
H36 C18 0.932 . S
H37 C19 0.929 . S
H38 C20 0.928 . S
H39 C22 0.932 . S
C40 C41 1.264 . S
C40 C45 1.479 . S
C40 C50 1.465 . S
C41 C40 1.264 . S
C41 C43 1.339 . S
C41 H68 0.931 . S
C42 C43 1.395 . S
C42 C44 1.320 . S
C43 C41 1.339 . S
C43 C42 1.395 . S
C43 H69 0.929 . S
C44 C42 1.320 . S
C44 C45 1.405 . S
C44 H70 0.930 . S
C45 C40 1.479 . S
C45 C44 1.405 . S
C45 H71 0.931 . S
U46 O47 2.454 . S
U46 O48 2.458 . S
U46 C49 2.984 . S
U46 C50 2.847 . S
U46 C63 2.882 . S
U46 O64 2.441 . S
U46 O65 2.420 . S
U46 O66 2.455 . S
U46 O67 2.449 . S
O47 U46 2.454 . S
O47 C49 1.353 . S
O48 U46 2.458 . S
O48 C49 1.286 . S
C49 U46 2.984 . S
C49 O47 1.353 . S
C49 O48 1.286 . S
C49 C51 1.363 . S
C50 C40 1.465 . S
C50 U46 2.847 . S
C50 O64 1.249 . S
C50 O65 1.202 . S
C51 C49 1.363 . S
C51 C53 1.408 . S
C51 C56 1.342 . S
C52 C53 1.310 . S
C52 C55 1.461 . S
C52 H72 0.932 . S
C53 C51 1.408 . S
C53 C52 1.310 . S
C53 H73 0.930 . S
C54 C55 1.474 . S
C54 C56 1.285 . S
C54 H74 0.929 . S
C55 C52 1.461 . S
C55 C54 1.474 . S
C56 C51 1.342 . S
C56 C54 1.285 . S
C56 H75 0.930 . S
C57 C60 1.424 . S
C57 C62 1.245 . S
C57 C63 1.428 . S
C58 C61 1.260 . S
C58 C62 1.477 . S
C58 H76 0.932 . S
C59 C60 1.384 . S
C59 C61 1.479 . S
C59 H77 0.929 . S
C60 C57 1.424 . S
C60 C59 1.384 . S
C60 H78 0.928 . S
C61 C58 1.260 . S
C61 C59 1.479 . S
C62 C57 1.245 . S
C62 C58 1.477 . S
C62 H79 0.932 . S
C63 U46 2.882 . S
C63 C57 1.428 . S
C63 O66 1.301 . S
C63 O67 1.282 . S
O64 U46 2.441 . S
O64 C50 1.249 . S
O65 U46 2.420 . S
O65 C50 1.202 . S
O66 U46 2.455 . S
O66 C63 1.301 . S
O67 U46 2.449 . S
O67 C63 1.282 . S
H68 C41 0.931 . S
H69 C43 0.929 . S
H70 C44 0.930 . S
H71 C45 0.931 . S
H72 C52 0.932 . S
H73 C53 0.930 . S
H74 C54 0.929 . S
H75 C56 0.930 . S
H76 C58 0.932 . S
H77 C59 0.929 . S
H78 C60 0.928 . S
H79 C62 0.932 . S
C80 C81 1.264 . S
C80 C85 1.479 . S
C80 C90 1.465 . S
C81 C80 1.264 . S
C81 C83 1.339 . S
C81 H108 0.931 . S
C82 C83 1.395 . S
C82 C84 1.320 . S
C83 C81 1.339 . S
C83 C82 1.395 . S
C83 H109 0.929 . S
C84 C82 1.320 . S
C84 C85 1.405 . S
C84 H110 0.930 . S
C85 C80 1.479 . S
C85 C84 1.405 . S
C85 H111 0.931 . S
U86 O87 2.454 . S
U86 O88 2.458 . S
U86 C89 2.984 . S
U86 C90 2.847 . S
U86 C103 2.882 . S
U86 O104 2.441 . S
U86 O105 2.420 . S
U86 O106 2.455 . S
U86 O107 2.449 . S
O87 U86 2.454 . S
O87 C89 1.353 . S
O88 U86 2.458 . S
O88 C89 1.286 . S
C89 U86 2.984 . S
C89 O87 1.353 . S
C89 O88 1.286 . S
C89 C91 1.363 . S
C90 C80 1.465 . S
C90 U86 2.847 . S
C90 O104 1.249 . S
C90 O105 1.202 . S
C91 C89 1.363 . S
C91 C93 1.408 . S
C91 C96 1.342 . S
C92 C93 1.310 . S
C92 C95 1.461 . S
C92 H112 0.932 . S
C93 C91 1.408 . S
C93 C92 1.310 . S
C93 H113 0.930 . S
C94 C95 1.474 . S
C94 C96 1.285 . S
C94 H114 0.929 . S
C95 C92 1.461 . S
C95 C94 1.474 . S
C96 C91 1.342 . S
C96 C94 1.285 . S
C96 H115 0.930 . S
C97 C100 1.424 . S
C97 C102 1.245 . S
C97 C103 1.428 . S
C98 C101 1.260 . S
C98 C102 1.477 . S
C98 H116 0.932 . S
C99 C100 1.384 . S
C99 C101 1.479 . S
C99 H117 0.929 . S
C100 C97 1.424 . S
C100 C99 1.384 . S
C100 H118 0.928 . S
C101 C98 1.260 . S
C101 C99 1.479 . S
C102 C97 1.245 . S
C102 C98 1.477 . S
C102 H119 0.932 . S
C103 U86 2.882 . S
C103 C97 1.428 . S
C103 O106 1.301 . S
C103 O107 1.282 . S
O104 U86 2.441 . S
O104 C90 1.249 . S
O105 U86 2.420 . S
O105 C90 1.202 . S
O106 U86 2.455 . S
O106 C103 1.301 . S
O107 U86 2.449 . S
O107 C103 1.282 . S
H108 C81 0.931 . S
H109 C83 0.929 . S
H110 C84 0.930 . S
H111 C85 0.931 . S
H112 C92 0.932 . S
H113 C93 0.930 . S
H114 C94 0.929 . S
H115 C96 0.930 . S
H116 C98 0.932 . S
H117 C99 0.929 . S
H118 C100 0.928 . S
H119 C102 0.932 . S
C120 C121 1.264 . S
C120 C125 1.479 . S
C120 C130 1.465 . S
C121 C120 1.264 . S
C121 C123 1.339 . S
C121 H148 0.931 . S
C122 C123 1.395 . S
C122 C124 1.320 . S
C123 C121 1.339 . S
C123 C122 1.395 . S
C123 H149 0.929 . S
C124 C122 1.320 . S
C124 C125 1.405 . S
C124 H150 0.930 . S
C125 C120 1.479 . S
C125 C124 1.405 . S
C125 H151 0.931 . S
U126 O127 2.454 . S
U126 O128 2.458 . S
U126 C129 2.984 . S
U126 C130 2.847 . S
U126 C143 2.882 . S
U126 O144 2.441 . S
U126 O145 2.420 . S
U126 O146 2.455 . S
U126 O147 2.449 . S
O127 U126 2.454 . S
O127 C129 1.353 . S
O128 U126 2.458 . S
O128 C129 1.286 . S
C129 U126 2.984 . S
C129 O127 1.353 . S
C129 O128 1.286 . S
C129 C131 1.363 . S
C130 C120 1.465 . S
C130 U126 2.847 . S
C130 O144 1.249 . S
C130 O145 1.202 . S
C131 C129 1.363 . S
C131 C133 1.408 . S
C131 C136 1.342 . S
C132 C133 1.310 . S
C132 C135 1.461 . S
C132 H152 0.932 . S
C133 C131 1.408 . S
C133 C132 1.310 . S
C133 H153 0.930 . S
C134 C135 1.474 . S
C134 C136 1.285 . S
C134 H154 0.929 . S
C135 C132 1.461 . S
C135 C134 1.474 . S
C136 C131 1.342 . S
C136 C134 1.285 . S
C136 H155 0.930 . S
C137 C140 1.424 . S
C137 C142 1.245 . S
C137 C143 1.428 . S
C138 C141 1.260 . S
C138 C142 1.477 . S
C138 H156 0.932 . S
C139 C140 1.384 . S
C139 C141 1.479 . S
C139 H157 0.929 . S
C140 C137 1.424 . S
C140 C139 1.384 . S
C140 H158 0.928 . S
C141 C138 1.260 . S
C141 C139 1.479 . S
C142 C137 1.245 . S
C142 C138 1.477 . S
C142 H159 0.932 . S
C143 U126 2.882 . S
C143 C137 1.428 . S
C143 O146 1.301 . S
C143 O147 1.282 . S
O144 U126 2.441 . S
O144 C130 1.249 . S
O145 U126 2.420 . S
O145 C130 1.202 . S
O146 U126 2.455 . S
O146 C143 1.301 . S
O147 U126 2.449 . S
O147 C143 1.282 . S
H148 C121 0.931 . S
H149 C123 0.929 . S
H150 C124 0.930 . S
H151 C125 0.931 . S
H152 C132 0.932 . S
H153 C133 0.930 . S
H154 C134 0.929 . S
H155 C136 0.930 . S
H156 C138 0.932 . S
H157 C139 0.929 . S
H158 C140 0.928 . S
H159 C142 0.932 . S
C160 C161 1.264 . S
C160 C165 1.479 . S
C160 C170 1.465 . S
C161 C160 1.264 . S
C161 C163 1.339 . S
C161 H188 0.931 . S
C162 C163 1.395 . S
C162 C164 1.320 . S
C163 C161 1.339 . S
C163 C162 1.395 . S
C163 H189 0.929 . S
C164 C162 1.320 . S
C164 C165 1.405 . S
C164 H190 0.930 . S
C165 C160 1.479 . S
C165 C164 1.405 . S
C165 H191 0.931 . S
U166 O167 2.454 . S
U166 O168 2.458 . S
U166 C169 2.984 . S
U166 C170 2.847 . S
U166 C183 2.882 . S
U166 O184 2.441 . S
U166 O185 2.420 . S
U166 O186 2.455 . S
U166 O187 2.449 . S
O167 U166 2.454 . S
O167 C169 1.353 . S
O168 U166 2.458 . S
O168 C169 1.286 . S
C169 U166 2.984 . S
C169 O167 1.353 . S
C169 O168 1.286 . S
C169 C171 1.363 . S
C170 C160 1.465 . S
C170 U166 2.847 . S
C170 O184 1.249 . S
C170 O185 1.202 . S
C171 C169 1.363 . S
C171 C173 1.408 . S
C171 C176 1.342 . S
C172 C173 1.310 . S
C172 C175 1.461 . S
C172 H192 0.932 . S
C173 C171 1.408 . S
C173 C172 1.310 . S
C173 H193 0.930 . S
C174 C175 1.474 . S
C174 C176 1.285 . S
C174 H194 0.929 . S
C175 C172 1.461 . S
C175 C174 1.474 . S
C176 C171 1.342 . S
C176 C174 1.285 . S
C176 H195 0.930 . S
C177 C180 1.424 . S
C177 C182 1.245 . S
C177 C183 1.428 . S
C178 C181 1.260 . S
C178 C182 1.477 . S
C178 H196 0.932 . S
C179 C180 1.384 . S
C179 C181 1.479 . S
C179 H197 0.929 . S
C180 C177 1.424 . S
C180 C179 1.384 . S
C180 H198 0.928 . S
C181 C178 1.260 . S
C181 C179 1.479 . S
C182 C177 1.245 . S
C182 C178 1.477 . S
C182 H199 0.932 . S
C183 U166 2.882 . S
C183 C177 1.428 . S
C183 O186 1.301 . S
C183 O187 1.282 . S
O184 U166 2.441 . S
O184 C170 1.249 . S
O185 U166 2.420 . S
O185 C170 1.202 . S
O186 U166 2.455 . S
O186 C183 1.301 . S
O187 U166 2.449 . S
O187 C183 1.282 . S
H188 C161 0.931 . S
H189 C163 0.929 . S
H190 C164 0.930 . S
H191 C165 0.931 . S
H192 C172 0.932 . S
H193 C173 0.930 . S
H194 C174 0.929 . S
H195 C176 0.930 . S
H196 C178 0.932 . S
H197 C179 0.929 . S
H198 C180 0.928 . S
H199 C182 0.932 . S
C200 C201 1.264 . S
C200 C205 1.479 . S
C200 C210 1.465 . S
C201 C200 1.264 . S
C201 C203 1.339 . S
C201 H228 0.931 . S
C202 C203 1.395 . S
C202 C204 1.320 . S
C203 C201 1.339 . S
C203 C202 1.395 . S
C203 H229 0.929 . S
C204 C202 1.320 . S
C204 C205 1.405 . S
C204 H230 0.930 . S
C205 C200 1.479 . S
C205 C204 1.405 . S
C205 H231 0.931 . S
U206 O207 2.454 . S
U206 O208 2.458 . S
U206 C209 2.984 . S
U206 C210 2.847 . S
U206 C223 2.882 . S
U206 O224 2.441 . S
U206 O225 2.420 . S
U206 O226 2.455 . S
U206 O227 2.449 . S
O207 U206 2.454 . S
O207 C209 1.353 . S
O208 U206 2.458 . S
O208 C209 1.286 . S
C209 U206 2.984 . S
C209 O207 1.353 . S
C209 O208 1.286 . S
C209 C211 1.363 . S
C210 C200 1.465 . S
C210 U206 2.847 . S
C210 O224 1.249 . S
C210 O225 1.202 . S
C211 C209 1.363 . S
C211 C213 1.408 . S
C211 C216 1.342 . S
C212 C213 1.310 . S
C212 C215 1.461 . S
C212 H232 0.932 . S
C213 C211 1.408 . S
C213 C212 1.310 . S
C213 H233 0.930 . S
C214 C215 1.474 . S
C214 C216 1.285 . S
C214 H234 0.929 . S
C215 C212 1.461 . S
C215 C214 1.474 . S
C216 C211 1.342 . S
C216 C214 1.285 . S
C216 H235 0.930 . S
C217 C220 1.424 . S
C217 C222 1.245 . S
C217 C223 1.428 . S
C218 C221 1.260 . S
C218 C222 1.477 . S
C218 H236 0.932 . S
C219 C220 1.384 . S
C219 C221 1.479 . S
C219 H237 0.929 . S
C220 C217 1.424 . S
C220 C219 1.384 . S
C220 H238 0.928 . S
C221 C218 1.260 . S
C221 C219 1.479 . S
C222 C217 1.245 . S
C222 C218 1.477 . S
C222 H239 0.932 . S
C223 U206 2.882 . S
C223 C217 1.428 . S
C223 O226 1.301 . S
C223 O227 1.282 . S
O224 U206 2.441 . S
O224 C210 1.249 . S
O225 U206 2.420 . S
O225 C210 1.202 . S
O226 U206 2.455 . S
O226 C223 1.301 . S
O227 U206 2.449 . S
O227 C223 1.282 . S
H228 C201 0.931 . S
H229 C203 0.929 . S
H230 C204 0.930 . S
H231 C205 0.931 . S
H232 C212 0.932 . S
H233 C213 0.930 . S
H234 C214 0.929 . S
H235 C216 0.930 . S
H236 C218 0.932 . S
H237 C219 0.929 . S
H238 C220 0.928 . S
H239 C222 0.932 . S
C240 C241 1.391 . S
C240 C242 1.394 . S
C240 H256 0.931 . S
C241 C240 1.391 . S
C241 C245 1.376 . S
C242 C240 1.394 . S
C242 C243 1.369 . S
C242 C246 1.531 1_556 S
C243 C242 1.369 . S
C243 C244 1.410 . S
C243 C251 1.503 1_556 S
C244 C243 1.410 . S
C244 C245 1.392 . S
C244 C247 1.511 . S
C245 C241 1.376 . S
C245 C244 1.392 . S
C245 H257 0.929 . S
C246 C242 1.531 1_554 S
C246 H258 0.960 . S
C246 H259 0.962 . S
C246 H260 0.960 . S
C247 C244 1.511 . S
C247 H261 0.961 . S
C247 H262 0.961 . S
C247 H263 0.961 . S
C248 C249 1.370 . S
C248 C250 1.363 . S
C248 H264 0.931 . S
C249 C248 1.370 . S
C249 C253 1.408 . S
C250 C248 1.363 . S
C250 C251 1.370 . S
C250 C254 1.524 . S
C251 C243 1.503 1_554 S
C251 C250 1.370 . S
C251 C252 1.403 . S
C252 C251 1.403 . S
C252 C253 1.404 . S
C252 C255 1.539 1_554 S
C253 C249 1.408 . S
C253 C252 1.404 . S
C253 H265 0.930 . S
C254 C250 1.524 . S
C254 H266 0.956 . S
C254 H267 0.961 . S
C254 H268 0.961 . S
C255 C252 1.539 1_556 S
C255 H269 0.958 . S
C255 H270 0.961 . S
C255 H271 0.960 . S
H256 C240 0.931 . S
H257 C245 0.929 . S
H258 C246 0.960 . S
H259 C246 0.962 . S
H260 C246 0.960 . S
H261 C247 0.961 . S
H262 C247 0.961 . S
H263 C247 0.961 . S
H264 C248 0.931 . S
H265 C253 0.930 . S
H266 C254 0.956 . S
H267 C254 0.961 . S
H268 C254 0.961 . S
H269 C255 0.958 . S
H270 C255 0.961 . S
H271 C255 0.960 . S
C272 C273 1.391 . S
C272 C274 1.394 . S
C272 H288 0.931 . S
C273 C272 1.391 . S
C273 C277 1.376 . S
C274 C272 1.394 . S
C274 C275 1.369 . S
C274 C278 1.531 . S
C275 C274 1.369 . S
C275 C276 1.410 . S
C275 C283 1.503 . S
C276 C275 1.410 . S
C276 C277 1.392 . S
C276 C279 1.511 . S
C277 C273 1.376 . S
C277 C276 1.392 . S
C277 H289 0.929 . S
C278 C274 1.531 . S
C278 H290 0.960 . S
C278 H291 0.962 . S
C278 H292 0.960 . S
C279 C276 1.511 . S
C279 H293 0.961 . S
C279 H294 0.961 . S
C279 H295 0.961 . S
C280 C281 1.370 . S
C280 C282 1.363 . S
C280 H296 0.931 . S
C281 C280 1.370 . S
C281 C285 1.408 . S
C282 C280 1.363 . S
C282 C283 1.370 . S
C282 C286 1.524 . S
C283 C275 1.503 . S
C283 C282 1.370 . S
C283 C284 1.403 . S
C284 C283 1.403 . S
C284 C285 1.404 . S
C284 C287 1.539 . S
C285 C281 1.408 . S
C285 C284 1.404 . S
C285 H297 0.930 . S
C286 C282 1.524 . S
C286 H298 0.956 . S
C286 H299 0.961 . S
C286 H300 0.961 . S
C287 C284 1.539 . S
C287 H301 0.958 . S
C287 H302 0.961 . S
C287 H303 0.960 . S
H288 C272 0.931 . S
H289 C277 0.929 . S
H290 C278 0.960 . S
H291 C278 0.962 . S
H292 C278 0.960 . S
H293 C279 0.961 . S
H294 C279 0.961 . S
H295 C279 0.961 . S
H296 C280 0.931 . S
H297 C285 0.930 . S
H298 C286 0.956 . S
H299 C286 0.961 . S
H300 C286 0.961 . S
H301 C287 0.958 . S
H302 C287 0.961 . S
H303 C287 0.960 . S
C304 C305 1.391 . S
C304 C306 1.394 . S
C304 H320 0.931 . S
C305 C304 1.391 . S
C305 C309 1.376 . S
C306 C304 1.394 . S
C306 C307 1.369 . S
C306 C310 1.531 . S
C307 C306 1.369 . S
C307 C308 1.410 . S
C307 C315 1.503 . S
C308 C307 1.410 . S
C308 C309 1.392 . S
C308 C311 1.511 . S
C309 C305 1.376 . S
C309 C308 1.392 . S
C309 H321 0.929 . S
C310 C306 1.531 . S
C310 H322 0.960 . S
C310 H323 0.962 . S
C310 H324 0.960 . S
C311 C308 1.511 . S
C311 H325 0.961 . S
C311 H326 0.961 . S
C311 H327 0.961 . S
C312 C313 1.370 . S
C312 C314 1.363 . S
C312 H328 0.931 . S
C313 C312 1.370 . S
C313 C317 1.408 . S
C314 C312 1.363 . S
C314 C315 1.370 . S
C314 C318 1.524 . S
C315 C307 1.503 . S
C315 C314 1.370 . S
C315 C316 1.403 . S
C316 C315 1.403 . S
C316 C317 1.404 . S
C316 C319 1.539 . S
C317 C313 1.408 . S
C317 C316 1.404 . S
C317 H329 0.930 . S
C318 C314 1.524 . S
C318 H330 0.956 . S
C318 H331 0.961 . S
C318 H332 0.961 . S
C319 C316 1.539 . S
C319 H333 0.958 . S
C319 H334 0.961 . S
C319 H335 0.960 . S
H320 C304 0.931 . S
H321 C309 0.929 . S
H322 C310 0.960 . S
H323 C310 0.962 . S
H324 C310 0.960 . S
H325 C311 0.961 . S
H326 C311 0.961 . S
H327 C311 0.961 . S
H328 C312 0.931 . S
H329 C317 0.930 . S
H330 C318 0.956 . S
H331 C318 0.961 . S
H332 C318 0.961 . S
H333 C319 0.958 . S
H334 C319 0.961 . S
H335 C319 0.960 . S
C336 C337 1.391 . S
C336 C338 1.394 . S
C336 H352 0.931 . S
C337 C336 1.391 . S
C337 C341 1.376 . S
C338 C336 1.394 . S
C338 C339 1.369 . S
C338 C342 1.531 1_554 S
C339 C338 1.369 . S
C339 C340 1.410 . S
C339 C347 1.503 1_554 S
C340 C339 1.410 . S
C340 C341 1.392 . S
C340 C343 1.511 . S
C341 C337 1.376 . S
C341 C340 1.392 . S
C341 H353 0.929 . S
C342 C338 1.531 1_556 S
C342 H354 0.960 . S
C342 H355 0.962 . S
C342 H356 0.960 . S
C343 C340 1.511 . S
C343 H357 0.961 . S
C343 H358 0.961 . S
C343 H359 0.961 . S
C344 C345 1.370 . S
C344 C346 1.363 . S
C344 H360 0.931 . S
C345 C344 1.370 . S
C345 C349 1.408 . S
C346 C344 1.363 . S
C346 C347 1.370 . S
C346 C350 1.524 . S
C347 C339 1.503 1_556 S
C347 C346 1.370 . S
C347 C348 1.403 . S
C348 C347 1.403 . S
C348 C349 1.404 . S
C348 C351 1.539 1_556 S
C349 C345 1.408 . S
C349 C348 1.404 . S
C349 H361 0.930 . S
C350 C346 1.524 . S
C350 H362 0.956 . S
C350 H363 0.936 1_556 S
C350 H364 0.961 . S
C351 C348 1.539 1_554 S
C351 H365 0.958 1_554 S
C351 H366 0.962 . S
C351 H367 0.960 . S
H352 C336 0.931 . S
H353 C341 0.929 . S
H354 C342 0.960 . S
H355 C342 0.962 . S
H356 C342 0.960 . S
H357 C343 0.961 . S
H358 C343 0.961 . S
H359 C343 0.961 . S
H360 C344 0.931 . S
H361 C349 0.930 . S
H362 C350 0.956 . S
H363 C350 0.936 1_554 S
H364 C350 0.961 . S
H365 C351 0.958 1_556 S
H366 C351 0.962 . S
H367 C351 0.960 . S
C368 C369 1.391 . S
C368 C370 1.394 . S
C368 H384 0.931 . S
C369 C368 1.391 . S
C369 C373 1.376 . S
C370 C368 1.394 . S
C370 C371 1.369 . S
C370 C374 1.531 . S
C371 C370 1.369 . S
C371 C372 1.410 . S
C371 C379 1.503 . S
C372 C371 1.410 . S
C372 C373 1.392 . S
C372 C375 1.511 . S
C373 C369 1.376 . S
C373 C372 1.392 . S
C373 H385 0.929 . S
C374 C370 1.531 . S
C374 H386 0.960 . S
C374 H387 0.962 . S
C374 H388 0.960 . S
C375 C372 1.511 . S
C375 H389 0.961 . S
C375 H390 0.961 . S
C375 H391 0.961 . S
C376 C377 1.370 . S
C376 C378 1.363 . S
C376 H392 0.931 . S
C377 C376 1.370 . S
C377 C381 1.408 . S
C378 C376 1.363 . S
C378 C379 1.370 . S
C378 C382 1.524 . S
C379 C371 1.503 . S
C379 C378 1.370 . S
C379 C380 1.403 . S
C380 C379 1.403 . S
C380 C381 1.404 . S
C380 C383 1.539 . S
C381 C377 1.408 . S
C381 C380 1.404 . S
C381 H393 0.930 . S
C382 C378 1.524 . S
C382 H394 0.956 . S
C382 H395 0.961 . S
C382 H396 0.961 . S
C383 C380 1.539 . S
C383 H397 0.958 . S
C383 H398 0.961 . S
C383 H399 0.960 . S
H384 C368 0.931 . S
H385 C373 0.929 . S
H386 C374 0.960 . S
H387 C374 0.962 . S
H388 C374 0.960 . S
H389 C375 0.961 . S
H390 C375 0.961 . S
H391 C375 0.961 . S
H392 C376 0.931 . S
H393 C381 0.930 . S
H394 C382 0.956 . S
H395 C382 0.961 . S
H396 C382 0.961 . S
H397 C383 0.958 . S
H398 C383 0.961 . S
H399 C383 0.960 . S
C400 C401 1.391 . S
C400 C402 1.394 . S
C400 H416 0.931 . S
C401 C400 1.391 . S
C401 C405 1.376 . S
C402 C400 1.394 . S
C402 C403 1.369 . S
C402 C406 1.531 . S
C403 C402 1.369 . S
C403 C404 1.410 . S
C403 C411 1.503 . S
C404 C403 1.410 . S
C404 C405 1.392 . S
C404 C407 1.511 . S
C405 C401 1.376 . S
C405 C404 1.392 . S
C405 H417 0.929 . S
C406 C402 1.531 . S
C406 H418 0.960 . S
C406 H419 0.962 . S
C406 H420 0.960 . S
C407 C404 1.511 . S
C407 H421 0.961 . S
C407 H422 0.961 . S
C407 H423 0.961 . S
C408 C409 1.370 . S
C408 C410 1.363 . S
C408 H424 0.931 . S
C409 C408 1.370 . S
C409 C413 1.408 . S
C410 C408 1.363 . S
C410 C411 1.370 . S
C410 C414 1.524 . S
C411 C403 1.503 . S
C411 C410 1.370 . S
C411 C412 1.403 . S
C412 C411 1.403 . S
C412 C413 1.404 . S
C412 C415 1.539 . S
C413 C409 1.408 . S
C413 C412 1.404 . S
C413 H425 0.930 . S
C414 C410 1.524 . S
C414 H426 0.956 . S
C414 H427 0.961 . S
C414 H428 0.961 . S
C415 C412 1.539 . S
C415 H429 0.958 . S
C415 H430 0.961 . S
C415 H431 0.960 . S
H416 C400 0.931 . S
H417 C405 0.929 . S
H418 C406 0.960 . S
H419 C406 0.962 . S
H420 C406 0.960 . S
H421 C407 0.961 . S
H422 C407 0.961 . S
H423 C407 0.961 . S
H424 C408 0.931 . S
H425 C413 0.930 . S
H426 C414 0.956 . S
H427 C414 0.961 . S
H428 C414 0.961 . S
H429 C415 0.958 . S
H430 C415 0.961 . S
H431 C415 0.960 . S
C432 C433 1.391 . S
C432 C434 1.394 . S
C432 H448 0.931 . S
C433 C432 1.391 . S
C433 C437 1.376 . S
C434 C432 1.394 . S
C434 C435 1.369 . S
C434 C438 1.531 . S
C435 C434 1.369 . S
C435 C436 1.410 . S
C435 C443 1.503 1_455 S
C436 C435 1.410 . S
C436 C437 1.392 . S
C436 C439 1.511 . S
C437 C433 1.376 . S
C437 C436 1.392 . S
C437 H449 0.929 . S
C438 C434 1.531 . S
C438 H450 0.968 . S
C438 H451 0.962 . S
C438 H452 0.960 . S
C439 C436 1.511 . S
C439 H453 0.961 . S
C439 H454 0.961 1_455 S
C439 H455 0.961 . S
C440 C441 1.370 . S
C440 C442 1.363 . S
C440 H456 0.931 . S
C441 C440 1.370 . S
C441 C445 1.408 . S
C442 C440 1.363 . S
C442 C443 1.370 . S
C442 C446 1.524 . S
C443 C435 1.503 1_655 S
C443 C442 1.370 . S
C443 C444 1.403 . S
C444 C443 1.403 . S
C444 C445 1.404 . S
C444 C447 1.539 . S
C445 C441 1.408 . S
C445 C444 1.404 . S
C445 H457 0.930 . S
C446 C442 1.524 . S
C446 H458 0.955 1_655 S
C446 H459 0.914 1_655 S
C446 H460 0.961 . S
C447 C444 1.539 . S
C447 H461 0.958 . S
C447 H462 0.961 . S
C447 H463 0.960 . S
H448 C432 0.931 . S
H449 C437 0.929 . S
H450 C438 0.968 . S
H451 C438 0.962 . S
H452 C438 0.960 . S
H453 C439 0.961 . S
H454 C439 0.961 1_655 S
H455 C439 0.961 . S
H456 C440 0.931 . S
H457 C445 0.930 . S
H458 C446 0.955 1_455 S
H459 C446 0.914 1_455 S
H460 C446 0.961 . S
H461 C447 0.958 . S
H462 C447 0.961 . S
H463 C447 0.960 . S
C464 C465 1.391 . S
C464 C466 1.394 . S
C464 H480 0.931 . S
C465 C464 1.391 . S
C465 C469 1.376 . S
C466 C464 1.394 . S
C466 C467 1.369 . S
C466 C470 1.531 . S
C467 C466 1.369 . S
C467 C468 1.410 . S
C467 C475 1.503 1_545 S
C468 C467 1.410 . S
C468 C469 1.392 . S
C468 C471 1.511 . S
C469 C465 1.376 . S
C469 C468 1.392 . S
C469 H481 0.929 . S
C470 C466 1.531 . S
C470 H482 0.934 1_545 S
C470 H483 0.962 . S
C470 H484 0.960 . S
C471 C468 1.511 . S
C471 H485 0.961 . S
C471 H486 0.961 1_545 S
C471 H487 0.961 . S
C472 C473 1.370 . S
C472 C474 1.363 . S
C472 H488 0.931 . S
C473 C472 1.370 . S
C473 C477 1.408 . S
C474 C472 1.363 . S
C474 C475 1.370 . S
C474 C478 1.524 . S
C475 C467 1.503 1_565 S
C475 C474 1.370 . S
C475 C476 1.403 . S
C476 C475 1.403 . S
C476 C477 1.404 . S
C476 C479 1.539 . S
C477 C473 1.408 . S
C477 C476 1.404 . S
C477 H489 0.930 . S
C478 C474 1.524 . S
C478 H490 0.956 . S
C478 H491 0.977 . S
C478 H492 0.961 . S
C479 C476 1.539 . S
C479 H493 0.958 . S
C479 H494 0.961 . S
C479 H495 0.960 1_565 S
H480 C464 0.931 . S
H481 C469 0.929 . S
H482 C470 0.934 1_565 S
H483 C470 0.962 . S
H484 C470 0.960 . S
H485 C471 0.961 . S
H486 C471 0.961 1_565 S
H487 C471 0.961 . S
H488 C472 0.931 . S
H489 C477 0.930 . S
H490 C478 0.956 . S
H491 C478 0.977 . S
H492 C478 0.961 . S
H493 C479 0.958 . S
H494 C479 0.961 . S
H495 C479 0.960 1_545 S
C496 C497 1.391 . S
C496 C498 1.394 . S
C496 H512 0.931 . S
C497 C496 1.391 . S
C497 C501 1.376 . S
C498 C496 1.394 . S
C498 C499 1.369 . S
C498 C502 1.531 . S
C499 C498 1.369 . S
C499 C500 1.410 . S
C499 C507 1.503 . S
C500 C499 1.410 . S
C500 C501 1.392 . S
C500 C503 1.511 . S
C501 C497 1.376 . S
C501 C500 1.392 . S
C501 H513 0.929 . S
C502 C498 1.531 . S
C502 H514 0.960 . S
C502 H515 0.962 . S
C502 H516 0.960 . S
C503 C500 1.511 . S
C503 H517 0.961 . S
C503 H518 0.961 . S
C503 H519 0.961 . S
C504 C505 1.370 . S
C504 C506 1.363 . S
C504 H520 0.931 . S
C505 C504 1.370 . S
C505 C509 1.408 . S
C506 C504 1.363 . S
C506 C507 1.370 . S
C506 C510 1.524 . S
C507 C499 1.503 . S
C507 C506 1.370 . S
C507 C508 1.403 . S
C508 C507 1.403 . S
C508 C509 1.404 . S
C508 C511 1.539 . S
C509 C505 1.408 . S
C509 C508 1.404 . S
C509 H521 0.930 . S
C510 C506 1.524 . S
C510 H522 0.956 . S
C510 H523 0.961 . S
C510 H524 0.961 . S
C511 C508 1.539 . S
C511 H525 0.958 . S
C511 H526 0.961 . S
C511 H527 0.960 . S
H512 C496 0.931 . S
H513 C501 0.929 . S
H514 C502 0.960 . S
H515 C502 0.962 . S
H516 C502 0.960 . S
H517 C503 0.961 . S
H518 C503 0.961 . S
H519 C503 0.961 . S
H520 C504 0.931 . S
H521 C509 0.930 . S
H522 C510 0.956 . S
H523 C510 0.961 . S
H524 C510 0.961 . S
H525 C511 0.958 . S
H526 C511 0.961 . S
H527 C511 0.960 . S
C241 C101 1.486 . S
C249 C2 1.480 . S
C273 C61 1.474 . S
C281 C141 1.489 . S
C305 C82 1.496 . S
C313 C181 1.487 . S
C337 C122 1.480 . S
C345 C221 1.495 . S
C369 C162 1.472 . S
C377 C21 1.481 . S
C401 C202 1.498 . S
C409 C42 1.486 . S
C433 C15 1.499 . S
C441 C135 1.501 . S
C465 C55 1.494 . S
C473 C175 1.499 . S
C497 C95 1.496 . S
C505 C215 1.503 . S
