# Generated by pormake.
# Topology reo, (8)-cn, num edge types: 1
# Building blocks:
#     Node 0, Type 0, BuildingBlock: TAGTUT_clean_sbu_1, # of connection points: 8
#     Node 1, Type 0, BuildingBlock: TAGTUT_clean_sbu_1, # of connection points: 8
#     Node 2, Type 0, BuildingBlock: TAGTUT_clean_sbu_1, # of connection points: 8
#     Edge 3, Type (0, 0), BuildingBlock: KIFKEQ_clean_linker_1, # of connection points: 2
#     Edge 4, Type (0, 0), BuildingBlock: KIFKEQ_clean_linker_1, # of connection points: 2
#     Edge 5, Type (0, 0), BuildingBlock: KIFKEQ_clean_linker_1, # of connection points: 2
#     Edge 6, Type (0, 0), BuildingBlock: KIFKEQ_clean_linker_1, # of connection points: 2
#     Edge 7, Type (0, 0), BuildingBlock: KIFKEQ_clean_linker_1, # of connection points: 2
#     Edge 8, Type (0, 0), BuildingBlock: KIFKEQ_clean_linker_1, # of connection points: 2
#     Edge 9, Type (0, 0), BuildingBlock: KIFKEQ_clean_linker_1, # of connection points: 2
#     Edge 10, Type (0, 0), BuildingBlock: KIFKEQ_clean_linker_1, # of connection points: 2
#     Edge 11, Type (0, 0), BuildingBlock: KIFKEQ_clean_linker_1, # of connection points: 2
#     Edge 12, Type (0, 0), BuildingBlock: KIFKEQ_clean_linker_1, # of connection points: 2
#     Edge 13, Type (0, 0), BuildingBlock: KIFKEQ_clean_linker_1, # of connection points: 2
#     Edge 14, Type (0, 0), BuildingBlock: KIFKEQ_clean_linker_1, # of connection points: 2
# Relax obj value: 0.195
# Max RMSD: 0.232
# Mean RMSD: 0.181
data_MOF--net-reo--node1-TAGTUT_clean_sbu_1--edge1-KIFKEQ_clean_linker_1
_symmetry_space_group_name_H-M    P1
_symmetry_Int_Tables_number       1
_symmetry_cell_setting            triclinic
loop_
_symmetry_equiv_pos_as_xyz
'x, y, z'
_cell_length_a     21.090314
_cell_length_b     23.556251
_cell_length_c     27.211926
_cell_angle_alpha  90.03461
_cell_angle_beta   89.90447
_cell_angle_gamma 92.075817
loop_
_atom_site_label
_atom_site_type_symbol
_atom_site_fract_x
_atom_site_fract_y
_atom_site_fract_z
_atom_type_partial_charge
C0 C 0.06883 0.79744 0.52556 0.0
C1 C 0.95377 0.85019 0.40079 0.0
C2 C 0.10825 0.02808 0.38904 0.0
Mg3 Mg 0.95808 0.87787 0.50901 0.0
O4 O 0.0282 0.92799 0.50103 0.0
Mg5 Mg 0.09049 0.90865 0.44839 0.0
Mg6 Mg 0.00833 0.00535 0.47909 0.0
O7 O 0.98854 0.08268 0.4571 0.0
Mg8 Mg 0.05868 0.13278 0.44896 0.0
Mg9 Mg 0.9263 0.10208 0.50971 0.0
C10 C 0.90842 0.98254 0.56902 0.0
C11 C 0.86387 1.00334 0.43956 0.0
O12 O 0.10489 0.82668 0.49599 0.0
O13 O 0.01127 0.80938 0.53455 0.0
O14 O 0.01338 0.86282 0.40016 0.0
O15 O 0.92014 0.85697 0.43903 0.0
O16 O 0.90474 0.92923 0.55908 0.0
O17 O 0.94777 0.01681 0.54713 0.0
C18 C 0.15282 0.00738 0.51858 0.0
O19 O 0.09976 0.03219 0.51817 0.0
O20 O 0.16095 0.96065 0.49553 0.0
O21 O 0.91191 0.18402 0.46209 0.0
O22 O 1.00547 0.20127 0.42344 0.0
O23 O 1.00349 0.14793 0.55786 0.0
C24 C 0.94793 0.21323 0.43249 0.0
O25 O 0.09669 0.15379 0.51892 0.0
O26 O 0.112 0.08143 0.39884 0.0
C27 C 0.06308 0.16059 0.55719 0.0
O28 O 0.06894 0.99396 0.41112 0.0
O29 O 0.91691 0.9785 0.43998 0.0
O30 O 0.85578 0.05008 0.46262 0.0
C31 C 0.56454 0.96998 0.16634 0.0
C32 C 0.38123 0.99003 0.10436 0.0
C33 C 0.45595 0.87633 0.95272 0.0
Mg34 Mg 0.50831 0.05357 0.09059 0.0
O35 O 0.53744 0.9976 0.04814 0.0
Mg36 Mg 0.50399 0.91755 0.06075 0.0
Mg37 Mg 0.50832 0.00543 -0.02096 0.0
O38 O 0.47918 0.0132 0.90995 0.0
Mg39 Mg 0.50819 0.95718 0.86749 0.0
Mg40 Mg 0.51267 0.0932 0.8973 0.0
C41 C 0.56054 0.1345 0.00535 0.0
C42 C 0.39507 0.09865 0.97434 0.0
O43 O 0.55128 0.92752 0.13787 0.0
O44 O 0.55274 0.02133 0.15484 0.0
O45 O 0.41023 0.9448 0.09456 0.0
O46 O 0.40843 0.03901 0.10025 0.0
O47 O 0.54418 0.12876 0.05068 0.0
O48 O 0.55681 0.09271 0.975 0.0
C49 C 0.62159 0.9122 -0.01628 0.0
O50 O 0.59812 0.95343 0.95942 0.0
O51 O 0.59598 0.89321 0.02348 0.0
O52 O 0.46535 0.08324 0.8202 0.0
O53 O 0.4638 0.98943 0.80323 0.0
O54 O 0.60639 0.06586 0.8635 0.0
C55 C 0.45205 0.04078 0.79173 0.0
O56 O 0.60807 0.97164 0.85782 0.0
O57 O 0.4722 0.882 0.90736 0.0
C58 C 0.63533 0.02059 0.85371 0.0
O59 O 0.45996 0.91816 -0.01699 0.0
O60 O 0.41852 0.05742 -0.00134 0.0
O61 O 0.4207 0.11761 0.93458 0.0
C62 C 0.11699 0.41717 0.82282 0.0
C63 C 0.05741 0.58709 0.83325 0.0
C64 C 0.13342 0.57572 0.02266 0.0
Mg65 Mg 0.99437 0.47222 0.86114 0.0
O66 O 0.0423 0.47173 0.91831 0.0
Mg67 Mg 0.13061 0.50708 0.91815 0.0
Mg68 Mg 1.00819 0.50535 -0.02095 0.0
O69 O 0.97413 0.53901 0.03977 0.0
Mg70 Mg 0.02204 0.53879 0.09697 0.0
Mg71 Mg 0.88583 0.50372 0.03998 0.0
C72 C 0.88294 0.4352 0.93545 0.0
C73 C 0.89811 0.5962 0.95159 0.0
O74 O 0.15154 0.44623 0.85325 0.0
O75 O 0.05645 0.41948 0.8207 0.0
O76 O 0.10402 0.57508 0.86101 0.0
O77 O 1.0065 0.55607 0.83179 0.0
O78 O 0.90322 0.43975 0.89094 0.0
O79 O 0.91709 0.45152 0.97224 0.0
C80 C 0.1183 0.41449 0.00647 0.0
O81 O 0.06204 0.43074 0.01663 0.0
O82 O 0.15223 0.43838 0.97287 0.0
O83 O 0.86488 0.56469 0.10479 0.0
O84 O 0.95994 0.59163 0.13726 0.0
O85 O 0.91247 0.43582 0.0972 0.0
C86 C 0.8994 0.59389 0.13514 0.0
O87 O 0.00995 0.455 0.12647 0.0
O88 O 0.11316 0.57133 0.06718 0.0
C89 C 0.95908 0.42391 0.125 0.0
O90 O 0.09928 0.55909 -0.01403 0.0
O91 O 0.95438 0.57996 0.94145 0.0
O92 O 0.86418 0.57233 -0.01481 0.0
H93 H 0.04815 0.37761 0.18365 0.0
H94 H 0.84589 0.37703 0.1578 0.0
H95 H 0.02927 0.33208 0.26272 0.0
H96 H 0.82717 0.33185 0.23761 0.0
H97 H 0.85096 0.19608 0.36865 0.0
H98 H 0.84561 0.24455 0.28931 0.0
H99 H 0.9842 0.37064 0.34005 0.0
H100 H 0.99059 0.3213 0.41846 0.0
C101 C 0.99972 0.36674 0.19436 0.0
C102 C 0.94859 0.3818 0.16473 0.0
C103 C 0.98883 0.34143 0.24 0.0
C104 C 0.92661 0.33059 0.25708 0.0
C105 C 0.87554 0.34062 0.22564 0.0
C106 C 0.88644 0.36602 0.17975 0.0
C107 C 0.87747 0.23595 0.36368 0.0
C108 C 0.92128 0.25511 0.39938 0.0
C109 C 0.87513 0.26321 0.31803 0.0
C110 C 0.91633 0.31001 0.30803 0.0
C111 C 0.95345 0.3335 0.34632 0.0
C112 C 0.95615 0.30608 0.39156 0.0
H113 H 0.73699 0.01508 0.45234 0.0
H114 H 0.87424 0.93964 0.35677 0.0
H115 H 0.65305 0.99014 0.39384 0.0
H116 H 0.79099 0.91583 0.29777 0.0
H117 H 0.57167 0.04246 0.24365 0.0
H118 H 0.63528 0.03502 0.31681 0.0
H119 H 0.69237 0.8685 0.27132 0.0
H120 H 0.62901 0.8767 0.19643 0.0
C121 C 0.74895 0.99236 0.41916 0.0
C122 C 0.81207 0.97992 0.40867 0.0
C123 C 0.70101 0.97805 0.38569 0.0
C124 C 0.71555 0.95204 0.34072 0.0
C125 C 0.77799 0.93551 0.33214 0.0
C126 C 0.82583 0.9493 0.36591 0.0
C127 C 0.59709 1.00386 0.24933 0.0
C128 C 0.59623 0.9606 0.21381 0.0
C129 C 0.63301 0.99923 0.29179 0.0
C130 C 0.669 0.95113 0.29997 0.0
C131 C 0.66549 0.90628 0.26578 0.0
C132 C 0.62911 0.91088 0.22306 0.0
H133 H 0.83868 0.79343 0.39479 0.0
H134 H 1.00026 0.84984 0.30728 0.0
H135 H 0.79683 0.73888 0.32488 0.0
H136 H 0.95823 0.7958 0.23773 0.0
H137 H 0.86004 0.5762 0.22842 0.0
H138 H 0.84906 0.65052 0.29014 0.0
H139 H 0.8682 0.77832 0.17673 0.0
H140 H 0.879 0.70349 0.1151 0.0
C141 C 0.86458 0.79516 0.36039 0.0
C142 C 0.92361 0.8247 0.35678 0.0
C143 C 0.84041 0.76415 0.32044 0.0
C144 C 0.87436 0.76304 0.27611 0.0
C145 C 0.93068 0.79636 0.27136 0.0
C146 C 0.95524 0.8267 0.3114 0.0
C147 C 0.85848 0.62007 0.21662 0.0
C148 C 0.87002 0.63467 0.1675 0.0
C149 C 0.85218 0.66261 0.25178 0.0
C150 C 0.85854 0.72011 0.23811 0.0
C151 C 0.86346 0.73429 0.1881 0.0
C152 C 0.86928 0.69167 0.15293 0.0
H153 H 0.32575 0.89503 0.14614 0.0
H154 H 0.2986 0.07406 0.1223 0.0
H155 H 0.24852 0.89516 0.21295 0.0
H156 H 0.22081 0.07351 0.18843 0.0
H157 H 0.21832 0.07534 0.35551 0.0
H158 H 0.26779 0.05872 0.27657 0.0
H159 H 0.13266 0.92063 0.24785 0.0
H160 H 0.08196 0.93762 0.3278 0.0
C161 C 0.30146 0.93383 0.1537 0.0
C162 C 0.31991 0.98515 0.1303 0.0
C163 C 0.25715 0.93369 0.19189 0.0
C164 C 0.23067 0.9847 0.2065 0.0
C165 C 0.24205 0.03394 0.1783 0.0
C166 C 0.28648 0.03423 0.14045 0.0
C167 C 0.19951 0.04092 0.33277 0.0
C168 C 0.14586 0.00828 0.34737 0.0
C169 C 0.22735 0.03185 0.2874 0.0
C170 C 0.20231 0.98986 0.25566 0.0
C171 C 0.15182 0.95395 0.27158 0.0
C172 C 0.12348 0.96325 0.31734 0.0
H173 H 0.02607 0.68945 0.53972 0.0
H174 H 0.16585 0.8146 0.5894 0.0
H175 H 0.03236 0.64024 0.61819 0.0
H176 H 0.17112 0.76625 0.66881 0.0
H177 H 0.17066 0.63385 0.80043 0.0
H178 H 0.18944 0.67896 0.72061 0.0
H179 H 0.98735 0.67897 0.6955 0.0
H180 H 0.9684 0.63352 0.77459 0.0
C181 C 0.06052 0.70468 0.56661 0.0
C182 C 0.09546 0.7556 0.55873 0.0
C183 C 0.06317 0.67733 0.61189 0.0
C184 C 0.10032 0.70084 0.65016 0.0
C185 C 0.14158 0.74759 0.6401 0.0
C186 C 0.13928 0.77477 0.59442 0.0
C187 C 0.13013 0.64491 0.77848 0.0
C188 C 0.06796 0.6292 0.79351 0.0
C189 C 0.14106 0.67026 0.73258 0.0
C190 C 0.09001 0.68033 0.70113 0.0
C191 C 0.02778 0.66959 0.71823 0.0
C192 C 0.01685 0.64432 0.76388 0.0
H193 H 0.44498 0.96836 0.71439 0.0
H194 H 0.38764 0.1341 0.76166 0.0
H195 H 0.38143 0.97586 0.64121 0.0
H196 H 0.32433 0.14235 0.68675 0.0
H197 H 0.14244 0.0711 0.60136 0.0
H198 H 0.22571 0.09499 0.66033 0.0
H199 H 0.36367 0.0208 0.56419 0.0
H200 H 0.27969 0.99578 0.50573 0.0
C201 C 0.41957 0.00696 0.70871 0.0
C202 C 0.42041 0.0502 0.74426 0.0
C203 C 0.38369 0.01163 0.66624 0.0
C204 C 0.34772 0.05974 0.65807 0.0
C205 C 0.35121 0.10456 0.69228 0.0
C206 C 0.38755 0.09993 0.73501 0.0
C207 C 0.19085 0.06148 0.59221 0.0
C208 C 0.20461 0.03086 0.54945 0.0
C209 C 0.23871 0.07532 0.62594 0.0
C210 C 0.30115 0.05883 0.61734 0.0
C211 C 0.3157 0.03285 0.57235 0.0
C212 C 0.26774 0.01849 0.53892 0.0
H213 H 0.13797 0.30766 0.84278 0.0
H214 H 0.15573 0.43496 0.72939 0.0
H215 H 0.1489 0.23287 0.78112 0.0
H216 H 0.16686 0.36068 0.66765 0.0
H217 H 0.01685 0.16069 0.65076 0.0
H218 H 0.05875 0.21493 0.72025 0.0
H219 H 0.21963 0.27256 0.63286 0.0
H220 H 0.17792 0.2178 0.56302 0.0
C221 C 0.14745 0.3195 0.80491 0.0
C222 C 0.14634 0.37649 0.79034 0.0
C223 C 0.15334 0.2769 0.76974 0.0
C224 C 0.158 0.29108 0.7197 0.0
C225 C 0.16395 0.34859 0.70602 0.0
C226 C 0.15757 0.39111 0.74119 0.0
C227 C 0.06174 0.18403 0.64658 0.0
C228 C 0.09326 0.18617 0.60115 0.0
C229 C 0.08623 0.21448 0.68658 0.0
C230 C 0.14235 0.24806 0.68175 0.0
C231 C 0.17621 0.24709 0.63736 0.0
C232 C 0.15212 0.21596 0.59746 0.0
H233 H 0.71791 0.9365 0.83591 0.0
H234 H 0.69089 0.11551 0.81185 0.0
H235 H 0.79575 0.93691 0.76983 0.0
H236 H 0.76816 0.11524 0.74507 0.0
H237 H 0.93433 0.07313 0.6302 0.0
H238 H 0.88365 0.09001 0.71016 0.0
H239 H 0.74925 0.95127 0.68172 0.0
H240 H 0.79871 0.93473 0.60277 0.0
C241 C 0.73007 0.9763 0.81771 0.0
C242 C 0.69666 0.02541 0.8278 0.0
C243 C 0.77453 0.9765 0.77989 0.0
C244 C 0.78594 0.0257 0.75163 0.0
C245 C 0.75949 0.07674 0.76617 0.0
C246 C 0.71517 0.07668 0.80434 0.0
C247 C 0.89299 0.04731 0.64073 0.0
C248 C 0.87081 1.00214 0.61077 0.0
C249 C 0.86466 0.05655 0.6865 0.0
C250 C 0.81437 0.02045 0.7025 0.0
C251 C 0.78954 0.97828 0.67084 0.0
C252 C 0.81738 0.96926 0.62546 0.0
H253 H 0.23239 0.40182 0.04997 0.0
H254 H 0.06343 0.30812 0.00416 0.0
H255 H 0.28934 0.31359 0.05498 0.0
H256 H 0.12086 0.21947 0.00797 0.0
H257 H 0.37915 0.14368 0.06599 0.0
H258 H 0.30067 0.21296 0.09036 0.0
H259 H 0.21087 0.19471 0.94854 0.0
H260 H 0.28958 0.12644 0.92426 0.0
C261 C 0.20662 0.36193 0.04326 0.0
C262 C 0.14327 0.36177 0.02731 0.0
C263 C 0.23933 0.31132 0.04587 0.0
C264 C 0.20986 0.25948 0.0314 0.0
C265 C 0.14493 0.25874 0.01921 0.0
C266 C 0.11177 0.30939 0.01764 0.0
C267 C 0.34114 0.15291 0.04086 0.0
C268 C 0.33994 0.12916 -0.00654 0.0
C269 C 0.29658 0.19297 0.05459 0.0
C270 C 0.24937 0.20933 0.02145 0.0
C271 C 0.2459 0.18255 0.97525 0.0
C272 C 0.29109 0.14351 0.96125 0.0
H273 H 0.18403 0.61048 0.93467 0.0
H274 H 0.22392 0.60706 0.09037 0.0
H275 H 0.27648 0.67289 0.92167 0.0
H276 H 0.31755 0.66884 0.07714 0.0
H277 H 0.39228 0.85307 0.03836 0.0
H278 H 0.32759 0.76867 0.05742 0.0
H279 H 0.38996 0.68975 0.9232 0.0
H280 H 0.45384 0.77499 0.90355 0.0
C281 C 0.21345 0.62171 0.96597 0.0
C282 C 0.19591 0.60444 0.01363 0.0
C283 C 0.26685 0.6574 0.95849 0.0
C284 C 0.30408 0.67641 -0.00151 0.0
C285 C 0.28916 0.65578 0.0457 0.0
C286 C 0.23559 0.62021 0.05321 0.0
C287 C 0.3935 0.81732 0.01346 0.0
C288 C 0.42735 0.82125 0.96904 0.0
C289 C 0.35653 0.76864 0.0245 0.0
C290 C 0.35292 0.72269 -0.00854 0.0
C291 C 0.39075 0.72489 0.94891 0.0
C292 C 0.42751 0.7737 0.93776 0.0
H293 H 0.62401 0.15792 0.91966 0.0
H294 H 0.56269 0.2358 0.05463 0.0
H295 H 0.68858 0.24237 0.90059 0.0
H296 H 0.6264 0.32113 0.03494 0.0
H297 H 0.83217 0.40054 0.02341 0.0
H298 H 0.73972 0.33817 0.03639 0.0
H299 H 0.6988 0.34208 0.88088 0.0
H300 H 0.7925 0.4038 0.86766 0.0
C301 C 0.62282 0.19364 0.9446 0.0
C302 C 0.58908 0.18963 -0.01092 0.0
C303 C 0.65971 0.24236 0.93354 0.0
C304 C 0.66335 0.28829 0.9666 0.0
C305 C 0.62561 0.28601 0.00921 0.0
C306 C 0.58894 0.23715 0.02038 0.0
C307 C 0.8028 0.38928 -0.00792 0.0
C308 C 0.82042 0.40649 0.94442 0.0
C309 C 0.74938 0.35362 -0.00044 0.0
C310 C 0.71219 0.33458 0.95956 0.0
C311 C 0.72716 0.35516 0.91233 0.0
C312 C 0.78077 0.3907 0.90482 0.0
H313 H 0.78396 0.6089 0.90819 0.0
H314 H 0.95306 0.70255 0.95377 0.0
H315 H 0.72707 0.69716 0.90317 0.0
H316 H 0.8957 0.79123 0.94993 0.0
H317 H 0.7272 0.88452 0.03369 0.0
H318 H 0.80584 0.81618 0.0094 0.0
H319 H 0.71571 0.79769 0.86772 0.0
H320 H 0.6373 0.86702 0.8921 0.0
C321 C 0.80977 0.64878 0.91485 0.0
C322 C 0.87315 0.64892 0.93074 0.0
C323 C 0.7771 0.69941 0.91222 0.0
C324 C 0.80663 0.75125 0.92662 0.0
C325 C 0.87158 0.75196 0.93876 0.0
C326 C 0.9047 0.70129 0.94033 0.0
C327 C 0.72561 0.86738 -0.00327 0.0
C328 C 0.6767 0.88168 0.96455 0.0
C329 C 0.77076 0.8283 -0.01729 0.0
C330 C 0.76718 0.80144 0.93656 0.0
C331 C 0.71989 0.81775 0.90345 0.0
C332 C 0.67537 0.85784 0.9172 0.0
loop_
_geom_bond_atom_site_label_1
_geom_bond_atom_site_label_2
_geom_bond_distance
_geom_bond_site_symmetry_2
_ccdc_geom_bond_type
C0 O12 1.241 . S
C0 O13 1.280 1_455 S
C1 O14 1.277 1_655 S
C1 O15 1.245 . S
C2 O26 1.247 . S
C2 O28 1.289 1_545 S
Mg3 O4 1.926 . S
Mg3 O13 1.984 . S
Mg3 O15 1.988 . S
Mg3 O16 2.061 . S
O4 Mg3 1.926 . S
O4 Mg5 1.986 1_655 S
O4 Mg6 1.917 1_665 S
Mg5 O4 1.986 1_455 S
Mg5 O12 2.042 . S
Mg5 O14 2.041 . S
Mg5 O20 2.038 . S
Mg5 O28 2.238 . S
Mg6 O4 1.917 1_445 S
Mg6 O7 1.917 . S
Mg6 O17 2.106 1_455 S
Mg6 O19 2.079 . S
Mg6 O28 2.106 1_545 S
Mg6 O29 2.079 1_445 S
O7 Mg6 1.917 . S
O7 Mg8 1.926 . S
O7 Mg9 1.986 1_455 S
Mg8 O7 1.926 . S
Mg8 O22 1.984 . S
Mg8 O25 1.988 . S
Mg8 O26 2.061 . S
Mg9 O7 1.986 1_655 S
Mg9 O17 2.238 . S
Mg9 O21 2.042 . S
Mg9 O23 2.041 . S
Mg9 O30 2.038 . S
C10 O16 1.247 . S
C10 O17 1.289 1_565 S
C11 O29 1.245 1_545 S
C11 O30 1.274 . S
O12 C0 1.241 . S
O12 Mg5 2.042 . S
O13 C0 1.280 1_655 S
O13 Mg3 1.984 . S
O14 C1 1.277 1_455 S
O14 Mg5 2.041 . S
O15 C1 1.245 . S
O15 Mg3 1.988 . S
O16 Mg3 2.061 . S
O16 C10 1.247 . S
O17 Mg6 2.106 1_655 S
O17 Mg9 2.238 . S
O17 C10 1.289 1_545 S
C18 O19 1.245 1_565 S
C18 O20 1.274 . S
O19 Mg6 2.079 . S
O19 C18 1.245 1_545 S
O20 Mg5 2.038 . S
O20 C18 1.274 . S
O21 Mg9 2.042 . S
O21 C24 1.241 . S
O22 Mg8 1.984 . S
O22 C24 1.280 1_455 S
O23 Mg9 2.041 . S
O23 C27 1.277 1_655 S
C24 O21 1.241 . S
C24 O22 1.280 1_655 S
O25 Mg8 1.988 . S
O25 C27 1.245 . S
O26 C2 1.247 . S
O26 Mg8 2.061 . S
C27 O23 1.277 1_455 S
C27 O25 1.245 . S
O28 C2 1.289 1_565 S
O28 Mg5 2.238 . S
O28 Mg6 2.106 1_565 S
O29 Mg6 2.079 1_665 S
O29 C11 1.245 1_565 S
O30 Mg9 2.038 . S
O30 C11 1.274 . S
C31 O43 1.241 . S
C31 O44 1.280 1_565 S
C32 O45 1.277 1_545 S
C32 O46 1.245 . S
C33 O57 1.247 . S
C33 O59 1.289 1_556 S
Mg34 O35 1.926 . S
Mg34 O44 1.984 . S
Mg34 O46 1.988 . S
Mg34 O47 2.061 . S
O35 Mg34 1.926 . S
O35 Mg36 1.986 1_545 S
O35 Mg37 1.917 . S
Mg36 O35 1.986 1_565 S
Mg36 O43 2.042 . S
Mg36 O45 2.041 . S
Mg36 O51 2.038 . S
Mg36 O59 2.238 . S
Mg37 O35 1.917 . S
Mg37 O38 1.917 1_544 S
Mg37 O48 2.106 1_554 S
Mg37 O50 2.079 1_544 S
Mg37 O59 2.106 1_545 S
Mg37 O60 2.079 . S
O38 Mg37 1.917 1_566 S
O38 Mg39 1.926 . S
O38 Mg40 1.986 1_565 S
Mg39 O38 1.926 . S
Mg39 O53 1.984 . S
Mg39 O56 1.988 . S
Mg39 O57 2.061 . S
Mg40 O38 1.986 1_545 S
Mg40 O48 2.238 . S
Mg40 O52 2.042 . S
Mg40 O54 2.041 . S
Mg40 O61 2.038 . S
C41 O47 1.247 . S
C41 O48 1.289 1_554 S
C42 O60 1.245 1_556 S
C42 O61 1.274 . S
O43 C31 1.241 . S
O43 Mg36 2.042 . S
O44 C31 1.280 1_545 S
O44 Mg34 1.984 . S
O45 C32 1.277 1_565 S
O45 Mg36 2.041 . S
O46 C32 1.245 . S
O46 Mg34 1.988 . S
O47 Mg34 2.061 . S
O47 C41 1.247 . S
O48 Mg37 2.106 1_556 S
O48 Mg40 2.238 . S
O48 C41 1.289 1_556 S
C49 O50 1.245 1_554 S
C49 O51 1.274 . S
O50 Mg37 2.079 1_566 S
O50 C49 1.245 1_556 S
O51 Mg36 2.038 . S
O51 C49 1.274 . S
O52 Mg40 2.042 . S
O52 C55 1.241 . S
O53 Mg39 1.984 . S
O53 C55 1.280 1_565 S
O54 Mg40 2.041 . S
O54 C58 1.277 1_545 S
C55 O52 1.241 . S
C55 O53 1.280 1_545 S
O56 Mg39 1.988 . S
O56 C58 1.245 . S
O57 C33 1.247 . S
O57 Mg39 2.061 . S
C58 O54 1.277 1_565 S
C58 O56 1.245 . S
O59 C33 1.289 1_554 S
O59 Mg36 2.238 . S
O59 Mg37 2.106 1_565 S
O60 Mg37 2.079 . S
O60 C42 1.245 1_554 S
O61 Mg40 2.038 . S
O61 C42 1.274 . S
C62 O74 1.241 . S
C62 O75 1.280 1_455 S
C63 O76 1.277 1_655 S
C63 O77 1.245 . S
C64 O88 1.247 . S
C64 O90 1.289 1_554 S
Mg65 O66 1.926 . S
Mg65 O75 1.984 . S
Mg65 O77 1.988 . S
Mg65 O78 2.061 . S
O66 Mg65 1.926 . S
O66 Mg67 1.986 1_655 S
O66 Mg68 1.917 1_656 S
Mg67 O66 1.986 1_455 S
Mg67 O74 2.042 . S
Mg67 O76 2.041 . S
Mg67 O82 2.038 . S
Mg67 O90 2.238 . S
Mg68 O66 1.917 1_454 S
Mg68 O69 1.917 . S
Mg68 O79 2.106 1_455 S
Mg68 O81 2.079 . S
Mg68 O90 2.106 1_554 S
Mg68 O91 2.079 1_454 S
O69 Mg68 1.917 . S
O69 Mg70 1.926 . S
O69 Mg71 1.986 1_455 S
Mg70 O69 1.926 . S
Mg70 O84 1.984 . S
Mg70 O87 1.988 . S
Mg70 O88 2.061 . S
Mg71 O69 1.986 1_655 S
Mg71 O79 2.238 . S
Mg71 O83 2.042 . S
Mg71 O85 2.041 . S
Mg71 O92 2.038 . S
C72 O78 1.247 . S
C72 O79 1.289 1_556 S
C73 O91 1.245 1_554 S
C73 O92 1.274 . S
O74 C62 1.241 . S
O74 Mg67 2.042 . S
O75 C62 1.280 1_655 S
O75 Mg65 1.984 . S
O76 C63 1.277 1_455 S
O76 Mg67 2.041 . S
O77 C63 1.245 . S
O77 Mg65 1.988 . S
O78 Mg65 2.061 . S
O78 C72 1.247 . S
O79 Mg68 2.106 1_655 S
O79 Mg71 2.238 . S
O79 C72 1.289 1_554 S
C80 O81 1.245 1_556 S
C80 O82 1.274 . S
O81 Mg68 2.079 . S
O81 C80 1.245 1_554 S
O82 Mg67 2.038 . S
O82 C80 1.274 . S
O83 Mg71 2.042 . S
O83 C86 1.241 . S
O84 Mg70 1.984 . S
O84 C86 1.280 1_455 S
O85 Mg71 2.041 . S
O85 C89 1.277 1_655 S
C86 O83 1.241 . S
C86 O84 1.280 1_655 S
O87 Mg70 1.988 . S
O87 C89 1.245 . S
O88 C64 1.247 . S
O88 Mg70 2.061 . S
C89 O85 1.277 1_455 S
C89 O87 1.245 . S
O90 C64 1.289 1_556 S
O90 Mg67 2.238 . S
O90 Mg68 2.106 1_556 S
O91 Mg68 2.079 1_656 S
O91 C73 1.245 1_556 S
O92 Mg71 2.038 . S
O92 C73 1.274 . S
H93 C101 0.950 . S
H94 C106 0.950 . S
H95 C103 0.950 . S
H96 C105 0.950 . S
H97 C107 0.950 . S
H98 C109 0.950 . S
H99 C111 0.950 . S
H100 C112 0.950 . S
C101 H93 0.950 . S
C101 C102 1.386 . S
C101 C103 1.391 . S
C102 C101 1.386 . S
C102 C106 1.393 1_455 S
C103 H95 0.950 . S
C103 C101 1.391 . S
C103 C104 1.400 1_455 S
C104 C103 1.400 1_655 S
C104 C105 1.398 . S
C104 C110 1.491 . S
C105 H96 0.950 . S
C105 C104 1.398 . S
C105 C106 1.391 . S
C106 H94 0.950 . S
C106 C102 1.393 1_655 S
C106 C105 1.391 . S
C107 H97 0.950 . S
C107 C108 1.386 . S
C107 C109 1.391 . S
C108 C107 1.386 . S
C108 C112 1.393 1_655 S
C109 H98 0.950 . S
C109 C107 1.391 . S
C109 C110 1.400 . S
C110 C104 1.491 . S
C110 C109 1.400 . S
C110 C111 1.398 1_655 S
C111 H99 0.950 . S
C111 C110 1.398 1_455 S
C111 C112 1.391 . S
C112 H100 0.950 . S
C112 C108 1.393 1_455 S
C112 C111 1.391 . S
H113 C121 0.950 . S
H114 C126 0.950 . S
H115 C123 0.950 . S
H116 C125 0.950 . S
H117 C127 0.950 . S
H118 C129 0.950 . S
H119 C131 0.950 . S
H120 C132 0.950 . S
C121 H113 0.950 . S
C121 C122 1.383 1_565 S
C121 C123 1.391 . S
C122 C121 1.383 1_545 S
C122 C126 1.395 . S
C123 H115 0.950 . S
C123 C121 1.391 . S
C123 C124 1.400 . S
C124 C123 1.400 . S
C124 C125 1.398 1_565 S
C124 C130 1.491 . S
C125 H116 0.950 . S
C125 C124 1.398 1_545 S
C125 C126 1.391 . S
C126 H114 0.950 . S
C126 C122 1.395 . S
C126 C125 1.391 . S
C127 H117 0.950 . S
C127 C128 1.386 1_545 S
C127 C129 1.391 . S
C128 C127 1.386 1_565 S
C128 C132 1.393 . S
C129 H118 0.950 . S
C129 C127 1.391 . S
C129 C130 1.400 1_545 S
C130 C124 1.491 . S
C130 C129 1.400 1_565 S
C130 C131 1.398 . S
C131 H119 0.950 . S
C131 C130 1.398 . S
C131 C132 1.391 . S
C132 H120 0.950 . S
C132 C128 1.393 . S
C132 C131 1.391 . S
H133 C141 0.950 . S
H134 C146 0.950 . S
H135 C143 0.950 . S
H136 C145 0.950 . S
H137 C147 0.950 . S
H138 C149 0.950 . S
H139 C151 0.950 . S
H140 C152 0.950 . S
C141 H133 0.950 . S
C141 C142 1.386 . S
C141 C143 1.391 . S
C142 C141 1.386 . S
C142 C146 1.393 . S
C143 H135 0.950 . S
C143 C141 1.391 . S
C143 C144 1.400 . S
C144 C143 1.400 . S
C144 C145 1.398 . S
C144 C150 1.491 . S
C145 H136 0.950 . S
C145 C144 1.398 . S
C145 C146 1.391 . S
C146 H134 0.950 . S
C146 C142 1.393 . S
C146 C145 1.391 . S
C147 H137 0.950 . S
C147 C148 1.386 . S
C147 C149 1.391 . S
C148 C147 1.386 . S
C148 C152 1.393 . S
C149 H138 0.950 . S
C149 C147 1.391 . S
C149 C150 1.400 . S
C150 C144 1.491 . S
C150 C149 1.400 . S
C150 C151 1.398 . S
C151 H139 0.950 . S
C151 C150 1.398 . S
C151 C152 1.391 . S
C152 H140 0.950 . S
C152 C148 1.393 . S
C152 C151 1.391 . S
H153 C161 0.950 . S
H154 C166 0.950 . S
H155 C163 0.950 . S
H156 C165 0.950 . S
H157 C167 0.950 . S
H158 C169 0.950 . S
H159 C171 0.950 . S
H160 C172 0.950 . S
C161 H153 0.950 . S
C161 C162 1.386 1_565 S
C161 C163 1.391 . S
C162 C161 1.386 1_545 S
C162 C166 1.393 . S
C163 H155 0.950 . S
C163 C161 1.391 . S
C163 C164 1.400 1_565 S
C164 C163 1.400 1_545 S
C164 C165 1.398 . S
C164 C170 1.491 . S
C165 H156 0.950 . S
C165 C164 1.398 . S
C165 C166 1.391 . S
C166 H154 0.950 . S
C166 C162 1.393 . S
C166 C165 1.391 . S
C167 H157 0.950 . S
C167 C168 1.386 . S
C167 C169 1.391 . S
C168 C167 1.386 . S
C168 C172 1.393 1_545 S
C169 H158 0.950 . S
C169 C167 1.391 . S
C169 C170 1.400 . S
C170 C164 1.491 . S
C170 C169 1.400 . S
C170 C171 1.398 1_545 S
C171 H159 0.950 . S
C171 C170 1.398 1_565 S
C171 C172 1.391 . S
C172 H160 0.950 . S
C172 C168 1.393 1_565 S
C172 C171 1.391 . S
H173 C181 0.950 . S
H174 C186 0.950 . S
H175 C183 0.950 . S
H176 C185 0.950 . S
H177 C187 0.950 . S
H178 C189 0.950 . S
H179 C191 0.950 . S
H180 C192 0.950 . S
C181 H173 0.950 . S
C181 C182 1.386 1_655 S
C181 C183 1.391 . S
C182 C181 1.386 1_455 S
C182 C186 1.393 . S
C183 H175 0.950 . S
C183 C181 1.391 . S
C183 C184 1.400 1_655 S
C184 C183 1.400 1_455 S
C184 C185 1.398 . S
C184 C190 1.491 . S
C185 H176 0.950 . S
C185 C184 1.398 . S
C185 C186 1.391 . S
C186 H174 0.950 . S
C186 C182 1.393 . S
C186 C185 1.391 . S
C187 H177 0.950 . S
C187 C188 1.386 1_455 S
C187 C189 1.391 . S
C188 C187 1.386 1_655 S
C188 C192 1.393 . S
C189 H178 0.950 . S
C189 C187 1.391 . S
C189 C190 1.400 . S
C190 C184 1.491 . S
C190 C189 1.400 . S
C190 C191 1.398 1_455 S
C191 H179 0.950 . S
C191 C190 1.398 1_655 S
C191 C192 1.391 . S
C192 H180 0.950 . S
C192 C188 1.393 . S
C192 C191 1.391 . S
H193 C201 0.950 . S
H194 C206 0.950 . S
H195 C203 0.950 . S
H196 C205 0.950 . S
H197 C207 0.950 . S
H198 C209 0.950 . S
H199 C211 0.950 . S
H200 C212 0.950 . S
C201 H193 0.950 . S
C201 C202 1.386 1_565 S
C201 C203 1.391 . S
C202 C201 1.386 1_545 S
C202 C206 1.393 . S
C203 H195 0.950 . S
C203 C201 1.391 . S
C203 C204 1.400 1_565 S
C204 C203 1.400 1_545 S
C204 C205 1.398 . S
C204 C210 1.491 . S
C205 H196 0.950 . S
C205 C204 1.398 . S
C205 C206 1.391 . S
C206 H194 0.950 . S
C206 C202 1.393 . S
C206 C205 1.391 . S
C207 H197 0.950 . S
C207 C208 1.386 . S
C207 C209 1.391 . S
C208 C207 1.386 . S
C208 C212 1.393 1_545 S
C209 H198 0.950 . S
C209 C207 1.391 . S
C209 C210 1.400 . S
C210 C204 1.491 . S
C210 C209 1.400 . S
C210 C211 1.398 1_545 S
C211 H199 0.950 . S
C211 C210 1.398 1_565 S
C211 C212 1.391 . S
C212 H200 0.950 . S
C212 C208 1.393 1_565 S
C212 C211 1.391 . S
H213 C221 0.950 . S
H214 C226 0.950 . S
H215 C223 0.950 . S
H216 C225 0.950 . S
H217 C227 0.950 . S
H218 C229 0.950 . S
H219 C231 0.950 . S
H220 C232 0.950 . S
C221 H213 0.950 . S
C221 C222 1.386 . S
C221 C223 1.391 . S
C222 C221 1.386 . S
C222 C226 1.393 1_455 S
C223 H215 0.950 . S
C223 C221 1.391 . S
C223 C224 1.400 . S
C224 C223 1.400 . S
C224 C225 1.398 1_455 S
C224 C230 1.491 . S
C225 H216 0.950 . S
C225 C224 1.398 1_655 S
C225 C226 1.391 . S
C226 H214 0.950 . S
C226 C222 1.393 1_655 S
C226 C225 1.391 . S
C227 H217 0.950 . S
C227 C228 1.386 1_655 S
C227 C229 1.391 . S
C228 C227 1.386 1_455 S
C228 C232 1.393 . S
C229 H218 0.950 . S
C229 C227 1.391 . S
C229 C230 1.400 1_655 S
C230 C224 1.491 . S
C230 C229 1.400 1_455 S
C230 C231 1.398 . S
C231 H219 0.950 . S
C231 C230 1.398 . S
C231 C232 1.391 . S
C232 H220 0.950 . S
C232 C228 1.393 . S
C232 C231 1.391 . S
H233 C241 0.950 . S
H234 C246 0.950 . S
H235 C243 0.950 . S
H236 C245 0.950 . S
H237 C247 0.950 . S
H238 C249 0.950 . S
H239 C251 0.950 . S
H240 C252 0.950 . S
C241 H233 0.950 . S
C241 C242 1.386 1_545 S
C241 C243 1.391 . S
C242 C241 1.386 1_565 S
C242 C246 1.393 . S
C243 H235 0.950 . S
C243 C241 1.391 . S
C243 C244 1.400 1_545 S
C244 C243 1.400 1_565 S
C244 C245 1.398 . S
C244 C250 1.491 . S
C245 H236 0.950 . S
C245 C244 1.398 . S
C245 C246 1.391 . S
C246 H234 0.950 . S
C246 C242 1.393 . S
C246 C245 1.391 . S
C247 H237 0.950 . S
C247 C248 1.386 . S
C247 C249 1.391 . S
C248 C247 1.386 . S
C248 C252 1.393 1_565 S
C249 H238 0.950 . S
C249 C247 1.391 . S
C249 C250 1.400 . S
C250 C244 1.491 . S
C250 C249 1.400 . S
C250 C251 1.398 1_565 S
C251 H239 0.950 . S
C251 C250 1.398 1_545 S
C251 C252 1.391 . S
C252 H240 0.950 . S
C252 C248 1.393 1_545 S
C252 C251 1.391 . S
H253 C261 0.950 . S
H254 C266 0.950 . S
H255 C263 0.950 . S
H256 C265 0.950 . S
H257 C267 0.950 . S
H258 C269 0.950 . S
H259 C271 0.950 . S
H260 C272 0.950 . S
C261 H253 0.950 . S
C261 C262 1.386 . S
C261 C263 1.391 . S
C262 C261 1.386 . S
C262 C266 1.393 1_556 S
C263 H255 0.950 . S
C263 C261 1.391 . S
C263 C264 1.400 . S
C264 C263 1.400 . S
C264 C265 1.398 1_556 S
C264 C270 1.491 . S
C265 H256 0.950 . S
C265 C264 1.398 1_554 S
C265 C266 1.391 . S
C266 H254 0.950 . S
C266 C262 1.393 1_554 S
C266 C265 1.391 . S
C267 H257 0.950 . S
C267 C268 1.386 1_554 S
C267 C269 1.391 . S
C268 C267 1.386 1_556 S
C268 C272 1.393 . S
C269 H258 0.950 . S
C269 C267 1.391 . S
C269 C270 1.400 1_554 S
C270 C264 1.491 . S
C270 C269 1.400 1_556 S
C270 C271 1.398 . S
C271 H259 0.950 . S
C271 C270 1.398 . S
C271 C272 1.391 . S
C272 H260 0.950 . S
C272 C268 1.393 . S
C272 C271 1.391 . S
H273 C281 0.950 . S
H274 C286 0.950 . S
H275 C283 0.950 . S
H276 C285 0.950 . S
H277 C287 0.950 . S
H278 C289 0.950 . S
H279 C291 0.950 . S
H280 C292 0.950 . S
C281 H273 0.950 . S
C281 C282 1.386 . S
C281 C283 1.391 . S
C282 C281 1.386 . S
C282 C286 1.393 1_556 S
C283 H275 0.950 . S
C283 C281 1.391 . S
C283 C284 1.403 . S
C284 C283 1.403 . S
C284 C285 1.395 1_556 S
C284 C290 1.491 . S
C285 H276 0.950 . S
C285 C284 1.395 1_554 S
C285 C286 1.391 . S
C286 H274 0.950 . S
C286 C282 1.393 1_554 S
C286 C285 1.391 . S
C287 H277 0.950 . S
C287 C288 1.386 . S
C287 C289 1.391 . S
C288 C287 1.386 . S
C288 C292 1.393 1_554 S
C289 H278 0.950 . S
C289 C287 1.391 . S
C289 C290 1.398 1_554 S
C290 C284 1.491 . S
C290 C289 1.398 1_556 S
C290 C291 1.400 . S
C291 H279 0.950 . S
C291 C290 1.400 . S
C291 C292 1.391 . S
C292 H280 0.950 . S
C292 C288 1.393 1_556 S
C292 C291 1.391 . S
H293 C301 0.950 . S
H294 C306 0.950 . S
H295 C303 0.950 . S
H296 C305 0.950 . S
H297 C307 0.950 . S
H298 C309 0.950 . S
H299 C311 0.950 . S
H300 C312 0.950 . S
C301 H293 0.950 . S
C301 C302 1.386 . S
C301 C303 1.391 . S
C302 C301 1.386 . S
C302 C306 1.393 1_556 S
C303 H295 0.950 . S
C303 C301 1.391 . S
C303 C304 1.400 . S
C304 C303 1.400 . S
C304 C305 1.398 1_556 S
C304 C310 1.491 1_556 S
C305 H296 0.950 . S
C305 C304 1.398 1_554 S
C305 C306 1.391 . S
C306 H294 0.950 . S
C306 C302 1.393 1_554 S
C306 C305 1.391 . S
C307 H297 0.950 . S
C307 C308 1.386 . S
C307 C309 1.391 . S
C308 C307 1.386 . S
C308 C312 1.393 1_554 S
C309 H298 0.950 . S
C309 C307 1.391 . S
C309 C310 1.400 . S
C310 C304 1.491 1_554 S
C310 C309 1.400 . S
C310 C311 1.398 1_554 S
C311 H299 0.950 . S
C311 C310 1.398 1_556 S
C311 C312 1.391 . S
C312 H300 0.950 . S
C312 C308 1.393 1_556 S
C312 C311 1.391 . S
H313 C321 0.950 . S
H314 C326 0.950 . S
H315 C323 0.950 . S
H316 C325 0.950 . S
H317 C327 0.950 . S
H318 C329 0.950 . S
H319 C331 0.950 . S
H320 C332 0.950 . S
C321 H313 0.950 . S
C321 C322 1.386 1_556 S
C321 C323 1.391 . S
C322 C321 1.386 1_554 S
C322 C326 1.393 . S
C323 H315 0.950 . S
C323 C321 1.391 . S
C323 C324 1.400 1_556 S
C324 C323 1.400 1_554 S
C324 C325 1.398 . S
C324 C330 1.491 . S
C325 H316 0.950 . S
C325 C324 1.398 . S
C325 C326 1.391 . S
C326 H314 0.950 . S
C326 C322 1.393 . S
C326 C325 1.391 . S
C327 H317 0.950 . S
C327 C328 1.386 . S
C327 C329 1.391 . S
C328 C327 1.386 . S
C328 C332 1.393 1_554 S
C329 H318 0.950 . S
C329 C327 1.391 . S
C329 C330 1.400 . S
C330 C324 1.491 . S
C330 C329 1.400 . S
C330 C331 1.398 1_554 S
C331 H319 0.950 . S
C331 C330 1.398 1_556 S
C331 C332 1.391 . S
C332 H320 0.950 . S
C332 C328 1.393 1_556 S
C332 C331 1.391 . S
C102 C89 1.059 . S
C108 C24 1.082 . S
C122 C11 1.230 . S
C128 C31 1.263 . S
C142 C1 0.922 . S
C148 C86 0.926 . S
C162 C32 1.212 . S
C168 C2 1.197 . S
C182 C0 1.078 . S
C188 C63 1.090 . S
C202 C55 1.254 . S
C208 C18 1.239 1_545 S
C222 C62 0.912 . S
C228 C27 0.923 . S
C242 C58 1.222 . S
C248 C10 1.199 . S
C262 C80 1.888 . S
C268 C42 1.853 . S
C282 C64 1.185 1_556 S
C288 C33 1.165 1_554 S
C302 C41 1.184 1_556 S
C308 C72 1.210 1_554 S
C322 C73 1.884 . S
C328 C49 1.863 . S
