# Generated by pormake.
# Topology hcp, (12)-cn, num edge types: 1
# Building blocks:
#     Node 0, Type 0, BuildingBlock: QEWDON_clean_sbu_0, # of connection points: 12
#     Node 1, Type 0, BuildingBlock: QEWDON_clean_sbu_0, # of connection points: 12
#     Edge 2, Type (0, 0), BuildingBlock: MIFKUJ_clean_linker_0, # of connection points: 2
#     Edge 3, Type (0, 0), BuildingBlock: MIFKUJ_clean_linker_0, # of connection points: 2
#     Edge 4, Type (0, 0), BuildingBlock: MIFKUJ_clean_linker_0, # of connection points: 2
#     Edge 5, Type (0, 0), BuildingBlock: MIFKUJ_clean_linker_0, # of connection points: 2
#     Edge 6, Type (0, 0), BuildingBlock: MIFKUJ_clean_linker_0, # of connection points: 2
#     Edge 7, Type (0, 0), BuildingBlock: MIFKUJ_clean_linker_0, # of connection points: 2
#     Edge 8, Type (0, 0), BuildingBlock: MIFKUJ_clean_linker_0, # of connection points: 2
#     Edge 9, Type (0, 0), BuildingBlock: MIFKUJ_clean_linker_0, # of connection points: 2
#     Edge 10, Type (0, 0), BuildingBlock: MIFKUJ_clean_linker_0, # of connection points: 2
#     Edge 11, Type (0, 0), BuildingBlock: MIFKUJ_clean_linker_0, # of connection points: 2
#     Edge 12, Type (0, 0), BuildingBlock: MIFKUJ_clean_linker_0, # of connection points: 2
#     Edge 13, Type (0, 0), BuildingBlock: MIFKUJ_clean_linker_0, # of connection points: 2
# Relax obj value: 0.189
# Max RMSD: 0.273
# Mean RMSD: 0.272
data_MOF--net-hcp--node1-QEWDON_clean_sbu_0--edge1-MIFKUJ_clean_linker_0
_symmetry_space_group_name_H-M    P1
_symmetry_Int_Tables_number       1
_symmetry_cell_setting            triclinic
loop_
_symmetry_equiv_pos_as_xyz
'x, y, z'
_cell_length_a     23.007446
_cell_length_b     22.80883
_cell_length_c     38.844499
_cell_angle_alpha  93.668855
_cell_angle_beta   89.122653
_cell_angle_gamma 120.15695
loop_
_atom_site_label
_atom_site_type_symbol
_atom_site_fract_x
_atom_site_fract_y
_atom_site_fract_z
_atom_type_partial_charge
Zn0 Zn 0.67301 0.20794 0.27073 0.0
Zn1 Zn 0.75044 0.3448 0.22964 0.0
O2 O 0.68937 0.30526 0.26969 0.0
H3 H 0.66025 0.32123 0.27895 0.0
C4 C 0.50033 0.07602 0.21995 0.0
O5 O 0.4823 0.10271 0.24598 0.0
Zn6 Zn 0.55286 0.45827 0.26427 0.0
Zn7 Zn 0.46374 0.30878 0.29667 0.0
O8 O 0.53916 0.3636 0.26364 0.0
H9 H 0.57487 0.35426 0.25809 0.0
Zn10 Zn 0.47994 0.17154 0.18274 0.0
O11 O 0.55647 0.26225 0.20027 0.0
Zn12 Zn 0.56853 0.33051 0.16724 0.0
H13 H 0.5821 0.27003 0.22122 0.0
Zn14 Zn 0.679 0.38795 0.35047 0.0
O15 O 0.65801 0.45955 0.3379 0.0
H16 H 0.63339 0.47604 0.35182 0.0
Zn17 Zn 0.74691 0.51647 0.31602 0.0
C18 C 0.55871 0.25149 0.35664 0.0
O19 O 0.52055 0.18563 0.35026 0.0
O20 O 0.74916 0.19813 0.24731 0.0
O21 O 0.79578 0.29075 0.21746 0.0
O22 O 0.41667 0.36146 0.3127 0.0
O23 O 0.47962 0.46295 0.29179 0.0
O24 O 0.44354 0.17627 0.13528 0.0
O25 O 0.50033 0.28735 0.12822 0.0
C26 C 0.81487 0.48257 0.26169 0.0
O27 O 0.77994 0.42671 0.36172 0.0
O28 O 0.82329 0.53408 0.34816 0.0
O29 O 0.39799 0.20403 0.28615 0.0
C30 C 0.79297 0.23647 0.22629 0.0
O31 O 0.61862 0.14314 0.3101 0.0
C32 C 0.54624 0.4474 0.19044 0.0
O33 O 0.50024 0.0944 0.18975 0.0
C34 C 0.42862 0.42142 0.30835 0.0
O35 O 0.61132 0.2845 0.3392 0.0
C36 C 0.70805 0.37177 0.16149 0.0
O37 O 0.82308 0.44146 0.24146 0.0
O38 O 0.75797 0.46318 0.27547 0.0
C39 C 0.45667 0.22687 0.11776 0.0
O40 O 0.54217 0.48173 0.21634 0.0
O41 O 0.56155 0.40254 0.19587 0.0
C42 C 0.69088 0.5839 0.28696 0.0
O43 O 0.65987 0.37069 0.14553 0.0
O44 O 0.69604 0.34619 0.19065 0.0
C45 C 0.82955 0.48738 0.3612 0.0
O46 O 0.74673 0.59975 0.30126 0.0
O47 O 0.64685 0.52103 0.28346 0.0
C48 C 0.37654 0.16401 0.31059 0.0
O49 O 0.39764 0.18872 0.34229 0.0
C50 C 0.6381 0.15831 0.34157 0.0
O51 O 0.69304 0.21632 0.34971 0.0
Zn52 Zn 0.48178 0.64719 0.79213 0.0
Zn53 Zn 0.53274 0.68474 0.71818 0.0
O54 O 0.45106 0.61529 0.74169 0.0
H55 H 0.40534 0.59249 0.73283 0.0
C56 C 0.34634 0.38936 0.65268 0.0
O57 O 0.32836 0.42231 0.67532 0.0
Zn58 Zn 0.26035 0.70608 0.68958 0.0
Zn59 Zn 0.15761 0.57545 0.72281 0.0
O60 O 0.21626 0.60475 0.67985 0.0
H61 H 0.18606 0.5819 0.69822 0.0
Zn62 Zn 0.36116 0.49591 0.60909 0.0
O63 O 0.31149 0.53408 0.63784 0.0
Zn64 Zn 0.3747 0.62481 0.61993 0.0
H65 H 0.29876 0.52531 0.6616 0.0
Zn66 Zn 0.34165 0.67653 0.86696 0.0
O67 O 0.33792 0.66846 0.81371 0.0
H68 H 0.3084 0.629 0.7989 0.0
Zn69 Zn 0.41229 0.75869 0.79841 0.0
C70 C 0.23961 0.65243 0.91827 0.0
O71 O 0.2669 0.71799 0.91488 0.0
O72 O 0.58442 0.70774 0.80001 0.0
O73 O 0.61668 0.71264 0.74565 0.0
O74 O 0.15386 0.65504 0.74896 0.0
O75 O 0.19214 0.72945 0.70829 0.0
O76 O 0.35672 0.50921 0.55814 0.0
O77 O 0.37626 0.61459 0.56713 0.0
C78 C 0.50591 0.79004 0.73981 0.0
O79 O 0.41125 0.77257 0.88647 0.0
O80 O 0.46376 0.82269 0.83927 0.0
O81 O 0.06956 0.48028 0.72614 0.0
C82 C 0.63054 0.72469 0.77786 0.0
O83 O 0.43708 0.58279 0.83159 0.0
C84 C 0.33335 0.73622 0.6267 0.0
O85 O 0.36258 0.41062 0.62267 0.0
C86 C 0.16307 0.70965 0.73691 0.0
O87 O 0.26044 0.61927 0.89935 0.0
C88 C 0.50457 0.63946 0.64547 0.0
O89 O 0.5326 0.77148 0.71595 0.0
O90 O 0.47108 0.74816 0.76226 0.0
C91 C 0.36473 0.56363 0.54656 0.0
O92 O 0.30237 0.75701 0.64667 0.0
O93 O 0.33572 0.68422 0.63477 0.0
C94 C 0.34365 0.7929 0.74691 0.0
O95 O 0.46024 0.65709 0.64833 0.0
O96 O 0.54232 0.649 0.67122 0.0
C97 C 0.45661 0.82395 0.87184 0.0
O98 O 0.37497 0.80802 0.7756 0.0
O99 O 0.32735 0.737 0.72979 0.0
C100 C 0.01688 0.4605 0.70766 0.0
O101 O 0.01816 0.4986 0.68336 0.0
C102 C 0.43665 0.61236 0.86034 0.0
O103 O 0.4589 0.67796 0.86179 0.0
H104 H 0.46094 0.84699 0.94174 0.0
H105 H 0.48372 0.95287 0.97243 0.0
H106 H 0.55272 0.05719 0.87855 0.0
H107 H 0.52886 0.95081 0.84735 0.0
H108 H 0.58079 0.08346 0.98599 0.0
H109 H 0.48253 0.15928 0.87634 0.0
H110 H 0.42472 0.11544 0.81962 0.0
H111 H 0.31438 0.9143 0.85545 0.0
H112 H 0.37161 0.95707 0.91244 0.0
H113 H 0.50634 0.31587 0.06681 0.0
H114 H 0.51639 0.28201 0.00751 0.0
H115 H 0.37166 0.0741 0.02546 0.0
H116 H 0.36148 0.10732 0.08501 0.0
H117 H 0.41069 0.1383 0.94555 0.0
H118 H 0.49948 0.06262 0.05367 0.0
H119 H 0.54692 0.10273 0.11282 0.0
H120 H 0.67259 0.30442 0.07978 0.0
H121 H 0.62566 0.26527 0.0205 0.0
C122 C 0.48302 0.89278 0.92778 0.0
C123 C 0.49141 0.89008 0.89195 0.0
C124 C 0.49625 0.95347 0.9454 0.0
C125 C 0.51818 0.01239 0.92752 0.0
C126 C 0.53464 0.01189 0.89264 0.0
C127 C 0.52132 0.95101 0.87492 0.0
C128 C 0.51289 0.06938 0.94449 0.0
C129 C 0.54528 0.09713 0.97658 0.0
C130 C 0.46678 0.08775 0.93224 0.0
C131 C 0.43167 0.06123 0.8984 0.0
C132 C 0.44585 0.10574 0.87208 0.0
C133 C 0.41323 0.08113 0.83994 0.0
C134 C 0.36592 0.01222 0.83401 0.0
C135 C 0.35112 0.96767 0.86014 0.0
C136 C 0.38367 0.99203 0.89234 0.0
C137 C 0.47332 0.26364 0.05772 0.0
C138 C 0.43547 0.21374 0.08102 0.0
C139 C 0.47908 0.24444 0.02359 0.0
C140 C 0.44622 0.17548 0.01264 0.0
C141 C 0.39783 0.12765 0.03374 0.0
C142 C 0.39242 0.1467 0.06792 0.0
C143 C 0.4779 0.1509 0.98688 0.0
C144 C 0.44961 0.12832 0.95373 0.0
C145 C 0.52858 0.13805 0.99779 0.0
C146 C 0.55938 0.16105 0.03282 0.0
C147 C 0.53767 0.11535 0.05905 0.0
C148 C 0.56421 0.13795 0.09258 0.0
C149 C 0.61273 0.20608 0.10005 0.0
C150 C 0.635 0.25168 0.07397 0.0
C151 C 0.6085 0.22932 0.04042 0.0
H152 H 0.63304 0.22351 0.12604 0.0
H153 H 0.34069 0.99346 0.8092 0.0
H154 H 0.50901 0.52333 0.64386 0.0
H155 H 0.51729 0.45889 0.59306 0.0
H156 H 0.51982 0.60587 0.52753 0.0
H157 H 0.51091 0.67036 0.57859 0.0
H158 H 0.42935 0.47097 0.5054 0.0
H159 H 0.66137 0.60688 0.54101 0.0
H160 H 0.75702 0.65446 0.58231 0.0
H161 H 0.71728 0.45347 0.59922 0.0
H162 H 0.62079 0.4046 0.55834 0.0
H163 H 0.53591 0.3564 0.3532 0.0
H164 H 0.51861 0.42039 0.40165 0.0
H165 H 0.52822 0.28689 0.47238 0.0
H166 H 0.54478 0.22271 0.42384 0.0
H167 H 0.61344 0.41863 0.49115 0.0
H168 H 0.38464 0.28074 0.45775 0.0
H169 H 0.27832 0.22586 0.42419 0.0
H170 H 0.30178 0.42115 0.4085 0.0
H171 H 0.40933 0.47737 0.44108 0.0
C172 C 0.51127 0.5417 0.61854 0.0
C173 C 0.50777 0.60061 0.61474 0.0
C174 C 0.51634 0.50519 0.58966 0.0
C175 C 0.51948 0.52795 0.55662 0.0
C176 C 0.5173 0.58761 0.55285 0.0
C177 C 0.51168 0.62393 0.58183 0.0
C178 C 0.52315 0.48814 0.52604 0.0
C179 C 0.47023 0.46056 0.5017 0.0
C180 C 0.57531 0.47275 0.52231 0.0
C181 C 0.63351 0.50206 0.54681 0.0
C182 C 0.6727 0.57279 0.55373 0.0
C183 C 0.72714 0.6 0.57702 0.0
C184 C 0.74314 0.55701 0.59342 0.0
C185 C 0.70481 0.48671 0.5865 0.0
C186 C 0.6503 0.45923 0.56324 0.0
C187 C 0.53415 0.34103 0.37917 0.0
C188 C 0.54298 0.28604 0.3852 0.0
C189 C 0.52349 0.37687 0.40669 0.0
C190 C 0.52207 0.35827 0.44059 0.0
C191 C 0.52906 0.30192 0.4464 0.0
C192 C 0.53855 0.26544 0.41881 0.0
C193 C 0.51935 0.40099 0.47019 0.0
C194 C 0.5727 0.42936 0.49443 0.0
C195 C 0.46703 0.41638 0.47397 0.0
C196 C 0.4058 0.38329 0.45145 0.0
C197 C 0.36805 0.31208 0.44645 0.0
C198 C 0.30723 0.28071 0.42781 0.0
C199 C 0.28311 0.31999 0.4144 0.0
C200 C 0.32035 0.39079 0.41909 0.0
C201 C 0.38147 0.42243 0.43744 0.0
H202 H 0.23574 0.29563 0.4002 0.0
H203 H 0.78531 0.57819 0.61145 0.0
H204 H 0.79593 0.32388 0.15256 0.0
H205 H 0.89516 0.36997 0.11563 0.0
H206 H 0.86885 0.54012 0.09769 0.0
H207 H 0.76963 0.49337 0.13366 0.0
H208 H 0.87556 0.48551 0.03954 0.0
H209 H 6e-05 0.54854 0.14537 0.0
H210 H 0.04197 0.53813 0.20128 0.0
H211 H 0.11622 0.41577 0.15163 0.0
H212 H 0.07207 0.42275 0.09557 0.0
H213 H 0.17172 0.70516 0.95405 0.0
H214 H 0.08822 0.65367 0.99856 0.0
H215 H 0.10619 0.47419 0.98805 0.0
H216 H 0.19025 0.52556 0.94302 0.0
H217 H 0.10506 0.52454 0.05918 0.0
H218 H 0.97368 0.46272 0.95305 0.0
H219 H 0.94154 0.4879 0.89797 0.0
H220 H 0.8917 0.62657 0.95197 0.0
H221 H 0.92385 0.60246 0.00731 0.0
C222 C 0.81303 0.37231 0.1417 0.0
C223 C 0.77563 0.40547 0.14622 0.0
C224 C 0.86949 0.39848 0.12037 0.0
C225 C 0.88964 0.45856 0.10355 0.0
C226 C 0.85429 0.49346 0.10997 0.0
C227 C 0.79776 0.46697 0.13075 0.0
C228 C 0.94255 0.48212 0.07662 0.0
C229 C 0.92585 0.4945 0.04422 0.0
C230 C 0.00806 0.49245 0.08206 0.0
C231 C 0.03154 0.48522 0.11617 0.0
C232 C 0.02394 0.51812 0.14638 0.0
C233 C 0.04833 0.51301 0.17814 0.0
C234 C 0.08165 0.47625 0.18001 0.0
C235 C 0.09034 0.4442 0.15014 0.0
C236 C 0.06518 0.4483 0.1184 0.0
C237 C 0.15802 0.65467 0.96106 0.0
C238 C 0.18748 0.61936 0.94473 0.0
C239 C 0.1102 0.6253 0.98659 0.0
C240 C 0.0907 0.55997 0.9966 0.0
C241 C 0.12054 0.5247 0.98076 0.0
C242 C 0.16816 0.55391 0.95486 0.0
C243 C 0.03772 0.52851 0.02291 0.0
C244 C 0.05433 0.51457 0.05486 0.0
C245 C 0.97238 0.51778 0.01753 0.0
C246 C 0.95153 0.53106 0.98429 0.0
C247 C 0.95606 0.49873 0.95315 0.0
C248 C 0.93773 0.51274 0.92188 0.0
C249 C 0.91458 0.5588 0.92144 0.0
C250 C 0.90944 0.59075 0.95231 0.0
C251 C 0.92756 0.57681 0.98364 0.0
H252 H 0.90064 0.56974 0.8972 0.0
H253 H 0.10068 0.47251 0.2046 0.0
H254 H 0.31261 0.68782 0.5591 0.0
H255 H 0.35636 0.75485 0.50798 0.0
H256 H 0.46892 0.93674 0.57394 0.0
H257 H 0.42262 0.87086 0.62481 0.0
H258 H 0.40606 0.95721 0.52286 0.0
H259 H 0.5409 0.8491 0.53038 0.0
H260 H 0.5665 0.7562 0.52952 0.0
H261 H 0.47516 0.68402 0.42862 0.0
H262 H 0.44761 0.77543 0.42916 0.0
H263 H 0.64796 0.18745 0.41129 0.0
H264 H 0.58777 0.11022 0.45652 0.0
H265 H 0.48199 0.94581 0.37931 0.0
H266 H 0.54171 0.02328 0.33387 0.0
H267 H 0.53214 0.90848 0.43178 0.0
H268 H 0.39929 0.0087 0.41998 0.0
H269 H 0.3691 0.09746 0.41573 0.0
H270 H 0.44457 0.17581 0.51882 0.0
H271 H 0.47668 0.08837 0.52352 0.0
C272 C 0.34818 0.74178 0.56257 0.0
C273 C 0.36611 0.77385 0.59587 0.0
C274 C 0.37309 0.77994 0.5334 0.0
C275 C 0.4178 0.8504 0.53695 0.0
C276 C 0.43533 0.88235 0.57035 0.0
C277 C 0.40928 0.8446 0.59944 0.0
C278 C 0.44443 0.89149 0.50606 0.0
C279 C 0.43441 0.94698 0.50322 0.0
C280 C 0.47845 0.87624 0.47929 0.0
C281 C 0.49153 0.81884 0.48 0.0
C282 C 0.5253 0.81282 0.50825 0.0
C283 C 0.54044 0.76055 0.50774 0.0
C284 C 0.52268 0.71439 0.47899 0.0
C285 C 0.48923 0.72002 0.4508 0.0
C286 C 0.47362 0.77189 0.45126 0.0
C287 C 0.61167 0.13495 0.40387 0.0
C288 C 0.5996 0.11157 0.36889 0.0
C289 C 0.57703 0.09086 0.42979 0.0
C290 C 0.52999 0.02217 0.42139 0.0
C291 C 0.51783 0.99859 0.38647 0.0
C292 C 0.55173 0.04302 0.36048 0.0
C293 C 0.49534 0.97498 0.44927 0.0
C294 C 0.50354 0.91838 0.45142 0.0
C295 C 0.45828 0.98809 0.47494 0.0
C296 C 0.44101 0.04222 0.47199 0.0
C297 C 0.41033 0.04535 0.44162 0.0
C298 C 0.39261 0.09527 0.43916 0.0
C299 C 0.40466 0.14197 0.46704 0.0
C300 C 0.43507 0.13936 0.49731 0.0
C301 C 0.45311 0.08966 0.49987 0.0
H302 H 0.39047 0.18022 0.46518 0.0
H303 H 0.53476 0.67423 0.47853 0.0
H304 H 0.46471 0.49629 0.17469 0.0
H305 H 0.43091 0.5086 0.11767 0.0
H306 H 0.55647 0.43647 0.0707 0.0
H307 H 0.58963 0.42323 0.12789 0.0
H308 H 0.57423 0.53668 0.03969 0.0
H309 H 0.37624 0.33795 0.07082 0.0
H310 H 0.27989 0.26375 0.10596 0.0
H311 H 0.20302 0.40016 0.1016 0.0
H312 H 0.29946 0.47576 0.06679 0.0
H313 H 0.4444 0.49947 0.87128 0.0
H314 H 0.44695 0.45682 0.92714 0.0
H315 H 0.40315 0.60327 0.97821 0.0
H316 H 0.40208 0.64746 0.92248 0.0
H317 H 0.33789 0.45649 0.00498 0.0
H318 H 0.55086 0.65857 0.97619 0.0
H319 H 0.64293 0.71957 0.93589 0.0
H320 H 0.68648 0.5569 0.93246 0.0
H321 H 0.59409 0.4947 0.97214 0.0
C322 C 0.48447 0.48219 0.15217 0.0
C323 C 0.52831 0.45677 0.1557 0.0
C324 C 0.4646 0.48868 0.11955 0.0
C325 C 0.48939 0.47142 0.08973 0.0
C326 C 0.53527 0.44849 0.09327 0.0
C327 C 0.55413 0.44074 0.12595 0.0
C328 C 0.47061 0.48118 0.05499 0.0
C329 C 0.52234 0.518 0.03211 0.0
C330 C 0.40295 0.45756 0.0449 0.0
C331 C 0.34538 0.4128 0.06634 0.0
C332 C 0.33909 0.35244 0.07755 0.0
C333 C 0.2843 0.30997 0.09731 0.0
C334 C 0.23518 0.32705 0.10585 0.0
C335 C 0.24093 0.38683 0.0948 0.0
C336 C 0.29565 0.4295 0.07505 0.0
C337 C 0.43346 0.52137 0.89427 0.0
C338 C 0.42377 0.57728 0.89262 0.0
C339 C 0.43491 0.49692 0.92613 0.0
C340 C 0.42553 0.52721 0.95665 0.0
C341 C 0.41026 0.57921 0.95485 0.0
C342 C 0.41004 0.60457 0.92306 0.0
C343 C 0.44146 0.51166 0.99039 0.0
C344 C 0.38943 0.47432 0.01291 0.0
C345 C 0.50855 0.53321 -3e-05 0.0
C346 C 0.56521 0.57172 0.97681 0.0
C347 C 0.57982 0.63569 0.96659 0.0
C348 C 0.63213 0.67054 0.94387 0.0
C349 C 0.67054 0.64217 0.93148 0.0
C350 C 0.65684 0.579 0.94193 0.0
C351 C 0.60451 0.54391 0.96455 0.0
H352 H 0.71093 0.66923 0.91386 0.0
H353 H 0.1929 0.2942 0.12122 0.0
H354 H 0.85996 0.39866 0.38809 0.0
H355 H 0.96923 0.4186 0.40603 0.0
H356 H 0.05975 0.62907 0.3832 0.0
H357 H 0.94983 0.60852 0.36336 0.0
H358 H 0.1438 0.57835 0.36589 0.0
H359 H 0.02363 0.58912 0.46435 0.0
H360 H 0.92721 0.55336 0.50303 0.0
H361 H 0.92846 0.36952 0.51922 0.0
H362 H 0.02433 0.40374 0.48022 0.0
H363 H 0.38779 0.67071 0.50962 0.0
H364 H 0.31613 0.66367 0.46152 0.0
H365 H 0.22604 0.44584 0.45385 0.0
H366 H 0.29747 0.45272 0.50133 0.0
H367 H 0.1482 0.50937 0.48396 0.0
H368 H 0.28361 0.51411 0.38712 0.0
H369 H 0.38916 0.56668 0.35506 0.0
H370 H 0.36804 0.7402 0.34082 0.0
H371 H 0.26378 0.69008 0.3742 0.0
C372 C 0.90297 0.44915 0.38643 0.0
C373 C 0.89604 0.50191 0.37406 0.0
C374 C 0.96557 0.46047 0.39678 0.0
C375 C 0.02256 0.52543 0.39625 0.0
C376 C 0.0164 0.57844 0.38368 0.0
C377 C 0.95349 0.56679 0.37272 0.0
C378 C 0.08664 0.53789 0.41163 0.0
C379 C 0.14517 0.56399 0.39182 0.0
C380 C 0.08844 0.51956 0.44553 0.0
C381 C 0.03083 0.49876 0.46913 0.0
C382 C 0.00303 0.54083 0.47596 0.0
C383 C 0.94852 0.52087 0.49797 0.0
C384 C 0.92163 0.45914 0.51351 0.0
C385 C 0.9493 0.4173 0.50713 0.0
C386 C 0.00378 0.43698 0.48511 0.0
C387 C 0.35438 0.62179 0.49675 0.0
C388 C 0.34576 0.56239 0.51024 0.0
C389 C 0.31404 0.6178 0.46914 0.0
C390 C 0.26495 0.55414 0.45482 0.0
C391 C 0.26359 0.49545 0.46476 0.0
C392 C 0.30442 0.49958 0.49206 0.0
C393 C 0.20471 0.54739 0.43792 0.0
C394 C 0.14687 0.52321 0.45787 0.0
C395 C 0.20477 0.56954 0.40477 0.0
C396 C 0.26612 0.59857 0.38356 0.0
C397 C 0.30175 0.56379 0.3775 0.0
C398 C 0.36134 0.59312 0.35902 0.0
C399 C 0.38515 0.65658 0.34575 0.0
C400 C 0.34947 0.69097 0.35105 0.0
C401 C 0.2902 0.66219 0.36986 0.0
H402 H 0.43125 0.67912 0.33138 0.0
H403 H 0.87943 0.44379 0.53055 0.0
H404 H 0.48485 0.0064 0.27728 0.0
H405 H 0.52759 0.92977 0.28721 0.0
H406 H 0.61718 0.96563 0.18668 0.0
H407 H 0.57286 0.04028 0.17629 0.0
H408 H 0.55998 0.84035 0.19383 0.0
H409 H 0.71254 0.03417 0.26463 0.0
H410 H 0.75616 0.12763 0.31007 0.0
H411 H 0.65936 0.9841 0.38735 0.0
H412 H 0.61433 0.88976 0.34243 0.0
H413 H 0.78176 0.71813 0.28125 0.0
H414 H 0.75924 0.8082 0.2673 0.0
H415 H 0.54853 0.66015 0.25311 0.0
H416 H 0.57056 0.57103 0.26811 0.0
H417 H 0.67995 0.8495 0.30079 0.0
H418 H 0.48844 0.71001 0.18477 0.0
H419 H 0.4729 0.63417 0.13326 0.0
H420 H 0.68103 0.69073 0.13876 0.0
H421 H 0.69835 0.7683 0.18966 0.0
C422 C 0.51399 0.99813 0.25742 0.0
C423 C 0.52538 0.02917 0.226 0.0
C424 C 0.53885 0.95475 0.26321 0.0
C425 C 0.57646 0.94252 0.23789 0.0
C426 C 0.58816 0.97399 0.2066 0.0
C427 C 0.56267 0.0166 0.20065 0.0
C428 C 0.60063 0.89423 0.24312 0.0
C429 C 0.58615 0.84247 0.21728 0.0
C430 C 0.63655 0.89791 0.27326 0.0
C431 C 0.65979 0.95484 0.3001 0.0
C432 C 0.69988 0.02253 0.29126 0.0
C433 C 0.72527 0.07563 0.31694 0.0
C434 C 0.7112 0.06169 0.35155 0.0
C435 C 0.67081 0.99473 0.36055 0.0
C436 C 0.64524 0.94144 0.33499 0.0
C437 C 0.73064 0.70489 0.27527 0.0
C438 C 0.67784 0.63724 0.27589 0.0
C439 C 0.71791 0.75632 0.26721 0.0
C440 C 0.65227 0.74078 0.25903 0.0
C441 C 0.59971 0.67315 0.25893 0.0
C442 C 0.61239 0.62201 0.26739 0.0
C443 C 0.63782 0.79527 0.2519 0.0
C444 C 0.6537 0.8477 0.27743 0.0
C445 C 0.60544 0.79377 0.22095 0.0
C446 C 0.59447 0.7445 0.19135 0.0
C447 C 0.53089 0.7062 0.17504 0.0
C448 C 0.52183 0.66304 0.14586 0.0
C449 C 0.57599 0.65768 0.13275 0.0
C450 C 0.63913 0.69489 0.14898 0.0
C451 C 0.64856 0.73839 0.17803 0.0
H452 H 0.56924 0.62505 0.10989 0.0
H453 H 0.7311 0.10287 0.37139 0.0
H454 H 0.12021 0.79008 0.7117 0.0
H455 H 0.0634 0.84141 0.74346 0.0
H456 H 0.10025 0.77642 0.83878 0.0
H457 H 0.15354 0.72116 0.80647 0.0
H458 H 0.97758 0.72881 0.83223 0.0
H459 H 0.15358 0.94963 0.82675 0.0
H460 H 0.25101 0.04612 0.80192 0.0
H461 H 0.12237 0.05511 0.7261 0.0
H462 H 0.02413 0.95738 0.74981 0.0
H463 H 0.68108 0.74939 0.84422 0.0
H464 H 0.79857 0.79404 0.86189 0.0
H465 H 0.85688 0.81957 0.75535 0.0
H466 H 0.74081 0.77511 0.73754 0.0
H467 H 0.95426 0.92298 0.80021 0.0
H468 H 0.80484 0.67288 0.7902 0.0
H469 H 0.71229 0.56351 0.80813 0.0
H470 H 0.8005 0.60688 0.90982 0.0
H471 H 0.89245 0.71743 0.89279 0.0
C472 C 0.11724 0.78795 0.73949 0.0
C473 C 0.13906 0.75006 0.75659 0.0
C474 C 0.08585 0.81843 0.75784 0.0
C475 C 0.0777 0.8132 0.79372 0.0
C476 C 0.10561 0.78086 0.81116 0.0
C477 C 0.1353 0.74873 0.79267 0.0
C478 C 0.0275 0.82711 0.81081 0.0
C479 C 0.97397 0.7729 0.82664 0.0
C480 C 0.02273 0.88472 0.80389 0.0
C481 C 0.08105 0.94604 0.79033 0.0
C482 C 0.14585 0.97209 0.80479 0.0
C483 C 0.20137 0.02702 0.79083 0.0
C484 C 0.19286 0.05691 0.7625 0.0
C485 C 0.12879 0.03203 0.74814 0.0
C486 C 0.07306 0.9769 0.76192 0.0
C487 C 0.71918 0.76562 0.82465 0.0
C488 C 0.70152 0.75771 0.78941 0.0
C489 C 0.78623 0.79167 0.83484 0.0
C490 C 0.83625 0.8103 0.80992 0.0
C491 C 0.81912 0.8062 0.77502 0.0
C492 C 0.75246 0.77979 0.76483 0.0
C493 C 0.90374 0.82214 0.81838 0.0
C494 C 0.96029 0.88136 0.80776 0.0
C495 C 0.91166 0.76895 0.82985 0.0
C496 C 0.85443 0.70416 0.84051 0.0
C497 C 0.80369 0.65969 0.81659 0.0
C498 C 0.75145 0.59739 0.82656 0.0
C499 C 0.75019 0.57846 0.86019 0.0
C500 C 0.80117 0.62183 0.88389 0.0
C501 C 0.85313 0.68447 0.87417 0.0
H502 H 0.70994 0.53003 0.86781 0.0
H503 H 0.23585 0.0993 0.75165 0.0
H504 H 0.35247 0.05744 0.34845 0.0
H505 H 0.26063 0.93907 0.34027 0.0
H506 H 0.18912 0.98934 0.25119 0.0
H507 H 0.28202 0.10724 0.2585 0.0
H508 H 0.09303 0.917 0.31401 0.0
H509 H 0.24911 0.90933 0.22931 0.0
H510 H 0.35756 0.92128 0.21123 0.0
H511 H 0.33776 0.77845 0.28388 0.0
H512 H 0.22987 0.7668 0.30298 0.0
H513 H 0.8244 0.60241 0.24898 0.0
H514 H 0.92228 0.71638 0.25809 0.0
H515 H 0.03347 0.63093 0.30094 0.0
H516 H 0.93617 0.51665 0.29002 0.0
H517 H 0.11358 0.72211 0.26512 0.0
H518 H 0.96456 0.72183 0.35037 0.0
H519 H 0.85895 0.70637 0.37528 0.0
H520 H 0.86929 0.86146 0.31407 0.0
H521 H 0.97404 0.87653 0.28806 0.0
C522 C 0.31758 0.04305 0.32689 0.0
C523 C 0.32437 0.09158 0.3041 0.0
C524 C 0.26528 0.97549 0.32225 0.0
C525 C 0.21817 0.95563 0.29516 0.0
C526 C 0.22514 0.00376 0.2722 0.0
C527 C 0.27834 0.07093 0.27632 0.0
C528 C 0.15979 0.88545 0.29171 0.0
C529 C 0.09702 0.8743 0.30294 0.0
C530 C 0.16613 0.82959 0.27889 0.0
C531 C 0.23174 0.83784 0.26787 0.0
C532 C 0.26833 0.88128 0.24183 0.0
C533 C 0.3296 0.8878 0.2313 0.0
C534 C 0.35446 0.85059 0.24638 0.0
C535 C 0.31841 0.80722 0.27223 0.0
C536 C 0.25723 0.80068 0.28292 0.0
C537 C 0.86941 0.6084 0.261 0.0
C538 C 0.87237 0.55132 0.26977 0.0
C539 C 0.92551 0.67356 0.26621 0.0
C540 C 0.98537 0.68315 0.28111 0.0
C541 C 0.98822 0.62551 0.28954 0.0
C542 C 0.9325 0.5602 0.28356 0.0
C543 C 0.04533 0.7529 0.28686 0.0
C544 C 0.10881 0.76426 0.27631 0.0
C545 C 0.04007 0.80871 0.30147 0.0
C546 C 0.97693 0.79983 0.31701 0.0
C547 C 0.94401 0.75218 0.34197 0.0
C548 C 0.88431 0.74353 0.35631 0.0
C549 C 0.85747 0.78296 0.34629 0.0
C550 C 0.89025 0.83107 0.32187 0.0
C551 C 0.9497 0.83955 0.30724 0.0
H552 H 0.8112 0.77616 0.35738 0.0
H553 H 0.40144 0.85504 0.2379 0.0
H554 H 0.29932 0.32081 0.71118 0.0
H555 H 0.29667 0.21668 0.72515 0.0
H556 H 0.39147 0.21411 0.62877 0.0
H557 H 0.3931 0.31762 0.61428 0.0
H558 H 0.29259 0.09142 0.63861 0.0
H559 H 0.48057 0.25955 0.70449 0.0
H560 H 0.54706 0.3588 0.745 0.0
H561 H 0.41604 0.25425 0.82723 0.0
H562 H 0.34815 0.15488 0.78711 0.0
H563 H 0.38877 0.85411 0.68759 0.0
H564 H 0.38444 0.95244 0.66908 0.0
H565 H 0.26936 0.94727 0.7588 0.0
H566 H 0.27774 0.85146 0.77833 0.0
H567 H 0.38008 0.07305 0.75096 0.0
H568 H 0.19459 0.9006 0.67798 0.0
H569 H 0.14892 0.80127 0.63596 0.0
H570 H 0.30043 0.91869 0.56386 0.0
H571 H 0.3473 0.01855 0.6056 0.0
C572 C 0.31982 0.29824 0.69301 0.0
C573 C 0.34638 0.32741 0.66163 0.0
C574 C 0.31847 0.23881 0.70107 0.0
C575 C 0.34441 0.20792 0.67813 0.0
C576 C 0.37105 0.23701 0.6468 0.0
C577 C 0.37208 0.29625 0.63862 0.0
C578 C 0.34272 0.14471 0.68668 0.0
C579 C 0.31231 0.0877 0.66305 0.0
C580 C 0.36867 0.13976 0.71849 0.0
C581 C 0.40862 0.2 0.74265 0.0
C582 C 0.46542 0.258 0.73111 0.0
C583 C 0.50352 0.31425 0.75403 0.0
C584 C 0.48566 0.31294 0.78863 0.0
C585 C 0.42969 0.25533 0.80039 0.0
C586 C 0.39134 0.19903 0.77756 0.0
C587 C 0.36038 0.8725 0.70251 0.0
C588 C 0.33053 0.84352 0.73332 0.0
C589 C 0.35851 0.92897 0.6922 0.0
C590 C 0.32605 0.95669 0.71249 0.0
C591 C 0.29492 0.92672 0.74296 0.0
C592 C 0.29865 0.87153 0.75376 0.0
C593 C 0.32882 0.01987 0.70327 0.0
C594 C 0.35984 0.07691 0.7267 0.0
C595 C 0.30551 0.02541 0.67088 0.0
C596 C 0.27441 0.96695 0.6449 0.0
C597 C 0.21795 0.90524 0.6531 0.0
C598 C 0.19196 0.84884 0.62937 0.0
C599 C 0.22176 0.85367 0.59726 0.0
C600 C 0.27731 0.91508 0.58871 0.0
C601 C 0.30346 0.97166 0.61235 0.0
H602 H 0.20184 0.80984 0.579 0.0
H603 H 0.5153 0.35648 0.80635 0.0
H604 H 0.31807 0.35243 0.34693 0.0
H605 H 0.20872 0.33909 0.33455 0.0
H606 H 0.30047 0.50198 0.26597 0.0
H607 H 0.41075 0.51779 0.27949 0.0
H608 H 0.13178 0.40987 0.3213 0.0
H609 H 0.23778 0.42098 0.18901 0.0
H610 H 0.33458 0.42178 0.1603 0.0
H611 H 0.33632 0.29048 0.23425 0.0
H612 H 0.23938 0.28886 0.26329 0.0
H613 H 0.88924 0.29821 0.17802 0.0
H614 H 0.00692 0.33385 0.18819 0.0
H615 H 0.95123 0.19792 0.27008 0.0
H616 H 0.83329 0.16095 0.25999 0.0
H617 H 0.1052 0.29351 0.20489 0.0
H618 H 0.00768 0.2953 0.34048 0.0
H619 H 0.90228 0.28133 0.36533 0.0
H620 H 0.88033 0.38477 0.28239 0.0
H621 H 0.98593 0.40015 0.25732 0.0
C622 C 0.31574 0.38871 0.33125 0.0
C623 C 0.37277 0.43509 0.31376 0.0
C624 C 0.253 0.38082 0.324 0.0
C625 C 0.24666 0.41824 0.29861 0.0
C626 C 0.30462 0.47218 0.2854 0.0
C627 C 0.3677 0.48098 0.29316 0.0
C628 C 0.18213 0.38815 0.27947 0.0
C629 C 0.12604 0.38493 0.29582 0.0
C630 C 0.17477 0.35583 0.2461 0.0
C631 C 0.23192 0.35529 0.2284 0.0
C632 C 0.25883 0.39223 0.19905 0.0
C633 C 0.31373 0.39287 0.18277 0.0
C634 C 0.34152 0.35606 0.19538 0.0
C635 C 0.31471 0.31887 0.22446 0.0
C636 C 0.2599 0.31819 0.24088 0.0
C637 C 0.90158 0.27315 0.197 0.0
C638 C 0.85249 0.22945 0.21948 0.0
C639 C 0.96905 0.29387 0.20278 0.0
C640 C 0.98748 0.27108 0.23095 0.0
C641 C 0.93764 0.21728 0.24873 0.0
C642 C 0.87008 0.1961 0.24285 0.0
C643 C 0.05482 0.31405 0.247 0.0
C644 C 0.11122 0.31971 0.23005 0.0
C645 C 0.06254 0.34922 0.27959 0.0
C646 C 0.0043 0.34834 0.29696 0.0
C647 C 0.9809 0.31601 0.32789 0.0
C648 C 0.92092 0.30746 0.34186 0.0
C649 C 0.8843 0.33146 0.32519 0.0
C650 C 0.90855 0.36587 0.29511 0.0
C651 C 0.96846 0.3746 0.28106 0.0
H652 H 0.83719 0.32355 0.3356 0.0
H653 H 0.38366 0.35615 0.18259 0.0
H654 H 0.90524 0.38762 0.66561 0.0
H655 H 0.80221 0.2821 0.67713 0.0
H656 H 0.88088 0.28697 0.77812 0.0
H657 H 0.98491 0.39044 0.76603 0.0
H658 H 0.83392 0.16992 0.75251 0.0
H659 H 0.74384 0.31615 0.76209 0.0
H660 H 0.71402 0.40139 0.7473 0.0
H661 H 0.59828 0.27307 0.65961 0.0
H662 H 0.62833 0.18749 0.67348 0.0
H663 H 0.5532 0.8753 0.797 0.0
H664 H 0.6195 0.99897 0.79874 0.0
H665 H 0.58021 0.99261 0.68999 0.0
H666 H 0.51041 0.86864 0.68882 0.0
H667 H 0.60092 0.11378 0.72529 0.0
H668 H 0.70858 0.97361 0.71817 0.0
H669 H 0.73453 0.89041 0.74059 0.0
H670 H 0.81466 0.01627 0.83431 0.0
H671 H 0.78816 0.09969 0.81264 0.0
C672 C 0.90045 0.3662 0.6903 0.0
C673 C 0.95364 0.3971 0.71476 0.0
C674 C 0.84105 0.30615 0.69705 0.0
C675 C 0.83286 0.27645 0.72872 0.0
C676 C 0.88559 0.30834 0.75342 0.0
C677 C 0.94533 0.36757 0.74645 0.0
C678 C 0.77242 0.20928 0.73505 0.0
C679 C 0.78305 0.15865 0.74716 0.0
C680 C 0.70548 0.19331 0.7278 0.0
C681 C 0.68917 0.24571 0.71859 0.0
C682 C 0.71283 0.30647 0.73936 0.0
C683 C 0.69571 0.35479 0.73119 0.0
C684 C 0.6546 0.34281 0.70242 0.0
C685 C 0.63039 0.28242 0.6818 0.0
C686 C 0.64745 0.23398 0.68981 0.0
C687 C 0.554 0.90041 0.77421 0.0
C688 C 0.52475 0.86234 0.74312 0.0
C689 C 0.59352 0.97126 0.77495 0.0
C690 C 0.60606 0.00505 0.74434 0.0
C691 C 0.57147 0.96774 0.71393 0.0
C692 C 0.53148 0.89687 0.71328 0.0
C693 C 0.66331 0.07577 0.74259 0.0
C694 C 0.65205 0.12636 0.73102 0.0
C695 C 0.72977 0.0927 0.75121 0.0
C696 C 0.74586 0.0425 0.76393 0.0
C697 C 0.73135 0.98328 0.74363 0.0
C698 C 0.74618 0.9361 0.75622 0.0
C699 C 0.77617 0.94806 0.78889 0.0
C700 C 0.79137 0.00711 0.80904 0.0
C701 C 0.77645 0.0543 0.79663 0.0
H702 H 0.78791 0.91188 0.79866 0.0
H703 H 0.64125 0.38019 0.6962 0.0
loop_
_geom_bond_atom_site_label_1
_geom_bond_atom_site_label_2
_geom_bond_distance
_geom_bond_site_symmetry_2
_ccdc_geom_bond_type
Zn0 O2 1.933 . S
Zn0 O20 1.985 . S
Zn0 O31 1.955 . S
Zn1 O2 1.911 . S
Zn1 O21 1.970 . S
Zn1 O37 1.945 . S
Zn1 O44 1.981 . S
O2 Zn0 1.933 . S
O2 Zn1 1.911 . S
O2 H3 0.841 . S
H3 O2 0.841 . S
C4 O5 1.246 . S
C4 O33 1.276 . S
O5 C4 1.246 . S
Zn6 O8 1.911 . S
Zn6 O23 1.970 . S
Zn6 O40 1.945 . S
Zn6 O47 1.981 . S
Zn7 O8 1.933 . S
Zn7 O22 1.985 . S
Zn7 O29 1.955 . S
O8 Zn6 1.911 . S
O8 Zn7 1.933 . S
O8 H9 0.841 . S
H9 O8 0.841 . S
Zn10 O11 1.933 . S
Zn10 O24 1.985 . S
Zn10 O33 1.955 . S
O11 Zn10 1.933 . S
O11 Zn12 1.911 . S
O11 H13 0.841 . S
Zn12 O11 1.911 . S
Zn12 O25 1.970 . S
Zn12 O41 1.981 . S
Zn12 O43 1.945 . S
H13 O11 0.841 . S
Zn14 O15 1.933 . S
Zn14 O27 1.985 . S
Zn14 O35 1.955 . S
O15 Zn14 1.933 . S
O15 H16 0.841 . S
O15 Zn17 1.911 . S
H16 O15 0.841 . S
Zn17 O15 1.911 . S
Zn17 O28 1.970 . S
Zn17 O38 1.981 . S
Zn17 O46 1.945 . S
C18 O19 1.246 . S
C18 O35 1.276 . S
O19 C18 1.246 . S
O20 Zn0 1.985 . S
O20 C30 1.245 . S
O21 Zn1 1.970 . S
O21 C30 1.263 . S
O22 Zn7 1.985 . S
O22 C34 1.245 . S
O23 Zn6 1.970 . S
O23 C34 1.263 . S
O24 Zn10 1.985 . S
O24 C39 1.245 . S
O25 Zn12 1.970 . S
O25 C39 1.263 . S
C26 O37 1.262 . S
C26 O38 1.245 . S
O27 Zn14 1.985 . S
O27 C45 1.245 . S
O28 Zn17 1.970 . S
O28 C45 1.263 . S
O29 Zn7 1.955 . S
O29 C48 1.276 . S
C30 O20 1.245 . S
C30 O21 1.263 . S
O31 Zn0 1.955 . S
O31 C50 1.276 . S
C32 O40 1.262 . S
C32 O41 1.245 . S
O33 C4 1.276 . S
O33 Zn10 1.955 . S
C34 O22 1.245 . S
C34 O23 1.263 . S
O35 Zn14 1.955 . S
O35 C18 1.276 . S
C36 O43 1.262 . S
C36 O44 1.245 . S
O37 Zn1 1.945 . S
O37 C26 1.262 . S
O38 Zn17 1.981 . S
O38 C26 1.245 . S
C39 O24 1.245 . S
C39 O25 1.263 . S
O40 Zn6 1.945 . S
O40 C32 1.262 . S
O41 Zn12 1.981 . S
O41 C32 1.245 . S
C42 O46 1.262 . S
C42 O47 1.245 . S
O43 Zn12 1.945 . S
O43 C36 1.262 . S
O44 Zn1 1.981 . S
O44 C36 1.245 . S
C45 O27 1.245 . S
C45 O28 1.263 . S
O46 Zn17 1.945 . S
O46 C42 1.262 . S
O47 Zn6 1.981 . S
O47 C42 1.245 . S
C48 O29 1.276 . S
C48 O49 1.246 . S
O49 C48 1.246 . S
C50 O31 1.276 . S
C50 O51 1.246 . S
O51 C50 1.246 . S
Zn52 O54 1.933 . S
Zn52 O72 1.985 . S
Zn52 O83 1.955 . S
Zn53 O54 1.911 . S
Zn53 O73 1.970 . S
Zn53 O89 1.945 . S
Zn53 O96 1.981 . S
O54 Zn52 1.933 . S
O54 Zn53 1.911 . S
O54 H55 0.841 . S
H55 O54 0.841 . S
C56 O57 1.246 . S
C56 O85 1.276 . S
O57 C56 1.246 . S
Zn58 O60 1.911 . S
Zn58 O75 1.970 . S
Zn58 O92 1.945 . S
Zn58 O99 1.981 . S
Zn59 O60 1.933 . S
Zn59 O74 1.985 . S
Zn59 O81 1.955 . S
O60 Zn58 1.911 . S
O60 Zn59 1.933 . S
O60 H61 0.841 . S
H61 O60 0.841 . S
Zn62 O63 1.933 . S
Zn62 O76 1.985 . S
Zn62 O85 1.955 . S
O63 Zn62 1.933 . S
O63 Zn64 1.911 . S
O63 H65 0.841 . S
Zn64 O63 1.911 . S
Zn64 O77 1.970 . S
Zn64 O93 1.981 . S
Zn64 O95 1.945 . S
H65 O63 0.841 . S
Zn66 O67 1.933 . S
Zn66 O79 1.985 . S
Zn66 O87 1.955 . S
O67 Zn66 1.933 . S
O67 H68 0.841 . S
O67 Zn69 1.911 . S
H68 O67 0.841 . S
Zn69 O67 1.911 . S
Zn69 O80 1.970 . S
Zn69 O90 1.981 . S
Zn69 O98 1.945 . S
C70 O71 1.246 . S
C70 O87 1.276 . S
O71 C70 1.246 . S
O72 Zn52 1.985 . S
O72 C82 1.245 . S
O73 Zn53 1.970 . S
O73 C82 1.263 . S
O74 Zn59 1.985 . S
O74 C86 1.245 . S
O75 Zn58 1.970 . S
O75 C86 1.263 . S
O76 Zn62 1.985 . S
O76 C91 1.245 . S
O77 Zn64 1.970 . S
O77 C91 1.263 . S
C78 O89 1.262 . S
C78 O90 1.245 . S
O79 Zn66 1.985 . S
O79 C97 1.245 . S
O80 Zn69 1.970 . S
O80 C97 1.263 . S
O81 Zn59 1.955 . S
O81 C100 1.276 . S
C82 O72 1.245 . S
C82 O73 1.263 . S
O83 Zn52 1.955 . S
O83 C102 1.276 . S
C84 O92 1.262 . S
C84 O93 1.245 . S
O85 C56 1.276 . S
O85 Zn62 1.955 . S
C86 O74 1.245 . S
C86 O75 1.263 . S
O87 Zn66 1.955 . S
O87 C70 1.276 . S
C88 O95 1.262 . S
C88 O96 1.245 . S
O89 Zn53 1.945 . S
O89 C78 1.262 . S
O90 Zn69 1.981 . S
O90 C78 1.245 . S
C91 O76 1.245 . S
C91 O77 1.263 . S
O92 Zn58 1.945 . S
O92 C84 1.262 . S
O93 Zn64 1.981 . S
O93 C84 1.245 . S
C94 O98 1.262 . S
C94 O99 1.245 . S
O95 Zn64 1.945 . S
O95 C88 1.262 . S
O96 Zn53 1.981 . S
O96 C88 1.245 . S
C97 O79 1.245 . S
C97 O80 1.263 . S
O98 Zn69 1.945 . S
O98 C94 1.262 . S
O99 Zn58 1.981 . S
O99 C94 1.245 . S
C100 O81 1.276 . S
C100 O101 1.246 . S
O101 C100 1.246 . S
C102 O83 1.276 . S
C102 O103 1.246 . S
O103 C102 1.246 . S
H104 C122 0.951 . S
H105 C124 0.951 . S
H106 C126 0.950 . S
H107 C127 0.950 . S
H108 C129 0.950 . S
H109 C132 0.950 . S
H110 C133 0.950 . S
H111 C135 0.950 . S
H112 C136 0.950 . S
H113 C137 0.951 . S
H114 C139 0.951 . S
H115 C141 0.950 . S
H116 C142 0.950 . S
H117 C144 0.951 1_556 S
H118 C147 0.950 . S
H119 C148 0.950 . S
H120 C150 0.950 . S
H121 C151 0.950 . S
C122 H104 0.951 . S
C122 C123 1.366 . S
C122 C124 1.388 . S
C123 C122 1.366 . S
C123 C127 1.385 . S
C124 H105 0.951 . S
C124 C122 1.388 . S
C124 C125 1.366 . S
C125 C124 1.366 . S
C125 C126 1.414 . S
C125 C128 1.499 . S
C126 H106 0.950 . S
C126 C125 1.414 . S
C126 C127 1.374 . S
C127 H107 0.950 . S
C127 C123 1.385 . S
C127 C126 1.374 . S
C128 C125 1.499 . S
C128 C129 1.403 . S
C128 C130 1.389 1_565 S
C129 H108 0.950 . S
C129 C128 1.403 . S
C129 C145 1.350 1_556 S
C130 C128 1.389 1_545 S
C130 C131 1.524 . S
C130 C144 1.379 1_556 S
C131 C130 1.524 . S
C131 C132 1.397 . S
C131 C136 1.363 . S
C132 H109 0.950 . S
C132 C131 1.397 . S
C132 C133 1.334 . S
C133 H110 0.950 . S
C133 C132 1.334 . S
C133 C134 1.287 . S
C134 C133 1.287 . S
C134 C135 1.524 . S
C134 H153 0.913 . S
C135 H111 0.950 . S
C135 C134 1.524 . S
C135 C136 1.415 . S
C136 H112 0.950 . S
C136 C131 1.363 . S
C136 C135 1.415 . S
C137 H113 0.951 . S
C137 C138 1.366 . S
C137 C139 1.388 . S
C138 C137 1.366 . S
C138 C142 1.385 . S
C139 H114 0.951 . S
C139 C137 1.388 . S
C139 C140 1.366 . S
C140 C139 1.366 . S
C140 C141 1.414 . S
C140 C143 1.499 . S
C141 H115 0.950 . S
C141 C140 1.414 . S
C141 C142 1.374 . S
C142 H116 0.950 . S
C142 C138 1.385 . S
C142 C141 1.374 . S
C143 C140 1.499 . S
C143 C144 1.371 . S
C143 C145 1.389 1_545 S
C144 H117 0.951 1_554 S
C144 C130 1.379 1_554 S
C144 C143 1.371 . S
C145 C129 1.350 1_554 S
C145 C143 1.389 1_565 S
C145 C146 1.524 . S
C146 C145 1.524 . S
C146 C147 1.397 . S
C146 C151 1.363 . S
C147 H118 0.950 . S
C147 C146 1.397 . S
C147 C148 1.334 . S
C148 H119 0.950 . S
C148 C147 1.334 . S
C148 C149 1.287 . S
C149 C148 1.287 . S
C149 C150 1.524 . S
C149 H152 0.999 . S
C150 H120 0.950 . S
C150 C149 1.524 . S
C150 C151 1.415 . S
C151 H121 0.950 . S
C151 C146 1.363 . S
C151 C150 1.415 . S
H152 C149 0.999 . S
H153 C134 0.913 . S
H154 C172 0.951 . S
H155 C174 0.951 . S
H156 C176 0.950 . S
H157 C177 0.950 . S
H158 C179 0.950 . S
H159 C182 0.950 . S
H160 C183 0.950 . S
H161 C185 0.950 . S
H162 C186 0.950 . S
H163 C187 0.951 . S
H164 C189 0.951 . S
H165 C191 0.950 . S
H166 C192 0.950 . S
H167 C194 0.950 . S
H168 C197 0.950 . S
H169 C198 0.950 . S
H170 C200 0.950 . S
H171 C201 0.950 . S
C172 H154 0.951 . S
C172 C173 1.366 . S
C172 C174 1.388 . S
C173 C172 1.366 . S
C173 C177 1.385 . S
C174 H155 0.951 . S
C174 C172 1.388 . S
C174 C175 1.366 . S
C175 C174 1.366 . S
C175 C176 1.414 . S
C175 C178 1.499 . S
C176 H156 0.950 . S
C176 C175 1.414 . S
C176 C177 1.374 . S
C177 H157 0.950 . S
C177 C173 1.385 . S
C177 C176 1.374 . S
C178 C175 1.499 . S
C178 C179 1.373 . S
C178 C180 1.389 . S
C179 H158 0.950 . S
C179 C178 1.373 . S
C179 C195 1.377 . S
C180 C178 1.389 . S
C180 C181 1.524 . S
C180 C194 1.377 . S
C181 C180 1.524 . S
C181 C182 1.397 . S
C181 C186 1.363 . S
C182 H159 0.950 . S
C182 C181 1.397 . S
C182 C183 1.334 . S
C183 H160 0.950 . S
C183 C182 1.334 . S
C183 C184 1.287 . S
C184 C183 1.287 . S
C184 C185 1.524 . S
C184 H203 0.913 . S
C185 H161 0.950 . S
C185 C184 1.524 . S
C185 C186 1.415 . S
C186 H162 0.950 . S
C186 C181 1.363 . S
C186 C185 1.415 . S
C187 H163 0.951 . S
C187 C188 1.366 . S
C187 C189 1.388 . S
C188 C187 1.366 . S
C188 C192 1.385 . S
C189 H164 0.951 . S
C189 C187 1.388 . S
C189 C190 1.366 . S
C190 C189 1.366 . S
C190 C191 1.414 . S
C190 C193 1.499 . S
C191 H165 0.950 . S
C191 C190 1.414 . S
C191 C192 1.374 . S
C192 H166 0.950 . S
C192 C188 1.385 . S
C192 C191 1.374 . S
C193 C190 1.499 . S
C193 C194 1.373 . S
C193 C195 1.389 . S
C194 H167 0.950 . S
C194 C180 1.377 . S
C194 C193 1.373 . S
C195 C179 1.377 . S
C195 C193 1.389 . S
C195 C196 1.524 . S
C196 C195 1.524 . S
C196 C197 1.397 . S
C196 C201 1.363 . S
C197 H168 0.950 . S
C197 C196 1.397 . S
C197 C198 1.334 . S
C198 H169 0.950 . S
C198 C197 1.334 . S
C198 C199 1.287 . S
C199 C198 1.287 . S
C199 C200 1.524 . S
C199 H202 0.999 . S
C200 H170 0.950 . S
C200 C199 1.524 . S
C200 C201 1.415 . S
C201 H171 0.950 . S
C201 C196 1.363 . S
C201 C200 1.415 . S
H202 C199 0.999 . S
H203 C184 0.913 . S
H204 C222 0.951 . S
H205 C224 0.951 . S
H206 C226 0.950 . S
H207 C227 0.950 . S
H208 C229 0.950 1_554 S
H209 C232 0.950 . S
H210 C233 0.950 . S
H211 C235 0.950 . S
H212 C236 0.950 . S
H213 C237 0.951 . S
H214 C239 0.951 . S
H215 C241 0.950 . S
H216 C242 0.950 . S
H217 C244 0.950 . S
H218 C247 0.950 . S
H219 C248 0.950 . S
H220 C250 0.950 . S
H221 C251 0.950 . S
C222 H204 0.951 . S
C222 C223 1.366 . S
C222 C224 1.388 . S
C223 C222 1.366 . S
C223 C227 1.385 . S
C224 H205 0.951 . S
C224 C222 1.388 . S
C224 C225 1.366 . S
C225 C224 1.366 . S
C225 C226 1.414 . S
C225 C228 1.499 . S
C226 H206 0.950 . S
C226 C225 1.414 . S
C226 C227 1.374 . S
C227 H207 0.950 . S
C227 C223 1.385 . S
C227 C226 1.374 . S
C228 C225 1.499 . S
C228 C229 1.368 1_554 S
C228 C230 1.389 1_655 S
C229 H208 0.950 1_556 S
C229 C228 1.368 1_556 S
C229 C245 1.383 . S
C230 C228 1.389 1_455 S
C230 C231 1.524 . S
C230 C244 1.377 1_554 S
C231 C230 1.524 . S
C231 C232 1.397 . S
C231 C236 1.363 . S
C232 H209 0.950 . S
C232 C231 1.397 . S
C232 C233 1.334 . S
C233 H210 0.950 . S
C233 C232 1.334 . S
C233 C234 1.287 . S
C234 C233 1.287 . S
C234 C235 1.524 . S
C234 H253 0.913 . S
C235 H211 0.950 . S
C235 C234 1.524 . S
C235 C236 1.415 . S
C236 H212 0.950 . S
C236 C231 1.363 . S
C236 C235 1.415 . S
C237 H213 0.951 . S
C237 C238 1.366 . S
C237 C239 1.388 . S
C238 C237 1.366 . S
C238 C242 1.385 . S
C239 H214 0.951 . S
C239 C237 1.388 . S
C239 C240 1.366 . S
C240 C239 1.366 . S
C240 C241 1.414 . S
C240 C243 1.499 . S
C241 H215 0.950 . S
C241 C240 1.414 . S
C241 C242 1.374 . S
C242 H216 0.950 . S
C242 C238 1.385 . S
C242 C241 1.374 . S
C243 C240 1.499 . S
C243 C244 1.373 . S
C243 C245 1.389 1_455 S
C244 H217 0.950 . S
C244 C230 1.377 1_556 S
C244 C243 1.373 . S
C245 C229 1.383 . S
C245 C243 1.389 1_655 S
C245 C246 1.524 . S
C246 C245 1.524 . S
C246 C247 1.397 . S
C246 C251 1.363 . S
C247 H218 0.950 . S
C247 C246 1.397 . S
C247 C248 1.334 . S
C248 H219 0.950 . S
C248 C247 1.334 . S
C248 C249 1.287 . S
C249 C248 1.287 . S
C249 C250 1.524 . S
C249 H252 0.999 . S
C250 H220 0.950 . S
C250 C249 1.524 . S
C250 C251 1.415 . S
C251 H221 0.950 . S
C251 C246 1.363 . S
C251 C250 1.415 . S
H252 C249 0.999 . S
H253 C234 0.913 . S
H254 C272 0.951 . S
H255 C274 0.951 . S
H256 C276 0.950 . S
H257 C277 0.950 . S
H258 C279 0.950 . S
H259 C282 0.950 . S
H260 C283 0.950 . S
H261 C285 0.950 . S
H262 C286 0.950 . S
H263 C287 0.951 . S
H264 C289 0.951 . S
H265 C291 0.950 . S
H266 C292 0.950 . S
H267 C294 0.950 . S
H268 C297 0.950 . S
H269 C298 0.950 . S
H270 C300 0.950 . S
H271 C301 0.950 . S
C272 H254 0.951 . S
C272 C273 1.366 . S
C272 C274 1.388 . S
C273 C272 1.366 . S
C273 C277 1.385 . S
C274 H255 0.951 . S
C274 C272 1.388 . S
C274 C275 1.366 . S
C275 C274 1.366 . S
C275 C276 1.414 . S
C275 C278 1.499 . S
C276 H256 0.950 . S
C276 C275 1.414 . S
C276 C277 1.374 . S
C277 H257 0.950 . S
C277 C273 1.385 . S
C277 C276 1.374 . S
C278 C275 1.499 . S
C278 C279 1.373 1_565 S
C278 C280 1.389 . S
C279 H258 0.950 . S
C279 C278 1.373 1_545 S
C279 C295 1.377 . S
C280 C278 1.389 . S
C280 C281 1.524 . S
C280 C294 1.377 . S
C281 C280 1.524 . S
C281 C282 1.397 . S
C281 C286 1.363 . S
C282 H259 0.950 . S
C282 C281 1.397 . S
C282 C283 1.334 . S
C283 H260 0.950 . S
C283 C282 1.334 . S
C283 C284 1.287 . S
C284 C283 1.287 . S
C284 C285 1.524 . S
C284 H303 0.913 . S
C285 H261 0.950 . S
C285 C284 1.524 . S
C285 C286 1.415 . S
C286 H262 0.950 . S
C286 C281 1.363 . S
C286 C285 1.415 . S
C287 H263 0.951 . S
C287 C288 1.366 . S
C287 C289 1.388 . S
C288 C287 1.366 . S
C288 C292 1.385 . S
C289 H264 0.951 . S
C289 C287 1.388 . S
C289 C290 1.366 . S
C290 C289 1.366 . S
C290 C291 1.414 . S
C290 C293 1.499 . S
C291 H265 0.950 . S
C291 C290 1.414 . S
C291 C292 1.374 . S
C292 H266 0.950 . S
C292 C288 1.385 . S
C292 C291 1.374 . S
C293 C290 1.499 . S
C293 C294 1.373 1_545 S
C293 C295 1.389 . S
C294 H267 0.950 . S
C294 C280 1.377 . S
C294 C293 1.373 1_565 S
C295 C279 1.377 . S
C295 C293 1.389 . S
C295 C296 1.524 . S
C296 C295 1.524 . S
C296 C297 1.397 . S
C296 C301 1.363 . S
C297 H268 0.950 . S
C297 C296 1.397 . S
C297 C298 1.334 . S
C298 H269 0.950 . S
C298 C297 1.334 . S
C298 C299 1.287 . S
C299 C298 1.287 . S
C299 C300 1.524 . S
C299 H302 0.999 . S
C300 H270 0.950 . S
C300 C299 1.524 . S
C300 C301 1.415 . S
C301 H271 0.950 . S
C301 C296 1.363 . S
C301 C300 1.415 . S
H302 C299 0.999 . S
H303 C284 0.913 . S
H304 C322 0.951 . S
H305 C324 0.951 . S
H306 C326 0.950 . S
H307 C327 0.950 . S
H308 C329 0.950 . S
H309 C332 0.950 . S
H310 C333 0.950 . S
H311 C335 0.950 . S
H312 C336 0.950 . S
H313 C337 0.951 . S
H314 C339 0.951 . S
H315 C341 0.950 . S
H316 C342 0.950 . S
H317 C344 0.950 . S
H318 C347 0.950 . S
H319 C348 0.950 . S
H320 C350 0.950 . S
H321 C351 0.950 . S
C322 H304 0.951 . S
C322 C323 1.366 . S
C322 C324 1.388 . S
C323 C322 1.366 . S
C323 C327 1.385 . S
C324 H305 0.951 . S
C324 C322 1.388 . S
C324 C325 1.366 . S
C325 C324 1.366 . S
C325 C326 1.414 . S
C325 C328 1.499 . S
C326 H306 0.950 . S
C326 C325 1.414 . S
C326 C327 1.374 . S
C327 H307 0.950 . S
C327 C323 1.385 . S
C327 C326 1.374 . S
C328 C325 1.499 . S
C328 C329 1.373 1_554 S
C328 C330 1.389 . S
C329 H308 0.950 . S
C329 C328 1.373 1_556 S
C329 C345 1.377 . S
C330 C328 1.389 . S
C330 C331 1.524 . S
C330 C344 1.378 . S
C331 C330 1.524 . S
C331 C332 1.397 . S
C331 C336 1.363 . S
C332 H309 0.950 . S
C332 C331 1.397 . S
C332 C333 1.334 . S
C333 H310 0.950 . S
C333 C332 1.334 . S
C333 C334 1.287 . S
C334 C333 1.287 . S
C334 C335 1.524 . S
C334 H353 0.913 . S
C335 H311 0.950 . S
C335 C334 1.524 . S
C335 C336 1.415 . S
C336 H312 0.950 . S
C336 C331 1.363 . S
C336 C335 1.415 . S
C337 H313 0.951 . S
C337 C338 1.366 . S
C337 C339 1.388 . S
C338 C337 1.366 . S
C338 C342 1.385 . S
C339 H314 0.951 . S
C339 C337 1.388 . S
C339 C340 1.366 . S
C340 C339 1.366 . S
C340 C341 1.414 . S
C340 C343 1.499 . S
C341 H315 0.950 . S
C341 C340 1.414 . S
C341 C342 1.374 . S
C342 H316 0.950 . S
C342 C338 1.385 . S
C342 C341 1.374 . S
C343 C340 1.499 . S
C343 C344 1.372 1_556 S
C343 C345 1.389 . S
C344 H317 0.950 . S
C344 C330 1.378 . S
C344 C343 1.372 1_554 S
C345 C329 1.377 . S
C345 C343 1.389 . S
C345 C346 1.524 . S
C346 C345 1.524 . S
C346 C347 1.397 . S
C346 C351 1.363 . S
C347 H318 0.950 . S
C347 C346 1.397 . S
C347 C348 1.334 . S
C348 H319 0.950 . S
C348 C347 1.334 . S
C348 C349 1.287 . S
C349 C348 1.287 . S
C349 C350 1.524 . S
C349 H352 0.999 . S
C350 H320 0.950 . S
C350 C349 1.524 . S
C350 C351 1.415 . S
C351 H321 0.950 . S
C351 C346 1.363 . S
C351 C350 1.415 . S
H352 C349 0.999 . S
H353 C334 0.913 . S
H354 C372 0.951 . S
H355 C374 0.951 . S
H356 C376 0.950 . S
H357 C377 0.950 . S
H358 C379 0.950 . S
H359 C382 0.950 . S
H360 C383 0.950 . S
H361 C385 0.950 . S
H362 C386 0.950 . S
H363 C387 0.951 . S
H364 C389 0.951 . S
H365 C391 0.950 . S
H366 C392 0.950 . S
H367 C394 0.950 . S
H368 C397 0.950 . S
H369 C398 0.950 . S
H370 C400 0.950 . S
H371 C401 0.950 . S
C372 H354 0.951 . S
C372 C373 1.366 . S
C372 C374 1.388 . S
C373 C372 1.366 . S
C373 C377 1.385 . S
C374 H355 0.951 . S
C374 C372 1.388 . S
C374 C375 1.366 . S
C375 C374 1.366 . S
C375 C376 1.414 . S
C375 C378 1.499 . S
C376 H356 0.950 . S
C376 C375 1.414 . S
C376 C377 1.374 . S
C377 H357 0.950 . S
C377 C373 1.385 . S
C377 C376 1.374 . S
C378 C375 1.499 . S
C378 C379 1.373 1_655 S
C378 C380 1.389 . S
C379 H358 0.950 . S
C379 C378 1.373 1_455 S
C379 C395 1.377 . S
C380 C378 1.389 . S
C380 C381 1.524 . S
C380 C394 1.377 . S
C381 C380 1.524 . S
C381 C382 1.397 . S
C381 C386 1.363 . S
C382 H359 0.950 . S
C382 C381 1.397 . S
C382 C383 1.334 . S
C383 H360 0.950 . S
C383 C382 1.334 . S
C383 C384 1.287 . S
C384 C383 1.287 . S
C384 C385 1.524 . S
C384 H403 0.913 . S
C385 H361 0.950 . S
C385 C384 1.524 . S
C385 C386 1.415 . S
C386 H362 0.950 . S
C386 C381 1.363 . S
C386 C385 1.415 . S
C387 H363 0.951 . S
C387 C388 1.366 . S
C387 C389 1.388 . S
C388 C387 1.366 . S
C388 C392 1.385 . S
C389 H364 0.951 . S
C389 C387 1.388 . S
C389 C390 1.366 . S
C390 C389 1.366 . S
C390 C391 1.414 . S
C390 C393 1.499 . S
C391 H365 0.950 . S
C391 C390 1.414 . S
C391 C392 1.374 . S
C392 H366 0.950 . S
C392 C388 1.385 . S
C392 C391 1.374 . S
C393 C390 1.499 . S
C393 C394 1.373 1_455 S
C393 C395 1.389 . S
C394 H367 0.950 . S
C394 C380 1.377 . S
C394 C393 1.373 1_655 S
C395 C379 1.377 . S
C395 C393 1.389 . S
C395 C396 1.524 . S
C396 C395 1.524 . S
C396 C397 1.397 . S
C396 C401 1.363 . S
C397 H368 0.950 . S
C397 C396 1.397 . S
C397 C398 1.334 . S
C398 H369 0.950 . S
C398 C397 1.334 . S
C398 C399 1.287 . S
C399 C398 1.287 . S
C399 C400 1.524 . S
C399 H402 0.999 . S
C400 H370 0.950 . S
C400 C399 1.524 . S
C400 C401 1.415 . S
C401 H371 0.950 . S
C401 C396 1.363 . S
C401 C400 1.415 . S
H402 C399 0.999 . S
H403 C384 0.913 . S
H404 C422 0.951 . S
H405 C424 0.951 . S
H406 C426 0.950 . S
H407 C427 0.950 . S
H408 C429 0.950 . S
H409 C432 0.950 . S
H410 C433 0.950 . S
H411 C435 0.950 . S
H412 C436 0.950 . S
H413 C437 0.951 . S
H414 C439 0.951 . S
H415 C441 0.950 . S
H416 C442 0.950 . S
H417 C444 0.950 . S
H418 C447 0.950 . S
H419 C448 0.950 . S
H420 C450 0.950 . S
H421 C451 0.950 . S
C422 H404 0.951 . S
C422 C423 1.366 . S
C422 C424 1.388 1_545 S
C423 C422 1.366 . S
C423 C427 1.385 . S
C424 H405 0.951 . S
C424 C422 1.388 1_565 S
C424 C425 1.366 . S
C425 C424 1.366 . S
C425 C426 1.414 1_565 S
C425 C428 1.499 . S
C426 H406 0.950 . S
C426 C425 1.414 1_545 S
C426 C427 1.374 . S
C427 H407 0.950 . S
C427 C423 1.385 . S
C427 C426 1.374 . S
C428 C425 1.499 . S
C428 C429 1.373 . S
C428 C430 1.389 . S
C429 H408 0.950 . S
C429 C428 1.373 . S
C429 C445 1.377 . S
C430 C428 1.389 . S
C430 C431 1.524 . S
C430 C444 1.377 . S
C431 C430 1.524 . S
C431 C432 1.397 . S
C431 C436 1.363 . S
C432 H409 0.950 . S
C432 C431 1.397 . S
C432 C433 1.334 1_565 S
C433 H410 0.950 . S
C433 C432 1.334 1_545 S
C433 C434 1.287 1_545 S
C434 C433 1.287 1_565 S
C434 C435 1.524 . S
C434 H453 0.913 1_565 S
C435 H411 0.950 . S
C435 C434 1.524 . S
C435 C436 1.415 . S
C436 H412 0.950 . S
C436 C431 1.363 . S
C436 C435 1.415 . S
C437 H413 0.951 . S
C437 C438 1.366 . S
C437 C439 1.388 . S
C438 C437 1.366 . S
C438 C442 1.385 . S
C439 H414 0.951 . S
C439 C437 1.388 . S
C439 C440 1.366 . S
C440 C439 1.366 . S
C440 C441 1.414 . S
C440 C443 1.499 . S
C441 H415 0.950 . S
C441 C440 1.414 . S
C441 C442 1.374 . S
C442 H416 0.950 . S
C442 C438 1.385 . S
C442 C441 1.374 . S
C443 C440 1.499 . S
C443 C444 1.373 . S
C443 C445 1.389 . S
C444 H417 0.950 . S
C444 C430 1.377 . S
C444 C443 1.373 . S
C445 C429 1.377 . S
C445 C443 1.389 . S
C445 C446 1.524 . S
C446 C445 1.524 . S
C446 C447 1.397 . S
C446 C451 1.363 . S
C447 H418 0.950 . S
C447 C446 1.397 . S
C447 C448 1.334 . S
C448 H419 0.950 . S
C448 C447 1.334 . S
C448 C449 1.287 . S
C449 C448 1.287 . S
C449 C450 1.524 . S
C449 H452 0.999 . S
C450 H420 0.950 . S
C450 C449 1.524 . S
C450 C451 1.415 . S
C451 H421 0.950 . S
C451 C446 1.363 . S
C451 C450 1.415 . S
H452 C449 0.999 . S
H453 C434 0.913 1_545 S
H454 C472 0.951 . S
H455 C474 0.951 . S
H456 C476 0.950 . S
H457 C477 0.950 . S
H458 C479 0.950 . S
H459 C482 0.950 . S
H460 C483 0.950 . S
H461 C485 0.950 . S
H462 C486 0.950 . S
H463 C487 0.951 . S
H464 C489 0.951 . S
H465 C491 0.950 . S
H466 C492 0.950 . S
H467 C494 0.950 . S
H468 C497 0.950 . S
H469 C498 0.950 . S
H470 C500 0.950 . S
H471 C501 0.950 . S
C472 H454 0.951 . S
C472 C473 1.366 . S
C472 C474 1.388 . S
C473 C472 1.366 . S
C473 C477 1.385 . S
C474 H455 0.951 . S
C474 C472 1.388 . S
C474 C475 1.366 1_455 S
C475 C474 1.366 1_655 S
C475 C476 1.414 . S
C475 C478 1.499 . S
C476 H456 0.950 . S
C476 C475 1.414 . S
C476 C477 1.374 1_655 S
C477 H457 0.950 . S
C477 C473 1.385 . S
C477 C476 1.374 1_455 S
C478 C475 1.499 . S
C478 C479 1.373 . S
C478 C480 1.389 . S
C479 H458 0.950 . S
C479 C478 1.373 . S
C479 C495 1.377 . S
C480 C478 1.389 . S
C480 C481 1.524 . S
C480 C494 1.377 . S
C481 C480 1.524 . S
C481 C482 1.397 . S
C481 C486 1.363 . S
C482 H459 0.950 . S
C482 C481 1.397 . S
C482 C483 1.334 1_655 S
C483 H460 0.950 . S
C483 C482 1.334 1_455 S
C483 C484 1.287 . S
C484 C483 1.287 . S
C484 C485 1.524 1_455 S
C484 H503 0.913 . S
C485 H461 0.950 . S
C485 C484 1.524 1_655 S
C485 C486 1.415 . S
C486 H462 0.950 . S
C486 C481 1.363 . S
C486 C485 1.415 . S
C487 H463 0.951 . S
C487 C488 1.366 . S
C487 C489 1.388 . S
C488 C487 1.366 . S
C488 C492 1.385 . S
C489 H464 0.951 . S
C489 C487 1.388 . S
C489 C490 1.366 . S
C490 C489 1.366 . S
C490 C491 1.414 . S
C490 C493 1.499 . S
C491 H465 0.950 . S
C491 C490 1.414 . S
C491 C492 1.374 . S
C492 H466 0.950 . S
C492 C488 1.385 . S
C492 C491 1.374 . S
C493 C490 1.499 . S
C493 C494 1.373 . S
C493 C495 1.389 . S
C494 H467 0.950 . S
C494 C480 1.377 . S
C494 C493 1.373 . S
C495 C479 1.377 . S
C495 C493 1.389 . S
C495 C496 1.524 . S
C496 C495 1.524 . S
C496 C497 1.397 . S
C496 C501 1.363 . S
C497 H468 0.950 . S
C497 C496 1.397 . S
C497 C498 1.334 . S
C498 H469 0.950 . S
C498 C497 1.334 . S
C498 C499 1.287 . S
C499 C498 1.287 . S
C499 C500 1.524 . S
C499 H502 0.999 . S
C500 H470 0.950 . S
C500 C499 1.524 . S
C500 C501 1.415 . S
C501 H471 0.950 . S
C501 C496 1.363 . S
C501 C500 1.415 . S
H502 C499 0.999 . S
H503 C484 0.913 . S
H504 C522 0.951 . S
H505 C524 0.951 . S
H506 C526 0.950 . S
H507 C527 0.950 . S
H508 C529 0.950 . S
H509 C532 0.950 . S
H510 C533 0.950 . S
H511 C535 0.950 . S
H512 C536 0.950 . S
H513 C537 0.951 . S
H514 C539 0.951 . S
H515 C541 0.950 . S
H516 C542 0.950 . S
H517 C544 0.950 . S
H518 C547 0.950 . S
H519 C548 0.950 . S
H520 C550 0.950 1_655 S
H521 C551 0.950 . S
C522 H504 0.951 . S
C522 C523 1.366 . S
C522 C524 1.388 1_545 S
C523 C522 1.366 . S
C523 C527 1.385 . S
C524 H505 0.951 . S
C524 C522 1.388 1_565 S
C524 C525 1.366 . S
C525 C524 1.366 . S
C525 C526 1.414 1_565 S
C525 C528 1.499 . S
C526 H506 0.950 . S
C526 C525 1.414 1_545 S
C526 C527 1.374 . S
C527 H507 0.950 . S
C527 C523 1.385 . S
C527 C526 1.374 . S
C528 C525 1.499 . S
C528 C529 1.373 . S
C528 C530 1.389 . S
C529 H508 0.950 . S
C529 C528 1.373 . S
C529 C545 1.377 . S
C530 C528 1.389 . S
C530 C531 1.524 . S
C530 C544 1.377 . S
C531 C530 1.524 . S
C531 C532 1.397 . S
C531 C536 1.363 . S
C532 H509 0.950 . S
C532 C531 1.397 . S
C532 C533 1.334 . S
C533 H510 0.950 . S
C533 C532 1.334 . S
C533 C534 1.287 . S
C534 C533 1.287 . S
C534 C535 1.524 . S
C534 H553 0.913 . S
C535 H511 0.950 . S
C535 C534 1.524 . S
C535 C536 1.415 . S
C536 H512 0.950 . S
C536 C531 1.363 . S
C536 C535 1.415 . S
C537 H513 0.951 . S
C537 C538 1.366 . S
C537 C539 1.388 . S
C538 C537 1.366 . S
C538 C542 1.385 . S
C539 H514 0.951 . S
C539 C537 1.388 . S
C539 C540 1.366 1_655 S
C540 C539 1.366 1_455 S
C540 C541 1.414 . S
C540 C543 1.499 . S
C541 H515 0.950 . S
C541 C540 1.414 . S
C541 C542 1.374 1_455 S
C542 H516 0.950 . S
C542 C538 1.385 . S
C542 C541 1.374 1_655 S
C543 C540 1.499 . S
C543 C544 1.373 . S
C543 C545 1.389 . S
C544 H517 0.950 . S
C544 C530 1.377 . S
C544 C543 1.373 . S
C545 C529 1.377 . S
C545 C543 1.389 . S
C545 C546 1.524 . S
C546 C545 1.524 . S
C546 C547 1.397 . S
C546 C551 1.363 . S
C547 H518 0.950 . S
C547 C546 1.397 . S
C547 C548 1.334 . S
C548 H519 0.950 . S
C548 C547 1.334 . S
C548 C549 1.287 1_455 S
C549 C548 1.287 1_655 S
C549 C550 1.524 1_655 S
C549 H552 0.999 . S
C550 H520 0.950 1_455 S
C550 C549 1.524 1_455 S
C550 C551 1.415 . S
C551 H521 0.950 . S
C551 C546 1.363 . S
C551 C550 1.415 . S
H552 C549 0.999 . S
H553 C534 0.913 . S
H554 C572 0.951 . S
H555 C574 0.951 . S
H556 C576 0.950 . S
H557 C577 0.950 . S
H558 C579 0.950 . S
H559 C582 0.950 . S
H560 C583 0.950 . S
H561 C585 0.950 . S
H562 C586 0.950 . S
H563 C587 0.951 . S
H564 C589 0.951 . S
H565 C591 0.950 . S
H566 C592 0.950 . S
H567 C594 0.950 . S
H568 C597 0.950 . S
H569 C598 0.950 1_565 S
H570 C600 0.950 . S
H571 C601 0.950 . S
C572 H554 0.951 . S
C572 C573 1.366 . S
C572 C574 1.388 . S
C573 C572 1.366 . S
C573 C577 1.385 . S
C574 H555 0.951 . S
C574 C572 1.388 . S
C574 C575 1.366 . S
C575 C574 1.366 . S
C575 C576 1.414 . S
C575 C578 1.499 . S
C576 H556 0.950 . S
C576 C575 1.414 . S
C576 C577 1.374 . S
C577 H557 0.950 . S
C577 C573 1.385 . S
C577 C576 1.374 . S
C578 C575 1.499 . S
C578 C579 1.373 . S
C578 C580 1.389 . S
C579 H558 0.950 . S
C579 C578 1.373 . S
C579 C595 1.377 . S
C580 C578 1.389 . S
C580 C581 1.524 . S
C580 C594 1.377 . S
C581 C580 1.524 . S
C581 C582 1.397 . S
C581 C586 1.363 . S
C582 H559 0.950 . S
C582 C581 1.397 . S
C582 C583 1.334 . S
C583 H560 0.950 . S
C583 C582 1.334 . S
C583 C584 1.287 . S
C584 C583 1.287 . S
C584 C585 1.524 . S
C584 H603 0.913 . S
C585 H561 0.950 . S
C585 C584 1.524 . S
C585 C586 1.415 . S
C586 H562 0.950 . S
C586 C581 1.363 . S
C586 C585 1.415 . S
C587 H563 0.951 . S
C587 C588 1.366 . S
C587 C589 1.388 1_565 S
C588 C587 1.366 . S
C588 C592 1.385 . S
C589 H564 0.951 . S
C589 C587 1.388 1_545 S
C589 C590 1.366 . S
C590 C589 1.366 . S
C590 C591 1.414 1_545 S
C590 C593 1.499 . S
C591 H565 0.950 . S
C591 C590 1.414 1_565 S
C591 C592 1.374 . S
C592 H566 0.950 . S
C592 C588 1.385 . S
C592 C591 1.374 . S
C593 C590 1.499 . S
C593 C594 1.373 . S
C593 C595 1.389 . S
C594 H567 0.950 . S
C594 C580 1.377 . S
C594 C593 1.373 . S
C595 C579 1.377 . S
C595 C593 1.389 . S
C595 C596 1.524 . S
C596 C595 1.524 . S
C596 C597 1.397 . S
C596 C601 1.363 . S
C597 H568 0.950 . S
C597 C596 1.397 . S
C597 C598 1.334 . S
C598 H569 0.950 1_545 S
C598 C597 1.334 . S
C598 C599 1.287 . S
C599 C598 1.287 . S
C599 C600 1.524 . S
C599 H602 0.999 . S
C600 H570 0.950 . S
C600 C599 1.524 . S
C600 C601 1.415 . S
C601 H571 0.950 . S
C601 C596 1.363 . S
C601 C600 1.415 . S
H602 C599 0.999 . S
H603 C584 0.913 . S
H604 C622 0.951 . S
H605 C624 0.951 . S
H606 C626 0.950 . S
H607 C627 0.950 . S
H608 C629 0.950 . S
H609 C632 0.950 . S
H610 C633 0.950 . S
H611 C635 0.950 . S
H612 C636 0.950 . S
H613 C637 0.951 . S
H614 C639 0.951 . S
H615 C641 0.950 . S
H616 C642 0.950 . S
H617 C644 0.950 . S
H618 C647 0.950 . S
H619 C648 0.946 1_655 S
H620 C650 0.950 . S
H621 C651 0.950 . S
C622 H604 0.951 . S
C622 C623 1.366 . S
C622 C624 1.388 . S
C623 C622 1.366 . S
C623 C627 1.385 . S
C624 H605 0.951 . S
C624 C622 1.388 . S
C624 C625 1.366 . S
C625 C624 1.366 . S
C625 C626 1.414 . S
C625 C628 1.499 . S
C626 H606 0.950 . S
C626 C625 1.414 . S
C626 C627 1.374 . S
C627 H607 0.950 . S
C627 C623 1.385 . S
C627 C626 1.374 . S
C628 C625 1.499 . S
C628 C629 1.373 . S
C628 C630 1.389 . S
C629 H608 0.950 . S
C629 C628 1.373 . S
C629 C645 1.377 . S
C630 C628 1.389 . S
C630 C631 1.524 . S
C630 C644 1.377 . S
C631 C630 1.524 . S
C631 C632 1.397 . S
C631 C636 1.363 . S
C632 H609 0.950 . S
C632 C631 1.397 . S
C632 C633 1.334 . S
C633 H610 0.950 . S
C633 C632 1.334 . S
C633 C634 1.287 . S
C634 C633 1.287 . S
C634 C635 1.524 . S
C634 H653 0.913 . S
C635 H611 0.950 . S
C635 C634 1.524 . S
C635 C636 1.415 . S
C636 H612 0.950 . S
C636 C631 1.363 . S
C636 C635 1.415 . S
C637 H613 0.951 . S
C637 C638 1.366 . S
C637 C639 1.388 1_655 S
C638 C637 1.366 . S
C638 C642 1.385 . S
C639 H614 0.951 . S
C639 C637 1.388 1_455 S
C639 C640 1.366 . S
C640 C639 1.366 . S
C640 C641 1.414 1_455 S
C640 C643 1.499 . S
C641 H615 0.950 . S
C641 C640 1.414 1_655 S
C641 C642 1.374 . S
C642 H616 0.950 . S
C642 C638 1.385 . S
C642 C641 1.374 . S
C643 C640 1.499 . S
C643 C644 1.373 . S
C643 C645 1.389 . S
C644 H617 0.950 . S
C644 C630 1.377 . S
C644 C643 1.373 . S
C645 C629 1.377 . S
C645 C643 1.389 . S
C645 C646 1.524 . S
C646 C645 1.524 . S
C646 C647 1.397 . S
C646 C651 1.363 . S
C647 H618 0.950 . S
C647 C646 1.397 . S
C647 C648 1.338 . S
C648 H619 0.946 1_455 S
C648 C647 1.338 . S
C648 C649 1.287 . S
C649 C648 1.287 . S
C649 C650 1.524 . S
C649 H652 0.999 1_455 S
C650 H620 0.950 . S
C650 C649 1.524 . S
C650 C651 1.415 . S
C651 H621 0.950 . S
C651 C646 1.363 . S
C651 C650 1.415 . S
H652 C649 0.999 1_655 S
H653 C634 0.913 . S
H654 C672 0.951 . S
H655 C674 0.951 . S
H656 C676 0.950 . S
H657 C677 0.950 . S
H658 C679 0.950 . S
H659 C682 0.950 . S
H660 C683 0.950 . S
H661 C685 0.950 . S
H662 C686 0.950 . S
H663 C687 0.951 . S
H664 C689 0.950 . S
H665 C691 0.950 . S
H666 C692 0.950 . S
H667 C694 0.950 . S
H668 C697 0.950 . S
H669 C698 0.950 . S
H670 C700 0.950 . S
H671 C701 0.950 . S
C672 H654 0.951 . S
C672 C673 1.366 . S
C672 C674 1.388 1_455 S
C673 C672 1.366 . S
C673 C677 1.385 . S
C674 H655 0.951 . S
C674 C672 1.388 1_655 S
C674 C675 1.366 . S
C675 C674 1.366 . S
C675 C676 1.414 1_655 S
C675 C678 1.499 . S
C676 H656 0.950 . S
C676 C675 1.414 1_455 S
C676 C677 1.374 . S
C677 H657 0.950 . S
C677 C673 1.385 . S
C677 C676 1.374 . S
C678 C675 1.499 . S
C678 C679 1.373 . S
C678 C680 1.389 . S
C679 H658 0.950 . S
C679 C678 1.373 . S
C679 C695 1.377 . S
C680 C678 1.389 . S
C680 C681 1.524 . S
C680 C694 1.377 . S
C681 C680 1.524 . S
C681 C682 1.397 . S
C681 C686 1.363 . S
C682 H659 0.950 . S
C682 C681 1.397 . S
C682 C683 1.334 . S
C683 H660 0.950 . S
C683 C682 1.334 . S
C683 C684 1.287 . S
C684 C683 1.287 . S
C684 C685 1.524 . S
C684 H703 0.913 . S
C685 H661 0.950 . S
C685 C684 1.524 . S
C685 C686 1.415 . S
C686 H662 0.950 . S
C686 C681 1.363 . S
C686 C685 1.415 . S
C687 H663 0.951 . S
C687 C688 1.366 . S
C687 C689 1.382 1_565 S
C688 C687 1.366 . S
C688 C692 1.385 . S
C689 H664 0.950 . S
C689 C687 1.382 1_545 S
C689 C690 1.372 . S
C690 C689 1.372 . S
C690 C691 1.414 . S
C690 C693 1.499 . S
C691 H665 0.950 . S
C691 C690 1.414 . S
C691 C692 1.374 1_545 S
C692 H666 0.950 . S
C692 C688 1.385 . S
C692 C691 1.374 1_565 S
C693 C690 1.499 . S
C693 C694 1.373 . S
C693 C695 1.389 . S
C694 H667 0.950 . S
C694 C680 1.377 . S
C694 C693 1.373 . S
C695 C679 1.377 . S
C695 C693 1.389 . S
C695 C696 1.524 . S
C696 C695 1.524 . S
C696 C697 1.397 1_545 S
C696 C701 1.363 . S
C697 H668 0.950 . S
C697 C696 1.397 1_565 S
C697 C698 1.334 . S
C698 H669 0.950 . S
C698 C697 1.334 . S
C698 C699 1.287 . S
C699 C698 1.287 . S
C699 C700 1.524 . S
C699 H702 0.999 . S
C700 H670 0.950 . S
C700 C699 1.524 . S
C700 C701 1.415 1_565 S
C701 H671 0.950 . S
C701 C696 1.363 . S
C701 C700 1.415 1_545 S
H702 C699 0.999 . S
H703 C684 0.913 . S
C123 C97 0.512 . S
C138 C39 0.511 . S
C173 C88 2.232 . S
C188 C18 2.203 . S
C223 C36 1.837 . S
C238 C70 1.824 . S
C273 C84 2.837 . S
C288 C50 2.838 . S
C323 C32 1.795 . S
C338 C102 1.781 . S
C373 C45 1.545 . S
C388 C91 1.546 . S
C423 C4 1.253 . S
C438 C42 1.261 . S
C473 C86 0.591 . S
C488 C82 0.591 . S
C523 C48 1.338 . S
C538 C26 1.347 . S
C573 C56 1.253 . S
C588 C94 1.261 . S
C623 C34 0.593 . S
C638 C30 0.592 . S
C673 C100 1.339 . S
C688 C78 1.347 . S
