# Generated by pormake.
# Topology sxb, (6)-cn, num edge types: 1
# Building blocks:
#     Node 0, Type 0, BuildingBlock: BETDEL_clean_sbu_0, # of connection points: 6
#     Node 1, Type 0, BuildingBlock: BETDEL_clean_sbu_0, # of connection points: 6
#     Node 2, Type 0, BuildingBlock: BETDEL_clean_sbu_0, # of connection points: 6
#     Node 3, Type 0, BuildingBlock: BETDEL_clean_sbu_0, # of connection points: 6
#     Edge 4, Type (0, 0), BuildingBlock: FUNLAD_clean_linker_1, # of connection points: 2
#     Edge 5, Type (0, 0), BuildingBlock: FUNLAD_clean_linker_1, # of connection points: 2
#     Edge 6, Type (0, 0), BuildingBlock: FUNLAD_clean_linker_1, # of connection points: 2
#     Edge 7, Type (0, 0), BuildingBlock: FUNLAD_clean_linker_1, # of connection points: 2
#     Edge 8, Type (0, 0), BuildingBlock: FUNLAD_clean_linker_1, # of connection points: 2
#     Edge 9, Type (0, 0), BuildingBlock: FUNLAD_clean_linker_1, # of connection points: 2
#     Edge 10, Type (0, 0), BuildingBlock: FUNLAD_clean_linker_1, # of connection points: 2
#     Edge 11, Type (0, 0), BuildingBlock: FUNLAD_clean_linker_1, # of connection points: 2
#     Edge 12, Type (0, 0), BuildingBlock: FUNLAD_clean_linker_1, # of connection points: 2
#     Edge 13, Type (0, 0), BuildingBlock: FUNLAD_clean_linker_1, # of connection points: 2
#     Edge 14, Type (0, 0), BuildingBlock: FUNLAD_clean_linker_1, # of connection points: 2
#     Edge 15, Type (0, 0), BuildingBlock: FUNLAD_clean_linker_1, # of connection points: 2
# Relax obj value: 0.055
# Max RMSD: 0.034
# Mean RMSD: 0.034
data_MOF--net-sxb--node1-BETDEL_clean_sbu_0--edge1-FUNLAD_clean_linker_1
_symmetry_space_group_name_H-M    P1
_symmetry_Int_Tables_number       1
_symmetry_cell_setting            triclinic
loop_
_symmetry_equiv_pos_as_xyz
'x, y, z'
_cell_length_a     16.678942
_cell_length_b     30.214271
_cell_length_c     30.862438
_cell_angle_alpha  92.270903
_cell_angle_beta   94.969799
_cell_angle_gamma 83.030567
loop_
_atom_site_label
_atom_site_type_symbol
_atom_site_fract_x
_atom_site_fract_y
_atom_site_fract_z
_atom_type_partial_charge
Dy0 Dy 0.99051 0.99748 0.99093 0.0
C1 C 0.27411 0.07535 0.99866 0.0
C2 C 0.8476 0.96555 0.99895 0.0
Dy3 Dy 0.13034 0.0431 0.00306 0.0
O4 O 0.88429 0.96351 0.96355 0.0
O5 O 0.88873 0.98527 0.02991 0.0
O6 O 1.02233 0.9731 0.92473 0.0
O7 O 0.044 0.03799 0.94583 0.0
C8 C 0.05097 0.00914 0.91504 0.0
C9 C 0.06959 0.02897 0.07854 0.0
O10 O 0.04534 0.10432 0.98924 0.0
O11 O 0.93193 0.07044 0.99832 0.0
O12 O 0.2319 0.07977 0.0321 0.0
O13 O 0.23785 0.05318 0.96758 0.0
O14 O 0.09851 0.06537 0.07038 0.0
O15 O 0.07737 1.00139 0.04702 0.0
O16 O 0.07968 0.93568 0.00257 0.0
O17 O 0.19072 0.97211 0.99462 0.0
C18 C 0.96711 0.10719 0.99385 0.0
C19 C 0.15834 0.9346 0.99839 0.0
Dy20 Dy 1.02677 0.95456 0.49041 0.0
C21 C 0.07857 0.13554 0.48253 0.0
C22 C 0.98071 0.8718 0.50158 0.0
Dy23 Dy 0.03509 0.053 0.49673 0.0
O24 O 0.02764 0.8812 0.47261 0.0
O25 O 0.96302 0.90698 0.52603 0.0
O26 O 0.05829 0.95036 0.42116 0.0
O27 O 0.99273 1.00877 0.44478 0.0
C28 C 0.02923 0.99125 0.41303 0.0
C29 C 0.03173 0.01632 0.57409 0.0
O30 O 0.89671 0.0558 0.48769 0.0
O31 O 0.89287 0.98021 0.49582 0.0
O32 O 0.06314 0.12171 0.51989 0.0
O33 O 0.0659 0.10521 0.4526 0.0
O34 O 0.99826 0.05631 0.56469 0.0
O35 O 0.06998 0.99882 0.54275 0.0
O36 O 0.16471 0.95268 0.50321 0.0
O37 O 0.16843 0.02716 0.48986 0.0
C38 C 0.85473 0.02133 0.49178 0.0
C39 C 0.20683 0.98653 0.49674 0.0
Dy40 Dy 0.43879 0.48587 0.00837 0.0
C41 C 0.71786 0.55038 0.96695 0.0
C42 C 0.29498 0.46081 0.02684 0.0
Dy43 Dy 0.59044 0.52617 0.00506 0.0
O44 O 0.34222 0.43992 0.99967 0.0
O45 O 0.32655 0.49522 0.04397 0.0
O46 O 0.44779 0.45949 0.9387 0.0
O47 O 0.48892 0.52017 0.95765 0.0
C48 C 0.48457 0.49181 0.92679 0.0
C49 C 0.58021 0.51412 0.09037 0.0
O50 O 0.50401 0.59046 0.00246 0.0
O51 O 0.38698 0.55848 0.01085 0.0
O52 O 0.68427 0.5723 0.99906 0.0
O53 O 0.68161 0.51547 0.95597 0.0
O54 O 0.63925 0.53079 0.07461 0.0
O55 O 0.5289 0.50394 0.05977 0.0
O56 O 0.52681 0.42759 0.02984 0.0
O57 O 0.63332 0.45147 0.99849 0.0
C58 C 0.42489 0.59414 0.00711 0.0
C59 C 0.59948 0.41925 0.01546 0.0
Dy60 Dy 0.50012 0.4694 0.50704 0.0
C61 C 0.54826 0.64764 0.50137 0.0
C62 C 0.46075 0.38551 0.52043 0.0
Dy63 Dy 0.5036 0.56405 0.51086 0.0
O64 O 0.47203 0.40084 0.48308 0.0
O65 O 0.47446 0.41528 0.55069 0.0
O66 O 0.54862 0.46401 0.44125 0.0
O67 O 0.46695 0.52004 0.45641 0.0
C68 C 0.51087 0.50165 0.42752 0.0
C69 C 0.48599 0.5327 0.58939 0.0
O70 O 0.36737 0.566 0.4932 0.0
O71 O 0.36481 0.49306 0.51115 0.0
O72 O 0.50308 0.63703 0.53058 0.0
O73 O 0.56496 0.61327 0.47581 0.0
O74 O 0.45079 0.57034 0.57488 0.0
O75 O 0.53353 0.51377 0.56229 0.0
O76 O 0.63772 0.46625 0.5186 0.0
O77 O 0.63941 0.54127 0.50918 0.0
C78 C 0.32537 0.53271 0.50116 0.0
C79 C 0.67898 0.50078 0.51447 0.0
H80 H 0.30961 0.6387 0.00965 0.0
C81 C 0.37419 0.63878 0.00712 0.0
H82 H 0.46657 0.6793 0.00063 0.0
H83 H 0.24577 0.84867 0.92469 0.0
H84 H 0.32298 0.82289 0.86388 0.0
H85 H 0.41187 0.75148 0.86609 0.0
H86 H 0.4239 0.7052 0.92916 0.0
C87 C 0.40262 0.67867 0.00451 0.0
C88 C 0.34806 0.72283 0.00389 0.0
C89 C 0.34218 0.75044 0.96715 0.0
C90 C 0.2913 0.79233 0.9661 0.0
C91 C 0.2849 0.81757 0.92802 0.0
C92 C 0.3285 0.80296 0.89261 0.0
C93 C 0.37851 0.76273 0.89384 0.0
C94 C 0.38511 0.73655 0.93041 0.0
H95 H 0.27783 0.89356 0.99761 0.0
C96 C 0.21357 0.89147 0.999 0.0
H97 H 0.125 0.84807 0.00353 0.0
H98 H 0.3519 0.6828 0.08214 0.0
H99 H 0.27576 0.70895 0.14328 0.0
H100 H 0.18559 0.77991 0.14072 0.0
H101 H 0.17158 0.82551 0.07708 0.0
C102 C 0.18879 0.85053 0.00078 0.0
C103 C 0.24649 0.80753 0.00215 0.0
C104 C 0.25318 0.78019 0.03909 0.0
C105 C 0.30433 0.73842 0.04023 0.0
C106 C 0.31203 0.71364 0.07866 0.0
C107 C 0.26916 0.7285 0.11426 0.0
C108 C 0.21847 0.76849 0.11284 0.0
C109 C 0.21069 0.79425 0.07596 0.0
H110 H 0.61308 0.34983 0.03784 0.0
C111 C 0.64045 0.37225 0.01843 0.0
H112 H 0.73006 0.37613 0.97497 0.0
H113 H 0.8803 0.18784 0.07454 0.0
H114 H 0.90178 0.23535 0.1386 0.0
H115 H 0.84994 0.31534 0.13848 0.0
H116 H 0.77498 0.34827 0.07455 0.0
C117 C 0.70464 0.35503 0.9966 0.0
C118 C 0.73691 0.30582 0.9972 0.0
C119 C 0.78214 0.28675 0.03451 0.0
C120 C 0.81472 0.24054 0.03406 0.0
C121 C 0.85681 0.22273 0.07247 0.0
C122 C 0.86912 0.24959 0.10961 0.0
C123 C 0.83973 0.29462 0.10958 0.0
C124 C 0.79666 0.31311 0.07264 0.0
H125 H 0.96038 0.18056 0.99739 0.0
C126 C 0.92275 0.15346 0.99545 0.0
H127 H 0.80212 0.13851 0.98992 0.0
H128 H 0.652 0.32975 0.92053 0.0
H129 H 0.63112 0.28235 0.85628 0.0
H130 H 0.68856 0.2032 0.85521 0.0
H131 H 0.7675 0.17078 0.91832 0.0
C132 C 0.84166 0.16459 0.99447 0.0
C133 C 0.80414 0.21302 0.99595 0.0
C134 C 0.75753 0.2319 0.95898 0.0
C135 C 0.72454 0.27801 0.95953 0.0
C136 C 0.67886 0.29533 0.92186 0.0
C137 C 0.66624 0.26845 0.88477 0.0
C138 C 0.69854 0.22386 0.88417 0.0
C139 C 0.74371 0.20565 0.92068 0.0
H140 H 0.13928 0.17933 0.44381 0.0
C141 C 0.12255 0.17413 0.47632 0.0
H142 H 0.13749 0.19198 0.54287 0.0
H143 H 0.47801 0.26019 0.54148 0.0
H144 H 0.50798 0.19541 0.5865 0.0
H145 H 0.40413 0.14548 0.59467 0.0
H146 H 0.26988 0.15994 0.55793 0.0
C147 C 0.15126 0.19877 0.51017 0.0
C148 C 0.21299 0.23003 0.50544 0.0
C149 C 0.29132 0.2215 0.52772 0.0
C150 C 0.35126 0.25058 0.52336 0.0
C151 C 0.42954 0.24012 0.54469 0.0
C152 C 0.44783 0.20277 0.57035 0.0
C153 C 0.38939 0.17464 0.57492 0.0
C154 C 0.31223 0.18354 0.55376 0.0
H155 H 0.40242 0.34047 0.55903 0.0
C156 C 0.4197 0.34581 0.52666 0.0
H157 H 0.40897 0.32684 0.4603 0.0
H158 H 0.06731 0.25908 0.4615 0.0
H159 H 0.03916 0.32233 0.41442 0.0
H160 H 0.14511 0.37036 0.40419 0.0
H161 H 0.27781 0.35692 0.4422 0.0
C162 C 0.39393 0.32024 0.49281 0.0
C163 C 0.33284 0.2885 0.49702 0.0
C164 C 0.25498 0.29664 0.47422 0.0
C165 C 0.19469 0.2679 0.47898 0.0
C166 C 0.1164 0.27851 0.45765 0.0
C167 C 0.09908 0.31503 0.43085 0.0
C168 C 0.15844 0.34226 0.42528 0.0
C169 C 0.23501 0.33379 0.44707 0.0
H170 H 0.95707 0.80465 0.47651 0.0
C171 C 0.93837 0.83134 0.49944 0.0
H172 H 0.85049 0.85668 0.54228 0.0
H173 H 0.61535 0.73893 0.41719 0.0
H174 H 0.61347 0.79934 0.36736 0.0
H175 H 0.70335 0.85814 0.38275 0.0
H176 H 0.79628 0.85676 0.44773 0.0
C177 C 0.87079 0.82971 0.51999 0.0
C178 C 0.81733 0.7936 0.51025 0.0
C179 C 0.7627 0.79505 0.47223 0.0
C180 C 0.70988 0.76143 0.46359 0.0
C181 C 0.65656 0.76362 0.42528 0.0
C182 C 0.65476 0.79814 0.39647 0.0
C183 C 0.70542 0.83123 0.40512 0.0
C184 C 0.75873 0.82994 0.44251 0.0
H185 H 0.57201 0.7143 0.52784 0.0
C186 C 0.59028 0.68822 0.50421 0.0
H187 H 0.67701 0.66423 0.46027 0.0
H188 H 0.91233 0.78148 0.58638 0.0
H189 H 0.91312 0.72149 0.63663 0.0
H190 H 0.82204 0.6632 0.6216 0.0
H191 H 0.73055 0.66401 0.55622 0.0
C192 C 0.65726 0.69056 0.48335 0.0
C193 C 0.71038 0.72679 0.4933 0.0
C194 C 0.76475 0.72545 0.53143 0.0
C195 C 0.81774 0.75901 0.54001 0.0
C196 C 0.87093 0.75687 0.57838 0.0
C197 C 0.8721 0.7226 0.60742 0.0
C198 C 0.82094 0.68972 0.59893 0.0
C199 C 0.76822 0.69077 0.56134 0.0
H200 H 0.38745 0.08955 0.03352 0.0
C201 C 0.36002 0.08052 0.00163 0.0
H202 H 0.37865 0.05112 0.93984 0.0
H203 H 0.7403 0.05887 0.05471 0.0
H204 H 0.71423 0.13923 0.05131 0.0
H205 H 0.58684 0.17531 0.01502 0.0
H206 H 0.483 0.13093 0.9837 0.0
C207 C 0.4064 0.06153 0.97118 0.0
C208 C 0.48812 0.04012 0.98555 0.0
C209 C 0.54893 0.06645 0.00236 0.0
C210 C 0.6232 0.04552 0.02187 0.0
C211 C 0.68264 0.0727 0.03919 0.0
C212 C 0.66867 0.11901 0.03731 0.0
C213 C 0.59677 0.13935 0.01712 0.0
C214 C 0.53751 0.11352 0.99959 0.0
H215 H 0.73002 0.95292 0.96819 0.0
C216 C 0.76214 0.96019 0.99936 0.0
H217 H 0.75308 0.98553 0.06349 0.0
H218 H 0.38174 0.97952 0.95797 0.0
H219 H 0.40696 0.89927 0.96288 0.0
H220 H 0.537 0.86321 0.99628 0.0
H221 H 0.643 0.90765 0.02473 0.0
C222 C 0.72089 0.97694 0.03277 0.0
C223 C 0.6373 0.99825 0.02271 0.0
C224 C 0.57589 0.97199 0.00677 0.0
C225 C 0.50112 0.99289 0.98787 0.0
C226 C 0.44036 0.96573 0.97238 0.0
C227 C 0.4538 0.91946 0.97516 0.0
C228 C 0.52708 0.89914 0.99385 0.0
C229 C 0.58754 0.92495 0.00971 0.0
H230 H 0.32742 0.94431 0.50014 0.0
C231 C 0.29938 0.97857 0.49757 0.0
H232 H 0.31989 0.04535 0.49161 0.0
H233 H 0.69745 0.96303 0.56638 0.0
H234 H 0.6372 0.93342 0.62585 0.0
H235 H 0.48894 0.93787 0.62689 0.0
H236 H 0.39958 0.97132 0.5682 0.0
C237 C 0.34905 0.01139 0.49512 0.0
C238 C 0.44245 1.00504 0.49403 0.0
C239 C 0.49568 0.98601 0.52891 0.0
C240 C 0.58276 0.98428 0.52872 0.0
C241 C 0.63206 0.96492 0.56434 0.0
C242 C 0.59823 0.94804 0.59895 0.0
C243 C 0.5147 0.95051 0.59951 0.0
C244 C 0.46392 0.9695 0.56528 0.0
H245 H 0.73414 0.06347 0.48995 0.0
C246 C 0.76226 0.02916 0.49144 0.0
H247 H 0.74178 0.96209 0.49564 0.0
H248 H 0.36458 0.04381 0.42145 0.0
H249 H 0.42494 0.07351 0.36209 0.0
H250 H 0.57317 0.06973 0.36147 0.0
H251 H 0.66241 0.0367 0.42041 0.0
C252 C 0.7127 0.99616 0.49303 0.0
C253 C 0.61938 1.00248 0.49425 0.0
C254 C 0.56618 0.02155 0.45939 0.0
C255 C 0.47913 0.02311 0.45949 0.0
C256 C 0.42993 0.04219 0.42369 0.0
C257 C 0.46384 0.05911 0.38911 0.0
C258 C 0.54735 0.057 0.38878 0.0
C259 C 0.59804 0.03822 0.42314 0.0
H260 H 0.83025 0.58075 0.97426 0.0
C261 C 0.80023 0.55462 0.95668 0.0
H262 H 0.81506 0.4915 0.92489 0.0
H263 H 0.19156 0.54082 0.97723 0.0
H264 H 0.17299 0.58323 0.91132 0.0
H265 H 0.04128 0.59142 0.86751 0.0
H266 H 0.92732 0.55695 0.88957 0.0
C267 C 0.84461 0.51875 0.94066 0.0
C268 C 0.92689 0.50733 0.96153 0.0
C269 C 0.99217 0.52759 0.94819 0.0
C270 C 0.06767 0.52265 0.97333 0.0
C271 C 0.13253 0.54332 0.95937 0.0
C272 C 0.12272 0.56783 0.92156 0.0
C273 C 0.04856 0.57248 0.89693 0.0
C274 C 0.98369 0.55272 0.90999 0.0
H275 H 0.18761 0.42784 0.00676 0.0
C276 C 0.20911 0.45569 0.0259 0.0
H277 H 0.1786 0.52027 0.05252 0.0
H278 H 0.81413 0.46102 0.99411 0.0
H279 H 0.83265 0.41826 0.05965 0.0
H280 H 0.96381 0.41062 0.10398 0.0
H281 H 0.07707 0.44622 0.08283 0.0
C282 C 0.15693 0.49092 0.03616 0.0
C283 C 0.07708 0.49712 0.01148 0.0
C284 C 1.01246 0.47579 0.02418 0.0
C285 C 0.93712 0.48051 0.99886 0.0
C286 C 0.87275 0.45905 0.01229 0.0
C287 C 0.88265 0.43416 0.04983 0.0
C288 C 0.95647 0.42986 0.07475 0.0
C289 C 1.02095 0.45034 0.06221 0.0
H290 H 0.20465 0.57455 0.49406 0.0
C291 C 0.23278 0.54072 0.49976 0.0
H292 H 0.21087 0.47472 0.50978 0.0
H293 H 0.86264 0.57022 0.57969 0.0
H294 H 0.94526 0.60818 0.63419 0.0
H295 H 0.09285 0.60419 0.6309 0.0
H296 H 0.15977 0.56214 0.57319 0.0
C297 C 0.18294 0.50886 0.50578 0.0
C298 C 0.08949 0.5163 0.50545 0.0
C299 C 0.04949 0.54084 0.53943 0.0
C300 C 0.96279 0.54288 0.54149 0.0
C301 C 0.92702 0.56773 0.57616 0.0
C302 C 0.97375 0.58961 0.60779 0.0
C303 C 0.05702 0.58729 0.60599 0.0
C304 C 0.09472 0.56311 0.57251 0.0
H305 H 0.80037 0.45945 0.51839 0.0
C306 C 0.77147 0.49345 0.51494 0.0
H307 H 0.79129 0.56041 0.50843 0.0
H308 H 0.13989 0.46844 0.43447 0.0
H309 H 0.05645 0.43328 0.37809 0.0
H310 H 0.90921 0.43621 0.38193 0.0
H311 H 0.84296 0.47557 0.44124 0.0
C312 C 0.82022 0.52627 0.51051 0.0
C313 C 0.91359 0.51983 0.51009 0.0
C314 C 0.95344 0.49591 0.4757 0.0
C315 C 0.0401 0.49402 0.47356 0.0
C316 C 0.07556 0.47057 0.43808 0.0
C317 C 0.02841 0.45022 0.40548 0.0
C318 C 0.94529 0.45205 0.40752 0.0
C319 C 0.908 0.47462 0.44198 0.0
H320 H 1.01469 0.04704 0.36728 0.0
C321 C 1.02577 0.01101 0.36966 0.0
H322 H 0.04733 0.94895 0.33691 0.0
H323 H 0.9203 0.08459 0.17192 0.0
H324 H 0.79868 0.10696 0.20898 0.0
H325 H 0.7852 0.0799 0.28204 0.0
H326 H 0.89337 0.03107 0.31881 0.0
C327 C 0.03641 0.98492 0.33364 0.0
C328 C 0.04233 1.0024 0.28934 0.0
C329 C 0.97701 0.02995 0.26769 0.0
C330 C 0.98351 0.04435 0.22475 0.0
C331 C 0.91825 0.07249 0.2043 0.0
C332 C 0.84801 0.08548 0.22514 0.0
C333 C 0.84052 0.07032 0.26632 0.0
C334 C 0.90369 0.04262 0.28733 0.0
H335 H 0.04408 0.98192 0.12722 0.0
C336 C 0.05494 0.01612 0.12269 0.0
H337 H 0.06869 0.07892 0.15317 0.0
H338 H 0.1803 0.95097 0.32112 0.0
H339 H 0.2995 0.92724 0.28295 0.0
H340 H 0.3086 0.95058 0.20806 0.0
H341 H 0.19847 0.99788 0.17095 0.0
C342 C 0.05952 0.04441 0.15741 0.0
C343 C 0.05344 0.0297 0.20262 0.0
C344 C 0.11847 1.00204 0.22408 0.0
C345 C 0.11304 0.98852 0.26735 0.0
C346 C 0.17993 0.96158 0.28804 0.0
C347 C 0.24922 0.94791 0.2666 0.0
C348 C 0.25436 0.96105 0.22446 0.0
C349 C 0.1903 0.98803 0.20342 0.0
H350 H 0.0479 0.05499 0.86054 0.0
C351 C 0.05819 0.02018 0.86933 0.0
H352 H 0.08135 0.9533 0.8482 0.0
H353 H 0.92796 0.96463 0.65629 0.0
H354 H 0.85365 0.91139 0.68739 0.0
H355 H 0.87216 0.89697 0.7659 0.0
H356 H 0.96489 0.93553 0.81372 0.0
C357 C 0.07121 0.98784 0.83844 0.0
C358 C 0.06223 0.99644 0.79053 0.0
C359 C 1.00717 0.97351 0.76275 0.0
C360 C 0.99599 0.98194 0.71732 0.0
C361 C 0.93962 0.95917 0.69078 0.0
C362 C 0.89619 0.9286 0.70824 0.0
C363 C 0.90666 0.92047 0.75243 0.0
C364 C 0.96079 0.94275 0.77953 0.0
H365 H 0.07862 0.9677 0.62499 0.0
C366 C 0.04553 1.00045 0.61925 0.0
H367 H 0.99082 0.06013 0.64745 0.0
H368 H 0.18499 0.0393 0.83156 0.0
H369 H 0.25847 0.09274 0.80014 0.0
H370 H 0.23199 0.11105 0.72266 0.0
H371 H 0.13284 0.07527 0.67592 0.0
C372 C 1.02086 0.02664 0.65314 0.0
C373 C 0.03909 0.01359 0.69954 0.0
C374 C 0.09534 0.03574 0.72697 0.0
C375 C 0.10843 0.02642 0.77217 0.0
C376 C 0.16919 0.04686 0.79775 0.0
C377 C 0.21268 0.07724 0.77996 0.0
C378 C 0.19791 0.08747 0.73631 0.0
C379 C 0.1405 0.06684 0.70991 0.0
H380 H 0.45183 0.53924 0.37032 0.0
C381 C 0.49889 0.51271 0.38034 0.0
H382 H 0.58764 0.46235 0.3605 0.0
H383 H 0.48488 0.42174 0.16669 0.0
H384 H 0.46643 0.35329 0.20084 0.0
H385 H 0.47278 0.3492 0.2807 0.0
H386 H 0.49837 0.41336 0.32705 0.0
C387 C 0.54227 0.48952 0.34988 0.0
C388 C 0.52659 0.49519 0.30116 0.0
C389 C 0.50908 0.4578 0.27395 0.0
C390 C 0.50342 0.46043 0.22753 0.0
C391 C 0.48854 0.42192 0.20186 0.0
C392 C 0.47793 0.38233 0.22104 0.0
C393 C 0.48168 0.38 0.26602 0.0
C394 C 0.4969 0.41711 0.29227 0.0
H395 H 0.63123 0.51627 0.15843 0.0
C396 C 0.57671 0.51019 0.13827 0.0
H397 H 0.4564 0.49562 0.13902 0.0
H398 H 0.56719 0.57272 0.34155 0.0
H399 H 0.57641 0.64239 0.30736 0.0
H400 H 0.55278 0.64891 0.22778 0.0
H401 H 0.52197 0.58534 0.18172 0.0
C402 C 0.51131 0.50241 0.15841 0.0
C403 C 0.51383 0.50067 0.20759 0.0
C404 C 0.52722 0.53878 0.23473 0.0
C405 C 0.53597 0.53573 0.28121 0.0
C406 C 0.55579 0.57352 0.3066 0.0
C407 C 0.56193 0.61375 0.28732 0.0
C408 C 0.549 0.61737 0.24248 0.0
C409 C 0.53194 0.58048 0.21637 0.0
H410 H 0.41982 0.53234 0.64772 0.0
C411 C 0.47698 0.51971 0.63472 0.0
H412 H 0.59462 0.48741 0.65043 0.0
H413 H 0.43249 0.56413 0.83705 0.0
H414 H 0.42717 0.63742 0.80762 0.0
H415 H 0.47248 0.64687 0.73496 0.0
H416 H 0.52017 0.58279 0.69061 0.0
C417 C 0.53649 0.49982 0.66239 0.0
C418 C 0.52461 0.49487 0.71013 0.0
C419 C 0.50355 0.53284 0.73755 0.0
C420 C 0.48469 0.52761 0.78137 0.0
C421 C 0.45415 0.56603 0.80531 0.0
C422 C 0.44965 0.60844 0.78851 0.0
C423 C 0.4746 0.61375 0.74749 0.0
C424 C 0.5011 0.57657 0.72217 0.0
H425 H 0.54827 0.52302 0.87806 0.0
C426 C 0.50662 0.49872 0.88182 0.0
H427 H 0.43324 0.45341 0.85032 0.0
H428 H 0.56552 0.41502 0.66853 0.0
H429 H 0.58391 0.34196 0.70011 0.0
H430 H 0.56516 0.33337 0.77757 0.0
H431 H 0.52653 0.39758 0.82385 0.0
C432 C 0.47451 0.47778 0.84595 0.0
C433 C 0.49494 0.48459 0.79985 0.0
C434 C 0.52054 0.44688 0.77308 0.0
C435 C 0.53399 0.45194 0.72839 0.0
C436 C 0.55609 0.41329 0.70263 0.0
C437 C 0.56676 0.37109 0.72033 0.0
C438 C 0.55601 0.36624 0.76392 0.0
C439 C 0.53334 0.40348 0.7901 0.0
loop_
_geom_bond_atom_site_label_1
_geom_bond_atom_site_label_2
_geom_bond_distance
_geom_bond_site_symmetry_2
_ccdc_geom_bond_type
Dy0 O4 2.398 . S
Dy0 O5 2.491 1_566 S
Dy0 O6 2.403 . S
Dy0 O7 2.664 1_655 S
Dy0 O11 2.326 1_565 S
Dy0 O15 2.310 1_566 S
Dy0 O16 2.351 1_655 S
C1 O12 1.185 . S
C1 O13 1.355 1_544 S
C2 O4 1.185 . S
C2 O5 1.355 1_566 S
Dy3 O7 2.310 1_544 S
Dy3 O10 2.351 1_455 S
Dy3 O12 2.398 . S
Dy3 O13 2.491 1_544 S
Dy3 O14 2.403 . S
Dy3 O15 2.664 1_455 S
Dy3 O17 2.326 1_545 S
O4 Dy0 2.398 . S
O4 C2 1.185 . S
O5 Dy0 2.491 1_544 S
O5 C2 1.355 1_544 S
O6 Dy0 2.403 . S
O6 C8 1.254 . S
O7 Dy0 2.664 1_455 S
O7 Dy3 2.310 1_566 S
O7 C8 1.268 1_455 S
C8 O6 1.254 . S
C8 O7 1.268 1_655 S
C9 O14 1.254 . S
C9 O15 1.268 1_455 S
O10 Dy3 2.351 1_655 S
O10 C18 1.249 1_554 S
O11 Dy0 2.326 1_545 S
O11 C18 1.267 . S
O12 C1 1.185 . S
O12 Dy3 2.398 . S
O13 C1 1.355 1_566 S
O13 Dy3 2.491 1_566 S
O14 Dy3 2.403 . S
O14 C9 1.254 . S
O15 Dy0 2.310 1_544 S
O15 Dy3 2.664 1_655 S
O15 C9 1.268 1_655 S
O16 Dy0 2.351 1_455 S
O16 C19 1.249 1_556 S
O17 Dy3 2.326 1_565 S
O17 C19 1.267 . S
C18 O10 1.249 1_556 S
C18 O11 1.267 . S
C19 O16 1.249 1_554 S
C19 O17 1.267 . S
Dy20 O24 2.398 1_455 S
Dy20 O25 2.491 1_455 S
Dy20 O26 2.403 1_455 S
Dy20 O27 2.664 1_565 S
Dy20 O31 2.326 1_455 S
Dy20 O35 2.310 1_455 S
Dy20 O36 2.351 . S
C21 O32 1.185 . S
C21 O33 1.355 . S
C22 O24 1.185 . S
C22 O25 1.355 . S
Dy23 O27 2.310 1_655 S
Dy23 O30 2.351 . S
Dy23 O32 2.398 1_655 S
Dy23 O33 2.491 1_655 S
Dy23 O34 2.403 1_655 S
Dy23 O35 2.664 1_545 S
Dy23 O37 2.326 1_655 S
O24 Dy20 2.398 1_655 S
O24 C22 1.185 . S
O25 Dy20 2.491 1_655 S
O25 C22 1.355 . S
O26 Dy20 2.403 1_655 S
O26 C28 1.254 1_655 S
O27 Dy20 2.664 1_545 S
O27 Dy23 2.310 1_455 S
O27 C28 1.268 1_545 S
C28 O26 1.254 1_455 S
C28 O27 1.268 1_565 S
C29 O34 1.254 1_655 S
C29 O35 1.268 1_545 S
O30 Dy23 2.351 . S
O30 C38 1.249 . S
O31 Dy20 2.326 1_655 S
O31 C38 1.267 1_565 S
O32 C21 1.185 . S
O32 Dy23 2.398 1_455 S
O33 C21 1.355 . S
O33 Dy23 2.491 1_455 S
O34 Dy23 2.403 1_455 S
O34 C29 1.254 1_455 S
O35 Dy20 2.310 1_655 S
O35 Dy23 2.664 1_565 S
O35 C29 1.268 1_565 S
O36 Dy20 2.351 . S
O36 C39 1.249 . S
O37 Dy23 2.326 1_455 S
O37 C39 1.267 1_545 S
C38 O30 1.249 . S
C38 O31 1.267 1_545 S
C39 O36 1.249 . S
C39 O37 1.267 1_565 S
Dy40 O44 2.398 . S
Dy40 O45 2.491 1_556 S
Dy40 O46 2.403 . S
Dy40 O47 2.664 . S
Dy40 O51 2.326 . S
Dy40 O55 2.310 1_556 S
Dy40 O56 2.351 . S
C41 O52 1.185 . S
C41 O53 1.355 1_554 S
C42 O44 1.185 . S
C42 O45 1.355 1_556 S
Dy43 O47 2.310 1_554 S
Dy43 O50 2.351 . S
Dy43 O52 2.398 . S
Dy43 O53 2.491 1_554 S
Dy43 O54 2.403 . S
Dy43 O55 2.664 . S
Dy43 O57 2.326 . S
O44 Dy40 2.398 . S
O44 C42 1.185 . S
O45 Dy40 2.491 1_554 S
O45 C42 1.355 1_554 S
O46 Dy40 2.403 . S
O46 C48 1.254 . S
O47 Dy40 2.664 . S
O47 Dy43 2.310 1_556 S
O47 C48 1.268 . S
C48 O46 1.254 . S
C48 O47 1.268 . S
C49 O54 1.254 . S
C49 O55 1.268 . S
O50 Dy43 2.351 . S
O50 C58 1.249 1_554 S
O51 Dy40 2.326 . S
O51 C58 1.267 . S
O52 C41 1.185 . S
O52 Dy43 2.398 . S
O53 C41 1.355 1_556 S
O53 Dy43 2.491 1_556 S
O54 Dy43 2.403 . S
O54 C49 1.254 . S
O55 Dy40 2.310 1_554 S
O55 Dy43 2.664 . S
O55 C49 1.268 . S
O56 Dy40 2.351 . S
O56 C59 1.249 1_556 S
O57 Dy43 2.326 . S
O57 C59 1.267 . S
C58 O50 1.249 1_556 S
C58 O51 1.267 . S
C59 O56 1.249 1_554 S
C59 O57 1.267 . S
Dy60 O64 2.398 . S
Dy60 O65 2.491 . S
Dy60 O66 2.403 . S
Dy60 O67 2.664 . S
Dy60 O71 2.326 . S
Dy60 O75 2.310 . S
Dy60 O76 2.351 . S
C61 O72 1.185 . S
C61 O73 1.355 . S
C62 O64 1.185 . S
C62 O65 1.355 . S
Dy63 O67 2.310 . S
Dy63 O70 2.351 . S
Dy63 O72 2.398 . S
Dy63 O73 2.491 . S
Dy63 O74 2.403 . S
Dy63 O75 2.664 . S
Dy63 O77 2.326 . S
O64 Dy60 2.398 . S
O64 C62 1.185 . S
O65 Dy60 2.491 . S
O65 C62 1.355 . S
O66 Dy60 2.403 . S
O66 C68 1.254 . S
O67 Dy60 2.664 . S
O67 Dy63 2.310 . S
O67 C68 1.268 . S
C68 O66 1.254 . S
C68 O67 1.268 . S
C69 O74 1.254 . S
C69 O75 1.268 . S
O70 Dy63 2.351 . S
O70 C78 1.249 . S
O71 Dy60 2.326 . S
O71 C78 1.267 . S
O72 C61 1.185 . S
O72 Dy63 2.398 . S
O73 C61 1.355 . S
O73 Dy63 2.491 . S
O74 Dy63 2.403 . S
O74 C69 1.254 . S
O75 Dy60 2.310 . S
O75 Dy63 2.664 . S
O75 C69 1.268 . S
O76 Dy60 2.351 . S
O76 C79 1.249 . S
O77 Dy63 2.326 . S
O77 C79 1.267 . S
C78 O70 1.249 . S
C78 O71 1.267 . S
C79 O76 1.249 . S
C79 O77 1.267 . S
H80 C81 0.951 . S
C81 H80 0.951 . S
C81 C87 1.265 1_554 S
H82 C87 0.950 . S
H83 C91 0.949 . S
H84 C92 0.950 . S
H85 C93 0.951 . S
H86 C94 0.951 . S
C87 C81 1.265 1_556 S
C87 H82 0.950 . S
C87 C88 1.478 . S
C88 C87 1.478 . S
C88 C89 1.400 . S
C88 C105 1.391 1_556 S
C89 C88 1.400 . S
C89 C90 1.438 . S
C89 C94 1.429 . S
C90 C89 1.438 . S
C90 C91 1.428 . S
C90 C103 1.386 1_556 S
C91 H83 0.949 . S
C91 C90 1.428 . S
C91 C92 1.345 . S
C92 H84 0.950 . S
C92 C91 1.345 . S
C92 C93 1.424 . S
C93 H85 0.951 . S
C93 C92 1.424 . S
C93 C94 1.347 . S
C94 H86 0.951 . S
C94 C89 1.429 . S
C94 C93 1.347 . S
H95 C96 0.951 . S
C96 H95 0.951 . S
C96 C102 1.265 1_556 S
H97 C102 0.950 . S
H98 C106 0.949 . S
H99 C107 0.950 . S
H100 C108 0.951 . S
H101 C109 0.951 . S
C102 C96 1.265 1_554 S
C102 H97 0.950 . S
C102 C103 1.479 . S
C103 C90 1.386 1_554 S
C103 C102 1.479 . S
C103 C104 1.405 . S
C104 C103 1.405 . S
C104 C105 1.438 . S
C104 C109 1.429 . S
C105 C88 1.391 1_554 S
C105 C104 1.438 . S
C105 C106 1.428 . S
C106 H98 0.949 . S
C106 C105 1.428 . S
C106 C107 1.345 . S
C107 H99 0.950 . S
C107 C106 1.345 . S
C107 C108 1.424 . S
C108 H100 0.951 . S
C108 C107 1.424 . S
C108 C109 1.347 . S
C109 H101 0.951 . S
C109 C104 1.429 . S
C109 C108 1.347 . S
H110 C111 0.951 . S
C111 H110 0.951 . S
C111 C117 1.265 1_556 S
H112 C117 0.950 . S
H113 C121 0.949 . S
H114 C122 0.950 . S
H115 C123 0.951 . S
H116 C124 0.951 . S
C117 C111 1.265 1_554 S
C117 H112 0.950 . S
C117 C118 1.479 . S
C118 C117 1.479 . S
C118 C119 1.417 . S
C118 C135 1.373 1_554 S
C119 C118 1.417 . S
C119 C120 1.438 . S
C119 C124 1.429 . S
C120 C119 1.438 . S
C120 C121 1.428 . S
C120 C133 1.378 1_554 S
C121 H113 0.949 . S
C121 C120 1.428 . S
C121 C122 1.345 . S
C122 H114 0.950 . S
C122 C121 1.345 . S
C122 C123 1.424 . S
C123 H115 0.951 . S
C123 C122 1.424 . S
C123 C124 1.347 . S
C124 H116 0.951 . S
C124 C119 1.429 . S
C124 C123 1.347 . S
H125 C126 0.951 . S
C126 H125 0.951 . S
C126 C132 1.265 1_554 S
H127 C132 0.950 . S
H128 C136 0.949 . S
H129 C137 0.950 . S
H130 C138 0.951 . S
H131 C139 0.951 . S
C132 C126 1.265 1_556 S
C132 H127 0.950 . S
C132 C133 1.479 . S
C133 C120 1.378 1_556 S
C133 C132 1.479 . S
C133 C134 1.412 . S
C134 C133 1.412 . S
C134 C135 1.438 . S
C134 C139 1.429 . S
C135 C118 1.373 1_556 S
C135 C134 1.438 . S
C135 C136 1.428 . S
C136 H128 0.949 . S
C136 C135 1.428 . S
C136 C137 1.345 . S
C137 H129 0.950 . S
C137 C136 1.345 . S
C137 C138 1.424 . S
C138 H130 0.951 . S
C138 C137 1.424 . S
C138 C139 1.347 . S
C139 H131 0.951 . S
C139 C134 1.429 . S
C139 C138 1.347 . S
H140 C141 0.951 . S
C141 H140 0.951 . S
C141 C147 1.265 . S
H142 C147 0.950 . S
H143 C151 0.949 . S
H144 C152 0.950 . S
H145 C153 0.951 . S
H146 C154 0.951 . S
C147 C141 1.265 . S
C147 H142 0.950 . S
C147 C148 1.478 . S
C148 C147 1.478 . S
C148 C149 1.397 . S
C148 C165 1.394 . S
C149 C148 1.397 . S
C149 C150 1.438 . S
C149 C154 1.429 . S
C150 C149 1.438 . S
C150 C151 1.428 . S
C150 C163 1.394 . S
C151 H143 0.949 . S
C151 C150 1.428 . S
C151 C152 1.345 . S
C152 H144 0.950 . S
C152 C151 1.345 . S
C152 C153 1.424 . S
C153 H145 0.951 . S
C153 C152 1.424 . S
C153 C154 1.347 . S
C154 H146 0.951 . S
C154 C149 1.429 . S
C154 C153 1.347 . S
H155 C156 0.951 . S
C156 H155 0.951 . S
C156 C162 1.265 . S
H157 C162 0.950 . S
H158 C166 0.949 . S
H159 C167 0.950 . S
H160 C168 0.951 . S
H161 C169 0.951 . S
C162 C156 1.265 . S
C162 H157 0.950 . S
C162 C163 1.478 . S
C163 C150 1.394 . S
C163 C162 1.478 . S
C163 C164 1.397 . S
C164 C163 1.397 . S
C164 C165 1.438 . S
C164 C169 1.429 . S
C165 C148 1.394 . S
C165 C164 1.438 . S
C165 C166 1.428 . S
C166 H158 0.949 . S
C166 C165 1.428 . S
C166 C167 1.345 . S
C167 H159 0.950 . S
C167 C166 1.345 . S
C167 C168 1.424 . S
C168 H160 0.951 . S
C168 C167 1.424 . S
C168 C169 1.347 . S
C169 H161 0.951 . S
C169 C164 1.429 . S
C169 C168 1.347 . S
H170 C171 0.951 . S
C171 H170 0.951 . S
C171 C177 1.265 . S
H172 C177 0.950 . S
H173 C181 0.949 . S
H174 C182 0.950 . S
H175 C183 0.951 . S
H176 C184 0.951 . S
C177 C171 1.265 . S
C177 H172 0.950 . S
C177 C178 1.478 . S
C178 C177 1.478 . S
C178 C179 1.397 . S
C178 C195 1.394 . S
C179 C178 1.397 . S
C179 C180 1.438 . S
C179 C184 1.429 . S
C180 C179 1.438 . S
C180 C181 1.428 . S
C180 C193 1.394 . S
C181 H173 0.949 . S
C181 C180 1.428 . S
C181 C182 1.345 . S
C182 H174 0.950 . S
C182 C181 1.345 . S
C182 C183 1.424 . S
C183 H175 0.951 . S
C183 C182 1.424 . S
C183 C184 1.347 . S
C184 H176 0.951 . S
C184 C179 1.429 . S
C184 C183 1.347 . S
H185 C186 0.951 . S
C186 H185 0.951 . S
C186 C192 1.265 . S
H187 C192 0.950 . S
H188 C196 0.949 . S
H189 C197 0.950 . S
H190 C198 0.951 . S
H191 C199 0.951 . S
C192 C186 1.265 . S
C192 H187 0.950 . S
C192 C193 1.478 . S
C193 C180 1.394 . S
C193 C192 1.478 . S
C193 C194 1.397 . S
C194 C193 1.397 . S
C194 C195 1.438 . S
C194 C199 1.429 . S
C195 C178 1.394 . S
C195 C194 1.438 . S
C195 C196 1.428 . S
C196 H188 0.949 . S
C196 C195 1.428 . S
C196 C197 1.345 . S
C197 H189 0.950 . S
C197 C196 1.345 . S
C197 C198 1.424 . S
C198 H190 0.951 . S
C198 C197 1.424 . S
C198 C199 1.347 . S
C199 H191 0.951 . S
C199 C194 1.429 . S
C199 C198 1.347 . S
H200 C201 0.951 . S
C201 H200 0.951 . S
C201 C207 1.265 1_564 S
H202 C207 0.950 . S
H203 C211 0.949 . S
H204 C212 0.950 . S
H205 C213 0.951 . S
H206 C214 0.951 . S
C207 C201 1.265 1_546 S
C207 H202 0.950 . S
C207 C208 1.478 . S
C208 C207 1.478 . S
C208 C209 1.397 1_556 S
C208 C225 1.394 1_545 S
C209 C208 1.397 1_554 S
C209 C210 1.438 . S
C209 C214 1.429 . S
C210 C209 1.438 . S
C210 C211 1.428 . S
C210 C223 1.394 1_545 S
C211 H203 0.949 . S
C211 C210 1.428 . S
C211 C212 1.345 . S
C212 H204 0.950 . S
C212 C211 1.345 . S
C212 C213 1.424 . S
C213 H205 0.951 . S
C213 C212 1.424 . S
C213 C214 1.347 . S
C214 H206 0.951 . S
C214 C209 1.429 . S
C214 C213 1.347 . S
H215 C216 0.951 . S
C216 H215 0.951 . S
C216 C222 1.265 1_546 S
H217 C222 0.950 . S
H218 C226 0.949 . S
H219 C227 0.950 . S
H220 C228 0.951 . S
H221 C229 0.951 . S
C222 C216 1.265 1_564 S
C222 H217 0.950 . S
C222 C223 1.478 . S
C223 C210 1.394 1_565 S
C223 C222 1.478 . S
C223 C224 1.397 1_554 S
C224 C223 1.397 1_556 S
C224 C225 1.438 . S
C224 C229 1.429 . S
C225 C208 1.394 1_565 S
C225 C224 1.438 . S
C225 C226 1.428 . S
C226 H218 0.949 . S
C226 C225 1.428 . S
C226 C227 1.345 . S
C227 H219 0.950 . S
C227 C226 1.345 . S
C227 C228 1.424 . S
C228 H220 0.951 . S
C228 C227 1.424 . S
C228 C229 1.347 . S
C229 H221 0.951 . S
C229 C224 1.429 . S
C229 C228 1.347 . S
H230 C231 0.951 . S
C231 H230 0.951 . S
C231 C237 1.265 1_565 S
H232 C237 0.950 . S
H233 C241 0.949 . S
H234 C242 0.950 . S
H235 C243 0.951 . S
H236 C244 0.951 . S
C237 C231 1.265 1_545 S
C237 H232 0.950 . S
C237 C238 1.477 . S
C238 C237 1.477 . S
C238 C239 1.385 1_545 S
C238 C255 1.407 . S
C239 C238 1.385 1_565 S
C239 C240 1.438 . S
C239 C244 1.429 . S
C240 C239 1.438 . S
C240 C241 1.428 . S
C240 C253 1.402 . S
C241 H233 0.949 . S
C241 C240 1.428 . S
C241 C242 1.345 . S
C242 H234 0.950 . S
C242 C241 1.345 . S
C242 C243 1.424 . S
C243 H235 0.951 . S
C243 C242 1.424 . S
C243 C244 1.347 . S
C244 H236 0.951 . S
C244 C239 1.429 . S
C244 C243 1.347 . S
H245 C246 0.951 . S
C246 H245 0.951 . S
C246 C252 1.260 1_545 S
H247 C252 0.953 . S
H248 C256 0.949 . S
H249 C257 0.950 . S
H250 C258 0.951 . S
H251 C259 0.951 . S
C252 C246 1.260 1_565 S
C252 H247 0.953 . S
C252 C253 1.480 . S
C253 C240 1.402 . S
C253 C252 1.480 . S
C253 C254 1.389 1_565 S
C254 C253 1.389 1_545 S
C254 C255 1.438 . S
C254 C259 1.429 . S
C255 C238 1.407 . S
C255 C254 1.438 . S
C255 C256 1.428 . S
C256 H248 0.949 . S
C256 C255 1.428 . S
C256 C257 1.345 . S
C257 H249 0.950 . S
C257 C256 1.345 . S
C257 C258 1.424 . S
C258 H250 0.951 . S
C258 C257 1.424 . S
C258 C259 1.347 . S
C259 H251 0.951 . S
C259 C254 1.429 . S
C259 C258 1.347 . S
H260 C261 0.951 . S
C261 H260 0.951 . S
C261 C267 1.261 1_554 S
H262 C267 0.951 . S
H263 C271 0.949 . S
H264 C272 0.950 . S
H265 C273 0.951 . S
H266 C274 0.951 . S
C267 C261 1.261 1_556 S
C267 H262 0.951 . S
C267 C268 1.480 . S
C268 C267 1.480 . S
C268 C269 1.399 . S
C268 C285 1.392 1_556 S
C269 C268 1.399 . S
C269 C270 1.438 1_655 S
C269 C274 1.429 . S
C270 C269 1.438 1_455 S
C270 C271 1.428 . S
C270 C283 1.387 1_556 S
C271 H263 0.949 . S
C271 C270 1.428 . S
C271 C272 1.345 . S
C272 H264 0.950 . S
C272 C271 1.345 . S
C272 C273 1.424 1_455 S
C273 H265 0.951 . S
C273 C272 1.424 1_655 S
C273 C274 1.347 . S
C274 H266 0.951 . S
C274 C269 1.429 . S
C274 C273 1.347 . S
H275 C276 0.951 . S
C276 H275 0.951 . S
C276 C282 1.264 1_556 S
H277 C282 0.950 . S
H278 C286 0.949 . S
H279 C287 0.950 . S
H280 C288 0.951 . S
H281 C289 0.951 . S
C282 C276 1.264 1_554 S
C282 H277 0.950 . S
C282 C283 1.478 . S
C283 C270 1.387 1_554 S
C283 C282 1.478 . S
C283 C284 1.404 . S
C284 C283 1.404 . S
C284 C285 1.438 1_455 S
C284 C289 1.429 . S
C285 C268 1.392 1_554 S
C285 C284 1.438 1_655 S
C285 C286 1.428 . S
C286 H278 0.949 . S
C286 C285 1.428 . S
C286 C287 1.345 . S
C287 H279 0.950 . S
C287 C286 1.345 . S
C287 C288 1.424 1_655 S
C288 H280 0.951 . S
C288 C287 1.424 1_455 S
C288 C289 1.347 . S
C289 H281 0.951 . S
C289 C284 1.429 . S
C289 C288 1.347 . S
H290 C291 0.951 . S
C291 H290 0.951 . S
C291 C297 1.265 . S
H292 C297 0.950 . S
H293 C301 0.949 . S
H294 C302 0.950 . S
H295 C303 0.951 . S
H296 C304 0.951 . S
C297 C291 1.265 . S
C297 H292 0.950 . S
C297 C298 1.478 . S
C298 C297 1.478 . S
C298 C299 1.397 . S
C298 C315 1.394 . S
C299 C298 1.397 . S
C299 C300 1.438 1_455 S
C299 C304 1.429 . S
C300 C299 1.438 1_655 S
C300 C301 1.428 . S
C300 C313 1.394 . S
C301 H293 0.949 . S
C301 C300 1.428 . S
C301 C302 1.345 . S
C302 H294 0.950 . S
C302 C301 1.345 . S
C302 C303 1.424 1_655 S
C303 H295 0.951 . S
C303 C302 1.424 1_455 S
C303 C304 1.347 . S
C304 H296 0.951 . S
C304 C299 1.429 . S
C304 C303 1.347 . S
H305 C306 0.951 . S
C306 H305 0.951 . S
C306 C312 1.265 . S
H307 C312 0.950 . S
H308 C316 0.949 . S
H309 C317 0.950 . S
H310 C318 0.951 . S
H311 C319 0.951 . S
C312 C306 1.265 . S
C312 H307 0.950 . S
C312 C313 1.478 . S
C313 C300 1.394 . S
C313 C312 1.478 . S
C313 C314 1.397 . S
C314 C313 1.397 . S
C314 C315 1.438 1_655 S
C314 C319 1.429 . S
C315 C298 1.394 . S
C315 C314 1.438 1_455 S
C315 C316 1.428 . S
C316 H308 0.949 . S
C316 C315 1.428 . S
C316 C317 1.345 . S
C317 H309 0.950 . S
C317 C316 1.345 . S
C317 C318 1.424 1_455 S
C318 H310 0.951 . S
C318 C317 1.424 1_655 S
C318 C319 1.347 . S
C319 H311 0.951 . S
C319 C314 1.429 . S
C319 C318 1.347 . S
H320 C321 0.949 1_565 S
C321 H320 0.949 1_545 S
C321 C327 1.267 1_455 S
H322 C327 0.950 . S
H323 C331 0.949 . S
H324 C332 0.950 . S
H325 C333 0.951 . S
H326 C334 0.951 . S
C327 C321 1.267 1_655 S
C327 H322 0.950 . S
C327 C328 1.478 . S
C328 C327 1.478 . S
C328 C329 1.397 . S
C328 C345 1.394 1_645 S
C329 C328 1.397 . S
C329 C330 1.438 . S
C329 C334 1.429 . S
C330 C329 1.438 . S
C330 C331 1.428 . S
C330 C343 1.380 1_645 S
C331 H323 0.949 . S
C331 C330 1.428 . S
C331 C332 1.345 . S
C332 H324 0.950 . S
C332 C331 1.345 . S
C332 C333 1.424 . S
C333 H325 0.951 . S
C333 C332 1.424 . S
C333 C334 1.347 . S
C334 H326 0.951 . S
C334 C329 1.429 . S
C334 C333 1.347 . S
H335 C336 0.951 . S
C336 H335 0.951 . S
C336 C342 1.265 1_645 S
H337 C342 0.950 . S
H338 C346 0.949 . S
H339 C347 0.950 . S
H340 C348 0.951 . S
H341 C349 0.951 . S
C342 C336 1.265 1_465 S
C342 H337 0.950 . S
C342 C343 1.479 . S
C343 C330 1.380 1_465 S
C343 C342 1.479 . S
C343 C344 1.411 . S
C344 C343 1.411 . S
C344 C345 1.438 . S
C344 C349 1.429 . S
C345 C328 1.394 1_465 S
C345 C344 1.438 . S
C345 C346 1.428 . S
C346 H338 0.949 . S
C346 C345 1.428 . S
C346 C347 1.345 . S
C347 H339 0.950 . S
C347 C346 1.345 . S
C347 C348 1.424 . S
C348 H340 0.951 . S
C348 C347 1.424 . S
C348 C349 1.347 . S
C349 H341 0.951 . S
C349 C344 1.429 . S
C349 C348 1.347 . S
H350 C351 0.950 1_545 S
C351 H350 0.950 1_565 S
C351 C357 1.266 1_655 S
H352 C357 0.950 . S
H353 C361 0.949 . S
H354 C362 0.950 . S
H355 C363 0.951 . S
H356 C364 0.951 . S
C357 C351 1.266 1_455 S
C357 H352 0.950 . S
C357 C358 1.478 . S
C358 C357 1.478 . S
C358 C359 1.397 . S
C358 C375 1.394 1_465 S
C359 C358 1.397 . S
C359 C360 1.438 . S
C359 C364 1.429 . S
C360 C359 1.438 . S
C360 C361 1.428 . S
C360 C373 1.380 1_465 S
C361 H353 0.949 . S
C361 C360 1.428 . S
C361 C362 1.345 . S
C362 H354 0.950 . S
C362 C361 1.345 . S
C362 C363 1.424 . S
C363 H355 0.951 . S
C363 C362 1.424 . S
C363 C364 1.347 . S
C364 H356 0.951 . S
C364 C359 1.429 . S
C364 C363 1.347 . S
H365 C366 0.951 . S
C366 H365 0.951 . S
C366 C372 1.265 1_465 S
H367 C372 0.950 . S
H368 C376 0.949 . S
H369 C377 0.950 . S
H370 C378 0.951 . S
H371 C379 0.951 . S
C372 C366 1.265 1_645 S
C372 H367 0.950 . S
C372 C373 1.479 . S
C373 C360 1.380 1_645 S
C373 C372 1.479 . S
C373 C374 1.410 . S
C374 C373 1.410 . S
C374 C375 1.438 . S
C374 C379 1.429 . S
C375 C358 1.394 1_645 S
C375 C374 1.438 . S
C375 C376 1.428 . S
C376 H368 0.949 . S
C376 C375 1.428 . S
C376 C377 1.345 . S
C377 H369 0.950 . S
C377 C376 1.345 . S
C377 C378 1.424 . S
C378 H370 0.951 . S
C378 C377 1.424 . S
C378 C379 1.347 . S
C379 H371 0.951 . S
C379 C374 1.429 . S
C379 C378 1.347 . S
H380 C381 0.951 . S
C381 H380 0.951 . S
C381 C387 1.265 . S
H382 C387 0.950 . S
H383 C391 0.949 . S
H384 C392 0.950 . S
H385 C393 0.951 . S
H386 C394 0.951 . S
C387 C381 1.265 . S
C387 H382 0.950 . S
C387 C388 1.478 . S
C388 C387 1.478 . S
C388 C389 1.397 . S
C388 C405 1.394 . S
C389 C388 1.397 . S
C389 C390 1.438 . S
C389 C394 1.429 . S
C390 C389 1.438 . S
C390 C391 1.428 . S
C390 C403 1.394 . S
C391 H383 0.949 . S
C391 C390 1.428 . S
C391 C392 1.345 . S
C392 H384 0.950 . S
C392 C391 1.345 . S
C392 C393 1.424 . S
C393 H385 0.951 . S
C393 C392 1.424 . S
C393 C394 1.347 . S
C394 H386 0.951 . S
C394 C389 1.429 . S
C394 C393 1.347 . S
H395 C396 0.951 . S
C396 H395 0.951 . S
C396 C402 1.265 . S
H397 C402 0.950 . S
H398 C406 0.949 . S
H399 C407 0.950 . S
H400 C408 0.951 . S
H401 C409 0.951 . S
C402 C396 1.265 . S
C402 H397 0.950 . S
C402 C403 1.478 . S
C403 C390 1.394 . S
C403 C402 1.478 . S
C403 C404 1.397 . S
C404 C403 1.397 . S
C404 C405 1.438 . S
C404 C409 1.429 . S
C405 C388 1.394 . S
C405 C404 1.438 . S
C405 C406 1.428 . S
C406 H398 0.949 . S
C406 C405 1.428 . S
C406 C407 1.345 . S
C407 H399 0.950 . S
C407 C406 1.345 . S
C407 C408 1.424 . S
C408 H400 0.951 . S
C408 C407 1.424 . S
C408 C409 1.347 . S
C409 H401 0.951 . S
C409 C404 1.429 . S
C409 C408 1.347 . S
H410 C411 0.951 . S
C411 H410 0.951 . S
C411 C417 1.265 . S
H412 C417 0.950 . S
H413 C421 0.949 . S
H414 C422 0.950 . S
H415 C423 0.951 . S
H416 C424 0.951 . S
C417 C411 1.265 . S
C417 H412 0.950 . S
C417 C418 1.478 . S
C418 C417 1.478 . S
C418 C419 1.397 . S
C418 C435 1.394 . S
C419 C418 1.397 . S
C419 C420 1.438 . S
C419 C424 1.429 . S
C420 C419 1.438 . S
C420 C421 1.428 . S
C420 C433 1.394 . S
C421 H413 0.949 . S
C421 C420 1.428 . S
C421 C422 1.345 . S
C422 H414 0.950 . S
C422 C421 1.345 . S
C422 C423 1.424 . S
C423 H415 0.951 . S
C423 C422 1.424 . S
C423 C424 1.347 . S
C424 H416 0.951 . S
C424 C419 1.429 . S
C424 C423 1.347 . S
H425 C426 0.951 . S
C426 H425 0.951 . S
C426 C432 1.265 . S
H427 C432 0.950 . S
H428 C436 0.949 . S
H429 C437 0.950 . S
H430 C438 0.951 . S
H431 C439 0.951 . S
C432 C426 1.265 . S
C432 H427 0.950 . S
C432 C433 1.478 . S
C433 C420 1.394 . S
C433 C432 1.478 . S
C433 C434 1.397 . S
C434 C433 1.397 . S
C434 C435 1.438 . S
C434 C439 1.429 . S
C435 C418 1.394 . S
C435 C434 1.438 . S
C435 C436 1.428 . S
C436 H428 0.949 . S
C436 C435 1.428 . S
C436 C437 1.345 . S
C437 H429 0.950 . S
C437 C436 1.345 . S
C437 C438 1.424 . S
C438 H430 0.951 . S
C438 C437 1.424 . S
C438 C439 1.347 . S
C439 H431 0.951 . S
C439 C434 1.429 . S
C439 C438 1.347 . S
C81 C58 2.033 1_554 S
C96 C19 2.032 1_556 S
C111 C59 2.014 1_556 S
C126 C18 2.015 1_554 S
C141 C21 1.052 . S
C156 C62 1.051 . S
C171 C22 0.994 . S
C186 C61 0.995 . S
C201 C1 0.696 1_565 S
C216 C2 0.696 1_545 S
C231 C39 2.407 . S
C246 C38 2.407 . S
C261 C41 0.578 . S
C276 C42 0.577 . S
C291 C78 2.390 . S
C306 C79 2.390 . S
C321 C28 1.433 1_545 S
C336 C9 1.481 1_655 S
C351 C8 1.418 . S
C366 C29 1.453 1_465 S
C381 C68 1.455 . S
C396 C49 1.417 . S
C411 C69 1.444 . S
C426 C48 1.485 . S
