# Generated by pormake.
# Topology atn, (4)-cn, num edge types: 1
# Building blocks:
#     Node 0, Type 0, BuildingBlock: TATPOV_clean_sbu_0, # of connection points: 4
#     Node 1, Type 0, BuildingBlock: TATPOV_clean_sbu_0, # of connection points: 4
#     Node 2, Type 0, BuildingBlock: TATPOV_clean_sbu_0, # of connection points: 4
#     Node 3, Type 0, BuildingBlock: TATPOV_clean_sbu_0, # of connection points: 4
#     Node 4, Type 0, BuildingBlock: TATPOV_clean_sbu_0, # of connection points: 4
#     Node 5, Type 0, BuildingBlock: TATPOV_clean_sbu_0, # of connection points: 4
#     Node 6, Type 0, BuildingBlock: TATPOV_clean_sbu_0, # of connection points: 4
#     Node 7, Type 0, BuildingBlock: TATPOV_clean_sbu_0, # of connection points: 4
#     Node 8, Type 0, BuildingBlock: TATPOV_clean_sbu_0, # of connection points: 4
#     Node 9, Type 0, BuildingBlock: TATPOV_clean_sbu_0, # of connection points: 4
#     Node 10, Type 0, BuildingBlock: TATPOV_clean_sbu_0, # of connection points: 4
#     Node 11, Type 0, BuildingBlock: TATPOV_clean_sbu_0, # of connection points: 4
#     Node 12, Type 0, BuildingBlock: TATPOV_clean_sbu_0, # of connection points: 4
#     Node 13, Type 0, BuildingBlock: TATPOV_clean_sbu_0, # of connection points: 4
#     Node 14, Type 0, BuildingBlock: TATPOV_clean_sbu_0, # of connection points: 4
#     Node 15, Type 0, BuildingBlock: TATPOV_clean_sbu_0, # of connection points: 4
#     Edge 16, Type (0, 0), BuildingBlock: XIVTED_clean_linker_0, # of connection points: 2
#     Edge 17, Type (0, 0), BuildingBlock: XIVTED_clean_linker_0, # of connection points: 2
#     Edge 18, Type (0, 0), BuildingBlock: XIVTED_clean_linker_0, # of connection points: 2
#     Edge 19, Type (0, 0), BuildingBlock: XIVTED_clean_linker_0, # of connection points: 2
#     Edge 20, Type (0, 0), BuildingBlock: XIVTED_clean_linker_0, # of connection points: 2
#     Edge 21, Type (0, 0), BuildingBlock: XIVTED_clean_linker_0, # of connection points: 2
#     Edge 22, Type (0, 0), BuildingBlock: XIVTED_clean_linker_0, # of connection points: 2
#     Edge 23, Type (0, 0), BuildingBlock: XIVTED_clean_linker_0, # of connection points: 2
#     Edge 24, Type (0, 0), BuildingBlock: XIVTED_clean_linker_0, # of connection points: 2
#     Edge 25, Type (0, 0), BuildingBlock: XIVTED_clean_linker_0, # of connection points: 2
#     Edge 26, Type (0, 0), BuildingBlock: XIVTED_clean_linker_0, # of connection points: 2
#     Edge 27, Type (0, 0), BuildingBlock: XIVTED_clean_linker_0, # of connection points: 2
#     Edge 28, Type (0, 0), BuildingBlock: XIVTED_clean_linker_0, # of connection points: 2
#     Edge 29, Type (0, 0), BuildingBlock: XIVTED_clean_linker_0, # of connection points: 2
#     Edge 30, Type (0, 0), BuildingBlock: XIVTED_clean_linker_0, # of connection points: 2
#     Edge 31, Type (0, 0), BuildingBlock: XIVTED_clean_linker_0, # of connection points: 2
#     Edge 32, Type (0, 0), BuildingBlock: XIVTED_clean_linker_0, # of connection points: 2
#     Edge 33, Type (0, 0), BuildingBlock: XIVTED_clean_linker_0, # of connection points: 2
#     Edge 34, Type (0, 0), BuildingBlock: XIVTED_clean_linker_0, # of connection points: 2
#     Edge 35, Type (0, 0), BuildingBlock: XIVTED_clean_linker_0, # of connection points: 2
#     Edge 36, Type (0, 0), BuildingBlock: XIVTED_clean_linker_0, # of connection points: 2
#     Edge 37, Type (0, 0), BuildingBlock: XIVTED_clean_linker_0, # of connection points: 2
#     Edge 38, Type (0, 0), BuildingBlock: XIVTED_clean_linker_0, # of connection points: 2
#     Edge 39, Type (0, 0), BuildingBlock: XIVTED_clean_linker_0, # of connection points: 2
#     Edge 40, Type (0, 0), BuildingBlock: XIVTED_clean_linker_0, # of connection points: 2
#     Edge 41, Type (0, 0), BuildingBlock: XIVTED_clean_linker_0, # of connection points: 2
#     Edge 42, Type (0, 0), BuildingBlock: XIVTED_clean_linker_0, # of connection points: 2
#     Edge 43, Type (0, 0), BuildingBlock: XIVTED_clean_linker_0, # of connection points: 2
#     Edge 44, Type (0, 0), BuildingBlock: XIVTED_clean_linker_0, # of connection points: 2
#     Edge 45, Type (0, 0), BuildingBlock: XIVTED_clean_linker_0, # of connection points: 2
#     Edge 46, Type (0, 0), BuildingBlock: XIVTED_clean_linker_0, # of connection points: 2
#     Edge 47, Type (0, 0), BuildingBlock: XIVTED_clean_linker_0, # of connection points: 2
# Relax obj value: 0.075
# Max RMSD: 0.103
# Mean RMSD: 0.103
data_MOF--net-atn--node1-TATPOV_clean_sbu_0--edge1-XIVTED_clean_linker_0
_symmetry_space_group_name_H-M    P1
_symmetry_Int_Tables_number       1
_symmetry_cell_setting            triclinic
loop_
_symmetry_equiv_pos_as_xyz
'x, y, z'
_cell_length_a     60.882523
_cell_length_b     60.906828
_cell_length_c     26.692231
_cell_angle_alpha  90.184374
_cell_angle_beta   90.182109
_cell_angle_gamma 90.210279
loop_
_atom_site_label
_atom_site_type_symbol
_atom_site_fract_x
_atom_site_fract_y
_atom_site_fract_z
_atom_type_partial_charge
Zn0 Zn 0.18354 0.34742 0.012 0.0
Zn1 Zn 0.20621 0.38461 0.00321 0.0
O2 O 0.195 0.37875 0.93134 0.0
O3 O 0.17801 0.34691 0.93858 0.0
O4 O 0.22068 0.41462 0.00197 0.0
O5 O 0.16078 0.36111 0.05511 0.0
O6 O 0.18172 0.39059 0.05488 0.0
C7 C 0.18415 0.3629 0.91192 0.0
C8 C 0.22905 0.34335 0.04164 0.0
O9 O 0.23052 0.36306 0.02594 0.0
O10 O 0.21064 0.33358 0.04173 0.0
C11 C 0.22368 0.42646 0.96339 0.0
O12 O 0.21869 0.41852 0.91897 0.0
C13 C 0.16457 0.3805 0.06976 0.0
Zn14 Zn 0.65289 0.18358 0.88524 0.0
Zn15 Zn 0.61537 0.20291 0.90425 0.0
O16 O 0.61092 0.18759 0.83526 0.0
O17 O 0.64058 0.16736 0.82732 0.0
O18 O 0.5848 0.21395 0.91914 0.0
O19 O 0.65405 0.16817 0.95041 0.0
O20 O 0.62186 0.18307 0.96529 0.0
C21 C 0.62191 0.17313 0.81158 0.0
C22 C 0.65572 0.23126 0.88876 0.0
O23 O 0.63567 0.23019 0.90228 0.0
O24 O 0.66603 0.21391 0.87737 0.0
C25 C 0.57879 0.21944 0.96301 0.0
O26 O 0.59333 0.21946 -0.0005 0.0
C27 C 0.63762 0.17063 0.97861 0.0
Zn28 Zn 0.79749 0.66288 -0.01271 0.0
Zn29 Zn 0.7944 0.62146 0.97758 0.0
O30 O 0.80697 0.62979 0.90838 0.0
O31 O 0.80166 0.66548 0.91316 0.0
O32 O 0.79198 0.58843 0.97714 0.0
O33 O 0.82373 0.66177 0.03203 0.0
O34 O 0.81573 0.62666 0.03745 0.0
C35 C 0.80699 0.64869 0.88804 0.0
C36 C 0.75433 0.64929 0.00494 0.0
O37 O 0.76209 0.63176 0.98583 0.0
O38 O 0.76705 0.66506 0.01588 0.0
C39 C 0.78579 0.57686 0.93994 0.0
O40 O 0.78045 0.5866 0.89779 0.0
C41 C 0.82701 0.64324 0.05173 0.0
Zn42 Zn 0.33401 0.83837 0.97153 0.0
Zn43 Zn 0.37378 0.82037 0.97691 0.0
O44 O 0.3768 0.84617 0.92732 0.0
O45 O 0.34501 0.86317 0.92985 0.0
O46 O 0.40501 0.80936 0.97984 0.0
O47 O 0.33353 0.84234 0.04579 0.0
O48 O 0.36734 0.82974 0.04924 0.0
C49 C 0.36457 0.86213 0.91428 0.0
C50 C 0.33506 0.79325 0.93761 0.0
O51 O 0.35497 0.79397 0.9526 0.0
O52 O 0.32321 0.81028 0.9395 0.0
C53 C 0.41356 0.80003 0.0177 0.0
O54 O 0.40134 0.79598 0.0571 0.0
C55 C 0.3506 0.83789 0.07081 0.0
Zn56 Zn 0.18405 0.66712 0.95418 0.0
Zn57 Zn 0.20737 0.63035 0.96322 0.0
O58 O 0.19614 0.63586 0.03487 0.0
O59 O 0.17831 0.66712 0.02751 0.0
O60 O 0.22204 0.60054 0.96426 0.0
O61 O 0.16171 0.65311 0.90984 0.0
O62 O 0.18305 0.62408 0.91093 0.0
C63 C 0.18492 0.65134 0.05421 0.0
C64 C 0.2298 0.67228 0.92696 0.0
O65 O 0.23146 0.65249 0.94201 0.0
O66 O 0.21123 0.68162 0.92618 0.0
C67 C 0.22499 0.58866 0.00278 0.0
O68 O 0.22 0.59651 0.04717 0.0
C69 C 0.16584 0.6338 0.89537 0.0
Zn70 Zn 0.33522 0.17869 0.03127 0.0
Zn71 Zn 0.3742 0.19747 0.01745 0.0
O72 O 0.37969 0.17384 0.07173 0.0
O73 O 0.34837 0.15574 0.07493 0.0
O74 O 0.40469 0.20921 0.00406 0.0
O75 O 0.33194 0.17191 0.95851 0.0
O76 O 0.36516 0.18553 0.94827 0.0
C77 C 0.36819 0.15793 0.08835 0.0
C78 C 0.33621 0.22495 0.05684 0.0
O79 O 0.35571 0.22419 0.03961 0.0
O80 O 0.32473 0.2076 0.05959 0.0
C81 C 0.41836 0.21354 0.03887 0.0
O82 O 0.41216 0.21148 0.08574 0.0
C83 C 0.34807 0.17619 0.93043 0.0
Zn84 Zn 0.81567 0.33059 0.01585 0.0
Zn85 Zn 0.80211 0.37161 0.01063 0.0
O86 O 0.80968 0.36778 0.08537 0.0
O87 O 0.81555 0.33216 0.09091 0.0
O88 O 0.79412 0.40363 0.00592 0.0
O89 O 0.84313 0.33734 0.97713 0.0
O90 O 0.82855 0.36969 0.9629 0.0
C91 C 0.81372 0.35079 0.11145 0.0
C92 C 0.77264 0.33471 0.97195 0.0
O93 O 0.77445 0.35472 0.9856 0.0
O94 O 0.78844 0.32153 0.97812 0.0
C95 C 0.79036 0.41251 0.96373 0.0
O96 O 0.79071 0.40029 0.92308 0.0
C97 C 0.84369 0.3557 0.95514 0.0
Zn98 Zn 0.66327 0.79855 -0.00393 0.0
Zn99 Zn 0.62208 0.79667 0.00616 0.0
O100 O 0.63114 0.8091 0.07539 0.0
O101 O 0.66657 0.8024 0.07014 0.0
O102 O 0.58898 0.79548 0.00708 0.0
O103 O 0.66296 0.82492 0.95219 0.0
O104 O 0.62771 0.81759 0.94606 0.0
C105 C 0.65013 0.80837 0.09553 0.0
C106 C 0.64851 0.75584 0.97801 0.0
O107 O 0.63136 0.76404 -0.00217 0.0
O108 O 0.66446 0.76818 0.96654 0.0
C109 C 0.57751 0.78663 0.04127 0.0
O110 O 0.5874 0.77751 0.0797 0.0
C111 C 0.64452 0.82851 0.93212 0.0
Zn112 Zn 0.71382 0.84148 0.53779 0.0
Zn113 Zn 0.716 0.88252 0.51643 0.0
O114 O 0.69934 0.87057 0.45435 0.0
O115 O 0.70276 0.83519 0.46865 0.0
O116 O 0.71808 0.91529 0.50679 0.0
O117 O 0.69173 0.84563 0.59139 0.0
O118 O 0.6982 0.88098 0.5828 0.0
C119 C 0.69652 0.85068 0.44058 0.0
C120 C 0.7578 0.85551 0.53565 0.0
O121 O 0.74858 0.87248 0.51739 0.0
O122 O 0.74617 0.84004 0.55293 0.0
C123 C 0.7189 0.92524 0.46505 0.0
O124 O 0.71863 0.91381 0.42323 0.0
C125 C 0.68867 0.8652 0.60537 0.0
Zn126 Zn 0.17873 0.67797 0.52007 0.0
Zn127 Zn 0.13941 0.69648 0.50767 0.0
O128 O 0.14742 0.6852 0.4375 0.0
O129 O 0.18089 0.67214 0.44666 0.0
O130 O 0.10833 0.70752 0.49959 0.0
O131 O 0.16618 0.65421 0.56269 0.0
O132 O 0.13492 0.67216 0.56028 0.0
C133 C 0.16446 0.67618 0.41911 0.0
C134 C 0.17747 0.72401 0.54819 0.0
O135 O 0.15795 0.7232 0.5308 0.0
O136 O 0.18906 0.70678 0.54997 0.0
C137 C 0.09412 0.6928 0.48934 0.0
O138 O 0.10077 0.67249 0.48277 0.0
C139 C 0.14637 0.65612 0.57602 0.0
Zn140 Zn 0.32279 0.168 0.46422 0.0
Zn141 Zn 0.30132 0.1305 0.47556 0.0
O142 O 0.32557 0.12395 0.42325 0.0
O143 O 0.34589 0.15388 0.42274 0.0
O144 O 0.28795 0.10049 0.48686 0.0
O145 O 0.32833 0.17083 0.5375 0.0
O146 O 0.31261 0.13847 0.54608 0.0
C147 C 0.34255 0.13436 0.40839 0.0
C148 C 0.27716 0.17005 0.43347 0.0
O149 O 0.27612 0.15061 0.45104 0.0
O150 O 0.29531 0.18027 0.43262 0.0
C151 C 0.28458 0.08697 0.45121 0.0
O152 O 0.28833 0.09325 0.40496 0.0
C153 C 0.32268 0.15492 0.56493 0.0
Zn154 Zn 0.84698 0.306 0.56019 0.0
Zn155 Zn 0.88704 0.30011 0.52993 0.0
O156 O 0.87408 0.31869 0.47239 0.0
O157 O 0.83927 0.31951 0.49429 0.0
O158 O 0.91884 0.2958 0.51112 0.0
O159 O 0.85617 0.3257 0.61593 0.0
O160 O 0.89012 0.31611 0.59854 0.0
C161 C 0.85424 0.32407 0.46321 0.0
C162 C 0.85628 0.26084 0.54848 0.0
O163 O 0.87373 0.26878 0.52927 0.0
O164 O 0.84268 0.27344 0.56977 0.0
C165 C 0.93158 0.28646 0.54226 0.0
O166 O 0.92338 0.27906 0.58448 0.0
C167 C 0.87645 0.32638 0.62594 0.0
Zn168 Zn 0.70043 0.17664 0.41259 0.0
Zn169 Zn 0.70657 0.1331 0.41678 0.0
O170 O 0.68326 0.13833 0.47071 0.0
O171 O 0.67966 0.17431 0.47076 0.0
O172 O 0.71099 0.10033 0.41766 0.0
O173 O 0.68709 0.1737 0.34486 0.0
O174 O 0.69412 0.13823 0.3459 0.0
C175 C 0.67424 0.15566 0.48765 0.0
C176 C 0.7452 0.16517 0.43226 0.0
O177 O 0.73734 0.14576 0.43389 0.0
O178 O 0.733 0.18127 0.42159 0.0
C179 C 0.71416 0.09001 0.45834 0.0
O180 O 0.71493 0.10105 0.50069 0.0
C181 C 0.68631 0.15505 0.32398 0.0
Zn182 Zn 0.84552 0.70907 0.44707 0.0
Zn183 Zn 0.88632 0.70934 0.47068 0.0
O184 O 0.87269 0.69309 0.53117 0.0
O185 O 0.83764 0.6984 0.51532 0.0
O186 O 0.91903 0.70841 0.48412 0.0
O187 O 0.84896 0.68684 0.39335 0.0
O188 O 0.88447 0.69226 0.40294 0.0
C189 C 0.85259 0.69128 0.54394 0.0
C190 C 0.86147 0.75236 0.45149 0.0
O191 O 0.87781 0.7424 0.47087 0.0
O192 O 0.84583 0.74142 0.4324 0.0
C193 C 0.93234 0.72444 0.47985 0.0
O194 O 0.9248 0.74392 0.46796 0.0
C195 C 0.86845 0.68331 0.37963 0.0
Zn196 Zn 0.32899 0.84968 0.53857 0.0
Zn197 Zn 0.30618 0.88575 0.51886 0.0
O198 O 0.32804 0.89487 0.57469 0.0
O199 O 0.34954 0.86617 0.58315 0.0
O200 O 0.29188 0.91471 0.50204 0.0
O201 O 0.3374 0.84587 0.46704 0.0
O202 O 0.32023 0.87692 0.45186 0.0
C203 C 0.34483 0.88579 0.59418 0.0
C204 C 0.28241 0.8455 0.55941 0.0
O205 O 0.28122 0.86466 0.54041 0.0
O206 O 0.3009 0.83631 0.56485 0.0
C207 C 0.28592 0.92803 0.53614 0.0
O208 O 0.28749 0.92201 0.58324 0.0
C209 C 0.33178 0.86078 0.43682 0.0
Zn210 Zn 0.17356 0.33561 0.4476 0.0
Zn211 Zn 0.1339 0.31799 0.46013 0.0
O212 O 0.14184 0.33003 0.52997 0.0
O213 O 0.17558 0.34253 0.52052 0.0
O214 O 0.10268 0.30718 0.46708 0.0
O215 O 0.16176 0.35887 0.40274 0.0
O216 O 0.12991 0.34178 0.40602 0.0
C217 C 0.15906 0.33907 0.54804 0.0
C218 C 0.17167 0.28931 0.42346 0.0
O219 O 0.15206 0.29073 0.43981 0.0
O220 O 0.18364 0.30632 0.42062 0.0
C221 C 0.09499 0.29748 0.50532 0.0
O222 O 0.10811 0.29307 0.54311 0.0
C223 C 0.1419 0.35729 0.3893 0.0
H224 H 0.23277 0.56607 0.91559 0.0
H225 H 0.2321 0.44903 0.05046 0.0
H226 H 0.23 0.55752 0.07595 0.0
H227 H 0.22871 0.45757 0.89011 0.0
H228 H 0.2372 0.4886 0.06026 0.0
H229 H 0.23718 0.52646 0.90568 0.0
C230 C 0.23336 0.55592 0.9488 0.0
C231 C 0.23074 0.56516 -0.00331 0.0
C232 C 0.23556 0.4818 0.0229 0.0
C233 C 0.23566 0.51968 0.9855 0.0
C234 C 0.23268 0.45917 0.01722 0.0
C235 C 0.2297 0.44994 0.96938 0.0
C236 C 0.23543 0.49537 0.98045 0.0
C237 C 0.23075 0.46394 0.92775 0.0
C238 C 0.23583 0.53326 0.94307 0.0
C239 C 0.23177 0.55114 0.03829 0.0
N240 N 0.23332 0.48596 0.93428 0.0
N241 N 0.23394 0.5291 0.0317 0.0
H242 H 0.43715 0.21711 0.94602 0.0
H243 H 0.55959 0.22762 0.05394 0.0
H244 H 0.45255 0.22141 0.10375 0.0
H245 H 0.54416 0.21931 0.89703 0.0
H246 H 0.52033 0.22967 0.07216 0.0
H247 H 0.47603 0.22212 0.92684 0.0
C248 C 0.44866 0.21929 0.97666 0.0
C249 C 0.44155 0.21865 0.02663 0.0
C250 C 0.52554 0.22758 0.03369 0.0
C251 C 0.48621 0.22432 0.00485 0.0
C252 C 0.54798 0.22646 0.02322 0.0
C253 C 0.55522 0.2231 0.9739 0.0
C254 C 0.51018 0.22532 -0.00541 0.0
C255 C 0.53937 0.22177 0.93566 0.0
C256 C 0.4709 0.22213 0.96565 0.0
C257 C 0.45727 0.22167 0.06469 0.0
N258 N 0.51762 0.22272 0.94686 0.0
N259 N 0.47886 0.22422 0.05302 0.0
H260 H 0.78182 0.43692 0.87976 0.0
H261 H 0.79309 0.55194 0.02341 0.0
H262 H 0.79225 0.44304 0.03927 0.0
H263 H 0.77656 0.5465 0.86644 0.0
H264 H 0.79248 0.51202 0.02971 0.0
H265 H 0.77925 0.47689 0.87398 0.0
C266 C 0.78345 0.44664 0.91363 0.0
C267 C 0.78734 0.43658 0.96006 0.0
C268 C 0.78891 0.51952 -0.00611 0.0
C269 C 0.78455 0.48238 0.95362 0.0
C270 C 0.78929 0.54236 -0.00978 0.0
C271 C 0.78494 0.55263 0.94425 0.0
C272 C 0.78425 0.50675 0.95124 0.0
C273 C 0.78005 0.53931 0.90261 0.0
C274 C 0.78199 0.46947 0.91027 0.0
C275 C 0.78928 0.45004 0.00266 0.0
N276 N 0.77993 0.51706 0.90706 0.0
N277 N 0.78798 0.47222 -0.00165 0.0
H278 H 0.54738 0.7716 0.10966 0.0
H279 H 0.44373 0.8079 0.94403 0.0
H280 H 0.55221 0.80216 0.96437 0.0
H281 H 0.43802 0.7824 0.09419 0.0
H282 H 0.48343 0.80315 0.94877 0.0
H283 H 0.50728 0.77296 0.10287 0.0
C284 C 0.54004 0.77854 0.0763 0.0
C285 C 0.55321 0.78686 0.03762 0.0
C286 C 0.47351 0.7985 0.98065 0.0
C287 C 0.50734 0.78841 0.02958 0.0
C288 C 0.4508 0.80116 0.97793 0.0
C289 C 0.43748 0.79564 0.01888 0.0
C290 C 0.4831 0.79026 0.02465 0.0
C291 C 0.44763 0.78694 0.06176 0.0
C292 C 0.51714 0.77932 0.07246 0.0
C293 C 0.54276 0.79563 -0.00476 0.0
N294 N 0.46984 0.7846 0.06361 0.0
N295 N 0.52049 0.7962 -0.00758 0.0
H296 H 0.71372 0.06212 0.37744 0.0
H297 H 0.72093 0.95351 0.54479 0.0
H298 H 0.71916 0.06263 0.53875 0.0
H299 H 0.71822 0.95244 0.38314 0.0
H300 H 0.72089 0.99352 0.54288 0.0
H301 H 0.71595 0.02206 0.37837 0.0
C302 C 0.71544 0.05383 0.41306 0.0
C303 C 0.71619 0.06579 0.45812 0.0
C304 C 0.72037 0.98457 0.50778 0.0
C305 C 0.71871 0.01988 0.45942 0.0
C306 C 0.72038 0.96168 0.50882 0.0
C307 C 0.71952 0.94955 0.46403 0.0
C308 C 0.71943 0.99552 0.46162 0.0
C309 C 0.71888 0.96109 0.4186 0.0
C310 C 0.71672 0.03094 0.41354 0.0
C311 C 0.71848 0.05413 0.5031 0.0
N312 N 0.71877 0.98343 0.41857 0.0
N313 N 0.71959 0.03185 0.5026 0.0
H314 H 0.96572 0.75496 0.47919 0.0
H315 H 0.06008 0.664 0.47766 0.0
H316 H 0.95363 0.68525 0.49025 0.0
H317 H 0.07392 0.73308 0.49718 0.0
H318 H 0.02096 0.67204 0.47719 0.0
H319 H 0.00531 0.74783 0.48201 0.0
C320 C 0.97136 0.73818 0.48242 0.0
C321 C 0.9563 0.72067 0.48437 0.0
C322 C 0.03251 0.68548 0.48164 0.0
C323 C 1.00153 0.71242 0.48715 0.0
C324 C 0.05491 0.68091 0.48171 0.0
C325 C 0.07036 0.6979 0.4875 0.0
C326 C 0.02535 0.70724 0.48708 0.0
C327 C 0.06259 0.71948 0.49266 0.0
C328 C 0.99396 0.73413 0.48403 0.0
C329 C 0.96458 0.69927 0.48864 0.0
N330 N 0.0406 0.72355 0.49224 0.0
N331 N 0.98659 0.69577 0.4896 0.0
H332 H 0.28009 0.0528 0.38481 0.0
H333 H 0.27592 0.9618 0.60014 0.0
H334 H 0.27755 0.06791 0.54281 0.0
H335 H 0.28333 0.94676 0.44294 0.0
H336 H 0.27121 1.00049 0.57892 0.0
H337 H 0.27602 0.01385 0.40457 0.0
C338 C 0.27842 0.04798 0.42364 0.0
C339 C 0.2794 0.06368 0.46222 0.0
C340 C 0.27366 0.9887 0.54901 0.0
C341 C 0.27486 0.01902 0.48514 0.0
C342 C 0.27631 0.96657 0.56109 0.0
C343 C 0.28027 0.951 0.52332 0.0
C344 C 0.27501 0.99537 0.49878 0.0
C345 C 0.28049 0.95819 0.47337 0.0
C346 C 0.27615 0.0257 0.4349 0.0
C347 C 0.27706 0.05641 0.51183 0.0
N348 N 0.2781 0.97986 0.46261 0.0
N349 N 0.27509 0.03462 0.52186 0.0
H350 H 0.07236 0.27814 0.58237 0.0
H351 H 0.95435 0.30073 0.45989 0.0
H352 H 0.06309 0.30652 0.43583 0.0
H353 H 0.96352 0.27003 0.60397 0.0
H354 H 0.99416 0.30115 0.44847 0.0
H355 H 0.03261 0.27318 0.5891 0.0
C356 C 0.062 0.2832 0.55146 0.0
C357 C 0.07111 0.29288 0.5086 0.0
C358 C 0.98747 0.2942 0.48246 0.0
C359 C 0.02552 0.28734 0.51615 0.0
C360 C 0.96471 0.29395 0.489 0.0
C361 C 0.95555 0.28544 0.53309 0.0
C362 C 1.00122 0.28597 0.52035 0.0
C363 C 0.96982 0.27683 0.56944 0.0
C364 C 0.03928 0.28037 0.55534 0.0
C365 C 0.05683 0.29906 0.4697 0.0
N366 N 0.99192 0.27744 0.5624 0.0
N367 N 0.03478 0.2963 0.47454 0.0
H368 H 0.27188 0.34851 0.01055 0.0
H369 H 0.30371 0.23193 0.1243 0.0
H370 H 0.23078 0.30941 0.10704 0.0
H371 H 0.34432 0.26583 0.01718 0.0
H372 H 0.28114 0.26461 0.13264 0.0
H373 H 0.3023 0.32285 0.02572 0.0
C374 C 0.26942 0.33483 0.03577 0.0
C375 C 0.24871 0.33086 0.05699 0.0
C376 C 0.29514 0.26511 0.10774 0.0
C377 C 0.28322 0.30158 0.0744 0.0
C378 C 0.30808 0.24644 0.10308 0.0
C379 C 0.3257 0.24608 0.06945 0.0
C380 C 0.29953 0.28354 0.07782 0.0
C381 C 0.33079 0.26543 0.04337 0.0
C382 C 0.28672 0.32015 0.04422 0.0
C383 C 0.24636 0.31289 0.08926 0.0
N384 N 0.31747 0.28329 0.04733 0.0
N385 N 0.2633 0.29887 0.09657 0.0
H386 H 0.76996 0.30953 0.8891 0.0
H387 H 0.64922 0.26761 0.94871 0.0
H388 H 0.72975 0.33991 0.00212 0.0
H389 H 0.69067 0.24229 0.83139 0.0
H390 H 0.67506 0.2984 0.96028 0.0
H391 H 0.73805 0.28942 0.85836 0.0
C392 C 0.75422 0.31219 0.9069 0.0
C393 C 0.75243 0.32621 0.9483 0.0
C394 C 0.67822 0.28633 0.93135 0.0
C395 C 0.71579 0.30266 0.91448 0.0
C396 C 0.66344 0.26883 0.92459 0.0
C397 C 0.66804 0.25222 0.88961 0.0
C398 C 0.69758 0.28712 0.90273 0.0
C399 C 0.68669 0.25453 0.85941 0.0
C400 C 0.73596 0.30068 0.88946 0.0
C401 C 0.73169 0.32921 0.96998 0.0
N402 N 0.70083 0.27145 0.86704 0.0
N403 N 0.71418 0.31714 0.95345 0.0
H404 H 0.72492 0.64235 0.92964 0.0
H405 H 0.64174 0.72699 0.05392 0.0
H406 H 0.7304 0.66722 0.0805 0.0
H407 H 0.66535 0.73119 0.90223 0.0
H408 H 0.66045 0.69154 0.06284 0.0
H409 H 0.68952 0.66125 0.92097 0.0
C410 C 0.71816 0.65091 0.9617 0.0
C411 C 0.73055 0.65346 0.00572 0.0
C412 C 0.66073 0.69983 0.027 0.0
C413 C 0.69034 0.67485 -0.00386 0.0
C414 C 0.64995 0.71992 0.02175 0.0
C415 C 0.65223 0.73199 0.9774 0.0
C416 C 0.67344 0.69172 -0.01271 0.0
C417 C 0.66336 0.72236 0.93708 0.0
C418 C 0.69809 0.66178 0.95659 0.0
C419 C 0.72131 0.66501 0.04589 0.0
N420 N 0.67382 0.70288 0.94316 0.0
N421 N 0.70184 0.67554 0.03997 0.0
H422 H 0.27235 0.66735 0.96039 0.0
H423 H 0.30227 0.78819 0.86964 0.0
H424 H 0.23173 0.70762 0.86542 0.0
H425 H 0.34396 0.75118 0.96896 0.0
H426 H 0.28034 0.75538 0.85426 0.0
H427 H 0.30235 0.69418 0.95128 0.0
C428 C 0.26993 0.68154 0.93669 0.0
C429 C 0.24943 0.68547 0.91425 0.0
C430 C 0.29443 0.75423 0.87896 0.0
C431 C 0.28347 0.71614 0.90388 0.0
C432 C 0.30698 0.773 0.88768 0.0
C433 C 0.32475 0.77245 0.92114 0.0
C434 C 0.29932 0.73476 0.90471 0.0
C435 C 0.33031 0.75227 0.94302 0.0
C436 C 0.287 0.69689 0.93171 0.0
C437 C 0.24714 0.70413 0.88407 0.0
N438 N 0.31735 0.73427 0.93521 0.0
N439 N 0.26382 0.71882 0.88023 0.0
H440 H 0.87077 0.77609 0.53571 0.0
H441 H 0.78286 0.86566 0.45439 0.0
H442 H 0.84299 0.78184 0.38762 0.0
H443 H 0.78597 0.83505 0.59961 0.0
H444 H 0.81768 0.84794 0.43224 0.0
H445 H 0.8528 0.8106 0.55936 0.0
C446 C 0.86174 0.78513 0.50751 0.0
C447 C 0.85804 0.77603 0.45988 0.0
C448 C 0.81111 0.8458 0.46958 0.0
C449 C 0.83757 0.81525 0.4866 0.0
C450 C 0.79136 0.856 0.48237 0.0
C451 C 0.78146 0.8515 0.52862 0.0
C452 C 0.82106 0.83136 0.50365 0.0
C453 C 0.79299 0.83868 0.56334 0.0
C454 C 0.85137 0.8047 0.52115 0.0
C455 C 0.846 0.78825 0.42491 0.0
N456 N 0.81206 0.82879 0.54991 0.0
N457 N 0.83589 0.8071 0.43917 0.0
H458 H 0.24093 0.84925 0.51877 0.0
H459 H 0.20935 0.73025 0.61802 0.0
H460 H 0.27864 0.812 0.62573 0.0
H461 H 0.16923 0.76549 0.51215 0.0
H462 H 0.23091 0.76337 0.63256 0.0
H463 H 0.21087 0.82241 0.52664 0.0
C464 C 0.24266 0.83575 0.54479 0.0
C465 C 0.26243 0.83262 0.57104 0.0
C466 C 0.21724 0.76407 0.60656 0.0
C467 C 0.22834 0.80191 0.57994 0.0
C468 C 0.20491 0.74511 0.5983 0.0
C469 C 0.18768 0.74507 0.56335 0.0
C470 C 0.21268 0.78312 0.57891 0.0
C471 C 0.18246 0.76485 0.53929 0.0
C472 C 0.22557 0.82038 0.54907 0.0
C473 C 0.26384 0.81485 0.60413 0.0
N474 N 0.1952 0.78303 0.54678 0.0
N475 N 0.24718 0.80009 0.60718 0.0
H476 H 0.27407 0.20016 0.35942 0.0
H477 H 0.16139 0.24861 0.46175 0.0
H478 H 0.23532 0.16747 0.47186 0.0
H479 H 0.20493 0.28124 0.35859 0.0
H480 H 0.18335 0.215 0.45289 0.0
H481 H 0.24398 0.22554 0.3447 0.0
C482 C 0.259 0.19812 0.38043 0.0
C483 C 0.25726 0.18192 0.41735 0.0
C484 C 0.1878 0.22941 0.4315 0.0
C485 C 0.22283 0.21138 0.40178 0.0
C486 C 0.17523 0.24854 0.43635 0.0
C487 C 0.18159 0.26781 0.41144 0.0
C488 C 0.20668 0.22963 0.40126 0.0
C489 C 0.19966 0.26686 0.37912 0.0
C490 C 0.24181 0.21267 0.37215 0.0
C491 C 0.2373 0.17983 0.44313 0.0
N492 N 0.21165 0.24822 0.37537 0.0
N493 N 0.22097 0.19473 0.43562 0.0
H494 H 0.86471 0.23696 0.46416 0.0
H495 H 0.76599 0.15396 0.519 0.0
H496 H 0.83078 0.23377 0.60554 0.0
H497 H 0.77566 0.18778 0.37924 0.0
H498 H 0.80045 0.17022 0.55078 0.0
H499 H 0.84308 0.20543 0.43448 0.0
C500 C 0.85339 0.22906 0.4897 0.0
C501 C 0.84925 0.23814 0.5371 0.0
C502 C 0.79533 0.17344 0.5126 0.0
C503 C 0.82465 0.20223 0.50347 0.0
C504 C 0.77583 0.16412 0.49444 0.0
C505 C 0.7681 0.1697 0.44664 0.0
C506 C 0.80724 0.18799 0.48222 0.0
C507 C 0.78114 0.1832 0.41639 0.0
C508 C 0.84096 0.21121 0.47258 0.0
C509 C 0.83424 0.22739 0.5685 0.0
N510 N 0.80004 0.19203 0.4348 0.0
N511 N 0.82223 0.21015 0.55089 0.0
H512 H 0.1576 0.39773 0.36425 0.0
H513 H 0.12286 0.36846 0.09511 0.0
H514 H 0.10787 0.35022 0.32375 0.0
H515 H 0.17475 0.41361 0.13563 0.0
H516 H 0.106 0.37446 0.17661 0.0
H517 H 0.15231 0.41582 0.28389 0.0
C518 C 0.14516 0.39142 0.33884 0.0
C519 C 0.13385 0.37189 0.34948 0.0
C520 C 0.12073 0.38357 0.16727 0.0
C521 C 0.1281 0.39216 0.25719 0.0
C522 C 0.1304 0.38011 0.12073 0.0
C523 C 0.15078 0.38975 0.10976 0.0
C524 C 0.13189 0.39627 0.20329 0.0
C525 C 0.1594 0.40527 0.14336 0.0
C526 C 0.14209 0.40181 0.29299 0.0
C527 C 0.11742 0.36487 0.31623 0.0
N528 N 0.15028 0.40753 0.18942 0.0
N529 N 0.11551 0.3746 0.27073 0.0
H530 H 0.65488 0.18188 0.28694 0.0
H531 H 0.66397 0.13772 0.01268 0.0
H532 H 0.69145 0.12331 0.25149 0.0
H533 H 0.61334 0.18256 0.06027 0.0
H534 H 0.67143 0.12888 0.10013 0.0
H535 H 0.63725 0.17998 0.20529 0.0
C536 C 0.65919 0.16857 0.26184 0.0
C537 C 0.67498 0.15297 0.27545 0.0
C538 C 0.65836 0.14028 0.09144 0.0
C539 C 0.6548 0.15068 0.18174 0.0
C540 C 0.65411 0.14537 0.04154 0.0
C541 C 0.63838 0.16131 0.02939 0.0
C542 C 0.64705 0.1515 0.1293 0.0
C543 C 0.62583 0.17042 0.06806 0.0
C544 C 0.64893 0.16736 0.21539 0.0
C545 C 0.67954 0.1358 0.24205 0.0
N546 N 0.63078 0.16574 0.11645 0.0
N547 N 0.66977 0.13532 0.19617 0.0
H548 H 0.84756 0.64546 0.3558 0.0
H549 H 0.86137 0.67037 0.07402 0.0
H550 H 0.89635 0.69082 0.30127 0.0
H551 H 0.82686 0.61319 0.12789 0.0
H552 H 0.88024 0.67341 0.15443 0.0
H553 H 0.84569 0.62842 0.27317 0.0
C554 C 0.8583 0.65144 0.32651 0.0
C555 C 0.87185 0.66974 0.33478 0.0
C556 C 0.86896 0.65986 0.14841 0.0
C557 C 0.86933 0.65084 0.23977 0.0
C558 C 0.85812 0.65816 0.10252 0.0
C559 C 0.84212 0.64184 0.09487 0.0
C560 C 0.86338 0.64543 0.18727 0.0
C561 C 0.83884 0.62622 0.13256 0.0
C562 C 0.85726 0.64171 0.27933 0.0
C563 C 0.88559 0.6768 0.29605 0.0
N564 N 0.84896 0.62873 0.17769 0.0
N565 N 0.88355 0.6677 0.24963 0.0
H566 H 0.35978 0.83111 0.39477 0.0
H567 H 0.38243 0.82708 0.13941 0.0
H568 H 0.31804 0.88599 0.35807 0.0
H569 H 0.31962 0.85932 0.12555 0.0
H570 H 0.38176 0.83416 0.22956 0.0
H571 H 0.36771 0.82619 0.30623 0.0
C572 C 0.35252 0.84234 0.3681 0.0
C573 C 0.33812 0.85892 0.38378 0.0
C574 C 0.368 0.83941 0.20688 0.0
C575 C 0.3475 0.85366 0.28231 0.0
C576 C 0.36846 0.83553 0.15536 0.0
C577 C 0.3509 0.84233 0.12508 0.0
C578 C 0.34982 0.85012 0.22801 0.0
C579 C 0.33337 0.8535 0.14755 0.0
C580 C 0.35727 0.83966 0.31748 0.0
C581 C 0.3292 0.87297 0.34762 0.0
N582 N 0.33329 0.85703 0.19766 0.0
N583 N 0.33384 0.86984 0.29843 0.0
H584 H 0.16175 0.61568 0.60185 0.0
H585 H 0.12424 0.6452 0.86754 0.0
H586 H 0.1114 0.66265 0.63856 0.0
H587 H 0.17659 0.60043 0.83101 0.0
H588 H 0.10798 0.63853 0.7854 0.0
H589 H 0.15543 0.59743 0.68159 0.0
C590 C 0.14897 0.62184 0.62625 0.0
C591 C 0.13782 0.64132 0.61491 0.0
C592 C 0.12268 0.62965 0.79576 0.0
C593 C 0.13088 0.62086 0.70648 0.0
C594 C 0.13201 0.6335 0.84266 0.0
C595 C 0.15236 0.62419 0.85491 0.0
C596 C 0.13416 0.61692 0.76066 0.0
C597 C 0.16127 0.60856 0.82224 0.0
C598 C 0.14531 0.61136 0.67174 0.0
C599 C 0.1209 0.6481 0.64677 0.0
N600 N 0.15249 0.60594 0.7758 0.0
N601 N 0.11841 0.63829 0.692 0.0
H602 H 0.30653 0.1287 0.63967 0.0
H603 H 0.37523 0.18976 0.85498 0.0
H604 H 0.35107 0.18271 0.61257 0.0
H605 H 0.3177 0.1501 0.88377 0.0
H606 H 0.37091 0.1823 0.76542 0.0
H607 H 0.31473 0.13154 0.72936 0.0
C608 C 0.3181 0.14105 0.65254 0.0
C609 C 0.32796 0.15564 0.61878 0.0
C610 C 0.35931 0.17517 0.79146 0.0
C611 C 0.33749 0.15885 0.72076 0.0
C612 C 0.3618 0.17937 0.84251 0.0
C613 C 0.34667 0.17074 0.87673 0.0
C614 C 0.34168 0.16212 0.77471 0.0
C615 C 0.3296 0.1573 0.85857 0.0
C616 C 0.32274 0.14269 0.70363 0.0
C617 C 0.34289 0.17129 0.63738 0.0
N618 N 0.32753 0.15346 0.80872 0.0
N619 N 0.34718 0.17251 0.68716 0.0
H620 H 0.84618 0.39026 0.88984 0.0
H621 H 0.90649 0.31329 0.69619 0.0
H622 H 0.87771 0.32905 0.92717 0.0
H623 H 0.86165 0.36549 0.6597 0.0
H624 H 0.90897 0.32758 0.78222 0.0
H625 H 0.86516 0.39007 0.80947 0.0
C626 C 0.85753 0.37707 0.88176 0.0
C627 C 0.85971 0.3592 0.91441 0.0
C628 C 0.89915 0.3363 0.7549 0.0
C629 C 0.88121 0.35877 0.82236 0.0
C630 C 0.89782 0.3282 0.70588 0.0
C631 C 0.88344 0.33799 0.6716 0.0
C632 C 0.88606 0.35426 0.76905 0.0
C633 C 0.87255 0.35725 0.68565 0.0
C634 C 0.86835 0.37696 0.83579 0.0
C635 C 0.87501 0.34282 0.90238 0.0
N636 N 0.87379 0.36456 0.73356 0.0
N637 N 0.88477 0.34269 0.85672 0.0
H638 H 0.67208 0.86247 0.91044 0.0
H639 H 0.65067 0.84448 0.6282 0.0
H640 H 0.61505 0.82795 0.85438 0.0
H641 H 0.69549 0.89405 0.68283 0.0
H642 H 0.63259 0.84402 0.70948 0.0
H643 H 0.67625 0.8802 0.82926 0.0
C644 C 0.66013 0.85901 0.88128 0.0
C645 C 0.64354 0.8433 0.88858 0.0
C646 C 0.64601 0.85543 0.70359 0.0
C647 C 0.64845 0.86319 0.79534 0.0
C648 C 0.65636 0.85564 0.6572 0.0
C649 C 0.67479 0.86902 0.64943 0.0
C650 C 0.65463 0.86818 0.74294 0.0
C651 C 0.6814 0.88337 0.68772 0.0
C652 C 0.66247 0.86919 0.83494 0.0
C653 C 0.62827 0.83973 0.85001 0.0
N654 N 0.67169 0.88215 0.73346 0.0
N655 N 0.63143 0.84916 0.80451 0.0
H656 H 0.87863 0.6701 0.61361 0.0
H657 H 0.78848 0.67712 0.82361 0.0
H658 H 0.81187 0.69051 0.58509 0.0
H659 H 0.8385 0.6273 0.83265 0.0
H660 H 0.79947 0.68482 0.73787 0.0
H661 H 0.86697 0.65637 0.69613 0.0
C662 C 0.86158 0.67159 0.62448 0.0
C663 C 0.84625 0.68166 0.59259 0.0
C664 C 0.80795 0.67204 0.75831 0.0
C665 C 0.83301 0.66621 0.68622 0.0
C666 C 0.80173 0.6677 0.80725 0.0
C667 C 0.81263 0.65158 0.83498 0.0
C668 C 0.82555 0.66053 0.73713 0.0
C669 C 0.82965 0.63978 0.81211 0.0
C670 C 0.85495 0.66365 0.67129 0.0
C671 C 0.82433 0.68302 0.60839 0.0
N672 N 0.83587 0.64471 0.76442 0.0
N673 N 0.81846 0.67562 0.65419 0.0
H674 H 0.33117 0.91895 0.6563 0.0
H675 H 0.40136 0.86021 0.8552 0.0
H676 H 0.38638 0.87684 0.62594 0.0
H677 H 0.34445 0.90009 0.88551 0.0
H678 H 0.40624 0.87954 0.77607 0.0
H679 H 0.34596 0.92598 0.74001 0.0
C680 C 0.3468 0.91179 0.66662 0.0
C681 C 0.35705 0.89646 0.63531 0.0
C682 C 0.39302 0.8845 0.80064 0.0
C683 C 0.37376 0.90398 0.73093 0.0
C684 C 0.39023 0.87343 0.84588 0.0
C685 C 0.37182 0.87781 0.87563 0.0
C686 C 0.37703 0.89965 0.78497 0.0
C687 C 0.35833 0.89553 0.86248 0.0
C688 C 0.35524 0.91574 0.71452 0.0
C689 C 0.37749 0.88804 0.64999 0.0
N690 N 0.36081 0.90539 0.81739 0.0
N691 N 0.38487 0.8914 0.69734 0.0
H692 H 0.13063 0.32801 0.62333 0.0
H693 H 0.20188 0.38787 0.83654 0.0
H694 H 0.18995 0.36479 0.59373 0.0
H695 H 0.15324 0.33773 0.86546 0.0
H696 H 0.19341 0.38506 0.74686 0.0
H697 H 0.13446 0.337 0.71233 0.0
C698 C 0.14435 0.33809 0.63549 0.0
C699 C 0.16015 0.34541 0.60128 0.0
C700 C 0.18453 0.37479 0.77302 0.0
C701 C 0.16458 0.35579 0.7026 0.0
C702 C 0.18932 0.37643 0.82408 0.0
C703 C 0.17846 0.3628 0.85828 0.0
C704 C 0.16865 0.35959 0.75643 0.0
C705 C 0.16226 0.34832 0.84026 0.0
C706 C 0.14655 0.34318 0.68621 0.0
C707 C 0.17755 0.35854 0.61897 0.0
N708 N 0.15791 0.34703 0.79056 0.0
N709 N 0.17936 0.36323 0.6685 0.0
H710 H 0.60166 0.19646 0.73761 0.0
H711 H 0.66277 0.11988 0.54419 0.0
H712 H 0.62815 0.13267 0.77163 0.0
H713 H 0.64723 0.18822 0.52091 0.0
H714 H 0.63825 0.11958 0.61662 0.0
H715 H 0.60499 0.18814 0.64817 0.0
C716 C 0.60726 0.18034 0.72621 0.0
C717 C 0.61524 0.16543 0.76163 0.0
C718 C 0.63993 0.13452 0.59507 0.0
C719 C 0.61962 0.15605 0.6602 0.0
C720 C 0.654 0.13473 0.55391 0.0
C721 C 0.65758 0.15429 0.52752 0.0
C722 C 0.62945 0.15401 0.60987 0.0
C723 C 0.64546 0.17293 0.54112 0.0
C724 C 0.6094 0.17567 0.67521 0.0
C725 C 0.62234 0.14478 0.74513 0.0
N726 N 0.63221 0.17243 0.58182 0.0
N727 N 0.62488 0.14087 0.69549 0.0
H728 H 0.88116 0.34 0.38869 0.0
H729 H 0.79152 0.32869 0.18268 0.0
H730 H 0.81292 0.33026 0.42688 0.0
H731 H 0.84378 0.37569 0.16217 0.0
H732 H 0.80042 0.32707 0.27207 0.0
H733 H 0.86967 0.35172 0.30455 0.0
C734 C 0.86382 0.34059 0.37967 0.0
C735 C 0.848 0.33387 0.41465 0.0
C736 C 0.8097 0.33804 0.24822 0.0
C737 C 0.83493 0.34692 0.319 0.0
C738 C 0.80464 0.33894 0.19743 0.0
C739 C 0.81687 0.35245 0.1657 0.0
C740 C 0.82762 0.35016 0.26687 0.0
C741 C 0.83389 0.36527 0.18601 0.0
C742 C 0.8573 0.34736 0.33188 0.0
C743 C 0.82573 0.33509 0.40109 0.0
N744 N 0.8391 0.3635 0.23545 0.0
N745 N 0.81988 0.34108 0.35408 0.0
H746 H 0.67753 0.78807 0.15943 0.0
H747 H 0.67703 0.87824 0.3714 0.0
H748 H 0.63094 0.84113 0.15154 0.0
H749 H 0.69322 0.81025 0.39815 0.0
H750 H 0.66237 0.86765 0.28854 0.0
H751 H 0.68629 0.79853 0.24524 0.0
C752 C 0.66904 0.80188 0.17608 0.0
C753 C 0.65351 0.81378 0.14867 0.0
C754 C 0.66895 0.85515 0.31307 0.0
C755 C 0.66371 0.8261 0.24659 0.0
C756 C 0.67741 0.86115 0.36006 0.0
C757 C 0.68655 0.84514 0.39157 0.0
C758 C 0.67004 0.83312 0.29761 0.0
C759 C 0.68649 0.82322 0.37517 0.0
C760 C 0.67399 0.80781 0.22505 0.0
C761 C 0.64291 0.83151 0.17187 0.0
N762 N 0.6786 0.81793 0.32925 0.0
N763 N 0.64844 0.8374 0.2196 0.0
H764 H 0.13528 0.68704 0.34492 0.0
H765 H 0.20398 0.6272 0.12923 0.0
H766 H 0.19534 0.65135 0.3718 0.0
H767 H 0.15402 0.67587 0.10151 0.0
H768 H 0.1969 0.63055 0.21925 0.0
H769 H 0.13801 0.67786 0.25591 0.0
C770 C 0.14897 0.67721 0.33215 0.0
C771 C 0.16525 0.67018 0.36565 0.0
C772 C 0.18742 0.64037 0.19331 0.0
C773 C 0.16839 0.65954 0.26427 0.0
C774 C 0.1914 0.6384 0.14204 0.0
C775 C 0.17977 0.65149 0.10804 0.0
C776 C 0.1716 0.65537 0.21035 0.0
C777 C 0.16359 0.6657 0.12653 0.0
C778 C 0.15053 0.67199 0.28142 0.0
C779 C 0.18257 0.65735 0.34716 0.0
N780 N 0.16005 0.66734 0.17646 0.0
N781 N 0.18373 0.65251 0.29764 0.0
H782 H 0.38442 0.14661 0.38552 0.0
H783 H 0.35422 0.11673 0.11194 0.0
H784 H 0.33288 0.10192 0.34031 0.0
H785 H 0.4007 0.1667 0.15687 0.0
H786 H 0.35851 0.09924 0.19335 0.0
H787 H 0.40201 0.14145 0.30448 0.0
C788 C 0.37713 0.13521 0.35898 0.0
C789 C 0.35668 0.12541 0.36861 0.0
C790 C 0.36828 0.11366 0.18501 0.0
C791 C 0.37644 0.11982 0.27563 0.0
C792 C 0.36582 0.12367 0.13853 0.0
C793 C 0.37644 0.14368 0.12866 0.0
C794 C 0.38101 0.12407 0.22208 0.0
C795 C 0.39175 0.1516 0.16361 0.0
C796 C 0.3872 0.13225 0.31271 0.0
C797 C 0.34832 0.11029 0.33375 0.0
N798 N 0.39308 0.14214 0.20954 0.0
N799 N 0.35789 0.10847 0.28803 0.0
loop_
_geom_bond_atom_site_label_1
_geom_bond_atom_site_label_2
_geom_bond_distance
_geom_bond_site_symmetry_2
_ccdc_geom_bond_type
Zn0 O3 2.031 1_554 S
Zn0 O5 2.049 . S
Zn0 O10 2.067 . S
Zn1 O2 1.962 . S
Zn1 O4 1.986 1_556 S
Zn1 O6 1.996 1_556 S
Zn1 O9 1.942 1_556 S
O2 Zn1 1.962 . S
O2 C7 1.254 . S
O3 Zn0 2.031 1_556 S
O3 C7 1.269 . S
O4 Zn1 1.986 1_554 S
O4 C11 1.262 1_554 S
O5 Zn0 2.049 . S
O5 C13 1.260 . S
O6 Zn1 1.996 1_554 S
O6 C13 1.257 . S
C7 O2 1.254 . S
C7 O3 1.269 . S
C8 O9 1.250 . S
C8 O10 1.270 . S
O9 Zn1 1.942 1_554 S
O9 C8 1.250 . S
O10 Zn0 2.067 . S
O10 C8 1.270 . S
C11 O4 1.262 1_556 S
C11 O12 1.232 . S
O12 C11 1.232 . S
C13 O5 1.260 . S
C13 O6 1.257 . S
Zn14 O17 2.031 1_554 S
Zn14 O19 2.049 . S
Zn14 O24 2.067 . S
Zn15 O16 1.962 . S
Zn15 O18 1.986 1_556 S
Zn15 O20 1.996 1_556 S
Zn15 O23 1.942 1_556 S
O16 Zn15 1.962 . S
O16 C21 1.254 . S
O17 Zn14 2.031 1_556 S
O17 C21 1.269 . S
O18 Zn15 1.986 1_554 S
O18 C25 1.262 1_554 S
O19 Zn14 2.049 . S
O19 C27 1.260 . S
O20 Zn15 1.996 1_554 S
O20 C27 1.257 . S
C21 O16 1.254 . S
C21 O17 1.269 . S
C22 O23 1.250 . S
C22 O24 1.270 . S
O23 Zn15 1.942 1_554 S
O23 C22 1.250 . S
O24 Zn14 2.067 . S
O24 C22 1.270 . S
C25 O18 1.262 1_556 S
C25 O26 1.232 . S
O26 C25 1.232 . S
C27 O19 1.260 . S
C27 O20 1.257 . S
Zn28 O31 2.031 1_554 S
Zn28 O33 2.049 . S
Zn28 O38 2.067 . S
Zn29 O30 1.962 . S
Zn29 O32 1.986 1_556 S
Zn29 O34 1.996 1_556 S
Zn29 O37 1.942 1_556 S
O30 Zn29 1.962 . S
O30 C35 1.254 . S
O31 Zn28 2.031 1_556 S
O31 C35 1.269 . S
O32 Zn29 1.986 1_554 S
O32 C39 1.262 1_554 S
O33 Zn28 2.049 . S
O33 C41 1.260 . S
O34 Zn29 1.996 1_554 S
O34 C41 1.257 . S
C35 O30 1.254 . S
C35 O31 1.269 . S
C36 O37 1.250 . S
C36 O38 1.270 . S
O37 Zn29 1.942 1_554 S
O37 C36 1.250 . S
O38 Zn28 2.067 . S
O38 C36 1.270 . S
C39 O32 1.262 1_556 S
C39 O40 1.232 . S
O40 C39 1.232 . S
C41 O33 1.260 . S
C41 O34 1.257 . S
Zn42 O45 2.031 1_554 S
Zn42 O47 2.049 . S
Zn42 O52 2.067 . S
Zn43 O44 1.962 . S
Zn43 O46 1.986 1_556 S
Zn43 O48 1.996 1_556 S
Zn43 O51 1.942 1_556 S
O44 Zn43 1.962 . S
O44 C49 1.254 . S
O45 Zn42 2.031 1_556 S
O45 C49 1.269 . S
O46 Zn43 1.986 1_554 S
O46 C53 1.262 1_554 S
O47 Zn42 2.049 . S
O47 C55 1.260 . S
O48 Zn43 1.996 1_554 S
O48 C55 1.257 . S
C49 O44 1.254 . S
C49 O45 1.269 . S
C50 O51 1.250 . S
C50 O52 1.270 . S
O51 Zn43 1.942 1_554 S
O51 C50 1.250 . S
O52 Zn42 2.067 . S
O52 C50 1.270 . S
C53 O46 1.262 1_556 S
C53 O54 1.232 . S
O54 C53 1.232 . S
C55 O47 1.260 . S
C55 O48 1.257 . S
Zn56 O59 2.031 1_556 S
Zn56 O61 2.049 . S
Zn56 O66 2.067 . S
Zn57 O58 1.962 . S
Zn57 O60 1.986 1_554 S
Zn57 O62 1.996 1_554 S
Zn57 O65 1.943 . S
O58 Zn57 1.962 . S
O58 C63 1.254 . S
O59 Zn56 2.031 1_554 S
O59 C63 1.269 . S
O60 Zn57 1.986 1_556 S
O60 C67 1.262 1_556 S
O61 Zn56 2.049 . S
O61 C69 1.260 . S
O62 Zn57 1.996 1_556 S
O62 C69 1.257 . S
C63 O58 1.254 . S
C63 O59 1.269 . S
C64 O65 1.248 1_556 S
C64 O66 1.270 . S
O65 Zn57 1.943 . S
O65 C64 1.248 1_554 S
O66 Zn56 2.067 . S
O66 C64 1.270 . S
C67 O60 1.262 1_554 S
C67 O68 1.232 . S
O68 C67 1.232 . S
C69 O61 1.260 . S
C69 O62 1.257 . S
Zn70 O73 2.031 1_556 S
Zn70 O75 2.049 . S
Zn70 O80 2.067 . S
Zn71 O72 1.962 . S
Zn71 O74 1.986 1_554 S
Zn71 O76 1.996 1_554 S
Zn71 O79 1.943 . S
O72 Zn71 1.962 . S
O72 C77 1.254 . S
O73 Zn70 2.031 1_554 S
O73 C77 1.269 . S
O74 Zn71 1.986 1_556 S
O74 C81 1.262 1_556 S
O75 Zn70 2.049 . S
O75 C83 1.260 . S
O76 Zn71 1.996 1_556 S
O76 C83 1.257 . S
C77 O72 1.254 . S
C77 O73 1.269 . S
C78 O79 1.248 1_556 S
C78 O80 1.270 . S
O79 Zn71 1.943 . S
O79 C78 1.248 1_554 S
O80 Zn70 2.067 . S
O80 C78 1.270 . S
C81 O74 1.262 1_554 S
C81 O82 1.232 . S
O82 C81 1.232 . S
C83 O75 1.260 . S
C83 O76 1.257 . S
Zn84 O87 2.031 1_556 S
Zn84 O89 2.049 . S
Zn84 O94 2.067 . S
Zn85 O86 1.962 . S
Zn85 O88 1.986 1_554 S
Zn85 O90 1.996 1_554 S
Zn85 O93 1.943 . S
O86 Zn85 1.962 . S
O86 C91 1.254 . S
O87 Zn84 2.031 1_554 S
O87 C91 1.269 . S
O88 Zn85 1.986 1_556 S
O88 C95 1.262 1_556 S
O89 Zn84 2.049 . S
O89 C97 1.260 . S
O90 Zn85 1.996 1_556 S
O90 C97 1.257 . S
C91 O86 1.254 . S
C91 O87 1.269 . S
C92 O93 1.248 1_556 S
C92 O94 1.270 . S
O93 Zn85 1.943 . S
O93 C92 1.248 1_554 S
O94 Zn84 2.067 . S
O94 C92 1.270 . S
C95 O88 1.262 1_554 S
C95 O96 1.232 . S
O96 C95 1.232 . S
C97 O89 1.260 . S
C97 O90 1.257 . S
Zn98 O101 2.031 1_556 S
Zn98 O103 2.049 . S
Zn98 O108 2.067 . S
Zn99 O100 1.962 . S
Zn99 O102 1.986 1_554 S
Zn99 O104 1.996 1_554 S
Zn99 O107 1.943 . S
O100 Zn99 1.962 . S
O100 C105 1.254 . S
O101 Zn98 2.031 1_554 S
O101 C105 1.269 . S
O102 Zn99 1.986 1_556 S
O102 C109 1.262 1_556 S
O103 Zn98 2.049 . S
O103 C111 1.260 . S
O104 Zn99 1.996 1_556 S
O104 C111 1.257 . S
C105 O100 1.254 . S
C105 O101 1.269 . S
C106 O107 1.248 1_556 S
C106 O108 1.270 . S
O107 Zn99 1.943 . S
O107 C106 1.248 1_554 S
O108 Zn98 2.067 . S
O108 C106 1.270 . S
C109 O102 1.262 1_554 S
C109 O110 1.232 . S
O110 C109 1.232 . S
C111 O103 1.260 . S
C111 O104 1.257 . S
Zn112 O115 2.031 . S
Zn112 O117 2.049 . S
Zn112 O122 2.067 . S
Zn113 O114 1.962 . S
Zn113 O116 1.986 . S
Zn113 O118 1.996 . S
Zn113 O121 1.943 . S
O114 Zn113 1.962 . S
O114 C119 1.254 . S
O115 Zn112 2.031 . S
O115 C119 1.269 . S
O116 Zn113 1.986 . S
O116 C123 1.262 . S
O117 Zn112 2.049 . S
O117 C125 1.260 . S
O118 Zn113 1.996 . S
O118 C125 1.257 . S
C119 O114 1.254 . S
C119 O115 1.269 . S
C120 O121 1.249 . S
C120 O122 1.270 . S
O121 Zn113 1.943 . S
O121 C120 1.249 . S
O122 Zn112 2.067 . S
O122 C120 1.270 . S
C123 O116 1.262 . S
C123 O124 1.232 . S
O124 C123 1.232 . S
C125 O117 1.260 . S
C125 O118 1.257 . S
Zn126 O129 2.031 . S
Zn126 O131 2.049 . S
Zn126 O136 2.067 . S
Zn127 O128 1.962 . S
Zn127 O130 1.986 . S
Zn127 O132 1.996 . S
Zn127 O135 1.943 . S
O128 Zn127 1.962 . S
O128 C133 1.254 . S
O129 Zn126 2.031 . S
O129 C133 1.269 . S
O130 Zn127 1.986 . S
O130 C137 1.262 . S
O131 Zn126 2.049 . S
O131 C139 1.260 . S
O132 Zn127 1.996 . S
O132 C139 1.257 . S
C133 O128 1.254 . S
C133 O129 1.269 . S
C134 O135 1.249 . S
C134 O136 1.270 . S
O135 Zn127 1.943 . S
O135 C134 1.249 . S
O136 Zn126 2.067 . S
O136 C134 1.270 . S
C137 O130 1.262 . S
C137 O138 1.232 . S
O138 C137 1.232 . S
C139 O131 1.260 . S
C139 O132 1.257 . S
Zn140 O143 2.031 . S
Zn140 O145 2.049 . S
Zn140 O150 2.067 . S
Zn141 O142 1.962 . S
Zn141 O144 1.986 . S
Zn141 O146 1.996 . S
Zn141 O149 1.943 . S
O142 Zn141 1.962 . S
O142 C147 1.254 . S
O143 Zn140 2.031 . S
O143 C147 1.269 . S
O144 Zn141 1.986 . S
O144 C151 1.262 . S
O145 Zn140 2.049 . S
O145 C153 1.260 . S
O146 Zn141 1.996 . S
O146 C153 1.257 . S
C147 O142 1.254 . S
C147 O143 1.269 . S
C148 O149 1.249 . S
C148 O150 1.270 . S
O149 Zn141 1.943 . S
O149 C148 1.249 . S
O150 Zn140 2.067 . S
O150 C148 1.270 . S
C151 O144 1.262 . S
C151 O152 1.232 . S
O152 C151 1.232 . S
C153 O145 1.260 . S
C153 O146 1.257 . S
Zn154 O157 2.031 . S
Zn154 O159 2.049 . S
Zn154 O164 2.067 . S
Zn155 O156 1.962 . S
Zn155 O158 1.986 . S
Zn155 O160 1.996 . S
Zn155 O163 1.943 . S
O156 Zn155 1.962 . S
O156 C161 1.254 . S
O157 Zn154 2.031 . S
O157 C161 1.269 . S
O158 Zn155 1.986 . S
O158 C165 1.262 . S
O159 Zn154 2.049 . S
O159 C167 1.260 . S
O160 Zn155 1.996 . S
O160 C167 1.257 . S
C161 O156 1.254 . S
C161 O157 1.269 . S
C162 O163 1.249 . S
C162 O164 1.270 . S
O163 Zn155 1.943 . S
O163 C162 1.249 . S
O164 Zn154 2.067 . S
O164 C162 1.270 . S
C165 O158 1.262 . S
C165 O166 1.232 . S
O166 C165 1.232 . S
C167 O159 1.260 . S
C167 O160 1.257 . S
Zn168 O171 2.031 . S
Zn168 O173 2.049 . S
Zn168 O178 2.067 . S
Zn169 O170 1.962 . S
Zn169 O172 1.986 . S
Zn169 O174 1.996 . S
Zn169 O177 1.943 . S
O170 Zn169 1.962 . S
O170 C175 1.254 . S
O171 Zn168 2.031 . S
O171 C175 1.269 . S
O172 Zn169 1.986 . S
O172 C179 1.262 . S
O173 Zn168 2.049 . S
O173 C181 1.260 . S
O174 Zn169 1.996 . S
O174 C181 1.257 . S
C175 O170 1.254 . S
C175 O171 1.269 . S
C176 O177 1.249 . S
C176 O178 1.270 . S
O177 Zn169 1.943 . S
O177 C176 1.249 . S
O178 Zn168 2.067 . S
O178 C176 1.270 . S
C179 O172 1.262 . S
C179 O180 1.232 . S
O180 C179 1.232 . S
C181 O173 1.260 . S
C181 O174 1.257 . S
Zn182 O185 2.031 . S
Zn182 O187 2.049 . S
Zn182 O192 2.067 . S
Zn183 O184 1.962 . S
Zn183 O186 1.986 . S
Zn183 O188 1.996 . S
Zn183 O191 1.943 . S
O184 Zn183 1.962 . S
O184 C189 1.254 . S
O185 Zn182 2.031 . S
O185 C189 1.269 . S
O186 Zn183 1.986 . S
O186 C193 1.262 . S
O187 Zn182 2.049 . S
O187 C195 1.260 . S
O188 Zn183 1.996 . S
O188 C195 1.257 . S
C189 O184 1.254 . S
C189 O185 1.269 . S
C190 O191 1.249 . S
C190 O192 1.270 . S
O191 Zn183 1.943 . S
O191 C190 1.249 . S
O192 Zn182 2.067 . S
O192 C190 1.270 . S
C193 O186 1.262 . S
C193 O194 1.232 . S
O194 C193 1.232 . S
C195 O187 1.260 . S
C195 O188 1.257 . S
Zn196 O199 2.031 . S
Zn196 O201 2.049 . S
Zn196 O206 2.067 . S
Zn197 O198 1.962 . S
Zn197 O200 1.986 . S
Zn197 O202 1.996 . S
Zn197 O205 1.943 . S
O198 Zn197 1.962 . S
O198 C203 1.254 . S
O199 Zn196 2.031 . S
O199 C203 1.269 . S
O200 Zn197 1.986 . S
O200 C207 1.262 . S
O201 Zn196 2.049 . S
O201 C209 1.260 . S
O202 Zn197 1.996 . S
O202 C209 1.257 . S
C203 O198 1.254 . S
C203 O199 1.269 . S
C204 O205 1.249 . S
C204 O206 1.270 . S
O205 Zn197 1.943 . S
O205 C204 1.249 . S
O206 Zn196 2.067 . S
O206 C204 1.270 . S
C207 O200 1.262 . S
C207 O208 1.232 . S
O208 C207 1.232 . S
C209 O201 1.260 . S
C209 O202 1.257 . S
Zn210 O213 2.031 . S
Zn210 O215 2.049 . S
Zn210 O220 2.067 . S
Zn211 O212 1.962 . S
Zn211 O214 1.986 . S
Zn211 O216 1.996 . S
Zn211 O219 1.943 . S
O212 Zn211 1.962 . S
O212 C217 1.254 . S
O213 Zn210 2.031 . S
O213 C217 1.269 . S
O214 Zn211 1.986 . S
O214 C221 1.262 . S
O215 Zn210 2.049 . S
O215 C223 1.260 . S
O216 Zn211 1.996 . S
O216 C223 1.257 . S
C217 O212 1.254 . S
C217 O213 1.269 . S
C218 O219 1.249 . S
C218 O220 1.270 . S
O219 Zn211 1.943 . S
O219 C218 1.249 . S
O220 Zn210 2.067 . S
O220 C218 1.270 . S
C221 O214 1.262 . S
C221 O222 1.232 . S
O222 C221 1.232 . S
C223 O215 1.260 . S
C223 O216 1.257 . S
H224 C230 0.930 . S
H225 C234 0.930 . S
H226 C239 0.929 . S
H227 C237 0.929 . S
H228 C232 0.929 . S
H229 C238 0.929 . S
C230 H224 0.930 . S
C230 C231 1.367 . S
C230 C238 1.378 . S
C231 C230 1.367 . S
C231 C239 1.433 1_556 S
C232 H228 0.929 . S
C232 C234 1.378 . S
C232 C236 1.350 . S
C233 C236 1.463 1_556 S
C233 C238 1.350 . S
C233 N241 1.427 1_556 S
C234 H225 0.930 . S
C234 C232 1.378 . S
C234 C235 1.367 . S
C235 C234 1.367 . S
C235 C237 1.433 1_554 S
C236 C232 1.350 . S
C236 C233 1.463 1_554 S
C236 N240 1.427 1_554 S
C237 H227 0.929 . S
C237 C235 1.433 1_556 S
C237 N240 1.384 . S
C238 H229 0.929 . S
C238 C230 1.378 . S
C238 C233 1.350 . S
C239 H226 0.929 . S
C239 C231 1.433 1_554 S
C239 N241 1.384 . S
N240 C236 1.427 1_556 S
N240 C237 1.384 . S
N241 C233 1.427 1_554 S
N241 C239 1.384 . S
H242 C248 0.930 . S
H243 C252 0.930 . S
H244 C257 0.929 . S
H245 C255 0.929 . S
H246 C250 0.929 . S
H247 C256 0.929 . S
C248 H242 0.930 . S
C248 C249 1.367 . S
C248 C256 1.378 . S
C249 C248 1.367 . S
C249 C257 1.433 1_556 S
C250 H246 0.929 . S
C250 C252 1.378 . S
C250 C254 1.350 . S
C251 C254 1.462 1_556 S
C251 C256 1.357 . S
C251 N259 1.421 1_556 S
C252 H243 0.930 . S
C252 C250 1.378 . S
C252 C253 1.367 . S
C253 C252 1.367 . S
C253 C255 1.433 1_554 S
C254 C250 1.350 . S
C254 C251 1.462 1_554 S
C254 N258 1.427 1_554 S
C255 H245 0.929 . S
C255 C253 1.433 1_556 S
C255 N258 1.384 . S
C256 H247 0.929 . S
C256 C248 1.378 . S
C256 C251 1.357 . S
C257 H244 0.929 . S
C257 C249 1.433 1_554 S
C257 N259 1.384 . S
N258 C254 1.427 1_556 S
N258 C255 1.384 . S
N259 C251 1.421 1_554 S
N259 C257 1.384 . S
H260 C266 0.930 . S
H261 C270 0.930 . S
H262 C275 0.929 . S
H263 C273 0.929 . S
H264 C268 0.929 . S
H265 C274 0.929 . S
C266 H260 0.930 . S
C266 C267 1.367 . S
C266 C274 1.378 . S
C267 C266 1.367 . S
C267 C275 1.433 1_556 S
C268 H264 0.929 . S
C268 C270 1.378 . S
C268 C272 1.350 . S
C269 C272 1.462 1_556 S
C269 C274 1.351 . S
C269 N277 1.427 1_556 S
C270 H261 0.930 . S
C270 C268 1.378 . S
C270 C271 1.367 . S
C271 C270 1.367 . S
C271 C273 1.433 1_554 S
C272 C268 1.350 . S
C272 C269 1.462 1_554 S
C272 N276 1.427 1_554 S
C273 H263 0.929 . S
C273 C271 1.433 1_556 S
C273 N276 1.384 . S
C274 H265 0.929 . S
C274 C266 1.378 . S
C274 C269 1.351 . S
C275 H262 0.929 . S
C275 C267 1.433 1_554 S
C275 N277 1.384 . S
N276 C272 1.427 1_556 S
N276 C273 1.384 . S
N277 C269 1.427 1_554 S
N277 C275 1.384 . S
H278 C284 0.930 . S
H279 C288 0.930 . S
H280 C293 0.929 . S
H281 C291 0.929 . S
H282 C286 0.929 . S
H283 C292 0.929 . S
C284 H278 0.930 . S
C284 C285 1.356 1_554 S
C284 C292 1.378 . S
C285 C284 1.356 1_556 S
C285 C293 1.444 . S
C286 H282 0.929 . S
C286 C288 1.378 . S
C286 C290 1.350 1_556 S
C287 C290 1.463 . S
C287 C292 1.350 . S
C287 N295 1.427 1_554 S
C288 H279 0.930 . S
C288 C286 1.378 . S
C288 C289 1.367 1_556 S
C289 C288 1.367 1_554 S
C289 C291 1.433 . S
C290 C286 1.350 1_554 S
C290 C287 1.463 . S
C290 N294 1.427 . S
C291 H281 0.929 . S
C291 C289 1.433 . S
C291 N294 1.384 . S
C292 H283 0.929 . S
C292 C284 1.378 . S
C292 C287 1.350 . S
C293 H280 0.929 . S
C293 C285 1.444 . S
C293 N295 1.384 . S
N294 C290 1.427 . S
N294 C291 1.384 . S
N295 C287 1.427 1_556 S
N295 C293 1.384 . S
H296 C302 0.930 . S
H297 C306 0.930 . S
H298 C311 0.929 . S
H299 C309 0.929 . S
H300 C304 0.929 . S
H301 C310 0.929 . S
C302 H296 0.930 . S
C302 C303 1.367 . S
C302 C310 1.378 . S
C303 C302 1.367 . S
C303 C311 1.433 . S
C304 H300 0.929 . S
C304 C306 1.378 . S
C304 C308 1.350 . S
C305 C308 1.463 1_545 S
C305 C310 1.350 . S
C305 N313 1.427 . S
C306 H297 0.930 . S
C306 C304 1.378 . S
C306 C307 1.367 . S
C307 C306 1.367 . S
C307 C309 1.433 . S
C308 C304 1.350 . S
C308 C305 1.463 1_565 S
C308 N312 1.427 . S
C309 H299 0.929 . S
C309 C307 1.433 . S
C309 N312 1.384 . S
C310 H301 0.929 . S
C310 C302 1.378 . S
C310 C305 1.350 . S
C311 H298 0.929 . S
C311 C303 1.433 . S
C311 N313 1.384 . S
N312 C308 1.427 . S
N312 C309 1.384 . S
N313 C305 1.427 . S
N313 C311 1.384 . S
H314 C320 0.930 . S
H315 C324 0.930 . S
H316 C329 0.929 . S
H317 C327 0.929 . S
H318 C322 0.929 . S
H319 C328 0.929 . S
C320 H314 0.930 . S
C320 C321 1.367 . S
C320 C328 1.378 . S
C321 C320 1.367 . S
C321 C329 1.433 . S
C322 H318 0.929 . S
C322 C324 1.378 . S
C322 C326 1.350 . S
C323 C326 1.463 1_655 S
C323 C328 1.350 . S
C323 N331 1.427 . S
C324 H315 0.930 . S
C324 C322 1.378 . S
C324 C325 1.367 . S
C325 C324 1.367 . S
C325 C327 1.433 . S
C326 C322 1.350 . S
C326 C323 1.463 1_455 S
C326 N330 1.427 . S
C327 H317 0.929 . S
C327 C325 1.433 . S
C327 N330 1.384 . S
C328 H319 0.929 . S
C328 C320 1.378 . S
C328 C323 1.350 . S
C329 H316 0.929 . S
C329 C321 1.433 . S
C329 N331 1.384 . S
N330 C326 1.427 . S
N330 C327 1.384 . S
N331 C323 1.427 . S
N331 C329 1.384 . S
H332 C338 0.930 . S
H333 C342 0.930 . S
H334 C347 0.929 . S
H335 C345 0.929 . S
H336 C340 0.929 . S
H337 C346 0.929 . S
C338 H332 0.930 . S
C338 C339 1.367 . S
C338 C346 1.378 . S
C339 C338 1.367 . S
C339 C347 1.433 . S
C340 H336 0.929 . S
C340 C342 1.378 . S
C340 C344 1.350 . S
C341 C344 1.463 1_545 S
C341 C346 1.350 . S
C341 N349 1.427 . S
C342 H333 0.930 . S
C342 C340 1.378 . S
C342 C343 1.367 . S
C343 C342 1.367 . S
C343 C345 1.433 . S
C344 C340 1.350 . S
C344 C341 1.463 1_565 S
C344 N348 1.427 . S
C345 H335 0.929 . S
C345 C343 1.433 . S
C345 N348 1.384 . S
C346 H337 0.929 . S
C346 C338 1.378 . S
C346 C341 1.350 . S
C347 H334 0.929 . S
C347 C339 1.433 . S
C347 N349 1.384 . S
N348 C344 1.427 . S
N348 C345 1.384 . S
N349 C341 1.427 . S
N349 C347 1.384 . S
H350 C356 0.930 . S
H351 C360 0.930 . S
H352 C365 0.929 . S
H353 C363 0.929 . S
H354 C358 0.929 . S
H355 C364 0.929 . S
C356 H350 0.930 . S
C356 C357 1.367 . S
C356 C364 1.378 . S
C357 C356 1.367 . S
C357 C365 1.433 . S
C358 H354 0.929 . S
C358 C360 1.378 . S
C358 C362 1.350 . S
C359 C362 1.463 1_455 S
C359 C364 1.350 . S
C359 N367 1.427 . S
C360 H351 0.930 . S
C360 C358 1.378 . S
C360 C361 1.367 . S
C361 C360 1.367 . S
C361 C363 1.433 . S
C362 C358 1.350 . S
C362 C359 1.463 1_655 S
C362 N366 1.427 . S
C363 H353 0.929 . S
C363 C361 1.433 . S
C363 N366 1.384 . S
C364 H355 0.929 . S
C364 C356 1.378 . S
C364 C359 1.350 . S
C365 H352 0.929 . S
C365 C357 1.433 . S
C365 N367 1.384 . S
N366 C362 1.427 . S
N366 C363 1.384 . S
N367 C359 1.427 . S
N367 C365 1.384 . S
H368 C374 0.930 . S
H369 C378 0.930 . S
H370 C383 0.929 . S
H371 C381 0.929 . S
H372 C376 0.929 . S
H373 C382 0.929 . S
C374 H368 0.930 . S
C374 C375 1.367 . S
C374 C382 1.378 . S
C375 C374 1.367 . S
C375 C383 1.433 1_556 S
C376 H372 0.929 . S
C376 C378 1.378 . S
C376 C380 1.350 . S
C377 C380 1.462 1_556 S
C377 C382 1.353 . S
C377 N385 1.425 1_556 S
C378 H369 0.930 . S
C378 C376 1.378 . S
C378 C379 1.367 . S
C379 C378 1.367 . S
C379 C381 1.433 1_554 S
C380 C376 1.350 . S
C380 C377 1.462 1_554 S
C380 N384 1.427 1_554 S
C381 H371 0.929 . S
C381 C379 1.433 1_556 S
C381 N384 1.384 . S
C382 H373 0.929 . S
C382 C374 1.378 . S
C382 C377 1.353 . S
C383 H370 0.929 . S
C383 C375 1.433 1_554 S
C383 N385 1.384 . S
N384 C380 1.427 1_556 S
N384 C381 1.384 . S
N385 C377 1.425 1_554 S
N385 C383 1.384 . S
H386 C392 0.930 . S
H387 C396 0.930 . S
H388 C401 0.929 . S
H389 C399 0.929 . S
H390 C394 0.929 . S
H391 C400 0.929 . S
C392 H386 0.930 . S
C392 C393 1.367 1_556 S
C392 C400 1.378 . S
C393 C392 1.367 1_554 S
C393 C401 1.433 . S
C394 H390 0.929 . S
C394 C396 1.378 . S
C394 C398 1.350 1_554 S
C395 C398 1.462 1_554 S
C395 C400 1.350 1_554 S
C395 N403 1.427 . S
C396 H387 0.930 . S
C396 C394 1.378 . S
C396 C397 1.367 1_554 S
C397 C396 1.367 1_556 S
C397 C399 1.433 . S
C398 C394 1.350 1_556 S
C398 C395 1.462 1_556 S
C398 N402 1.428 . S
C399 H389 0.929 . S
C399 C397 1.433 . S
C399 N402 1.384 . S
C400 H391 0.929 . S
C400 C392 1.378 . S
C400 C395 1.350 1_556 S
C401 H388 0.929 . S
C401 C393 1.433 . S
C401 N403 1.384 . S
N402 C398 1.428 . S
N402 C399 1.384 . S
N403 C395 1.427 . S
N403 C401 1.384 . S
H404 C410 0.930 . S
H405 C414 0.930 . S
H406 C419 0.929 . S
H407 C417 0.929 . S
H408 C412 0.929 . S
H409 C418 0.929 . S
C410 H404 0.930 . S
C410 C411 1.367 . S
C410 C418 1.378 . S
C411 C410 1.367 . S
C411 C419 1.433 1_556 S
C412 H408 0.929 . S
C412 C414 1.378 . S
C412 C416 1.350 . S
C413 C416 1.462 1_556 S
C413 C418 1.355 . S
C413 N421 1.423 1_556 S
C414 H405 0.930 . S
C414 C412 1.378 . S
C414 C415 1.367 . S
C415 C414 1.367 . S
C415 C417 1.433 1_554 S
C416 C412 1.350 . S
C416 C413 1.462 1_554 S
C416 N420 1.427 1_554 S
C417 H407 0.929 . S
C417 C415 1.433 1_556 S
C417 N420 1.384 . S
C418 H409 0.929 . S
C418 C410 1.378 . S
C418 C413 1.355 . S
C419 H406 0.929 . S
C419 C411 1.433 1_554 S
C419 N421 1.384 . S
N420 C416 1.427 1_556 S
N420 C417 1.384 . S
N421 C413 1.423 1_554 S
N421 C419 1.384 . S
H422 C428 0.930 . S
H423 C432 0.930 . S
H424 C437 0.929 . S
H425 C435 0.929 . S
H426 C430 0.929 . S
H427 C436 0.929 . S
C428 H422 0.930 . S
C428 C429 1.367 . S
C428 C436 1.378 . S
C429 C428 1.367 . S
C429 C437 1.433 1_554 S
C430 H426 0.929 . S
C430 C432 1.378 . S
C430 C434 1.354 . S
C431 C434 1.462 1_554 S
C431 C436 1.350 . S
C431 N439 1.427 1_554 S
C432 H423 0.930 . S
C432 C430 1.378 . S
C432 C433 1.367 . S
C433 C432 1.367 . S
C433 C435 1.433 1_556 S
C434 C430 1.354 . S
C434 C431 1.462 1_556 S
C434 N438 1.424 1_556 S
C435 H425 0.929 . S
C435 C433 1.433 1_554 S
C435 N438 1.384 . S
C436 H427 0.929 . S
C436 C428 1.378 . S
C436 C431 1.350 . S
C437 H424 0.929 . S
C437 C429 1.433 1_556 S
C437 N439 1.384 . S
N438 C434 1.424 1_554 S
N438 C435 1.384 . S
N439 C431 1.427 1_556 S
N439 C437 1.384 . S
H440 C446 0.930 . S
H441 C450 0.930 . S
H442 C455 0.929 . S
H443 C453 0.929 . S
H444 C448 0.929 . S
H445 C454 0.929 . S
C446 H440 0.930 . S
C446 C447 1.367 . S
C446 C454 1.378 . S
C447 C446 1.367 . S
C447 C455 1.433 . S
C448 H444 0.929 . S
C448 C450 1.378 . S
C448 C452 1.350 . S
C449 C452 1.463 . S
C449 C454 1.350 . S
C449 N457 1.427 . S
C450 H441 0.930 . S
C450 C448 1.378 . S
C450 C451 1.367 . S
C451 C450 1.367 . S
C451 C453 1.433 . S
C452 C448 1.350 . S
C452 C449 1.463 . S
C452 N456 1.427 . S
C453 H443 0.929 . S
C453 C451 1.433 . S
C453 N456 1.384 . S
C454 H445 0.929 . S
C454 C446 1.378 . S
C454 C449 1.350 . S
C455 H442 0.929 . S
C455 C447 1.433 . S
C455 N457 1.384 . S
N456 C452 1.427 . S
N456 C453 1.384 . S
N457 C449 1.427 . S
N457 C455 1.384 . S
H458 C464 0.930 . S
H459 C468 0.930 . S
H460 C473 0.929 . S
H461 C471 0.929 . S
H462 C466 0.929 . S
H463 C472 0.929 . S
C464 H458 0.930 . S
C464 C465 1.367 . S
C464 C472 1.378 . S
C465 C464 1.367 . S
C465 C473 1.433 . S
C466 H462 0.929 . S
C466 C468 1.378 . S
C466 C470 1.350 . S
C467 C470 1.463 . S
C467 C472 1.350 . S
C467 N475 1.427 . S
C468 H459 0.930 . S
C468 C466 1.378 . S
C468 C469 1.367 . S
C469 C468 1.367 . S
C469 C471 1.433 . S
C470 C466 1.350 . S
C470 C467 1.463 . S
C470 N474 1.427 . S
C471 H461 0.929 . S
C471 C469 1.433 . S
C471 N474 1.384 . S
C472 H463 0.929 . S
C472 C464 1.378 . S
C472 C467 1.350 . S
C473 H460 0.929 . S
C473 C465 1.433 . S
C473 N475 1.384 . S
N474 C470 1.427 . S
N474 C471 1.384 . S
N475 C467 1.427 . S
N475 C473 1.384 . S
H476 C482 0.930 . S
H477 C486 0.930 . S
H478 C491 0.929 . S
H479 C489 0.929 . S
H480 C484 0.929 . S
H481 C490 0.929 . S
C482 H476 0.930 . S
C482 C483 1.367 . S
C482 C490 1.378 . S
C483 C482 1.367 . S
C483 C491 1.433 . S
C484 H480 0.929 . S
C484 C486 1.378 . S
C484 C488 1.350 . S
C485 C488 1.463 . S
C485 C490 1.350 . S
C485 N493 1.427 . S
C486 H477 0.930 . S
C486 C484 1.378 . S
C486 C487 1.367 . S
C487 C486 1.367 . S
C487 C489 1.433 . S
C488 C484 1.350 . S
C488 C485 1.463 . S
C488 N492 1.427 . S
C489 H479 0.929 . S
C489 C487 1.433 . S
C489 N492 1.384 . S
C490 H481 0.929 . S
C490 C482 1.378 . S
C490 C485 1.350 . S
C491 H478 0.929 . S
C491 C483 1.433 . S
C491 N493 1.384 . S
N492 C488 1.427 . S
N492 C489 1.384 . S
N493 C485 1.427 . S
N493 C491 1.384 . S
H494 C500 0.930 . S
H495 C504 0.930 . S
H496 C509 0.929 . S
H497 C507 0.929 . S
H498 C502 0.929 . S
H499 C508 0.929 . S
C500 H494 0.930 . S
C500 C501 1.367 . S
C500 C508 1.378 . S
C501 C500 1.367 . S
C501 C509 1.433 . S
C502 H498 0.929 . S
C502 C504 1.378 . S
C502 C506 1.350 . S
C503 C506 1.463 . S
C503 C508 1.350 . S
C503 N511 1.427 . S
C504 H495 0.930 . S
C504 C502 1.378 . S
C504 C505 1.367 . S
C505 C504 1.367 . S
C505 C507 1.433 . S
C506 C502 1.350 . S
C506 C503 1.463 . S
C506 N510 1.427 . S
C507 H497 0.929 . S
C507 C505 1.433 . S
C507 N510 1.384 . S
C508 H499 0.929 . S
C508 C500 1.378 . S
C508 C503 1.350 . S
C509 H496 0.929 . S
C509 C501 1.433 . S
C509 N511 1.384 . S
N510 C506 1.427 . S
N510 C507 1.384 . S
N511 C503 1.427 . S
N511 C509 1.384 . S
H512 C518 0.930 . S
H513 C522 0.930 . S
H514 C527 0.929 . S
H515 C525 0.929 . S
H516 C520 0.929 . S
H517 C526 0.929 . S
C518 H512 0.930 . S
C518 C519 1.367 . S
C518 C526 1.378 . S
C519 C518 1.367 . S
C519 C527 1.433 . S
C520 H516 0.929 . S
C520 C522 1.378 . S
C520 C524 1.350 . S
C521 C524 1.463 . S
C521 C526 1.350 . S
C521 N529 1.427 . S
C522 H513 0.930 . S
C522 C520 1.378 . S
C522 C523 1.367 . S
C523 C522 1.367 . S
C523 C525 1.433 . S
C524 C520 1.350 . S
C524 C521 1.463 . S
C524 N528 1.427 . S
C525 H515 0.929 . S
C525 C523 1.433 . S
C525 N528 1.384 . S
C526 H517 0.929 . S
C526 C518 1.378 . S
C526 C521 1.350 . S
C527 H514 0.929 . S
C527 C519 1.433 . S
C527 N529 1.384 . S
N528 C524 1.427 . S
N528 C525 1.384 . S
N529 C521 1.427 . S
N529 C527 1.384 . S
H530 C536 0.930 . S
H531 C540 0.930 . S
H532 C545 0.929 . S
H533 C543 0.929 . S
H534 C538 0.929 . S
H535 C544 0.929 . S
C536 H530 0.930 . S
C536 C537 1.367 . S
C536 C544 1.378 . S
C537 C536 1.367 . S
C537 C545 1.433 . S
C538 H534 0.929 . S
C538 C540 1.378 . S
C538 C542 1.350 . S
C539 C542 1.463 . S
C539 C544 1.350 . S
C539 N547 1.427 . S
C540 H531 0.930 . S
C540 C538 1.378 . S
C540 C541 1.367 . S
C541 C540 1.367 . S
C541 C543 1.433 . S
C542 C538 1.350 . S
C542 C539 1.463 . S
C542 N546 1.427 . S
C543 H533 0.929 . S
C543 C541 1.433 . S
C543 N546 1.384 . S
C544 H535 0.929 . S
C544 C536 1.378 . S
C544 C539 1.350 . S
C545 H532 0.929 . S
C545 C537 1.433 . S
C545 N547 1.384 . S
N546 C542 1.427 . S
N546 C543 1.384 . S
N547 C539 1.427 . S
N547 C545 1.384 . S
H548 C554 0.930 . S
H549 C558 0.930 . S
H550 C563 0.929 . S
H551 C561 0.929 . S
H552 C556 0.929 . S
H553 C562 0.929 . S
C554 H548 0.930 . S
C554 C555 1.367 . S
C554 C562 1.378 . S
C555 C554 1.367 . S
C555 C563 1.433 . S
C556 H552 0.929 . S
C556 C558 1.378 . S
C556 C560 1.350 . S
C557 C560 1.463 . S
C557 C562 1.350 . S
C557 N565 1.427 . S
C558 H549 0.930 . S
C558 C556 1.378 . S
C558 C559 1.367 . S
C559 C558 1.367 . S
C559 C561 1.433 . S
C560 C556 1.350 . S
C560 C557 1.463 . S
C560 N564 1.427 . S
C561 H551 0.929 . S
C561 C559 1.433 . S
C561 N564 1.384 . S
C562 H553 0.929 . S
C562 C554 1.378 . S
C562 C557 1.350 . S
C563 H550 0.929 . S
C563 C555 1.433 . S
C563 N565 1.384 . S
N564 C560 1.427 . S
N564 C561 1.384 . S
N565 C557 1.427 . S
N565 C563 1.384 . S
H566 C572 0.930 . S
H567 C576 0.930 . S
H568 C581 0.929 . S
H569 C579 0.929 . S
H570 C574 0.929 . S
H571 C580 0.929 . S
C572 H566 0.930 . S
C572 C573 1.367 . S
C572 C580 1.378 . S
C573 C572 1.367 . S
C573 C581 1.433 . S
C574 H570 0.929 . S
C574 C576 1.378 . S
C574 C578 1.350 . S
C575 C578 1.463 . S
C575 C580 1.350 . S
C575 N583 1.427 . S
C576 H567 0.930 . S
C576 C574 1.378 . S
C576 C577 1.367 . S
C577 C576 1.367 . S
C577 C579 1.433 . S
C578 C574 1.350 . S
C578 C575 1.463 . S
C578 N582 1.427 . S
C579 H569 0.929 . S
C579 C577 1.433 . S
C579 N582 1.384 . S
C580 H571 0.929 . S
C580 C572 1.378 . S
C580 C575 1.350 . S
C581 H568 0.929 . S
C581 C573 1.433 . S
C581 N583 1.384 . S
N582 C578 1.427 . S
N582 C579 1.384 . S
N583 C575 1.427 . S
N583 C581 1.384 . S
H584 C590 0.930 . S
H585 C594 0.930 . S
H586 C599 0.929 . S
H587 C597 0.929 . S
H588 C592 0.929 . S
H589 C598 0.929 . S
C590 H584 0.930 . S
C590 C591 1.367 . S
C590 C598 1.378 . S
C591 C590 1.367 . S
C591 C599 1.433 . S
C592 H588 0.929 . S
C592 C594 1.378 . S
C592 C596 1.350 . S
C593 C596 1.463 . S
C593 C598 1.350 . S
C593 N601 1.427 . S
C594 H585 0.930 . S
C594 C592 1.378 . S
C594 C595 1.367 . S
C595 C594 1.367 . S
C595 C597 1.433 . S
C596 C592 1.350 . S
C596 C593 1.463 . S
C596 N600 1.427 . S
C597 H587 0.929 . S
C597 C595 1.433 . S
C597 N600 1.384 . S
C598 H589 0.929 . S
C598 C590 1.378 . S
C598 C593 1.350 . S
C599 H586 0.929 . S
C599 C591 1.433 . S
C599 N601 1.384 . S
N600 C596 1.427 . S
N600 C597 1.384 . S
N601 C593 1.427 . S
N601 C599 1.384 . S
H602 C608 0.930 . S
H603 C612 0.930 . S
H604 C617 0.929 . S
H605 C615 0.929 . S
H606 C610 0.929 . S
H607 C616 0.929 . S
C608 H602 0.930 . S
C608 C609 1.367 . S
C608 C616 1.378 . S
C609 C608 1.367 . S
C609 C617 1.433 . S
C610 H606 0.929 . S
C610 C612 1.378 . S
C610 C614 1.350 . S
C611 C614 1.463 . S
C611 C616 1.350 . S
C611 N619 1.427 . S
C612 H603 0.930 . S
C612 C610 1.378 . S
C612 C613 1.367 . S
C613 C612 1.367 . S
C613 C615 1.433 . S
C614 C610 1.350 . S
C614 C611 1.463 . S
C614 N618 1.427 . S
C615 H605 0.929 . S
C615 C613 1.433 . S
C615 N618 1.384 . S
C616 H607 0.929 . S
C616 C608 1.378 . S
C616 C611 1.350 . S
C617 H604 0.929 . S
C617 C609 1.433 . S
C617 N619 1.384 . S
N618 C614 1.427 . S
N618 C615 1.384 . S
N619 C611 1.427 . S
N619 C617 1.384 . S
H620 C626 0.930 . S
H621 C630 0.930 . S
H622 C635 0.929 . S
H623 C633 0.929 . S
H624 C628 0.929 . S
H625 C634 0.929 . S
C626 H620 0.930 . S
C626 C627 1.367 . S
C626 C634 1.378 . S
C627 C626 1.367 . S
C627 C635 1.433 . S
C628 H624 0.929 . S
C628 C630 1.378 . S
C628 C632 1.350 . S
C629 C632 1.463 . S
C629 C634 1.350 . S
C629 N637 1.427 . S
C630 H621 0.930 . S
C630 C628 1.378 . S
C630 C631 1.367 . S
C631 C630 1.367 . S
C631 C633 1.433 . S
C632 C628 1.350 . S
C632 C629 1.463 . S
C632 N636 1.427 . S
C633 H623 0.929 . S
C633 C631 1.433 . S
C633 N636 1.384 . S
C634 H625 0.929 . S
C634 C626 1.378 . S
C634 C629 1.350 . S
C635 H622 0.929 . S
C635 C627 1.433 . S
C635 N637 1.384 . S
N636 C632 1.427 . S
N636 C633 1.384 . S
N637 C629 1.427 . S
N637 C635 1.384 . S
H638 C644 0.930 . S
H639 C648 0.930 . S
H640 C653 0.929 . S
H641 C651 0.929 . S
H642 C646 0.929 . S
H643 C652 0.929 . S
C644 H638 0.930 . S
C644 C645 1.367 . S
C644 C652 1.378 . S
C645 C644 1.367 . S
C645 C653 1.433 . S
C646 H642 0.929 . S
C646 C648 1.378 . S
C646 C650 1.350 . S
C647 C650 1.463 . S
C647 C652 1.350 . S
C647 N655 1.427 . S
C648 H639 0.930 . S
C648 C646 1.378 . S
C648 C649 1.367 . S
C649 C648 1.367 . S
C649 C651 1.433 . S
C650 C646 1.350 . S
C650 C647 1.463 . S
C650 N654 1.427 . S
C651 H641 0.929 . S
C651 C649 1.433 . S
C651 N654 1.384 . S
C652 H643 0.929 . S
C652 C644 1.378 . S
C652 C647 1.350 . S
C653 H640 0.929 . S
C653 C645 1.433 . S
C653 N655 1.384 . S
N654 C650 1.427 . S
N654 C651 1.384 . S
N655 C647 1.427 . S
N655 C653 1.384 . S
H656 C662 0.930 . S
H657 C666 0.930 . S
H658 C671 0.929 . S
H659 C669 0.929 . S
H660 C664 0.929 . S
H661 C670 0.929 . S
C662 H656 0.930 . S
C662 C663 1.367 . S
C662 C670 1.378 . S
C663 C662 1.367 . S
C663 C671 1.433 . S
C664 H660 0.929 . S
C664 C666 1.378 . S
C664 C668 1.350 . S
C665 C668 1.463 . S
C665 C670 1.350 . S
C665 N673 1.427 . S
C666 H657 0.930 . S
C666 C664 1.378 . S
C666 C667 1.367 . S
C667 C666 1.367 . S
C667 C669 1.433 . S
C668 C664 1.350 . S
C668 C665 1.463 . S
C668 N672 1.427 . S
C669 H659 0.929 . S
C669 C667 1.433 . S
C669 N672 1.384 . S
C670 H661 0.929 . S
C670 C662 1.378 . S
C670 C665 1.350 . S
C671 H658 0.929 . S
C671 C663 1.433 . S
C671 N673 1.384 . S
N672 C668 1.427 . S
N672 C669 1.384 . S
N673 C665 1.427 . S
N673 C671 1.384 . S
H674 C680 0.930 . S
H675 C684 0.930 . S
H676 C689 0.929 . S
H677 C687 0.929 . S
H678 C682 0.929 . S
H679 C688 0.929 . S
C680 H674 0.930 . S
C680 C681 1.367 . S
C680 C688 1.378 . S
C681 C680 1.367 . S
C681 C689 1.433 . S
C682 H678 0.929 . S
C682 C684 1.378 . S
C682 C686 1.350 . S
C683 C686 1.463 . S
C683 C688 1.350 . S
C683 N691 1.427 . S
C684 H675 0.930 . S
C684 C682 1.378 . S
C684 C685 1.367 . S
C685 C684 1.367 . S
C685 C687 1.433 . S
C686 C682 1.350 . S
C686 C683 1.463 . S
C686 N690 1.427 . S
C687 H677 0.929 . S
C687 C685 1.433 . S
C687 N690 1.384 . S
C688 H679 0.929 . S
C688 C680 1.378 . S
C688 C683 1.350 . S
C689 H676 0.929 . S
C689 C681 1.433 . S
C689 N691 1.384 . S
N690 C686 1.427 . S
N690 C687 1.384 . S
N691 C683 1.427 . S
N691 C689 1.384 . S
H692 C698 0.930 . S
H693 C702 0.930 . S
H694 C707 0.929 . S
H695 C705 0.929 . S
H696 C700 0.929 . S
H697 C706 0.929 . S
C698 H692 0.930 . S
C698 C699 1.367 . S
C698 C706 1.378 . S
C699 C698 1.367 . S
C699 C707 1.433 . S
C700 H696 0.929 . S
C700 C702 1.378 . S
C700 C704 1.350 . S
C701 C704 1.463 . S
C701 C706 1.350 . S
C701 N709 1.427 . S
C702 H693 0.930 . S
C702 C700 1.378 . S
C702 C703 1.367 . S
C703 C702 1.367 . S
C703 C705 1.433 . S
C704 C700 1.350 . S
C704 C701 1.463 . S
C704 N708 1.427 . S
C705 H695 0.929 . S
C705 C703 1.433 . S
C705 N708 1.384 . S
C706 H697 0.929 . S
C706 C698 1.378 . S
C706 C701 1.350 . S
C707 H694 0.929 . S
C707 C699 1.433 . S
C707 N709 1.384 . S
N708 C704 1.427 . S
N708 C705 1.384 . S
N709 C701 1.427 . S
N709 C707 1.384 . S
H710 C716 0.930 . S
H711 C720 0.930 . S
H712 C725 0.929 . S
H713 C723 0.929 . S
H714 C718 0.929 . S
H715 C724 0.929 . S
C716 H710 0.930 . S
C716 C717 1.367 . S
C716 C724 1.378 . S
C717 C716 1.367 . S
C717 C725 1.433 . S
C718 H714 0.929 . S
C718 C720 1.378 . S
C718 C722 1.350 . S
C719 C722 1.463 . S
C719 C724 1.350 . S
C719 N727 1.427 . S
C720 H711 0.930 . S
C720 C718 1.378 . S
C720 C721 1.367 . S
C721 C720 1.367 . S
C721 C723 1.433 . S
C722 C718 1.350 . S
C722 C719 1.463 . S
C722 N726 1.427 . S
C723 H713 0.929 . S
C723 C721 1.433 . S
C723 N726 1.384 . S
C724 H715 0.929 . S
C724 C716 1.378 . S
C724 C719 1.350 . S
C725 H712 0.929 . S
C725 C717 1.433 . S
C725 N727 1.384 . S
N726 C722 1.427 . S
N726 C723 1.384 . S
N727 C719 1.427 . S
N727 C725 1.384 . S
H728 C734 0.930 . S
H729 C738 0.930 . S
H730 C743 0.929 . S
H731 C741 0.929 . S
H732 C736 0.929 . S
H733 C742 0.929 . S
C734 H728 0.930 . S
C734 C735 1.367 . S
C734 C742 1.378 . S
C735 C734 1.367 . S
C735 C743 1.433 . S
C736 H732 0.929 . S
C736 C738 1.378 . S
C736 C740 1.350 . S
C737 C740 1.463 . S
C737 C742 1.350 . S
C737 N745 1.427 . S
C738 H729 0.930 . S
C738 C736 1.378 . S
C738 C739 1.367 . S
C739 C738 1.367 . S
C739 C741 1.433 . S
C740 C736 1.350 . S
C740 C737 1.463 . S
C740 N744 1.427 . S
C741 H731 0.929 . S
C741 C739 1.433 . S
C741 N744 1.384 . S
C742 H733 0.929 . S
C742 C734 1.378 . S
C742 C737 1.350 . S
C743 H730 0.929 . S
C743 C735 1.433 . S
C743 N745 1.384 . S
N744 C740 1.427 . S
N744 C741 1.384 . S
N745 C737 1.427 . S
N745 C743 1.384 . S
H746 C752 0.930 . S
H747 C756 0.930 . S
H748 C761 0.929 . S
H749 C759 0.929 . S
H750 C754 0.929 . S
H751 C760 0.929 . S
C752 H746 0.930 . S
C752 C753 1.367 . S
C752 C760 1.378 . S
C753 C752 1.367 . S
C753 C761 1.433 . S
C754 H750 0.929 . S
C754 C756 1.378 . S
C754 C758 1.350 . S
C755 C758 1.463 . S
C755 C760 1.350 . S
C755 N763 1.427 . S
C756 H747 0.930 . S
C756 C754 1.378 . S
C756 C757 1.367 . S
C757 C756 1.367 . S
C757 C759 1.433 . S
C758 C754 1.350 . S
C758 C755 1.463 . S
C758 N762 1.427 . S
C759 H749 0.929 . S
C759 C757 1.433 . S
C759 N762 1.384 . S
C760 H751 0.929 . S
C760 C752 1.378 . S
C760 C755 1.350 . S
C761 H748 0.929 . S
C761 C753 1.433 . S
C761 N763 1.384 . S
N762 C758 1.427 . S
N762 C759 1.384 . S
N763 C755 1.427 . S
N763 C761 1.384 . S
H764 C770 0.930 . S
H765 C774 0.930 . S
H766 C779 0.929 . S
H767 C777 0.929 . S
H768 C772 0.929 . S
H769 C778 0.929 . S
C770 H764 0.930 . S
C770 C771 1.367 . S
C770 C778 1.378 . S
C771 C770 1.367 . S
C771 C779 1.433 . S
C772 H768 0.929 . S
C772 C774 1.378 . S
C772 C776 1.350 . S
C773 C776 1.463 . S
C773 C778 1.350 . S
C773 N781 1.427 . S
C774 H765 0.930 . S
C774 C772 1.378 . S
C774 C775 1.367 . S
C775 C774 1.367 . S
C775 C777 1.433 . S
C776 C772 1.350 . S
C776 C773 1.463 . S
C776 N780 1.427 . S
C777 H767 0.929 . S
C777 C775 1.433 . S
C777 N780 1.384 . S
C778 H769 0.929 . S
C778 C770 1.378 . S
C778 C773 1.350 . S
C779 H766 0.929 . S
C779 C771 1.433 . S
C779 N781 1.384 . S
N780 C776 1.427 . S
N780 C777 1.384 . S
N781 C773 1.427 . S
N781 C779 1.384 . S
H782 C788 0.930 . S
H783 C792 0.930 . S
H784 C797 0.929 . S
H785 C795 0.929 . S
H786 C790 0.929 . S
H787 C796 0.929 . S
C788 H782 0.930 . S
C788 C789 1.367 . S
C788 C796 1.378 . S
C789 C788 1.367 . S
C789 C797 1.433 . S
C790 H786 0.929 . S
C790 C792 1.378 . S
C790 C794 1.350 . S
C791 C794 1.463 . S
C791 C796 1.350 . S
C791 N799 1.427 . S
C792 H783 0.930 . S
C792 C790 1.378 . S
C792 C793 1.367 . S
C793 C792 1.367 . S
C793 C795 1.433 . S
C794 C790 1.350 . S
C794 C791 1.463 . S
C794 N798 1.427 . S
C795 H785 0.929 . S
C795 C793 1.433 . S
C795 N798 1.384 . S
C796 H787 0.929 . S
C796 C788 1.378 . S
C796 C791 1.350 . S
C797 H784 0.929 . S
C797 C789 1.433 . S
C797 N799 1.384 . S
N798 C794 1.427 . S
N798 C795 1.384 . S
N799 C791 1.427 . S
N799 C797 1.384 . S
C231 C67 1.248 1_556 S
C235 C11 1.244 1_554 S
C249 C81 1.243 1_556 S
C253 C25 1.248 1_554 S
C267 C95 1.247 1_556 S
C271 C39 1.242 1_554 S
C285 C109 1.242 1_556 S
C289 C53 1.239 1_554 S
C303 C179 1.248 . S
C307 C123 1.244 . S
C321 C193 1.242 . S
C325 C137 1.239 . S
C339 C151 1.239 . S
C343 C207 1.243 . S
C357 C221 1.244 . S
C361 C165 1.239 . S
C375 C8 1.168 1_556 S
C379 C78 1.186 1_554 S
C393 C92 1.184 1_554 S
C397 C22 1.165 1_556 S
C411 C36 1.186 1_556 S
C415 C106 1.168 1_554 S
C429 C64 1.168 1_554 S
C433 C50 1.186 1_556 S
C447 C190 1.186 . S
C451 C120 1.168 . S
C465 C204 1.165 . S
C469 C134 1.178 . S
C483 C148 1.181 . S
C487 C218 1.182 . S
C501 C162 1.186 . S
C505 C176 1.176 . S
C519 C223 1.335 . S
C523 C13 1.326 . S
C537 C181 1.328 . S
C541 C27 1.341 . S
C555 C195 1.331 . S
C559 C41 1.327 . S
C573 C209 1.332 . S
C577 C55 1.346 . S
C591 C139 1.334 . S
C595 C69 1.326 . S
C609 C153 1.348 . S
C613 C83 1.335 . S
C627 C97 1.348 . S
C631 C167 1.334 . S
C645 C111 1.333 . S
C649 C125 1.326 . S
C663 C189 1.541 . S
C667 C35 1.537 . S
C681 C203 1.541 . S
C685 C49 1.542 . S
C699 C217 1.541 . S
C703 C7 1.537 . S
C717 C21 1.539 . S
C721 C175 1.542 . S
C735 C161 1.540 . S
C739 C91 1.536 . S
C753 C105 1.538 . S
C757 C119 1.542 . S
C771 C133 1.539 . S
C775 C63 1.542 . S
C789 C147 1.537 . S
C793 C77 1.536 . S
