# Generated by pormake.
# Topology wfv, (7)-cn, num edge types: 1
# Building blocks:
#     Node 0, Type 0, BuildingBlock: NUHQUE_clean_sbu_2, # of connection points: 7
#     Node 1, Type 0, BuildingBlock: NUHQUE_clean_sbu_2, # of connection points: 7
#     Node 2, Type 0, BuildingBlock: NUHQUE_clean_sbu_2, # of connection points: 7
#     Node 3, Type 0, BuildingBlock: NUHQUE_clean_sbu_2, # of connection points: 7
#     Node 4, Type 0, BuildingBlock: NUHQUE_clean_sbu_2, # of connection points: 7
#     Node 5, Type 0, BuildingBlock: NUHQUE_clean_sbu_2, # of connection points: 7
#     Node 6, Type 0, BuildingBlock: NUHQUE_clean_sbu_2, # of connection points: 7
#     Node 7, Type 0, BuildingBlock: NUHQUE_clean_sbu_2, # of connection points: 7
#     Node 8, Type 0, BuildingBlock: NUHQUE_clean_sbu_2, # of connection points: 7
#     Node 9, Type 0, BuildingBlock: NUHQUE_clean_sbu_2, # of connection points: 7
#     Node 10, Type 0, BuildingBlock: NUHQUE_clean_sbu_2, # of connection points: 7
#     Node 11, Type 0, BuildingBlock: NUHQUE_clean_sbu_2, # of connection points: 7
#     Node 12, Type 0, BuildingBlock: NUHQUE_clean_sbu_2, # of connection points: 7
#     Node 13, Type 0, BuildingBlock: NUHQUE_clean_sbu_2, # of connection points: 7
#     Node 14, Type 0, BuildingBlock: NUHQUE_clean_sbu_2, # of connection points: 7
#     Node 15, Type 0, BuildingBlock: NUHQUE_clean_sbu_2, # of connection points: 7
#     Edge 16, Type (0, 0), BuildingBlock: KIFKEQ_clean_linker_1, # of connection points: 2
#     Edge 17, Type (0, 0), BuildingBlock: KIFKEQ_clean_linker_1, # of connection points: 2
#     Edge 18, Type (0, 0), BuildingBlock: KIFKEQ_clean_linker_1, # of connection points: 2
#     Edge 19, Type (0, 0), BuildingBlock: KIFKEQ_clean_linker_1, # of connection points: 2
#     Edge 20, Type (0, 0), BuildingBlock: KIFKEQ_clean_linker_1, # of connection points: 2
#     Edge 21, Type (0, 0), BuildingBlock: KIFKEQ_clean_linker_1, # of connection points: 2
#     Edge 22, Type (0, 0), BuildingBlock: KIFKEQ_clean_linker_1, # of connection points: 2
#     Edge 23, Type (0, 0), BuildingBlock: KIFKEQ_clean_linker_1, # of connection points: 2
#     Edge 24, Type (0, 0), BuildingBlock: KIFKEQ_clean_linker_1, # of connection points: 2
#     Edge 25, Type (0, 0), BuildingBlock: KIFKEQ_clean_linker_1, # of connection points: 2
#     Edge 26, Type (0, 0), BuildingBlock: KIFKEQ_clean_linker_1, # of connection points: 2
#     Edge 27, Type (0, 0), BuildingBlock: KIFKEQ_clean_linker_1, # of connection points: 2
#     Edge 28, Type (0, 0), BuildingBlock: KIFKEQ_clean_linker_1, # of connection points: 2
#     Edge 29, Type (0, 0), BuildingBlock: KIFKEQ_clean_linker_1, # of connection points: 2
#     Edge 30, Type (0, 0), BuildingBlock: KIFKEQ_clean_linker_1, # of connection points: 2
#     Edge 31, Type (0, 0), BuildingBlock: KIFKEQ_clean_linker_1, # of connection points: 2
#     Edge 32, Type (0, 0), BuildingBlock: KIFKEQ_clean_linker_1, # of connection points: 2
#     Edge 33, Type (0, 0), BuildingBlock: KIFKEQ_clean_linker_1, # of connection points: 2
#     Edge 34, Type (0, 0), BuildingBlock: KIFKEQ_clean_linker_1, # of connection points: 2
#     Edge 35, Type (0, 0), BuildingBlock: KIFKEQ_clean_linker_1, # of connection points: 2
#     Edge 36, Type (0, 0), BuildingBlock: KIFKEQ_clean_linker_1, # of connection points: 2
#     Edge 37, Type (0, 0), BuildingBlock: KIFKEQ_clean_linker_1, # of connection points: 2
#     Edge 38, Type (0, 0), BuildingBlock: KIFKEQ_clean_linker_1, # of connection points: 2
#     Edge 39, Type (0, 0), BuildingBlock: KIFKEQ_clean_linker_1, # of connection points: 2
#     Edge 40, Type (0, 0), BuildingBlock: KIFKEQ_clean_linker_1, # of connection points: 2
#     Edge 41, Type (0, 0), BuildingBlock: KIFKEQ_clean_linker_1, # of connection points: 2
#     Edge 42, Type (0, 0), BuildingBlock: KIFKEQ_clean_linker_1, # of connection points: 2
#     Edge 43, Type (0, 0), BuildingBlock: KIFKEQ_clean_linker_1, # of connection points: 2
#     Edge 44, Type (0, 0), BuildingBlock: KIFKEQ_clean_linker_1, # of connection points: 2
#     Edge 45, Type (0, 0), BuildingBlock: KIFKEQ_clean_linker_1, # of connection points: 2
#     Edge 46, Type (0, 0), BuildingBlock: KIFKEQ_clean_linker_1, # of connection points: 2
#     Edge 47, Type (0, 0), BuildingBlock: KIFKEQ_clean_linker_1, # of connection points: 2
#     Edge 48, Type (0, 0), BuildingBlock: KIFKEQ_clean_linker_1, # of connection points: 2
#     Edge 49, Type (0, 0), BuildingBlock: KIFKEQ_clean_linker_1, # of connection points: 2
#     Edge 50, Type (0, 0), BuildingBlock: KIFKEQ_clean_linker_1, # of connection points: 2
#     Edge 51, Type (0, 0), BuildingBlock: KIFKEQ_clean_linker_1, # of connection points: 2
#     Edge 52, Type (0, 0), BuildingBlock: KIFKEQ_clean_linker_1, # of connection points: 2
#     Edge 53, Type (0, 0), BuildingBlock: KIFKEQ_clean_linker_1, # of connection points: 2
#     Edge 54, Type (0, 0), BuildingBlock: KIFKEQ_clean_linker_1, # of connection points: 2
#     Edge 55, Type (0, 0), BuildingBlock: KIFKEQ_clean_linker_1, # of connection points: 2
#     Edge 56, Type (0, 0), BuildingBlock: KIFKEQ_clean_linker_1, # of connection points: 2
#     Edge 57, Type (0, 0), BuildingBlock: KIFKEQ_clean_linker_1, # of connection points: 2
#     Edge 58, Type (0, 0), BuildingBlock: KIFKEQ_clean_linker_1, # of connection points: 2
#     Edge 59, Type (0, 0), BuildingBlock: KIFKEQ_clean_linker_1, # of connection points: 2
#     Edge 60, Type (0, 0), BuildingBlock: KIFKEQ_clean_linker_1, # of connection points: 2
#     Edge 61, Type (0, 0), BuildingBlock: KIFKEQ_clean_linker_1, # of connection points: 2
#     Edge 62, Type (0, 0), BuildingBlock: KIFKEQ_clean_linker_1, # of connection points: 2
#     Edge 63, Type (0, 0), BuildingBlock: KIFKEQ_clean_linker_1, # of connection points: 2
#     Edge 64, Type (0, 0), BuildingBlock: KIFKEQ_clean_linker_1, # of connection points: 2
#     Edge 65, Type (0, 0), BuildingBlock: KIFKEQ_clean_linker_1, # of connection points: 2
#     Edge 66, Type (0, 0), BuildingBlock: KIFKEQ_clean_linker_1, # of connection points: 2
#     Edge 67, Type (0, 0), BuildingBlock: KIFKEQ_clean_linker_1, # of connection points: 2
#     Edge 68, Type (0, 0), BuildingBlock: KIFKEQ_clean_linker_1, # of connection points: 2
#     Edge 69, Type (0, 0), BuildingBlock: KIFKEQ_clean_linker_1, # of connection points: 2
#     Edge 70, Type (0, 0), BuildingBlock: KIFKEQ_clean_linker_1, # of connection points: 2
#     Edge 71, Type (0, 0), BuildingBlock: KIFKEQ_clean_linker_1, # of connection points: 2
# Relax obj value: 0.192
# Max RMSD: 0.256
# Mean RMSD: 0.256
data_MOF--net-wfv--node1-NUHQUE_clean_sbu_2--edge1-KIFKEQ_clean_linker_1
_symmetry_space_group_name_H-M    P1
_symmetry_Int_Tables_number       1
_symmetry_cell_setting            triclinic
loop_
_symmetry_equiv_pos_as_xyz
'x, y, z'
_cell_length_a     47.049821
_cell_length_b     46.999935
_cell_length_c     43.448345
_cell_angle_alpha  89.992159
_cell_angle_beta   89.954221
_cell_angle_gamma 90.085808
loop_
_atom_site_label
_atom_site_type_symbol
_atom_site_fract_x
_atom_site_fract_y
_atom_site_fract_z
_atom_type_partial_charge
O0 O 0.66621 0.12613 0.1083 0.0
Tb1 Tb 0.70707 0.10515 0.10845 0.0
Eu2 Eu 0.70949 0.00846 0.13422 0.0
C3 C 0.64821 0.12039 0.08606 0.0
O4 O 0.65215 0.09741 0.06941 0.0
C5 C 0.72933 0.04765 0.08143 0.0
O6 O 0.74662 0.98541 0.15522 0.0
C7 C 0.6669 0.97457 0.12381 0.0
C8 C 0.77164 0.99778 0.15648 0.0
O9 O 0.77399 0.02436 0.14746 0.0
C10 C 0.71373 0.06998 0.16662 0.0
C11 C 0.6357 0.97024 0.12289 0.0
C12 C 0.61769 0.98499 0.10228 0.0
C13 C 0.5884 0.97857 0.1013 0.0
C14 C 0.57748 0.95738 0.12071 0.0
C15 C 0.59526 0.94176 0.14012 0.0
C16 C 0.62427 0.94838 0.14128 0.0
O17 O 0.70705 0.06145 0.09193 0.0
O18 O 0.73342 0.02161 0.09154 0.0
O19 O 0.71898 0.13523 0.07239 0.0
O20 O 0.74625 0.13031 0.11076 0.0
C21 C 0.74207 0.1445 0.08543 0.0
O22 O 0.69741 0.0522 0.15111 0.0
O23 O 0.71535 0.09645 0.15672 0.0
O24 O 0.67877 0.97759 0.15107 0.0
O25 O 0.67924 0.98967 0.10204 0.0
H26 H 0.62633 1.00096 0.0869 0.0
H27 H 0.55522 0.95153 0.11895 0.0
H28 H 0.63815 0.93587 0.1559 0.0
O29 O 0.35256 0.67863 0.09471 0.0
Tb30 Tb 0.37611 0.70781 0.12415 0.0
Eu31 Eu 0.47731 0.70739 0.11915 0.0
C32 C 0.36187 0.67066 0.06748 0.0
O33 O 0.38745 0.67836 0.05862 0.0
C34 C 0.42822 0.73674 0.08623 0.0
O35 O 0.49808 0.74188 0.14716 0.0
C36 C 0.51437 0.67323 0.09417 0.0
C37 C 0.48502 0.76618 0.15184 0.0
O38 O 0.45877 0.76916 0.14212 0.0
C39 C 0.42582 0.69396 0.16627 0.0
C40 C 0.52643 0.64392 0.09387 0.0
C41 C 0.51471 0.62182 0.07558 0.0
C42 C 0.52899 0.59552 0.07283 0.0
C43 C 0.55448 0.59133 0.08872 0.0
C44 C 0.5664 0.61299 0.10648 0.0
C45 C 0.55248 0.63915 0.10907 0.0
O46 O 0.41774 0.71817 0.10577 0.0
O47 O 0.45611 0.73708 0.08493 0.0
O48 O 0.35611 0.74991 0.1228 0.0
O49 O 0.34612 0.72127 0.15927 0.0
C50 C 0.34095 0.74623 0.14764 0.0
O51 O 0.44271 0.68364 0.14472 0.0
O52 O 0.39835 0.68883 0.16327 0.0
O53 O 0.51951 0.68894 0.11858 0.0
O54 O 0.48909 0.67781 0.08228 0.0
H55 H 0.49542 0.62538 0.06255 0.0
H56 H 0.56582 0.57137 0.08619 0.0
H57 H 0.56261 0.65611 0.12195 0.0
O58 O 0.84869 0.40747 0.08718 0.0
Tb59 Tb 0.80341 0.40721 0.09704 0.0
Eu60 Eu 0.79641 0.48286 0.09961 0.0
C61 C 0.85716 0.41053 0.05847 0.0
O62 O 0.84191 0.42653 0.04004 0.0
C63 C 0.76466 0.44106 0.05233 0.0
O64 O 0.76923 0.51872 0.11699 0.0
C65 C 0.84124 0.50118 0.07046 0.0
C66 C 0.74489 0.51117 0.12946 0.0
O67 O 0.73937 0.48387 0.13225 0.0
C68 C 0.78985 0.44386 0.15801 0.0
C69 C 0.86793 0.51795 0.07367 0.0
C70 C 0.8934 0.50737 0.06074 0.0
C71 C 0.91836 0.52408 0.06051 0.0
C72 C 0.91741 0.55149 0.0731 0.0
C73 C 0.89233 0.56256 0.08544 0.0
C74 C 0.86765 0.54575 0.08611 0.0
O75 O 0.78638 0.42372 0.05401 0.0
O76 O 0.76172 0.46227 0.07162 0.0
O77 O 0.81061 0.3632 0.11201 0.0
O78 O 0.77916 0.37141 0.07834 0.0
C79 C 0.79183 0.35163 0.09401 0.0
O80 O 0.80298 0.46667 0.14766 0.0
O81 O 0.78362 0.42203 0.14001 0.0
O82 O 0.81717 0.5153 0.07224 0.0
O83 O 0.8399 0.47569 0.08308 0.0
H84 H 0.89361 0.48642 0.05029 0.0
H85 H 0.93608 0.56504 0.07198 0.0
H86 H 0.84818 0.55471 0.09524 0.0
O87 O 0.09617 0.83324 0.09637 0.0
Tb88 Tb 0.08998 0.80693 0.13711 0.0
Eu89 Eu 0.02007 0.80161 0.11035 0.0
C90 C 0.11531 0.82362 0.0768 0.0
O91 O 0.12626 0.79836 0.08191 0.0
C92 C 0.07111 0.764 0.0869 0.0
O93 O 0.98399 0.77006 0.10643 0.0
C94 C 0.00754 0.85362 0.09555 0.0
C95 C 0.98961 0.74425 0.11653 0.0
O96 O 0.01531 0.73909 0.12696 0.0
C97 C 0.03967 0.79964 0.18179 0.0
C98 C 0.99212 0.8804 0.10151 0.0
C99 C 0.99997 0.90477 0.08456 0.0
C100 C 0.9844 0.93019 0.08719 0.0
C101 C 0.9617 0.93123 0.10799 0.0
C102 C 0.95346 0.90721 0.12489 0.0
C103 C 0.96848 0.88155 0.12141 0.0
O104 O 0.0821 0.76627 0.11463 0.0
O105 O 0.05111 0.78148 0.07761 0.0
O106 O 0.12481 0.78287 0.1577 0.0
O107 O 0.12985 0.82727 0.1509 0.0
C108 C 0.14216 0.80425 0.16062 0.0
O109 O 0.02236 0.78982 0.16061 0.0
O110 O 0.06076 0.81676 0.17444 0.0
O111 O 0.99251 0.83143 0.08671 0.0
O112 O 0.02948 0.84712 0.11308 0.0
H113 H 0.01748 0.90356 0.06837 0.0
H114 H 0.9497 0.95079 0.1105 0.0
H115 H 0.96166 0.86269 0.13373 0.0
O116 O 0.6547 0.37238 0.442 0.0
Tb117 Tb 0.68588 0.39418 0.41344 0.0
Eu118 Eu 0.6911 0.49305 0.38711 0.0
C119 C 0.66488 0.35652 0.46443 0.0
O120 O 0.6923 0.35729 0.46987 0.0
C121 C 0.71472 0.45209 0.43645 0.0
O122 O 0.73035 0.50868 0.36285 0.0
C123 C 0.65473 0.53279 0.39979 0.0
C124 C 0.752 0.49124 0.36015 0.0
O125 O 0.74857 0.46452 0.36832 0.0
C126 C 0.67589 0.43108 0.35625 0.0
C127 C 0.624 0.53792 0.40473 0.0
C128 C 0.60782 0.52201 0.42611 0.0
C129 C 0.57887 0.52825 0.4305 0.0
C130 C 0.56632 0.55018 0.41367 0.0
C131 C 0.58246 0.56755 0.39407 0.0
C132 C 0.61121 0.56084 0.38915 0.0
O133 O 0.69234 0.43857 0.42579 0.0
O134 O 0.71765 0.47869 0.42765 0.0
O135 O 0.72729 0.37603 0.42603 0.0
O136 O 0.70503 0.36033 0.38695 0.0
C137 C 0.72752 0.35729 0.40387 0.0
O138 O 0.66947 0.45136 0.37602 0.0
O139 O 0.67328 0.40472 0.36625 0.0
O140 O 0.66279 0.52669 0.37148 0.0
O141 O 0.66867 0.51854 0.42105 0.0
H142 H 0.61763 0.50524 0.4395 0.0
H143 H 0.54397 0.55471 0.41731 0.0
H144 H 0.62404 0.57418 0.37425 0.0
O145 O 0.13133 0.64566 0.44252 0.0
Tb146 Tb 0.10762 0.68352 0.43058 0.0
Eu147 Eu 0.01195 0.68604 0.40256 0.0
C148 C 0.13033 0.63716 0.47131 0.0
O149 O 0.11114 0.64849 0.48956 0.0
C150 C 0.05023 0.70898 0.45457 0.0
O151 O 0.99517 0.72392 0.3769 0.0
C152 C 0.97412 0.64729 0.41423 0.0
C153 C 0.01134 0.74668 0.37501 0.0
O154 O 0.03725 0.74559 0.38619 0.0
C155 C 0.07403 0.68033 0.37148 0.0
C156 C 0.96929 0.61643 0.41865 0.0
C157 C 0.98448 0.60024 0.44053 0.0
C158 C 0.97814 0.5712 0.44457 0.0
C159 C 0.95674 0.55863 0.42687 0.0
C160 C 0.93996 0.57486 0.40681 0.0
C161 C 0.94688 0.60364 0.40228 0.0
O162 O 0.06385 0.68573 0.44645 0.0
O163 O 0.02441 0.71243 0.44371 0.0
O164 O 0.13528 0.70769 0.46151 0.0
O165 O 0.12866 0.72257 0.41608 0.0
C166 C 0.14222 0.72717 0.44164 0.0
O167 O 0.05518 0.6689 0.39027 0.0
O168 O 0.10054 0.68081 0.38113 0.0
O169 O 0.98018 0.65596 0.38612 0.0
O170 O 0.98775 0.66137 0.43587 0.0
H171 H 1.00073 0.61012 0.45461 0.0
H172 H 0.95203 0.53626 0.43027 0.0
H173 H 0.93393 0.6166 0.38716 0.0
O174 O 0.86533 0.12381 0.43767 0.0
Tb175 Tb 0.82894 0.11046 0.41096 0.0
Eu176 Eu 0.81661 0.01131 0.39027 0.0
C177 C 0.86166 0.12613 0.46755 0.0
O178 O 0.83884 0.11466 0.47986 0.0
C179 C 0.79508 0.05464 0.43754 0.0
O180 O 0.77657 0.99867 0.36547 0.0
C181 C 0.85098 0.9697 0.40212 0.0
C182 C 0.76942 0.97176 0.36248 0.0
O183 O 0.78747 0.95203 0.37113 0.0
C184 C 0.83332 0.07019 0.35578 0.0
C185 C 0.88154 0.96307 0.4055 0.0
C186 C 0.89914 0.97676 0.42728 0.0
C187 C 0.9279 0.96888 0.43005 0.0
C188 C 0.93884 0.94738 0.41117 0.0
C189 C 0.92129 0.93289 0.39036 0.0
C190 C 0.89278 0.94102 0.38744 0.0
O191 O 0.81384 0.06771 0.42036 0.0
O192 O 0.79235 0.02733 0.43201 0.0
O193 O 0.81507 0.14719 0.38518 0.0
O194 O 0.79597 0.13896 0.42886 0.0
C195 C 0.79712 0.1565 0.40554 0.0
O196 O 0.84101 0.05052 0.37571 0.0
O197 O 0.83759 0.09699 0.36368 0.0
O198 O 0.8422 0.97585 0.37413 0.0
O199 O 0.83867 0.98495 0.42374 0.0
H200 H 0.89058 0.9931 0.44221 0.0
H201 H 0.96065 0.94053 0.41432 0.0
H202 H 0.87909 0.92964 0.37156 0.0
O203 O 0.38086 0.86412 0.4318 0.0
Tb204 Tb 0.38998 0.82356 0.41012 0.0
Eu205 Eu 0.48671 0.81062 0.38252 0.0
C206 C 0.38094 0.86544 0.46205 0.0
O207 O 0.39427 0.84546 0.47742 0.0
C208 C 0.44469 0.78682 0.43055 0.0
O209 O 0.50438 0.77341 0.35638 0.0
C210 C 0.52564 0.84662 0.39919 0.0
C211 C 0.48836 0.75087 0.35204 0.0
O212 O 0.46144 0.75206 0.36005 0.0
C213 C 0.42562 0.81977 0.35063 0.0
C214 C 0.53332 0.87693 0.4036 0.0
C215 C 0.5173 0.89571 0.42214 0.0
C216 C 0.52639 0.92409 0.42622 0.0
C217 C 0.55149 0.93322 0.4118 0.0
C218 C 0.5685 0.91443 0.39481 0.0
C219 C 0.55893 0.88642 0.39043 0.0
O220 O 0.43325 0.81139 0.42271 0.0
O221 O 0.47076 0.78235 0.42081 0.0
O222 O 0.34637 0.81742 0.39644 0.0
O223 O 0.36311 0.79126 0.43231 0.0
C224 C 0.34041 0.79776 0.41644 0.0
O225 O 0.44564 0.83109 0.36796 0.0
O226 O 0.39928 0.82108 0.36091 0.0
O227 O 0.52254 0.83773 0.37064 0.0
O228 O 0.50802 0.83452 0.4188 0.0
H229 H 0.49811 0.88834 0.43342 0.0
H230 H 0.55849 0.95498 0.41505 0.0
H231 H 0.57201 0.87145 0.3778 0.0
O232 O 0.32394 0.89342 0.93859 0.0
Tb233 Tb 0.30264 0.90642 0.89635 0.0
Eu234 Eu 0.29818 0.9757 0.92719 0.0
C235 C 0.31341 0.87009 0.95108 0.0
O236 O 0.28959 0.85997 0.93965 0.0
C237 C 0.25619 0.92484 0.94285 0.0
O238 O 0.27037 0.01456 0.92903 0.0
C239 C 0.3497 0.98556 0.94599 0.0
C240 C 0.24521 0.01203 0.91613 0.0
O241 O 0.23801 0.98725 0.90446 0.0
C242 C 0.30183 0.95931 0.85566 0.0
C243 C 0.37522 0.00369 0.94253 0.0
C244 C 0.40039 0.99553 0.95771 0.0
C245 C 0.42442 0.01348 0.95788 0.0
C246 C 0.42295 0.03951 0.94221 0.0
C247 C 0.39803 0.04804 0.92721 0.0
C248 C 0.37408 0.03014 0.92732 0.0
O249 O 0.26058 0.91527 0.9148 0.0
O250 O 0.27371 0.94339 0.95536 0.0
O251 O 0.27882 0.87545 0.86913 0.0
O252 O 0.32243 0.86788 0.87825 0.0
C253 C 0.29975 0.85779 0.86518 0.0
O254 O 0.28996 0.97617 0.87596 0.0
O255 O 0.31847 0.93862 0.86496 0.0
O256 O 0.32705 0.99776 0.95786 0.0
O257 O 0.3438 0.96703 0.92408 0.0
H258 H 0.401 0.97548 0.97003 0.0
H259 H 0.44085 0.05407 0.94294 0.0
H260 H 0.35454 0.03706 0.91646 0.0
O261 O 0.60275 0.34282 0.91395 0.0
Tb262 Tb 0.5885 0.29972 0.92245 0.0
Eu263 Eu 0.50478 0.29346 0.91429 0.0
C264 C 0.60021 0.36178 0.936 0.0
O265 O 0.58086 0.35764 0.95734 0.0
C266 C 0.54573 0.27034 0.96331 0.0
O267 O 0.47137 0.26069 0.90278 0.0
C268 C 0.48573 0.3404 0.93855 0.0
C269 C 0.48069 0.23601 0.89264 0.0
O270 O 0.50818 0.23297 0.88841 0.0
C271 C 0.55166 0.28484 0.86087 0.0
C272 C 0.47824 0.37077 0.93317 0.0
C273 C 0.49254 0.39253 0.94963 0.0
C274 C 0.48363 0.42109 0.94724 0.0
C275 C 0.46012 0.42758 0.92891 0.0
C276 C 0.44508 0.4063 0.91347 0.0
C277 C 0.45444 0.37803 0.915 0.0
O278 O 0.55636 0.29548 0.95753 0.0
O279 O 0.52313 0.26274 0.94813 0.0
O280 O 0.62156 0.29224 0.95701 0.0
O281 O 0.62379 0.27029 0.91472 0.0
C282 C 0.63645 0.27448 0.94087 0.0
O283 O 0.52799 0.29806 0.86902 0.0
O284 O 0.5735 0.28006 0.87949 0.0
O285 O 0.46933 0.3208 0.92607 0.0
O286 O 0.51279 0.33327 0.9391 0.0
H287 H 0.5101 0.38722 0.9647 0.0
H288 H 0.4524 0.44932 0.928 0.0
H289 H 0.4422 0.36166 0.90348 0.0
O290 O 0.16633 0.6353 0.90893 0.0
Tb291 Tb 0.20053 0.61883 0.88057 0.0
Eu292 Eu 0.20753 0.5181 0.88388 0.0
C293 C 0.16552 0.62929 0.93847 0.0
O294 O 0.18388 0.61099 0.94964 0.0
C295 C 0.23281 0.56848 0.91793 0.0
O296 O 0.24409 0.49343 0.86404 0.0
C297 C 0.17 0.48487 0.90929 0.0
C298 C 0.26901 0.50537 0.85958 0.0
O299 O 0.27172 0.53293 0.86377 0.0
C300 C 0.19507 0.57021 0.8353 0.0
C301 C 0.13907 0.47845 0.91056 0.0
C302 C 0.12008 0.49352 0.92999 0.0
C303 C 0.09134 0.48508 0.93209 0.0
C304 C 0.082 0.46141 0.91544 0.0
C305 C 0.10072 0.44584 0.89715 0.0
C306 C 0.12899 0.45454 0.89433 0.0
O307 O 0.21637 0.57801 0.89592 0.0
O308 O 0.2342 0.54073 0.91971 0.0
O309 O 0.23808 0.64474 0.88995 0.0
O310 O 0.21451 0.65162 0.8487 0.0
C311 C 0.23636 0.65975 0.86478 0.0
O312 O 0.18499 0.55199 0.8558 0.0
O313 O 0.18704 0.59694 0.83867 0.0
O314 O 0.18324 0.47887 0.88341 0.0
O315 O 0.17941 0.5082 0.92252 0.0
H316 H 0.12756 0.51129 0.94364 0.0
H317 H 0.06021 0.45411 0.91796 0.0
H318 H 0.14347 0.44172 0.88075 0.0
O319 O 0.87233 0.16941 0.94001 0.0
Tb320 Tb 0.88712 0.21206 0.93043 0.0
Eu321 Eu 0.98106 0.21352 0.89831 0.0
C322 C 0.87787 0.15891 0.96736 0.0
O323 O 0.89603 0.17253 0.98501 0.0
C324 C 0.94414 0.2434 0.94735 0.0
O325 O 0.00695 0.24516 0.87155 0.0
C326 C 0.01109 0.1724 0.92028 0.0
C327 C 0.99632 0.27044 0.86579 0.0
O328 O 0.9698 0.27569 0.87341 0.0
C329 C 0.91659 0.21023 0.86845 0.0
C330 C 0.02814 0.14883 0.93293 0.0
C331 C 0.0158 0.12884 0.95321 0.0
C332 C 0.03258 0.1073 0.96644 0.0
C333 C 0.0616 0.10623 0.95949 0.0
C334 C 0.0741 0.12575 0.93924 0.0
C335 C 0.05719 0.1468 0.92551 0.0
O336 O 0.93107 0.21882 0.94393 0.0
O337 O 0.9692 0.24599 0.9343 0.0
O338 O 0.85803 0.24758 0.92318 0.0
O339 O 0.8576 0.22618 0.96609 0.0
C340 C 0.84546 0.24594 0.94983 0.0
O341 O 0.93643 0.19944 0.88647 0.0
O342 O 0.89096 0.21202 0.8805 0.0
O343 O 0.00896 0.17706 0.89045 0.0
O344 O 0.99708 0.19012 0.93811 0.0
H345 H 0.99336 0.13008 0.95868 0.0
H346 H 0.07447 0.08926 0.96908 0.0
H347 H 0.06675 0.16194 0.90976 0.0
O348 O 0.3627 0.62037 0.57889 0.0
Tb349 Tb 0.33169 0.6056 0.61237 0.0
Eu350 Eu 0.31849 0.50568 0.62654 0.0
C351 C 0.35175 0.62939 0.55275 0.0
O352 O 0.32493 0.62354 0.54717 0.0
C353 C 0.29617 0.55202 0.58352 0.0
O354 O 0.279 0.48751 0.64845 0.0
C355 C 0.35362 0.4663 0.60942 0.0
C356 C 0.25597 0.50316 0.65082 0.0
O357 O 0.257 0.52996 0.64229 0.0
C358 C 0.33873 0.56309 0.66582 0.0
C359 C 0.3843 0.4601 0.60613 0.0
C360 C 0.40279 0.47716 0.5882 0.0
C361 C 0.43172 0.46977 0.58531 0.0
C362 C 0.44162 0.44525 0.60009 0.0
C363 C 0.42334 0.42748 0.61673 0.0
C364 C 0.3948 0.43528 0.62016 0.0
O365 O 0.31593 0.56359 0.60065 0.0
O366 O 0.29306 0.52449 0.58714 0.0
O367 O 0.32323 0.64482 0.63669 0.0
O368 O 0.294 0.63114 0.6022 0.0
C369 C 0.30019 0.65127 0.62179 0.0
O370 O 0.34299 0.54433 0.64366 0.0
O371 O 0.34283 0.59013 0.65859 0.0
O372 O 0.34383 0.46848 0.63773 0.0
O373 O 0.34196 0.48438 0.59005 0.0
H374 H 0.39482 0.4959 0.57654 0.0
H375 H 0.46373 0.43922 0.59754 0.0
H376 H 0.38044 0.42148 0.63278 0.0
O377 O 0.86959 0.35551 0.58963 0.0
Tb378 Tb 0.89 0.31702 0.60606 0.0
Eu379 Eu 0.98482 0.31021 0.6407 0.0
C380 C 0.87189 0.36109 0.56006 0.0
O381 O 0.89053 0.34658 0.54391 0.0
C382 C 0.94795 0.28798 0.58709 0.0
O383 O 0.00246 0.27107 0.66357 0.0
C384 C 0.02394 0.34805 0.63098 0.0
C385 C 0.98692 0.24788 0.66525 0.0
O386 O 0.96013 0.24905 0.65688 0.0
C387 C 0.92047 0.32038 0.66809 0.0
C388 C 0.03188 0.37841 0.6284 0.0
C389 C 0.01746 0.39788 0.60913 0.0
C390 C 0.02728 0.42622 0.60643 0.0
C391 C 0.05152 0.4345 0.62301 0.0
C392 C 0.06627 0.41525 0.64157 0.0
C393 C 0.05634 0.3873 0.64425 0.0
O394 O 0.93468 0.31168 0.59438 0.0
O395 O 0.97328 0.28404 0.59905 0.0
O396 O 0.86634 0.29197 0.57227 0.0
O397 O 0.86186 0.28229 0.61958 0.0
C398 C 0.85308 0.27601 0.59204 0.0
O399 O 0.94134 0.32866 0.64989 0.0
O400 O 0.89472 0.32053 0.65605 0.0
O401 O 0.01753 0.33837 0.65862 0.0
O402 O 0.00928 0.33613 0.60861 0.0
H403 H 0.99902 0.39101 0.59617 0.0
H404 H 0.0602 0.4557 0.61989 0.0
H405 H 0.06811 0.37222 0.65818 0.0
O406 O 0.15202 0.87181 0.59206 0.0
Tb407 Tb 0.19033 0.89146 0.6096 0.0
Eu408 Eu 0.18976 0.9902 0.62587 0.0
C409 C 0.14898 0.87108 0.562 0.0
O410 O 0.1666 0.88608 0.545 0.0
C411 C 0.21662 0.94941 0.58013 0.0
O412 O 0.22764 0.00816 0.65052 0.0
C413 C 0.15097 0.02732 0.6122 0.0
C414 C 0.25064 0.99242 0.65185 0.0
O415 O 0.24973 0.96659 0.64037 0.0
C416 C 0.185 0.93148 0.66443 0.0
C417 C 0.12 0.03321 0.6119 0.0
C418 C 0.10092 0.01868 0.59223 0.0
C419 C 0.072 0.0267 0.59088 0.0
C420 C 0.06263 0.04927 0.60947 0.0
C421 C 0.08132 0.064 0.62878 0.0
C422 C 0.10993 0.05594 0.62986 0.0
O423 O 0.19747 0.93522 0.59584 0.0
O424 O 0.2165 0.97694 0.58489 0.0
O425 O 0.22035 0.86438 0.58452 0.0
O426 O 0.21854 0.86264 0.63346 0.0
C427 C 0.23029 0.85188 0.60906 0.0
O428 O 0.17226 0.94893 0.64502 0.0
O429 O 0.18501 0.90416 0.65754 0.0
O430 O 0.16355 0.02621 0.63925 0.0
O431 O 0.16129 0.0091 0.59211 0.0
H432 H 0.10855 1.00154 0.57778 0.0
H433 H 0.0409 0.05671 0.60756 0.0
H434 H 0.12455 0.06784 0.64425 0.0
O435 O 0.63354 0.13752 0.5895 0.0
Tb436 Tb 0.613 0.17719 0.60134 0.0
Eu437 Eu 0.51834 0.18308 0.63069 0.0
C438 C 0.63106 0.12897 0.56083 0.0
O439 O 0.61119 0.14066 0.54377 0.0
C440 C 0.55627 0.2052 0.57848 0.0
O441 O 0.50019 0.22089 0.65527 0.0
C442 C 0.47994 0.14555 0.61715 0.0
C443 C 0.51586 0.24382 0.65845 0.0
O444 O 0.54264 0.24291 0.64986 0.0
C445 C 0.58085 0.17523 0.66184 0.0
C446 C 0.47234 0.11521 0.61335 0.0
C447 C 0.48473 0.09747 0.59076 0.0
C448 C 0.47474 0.06941 0.5868 0.0
C449 C 0.45252 0.05932 0.6053 0.0
C450 C 0.43944 0.07712 0.62686 0.0
C451 C 0.44953 0.10486 0.63093 0.0
O452 O 0.56898 0.18152 0.58683 0.0
O453 O 0.53099 0.21002 0.59008 0.0
O454 O 0.64097 0.19686 0.56728 0.0
O455 O 0.63828 0.21505 0.61171 0.0
C456 C 0.65077 0.21677 0.58505 0.0
O457 O 0.56124 0.16491 0.64321 0.0
O458 O 0.60706 0.1759 0.65112 0.0
O459 O 0.48447 0.15474 0.64539 0.0
O460 O 0.49602 0.1579 0.59624 0.0
H461 H 0.50147 0.10552 0.57597 0.0
H462 H 0.4441 0.03811 0.60142 0.0
H463 H 0.43889 0.11877 0.64719 0.0
H464 H 0.76627 0.32513 0.04596 0.0
H465 H 0.80721 0.3088 0.13292 0.0
H466 H 0.75903 0.27452 0.03854 0.0
H467 H 0.79845 0.25803 0.12674 0.0
H468 H 0.79286 0.16577 0.10566 0.0
H469 H 0.80831 0.21537 0.10394 0.0
H470 H 0.73248 0.23676 0.0525 0.0
H471 H 0.71876 0.18718 0.05214 0.0
C472 C 0.77347 0.31058 0.06365 0.0
C473 C 0.78711 0.32082 0.0901 0.0
C474 C 0.76928 0.28141 0.05947 0.0
C475 C 0.77808 0.26166 0.08194 0.0
C476 C 0.79188 0.27218 0.10844 0.0
C477 C 0.79662 0.30138 0.11228 0.0
C478 C 0.78011 0.18109 0.09318 0.0
C479 C 0.75467 0.17267 0.07904 0.0
C480 C 0.78864 0.20966 0.0926 0.0
C481 C 0.77144 0.2306 0.07866 0.0
C482 C 0.7467 0.22161 0.06316 0.0
C483 C 0.73868 0.19299 0.06298 0.0
H484 H 0.18352 0.84451 0.15369 0.0
H485 H 0.16943 0.75776 0.18262 0.0
H486 H 0.23497 0.83723 0.15716 0.0
H487 H 0.2205 0.75037 0.1859 0.0
H488 H 0.31158 0.7427 0.20112 0.0
H489 H 0.26487 0.76291 0.21168 0.0
H490 H 0.2683 0.80874 0.12553 0.0
H491 H 0.31539 0.78894 0.11537 0.0
C492 C 0.19144 0.82411 0.16147 0.0
C493 C 0.17262 0.80163 0.1678 0.0
C494 C 0.22084 0.81991 0.16327 0.0
C495 C 0.23182 0.79323 0.17174 0.0
C496 C 0.21279 0.77131 0.17973 0.0
C497 C 0.18351 0.77545 0.1777 0.0
C498 C 0.30268 0.75777 0.1849 0.0
C499 C 0.31679 0.76399 0.15725 0.0
C500 C 0.27589 0.76921 0.19087 0.0
C501 C 0.26265 0.78693 0.16916 0.0
C502 C 0.27796 0.79522 0.14278 0.0
C503 C 0.3049 0.78386 0.1369 0.0
H504 H 0.7336 0.32228 0.3555 0.0
H505 H 0.75792 0.33276 0.4506 0.0
H506 H 0.7502 0.27352 0.35645 0.0
H507 H 0.77556 0.28363 0.45148 0.0
H508 H 0.76763 0.18498 0.4506 0.0
H509 H 0.75466 0.23557 0.45041 0.0
H510 H 0.79077 0.24423 0.35934 0.0
H511 H 0.80249 0.19408 0.35913 0.0
C512 C 0.7434 0.31433 0.37636 0.0
C513 C 0.74461 0.3312 0.40292 0.0
C514 C 0.75289 0.28633 0.37696 0.0
C515 C 0.76398 0.27455 0.40414 0.0
C516 C 0.76668 0.29198 0.43034 0.0
C517 C 0.75711 0.3202 0.42971 0.0
C518 C 0.77223 0.19772 0.43041 0.0
C519 C 0.78576 0.18564 0.40477 0.0
C520 C 0.76527 0.22672 0.43047 0.0
C521 C 0.77184 0.24397 0.4049 0.0
C522 C 0.78508 0.23156 0.37924 0.0
C523 C 0.79177 0.20275 0.37911 0.0
H524 H 0.17982 0.731 0.48942 0.0
H525 H 0.16328 0.76183 0.39758 0.0
H526 H 0.22793 0.75083 0.48697 0.0
H527 H 0.21117 0.78038 0.39444 0.0
H528 H 0.29312 0.82516 0.39891 0.0
H529 H 0.24422 0.81371 0.41071 0.0
H530 H 0.27182 0.73949 0.46137 0.0
H531 H 0.32153 0.7523 0.45094 0.0
C532 C 0.18629 0.74257 0.46901 0.0
C533 C 0.16797 0.74482 0.44362 0.0
C534 C 0.21394 0.75354 0.46741 0.0
C535 C 0.22366 0.76684 0.44035 0.0
C536 C 0.2045 0.7706 0.41582 0.0
C537 C 0.17693 0.75991 0.41755 0.0
C538 C 0.28881 0.80634 0.41255 0.0
C539 C 0.31103 0.78925 0.42353 0.0
C540 C 0.26069 0.79975 0.41931 0.0
C541 C 0.25391 0.77543 0.4366 0.0
C542 C 0.27625 0.75854 0.4482 0.0
C543 C 0.30467 0.76558 0.44194 0.0
H544 H 0.25333 0.83396 0.83858 0.0
H545 H 0.33828 0.81487 0.8698 0.0
H546 H 0.24391 0.78336 0.83207 0.0
H547 H 0.32897 0.76403 0.86308 0.0
H548 H 0.27668 0.68485 0.90074 0.0
H549 H 0.29767 0.73191 0.89323 0.0
H550 H 0.25538 0.7388 0.80528 0.0
H551 H 0.23406 0.692 0.81311 0.0
C552 C 0.27024 0.81893 0.84318 0.0
C553 C 0.29641 0.8282 0.85486 0.0
C554 C 0.26493 0.78994 0.83935 0.0
C555 C 0.28567 0.76971 0.84729 0.0
C556 C 0.31252 0.77915 0.85708 0.0
C557 C 0.3179 0.80821 0.86072 0.0
C558 C 0.27245 0.69619 0.87952 0.0
C559 C 0.25344 0.68514 0.85773 0.0
C560 C 0.28457 0.72305 0.8751 0.0
C561 C 0.27786 0.73918 0.8488 0.0
C562 C 0.26056 0.72704 0.82597 0.0
C563 C 0.24843 0.70025 0.83042 0.0
H564 H 0.66652 0.28388 0.99373 0.0
H565 H 0.67371 0.24898 0.90211 0.0
H566 H 0.71817 0.27941 1.00036 0.0
H567 H 0.72508 0.24504 0.90857 0.0
H568 H 0.81431 0.28124 0.91371 0.0
H569 H 0.76274 0.28718 0.91519 0.0
H570 H 0.7587 0.23766 0.99863 0.0
H571 H 0.81045 0.23217 0.9977 0.0
C572 C 0.67907 0.27478 0.97529 0.0
C573 C 0.66623 0.2669 0.94734 0.0
C574 C 0.70854 0.27235 0.97905 0.0
C575 C 0.72551 0.26246 0.95472 0.0
C576 C 0.71244 0.25322 0.92744 0.0
C577 C 0.68305 0.25523 0.92387 0.0
C578 C 0.80255 0.27246 0.93295 0.0
C579 C 0.81633 0.25617 0.9555 0.0
C580 C 0.77306 0.27559 0.93361 0.0
C581 C 0.75687 0.2626 0.95688 0.0
C582 C 0.77081 0.24809 0.98068 0.0
C583 C 0.80038 0.24501 0.9801 0.0
H584 H 0.24489 0.81785 0.56038 0.0
H585 H 0.2494 0.82454 0.65938 0.0
H586 H 0.26196 0.76867 0.5635 0.0
H587 H 0.26512 0.77563 0.66271 0.0
H588 H 0.31611 0.69504 0.65793 0.0
H589 H 0.30297 0.74462 0.65284 0.0
H590 H 0.24407 0.72262 0.58023 0.0
H591 H 0.25841 0.67266 0.58454 0.0
C592 C 0.25005 0.80896 0.58269 0.0
C593 C 0.2459 0.82487 0.60964 0.0
C594 C 0.25934 0.78072 0.58455 0.0
C595 C 0.26456 0.76809 0.61339 0.0
C596 C 0.26161 0.78467 0.64011 0.0
C597 C 0.25257 0.81276 0.63822 0.0
C598 C 0.30008 0.70071 0.64113 0.0
C599 C 0.28814 0.68007 0.62173 0.0
C600 C 0.29254 0.72918 0.63819 0.0
C601 C 0.27255 0.73767 0.61604 0.0
C602 C 0.25992 0.71683 0.59715 0.0
C603 C 0.26773 0.68822 0.59994 0.0
H604 H 0.68552 0.21242 0.53504 0.0
H605 H 0.67805 0.25282 0.62392 0.0
H606 H 0.73598 0.22497 0.53327 0.0
H607 H 0.72822 0.26575 0.62197 0.0
H608 H 0.82064 0.24652 0.63257 0.0
H609 H 0.7705 0.23471 0.62689 0.0
H610 H 0.7727 0.26364 0.53253 0.0
H611 H 0.82322 0.27512 0.53815 0.0
C612 C 0.69449 0.22474 0.55375 0.0
C613 C 0.67809 0.2313 0.57986 0.0
C614 C 0.72337 0.23181 0.55278 0.0
C615 C 0.7362 0.24551 0.57793 0.0
C616 C 0.71908 0.25437 0.60268 0.0
C617 C 0.69028 0.24733 0.60364 0.0
C618 C 0.81062 0.24967 0.61039 0.0
C619 C 0.82569 0.26194 0.5859 0.0
C620 C 0.78181 0.24332 0.60725 0.0
C621 C 0.76749 0.24914 0.57957 0.0
C622 C 0.78313 0.2592 0.55423 0.0
C623 C 0.81206 0.26559 0.55739 0.0
H624 H 0.66119 0.17658 0.08353 0.0
H625 H 0.59634 0.11589 0.05862 0.0
H626 H 0.63714 0.21317 0.05407 0.0
H627 H 0.57063 0.153 0.03117 0.0
H628 H 0.54723 0.21314 0.95514 0.0
H629 H 0.57128 0.17794 0.98649 0.0
H630 H 0.60134 0.24488 0.04681 0.0
H631 H 0.57895 0.28015 0.01361 0.0
C632 C 0.64112 0.17138 0.07264 0.0
C633 C 0.63046 0.14347 0.0735 0.0
C634 C 0.62723 0.19244 0.05566 0.0
C635 C 0.60188 0.18628 0.03974 0.0
C636 C 0.5905 0.15856 0.04217 0.0
C637 C 0.60491 0.1373 0.05837 0.0
C638 C 0.55913 0.22026 0.97506 0.0
C639 C 0.56118 0.24931 0.98208 0.0
C640 C 0.5727 0.20002 0.99337 0.0
C641 C 0.588 0.20822 0.0198 0.0
C642 C 0.59015 0.23751 0.02658 0.0
C643 C 0.57719 0.25783 1.00767 0.0
H644 H 0.27421 0.60686 0.90428 0.0
H645 H 0.22998 0.56766 0.98002 0.0
H646 H 0.30438 0.63298 0.94042 0.0
H647 H 0.26108 0.59216 0.0164 0.0
H648 H 0.30531 0.65904 0.07504 0.0
H649 H 0.273 0.63662 0.03865 0.0
H650 H 0.34256 0.6247 0.97494 0.0
H651 H 0.37468 0.64806 1.011 0.0
C652 C 0.27041 0.60462 0.92875 0.0
C653 C 0.24895 0.58647 0.93949 0.0
C654 C 0.28815 0.61894 0.9495 0.0
C655 C 0.28523 0.61481 0.98149 0.0
C656 C 0.26366 0.59642 0.99207 0.0
C657 C 0.24586 0.58231 0.97128 0.0
C658 C 0.31377 0.65154 0.05333 0.0
C659 C 0.34264 0.65534 0.04599 0.0
C660 C 0.2952 0.63857 0.03243 0.0
C661 C 0.30503 0.62886 1.00369 0.0
C662 C 0.33403 0.63238 0.99655 0.0
C663 C 0.35257 0.64553 0.01738 0.0
H664 H 0.87801 0.40916 0.99995 0.0
H665 H 0.8765 0.36087 0.08456 0.0
H666 H 0.89875 0.36876 0.9733 0.0
H667 H 0.89804 0.32054 0.05797 0.0
H668 H 0.90356 0.24356 0.99265 0.0
H669 H 0.88467 0.28482 0.02038 0.0
H670 H 0.93985 0.33998 0.96762 0.0
H671 H 0.95733 0.29911 0.93909 0.0
C672 C 0.88274 0.39015 0.01307 0.0
C673 C 0.87549 0.38833 0.0444 0.0
C674 C 0.89467 0.36689 0.99775 0.0
C675 C 0.8998 0.34117 0.01334 0.0
C676 C 0.89386 0.3398 0.04507 0.0
C677 C 0.88191 0.36313 0.06045 0.0
C678 C 0.91091 0.26462 0.98645 0.0
C679 C 0.93129 0.26816 0.96316 0.0
C680 C 0.90062 0.28823 1.00277 0.0
C681 C 0.91074 0.31585 0.9963 0.0
C682 C 0.93121 0.31919 0.97298 0.0
C683 C 0.94134 0.29569 0.95667 0.0
H684 H 0.242 0.93521 1.00328 0.0
H685 H 0.21404 0.88953 0.92247 0.0
H686 H 0.20326 0.91387 0.03292 0.0
H687 H 0.17517 0.86882 0.95181 0.0
H688 H 0.14175 0.80582 0.02509 0.0
H689 H 0.17256 0.83317 0.99139 0.0
H690 H 0.15131 0.90985 0.04113 0.0
H691 H 0.12043 0.88201 0.07544 0.0
C692 C 0.22741 0.92095 0.99171 0.0
C693 C 0.2314 0.91387 0.96054 0.0
C694 C 0.20504 0.90887 1.00867 0.0
C695 C 0.18614 0.88946 0.99483 0.0
C696 C 0.18955 0.88331 0.96337 0.0
C697 C 0.21187 0.89529 0.94649 0.0
C698 C 0.14312 0.82863 0.02846 0.0
C699 C 0.12866 0.84175 0.05292 0.0
C700 C 0.16077 0.84438 1.00904 0.0
C701 C 0.1646 0.87375 0.01358 0.0
C702 C 0.14907 0.88721 0.0372 0.0
C703 C 0.13109 0.87136 0.05659 0.0
H704 H 0.6065 0.35316 0.46793 0.0
H705 H 0.68363 0.31162 0.49782 0.0
H706 H 0.57839 0.31644 0.49452 0.0
H707 H 0.65574 0.27519 0.5236 0.0
H708 H 0.59539 0.19829 0.53308 0.0
H709 H 0.6206 0.23559 0.50454 0.0
H710 H 0.57252 0.29973 0.5529 0.0
H711 H 0.54819 0.26247 0.58228 0.0
C712 C 0.6174 0.3363 0.48013 0.0
C713 C 0.64723 0.33536 0.48087 0.0
C714 C 0.60137 0.31538 0.49531 0.0
C715 C 0.61499 0.29295 0.51084 0.0
C716 C 0.64475 0.29207 0.5115 0.0
C717 C 0.66067 0.31312 0.4969 0.0
C718 C 0.59067 0.22038 0.53796 0.0
C719 C 0.57074 0.22758 0.5606 0.0
C720 C 0.60478 0.24165 0.52144 0.0
C721 C 0.59855 0.27048 0.52672 0.0
C722 C 0.57762 0.27765 0.54838 0.0
C723 C 0.56385 0.25636 0.56523 0.0
H724 H 0.13287 0.61297 0.5282 0.0
H725 H 0.18236 0.62602 0.4456 0.0
H726 H 0.17445 0.59348 0.55387 0.0
H727 H 0.22429 0.60725 0.4716 0.0
H728 H 0.28642 0.54644 0.52245 0.0
H729 H 0.24611 0.56546 0.49346 0.0
H730 H 0.21817 0.61065 0.5747 0.0
H731 H 0.25762 0.59023 0.60371 0.0
C732 C 0.15259 0.61143 0.51541 0.0
C733 C 0.15429 0.6211 0.48488 0.0
C734 C 0.17656 0.60059 0.53026 0.0
C735 C 0.20293 0.59934 0.51504 0.0
C736 C 0.20434 0.60784 0.48402 0.0
C737 C 0.18025 0.61854 0.46907 0.0
C738 C 0.27197 0.56104 0.53372 0.0
C739 C 0.27566 0.56796 0.56485 0.0
C740 C 0.24887 0.5719 0.5172 0.0
C741 C 0.22878 0.58953 0.53173 0.0
C742 C 0.23301 0.59689 0.56282 0.0
C743 C 0.25601 0.58588 0.57929 0.0
H744 H 0.86384 0.13199 0.52988 0.0
H745 H 0.89513 0.16922 0.44545 0.0
H746 H 0.88414 0.17151 0.55901 0.0
H747 H 0.91532 0.20883 0.47468 0.0
H748 H 0.91466 0.29053 0.53564 0.0
H749 H 0.89502 0.25026 0.50646 0.0
H750 H 0.93257 0.19186 0.57144 0.0
H751 H 0.95204 0.23183 0.60024 0.0
C752 C 0.87546 0.14836 0.5176 0.0
C753 C 0.878 0.14739 0.48539 0.0
C754 C 0.887 0.17102 0.53427 0.0
C755 C 0.90103 0.19338 0.51905 0.0
C756 C 0.90426 0.19207 0.48693 0.0
C757 C 0.89304 0.16918 0.47027 0.0
C758 C 0.91821 0.26907 0.54385 0.0
C759 C 0.93419 0.26428 0.57057 0.0
C760 C 0.90734 0.24607 0.52702 0.0
C761 C 0.91226 0.21793 0.53676 0.0
C762 C 0.92815 0.21328 0.56359 0.0
C763 C 0.93926 0.23618 0.5801 0.0
H764 H 0.37893 0.87852 0.52323 0.0
H765 H 0.33347 0.89045 0.43794 0.0
H766 H 0.33941 0.89954 0.55149 0.0
H767 H 0.29347 0.91025 0.46612 0.0
H768 H 0.23383 0.96511 0.52335 0.0
H769 H 0.27511 0.94815 0.49478 0.0
H770 H 0.29317 0.88842 0.56795 0.0
H771 H 0.25299 0.90734 0.59726 0.0
C772 C 0.36062 0.88598 0.51048 0.0
C773 C 0.35944 0.88293 0.47833 0.0
C774 C 0.33772 0.89765 0.52672 0.0
C775 C 0.31288 0.90624 0.51127 0.0
C776 C 0.31225 0.9042 0.47892 0.0
C777 C 0.3353 0.89287 0.46266 0.0
C778 C 0.24649 0.94807 0.533 0.0
C779 C 0.23953 0.93644 0.56177 0.0
C780 C 0.27014 0.93826 0.51663 0.0
C781 C 0.28753 0.91665 0.52877 0.0
C782 C 0.28049 0.90517 0.5578 0.0
C783 C 0.25697 0.91529 0.57428 0.0
H784 H 0.35777 0.88536 0.98947 0.0
H785 H 0.30669 0.81367 0.9611 0.0
H786 H 0.38468 0.85415 0.02394 0.0
H787 H 0.33424 0.78248 0.9934 0.0
H788 H 0.3719 0.7328 0.07052 0.0
H789 H 0.34362 0.76675 0.04168 0.0
H790 H 0.41858 0.81855 0.0273 0.0
H791 H 0.44596 0.78574 0.05881 0.0
C792 C 0.35235 0.86298 0.99055 0.0
C793 C 0.32988 0.85214 0.97282 0.0
C794 C 0.36792 0.84493 1.01011 0.0
C795 C 0.36171 0.81553 1.01186 0.0
C796 C 0.33933 0.80493 0.99371 0.0
C797 C 0.32353 0.82295 0.97484 0.0
C798 C 0.38209 0.75182 0.06195 0.0
C799 C 0.41093 0.75689 0.06776 0.0
C800 C 0.36602 0.77117 0.04474 0.0
C801 C 0.37862 0.79571 0.03182 0.0
C802 C 0.40775 0.80042 0.03726 0.0
C803 C 0.42363 0.78134 0.05507 0.0
H804 H 0.70839 0.45223 0.0589 0.0
H805 H 0.76905 0.41569 0.99588 0.0
H806 H 0.66972 0.43699 0.02606 0.0
H807 H 0.73056 0.4024 0.96126 0.0
H808 H 0.65568 0.34728 0.93019 0.0
H809 H 0.69598 0.36981 0.95464 0.0
H810 H 0.64185 0.43919 0.98399 0.0
H811 H 0.60097 0.41482 0.96165 0.0
C812 C 0.71345 0.4416 0.03746 0.0
C813 C 0.7417 0.43497 0.03005 0.0
C814 C 0.69119 0.43299 0.01831 0.0
C815 C 0.69659 0.41819 0.99068 0.0
C816 C 0.72518 0.41297 0.9826 0.0
C817 C 0.7474 0.42084 1.00229 0.0
C818 C 0.65254 0.36772 0.94122 0.0
C819 C 0.62519 0.37938 0.94395 0.0
C820 C 0.67582 0.38082 0.95534 0.0
C821 C 0.67252 0.40639 0.97192 0.0
C822 C 0.64535 0.41911 0.97245 0.0
C823 C 0.62188 0.40545 0.95917 0.0
H824 H 0.13395 0.67653 0.9251 0.0
H825 H 0.15604 0.61998 0.9997 0.0
H826 H 0.10917 0.70745 0.96115 0.0
H827 H 0.13044 0.65039 0.03565 0.0
H828 H 0.11756 0.72999 0.09482 0.0
H829 H 0.13741 0.69577 0.05884 0.0
H830 H 0.06947 0.71359 0.9948 0.0
H831 H 0.05006 0.74856 0.03053 0.0
C832 C 0.13303 0.67038 0.94911 0.0
C833 C 0.14717 0.6459 0.95956 0.0
C834 C 0.1187 0.68809 0.96982 0.0
C835 C 0.118 0.68161 1.00143 0.0
C836 C 0.13105 0.65639 1.01159 0.0
C837 C 0.14555 0.63881 0.99093 0.0
C838 C 0.10671 0.7265 0.07316 0.0
C839 C 0.08223 0.74208 0.06556 0.0
C840 C 0.11801 0.7067 0.05255 0.0
C841 C 0.10503 0.70179 0.02387 0.0
C842 C 0.08025 0.71706 0.01649 0.0
C843 C 0.06903 0.73703 0.03705 0.0
H844 H 0.78607 0.03686 0.08256 0.0
H845 H 0.72285 0.08926 0.03852 0.0
H846 H 0.8233 0.05994 0.05243 0.0
H847 H 0.76021 0.11335 1.00911 0.0
H848 H 0.83044 0.13463 0.94187 0.0
H849 H 0.79493 0.10542 0.96803 0.0
H850 H 0.84628 0.10608 0.05042 0.0
H851 H 0.88195 0.13468 0.02419 0.0
C852 C 0.78019 0.05349 0.06653 0.0
C853 C 0.75171 0.06185 0.06332 0.0
C854 C 0.80152 0.06679 0.04938 0.0
C855 C 0.79477 0.08858 0.02848 0.0
C856 C 0.76612 0.09647 0.02483 0.0
C857 C 0.74479 0.08311 0.04202 0.0
C858 C 0.83443 0.12803 0.96536 0.0
C859 C 0.85897 0.1371 0.981 0.0
C860 C 0.81392 0.11157 0.98045 0.0
C861 C 0.81761 0.10373 1.01142 0.0
C862 C 0.84285 0.11158 0.0265 0.0
C863 C 0.8633 0.12804 1.01146 0.0
H864 H 0.40902 0.64129 0.54878 0.0
H865 H 0.32702 0.66746 0.51422 0.0
H866 H 0.4316 0.6797 0.51894 0.0
H867 H 0.34942 0.70595 0.48552 0.0
H868 H 0.40248 0.79136 0.47399 0.0
H869 H 0.38003 0.75263 0.50317 0.0
H870 H 0.43403 0.69187 0.45727 0.0
H871 H 0.45517 0.73021 0.42692 0.0
C872 C 0.39589 0.65509 0.5348 0.0
C873 C 0.36631 0.65114 0.53367 0.0
C874 C 0.40875 0.67704 0.51782 0.0
C875 C 0.39214 0.69582 0.50016 0.0
C876 C 0.36264 0.6919 0.49913 0.0
C877 C 0.34991 0.66965 0.51539 0.0
C878 C 0.40885 0.76969 0.46947 0.0
C879 C 0.42978 0.76381 0.4474 0.0
C880 C 0.39635 0.74759 0.48644 0.0
C881 C 0.4054 0.71931 0.48243 0.0
C882 C 0.42679 0.71349 0.46089 0.0
C883 C 0.43873 0.73546 0.44345 0.0
H884 H 0.70978 0.41081 0.48065 0.0
H885 H 0.77095 0.46384 0.43389 0.0
H886 H 0.74812 0.39005 0.51174 0.0
H887 H 0.80892 0.44409 0.46528 0.0
H888 H 0.87287 0.37862 0.5004 0.0
H889 H 0.8345 0.39998 0.47102 0.0
H890 H 0.78235 0.40271 0.55282 0.0
H891 H 0.82083 0.38072 0.58231 0.0
C892 C 0.73145 0.41773 0.47686 0.0
C893 C 0.73752 0.43837 0.45446 0.0
C894 C 0.75334 0.40623 0.49491 0.0
C895 C 0.78166 0.41535 0.49096 0.0
C896 C 0.78749 0.43623 0.46865 0.0
C897 C 0.7657 0.44765 0.45073 0.0
C898 C 0.85339 0.3841 0.51229 0.0
C899 C 0.85 0.37805 0.54376 0.0
C900 C 0.83135 0.3964 0.49541 0.0
C901 C 0.80526 0.40298 0.5095 0.0
C902 C 0.80205 0.39757 0.54118 0.0
C903 C 0.82423 0.38533 0.55817 0.0
H904 H 0.12221 0.82578 0.58922 0.0
H905 H 0.13542 0.86663 0.50125 0.0
H906 H 0.09789 0.78641 0.56349 0.0
H907 H 0.11131 0.82729 0.47565 0.0
H908 H 0.04152 0.76536 0.44494 0.0
H909 H 0.0634 0.80531 0.47173 0.0
H910 H 0.11189 0.74676 0.52743 0.0
H911 H 0.08955 0.70658 0.50062 0.0
C912 C 0.11954 0.82659 0.56448 0.0
C913 C 0.13069 0.84936 0.54727 0.0
C914 C 0.10592 0.80389 0.54973 0.0
C915 C 0.1029 0.80367 0.51755 0.0
C916 C 0.11316 0.82693 0.5005 0.0
C917 C 0.12697 0.84947 0.51518 0.0
C918 C 0.05698 0.761 0.46277 0.0
C919 C 0.06436 0.73291 0.47032 0.0
C920 C 0.06954 0.78389 0.47807 0.0
C921 C 0.08941 0.77919 0.50162 0.0
C922 C 0.09648 0.75103 0.50951 0.0
C923 C 0.08403 0.72808 0.49397 0.0
H924 H 0.78424 0.04047 0.49671 0.0
H925 H 0.75947 0.09822 0.4246 0.0
H926 H 0.74471 0.05715 0.52861 0.0
H927 H 0.72045 0.11572 0.45663 0.0
H928 H 0.63359 0.11053 0.50146 0.0
H929 H 0.67534 0.09424 0.4735 0.0
H930 H 0.72485 0.09841 0.55703 0.0
H931 H 0.68289 0.11453 0.58524 0.0
C932 C 0.77085 0.05748 0.4882 0.0
C933 C 0.77536 0.06887 0.45874 0.0
C934 C 0.74822 0.06697 0.50637 0.0
C935 C 0.72934 0.08764 0.49509 0.0
C936 C 0.73448 0.0996 0.46589 0.0
C937 C 0.75719 0.09016 0.44782 0.0
C938 C 0.65324 0.10757 0.51403 0.0
C939 C 0.65489 0.11395 0.54558 0.0
C940 C 0.67727 0.09857 0.49789 0.0
C941 C 0.70355 0.09563 0.5129 0.0
C942 C 0.70491 0.10054 0.5448 0.0
C943 C 0.68082 0.10964 0.56098 0.0
H944 H 0.80298 0.10875 0.32331 0.0
H945 H 0.82156 0.01876 0.32669 0.0
H946 H 0.7754 0.10179 0.27708 0.0
H947 H 0.79309 0.0118 0.27946 0.0
H948 H 0.70692 0.02847 0.2113 0.0
H949 H 0.73654 0.02265 0.25784 0.0
H950 H 0.79506 0.08561 0.2229 0.0
H951 H 0.76581 0.09167 0.17742 0.0
C952 C 0.80115 0.08734 0.3143 0.0
C953 C 0.81487 0.06434 0.32868 0.0
C954 C 0.78522 0.0834 0.28769 0.0
C955 C 0.78241 0.05635 0.27441 0.0
C956 C 0.79498 0.0329 0.28925 0.0
C957 C 0.81125 0.0369 0.31619 0.0
C958 C 0.72652 0.04043 0.21335 0.0
C959 C 0.73374 0.06097 0.19109 0.0
C960 C 0.74345 0.03707 0.23987 0.0
C961 C 0.7678 0.05408 0.24415 0.0
C962 C 0.77617 0.07257 0.22046 0.0
C963 C 0.75934 0.07608 0.19442 0.0
H964 H 0.39825 0.74403 0.17425 0.0
H965 H 0.47184 0.69759 0.20505 0.0
H966 H 0.4035 0.77707 0.21695 0.0
H967 H 0.47707 0.73087 0.24857 0.0
H968 H 0.47579 0.81346 0.31689 0.0
H969 H 0.48207 0.78614 0.26869 0.0
H970 H 0.39385 0.76122 0.27231 0.0
H971 H 0.38768 0.78745 0.31952 0.0
C972 C 0.41595 0.74125 0.18982 0.0
C973 C 0.43434 0.71795 0.18654 0.0
C974 C 0.419 0.76021 0.21432 0.0
C975 C 0.44033 0.75624 0.23656 0.0
C976 C 0.46042 0.73449 0.23182 0.0
C977 C 0.45745 0.71546 0.20692 0.0
C978 C 0.45788 0.80195 0.30738 0.0
C979 C 0.43121 0.80284 0.32216 0.0
C980 C 0.46148 0.78635 0.27983 0.0
C981 C 0.4383 0.77193 0.26639 0.0
C982 C 0.412 0.77255 0.28161 0.0
C983 C 0.40852 0.78764 0.30892 0.0
H984 H 0.78471 0.39985 0.19831 0.0
H985 H 0.766 0.48908 0.18842 0.0
H986 H 0.75918 0.39886 0.24674 0.0
H987 H 0.73737 0.48773 0.23499 0.0
H988 H 0.69552 0.48127 0.32993 0.0
H989 H 0.72684 0.48592 0.28529 0.0
H990 H 0.71661 0.39583 0.26745 0.0
H991 H 0.68913 0.39111 0.31369 0.0
C992 C 0.77486 0.41926 0.20648 0.0
C993 C 0.77715 0.44441 0.18934 0.0
C994 C 0.75959 0.41869 0.23414 0.0
C995 C 0.74484 0.44295 0.24488 0.0
C996 C 0.74816 0.46847 0.22809 0.0
C997 C 0.76453 0.46927 0.20103 0.0
C998 C 0.70088 0.46248 0.31688 0.0
C999 C 0.69111 0.4357 0.32651 0.0
C1000 C 0.71847 0.46509 0.29074 0.0
C1001 C 0.72556 0.44106 0.27265 0.0
C1002 C 0.71351 0.41474 0.28119 0.0
C1003 C 0.69707 0.41206 0.30777 0.0
H1004 H 0.06807 0.81594 0.23431 0.0
H1005 H 0.01015 0.75226 0.19954 0.0
H1006 H 0.07281 0.78908 0.28203 0.0
H1007 H 0.01615 0.72463 0.24613 0.0
H1008 H 0.0229 0.6833 0.34043 0.0
H1009 H 0.01038 0.71543 0.29821 0.0
H1010 H 0.09609 0.74881 0.29856 0.0
H1011 H 0.10774 0.71835 0.34145 0.0
C1012 C 0.05613 0.79637 0.23693 0.0
C1013 C 0.03889 0.78629 0.2129 0.0
C1014 C 0.05911 0.78066 0.26421 0.0
C1015 C 0.04543 0.75411 0.26795 0.0
C1016 C 0.02695 0.74492 0.24451 0.0
C1017 C 0.02357 0.76086 0.21753 0.0
C1018 C 0.03888 0.69775 0.33159 0.0
C1019 C 0.06614 0.69848 0.34472 0.0
C1020 C 0.03183 0.71609 0.30717 0.0
C1021 C 0.05207 0.73524 0.29491 0.0
C1022 C 0.07951 0.73526 0.30774 0.0
C1023 C 0.08637 0.7173 0.33223 0.0
H1024 H 0.23755 0.91032 0.67485 0.0
H1025 H 0.17915 0.9742 0.70732 0.0
H1026 H 0.26985 0.92117 0.71657 0.0
H1027 H 0.21042 0.98368 0.75118 0.0
H1028 H 0.27549 0.00277 0.82463 0.0
H1029 H 0.25075 1.00023 0.77533 0.0
H1030 H 0.2752 0.91182 0.76708 0.0
H1031 H 0.30123 0.91518 0.81488 0.0
C1032 C 0.23157 0.92669 0.69116 0.0
C1033 C 0.20568 0.94127 0.68795 0.0
C1034 C 0.25003 0.93277 0.71544 0.0
C1035 C 0.24269 0.95276 0.73822 0.0
C1036 C 0.21717 0.96823 0.73424 0.0
C1037 C 0.19904 0.96276 0.70915 0.0
C1038 C 0.27612 0.98304 0.81177 0.0
C1039 C 0.29058 0.95926 0.82364 0.0
C1040 C 0.26156 0.98142 0.7836 0.0
C1041 C 0.26055 0.95576 0.76681 0.0
C1042 C 0.27578 0.93226 0.77852 0.0
C1043 C 0.29079 0.93409 0.80625 0.0
H1044 H 0.51132 0.2534 0.83097 0.0
H1045 H 0.59577 0.28752 0.82053 0.0
H1046 H 0.51712 0.2259 0.78404 0.0
H1047 H 0.60072 0.2631 0.7717 0.0
H1048 H 0.61903 0.19647 0.70258 0.0
H1049 H 0.61069 0.22263 0.74916 0.0
H1050 H 0.51989 0.21643 0.73397 0.0
H1051 H 0.52885 0.18655 0.68913 0.0
C1052 C 0.53092 0.25553 0.81811 0.0
C1053 C 0.55327 0.27225 0.82963 0.0
C1054 C 0.53428 0.23985 0.79084 0.0
C1055 C 0.55977 0.2413 0.77369 0.0
C1056 C 0.58125 0.25987 0.78447 0.0
C1057 C 0.57832 0.27449 0.81236 0.0
C1058 C 0.5972 0.20053 0.70919 0.0
C1059 C 0.57455 0.19025 0.69128 0.0
C1060 C 0.59231 0.21619 0.73597 0.0
C1061 C 0.5645 0.2231 0.74547 0.0
C1062 C 0.54171 0.21194 0.72794 0.0
C1063 C 0.54674 0.19514 0.70167 0.0
H1064 H 0.30551 0.51716 0.68299 0.0
H1065 H 0.34157 0.5946 0.7178 0.0
H1066 H 0.27237 0.51545 0.72677 0.0
H1067 H 0.3121 0.5913 0.76326 0.0
H1068 H 0.22945 0.60953 0.80902 0.0
H1069 H 0.2665 0.60315 0.77211 0.0
H1070 H 0.25672 0.51181 0.77838 0.0
H1071 H 0.21713 0.51869 0.81475 0.0
C1072 C 0.30637 0.53359 0.70011 0.0
C1073 C 0.32457 0.55689 0.69579 0.0
C1074 C 0.28788 0.53245 0.72565 0.0
C1075 C 0.28834 0.55409 0.74819 0.0
C1076 C 0.30959 0.57515 0.74571 0.0
C1077 C 0.32692 0.57687 0.71968 0.0
C1078 C 0.23517 0.58793 0.80305 0.0
C1079 C 0.22037 0.5646 0.81546 0.0
C1080 C 0.257 0.58419 0.78183 0.0
C1081 C 0.2655 0.55687 0.77233 0.0
C1082 C 0.25095 0.53324 0.78496 0.0
C1083 C 0.22849 0.5371 0.80617 0.0
H1084 H 0.96908 0.29861 0.69582 0.0
H1085 H 0.88052 0.315 0.71223 0.0
H1086 H 0.9709 0.26862 0.74202 0.0
H1087 H 0.88288 0.28956 0.76008 0.0
H1088 H 0.87653 0.22072 0.82577 0.0
H1089 H 0.88054 0.246 0.77809 0.0
H1090 H 0.97098 0.25608 0.79286 0.0
H1091 H 0.96689 0.2261 0.83905 0.0
C1092 C 0.95006 0.29567 0.70925 0.0
C1093 C 0.92428 0.3074 0.69913 0.0
C1094 C 0.95109 0.27894 0.73622 0.0
C1095 C 0.92655 0.27495 0.75454 0.0
C1096 C 0.9018 0.28987 0.74594 0.0
C1097 C 0.90051 0.30515 0.71848 0.0
C1098 C 0.89741 0.22817 0.81891 0.0
C1099 C 0.92128 0.22298 0.83742 0.0
C1100 C 0.8997 0.24337 0.79152 0.0
C1101 C 0.9258 0.25528 0.78205 0.0
C1102 C 0.95024 0.24821 0.79941 0.0
C1103 C 0.94799 0.23152 0.82636 0.0
H1104 H 0.42678 0.99091 0.01599 0.0
H1105 H 0.48052 0.02164 0.94249 0.0
H1106 H 0.46833 0.98547 0.04884 0.0
H1107 H 0.52203 0.0173 0.97584 0.0
H1108 H 0.59206 0.97602 0.03862 0.0
H1109 H 0.55321 0.9841 1.00212 0.0
H1110 H 0.50083 0.01586 0.07625 0.0
H1111 H 0.5394 0.00712 0.1125 0.0
C1112 C 0.44749 0.99618 1.00668 0.0
C1113 C 0.4502 0.00683 0.97659 0.0
C1114 C 0.47132 0.99354 0.02572 0.0
C1115 C 0.49855 1.00151 0.01525 0.0
C1116 C 0.50144 0.01104 0.98474 0.0
C1117 C 0.47758 0.01367 0.96567 0.0
C1118 C 0.57254 0.98563 0.04679 0.0
C1119 C 0.56873 0.99108 0.07831 0.0
C1120 C 0.55017 0.99005 0.02597 0.0
C1121 C 0.52359 1.00001 0.03634 0.0
C1122 C 0.52067 0.0074 0.06756 0.0
C1123 C 0.54291 0.00288 0.08828 0.0
H1124 H 0.48744 0.42547 1.00991 0.0
H1125 H 0.50596 0.47053 0.92583 0.0
H1126 H 0.49747 0.46878 0.03958 0.0
H1127 H 0.51557 0.51376 0.95506 0.0
H1128 H 0.55543 0.57925 0.02061 0.0
H1129 H 0.54754 0.53594 0.99089 0.0
H1130 H 0.47522 0.51562 0.04822 0.0
H1131 H 0.48367 0.5591 0.07834 0.0
C1132 C 0.49445 0.44443 0.99789 0.0
C1133 C 0.49626 0.44459 0.96562 0.0
C1134 C 0.49965 0.46938 0.01477 0.0
C1135 C 0.50695 0.49495 0.99971 0.0
C1136 C 0.51015 0.49454 0.96752 0.0
C1137 C 0.50479 0.46973 0.95072 0.0
C1138 C 0.53742 0.56584 0.02632 0.0
C1139 C 0.51984 0.57272 0.05137 0.0
C1140 C 0.53296 0.54093 1.00941 0.0
C1141 C 0.51087 0.52207 0.01724 0.0
C1142 C 0.4927 0.52942 0.04183 0.0
C1143 C 0.49715 0.55454 0.05873 0.0
H1144 H 0.09075 0.48282 0.99473 0.0
H1145 H 0.04387 0.51433 0.91675 0.0
H1146 H 0.04929 0.49063 0.02778 0.0
H1147 H 0.00264 0.5229 0.9496 0.0
H1148 H 0.92398 0.49959 1.00359 0.0
H1149 H 0.96776 0.493 0.9742 0.0
H1150 H 0.01672 0.52349 0.05157 0.0
H1151 H 0.97305 0.52904 0.08121 0.0
C1152 C 0.07195 0.49258 0.98499 0.0
C1153 C 0.07058 0.49835 0.95333 0.0
C1154 C 0.04805 0.49679 1.00381 0.0
C1155 C 0.02231 0.50679 0.99125 0.0
C1156 C 0.02178 0.51443 0.95993 0.0
C1157 C 0.04557 0.51011 0.9412 0.0
C1158 C 0.94413 0.50417 0.01457 0.0
C1159 C 0.94497 0.51495 0.04468 0.0
C1160 C 0.96925 0.50091 0.99755 0.0
C1161 C 0.99583 0.50834 1.01023 0.0
C1162 C 0.99673 0.51762 0.04097 0.0
C1163 C 0.97165 0.52086 0.05795 0.0
H1164 H 0.05121 0.0914 0.02305 0.0
H1165 H 0.98815 0.07133 0.95439 0.0
H1166 H 0.03882 0.04837 0.05141 0.0
H1167 H 0.97589 0.02779 0.9825 0.0
H1168 H 0.94642 0.96384 0.05666 0.0
H1169 H 0.95555 0.00796 0.02896 0.0
H1170 H 0.0456 0.9977 0.04473 0.0
H1171 H 0.03629 0.95394 0.07349 0.0
C1172 C 0.03434 0.07793 0.01432 0.0
C1173 C 0.02062 0.08468 0.98654 0.0
C1174 C 0.02749 0.05307 0.03033 0.0
C1175 C 0.00679 0.03424 0.01893 0.0
C1176 C 0.99192 0.04181 0.99199 0.0
C1177 C 0.99877 0.06683 0.97596 0.0
C1178 C 0.96819 0.97106 0.05433 0.0
C1179 C 0.99062 0.95556 0.0677 0.0
C1180 C 0.97343 0.99625 0.03818 0.0
C1181 C 1.00126 0.00665 0.03489 0.0
C1182 C 0.02382 0.99064 0.04736 0.0
C1183 C 0.01856 0.96536 0.06352 0.0
H1184 H 0.4857 0.48667 0.59865 0.0
H1185 H 0.42389 0.48628 0.52538 0.0
H1186 H 0.52295 0.49849 0.56221 0.0
H1187 H 0.46092 0.5001 0.48881 0.0
H1188 H 0.53554 0.49032 0.42445 0.0
H1189 H 0.49933 0.47919 0.46299 0.0
H1190 H 0.54485 0.53035 0.52953 0.0
H1191 H 0.58157 0.53988 0.49128 0.0
C1192 C 0.47995 0.49 0.57478 0.0
C1193 C 0.4519 0.48519 0.56484 0.0
C1194 C 0.50137 0.49687 0.55378 0.0
C1195 C 0.49527 0.49967 0.52224 0.0
C1196 C 0.46669 0.49721 0.51272 0.0
C1197 C 0.44526 0.48994 0.53378 0.0
C1198 C 0.5382 0.49816 0.44773 0.0
C1199 C 0.56164 0.51526 0.45524 0.0
C1200 C 0.51713 0.49243 0.46965 0.0
C1201 C 0.5187 0.50425 0.49942 0.0
C1202 C 0.54288 0.52053 0.5071 0.0
C1203 C 0.56413 0.52585 0.48529 0.0
H1204 H 0.01223 0.52472 0.43969 0.0
H1205 H 0.96868 0.5774 0.50564 0.0
H1206 H 0.02197 0.48962 0.47977 0.0
H1207 H 0.9768 0.54187 0.54554 0.0
H1208 H 0.01667 0.48253 0.61649 0.0
H1209 H 0.00772 0.519 0.57828 0.0
H1210 H 0.99929 0.45405 0.50836 0.0
H1211 H 0.01041 0.41763 0.54656 0.0
C1212 C 0.00537 0.52901 0.46305 0.0
C1213 C 0.9903 0.55398 0.46983 0.0
C1214 C 0.01033 0.50864 0.48591 0.0
C1215 C 0.99975 0.51246 0.51599 0.0
C1216 C 0.98561 0.53812 0.52289 0.0
C1217 C 0.98109 0.55869 0.5001 0.0
C1218 C 0.01272 0.476 0.59297 0.0
C1219 C 0.01472 0.44715 0.58453 0.0
C1220 C 0.00738 0.49699 0.57097 0.0
C1221 C 0.00329 0.48975 0.53988 0.0
C1222 C 0.00321 0.46064 0.53185 0.0
C1223 C 0.00897 0.43961 0.55388 0.0
H1224 H 0.92386 0.95902 0.49133 0.0
H1225 H 0.97463 0.00247 0.42346 0.0
H1226 H 0.95937 0.96943 0.53059 0.0
H1227 H 0.00957 0.01472 0.46287 0.0
H1228 H 0.08139 0.01056 0.53075 0.0
H1229 H 0.04604 0.99636 0.49274 0.0
H1230 H 0.98033 1.00227 0.56212 0.0
H1231 H 0.01588 0.01392 0.60032 0.0
C1232 C 0.94226 0.97169 0.48516 0.0
C1233 C 0.94639 0.98037 0.45462 0.0
C1234 C 0.96275 0.97766 0.50761 0.0
C1235 C 0.98772 0.99283 0.50011 0.0
C1236 C 0.99113 1.00239 0.46956 0.0
C1237 C 0.97088 0.99591 0.44703 0.0
C1238 C 0.05952 0.00801 0.53805 0.0
C1239 C 0.05153 0.01374 0.5686 0.0
C1240 C 0.03904 1.00043 0.51606 0.0
C1241 C 0.00998 0.9987 0.52396 0.0
C1242 C 0.00233 0.00317 0.55489 0.0
C1243 C 0.0228 0.01023 0.57688 0.0
H1244 H 0.51049 0.91476 0.48602 0.0
H1245 H 0.5115 0.97923 0.41537 0.0
H1246 H 0.49757 0.95074 0.52418 0.0
H1247 H 0.4999 0.01536 0.45341 0.0
H1248 H 0.51096 0.02452 0.59044 0.0
H1249 H 0.52024 0.98877 0.55074 0.0
H1250 H 0.46666 0.03531 0.48754 0.0
H1251 H 0.45861 0.07144 0.52704 0.0
C1252 C 0.50729 0.9365 0.47853 0.0
C1253 C 0.51208 0.94417 0.44772 0.0
C1254 C 0.50046 0.95728 0.50049 0.0
C1255 C 0.49828 0.9862 0.49212 0.0
C1256 C 0.5013 0.99343 0.46087 0.0
C1257 C 0.50801 0.97269 0.43899 0.0
C1258 C 0.5019 0.02734 0.56773 0.0
C1259 C 0.48468 0.05096 0.56143 0.0
C1260 C 0.5067 0.00664 0.54514 0.0
C1261 C 0.49393 0.00883 0.51589 0.0
C1262 C 0.47716 0.03295 0.50956 0.0
C1263 C 0.47263 0.05378 0.53208 0.0
H1264 H 0.46712 0.82126 0.15442 0.0
H1265 H 0.53978 0.76793 0.17316 0.0
H1266 H 0.4962 0.86329 0.16163 0.0
H1267 H 0.56887 0.81021 0.18165 0.0
H1268 H 0.61476 0.88763 0.13527 0.0
H1269 H 0.58889 0.84436 0.14797 0.0
H1270 H 0.52343 0.89458 0.19187 0.0
H1271 H 0.54899 0.93795 0.1778 0.0
C1272 C 0.48916 0.81849 0.16093 0.0
C1273 C 0.50126 0.79125 0.16261 0.0
C1274 C 0.50589 0.8427 0.16535 0.0
C1275 C 0.53509 0.84026 0.17189 0.0
C1276 C 0.54663 0.81291 0.17598 0.0
C1277 C 0.52991 0.78866 0.17129 0.0
C1278 C 0.59532 0.88931 0.14853 0.0
C1279 C 0.58371 0.91605 0.15535 0.0
C1280 C 0.58042 0.86448 0.15589 0.0
C1281 C 0.55373 0.86591 0.17051 0.0
C1282 C 0.54353 0.89269 0.1799 0.0
C1283 C 0.55825 0.91752 0.17214 0.0
H1284 H 0.74503 0.56871 0.11819 0.0
H1285 H 0.69332 0.50086 0.15532 0.0
H1286 H 0.70435 0.60091 0.12109 0.0
H1287 H 0.65274 0.53233 0.15708 0.0
H1288 H 0.5809 0.59038 0.1619 0.0
H1289 H 0.62773 0.57197 0.17625 0.0
H1290 H 0.66236 0.60471 0.09102 0.0
H1291 H 0.61592 0.62391 0.07774 0.0
C1292 C 0.72515 0.5608 0.12741 0.0
C1293 C 0.72226 0.53213 0.13601 0.0
C1294 C 0.70177 0.57918 0.12892 0.0
C1295 C 0.67507 0.5692 0.13895 0.0
C1296 C 0.67291 0.54101 0.14955 0.0
C1297 C 0.69622 0.52277 0.14821 0.0
C1298 C 0.59892 0.59452 0.14701 0.0
C1299 C 0.59515 0.60863 0.11892 0.0
C1300 C 0.62563 0.58374 0.15495 0.0
C1301 C 0.64883 0.58644 0.13459 0.0
C1302 C 0.64524 0.60247 0.1075 0.0
C1303 C 0.61863 0.61344 0.09977 0.0
H1304 H 0.9369 0.74293 0.08867 0.0
H1305 H 0.99421 0.69267 0.14401 0.0
H1306 H 0.90416 0.70229 0.08577 0.0
H1307 H 0.96223 0.65248 0.14072 0.0
H1308 H 0.90067 0.58389 0.14291 0.0
H1309 H 0.91737 0.63199 0.15488 0.0
H1310 H 0.9049 0.65627 0.0599 0.0
H1311 H 0.88755 0.60849 0.04849 0.0
C1312 C 0.94237 0.72338 0.10045 0.0
C1313 C 0.96829 0.72097 0.11629 0.0
C1314 C 0.92367 0.70009 0.09875 0.0
C1315 C 0.93045 0.67407 0.11312 0.0
C1316 C 0.95592 0.67223 0.12986 0.0
C1317 C 0.97453 0.69529 0.13141 0.0
C1318 C 0.90025 0.59999 0.12507 0.0
C1319 C 0.89261 0.59273 0.09491 0.0
C1320 C 0.91019 0.62741 0.13172 0.0
C1321 C 0.91303 0.6479 0.1082 0.0
C1322 C 0.90286 0.64122 0.07864 0.0
C1323 C 0.89283 0.61385 0.07206 0.0
H1324 H 0.77588 0.9401 0.16476 0.0
H1325 H 0.82591 0.01723 0.16302 0.0
H1326 H 0.81941 0.91192 0.16773 0.0
H1327 H 0.86918 0.98924 0.16546 0.0
H1328 H 0.94536 0.93913 0.17609 0.0
H1329 H 0.89965 0.95743 0.19388 0.0
H1330 H 0.85655 0.90154 0.13013 0.0
H1331 H 0.90234 0.88285 0.11316 0.0
C1332 C 0.79612 0.95107 0.16557 0.0
C1333 C 0.79746 0.98091 0.16328 0.0
C1334 C 0.82106 0.9349 0.16714 0.0
C1335 C 0.84783 0.94824 0.16669 0.0
C1336 C 0.84899 0.97817 0.16628 0.0
C1337 C 0.82412 0.99429 0.16459 0.0
C1338 C 0.92599 0.92981 0.16709 0.0
C1339 C 0.92723 0.90955 0.14339 0.0
C1340 C 0.89984 0.94055 0.1769 0.0
C1341 C 0.87445 0.93147 0.16291 0.0
C1342 C 0.87563 0.90897 0.14152 0.0
C1343 C 0.90185 0.89809 0.13186 0.0
H1344 H 0.59022 0.5926 0.33693 0.0
H1345 H 0.54616 0.60341 0.42359 0.0
H1346 H 0.56755 0.63631 0.31759 0.0
H1347 H 0.52281 0.64537 0.40369 0.0
H1348 H 0.46277 0.6988 0.35126 0.0
H1349 H 0.48639 0.65278 0.35429 0.0
H1350 H 0.56774 0.6935 0.34154 0.0
H1351 H 0.54426 0.73987 0.33876 0.0
C1352 C 0.5757 0.60408 0.35174 0.0
C1353 C 0.56953 0.59404 0.38157 0.0
C1354 C 0.56266 0.62888 0.3406 0.0
C1355 C 0.54301 0.6436 0.35897 0.0
C1356 C 0.53731 0.63389 0.38881 0.0
C1357 C 0.55062 0.60968 0.40009 0.0
C1358 C 0.4856 0.69798 0.34816 0.0
C1359 C 0.5017 0.72305 0.34547 0.0
C1360 C 0.49907 0.67161 0.34983 0.0
C1361 C 0.52881 0.6698 0.3484 0.0
C1362 C 0.54475 0.69444 0.34254 0.0
C1363 C 0.53128 0.72095 0.34113 0.0
H1364 H 0.90353 0.53779 0.43474 0.0
H1365 H 0.9156 0.5842 0.34967 0.0
H1366 H 0.86071 0.51655 0.41429 0.0
H1367 H 0.8711 0.56373 0.32987 0.0
H1368 H 0.76756 0.54625 0.34745 0.0
H1369 H 0.81543 0.56634 0.35171 0.0
H1370 H 0.84944 0.48224 0.36627 0.0
H1371 H 0.80192 0.46201 0.36185 0.0
C1372 C 0.89744 0.54312 0.41142 0.0
C1373 C 0.91359 0.56225 0.3936 0.0
C1374 C 0.87271 0.53103 0.39982 0.0
C1375 C 0.86299 0.53816 0.37036 0.0
C1376 C 0.87844 0.55777 0.35259 0.0
C1377 C 0.90374 0.56956 0.36402 0.0
C1378 C 0.78535 0.53195 0.35061 0.0
C1379 C 0.7809 0.5026 0.35494 0.0
C1380 C 0.81272 0.54347 0.35288 0.0
C1381 C 0.83589 0.5258 0.35964 0.0
C1382 C 0.83178 0.49626 0.36122 0.0
C1383 C 0.80455 0.48473 0.35871 0.0
H1384 H 0.97065 0.92612 0.35796 0.0
H1385 H 0.89635 0.88082 0.38966 0.0
H1386 H 0.99244 0.88113 0.34261 0.0
H1387 H 0.91824 0.83596 0.37555 0.0
H1388 H 0.9596 0.75643 0.34828 0.0
H1389 H 0.93684 0.80247 0.34033 0.0
H1390 H 0.01303 0.84466 0.37236 0.0
H1391 H 0.03592 0.79898 0.37902 0.0
C1392 C 0.95882 0.90654 0.36108 0.0
C1393 C 0.93197 0.90685 0.37518 0.0
C1394 C 0.9713 0.88078 0.35248 0.0
C1395 C 0.95734 0.85482 0.3583 0.0
C1396 C 0.92956 0.85544 0.37033 0.0
C1397 C 0.91697 0.8812 0.37854 0.0
C1398 C 0.97164 0.77561 0.35293 0.0
C1399 C 0.99934 0.7741 0.36483 0.0
C1400 C 0.95857 0.80199 0.34851 0.0
C1401 C 0.97287 0.82733 0.35619 0.0
C1402 C 1.00135 0.82573 0.36589 0.0
C1403 C 0.01447 0.79942 0.36999 0.0
H1404 H 0.597 0.8993 0.34154 0.0
H1405 H 0.60583 0.94977 0.42432 0.0
H1406 H 0.64515 0.91343 0.32598 0.0
H1407 H 0.65257 0.96494 0.40771 0.0
H1408 H 0.72386 0.00743 0.35808 0.0
H1409 H 0.67379 0.99401 0.35965 0.0
H1410 H 0.69689 0.90537 0.35425 0.0
H1411 H 0.74719 0.9186 0.3531 0.0
C1412 C 0.60895 0.9135 0.35629 0.0
C1413 C 0.5972 0.92363 0.38404 0.0
C1414 C 0.63637 0.92171 0.34722 0.0
C1415 C 0.65221 0.94063 0.36542 0.0
C1416 C 0.64047 0.95088 0.39291 0.0
C1417 C 0.61352 0.94225 0.40228 0.0
C1418 C 0.71835 0.9851 0.35643 0.0
C1419 C 0.73952 0.96404 0.35604 0.0
C1420 C 0.68967 0.97747 0.35735 0.0
C1421 C 0.68165 0.94869 0.35736 0.0
C1422 C 0.70262 0.9277 0.35415 0.0
C1423 C 0.73137 0.93531 0.35365 0.0
H1424 H 0.4142 0.06448 0.86989 0.0
H1425 H 0.38327 0.0965 0.95651 0.0
H1426 H 0.42769 0.11273 0.85448 0.0
H1427 H 0.39753 0.14457 0.94195 0.0
H1428 H 0.42454 0.23077 0.9097 0.0
H1429 H 0.39622 0.18703 0.91117 0.0
H1430 H 0.46661 0.1407 0.87158 0.0
H1431 H 0.49426 0.18412 0.86934 0.0
C1432 C 0.40931 0.08209 0.88508 0.0
C1433 C 0.39742 0.07702 0.91415 0.0
C1434 C 0.4174 0.10967 0.87654 0.0
C1435 C 0.41421 0.13258 0.89719 0.0
C1436 C 0.40012 0.12764 0.92529 0.0
C1437 C 0.39186 0.1001 0.93369 0.0
C1438 C 0.43366 0.21132 0.90073 0.0
C1439 C 0.46176 0.21089 0.88971 0.0
C1440 C 0.4175 0.18621 0.90172 0.0
C1441 C 0.42909 0.1602 0.89164 0.0
C1442 C 0.45668 0.16027 0.87913 0.0
C1443 C 0.47273 0.18524 0.87813 0.0
H1444 H 0.42974 0.40571 0.85248 0.0
H1445 H 0.39902 0.42519 0.94367 0.0
H1446 H 0.38621 0.42679 0.83029 0.0
H1447 H 0.35588 0.44573 0.9217 0.0
H1448 H 0.32414 0.52245 0.85152 0.0
H1449 H 0.36665 0.49304 0.85753 0.0
H1450 H 0.31427 0.41822 0.86657 0.0
H1451 H 0.27163 0.44727 0.86024 0.0
C1452 C 0.41337 0.41381 0.86765 0.0
C1453 C 0.41747 0.41388 0.89967 0.0
C1454 C 0.38873 0.42591 0.85504 0.0
C1455 C 0.36801 0.43775 0.87446 0.0
C1456 C 0.37161 0.43654 0.90642 0.0
C1457 C 0.39615 0.4248 0.91892 0.0
C1458 C 0.32166 0.49963 0.85378 0.0
C1459 C 0.29449 0.48727 0.85591 0.0
C1460 C 0.34598 0.48284 0.857 0.0
C1461 C 0.34349 0.45351 0.86228 0.0
C1462 C 0.31655 0.44079 0.86211 0.0
C1463 C 0.29222 0.4575 0.85866 0.0
H1464 H 0.09156 0.43088 0.83704 0.0
H1465 H 0.08782 0.3995 0.93029 0.0
H1466 H 0.06947 0.38625 0.81867 0.0
H1467 H 0.06665 0.35512 0.91207 0.0
H1468 H 0.98116 0.3237 0.84695 0.0
H1469 H 0.01202 0.36561 0.84551 0.0
H1470 H 0.08476 0.31276 0.86433 0.0
H1471 H 0.05427 0.2707 0.86523 0.0
C1472 C 0.0866 0.41416 0.85335 0.0
C1473 C 0.09127 0.41826 0.88495 0.0
C1474 C 0.07404 0.38887 0.84294 0.0
C1475 C 0.06678 0.36746 0.86405 0.0
C1476 C 0.07255 0.37127 0.89542 0.0
C1477 C 0.08452 0.39655 0.90581 0.0
C1478 C 0.00387 0.32087 0.84965 0.0
C1479 C 0.01525 0.29405 0.85681 0.0
C1480 C 0.02148 0.3448 0.84855 0.0
C1481 C 0.05058 0.34215 0.8548 0.0
C1482 C 0.06235 0.31508 0.85918 0.0
C1483 C 0.04484 0.29111 0.85983 0.0
H1484 H 0.19617 0.01437 0.88344 0.0
H1485 H 0.24822 0.06373 0.94559 0.0
H1486 H 0.15994 0.05087 0.88473 0.0
H1487 H 0.21175 0.1009 0.94653 0.0
H1488 H 0.09834 0.11918 0.88261 0.0
H1489 H 0.14535 0.099 0.87235 0.0
H1490 H 0.16454 0.10228 0.96955 0.0
H1491 H 0.11807 0.123 0.97944 0.0
C1492 C 0.20007 0.03327 0.89707 0.0
C1493 C 0.22488 0.03595 0.91482 0.0
C1494 C 0.17939 0.05445 0.89747 0.0
C1495 C 0.18291 0.07889 0.91569 0.0
C1496 C 0.20834 0.08223 0.93239 0.0
C1497 C 0.22921 0.06098 0.93187 0.0
C1498 C 0.11315 0.11669 0.9015 0.0
C1499 C 0.10458 0.12226 0.93182 0.0
C1500 C 0.13992 0.10486 0.89573 0.0
C1501 C 0.15846 0.09846 0.92022 0.0
C1502 C 0.15091 0.10696 0.95013 0.0
C1503 C 0.12423 0.11873 0.95585 0.0
H1504 H 0.54071 0.2962 0.65879 0.0
H1505 H 0.4599 0.25393 0.67199 0.0
H1506 H 0.51633 0.3418 0.65548 0.0
H1507 H 0.43567 0.29988 0.66878 0.0
H1508 H 0.41374 0.40189 0.673 0.0
H1509 H 0.43559 0.35768 0.69226 0.0
H1510 H 0.47945 0.34753 0.60574 0.0
H1511 H 0.4571 0.39032 0.58613 0.0
C1512 C 0.51788 0.29669 0.66196 0.0
C1513 C 0.50216 0.27142 0.66489 0.0
C1514 C 0.50399 0.3228 0.66013 0.0
C1515 C 0.47422 0.32408 0.66156 0.0
C1516 C 0.45867 0.29928 0.66774 0.0
C1517 C 0.47257 0.27305 0.66938 0.0
C1518 C 0.42778 0.38995 0.65807 0.0
C1519 C 0.43424 0.3999 0.62832 0.0
C1520 C 0.44034 0.3649 0.66914 0.0
C1521 C 0.45967 0.34988 0.65065 0.0
C1522 C 0.46519 0.35927 0.62065 0.0
C1523 C 0.45243 0.38379 0.60951 0.0
H1524 H 0.0773 0.46163 0.67722 0.0
H1525 H 0.11737 0.38922 0.63443 0.0
H1526 H 0.12394 0.48183 0.68878 0.0
H1527 H 0.16396 0.40967 0.64488 0.0
H1528 H 0.24653 0.44886 0.67122 0.0
H1529 H 0.20073 0.42543 0.67876 0.0
H1530 H 0.15788 0.504 0.65612 0.0
H1531 H 0.20343 0.52747 0.64962 0.0
C1532 C 0.09618 0.4498 0.67091 0.0
C1533 C 0.09386 0.42401 0.65481 0.0
C1534 C 0.12286 0.46142 0.67727 0.0
C1535 C 0.14773 0.44767 0.66725 0.0
C1536 C 0.14534 0.42077 0.6532 0.0
C1537 C 0.11863 0.40901 0.64716 0.0
C1538 C 0.2273 0.46122 0.66841 0.0
C1539 C 0.22859 0.48994 0.65949 0.0
C1540 C 0.20105 0.44775 0.6726 0.0
C1541 C 0.17557 0.46271 0.66783 0.0
C1542 C 0.177 0.49184 0.66046 0.0
C1543 C 0.20319 0.50531 0.65647 0.0
H1544 H 0.04144 0.23785 0.6842 0.0
H1545 H 0.96371 0.1951 0.65824 0.0
H1546 H 0.06624 0.19231 0.68461 0.0
H1547 H 0.98854 0.14991 0.65766 0.0
H1548 H 0.03461 0.06884 0.66554 0.0
H1549 H 0.01267 0.11276 0.68385 0.0
H1550 H 0.08224 0.16108 0.64491 0.0
H1551 H 0.1044 0.11711 0.62762 0.0
C1552 C 0.02954 0.21869 0.67904 0.0
C1553 C 1.00068 0.22011 0.67087 0.0
C1554 C 0.04381 0.19261 0.67908 0.0
C1555 C 0.02953 0.16743 0.67082 0.0
C1556 C 1.00022 0.16874 0.66451 0.0
C1557 C 0.98594 0.19475 0.66467 0.0
C1558 C 0.04545 0.08888 0.66163 0.0
C1559 C 0.07107 0.08968 0.64505 0.0
C1560 C 0.03284 0.11403 0.67191 0.0
C1561 C 0.04543 0.14054 0.66547 0.0
C1562 C 0.07205 0.14109 0.65062 0.0
C1563 C 0.08479 0.11589 0.64063 0.0
H1564 H 0.26169 0.04698 0.67067 0.0
H1565 H 0.30212 0.96624 0.6524 0.0
H1566 H 0.30828 0.06946 0.67512 0.0
H1567 H 0.3483 0.98869 0.65532 0.0
H1568 H 0.38804 0.1024 0.62267 0.0
H1569 H 0.34241 0.08288 0.63836 0.0
H1570 H 0.38536 0.01164 0.68087 0.0
H1571 H 0.43099 0.03071 0.66337 0.0
C1572 C 0.28051 0.03395 0.66808 0.0
C1573 C 0.27825 0.00498 0.66056 0.0
C1574 C 0.30722 0.04686 0.67039 0.0
C1575 C 0.33214 0.03107 0.665 0.0
C1576 C 0.32974 1.00161 0.65988 0.0
C1577 C 0.30312 0.9887 0.65788 0.0
C1578 C 0.38765 0.08291 0.63601 0.0
C1579 C 0.41282 0.06789 0.64173 0.0
C1580 C 0.36151 0.07174 0.6452 0.0
C1581 C 0.36006 0.04547 0.66071 0.0
C1582 C 0.3856 0.03157 0.66838 0.0
C1583 C 0.41172 0.0425 0.65861 0.0
loop_
_geom_bond_atom_site_label_1
_geom_bond_atom_site_label_2
_geom_bond_distance
_geom_bond_site_symmetry_2
_ccdc_geom_bond_type
O0 Tb1 2.292 . S
O0 C3 1.255 . S
Tb1 O0 2.292 . S
Tb1 O17 2.326 . S
Tb1 O19 2.500 . S
Tb1 O20 2.473 . S
Tb1 O23 2.324 . S
Eu2 O6 2.292 . S
Eu2 C7 2.852 . S
Eu2 O18 2.324 . S
Eu2 O22 2.326 . S
Eu2 O24 2.500 1_545 S
Eu2 O25 2.473 . S
C3 O0 1.255 . S
C3 O4 1.247 . S
O4 C3 1.247 . S
C5 O17 1.242 . S
C5 O18 1.258 . S
O6 Eu2 2.292 . S
O6 C8 1.255 . S
C7 Eu2 2.852 . S
C7 C11 1.503 1_545 S
C7 O24 1.273 1_545 S
C7 O25 1.257 . S
C8 O6 1.255 . S
C8 O9 1.247 . S
O9 C8 1.247 . S
C10 O22 1.242 . S
C10 O23 1.258 . S
C11 C7 1.503 1_565 S
C11 C12 1.379 1_565 S
C11 C16 1.392 . S
C12 C11 1.379 1_545 S
C12 C13 1.414 . S
C12 H26 0.929 . S
C13 C12 1.414 . S
C13 C14 1.364 1_545 S
C14 C13 1.364 1_565 S
C14 C15 1.399 . S
C14 H27 0.931 . S
C15 C14 1.399 . S
C15 C16 1.390 . S
C16 C11 1.392 . S
C16 C15 1.390 . S
C16 H28 0.929 . S
O17 Tb1 2.326 . S
O17 C5 1.242 . S
O18 Eu2 2.324 . S
O18 C5 1.258 . S
O19 Tb1 2.500 . S
O19 C21 1.273 . S
O20 Tb1 2.473 . S
O20 C21 1.257 . S
C21 O19 1.273 . S
C21 O20 1.257 . S
O22 Eu2 2.326 . S
O22 C10 1.242 . S
O23 Tb1 2.324 . S
O23 C10 1.258 . S
O24 Eu2 2.500 1_565 S
O24 C7 1.273 1_565 S
O25 Eu2 2.473 . S
O25 C7 1.257 . S
H26 C12 0.929 . S
H27 C14 0.931 . S
H28 C16 0.929 . S
O29 Tb30 2.292 . S
O29 C32 1.255 . S
Tb30 O29 2.292 . S
Tb30 O46 2.326 . S
Tb30 O48 2.500 . S
Tb30 O49 2.473 . S
Tb30 O52 2.324 . S
Eu31 O35 2.292 . S
Eu31 C36 2.852 . S
Eu31 O47 2.324 . S
Eu31 O51 2.326 . S
Eu31 O53 2.500 . S
Eu31 O54 2.473 . S
C32 O29 1.255 . S
C32 O33 1.247 . S
O33 C32 1.247 . S
C34 O46 1.242 . S
C34 O47 1.258 . S
O35 Eu31 2.292 . S
O35 C37 1.255 . S
C36 Eu31 2.852 . S
C36 C40 1.503 . S
C36 O53 1.273 . S
C36 O54 1.257 . S
C37 O35 1.255 . S
C37 O38 1.247 . S
O38 C37 1.247 . S
C39 O51 1.242 . S
C39 O52 1.258 . S
C40 C36 1.503 . S
C40 C41 1.379 . S
C40 C45 1.392 . S
C41 C40 1.379 . S
C41 C42 1.404 . S
C41 H55 0.929 . S
C42 C41 1.404 . S
C42 C43 1.389 . S
C43 C42 1.389 . S
C43 C44 1.399 . S
C43 H56 0.931 . S
C44 C43 1.399 . S
C44 C45 1.390 . S
C45 C40 1.392 . S
C45 C44 1.390 . S
C45 H57 0.929 . S
O46 Tb30 2.326 . S
O46 C34 1.242 . S
O47 Eu31 2.324 . S
O47 C34 1.258 . S
O48 Tb30 2.500 . S
O48 C50 1.273 . S
O49 Tb30 2.473 . S
O49 C50 1.257 . S
C50 O48 1.273 . S
C50 O49 1.257 . S
O51 Eu31 2.326 . S
O51 C39 1.242 . S
O52 Tb30 2.324 . S
O52 C39 1.258 . S
O53 Eu31 2.500 . S
O53 C36 1.273 . S
O54 Eu31 2.473 . S
O54 C36 1.257 . S
H55 C41 0.929 . S
H56 C43 0.931 . S
H57 C45 0.929 . S
O58 Tb59 2.292 . S
O58 C61 1.255 . S
Tb59 O58 2.292 . S
Tb59 O75 2.326 . S
Tb59 O77 2.500 . S
Tb59 O78 2.473 . S
Tb59 O81 2.324 . S
Eu60 O64 2.292 . S
Eu60 C65 2.852 . S
Eu60 O76 2.324 . S
Eu60 O80 2.326 . S
Eu60 O82 2.500 . S
Eu60 O83 2.473 . S
C61 O58 1.255 . S
C61 O62 1.247 . S
O62 C61 1.247 . S
C63 O75 1.242 . S
C63 O76 1.258 . S
O64 Eu60 2.292 . S
O64 C66 1.255 . S
C65 Eu60 2.852 . S
C65 C69 1.503 . S
C65 O82 1.273 . S
C65 O83 1.257 . S
C66 O64 1.255 . S
C66 O67 1.247 . S
O67 C66 1.247 . S
C68 O80 1.242 . S
C68 O81 1.258 . S
C69 C65 1.503 . S
C69 C70 1.379 . S
C69 C74 1.392 . S
C70 C69 1.379 . S
C70 C71 1.404 . S
C70 H84 0.929 . S
C71 C70 1.404 . S
C71 C72 1.389 . S
C72 C71 1.389 . S
C72 C73 1.399 . S
C72 H85 0.931 . S
C73 C72 1.399 . S
C73 C74 1.390 . S
C74 C69 1.392 . S
C74 C73 1.390 . S
C74 H86 0.929 . S
O75 Tb59 2.326 . S
O75 C63 1.242 . S
O76 Eu60 2.324 . S
O76 C63 1.258 . S
O77 Tb59 2.500 . S
O77 C79 1.273 . S
O78 Tb59 2.473 . S
O78 C79 1.257 . S
C79 O77 1.273 . S
C79 O78 1.257 . S
O80 Eu60 2.326 . S
O80 C68 1.242 . S
O81 Tb59 2.324 . S
O81 C68 1.258 . S
O82 Eu60 2.500 . S
O82 C65 1.273 . S
O83 Eu60 2.473 . S
O83 C65 1.257 . S
H84 C70 0.929 . S
H85 C72 0.931 . S
H86 C74 0.929 . S
O87 Tb88 2.292 . S
O87 C90 1.255 . S
Tb88 O87 2.292 . S
Tb88 O104 2.326 . S
Tb88 O106 2.500 . S
Tb88 O107 2.473 . S
Tb88 O110 2.324 . S
Eu89 O93 2.292 . S
Eu89 C94 2.852 . S
Eu89 O105 2.324 . S
Eu89 O109 2.326 . S
Eu89 O111 2.500 1_455 S
Eu89 O112 2.473 . S
C90 O87 1.255 . S
C90 O91 1.247 . S
O91 C90 1.247 . S
C92 O104 1.242 . S
C92 O105 1.258 . S
O93 Eu89 2.292 . S
O93 C95 1.255 . S
C94 Eu89 2.852 . S
C94 C98 1.503 1_455 S
C94 O111 1.273 1_455 S
C94 O112 1.257 . S
C95 O93 1.255 . S
C95 O96 1.247 . S
O96 C95 1.247 . S
C97 O109 1.242 . S
C97 O110 1.258 . S
C98 C94 1.503 1_655 S
C98 C99 1.379 1_655 S
C98 C103 1.392 . S
C99 C98 1.379 1_455 S
C99 C100 1.414 . S
C99 H113 0.929 . S
C100 C99 1.414 . S
C100 C101 1.365 1_455 S
C101 C100 1.365 1_655 S
C101 C102 1.399 . S
C101 H114 0.931 . S
C102 C101 1.399 . S
C102 C103 1.390 . S
C103 C98 1.392 . S
C103 C102 1.390 . S
C103 H115 0.929 . S
O104 Tb88 2.326 . S
O104 C92 1.242 . S
O105 Eu89 2.324 . S
O105 C92 1.258 . S
O106 Tb88 2.500 . S
O106 C108 1.273 . S
O107 Tb88 2.473 . S
O107 C108 1.257 . S
C108 O106 1.273 . S
C108 O107 1.257 . S
O109 Eu89 2.326 . S
O109 C97 1.242 . S
O110 Tb88 2.324 . S
O110 C97 1.258 . S
O111 Eu89 2.500 1_655 S
O111 C94 1.273 1_655 S
O112 Eu89 2.473 . S
O112 C94 1.257 . S
H113 C99 0.929 . S
H114 C101 0.931 . S
H115 C103 0.929 . S
O116 Tb117 2.292 . S
O116 C119 1.255 . S
Tb117 O116 2.292 . S
Tb117 O133 2.326 . S
Tb117 O135 2.500 . S
Tb117 O136 2.473 . S
Tb117 O139 2.324 . S
Eu118 O122 2.292 . S
Eu118 C123 2.852 . S
Eu118 O134 2.324 . S
Eu118 O138 2.326 . S
Eu118 O140 2.500 . S
Eu118 O141 2.473 . S
C119 O116 1.255 . S
C119 O120 1.247 . S
O120 C119 1.247 . S
C121 O133 1.242 . S
C121 O134 1.258 . S
O122 Eu118 2.292 . S
O122 C124 1.255 . S
C123 Eu118 2.852 . S
C123 C127 1.503 . S
C123 O140 1.273 . S
C123 O141 1.257 . S
C124 O122 1.255 . S
C124 O125 1.247 . S
O125 C124 1.247 . S
C126 O138 1.242 . S
C126 O139 1.258 . S
C127 C123 1.503 . S
C127 C128 1.379 . S
C127 C132 1.392 . S
C128 C127 1.379 . S
C128 C129 1.404 . S
C128 H142 0.929 . S
C129 C128 1.404 . S
C129 C130 1.389 . S
C130 C129 1.389 . S
C130 C131 1.399 . S
C130 H143 0.931 . S
C131 C130 1.399 . S
C131 C132 1.390 . S
C132 C127 1.392 . S
C132 C131 1.390 . S
C132 H144 0.929 . S
O133 Tb117 2.326 . S
O133 C121 1.242 . S
O134 Eu118 2.324 . S
O134 C121 1.258 . S
O135 Tb117 2.500 . S
O135 C137 1.273 . S
O136 Tb117 2.473 . S
O136 C137 1.257 . S
C137 O135 1.273 . S
C137 O136 1.257 . S
O138 Eu118 2.326 . S
O138 C126 1.242 . S
O139 Tb117 2.324 . S
O139 C126 1.258 . S
O140 Eu118 2.500 . S
O140 C123 1.273 . S
O141 Eu118 2.473 . S
O141 C123 1.257 . S
H142 C128 0.929 . S
H143 C130 0.931 . S
H144 C132 0.929 . S
O145 Tb146 2.292 . S
O145 C148 1.255 . S
Tb146 O145 2.292 . S
Tb146 O162 2.326 . S
Tb146 O164 2.500 . S
Tb146 O165 2.473 . S
Tb146 O168 2.324 . S
Eu147 O151 2.292 . S
Eu147 C152 2.852 . S
Eu147 O163 2.324 . S
Eu147 O167 2.326 . S
Eu147 O169 2.500 1_455 S
Eu147 O170 2.473 . S
C148 O145 1.255 . S
C148 O149 1.247 . S
O149 C148 1.247 . S
C150 O162 1.242 . S
C150 O163 1.258 . S
O151 Eu147 2.292 . S
O151 C153 1.255 . S
C152 Eu147 2.852 . S
C152 C156 1.503 1_455 S
C152 O169 1.273 1_455 S
C152 O170 1.257 . S
C153 O151 1.255 . S
C153 O154 1.247 . S
O154 C153 1.247 . S
C155 O167 1.242 . S
C155 O168 1.258 . S
C156 C152 1.503 1_655 S
C156 C157 1.379 1_655 S
C156 C161 1.392 . S
C157 C156 1.379 1_455 S
C157 C158 1.414 . S
C157 H171 0.929 . S
C158 C157 1.414 . S
C158 C159 1.364 1_455 S
C159 C158 1.364 1_655 S
C159 C160 1.399 . S
C159 H172 0.931 . S
C160 C159 1.399 . S
C160 C161 1.390 . S
C161 C156 1.392 . S
C161 C160 1.390 . S
C161 H173 0.929 . S
O162 Tb146 2.326 . S
O162 C150 1.242 . S
O163 Eu147 2.324 . S
O163 C150 1.258 . S
O164 Tb146 2.500 . S
O164 C166 1.273 . S
O165 Tb146 2.473 . S
O165 C166 1.257 . S
C166 O164 1.273 . S
C166 O165 1.257 . S
O167 Eu147 2.326 . S
O167 C155 1.242 . S
O168 Tb146 2.324 . S
O168 C155 1.258 . S
O169 Eu147 2.500 1_655 S
O169 C152 1.273 1_655 S
O170 Eu147 2.473 . S
O170 C152 1.257 . S
H171 C157 0.929 . S
H172 C159 0.931 . S
H173 C161 0.929 . S
O174 Tb175 2.292 . S
O174 C177 1.255 . S
Tb175 O174 2.292 . S
Tb175 O191 2.326 . S
Tb175 O193 2.500 . S
Tb175 O194 2.473 . S
Tb175 O197 2.324 . S
Eu176 O180 2.292 . S
Eu176 C181 2.852 . S
Eu176 O192 2.324 . S
Eu176 O196 2.326 . S
Eu176 O198 2.500 1_545 S
Eu176 O199 2.473 . S
C177 O174 1.255 . S
C177 O178 1.247 . S
O178 C177 1.247 . S
C179 O191 1.242 . S
C179 O192 1.258 . S
O180 Eu176 2.292 . S
O180 C182 1.255 . S
C181 Eu176 2.852 . S
C181 C185 1.503 1_545 S
C181 O198 1.273 1_545 S
C181 O199 1.257 . S
C182 O180 1.255 . S
C182 O183 1.247 . S
O183 C182 1.247 . S
C184 O196 1.242 . S
C184 O197 1.258 . S
C185 C181 1.503 1_565 S
C185 C186 1.379 1_565 S
C185 C190 1.392 . S
C186 C185 1.379 1_545 S
C186 C187 1.414 . S
C186 H200 0.929 . S
C187 C186 1.414 . S
C187 C188 1.365 1_545 S
C188 C187 1.365 1_565 S
C188 C189 1.399 . S
C188 H201 0.931 . S
C189 C188 1.399 . S
C189 C190 1.390 . S
C190 C185 1.392 . S
C190 C189 1.390 . S
C190 H202 0.929 . S
O191 Tb175 2.326 . S
O191 C179 1.242 . S
O192 Eu176 2.324 . S
O192 C179 1.258 . S
O193 Tb175 2.500 . S
O193 C195 1.273 . S
O194 Tb175 2.473 . S
O194 C195 1.257 . S
C195 O193 1.273 . S
C195 O194 1.257 . S
O196 Eu176 2.326 . S
O196 C184 1.242 . S
O197 Tb175 2.324 . S
O197 C184 1.258 . S
O198 Eu176 2.500 1_565 S
O198 C181 1.273 1_565 S
O199 Eu176 2.473 . S
O199 C181 1.257 . S
H200 C186 0.929 . S
H201 C188 0.931 . S
H202 C190 0.929 . S
O203 Tb204 2.292 . S
O203 C206 1.255 . S
Tb204 O203 2.292 . S
Tb204 O220 2.326 . S
Tb204 O222 2.500 . S
Tb204 O223 2.473 . S
Tb204 O226 2.324 . S
Eu205 O209 2.292 . S
Eu205 C210 2.852 . S
Eu205 O221 2.324 . S
Eu205 O225 2.326 . S
Eu205 O227 2.500 . S
Eu205 O228 2.473 . S
C206 O203 1.255 . S
C206 O207 1.247 . S
O207 C206 1.247 . S
C208 O220 1.242 . S
C208 O221 1.258 . S
O209 Eu205 2.292 . S
O209 C211 1.255 . S
C210 Eu205 2.852 . S
C210 C214 1.503 . S
C210 O227 1.273 . S
C210 O228 1.257 . S
C211 O209 1.255 . S
C211 O212 1.247 . S
O212 C211 1.247 . S
C213 O225 1.242 . S
C213 O226 1.258 . S
C214 C210 1.503 . S
C214 C215 1.379 . S
C214 C219 1.392 . S
C215 C214 1.379 . S
C215 C216 1.404 . S
C215 H229 0.929 . S
C216 C215 1.404 . S
C216 C217 1.389 . S
C217 C216 1.389 . S
C217 C218 1.399 . S
C217 H230 0.931 . S
C218 C217 1.399 . S
C218 C219 1.390 . S
C219 C214 1.392 . S
C219 C218 1.390 . S
C219 H231 0.929 . S
O220 Tb204 2.326 . S
O220 C208 1.242 . S
O221 Eu205 2.324 . S
O221 C208 1.258 . S
O222 Tb204 2.500 . S
O222 C224 1.273 . S
O223 Tb204 2.473 . S
O223 C224 1.257 . S
C224 O222 1.273 . S
C224 O223 1.257 . S
O225 Eu205 2.326 . S
O225 C213 1.242 . S
O226 Tb204 2.324 . S
O226 C213 1.258 . S
O227 Eu205 2.500 . S
O227 C210 1.273 . S
O228 Eu205 2.473 . S
O228 C210 1.257 . S
H229 C215 0.929 . S
H230 C217 0.931 . S
H231 C219 0.929 . S
O232 Tb233 2.292 . S
O232 C235 1.255 . S
Tb233 O232 2.292 . S
Tb233 O249 2.326 . S
Tb233 O251 2.500 . S
Tb233 O252 2.473 . S
Tb233 O255 2.324 . S
Eu234 O238 2.292 . S
Eu234 C239 2.852 . S
Eu234 O250 2.324 . S
Eu234 O254 2.326 . S
Eu234 O256 2.500 1_565 S
Eu234 O257 2.473 . S
C235 O232 1.255 . S
C235 O236 1.247 . S
O236 C235 1.247 . S
C237 O249 1.242 . S
C237 O250 1.258 . S
O238 Eu234 2.292 . S
O238 C240 1.255 . S
C239 Eu234 2.852 . S
C239 C243 1.503 1_565 S
C239 O256 1.273 1_565 S
C239 O257 1.257 . S
C240 O238 1.255 . S
C240 O241 1.247 . S
O241 C240 1.247 . S
C242 O254 1.242 . S
C242 O255 1.258 . S
C243 C239 1.503 1_545 S
C243 C244 1.379 1_545 S
C243 C248 1.392 . S
C244 C243 1.379 1_565 S
C244 C245 1.414 . S
C244 H258 0.929 . S
C245 C244 1.414 . S
C245 C246 1.364 1_565 S
C246 C245 1.364 1_545 S
C246 C247 1.399 . S
C246 H259 0.931 . S
C247 C246 1.399 . S
C247 C248 1.390 . S
C248 C243 1.392 . S
C248 C247 1.390 . S
C248 H260 0.929 . S
O249 Tb233 2.326 . S
O249 C237 1.242 . S
O250 Eu234 2.324 . S
O250 C237 1.258 . S
O251 Tb233 2.500 . S
O251 C253 1.273 . S
O252 Tb233 2.473 . S
O252 C253 1.257 . S
C253 O251 1.273 . S
C253 O252 1.257 . S
O254 Eu234 2.326 . S
O254 C242 1.242 . S
O255 Tb233 2.324 . S
O255 C242 1.258 . S
O256 Eu234 2.500 1_545 S
O256 C239 1.273 1_545 S
O257 Eu234 2.473 . S
O257 C239 1.257 . S
H258 C244 0.929 . S
H259 C246 0.931 . S
H260 C248 0.929 . S
O261 Tb262 2.292 . S
O261 C264 1.255 . S
Tb262 O261 2.292 . S
Tb262 O278 2.326 . S
Tb262 O280 2.500 . S
Tb262 O281 2.473 . S
Tb262 O284 2.324 . S
Eu263 O267 2.292 . S
Eu263 C268 2.852 . S
Eu263 O279 2.324 . S
Eu263 O283 2.326 . S
Eu263 O285 2.500 . S
Eu263 O286 2.473 . S
C264 O261 1.255 . S
C264 O265 1.247 . S
O265 C264 1.247 . S
C266 O278 1.242 . S
C266 O279 1.258 . S
O267 Eu263 2.292 . S
O267 C269 1.255 . S
C268 Eu263 2.852 . S
C268 C272 1.503 . S
C268 O285 1.273 . S
C268 O286 1.257 . S
C269 O267 1.255 . S
C269 O270 1.247 . S
O270 C269 1.247 . S
C271 O283 1.242 . S
C271 O284 1.258 . S
C272 C268 1.503 . S
C272 C273 1.379 . S
C272 C277 1.392 . S
C273 C272 1.379 . S
C273 C274 1.404 . S
C273 H287 0.929 . S
C274 C273 1.404 . S
C274 C275 1.389 . S
C275 C274 1.389 . S
C275 C276 1.399 . S
C275 H288 0.931 . S
C276 C275 1.399 . S
C276 C277 1.390 . S
C277 C272 1.392 . S
C277 C276 1.390 . S
C277 H289 0.929 . S
O278 Tb262 2.326 . S
O278 C266 1.242 . S
O279 Eu263 2.324 . S
O279 C266 1.258 . S
O280 Tb262 2.500 . S
O280 C282 1.273 . S
O281 Tb262 2.473 . S
O281 C282 1.257 . S
C282 O280 1.273 . S
C282 O281 1.257 . S
O283 Eu263 2.326 . S
O283 C271 1.242 . S
O284 Tb262 2.324 . S
O284 C271 1.258 . S
O285 Eu263 2.500 . S
O285 C268 1.273 . S
O286 Eu263 2.473 . S
O286 C268 1.257 . S
H287 C273 0.929 . S
H288 C275 0.931 . S
H289 C277 0.929 . S
O290 Tb291 2.292 . S
O290 C293 1.255 . S
Tb291 O290 2.292 . S
Tb291 O307 2.326 . S
Tb291 O309 2.500 . S
Tb291 O310 2.473 . S
Tb291 O313 2.324 . S
Eu292 O296 2.292 . S
Eu292 C297 2.852 . S
Eu292 O308 2.324 . S
Eu292 O312 2.326 . S
Eu292 O314 2.500 . S
Eu292 O315 2.473 . S
C293 O290 1.255 . S
C293 O294 1.247 . S
O294 C293 1.247 . S
C295 O307 1.242 . S
C295 O308 1.258 . S
O296 Eu292 2.292 . S
O296 C298 1.255 . S
C297 Eu292 2.852 . S
C297 C301 1.503 . S
C297 O314 1.273 . S
C297 O315 1.257 . S
C298 O296 1.255 . S
C298 O299 1.247 . S
O299 C298 1.247 . S
C300 O312 1.242 . S
C300 O313 1.258 . S
C301 C297 1.503 . S
C301 C302 1.379 . S
C301 C306 1.392 . S
C302 C301 1.379 . S
C302 C303 1.404 . S
C302 H316 0.929 . S
C303 C302 1.404 . S
C303 C304 1.389 . S
C304 C303 1.389 . S
C304 C305 1.399 . S
C304 H317 0.931 . S
C305 C304 1.399 . S
C305 C306 1.390 . S
C306 C301 1.392 . S
C306 C305 1.390 . S
C306 H318 0.929 . S
O307 Tb291 2.326 . S
O307 C295 1.242 . S
O308 Eu292 2.324 . S
O308 C295 1.258 . S
O309 Tb291 2.500 . S
O309 C311 1.273 . S
O310 Tb291 2.473 . S
O310 C311 1.257 . S
C311 O309 1.273 . S
C311 O310 1.257 . S
O312 Eu292 2.326 . S
O312 C300 1.242 . S
O313 Tb291 2.324 . S
O313 C300 1.258 . S
O314 Eu292 2.500 . S
O314 C297 1.273 . S
O315 Eu292 2.473 . S
O315 C297 1.257 . S
H316 C302 0.929 . S
H317 C304 0.931 . S
H318 C306 0.929 . S
O319 Tb320 2.292 . S
O319 C322 1.255 . S
Tb320 O319 2.292 . S
Tb320 O336 2.326 . S
Tb320 O338 2.500 . S
Tb320 O339 2.473 . S
Tb320 O342 2.324 . S
Eu321 O325 2.292 . S
Eu321 C326 2.852 . S
Eu321 O337 2.324 . S
Eu321 O341 2.326 . S
Eu321 O343 2.500 1_655 S
Eu321 O344 2.473 . S
C322 O319 1.255 . S
C322 O323 1.247 . S
O323 C322 1.247 . S
C324 O336 1.242 . S
C324 O337 1.258 . S
O325 Eu321 2.292 . S
O325 C327 1.255 . S
C326 Eu321 2.852 . S
C326 C330 1.503 1_655 S
C326 O343 1.273 1_655 S
C326 O344 1.257 . S
C327 O325 1.255 . S
C327 O328 1.247 . S
O328 C327 1.247 . S
C329 O341 1.242 . S
C329 O342 1.258 . S
C330 C326 1.503 1_455 S
C330 C331 1.379 1_455 S
C330 C335 1.392 . S
C331 C330 1.379 1_655 S
C331 C332 1.414 . S
C331 H345 0.929 . S
C332 C331 1.414 . S
C332 C333 1.365 1_655 S
C333 C332 1.365 1_455 S
C333 C334 1.399 . S
C333 H346 0.931 . S
C334 C333 1.399 . S
C334 C335 1.390 . S
C335 C330 1.392 . S
C335 C334 1.390 . S
C335 H347 0.929 . S
O336 Tb320 2.326 . S
O336 C324 1.242 . S
O337 Eu321 2.324 . S
O337 C324 1.258 . S
O338 Tb320 2.500 . S
O338 C340 1.273 . S
O339 Tb320 2.473 . S
O339 C340 1.257 . S
C340 O338 1.273 . S
C340 O339 1.257 . S
O341 Eu321 2.326 . S
O341 C329 1.242 . S
O342 Tb320 2.324 . S
O342 C329 1.258 . S
O343 Eu321 2.500 1_455 S
O343 C326 1.273 1_455 S
O344 Eu321 2.473 . S
O344 C326 1.257 . S
H345 C331 0.929 . S
H346 C333 0.931 . S
H347 C335 0.929 . S
O348 Tb349 2.292 . S
O348 C351 1.255 . S
Tb349 O348 2.292 . S
Tb349 O365 2.326 . S
Tb349 O367 2.500 . S
Tb349 O368 2.473 . S
Tb349 O371 2.324 . S
Eu350 O354 2.292 . S
Eu350 C355 2.852 . S
Eu350 O366 2.324 . S
Eu350 O370 2.326 . S
Eu350 O372 2.500 . S
Eu350 O373 2.473 . S
C351 O348 1.255 . S
C351 O352 1.247 . S
O352 C351 1.247 . S
C353 O365 1.242 . S
C353 O366 1.258 . S
O354 Eu350 2.292 . S
O354 C356 1.255 . S
C355 Eu350 2.852 . S
C355 C359 1.503 . S
C355 O372 1.273 . S
C355 O373 1.257 . S
C356 O354 1.255 . S
C356 O357 1.247 . S
O357 C356 1.247 . S
C358 O370 1.242 . S
C358 O371 1.258 . S
C359 C355 1.503 . S
C359 C360 1.379 . S
C359 C364 1.392 . S
C360 C359 1.379 . S
C360 C361 1.404 . S
C360 H374 0.929 . S
C361 C360 1.404 . S
C361 C362 1.389 . S
C362 C361 1.389 . S
C362 C363 1.399 . S
C362 H375 0.931 . S
C363 C362 1.399 . S
C363 C364 1.390 . S
C364 C359 1.392 . S
C364 C363 1.390 . S
C364 H376 0.929 . S
O365 Tb349 2.326 . S
O365 C353 1.242 . S
O366 Eu350 2.324 . S
O366 C353 1.258 . S
O367 Tb349 2.500 . S
O367 C369 1.273 . S
O368 Tb349 2.473 . S
O368 C369 1.257 . S
C369 O367 1.273 . S
C369 O368 1.257 . S
O370 Eu350 2.326 . S
O370 C358 1.242 . S
O371 Tb349 2.324 . S
O371 C358 1.258 . S
O372 Eu350 2.500 . S
O372 C355 1.273 . S
O373 Eu350 2.473 . S
O373 C355 1.257 . S
H374 C360 0.929 . S
H375 C362 0.931 . S
H376 C364 0.929 . S
O377 Tb378 2.292 . S
O377 C380 1.255 . S
Tb378 O377 2.292 . S
Tb378 O394 2.326 . S
Tb378 O396 2.500 . S
Tb378 O397 2.473 . S
Tb378 O400 2.324 . S
Eu379 O383 2.292 . S
Eu379 C384 2.852 . S
Eu379 O395 2.324 . S
Eu379 O399 2.326 . S
Eu379 O401 2.500 1_655 S
Eu379 O402 2.473 . S
C380 O377 1.255 . S
C380 O381 1.247 . S
O381 C380 1.247 . S
C382 O394 1.242 . S
C382 O395 1.258 . S
O383 Eu379 2.292 . S
O383 C385 1.255 . S
C384 Eu379 2.852 . S
C384 C388 1.503 1_655 S
C384 O401 1.273 1_655 S
C384 O402 1.257 . S
C385 O383 1.255 . S
C385 O386 1.247 . S
O386 C385 1.247 . S
C387 O399 1.242 . S
C387 O400 1.258 . S
C388 C384 1.503 1_455 S
C388 C389 1.379 1_455 S
C388 C393 1.392 . S
C389 C388 1.379 1_655 S
C389 C390 1.414 . S
C389 H403 0.929 . S
C390 C389 1.414 . S
C390 C391 1.364 1_655 S
C391 C390 1.364 1_455 S
C391 C392 1.399 . S
C391 H404 0.931 . S
C392 C391 1.399 . S
C392 C393 1.390 . S
C393 C388 1.392 . S
C393 C392 1.390 . S
C393 H405 0.929 . S
O394 Tb378 2.326 . S
O394 C382 1.242 . S
O395 Eu379 2.324 . S
O395 C382 1.258 . S
O396 Tb378 2.500 . S
O396 C398 1.273 . S
O397 Tb378 2.473 . S
O397 C398 1.257 . S
C398 O396 1.273 . S
C398 O397 1.257 . S
O399 Eu379 2.326 . S
O399 C387 1.242 . S
O400 Tb378 2.324 . S
O400 C387 1.258 . S
O401 Eu379 2.500 1_455 S
O401 C384 1.273 1_455 S
O402 Eu379 2.473 . S
O402 C384 1.257 . S
H403 C389 0.929 . S
H404 C391 0.931 . S
H405 C393 0.929 . S
O406 Tb407 2.292 . S
O406 C409 1.255 . S
Tb407 O406 2.292 . S
Tb407 O423 2.326 . S
Tb407 O425 2.500 . S
Tb407 O426 2.473 . S
Tb407 O429 2.324 . S
Eu408 O412 2.292 . S
Eu408 C413 2.852 . S
Eu408 O424 2.324 . S
Eu408 O428 2.326 . S
Eu408 O430 2.500 1_565 S
Eu408 O431 2.473 . S
C409 O406 1.255 . S
C409 O410 1.247 . S
O410 C409 1.247 . S
C411 O423 1.242 . S
C411 O424 1.258 . S
O412 Eu408 2.292 . S
O412 C414 1.255 . S
C413 Eu408 2.852 . S
C413 C417 1.503 1_565 S
C413 O430 1.273 1_565 S
C413 O431 1.257 . S
C414 O412 1.255 . S
C414 O415 1.247 . S
O415 C414 1.247 . S
C416 O428 1.242 . S
C416 O429 1.258 . S
C417 C413 1.503 1_545 S
C417 C418 1.379 1_545 S
C417 C422 1.392 . S
C418 C417 1.379 1_565 S
C418 C419 1.414 . S
C418 H432 0.929 . S
C419 C418 1.414 . S
C419 C420 1.365 1_565 S
C420 C419 1.365 1_545 S
C420 C421 1.399 . S
C420 H433 0.931 . S
C421 C420 1.399 . S
C421 C422 1.390 . S
C422 C417 1.392 . S
C422 C421 1.390 . S
C422 H434 0.929 . S
O423 Tb407 2.326 . S
O423 C411 1.242 . S
O424 Eu408 2.324 . S
O424 C411 1.258 . S
O425 Tb407 2.500 . S
O425 C427 1.273 . S
O426 Tb407 2.473 . S
O426 C427 1.257 . S
C427 O425 1.273 . S
C427 O426 1.257 . S
O428 Eu408 2.326 . S
O428 C416 1.242 . S
O429 Tb407 2.324 . S
O429 C416 1.258 . S
O430 Eu408 2.500 1_545 S
O430 C413 1.273 1_545 S
O431 Eu408 2.473 . S
O431 C413 1.257 . S
H432 C418 0.929 . S
H433 C420 0.931 . S
H434 C422 0.929 . S
O435 Tb436 2.292 . S
O435 C438 1.255 . S
Tb436 O435 2.292 . S
Tb436 O452 2.326 . S
Tb436 O454 2.500 . S
Tb436 O455 2.473 . S
Tb436 O458 2.324 . S
Eu437 O441 2.292 . S
Eu437 C442 2.852 . S
Eu437 O453 2.324 . S
Eu437 O457 2.326 . S
Eu437 O459 2.500 . S
Eu437 O460 2.473 . S
C438 O435 1.255 . S
C438 O439 1.247 . S
O439 C438 1.247 . S
C440 O452 1.242 . S
C440 O453 1.258 . S
O441 Eu437 2.292 . S
O441 C443 1.255 . S
C442 Eu437 2.852 . S
C442 C446 1.503 . S
C442 O459 1.273 . S
C442 O460 1.257 . S
C443 O441 1.255 . S
C443 O444 1.247 . S
O444 C443 1.247 . S
C445 O457 1.242 . S
C445 O458 1.258 . S
C446 C442 1.503 . S
C446 C447 1.379 . S
C446 C451 1.392 . S
C447 C446 1.379 . S
C447 C448 1.404 . S
C447 H461 0.929 . S
C448 C447 1.404 . S
C448 C449 1.389 . S
C449 C448 1.389 . S
C449 C450 1.399 . S
C449 H462 0.931 . S
C450 C449 1.399 . S
C450 C451 1.390 . S
C451 C446 1.392 . S
C451 C450 1.390 . S
C451 H463 0.929 . S
O452 Tb436 2.326 . S
O452 C440 1.242 . S
O453 Eu437 2.324 . S
O453 C440 1.258 . S
O454 Tb436 2.500 . S
O454 C456 1.273 . S
O455 Tb436 2.473 . S
O455 C456 1.257 . S
C456 O454 1.273 . S
C456 O455 1.257 . S
O457 Eu437 2.326 . S
O457 C445 1.242 . S
O458 Tb436 2.324 . S
O458 C445 1.258 . S
O459 Eu437 2.500 . S
O459 C442 1.273 . S
O460 Eu437 2.473 . S
O460 C442 1.257 . S
H461 C447 0.929 . S
H462 C449 0.931 . S
H463 C451 0.929 . S
H464 C472 0.950 . S
H465 C477 0.950 . S
H466 C474 0.950 . S
H467 C476 0.950 . S
H468 C478 0.950 . S
H469 C480 0.950 . S
H470 C482 0.950 . S
H471 C483 0.950 . S
C472 H464 0.950 . S
C472 C473 1.386 . S
C472 C474 1.391 . S
C473 C472 1.386 . S
C473 C477 1.393 . S
C474 H466 0.950 . S
C474 C472 1.391 . S
C474 C475 1.400 . S
C475 C474 1.400 . S
C475 C476 1.398 . S
C475 C481 1.491 . S
C476 H467 0.950 . S
C476 C475 1.398 . S
C476 C477 1.391 . S
C477 H465 0.950 . S
C477 C473 1.393 . S
C477 C476 1.391 . S
C478 H468 0.950 . S
C478 C479 1.386 . S
C478 C480 1.391 . S
C479 C478 1.386 . S
C479 C483 1.393 . S
C480 H469 0.950 . S
C480 C478 1.391 . S
C480 C481 1.400 . S
C481 C475 1.491 . S
C481 C480 1.400 . S
C481 C482 1.398 . S
C482 H470 0.950 . S
C482 C481 1.398 . S
C482 C483 1.391 . S
C483 H471 0.950 . S
C483 C479 1.393 . S
C483 C482 1.391 . S
H484 C492 0.950 . S
H485 C497 0.950 . S
H486 C494 0.950 . S
H487 C496 0.950 . S
H488 C498 0.950 . S
H489 C500 0.950 . S
H490 C502 0.950 . S
H491 C503 0.950 . S
C492 H484 0.950 . S
C492 C493 1.386 . S
C492 C494 1.391 . S
C493 C492 1.386 . S
C493 C497 1.393 . S
C494 H486 0.950 . S
C494 C492 1.391 . S
C494 C495 1.400 . S
C495 C494 1.400 . S
C495 C496 1.398 . S
C495 C501 1.491 . S
C496 H487 0.950 . S
C496 C495 1.398 . S
C496 C497 1.391 . S
C497 H485 0.950 . S
C497 C493 1.393 . S
C497 C496 1.391 . S
C498 H488 0.950 . S
C498 C499 1.386 . S
C498 C500 1.391 . S
C499 C498 1.386 . S
C499 C503 1.393 . S
C500 H489 0.950 . S
C500 C498 1.391 . S
C500 C501 1.400 . S
C501 C495 1.491 . S
C501 C500 1.400 . S
C501 C502 1.398 . S
C502 H490 0.950 . S
C502 C501 1.398 . S
C502 C503 1.391 . S
C503 H491 0.950 . S
C503 C499 1.393 . S
C503 C502 1.391 . S
H504 C512 0.950 . S
H505 C517 0.950 . S
H506 C514 0.950 . S
H507 C516 0.950 . S
H508 C518 0.950 . S
H509 C520 0.950 . S
H510 C522 0.950 . S
H511 C523 0.950 . S
C512 H504 0.950 . S
C512 C513 1.386 . S
C512 C514 1.391 . S
C513 C512 1.386 . S
C513 C517 1.393 . S
C514 H506 0.950 . S
C514 C512 1.391 . S
C514 C515 1.400 . S
C515 C514 1.400 . S
C515 C516 1.398 . S
C515 C521 1.491 . S
C516 H507 0.950 . S
C516 C515 1.398 . S
C516 C517 1.391 . S
C517 H505 0.950 . S
C517 C513 1.393 . S
C517 C516 1.391 . S
C518 H508 0.950 . S
C518 C519 1.386 . S
C518 C520 1.391 . S
C519 C518 1.386 . S
C519 C523 1.393 . S
C520 H509 0.950 . S
C520 C518 1.391 . S
C520 C521 1.400 . S
C521 C515 1.491 . S
C521 C520 1.400 . S
C521 C522 1.398 . S
C522 H510 0.950 . S
C522 C521 1.398 . S
C522 C523 1.391 . S
C523 H511 0.950 . S
C523 C519 1.393 . S
C523 C522 1.391 . S
H524 C532 0.950 . S
H525 C537 0.950 . S
H526 C534 0.950 . S
H527 C536 0.950 . S
H528 C538 0.950 . S
H529 C540 0.950 . S
H530 C542 0.950 . S
H531 C543 0.950 . S
C532 H524 0.950 . S
C532 C533 1.386 . S
C532 C534 1.391 . S
C533 C532 1.386 . S
C533 C537 1.393 . S
C534 H526 0.950 . S
C534 C532 1.391 . S
C534 C535 1.400 . S
C535 C534 1.400 . S
C535 C536 1.398 . S
C535 C541 1.491 . S
C536 H527 0.950 . S
C536 C535 1.398 . S
C536 C537 1.391 . S
C537 H525 0.950 . S
C537 C533 1.393 . S
C537 C536 1.391 . S
C538 H528 0.950 . S
C538 C539 1.386 . S
C538 C540 1.391 . S
C539 C538 1.386 . S
C539 C543 1.393 . S
C540 H529 0.950 . S
C540 C538 1.391 . S
C540 C541 1.400 . S
C541 C535 1.491 . S
C541 C540 1.400 . S
C541 C542 1.398 . S
C542 H530 0.950 . S
C542 C541 1.398 . S
C542 C543 1.391 . S
C543 H531 0.950 . S
C543 C539 1.393 . S
C543 C542 1.391 . S
H544 C552 0.950 . S
H545 C557 0.950 . S
H546 C554 0.950 . S
H547 C556 0.950 . S
H548 C558 0.950 . S
H549 C560 0.950 . S
H550 C562 0.950 . S
H551 C563 0.950 . S
C552 H544 0.950 . S
C552 C553 1.386 . S
C552 C554 1.391 . S
C553 C552 1.386 . S
C553 C557 1.393 . S
C554 H546 0.950 . S
C554 C552 1.391 . S
C554 C555 1.400 . S
C555 C554 1.400 . S
C555 C556 1.398 . S
C555 C561 1.491 . S
C556 H547 0.950 . S
C556 C555 1.398 . S
C556 C557 1.391 . S
C557 H545 0.950 . S
C557 C553 1.393 . S
C557 C556 1.391 . S
C558 H548 0.950 . S
C558 C559 1.386 . S
C558 C560 1.391 . S
C559 C558 1.386 . S
C559 C563 1.393 . S
C560 H549 0.950 . S
C560 C558 1.391 . S
C560 C561 1.400 . S
C561 C555 1.491 . S
C561 C560 1.400 . S
C561 C562 1.398 . S
C562 H550 0.950 . S
C562 C561 1.398 . S
C562 C563 1.391 . S
C563 H551 0.950 . S
C563 C559 1.393 . S
C563 C562 1.391 . S
H564 C572 0.950 . S
H565 C577 0.950 . S
H566 C574 0.950 . S
H567 C576 0.950 . S
H568 C578 0.950 . S
H569 C580 0.950 . S
H570 C582 0.950 . S
H571 C583 0.950 . S
C572 H564 0.950 . S
C572 C573 1.386 . S
C572 C574 1.391 . S
C573 C572 1.386 . S
C573 C577 1.393 . S
C574 H566 0.950 . S
C574 C572 1.391 . S
C574 C575 1.400 . S
C575 C574 1.400 . S
C575 C576 1.398 . S
C575 C581 1.491 . S
C576 H567 0.950 . S
C576 C575 1.398 . S
C576 C577 1.391 . S
C577 H565 0.950 . S
C577 C573 1.393 . S
C577 C576 1.391 . S
C578 H568 0.950 . S
C578 C579 1.386 . S
C578 C580 1.391 . S
C579 C578 1.386 . S
C579 C583 1.393 . S
C580 H569 0.950 . S
C580 C578 1.391 . S
C580 C581 1.400 . S
C581 C575 1.491 . S
C581 C580 1.400 . S
C581 C582 1.398 . S
C582 H570 0.950 . S
C582 C581 1.398 . S
C582 C583 1.391 . S
C583 H571 0.950 . S
C583 C579 1.393 . S
C583 C582 1.391 . S
H584 C592 0.950 . S
H585 C597 0.950 . S
H586 C594 0.950 . S
H587 C596 0.950 . S
H588 C598 0.950 . S
H589 C600 0.950 . S
H590 C602 0.950 . S
H591 C603 0.950 . S
C592 H584 0.950 . S
C592 C593 1.386 . S
C592 C594 1.391 . S
C593 C592 1.386 . S
C593 C597 1.393 . S
C594 H586 0.950 . S
C594 C592 1.391 . S
C594 C595 1.400 . S
C595 C594 1.400 . S
C595 C596 1.398 . S
C595 C601 1.491 . S
C596 H587 0.950 . S
C596 C595 1.398 . S
C596 C597 1.391 . S
C597 H585 0.950 . S
C597 C593 1.393 . S
C597 C596 1.391 . S
C598 H588 0.950 . S
C598 C599 1.386 . S
C598 C600 1.391 . S
C599 C598 1.386 . S
C599 C603 1.393 . S
C600 H589 0.950 . S
C600 C598 1.391 . S
C600 C601 1.400 . S
C601 C595 1.491 . S
C601 C600 1.400 . S
C601 C602 1.398 . S
C602 H590 0.950 . S
C602 C601 1.398 . S
C602 C603 1.391 . S
C603 H591 0.950 . S
C603 C599 1.393 . S
C603 C602 1.391 . S
H604 C612 0.950 . S
H605 C617 0.950 . S
H606 C614 0.950 . S
H607 C616 0.950 . S
H608 C618 0.950 . S
H609 C620 0.950 . S
H610 C622 0.950 . S
H611 C623 0.950 . S
C612 H604 0.950 . S
C612 C613 1.386 . S
C612 C614 1.391 . S
C613 C612 1.386 . S
C613 C617 1.393 . S
C614 H606 0.950 . S
C614 C612 1.391 . S
C614 C615 1.400 . S
C615 C614 1.400 . S
C615 C616 1.398 . S
C615 C621 1.491 . S
C616 H607 0.950 . S
C616 C615 1.398 . S
C616 C617 1.391 . S
C617 H605 0.950 . S
C617 C613 1.393 . S
C617 C616 1.391 . S
C618 H608 0.950 . S
C618 C619 1.386 . S
C618 C620 1.391 . S
C619 C618 1.386 . S
C619 C623 1.393 . S
C620 H609 0.950 . S
C620 C618 1.391 . S
C620 C621 1.400 . S
C621 C615 1.491 . S
C621 C620 1.400 . S
C621 C622 1.398 . S
C622 H610 0.950 . S
C622 C621 1.398 . S
C622 C623 1.391 . S
C623 H611 0.950 . S
C623 C619 1.393 . S
C623 C622 1.391 . S
H624 C632 0.950 . S
H625 C637 0.950 . S
H626 C634 0.950 . S
H627 C636 0.950 1_556 S
H628 C638 0.950 . S
H629 C640 0.950 . S
H630 C642 0.950 1_554 S
H631 C643 0.950 . S
C632 H624 0.950 . S
C632 C633 1.386 . S
C632 C634 1.391 . S
C633 C632 1.386 . S
C633 C637 1.393 . S
C634 H626 0.950 . S
C634 C632 1.391 . S
C634 C635 1.400 . S
C635 C634 1.400 . S
C635 C636 1.398 . S
C635 C641 1.491 1_554 S
C636 H627 0.950 1_554 S
C636 C635 1.398 . S
C636 C637 1.391 . S
C637 H625 0.950 . S
C637 C633 1.393 . S
C637 C636 1.391 . S
C638 H628 0.950 . S
C638 C639 1.386 . S
C638 C640 1.391 . S
C639 C638 1.386 . S
C639 C643 1.393 . S
C640 H629 0.950 . S
C640 C638 1.391 . S
C640 C641 1.400 . S
C641 C635 1.491 1_556 S
C641 C640 1.400 . S
C641 C642 1.398 . S
C642 H630 0.950 1_556 S
C642 C641 1.398 . S
C642 C643 1.391 . S
C643 H631 0.950 . S
C643 C639 1.393 . S
C643 C642 1.391 . S
H644 C652 0.950 . S
H645 C657 0.950 . S
H646 C654 0.950 . S
H647 C656 0.950 . S
H648 C658 0.950 . S
H649 C660 0.950 . S
H650 C662 0.950 1_556 S
H651 C663 0.950 . S
C652 H644 0.950 . S
C652 C653 1.386 . S
C652 C654 1.391 . S
C653 C652 1.386 . S
C653 C657 1.393 . S
C654 H646 0.950 . S
C654 C652 1.391 . S
C654 C655 1.400 . S
C655 C654 1.400 . S
C655 C656 1.398 1_556 S
C655 C661 1.491 1_556 S
C656 H647 0.950 . S
C656 C655 1.398 1_554 S
C656 C657 1.391 1_554 S
C657 H645 0.950 . S
C657 C653 1.393 . S
C657 C656 1.391 1_556 S
C658 H648 0.950 . S
C658 C659 1.386 . S
C658 C660 1.391 . S
C659 C658 1.386 . S
C659 C663 1.393 . S
C660 H649 0.950 . S
C660 C658 1.391 . S
C660 C661 1.400 . S
C661 C655 1.491 1_554 S
C661 C660 1.400 . S
C661 C662 1.398 . S
C662 H650 0.950 1_554 S
C662 C661 1.398 . S
C662 C663 1.391 . S
C663 H651 0.950 . S
C663 C659 1.393 . S
C663 C662 1.391 . S
H664 C672 0.950 . S
H665 C677 0.950 . S
H666 C674 0.950 . S
H667 C676 0.950 . S
H668 C678 0.950 . S
H669 C680 0.950 . S
H670 C682 0.950 . S
H671 C683 0.950 . S
C672 H664 0.950 . S
C672 C673 1.386 . S
C672 C674 1.391 . S
C673 C672 1.386 . S
C673 C677 1.393 . S
C674 H666 0.950 . S
C674 C672 1.391 . S
C674 C675 1.400 . S
C675 C674 1.400 . S
C675 C676 1.398 . S
C675 C681 1.491 1_554 S
C676 H667 0.950 . S
C676 C675 1.398 . S
C676 C677 1.391 . S
C677 H665 0.950 . S
C677 C673 1.393 . S
C677 C676 1.391 . S
C678 H668 0.950 . S
C678 C679 1.386 . S
C678 C680 1.391 . S
C679 C678 1.386 . S
C679 C683 1.393 . S
C680 H669 0.950 . S
C680 C678 1.391 . S
C680 C681 1.400 . S
C681 C675 1.491 1_556 S
C681 C680 1.400 . S
C681 C682 1.398 . S
C682 H670 0.950 . S
C682 C681 1.398 . S
C682 C683 1.391 . S
C683 H671 0.950 . S
C683 C679 1.393 . S
C683 C682 1.391 . S
H684 C692 0.950 . S
H685 C697 0.950 . S
H686 C694 0.950 1_554 S
H687 C696 0.950 . S
H688 C698 0.950 . S
H689 C700 0.950 1_556 S
H690 C702 0.950 . S
H691 C703 0.950 . S
C692 H684 0.950 . S
C692 C693 1.386 . S
C692 C694 1.391 . S
C693 C692 1.386 . S
C693 C697 1.393 . S
C694 H686 0.950 1_556 S
C694 C692 1.391 . S
C694 C695 1.400 . S
C695 C694 1.400 . S
C695 C696 1.398 . S
C695 C701 1.491 1_556 S
C696 H687 0.950 . S
C696 C695 1.398 . S
C696 C697 1.391 . S
C697 H685 0.950 . S
C697 C693 1.393 . S
C697 C696 1.391 . S
C698 H688 0.950 . S
C698 C699 1.386 . S
C698 C700 1.391 . S
C699 C698 1.386 . S
C699 C703 1.393 . S
C700 H689 0.950 1_554 S
C700 C698 1.391 . S
C700 C701 1.400 . S
C701 C695 1.491 1_554 S
C701 C700 1.400 . S
C701 C702 1.398 . S
C702 H690 0.950 . S
C702 C701 1.398 . S
C702 C703 1.391 . S
C703 H691 0.950 . S
C703 C699 1.393 . S
C703 C702 1.391 . S
H704 C712 0.950 . S
H705 C717 0.950 . S
H706 C714 0.950 . S
H707 C716 0.950 . S
H708 C718 0.950 . S
H709 C720 0.950 . S
H710 C722 0.950 . S
H711 C723 0.950 . S
C712 H704 0.950 . S
C712 C713 1.386 . S
C712 C714 1.391 . S
C713 C712 1.386 . S
C713 C717 1.393 . S
C714 H706 0.950 . S
C714 C712 1.391 . S
C714 C715 1.400 . S
C715 C714 1.400 . S
C715 C716 1.398 . S
C715 C721 1.491 . S
C716 H707 0.950 . S
C716 C715 1.398 . S
C716 C717 1.391 . S
C717 H705 0.950 . S
C717 C713 1.393 . S
C717 C716 1.391 . S
C718 H708 0.950 . S
C718 C719 1.386 . S
C718 C720 1.391 . S
C719 C718 1.386 . S
C719 C723 1.393 . S
C720 H709 0.950 . S
C720 C718 1.391 . S
C720 C721 1.400 . S
C721 C715 1.491 . S
C721 C720 1.400 . S
C721 C722 1.398 . S
C722 H710 0.950 . S
C722 C721 1.398 . S
C722 C723 1.391 . S
C723 H711 0.950 . S
C723 C719 1.393 . S
C723 C722 1.391 . S
H724 C732 0.950 . S
H725 C737 0.950 . S
H726 C734 0.950 . S
H727 C736 0.950 . S
H728 C738 0.950 . S
H729 C740 0.950 . S
H730 C742 0.950 . S
H731 C743 0.950 . S
C732 H724 0.950 . S
C732 C733 1.386 . S
C732 C734 1.391 . S
C733 C732 1.386 . S
C733 C737 1.393 . S
C734 H726 0.950 . S
C734 C732 1.391 . S
C734 C735 1.400 . S
C735 C734 1.400 . S
C735 C736 1.398 . S
C735 C741 1.491 . S
C736 H727 0.950 . S
C736 C735 1.398 . S
C736 C737 1.391 . S
C737 H725 0.950 . S
C737 C733 1.393 . S
C737 C736 1.391 . S
C738 H728 0.950 . S
C738 C739 1.386 . S
C738 C740 1.391 . S
C739 C738 1.386 . S
C739 C743 1.393 . S
C740 H729 0.950 . S
C740 C738 1.391 . S
C740 C741 1.400 . S
C741 C735 1.491 . S
C741 C740 1.400 . S
C741 C742 1.398 . S
C742 H730 0.950 . S
C742 C741 1.398 . S
C742 C743 1.391 . S
C743 H731 0.950 . S
C743 C739 1.393 . S
C743 C742 1.391 . S
H744 C752 0.950 . S
H745 C757 0.950 . S
H746 C754 0.950 . S
H747 C756 0.950 . S
H748 C758 0.950 . S
H749 C760 0.950 . S
H750 C762 0.950 . S
H751 C763 0.950 . S
C752 H744 0.950 . S
C752 C753 1.386 . S
C752 C754 1.391 . S
C753 C752 1.386 . S
C753 C757 1.393 . S
C754 H746 0.950 . S
C754 C752 1.391 . S
C754 C755 1.400 . S
C755 C754 1.400 . S
C755 C756 1.398 . S
C755 C761 1.491 . S
C756 H747 0.950 . S
C756 C755 1.398 . S
C756 C757 1.391 . S
C757 H745 0.950 . S
C757 C753 1.393 . S
C757 C756 1.391 . S
C758 H748 0.950 . S
C758 C759 1.386 . S
C758 C760 1.391 . S
C759 C758 1.386 . S
C759 C763 1.393 . S
C760 H749 0.950 . S
C760 C758 1.391 . S
C760 C761 1.400 . S
C761 C755 1.491 . S
C761 C760 1.400 . S
C761 C762 1.398 . S
C762 H750 0.950 . S
C762 C761 1.398 . S
C762 C763 1.391 . S
C763 H751 0.950 . S
C763 C759 1.393 . S
C763 C762 1.391 . S
H764 C772 0.950 . S
H765 C777 0.950 . S
H766 C774 0.950 . S
H767 C776 0.950 . S
H768 C778 0.950 . S
H769 C780 0.950 . S
H770 C782 0.950 . S
H771 C783 0.950 . S
C772 H764 0.950 . S
C772 C773 1.386 . S
C772 C774 1.391 . S
C773 C772 1.386 . S
C773 C777 1.393 . S
C774 H766 0.950 . S
C774 C772 1.391 . S
C774 C775 1.400 . S
C775 C774 1.400 . S
C775 C776 1.398 . S
C775 C781 1.491 . S
C776 H767 0.950 . S
C776 C775 1.398 . S
C776 C777 1.391 . S
C777 H765 0.950 . S
C777 C773 1.393 . S
C777 C776 1.391 . S
C778 H768 0.950 . S
C778 C779 1.386 . S
C778 C780 1.391 . S
C779 C778 1.386 . S
C779 C783 1.393 . S
C780 H769 0.950 . S
C780 C778 1.391 . S
C780 C781 1.400 . S
C781 C775 1.491 . S
C781 C780 1.400 . S
C781 C782 1.398 . S
C782 H770 0.950 . S
C782 C781 1.398 . S
C782 C783 1.391 . S
C783 H771 0.950 . S
C783 C779 1.393 . S
C783 C782 1.391 . S
H784 C792 0.950 . S
H785 C797 0.950 . S
H786 C794 0.950 . S
H787 C796 0.950 . S
H788 C798 0.950 . S
H789 C800 0.950 . S
H790 C802 0.950 . S
H791 C803 0.950 . S
C792 H784 0.950 . S
C792 C793 1.386 . S
C792 C794 1.391 . S
C793 C792 1.386 . S
C793 C797 1.393 . S
C794 H786 0.950 . S
C794 C792 1.391 . S
C794 C795 1.400 . S
C795 C794 1.400 . S
C795 C796 1.398 . S
C795 C801 1.491 1_556 S
C796 H787 0.950 . S
C796 C795 1.398 . S
C796 C797 1.391 . S
C797 H785 0.950 . S
C797 C793 1.393 . S
C797 C796 1.391 . S
C798 H788 0.950 . S
C798 C799 1.386 . S
C798 C800 1.391 . S
C799 C798 1.386 . S
C799 C803 1.393 . S
C800 H789 0.950 . S
C800 C798 1.391 . S
C800 C801 1.400 . S
C801 C795 1.491 1_554 S
C801 C800 1.400 . S
C801 C802 1.398 . S
C802 H790 0.950 . S
C802 C801 1.398 . S
C802 C803 1.391 . S
C803 H791 0.950 . S
C803 C799 1.393 . S
C803 C802 1.391 . S
H804 C812 0.950 . S
H805 C817 0.950 . S
H806 C814 0.950 . S
H807 C816 0.950 . S
H808 C818 0.950 . S
H809 C820 0.950 1_554 S
H810 C822 0.950 . S
H811 C823 0.950 . S
C812 H804 0.950 . S
C812 C813 1.386 . S
C812 C814 1.391 1_554 S
C813 C812 1.386 . S
C813 C817 1.393 . S
C814 H806 0.950 . S
C814 C812 1.391 1_556 S
C814 C815 1.400 1_556 S
C815 C814 1.400 1_554 S
C815 C816 1.398 . S
C815 C821 1.491 1_554 S
C816 H807 0.950 . S
C816 C815 1.398 . S
C816 C817 1.391 . S
C817 H805 0.950 . S
C817 C813 1.393 . S
C817 C816 1.391 . S
C818 H808 0.950 . S
C818 C819 1.386 . S
C818 C820 1.391 . S
C819 C818 1.386 . S
C819 C823 1.393 . S
C820 H809 0.950 1_556 S
C820 C818 1.391 . S
C820 C821 1.400 . S
C821 C815 1.491 1_556 S
C821 C820 1.400 . S
C821 C822 1.398 . S
C822 H810 0.950 . S
C822 C821 1.398 . S
C822 C823 1.391 . S
C823 H811 0.950 . S
C823 C819 1.393 . S
C823 C822 1.391 . S
H824 C832 0.950 . S
H825 C837 0.950 . S
H826 C834 0.950 . S
H827 C836 0.950 1_554 S
H828 C838 0.950 . S
H829 C840 0.950 . S
H830 C842 0.950 . S
H831 C843 0.950 . S
C832 H824 0.950 . S
C832 C833 1.386 . S
C832 C834 1.391 . S
C833 C832 1.386 . S
C833 C837 1.393 . S
C834 H826 0.950 . S
C834 C832 1.391 . S
C834 C835 1.400 . S
C835 C834 1.400 . S
C835 C836 1.398 . S
C835 C841 1.491 1_556 S
C836 H827 0.950 1_556 S
C836 C835 1.398 . S
C836 C837 1.391 . S
C837 H825 0.950 . S
C837 C833 1.393 . S
C837 C836 1.391 . S
C838 H828 0.950 . S
C838 C839 1.386 . S
C838 C840 1.391 . S
C839 C838 1.386 . S
C839 C843 1.393 . S
C840 H829 0.950 . S
C840 C838 1.391 . S
C840 C841 1.400 . S
C841 C835 1.491 1_554 S
C841 C840 1.400 . S
C841 C842 1.398 1_554 S
C842 H830 0.950 . S
C842 C841 1.398 1_556 S
C842 C843 1.391 1_556 S
C843 H831 0.950 . S
C843 C839 1.393 . S
C843 C842 1.391 1_554 S
H844 C852 0.950 . S
H845 C857 0.950 . S
H846 C854 0.950 . S
H847 C856 0.950 1_556 S
H848 C858 0.950 . S
H849 C860 0.950 . S
H850 C862 0.950 . S
H851 C863 0.950 . S
C852 H844 0.950 . S
C852 C853 1.386 . S
C852 C854 1.391 . S
C853 C852 1.386 . S
C853 C857 1.393 . S
C854 H846 0.950 . S
C854 C852 1.391 . S
C854 C855 1.400 . S
C855 C854 1.400 . S
C855 C856 1.398 . S
C855 C861 1.491 1_554 S
C856 H847 0.950 1_554 S
C856 C855 1.398 . S
C856 C857 1.391 . S
C857 H845 0.950 . S
C857 C853 1.393 . S
C857 C856 1.391 . S
C858 H848 0.950 . S
C858 C859 1.386 . S
C858 C860 1.391 . S
C859 C858 1.386 . S
C859 C863 1.393 . S
C860 H849 0.950 . S
C860 C858 1.391 . S
C860 C861 1.400 . S
C861 C855 1.491 1_556 S
C861 C860 1.400 . S
C861 C862 1.398 . S
C862 H850 0.950 . S
C862 C861 1.398 . S
C862 C863 1.391 . S
C863 H851 0.950 . S
C863 C859 1.393 . S
C863 C862 1.391 . S
H864 C872 0.950 . S
H865 C877 0.950 . S
H866 C874 0.950 . S
H867 C876 0.950 . S
H868 C878 0.950 . S
H869 C880 0.950 . S
H870 C882 0.950 . S
H871 C883 0.950 . S
C872 H864 0.950 . S
C872 C873 1.386 . S
C872 C874 1.391 . S
C873 C872 1.386 . S
C873 C877 1.393 . S
C874 H866 0.950 . S
C874 C872 1.391 . S
C874 C875 1.400 . S
C875 C874 1.400 . S
C875 C876 1.398 . S
C875 C881 1.491 . S
C876 H867 0.950 . S
C876 C875 1.398 . S
C876 C877 1.391 . S
C877 H865 0.950 . S
C877 C873 1.393 . S
C877 C876 1.391 . S
C878 H868 0.950 . S
C878 C879 1.386 . S
C878 C880 1.391 . S
C879 C878 1.386 . S
C879 C883 1.393 . S
C880 H869 0.950 . S
C880 C878 1.391 . S
C880 C881 1.400 . S
C881 C875 1.491 . S
C881 C880 1.400 . S
C881 C882 1.398 . S
C882 H870 0.950 . S
C882 C881 1.398 . S
C882 C883 1.391 . S
C883 H871 0.950 . S
C883 C879 1.393 . S
C883 C882 1.391 . S
H884 C892 0.950 . S
H885 C897 0.950 . S
H886 C894 0.950 . S
H887 C896 0.950 . S
H888 C898 0.950 . S
H889 C900 0.950 . S
H890 C902 0.950 . S
H891 C903 0.950 . S
C892 H884 0.950 . S
C892 C893 1.386 . S
C892 C894 1.391 . S
C893 C892 1.386 . S
C893 C897 1.393 . S
C894 H886 0.950 . S
C894 C892 1.391 . S
C894 C895 1.400 . S
C895 C894 1.400 . S
C895 C896 1.398 . S
C895 C901 1.491 . S
C896 H887 0.950 . S
C896 C895 1.398 . S
C896 C897 1.391 . S
C897 H885 0.950 . S
C897 C893 1.393 . S
C897 C896 1.391 . S
C898 H888 0.950 . S
C898 C899 1.386 . S
C898 C900 1.391 . S
C899 C898 1.386 . S
C899 C903 1.393 . S
C900 H889 0.950 . S
C900 C898 1.391 . S
C900 C901 1.400 . S
C901 C895 1.491 . S
C901 C900 1.400 . S
C901 C902 1.398 . S
C902 H890 0.950 . S
C902 C901 1.398 . S
C902 C903 1.391 . S
C903 H891 0.950 . S
C903 C899 1.393 . S
C903 C902 1.391 . S
H904 C912 0.950 . S
H905 C917 0.950 . S
H906 C914 0.950 . S
H907 C916 0.950 . S
H908 C918 0.950 . S
H909 C920 0.950 . S
H910 C922 0.950 . S
H911 C923 0.950 . S
C912 H904 0.950 . S
C912 C913 1.386 . S
C912 C914 1.391 . S
C913 C912 1.386 . S
C913 C917 1.393 . S
C914 H906 0.950 . S
C914 C912 1.391 . S
C914 C915 1.400 . S
C915 C914 1.400 . S
C915 C916 1.398 . S
C915 C921 1.491 . S
C916 H907 0.950 . S
C916 C915 1.398 . S
C916 C917 1.391 . S
C917 H905 0.950 . S
C917 C913 1.393 . S
C917 C916 1.391 . S
C918 H908 0.950 . S
C918 C919 1.386 . S
C918 C920 1.391 . S
C919 C918 1.386 . S
C919 C923 1.393 . S
C920 H909 0.950 . S
C920 C918 1.391 . S
C920 C921 1.400 . S
C921 C915 1.491 . S
C921 C920 1.400 . S
C921 C922 1.398 . S
C922 H910 0.950 . S
C922 C921 1.398 . S
C922 C923 1.391 . S
C923 H911 0.950 . S
C923 C919 1.393 . S
C923 C922 1.391 . S
H924 C932 0.950 . S
H925 C937 0.950 . S
H926 C934 0.950 . S
H927 C936 0.950 . S
H928 C938 0.950 . S
H929 C940 0.950 . S
H930 C942 0.950 . S
H931 C943 0.950 . S
C932 H924 0.950 . S
C932 C933 1.386 . S
C932 C934 1.391 . S
C933 C932 1.386 . S
C933 C937 1.393 . S
C934 H926 0.950 . S
C934 C932 1.391 . S
C934 C935 1.400 . S
C935 C934 1.400 . S
C935 C936 1.398 . S
C935 C941 1.491 . S
C936 H927 0.950 . S
C936 C935 1.398 . S
C936 C937 1.391 . S
C937 H925 0.950 . S
C937 C933 1.393 . S
C937 C936 1.391 . S
C938 H928 0.950 . S
C938 C939 1.386 . S
C938 C940 1.391 . S
C939 C938 1.386 . S
C939 C943 1.393 . S
C940 H929 0.950 . S
C940 C938 1.391 . S
C940 C941 1.400 . S
C941 C935 1.491 . S
C941 C940 1.400 . S
C941 C942 1.398 . S
C942 H930 0.950 . S
C942 C941 1.398 . S
C942 C943 1.391 . S
C943 H931 0.950 . S
C943 C939 1.393 . S
C943 C942 1.391 . S
H944 C952 0.950 . S
H945 C957 0.950 . S
H946 C954 0.950 . S
H947 C956 0.950 . S
H948 C958 0.950 . S
H949 C960 0.950 . S
H950 C962 0.950 . S
H951 C963 0.950 . S
C952 H944 0.950 . S
C952 C953 1.386 . S
C952 C954 1.391 . S
C953 C952 1.386 . S
C953 C957 1.393 . S
C954 H946 0.950 . S
C954 C952 1.391 . S
C954 C955 1.400 . S
C955 C954 1.400 . S
C955 C956 1.398 . S
C955 C961 1.491 . S
C956 H947 0.950 . S
C956 C955 1.398 . S
C956 C957 1.391 . S
C957 H945 0.950 . S
C957 C953 1.393 . S
C957 C956 1.391 . S
C958 H948 0.950 . S
C958 C959 1.386 . S
C958 C960 1.391 . S
C959 C958 1.386 . S
C959 C963 1.393 . S
C960 H949 0.950 . S
C960 C958 1.391 . S
C960 C961 1.400 . S
C961 C955 1.491 . S
C961 C960 1.400 . S
C961 C962 1.398 . S
C962 H950 0.950 . S
C962 C961 1.398 . S
C962 C963 1.391 . S
C963 H951 0.950 . S
C963 C959 1.393 . S
C963 C962 1.391 . S
H964 C972 0.950 . S
H965 C977 0.950 . S
H966 C974 0.950 . S
H967 C976 0.950 . S
H968 C978 0.950 . S
H969 C980 0.950 . S
H970 C982 0.950 . S
H971 C983 0.950 . S
C972 H964 0.950 . S
C972 C973 1.386 . S
C972 C974 1.391 . S
C973 C972 1.386 . S
C973 C977 1.393 . S
C974 H966 0.950 . S
C974 C972 1.391 . S
C974 C975 1.400 . S
C975 C974 1.400 . S
C975 C976 1.398 . S
C975 C981 1.491 . S
C976 H967 0.950 . S
C976 C975 1.398 . S
C976 C977 1.391 . S
C977 H965 0.950 . S
C977 C973 1.393 . S
C977 C976 1.391 . S
C978 H968 0.950 . S
C978 C979 1.386 . S
C978 C980 1.391 . S
C979 C978 1.386 . S
C979 C983 1.393 . S
C980 H969 0.950 . S
C980 C978 1.391 . S
C980 C981 1.400 . S
C981 C975 1.491 . S
C981 C980 1.400 . S
C981 C982 1.398 . S
C982 H970 0.950 . S
C982 C981 1.398 . S
C982 C983 1.391 . S
C983 H971 0.950 . S
C983 C979 1.393 . S
C983 C982 1.391 . S
H984 C992 0.950 . S
H985 C997 0.950 . S
H986 C994 0.950 . S
H987 C996 0.950 . S
H988 C998 0.950 . S
H989 C1000 0.950 . S
H990 C1002 0.950 . S
H991 C1003 0.950 . S
C992 H984 0.950 . S
C992 C993 1.386 . S
C992 C994 1.391 . S
C993 C992 1.386 . S
C993 C997 1.393 . S
C994 H986 0.950 . S
C994 C992 1.391 . S
C994 C995 1.400 . S
C995 C994 1.400 . S
C995 C996 1.398 . S
C995 C1001 1.491 . S
C996 H987 0.950 . S
C996 C995 1.398 . S
C996 C997 1.391 . S
C997 H985 0.950 . S
C997 C993 1.393 . S
C997 C996 1.391 . S
C998 H988 0.950 . S
C998 C999 1.386 . S
C998 C1000 1.391 . S
C999 C998 1.386 . S
C999 C1003 1.393 . S
C1000 H989 0.950 . S
C1000 C998 1.391 . S
C1000 C1001 1.400 . S
C1001 C995 1.491 . S
C1001 C1000 1.400 . S
C1001 C1002 1.398 . S
C1002 H990 0.950 . S
C1002 C1001 1.398 . S
C1002 C1003 1.391 . S
C1003 H991 0.950 . S
C1003 C999 1.393 . S
C1003 C1002 1.391 . S
H1004 C1012 0.950 . S
H1005 C1017 0.950 . S
H1006 C1014 0.950 . S
H1007 C1016 0.950 . S
H1008 C1018 0.950 . S
H1009 C1020 0.950 . S
H1010 C1022 0.950 . S
H1011 C1023 0.950 . S
C1012 H1004 0.950 . S
C1012 C1013 1.386 . S
C1012 C1014 1.391 . S
C1013 C1012 1.386 . S
C1013 C1017 1.393 . S
C1014 H1006 0.950 . S
C1014 C1012 1.391 . S
C1014 C1015 1.400 . S
C1015 C1014 1.400 . S
C1015 C1016 1.398 . S
C1015 C1021 1.491 . S
C1016 H1007 0.950 . S
C1016 C1015 1.398 . S
C1016 C1017 1.391 . S
C1017 H1005 0.950 . S
C1017 C1013 1.393 . S
C1017 C1016 1.391 . S
C1018 H1008 0.950 . S
C1018 C1019 1.386 . S
C1018 C1020 1.391 . S
C1019 C1018 1.386 . S
C1019 C1023 1.393 . S
C1020 H1009 0.950 . S
C1020 C1018 1.391 . S
C1020 C1021 1.400 . S
C1021 C1015 1.491 . S
C1021 C1020 1.400 . S
C1021 C1022 1.398 . S
C1022 H1010 0.950 . S
C1022 C1021 1.398 . S
C1022 C1023 1.391 . S
C1023 H1011 0.950 . S
C1023 C1019 1.393 . S
C1023 C1022 1.391 . S
H1024 C1032 0.950 . S
H1025 C1037 0.950 . S
H1026 C1034 0.950 . S
H1027 C1036 0.950 . S
H1028 C1038 0.950 . S
H1029 C1040 0.950 . S
H1030 C1042 0.950 . S
H1031 C1043 0.950 . S
C1032 H1024 0.950 . S
C1032 C1033 1.386 . S
C1032 C1034 1.391 . S
C1033 C1032 1.386 . S
C1033 C1037 1.393 . S
C1034 H1026 0.950 . S
C1034 C1032 1.391 . S
C1034 C1035 1.400 . S
C1035 C1034 1.400 . S
C1035 C1036 1.398 . S
C1035 C1041 1.491 . S
C1036 H1027 0.950 . S
C1036 C1035 1.398 . S
C1036 C1037 1.391 . S
C1037 H1025 0.950 . S
C1037 C1033 1.393 . S
C1037 C1036 1.391 . S
C1038 H1028 0.950 . S
C1038 C1039 1.386 . S
C1038 C1040 1.391 . S
C1039 C1038 1.386 . S
C1039 C1043 1.393 . S
C1040 H1029 0.950 . S
C1040 C1038 1.391 . S
C1040 C1041 1.400 . S
C1041 C1035 1.491 . S
C1041 C1040 1.400 . S
C1041 C1042 1.398 . S
C1042 H1030 0.950 . S
C1042 C1041 1.398 . S
C1042 C1043 1.391 . S
C1043 H1031 0.950 . S
C1043 C1039 1.393 . S
C1043 C1042 1.391 . S
H1044 C1052 0.950 . S
H1045 C1057 0.950 . S
H1046 C1054 0.950 . S
H1047 C1056 0.950 . S
H1048 C1058 0.950 . S
H1049 C1060 0.950 . S
H1050 C1062 0.950 . S
H1051 C1063 0.950 . S
C1052 H1044 0.950 . S
C1052 C1053 1.386 . S
C1052 C1054 1.391 . S
C1053 C1052 1.386 . S
C1053 C1057 1.393 . S
C1054 H1046 0.950 . S
C1054 C1052 1.391 . S
C1054 C1055 1.400 . S
C1055 C1054 1.400 . S
C1055 C1056 1.398 . S
C1055 C1061 1.491 . S
C1056 H1047 0.950 . S
C1056 C1055 1.398 . S
C1056 C1057 1.391 . S
C1057 H1045 0.950 . S
C1057 C1053 1.393 . S
C1057 C1056 1.391 . S
C1058 H1048 0.950 . S
C1058 C1059 1.386 . S
C1058 C1060 1.391 . S
C1059 C1058 1.386 . S
C1059 C1063 1.393 . S
C1060 H1049 0.950 . S
C1060 C1058 1.391 . S
C1060 C1061 1.400 . S
C1061 C1055 1.491 . S
C1061 C1060 1.400 . S
C1061 C1062 1.398 . S
C1062 H1050 0.950 . S
C1062 C1061 1.398 . S
C1062 C1063 1.391 . S
C1063 H1051 0.950 . S
C1063 C1059 1.393 . S
C1063 C1062 1.391 . S
H1064 C1072 0.950 . S
H1065 C1077 0.950 . S
H1066 C1074 0.950 . S
H1067 C1076 0.950 . S
H1068 C1078 0.950 . S
H1069 C1080 0.950 . S
H1070 C1082 0.950 . S
H1071 C1083 0.950 . S
C1072 H1064 0.950 . S
C1072 C1073 1.386 . S
C1072 C1074 1.391 . S
C1073 C1072 1.386 . S
C1073 C1077 1.393 . S
C1074 H1066 0.950 . S
C1074 C1072 1.391 . S
C1074 C1075 1.400 . S
C1075 C1074 1.400 . S
C1075 C1076 1.398 . S
C1075 C1081 1.491 . S
C1076 H1067 0.950 . S
C1076 C1075 1.398 . S
C1076 C1077 1.391 . S
C1077 H1065 0.950 . S
C1077 C1073 1.393 . S
C1077 C1076 1.391 . S
C1078 H1068 0.950 . S
C1078 C1079 1.386 . S
C1078 C1080 1.391 . S
C1079 C1078 1.386 . S
C1079 C1083 1.393 . S
C1080 H1069 0.950 . S
C1080 C1078 1.391 . S
C1080 C1081 1.400 . S
C1081 C1075 1.491 . S
C1081 C1080 1.400 . S
C1081 C1082 1.398 . S
C1082 H1070 0.950 . S
C1082 C1081 1.398 . S
C1082 C1083 1.391 . S
C1083 H1071 0.950 . S
C1083 C1079 1.393 . S
C1083 C1082 1.391 . S
H1084 C1092 0.950 . S
H1085 C1097 0.950 . S
H1086 C1094 0.950 . S
H1087 C1096 0.950 . S
H1088 C1098 0.950 . S
H1089 C1100 0.950 . S
H1090 C1102 0.950 . S
H1091 C1103 0.950 . S
C1092 H1084 0.950 . S
C1092 C1093 1.386 . S
C1092 C1094 1.391 . S
C1093 C1092 1.386 . S
C1093 C1097 1.393 . S
C1094 H1086 0.950 . S
C1094 C1092 1.391 . S
C1094 C1095 1.400 . S
C1095 C1094 1.400 . S
C1095 C1096 1.398 . S
C1095 C1101 1.491 . S
C1096 H1087 0.950 . S
C1096 C1095 1.398 . S
C1096 C1097 1.391 . S
C1097 H1085 0.950 . S
C1097 C1093 1.393 . S
C1097 C1096 1.391 . S
C1098 H1088 0.950 . S
C1098 C1099 1.386 . S
C1098 C1100 1.391 . S
C1099 C1098 1.386 . S
C1099 C1103 1.393 . S
C1100 H1089 0.950 . S
C1100 C1098 1.391 . S
C1100 C1101 1.400 . S
C1101 C1095 1.491 . S
C1101 C1100 1.400 . S
C1101 C1102 1.398 . S
C1102 H1090 0.950 . S
C1102 C1101 1.398 . S
C1102 C1103 1.391 . S
C1103 H1091 0.950 . S
C1103 C1099 1.393 . S
C1103 C1102 1.391 . S
H1104 C1112 0.950 . S
H1105 C1117 0.950 . S
H1106 C1114 0.950 1_554 S
H1107 C1116 0.950 . S
H1108 C1118 0.950 . S
H1109 C1120 0.950 1_556 S
H1110 C1122 0.950 . S
H1111 C1123 0.950 . S
C1112 H1104 0.950 . S
C1112 C1113 1.386 . S
C1112 C1114 1.391 . S
C1113 C1112 1.386 . S
C1113 C1117 1.393 1_565 S
C1114 H1106 0.950 1_556 S
C1114 C1112 1.391 . S
C1114 C1115 1.400 . S
C1115 C1114 1.400 . S
C1115 C1116 1.398 1_565 S
C1115 C1121 1.491 1_566 S
C1116 H1107 0.950 . S
C1116 C1115 1.398 1_545 S
C1116 C1117 1.391 . S
C1117 H1105 0.950 . S
C1117 C1113 1.393 1_545 S
C1117 C1116 1.391 . S
C1118 H1108 0.950 . S
C1118 C1119 1.386 . S
C1118 C1120 1.391 . S
C1119 C1118 1.386 . S
C1119 C1123 1.393 1_545 S
C1120 H1109 0.950 1_554 S
C1120 C1118 1.391 . S
C1120 C1121 1.400 . S
C1121 C1115 1.491 1_544 S
C1121 C1120 1.400 . S
C1121 C1122 1.398 1_545 S
C1122 H1110 0.950 . S
C1122 C1121 1.398 1_565 S
C1122 C1123 1.391 . S
C1123 H1111 0.950 . S
C1123 C1119 1.393 1_565 S
C1123 C1122 1.391 . S
H1124 C1132 0.950 . S
H1125 C1137 0.950 . S
H1126 C1134 0.950 . S
H1127 C1136 0.950 . S
H1128 C1138 0.950 . S
H1129 C1140 0.950 . S
H1130 C1142 0.950 . S
H1131 C1143 0.950 . S
C1132 H1124 0.950 . S
C1132 C1133 1.386 . S
C1132 C1134 1.391 . S
C1133 C1132 1.386 . S
C1133 C1137 1.393 . S
C1134 H1126 0.950 . S
C1134 C1132 1.391 . S
C1134 C1135 1.400 . S
C1135 C1134 1.400 . S
C1135 C1136 1.398 . S
C1135 C1141 1.491 1_556 S
C1136 H1127 0.950 . S
C1136 C1135 1.398 . S
C1136 C1137 1.391 . S
C1137 H1125 0.950 . S
C1137 C1133 1.393 . S
C1137 C1136 1.391 . S
C1138 H1128 0.950 . S
C1138 C1139 1.386 . S
C1138 C1140 1.391 . S
C1139 C1138 1.386 . S
C1139 C1143 1.393 . S
C1140 H1129 0.950 . S
C1140 C1138 1.391 . S
C1140 C1141 1.400 . S
C1141 C1135 1.491 1_554 S
C1141 C1140 1.400 . S
C1141 C1142 1.398 . S
C1142 H1130 0.950 . S
C1142 C1141 1.398 . S
C1142 C1143 1.391 . S
C1143 H1131 0.950 . S
C1143 C1139 1.393 . S
C1143 C1142 1.391 . S
H1144 C1152 0.950 . S
H1145 C1157 0.950 . S
H1146 C1154 0.950 1_554 S
H1147 C1156 0.950 1_655 S
H1148 C1158 0.950 . S
H1149 C1160 0.950 1_556 S
H1150 C1162 0.950 1_455 S
H1151 C1163 0.950 . S
C1152 H1144 0.950 . S
C1152 C1153 1.386 . S
C1152 C1154 1.391 . S
C1153 C1152 1.386 . S
C1153 C1157 1.393 . S
C1154 H1146 0.950 1_556 S
C1154 C1152 1.391 . S
C1154 C1155 1.400 . S
C1155 C1154 1.400 . S
C1155 C1156 1.398 . S
C1155 C1161 1.491 1_456 S
C1156 H1147 0.950 1_455 S
C1156 C1155 1.398 . S
C1156 C1157 1.391 . S
C1157 H1145 0.950 . S
C1157 C1153 1.393 . S
C1157 C1156 1.391 . S
C1158 H1148 0.950 . S
C1158 C1159 1.386 . S
C1158 C1160 1.391 . S
C1159 C1158 1.386 . S
C1159 C1163 1.393 . S
C1160 H1149 0.950 1_554 S
C1160 C1158 1.391 . S
C1160 C1161 1.400 . S
C1161 C1155 1.491 1_654 S
C1161 C1160 1.400 . S
C1161 C1162 1.398 . S
C1162 H1150 0.950 1_655 S
C1162 C1161 1.398 . S
C1162 C1163 1.391 . S
C1163 H1151 0.950 . S
C1163 C1159 1.393 . S
C1163 C1162 1.391 . S
H1164 C1172 0.950 . S
H1165 C1177 0.950 . S
H1166 C1174 0.950 . S
H1167 C1176 0.950 1_554 S
H1168 C1178 0.950 . S
H1169 C1180 0.950 . S
H1170 C1182 0.950 1_556 S
H1171 C1183 0.950 . S
C1172 H1164 0.950 . S
C1172 C1173 1.386 1_455 S
C1172 C1174 1.391 . S
C1173 C1172 1.386 1_655 S
C1173 C1177 1.393 . S
C1174 H1166 0.950 . S
C1174 C1172 1.391 . S
C1174 C1175 1.400 1_455 S
C1175 C1174 1.400 1_655 S
C1175 C1176 1.398 . S
C1175 C1181 1.491 1_646 S
C1176 H1167 0.950 1_556 S
C1176 C1175 1.398 . S
C1176 C1177 1.391 . S
C1177 H1165 0.950 . S
C1177 C1173 1.393 . S
C1177 C1176 1.391 . S
C1178 H1168 0.950 . S
C1178 C1179 1.386 1_655 S
C1178 C1180 1.391 . S
C1179 C1178 1.386 1_455 S
C1179 C1183 1.393 . S
C1180 H1169 0.950 . S
C1180 C1178 1.391 . S
C1180 C1181 1.400 1_655 S
C1181 C1175 1.491 1_464 S
C1181 C1180 1.400 1_455 S
C1181 C1182 1.398 . S
C1182 H1170 0.950 1_554 S
C1182 C1181 1.398 . S
C1182 C1183 1.391 . S
C1183 H1171 0.950 . S
C1183 C1179 1.393 . S
C1183 C1182 1.391 . S
H1184 C1192 0.950 . S
H1185 C1197 0.950 . S
H1186 C1194 0.950 . S
H1187 C1196 0.950 . S
H1188 C1198 0.950 . S
H1189 C1200 0.950 . S
H1190 C1202 0.950 . S
H1191 C1203 0.950 . S
C1192 H1184 0.950 . S
C1192 C1193 1.386 . S
C1192 C1194 1.391 . S
C1193 C1192 1.386 . S
C1193 C1197 1.393 . S
C1194 H1186 0.950 . S
C1194 C1192 1.391 . S
C1194 C1195 1.400 . S
C1195 C1194 1.400 . S
C1195 C1196 1.398 . S
C1195 C1201 1.491 . S
C1196 H1187 0.950 . S
C1196 C1195 1.398 . S
C1196 C1197 1.391 . S
C1197 H1185 0.950 . S
C1197 C1193 1.393 . S
C1197 C1196 1.391 . S
C1198 H1188 0.950 . S
C1198 C1199 1.386 . S
C1198 C1200 1.391 . S
C1199 C1198 1.386 . S
C1199 C1203 1.393 . S
C1200 H1189 0.950 . S
C1200 C1198 1.391 . S
C1200 C1201 1.400 . S
C1201 C1195 1.491 . S
C1201 C1200 1.400 . S
C1201 C1202 1.398 . S
C1202 H1190 0.950 . S
C1202 C1201 1.398 . S
C1202 C1203 1.391 . S
C1203 H1191 0.950 . S
C1203 C1199 1.393 . S
C1203 C1202 1.391 . S
H1204 C1212 0.950 . S
H1205 C1217 0.950 . S
H1206 C1214 0.950 . S
H1207 C1216 0.950 . S
H1208 C1218 0.950 . S
H1209 C1220 0.950 . S
H1210 C1222 0.950 . S
H1211 C1223 0.950 . S
C1212 H1204 0.950 . S
C1212 C1213 1.386 . S
C1212 C1214 1.391 . S
C1213 C1212 1.386 . S
C1213 C1217 1.393 1_455 S
C1214 H1206 0.950 . S
C1214 C1212 1.391 . S
C1214 C1215 1.400 . S
C1215 C1214 1.400 . S
C1215 C1216 1.398 1_455 S
C1215 C1221 1.491 1_455 S
C1216 H1207 0.950 . S
C1216 C1215 1.398 1_655 S
C1216 C1217 1.391 . S
C1217 H1205 0.950 . S
C1217 C1213 1.393 1_655 S
C1217 C1216 1.391 . S
C1218 H1208 0.950 . S
C1218 C1219 1.386 . S
C1218 C1220 1.391 . S
C1219 C1218 1.386 . S
C1219 C1223 1.393 1_655 S
C1220 H1209 0.950 . S
C1220 C1218 1.391 . S
C1220 C1221 1.400 . S
C1221 C1215 1.491 1_655 S
C1221 C1220 1.400 . S
C1221 C1222 1.398 1_655 S
C1222 H1210 0.950 . S
C1222 C1221 1.398 1_455 S
C1222 C1223 1.391 . S
C1223 H1211 0.950 . S
C1223 C1219 1.393 1_455 S
C1223 C1222 1.391 . S
H1224 C1232 0.950 . S
H1225 C1237 0.950 . S
H1226 C1234 0.950 . S
H1227 C1236 0.950 . S
H1228 C1238 0.950 . S
H1229 C1240 0.950 . S
H1230 C1242 0.950 . S
H1231 C1243 0.950 . S
C1232 H1224 0.950 . S
C1232 C1233 1.386 1_565 S
C1232 C1234 1.391 . S
C1233 C1232 1.386 1_545 S
C1233 C1237 1.393 . S
C1234 H1226 0.950 . S
C1234 C1232 1.391 . S
C1234 C1235 1.400 1_565 S
C1235 C1234 1.400 1_545 S
C1235 C1236 1.398 . S
C1235 C1241 1.491 1_645 S
C1236 H1227 0.950 . S
C1236 C1235 1.398 . S
C1236 C1237 1.391 . S
C1237 H1225 0.950 . S
C1237 C1233 1.393 . S
C1237 C1236 1.391 . S
C1238 H1228 0.950 . S
C1238 C1239 1.386 1_545 S
C1238 C1240 1.391 . S
C1239 C1238 1.386 1_565 S
C1239 C1243 1.393 . S
C1240 H1229 0.950 . S
C1240 C1238 1.391 . S
C1240 C1241 1.400 1_545 S
C1241 C1235 1.491 1_465 S
C1241 C1240 1.400 1_565 S
C1241 C1242 1.398 . S
C1242 H1230 0.950 . S
C1242 C1241 1.398 . S
C1242 C1243 1.391 . S
C1243 H1231 0.950 . S
C1243 C1239 1.393 . S
C1243 C1242 1.391 . S
H1244 C1252 0.950 . S
H1245 C1257 0.950 . S
H1246 C1254 0.950 . S
H1247 C1256 0.950 1_545 S
H1248 C1258 0.950 . S
H1249 C1260 0.950 . S
H1250 C1262 0.950 1_565 S
H1251 C1263 0.950 . S
C1252 H1244 0.950 . S
C1252 C1253 1.386 . S
C1252 C1254 1.391 . S
C1253 C1252 1.386 . S
C1253 C1257 1.393 . S
C1254 H1246 0.950 . S
C1254 C1252 1.391 . S
C1254 C1255 1.400 . S
C1255 C1254 1.400 . S
C1255 C1256 1.398 . S
C1255 C1261 1.491 1_565 S
C1256 H1247 0.950 1_565 S
C1256 C1255 1.398 . S
C1256 C1257 1.391 . S
C1257 H1245 0.950 . S
C1257 C1253 1.393 . S
C1257 C1256 1.391 . S
C1258 H1248 0.950 . S
C1258 C1259 1.386 . S
C1258 C1260 1.391 . S
C1259 C1258 1.386 . S
C1259 C1263 1.393 . S
C1260 H1249 0.950 . S
C1260 C1258 1.391 . S
C1260 C1261 1.400 . S
C1261 C1255 1.491 1_545 S
C1261 C1260 1.400 . S
C1261 C1262 1.398 . S
C1262 H1250 0.950 1_545 S
C1262 C1261 1.398 . S
C1262 C1263 1.391 . S
C1263 H1251 0.950 . S
C1263 C1259 1.393 . S
C1263 C1262 1.391 . S
H1264 C1272 0.950 . S
H1265 C1277 0.950 . S
H1266 C1274 0.950 . S
H1267 C1276 0.950 . S
H1268 C1278 0.950 . S
H1269 C1280 0.950 . S
H1270 C1282 0.950 . S
H1271 C1283 0.950 . S
C1272 H1264 0.950 . S
C1272 C1273 1.386 . S
C1272 C1274 1.391 . S
C1273 C1272 1.386 . S
C1273 C1277 1.393 . S
C1274 H1266 0.950 . S
C1274 C1272 1.391 . S
C1274 C1275 1.400 . S
C1275 C1274 1.400 . S
C1275 C1276 1.398 . S
C1275 C1281 1.491 . S
C1276 H1267 0.950 . S
C1276 C1275 1.398 . S
C1276 C1277 1.391 . S
C1277 H1265 0.950 . S
C1277 C1273 1.393 . S
C1277 C1276 1.391 . S
C1278 H1268 0.950 . S
C1278 C1279 1.386 . S
C1278 C1280 1.391 . S
C1279 C1278 1.386 . S
C1279 C1283 1.393 . S
C1280 H1269 0.950 . S
C1280 C1278 1.391 . S
C1280 C1281 1.400 . S
C1281 C1275 1.491 . S
C1281 C1280 1.400 . S
C1281 C1282 1.398 . S
C1282 H1270 0.950 . S
C1282 C1281 1.398 . S
C1282 C1283 1.391 . S
C1283 H1271 0.950 . S
C1283 C1279 1.393 . S
C1283 C1282 1.391 . S
H1284 C1292 0.950 . S
H1285 C1297 0.950 . S
H1286 C1294 0.950 . S
H1287 C1296 0.950 . S
H1288 C1298 0.950 . S
H1289 C1300 0.950 . S
H1290 C1302 0.950 . S
H1291 C1303 0.950 . S
C1292 H1284 0.950 . S
C1292 C1293 1.386 . S
C1292 C1294 1.391 . S
C1293 C1292 1.386 . S
C1293 C1297 1.393 . S
C1294 H1286 0.950 . S
C1294 C1292 1.391 . S
C1294 C1295 1.400 . S
C1295 C1294 1.400 . S
C1295 C1296 1.398 . S
C1295 C1301 1.491 . S
C1296 H1287 0.950 . S
C1296 C1295 1.398 . S
C1296 C1297 1.391 . S
C1297 H1285 0.950 . S
C1297 C1293 1.393 . S
C1297 C1296 1.391 . S
C1298 H1288 0.950 . S
C1298 C1299 1.386 . S
C1298 C1300 1.391 . S
C1299 C1298 1.386 . S
C1299 C1303 1.393 . S
C1300 H1289 0.950 . S
C1300 C1298 1.391 . S
C1300 C1301 1.400 . S
C1301 C1295 1.491 . S
C1301 C1300 1.400 . S
C1301 C1302 1.398 . S
C1302 H1290 0.950 . S
C1302 C1301 1.398 . S
C1302 C1303 1.391 . S
C1303 H1291 0.950 . S
C1303 C1299 1.393 . S
C1303 C1302 1.391 . S
H1304 C1312 0.950 . S
H1305 C1317 0.950 1_455 S
H1306 C1314 0.950 . S
H1307 C1316 0.950 . S
H1308 C1318 0.950 . S
H1309 C1320 0.950 . S
H1310 C1322 0.950 . S
H1311 C1323 0.950 . S
C1312 H1304 0.950 . S
C1312 C1313 1.386 . S
C1312 C1314 1.391 . S
C1313 C1312 1.386 . S
C1313 C1317 1.393 . S
C1314 H1306 0.950 . S
C1314 C1312 1.391 . S
C1314 C1315 1.400 . S
C1315 C1314 1.400 . S
C1315 C1316 1.398 . S
C1315 C1321 1.491 . S
C1316 H1307 0.950 . S
C1316 C1315 1.398 . S
C1316 C1317 1.391 . S
C1317 H1305 0.950 1_655 S
C1317 C1313 1.393 . S
C1317 C1316 1.391 . S
C1318 H1308 0.950 . S
C1318 C1319 1.386 . S
C1318 C1320 1.391 . S
C1319 C1318 1.386 . S
C1319 C1323 1.393 . S
C1320 H1309 0.950 . S
C1320 C1318 1.391 . S
C1320 C1321 1.400 . S
C1321 C1315 1.491 . S
C1321 C1320 1.400 . S
C1321 C1322 1.398 . S
C1322 H1310 0.950 . S
C1322 C1321 1.398 . S
C1322 C1323 1.391 . S
C1323 H1311 0.950 . S
C1323 C1319 1.393 . S
C1323 C1322 1.391 . S
H1324 C1332 0.950 . S
H1325 C1337 0.950 1_545 S
H1326 C1334 0.950 . S
H1327 C1336 0.950 . S
H1328 C1338 0.950 . S
H1329 C1340 0.950 . S
H1330 C1342 0.950 . S
H1331 C1343 0.950 . S
C1332 H1324 0.950 . S
C1332 C1333 1.386 . S
C1332 C1334 1.391 . S
C1333 C1332 1.386 . S
C1333 C1337 1.393 . S
C1334 H1326 0.950 . S
C1334 C1332 1.391 . S
C1334 C1335 1.400 . S
C1335 C1334 1.400 . S
C1335 C1336 1.398 . S
C1335 C1341 1.491 . S
C1336 H1327 0.950 . S
C1336 C1335 1.398 . S
C1336 C1337 1.391 . S
C1337 H1325 0.950 1_565 S
C1337 C1333 1.393 . S
C1337 C1336 1.391 . S
C1338 H1328 0.950 . S
C1338 C1339 1.386 . S
C1338 C1340 1.391 . S
C1339 C1338 1.386 . S
C1339 C1343 1.393 . S
C1340 H1329 0.950 . S
C1340 C1338 1.391 . S
C1340 C1341 1.400 . S
C1341 C1335 1.491 . S
C1341 C1340 1.400 . S
C1341 C1342 1.398 . S
C1342 H1330 0.950 . S
C1342 C1341 1.398 . S
C1342 C1343 1.391 . S
C1343 H1331 0.950 . S
C1343 C1339 1.393 . S
C1343 C1342 1.391 . S
H1344 C1352 0.950 . S
H1345 C1357 0.950 . S
H1346 C1354 0.950 . S
H1347 C1356 0.950 . S
H1348 C1358 0.950 . S
H1349 C1360 0.950 . S
H1350 C1362 0.950 . S
H1351 C1363 0.950 . S
C1352 H1344 0.950 . S
C1352 C1353 1.386 . S
C1352 C1354 1.391 . S
C1353 C1352 1.386 . S
C1353 C1357 1.393 . S
C1354 H1346 0.950 . S
C1354 C1352 1.391 . S
C1354 C1355 1.400 . S
C1355 C1354 1.400 . S
C1355 C1356 1.398 . S
C1355 C1361 1.491 . S
C1356 H1347 0.950 . S
C1356 C1355 1.398 . S
C1356 C1357 1.391 . S
C1357 H1345 0.950 . S
C1357 C1353 1.393 . S
C1357 C1356 1.391 . S
C1358 H1348 0.950 . S
C1358 C1359 1.386 . S
C1358 C1360 1.391 . S
C1359 C1358 1.386 . S
C1359 C1363 1.393 . S
C1360 H1349 0.950 . S
C1360 C1358 1.391 . S
C1360 C1361 1.400 . S
C1361 C1355 1.491 . S
C1361 C1360 1.400 . S
C1361 C1362 1.398 . S
C1362 H1350 0.950 . S
C1362 C1361 1.398 . S
C1362 C1363 1.391 . S
C1363 H1351 0.950 . S
C1363 C1359 1.393 . S
C1363 C1362 1.391 . S
H1364 C1372 0.950 . S
H1365 C1377 0.950 . S
H1366 C1374 0.950 . S
H1367 C1376 0.950 . S
H1368 C1378 0.950 . S
H1369 C1380 0.950 . S
H1370 C1382 0.950 . S
H1371 C1383 0.950 . S
C1372 H1364 0.950 . S
C1372 C1373 1.386 . S
C1372 C1374 1.391 . S
C1373 C1372 1.386 . S
C1373 C1377 1.393 . S
C1374 H1366 0.950 . S
C1374 C1372 1.391 . S
C1374 C1375 1.400 . S
C1375 C1374 1.400 . S
C1375 C1376 1.398 . S
C1375 C1381 1.491 . S
C1376 H1367 0.950 . S
C1376 C1375 1.398 . S
C1376 C1377 1.391 . S
C1377 H1365 0.950 . S
C1377 C1373 1.393 . S
C1377 C1376 1.391 . S
C1378 H1368 0.950 . S
C1378 C1379 1.386 . S
C1378 C1380 1.391 . S
C1379 C1378 1.386 . S
C1379 C1383 1.393 . S
C1380 H1369 0.950 . S
C1380 C1378 1.391 . S
C1380 C1381 1.400 . S
C1381 C1375 1.491 . S
C1381 C1380 1.400 . S
C1381 C1382 1.398 . S
C1382 H1370 0.950 . S
C1382 C1381 1.398 . S
C1382 C1383 1.391 . S
C1383 H1371 0.950 . S
C1383 C1379 1.393 . S
C1383 C1382 1.391 . S
H1384 C1392 0.950 . S
H1385 C1397 0.950 . S
H1386 C1394 0.950 . S
H1387 C1396 0.950 . S
H1388 C1398 0.950 . S
H1389 C1400 0.950 . S
H1390 C1402 0.950 . S
H1391 C1403 0.950 . S
C1392 H1384 0.950 . S
C1392 C1393 1.386 . S
C1392 C1394 1.391 . S
C1393 C1392 1.386 . S
C1393 C1397 1.393 . S
C1394 H1386 0.950 . S
C1394 C1392 1.391 . S
C1394 C1395 1.400 . S
C1395 C1394 1.400 . S
C1395 C1396 1.398 . S
C1395 C1401 1.491 . S
C1396 H1387 0.950 . S
C1396 C1395 1.398 . S
C1396 C1397 1.391 . S
C1397 H1385 0.950 . S
C1397 C1393 1.393 . S
C1397 C1396 1.391 . S
C1398 H1388 0.950 . S
C1398 C1399 1.386 . S
C1398 C1400 1.391 . S
C1399 C1398 1.386 . S
C1399 C1403 1.393 . S
C1400 H1389 0.950 . S
C1400 C1398 1.391 . S
C1400 C1401 1.400 . S
C1401 C1395 1.491 . S
C1401 C1400 1.400 . S
C1401 C1402 1.398 . S
C1402 H1390 0.950 . S
C1402 C1401 1.398 . S
C1402 C1403 1.391 . S
C1403 H1391 0.950 . S
C1403 C1399 1.393 . S
C1403 C1402 1.391 . S
H1404 C1412 0.950 . S
H1405 C1417 0.950 . S
H1406 C1414 0.950 . S
H1407 C1416 0.950 . S
H1408 C1418 0.950 1_545 S
H1409 C1420 0.950 . S
H1410 C1422 0.950 . S
H1411 C1423 0.950 . S
C1412 H1404 0.950 . S
C1412 C1413 1.386 . S
C1412 C1414 1.391 . S
C1413 C1412 1.386 . S
C1413 C1417 1.393 . S
C1414 H1406 0.950 . S
C1414 C1412 1.391 . S
C1414 C1415 1.400 . S
C1415 C1414 1.400 . S
C1415 C1416 1.398 . S
C1415 C1421 1.491 . S
C1416 H1407 0.950 . S
C1416 C1415 1.398 . S
C1416 C1417 1.391 . S
C1417 H1405 0.950 . S
C1417 C1413 1.393 . S
C1417 C1416 1.391 . S
C1418 H1408 0.950 1_565 S
C1418 C1419 1.386 . S
C1418 C1420 1.391 . S
C1419 C1418 1.386 . S
C1419 C1423 1.393 . S
C1420 H1409 0.950 . S
C1420 C1418 1.391 . S
C1420 C1421 1.400 . S
C1421 C1415 1.491 . S
C1421 C1420 1.400 . S
C1421 C1422 1.398 . S
C1422 H1410 0.950 . S
C1422 C1421 1.398 . S
C1422 C1423 1.391 . S
C1423 H1411 0.950 . S
C1423 C1419 1.393 . S
C1423 C1422 1.391 . S
H1424 C1432 0.950 . S
H1425 C1437 0.950 . S
H1426 C1434 0.950 . S
H1427 C1436 0.950 . S
H1428 C1438 0.950 . S
H1429 C1440 0.950 . S
H1430 C1442 0.950 . S
H1431 C1443 0.950 . S
C1432 H1424 0.950 . S
C1432 C1433 1.386 . S
C1432 C1434 1.391 . S
C1433 C1432 1.386 . S
C1433 C1437 1.393 . S
C1434 H1426 0.950 . S
C1434 C1432 1.391 . S
C1434 C1435 1.400 . S
C1435 C1434 1.400 . S
C1435 C1436 1.398 . S
C1435 C1441 1.491 . S
C1436 H1427 0.950 . S
C1436 C1435 1.398 . S
C1436 C1437 1.391 . S
C1437 H1425 0.950 . S
C1437 C1433 1.393 . S
C1437 C1436 1.391 . S
C1438 H1428 0.950 . S
C1438 C1439 1.386 . S
C1438 C1440 1.391 . S
C1439 C1438 1.386 . S
C1439 C1443 1.393 . S
C1440 H1429 0.950 . S
C1440 C1438 1.391 . S
C1440 C1441 1.400 . S
C1441 C1435 1.491 . S
C1441 C1440 1.400 . S
C1441 C1442 1.398 . S
C1442 H1430 0.950 . S
C1442 C1441 1.398 . S
C1442 C1443 1.391 . S
C1443 H1431 0.950 . S
C1443 C1439 1.393 . S
C1443 C1442 1.391 . S
H1444 C1452 0.950 . S
H1445 C1457 0.950 . S
H1446 C1454 0.950 . S
H1447 C1456 0.950 . S
H1448 C1458 0.950 . S
H1449 C1460 0.950 . S
H1450 C1462 0.950 . S
H1451 C1463 0.950 . S
C1452 H1444 0.950 . S
C1452 C1453 1.386 . S
C1452 C1454 1.391 . S
C1453 C1452 1.386 . S
C1453 C1457 1.393 . S
C1454 H1446 0.950 . S
C1454 C1452 1.391 . S
C1454 C1455 1.400 . S
C1455 C1454 1.400 . S
C1455 C1456 1.398 . S
C1455 C1461 1.491 . S
C1456 H1447 0.950 . S
C1456 C1455 1.398 . S
C1456 C1457 1.391 . S
C1457 H1445 0.950 . S
C1457 C1453 1.393 . S
C1457 C1456 1.391 . S
C1458 H1448 0.950 . S
C1458 C1459 1.386 . S
C1458 C1460 1.391 . S
C1459 C1458 1.386 . S
C1459 C1463 1.393 . S
C1460 H1449 0.950 . S
C1460 C1458 1.391 . S
C1460 C1461 1.400 . S
C1461 C1455 1.491 . S
C1461 C1460 1.400 . S
C1461 C1462 1.398 . S
C1462 H1450 0.950 . S
C1462 C1461 1.398 . S
C1462 C1463 1.391 . S
C1463 H1451 0.950 . S
C1463 C1459 1.393 . S
C1463 C1462 1.391 . S
H1464 C1472 0.950 . S
H1465 C1477 0.950 . S
H1466 C1474 0.950 . S
H1467 C1476 0.950 . S
H1468 C1478 0.950 1_655 S
H1469 C1480 0.950 . S
H1470 C1482 0.950 . S
H1471 C1483 0.950 . S
C1472 H1464 0.950 . S
C1472 C1473 1.386 . S
C1472 C1474 1.391 . S
C1473 C1472 1.386 . S
C1473 C1477 1.393 . S
C1474 H1466 0.950 . S
C1474 C1472 1.391 . S
C1474 C1475 1.400 . S
C1475 C1474 1.400 . S
C1475 C1476 1.398 . S
C1475 C1481 1.491 . S
C1476 H1467 0.950 . S
C1476 C1475 1.398 . S
C1476 C1477 1.391 . S
C1477 H1465 0.950 . S
C1477 C1473 1.393 . S
C1477 C1476 1.391 . S
C1478 H1468 0.950 1_455 S
C1478 C1479 1.386 . S
C1478 C1480 1.391 . S
C1479 C1478 1.386 . S
C1479 C1483 1.393 . S
C1480 H1469 0.950 . S
C1480 C1478 1.391 . S
C1480 C1481 1.400 . S
C1481 C1475 1.491 . S
C1481 C1480 1.400 . S
C1481 C1482 1.398 . S
C1482 H1470 0.950 . S
C1482 C1481 1.398 . S
C1482 C1483 1.391 . S
C1483 H1471 0.950 . S
C1483 C1479 1.393 . S
C1483 C1482 1.391 . S
H1484 C1492 0.950 1_565 S
H1485 C1497 0.950 . S
H1486 C1494 0.950 . S
H1487 C1496 0.950 . S
H1488 C1498 0.950 . S
H1489 C1500 0.950 . S
H1490 C1502 0.950 . S
H1491 C1503 0.950 . S
C1492 H1484 0.950 1_545 S
C1492 C1493 1.386 . S
C1492 C1494 1.391 . S
C1493 C1492 1.386 . S
C1493 C1497 1.393 . S
C1494 H1486 0.950 . S
C1494 C1492 1.391 . S
C1494 C1495 1.400 . S
C1495 C1494 1.400 . S
C1495 C1496 1.398 . S
C1495 C1501 1.491 . S
C1496 H1487 0.950 . S
C1496 C1495 1.398 . S
C1496 C1497 1.391 . S
C1497 H1485 0.950 . S
C1497 C1493 1.393 . S
C1497 C1496 1.391 . S
C1498 H1488 0.950 . S
C1498 C1499 1.386 . S
C1498 C1500 1.391 . S
C1499 C1498 1.386 . S
C1499 C1503 1.393 . S
C1500 H1489 0.950 . S
C1500 C1498 1.391 . S
C1500 C1501 1.400 . S
C1501 C1495 1.491 . S
C1501 C1500 1.400 . S
C1501 C1502 1.398 . S
C1502 H1490 0.950 . S
C1502 C1501 1.398 . S
C1502 C1503 1.391 . S
C1503 H1491 0.950 . S
C1503 C1499 1.393 . S
C1503 C1502 1.391 . S
H1504 C1512 0.950 . S
H1505 C1517 0.950 . S
H1506 C1514 0.950 . S
H1507 C1516 0.950 . S
H1508 C1518 0.950 . S
H1509 C1520 0.950 . S
H1510 C1522 0.950 . S
H1511 C1523 0.950 . S
C1512 H1504 0.950 . S
C1512 C1513 1.386 . S
C1512 C1514 1.391 . S
C1513 C1512 1.386 . S
C1513 C1517 1.393 . S
C1514 H1506 0.950 . S
C1514 C1512 1.391 . S
C1514 C1515 1.400 . S
C1515 C1514 1.400 . S
C1515 C1516 1.398 . S
C1515 C1521 1.491 . S
C1516 H1507 0.950 . S
C1516 C1515 1.398 . S
C1516 C1517 1.391 . S
C1517 H1505 0.950 . S
C1517 C1513 1.393 . S
C1517 C1516 1.391 . S
C1518 H1508 0.950 . S
C1518 C1519 1.386 . S
C1518 C1520 1.391 . S
C1519 C1518 1.386 . S
C1519 C1523 1.393 . S
C1520 H1509 0.950 . S
C1520 C1518 1.391 . S
C1520 C1521 1.400 . S
C1521 C1515 1.491 . S
C1521 C1520 1.400 . S
C1521 C1522 1.398 . S
C1522 H1510 0.950 . S
C1522 C1521 1.398 . S
C1522 C1523 1.391 . S
C1523 H1511 0.950 . S
C1523 C1519 1.393 . S
C1523 C1522 1.391 . S
H1524 C1532 0.950 . S
H1525 C1537 0.950 . S
H1526 C1534 0.950 . S
H1527 C1536 0.950 . S
H1528 C1538 0.950 . S
H1529 C1540 0.950 . S
H1530 C1542 0.950 . S
H1531 C1543 0.950 . S
C1532 H1524 0.950 . S
C1532 C1533 1.386 . S
C1532 C1534 1.391 . S
C1533 C1532 1.386 . S
C1533 C1537 1.393 . S
C1534 H1526 0.950 . S
C1534 C1532 1.391 . S
C1534 C1535 1.400 . S
C1535 C1534 1.400 . S
C1535 C1536 1.398 . S
C1535 C1541 1.491 . S
C1536 H1527 0.950 . S
C1536 C1535 1.398 . S
C1536 C1537 1.391 . S
C1537 H1525 0.950 . S
C1537 C1533 1.393 . S
C1537 C1536 1.391 . S
C1538 H1528 0.950 . S
C1538 C1539 1.386 . S
C1538 C1540 1.391 . S
C1539 C1538 1.386 . S
C1539 C1543 1.393 . S
C1540 H1529 0.950 . S
C1540 C1538 1.391 . S
C1540 C1541 1.400 . S
C1541 C1535 1.491 . S
C1541 C1540 1.400 . S
C1541 C1542 1.398 . S
C1542 H1530 0.950 . S
C1542 C1541 1.398 . S
C1542 C1543 1.391 . S
C1543 H1531 0.950 . S
C1543 C1539 1.393 . S
C1543 C1542 1.391 . S
H1544 C1552 0.950 . S
H1545 C1557 0.950 1_655 S
H1546 C1554 0.950 . S
H1547 C1556 0.950 . S
H1548 C1558 0.950 . S
H1549 C1560 0.950 . S
H1550 C1562 0.950 . S
H1551 C1563 0.950 . S
C1552 H1544 0.950 . S
C1552 C1553 1.386 . S
C1552 C1554 1.391 . S
C1553 C1552 1.386 . S
C1553 C1557 1.393 . S
C1554 H1546 0.950 . S
C1554 C1552 1.391 . S
C1554 C1555 1.400 . S
C1555 C1554 1.400 . S
C1555 C1556 1.398 . S
C1555 C1561 1.491 . S
C1556 H1547 0.950 . S
C1556 C1555 1.398 . S
C1556 C1557 1.391 . S
C1557 H1545 0.950 1_455 S
C1557 C1553 1.393 . S
C1557 C1556 1.391 . S
C1558 H1548 0.950 . S
C1558 C1559 1.386 . S
C1558 C1560 1.391 . S
C1559 C1558 1.386 . S
C1559 C1563 1.393 . S
C1560 H1549 0.950 . S
C1560 C1558 1.391 . S
C1560 C1561 1.400 . S
C1561 C1555 1.491 . S
C1561 C1560 1.400 . S
C1561 C1562 1.398 . S
C1562 H1550 0.950 . S
C1562 C1561 1.398 . S
C1562 C1563 1.391 . S
C1563 H1551 0.950 . S
C1563 C1559 1.393 . S
C1563 C1562 1.391 . S
H1564 C1572 0.950 . S
H1565 C1577 0.950 1_565 S
H1566 C1574 0.950 . S
H1567 C1576 0.950 . S
H1568 C1578 0.950 . S
H1569 C1580 0.950 . S
H1570 C1582 0.950 . S
H1571 C1583 0.950 . S
C1572 H1564 0.950 . S
C1572 C1573 1.386 . S
C1572 C1574 1.391 . S
C1573 C1572 1.386 . S
C1573 C1577 1.393 . S
C1574 H1566 0.950 . S
C1574 C1572 1.391 . S
C1574 C1575 1.400 . S
C1575 C1574 1.400 . S
C1575 C1576 1.398 . S
C1575 C1581 1.491 . S
C1576 H1567 0.950 . S
C1576 C1575 1.398 . S
C1576 C1577 1.391 . S
C1577 H1565 0.950 1_545 S
C1577 C1573 1.393 . S
C1577 C1576 1.391 . S
C1578 H1568 0.950 . S
C1578 C1579 1.386 . S
C1578 C1580 1.391 . S
C1579 C1578 1.386 . S
C1579 C1583 1.393 . S
C1580 H1569 0.950 . S
C1580 C1578 1.391 . S
C1580 C1581 1.400 . S
C1581 C1575 1.491 . S
C1581 C1580 1.400 . S
C1581 C1582 1.398 . S
C1582 H1570 0.950 . S
C1582 C1581 1.398 . S
C1582 C1583 1.391 . S
C1583 H1571 0.950 . S
C1583 C1579 1.393 . S
C1583 C1582 1.391 . S
C473 C79 1.255 . S
C479 C21 1.257 . S
C493 C108 1.280 . S
C499 C50 1.282 . S
C513 C137 1.299 . S
C519 C195 1.300 . S
C533 C166 1.248 . S
C539 C224 1.248 . S
C553 C253 1.258 . S
C559 C311 1.260 . S
C573 C282 1.291 . S
C579 C340 1.293 . S
C593 C427 1.291 . S
C599 C369 1.293 . S
C613 C456 1.286 . S
C619 C398 1.284 . S
C633 C3 1.013 . S
C639 C266 0.965 . S
C653 C295 0.981 . S
C659 C32 1.019 . S
C673 C61 1.026 . S
C679 C324 0.932 . S
C693 C237 0.928 . S
C699 C90 1.024 . S
C713 C119 1.027 . S
C719 C440 0.936 . S
C733 C148 1.025 . S
C739 C353 0.959 . S
C753 C177 1.014 . S
C759 C382 0.983 . S
C773 C206 1.023 . S
C779 C411 0.970 . S
C793 C235 1.013 . S
C799 C34 0.973 . S
C813 C63 0.984 . S
C819 C264 1.017 . S
C833 C293 1.023 . S
C839 C92 0.972 . S
C853 C5 0.972 . S
C859 C322 1.013 . S
C873 C351 1.015 . S
C879 C208 0.984 . S
C893 C121 0.983 . S
C899 C380 1.018 . S
C913 C409 1.016 . S
C919 C150 0.985 . S
C933 C179 0.946 . S
C939 C438 1.027 . S
C953 C184 1.415 . S
C959 C10 1.438 . S
C973 C39 1.418 . S
C979 C213 1.438 . S
C993 C68 1.430 . S
C999 C126 1.435 . S
C1013 C97 1.438 . S
C1019 C155 1.418 . S
C1033 C416 1.418 . S
C1039 C242 1.397 . S
C1053 C271 1.424 . S
C1059 C445 1.438 . S
C1073 C358 1.438 . S
C1079 C300 1.423 . S
C1093 C387 1.428 . S
C1099 C329 1.436 . S
C1113 C245 2.296 . S
C1119 C13 2.296 . S
C1133 C274 2.279 . S
C1139 C42 2.279 . S
C1153 C303 2.292 . S
C1159 C71 2.292 . S
C1173 C332 2.276 . S
C1179 C100 2.276 . S
C1193 C361 2.270 . S
C1199 C129 2.270 . S
C1213 C158 2.284 . S
C1219 C390 2.284 . S
C1233 C187 2.289 . S
C1239 C419 2.289 . S
C1253 C216 2.270 . S
C1259 C448 2.270 . S
C1273 C37 1.929 . S
C1279 C15 2.091 . S
C1293 C66 1.899 . S
C1299 C44 2.106 . S
C1313 C95 1.901 1_655 S
C1319 C73 2.104 . S
C1333 C8 1.899 1_565 S
C1339 C102 2.106 . S
C1353 C131 2.100 . S
C1359 C211 1.909 . S
C1373 C160 2.100 . S
C1379 C124 1.913 . S
C1393 C189 2.091 . S
C1399 C153 1.931 1_655 S
C1413 C218 2.097 . S
C1419 C182 1.916 1_565 S
C1433 C247 2.106 . S
C1439 C269 1.899 . S
C1453 C276 2.097 . S
C1459 C298 1.918 . S
C1473 C305 2.098 . S
C1479 C327 1.916 1_455 S
C1493 C240 1.913 1_545 S
C1499 C334 2.098 . S
C1513 C443 1.914 . S
C1519 C363 2.098 . S
C1533 C392 2.105 . S
C1539 C356 1.899 . S
C1553 C385 1.925 1_455 S
C1559 C421 2.094 . S
C1573 C414 1.918 1_545 S
C1579 C450 2.098 . S
