# Generated by pormake.
# Topology sml, (6)-cn, num edge types: 1
# Building blocks:
#     Node 0, Type 0, BuildingBlock: BETFAJ_clean_sbu_0, # of connection points: 6
#     Node 1, Type 0, BuildingBlock: BETFAJ_clean_sbu_0, # of connection points: 6
#     Node 2, Type 0, BuildingBlock: BETFAJ_clean_sbu_0, # of connection points: 6
#     Node 3, Type 0, BuildingBlock: BETFAJ_clean_sbu_0, # of connection points: 6
#     Node 4, Type 0, BuildingBlock: BETFAJ_clean_sbu_0, # of connection points: 6
#     Node 5, Type 0, BuildingBlock: BETFAJ_clean_sbu_0, # of connection points: 6
#     Edge 6, Type (0, 0), BuildingBlock: TEMPAE_clean_linker_10, # of connection points: 2
#     Edge 7, Type (0, 0), BuildingBlock: TEMPAE_clean_linker_10, # of connection points: 2
#     Edge 8, Type (0, 0), BuildingBlock: TEMPAE_clean_linker_10, # of connection points: 2
#     Edge 9, Type (0, 0), BuildingBlock: TEMPAE_clean_linker_10, # of connection points: 2
#     Edge 10, Type (0, 0), BuildingBlock: TEMPAE_clean_linker_10, # of connection points: 2
#     Edge 11, Type (0, 0), BuildingBlock: TEMPAE_clean_linker_10, # of connection points: 2
#     Edge 12, Type (0, 0), BuildingBlock: TEMPAE_clean_linker_10, # of connection points: 2
#     Edge 13, Type (0, 0), BuildingBlock: TEMPAE_clean_linker_10, # of connection points: 2
#     Edge 14, Type (0, 0), BuildingBlock: TEMPAE_clean_linker_10, # of connection points: 2
#     Edge 15, Type (0, 0), BuildingBlock: TEMPAE_clean_linker_10, # of connection points: 2
#     Edge 16, Type (0, 0), BuildingBlock: TEMPAE_clean_linker_10, # of connection points: 2
#     Edge 17, Type (0, 0), BuildingBlock: TEMPAE_clean_linker_10, # of connection points: 2
#     Edge 18, Type (0, 0), BuildingBlock: TEMPAE_clean_linker_10, # of connection points: 2
#     Edge 19, Type (0, 0), BuildingBlock: TEMPAE_clean_linker_10, # of connection points: 2
#     Edge 20, Type (0, 0), BuildingBlock: TEMPAE_clean_linker_10, # of connection points: 2
#     Edge 21, Type (0, 0), BuildingBlock: TEMPAE_clean_linker_10, # of connection points: 2
#     Edge 22, Type (0, 0), BuildingBlock: TEMPAE_clean_linker_10, # of connection points: 2
#     Edge 23, Type (0, 0), BuildingBlock: TEMPAE_clean_linker_10, # of connection points: 2
# Relax obj value: 0.186
# Max RMSD: 0.219
# Mean RMSD: 0.219
data_MOF--net-sml--node1-BETFAJ_clean_sbu_0--edge1-TEMPAE_clean_linker_10
_symmetry_space_group_name_H-M    P1
_symmetry_Int_Tables_number       1
_symmetry_cell_setting            triclinic
loop_
_symmetry_equiv_pos_as_xyz
'x, y, z'
_cell_length_a     32.389993
_cell_length_b     32.422232
_cell_length_c     25.571234
_cell_angle_alpha  89.998351
_cell_angle_beta   89.982632
_cell_angle_gamma 120.0274
loop_
_atom_site_label
_atom_site_type_symbol
_atom_site_fract_x
_atom_site_fract_y
_atom_site_fract_z
_atom_type_partial_charge
Sm0 Sm 0.15012 0.43325 0.07298 0.0
Sm1 Sm 0.18318 0.40108 0.17169 0.0
C2 C 0.13844 0.46161 0.9796 0.0
C3 C 0.1439 0.45494 0.92363 0.0
C4 C 0.1447 0.48782 0.88755 0.0
C5 C 0.1468 0.4808 0.83391 0.0
C6 C 0.14803 0.44059 0.81524 0.0
C7 C 0.14835 0.4082 0.85177 0.0
C8 C 0.14633 0.41533 0.90553 0.0
C9 C 0.07807 0.37128 0.13824 0.0
C10 C 0.17787 0.34769 0.06533 0.0
C11 C 0.19854 0.37923 0.26685 0.0
C12 C 0.18532 0.3837 0.32089 0.0
C13 C 0.17573 0.34766 0.35725 0.0
C14 C 0.16576 0.35249 0.40939 0.0
C15 C 0.16547 0.39367 0.42621 0.0
C16 C 0.17384 0.42919 0.38926 0.0
C17 C 0.18351 0.42419 0.33707 0.0
C18 C 0.25429 0.46076 0.10498 0.0
C19 C 0.15549 0.48584 0.18045 0.0
O20 O 0.17755 0.48512 0.00707 0.0
O21 O 0.10477 0.42489 1.00445 0.0
O22 O 0.11483 0.36935 0.1263 0.0
O23 O 0.07705 0.40556 0.11306 0.0
O24 O 0.17555 0.38277 0.0415 0.0
O25 O 0.17366 0.34176 0.11654 0.0
O26 O 0.16435 0.34875 0.23661 0.0
O27 O 0.22791 0.4189 0.24282 0.0
O28 O 0.21887 0.46473 0.11793 0.0
O29 O 0.25466 0.42606 0.12984 0.0
O30 O 0.15479 0.44883 0.20303 0.0
O31 O 0.16063 0.4926 0.12939 0.0
H32 H 0.14307 0.5187 0.90086 0.0
H33 H 0.14745 0.50693 0.80702 0.0
H34 H 0.14897 0.37672 0.8388 0.0
H35 H 0.1458 0.38955 0.93288 0.0
H36 H 0.17677 0.31608 0.3455 0.0
H37 H 0.15988 0.32467 0.43691 0.0
H38 H 0.17321 0.46101 0.40079 0.0
H39 H 0.19042 0.45236 0.30962 0.0
Sm40 Sm 0.84395 0.26809 0.55474 0.0
Sm41 Sm 0.80261 0.2027 0.45675 0.0
C42 C 0.86148 0.30791 0.6488 0.0
C43 C 0.85345 0.29467 0.7045 0.0
C44 C 0.8589 0.32892 0.74148 0.0
C45 C 0.85368 0.31803 0.79485 0.0
C46 C 0.84296 0.27257 0.81233 0.0
C47 C 0.83684 0.23802 0.77495 0.0
C48 C 0.84194 0.24895 0.72147 0.0
C49 C 0.91122 0.2772 0.48287 0.0
C50 C 0.81253 0.15397 0.5603 0.0
C51 C 0.77824 0.1631 0.36268 0.0
C52 C 0.79164 0.17639 0.30757 0.0
C53 C 0.78554 0.14127 0.27148 0.0
C54 C 0.79511 0.15242 0.21841 0.0
C55 C 0.81094 0.199 0.20036 0.0
C56 C 0.81836 0.23449 0.23697 0.0
C57 C 0.80876 0.22326 0.29009 0.0
C58 C 0.73688 0.19504 0.52963 0.0
C59 C 0.83607 0.31661 0.44928 0.0
O60 O 0.82404 0.29923 0.62101 0.0
O61 O 0.89101 0.2984 0.62381 0.0
O62 O 0.87448 0.23867 0.49561 0.0
O63 O 0.91534 0.31221 0.51141 0.0
O64 O 0.81672 0.19164 0.58526 0.0
O65 O 0.81413 0.15226 0.50881 0.0
O66 O 0.80917 0.15969 0.3925 0.0
O67 O 0.75696 0.18319 0.38624 0.0
O68 O 0.77262 0.23328 0.51484 0.0
O69 O 0.73311 0.159 0.50363 0.0
O70 O 0.83349 0.2792 0.42542 0.0
O71 O 0.83376 0.31868 0.50073 0.0
H72 H 0.86789 0.36442 0.72909 0.0
H73 H 0.85912 0.3456 0.82251 0.0
H74 H 0.82794 0.2025 0.78704 0.0
H75 H 0.83737 0.22191 0.69346 0.0
H76 H 0.77264 0.10497 0.28426 0.0
H77 H 0.78977 0.12444 0.1914 0.0
H78 H 0.83023 0.27061 0.22438 0.0
H79 H 0.81379 0.25092 0.31733 0.0
Sm80 Sm 0.57119 0.72963 0.75553 0.0
Sm81 Sm 0.59876 0.79603 0.85357 0.0
C82 C 0.54674 0.6913 0.66107 0.0
C83 C 0.55205 0.70671 0.60605 0.0
C84 C 0.51739 0.67765 0.56951 0.0
C85 C 0.52296 0.69019 0.51657 0.0
C86 C 0.56347 0.73205 0.49914 0.0
C87 C 0.59762 0.76176 0.53618 0.0
C88 C 0.59188 0.74929 0.5892 0.0
C89 C 0.62628 0.7161 0.8272 0.0
C90 C 0.6572 0.84261 0.74933 0.0
C91 C 0.61637 0.83651 0.94721 0.0
C92 C 0.61494 0.82281 1.00249 0.0
C93 C 0.64878 0.85535 0.03758 0.0
C94 C 0.64589 0.84454 0.09089 0.0
C95 C 0.60887 0.80097 0.11026 0.0
C96 C 0.5759 0.76773 0.07457 0.0
C97 C 0.57895 0.77854 0.02123 0.0
C98 C 0.54202 0.80578 0.78058 0.0
C99 C 0.51308 0.68393 0.86119 0.0
O100 O 0.51872 0.69987 0.69035 0.0
O101 O 0.58558 0.69892 0.68522 0.0
O102 O 0.63083 0.756 0.81509 0.0
O103 O 0.5948 0.68231 0.79783 0.0
O104 O 0.6226 0.80543 0.72482 0.0
O105 O 0.66119 0.84446 0.80074 0.0
O106 O 0.64974 0.83728 0.91772 0.0
O107 O 0.57529 0.81919 0.92331 0.0
O108 O 0.53822 0.76727 0.79601 0.0
O109 O 0.57538 0.84161 0.80592 0.0
O110 O 0.54901 0.72029 0.88531 0.0
O111 O 0.50926 0.68181 0.80968 0.0
H112 H 0.48635 0.64474 0.5818 0.0
H113 H 0.49619 0.66637 0.48907 0.0
H114 H 0.62884 0.79459 0.52414 0.0
H115 H 0.61886 0.77255 0.61687 0.0
H116 H 0.67702 0.88955 0.02386 0.0
H117 H 0.67246 0.87056 0.11703 0.0
H118 H 0.54674 0.73399 0.08801 0.0
H119 H 0.55246 0.7528 0.99485 0.0
Sm120 Sm 0.72947 0.55493 0.22256 0.0
Sm121 Sm 0.79395 0.58965 0.12231 0.0
C122 C 0.69176 0.52413 0.31643 0.0
C123 C 0.70648 0.52683 0.37127 0.0
C124 C 0.75407 0.55638 0.38655 0.0
C125 C 0.76654 0.56111 0.43956 0.0
C126 C 0.7316 0.53622 0.47803 0.0
C127 C 0.68427 0.50555 0.46213 0.0
C128 C 0.67188 0.50098 0.40924 0.0
C129 C 0.71484 0.61416 0.15824 0.0
C130 C 0.84159 0.64343 0.22851 0.0
C131 C 0.83471 0.61541 0.02882 0.0
C132 C 0.82196 0.61042 0.97311 0.0
C133 C 0.77463 0.58184 0.95658 0.0
C134 C 0.76386 0.57435 0.90315 0.0
C135 C 0.80038 0.59532 0.86547 0.0
C136 C 0.84757 0.6251 0.88249 0.0
C137 C 0.8582 0.63248 0.9358 0.0
C138 C 0.80765 0.5311 0.1889 0.0
C139 C 0.6814 0.5034 0.11421 0.0
O140 O 0.70264 0.4994 0.28457 0.0
O141 O 0.69801 0.56377 0.29571 0.0
O142 O 0.7548 0.61823 0.16872 0.0
O143 O 0.68115 0.58007 0.18541 0.0
O144 O 0.80573 0.60687 0.25261 0.0
O145 O 0.8417 0.64989 0.17754 0.0
O146 O 0.82382 0.64217 0.05719 0.0
O147 O 0.82661 0.57645 0.05283 0.0
O148 O 0.76802 0.52629 0.17587 0.0
O149 O 0.84225 0.56664 0.16442 0.0
O150 O 0.7183 0.5395 0.09099 0.0
O151 O 0.67972 0.49684 0.16537 0.0
H152 H 0.78133 0.5764 0.35765 0.0
H153 H 0.8034 0.58451 0.4505 0.0
H154 H 0.65645 0.48626 0.49071 0.0
H155 H 0.63497 0.47803 0.39808 0.0
H156 H 0.74626 0.56458 0.98497 0.0
H157 H 0.72719 0.55105 0.89145 0.0
H158 H 0.8764 0.64252 0.85455 0.0
H159 H 0.89495 0.65479 0.94791 0.0
Sm160 Sm 0.26961 0.82586 0.41518 0.0
Sm161 Sm 0.20461 0.79821 0.51464 0.0
C162 C 0.30825 0.83271 0.32186 0.0
C163 C 0.29554 0.82461 0.2661 0.0
C164 C 0.24871 0.79324 0.24945 0.0
C165 C 0.23759 0.78808 0.19597 0.0
C166 C 0.27309 0.81438 0.15846 0.0
C167 C 0.32004 0.84492 0.17564 0.0
C168 C 0.33106 0.85 0.22887 0.0
C169 C 0.28577 0.90046 0.47907 0.0
C170 C 0.15851 0.80506 0.40741 0.0
C171 C 0.16422 0.78607 0.608 0.0
C172 C 0.17684 0.79155 0.66381 0.0
C173 C 0.22443 0.8177 0.68044 0.0
C174 C 0.23552 0.82076 0.73379 0.0
C175 C 0.19913 0.79786 0.77134 0.0
C176 C 0.15152 0.77192 0.75419 0.0
C177 C 0.14055 0.76881 0.70098 0.0
C178 C 0.18901 0.72492 0.44885 0.0
C179 C 0.31499 0.81791 0.52354 0.0
O180 O 0.29284 0.7951 0.35185 0.0
O181 O 0.30581 0.86777 0.34411 0.0
O182 O 0.24534 0.86555 0.46796 0.0
O183 O 0.3193 0.89837 0.45346 0.0
O184 O 0.19437 0.80392 0.38387 0.0
O185 O 0.15802 0.8115 0.45834 0.0
O186 O 0.17975 0.82508 0.58047 0.0
O187 O 0.16733 0.75251 0.58312 0.0
O188 O 0.22912 0.75899 0.46199 0.0
O189 O 0.15492 0.72717 0.47291 0.0
O190 O 0.27906 0.81913 0.54666 0.0
O191 O 0.31682 0.81368 0.47232 0.0
H192 H 0.22075 0.77331 0.27772 0.0
H193 H 0.20104 0.76444 0.18412 0.0
H194 H 0.34841 0.86499 0.14786 0.0
H195 H 0.36742 0.87419 0.24103 0.0
H196 H 0.25289 0.83557 0.65219 0.0
H197 H 0.27251 0.84136 0.74565 0.0
H198 H 0.12268 0.75323 0.78184 0.0
H199 H 0.10363 0.74818 0.68877 0.0
Sm200 Sm 0.42596 0.16994 0.87388 0.0
Sm201 Sm 0.39989 0.20961 0.7753 0.0
C202 C 0.45061 0.15572 0.96808 0.0
C203 C 0.44769 0.16689 0.02325 0.0
C204 C 0.47796 0.16338 0.05981 0.0
C205 C 0.47392 0.17077 0.11295 0.0
C206 C 0.43935 0.1817 0.13064 0.0
C207 C 0.41004 0.18675 0.0935 0.0
C208 C 0.4142 0.17942 0.04022 0.0
C209 C 0.37165 0.10173 0.80162 0.0
C210 C 0.34028 0.19735 0.87875 0.0
C211 C 0.38297 0.23319 0.68173 0.0
C212 C 0.38572 0.22178 0.62647 0.0
C213 C 0.35319 0.22167 0.59026 0.0
C214 C 0.35734 0.21426 0.53707 0.0
C215 C 0.39429 0.20702 0.51908 0.0
C216 C 0.42603 0.20577 0.55577 0.0
C217 C 0.42173 0.21301 0.60896 0.0
C218 C 0.45624 0.27531 0.84924 0.0
C219 C 0.48428 0.18118 0.76852 0.0
O220 O 0.4792 0.19136 0.938 0.0
O221 O 0.41037 0.12581 0.94525 0.0
O222 O 0.36716 0.13723 0.81322 0.0
O223 O 0.40212 0.09884 0.83215 0.0
O224 O 0.37459 0.19471 0.90389 0.0
O225 O 0.33694 0.19533 0.82729 0.0
O226 O 0.34954 0.19969 0.7104 0.0
O227 O 0.42358 0.2573 0.70645 0.0
O228 O 0.45979 0.24054 0.83358 0.0
O229 O 0.42317 0.27822 0.82381 0.0
O230 O 0.44941 0.18322 0.74391 0.0
O231 O 0.48756 0.18249 0.82006 0.0
H232 H 0.5043 0.15416 0.04732 0.0
H233 H 0.49772 0.16759 0.14028 0.0
H234 H 0.38291 0.19491 0.10573 0.0
H235 H 0.39065 0.18254 0.01247 0.0
H236 H 0.32515 0.22833 0.60301 0.0
H237 H 0.33253 0.21575 0.50982 0.0
H238 H 0.4544 0.19953 0.54331 0.0
H239 H 0.44709 0.21269 0.63625 0.0
C240 C 0.32684 0.2369 0.95475 0.0
C241 C 0.30957 0.21044 0.90855 0.0
C242 C 0.30145 0.25558 0.98009 0.0
C243 C 0.25714 0.24652 0.9594 0.0
C244 C 0.23841 0.21785 0.91419 0.0
C245 C 0.26522 0.20064 0.88882 0.0
C246 C 0.32326 0.287 0.02745 0.0
C247 C 0.19085 0.20671 0.89168 0.0
C248 C 0.18206 0.27354 0.05182 0.0
C249 C 0.19276 0.31887 0.03467 0.0
C250 C 0.20093 0.2484 0.02605 0.0
C251 C 0.23222 0.26982 0.9832 0.0
C252 C 0.24225 0.31518 0.96508 0.0
C253 C 0.22186 0.33887 0.99064 0.0
C254 C 0.18873 0.19969 0.04573 0.0
C255 C 0.27642 0.33981 0.92039 0.0
H256 H 0.36145 0.24514 0.96976 0.0
H257 H 0.2518 0.18008 0.85315 0.0
H258 H 0.33062 0.32359 0.01866 0.0
H259 H 0.29799 0.27352 0.06079 0.0
H260 H 0.35715 0.28903 0.03967 0.0
H261 H 0.17921 0.18014 0.85956 0.0
H262 H 0.16314 0.19286 0.92268 0.0
H263 H 0.19322 0.23978 0.87615 0.0
H264 H 0.15947 0.25803 0.08582 0.0
H265 H 0.23078 0.37425 0.97773 0.0
H266 H 0.22091 0.20125 0.06295 0.0
H267 H 0.1769 0.17392 0.01286 0.0
H268 H 0.16023 0.1861 0.07592 0.0
H269 H 0.279 0.37429 0.9099 0.0
H270 H 0.26507 0.3166 0.8853 0.0
H271 H 0.31251 0.34672 0.93126 0.0
C272 C 0.05812 0.31834 0.2159 0.0
C273 C 0.04819 0.34758 0.18438 0.0
C274 C 0.03725 0.30377 0.26544 0.0
C275 C 0.00252 0.31536 0.28163 0.0
C276 C 0.98857 0.34053 0.24738 0.0
C277 C 0.01244 0.35738 0.19956 0.0
C278 C 0.05451 0.2787 0.30158 0.0
C279 C 0.94965 0.3511 0.26195 0.0
C280 C 0.92227 0.24884 0.39618 0.0
C281 C 0.93866 0.2845 0.4343 0.0
C282 C 0.94261 0.25816 0.3461 0.0
C283 C 0.98246 0.30342 0.33529 0.0
C284 C 0.00201 0.33822 0.37532 0.0
C285 C 0.97914 0.32872 0.42405 0.0
C286 C 0.91998 0.22053 0.30415 0.0
C287 C 0.04609 0.38604 0.36626 0.0
H288 H 0.0836 0.3084 0.20258 0.0
H289 H 0.00378 0.37903 0.17462 0.0
H290 H 0.07001 0.30049 0.33733 0.0
H291 H 0.02437 0.24396 0.31429 0.0
H292 H 0.08192 0.27248 0.283 0.0
H293 H 0.93833 0.36452 0.22806 0.0
H294 H 0.9181 0.31861 0.27739 0.0
H295 H 0.9625 0.37842 0.29326 0.0
H296 H 0.89242 0.21422 0.40497 0.0
H297 H 0.99255 0.35619 0.45385 0.0
H298 H 0.88934 0.18703 0.31916 0.0
H299 H 0.94644 0.21214 0.28734 0.0
H300 H 0.90742 0.23421 0.27171 0.0
H301 H 0.07338 0.38194 0.34432 0.0
H302 H 0.06203 0.40481 0.4036 0.0
H303 H 0.03669 0.40877 0.34246 0.0
C304 C 0.80796 0.07513 0.57112 0.0
C305 C 0.79896 0.11029 0.59054 0.0
C306 C 0.79057 0.03142 0.59719 0.0
C307 C 0.76244 0.02236 0.64275 0.0
C308 C 0.75431 0.05827 0.66317 0.0
C309 C 0.77322 0.10204 0.63717 0.0
C310 C 0.80091 0.99436 0.57506 0.0
C311 C 0.72346 0.04961 0.71087 0.0
C312 C 0.66783 0.89564 0.67443 0.0
C313 C 0.68707 0.88617 0.71884 0.0
C314 C 0.6925 0.93953 0.64865 0.0
C315 C 0.73817 0.97422 0.66681 0.0
C316 C 0.75885 0.9639 0.71003 0.0
C317 C 0.73263 0.92016 0.73617 0.0
C318 C 0.66854 0.9496 0.6037 0.0
C319 C 0.80795 -0.00039 0.72961 0.0
H320 H 0.82806 0.08158 0.53518 0.0
H321 H 0.76571 0.12895 0.652 0.0
H322 H 0.81416 0.98015 0.60627 0.0
H323 H 0.76759 0.96401 0.55942 0.0
H324 H 0.8277 0.00886 0.54307 0.0
H325 H 0.72236 0.08197 0.72298 0.0
H326 H 0.68649 0.02083 0.70251 0.0
H327 H 0.73675 0.0376 0.74415 0.0
H328 H 0.63228 0.86967 0.66137 0.0
H329 H 0.74753 0.91276 0.77046 0.0
H330 H 0.63347 0.91826 0.59356 0.0
H331 H 0.69166 0.9604 0.56853 0.0
H332 H 0.66289 0.97966 0.61406 0.0
H333 H 0.82097 0.98417 0.75976 0.0
H334 H 0.8073 0.03067 0.74685 0.0
H335 H 0.83374 0.01303 0.69668 0.0
C336 C 0.66231 0.73821 0.91605 0.0
C337 C 0.64722 0.70676 0.87374 0.0
C338 C 0.67581 0.72668 0.96343 0.0
C339 C 0.67594 0.68325 0.96769 0.0
C340 C 0.66357 0.65256 0.92388 0.0
C341 C 0.64844 0.66429 0.87764 0.0
C342 C 0.68727 0.75976 0.00958 0.0
C343 C 0.66488 0.60668 0.92635 0.0
C344 C 0.74302 0.66778 0.08054 0.0
C345 C 0.70549 0.63609 0.11263 0.0
C346 C 0.73404 0.68319 0.03286 0.0
C347 C 0.68645 0.66862 0.01865 0.0
C348 C 0.64857 0.63928 0.05281 0.0
C349 C 0.65852 0.62271 0.09908 0.0
C350 C 0.77524 0.71363 0.99694 0.0
C351 C 0.59748 0.62456 0.03997 0.0
H352 H 0.66149 0.77081 0.91285 0.0
H353 H 0.6371 0.63999 0.84471 0.0
H354 H 0.71983 0.76528 0.03003 0.0
H355 H 0.69251 0.79502 0.99777 0.0
H356 H 0.65743 0.7435 0.03806 0.0
H357 H 0.66071 0.59027 0.88714 0.0
H358 H 0.69899 0.61308 0.94366 0.0
H359 H 0.63569 0.58082 0.95193 0.0
H360 H 0.77936 0.6797 0.09221 0.0
H361 H 0.62939 0.59867 0.12424 0.0
H362 H 0.77535 0.74698 0.98699 0.0
H363 H 0.77114 0.69422 0.9598 0.0
H364 H 0.81023 0.72299 0.01451 0.0
H365 H 0.5944 0.65643 0.0311 0.0
H366 H 0.57269 0.60461 0.07249 0.0
H367 H 0.58592 0.60169 1.00461 0.0
C368 C 0.10495 0.76278 0.33238 0.0
C369 C 0.11442 0.79073 0.37747 0.0
C370 C 0.06024 0.74211 0.30806 0.0
C371 C 0.02452 0.75045 0.32873 0.0
C372 C 0.03465 0.78059 0.37265 0.0
C373 C 0.07942 0.80006 0.39685 0.0
C374 C 0.05057 0.70951 0.26181 0.0
C375 C -0.00241 0.79075 0.39529 0.0
C376 C 0.91934 0.71885 0.23935 0.0
C377 C 0.88585 0.67356 0.25792 0.0
C378 C 0.96408 0.74523 0.26337 0.0
C379 C 0.97577 0.7253 0.30616 0.0
C380 C 0.94162 0.68001 0.3258 0.0
C381 C 0.89684 0.65491 0.30176 0.0
C382 C -0.00061 0.79369 0.24189 0.0
C383 C 0.95308 0.65707 0.37064 0.0
H384 H 0.13164 0.75493 0.31755 0.0
H385 H 0.08665 0.8217 0.43166 0.0
H386 H 0.02186 0.67294 0.27176 0.0
H387 H 0.03795 0.72169 0.22805 0.0
H388 H 0.08266 0.70786 0.24967 0.0
H389 H 0.01244 0.81822 0.42652 0.0
H390 H 0.98235 0.80296 0.36412 0.0
H391 H 0.96785 0.75757 0.41204 0.0
H392 H 0.91087 0.73333 0.20547 0.0
H393 H 0.87132 0.61959 0.31578 0.0
H394 H 0.03023 0.79257 0.22458 0.0
H395 H 0.01337 0.82043 0.27384 0.0
H396 H 0.98339 0.80577 0.21138 0.0
H397 H 0.98262 0.65089 0.35928 0.0
H398 H 0.92195 0.62241 0.38238 0.0
H399 H 0.96529 0.6811 0.40506 0.0
C400 C 0.34736 0.02625 0.75384 0.0
C401 C 0.35128 0.07124 0.75518 0.0
C402 C 0.33298 -0.00133 0.70813 0.0
C403 C 0.32367 0.01726 0.66236 0.0
C404 C 0.32663 0.0623 0.66388 0.0
C405 C 0.3399 0.08843 0.7106 0.0
C406 C 0.32911 0.95027 0.7084 0.0
C407 C 0.31843 0.08414 0.61565 0.0
C408 C 0.34204 0.96707 0.53642 0.0
C409 C 0.29503 0.9339 0.52248 0.0
C410 C 0.35176 0.996 0.5807 0.0
C411 C 0.31353 0.9906 0.61241 0.0
C412 C 0.26593 0.95825 0.59753 0.0
C413 C 0.25727 0.93105 0.55195 0.0
C414 C 0.40296 0.03135 0.59435 0.0
C415 C 0.22432 0.95109 0.63075 0.0
H416 H 0.35613 0.01283 0.78842 0.0
H417 H 0.34365 0.12329 0.71152 0.0
H418 H 0.29456 0.92328 0.69129 0.0
H419 H 0.35779 0.95116 0.68385 0.0
H420 H 0.33208 0.93872 0.74844 0.0
H421 H 0.34958 0.09666 0.58916 0.0
H422 H 0.28652 0.05757 0.59387 0.0
H423 H 0.31385 0.115 0.62539 0.0
H424 H 0.37136 0.96984 0.51325 0.0
H425 H 0.22094 0.90674 0.54001 0.0
H426 H 0.4128 0.02058 0.63136 0.0
H427 H 0.40741 0.06722 0.60069 0.0
H428 H 0.42819 0.03395 0.56334 0.0
H429 H 0.22628 0.93682 0.66956 0.0
H430 H 0.18945 0.92596 0.61259 0.0
H431 H 0.2259 0.98565 0.63752 0.0
C432 C 0.11959 0.44133 0.72399 0.0
C433 C 0.14827 0.4323 0.75791 0.0
C434 C 0.12001 0.43457 0.66976 0.0
C435 C 0.14968 0.4182 0.6488 0.0
C436 C 0.17825 0.40842 0.68281 0.0
C437 C 0.17725 0.41564 0.73689 0.0
C438 C 0.08897 0.44534 0.63486 0.0
C439 C 0.21037 0.3909 0.66199 0.0
C440 C 0.12484 0.3629 0.51286 0.0
C441 C 0.15912 0.40062 0.48257 0.0
C442 C 0.1208 0.36829 0.56685 0.0
C443 C 0.15183 0.41245 0.59117 0.0
C444 C 0.18575 0.45097 0.56056 0.0
C445 C 0.18898 0.44459 0.50671 0.0
C446 C 0.08387 0.3265 0.59802 0.0
C447 C 0.2194 0.49867 0.58491 0.0
H448 H 0.09645 0.4534 0.7399 0.0
H449 H 0.1999 0.40905 0.76265 0.0
H450 H 0.11151 0.47379 0.60663 0.0
H451 H 0.06459 0.4133 0.61176 0.0
H452 H 0.06728 0.45702 0.65737 0.0
H453 H 0.22932 0.38364 0.6937 0.0
H454 H 0.1892 0.35776 0.63908 0.0
H455 H 0.23726 0.41785 0.63515 0.0
H456 H 0.10121 0.32903 0.49432 0.0
H457 H 0.21593 0.47374 0.48372 0.0
H458 H 0.06037 0.33665 0.61916 0.0
H459 H 0.10175 0.31601 0.62787 0.0
H460 H 0.06139 0.29511 0.57298 0.0
H461 H 0.19891 0.51251 0.60602 0.0
H462 H 0.24254 0.52549 0.55541 0.0
H463 H 0.24247 0.49456 0.61404 0.0
C464 C 0.78398 0.17831 0.10731 0.0
C465 C 0.81764 0.20991 0.14335 0.0
C466 C 0.78879 0.18836 0.05352 0.0
C467 C 0.82827 0.23112 0.03507 0.0
C468 C 0.86264 0.26305 0.07116 0.0
C469 C 0.85687 0.25212 0.12486 0.0
C470 C 0.75124 0.15343 0.01647 0.0
C471 C 0.90538 0.30889 0.0531 0.0
C472 C 0.85986 0.23655 0.89075 0.0
C473 C 0.83901 0.2617 0.86938 0.0
C474 C 0.85719 0.22689 0.94464 0.0
C475 C 0.83294 0.24259 0.97807 0.0
C476 C 0.81184 0.26799 0.95677 0.0
C477 C 0.81515 0.27725 0.90278 0.0
C478 C 0.88025 0.19979 0.96579 0.0
C479 C 0.78534 0.28504 0.99096 0.0
H480 H 0.75317 0.146 0.1213 0.0
H481 H 0.88329 0.27648 0.1524 0.0
H482 H 0.734 0.17089 0.99573 0.0
H483 H 0.76798 0.14186 0.98636 0.0
H484 H 0.72322 0.12136 0.03694 0.0
H485 H 0.92953 0.32924 0.08591 0.0
H486 H 0.9259 0.3012 0.0238 0.0
H487 H 0.89338 0.33168 0.03368 0.0
H488 H 0.87894 0.22499 0.86537 0.0
H489 H 0.79846 0.2962 0.88655 0.0
H490 H 0.8529 0.16625 0.98447 0.0
H491 H 0.90667 0.22114 0.99638 0.0
H492 H 0.89853 0.19084 0.93482 0.0
H493 H 0.7547 0.25414 0.01003 0.0
H494 H 0.77178 0.30516 0.96854 0.0
H495 H 0.80909 0.30829 0.02251 0.0
C496 C 0.61548 0.75927 0.41923 0.0
C497 C 0.57076 0.7437 0.44234 0.0
C498 C 0.62253 0.76867 0.36534 0.0
C499 C 0.58398 0.76252 0.33368 0.0
C500 C 0.53885 0.74723 0.35683 0.0
C501 C 0.53277 0.73795 0.41082 0.0
C502 C 0.67117 0.78484 0.34219 0.0
C503 C 0.49693 0.74058 0.32454 0.0
C504 C 0.61125 0.82734 0.20315 0.0
C505 C 0.60354 0.79114 0.16761 0.0
C506 C 0.60529 0.81858 0.2572 0.0
C507 C 0.59095 0.77238 0.27639 0.0
C508 C 0.58319 0.73566 0.24083 0.0
C509 C 0.58966 0.74549 0.18694 0.0
C510 C 0.61398 0.85873 0.29375 0.0
C511 C 0.5679 0.68593 0.25972 0.0
H512 H 0.64484 0.76318 0.44318 0.0
H513 H 0.49827 0.72645 0.4285 0.0
H514 H 0.66863 0.75916 0.31191 0.0
H515 H 0.68473 0.81984 0.32266 0.0
H516 H 0.69749 0.78816 0.37215 0.0
H517 H 0.46424 0.7286 0.34848 0.0
H518 H 0.50562 0.77454 0.30499 0.0
H519 H 0.48921 0.71389 0.29335 0.0
H520 H 0.62114 0.86251 0.18865 0.0
H521 H 0.58416 0.71742 0.15992 0.0
H522 H 0.64164 0.86423 0.32292 0.0
H523 H 0.58088 0.84941 0.31569 0.0
H524 H 0.62572 0.8928 0.27269 0.0
H525 H 0.5947 0.68687 0.28744 0.0
H526 H 0.5634 0.66139 0.2271 0.0
H527 H 0.53363 0.67123 0.28121 0.0
C528 C 0.74975 0.58415 0.78625 0.0
C529 C 0.78982 0.58527 0.80869 0.0
C530 C 0.74003 0.57532 0.73254 0.0
C531 C 0.77107 0.56735 0.70049 0.0
C532 C 0.81126 0.56794 0.72302 0.0
C533 C 0.8201 0.57683 0.77676 0.0
C534 C 0.69681 0.57501 0.70999 0.0
C535 C 0.84509 0.55937 0.69031 0.0
C536 C 0.72455 0.50523 0.56961 0.0
C537 C 0.7437 0.54381 0.53469 0.0
C538 C 0.73339 0.51229 0.6236 0.0
C539 C 0.76196 0.5591 0.64323 0.0
C540 C 0.78192 0.59812 0.6081 0.0
C541 C 0.77262 0.59 0.55431 0.0
C542 C 0.71184 0.4697 0.65967 0.0
C543 C 0.81258 0.64856 0.62745 0.0
H544 H 0.7264 0.59101 0.81053 0.0
H545 H 0.85065 0.57674 0.79392 0.0
H546 H 0.70806 0.60313 0.6797 0.0
H547 H 0.67331 0.54037 0.69061 0.0
H548 H 0.67581 0.58108 0.74028 0.0
H549 H 0.8744 0.56045 0.71392 0.0
H550 H 0.8254 0.52416 0.67079 0.0
H551 H 0.86097 0.58671 0.6591 0.0
H552 H 0.70262 0.46939 0.55465 0.0
H553 H 0.78702 0.62004 0.52768 0.0
H554 H 0.68794 0.47304 0.68831 0.0
H555 H 0.74035 0.4683 0.68226 0.0
H556 H 0.69106 0.43559 0.63815 0.0
H557 H 0.79181 0.65774 0.65483 0.0
H558 H 0.82593 0.67491 0.59503 0.0
H559 H 0.8436 0.65181 0.64941 0.0
C560 C 0.24923 0.79621 0.84563 0.0
C561 C 0.21046 0.8005 0.82818 0.0
C562 C 0.25943 0.79746 0.89925 0.0
C563 C 0.23022 0.80318 0.9364 0.0
C564 C 0.19116 0.80769 0.91904 0.0
C565 C 0.18183 0.80638 0.86526 0.0
C566 C 0.30145 0.79258 0.91616 0.0
C567 C 0.15933 0.81416 0.95732 0.0
C568 C 0.23091 0.76704 0.07814 0.0
C569 C 0.26146 0.81113 0.10167 0.0
C570 C 0.22055 0.76383 0.02436 0.0
C571 C 0.24117 0.80571 0.99338 0.0
C572 C 0.27184 0.85028 0.01697 0.0
C573 C 0.28151 0.85245 0.07071 0.0
C574 C 0.18766 0.71563 1.00067 0.0
C575 C 0.29439 0.8958 0.98544 0.0
H576 H 0.27119 0.79106 0.81736 0.0
H577 H 0.15225 0.81046 0.85216 0.0
H578 H 0.32703 0.8246 0.93853 0.0
H579 H 0.28927 0.76146 0.94255 0.0
H580 H 0.32049 0.78808 0.88245 0.0
H581 H 0.12988 0.81624 0.93757 0.0
H582 H 0.14366 0.78408 0.98547 0.0
H583 H 0.18061 0.84725 0.98026 0.0
H584 H 0.21565 0.73491 0.10163 0.0
H585 H 0.30449 0.88677 0.08868 0.0
H586 H 0.20644 0.70804 0.96913 0.0
H587 H 0.15646 0.71552 0.98261 0.0
H588 H 0.1746 0.68651 0.03003 0.0
H589 H 0.31578 0.8933 0.953 0.0
H590 H 0.31789 0.92752 0.00955 0.0
H591 H 0.26624 0.90122 0.96759 0.0
C592 C 0.44639 0.2275 0.4396 0.0
C593 C 0.40079 0.20267 0.4621 0.0
C594 C 0.45307 0.22496 0.38567 0.0
C595 C 0.41321 0.19675 0.35334 0.0
C596 C 0.3671 0.17142 0.37582 0.0
C597 C 0.36144 0.17476 0.42988 0.0
C598 C 0.50278 0.25261 0.36324 0.0
C599 C 0.32375 0.14068 0.34277 0.0
C600 C 0.42428 0.22162 0.20685 0.0
C601 C 0.43289 0.18604 0.18771 0.0
C602 C 0.41772 0.2255 0.26062 0.0
C603 C 0.41988 0.1931 0.29615 0.0
C604 C 0.42858 0.15716 0.27708 0.0
C605 C 0.43485 0.15401 0.2232 0.0
C606 C 0.4086 0.26436 0.27944 0.0
C607 C 0.43112 0.12188 0.31361 0.0
H608 H 0.47688 0.2497 0.4641 0.0
H609 H 0.32618 0.15511 0.44707 0.0
H610 H 0.51237 0.22791 0.34391 0.0
H611 H 0.50419 0.27778 0.33293 0.0
H612 H 0.52996 0.27312 0.39359 0.0
H613 H 0.29035 0.12358 0.36614 0.0
H614 H 0.32021 0.16246 0.31153 0.0
H615 H 0.32789 0.11239 0.32328 0.0
H616 H 0.42322 0.24682 0.17982 0.0
H617 H 0.44063 0.12588 0.20875 0.0
H618 H 0.43681 0.28785 0.30741 0.0
H619 H 0.37409 0.24849 0.30061 0.0
H620 H 0.40769 0.28652 0.24681 0.0
H621 H 0.45962 0.14103 0.34304 0.0
H622 H 0.43839 0.0962 0.29259 0.0
H623 H 0.39701 0.10163 0.33524 0.0
C624 C 0.13949 0.50976 0.26727 0.0
C625 C 0.15222 0.52099 0.21456 0.0
C626 C 0.1422 0.54411 0.3024 0.0
C627 C 0.1574 0.59081 0.28432 0.0
C628 C 0.16752 0.60174 0.23054 0.0
C629 C 0.16493 0.56663 0.1962 0.0
C630 C 0.13109 0.53098 0.35943 0.0
C631 C 0.18322 0.65105 0.20979 0.0
C632 C 0.13694 0.66802 0.3803 0.0
C633 C 0.18143 0.69239 0.40511 0.0
C634 C 0.12911 0.63649 0.33894 0.0
C635 C 0.16651 0.62873 0.32282 0.0
C636 C 0.21186 0.65431 0.34697 0.0
C637 C 0.21882 0.68607 0.3877 0.0
C638 C 0.08062 0.61074 0.31335 0.0
C639 C 0.25257 0.64685 0.3311 0.0
H640 H 0.12863 0.47431 0.28164 0.0
H641 H 0.17458 0.5755 0.15547 0.0
H642 H 0.16382 0.55177 0.38316 0.0
H643 H 0.1042 0.54003 0.37353 0.0
H644 H 0.11741 0.49251 0.36659 0.0
H645 H 0.18352 0.65208 0.16636 0.0
H646 H 0.15945 0.66398 0.22441 0.0
H647 H 0.21972 0.67626 0.224 0.0
H648 H 0.10822 0.67362 0.39321 0.0
H649 H 0.25326 0.70513 0.40683 0.0
H650 H 0.06363 0.57195 0.32109 0.0
H651 H 0.08425 0.61569 0.27033 0.0
H652 H 0.05655 0.62342 0.32786 0.0
H653 H 0.24325 0.60963 0.33982 0.0
H654 H 0.28623 0.67137 0.35184 0.0
H655 H 0.25891 0.65229 0.28839 0.0
C656 C 0.66922 0.14722 0.58996 0.0
C657 C 0.7024 0.19168 0.56925 0.0
C658 C 0.63453 0.14298 0.62582 0.0
C659 C 0.6327 0.18413 0.64049 0.0
C660 C 0.66696 0.22929 0.6206 0.0
C661 C 0.70173 0.23256 0.58546 0.0
C662 C 0.5992 0.09436 0.64698 0.0
C663 C 0.66592 0.27392 0.63505 0.0
C664 C 0.51458 0.17095 0.68261 0.0
C665 C 0.52092 0.17825 0.73677 0.0
C666 C 0.55036 0.17191 0.651 0.0
C667 C 0.59337 0.17977 0.67418 0.0
C668 C 0.59932 0.18523 0.72907 0.0
C669 C 0.56302 0.18455 0.75976 0.0
C670 C 0.54256 0.16582 0.59259 0.0
C671 C 0.64445 0.19289 0.75516 0.0
H672 H 0.67019 0.11566 0.57787 0.0
H673 H 0.72751 0.26695 0.56948 0.0
H674 H 0.59787 0.09538 0.69029 0.0
H675 H 0.56296 0.0836 0.63228 0.0
H676 H 0.60815 0.06673 0.63535 0.0
H677 H 0.69625 0.30646 0.61783 0.0
H678 H 0.63213 0.27108 0.62116 0.0
H679 H 0.66697 0.27807 0.67816 0.0
H680 H 0.48181 0.16506 0.66459 0.0
H681 H 0.5681 0.18995 0.80162 0.0
H682 H 0.54722 0.13601 0.57865 0.0
H683 H 0.56954 0.19857 0.5723 0.0
H684 H 0.50648 0.15861 0.581 0.0
H685 H 0.65214 0.16446 0.74346 0.0
H686 H 0.64217 0.19324 0.7985 0.0
H687 H 0.67507 0.22731 0.74221 0.0
C688 C 0.31945 0.47445 0.04363 0.0
C689 C 0.28971 0.48991 0.06509 0.0
C690 C 0.35471 0.50239 0.00703 0.0
C691 C 0.36076 0.54718 0.99237 0.0
C692 C 0.32997 0.56239 0.01304 0.0
C693 C 0.29446 0.5333 0.04894 0.0
C694 C 0.38613 0.48447 0.98504 0.0
C695 C 0.33546 0.61002 0.99847 0.0
C696 C 0.48235 0.64461 0.94757 0.0
C697 C 0.47546 0.6458 0.89355 0.0
C698 C 0.4456 0.61202 0.97997 0.0
C699 C 0.40093 0.57941 0.95777 0.0
C700 C 0.39431 0.57894 0.903 0.0
C701 C 0.43169 0.61226 0.87148 0.0
C702 C 0.4542 0.61353 0.0382 0.0
C703 C 0.34735 0.54413 0.87793 0.0
H704 H 0.31525 0.44046 0.05559 0.0
H705 H 0.27128 0.54509 0.06547 0.0
H706 H 0.38711 0.48676 0.94173 0.0
H707 H 0.42319 0.50719 0.99924 0.0
H708 H 0.37376 0.447 0.99654 0.0
H709 H 0.30742 0.61568 0.01635 0.0
H710 H 0.37085 0.63905 0.01152 0.0
H711 H 0.33396 0.61296 0.95538 0.0
H712 H 0.51633 0.66977 0.96486 0.0
H713 H 0.42613 0.61283 0.82975 0.0
H714 H 0.44629 0.57797 0.05235 0.0
H715 H 0.42984 0.62276 0.05901 0.0
H716 H 0.49152 0.64001 0.04896 0.0
H717 H 0.33637 0.5072 0.8901 0.0
H718 H 0.34908 0.54607 0.83454 0.0
H719 H 0.31917 0.55163 0.89126 0.0
C720 C 0.82983 0.39017 0.43665 0.0
C721 C 0.83991 0.35595 0.41637 0.0
C722 C 0.82785 0.42386 0.40367 0.0
C723 C 0.83568 0.42279 0.3493 0.0
C724 C 0.84785 0.38963 0.32913 0.0
C725 C 0.85051 0.35716 0.36302 0.0
C726 C 0.81545 0.45924 0.42657 0.0
C727 C 0.85656 0.38728 0.27142 0.0
C728 C 0.7758 0.46249 0.25029 0.0
C729 C 0.81438 0.50503 0.23207 0.0
C730 C 0.78191 0.43639 0.29019 0.0
C731 C 0.82768 0.45356 0.31252 0.0
C732 C 0.86637 0.49762 0.29569 0.0
C733 C 0.8593 0.52272 0.25527 0.0
C734 C 0.73986 0.38931 0.30666 0.0
C735 C 0.91545 0.51759 0.31923 0.0
H736 H 0.82189 0.38965 0.47791 0.0
H737 H 0.85976 0.33182 0.34726 0.0
H738 H 0.84102 0.4958 0.41284 0.0
H739 H 0.77949 0.45078 0.41307 0.0
H740 H 0.81554 0.4589 0.47001 0.0
H741 H 0.86007 0.35586 0.26143 0.0
H742 H 0.82688 0.38548 0.24797 0.0
H743 H 0.88973 0.41997 0.25954 0.0
H744 H 0.74106 0.44891 0.23233 0.0
H745 H 0.88902 0.55611 0.24169 0.0
H746 H 0.73531 0.38819 0.34971 0.0
H747 H 0.74645 0.35994 0.29582 0.0
H748 H 0.70609 0.38261 0.28796 0.0
H749 H 0.91331 0.51611 0.36256 0.0
H750 H 0.93982 0.55505 0.30707 0.0
H751 H 0.93122 0.49568 0.30672 0.0
C752 C 0.35445 0.83098 0.61045 0.0
C753 C 0.35382 0.82112 0.55694 0.0
C754 C 0.38875 0.83118 0.64384 0.0
C755 C 0.42358 0.82152 0.62324 0.0
C756 C 0.4244 0.81329 0.56896 0.0
C757 C 0.38939 0.81314 0.53635 0.0
C758 C 0.38662 0.84014 0.70152 0.0
C759 C 0.46138 0.80333 0.54564 0.0
C760 C 0.52799 0.8535 0.71393 0.0
C761 C 0.51368 0.80954 0.73791 0.0
C762 C 0.50021 0.85761 0.6744 0.0
C763 C 0.45684 0.8169 0.65946 0.0
C764 C 0.4431 0.77217 0.68258 0.0
C765 C 0.47191 0.769 0.72137 0.0
C766 C 0.51651 0.9057 0.64988 0.0
C767 C 0.39702 0.72798 0.6679 0.0
H768 H 0.32761 0.83788 0.62669 0.0
H769 H 0.38932 0.80575 0.49501 0.0
H770 H 0.37908 0.80788 0.72412 0.0
H771 H 0.42152 0.86963 0.71505 0.0
H772 H 0.35865 0.84931 0.7108 0.0
H773 H 0.45967 0.80168 0.50225 0.0
H774 H 0.49769 0.83126 0.5576 0.0
H775 H 0.45598 0.76885 0.56061 0.0
H776 H 0.56077 0.88473 0.72625 0.0
H777 H 0.46099 0.73497 0.73987 0.0
H778 H 0.49278 0.9193 0.66265 0.0
H779 H 0.51419 0.90269 0.60663 0.0
H780 H 0.55374 0.93221 0.66091 0.0
H781 H 0.36639 0.73239 0.6793 0.0
H782 H 0.39302 0.69548 0.68723 0.0
H783 H 0.39513 0.72255 0.62495 0.0
C784 C 0.6394 0.48146 0.02846 0.0
C785 C 0.64123 0.4697 0.08088 0.0
C786 C 0.60484 0.44873 0.99429 0.0
C787 C 0.57049 0.40328 0.01316 0.0
C788 C 0.57024 0.39202 0.06673 0.0
C789 C 0.60586 0.42539 0.10004 0.0
C790 C 0.60643 0.46218 0.93741 0.0
C791 C 0.53352 0.34414 0.08834 0.0
C792 C 0.46785 0.33365 0.91937 0.0
C793 C 0.4834 0.30583 0.89346 0.0
C794 C 0.49444 0.36371 0.96075 0.0
C795 C 0.53795 0.36654 0.97546 0.0
C796 C 0.5529 0.33731 0.95029 0.0
C797 C 0.52519 0.30702 0.90981 0.0
C798 C 0.4767 0.39337 0.98757 0.0
C799 C 0.59928 0.33958 0.96445 0.0
H800 H 0.66567 0.51609 0.01362 0.0
H801 H 0.60674 0.41621 0.14062 0.0
H802 H 0.61191 0.43734 0.91241 0.0
H803 H 0.57199 0.45906 0.92586 0.0
H804 H 0.63547 0.49907 0.92914 0.0
H805 H 0.53457 0.34306 0.13172 0.0
H806 H 0.49717 0.33529 0.07595 0.0
H807 H 0.54 0.316 0.07256 0.0
H808 H 0.43498 0.33202 0.90722 0.0
H809 H 0.53705 0.28528 0.88983 0.0
H810 H 0.49921 0.43122 0.97593 0.0
H811 H 0.47944 0.39155 0.03066 0.0
H812 H 0.43908 0.38163 0.97722 0.0
H813 H 0.62957 0.37546 0.95499 0.0
H814 H 0.60436 0.31257 0.94316 0.0
H815 H 0.60061 0.33398 0.00705 0.0
loop_
_geom_bond_atom_site_label_1
_geom_bond_atom_site_label_2
_geom_bond_distance
_geom_bond_site_symmetry_2
_ccdc_geom_bond_type
Sm0 C2 2.846 . S
Sm0 O20 2.543 . S
Sm0 O21 2.450 . S
Sm0 O22 2.681 . S
Sm0 O23 2.464 . S
Sm0 O24 2.396 . S
Sm0 O28 2.386 . S
Sm0 O31 2.408 . S
Sm1 C11 2.846 . S
Sm1 O22 2.386 . S
Sm1 O25 2.408 . S
Sm1 O26 2.543 . S
Sm1 O27 2.450 . S
Sm1 O28 2.681 . S
Sm1 O29 2.464 . S
Sm1 O30 2.396 . S
C2 Sm0 2.846 . S
C2 C3 1.525 . S
C2 O20 1.261 . S
C2 O21 1.242 . S
C3 C2 1.525 . S
C3 C4 1.346 1_554 S
C3 C8 1.374 1_554 S
C4 C3 1.346 1_556 S
C4 C5 1.385 . S
C4 H32 0.930 . S
C5 C4 1.385 . S
C5 C6 1.395 . S
C5 H33 0.929 . S
C6 C5 1.395 . S
C6 C7 1.335 . S
C7 C6 1.335 . S
C7 C8 1.398 . S
C7 H34 0.930 . S
C8 C3 1.374 1_556 S
C8 C7 1.398 . S
C8 H35 0.925 1_556 S
C9 O22 1.271 . S
C9 O23 1.251 . S
C10 O24 1.252 . S
C10 O25 1.272 . S
C11 Sm1 2.846 . S
C11 C12 1.506 . S
C11 O26 1.261 . S
C11 O27 1.242 . S
C12 C11 1.506 . S
C12 C13 1.358 . S
C12 C17 1.382 . S
C13 C12 1.358 . S
C13 C14 1.385 . S
C13 H36 0.930 . S
C14 C13 1.385 . S
C14 C15 1.395 . S
C14 H37 0.929 . S
C15 C14 1.395 . S
C15 C16 1.335 . S
C16 C15 1.335 . S
C16 C17 1.398 . S
C16 H38 0.930 . S
C17 C12 1.382 . S
C17 C16 1.398 . S
C17 H39 0.929 . S
C18 O28 1.271 . S
C18 O29 1.251 . S
C19 O30 1.252 . S
C19 O31 1.272 . S
O20 Sm0 2.543 . S
O20 C2 1.261 . S
O21 Sm0 2.450 . S
O21 C2 1.242 . S
O22 Sm0 2.681 . S
O22 Sm1 2.386 . S
O22 C9 1.271 . S
O23 Sm0 2.464 . S
O23 C9 1.251 . S
O24 Sm0 2.396 . S
O24 C10 1.252 . S
O25 Sm1 2.408 . S
O25 C10 1.272 . S
O26 Sm1 2.543 . S
O26 C11 1.261 . S
O27 Sm1 2.450 . S
O27 C11 1.242 . S
O28 Sm0 2.386 . S
O28 Sm1 2.681 . S
O28 C18 1.271 . S
O29 Sm1 2.464 . S
O29 C18 1.251 . S
O30 Sm1 2.396 . S
O30 C19 1.252 . S
O31 Sm0 2.408 . S
O31 C19 1.272 . S
H32 C4 0.930 . S
H33 C5 0.929 . S
H34 C7 0.930 . S
H35 C8 0.925 1_554 S
H36 C13 0.930 . S
H37 C14 0.929 . S
H38 C16 0.930 . S
H39 C17 0.929 . S
Sm40 C42 2.846 . S
Sm40 O60 2.543 . S
Sm40 O61 2.450 . S
Sm40 O62 2.681 . S
Sm40 O63 2.464 . S
Sm40 O64 2.396 . S
Sm40 O68 2.386 . S
Sm40 O71 2.408 . S
Sm41 C51 2.846 . S
Sm41 O62 2.386 . S
Sm41 O65 2.408 . S
Sm41 O66 2.543 . S
Sm41 O67 2.450 . S
Sm41 O68 2.681 . S
Sm41 O69 2.464 . S
Sm41 O70 2.396 . S
C42 Sm40 2.846 . S
C42 C43 1.506 . S
C42 O60 1.261 . S
C42 O61 1.242 . S
C43 C42 1.506 . S
C43 C44 1.358 . S
C43 C48 1.382 . S
C44 C43 1.358 . S
C44 C45 1.385 . S
C44 H72 0.930 . S
C45 C44 1.385 . S
C45 C46 1.395 . S
C45 H73 0.929 . S
C46 C45 1.395 . S
C46 C47 1.335 . S
C47 C46 1.335 . S
C47 C48 1.398 . S
C47 H74 0.930 . S
C48 C43 1.382 . S
C48 C47 1.398 . S
C48 H75 0.929 . S
C49 O62 1.271 . S
C49 O63 1.251 . S
C50 O64 1.252 . S
C50 O65 1.272 . S
C51 Sm41 2.846 . S
C51 C52 1.506 . S
C51 O66 1.261 . S
C51 O67 1.242 . S
C52 C51 1.506 . S
C52 C53 1.358 . S
C52 C57 1.382 . S
C53 C52 1.358 . S
C53 C54 1.385 . S
C53 H76 0.930 . S
C54 C53 1.385 . S
C54 C55 1.395 . S
C54 H77 0.929 . S
C55 C54 1.395 . S
C55 C56 1.335 . S
C56 C55 1.335 . S
C56 C57 1.398 . S
C56 H78 0.930 . S
C57 C52 1.382 . S
C57 C56 1.398 . S
C57 H79 0.929 . S
C58 O68 1.271 . S
C58 O69 1.251 . S
C59 O70 1.252 . S
C59 O71 1.272 . S
O60 Sm40 2.543 . S
O60 C42 1.261 . S
O61 Sm40 2.450 . S
O61 C42 1.242 . S
O62 Sm40 2.681 . S
O62 Sm41 2.386 . S
O62 C49 1.271 . S
O63 Sm40 2.464 . S
O63 C49 1.251 . S
O64 Sm40 2.396 . S
O64 C50 1.252 . S
O65 Sm41 2.408 . S
O65 C50 1.272 . S
O66 Sm41 2.543 . S
O66 C51 1.261 . S
O67 Sm41 2.450 . S
O67 C51 1.242 . S
O68 Sm40 2.386 . S
O68 Sm41 2.681 . S
O68 C58 1.271 . S
O69 Sm41 2.464 . S
O69 C58 1.251 . S
O70 Sm41 2.396 . S
O70 C59 1.252 . S
O71 Sm40 2.408 . S
O71 C59 1.272 . S
H72 C44 0.930 . S
H73 C45 0.929 . S
H74 C47 0.930 . S
H75 C48 0.929 . S
H76 C53 0.930 . S
H77 C54 0.929 . S
H78 C56 0.930 . S
H79 C57 0.929 . S
Sm80 C82 2.846 . S
Sm80 O100 2.543 . S
Sm80 O101 2.450 . S
Sm80 O102 2.681 . S
Sm80 O103 2.464 . S
Sm80 O104 2.396 . S
Sm80 O108 2.386 . S
Sm80 O111 2.408 . S
Sm81 C91 2.846 1_556 S
Sm81 O102 2.386 . S
Sm81 O105 2.408 . S
Sm81 O106 2.543 1_556 S
Sm81 O107 2.450 1_556 S
Sm81 O108 2.681 . S
Sm81 O109 2.464 . S
Sm81 O110 2.396 . S
C82 Sm80 2.846 . S
C82 C83 1.506 . S
C82 O100 1.261 . S
C82 O101 1.242 . S
C83 C82 1.506 . S
C83 C84 1.358 . S
C83 C88 1.382 . S
C84 C83 1.358 . S
C84 C85 1.385 . S
C84 H112 0.930 . S
C85 C84 1.385 . S
C85 C86 1.395 . S
C85 H113 0.929 . S
C86 C85 1.395 . S
C86 C87 1.335 . S
C87 C86 1.335 . S
C87 C88 1.398 . S
C87 H114 0.930 . S
C88 C83 1.382 . S
C88 C87 1.398 . S
C88 H115 0.929 . S
C89 O102 1.271 . S
C89 O103 1.251 . S
C90 O104 1.252 . S
C90 O105 1.272 . S
C91 Sm81 2.846 1_554 S
C91 C92 1.506 . S
C91 O106 1.261 . S
C91 O107 1.242 . S
C92 C91 1.506 . S
C92 C93 1.358 . S
C92 C97 1.382 . S
C93 C92 1.358 . S
C93 C94 1.385 . S
C93 H116 0.930 . S
C94 C93 1.385 . S
C94 C95 1.395 . S
C94 H117 0.929 . S
C95 C94 1.395 . S
C95 C96 1.335 . S
C96 C95 1.335 . S
C96 C97 1.398 . S
C96 H118 0.930 . S
C97 C92 1.382 . S
C97 C96 1.398 . S
C97 H119 0.929 . S
C98 O108 1.271 . S
C98 O109 1.251 . S
C99 O110 1.252 . S
C99 O111 1.272 . S
O100 Sm80 2.543 . S
O100 C82 1.261 . S
O101 Sm80 2.450 . S
O101 C82 1.242 . S
O102 Sm80 2.681 . S
O102 Sm81 2.386 . S
O102 C89 1.271 . S
O103 Sm80 2.464 . S
O103 C89 1.251 . S
O104 Sm80 2.396 . S
O104 C90 1.252 . S
O105 Sm81 2.408 . S
O105 C90 1.272 . S
O106 Sm81 2.543 1_554 S
O106 C91 1.261 . S
O107 Sm81 2.450 1_554 S
O107 C91 1.242 . S
O108 Sm80 2.386 . S
O108 Sm81 2.681 . S
O108 C98 1.271 . S
O109 Sm81 2.464 . S
O109 C98 1.251 . S
O110 Sm81 2.396 . S
O110 C99 1.252 . S
O111 Sm80 2.408 . S
O111 C99 1.272 . S
H112 C84 0.930 . S
H113 C85 0.929 . S
H114 C87 0.930 . S
H115 C88 0.929 . S
H116 C93 0.930 . S
H117 C94 0.929 . S
H118 C96 0.930 . S
H119 C97 0.929 . S
Sm120 C122 2.846 . S
Sm120 O140 2.543 . S
Sm120 O141 2.450 . S
Sm120 O142 2.681 . S
Sm120 O143 2.464 . S
Sm120 O144 2.396 . S
Sm120 O148 2.386 . S
Sm120 O151 2.408 . S
Sm121 C131 2.846 1_554 S
Sm121 O142 2.386 . S
Sm121 O145 2.408 . S
Sm121 O146 2.543 1_554 S
Sm121 O147 2.450 1_554 S
Sm121 O148 2.681 . S
Sm121 O149 2.464 . S
Sm121 O150 2.396 1_554 S
C122 Sm120 2.846 . S
C122 C123 1.506 . S
C122 O140 1.261 . S
C122 O141 1.242 . S
C123 C122 1.506 . S
C123 C124 1.358 . S
C123 C128 1.382 . S
C124 C123 1.358 . S
C124 C125 1.385 . S
C124 H152 0.930 . S
C125 C124 1.385 . S
C125 C126 1.395 . S
C125 H153 0.929 . S
C126 C125 1.395 . S
C126 C127 1.335 . S
C127 C126 1.335 . S
C127 C128 1.398 . S
C127 H154 0.930 . S
C128 C123 1.382 . S
C128 C127 1.398 . S
C128 H155 0.929 . S
C129 O142 1.271 . S
C129 O143 1.251 . S
C130 O144 1.252 . S
C130 O145 1.272 . S
C131 Sm121 2.846 1_556 S
C131 C132 1.506 . S
C131 O146 1.261 . S
C131 O147 1.242 . S
C132 C131 1.506 . S
C132 C133 1.358 . S
C132 C137 1.382 . S
C133 C132 1.358 . S
C133 C134 1.385 . S
C133 H156 0.930 . S
C134 C133 1.385 . S
C134 C135 1.395 . S
C134 H157 0.929 . S
C135 C134 1.395 . S
C135 C136 1.335 . S
C136 C135 1.335 . S
C136 C137 1.398 . S
C136 H158 0.930 . S
C137 C132 1.382 . S
C137 C136 1.398 . S
C137 H159 0.929 . S
C138 O148 1.271 . S
C138 O149 1.251 . S
C139 O150 1.252 . S
C139 O151 1.272 1_556 S
O140 Sm120 2.543 . S
O140 C122 1.261 . S
O141 Sm120 2.450 . S
O141 C122 1.242 . S
O142 Sm120 2.681 . S
O142 Sm121 2.386 . S
O142 C129 1.271 . S
O143 Sm120 2.464 . S
O143 C129 1.251 . S
O144 Sm120 2.396 . S
O144 C130 1.252 . S
O145 Sm121 2.408 . S
O145 C130 1.272 . S
O146 Sm121 2.543 1_556 S
O146 C131 1.261 . S
O147 Sm121 2.450 1_556 S
O147 C131 1.242 . S
O148 Sm120 2.386 . S
O148 Sm121 2.681 . S
O148 C138 1.271 . S
O149 Sm121 2.464 . S
O149 C138 1.251 . S
O150 Sm121 2.396 1_556 S
O150 C139 1.252 . S
O151 Sm120 2.408 . S
O151 C139 1.272 1_554 S
H152 C124 0.930 . S
H153 C125 0.929 . S
H154 C127 0.930 . S
H155 C128 0.929 . S
H156 C133 0.930 . S
H157 C134 0.929 . S
H158 C136 0.930 . S
H159 C137 0.929 . S
Sm160 C162 2.846 . S
Sm160 O180 2.543 . S
Sm160 O181 2.450 . S
Sm160 O182 2.681 . S
Sm160 O183 2.464 . S
Sm160 O184 2.396 . S
Sm160 O188 2.386 . S
Sm160 O191 2.408 . S
Sm161 C171 2.846 . S
Sm161 O182 2.386 . S
Sm161 O185 2.408 . S
Sm161 O186 2.543 . S
Sm161 O187 2.450 . S
Sm161 O188 2.681 . S
Sm161 O189 2.464 . S
Sm161 O190 2.396 . S
C162 Sm160 2.846 . S
C162 C163 1.506 . S
C162 O180 1.261 . S
C162 O181 1.242 . S
C163 C162 1.506 . S
C163 C164 1.358 . S
C163 C168 1.382 . S
C164 C163 1.358 . S
C164 C165 1.385 . S
C164 H192 0.930 . S
C165 C164 1.385 . S
C165 C166 1.395 . S
C165 H193 0.929 . S
C166 C165 1.395 . S
C166 C167 1.335 . S
C167 C166 1.335 . S
C167 C168 1.398 . S
C167 H194 0.930 . S
C168 C163 1.382 . S
C168 C167 1.398 . S
C168 H195 0.929 . S
C169 O182 1.271 . S
C169 O183 1.251 . S
C170 O184 1.252 . S
C170 O185 1.272 . S
C171 Sm161 2.846 . S
C171 C172 1.506 . S
C171 O186 1.261 . S
C171 O187 1.242 . S
C172 C171 1.506 . S
C172 C173 1.358 . S
C172 C177 1.382 . S
C173 C172 1.358 . S
C173 C174 1.385 . S
C173 H196 0.930 . S
C174 C173 1.385 . S
C174 C175 1.395 . S
C174 H197 0.929 . S
C175 C174 1.395 . S
C175 C176 1.335 . S
C176 C175 1.335 . S
C176 C177 1.398 . S
C176 H198 0.930 . S
C177 C172 1.382 . S
C177 C176 1.398 . S
C177 H199 0.929 . S
C178 O188 1.271 . S
C178 O189 1.251 . S
C179 O190 1.252 . S
C179 O191 1.272 . S
O180 Sm160 2.543 . S
O180 C162 1.261 . S
O181 Sm160 2.450 . S
O181 C162 1.242 . S
O182 Sm160 2.681 . S
O182 Sm161 2.386 . S
O182 C169 1.271 . S
O183 Sm160 2.464 . S
O183 C169 1.251 . S
O184 Sm160 2.396 . S
O184 C170 1.252 . S
O185 Sm161 2.408 . S
O185 C170 1.272 . S
O186 Sm161 2.543 . S
O186 C171 1.261 . S
O187 Sm161 2.450 . S
O187 C171 1.242 . S
O188 Sm160 2.386 . S
O188 Sm161 2.681 . S
O188 C178 1.271 . S
O189 Sm161 2.464 . S
O189 C178 1.251 . S
O190 Sm161 2.396 . S
O190 C179 1.252 . S
O191 Sm160 2.408 . S
O191 C179 1.272 . S
H192 C164 0.930 . S
H193 C165 0.929 . S
H194 C167 0.930 . S
H195 C168 0.929 . S
H196 C173 0.930 . S
H197 C174 0.929 . S
H198 C176 0.930 . S
H199 C177 0.929 . S
Sm200 C202 2.846 . S
Sm200 O220 2.543 . S
Sm200 O221 2.450 . S
Sm200 O222 2.681 . S
Sm200 O223 2.464 . S
Sm200 O224 2.396 . S
Sm200 O228 2.386 . S
Sm200 O231 2.408 . S
Sm201 C211 2.846 . S
Sm201 O222 2.386 . S
Sm201 O225 2.408 . S
Sm201 O226 2.543 . S
Sm201 O227 2.450 . S
Sm201 O228 2.681 . S
Sm201 O229 2.464 . S
Sm201 O230 2.396 . S
C202 Sm200 2.846 . S
C202 C203 1.506 . S
C202 O220 1.261 . S
C202 O221 1.242 . S
C203 C202 1.506 . S
C203 C204 1.358 . S
C203 C208 1.382 . S
C204 C203 1.358 . S
C204 C205 1.385 1_556 S
C204 H232 0.930 . S
C205 C204 1.385 1_554 S
C205 C206 1.395 . S
C205 H233 0.929 . S
C206 C205 1.395 . S
C206 C207 1.335 . S
C207 C206 1.335 . S
C207 C208 1.398 1_554 S
C207 H234 0.930 . S
C208 C203 1.382 . S
C208 C207 1.398 1_556 S
C208 H235 0.929 . S
C209 O222 1.271 . S
C209 O223 1.251 . S
C210 O224 1.252 . S
C210 O225 1.272 . S
C211 Sm201 2.846 . S
C211 C212 1.506 . S
C211 O226 1.261 . S
C211 O227 1.242 . S
C212 C211 1.506 . S
C212 C213 1.358 . S
C212 C217 1.382 . S
C213 C212 1.358 . S
C213 C214 1.385 . S
C213 H236 0.930 . S
C214 C213 1.385 . S
C214 C215 1.395 . S
C214 H237 0.929 . S
C215 C214 1.395 . S
C215 C216 1.335 . S
C216 C215 1.335 . S
C216 C217 1.398 . S
C216 H238 0.930 . S
C217 C212 1.382 . S
C217 C216 1.398 . S
C217 H239 0.929 . S
C218 O228 1.271 . S
C218 O229 1.251 . S
C219 O230 1.252 . S
C219 O231 1.272 . S
O220 Sm200 2.543 . S
O220 C202 1.261 . S
O221 Sm200 2.450 . S
O221 C202 1.242 . S
O222 Sm200 2.681 . S
O222 Sm201 2.386 . S
O222 C209 1.271 . S
O223 Sm200 2.464 . S
O223 C209 1.251 . S
O224 Sm200 2.396 . S
O224 C210 1.252 . S
O225 Sm201 2.408 . S
O225 C210 1.272 . S
O226 Sm201 2.543 . S
O226 C211 1.261 . S
O227 Sm201 2.450 . S
O227 C211 1.242 . S
O228 Sm200 2.386 . S
O228 Sm201 2.681 . S
O228 C218 1.271 . S
O229 Sm201 2.464 . S
O229 C218 1.251 . S
O230 Sm201 2.396 . S
O230 C219 1.252 . S
O231 Sm200 2.408 . S
O231 C219 1.272 . S
H232 C204 0.930 . S
H233 C205 0.929 . S
H234 C207 0.930 . S
H235 C208 0.929 . S
H236 C213 0.930 . S
H237 C214 0.929 . S
H238 C216 0.930 . S
H239 C217 0.929 . S
C240 C241 1.391 . S
C240 C242 1.394 . S
C240 H256 0.931 . S
C241 C240 1.391 . S
C241 C245 1.376 . S
C242 C240 1.394 . S
C242 C243 1.369 . S
C242 C246 1.531 . S
C243 C242 1.369 . S
C243 C244 1.410 . S
C243 C251 1.505 1_556 S
C244 C243 1.410 . S
C244 C245 1.392 . S
C244 C247 1.511 . S
C245 C241 1.376 . S
C245 C244 1.392 . S
C245 H257 0.929 . S
C246 C242 1.531 . S
C246 H258 0.960 . S
C246 H259 0.962 . S
C246 H260 0.960 . S
C247 C244 1.511 . S
C247 H261 0.961 . S
C247 H262 0.961 . S
C247 H263 0.961 . S
C248 C249 1.370 . S
C248 C250 1.363 . S
C248 H264 0.931 . S
C249 C248 1.370 . S
C249 C253 1.408 . S
C250 C248 1.363 . S
C250 C251 1.369 . S
C250 C254 1.524 . S
C251 C243 1.505 1_554 S
C251 C250 1.369 . S
C251 C252 1.402 . S
C252 C251 1.402 . S
C252 C253 1.404 . S
C252 C255 1.539 1_554 S
C253 C249 1.408 . S
C253 C252 1.404 . S
C253 H265 0.930 . S
C254 C250 1.524 . S
C254 H266 0.956 . S
C254 H267 0.961 . S
C254 H268 0.961 . S
C255 C252 1.539 1_556 S
C255 H269 0.958 . S
C255 H270 0.961 . S
C255 H271 0.960 . S
H256 C240 0.931 . S
H257 C245 0.929 . S
H258 C246 0.960 . S
H259 C246 0.962 . S
H260 C246 0.960 . S
H261 C247 0.961 . S
H262 C247 0.961 . S
H263 C247 0.961 . S
H264 C248 0.931 . S
H265 C253 0.930 . S
H266 C254 0.956 . S
H267 C254 0.961 . S
H268 C254 0.961 . S
H269 C255 0.958 . S
H270 C255 0.961 . S
H271 C255 0.960 . S
C272 C273 1.391 . S
C272 C274 1.394 . S
C272 H288 0.931 . S
C273 C272 1.391 . S
C273 C277 1.376 . S
C274 C272 1.394 . S
C274 C275 1.369 . S
C274 C278 1.531 . S
C275 C274 1.369 . S
C275 C276 1.410 . S
C275 C283 1.503 1_455 S
C276 C275 1.410 . S
C276 C277 1.392 . S
C276 C279 1.511 . S
C277 C273 1.376 . S
C277 C276 1.392 . S
C277 H289 0.929 . S
C278 C274 1.531 . S
C278 H290 0.946 1_455 S
C278 H291 0.962 . S
C278 H292 0.960 . S
C279 C276 1.511 . S
C279 H293 0.961 . S
C279 H294 0.961 . S
C279 H295 0.961 . S
C280 C281 1.370 . S
C280 C282 1.363 . S
C280 H296 0.931 . S
C281 C280 1.370 . S
C281 C285 1.408 . S
C282 C280 1.363 . S
C282 C283 1.370 . S
C282 C286 1.524 . S
C283 C275 1.503 1_655 S
C283 C282 1.370 . S
C283 C284 1.403 . S
C284 C283 1.403 . S
C284 C285 1.404 . S
C284 C287 1.539 1_655 S
C285 C281 1.408 . S
C285 C284 1.404 . S
C285 H297 0.930 . S
C286 C282 1.524 . S
C286 H298 0.956 . S
C286 H299 0.961 . S
C286 H300 0.961 . S
C287 C284 1.539 1_455 S
C287 H301 0.958 . S
C287 H302 0.961 1_455 S
C287 H303 0.960 . S
H288 C272 0.931 . S
H289 C277 0.929 . S
H290 C278 0.946 1_655 S
H291 C278 0.962 . S
H292 C278 0.960 . S
H293 C279 0.961 . S
H294 C279 0.961 . S
H295 C279 0.961 . S
H296 C280 0.931 . S
H297 C285 0.930 . S
H298 C286 0.956 . S
H299 C286 0.961 . S
H300 C286 0.961 . S
H301 C287 0.958 . S
H302 C287 0.961 1_655 S
H303 C287 0.960 . S
C304 C305 1.391 . S
C304 C306 1.394 . S
C304 H320 0.931 . S
C305 C304 1.391 . S
C305 C309 1.376 . S
C306 C304 1.394 . S
C306 C307 1.369 . S
C306 C310 1.531 1_545 S
C307 C306 1.369 . S
C307 C308 1.410 . S
C307 C315 1.503 1_545 S
C308 C307 1.410 . S
C308 C309 1.392 . S
C308 C311 1.511 . S
C309 C305 1.376 . S
C309 C308 1.392 . S
C309 H321 0.929 . S
C310 C306 1.531 1_565 S
C310 H322 0.960 1_565 S
C310 H323 0.962 . S
C310 H324 0.960 1_565 S
C311 C308 1.511 . S
C311 H325 0.961 . S
C311 H326 0.961 . S
C311 H327 0.961 . S
C312 C313 1.370 . S
C312 C314 1.363 . S
C312 H328 0.931 . S
C313 C312 1.370 . S
C313 C317 1.394 1_565 S
C314 C312 1.363 . S
C314 C315 1.370 . S
C314 C318 1.524 . S
C315 C307 1.503 1_565 S
C315 C314 1.370 . S
C315 C316 1.403 1_565 S
C316 C315 1.403 1_545 S
C316 C317 1.412 . S
C316 C319 1.539 . S
C317 C313 1.394 1_545 S
C317 C316 1.412 . S
C317 H329 0.937 . S
C318 C314 1.524 . S
C318 H330 0.956 . S
C318 H331 0.961 . S
C318 H332 0.961 . S
C319 C316 1.539 . S
C319 H333 0.958 . S
C319 H334 0.961 . S
C319 H335 0.960 . S
H320 C304 0.931 . S
H321 C309 0.929 . S
H322 C310 0.960 1_545 S
H323 C310 0.962 . S
H324 C310 0.960 1_545 S
H325 C311 0.961 . S
H326 C311 0.961 . S
H327 C311 0.961 . S
H328 C312 0.931 . S
H329 C317 0.937 . S
H330 C318 0.956 . S
H331 C318 0.961 . S
H332 C318 0.961 . S
H333 C319 0.958 . S
H334 C319 0.961 . S
H335 C319 0.960 . S
C336 C337 1.391 . S
C336 C338 1.394 . S
C336 H352 0.931 1_556 S
C337 C336 1.391 . S
C337 C341 1.376 . S
C338 C336 1.394 . S
C338 C339 1.369 . S
C338 C342 1.531 1_556 S
C339 C338 1.369 . S
C339 C340 1.410 . S
C339 C347 1.503 . S
C340 C339 1.410 . S
C340 C341 1.392 . S
C340 C343 1.511 . S
C341 C337 1.376 . S
C341 C340 1.392 . S
C341 H353 0.929 . S
C342 C338 1.531 1_554 S
C342 H354 0.960 . S
C342 H355 0.962 . S
C342 H356 0.960 . S
C343 C340 1.511 . S
C343 H357 0.961 . S
C343 H358 0.961 . S
C343 H359 0.961 . S
C344 C345 1.370 . S
C344 C346 1.363 . S
C344 H360 0.931 . S
C345 C344 1.370 . S
C345 C349 1.408 1_554 S
C346 C344 1.363 . S
C346 C347 1.370 1_554 S
C346 C350 1.524 . S
C347 C339 1.503 . S
C347 C346 1.370 1_556 S
C347 C348 1.403 . S
C348 C347 1.403 . S
C348 C349 1.404 . S
C348 C351 1.539 . S
C349 C345 1.408 1_556 S
C349 C348 1.404 . S
C349 H361 0.930 . S
C350 C346 1.524 . S
C350 H362 0.956 . S
C350 H363 0.961 1_554 S
C350 H364 0.961 . S
C351 C348 1.539 . S
C351 H365 0.958 . S
C351 H366 0.961 . S
C351 H367 0.960 . S
H352 C336 0.931 1_554 S
H353 C341 0.929 . S
H354 C342 0.960 . S
H355 C342 0.962 . S
H356 C342 0.960 . S
H357 C343 0.961 . S
H358 C343 0.961 . S
H359 C343 0.961 . S
H360 C344 0.931 . S
H361 C349 0.930 . S
H362 C350 0.956 . S
H363 C350 0.961 1_556 S
H364 C350 0.961 . S
H365 C351 0.958 . S
H366 C351 0.961 . S
H367 C351 0.960 . S
C368 C369 1.391 . S
C368 C370 1.394 . S
C368 H384 0.931 . S
C369 C368 1.391 . S
C369 C373 1.376 . S
C370 C368 1.394 . S
C370 C371 1.369 . S
C370 C374 1.531 . S
C371 C370 1.369 . S
C371 C372 1.410 1_455 S
C371 C379 1.503 1_455 S
C372 C371 1.410 1_655 S
C372 C373 1.392 1_655 S
C372 C375 1.511 . S
C373 C369 1.376 . S
C373 C372 1.392 1_455 S
C373 H385 0.929 1_455 S
C374 C370 1.531 . S
C374 H386 0.960 . S
C374 H387 0.962 . S
C374 H388 0.960 . S
C375 C372 1.511 . S
C375 H389 0.961 . S
C375 H390 0.961 . S
C375 H391 0.961 . S
C376 C377 1.370 . S
C376 C378 1.365 . S
C376 H392 0.931 . S
C377 C376 1.370 . S
C377 C381 1.408 . S
C378 C376 1.365 . S
C378 C379 1.370 . S
C378 C382 1.523 1_655 S
C379 C371 1.503 1_655 S
C379 C378 1.370 . S
C379 C380 1.403 . S
C380 C379 1.403 . S
C380 C381 1.404 . S
C380 C383 1.539 . S
C381 C377 1.408 . S
C381 C380 1.404 . S
C381 H393 0.930 . S
C382 C378 1.523 1_455 S
C382 H394 0.956 . S
C382 H395 0.961 . S
C382 H396 0.961 . S
C383 C380 1.539 . S
C383 H397 0.958 . S
C383 H398 0.961 . S
C383 H399 0.960 . S
H384 C368 0.931 . S
H385 C373 0.929 1_655 S
H386 C374 0.960 . S
H387 C374 0.962 . S
H388 C374 0.960 . S
H389 C375 0.961 . S
H390 C375 0.961 . S
H391 C375 0.961 . S
H392 C376 0.931 . S
H393 C381 0.930 . S
H394 C382 0.956 . S
H395 C382 0.961 . S
H396 C382 0.961 . S
H397 C383 0.958 . S
H398 C383 0.961 . S
H399 C383 0.960 . S
C400 C401 1.391 . S
C400 C402 1.394 . S
C400 H416 0.931 . S
C401 C400 1.391 . S
C401 C405 1.376 . S
C402 C400 1.394 . S
C402 C403 1.369 . S
C402 C406 1.531 1_545 S
C403 C402 1.369 . S
C403 C404 1.410 . S
C403 C411 1.503 1_545 S
C404 C403 1.410 . S
C404 C405 1.392 . S
C404 C407 1.511 . S
C405 C401 1.376 . S
C405 C404 1.392 . S
C405 H417 0.929 . S
C406 C402 1.531 1_565 S
C406 H418 0.960 . S
C406 H419 0.962 . S
C406 H420 0.960 1_565 S
C407 C404 1.511 . S
C407 H421 0.961 . S
C407 H422 0.961 . S
C407 H423 0.961 . S
C408 C409 1.370 . S
C408 C410 1.363 . S
C408 H424 0.931 . S
C409 C408 1.370 . S
C409 C413 1.408 . S
C410 C408 1.363 . S
C410 C411 1.370 . S
C410 C414 1.524 . S
C411 C403 1.503 1_565 S
C411 C410 1.370 . S
C411 C412 1.403 . S
C412 C411 1.403 . S
C412 C413 1.404 . S
C412 C415 1.539 . S
C413 C409 1.408 . S
C413 C412 1.404 . S
C413 H425 0.930 . S
C414 C410 1.524 . S
C414 H426 0.956 . S
C414 H427 0.961 1_565 S
C414 H428 0.961 . S
C415 C412 1.539 . S
C415 H429 0.958 . S
C415 H430 0.961 . S
C415 H431 0.960 1_565 S
H416 C400 0.931 . S
H417 C405 0.929 . S
H418 C406 0.960 . S
H419 C406 0.962 . S
H420 C406 0.960 1_545 S
H421 C407 0.961 . S
H422 C407 0.961 . S
H423 C407 0.961 . S
H424 C408 0.931 . S
H425 C413 0.930 . S
H426 C414 0.956 . S
H427 C414 0.961 1_545 S
H428 C414 0.961 . S
H429 C415 0.958 . S
H430 C415 0.961 . S
H431 C415 0.960 1_545 S
C432 C433 1.391 . S
C432 C434 1.394 . S
C432 H448 0.931 . S
C433 C432 1.391 . S
C433 C437 1.376 . S
C434 C432 1.394 . S
C434 C435 1.369 . S
C434 C438 1.531 . S
C435 C434 1.369 . S
C435 C436 1.410 . S
C435 C443 1.503 . S
C436 C435 1.410 . S
C436 C437 1.392 . S
C436 C439 1.511 . S
C437 C433 1.376 . S
C437 C436 1.392 . S
C437 H449 0.929 . S
C438 C434 1.531 . S
C438 H450 0.960 . S
C438 H451 0.962 . S
C438 H452 0.960 . S
C439 C436 1.511 . S
C439 H453 0.961 . S
C439 H454 0.961 . S
C439 H455 0.961 . S
C440 C441 1.370 . S
C440 C442 1.363 . S
C440 H456 0.931 . S
C441 C440 1.370 . S
C441 C445 1.408 . S
C442 C440 1.363 . S
C442 C443 1.370 . S
C442 C446 1.524 . S
C443 C435 1.503 . S
C443 C442 1.370 . S
C443 C444 1.403 . S
C444 C443 1.403 . S
C444 C445 1.404 . S
C444 C447 1.539 . S
C445 C441 1.408 . S
C445 C444 1.404 . S
C445 H457 0.930 . S
C446 C442 1.524 . S
C446 H458 0.956 . S
C446 H459 0.961 . S
C446 H460 0.961 . S
C447 C444 1.539 . S
C447 H461 0.958 . S
C447 H462 0.961 . S
C447 H463 0.960 . S
H448 C432 0.931 . S
H449 C437 0.929 . S
H450 C438 0.960 . S
H451 C438 0.962 . S
H452 C438 0.960 . S
H453 C439 0.961 . S
H454 C439 0.961 . S
H455 C439 0.961 . S
H456 C440 0.931 . S
H457 C445 0.930 . S
H458 C446 0.956 . S
H459 C446 0.961 . S
H460 C446 0.961 . S
H461 C447 0.958 . S
H462 C447 0.961 . S
H463 C447 0.960 . S
C464 C465 1.391 . S
C464 C466 1.394 1_554 S
C464 H480 0.931 . S
C465 C464 1.391 . S
C465 C469 1.376 1_554 S
C466 C464 1.394 1_556 S
C466 C467 1.369 . S
C466 C470 1.531 . S
C467 C466 1.369 . S
C467 C468 1.410 . S
C467 C475 1.503 . S
C468 C467 1.410 . S
C468 C469 1.392 . S
C468 C471 1.511 . S
C469 C465 1.376 1_556 S
C469 C468 1.392 . S
C469 H481 0.929 . S
C470 C466 1.531 . S
C470 H482 0.960 . S
C470 H483 0.962 . S
C470 H484 0.960 . S
C471 C468 1.511 . S
C471 H485 0.961 . S
C471 H486 0.961 . S
C471 H487 0.961 . S
C472 C473 1.370 . S
C472 C474 1.363 . S
C472 H488 0.931 . S
C473 C472 1.370 . S
C473 C477 1.408 . S
C474 C472 1.363 . S
C474 C475 1.370 . S
C474 C478 1.524 . S
C475 C467 1.503 . S
C475 C474 1.370 . S
C475 C476 1.403 . S
C476 C475 1.403 . S
C476 C477 1.404 . S
C476 C479 1.539 . S
C477 C473 1.408 . S
C477 C476 1.404 . S
C477 H489 0.930 . S
C478 C474 1.524 . S
C478 H490 0.956 . S
C478 H491 0.961 . S
C478 H492 0.961 . S
C479 C476 1.539 . S
C479 H493 0.958 . S
C479 H494 0.961 . S
C479 H495 0.960 . S
H480 C464 0.931 . S
H481 C469 0.929 . S
H482 C470 0.960 . S
H483 C470 0.962 . S
H484 C470 0.960 . S
H485 C471 0.961 . S
H486 C471 0.961 . S
H487 C471 0.961 . S
H488 C472 0.931 . S
H489 C477 0.930 . S
H490 C478 0.956 . S
H491 C478 0.961 . S
H492 C478 0.961 . S
H493 C479 0.958 . S
H494 C479 0.961 . S
H495 C479 0.960 . S
C496 C497 1.391 . S
C496 C498 1.394 . S
C496 H512 0.931 . S
C497 C496 1.391 . S
C497 C501 1.376 . S
C498 C496 1.394 . S
C498 C499 1.369 . S
C498 C502 1.531 . S
C499 C498 1.369 . S
C499 C500 1.410 . S
C499 C507 1.503 . S
C500 C499 1.410 . S
C500 C501 1.392 . S
C500 C503 1.511 . S
C501 C497 1.376 . S
C501 C500 1.392 . S
C501 H513 0.929 . S
C502 C498 1.531 . S
C502 H514 0.960 . S
C502 H515 0.962 . S
C502 H516 0.960 . S
C503 C500 1.511 . S
C503 H517 0.961 . S
C503 H518 0.961 . S
C503 H519 0.961 . S
C504 C505 1.370 . S
C504 C506 1.363 . S
C504 H520 0.931 . S
C505 C504 1.370 . S
C505 C509 1.408 . S
C506 C504 1.363 . S
C506 C507 1.370 . S
C506 C510 1.524 . S
C507 C499 1.503 . S
C507 C506 1.370 . S
C507 C508 1.403 . S
C508 C507 1.403 . S
C508 C509 1.404 . S
C508 C511 1.539 . S
C509 C505 1.408 . S
C509 C508 1.404 . S
C509 H521 0.930 . S
C510 C506 1.524 . S
C510 H522 0.956 . S
C510 H523 0.961 . S
C510 H524 0.961 . S
C511 C508 1.539 . S
C511 H525 0.958 . S
C511 H526 0.961 . S
C511 H527 0.960 . S
H512 C496 0.931 . S
H513 C501 0.929 . S
H514 C502 0.960 . S
H515 C502 0.962 . S
H516 C502 0.960 . S
H517 C503 0.961 . S
H518 C503 0.961 . S
H519 C503 0.961 . S
H520 C504 0.931 . S
H521 C509 0.930 . S
H522 C510 0.956 . S
H523 C510 0.961 . S
H524 C510 0.961 . S
H525 C511 0.958 . S
H526 C511 0.961 . S
H527 C511 0.960 . S
C528 C529 1.391 . S
C528 C530 1.394 . S
C528 H544 0.931 . S
C529 C528 1.391 . S
C529 C533 1.376 . S
C530 C528 1.394 . S
C530 C531 1.369 . S
C530 C534 1.531 . S
C531 C530 1.369 . S
C531 C532 1.410 . S
C531 C539 1.503 . S
C532 C531 1.410 . S
C532 C533 1.392 . S
C532 C535 1.511 . S
C533 C529 1.376 . S
C533 C532 1.392 . S
C533 H545 0.929 . S
C534 C530 1.531 . S
C534 H546 0.960 . S
C534 H547 0.962 . S
C534 H548 0.960 . S
C535 C532 1.511 . S
C535 H549 0.961 . S
C535 H550 0.961 . S
C535 H551 0.961 . S
C536 C537 1.370 . S
C536 C538 1.363 . S
C536 H552 0.931 . S
C537 C536 1.370 . S
C537 C541 1.408 . S
C538 C536 1.363 . S
C538 C539 1.370 . S
C538 C542 1.524 . S
C539 C531 1.503 . S
C539 C538 1.370 . S
C539 C540 1.403 . S
C540 C539 1.403 . S
C540 C541 1.404 . S
C540 C543 1.539 . S
C541 C537 1.408 . S
C541 C540 1.404 . S
C541 H553 0.930 . S
C542 C538 1.524 . S
C542 H554 0.956 . S
C542 H555 0.961 . S
C542 H556 0.961 . S
C543 C540 1.539 . S
C543 H557 0.958 . S
C543 H558 0.961 . S
C543 H559 0.960 . S
H544 C528 0.931 . S
H545 C533 0.929 . S
H546 C534 0.960 . S
H547 C534 0.962 . S
H548 C534 0.960 . S
H549 C535 0.961 . S
H550 C535 0.961 . S
H551 C535 0.961 . S
H552 C536 0.931 . S
H553 C541 0.930 . S
H554 C542 0.956 . S
H555 C542 0.961 . S
H556 C542 0.961 . S
H557 C543 0.958 . S
H558 C543 0.961 . S
H559 C543 0.960 . S
C560 C561 1.391 . S
C560 C562 1.394 . S
C560 H576 0.931 . S
C561 C560 1.391 . S
C561 C565 1.376 . S
C562 C560 1.394 . S
C562 C563 1.369 1_556 S
C562 C566 1.531 1_556 S
C563 C562 1.369 1_554 S
C563 C564 1.410 . S
C563 C571 1.503 . S
C564 C563 1.410 . S
C564 C565 1.392 1_554 S
C564 C567 1.511 . S
C565 C561 1.376 . S
C565 C564 1.392 1_556 S
C565 H577 0.929 . S
C566 C562 1.531 1_554 S
C566 H578 0.960 . S
C566 H579 0.962 . S
C566 H580 0.960 1_554 S
C567 C564 1.511 . S
C567 H581 0.961 . S
C567 H582 0.961 . S
C567 H583 0.961 . S
C568 C569 1.370 . S
C568 C570 1.363 . S
C568 H584 0.931 . S
C569 C568 1.370 . S
C569 C573 1.408 . S
C570 C568 1.363 . S
C570 C571 1.370 . S
C570 C574 1.524 . S
C571 C563 1.503 . S
C571 C570 1.370 . S
C571 C572 1.403 . S
C572 C571 1.403 . S
C572 C573 1.404 . S
C572 C575 1.539 . S
C573 C569 1.408 . S
C573 C572 1.404 . S
C573 H585 0.930 . S
C574 C570 1.524 . S
C574 H586 0.956 . S
C574 H587 0.961 . S
C574 H588 0.961 . S
C575 C572 1.539 . S
C575 H589 0.958 . S
C575 H590 0.961 . S
C575 H591 0.960 . S
H576 C560 0.931 . S
H577 C565 0.929 . S
H578 C566 0.960 . S
H579 C566 0.962 . S
H580 C566 0.960 1_556 S
H581 C567 0.961 . S
H582 C567 0.961 . S
H583 C567 0.961 . S
H584 C568 0.931 . S
H585 C573 0.930 . S
H586 C574 0.956 . S
H587 C574 0.961 . S
H588 C574 0.961 . S
H589 C575 0.958 . S
H590 C575 0.961 . S
H591 C575 0.960 . S
C592 C593 1.391 . S
C592 C594 1.394 . S
C592 H608 0.931 . S
C593 C592 1.391 . S
C593 C597 1.376 . S
C594 C592 1.394 . S
C594 C595 1.369 . S
C594 C598 1.531 . S
C595 C594 1.369 . S
C595 C596 1.410 . S
C595 C603 1.503 . S
C596 C595 1.410 . S
C596 C597 1.392 . S
C596 C599 1.511 . S
C597 C593 1.376 . S
C597 C596 1.392 . S
C597 H609 0.929 . S
C598 C594 1.531 . S
C598 H610 0.960 . S
C598 H611 0.962 . S
C598 H612 0.960 . S
C599 C596 1.511 . S
C599 H613 0.961 . S
C599 H614 0.961 . S
C599 H615 0.961 . S
C600 C601 1.370 . S
C600 C602 1.363 . S
C600 H616 0.931 . S
C601 C600 1.370 . S
C601 C605 1.408 . S
C602 C600 1.363 . S
C602 C603 1.370 . S
C602 C606 1.524 . S
C603 C595 1.503 . S
C603 C602 1.370 . S
C603 C604 1.403 . S
C604 C603 1.403 . S
C604 C605 1.404 . S
C604 C607 1.539 . S
C605 C601 1.408 . S
C605 C604 1.404 . S
C605 H617 0.930 . S
C606 C602 1.524 . S
C606 H618 0.956 . S
C606 H619 0.961 . S
C606 H620 0.961 . S
C607 C604 1.539 . S
C607 H621 0.958 . S
C607 H622 0.961 . S
C607 H623 0.960 . S
H608 C592 0.931 . S
H609 C597 0.929 . S
H610 C598 0.960 . S
H611 C598 0.962 . S
H612 C598 0.960 . S
H613 C599 0.961 . S
H614 C599 0.961 . S
H615 C599 0.961 . S
H616 C600 0.931 . S
H617 C605 0.930 . S
H618 C606 0.956 . S
H619 C606 0.961 . S
H620 C606 0.961 . S
H621 C607 0.958 . S
H622 C607 0.961 . S
H623 C607 0.960 . S
C624 C625 1.391 . S
C624 C626 1.394 . S
C624 H640 0.931 . S
C625 C624 1.391 . S
C625 C629 1.376 . S
C626 C624 1.394 . S
C626 C627 1.369 . S
C626 C630 1.531 . S
C627 C626 1.369 . S
C627 C628 1.410 . S
C627 C635 1.503 . S
C628 C627 1.410 . S
C628 C629 1.392 . S
C628 C631 1.511 . S
C629 C625 1.376 . S
C629 C628 1.392 . S
C629 H641 0.929 . S
C630 C626 1.531 . S
C630 H642 0.960 . S
C630 H643 0.962 . S
C630 H644 0.960 . S
C631 C628 1.511 . S
C631 H645 0.961 . S
C631 H646 0.961 . S
C631 H647 0.961 . S
C632 C633 1.370 . S
C632 C634 1.363 . S
C632 H648 0.931 . S
C633 C632 1.370 . S
C633 C637 1.408 . S
C634 C632 1.363 . S
C634 C635 1.370 . S
C634 C638 1.524 . S
C635 C627 1.503 . S
C635 C634 1.370 . S
C635 C636 1.403 . S
C636 C635 1.403 . S
C636 C637 1.404 . S
C636 C639 1.539 . S
C637 C633 1.408 . S
C637 C636 1.404 . S
C637 H649 0.930 . S
C638 C634 1.524 . S
C638 H650 0.956 . S
C638 H651 0.961 . S
C638 H652 0.961 . S
C639 C636 1.539 . S
C639 H653 0.958 . S
C639 H654 0.961 . S
C639 H655 0.960 . S
H640 C624 0.931 . S
H641 C629 0.929 . S
H642 C630 0.960 . S
H643 C630 0.962 . S
H644 C630 0.960 . S
H645 C631 0.961 . S
H646 C631 0.961 . S
H647 C631 0.961 . S
H648 C632 0.931 . S
H649 C637 0.930 . S
H650 C638 0.956 . S
H651 C638 0.961 . S
H652 C638 0.961 . S
H653 C639 0.958 . S
H654 C639 0.961 . S
H655 C639 0.960 . S
C656 C657 1.391 . S
C656 C658 1.394 . S
C656 H672 0.931 . S
C657 C656 1.391 . S
C657 C661 1.376 . S
C658 C656 1.394 . S
C658 C659 1.369 . S
C658 C662 1.531 . S
C659 C658 1.369 . S
C659 C660 1.410 . S
C659 C667 1.503 . S
C660 C659 1.410 . S
C660 C661 1.392 . S
C660 C663 1.511 . S
C661 C657 1.376 . S
C661 C660 1.392 . S
C661 H673 0.929 . S
C662 C658 1.531 . S
C662 H674 0.960 . S
C662 H675 0.962 . S
C662 H676 0.960 . S
C663 C660 1.511 . S
C663 H677 0.961 . S
C663 H678 0.961 . S
C663 H679 0.961 . S
C664 C665 1.370 . S
C664 C666 1.363 . S
C664 H680 0.931 . S
C665 C664 1.370 . S
C665 C669 1.408 . S
C666 C664 1.363 . S
C666 C667 1.370 . S
C666 C670 1.524 . S
C667 C659 1.503 . S
C667 C666 1.370 . S
C667 C668 1.403 . S
C668 C667 1.403 . S
C668 C669 1.404 . S
C668 C671 1.539 . S
C669 C665 1.408 . S
C669 C668 1.404 . S
C669 H681 0.930 . S
C670 C666 1.524 . S
C670 H682 0.956 . S
C670 H683 0.961 . S
C670 H684 0.961 . S
C671 C668 1.539 . S
C671 H685 0.958 . S
C671 H686 0.961 . S
C671 H687 0.960 . S
H672 C656 0.931 . S
H673 C661 0.929 . S
H674 C662 0.960 . S
H675 C662 0.962 . S
H676 C662 0.960 . S
H677 C663 0.961 . S
H678 C663 0.961 . S
H679 C663 0.961 . S
H680 C664 0.931 . S
H681 C669 0.930 . S
H682 C670 0.956 . S
H683 C670 0.961 . S
H684 C670 0.961 . S
H685 C671 0.958 . S
H686 C671 0.961 . S
H687 C671 0.960 . S
C688 C689 1.391 . S
C688 C690 1.394 . S
C688 H704 0.931 . S
C689 C688 1.391 . S
C689 C693 1.376 . S
C690 C688 1.394 . S
C690 C691 1.369 . S
C690 C694 1.531 . S
C691 C690 1.369 . S
C691 C692 1.410 . S
C691 C699 1.503 . S
C692 C691 1.410 . S
C692 C693 1.392 . S
C692 C695 1.511 . S
C693 C689 1.376 . S
C693 C692 1.392 . S
C693 H705 0.929 . S
C694 C690 1.531 . S
C694 H706 0.960 . S
C694 H707 0.962 . S
C694 H708 0.960 . S
C695 C692 1.511 . S
C695 H709 0.961 . S
C695 H710 0.961 . S
C695 H711 0.961 . S
C696 C697 1.389 . S
C696 C698 1.363 . S
C696 H712 0.931 . S
C697 C696 1.389 . S
C697 C701 1.401 1_554 S
C698 C696 1.363 . S
C698 C699 1.370 . S
C698 C702 1.524 . S
C699 C691 1.503 . S
C699 C698 1.370 . S
C699 C700 1.403 . S
C700 C699 1.403 . S
C700 C701 1.404 1_554 S
C700 C703 1.539 1_554 S
C701 C697 1.401 1_556 S
C701 C700 1.404 1_556 S
C701 H713 0.930 . S
C702 C698 1.524 . S
C702 H714 0.956 . S
C702 H715 0.961 . S
C702 H716 0.961 . S
C703 C700 1.539 1_556 S
C703 H717 0.958 . S
C703 H718 0.961 . S
C703 H719 0.960 1_556 S
H704 C688 0.931 . S
H705 C693 0.929 . S
H706 C694 0.960 . S
H707 C694 0.962 . S
H708 C694 0.960 . S
H709 C695 0.961 . S
H710 C695 0.961 . S
H711 C695 0.961 . S
H712 C696 0.931 . S
H713 C701 0.930 . S
H714 C702 0.956 . S
H715 C702 0.961 . S
H716 C702 0.961 . S
H717 C703 0.958 . S
H718 C703 0.961 . S
H719 C703 0.960 1_554 S
C720 C721 1.391 . S
C720 C722 1.394 . S
C720 H736 0.931 . S
C721 C720 1.391 . S
C721 C725 1.376 . S
C722 C720 1.394 . S
C722 C723 1.369 . S
C722 C726 1.531 . S
C723 C722 1.369 . S
C723 C724 1.410 . S
C723 C731 1.503 . S
C724 C723 1.410 . S
C724 C725 1.392 . S
C724 C727 1.511 . S
C725 C721 1.376 . S
C725 C724 1.392 . S
C725 H737 0.929 . S
C726 C722 1.531 . S
C726 H738 0.960 . S
C726 H739 0.962 . S
C726 H740 0.960 . S
C727 C724 1.511 . S
C727 H741 0.961 . S
C727 H742 0.961 . S
C727 H743 0.961 . S
C728 C729 1.370 . S
C728 C730 1.363 . S
C728 H744 0.931 . S
C729 C728 1.370 . S
C729 C733 1.408 . S
C730 C728 1.363 . S
C730 C731 1.370 . S
C730 C734 1.524 . S
C731 C723 1.503 . S
C731 C730 1.370 . S
C731 C732 1.403 . S
C732 C731 1.403 . S
C732 C733 1.404 . S
C732 C735 1.539 . S
C733 C729 1.408 . S
C733 C732 1.404 . S
C733 H745 0.930 . S
C734 C730 1.524 . S
C734 H746 0.956 . S
C734 H747 0.961 . S
C734 H748 0.961 . S
C735 C732 1.539 . S
C735 H749 0.958 . S
C735 H750 0.961 . S
C735 H751 0.960 . S
H736 C720 0.931 . S
H737 C725 0.929 . S
H738 C726 0.960 . S
H739 C726 0.962 . S
H740 C726 0.960 . S
H741 C727 0.961 . S
H742 C727 0.961 . S
H743 C727 0.961 . S
H744 C728 0.931 . S
H745 C733 0.930 . S
H746 C734 0.956 . S
H747 C734 0.961 . S
H748 C734 0.961 . S
H749 C735 0.958 . S
H750 C735 0.961 . S
H751 C735 0.960 . S
C752 C753 1.391 . S
C752 C754 1.394 . S
C752 H768 0.931 . S
C753 C752 1.391 . S
C753 C757 1.376 . S
C754 C752 1.394 . S
C754 C755 1.369 . S
C754 C758 1.531 . S
C755 C754 1.369 . S
C755 C756 1.410 . S
C755 C763 1.503 . S
C756 C755 1.410 . S
C756 C757 1.392 . S
C756 C759 1.511 . S
C757 C753 1.376 . S
C757 C756 1.392 . S
C757 H769 0.929 . S
C758 C754 1.531 . S
C758 H770 0.960 . S
C758 H771 0.962 . S
C758 H772 0.960 . S
C759 C756 1.511 . S
C759 H773 0.961 . S
C759 H774 0.961 . S
C759 H775 0.961 . S
C760 C761 1.370 . S
C760 C762 1.363 . S
C760 H776 0.931 . S
C761 C760 1.370 . S
C761 C765 1.408 . S
C762 C760 1.363 . S
C762 C763 1.370 . S
C762 C766 1.524 . S
C763 C755 1.503 . S
C763 C762 1.370 . S
C763 C764 1.403 . S
C764 C763 1.403 . S
C764 C765 1.404 . S
C764 C767 1.539 . S
C765 C761 1.408 . S
C765 C764 1.404 . S
C765 H777 0.930 . S
C766 C762 1.524 . S
C766 H778 0.956 . S
C766 H779 0.961 . S
C766 H780 0.961 . S
C767 C764 1.539 . S
C767 H781 0.958 . S
C767 H782 0.961 . S
C767 H783 0.960 . S
H768 C752 0.931 . S
H769 C757 0.929 . S
H770 C758 0.960 . S
H771 C758 0.962 . S
H772 C758 0.960 . S
H773 C759 0.961 . S
H774 C759 0.961 . S
H775 C759 0.961 . S
H776 C760 0.931 . S
H777 C765 0.930 . S
H778 C766 0.956 . S
H779 C766 0.961 . S
H780 C766 0.961 . S
H781 C767 0.958 . S
H782 C767 0.961 . S
H783 C767 0.960 . S
C784 C785 1.391 . S
C784 C786 1.394 . S
C784 H800 0.931 . S
C785 C784 1.391 . S
C785 C789 1.376 . S
C786 C784 1.394 . S
C786 C787 1.369 . S
C786 C790 1.531 . S
C787 C786 1.369 . S
C787 C788 1.410 . S
C787 C795 1.503 . S
C788 C787 1.410 . S
C788 C789 1.392 . S
C788 C791 1.511 . S
C789 C785 1.376 . S
C789 C788 1.392 . S
C789 H801 0.929 . S
C790 C786 1.531 . S
C790 H802 0.960 . S
C790 H803 0.962 . S
C790 H804 0.960 . S
C791 C788 1.511 . S
C791 H805 0.961 . S
C791 H806 0.961 . S
C791 H807 0.961 . S
C792 C793 1.370 . S
C792 C794 1.363 . S
C792 H808 0.931 . S
C793 C792 1.370 . S
C793 C797 1.408 . S
C794 C792 1.363 . S
C794 C795 1.370 . S
C794 C798 1.524 . S
C795 C787 1.503 . S
C795 C794 1.370 . S
C795 C796 1.403 . S
C796 C795 1.403 . S
C796 C797 1.404 . S
C796 C799 1.539 . S
C797 C793 1.408 . S
C797 C796 1.404 . S
C797 H809 0.930 . S
C798 C794 1.524 . S
C798 H810 0.956 . S
C798 H811 0.961 . S
C798 H812 0.961 . S
C799 C796 1.539 . S
C799 H813 0.958 . S
C799 H814 0.961 . S
C799 H815 0.960 . S
H800 C784 0.931 . S
H801 C789 0.929 . S
H802 C790 0.960 . S
H803 C790 0.962 . S
H804 C790 0.960 . S
H805 C791 0.961 . S
H806 C791 0.961 . S
H807 C791 0.961 . S
H808 C792 0.931 . S
H809 C797 0.930 . S
H810 C798 0.956 . S
H811 C798 0.961 . S
H812 C798 0.961 . S
H813 C799 0.958 . S
H814 C799 0.961 . S
H815 C799 0.960 . S
C241 C210 1.775 . S
C249 C10 1.756 . S
C273 C9 1.428 . S
C281 C49 1.391 . S
C305 C50 1.742 . S
C313 C90 1.770 . S
C337 C89 1.354 . S
C345 C129 1.391 . S
C369 C170 1.769 . S
C377 C130 1.758 . S
C401 C209 1.436 . S
C409 C169 1.410 . S
C433 C6 1.234 . S
C441 C15 1.288 . S
C465 C55 1.293 . S
C473 C46 1.263 . S
C497 C86 1.241 . S
C505 C95 1.288 . S
C529 C135 1.279 . S
C537 C126 1.268 . S
C561 C175 1.234 . S
C569 C166 1.288 . S
C593 C215 1.283 . S
C601 C206 1.271 . S
C625 C19 1.826 . S
C633 C178 1.847 . S
C657 C58 1.841 . S
C665 C219 1.832 . S
C689 C18 1.841 . S
C697 C99 1.817 1_554 S
C721 C59 1.843 . S
C729 C138 1.848 . S
C753 C179 1.829 . S
C761 C98 1.847 . S
C785 C139 1.833 . S
C793 C218 1.847 . S
