# Generated by pormake.
# Topology wgj, (5)-cn, num edge types: 1
# Building blocks:
#     Node 0, Type 0, BuildingBlock: XOMCOT_clean_sbu_1, # of connection points: 5
#     Node 1, Type 0, BuildingBlock: XOMCOT_clean_sbu_1, # of connection points: 5
#     Node 2, Type 0, BuildingBlock: XOMCOT_clean_sbu_1, # of connection points: 5
#     Node 3, Type 0, BuildingBlock: XOMCOT_clean_sbu_1, # of connection points: 5
#     Node 4, Type 0, BuildingBlock: XOMCOT_clean_sbu_1, # of connection points: 5
#     Node 5, Type 0, BuildingBlock: XOMCOT_clean_sbu_1, # of connection points: 5
#     Node 6, Type 0, BuildingBlock: XOMCOT_clean_sbu_1, # of connection points: 5
#     Node 7, Type 0, BuildingBlock: XOMCOT_clean_sbu_1, # of connection points: 5
#     Node 8, Type 0, BuildingBlock: XOMCOT_clean_sbu_1, # of connection points: 5
#     Node 9, Type 0, BuildingBlock: XOMCOT_clean_sbu_1, # of connection points: 5
#     Node 10, Type 0, BuildingBlock: XOMCOT_clean_sbu_1, # of connection points: 5
#     Node 11, Type 0, BuildingBlock: XOMCOT_clean_sbu_1, # of connection points: 5
#     Node 12, Type 0, BuildingBlock: XOMCOT_clean_sbu_1, # of connection points: 5
#     Node 13, Type 0, BuildingBlock: XOMCOT_clean_sbu_1, # of connection points: 5
#     Node 14, Type 0, BuildingBlock: XOMCOT_clean_sbu_1, # of connection points: 5
#     Node 15, Type 0, BuildingBlock: XOMCOT_clean_sbu_1, # of connection points: 5
#     Node 16, Type 0, BuildingBlock: XOMCOT_clean_sbu_1, # of connection points: 5
#     Node 17, Type 0, BuildingBlock: XOMCOT_clean_sbu_1, # of connection points: 5
#     Node 18, Type 0, BuildingBlock: XOMCOT_clean_sbu_1, # of connection points: 5
#     Node 19, Type 0, BuildingBlock: XOMCOT_clean_sbu_1, # of connection points: 5
#     Node 20, Type 0, BuildingBlock: XOMCOT_clean_sbu_1, # of connection points: 5
#     Node 21, Type 0, BuildingBlock: XOMCOT_clean_sbu_1, # of connection points: 5
#     Node 22, Type 0, BuildingBlock: XOMCOT_clean_sbu_1, # of connection points: 5
#     Node 23, Type 0, BuildingBlock: XOMCOT_clean_sbu_1, # of connection points: 5
#     Node 24, Type 0, BuildingBlock: XOMCOT_clean_sbu_1, # of connection points: 5
#     Node 25, Type 0, BuildingBlock: XOMCOT_clean_sbu_1, # of connection points: 5
#     Node 26, Type 0, BuildingBlock: XOMCOT_clean_sbu_1, # of connection points: 5
#     Node 27, Type 0, BuildingBlock: XOMCOT_clean_sbu_1, # of connection points: 5
#     Node 28, Type 0, BuildingBlock: XOMCOT_clean_sbu_1, # of connection points: 5
#     Node 29, Type 0, BuildingBlock: XOMCOT_clean_sbu_1, # of connection points: 5
#     Node 30, Type 0, BuildingBlock: XOMCOT_clean_sbu_1, # of connection points: 5
#     Node 31, Type 0, BuildingBlock: XOMCOT_clean_sbu_1, # of connection points: 5
#     Edge 32, Type (0, 0), BuildingBlock: ZUJKAS_clean_linker_0, # of connection points: 2
#     Edge 33, Type (0, 0), BuildingBlock: ZUJKAS_clean_linker_0, # of connection points: 2
#     Edge 34, Type (0, 0), BuildingBlock: ZUJKAS_clean_linker_0, # of connection points: 2
#     Edge 35, Type (0, 0), BuildingBlock: ZUJKAS_clean_linker_0, # of connection points: 2
#     Edge 36, Type (0, 0), BuildingBlock: ZUJKAS_clean_linker_0, # of connection points: 2
#     Edge 37, Type (0, 0), BuildingBlock: ZUJKAS_clean_linker_0, # of connection points: 2
#     Edge 38, Type (0, 0), BuildingBlock: ZUJKAS_clean_linker_0, # of connection points: 2
#     Edge 39, Type (0, 0), BuildingBlock: ZUJKAS_clean_linker_0, # of connection points: 2
#     Edge 40, Type (0, 0), BuildingBlock: ZUJKAS_clean_linker_0, # of connection points: 2
#     Edge 41, Type (0, 0), BuildingBlock: ZUJKAS_clean_linker_0, # of connection points: 2
#     Edge 42, Type (0, 0), BuildingBlock: ZUJKAS_clean_linker_0, # of connection points: 2
#     Edge 43, Type (0, 0), BuildingBlock: ZUJKAS_clean_linker_0, # of connection points: 2
#     Edge 44, Type (0, 0), BuildingBlock: ZUJKAS_clean_linker_0, # of connection points: 2
#     Edge 45, Type (0, 0), BuildingBlock: ZUJKAS_clean_linker_0, # of connection points: 2
#     Edge 46, Type (0, 0), BuildingBlock: ZUJKAS_clean_linker_0, # of connection points: 2
#     Edge 47, Type (0, 0), BuildingBlock: ZUJKAS_clean_linker_0, # of connection points: 2
#     Edge 48, Type (0, 0), BuildingBlock: ZUJKAS_clean_linker_0, # of connection points: 2
#     Edge 49, Type (0, 0), BuildingBlock: ZUJKAS_clean_linker_0, # of connection points: 2
#     Edge 50, Type (0, 0), BuildingBlock: ZUJKAS_clean_linker_0, # of connection points: 2
#     Edge 51, Type (0, 0), BuildingBlock: ZUJKAS_clean_linker_0, # of connection points: 2
#     Edge 52, Type (0, 0), BuildingBlock: ZUJKAS_clean_linker_0, # of connection points: 2
#     Edge 53, Type (0, 0), BuildingBlock: ZUJKAS_clean_linker_0, # of connection points: 2
#     Edge 54, Type (0, 0), BuildingBlock: ZUJKAS_clean_linker_0, # of connection points: 2
#     Edge 55, Type (0, 0), BuildingBlock: ZUJKAS_clean_linker_0, # of connection points: 2
#     Edge 56, Type (0, 0), BuildingBlock: ZUJKAS_clean_linker_0, # of connection points: 2
#     Edge 57, Type (0, 0), BuildingBlock: ZUJKAS_clean_linker_0, # of connection points: 2
#     Edge 58, Type (0, 0), BuildingBlock: ZUJKAS_clean_linker_0, # of connection points: 2
#     Edge 59, Type (0, 0), BuildingBlock: ZUJKAS_clean_linker_0, # of connection points: 2
#     Edge 60, Type (0, 0), BuildingBlock: ZUJKAS_clean_linker_0, # of connection points: 2
#     Edge 61, Type (0, 0), BuildingBlock: ZUJKAS_clean_linker_0, # of connection points: 2
#     Edge 62, Type (0, 0), BuildingBlock: ZUJKAS_clean_linker_0, # of connection points: 2
#     Edge 63, Type (0, 0), BuildingBlock: ZUJKAS_clean_linker_0, # of connection points: 2
#     Edge 64, Type (0, 0), BuildingBlock: ZUJKAS_clean_linker_0, # of connection points: 2
#     Edge 65, Type (0, 0), BuildingBlock: ZUJKAS_clean_linker_0, # of connection points: 2
#     Edge 66, Type (0, 0), BuildingBlock: ZUJKAS_clean_linker_0, # of connection points: 2
#     Edge 67, Type (0, 0), BuildingBlock: ZUJKAS_clean_linker_0, # of connection points: 2
#     Edge 68, Type (0, 0), BuildingBlock: ZUJKAS_clean_linker_0, # of connection points: 2
#     Edge 69, Type (0, 0), BuildingBlock: ZUJKAS_clean_linker_0, # of connection points: 2
#     Edge 70, Type (0, 0), BuildingBlock: ZUJKAS_clean_linker_0, # of connection points: 2
#     Edge 71, Type (0, 0), BuildingBlock: ZUJKAS_clean_linker_0, # of connection points: 2
#     Edge 72, Type (0, 0), BuildingBlock: ZUJKAS_clean_linker_0, # of connection points: 2
#     Edge 73, Type (0, 0), BuildingBlock: ZUJKAS_clean_linker_0, # of connection points: 2
#     Edge 74, Type (0, 0), BuildingBlock: ZUJKAS_clean_linker_0, # of connection points: 2
#     Edge 75, Type (0, 0), BuildingBlock: ZUJKAS_clean_linker_0, # of connection points: 2
#     Edge 76, Type (0, 0), BuildingBlock: ZUJKAS_clean_linker_0, # of connection points: 2
#     Edge 77, Type (0, 0), BuildingBlock: ZUJKAS_clean_linker_0, # of connection points: 2
#     Edge 78, Type (0, 0), BuildingBlock: ZUJKAS_clean_linker_0, # of connection points: 2
#     Edge 79, Type (0, 0), BuildingBlock: ZUJKAS_clean_linker_0, # of connection points: 2
#     Edge 80, Type (0, 0), BuildingBlock: ZUJKAS_clean_linker_0, # of connection points: 2
#     Edge 81, Type (0, 0), BuildingBlock: ZUJKAS_clean_linker_0, # of connection points: 2
#     Edge 82, Type (0, 0), BuildingBlock: ZUJKAS_clean_linker_0, # of connection points: 2
#     Edge 83, Type (0, 0), BuildingBlock: ZUJKAS_clean_linker_0, # of connection points: 2
#     Edge 84, Type (0, 0), BuildingBlock: ZUJKAS_clean_linker_0, # of connection points: 2
#     Edge 85, Type (0, 0), BuildingBlock: ZUJKAS_clean_linker_0, # of connection points: 2
#     Edge 86, Type (0, 0), BuildingBlock: ZUJKAS_clean_linker_0, # of connection points: 2
#     Edge 87, Type (0, 0), BuildingBlock: ZUJKAS_clean_linker_0, # of connection points: 2
#     Edge 88, Type (0, 0), BuildingBlock: ZUJKAS_clean_linker_0, # of connection points: 2
#     Edge 89, Type (0, 0), BuildingBlock: ZUJKAS_clean_linker_0, # of connection points: 2
#     Edge 90, Type (0, 0), BuildingBlock: ZUJKAS_clean_linker_0, # of connection points: 2
#     Edge 91, Type (0, 0), BuildingBlock: ZUJKAS_clean_linker_0, # of connection points: 2
#     Edge 92, Type (0, 0), BuildingBlock: ZUJKAS_clean_linker_0, # of connection points: 2
#     Edge 93, Type (0, 0), BuildingBlock: ZUJKAS_clean_linker_0, # of connection points: 2
#     Edge 94, Type (0, 0), BuildingBlock: ZUJKAS_clean_linker_0, # of connection points: 2
#     Edge 95, Type (0, 0), BuildingBlock: ZUJKAS_clean_linker_0, # of connection points: 2
#     Edge 96, Type (0, 0), BuildingBlock: ZUJKAS_clean_linker_0, # of connection points: 2
#     Edge 97, Type (0, 0), BuildingBlock: ZUJKAS_clean_linker_0, # of connection points: 2
#     Edge 98, Type (0, 0), BuildingBlock: ZUJKAS_clean_linker_0, # of connection points: 2
#     Edge 99, Type (0, 0), BuildingBlock: ZUJKAS_clean_linker_0, # of connection points: 2
#     Edge 100, Type (0, 0), BuildingBlock: ZUJKAS_clean_linker_0, # of connection points: 2
#     Edge 101, Type (0, 0), BuildingBlock: ZUJKAS_clean_linker_0, # of connection points: 2
#     Edge 102, Type (0, 0), BuildingBlock: ZUJKAS_clean_linker_0, # of connection points: 2
#     Edge 103, Type (0, 0), BuildingBlock: ZUJKAS_clean_linker_0, # of connection points: 2
#     Edge 104, Type (0, 0), BuildingBlock: ZUJKAS_clean_linker_0, # of connection points: 2
#     Edge 105, Type (0, 0), BuildingBlock: ZUJKAS_clean_linker_0, # of connection points: 2
#     Edge 106, Type (0, 0), BuildingBlock: ZUJKAS_clean_linker_0, # of connection points: 2
#     Edge 107, Type (0, 0), BuildingBlock: ZUJKAS_clean_linker_0, # of connection points: 2
#     Edge 108, Type (0, 0), BuildingBlock: ZUJKAS_clean_linker_0, # of connection points: 2
#     Edge 109, Type (0, 0), BuildingBlock: ZUJKAS_clean_linker_0, # of connection points: 2
#     Edge 110, Type (0, 0), BuildingBlock: ZUJKAS_clean_linker_0, # of connection points: 2
#     Edge 111, Type (0, 0), BuildingBlock: ZUJKAS_clean_linker_0, # of connection points: 2
# Relax obj value: 0.238
# Max RMSD: 0.139
# Mean RMSD: 0.139
data_MOF--net-wgj--node1-XOMCOT_clean_sbu_1--edge1-ZUJKAS_clean_linker_0
_symmetry_space_group_name_H-M    P1
_symmetry_Int_Tables_number       1
_symmetry_cell_setting            triclinic
loop_
_symmetry_equiv_pos_as_xyz
'x, y, z'
_cell_length_a     85.341731
_cell_length_b     85.330616
_cell_length_c     39.007057
_cell_angle_alpha  89.886378
_cell_angle_beta   90.048419
_cell_angle_gamma 90.016926
loop_
_atom_site_label
_atom_site_type_symbol
_atom_site_fract_x
_atom_site_fract_y
_atom_site_fract_z
_atom_type_partial_charge
C0 C 0.17968 0.18122 0.28896 0.0
C1 C 0.19046 0.19106 0.27424 0.0
N2 N 0.20017 0.19628 0.29898 0.0
N3 N 0.18257 0.18008 0.32282 0.0
C4 C 0.19523 0.18929 0.32819 0.0
H5 H 0.16994 0.17574 0.27595 0.0
Co6 Co 0.16915 0.16983 0.35276 0.0
C7 C 0.18667 0.16594 0.41854 0.0
O8 O 0.17354 0.16895 0.43484 0.0
N9 N 0.15493 0.15912 0.38165 0.0
C10 C 0.14343 0.13922 0.40885 0.0
C11 C 0.15741 0.14508 0.39683 0.0
C12 C 0.13927 0.16132 0.38423 0.0
N13 N 0.13197 0.14939 0.40054 0.0
O14 O 0.17332 0.15035 0.32897 0.0
H15 H 0.16852 0.13899 0.39709 0.0
H16 H 0.1331 0.17094 0.37239 0.0
O17 O 0.18678 0.16608 0.38559 0.0
C18 C 0.1618 0.14725 0.30914 0.0
O19 O 0.14956 0.1566 0.30991 0.0
N20 N 0.16397 0.18946 0.37205 0.0
C21 C 0.15518 0.22074 0.38256 0.0
C22 C 0.16838 0.21442 0.39907 0.0
C23 C 0.17273 0.19883 0.39308 0.0
C24 C 0.1512 0.1955 0.35571 0.0
C25 C 0.14643 0.21092 0.36105 0.0
H26 H 0.1837 0.19489 0.4036 0.0
H27 H 0.14508 0.18847 0.33695 0.0
H28 H 0.20019 0.1915 0.35323 0.0
H29 H 0.19085 0.19441 0.24748 0.0
H30 H 0.14169 0.1278 0.42036 0.0
H31 H 0.17583 0.22169 0.41495 0.0
H32 H 0.13619 0.21521 0.3476 0.0
C33 C 0.08301 0.92926 0.54258 0.0
C34 C 0.07346 0.94021 0.5274 0.0
N35 N 0.06859 0.95028 0.55171 0.0
N36 N 0.08425 0.93243 0.57627 0.0
C37 C 0.07539 0.94535 0.58113 0.0
H38 H 0.08828 0.91927 0.53009 0.0
Co39 Co 0.09473 0.91938 0.60642 0.0
C40 C 0.09746 0.93684 0.67231 0.0
O41 O 0.09435 0.92361 0.68823 0.0
N42 N 0.10578 0.90555 0.63568 0.0
C43 C 0.12592 0.89505 0.66387 0.0
C44 C 0.11954 0.9087 0.65135 0.0
C45 C 0.10424 0.8898 0.63858 0.0
N46 N 0.11634 0.8831 0.65553 0.0
O47 O 0.11411 0.92431 0.58301 0.0
H48 H 0.12508 0.9201 0.65183 0.0
H49 H 0.09525 0.88313 0.62579 0.0
O50 O 0.09779 0.93707 0.63937 0.0
C51 C 0.11867 0.91296 0.56418 0.0
O52 O 0.11078 0.89975 0.56505 0.0
N53 N 0.07517 0.91357 0.62534 0.0
C54 C 0.04407 0.90398 0.63549 0.0
C55 C 0.04982 0.91769 0.65088 0.0
C56 C 0.06531 0.92243 0.64504 0.0
C57 C 0.06966 0.90035 0.60994 0.0
C58 C 0.05434 0.89517 0.61517 0.0
H59 H 0.0688 0.93374 0.65452 0.0
H60 H 0.07699 0.89419 0.59182 0.0
H61 H 0.07367 0.95081 0.60583 0.0
H62 H 0.06977 0.94025 0.50084 0.0
H63 H 0.13711 0.89398 0.67672 0.0
H64 H 0.04218 0.92521 0.6657 0.0
H65 H 0.05048 0.88457 0.60249 0.0
C66 C 0.33247 0.8325 0.78969 0.0
C67 C 0.32123 0.82306 0.77535 0.0
N68 N 0.3111 0.81878 0.80012 0.0
N69 N 0.32943 0.8343 0.82333 0.0
C70 C 0.31631 0.82582 0.829 0.0
H71 H 0.34258 0.83724 0.77663 0.0
Co72 Co 0.34288 0.84483 0.85266 0.0
C73 C 0.32581 0.84857 0.91875 0.0
O74 O 0.33912 0.84557 0.93444 0.0
N75 N 0.35708 0.85589 0.88099 0.0
C76 C 0.36818 0.87629 0.90703 0.0
C77 C 0.35433 0.87003 0.89532 0.0
C78 C 0.37278 0.854 0.88388 0.0
N79 N 0.37985 0.86626 0.89948 0.0
O80 O 0.33844 0.86412 0.8282 0.0
H81 H 0.3431 0.87591 0.89518 0.0
H82 H 0.37912 0.84434 0.87283 0.0
O83 O 0.3254 0.84855 0.88581 0.0
C84 C 0.34989 0.86683 0.80792 0.0
O85 O 0.362 0.85732 0.80911 0.0
N86 N 0.34832 0.82535 0.87246 0.0
C87 C 0.35735 0.79415 0.88329 0.0
C88 C 0.3439 0.80026 0.8991 0.0
C89 C 0.33942 0.81581 0.8929 0.0
C90 C 0.3613 0.8195 0.85674 0.0
C91 C 0.36621 0.80413 0.8623 0.0
H92 H 0.32827 0.81959 0.90274 0.0
H93 H 0.36747 0.8266 0.83816 0.0
H94 H 0.3109 0.8245 0.85391 0.0
H95 H 0.32104 0.81899 0.74909 0.0
H96 H 0.36964 0.88787 0.91785 0.0
H97 H 0.33638 0.79284 0.91451 0.0
H98 H 0.37663 0.79999 0.84934 0.0
C99 C 0.43085 0.0847 0.04106 0.0
C100 C 0.44055 0.07387 1.02606 0.0
N101 N 0.44528 0.06367 0.05039 0.0
N102 N 0.42938 0.08133 0.07464 0.0
C103 C 0.43826 0.06843 0.07963 0.0
H104 H 0.4256 0.09472 0.02853 0.0
Co105 Co 0.41844 0.09407 0.10448 0.0
C106 C 0.4154 0.0764 0.17008 0.0
O107 O 0.41807 0.08968 0.1861 0.0
N108 N 0.40693 0.10757 0.13341 0.0
C109 C 0.38614 0.11767 0.15985 0.0
C110 C 0.39288 0.10417 0.14758 0.0
C111 C 0.40833 0.12328 0.13717 0.0
N112 N 0.39584 0.12972 0.15303 0.0
O113 O 0.39937 0.08892 0.08009 0.0
H114 H 0.3874 0.09274 0.14703 0.0
H115 H 0.41754 0.13017 0.12567 0.0
O116 O 0.41541 0.07621 0.13713 0.0
C117 C 0.39482 0.10029 0.06115 0.0
O118 O 0.40242 0.11365 0.06296 0.0
N119 N 0.43775 0.10011 0.1243 0.0
C120 C 0.46868 0.11 0.13527 0.0
C121 C 0.46301 0.09618 0.15047 0.0
C122 C 0.44761 0.09129 0.14421 0.0
C123 C 0.44316 0.11345 0.10916 0.0
C124 C 0.4584 0.11878 0.11481 0.0
H125 H 0.4442 0.07991 0.1535 0.0
H126 H 0.43585 0.11959 0.09092 0.0
H127 H 0.43979 0.06281 0.10428 0.0
H128 H 0.4444 0.07395 0.99963 0.0
H129 H 0.37464 0.11863 0.17134 0.0
H130 H 0.47068 0.0887 0.1654 0.0
H131 H 0.46221 0.12945 0.10229 0.0
C132 C 0.17957 0.83266 0.26237 0.0
C133 C 0.19046 0.8229 0.27711 0.0
N134 N 0.20061 0.81834 0.25265 0.0
N135 N 0.18285 0.83434 0.22881 0.0
C136 C 0.19578 0.82553 0.22358 0.0
H137 H 0.16955 0.83778 0.27505 0.0
Co138 Co 0.16998 0.84533 0.19917 0.0
C139 C 0.18755 0.84873 0.13357 0.0
O140 O 0.17428 0.84604 0.11749 0.0
N141 N 0.15636 0.85689 0.17043 0.0
C142 C 0.14614 0.87776 0.14431 0.0
C143 C 0.15969 0.87098 0.15633 0.0
C144 C 0.14063 0.85549 0.1669 0.0
N145 N 0.13412 0.86805 0.15126 0.0
O146 O 0.17503 0.86434 0.22385 0.0
H147 H 0.17112 0.87646 0.15678 0.0
H148 H 0.1338 0.84626 0.17847 0.0
O149 O 0.18777 0.84861 0.16653 0.0
C150 C 0.16363 0.86862 0.24289 0.0
O151 O 0.15039 0.8608 0.24104 0.0
N152 N 0.16404 0.82607 0.1791 0.0
C153 C 0.15445 0.79504 0.16828 0.0
C154 C 0.16815 0.80086 0.15297 0.0
C155 C 0.17289 0.81632 0.15914 0.0
C156 C 0.15076 0.82052 0.19423 0.0
C157 C 0.14559 0.80523 0.18867 0.0
H158 H 0.18422 0.81984 0.14978 0.0
H159 H 0.14459 0.82775 0.2125 0.0
H160 H 0.20134 0.82415 0.19887 0.0
H161 H 0.19043 0.81888 0.30344 0.0
H162 H 0.14514 0.8893 0.13294 0.0
H163 H 0.17569 0.79328 0.13805 0.0
H164 H 0.13498 0.80131 0.20125 0.0
C165 C 0.43033 0.93059 0.51255 0.0
C166 C 0.43981 0.94178 0.52696 0.0
N167 N 0.44442 0.95172 0.50206 0.0
N168 N 0.42884 0.93347 0.47874 0.0
C169 C 0.43753 0.94645 0.47305 0.0
H170 H 0.42539 0.92059 0.5257 0.0
Co171 Co 0.41852 0.92 0.44915 0.0
C172 C 0.41464 0.93731 0.38317 0.0
O173 O 0.41763 0.92411 0.36715 0.0
N174 N 0.40769 0.90577 0.42055 0.0
C175 C 0.38749 0.8944 0.3943 0.0
C176 C 0.39354 0.90834 0.40604 0.0
C177 C 0.40982 0.89011 0.41771 0.0
N178 N 0.39768 0.88287 0.402 0.0
O179 O 0.39913 0.92423 0.47322 0.0
H180 H 0.38749 0.91948 0.40612 0.0
H181 H 0.41955 0.88391 0.42894 0.0
O182 O 0.41474 0.93753 0.41611 0.0
C183 C 0.39637 0.91274 0.49342 0.0
O184 O 0.40591 0.90066 0.49242 0.0
N185 N 0.43809 0.91475 0.4297 0.0
C186 C 0.46936 0.90593 0.4193 0.0
C187 C 0.46313 0.91923 0.403 0.0
C188 C 0.44754 0.9236 0.40895 0.0
C189 C 0.44406 0.9019 0.44585 0.0
C190 C 0.45947 0.8971 0.44053 0.0
H191 H 0.44365 0.93464 0.39867 0.0
H192 H 0.43699 0.89574 0.46451 0.0
H193 H 0.43913 0.9517 0.44803 0.0
H194 H 0.44369 0.94205 0.55338 0.0
H195 H 0.37594 0.89277 0.3834 0.0
H196 H 0.47047 0.92672 0.38735 0.0
H197 H 0.4637 0.88678 0.45384 0.0
C198 C 0.33256 0.17954 0.76118 0.0
C199 C 0.32159 0.18916 0.77593 0.0
N200 N 0.31188 0.19435 0.75114 0.0
N201 N 0.32977 0.17857 0.72728 0.0
C202 C 0.31706 0.18768 0.72185 0.0
H203 H 0.34233 0.17404 0.77415 0.0
Co204 Co 0.34298 0.16809 0.69761 0.0
C205 C 0.32579 0.16511 0.63128 0.0
O206 O 0.33913 0.16785 0.61553 0.0
N207 N 0.35697 0.15706 0.66889 0.0
C208 C 0.36791 0.13678 0.6422 0.0
C209 C 0.3541 0.14306 0.65405 0.0
C210 C 0.37267 0.15888 0.66608 0.0
N211 N 0.37965 0.14668 0.65013 0.0
O212 O 0.33793 0.14872 0.72101 0.0
H213 H 0.34283 0.13726 0.65394 0.0
H214 H 0.37907 0.16843 0.67746 0.0
O215 O 0.32545 0.16505 0.66422 0.0
C216 C 0.34922 0.14413 0.74009 0.0
O217 O 0.36244 0.15201 0.73951 0.0
N218 N 0.34889 0.18765 0.67876 0.0
C219 C 0.35863 0.21871 0.66874 0.0
C220 C 0.34519 0.2129 0.6523 0.0
C221 C 0.34036 0.19742 0.65807 0.0
C222 C 0.36184 0.19321 0.69517 0.0
C223 C 0.36709 0.20851 0.69005 0.0
H224 H 0.32923 0.19388 0.64765 0.0
H225 H 0.36774 0.1859 0.7138 0.0
H226 H 0.31192 0.18966 0.69686 0.0
H227 H 0.32128 0.19266 0.80257 0.0
H228 H 0.3693 0.12527 0.63101 0.0
H229 H 0.33794 0.22048 0.63664 0.0
H230 H 0.37748 0.21241 0.70349 0.0
C231 C 0.08144 0.08257 1.01346 0.0
C232 C 0.07186 0.07134 0.02741 0.0
N233 N 0.06775 0.06125 1.00246 0.0
N234 N 0.08351 0.07956 0.97988 0.0
C235 C 0.07504 0.06647 0.97386 0.0
H236 H 0.0861 0.09266 0.02671 0.0
Co237 Co 0.09426 0.09301 0.9509 0.0
C238 C 0.09911 0.0756 0.88546 0.0
O239 O 0.09645 0.0888 0.86903 0.0
N240 N 0.10549 0.10723 0.92294 0.0
C241 C 0.12601 0.11856 0.89785 0.0
C242 C 0.11982 0.10464 0.90941 0.0
C243 C 0.1034 0.12289 0.91976 0.0
N244 N 0.11573 0.1301 0.90471 0.0
O245 O 0.1133 0.08884 0.9764 0.0
H246 H 0.12586 0.0935 0.91004 0.0
H247 H 0.09354 0.12911 0.93029 0.0
O248 O 0.09852 0.07544 0.91839 0.0
C249 C 0.1159 0.10035 0.99656 0.0
O250 O 0.10638 0.11244 0.99506 0.0
N251 N 0.07498 0.09819 0.92986 0.0
C252 C 0.04401 0.10704 0.9158 0.0
C253 C 0.05052 0.09359 0.9008 0.0
C254 C 0.06593 0.08922 0.90856 0.0
C255 C 0.06869 0.1111 0.94505 0.0
C256 C 0.0534 0.1159 0.93798 0.0
H257 H 0.07001 0.07813 0.89899 0.0
H258 H 0.07535 0.11729 0.96435 0.0
H259 H 0.07392 0.0611 0.94889 0.0
H260 H 0.06758 0.07112 0.05352 0.0
H261 H 0.13769 0.12017 0.88765 0.0
H262 H 0.0436 0.08622 0.88403 0.0
H263 H 0.04874 0.12599 0.95129 0.0
C264 C 0.83197 0.83396 0.76138 0.0
C265 C 0.82092 0.82433 0.77592 0.0
N266 N 0.81133 0.81916 0.75093 0.0
N267 N 0.82934 0.83496 0.72741 0.0
C268 C 0.81665 0.82586 0.72174 0.0
H269 H 0.8417 0.83942 0.77453 0.0
Co270 Co 0.84277 0.84532 0.69791 0.0
C271 C 0.82578 0.84862 0.63131 0.0
O272 O 0.83913 0.84584 0.61566 0.0
N273 N 0.85701 0.85621 0.66938 0.0
C274 C 0.8684 0.87634 0.64287 0.0
C275 C 0.85443 0.87025 0.65438 0.0
C276 C 0.8727 0.85417 0.66701 0.0
N277 N 0.87995 0.86627 0.65119 0.0
O278 O 0.83787 0.86474 0.72113 0.0
H279 H 0.84324 0.87621 0.65396 0.0
H280 H 0.87889 0.84453 0.67866 0.0
O281 O 0.82538 0.84858 0.66424 0.0
C282 C 0.84914 0.86919 0.74039 0.0
O283 O 0.86227 0.86118 0.74009 0.0
N284 N 0.84852 0.82572 0.67927 0.0
C285 C 0.85786 0.79453 0.66991 0.0
C286 C 0.84467 0.80054 0.65285 0.0
C287 C 0.84003 0.81609 0.65828 0.0
C288 C 0.86126 0.81998 0.6962 0.0
C289 C 0.86632 0.80461 0.69142 0.0
H290 H 0.82905 0.81979 0.64739 0.0
H291 H 0.86713 0.82721 0.71498 0.0
H292 H 0.81165 0.82389 0.69663 0.0
H293 H 0.82051 0.82079 0.80256 0.0
H294 H 0.87002 0.88785 0.63168 0.0
H295 H 0.83743 0.79305 0.63698 0.0
H296 H 0.87654 0.80055 0.70531 0.0
C297 C 0.93113 0.0826 0.51174 0.0
C298 C 0.94089 0.07169 0.52635 0.0
N299 N 0.94569 0.06177 0.50167 0.0
N300 N 0.92967 0.07956 0.47804 0.0
C301 C 0.93864 0.06677 0.47258 0.0
H302 H 0.92583 0.09247 0.52463 0.0
Co303 Co 0.9187 0.0926 0.44875 0.0
C304 C 0.91517 0.07527 0.38275 0.0
O305 O 0.91773 0.08859 0.36669 0.0
N306 N 0.90718 0.10644 0.42049 0.0
C307 C 0.88655 0.11694 0.39408 0.0
C308 C 0.89324 0.10326 0.40559 0.0
C309 C 0.9085 0.12222 0.4182 0.0
N310 N 0.89609 0.12893 0.40235 0.0
O311 O 0.89965 0.08734 0.47309 0.0
H312 H 0.8878 0.09181 0.40504 0.0
H313 H 0.91757 0.12887 0.4308 0.0
O314 O 0.91543 0.07499 0.41569 0.0
C315 C 0.89493 0.09846 0.49237 0.0
O316 O 0.90247 0.11187 0.49174 0.0
N317 N 0.93797 0.09867 0.42873 0.0
C318 C 0.96877 0.10854 0.41589 0.0
C319 C 0.9628 0.09489 0.40068 0.0
C320 C 0.9475 0.08999 0.40791 0.0
C321 C 0.94371 0.11182 0.44407 0.0
C322 C 0.95891 0.1171 0.43765 0.0
H323 H 0.94391 0.07874 0.39832 0.0
H324 H 0.93671 0.11779 0.46308 0.0
H325 H 0.94023 0.06142 0.44771 0.0
H326 H 0.94475 0.07155 0.55279 0.0
H327 H 0.87516 0.118 0.38207 0.0
H328 H 0.97004 0.08774 0.38414 0.0
H329 H 0.96314 0.12735 0.45112 0.0
C330 C 0.68031 0.18127 0.26118 0.0
C331 C 0.69151 0.19069 0.27566 0.0
N332 N 0.70161 0.19511 0.25095 0.0
N333 N 0.68333 0.17961 0.22749 0.0
C334 C 0.69641 0.18818 0.22193 0.0
H335 H 0.67022 0.17646 0.27418 0.0
Co336 Co 0.66991 0.16914 0.19806 0.0
C337 C 0.68742 0.16458 0.13258 0.0
O338 O 0.67426 0.16739 0.11614 0.0
N339 N 0.65567 0.15819 0.16971 0.0
C340 C 0.64415 0.13786 0.14429 0.0
C341 C 0.65814 0.14393 0.15573 0.0
C342 C 0.64001 0.16035 0.16692 0.0
N343 N 0.63268 0.14815 0.15171 0.0
O344 O 0.67394 0.1499 0.22306 0.0
H345 H 0.66924 0.13782 0.15603 0.0
H346 H 0.63388 0.17016 0.17794 0.0
O347 O 0.68754 0.165 0.16552 0.0
C348 C 0.6624 0.14731 0.24317 0.0
O349 O 0.65035 0.15689 0.24163 0.0
N350 N 0.66486 0.18859 0.17758 0.0
C351 C 0.656 0.21962 0.16395 0.0
C352 C 0.66942 0.21314 0.14873 0.0
C353 C 0.6738 0.1977 0.1563 0.0
C354 C 0.65201 0.19487 0.19308 0.0
C355 C 0.64723 0.21019 0.18627 0.0
H356 H 0.68486 0.19363 0.14654 0.0
H357 H 0.64585 0.18815 0.21233 0.0
H358 H 0.70179 0.18963 0.19703 0.0
H359 H 0.69171 0.19466 0.302 0.0
H360 H 0.64244 0.12624 0.13387 0.0
H361 H 0.67674 0.22006 0.13183 0.0
H362 H 0.63718 0.21482 0.19979 0.0
C363 C 0.58174 0.93111 1.01299 0.0
C364 C 0.57234 0.94246 0.02699 0.0
N365 N 0.56818 0.95252 1.00194 0.0
N366 N 0.58362 0.93401 0.97929 0.0
C367 C 0.57525 0.94717 0.97325 0.0
H368 H 0.5864 0.92102 1.0263 0.0
Co369 Co 0.5941 0.92051 0.95013 0.0
C370 C 0.59798 0.93773 0.884 0.0
O371 O 0.595 0.9245 0.86805 0.0
N372 N 0.6051 0.90626 0.92193 0.0
C373 C 0.62544 0.89504 0.89601 0.0
C374 C 0.61919 0.90895 0.90731 0.0
C375 C 0.60321 0.89054 0.91963 0.0
N376 N 0.61544 0.8834 0.90413 0.0
O377 O 0.61339 0.92489 0.97451 0.0
H378 H 0.62508 0.92017 0.90706 0.0
H379 H 0.5936 0.88426 0.93113 0.0
O380 O 0.59791 0.93797 0.91694 0.0
C381 C 0.61618 0.91348 0.99491 0.0
O382 O 0.60667 0.90136 0.99418 0.0
N383 N 0.5746 0.91512 0.93037 0.0
C384 C 0.5434 0.90609 0.91948 0.0
C385 C 0.54957 0.91949 0.90343 0.0
C386 C 0.56513 0.92396 0.90965 0.0
C387 C 0.56869 0.90219 0.94631 0.0
C388 C 0.55332 0.89729 0.94073 0.0
H389 H 0.56897 0.93506 0.89958 0.0
H390 H 0.57573 0.89606 0.96507 0.0
H391 H 0.57404 0.9525 0.94821 0.0
H392 H 0.56823 0.94279 0.05322 0.0
H393 H 0.637 0.89351 0.88515 0.0
H394 H 0.54221 0.92697 0.8878 0.0
H395 H 0.54913 0.88691 0.95388 0.0
C396 C 0.83554 0.18 0.79083 0.0
C397 C 0.82487 0.18967 0.77512 0.0
N398 N 0.8145 0.19452 0.79888 0.0
N399 N 0.83192 0.17866 0.82429 0.0
C400 C 0.819 0.18759 0.8285 0.0
H401 H 0.84565 0.17469 0.77887 0.0
Co402 Co 0.84452 0.16789 0.85479 0.0
C403 C 0.82662 0.16535 0.92017 0.0
O404 O 0.83982 0.16825 0.93635 0.0
N405 N 0.85793 0.15651 0.88434 0.0
C406 C 0.86793 0.13602 0.91222 0.0
C407 C 0.85444 0.14276 0.89979 0.0
C408 C 0.87369 0.15769 0.88733 0.0
N409 N 0.8801 0.14537 0.90405 0.0
O410 O 0.83937 0.14868 0.83098 0.0
H411 H 0.84293 0.13745 0.90004 0.0
H412 H 0.88058 0.16654 0.87459 0.0
O413 O 0.82654 0.16506 0.88722 0.0
C414 C 0.85068 0.1439 0.81228 0.0
O415 O 0.86416 0.1513 0.814 0.0
N416 N 0.85053 0.18732 0.87408 0.0
C417 C 0.86032 0.21835 0.88426 0.0
C418 C 0.84644 0.21275 0.89921 0.0
C419 C 0.8416 0.1973 0.89332 0.0
C420 C 0.86395 0.19267 0.85917 0.0
C421 C 0.86922 0.20795 0.86442 0.0
H422 H 0.83016 0.19396 0.90231 0.0
H423 H 0.87016 0.18528 0.84127 0.0
H424 H 0.81322 0.18925 0.85289 0.0
H425 H 0.82519 0.19343 0.74862 0.0
H426 H 0.86876 0.12473 0.92473 0.0
H427 H 0.83887 0.2205 0.91362 0.0
H428 H 0.87993 0.21172 0.85204 0.0
C429 C 0.58281 0.08276 0.53921 0.0
C430 C 0.5734 0.07154 0.52475 0.0
N431 N 0.5687 0.06165 0.54966 0.0
N432 N 0.58419 0.07995 0.57307 0.0
C433 C 0.57549 0.06697 0.57873 0.0
H434 H 0.58778 0.09275 0.52606 0.0
Co435 Co 0.59431 0.09353 0.60276 0.0
C436 C 0.59804 0.07628 0.6689 0.0
O437 O 0.59483 0.08947 0.68479 0.0
N438 N 0.60493 0.10789 0.63146 0.0
C439 C 0.62478 0.11946 0.65857 0.0
C440 C 0.61893 0.10545 0.64675 0.0
C441 C 0.60272 0.12356 0.6338 0.0
N442 N 0.61463 0.1309 0.65004 0.0
O443 O 0.61381 0.08944 0.57899 0.0
H444 H 0.62503 0.09434 0.64721 0.0
H445 H 0.59312 0.1297 0.62185 0.0
O446 O 0.59812 0.07604 0.63596 0.0
C447 C 0.61653 0.10095 0.55879 0.0
O448 O 0.6069 0.11296 0.55966 0.0
N449 N 0.57463 0.09865 0.62188 0.0
C450 C 0.54329 0.10734 0.63188 0.0
C451 C 0.54954 0.09408 0.64832 0.0
C452 C 0.56517 0.08977 0.64256 0.0
C453 C 0.56863 0.11144 0.60557 0.0
C454 C 0.55319 0.11618 0.61069 0.0
H455 H 0.56909 0.07876 0.65295 0.0
H456 H 0.5757 0.1176 0.58692 0.0
H457 H 0.5738 0.06178 0.60377 0.0
H458 H 0.56959 0.07124 0.49828 0.0
H459 H 0.63619 0.12123 0.67009 0.0
H460 H 0.54221 0.08657 0.66393 0.0
H461 H 0.54894 0.12646 0.59728 0.0
C462 C 0.67944 0.83253 0.28829 0.0
C463 C 0.69058 0.82312 0.27357 0.0
N464 N 0.70087 0.81881 0.29803 0.0
N465 N 0.68269 0.83428 0.32186 0.0
C466 C 0.69586 0.8258 0.3271 0.0
H467 H 0.66924 0.8373 0.27556 0.0
Co468 Co 0.66948 0.84475 0.35166 0.0
C469 C 0.68702 0.84824 0.41733 0.0
O470 O 0.67384 0.84517 0.43343 0.0
N471 N 0.65551 0.85578 0.38049 0.0
C472 C 0.64464 0.87614 0.40703 0.0
C473 C 0.65841 0.86983 0.39506 0.0
C474 C 0.63981 0.85397 0.38355 0.0
N475 N 0.63288 0.86621 0.39943 0.0
O476 O 0.67388 0.86409 0.32739 0.0
H477 H 0.66967 0.87565 0.39485 0.0
H478 H 0.63337 0.8444 0.37238 0.0
O479 O 0.68718 0.84833 0.38439 0.0
C480 C 0.66238 0.86711 0.30742 0.0
O481 O 0.65011 0.8578 0.30851 0.0
N482 N 0.66408 0.82522 0.37135 0.0
C483 C 0.655 0.79399 0.38207 0.0
C484 C 0.66865 0.8 0.39733 0.0
C485 C 0.67312 0.81557 0.39126 0.0
C486 C 0.65092 0.81947 0.35611 0.0
C487 C 0.64597 0.80411 0.36172 0.0
H488 H 0.68437 0.81929 0.40071 0.0
H489 H 0.64463 0.82663 0.33783 0.0
H490 H 0.70143 0.82446 0.35184 0.0
H491 H 0.69062 0.8191 0.24727 0.0
H492 H 0.64328 0.88769 0.41805 0.0
H493 H 0.67633 0.79251 0.4122 0.0
H494 H 0.63538 0.8001 0.34921 0.0
C495 C 0.9311 0.92779 0.04091 0.0
C496 C 0.94074 0.93861 1.0256 0.0
N497 N 0.94535 0.94899 0.04957 0.0
N498 N 0.92954 0.93133 0.07436 0.0
C499 C 0.9383 0.94435 0.07893 0.0
H500 H 0.92598 0.91763 0.02872 0.0
Co501 Co 0.9188 0.91855 0.10459 0.0
C502 C 0.91589 0.93639 0.16989 0.0
O503 O 0.91884 0.92321 0.18619 0.0
N504 N 0.90747 0.90497 0.13391 0.0
C505 C 0.88706 0.89477 0.16166 0.0
C506 C 0.89364 0.90832 0.14903 0.0
C507 C 0.90887 0.88924 0.13728 0.0
N508 N 0.8966 0.88272 0.15395 0.0
O509 O 0.89961 0.92348 0.08039 0.0
H510 H 0.88818 0.91975 0.14902 0.0
H511 H 0.91786 0.88242 0.12494 0.0
O512 O 0.91568 0.93645 0.13693 0.0
C513 C 0.89512 0.91209 0.06155 0.0
O514 O 0.90281 0.89878 0.06337 0.0
N515 N 0.93822 0.91276 0.12432 0.0
C516 C 0.96936 0.90342 0.13505 0.0
C517 C 0.96356 0.91728 0.14965 0.0
C518 C 0.94805 0.92187 0.14356 0.0
C519 C 0.94375 0.89935 0.10976 0.0
C520 C 0.95908 0.89428 0.11537 0.0
H521 H 0.94456 0.93329 0.15234 0.0
H522 H 0.93648 0.893 0.09184 0.0
H523 H 0.93976 0.95012 0.10339 0.0
H524 H 0.94466 0.93838 0.99922 0.0
H525 H 0.87577 0.89384 0.17407 0.0
H526 H 0.97118 0.92505 0.1639 0.0
H527 H 0.96296 0.88355 0.1033 0.0
C528 C 0.67933 0.68203 0.79069 0.0
C529 C 0.69056 0.69146 0.77619 0.0
N530 N 0.70091 0.69547 0.80072 0.0
N531 N 0.68261 0.67998 0.82419 0.0
C532 C 0.69586 0.68829 0.8296 0.0
H533 H 0.66909 0.67745 0.77786 0.0
Co534 Co 0.66942 0.6693 0.85385 0.0
C535 C 0.687 0.66571 0.91943 0.0
O536 O 0.67385 0.66884 0.93555 0.0
N537 N 0.6555 0.65809 0.88259 0.0
C538 C 0.64494 0.63769 0.90979 0.0
C539 C 0.6586 0.64415 0.89758 0.0
C540 C 0.63976 0.65966 0.88552 0.0
N541 N 0.63303 0.6474 0.90189 0.0
O542 O 0.6738 0.6501 0.82924 0.0
H543 H 0.66997 0.63855 0.89779 0.0
H544 H 0.63311 0.6688 0.87316 0.0
O545 O 0.68713 0.66561 0.88649 0.0
C546 C 0.66229 0.64744 0.80909 0.0
O547 O 0.65018 0.65694 0.81049 0.0
N548 N 0.66398 0.68872 0.87387 0.0
C549 C 0.65469 0.71977 0.88548 0.0
C550 C 0.66846 0.71381 0.90032 0.0
C551 C 0.67305 0.69833 0.89373 0.0
C552 C 0.65071 0.69444 0.85902 0.0
C553 C 0.64567 0.70973 0.865 0.0
H554 H 0.68439 0.69466 0.90282 0.0
H555 H 0.6444 0.68735 0.84071 0.0
H556 H 0.7015 0.68937 0.85433 0.0
H557 H 0.69062 0.69568 0.75 0.0
H558 H 0.64383 0.62637 0.92208 0.0
H559 H 0.67611 0.72128 0.91526 0.0
H560 H 0.63502 0.71377 0.85274 0.0
C561 C 0.58265 0.42981 0.04067 0.0
C562 C 0.57261 0.44028 1.02552 0.0
N563 N 0.56705 0.44994 0.04994 0.0
N564 N 0.58356 0.43285 0.07447 0.0
C565 C 0.57402 0.44528 0.07941 0.0
H566 H 0.58851 0.42019 0.02802 0.0
Co567 Co 0.59421 0.41976 0.1043 0.0
C568 C 0.59811 0.43734 0.16994 0.0
O569 O 0.59553 0.42411 0.1863 0.0
N570 N 0.60536 0.40581 0.13299 0.0
C571 C 0.62564 0.39459 0.15938 0.0
C572 C 0.61945 0.40851 0.1477 0.0
C573 C 0.60344 0.3901 0.13555 0.0
N574 N 0.61562 0.38298 0.15132 0.0
O575 O 0.61342 0.42456 0.08009 0.0
H576 H 0.62535 0.41972 0.14778 0.0
H577 H 0.59388 0.3838 0.12393 0.0
O578 O 0.5977 0.43749 0.13699 0.0
C579 C 0.61795 0.41325 0.06109 0.0
O580 O 0.61024 0.39994 0.0624 0.0
N581 N 0.57478 0.41413 0.12416 0.0
C582 C 0.54378 0.40485 0.1366 0.0
C583 C 0.55006 0.4182 0.15245 0.0
C584 C 0.56548 0.4228 0.14547 0.0
C585 C 0.56875 0.40126 0.10825 0.0
C586 C 0.55344 0.39626 0.11448 0.0
H587 H 0.56933 0.43386 0.15563 0.0
H588 H 0.57564 0.39527 0.08907 0.0
H589 H 0.5716 0.45028 0.10429 0.0
H590 H 0.5694 0.44052 0.99868 0.0
H591 H 0.63718 0.39302 0.17041 0.0
H592 H 0.54297 0.42536 0.16928 0.0
H593 H 0.54896 0.38623 0.1006 0.0
C594 C 0.83466 0.33119 0.29283 0.0
C595 C 0.82351 0.3218 0.27804 0.0
N596 N 0.81319 0.31753 0.30243 0.0
N597 N 0.83138 0.33298 0.32636 0.0
C598 C 0.8182 0.32452 0.33154 0.0
H599 H 0.84488 0.33591 0.28014 0.0
Co600 Co 0.84463 0.34353 0.35604 0.0
C601 C 0.82695 0.34796 0.4212 0.0
O602 O 0.84008 0.34507 0.43765 0.0
N603 N 0.85869 0.3546 0.38462 0.0
C604 C 0.8699 0.37505 0.41021 0.0
C605 C 0.85603 0.36885 0.39849 0.0
C606 C 0.87436 0.35257 0.3878 0.0
N607 N 0.8815 0.36486 0.40312 0.0
O608 O 0.84059 0.36272 0.33092 0.0
H609 H 0.84487 0.37485 0.39789 0.0
H610 H 0.88063 0.34281 0.37698 0.0
O611 O 0.82687 0.34763 0.38825 0.0
C612 C 0.85219 0.36538 0.311 0.0
O613 O 0.86429 0.35589 0.31278 0.0
N614 N 0.84968 0.32411 0.3767 0.0
C615 C 0.85845 0.29308 0.3905 0.0
C616 C 0.84485 0.2995 0.40506 0.0
C617 C 0.84052 0.31494 0.39741 0.0
C618 C 0.86271 0.3179 0.36186 0.0
C619 C 0.86747 0.30258 0.36882 0.0
H620 H 0.82934 0.31896 0.40658 0.0
H621 H 0.86905 0.32464 0.3429 0.0
H622 H 0.8126 0.3232 0.35624 0.0
H623 H 0.82349 0.31776 0.25175 0.0
H624 H 0.87146 0.38669 0.42061 0.0
H625 H 0.83735 0.29251 0.42143 0.0
H626 H 0.87768 0.29799 0.3558 0.0
C627 C 0.93083 0.5838 0.54426 0.0
C628 C 0.94051 0.57284 0.52972 0.0
N629 N 0.94545 0.56302 0.55457 0.0
N630 N 0.92957 0.5809 0.57808 0.0
C631 C 0.93857 0.56813 0.58369 0.0
H632 H 0.92547 0.59363 0.53123 0.0
Co633 Co 0.91881 0.59407 0.60728 0.0
C634 C 0.91469 0.5767 0.67318 0.0
O635 O 0.91722 0.58997 0.68931 0.0
N636 N 0.90751 0.60807 0.63544 0.0
C637 C 0.88701 0.61917 0.66099 0.0
C638 C 0.89328 0.60532 0.64934 0.0
C639 C 0.90948 0.62374 0.63856 0.0
N640 N 0.89716 0.63082 0.65385 0.0
O641 O 0.89973 0.58917 0.58266 0.0
H642 H 0.88736 0.59412 0.64894 0.0
H643 H 0.91926 0.63005 0.62783 0.0
O644 O 0.91518 0.57646 0.64026 0.0
C645 C 0.895 0.60039 0.56354 0.0
O646 O 0.90235 0.6139 0.56503 0.0
N647 N 0.93816 0.59976 0.62746 0.0
C648 C 0.96921 0.60887 0.63991 0.0
C649 C 0.96289 0.5955 0.65571 0.0
C650 C 0.94744 0.59099 0.64873 0.0
C651 C 0.94422 0.61265 0.61163 0.0
C652 C 0.95956 0.61757 0.61787 0.0
H653 H 0.94355 0.57991 0.65881 0.0
H654 H 0.93735 0.61871 0.59244 0.0
H655 H 0.9403 0.56289 0.60867 0.0
H656 H 0.94423 0.5726 0.5032 0.0
H657 H 0.87537 0.62066 0.67148 0.0
H658 H 0.96997 0.58826 0.67246 0.0
H659 H 0.96406 0.62762 0.60402 0.0
C660 C 0.68113 0.33024 0.76075 0.0
C661 C 0.69234 0.32057 0.77443 0.0
N662 N 0.70259 0.31687 0.7495 0.0
N663 N 0.68432 0.33279 0.72741 0.0
C664 C 0.69747 0.32446 0.72116 0.0
H665 H 0.6709 0.33464 0.77393 0.0
Co666 Co 0.6709 0.344 0.69942 0.0
C667 C 0.68767 0.34852 0.63284 0.0
O668 O 0.67427 0.34623 0.61697 0.0
N669 N 0.65664 0.35569 0.67265 0.0
C670 C 0.64539 0.37626 0.64739 0.0
C671 C 0.65935 0.36985 0.65823 0.0
C672 C 0.6409 0.35399 0.67097 0.0
N673 N 0.63376 0.36631 0.65575 0.0
O674 O 0.67629 0.36282 0.72425 0.0
H675 H 0.67064 0.37559 0.65753 0.0
H676 H 0.6346 0.34438 0.68246 0.0
O677 O 0.68812 0.34778 0.66573 0.0
C678 C 0.66575 0.36647 0.74601 0.0
O679 O 0.65286 0.35807 0.74725 0.0
N680 N 0.6648 0.32491 0.67882 0.0
C681 C 0.65509 0.29416 0.66499 0.0
C682 C 0.6685 0.30044 0.64928 0.0
C683 C 0.67333 0.31572 0.657 0.0
C684 C 0.65196 0.31883 0.69479 0.0
C685 C 0.64675 0.30366 0.68787 0.0
H686 H 0.68442 0.31955 0.64696 0.0
H687 H 0.64619 0.32553 0.7146 0.0
H688 H 0.70294 0.32365 0.69622 0.0
H689 H 0.69245 0.31596 0.80031 0.0
H690 H 0.64385 0.38783 0.63648 0.0
H691 H 0.67551 0.29346 0.63195 0.0
H692 H 0.63673 0.29916 0.70179 0.0
C693 C 0.93193 0.42923 1.01318 0.0
C694 C 0.94191 0.43991 0.02774 0.0
N695 N 0.94688 0.4498 1.00308 0.0
N696 N 0.93044 0.43238 0.97948 0.0
C697 C 0.9396 0.44507 0.97405 0.0
H698 H 0.92658 0.4194 1.02618 0.0
Co699 Co 0.91974 0.41918 0.94984 0.0
C700 C 0.91498 0.43705 0.8848 0.0
O701 O 0.91758 0.42394 0.86809 0.0
N702 N 0.9086 0.40516 0.92133 0.0
C703 C 0.8882 0.39385 0.89572 0.0
C704 C 0.89427 0.40774 0.90772 0.0
C705 C 0.91082 0.38954 0.91777 0.0
N706 N 0.89857 0.38235 0.90241 0.0
O707 O 0.90062 0.42324 0.97505 0.0
H708 H 0.88815 0.41883 0.90856 0.0
H709 H 0.92073 0.38333 0.92825 0.0
O710 O 0.91562 0.43701 0.91772 0.0
C711 C 0.89786 0.41159 0.99481 0.0
O712 O 0.90723 0.3994 0.99292 0.0
N713 N 0.93908 0.41408 0.92907 0.0
C714 C 0.97009 0.40527 0.91548 0.0
C715 C 0.96354 0.41862 0.9 0.0
C716 C 0.94811 0.42298 0.90754 0.0
C717 C 0.94538 0.40123 0.9446 0.0
C718 C 0.9607 0.39647 0.93783 0.0
H719 H 0.94401 0.43401 0.89761 0.0
H720 H 0.93869 0.39504 0.96387 0.0
H721 H 0.94154 0.45022 0.94907 0.0
H722 H 0.94548 0.44011 0.05436 0.0
H723 H 0.87656 0.39221 0.88534 0.0
H724 H 0.97042 0.42593 0.88302 0.0
H725 H 0.96538 0.38644 0.95145 0.0
C726 C 0.83257 0.68086 0.26158 0.0
C727 C 0.82163 0.69064 0.27585 0.0
N728 N 0.81182 0.69545 0.25089 0.0
N729 N 0.82965 0.67938 0.22783 0.0
C730 C 0.81691 0.68838 0.22196 0.0
H731 H 0.84243 0.67562 0.27472 0.0
Co732 Co 0.84293 0.66854 0.199 0.0
C733 C 0.82588 0.66436 0.13273 0.0
O734 O 0.83926 0.66671 0.11684 0.0
N735 N 0.85705 0.65719 0.17129 0.0
C736 C 0.86835 0.6367 0.14613 0.0
C737 C 0.85442 0.64293 0.15744 0.0
C738 C 0.87272 0.65921 0.16851 0.0
N739 N 0.87992 0.64691 0.15345 0.0
O740 O 0.83781 0.64947 0.22347 0.0
H741 H 0.84323 0.63697 0.15762 0.0
H742 H 0.87894 0.66903 0.17927 0.0
O743 O 0.82549 0.66497 0.16564 0.0
C744 C 0.84887 0.64484 0.24312 0.0
O745 O 0.86224 0.65246 0.24275 0.0
N746 N 0.84878 0.68786 0.17887 0.0
C747 C 0.85816 0.7188 0.16601 0.0
C748 C 0.84485 0.71249 0.14997 0.0
C749 C 0.8402 0.69711 0.15717 0.0
C750 C 0.86158 0.69393 0.19503 0.0
C751 C 0.86663 0.70921 0.18859 0.0
H752 H 0.82918 0.69323 0.14684 0.0
H753 H 0.86746 0.68709 0.21453 0.0
H754 H 0.81172 0.69003 0.19692 0.0
H755 H 0.82143 0.69455 0.30223 0.0
H756 H 0.86994 0.62506 0.13573 0.0
H757 H 0.83777 0.71954 0.13281 0.0
H758 H 0.87661 0.71371 0.20263 0.0
C759 C 0.58139 0.58463 0.51142 0.0
C760 C 0.57181 0.57363 0.52623 0.0
N761 N 0.56794 0.56298 0.50222 0.0
N762 N 0.58369 0.58093 0.47825 0.0
C763 C 0.57536 0.56765 0.47332 0.0
H764 H 0.58592 0.59501 0.52378 0.0
Co765 Co 0.59474 0.5938 0.44855 0.0
C766 C 0.59828 0.57609 0.38336 0.0
O767 O 0.59543 0.58932 0.36722 0.0
N768 N 0.60636 0.60741 0.41984 0.0
C769 C 0.62739 0.61744 0.39403 0.0
C770 C 0.62045 0.60396 0.40599 0.0
C771 C 0.60515 0.62317 0.41629 0.0
N772 N 0.61779 0.62956 0.4008 0.0
O773 O 0.61373 0.58916 0.47388 0.0
H774 H 0.62584 0.59249 0.40659 0.0
H775 H 0.59597 0.63009 0.42768 0.0
O776 O 0.59828 0.57591 0.41632 0.0
C777 C 0.61651 0.60072 0.49379 0.0
O778 O 0.60726 0.61301 0.49173 0.0
N779 N 0.57552 0.59947 0.42783 0.0
C780 C 0.54441 0.6087 0.41647 0.0
C781 C 0.55029 0.59483 0.40205 0.0
C782 C 0.56578 0.59027 0.40852 0.0
C783 C 0.56992 0.61292 0.44203 0.0
C784 C 0.55459 0.61792 0.43615 0.0
H785 H 0.56936 0.57883 0.39999 0.0
H786 H 0.57709 0.61935 0.45998 0.0
H787 H 0.57445 0.56171 0.44893 0.0
H788 H 0.56739 0.5739 0.55223 0.0
H789 H 0.63894 0.61832 0.38277 0.0
H790 H 0.54271 0.58704 0.38772 0.0
H791 H 0.55062 0.62865 0.44806 0.0
C792 C 0.33497 0.33276 0.26371 0.0
C793 C 0.32468 0.32264 0.27923 0.0
N794 N 0.3147 0.3172 0.25524 0.0
N795 N 0.3315 0.33382 0.23011 0.0
C796 C 0.319 0.32432 0.22568 0.0
H797 H 0.34473 0.33861 0.27592 0.0
Co798 Co 0.3441 0.3447 0.19971 0.0
C799 C 0.32629 0.34733 0.13421 0.0
O800 O 0.33955 0.34467 0.1181 0.0
N801 N 0.35751 0.35615 0.17031 0.0
C802 C 0.36756 0.37665 0.14256 0.0
C803 C 0.35407 0.36997 0.15513 0.0
C804 C 0.37325 0.35486 0.16703 0.0
N805 N 0.37968 0.36718 0.15036 0.0
O806 O 0.33882 0.36389 0.22339 0.0
H807 H 0.34259 0.37535 0.15506 0.0
H808 H 0.38012 0.3459 0.17946 0.0
O809 O 0.32615 0.34743 0.16716 0.0
C810 C 0.35011 0.36895 0.24182 0.0
O811 O 0.36365 0.36165 0.24057 0.0
N812 N 0.35023 0.32532 0.1804 0.0
C813 C 0.36012 0.29435 0.16991 0.0
C814 C 0.34629 0.29999 0.15473 0.0
C815 C 0.34143 0.31541 0.16068 0.0
C816 C 0.36361 0.31996 0.19549 0.0
C817 C 0.36894 0.30471 0.19004 0.0
H818 H 0.33004 0.31875 0.15136 0.0
H819 H 0.36975 0.32732 0.21358 0.0
H820 H 0.31365 0.32206 0.20105 0.0
H821 H 0.32477 0.31934 0.30602 0.0
H822 H 0.36843 0.38796 0.13014 0.0
H823 H 0.33875 0.29229 0.14009 0.0
H824 H 0.37964 0.30096 0.20252 0.0
C825 C 0.43073 0.58431 1.01107 0.0
C826 C 0.44101 0.57404 1.02615 0.0
N827 N 0.44667 0.56445 1.00172 0.0
N828 N 0.42979 0.5812 0.97731 0.0
C829 C 0.43954 0.56894 0.97232 0.0
H830 H 0.42472 0.59383 1.02372 0.0
Co831 Co 0.41878 0.59404 0.94765 0.0
C832 C 0.41487 0.57643 0.88213 0.0
O833 O 0.41705 0.58973 0.86576 0.0
N834 N 0.40726 0.60776 0.91916 0.0
C835 C 0.38655 0.61866 0.89381 0.0
C836 C 0.39304 0.60486 0.90529 0.0
C837 C 0.409 0.62346 0.91614 0.0
N838 N 0.39654 0.63043 0.90104 0.0
O839 O 0.39977 0.58882 0.97219 0.0
H840 H 0.38725 0.59358 0.90574 0.0
H841 H 0.41869 0.62987 0.92698 0.0
O842 O 0.41551 0.57625 0.91506 0.0
C843 C 0.39469 0.59998 0.99092 0.0
O844 O 0.40169 0.61367 0.98922 0.0
N845 N 0.43803 0.60005 0.92746 0.0
C846 C 0.46893 0.60964 0.91505 0.0
C847 C 0.46275 0.5963 0.89898 0.0
C848 C 0.44738 0.59154 0.90595 0.0
C849 C 0.44394 0.61296 0.94345 0.0
C850 C 0.45921 0.61811 0.93725 0.0
H851 H 0.44364 0.58047 0.8957 0.0
H852 H 0.437 0.61884 0.96271 0.0
H853 H 0.44197 0.56394 0.94743 0.0
H854 H 0.44428 0.57388 0.05296 0.0
H855 H 0.37485 0.62004 0.88351 0.0
H856 H 0.4699 0.58924 0.88206 0.0
H857 H 0.4636 0.62813 0.95126 0.0
C858 C 0.17873 0.68129 0.76005 0.0
C859 C 0.18946 0.69109 0.77509 0.0
N860 N 0.19965 0.69587 0.75086 0.0
N861 N 0.18216 0.67977 0.72654 0.0
C862 C 0.195 0.68876 0.72162 0.0
H863 H 0.16871 0.676 0.77248 0.0
Co864 Co 0.1694 0.66875 0.69686 0.0
C865 C 0.18722 0.66538 0.63143 0.0
O866 O 0.17402 0.66787 0.61489 0.0
N867 N 0.15582 0.65718 0.66821 0.0
C868 C 0.14552 0.63658 0.6414 0.0
C869 C 0.15912 0.64326 0.65344 0.0
C870 C 0.14006 0.65851 0.6653 0.0
N871 N 0.13348 0.64613 0.64917 0.0
O872 O 0.1747 0.64973 0.72128 0.0
H873 H 0.17057 0.63783 0.6533 0.0
H874 H 0.13331 0.66758 0.67756 0.0
O875 O 0.18724 0.66562 0.66437 0.0
C876 C 0.1636 0.64468 0.74026 0.0
O877 O 0.14999 0.65184 0.7393 0.0
N878 N 0.16336 0.68801 0.67668 0.0
C879 C 0.15377 0.71893 0.6643 0.0
C880 C 0.16747 0.71298 0.64933 0.0
C881 C 0.17222 0.69761 0.65631 0.0
C882 C 0.15011 0.6937 0.69167 0.0
C883 C 0.14496 0.70897 0.68542 0.0
H884 H 0.18354 0.69405 0.64705 0.0
H885 H 0.14399 0.68663 0.71039 0.0
H886 H 0.20061 0.69034 0.697 0.0
H887 H 0.18929 0.695 0.80147 0.0
H888 H 0.14456 0.62522 0.6293 0.0
H889 H 0.17481 0.72031 0.6333 0.0
H890 H 0.13465 0.71318 0.69868 0.0
C891 C 0.0833 0.43145 0.51356 0.0
C892 C 0.07364 0.44243 0.52814 0.0
N893 N 0.06877 0.45232 0.50336 0.0
N894 N 0.08462 0.43442 0.47978 0.0
C895 C 0.07566 0.44723 0.47423 0.0
H896 H 0.08858 0.42156 0.52651 0.0
Co897 Co 0.09534 0.42125 0.45053 0.0
C898 C 0.09826 0.43816 0.3838 0.0
O899 O 0.0957 0.42473 0.36834 0.0
N900 N 0.10662 0.40727 0.42229 0.0
C901 C 0.12699 0.39641 0.39575 0.0
C902 C 0.12063 0.4102 0.40749 0.0
C903 C 0.10489 0.39155 0.41959 0.0
N904 N 0.11714 0.38462 0.40371 0.0
O905 O 0.11458 0.42673 0.47386 0.0
H906 H 0.12634 0.42152 0.40723 0.0
H907 H 0.09534 0.38512 0.43087 0.0
O908 O 0.09824 0.43865 0.41672 0.0
C909 C 0.11944 0.41576 0.49348 0.0
O910 O 0.11193 0.40233 0.49362 0.0
N911 N 0.07591 0.41501 0.43169 0.0
C912 C 0.04497 0.40496 0.42151 0.0
C913 C 0.05068 0.41845 0.40503 0.0
C914 C 0.06609 0.42343 0.4109 0.0
C915 C 0.07042 0.40204 0.44822 0.0
C916 C 0.05519 0.39663 0.443 0.0
H917 H 0.06953 0.4346 0.40049 0.0
H918 H 0.07774 0.39625 0.46701 0.0
H919 H 0.07394 0.45249 0.44926 0.0
H920 H 0.06989 0.44263 0.55464 0.0
H921 H 0.1385 0.39507 0.38451 0.0
H922 H 0.04306 0.42561 0.38927 0.0
H923 H 0.05135 0.38622 0.45652 0.0
C924 C 0.33308 0.68097 0.29031 0.0
C925 C 0.32205 0.6907 0.27603 0.0
N926 N 0.31223 0.69542 0.30101 0.0
N927 N 0.33021 0.67943 0.32408 0.0
C928 C 0.31741 0.68834 0.32992 0.0
H929 H 0.34294 0.67578 0.27717 0.0
Co930 Co 0.3435 0.66864 0.35311 0.0
C931 C 0.32657 0.66524 0.41969 0.0
O932 O 0.33995 0.66774 0.43549 0.0
N933 N 0.3576 0.65732 0.38115 0.0
C934 C 0.36867 0.63691 0.40734 0.0
C935 C 0.35479 0.64327 0.39593 0.0
C936 C 0.37333 0.65907 0.38349 0.0
N937 N 0.38038 0.64681 0.39916 0.0
O938 O 0.3381 0.64949 0.32954 0.0
H939 H 0.3435 0.63751 0.39635 0.0
H940 H 0.37968 0.66865 0.37205 0.0
O941 O 0.32617 0.66547 0.38677 0.0
C942 C 0.34904 0.64474 0.30981 0.0
O943 O 0.36242 0.65233 0.30959 0.0
N944 N 0.34965 0.68802 0.3723 0.0
C945 C 0.35945 0.719 0.38289 0.0
C946 C 0.34608 0.71309 0.39941 0.0
C947 C 0.34122 0.69766 0.39336 0.0
C948 C 0.36252 0.69369 0.35577 0.0
C949 C 0.36781 0.70895 0.36119 0.0
H950 H 0.33012 0.69407 0.40383 0.0
H951 H 0.36832 0.68652 0.3368 0.0
H952 H 0.31222 0.6899 0.35497 0.0
H953 H 0.32178 0.69462 0.24964 0.0
H954 H 0.37011 0.62537 0.41848 0.0
H955 H 0.33889 0.72057 0.41535 0.0
H956 H 0.37814 0.71294 0.34764 0.0
C957 C 0.08305 0.58474 0.03979 0.0
C958 C 0.07292 0.57441 1.02448 0.0
N959 N 0.0671 0.56482 0.04884 0.0
N960 N 0.08374 0.58167 0.07362 0.0
C961 C 0.074 0.56938 0.07843 0.0
H962 H 0.08913 0.59426 0.02723 0.0
Co963 Co 0.09448 0.59456 0.10359 0.0
C964 C 0.09789 0.57693 0.16937 0.0
O965 O 0.09545 0.59019 0.18562 0.0
N966 N 0.10574 0.60833 0.13246 0.0
C967 C 0.12616 0.6193 0.15872 0.0
C968 C 0.11984 0.60548 0.14695 0.0
C969 C 0.10389 0.62402 0.13543 0.0
N970 N 0.11617 0.63102 0.15107 0.0
O971 O 0.11369 0.58941 0.0798 0.0
H972 H 0.12568 0.59422 0.14679 0.0
H973 H 0.09427 0.6304 0.12425 0.0
O974 O 0.09755 0.57679 0.13642 0.0
C975 C 0.11889 0.6006 0.06119 0.0
O976 O 0.1119 0.61429 0.06271 0.0
N977 N 0.07507 0.60051 0.12295 0.0
C978 C 0.04408 0.61018 0.13377 0.0
C979 C 0.05005 0.59681 0.15025 0.0
C980 C 0.06549 0.59202 0.14409 0.0
C981 C 0.06937 0.61342 0.10657 0.0
C982 C 0.05409 0.61863 0.11206 0.0
H983 H 0.06911 0.58092 0.15454 0.0
H984 H 0.07654 0.61933 0.0877 0.0
H985 H 0.0714 0.56439 0.1033 0.0
H986 H 0.06986 0.57421 0.99756 0.0
H987 H 0.13775 0.62073 0.16957 0.0
H988 H 0.04261 0.58956 0.16622 0.0
H989 H 0.05005 0.62898 0.09858 0.0
C990 C 0.18079 0.33291 0.79073 0.0
C991 C 0.19177 0.32331 0.77598 0.0
N992 N 0.20146 0.31808 0.80078 0.0
N993 N 0.18355 0.33383 0.82466 0.0
C994 C 0.19625 0.32472 0.83009 0.0
H995 H 0.17105 0.33846 0.77776 0.0
Co996 Co 0.17034 0.34437 0.85418 0.0
C997 C 0.18747 0.34739 0.9206 0.0
O998 O 0.17414 0.34461 0.93637 0.0
N999 N 0.15634 0.35546 0.88274 0.0
C1000 C 0.14537 0.37562 0.90985 0.0
C1001 C 0.15921 0.36936 0.89807 0.0
C1002 C 0.14062 0.35372 0.88508 0.0
N1003 N 0.13364 0.36583 0.90128 0.0
O1004 O 0.17554 0.36369 0.83075 0.0
H1005 H 0.17051 0.3751 0.8986 0.0
H1006 H 0.1342 0.34433 0.87312 0.0
O1007 O 0.18782 0.34741 0.88766 0.0
C1008 C 0.16443 0.36868 0.81166 0.0
O1009 O 0.15089 0.36138 0.81251 0.0
N1010 N 0.16435 0.32485 0.87311 0.0
C1011 C 0.15451 0.29386 0.88373 0.0
C1012 C 0.16798 0.29969 0.90001 0.0
C1013 C 0.17286 0.31512 0.89393 0.0
C1014 C 0.1514 0.31925 0.85676 0.0
C1015 C 0.1461 0.30398 0.86218 0.0
H1016 H 0.18401 0.31865 0.90425 0.0
H1017 H 0.14552 0.3265 0.83796 0.0
H1018 H 0.20137 0.32272 0.85509 0.0
H1019 H 0.19211 0.31985 0.74931 0.0
H1020 H 0.14395 0.38706 0.92137 0.0
H1021 H 0.17521 0.29214 0.91581 0.0
H1022 H 0.1357 0.30005 0.8488 0.0
C1023 C 0.43158 0.42961 0.54298 0.0
C1024 C 0.44116 0.44064 0.52821 0.0
N1025 N 0.44596 0.45061 0.55282 0.0
N1026 N 0.43024 0.43262 0.57672 0.0
C1027 C 0.4391 0.44552 0.58204 0.0
H1028 H 0.42637 0.41967 0.53016 0.0
Co1029 Co 0.41962 0.41937 0.60617 0.0
C1030 C 0.41522 0.43685 0.67169 0.0
O1031 O 0.41789 0.42365 0.6881 0.0
N1032 N 0.40848 0.40528 0.63456 0.0
C1033 C 0.38802 0.39397 0.65997 0.0
C1034 C 0.39423 0.40789 0.64848 0.0
C1035 C 0.41051 0.3896 0.63751 0.0
N1036 N 0.39821 0.3824 0.65269 0.0
O1037 O 0.40047 0.42389 0.58137 0.0
H1038 H 0.38823 0.41906 0.64807 0.0
H1039 H 0.42029 0.38338 0.62659 0.0
O1040 O 0.41573 0.43702 0.63876 0.0
C1041 C 0.39631 0.41247 0.56225 0.0
O1042 O 0.40433 0.39935 0.56386 0.0
N1043 N 0.43901 0.41401 0.62658 0.0
C1044 C 0.47004 0.40508 0.63999 0.0
C1045 C 0.46357 0.41846 0.65535 0.0
C1046 C 0.44815 0.4229 0.64785 0.0
C1047 C 0.44523 0.40115 0.61106 0.0
C1048 C 0.46056 0.39633 0.61775 0.0
H1049 H 0.44415 0.43397 0.65763 0.0
H1050 H 0.43847 0.39501 0.59184 0.0
H1051 H 0.44076 0.45085 0.6069 0.0
H1052 H 0.44491 0.4408 0.50172 0.0
H1053 H 0.37636 0.39237 0.67032 0.0
H1054 H 0.47051 0.42575 0.67225 0.0
H1055 H 0.46516 0.38628 0.60417 0.0
H1056 H 0.12802 0.12544 0.02906 0.0
H1057 H 0.14345 0.12591 0.08109 0.0
H1058 H 0.14681 0.07546 0.07934 0.0
H1059 H 0.13059 0.07492 0.02701 0.0
H1060 H 0.13821 0.0844 0.14016 0.0
H1061 H 0.18792 0.12202 0.10702 0.0
H1062 H 0.17053 0.13212 0.09402 0.0
H1063 H 0.17549 0.11361 0.07439 0.0
C1064 C 0.13229 0.1144 0.03919 0.0
C1065 C 0.12802 0.10013 1.02388 0.0
C1066 C 0.14134 0.11471 0.06892 0.0
C1067 C 0.14666 0.10076 0.08408 0.0
C1068 C 0.14301 0.08642 0.06803 0.0
H1069 H 0.18752 0.13316 0.27886 0.0
H1070 H 0.18725 0.1168 0.22686 0.0
C1071 C 0.13382 0.08611 0.03801 0.0
C1072 C 0.15411 0.10145 0.11873 0.0
H1073 H 0.17788 0.12514 0.16642 0.0
C1074 C 0.14723 0.09298 0.14574 0.0
C1075 C 0.16628 0.1122 0.12644 0.0
C1076 C 0.17557 0.12032 0.09875 0.0
C1077 C 0.15093 0.09626 0.18015 0.0
C1078 C 0.16134 0.10871 0.18788 0.0
C1079 C 0.16954 0.11589 0.16085 0.0
C1080 C 0.16194 0.1161 0.22257 0.0
C1081 C 0.14315 0.08666 0.20783 0.0
C1082 C 0.1479 0.12095 0.23795 0.0
C1083 C 0.14805 0.13008 0.26753 0.0
C1084 C 0.16226 0.13489 0.28244 0.0
C1085 C 0.17639 0.1295 0.26818 0.0
C1086 C 0.17623 0.12024 0.23834 0.0
H1087 H 0.14182 0.07428 0.19951 0.0
H1088 H 0.1499 0.0869 0.23217 0.0
H1089 H 0.13121 0.09131 0.2126 0.0
H1090 H 0.13672 0.11846 0.22601 0.0
H1091 H 0.13694 0.13403 0.27778 0.0
H1092 H 0.14282 0.89338 0.55225 0.0
H1093 H 0.15748 0.89095 0.49875 0.0
H1094 H 0.13488 0.9326 0.45998 0.0
H1095 H 0.1207 0.93537 0.51431 0.0
H1096 H 0.1421 0.88472 0.44268 0.0
H1097 H 0.17755 0.93783 0.41763 0.0
H1098 H 0.16993 0.93317 0.45964 0.0
H1099 H 0.15758 0.94236 0.42802 0.0
C1100 C 0.14159 0.90244 0.53292 0.0
C1101 C 0.13082 0.91468 0.53753 0.0
C1102 C 0.14988 0.90099 0.50221 0.0
C1103 C 0.14736 0.91157 0.4751 0.0
C1104 C 0.13737 0.92446 0.4806 0.0
H1105 H 0.14209 0.88973 0.2634 0.0
H1106 H 0.14089 0.9026 0.31927 0.0
C1107 C 0.12926 0.92608 0.51173 0.0
C1108 C 0.15295 0.9075 0.43994 0.0
H1109 H 0.17174 0.92157 0.3686 0.0
C1110 C 0.14883 0.89272 0.42685 0.0
C1111 C 0.16166 0.91792 0.41893 0.0
C1112 C 0.16707 0.93365 0.43188 0.0
C1113 C 0.15279 0.88824 0.39341 0.0
C1114 C 0.16098 0.89882 0.37205 0.0
C1115 C 0.16544 0.91349 0.38507 0.0
C1116 C 0.16383 0.89486 0.33553 0.0
C1117 C 0.14779 0.87231 0.38062 0.0
C1118 C 0.17747 0.88685 0.32552 0.0
C1119 C 0.17826 0.87959 0.29324 0.0
C1120 C 0.16533 0.88013 0.27091 0.0
C1121 C 0.15226 0.88922 0.28003 0.0
C1122 C 0.15155 0.89659 0.31195 0.0
H1123 H 0.14293 0.86485 0.40142 0.0
H1124 H 0.13868 0.87375 0.36052 0.0
H1125 H 0.15789 0.86614 0.36883 0.0
H1126 H 0.18699 0.88524 0.34355 0.0
H1127 H 0.18835 0.87242 0.28712 0.0
H1128 H 0.32436 0.88235 0.77961 0.0
H1129 H 0.32448 0.89838 0.72696 0.0
H1130 H 0.37473 0.89346 0.72084 0.0
H1131 H 0.37472 0.87834 0.77339 0.0
H1132 H 0.36673 0.92153 0.70005 0.0
H1133 H 0.32816 0.87801 0.63516 0.0
H1134 H 0.32004 0.88823 0.67118 0.0
H1135 H 0.33585 0.87462 0.67753 0.0
C1136 C 0.33542 0.88507 0.7674 0.0
C1137 C 0.3495 0.87888 0.78042 0.0
C1138 C 0.33548 0.89406 0.73705 0.0
C1139 C 0.34958 0.89681 0.71922 0.0
C1140 C 0.36366 0.8915 0.73376 0.0
H1141 H 0.38503 0.88791 0.52834 0.0
H1142 H 0.36976 0.88793 0.58059 0.0
C1143 C 0.36362 0.88273 0.7639 0.0
C1144 C 0.35015 0.90399 0.68423 0.0
H1145 H 0.34155 0.89572 0.60059 0.0
C1146 C 0.36098 0.91612 0.67827 0.0
C1147 C 0.34258 0.897 0.65575 0.0
C1148 C 0.33107 0.88369 0.65997 0.0
C1149 C 0.36568 0.92028 0.64489 0.0
C1150 C 0.35887 0.91253 0.61642 0.0
C1151 C 0.34683 0.90161 0.62235 0.0
C1152 C 0.36616 0.91305 0.58159 0.0
C1153 C 0.3789 0.9319 0.64071 0.0
C1154 C 0.36884 0.92713 0.56351 0.0
C1155 C 0.37791 0.92717 0.53334 0.0
C1156 C 0.38427 0.9131 0.52074 0.0
C1157 C 0.38051 0.899 0.5375 0.0
C1158 C 0.37166 0.89898 0.56747 0.0
H1159 H 0.38446 0.93494 0.66558 0.0
H1160 H 0.38807 0.92714 0.62346 0.0
H1161 H 0.37429 0.94285 0.62915 0.0
H1162 H 0.36438 0.93812 0.57326 0.0
H1163 H 0.38056 0.93822 0.52093 0.0
H1164 H 0.3682 0.1194 0.75127 0.0
H1165 H 0.37079 0.10472 0.80482 0.0
H1166 H 0.33023 0.12856 0.84515 0.0
H1167 H 0.32726 0.14272 0.79077 0.0
H1168 H 0.37816 0.11977 0.86013 0.0
H1169 H 0.32415 0.08643 0.88883 0.0
H1170 H 0.32846 0.09385 0.84647 0.0
H1171 H 0.32009 0.10651 0.87848 0.0
C1172 C 0.35938 0.12088 0.77096 0.0
C1173 C 0.3474 0.13199 0.76676 0.0
C1174 C 0.36092 0.11259 0.80171 0.0
C1175 C 0.35072 0.11546 0.82926 0.0
C1176 C 0.33806 0.12579 0.8242 0.0
H1177 H 0.37356 0.12162 0.04001 0.0
H1178 H 0.36047 0.12241 0.98426 0.0
C1179 C 0.33633 0.1339 0.79304 0.0
C1180 C 0.35501 0.10983 0.86435 0.0
H1181 H 0.341 0.09219 0.93715 0.0
C1182 C 0.37008 0.11345 0.87658 0.0
C1183 C 0.3445 0.10169 0.88619 0.0
C1184 C 0.32845 0.09675 0.8742 0.0
C1185 C 0.37477 0.10959 0.91 0.0
C1186 C 0.36411 0.102 0.93219 0.0
C1187 C 0.34915 0.09802 0.92003 0.0
C1188 C 0.36828 0.09942 0.96872 0.0
C1189 C 0.39099 0.11411 0.92193 0.0
C1190 C 0.37643 0.08589 0.97909 0.0
C1191 C 0.38381 0.08534 1.0113 0.0
C1192 C 0.38328 0.09839 0.03318 0.0
C1193 C 0.37408 0.11136 1.02371 0.0
C1194 C 0.36659 0.11184 0.99188 0.0
H1195 H 0.3983 0.11887 0.90079 0.0
H1196 H 0.39008 0.12313 0.9423 0.0
H1197 H 0.39702 0.10377 0.93315 0.0
H1198 H 0.37802 0.07627 0.96138 0.0
H1199 H 0.39106 0.07532 1.01769 0.0
H1200 H 0.82727 0.87042 0.79121 0.0
H1201 H 0.83033 0.88441 0.84564 0.0
H1202 H 0.87073 0.90851 0.80503 0.0
H1203 H 0.86807 0.89397 0.75142 0.0
H1204 H 0.87831 0.89342 0.8601 0.0
H1205 H 0.82419 0.92628 0.88982 0.0
H1206 H 0.82017 0.90621 0.87943 0.0
H1207 H 0.82838 0.919 0.84735 0.0
C1208 C 0.83632 0.87927 0.79344 0.0
C1209 C 0.84733 0.88129 0.76706 0.0
C1210 C 0.8381 0.88728 0.82463 0.0
C1211 C 0.85075 0.89764 0.82963 0.0
C1212 C 0.86088 0.90062 0.80197 0.0
H1213 H 0.89093 0.93725 1.01857 0.0
H1214 H 0.87785 0.93645 0.9623 0.0
C1215 C 0.85929 0.89241 0.77119 0.0
C1216 C 0.85509 0.90315 0.86472 0.0
H1217 H 0.84113 0.92032 0.93795 0.0
C1218 C 0.87022 0.89959 0.87673 0.0
C1219 C 0.84459 0.91112 0.8868 0.0
C1220 C 0.82848 0.91601 0.87507 0.0
C1221 C 0.87496 0.90331 0.91016 0.0
C1222 C 0.8643 0.9107 0.93259 0.0
C1223 C 0.84928 0.91464 0.92065 0.0
C1224 C 0.86851 0.91309 0.96914 0.0
C1225 C 0.89124 0.89887 0.92183 0.0
C1226 C 0.86706 0.90048 0.99201 0.0
C1227 C 0.87458 0.90088 1.02382 0.0
C1228 C 0.88356 0.91394 0.03356 0.0
C1229 C 0.88386 0.92715 1.01197 0.0
C1230 C 0.87645 0.92668 0.97979 0.0
H1231 H 0.89857 0.89438 0.90047 0.0
H1232 H 0.89718 0.90916 0.93339 0.0
H1233 H 0.89045 0.88964 0.94186 0.0
H1234 H 0.86111 0.88986 0.98418 0.0
H1235 H 0.87424 0.8905 0.03988 0.0
H1236 H 0.87151 0.1221 0.79143 0.0
H1237 H 0.87201 0.10898 0.73575 0.0
H1238 H 0.82641 0.12783 0.71221 0.0
H1239 H 0.82575 0.14086 0.76844 0.0
H1240 H 0.84571 0.08883 0.69155 0.0
H1241 H 0.86449 0.14829 0.64832 0.0
H1242 H 0.86752 0.14195 0.69199 0.0
H1243 H 0.84812 0.14626 0.67718 0.0
C1244 C 0.8613 0.1229 0.77499 0.0
C1245 C 0.84856 0.13243 0.78429 0.0
C1246 C 0.86161 0.11541 0.74318 0.0
C1247 C 0.84928 0.11746 0.71985 0.0
C1248 C 0.83598 0.12599 0.73002 0.0
H1249 H 0.86843 0.11521 0.50148 0.0
H1250 H 0.8535 0.11748 0.55473 0.0
C1251 C 0.83557 0.13336 0.7622 0.0
C1252 C 0.85172 0.11303 0.68344 0.0
H1253 H 0.86631 0.12791 0.60882 0.0
C1254 C 0.84997 0.09737 0.67317 0.0
C1255 C 0.85731 0.1242 0.65961 0.0
C1256 C 0.85955 0.14114 0.66955 0.0
C1257 C 0.85386 0.09256 0.63965 0.0
C1258 C 0.86013 0.10363 0.61617 0.0
C1259 C 0.86145 0.11937 0.62647 0.0
C1260 C 0.86632 0.09931 0.58158 0.0
C1261 C 0.85114 0.0757 0.62981 0.0
C1262 C 0.878 0.08776 0.57799 0.0
C1263 C 0.88619 0.08611 0.54701 0.0
C1264 C 0.88307 0.09621 0.51938 0.0
C1265 C 0.87083 0.10709 0.52223 0.0
C1266 C 0.8624 0.10848 0.55282 0.0
H1267 H 0.84133 0.07054 0.64476 0.0
H1268 H 0.84847 0.07452 0.60207 0.0
H1269 H 0.86183 0.06879 0.63567 0.0
H1270 H 0.88164 0.08081 0.59983 0.0
H1271 H 0.89591 0.07797 0.54577 0.0
H1272 H 0.63749 0.13642 0.27846 0.0
H1273 H 0.6374 0.12136 0.33109 0.0
H1274 H 0.68752 0.11547 0.32409 0.0
H1275 H 0.68774 0.13143 0.27135 0.0
H1276 H 0.64495 0.09308 0.35146 0.0
H1277 H 0.6845 0.13575 0.41618 0.0
H1278 H 0.67672 0.13936 0.37396 0.0
H1279 H 0.69234 0.12549 0.3799 0.0
C1280 C 0.64854 0.13184 0.28778 0.0
C1281 C 0.66267 0.13538 0.27095 0.0
C1282 C 0.64846 0.1231 0.31798 0.0
C1283 C 0.66248 0.11751 0.33227 0.0
C1284 C 0.67657 0.12 0.31419 0.0
H1285 H 0.63197 0.07549 0.53028 0.0
H1286 H 0.64788 0.07575 0.47757 0.0
C1287 C 0.67668 0.12895 0.28379 0.0
C1288 C 0.6619 0.11028 0.36719 0.0
H1289 H 0.6711 0.11803 0.45077 0.0
C1290 C 0.6509 0.09831 0.3732 0.0
C1291 C 0.66973 0.11703 0.39562 0.0
C1292 C 0.68142 0.13018 0.39135 0.0
C1293 C 0.64633 0.09406 0.40662 0.0
C1294 C 0.65344 0.10155 0.43507 0.0
C1295 C 0.6656 0.11234 0.42903 0.0
C1296 C 0.6464 0.10089 0.47015 0.0
C1297 C 0.63296 0.08263 0.4109 0.0
C1298 C 0.6412 0.11493 0.48492 0.0
C1299 C 0.6325 0.11482 0.51511 0.0
C1300 C 0.62861 0.10064 0.53145 0.0
C1301 C 0.63473 0.08659 0.51822 0.0
C1302 C 0.64364 0.08673 0.48783 0.0
H1303 H 0.62716 0.07985 0.38613 0.0
H1304 H 0.63747 0.07152 0.42192 0.0
H1305 H 0.62399 0.08741 0.42863 0.0
H1306 H 0.64317 0.12605 0.47212 0.0
H1307 H 0.62816 0.12589 0.52476 0.0
H1308 H 0.6881 0.8813 0.27713 0.0
H1309 H 0.68785 0.89763 0.22494 0.0
H1310 H 0.63733 0.89562 0.22355 0.0
H1311 H 0.63752 0.88008 0.27548 0.0
H1312 H 0.67867 0.88933 0.16439 0.0
H1313 H 0.6422 0.93986 0.19697 0.0
H1314 H 0.6503 0.92727 0.22975 0.0
H1315 H 0.63166 0.92274 0.21006 0.0
C1316 C 0.67697 0.88486 0.26627 0.0
C1317 C 0.66284 0.87939 0.28044 0.0
C1318 C 0.67682 0.89412 0.23632 0.0
C1319 C 0.66254 0.89816 0.22037 0.0
C1320 C 0.6485 0.89321 0.23563 0.0
H1321 H 0.62889 0.88854 0.02701 0.0
H1322 H 0.64447 0.88824 0.07884 0.0
C1323 C 0.64864 0.8841 0.26531 0.0
C1324 C 0.66197 0.90559 0.18564 0.0
H1325 H 0.63869 0.92972 0.13767 0.0
C1326 C 0.67027 0.89851 0.15871 0.0
C1327 C 0.65147 0.91796 0.17779 0.0
C1328 C 0.64358 0.92748 0.20536 0.0
C1329 C 0.66702 0.9022 0.12427 0.0
C1330 C 0.65475 0.91282 0.11642 0.0
C1331 C 0.64779 0.92122 0.14334 0.0
C1332 C 0.6473 0.91343 0.08174 0.0
C1333 C 0.67643 0.89419 0.09668 0.0
C1334 C 0.64341 0.92773 0.06567 0.0
C1335 C 0.63414 0.92794 0.03578 0.0
C1336 C 0.62849 0.91385 1.02179 0.0
C1337 C 0.63304 0.89962 0.03705 0.0
C1338 C 0.64217 0.89942 0.06666 0.0
H1339 H 0.68879 0.89267 0.105 0.0
H1340 H 0.67156 0.88231 0.09209 0.0
H1341 H 0.67627 0.90088 0.07225 0.0
H1342 H 0.64706 0.93874 0.07692 0.0
H1343 H 0.63069 0.93909 1.02483 0.0
H1344 H 0.63166 0.57518 0.52308 0.0
H1345 H 0.64748 0.57539 0.57599 0.0
H1346 H 0.64288 0.62569 0.581 0.0
H1347 H 0.62797 0.6256 0.52821 0.0
H1348 H 0.67084 0.61762 0.60216 0.0
H1349 H 0.62699 0.57956 0.6676 0.0
H1350 H 0.63721 0.57121 0.63181 0.0
H1351 H 0.62372 0.58711 0.62504 0.0
C1352 C 0.63439 0.58627 0.53513 0.0
C1353 C 0.62836 0.60034 0.52169 0.0
C1354 C 0.64326 0.58638 0.56562 0.0
C1355 C 0.64606 0.60054 0.58319 0.0
C1356 C 0.64089 0.61459 0.56829 0.0
H1357 H 0.63738 0.63638 0.77405 0.0
H1358 H 0.63728 0.62116 0.72178 0.0
C1359 C 0.63224 0.6145 0.53801 0.0
C1360 C 0.65318 0.60119 0.61821 0.0
H1361 H 0.64482 0.59287 0.70198 0.0
C1362 C 0.66537 0.61197 0.62402 0.0
C1363 C 0.64612 0.59375 0.64681 0.0
C1364 C 0.63273 0.58233 0.64276 0.0
C1365 C 0.66956 0.61671 0.65734 0.0
C1366 C 0.66176 0.61003 0.68591 0.0
C1367 C 0.65074 0.59805 0.68014 0.0
C1368 C 0.66236 0.61736 0.72068 0.0
C1369 C 0.68127 0.62985 0.66133 0.0
C1370 C 0.67646 0.61994 0.73869 0.0
C1371 C 0.67658 0.62899 0.76887 0.0
C1372 C 0.66257 0.63543 0.78157 0.0
C1373 C 0.64844 0.6318 0.76483 0.0
C1374 C 0.64834 0.62297 0.73485 0.0
H1375 H 0.68434 0.63536 0.63638 0.0
H1376 H 0.6766 0.63909 0.67852 0.0
H1377 H 0.6922 0.62518 0.67286 0.0
H1378 H 0.68741 0.6154 0.7289 0.0
H1379 H 0.68765 0.63153 0.78126 0.0
H1380 H 0.67781 0.35931 0.80786 0.0
H1381 H 0.67482 0.37453 0.86043 0.0
H1382 H 0.65654 0.41331 0.8016 0.0
H1383 H 0.65887 0.39766 0.74896 0.0
H1384 H 0.6839 0.40171 0.88848 0.0
H1385 H 0.61986 0.40395 0.86193 0.0
H1386 H 0.63311 0.39256 0.83615 0.0
H1387 H 0.63188 0.41345 0.83046 0.0
C1388 C 0.67365 0.37127 0.80605 0.0
C1389 C 0.66873 0.3774 0.77443 0.0
C1390 C 0.67186 0.37997 0.83615 0.0
C1391 C 0.66507 0.39496 0.83525 0.0
C1392 C 0.66141 0.40162 0.80316 0.0
H1393 H 0.62182 0.43816 1.01745 0.0
H1394 H 0.63597 0.43764 0.96248 0.0
C1395 C 0.663 0.3928 0.77302 0.0
C1396 C 0.66044 0.40266 0.86808 0.0
H1397 H 0.62834 0.4138 0.91454 0.0
C1398 C 0.67177 0.40457 0.89396 0.0
C1399 C 0.6446 0.40639 0.8755 0.0
C1400 C 0.63162 0.40388 0.84973 0.0
C1401 C 0.66763 0.40949 0.92717 0.0
C1402 C 0.65174 0.41259 0.93482 0.0
C1403 C 0.64055 0.41154 0.90855 0.0
C1404 C 0.64603 0.41464 0.9706 0.0
C1405 C 0.68023 0.41093 0.95408 0.0
C1406 C 0.6473 0.40211 0.99377 0.0
C1407 C 0.63917 0.40235 1.02483 0.0
C1408 C 0.62971 0.4152 0.03361 0.0
C1409 C 0.6293 0.42826 1.01163 0.0
C1410 C 0.63727 0.42791 0.98013 0.0
H1411 H 0.69189 0.41306 0.94231 0.0
H1412 H 0.67759 0.42057 0.97227 0.0
H1413 H 0.68091 0.39981 0.96883 0.0
H1414 H 0.65369 0.39162 0.9868 0.0
H1415 H 0.63953 0.39205 0.04112 0.0
H1416 H 0.88245 0.43703 1.02353 0.0
H1417 H 0.86666 0.43678 0.0764 0.0
H1418 H 0.87179 0.38654 0.08248 0.0
H1419 H 0.88669 0.38666 0.02971 0.0
H1420 H 0.84369 0.39446 0.10339 0.0
H1421 H 0.88733 0.43297 0.16807 0.0
H1422 H 0.87705 0.44116 0.13209 0.0
H1423 H 0.89062 0.42533 0.12568 0.0
C1424 C 0.87983 0.42593 0.0358 0.0
C1425 C 0.88602 0.41189 1.02266 0.0
C1426 C 0.87098 0.42581 0.06626 0.0
C1427 C 0.86834 0.41167 0.08412 0.0
C1428 C 0.87366 0.39763 0.06953 0.0
H1429 H 0.87712 0.37632 0.27584 0.0
H1430 H 0.87722 0.39139 0.22321 0.0
C1431 C 0.8823 0.39773 0.03927 0.0
C1432 C 0.86125 0.41105 0.11913 0.0
H1433 H 0.86958 0.41967 0.20272 0.0
C1434 C 0.84913 0.40021 0.12514 0.0
C1435 C 0.86828 0.41861 0.14757 0.0
C1436 C 0.8816 0.4301 0.14329 0.0
C1437 C 0.84496 0.39555 0.15855 0.0
C1438 C 0.85272 0.40237 0.18698 0.0
C1439 C 0.86369 0.41438 0.18098 0.0
C1440 C 0.85214 0.39516 0.22191 0.0
C1441 C 0.83333 0.38236 0.16281 0.0
C1442 C 0.83804 0.39264 0.23991 0.0
C1443 C 0.83792 0.38369 0.2703 0.0
C1444 C 0.85193 0.37729 0.28321 0.0
C1445 C 0.86606 0.38088 0.26646 0.0
C1446 C 0.86616 0.38961 0.23627 0.0
H1447 H 0.83029 0.37676 0.13799 0.0
H1448 H 0.83805 0.37321 0.18025 0.0
H1449 H 0.82237 0.38701 0.1742 0.0
H1450 H 0.82708 0.39714 0.22995 0.0
H1451 H 0.82684 0.38119 0.28269 0.0
H1452 H 0.83082 0.6483 0.29973 0.0
H1453 H 0.83435 0.63416 0.35395 0.0
H1454 H 0.8654 0.60161 0.30369 0.0
H1455 H 0.86266 0.61642 0.25009 0.0
H1456 H 0.8316 0.60602 0.38301 0.0
H1457 H 0.89482 0.62036 0.37113 0.0
H1458 H 0.88043 0.62773 0.34148 0.0
H1459 H 0.88784 0.60806 0.33722 0.0
C1460 C 0.83795 0.63779 0.30006 0.0
C1461 C 0.8464 0.63335 0.2708 0.0
C1462 C 0.84005 0.62976 0.33112 0.0
C1463 C 0.85056 0.61709 0.3333 0.0
C1464 C 0.85765 0.61165 0.30304 0.0
H1465 H 0.89351 0.57614 0.51796 0.0
H1466 H 0.88033 0.57684 0.46184 0.0
C1467 C 0.85587 0.61993 0.27224 0.0
C1468 C 0.85537 0.61083 0.36755 0.0
H1469 H 0.88725 0.60611 0.41984 0.0
C1470 C 0.84379 0.60592 0.3909 0.0
C1471 C 0.87128 0.61087 0.37826 0.0
C1472 C 0.88429 0.61718 0.35589 0.0
C1473 C 0.84768 0.60124 0.42453 0.0
C1474 C 0.86353 0.60133 0.435 0.0
C1475 C 0.87512 0.60579 0.4115 0.0
C1476 C 0.86837 0.59877 0.47119 0.0
C1477 C 0.83486 0.59649 0.44896 0.0
C1478 C 0.86568 0.61063 0.49532 0.0
C1479 C 0.87334 0.61035 0.52702 0.0
C1480 C 0.88363 0.59808 0.53543 0.0
C1481 C 0.88536 0.58555 0.51241 0.0
C1482 C 0.87792 0.586 0.4803 0.0
H1483 H 0.82367 0.59407 0.43538 0.0
H1484 H 0.83836 0.58592 0.46374 0.0
H1485 H 0.83283 0.60612 0.46753 0.0
H1486 H 0.85858 0.62072 0.48866 0.0
H1487 H 0.87199 0.62025 0.54413 0.0
H1488 H 0.37595 0.39043 0.54042 0.0
H1489 H 0.36258 0.3897 0.48499 0.0
H1490 H 0.37809 0.43678 0.46372 0.0
H1491 H 0.3914 0.43766 0.51974 0.0
H1492 H 0.34119 0.41859 0.44079 0.0
H1493 H 0.39988 0.39697 0.39957 0.0
H1494 H 0.39269 0.39214 0.44175 0.0
H1495 H 0.39799 0.41196 0.43188 0.0
C1496 C 0.37597 0.40087 0.52455 0.0
C1497 C 0.38466 0.41412 0.53439 0.0
C1498 C 0.36831 0.40044 0.4929 0.0
C1499 C 0.36934 0.41317 0.47029 0.0
C1500 C 0.37701 0.4269 0.48103 0.0
H1501 H 0.36774 0.39476 0.25211 0.0
H1502 H 0.37014 0.40939 0.30568 0.0
C1503 C 0.38455 0.42742 0.51306 0.0
C1504 C 0.36495 0.41085 0.43382 0.0
H1505 H 0.37939 0.39515 0.36003 0.0
C1506 C 0.34955 0.41369 0.42284 0.0
C1507 C 0.37589 0.40447 0.41056 0.0
C1508 C 0.39258 0.40118 0.42124 0.0
C1509 C 0.34474 0.41005 0.38914 0.0
C1510 C 0.35555 0.40303 0.36623 0.0
C1511 C 0.37106 0.40059 0.37727 0.0
C1512 C 0.35117 0.39726 0.33134 0.0
C1513 C 0.32818 0.41381 0.37849 0.0
C1514 C 0.33913 0.38615 0.32697 0.0
C1515 C 0.33746 0.3781 0.29581 0.0
C1516 C 0.34799 0.38083 0.26882 0.0
C1517 C 0.35931 0.39264 0.27238 0.0
C1518 C 0.36077 0.4009 0.30314 0.0
H1519 H 0.32341 0.42378 0.39351 0.0
H1520 H 0.32748 0.41676 0.35079 0.0
H1521 H 0.32062 0.40348 0.38348 0.0
H1522 H 0.33181 0.38277 0.34839 0.0
H1523 H 0.32893 0.36873 0.29401 0.0
H1524 H 0.39371 0.57576 0.03682 0.0
H1525 H 0.38054 0.57626 0.09289 0.0
H1526 H 0.35785 0.61962 0.06532 0.0
H1527 H 0.37122 0.61934 1.00989 0.0
H1528 H 0.38702 0.60514 0.13452 0.0
H1529 H 0.32347 0.59305 0.1191 0.0
H1530 H 0.33813 0.58522 0.09038 0.0
H1531 H 0.33237 0.60539 0.08707 0.0
C1532 C 0.38536 0.585 0.04219 0.0
C1533 C 0.38335 0.59745 1.01898 0.0
C1534 C 0.37792 0.58533 0.07428 0.0
C1535 C 0.3681 0.59791 0.08317 0.0
C1536 C 0.36515 0.60967 0.05883 0.0
H1537 H 0.331 0.64811 0.2531 0.0
H1538 H 0.33437 0.63368 0.19935 0.0
C1539 C 0.37279 0.6095 0.02716 0.0
C1540 C 0.36328 0.60045 0.11935 0.0
H1541 H 0.33138 0.60536 0.17113 0.0
C1542 C 0.37489 0.60488 0.14283 0.0
C1543 C 0.34743 0.60042 0.12977 0.0
C1544 C 0.33458 0.59567 0.10541 0.0
C1545 C 0.37107 0.61003 0.17597 0.0
C1546 C 0.35516 0.6101 0.18659 0.0
C1547 C 0.34356 0.60518 0.16329 0.0
C1548 C 0.35038 0.61652 0.22062 0.0
C1549 C 0.38411 0.61631 0.1983 0.0
C1550 C 0.35739 0.61113 0.25108 0.0
C1551 C 0.3557 0.61958 0.28161 0.0
C1552 C 0.34639 0.63312 0.28257 0.0
C1553 C 0.33799 0.63751 0.25314 0.0
C1554 C 0.34001 0.62931 0.22235 0.0
H1555 H 0.39469 0.61934 0.18308 0.0
H1556 H 0.38032 0.62695 0.21238 0.0
H1557 H 0.38756 0.60724 0.21725 0.0
H1558 H 0.36504 0.60101 0.25077 0.0
H1559 H 0.36245 0.6161 0.3039 0.0
H1560 H 0.11988 0.57637 1.01554 0.0
H1561 H 0.13293 0.57693 0.95936 0.0
H1562 H 0.15563 0.62031 0.98646 0.0
H1563 H 0.14236 0.61997 0.04203 0.0
H1564 H 0.12623 0.60603 0.91795 0.0
H1565 H 0.18984 0.59376 0.93198 0.0
H1566 H 0.17528 0.5858 0.96088 0.0
H1567 H 0.18102 0.60597 0.96425 0.0
C1568 C 0.12821 0.58562 1.01006 0.0
C1569 C 0.13023 0.59806 0.03317 0.0
C1570 C 0.13558 0.58599 0.9779 0.0
C1571 C 0.14536 0.5986 0.96883 0.0
C1572 C 0.14836 0.61034 0.99309 0.0
H1573 H 0.18197 0.64823 0.79648 0.0
H1574 H 0.17879 0.63412 0.85084 0.0
C1575 C 0.14078 0.61013 1.02484 0.0
C1576 C 0.15002 0.6012 0.93257 0.0
H1577 H 0.18168 0.60593 0.87992 0.0
C1578 C 0.13832 0.60571 0.90935 0.0
C1579 C 0.16582 0.60111 0.92177 0.0
C1580 C 0.17877 0.59631 0.94587 0.0
C1581 C 0.14199 0.61082 0.87606 0.0
C1582 C 0.15784 0.61078 0.86501 0.0
C1583 C 0.16954 0.60584 0.88809 0.0
C1584 C 0.16246 0.61702 0.83065 0.0
C1585 C 0.12887 0.61718 0.85402 0.0
C1586 C 0.15519 0.61155 0.8006 0.0
C1587 C 0.15676 0.61982 0.76975 0.0
C1588 C 0.16621 0.63325 0.76802 0.0
C1589 C 0.17485 0.63772 0.79703 0.0
C1590 C 0.17294 0.6297 0.82817 0.0
H1591 H 0.11844 0.62037 0.86952 0.0
H1592 H 0.13268 0.62772 0.83955 0.0
H1593 H 0.12518 0.60808 0.83542 0.0
H1594 H 0.14746 0.6015 0.80148 0.0
H1595 H 0.14985 0.61627 0.74778 0.0
H1596 H 0.18867 0.37019 0.76605 0.0
H1597 H 0.18806 0.3837 0.71029 0.0
H1598 H 0.14456 0.40591 0.73818 0.0
H1599 H 0.14495 0.39219 0.7933 0.0
H1600 H 0.15912 0.37722 0.6685 0.0
H1601 H 0.17088 0.44077 0.68505 0.0
H1602 H 0.17887 0.42601 0.71347 0.0
H1603 H 0.15867 0.4316 0.71693 0.0
C1604 C 0.17938 0.37851 0.76085 0.0
C1605 C 0.16693 0.38028 0.78405 0.0
C1606 C 0.17898 0.38614 0.72893 0.0
C1607 C 0.16632 0.39592 0.72019 0.0
C1608 C 0.15456 0.39865 0.74455 0.0
H1609 H 0.11602 0.43364 0.5503 0.0
H1610 H 0.13042 0.4301 0.60415 0.0
C1611 C 0.1548 0.39081 0.77606 0.0
C1612 C 0.16372 0.40091 0.68409 0.0
H1613 H 0.15867 0.43304 0.63278 0.0
C1614 C 0.15933 0.38939 0.66039 0.0
C1615 C 0.16367 0.41681 0.67393 0.0
C1616 C 0.16836 0.42957 0.69853 0.0
C1617 C 0.15417 0.39334 0.62728 0.0
C1618 C 0.15403 0.40931 0.6169 0.0
C1619 C 0.15889 0.42082 0.64043 0.0
C1620 C 0.14763 0.41421 0.58286 0.0
C1621 C 0.14793 0.38038 0.60472 0.0
C1622 C 0.15306 0.40734 0.55236 0.0
C1623 C 0.14463 0.40912 0.52177 0.0
C1624 C 0.13107 0.4184 0.52078 0.0
C1625 C 0.12663 0.42668 0.55028 0.0
C1626 C 0.13482 0.42456 0.58113 0.0
H1627 H 0.14491 0.36973 0.61977 0.0
H1628 H 0.13729 0.38421 0.59059 0.0
H1629 H 0.15703 0.37703 0.58581 0.0
H1630 H 0.1632 0.39972 0.55268 0.0
H1631 H 0.14814 0.40246 0.49944 0.0
H1632 H 0.14501 0.24056 0.33193 0.0
H1633 H 0.13838 0.26828 0.33658 0.0
H1634 H 0.15005 0.26737 0.44411 0.0
H1635 H 0.15648 0.23944 0.4399 0.0
H1636 H 0.11568 0.28255 0.37982 0.0
H1637 H 0.17597 0.30445 0.40484 0.0
H1638 H 0.17215 0.28515 0.38785 0.0
H1639 H 0.16932 0.289 0.43266 0.0
C1640 C 0.146 0.24615 0.35674 0.0
C1641 C 0.15119 0.23769 0.38563 0.0
C1642 C 0.1423 0.26205 0.35926 0.0
C1643 C 0.14385 0.26991 0.39059 0.0
C1644 C 0.149 0.26157 0.41954 0.0
H1645 H 0.10531 0.36104 0.44316 0.0
H1646 H 0.11138 0.33319 0.43926 0.0
C1647 C 0.15268 0.24561 0.41708 0.0
C1648 C 0.13983 0.2868 0.39279 0.0
H1649 H 0.15544 0.32306 0.40734 0.0
C1650 C 0.12435 0.29142 0.38589 0.0
C1651 C 0.15122 0.29834 0.40029 0.0
C1652 C 0.16814 0.29408 0.40658 0.0
C1653 C 0.11993 0.30727 0.3866 0.0
C1654 C 0.13125 0.31878 0.39472 0.0
C1655 C 0.14676 0.31419 0.4013 0.0
C1656 C 0.12724 0.33568 0.39639 0.0
C1657 C 0.10323 0.3116 0.37806 0.0
C1658 C 0.13426 0.34639 0.37378 0.0
C1659 C 0.13073 0.36238 0.37575 0.0
C1660 C 0.1202 0.36802 0.40059 0.0
C1661 C 0.11319 0.35719 0.4232 0.0
C1662 C 0.1167 0.34121 0.42113 0.0
H1663 H 0.09702 0.30194 0.36467 0.0
H1664 H 0.09681 0.31416 0.40213 0.0
H1665 H 0.10283 0.32224 0.36166 0.0
H1666 H 0.14245 0.34235 0.3545 0.0
H1667 H 0.13624 0.37032 0.35777 0.0
H1668 H 0.90294 0.8543 0.69207 0.0
H1669 H 0.93085 0.86035 0.69 0.0
H1670 H 0.923 0.89113 0.60394 0.0
H1671 H 0.895 0.88497 0.60545 0.0
H1672 H 0.9527 0.8566 0.63643 0.0
H1673 H 0.94621 0.91901 0.67391 0.0
H1674 H 0.93066 0.90484 0.67911 0.0
H1675 H 0.93457 0.91321 0.63768 0.0
C1676 C 0.90709 0.86217 0.67232 0.0
C1677 C 0.89662 0.86916 0.64891 0.0
C1678 C 0.92309 0.86571 0.67136 0.0
C1679 C 0.92897 0.87638 0.6472 0.0
C1680 C 0.91866 0.88311 0.62329 0.0
H1681 H 0.02492 0.89225 0.5853 0.0
H1682 H 0.99733 0.88508 0.58964 0.0
C1683 C 0.90265 0.87957 0.62417 0.0
C1684 C 0.9459 0.88039 0.647 0.0
H1685 H 0.97157 0.91082 0.65652 0.0
C1686 C 0.95684 0.86844 0.64089 0.0
C1687 C 0.95128 0.8958 0.65336 0.0
C1688 C 0.94011 0.90895 0.6617 0.0
C1689 C 0.973 0.87156 0.6402 0.0
C1690 C 0.97835 0.88707 0.64542 0.0
C1691 C 0.96744 0.89896 0.65229 0.0
C1692 C 0.99521 0.89124 0.64319 0.0
C1693 C 0.98424 0.8582 0.63423 0.0
C1694 C 1.00313 0.89739 0.67171 0.0
C1695 C 0.01901 0.90143 0.6694 0.0
C1696 C 0.02723 0.8995 0.63843 0.0
C1697 C 0.01913 0.89352 0.60982 0.0
C1698 C 1.00331 0.88945 0.61219 0.0
H1699 H 0.9787 0.84666 0.63949 0.0
H1700 H 0.98806 0.85833 0.60704 0.0
H1701 H 0.99482 0.85939 0.65062 0.0
H1702 H 0.99706 0.89893 0.69585 0.0
H1703 H 0.02488 0.90593 0.69196 0.0
H1704 H 0.40862 0.65373 0.94075 0.0
H1705 H 0.40205 0.68152 0.93861 0.0
H1706 H 0.37028 0.6729 0.85479 0.0
H1707 H 0.37694 0.645 0.85638 0.0
H1708 H 0.40484 0.70317 0.88461 0.0
H1709 H 0.34296 0.69603 0.92566 0.0
H1710 H 0.35735 0.68066 0.93032 0.0
H1711 H 0.34846 0.68436 0.88932 0.0
C1712 C 0.40041 0.65769 0.92147 0.0
C1713 C 0.39331 0.64703 0.8987 0.0
C1714 C 0.39658 0.67361 0.92049 0.0
C1715 C 0.38549 0.67924 0.89694 0.0
C1716 C 0.37861 0.66875 0.87368 0.0
H1717 H 0.36809 0.77458 0.83301 0.0
H1718 H 0.37524 0.747 0.83793 0.0
C1719 C 0.38246 0.65281 0.87459 0.0
C1720 C 0.38125 0.69611 0.8966 0.0
H1721 H 0.35062 0.72144 0.9071 0.0
C1722 C 0.393 0.70717 0.88961 0.0
C1723 C 0.36585 0.70132 0.90367 0.0
C1724 C 0.35293 0.69001 0.91299 0.0
C1725 C 0.38968 0.72329 0.88869 0.0
C1726 C 0.37416 0.72846 0.89456 0.0
C1727 C 0.36248 0.71743 0.90236 0.0
C1728 C 0.36977 0.74525 0.89192 0.0
C1729 C 0.40283 0.73467 0.88172 0.0
C1730 C 0.36397 0.75335 0.9205 0.0
C1731 C 0.35993 0.76923 0.91786 0.0
C1732 C 0.36155 0.77725 0.8865 0.0
C1733 C 0.36709 0.76894 0.8578 0.0
C1734 C 0.37115 0.75313 0.8605 0.0
H1735 H 0.41449 0.72931 0.88655 0.0
H1736 H 0.40238 0.73836 0.85443 0.0
H1737 H 0.40167 0.74532 0.89786 0.0
H1738 H 0.36274 0.74744 0.94496 0.0
H1739 H 0.35575 0.77526 0.94047 0.0
H1740 H 0.48777 0.1081 0.19204 0.0
H1741 H 0.51553 0.1153 0.19631 0.0
H1742 H 0.51539 0.12928 0.09007 0.0
H1743 H 0.48785 0.12194 0.08536 0.0
H1744 H 0.54113 0.10364 0.15781 0.0
H1745 H 0.53379 0.16772 0.13953 0.0
H1746 H 0.51767 0.15493 0.15039 0.0
H1747 H 0.52462 0.15602 0.10696 0.0
C1748 C 0.49365 0.11268 0.16956 0.0
C1749 C 0.48548 0.11461 0.13847 0.0
C1750 C 0.50949 0.11684 0.17209 0.0
C1751 C 0.51744 0.12308 0.14366 0.0
C1752 C 0.50939 0.12486 0.11255 0.0
H1753 H 0.61761 0.12924 0.10659 0.0
H1754 H 0.58959 0.12313 0.10518 0.0
C1755 C 0.4936 0.12068 0.10997 0.0
C1756 C 0.53428 0.12733 0.14608 0.0
H1757 H 0.55984 0.15786 0.13657 0.0
C1758 C 0.54523 0.11551 0.15335 0.0
C1759 C 0.53958 0.14285 0.14058 0.0
C1760 C 0.52831 0.15616 0.13424 0.0
C1761 C 0.56137 0.11872 0.15449 0.0
C1762 C 0.56671 0.13412 0.14776 0.0
C1763 C 0.55574 0.14602 0.14131 0.0
C1764 C 0.58364 0.13817 0.14781 0.0
C1765 C 0.57257 0.10562 0.16326 0.0
C1766 C 0.58953 0.14902 0.17153 0.0
C1767 C 0.60553 0.15254 0.1724 0.0
C1768 C 0.616 0.14535 0.14937 0.0
C1769 C 0.60995 0.1348 0.12503 0.0
C1770 C 0.59394 0.13127 0.12422 0.0
H1771 H 0.56649 0.09565 0.1759 0.0
H1772 H 0.57804 0.10121 0.13936 0.0
H1773 H 0.58205 0.10984 0.18044 0.0
H1774 H 0.58178 0.15451 0.18991 0.0
H1775 H 0.6097 0.16055 0.19182 0.0
H1776 H 0.1043 0.65434 0.11094 0.0
H1777 H 0.11061 0.68217 0.11351 0.0
H1778 H 0.14166 0.6736 0.19869 0.0
H1779 H 0.13526 0.64564 0.19664 0.0
H1780 H 0.10714 0.7037 0.1673 0.0
H1781 H 0.16947 0.69711 0.12922 0.0
H1782 H 0.15526 0.68162 0.12396 0.0
H1783 H 0.16369 0.68538 0.16537 0.0
C1784 C 0.11229 0.65831 0.13061 0.0
C1785 C 0.11927 0.64765 0.15362 0.0
C1786 C 0.11598 0.67427 0.13184 0.0
C1787 C 0.12679 0.67993 0.15591 0.0
C1788 C 0.13354 0.66943 0.17941 0.0
H1789 H 0.14287 0.77579 0.2185 0.0
H1790 H 0.13578 0.74817 0.21415 0.0
C1791 C 0.12985 0.65345 0.17824 0.0
C1792 C 0.13089 0.69684 0.15645 0.0
H1793 H 0.16139 0.72245 0.14693 0.0
C1794 C 0.11899 0.70781 0.16279 0.0
C1795 C 0.14632 0.70219 0.15003 0.0
C1796 C 0.15942 0.691 0.14144 0.0
C1797 C 0.12216 0.72396 0.16359 0.0
C1798 C 0.13767 0.72927 0.15828 0.0
C1799 C 0.14952 0.71834 0.15123 0.0
C1800 C 0.14188 0.74612 0.16055 0.0
C1801 C 0.10883 0.73522 0.16976 0.0
C1802 C 0.14798 0.7541 0.132 0.0
C1803 C 0.15198 0.76999 0.13432 0.0
C1804 C 0.15004 0.77817 0.16532 0.0
C1805 C 0.14413 0.77002 0.19396 0.0
C1806 C 0.14011 0.75419 0.19158 0.0
H1807 H 0.09727 0.72972 0.16455 0.0
H1808 H 0.109 0.73898 0.19697 0.0
H1809 H 0.11003 0.74583 0.15344 0.0
H1810 H 0.14951 0.74805 0.10784 0.0
H1811 H 0.15644 0.77589 0.11175 0.0
H1812 H 0.48901 0.89551 0.46997 0.0
H1813 H 0.51666 0.8886 0.46544 0.0
H1814 H 0.51609 0.90058 0.35803 0.0
H1815 H 0.48821 0.90731 0.36214 0.0
H1816 H 0.53066 0.86582 0.42221 0.0
H1817 H 0.55349 0.92582 0.39757 0.0
H1818 H 0.5341 0.92226 0.41438 0.0
H1819 H 0.53801 0.91943 0.3696 0.0
C1820 C 0.49466 0.89652 0.44522 0.0
C1821 C 0.4863 0.90186 0.41633 0.0
C1822 C 0.51052 0.89265 0.44277 0.0
C1823 C 0.51846 0.89419 0.4115 0.0
C1824 C 0.51023 0.89953 0.38255 0.0
H1825 H 0.60929 0.85447 0.35996 0.0
H1826 H 0.58148 0.8608 0.36353 0.0
C1827 C 0.4943 0.90338 0.38495 0.0
C1828 C 0.53528 0.88992 0.40935 0.0
H1829 H 0.5718 0.90503 0.39523 0.0
C1830 C 0.53966 0.87437 0.41624 0.0
C1831 C 0.547 0.90116 0.40199 0.0
C1832 C 0.543 0.91815 0.39572 0.0
C1833 C 0.55545 0.86972 0.4157 0.0
C1834 C 0.56715 0.88089 0.40776 0.0
C1835 C 0.56279 0.89648 0.40114 0.0
C1836 C 0.584 0.87666 0.40636 0.0
C1837 C 0.55952 0.85296 0.42428 0.0
C1838 C 0.59471 0.88356 0.4291 0.0
C1839 C 0.61066 0.87988 0.42731 0.0
C1840 C 0.61628 0.86931 0.40254 0.0
C1841 C 0.60545 0.86238 0.37987 0.0
C1842 C 0.5895 0.86604 0.38175 0.0
H1843 H 0.54973 0.84687 0.43752 0.0
H1844 H 0.56208 0.84652 0.40023 0.0
H1845 H 0.5701 0.85239 0.44082 0.0
H1846 H 0.5907 0.8918 0.44829 0.0
H1847 H 0.61861 0.88534 0.44534 0.0
H1848 H 0.41065 0.35925 0.61308 0.0
H1849 H 0.40432 0.33138 0.615 0.0
H1850 H 0.37246 0.33958 0.69874 0.0
H1851 H 0.37888 0.36753 0.69739 0.0
H1852 H 0.40703 0.30947 0.66913 0.0
H1853 H 0.34532 0.31673 0.62672 0.0
H1854 H 0.35976 0.33208 0.62243 0.0
H1855 H 0.35072 0.32836 0.66323 0.0
C1856 C 0.40248 0.35518 0.6323 0.0
C1857 C 0.39525 0.36574 0.65507 0.0
C1858 C 0.39879 0.33921 0.63317 0.0
C1859 C 0.38773 0.33345 0.6566 0.0
C1860 C 0.38078 0.34384 0.67993 0.0
H1861 H 0.3696 0.23804 0.71936 0.0
H1862 H 0.37715 0.26553 0.71479 0.0
C1863 C 0.38448 0.35981 0.67915 0.0
C1864 C 0.38351 0.31657 0.65663 0.0
H1865 H 0.35287 0.2913 0.64524 0.0
C1866 C 0.3952 0.30548 0.66382 0.0
C1867 C 0.36812 0.31139 0.64916 0.0
C1868 C 0.35526 0.32272 0.63963 0.0
C1869 C 0.39184 0.28937 0.66459 0.0
C1870 C 0.37634 0.28422 0.65831 0.0
C1871 C 0.36472 0.29528 0.65029 0.0
C1872 C 0.37189 0.26744 0.6607 0.0
C1873 C 0.40494 0.27795 0.67183 0.0
C1874 C 0.36611 0.25943 0.63193 0.0
C1875 C 0.36186 0.24361 0.63437 0.0
C1876 C 0.36321 0.23552 0.66573 0.0
C1877 C 0.36879 0.24372 0.69458 0.0
C1878 C 0.37307 0.25948 0.69207 0.0
H1879 H 0.41663 0.28331 0.66736 0.0
H1880 H 0.40435 0.27423 0.69907 0.0
H1881 H 0.40383 0.26734 0.65558 0.0
H1882 H 0.36503 0.2654 0.6075 0.0
H1883 H 0.35768 0.23767 0.61162 0.0
H1884 H 0.90436 0.16594 0.90582 0.0
H1885 H 0.93235 0.15968 0.90602 0.0
H1886 H 0.92138 0.11039 0.90965 0.0
H1887 H 0.89347 0.11648 0.90833 0.0
H1888 H 0.95029 0.14299 0.95373 0.0
H1889 H 0.95072 0.11348 0.82709 0.0
H1890 H 0.93456 0.12544 0.84136 0.0
H1891 H 0.9366 0.10565 0.85661 0.0
C1892 C 0.90789 0.15377 0.90645 0.0
C1893 C 0.8966 0.14174 0.9068 0.0
C1894 C 0.9239 0.15021 0.90672 0.0
C1895 C 0.92895 0.13456 0.90717 0.0
C1896 C 0.91775 0.12254 0.90857 0.0
H1897 H 0.0187 0.08725 0.91384 0.0
H1898 H 0.99096 0.09431 0.91062 0.0
C1899 C 0.90175 0.12607 0.90829 0.0
C1900 C 0.94593 0.13079 0.90644 0.0
H1901 H 0.97391 0.11133 0.86056 0.0
C1902 C 0.95548 0.13615 0.93326 0.0
C1903 C 0.95268 0.12187 0.87968 0.0
C1904 C 0.94316 0.11638 0.84937 0.0
C1905 C 0.97153 0.13252 0.9345 0.0
C1906 C 0.97826 0.12351 0.90787 0.0
C1907 C 0.96872 0.11822 0.88095 0.0
C1908 C 0.99513 0.11929 0.90779 0.0
C1909 C 0.98107 0.13802 0.96478 0.0
C1910 C 1.00669 0.13096 0.90628 0.0
C1911 C 0.02257 0.12697 0.90789 0.0
C1912 C 0.02721 0.11119 0.91085 0.0
C1913 C 0.01558 0.09949 0.91116 0.0
C1914 C 0.9997 0.10351 0.90955 0.0
H1915 H 0.97353 0.14143 0.98672 0.0
H1916 H 0.98931 0.12874 0.97345 0.0
H1917 H 0.98807 0.14841 0.95713 0.0
H1918 H 1.00343 0.14319 0.90412 0.0
H1919 H 0.03122 0.13624 0.90704 0.0
H1920 H 0.85725 0.77552 0.61302 0.0
H1921 H 0.86409 0.74765 0.60973 0.0
H1922 H 0.87505 0.74748 0.71763 0.0
H1923 H 0.86803 0.77513 0.72134 0.0
H1924 H 0.89816 0.73314 0.67575 0.0
H1925 H 0.83828 0.71057 0.64894 0.0
H1926 H 0.84501 0.72588 0.62085 0.0
H1927 H 0.84179 0.73002 0.66541 0.0
C1928 C 0.86099 0.76952 0.63611 0.0
C1929 C 0.86215 0.77763 0.6674 0.0
C1930 C 0.8649 0.7536 0.63418 0.0
C1931 C 0.86997 0.74548 0.66351 0.0
C1932 C 0.87121 0.75353 0.69467 0.0
H1933 H 0.87771 0.6453 0.69878 0.0
H1934 H 0.8715 0.67327 0.70131 0.0
C1935 C 0.86728 0.7694 0.69666 0.0
C1936 C 0.87416 0.72862 0.66189 0.0
H1937 H 0.85899 0.69215 0.64762 0.0
C1938 C 0.88961 0.72417 0.66955 0.0
C1939 C 0.86293 0.71694 0.65422 0.0
C1940 C 0.84603 0.72101 0.64715 0.0
C1941 C 0.89418 0.70835 0.66944 0.0
C1942 C 0.88302 0.69669 0.66116 0.0
C1943 C 0.86754 0.70113 0.6538 0.0
C1944 C 0.88717 0.67981 0.66014 0.0
C1945 C 0.91083 0.70421 0.67882 0.0
C1946 C 0.89801 0.6742 0.63612 0.0
C1947 C 0.90153 0.65821 0.63448 0.0
C1948 C 0.89423 0.64745 0.6568 0.0
C1949 C 0.88345 0.65318 0.68102 0.0
C1950 C 0.87991 0.66918 0.68257 0.0
H1951 H 0.91683 0.71399 0.69227 0.0
H1952 H 0.91118 0.69364 0.69546 0.0
H1953 H 0.9175 0.7016 0.6551 0.0
H1954 H 0.90352 0.68215 0.61813 0.0
H1955 H 0.90963 0.65428 0.615 0.0
H1956 H 0.98085 0.13822 0.40908 0.0
H1957 H 0.00845 0.14589 0.40544 0.0
H1958 H 0.02214 0.0973 0.40907 0.0
H1959 H 0.99466 0.08951 0.41331 0.0
H1960 H 0.0325 0.13907 0.45368 0.0
H1961 H 0.04591 0.11475 0.32505 0.0
H1962 H 0.02612 0.11794 0.33982 0.0
H1963 H 0.03696 0.10113 0.35427 0.0
C1964 C 0.98972 0.12914 0.4091 0.0
C1965 C 0.98548 0.11323 0.41133 0.0
C1966 C 1.00549 0.13356 0.4069 0.0
C1967 C 0.01733 0.12216 0.40661 0.0
C1968 C 0.01318 0.10627 0.40858 0.0
H1969 H 0.11682 0.13244 0.44909 0.0
H1970 H 0.08877 0.12637 0.45123 0.0
C1971 C 0.99743 0.10184 0.41087 0.0
C1972 C 0.03407 0.1269 0.4055 0.0
H1973 H 0.06752 0.12373 0.35801 0.0
C1974 C 0.04016 0.13577 0.43271 0.0
C1975 C 0.04399 0.1227 0.37798 0.0
C1976 C 0.03793 0.11372 0.34743 0.0
C1977 C 0.05599 0.14031 0.43344 0.0
C1978 C 0.06601 0.13574 0.40638 0.0
C1979 C 0.05985 0.12711 0.37886 0.0
C1980 C 0.08291 0.13986 0.40597 0.0
C1981 C 0.06184 0.1501 0.46295 0.0
C1982 C 0.08895 0.14931 0.37966 0.0
C1983 C 0.10496 0.15276 0.37832 0.0
C1984 C 0.11531 0.14668 0.40314 0.0
C1985 C 0.10918 0.13726 0.42957 0.0
C1986 C 0.09314 0.13388 0.43097 0.0
H1987 H 0.05205 0.15568 0.4772 0.0
H1988 H 0.06839 0.14251 0.48109 0.0
H1989 H 0.06992 0.15941 0.45377 0.0
H1990 H 0.08127 0.15395 0.35997 0.0
H1991 H 0.10926 0.15979 0.35724 0.0
H1992 H 0.60537 0.36032 0.10789 0.0
H1993 H 0.61166 0.33241 0.10994 0.0
H1994 H 0.63971 0.33991 0.20039 0.0
H1995 H 0.63319 0.36789 0.19894 0.0
H1996 H 0.64215 0.31898 0.10708 0.0
H1997 H 0.61066 0.30289 0.22672 0.0
H1998 H 0.60667 0.32076 0.20343 0.0
H1999 H 0.62371 0.31934 0.23031 0.0
C2000 C 0.61262 0.35603 0.12865 0.0
C2001 C 0.61867 0.36636 0.15347 0.0
C2002 C 0.61632 0.34008 0.12958 0.0
C2003 C 0.62603 0.33406 0.15547 0.0
C2004 C 0.63202 0.34427 0.18044 0.0
H2005 H 0.67564 0.24507 0.16047 0.0
H2006 H 0.66841 0.27274 0.15646 0.0
C2007 C 0.62838 0.36027 0.17944 0.0
C2008 C 0.63028 0.3172 0.15562 0.0
H2009 H 0.62698 0.28343 0.20222 0.0
C2010 C 0.63882 0.31119 0.12784 0.0
C2011 C 0.62578 0.30704 0.18256 0.0
C2012 C 0.61608 0.31274 0.21235 0.0
C2013 C 0.64318 0.29532 0.12653 0.0
C2014 C 0.63899 0.28524 0.15385 0.0
C2015 C 0.63026 0.29121 0.1814 0.0
C2016 C 0.64345 0.26843 0.15432 0.0
C2017 C 0.65203 0.28941 0.0957 0.0
C2018 C 0.63182 0.25681 0.15455 0.0
C2019 C 0.63591 0.24097 0.15664 0.0
C2020 C 0.65173 0.23641 0.15884 0.0
C2021 C 0.66337 0.2481 0.15815 0.0
C2022 C 0.65926 0.26395 0.15597 0.0
H2023 H 0.65111 0.2976 0.07361 0.0
H2024 H 0.66461 0.28817 0.10241 0.0
H2025 H 0.64762 0.27773 0.08769 0.0
H2026 H 0.61955 0.26002 0.15328 0.0
H2027 H 0.62665 0.23228 0.15674 0.0
H2028 H 0.40329 0.85429 0.86 0.0
H2029 H 0.43114 0.86055 0.86324 0.0
H2030 H 0.42226 0.89176 0.94775 0.0
H2031 H 0.39433 0.88539 0.9451 0.0
H2032 H 0.44101 0.90487 0.89467 0.0
H2033 H 0.46314 0.8467 0.93673 0.0
H2034 H 0.45073 0.84637 0.8995 0.0
H2035 H 0.44277 0.85221 0.94013 0.0
C2036 C 0.40722 0.86224 0.87978 0.0
C2037 C 0.39648 0.86926 0.90245 0.0
C2038 C 0.42319 0.86585 0.88148 0.0
C2039 C 0.4288 0.87651 0.90592 0.0
C2040 C 0.41818 0.8835 0.92868 0.0
H2041 H 0.52375 0.8954 0.96981 0.0
H2042 H 0.49614 0.88837 0.96494 0.0
C2043 C 0.4022 0.87987 0.92706 0.0
C2044 C 0.44567 0.88073 0.90712 0.0
H2045 H 0.48218 0.86568 0.9215 0.0
C2046 C 0.45003 0.89632 0.90053 0.0
C2047 C 0.45738 0.86956 0.915 0.0
C2048 C 0.45333 0.85279 0.92354 0.0
C2049 C 0.46581 0.90102 0.90141 0.0
C2050 C 0.47754 0.88979 0.90874 0.0
C2051 C 0.47317 0.87423 0.91555 0.0
C2052 C 0.49437 0.89409 0.91106 0.0
C2053 C 0.46979 0.91802 0.89524 0.0
C2054 C 0.50261 0.89955 0.88225 0.0
C2055 C 0.51851 0.90348 0.88485 0.0
C2056 C 0.52649 0.90192 0.91628 0.0
C2057 C 0.51812 0.89645 0.94502 0.0
C2058 C 0.50228 0.89251 0.94237 0.0
H2059 H 0.4593 0.92568 0.8971 0.0
H2060 H 0.4787 0.92213 0.91394 0.0
H2061 H 0.47478 0.91934 0.86913 0.0
H2062 H 0.49677 0.90063 0.8577 0.0
H2063 H 0.52461 0.9075 0.86215 0.0
H2064 H 0.91113 0.35892 0.94119 0.0
H2065 H 0.90536 0.33098 0.93746 0.0
H2066 H 0.87376 0.33975 0.85332 0.0
H2067 H 0.87959 0.36779 0.8566 0.0
H2068 H 0.86097 0.32067 0.90482 0.0
H2069 H 0.91959 0.29926 0.86493 0.0
H2070 H 0.91974 0.31137 0.90254 0.0
H2071 H 0.91399 0.31963 0.86201 0.0
C2072 C 0.9032 0.35495 0.92138 0.0
C2073 C 0.8959 0.36568 0.89903 0.0
C2074 C 0.89988 0.33892 0.91937 0.0
C2075 C 0.88926 0.33324 0.89488 0.0
C2076 C 0.88201 0.34387 0.87241 0.0
H2077 H 0.87235 0.23726 0.83391 0.0
H2078 H 0.87932 0.26494 0.83764 0.0
C2079 C 0.88533 0.35991 0.87437 0.0
C2080 C 0.88527 0.31631 0.89354 0.0
H2081 H 0.90092 0.27994 0.88077 0.0
C2082 C 0.86969 0.31176 0.89951 0.0
C2083 C 0.89664 0.30471 0.88633 0.0
C2084 C 0.9134 0.30894 0.87827 0.0
C2085 C 0.8652 0.29591 0.8988 0.0
C2086 C 0.87665 0.28429 0.89238 0.0
C2087 C 0.89219 0.28885 0.88605 0.0
C2088 C 0.87262 0.26737 0.89082 0.0
C2089 C 0.8482 0.29176 0.90422 0.0
C2090 C 0.86672 0.25945 0.91965 0.0
C2091 C 0.86281 0.24353 0.9177 0.0
C2092 C 0.86483 0.23519 0.88692 0.0
C2093 C 0.8709 0.24318 0.85822 0.0
C2094 C 0.87481 0.25906 0.86022 0.0
H2095 H 0.84042 0.3021 0.90088 0.0
H2096 H 0.84443 0.28247 0.8861 0.0
H2097 H 0.84661 0.28725 0.93069 0.0
H2098 H 0.8652 0.26557 0.94372 0.0
H2099 H 0.85834 0.23771 0.94037 0.0
H2100 H 0.40313 0.15841 0.68996 0.0
H2101 H 0.43095 0.15213 0.68668 0.0
H2102 H 0.422 0.12122 0.60164 0.0
H2103 H 0.39407 0.12763 0.60429 0.0
H2104 H 0.44081 0.10797 0.65499 0.0
H2105 H 0.46283 0.1662 0.61301 0.0
H2106 H 0.45038 0.1665 0.65013 0.0
H2107 H 0.44248 0.16062 0.60943 0.0
C2108 C 0.40702 0.15052 0.67006 0.0
C2109 C 0.39626 0.14361 0.64722 0.0
C2110 C 0.42298 0.14689 0.66834 0.0
C2111 C 0.42856 0.13632 0.64374 0.0
C2112 C 0.41793 0.12942 0.62084 0.0
H2113 H 0.52369 0.11763 0.581 0.0
H2114 H 0.49602 0.12448 0.58529 0.0
C2115 C 0.40196 0.13307 0.62245 0.0
C2116 C 0.44542 0.13212 0.64251 0.0
H2117 H 0.48191 0.14728 0.62844 0.0
C2118 C 0.44981 0.11655 0.64917 0.0
C2119 C 0.45711 0.14332 0.63469 0.0
C2120 C 0.45302 0.16008 0.62611 0.0
C2121 C 0.4656 0.1119 0.64848 0.0
C2122 C 0.47731 0.12316 0.64124 0.0
C2123 C 0.47291 0.13871 0.63431 0.0
C2124 C 0.49415 0.11894 0.63924 0.0
C2125 C 0.46963 0.09493 0.6548 0.0
C2126 C 0.50234 0.11364 0.66827 0.0
C2127 C 0.51828 0.10984 0.66602 0.0
C2128 C 0.52633 0.11134 0.6347 0.0
C2129 C 0.51801 0.11663 0.60571 0.0
C2130 C 0.50214 0.12046 0.60802 0.0
H2131 H 0.45917 0.08723 0.65291 0.0
H2132 H 0.47857 0.09082 0.6362 0.0
H2133 H 0.4746 0.09366 0.68096 0.0
H2134 H 0.49645 0.11261 0.69275 0.0
H2135 H 0.52435 0.10595 0.68889 0.0
H2136 H 0.64284 0.77488 0.3323 0.0
H2137 H 0.63581 0.7473 0.33672 0.0
H2138 H 0.65169 0.74653 0.44168 0.0
H2139 H 0.65802 0.77447 0.43808 0.0
H2140 H 0.65399 0.7225 0.34852 0.0
H2141 H 0.60908 0.72636 0.45079 0.0
H2142 H 0.61661 0.74344 0.42899 0.0
H2143 H 0.62769 0.73442 0.46296 0.0
C2144 C 0.64452 0.76901 0.35665 0.0
C2145 C 0.65079 0.77705 0.38502 0.0
C2146 C 0.64064 0.75314 0.35899 0.0
C2147 C 0.64296 0.74486 0.38967 0.0
C2148 C 0.64944 0.75274 0.41795 0.0
H2149 H 0.64649 0.64316 0.40379 0.0
H2150 H 0.65249 0.67108 0.40063 0.0
C2151 C 0.65324 0.76869 0.41571 0.0
C2152 C 0.63906 0.72788 0.39139 0.0
H2153 H 0.61713 0.70076 0.43457 0.0
C2154 C 0.6459 0.71776 0.3673 0.0
C2155 C 0.62832 0.72171 0.41556 0.0
C2156 C 0.61987 0.73206 0.44083 0.0
C2157 C 0.64242 0.70167 0.36686 0.0
C2158 C 0.63211 0.69541 0.39178 0.0
C2159 C 0.62513 0.70554 0.41565 0.0
C2160 C 0.62842 0.67838 0.39351 0.0
C2161 C 0.64958 0.69163 0.33918 0.0
C2162 C 0.61284 0.67315 0.39147 0.0
C2163 C 0.60935 0.65714 0.39351 0.0
C2164 C 0.62139 0.64603 0.39761 0.0
C2165 C 0.63697 0.65134 0.3998 0.0
C2166 C 0.64043 0.66733 0.39801 0.0
H2167 H 0.65322 0.69875 0.31668 0.0
H2168 H 0.66018 0.68574 0.34948 0.0
H2169 H 0.64126 0.68247 0.33039 0.0
H2170 H 0.60337 0.68147 0.38813 0.0
H2171 H 0.59725 0.65343 0.39166 0.0
H2172 H 0.989 0.90672 0.19058 0.0
H2173 H 0.0171 0.90102 0.19351 0.0
H2174 H 0.01601 0.88439 0.08924 0.0
H2175 H 0.98824 0.89072 0.08547 0.0
H2176 H 0.03332 0.87361 0.18592 0.0
H2177 H 0.05129 0.91597 0.08559 0.0
H2178 H 0.03196 0.91602 0.10426 0.0
H2179 H 0.03678 0.90234 0.07084 0.0
C2180 C 0.99477 0.90199 0.16815 0.0
C2181 C 0.98629 0.89922 0.13778 0.0
C2182 C 0.01081 0.89864 0.16995 0.0
C2183 C 0.01873 0.89252 0.1414 0.0
C2184 C 0.01024 0.8894 0.11137 0.0
H2185 H 0.11045 0.84728 0.14234 0.0
H2186 H 0.08233 0.85306 0.14016 0.0
C2187 C 0.99425 0.89282 0.10947 0.0
C2188 C 0.03583 0.88929 0.14297 0.0
H2189 H 0.0706 0.89754 0.10353 0.0
C2190 C 0.04149 0.87889 0.16801 0.0
C2191 C 0.04653 0.89637 0.11993 0.0
C2192 C 0.04138 0.90842 0.09387 0.0
C2193 C 0.0575 0.87515 0.17023 0.0
C2194 C 0.06809 0.88171 0.14624 0.0
C2195 C 0.06246 0.89234 0.12162 0.0
C2196 C 0.08514 0.87809 0.14677 0.0
C2197 C 0.06293 0.86445 0.1987 0.0
C2198 C 0.09611 0.89026 0.14993 0.0
C2199 C 0.11216 0.887 0.15074 0.0
C2200 C 0.1176 0.87148 0.14842 0.0
C2201 C 0.10661 0.85933 0.14465 0.0
C2202 C 0.09054 0.86261 0.14358 0.0
H2203 H 0.05437 0.86406 0.22014 0.0
H2204 H 0.06419 0.85237 0.18858 0.0
H2205 H 0.07446 0.86824 0.20899 0.0
H2206 H 0.09224 0.9023 0.15234 0.0
H2207 H 0.12026 0.89663 0.15412 0.0
H2208 H 0.65697 0.73852 0.94261 0.0
H2209 H 0.6498 0.76626 0.94771 0.0
H2210 H 0.63553 0.76684 0.8417 0.0
H2211 H 0.64286 0.73934 0.83614 0.0
H2212 H 0.66116 0.79235 0.90918 0.0
H2213 H 0.59705 0.78436 0.89299 0.0
H2214 H 0.61007 0.76836 0.90333 0.0
H2215 H 0.60865 0.77542 0.85999 0.0
C2216 C 0.65235 0.74457 0.92035 0.0
C2217 C 0.65031 0.7366 0.88909 0.0
C2218 C 0.64821 0.76039 0.92335 0.0
C2219 C 0.64187 0.76852 0.89525 0.0
C2220 C 0.64004 0.76069 0.86394 0.0
H2221 H 0.63429 0.86855 0.85861 0.0
H2222 H 0.64079 0.84063 0.85733 0.0
C2223 C 0.6442 0.74493 0.86087 0.0
C2224 C 0.63747 0.78529 0.89821 0.0
H2225 H 0.60662 0.81054 0.89003 0.0
C2226 C 0.64923 0.79633 0.9052 0.0
C2227 C 0.62186 0.79043 0.89334 0.0
C2228 C 0.60863 0.77903 0.8873 0.0
C2229 C 0.64586 0.81244 0.90659 0.0
C2230 C 0.63035 0.81763 0.90042 0.0
C2231 C 0.61853 0.80655 0.89433 0.0
C2232 C 0.62614 0.83451 0.90058 0.0
C2233 C 0.65889 0.82376 0.91495 0.0
C2234 C 0.6154 0.84027 0.92463 0.0
C2235 C 0.61165 0.85623 0.92544 0.0
C2236 C 0.61851 0.86676 0.90199 0.0
C2237 C 0.62898 0.86084 0.87736 0.0
C2238 C 0.63273 0.84488 0.87662 0.0
H2239 H 0.669 0.81777 0.92721 0.0
H2240 H 0.66308 0.82934 0.89093 0.0
H2241 H 0.65469 0.83316 0.93231 0.0
H2242 H 0.61014 0.83246 0.94329 0.0
H2243 H 0.60372 0.8603 0.94509 0.0
H2244 H 0.40369 0.34635 0.14752 0.0
H2245 H 0.43176 0.35232 0.14652 0.0
H2246 H 0.42131 0.40173 0.14403 0.0
H2247 H 0.39335 0.39593 0.14613 0.0
H2248 H 0.44959 0.36908 0.09852 0.0
H2249 H 0.45112 0.39791 0.22585 0.0
H2250 H 0.43476 0.38615 0.21175 0.0
H2251 H 0.43687 0.40601 0.19694 0.0
C2252 C 0.40736 0.35849 0.14697 0.0
C2253 C 0.3962 0.37064 0.14717 0.0
C2254 C 0.4234 0.36188 0.14623 0.0
C2255 C 0.42863 0.37747 0.14586 0.0
C2256 C 0.41755 0.38961 0.14501 0.0
H2257 H 0.51839 0.4245 0.13877 0.0
H2258 H 0.49068 0.41735 0.14184 0.0
C2259 C 0.40152 0.38625 0.14575 0.0
C2260 C 0.44565 0.38107 0.14622 0.0
H2261 H 0.47408 0.4001 0.19175 0.0
C2262 C 0.45498 0.37577 0.119 0.0
C2263 C 0.45265 0.38979 0.173 0.0
C2264 C 0.44338 0.39519 0.20372 0.0
C2265 C 0.47105 0.3793 0.11737 0.0
C2266 C 0.47802 0.38814 0.144 0.0
C2267 C 0.46871 0.39334 0.17135 0.0
C2268 C 0.49489 0.39236 0.14362 0.0
C2269 C 0.48034 0.37391 0.08668 0.0
C2270 C 0.50648 0.3807 0.14445 0.0
C2271 C 0.52236 0.38475 0.14293 0.0
C2272 C 0.52697 0.40056 0.14076 0.0
C2273 C 0.5153 0.41222 0.14089 0.0
C2274 C 0.49944 0.40816 0.1424 0.0
H2275 H 0.47262 0.37061 0.06491 0.0
H2276 H 0.48855 0.3832 0.07795 0.0
H2277 H 0.48735 0.36346 0.09389 0.0
H2278 H 0.50325 0.36845 0.14617 0.0
H2279 H 0.53103 0.37549 0.1434 0.0
H2280 H 0.91693 0.153 0.40103 0.0
H2281 H 0.91096 0.18107 0.4012 0.0
H2282 H 0.86156 0.17062 0.3979 0.0
H2283 H 0.86735 0.14266 0.39891 0.0
H2284 H 0.89457 0.19923 0.35377 0.0
H2285 H 0.86481 0.19994 0.48011 0.0
H2286 H 0.87656 0.18361 0.4659 0.0
H2287 H 0.8568 0.18592 0.45066 0.0
C2288 C 0.90479 0.15666 0.40061 0.0
C2289 C 0.89265 0.1455 0.40019 0.0
C2290 C 0.90141 0.17271 0.40053 0.0
C2291 C 0.88581 0.17794 0.40024 0.0
C2292 C 0.87368 0.16686 0.39888 0.0
H2293 H 0.83872 0.26769 0.39182 0.0
H2294 H 0.84582 0.23997 0.39537 0.0
C2295 C 0.87704 0.15083 0.39898 0.0
C2296 C 0.8822 0.19497 0.40093 0.0
H2297 H 0.86266 0.22307 0.44627 0.0
C2298 C 0.8877 0.20447 0.37411 0.0
C2299 C 0.87322 0.20179 0.42752 0.0
C2300 C 0.86762 0.19233 0.45786 0.0
C2301 C 0.88412 0.22054 0.37267 0.0
C2302 C 0.87501 0.22732 0.39908 0.0
C2303 C 0.86961 0.21784 0.42604 0.0
C2304 C 0.87076 0.24419 0.39886 0.0
C2305 C 0.88975 0.23003 0.34241 0.0
C2306 C 0.8824 0.25578 0.40059 0.0
C2307 C 0.87838 0.27165 0.39881 0.0
C2308 C 0.86261 0.27626 0.39543 0.0
C2309 C 0.85095 0.2646 0.39483 0.0
C2310 C 0.85499 0.24873 0.39663 0.0
H2311 H 0.89333 0.22245 0.32066 0.0
H2312 H 0.88049 0.2382 0.3334 0.0
H2313 H 0.90006 0.2371 0.35024 0.0
H2314 H 0.89462 0.25254 0.40309 0.0
H2315 H 0.88763 0.28032 0.3999 0.0
H2316 H 0.99448 0.58907 0.64159 0.0
H2317 H 0.02224 0.59602 0.64455 0.0
H2318 H 0.01002 0.64501 0.64818 0.0
H2319 H 0.9822 0.63815 0.64637 0.0
H2320 H 0.03869 0.61411 0.59762 0.0
H2321 H 0.04123 0.64095 0.72704 0.0
H2322 H 0.02497 0.62902 0.71307 0.0
H2323 H 0.02648 0.6491 0.69944 0.0
C2324 C 0.99766 0.60131 0.64383 0.0
C2325 C 0.98607 0.61305 0.64398 0.0
C2326 C 0.01355 0.60527 0.6452 0.0
C2327 C 0.01822 0.62102 0.64696 0.0
C2328 C 1.00671 0.63276 0.64744 0.0
H2329 H 0.10953 0.66707 0.64665 0.0
H2330 H 0.08145 0.66122 0.64479 0.0
C2331 C 0.9908 0.62882 0.64606 0.0
C2332 C 0.03514 0.62515 0.6466 0.0
H2333 H 0.06389 0.6436 0.69227 0.0
C2334 C 0.04422 0.62051 0.61838 0.0
C2335 C 0.04231 0.63357 0.67361 0.0
C2336 C 0.0333 0.63835 0.70517 0.0
C2337 C 0.06023 0.62419 0.61627 0.0
C2338 C 0.06743 0.63251 0.64337 0.0
C2339 C 0.05834 0.63726 0.67148 0.0
C2340 C 0.08447 0.63607 0.64347 0.0
C2341 C 0.06925 0.61935 0.58476 0.0
C2342 C 0.0955 0.62388 0.64353 0.0
C2343 C 0.11154 0.62717 0.64471 0.0
C2344 C 0.11693 0.64276 0.6461 0.0
C2345 C 0.10582 0.65495 0.6459 0.0
C2346 C 0.08976 0.65163 0.64473 0.0
H2347 H 0.06133 0.61698 0.56274 0.0
H2348 H 0.07779 0.62854 0.57713 0.0
H2349 H 0.07585 0.60844 0.5904 0.0
H2350 H 0.09169 0.61177 0.64334 0.0
H2351 H 0.11966 0.61745 0.64553 0.0
H2352 H 0.67425 0.26844 0.6603 0.0
H2353 H 0.66656 0.24093 0.65577 0.0
H2354 H 0.61788 0.2544 0.65492 0.0
H2355 H 0.62545 0.282 0.65896 0.0
H2356 H 0.62506 0.2304 0.70225 0.0
H2357 H 0.64856 0.21709 0.57287 0.0
H2358 H 0.66244 0.22594 0.60159 0.0
H2359 H 0.64557 0.23688 0.58784 0.0
C2360 C 0.66191 0.26561 0.65839 0.0
C2361 C 0.65047 0.27748 0.65984 0.0
C2362 C 0.65753 0.24985 0.65591 0.0
C2363 C 0.64165 0.24562 0.65468 0.0
C2364 C 0.63021 0.25741 0.65581 0.0
H2365 H 0.60416 0.15352 0.60653 0.0
H2366 H 0.60997 0.18152 0.60887 0.0
C2367 C 0.63456 0.27318 0.65822 0.0
C2368 C 0.63696 0.22887 0.65372 0.0
H2369 H 0.63996 0.19541 0.60624 0.0
C2370 C 0.62826 0.22275 0.68121 0.0
C2371 C 0.64103 0.21896 0.6261 0.0
C2372 C 0.64979 0.22504 0.59524 0.0
C2373 C 0.62376 0.20692 0.6821 0.0
C2374 C 0.62821 0.1969 0.65495 0.0
C2375 C 0.63667 0.20308 0.62717 0.0
C2376 C 0.62414 0.17999 0.65473 0.0
C2377 C 0.61411 0.20106 0.71188 0.0
C2378 C 0.63017 0.16981 0.67979 0.0
C2379 C 0.6268 0.15376 0.67864 0.0
C2380 C 0.61734 0.14757 0.65238 0.0
C2381 C 0.61122 0.15787 0.62749 0.0
C2382 C 0.61465 0.17388 0.62859 0.0
H2383 H 0.60851 0.21084 0.7261 0.0
H2384 H 0.60483 0.19289 0.70301 0.0
H2385 H 0.62182 0.19462 0.72997 0.0
H2386 H 0.63771 0.17423 0.69991 0.0
H2387 H 0.63165 0.14617 0.69821 0.0
H2388 H 0.11076 0.35591 0.8579 0.0
H2389 H 0.08296 0.3625 0.86011 0.0
H2390 H 0.09092 0.39012 0.9509 0.0
H2391 H 0.11881 0.38326 0.94935 0.0
H2392 H 0.06414 0.37015 0.95426 0.0
H2393 H 0.06492 0.40605 0.83536 0.0
H2394 H 0.0728 0.38664 0.83075 0.0
H2395 H 0.08258 0.40054 0.85792 0.0
C2396 C 0.10662 0.36319 0.87867 0.0
C2397 C 0.11706 0.36905 0.90351 0.0
C2398 C 0.09072 0.36711 0.87963 0.0
C2399 C 0.08493 0.377 0.90533 0.0
C2400 C 0.09519 0.38256 0.93067 0.0
H2401 H 0.99529 0.42519 0.91239 0.0
H2402 H 0.02307 0.41827 0.90924 0.0
C2403 C 0.11112 0.37869 0.92968 0.0
C2404 C 0.06814 0.38152 0.90576 0.0
H2405 H 0.03999 0.40072 0.85964 0.0
C2406 C 0.05885 0.37685 0.93363 0.0
C2407 C 0.06133 0.39043 0.87899 0.0
C2408 C 0.07092 0.39635 0.84917 0.0
C2409 C 0.04284 0.38062 0.93515 0.0
C2410 C 0.03593 0.38913 0.90788 0.0
C2411 C 0.04528 0.39405 0.88032 0.0
C2412 C 0.01904 0.39326 0.90784 0.0
C2413 C 0.03351 0.37566 0.96616 0.0
C2414 C 0.00755 0.38149 0.90715 0.0
C2415 C 0.99166 0.3854 0.90866 0.0
C2416 C 0.98692 0.40117 0.91076 0.0
C2417 C 0.99848 0.41295 0.91035 0.0
C2418 C 0.01438 0.40901 0.9088 0.0
H2419 H 0.04121 0.37256 0.98814 0.0
H2420 H 0.02538 0.38511 0.97427 0.0
H2421 H 0.0264 0.36519 0.95962 0.0
H2422 H 0.01089 0.36927 0.90568 0.0
H2423 H 0.98307 0.37606 0.90836 0.0
H2424 H 0.86795 0.86888 0.15805 0.0
H2425 H 0.86231 0.84087 0.16049 0.0
H2426 H 0.91178 0.83074 0.15801 0.0
H2427 H 0.91757 0.85882 0.1567 0.0
H2428 H 0.87034 0.81851 0.11177 0.0
H2429 H 0.89651 0.80394 0.23828 0.0
H2430 H 0.89244 0.82383 0.22519 0.0
H2431 H 0.9095 0.81388 0.20928 0.0
C2432 C 0.87768 0.86076 0.15875 0.0
C2433 C 0.89325 0.86618 0.15732 0.0
C2434 C 0.87441 0.84471 0.15985 0.0
C2435 C 0.88661 0.8337 0.15977 0.0
C2436 C 0.90217 0.83902 0.15865 0.0
H2437 H 0.88758 0.73148 0.15991 0.0
H2438 H 0.89469 0.75925 0.15662 0.0
C2439 C 0.90546 0.85509 0.15756 0.0
C2440 C 0.88297 0.81668 0.15943 0.0
H2441 H 0.88782 0.78262 0.20438 0.0
C2442 C 0.87413 0.81067 0.13206 0.0
C2443 C 0.88798 0.80645 0.18583 0.0
C2444 C 0.89702 0.81233 0.21649 0.0
C2445 C 0.87026 0.79469 0.13024 0.0
C2446 C 0.87515 0.78448 0.1568 0.0
C2447 C 0.88411 0.79046 0.18401 0.0
C2448 C 0.87077 0.76764 0.15731 0.0
C2449 C 0.86119 0.78883 0.09961 0.0
C2450 C 0.85497 0.76313 0.15888 0.0
C2451 C 0.85087 0.74728 0.16085 0.0
C2452 C 0.8625 0.73559 0.16151 0.0
C2453 C 0.87833 0.74017 0.1597 0.0
C2454 C 0.88242 0.75603 0.15772 0.0
H2455 H 0.86213 0.797 0.07749 0.0
H2456 H 0.8654 0.77709 0.09152 0.0
H2457 H 0.84863 0.78781 0.10653 0.0
H2458 H 0.8458 0.77189 0.1594 0.0
H2459 H 0.83859 0.74423 0.16297 0.0
H2460 H 0.52532 0.62059 0.46641 0.0
H2461 H 0.49759 0.62723 0.46232 0.0
H2462 H 0.4971 0.61255 0.35663 0.0
H2463 H 0.52504 0.60603 0.36032 0.0
H2464 H 0.48269 0.64858 0.41817 0.0
H2465 H 0.46054 0.5879 0.40011 0.0
H2466 H 0.48013 0.59204 0.41507 0.0
H2467 H 0.47544 0.59397 0.37037 0.0
C2468 C 0.51942 0.61894 0.4421 0.0
C2469 C 0.52749 0.61286 0.41359 0.0
C2470 C 0.50351 0.62265 0.43991 0.0
C2471 C 0.49524 0.62025 0.40931 0.0
C2472 C 0.50321 0.61425 0.38069 0.0
H2473 H 0.40359 0.65839 0.35845 0.0
H2474 H 0.43147 0.65233 0.36153 0.0
C2475 C 0.51917 0.61054 0.38284 0.0
C2476 C 0.47832 0.62423 0.40751 0.0
H2477 H 0.44192 0.60839 0.39603 0.0
C2478 C 0.47376 0.63981 0.41328 0.0
C2479 C 0.4667 0.61271 0.4016 0.0
C2480 C 0.47087 0.59568 0.39672 0.0
C2481 C 0.45791 0.64422 0.41299 0.0
C2482 C 0.4463 0.63278 0.40637 0.0
C2483 C 0.45084 0.61716 0.40091 0.0
C2484 C 0.42938 0.63676 0.40511 0.0
C2485 C 0.45368 0.66105 0.42044 0.0
C2486 C 0.41886 0.62987 0.42834 0.0
C2487 C 0.40286 0.63337 0.42677 0.0
C2488 C 0.39701 0.64377 0.40179 0.0
C2489 C 0.40763 0.65063 0.37855 0.0
C2490 C 0.42362 0.64713 0.38017 0.0
H2491 H 0.46343 0.66738 0.43326 0.0
H2492 H 0.45106 0.66717 0.39598 0.0
H2493 H 0.44311 0.66173 0.43696 0.0
H2494 H 0.42306 0.62181 0.44777 0.0
H2495 H 0.39507 0.62797 0.4452 0.0
H2496 H 0.3673 0.14365 0.15018 0.0
H2497 H 0.36171 0.17169 0.15229 0.0
H2498 H 0.41096 0.1814 0.1652 0.0
H2499 H 0.41665 0.15328 0.16264 0.0
H2500 H 0.36641 0.19314 0.20126 0.0
H2501 H 0.40023 0.20967 0.08544 0.0
H2502 H 0.396 0.18955 0.09634 0.0
H2503 H 0.41183 0.19974 0.11713 0.0
C2504 C 0.37694 0.15172 0.15379 0.0
C2505 C 0.39245 0.14622 0.15618 0.0
C2506 C 0.37373 0.16777 0.15479 0.0
C2507 C 0.38593 0.17869 0.15824 0.0
C2508 C 0.40139 0.17324 0.16155 0.0
H2509 H 0.3728 0.27551 0.21979 0.0
H2510 H 0.37938 0.24779 0.21615 0.0
C2511 C 0.40463 0.15717 0.16027 0.0
C2512 C 0.38236 0.19575 0.15888 0.0
H2513 H 0.39063 0.23063 0.11965 0.0
C2514 C 0.37168 0.20133 0.18335 0.0
C2515 C 0.38902 0.20641 0.13512 0.0
C2516 C 0.39978 0.20104 0.10679 0.0
C2517 C 0.36766 0.21726 0.18506 0.0
C2518 C 0.37482 0.22802 0.16224 0.0
C2519 C 0.38529 0.22242 0.13739 0.0
C2520 C 0.37153 0.24511 0.16373 0.0
C2521 C 0.35552 0.22235 0.21088 0.0
C2522 C 0.36553 0.25303 0.135 0.0
C2523 C 0.36205 0.26905 0.13672 0.0
C2524 C 0.36456 0.27749 0.16722 0.0
C2525 C 0.37089 0.26952 0.19571 0.0
C2526 C 0.37444 0.25357 0.19387 0.0
H2527 H 0.34795 0.2124 0.21895 0.0
H2528 H 0.36152 0.2269 0.23406 0.0
H2529 H 0.34794 0.23178 0.20036 0.0
H2530 H 0.36332 0.24677 0.11135 0.0
H2531 H 0.3574 0.27481 0.11415 0.0
H2532 H 0.61885 0.61891 0.90601 0.0
H2533 H 0.59079 0.61359 0.90835 0.0
H2534 H 0.58123 0.66319 0.90664 0.0
H2535 H 0.60938 0.66866 0.90459 0.0
H2536 H 0.56834 0.62299 0.95655 0.0
H2537 H 0.55466 0.64638 0.82687 0.0
H2538 H 0.57442 0.64222 0.84069 0.0
H2539 H 0.56473 0.65975 0.85477 0.0
C2540 C 0.61085 0.62873 0.90655 0.0
C2541 C 0.61645 0.64425 0.90499 0.0
C2542 C 0.59478 0.62565 0.90767 0.0
C2543 C 0.58391 0.63797 0.90708 0.0
C2544 C 0.5894 0.65348 0.90632 0.0
H2545 H 0.48168 0.63906 0.90906 0.0
H2546 H 0.5095 0.64614 0.90752 0.0
C2547 C 0.6055 0.65659 0.9052 0.0
C2548 C 0.56686 0.6345 0.90751 0.0
H2549 H 0.53317 0.63814 0.86071 0.0
C2550 C 0.56065 0.62629 0.93559 0.0
C2551 C 0.55684 0.63884 0.88015 0.0
C2552 C 0.56297 0.64717 0.84874 0.0
C2553 C 0.54467 0.6224 0.93721 0.0
C2554 C 0.53469 0.62657 0.90967 0.0
C2555 C 0.54085 0.63493 0.88174 0.0
C2556 C 0.51784 0.62222 0.90931 0.0
C2557 C 0.53858 0.61406 0.96865 0.0
C2558 C 0.51329 0.60641 0.91001 0.0
C2559 C 0.49743 0.60233 0.91105 0.0
C2560 C 0.48576 0.61398 0.91118 0.0
C2561 C 0.49036 0.62981 0.90943 0.0
C2562 C 0.50625 0.63388 0.90839 0.0
H2563 H 0.5466 0.61548 0.99088 0.0
H2564 H 0.52681 0.61849 0.97591 0.0
H2565 H 0.53756 0.60135 0.96315 0.0
H2566 H 0.52204 0.59722 0.9101 0.0
H2567 H 0.49435 0.59004 0.91275 0.0
H2568 H 0.09515 0.85933 0.65659 0.0
H2569 H 0.10072 0.83119 0.65868 0.0
H2570 H 0.15022 0.84101 0.66357 0.0
H2571 H 0.14482 0.86903 0.66112 0.0
H2572 H 0.11886 0.81361 0.61217 0.0
H2573 H 0.14362 0.8105 0.74354 0.0
H2574 H 0.13236 0.82707 0.72852 0.0
H2575 H 0.15263 0.82508 0.71678 0.0
C2576 C 0.10722 0.85552 0.65814 0.0
C2577 C 0.11951 0.86652 0.65882 0.0
C2578 C 0.11038 0.83942 0.65944 0.0
C2579 C 0.12587 0.83401 0.66173 0.0
C2580 C 0.13815 0.84493 0.66258 0.0
H2581 H 0.17321 0.74449 0.66476 0.0
H2582 H 0.16593 0.77215 0.66217 0.0
C2583 C 0.13502 0.86099 0.66125 0.0
C2584 C 0.12928 0.81694 0.6619 0.0
H2585 H 0.14705 0.78802 0.70842 0.0
C2586 C 0.12491 0.80797 0.63332 0.0
C2587 C 0.13721 0.80963 0.68948 0.0
C2588 C 0.14161 0.81851 0.72148 0.0
C2589 C 0.12863 0.79195 0.63116 0.0
C2590 C 0.13671 0.78467 0.6586 0.0
C2591 C 0.14092 0.79362 0.68734 0.0
C2592 C 0.14103 0.76781 0.65803 0.0
C2593 C 0.1243 0.78308 0.5991 0.0
C2594 C 0.12945 0.75615 0.65644 0.0
C2595 C 0.13358 0.74028 0.65758 0.0
C2596 C 0.14939 0.73576 0.66053 0.0
C2597 C 0.16096 0.7475 0.66181 0.0
C2598 C 0.15681 0.76335 0.66066 0.0
H2599 H 0.12186 0.7911 0.57727 0.0
H2600 H 0.1338 0.77489 0.59156 0.0
H2601 H 0.11357 0.77609 0.60402 0.0
H2602 H 0.11718 0.75931 0.65501 0.0
H2603 H 0.12439 0.73155 0.65641 0.0
H2604 H 0.89616 0.38414 0.44816 0.0
H2605 H 0.92409 0.39057 0.45005 0.0
H2606 H 0.93268 0.35877 0.36644 0.0
H2607 H 0.90483 0.35244 0.36397 0.0
H2608 H 0.95439 0.3561 0.42112 0.0
H2609 H 0.94715 0.41778 0.37825 0.0
H2610 H 0.93537 0.41234 0.41454 0.0
H2611 H 0.93187 0.40328 0.3737 0.0
C2612 C 0.90396 0.37855 0.43007 0.0
C2613 C 0.89814 0.36781 0.40585 0.0
C2614 C 0.91992 0.38226 0.43117 0.0
C2615 C 0.93042 0.37533 0.40802 0.0
C2616 C 0.92477 0.36429 0.38447 0.0
H2617 H 0.02618 0.40568 0.36416 0.0
H2618 H 0.99851 0.39816 0.35979 0.0
C2619 C 0.90881 0.3606 0.38329 0.0
C2620 C 0.94728 0.3796 0.40833 0.0
H2621 H 0.97252 0.41028 0.39714 0.0
C2622 C 0.95837 0.36793 0.4158 0.0
C2623 C 0.95245 0.39499 0.40085 0.0
C2624 C 0.94113 0.40781 0.39106 0.0
C2625 C 0.97447 0.37133 0.4168 0.0
C2626 C 0.9796 0.38684 0.41048 0.0
C2627 C 0.96855 0.39843 0.40221 0.0
C2628 C 0.99636 0.39133 0.41302 0.0
C2629 C 0.98589 0.35827 0.42431 0.0
C2630 C 1.00424 0.39021 0.44448 0.0
C2631 C 0.01997 0.39459 0.44713 0.0
C2632 C 0.02821 0.40021 0.41833 0.0
C2633 C 0.0202 0.40148 0.38687 0.0
C2634 C 1.00442 0.39713 0.38429 0.0
H2635 H 0.98057 0.34656 0.41988 0.0
H2636 H 0.99655 0.35937 0.40819 0.0
H2637 H 0.98952 0.35891 0.4516 0.0
H2638 H 0.99815 0.38613 0.46715 0.0
H2639 H 0.02559 0.39384 0.47198 0.0
H2640 H 0.37026 0.73866 0.33255 0.0
H2641 H 0.37765 0.76617 0.33758 0.0
H2642 H 0.36582 0.76536 0.44496 0.0
H2643 H 0.35864 0.73761 0.44041 0.0
H2644 H 0.35324 0.79132 0.40732 0.0
H2645 H 0.41709 0.78408 0.38539 0.0
H2646 H 0.40485 0.77496 0.35367 0.0
H2647 H 0.40447 0.76794 0.39712 0.0
C2648 C 0.36949 0.74419 0.35745 0.0
C2649 C 0.36403 0.7358 0.3862 0.0
C2650 C 0.37368 0.75996 0.36021 0.0
C2651 C 0.37251 0.76774 0.39173 0.0
C2652 C 0.36688 0.75953 0.42042 0.0
H2653 H 0.4101 0.85965 0.44169 0.0
H2654 H 0.40407 0.83173 0.43913 0.0
C2655 C 0.36272 0.7437 0.41773 0.0
C2656 C 0.37679 0.78455 0.39437 0.0
H2657 H 0.40725 0.81014 0.38424 0.0
C2658 C 0.36506 0.79544 0.40245 0.0
C2659 C 0.39225 0.78987 0.38829 0.0
C2660 C 0.40545 0.77861 0.38093 0.0
C2661 C 0.3683 0.81158 0.40386 0.0
C2662 C 0.38364 0.81694 0.39664 0.0
C2663 C 0.39545 0.80601 0.38936 0.0
C2664 C 0.3877 0.83386 0.39705 0.0
C2665 C 0.35532 0.82274 0.4134 0.0
C2666 C 0.38077 0.84429 0.37367 0.0
C2667 C 0.38431 0.86029 0.37481 0.0
C2668 C 0.39488 0.8662 0.39932 0.0
C2669 C 0.40208 0.8556 0.42214 0.0
C2670 C 0.39856 0.8396 0.42091 0.0
H2671 H 0.34537 0.81659 0.42593 0.0
H2672 H 0.35969 0.83201 0.43093 0.0
H2673 H 0.35083 0.82852 0.38985 0.0
H2674 H 0.3726 0.84004 0.35456 0.0
H2675 H 0.37874 0.86804 0.35651 0.0
H2676 H 0.02435 0.62084 0.08344 0.0
H2677 H 0.99676 0.62791 0.08847 0.0
H2678 H 0.99769 0.61609 0.19593 0.0
H2679 H 0.02551 0.60922 0.19136 0.0
H2680 H 0.97193 0.60321 0.15882 0.0
H2681 H 0.97833 0.66709 0.13565 0.0
H2682 H 0.98751 0.65492 0.10396 0.0
H2683 H 0.99465 0.65471 0.14731 0.0
C2684 C 0.01883 0.62001 0.10836 0.0
C2685 C 0.02726 0.61463 0.13712 0.0
C2686 C 1.00301 0.62401 0.11112 0.0
C2687 C 0.99524 0.62275 0.14266 0.0
C2688 C 1.00351 0.61722 0.17137 0.0
H2689 H 0.90314 0.65961 0.19254 0.0
H2690 H 0.93107 0.65375 0.18983 0.0
C2691 C 0.01938 0.61325 0.16867 0.0
C2692 C 0.97838 0.62681 0.14531 0.0
H2693 H 0.95239 0.65689 0.13481 0.0
C2694 C 0.96765 0.61495 0.15374 0.0
C2695 C 0.97286 0.64218 0.13897 0.0
C2696 C 0.98392 0.65551 0.13126 0.0
C2697 C 0.95148 0.61798 0.15527 0.0
C2698 C 0.94591 0.63323 0.14779 0.0
C2699 C 0.95668 0.64517 0.14013 0.0
C2700 C 0.92896 0.63709 0.1484 0.0
C2701 C 0.9405 0.60489 0.16525 0.0
C2702 C 0.91851 0.62992 0.12546 0.0
C2703 C 0.90249 0.63336 0.12669 0.0
C2704 C 0.89658 0.64407 0.15083 0.0
C2705 C 0.90719 0.65148 0.17326 0.0
C2706 C 0.9232 0.64806 0.17195 0.0
H2707 H 0.9468 0.59508 0.17799 0.0
H2708 H 0.9312 0.6092 0.18276 0.0
H2709 H 0.93475 0.60022 0.14187 0.0
H2710 H 0.92276 0.62166 0.10658 0.0
H2711 H 0.89473 0.62762 0.1087 0.0
H2712 H 0.14346 0.27427 0.83365 0.0
H2713 H 0.13595 0.24679 0.83895 0.0
H2714 H 0.14807 0.24753 0.94623 0.0
H2715 H 0.15539 0.27524 0.94136 0.0
H2716 H 0.16035 0.22156 0.90948 0.0
H2717 H 0.09659 0.22896 0.88647 0.0
H2718 H 0.10887 0.23788 0.85451 0.0
H2719 H 0.10926 0.24511 0.89774 0.0
C2720 C 0.14427 0.26873 0.85858 0.0
C2721 C 0.14986 0.27708 0.8872 0.0
C2722 C 0.14001 0.25297 0.8615 0.0
C2723 C 0.14121 0.24518 0.89308 0.0
C2724 C 0.14697 0.25336 0.92164 0.0
H2725 H 0.103 0.15342 0.94336 0.0
H2726 H 0.10909 0.18133 0.94054 0.0
C2727 C 0.15121 0.26917 0.91878 0.0
C2728 C 0.13687 0.22839 0.89591 0.0
H2729 H 0.10637 0.20286 0.88564 0.0
C2730 C 0.14854 0.21747 0.90444 0.0
C2731 C 0.12141 0.22309 0.88965 0.0
C2732 C 0.10826 0.23436 0.88188 0.0
C2733 C 0.14524 0.20135 0.90611 0.0
C2734 C 0.12991 0.19601 0.89866 0.0
C2735 C 0.11816 0.20696 0.89094 0.0
C2736 C 0.12581 0.1791 0.89922 0.0
C2737 C 0.15816 0.19017 0.91619 0.0
C2738 C 0.13291 0.1686 0.87634 0.0
C2739 C 0.12935 0.1526 0.87766 0.0
C2740 C 0.11857 0.14676 0.90182 0.0
C2741 C 0.11119 0.15742 0.92411 0.0
C2742 C 0.11474 0.17342 0.92272 0.0
H2743 H 0.16802 0.19633 0.92902 0.0
H2744 H 0.15368 0.1809 0.93363 0.0
H2745 H 0.16281 0.18441 0.89284 0.0
H2746 H 0.14124 0.17279 0.85749 0.0
H2747 H 0.13506 0.1448 0.85976 0.0
H2748 H 0.61104 0.35573 0.69874 0.0
H2749 H 0.58306 0.36166 0.69618 0.0
H2750 H 0.59066 0.39022 0.60644 0.0
H2751 H 0.6187 0.38407 0.6084 0.0
H2752 H 0.56905 0.39191 0.69912 0.0
H2753 H 0.55435 0.3606 0.57853 0.0
H2754 H 0.57213 0.35684 0.60231 0.0
H2755 H 0.5706 0.37395 0.57561 0.0
C2756 C 0.60677 0.36303 0.67806 0.0
C2757 C 0.61713 0.36932 0.65357 0.0
C2758 C 0.59077 0.36652 0.67683 0.0
C2759 C 0.58476 0.37625 0.65095 0.0
C2760 C 0.59502 0.38251 0.62637 0.0
H2761 H 0.49538 0.42482 0.64373 0.0
H2762 H 0.52306 0.41776 0.64827 0.0
C2763 C 0.61105 0.37908 0.62767 0.0
C2764 C 0.56782 0.3802 0.65035 0.0
H2765 H 0.53447 0.37658 0.60253 0.0
C2766 C 0.56147 0.38854 0.67805 0.0
C2767 C 0.55794 0.37565 0.623 0.0
C2768 C 0.56401 0.36615 0.59326 0.0
C2769 C 0.54554 0.39266 0.67887 0.0
C2770 C 0.53574 0.38844 0.65112 0.0
C2771 C 0.54204 0.37989 0.62368 0.0
C2772 C 0.5189 0.39276 0.65005 0.0
C2773 C 0.53926 0.40133 0.70961 0.0
C2774 C 0.50736 0.38105 0.64934 0.0
C2775 C 0.49149 0.38505 0.64697 0.0
C2776 C 0.48684 0.40085 0.64496 0.0
C2777 C 0.49847 0.41256 0.64595 0.0
C2778 C 0.51433 0.40854 0.64842 0.0
H2779 H 0.54727 0.4004 0.73199 0.0
H2780 H 0.53796 0.41392 0.70307 0.0
H2781 H 0.52756 0.39676 0.71708 0.0
H2782 H 0.51064 0.3688 0.65056 0.0
H2783 H 0.48287 0.37574 0.64661 0.0
H2784 H 0.22604 0.20044 0.33858 0.0
H2785 H 0.24596 0.22096 0.33226 0.0
H2786 H 0.22106 0.23967 0.2451 0.0
H2787 H 0.20118 0.21939 0.25128 0.0
H2788 H 0.25314 0.23625 0.23384 0.0
H2789 H 0.24116 0.26759 0.35581 0.0
H2790 H 0.24504 0.24699 0.36026 0.0
H2791 H 0.22776 0.2534 0.33796 0.0
C2792 C 0.22476 0.209 0.31825 0.0
C2793 C 0.21203 0.20821 0.29538 0.0
C2794 C 0.23613 0.22072 0.3147 0.0
C2795 C 0.23488 0.23192 0.28841 0.0
C2796 C 0.22225 0.23112 0.26552 0.0
H2797 H 0.28848 0.31247 0.21708 0.0
H2798 H 0.26905 0.2916 0.22457 0.0
C2799 C 0.21093 0.21943 0.26899 0.0
C2800 C 0.2468 0.2444 0.28417 0.0
H2801 H 0.26281 0.27641 0.32317 0.0
C2802 C 0.25525 0.24506 0.25333 0.0
C2803 C 0.24949 0.25586 0.30964 0.0
C2804 C 0.24031 0.25608 0.34269 0.0
C2805 C 0.26647 0.25678 0.24741 0.0
C2806 C 0.2691 0.26829 0.27281 0.0
C2807 C 0.26071 0.26758 0.30372 0.0
C2808 C 0.28073 0.281 0.2681 0.0
C2809 C 0.27563 0.25657 0.21434 0.0
C2810 C 0.29352 0.28213 0.29048 0.0
C2811 C 0.30459 0.29402 0.2863 0.0
C2812 C 0.30306 0.30511 0.25974 0.0
C2813 C 0.29013 0.30401 0.23749 0.0
C2814 C 0.27902 0.29209 0.24173 0.0
H2815 H 0.27496 0.24499 0.20147 0.0
H2816 H 0.27072 0.26549 0.19659 0.0
H2817 H 0.28814 0.25947 0.21894 0.0
H2818 H 0.29505 0.27368 0.31097 0.0
H2819 H 0.3145 0.2943 0.30358 0.0
H2820 H 0.04816 0.9612 0.59939 0.0
H2821 H 0.02723 0.98037 0.59024 0.0
H2822 H 0.04178 0.98607 0.48513 0.0
H2823 H 0.0628 0.96704 0.49412 0.0
H2824 H 0.02856 0.012 0.56728 0.0
H2825 H 0.99509 0.97421 0.47742 0.0
H2826 H 0.01053 0.96671 0.50453 0.0
H2827 H 0.01525 0.97725 0.46597 0.0
C2828 C 0.04706 0.96669 0.57448 0.0
C2829 C 0.05708 0.9625 0.54739 0.0
C2830 C 0.03503 0.97757 0.56924 0.0
C2831 C 0.03278 0.98438 0.53683 0.0
C2832 C 0.04309 0.98065 0.51011 0.0
H2833 H 0.96597 0.0512 0.45331 0.0
H2834 H 0.98707 0.03211 0.46165 0.0
C2835 C 0.0551 0.96979 0.5153 0.0
C2836 C 0.0196 0.99533 0.53088 0.0
H2837 H 0.98607 1.00029 0.48421 0.0
C2838 C 0.01923 0.00944 0.54924 0.0
C2839 C 0.00748 0.99192 0.50725 0.0
C2840 C 0.00697 0.97665 0.48784 0.0
C2841 C 0.00716 0.02038 0.5442 0.0
C2842 C 0.99503 0.01696 0.52063 0.0
C2843 C 0.99541 1.00287 0.50221 0.0
C2844 C 0.98174 0.02782 0.51506 0.0
C2845 C 0.00766 0.03564 0.56365 0.0
C2846 C 0.97149 0.03134 0.54204 0.0
C2847 C 0.9594 0.04214 0.53731 0.0
C2848 C 0.95727 0.04959 0.50545 0.0
C2849 C 0.9672 0.04559 0.47807 0.0
C2850 C 0.97932 0.03476 0.48285 0.0
H2851 H 0.01956 0.03813 0.57388 0.0
H2852 H 1.00399 0.04557 0.54706 0.0
H2853 H 0.99946 0.03498 0.58567 0.0
H2854 H 0.97293 0.02581 0.56687 0.0
H2855 H 0.95177 0.04474 0.55869 0.0
H2856 H 0.30013 0.79882 0.84888 0.0
H2857 H 0.28084 0.77788 0.84074 0.0
H2858 H 0.27475 0.792 0.73538 0.0
H2859 H 0.29388 0.81299 0.74336 0.0
H2860 H 0.24897 0.77889 0.81765 0.0
H2861 H 0.28724 0.74534 0.72908 0.0
H2862 H 0.29456 0.76092 0.75594 0.0
H2863 H 0.28414 0.76544 0.7171 0.0
C2864 C 0.2945 0.79763 0.82415 0.0
C2865 C 0.29865 0.80748 0.79665 0.0
C2866 C 0.28356 0.78561 0.81949 0.0
C2867 C 0.27665 0.78321 0.78726 0.0
C2868 C 0.28025 0.79343 0.76022 0.0
H2869 H 0.21067 0.71616 0.70284 0.0
H2870 H 0.22965 0.73729 0.71185 0.0
C2871 C 0.29117 0.80542 0.76483 0.0
C2872 C 0.26581 0.7699 0.78168 0.0
H2873 H 0.26113 0.73628 0.73541 0.0
C2874 C 0.25164 0.76952 0.79982 0.0
C2875 C 0.26935 0.75774 0.75833 0.0
C2876 C 0.2847 0.75724 0.73918 0.0
C2877 C 0.24074 0.75742 0.79473 0.0
C2878 C 0.24427 0.74527 0.77135 0.0
C2879 C 0.25846 0.74564 0.75325 0.0
C2880 C 0.23341 0.732 0.7655 0.0
C2881 C 0.22538 0.75793 0.81385 0.0
C2882 C 0.22962 0.72177 0.7924 0.0
C2883 C 0.21888 0.70966 0.78729 0.0
C2884 C 0.21176 0.70749 0.75511 0.0
C2885 C 0.21602 0.71742 0.72784 0.0
C2886 C 0.22678 0.72956 0.733 0.0
H2887 H 0.22285 0.76984 0.82391 0.0
H2888 H 0.21553 0.75424 0.79708 0.0
H2889 H 0.22593 0.74974 0.83595 0.0
H2890 H 0.23491 0.72322 0.81745 0.0
H2891 H 0.21607 0.70203 0.80862 0.0
H2892 H 0.54843 0.96336 0.95272 0.0
H2893 H 0.52787 0.98311 0.9598 0.0
H2894 H 0.5415 0.98933 0.06538 0.0
H2895 H 0.56231 0.96998 0.05824 0.0
H2896 H 0.50295 0.98099 1.00632 0.0
H2897 H 0.53841 0.03437 0.03025 0.0
H2898 H 0.54661 0.0168 1.01179 0.0
H2899 H 0.54348 0.01809 0.05728 0.0
C2900 C 0.54729 0.9692 0.97719 0.0
C2901 C 0.55701 0.96511 1.00493 0.0
C2902 C 0.53547 0.98039 0.98127 0.0
C2903 C 0.53327 0.98778 1.01302 0.0
C2904 C 0.54316 0.98396 0.04051 0.0
H2905 H 0.46558 0.05269 0.09833 0.0
H2906 H 0.48639 0.03336 0.08963 0.0
C2907 C 0.55495 0.97278 0.03648 0.0
C2908 C 0.52004 0.99876 1.01812 0.0
H2909 H 0.51113 0.03614 0.04221 0.0
C2910 C 0.50472 0.99309 1.01391 0.0
C2911 C 0.52241 0.01449 0.02824 0.0
C2912 C 0.53861 0.02137 0.03187 0.0
C2913 C 0.49167 1.00266 1.02019 0.0
C2914 C 0.49404 0.01837 0.03045 0.0
C2915 C 0.50936 0.02406 0.03454 0.0
C2916 C 0.4808 0.02924 0.03629 0.0
C2917 C 0.47546 0.99578 1.01656 0.0
C2918 C 0.47073 0.03326 1.00924 0.0
C2919 C 0.4588 0.04421 1.01419 0.0
C2920 C 0.45675 0.05144 0.04625 0.0
C2921 C 0.4667 0.04719 0.07349 0.0
C2922 C 0.47866 0.03624 0.06849 0.0
H2923 H 0.47567 0.98277 1.01752 0.0
H2924 H 0.46756 1.00013 0.03705 0.0
H2925 H 0.47047 0.99934 0.99146 0.0
H2926 H 0.47233 0.02818 0.98405 0.0
H2927 H 0.45126 0.04713 0.99279 0.0
H2928 H 0.29507 0.70179 0.24433 0.0
H2929 H 0.27618 0.72303 0.23683 0.0
H2930 H 0.28237 0.73632 0.34258 0.0
H2931 H 0.30168 0.71539 0.35001 0.0
H2932 H 0.24807 0.72926 0.27068 0.0
H2933 H 0.29131 0.77711 0.29035 0.0
H2934 H 0.29709 0.75705 0.28298 0.0
H2935 H 0.29035 0.76303 0.32458 0.0
C2936 C 0.29247 0.70927 0.26596 0.0
C2937 C 0.30001 0.70698 0.29766 0.0
C2938 C 0.28161 0.72134 0.26168 0.0
C2939 C 0.27811 0.73142 0.28896 0.0
C2940 C 0.28515 0.72885 0.32101 0.0
H2941 H 0.21726 0.81194 0.31003 0.0
H2942 H 0.23619 0.79075 0.31817 0.0
C2943 C 0.29604 0.71676 0.32533 0.0
C2944 C 0.26715 0.74467 0.2836 0.0
H2945 H 0.26473 0.78461 0.28455 0.0
C2946 C 0.2517 0.74137 0.27362 0.0
C2947 C 0.27197 0.76044 0.28738 0.0
C2948 C 0.28861 0.76469 0.29661 0.0
C2949 C 0.24084 0.75344 0.26784 0.0
C2950 C 0.24566 0.7692 0.27159 0.0
C2951 C 0.2611 0.7725 0.28164 0.0
C2952 C 0.23473 0.78244 0.26591 0.0
C2953 C 0.2242 0.7492 0.2585 0.0
C2954 C 0.22796 0.78502 0.2336 0.0
C2955 C 0.21708 0.7971 0.2289 0.0
C2956 C 0.21283 0.80681 0.25646 0.0
C2957 C 0.22009 0.8045 0.28846 0.0
C2958 C 0.23096 0.79246 0.29311 0.0
H2959 H 0.2215 0.73677 0.26464 0.0
H2960 H 0.21572 0.75682 0.27215 0.0
H2961 H 0.2225 0.75092 0.23054 0.0
H2962 H 0.23094 0.77758 0.21211 0.0
H2963 H 0.21165 0.79848 0.204 0.0
H2964 H 0.46494 0.96194 0.45377 0.0
H2965 H 0.48619 0.98087 0.46203 0.0
H2966 H 0.47143 0.98798 0.56653 0.0
H2967 H 0.45012 0.9692 0.55842 0.0
H2968 H 0.48565 0.01281 0.48349 0.0
H2969 H 0.51775 0.97479 0.57551 0.0
H2970 H 0.50221 0.96751 0.54843 0.0
H2971 H 0.49764 0.97842 0.5865 0.0
C2972 C 0.46606 0.96772 0.47832 0.0
C2973 C 0.45593 0.96396 0.50556 0.0
C2974 C 0.47826 0.97845 0.48306 0.0
C2975 C 0.48056 0.98554 0.51511 0.0
C2976 C 0.47008 0.98233 0.54186 0.0
H2977 H 0.54807 0.05152 0.59783 0.0
H2978 H 0.5268 0.03262 0.58948 0.0
C2979 C 0.45791 0.97162 0.53717 0.0
C2980 C 0.49402 0.99617 0.52075 0.0
H2981 H 0.52742 1.00063 0.56806 0.0
C2982 C 0.49483 0.01014 0.50184 0.0
C2983 C 0.50594 0.99262 0.54478 0.0
C2984 C 0.50598 0.97746 0.56479 0.0
C2985 C 0.50713 0.02082 0.50677 0.0
C2986 C 0.51905 0.01727 0.5308 0.0
C2987 C 0.51824 1.0033 0.54971 0.0
C2988 C 0.5325 0.0279 0.53647 0.0
C2989 C 0.5071 0.03597 0.48674 0.0
C2990 C 0.54302 0.03107 0.50977 0.0
C2991 C 0.55521 0.04176 0.51451 0.0
C2992 C 0.55716 0.04943 0.54611 0.0
C2993 C 0.54698 0.04572 0.57329 0.0
C2994 C 0.53476 0.03502 0.5685 0.0
H2995 H 0.49534 0.03863 0.47594 0.0
H2996 H 0.51084 0.04592 0.50312 0.0
H2997 H 0.51547 0.03502 0.4651 0.0
H2998 H 0.54169 0.0254 0.48511 0.0
H2999 H 0.56303 0.04415 0.49331 0.0
H3000 H 0.3019 0.21536 0.70348 0.0
H3001 H 0.28297 0.23654 0.71213 0.0
H3002 H 0.27569 0.22113 0.81625 0.0
H3003 H 0.29447 0.19988 0.80775 0.0
H3004 H 0.25104 0.23559 0.73299 0.0
H3005 H 0.2883 0.26752 0.82651 0.0
H3006 H 0.29585 0.25219 0.79929 0.0
H3007 H 0.28479 0.24731 0.83702 0.0
C3008 C 0.29611 0.21633 0.72805 0.0
C3009 C 0.2998 0.206 0.75504 0.0
C3010 C 0.28537 0.2285 0.73301 0.0
C3011 C 0.2782 0.23058 0.76504 0.0
C3012 C 0.2814 0.21995 0.7916 0.0
H3013 H 0.21146 0.29705 0.84836 0.0
H3014 H 0.23044 0.27592 0.83965 0.0
C3015 C 0.29212 0.20781 0.78668 0.0
C3016 C 0.26742 0.2439 0.77079 0.0
H3017 H 0.2624 0.27696 0.81878 0.0
C3018 C 0.25354 0.24468 0.7516 0.0
C3019 C 0.27074 0.25571 0.79517 0.0
C3020 C 0.28579 0.25578 0.8155 0.0
C3021 C 0.24271 0.25684 0.75659 0.0
C3022 C 0.24602 0.26865 0.78098 0.0
C3023 C 0.25991 0.26786 0.80016 0.0
C3024 C 0.23522 0.28195 0.78678 0.0
C3025 C 0.22766 0.25677 0.73625 0.0
C3026 C 0.23202 0.29259 0.76027 0.0
C3027 C 0.22127 0.3047 0.76522 0.0
C3028 C 0.21357 0.30646 0.79685 0.0
C3029 C 0.21727 0.29612 0.8238 0.0
C3030 C 0.22803 0.28398 0.8188 0.0
H3031 H 0.22516 0.24505 0.72518 0.0
H3032 H 0.21759 0.26033 0.75248 0.0
H3033 H 0.22864 0.26527 0.71478 0.0
H3034 H 0.23774 0.29145 0.73562 0.0
H3035 H 0.21891 0.31265 0.74419 0.0
H3036 H 0.04823 0.05031 0.95288 0.0
H3037 H 0.02724 0.03099 0.96013 0.0
H3038 H 0.04039 0.02484 0.06605 0.0
H3039 H 0.06144 0.04399 0.05896 0.0
H3040 H 0.02813 0.99906 0.98339 0.0
H3041 H 0.99363 0.03728 0.07022 0.0
H3042 H 0.00942 0.04463 0.04394 0.0
H3043 H 0.01363 0.03431 0.08308 0.0
C3044 C 0.04682 0.04467 0.97755 0.0
C3045 C 0.05641 0.0488 1.00546 0.0
C3046 C 0.03477 0.03371 0.9817 0.0
C3047 C 0.03208 0.02676 1.01381 0.0
C3048 C 0.04204 0.03036 0.04128 0.0
H3049 H 0.96531 0.96054 0.09756 0.0
H3050 H 0.9862 0.97976 0.08836 0.0
C3051 C 0.05406 0.04129 0.03718 0.0
C3052 C 0.01876 0.0159 1.01886 0.0
H3053 H 0.98483 0.01106 0.06405 0.0
C3054 C 0.01861 1.00169 1.00085 0.0
C3055 C 1.00638 0.01941 0.0417 0.0
C3056 C 1.00563 0.03479 0.06066 0.0
C3057 C 1.00656 0.9907 1.00568 0.0
C3058 C 0.99421 0.99418 0.02866 0.0
C3059 C 0.99433 0.00843 0.04653 0.0
C3060 C 0.98108 0.98316 0.03452 0.0
C3061 C 0.00733 0.9753 0.98682 0.0
C3062 C 0.97102 0.97908 1.00755 0.0
C3063 C 0.95904 0.96818 1.01276 0.0
C3064 C 0.95683 0.96122 0.04512 0.0
C3065 C 0.96659 0.96577 0.07242 0.0
C3066 C 0.97859 0.97667 0.06716 0.0
H3067 H 0.01931 0.97288 0.977 0.0
H3068 H 1.0037 0.96545 1.00368 0.0
H3069 H 0.99923 0.97569 0.96457 0.0
H3070 H 0.9725 0.98425 0.98237 0.0
H3071 H 0.95154 0.96516 0.99139 0.0
H3072 H 0.71801 0.70124 0.7438 0.0
H3073 H 0.73742 0.722 0.73581 0.0
H3074 H 0.73147 0.73605 0.84114 0.0
H3075 H 0.71203 0.7153 0.84929 0.0
H3076 H 0.73192 0.75379 0.7433 0.0
H3077 H 0.77908 0.73398 0.83139 0.0
H3078 H 0.76347 0.72121 0.81743 0.0
H3079 H 0.76008 0.73525 0.85093 0.0
C3080 C 0.72092 0.70868 0.76533 0.0
C3081 C 0.71347 0.70663 0.79717 0.0
C3082 C 0.73203 0.7205 0.76074 0.0
C3083 C 0.73598 0.73048 0.78794 0.0
C3084 C 0.72883 0.72828 0.82 0.0
H3085 H 0.79386 0.81328 0.80738 0.0
H3086 H 0.77506 0.79198 0.8154 0.0
C3087 C 0.71773 0.7164 0.82464 0.0
C3088 C 0.74687 0.74374 0.78207 0.0
H3089 H 0.78154 0.75966 0.80832 0.0
C3090 C 0.74282 0.75504 0.75737 0.0
C3091 C 0.76104 0.74534 0.80053 0.0
C3092 C 0.76629 0.73324 0.82634 0.0
C3093 C 0.75246 0.76806 0.75102 0.0
C3094 C 0.7666 0.76968 0.76955 0.0
C3095 C 0.77066 0.75838 0.79422 0.0
C3096 C 0.77738 0.78303 0.76382 0.0
C3097 C 0.74727 0.78014 0.72509 0.0
C3098 C 0.78485 0.78509 0.73209 0.0
C3099 C 0.79564 0.79724 0.72745 0.0
C3100 C 0.79924 0.80747 0.75458 0.0
C3101 C 0.7915 0.8055 0.78612 0.0
C3102 C 0.78072 0.79337 0.79073 0.0
H3103 H 0.73455 0.77917 0.71929 0.0
H3104 H 0.74975 0.79218 0.73439 0.0
H3105 H 0.75382 0.77837 0.70086 0.0
H3106 H 0.78263 0.77705 0.71118 0.0
H3107 H 0.80157 0.79825 0.70303 0.0
H3108 H 0.7189 0.2006 0.30772 0.0
H3109 H 0.73788 0.22168 0.31625 0.0
H3110 H 0.73154 0.23646 0.2114 0.0
H3111 H 0.71238 0.21543 0.20271 0.0
H3112 H 0.76346 0.23545 0.23438 0.0
H3113 H 0.72506 0.26824 0.32403 0.0
H3114 H 0.72825 0.24807 0.33533 0.0
H3115 H 0.7178 0.25281 0.29666 0.0
C3116 C 0.72153 0.20834 0.28648 0.0
C3117 C 0.71401 0.20644 0.25465 0.0
C3118 C 0.73236 0.22038 0.29141 0.0
C3119 C 0.73584 0.2308 0.26468 0.0
C3120 C 0.7289 0.22857 0.23242 0.0
H3121 H 0.7962 0.31213 0.2452 0.0
H3122 H 0.7771 0.29119 0.23622 0.0
C3123 C 0.71804 0.2165 0.22743 0.0
C3124 C 0.74659 0.24413 0.27062 0.0
H3125 H 0.75113 0.27748 0.31792 0.0
C3126 C 0.76075 0.24469 0.25249 0.0
C3127 C 0.74299 0.25613 0.29435 0.0
C3128 C 0.72764 0.25642 0.31353 0.0
C3129 C 0.7716 0.2568 0.25794 0.0
C3130 C 0.76801 0.26879 0.28169 0.0
C3131 C 0.75383 0.26824 0.29979 0.0
C3132 C 0.77881 0.28206 0.28786 0.0
C3133 C 0.78696 0.25648 0.2388 0.0
C3134 C 0.78559 0.28427 0.32029 0.0
C3135 C 0.79649 0.29628 0.32554 0.0
C3136 C 0.80074 0.30629 0.29841 0.0
C3137 C 0.79339 0.30442 0.26639 0.0
C3138 C 0.7825 0.29246 0.2612 0.0
H3139 H 0.78954 0.24465 0.22835 0.0
H3140 H 0.78637 0.26481 0.21697 0.0
H3141 H 0.79679 0.26009 0.25569 0.0
H3142 H 0.78279 0.27641 0.34126 0.0
H3143 H 0.80202 0.29733 0.35041 0.0
H3144 H 0.71377 0.29773 0.69961 0.0
H3145 H 0.73314 0.27675 0.70673 0.0
H3146 H 0.73901 0.28949 0.81288 0.0
H3147 H 0.71981 0.31049 0.80592 0.0
H3148 H 0.76504 0.27741 0.73058 0.0
H3149 H 0.72622 0.24277 0.81619 0.0
H3150 H 0.71908 0.2587 0.78993 0.0
H3151 H 0.72918 0.26271 0.8294 0.0
C3152 C 0.71938 0.29623 0.72428 0.0
C3153 C 0.71514 0.30566 0.75232 0.0
C3154 C 0.73036 0.28419 0.72837 0.0
C3155 C 0.73721 0.28138 0.76052 0.0
C3156 C 0.73355 0.29123 0.78807 0.0
H3157 H 0.80289 0.21475 0.84614 0.0
H3158 H 0.7838 0.23566 0.83611 0.0
C3159 C 0.7226 0.30322 0.78405 0.0
C3160 C 0.74799 0.268 0.76561 0.0
H3161 H 0.7525 0.23402 0.81096 0.0
C3162 C 0.76229 0.26786 0.74795 0.0
C3163 C 0.74431 0.25558 0.78833 0.0
C3164 C 0.72881 0.25481 0.80685 0.0
C3165 C 0.77323 0.25579 0.75309 0.0
C3166 C 0.7696 0.24345 0.77603 0.0
C3167 C 0.75525 0.24353 0.79348 0.0
C3168 C 0.7806 0.23035 0.78235 0.0
C3169 C 0.78874 0.25655 0.73461 0.0
C3170 C 0.78475 0.22018 0.75568 0.0
C3171 C 0.79555 0.20817 0.76138 0.0
C3172 C 0.80237 0.20606 0.79391 0.0
C3173 C 0.79777 0.21595 0.82089 0.0
C3174 C 0.78694 0.22797 0.81515 0.0
H3175 H 0.79119 0.2685 0.72454 0.0
H3176 H 0.79849 0.25302 0.75184 0.0
H3177 H 0.78852 0.24835 0.71258 0.0
H3178 H 0.77968 0.22159 0.73039 0.0
H3179 H 0.79862 0.20057 0.74025 0.0
H3180 H 0.71782 0.81313 0.24089 0.0
H3181 H 0.73697 0.7922 0.23244 0.0
H3182 H 0.73129 0.77787 0.33777 0.0
H3183 H 0.71202 0.79876 0.34638 0.0
H3184 H 0.76289 0.77889 0.3149 0.0
H3185 H 0.72477 0.74563 0.22532 0.0
H3186 H 0.72798 0.76574 0.21354 0.0
H3187 H 0.71742 0.76119 0.25214 0.0
C3188 C 0.72064 0.80552 0.26225 0.0
C3189 C 0.71329 0.80752 0.2942 0.0
C3190 C 0.73156 0.79356 0.25736 0.0
C3191 C 0.73528 0.7833 0.28428 0.0
C3192 C 0.72848 0.78563 0.31662 0.0
H3193 H 0.79462 0.70166 0.30742 0.0
H3194 H 0.77594 0.72306 0.3151 0.0
C3195 C 0.71755 0.79763 0.32155 0.0
C3196 C 0.74613 0.77004 0.27852 0.0
H3197 H 0.75079 0.73643 0.23221 0.0
C3198 C 0.76024 0.76957 0.29694 0.0
C3199 C 0.74261 0.75792 0.255 0.0
C3200 C 0.72732 0.75751 0.23555 0.0
C3201 C 0.77107 0.75741 0.29208 0.0
C3202 C 0.76753 0.74528 0.26861 0.0
C3203 C 0.75345 0.74577 0.25012 0.0
C3204 C 0.77825 0.73187 0.26332 0.0
C3205 C 0.78633 0.75777 0.31164 0.0
C3206 C 0.78527 0.72939 0.23127 0.0
C3207 C 0.79595 0.71714 0.22677 0.0
C3208 C 0.79973 0.70714 0.25428 0.0
C3209 C 0.79219 0.70934 0.28595 0.0
C3210 C 0.78153 0.72156 0.2904 0.0
H3211 H 0.78891 0.76964 0.32186 0.0
H3212 H 0.7856 0.74954 0.33365 0.0
H3213 H 0.79623 0.75403 0.29511 0.0
H3214 H 0.78279 0.73719 0.20999 0.0
H3215 H 0.80164 0.71586 0.20216 0.0
H3216 H 0.56244 0.47605 0.08832 0.0
H3217 H 0.54162 0.49562 0.08093 0.0
H3218 H 0.52366 0.46985 0.99441 0.0
H3219 H 0.54403 0.45017 1.00208 0.0
H3220 H 0.53523 0.51411 1.02109 0.0
H3221 H 0.48495 0.47598 0.05589 0.0
H3222 H 0.50496 0.47104 0.06642 0.0
H3223 H 0.49766 0.46792 1.02375 0.0
C3224 C 0.55396 0.4745 0.06796 0.0
C3225 C 0.55494 0.46157 0.04576 0.0
C3226 C 0.54214 0.4857 0.06366 0.0
C3227 C 0.53101 0.48405 0.03739 0.0
C3228 C 0.532 0.47122 1.01516 0.0
H3229 H 0.45148 0.53832 0.96354 0.0
H3230 H 0.47245 0.51893 0.97106 0.0
C3231 C 0.5438 0.46007 1.01934 0.0
C3232 C 0.51855 0.49591 0.03245 0.0
H3233 H 0.47883 0.50065 0.03091 0.0
C3234 C 0.5229 0.51122 1.02346 0.0
C3235 C 0.50249 0.49203 0.03535 0.0
C3236 C 0.49719 0.47589 0.04617 0.0
C3237 C 0.51157 0.52274 1.01667 0.0
C3238 C 0.4955 0.51886 1.01952 0.0
C3239 C 0.49116 0.50355 0.02856 0.0
C3240 C 0.48303 0.53068 1.0144 0.0
C3241 C 0.51687 0.53888 1.00583 0.0
C3242 C 0.48198 0.54357 0.03645 0.0
C3243 C 0.4701 0.55462 0.03219 0.0
C3244 C 0.45892 0.55297 1.00588 0.0
C3245 C 0.45998 0.54 0.98382 0.0
C3246 C 0.47189 0.52889 0.98818 0.0
H3247 H 0.52911 0.5388 0.99617 0.0
H3248 H 0.50911 0.54371 0.98554 0.0
H3249 H 0.51637 0.54686 0.02824 0.0
H3250 H 0.49032 0.54504 0.05715 0.0
H3251 H 0.4698 0.56456 0.04934 0.0
H3252 H 0.06296 0.46948 0.56014 0.0
H3253 H 0.0417 0.48827 0.56847 0.0
H3254 H 0.0273 0.48196 0.46341 0.0
H3255 H 0.04827 0.46277 0.45516 0.0
H3256 H 0.03482 0.5164 0.5342 0.0
H3257 H 0.98726 0.47251 0.51827 0.0
H3258 H 0.00746 0.46701 0.52486 0.0
H3259 H 1.00095 0.47349 0.48337 0.0
C3260 C 0.05524 0.47205 0.53883 0.0
C3261 C 0.05722 0.46451 0.50709 0.0
C3262 C 0.04316 0.48285 0.54358 0.0
C3263 C 0.03277 0.48627 0.51675 0.0
C3264 C 0.03503 0.47924 0.48464 0.0
H3265 H 0.95128 0.54577 0.49791 0.0
H3266 H 0.97259 0.52704 0.48966 0.0
C3267 C 0.04714 0.46842 0.47984 0.0
C3268 C 0.01948 0.49709 0.52266 0.0
H3269 H 0.97952 0.49903 0.52395 0.0
C3270 C 0.02272 0.51262 0.53206 0.0
C3271 C 1.00373 0.49206 0.51994 0.0
C3272 C 0.99957 0.47533 0.51136 0.0
C3273 C 0.01061 0.52337 0.5382 0.0
C3274 C 0.99486 0.51835 0.53547 0.0
C3275 C 0.99162 0.50281 0.52609 0.0
C3276 C 0.98156 0.52916 0.54132 0.0
C3277 C 0.01477 0.54011 0.54676 0.0
C3278 C 0.97931 0.53625 0.57339 0.0
C3279 C 0.96716 0.54704 0.57813 0.0
C3280 C 0.95705 0.55086 0.55089 0.0
C3281 C 0.95902 0.54327 0.51921 0.0
C3282 C 0.97114 0.53251 0.5145 0.0
H3283 H 0.02708 0.54292 0.53981 0.0
H3284 H 0.00687 0.54843 0.53329 0.0
H3285 H 0.01341 0.54195 0.57475 0.0
H3286 H 0.98706 0.53359 0.59461 0.0
H3287 H 0.96603 0.55273 0.60277 0.0
H3288 H 0.95067 0.47595 0.96406 0.0
H3289 H 0.97098 0.49607 0.97065 0.0
H3290 H 0.9903 0.47073 0.05658 0.0
H3291 H 0.97028 0.45064 0.05007 0.0
H3292 H 0.98616 0.50288 0.06888 0.0
H3293 H 0.01782 0.49196 0.94671 0.0
H3294 H 0.99713 0.49543 0.94259 0.0
H3295 H 1.00395 0.47818 0.96443 0.0
C3296 C 0.95932 0.47461 0.98415 0.0
C3297 C 0.95877 0.46171 1.00662 0.0
C3298 C 0.97092 0.4861 0.98787 0.0
C3299 C 0.98221 0.4848 1.01394 0.0
C3300 C 0.98167 0.47197 0.03636 0.0
H3301 H 0.06196 0.53884 0.08754 0.0
H3302 H 0.04111 0.5194 0.07971 0.0
C3303 C 0.97012 0.46053 0.0327 0.0
C3304 C 0.9945 0.49688 1.01851 0.0
H3305 H 0.02649 0.51333 0.98022 0.0
C3306 C 0.99499 0.50518 0.04953 0.0
C3307 C 1.006 0.4998 0.99321 0.0
C3308 C 1.00635 0.49081 0.95994 0.0
C3309 C 1.00659 0.51648 0.05581 0.0
C3310 C 0.01817 0.51932 0.03063 0.0
C3311 C 0.01762 0.51108 0.99952 0.0
C3312 C 0.0308 0.531 0.03575 0.0
C3313 C 1.00618 0.52548 0.08906 0.0
C3314 C 0.03208 0.54376 1.01327 0.0
C3315 C 0.04397 0.55481 1.0176 0.0
C3316 C 0.05491 0.55329 0.04445 0.0
C3317 C 0.05363 0.54044 0.0669 0.0
C3318 C 0.04172 0.52935 0.06247 0.0
H3319 H 0.9945 0.52477 0.10155 0.0
H3320 H 0.01495 0.52046 0.10699 0.0
H3321 H 0.00913 0.53801 0.08482 0.0
H3322 H 0.02377 0.54526 0.99251 0.0
H3323 H 0.04442 0.56467 1.00018 0.0
H3324 H 0.45178 0.46755 0.49554 0.0
H3325 H 0.47283 0.48656 0.48691 0.0
H3326 H 0.48721 0.48072 0.59214 0.0
H3327 H 0.46626 0.46151 0.60092 0.0
H3328 H 0.48571 0.51265 0.56829 0.0
H3329 H 0.51971 0.47433 0.4806 0.0
H3330 H 0.49953 0.47713 0.46892 0.0
H3331 H 0.5043 0.46694 0.5079 0.0
C3332 C 0.45944 0.47026 0.51683 0.0
C3333 C 0.45742 0.46289 0.54882 0.0
C3334 C 0.47146 0.48112 0.51184 0.0
C3335 C 0.48174 0.48479 0.53869 0.0
C3336 C 0.47944 0.47794 0.57104 0.0
H3337 H 0.56186 0.54659 0.56002 0.0
H3338 H 0.54105 0.52731 0.56865 0.0
C3339 C 0.46739 0.46705 0.57607 0.0
C3340 C 0.49495 0.49572 0.53286 0.0
H3341 H 0.52864 0.50048 0.48678 0.0
C3342 C 0.49515 0.50998 0.55062 0.0
C3343 C 0.50718 0.49218 0.50967 0.0
C3344 C 0.50782 0.47676 0.49084 0.0
C3345 C 0.50715 0.52097 0.54535 0.0
C3346 C 0.51942 0.51742 0.52223 0.0
C3347 C 0.51921 0.50315 0.50446 0.0
C3348 C 0.53263 0.52837 0.51637 0.0
C3349 C 0.50641 0.53643 0.564 0.0
C3350 C 0.53521 0.53484 0.48375 0.0
C3351 C 0.54717 0.54583 0.4787 0.0
C3352 C 0.55674 0.55049 0.50623 0.0
C3353 C 0.55449 0.54347 0.53851 0.0
C3354 C 0.54259 0.53248 0.54349 0.0
H3355 H 0.49441 0.53895 0.57357 0.0
H3356 H 0.51441 0.53604 0.58642 0.0
H3357 H 0.51017 0.54622 0.5471 0.0
H3358 H 0.5277 0.53172 0.46243 0.0
H3359 H 0.54852 0.5511 0.45362 0.0
H3360 H 0.21744 0.16521 0.39621 0.0
H3361 H 0.24123 0.1635 0.43175 0.0
H3362 H 0.21271 0.16124 0.52278 0.0
H3363 H 0.18913 0.16268 0.48782 0.0
H3364 H 0.25122 0.1839 0.48284 0.0
H3365 H 0.24231 0.12481 0.53844 0.0
H3366 H 0.23142 0.13173 0.50172 0.0
H3367 H 0.22576 0.13748 0.54431 0.0
C3368 C 0.21626 0.16412 0.42375 0.0
C3369 C 0.20132 0.16401 0.43903 0.0
C3370 C 0.22986 0.1632 0.44408 0.0
C3371 C 0.22881 0.16197 0.48003 0.0
C3372 C 0.21391 0.16179 0.49516 0.0
H3373 H 0.29489 0.16364 0.65274 0.0
H3374 H 0.27129 0.16285 0.61642 0.0
C3375 C 0.20038 0.16274 0.475 0.0
C3376 C 0.24316 0.16166 0.50205 0.0
H3377 H 0.26171 0.14079 0.56528 0.0
C3378 C 0.25358 0.17439 0.50061 0.0
C3379 C 0.24623 0.14934 0.52558 0.0
C3380 C 0.23592 0.13499 0.52745 0.0
C3381 C 0.26672 0.1753 0.5224 0.0
C3382 C 0.26975 0.16301 0.546 0.0
C3383 C 0.25937 0.15026 0.54742 0.0
C3384 C 0.28397 0.16296 0.56839 0.0
C3385 C 0.27707 0.18962 0.52048 0.0
C3386 C 0.29895 0.16289 0.55363 0.0
C3387 C 0.31237 0.16331 0.5742 0.0
C3388 C 0.31124 0.16372 0.61023 0.0
C3389 C 0.29622 0.16335 0.62514 0.0
C3390 C 0.28272 0.16292 0.60439 0.0
H3391 H 0.27092 0.19969 0.50838 0.0
H3392 H 0.28112 0.19318 0.54638 0.0
H3393 H 0.28753 0.1869 0.50471 0.0
H3394 H 0.30028 0.16256 0.52603 0.0
H3395 H 0.32369 0.16343 0.56167 0.0
H3396 H 0.10226 0.07307 0.81618 0.0
H3397 H 0.10299 0.04943 0.78137 0.0
H3398 H 0.10075 0.02103 0.87277 0.0
H3399 H 0.09968 0.04484 0.90808 0.0
H3400 H 0.12343 0.02503 0.77818 0.0
H3401 H 0.06464 1.00352 0.8168 0.0
H3402 H 0.07141 0.02302 0.82672 0.0
H3403 H 0.07791 1.00658 0.85189 0.0
C3404 C 0.10194 0.06183 0.82908 0.0
C3405 C 0.10079 0.06092 0.86507 0.0
C3406 C 0.1024 0.04827 0.809 0.0
C3407 C 0.10166 0.03338 0.82423 0.0
C3408 C 0.10099 0.03237 0.86026 0.0
H3409 H 0.09879 0.93906 0.74191 0.0
H3410 H 0.10039 0.9625 0.7772 0.0
C3411 C 0.10052 0.046 0.88049 0.0
C3412 C 0.10147 0.01909 0.80207 0.0
H3413 H 0.07953 0.98697 0.78082 0.0
C3414 C 0.11381 0.01672 0.77875 0.0
C3415 C 0.08889 0.00826 0.80252 0.0
C3416 C 0.07488 0.01049 0.82557 0.0
C3417 C 0.11406 1.00373 0.75646 0.0
C3418 C 0.10149 0.9929 0.75699 0.0
C3419 C 0.08917 0.99526 0.78031 0.0
C3420 C 0.10111 0.9787 0.73456 0.0
C3421 C 0.12795 1.00154 0.73307 0.0
C3422 C 0.10098 0.97988 0.69853 0.0
C3423 C 0.10008 0.96636 0.678 0.0
C3424 C 0.09919 0.9514 0.69314 0.0
C3425 C 0.09942 0.95033 0.72919 0.0
C3426 C 0.10032 0.96377 0.74955 0.0
H3427 H 0.13819 0.0086 0.74149 0.0
H3428 H 0.13147 0.98903 0.73194 0.0
H3429 H 0.12473 1.00536 0.70678 0.0
H3430 H 0.10128 0.99127 0.68627 0.0
H3431 H 0.09981 0.96764 0.65038 0.0
H3432 H 0.21842 0.84952 0.15544 0.0
H3433 H 0.24207 0.8511 0.11949 0.0
H3434 H 0.21319 0.85279 0.02884 0.0
H3435 H 0.18976 0.85149 0.06417 0.0
H3436 H 0.25198 0.83053 0.0687 0.0
H3437 H 0.24254 0.8893 1.01192 0.0
H3438 H 0.23182 0.88249 0.04895 0.0
H3439 H 0.22603 0.87651 1.00657 0.0
C3440 C 0.21713 0.85044 0.12788 0.0
C3441 C 0.20214 0.85045 0.11282 0.0
C3442 C 0.23066 0.85129 0.10733 0.0
C3443 C 0.22946 0.85234 0.07137 0.0
C3444 C 0.2145 0.85238 0.05645 0.0
H3445 H 0.29483 0.84993 0.89764 0.0
H3446 H 0.27137 0.85093 0.93428 0.0
C3447 C 0.20105 0.85151 0.07683 0.0
C3448 C 0.24372 0.85262 0.04911 0.0
H3449 H 0.26188 0.87329 0.98508 0.0
C3450 C 0.25421 0.83996 0.05067 0.0
C3451 C 0.24662 0.86485 1.02525 0.0
C3452 C 0.23624 0.87913 1.02322 0.0
C3453 C 0.26726 0.83902 0.02868 0.0
C3454 C 0.27012 0.85121 1.00474 0.0
C3455 C 0.25967 0.8639 1.0032 0.0
C3456 C 0.28425 0.85123 0.98211 0.0
C3457 C 0.27769 0.82477 0.03076 0.0
C3458 C 0.29928 0.85148 0.99664 0.0
C3459 C 0.31262 0.85095 0.97589 0.0
C3460 C 0.31134 0.85023 0.9399 0.0
C3461 C 0.29627 0.85046 0.92521 0.0
C3462 C 0.28285 0.85101 0.94614 0.0
H3463 H 0.27166 0.81474 0.04325 0.0
H3464 H 0.28163 0.8211 1.00487 0.0
H3465 H 0.28822 0.82764 0.04623 0.0
H3466 H 0.30071 0.85202 1.02421 0.0
H3467 H 0.32398 0.85095 0.98825 0.0
H3468 H 0.41393 0.96814 0.405 0.0
H3469 H 0.41251 0.99183 0.36906 0.0
H3470 H 0.41048 0.96307 0.27844 0.0
H3471 H 0.41164 0.93957 0.3138 0.0
H3472 H 0.43325 1.0015 0.31829 0.0
H3473 H 0.37437 0.99292 0.26154 0.0
H3474 H 0.38102 0.98207 0.29856 0.0
H3475 H 0.38696 0.97628 0.25619 0.0
C3476 C 0.41295 0.96688 0.37746 0.0
C3477 C 0.41283 0.9519 0.36241 0.0
C3478 C 0.4122 0.98043 0.3569 0.0
C3479 C 0.41113 0.97928 0.32096 0.0
C3480 C 0.41092 0.96434 0.30605 0.0
H3481 H 0.41398 0.04556 0.14819 0.0
H3482 H 0.41294 0.02184 0.18424 0.0
C3483 C 0.4117 0.95086 0.32644 0.0
C3484 C 0.41104 0.99358 0.29873 0.0
H3485 H 0.39057 0.01224 0.23502 0.0
C3486 C 0.42384 1.00391 0.30032 0.0
C3487 C 0.39885 0.9967 0.27493 0.0
C3488 C 0.38445 0.98649 0.27285 0.0
C3489 C 0.42493 0.01703 0.2785 0.0
C3490 C 0.41276 0.02014 0.25468 0.0
C3491 C 0.39995 0.00983 0.25305 0.0
C3492 C 0.41286 0.0344 0.2324 0.0
C3493 C 0.43931 0.02729 0.28063 0.0
C3494 C 0.41277 0.04934 0.24733 0.0
C3495 C 0.41333 0.06281 0.22692 0.0
C3496 C 0.41391 0.06178 0.19088 0.0
C3497 C 0.41356 0.04681 0.1758 0.0
C3498 C 0.41298 0.03324 0.1964 0.0
H3499 H 0.44929 0.02106 0.29286 0.0
H3500 H 0.44298 0.03135 0.2548 0.0
H3501 H 0.4366 0.03775 0.2964 0.0
H3502 H 0.41231 0.05059 0.27494 0.0
H3503 H 0.41341 0.07409 0.23959 0.0
H3504 H 0.79484 0.8498 0.6525 0.0
H3505 H 0.7713 0.85068 0.61598 0.0
H3506 H 0.80047 0.85176 0.52588 0.0
H3507 H 0.82382 0.85079 0.56173 0.0
H3508 H 0.76159 0.87291 0.56541 0.0
H3509 H 0.77147 0.81456 0.50694 0.0
H3510 H 0.78158 0.8209 0.54514 0.0
H3511 H 0.78796 0.82754 0.50365 0.0
C3512 C 0.79622 0.85029 0.62492 0.0
C3513 C 0.81127 0.8501 0.61016 0.0
C3514 C 0.78276 0.85077 0.60405 0.0
C3515 C 0.78408 0.85096 0.56807 0.0
C3516 C 0.79909 0.85123 0.55346 0.0
H3517 H 0.71783 0.84945 0.39528 0.0
H3518 H 0.74154 0.85108 0.43108 0.0
C3519 C 0.81247 0.85076 0.57415 0.0
C3520 C 0.7699 0.85094 0.54554 0.0
H3521 H 0.75167 0.83035 0.48164 0.0
C3522 C 0.75937 0.86356 0.54725 0.0
C3523 C 0.76703 0.8388 0.52156 0.0
C3524 C 0.77751 0.82461 0.51932 0.0
C3525 C 0.74625 0.8645 0.52536 0.0
C3526 C 0.74335 0.85234 0.50144 0.0
C3527 C 0.7539 0.83974 0.49971 0.0
C3528 C 0.72903 0.85205 0.47929 0.0
C3529 C 0.73579 0.87871 0.52758 0.0
C3530 C 0.7141 0.85193 0.49432 0.0
C3531 C 0.70062 0.85102 0.47402 0.0
C3532 C 0.70163 0.85009 0.43802 0.0
C3533 C 0.71659 0.85027 0.42285 0.0
C3534 C 0.73015 0.85115 0.44332 0.0
H3535 H 0.74204 0.88888 0.53895 0.0
H3536 H 0.7313 0.88214 0.50192 0.0
H3537 H 0.72562 0.87597 0.54427 0.0
H3538 H 0.71286 0.85223 0.52193 0.0
H3539 H 0.68935 0.85085 0.48675 0.0
H3540 H 0.91244 0.07308 0.31334 0.0
H3541 H 0.91132 0.04963 0.278 0.0
H3542 H 0.91367 0.02075 0.36867 0.0
H3543 H 0.91467 0.04439 0.4046 0.0
H3544 H 0.93332 0.02631 0.27217 0.0
H3545 H 0.87675 1.00152 0.31677 0.0
H3546 H 0.8826 0.02141 0.32591 0.0
H3547 H 0.89065 1.00543 0.35028 0.0
C3548 C 0.91261 0.06178 0.32599 0.0
C3549 C 0.91362 0.06069 0.36198 0.0
C3550 C 0.91199 0.04833 0.3056 0.0
C3551 C 0.91226 0.03336 0.32051 0.0
C3552 C 0.91314 0.03216 0.35649 0.0
H3553 H 0.91462 0.93902 0.23943 0.0
H3554 H 0.91353 0.96268 0.27406 0.0
C3555 C 0.91376 0.04568 0.37704 0.0
C3556 C 0.91221 0.01919 0.29803 0.0
H3557 H 0.89172 0.98586 0.27889 0.0
C3558 C 0.92419 0.01749 0.27357 0.0
C3559 C 0.90029 0.00767 0.2997 0.0
C3560 C 0.88675 0.0091 0.32434 0.0
C3561 C 0.92476 1.00451 0.25134 0.0
C3562 C 0.91284 0.99298 0.253 0.0
C3563 C 0.90083 0.9947 0.27742 0.0
C3564 C 0.91304 0.97865 0.23097 0.0
C3565 C 0.93841 1.00304 0.22699 0.0
C3566 C 0.91287 0.9796 0.1949 0.0
C3567 C 0.91355 0.96595 0.17475 0.0
C3568 C 0.91433 0.95107 0.19031 0.0
C3569 C 0.91412 0.95022 0.2264 0.0
C3570 C 0.91345 0.96379 0.24638 0.0
H3571 H 0.94838 0.01064 0.23469 0.0
H3572 H 0.94258 0.99074 0.22562 0.0
H3573 H 0.93462 1.00668 0.20094 0.0
H3574 H 0.91223 0.9909 0.18229 0.0
H3575 H 0.91364 0.96706 0.14709 0.0
H3576 H 0.82415 0.16389 0.98972 0.0
H3577 H 0.8006 0.1625 1.02471 0.0
H3578 H 0.77208 0.16222 0.93344 0.0
H3579 H 0.79584 0.16348 0.89783 0.0
H3580 H 0.77641 0.18363 0.0284 0.0
H3581 H 0.75409 0.1254 0.98802 0.0
H3582 H 0.77377 0.13189 0.97873 0.0
H3583 H 0.75759 0.13895 0.95356 0.0
C3584 C 0.81291 0.16343 0.97685 0.0
C3585 C 0.81196 0.16377 0.94078 0.0
C3586 C 0.7994 0.16265 0.99705 0.0
C3587 C 0.78451 0.1621 0.98189 0.0
C3588 C 0.78344 0.16234 0.94584 0.0
H3589 H 0.69 0.16172 0.06324 0.0
H3590 H 0.71366 0.16089 0.02846 0.0
C3591 C 0.79703 0.16312 0.92547 0.0
C3592 C 0.77025 0.16183 1.00419 0.0
H3593 H 0.73782 0.14022 1.02492 0.0
C3594 C 0.768 0.1741 0.02769 0.0
C3595 C 0.75925 0.14941 1.00342 0.0
C3596 C 0.7613 0.13558 0.97982 0.0
C3597 C 0.75498 0.17445 0.04988 0.0
C3598 C 0.744 0.162 0.0492 0.0
C3599 C 0.74625 0.14973 1.02568 0.0
C3600 C 0.72968 0.1619 0.07135 0.0
C3601 C 0.75289 0.1884 0.07314 0.0
C3602 C 0.73067 0.16242 0.1074 0.0
C3603 C 0.71702 0.16295 0.12762 0.0
C3604 C 0.70211 0.16288 0.11218 0.0
C3605 C 0.70123 0.16189 0.07617 0.0
C3606 C 0.7148 0.16137 0.0561 0.0
H3607 H 0.75999 0.19859 0.06454 0.0
H3608 H 0.74041 0.19201 0.07434 0.0
H3609 H 0.75675 0.18523 0.09942 0.0
H3610 H 0.74199 0.16249 0.11993 0.0
H3611 H 0.71816 0.16366 0.15523 0.0
H3612 H 0.60062 0.07414 0.73836 0.0
H3613 H 0.602 0.0507 0.77392 0.0
H3614 H 0.60061 0.0218 0.68345 0.0
H3615 H 0.59936 0.04542 0.6473 0.0
H3616 H 0.58034 0.02712 0.77944 0.0
H3617 H 0.63741 1.00298 0.73643 0.0
H3618 H 0.63136 0.02279 0.72688 0.0
H3619 H 0.62361 1.00668 0.70256 0.0
C3620 C 0.60073 0.06283 0.7258 0.0
C3621 C 0.5999 0.06173 0.68981 0.0
C3622 C 0.60151 0.04939 0.74632 0.0
C3623 C 0.60155 0.03442 0.73154 0.0
C3624 C 0.60089 0.03321 0.69554 0.0
H3625 H 0.59984 0.94009 0.81441 0.0
H3626 H 0.60095 0.96366 0.77919 0.0
C3627 C 0.60012 0.04673 0.67486 0.0
C3628 C 0.60167 0.02024 0.75416 0.0
H3629 H 0.62243 0.98716 0.77418 0.0
C3630 C 0.58959 0.01842 0.77836 0.0
C3631 C 0.61372 0.00886 0.75289 0.0
C3632 C 0.62735 0.01043 0.72853 0.0
C3633 C 0.58906 1.00545 0.80074 0.0
C3634 C 0.60112 0.99406 0.79952 0.0
C3635 C 0.61321 0.99589 0.77533 0.0
C3636 C 0.601 0.97978 0.82187 0.0
C3637 C 0.57531 1.00384 0.82478 0.0
C3638 C 0.60096 0.98085 0.85792 0.0
C3639 C 0.60027 0.96727 0.87838 0.0
C3640 C 0.5997 0.95233 0.8632 0.0
C3641 C 0.60018 0.95135 0.82715 0.0
C3642 C 0.60085 0.96486 0.80683 0.0
H3643 H 0.56526 0.01125 0.81666 0.0
H3644 H 0.5713 0.99147 0.82634 0.0
H3645 H 0.5789 0.00761 0.85084 0.0
H3646 H 0.60141 0.9922 0.87026 0.0
H3647 H 0.59998 0.96848 0.90601 0.0
H3648 H 0.71775 0.66394 0.89722 0.0
H3649 H 0.74148 0.66209 0.93292 0.0
H3650 H 0.71291 0.66188 1.02398 0.0
H3651 H 0.68938 0.66345 0.98891 0.0
H3652 H 0.75211 0.68282 0.98257 0.0
H3653 H 0.74139 0.62485 0.04215 0.0
H3654 H 0.73068 0.63159 1.00501 0.0
H3655 H 0.72523 0.63809 0.04722 0.0
C3656 C 0.71654 0.66328 0.92482 0.0
C3657 C 0.7016 0.66377 0.94008 0.0
C3658 C 0.73011 0.66228 0.94523 0.0
C3659 C 0.72902 0.66156 0.98124 0.0
C3660 C 0.71412 0.66201 0.99635 0.0
H3661 H 0.79494 0.66413 0.15405 0.0
H3662 H 0.77137 0.66337 0.11763 0.0
C3663 C 0.70063 0.66304 0.97611 0.0
C3664 C 0.74336 0.66113 1.00331 0.0
H3665 H 0.76121 0.64065 0.06807 0.0
C3666 C 0.75416 0.67351 1.00101 0.0
C3667 C 0.74603 0.64907 0.02769 0.0
C3668 C 0.7353 0.63507 0.03051 0.0
C3669 C 0.76731 0.67433 1.02278 0.0
C3670 C 0.76994 0.66232 0.04726 0.0
C3671 C 0.75917 0.64991 0.04953 0.0
C3672 C 0.78412 0.66218 0.06976 0.0
C3673 C 0.77811 0.68828 1.01989 0.0
C3674 C 0.7991 0.66136 0.05515 0.0
C3675 C 0.8125 0.66175 0.07578 0.0
C3676 C 0.81133 0.66289 0.11173 0.0
C3677 C 0.7963 0.66325 0.12652 0.0
C3678 C 0.78282 0.66284 0.10571 0.0
H3679 H 0.77232 0.69833 1.00689 0.0
H3680 H 0.7822 0.69214 0.04555 0.0
H3681 H 0.78853 0.68497 1.00453 0.0
H3682 H 0.80045 0.66047 0.02761 0.0
H3683 H 0.82384 0.66129 0.06336 0.0
H3684 H 0.60043 0.43984 0.23938 0.0
H3685 H 0.60141 0.46345 0.27422 0.0
H3686 H 0.60069 0.4919 0.18277 0.0
H3687 H 0.59936 0.46811 0.14738 0.0
H3688 H 0.62249 0.48712 0.27844 0.0
H3689 H 0.56484 0.51064 0.23722 0.0
H3690 H 0.57104 0.49094 0.22742 0.0
H3691 H 0.5783 0.5072 0.20271 0.0
C3692 C 0.60047 0.45109 0.22646 0.0
C3693 C 0.5997 0.45201 0.19042 0.0
C3694 C 0.60107 0.46463 0.24657 0.0
C3695 C 0.60087 0.47953 0.23134 0.0
C3696 C 0.60052 0.48056 0.19528 0.0
H3697 H 0.60056 0.57385 0.31392 0.0
H3698 H 0.60177 0.55038 0.27866 0.0
C3699 C 0.59989 0.46694 0.17501 0.0
C3700 C 0.60097 0.49382 0.25355 0.0
H3701 H 0.57998 0.52666 0.27393 0.0
C3702 C 0.61318 0.49575 0.27746 0.0
C3703 C 0.58879 0.50508 0.25256 0.0
C3704 C 0.57491 0.50335 0.22885 0.0
C3705 C 0.61367 0.5087 0.29985 0.0
C3706 C 0.6015 0.51996 0.29878 0.0
C3707 C 0.58931 0.51804 0.27486 0.0
C3708 C 0.60141 0.53415 0.32125 0.0
C3709 C 0.6274 0.51038 0.32393 0.0
C3710 C 0.60084 0.53296 0.35727 0.0
C3711 C 0.60016 0.5465 0.3778 0.0
C3712 C 0.59995 0.56149 0.36266 0.0
C3713 C 0.60067 0.56255 0.32664 0.0
C3714 C 0.60135 0.5491 0.30628 0.0
H3715 H 0.63745 0.50295 0.31604 0.0
H3716 H 0.63137 0.52276 0.32522 0.0
H3717 H 0.62378 0.50671 0.35006 0.0
H3718 H 0.6006 0.52156 0.3695 0.0
H3719 H 0.59949 0.54522 0.40538 0.0
H3720 H 0.71855 0.34882 0.65436 0.0
H3721 H 0.74215 0.35028 0.61832 0.0
H3722 H 0.71317 0.35284 0.52792 0.0
H3723 H 0.68976 0.35168 0.56341 0.0
H3724 H 0.75179 0.32992 0.56755 0.0
H3725 H 0.74299 0.3889 0.51123 0.0
H3726 H 0.73212 0.3821 0.54804 0.0
H3727 H 0.7264 0.37624 0.50554 0.0
C3728 C 0.71722 0.34991 0.62685 0.0
C3729 C 0.7022 0.35021 0.61191 0.0
C3730 C 0.73072 0.3507 0.60623 0.0
C3731 C 0.72949 0.35195 0.57032 0.0
C3732 C 0.71451 0.35228 0.5555 0.0
H3733 H 0.79619 0.34918 0.39853 0.0
H3734 H 0.77234 0.35023 0.434 0.0
C3735 C 0.70108 0.35149 0.57597 0.0
C3736 C 0.74376 0.35212 0.54807 0.0
H3737 H 0.7624 0.37286 0.48478 0.0
C3738 C 0.75416 0.33938 0.54968 0.0
C3739 C 0.74685 0.36439 0.52441 0.0
C3740 C 0.73659 0.37875 0.52235 0.0
C3741 C 0.76733 0.33844 0.52805 0.0
C3742 C 0.7704 0.35068 0.50439 0.0
C3743 C 0.76002 0.36342 0.5027 0.0
C3744 C 0.78473 0.35074 0.48242 0.0
C3745 C 0.7777 0.32415 0.53026 0.0
C3746 C 0.79961 0.35111 0.49768 0.0
C3747 C 0.81316 0.35057 0.4776 0.0
C3748 C 0.81226 0.34971 0.44157 0.0
C3749 C 0.79734 0.34983 0.42614 0.0
C3750 C 0.7837 0.3504 0.4464 0.0
H3751 H 0.77157 0.31411 0.54254 0.0
H3752 H 0.78175 0.32051 0.50443 0.0
H3753 H 0.78817 0.32696 0.54598 0.0
H3754 H 0.80076 0.35172 0.52531 0.0
H3755 H 0.8244 0.35065 0.49052 0.0
H3756 H 0.91229 0.43998 0.81548 0.0
H3757 H 0.91125 0.4638 0.78116 0.0
H3758 H 0.91235 0.49167 0.8732 0.0
H3759 H 0.91377 0.46767 0.90805 0.0
H3760 H 0.89033 0.4875 0.77754 0.0
H3761 H 0.94807 0.51071 0.8189 0.0
H3762 H 0.94183 0.49098 0.82845 0.0
H3763 H 0.93464 0.50714 0.85343 0.0
C3764 C 0.91231 0.45114 0.82863 0.0
C3765 C 0.91323 0.45184 0.86468 0.0
C3766 C 0.91168 0.46481 0.80883 0.0
C3767 C 0.91198 0.47961 0.82437 0.0
C3768 C 0.91245 0.48041 0.86045 0.0
H3769 H 0.91225 0.57433 0.74265 0.0
H3770 H 0.91101 0.55077 0.77787 0.0
C3771 C 0.91312 0.46667 0.88041 0.0
C3772 C 0.91188 0.49403 0.80247 0.0
H3773 H 0.93293 0.52695 0.78253 0.0
C3774 C 0.89966 0.49611 0.77864 0.0
C3775 C 0.92409 0.50527 0.80361 0.0
C3776 C 0.93799 0.5034 0.82721 0.0
C3777 C 0.8992 0.50916 0.75643 0.0
C3778 C 0.91139 0.52039 0.75764 0.0
C3779 C 0.92358 0.51835 0.78151 0.0
C3780 C 0.91153 0.53464 0.73524 0.0
C3781 C 0.88547 0.51098 0.73237 0.0
C3782 C 0.91222 0.53352 0.69925 0.0
C3783 C 0.91293 0.54711 0.67876 0.0
C3784 C 0.91304 0.56207 0.69391 0.0
C3785 C 0.91221 0.56306 0.72993 0.0
C3786 C 0.91152 0.54956 0.75025 0.0
H3787 H 0.87541 0.50351 0.74013 0.0
H3788 H 0.88152 0.52337 0.73128 0.0
H3789 H 0.88909 0.50745 0.70618 0.0
H3790 H 0.91252 0.52215 0.687 0.0
H3791 H 0.91368 0.54588 0.65118 0.0
H3792 H 0.29544 0.34825 0.15627 0.0
H3793 H 0.27171 0.34903 0.12032 0.0
H3794 H 0.30041 0.35037 0.02952 0.0
H3795 H 0.32393 0.34952 0.06476 0.0
H3796 H 0.26174 0.37137 0.06979 0.0
H3797 H 0.27145 0.31299 1.01137 0.0
H3798 H 0.28166 0.31935 0.04944 0.0
H3799 H 0.28796 0.32594 1.00785 0.0
C3800 C 0.29667 0.34877 0.12866 0.0
C3801 C 0.31164 0.34869 0.1135 0.0
C3802 C 0.2831 0.34919 0.10812 0.0
C3803 C 0.28425 0.34944 0.07211 0.0
C3804 C 0.29917 0.34981 0.05713 0.0
H3805 H 0.21835 0.34838 0.89917 0.0
H3806 H 0.24193 0.34978 0.93541 0.0
C3807 C 0.31265 0.34939 0.07748 0.0
C3808 C 0.26998 0.34938 0.04988 0.0
H3809 H 0.25173 0.32886 0.98595 0.0
C3810 C 0.25949 0.36202 0.05164 0.0
C3811 C 0.26708 0.33725 1.02592 0.0
C3812 C 0.27754 0.32303 1.02364 0.0
C3813 C 0.24638 0.36301 0.02973 0.0
C3814 C 0.24347 0.35087 1.00576 0.0
C3815 C 0.25397 0.33822 1.00405 0.0
C3816 C 0.22924 0.35069 0.9834 0.0
C3817 C 0.23595 0.37724 0.03196 0.0
C3818 C 0.21426 0.3506 0.99816 0.0
C3819 C 0.20084 0.34983 0.9776 0.0
C3820 C 0.20199 0.349 0.94161 0.0
C3821 C 0.21701 0.34912 0.92672 0.0
C3822 C 0.2305 0.34987 0.94744 0.0
H3823 H 0.24219 0.38737 0.04354 0.0
H3824 H 0.23156 0.38074 1.00626 0.0
H3825 H 0.22572 0.37449 0.04843 0.0
H3826 H 0.21291 0.35084 1.02576 0.0
H3827 H 0.18952 0.3497 0.99012 0.0
H3828 H 0.41444 0.54559 0.90452 0.0
H3829 H 0.4136 0.52181 0.86886 0.0
H3830 H 0.41124 0.5504 0.77782 0.0
H3831 H 0.41211 0.57398 0.81278 0.0
H3832 H 0.39072 0.51179 0.81862 0.0
H3833 H 0.44897 0.52162 0.75929 0.0
H3834 H 0.44276 0.53167 0.79764 0.0
H3835 H 0.43592 0.53808 0.75632 0.0
C3836 C 0.41367 0.54679 0.87692 0.0
C3837 C 0.41346 0.56175 0.86162 0.0
C3838 C 0.41321 0.53319 0.85655 0.0
C3839 C 0.41266 0.5343 0.82055 0.0
C3840 C 0.41202 0.5492 0.80542 0.0
H3841 H 0.41441 0.46764 0.64918 0.0
H3842 H 0.41281 0.49142 0.6846 0.0
C3843 C 0.41245 0.56271 0.82561 0.0
C3844 C 0.41269 0.52001 0.79848 0.0
H3845 H 0.43323 0.50161 0.73486 0.0
C3846 C 0.40006 0.5095 0.80048 0.0
C3847 C 0.4248 0.51708 0.7745 0.0
C3848 C 0.43896 0.52761 0.7719 0.0
C3849 C 0.39908 0.49633 0.77881 0.0
C3850 C 0.41124 0.49336 0.75491 0.0
C3851 C 0.42386 0.50389 0.75293 0.0
C3852 C 0.41148 0.479 0.73297 0.0
C3853 C 0.38483 0.48593 0.78124 0.0
C3854 C 0.41139 0.46409 0.7482 0.0
C3855 C 0.41225 0.45056 0.72811 0.0
C3856 C 0.41338 0.45151 0.69212 0.0
C3857 C 0.41343 0.46645 0.67675 0.0
C3858 C 0.41257 0.48005 0.69701 0.0
H3859 H 0.37466 0.49228 0.79232 0.0
H3860 H 0.38143 0.48132 0.75569 0.0
H3861 H 0.38748 0.47585 0.79828 0.0
H3862 H 0.41096 0.46289 0.77583 0.0
H3863 H 0.41225 0.43931 0.74101 0.0
H3864 H 0.32443 0.66318 0.4893 0.0
H3865 H 0.30096 0.662 0.52472 0.0
H3866 H 0.27211 0.66316 0.434 0.0
H3867 H 0.29572 0.66421 0.39802 0.0
H3868 H 0.27718 0.68362 0.52966 0.0
H3869 H 0.25358 0.62623 0.48723 0.0
H3870 H 0.27336 0.63241 0.47795 0.0
H3871 H 0.25727 0.63992 0.45315 0.0
C3872 C 0.31312 0.66307 0.47667 0.0
C3873 C 0.31202 0.66375 0.44065 0.0
C3874 C 0.29967 0.66242 0.4971 0.0
C3875 C 0.28471 0.66233 0.48218 0.0
C3876 C 0.28351 0.66291 0.44619 0.0
H3877 H 0.1901 0.66357 0.56197 0.0
H3878 H 0.21391 0.66266 0.52771 0.0
C3879 C 0.29702 0.66357 0.4256 0.0
C3880 C 0.27051 0.66218 0.50462 0.0
H3881 H 0.23749 0.64126 0.52417 0.0
C3882 C 0.26853 0.67432 0.52855 0.0
C3883 C 0.25922 0.65004 0.5033 0.0
C3884 C 0.26097 0.63632 0.47927 0.0
C3885 C 0.25546 0.67485 0.55056 0.0
C3886 C 0.24415 0.66272 0.54923 0.0
C3887 C 0.24616 0.65054 0.52538 0.0
C3888 C 0.22973 0.66285 0.57104 0.0
C3889 C 0.25367 0.68867 0.57431 0.0
C3890 C 0.23055 0.66301 0.60711 0.0
C3891 C 0.21683 0.66359 0.62703 0.0
C3892 C 0.20199 0.66394 0.61124 0.0
C3893 C 0.20127 0.6634 0.57517 0.0
C3894 C 0.21493 0.66284 0.5554 0.0
H3895 H 0.26111 0.69872 0.56627 0.0
H3896 H 0.24129 0.69264 0.57535 0.0
H3897 H 0.25729 0.68518 0.60055 0.0
H3898 H 0.24181 0.66269 0.6199 0.0
H3899 H 0.21784 0.66394 0.6547 0.0
H3900 H 0.09975 0.46913 0.40467 0.0
H3901 H 0.10049 0.49262 0.36795 0.0
H3902 H 0.10046 0.46335 0.27805 0.0
H3903 H 0.09965 0.44005 0.3141 0.0
H3904 H 0.12251 0.5019 0.31639 0.0
H3905 H 0.06345 0.49288 0.26035 0.0
H3906 H 0.06997 0.48276 0.29846 0.0
H3907 H 0.07614 0.47619 0.25684 0.0
C3908 C 0.09995 0.46771 0.37709 0.0
C3909 C 0.09953 0.45265 0.36246 0.0
C3910 C 0.10036 0.48115 0.35611 0.0
C3911 C 0.10022 0.47979 0.32014 0.0
C3912 C 0.10021 0.46477 0.30563 0.0
H3913 H 0.09809 0.54611 0.14726 0.0
H3914 H 0.09958 0.52234 0.18296 0.0
C3915 C 0.09982 0.45141 0.32644 0.0
C3916 C 0.1002 0.49395 0.29753 0.0
H3917 H 0.07926 0.51248 0.23445 0.0
C3918 C 0.11301 0.50427 0.29863 0.0
C3919 C 0.08787 0.497 0.27406 0.0
C3920 C 0.0735 0.48672 0.27245 0.0
C3921 C 0.11395 0.51736 0.27663 0.0
C3922 C 0.10158 0.52045 0.25326 0.0
C3923 C 0.08879 0.5101 0.25211 0.0
C3924 C 0.1013 0.53479 0.23113 0.0
C3925 C 0.12836 0.52758 0.27817 0.0
C3926 C 0.10163 0.5497 0.24617 0.0
C3927 C 0.10081 0.56322 0.22592 0.0
C3928 C 0.09951 0.56226 0.18997 0.0
C3929 C 0.0992 0.54731 0.17479 0.0
C3930 C 0.1 0.53371 0.19521 0.0
H3931 H 0.13854 0.52114 0.28903 0.0
H3932 H 0.13157 0.53203 0.25235 0.0
H3933 H 0.12599 0.53777 0.29499 0.0
H3934 H 0.10223 0.55092 0.27377 0.0
H3935 H 0.10102 0.57448 0.23867 0.0
loop_
_geom_bond_atom_site_label_1
_geom_bond_atom_site_label_2
_geom_bond_distance
_geom_bond_site_symmetry_2
_ccdc_geom_bond_type
C0 C1 1.351 . S
C0 N3 1.368 . S
C0 H5 0.931 . S
C1 C0 1.351 . S
C1 N2 1.373 . S
C1 H29 0.930 . S
N2 C1 1.373 . S
N2 C4 1.340 . S
N3 C0 1.368 . S
N3 C4 1.321 . S
N3 Co6 2.135 . S
C4 N2 1.340 . S
C4 N3 1.321 . S
C4 H28 0.930 . S
H5 C0 0.931 . S
Co6 N3 2.135 . S
Co6 N9 2.121 . S
Co6 O14 2.055 . S
Co6 O17 2.039 . S
Co6 N20 2.140 . S
C7 O8 1.227 . S
C7 O17 1.265 . S
O8 C7 1.227 . S
N9 Co6 2.121 . S
N9 C11 1.375 . S
N9 C12 1.313 . S
C10 C11 1.338 . S
C10 N13 1.377 . S
C10 H30 0.930 . S
C11 N9 1.375 . S
C11 C10 1.338 . S
C11 H15 0.931 . S
C12 N9 1.313 . S
C12 N13 1.344 . S
C12 H16 0.930 . S
N13 C10 1.377 . S
N13 C12 1.344 . S
O14 Co6 2.055 . S
O14 C18 1.253 . S
H15 C11 0.931 . S
H16 C12 0.930 . S
O17 Co6 2.039 . S
O17 C7 1.265 . S
C18 O14 1.253 . S
C18 O19 1.227 . S
O19 C18 1.227 . S
N20 Co6 2.140 . S
N20 C23 1.346 . S
N20 C24 1.345 . S
C21 C22 1.387 . S
C21 C25 1.391 . S
C22 C21 1.387 . S
C22 C23 1.369 . S
C22 H31 0.929 . S
C23 N20 1.346 . S
C23 C22 1.369 . S
C23 H26 0.928 . S
C24 N20 1.345 . S
C24 C25 1.371 . S
C24 H27 0.931 . S
C25 C21 1.391 . S
C25 C24 1.371 . S
C25 H32 0.930 . S
H26 C23 0.928 . S
H27 C24 0.931 . S
H28 C4 0.930 . S
H29 C1 0.930 . S
H30 C10 0.930 . S
H31 C22 0.929 . S
H32 C25 0.930 . S
C33 C34 1.351 . S
C33 N36 1.368 . S
C33 H38 0.931 . S
C34 C33 1.351 . S
C34 N35 1.373 . S
C34 H62 0.930 . S
N35 C34 1.373 . S
N35 C37 1.340 . S
N36 C33 1.368 . S
N36 C37 1.321 . S
N36 Co39 2.135 . S
C37 N35 1.340 . S
C37 N36 1.321 . S
C37 H61 0.930 . S
H38 C33 0.931 . S
Co39 N36 2.135 . S
Co39 N42 2.121 . S
Co39 O47 2.055 . S
Co39 O50 2.039 . S
Co39 N53 2.140 . S
C40 O41 1.227 . S
C40 O50 1.265 . S
O41 C40 1.227 . S
N42 Co39 2.121 . S
N42 C44 1.375 . S
N42 C45 1.313 . S
C43 C44 1.338 . S
C43 N46 1.377 . S
C43 H63 0.930 . S
C44 N42 1.375 . S
C44 C43 1.338 . S
C44 H48 0.931 . S
C45 N42 1.313 . S
C45 N46 1.344 . S
C45 H49 0.930 . S
N46 C43 1.377 . S
N46 C45 1.344 . S
O47 Co39 2.055 . S
O47 C51 1.253 . S
H48 C44 0.931 . S
H49 C45 0.930 . S
O50 Co39 2.039 . S
O50 C40 1.265 . S
C51 O47 1.253 . S
C51 O52 1.227 . S
O52 C51 1.227 . S
N53 Co39 2.140 . S
N53 C56 1.346 . S
N53 C57 1.345 . S
C54 C55 1.387 . S
C54 C58 1.391 . S
C55 C54 1.387 . S
C55 C56 1.369 . S
C55 H64 0.929 . S
C56 N53 1.346 . S
C56 C55 1.369 . S
C56 H59 0.928 . S
C57 N53 1.345 . S
C57 C58 1.371 . S
C57 H60 0.931 . S
C58 C54 1.391 . S
C58 C57 1.371 . S
C58 H65 0.930 . S
H59 C56 0.928 . S
H60 C57 0.931 . S
H61 C37 0.930 . S
H62 C34 0.930 . S
H63 C43 0.930 . S
H64 C55 0.929 . S
H65 C58 0.930 . S
C66 C67 1.351 . S
C66 N69 1.368 . S
C66 H71 0.931 . S
C67 C66 1.351 . S
C67 N68 1.373 . S
C67 H95 0.930 . S
N68 C67 1.373 . S
N68 C70 1.340 . S
N69 C66 1.368 . S
N69 C70 1.321 . S
N69 Co72 2.135 . S
C70 N68 1.340 . S
C70 N69 1.321 . S
C70 H94 0.930 . S
H71 C66 0.931 . S
Co72 N69 2.135 . S
Co72 N75 2.121 . S
Co72 O80 2.055 . S
Co72 O83 2.039 . S
Co72 N86 2.140 . S
C73 O74 1.227 . S
C73 O83 1.265 . S
O74 C73 1.227 . S
N75 Co72 2.121 . S
N75 C77 1.375 . S
N75 C78 1.313 . S
C76 C77 1.338 . S
C76 N79 1.377 . S
C76 H96 0.930 . S
C77 N75 1.375 . S
C77 C76 1.338 . S
C77 H81 0.931 . S
C78 N75 1.313 . S
C78 N79 1.344 . S
C78 H82 0.930 . S
N79 C76 1.377 . S
N79 C78 1.344 . S
O80 Co72 2.055 . S
O80 C84 1.253 . S
H81 C77 0.931 . S
H82 C78 0.930 . S
O83 Co72 2.039 . S
O83 C73 1.265 . S
C84 O80 1.253 . S
C84 O85 1.227 . S
O85 C84 1.227 . S
N86 Co72 2.140 . S
N86 C89 1.346 . S
N86 C90 1.345 . S
C87 C88 1.387 . S
C87 C91 1.391 . S
C88 C87 1.387 . S
C88 C89 1.369 . S
C88 H97 0.929 . S
C89 N86 1.346 . S
C89 C88 1.369 . S
C89 H92 0.928 . S
C90 N86 1.345 . S
C90 C91 1.371 . S
C90 H93 0.931 . S
C91 C87 1.391 . S
C91 C90 1.371 . S
C91 H98 0.930 . S
H92 C89 0.928 . S
H93 C90 0.931 . S
H94 C70 0.930 . S
H95 C67 0.930 . S
H96 C76 0.930 . S
H97 C88 0.929 . S
H98 C91 0.930 . S
C99 C100 1.351 . S
C99 N102 1.368 . S
C99 H104 0.931 . S
C100 C99 1.351 . S
C100 N101 1.373 . S
C100 H128 0.930 1_554 S
N101 C100 1.373 . S
N101 C103 1.340 . S
N102 C99 1.368 . S
N102 C103 1.321 . S
N102 Co105 2.135 . S
C103 N101 1.340 . S
C103 N102 1.321 . S
C103 H127 0.930 . S
H104 C99 0.931 . S
Co105 N102 2.135 . S
Co105 N108 2.121 . S
Co105 O113 2.055 . S
Co105 O116 2.039 . S
Co105 N119 2.140 . S
C106 O107 1.227 . S
C106 O116 1.265 . S
O107 C106 1.227 . S
N108 Co105 2.121 . S
N108 C110 1.375 . S
N108 C111 1.313 . S
C109 C110 1.338 . S
C109 N112 1.377 . S
C109 H129 0.930 . S
C110 N108 1.375 . S
C110 C109 1.338 . S
C110 H114 0.931 . S
C111 N108 1.313 . S
C111 N112 1.344 . S
C111 H115 0.930 . S
N112 C109 1.377 . S
N112 C111 1.344 . S
O113 Co105 2.055 . S
O113 C117 1.253 . S
H114 C110 0.931 . S
H115 C111 0.930 . S
O116 Co105 2.039 . S
O116 C106 1.265 . S
C117 O113 1.253 . S
C117 O118 1.227 . S
O118 C117 1.227 . S
N119 Co105 2.140 . S
N119 C122 1.346 . S
N119 C123 1.345 . S
C120 C121 1.387 . S
C120 C124 1.391 . S
C121 C120 1.387 . S
C121 C122 1.369 . S
C121 H130 0.929 . S
C122 N119 1.346 . S
C122 C121 1.369 . S
C122 H125 0.928 . S
C123 N119 1.345 . S
C123 C124 1.371 . S
C123 H126 0.931 . S
C124 C120 1.391 . S
C124 C123 1.371 . S
C124 H131 0.930 . S
H125 C122 0.928 . S
H126 C123 0.931 . S
H127 C103 0.930 . S
H128 C100 0.930 1_556 S
H129 C109 0.930 . S
H130 C121 0.929 . S
H131 C124 0.930 . S
C132 C133 1.351 . S
C132 N135 1.368 . S
C132 H137 0.931 . S
C133 C132 1.351 . S
C133 N134 1.373 . S
C133 H161 0.930 . S
N134 C133 1.373 . S
N134 C136 1.340 . S
N135 C132 1.368 . S
N135 C136 1.321 . S
N135 Co138 2.135 . S
C136 N134 1.340 . S
C136 N135 1.321 . S
C136 H160 0.930 . S
H137 C132 0.931 . S
Co138 N135 2.135 . S
Co138 N141 2.121 . S
Co138 O146 2.055 . S
Co138 O149 2.039 . S
Co138 N152 2.140 . S
C139 O140 1.227 . S
C139 O149 1.265 . S
O140 C139 1.227 . S
N141 Co138 2.121 . S
N141 C143 1.375 . S
N141 C144 1.313 . S
C142 C143 1.338 . S
C142 N145 1.377 . S
C142 H162 0.930 . S
C143 N141 1.375 . S
C143 C142 1.338 . S
C143 H147 0.931 . S
C144 N141 1.313 . S
C144 N145 1.344 . S
C144 H148 0.930 . S
N145 C142 1.377 . S
N145 C144 1.344 . S
O146 Co138 2.055 . S
O146 C150 1.253 . S
H147 C143 0.931 . S
H148 C144 0.930 . S
O149 Co138 2.039 . S
O149 C139 1.265 . S
C150 O146 1.253 . S
C150 O151 1.227 . S
O151 C150 1.227 . S
N152 Co138 2.140 . S
N152 C155 1.346 . S
N152 C156 1.345 . S
C153 C154 1.387 . S
C153 C157 1.391 . S
C154 C153 1.387 . S
C154 C155 1.369 . S
C154 H163 0.929 . S
C155 N152 1.346 . S
C155 C154 1.369 . S
C155 H158 0.928 . S
C156 N152 1.345 . S
C156 C157 1.371 . S
C156 H159 0.931 . S
C157 C153 1.391 . S
C157 C156 1.371 . S
C157 H164 0.930 . S
H158 C155 0.928 . S
H159 C156 0.931 . S
H160 C136 0.930 . S
H161 C133 0.930 . S
H162 C142 0.930 . S
H163 C154 0.929 . S
H164 C157 0.930 . S
C165 C166 1.351 . S
C165 N168 1.368 . S
C165 H170 0.931 . S
C166 C165 1.351 . S
C166 N167 1.373 . S
C166 H194 0.930 . S
N167 C166 1.373 . S
N167 C169 1.340 . S
N168 C165 1.368 . S
N168 C169 1.321 . S
N168 Co171 2.135 . S
C169 N167 1.340 . S
C169 N168 1.321 . S
C169 H193 0.930 . S
H170 C165 0.931 . S
Co171 N168 2.135 . S
Co171 N174 2.121 . S
Co171 O179 2.055 . S
Co171 O182 2.039 . S
Co171 N185 2.140 . S
C172 O173 1.227 . S
C172 O182 1.265 . S
O173 C172 1.227 . S
N174 Co171 2.121 . S
N174 C176 1.375 . S
N174 C177 1.313 . S
C175 C176 1.338 . S
C175 N178 1.377 . S
C175 H195 0.930 . S
C176 N174 1.375 . S
C176 C175 1.338 . S
C176 H180 0.931 . S
C177 N174 1.313 . S
C177 N178 1.344 . S
C177 H181 0.930 . S
N178 C175 1.377 . S
N178 C177 1.344 . S
O179 Co171 2.055 . S
O179 C183 1.253 . S
H180 C176 0.931 . S
H181 C177 0.930 . S
O182 Co171 2.039 . S
O182 C172 1.265 . S
C183 O179 1.253 . S
C183 O184 1.227 . S
O184 C183 1.227 . S
N185 Co171 2.140 . S
N185 C188 1.346 . S
N185 C189 1.345 . S
C186 C187 1.387 . S
C186 C190 1.391 . S
C187 C186 1.387 . S
C187 C188 1.369 . S
C187 H196 0.929 . S
C188 N185 1.346 . S
C188 C187 1.369 . S
C188 H191 0.928 . S
C189 N185 1.345 . S
C189 C190 1.371 . S
C189 H192 0.931 . S
C190 C186 1.391 . S
C190 C189 1.371 . S
C190 H197 0.930 . S
H191 C188 0.928 . S
H192 C189 0.931 . S
H193 C169 0.930 . S
H194 C166 0.930 . S
H195 C175 0.930 . S
H196 C187 0.929 . S
H197 C190 0.930 . S
C198 C199 1.351 . S
C198 N201 1.368 . S
C198 H203 0.931 . S
C199 C198 1.351 . S
C199 N200 1.373 . S
C199 H227 0.930 . S
N200 C199 1.373 . S
N200 C202 1.340 . S
N201 C198 1.368 . S
N201 C202 1.321 . S
N201 Co204 2.135 . S
C202 N200 1.340 . S
C202 N201 1.321 . S
C202 H226 0.930 . S
H203 C198 0.931 . S
Co204 N201 2.135 . S
Co204 N207 2.121 . S
Co204 O212 2.055 . S
Co204 O215 2.039 . S
Co204 N218 2.140 . S
C205 O206 1.227 . S
C205 O215 1.265 . S
O206 C205 1.227 . S
N207 Co204 2.121 . S
N207 C209 1.375 . S
N207 C210 1.313 . S
C208 C209 1.338 . S
C208 N211 1.377 . S
C208 H228 0.930 . S
C209 N207 1.375 . S
C209 C208 1.338 . S
C209 H213 0.931 . S
C210 N207 1.313 . S
C210 N211 1.344 . S
C210 H214 0.930 . S
N211 C208 1.377 . S
N211 C210 1.344 . S
O212 Co204 2.055 . S
O212 C216 1.253 . S
H213 C209 0.931 . S
H214 C210 0.930 . S
O215 Co204 2.039 . S
O215 C205 1.265 . S
C216 O212 1.253 . S
C216 O217 1.227 . S
O217 C216 1.227 . S
N218 Co204 2.140 . S
N218 C221 1.346 . S
N218 C222 1.345 . S
C219 C220 1.387 . S
C219 C223 1.391 . S
C220 C219 1.387 . S
C220 C221 1.369 . S
C220 H229 0.929 . S
C221 N218 1.346 . S
C221 C220 1.369 . S
C221 H224 0.928 . S
C222 N218 1.345 . S
C222 C223 1.371 . S
C222 H225 0.931 . S
C223 C219 1.391 . S
C223 C222 1.371 . S
C223 H230 0.930 . S
H224 C221 0.928 . S
H225 C222 0.931 . S
H226 C202 0.930 . S
H227 C199 0.930 . S
H228 C208 0.930 . S
H229 C220 0.929 . S
H230 C223 0.930 . S
C231 C232 1.351 . S
C231 N234 1.368 . S
C231 H236 0.931 . S
C232 C231 1.351 . S
C232 N233 1.373 . S
C232 H260 0.930 1_556 S
N233 C232 1.373 . S
N233 C235 1.340 . S
N234 C231 1.368 . S
N234 C235 1.321 . S
N234 Co237 2.135 . S
C235 N233 1.340 . S
C235 N234 1.321 . S
C235 H259 0.930 . S
H236 C231 0.931 . S
Co237 N234 2.135 . S
Co237 N240 2.121 . S
Co237 O245 2.055 . S
Co237 O248 2.039 . S
Co237 N251 2.140 . S
C238 O239 1.227 . S
C238 O248 1.265 . S
O239 C238 1.227 . S
N240 Co237 2.121 . S
N240 C242 1.375 . S
N240 C243 1.313 . S
C241 C242 1.338 . S
C241 N244 1.377 . S
C241 H261 0.930 . S
C242 N240 1.375 . S
C242 C241 1.338 . S
C242 H246 0.931 . S
C243 N240 1.313 . S
C243 N244 1.344 . S
C243 H247 0.930 . S
N244 C241 1.377 . S
N244 C243 1.344 . S
O245 Co237 2.055 . S
O245 C249 1.253 . S
H246 C242 0.931 . S
H247 C243 0.930 . S
O248 Co237 2.039 . S
O248 C238 1.265 . S
C249 O245 1.253 . S
C249 O250 1.227 . S
O250 C249 1.227 . S
N251 Co237 2.140 . S
N251 C254 1.346 . S
N251 C255 1.345 . S
C252 C253 1.387 . S
C252 C256 1.391 . S
C253 C252 1.387 . S
C253 C254 1.369 . S
C253 H262 0.929 . S
C254 N251 1.346 . S
C254 C253 1.369 . S
C254 H257 0.928 . S
C255 N251 1.345 . S
C255 C256 1.371 . S
C255 H258 0.931 . S
C256 C252 1.391 . S
C256 C255 1.371 . S
C256 H263 0.930 . S
H257 C254 0.928 . S
H258 C255 0.931 . S
H259 C235 0.930 . S
H260 C232 0.930 1_554 S
H261 C241 0.930 . S
H262 C253 0.929 . S
H263 C256 0.930 . S
C264 C265 1.351 . S
C264 N267 1.368 . S
C264 H269 0.931 . S
C265 C264 1.351 . S
C265 N266 1.373 . S
C265 H293 0.930 . S
N266 C265 1.373 . S
N266 C268 1.340 . S
N267 C264 1.368 . S
N267 C268 1.321 . S
N267 Co270 2.135 . S
C268 N266 1.340 . S
C268 N267 1.321 . S
C268 H292 0.930 . S
H269 C264 0.931 . S
Co270 N267 2.135 . S
Co270 N273 2.121 . S
Co270 O278 2.055 . S
Co270 O281 2.039 . S
Co270 N284 2.140 . S
C271 O272 1.227 . S
C271 O281 1.265 . S
O272 C271 1.227 . S
N273 Co270 2.121 . S
N273 C275 1.375 . S
N273 C276 1.313 . S
C274 C275 1.338 . S
C274 N277 1.377 . S
C274 H294 0.930 . S
C275 N273 1.375 . S
C275 C274 1.338 . S
C275 H279 0.931 . S
C276 N273 1.313 . S
C276 N277 1.344 . S
C276 H280 0.930 . S
N277 C274 1.377 . S
N277 C276 1.344 . S
O278 Co270 2.055 . S
O278 C282 1.253 . S
H279 C275 0.931 . S
H280 C276 0.930 . S
O281 Co270 2.039 . S
O281 C271 1.265 . S
C282 O278 1.253 . S
C282 O283 1.227 . S
O283 C282 1.227 . S
N284 Co270 2.140 . S
N284 C287 1.346 . S
N284 C288 1.345 . S
C285 C286 1.387 . S
C285 C289 1.391 . S
C286 C285 1.387 . S
C286 C287 1.369 . S
C286 H295 0.929 . S
C287 N284 1.346 . S
C287 C286 1.369 . S
C287 H290 0.928 . S
C288 N284 1.345 . S
C288 C289 1.371 . S
C288 H291 0.931 . S
C289 C285 1.391 . S
C289 C288 1.371 . S
C289 H296 0.930 . S
H290 C287 0.928 . S
H291 C288 0.931 . S
H292 C268 0.930 . S
H293 C265 0.930 . S
H294 C274 0.930 . S
H295 C286 0.929 . S
H296 C289 0.930 . S
C297 C298 1.351 . S
C297 N300 1.368 . S
C297 H302 0.931 . S
C298 C297 1.351 . S
C298 N299 1.373 . S
C298 H326 0.930 . S
N299 C298 1.373 . S
N299 C301 1.340 . S
N300 C297 1.368 . S
N300 C301 1.321 . S
N300 Co303 2.135 . S
C301 N299 1.340 . S
C301 N300 1.321 . S
C301 H325 0.930 . S
H302 C297 0.931 . S
Co303 N300 2.135 . S
Co303 N306 2.121 . S
Co303 O311 2.055 . S
Co303 O314 2.039 . S
Co303 N317 2.140 . S
C304 O305 1.227 . S
C304 O314 1.265 . S
O305 C304 1.227 . S
N306 Co303 2.121 . S
N306 C308 1.375 . S
N306 C309 1.313 . S
C307 C308 1.338 . S
C307 N310 1.377 . S
C307 H327 0.930 . S
C308 N306 1.375 . S
C308 C307 1.338 . S
C308 H312 0.931 . S
C309 N306 1.313 . S
C309 N310 1.344 . S
C309 H313 0.930 . S
N310 C307 1.377 . S
N310 C309 1.344 . S
O311 Co303 2.055 . S
O311 C315 1.253 . S
H312 C308 0.931 . S
H313 C309 0.930 . S
O314 Co303 2.039 . S
O314 C304 1.265 . S
C315 O311 1.253 . S
C315 O316 1.227 . S
O316 C315 1.227 . S
N317 Co303 2.140 . S
N317 C320 1.346 . S
N317 C321 1.345 . S
C318 C319 1.387 . S
C318 C322 1.391 . S
C319 C318 1.387 . S
C319 C320 1.369 . S
C319 H328 0.929 . S
C320 N317 1.346 . S
C320 C319 1.369 . S
C320 H323 0.928 . S
C321 N317 1.345 . S
C321 C322 1.371 . S
C321 H324 0.931 . S
C322 C318 1.391 . S
C322 C321 1.371 . S
C322 H329 0.930 . S
H323 C320 0.928 . S
H324 C321 0.931 . S
H325 C301 0.930 . S
H326 C298 0.930 . S
H327 C307 0.930 . S
H328 C319 0.929 . S
H329 C322 0.930 . S
C330 C331 1.351 . S
C330 N333 1.368 . S
C330 H335 0.931 . S
C331 C330 1.351 . S
C331 N332 1.373 . S
C331 H359 0.930 . S
N332 C331 1.373 . S
N332 C334 1.340 . S
N333 C330 1.368 . S
N333 C334 1.321 . S
N333 Co336 2.135 . S
C334 N332 1.340 . S
C334 N333 1.321 . S
C334 H358 0.930 . S
H335 C330 0.931 . S
Co336 N333 2.135 . S
Co336 N339 2.121 . S
Co336 O344 2.055 . S
Co336 O347 2.039 . S
Co336 N350 2.140 . S
C337 O338 1.227 . S
C337 O347 1.265 . S
O338 C337 1.227 . S
N339 Co336 2.121 . S
N339 C341 1.375 . S
N339 C342 1.313 . S
C340 C341 1.338 . S
C340 N343 1.377 . S
C340 H360 0.930 . S
C341 N339 1.375 . S
C341 C340 1.338 . S
C341 H345 0.931 . S
C342 N339 1.313 . S
C342 N343 1.344 . S
C342 H346 0.930 . S
N343 C340 1.377 . S
N343 C342 1.344 . S
O344 Co336 2.055 . S
O344 C348 1.253 . S
H345 C341 0.931 . S
H346 C342 0.930 . S
O347 Co336 2.039 . S
O347 C337 1.265 . S
C348 O344 1.253 . S
C348 O349 1.227 . S
O349 C348 1.227 . S
N350 Co336 2.140 . S
N350 C353 1.346 . S
N350 C354 1.345 . S
C351 C352 1.387 . S
C351 C355 1.391 . S
C352 C351 1.387 . S
C352 C353 1.369 . S
C352 H361 0.929 . S
C353 N350 1.346 . S
C353 C352 1.369 . S
C353 H356 0.928 . S
C354 N350 1.345 . S
C354 C355 1.371 . S
C354 H357 0.931 . S
C355 C351 1.391 . S
C355 C354 1.371 . S
C355 H362 0.930 . S
H356 C353 0.928 . S
H357 C354 0.931 . S
H358 C334 0.930 . S
H359 C331 0.930 . S
H360 C340 0.930 . S
H361 C352 0.929 . S
H362 C355 0.930 . S
C363 C364 1.351 . S
C363 N366 1.368 . S
C363 H368 0.931 . S
C364 C363 1.351 . S
C364 N365 1.373 . S
C364 H392 0.930 1_556 S
N365 C364 1.373 . S
N365 C367 1.340 . S
N366 C363 1.368 . S
N366 C367 1.321 . S
N366 Co369 2.135 . S
C367 N365 1.340 . S
C367 N366 1.321 . S
C367 H391 0.930 . S
H368 C363 0.931 . S
Co369 N366 2.135 . S
Co369 N372 2.121 . S
Co369 O377 2.055 . S
Co369 O380 2.039 . S
Co369 N383 2.140 . S
C370 O371 1.227 . S
C370 O380 1.265 . S
O371 C370 1.227 . S
N372 Co369 2.121 . S
N372 C374 1.375 . S
N372 C375 1.313 . S
C373 C374 1.338 . S
C373 N376 1.377 . S
C373 H393 0.930 . S
C374 N372 1.375 . S
C374 C373 1.338 . S
C374 H378 0.931 . S
C375 N372 1.313 . S
C375 N376 1.344 . S
C375 H379 0.930 . S
N376 C373 1.377 . S
N376 C375 1.344 . S
O377 Co369 2.055 . S
O377 C381 1.253 . S
H378 C374 0.931 . S
H379 C375 0.930 . S
O380 Co369 2.039 . S
O380 C370 1.265 . S
C381 O377 1.253 . S
C381 O382 1.227 . S
O382 C381 1.227 . S
N383 Co369 2.140 . S
N383 C386 1.346 . S
N383 C387 1.345 . S
C384 C385 1.387 . S
C384 C388 1.391 . S
C385 C384 1.387 . S
C385 C386 1.369 . S
C385 H394 0.929 . S
C386 N383 1.346 . S
C386 C385 1.369 . S
C386 H389 0.928 . S
C387 N383 1.345 . S
C387 C388 1.371 . S
C387 H390 0.931 . S
C388 C384 1.391 . S
C388 C387 1.371 . S
C388 H395 0.930 . S
H389 C386 0.928 . S
H390 C387 0.931 . S
H391 C367 0.930 . S
H392 C364 0.930 1_554 S
H393 C373 0.930 . S
H394 C385 0.929 . S
H395 C388 0.930 . S
C396 C397 1.351 . S
C396 N399 1.368 . S
C396 H401 0.931 . S
C397 C396 1.351 . S
C397 N398 1.373 . S
C397 H425 0.930 . S
N398 C397 1.373 . S
N398 C400 1.340 . S
N399 C396 1.368 . S
N399 C400 1.321 . S
N399 Co402 2.135 . S
C400 N398 1.340 . S
C400 N399 1.321 . S
C400 H424 0.930 . S
H401 C396 0.931 . S
Co402 N399 2.135 . S
Co402 N405 2.121 . S
Co402 O410 2.055 . S
Co402 O413 2.039 . S
Co402 N416 2.140 . S
C403 O404 1.227 . S
C403 O413 1.265 . S
O404 C403 1.227 . S
N405 Co402 2.121 . S
N405 C407 1.375 . S
N405 C408 1.313 . S
C406 C407 1.338 . S
C406 N409 1.377 . S
C406 H426 0.930 . S
C407 N405 1.375 . S
C407 C406 1.338 . S
C407 H411 0.931 . S
C408 N405 1.313 . S
C408 N409 1.344 . S
C408 H412 0.930 . S
N409 C406 1.377 . S
N409 C408 1.344 . S
O410 Co402 2.055 . S
O410 C414 1.253 . S
H411 C407 0.931 . S
H412 C408 0.930 . S
O413 Co402 2.039 . S
O413 C403 1.265 . S
C414 O410 1.253 . S
C414 O415 1.227 . S
O415 C414 1.227 . S
N416 Co402 2.140 . S
N416 C419 1.346 . S
N416 C420 1.345 . S
C417 C418 1.387 . S
C417 C421 1.391 . S
C418 C417 1.387 . S
C418 C419 1.369 . S
C418 H427 0.929 . S
C419 N416 1.346 . S
C419 C418 1.369 . S
C419 H422 0.928 . S
C420 N416 1.345 . S
C420 C421 1.371 . S
C420 H423 0.931 . S
C421 C417 1.391 . S
C421 C420 1.371 . S
C421 H428 0.930 . S
H422 C419 0.928 . S
H423 C420 0.931 . S
H424 C400 0.930 . S
H425 C397 0.930 . S
H426 C406 0.930 . S
H427 C418 0.929 . S
H428 C421 0.930 . S
C429 C430 1.351 . S
C429 N432 1.368 . S
C429 H434 0.931 . S
C430 C429 1.351 . S
C430 N431 1.373 . S
C430 H458 0.930 . S
N431 C430 1.373 . S
N431 C433 1.340 . S
N432 C429 1.368 . S
N432 C433 1.321 . S
N432 Co435 2.135 . S
C433 N431 1.340 . S
C433 N432 1.321 . S
C433 H457 0.930 . S
H434 C429 0.931 . S
Co435 N432 2.135 . S
Co435 N438 2.121 . S
Co435 O443 2.055 . S
Co435 O446 2.039 . S
Co435 N449 2.140 . S
C436 O437 1.227 . S
C436 O446 1.265 . S
O437 C436 1.227 . S
N438 Co435 2.121 . S
N438 C440 1.375 . S
N438 C441 1.313 . S
C439 C440 1.338 . S
C439 N442 1.377 . S
C439 H459 0.930 . S
C440 N438 1.375 . S
C440 C439 1.338 . S
C440 H444 0.931 . S
C441 N438 1.313 . S
C441 N442 1.344 . S
C441 H445 0.930 . S
N442 C439 1.377 . S
N442 C441 1.344 . S
O443 Co435 2.055 . S
O443 C447 1.253 . S
H444 C440 0.931 . S
H445 C441 0.930 . S
O446 Co435 2.039 . S
O446 C436 1.265 . S
C447 O443 1.253 . S
C447 O448 1.227 . S
O448 C447 1.227 . S
N449 Co435 2.140 . S
N449 C452 1.346 . S
N449 C453 1.345 . S
C450 C451 1.387 . S
C450 C454 1.391 . S
C451 C450 1.387 . S
C451 C452 1.369 . S
C451 H460 0.929 . S
C452 N449 1.346 . S
C452 C451 1.369 . S
C452 H455 0.928 . S
C453 N449 1.345 . S
C453 C454 1.371 . S
C453 H456 0.931 . S
C454 C450 1.391 . S
C454 C453 1.371 . S
C454 H461 0.930 . S
H455 C452 0.928 . S
H456 C453 0.931 . S
H457 C433 0.930 . S
H458 C430 0.930 . S
H459 C439 0.930 . S
H460 C451 0.929 . S
H461 C454 0.930 . S
C462 C463 1.351 . S
C462 N465 1.368 . S
C462 H467 0.931 . S
C463 C462 1.351 . S
C463 N464 1.373 . S
C463 H491 0.930 . S
N464 C463 1.373 . S
N464 C466 1.340 . S
N465 C462 1.368 . S
N465 C466 1.321 . S
N465 Co468 2.135 . S
C466 N464 1.340 . S
C466 N465 1.321 . S
C466 H490 0.930 . S
H467 C462 0.931 . S
Co468 N465 2.135 . S
Co468 N471 2.121 . S
Co468 O476 2.055 . S
Co468 O479 2.039 . S
Co468 N482 2.140 . S
C469 O470 1.227 . S
C469 O479 1.265 . S
O470 C469 1.227 . S
N471 Co468 2.121 . S
N471 C473 1.375 . S
N471 C474 1.313 . S
C472 C473 1.338 . S
C472 N475 1.377 . S
C472 H492 0.930 . S
C473 N471 1.375 . S
C473 C472 1.338 . S
C473 H477 0.931 . S
C474 N471 1.313 . S
C474 N475 1.344 . S
C474 H478 0.930 . S
N475 C472 1.377 . S
N475 C474 1.344 . S
O476 Co468 2.055 . S
O476 C480 1.253 . S
H477 C473 0.931 . S
H478 C474 0.930 . S
O479 Co468 2.039 . S
O479 C469 1.265 . S
C480 O476 1.253 . S
C480 O481 1.227 . S
O481 C480 1.227 . S
N482 Co468 2.140 . S
N482 C485 1.346 . S
N482 C486 1.345 . S
C483 C484 1.387 . S
C483 C487 1.391 . S
C484 C483 1.387 . S
C484 C485 1.369 . S
C484 H493 0.929 . S
C485 N482 1.346 . S
C485 C484 1.369 . S
C485 H488 0.928 . S
C486 N482 1.345 . S
C486 C487 1.371 . S
C486 H489 0.931 . S
C487 C483 1.391 . S
C487 C486 1.371 . S
C487 H494 0.930 . S
H488 C485 0.928 . S
H489 C486 0.931 . S
H490 C466 0.930 . S
H491 C463 0.930 . S
H492 C472 0.930 . S
H493 C484 0.929 . S
H494 C487 0.930 . S
C495 C496 1.351 . S
C495 N498 1.368 . S
C495 H500 0.931 . S
C496 C495 1.351 . S
C496 N497 1.373 . S
C496 H524 0.930 1_554 S
N497 C496 1.373 . S
N497 C499 1.340 . S
N498 C495 1.368 . S
N498 C499 1.321 . S
N498 Co501 2.135 . S
C499 N497 1.340 . S
C499 N498 1.321 . S
C499 H523 0.930 . S
H500 C495 0.931 . S
Co501 N498 2.135 . S
Co501 N504 2.121 . S
Co501 O509 2.055 . S
Co501 O512 2.039 . S
Co501 N515 2.140 . S
C502 O503 1.227 . S
C502 O512 1.265 . S
O503 C502 1.227 . S
N504 Co501 2.121 . S
N504 C506 1.375 . S
N504 C507 1.313 . S
C505 C506 1.338 . S
C505 N508 1.377 . S
C505 H525 0.930 . S
C506 N504 1.375 . S
C506 C505 1.338 . S
C506 H510 0.931 . S
C507 N504 1.313 . S
C507 N508 1.344 . S
C507 H511 0.930 . S
N508 C505 1.377 . S
N508 C507 1.344 . S
O509 Co501 2.055 . S
O509 C513 1.253 . S
H510 C506 0.931 . S
H511 C507 0.930 . S
O512 Co501 2.039 . S
O512 C502 1.265 . S
C513 O509 1.253 . S
C513 O514 1.227 . S
O514 C513 1.227 . S
N515 Co501 2.140 . S
N515 C518 1.346 . S
N515 C519 1.345 . S
C516 C517 1.387 . S
C516 C520 1.391 . S
C517 C516 1.387 . S
C517 C518 1.369 . S
C517 H526 0.929 . S
C518 N515 1.346 . S
C518 C517 1.369 . S
C518 H521 0.928 . S
C519 N515 1.345 . S
C519 C520 1.371 . S
C519 H522 0.931 . S
C520 C516 1.391 . S
C520 C519 1.371 . S
C520 H527 0.930 . S
H521 C518 0.928 . S
H522 C519 0.931 . S
H523 C499 0.930 . S
H524 C496 0.930 1_556 S
H525 C505 0.930 . S
H526 C517 0.929 . S
H527 C520 0.930 . S
C528 C529 1.351 . S
C528 N531 1.368 . S
C528 H533 0.931 . S
C529 C528 1.351 . S
C529 N530 1.373 . S
C529 H557 0.930 . S
N530 C529 1.373 . S
N530 C532 1.340 . S
N531 C528 1.368 . S
N531 C532 1.321 . S
N531 Co534 2.135 . S
C532 N530 1.340 . S
C532 N531 1.321 . S
C532 H556 0.930 . S
H533 C528 0.931 . S
Co534 N531 2.135 . S
Co534 N537 2.121 . S
Co534 O542 2.055 . S
Co534 O545 2.039 . S
Co534 N548 2.140 . S
C535 O536 1.227 . S
C535 O545 1.265 . S
O536 C535 1.227 . S
N537 Co534 2.121 . S
N537 C539 1.375 . S
N537 C540 1.313 . S
C538 C539 1.338 . S
C538 N541 1.377 . S
C538 H558 0.930 . S
C539 N537 1.375 . S
C539 C538 1.338 . S
C539 H543 0.931 . S
C540 N537 1.313 . S
C540 N541 1.344 . S
C540 H544 0.930 . S
N541 C538 1.377 . S
N541 C540 1.344 . S
O542 Co534 2.055 . S
O542 C546 1.253 . S
H543 C539 0.931 . S
H544 C540 0.930 . S
O545 Co534 2.039 . S
O545 C535 1.265 . S
C546 O542 1.253 . S
C546 O547 1.227 . S
O547 C546 1.227 . S
N548 Co534 2.140 . S
N548 C551 1.346 . S
N548 C552 1.345 . S
C549 C550 1.387 . S
C549 C553 1.391 . S
C550 C549 1.387 . S
C550 C551 1.369 . S
C550 H559 0.929 . S
C551 N548 1.346 . S
C551 C550 1.369 . S
C551 H554 0.928 . S
C552 N548 1.345 . S
C552 C553 1.371 . S
C552 H555 0.931 . S
C553 C549 1.391 . S
C553 C552 1.371 . S
C553 H560 0.930 . S
H554 C551 0.928 . S
H555 C552 0.931 . S
H556 C532 0.930 . S
H557 C529 0.930 . S
H558 C538 0.930 . S
H559 C550 0.929 . S
H560 C553 0.930 . S
C561 C562 1.351 . S
C561 N564 1.368 . S
C561 H566 0.931 . S
C562 C561 1.351 . S
C562 N563 1.373 . S
C562 H590 0.930 1_554 S
N563 C562 1.373 . S
N563 C565 1.340 . S
N564 C561 1.368 . S
N564 C565 1.321 . S
N564 Co567 2.135 . S
C565 N563 1.340 . S
C565 N564 1.321 . S
C565 H589 0.930 . S
H566 C561 0.931 . S
Co567 N564 2.135 . S
Co567 N570 2.121 . S
Co567 O575 2.055 . S
Co567 O578 2.039 . S
Co567 N581 2.140 . S
C568 O569 1.227 . S
C568 O578 1.265 . S
O569 C568 1.227 . S
N570 Co567 2.121 . S
N570 C572 1.375 . S
N570 C573 1.313 . S
C571 C572 1.338 . S
C571 N574 1.377 . S
C571 H591 0.930 . S
C572 N570 1.375 . S
C572 C571 1.338 . S
C572 H576 0.931 . S
C573 N570 1.313 . S
C573 N574 1.344 . S
C573 H577 0.930 . S
N574 C571 1.377 . S
N574 C573 1.344 . S
O575 Co567 2.055 . S
O575 C579 1.253 . S
H576 C572 0.931 . S
H577 C573 0.930 . S
O578 Co567 2.039 . S
O578 C568 1.265 . S
C579 O575 1.253 . S
C579 O580 1.227 . S
O580 C579 1.227 . S
N581 Co567 2.140 . S
N581 C584 1.346 . S
N581 C585 1.345 . S
C582 C583 1.387 . S
C582 C586 1.391 . S
C583 C582 1.387 . S
C583 C584 1.369 . S
C583 H592 0.929 . S
C584 N581 1.346 . S
C584 C583 1.369 . S
C584 H587 0.928 . S
C585 N581 1.345 . S
C585 C586 1.371 . S
C585 H588 0.931 . S
C586 C582 1.391 . S
C586 C585 1.371 . S
C586 H593 0.930 . S
H587 C584 0.928 . S
H588 C585 0.931 . S
H589 C565 0.930 . S
H590 C562 0.930 1_556 S
H591 C571 0.930 . S
H592 C583 0.929 . S
H593 C586 0.930 . S
C594 C595 1.351 . S
C594 N597 1.368 . S
C594 H599 0.931 . S
C595 C594 1.351 . S
C595 N596 1.373 . S
C595 H623 0.930 . S
N596 C595 1.373 . S
N596 C598 1.340 . S
N597 C594 1.368 . S
N597 C598 1.321 . S
N597 Co600 2.135 . S
C598 N596 1.340 . S
C598 N597 1.321 . S
C598 H622 0.930 . S
H599 C594 0.931 . S
Co600 N597 2.135 . S
Co600 N603 2.121 . S
Co600 O608 2.055 . S
Co600 O611 2.039 . S
Co600 N614 2.140 . S
C601 O602 1.227 . S
C601 O611 1.265 . S
O602 C601 1.227 . S
N603 Co600 2.121 . S
N603 C605 1.375 . S
N603 C606 1.313 . S
C604 C605 1.338 . S
C604 N607 1.377 . S
C604 H624 0.930 . S
C605 N603 1.375 . S
C605 C604 1.338 . S
C605 H609 0.931 . S
C606 N603 1.313 . S
C606 N607 1.344 . S
C606 H610 0.930 . S
N607 C604 1.377 . S
N607 C606 1.344 . S
O608 Co600 2.055 . S
O608 C612 1.253 . S
H609 C605 0.931 . S
H610 C606 0.930 . S
O611 Co600 2.039 . S
O611 C601 1.265 . S
C612 O608 1.253 . S
C612 O613 1.227 . S
O613 C612 1.227 . S
N614 Co600 2.140 . S
N614 C617 1.346 . S
N614 C618 1.345 . S
C615 C616 1.387 . S
C615 C619 1.391 . S
C616 C615 1.387 . S
C616 C617 1.369 . S
C616 H625 0.929 . S
C617 N614 1.346 . S
C617 C616 1.369 . S
C617 H620 0.928 . S
C618 N614 1.345 . S
C618 C619 1.371 . S
C618 H621 0.931 . S
C619 C615 1.391 . S
C619 C618 1.371 . S
C619 H626 0.930 . S
H620 C617 0.928 . S
H621 C618 0.931 . S
H622 C598 0.930 . S
H623 C595 0.930 . S
H624 C604 0.930 . S
H625 C616 0.929 . S
H626 C619 0.930 . S
C627 C628 1.351 . S
C627 N630 1.368 . S
C627 H632 0.931 . S
C628 C627 1.351 . S
C628 N629 1.373 . S
C628 H656 0.930 . S
N629 C628 1.373 . S
N629 C631 1.340 . S
N630 C627 1.368 . S
N630 C631 1.321 . S
N630 Co633 2.135 . S
C631 N629 1.340 . S
C631 N630 1.321 . S
C631 H655 0.930 . S
H632 C627 0.931 . S
Co633 N630 2.135 . S
Co633 N636 2.121 . S
Co633 O641 2.055 . S
Co633 O644 2.039 . S
Co633 N647 2.140 . S
C634 O635 1.227 . S
C634 O644 1.265 . S
O635 C634 1.227 . S
N636 Co633 2.121 . S
N636 C638 1.375 . S
N636 C639 1.313 . S
C637 C638 1.338 . S
C637 N640 1.377 . S
C637 H657 0.930 . S
C638 N636 1.375 . S
C638 C637 1.338 . S
C638 H642 0.931 . S
C639 N636 1.313 . S
C639 N640 1.344 . S
C639 H643 0.930 . S
N640 C637 1.377 . S
N640 C639 1.344 . S
O641 Co633 2.055 . S
O641 C645 1.253 . S
H642 C638 0.931 . S
H643 C639 0.930 . S
O644 Co633 2.039 . S
O644 C634 1.265 . S
C645 O641 1.253 . S
C645 O646 1.227 . S
O646 C645 1.227 . S
N647 Co633 2.140 . S
N647 C650 1.346 . S
N647 C651 1.345 . S
C648 C649 1.387 . S
C648 C652 1.391 . S
C649 C648 1.387 . S
C649 C650 1.369 . S
C649 H658 0.929 . S
C650 N647 1.346 . S
C650 C649 1.369 . S
C650 H653 0.928 . S
C651 N647 1.345 . S
C651 C652 1.371 . S
C651 H654 0.931 . S
C652 C648 1.391 . S
C652 C651 1.371 . S
C652 H659 0.930 . S
H653 C650 0.928 . S
H654 C651 0.931 . S
H655 C631 0.930 . S
H656 C628 0.930 . S
H657 C637 0.930 . S
H658 C649 0.929 . S
H659 C652 0.930 . S
C660 C661 1.351 . S
C660 N663 1.368 . S
C660 H665 0.931 . S
C661 C660 1.351 . S
C661 N662 1.373 . S
C661 H689 0.930 . S
N662 C661 1.373 . S
N662 C664 1.340 . S
N663 C660 1.368 . S
N663 C664 1.321 . S
N663 Co666 2.135 . S
C664 N662 1.340 . S
C664 N663 1.321 . S
C664 H688 0.930 . S
H665 C660 0.931 . S
Co666 N663 2.135 . S
Co666 N669 2.121 . S
Co666 O674 2.055 . S
Co666 O677 2.039 . S
Co666 N680 2.140 . S
C667 O668 1.227 . S
C667 O677 1.265 . S
O668 C667 1.227 . S
N669 Co666 2.121 . S
N669 C671 1.375 . S
N669 C672 1.313 . S
C670 C671 1.338 . S
C670 N673 1.377 . S
C670 H690 0.930 . S
C671 N669 1.375 . S
C671 C670 1.338 . S
C671 H675 0.931 . S
C672 N669 1.313 . S
C672 N673 1.344 . S
C672 H676 0.930 . S
N673 C670 1.377 . S
N673 C672 1.344 . S
O674 Co666 2.055 . S
O674 C678 1.253 . S
H675 C671 0.931 . S
H676 C672 0.930 . S
O677 Co666 2.039 . S
O677 C667 1.265 . S
C678 O674 1.253 . S
C678 O679 1.227 . S
O679 C678 1.227 . S
N680 Co666 2.140 . S
N680 C683 1.346 . S
N680 C684 1.345 . S
C681 C682 1.387 . S
C681 C685 1.391 . S
C682 C681 1.387 . S
C682 C683 1.369 . S
C682 H691 0.929 . S
C683 N680 1.346 . S
C683 C682 1.369 . S
C683 H686 0.928 . S
C684 N680 1.345 . S
C684 C685 1.371 . S
C684 H687 0.931 . S
C685 C681 1.391 . S
C685 C684 1.371 . S
C685 H692 0.930 . S
H686 C683 0.928 . S
H687 C684 0.931 . S
H688 C664 0.930 . S
H689 C661 0.930 . S
H690 C670 0.930 . S
H691 C682 0.929 . S
H692 C685 0.930 . S
C693 C694 1.351 . S
C693 N696 1.368 . S
C693 H698 0.931 . S
C694 C693 1.351 . S
C694 N695 1.373 . S
C694 H722 0.930 1_556 S
N695 C694 1.373 . S
N695 C697 1.340 . S
N696 C693 1.368 . S
N696 C697 1.321 . S
N696 Co699 2.135 . S
C697 N695 1.340 . S
C697 N696 1.321 . S
C697 H721 0.930 . S
H698 C693 0.931 . S
Co699 N696 2.135 . S
Co699 N702 2.121 . S
Co699 O707 2.055 . S
Co699 O710 2.039 . S
Co699 N713 2.140 . S
C700 O701 1.227 . S
C700 O710 1.265 . S
O701 C700 1.227 . S
N702 Co699 2.121 . S
N702 C704 1.375 . S
N702 C705 1.313 . S
C703 C704 1.338 . S
C703 N706 1.377 . S
C703 H723 0.930 . S
C704 N702 1.375 . S
C704 C703 1.338 . S
C704 H708 0.931 . S
C705 N702 1.313 . S
C705 N706 1.344 . S
C705 H709 0.930 . S
N706 C703 1.377 . S
N706 C705 1.344 . S
O707 Co699 2.055 . S
O707 C711 1.253 . S
H708 C704 0.931 . S
H709 C705 0.930 . S
O710 Co699 2.039 . S
O710 C700 1.265 . S
C711 O707 1.253 . S
C711 O712 1.227 . S
O712 C711 1.227 . S
N713 Co699 2.140 . S
N713 C716 1.346 . S
N713 C717 1.345 . S
C714 C715 1.387 . S
C714 C718 1.391 . S
C715 C714 1.387 . S
C715 C716 1.369 . S
C715 H724 0.929 . S
C716 N713 1.346 . S
C716 C715 1.369 . S
C716 H719 0.928 . S
C717 N713 1.345 . S
C717 C718 1.371 . S
C717 H720 0.931 . S
C718 C714 1.391 . S
C718 C717 1.371 . S
C718 H725 0.930 . S
H719 C716 0.928 . S
H720 C717 0.931 . S
H721 C697 0.930 . S
H722 C694 0.930 1_554 S
H723 C703 0.930 . S
H724 C715 0.929 . S
H725 C718 0.930 . S
C726 C727 1.351 . S
C726 N729 1.368 . S
C726 H731 0.931 . S
C727 C726 1.351 . S
C727 N728 1.373 . S
C727 H755 0.930 . S
N728 C727 1.373 . S
N728 C730 1.340 . S
N729 C726 1.368 . S
N729 C730 1.321 . S
N729 Co732 2.135 . S
C730 N728 1.340 . S
C730 N729 1.321 . S
C730 H754 0.930 . S
H731 C726 0.931 . S
Co732 N729 2.135 . S
Co732 N735 2.121 . S
Co732 O740 2.055 . S
Co732 O743 2.039 . S
Co732 N746 2.140 . S
C733 O734 1.227 . S
C733 O743 1.265 . S
O734 C733 1.227 . S
N735 Co732 2.121 . S
N735 C737 1.375 . S
N735 C738 1.313 . S
C736 C737 1.338 . S
C736 N739 1.377 . S
C736 H756 0.930 . S
C737 N735 1.375 . S
C737 C736 1.338 . S
C737 H741 0.931 . S
C738 N735 1.313 . S
C738 N739 1.344 . S
C738 H742 0.930 . S
N739 C736 1.377 . S
N739 C738 1.344 . S
O740 Co732 2.055 . S
O740 C744 1.253 . S
H741 C737 0.931 . S
H742 C738 0.930 . S
O743 Co732 2.039 . S
O743 C733 1.265 . S
C744 O740 1.253 . S
C744 O745 1.227 . S
O745 C744 1.227 . S
N746 Co732 2.140 . S
N746 C749 1.346 . S
N746 C750 1.345 . S
C747 C748 1.387 . S
C747 C751 1.391 . S
C748 C747 1.387 . S
C748 C749 1.369 . S
C748 H757 0.929 . S
C749 N746 1.346 . S
C749 C748 1.369 . S
C749 H752 0.928 . S
C750 N746 1.345 . S
C750 C751 1.371 . S
C750 H753 0.931 . S
C751 C747 1.391 . S
C751 C750 1.371 . S
C751 H758 0.930 . S
H752 C749 0.928 . S
H753 C750 0.931 . S
H754 C730 0.930 . S
H755 C727 0.930 . S
H756 C736 0.930 . S
H757 C748 0.929 . S
H758 C751 0.930 . S
C759 C760 1.351 . S
C759 N762 1.368 . S
C759 H764 0.931 . S
C760 C759 1.351 . S
C760 N761 1.373 . S
C760 H788 0.930 . S
N761 C760 1.373 . S
N761 C763 1.340 . S
N762 C759 1.368 . S
N762 C763 1.321 . S
N762 Co765 2.135 . S
C763 N761 1.340 . S
C763 N762 1.321 . S
C763 H787 0.930 . S
H764 C759 0.931 . S
Co765 N762 2.135 . S
Co765 N768 2.121 . S
Co765 O773 2.055 . S
Co765 O776 2.039 . S
Co765 N779 2.140 . S
C766 O767 1.227 . S
C766 O776 1.265 . S
O767 C766 1.227 . S
N768 Co765 2.121 . S
N768 C770 1.375 . S
N768 C771 1.313 . S
C769 C770 1.338 . S
C769 N772 1.377 . S
C769 H789 0.930 . S
C770 N768 1.375 . S
C770 C769 1.338 . S
C770 H774 0.931 . S
C771 N768 1.313 . S
C771 N772 1.344 . S
C771 H775 0.930 . S
N772 C769 1.377 . S
N772 C771 1.344 . S
O773 Co765 2.055 . S
O773 C777 1.253 . S
H774 C770 0.931 . S
H775 C771 0.930 . S
O776 Co765 2.039 . S
O776 C766 1.265 . S
C777 O773 1.253 . S
C777 O778 1.227 . S
O778 C777 1.227 . S
N779 Co765 2.140 . S
N779 C782 1.346 . S
N779 C783 1.345 . S
C780 C781 1.387 . S
C780 C784 1.391 . S
C781 C780 1.387 . S
C781 C782 1.369 . S
C781 H790 0.929 . S
C782 N779 1.346 . S
C782 C781 1.369 . S
C782 H785 0.928 . S
C783 N779 1.345 . S
C783 C784 1.371 . S
C783 H786 0.931 . S
C784 C780 1.391 . S
C784 C783 1.371 . S
C784 H791 0.930 . S
H785 C782 0.928 . S
H786 C783 0.931 . S
H787 C763 0.930 . S
H788 C760 0.930 . S
H789 C769 0.930 . S
H790 C781 0.929 . S
H791 C784 0.930 . S
C792 C793 1.351 . S
C792 N795 1.368 . S
C792 H797 0.931 . S
C793 C792 1.351 . S
C793 N794 1.373 . S
C793 H821 0.930 . S
N794 C793 1.373 . S
N794 C796 1.340 . S
N795 C792 1.368 . S
N795 C796 1.321 . S
N795 Co798 2.135 . S
C796 N794 1.340 . S
C796 N795 1.321 . S
C796 H820 0.930 . S
H797 C792 0.931 . S
Co798 N795 2.135 . S
Co798 N801 2.121 . S
Co798 O806 2.055 . S
Co798 O809 2.039 . S
Co798 N812 2.140 . S
C799 O800 1.227 . S
C799 O809 1.265 . S
O800 C799 1.227 . S
N801 Co798 2.121 . S
N801 C803 1.375 . S
N801 C804 1.313 . S
C802 C803 1.338 . S
C802 N805 1.377 . S
C802 H822 0.930 . S
C803 N801 1.375 . S
C803 C802 1.338 . S
C803 H807 0.931 . S
C804 N801 1.313 . S
C804 N805 1.344 . S
C804 H808 0.930 . S
N805 C802 1.377 . S
N805 C804 1.344 . S
O806 Co798 2.055 . S
O806 C810 1.253 . S
H807 C803 0.931 . S
H808 C804 0.930 . S
O809 Co798 2.039 . S
O809 C799 1.265 . S
C810 O806 1.253 . S
C810 O811 1.227 . S
O811 C810 1.227 . S
N812 Co798 2.140 . S
N812 C815 1.346 . S
N812 C816 1.345 . S
C813 C814 1.387 . S
C813 C817 1.391 . S
C814 C813 1.387 . S
C814 C815 1.369 . S
C814 H823 0.929 . S
C815 N812 1.346 . S
C815 C814 1.369 . S
C815 H818 0.928 . S
C816 N812 1.345 . S
C816 C817 1.371 . S
C816 H819 0.931 . S
C817 C813 1.391 . S
C817 C816 1.371 . S
C817 H824 0.930 . S
H818 C815 0.928 . S
H819 C816 0.931 . S
H820 C796 0.930 . S
H821 C793 0.930 . S
H822 C802 0.930 . S
H823 C814 0.929 . S
H824 C817 0.930 . S
C825 C826 1.351 . S
C825 N828 1.368 . S
C825 H830 0.931 . S
C826 C825 1.351 . S
C826 N827 1.373 . S
C826 H854 0.930 1_556 S
N827 C826 1.373 . S
N827 C829 1.340 . S
N828 C825 1.368 . S
N828 C829 1.321 . S
N828 Co831 2.135 . S
C829 N827 1.340 . S
C829 N828 1.321 . S
C829 H853 0.930 . S
H830 C825 0.931 . S
Co831 N828 2.135 . S
Co831 N834 2.121 . S
Co831 O839 2.055 . S
Co831 O842 2.039 . S
Co831 N845 2.140 . S
C832 O833 1.227 . S
C832 O842 1.265 . S
O833 C832 1.227 . S
N834 Co831 2.121 . S
N834 C836 1.375 . S
N834 C837 1.313 . S
C835 C836 1.338 . S
C835 N838 1.377 . S
C835 H855 0.930 . S
C836 N834 1.375 . S
C836 C835 1.338 . S
C836 H840 0.931 . S
C837 N834 1.313 . S
C837 N838 1.344 . S
C837 H841 0.930 . S
N838 C835 1.377 . S
N838 C837 1.344 . S
O839 Co831 2.055 . S
O839 C843 1.253 . S
H840 C836 0.931 . S
H841 C837 0.930 . S
O842 Co831 2.039 . S
O842 C832 1.265 . S
C843 O839 1.253 . S
C843 O844 1.227 . S
O844 C843 1.227 . S
N845 Co831 2.140 . S
N845 C848 1.346 . S
N845 C849 1.345 . S
C846 C847 1.387 . S
C846 C850 1.391 . S
C847 C846 1.387 . S
C847 C848 1.369 . S
C847 H856 0.929 . S
C848 N845 1.346 . S
C848 C847 1.369 . S
C848 H851 0.928 . S
C849 N845 1.345 . S
C849 C850 1.371 . S
C849 H852 0.931 . S
C850 C846 1.391 . S
C850 C849 1.371 . S
C850 H857 0.930 . S
H851 C848 0.928 . S
H852 C849 0.931 . S
H853 C829 0.930 . S
H854 C826 0.930 1_554 S
H855 C835 0.930 . S
H856 C847 0.929 . S
H857 C850 0.930 . S
C858 C859 1.351 . S
C858 N861 1.368 . S
C858 H863 0.931 . S
C859 C858 1.351 . S
C859 N860 1.373 . S
C859 H887 0.930 . S
N860 C859 1.373 . S
N860 C862 1.340 . S
N861 C858 1.368 . S
N861 C862 1.321 . S
N861 Co864 2.135 . S
C862 N860 1.340 . S
C862 N861 1.321 . S
C862 H886 0.930 . S
H863 C858 0.931 . S
Co864 N861 2.135 . S
Co864 N867 2.121 . S
Co864 O872 2.055 . S
Co864 O875 2.039 . S
Co864 N878 2.140 . S
C865 O866 1.227 . S
C865 O875 1.265 . S
O866 C865 1.227 . S
N867 Co864 2.121 . S
N867 C869 1.375 . S
N867 C870 1.313 . S
C868 C869 1.338 . S
C868 N871 1.377 . S
C868 H888 0.930 . S
C869 N867 1.375 . S
C869 C868 1.338 . S
C869 H873 0.931 . S
C870 N867 1.313 . S
C870 N871 1.344 . S
C870 H874 0.930 . S
N871 C868 1.377 . S
N871 C870 1.344 . S
O872 Co864 2.055 . S
O872 C876 1.253 . S
H873 C869 0.931 . S
H874 C870 0.930 . S
O875 Co864 2.039 . S
O875 C865 1.265 . S
C876 O872 1.253 . S
C876 O877 1.227 . S
O877 C876 1.227 . S
N878 Co864 2.140 . S
N878 C881 1.346 . S
N878 C882 1.345 . S
C879 C880 1.387 . S
C879 C883 1.391 . S
C880 C879 1.387 . S
C880 C881 1.369 . S
C880 H889 0.929 . S
C881 N878 1.346 . S
C881 C880 1.369 . S
C881 H884 0.928 . S
C882 N878 1.345 . S
C882 C883 1.371 . S
C882 H885 0.931 . S
C883 C879 1.391 . S
C883 C882 1.371 . S
C883 H890 0.930 . S
H884 C881 0.928 . S
H885 C882 0.931 . S
H886 C862 0.930 . S
H887 C859 0.930 . S
H888 C868 0.930 . S
H889 C880 0.929 . S
H890 C883 0.930 . S
C891 C892 1.351 . S
C891 N894 1.368 . S
C891 H896 0.931 . S
C892 C891 1.351 . S
C892 N893 1.373 . S
C892 H920 0.930 . S
N893 C892 1.373 . S
N893 C895 1.340 . S
N894 C891 1.368 . S
N894 C895 1.321 . S
N894 Co897 2.135 . S
C895 N893 1.340 . S
C895 N894 1.321 . S
C895 H919 0.930 . S
H896 C891 0.931 . S
Co897 N894 2.135 . S
Co897 N900 2.121 . S
Co897 O905 2.055 . S
Co897 O908 2.039 . S
Co897 N911 2.140 . S
C898 O899 1.227 . S
C898 O908 1.265 . S
O899 C898 1.227 . S
N900 Co897 2.121 . S
N900 C902 1.375 . S
N900 C903 1.313 . S
C901 C902 1.338 . S
C901 N904 1.377 . S
C901 H921 0.930 . S
C902 N900 1.375 . S
C902 C901 1.338 . S
C902 H906 0.931 . S
C903 N900 1.313 . S
C903 N904 1.344 . S
C903 H907 0.930 . S
N904 C901 1.377 . S
N904 C903 1.344 . S
O905 Co897 2.055 . S
O905 C909 1.253 . S
H906 C902 0.931 . S
H907 C903 0.930 . S
O908 Co897 2.039 . S
O908 C898 1.265 . S
C909 O905 1.253 . S
C909 O910 1.227 . S
O910 C909 1.227 . S
N911 Co897 2.140 . S
N911 C914 1.346 . S
N911 C915 1.345 . S
C912 C913 1.387 . S
C912 C916 1.391 . S
C913 C912 1.387 . S
C913 C914 1.369 . S
C913 H922 0.929 . S
C914 N911 1.346 . S
C914 C913 1.369 . S
C914 H917 0.928 . S
C915 N911 1.345 . S
C915 C916 1.371 . S
C915 H918 0.931 . S
C916 C912 1.391 . S
C916 C915 1.371 . S
C916 H923 0.930 . S
H917 C914 0.928 . S
H918 C915 0.931 . S
H919 C895 0.930 . S
H920 C892 0.930 . S
H921 C901 0.930 . S
H922 C913 0.929 . S
H923 C916 0.930 . S
C924 C925 1.351 . S
C924 N927 1.368 . S
C924 H929 0.931 . S
C925 C924 1.351 . S
C925 N926 1.373 . S
C925 H953 0.930 . S
N926 C925 1.373 . S
N926 C928 1.340 . S
N927 C924 1.368 . S
N927 C928 1.321 . S
N927 Co930 2.135 . S
C928 N926 1.340 . S
C928 N927 1.321 . S
C928 H952 0.930 . S
H929 C924 0.931 . S
Co930 N927 2.135 . S
Co930 N933 2.121 . S
Co930 O938 2.055 . S
Co930 O941 2.039 . S
Co930 N944 2.140 . S
C931 O932 1.227 . S
C931 O941 1.265 . S
O932 C931 1.227 . S
N933 Co930 2.121 . S
N933 C935 1.375 . S
N933 C936 1.313 . S
C934 C935 1.338 . S
C934 N937 1.377 . S
C934 H954 0.930 . S
C935 N933 1.375 . S
C935 C934 1.338 . S
C935 H939 0.931 . S
C936 N933 1.313 . S
C936 N937 1.344 . S
C936 H940 0.930 . S
N937 C934 1.377 . S
N937 C936 1.344 . S
O938 Co930 2.055 . S
O938 C942 1.253 . S
H939 C935 0.931 . S
H940 C936 0.930 . S
O941 Co930 2.039 . S
O941 C931 1.265 . S
C942 O938 1.253 . S
C942 O943 1.227 . S
O943 C942 1.227 . S
N944 Co930 2.140 . S
N944 C947 1.346 . S
N944 C948 1.345 . S
C945 C946 1.387 . S
C945 C949 1.391 . S
C946 C945 1.387 . S
C946 C947 1.369 . S
C946 H955 0.929 . S
C947 N944 1.346 . S
C947 C946 1.369 . S
C947 H950 0.928 . S
C948 N944 1.345 . S
C948 C949 1.371 . S
C948 H951 0.931 . S
C949 C945 1.391 . S
C949 C948 1.371 . S
C949 H956 0.930 . S
H950 C947 0.928 . S
H951 C948 0.931 . S
H952 C928 0.930 . S
H953 C925 0.930 . S
H954 C934 0.930 . S
H955 C946 0.929 . S
H956 C949 0.930 . S
C957 C958 1.351 . S
C957 N960 1.368 . S
C957 H962 0.931 . S
C958 C957 1.351 . S
C958 N959 1.373 . S
C958 H986 0.930 1_554 S
N959 C958 1.373 . S
N959 C961 1.340 . S
N960 C957 1.368 . S
N960 C961 1.321 . S
N960 Co963 2.135 . S
C961 N959 1.340 . S
C961 N960 1.321 . S
C961 H985 0.930 . S
H962 C957 0.931 . S
Co963 N960 2.135 . S
Co963 N966 2.121 . S
Co963 O971 2.055 . S
Co963 O974 2.039 . S
Co963 N977 2.140 . S
C964 O965 1.227 . S
C964 O974 1.265 . S
O965 C964 1.227 . S
N966 Co963 2.121 . S
N966 C968 1.375 . S
N966 C969 1.313 . S
C967 C968 1.338 . S
C967 N970 1.377 . S
C967 H987 0.930 . S
C968 N966 1.375 . S
C968 C967 1.338 . S
C968 H972 0.931 . S
C969 N966 1.313 . S
C969 N970 1.344 . S
C969 H973 0.930 . S
N970 C967 1.377 . S
N970 C969 1.344 . S
O971 Co963 2.055 . S
O971 C975 1.253 . S
H972 C968 0.931 . S
H973 C969 0.930 . S
O974 Co963 2.039 . S
O974 C964 1.265 . S
C975 O971 1.253 . S
C975 O976 1.227 . S
O976 C975 1.227 . S
N977 Co963 2.140 . S
N977 C980 1.346 . S
N977 C981 1.345 . S
C978 C979 1.387 . S
C978 C982 1.391 . S
C979 C978 1.387 . S
C979 C980 1.369 . S
C979 H988 0.929 . S
C980 N977 1.346 . S
C980 C979 1.369 . S
C980 H983 0.928 . S
C981 N977 1.345 . S
C981 C982 1.371 . S
C981 H984 0.931 . S
C982 C978 1.391 . S
C982 C981 1.371 . S
C982 H989 0.930 . S
H983 C980 0.928 . S
H984 C981 0.931 . S
H985 C961 0.930 . S
H986 C958 0.930 1_556 S
H987 C967 0.930 . S
H988 C979 0.929 . S
H989 C982 0.930 . S
C990 C991 1.351 . S
C990 N993 1.368 . S
C990 H995 0.931 . S
C991 C990 1.351 . S
C991 N992 1.373 . S
C991 H1019 0.930 . S
N992 C991 1.373 . S
N992 C994 1.340 . S
N993 C990 1.368 . S
N993 C994 1.321 . S
N993 Co996 2.135 . S
C994 N992 1.340 . S
C994 N993 1.321 . S
C994 H1018 0.930 . S
H995 C990 0.931 . S
Co996 N993 2.135 . S
Co996 N999 2.121 . S
Co996 O1004 2.055 . S
Co996 O1007 2.039 . S
Co996 N1010 2.140 . S
C997 O998 1.227 . S
C997 O1007 1.265 . S
O998 C997 1.227 . S
N999 Co996 2.121 . S
N999 C1001 1.375 . S
N999 C1002 1.313 . S
C1000 C1001 1.338 . S
C1000 N1003 1.377 . S
C1000 H1020 0.930 . S
C1001 N999 1.375 . S
C1001 C1000 1.338 . S
C1001 H1005 0.931 . S
C1002 N999 1.313 . S
C1002 N1003 1.344 . S
C1002 H1006 0.930 . S
N1003 C1000 1.377 . S
N1003 C1002 1.344 . S
O1004 Co996 2.055 . S
O1004 C1008 1.253 . S
H1005 C1001 0.931 . S
H1006 C1002 0.930 . S
O1007 Co996 2.039 . S
O1007 C997 1.265 . S
C1008 O1004 1.253 . S
C1008 O1009 1.227 . S
O1009 C1008 1.227 . S
N1010 Co996 2.140 . S
N1010 C1013 1.346 . S
N1010 C1014 1.345 . S
C1011 C1012 1.387 . S
C1011 C1015 1.391 . S
C1012 C1011 1.387 . S
C1012 C1013 1.369 . S
C1012 H1021 0.929 . S
C1013 N1010 1.346 . S
C1013 C1012 1.369 . S
C1013 H1016 0.928 . S
C1014 N1010 1.345 . S
C1014 C1015 1.371 . S
C1014 H1017 0.931 . S
C1015 C1011 1.391 . S
C1015 C1014 1.371 . S
C1015 H1022 0.930 . S
H1016 C1013 0.928 . S
H1017 C1014 0.931 . S
H1018 C994 0.930 . S
H1019 C991 0.930 . S
H1020 C1000 0.930 . S
H1021 C1012 0.929 . S
H1022 C1015 0.930 . S
C1023 C1024 1.351 . S
C1023 N1026 1.368 . S
C1023 H1028 0.931 . S
C1024 C1023 1.351 . S
C1024 N1025 1.373 . S
C1024 H1052 0.930 . S
N1025 C1024 1.373 . S
N1025 C1027 1.340 . S
N1026 C1023 1.368 . S
N1026 C1027 1.321 . S
N1026 Co1029 2.135 . S
C1027 N1025 1.340 . S
C1027 N1026 1.321 . S
C1027 H1051 0.930 . S
H1028 C1023 0.931 . S
Co1029 N1026 2.135 . S
Co1029 N1032 2.121 . S
Co1029 O1037 2.055 . S
Co1029 O1040 2.039 . S
Co1029 N1043 2.140 . S
C1030 O1031 1.227 . S
C1030 O1040 1.265 . S
O1031 C1030 1.227 . S
N1032 Co1029 2.121 . S
N1032 C1034 1.375 . S
N1032 C1035 1.313 . S
C1033 C1034 1.338 . S
C1033 N1036 1.377 . S
C1033 H1053 0.930 . S
C1034 N1032 1.375 . S
C1034 C1033 1.338 . S
C1034 H1038 0.931 . S
C1035 N1032 1.313 . S
C1035 N1036 1.344 . S
C1035 H1039 0.930 . S
N1036 C1033 1.377 . S
N1036 C1035 1.344 . S
O1037 Co1029 2.055 . S
O1037 C1041 1.253 . S
H1038 C1034 0.931 . S
H1039 C1035 0.930 . S
O1040 Co1029 2.039 . S
O1040 C1030 1.265 . S
C1041 O1037 1.253 . S
C1041 O1042 1.227 . S
O1042 C1041 1.227 . S
N1043 Co1029 2.140 . S
N1043 C1046 1.346 . S
N1043 C1047 1.345 . S
C1044 C1045 1.387 . S
C1044 C1048 1.391 . S
C1045 C1044 1.387 . S
C1045 C1046 1.369 . S
C1045 H1054 0.929 . S
C1046 N1043 1.346 . S
C1046 C1045 1.369 . S
C1046 H1049 0.928 . S
C1047 N1043 1.345 . S
C1047 C1048 1.371 . S
C1047 H1050 0.931 . S
C1048 C1044 1.391 . S
C1048 C1047 1.371 . S
C1048 H1055 0.930 . S
H1049 C1046 0.928 . S
H1050 C1047 0.931 . S
H1051 C1027 0.930 . S
H1052 C1024 0.930 . S
H1053 C1033 0.930 . S
H1054 C1045 0.929 . S
H1055 C1048 0.930 . S
H1056 C1064 0.929 . S
H1057 C1066 0.930 . S
H1058 C1068 0.930 . S
H1059 C1071 0.929 . S
H1060 C1074 0.930 . S
H1061 C1076 0.960 . S
H1062 C1076 0.960 . S
H1063 C1076 0.960 . S
C1064 H1056 0.929 . S
C1064 C1065 1.377 . S
C1064 C1066 1.384 . S
C1065 C1064 1.377 . S
C1065 C1071 1.390 . S
C1066 H1057 0.930 . S
C1066 C1064 1.384 . S
C1066 C1067 1.372 . S
C1067 C1066 1.372 . S
C1067 C1068 1.400 . S
C1067 C1072 1.490 . S
C1068 H1058 0.930 . S
C1068 C1067 1.400 . S
C1068 C1071 1.386 . S
H1069 C1085 0.930 . S
H1070 C1086 0.931 . S
C1071 H1059 0.929 . S
C1071 C1065 1.390 . S
C1071 C1068 1.386 . S
C1072 C1067 1.490 . S
C1072 C1074 1.395 . S
C1072 C1075 1.403 . S
H1073 C1079 0.930 . S
C1074 H1060 0.930 . S
C1074 C1072 1.395 . S
C1074 C1077 1.403 . S
C1075 C1072 1.403 . S
C1075 C1076 1.524 . S
C1075 C1079 1.400 . S
C1076 H1061 0.960 . S
C1076 H1062 0.960 . S
C1076 H1063 0.960 . S
C1076 C1075 1.524 . S
C1077 C1074 1.403 . S
C1077 C1078 1.392 . S
C1077 C1081 1.495 . S
C1078 C1077 1.392 . S
C1078 C1079 1.385 . S
C1078 C1080 1.478 . S
C1079 H1073 0.930 . S
C1079 C1075 1.400 . S
C1079 C1078 1.385 . S
C1080 C1078 1.478 . S
C1080 C1082 1.381 . S
C1080 C1086 1.383 . S
C1081 C1077 1.495 . S
C1081 H1087 0.959 . S
C1081 H1088 0.961 . S
C1081 H1089 0.960 . S
C1082 C1080 1.381 . S
C1082 C1083 1.394 . S
C1082 H1090 0.930 . S
C1083 C1082 1.394 . S
C1083 C1084 1.383 . S
C1083 H1091 0.929 . S
C1084 C1083 1.383 . S
C1084 C1085 1.377 . S
C1085 H1069 0.930 . S
C1085 C1084 1.377 . S
C1085 C1086 1.379 . S
C1086 H1070 0.931 . S
C1086 C1080 1.383 . S
C1086 C1085 1.379 . S
H1087 C1081 0.959 . S
H1088 C1081 0.961 . S
H1089 C1081 0.960 . S
H1090 C1082 0.930 . S
H1091 C1083 0.929 . S
H1092 C1100 0.929 . S
H1093 C1102 0.930 . S
H1094 C1104 0.930 . S
H1095 C1107 0.929 . S
H1096 C1110 0.930 . S
H1097 C1112 0.960 . S
H1098 C1112 0.960 . S
H1099 C1112 0.960 . S
C1100 H1092 0.929 . S
C1100 C1101 1.377 . S
C1100 C1102 1.384 . S
C1101 C1100 1.377 . S
C1101 C1107 1.390 . S
C1102 H1093 0.930 . S
C1102 C1100 1.384 . S
C1102 C1103 1.372 . S
C1103 C1102 1.372 . S
C1103 C1104 1.400 . S
C1103 C1108 1.490 . S
C1104 H1094 0.930 . S
C1104 C1103 1.400 . S
C1104 C1107 1.386 . S
H1105 C1121 0.930 . S
H1106 C1122 0.931 . S
C1107 H1095 0.929 . S
C1107 C1101 1.390 . S
C1107 C1104 1.386 . S
C1108 C1103 1.490 . S
C1108 C1110 1.395 . S
C1108 C1111 1.403 . S
H1109 C1115 0.930 . S
C1110 H1096 0.930 . S
C1110 C1108 1.395 . S
C1110 C1113 1.403 . S
C1111 C1108 1.403 . S
C1111 C1112 1.524 . S
C1111 C1115 1.400 . S
C1112 H1097 0.960 . S
C1112 H1098 0.960 . S
C1112 H1099 0.960 . S
C1112 C1111 1.524 . S
C1113 C1110 1.403 . S
C1113 C1114 1.392 . S
C1113 C1117 1.495 . S
C1114 C1113 1.392 . S
C1114 C1115 1.385 . S
C1114 C1116 1.478 . S
C1115 H1109 0.930 . S
C1115 C1111 1.400 . S
C1115 C1114 1.385 . S
C1116 C1114 1.478 . S
C1116 C1118 1.381 . S
C1116 C1122 1.383 . S
C1117 C1113 1.495 . S
C1117 H1123 0.959 . S
C1117 H1124 0.961 . S
C1117 H1125 0.960 . S
C1118 C1116 1.381 . S
C1118 C1119 1.394 . S
C1118 H1126 0.930 . S
C1119 C1118 1.394 . S
C1119 C1120 1.383 . S
C1119 H1127 0.929 . S
C1120 C1119 1.383 . S
C1120 C1121 1.377 . S
C1121 H1105 0.930 . S
C1121 C1120 1.377 . S
C1121 C1122 1.379 . S
C1122 H1106 0.931 . S
C1122 C1116 1.383 . S
C1122 C1121 1.379 . S
H1123 C1117 0.959 . S
H1124 C1117 0.961 . S
H1125 C1117 0.960 . S
H1126 C1118 0.930 . S
H1127 C1119 0.929 . S
H1128 C1136 0.929 . S
H1129 C1138 0.930 . S
H1130 C1140 0.930 . S
H1131 C1143 0.929 . S
H1132 C1146 0.930 . S
H1133 C1148 0.960 . S
H1134 C1148 0.960 . S
H1135 C1148 0.960 . S
C1136 H1128 0.929 . S
C1136 C1137 1.377 . S
C1136 C1138 1.384 . S
C1137 C1136 1.377 . S
C1137 C1143 1.390 . S
C1138 H1129 0.930 . S
C1138 C1136 1.384 . S
C1138 C1139 1.372 . S
C1139 C1138 1.372 . S
C1139 C1140 1.400 . S
C1139 C1144 1.490 . S
C1140 H1130 0.930 . S
C1140 C1139 1.400 . S
C1140 C1143 1.386 . S
H1141 C1157 0.930 . S
H1142 C1158 0.931 . S
C1143 H1131 0.929 . S
C1143 C1137 1.390 . S
C1143 C1140 1.386 . S
C1144 C1139 1.490 . S
C1144 C1146 1.395 . S
C1144 C1147 1.403 . S
H1145 C1151 0.930 . S
C1146 H1132 0.930 . S
C1146 C1144 1.395 . S
C1146 C1149 1.403 . S
C1147 C1144 1.403 . S
C1147 C1148 1.524 . S
C1147 C1151 1.400 . S
C1148 H1133 0.960 . S
C1148 H1134 0.960 . S
C1148 H1135 0.960 . S
C1148 C1147 1.524 . S
C1149 C1146 1.403 . S
C1149 C1150 1.392 . S
C1149 C1153 1.495 . S
C1150 C1149 1.392 . S
C1150 C1151 1.385 . S
C1150 C1152 1.478 . S
C1151 H1145 0.930 . S
C1151 C1147 1.400 . S
C1151 C1150 1.385 . S
C1152 C1150 1.478 . S
C1152 C1154 1.381 . S
C1152 C1158 1.383 . S
C1153 C1149 1.495 . S
C1153 H1159 0.959 . S
C1153 H1160 0.961 . S
C1153 H1161 0.960 . S
C1154 C1152 1.381 . S
C1154 C1155 1.394 . S
C1154 H1162 0.930 . S
C1155 C1154 1.394 . S
C1155 C1156 1.383 . S
C1155 H1163 0.929 . S
C1156 C1155 1.383 . S
C1156 C1157 1.377 . S
C1157 H1141 0.930 . S
C1157 C1156 1.377 . S
C1157 C1158 1.379 . S
C1158 H1142 0.931 . S
C1158 C1152 1.383 . S
C1158 C1157 1.379 . S
H1159 C1153 0.959 . S
H1160 C1153 0.961 . S
H1161 C1153 0.960 . S
H1162 C1154 0.930 . S
H1163 C1155 0.929 . S
H1164 C1172 0.929 . S
H1165 C1174 0.930 . S
H1166 C1176 0.930 . S
H1167 C1179 0.929 . S
H1168 C1182 0.930 . S
H1169 C1184 0.960 . S
H1170 C1184 0.960 . S
H1171 C1184 0.960 . S
C1172 H1164 0.929 . S
C1172 C1173 1.377 . S
C1172 C1174 1.384 . S
C1173 C1172 1.377 . S
C1173 C1179 1.390 . S
C1174 H1165 0.930 . S
C1174 C1172 1.384 . S
C1174 C1175 1.372 . S
C1175 C1174 1.372 . S
C1175 C1176 1.400 . S
C1175 C1180 1.490 . S
C1176 H1166 0.930 . S
C1176 C1175 1.400 . S
C1176 C1179 1.386 . S
H1177 C1193 0.930 1_554 S
H1178 C1194 0.931 . S
C1179 H1167 0.929 . S
C1179 C1173 1.390 . S
C1179 C1176 1.386 . S
C1180 C1175 1.490 . S
C1180 C1182 1.395 . S
C1180 C1183 1.403 . S
H1181 C1187 0.930 . S
C1182 H1168 0.930 . S
C1182 C1180 1.395 . S
C1182 C1185 1.403 . S
C1183 C1180 1.403 . S
C1183 C1184 1.524 . S
C1183 C1187 1.400 . S
C1184 H1169 0.960 . S
C1184 H1170 0.960 . S
C1184 H1171 0.960 . S
C1184 C1183 1.524 . S
C1185 C1182 1.403 . S
C1185 C1186 1.392 . S
C1185 C1189 1.495 . S
C1186 C1185 1.392 . S
C1186 C1187 1.385 . S
C1186 C1188 1.478 . S
C1187 H1181 0.930 . S
C1187 C1183 1.400 . S
C1187 C1186 1.385 . S
C1188 C1186 1.478 . S
C1188 C1190 1.381 . S
C1188 C1194 1.383 . S
C1189 C1185 1.495 . S
C1189 H1195 0.959 . S
C1189 H1196 0.961 . S
C1189 H1197 0.960 . S
C1190 C1188 1.381 . S
C1190 C1191 1.394 . S
C1190 H1198 0.930 . S
C1191 C1190 1.394 . S
C1191 C1192 1.383 . S
C1191 H1199 0.929 . S
C1192 C1191 1.383 . S
C1192 C1193 1.377 . S
C1193 H1177 0.930 1_556 S
C1193 C1192 1.377 . S
C1193 C1194 1.379 . S
C1194 H1178 0.931 . S
C1194 C1188 1.383 . S
C1194 C1193 1.379 . S
H1195 C1189 0.959 . S
H1196 C1189 0.961 . S
H1197 C1189 0.960 . S
H1198 C1190 0.930 . S
H1199 C1191 0.929 . S
H1200 C1208 0.929 . S
H1201 C1210 0.930 . S
H1202 C1212 0.930 . S
H1203 C1215 0.929 . S
H1204 C1218 0.930 . S
H1205 C1220 0.960 . S
H1206 C1220 0.960 . S
H1207 C1220 0.960 . S
C1208 H1200 0.929 . S
C1208 C1209 1.377 . S
C1208 C1210 1.384 . S
C1209 C1208 1.377 . S
C1209 C1215 1.390 . S
C1210 H1201 0.930 . S
C1210 C1208 1.384 . S
C1210 C1211 1.372 . S
C1211 C1210 1.372 . S
C1211 C1212 1.400 . S
C1211 C1216 1.490 . S
C1212 H1202 0.930 . S
C1212 C1211 1.400 . S
C1212 C1215 1.386 . S
H1213 C1229 0.930 . S
H1214 C1230 0.931 . S
C1215 H1203 0.929 . S
C1215 C1209 1.390 . S
C1215 C1212 1.386 . S
C1216 C1211 1.490 . S
C1216 C1218 1.395 . S
C1216 C1219 1.403 . S
H1217 C1223 0.930 . S
C1218 H1204 0.930 . S
C1218 C1216 1.395 . S
C1218 C1221 1.403 . S
C1219 C1216 1.403 . S
C1219 C1220 1.524 . S
C1219 C1223 1.400 . S
C1220 H1205 0.960 . S
C1220 H1206 0.960 . S
C1220 H1207 0.960 . S
C1220 C1219 1.524 . S
C1221 C1218 1.403 . S
C1221 C1222 1.392 . S
C1221 C1225 1.495 . S
C1222 C1221 1.392 . S
C1222 C1223 1.385 . S
C1222 C1224 1.478 . S
C1223 H1217 0.930 . S
C1223 C1219 1.400 . S
C1223 C1222 1.385 . S
C1224 C1222 1.478 . S
C1224 C1226 1.381 . S
C1224 C1230 1.383 . S
C1225 C1221 1.495 . S
C1225 H1231 0.959 . S
C1225 H1232 0.961 . S
C1225 H1233 0.960 . S
C1226 C1224 1.381 . S
C1226 C1227 1.394 . S
C1226 H1234 0.930 . S
C1227 C1226 1.394 . S
C1227 C1228 1.383 . S
C1227 H1235 0.929 1_556 S
C1228 C1227 1.383 . S
C1228 C1229 1.377 . S
C1229 H1213 0.930 . S
C1229 C1228 1.377 . S
C1229 C1230 1.379 . S
C1230 H1214 0.931 . S
C1230 C1224 1.383 . S
C1230 C1229 1.379 . S
H1231 C1225 0.959 . S
H1232 C1225 0.961 . S
H1233 C1225 0.960 . S
H1234 C1226 0.930 . S
H1235 C1227 0.929 1_554 S
H1236 C1244 0.929 . S
H1237 C1246 0.930 . S
H1238 C1248 0.930 . S
H1239 C1251 0.929 . S
H1240 C1254 0.930 . S
H1241 C1256 0.960 . S
H1242 C1256 0.960 . S
H1243 C1256 0.960 . S
C1244 H1236 0.929 . S
C1244 C1245 1.377 . S
C1244 C1246 1.384 . S
C1245 C1244 1.377 . S
C1245 C1251 1.390 . S
C1246 H1237 0.930 . S
C1246 C1244 1.384 . S
C1246 C1247 1.372 . S
C1247 C1246 1.372 . S
C1247 C1248 1.400 . S
C1247 C1252 1.490 . S
C1248 H1238 0.930 . S
C1248 C1247 1.400 . S
C1248 C1251 1.386 . S
H1249 C1265 0.930 . S
H1250 C1266 0.931 . S
C1251 H1239 0.929 . S
C1251 C1245 1.390 . S
C1251 C1248 1.386 . S
C1252 C1247 1.490 . S
C1252 C1254 1.395 . S
C1252 C1255 1.403 . S
H1253 C1259 0.930 . S
C1254 H1240 0.930 . S
C1254 C1252 1.395 . S
C1254 C1257 1.403 . S
C1255 C1252 1.403 . S
C1255 C1256 1.524 . S
C1255 C1259 1.400 . S
C1256 H1241 0.960 . S
C1256 H1242 0.960 . S
C1256 H1243 0.960 . S
C1256 C1255 1.524 . S
C1257 C1254 1.403 . S
C1257 C1258 1.392 . S
C1257 C1261 1.495 . S
C1258 C1257 1.392 . S
C1258 C1259 1.385 . S
C1258 C1260 1.478 . S
C1259 H1253 0.930 . S
C1259 C1255 1.400 . S
C1259 C1258 1.385 . S
C1260 C1258 1.478 . S
C1260 C1262 1.381 . S
C1260 C1266 1.383 . S
C1261 C1257 1.495 . S
C1261 H1267 0.959 . S
C1261 H1268 0.961 . S
C1261 H1269 0.960 . S
C1262 C1260 1.381 . S
C1262 C1263 1.394 . S
C1262 H1270 0.930 . S
C1263 C1262 1.394 . S
C1263 C1264 1.383 . S
C1263 H1271 0.929 . S
C1264 C1263 1.383 . S
C1264 C1265 1.377 . S
C1265 H1249 0.930 . S
C1265 C1264 1.377 . S
C1265 C1266 1.379 . S
C1266 H1250 0.931 . S
C1266 C1260 1.383 . S
C1266 C1265 1.379 . S
H1267 C1261 0.959 . S
H1268 C1261 0.961 . S
H1269 C1261 0.960 . S
H1270 C1262 0.930 . S
H1271 C1263 0.929 . S
H1272 C1280 0.929 . S
H1273 C1282 0.930 . S
H1274 C1284 0.930 . S
H1275 C1287 0.929 . S
H1276 C1290 0.930 . S
H1277 C1292 0.960 . S
H1278 C1292 0.960 . S
H1279 C1292 0.960 . S
C1280 H1272 0.929 . S
C1280 C1281 1.377 . S
C1280 C1282 1.384 . S
C1281 C1280 1.377 . S
C1281 C1287 1.390 . S
C1282 H1273 0.930 . S
C1282 C1280 1.384 . S
C1282 C1283 1.372 . S
C1283 C1282 1.372 . S
C1283 C1284 1.400 . S
C1283 C1288 1.490 . S
C1284 H1274 0.930 . S
C1284 C1283 1.400 . S
C1284 C1287 1.386 . S
H1285 C1301 0.930 . S
H1286 C1302 0.931 . S
C1287 H1275 0.929 . S
C1287 C1281 1.390 . S
C1287 C1284 1.386 . S
C1288 C1283 1.490 . S
C1288 C1290 1.395 . S
C1288 C1291 1.403 . S
H1289 C1295 0.930 . S
C1290 H1276 0.930 . S
C1290 C1288 1.395 . S
C1290 C1293 1.403 . S
C1291 C1288 1.403 . S
C1291 C1292 1.524 . S
C1291 C1295 1.400 . S
C1292 H1277 0.960 . S
C1292 H1278 0.960 . S
C1292 H1279 0.960 . S
C1292 C1291 1.524 . S
C1293 C1290 1.403 . S
C1293 C1294 1.392 . S
C1293 C1297 1.495 . S
C1294 C1293 1.392 . S
C1294 C1295 1.385 . S
C1294 C1296 1.478 . S
C1295 H1289 0.930 . S
C1295 C1291 1.400 . S
C1295 C1294 1.385 . S
C1296 C1294 1.478 . S
C1296 C1298 1.381 . S
C1296 C1302 1.383 . S
C1297 C1293 1.495 . S
C1297 H1303 0.959 . S
C1297 H1304 0.961 . S
C1297 H1305 0.960 . S
C1298 C1296 1.381 . S
C1298 C1299 1.394 . S
C1298 H1306 0.930 . S
C1299 C1298 1.394 . S
C1299 C1300 1.383 . S
C1299 H1307 0.929 . S
C1300 C1299 1.383 . S
C1300 C1301 1.377 . S
C1301 H1285 0.930 . S
C1301 C1300 1.377 . S
C1301 C1302 1.379 . S
C1302 H1286 0.931 . S
C1302 C1296 1.383 . S
C1302 C1301 1.379 . S
H1303 C1297 0.959 . S
H1304 C1297 0.961 . S
H1305 C1297 0.960 . S
H1306 C1298 0.930 . S
H1307 C1299 0.929 . S
H1308 C1316 0.929 . S
H1309 C1318 0.930 . S
H1310 C1320 0.930 . S
H1311 C1323 0.929 . S
H1312 C1326 0.930 . S
H1313 C1328 0.960 . S
H1314 C1328 0.960 . S
H1315 C1328 0.960 . S
C1316 H1308 0.929 . S
C1316 C1317 1.377 . S
C1316 C1318 1.384 . S
C1317 C1316 1.377 . S
C1317 C1323 1.390 . S
C1318 H1309 0.930 . S
C1318 C1316 1.384 . S
C1318 C1319 1.372 . S
C1319 C1318 1.372 . S
C1319 C1320 1.400 . S
C1319 C1324 1.490 . S
C1320 H1310 0.930 . S
C1320 C1319 1.400 . S
C1320 C1323 1.386 . S
H1321 C1337 0.930 . S
H1322 C1338 0.931 . S
C1323 H1311 0.929 . S
C1323 C1317 1.390 . S
C1323 C1320 1.386 . S
C1324 C1319 1.490 . S
C1324 C1326 1.395 . S
C1324 C1327 1.403 . S
H1325 C1331 0.930 . S
C1326 H1312 0.930 . S
C1326 C1324 1.395 . S
C1326 C1329 1.403 . S
C1327 C1324 1.403 . S
C1327 C1328 1.524 . S
C1327 C1331 1.400 . S
C1328 H1313 0.960 . S
C1328 H1314 0.960 . S
C1328 H1315 0.960 . S
C1328 C1327 1.524 . S
C1329 C1326 1.403 . S
C1329 C1330 1.392 . S
C1329 C1333 1.495 . S
C1330 C1329 1.392 . S
C1330 C1331 1.385 . S
C1330 C1332 1.478 . S
C1331 H1325 0.930 . S
C1331 C1327 1.400 . S
C1331 C1330 1.385 . S
C1332 C1330 1.478 . S
C1332 C1334 1.381 . S
C1332 C1338 1.383 . S
C1333 C1329 1.495 . S
C1333 H1339 0.959 . S
C1333 H1340 0.961 . S
C1333 H1341 0.960 . S
C1334 C1332 1.381 . S
C1334 C1335 1.394 . S
C1334 H1342 0.930 . S
C1335 C1334 1.394 . S
C1335 C1336 1.383 . S
C1335 H1343 0.929 . S
C1336 C1335 1.383 . S
C1336 C1337 1.377 . S
C1337 H1321 0.930 . S
C1337 C1336 1.377 . S
C1337 C1338 1.379 . S
C1338 H1322 0.931 . S
C1338 C1332 1.383 . S
C1338 C1337 1.379 . S
H1339 C1333 0.959 . S
H1340 C1333 0.961 . S
H1341 C1333 0.960 . S
H1342 C1334 0.930 . S
H1343 C1335 0.929 . S
H1344 C1352 0.929 . S
H1345 C1354 0.930 . S
H1346 C1356 0.930 . S
H1347 C1359 0.929 . S
H1348 C1362 0.930 . S
H1349 C1364 0.960 . S
H1350 C1364 0.960 . S
H1351 C1364 0.960 . S
C1352 H1344 0.929 . S
C1352 C1353 1.377 . S
C1352 C1354 1.384 . S
C1353 C1352 1.377 . S
C1353 C1359 1.390 . S
C1354 H1345 0.930 . S
C1354 C1352 1.384 . S
C1354 C1355 1.372 . S
C1355 C1354 1.372 . S
C1355 C1356 1.400 . S
C1355 C1360 1.490 . S
C1356 H1346 0.930 . S
C1356 C1355 1.400 . S
C1356 C1359 1.386 . S
H1357 C1373 0.930 . S
H1358 C1374 0.931 . S
C1359 H1347 0.929 . S
C1359 C1353 1.390 . S
C1359 C1356 1.386 . S
C1360 C1355 1.490 . S
C1360 C1362 1.395 . S
C1360 C1363 1.403 . S
H1361 C1367 0.930 . S
C1362 H1348 0.930 . S
C1362 C1360 1.395 . S
C1362 C1365 1.403 . S
C1363 C1360 1.403 . S
C1363 C1364 1.524 . S
C1363 C1367 1.400 . S
C1364 H1349 0.960 . S
C1364 H1350 0.960 . S
C1364 H1351 0.960 . S
C1364 C1363 1.524 . S
C1365 C1362 1.403 . S
C1365 C1366 1.392 . S
C1365 C1369 1.495 . S
C1366 C1365 1.392 . S
C1366 C1367 1.385 . S
C1366 C1368 1.478 . S
C1367 H1361 0.930 . S
C1367 C1363 1.400 . S
C1367 C1366 1.385 . S
C1368 C1366 1.478 . S
C1368 C1370 1.381 . S
C1368 C1374 1.383 . S
C1369 C1365 1.495 . S
C1369 H1375 0.959 . S
C1369 H1376 0.961 . S
C1369 H1377 0.960 . S
C1370 C1368 1.381 . S
C1370 C1371 1.394 . S
C1370 H1378 0.930 . S
C1371 C1370 1.394 . S
C1371 C1372 1.383 . S
C1371 H1379 0.929 . S
C1372 C1371 1.383 . S
C1372 C1373 1.377 . S
C1373 H1357 0.930 . S
C1373 C1372 1.377 . S
C1373 C1374 1.379 . S
C1374 H1358 0.931 . S
C1374 C1368 1.383 . S
C1374 C1373 1.379 . S
H1375 C1369 0.959 . S
H1376 C1369 0.961 . S
H1377 C1369 0.960 . S
H1378 C1370 0.930 . S
H1379 C1371 0.929 . S
H1380 C1388 0.929 . S
H1381 C1390 0.930 . S
H1382 C1392 0.930 . S
H1383 C1395 0.929 . S
H1384 C1398 0.930 . S
H1385 C1400 0.960 . S
H1386 C1400 0.960 . S
H1387 C1400 0.960 . S
C1388 H1380 0.929 . S
C1388 C1389 1.377 . S
C1388 C1390 1.384 . S
C1389 C1388 1.377 . S
C1389 C1395 1.390 . S
C1390 H1381 0.930 . S
C1390 C1388 1.384 . S
C1390 C1391 1.372 . S
C1391 C1390 1.372 . S
C1391 C1392 1.400 . S
C1391 C1396 1.490 . S
C1392 H1382 0.930 . S
C1392 C1391 1.400 . S
C1392 C1395 1.386 . S
H1393 C1409 0.930 . S
H1394 C1410 0.931 . S
C1395 H1383 0.929 . S
C1395 C1389 1.390 . S
C1395 C1392 1.386 . S
C1396 C1391 1.490 . S
C1396 C1398 1.395 . S
C1396 C1399 1.403 . S
H1397 C1403 0.930 . S
C1398 H1384 0.930 . S
C1398 C1396 1.395 . S
C1398 C1401 1.403 . S
C1399 C1396 1.403 . S
C1399 C1400 1.524 . S
C1399 C1403 1.400 . S
C1400 H1385 0.960 . S
C1400 H1386 0.960 . S
C1400 H1387 0.960 . S
C1400 C1399 1.524 . S
C1401 C1398 1.403 . S
C1401 C1402 1.392 . S
C1401 C1405 1.495 . S
C1402 C1401 1.392 . S
C1402 C1403 1.385 . S
C1402 C1404 1.478 . S
C1403 H1397 0.930 . S
C1403 C1399 1.400 . S
C1403 C1402 1.385 . S
C1404 C1402 1.478 . S
C1404 C1406 1.381 . S
C1404 C1410 1.383 . S
C1405 C1401 1.495 . S
C1405 H1411 0.959 . S
C1405 H1412 0.961 . S
C1405 H1413 0.960 . S
C1406 C1404 1.381 . S
C1406 C1407 1.394 . S
C1406 H1414 0.930 . S
C1407 C1406 1.394 . S
C1407 C1408 1.383 . S
C1407 H1415 0.929 . S
C1408 C1407 1.383 . S
C1408 C1409 1.377 . S
C1409 H1393 0.930 . S
C1409 C1408 1.377 . S
C1409 C1410 1.379 . S
C1410 H1394 0.931 . S
C1410 C1404 1.383 . S
C1410 C1409 1.379 . S
H1411 C1405 0.959 . S
H1412 C1405 0.961 . S
H1413 C1405 0.960 . S
H1414 C1406 0.930 . S
H1415 C1407 0.929 . S
H1416 C1424 0.929 . S
H1417 C1426 0.930 . S
H1418 C1428 0.930 . S
H1419 C1431 0.929 . S
H1420 C1434 0.930 . S
H1421 C1436 0.960 . S
H1422 C1436 0.960 . S
H1423 C1436 0.960 . S
C1424 H1416 0.929 . S
C1424 C1425 1.377 . S
C1424 C1426 1.384 . S
C1425 C1424 1.377 . S
C1425 C1431 1.390 . S
C1426 H1417 0.930 . S
C1426 C1424 1.384 . S
C1426 C1427 1.372 . S
C1427 C1426 1.372 . S
C1427 C1428 1.400 . S
C1427 C1432 1.490 . S
C1428 H1418 0.930 . S
C1428 C1427 1.400 . S
C1428 C1431 1.386 . S
H1429 C1445 0.930 . S
H1430 C1446 0.931 . S
C1431 H1419 0.929 . S
C1431 C1425 1.390 . S
C1431 C1428 1.386 . S
C1432 C1427 1.490 . S
C1432 C1434 1.395 . S
C1432 C1435 1.403 . S
H1433 C1439 0.930 . S
C1434 H1420 0.930 . S
C1434 C1432 1.395 . S
C1434 C1437 1.403 . S
C1435 C1432 1.403 . S
C1435 C1436 1.524 . S
C1435 C1439 1.400 . S
C1436 H1421 0.960 . S
C1436 H1422 0.960 . S
C1436 H1423 0.960 . S
C1436 C1435 1.524 . S
C1437 C1434 1.403 . S
C1437 C1438 1.392 . S
C1437 C1441 1.495 . S
C1438 C1437 1.392 . S
C1438 C1439 1.385 . S
C1438 C1440 1.478 . S
C1439 H1433 0.930 . S
C1439 C1435 1.400 . S
C1439 C1438 1.385 . S
C1440 C1438 1.478 . S
C1440 C1442 1.381 . S
C1440 C1446 1.383 . S
C1441 C1437 1.495 . S
C1441 H1447 0.959 . S
C1441 H1448 0.961 . S
C1441 H1449 0.960 . S
C1442 C1440 1.381 . S
C1442 C1443 1.394 . S
C1442 H1450 0.930 . S
C1443 C1442 1.394 . S
C1443 C1444 1.383 . S
C1443 H1451 0.929 . S
C1444 C1443 1.383 . S
C1444 C1445 1.377 . S
C1445 H1429 0.930 . S
C1445 C1444 1.377 . S
C1445 C1446 1.379 . S
C1446 H1430 0.931 . S
C1446 C1440 1.383 . S
C1446 C1445 1.379 . S
H1447 C1441 0.959 . S
H1448 C1441 0.961 . S
H1449 C1441 0.960 . S
H1450 C1442 0.930 . S
H1451 C1443 0.929 . S
H1452 C1460 0.929 . S
H1453 C1462 0.930 . S
H1454 C1464 0.930 . S
H1455 C1467 0.929 . S
H1456 C1470 0.930 . S
H1457 C1472 0.960 . S
H1458 C1472 0.960 . S
H1459 C1472 0.960 . S
C1460 H1452 0.929 . S
C1460 C1461 1.377 . S
C1460 C1462 1.384 . S
C1461 C1460 1.377 . S
C1461 C1467 1.390 . S
C1462 H1453 0.930 . S
C1462 C1460 1.384 . S
C1462 C1463 1.372 . S
C1463 C1462 1.372 . S
C1463 C1464 1.400 . S
C1463 C1468 1.490 . S
C1464 H1454 0.930 . S
C1464 C1463 1.400 . S
C1464 C1467 1.386 . S
H1465 C1481 0.930 . S
H1466 C1482 0.931 . S
C1467 H1455 0.929 . S
C1467 C1461 1.390 . S
C1467 C1464 1.386 . S
C1468 C1463 1.490 . S
C1468 C1470 1.395 . S
C1468 C1471 1.403 . S
H1469 C1475 0.930 . S
C1470 H1456 0.930 . S
C1470 C1468 1.395 . S
C1470 C1473 1.403 . S
C1471 C1468 1.403 . S
C1471 C1472 1.524 . S
C1471 C1475 1.400 . S
C1472 H1457 0.960 . S
C1472 H1458 0.960 . S
C1472 H1459 0.960 . S
C1472 C1471 1.524 . S
C1473 C1470 1.403 . S
C1473 C1474 1.392 . S
C1473 C1477 1.495 . S
C1474 C1473 1.392 . S
C1474 C1475 1.385 . S
C1474 C1476 1.478 . S
C1475 H1469 0.930 . S
C1475 C1471 1.400 . S
C1475 C1474 1.385 . S
C1476 C1474 1.478 . S
C1476 C1478 1.381 . S
C1476 C1482 1.383 . S
C1477 C1473 1.495 . S
C1477 H1483 0.959 . S
C1477 H1484 0.961 . S
C1477 H1485 0.960 . S
C1478 C1476 1.381 . S
C1478 C1479 1.394 . S
C1478 H1486 0.930 . S
C1479 C1478 1.394 . S
C1479 C1480 1.383 . S
C1479 H1487 0.929 . S
C1480 C1479 1.383 . S
C1480 C1481 1.377 . S
C1481 H1465 0.930 . S
C1481 C1480 1.377 . S
C1481 C1482 1.379 . S
C1482 H1466 0.931 . S
C1482 C1476 1.383 . S
C1482 C1481 1.379 . S
H1483 C1477 0.959 . S
H1484 C1477 0.961 . S
H1485 C1477 0.960 . S
H1486 C1478 0.930 . S
H1487 C1479 0.929 . S
H1488 C1496 0.929 . S
H1489 C1498 0.930 . S
H1490 C1500 0.930 . S
H1491 C1503 0.929 . S
H1492 C1506 0.930 . S
H1493 C1508 0.960 . S
H1494 C1508 0.960 . S
H1495 C1508 0.960 . S
C1496 H1488 0.929 . S
C1496 C1497 1.377 . S
C1496 C1498 1.384 . S
C1497 C1496 1.377 . S
C1497 C1503 1.390 . S
C1498 H1489 0.930 . S
C1498 C1496 1.384 . S
C1498 C1499 1.372 . S
C1499 C1498 1.372 . S
C1499 C1500 1.400 . S
C1499 C1504 1.490 . S
C1500 H1490 0.930 . S
C1500 C1499 1.400 . S
C1500 C1503 1.386 . S
H1501 C1517 0.930 . S
H1502 C1518 0.931 . S
C1503 H1491 0.929 . S
C1503 C1497 1.390 . S
C1503 C1500 1.386 . S
C1504 C1499 1.490 . S
C1504 C1506 1.395 . S
C1504 C1507 1.403 . S
H1505 C1511 0.930 . S
C1506 H1492 0.930 . S
C1506 C1504 1.395 . S
C1506 C1509 1.403 . S
C1507 C1504 1.403 . S
C1507 C1508 1.524 . S
C1507 C1511 1.400 . S
C1508 H1493 0.960 . S
C1508 H1494 0.960 . S
C1508 H1495 0.960 . S
C1508 C1507 1.524 . S
C1509 C1506 1.403 . S
C1509 C1510 1.392 . S
C1509 C1513 1.495 . S
C1510 C1509 1.392 . S
C1510 C1511 1.385 . S
C1510 C1512 1.478 . S
C1511 H1505 0.930 . S
C1511 C1507 1.400 . S
C1511 C1510 1.385 . S
C1512 C1510 1.478 . S
C1512 C1514 1.381 . S
C1512 C1518 1.383 . S
C1513 C1509 1.495 . S
C1513 H1519 0.959 . S
C1513 H1520 0.961 . S
C1513 H1521 0.960 . S
C1514 C1512 1.381 . S
C1514 C1515 1.394 . S
C1514 H1522 0.930 . S
C1515 C1514 1.394 . S
C1515 C1516 1.383 . S
C1515 H1523 0.929 . S
C1516 C1515 1.383 . S
C1516 C1517 1.377 . S
C1517 H1501 0.930 . S
C1517 C1516 1.377 . S
C1517 C1518 1.379 . S
C1518 H1502 0.931 . S
C1518 C1512 1.383 . S
C1518 C1517 1.379 . S
H1519 C1513 0.959 . S
H1520 C1513 0.961 . S
H1521 C1513 0.960 . S
H1522 C1514 0.930 . S
H1523 C1515 0.929 . S
H1524 C1532 0.929 . S
H1525 C1534 0.930 . S
H1526 C1536 0.930 . S
H1527 C1539 0.929 1_556 S
H1528 C1542 0.930 . S
H1529 C1544 0.960 . S
H1530 C1544 0.960 . S
H1531 C1544 0.960 . S
C1532 H1524 0.929 . S
C1532 C1533 1.377 . S
C1532 C1534 1.384 . S
C1533 C1532 1.377 . S
C1533 C1539 1.390 . S
C1534 H1525 0.930 . S
C1534 C1532 1.384 . S
C1534 C1535 1.372 . S
C1535 C1534 1.372 . S
C1535 C1536 1.400 . S
C1535 C1540 1.490 . S
C1536 H1526 0.930 . S
C1536 C1535 1.400 . S
C1536 C1539 1.386 . S
H1537 C1553 0.930 . S
H1538 C1554 0.931 . S
C1539 H1527 0.929 1_554 S
C1539 C1533 1.390 . S
C1539 C1536 1.386 . S
C1540 C1535 1.490 . S
C1540 C1542 1.395 . S
C1540 C1543 1.403 . S
H1541 C1547 0.930 . S
C1542 H1528 0.930 . S
C1542 C1540 1.395 . S
C1542 C1545 1.403 . S
C1543 C1540 1.403 . S
C1543 C1544 1.524 . S
C1543 C1547 1.400 . S
C1544 H1529 0.960 . S
C1544 H1530 0.960 . S
C1544 H1531 0.960 . S
C1544 C1543 1.524 . S
C1545 C1542 1.403 . S
C1545 C1546 1.392 . S
C1545 C1549 1.495 . S
C1546 C1545 1.392 . S
C1546 C1547 1.385 . S
C1546 C1548 1.478 . S
C1547 H1541 0.930 . S
C1547 C1543 1.400 . S
C1547 C1546 1.385 . S
C1548 C1546 1.478 . S
C1548 C1550 1.381 . S
C1548 C1554 1.383 . S
C1549 C1545 1.495 . S
C1549 H1555 0.959 . S
C1549 H1556 0.961 . S
C1549 H1557 0.960 . S
C1550 C1548 1.381 . S
C1550 C1551 1.394 . S
C1550 H1558 0.930 . S
C1551 C1550 1.394 . S
C1551 C1552 1.383 . S
C1551 H1559 0.929 . S
C1552 C1551 1.383 . S
C1552 C1553 1.377 . S
C1553 H1537 0.930 . S
C1553 C1552 1.377 . S
C1553 C1554 1.379 . S
C1554 H1538 0.931 . S
C1554 C1548 1.383 . S
C1554 C1553 1.379 . S
H1555 C1549 0.959 . S
H1556 C1549 0.961 . S
H1557 C1549 0.960 . S
H1558 C1550 0.930 . S
H1559 C1551 0.929 . S
H1560 C1568 0.929 . S
H1561 C1570 0.930 . S
H1562 C1572 0.930 . S
H1563 C1575 0.929 1_554 S
H1564 C1578 0.930 . S
H1565 C1580 0.960 . S
H1566 C1580 0.960 . S
H1567 C1580 0.960 . S
C1568 H1560 0.929 . S
C1568 C1569 1.377 . S
C1568 C1570 1.384 . S
C1569 C1568 1.377 . S
C1569 C1575 1.390 . S
C1570 H1561 0.930 . S
C1570 C1568 1.384 . S
C1570 C1571 1.372 . S
C1571 C1570 1.372 . S
C1571 C1572 1.400 . S
C1571 C1576 1.490 . S
C1572 H1562 0.930 . S
C1572 C1571 1.400 . S
C1572 C1575 1.386 . S
H1573 C1589 0.930 . S
H1574 C1590 0.931 . S
C1575 H1563 0.929 1_556 S
C1575 C1569 1.390 . S
C1575 C1572 1.386 . S
C1576 C1571 1.490 . S
C1576 C1578 1.395 . S
C1576 C1579 1.403 . S
H1577 C1583 0.930 . S
C1578 H1564 0.930 . S
C1578 C1576 1.395 . S
C1578 C1581 1.403 . S
C1579 C1576 1.403 . S
C1579 C1580 1.524 . S
C1579 C1583 1.400 . S
C1580 H1565 0.960 . S
C1580 H1566 0.960 . S
C1580 H1567 0.960 . S
C1580 C1579 1.524 . S
C1581 C1578 1.403 . S
C1581 C1582 1.392 . S
C1581 C1585 1.495 . S
C1582 C1581 1.392 . S
C1582 C1583 1.385 . S
C1582 C1584 1.478 . S
C1583 H1577 0.930 . S
C1583 C1579 1.400 . S
C1583 C1582 1.385 . S
C1584 C1582 1.478 . S
C1584 C1586 1.381 . S
C1584 C1590 1.383 . S
C1585 C1581 1.495 . S
C1585 H1591 0.959 . S
C1585 H1592 0.961 . S
C1585 H1593 0.960 . S
C1586 C1584 1.381 . S
C1586 C1587 1.394 . S
C1586 H1594 0.930 . S
C1587 C1586 1.394 . S
C1587 C1588 1.383 . S
C1587 H1595 0.929 . S
C1588 C1587 1.383 . S
C1588 C1589 1.377 . S
C1589 H1573 0.930 . S
C1589 C1588 1.377 . S
C1589 C1590 1.379 . S
C1590 H1574 0.931 . S
C1590 C1584 1.383 . S
C1590 C1589 1.379 . S
H1591 C1585 0.959 . S
H1592 C1585 0.961 . S
H1593 C1585 0.960 . S
H1594 C1586 0.930 . S
H1595 C1587 0.929 . S
H1596 C1604 0.929 . S
H1597 C1606 0.930 . S
H1598 C1608 0.930 . S
H1599 C1611 0.929 . S
H1600 C1614 0.930 . S
H1601 C1616 0.960 . S
H1602 C1616 0.960 . S
H1603 C1616 0.960 . S
C1604 H1596 0.929 . S
C1604 C1605 1.377 . S
C1604 C1606 1.384 . S
C1605 C1604 1.377 . S
C1605 C1611 1.390 . S
C1606 H1597 0.930 . S
C1606 C1604 1.384 . S
C1606 C1607 1.372 . S
C1607 C1606 1.372 . S
C1607 C1608 1.400 . S
C1607 C1612 1.490 . S
C1608 H1598 0.930 . S
C1608 C1607 1.400 . S
C1608 C1611 1.386 . S
H1609 C1625 0.930 . S
H1610 C1626 0.931 . S
C1611 H1599 0.929 . S
C1611 C1605 1.390 . S
C1611 C1608 1.386 . S
C1612 C1607 1.490 . S
C1612 C1614 1.395 . S
C1612 C1615 1.403 . S
H1613 C1619 0.930 . S
C1614 H1600 0.930 . S
C1614 C1612 1.395 . S
C1614 C1617 1.403 . S
C1615 C1612 1.403 . S
C1615 C1616 1.524 . S
C1615 C1619 1.400 . S
C1616 H1601 0.960 . S
C1616 H1602 0.960 . S
C1616 H1603 0.960 . S
C1616 C1615 1.524 . S
C1617 C1614 1.403 . S
C1617 C1618 1.392 . S
C1617 C1621 1.495 . S
C1618 C1617 1.392 . S
C1618 C1619 1.385 . S
C1618 C1620 1.478 . S
C1619 H1613 0.930 . S
C1619 C1615 1.400 . S
C1619 C1618 1.385 . S
C1620 C1618 1.478 . S
C1620 C1622 1.381 . S
C1620 C1626 1.383 . S
C1621 C1617 1.495 . S
C1621 H1627 0.959 . S
C1621 H1628 0.961 . S
C1621 H1629 0.960 . S
C1622 C1620 1.381 . S
C1622 C1623 1.394 . S
C1622 H1630 0.930 . S
C1623 C1622 1.394 . S
C1623 C1624 1.383 . S
C1623 H1631 0.929 . S
C1624 C1623 1.383 . S
C1624 C1625 1.377 . S
C1625 H1609 0.930 . S
C1625 C1624 1.377 . S
C1625 C1626 1.379 . S
C1626 H1610 0.931 . S
C1626 C1620 1.383 . S
C1626 C1625 1.379 . S
H1627 C1621 0.959 . S
H1628 C1621 0.961 . S
H1629 C1621 0.960 . S
H1630 C1622 0.930 . S
H1631 C1623 0.929 . S
H1632 C1640 0.929 . S
H1633 C1642 0.930 . S
H1634 C1644 0.930 . S
H1635 C1647 0.929 . S
H1636 C1650 0.930 . S
H1637 C1652 0.960 . S
H1638 C1652 0.960 . S
H1639 C1652 0.960 . S
C1640 H1632 0.929 . S
C1640 C1641 1.377 . S
C1640 C1642 1.384 . S
C1641 C1640 1.377 . S
C1641 C1647 1.390 . S
C1642 H1633 0.930 . S
C1642 C1640 1.384 . S
C1642 C1643 1.372 . S
C1643 C1642 1.372 . S
C1643 C1644 1.400 . S
C1643 C1648 1.490 . S
C1644 H1634 0.930 . S
C1644 C1643 1.400 . S
C1644 C1647 1.386 . S
H1645 C1661 0.930 . S
H1646 C1662 0.931 . S
C1647 H1635 0.929 . S
C1647 C1641 1.390 . S
C1647 C1644 1.386 . S
C1648 C1643 1.490 . S
C1648 C1650 1.395 . S
C1648 C1651 1.403 . S
H1649 C1655 0.930 . S
C1650 H1636 0.930 . S
C1650 C1648 1.395 . S
C1650 C1653 1.403 . S
C1651 C1648 1.403 . S
C1651 C1652 1.524 . S
C1651 C1655 1.400 . S
C1652 H1637 0.960 . S
C1652 H1638 0.960 . S
C1652 H1639 0.960 . S
C1652 C1651 1.524 . S
C1653 C1650 1.403 . S
C1653 C1654 1.392 . S
C1653 C1657 1.495 . S
C1654 C1653 1.392 . S
C1654 C1655 1.385 . S
C1654 C1656 1.478 . S
C1655 H1649 0.930 . S
C1655 C1651 1.400 . S
C1655 C1654 1.385 . S
C1656 C1654 1.478 . S
C1656 C1658 1.381 . S
C1656 C1662 1.383 . S
C1657 C1653 1.495 . S
C1657 H1663 0.959 . S
C1657 H1664 0.961 . S
C1657 H1665 0.960 . S
C1658 C1656 1.381 . S
C1658 C1659 1.394 . S
C1658 H1666 0.930 . S
C1659 C1658 1.394 . S
C1659 C1660 1.383 . S
C1659 H1667 0.929 . S
C1660 C1659 1.383 . S
C1660 C1661 1.377 . S
C1661 H1645 0.930 . S
C1661 C1660 1.377 . S
C1661 C1662 1.379 . S
C1662 H1646 0.931 . S
C1662 C1656 1.383 . S
C1662 C1661 1.379 . S
H1663 C1657 0.959 . S
H1664 C1657 0.961 . S
H1665 C1657 0.960 . S
H1666 C1658 0.930 . S
H1667 C1659 0.929 . S
H1668 C1676 0.929 . S
H1669 C1678 0.930 . S
H1670 C1680 0.930 . S
H1671 C1683 0.929 . S
H1672 C1686 0.930 . S
H1673 C1688 0.960 . S
H1674 C1688 0.960 . S
H1675 C1688 0.960 . S
C1676 H1668 0.929 . S
C1676 C1677 1.377 . S
C1676 C1678 1.384 . S
C1677 C1676 1.377 . S
C1677 C1683 1.390 . S
C1678 H1669 0.930 . S
C1678 C1676 1.384 . S
C1678 C1679 1.372 . S
C1679 C1678 1.372 . S
C1679 C1680 1.400 . S
C1679 C1684 1.490 . S
C1680 H1670 0.930 . S
C1680 C1679 1.400 . S
C1680 C1683 1.386 . S
H1681 C1697 0.930 . S
H1682 C1698 0.931 . S
C1683 H1671 0.929 . S
C1683 C1677 1.390 . S
C1683 C1680 1.386 . S
C1684 C1679 1.490 . S
C1684 C1686 1.395 . S
C1684 C1687 1.403 . S
H1685 C1691 0.930 . S
C1686 H1672 0.930 . S
C1686 C1684 1.395 . S
C1686 C1689 1.403 . S
C1687 C1684 1.403 . S
C1687 C1688 1.524 . S
C1687 C1691 1.400 . S
C1688 H1673 0.960 . S
C1688 H1674 0.960 . S
C1688 H1675 0.960 . S
C1688 C1687 1.524 . S
C1689 C1686 1.403 . S
C1689 C1690 1.392 . S
C1689 C1693 1.495 . S
C1690 C1689 1.392 . S
C1690 C1691 1.385 . S
C1690 C1692 1.478 . S
C1691 H1685 0.930 . S
C1691 C1687 1.400 . S
C1691 C1690 1.385 . S
C1692 C1690 1.478 . S
C1692 C1694 1.381 . S
C1692 C1698 1.383 . S
C1693 C1689 1.495 . S
C1693 H1699 0.959 . S
C1693 H1700 0.961 . S
C1693 H1701 0.960 . S
C1694 C1692 1.381 . S
C1694 C1695 1.394 1_655 S
C1694 H1702 0.930 . S
C1695 C1694 1.394 1_455 S
C1695 C1696 1.383 . S
C1695 H1703 0.929 . S
C1696 C1695 1.383 . S
C1696 C1697 1.377 . S
C1697 H1681 0.930 . S
C1697 C1696 1.377 . S
C1697 C1698 1.379 1_455 S
C1698 H1682 0.931 . S
C1698 C1692 1.383 . S
C1698 C1697 1.379 1_655 S
H1699 C1693 0.959 . S
H1700 C1693 0.961 . S
H1701 C1693 0.960 . S
H1702 C1694 0.930 . S
H1703 C1695 0.929 . S
H1704 C1712 0.929 . S
H1705 C1714 0.930 . S
H1706 C1716 0.930 . S
H1707 C1719 0.929 . S
H1708 C1722 0.930 . S
H1709 C1724 0.960 . S
H1710 C1724 0.960 . S
H1711 C1724 0.960 . S
C1712 H1704 0.929 . S
C1712 C1713 1.377 . S
C1712 C1714 1.384 . S
C1713 C1712 1.377 . S
C1713 C1719 1.390 . S
C1714 H1705 0.930 . S
C1714 C1712 1.384 . S
C1714 C1715 1.372 . S
C1715 C1714 1.372 . S
C1715 C1716 1.400 . S
C1715 C1720 1.490 . S
C1716 H1706 0.930 . S
C1716 C1715 1.400 . S
C1716 C1719 1.386 . S
H1717 C1733 0.930 . S
H1718 C1734 0.931 . S
C1719 H1707 0.929 . S
C1719 C1713 1.390 . S
C1719 C1716 1.386 . S
C1720 C1715 1.490 . S
C1720 C1722 1.395 . S
C1720 C1723 1.403 . S
H1721 C1727 0.930 . S
C1722 H1708 0.930 . S
C1722 C1720 1.395 . S
C1722 C1725 1.403 . S
C1723 C1720 1.403 . S
C1723 C1724 1.524 . S
C1723 C1727 1.400 . S
C1724 H1709 0.960 . S
C1724 H1710 0.960 . S
C1724 H1711 0.960 . S
C1724 C1723 1.524 . S
C1725 C1722 1.403 . S
C1725 C1726 1.392 . S
C1725 C1729 1.495 . S
C1726 C1725 1.392 . S
C1726 C1727 1.385 . S
C1726 C1728 1.478 . S
C1727 H1721 0.930 . S
C1727 C1723 1.400 . S
C1727 C1726 1.385 . S
C1728 C1726 1.478 . S
C1728 C1730 1.381 . S
C1728 C1734 1.383 . S
C1729 C1725 1.495 . S
C1729 H1735 0.959 . S
C1729 H1736 0.961 . S
C1729 H1737 0.960 . S
C1730 C1728 1.381 . S
C1730 C1731 1.394 . S
C1730 H1738 0.930 . S
C1731 C1730 1.394 . S
C1731 C1732 1.383 . S
C1731 H1739 0.929 . S
C1732 C1731 1.383 . S
C1732 C1733 1.377 . S
C1733 H1717 0.930 . S
C1733 C1732 1.377 . S
C1733 C1734 1.379 . S
C1734 H1718 0.931 . S
C1734 C1728 1.383 . S
C1734 C1733 1.379 . S
H1735 C1729 0.959 . S
H1736 C1729 0.961 . S
H1737 C1729 0.960 . S
H1738 C1730 0.930 . S
H1739 C1731 0.929 . S
H1740 C1748 0.929 . S
H1741 C1750 0.930 . S
H1742 C1752 0.930 . S
H1743 C1755 0.929 . S
H1744 C1758 0.930 . S
H1745 C1760 0.960 . S
H1746 C1760 0.960 . S
H1747 C1760 0.960 . S
C1748 H1740 0.929 . S
C1748 C1749 1.377 . S
C1748 C1750 1.384 . S
C1749 C1748 1.377 . S
C1749 C1755 1.390 . S
C1750 H1741 0.930 . S
C1750 C1748 1.384 . S
C1750 C1751 1.372 . S
C1751 C1750 1.372 . S
C1751 C1752 1.400 . S
C1751 C1756 1.490 . S
C1752 H1742 0.930 . S
C1752 C1751 1.400 . S
C1752 C1755 1.386 . S
H1753 C1769 0.930 . S
H1754 C1770 0.931 . S
C1755 H1743 0.929 . S
C1755 C1749 1.390 . S
C1755 C1752 1.386 . S
C1756 C1751 1.490 . S
C1756 C1758 1.395 . S
C1756 C1759 1.403 . S
H1757 C1763 0.930 . S
C1758 H1744 0.930 . S
C1758 C1756 1.395 . S
C1758 C1761 1.403 . S
C1759 C1756 1.403 . S
C1759 C1760 1.524 . S
C1759 C1763 1.400 . S
C1760 H1745 0.960 . S
C1760 H1746 0.960 . S
C1760 H1747 0.960 . S
C1760 C1759 1.524 . S
C1761 C1758 1.403 . S
C1761 C1762 1.392 . S
C1761 C1765 1.495 . S
C1762 C1761 1.392 . S
C1762 C1763 1.385 . S
C1762 C1764 1.478 . S
C1763 H1757 0.930 . S
C1763 C1759 1.400 . S
C1763 C1762 1.385 . S
C1764 C1762 1.478 . S
C1764 C1766 1.381 . S
C1764 C1770 1.383 . S
C1765 C1761 1.495 . S
C1765 H1771 0.959 . S
C1765 H1772 0.961 . S
C1765 H1773 0.960 . S
C1766 C1764 1.381 . S
C1766 C1767 1.394 . S
C1766 H1774 0.930 . S
C1767 C1766 1.394 . S
C1767 C1768 1.383 . S
C1767 H1775 0.929 . S
C1768 C1767 1.383 . S
C1768 C1769 1.377 . S
C1769 H1753 0.930 . S
C1769 C1768 1.377 . S
C1769 C1770 1.379 . S
C1770 H1754 0.931 . S
C1770 C1764 1.383 . S
C1770 C1769 1.379 . S
H1771 C1765 0.959 . S
H1772 C1765 0.961 . S
H1773 C1765 0.960 . S
H1774 C1766 0.930 . S
H1775 C1767 0.929 . S
H1776 C1784 0.929 . S
H1777 C1786 0.930 . S
H1778 C1788 0.930 . S
H1779 C1791 0.929 . S
H1780 C1794 0.930 . S
H1781 C1796 0.960 . S
H1782 C1796 0.960 . S
H1783 C1796 0.960 . S
C1784 H1776 0.929 . S
C1784 C1785 1.377 . S
C1784 C1786 1.384 . S
C1785 C1784 1.377 . S
C1785 C1791 1.390 . S
C1786 H1777 0.930 . S
C1786 C1784 1.384 . S
C1786 C1787 1.372 . S
C1787 C1786 1.372 . S
C1787 C1788 1.400 . S
C1787 C1792 1.490 . S
C1788 H1778 0.930 . S
C1788 C1787 1.400 . S
C1788 C1791 1.386 . S
H1789 C1805 0.930 . S
H1790 C1806 0.931 . S
C1791 H1779 0.929 . S
C1791 C1785 1.390 . S
C1791 C1788 1.386 . S
C1792 C1787 1.490 . S
C1792 C1794 1.395 . S
C1792 C1795 1.403 . S
H1793 C1799 0.930 . S
C1794 H1780 0.930 . S
C1794 C1792 1.395 . S
C1794 C1797 1.403 . S
C1795 C1792 1.403 . S
C1795 C1796 1.524 . S
C1795 C1799 1.400 . S
C1796 H1781 0.960 . S
C1796 H1782 0.960 . S
C1796 H1783 0.960 . S
C1796 C1795 1.524 . S
C1797 C1794 1.403 . S
C1797 C1798 1.392 . S
C1797 C1801 1.495 . S
C1798 C1797 1.392 . S
C1798 C1799 1.385 . S
C1798 C1800 1.478 . S
C1799 H1793 0.930 . S
C1799 C1795 1.400 . S
C1799 C1798 1.385 . S
C1800 C1798 1.478 . S
C1800 C1802 1.381 . S
C1800 C1806 1.383 . S
C1801 C1797 1.495 . S
C1801 H1807 0.959 . S
C1801 H1808 0.961 . S
C1801 H1809 0.960 . S
C1802 C1800 1.381 . S
C1802 C1803 1.394 . S
C1802 H1810 0.930 . S
C1803 C1802 1.394 . S
C1803 C1804 1.383 . S
C1803 H1811 0.929 . S
C1804 C1803 1.383 . S
C1804 C1805 1.377 . S
C1805 H1789 0.930 . S
C1805 C1804 1.377 . S
C1805 C1806 1.379 . S
C1806 H1790 0.931 . S
C1806 C1800 1.383 . S
C1806 C1805 1.379 . S
H1807 C1801 0.959 . S
H1808 C1801 0.961 . S
H1809 C1801 0.960 . S
H1810 C1802 0.930 . S
H1811 C1803 0.929 . S
H1812 C1820 0.929 . S
H1813 C1822 0.930 . S
H1814 C1824 0.930 . S
H1815 C1827 0.929 . S
H1816 C1830 0.930 . S
H1817 C1832 0.960 . S
H1818 C1832 0.960 . S
H1819 C1832 0.960 . S
C1820 H1812 0.929 . S
C1820 C1821 1.377 . S
C1820 C1822 1.384 . S
C1821 C1820 1.377 . S
C1821 C1827 1.390 . S
C1822 H1813 0.930 . S
C1822 C1820 1.384 . S
C1822 C1823 1.372 . S
C1823 C1822 1.372 . S
C1823 C1824 1.400 . S
C1823 C1828 1.490 . S
C1824 H1814 0.930 . S
C1824 C1823 1.400 . S
C1824 C1827 1.386 . S
H1825 C1841 0.930 . S
H1826 C1842 0.931 . S
C1827 H1815 0.929 . S
C1827 C1821 1.390 . S
C1827 C1824 1.386 . S
C1828 C1823 1.490 . S
C1828 C1830 1.395 . S
C1828 C1831 1.403 . S
H1829 C1835 0.930 . S
C1830 H1816 0.930 . S
C1830 C1828 1.395 . S
C1830 C1833 1.403 . S
C1831 C1828 1.403 . S
C1831 C1832 1.524 . S
C1831 C1835 1.400 . S
C1832 H1817 0.960 . S
C1832 H1818 0.960 . S
C1832 H1819 0.960 . S
C1832 C1831 1.524 . S
C1833 C1830 1.403 . S
C1833 C1834 1.392 . S
C1833 C1837 1.495 . S
C1834 C1833 1.392 . S
C1834 C1835 1.385 . S
C1834 C1836 1.478 . S
C1835 H1829 0.930 . S
C1835 C1831 1.400 . S
C1835 C1834 1.385 . S
C1836 C1834 1.478 . S
C1836 C1838 1.381 . S
C1836 C1842 1.383 . S
C1837 C1833 1.495 . S
C1837 H1843 0.959 . S
C1837 H1844 0.961 . S
C1837 H1845 0.960 . S
C1838 C1836 1.381 . S
C1838 C1839 1.394 . S
C1838 H1846 0.930 . S
C1839 C1838 1.394 . S
C1839 C1840 1.383 . S
C1839 H1847 0.929 . S
C1840 C1839 1.383 . S
C1840 C1841 1.377 . S
C1841 H1825 0.930 . S
C1841 C1840 1.377 . S
C1841 C1842 1.379 . S
C1842 H1826 0.931 . S
C1842 C1836 1.383 . S
C1842 C1841 1.379 . S
H1843 C1837 0.959 . S
H1844 C1837 0.961 . S
H1845 C1837 0.960 . S
H1846 C1838 0.930 . S
H1847 C1839 0.929 . S
H1848 C1856 0.929 . S
H1849 C1858 0.930 . S
H1850 C1860 0.930 . S
H1851 C1863 0.929 . S
H1852 C1866 0.930 . S
H1853 C1868 0.960 . S
H1854 C1868 0.960 . S
H1855 C1868 0.960 . S
C1856 H1848 0.929 . S
C1856 C1857 1.377 . S
C1856 C1858 1.384 . S
C1857 C1856 1.377 . S
C1857 C1863 1.390 . S
C1858 H1849 0.930 . S
C1858 C1856 1.384 . S
C1858 C1859 1.372 . S
C1859 C1858 1.372 . S
C1859 C1860 1.400 . S
C1859 C1864 1.490 . S
C1860 H1850 0.930 . S
C1860 C1859 1.400 . S
C1860 C1863 1.386 . S
H1861 C1877 0.930 . S
H1862 C1878 0.931 . S
C1863 H1851 0.929 . S
C1863 C1857 1.390 . S
C1863 C1860 1.386 . S
C1864 C1859 1.490 . S
C1864 C1866 1.395 . S
C1864 C1867 1.403 . S
H1865 C1871 0.930 . S
C1866 H1852 0.930 . S
C1866 C1864 1.395 . S
C1866 C1869 1.403 . S
C1867 C1864 1.403 . S
C1867 C1868 1.524 . S
C1867 C1871 1.400 . S
C1868 H1853 0.960 . S
C1868 H1854 0.960 . S
C1868 H1855 0.960 . S
C1868 C1867 1.524 . S
C1869 C1866 1.403 . S
C1869 C1870 1.392 . S
C1869 C1873 1.495 . S
C1870 C1869 1.392 . S
C1870 C1871 1.385 . S
C1870 C1872 1.478 . S
C1871 H1865 0.930 . S
C1871 C1867 1.400 . S
C1871 C1870 1.385 . S
C1872 C1870 1.478 . S
C1872 C1874 1.381 . S
C1872 C1878 1.383 . S
C1873 C1869 1.495 . S
C1873 H1879 0.959 . S
C1873 H1880 0.961 . S
C1873 H1881 0.960 . S
C1874 C1872 1.381 . S
C1874 C1875 1.394 . S
C1874 H1882 0.930 . S
C1875 C1874 1.394 . S
C1875 C1876 1.383 . S
C1875 H1883 0.929 . S
C1876 C1875 1.383 . S
C1876 C1877 1.377 . S
C1877 H1861 0.930 . S
C1877 C1876 1.377 . S
C1877 C1878 1.379 . S
C1878 H1862 0.931 . S
C1878 C1872 1.383 . S
C1878 C1877 1.379 . S
H1879 C1873 0.959 . S
H1880 C1873 0.961 . S
H1881 C1873 0.960 . S
H1882 C1874 0.930 . S
H1883 C1875 0.929 . S
H1884 C1892 0.929 . S
H1885 C1894 0.930 . S
H1886 C1896 0.930 . S
H1887 C1899 0.929 . S
H1888 C1902 0.930 . S
H1889 C1904 0.960 . S
H1890 C1904 0.960 . S
H1891 C1904 0.960 . S
C1892 H1884 0.929 . S
C1892 C1893 1.377 . S
C1892 C1894 1.384 . S
C1893 C1892 1.377 . S
C1893 C1899 1.390 . S
C1894 H1885 0.930 . S
C1894 C1892 1.384 . S
C1894 C1895 1.372 . S
C1895 C1894 1.372 . S
C1895 C1896 1.400 . S
C1895 C1900 1.490 . S
C1896 H1886 0.930 . S
C1896 C1895 1.400 . S
C1896 C1899 1.386 . S
H1897 C1913 0.918 1_455 S
H1898 C1914 0.931 . S
C1899 H1887 0.929 . S
C1899 C1893 1.390 . S
C1899 C1896 1.386 . S
C1900 C1895 1.490 . S
C1900 C1902 1.395 . S
C1900 C1903 1.403 . S
H1901 C1907 0.930 . S
C1902 H1888 0.930 . S
C1902 C1900 1.395 . S
C1902 C1905 1.403 . S
C1903 C1900 1.403 . S
C1903 C1904 1.524 . S
C1903 C1907 1.400 . S
C1904 H1889 0.960 . S
C1904 H1890 0.960 . S
C1904 H1891 0.960 . S
C1904 C1903 1.524 . S
C1905 C1902 1.403 . S
C1905 C1906 1.392 . S
C1905 C1909 1.495 . S
C1906 C1905 1.392 . S
C1906 C1907 1.385 . S
C1906 C1908 1.478 . S
C1907 H1901 0.930 . S
C1907 C1903 1.400 . S
C1907 C1906 1.385 . S
C1908 C1906 1.478 . S
C1908 C1910 1.381 . S
C1908 C1914 1.383 . S
C1909 C1905 1.495 . S
C1909 H1915 0.959 . S
C1909 H1916 0.961 . S
C1909 H1917 0.960 . S
C1910 C1908 1.381 . S
C1910 C1911 1.394 1_655 S
C1910 H1918 0.930 . S
C1911 C1910 1.394 1_455 S
C1911 C1912 1.383 . S
C1911 H1919 0.929 . S
C1912 C1911 1.383 . S
C1912 C1913 1.326 1_455 S
C1913 H1897 0.918 1_655 S
C1913 C1912 1.326 1_655 S
C1913 C1914 1.445 . S
C1914 H1898 0.931 . S
C1914 C1908 1.383 . S
C1914 C1913 1.445 . S
H1915 C1909 0.959 . S
H1916 C1909 0.961 . S
H1917 C1909 0.960 . S
H1918 C1910 0.930 . S
H1919 C1911 0.929 . S
H1920 C1928 0.929 . S
H1921 C1930 0.930 . S
H1922 C1932 0.930 . S
H1923 C1935 0.929 . S
H1924 C1938 0.930 . S
H1925 C1940 0.960 . S
H1926 C1940 0.960 . S
H1927 C1940 0.960 . S
C1928 H1920 0.929 . S
C1928 C1929 1.377 . S
C1928 C1930 1.384 . S
C1929 C1928 1.377 . S
C1929 C1935 1.390 . S
C1930 H1921 0.930 . S
C1930 C1928 1.384 . S
C1930 C1931 1.372 . S
C1931 C1930 1.372 . S
C1931 C1932 1.400 . S
C1931 C1936 1.490 . S
C1932 H1922 0.930 . S
C1932 C1931 1.400 . S
C1932 C1935 1.386 . S
H1933 C1949 0.930 . S
H1934 C1950 0.931 . S
C1935 H1923 0.929 . S
C1935 C1929 1.390 . S
C1935 C1932 1.386 . S
C1936 C1931 1.490 . S
C1936 C1938 1.395 . S
C1936 C1939 1.403 . S
H1937 C1943 0.930 . S
C1938 H1924 0.930 . S
C1938 C1936 1.395 . S
C1938 C1941 1.403 . S
C1939 C1936 1.403 . S
C1939 C1940 1.524 . S
C1939 C1943 1.400 . S
C1940 H1925 0.960 . S
C1940 H1926 0.960 . S
C1940 H1927 0.960 . S
C1940 C1939 1.524 . S
C1941 C1938 1.403 . S
C1941 C1942 1.392 . S
C1941 C1945 1.495 . S
C1942 C1941 1.392 . S
C1942 C1943 1.385 . S
C1942 C1944 1.478 . S
C1943 H1937 0.930 . S
C1943 C1939 1.400 . S
C1943 C1942 1.385 . S
C1944 C1942 1.478 . S
C1944 C1946 1.381 . S
C1944 C1950 1.383 . S
C1945 C1941 1.495 . S
C1945 H1951 0.959 . S
C1945 H1952 0.961 . S
C1945 H1953 0.960 . S
C1946 C1944 1.381 . S
C1946 C1947 1.394 . S
C1946 H1954 0.930 . S
C1947 C1946 1.394 . S
C1947 C1948 1.383 . S
C1947 H1955 0.929 . S
C1948 C1947 1.383 . S
C1948 C1949 1.377 . S
C1949 H1933 0.930 . S
C1949 C1948 1.377 . S
C1949 C1950 1.379 . S
C1950 H1934 0.931 . S
C1950 C1944 1.383 . S
C1950 C1949 1.379 . S
H1951 C1945 0.959 . S
H1952 C1945 0.961 . S
H1953 C1945 0.960 . S
H1954 C1946 0.930 . S
H1955 C1947 0.929 . S
H1956 C1964 0.929 . S
H1957 C1966 0.930 . S
H1958 C1968 0.930 . S
H1959 C1971 0.951 . S
H1960 C1974 0.930 . S
H1961 C1976 0.960 . S
H1962 C1976 0.960 . S
H1963 C1976 0.960 . S
C1964 H1956 0.929 . S
C1964 C1965 1.377 . S
C1964 C1966 1.384 1_655 S
C1965 C1964 1.377 . S
C1965 C1971 1.426 . S
C1966 H1957 0.930 . S
C1966 C1964 1.384 1_455 S
C1966 C1967 1.372 . S
C1967 C1966 1.372 . S
C1967 C1968 1.400 . S
C1967 C1972 1.490 . S
C1968 H1958 0.930 . S
C1968 C1967 1.400 . S
C1968 C1971 1.330 1_455 S
H1969 C1985 0.930 . S
H1970 C1986 0.931 . S
C1971 H1959 0.951 . S
C1971 C1965 1.426 . S
C1971 C1968 1.330 1_655 S
C1972 C1967 1.490 . S
C1972 C1974 1.395 . S
C1972 C1975 1.403 . S
H1973 C1979 0.930 . S
C1974 H1960 0.930 . S
C1974 C1972 1.395 . S
C1974 C1977 1.403 . S
C1975 C1972 1.403 . S
C1975 C1976 1.524 . S
C1975 C1979 1.400 . S
C1976 H1961 0.960 . S
C1976 H1962 0.960 . S
C1976 H1963 0.960 . S
C1976 C1975 1.524 . S
C1977 C1974 1.403 . S
C1977 C1978 1.392 . S
C1977 C1981 1.495 . S
C1978 C1977 1.392 . S
C1978 C1979 1.385 . S
C1978 C1980 1.478 . S
C1979 H1973 0.930 . S
C1979 C1975 1.400 . S
C1979 C1978 1.385 . S
C1980 C1978 1.478 . S
C1980 C1982 1.381 . S
C1980 C1986 1.383 . S
C1981 C1977 1.495 . S
C1981 H1987 0.959 . S
C1981 H1988 0.961 . S
C1981 H1989 0.960 . S
C1982 C1980 1.381 . S
C1982 C1983 1.394 . S
C1982 H1990 0.930 . S
C1983 C1982 1.394 . S
C1983 C1984 1.383 . S
C1983 H1991 0.929 . S
C1984 C1983 1.383 . S
C1984 C1985 1.377 . S
C1985 H1969 0.930 . S
C1985 C1984 1.377 . S
C1985 C1986 1.379 . S
C1986 H1970 0.931 . S
C1986 C1980 1.383 . S
C1986 C1985 1.379 . S
H1987 C1981 0.959 . S
H1988 C1981 0.961 . S
H1989 C1981 0.960 . S
H1990 C1982 0.930 . S
H1991 C1983 0.929 . S
H1992 C2000 0.929 . S
H1993 C2002 0.930 . S
H1994 C2004 0.930 . S
H1995 C2007 0.929 . S
H1996 C2010 0.930 . S
H1997 C2012 0.960 . S
H1998 C2012 0.960 . S
H1999 C2012 0.960 . S
C2000 H1992 0.929 . S
C2000 C2001 1.377 . S
C2000 C2002 1.384 . S
C2001 C2000 1.377 . S
C2001 C2007 1.390 . S
C2002 H1993 0.930 . S
C2002 C2000 1.384 . S
C2002 C2003 1.372 . S
C2003 C2002 1.372 . S
C2003 C2004 1.400 . S
C2003 C2008 1.490 . S
C2004 H1994 0.930 . S
C2004 C2003 1.400 . S
C2004 C2007 1.386 . S
H2005 C2021 0.930 . S
H2006 C2022 0.931 . S
C2007 H1995 0.929 . S
C2007 C2001 1.390 . S
C2007 C2004 1.386 . S
C2008 C2003 1.490 . S
C2008 C2010 1.395 . S
C2008 C2011 1.403 . S
H2009 C2015 0.930 . S
C2010 H1996 0.930 . S
C2010 C2008 1.395 . S
C2010 C2013 1.403 . S
C2011 C2008 1.403 . S
C2011 C2012 1.524 . S
C2011 C2015 1.400 . S
C2012 H1997 0.960 . S
C2012 H1998 0.960 . S
C2012 H1999 0.960 . S
C2012 C2011 1.524 . S
C2013 C2010 1.403 . S
C2013 C2014 1.392 . S
C2013 C2017 1.495 . S
C2014 C2013 1.392 . S
C2014 C2015 1.385 . S
C2014 C2016 1.478 . S
C2015 H2009 0.930 . S
C2015 C2011 1.400 . S
C2015 C2014 1.385 . S
C2016 C2014 1.478 . S
C2016 C2018 1.381 . S
C2016 C2022 1.383 . S
C2017 C2013 1.495 . S
C2017 H2023 0.959 . S
C2017 H2024 0.961 . S
C2017 H2025 0.960 . S
C2018 C2016 1.381 . S
C2018 C2019 1.394 . S
C2018 H2026 0.930 . S
C2019 C2018 1.394 . S
C2019 C2020 1.383 . S
C2019 H2027 0.929 . S
C2020 C2019 1.383 . S
C2020 C2021 1.377 . S
C2021 H2005 0.930 . S
C2021 C2020 1.377 . S
C2021 C2022 1.379 . S
C2022 H2006 0.931 . S
C2022 C2016 1.383 . S
C2022 C2021 1.379 . S
H2023 C2017 0.959 . S
H2024 C2017 0.961 . S
H2025 C2017 0.960 . S
H2026 C2018 0.930 . S
H2027 C2019 0.929 . S
H2028 C2036 0.929 . S
H2029 C2038 0.930 . S
H2030 C2040 0.930 . S
H2031 C2043 0.929 . S
H2032 C2046 0.930 . S
H2033 C2048 0.960 . S
H2034 C2048 0.960 . S
H2035 C2048 0.960 . S
C2036 H2028 0.929 . S
C2036 C2037 1.377 . S
C2036 C2038 1.384 . S
C2037 C2036 1.377 . S
C2037 C2043 1.390 . S
C2038 H2029 0.930 . S
C2038 C2036 1.384 . S
C2038 C2039 1.372 . S
C2039 C2038 1.372 . S
C2039 C2040 1.400 . S
C2039 C2044 1.490 . S
C2040 H2030 0.930 . S
C2040 C2039 1.400 . S
C2040 C2043 1.386 . S
H2041 C2057 0.930 . S
H2042 C2058 0.931 . S
C2043 H2031 0.929 . S
C2043 C2037 1.390 . S
C2043 C2040 1.386 . S
C2044 C2039 1.490 . S
C2044 C2046 1.395 . S
C2044 C2047 1.403 . S
H2045 C2051 0.930 . S
C2046 H2032 0.930 . S
C2046 C2044 1.395 . S
C2046 C2049 1.403 . S
C2047 C2044 1.403 . S
C2047 C2048 1.524 . S
C2047 C2051 1.400 . S
C2048 H2033 0.960 . S
C2048 H2034 0.960 . S
C2048 H2035 0.960 . S
C2048 C2047 1.524 . S
C2049 C2046 1.403 . S
C2049 C2050 1.392 . S
C2049 C2053 1.495 . S
C2050 C2049 1.392 . S
C2050 C2051 1.385 . S
C2050 C2052 1.478 . S
C2051 H2045 0.930 . S
C2051 C2047 1.400 . S
C2051 C2050 1.385 . S
C2052 C2050 1.478 . S
C2052 C2054 1.381 . S
C2052 C2058 1.383 . S
C2053 C2049 1.495 . S
C2053 H2059 0.959 . S
C2053 H2060 0.961 . S
C2053 H2061 0.960 . S
C2054 C2052 1.381 . S
C2054 C2055 1.394 . S
C2054 H2062 0.930 . S
C2055 C2054 1.394 . S
C2055 C2056 1.383 . S
C2055 H2063 0.929 . S
C2056 C2055 1.383 . S
C2056 C2057 1.377 . S
C2057 H2041 0.930 . S
C2057 C2056 1.377 . S
C2057 C2058 1.379 . S
C2058 H2042 0.931 . S
C2058 C2052 1.383 . S
C2058 C2057 1.379 . S
H2059 C2053 0.959 . S
H2060 C2053 0.961 . S
H2061 C2053 0.960 . S
H2062 C2054 0.930 . S
H2063 C2055 0.929 . S
H2064 C2072 0.929 . S
H2065 C2074 0.930 . S
H2066 C2076 0.930 . S
H2067 C2079 0.929 . S
H2068 C2082 0.930 . S
H2069 C2084 0.960 . S
H2070 C2084 0.960 . S
H2071 C2084 0.960 . S
C2072 H2064 0.929 . S
C2072 C2073 1.377 . S
C2072 C2074 1.384 . S
C2073 C2072 1.377 . S
C2073 C2079 1.390 . S
C2074 H2065 0.930 . S
C2074 C2072 1.384 . S
C2074 C2075 1.372 . S
C2075 C2074 1.372 . S
C2075 C2076 1.400 . S
C2075 C2080 1.490 . S
C2076 H2066 0.930 . S
C2076 C2075 1.400 . S
C2076 C2079 1.386 . S
H2077 C2093 0.930 . S
H2078 C2094 0.931 . S
C2079 H2067 0.929 . S
C2079 C2073 1.390 . S
C2079 C2076 1.386 . S
C2080 C2075 1.490 . S
C2080 C2082 1.395 . S
C2080 C2083 1.403 . S
H2081 C2087 0.930 . S
C2082 H2068 0.930 . S
C2082 C2080 1.395 . S
C2082 C2085 1.403 . S
C2083 C2080 1.403 . S
C2083 C2084 1.524 . S
C2083 C2087 1.400 . S
C2084 H2069 0.960 . S
C2084 H2070 0.960 . S
C2084 H2071 0.960 . S
C2084 C2083 1.524 . S
C2085 C2082 1.403 . S
C2085 C2086 1.392 . S
C2085 C2089 1.495 . S
C2086 C2085 1.392 . S
C2086 C2087 1.385 . S
C2086 C2088 1.478 . S
C2087 H2081 0.930 . S
C2087 C2083 1.400 . S
C2087 C2086 1.385 . S
C2088 C2086 1.478 . S
C2088 C2090 1.381 . S
C2088 C2094 1.383 . S
C2089 C2085 1.495 . S
C2089 H2095 0.959 . S
C2089 H2096 0.961 . S
C2089 H2097 0.960 . S
C2090 C2088 1.381 . S
C2090 C2091 1.394 . S
C2090 H2098 0.930 . S
C2091 C2090 1.394 . S
C2091 C2092 1.383 . S
C2091 H2099 0.929 . S
C2092 C2091 1.383 . S
C2092 C2093 1.377 . S
C2093 H2077 0.930 . S
C2093 C2092 1.377 . S
C2093 C2094 1.379 . S
C2094 H2078 0.931 . S
C2094 C2088 1.383 . S
C2094 C2093 1.379 . S
H2095 C2089 0.959 . S
H2096 C2089 0.961 . S
H2097 C2089 0.960 . S
H2098 C2090 0.930 . S
H2099 C2091 0.929 . S
H2100 C2108 0.929 . S
H2101 C2110 0.930 . S
H2102 C2112 0.930 . S
H2103 C2115 0.929 . S
H2104 C2118 0.930 . S
H2105 C2120 0.960 . S
H2106 C2120 0.960 . S
H2107 C2120 0.960 . S
C2108 H2100 0.929 . S
C2108 C2109 1.377 . S
C2108 C2110 1.384 . S
C2109 C2108 1.377 . S
C2109 C2115 1.390 . S
C2110 H2101 0.930 . S
C2110 C2108 1.384 . S
C2110 C2111 1.372 . S
C2111 C2110 1.372 . S
C2111 C2112 1.400 . S
C2111 C2116 1.490 . S
C2112 H2102 0.930 . S
C2112 C2111 1.400 . S
C2112 C2115 1.386 . S
H2113 C2129 0.930 . S
H2114 C2130 0.931 . S
C2115 H2103 0.929 . S
C2115 C2109 1.390 . S
C2115 C2112 1.386 . S
C2116 C2111 1.490 . S
C2116 C2118 1.395 . S
C2116 C2119 1.403 . S
H2117 C2123 0.930 . S
C2118 H2104 0.930 . S
C2118 C2116 1.395 . S
C2118 C2121 1.403 . S
C2119 C2116 1.403 . S
C2119 C2120 1.524 . S
C2119 C2123 1.400 . S
C2120 H2105 0.960 . S
C2120 H2106 0.960 . S
C2120 H2107 0.960 . S
C2120 C2119 1.524 . S
C2121 C2118 1.403 . S
C2121 C2122 1.392 . S
C2121 C2125 1.495 . S
C2122 C2121 1.392 . S
C2122 C2123 1.385 . S
C2122 C2124 1.478 . S
C2123 H2117 0.930 . S
C2123 C2119 1.400 . S
C2123 C2122 1.385 . S
C2124 C2122 1.478 . S
C2124 C2126 1.381 . S
C2124 C2130 1.383 . S
C2125 C2121 1.495 . S
C2125 H2131 0.959 . S
C2125 H2132 0.961 . S
C2125 H2133 0.960 . S
C2126 C2124 1.381 . S
C2126 C2127 1.394 . S
C2126 H2134 0.930 . S
C2127 C2126 1.394 . S
C2127 C2128 1.383 . S
C2127 H2135 0.929 . S
C2128 C2127 1.383 . S
C2128 C2129 1.377 . S
C2129 H2113 0.930 . S
C2129 C2128 1.377 . S
C2129 C2130 1.379 . S
C2130 H2114 0.931 . S
C2130 C2124 1.383 . S
C2130 C2129 1.379 . S
H2131 C2125 0.959 . S
H2132 C2125 0.961 . S
H2133 C2125 0.960 . S
H2134 C2126 0.930 . S
H2135 C2127 0.929 . S
H2136 C2144 0.929 . S
H2137 C2146 0.930 . S
H2138 C2148 0.930 . S
H2139 C2151 0.929 . S
H2140 C2154 0.930 . S
H2141 C2156 0.960 . S
H2142 C2156 0.960 . S
H2143 C2156 0.960 . S
C2144 H2136 0.929 . S
C2144 C2145 1.377 . S
C2144 C2146 1.384 . S
C2145 C2144 1.377 . S
C2145 C2151 1.390 . S
C2146 H2137 0.930 . S
C2146 C2144 1.384 . S
C2146 C2147 1.372 . S
C2147 C2146 1.372 . S
C2147 C2148 1.400 . S
C2147 C2152 1.490 . S
C2148 H2138 0.930 . S
C2148 C2147 1.400 . S
C2148 C2151 1.386 . S
H2149 C2165 0.930 . S
H2150 C2166 0.931 . S
C2151 H2139 0.929 . S
C2151 C2145 1.390 . S
C2151 C2148 1.386 . S
C2152 C2147 1.490 . S
C2152 C2154 1.395 . S
C2152 C2155 1.403 . S
H2153 C2159 0.930 . S
C2154 H2140 0.930 . S
C2154 C2152 1.395 . S
C2154 C2157 1.403 . S
C2155 C2152 1.403 . S
C2155 C2156 1.524 . S
C2155 C2159 1.400 . S
C2156 H2141 0.960 . S
C2156 H2142 0.960 . S
C2156 H2143 0.960 . S
C2156 C2155 1.524 . S
C2157 C2154 1.403 . S
C2157 C2158 1.392 . S
C2157 C2161 1.495 . S
C2158 C2157 1.392 . S
C2158 C2159 1.385 . S
C2158 C2160 1.478 . S
C2159 H2153 0.930 . S
C2159 C2155 1.400 . S
C2159 C2158 1.385 . S
C2160 C2158 1.478 . S
C2160 C2162 1.381 . S
C2160 C2166 1.383 . S
C2161 C2157 1.495 . S
C2161 H2167 0.959 . S
C2161 H2168 0.961 . S
C2161 H2169 0.960 . S
C2162 C2160 1.381 . S
C2162 C2163 1.394 . S
C2162 H2170 0.930 . S
C2163 C2162 1.394 . S
C2163 C2164 1.383 . S
C2163 H2171 0.929 . S
C2164 C2163 1.383 . S
C2164 C2165 1.377 . S
C2165 H2149 0.930 . S
C2165 C2164 1.377 . S
C2165 C2166 1.379 . S
C2166 H2150 0.931 . S
C2166 C2160 1.383 . S
C2166 C2165 1.379 . S
H2167 C2161 0.959 . S
H2168 C2161 0.961 . S
H2169 C2161 0.960 . S
H2170 C2162 0.930 . S
H2171 C2163 0.929 . S
H2172 C2180 0.943 . S
H2173 C2182 0.930 . S
H2174 C2184 0.930 . S
H2175 C2187 0.929 . S
H2176 C2190 0.930 . S
H2177 C2192 0.960 . S
H2178 C2192 0.960 . S
H2179 C2192 0.960 . S
C2180 H2172 0.943 . S
C2180 C2181 1.402 . S
C2180 C2182 1.347 1_655 S
C2181 C2180 1.402 . S
C2181 C2187 1.390 . S
C2182 H2173 0.930 . S
C2182 C2180 1.347 1_455 S
C2182 C2183 1.372 . S
C2183 C2182 1.372 . S
C2183 C2184 1.400 . S
C2183 C2188 1.490 . S
C2184 H2174 0.930 . S
C2184 C2183 1.400 . S
C2184 C2187 1.386 1_455 S
H2185 C2201 0.930 . S
H2186 C2202 0.931 . S
C2187 H2175 0.929 . S
C2187 C2181 1.390 . S
C2187 C2184 1.386 1_655 S
C2188 C2183 1.490 . S
C2188 C2190 1.395 . S
C2188 C2191 1.403 . S
H2189 C2195 0.930 . S
C2190 H2176 0.930 . S
C2190 C2188 1.395 . S
C2190 C2193 1.403 . S
C2191 C2188 1.403 . S
C2191 C2192 1.524 . S
C2191 C2195 1.400 . S
C2192 H2177 0.960 . S
C2192 H2178 0.960 . S
C2192 H2179 0.960 . S
C2192 C2191 1.524 . S
C2193 C2190 1.403 . S
C2193 C2194 1.392 . S
C2193 C2197 1.495 . S
C2194 C2193 1.392 . S
C2194 C2195 1.385 . S
C2194 C2196 1.478 . S
C2195 H2189 0.930 . S
C2195 C2191 1.400 . S
C2195 C2194 1.385 . S
C2196 C2194 1.478 . S
C2196 C2198 1.381 . S
C2196 C2202 1.383 . S
C2197 C2193 1.495 . S
C2197 H2203 0.959 . S
C2197 H2204 0.961 . S
C2197 H2205 0.960 . S
C2198 C2196 1.381 . S
C2198 C2199 1.394 . S
C2198 H2206 0.930 . S
C2199 C2198 1.394 . S
C2199 C2200 1.383 . S
C2199 H2207 0.929 . S
C2200 C2199 1.383 . S
C2200 C2201 1.377 . S
C2201 H2185 0.930 . S
C2201 C2200 1.377 . S
C2201 C2202 1.379 . S
C2202 H2186 0.931 . S
C2202 C2196 1.383 . S
C2202 C2201 1.379 . S
H2203 C2197 0.959 . S
H2204 C2197 0.961 . S
H2205 C2197 0.960 . S
H2206 C2198 0.930 . S
H2207 C2199 0.929 . S
H2208 C2216 0.929 . S
H2209 C2218 0.930 . S
H2210 C2220 0.930 . S
H2211 C2223 0.929 . S
H2212 C2226 0.930 . S
H2213 C2228 0.960 . S
H2214 C2228 0.960 . S
H2215 C2228 0.960 . S
C2216 H2208 0.929 . S
C2216 C2217 1.377 . S
C2216 C2218 1.384 . S
C2217 C2216 1.377 . S
C2217 C2223 1.390 . S
C2218 H2209 0.930 . S
C2218 C2216 1.384 . S
C2218 C2219 1.372 . S
C2219 C2218 1.372 . S
C2219 C2220 1.400 . S
C2219 C2224 1.490 . S
C2220 H2210 0.930 . S
C2220 C2219 1.400 . S
C2220 C2223 1.386 . S
H2221 C2237 0.930 . S
H2222 C2238 0.931 . S
C2223 H2211 0.929 . S
C2223 C2217 1.390 . S
C2223 C2220 1.386 . S
C2224 C2219 1.490 . S
C2224 C2226 1.395 . S
C2224 C2227 1.403 . S
H2225 C2231 0.930 . S
C2226 H2212 0.930 . S
C2226 C2224 1.395 . S
C2226 C2229 1.403 . S
C2227 C2224 1.403 . S
C2227 C2228 1.524 . S
C2227 C2231 1.400 . S
C2228 H2213 0.960 . S
C2228 H2214 0.960 . S
C2228 H2215 0.960 . S
C2228 C2227 1.524 . S
C2229 C2226 1.403 . S
C2229 C2230 1.392 . S
C2229 C2233 1.495 . S
C2230 C2229 1.392 . S
C2230 C2231 1.385 . S
C2230 C2232 1.478 . S
C2231 H2225 0.930 . S
C2231 C2227 1.400 . S
C2231 C2230 1.385 . S
C2232 C2230 1.478 . S
C2232 C2234 1.381 . S
C2232 C2238 1.383 . S
C2233 C2229 1.495 . S
C2233 H2239 0.959 . S
C2233 H2240 0.961 . S
C2233 H2241 0.960 . S
C2234 C2232 1.381 . S
C2234 C2235 1.394 . S
C2234 H2242 0.930 . S
C2235 C2234 1.394 . S
C2235 C2236 1.383 . S
C2235 H2243 0.929 . S
C2236 C2235 1.383 . S
C2236 C2237 1.377 . S
C2237 H2221 0.930 . S
C2237 C2236 1.377 . S
C2237 C2238 1.379 . S
C2238 H2222 0.931 . S
C2238 C2232 1.383 . S
C2238 C2237 1.379 . S
H2239 C2233 0.959 . S
H2240 C2233 0.961 . S
H2241 C2233 0.960 . S
H2242 C2234 0.930 . S
H2243 C2235 0.929 . S
H2244 C2252 0.929 . S
H2245 C2254 0.930 . S
H2246 C2256 0.930 . S
H2247 C2259 0.929 . S
H2248 C2262 0.930 . S
H2249 C2264 0.960 . S
H2250 C2264 0.960 . S
H2251 C2264 0.960 . S
C2252 H2244 0.929 . S
C2252 C2253 1.377 . S
C2252 C2254 1.384 . S
C2253 C2252 1.377 . S
C2253 C2259 1.390 . S
C2254 H2245 0.930 . S
C2254 C2252 1.384 . S
C2254 C2255 1.372 . S
C2255 C2254 1.372 . S
C2255 C2256 1.400 . S
C2255 C2260 1.490 . S
C2256 H2246 0.930 . S
C2256 C2255 1.400 . S
C2256 C2259 1.386 . S
H2257 C2273 0.930 . S
H2258 C2274 0.931 . S
C2259 H2247 0.929 . S
C2259 C2253 1.390 . S
C2259 C2256 1.386 . S
C2260 C2255 1.490 . S
C2260 C2262 1.395 . S
C2260 C2263 1.403 . S
H2261 C2267 0.930 . S
C2262 H2248 0.930 . S
C2262 C2260 1.395 . S
C2262 C2265 1.403 . S
C2263 C2260 1.403 . S
C2263 C2264 1.524 . S
C2263 C2267 1.400 . S
C2264 H2249 0.960 . S
C2264 H2250 0.960 . S
C2264 H2251 0.960 . S
C2264 C2263 1.524 . S
C2265 C2262 1.403 . S
C2265 C2266 1.392 . S
C2265 C2269 1.495 . S
C2266 C2265 1.392 . S
C2266 C2267 1.385 . S
C2266 C2268 1.478 . S
C2267 H2261 0.930 . S
C2267 C2263 1.400 . S
C2267 C2266 1.385 . S
C2268 C2266 1.478 . S
C2268 C2270 1.381 . S
C2268 C2274 1.383 . S
C2269 C2265 1.495 . S
C2269 H2275 0.959 . S
C2269 H2276 0.961 . S
C2269 H2277 0.960 . S
C2270 C2268 1.381 . S
C2270 C2271 1.394 . S
C2270 H2278 0.930 . S
C2271 C2270 1.394 . S
C2271 C2272 1.383 . S
C2271 H2279 0.929 . S
C2272 C2271 1.383 . S
C2272 C2273 1.377 . S
C2273 H2257 0.930 . S
C2273 C2272 1.377 . S
C2273 C2274 1.379 . S
C2274 H2258 0.931 . S
C2274 C2268 1.383 . S
C2274 C2273 1.379 . S
H2275 C2269 0.959 . S
H2276 C2269 0.961 . S
H2277 C2269 0.960 . S
H2278 C2270 0.930 . S
H2279 C2271 0.929 . S
H2280 C2288 0.929 . S
H2281 C2290 0.930 . S
H2282 C2292 0.930 . S
H2283 C2295 0.929 . S
H2284 C2298 0.930 . S
H2285 C2300 0.960 . S
H2286 C2300 0.960 . S
H2287 C2300 0.960 . S
C2288 H2280 0.929 . S
C2288 C2289 1.377 . S
C2288 C2290 1.384 . S
C2289 C2288 1.377 . S
C2289 C2295 1.390 . S
C2290 H2281 0.930 . S
C2290 C2288 1.384 . S
C2290 C2291 1.372 . S
C2291 C2290 1.372 . S
C2291 C2292 1.400 . S
C2291 C2296 1.490 . S
C2292 H2282 0.930 . S
C2292 C2291 1.400 . S
C2292 C2295 1.386 . S
H2293 C2309 0.930 . S
H2294 C2310 0.931 . S
C2295 H2283 0.929 . S
C2295 C2289 1.390 . S
C2295 C2292 1.386 . S
C2296 C2291 1.490 . S
C2296 C2298 1.395 . S
C2296 C2299 1.403 . S
H2297 C2303 0.930 . S
C2298 H2284 0.930 . S
C2298 C2296 1.395 . S
C2298 C2301 1.403 . S
C2299 C2296 1.403 . S
C2299 C2300 1.524 . S
C2299 C2303 1.400 . S
C2300 H2285 0.960 . S
C2300 H2286 0.960 . S
C2300 H2287 0.960 . S
C2300 C2299 1.524 . S
C2301 C2298 1.403 . S
C2301 C2302 1.392 . S
C2301 C2305 1.495 . S
C2302 C2301 1.392 . S
C2302 C2303 1.385 . S
C2302 C2304 1.478 . S
C2303 H2297 0.930 . S
C2303 C2299 1.400 . S
C2303 C2302 1.385 . S
C2304 C2302 1.478 . S
C2304 C2306 1.381 . S
C2304 C2310 1.383 . S
C2305 C2301 1.495 . S
C2305 H2311 0.959 . S
C2305 H2312 0.961 . S
C2305 H2313 0.960 . S
C2306 C2304 1.381 . S
C2306 C2307 1.394 . S
C2306 H2314 0.930 . S
C2307 C2306 1.394 . S
C2307 C2308 1.383 . S
C2307 H2315 0.929 . S
C2308 C2307 1.383 . S
C2308 C2309 1.377 . S
C2309 H2293 0.930 . S
C2309 C2308 1.377 . S
C2309 C2310 1.379 . S
C2310 H2294 0.931 . S
C2310 C2304 1.383 . S
C2310 C2309 1.379 . S
H2311 C2305 0.959 . S
H2312 C2305 0.961 . S
H2313 C2305 0.960 . S
H2314 C2306 0.930 . S
H2315 C2307 0.929 . S
H2316 C2324 0.917 1_655 S
H2317 C2326 0.930 . S
H2318 C2328 0.930 . S
H2319 C2331 0.929 . S
H2320 C2334 0.930 . S
H2321 C2336 0.960 . S
H2322 C2336 0.960 . S
H2323 C2336 0.960 . S
C2324 H2316 0.917 1_455 S
C2324 C2325 1.338 1_455 S
C2324 C2326 1.437 . S
C2325 C2324 1.338 1_655 S
C2325 C2331 1.390 . S
C2326 H2317 0.930 . S
C2326 C2324 1.437 . S
C2326 C2327 1.372 . S
C2327 C2326 1.372 . S
C2327 C2328 1.400 . S
C2327 C2332 1.490 . S
C2328 H2318 0.930 . S
C2328 C2327 1.400 . S
C2328 C2331 1.386 1_455 S
H2329 C2345 0.930 . S
H2330 C2346 0.931 . S
C2331 H2319 0.929 . S
C2331 C2325 1.390 . S
C2331 C2328 1.386 1_655 S
C2332 C2327 1.490 . S
C2332 C2334 1.395 . S
C2332 C2335 1.403 . S
H2333 C2339 0.930 . S
C2334 H2320 0.930 . S
C2334 C2332 1.395 . S
C2334 C2337 1.403 . S
C2335 C2332 1.403 . S
C2335 C2336 1.524 . S
C2335 C2339 1.400 . S
C2336 H2321 0.960 . S
C2336 H2322 0.960 . S
C2336 H2323 0.960 . S
C2336 C2335 1.524 . S
C2337 C2334 1.403 . S
C2337 C2338 1.392 . S
C2337 C2341 1.495 . S
C2338 C2337 1.392 . S
C2338 C2339 1.385 . S
C2338 C2340 1.478 . S
C2339 H2333 0.930 . S
C2339 C2335 1.400 . S
C2339 C2338 1.385 . S
C2340 C2338 1.478 . S
C2340 C2342 1.381 . S
C2340 C2346 1.383 . S
C2341 C2337 1.495 . S
C2341 H2347 0.959 . S
C2341 H2348 0.961 . S
C2341 H2349 0.960 . S
C2342 C2340 1.381 . S
C2342 C2343 1.394 . S
C2342 H2350 0.930 . S
C2343 C2342 1.394 . S
C2343 C2344 1.383 . S
C2343 H2351 0.929 . S
C2344 C2343 1.383 . S
C2344 C2345 1.377 . S
C2345 H2329 0.930 . S
C2345 C2344 1.377 . S
C2345 C2346 1.379 . S
C2346 H2330 0.931 . S
C2346 C2340 1.383 . S
C2346 C2345 1.379 . S
H2347 C2341 0.959 . S
H2348 C2341 0.961 . S
H2349 C2341 0.960 . S
H2350 C2342 0.930 . S
H2351 C2343 0.929 . S
H2352 C2360 0.929 . S
H2353 C2362 0.930 . S
H2354 C2364 0.930 . S
H2355 C2367 0.929 . S
H2356 C2370 0.930 . S
H2357 C2372 0.960 . S
H2358 C2372 0.960 . S
H2359 C2372 0.960 . S
C2360 H2352 0.929 . S
C2360 C2361 1.377 . S
C2360 C2362 1.384 . S
C2361 C2360 1.377 . S
C2361 C2367 1.390 . S
C2362 H2353 0.930 . S
C2362 C2360 1.384 . S
C2362 C2363 1.372 . S
C2363 C2362 1.372 . S
C2363 C2364 1.400 . S
C2363 C2368 1.490 . S
C2364 H2354 0.930 . S
C2364 C2363 1.400 . S
C2364 C2367 1.386 . S
H2365 C2381 0.930 . S
H2366 C2382 0.931 . S
C2367 H2355 0.929 . S
C2367 C2361 1.390 . S
C2367 C2364 1.386 . S
C2368 C2363 1.490 . S
C2368 C2370 1.395 . S
C2368 C2371 1.403 . S
H2369 C2375 0.930 . S
C2370 H2356 0.930 . S
C2370 C2368 1.395 . S
C2370 C2373 1.403 . S
C2371 C2368 1.403 . S
C2371 C2372 1.524 . S
C2371 C2375 1.400 . S
C2372 H2357 0.960 . S
C2372 H2358 0.960 . S
C2372 H2359 0.960 . S
C2372 C2371 1.524 . S
C2373 C2370 1.403 . S
C2373 C2374 1.392 . S
C2373 C2377 1.495 . S
C2374 C2373 1.392 . S
C2374 C2375 1.385 . S
C2374 C2376 1.478 . S
C2375 H2369 0.930 . S
C2375 C2371 1.400 . S
C2375 C2374 1.385 . S
C2376 C2374 1.478 . S
C2376 C2378 1.381 . S
C2376 C2382 1.383 . S
C2377 C2373 1.495 . S
C2377 H2383 0.959 . S
C2377 H2384 0.961 . S
C2377 H2385 0.960 . S
C2378 C2376 1.381 . S
C2378 C2379 1.394 . S
C2378 H2386 0.930 . S
C2379 C2378 1.394 . S
C2379 C2380 1.383 . S
C2379 H2387 0.929 . S
C2380 C2379 1.383 . S
C2380 C2381 1.377 . S
C2381 H2365 0.930 . S
C2381 C2380 1.377 . S
C2381 C2382 1.379 . S
C2382 H2366 0.931 . S
C2382 C2376 1.383 . S
C2382 C2381 1.379 . S
H2383 C2377 0.959 . S
H2384 C2377 0.961 . S
H2385 C2377 0.960 . S
H2386 C2378 0.930 . S
H2387 C2379 0.929 . S
H2388 C2396 0.929 . S
H2389 C2398 0.930 . S
H2390 C2400 0.930 . S
H2391 C2403 0.929 . S
H2392 C2406 0.930 . S
H2393 C2408 0.960 . S
H2394 C2408 0.960 . S
H2395 C2408 0.960 . S
C2396 H2388 0.929 . S
C2396 C2397 1.377 . S
C2396 C2398 1.384 . S
C2397 C2396 1.377 . S
C2397 C2403 1.390 . S
C2398 H2389 0.930 . S
C2398 C2396 1.384 . S
C2398 C2399 1.372 . S
C2399 C2398 1.372 . S
C2399 C2400 1.400 . S
C2399 C2404 1.490 . S
C2400 H2390 0.930 . S
C2400 C2399 1.400 . S
C2400 C2403 1.386 . S
H2401 C2417 0.934 . S
H2402 C2418 0.931 . S
C2403 H2391 0.929 . S
C2403 C2397 1.390 . S
C2403 C2400 1.386 . S
C2404 C2399 1.490 . S
C2404 C2406 1.395 . S
C2404 C2407 1.403 . S
H2405 C2411 0.930 . S
C2406 H2392 0.930 . S
C2406 C2404 1.395 . S
C2406 C2409 1.403 . S
C2407 C2404 1.403 . S
C2407 C2408 1.524 . S
C2407 C2411 1.400 . S
C2408 H2393 0.960 . S
C2408 H2394 0.960 . S
C2408 H2395 0.960 . S
C2408 C2407 1.524 . S
C2409 C2406 1.403 . S
C2409 C2410 1.392 . S
C2409 C2413 1.495 . S
C2410 C2409 1.392 . S
C2410 C2411 1.385 . S
C2410 C2412 1.478 . S
C2411 H2405 0.930 . S
C2411 C2407 1.400 . S
C2411 C2410 1.385 . S
C2412 C2410 1.478 . S
C2412 C2414 1.381 . S
C2412 C2418 1.383 . S
C2413 C2409 1.495 . S
C2413 H2419 0.959 . S
C2413 H2420 0.961 . S
C2413 H2421 0.960 . S
C2414 C2412 1.381 . S
C2414 C2415 1.394 1_455 S
C2414 H2422 0.930 . S
C2415 C2414 1.394 1_655 S
C2415 C2416 1.383 . S
C2415 H2423 0.929 . S
C2416 C2415 1.383 . S
C2416 C2417 1.389 . S
C2417 H2401 0.934 . S
C2417 C2416 1.389 . S
C2417 C2418 1.363 1_655 S
C2418 H2402 0.931 . S
C2418 C2412 1.383 . S
C2418 C2417 1.363 1_455 S
H2419 C2413 0.959 . S
H2420 C2413 0.961 . S
H2421 C2413 0.960 . S
H2422 C2414 0.930 . S
H2423 C2415 0.929 . S
H2424 C2432 0.929 . S
H2425 C2434 0.930 . S
H2426 C2436 0.930 . S
H2427 C2439 0.929 . S
H2428 C2442 0.930 . S
H2429 C2444 0.960 . S
H2430 C2444 0.960 . S
H2431 C2444 0.960 . S
C2432 H2424 0.929 . S
C2432 C2433 1.377 . S
C2432 C2434 1.384 . S
C2433 C2432 1.377 . S
C2433 C2439 1.390 . S
C2434 H2425 0.930 . S
C2434 C2432 1.384 . S
C2434 C2435 1.372 . S
C2435 C2434 1.372 . S
C2435 C2436 1.400 . S
C2435 C2440 1.490 . S
C2436 H2426 0.930 . S
C2436 C2435 1.400 . S
C2436 C2439 1.386 . S
H2437 C2453 0.930 . S
H2438 C2454 0.931 . S
C2439 H2427 0.929 . S
C2439 C2433 1.390 . S
C2439 C2436 1.386 . S
C2440 C2435 1.490 . S
C2440 C2442 1.395 . S
C2440 C2443 1.403 . S
H2441 C2447 0.930 . S
C2442 H2428 0.930 . S
C2442 C2440 1.395 . S
C2442 C2445 1.403 . S
C2443 C2440 1.403 . S
C2443 C2444 1.524 . S
C2443 C2447 1.400 . S
C2444 H2429 0.960 . S
C2444 H2430 0.960 . S
C2444 H2431 0.960 . S
C2444 C2443 1.524 . S
C2445 C2442 1.403 . S
C2445 C2446 1.392 . S
C2445 C2449 1.495 . S
C2446 C2445 1.392 . S
C2446 C2447 1.385 . S
C2446 C2448 1.478 . S
C2447 H2441 0.930 . S
C2447 C2443 1.400 . S
C2447 C2446 1.385 . S
C2448 C2446 1.478 . S
C2448 C2450 1.381 . S
C2448 C2454 1.383 . S
C2449 C2445 1.495 . S
C2449 H2455 0.959 . S
C2449 H2456 0.961 . S
C2449 H2457 0.960 . S
C2450 C2448 1.381 . S
C2450 C2451 1.394 . S
C2450 H2458 0.930 . S
C2451 C2450 1.394 . S
C2451 C2452 1.383 . S
C2451 H2459 0.929 . S
C2452 C2451 1.383 . S
C2452 C2453 1.377 . S
C2453 H2437 0.930 . S
C2453 C2452 1.377 . S
C2453 C2454 1.379 . S
C2454 H2438 0.931 . S
C2454 C2448 1.383 . S
C2454 C2453 1.379 . S
H2455 C2449 0.959 . S
H2456 C2449 0.961 . S
H2457 C2449 0.960 . S
H2458 C2450 0.930 . S
H2459 C2451 0.929 . S
H2460 C2468 0.929 . S
H2461 C2470 0.930 . S
H2462 C2472 0.930 . S
H2463 C2475 0.929 . S
H2464 C2478 0.930 . S
H2465 C2480 0.960 . S
H2466 C2480 0.960 . S
H2467 C2480 0.960 . S
C2468 H2460 0.929 . S
C2468 C2469 1.377 . S
C2468 C2470 1.384 . S
C2469 C2468 1.377 . S
C2469 C2475 1.390 . S
C2470 H2461 0.930 . S
C2470 C2468 1.384 . S
C2470 C2471 1.372 . S
C2471 C2470 1.372 . S
C2471 C2472 1.400 . S
C2471 C2476 1.490 . S
C2472 H2462 0.930 . S
C2472 C2471 1.400 . S
C2472 C2475 1.386 . S
H2473 C2489 0.930 . S
H2474 C2490 0.931 . S
C2475 H2463 0.929 . S
C2475 C2469 1.390 . S
C2475 C2472 1.386 . S
C2476 C2471 1.490 . S
C2476 C2478 1.395 . S
C2476 C2479 1.403 . S
H2477 C2483 0.930 . S
C2478 H2464 0.930 . S
C2478 C2476 1.395 . S
C2478 C2481 1.403 . S
C2479 C2476 1.403 . S
C2479 C2480 1.524 . S
C2479 C2483 1.400 . S
C2480 H2465 0.960 . S
C2480 H2466 0.960 . S
C2480 H2467 0.960 . S
C2480 C2479 1.524 . S
C2481 C2478 1.403 . S
C2481 C2482 1.392 . S
C2481 C2485 1.495 . S
C2482 C2481 1.392 . S
C2482 C2483 1.385 . S
C2482 C2484 1.478 . S
C2483 H2477 0.930 . S
C2483 C2479 1.400 . S
C2483 C2482 1.385 . S
C2484 C2482 1.478 . S
C2484 C2486 1.381 . S
C2484 C2490 1.383 . S
C2485 C2481 1.495 . S
C2485 H2491 0.959 . S
C2485 H2492 0.961 . S
C2485 H2493 0.960 . S
C2486 C2484 1.381 . S
C2486 C2487 1.394 . S
C2486 H2494 0.930 . S
C2487 C2486 1.394 . S
C2487 C2488 1.383 . S
C2487 H2495 0.929 . S
C2488 C2487 1.383 . S
C2488 C2489 1.377 . S
C2489 H2473 0.930 . S
C2489 C2488 1.377 . S
C2489 C2490 1.379 . S
C2490 H2474 0.931 . S
C2490 C2484 1.383 . S
C2490 C2489 1.379 . S
H2491 C2485 0.959 . S
H2492 C2485 0.961 . S
H2493 C2485 0.960 . S
H2494 C2486 0.930 . S
H2495 C2487 0.929 . S
H2496 C2504 0.929 . S
H2497 C2506 0.930 . S
H2498 C2508 0.930 . S
H2499 C2511 0.929 . S
H2500 C2514 0.930 . S
H2501 C2516 0.960 . S
H2502 C2516 0.960 . S
H2503 C2516 0.960 . S
C2504 H2496 0.929 . S
C2504 C2505 1.377 . S
C2504 C2506 1.384 . S
C2505 C2504 1.377 . S
C2505 C2511 1.390 . S
C2506 H2497 0.930 . S
C2506 C2504 1.384 . S
C2506 C2507 1.372 . S
C2507 C2506 1.372 . S
C2507 C2508 1.400 . S
C2507 C2512 1.490 . S
C2508 H2498 0.930 . S
C2508 C2507 1.400 . S
C2508 C2511 1.386 . S
H2509 C2525 0.930 . S
H2510 C2526 0.931 . S
C2511 H2499 0.929 . S
C2511 C2505 1.390 . S
C2511 C2508 1.386 . S
C2512 C2507 1.490 . S
C2512 C2514 1.395 . S
C2512 C2515 1.403 . S
H2513 C2519 0.930 . S
C2514 H2500 0.930 . S
C2514 C2512 1.395 . S
C2514 C2517 1.403 . S
C2515 C2512 1.403 . S
C2515 C2516 1.524 . S
C2515 C2519 1.400 . S
C2516 H2501 0.960 . S
C2516 H2502 0.960 . S
C2516 H2503 0.960 . S
C2516 C2515 1.524 . S
C2517 C2514 1.403 . S
C2517 C2518 1.392 . S
C2517 C2521 1.495 . S
C2518 C2517 1.392 . S
C2518 C2519 1.385 . S
C2518 C2520 1.478 . S
C2519 H2513 0.930 . S
C2519 C2515 1.400 . S
C2519 C2518 1.385 . S
C2520 C2518 1.478 . S
C2520 C2522 1.381 . S
C2520 C2526 1.383 . S
C2521 C2517 1.495 . S
C2521 H2527 0.959 . S
C2521 H2528 0.961 . S
C2521 H2529 0.960 . S
C2522 C2520 1.381 . S
C2522 C2523 1.394 . S
C2522 H2530 0.930 . S
C2523 C2522 1.394 . S
C2523 C2524 1.383 . S
C2523 H2531 0.929 . S
C2524 C2523 1.383 . S
C2524 C2525 1.377 . S
C2525 H2509 0.930 . S
C2525 C2524 1.377 . S
C2525 C2526 1.379 . S
C2526 H2510 0.931 . S
C2526 C2520 1.383 . S
C2526 C2525 1.379 . S
H2527 C2521 0.959 . S
H2528 C2521 0.961 . S
H2529 C2521 0.960 . S
H2530 C2522 0.930 . S
H2531 C2523 0.929 . S
H2532 C2540 0.929 . S
H2533 C2542 0.930 . S
H2534 C2544 0.930 . S
H2535 C2547 0.929 . S
H2536 C2550 0.930 . S
H2537 C2552 0.960 . S
H2538 C2552 0.960 . S
H2539 C2552 0.960 . S
C2540 H2532 0.929 . S
C2540 C2541 1.377 . S
C2540 C2542 1.384 . S
C2541 C2540 1.377 . S
C2541 C2547 1.390 . S
C2542 H2533 0.930 . S
C2542 C2540 1.384 . S
C2542 C2543 1.372 . S
C2543 C2542 1.372 . S
C2543 C2544 1.400 . S
C2543 C2548 1.490 . S
C2544 H2534 0.930 . S
C2544 C2543 1.400 . S
C2544 C2547 1.386 . S
H2545 C2561 0.930 . S
H2546 C2562 0.931 . S
C2547 H2535 0.929 . S
C2547 C2541 1.390 . S
C2547 C2544 1.386 . S
C2548 C2543 1.490 . S
C2548 C2550 1.395 . S
C2548 C2551 1.403 . S
H2549 C2555 0.930 . S
C2550 H2536 0.930 . S
C2550 C2548 1.395 . S
C2550 C2553 1.403 . S
C2551 C2548 1.403 . S
C2551 C2552 1.524 . S
C2551 C2555 1.400 . S
C2552 H2537 0.960 . S
C2552 H2538 0.960 . S
C2552 H2539 0.960 . S
C2552 C2551 1.524 . S
C2553 C2550 1.403 . S
C2553 C2554 1.392 . S
C2553 C2557 1.495 . S
C2554 C2553 1.392 . S
C2554 C2555 1.385 . S
C2554 C2556 1.478 . S
C2555 H2549 0.930 . S
C2555 C2551 1.400 . S
C2555 C2554 1.385 . S
C2556 C2554 1.478 . S
C2556 C2558 1.381 . S
C2556 C2562 1.383 . S
C2557 C2553 1.495 . S
C2557 H2563 0.959 . S
C2557 H2564 0.961 . S
C2557 H2565 0.960 . S
C2558 C2556 1.381 . S
C2558 C2559 1.394 . S
C2558 H2566 0.930 . S
C2559 C2558 1.394 . S
C2559 C2560 1.383 . S
C2559 H2567 0.929 . S
C2560 C2559 1.383 . S
C2560 C2561 1.377 . S
C2561 H2545 0.930 . S
C2561 C2560 1.377 . S
C2561 C2562 1.379 . S
C2562 H2546 0.931 . S
C2562 C2556 1.383 . S
C2562 C2561 1.379 . S
H2563 C2557 0.959 . S
H2564 C2557 0.961 . S
H2565 C2557 0.960 . S
H2566 C2558 0.930 . S
H2567 C2559 0.929 . S
H2568 C2576 0.929 . S
H2569 C2578 0.930 . S
H2570 C2580 0.930 . S
H2571 C2583 0.929 . S
H2572 C2586 0.930 . S
H2573 C2588 0.960 . S
H2574 C2588 0.960 . S
H2575 C2588 0.960 . S
C2576 H2568 0.929 . S
C2576 C2577 1.377 . S
C2576 C2578 1.384 . S
C2577 C2576 1.377 . S
C2577 C2583 1.390 . S
C2578 H2569 0.930 . S
C2578 C2576 1.384 . S
C2578 C2579 1.372 . S
C2579 C2578 1.372 . S
C2579 C2580 1.400 . S
C2579 C2584 1.490 . S
C2580 H2570 0.930 . S
C2580 C2579 1.400 . S
C2580 C2583 1.386 . S
H2581 C2597 0.930 . S
H2582 C2598 0.931 . S
C2583 H2571 0.929 . S
C2583 C2577 1.390 . S
C2583 C2580 1.386 . S
C2584 C2579 1.490 . S
C2584 C2586 1.395 . S
C2584 C2587 1.403 . S
H2585 C2591 0.930 . S
C2586 H2572 0.930 . S
C2586 C2584 1.395 . S
C2586 C2589 1.403 . S
C2587 C2584 1.403 . S
C2587 C2588 1.524 . S
C2587 C2591 1.400 . S
C2588 H2573 0.960 . S
C2588 H2574 0.960 . S
C2588 H2575 0.960 . S
C2588 C2587 1.524 . S
C2589 C2586 1.403 . S
C2589 C2590 1.392 . S
C2589 C2593 1.495 . S
C2590 C2589 1.392 . S
C2590 C2591 1.385 . S
C2590 C2592 1.478 . S
C2591 H2585 0.930 . S
C2591 C2587 1.400 . S
C2591 C2590 1.385 . S
C2592 C2590 1.478 . S
C2592 C2594 1.381 . S
C2592 C2598 1.383 . S
C2593 C2589 1.495 . S
C2593 H2599 0.959 . S
C2593 H2600 0.961 . S
C2593 H2601 0.960 . S
C2594 C2592 1.381 . S
C2594 C2595 1.394 . S
C2594 H2602 0.930 . S
C2595 C2594 1.394 . S
C2595 C2596 1.383 . S
C2595 H2603 0.929 . S
C2596 C2595 1.383 . S
C2596 C2597 1.377 . S
C2597 H2581 0.930 . S
C2597 C2596 1.377 . S
C2597 C2598 1.379 . S
C2598 H2582 0.931 . S
C2598 C2592 1.383 . S
C2598 C2597 1.379 . S
H2599 C2593 0.959 . S
H2600 C2593 0.961 . S
H2601 C2593 0.960 . S
H2602 C2594 0.930 . S
H2603 C2595 0.929 . S
H2604 C2612 0.929 . S
H2605 C2614 0.930 . S
H2606 C2616 0.930 . S
H2607 C2619 0.929 . S
H2608 C2622 0.930 . S
H2609 C2624 0.960 . S
H2610 C2624 0.960 . S
H2611 C2624 0.960 . S
C2612 H2604 0.929 . S
C2612 C2613 1.377 . S
C2612 C2614 1.384 . S
C2613 C2612 1.377 . S
C2613 C2619 1.390 . S
C2614 H2605 0.930 . S
C2614 C2612 1.384 . S
C2614 C2615 1.372 . S
C2615 C2614 1.372 . S
C2615 C2616 1.400 . S
C2615 C2620 1.490 . S
C2616 H2606 0.930 . S
C2616 C2615 1.400 . S
C2616 C2619 1.386 . S
H2617 C2633 0.930 . S
H2618 C2634 0.931 . S
C2619 H2607 0.929 . S
C2619 C2613 1.390 . S
C2619 C2616 1.386 . S
C2620 C2615 1.490 . S
C2620 C2622 1.395 . S
C2620 C2623 1.403 . S
H2621 C2627 0.930 . S
C2622 H2608 0.930 . S
C2622 C2620 1.395 . S
C2622 C2625 1.403 . S
C2623 C2620 1.403 . S
C2623 C2624 1.524 . S
C2623 C2627 1.400 . S
C2624 H2609 0.960 . S
C2624 H2610 0.960 . S
C2624 H2611 0.960 . S
C2624 C2623 1.524 . S
C2625 C2622 1.403 . S
C2625 C2626 1.392 . S
C2625 C2629 1.495 . S
C2626 C2625 1.392 . S
C2626 C2627 1.385 . S
C2626 C2628 1.478 . S
C2627 H2621 0.930 . S
C2627 C2623 1.400 . S
C2627 C2626 1.385 . S
C2628 C2626 1.478 . S
C2628 C2630 1.381 . S
C2628 C2634 1.383 . S
C2629 C2625 1.495 . S
C2629 H2635 0.959 . S
C2629 H2636 0.961 . S
C2629 H2637 0.960 . S
C2630 C2628 1.381 . S
C2630 C2631 1.394 1_655 S
C2630 H2638 0.930 . S
C2631 C2630 1.394 1_455 S
C2631 C2632 1.383 . S
C2631 H2639 0.929 . S
C2632 C2631 1.383 . S
C2632 C2633 1.377 . S
C2633 H2617 0.930 . S
C2633 C2632 1.377 . S
C2633 C2634 1.379 1_455 S
C2634 H2618 0.931 . S
C2634 C2628 1.383 . S
C2634 C2633 1.379 1_655 S
H2635 C2629 0.959 . S
H2636 C2629 0.961 . S
H2637 C2629 0.960 . S
H2638 C2630 0.930 . S
H2639 C2631 0.929 . S
H2640 C2648 0.929 . S
H2641 C2650 0.930 . S
H2642 C2652 0.930 . S
H2643 C2655 0.929 . S
H2644 C2658 0.930 . S
H2645 C2660 0.960 . S
H2646 C2660 0.960 . S
H2647 C2660 0.960 . S
C2648 H2640 0.929 . S
C2648 C2649 1.377 . S
C2648 C2650 1.384 . S
C2649 C2648 1.377 . S
C2649 C2655 1.390 . S
C2650 H2641 0.930 . S
C2650 C2648 1.384 . S
C2650 C2651 1.372 . S
C2651 C2650 1.372 . S
C2651 C2652 1.400 . S
C2651 C2656 1.490 . S
C2652 H2642 0.930 . S
C2652 C2651 1.400 . S
C2652 C2655 1.386 . S
H2653 C2669 0.930 . S
H2654 C2670 0.931 . S
C2655 H2643 0.929 . S
C2655 C2649 1.390 . S
C2655 C2652 1.386 . S
C2656 C2651 1.490 . S
C2656 C2658 1.395 . S
C2656 C2659 1.403 . S
H2657 C2663 0.930 . S
C2658 H2644 0.930 . S
C2658 C2656 1.395 . S
C2658 C2661 1.403 . S
C2659 C2656 1.403 . S
C2659 C2660 1.524 . S
C2659 C2663 1.400 . S
C2660 H2645 0.960 . S
C2660 H2646 0.960 . S
C2660 H2647 0.960 . S
C2660 C2659 1.524 . S
C2661 C2658 1.403 . S
C2661 C2662 1.392 . S
C2661 C2665 1.495 . S
C2662 C2661 1.392 . S
C2662 C2663 1.385 . S
C2662 C2664 1.478 . S
C2663 H2657 0.930 . S
C2663 C2659 1.400 . S
C2663 C2662 1.385 . S
C2664 C2662 1.478 . S
C2664 C2666 1.381 . S
C2664 C2670 1.383 . S
C2665 C2661 1.495 . S
C2665 H2671 0.959 . S
C2665 H2672 0.961 . S
C2665 H2673 0.960 . S
C2666 C2664 1.381 . S
C2666 C2667 1.394 . S
C2666 H2674 0.930 . S
C2667 C2666 1.394 . S
C2667 C2668 1.383 . S
C2667 H2675 0.929 . S
C2668 C2667 1.383 . S
C2668 C2669 1.377 . S
C2669 H2653 0.930 . S
C2669 C2668 1.377 . S
C2669 C2670 1.379 . S
C2670 H2654 0.931 . S
C2670 C2664 1.383 . S
C2670 C2669 1.379 . S
H2671 C2665 0.959 . S
H2672 C2665 0.961 . S
H2673 C2665 0.960 . S
H2674 C2666 0.930 . S
H2675 C2667 0.929 . S
H2676 C2684 0.929 . S
H2677 C2686 0.930 . S
H2678 C2688 0.930 . S
H2679 C2691 0.929 . S
H2680 C2694 0.930 . S
H2681 C2696 0.960 . S
H2682 C2696 0.960 . S
H2683 C2696 0.960 . S
C2684 H2676 0.929 . S
C2684 C2685 1.377 . S
C2684 C2686 1.384 1_455 S
C2685 C2684 1.377 . S
C2685 C2691 1.390 . S
C2686 H2677 0.930 . S
C2686 C2684 1.384 1_655 S
C2686 C2687 1.372 . S
C2687 C2686 1.372 . S
C2687 C2688 1.400 . S
C2687 C2692 1.490 . S
C2688 H2678 0.930 . S
C2688 C2687 1.400 . S
C2688 C2691 1.386 1_655 S
H2689 C2705 0.930 . S
H2690 C2706 0.931 . S
C2691 H2679 0.929 . S
C2691 C2685 1.390 . S
C2691 C2688 1.386 1_455 S
C2692 C2687 1.490 . S
C2692 C2694 1.395 . S
C2692 C2695 1.403 . S
H2693 C2699 0.930 . S
C2694 H2680 0.930 . S
C2694 C2692 1.395 . S
C2694 C2697 1.403 . S
C2695 C2692 1.403 . S
C2695 C2696 1.524 . S
C2695 C2699 1.400 . S
C2696 H2681 0.960 . S
C2696 H2682 0.960 . S
C2696 H2683 0.960 . S
C2696 C2695 1.524 . S
C2697 C2694 1.403 . S
C2697 C2698 1.392 . S
C2697 C2701 1.495 . S
C2698 C2697 1.392 . S
C2698 C2699 1.385 . S
C2698 C2700 1.478 . S
C2699 H2693 0.930 . S
C2699 C2695 1.400 . S
C2699 C2698 1.385 . S
C2700 C2698 1.478 . S
C2700 C2702 1.381 . S
C2700 C2706 1.383 . S
C2701 C2697 1.495 . S
C2701 H2707 0.959 . S
C2701 H2708 0.961 . S
C2701 H2709 0.960 . S
C2702 C2700 1.381 . S
C2702 C2703 1.394 . S
C2702 H2710 0.930 . S
C2703 C2702 1.394 . S
C2703 C2704 1.383 . S
C2703 H2711 0.929 . S
C2704 C2703 1.383 . S
C2704 C2705 1.377 . S
C2705 H2689 0.930 . S
C2705 C2704 1.377 . S
C2705 C2706 1.379 . S
C2706 H2690 0.931 . S
C2706 C2700 1.383 . S
C2706 C2705 1.379 . S
H2707 C2701 0.959 . S
H2708 C2701 0.961 . S
H2709 C2701 0.960 . S
H2710 C2702 0.930 . S
H2711 C2703 0.929 . S
H2712 C2720 0.929 . S
H2713 C2722 0.930 . S
H2714 C2724 0.930 . S
H2715 C2727 0.929 . S
H2716 C2730 0.930 . S
H2717 C2732 0.960 . S
H2718 C2732 0.960 . S
H2719 C2732 0.960 . S
C2720 H2712 0.929 . S
C2720 C2721 1.377 . S
C2720 C2722 1.384 . S
C2721 C2720 1.377 . S
C2721 C2727 1.390 . S
C2722 H2713 0.930 . S
C2722 C2720 1.384 . S
C2722 C2723 1.372 . S
C2723 C2722 1.372 . S
C2723 C2724 1.400 . S
C2723 C2728 1.490 . S
C2724 H2714 0.930 . S
C2724 C2723 1.400 . S
C2724 C2727 1.386 . S
H2725 C2741 0.930 . S
H2726 C2742 0.931 . S
C2727 H2715 0.929 . S
C2727 C2721 1.390 . S
C2727 C2724 1.386 . S
C2728 C2723 1.490 . S
C2728 C2730 1.395 . S
C2728 C2731 1.403 . S
H2729 C2735 0.930 . S
C2730 H2716 0.930 . S
C2730 C2728 1.395 . S
C2730 C2733 1.403 . S
C2731 C2728 1.403 . S
C2731 C2732 1.524 . S
C2731 C2735 1.400 . S
C2732 H2717 0.960 . S
C2732 H2718 0.960 . S
C2732 H2719 0.960 . S
C2732 C2731 1.524 . S
C2733 C2730 1.403 . S
C2733 C2734 1.392 . S
C2733 C2737 1.495 . S
C2734 C2733 1.392 . S
C2734 C2735 1.385 . S
C2734 C2736 1.478 . S
C2735 H2729 0.930 . S
C2735 C2731 1.400 . S
C2735 C2734 1.385 . S
C2736 C2734 1.478 . S
C2736 C2738 1.381 . S
C2736 C2742 1.383 . S
C2737 C2733 1.495 . S
C2737 H2743 0.959 . S
C2737 H2744 0.961 . S
C2737 H2745 0.960 . S
C2738 C2736 1.381 . S
C2738 C2739 1.394 . S
C2738 H2746 0.930 . S
C2739 C2738 1.394 . S
C2739 C2740 1.383 . S
C2739 H2747 0.929 . S
C2740 C2739 1.383 . S
C2740 C2741 1.377 . S
C2741 H2725 0.930 . S
C2741 C2740 1.377 . S
C2741 C2742 1.379 . S
C2742 H2726 0.931 . S
C2742 C2736 1.383 . S
C2742 C2741 1.379 . S
H2743 C2737 0.959 . S
H2744 C2737 0.961 . S
H2745 C2737 0.960 . S
H2746 C2738 0.930 . S
H2747 C2739 0.929 . S
H2748 C2756 0.929 . S
H2749 C2758 0.930 . S
H2750 C2760 0.930 . S
H2751 C2763 0.929 . S
H2752 C2766 0.930 . S
H2753 C2768 0.960 . S
H2754 C2768 0.960 . S
H2755 C2768 0.960 . S
C2756 H2748 0.929 . S
C2756 C2757 1.377 . S
C2756 C2758 1.384 . S
C2757 C2756 1.377 . S
C2757 C2763 1.390 . S
C2758 H2749 0.930 . S
C2758 C2756 1.384 . S
C2758 C2759 1.372 . S
C2759 C2758 1.372 . S
C2759 C2760 1.400 . S
C2759 C2764 1.490 . S
C2760 H2750 0.930 . S
C2760 C2759 1.400 . S
C2760 C2763 1.386 . S
H2761 C2777 0.930 . S
H2762 C2778 0.931 . S
C2763 H2751 0.929 . S
C2763 C2757 1.390 . S
C2763 C2760 1.386 . S
C2764 C2759 1.490 . S
C2764 C2766 1.395 . S
C2764 C2767 1.403 . S
H2765 C2771 0.930 . S
C2766 H2752 0.930 . S
C2766 C2764 1.395 . S
C2766 C2769 1.403 . S
C2767 C2764 1.403 . S
C2767 C2768 1.524 . S
C2767 C2771 1.400 . S
C2768 H2753 0.960 . S
C2768 H2754 0.960 . S
C2768 H2755 0.960 . S
C2768 C2767 1.524 . S
C2769 C2766 1.403 . S
C2769 C2770 1.392 . S
C2769 C2773 1.495 . S
C2770 C2769 1.392 . S
C2770 C2771 1.385 . S
C2770 C2772 1.478 . S
C2771 H2765 0.930 . S
C2771 C2767 1.400 . S
C2771 C2770 1.385 . S
C2772 C2770 1.478 . S
C2772 C2774 1.381 . S
C2772 C2778 1.383 . S
C2773 C2769 1.495 . S
C2773 H2779 0.959 . S
C2773 H2780 0.961 . S
C2773 H2781 0.960 . S
C2774 C2772 1.381 . S
C2774 C2775 1.394 . S
C2774 H2782 0.930 . S
C2775 C2774 1.394 . S
C2775 C2776 1.383 . S
C2775 H2783 0.929 . S
C2776 C2775 1.383 . S
C2776 C2777 1.377 . S
C2777 H2761 0.930 . S
C2777 C2776 1.377 . S
C2777 C2778 1.379 . S
C2778 H2762 0.931 . S
C2778 C2772 1.383 . S
C2778 C2777 1.379 . S
H2779 C2773 0.959 . S
H2780 C2773 0.961 . S
H2781 C2773 0.960 . S
H2782 C2774 0.930 . S
H2783 C2775 0.929 . S
H2784 C2792 0.929 . S
H2785 C2794 0.930 . S
H2786 C2796 0.930 . S
H2787 C2799 0.929 . S
H2788 C2802 0.930 . S
H2789 C2804 0.960 . S
H2790 C2804 0.960 . S
H2791 C2804 0.960 . S
C2792 H2784 0.929 . S
C2792 C2793 1.377 . S
C2792 C2794 1.384 . S
C2793 C2792 1.377 . S
C2793 C2799 1.390 . S
C2794 H2785 0.930 . S
C2794 C2792 1.384 . S
C2794 C2795 1.372 . S
C2795 C2794 1.372 . S
C2795 C2796 1.400 . S
C2795 C2800 1.490 . S
C2796 H2786 0.930 . S
C2796 C2795 1.400 . S
C2796 C2799 1.386 . S
H2797 C2813 0.930 . S
H2798 C2814 0.931 . S
C2799 H2787 0.929 . S
C2799 C2793 1.390 . S
C2799 C2796 1.386 . S
C2800 C2795 1.490 . S
C2800 C2802 1.395 . S
C2800 C2803 1.403 . S
H2801 C2807 0.930 . S
C2802 H2788 0.930 . S
C2802 C2800 1.395 . S
C2802 C2805 1.403 . S
C2803 C2800 1.403 . S
C2803 C2804 1.524 . S
C2803 C2807 1.400 . S
C2804 H2789 0.960 . S
C2804 H2790 0.960 . S
C2804 H2791 0.960 . S
C2804 C2803 1.524 . S
C2805 C2802 1.403 . S
C2805 C2806 1.392 . S
C2805 C2809 1.495 . S
C2806 C2805 1.392 . S
C2806 C2807 1.385 . S
C2806 C2808 1.478 . S
C2807 H2801 0.930 . S
C2807 C2803 1.400 . S
C2807 C2806 1.385 . S
C2808 C2806 1.478 . S
C2808 C2810 1.381 . S
C2808 C2814 1.383 . S
C2809 C2805 1.495 . S
C2809 H2815 0.959 . S
C2809 H2816 0.961 . S
C2809 H2817 0.960 . S
C2810 C2808 1.381 . S
C2810 C2811 1.394 . S
C2810 H2818 0.930 . S
C2811 C2810 1.394 . S
C2811 C2812 1.383 . S
C2811 H2819 0.929 . S
C2812 C2811 1.383 . S
C2812 C2813 1.377 . S
C2813 H2797 0.930 . S
C2813 C2812 1.377 . S
C2813 C2814 1.379 . S
C2814 H2798 0.931 . S
C2814 C2808 1.383 . S
C2814 C2813 1.379 . S
H2815 C2809 0.959 . S
H2816 C2809 0.961 . S
H2817 C2809 0.960 . S
H2818 C2810 0.930 . S
H2819 C2811 0.929 . S
H2820 C2828 0.929 . S
H2821 C2830 0.930 . S
H2822 C2832 0.930 . S
H2823 C2835 0.929 . S
H2824 C2838 0.930 . S
H2825 C2840 0.960 . S
H2826 C2840 0.960 . S
H2827 C2840 0.960 1_455 S
C2828 H2820 0.929 . S
C2828 C2829 1.377 . S
C2828 C2830 1.384 . S
C2829 C2828 1.377 . S
C2829 C2835 1.390 . S
C2830 H2821 0.930 . S
C2830 C2828 1.384 . S
C2830 C2831 1.372 . S
C2831 C2830 1.372 . S
C2831 C2832 1.400 . S
C2831 C2836 1.490 . S
C2832 H2822 0.930 . S
C2832 C2831 1.400 . S
C2832 C2835 1.386 . S
H2833 C2849 0.930 . S
H2834 C2850 0.931 . S
C2835 H2823 0.929 . S
C2835 C2829 1.390 . S
C2835 C2832 1.386 . S
C2836 C2831 1.490 . S
C2836 C2838 1.395 1_565 S
C2836 C2839 1.401 . S
H2837 C2843 0.930 . S
C2838 H2824 0.930 . S
C2838 C2836 1.395 1_545 S
C2838 C2841 1.411 . S
C2839 C2836 1.401 . S
C2839 C2840 1.524 1_455 S
C2839 C2843 1.402 1_455 S
C2840 H2825 0.960 . S
C2840 H2826 0.960 . S
C2840 H2827 0.960 1_655 S
C2840 C2839 1.524 1_655 S
C2841 C2838 1.411 . S
C2841 C2842 1.385 1_455 S
C2841 C2845 1.494 . S
C2842 C2841 1.385 1_655 S
C2842 C2843 1.385 1_545 S
C2842 C2844 1.478 . S
C2843 H2837 0.930 . S
C2843 C2839 1.402 1_655 S
C2843 C2842 1.385 1_565 S
C2844 C2842 1.478 . S
C2844 C2846 1.381 . S
C2844 C2850 1.383 . S
C2845 C2841 1.494 . S
C2845 H2851 1.012 . S
C2845 H2852 0.969 . S
C2845 H2853 0.905 1_455 S
C2846 C2844 1.381 . S
C2846 C2847 1.394 . S
C2846 H2854 0.930 . S
C2847 C2846 1.394 . S
C2847 C2848 1.383 . S
C2847 H2855 0.929 . S
C2848 C2847 1.383 . S
C2848 C2849 1.377 . S
C2849 H2833 0.930 . S
C2849 C2848 1.377 . S
C2849 C2850 1.379 . S
C2850 H2834 0.931 . S
C2850 C2844 1.383 . S
C2850 C2849 1.379 . S
H2851 C2845 1.012 . S
H2852 C2845 0.969 . S
H2853 C2845 0.905 1_655 S
H2854 C2846 0.930 . S
H2855 C2847 0.929 . S
H2856 C2864 0.929 . S
H2857 C2866 0.930 . S
H2858 C2868 0.930 . S
H2859 C2871 0.929 . S
H2860 C2874 0.930 . S
H2861 C2876 0.960 . S
H2862 C2876 0.960 . S
H2863 C2876 0.960 . S
C2864 H2856 0.929 . S
C2864 C2865 1.377 . S
C2864 C2866 1.384 . S
C2865 C2864 1.377 . S
C2865 C2871 1.390 . S
C2866 H2857 0.930 . S
C2866 C2864 1.384 . S
C2866 C2867 1.372 . S
C2867 C2866 1.372 . S
C2867 C2868 1.400 . S
C2867 C2872 1.490 . S
C2868 H2858 0.930 . S
C2868 C2867 1.400 . S
C2868 C2871 1.386 . S
H2869 C2885 0.930 . S
H2870 C2886 0.931 . S
C2871 H2859 0.929 . S
C2871 C2865 1.390 . S
C2871 C2868 1.386 . S
C2872 C2867 1.490 . S
C2872 C2874 1.395 . S
C2872 C2875 1.403 . S
H2873 C2879 0.930 . S
C2874 H2860 0.930 . S
C2874 C2872 1.395 . S
C2874 C2877 1.403 . S
C2875 C2872 1.403 . S
C2875 C2876 1.524 . S
C2875 C2879 1.400 . S
C2876 H2861 0.960 . S
C2876 H2862 0.960 . S
C2876 H2863 0.960 . S
C2876 C2875 1.524 . S
C2877 C2874 1.403 . S
C2877 C2878 1.392 . S
C2877 C2881 1.495 . S
C2878 C2877 1.392 . S
C2878 C2879 1.385 . S
C2878 C2880 1.478 . S
C2879 H2873 0.930 . S
C2879 C2875 1.400 . S
C2879 C2878 1.385 . S
C2880 C2878 1.478 . S
C2880 C2882 1.381 . S
C2880 C2886 1.383 . S
C2881 C2877 1.495 . S
C2881 H2887 0.959 . S
C2881 H2888 0.961 . S
C2881 H2889 0.960 . S
C2882 C2880 1.381 . S
C2882 C2883 1.394 . S
C2882 H2890 0.930 . S
C2883 C2882 1.394 . S
C2883 C2884 1.383 . S
C2883 H2891 0.929 . S
C2884 C2883 1.383 . S
C2884 C2885 1.377 . S
C2885 H2869 0.930 . S
C2885 C2884 1.377 . S
C2885 C2886 1.379 . S
C2886 H2870 0.931 . S
C2886 C2880 1.383 . S
C2886 C2885 1.379 . S
H2887 C2881 0.959 . S
H2888 C2881 0.961 . S
H2889 C2881 0.960 . S
H2890 C2882 0.930 . S
H2891 C2883 0.929 . S
H2892 C2900 0.929 . S
H2893 C2902 0.930 . S
H2894 C2904 0.946 . S
H2895 C2907 0.929 1_554 S
H2896 C2910 0.930 . S
H2897 C2912 0.949 1_545 S
H2898 C2912 0.954 1_545 S
H2899 C2912 0.977 . S
C2900 H2892 0.929 . S
C2900 C2901 1.377 . S
C2900 C2902 1.384 . S
C2901 C2900 1.377 . S
C2901 C2907 1.390 . S
C2902 H2893 0.930 . S
C2902 C2900 1.384 . S
C2902 C2903 1.372 . S
C2903 C2902 1.372 . S
C2903 C2904 1.388 1_556 S
C2903 C2908 1.490 . S
C2904 H2894 0.946 . S
C2904 C2903 1.388 1_554 S
C2904 C2907 1.381 1_554 S
H2905 C2921 0.930 . S
H2906 C2922 0.931 . S
C2907 H2895 0.929 1_556 S
C2907 C2901 1.390 . S
C2907 C2904 1.381 1_556 S
C2908 C2903 1.490 . S
C2908 C2910 1.395 . S
C2908 C2911 1.424 1_556 S
H2909 C2915 0.930 . S
C2910 H2896 0.930 . S
C2910 C2908 1.395 . S
C2910 C2913 1.403 1_565 S
C2911 C2908 1.424 1_554 S
C2911 C2912 1.524 . S
C2911 C2915 1.378 1_565 S
C2912 H2897 0.949 1_565 S
C2912 H2898 0.954 1_565 S
C2912 H2899 0.977 . S
C2912 C2911 1.524 . S
C2913 C2910 1.403 1_545 S
C2913 C2914 1.392 1_556 S
C2913 C2917 1.495 . S
C2914 C2913 1.392 1_554 S
C2914 C2915 1.385 . S
C2914 C2916 1.478 . S
C2915 H2909 0.930 . S
C2915 C2911 1.378 1_545 S
C2915 C2914 1.385 . S
C2916 C2914 1.478 . S
C2916 C2918 1.381 1_554 S
C2916 C2922 1.383 . S
C2917 C2913 1.495 . S
C2917 H2923 0.959 1_545 S
C2917 H2924 0.961 1_545 S
C2917 H2925 0.960 . S
C2918 C2916 1.381 1_556 S
C2918 C2919 1.394 1_556 S
C2918 H2926 0.930 . S
C2919 C2918 1.394 1_554 S
C2919 C2920 1.383 . S
C2919 H2927 0.929 1_554 S
C2920 C2919 1.383 . S
C2920 C2921 1.377 . S
C2921 H2905 0.930 . S
C2921 C2920 1.377 . S
C2921 C2922 1.379 . S
C2922 H2906 0.931 . S
C2922 C2916 1.383 . S
C2922 C2921 1.379 . S
H2923 C2917 0.959 1_565 S
H2924 C2917 0.961 1_565 S
H2925 C2917 0.960 . S
H2926 C2918 0.930 . S
H2927 C2919 0.929 1_556 S
H2928 C2936 0.929 . S
H2929 C2938 0.930 . S
H2930 C2940 0.930 . S
H2931 C2943 0.929 . S
H2932 C2946 0.930 . S
H2933 C2948 0.960 . S
H2934 C2948 0.960 . S
H2935 C2948 0.960 . S
C2936 H2928 0.929 . S
C2936 C2937 1.377 . S
C2936 C2938 1.384 . S
C2937 C2936 1.377 . S
C2937 C2943 1.390 . S
C2938 H2929 0.930 . S
C2938 C2936 1.384 . S
C2938 C2939 1.372 . S
C2939 C2938 1.372 . S
C2939 C2940 1.400 . S
C2939 C2944 1.490 . S
C2940 H2930 0.930 . S
C2940 C2939 1.400 . S
C2940 C2943 1.386 . S
H2941 C2957 0.930 . S
H2942 C2958 0.931 . S
C2943 H2931 0.929 . S
C2943 C2937 1.390 . S
C2943 C2940 1.386 . S
C2944 C2939 1.490 . S
C2944 C2946 1.395 . S
C2944 C2947 1.403 . S
H2945 C2951 0.930 . S
C2946 H2932 0.930 . S
C2946 C2944 1.395 . S
C2946 C2949 1.403 . S
C2947 C2944 1.403 . S
C2947 C2948 1.524 . S
C2947 C2951 1.400 . S
C2948 H2933 0.960 . S
C2948 H2934 0.960 . S
C2948 H2935 0.960 . S
C2948 C2947 1.524 . S
C2949 C2946 1.403 . S
C2949 C2950 1.392 . S
C2949 C2953 1.495 . S
C2950 C2949 1.392 . S
C2950 C2951 1.385 . S
C2950 C2952 1.478 . S
C2951 H2945 0.930 . S
C2951 C2947 1.400 . S
C2951 C2950 1.385 . S
C2952 C2950 1.478 . S
C2952 C2954 1.381 . S
C2952 C2958 1.383 . S
C2953 C2949 1.495 . S
C2953 H2959 0.959 . S
C2953 H2960 0.961 . S
C2953 H2961 0.960 . S
C2954 C2952 1.381 . S
C2954 C2955 1.394 . S
C2954 H2962 0.930 . S
C2955 C2954 1.394 . S
C2955 C2956 1.383 . S
C2955 H2963 0.929 . S
C2956 C2955 1.383 . S
C2956 C2957 1.377 . S
C2957 H2941 0.930 . S
C2957 C2956 1.377 . S
C2957 C2958 1.379 . S
C2958 H2942 0.931 . S
C2958 C2952 1.383 . S
C2958 C2957 1.379 . S
H2959 C2953 0.959 . S
H2960 C2953 0.961 . S
H2961 C2953 0.960 . S
H2962 C2954 0.930 . S
H2963 C2955 0.929 . S
H2964 C2972 0.929 . S
H2965 C2974 0.930 . S
H2966 C2976 0.930 . S
H2967 C2979 0.929 . S
H2968 C2982 0.930 . S
H2969 C2984 0.960 . S
H2970 C2984 0.960 . S
H2971 C2984 0.960 . S
C2972 H2964 0.929 . S
C2972 C2973 1.377 . S
C2972 C2974 1.384 . S
C2973 C2972 1.377 . S
C2973 C2979 1.390 . S
C2974 H2965 0.930 . S
C2974 C2972 1.384 . S
C2974 C2975 1.372 . S
C2975 C2974 1.372 . S
C2975 C2976 1.400 . S
C2975 C2980 1.490 . S
C2976 H2966 0.930 . S
C2976 C2975 1.400 . S
C2976 C2979 1.386 . S
H2977 C2993 0.930 . S
H2978 C2994 0.931 . S
C2979 H2967 0.929 . S
C2979 C2973 1.390 . S
C2979 C2976 1.386 . S
C2980 C2975 1.490 . S
C2980 C2982 1.395 1_565 S
C2980 C2983 1.403 . S
H2981 C2987 0.930 . S
C2982 H2968 0.930 . S
C2982 C2980 1.395 1_545 S
C2982 C2985 1.403 . S
C2983 C2980 1.403 . S
C2983 C2984 1.524 . S
C2983 C2987 1.400 . S
C2984 H2969 0.960 . S
C2984 H2970 0.960 . S
C2984 H2971 0.960 . S
C2984 C2983 1.524 . S
C2985 C2982 1.403 . S
C2985 C2986 1.392 . S
C2985 C2989 1.495 . S
C2986 C2985 1.392 . S
C2986 C2987 1.385 1_545 S
C2986 C2988 1.478 . S
C2987 H2981 0.930 . S
C2987 C2983 1.400 . S
C2987 C2986 1.385 1_565 S
C2988 C2986 1.478 . S
C2988 C2990 1.381 . S
C2988 C2994 1.383 . S
C2989 C2985 1.495 . S
C2989 H2995 0.959 . S
C2989 H2996 0.961 . S
C2989 H2997 0.960 . S
C2990 C2988 1.381 . S
C2990 C2991 1.394 . S
C2990 H2998 0.930 . S
C2991 C2990 1.394 . S
C2991 C2992 1.383 . S
C2991 H2999 0.929 . S
C2992 C2991 1.383 . S
C2992 C2993 1.377 . S
C2993 H2977 0.930 . S
C2993 C2992 1.377 . S
C2993 C2994 1.379 . S
C2994 H2978 0.931 . S
C2994 C2988 1.383 . S
C2994 C2993 1.379 . S
H2995 C2989 0.959 . S
H2996 C2989 0.961 . S
H2997 C2989 0.960 . S
H2998 C2990 0.930 . S
H2999 C2991 0.929 . S
H3000 C3008 0.929 . S
H3001 C3010 0.930 . S
H3002 C3012 0.930 . S
H3003 C3015 0.929 . S
H3004 C3018 0.930 . S
H3005 C3020 0.960 . S
H3006 C3020 0.960 . S
H3007 C3020 0.960 . S
C3008 H3000 0.929 . S
C3008 C3009 1.377 . S
C3008 C3010 1.384 . S
C3009 C3008 1.377 . S
C3009 C3015 1.390 . S
C3010 H3001 0.930 . S
C3010 C3008 1.384 . S
C3010 C3011 1.372 . S
C3011 C3010 1.372 . S
C3011 C3012 1.400 . S
C3011 C3016 1.490 . S
C3012 H3002 0.930 . S
C3012 C3011 1.400 . S
C3012 C3015 1.386 . S
H3013 C3029 0.930 . S
H3014 C3030 0.931 . S
C3015 H3003 0.929 . S
C3015 C3009 1.390 . S
C3015 C3012 1.386 . S
C3016 C3011 1.490 . S
C3016 C3018 1.395 . S
C3016 C3019 1.403 . S
H3017 C3023 0.930 . S
C3018 H3004 0.930 . S
C3018 C3016 1.395 . S
C3018 C3021 1.403 . S
C3019 C3016 1.403 . S
C3019 C3020 1.524 . S
C3019 C3023 1.400 . S
C3020 H3005 0.960 . S
C3020 H3006 0.960 . S
C3020 H3007 0.960 . S
C3020 C3019 1.524 . S
C3021 C3018 1.403 . S
C3021 C3022 1.392 . S
C3021 C3025 1.495 . S
C3022 C3021 1.392 . S
C3022 C3023 1.385 . S
C3022 C3024 1.478 . S
C3023 H3017 0.930 . S
C3023 C3019 1.400 . S
C3023 C3022 1.385 . S
C3024 C3022 1.478 . S
C3024 C3026 1.381 . S
C3024 C3030 1.383 . S
C3025 C3021 1.495 . S
C3025 H3031 0.959 . S
C3025 H3032 0.961 . S
C3025 H3033 0.960 . S
C3026 C3024 1.381 . S
C3026 C3027 1.394 . S
C3026 H3034 0.930 . S
C3027 C3026 1.394 . S
C3027 C3028 1.383 . S
C3027 H3035 0.929 . S
C3028 C3027 1.383 . S
C3028 C3029 1.377 . S
C3029 H3013 0.930 . S
C3029 C3028 1.377 . S
C3029 C3030 1.379 . S
C3030 H3014 0.931 . S
C3030 C3024 1.383 . S
C3030 C3029 1.379 . S
H3031 C3025 0.959 . S
H3032 C3025 0.961 . S
H3033 C3025 0.960 . S
H3034 C3026 0.930 . S
H3035 C3027 0.929 . S
H3036 C3044 0.929 . S
H3037 C3046 0.930 . S
H3038 C3048 0.953 . S
H3039 C3051 0.929 1_554 S
H3040 C3054 0.930 . S
H3041 C3056 0.960 . S
H3042 C3056 0.960 . S
H3043 C3056 0.960 1_554 S
C3044 H3036 0.929 . S
C3044 C3045 1.377 . S
C3044 C3046 1.384 . S
C3045 C3044 1.377 . S
C3045 C3051 1.390 . S
C3046 H3037 0.930 . S
C3046 C3044 1.384 . S
C3046 C3047 1.372 . S
C3047 C3046 1.372 . S
C3047 C3048 1.383 1_556 S
C3047 C3052 1.490 . S
C3048 H3038 0.953 . S
C3048 C3047 1.383 1_554 S
C3048 C3051 1.379 1_554 S
H3049 C3065 0.930 . S
H3050 C3066 0.931 . S
C3051 H3039 0.929 1_556 S
C3051 C3045 1.390 . S
C3051 C3048 1.379 1_556 S
C3052 C3047 1.490 . S
C3052 C3054 1.395 1_545 S
C3052 C3055 1.403 1_455 S
H3053 C3059 0.930 . S
C3054 H3040 0.930 . S
C3054 C3052 1.395 1_565 S
C3054 C3057 1.403 1_556 S
C3055 C3052 1.403 1_655 S
C3055 C3056 1.524 . S
C3055 C3059 1.400 1_556 S
C3056 H3041 0.960 . S
C3056 H3042 0.960 . S
C3056 H3043 0.960 1_556 S
C3056 C3055 1.524 . S
C3057 C3054 1.403 1_554 S
C3057 C3058 1.392 1_455 S
C3057 C3061 1.495 . S
C3058 C3057 1.392 1_655 S
C3058 C3059 1.385 1_565 S
C3058 C3060 1.478 . S
C3059 H3053 0.930 . S
C3059 C3055 1.400 1_554 S
C3059 C3058 1.385 1_545 S
C3060 C3058 1.478 . S
C3060 C3062 1.381 1_554 S
C3060 C3066 1.383 . S
C3061 C3057 1.495 . S
C3061 H3067 0.959 1_554 S
C3061 H3068 0.961 . S
C3061 H3069 0.960 1_554 S
C3062 C3060 1.381 1_556 S
C3062 C3063 1.394 1_556 S
C3062 H3070 0.930 . S
C3063 C3062 1.394 1_554 S
C3063 C3064 1.383 . S
C3063 H3071 0.929 1_554 S
C3064 C3063 1.383 . S
C3064 C3065 1.377 . S
C3065 H3049 0.930 . S
C3065 C3064 1.377 . S
C3065 C3066 1.379 . S
C3066 H3050 0.931 . S
C3066 C3060 1.383 . S
C3066 C3065 1.379 . S
H3067 C3061 0.959 1_556 S
H3068 C3061 0.961 . S
H3069 C3061 0.960 1_556 S
H3070 C3062 0.930 . S
H3071 C3063 0.929 1_556 S
H3072 C3080 0.929 . S
H3073 C3082 0.930 . S
H3074 C3084 0.930 . S
H3075 C3087 0.929 . S
H3076 C3090 0.930 . S
H3077 C3092 0.960 . S
H3078 C3092 0.960 . S
H3079 C3092 0.960 . S
C3080 H3072 0.929 . S
C3080 C3081 1.377 . S
C3080 C3082 1.384 . S
C3081 C3080 1.377 . S
C3081 C3087 1.390 . S
C3082 H3073 0.930 . S
C3082 C3080 1.384 . S
C3082 C3083 1.372 . S
C3083 C3082 1.372 . S
C3083 C3084 1.400 . S
C3083 C3088 1.490 . S
C3084 H3074 0.930 . S
C3084 C3083 1.400 . S
C3084 C3087 1.386 . S
H3085 C3101 0.930 . S
H3086 C3102 0.931 . S
C3087 H3075 0.929 . S
C3087 C3081 1.390 . S
C3087 C3084 1.386 . S
C3088 C3083 1.490 . S
C3088 C3090 1.395 . S
C3088 C3091 1.403 . S
H3089 C3095 0.930 . S
C3090 H3076 0.930 . S
C3090 C3088 1.395 . S
C3090 C3093 1.403 . S
C3091 C3088 1.403 . S
C3091 C3092 1.524 . S
C3091 C3095 1.400 . S
C3092 H3077 0.960 . S
C3092 H3078 0.960 . S
C3092 H3079 0.960 . S
C3092 C3091 1.524 . S
C3093 C3090 1.403 . S
C3093 C3094 1.392 . S
C3093 C3097 1.495 . S
C3094 C3093 1.392 . S
C3094 C3095 1.385 . S
C3094 C3096 1.478 . S
C3095 H3089 0.930 . S
C3095 C3091 1.400 . S
C3095 C3094 1.385 . S
C3096 C3094 1.478 . S
C3096 C3098 1.381 . S
C3096 C3102 1.383 . S
C3097 C3093 1.495 . S
C3097 H3103 0.959 . S
C3097 H3104 0.961 . S
C3097 H3105 0.960 . S
C3098 C3096 1.381 . S
C3098 C3099 1.394 . S
C3098 H3106 0.930 . S
C3099 C3098 1.394 . S
C3099 C3100 1.383 . S
C3099 H3107 0.929 . S
C3100 C3099 1.383 . S
C3100 C3101 1.377 . S
C3101 H3085 0.930 . S
C3101 C3100 1.377 . S
C3101 C3102 1.379 . S
C3102 H3086 0.931 . S
C3102 C3096 1.383 . S
C3102 C3101 1.379 . S
H3103 C3097 0.959 . S
H3104 C3097 0.961 . S
H3105 C3097 0.960 . S
H3106 C3098 0.930 . S
H3107 C3099 0.929 . S
H3108 C3116 0.929 . S
H3109 C3118 0.930 . S
H3110 C3120 0.930 . S
H3111 C3123 0.929 . S
H3112 C3126 0.930 . S
H3113 C3128 0.960 . S
H3114 C3128 0.960 . S
H3115 C3128 0.960 . S
C3116 H3108 0.929 . S
C3116 C3117 1.377 . S
C3116 C3118 1.384 . S
C3117 C3116 1.377 . S
C3117 C3123 1.390 . S
C3118 H3109 0.930 . S
C3118 C3116 1.384 . S
C3118 C3119 1.372 . S
C3119 C3118 1.372 . S
C3119 C3120 1.400 . S
C3119 C3124 1.490 . S
C3120 H3110 0.930 . S
C3120 C3119 1.400 . S
C3120 C3123 1.386 . S
H3121 C3137 0.930 . S
H3122 C3138 0.931 . S
C3123 H3111 0.929 . S
C3123 C3117 1.390 . S
C3123 C3120 1.386 . S
C3124 C3119 1.490 . S
C3124 C3126 1.395 . S
C3124 C3127 1.403 . S
H3125 C3131 0.930 . S
C3126 H3112 0.930 . S
C3126 C3124 1.395 . S
C3126 C3129 1.403 . S
C3127 C3124 1.403 . S
C3127 C3128 1.524 . S
C3127 C3131 1.400 . S
C3128 H3113 0.960 . S
C3128 H3114 0.960 . S
C3128 H3115 0.960 . S
C3128 C3127 1.524 . S
C3129 C3126 1.403 . S
C3129 C3130 1.392 . S
C3129 C3133 1.495 . S
C3130 C3129 1.392 . S
C3130 C3131 1.385 . S
C3130 C3132 1.478 . S
C3131 H3125 0.930 . S
C3131 C3127 1.400 . S
C3131 C3130 1.385 . S
C3132 C3130 1.478 . S
C3132 C3134 1.381 . S
C3132 C3138 1.383 . S
C3133 C3129 1.495 . S
C3133 H3139 0.959 . S
C3133 H3140 0.961 . S
C3133 H3141 0.960 . S
C3134 C3132 1.381 . S
C3134 C3135 1.394 . S
C3134 H3142 0.930 . S
C3135 C3134 1.394 . S
C3135 C3136 1.383 . S
C3135 H3143 0.929 . S
C3136 C3135 1.383 . S
C3136 C3137 1.377 . S
C3137 H3121 0.930 . S
C3137 C3136 1.377 . S
C3137 C3138 1.379 . S
C3138 H3122 0.931 . S
C3138 C3132 1.383 . S
C3138 C3137 1.379 . S
H3139 C3133 0.959 . S
H3140 C3133 0.961 . S
H3141 C3133 0.960 . S
H3142 C3134 0.930 . S
H3143 C3135 0.929 . S
H3144 C3152 0.929 . S
H3145 C3154 0.930 . S
H3146 C3156 0.930 . S
H3147 C3159 0.929 . S
H3148 C3162 0.930 . S
H3149 C3164 0.960 . S
H3150 C3164 0.960 . S
H3151 C3164 0.960 . S
C3152 H3144 0.929 . S
C3152 C3153 1.377 . S
C3152 C3154 1.384 . S
C3153 C3152 1.377 . S
C3153 C3159 1.390 . S
C3154 H3145 0.930 . S
C3154 C3152 1.384 . S
C3154 C3155 1.372 . S
C3155 C3154 1.372 . S
C3155 C3156 1.400 . S
C3155 C3160 1.490 . S
C3156 H3146 0.930 . S
C3156 C3155 1.400 . S
C3156 C3159 1.386 . S
H3157 C3173 0.930 . S
H3158 C3174 0.931 . S
C3159 H3147 0.929 . S
C3159 C3153 1.390 . S
C3159 C3156 1.386 . S
C3160 C3155 1.490 . S
C3160 C3162 1.395 . S
C3160 C3163 1.403 . S
H3161 C3167 0.930 . S
C3162 H3148 0.930 . S
C3162 C3160 1.395 . S
C3162 C3165 1.403 . S
C3163 C3160 1.403 . S
C3163 C3164 1.524 . S
C3163 C3167 1.400 . S
C3164 H3149 0.960 . S
C3164 H3150 0.960 . S
C3164 H3151 0.960 . S
C3164 C3163 1.524 . S
C3165 C3162 1.403 . S
C3165 C3166 1.392 . S
C3165 C3169 1.495 . S
C3166 C3165 1.392 . S
C3166 C3167 1.385 . S
C3166 C3168 1.478 . S
C3167 H3161 0.930 . S
C3167 C3163 1.400 . S
C3167 C3166 1.385 . S
C3168 C3166 1.478 . S
C3168 C3170 1.381 . S
C3168 C3174 1.383 . S
C3169 C3165 1.495 . S
C3169 H3175 0.959 . S
C3169 H3176 0.961 . S
C3169 H3177 0.960 . S
C3170 C3168 1.381 . S
C3170 C3171 1.394 . S
C3170 H3178 0.930 . S
C3171 C3170 1.394 . S
C3171 C3172 1.383 . S
C3171 H3179 0.929 . S
C3172 C3171 1.383 . S
C3172 C3173 1.377 . S
C3173 H3157 0.930 . S
C3173 C3172 1.377 . S
C3173 C3174 1.379 . S
C3174 H3158 0.931 . S
C3174 C3168 1.383 . S
C3174 C3173 1.379 . S
H3175 C3169 0.959 . S
H3176 C3169 0.961 . S
H3177 C3169 0.960 . S
H3178 C3170 0.930 . S
H3179 C3171 0.929 . S
H3180 C3188 0.929 . S
H3181 C3190 0.930 . S
H3182 C3192 0.930 . S
H3183 C3195 0.929 . S
H3184 C3198 0.930 . S
H3185 C3200 0.960 . S
H3186 C3200 0.960 . S
H3187 C3200 0.960 . S
C3188 H3180 0.929 . S
C3188 C3189 1.377 . S
C3188 C3190 1.384 . S
C3189 C3188 1.377 . S
C3189 C3195 1.390 . S
C3190 H3181 0.930 . S
C3190 C3188 1.384 . S
C3190 C3191 1.372 . S
C3191 C3190 1.372 . S
C3191 C3192 1.400 . S
C3191 C3196 1.490 . S
C3192 H3182 0.930 . S
C3192 C3191 1.400 . S
C3192 C3195 1.386 . S
H3193 C3209 0.930 . S
H3194 C3210 0.931 . S
C3195 H3183 0.929 . S
C3195 C3189 1.390 . S
C3195 C3192 1.386 . S
C3196 C3191 1.490 . S
C3196 C3198 1.395 . S
C3196 C3199 1.403 . S
H3197 C3203 0.930 . S
C3198 H3184 0.930 . S
C3198 C3196 1.395 . S
C3198 C3201 1.403 . S
C3199 C3196 1.403 . S
C3199 C3200 1.524 . S
C3199 C3203 1.400 . S
C3200 H3185 0.960 . S
C3200 H3186 0.960 . S
C3200 H3187 0.960 . S
C3200 C3199 1.524 . S
C3201 C3198 1.403 . S
C3201 C3202 1.392 . S
C3201 C3205 1.495 . S
C3202 C3201 1.392 . S
C3202 C3203 1.385 . S
C3202 C3204 1.478 . S
C3203 H3197 0.930 . S
C3203 C3199 1.400 . S
C3203 C3202 1.385 . S
C3204 C3202 1.478 . S
C3204 C3206 1.381 . S
C3204 C3210 1.383 . S
C3205 C3201 1.495 . S
C3205 H3211 0.959 . S
C3205 H3212 0.961 . S
C3205 H3213 0.960 . S
C3206 C3204 1.381 . S
C3206 C3207 1.394 . S
C3206 H3214 0.930 . S
C3207 C3206 1.394 . S
C3207 C3208 1.383 . S
C3207 H3215 0.929 . S
C3208 C3207 1.383 . S
C3208 C3209 1.377 . S
C3209 H3193 0.930 . S
C3209 C3208 1.377 . S
C3209 C3210 1.379 . S
C3210 H3194 0.931 . S
C3210 C3204 1.383 . S
C3210 C3209 1.379 . S
H3211 C3205 0.959 . S
H3212 C3205 0.961 . S
H3213 C3205 0.960 . S
H3214 C3206 0.930 . S
H3215 C3207 0.929 . S
H3216 C3224 0.929 . S
H3217 C3226 0.930 . S
H3218 C3228 0.930 . S
H3219 C3231 0.929 . S
H3220 C3234 0.930 . S
H3221 C3236 0.960 . S
H3222 C3236 0.960 . S
H3223 C3236 0.960 . S
C3224 H3216 0.929 . S
C3224 C3225 1.377 . S
C3224 C3226 1.384 . S
C3225 C3224 1.377 . S
C3225 C3231 1.390 . S
C3226 H3217 0.930 . S
C3226 C3224 1.384 . S
C3226 C3227 1.372 . S
C3227 C3226 1.372 . S
C3227 C3228 1.400 . S
C3227 C3232 1.490 . S
C3228 H3218 0.930 . S
C3228 C3227 1.400 . S
C3228 C3231 1.386 . S
H3229 C3245 0.930 . S
H3230 C3246 0.931 . S
C3231 H3219 0.929 . S
C3231 C3225 1.390 . S
C3231 C3228 1.386 . S
C3232 C3227 1.490 . S
C3232 C3234 1.395 1_554 S
C3232 C3235 1.403 . S
H3233 C3239 0.930 . S
C3234 H3220 0.930 . S
C3234 C3232 1.395 1_556 S
C3234 C3237 1.403 . S
C3235 C3232 1.403 . S
C3235 C3236 1.524 . S
C3235 C3239 1.400 . S
C3236 H3221 0.960 . S
C3236 H3222 0.960 . S
C3236 H3223 0.960 . S
C3236 C3235 1.524 . S
C3237 C3234 1.403 . S
C3237 C3238 1.392 . S
C3237 C3241 1.495 . S
C3238 C3237 1.392 . S
C3238 C3239 1.385 1_556 S
C3238 C3240 1.478 . S
C3239 H3233 0.930 . S
C3239 C3235 1.400 . S
C3239 C3238 1.385 1_554 S
C3240 C3238 1.478 . S
C3240 C3242 1.381 . S
C3240 C3246 1.383 . S
C3241 C3237 1.495 . S
C3241 H3247 0.959 . S
C3241 H3248 0.961 . S
C3241 H3249 0.960 . S
C3242 C3240 1.381 . S
C3242 C3243 1.394 . S
C3242 H3250 0.930 . S
C3243 C3242 1.394 . S
C3243 C3244 1.383 . S
C3243 H3251 0.929 . S
C3244 C3243 1.383 . S
C3244 C3245 1.377 . S
C3245 H3229 0.930 . S
C3245 C3244 1.377 . S
C3245 C3246 1.379 . S
C3246 H3230 0.931 . S
C3246 C3240 1.383 . S
C3246 C3245 1.379 . S
H3247 C3241 0.959 . S
H3248 C3241 0.961 . S
H3249 C3241 0.960 . S
H3250 C3242 0.930 . S
H3251 C3243 0.929 . S
H3252 C3260 0.929 . S
H3253 C3262 0.930 . S
H3254 C3264 0.930 . S
H3255 C3267 0.929 . S
H3256 C3270 0.930 . S
H3257 C3272 0.960 . S
H3258 C3272 0.960 1_455 S
H3259 C3272 0.960 . S
C3260 H3252 0.929 . S
C3260 C3261 1.377 . S
C3260 C3262 1.384 . S
C3261 C3260 1.377 . S
C3261 C3267 1.390 . S
C3262 H3253 0.930 . S
C3262 C3260 1.384 . S
C3262 C3263 1.372 . S
C3263 C3262 1.372 . S
C3263 C3264 1.400 . S
C3263 C3268 1.490 . S
C3264 H3254 0.930 . S
C3264 C3263 1.400 . S
C3264 C3267 1.386 . S
H3265 C3281 0.930 . S
H3266 C3282 0.931 . S
C3267 H3255 0.929 . S
C3267 C3261 1.390 . S
C3267 C3264 1.386 . S
C3268 C3263 1.490 . S
C3268 C3270 1.395 . S
C3268 C3271 1.403 1_455 S
H3269 C3275 0.930 . S
C3270 H3256 0.930 . S
C3270 C3268 1.395 . S
C3270 C3273 1.403 . S
C3271 C3268 1.403 1_655 S
C3271 C3272 1.524 . S
C3271 C3275 1.400 . S
C3272 H3257 0.960 . S
C3272 H3258 0.960 1_655 S
C3272 H3259 0.960 . S
C3272 C3271 1.524 . S
C3273 C3270 1.403 . S
C3273 C3274 1.392 1_455 S
C3273 C3277 1.495 . S
C3274 C3273 1.392 1_655 S
C3274 C3275 1.385 . S
C3274 C3276 1.478 . S
C3275 H3269 0.930 . S
C3275 C3271 1.400 . S
C3275 C3274 1.385 . S
C3276 C3274 1.478 . S
C3276 C3278 1.381 . S
C3276 C3282 1.383 . S
C3277 C3273 1.495 . S
C3277 H3283 0.959 . S
C3277 H3284 0.961 . S
C3277 H3285 0.960 . S
C3278 C3276 1.381 . S
C3278 C3279 1.394 . S
C3278 H3286 0.930 . S
C3279 C3278 1.394 . S
C3279 C3280 1.383 . S
C3279 H3287 0.929 . S
C3280 C3279 1.383 . S
C3280 C3281 1.377 . S
C3281 H3265 0.930 . S
C3281 C3280 1.377 . S
C3281 C3282 1.379 . S
C3282 H3266 0.931 . S
C3282 C3276 1.383 . S
C3282 C3281 1.379 . S
H3283 C3277 0.959 . S
H3284 C3277 0.961 . S
H3285 C3277 0.960 . S
H3286 C3278 0.930 . S
H3287 C3279 0.929 . S
H3288 C3296 0.929 . S
H3289 C3298 0.930 . S
H3290 C3300 0.930 . S
H3291 C3303 0.929 . S
H3292 C3306 0.930 . S
H3293 C3308 0.960 . S
H3294 C3308 0.960 1_655 S
H3295 C3308 0.960 . S
C3296 H3288 0.929 . S
C3296 C3297 1.377 . S
C3296 C3298 1.384 . S
C3297 C3296 1.377 . S
C3297 C3303 1.390 . S
C3298 H3289 0.930 . S
C3298 C3296 1.384 . S
C3298 C3299 1.372 . S
C3299 C3298 1.372 . S
C3299 C3300 1.400 . S
C3299 C3304 1.490 . S
C3300 H3290 0.930 . S
C3300 C3299 1.400 . S
C3300 C3303 1.386 . S
H3301 C3317 0.930 . S
H3302 C3318 0.931 . S
C3303 H3291 0.929 . S
C3303 C3297 1.390 . S
C3303 C3300 1.386 . S
C3304 C3299 1.490 . S
C3304 C3306 1.395 1_556 S
C3304 C3307 1.403 1_655 S
H3305 C3311 0.930 . S
C3306 H3292 0.930 . S
C3306 C3304 1.395 1_554 S
C3306 C3309 1.403 . S
C3307 C3304 1.403 1_455 S
C3307 C3308 1.524 . S
C3307 C3311 1.400 . S
C3308 H3293 0.960 . S
C3308 H3294 0.960 1_455 S
C3308 H3295 0.960 . S
C3308 C3307 1.524 . S
C3309 C3306 1.403 . S
C3309 C3310 1.392 1_655 S
C3309 C3313 1.495 . S
C3310 C3309 1.392 1_455 S
C3310 C3311 1.385 1_554 S
C3310 C3312 1.478 . S
C3311 H3305 0.930 . S
C3311 C3307 1.400 . S
C3311 C3310 1.385 1_556 S
C3312 C3310 1.478 . S
C3312 C3314 1.381 . S
C3312 C3318 1.383 . S
C3313 C3309 1.495 . S
C3313 H3319 0.959 . S
C3313 H3320 0.961 1_655 S
C3313 H3321 0.960 . S
C3314 C3312 1.381 . S
C3314 C3315 1.394 . S
C3314 H3322 0.930 . S
C3315 C3314 1.394 . S
C3315 C3316 1.383 . S
C3315 H3323 0.929 . S
C3316 C3315 1.383 . S
C3316 C3317 1.377 . S
C3317 H3301 0.930 . S
C3317 C3316 1.377 . S
C3317 C3318 1.379 . S
C3318 H3302 0.931 . S
C3318 C3312 1.383 . S
C3318 C3317 1.379 . S
H3319 C3313 0.959 . S
H3320 C3313 0.961 1_455 S
H3321 C3313 0.960 . S
H3322 C3314 0.930 . S
H3323 C3315 0.929 . S
H3324 C3332 0.929 . S
H3325 C3334 0.930 . S
H3326 C3336 0.930 . S
H3327 C3339 0.929 . S
H3328 C3342 0.930 . S
H3329 C3344 0.960 . S
H3330 C3344 0.960 . S
H3331 C3344 0.960 . S
C3332 H3324 0.929 . S
C3332 C3333 1.377 . S
C3332 C3334 1.384 . S
C3333 C3332 1.377 . S
C3333 C3339 1.390 . S
C3334 H3325 0.930 . S
C3334 C3332 1.384 . S
C3334 C3335 1.372 . S
C3335 C3334 1.372 . S
C3335 C3336 1.400 . S
C3335 C3340 1.490 . S
C3336 H3326 0.930 . S
C3336 C3335 1.400 . S
C3336 C3339 1.386 . S
H3337 C3353 0.930 . S
H3338 C3354 0.931 . S
C3339 H3327 0.929 . S
C3339 C3333 1.390 . S
C3339 C3336 1.386 . S
C3340 C3335 1.490 . S
C3340 C3342 1.395 . S
C3340 C3343 1.403 . S
H3341 C3347 0.930 . S
C3342 H3328 0.930 . S
C3342 C3340 1.395 . S
C3342 C3345 1.403 . S
C3343 C3340 1.403 . S
C3343 C3344 1.524 . S
C3343 C3347 1.400 . S
C3344 H3329 0.960 . S
C3344 H3330 0.960 . S
C3344 H3331 0.960 . S
C3344 C3343 1.524 . S
C3345 C3342 1.403 . S
C3345 C3346 1.392 . S
C3345 C3349 1.495 . S
C3346 C3345 1.392 . S
C3346 C3347 1.385 . S
C3346 C3348 1.478 . S
C3347 H3341 0.930 . S
C3347 C3343 1.400 . S
C3347 C3346 1.385 . S
C3348 C3346 1.478 . S
C3348 C3350 1.381 . S
C3348 C3354 1.383 . S
C3349 C3345 1.495 . S
C3349 H3355 0.959 . S
C3349 H3356 0.961 . S
C3349 H3357 0.960 . S
C3350 C3348 1.381 . S
C3350 C3351 1.394 . S
C3350 H3358 0.930 . S
C3351 C3350 1.394 . S
C3351 C3352 1.383 . S
C3351 H3359 0.929 . S
C3352 C3351 1.383 . S
C3352 C3353 1.377 . S
C3353 H3337 0.930 . S
C3353 C3352 1.377 . S
C3353 C3354 1.379 . S
C3354 H3338 0.931 . S
C3354 C3348 1.383 . S
C3354 C3353 1.379 . S
H3355 C3349 0.959 . S
H3356 C3349 0.961 . S
H3357 C3349 0.960 . S
H3358 C3350 0.930 . S
H3359 C3351 0.929 . S
H3360 C3368 0.929 . S
H3361 C3370 0.930 . S
H3362 C3372 0.930 . S
H3363 C3375 0.929 . S
H3364 C3378 0.930 . S
H3365 C3380 0.960 . S
H3366 C3380 0.960 . S
H3367 C3380 0.960 . S
C3368 H3360 0.929 . S
C3368 C3369 1.377 . S
C3368 C3370 1.384 . S
C3369 C3368 1.377 . S
C3369 C3375 1.390 . S
C3370 H3361 0.930 . S
C3370 C3368 1.384 . S
C3370 C3371 1.372 . S
C3371 C3370 1.372 . S
C3371 C3372 1.400 . S
C3371 C3376 1.490 . S
C3372 H3362 0.930 . S
C3372 C3371 1.400 . S
C3372 C3375 1.386 . S
H3373 C3389 0.930 . S
H3374 C3390 0.931 . S
C3375 H3363 0.929 . S
C3375 C3369 1.390 . S
C3375 C3372 1.386 . S
C3376 C3371 1.490 . S
C3376 C3378 1.395 . S
C3376 C3379 1.403 . S
H3377 C3383 0.930 . S
C3378 H3364 0.930 . S
C3378 C3376 1.395 . S
C3378 C3381 1.403 . S
C3379 C3376 1.403 . S
C3379 C3380 1.524 . S
C3379 C3383 1.400 . S
C3380 H3365 0.960 . S
C3380 H3366 0.960 . S
C3380 H3367 0.960 . S
C3380 C3379 1.524 . S
C3381 C3378 1.403 . S
C3381 C3382 1.392 . S
C3381 C3385 1.495 . S
C3382 C3381 1.392 . S
C3382 C3383 1.385 . S
C3382 C3384 1.478 . S
C3383 H3377 0.930 . S
C3383 C3379 1.400 . S
C3383 C3382 1.385 . S
C3384 C3382 1.478 . S
C3384 C3386 1.381 . S
C3384 C3390 1.383 . S
C3385 C3381 1.495 . S
C3385 H3391 0.959 . S
C3385 H3392 0.961 . S
C3385 H3393 0.960 . S
C3386 C3384 1.381 . S
C3386 C3387 1.394 . S
C3386 H3394 0.930 . S
C3387 C3386 1.394 . S
C3387 C3388 1.383 . S
C3387 H3395 0.929 . S
C3388 C3387 1.383 . S
C3388 C3389 1.377 . S
C3389 H3373 0.930 . S
C3389 C3388 1.377 . S
C3389 C3390 1.379 . S
C3390 H3374 0.931 . S
C3390 C3384 1.383 . S
C3390 C3389 1.379 . S
H3391 C3385 0.959 . S
H3392 C3385 0.961 . S
H3393 C3385 0.960 . S
H3394 C3386 0.930 . S
H3395 C3387 0.929 . S
H3396 C3404 0.929 . S
H3397 C3406 0.930 . S
H3398 C3408 0.930 . S
H3399 C3411 0.929 . S
H3400 C3414 0.934 . S
H3401 C3416 0.960 . S
H3402 C3416 0.960 . S
H3403 C3416 0.960 . S
C3404 H3396 0.929 . S
C3404 C3405 1.377 . S
C3404 C3406 1.384 . S
C3405 C3404 1.377 . S
C3405 C3411 1.390 . S
C3406 H3397 0.930 . S
C3406 C3404 1.384 . S
C3406 C3407 1.372 . S
C3407 C3406 1.372 . S
C3407 C3408 1.400 . S
C3407 C3412 1.490 . S
C3408 H3398 0.930 . S
C3408 C3407 1.400 . S
C3408 C3411 1.386 . S
H3409 C3425 0.930 . S
H3410 C3426 0.931 . S
C3411 H3399 0.929 . S
C3411 C3405 1.390 . S
C3411 C3408 1.386 . S
C3412 C3407 1.490 . S
C3412 C3414 1.421 . S
C3412 C3415 1.403 . S
H3413 C3419 0.930 . S
C3414 H3400 0.934 . S
C3414 C3412 1.421 . S
C3414 C3417 1.374 1_545 S
C3415 C3412 1.403 . S
C3415 C3416 1.524 . S
C3415 C3419 1.400 1_545 S
C3416 H3401 0.960 . S
C3416 H3402 0.960 . S
C3416 H3403 0.960 . S
C3416 C3415 1.524 . S
C3417 C3414 1.374 1_565 S
C3417 C3418 1.392 . S
C3417 C3421 1.495 . S
C3418 C3417 1.392 . S
C3418 C3419 1.385 . S
C3418 C3420 1.478 . S
C3419 H3413 0.930 . S
C3419 C3415 1.400 1_565 S
C3419 C3418 1.385 . S
C3420 C3418 1.478 . S
C3420 C3422 1.381 . S
C3420 C3426 1.383 . S
C3421 C3417 1.495 . S
C3421 H3427 0.959 . S
C3421 H3428 0.961 . S
C3421 H3429 0.960 . S
C3422 C3420 1.381 . S
C3422 C3423 1.394 . S
C3422 H3430 0.930 . S
C3423 C3422 1.394 . S
C3423 C3424 1.383 . S
C3423 H3431 0.929 . S
C3424 C3423 1.383 . S
C3424 C3425 1.377 . S
C3425 H3409 0.930 . S
C3425 C3424 1.377 . S
C3425 C3426 1.379 . S
C3426 H3410 0.931 . S
C3426 C3420 1.383 . S
C3426 C3425 1.379 . S
H3427 C3421 0.959 . S
H3428 C3421 0.961 . S
H3429 C3421 0.960 . S
H3430 C3422 0.930 . S
H3431 C3423 0.929 . S
H3432 C3440 0.929 . S
H3433 C3442 0.930 . S
H3434 C3444 0.930 . S
H3435 C3447 0.929 . S
H3436 C3450 0.930 . S
H3437 C3452 0.960 . S
H3438 C3452 0.960 . S
H3439 C3452 0.960 . S
C3440 H3432 0.929 . S
C3440 C3441 1.377 . S
C3440 C3442 1.384 . S
C3441 C3440 1.377 . S
C3441 C3447 1.390 . S
C3442 H3433 0.930 . S
C3442 C3440 1.384 . S
C3442 C3443 1.372 . S
C3443 C3442 1.372 . S
C3443 C3444 1.400 . S
C3443 C3448 1.490 . S
C3444 H3434 0.930 . S
C3444 C3443 1.400 . S
C3444 C3447 1.386 . S
H3445 C3461 0.930 . S
H3446 C3462 0.931 . S
C3447 H3435 0.929 . S
C3447 C3441 1.390 . S
C3447 C3444 1.386 . S
C3448 C3443 1.490 . S
C3448 C3450 1.395 . S
C3448 C3451 1.403 1_554 S
H3449 C3455 0.930 . S
C3450 H3436 0.930 . S
C3450 C3448 1.395 . S
C3450 C3453 1.403 . S
C3451 C3448 1.403 1_556 S
C3451 C3452 1.524 . S
C3451 C3455 1.400 . S
C3452 H3437 0.960 . S
C3452 H3438 0.960 . S
C3452 H3439 0.960 . S
C3452 C3451 1.524 . S
C3453 C3450 1.403 . S
C3453 C3454 1.392 1_554 S
C3453 C3457 1.495 . S
C3454 C3453 1.392 1_556 S
C3454 C3455 1.385 . S
C3454 C3456 1.478 . S
C3455 H3449 0.930 . S
C3455 C3451 1.400 . S
C3455 C3454 1.385 . S
C3456 C3454 1.478 . S
C3456 C3458 1.381 . S
C3456 C3462 1.383 . S
C3457 C3453 1.495 . S
C3457 H3463 0.959 . S
C3457 H3464 0.961 . S
C3457 H3465 0.960 . S
C3458 C3456 1.381 . S
C3458 C3459 1.394 . S
C3458 H3466 0.930 . S
C3459 C3458 1.394 . S
C3459 C3460 1.383 . S
C3459 H3467 0.929 . S
C3460 C3459 1.383 . S
C3460 C3461 1.377 . S
C3461 H3445 0.930 . S
C3461 C3460 1.377 . S
C3461 C3462 1.379 . S
C3462 H3446 0.931 . S
C3462 C3456 1.383 . S
C3462 C3461 1.379 . S
H3463 C3457 0.959 . S
H3464 C3457 0.961 . S
H3465 C3457 0.960 . S
H3466 C3458 0.930 . S
H3467 C3459 0.929 . S
H3468 C3476 0.929 . S
H3469 C3478 0.930 . S
H3470 C3480 0.930 . S
H3471 C3483 0.929 . S
H3472 C3486 0.930 . S
H3473 C3488 0.960 1_545 S
H3474 C3488 0.960 . S
H3475 C3488 0.960 . S
C3476 H3468 0.929 . S
C3476 C3477 1.377 . S
C3476 C3478 1.384 . S
C3477 C3476 1.377 . S
C3477 C3483 1.390 . S
C3478 H3469 0.930 . S
C3478 C3476 1.384 . S
C3478 C3479 1.372 . S
C3479 C3478 1.372 . S
C3479 C3480 1.400 . S
C3479 C3484 1.490 . S
C3480 H3470 0.930 . S
C3480 C3479 1.400 . S
C3480 C3483 1.386 . S
H3481 C3497 0.930 . S
H3482 C3498 0.931 . S
C3483 H3471 0.929 . S
C3483 C3477 1.390 . S
C3483 C3480 1.386 . S
C3484 C3479 1.490 . S
C3484 C3486 1.395 . S
C3484 C3487 1.403 . S
H3485 C3491 0.930 . S
C3486 H3472 0.930 . S
C3486 C3484 1.395 . S
C3486 C3489 1.403 1_565 S
C3487 C3484 1.403 . S
C3487 C3488 1.524 . S
C3487 C3491 1.400 1_565 S
C3488 H3473 0.960 1_565 S
C3488 H3474 0.960 . S
C3488 H3475 0.960 . S
C3488 C3487 1.524 . S
C3489 C3486 1.403 1_545 S
C3489 C3490 1.392 . S
C3489 C3493 1.495 . S
C3490 C3489 1.392 . S
C3490 C3491 1.385 . S
C3490 C3492 1.478 . S
C3491 H3485 0.930 . S
C3491 C3487 1.400 1_545 S
C3491 C3490 1.385 . S
C3492 C3490 1.478 . S
C3492 C3494 1.381 . S
C3492 C3498 1.383 . S
C3493 C3489 1.495 . S
C3493 H3499 0.959 1_545 S
C3493 H3500 0.961 . S
C3493 H3501 0.960 . S
C3494 C3492 1.381 . S
C3494 C3495 1.394 . S
C3494 H3502 0.930 . S
C3495 C3494 1.394 . S
C3495 C3496 1.383 . S
C3495 H3503 0.929 . S
C3496 C3495 1.383 . S
C3496 C3497 1.377 . S
C3497 H3481 0.930 . S
C3497 C3496 1.377 . S
C3497 C3498 1.379 . S
C3498 H3482 0.931 . S
C3498 C3492 1.383 . S
C3498 C3497 1.379 . S
H3499 C3493 0.959 1_565 S
H3500 C3493 0.961 . S
H3501 C3493 0.960 . S
H3502 C3494 0.930 . S
H3503 C3495 0.929 . S
H3504 C3512 0.929 . S
H3505 C3514 0.930 . S
H3506 C3516 0.930 . S
H3507 C3519 0.929 . S
H3508 C3522 0.930 . S
H3509 C3524 0.960 . S
H3510 C3524 0.960 . S
H3511 C3524 0.960 . S
C3512 H3504 0.929 . S
C3512 C3513 1.377 . S
C3512 C3514 1.384 . S
C3513 C3512 1.377 . S
C3513 C3519 1.390 . S
C3514 H3505 0.930 . S
C3514 C3512 1.384 . S
C3514 C3515 1.372 . S
C3515 C3514 1.372 . S
C3515 C3516 1.400 . S
C3515 C3520 1.490 . S
C3516 H3506 0.930 . S
C3516 C3515 1.400 . S
C3516 C3519 1.386 . S
H3517 C3533 0.930 . S
H3518 C3534 0.931 . S
C3519 H3507 0.929 . S
C3519 C3513 1.390 . S
C3519 C3516 1.386 . S
C3520 C3515 1.490 . S
C3520 C3522 1.395 . S
C3520 C3523 1.403 . S
H3521 C3527 0.930 . S
C3522 H3508 0.930 . S
C3522 C3520 1.395 . S
C3522 C3525 1.403 . S
C3523 C3520 1.403 . S
C3523 C3524 1.524 . S
C3523 C3527 1.400 . S
C3524 H3509 0.960 . S
C3524 H3510 0.960 . S
C3524 H3511 0.960 . S
C3524 C3523 1.524 . S
C3525 C3522 1.403 . S
C3525 C3526 1.392 . S
C3525 C3529 1.495 . S
C3526 C3525 1.392 . S
C3526 C3527 1.385 . S
C3526 C3528 1.478 . S
C3527 H3521 0.930 . S
C3527 C3523 1.400 . S
C3527 C3526 1.385 . S
C3528 C3526 1.478 . S
C3528 C3530 1.381 . S
C3528 C3534 1.383 . S
C3529 C3525 1.495 . S
C3529 H3535 0.959 . S
C3529 H3536 0.961 . S
C3529 H3537 0.960 . S
C3530 C3528 1.381 . S
C3530 C3531 1.394 . S
C3530 H3538 0.930 . S
C3531 C3530 1.394 . S
C3531 C3532 1.383 . S
C3531 H3539 0.929 . S
C3532 C3531 1.383 . S
C3532 C3533 1.377 . S
C3533 H3517 0.930 . S
C3533 C3532 1.377 . S
C3533 C3534 1.379 . S
C3534 H3518 0.931 . S
C3534 C3528 1.383 . S
C3534 C3533 1.379 . S
H3535 C3529 0.959 . S
H3536 C3529 0.961 . S
H3537 C3529 0.960 . S
H3538 C3530 0.930 . S
H3539 C3531 0.929 . S
H3540 C3548 0.929 . S
H3541 C3550 0.930 . S
H3542 C3552 0.930 . S
H3543 C3555 0.929 . S
H3544 C3558 0.932 . S
H3545 C3560 0.960 . S
H3546 C3560 0.960 . S
H3547 C3560 0.960 . S
C3548 H3540 0.929 . S
C3548 C3549 1.377 . S
C3548 C3550 1.384 . S
C3549 C3548 1.377 . S
C3549 C3555 1.390 . S
C3550 H3541 0.930 . S
C3550 C3548 1.384 . S
C3550 C3551 1.372 . S
C3551 C3550 1.372 . S
C3551 C3552 1.400 . S
C3551 C3556 1.490 . S
C3552 H3542 0.930 . S
C3552 C3551 1.400 . S
C3552 C3555 1.386 . S
H3553 C3569 0.930 . S
H3554 C3570 0.931 . S
C3555 H3543 0.929 . S
C3555 C3549 1.390 . S
C3555 C3552 1.386 . S
C3556 C3551 1.490 . S
C3556 C3558 1.411 . S
C3556 C3559 1.403 . S
H3557 C3563 0.930 . S
C3558 H3544 0.932 . S
C3558 C3556 1.411 . S
C3558 C3561 1.386 1_545 S
C3559 C3556 1.403 . S
C3559 C3560 1.524 . S
C3559 C3563 1.400 1_545 S
C3560 H3545 0.960 . S
C3560 H3546 0.960 . S
C3560 H3547 0.960 . S
C3560 C3559 1.524 . S
C3561 C3558 1.386 1_565 S
C3561 C3562 1.392 . S
C3561 C3565 1.495 . S
C3562 C3561 1.392 . S
C3562 C3563 1.385 . S
C3562 C3564 1.478 . S
C3563 H3557 0.930 . S
C3563 C3559 1.400 1_565 S
C3563 C3562 1.385 . S
C3564 C3562 1.478 . S
C3564 C3566 1.381 . S
C3564 C3570 1.383 . S
C3565 C3561 1.495 . S
C3565 H3571 0.959 . S
C3565 H3572 0.961 . S
C3565 H3573 0.960 . S
C3566 C3564 1.381 . S
C3566 C3567 1.394 . S
C3566 H3574 0.930 . S
C3567 C3566 1.394 . S
C3567 C3568 1.383 . S
C3567 H3575 0.929 . S
C3568 C3567 1.383 . S
C3568 C3569 1.377 . S
C3569 H3553 0.930 . S
C3569 C3568 1.377 . S
C3569 C3570 1.379 . S
C3570 H3554 0.931 . S
C3570 C3564 1.383 . S
C3570 C3569 1.379 . S
H3571 C3565 0.959 . S
H3572 C3565 0.961 . S
H3573 C3565 0.960 . S
H3574 C3566 0.930 . S
H3575 C3567 0.929 . S
H3576 C3584 0.929 . S
H3577 C3586 0.930 . S
H3578 C3588 0.930 . S
H3579 C3591 0.929 . S
H3580 C3594 0.930 . S
H3581 C3596 0.960 . S
H3582 C3596 0.960 . S
H3583 C3596 0.960 . S
C3584 H3576 0.929 . S
C3584 C3585 1.377 . S
C3584 C3586 1.384 . S
C3585 C3584 1.377 . S
C3585 C3591 1.390 . S
C3586 H3577 0.930 . S
C3586 C3584 1.384 . S
C3586 C3587 1.372 . S
C3587 C3586 1.372 . S
C3587 C3588 1.400 . S
C3587 C3592 1.490 . S
C3588 H3578 0.930 . S
C3588 C3587 1.400 . S
C3588 C3591 1.386 . S
H3589 C3605 0.930 . S
H3590 C3606 0.931 . S
C3591 H3579 0.929 . S
C3591 C3585 1.390 . S
C3591 C3588 1.386 . S
C3592 C3587 1.490 . S
C3592 C3594 1.395 1_556 S
C3592 C3595 1.403 . S
H3593 C3599 0.932 . S
C3594 H3580 0.930 . S
C3594 C3592 1.395 1_554 S
C3594 C3597 1.403 . S
C3595 C3592 1.403 . S
C3595 C3596 1.524 . S
C3595 C3599 1.400 1_556 S
C3596 H3581 0.960 . S
C3596 H3582 0.960 . S
C3596 H3583 0.960 . S
C3596 C3595 1.524 . S
C3597 C3594 1.403 . S
C3597 C3598 1.392 . S
C3597 C3601 1.495 . S
C3598 C3597 1.392 . S
C3598 C3599 1.385 . S
C3598 C3600 1.478 . S
C3599 H3593 0.932 . S
C3599 C3595 1.400 1_554 S
C3599 C3598 1.385 . S
C3600 C3598 1.478 . S
C3600 C3602 1.381 . S
C3600 C3606 1.383 . S
C3601 C3597 1.495 . S
C3601 H3607 0.959 . S
C3601 H3608 0.961 . S
C3601 H3609 0.960 . S
C3602 C3600 1.381 . S
C3602 C3603 1.394 . S
C3602 H3610 0.930 . S
C3603 C3602 1.394 . S
C3603 C3604 1.383 . S
C3603 H3611 0.929 . S
C3604 C3603 1.383 . S
C3604 C3605 1.377 . S
C3605 H3589 0.930 . S
C3605 C3604 1.377 . S
C3605 C3606 1.379 . S
C3606 H3590 0.931 . S
C3606 C3600 1.383 . S
C3606 C3605 1.379 . S
H3607 C3601 0.959 . S
H3608 C3601 0.961 . S
H3609 C3601 0.960 . S
H3610 C3602 0.930 . S
H3611 C3603 0.929 . S
H3612 C3620 0.929 . S
H3613 C3622 0.930 . S
H3614 C3624 0.930 . S
H3615 C3627 0.929 . S
H3616 C3630 0.930 . S
H3617 C3632 0.900 1_565 S
H3618 C3632 1.024 . S
H3619 C3632 0.960 . S
C3620 H3612 0.929 . S
C3620 C3621 1.377 . S
C3620 C3622 1.384 . S
C3621 C3620 1.377 . S
C3621 C3627 1.390 . S
C3622 H3613 0.930 . S
C3622 C3620 1.384 . S
C3622 C3623 1.372 . S
C3623 C3622 1.372 . S
C3623 C3624 1.400 . S
C3623 C3628 1.490 . S
C3624 H3614 0.930 . S
C3624 C3623 1.400 . S
C3624 C3627 1.386 . S
H3625 C3641 0.930 . S
H3626 C3642 0.931 . S
C3627 H3615 0.929 . S
C3627 C3621 1.390 . S
C3627 C3624 1.386 . S
C3628 C3623 1.490 . S
C3628 C3630 1.395 . S
C3628 C3631 1.403 . S
H3629 C3635 0.930 . S
C3630 H3616 0.930 . S
C3630 C3628 1.395 . S
C3630 C3633 1.447 . S
C3631 C3628 1.403 . S
C3631 C3632 1.526 . S
C3631 C3635 1.400 1_545 S
C3632 H3617 0.900 1_545 S
C3632 H3618 1.024 . S
C3632 H3619 0.960 . S
C3632 C3631 1.526 . S
C3633 C3630 1.447 . S
C3633 C3634 1.350 1_545 S
C3633 C3637 1.497 . S
C3634 C3633 1.350 1_565 S
C3634 C3635 1.385 . S
C3634 C3636 1.478 . S
C3635 H3629 0.930 . S
C3635 C3631 1.400 1_565 S
C3635 C3634 1.385 . S
C3636 C3634 1.478 . S
C3636 C3638 1.381 . S
C3636 C3642 1.383 . S
C3637 C3633 1.497 . S
C3637 H3643 0.959 . S
C3637 H3644 0.961 1_545 S
C3637 H3645 0.960 . S
C3638 C3636 1.381 . S
C3638 C3639 1.394 . S
C3638 H3646 0.930 . S
C3639 C3638 1.394 . S
C3639 C3640 1.383 . S
C3639 H3647 0.929 . S
C3640 C3639 1.383 . S
C3640 C3641 1.377 . S
C3641 H3625 0.930 . S
C3641 C3640 1.377 . S
C3641 C3642 1.379 . S
C3642 H3626 0.931 . S
C3642 C3636 1.383 . S
C3642 C3641 1.379 . S
H3643 C3637 0.959 . S
H3644 C3637 0.961 1_565 S
H3645 C3637 0.960 . S
H3646 C3638 0.930 . S
H3647 C3639 0.929 . S
H3648 C3656 0.929 . S
H3649 C3658 0.930 . S
H3650 C3660 0.930 . S
H3651 C3663 0.929 . S
H3652 C3666 0.930 . S
H3653 C3668 0.960 . S
H3654 C3668 0.960 . S
H3655 C3668 0.960 . S
C3656 H3648 0.929 . S
C3656 C3657 1.377 . S
C3656 C3658 1.384 . S
C3657 C3656 1.377 . S
C3657 C3663 1.390 . S
C3658 H3649 0.930 . S
C3658 C3656 1.384 . S
C3658 C3659 1.372 . S
C3659 C3658 1.372 . S
C3659 C3660 1.400 . S
C3659 C3664 1.490 . S
C3660 H3650 0.930 . S
C3660 C3659 1.400 . S
C3660 C3663 1.386 . S
H3661 C3677 0.930 . S
H3662 C3678 0.931 . S
C3663 H3651 0.929 . S
C3663 C3657 1.390 . S
C3663 C3660 1.386 . S
C3664 C3659 1.490 . S
C3664 C3666 1.395 . S
C3664 C3667 1.403 1_556 S
H3665 C3671 0.930 . S
C3666 H3652 0.930 . S
C3666 C3664 1.395 . S
C3666 C3669 1.403 . S
C3667 C3664 1.403 1_554 S
C3667 C3668 1.524 . S
C3667 C3671 1.400 . S
C3668 H3653 0.960 . S
C3668 H3654 0.960 . S
C3668 H3655 0.960 . S
C3668 C3667 1.524 . S
C3669 C3666 1.403 . S
C3669 C3670 1.392 1_556 S
C3669 C3673 1.495 . S
C3670 C3669 1.392 1_554 S
C3670 C3671 1.385 . S
C3670 C3672 1.478 . S
C3671 H3665 0.930 . S
C3671 C3667 1.400 . S
C3671 C3670 1.385 . S
C3672 C3670 1.478 . S
C3672 C3674 1.381 . S
C3672 C3678 1.383 . S
C3673 C3669 1.495 . S
C3673 H3679 0.959 . S
C3673 H3680 0.961 . S
C3673 H3681 0.960 . S
C3674 C3672 1.381 . S
C3674 C3675 1.394 . S
C3674 H3682 0.930 . S
C3675 C3674 1.394 . S
C3675 C3676 1.383 . S
C3675 H3683 0.929 . S
C3676 C3675 1.383 . S
C3676 C3677 1.377 . S
C3677 H3661 0.930 . S
C3677 C3676 1.377 . S
C3677 C3678 1.379 . S
C3678 H3662 0.931 . S
C3678 C3672 1.383 . S
C3678 C3677 1.379 . S
H3679 C3673 0.959 . S
H3680 C3673 0.961 . S
H3681 C3673 0.960 . S
H3682 C3674 0.930 . S
H3683 C3675 0.929 . S
H3684 C3692 0.929 . S
H3685 C3694 0.930 . S
H3686 C3696 0.930 . S
H3687 C3699 0.929 . S
H3688 C3702 0.930 . S
H3689 C3704 0.960 . S
H3690 C3704 0.960 . S
H3691 C3704 0.960 . S
C3692 H3684 0.929 . S
C3692 C3693 1.377 . S
C3692 C3694 1.384 . S
C3693 C3692 1.377 . S
C3693 C3699 1.390 . S
C3694 H3685 0.930 . S
C3694 C3692 1.384 . S
C3694 C3695 1.372 . S
C3695 C3694 1.372 . S
C3695 C3696 1.400 . S
C3695 C3700 1.490 . S
C3696 H3686 0.930 . S
C3696 C3695 1.400 . S
C3696 C3699 1.386 . S
H3697 C3713 0.930 . S
H3698 C3714 0.931 . S
C3699 H3687 0.929 . S
C3699 C3693 1.390 . S
C3699 C3696 1.386 . S
C3700 C3695 1.490 . S
C3700 C3702 1.395 . S
C3700 C3703 1.403 . S
H3701 C3707 0.930 . S
C3702 H3688 0.930 . S
C3702 C3700 1.395 . S
C3702 C3705 1.403 . S
C3703 C3700 1.403 . S
C3703 C3704 1.524 . S
C3703 C3707 1.400 . S
C3704 H3689 0.960 . S
C3704 H3690 0.960 . S
C3704 H3691 0.960 . S
C3704 C3703 1.524 . S
C3705 C3702 1.403 . S
C3705 C3706 1.392 . S
C3705 C3709 1.495 . S
C3706 C3705 1.392 . S
C3706 C3707 1.385 . S
C3706 C3708 1.478 . S
C3707 H3701 0.930 . S
C3707 C3703 1.400 . S
C3707 C3706 1.385 . S
C3708 C3706 1.478 . S
C3708 C3710 1.381 . S
C3708 C3714 1.383 . S
C3709 C3705 1.495 . S
C3709 H3715 0.959 . S
C3709 H3716 0.961 . S
C3709 H3717 0.960 . S
C3710 C3708 1.381 . S
C3710 C3711 1.394 . S
C3710 H3718 0.930 . S
C3711 C3710 1.394 . S
C3711 C3712 1.383 . S
C3711 H3719 0.929 . S
C3712 C3711 1.383 . S
C3712 C3713 1.377 . S
C3713 H3697 0.930 . S
C3713 C3712 1.377 . S
C3713 C3714 1.379 . S
C3714 H3698 0.931 . S
C3714 C3708 1.383 . S
C3714 C3713 1.379 . S
H3715 C3709 0.959 . S
H3716 C3709 0.961 . S
H3717 C3709 0.960 . S
H3718 C3710 0.930 . S
H3719 C3711 0.929 . S
H3720 C3728 0.929 . S
H3721 C3730 0.930 . S
H3722 C3732 0.930 . S
H3723 C3735 0.929 . S
H3724 C3738 0.930 . S
H3725 C3740 0.960 . S
H3726 C3740 0.960 . S
H3727 C3740 0.960 . S
C3728 H3720 0.929 . S
C3728 C3729 1.377 . S
C3728 C3730 1.384 . S
C3729 C3728 1.377 . S
C3729 C3735 1.390 . S
C3730 H3721 0.930 . S
C3730 C3728 1.384 . S
C3730 C3731 1.372 . S
C3731 C3730 1.372 . S
C3731 C3732 1.400 . S
C3731 C3736 1.490 . S
C3732 H3722 0.930 . S
C3732 C3731 1.400 . S
C3732 C3735 1.386 . S
H3733 C3749 0.930 . S
H3734 C3750 0.931 . S
C3735 H3723 0.929 . S
C3735 C3729 1.390 . S
C3735 C3732 1.386 . S
C3736 C3731 1.490 . S
C3736 C3738 1.395 . S
C3736 C3739 1.403 . S
H3737 C3743 0.930 . S
C3738 H3724 0.930 . S
C3738 C3736 1.395 . S
C3738 C3741 1.403 . S
C3739 C3736 1.403 . S
C3739 C3740 1.524 . S
C3739 C3743 1.400 . S
C3740 H3725 0.960 . S
C3740 H3726 0.960 . S
C3740 H3727 0.960 . S
C3740 C3739 1.524 . S
C3741 C3738 1.403 . S
C3741 C3742 1.392 . S
C3741 C3745 1.495 . S
C3742 C3741 1.392 . S
C3742 C3743 1.385 . S
C3742 C3744 1.478 . S
C3743 H3737 0.930 . S
C3743 C3739 1.400 . S
C3743 C3742 1.385 . S
C3744 C3742 1.478 . S
C3744 C3746 1.381 . S
C3744 C3750 1.383 . S
C3745 C3741 1.495 . S
C3745 H3751 0.959 . S
C3745 H3752 0.961 . S
C3745 H3753 0.960 . S
C3746 C3744 1.381 . S
C3746 C3747 1.394 . S
C3746 H3754 0.930 . S
C3747 C3746 1.394 . S
C3747 C3748 1.383 . S
C3747 H3755 0.929 . S
C3748 C3747 1.383 . S
C3748 C3749 1.377 . S
C3749 H3733 0.930 . S
C3749 C3748 1.377 . S
C3749 C3750 1.379 . S
C3750 H3734 0.931 . S
C3750 C3744 1.383 . S
C3750 C3749 1.379 . S
H3751 C3745 0.959 . S
H3752 C3745 0.961 . S
H3753 C3745 0.960 . S
H3754 C3746 0.930 . S
H3755 C3747 0.929 . S
H3756 C3764 0.929 . S
H3757 C3766 0.930 . S
H3758 C3768 0.930 . S
H3759 C3771 0.929 . S
H3760 C3774 0.930 . S
H3761 C3776 0.960 . S
H3762 C3776 0.960 . S
H3763 C3776 0.960 . S
C3764 H3756 0.929 . S
C3764 C3765 1.377 . S
C3764 C3766 1.384 . S
C3765 C3764 1.377 . S
C3765 C3771 1.390 . S
C3766 H3757 0.930 . S
C3766 C3764 1.384 . S
C3766 C3767 1.372 . S
C3767 C3766 1.372 . S
C3767 C3768 1.400 . S
C3767 C3772 1.490 . S
C3768 H3758 0.930 . S
C3768 C3767 1.400 . S
C3768 C3771 1.386 . S
H3769 C3785 0.930 . S
H3770 C3786 0.931 . S
C3771 H3759 0.929 . S
C3771 C3765 1.390 . S
C3771 C3768 1.386 . S
C3772 C3767 1.490 . S
C3772 C3774 1.395 . S
C3772 C3775 1.403 . S
H3773 C3779 0.930 . S
C3774 H3760 0.930 . S
C3774 C3772 1.395 . S
C3774 C3777 1.403 . S
C3775 C3772 1.403 . S
C3775 C3776 1.524 . S
C3775 C3779 1.400 . S
C3776 H3761 0.960 . S
C3776 H3762 0.960 . S
C3776 H3763 0.960 . S
C3776 C3775 1.524 . S
C3777 C3774 1.403 . S
C3777 C3778 1.392 . S
C3777 C3781 1.495 . S
C3778 C3777 1.392 . S
C3778 C3779 1.385 . S
C3778 C3780 1.478 . S
C3779 H3773 0.930 . S
C3779 C3775 1.400 . S
C3779 C3778 1.385 . S
C3780 C3778 1.478 . S
C3780 C3782 1.381 . S
C3780 C3786 1.383 . S
C3781 C3777 1.495 . S
C3781 H3787 0.959 . S
C3781 H3788 0.961 . S
C3781 H3789 0.960 . S
C3782 C3780 1.381 . S
C3782 C3783 1.394 . S
C3782 H3790 0.930 . S
C3783 C3782 1.394 . S
C3783 C3784 1.383 . S
C3783 H3791 0.929 . S
C3784 C3783 1.383 . S
C3784 C3785 1.377 . S
C3785 H3769 0.930 . S
C3785 C3784 1.377 . S
C3785 C3786 1.379 . S
C3786 H3770 0.931 . S
C3786 C3780 1.383 . S
C3786 C3785 1.379 . S
H3787 C3781 0.959 . S
H3788 C3781 0.961 . S
H3789 C3781 0.960 . S
H3790 C3782 0.930 . S
H3791 C3783 0.929 . S
H3792 C3800 0.929 . S
H3793 C3802 0.930 . S
H3794 C3804 0.930 . S
H3795 C3807 0.929 . S
H3796 C3810 0.930 . S
H3797 C3812 0.960 . S
H3798 C3812 0.960 . S
H3799 C3812 0.960 . S
C3800 H3792 0.929 . S
C3800 C3801 1.377 . S
C3800 C3802 1.384 . S
C3801 C3800 1.377 . S
C3801 C3807 1.390 . S
C3802 H3793 0.930 . S
C3802 C3800 1.384 . S
C3802 C3803 1.372 . S
C3803 C3802 1.372 . S
C3803 C3804 1.400 . S
C3803 C3808 1.490 . S
C3804 H3794 0.930 . S
C3804 C3803 1.400 . S
C3804 C3807 1.386 . S
H3805 C3821 0.930 . S
H3806 C3822 0.931 . S
C3807 H3795 0.929 . S
C3807 C3801 1.390 . S
C3807 C3804 1.386 . S
C3808 C3803 1.490 . S
C3808 C3810 1.395 . S
C3808 C3811 1.403 1_554 S
H3809 C3815 0.930 . S
C3810 H3796 0.930 . S
C3810 C3808 1.395 . S
C3810 C3813 1.403 . S
C3811 C3808 1.403 1_556 S
C3811 C3812 1.524 . S
C3811 C3815 1.400 . S
C3812 H3797 0.960 . S
C3812 H3798 0.960 . S
C3812 H3799 0.960 . S
C3812 C3811 1.524 . S
C3813 C3810 1.403 . S
C3813 C3814 1.392 1_554 S
C3813 C3817 1.495 . S
C3814 C3813 1.392 1_556 S
C3814 C3815 1.385 . S
C3814 C3816 1.478 . S
C3815 H3809 0.930 . S
C3815 C3811 1.400 . S
C3815 C3814 1.385 . S
C3816 C3814 1.478 . S
C3816 C3818 1.381 . S
C3816 C3822 1.383 . S
C3817 C3813 1.495 . S
C3817 H3823 0.959 . S
C3817 H3824 0.961 . S
C3817 H3825 0.960 . S
C3818 C3816 1.381 . S
C3818 C3819 1.394 . S
C3818 H3826 0.930 . S
C3819 C3818 1.394 . S
C3819 C3820 1.383 . S
C3819 H3827 0.929 . S
C3820 C3819 1.383 . S
C3820 C3821 1.377 . S
C3821 H3805 0.930 . S
C3821 C3820 1.377 . S
C3821 C3822 1.379 . S
C3822 H3806 0.931 . S
C3822 C3816 1.383 . S
C3822 C3821 1.379 . S
H3823 C3817 0.959 . S
H3824 C3817 0.961 . S
H3825 C3817 0.960 . S
H3826 C3818 0.930 . S
H3827 C3819 0.929 . S
H3828 C3836 0.929 . S
H3829 C3838 0.930 . S
H3830 C3840 0.930 . S
H3831 C3843 0.929 . S
H3832 C3846 0.930 . S
H3833 C3848 0.960 . S
H3834 C3848 0.960 . S
H3835 C3848 0.960 . S
C3836 H3828 0.929 . S
C3836 C3837 1.377 . S
C3836 C3838 1.384 . S
C3837 C3836 1.377 . S
C3837 C3843 1.390 . S
C3838 H3829 0.930 . S
C3838 C3836 1.384 . S
C3838 C3839 1.372 . S
C3839 C3838 1.372 . S
C3839 C3840 1.400 . S
C3839 C3844 1.490 . S
C3840 H3830 0.930 . S
C3840 C3839 1.400 . S
C3840 C3843 1.386 . S
H3841 C3857 0.930 . S
H3842 C3858 0.931 . S
C3843 H3831 0.929 . S
C3843 C3837 1.390 . S
C3843 C3840 1.386 . S
C3844 C3839 1.490 . S
C3844 C3846 1.395 . S
C3844 C3847 1.403 . S
H3845 C3851 0.930 . S
C3846 H3832 0.930 . S
C3846 C3844 1.395 . S
C3846 C3849 1.403 . S
C3847 C3844 1.403 . S
C3847 C3848 1.524 . S
C3847 C3851 1.400 . S
C3848 H3833 0.960 . S
C3848 H3834 0.960 . S
C3848 H3835 0.960 . S
C3848 C3847 1.524 . S
C3849 C3846 1.403 . S
C3849 C3850 1.392 . S
C3849 C3853 1.495 . S
C3850 C3849 1.392 . S
C3850 C3851 1.385 . S
C3850 C3852 1.478 . S
C3851 H3845 0.930 . S
C3851 C3847 1.400 . S
C3851 C3850 1.385 . S
C3852 C3850 1.478 . S
C3852 C3854 1.381 . S
C3852 C3858 1.383 . S
C3853 C3849 1.495 . S
C3853 H3859 0.959 . S
C3853 H3860 0.961 . S
C3853 H3861 0.960 . S
C3854 C3852 1.381 . S
C3854 C3855 1.394 . S
C3854 H3862 0.930 . S
C3855 C3854 1.394 . S
C3855 C3856 1.383 . S
C3855 H3863 0.929 . S
C3856 C3855 1.383 . S
C3856 C3857 1.377 . S
C3857 H3841 0.930 . S
C3857 C3856 1.377 . S
C3857 C3858 1.379 . S
C3858 H3842 0.931 . S
C3858 C3852 1.383 . S
C3858 C3857 1.379 . S
H3859 C3853 0.959 . S
H3860 C3853 0.961 . S
H3861 C3853 0.960 . S
H3862 C3854 0.930 . S
H3863 C3855 0.929 . S
H3864 C3872 0.929 . S
H3865 C3874 0.930 . S
H3866 C3876 0.930 . S
H3867 C3879 0.929 . S
H3868 C3882 0.930 . S
H3869 C3884 0.960 . S
H3870 C3884 0.960 . S
H3871 C3884 0.960 . S
C3872 H3864 0.929 . S
C3872 C3873 1.377 . S
C3872 C3874 1.384 . S
C3873 C3872 1.377 . S
C3873 C3879 1.390 . S
C3874 H3865 0.930 . S
C3874 C3872 1.384 . S
C3874 C3875 1.372 . S
C3875 C3874 1.372 . S
C3875 C3876 1.400 . S
C3875 C3880 1.490 . S
C3876 H3866 0.930 . S
C3876 C3875 1.400 . S
C3876 C3879 1.386 . S
H3877 C3893 0.930 . S
H3878 C3894 0.931 . S
C3879 H3867 0.929 . S
C3879 C3873 1.390 . S
C3879 C3876 1.386 . S
C3880 C3875 1.490 . S
C3880 C3882 1.395 . S
C3880 C3883 1.403 . S
H3881 C3887 0.930 . S
C3882 H3868 0.930 . S
C3882 C3880 1.395 . S
C3882 C3885 1.403 . S
C3883 C3880 1.403 . S
C3883 C3884 1.524 . S
C3883 C3887 1.400 . S
C3884 H3869 0.960 . S
C3884 H3870 0.960 . S
C3884 H3871 0.960 . S
C3884 C3883 1.524 . S
C3885 C3882 1.403 . S
C3885 C3886 1.392 . S
C3885 C3889 1.495 . S
C3886 C3885 1.392 . S
C3886 C3887 1.385 . S
C3886 C3888 1.478 . S
C3887 H3881 0.930 . S
C3887 C3883 1.400 . S
C3887 C3886 1.385 . S
C3888 C3886 1.478 . S
C3888 C3890 1.381 . S
C3888 C3894 1.383 . S
C3889 C3885 1.495 . S
C3889 H3895 0.959 . S
C3889 H3896 0.961 . S
C3889 H3897 0.960 . S
C3890 C3888 1.381 . S
C3890 C3891 1.394 . S
C3890 H3898 0.930 . S
C3891 C3890 1.394 . S
C3891 C3892 1.383 . S
C3891 H3899 0.929 . S
C3892 C3891 1.383 . S
C3892 C3893 1.377 . S
C3893 H3877 0.930 . S
C3893 C3892 1.377 . S
C3893 C3894 1.379 . S
C3894 H3878 0.931 . S
C3894 C3888 1.383 . S
C3894 C3893 1.379 . S
H3895 C3889 0.959 . S
H3896 C3889 0.961 . S
H3897 C3889 0.960 . S
H3898 C3890 0.930 . S
H3899 C3891 0.929 . S
H3900 C3908 0.929 . S
H3901 C3910 0.930 . S
H3902 C3912 0.930 . S
H3903 C3915 0.929 . S
H3904 C3918 0.930 . S
H3905 C3920 0.960 . S
H3906 C3920 0.960 . S
H3907 C3920 0.960 . S
C3908 H3900 0.929 . S
C3908 C3909 1.377 . S
C3908 C3910 1.384 . S
C3909 C3908 1.377 . S
C3909 C3915 1.390 . S
C3910 H3901 0.930 . S
C3910 C3908 1.384 . S
C3910 C3911 1.372 . S
C3911 C3910 1.372 . S
C3911 C3912 1.400 . S
C3911 C3916 1.490 . S
C3912 H3902 0.930 . S
C3912 C3911 1.400 . S
C3912 C3915 1.386 . S
H3913 C3929 0.930 . S
H3914 C3930 0.931 . S
C3915 H3903 0.929 . S
C3915 C3909 1.390 . S
C3915 C3912 1.386 . S
C3916 C3911 1.490 . S
C3916 C3918 1.395 . S
C3916 C3919 1.403 . S
H3917 C3923 0.930 . S
C3918 H3904 0.930 . S
C3918 C3916 1.395 . S
C3918 C3921 1.403 . S
C3919 C3916 1.403 . S
C3919 C3920 1.524 . S
C3919 C3923 1.400 . S
C3920 H3905 0.960 . S
C3920 H3906 0.960 . S
C3920 H3907 0.960 . S
C3920 C3919 1.524 . S
C3921 C3918 1.403 . S
C3921 C3922 1.392 . S
C3921 C3925 1.495 . S
C3922 C3921 1.392 . S
C3922 C3923 1.385 . S
C3922 C3924 1.478 . S
C3923 H3917 0.930 . S
C3923 C3919 1.400 . S
C3923 C3922 1.385 . S
C3924 C3922 1.478 . S
C3924 C3926 1.381 . S
C3924 C3930 1.383 . S
C3925 C3921 1.495 . S
C3925 H3931 0.959 . S
C3925 H3932 0.961 . S
C3925 H3933 0.960 . S
C3926 C3924 1.381 . S
C3926 C3927 1.394 . S
C3926 H3934 0.930 . S
C3927 C3926 1.394 . S
C3927 C3928 1.383 . S
C3927 H3935 0.929 . S
C3928 C3927 1.383 . S
C3928 C3929 1.377 . S
C3929 H3913 0.930 . S
C3929 C3928 1.377 . S
C3929 C3930 1.379 . S
C3930 H3914 0.931 . S
C3930 C3924 1.383 . S
C3930 C3929 1.379 . S
H3931 C3925 0.959 . S
H3932 C3925 0.961 . S
H3933 C3925 0.960 . S
H3934 C3926 0.930 . S
H3935 C3927 0.929 . S
C1065 C249 1.653 1_554 S
C1084 C18 1.643 . S
C1101 C51 1.653 . S
C1120 C150 1.641 . S
C1137 C84 1.656 . S
C1156 C183 1.659 . S
C1173 C216 1.654 . S
C1192 C117 1.640 1_556 S
C1209 C282 1.655 . S
C1228 C513 1.643 1_556 S
C1245 C414 1.652 . S
C1264 C315 1.660 . S
C1281 C348 1.653 . S
C1300 C447 1.651 . S
C1317 C480 1.655 . S
C1336 C381 1.651 1_554 S
C1353 C777 1.655 . S
C1372 C546 1.660 . S
C1389 C678 1.652 . S
C1408 C579 1.646 1_556 S
C1425 C711 1.656 1_554 S
C1444 C612 1.656 . S
C1461 C744 1.652 . S
C1480 C645 1.656 . S
C1497 C1041 1.652 . S
C1516 C810 1.661 . S
C1533 C843 1.656 1_554 S
C1552 C942 1.640 . S
C1569 C975 1.656 1_556 S
C1588 C876 1.643 . S
C1605 C1008 1.656 . S
C1624 C909 1.640 . S
C1641 C21 1.261 . S
C1660 N904 1.239 . S
C1677 N277 1.258 . S
C1696 C54 1.271 . S
C1713 N838 1.258 . S
C1732 C87 1.271 . S
C1749 C120 1.264 . S
C1768 N343 1.261 . S
C1785 N970 1.258 . S
C1804 C153 1.271 . S
C1821 C186 1.261 . S
C1840 N475 1.239 . S
C1857 N1036 1.257 . S
C1876 C219 1.270 . S
C1893 N409 1.255 . S
C1912 C252 1.264 . S
C1929 C285 1.261 . S
C1948 N640 1.242 . S
C1965 C318 1.262 . S
C1984 N13 1.238 . S
C2001 N574 1.251 . S
C2020 C351 1.259 . S
C2037 N79 1.255 . S
C2056 C384 1.248 . S
C2073 N706 1.255 . S
C2092 C417 1.248 . S
C2109 N211 1.256 . S
C2128 C450 1.248 . S
C2145 C483 1.265 . S
C2164 N772 1.239 . S
C2181 C516 1.260 . S
C2200 N145 1.258 . S
C2217 C549 1.264 . S
C2236 N376 1.267 . S
C2253 N805 1.255 . S
C2272 C582 1.265 . S
C2289 N310 1.256 . S
C2308 C615 1.268 . S
C2325 C648 1.261 . S
C2344 N871 1.240 . S
C2361 C681 1.260 . S
C2380 N442 1.235 . S
C2397 N1003 1.257 . S
C2416 C714 1.269 . S
C2433 N508 1.253 . S
C2452 C747 1.256 . S
C2469 C780 1.261 . S
C2488 N937 1.237 . S
C2505 N112 1.257 . S
C2524 C813 1.250 . S
C2541 N541 1.258 . S
C2560 C846 1.254 . S
C2577 N46 1.250 . S
C2596 C879 1.262 . S
C2613 N607 1.255 . S
C2632 C912 1.267 . S
C2649 C945 1.265 . S
C2668 N178 1.246 . S
C2685 C978 1.264 . S
C2704 N739 1.258 . S
C2721 C1011 1.265 . S
C2740 N244 1.246 . S
C2757 N673 1.252 . S
C2776 C1044 1.253 . S
C2793 N2 0.488 . S
C2812 N794 0.508 . S
C2829 N35 0.467 . S
C2848 N299 0.398 . S
C2865 N68 0.458 . S
C2884 N860 0.414 . S
C2901 N365 0.485 . S
C2920 N101 0.468 . S
C2937 N926 0.458 . S
C2956 N134 0.414 . S
C2973 N167 0.475 . S
C2992 N431 0.414 . S
C3009 N200 0.466 . S
C3028 N992 0.397 . S
C3045 N233 0.477 . S
C3064 N497 0.423 . S
C3081 N530 0.476 . S
C3100 N266 0.545 . S
C3117 N332 0.459 . S
C3136 N596 0.405 . S
C3153 N662 0.469 . S
C3172 N398 0.401 . S
C3189 N464 0.458 . S
C3208 N728 0.412 . S
C3225 N563 0.486 . S
C3244 N827 0.479 . S
C3261 N893 0.458 . S
C3280 N629 0.409 . S
C3297 N695 0.487 . S
C3316 N959 0.493 . S
C3333 N1025 0.467 . S
C3352 N761 0.398 . S
C3369 C7 1.716 . S
C3388 C205 1.714 . S
C3405 C238 1.715 . S
C3424 C40 1.728 . S
C3441 C139 1.716 . S
C3460 C73 1.710 . S
C3477 C172 1.711 . S
C3496 C106 1.687 . S
C3513 C271 1.708 . S
C3532 C469 1.725 . S
C3549 C304 1.712 . S
C3568 C502 1.700 . S
C3585 C403 1.716 . S
C3604 C337 1.688 . S
C3621 C436 1.716 . S
C3640 C370 1.687 . S
C3657 C535 1.716 . S
C3676 C733 1.715 . S
C3693 C568 1.708 . S
C3712 C766 1.698 . S
C3729 C667 1.709 . S
C3748 C601 1.692 . S
C3765 C700 1.708 . S
C3784 C634 1.711 . S
C3801 C799 1.709 . S
C3820 C997 1.715 . S
C3837 C832 1.708 . S
C3856 C1030 1.721 . S
C3873 C931 1.716 . S
C3892 C865 1.688 . S
C3909 C898 1.710 . S
C3928 C964 1.726 . S
