# Generated by pormake.
# Topology irl, (4)-cn, num edge types: 1
# Building blocks:
#     Node 0, Type 0, BuildingBlock: QUQFOY_clean_sbu_3, # of connection points: 4
#     Node 1, Type 0, BuildingBlock: QUQFOY_clean_sbu_3, # of connection points: 4
#     Node 2, Type 0, BuildingBlock: QUQFOY_clean_sbu_3, # of connection points: 4
#     Node 3, Type 0, BuildingBlock: QUQFOY_clean_sbu_3, # of connection points: 4
#     Node 4, Type 0, BuildingBlock: QUQFOY_clean_sbu_3, # of connection points: 4
#     Node 5, Type 0, BuildingBlock: QUQFOY_clean_sbu_3, # of connection points: 4
#     Node 6, Type 0, BuildingBlock: QUQFOY_clean_sbu_3, # of connection points: 4
#     Node 7, Type 0, BuildingBlock: QUQFOY_clean_sbu_3, # of connection points: 4
#     Edge 8, Type (0, 0), BuildingBlock: XIVTED_clean_linker_0, # of connection points: 2
#     Edge 9, Type (0, 0), BuildingBlock: XIVTED_clean_linker_0, # of connection points: 2
#     Edge 10, Type (0, 0), BuildingBlock: XIVTED_clean_linker_0, # of connection points: 2
#     Edge 11, Type (0, 0), BuildingBlock: XIVTED_clean_linker_0, # of connection points: 2
#     Edge 12, Type (0, 0), BuildingBlock: XIVTED_clean_linker_0, # of connection points: 2
#     Edge 13, Type (0, 0), BuildingBlock: XIVTED_clean_linker_0, # of connection points: 2
#     Edge 14, Type (0, 0), BuildingBlock: XIVTED_clean_linker_0, # of connection points: 2
#     Edge 15, Type (0, 0), BuildingBlock: XIVTED_clean_linker_0, # of connection points: 2
#     Edge 16, Type (0, 0), BuildingBlock: XIVTED_clean_linker_0, # of connection points: 2
#     Edge 17, Type (0, 0), BuildingBlock: XIVTED_clean_linker_0, # of connection points: 2
#     Edge 18, Type (0, 0), BuildingBlock: XIVTED_clean_linker_0, # of connection points: 2
#     Edge 19, Type (0, 0), BuildingBlock: XIVTED_clean_linker_0, # of connection points: 2
#     Edge 20, Type (0, 0), BuildingBlock: XIVTED_clean_linker_0, # of connection points: 2
#     Edge 21, Type (0, 0), BuildingBlock: XIVTED_clean_linker_0, # of connection points: 2
#     Edge 22, Type (0, 0), BuildingBlock: XIVTED_clean_linker_0, # of connection points: 2
#     Edge 23, Type (0, 0), BuildingBlock: XIVTED_clean_linker_0, # of connection points: 2
# Relax obj value: 0.062
# Max RMSD: 0.123
# Mean RMSD: 0.123
data_MOF--net-irl--node1-QUQFOY_clean_sbu_3--edge1-XIVTED_clean_linker_0
_symmetry_space_group_name_H-M    P1
_symmetry_Int_Tables_number       1
_symmetry_cell_setting            triclinic
loop_
_symmetry_equiv_pos_as_xyz
'x, y, z'
_cell_length_a     35.400076
_cell_length_b     45.299289
_cell_length_c     29.037242
_cell_angle_alpha  89.571865
_cell_angle_beta   90.078821
_cell_angle_gamma 90.138036
loop_
_atom_site_label
_atom_site_type_symbol
_atom_site_fract_x
_atom_site_fract_y
_atom_site_fract_z
_atom_type_partial_charge
C0 C 0.98649 0.17221 0.88205 0.0
O1 O 0.95385 0.16986 0.89972 0.0
Cd2 Cd 0.94915 0.14651 0.97485 0.0
O3 O 0.01522 0.16348 0.90432 0.0
Cd4 Cd 0.03376 0.14408 0.97886 0.0
C5 C 0.98997 0.07869 0.96472 0.0
O6 O 0.99037 0.17224 0.02798 0.0
O7 O 0.02674 0.13959 0.06053 0.0
O8 O 0.07828 0.18332 0.96922 0.0
C9 C 0.00398 0.16097 0.06464 0.0
O10 O 0.95959 0.09326 0.96986 0.0
C11 C 0.10777 0.16814 0.97594 0.0
O12 O 0.02176 0.0919 0.964 0.0
O13 O 0.10324 0.14069 -0.01605 0.0
C14 C 0.01119 0.77182 0.92283 0.0
O15 O 0.03923 0.77639 0.94919 0.0
Cd16 Cd 0.02793 0.79563 0.02598 0.0
O17 O 0.97783 0.77614 0.93703 0.0
Cd18 Cd 0.93894 0.79011 0.00117 0.0
C19 C 0.97871 0.85836 -0.00593 0.0
O20 O 0.97682 0.77004 0.06405 0.0
O21 O 0.92848 0.7973 0.08126 0.0
O22 O 0.90166 0.74695 -0.01566 0.0
C23 C 0.95615 0.78176 0.09473 0.0
O24 O 0.00854 0.84619 0.00975 0.0
C25 C 0.87098 0.76079 0.9778 0.0
O26 O 0.94908 0.84314 -0.01407 0.0
O27 O 0.87189 0.78875 0.98177 0.0
C28 C -0.00787 0.8256 0.59826 0.0
O29 O 0.95933 0.82791 0.58097 0.0
Cd30 Cd 0.95363 0.85106 0.50584 0.0
O31 O 0.02069 0.83434 0.57565 0.0
Cd32 Cd 0.03833 0.85387 0.50082 0.0
C33 C -0.00545 0.91904 0.51536 0.0
O34 O -0.0056 0.82561 0.45226 0.0
O35 O 0.03029 0.85848 0.41927 0.0
O36 O 0.08337 0.81499 0.50863 0.0
C37 C 0.00746 0.83703 0.41543 0.0
O38 O 0.96414 0.90433 0.51063 0.0
C39 C 0.11262 0.83065 0.50248 0.0
O40 O 0.02636 0.90598 0.51569 0.0
O41 O 0.10769 0.85815 0.49553 0.0
C42 C 0.01214 0.22625 0.55808 0.0
O43 O 0.0404 0.22224 0.532 0.0
Cd44 Cd 0.02934 0.20291 0.45503 0.0
O45 O 0.97898 0.22133 0.54347 0.0
Cd46 Cd 0.94042 0.2068 0.47933 0.0
C47 C 0.98171 0.13926 0.48626 0.0
O48 O 0.97774 0.22776 0.41654 0.0
O49 O 0.92982 0.19981 0.39929 0.0
O50 O 0.90193 0.24896 0.49711 0.0
C51 C 0.95712 0.21584 0.38585 0.0
O52 O 0.01133 0.15189 0.47075 0.0
C53 C 0.87174 0.23437 0.50365 0.0
O54 O 0.95181 0.15403 0.49432 0.0
O55 O 0.87346 0.20649 0.499 0.0
C56 C 0.48671 0.67412 0.90184 0.0
O57 O 0.45574 0.67263 0.92372 0.0
Cd58 Cd 0.45756 0.65269 0.00132 0.0
O59 O 0.51707 0.6652 0.9205 0.0
Cd60 Cd 0.5453 0.64546 -0.01002 0.0
C61 C 0.49302 0.58272 -0.01118 0.0
O62 O 0.50909 0.67808 0.03936 0.0
O63 O 0.54811 0.64797 0.07288 0.0
O64 O 0.59141 0.67939 0.96082 0.0
C65 C 0.52512 0.66927 0.07608 0.0
O66 O 0.46471 0.59896 -0.00218 0.0
C67 C 0.62009 0.66341 0.96832 0.0
O68 O 0.5255 0.59409 0.98212 0.0
O69 O 0.61425 0.638 -0.01409 0.0
C70 C 0.49544 0.27859 0.93221 0.0
O71 O 0.52486 0.28024 0.95717 0.0
Cd72 Cd 0.51971 0.2968 0.03623 0.0
O73 O 0.46313 0.28368 0.9492 0.0
Cd74 Cd 0.42903 0.29539 0.01871 0.0
C75 C 0.47225 0.36228 0.01461 0.0
O76 O 0.46954 0.27123 0.07539 0.0
O77 O 0.42418 0.29909 0.10028 0.0
O78 O 0.38938 0.25399 7e-05 0.0
C79 C 0.45165 0.28209 0.10923 0.0
O80 O 0.50207 0.34836 0.02621 0.0
C81 C 0.35867 0.26836 -0.00041 0.0
O82 O 0.44118 0.34859 0.00789 0.0
O83 O 0.36063 0.29594 0.0074 0.0
C84 C 0.48965 0.32645 0.6008 0.0
O85 O 0.45889 0.32821 0.57841 0.0
Cd86 Cd 0.46004 0.34798 0.50086 0.0
O87 O 0.52047 0.33466 0.58239 0.0
Cd88 Cd 0.54764 0.35307 0.51101 0.0
C89 C 0.49855 0.41706 0.51306 0.0
O90 O 0.50945 0.32176 0.46106 0.0
O91 O 0.54819 0.35231 0.42792 0.0
O92 O 0.59396 0.31757 0.5346 0.0
C93 C 0.5249 0.33116 0.42434 0.0
O94 O 0.46951 0.40146 0.50419 0.0
C95 C 0.62265 0.33374 0.52763 0.0
O96 O 0.53057 0.40495 0.51952 0.0
O97 O 0.61667 0.35993 0.51333 0.0
C98 C 0.49693 0.72261 0.5719 0.0
O99 O 0.52733 0.72054 0.54899 0.0
Cd100 Cd 0.52563 0.70314 0.47023 0.0
O101 O 0.46535 0.71726 0.55301 0.0
Cd102 Cd 0.43557 0.70434 0.48107 0.0
C103 C 0.47813 0.63749 0.48884 0.0
O104 O 0.4781 0.72879 0.42641 0.0
O105 O 0.43454 0.69962 0.3997 0.0
O106 O 0.39395 0.74517 0.49504 0.0
C107 C 0.46147 0.71745 0.39191 0.0
O108 O 0.50849 0.65129 0.47891 0.0
C109 C 0.36367 0.73018 0.49342 0.0
O110 O 0.44704 0.65132 0.4936 0.0
O111 O 0.36678 0.70256 0.48676 0.0
H112 H 0.91904 0.89496 0.97265 0.0
H113 H 0.04915 0.03989 0.96165 0.0
H114 H 0.0397 0.89531 -0.00514 0.0
H115 H 0.92723 0.04296 0.96296 0.0
H116 H 0.04604 0.98612 0.96432 0.0
H117 H 0.92136 0.94857 0.96031 0.0
C118 C 0.94599 0.90624 0.97476 0.0
C119 C 0.97917 0.8906 -0.01488 0.0
C120 C 0.01994 0.99854 0.96382 0.0
C121 C 0.98204 0.95177 0.97082 0.0
C122 C 0.0217 0.02929 0.96214 0.0
C123 C 0.98841 0.04604 0.96242 0.0
C124 C 0.98465 0.98433 0.9657 0.0
C125 C 0.95365 0.03097 0.96298 0.0
C126 C 0.94729 0.93682 0.96777 0.0
C127 C 0.01332 0.90639 -0.01266 0.0
N128 N 0.95267 0.00097 0.9648 0.0
N129 N 0.01383 0.93603 0.98031 0.0
H130 H 0.0537 0.95815 0.51709 0.0
H131 H 0.92267 0.10212 0.50843 0.0
H132 H 0.93178 0.95441 0.51837 0.0
H133 H 0.04305 0.10285 0.48442 0.0
H134 H 0.92557 0.04857 0.52068 0.0
H135 H 0.05038 0.01192 0.51439 0.0
C136 C 0.02621 0.96861 0.51717 0.0
C137 C -0.00703 0.95167 0.51763 0.0
C138 C 0.95131 0.06053 0.51284 0.0
C139 C 0.98898 0.01335 0.51432 0.0
C140 C 0.94969 0.09108 0.50589 0.0
C141 C 0.98262 0.10702 0.49507 0.0
C142 C 0.98613 0.04588 0.50925 0.0
C143 C 0.01686 0.09153 0.49232 0.0
C144 C 0.02434 0.99935 0.51546 0.0
C145 C 0.95816 0.96654 0.51777 0.0
N146 N 0.01769 0.06189 0.4993 0.0
N147 N 0.95707 0.99652 0.51592 0.0
H148 H 0.42753 0.55039 -0.00344 0.0
H149 H 0.53583 0.39633 0.0118 0.0
H150 H 0.5481 0.5408 0.98013 0.0
H151 H 0.4143 0.40223 0.00258 0.0
H152 H 0.54015 0.44955 0.00222 0.0
H153 H 0.42142 0.4966 0.00015 0.0
C154 C 0.4527 0.53702 -0.00654 0.0
C155 C 0.48844 0.5502 -0.01177 0.0
C156 C 0.5125 0.43928 0.00212 0.0
C157 C 0.48158 0.48865 -0.0074 0.0
C158 C 0.50995 0.40881 0.00779 0.0
C159 C 0.47459 0.39471 0.00819 0.0
C160 C 0.47945 0.45604 -0.00286 0.0
C161 C 0.44214 0.41216 0.0025 0.0
C162 C 0.44915 0.5063 -0.00452 0.0
C163 C 0.51999 0.53171 -0.01572 0.0
N164 N 0.44534 0.44198 -0.00254 0.0
N165 N 0.51583 0.50193 -0.01317 0.0
H166 H 0.55524 0.45785 0.52267 0.0
H167 H 0.4191 0.59829 0.49937 0.0
H168 H 0.43439 0.45066 0.50522 0.0
H169 H 0.54088 0.60266 0.49321 0.0
H170 H 0.42335 0.54456 0.50872 0.0
H171 H 0.54963 0.51149 0.51973 0.0
C172 C 0.52748 0.46752 0.51847 0.0
C173 C 0.49527 0.44965 0.51396 0.0
C174 C 0.44909 0.55735 0.50536 0.0
C175 C 0.48866 0.5112 0.51043 0.0
C176 C 0.44669 0.58801 0.50009 0.0
C177 C 0.47966 0.60504 0.49527 0.0
C178 C 0.48471 0.5437 0.50616 0.0
C179 C 0.51466 0.59049 0.4965 0.0
C180 C 0.52431 0.49819 0.51665 0.0
C181 C 0.46004 0.46353 0.50863 0.0
N182 N 0.51623 0.56074 0.50182 0.0
N183 N 0.45768 0.49347 0.50692 0.0
H184 H 0.94531 0.19611 0.09122 0.0
H185 H 0.0266 0.2193 0.34532 0.0
H186 H 0.04934 0.15738 0.1401 0.0
H187 H 0.90736 0.21579 0.31501 0.0
H188 H 0.04 0.2119 0.26316 0.0
H189 H 0.93569 0.2177 0.1677 0.0
C190 C 0.96616 0.19232 0.11795 0.0
C191 C -0.00219 0.1746 0.10978 0.0
C192 C 0.01095 0.21335 0.27456 0.0
C193 C 0.98758 0.19969 0.19613 0.0
C194 C 0.00334 0.21778 0.32115 0.0
C195 C 0.96589 0.21777 0.3366 0.0
C196 C 0.98084 0.20946 0.24361 0.0
C197 C 0.93663 0.21553 0.30423 0.0
C198 C 0.96073 0.20466 0.16132 0.0
C199 C 0.0242 0.1705 0.14532 0.0
N200 N 0.94471 0.21127 0.25916 0.0
N201 N 0.0185 0.18296 0.18704 0.0
H202 H 0.94812 0.80206 0.38965 0.0
H203 H 0.02603 0.77856 0.13447 0.0
H204 H 0.05175 0.84083 0.3392 0.0
H205 H 0.90715 0.78255 0.16624 0.0
H206 H 0.04039 0.7863 0.21635 0.0
H207 H 0.93723 0.7807 0.31321 0.0
C208 C 0.96861 0.80591 0.36258 0.0
C209 C 0.00053 0.82356 0.37031 0.0
C210 C 0.0112 0.7849 0.20533 0.0
C211 C 0.98886 0.79873 0.28399 0.0
C212 C 0.00304 0.78029 0.1589 0.0
C213 C 0.96543 0.7803 0.14392 0.0
C214 C 0.98147 0.78897 0.23662 0.0
C215 C 0.93654 0.7828 0.17663 0.0
C216 C 0.96246 0.7937 0.31922 0.0
C217 C 0.02643 0.82775 0.33433 0.0
N218 N 0.94515 0.78721 0.22156 0.0
N219 N 0.02004 0.8154 0.29264 0.0
H220 H 0.0583 0.82153 0.64617 0.0
H221 H 0.96135 0.746 0.86441 0.0
H222 H 0.94028 0.79754 0.65387 0.0
H223 H 0.0712 0.78741 0.86812 0.0
H224 H 0.95986 0.75263 0.78106 0.0
H225 H 0.06844 0.79901 0.72161 0.0
C226 C 0.03446 0.81147 0.66365 0.0
C227 C -0.00181 0.81178 0.64389 0.0
C228 C 0.98463 0.75975 0.79994 0.0
C229 C 0.00991 0.78564 0.73014 0.0
C230 C 0.98567 0.75576 0.84746 0.0
C231 C 0.01614 0.76674 0.8732 0.0
C232 C 0.01419 0.77497 0.77809 0.0
C233 C 0.04706 0.77884 0.84955 0.0
C234 C 0.0404 0.7985 0.70666 0.0
C235 C 0.96857 0.79815 0.66804 0.0
N236 N 0.04496 0.78321 0.80325 0.0
N237 N 0.97506 0.78575 0.71005 0.0
H238 H 0.93449 0.20095 0.82758 0.0
H239 H 0.07236 0.21202 0.61346 0.0
H240 H 0.05208 0.17591 0.83323 0.0
H241 H 0.96104 0.25057 0.61604 0.0
H242 H 0.06913 0.20519 0.69703 0.0
H243 H 0.94572 0.22374 0.75221 0.0
C244 C 0.96262 0.20024 0.813 0.0
C245 C -0.00778 0.18617 0.83647 0.0
C246 C 0.04576 0.21578 0.67944 0.0
C247 C 0.00543 0.21236 0.75053 0.0
C248 C 0.04782 0.21998 0.63179 0.0
C249 C 0.0166 0.23127 0.60783 0.0
C250 C 0.01217 0.22276 0.7028 0.0
C251 C 0.98544 0.24118 0.63323 0.0
C252 C 0.96914 0.21347 0.77016 0.0
C253 C 0.02828 0.18627 0.8162 0.0
N254 N 0.98365 0.23611 0.67922 0.0
N255 N 0.03377 0.19889 0.77425 0.0
H256 H 0.46799 0.70685 0.09846 0.0
H257 H 0.53396 0.72156 0.36046 0.0
H258 H 0.56868 0.66611 0.15352 0.0
H259 H 0.41764 0.72322 0.31627 0.0
H260 H 0.55357 0.71779 0.27946 0.0
H261 H 0.45609 0.72881 0.17389 0.0
C262 C 0.48776 0.70279 0.12628 0.0
C263 C 0.51893 0.68422 0.12018 0.0
C264 C 0.52383 0.7197 0.28762 0.0
C265 C 0.5059 0.70956 0.20573 0.0
C266 C 0.51272 0.72206 0.33357 0.0
C267 C 0.47423 0.72232 0.34456 0.0
C268 C 0.49614 0.71812 0.25301 0.0
C269 C 0.44761 0.72269 0.30886 0.0
C270 C 0.48102 0.71536 0.16913 0.0
C271 C 0.54391 0.67986 0.15715 0.0
N272 N 0.45905 0.72034 0.26456 0.0
N273 N 0.53672 0.69232 0.19856 0.0
H274 H 0.56722 0.33526 0.34616 0.0
H275 H 0.40762 0.27851 0.18506 0.0
H276 H 0.46601 0.29516 0.40121 0.0
H277 H 0.52401 0.27848 0.14144 0.0
H278 H 0.42838 0.28297 0.26494 0.0
H279 H 0.55254 0.31421 0.27095 0.0
C280 C 0.542 0.3219 0.34241 0.0
C281 C 0.51745 0.31725 0.37964 0.0
C282 C 0.44944 0.28133 0.23806 0.0
C283 C 0.50057 0.29322 0.294 0.0
C284 C 0.43762 0.27883 0.19258 0.0
C285 C 0.46424 0.27837 0.15698 0.0
C286 C 0.48809 0.28428 0.24769 0.0
C287 C 0.50272 0.27876 0.16818 0.0
C288 C 0.53386 0.30967 0.29966 0.0
C289 C 0.48547 0.29945 0.3732 0.0
N290 N 0.51358 0.2824 0.21269 0.0
N291 N 0.47758 0.28845 0.3309 0.0
H292 H 0.55814 0.28414 0.87715 0.0
H293 H 0.43075 0.30456 0.65256 0.0
H294 H 0.43846 0.26572 0.87253 0.0
H295 H 0.55137 0.31919 0.65597 0.0
H296 H 0.43415 0.28467 0.731 0.0
H297 H 0.55796 0.28989 0.79335 0.0
C298 C 0.53204 0.28063 0.85845 0.0
C299 C 0.49815 0.27504 0.88188 0.0
C300 C 0.4599 0.29205 0.7144 0.0
C301 C 0.49752 0.28214 0.78637 0.0
C302 C 0.45791 0.30356 0.66973 0.0
C303 C 0.4907 0.31392 0.64788 0.0
C304 C 0.4949 0.29103 0.73735 0.0
C305 C 0.52523 0.31178 0.6716 0.0
C306 C 0.53185 0.28413 0.81064 0.0
C307 C 0.46513 0.27062 0.8559 0.0
N308 N 0.52637 0.30079 0.71511 0.0
N309 N 0.46552 0.27473 0.80962 0.0
H310 H 0.55019 0.68559 0.85198 0.0
H311 H 0.43754 0.73568 0.62774 0.0
H312 H 0.42867 0.69358 0.84611 0.0
H313 H 0.55743 0.71839 0.63076 0.0
H314 H 0.43559 0.73037 0.71124 0.0
H315 H 0.55441 0.70622 0.77479 0.0
C316 C 0.52428 0.69167 0.83446 0.0
C317 C 0.48888 0.68737 0.85533 0.0
C318 C 0.46242 0.72818 0.69375 0.0
C319 C 0.49374 0.71126 0.76663 0.0
C320 C 0.46365 0.73132 0.64607 0.0
C321 C 0.49762 0.72683 0.62218 0.0
C322 C 0.49536 0.72039 0.71769 0.0
C323 C 0.53059 0.72172 0.64773 0.0
C324 C 0.52681 0.70363 0.79037 0.0
C325 C 0.45647 0.69618 0.83113 0.0
N326 N 0.52852 0.71814 0.69414 0.0
N327 N 0.45966 0.7075 0.78779 0.0
H328 H 0.34636 0.20923 -0.01001 0.0
H329 H 0.12305 0.22645 0.96319 0.0
H330 H 0.28837 0.29296 -0.00802 0.0
H331 H 0.17755 0.14259 -0.01231 0.0
H332 H 0.18436 0.25072 0.96539 0.0
H333 H 0.28569 0.18417 0.98098 0.0
C334 C 0.32086 0.22237 -0.01171 0.0
C335 C 0.32234 0.25324 -0.0081 0.0
C336 C 0.18299 0.22701 0.97022 0.0
C337 C 0.25295 0.22467 0.98161 0.0
C338 C 0.14798 0.21308 0.96889 0.0
C339 C 0.14521 0.18243 0.97549 0.0
C340 C 0.2156 0.21021 0.97807 0.0
C341 C 0.17846 0.16628 0.9826 0.0
C342 C 0.28626 0.20802 -0.01673 0.0
C343 C 0.28848 0.26913 -0.01052 0.0
N344 N 0.21238 0.1804 -0.01621 0.0
N345 N 0.25513 0.25464 -0.01547 0.0
H346 H 0.6385 0.7159 0.92819 0.0
H347 H 0.85916 0.7012 0.97981 0.0
H348 H 0.68852 0.6379 -0.01116 0.0
H349 H 0.80244 0.78392 0.95358 0.0
H350 H 0.79919 0.67524 0.96915 0.0
H351 H 0.70094 0.7382 0.92248 0.0
C352 C 0.6627 0.70332 0.93994 0.0
C353 C 0.6583 0.67515 0.95965 0.0
C354 C 0.79998 0.69904 0.96543 0.0
C355 C 0.72986 0.70069 0.95332 0.0
C356 C 0.83415 0.71388 0.97141 0.0
C357 C 0.83563 0.7448 0.968 0.0
C358 C 0.76719 0.71523 0.95564 0.0
C359 C 0.80246 0.7601 0.95692 0.0
C360 C 0.69833 0.71613 0.93674 0.0
C361 C 0.69068 0.65977 0.97377 0.0
N362 N 0.76953 0.74515 0.9513 0.0
N363 N 0.72519 0.67288 0.97071 0.0
H364 H 0.18204 0.85754 0.49455 0.0
H365 H 0.29384 0.70419 0.49547 0.0
H366 H 0.12875 0.77228 0.51131 0.0
H367 H 0.34928 0.78912 0.50033 0.0
H368 H 0.23278 0.72905 0.49919 0.0
H369 H 0.2438 0.83315 0.49432 0.0
C370 C 0.18335 0.83375 0.49824 0.0
C371 C 0.15029 0.81691 0.5029 0.0
C372 C 0.25832 0.74225 0.49964 0.0
C373 C 0.22047 0.78895 0.50255 0.0
C374 C 0.29315 0.72805 0.4975 0.0
C375 C 0.32661 0.74462 0.49756 0.0
C376 C 0.25699 0.77322 0.50155 0.0
C377 C 0.32412 0.77549 0.50023 0.0
C378 C 0.21853 0.81985 0.49819 0.0
C379 C 0.15352 0.78615 0.50762 0.0
N380 N 0.28987 0.78883 0.50193 0.0
N381 N 0.18796 0.77318 0.50718 0.0
H382 H 0.69068 0.36075 0.50973 0.0
H383 H 0.80407 0.20939 0.52745 0.0
H384 H 0.64165 0.27868 0.55736 0.0
H385 H 0.8584 0.29368 0.5048 0.0
H386 H 0.74449 0.23493 0.54097 0.0
H387 H 0.75303 0.33739 0.51069 0.0
C388 C 0.69309 0.33796 0.52088 0.0
C389 C 0.66095 0.32153 0.53299 0.0
C390 C 0.76951 0.24787 0.5334 0.0
C391 C 0.73181 0.29467 0.53377 0.0
C392 C 0.80348 0.23328 0.52556 0.0
C393 C 0.83609 0.24944 0.51465 0.0
C394 C 0.7681 0.27882 0.52983 0.0
C395 C 0.83383 0.28037 0.51292 0.0
C396 C 0.72863 0.32463 0.52139 0.0
C397 C 0.66564 0.2921 0.5473 0.0
N398 N 0.8003 0.29406 0.52001 0.0
N399 N 0.70033 0.27955 0.54685 0.0
loop_
_geom_bond_atom_site_label_1
_geom_bond_atom_site_label_2
_geom_bond_distance
_geom_bond_site_symmetry_2
_ccdc_geom_bond_type
C0 O1 1.306 1_455 S
C0 O3 1.160 . S
O1 C0 1.306 1_655 S
O1 Cd2 2.228 1_556 S
Cd2 O1 2.228 1_554 S
Cd2 O6 2.273 1_655 S
Cd2 O10 2.277 1_655 S
O3 C0 1.160 . S
O3 Cd4 2.203 1_556 S
Cd4 O3 2.203 1_554 S
Cd4 O6 2.411 . S
Cd4 O7 2.333 . S
Cd4 O8 2.352 . S
Cd4 O12 2.277 . S
Cd4 O13 2.356 . S
C5 O10 1.209 . S
C5 O12 1.226 . S
O6 Cd2 2.273 1_455 S
O6 Cd4 2.411 . S
O6 C9 1.320 . S
O7 Cd4 2.333 . S
O7 C9 1.214 . S
O8 Cd4 2.352 . S
O8 C11 1.258 . S
C9 O6 1.320 . S
C9 O7 1.214 . S
O10 Cd2 2.277 1_455 S
O10 C5 1.209 . S
C11 O8 1.258 . S
C11 O13 1.282 . S
O12 Cd4 2.277 . S
O12 C5 1.226 . S
O13 Cd4 2.356 . S
O13 C11 1.282 . S
C14 O15 1.306 1_655 S
C14 O17 1.160 . S
O15 C14 1.306 1_455 S
O15 Cd16 2.228 1_556 S
Cd16 O15 2.228 1_554 S
Cd16 O20 2.273 1_455 S
Cd16 O24 2.277 1_455 S
O17 C14 1.160 . S
O17 Cd18 2.203 1_556 S
Cd18 O17 2.203 1_554 S
Cd18 O20 2.411 . S
Cd18 O21 2.333 . S
Cd18 O22 2.352 . S
Cd18 O26 2.277 . S
Cd18 O27 2.356 . S
C19 O24 1.209 . S
C19 O26 1.226 . S
O20 Cd16 2.273 1_655 S
O20 Cd18 2.411 . S
O20 C23 1.320 . S
O21 Cd18 2.333 . S
O21 C23 1.214 . S
O22 Cd18 2.352 . S
O22 C25 1.258 . S
C23 O20 1.320 . S
C23 O21 1.214 . S
O24 Cd16 2.277 1_655 S
O24 C19 1.209 . S
C25 O22 1.258 . S
C25 O27 1.282 . S
O26 Cd18 2.277 . S
O26 C19 1.226 . S
O27 Cd18 2.356 . S
O27 C25 1.282 . S
C28 O29 1.306 1_455 S
C28 O31 1.160 . S
O29 C28 1.306 1_655 S
O29 Cd30 2.228 . S
Cd30 O29 2.228 . S
Cd30 O34 2.273 1_655 S
Cd30 O38 2.277 1_655 S
O31 C28 1.160 . S
O31 Cd32 2.203 . S
Cd32 O31 2.203 . S
Cd32 O34 2.411 . S
Cd32 O35 2.333 . S
Cd32 O36 2.352 . S
Cd32 O40 2.277 . S
Cd32 O41 2.356 . S
C33 O38 1.209 . S
C33 O40 1.226 . S
O34 Cd30 2.273 1_455 S
O34 Cd32 2.411 . S
O34 C37 1.320 . S
O35 Cd32 2.333 . S
O35 C37 1.214 . S
O36 Cd32 2.352 . S
O36 C39 1.258 . S
C37 O34 1.320 . S
C37 O35 1.214 . S
O38 Cd30 2.277 1_455 S
O38 C33 1.209 . S
C39 O36 1.258 . S
C39 O41 1.282 . S
O40 Cd32 2.277 . S
O40 C33 1.226 . S
O41 Cd32 2.356 . S
O41 C39 1.282 . S
C42 O43 1.306 1_655 S
C42 O45 1.160 . S
O43 C42 1.306 1_455 S
O43 Cd44 2.228 . S
Cd44 O43 2.228 . S
Cd44 O48 2.273 1_455 S
Cd44 O52 2.277 1_455 S
O45 C42 1.160 . S
O45 Cd46 2.203 . S
Cd46 O45 2.203 . S
Cd46 O48 2.411 . S
Cd46 O49 2.333 . S
Cd46 O50 2.352 . S
Cd46 O54 2.277 . S
Cd46 O55 2.356 . S
C47 O52 1.209 . S
C47 O54 1.226 . S
O48 Cd44 2.273 1_655 S
O48 Cd46 2.411 . S
O48 C51 1.320 . S
O49 Cd46 2.333 . S
O49 C51 1.214 . S
O50 Cd46 2.352 . S
O50 C53 1.258 . S
C51 O48 1.320 . S
C51 O49 1.214 . S
O52 Cd44 2.277 1_655 S
O52 C47 1.209 . S
C53 O50 1.258 . S
C53 O55 1.282 . S
O54 Cd46 2.277 . S
O54 C47 1.226 . S
O55 Cd46 2.356 . S
O55 C53 1.282 . S
C56 O57 1.306 . S
C56 O59 1.160 . S
O57 C56 1.306 . S
O57 Cd58 2.228 1_556 S
Cd58 O57 2.228 1_554 S
Cd58 O62 2.273 . S
Cd58 O66 2.277 . S
O59 C56 1.160 . S
O59 Cd60 2.203 1_556 S
Cd60 O59 2.203 1_554 S
Cd60 O62 2.411 . S
Cd60 O63 2.333 . S
Cd60 O64 2.352 . S
Cd60 O68 2.277 . S
Cd60 O69 2.356 . S
C61 O66 1.209 . S
C61 O68 1.226 . S
O62 Cd58 2.273 . S
O62 Cd60 2.411 . S
O62 C65 1.320 . S
O63 Cd60 2.333 . S
O63 C65 1.214 . S
O64 Cd60 2.352 . S
O64 C67 1.258 . S
C65 O62 1.320 . S
C65 O63 1.214 . S
O66 Cd58 2.277 . S
O66 C61 1.209 . S
C67 O64 1.258 . S
C67 O69 1.282 . S
O68 Cd60 2.277 . S
O68 C61 1.226 . S
O69 Cd60 2.356 . S
O69 C67 1.282 . S
C70 O71 1.306 . S
C70 O73 1.160 . S
O71 C70 1.306 . S
O71 Cd72 2.228 1_556 S
Cd72 O71 2.228 1_554 S
Cd72 O76 2.273 . S
Cd72 O80 2.277 . S
O73 C70 1.160 . S
O73 Cd74 2.203 1_556 S
Cd74 O73 2.203 1_554 S
Cd74 O76 2.411 . S
Cd74 O77 2.333 . S
Cd74 O78 2.352 . S
Cd74 O82 2.277 . S
Cd74 O83 2.356 . S
C75 O80 1.209 . S
C75 O82 1.226 . S
O76 Cd72 2.273 . S
O76 Cd74 2.411 . S
O76 C79 1.320 . S
O77 Cd74 2.333 . S
O77 C79 1.214 . S
O78 Cd74 2.352 . S
O78 C81 1.258 . S
C79 O76 1.320 . S
C79 O77 1.214 . S
O80 Cd72 2.277 . S
O80 C75 1.209 . S
C81 O78 1.258 . S
C81 O83 1.282 . S
O82 Cd74 2.277 . S
O82 C75 1.226 . S
O83 Cd74 2.356 . S
O83 C81 1.282 . S
C84 O85 1.306 . S
C84 O87 1.160 . S
O85 C84 1.306 . S
O85 Cd86 2.228 . S
Cd86 O85 2.228 . S
Cd86 O90 2.273 . S
Cd86 O94 2.277 . S
O87 C84 1.160 . S
O87 Cd88 2.203 . S
Cd88 O87 2.203 . S
Cd88 O90 2.411 . S
Cd88 O91 2.333 . S
Cd88 O92 2.352 . S
Cd88 O96 2.277 . S
Cd88 O97 2.356 . S
C89 O94 1.209 . S
C89 O96 1.226 . S
O90 Cd86 2.273 . S
O90 Cd88 2.411 . S
O90 C93 1.320 . S
O91 Cd88 2.333 . S
O91 C93 1.214 . S
O92 Cd88 2.352 . S
O92 C95 1.258 . S
C93 O90 1.320 . S
C93 O91 1.214 . S
O94 Cd86 2.277 . S
O94 C89 1.209 . S
C95 O92 1.258 . S
C95 O97 1.282 . S
O96 Cd88 2.277 . S
O96 C89 1.226 . S
O97 Cd88 2.356 . S
O97 C95 1.282 . S
C98 O99 1.306 . S
C98 O101 1.160 . S
O99 C98 1.306 . S
O99 Cd100 2.228 . S
Cd100 O99 2.228 . S
Cd100 O104 2.273 . S
Cd100 O108 2.277 . S
O101 C98 1.160 . S
O101 Cd102 2.203 . S
Cd102 O101 2.203 . S
Cd102 O104 2.411 . S
Cd102 O105 2.333 . S
Cd102 O106 2.352 . S
Cd102 O110 2.277 . S
Cd102 O111 2.356 . S
C103 O108 1.209 . S
C103 O110 1.226 . S
O104 Cd100 2.273 . S
O104 Cd102 2.411 . S
O104 C107 1.320 . S
O105 Cd102 2.333 . S
O105 C107 1.214 . S
O106 Cd102 2.352 . S
O106 C109 1.258 . S
C107 O104 1.320 . S
C107 O105 1.214 . S
O108 Cd100 2.277 . S
O108 C103 1.209 . S
C109 O106 1.258 . S
C109 O111 1.282 . S
O110 Cd102 2.277 . S
O110 C103 1.226 . S
O111 Cd102 2.356 . S
O111 C109 1.282 . S
H112 C118 0.930 . S
H113 C122 0.930 . S
H114 C127 0.929 1_455 S
H115 C125 0.929 1_655 S
H116 C120 0.929 . S
H117 C126 0.929 . S
C118 H112 0.930 . S
C118 C119 1.367 1_556 S
C118 C126 1.378 . S
C119 C118 1.367 1_554 S
C119 C127 1.433 . S
C120 H116 0.929 . S
C120 C122 1.378 . S
C120 C124 1.350 . S
C121 C124 1.463 1_665 S
C121 C126 1.350 1_554 S
C121 N129 1.427 1_655 S
C122 H113 0.930 . S
C122 C120 1.378 . S
C122 C123 1.367 . S
C123 C122 1.367 . S
C123 C125 1.433 1_554 S
C124 C120 1.350 . S
C124 C121 1.463 1_445 S
C124 N128 1.427 1_454 S
C125 H115 0.929 1_455 S
C125 C123 1.433 1_556 S
C125 N128 1.384 1_455 S
C126 H117 0.929 . S
C126 C118 1.378 . S
C126 C121 1.350 1_556 S
C127 H114 0.929 1_655 S
C127 C119 1.433 . S
C127 N129 1.384 1_655 S
N128 C124 1.427 1_656 S
N128 C125 1.384 1_655 S
N129 C121 1.427 1_455 S
N129 C127 1.384 1_455 S
H130 C136 0.930 . S
H131 C140 0.930 . S
H132 C145 0.929 . S
H133 C143 0.929 . S
H134 C138 0.929 . S
H135 C144 0.929 . S
C136 H130 0.930 . S
C136 C137 1.367 . S
C136 C144 1.378 . S
C137 C136 1.367 . S
C137 C145 1.433 . S
C138 H134 0.929 . S
C138 C140 1.378 . S
C138 C142 1.350 . S
C139 C142 1.463 1_465 S
C139 C144 1.350 . S
C139 N147 1.427 . S
C140 H131 0.930 . S
C140 C138 1.378 . S
C140 C141 1.367 . S
C141 C140 1.367 . S
C141 C143 1.433 . S
C142 C138 1.350 . S
C142 C139 1.463 1_645 S
C142 N146 1.427 . S
C143 H133 0.929 . S
C143 C141 1.433 . S
C143 N146 1.384 . S
C144 H135 0.929 . S
C144 C136 1.378 . S
C144 C139 1.350 . S
C145 H132 0.929 . S
C145 C137 1.433 . S
C145 N147 1.384 . S
N146 C142 1.427 . S
N146 C143 1.384 . S
N147 C139 1.427 . S
N147 C145 1.384 . S
H148 C154 0.930 . S
H149 C158 0.930 . S
H150 C163 0.929 . S
H151 C161 0.929 . S
H152 C156 0.929 . S
H153 C162 0.929 . S
C154 H148 0.930 . S
C154 C155 1.367 . S
C154 C162 1.378 . S
C155 C154 1.367 . S
C155 C163 1.433 1_554 S
C156 H152 0.929 . S
C156 C158 1.378 . S
C156 C160 1.350 1_556 S
C157 C160 1.463 . S
C157 C162 1.350 . S
C157 N165 1.427 1_554 S
C158 H149 0.930 . S
C158 C156 1.378 . S
C158 C159 1.367 1_556 S
C159 C158 1.367 1_554 S
C159 C161 1.433 . S
C160 C156 1.350 1_554 S
C160 C157 1.463 . S
C160 N164 1.427 . S
C161 H151 0.929 . S
C161 C159 1.433 . S
C161 N164 1.384 . S
C162 H153 0.929 . S
C162 C154 1.378 . S
C162 C157 1.350 . S
C163 H150 0.929 . S
C163 C155 1.433 1_556 S
C163 N165 1.384 . S
N164 C160 1.427 . S
N164 C161 1.384 . S
N165 C157 1.427 1_556 S
N165 C163 1.384 . S
H166 C172 0.930 . S
H167 C176 0.930 . S
H168 C181 0.929 . S
H169 C179 0.929 . S
H170 C174 0.929 . S
H171 C180 0.929 . S
C172 H166 0.930 . S
C172 C173 1.367 . S
C172 C180 1.378 . S
C173 C172 1.367 . S
C173 C181 1.433 . S
C174 H170 0.929 . S
C174 C176 1.378 . S
C174 C178 1.350 . S
C175 C178 1.463 . S
C175 C180 1.350 . S
C175 N183 1.427 . S
C176 H167 0.930 . S
C176 C174 1.378 . S
C176 C177 1.367 . S
C177 C176 1.367 . S
C177 C179 1.433 . S
C178 C174 1.350 . S
C178 C175 1.463 . S
C178 N182 1.427 . S
C179 H169 0.929 . S
C179 C177 1.433 . S
C179 N182 1.384 . S
C180 H171 0.929 . S
C180 C172 1.378 . S
C180 C175 1.350 . S
C181 H168 0.929 . S
C181 C173 1.433 . S
C181 N183 1.384 . S
N182 C178 1.427 . S
N182 C179 1.384 . S
N183 C175 1.427 . S
N183 C181 1.384 . S
H184 C190 0.930 . S
H185 C194 0.930 . S
H186 C199 0.929 . S
H187 C197 0.929 . S
H188 C192 0.929 . S
H189 C198 0.929 . S
C190 H184 0.930 . S
C190 C191 1.367 1_655 S
C190 C198 1.378 . S
C191 C190 1.367 1_455 S
C191 C199 1.433 . S
C192 H188 0.929 . S
C192 C194 1.378 . S
C192 C196 1.350 1_455 S
C193 C196 1.463 1_455 S
C193 C198 1.350 1_455 S
C193 N201 1.427 . S
C194 H185 0.930 . S
C194 C192 1.378 . S
C194 C195 1.367 1_455 S
C195 C194 1.367 1_655 S
C195 C197 1.433 . S
C196 C192 1.350 1_655 S
C196 C193 1.463 1_655 S
C196 N200 1.427 . S
C197 H187 0.929 . S
C197 C195 1.433 . S
C197 N200 1.384 . S
C198 H189 0.929 . S
C198 C190 1.378 . S
C198 C193 1.350 1_655 S
C199 H186 0.929 . S
C199 C191 1.433 . S
C199 N201 1.384 . S
N200 C196 1.427 . S
N200 C197 1.384 . S
N201 C193 1.427 . S
N201 C199 1.384 . S
H202 C208 0.930 . S
H203 C212 0.930 . S
H204 C217 0.929 . S
H205 C215 0.929 . S
H206 C210 0.929 . S
H207 C216 0.929 . S
C208 H202 0.930 . S
C208 C209 1.367 1_655 S
C208 C216 1.378 . S
C209 C208 1.367 1_455 S
C209 C217 1.433 . S
C210 H206 0.929 . S
C210 C212 1.378 . S
C210 C214 1.350 1_455 S
C211 C214 1.463 1_455 S
C211 C216 1.350 1_455 S
C211 N219 1.427 . S
C212 H203 0.930 . S
C212 C210 1.378 . S
C212 C213 1.367 1_455 S
C213 C212 1.367 1_655 S
C213 C215 1.433 . S
C214 C210 1.350 1_655 S
C214 C211 1.463 1_655 S
C214 N218 1.427 . S
C215 H205 0.929 . S
C215 C213 1.433 . S
C215 N218 1.384 . S
C216 H207 0.929 . S
C216 C208 1.378 . S
C216 C211 1.350 1_655 S
C217 H204 0.929 . S
C217 C209 1.433 . S
C217 N219 1.384 . S
N218 C214 1.427 . S
N218 C215 1.384 . S
N219 C211 1.427 . S
N219 C217 1.384 . S
H220 C226 0.930 . S
H221 C230 0.930 . S
H222 C235 0.929 . S
H223 C233 0.929 . S
H224 C228 0.929 . S
H225 C234 0.929 . S
C226 H220 0.930 . S
C226 C227 1.367 . S
C226 C234 1.378 . S
C227 C226 1.367 . S
C227 C235 1.433 1_455 S
C228 H224 0.929 . S
C228 C230 1.378 . S
C228 C232 1.350 . S
C229 C232 1.463 1_455 S
C229 C234 1.350 . S
C229 N237 1.427 1_455 S
C230 H221 0.930 . S
C230 C228 1.378 . S
C230 C231 1.367 . S
C231 C230 1.367 . S
C231 C233 1.433 1_655 S
C232 C228 1.350 . S
C232 C229 1.463 1_655 S
C232 N236 1.427 1_655 S
C233 H223 0.929 . S
C233 C231 1.433 1_455 S
C233 N236 1.384 . S
C234 H225 0.929 . S
C234 C226 1.378 . S
C234 C229 1.350 . S
C235 H222 0.929 . S
C235 C227 1.433 1_655 S
C235 N237 1.384 . S
N236 C232 1.427 1_455 S
N236 C233 1.384 . S
N237 C229 1.427 1_655 S
N237 C235 1.384 . S
H238 C244 0.930 . S
H239 C248 0.930 . S
H240 C253 0.929 . S
H241 C251 0.929 . S
H242 C246 0.929 1_455 S
H243 C252 0.929 1_655 S
C244 H238 0.930 . S
C244 C245 1.367 . S
C244 C252 1.378 . S
C245 C244 1.367 . S
C245 C253 1.433 . S
C246 H242 0.929 1_655 S
C246 C248 1.378 . S
C246 C250 1.350 . S
C247 C250 1.463 1_455 S
C247 C252 1.350 . S
C247 N255 1.427 . S
C248 H239 0.930 . S
C248 C246 1.378 . S
C248 C249 1.367 . S
C249 C248 1.367 . S
C249 C251 1.433 . S
C250 C246 1.350 . S
C250 C247 1.463 1_655 S
C250 N254 1.427 . S
C251 H241 0.929 . S
C251 C249 1.433 . S
C251 N254 1.384 . S
C252 H243 0.929 1_455 S
C252 C244 1.378 . S
C252 C247 1.350 . S
C253 H240 0.929 . S
C253 C245 1.433 . S
C253 N255 1.384 . S
N254 C250 1.427 . S
N254 C251 1.384 . S
N255 C247 1.427 . S
N255 C253 1.384 . S
H256 C262 0.930 . S
H257 C266 0.930 . S
H258 C271 0.929 . S
H259 C269 0.929 . S
H260 C264 0.929 . S
H261 C270 0.929 . S
C262 H256 0.930 . S
C262 C263 1.367 . S
C262 C270 1.378 . S
C263 C262 1.367 . S
C263 C271 1.433 . S
C264 H260 0.929 . S
C264 C266 1.378 . S
C264 C268 1.350 . S
C265 C268 1.463 . S
C265 C270 1.350 . S
C265 N273 1.427 . S
C266 H257 0.930 . S
C266 C264 1.378 . S
C266 C267 1.367 . S
C267 C266 1.367 . S
C267 C269 1.433 . S
C268 C264 1.350 . S
C268 C265 1.463 . S
C268 N272 1.427 . S
C269 H259 0.929 . S
C269 C267 1.433 . S
C269 N272 1.384 . S
C270 H261 0.929 . S
C270 C262 1.378 . S
C270 C265 1.350 . S
C271 H258 0.929 . S
C271 C263 1.433 . S
C271 N273 1.384 . S
N272 C268 1.427 . S
N272 C269 1.384 . S
N273 C265 1.427 . S
N273 C271 1.384 . S
H274 C280 0.930 . S
H275 C284 0.930 . S
H276 C289 0.929 . S
H277 C287 0.929 . S
H278 C282 0.929 . S
H279 C288 0.929 . S
C280 H274 0.930 . S
C280 C281 1.367 . S
C280 C288 1.378 . S
C281 C280 1.367 . S
C281 C289 1.433 . S
C282 H278 0.929 . S
C282 C284 1.378 . S
C282 C286 1.350 . S
C283 C286 1.463 . S
C283 C288 1.350 . S
C283 N291 1.427 . S
C284 H275 0.930 . S
C284 C282 1.378 . S
C284 C285 1.367 . S
C285 C284 1.367 . S
C285 C287 1.433 . S
C286 C282 1.350 . S
C286 C283 1.463 . S
C286 N290 1.427 . S
C287 H277 0.929 . S
C287 C285 1.433 . S
C287 N290 1.384 . S
C288 H279 0.929 . S
C288 C280 1.378 . S
C288 C283 1.350 . S
C289 H276 0.929 . S
C289 C281 1.433 . S
C289 N291 1.384 . S
N290 C286 1.427 . S
N290 C287 1.384 . S
N291 C283 1.427 . S
N291 C289 1.384 . S
H292 C298 0.930 . S
H293 C302 0.930 . S
H294 C307 0.929 . S
H295 C305 0.929 . S
H296 C300 0.929 . S
H297 C306 0.929 . S
C298 H292 0.930 . S
C298 C299 1.367 . S
C298 C306 1.378 . S
C299 C298 1.367 . S
C299 C307 1.433 . S
C300 H296 0.929 . S
C300 C302 1.378 . S
C300 C304 1.350 . S
C301 C304 1.463 . S
C301 C306 1.350 . S
C301 N309 1.427 . S
C302 H293 0.930 . S
C302 C300 1.378 . S
C302 C303 1.367 . S
C303 C302 1.367 . S
C303 C305 1.433 . S
C304 C300 1.350 . S
C304 C301 1.463 . S
C304 N308 1.427 . S
C305 H295 0.929 . S
C305 C303 1.433 . S
C305 N308 1.384 . S
C306 H297 0.929 . S
C306 C298 1.378 . S
C306 C301 1.350 . S
C307 H294 0.929 . S
C307 C299 1.433 . S
C307 N309 1.384 . S
N308 C304 1.427 . S
N308 C305 1.384 . S
N309 C301 1.427 . S
N309 C307 1.384 . S
H310 C316 0.930 . S
H311 C320 0.930 . S
H312 C325 0.929 . S
H313 C323 0.929 . S
H314 C318 0.929 . S
H315 C324 0.929 . S
C316 H310 0.930 . S
C316 C317 1.367 . S
C316 C324 1.378 . S
C317 C316 1.367 . S
C317 C325 1.433 . S
C318 H314 0.929 . S
C318 C320 1.378 . S
C318 C322 1.350 . S
C319 C322 1.463 . S
C319 C324 1.350 . S
C319 N327 1.427 . S
C320 H311 0.930 . S
C320 C318 1.378 . S
C320 C321 1.367 . S
C321 C320 1.367 . S
C321 C323 1.433 . S
C322 C318 1.350 . S
C322 C319 1.463 . S
C322 N326 1.427 . S
C323 H313 0.929 . S
C323 C321 1.433 . S
C323 N326 1.384 . S
C324 H315 0.929 . S
C324 C316 1.378 . S
C324 C319 1.350 . S
C325 H312 0.929 . S
C325 C317 1.433 . S
C325 N327 1.384 . S
N326 C322 1.427 . S
N326 C323 1.384 . S
N327 C319 1.427 . S
N327 C325 1.384 . S
H328 C334 0.930 . S
H329 C338 0.930 . S
H330 C343 0.929 . S
H331 C341 0.929 . S
H332 C336 0.929 . S
H333 C342 0.929 . S
C334 H328 0.930 . S
C334 C335 1.367 1_556 S
C334 C342 1.378 . S
C335 C334 1.367 1_554 S
C335 C343 1.433 . S
C336 H332 0.929 . S
C336 C338 1.378 . S
C336 C340 1.350 . S
C337 C340 1.463 . S
C337 C342 1.350 1_554 S
C337 N345 1.427 . S
C338 H329 0.930 . S
C338 C336 1.378 . S
C338 C339 1.367 . S
C339 C338 1.367 . S
C339 C341 1.433 1_554 S
C340 C336 1.350 . S
C340 C337 1.463 . S
C340 N344 1.427 1_554 S
C341 H331 0.929 . S
C341 C339 1.433 1_556 S
C341 N344 1.384 . S
C342 H333 0.929 . S
C342 C334 1.378 . S
C342 C337 1.350 1_556 S
C343 H330 0.929 . S
C343 C335 1.433 . S
C343 N345 1.384 . S
N344 C340 1.427 1_556 S
N344 C341 1.384 . S
N345 C337 1.427 . S
N345 C343 1.384 . S
H346 C352 0.930 . S
H347 C356 0.930 . S
H348 C361 0.929 . S
H349 C359 0.929 . S
H350 C354 0.929 . S
H351 C360 0.929 . S
C352 H346 0.930 . S
C352 C353 1.367 1_556 S
C352 C360 1.378 . S
C353 C352 1.367 1_554 S
C353 C361 1.433 . S
C354 H350 0.929 . S
C354 C356 1.378 . S
C354 C358 1.350 . S
C355 C358 1.463 . S
C355 C360 1.350 1_554 S
C355 N363 1.427 . S
C356 H347 0.930 . S
C356 C354 1.378 . S
C356 C357 1.367 . S
C357 C356 1.367 . S
C357 C359 1.433 1_554 S
C358 C354 1.350 . S
C358 C355 1.463 . S
C358 N362 1.427 1_554 S
C359 H349 0.929 . S
C359 C357 1.433 1_556 S
C359 N362 1.384 . S
C360 H351 0.929 . S
C360 C352 1.378 . S
C360 C355 1.350 1_556 S
C361 H348 0.929 . S
C361 C353 1.433 . S
C361 N363 1.384 . S
N362 C358 1.427 1_556 S
N362 C359 1.384 . S
N363 C355 1.427 . S
N363 C361 1.384 . S
H364 C370 0.930 . S
H365 C374 0.930 . S
H366 C379 0.929 . S
H367 C377 0.929 . S
H368 C372 0.929 . S
H369 C378 0.929 . S
C370 H364 0.930 . S
C370 C371 1.367 . S
C370 C378 1.378 . S
C371 C370 1.367 . S
C371 C379 1.433 . S
C372 H368 0.929 . S
C372 C374 1.378 . S
C372 C376 1.350 . S
C373 C376 1.463 . S
C373 C378 1.350 . S
C373 N381 1.427 . S
C374 H365 0.930 . S
C374 C372 1.378 . S
C374 C375 1.367 . S
C375 C374 1.367 . S
C375 C377 1.433 . S
C376 C372 1.350 . S
C376 C373 1.463 . S
C376 N380 1.427 . S
C377 H367 0.929 . S
C377 C375 1.433 . S
C377 N380 1.384 . S
C378 H369 0.929 . S
C378 C370 1.378 . S
C378 C373 1.350 . S
C379 H366 0.929 . S
C379 C371 1.433 . S
C379 N381 1.384 . S
N380 C376 1.427 . S
N380 C377 1.384 . S
N381 C373 1.427 . S
N381 C379 1.384 . S
H382 C388 0.930 . S
H383 C392 0.930 . S
H384 C397 0.929 . S
H385 C395 0.929 . S
H386 C390 0.929 . S
H387 C396 0.929 . S
C388 H382 0.930 . S
C388 C389 1.367 . S
C388 C396 1.378 . S
C389 C388 1.367 . S
C389 C397 1.433 . S
C390 H386 0.929 . S
C390 C392 1.378 . S
C390 C394 1.350 . S
C391 C394 1.463 . S
C391 C396 1.350 . S
C391 N399 1.427 . S
C392 H383 0.930 . S
C392 C390 1.378 . S
C392 C393 1.367 . S
C393 C392 1.367 . S
C393 C395 1.433 . S
C394 C390 1.350 . S
C394 C391 1.463 . S
C394 N398 1.427 . S
C395 H385 0.929 . S
C395 C393 1.433 . S
C395 N398 1.384 . S
C396 H387 0.929 . S
C396 C388 1.378 . S
C396 C391 1.350 . S
C397 H384 0.929 . S
C397 C389 1.433 . S
C397 N399 1.384 . S
N398 C394 1.427 . S
N398 C395 1.384 . S
N399 C391 1.427 . S
N399 C397 1.384 . S
C119 C19 1.504 . S
C123 C5 1.504 . S
C137 C33 1.504 . S
C141 C47 1.504 . S
C155 C61 1.502 . S
C159 C75 1.502 . S
C173 C89 1.504 . S
C177 C103 1.504 . S
C191 C9 1.261 . S
C195 C51 1.258 . S
C209 C37 1.260 . S
C213 C23 1.255 . S
C227 C28 1.287 . S
C231 C14 1.296 . S
C245 C0 1.297 . S
C249 C42 1.287 . S
C263 C65 1.260 . S
C267 C107 1.254 . S
C281 C93 1.246 . S
C285 C79 1.251 . S
C299 C70 1.290 . S
C303 C84 1.297 . S
C317 C56 1.296 . S
C321 C98 1.287 . S
C335 C81 1.509 . S
C339 C11 1.508 . S
C353 C67 1.509 . S
C357 C25 1.508 . S
C371 C39 1.505 . S
C375 C109 1.506 . S
C389 C95 1.505 . S
C393 C53 1.505 . S
