# Generated by pormake.
# Topology why, (6)-cn, num edge types: 1
# Building blocks:
#     Node 0, Type 0, BuildingBlock: MIFKUJ_clean_sbu_0, # of connection points: 6
#     Node 1, Type 0, BuildingBlock: MIFKUJ_clean_sbu_0, # of connection points: 6
#     Node 2, Type 0, BuildingBlock: MIFKUJ_clean_sbu_0, # of connection points: 6
#     Node 3, Type 0, BuildingBlock: MIFKUJ_clean_sbu_0, # of connection points: 6
#     Node 4, Type 0, BuildingBlock: MIFKUJ_clean_sbu_0, # of connection points: 6
#     Node 5, Type 0, BuildingBlock: MIFKUJ_clean_sbu_0, # of connection points: 6
#     Node 6, Type 0, BuildingBlock: MIFKUJ_clean_sbu_0, # of connection points: 6
#     Node 7, Type 0, BuildingBlock: MIFKUJ_clean_sbu_0, # of connection points: 6
#     Node 8, Type 0, BuildingBlock: MIFKUJ_clean_sbu_0, # of connection points: 6
#     Node 9, Type 0, BuildingBlock: MIFKUJ_clean_sbu_0, # of connection points: 6
#     Node 10, Type 0, BuildingBlock: MIFKUJ_clean_sbu_0, # of connection points: 6
#     Node 11, Type 0, BuildingBlock: MIFKUJ_clean_sbu_0, # of connection points: 6
#     Node 12, Type 0, BuildingBlock: MIFKUJ_clean_sbu_0, # of connection points: 6
#     Node 13, Type 0, BuildingBlock: MIFKUJ_clean_sbu_0, # of connection points: 6
#     Node 14, Type 0, BuildingBlock: MIFKUJ_clean_sbu_0, # of connection points: 6
#     Node 15, Type 0, BuildingBlock: MIFKUJ_clean_sbu_0, # of connection points: 6
#     Edge 16, Type (0, 0), None
#     Edge 17, Type (0, 0), None
#     Edge 18, Type (0, 0), None
#     Edge 19, Type (0, 0), None
#     Edge 20, Type (0, 0), None
#     Edge 21, Type (0, 0), None
#     Edge 22, Type (0, 0), None
#     Edge 23, Type (0, 0), None
#     Edge 24, Type (0, 0), None
#     Edge 25, Type (0, 0), None
#     Edge 26, Type (0, 0), None
#     Edge 27, Type (0, 0), None
#     Edge 28, Type (0, 0), None
#     Edge 29, Type (0, 0), None
#     Edge 30, Type (0, 0), None
#     Edge 31, Type (0, 0), None
#     Edge 32, Type (0, 0), None
#     Edge 33, Type (0, 0), None
#     Edge 34, Type (0, 0), None
#     Edge 35, Type (0, 0), None
#     Edge 36, Type (0, 0), None
#     Edge 37, Type (0, 0), None
#     Edge 38, Type (0, 0), None
#     Edge 39, Type (0, 0), None
#     Edge 40, Type (0, 0), None
#     Edge 41, Type (0, 0), None
#     Edge 42, Type (0, 0), None
#     Edge 43, Type (0, 0), None
#     Edge 44, Type (0, 0), None
#     Edge 45, Type (0, 0), None
#     Edge 46, Type (0, 0), None
#     Edge 47, Type (0, 0), None
#     Edge 48, Type (0, 0), None
#     Edge 49, Type (0, 0), None
#     Edge 50, Type (0, 0), None
#     Edge 51, Type (0, 0), None
#     Edge 52, Type (0, 0), None
#     Edge 53, Type (0, 0), None
#     Edge 54, Type (0, 0), None
#     Edge 55, Type (0, 0), None
#     Edge 56, Type (0, 0), None
#     Edge 57, Type (0, 0), None
#     Edge 58, Type (0, 0), None
#     Edge 59, Type (0, 0), None
#     Edge 60, Type (0, 0), None
#     Edge 61, Type (0, 0), None
#     Edge 62, Type (0, 0), None
#     Edge 63, Type (0, 0), None
# Relax obj value: 0.232
# Max RMSD: 0.190
# Mean RMSD: 0.190
data_MOF--net-why--node1-MIFKUJ_clean_sbu_0--edge1-none
_symmetry_space_group_name_H-M    P1
_symmetry_Int_Tables_number       1
_symmetry_cell_setting            triclinic
loop_
_symmetry_equiv_pos_as_xyz
'x, y, z'
_cell_length_a     24.830108
_cell_length_b     24.82959
_cell_length_c     15.211539
_cell_angle_alpha  90.0
_cell_angle_beta   90.0
_cell_angle_gamma 90.000034
loop_
_atom_site_label
_atom_site_type_symbol
_atom_site_fract_x
_atom_site_fract_y
_atom_site_fract_z
_atom_type_partial_charge
Zn0 Zn 0.29571 0.17552 0.09071 0.0
Zn1 Zn 0.43194 0.15859 0.97291 0.0
C2 C 0.21273 0.16801 0.96631 0.0
O3 O 0.21866 0.22025 0.97563 0.0
C4 C 0.49732 0.24295 0.05943 0.0
O5 O 0.48851 0.21601 0.13226 0.0
O6 O 0.25583 0.21322 0.1876 0.0
O7 O 0.34997 0.12371 0.15032 0.0
O8 O 0.43073 0.11701 0.08535 0.0
C9 C 0.27976 0.25112 0.2279 0.0
O10 O 0.32943 0.26366 0.20645 0.0
O11 O 0.24126 0.13645 0.01305 0.0
C12 C 0.52374 0.11815 0.89595 0.0
O13 O 0.54202 0.14006 0.9686 0.0
O14 O 0.47337 0.11751 0.88158 0.0
O15 O 0.35673 0.17057 0.93361 0.0
O16 O 0.32654 0.2353 0.01529 0.0
O17 O 0.47474 0.22824 0.98824 0.0
C18 C 0.39799 0.10516 0.14688 0.0
C19 C 0.34566 0.21983 0.94251 0.0
Zn20 Zn 0.60638 0.54572 0.34072 0.0
Zn21 Zn 0.62331 0.68195 0.22292 0.0
C22 C 0.6139 0.46273 0.21632 0.0
O23 O 0.56166 0.46867 0.22564 0.0
C24 C 0.53895 0.74733 0.30943 0.0
O25 O 0.56588 0.73852 0.38227 0.0
O26 O 0.56869 0.50584 0.43761 0.0
O27 O 0.65819 0.59998 0.40032 0.0
O28 O 0.66489 0.68074 0.33536 0.0
C29 C 0.53078 0.52977 0.47791 0.0
O30 O 0.51824 0.57944 0.45645 0.0
O31 O 0.64546 0.49127 0.26306 0.0
C32 C 0.66375 0.77375 0.14596 0.0
O33 O 0.64184 0.79204 0.2186 0.0
O34 O 0.66439 0.72338 0.13159 0.0
O35 O 0.61134 0.60674 0.18361 0.0
O36 O 0.5466 0.57655 0.26529 0.0
O37 O 0.55367 0.72475 0.23824 0.0
C38 C 0.67674 0.648 0.39689 0.0
C39 C 0.56208 0.59566 0.19252 0.0
Zn40 Zn 0.23618 0.85639 0.59071 0.0
Zn41 Zn 0.09996 0.87332 0.47291 0.0
C42 C 0.31917 0.86391 0.46631 0.0
O43 O 0.31323 0.81167 0.47563 0.0
C44 C 0.03457 0.78897 0.55943 0.0
O45 O 0.04339 0.8159 0.63226 0.0
O46 O 0.27606 0.8187 0.6876 0.0
O47 O 0.18192 0.9082 0.65032 0.0
O48 O 0.10117 0.91491 0.58535 0.0
C49 C 0.25214 0.78079 0.7279 0.0
O50 O 0.20246 0.76825 0.70645 0.0
O51 O 0.29063 0.89547 0.51305 0.0
C52 C 1.00815 0.91376 0.39595 0.0
O53 O 0.98987 0.89186 0.4686 0.0
O54 O 0.05852 0.9144 0.38158 0.0
O55 O 0.17516 0.86135 0.43361 0.0
O56 O 0.20535 0.79661 0.51529 0.0
O57 O 0.05715 0.80368 0.48824 0.0
C58 C 0.1339 0.92675 0.64688 0.0
C59 C 0.18623 0.81209 0.44251 0.0
Zn60 Zn 0.92551 0.4862 0.84072 0.0
Zn61 Zn 0.90858 0.34997 0.72292 0.0
C62 C 0.91799 0.56918 0.71632 0.0
O63 O 0.97024 0.56324 0.72564 0.0
C64 C 0.99294 0.28458 0.80943 0.0
O65 O 0.96601 0.2934 0.88227 0.0
O66 O 0.9632 0.52607 0.93761 0.0
O67 O 0.8737 0.43194 0.90032 0.0
O68 O 0.867 0.35118 0.83536 0.0
C69 C 1.00111 0.50215 0.97791 0.0
O70 O 1.01365 0.45247 0.95645 0.0
O71 O 0.88643 0.54064 0.76306 0.0
C72 C 0.86814 0.25816 0.64596 0.0
O73 O 0.89005 0.23988 0.7186 0.0
O74 O 0.8675 0.30853 0.63159 0.0
O75 O 0.92055 0.42517 0.68361 0.0
O76 O 0.98529 0.45536 0.76529 0.0
O77 O 0.97823 0.30717 0.73824 0.0
C78 C 0.85515 0.38391 0.89689 0.0
C79 C 0.96981 0.43625 0.69252 0.0
Zn80 Zn 0.59995 0.87333 0.05276 0.0
Zn81 Zn 0.73618 0.85639 0.93496 0.0
C82 C 0.53457 0.78897 0.96624 0.0
O83 O 0.54339 0.8159 0.89341 0.0
C84 C 0.81917 0.86391 0.05936 0.0
O85 O 0.81323 0.81167 0.05004 0.0
O86 O 0.55852 0.9144 0.14409 0.0
O87 O 0.67515 0.86135 0.09207 0.0
O88 O 0.70535 0.79661 1.01038 0.0
C89 C 0.50815 0.91376 0.12972 0.0
O90 O 0.48986 0.89185 0.05708 0.0
O91 O 0.55715 0.80368 0.03743 0.0
C92 C 0.75214 0.78079 0.79776 0.0
O93 O 0.70246 0.76825 0.81922 0.0
O94 O 0.77606 0.8187 0.83806 0.0
O95 O 0.68192 0.9082 0.87535 0.0
O96 O 0.60117 0.91491 0.94032 0.0
O97 O 0.79063 0.89547 1.01262 0.0
C98 C 0.68622 0.81209 0.08314 0.0
C99 C 0.6339 0.92675 0.87879 0.0
Zn100 Zn 0.40858 0.34997 0.80275 0.0
Zn101 Zn 0.42551 0.4862 0.68496 0.0
C102 C 0.49294 0.28458 0.71623 0.0
O103 O 0.46601 0.2934 0.6434 0.0
C104 C 0.41799 0.56918 0.80935 0.0
O105 O 0.47024 0.56325 0.80003 0.0
O106 O 0.3675 0.30853 0.89407 0.0
O107 O 0.42056 0.42517 0.84206 0.0
O108 O 0.48529 0.45536 0.76038 0.0
C109 C 0.36815 0.25816 0.87971 0.0
O110 O 0.39006 0.23987 0.80707 0.0
O111 O 0.47823 0.30717 0.78742 0.0
C112 C 0.50111 0.50215 0.54776 0.0
O113 O 0.51365 0.45247 0.56922 0.0
O114 O 0.46321 0.52607 0.58806 0.0
O115 O 0.37371 0.43194 0.62534 0.0
O116 O 0.367 0.35118 0.69031 0.0
O117 O 0.38644 0.54064 0.76262 0.0
C118 C 0.46982 0.43625 0.83316 0.0
C119 C 0.35516 0.38391 0.62878 0.0
Zn120 Zn 0.93194 0.15859 0.55276 0.0
Zn121 Zn 0.79571 0.17552 0.43496 0.0
C122 C 0.99732 0.24295 0.46624 0.0
O123 O 0.98851 0.21601 0.39341 0.0
C124 C 0.71273 0.168 0.55936 0.0
O125 O 0.71866 0.22025 0.55004 0.0
O126 O 0.97338 0.11751 0.64409 0.0
O127 O 0.85674 0.17056 0.59207 0.0
O128 O 0.82654 0.23531 0.51038 0.0
C129 C 0.02374 0.11815 0.62972 0.0
O130 O 0.04203 0.14006 0.55708 0.0
O131 O 0.97474 0.22823 0.53743 0.0
C132 C 0.77975 0.25112 0.29776 0.0
O133 O 0.82943 0.26366 0.31922 0.0
O134 O 0.75583 0.21321 0.33806 0.0
O135 O 0.84997 0.12372 0.37535 0.0
O136 O 0.93072 0.11701 0.44032 0.0
O137 O 0.74126 0.13645 0.51262 0.0
C138 C 0.84567 0.21983 0.58314 0.0
C139 C 0.89799 0.10516 0.37879 0.0
Zn140 Zn 0.12331 0.68195 0.30275 0.0
Zn141 Zn 0.10638 0.54572 0.18496 0.0
C142 C 0.03895 0.74733 0.21623 0.0
O143 O 0.06588 0.73852 0.1434 0.0
C144 C 0.1139 0.46273 0.30935 0.0
O145 O 0.06166 0.46867 0.30003 0.0
O146 O 0.16439 0.72338 0.39407 0.0
O147 O 0.11134 0.60674 0.34206 0.0
O148 O 0.0466 0.57655 0.26038 0.0
C149 C 0.16375 0.77375 0.37971 0.0
O150 O 0.14183 0.79204 0.30707 0.0
O151 O 0.05366 0.72475 0.28742 0.0
C152 C 0.03078 0.52976 0.04776 0.0
O153 O 0.01824 0.57944 0.06922 0.0
O154 O 0.06869 0.50584 0.08806 0.0
O155 O 0.15819 0.59997 0.12534 0.0
O156 O 0.16489 0.68073 0.19031 0.0
O157 O 0.14546 0.49127 0.26262 0.0
C158 C 0.06208 0.59567 0.33316 0.0
C159 C 0.17674 0.648 0.12878 0.0
Zn160 Zn 0.79571 0.67552 0.59071 0.0
Zn161 Zn 0.93194 0.65859 0.47292 0.0
C162 C 0.71273 0.66801 0.46631 0.0
O163 O 0.71866 0.72025 0.47563 0.0
C164 C 0.99733 0.74295 0.55943 0.0
O165 O 0.98851 0.71602 0.63227 0.0
O166 O 0.75583 0.71322 0.68761 0.0
O167 O 0.84997 0.62372 0.65032 0.0
O168 O 0.93073 0.61701 0.58537 0.0
C169 C 0.77975 0.75112 0.72791 0.0
O170 O 0.82943 0.76366 0.70645 0.0
O171 O 0.74126 0.63645 0.51305 0.0
C172 C 0.02374 0.61815 0.39597 0.0
O173 O 0.04203 0.64007 0.4686 0.0
O174 O 0.97338 0.61751 0.3816 0.0
O175 O 0.85673 0.67056 0.43362 0.0
O176 O 0.82654 0.7353 0.51529 0.0
O177 O 0.97474 0.72824 0.48825 0.0
C178 C 0.89799 0.60517 0.64689 0.0
C179 C 0.84566 0.71982 0.44252 0.0
Zn180 Zn 0.10638 0.04572 0.84071 0.0
Zn181 Zn 0.12331 0.18195 0.72292 0.0
C182 C 0.1139 0.96274 0.7163 0.0
O183 O 0.06165 0.96868 0.72562 0.0
C184 C 0.03896 0.24734 0.80943 0.0
O185 O 0.06589 0.23853 0.88227 0.0
O186 O 0.06869 1.00584 0.93761 0.0
O187 O 0.15819 0.09998 0.90032 0.0
O188 O 0.16489 0.18074 0.83536 0.0
C189 C 0.03078 0.02977 0.97791 0.0
O190 O 0.01824 0.07944 0.95645 0.0
O191 O 0.14546 0.99127 0.76305 0.0
C192 C 0.16375 0.27376 0.64596 0.0
O193 O 0.14184 0.29204 0.71859 0.0
O194 O 0.16439 0.22339 0.63159 0.0
O195 O 0.11134 0.10675 0.6836 0.0
O196 O 0.0466 0.07655 0.7653 0.0
O197 O 0.05367 0.22476 0.73824 0.0
C198 C 0.17674 0.148 0.89689 0.0
C199 C 0.06208 0.09568 0.69254 0.0
Zn200 Zn 0.73618 0.35639 0.09071 0.0
Zn201 Zn 0.59995 0.37332 0.97292 0.0
C202 C 0.81916 0.36391 0.96631 0.0
O203 O 0.81323 0.31166 0.97563 0.0
C204 C 0.53456 0.28896 0.05943 0.0
O205 O 0.54338 0.3159 0.13227 0.0
O206 O 0.77606 0.3187 0.18761 0.0
O207 O 0.68193 0.4082 0.15032 0.0
O208 O 0.60117 0.4149 0.08537 0.0
C209 C 0.75214 0.28079 0.22791 0.0
O210 O 0.70246 0.26825 0.20645 0.0
O211 O 0.79063 0.39547 0.01305 0.0
C212 C 0.50815 0.41376 0.89597 0.0
O213 O 0.48986 0.39185 0.9686 0.0
O214 O 0.55852 0.4144 0.8816 0.0
O215 O 0.67516 0.36135 0.93362 0.0
O216 O 0.70535 0.29661 0.01529 0.0
O217 O 0.55715 0.30368 0.98825 0.0
C218 C 0.6339 0.42675 0.14689 0.0
C219 C 0.68623 0.31209 0.94252 0.0
Zn220 Zn 0.42551 0.9862 0.34071 0.0
Zn221 Zn 0.40858 0.84996 0.22292 0.0
C222 C 0.418 0.06917 0.2163 0.0
O223 O 0.47024 0.06324 0.22562 0.0
C224 C 0.49294 0.78457 0.30943 0.0
O225 O 0.466 0.79339 0.38227 0.0
O226 O 0.4632 0.02607 0.43761 0.0
O227 O 0.37371 0.93194 0.40032 0.0
O228 O 0.367 0.85118 0.33536 0.0
C229 C 0.50111 1.00215 0.47791 0.0
O230 O 0.51365 0.95247 0.45645 0.0
O231 O 0.38644 0.04064 0.26305 0.0
C232 C 0.36814 0.75816 0.14596 0.0
O233 O 0.39005 0.73987 0.21859 0.0
O234 O 0.3675 0.80852 0.13159 0.0
O235 O 0.42055 0.92516 0.1836 0.0
O236 O 0.48529 0.95536 0.2653 0.0
O237 O 0.47822 0.80716 0.23824 0.0
C238 C 0.35515 0.88391 0.39689 0.0
C239 C 0.46981 0.93623 0.19254 0.0
Zn240 Zn 0.09995 0.37333 0.55275 0.0
Zn241 Zn 0.23619 0.35639 0.43495 0.0
C242 C 0.03456 0.28896 0.46624 0.0
O243 O 0.04338 0.3159 0.3934 0.0
C244 C 0.31916 0.36391 0.55936 0.0
O245 O 0.31323 0.31167 0.55004 0.0
O246 O 0.05851 0.41441 0.64407 0.0
O247 O 0.17515 0.36135 0.59206 0.0
O248 O 0.20536 0.29661 0.51038 0.0
C249 C 1.00814 0.41376 0.62971 0.0
O250 O 0.98986 0.39185 0.55707 0.0
O251 O 0.05715 0.30368 0.53743 0.0
C252 C 0.25214 0.28079 0.29776 0.0
O253 O 0.20247 0.26825 0.31921 0.0
O254 O 0.27606 0.3187 0.33806 0.0
O255 O 0.18193 0.4082 0.37535 0.0
O256 O 0.10117 0.4149 0.4403 0.0
O257 O 0.29063 0.39547 0.51262 0.0
C258 C 0.18622 0.31209 0.58313 0.0
C259 C 0.1339 0.42675 0.37878 0.0
Zn260 Zn 0.90858 0.84996 0.30275 0.0
Zn261 Zn 0.92552 0.9862 0.18496 0.0
C262 C 0.99294 0.78457 0.21623 0.0
O263 O 0.966 0.79339 0.1434 0.0
C264 C 0.918 0.06917 0.30937 0.0
O265 O 0.97024 0.06324 0.30005 0.0
O266 O 0.8675 0.80852 0.39407 0.0
O267 O 0.92056 0.92516 0.34207 0.0
O268 O 0.9853 0.95536 0.26038 0.0
C269 C 0.86815 0.75815 0.37971 0.0
O270 O 0.89006 0.73986 0.30708 0.0
O271 O 0.97823 0.80716 0.28742 0.0
C272 C 1.00111 1.00215 0.04776 0.0
O273 O 1.01365 0.95248 0.06922 0.0
O274 O 0.96321 0.02607 0.08806 0.0
O275 O 0.87371 0.93194 0.12535 0.0
O276 O 0.867 0.85118 0.19031 0.0
O277 O 0.88644 0.04064 0.26262 0.0
C278 C 0.96982 0.93623 0.33313 0.0
C279 C 0.85516 0.88391 0.12878 0.0
Zn280 Zn 0.43194 0.65859 0.05275 0.0
Zn281 Zn 0.2957 0.67553 0.93495 0.0
C282 C 0.49733 0.74295 0.96624 0.0
O283 O 0.48851 0.71602 0.8934 0.0
C284 C 0.21273 0.66801 0.05936 0.0
O285 O 0.21866 0.72025 0.05004 0.0
O286 O 0.47338 0.61751 0.14407 0.0
O287 O 0.35674 0.67056 0.09206 0.0
O288 O 0.32654 0.7353 1.01038 0.0
C289 C 0.52375 0.61815 0.12971 0.0
O290 O 0.54204 0.64007 0.05707 0.0
O291 O 0.47474 0.72824 0.03743 0.0
C292 C 0.27975 0.75112 0.79776 0.0
O293 O 0.32943 0.76366 0.81921 0.0
O294 O 0.25583 0.71322 0.83806 0.0
O295 O 0.34997 0.62372 0.87535 0.0
O296 O 0.43073 0.61701 0.9403 0.0
O297 O 0.24126 0.63645 1.01262 0.0
C298 C 0.34567 0.71982 0.08313 0.0
C299 C 0.39799 0.60517 0.87878 0.0
Zn300 Zn 0.62331 0.18195 0.80275 0.0
Zn301 Zn 0.60638 0.04572 0.68496 0.0
C302 C 0.53896 0.24734 0.71623 0.0
O303 O 0.56589 0.23853 0.6434 0.0
C304 C 0.6139 0.96274 0.80937 0.0
O305 O 0.56165 0.96868 0.80005 0.0
O306 O 0.66439 0.22339 0.89407 0.0
O307 O 0.61134 0.10675 0.84207 0.0
O308 O 0.5466 0.07655 0.76038 0.0
C309 C 0.66375 0.27376 0.87971 0.0
O310 O 0.64183 0.29205 0.80708 0.0
O311 O 0.55367 0.22475 0.78742 0.0
C312 C 0.53078 0.02976 0.54776 0.0
O313 O 0.51824 0.07944 0.56922 0.0
O314 O 0.56869 1.00584 0.58806 0.0
O315 O 0.65818 0.09997 0.62535 0.0
O316 O 0.66489 0.18074 0.69031 0.0
O317 O 0.64545 0.99127 0.76262 0.0
C318 C 0.56207 0.09568 0.83313 0.0
C319 C 0.67674 0.148 0.62878 0.0
loop_
_geom_bond_atom_site_label_1
_geom_bond_atom_site_label_2
_geom_bond_distance
_geom_bond_site_symmetry_2
_ccdc_geom_bond_type
Zn0 O6 1.969 . S
Zn0 O7 1.965 . S
Zn0 O11 2.024 1_554 S
Zn0 O16 1.969 1_554 S
Zn1 O8 1.969 1_556 S
Zn1 O14 1.969 . S
Zn1 O15 1.965 . S
Zn1 O17 2.024 1_556 S
C2 O3 1.229 . S
C2 O11 1.058 . S
O3 C2 1.229 . S
C4 O5 1.229 . S
C4 O17 1.058 . S
O5 C4 1.229 . S
O6 Zn0 1.969 . S
O6 C9 1.267 . S
O7 Zn0 1.965 . S
O7 C18 1.260 . S
O8 Zn1 1.969 1_554 S
O8 C18 1.258 . S
C9 O6 1.267 . S
C9 O10 1.228 . S
O10 C9 1.228 . S
O11 Zn0 2.024 1_556 S
O11 C2 1.058 . S
C12 O13 1.228 . S
C12 O14 1.267 . S
O13 C12 1.228 . S
O14 Zn1 1.969 . S
O14 C12 1.267 . S
O15 Zn1 1.965 . S
O15 C19 1.260 . S
O16 Zn0 1.969 1_556 S
O16 C19 1.258 . S
O17 Zn1 2.024 1_554 S
O17 C4 1.058 . S
C18 O7 1.260 . S
C18 O8 1.258 . S
C19 O15 1.260 . S
C19 O16 1.258 . S
Zn20 O26 1.969 . S
Zn20 O27 1.965 . S
Zn20 O31 2.024 . S
Zn20 O36 1.969 . S
Zn21 O28 1.969 . S
Zn21 O34 1.969 . S
Zn21 O35 1.965 . S
Zn21 O37 2.024 . S
C22 O23 1.229 . S
C22 O31 1.058 . S
O23 C22 1.229 . S
C24 O25 1.229 . S
C24 O37 1.058 . S
O25 C24 1.229 . S
O26 Zn20 1.969 . S
O26 C29 1.267 . S
O27 Zn20 1.965 . S
O27 C38 1.260 . S
O28 Zn21 1.969 . S
O28 C38 1.258 . S
C29 O26 1.267 . S
C29 O30 1.228 . S
O30 C29 1.228 . S
O31 Zn20 2.024 . S
O31 C22 1.058 . S
C32 O33 1.228 . S
C32 O34 1.267 . S
O33 C32 1.228 . S
O34 Zn21 1.969 . S
O34 C32 1.267 . S
O35 Zn21 1.965 . S
O35 C39 1.260 . S
O36 Zn20 1.969 . S
O36 C39 1.258 . S
O37 Zn21 2.024 . S
O37 C24 1.058 . S
C38 O27 1.260 . S
C38 O28 1.258 . S
C39 O35 1.260 . S
C39 O36 1.258 . S
Zn40 O46 1.969 . S
Zn40 O47 1.965 . S
Zn40 O51 2.024 . S
Zn40 O56 1.969 . S
Zn41 O48 1.969 . S
Zn41 O54 1.969 . S
Zn41 O55 1.965 . S
Zn41 O57 2.024 . S
C42 O43 1.229 . S
C42 O51 1.058 . S
O43 C42 1.229 . S
C44 O45 1.229 . S
C44 O57 1.058 1_655 S
O45 C44 1.229 . S
O46 Zn40 1.969 . S
O46 C49 1.267 . S
O47 Zn40 1.965 . S
O47 C58 1.260 . S
O48 Zn41 1.969 . S
O48 C58 1.258 . S
C49 O46 1.267 . S
C49 O50 1.228 . S
O50 C49 1.228 . S
O51 Zn40 2.024 . S
O51 C42 1.058 . S
C52 O53 1.226 1_455 S
C52 O54 1.267 . S
O53 C52 1.226 1_655 S
O54 Zn41 1.969 . S
O54 C52 1.267 . S
O55 Zn41 1.965 . S
O55 C59 1.260 . S
O56 Zn40 1.969 . S
O56 C59 1.258 . S
O57 Zn41 2.024 . S
O57 C44 1.058 1_455 S
C58 O47 1.260 . S
C58 O48 1.258 . S
C59 O55 1.260 . S
C59 O56 1.258 . S
Zn60 O66 1.969 . S
Zn60 O67 1.965 . S
Zn60 O71 2.024 . S
Zn60 O76 1.969 . S
Zn61 O68 1.969 . S
Zn61 O74 1.969 . S
Zn61 O75 1.965 . S
Zn61 O77 2.024 . S
C62 O63 1.229 . S
C62 O71 1.058 . S
O63 C62 1.229 . S
C64 O65 1.229 . S
C64 O77 1.058 . S
O65 C64 1.229 . S
O66 Zn60 1.969 . S
O66 C69 1.267 . S
O67 Zn60 1.965 . S
O67 C78 1.260 . S
O68 Zn61 1.969 . S
O68 C78 1.258 . S
C69 O66 1.267 . S
C69 O70 1.228 . S
O70 C69 1.228 . S
O71 Zn60 2.024 . S
O71 C62 1.058 . S
C72 O73 1.228 . S
C72 O74 1.267 . S
O73 C72 1.228 . S
O74 Zn61 1.969 . S
O74 C72 1.267 . S
O75 Zn61 1.965 . S
O75 C79 1.260 . S
O76 Zn60 1.969 . S
O76 C79 1.258 . S
O77 Zn61 2.024 . S
O77 C64 1.058 . S
C78 O67 1.260 . S
C78 O68 1.258 . S
C79 O75 1.260 . S
C79 O76 1.258 . S
Zn80 O86 1.969 . S
Zn80 O87 1.965 . S
Zn80 O91 2.024 1_554 S
Zn80 O96 1.969 1_554 S
Zn81 O88 1.969 1_556 S
Zn81 O94 1.969 . S
Zn81 O95 1.965 . S
Zn81 O97 2.024 1_556 S
C82 O83 1.229 . S
C82 O91 1.058 . S
O83 C82 1.229 . S
C84 O85 1.229 . S
C84 O97 1.058 . S
O85 C84 1.229 . S
O86 Zn80 1.969 . S
O86 C89 1.267 . S
O87 Zn80 1.965 . S
O87 C98 1.260 . S
O88 Zn81 1.969 1_554 S
O88 C98 1.258 . S
C89 O86 1.267 . S
C89 O90 1.228 . S
O90 C89 1.228 . S
O91 Zn80 2.024 1_556 S
O91 C82 1.058 . S
C92 O93 1.228 . S
C92 O94 1.267 . S
O93 C92 1.228 . S
O94 Zn81 1.969 . S
O94 C92 1.267 . S
O95 Zn81 1.965 . S
O95 C99 1.260 . S
O96 Zn80 1.969 1_556 S
O96 C99 1.258 . S
O97 Zn81 2.024 1_554 S
O97 C84 1.058 . S
C98 O87 1.260 . S
C98 O88 1.258 . S
C99 O95 1.260 . S
C99 O96 1.258 . S
Zn100 O106 1.969 . S
Zn100 O107 1.965 . S
Zn100 O111 2.024 . S
Zn100 O116 1.969 . S
Zn101 O108 1.969 . S
Zn101 O114 1.969 . S
Zn101 O115 1.965 . S
Zn101 O117 2.024 . S
C102 O103 1.229 . S
C102 O111 1.058 . S
O103 C102 1.229 . S
C104 O105 1.229 . S
C104 O117 1.058 . S
O105 C104 1.229 . S
O106 Zn100 1.969 . S
O106 C109 1.267 . S
O107 Zn100 1.965 . S
O107 C118 1.260 . S
O108 Zn101 1.969 . S
O108 C118 1.258 . S
C109 O106 1.267 . S
C109 O110 1.228 . S
O110 C109 1.228 . S
O111 Zn100 2.024 . S
O111 C102 1.058 . S
C112 O113 1.228 . S
C112 O114 1.267 . S
O113 C112 1.228 . S
O114 Zn101 1.969 . S
O114 C112 1.267 . S
O115 Zn101 1.965 . S
O115 C119 1.260 . S
O116 Zn100 1.969 . S
O116 C119 1.258 . S
O117 Zn101 2.024 . S
O117 C104 1.058 . S
C118 O107 1.260 . S
C118 O108 1.258 . S
C119 O115 1.260 . S
C119 O116 1.258 . S
Zn120 O126 1.969 . S
Zn120 O127 1.965 . S
Zn120 O131 2.024 . S
Zn120 O136 1.969 . S
Zn121 O128 1.969 . S
Zn121 O134 1.969 . S
Zn121 O135 1.965 . S
Zn121 O137 2.024 . S
C122 O123 1.229 . S
C122 O131 1.058 1_455 S
O123 C122 1.229 . S
C124 O125 1.229 . S
C124 O137 1.058 . S
O125 C124 1.229 . S
O126 Zn120 1.969 . S
O126 C129 1.267 . S
O127 Zn120 1.965 . S
O127 C138 1.260 . S
O128 Zn121 1.969 . S
O128 C138 1.258 . S
C129 O126 1.267 . S
C129 O130 1.226 1_655 S
O130 C129 1.226 1_455 S
O131 Zn120 2.024 . S
O131 C122 1.058 1_655 S
C132 O133 1.228 . S
C132 O134 1.267 . S
O133 C132 1.228 . S
O134 Zn121 1.969 . S
O134 C132 1.267 . S
O135 Zn121 1.965 . S
O135 C139 1.260 . S
O136 Zn120 1.969 . S
O136 C139 1.258 . S
O137 Zn121 2.024 . S
O137 C124 1.058 . S
C138 O127 1.260 . S
C138 O128 1.258 . S
C139 O135 1.260 . S
C139 O136 1.258 . S
Zn140 O146 1.969 . S
Zn140 O147 1.965 . S
Zn140 O151 2.024 . S
Zn140 O156 1.969 . S
Zn141 O148 1.969 . S
Zn141 O154 1.969 . S
Zn141 O155 1.965 . S
Zn141 O157 2.024 . S
C142 O143 1.229 . S
C142 O151 1.058 . S
O143 C142 1.229 . S
C144 O145 1.229 . S
C144 O157 1.058 . S
O145 C144 1.229 . S
O146 Zn140 1.969 . S
O146 C149 1.267 . S
O147 Zn140 1.965 . S
O147 C158 1.260 . S
O148 Zn141 1.969 . S
O148 C158 1.258 . S
C149 O146 1.267 . S
C149 O150 1.228 . S
O150 C149 1.228 . S
O151 Zn140 2.024 . S
O151 C142 1.058 . S
C152 O153 1.228 . S
C152 O154 1.267 . S
O153 C152 1.228 . S
O154 Zn141 1.969 . S
O154 C152 1.267 . S
O155 Zn141 1.965 . S
O155 C159 1.260 . S
O156 Zn140 1.969 . S
O156 C159 1.258 . S
O157 Zn141 2.024 . S
O157 C144 1.058 . S
C158 O147 1.260 . S
C158 O148 1.258 . S
C159 O155 1.260 . S
C159 O156 1.258 . S
Zn160 O166 1.969 . S
Zn160 O167 1.965 . S
Zn160 O171 2.024 . S
Zn160 O176 1.969 . S
Zn161 O168 1.969 . S
Zn161 O174 1.969 . S
Zn161 O175 1.965 . S
Zn161 O177 2.024 . S
C162 O163 1.229 . S
C162 O171 1.058 . S
O163 C162 1.229 . S
C164 O165 1.229 . S
C164 O177 1.058 1_455 S
O165 C164 1.229 . S
O166 Zn160 1.969 . S
O166 C169 1.267 . S
O167 Zn160 1.965 . S
O167 C178 1.260 . S
O168 Zn161 1.969 . S
O168 C178 1.258 . S
C169 O166 1.267 . S
C169 O170 1.228 . S
O170 C169 1.228 . S
O171 Zn160 2.024 . S
O171 C162 1.058 . S
C172 O173 1.226 1_655 S
C172 O174 1.267 . S
O173 C172 1.226 1_455 S
O174 Zn161 1.969 . S
O174 C172 1.267 . S
O175 Zn161 1.965 . S
O175 C179 1.260 . S
O176 Zn160 1.969 . S
O176 C179 1.258 . S
O177 Zn161 2.024 . S
O177 C164 1.058 1_655 S
C178 O167 1.260 . S
C178 O168 1.258 . S
C179 O175 1.260 . S
C179 O176 1.258 . S
Zn180 O186 1.969 . S
Zn180 O187 1.965 . S
Zn180 O191 2.024 1_545 S
Zn180 O196 1.969 . S
Zn181 O188 1.969 . S
Zn181 O194 1.969 . S
Zn181 O195 1.965 . S
Zn181 O197 2.024 . S
C182 O183 1.229 . S
C182 O191 1.058 . S
O183 C182 1.229 . S
C184 O185 1.229 . S
C184 O197 1.058 . S
O185 C184 1.229 . S
O186 Zn180 1.969 . S
O186 C189 1.267 1_545 S
O187 Zn180 1.965 . S
O187 C198 1.260 . S
O188 Zn181 1.969 . S
O188 C198 1.258 . S
C189 O186 1.267 1_565 S
C189 O190 1.228 . S
O190 C189 1.228 . S
O191 Zn180 2.024 1_565 S
O191 C182 1.058 . S
C192 O193 1.228 . S
C192 O194 1.267 . S
O193 C192 1.228 . S
O194 Zn181 1.969 . S
O194 C192 1.267 . S
O195 Zn181 1.965 . S
O195 C199 1.260 . S
O196 Zn180 1.969 . S
O196 C199 1.258 . S
O197 Zn181 2.024 . S
O197 C184 1.058 . S
C198 O187 1.260 . S
C198 O188 1.258 . S
C199 O195 1.260 . S
C199 O196 1.258 . S
Zn200 O206 1.969 . S
Zn200 O207 1.965 . S
Zn200 O211 2.024 1_554 S
Zn200 O216 1.969 1_554 S
Zn201 O208 1.969 1_556 S
Zn201 O214 1.969 . S
Zn201 O215 1.965 . S
Zn201 O217 2.024 1_556 S
C202 O203 1.229 . S
C202 O211 1.058 . S
O203 C202 1.229 . S
C204 O205 1.229 . S
C204 O217 1.058 . S
O205 C204 1.229 . S
O206 Zn200 1.969 . S
O206 C209 1.267 . S
O207 Zn200 1.965 . S
O207 C218 1.260 . S
O208 Zn201 1.969 1_554 S
O208 C218 1.258 . S
C209 O206 1.267 . S
C209 O210 1.228 . S
O210 C209 1.228 . S
O211 Zn200 2.024 1_556 S
O211 C202 1.058 . S
C212 O213 1.228 . S
C212 O214 1.267 . S
O213 C212 1.228 . S
O214 Zn201 1.969 . S
O214 C212 1.267 . S
O215 Zn201 1.965 . S
O215 C219 1.260 . S
O216 Zn200 1.969 1_556 S
O216 C219 1.258 . S
O217 Zn201 2.024 1_554 S
O217 C204 1.058 . S
C218 O207 1.260 . S
C218 O208 1.258 . S
C219 O215 1.260 . S
C219 O216 1.258 . S
Zn220 O226 1.969 . S
Zn220 O227 1.965 . S
Zn220 O231 2.024 1_565 S
Zn220 O236 1.969 . S
Zn221 O228 1.969 . S
Zn221 O234 1.969 . S
Zn221 O235 1.965 . S
Zn221 O237 2.024 . S
C222 O223 1.229 . S
C222 O231 1.058 . S
O223 C222 1.229 . S
C224 O225 1.229 . S
C224 O237 1.058 . S
O225 C224 1.229 . S
O226 Zn220 1.969 . S
O226 C229 1.267 1_565 S
O227 Zn220 1.965 . S
O227 C238 1.260 . S
O228 Zn221 1.969 . S
O228 C238 1.258 . S
C229 O226 1.267 1_545 S
C229 O230 1.228 . S
O230 C229 1.228 . S
O231 Zn220 2.024 1_545 S
O231 C222 1.058 . S
C232 O233 1.228 . S
C232 O234 1.267 . S
O233 C232 1.228 . S
O234 Zn221 1.969 . S
O234 C232 1.267 . S
O235 Zn221 1.965 . S
O235 C239 1.260 . S
O236 Zn220 1.969 . S
O236 C239 1.258 . S
O237 Zn221 2.024 . S
O237 C224 1.058 . S
C238 O227 1.260 . S
C238 O228 1.258 . S
C239 O235 1.260 . S
C239 O236 1.258 . S
Zn240 O246 1.969 . S
Zn240 O247 1.965 . S
Zn240 O251 2.024 . S
Zn240 O256 1.969 . S
Zn241 O248 1.969 . S
Zn241 O254 1.969 . S
Zn241 O255 1.965 . S
Zn241 O257 2.024 . S
C242 O243 1.229 . S
C242 O251 1.058 1_655 S
O243 C242 1.229 . S
C244 O245 1.229 . S
C244 O257 1.058 . S
O245 C244 1.229 . S
O246 Zn240 1.969 . S
O246 C249 1.267 . S
O247 Zn240 1.965 . S
O247 C258 1.260 . S
O248 Zn241 1.969 . S
O248 C258 1.258 . S
C249 O246 1.267 . S
C249 O250 1.226 1_455 S
O250 C249 1.226 1_655 S
O251 Zn240 2.024 . S
O251 C242 1.058 1_455 S
C252 O253 1.228 . S
C252 O254 1.267 . S
O253 C252 1.228 . S
O254 Zn241 1.969 . S
O254 C252 1.267 . S
O255 Zn241 1.965 . S
O255 C259 1.260 . S
O256 Zn240 1.969 . S
O256 C259 1.258 . S
O257 Zn241 2.024 . S
O257 C244 1.058 . S
C258 O247 1.260 . S
C258 O248 1.258 . S
C259 O255 1.260 . S
C259 O256 1.258 . S
Zn260 O266 1.969 . S
Zn260 O267 1.965 . S
Zn260 O271 2.024 . S
Zn260 O276 1.969 . S
Zn261 O268 1.969 . S
Zn261 O274 1.969 . S
Zn261 O275 1.965 . S
Zn261 O277 2.024 1_565 S
C262 O263 1.229 . S
C262 O271 1.058 . S
O263 C262 1.229 . S
C264 O265 1.229 . S
C264 O277 1.058 . S
O265 C264 1.229 . S
O266 Zn260 1.969 . S
O266 C269 1.267 . S
O267 Zn260 1.965 . S
O267 C278 1.260 . S
O268 Zn261 1.969 . S
O268 C278 1.258 . S
C269 O266 1.267 . S
C269 O270 1.228 . S
O270 C269 1.228 . S
O271 Zn260 2.024 . S
O271 C262 1.058 . S
C272 O273 1.228 . S
C272 O274 1.267 1_545 S
O273 C272 1.228 . S
O274 Zn261 1.969 . S
O274 C272 1.267 1_565 S
O275 Zn261 1.965 . S
O275 C279 1.260 . S
O276 Zn260 1.969 . S
O276 C279 1.258 . S
O277 Zn261 2.024 1_545 S
O277 C264 1.058 . S
C278 O267 1.260 . S
C278 O268 1.258 . S
C279 O275 1.260 . S
C279 O276 1.258 . S
Zn280 O286 1.969 . S
Zn280 O287 1.965 . S
Zn280 O291 2.024 1_554 S
Zn280 O296 1.969 1_554 S
Zn281 O288 1.969 1_556 S
Zn281 O294 1.969 . S
Zn281 O295 1.965 . S
Zn281 O297 2.024 1_556 S
C282 O283 1.229 . S
C282 O291 1.058 . S
O283 C282 1.229 . S
C284 O285 1.229 . S
C284 O297 1.058 . S
O285 C284 1.229 . S
O286 Zn280 1.969 . S
O286 C289 1.267 . S
O287 Zn280 1.965 . S
O287 C298 1.260 . S
O288 Zn281 1.969 1_554 S
O288 C298 1.258 . S
C289 O286 1.267 . S
C289 O290 1.228 . S
O290 C289 1.228 . S
O291 Zn280 2.024 1_556 S
O291 C282 1.058 . S
C292 O293 1.228 . S
C292 O294 1.267 . S
O293 C292 1.228 . S
O294 Zn281 1.969 . S
O294 C292 1.267 . S
O295 Zn281 1.965 . S
O295 C299 1.260 . S
O296 Zn280 1.969 1_556 S
O296 C299 1.258 . S
O297 Zn281 2.024 1_554 S
O297 C284 1.058 . S
C298 O287 1.260 . S
C298 O288 1.258 . S
C299 O295 1.260 . S
C299 O296 1.258 . S
Zn300 O306 1.969 . S
Zn300 O307 1.965 . S
Zn300 O311 2.024 . S
Zn300 O316 1.969 . S
Zn301 O308 1.969 . S
Zn301 O314 1.969 . S
Zn301 O315 1.965 . S
Zn301 O317 2.024 1_545 S
C302 O303 1.229 . S
C302 O311 1.058 . S
O303 C302 1.229 . S
C304 O305 1.229 . S
C304 O317 1.058 . S
O305 C304 1.229 . S
O306 Zn300 1.969 . S
O306 C309 1.267 . S
O307 Zn300 1.965 . S
O307 C318 1.260 . S
O308 Zn301 1.969 . S
O308 C318 1.258 . S
C309 O306 1.267 . S
C309 O310 1.228 . S
O310 C309 1.228 . S
O311 Zn300 2.024 . S
O311 C302 1.058 . S
C312 O313 1.228 . S
C312 O314 1.267 1_565 S
O313 C312 1.228 . S
O314 Zn301 1.969 . S
O314 C312 1.267 1_545 S
O315 Zn301 1.965 . S
O315 C319 1.260 . S
O316 Zn300 1.969 . S
O316 C319 1.258 . S
O317 Zn301 2.024 1_565 S
O317 C304 1.058 . S
C318 O307 1.260 . S
C318 O308 1.258 . S
C319 O315 1.260 . S
C319 O316 1.258 . S
C4 C204 2.841 . S
C24 C224 2.841 . S
C44 C164 2.841 1_655 S
C64 C184 2.841 1_655 S
C82 C282 2.841 . S
C102 C302 2.841 . S
C122 C242 2.841 1_455 S
C142 C262 2.841 1_455 S
C198 C2 2.556 . S
C218 C22 2.556 . S
C238 C42 2.556 . S
C178 C62 2.556 . S
C84 C279 2.556 . S
C299 C104 2.556 . S
C319 C124 2.556 . S
C259 C144 2.556 . S
C38 C162 2.556 . S
C182 C58 2.556 . S
C202 C78 2.556 . S
C222 C18 2.556 . S
C244 C119 2.556 . S
C139 C264 2.556 . S
C159 C284 2.556 . S
C304 C99 2.556 . S
C12 C318 1.234 . S
C32 C98 1.234 . S
C278 C52 1.234 1_655 S
C138 C72 1.234 . S
C89 C239 1.234 . S
C109 C19 1.234 . S
C199 C129 1.234 1_455 S
C59 C149 1.234 . S
C172 C158 1.234 1_655 S
C192 C258 1.234 . S
C118 C212 1.234 . S
C298 C232 1.234 . S
C249 C79 1.234 1_455 S
C269 C179 1.234 . S
C289 C39 1.234 . S
C219 C309 1.234 . S
C9 C252 2.922 . S
C29 C112 2.922 . S
C49 C292 2.922 . S
C152 C69 2.922 1_454 S
C92 C169 2.922 . S
C209 C132 2.922 . S
C189 C272 2.922 1_466 S
C312 C229 2.922 1_565 S
