# Generated by pormake.
# Topology vda, (6)-cn, num edge types: 1
# Building blocks:
#     Node 0, Type 0, BuildingBlock: IZENUY_clean_sbu_0, # of connection points: 6
#     Node 1, Type 0, BuildingBlock: IZENUY_clean_sbu_0, # of connection points: 6
#     Node 2, Type 0, BuildingBlock: IZENUY_clean_sbu_0, # of connection points: 6
#     Node 3, Type 0, BuildingBlock: IZENUY_clean_sbu_0, # of connection points: 6
#     Node 4, Type 0, BuildingBlock: IZENUY_clean_sbu_0, # of connection points: 6
#     Node 5, Type 0, BuildingBlock: IZENUY_clean_sbu_0, # of connection points: 6
#     Node 6, Type 0, BuildingBlock: IZENUY_clean_sbu_0, # of connection points: 6
#     Node 7, Type 0, BuildingBlock: IZENUY_clean_sbu_0, # of connection points: 6
#     Node 8, Type 0, BuildingBlock: IZENUY_clean_sbu_0, # of connection points: 6
#     Node 9, Type 0, BuildingBlock: IZENUY_clean_sbu_0, # of connection points: 6
#     Node 10, Type 0, BuildingBlock: IZENUY_clean_sbu_0, # of connection points: 6
#     Node 11, Type 0, BuildingBlock: IZENUY_clean_sbu_0, # of connection points: 6
#     Node 12, Type 0, BuildingBlock: IZENUY_clean_sbu_0, # of connection points: 6
#     Node 13, Type 0, BuildingBlock: IZENUY_clean_sbu_0, # of connection points: 6
#     Node 14, Type 0, BuildingBlock: IZENUY_clean_sbu_0, # of connection points: 6
#     Node 15, Type 0, BuildingBlock: IZENUY_clean_sbu_0, # of connection points: 6
#     Node 16, Type 0, BuildingBlock: IZENUY_clean_sbu_0, # of connection points: 6
#     Node 17, Type 0, BuildingBlock: IZENUY_clean_sbu_0, # of connection points: 6
#     Node 18, Type 0, BuildingBlock: IZENUY_clean_sbu_0, # of connection points: 6
#     Node 19, Type 0, BuildingBlock: IZENUY_clean_sbu_0, # of connection points: 6
#     Node 20, Type 0, BuildingBlock: IZENUY_clean_sbu_0, # of connection points: 6
#     Node 21, Type 0, BuildingBlock: IZENUY_clean_sbu_0, # of connection points: 6
#     Node 22, Type 0, BuildingBlock: IZENUY_clean_sbu_0, # of connection points: 6
#     Node 23, Type 0, BuildingBlock: IZENUY_clean_sbu_0, # of connection points: 6
#     Node 24, Type 0, BuildingBlock: IZENUY_clean_sbu_0, # of connection points: 6
#     Node 25, Type 0, BuildingBlock: IZENUY_clean_sbu_0, # of connection points: 6
#     Node 26, Type 0, BuildingBlock: IZENUY_clean_sbu_0, # of connection points: 6
#     Node 27, Type 0, BuildingBlock: IZENUY_clean_sbu_0, # of connection points: 6
#     Node 28, Type 0, BuildingBlock: IZENUY_clean_sbu_0, # of connection points: 6
#     Node 29, Type 0, BuildingBlock: IZENUY_clean_sbu_0, # of connection points: 6
#     Node 30, Type 0, BuildingBlock: IZENUY_clean_sbu_0, # of connection points: 6
#     Node 31, Type 0, BuildingBlock: IZENUY_clean_sbu_0, # of connection points: 6
#     Edge 32, Type (0, 0), None
#     Edge 33, Type (0, 0), None
#     Edge 34, Type (0, 0), None
#     Edge 35, Type (0, 0), None
#     Edge 36, Type (0, 0), None
#     Edge 37, Type (0, 0), None
#     Edge 38, Type (0, 0), None
#     Edge 39, Type (0, 0), None
#     Edge 40, Type (0, 0), None
#     Edge 41, Type (0, 0), None
#     Edge 42, Type (0, 0), None
#     Edge 43, Type (0, 0), None
#     Edge 44, Type (0, 0), None
#     Edge 45, Type (0, 0), None
#     Edge 46, Type (0, 0), None
#     Edge 47, Type (0, 0), None
#     Edge 48, Type (0, 0), None
#     Edge 49, Type (0, 0), None
#     Edge 50, Type (0, 0), None
#     Edge 51, Type (0, 0), None
#     Edge 52, Type (0, 0), None
#     Edge 53, Type (0, 0), None
#     Edge 54, Type (0, 0), None
#     Edge 55, Type (0, 0), None
#     Edge 56, Type (0, 0), None
#     Edge 57, Type (0, 0), None
#     Edge 58, Type (0, 0), None
#     Edge 59, Type (0, 0), None
#     Edge 60, Type (0, 0), None
#     Edge 61, Type (0, 0), None
#     Edge 62, Type (0, 0), None
#     Edge 63, Type (0, 0), None
#     Edge 64, Type (0, 0), None
#     Edge 65, Type (0, 0), None
#     Edge 66, Type (0, 0), None
#     Edge 67, Type (0, 0), None
#     Edge 68, Type (0, 0), None
#     Edge 69, Type (0, 0), None
#     Edge 70, Type (0, 0), None
#     Edge 71, Type (0, 0), None
#     Edge 72, Type (0, 0), None
#     Edge 73, Type (0, 0), None
#     Edge 74, Type (0, 0), None
#     Edge 75, Type (0, 0), None
#     Edge 76, Type (0, 0), None
#     Edge 77, Type (0, 0), None
#     Edge 78, Type (0, 0), None
#     Edge 79, Type (0, 0), None
#     Edge 80, Type (0, 0), None
#     Edge 81, Type (0, 0), None
#     Edge 82, Type (0, 0), None
#     Edge 83, Type (0, 0), None
#     Edge 84, Type (0, 0), None
#     Edge 85, Type (0, 0), None
#     Edge 86, Type (0, 0), None
#     Edge 87, Type (0, 0), None
#     Edge 88, Type (0, 0), None
#     Edge 89, Type (0, 0), None
#     Edge 90, Type (0, 0), None
#     Edge 91, Type (0, 0), None
#     Edge 92, Type (0, 0), None
#     Edge 93, Type (0, 0), None
#     Edge 94, Type (0, 0), None
#     Edge 95, Type (0, 0), None
#     Edge 96, Type (0, 0), None
#     Edge 97, Type (0, 0), None
#     Edge 98, Type (0, 0), None
#     Edge 99, Type (0, 0), None
#     Edge 100, Type (0, 0), None
#     Edge 101, Type (0, 0), None
#     Edge 102, Type (0, 0), None
#     Edge 103, Type (0, 0), None
#     Edge 104, Type (0, 0), None
#     Edge 105, Type (0, 0), None
#     Edge 106, Type (0, 0), None
#     Edge 107, Type (0, 0), None
#     Edge 108, Type (0, 0), None
#     Edge 109, Type (0, 0), None
#     Edge 110, Type (0, 0), None
#     Edge 111, Type (0, 0), None
#     Edge 112, Type (0, 0), None
#     Edge 113, Type (0, 0), None
#     Edge 114, Type (0, 0), None
#     Edge 115, Type (0, 0), None
#     Edge 116, Type (0, 0), None
#     Edge 117, Type (0, 0), None
#     Edge 118, Type (0, 0), None
#     Edge 119, Type (0, 0), None
#     Edge 120, Type (0, 0), None
#     Edge 121, Type (0, 0), None
#     Edge 122, Type (0, 0), None
#     Edge 123, Type (0, 0), None
#     Edge 124, Type (0, 0), None
#     Edge 125, Type (0, 0), None
#     Edge 126, Type (0, 0), None
#     Edge 127, Type (0, 0), None
# Relax obj value: 0.427
# Max RMSD: 0.270
# Mean RMSD: 0.269
data_MOF--net-vda--node1-IZENUY_clean_sbu_0--edge1-none
_symmetry_space_group_name_H-M    P1
_symmetry_Int_Tables_number       1
_symmetry_cell_setting            triclinic
loop_
_symmetry_equiv_pos_as_xyz
'x, y, z'
_cell_length_a     20.647191
_cell_length_b     17.991461
_cell_length_c     25.772498
_cell_angle_alpha  90.002151
_cell_angle_beta   90.008306
_cell_angle_gamma 89.999462
loop_
_atom_site_label
_atom_site_type_symbol
_atom_site_fract_x
_atom_site_fract_y
_atom_site_fract_z
_atom_type_partial_charge
Fe0 Fe 0.48554 0.03244 0.15241 0.0
Fe1 Fe 0.44723 0.93059 1.06541 0.0
O2 O 0.44362 0.01863 0.09321 0.0
Fe3 Fe 0.39603 0.09062 1.06825 0.0
O4 O 0.46682 0.15585 1.06902 0.0
O5 O 0.48724 0.13532 0.14919 0.0
O6 O 0.56011 0.03142 0.11806 0.0
C7 C 0.57268 -0.02255 0.08813 0.0
C8 C 0.36855 0.07828 0.17927 0.0
O9 O 0.533 0.92561 1.07905 0.0
C10 C 0.31384 0.96289 1.05327 0.0
O11 O 0.4994 0.93657 0.1708 0.0
O12 O 0.42133 0.89225 0.12726 0.0
O13 O 0.36771 0.11655 0.13638 0.0
O14 O 0.40767 0.02585 0.18304 0.0
C15 C 0.46584 0.02586 0.98139 0.0
O16 O 0.36303 0.92344 1.04482 0.0
O17 O 0.32063 0.03158 1.06468 0.0
C18 C 0.46333 0.88298 0.16173 0.0
O19 O 0.47406 0.96457 1.00389 0.0
O20 O 0.4232 0.07214 0.99888 0.0
C21 C 0.49865 0.17355 0.10917 0.0
Fe22 Fe 1.0117 0.26461 1.06546 0.0
Fe23 Fe 1.06289 0.10457 1.06825 0.0
O24 O 1.01532 0.17654 0.09322 0.0
Fe25 Fe 0.97336 0.1627 0.1524 0.0
O26 O 0.89882 0.16364 0.11798 0.0
O27 O 0.92591 0.26947 1.07899 0.0
O28 O 0.985 0.2307 1.00388 0.0
C29 C 0.99311 0.16939 0.98139 0.0
C30 C 0.99542 0.31217 0.16175 0.0
O31 O 1.03566 0.123 0.9989 0.0
C32 C 1.09037 0.11698 0.17929 0.0
O33 O 1.09592 0.27184 1.04499 0.0
O34 O 0.13829 0.16359 1.06463 0.0
O35 O 0.95937 0.25856 0.17078 0.0
O36 O 1.03749 0.30289 0.12736 0.0
C37 C 0.96035 0.02158 0.10919 0.0
O38 O 1.09126 0.07872 0.1364 0.0
O39 O 1.0512 0.16936 0.18307 0.0
C40 C 0.1451 0.23231 1.0533 0.0
O41 O 0.99213 0.03931 1.06903 0.0
O42 O 0.97175 0.05982 0.1492 0.0
C43 C 0.88626 0.21758 0.08802 0.0
Fe44 Fe 0.44722 0.2646 0.34291 0.0
Fe45 Fe 0.4856 0.16265 0.256 0.0
O46 O 0.44362 0.17652 0.31517 0.0
Fe47 Fe 0.39606 0.10453 0.34016 0.0
O48 O 0.32065 0.16354 0.34381 0.0
O49 O 0.36299 0.27186 0.36332 0.0
O50 O 0.4215 0.30287 0.28099 0.0
C51 C 0.46359 0.3121 0.24661 0.0
C52 C 0.46576 0.16944 0.42703 0.0
O53 O 0.49962 0.25848 0.23761 0.0
C54 C 0.49859 0.02152 0.2992 0.0
O55 O 0.53303 0.26944 0.32943 0.0
O56 O 0.56012 0.16359 0.29044 0.0
O57 O 0.42332 0.12295 0.4095 0.0
O58 O 0.47386 0.23074 0.40452 0.0
C59 C 0.3685 0.11705 0.22917 0.0
O60 O 0.48717 0.05977 0.2592 0.0
O61 O 0.46682 0.03928 0.33936 0.0
C62 C 0.57269 0.21755 0.32038 0.0
O63 O 0.40777 0.16933 0.2253 0.0
O64 O 0.36766 0.0787 0.27202 0.0
C65 C 0.31383 0.23228 0.35508 0.0
Fe66 Fe 1.0117 0.93059 0.34299 0.0
Fe67 Fe 1.06293 0.0906 0.34014 0.0
O68 O 1.01534 0.01862 0.31518 0.0
Fe69 Fe 0.97342 0.0324 0.25597 0.0
O70 O 0.89885 0.03143 0.29032 0.0
O71 O 0.92594 0.92562 0.32933 0.0
O72 O 0.98485 0.96461 0.4045 0.0
C73 C 0.99309 0.02589 0.427 0.0
C74 C 0.99563 0.88294 0.24668 0.0
O75 O 1.03576 0.07214 0.40951 0.0
C76 C 1.09044 0.07816 0.22917 0.0
O77 O 1.0959 0.92343 0.36361 0.0
O78 O 0.13832 0.03154 0.34371 0.0
O79 O 0.95956 0.93652 0.2376 0.0
O80 O 1.03762 0.89222 0.28116 0.0
C81 C 0.96034 0.17354 0.2992 0.0
O82 O 1.09127 0.11652 0.27201 0.0
O83 O 1.05129 0.02578 0.22533 0.0
C84 C 0.1451 0.96285 0.35514 0.0
O85 O 0.99216 0.15586 0.33936 0.0
O86 O 0.97174 0.1353 0.25919 0.0
C87 C 0.88626 -0.02253 0.32025 0.0
Fe88 Fe 0.81289 0.85455 0.09016 0.0
Fe89 Fe 0.72334 0.91269 1.006 0.0
O90 O 0.76532 0.92653 1.06518 0.0
Fe91 Fe 0.76172 0.0146 0.09294 0.0
O92 O 0.73503 -0.0193 0.15452 0.0
O93 O 0.78567 0.87298 0.1595 0.0
O94 O 0.74213 0.7893 0.08936 0.0
C95 C 0.71033 0.77157 1.0492 0.0
C96 C 0.89511 -0.01771 0.1051 0.0
O97 O 0.72174 0.8098 1.0092 0.0
C98 C 0.74541 0.06214 0.99664 0.0
O99 O 0.84125 0.8287 1.02201 0.0
O100 O 0.80118 0.91934 0.97533 0.0
O101 O 0.84595 0.02183 0.11341 0.0
O102 O 0.88829 0.91356 0.09379 0.0
C103 C 0.63627 0.96758 1.07039 0.0
O104 O 0.70936 0.00854 0.98762 0.0
O105 O 0.78749 0.05288 1.03104 0.0
C106 C 0.84036 0.86697 0.97912 0.0
O107 O 0.64881 0.91364 1.04042 0.0
O108 O 0.67592 0.01948 0.07941 0.0
C109 C 0.74313 0.91938 0.177 0.0
Fe110 Fe 0.23552 0.78242 1.00595 0.0
Fe111 Fe 0.19726 0.68062 0.09298 0.0
O112 O 0.19362 0.76865 1.06516 0.0
Fe113 Fe 0.14602 0.84062 0.09011 0.0
O114 O 0.21679 0.90588 0.08935 0.0
O115 O 0.23722 0.88531 1.00917 0.0
O116 O 0.31011 0.78144 1.04029 0.0
C117 C 0.32269 0.7275 1.07024 0.0
C118 C 0.11853 0.82826 0.97909 0.0
O119 O 0.28302 0.67565 0.07933 0.0
C120 C 1.06387 0.71287 0.1051 0.0
O121 O 0.24937 0.68654 0.98758 0.0
O122 O 0.17134 0.64224 1.03114 0.0
O123 O 0.11769 0.86653 1.02197 0.0
O124 O 0.15763 0.77582 0.97533 0.0
C125 C 0.21586 0.77592 0.17699 0.0
O126 O 0.11307 0.67346 0.11359 0.0
O127 O 1.07064 0.78156 0.09365 0.0
C128 C 0.21332 0.63296 0.99668 0.0
O129 O 0.22413 0.71465 0.15449 0.0
O130 O 0.17318 0.82215 0.15948 0.0
C131 C 0.24863 0.92352 1.0492 0.0
Fe132 Fe 0.81292 0.84062 0.81826 0.0
Fe133 Fe 0.72344 0.78239 0.90242 0.0
O134 O 0.76535 0.76862 0.84322 0.0
Fe135 Fe 0.76172 0.68059 0.8154 0.0
O136 O 0.73487 0.7146 0.75388 0.0
O137 O 0.78574 0.82216 0.7489 0.0
O138 O 0.74214 0.90585 0.81905 0.0
C139 C 0.71031 0.92352 0.85921 0.0
C140 C 0.89511 0.71288 0.80327 0.0
O141 O 0.72174 0.88528 0.89921 0.0
C142 C 0.74564 0.63294 0.9117 0.0
O143 O 0.84127 0.86652 0.8864 0.0
O144 O 0.80131 0.77577 0.93307 0.0
O145 O 0.84592 0.67344 0.7948 0.0
O146 O 0.88832 0.78157 0.81469 0.0
C147 C 0.63627 0.72743 0.83814 0.0
O148 O 0.70958 0.68652 0.92079 0.0
O149 O 0.78763 0.64222 0.87724 0.0
C150 C 0.84045 0.82816 0.92924 0.0
O151 O 0.64886 0.7814 0.86806 0.0
O152 O 0.67596 0.6756 0.82903 0.0
C153 C 0.7431 0.77589 0.73139 0.0
Fe154 Fe 0.19723 0.01457 0.81543 0.0
Fe155 Fe 0.14603 0.85453 0.81822 0.0
O156 O 0.19362 0.92651 0.84319 0.0
Fe157 Fe 0.23561 0.91267 0.90237 0.0
O158 O 0.31013 0.91359 0.86794 0.0
O159 O 0.28303 0.01943 0.82895 0.0
O160 O 0.2239 -0.01935 0.75385 0.0
C161 C 0.2158 0.91934 0.73137 0.0
C162 C 0.21356 0.06213 0.91172 0.0
O163 O 0.17326 0.87295 0.74887 0.0
C164 C 0.11855 0.86706 0.9292 0.0
O165 O 0.113 0.02181 0.79497 0.0
O166 O 1.07064 0.91355 0.81458 0.0
O167 O 0.24961 0.00853 0.92074 0.0
O168 O 0.17147 0.05286 0.87732 0.0
C169 C 0.24858 0.77153 0.85918 0.0
O170 O 0.11767 0.82869 0.88636 0.0
O171 O 0.15778 0.91937 0.93305 0.0
C172 C 1.06383 -0.01773 0.80327 0.0
O173 O 0.21679 0.78927 0.81901 0.0
O174 O 0.23718 0.80978 0.89918 0.0
C175 C 0.32269 0.96753 0.83799 0.0
Fe176 Fe 0.39604 0.59062 0.56825 0.0
Fe177 Fe 0.48554 0.53243 0.65241 0.0
O178 O 0.44362 0.51863 0.59321 0.0
Fe179 Fe 0.44723 0.43059 0.56541 0.0
O180 O 0.47406 0.46458 0.50389 0.0
O181 O 0.4232 0.57214 0.49888 0.0
O182 O 0.46682 0.65586 0.56902 0.0
C183 C 0.49865 0.67354 0.60917 0.0
C184 C 0.31384 0.46288 0.55327 0.0
O185 O 0.48724 0.63532 0.64919 0.0
C186 C 0.46334 0.38298 0.66173 0.0
O187 O 0.36771 0.61655 0.63638 0.0
O188 O 0.40767 0.52585 0.68304 0.0
O189 O 0.36303 0.42344 0.54482 0.0
O190 O 0.32063 0.53158 0.56468 0.0
C191 C 0.57268 0.47745 0.58813 0.0
O192 O 0.4994 0.43656 0.6708 0.0
O193 O 0.42134 0.39225 0.62726 0.0
C194 C 0.36856 0.57828 0.67927 0.0
O195 O 0.56011 0.53142 0.61806 0.0
O196 O 0.533 0.42561 0.57905 0.0
C197 C 0.46584 0.52586 0.48139 0.0
Fe198 Fe 1.01171 0.76462 0.56547 0.0
Fe199 Fe 1.06289 0.60457 0.56825 0.0
O200 O 1.01531 0.67655 0.59322 0.0
Fe201 Fe 0.97335 0.66271 0.6524 0.0
O202 O 0.89882 0.66364 0.61797 0.0
O203 O 0.92591 0.76948 0.57899 0.0
O204 O 0.98501 0.73071 0.50388 0.0
C205 C 0.99311 0.6694 0.48139 0.0
C206 C 0.99541 0.81217 0.66175 0.0
O207 O 1.03565 0.62301 0.4989 0.0
C208 C 1.09037 0.61699 0.67929 0.0
O209 O 1.09593 0.77185 0.545 0.0
O210 O 0.13829 0.66359 0.56463 0.0
O211 O 0.95937 0.75857 0.67078 0.0
O212 O 1.03749 0.80289 0.62736 0.0
C213 C 0.96034 0.52158 0.60919 0.0
O214 O 1.09126 0.57873 0.6364 0.0
O215 O 1.0512 0.66936 0.68307 0.0
C216 C 0.1451 0.73231 0.55331 0.0
O217 O 0.99213 0.53932 0.56903 0.0
O218 O 0.97175 0.55982 0.6492 0.0
C219 C 0.88626 0.71758 0.58801 0.0
Fe220 Fe 0.44721 0.76461 0.84291 0.0
Fe221 Fe 0.48561 0.66265 0.75601 0.0
O222 O 0.44362 0.67652 0.81517 0.0
Fe223 Fe 0.39606 0.60453 0.84016 0.0
O224 O 0.32065 0.66353 0.84383 0.0
O225 O 0.36297 0.77187 0.8633 0.0
O226 O 0.4215 0.80287 0.78098 0.0
C227 C 0.4636 0.8121 0.74661 0.0
C228 C 0.46575 0.66946 0.92703 0.0
O229 O 0.49964 0.75849 0.73762 0.0
C230 C 0.49859 0.52152 0.7992 0.0
O231 O 0.53302 0.76944 0.82943 0.0
O232 O 0.56012 0.66359 0.79046 0.0
O233 O 0.42333 0.62295 0.9095 0.0
O234 O 0.47383 0.73076 0.90453 0.0
C235 C 0.36851 0.61705 0.72917 0.0
O236 O 0.48718 0.55977 0.7592 0.0
O237 O 0.46683 0.53928 0.83936 0.0
C238 C 0.57267 0.71753 0.82043 0.0
O239 O 0.40778 0.66933 0.7253 0.0
O240 O 0.36767 0.5787 0.77202 0.0
C241 C 0.31382 0.73227 0.85508 0.0
Fe242 Fe 1.06293 0.59061 0.84014 0.0
Fe243 Fe 0.97342 0.5324 0.75596 0.0
O244 O 1.01533 0.51863 0.81517 0.0
Fe245 Fe 1.0117 0.4306 0.84299 0.0
O246 O 0.98484 0.46462 0.9045 0.0
O247 O 1.03576 0.57214 0.90951 0.0
O248 O 0.99216 0.65587 0.83937 0.0
C249 C 0.96032 0.67351 0.7992 0.0
C250 C 0.14509 0.46286 0.85514 0.0
O251 O 0.97172 0.63529 0.75918 0.0
C252 C 0.99562 0.38294 0.74668 0.0
O253 O 1.09126 0.61653 0.77201 0.0
O254 O 1.05129 0.52578 0.72533 0.0
O255 O 1.09589 0.42344 0.86361 0.0
O256 O 0.13831 0.53155 0.84371 0.0
C257 C 0.88626 0.47747 0.82025 0.0
O258 O 0.95956 0.43652 0.73759 0.0
O259 O 1.03761 0.39222 0.78116 0.0
C260 C 1.09043 0.57817 0.72917 0.0
O261 O 0.89884 0.53142 0.79031 0.0
O262 O 0.92594 0.42562 0.82933 0.0
C263 C 0.99309 0.5259 0.927 0.0
Fe264 Fe 0.76172 0.5146 0.59294 0.0
Fe265 Fe 0.81289 0.35455 0.59015 0.0
O266 O 0.76532 0.42653 0.56518 0.0
Fe267 Fe 0.72334 0.41269 0.506 0.0
O268 O 0.64881 0.41364 0.54042 0.0
O269 O 0.67592 0.51948 0.57941 0.0
O270 O 0.73503 0.48069 0.65452 0.0
C271 C 0.74313 0.41937 0.677 0.0
C272 C 0.74541 0.56214 0.49665 0.0
O273 O 0.78567 0.37298 0.6595 0.0
C274 C 0.84036 0.36697 0.47912 0.0
O275 O 0.84595 0.52183 0.61341 0.0
O276 O 0.88829 0.41357 0.59378 0.0
O277 O 0.70936 0.50854 0.48762 0.0
O278 O 0.78749 0.55288 0.53105 0.0
C279 C 0.71033 0.27157 0.5492 0.0
O280 O 0.84125 0.3287 0.52201 0.0
O281 O 0.80118 0.41934 0.47533 0.0
C282 C 0.89511 0.48229 0.6051 0.0
O283 O 0.74213 0.2893 0.58936 0.0
O284 O 0.72173 0.3098 0.5092 0.0
C285 C 0.63627 0.46758 0.57039 0.0
Fe286 Fe 0.19726 0.18061 0.59297 0.0
Fe287 Fe 0.14602 0.34061 0.59011 0.0
O288 O 0.19362 0.26864 0.56516 0.0
Fe289 Fe 0.23552 0.28242 0.50595 0.0
O290 O 0.31011 0.28143 0.5403 0.0
O291 O 0.28302 0.17564 0.57933 0.0
O292 O 0.22412 0.21463 0.65448 0.0
C293 C 0.21586 0.27591 0.67699 0.0
C294 C 0.21333 0.13295 0.49667 0.0
O295 O 0.17318 0.32215 0.65948 0.0
C296 C 0.11854 0.32825 0.47909 0.0
O297 O 0.11307 0.17345 0.61358 0.0
O298 O 1.07064 0.28155 0.59366 0.0
O299 O 0.24938 0.18654 0.48758 0.0
O300 O 0.17134 0.14224 0.53114 0.0
C301 C 0.24863 0.42352 0.5492 0.0
O302 O 0.1177 0.36653 0.52197 0.0
O303 O 0.15764 0.27581 0.47533 0.0
C304 C 1.06387 0.21287 0.6051 0.0
O305 O 0.21679 0.40588 0.58936 0.0
O306 O 0.23723 0.38531 0.50917 0.0
C307 C 0.32269 0.22749 0.57025 0.0
Fe308 Fe 0.81292 0.34062 0.31826 0.0
Fe309 Fe 0.72343 0.28239 0.40242 0.0
O310 O 0.76535 0.26862 0.34322 0.0
Fe311 Fe 0.76173 0.18058 0.3154 0.0
O312 O 0.7349 0.21458 0.25388 0.0
O313 O 0.78573 0.32216 0.2489 0.0
O314 O 0.74213 0.40585 0.31905 0.0
C315 C 0.71031 0.42352 0.35921 0.0
C316 C 0.89512 0.21289 0.30327 0.0
O317 O 0.72173 0.38528 0.39921 0.0
C318 C 0.74563 0.13294 0.41171 0.0
O319 O 0.84127 0.36652 0.3864 0.0
O320 O 0.80129 0.27577 0.43307 0.0
O321 O 0.84593 0.17343 0.29482 0.0
O322 O 0.88832 0.28159 0.31468 0.0
C323 C 0.63629 0.22745 0.33809 0.0
O324 O 0.70957 0.18652 0.42078 0.0
O325 O 0.78763 0.14222 0.37725 0.0
C326 C 0.84044 0.32816 0.42924 0.0
O327 O 0.64885 0.2814 0.36805 0.0
O328 O 0.67597 0.1756 0.32902 0.0
C329 C 0.74311 0.27587 0.23138 0.0
Fe330 Fe 0.19723 0.51456 0.31543 0.0
Fe331 Fe 0.14604 0.35452 0.31822 0.0
O332 O 0.19363 0.4265 0.34319 0.0
Fe333 Fe 0.23561 0.41268 0.40237 0.0
O334 O 0.31013 0.4136 0.36795 0.0
O335 O 0.28304 0.51943 0.32895 0.0
O336 O 0.22392 0.48064 0.25385 0.0
C337 C 0.2158 0.41933 0.23137 0.0
C338 C 0.21356 0.56213 0.41172 0.0
O339 O 0.17326 0.37295 0.24887 0.0
C340 C 0.11856 0.36706 0.4292 0.0
O341 O 0.113 0.5218 0.29496 0.0
O342 O 1.07065 0.41355 0.31459 0.0
O343 O 0.24961 0.50853 0.42074 0.0
O344 O 0.17148 0.55286 0.37732 0.0
C345 C 0.24859 0.27156 0.35917 0.0
O346 O 0.11768 0.32868 0.38636 0.0
O347 O 0.15778 0.41937 0.43306 0.0
C348 C 1.06383 0.48227 0.30327 0.0
O349 O 0.21679 0.28925 0.31901 0.0
O350 O 0.2372 0.30979 0.39919 0.0
C351 C 0.32269 0.46754 0.33799 0.0
Fe352 Fe 0.89604 0.09059 0.56825 0.0
Fe353 Fe 0.98554 0.03241 0.65243 0.0
O354 O 0.94363 0.01862 0.59322 0.0
Fe355 Fe 0.94727 0.93058 0.56539 0.0
O356 O 0.97419 0.96462 0.50391 0.0
O357 O 0.92318 0.0721 0.49888 0.0
O358 O 0.96681 0.15585 0.56901 0.0
C359 C 0.99866 0.17349 0.60917 0.0
C360 C 0.81388 0.96286 0.55324 0.0
O361 O 0.98727 0.13529 0.64919 0.0
C362 C 0.96323 0.883 0.66172 0.0
O363 O 0.86773 0.11654 0.63638 0.0
O364 O 0.90766 0.02584 0.68304 0.0
O365 O 0.86309 0.92347 0.54471 0.0
O366 O 0.82065 0.03153 0.56472 0.0
C367 C 1.07269 -0.02257 0.58815 0.0
O368 O 0.99935 0.93653 0.67082 0.0
O369 O 0.92129 0.89219 0.6272 0.0
C370 C 0.86856 0.07828 0.67927 0.0
O371 O 1.06012 0.03138 0.61809 0.0
O372 O 1.03302 0.92557 0.57909 0.0
C373 C 0.96589 0.02589 0.48141 0.0
Fe374 Fe 0.51172 0.26465 0.56546 0.0
Fe375 Fe 0.56286 0.10458 0.56825 0.0
O376 O 0.51531 0.17658 0.59323 0.0
Fe377 Fe 0.47334 0.16275 0.65241 0.0
O378 O 0.39881 0.16372 0.61799 0.0
O379 O 0.42593 0.26956 0.57901 0.0
O380 O 0.48498 0.23074 0.50389 0.0
C381 C 0.49309 0.16943 0.4814 0.0
C382 C 0.49551 0.31215 0.66177 0.0
O383 O 0.53562 0.12302 0.4989 0.0
C384 C 0.59035 0.11698 0.67929 0.0
O385 O 0.59593 0.27183 0.54496 0.0
O386 O 0.63827 0.16358 0.56463 0.0
O387 O 0.4594 0.25861 0.67079 0.0
O388 O 0.53755 0.30296 0.62734 0.0
C389 C 0.46029 0.02163 0.6092 0.0
O390 O 0.59123 0.07873 0.6364 0.0
O391 O 0.55119 0.16937 0.68308 0.0
C392 C 0.64509 0.23229 0.55329 0.0
O393 O 0.49208 0.03935 0.56904 0.0
O394 O 0.47171 0.05987 0.64921 0.0
C395 C 0.38628 0.21765 0.58801 0.0
Fe396 Fe 0.94726 0.26461 0.84294 0.0
Fe397 Fe 0.9856 0.16268 0.75598 0.0
O398 O 0.94364 0.17653 0.81516 0.0
Fe399 Fe 0.89606 0.10456 0.84015 0.0
O400 O 0.82067 0.16359 0.84378 0.0
O401 O 0.86304 0.27183 0.86343 0.0
O402 O 0.92145 0.30293 0.78106 0.0
C403 C 0.96349 0.31209 0.74662 0.0
C404 C 0.96581 0.16941 0.92701 0.0
O405 O 0.99957 0.25853 0.73759 0.0
C406 C 0.9986 0.02158 0.7992 0.0
O407 O 1.03305 0.26948 0.82938 0.0
O408 O 1.06013 0.16363 0.79041 0.0
O409 O 0.9233 0.12299 0.9095 0.0
O410 O 0.97399 0.23069 0.9045 0.0
C411 C 0.86851 0.11705 0.72917 0.0
O412 O 0.98721 0.0598 0.75919 0.0
O413 O 0.96681 0.03929 0.83936 0.0
C414 C 1.0727 0.21758 0.82036 0.0
O415 O 0.90776 0.16934 0.72529 0.0
O416 O 0.86768 0.0787 0.77202 0.0
C417 C 0.81387 0.23231 0.85511 0.0
Fe418 Fe 0.5629 0.09059 0.84014 0.0
Fe419 Fe 0.47341 0.03235 0.75596 0.0
O420 O 0.51533 0.01858 0.81517 0.0
Fe421 Fe 0.51172 0.93055 0.843 0.0
O422 O 0.48482 0.96457 0.90449 0.0
O423 O 0.53572 0.07212 0.9095 0.0
O424 O 0.49211 0.15582 0.83935 0.0
C425 C 0.46028 0.17349 0.79919 0.0
C426 C 0.6451 0.96287 0.85515 0.0
O427 O 0.47169 0.13524 0.75918 0.0
C428 C 0.49572 0.88296 0.74667 0.0
O429 O 0.59124 0.11651 0.77201 0.0
O430 O 0.55128 0.02576 0.72532 0.0
O431 O 0.59591 0.92344 0.86364 0.0
O432 O 0.6383 0.03156 0.84371 0.0
C433 C 0.38628 -0.02261 0.82026 0.0
O434 O 0.45959 0.93647 0.73759 0.0
O435 O 0.53768 0.89215 0.78118 0.0
C436 C 0.59042 0.07816 0.72917 0.0
O437 O 0.39884 0.03134 0.79031 0.0
O438 O 0.42596 0.92553 0.82931 0.0
C439 C 0.49307 0.02585 0.92699 0.0
Fe440 Fe 0.31289 0.85458 0.59015 0.0
Fe441 Fe 0.22334 0.91272 0.50599 0.0
O442 O 0.2653 0.92655 0.56518 0.0
Fe443 Fe 0.26169 0.01461 0.59297 0.0
O444 O 0.23491 -0.01935 0.6545 0.0
O445 O 0.28569 0.87302 0.6595 0.0
O446 O 0.24214 0.78931 0.58937 0.0
C447 C 0.21032 0.77162 0.54921 0.0
C448 C 0.39507 -0.01769 0.60513 0.0
O449 O 0.2217 0.80983 0.50919 0.0
C450 C 0.24551 0.06212 0.49665 0.0
O451 O 0.34123 0.82871 0.52201 0.0
O452 O 0.30119 0.91935 0.47533 0.0
O453 O 0.34589 0.0218 0.61352 0.0
O454 O 0.38827 0.91361 0.59375 0.0
C455 C 0.13626 0.9676 0.57037 0.0
O456 O 0.20941 0.00858 0.48761 0.0
O457 O 0.28754 0.05294 0.53111 0.0
C458 C 0.34036 0.86697 0.47912 0.0
O459 O 0.1488 0.91368 0.54039 0.0
O460 O 0.1759 0.01952 0.57936 0.0
C461 C 0.24308 0.91935 0.67699 0.0
Fe462 Fe 0.64606 0.8406 0.59011 0.0
Fe463 Fe 0.73553 0.78237 0.50594 0.0
O464 O 0.69363 0.76861 0.56515 0.0
Fe465 Fe 0.69725 0.68057 0.59298 0.0
O466 O 0.72416 0.71461 0.65448 0.0
O467 O 0.67322 0.82213 0.65948 0.0
O468 O 0.71684 0.90584 0.58934 0.0
C469 C 0.74868 0.92347 0.54918 0.0
C470 C 0.56387 0.71289 0.60511 0.0
O471 O 0.73727 0.88526 0.50916 0.0
C472 C 0.71323 0.63297 0.49666 0.0
O473 O 0.61773 0.86653 0.52197 0.0
O474 O 0.65764 0.7758 0.47532 0.0
O475 O 0.61306 0.67347 0.61362 0.0
O476 O 0.57066 0.78157 0.59365 0.0
C477 C 0.82267 0.72742 0.57025 0.0
O478 O 0.74934 0.68649 0.48756 0.0
O479 O 0.67128 0.64217 0.53117 0.0
C480 C 0.61855 0.82826 0.47908 0.0
O481 O 0.81012 0.78135 0.54029 0.0
O482 O 0.783 0.67556 0.5793 0.0
C483 C 0.71588 0.77588 0.67697 0.0
Fe484 Fe 0.31292 0.84059 0.31827 0.0
Fe485 Fe 0.22343 0.78236 0.40244 0.0
O486 O 0.26533 0.7686 0.34322 0.0
Fe487 Fe 0.26168 0.68058 0.31537 0.0
O488 O 0.23475 0.71465 0.2539 0.0
O489 O 0.28576 0.82213 0.24889 0.0
O490 O 0.24214 0.90585 0.31904 0.0
C491 C 0.2103 0.92347 0.3592 0.0
C492 C 0.39507 0.71286 0.30324 0.0
O493 O 0.22171 0.88525 0.39922 0.0
C494 C 0.24574 0.63296 0.41169 0.0
O495 O 0.34125 0.86652 0.38641 0.0
O496 O 0.30131 0.77576 0.43307 0.0
O497 O 0.34586 0.67347 0.2947 0.0
O498 O 0.3883 0.78153 0.31473 0.0
C499 C 0.13626 0.7274 0.33816 0.0
O500 O 0.20963 0.68648 0.4208 0.0
O501 O 0.28767 0.64215 0.37717 0.0
C502 C 0.34044 0.82816 0.42924 0.0
O503 O 0.14884 0.78135 0.3681 0.0
O504 O 0.17594 0.67556 0.32907 0.0
C505 C 0.24305 0.77592 0.2314 0.0
Fe506 Fe 0.69721 0.01461 0.31542 0.0
Fe507 Fe 0.64607 0.85454 0.31822 0.0
O508 O 0.69363 0.92655 0.3432 0.0
Fe509 Fe 0.73562 0.91272 0.40238 0.0
O510 O 0.81013 0.91367 0.36795 0.0
O511 O 0.78302 0.01952 0.32897 0.0
O512 O 0.72393 -0.0193 0.25386 0.0
C513 C 0.71582 0.91938 0.23138 0.0
C514 C 0.71346 0.06211 0.41173 0.0
O515 O 0.6733 0.87297 0.24887 0.0
C516 C 0.61858 0.86707 0.4292 0.0
O517 O 0.61299 0.0218 0.29493 0.0
O518 O 0.57066 0.91354 0.31458 0.0
O519 O 0.74959 0.00858 0.42075 0.0
O520 O 0.67141 0.05293 0.3773 0.0
C521 C 0.74863 0.77159 0.35919 0.0
O522 O 0.6177 0.8287 0.38636 0.0
O523 O 0.65779 0.91939 0.43306 0.0
C524 C 0.56383 -0.01775 0.30326 0.0
O525 O 0.71684 0.78931 0.31902 0.0
O526 O 0.73723 0.80984 0.39919 0.0
C527 C 0.82267 0.96761 0.33798 0.0
Fe528 Fe 0.89604 0.59059 1.06825 0.0
Fe529 Fe 0.98554 0.5324 0.15243 0.0
O530 O 0.94363 0.51862 0.09322 0.0
Fe531 Fe 0.94727 0.43058 1.06538 0.0
O532 O 0.97419 0.46463 1.0039 0.0
O533 O 0.92318 0.5721 0.99888 0.0
O534 O 0.96681 0.65585 1.06901 0.0
C535 C 0.99867 0.67349 0.10917 0.0
C536 C 0.81388 0.46286 1.05324 0.0
O537 O 0.98728 0.63529 0.14919 0.0
C538 C 0.96324 0.383 0.16172 0.0
O539 O 0.86773 0.61654 0.13639 0.0
O540 O 0.90767 0.52584 0.18305 0.0
O541 O 0.86309 0.42347 1.04471 0.0
O542 O 0.82065 0.53153 1.06472 0.0
C543 C 1.07269 0.47743 0.08815 0.0
O544 O 0.99935 0.43652 0.17082 0.0
O545 O 0.92129 0.39219 0.12719 0.0
C546 C 0.86856 0.57828 0.17927 0.0
O547 O 1.06013 0.53138 0.11809 0.0
O548 O 1.03302 0.42557 1.07909 0.0
C549 C 0.96589 0.52589 0.98141 0.0
Fe550 Fe 0.51172 0.76466 1.06546 0.0
Fe551 Fe 0.56285 0.60459 1.06825 0.0
O552 O 0.51531 0.67659 0.09323 0.0
Fe553 Fe 0.47334 0.66276 0.15241 0.0
O554 O 0.39881 0.66373 0.11798 0.0
O555 O 0.42593 0.76957 1.07901 0.0
O556 O 0.48499 0.73076 1.00389 0.0
C557 C 0.49309 0.66944 0.9814 0.0
C558 C 0.49551 0.81215 0.16177 0.0
O559 O 0.53561 0.62302 0.9989 0.0
C560 C 0.59034 0.61699 0.17929 0.0
O561 O 0.59594 0.77184 1.04497 0.0
O562 O 0.63826 0.66358 1.06463 0.0
O563 O 0.45939 0.75862 0.17079 0.0
O564 O 0.53755 0.80296 0.12734 0.0
C565 C 0.46029 0.52163 0.1092 0.0
O566 O 0.59122 0.57873 0.1364 0.0
O567 O 0.55118 0.66938 0.18308 0.0
C568 C 0.6451 0.73229 1.05329 0.0
O569 O 0.49208 0.53936 1.06904 0.0
O570 O 0.4717 0.55987 0.14921 0.0
C571 C 0.38628 0.71766 0.08801 0.0
Fe572 Fe 0.94725 0.76462 0.34293 0.0
Fe573 Fe 0.98561 0.66268 0.25599 0.0
O574 O 0.94363 0.67654 0.31517 0.0
Fe575 Fe 0.89607 0.60455 0.34016 0.0
O576 O 0.82068 0.66357 0.34379 0.0
O577 O 0.86303 0.77184 0.36341 0.0
O578 O 0.92145 0.80293 0.28105 0.0
C579 C 0.9635 0.81209 0.24662 0.0
C580 C 0.9658 0.66943 0.42702 0.0
O581 O 0.99959 0.75853 0.2376 0.0
C582 C 0.99861 0.52158 0.2992 0.0
O583 O 1.03304 0.76948 0.32939 0.0
O584 O 1.06013 0.66363 0.29042 0.0
O585 O 0.92331 0.62298 0.4095 0.0
O586 O 0.97396 0.73071 0.40451 0.0
C587 C 0.86852 0.61705 0.22917 0.0
O588 O 0.98721 0.5598 0.25919 0.0
O589 O 0.96682 0.53929 0.33937 0.0
C590 C 1.07268 0.71755 0.3204 0.0
O591 O 0.90777 0.66934 0.22529 0.0
O592 O 0.86768 0.5787 0.27202 0.0
C593 C 0.81386 0.7323 0.35511 0.0
Fe594 Fe 0.56289 0.59059 0.34014 0.0
Fe595 Fe 0.4734 0.53235 0.25595 0.0
O596 O 0.51532 0.51859 0.31517 0.0
Fe597 Fe 0.51171 0.43055 0.343 0.0
O598 O 0.48481 0.46458 0.40449 0.0
O599 O 0.53572 0.57212 0.4095 0.0
O600 O 0.49211 0.65583 0.33936 0.0
C601 C 0.46027 0.67346 0.29919 0.0
C602 C 0.64509 0.46288 0.35515 0.0
O603 O 0.47167 0.63524 0.25917 0.0
C604 C 0.49572 0.38296 0.24667 0.0
O605 O 0.59123 0.61652 0.27201 0.0
O606 O 0.55128 0.52577 0.22532 0.0
O607 O 0.5959 0.42345 0.36365 0.0
O608 O 0.63829 0.53156 0.34371 0.0
C609 C 0.38628 0.47739 0.32025 0.0
O610 O 0.45959 0.43647 0.23758 0.0
O611 O 0.53767 0.39216 0.28118 0.0
C612 C 0.59041 0.57816 0.22917 0.0
O613 O 0.39883 0.53133 0.2903 0.0
O614 O 0.42595 0.42553 0.32931 0.0
C615 C 0.49307 0.52586 0.42699 0.0
Fe616 Fe 0.31289 0.35458 0.09015 0.0
Fe617 Fe 0.22334 0.41272 1.00599 0.0
O618 O 0.2653 0.42655 1.06517 0.0
Fe619 Fe 0.26168 0.51461 0.09297 0.0
O620 O 0.2349 0.48064 0.1545 0.0
O621 O 0.28569 0.37302 0.1595 0.0
O622 O 0.24214 0.28931 0.08937 0.0
C623 C 0.21032 0.27162 1.04921 0.0
C624 C 0.39507 0.48231 0.10513 0.0
O625 O 0.2217 0.30983 1.00919 0.0
C626 C 0.24551 0.56213 0.99666 0.0
O627 O 0.34123 0.32871 1.02201 0.0
O628 O 0.30118 0.41935 0.97533 0.0
O629 O 0.34589 0.5218 0.11352 0.0
O630 O 0.38827 0.41361 0.09375 0.0
C631 C 0.13626 0.4676 1.07037 0.0
O632 O 0.2094 0.50858 0.98761 0.0
O633 O 0.28753 0.55295 1.03111 0.0
C634 C 0.34035 0.36697 0.97912 0.0
O635 O 0.1488 0.41369 1.04039 0.0
O636 O 0.1759 0.51952 0.07936 0.0
C637 C 0.24309 0.41934 0.17699 0.0
Fe638 Fe 0.64606 0.3406 0.09011 0.0
Fe639 Fe 0.73553 0.28237 1.00594 0.0
O640 O 0.69363 0.2686 1.06515 0.0
Fe641 Fe 0.69725 0.18057 0.09298 0.0
O642 O 0.72415 0.21459 0.15448 0.0
O643 O 0.67322 0.32213 0.15948 0.0
O644 O 0.71684 0.40584 0.08934 0.0
C645 C 0.74868 0.42347 1.04919 0.0
C646 C 0.56387 0.21289 0.10511 0.0
O647 O 0.73728 0.38525 1.00916 0.0
C648 C 0.71323 0.13297 0.99666 0.0
O649 O 0.61773 0.36652 1.02197 0.0
O650 O 0.65765 0.2758 0.97532 0.0
O651 O 0.61306 0.17346 0.11361 0.0
O652 O 0.57066 0.28157 0.09366 0.0
C653 C 0.82267 0.22742 1.07026 0.0
O654 O 0.74935 0.18649 0.98756 0.0
O655 O 0.67128 0.14217 1.03116 0.0
C656 C 0.61856 0.32825 0.97908 0.0
O657 O 0.81012 0.28135 1.04029 0.0
O658 O 0.783 0.17555 1.07931 0.0
C659 C 0.71588 0.27587 0.17697 0.0
Fe660 Fe 0.31291 0.3406 0.81827 0.0
Fe661 Fe 0.22342 0.28236 0.90243 0.0
O662 O 0.26533 0.2686 0.84322 0.0
Fe663 Fe 0.2617 0.18057 0.81537 0.0
O664 O 0.23477 0.21463 0.75389 0.0
O665 O 0.28575 0.32213 0.74889 0.0
O666 O 0.24214 0.40585 0.81904 0.0
C667 C 0.21029 0.42347 0.8592 0.0
C668 C 0.39507 0.21286 0.80324 0.0
O669 O 0.2217 0.38525 0.89922 0.0
C670 C 0.24573 0.13296 0.9117 0.0
O671 O 0.34125 0.36652 0.8864 0.0
O672 O 0.3013 0.27576 0.93307 0.0
O673 O 0.34587 0.17346 0.79472 0.0
O674 O 0.3883 0.28154 0.81472 0.0
C675 C 0.13628 0.22742 0.83812 0.0
O676 O 0.20961 0.18648 0.92079 0.0
O677 O 0.28767 0.14215 0.87718 0.0
C678 C 0.34043 0.32815 0.92924 0.0
O679 O 0.14884 0.28136 0.86808 0.0
O680 O 0.17595 0.17556 0.82907 0.0
C681 C 0.24306 0.2759 0.7314 0.0
Fe682 Fe 0.64608 0.35454 0.81822 0.0
Fe683 Fe 0.73562 0.41273 0.90238 0.0
O684 O 0.69364 0.42654 0.8432 0.0
Fe685 Fe 0.69722 0.51461 0.81542 0.0
O686 O 0.72394 0.48069 0.75386 0.0
O687 O 0.6733 0.37296 0.74887 0.0
O688 O 0.71684 0.28929 0.81902 0.0
C689 C 0.74865 0.27162 0.85919 0.0
C690 C 0.56384 0.48225 0.80326 0.0
O691 O 0.73725 0.30984 0.8992 0.0
C692 C 0.71347 0.56211 0.91173 0.0
O693 O 0.61771 0.32869 0.88636 0.0
O694 O 0.6578 0.41938 0.93307 0.0
O695 O 0.61299 0.5218 0.79493 0.0
O696 O 0.57067 0.41353 0.81459 0.0
C697 C 0.82267 0.46761 0.83799 0.0
O698 O 0.74959 0.50858 0.92076 0.0
O699 O 0.67142 0.55292 0.8773 0.0
C700 C 0.61858 0.36706 0.9292 0.0
O701 O 0.81014 0.41368 0.86796 0.0
O702 O 0.78302 0.51952 0.82898 0.0
C703 C 0.71583 0.41937 0.73138 0.0
loop_
_geom_bond_atom_site_label_1
_geom_bond_atom_site_label_2
_geom_bond_distance
_geom_bond_site_symmetry_2
_ccdc_geom_bond_type
Fe0 O2 1.918 . S
Fe0 O5 1.997 . S
Fe0 O6 2.002 . S
Fe0 O11 1.976 1_545 S
Fe0 O14 1.996 . S
Fe1 O2 1.918 1_556 S
Fe1 O9 1.997 1_545 S
Fe1 O12 1.996 1_546 S
Fe1 O16 1.976 . S
Fe1 O19 2.002 . S
O2 Fe0 1.918 . S
O2 Fe1 1.918 1_554 S
O2 Fe3 1.918 . S
Fe3 O2 1.918 . S
Fe3 O4 2.002 . S
Fe3 O13 1.976 . S
Fe3 O17 1.996 1_554 S
Fe3 O20 1.997 1_554 S
O4 Fe3 2.002 . S
O4 C21 1.295 . S
O5 Fe0 1.997 . S
O5 C21 1.235 . S
O6 Fe0 2.002 . S
O6 C7 1.295 1_554 S
C7 O6 1.295 1_556 S
C7 O9 1.235 1_545 S
C8 O13 1.287 . S
C8 O14 1.255 . S
O9 Fe1 1.997 1_565 S
O9 C7 1.235 1_565 S
C10 O16 1.287 . S
C10 O17 1.255 . S
O11 Fe0 1.976 1_565 S
O11 C18 1.287 . S
O12 Fe1 1.996 1_564 S
O12 C18 1.255 . S
O13 Fe3 1.976 . S
O13 C8 1.287 . S
O14 Fe0 1.996 . S
O14 C8 1.255 . S
C15 O19 1.295 . S
C15 O20 1.235 . S
O16 Fe1 1.976 . S
O16 C10 1.287 . S
O17 Fe3 1.996 1_556 S
O17 C10 1.255 . S
C18 O11 1.287 . S
C18 O12 1.255 . S
O19 Fe1 2.002 . S
O19 C15 1.295 . S
O20 Fe3 1.997 1_556 S
O20 C15 1.235 . S
C21 O4 1.295 . S
C21 O5 1.235 . S
Fe22 O24 1.918 1_556 S
Fe22 O27 1.997 . S
Fe22 O28 2.002 . S
Fe22 O33 1.976 . S
Fe22 O36 1.996 1_556 S
Fe23 O24 1.918 . S
Fe23 O31 1.997 1_554 S
Fe23 O34 1.996 1_554 S
Fe23 O38 1.976 . S
Fe23 O41 2.002 1_545 S
O24 Fe22 1.918 1_554 S
O24 Fe23 1.918 . S
O24 Fe25 1.918 . S
Fe25 O24 1.918 . S
Fe25 O26 2.002 . S
Fe25 O35 1.976 . S
Fe25 O39 1.996 . S
Fe25 O42 1.997 . S
O26 Fe25 2.002 . S
O26 C43 1.295 1_554 S
O27 Fe22 1.997 . S
O27 C43 1.235 . S
O28 Fe22 2.002 . S
O28 C29 1.295 . S
C29 O28 1.295 . S
C29 O31 1.235 . S
C30 O35 1.287 . S
C30 O36 1.255 . S
O31 Fe23 1.997 1_556 S
O31 C29 1.235 . S
C32 O38 1.287 . S
C32 O39 1.255 . S
O33 Fe22 1.976 . S
O33 C40 1.287 1_655 S
O34 Fe23 1.996 1_556 S
O34 C40 1.255 1_655 S
O35 Fe25 1.976 . S
O35 C30 1.287 . S
O36 Fe22 1.996 1_554 S
O36 C30 1.255 . S
C37 O41 1.294 1_545 S
C37 O42 1.239 . S
O38 Fe23 1.976 . S
O38 C32 1.287 . S
O39 Fe25 1.996 . S
O39 C32 1.255 . S
C40 O33 1.287 1_455 S
C40 O34 1.255 1_455 S
O41 Fe23 2.002 1_565 S
O41 C37 1.294 1_565 S
O42 Fe25 1.997 . S
O42 C37 1.239 . S
C43 O26 1.295 1_556 S
C43 O27 1.235 . S
Fe44 O46 1.918 . S
Fe44 O49 1.997 . S
Fe44 O50 2.002 . S
Fe44 O55 1.976 . S
Fe44 O58 1.996 . S
Fe45 O46 1.918 . S
Fe45 O53 1.997 . S
Fe45 O56 1.996 . S
Fe45 O60 1.976 . S
Fe45 O63 2.002 . S
O46 Fe44 1.918 . S
O46 Fe45 1.918 . S
O46 Fe47 1.918 . S
Fe47 O46 1.918 . S
Fe47 O48 2.002 . S
Fe47 O57 1.976 . S
Fe47 O61 1.996 1_545 S
Fe47 O64 1.997 . S
O48 Fe47 2.002 . S
O48 C65 1.295 . S
O49 Fe44 1.997 . S
O49 C65 1.235 . S
O50 Fe44 2.002 . S
O50 C51 1.295 . S
C51 O50 1.295 . S
C51 O53 1.235 . S
C52 O57 1.287 . S
C52 O58 1.255 . S
O53 Fe45 1.997 . S
O53 C51 1.235 . S
C54 O60 1.287 1_565 S
C54 O61 1.255 . S
O55 Fe44 1.976 . S
O55 C62 1.287 . S
O56 Fe45 1.996 . S
O56 C62 1.255 . S
O57 Fe47 1.976 . S
O57 C52 1.287 . S
O58 Fe44 1.996 . S
O58 C52 1.255 . S
C59 O63 1.295 . S
C59 O64 1.235 . S
O60 Fe45 1.976 . S
O60 C54 1.287 1_545 S
O61 Fe47 1.996 1_565 S
O61 C54 1.255 . S
C62 O55 1.287 . S
C62 O56 1.255 . S
O63 Fe45 2.002 . S
O63 C59 1.295 . S
O64 Fe47 1.997 . S
O64 C59 1.235 . S
C65 O48 1.295 . S
C65 O49 1.235 . S
Fe66 O68 1.918 . S
Fe66 O71 1.997 1_545 S
Fe66 O72 2.002 . S
Fe66 O77 1.976 . S
Fe66 O80 1.996 1_545 S
Fe67 O68 1.918 . S
Fe67 O75 1.997 . S
Fe67 O78 1.996 . S
Fe67 O82 1.976 . S
Fe67 O85 2.002 . S
O68 Fe66 1.918 . S
O68 Fe67 1.918 . S
O68 Fe69 1.918 . S
Fe69 O68 1.918 . S
Fe69 O70 2.002 . S
Fe69 O79 1.976 1_545 S
Fe69 O83 1.996 . S
Fe69 O86 1.997 . S
O70 Fe69 2.002 . S
O70 C87 1.295 . S
O71 Fe66 1.997 1_565 S
O71 C87 1.235 1_565 S
O72 Fe66 2.002 . S
O72 C73 1.295 . S
C73 O72 1.295 . S
C73 O75 1.235 . S
C74 O79 1.287 . S
C74 O80 1.255 . S
O75 Fe67 1.997 . S
O75 C73 1.235 . S
C76 O82 1.287 . S
C76 O83 1.255 . S
O77 Fe66 1.976 . S
O77 C84 1.287 1_655 S
O78 Fe67 1.996 . S
O78 C84 1.255 1_655 S
O79 Fe69 1.976 1_565 S
O79 C74 1.287 . S
O80 Fe66 1.996 1_565 S
O80 C74 1.255 . S
C81 O85 1.295 . S
C81 O86 1.235 . S
O82 Fe67 1.976 . S
O82 C76 1.287 . S
O83 Fe69 1.996 . S
O83 C76 1.255 . S
C84 O77 1.287 1_455 S
C84 O78 1.255 1_455 S
O85 Fe67 2.002 . S
O85 C81 1.295 . S
O86 Fe69 1.997 . S
O86 C81 1.235 . S
C87 O70 1.295 . S
C87 O71 1.235 1_545 S
Fe88 O90 1.918 . S
Fe88 O93 1.997 1_556 S
Fe88 O94 2.002 . S
Fe88 O99 1.976 . S
Fe88 O102 1.996 1_556 S
Fe89 O90 1.918 . S
Fe89 O97 1.997 . S
Fe89 O100 1.996 . S
Fe89 O104 1.976 1_565 S
Fe89 O107 2.002 . S
O90 Fe88 1.918 . S
O90 Fe89 1.918 . S
O90 Fe91 1.918 1_556 S
Fe91 O90 1.918 1_554 S
Fe91 O92 2.002 . S
Fe91 O101 1.976 . S
Fe91 O105 1.996 1_564 S
Fe91 O108 1.997 1_565 S
O92 Fe91 2.002 . S
O92 C109 1.295 . S
O93 Fe88 1.997 1_554 S
O93 C109 1.235 . S
O94 Fe88 2.002 . S
O94 C95 1.295 . S
C95 O94 1.295 . S
C95 O97 1.235 . S
C96 O101 1.287 . S
C96 O102 1.255 . S
O97 Fe89 1.997 . S
O97 C95 1.235 . S
C98 O104 1.287 . S
C98 O105 1.255 . S
O99 Fe88 1.976 . S
O99 C106 1.287 . S
O100 Fe89 1.996 . S
O100 C106 1.255 . S
O101 Fe91 1.976 . S
O101 C96 1.287 . S
O102 Fe88 1.996 1_554 S
O102 C96 1.255 . S
C103 O107 1.295 1_554 S
C103 O108 1.235 1_565 S
O104 Fe89 1.976 1_545 S
O104 C98 1.287 . S
O105 Fe91 1.996 1_546 S
O105 C98 1.255 . S
C106 O99 1.287 . S
C106 O100 1.255 . S
O107 Fe89 2.002 . S
O107 C103 1.295 1_556 S
O108 Fe91 1.997 1_545 S
O108 C103 1.235 1_545 S
C109 O92 1.295 . S
C109 O93 1.235 . S
Fe110 O112 1.918 . S
Fe110 O115 1.997 . S
Fe110 O116 2.002 . S
Fe110 O121 1.976 . S
Fe110 O124 1.996 . S
Fe111 O112 1.918 1_554 S
Fe111 O119 1.997 . S
Fe111 O122 1.996 1_554 S
Fe111 O126 1.976 . S
Fe111 O129 2.002 . S
O112 Fe110 1.918 . S
O112 Fe111 1.918 1_556 S
O112 Fe113 1.918 . S
Fe113 O112 1.918 . S
Fe113 O114 2.002 1_565 S
Fe113 O123 1.976 . S
Fe113 O127 1.996 1_556 S
Fe113 O130 1.997 1_556 S
O114 Fe113 2.002 1_545 S
O114 C131 1.295 . S
O115 Fe110 1.997 . S
O115 C131 1.235 1_565 S
O116 Fe110 2.002 . S
O116 C117 1.295 1_556 S
C117 O116 1.295 1_554 S
C117 O119 1.235 . S
C118 O123 1.287 . S
C118 O124 1.255 . S
O119 Fe111 1.997 . S
O119 C117 1.235 . S
C120 O126 1.287 1_655 S
C120 O127 1.255 1_655 S
O121 Fe110 1.976 . S
O121 C128 1.287 . S
O122 Fe111 1.996 1_556 S
O122 C128 1.255 . S
O123 Fe113 1.976 . S
O123 C118 1.287 . S
O124 Fe110 1.996 . S
O124 C118 1.255 . S
C125 O129 1.295 . S
C125 O130 1.235 . S
O126 Fe111 1.976 . S
O126 C120 1.287 1_455 S
O127 Fe113 1.996 1_554 S
O127 C120 1.255 1_455 S
C128 O121 1.287 . S
C128 O122 1.255 . S
O129 Fe111 2.002 . S
O129 C125 1.295 . S
O130 Fe113 1.997 1_554 S
O130 C125 1.235 . S
C131 O114 1.295 . S
C131 O115 1.235 1_545 S
Fe132 O134 1.918 . S
Fe132 O137 1.997 . S
Fe132 O138 2.002 1_565 S
Fe132 O143 1.976 . S
Fe132 O146 1.996 . S
Fe133 O134 1.918 . S
Fe133 O141 1.997 . S
Fe133 O144 1.996 . S
Fe133 O148 1.976 . S
Fe133 O151 2.002 . S
O134 Fe132 1.918 . S
O134 Fe133 1.918 . S
O134 Fe135 1.918 . S
Fe135 O134 1.918 . S
Fe135 O136 2.002 . S
Fe135 O145 1.976 . S
Fe135 O149 1.996 . S
Fe135 O152 1.997 . S
O136 Fe135 2.002 . S
O136 C153 1.295 . S
O137 Fe132 1.997 . S
O137 C153 1.235 . S
O138 Fe132 2.002 1_545 S
O138 C139 1.297 . S
C139 O138 1.297 . S
C139 O141 1.227 1_545 S
C140 O145 1.287 . S
C140 O146 1.255 . S
O141 Fe133 1.997 . S
O141 C139 1.227 1_565 S
C142 O148 1.287 . S
C142 O149 1.255 . S
O143 Fe132 1.976 . S
O143 C150 1.287 . S
O144 Fe133 1.996 . S
O144 C150 1.255 . S
O145 Fe135 1.976 . S
O145 C140 1.287 . S
O146 Fe132 1.996 . S
O146 C140 1.255 . S
C147 O151 1.295 . S
C147 O152 1.235 . S
O148 Fe133 1.976 . S
O148 C142 1.287 . S
O149 Fe135 1.996 . S
O149 C142 1.255 . S
C150 O143 1.287 . S
C150 O144 1.255 . S
O151 Fe133 2.002 . S
O151 C147 1.295 . S
O152 Fe135 1.997 . S
O152 C147 1.235 . S
C153 O136 1.295 . S
C153 O137 1.235 . S
Fe154 O156 1.918 . S
Fe154 O159 1.997 1_565 S
Fe154 O160 2.002 . S
Fe154 O165 1.976 . S
Fe154 O168 1.996 1_565 S
Fe155 O156 1.918 . S
Fe155 O163 1.997 . S
Fe155 O166 1.996 . S
Fe155 O170 1.976 . S
Fe155 O173 2.002 . S
O156 Fe154 1.918 . S
O156 Fe155 1.918 . S
O156 Fe157 1.918 . S
Fe157 O156 1.918 . S
Fe157 O158 2.002 . S
Fe157 O167 1.976 1_565 S
Fe157 O171 1.996 . S
Fe157 O174 1.997 . S
O158 Fe157 2.002 . S
O158 C175 1.295 . S
O159 Fe154 1.997 1_545 S
O159 C175 1.235 1_545 S
O160 Fe154 2.002 . S
O160 C161 1.295 . S
C161 O160 1.295 . S
C161 O163 1.235 . S
C162 O167 1.287 . S
C162 O168 1.255 . S
O163 Fe155 1.997 . S
O163 C161 1.235 . S
C164 O170 1.287 . S
C164 O171 1.255 . S
O165 Fe154 1.976 . S
O165 C172 1.287 1_455 S
O166 Fe155 1.996 . S
O166 C172 1.255 1_455 S
O167 Fe157 1.976 1_545 S
O167 C162 1.287 . S
O168 Fe154 1.996 1_545 S
O168 C162 1.255 . S
C169 O173 1.295 . S
C169 O174 1.235 . S
O170 Fe155 1.976 . S
O170 C164 1.287 . S
O171 Fe157 1.996 . S
O171 C164 1.255 . S
C172 O165 1.287 1_655 S
C172 O166 1.255 1_655 S
O173 Fe155 2.002 . S
O173 C169 1.295 . S
O174 Fe157 1.997 . S
O174 C169 1.235 . S
C175 O158 1.295 . S
C175 O159 1.235 1_565 S
Fe176 O178 1.918 . S
Fe176 O181 1.997 . S
Fe176 O182 2.002 . S
Fe176 O187 1.976 . S
Fe176 O190 1.996 . S
Fe177 O178 1.918 . S
Fe177 O185 1.997 . S
Fe177 O188 1.996 . S
Fe177 O192 1.976 . S
Fe177 O195 2.002 . S
O178 Fe176 1.918 . S
O178 Fe177 1.918 . S
O178 Fe179 1.918 . S
Fe179 O178 1.918 . S
Fe179 O180 2.002 . S
Fe179 O189 1.976 . S
Fe179 O193 1.996 . S
Fe179 O196 1.997 . S
O180 Fe179 2.002 . S
O180 C197 1.295 . S
O181 Fe176 1.997 . S
O181 C197 1.235 . S
O182 Fe176 2.002 . S
O182 C183 1.295 . S
C183 O182 1.295 . S
C183 O185 1.235 . S
C184 O189 1.287 . S
C184 O190 1.255 . S
O185 Fe177 1.997 . S
O185 C183 1.235 . S
C186 O192 1.287 . S
C186 O193 1.255 . S
O187 Fe176 1.976 . S
O187 C194 1.287 . S
O188 Fe177 1.996 . S
O188 C194 1.255 . S
O189 Fe179 1.976 . S
O189 C184 1.287 . S
O190 Fe176 1.996 . S
O190 C184 1.255 . S
C191 O195 1.295 . S
C191 O196 1.235 . S
O192 Fe177 1.976 . S
O192 C186 1.287 . S
O193 Fe179 1.996 . S
O193 C186 1.255 . S
C194 O187 1.287 . S
C194 O188 1.255 . S
O195 Fe177 2.002 . S
O195 C191 1.295 . S
O196 Fe179 1.997 . S
O196 C191 1.235 . S
C197 O180 1.295 . S
C197 O181 1.235 . S
Fe198 O200 1.918 . S
Fe198 O203 1.997 . S
Fe198 O204 2.002 . S
Fe198 O209 1.976 . S
Fe198 O212 1.996 . S
Fe199 O200 1.918 . S
Fe199 O207 1.997 . S
Fe199 O210 1.996 . S
Fe199 O214 1.976 . S
Fe199 O217 2.002 . S
O200 Fe198 1.918 . S
O200 Fe199 1.918 . S
O200 Fe201 1.918 . S
Fe201 O200 1.918 . S
Fe201 O202 2.002 . S
Fe201 O211 1.976 . S
Fe201 O215 1.996 . S
Fe201 O218 1.997 . S
O202 Fe201 2.002 . S
O202 C219 1.295 . S
O203 Fe198 1.997 . S
O203 C219 1.235 . S
O204 Fe198 2.002 . S
O204 C205 1.295 . S
C205 O204 1.295 . S
C205 O207 1.235 . S
C206 O211 1.287 . S
C206 O212 1.255 . S
O207 Fe199 1.997 . S
O207 C205 1.235 . S
C208 O214 1.287 . S
C208 O215 1.255 . S
O209 Fe198 1.976 . S
O209 C216 1.287 1_655 S
O210 Fe199 1.996 . S
O210 C216 1.255 1_655 S
O211 Fe201 1.976 . S
O211 C206 1.287 . S
O212 Fe198 1.996 . S
O212 C206 1.255 . S
C213 O217 1.295 . S
C213 O218 1.235 . S
O214 Fe199 1.976 . S
O214 C208 1.287 . S
O215 Fe201 1.996 . S
O215 C208 1.255 . S
C216 O209 1.287 1_455 S
C216 O210 1.255 1_455 S
O217 Fe199 2.002 . S
O217 C213 1.295 . S
O218 Fe201 1.997 . S
O218 C213 1.235 . S
C219 O202 1.295 . S
C219 O203 1.235 . S
Fe220 O222 1.918 . S
Fe220 O225 1.997 . S
Fe220 O226 2.002 . S
Fe220 O231 1.976 . S
Fe220 O234 1.996 . S
Fe221 O222 1.918 . S
Fe221 O229 1.997 . S
Fe221 O232 1.996 . S
Fe221 O236 1.976 . S
Fe221 O239 2.002 . S
O222 Fe220 1.918 . S
O222 Fe221 1.918 . S
O222 Fe223 1.918 . S
Fe223 O222 1.918 . S
Fe223 O224 2.002 . S
Fe223 O233 1.976 . S
Fe223 O237 1.996 . S
Fe223 O240 1.997 . S
O224 Fe223 2.002 . S
O224 C241 1.295 . S
O225 Fe220 1.997 . S
O225 C241 1.235 . S
O226 Fe220 2.002 . S
O226 C227 1.295 . S
C227 O226 1.295 . S
C227 O229 1.235 . S
C228 O233 1.287 . S
C228 O234 1.255 . S
O229 Fe221 1.997 . S
O229 C227 1.235 . S
C230 O236 1.287 . S
C230 O237 1.255 . S
O231 Fe220 1.976 . S
O231 C238 1.287 . S
O232 Fe221 1.996 . S
O232 C238 1.255 . S
O233 Fe223 1.976 . S
O233 C228 1.287 . S
O234 Fe220 1.996 . S
O234 C228 1.255 . S
C235 O239 1.295 . S
C235 O240 1.235 . S
O236 Fe221 1.976 . S
O236 C230 1.287 . S
O237 Fe223 1.996 . S
O237 C230 1.255 . S
C238 O231 1.287 . S
C238 O232 1.255 . S
O239 Fe221 2.002 . S
O239 C235 1.295 . S
O240 Fe223 1.997 . S
O240 C235 1.235 . S
C241 O224 1.295 . S
C241 O225 1.235 . S
Fe242 O244 1.918 . S
Fe242 O247 1.997 . S
Fe242 O248 2.002 . S
Fe242 O253 1.976 . S
Fe242 O256 1.996 . S
Fe243 O244 1.918 . S
Fe243 O251 1.997 . S
Fe243 O254 1.996 . S
Fe243 O258 1.976 . S
Fe243 O261 2.002 . S
O244 Fe242 1.918 . S
O244 Fe243 1.918 . S
O244 Fe245 1.918 . S
Fe245 O244 1.918 . S
Fe245 O246 2.002 . S
Fe245 O255 1.976 . S
Fe245 O259 1.996 . S
Fe245 O262 1.997 . S
O246 Fe245 2.002 . S
O246 C263 1.295 . S
O247 Fe242 1.997 . S
O247 C263 1.235 . S
O248 Fe242 2.002 . S
O248 C249 1.295 . S
C249 O248 1.295 . S
C249 O251 1.235 . S
C250 O255 1.287 1_455 S
C250 O256 1.255 1_455 S
O251 Fe243 1.997 . S
O251 C249 1.235 . S
C252 O258 1.287 . S
C252 O259 1.255 . S
O253 Fe242 1.976 . S
O253 C260 1.287 . S
O254 Fe243 1.996 . S
O254 C260 1.255 . S
O255 Fe245 1.976 . S
O255 C250 1.287 1_655 S
O256 Fe242 1.996 . S
O256 C250 1.255 1_655 S
C257 O261 1.295 . S
C257 O262 1.235 . S
O258 Fe243 1.976 . S
O258 C252 1.287 . S
O259 Fe245 1.996 . S
O259 C252 1.255 . S
C260 O253 1.287 . S
C260 O254 1.255 . S
O261 Fe243 2.002 . S
O261 C257 1.295 . S
O262 Fe245 1.997 . S
O262 C257 1.235 . S
C263 O246 1.295 . S
C263 O247 1.235 . S
Fe264 O266 1.918 . S
Fe264 O269 1.997 . S
Fe264 O270 2.002 . S
Fe264 O275 1.976 . S
Fe264 O278 1.996 . S
Fe265 O266 1.918 . S
Fe265 O273 1.997 . S
Fe265 O276 1.996 . S
Fe265 O280 1.976 . S
Fe265 O283 2.002 . S
O266 Fe264 1.918 . S
O266 Fe265 1.918 . S
O266 Fe267 1.918 . S
Fe267 O266 1.918 . S
Fe267 O268 2.002 . S
Fe267 O277 1.976 . S
Fe267 O281 1.996 . S
Fe267 O284 1.997 . S
O268 Fe267 2.002 . S
O268 C285 1.295 . S
O269 Fe264 1.997 . S
O269 C285 1.235 . S
O270 Fe264 2.002 . S
O270 C271 1.295 . S
C271 O270 1.295 . S
C271 O273 1.235 . S
C272 O277 1.287 . S
C272 O278 1.255 . S
O273 Fe265 1.997 . S
O273 C271 1.235 . S
C274 O280 1.287 . S
C274 O281 1.255 . S
O275 Fe264 1.976 . S
O275 C282 1.287 . S
O276 Fe265 1.996 . S
O276 C282 1.255 . S
O277 Fe267 1.976 . S
O277 C272 1.287 . S
O278 Fe264 1.996 . S
O278 C272 1.255 . S
C279 O283 1.295 . S
C279 O284 1.235 . S
O280 Fe265 1.976 . S
O280 C274 1.287 . S
O281 Fe267 1.996 . S
O281 C274 1.255 . S
C282 O275 1.287 . S
C282 O276 1.255 . S
O283 Fe265 2.002 . S
O283 C279 1.295 . S
O284 Fe267 1.997 . S
O284 C279 1.235 . S
C285 O268 1.295 . S
C285 O269 1.235 . S
Fe286 O288 1.918 . S
Fe286 O291 1.997 . S
Fe286 O292 2.002 . S
Fe286 O297 1.976 . S
Fe286 O300 1.996 . S
Fe287 O288 1.918 . S
Fe287 O295 1.997 . S
Fe287 O298 1.996 . S
Fe287 O302 1.976 . S
Fe287 O305 2.002 . S
O288 Fe286 1.918 . S
O288 Fe287 1.918 . S
O288 Fe289 1.918 . S
Fe289 O288 1.918 . S
Fe289 O290 2.002 . S
Fe289 O299 1.976 . S
Fe289 O303 1.996 . S
Fe289 O306 1.997 . S
O290 Fe289 2.002 . S
O290 C307 1.295 . S
O291 Fe286 1.997 . S
O291 C307 1.235 . S
O292 Fe286 2.002 . S
O292 C293 1.295 . S
C293 O292 1.295 . S
C293 O295 1.235 . S
C294 O299 1.287 . S
C294 O300 1.255 . S
O295 Fe287 1.997 . S
O295 C293 1.235 . S
C296 O302 1.287 . S
C296 O303 1.255 . S
O297 Fe286 1.976 . S
O297 C304 1.287 1_455 S
O298 Fe287 1.996 . S
O298 C304 1.255 1_455 S
O299 Fe289 1.976 . S
O299 C294 1.287 . S
O300 Fe286 1.996 . S
O300 C294 1.255 . S
C301 O305 1.295 . S
C301 O306 1.235 . S
O302 Fe287 1.976 . S
O302 C296 1.287 . S
O303 Fe289 1.996 . S
O303 C296 1.255 . S
C304 O297 1.287 1_655 S
C304 O298 1.255 1_655 S
O305 Fe287 2.002 . S
O305 C301 1.295 . S
O306 Fe289 1.997 . S
O306 C301 1.235 . S
C307 O290 1.295 . S
C307 O291 1.235 . S
Fe308 O310 1.918 . S
Fe308 O313 1.997 . S
Fe308 O314 2.002 . S
Fe308 O319 1.976 . S
Fe308 O322 1.996 . S
Fe309 O310 1.918 . S
Fe309 O317 1.997 . S
Fe309 O320 1.996 . S
Fe309 O324 1.976 . S
Fe309 O327 2.002 . S
O310 Fe308 1.918 . S
O310 Fe309 1.918 . S
O310 Fe311 1.918 . S
Fe311 O310 1.918 . S
Fe311 O312 2.002 . S
Fe311 O321 1.976 . S
Fe311 O325 1.996 . S
Fe311 O328 1.997 . S
O312 Fe311 2.002 . S
O312 C329 1.295 . S
O313 Fe308 1.997 . S
O313 C329 1.235 . S
O314 Fe308 2.002 . S
O314 C315 1.295 . S
C315 O314 1.295 . S
C315 O317 1.235 . S
C316 O321 1.287 . S
C316 O322 1.255 . S
O317 Fe309 1.997 . S
O317 C315 1.235 . S
C318 O324 1.287 . S
C318 O325 1.255 . S
O319 Fe308 1.976 . S
O319 C326 1.287 . S
O320 Fe309 1.996 . S
O320 C326 1.255 . S
O321 Fe311 1.976 . S
O321 C316 1.287 . S
O322 Fe308 1.996 . S
O322 C316 1.255 . S
C323 O327 1.295 . S
C323 O328 1.235 . S
O324 Fe309 1.976 . S
O324 C318 1.287 . S
O325 Fe311 1.996 . S
O325 C318 1.255 . S
C326 O319 1.287 . S
C326 O320 1.255 . S
O327 Fe309 2.002 . S
O327 C323 1.295 . S
O328 Fe311 1.997 . S
O328 C323 1.235 . S
C329 O312 1.295 . S
C329 O313 1.235 . S
Fe330 O332 1.918 . S
Fe330 O335 1.997 . S
Fe330 O336 2.002 . S
Fe330 O341 1.976 . S
Fe330 O344 1.996 . S
Fe331 O332 1.918 . S
Fe331 O339 1.997 . S
Fe331 O342 1.996 . S
Fe331 O346 1.976 . S
Fe331 O349 2.002 . S
O332 Fe330 1.918 . S
O332 Fe331 1.918 . S
O332 Fe333 1.918 . S
Fe333 O332 1.918 . S
Fe333 O334 2.002 . S
Fe333 O343 1.976 . S
Fe333 O347 1.996 . S
Fe333 O350 1.997 . S
O334 Fe333 2.002 . S
O334 C351 1.295 . S
O335 Fe330 1.997 . S
O335 C351 1.235 . S
O336 Fe330 2.002 . S
O336 C337 1.295 . S
C337 O336 1.295 . S
C337 O339 1.235 . S
C338 O343 1.287 . S
C338 O344 1.255 . S
O339 Fe331 1.997 . S
O339 C337 1.235 . S
C340 O346 1.287 . S
C340 O347 1.255 . S
O341 Fe330 1.976 . S
O341 C348 1.287 1_455 S
O342 Fe331 1.996 . S
O342 C348 1.255 1_455 S
O343 Fe333 1.976 . S
O343 C338 1.287 . S
O344 Fe330 1.996 . S
O344 C338 1.255 . S
C345 O349 1.295 . S
C345 O350 1.235 . S
O346 Fe331 1.976 . S
O346 C340 1.287 . S
O347 Fe333 1.996 . S
O347 C340 1.255 . S
C348 O341 1.287 1_655 S
C348 O342 1.255 1_655 S
O349 Fe331 2.002 . S
O349 C345 1.295 . S
O350 Fe333 1.997 . S
O350 C345 1.235 . S
C351 O334 1.295 . S
C351 O335 1.235 . S
Fe352 O354 1.918 . S
Fe352 O357 1.997 . S
Fe352 O358 2.002 . S
Fe352 O363 1.976 . S
Fe352 O366 1.996 . S
Fe353 O354 1.918 . S
Fe353 O361 1.997 . S
Fe353 O364 1.996 . S
Fe353 O368 1.976 1_545 S
Fe353 O371 2.002 . S
O354 Fe352 1.918 . S
O354 Fe353 1.918 . S
O354 Fe355 1.918 . S
Fe355 O354 1.918 . S
Fe355 O356 2.002 . S
Fe355 O365 1.976 . S
Fe355 O369 1.996 1_545 S
Fe355 O372 1.997 1_545 S
O356 Fe355 2.002 . S
O356 C373 1.295 . S
O357 Fe352 1.997 . S
O357 C373 1.235 . S
O358 Fe352 2.002 . S
O358 C359 1.295 . S
C359 O358 1.295 . S
C359 O361 1.235 . S
C360 O365 1.287 . S
C360 O366 1.255 . S
O361 Fe353 1.997 . S
O361 C359 1.235 . S
C362 O368 1.287 . S
C362 O369 1.255 . S
O363 Fe352 1.976 . S
O363 C370 1.287 . S
O364 Fe353 1.996 . S
O364 C370 1.255 . S
O365 Fe355 1.976 . S
O365 C360 1.287 . S
O366 Fe352 1.996 . S
O366 C360 1.255 . S
C367 O371 1.295 . S
C367 O372 1.235 1_545 S
O368 Fe353 1.976 1_565 S
O368 C362 1.287 . S
O369 Fe355 1.996 1_565 S
O369 C362 1.255 . S
C370 O363 1.287 . S
C370 O364 1.255 . S
O371 Fe353 2.002 . S
O371 C367 1.295 . S
O372 Fe355 1.997 1_565 S
O372 C367 1.235 1_565 S
C373 O356 1.295 . S
C373 O357 1.235 . S
Fe374 O376 1.918 . S
Fe374 O379 1.997 . S
Fe374 O380 2.002 . S
Fe374 O385 1.976 . S
Fe374 O388 1.996 . S
Fe375 O376 1.918 . S
Fe375 O383 1.997 . S
Fe375 O386 1.996 . S
Fe375 O390 1.976 . S
Fe375 O393 2.002 1_545 S
O376 Fe374 1.918 . S
O376 Fe375 1.918 . S
O376 Fe377 1.918 . S
Fe377 O376 1.918 . S
Fe377 O378 2.002 . S
Fe377 O387 1.976 . S
Fe377 O391 1.996 . S
Fe377 O394 1.997 . S
O378 Fe377 2.002 . S
O378 C395 1.295 . S
O379 Fe374 1.997 . S
O379 C395 1.235 . S
O380 Fe374 2.002 . S
O380 C381 1.295 . S
C381 O380 1.295 . S
C381 O383 1.235 . S
C382 O387 1.287 . S
C382 O388 1.255 . S
O383 Fe375 1.997 . S
O383 C381 1.235 . S
C384 O390 1.287 . S
C384 O391 1.255 . S
O385 Fe374 1.976 . S
O385 C392 1.287 . S
O386 Fe375 1.996 . S
O386 C392 1.255 . S
O387 Fe377 1.976 . S
O387 C382 1.287 . S
O388 Fe374 1.996 . S
O388 C382 1.255 . S
C389 O393 1.294 1_545 S
C389 O394 1.239 . S
O390 Fe375 1.976 . S
O390 C384 1.287 . S
O391 Fe377 1.996 . S
O391 C384 1.255 . S
C392 O385 1.287 . S
C392 O386 1.255 . S
O393 Fe375 2.002 1_565 S
O393 C389 1.294 1_565 S
O394 Fe377 1.997 . S
O394 C389 1.239 . S
C395 O378 1.295 . S
C395 O379 1.235 . S
Fe396 O398 1.918 . S
Fe396 O401 1.997 . S
Fe396 O402 2.002 . S
Fe396 O407 1.976 . S
Fe396 O410 1.996 . S
Fe397 O398 1.918 . S
Fe397 O405 1.997 . S
Fe397 O408 1.996 . S
Fe397 O412 1.976 . S
Fe397 O415 2.002 . S
O398 Fe396 1.918 . S
O398 Fe397 1.918 . S
O398 Fe399 1.918 . S
Fe399 O398 1.918 . S
Fe399 O400 2.002 . S
Fe399 O409 1.976 . S
Fe399 O413 1.996 1_545 S
Fe399 O416 1.997 . S
O400 Fe399 2.002 . S
O400 C417 1.295 . S
O401 Fe396 1.997 . S
O401 C417 1.235 . S
O402 Fe396 2.002 . S
O402 C403 1.295 . S
C403 O402 1.295 . S
C403 O405 1.235 . S
C404 O409 1.287 . S
C404 O410 1.255 . S
O405 Fe397 1.997 . S
O405 C403 1.235 . S
C406 O412 1.287 1_565 S
C406 O413 1.255 . S
O407 Fe396 1.976 . S
O407 C414 1.287 . S
O408 Fe397 1.996 . S
O408 C414 1.255 . S
O409 Fe399 1.976 . S
O409 C404 1.287 . S
O410 Fe396 1.996 . S
O410 C404 1.255 . S
C411 O415 1.295 . S
C411 O416 1.235 . S
O412 Fe397 1.976 . S
O412 C406 1.287 1_545 S
O413 Fe399 1.996 1_565 S
O413 C406 1.255 . S
C414 O407 1.287 . S
C414 O408 1.255 . S
O415 Fe397 2.002 . S
O415 C411 1.295 . S
O416 Fe399 1.997 . S
O416 C411 1.235 . S
C417 O400 1.295 . S
C417 O401 1.235 . S
Fe418 O420 1.918 . S
Fe418 O423 1.997 . S
Fe418 O424 2.002 . S
Fe418 O429 1.976 . S
Fe418 O432 1.996 . S
Fe419 O420 1.918 . S
Fe419 O427 1.997 . S
Fe419 O430 1.996 . S
Fe419 O434 1.976 1_545 S
Fe419 O437 2.002 . S
O420 Fe418 1.918 . S
O420 Fe419 1.918 . S
O420 Fe421 1.918 . S
Fe421 O420 1.918 . S
Fe421 O422 2.002 . S
Fe421 O431 1.976 . S
Fe421 O435 1.996 1_545 S
Fe421 O438 1.997 1_545 S
O422 Fe421 2.002 . S
O422 C439 1.295 . S
O423 Fe418 1.997 . S
O423 C439 1.235 . S
O424 Fe418 2.002 . S
O424 C425 1.295 . S
C425 O424 1.295 . S
C425 O427 1.235 . S
C426 O431 1.287 . S
C426 O432 1.255 . S
O427 Fe419 1.997 . S
O427 C425 1.235 . S
C428 O434 1.287 . S
C428 O435 1.255 . S
O429 Fe418 1.976 . S
O429 C436 1.287 . S
O430 Fe419 1.996 . S
O430 C436 1.255 . S
O431 Fe421 1.976 . S
O431 C426 1.287 . S
O432 Fe418 1.996 . S
O432 C426 1.255 . S
C433 O437 1.295 . S
C433 O438 1.235 1_545 S
O434 Fe419 1.976 1_565 S
O434 C428 1.287 . S
O435 Fe421 1.996 1_565 S
O435 C428 1.255 . S
C436 O429 1.287 . S
C436 O430 1.255 . S
O437 Fe419 2.002 . S
O437 C433 1.295 . S
O438 Fe421 1.997 1_565 S
O438 C433 1.235 1_565 S
C439 O422 1.295 . S
C439 O423 1.235 . S
Fe440 O442 1.918 . S
Fe440 O445 1.997 . S
Fe440 O446 2.002 . S
Fe440 O451 1.976 . S
Fe440 O454 1.996 . S
Fe441 O442 1.918 . S
Fe441 O449 1.997 . S
Fe441 O452 1.996 . S
Fe441 O456 1.976 1_565 S
Fe441 O459 2.002 . S
O442 Fe440 1.918 . S
O442 Fe441 1.918 . S
O442 Fe443 1.918 . S
Fe443 O442 1.918 . S
Fe443 O444 2.002 . S
Fe443 O453 1.976 . S
Fe443 O457 1.996 1_565 S
Fe443 O460 1.997 1_565 S
O444 Fe443 2.002 . S
O444 C461 1.295 . S
O445 Fe440 1.997 . S
O445 C461 1.235 . S
O446 Fe440 2.002 . S
O446 C447 1.295 . S
C447 O446 1.295 . S
C447 O449 1.235 . S
C448 O453 1.287 . S
C448 O454 1.255 . S
O449 Fe441 1.997 . S
O449 C447 1.235 . S
C450 O456 1.287 . S
C450 O457 1.255 . S
O451 Fe440 1.976 . S
O451 C458 1.287 . S
O452 Fe441 1.996 . S
O452 C458 1.255 . S
O453 Fe443 1.976 . S
O453 C448 1.287 . S
O454 Fe440 1.996 . S
O454 C448 1.255 . S
C455 O459 1.295 . S
C455 O460 1.235 1_565 S
O456 Fe441 1.976 1_545 S
O456 C450 1.287 . S
O457 Fe443 1.996 1_545 S
O457 C450 1.255 . S
C458 O451 1.287 . S
C458 O452 1.255 . S
O459 Fe441 2.002 . S
O459 C455 1.295 . S
O460 Fe443 1.997 1_545 S
O460 C455 1.235 1_545 S
C461 O444 1.295 . S
C461 O445 1.235 . S
Fe462 O464 1.918 . S
Fe462 O467 1.997 . S
Fe462 O468 2.002 1_565 S
Fe462 O473 1.976 . S
Fe462 O476 1.996 . S
Fe463 O464 1.918 . S
Fe463 O471 1.997 . S
Fe463 O474 1.996 . S
Fe463 O478 1.976 . S
Fe463 O481 2.002 . S
O464 Fe462 1.918 . S
O464 Fe463 1.918 . S
O464 Fe465 1.918 . S
Fe465 O464 1.918 . S
Fe465 O466 2.002 . S
Fe465 O475 1.976 . S
Fe465 O479 1.996 . S
Fe465 O482 1.997 . S
O466 Fe465 2.002 . S
O466 C483 1.295 . S
O467 Fe462 1.997 . S
O467 C483 1.235 . S
O468 Fe462 2.002 1_545 S
O468 C469 1.295 . S
C469 O468 1.295 . S
C469 O471 1.235 1_545 S
C470 O475 1.287 . S
C470 O476 1.255 . S
O471 Fe463 1.997 . S
O471 C469 1.235 1_565 S
C472 O478 1.287 . S
C472 O479 1.255 . S
O473 Fe462 1.976 . S
O473 C480 1.287 . S
O474 Fe463 1.996 . S
O474 C480 1.255 . S
O475 Fe465 1.976 . S
O475 C470 1.287 . S
O476 Fe462 1.996 . S
O476 C470 1.255 . S
C477 O481 1.295 . S
C477 O482 1.235 . S
O478 Fe463 1.976 . S
O478 C472 1.287 . S
O479 Fe465 1.996 . S
O479 C472 1.255 . S
C480 O473 1.287 . S
C480 O474 1.255 . S
O481 Fe463 2.002 . S
O481 C477 1.295 . S
O482 Fe465 1.997 . S
O482 C477 1.235 . S
C483 O466 1.295 . S
C483 O467 1.235 . S
Fe484 O486 1.918 . S
Fe484 O489 1.997 . S
Fe484 O490 2.002 1_565 S
Fe484 O495 1.976 . S
Fe484 O498 1.996 . S
Fe485 O486 1.918 . S
Fe485 O493 1.997 . S
Fe485 O496 1.996 . S
Fe485 O500 1.976 . S
Fe485 O503 2.002 . S
O486 Fe484 1.918 . S
O486 Fe485 1.918 . S
O486 Fe487 1.918 . S
Fe487 O486 1.918 . S
Fe487 O488 2.002 . S
Fe487 O497 1.976 . S
Fe487 O501 1.996 . S
Fe487 O504 1.997 . S
O488 Fe487 2.002 . S
O488 C505 1.295 . S
O489 Fe484 1.997 . S
O489 C505 1.235 . S
O490 Fe484 2.002 1_545 S
O490 C491 1.297 . S
C491 O490 1.297 . S
C491 O493 1.227 1_545 S
C492 O497 1.287 . S
C492 O498 1.255 . S
O493 Fe485 1.997 . S
O493 C491 1.227 1_565 S
C494 O500 1.287 . S
C494 O501 1.255 . S
O495 Fe484 1.976 . S
O495 C502 1.287 . S
O496 Fe485 1.996 . S
O496 C502 1.255 . S
O497 Fe487 1.976 . S
O497 C492 1.287 . S
O498 Fe484 1.996 . S
O498 C492 1.255 . S
C499 O503 1.295 . S
C499 O504 1.235 . S
O500 Fe485 1.976 . S
O500 C494 1.287 . S
O501 Fe487 1.996 . S
O501 C494 1.255 . S
C502 O495 1.287 . S
C502 O496 1.255 . S
O503 Fe485 2.002 . S
O503 C499 1.295 . S
O504 Fe487 1.997 . S
O504 C499 1.235 . S
C505 O488 1.295 . S
C505 O489 1.235 . S
Fe506 O508 1.918 . S
Fe506 O511 1.997 1_565 S
Fe506 O512 2.002 . S
Fe506 O517 1.976 . S
Fe506 O520 1.996 1_565 S
Fe507 O508 1.918 . S
Fe507 O515 1.997 . S
Fe507 O518 1.996 . S
Fe507 O522 1.976 . S
Fe507 O525 2.002 . S
O508 Fe506 1.918 . S
O508 Fe507 1.918 . S
O508 Fe509 1.918 . S
Fe509 O508 1.918 . S
Fe509 O510 2.002 . S
Fe509 O519 1.976 1_565 S
Fe509 O523 1.996 . S
Fe509 O526 1.997 . S
O510 Fe509 2.002 . S
O510 C527 1.295 . S
O511 Fe506 1.997 1_545 S
O511 C527 1.235 1_545 S
O512 Fe506 2.002 . S
O512 C513 1.295 . S
C513 O512 1.295 . S
C513 O515 1.235 . S
C514 O519 1.287 . S
C514 O520 1.255 . S
O515 Fe507 1.997 . S
O515 C513 1.235 . S
C516 O522 1.287 . S
C516 O523 1.255 . S
O517 Fe506 1.976 . S
O517 C524 1.287 . S
O518 Fe507 1.996 . S
O518 C524 1.255 . S
O519 Fe509 1.976 1_545 S
O519 C514 1.287 . S
O520 Fe506 1.996 1_545 S
O520 C514 1.255 . S
C521 O525 1.295 . S
C521 O526 1.235 . S
O522 Fe507 1.976 . S
O522 C516 1.287 . S
O523 Fe509 1.996 . S
O523 C516 1.255 . S
C524 O517 1.287 . S
C524 O518 1.255 . S
O525 Fe507 2.002 . S
O525 C521 1.295 . S
O526 Fe509 1.997 . S
O526 C521 1.235 . S
C527 O510 1.295 . S
C527 O511 1.235 1_565 S
Fe528 O530 1.918 . S
Fe528 O533 1.997 1_554 S
Fe528 O534 2.002 . S
Fe528 O539 1.976 . S
Fe528 O542 1.996 1_554 S
Fe529 O530 1.918 . S
Fe529 O537 1.997 . S
Fe529 O540 1.996 . S
Fe529 O544 1.976 . S
Fe529 O547 2.002 . S
O530 Fe528 1.918 . S
O530 Fe529 1.918 . S
O530 Fe531 1.918 1_554 S
Fe531 O530 1.918 1_556 S
Fe531 O532 2.002 . S
Fe531 O541 1.976 . S
Fe531 O545 1.996 1_556 S
Fe531 O548 1.997 . S
O532 Fe531 2.002 . S
O532 C549 1.295 . S
O533 Fe528 1.997 1_556 S
O533 C549 1.235 . S
O534 Fe528 2.002 . S
O534 C535 1.295 . S
C535 O534 1.295 . S
C535 O537 1.235 . S
C536 O541 1.287 . S
C536 O542 1.255 . S
O537 Fe529 1.997 . S
O537 C535 1.235 . S
C538 O544 1.287 . S
C538 O545 1.255 . S
O539 Fe528 1.976 . S
O539 C546 1.287 . S
O540 Fe529 1.996 . S
O540 C546 1.255 . S
O541 Fe531 1.976 . S
O541 C536 1.287 . S
O542 Fe528 1.996 1_556 S
O542 C536 1.255 . S
C543 O547 1.295 1_556 S
C543 O548 1.235 . S
O544 Fe529 1.976 . S
O544 C538 1.287 . S
O545 Fe531 1.996 1_554 S
O545 C538 1.255 . S
C546 O539 1.287 . S
C546 O540 1.255 . S
O547 Fe529 2.002 . S
O547 C543 1.295 1_554 S
O548 Fe531 1.997 . S
O548 C543 1.235 . S
C549 O532 1.295 . S
C549 O533 1.235 . S
Fe550 O552 1.918 1_556 S
Fe550 O555 1.997 . S
Fe550 O556 2.002 . S
Fe550 O561 1.976 . S
Fe550 O564 1.996 1_556 S
Fe551 O552 1.918 . S
Fe551 O559 1.997 1_554 S
Fe551 O562 1.996 1_554 S
Fe551 O566 1.976 . S
Fe551 O569 2.002 . S
O552 Fe550 1.918 1_554 S
O552 Fe551 1.918 . S
O552 Fe553 1.918 . S
Fe553 O552 1.918 . S
Fe553 O554 2.002 . S
Fe553 O563 1.976 . S
Fe553 O567 1.996 . S
Fe553 O570 1.997 . S
O554 Fe553 2.002 . S
O554 C571 1.295 1_554 S
O555 Fe550 1.997 . S
O555 C571 1.235 . S
O556 Fe550 2.002 . S
O556 C557 1.295 . S
C557 O556 1.295 . S
C557 O559 1.235 . S
C558 O563 1.287 . S
C558 O564 1.255 . S
O559 Fe551 1.997 1_556 S
O559 C557 1.235 . S
C560 O566 1.287 . S
C560 O567 1.255 . S
O561 Fe550 1.976 . S
O561 C568 1.287 . S
O562 Fe551 1.996 1_556 S
O562 C568 1.255 . S
O563 Fe553 1.976 . S
O563 C558 1.287 . S
O564 Fe550 1.996 1_554 S
O564 C558 1.255 . S
C565 O569 1.295 . S
C565 O570 1.235 . S
O566 Fe551 1.976 . S
O566 C560 1.287 . S
O567 Fe553 1.996 . S
O567 C560 1.255 . S
C568 O561 1.287 . S
C568 O562 1.255 . S
O569 Fe551 2.002 . S
O569 C565 1.295 . S
O570 Fe553 1.997 . S
O570 C565 1.235 . S
C571 O554 1.295 1_556 S
C571 O555 1.235 . S
Fe572 O574 1.918 . S
Fe572 O577 1.997 . S
Fe572 O578 2.002 . S
Fe572 O583 1.976 . S
Fe572 O586 1.996 . S
Fe573 O574 1.918 . S
Fe573 O581 1.997 . S
Fe573 O584 1.996 . S
Fe573 O588 1.976 . S
Fe573 O591 2.002 . S
O574 Fe572 1.918 . S
O574 Fe573 1.918 . S
O574 Fe575 1.918 . S
Fe575 O574 1.918 . S
Fe575 O576 2.002 . S
Fe575 O585 1.976 . S
Fe575 O589 1.996 . S
Fe575 O592 1.997 . S
O576 Fe575 2.002 . S
O576 C593 1.295 . S
O577 Fe572 1.997 . S
O577 C593 1.235 . S
O578 Fe572 2.002 . S
O578 C579 1.295 . S
C579 O578 1.295 . S
C579 O581 1.235 . S
C580 O585 1.287 . S
C580 O586 1.255 . S
O581 Fe573 1.997 . S
O581 C579 1.235 . S
C582 O588 1.287 . S
C582 O589 1.255 . S
O583 Fe572 1.976 . S
O583 C590 1.287 . S
O584 Fe573 1.996 . S
O584 C590 1.255 . S
O585 Fe575 1.976 . S
O585 C580 1.287 . S
O586 Fe572 1.996 . S
O586 C580 1.255 . S
C587 O591 1.295 . S
C587 O592 1.235 . S
O588 Fe573 1.976 . S
O588 C582 1.287 . S
O589 Fe575 1.996 . S
O589 C582 1.255 . S
C590 O583 1.287 . S
C590 O584 1.255 . S
O591 Fe573 2.002 . S
O591 C587 1.295 . S
O592 Fe575 1.997 . S
O592 C587 1.235 . S
C593 O576 1.295 . S
C593 O577 1.235 . S
Fe594 O596 1.918 . S
Fe594 O599 1.997 . S
Fe594 O600 2.002 . S
Fe594 O605 1.976 . S
Fe594 O608 1.996 . S
Fe595 O596 1.918 . S
Fe595 O603 1.997 . S
Fe595 O606 1.996 . S
Fe595 O610 1.976 . S
Fe595 O613 2.002 . S
O596 Fe594 1.918 . S
O596 Fe595 1.918 . S
O596 Fe597 1.918 . S
Fe597 O596 1.918 . S
Fe597 O598 2.002 . S
Fe597 O607 1.976 . S
Fe597 O611 1.996 . S
Fe597 O614 1.997 . S
O598 Fe597 2.002 . S
O598 C615 1.295 . S
O599 Fe594 1.997 . S
O599 C615 1.235 . S
O600 Fe594 2.002 . S
O600 C601 1.295 . S
C601 O600 1.295 . S
C601 O603 1.235 . S
C602 O607 1.287 . S
C602 O608 1.255 . S
O603 Fe595 1.997 . S
O603 C601 1.235 . S
C604 O610 1.287 . S
C604 O611 1.255 . S
O605 Fe594 1.976 . S
O605 C612 1.287 . S
O606 Fe595 1.996 . S
O606 C612 1.255 . S
O607 Fe597 1.976 . S
O607 C602 1.287 . S
O608 Fe594 1.996 . S
O608 C602 1.255 . S
C609 O613 1.295 . S
C609 O614 1.235 . S
O610 Fe595 1.976 . S
O610 C604 1.287 . S
O611 Fe597 1.996 . S
O611 C604 1.255 . S
C612 O605 1.287 . S
C612 O606 1.255 . S
O613 Fe595 2.002 . S
O613 C609 1.295 . S
O614 Fe597 1.997 . S
O614 C609 1.235 . S
C615 O598 1.295 . S
C615 O599 1.235 . S
Fe616 O618 1.918 . S
Fe616 O621 1.997 1_556 S
Fe616 O622 2.002 . S
Fe616 O627 1.976 . S
Fe616 O630 1.996 1_556 S
Fe617 O618 1.918 . S
Fe617 O625 1.997 . S
Fe617 O628 1.996 . S
Fe617 O632 1.976 . S
Fe617 O635 2.002 . S
O618 Fe616 1.918 . S
O618 Fe617 1.918 . S
O618 Fe619 1.918 1_556 S
Fe619 O618 1.918 1_554 S
Fe619 O620 2.002 . S
Fe619 O629 1.976 . S
Fe619 O633 1.996 1_554 S
Fe619 O636 1.997 . S
O620 Fe619 2.002 . S
O620 C637 1.295 . S
O621 Fe616 1.997 1_554 S
O621 C637 1.235 . S
O622 Fe616 2.002 . S
O622 C623 1.295 . S
C623 O622 1.295 . S
C623 O625 1.235 . S
C624 O629 1.287 . S
C624 O630 1.255 . S
O625 Fe617 1.997 . S
O625 C623 1.235 . S
C626 O632 1.287 . S
C626 O633 1.255 . S
O627 Fe616 1.976 . S
O627 C634 1.287 . S
O628 Fe617 1.996 . S
O628 C634 1.255 . S
O629 Fe619 1.976 . S
O629 C624 1.287 . S
O630 Fe616 1.996 1_554 S
O630 C624 1.255 . S
C631 O635 1.295 1_554 S
C631 O636 1.235 . S
O632 Fe617 1.976 . S
O632 C626 1.287 . S
O633 Fe619 1.996 1_556 S
O633 C626 1.255 . S
C634 O627 1.287 . S
C634 O628 1.255 . S
O635 Fe617 2.002 . S
O635 C631 1.295 1_556 S
O636 Fe619 1.997 . S
O636 C631 1.235 . S
C637 O620 1.295 . S
C637 O621 1.235 . S
Fe638 O640 1.918 . S
Fe638 O643 1.997 1_556 S
Fe638 O644 2.002 . S
Fe638 O649 1.976 . S
Fe638 O652 1.996 1_556 S
Fe639 O640 1.918 . S
Fe639 O647 1.997 . S
Fe639 O650 1.996 . S
Fe639 O654 1.976 . S
Fe639 O657 2.002 . S
O640 Fe638 1.918 . S
O640 Fe639 1.918 . S
O640 Fe641 1.918 1_556 S
Fe641 O640 1.918 1_554 S
Fe641 O642 2.002 . S
Fe641 O651 1.976 . S
Fe641 O655 1.996 1_554 S
Fe641 O658 1.997 . S
O642 Fe641 2.002 . S
O642 C659 1.295 . S
O643 Fe638 1.997 1_554 S
O643 C659 1.235 . S
O644 Fe638 2.002 . S
O644 C645 1.295 . S
C645 O644 1.295 . S
C645 O647 1.235 . S
C646 O651 1.287 . S
C646 O652 1.255 . S
O647 Fe639 1.997 . S
O647 C645 1.235 . S
C648 O654 1.287 . S
C648 O655 1.255 . S
O649 Fe638 1.976 . S
O649 C656 1.287 . S
O650 Fe639 1.996 . S
O650 C656 1.255 . S
O651 Fe641 1.976 . S
O651 C646 1.287 . S
O652 Fe638 1.996 1_554 S
O652 C646 1.255 . S
C653 O657 1.295 1_554 S
C653 O658 1.235 . S
O654 Fe639 1.976 . S
O654 C648 1.287 . S
O655 Fe641 1.996 1_556 S
O655 C648 1.255 . S
C656 O649 1.287 . S
C656 O650 1.255 . S
O657 Fe639 2.002 . S
O657 C653 1.295 1_556 S
O658 Fe641 1.997 . S
O658 C653 1.235 . S
C659 O642 1.295 . S
C659 O643 1.235 . S
Fe660 O662 1.918 . S
Fe660 O665 1.997 . S
Fe660 O666 2.002 . S
Fe660 O671 1.976 . S
Fe660 O674 1.996 . S
Fe661 O662 1.918 . S
Fe661 O669 1.997 . S
Fe661 O672 1.996 . S
Fe661 O676 1.976 . S
Fe661 O679 2.002 . S
O662 Fe660 1.918 . S
O662 Fe661 1.918 . S
O662 Fe663 1.918 . S
Fe663 O662 1.918 . S
Fe663 O664 2.002 . S
Fe663 O673 1.976 . S
Fe663 O677 1.996 . S
Fe663 O680 1.997 . S
O664 Fe663 2.002 . S
O664 C681 1.295 . S
O665 Fe660 1.997 . S
O665 C681 1.235 . S
O666 Fe660 2.002 . S
O666 C667 1.295 . S
C667 O666 1.295 . S
C667 O669 1.235 . S
C668 O673 1.287 . S
C668 O674 1.255 . S
O669 Fe661 1.997 . S
O669 C667 1.235 . S
C670 O676 1.287 . S
C670 O677 1.255 . S
O671 Fe660 1.976 . S
O671 C678 1.287 . S
O672 Fe661 1.996 . S
O672 C678 1.255 . S
O673 Fe663 1.976 . S
O673 C668 1.287 . S
O674 Fe660 1.996 . S
O674 C668 1.255 . S
C675 O679 1.295 . S
C675 O680 1.235 . S
O676 Fe661 1.976 . S
O676 C670 1.287 . S
O677 Fe663 1.996 . S
O677 C670 1.255 . S
C678 O671 1.287 . S
C678 O672 1.255 . S
O679 Fe661 2.002 . S
O679 C675 1.295 . S
O680 Fe663 1.997 . S
O680 C675 1.235 . S
C681 O664 1.295 . S
C681 O665 1.235 . S
Fe682 O684 1.918 . S
Fe682 O687 1.997 . S
Fe682 O688 2.002 . S
Fe682 O693 1.976 . S
Fe682 O696 1.996 . S
Fe683 O684 1.918 . S
Fe683 O691 1.997 . S
Fe683 O694 1.996 . S
Fe683 O698 1.976 . S
Fe683 O701 2.002 . S
O684 Fe682 1.918 . S
O684 Fe683 1.918 . S
O684 Fe685 1.918 . S
Fe685 O684 1.918 . S
Fe685 O686 2.002 . S
Fe685 O695 1.976 . S
Fe685 O699 1.996 . S
Fe685 O702 1.997 . S
O686 Fe685 2.002 . S
O686 C703 1.295 . S
O687 Fe682 1.997 . S
O687 C703 1.235 . S
O688 Fe682 2.002 . S
O688 C689 1.295 . S
C689 O688 1.295 . S
C689 O691 1.235 . S
C690 O695 1.287 . S
C690 O696 1.255 . S
O691 Fe683 1.997 . S
O691 C689 1.235 . S
C692 O698 1.287 . S
C692 O699 1.255 . S
O693 Fe682 1.976 . S
O693 C700 1.287 . S
O694 Fe683 1.996 . S
O694 C700 1.255 . S
O695 Fe685 1.976 . S
O695 C690 1.287 . S
O696 Fe682 1.996 . S
O696 C690 1.255 . S
C697 O701 1.295 . S
C697 O702 1.235 . S
O698 Fe683 1.976 . S
O698 C692 1.287 . S
O699 Fe685 1.996 . S
O699 C692 1.255 . S
C700 O693 1.287 . S
C700 O694 1.255 . S
O701 Fe683 2.002 . S
O701 C697 1.295 . S
O702 Fe685 1.997 . S
O702 C697 1.235 . S
C703 O686 1.295 . S
C703 O687 1.235 . S
C558 C18 1.446 . S
C538 C30 1.446 . S
C604 C51 1.495 . S
C579 C74 1.495 . S
C98 C648 1.441 . S
C128 C626 1.441 . S
C142 C692 1.464 . S
C670 C162 1.464 . S
C382 C186 1.446 . S
C362 C206 1.446 . S
C428 C227 1.495 . S
C403 C252 1.495 . S
C272 C472 1.441 . S
C450 C294 1.441 . S
C318 C514 1.464 . S
C494 C338 1.464 . S
C15 C439 2.384 . S
C404 C29 2.302 . S
C381 C52 2.301 . S
C73 C373 2.384 . S
C513 C109 2.313 . S
C505 C125 2.360 . S
C483 C153 2.359 . S
C461 C161 2.313 . S
C615 C197 2.384 . S
C205 C580 2.301 . S
C228 C557 2.302 . S
C263 C549 2.384 . S
C703 C271 2.313 . S
C681 C293 2.359 . S
C329 C659 2.360 . S
C337 C637 2.313 . S
C103 C7 1.912 1_564 S
C43 C653 1.894 1_556 S
C62 C323 1.915 . S
C527 C87 1.914 1_565 S
C117 C571 1.894 1_554 S
C147 C238 1.915 . S
C433 C175 1.914 1_545 S
C285 C191 1.912 . S
C219 C477 1.895 . S
C257 C697 1.914 . S
C395 C307 1.895 . S
C351 C609 1.914 . S
C455 C367 1.912 1_465 S
C675 C414 1.915 1_455 S
C590 C499 1.915 1_655 S
C543 C631 1.912 1_656 S
C59 C8 1.830 . S
C76 C32 1.743 . S
C150 C106 1.788 . S
C118 C164 1.827 . S
C235 C194 1.830 . S
C208 C260 1.743 . S
C326 C274 1.788 . S
C296 C340 1.827 . S
C370 C411 1.830 . S
C384 C436 1.743 . S
C502 C458 1.788 . S
C480 C516 1.827 . S
C546 C587 1.830 . S
C612 C560 1.743 . S
C634 C678 1.788 . S
C656 C700 1.827 . S
C131 C10 1.855 . S
C623 C40 1.863 . S
C65 C345 1.878 . S
C84 C491 1.851 . S
C96 C37 1.845 1_565 S
C120 C535 1.858 . S
C249 C140 1.845 . S
C406 C172 1.805 . S
C184 C301 1.855 . S
C447 C216 1.863 . S
C241 C169 1.878 . S
C667 C250 1.845 . S
C282 C213 1.848 . S
C304 C359 1.858 . S
C316 C81 1.845 . S
C582 C348 1.805 . S
C360 C469 1.855 . S
C392 C279 1.863 . S
C689 C417 1.878 . S
C139 C426 1.851 . S
C448 C389 1.845 1_565 S
C183 C470 1.858 . S
C601 C492 1.845 . S
C524 C54 1.805 . S
C645 C536 1.855 . S
C568 C95 1.863 . S
C521 C593 1.878 . S
C315 C602 1.845 . S
C565 C624 1.848 . S
C646 C21 1.858 . S
C425 C668 1.845 . S
C690 C230 1.805 . S
