# Generated by pormake.
# Topology ukh, (4)-cn, num edge types: 1
# Building blocks:
#     Node 0, Type 0, BuildingBlock: AZAVOO_clean_sbu_0, # of connection points: 4
#     Node 1, Type 0, BuildingBlock: AZAVOO_clean_sbu_0, # of connection points: 4
#     Node 2, Type 0, BuildingBlock: AZAVOO_clean_sbu_0, # of connection points: 4
#     Node 3, Type 0, BuildingBlock: AZAVOO_clean_sbu_0, # of connection points: 4
#     Node 4, Type 0, BuildingBlock: AZAVOO_clean_sbu_0, # of connection points: 4
#     Node 5, Type 0, BuildingBlock: AZAVOO_clean_sbu_0, # of connection points: 4
#     Node 6, Type 0, BuildingBlock: AZAVOO_clean_sbu_0, # of connection points: 4
#     Node 7, Type 0, BuildingBlock: AZAVOO_clean_sbu_0, # of connection points: 4
#     Node 8, Type 0, BuildingBlock: AZAVOO_clean_sbu_0, # of connection points: 4
#     Node 9, Type 0, BuildingBlock: AZAVOO_clean_sbu_0, # of connection points: 4
#     Node 10, Type 0, BuildingBlock: AZAVOO_clean_sbu_0, # of connection points: 4
#     Node 11, Type 0, BuildingBlock: AZAVOO_clean_sbu_0, # of connection points: 4
#     Edge 12, Type (0, 0), BuildingBlock: TEMPAE_clean_linker_10, # of connection points: 2
#     Edge 13, Type (0, 0), BuildingBlock: TEMPAE_clean_linker_10, # of connection points: 2
#     Edge 14, Type (0, 0), BuildingBlock: TEMPAE_clean_linker_10, # of connection points: 2
#     Edge 15, Type (0, 0), BuildingBlock: TEMPAE_clean_linker_10, # of connection points: 2
#     Edge 16, Type (0, 0), BuildingBlock: TEMPAE_clean_linker_10, # of connection points: 2
#     Edge 17, Type (0, 0), BuildingBlock: TEMPAE_clean_linker_10, # of connection points: 2
#     Edge 18, Type (0, 0), BuildingBlock: TEMPAE_clean_linker_10, # of connection points: 2
#     Edge 19, Type (0, 0), BuildingBlock: TEMPAE_clean_linker_10, # of connection points: 2
#     Edge 20, Type (0, 0), BuildingBlock: TEMPAE_clean_linker_10, # of connection points: 2
#     Edge 21, Type (0, 0), BuildingBlock: TEMPAE_clean_linker_10, # of connection points: 2
#     Edge 22, Type (0, 0), BuildingBlock: TEMPAE_clean_linker_10, # of connection points: 2
#     Edge 23, Type (0, 0), BuildingBlock: TEMPAE_clean_linker_10, # of connection points: 2
#     Edge 24, Type (0, 0), BuildingBlock: TEMPAE_clean_linker_10, # of connection points: 2
#     Edge 25, Type (0, 0), BuildingBlock: TEMPAE_clean_linker_10, # of connection points: 2
#     Edge 26, Type (0, 0), BuildingBlock: TEMPAE_clean_linker_10, # of connection points: 2
#     Edge 27, Type (0, 0), BuildingBlock: TEMPAE_clean_linker_10, # of connection points: 2
#     Edge 28, Type (0, 0), BuildingBlock: TEMPAE_clean_linker_10, # of connection points: 2
#     Edge 29, Type (0, 0), BuildingBlock: TEMPAE_clean_linker_10, # of connection points: 2
#     Edge 30, Type (0, 0), BuildingBlock: TEMPAE_clean_linker_10, # of connection points: 2
#     Edge 31, Type (0, 0), BuildingBlock: TEMPAE_clean_linker_10, # of connection points: 2
#     Edge 32, Type (0, 0), BuildingBlock: TEMPAE_clean_linker_10, # of connection points: 2
#     Edge 33, Type (0, 0), BuildingBlock: TEMPAE_clean_linker_10, # of connection points: 2
#     Edge 34, Type (0, 0), BuildingBlock: TEMPAE_clean_linker_10, # of connection points: 2
#     Edge 35, Type (0, 0), BuildingBlock: TEMPAE_clean_linker_10, # of connection points: 2
# Relax obj value: 0.220
# Max RMSD: 0.237
# Mean RMSD: 0.237
data_MOF--net-ukh--node1-AZAVOO_clean_sbu_0--edge1-TEMPAE_clean_linker_10
_symmetry_space_group_name_H-M    P1
_symmetry_Int_Tables_number       1
_symmetry_cell_setting            triclinic
loop_
_symmetry_equiv_pos_as_xyz
'x, y, z'
_cell_length_a     31.819466
_cell_length_b     31.82831
_cell_length_c     61.445296
_cell_angle_alpha  90.076651
_cell_angle_beta   89.928327
_cell_angle_gamma 119.9475
loop_
_atom_site_label
_atom_site_type_symbol
_atom_site_fract_x
_atom_site_fract_y
_atom_site_fract_z
_atom_type_partial_charge
Mg0 Mg 0.37631 0.16151 0.04126 0.0
O1 O 0.32197 0.14862 0.0138 0.0
O2 O 0.25821 0.0747 0.01879 0.0
Mg3 Mg 0.27466 0.03746 0.04671 0.0
C4 C 0.27965 0.11486 0.0085 0.0
C5 C 0.44431 0.26172 0.01877 0.0
O6 O 0.45097 0.23367 0.00518 0.0
O7 O 0.3269 0.16732 0.06652 0.0
O8 O 0.2703 0.08942 0.07105 0.0
O9 O 0.41323 0.1296 0.0213 0.0
O10 O 0.35279 0.08873 0.04425 0.0
C11 C 0.28961 0.13412 0.07634 0.0
C12 C 0.38369 0.08909 0.0308 0.0
O13 O 0.41516 0.24259 0.03461 0.0
Mg14 Mg 0.07833 0.3055 0.37655 0.0
O15 O 0.02403 0.23741 0.35698 0.0
O16 O 0.0421 0.17975 0.36513 0.0
Mg17 Mg 0.11027 0.2107 0.38616 0.0
C18 C 0.01582 0.19384 0.35547 0.0
C19 C 0.05279 0.38281 0.36139 0.0
O20 O 0.09517 0.39776 0.35214 0.0
O21 O 0.04121 0.27075 0.40886 0.0
O22 O 0.06902 0.21937 0.41433 0.0
O23 O 0.1341 0.33124 0.34934 0.0
O24 O 0.12932 0.28396 0.37654 0.0
C25 C 0.04571 0.24016 0.42072 0.0
C26 C 0.15117 0.30726 0.3594 0.0
O27 O 0.03337 0.34305 0.37189 0.0
Mg28 Mg 0.70519 0.14225 0.70636 0.0
O29 O 0.71838 0.08863 0.68556 0.0
O30 O 0.79902 0.12087 0.68347 0.0
Mg31 Mg 0.83731 0.19586 0.69917 0.0
C32 C 0.75597 0.08685 0.67951 0.0
C33 C 0.5963 0.07588 0.69422 0.0
O34 O 0.61548 0.09166 0.67491 0.0
O35 O 0.72938 0.11899 0.73737 0.0
O36 O 0.80971 0.15757 0.73145 0.0
O37 O 0.70934 0.18811 0.67707 0.0
O38 O 0.77107 0.19934 0.69747 0.0
C39 C 0.77271 0.13149 0.74331 0.0
C40 C 0.75517 0.2128 0.68146 0.0
O41 O 0.6243 0.08734 0.71063 0.0
Mg42 Mg 0.73651 0.7293 0.01625 0.0
O43 O 0.80674 0.73087 0.02664 0.0
O44 O 0.86208 0.80797 0.03385 0.0
Mg45 Mg 0.82827 0.85547 0.02721 0.0
C46 C 0.84965 0.76325 0.03214 0.0
C47 C 0.65272 0.62594 0.01033 0.0
O48 O 0.63932 0.65198 -0.00122 0.0
O49 O 0.7189 0.7425 0.0512 0.0
O50 O 0.77399 0.82102 0.0546 0.0
O51 O 0.76654 0.74104 0.98213 0.0
O52 O 0.7773 0.79935 0.00505 0.0
C53 C 0.73774 0.78239 0.06183 0.0
C54 C 0.78787 0.78669 0.98694 0.0
O55 O 0.693 0.64745 0.02036 0.0
Mg56 Mg 0.92215 0.70745 0.39298 0.0
O57 O 0.99258 0.7778 0.38334 0.0
O58 O 0.98404 0.83984 0.39482 0.0
Mg59 Mg 0.90885 0.81146 0.40966 0.0
C60 C 0.00869 0.82331 0.38552 0.0
C61 C 0.93396 0.62291 0.37539 0.0
O62 O 0.89252 0.61407 0.36683 0.0
O63 O 0.93944 0.71531 0.42959 0.0
O64 O 0.92485 0.77542 0.4378 0.0
O65 O 0.88765 0.70989 0.36121 0.0
O66 O 0.88342 0.74355 0.39187 0.0
C67 C 0.93512 0.74301 0.44345 0.0
C68 C 0.87239 0.73502 0.37172 0.0
O69 O 0.95737 0.66072 0.38706 0.0
Mg70 Mg 0.1476 0.95652 0.73031 0.0
O71 O 0.15732 0.0328 0.72657 0.0
O72 O 0.10339 0.03673 0.74851 0.0
Mg73 Mg 0.05681 0.96296 0.76489 0.0
C74 C 0.13748 0.05584 0.73448 0.0
C75 C 0.2392 0.95263 0.71738 0.0
O76 O 0.21084 0.90927 0.72553 0.0
O77 O 0.17956 0.9701 0.76427 0.0
O78 O 0.11894 0.96504 0.78455 0.0
O79 O 0.09275 0.93026 0.70325 0.0
O80 O 0.07484 0.92904 0.73797 0.0
C81 C 0.16026 0.96785 0.78276 0.0
C82 C 0.06037 0.92093 0.71815 0.0
O83 O 0.22297 0.98187 0.7159 0.0
Mg84 Mg 0.71123 0.67057 0.62703 0.0
O85 O 0.7264 0.74942 0.62537 0.0
O86 O 0.80513 0.79806 0.63265 0.0
Mg87 Mg 0.84015 0.75125 0.63881 0.0
C88 C 0.76309 0.79167 0.62829 0.0
C89 C 0.60469 0.60413 0.62298 0.0
O90 O 0.62053 0.58692 0.63838 0.0
O91 O 0.74839 0.67629 0.5938 0.0
O92 O 0.82571 0.72154 0.60439 0.0
O93 O 0.69936 0.67492 0.66287 0.0
O94 O 0.76916 0.69126 0.64792 0.0
C95 C 0.79405 0.69658 0.59003 0.0
C96 C 0.74544 0.69128 0.66478 0.0
O97 O 0.63548 0.64181 0.61278 0.0
Mg98 Mg 0.21076 0.738 0.94803 0.0
O99 O 0.15379 0.74853 0.96685 0.0
O100 O 0.18796 0.82685 0.976 0.0
Mg101 Mg 0.26744 0.86502 0.96531 0.0
C102 C 0.15175 0.78384 0.97566 0.0
C103 C 0.12772 0.63209 0.95187 0.0
O104 O 0.1341 0.64669 0.97223 0.0
O105 O 0.20286 0.77721 0.9178 0.0
O106 O 0.2434 0.85349 0.93024 0.0
O107 O 0.23768 0.72567 0.98028 0.0
O108 O 0.26647 0.7962 0.96368 0.0
C109 C 0.22129 0.82304 0.91504 0.0
C110 C 0.26659 0.7721 0.98028 0.0
O111 O 0.15234 0.66258 0.93713 0.0
Mg112 Mg 0.37208 0.16242 0.27401 0.0
O113 O 0.30366 0.10335 0.2913 0.0
O114 O 0.25212 0.1313 0.2951 0.0
Mg115 Mg 0.28778 0.20816 0.28105 0.0
C116 C 0.26318 0.09821 0.29777 0.0
C117 C 0.40887 0.08929 0.28238 0.0
O118 O 0.40599 0.10114 0.3026 0.0
O119 O 0.332 0.14685 0.24159 0.0
O120 O 0.28438 0.17914 0.24677 0.0
O121 O 0.40166 0.19452 0.30695 0.0
O122 O 0.35967 0.2158 0.28545 0.0
C123 C 0.30091 0.15803 0.2347 0.0
C124 C 0.38032 0.21959 0.30379 0.0
O125 O 0.3964 0.10759 0.26709 0.0
Mg126 Mg 0.13232 0.3915 0.61364 0.0
O127 O 0.12775 0.33368 0.63765 0.0
O128 O 0.04954 0.2781 0.6415 0.0
Mg129 Mg 0.00359 0.30153 0.62196 0.0
C130 C 0.09426 0.29405 0.64574 0.0
C131 C 0.2427 0.46455 0.61649 0.0
O132 O 0.22444 0.4898 0.62508 0.0
O133 O 0.11333 0.33878 0.5849 0.0
O134 O 0.03378 0.28973 0.59055 0.0
O135 O 0.12133 0.43322 0.64119 0.0
O136 O 0.06334 0.37617 0.62119 0.0
C137 C 0.07195 0.30358 0.57909 0.0
C138 C 0.07569 0.40696 0.63661 0.0
O139 O 0.21394 0.42154 0.61005 0.0
Mg140 Mg 0.96238 0.17057 0.93465 0.0
O141 O 0.03345 0.17499 0.92355 0.0
O142 O 0.01613 0.10098 0.91276 0.0
Mg143 Mg 0.93516 0.04875 0.91816 0.0
C144 C 0.04672 0.14543 0.91669 0.0
C145 C 0.97081 0.27176 0.92949 0.0
O146 O 0.92425 0.24317 0.92587 0.0
O147 O 0.93227 0.162 0.89994 0.0
O148 O 0.91197 0.08525 0.89302 0.0
O149 O 0.97999 0.154 0.96804 0.0
O150 O 0.93688 0.09919 0.94296 0.0
C151 C 0.91246 0.12426 0.88784 0.0
C152 C 0.95892 0.10951 0.96135 0.0
O153 O 0.99708 0.25286 0.93328 0.0
Mg154 Mg 0.63209 0.84614 0.26113 0.0
O155 O 0.7081 0.91152 0.26822 0.0
O156 O 0.76043 0.88414 0.27042 0.0
Mg157 Mg 0.71889 0.80247 0.26398 0.0
C158 C 0.75083 0.91853 0.27148 0.0
C159 C 0.55755 0.87869 0.25636 0.0
O160 O 0.53113 0.83186 0.25996 0.0
O161 O 0.65033 0.84253 0.22525 0.0
O162 O 0.70181 0.81448 0.22934 0.0
O163 O 0.62426 0.83555 0.29705 0.0
O164 O 0.652 0.79957 0.27507 0.0
C165 C 0.67816 0.8281 0.2173 0.0
C166 C 0.64435 0.80914 0.29448 0.0
O167 O 0.60323 0.89737 0.25462 0.0
C168 C 0.63627 0.54435 0.02308 0.0
C169 C 0.62152 0.57253 0.01135 0.0
C170 C 0.60704 0.49369 0.024 0.0
C171 C 0.56198 0.4707 0.01296 0.0
C172 C 0.54685 0.49892 0.00112 0.0
C173 C 0.5768 0.54949 0.00046 0.0
C174 C 0.62436 0.46474 0.0368 0.0
C175 C 0.49898 0.47571 0.98919 0.0
C176 C 0.50657 0.33674 -0.00028 0.0
C177 C 0.47274 0.3152 0.01661 0.0
C178 C 0.53552 0.38736 -0.00181 0.0
C179 C 0.5305 0.4171 0.01393 0.0
C180 C 0.49587 0.39563 0.03079 0.0
C181 C 0.46739 0.34496 0.03192 0.0
C182 C 0.57194 0.40901 0.97992 0.0
C183 C 0.48937 0.42617 0.04784 0.0
H184 H 0.67077 0.56184 0.03153 0.0
H185 H 0.56507 0.57095 0.99136 0.0
H186 H 0.59789 0.44396 0.04982 0.0
H187 H 0.62679 0.43808 0.02599 0.0
H188 H 0.66041 0.48809 0.04438 0.0
H189 H 0.49261 0.50278 0.98066 0.0
H190 H 0.49781 0.44932 0.97705 0.0
H191 H 0.46879 0.45527 0.0008 0.0
H192 H 0.51091 0.31406 0.9878 0.0
H193 H 0.4413 0.32868 0.04501 0.0
H194 H 0.6091 0.42997 0.98672 0.0
H195 H 0.56521 0.43465 0.97039 0.0
H196 H 0.57058 0.38094 0.96871 0.0
H197 H 0.52371 0.44772 0.05696 0.0
H198 H 0.4601 0.40389 0.05961 0.0
H199 H 0.48065 0.45221 0.03995 0.0
C200 C 0.05007 0.45565 0.34801 0.0
C201 C 0.03135 0.4149 0.36166 0.0
C202 C 0.03356 0.48907 0.3494 0.0
C203 C 0.99777 0.48195 0.36497 0.0
C204 C 0.97791 0.44032 0.37847 0.0
C205 C 0.99472 0.40715 0.37657 0.0
C206 C 0.05517 0.53257 0.33448 0.0
C207 C 0.93984 0.43153 0.39534 0.0
C208 C 0.99148 0.59267 0.38398 0.0
C209 C 0.95147 0.58788 0.37229 0.0
C210 C 0.00686 0.55842 0.38178 0.0
C211 C 0.98189 0.5186 0.36742 0.0
C212 C 0.94189 0.51393 0.35538 0.0
C213 C 0.92708 0.54848 0.35801 0.0
C214 C 0.04959 0.5646 0.39497 0.0
C215 C 0.9146 0.47231 0.33975 0.0
H216 H 0.07822 0.46184 0.33638 0.0
H217 H 0.98022 0.37592 0.38725 0.0
H218 H 0.02599 0.53441 0.32542 0.0
H219 H 0.0746 0.56631 0.34423 0.0
H220 H 0.08099 0.53165 0.32257 0.0
H221 H 0.92711 0.39679 0.40416 0.0
H222 H 0.95481 0.46157 0.40737 0.0
H223 H 0.90819 0.43104 0.38754 0.0
H224 H 0.01046 0.62287 0.39509 0.0
H225 H 0.8962 0.54447 0.34885 0.0
H226 H 0.07854 0.56737 0.38398 0.0
H227 H 0.0384 0.53234 0.40545 0.0
H228 H 0.06497 0.5974 0.40547 0.0
H229 H 0.93979 0.47218 0.32728 0.0
H230 H 0.8847 0.47424 0.33136 0.0
H231 H 0.89907 0.43735 0.34861 0.0
C232 C 0.32419 0.01719 0.70821 0.0
C233 C 0.2904 0.96817 0.71192 0.0
C234 C 0.37351 0.03265 0.70479 0.0
C235 C 0.3894 0.99823 0.70485 0.0
C236 C 0.35524 0.94854 0.70796 0.0
C237 C 0.30626 0.93416 0.71157 0.0
C238 C 0.40883 0.08601 0.70163 0.0
C239 C 0.37055 0.91063 0.70786 0.0
C240 C 0.51218 0.0374 0.67887 0.0
C241 C 0.54283 0.05126 0.6971 0.0
C242 C 0.46202 0.0189 0.68117 0.0
C243 C 0.44196 0.01447 0.70219 0.0
C244 C 0.47246 0.02702 0.72069 0.0
C245 C 0.52244 0.04503 0.71793 0.0
C246 C 0.43068 0.00528 0.66106 0.0
C247 C 0.45253 0.02291 0.74339 0.0
H248 H 0.31235 0.04375 0.70853 0.0
H249 H 0.28041 0.89617 0.71433 0.0
H250 H 0.43621 0.09938 0.71486 0.0
H251 H 0.42863 0.09195 0.68604 0.0
H252 H 0.39059 0.10803 0.70157 0.0
H253 H 0.33922 0.87327 0.70948 0.0
H254 H 0.3901 0.91292 0.69255 0.0
H255 H 0.39601 0.9174 0.72149 0.0
H256 H 0.52751 0.04187 0.66271 0.0
H257 H 0.54577 0.05572 0.73211 0.0
H258 H 0.4151 0.02947 0.65939 0.0
H259 H 0.39988 0.96765 0.6625 0.0
H260 H 0.45129 0.00804 0.64601 0.0
H261 H 0.43719 0.04733 0.74508 0.0
H262 H 0.48068 0.03252 0.75611 0.0
H263 H 0.42261 0.98542 0.7464 0.0
C264 C 0.5335 0.59783 0.60231 0.0
C265 C 0.55179 0.58193 0.6192 0.0
C266 C 0.48322 0.57843 0.59968 0.0
C267 C 0.45066 0.54286 0.61446 0.0
C268 C 0.46896 0.52605 0.63123 0.0
C269 C 0.51915 0.54554 0.63331 0.0
C270 C 0.46497 0.59671 0.58141 0.0
C271 C 0.43558 0.48851 0.64746 0.0
C272 C 0.32712 0.52925 0.62564 0.0
C273 C 0.296 0.48573 0.61486 0.0
C274 C 0.3776 0.54892 0.62511 0.0
C275 C 0.3976 0.52483 0.61329 0.0
C276 C 0.36651 0.48169 0.60179 0.0
C277 C 0.31603 0.46245 0.60284 0.0
C278 C 0.40944 0.59465 0.63783 0.0
C279 C 0.3865 0.45528 0.5888 0.0
H280 H 0.55846 0.62575 0.59129 0.0
H281 H 0.53283 0.53296 0.64642 0.0
H282 H 0.43728 0.56579 0.57174 0.0
H283 H 0.44718 0.61621 0.58823 0.0
H284 H 0.49462 0.62167 0.57035 0.0
H285 H 0.45551 0.47823 0.65915 0.0
H286 H 0.41549 0.50279 0.65679 0.0
H287 H 0.40831 0.45537 0.63887 0.0
H288 H 0.31201 0.5475 0.63496 0.0
H289 H 0.29226 0.42902 0.59431 0.0
H290 H 0.43761 0.62239 0.62707 0.0
H291 H 0.42847 0.58675 0.65092 0.0
H292 H 0.38843 0.6102 0.64535 0.0
H293 H 0.41504 0.48066 0.57745 0.0
H294 H 0.35792 0.42466 0.57928 0.0
H295 H 0.40365 0.4408 0.59993 0.0
C296 C 0.04093 0.35543 0.93545 0.0
C297 C 0.99178 0.32511 0.93038 0.0
C298 C 0.06065 0.40572 0.93758 0.0
C299 C 0.03056 0.42627 0.93454 0.0
C300 C 0.98122 0.39607 0.92889 0.0
C301 C 0.96241 0.34583 0.92689 0.0
C302 C 0.11349 0.43673 0.94361 0.0
C303 C 0.94806 0.41667 0.92545 0.0
C304 C 0.07307 0.54627 0.9634 0.0
C305 C 0.09766 0.57975 0.9467 0.0
C306 C 0.04953 0.49619 0.95945 0.0
C307 C 0.05048 0.47909 0.93828 0.0
C308 C 0.0732 0.51263 0.92112 0.0
C309 C 0.09655 0.56261 0.92553 0.0
C310 C 0.02545 0.46159 0.97818 0.0
C311 C 0.07464 0.49578 0.8983 0.0
H312 H 0.06395 0.33981 0.93812 0.0
H313 H 0.92442 0.32273 0.9229 0.0
H314 H 0.1324 0.46609 0.93147 0.0
H315 H 0.11663 0.45424 0.95961 0.0
H316 H 0.13242 0.41542 0.94456 0.0
H317 H 0.91138 0.38875 0.91988 0.0
H318 H 0.94426 0.43261 0.94089 0.0
H319 H 0.96389 0.44628 0.91325 0.0
H320 H 0.07344 0.55912 0.97978 0.0
H321 H 0.11529 0.58819 0.91251 0.0
H322 H 0.04505 0.44164 0.98156 0.0
H323 H 0.98759 0.43431 0.97389 0.0
H324 H 0.02498 0.48057 0.99329 0.0
H325 H 0.09725 0.47823 0.89801 0.0
H326 H 0.08987 0.52615 0.88643 0.0
H327 H 0.03767 0.46828 0.89294 0.0
C328 C 0.44442 0.03843 0.2942 0.0
C329 C 0.42874 0.05703 0.27737 0.0
C330 C 0.46498 0.00931 0.28966 0.0
C331 C 0.46992 0.99846 0.26778 0.0
C332 C 0.45374 0.01669 0.25072 0.0
C333 C 0.43334 0.04577 0.25572 0.0
C334 C 0.48175 0.99043 0.30831 0.0
C335 C 0.45829 0.00576 0.22719 0.0
C336 C 0.56373 0.96031 0.25711 0.0
C337 C 0.53493 0.9096 0.25699 0.0
C338 C 0.5429 0.98978 0.26004 0.0
C339 C 0.49208 0.96799 0.26283 0.0
C340 C 0.46265 0.91693 0.2619 0.0
C341 C 0.48444 0.88835 0.25902 0.0
C342 C 0.57544 0.04414 0.2609 0.0
C343 C 0.40829 0.89239 0.26466 0.0
H344 H 0.44101 0.04692 0.31097 0.0
H345 H 0.42131 0.05997 0.2426 0.0
H346 H 0.46268 0.95023 0.30784 0.0
H347 H 0.52112 0.00356 0.3067 0.0
H348 H 0.47511 0.00198 0.32441 0.0
H349 H 0.44341 0.02224 0.21585 0.0
H350 H 0.49697 0.01963 0.22308 0.0
H351 H 0.43887 0.96598 0.2245 0.0
H352 H 0.60276 0.97703 0.25554 0.0
H353 H 0.46187 0.84921 0.25885 0.0
H354 H 0.57368 0.05762 0.27735 0.0
H355 H 0.56284 0.06189 0.24913 0.0
H356 H 0.61385 0.0555 0.25722 0.0
H357 H 0.39953 0.89945 0.28127 0.0
H358 H 0.39031 0.85254 0.26219 0.0
H359 H 0.39278 0.90751 0.25297 0.0
C360 C 0.25671 0.16768 0.20318 0.0
C361 C 0.28686 0.15089 0.21145 0.0
C362 C 0.24801 0.16701 0.18079 0.0
C363 C 0.26998 0.14911 0.16636 0.0
C364 C 0.29853 0.12999 0.17465 0.0
C365 C 0.30663 0.1311 0.1971 0.0
C366 C 0.21715 0.18742 0.17257 0.0
C367 C 0.32208 0.10992 0.15973 0.0
C368 C 0.23452 0.10885 0.10846 0.0
C369 C 0.27476 0.14543 0.09735 0.0
C370 C 0.22958 0.11165 0.13098 0.0
C371 C 0.26553 0.15214 0.14249 0.0
C372 C 0.30227 0.1921 0.13094 0.0
C373 C 0.30639 0.18835 0.1084 0.0
C374 C 0.18908 0.06884 0.14266 0.0
C375 C 0.34056 0.23653 0.14263 0.0
H376 H 0.24101 0.18292 0.21412 0.0
H377 H 0.32967 0.11781 0.20331 0.0
H378 H 0.24076 0.22307 0.16478 0.0
H379 H 0.19115 0.16333 0.16005 0.0
H380 H 0.19656 0.19261 0.1859 0.0
H381 H 0.34141 0.09454 0.16884 0.0
H382 H 0.29432 0.08112 0.1492 0.0
H383 H 0.34849 0.1391 0.14892 0.0
H384 H 0.20914 0.076 0.09994 0.0
H385 H 0.33714 0.2172 0.09991 0.0
H386 H 0.17405 0.08092 0.156 0.0
H387 H 0.20354 0.04683 0.15005 0.0
H388 H 0.15922 0.04524 0.13139 0.0
H389 H 0.32401 0.24827 0.15542 0.0
H390 H 0.36134 0.26724 0.13128 0.0
H391 H 0.36636 0.22771 0.15073 0.0
C392 C 0.02337 0.2694 0.45418 0.0
C393 C 0.03248 0.23527 0.44404 0.0
C394 C 0.02487 0.2738 0.47692 0.0
C395 C 0.03587 0.24346 0.48966 0.0
C396 C 0.04048 0.20601 0.47964 0.0
C397 C 0.03828 0.20208 0.45694 0.0
C398 C 0.01833 0.31329 0.48718 0.0
C399 C 0.05183 0.1727 0.49268 0.0
C400 C 0.1032 0.30189 0.54183 0.0
C401 C 0.06546 0.28216 0.55709 0.0
C402 C 0.09439 0.28794 0.51989 0.0
C403 C 0.04671 0.25377 0.51313 0.0
C404 C 0.00919 0.23154 0.52865 0.0
C405 C 0.01909 0.24572 0.55047 0.0
C406 C 0.13559 0.3115 0.50376 0.0
C407 C 0.95796 0.19491 0.52207 0.0
H408 H 0.01848 0.29493 0.44438 0.0
H409 H 0.04454 0.17499 0.44927 0.0
H410 H 0.9928 0.29873 0.50111 0.0
H411 H 0.05366 0.34214 0.49359 0.0
H412 H 0.00449 0.32992 0.47538 0.0
H413 H 0.04749 0.14141 0.48289 0.0
H414 H 0.08987 0.19329 0.49852 0.0
H415 H 0.02814 0.15874 0.50723 0.0
H416 H 0.13912 0.3298 0.54679 0.0
H417 H 0.98965 0.22975 0.56215 0.0
H418 H 0.12882 0.33453 0.49238 0.0
H419 H 0.13781 0.28344 0.4939 0.0
H420 H 0.17111 0.33445 0.51185 0.0
H421 H 0.94221 0.21332 0.51256 0.0
H422 H 0.93427 0.17711 0.53636 0.0
H423 H 0.95762 0.16654 0.51145 0.0
C424 C 0.82534 0.11715 0.76816 0.0
C425 C 0.78275 0.11927 0.76512 0.0
C426 C 0.84232 0.11616 0.78899 0.0
C427 C 0.81585 0.11689 0.80733 0.0
C428 C 0.77122 0.11602 0.80445 0.0
C429 C 0.75507 0.11721 0.78326 0.0
C430 C 0.88977 0.11646 0.79131 0.0
C431 C 0.74173 0.116 0.8237 0.0
C432 C 0.85197 0.07855 0.85884 0.0
C433 C 0.88593 0.1234 0.86792 0.0
C434 C 0.82667 0.07594 0.83982 0.0
C435 C 0.83592 0.11923 0.82938 0.0
C436 C 0.86888 0.16469 0.83879 0.0
C437 C 0.89334 0.16626 0.85808 0.0
C438 C 0.79148 0.0268 0.83043 0.0
C439 C 0.87986 0.21164 0.82797 0.0
H440 H 0.84659 0.11822 0.75413 0.0
H441 H 0.72234 0.1192 0.78096 0.0
H442 H 0.91662 0.15002 0.79981 0.0
H443 H 0.88459 0.08528 0.80135 0.0
H444 H 0.90522 0.11465 0.77535 0.0
H445 H 0.70577 0.11055 0.81875 0.0
H446 H 0.73616 0.08709 0.83536 0.0
H447 H 0.76173 0.15112 0.83243 0.0
H448 H 0.84517 0.04512 0.86656 0.0
H449 H 0.91915 0.20096 0.86511 0.0
H450 H 0.80651 0.02108 0.81513 0.0
H451 H 0.75659 0.02479 0.82633 0.0
H452 H 0.78417 0.9968 0.84181 0.0
H453 H 0.89889 0.21542 0.81232 0.0
H454 H 0.903 0.24372 0.83827 0.0
H455 H 0.84572 0.2115 0.82418 0.0
C456 C 0.72841 0.83174 0.09077 0.0
C457 C 0.71755 0.78584 0.08305 0.0
C458 C 0.71502 0.83784 0.1117 0.0
C459 C 0.69013 0.79702 0.12537 0.0
C460 C 0.67606 0.75008 0.11723 0.0
C461 C 0.68989 0.74498 0.09606 0.0
C462 C 0.73068 0.8885 0.11966 0.0
C463 C 0.6491 0.70567 0.13133 0.0
C464 C 0.72176 0.8219 0.18502 0.0
C465 C 0.68171 0.82362 0.19351 0.0
C466 C 0.72439 0.81266 0.16296 0.0
C467 C 0.68589 0.8047 0.14893 0.0
C468 C 0.6455 0.80694 0.15726 0.0
C469 C 0.64398 0.81667 0.17951 0.0
C470 C 0.76859 0.81153 0.15469 0.0
C471 C 0.60381 0.79853 0.14272 0.0
H472 H 0.74881 0.86349 0.08064 0.0
H473 H 0.68098 0.7094 0.09011 0.0
H474 H 0.70018 0.88965 0.12785 0.0
H475 H 0.76014 0.89958 0.13181 0.0
H476 H 0.74422 0.91544 0.10623 0.0
H477 H 0.63448 0.67163 0.12173 0.0
H478 H 0.67403 0.70548 0.14389 0.0
H479 H 0.61872 0.70623 0.13995 0.0
H480 H 0.7512 0.82751 0.19572 0.0
H481 H 0.61271 0.81742 0.18604 0.0
H482 H 0.78722 0.83987 0.14209 0.0
H483 H 0.75756 0.776 0.14695 0.0
H484 H 0.79496 0.81764 0.16785 0.0
H485 H 0.61704 0.82535 0.12928 0.0
H486 H 0.57498 0.80128 0.15172 0.0
H487 H 0.58769 0.76203 0.13518 0.0
C488 C 0.79008 0.68976 0.54925 0.0
C489 C 0.81273 0.69074 0.56888 0.0
C490 C 0.81284 0.69217 0.52926 0.0
C491 C 0.85876 0.69485 0.52905 0.0
C492 C 0.87978 0.69203 0.54882 0.0
C493 C 0.8567 0.69038 0.56847 0.0
C494 C 0.78923 0.69494 0.50844 0.0
C495 C 0.92809 0.6938 0.54934 0.0
C496 C 0.90384 0.68227 0.47342 0.0
C497 C 0.92977 0.73094 0.46684 0.0
C498 C 0.88242 0.66971 0.49418 0.0
C499 C 0.88737 0.70675 0.50855 0.0
C500 C 0.91762 0.75598 0.50272 0.0
C501 C 0.93855 0.76743 0.48196 0.0
C502 C 0.85135 0.61683 0.49998 0.0
C503 C 0.92474 0.79668 0.51772 0.0
H504 H 0.75609 0.68991 0.54954 0.0
H505 H 0.87394 0.69021 0.58366 0.0
H506 H 0.81109 0.73156 0.50119 0.0
H507 H 0.78807 0.66834 0.49642 0.0
H508 H 0.75174 0.68791 0.51115 0.0
H509 H 0.93584 0.68391 0.56558 0.0
H510 H 0.92924 0.66895 0.53698 0.0
H511 H 0.95743 0.731 0.54533 0.0
H512 H 0.89653 0.65387 0.46173 0.0
H513 H 0.95872 0.80509 0.47693 0.0
H514 H 0.81254 0.60635 0.49875 0.0
H515 H 0.85809 0.6101 0.51699 0.0
H516 H 0.85802 0.59312 0.48893 0.0
H517 H 0.88981 0.79617 0.51973 0.0
H518 H 0.95216 0.83283 0.51139 0.0
H519 H 0.93636 0.79178 0.53407 0.0
C520 C 0.18158 0.81625 0.87877 0.0
C521 C 0.21811 0.84345 0.89389 0.0
C522 C 0.17629 0.8383 0.85993 0.0
C523 C 0.20846 0.88842 0.85622 0.0
C524 C 0.24671 0.91531 0.87092 0.0
C525 C 0.25106 0.89254 0.88951 0.0
C526 C 0.13521 0.80851 0.84444 0.0
C527 C 0.28192 0.96868 0.86751 0.0
C528 C 0.21285 0.93942 0.79991 0.0
C529 C 0.18045 0.95702 0.80227 0.0
C530 C 0.22291 0.91755 0.81741 0.0
C531 C 0.20044 0.91367 0.83777 0.0
C532 C 0.17027 0.93418 0.84063 0.0
C533 C 0.16065 0.95561 0.82285 0.0
C534 C 0.25574 0.89657 0.81384 0.0
C535 C 0.14652 0.93173 0.86227 0.0
H536 H 0.15615 0.77837 0.88204 0.0
H537 H 0.28001 0.91374 0.90092 0.0
H538 H 0.10908 0.82199 0.84456 0.0
H539 H 0.14922 0.81243 0.82758 0.0
H540 H 0.11552 0.76942 0.8488 0.0
H541 H 0.31177 0.98348 0.87965 0.0
H542 H 0.29799 0.97507 0.85098 0.0
H543 H 0.2624 0.98933 0.86877 0.0
H544 H 0.22819 0.94008 0.78406 0.0
H545 H 0.13579 0.96931 0.82486 0.0
H546 H 0.23449 0.85655 0.81553 0.0
H547 H 0.28471 0.91028 0.82635 0.0
H548 H 0.27292 0.90545 0.79748 0.0
H549 H 0.1216 0.8933 0.8667 0.0
H550 H 0.12555 0.95107 0.862 0.0
H551 H 0.17436 0.94779 0.87525 0.0
C552 C 0.26344 0.81772 0.01113 0.0
C553 C 0.28961 0.80003 -0.0001 0.0
C554 C 0.28682 0.86531 0.0191 0.0
C555 C 0.33792 0.89411 0.01716 0.0
C556 C 0.36503 0.87286 0.00953 0.0
C557 C 0.34036 0.82613 0.00047 0.0
C558 C 0.25617 0.88655 0.02671 0.0
C559 C 0.41961 0.9016 0.00824 0.0
C560 C 0.37834 0.02578 0.00548 0.0
C561 C 0.38351 0.04373 0.02658 0.0
C562 C 0.36683 0.97765 0.00193 0.0
C563 C 0.36138 0.94748 0.02004 0.0
C564 C 0.37205 0.96756 0.0412 0.0
C565 C 0.38183 0.01521 0.04428 0.0
C566 C 0.35652 0.95911 0.97884 0.0
C567 C 0.3703 0.93803 0.06074 0.0
H568 H 0.22413 0.79732 0.01057 0.0
H569 H 0.36059 0.8125 0.99161 0.0
H570 H 0.26928 0.90507 0.04259 0.0
H571 H 0.25911 0.91408 0.01479 0.0
H572 H 0.21728 0.85855 0.02839 0.0
H573 H 0.43539 0.87754 0.0064 0.0
H574 H 0.43059 0.92614 0.99395 0.0
H575 H 0.43507 0.92437 0.02299 0.0
H576 H 0.3796 0.04805 0.99187 0.0
H577 H 0.38658 0.02971 0.06065 0.0
H578 H 0.32009 0.95268 0.97418 0.0
H579 H 0.35756 0.92516 0.97646 0.0
H580 H 0.38307 0.98694 0.96753 0.0
H581 H 0.33214 0.91478 0.06602 0.0
H582 H 0.39103 0.96162 0.07465 0.0
H583 H 0.38514 0.91395 0.05672 0.0
C584 C 0.22977 0.31462 0.36855 0.0
C585 C 0.19514 0.30697 0.35263 0.0
C586 C 0.2687 0.30732 0.36395 0.0
C587 C 0.27202 0.2905 0.34311 0.0
C588 C 0.23806 0.2845 0.32668 0.0
C589 C 0.2001 0.29343 0.33161 0.0
C590 C 0.30489 0.31547 0.38165 0.0
C591 C 0.23995 0.26572 0.30435 0.0
C592 C 0.38164 0.29071 0.31965 0.0
C593 C 0.36754 0.24161 0.3215 0.0
C594 C 0.35301 0.30852 0.32853 0.0
C595 C 0.30877 0.27586 0.33881 0.0
C596 C 0.29711 0.22732 0.34265 0.0
C597 C 0.32728 0.21094 0.33417 0.0
C598 C 0.36747 0.36088 0.32479 0.0
C599 C 0.25006 0.19119 0.3534 0.0
H600 H 0.22566 0.32526 0.38484 0.0
H601 H 0.17279 0.287 0.31948 0.0
H602 H 0.29987 0.28008 0.38716 0.0
H603 H 0.34249 0.33701 0.37536 0.0
H604 H 0.30078 0.33453 0.39595 0.0
H605 H 0.21365 0.26716 0.29293 0.0
H606 H 0.27688 0.28694 0.29733 0.0
H607 H 0.23144 0.22749 0.3057 0.0
H608 H 0.41242 0.31407 0.30946 0.0
H609 H 0.31599 0.1727 0.33511 0.0
H610 H 0.36041 0.37665 0.33951 0.0
H611 H 0.34551 0.36314 0.31131 0.0
H612 H 0.40641 0.38316 0.32036 0.0
H613 H 0.24414 0.20643 0.36857 0.0
H614 H 0.24912 0.15667 0.35735 0.0
H615 H 0.21943 0.18295 0.34228 0.0
C616 C 0.81679 0.24931 0.65279 0.0
C617 C 0.79007 0.25541 0.66926 0.0
C618 C 0.86373 0.28664 0.64776 0.0
C619 C 0.88425 0.33059 0.6598 0.0
C620 C 0.85525 0.3386 0.67479 0.0
C621 C 0.80832 0.30067 0.67938 0.0
C622 C 0.89313 0.27667 0.63142 0.0
C623 C 0.87539 0.38491 0.68779 0.0
C624 C 0.01776 0.37576 0.66682 0.0
C625 C 0.03668 0.40715 0.64907 0.0
C626 C 0.9683 0.35405 0.672 0.0
C627 C 0.93754 0.36406 0.65897 0.0
C628 C 0.95792 0.40048 0.64285 0.0
C629 C 0.00748 0.42163 0.63807 0.0
C630 C 0.94813 0.31606 0.68967 0.0
C631 C 0.92665 0.41263 0.62876 0.0
H632 H 0.80303 0.21382 0.64544 0.0
H633 H 0.78785 0.3048 0.69252 0.0
H634 H 0.91511 0.30887 0.62105 0.0
H635 H 0.91838 0.26817 0.64025 0.0
H636 H 0.86974 0.24537 0.62077 0.0
H637 H 0.84599 0.38993 0.6948 0.0
H638 H 0.89758 0.38353 0.70139 0.0
H639 H 0.89923 0.41691 0.67764 0.0
H640 H 0.04017 0.36377 0.67495 0.0
H641 H 0.02211 0.44525 0.62403 0.0
H642 H 0.92866 0.2795 0.68213 0.0
H643 H 0.92173 0.32033 0.69989 0.0
H644 H 0.97718 0.31787 0.70032 0.0
H645 H 0.909 0.38433 0.61604 0.0
H646 H 0.94841 0.44822 0.62055 0.0
H647 H 0.89755 0.41332 0.63844 0.0
C648 C 0.87592 0.83757 0.98356 0.0
C649 C 0.82997 0.82349 0.97503 0.0
C650 C 0.91278 0.88636 0.98308 0.0
C651 C 0.90412 0.92035 0.97215 0.0
C652 C 0.86105 0.90379 0.95975 0.0
C653 C 0.82369 0.85565 0.96193 0.0
C654 C 0.95885 0.90153 -0.00431 0.0
C655 C 0.852 0.93809 0.94626 0.0
C656 C 0.92993 0.04396 0.98829 0.0
C657 C 0.9639 0.07157 0.97242 0.0
C658 C 0.91586 0.99495 0.99094 0.0
C659 C 0.93421 0.97318 0.97645 0.0
C660 C 0.97397 0.00289 0.96289 0.0
C661 C 0.98952 0.05249 0.96168 0.0
C662 C 0.87726 0.96523 0.00746 0.0
C663 C 0.99686 0.98197 0.94815 0.0
H664 H 0.88115 0.8117 0.99283 0.0
H665 H 0.78816 0.8446 0.95519 0.0
H666 H 0.9878 0.90634 0.9842 0.0
H667 H 0.97124 0.93646 0.00429 0.0
H668 H 0.95431 0.87369 0.00782 0.0
H669 H 0.84171 0.95943 0.95709 0.0
H670 H 0.88531 0.96385 0.9373 0.0
H671 H 0.8222 0.9183 0.93436 0.0
H672 H 0.91074 0.05905 -0.00307 0.0
H673 H 0.01799 0.07507 0.95043 0.0
H674 H 0.88705 0.94073 0.0161 0.0
H675 H 0.84206 0.94251 -0.00088 0.0
H676 H 0.87254 0.98843 0.01961 0.0
H677 H 0.01742 0.96939 0.95814 0.0
H678 H 0.02237 0.00906 0.93628 0.0
H679 H 0.96869 0.95027 0.93903 0.0
C680 C 0.71314 0.84145 0.31983 0.0
C681 C 0.67047 0.80164 0.31212 0.0
C682 C 0.74808 0.83469 0.33064 0.0
C683 C 0.73882 0.78692 0.33441 0.0
C684 C 0.69378 0.74668 0.32823 0.0
C685 C 0.6605 0.75459 0.31668 0.0
C686 C 0.79618 0.87848 0.33641 0.0
C687 C 0.68192 0.69524 0.33266 0.0
C688 C 0.83925 0.75621 0.33919 0.0
C689 C 0.84161 0.75217 0.36176 0.0
C690 C 0.80754 0.77007 0.33006 0.0
C691 C 0.77678 0.77854 0.34387 0.0
C692 C 0.77979 0.77536 0.36667 0.0
C693 C 0.81256 0.76274 0.37533 0.0
C694 C 0.80607 0.77447 0.30565 0.0
C695 C 0.74681 0.783 0.38186 0.0
H696 H 0.72102 0.87781 0.31576 0.0
H697 H 0.62774 0.72402 0.31025 0.0
H698 H 0.80571 0.87662 0.3536 0.0
H699 H 0.82512 0.87906 0.3261 0.0
H700 H 0.79605 0.91298 0.33389 0.0
H701 H 0.70536 0.68645 0.3225 0.0
H702 H 0.68925 0.69112 0.34995 0.0
H703 H 0.64343 0.66852 0.32899 0.0
H704 H 0.86194 0.74839 0.32872 0.0
H705 H 0.814 0.75931 0.39283 0.0
H706 H 0.80899 0.80964 0.30125 0.0
H707 H 0.77084 0.74532 0.29931 0.0
H708 H 0.83569 0.77169 0.29741 0.0
H709 H 0.74922 0.81839 0.37859 0.0
H710 H 0.75567 0.78184 0.39925 0.0
H711 H 0.70862 0.7544 0.379 0.0
C712 C 0.99163 0.88556 0.69168 0.0
C713 C 0.00812 0.89845 0.71308 0.0
C714 C 0.94202 0.85611 0.68729 0.0
C715 C 0.90831 0.83913 0.70473 0.0
C716 C 0.92433 0.85575 0.72609 0.0
C717 C 0.97412 0.88505 0.73004 0.0
C718 C 0.92627 0.83988 0.66417 0.0
C719 C 0.88938 0.83957 0.74499 0.0
C720 C 0.77838 0.76762 0.68524 0.0
C721 C 0.77373 0.72172 0.68301 0.0
C722 C 0.8208 0.80629 0.69406 0.0
C723 C 0.85853 0.79807 0.70098 0.0
C724 C 0.85089 0.75025 0.70132 0.0
C725 C 0.80858 0.71263 0.69213 0.0
C726 C 0.82701 0.85644 0.69349 0.0
C727 C 0.8897 0.7396 0.709 0.0
H728 H 0.0176 0.89622 0.67848 0.0
H729 H 0.98636 0.89508 0.74665 0.0
H730 H 0.89327 0.84174 0.66015 0.0
H731 H 0.95513 0.8622 0.65223 0.0
H732 H 0.91737 0.80161 0.66239 0.0
H733 H 0.85634 0.84115 0.74067 0.0
H734 H 0.87782 0.80134 0.74904 0.0
H735 H 0.90603 0.86212 0.75971 0.0
H736 H 0.75165 0.77472 0.67778 0.0
H737 H 0.805 0.67713 0.69008 0.0
H738 H 0.84328 0.87369 0.67766 0.0
H739 H 0.85119 0.87982 0.70668 0.0
H740 H 0.7914 0.85473 0.69492 0.0
H741 H 0.92 0.7544 0.69709 0.0
H742 H 0.87577 0.70006 0.71072 0.0
H743 H 0.90464 0.75734 0.72489 0.0
C744 C 0.11346 0.12576 0.91362 0.0
C745 C 0.09768 0.15765 0.92061 0.0
C746 C 0.1518 0.12421 0.9242 0.0
C747 C 0.17423 0.15466 0.94239 0.0
C748 C 0.1626 0.191 0.94766 0.0
C749 C 0.12503 0.1926 0.93643 0.0
C750 C 0.16447 0.08631 0.9174 0.0
C751 C 0.1852 0.2241 0.96699 0.0
C752 C 0.20248 0.09837 0.99057 0.0
C753 C 0.25334 0.12336 0.99067 0.0
C754 C 0.17657 0.10795 0.97478 0.0
C755 C 0.20205 0.14256 0.95826 0.0
C756 C 0.25338 0.1666 0.95775 0.0
C757 C 0.27848 0.1573 0.97418 0.0
C758 C 0.12181 0.08186 0.97617 0.0
C759 C 0.28173 0.20242 0.93999 0.0
H760 H 0.09309 0.09902 0.9012 0.0
H761 H 0.11358 0.21772 0.94192 0.0
H762 H 0.20398 0.10017 0.91899 0.0
H763 H 0.1453 0.05415 0.92813 0.0
H764 H 0.15332 0.07436 0.90034 0.0
H765 H 0.17847 0.25515 0.96676 0.0
H766 H 0.1694 0.2032 0.98217 0.0
H767 H 0.22487 0.23841 0.96756 0.0
H768 H 0.18279 0.0723 0.00331 0.0
H769 H 0.31779 0.17643 0.97405 0.0
H770 H 0.10572 0.06093 0.96104 0.0
H771 H 0.10924 0.10858 0.97776 0.0
H772 H 0.10757 0.05649 0.99018 0.0
H773 H 0.26707 0.18638 0.92379 0.0
H774 H 0.32091 0.2139 0.94051 0.0
H775 H 0.278 0.2351 0.94167 0.0
C776 C 0.83818 0.98116 0.27649 0.0
C777 C 0.78906 0.96622 0.27974 0.0
C778 C 0.87481 0.02244 0.28703 0.0
C779 C 0.862 0.04862 0.30169 0.0
C780 C 0.81252 0.03478 0.30438 0.0
C781 C 0.77668 0.99409 0.29316 0.0
C782 C 0.92713 0.03657 0.28328 0.0
C783 C 0.79714 0.06087 0.32021 0.0
C784 C 0.95053 0.10884 0.34831 0.0
C785 C 0.97461 0.15782 0.3422 0.0
C786 C 0.91295 0.07336 0.33558 0.0
C787 C 0.89985 0.08688 0.31588 0.0
C788 C 0.92381 0.13637 0.30966 0.0
C789 C 0.9605 0.17141 0.32307 0.0
C790 C 0.88751 0.02125 0.34317 0.0
C791 C 0.9117 0.15206 0.28854 0.0
H792 H 0.84795 0.95981 0.2661 0.0
H793 H 0.73875 0.98237 0.29597 0.0
H794 H 0.94943 0.07611 0.28023 0.0
H795 H 0.94173 0.02837 0.29806 0.0
H796 H 0.93138 0.0168 0.26931 0.0
H797 H 0.75793 0.04889 0.31881 0.0
H798 H 0.80445 0.05381 0.33708 0.0
H799 H 0.8184 0.10061 0.31759 0.0
H800 H 0.961 0.09821 0.36319 0.0
H801 H 0.97931 0.20919 0.31821 0.0
H802 H 0.8934 0.99844 0.33128 0.0
H803 H 0.84784 0.00702 0.34416 0.0
H804 H 0.90051 0.01709 0.35936 0.0
H805 H 0.9197 0.13473 0.27469 0.0
H806 H 0.9326 0.19202 0.28633 0.0
H807 H 0.87243 0.13989 0.28787 0.0
C808 C 0.71261 0.82799 0.63956 0.0
C809 C 0.75556 0.8339 0.63029 0.0
C810 C 0.7084 0.86831 0.64573 0.0
C811 C 0.74761 0.91574 0.64201 0.0
C812 C 0.78971 0.92181 0.63123 0.0
C813 C 0.79351 0.88087 0.62585 0.0
C814 C 0.66343 0.86001 0.6577 0.0
C815 C 0.8319 0.97164 0.62644 0.0
C816 C 0.72849 0.02435 0.6498 0.0
C817 C 0.75038 0.04167 0.67009 0.0
C818 C 0.7273 0.98338 0.64031 0.0
C819 C 0.7472 0.95863 0.65173 0.0
C820 C 0.76791 0.97543 0.67257 0.0
C821 C 0.76991 0.01712 0.6813 0.0
C822 C 0.70614 0.96746 0.61784 0.0
C823 C 0.78807 0.94939 0.68568 0.0
H824 H 0.68341 0.79181 0.64336 0.0
H825 H 0.82679 0.88566 0.6187 0.0
H826 H 0.67266 0.87084 0.67499 0.0
H827 H 0.64936 0.88271 0.65075 0.0
H828 H 0.63419 0.82142 0.65717 0.0
H829 H 0.85847 0.97022 0.61516 0.0
H830 H 0.81892 0.99505 0.61921 0.0
H831 H 0.85088 0.98899 0.64183 0.0
H832 H 0.71385 0.04378 0.64108 0.0
H833 H 0.78669 0.03058 0.69705 0.0
H834 H 0.67689 0.92895 0.61809 0.0
H835 H 0.73462 0.97009 0.60656 0.0
H836 H 0.69116 0.98982 0.61132 0.0
H837 H 0.75942 0.91111 0.6882 0.0
H838 H 0.80182 0.96643 0.70184 0.0
H839 H 0.81816 0.94908 0.67669 0.0
C840 C 0.93305 0.77957 0.04137 0.0
C841 C 0.88925 0.75184 0.0302 0.0
C842 C 0.97527 0.77901 0.03507 0.0
C843 C 0.97402 0.75167 0.0166 0.0
C844 C 0.92918 0.72123 0.00617 0.0
C845 C 0.88719 0.721 0.01338 0.0
C846 C 0.02187 0.81039 0.04723 0.0
C847 C 0.92628 0.69273 0.986 0.0
C848 C 0.08849 0.80665 0.98211 0.0
C849 C 0.10611 0.7749 0.98598 0.0
C850 C 0.04523 0.79901 0.99176 0.0
C851 C 0.0201 0.75983 0.00642 0.0
C852 C 0.03849 0.72831 0.0108 0.0
C853 C 0.08082 0.73565 0.00016 0.0
C854 C 0.0263 0.83274 0.98613 0.0
C855 C 0.01393 0.68745 0.02699 0.0
H856 H 0.93488 0.80358 0.05433 0.0
H857 H 0.85369 0.70014 0.00439 0.0
H858 H 0.0428 0.79132 0.04929 0.0
H859 H 0.04471 0.84396 0.03781 0.0
H860 H 0.01501 0.82094 0.06352 0.0
H861 H 0.88821 0.66684 0.98128 0.0
H862 H 0.94423 0.71822 0.97229 0.0
H863 H 0.94566 0.67226 0.98842 0.0
H864 H 0.10811 0.83696 0.97111 0.0
H865 H 0.09495 0.71152 0.00336 0.0
H866 H 0.02734 0.85368 0.00075 0.0
H867 H 0.98793 0.81163 0.98075 0.0
H868 H 0.04786 0.85878 0.97307 0.0
H869 H 0.01126 0.7021 0.04301 0.0
H870 H 0.03374 0.66723 0.02913 0.0
H871 H 0.97642 0.66166 0.02162 0.0
C872 C 0.08183 0.90583 0.3828 0.0
C873 C 0.05432 0.85863 0.37454 0.0
C874 C 0.11988 0.94251 0.37068 0.0
C875 C 0.12986 0.93211 0.3495 0.0
C876 C 0.1038 0.88393 0.34151 0.0
C877 C 0.06668 0.84761 0.35425 0.0
C878 C 0.14761 0.99302 0.38009 0.0
C879 C 0.1127 0.87142 0.31891 0.0
C880 C 0.17937 0.03916 0.31061 0.0
C881 C 0.2288 0.05359 0.30973 0.0
C882 C 0.14668 0.9987 0.32287 0.0
C883 C 0.16392 0.97257 0.33503 0.0
C884 C 0.21371 0.9866 0.33403 0.0
C885 C 0.24548 0.02664 0.3212 0.0
C886 C 0.09373 0.98446 0.32311 0.0
C887 C 0.23372 0.96042 0.3471 0.0
H888 H 0.07255 0.91447 0.39853 0.0
H889 H 0.04519 0.81133 0.34768 0.0
H890 H 0.18721 0.00807 0.37798 0.0
H891 H 0.13768 0.01724 0.37128 0.0
H892 H 0.1398 0.99378 0.39767 0.0
H893 H 0.09329 0.83166 0.316 0.0
H894 H 0.10013 0.88846 0.30674 0.0
H895 H 0.15201 0.88601 0.3161 0.0
H896 H 0.16617 0.05961 0.30169 0.0
H897 H 0.28372 0.03784 0.32076 0.0
H898 H 0.08313 0.98943 0.33971 0.0
H899 H 0.07087 0.94556 0.31885 0.0
H900 H 0.0856 0.0063 0.31157 0.0
H901 H 0.22948 0.96504 0.36472 0.0
H902 H 0.27272 0.97411 0.34366 0.0
H903 H 0.2131 0.92098 0.34361 0.0
C904 C 0.16552 0.1131 0.70288 0.0
C905 C 0.14741 0.10218 0.72422 0.0
C906 C 0.16363 0.14963 0.69084 0.0
C907 C 0.14396 0.1765 0.70049 0.0
C908 C 0.12992 0.16873 0.72266 0.0
C909 C 0.13143 0.13142 0.7342 0.0
C910 C 0.17873 0.15644 0.66722 0.0
C911 C 0.10985 0.19733 0.73375 0.0
C912 C 0.15347 0.28503 0.6697 0.0
C913 C 0.10742 0.26472 0.66003 0.0
C914 C 0.1659 0.25708 0.68314 0.0
C915 C 0.13179 0.2075 0.68668 0.0
C916 C 0.0854 0.18683 0.67686 0.0
C917 C 0.0737 0.21572 0.66384 0.0
C918 C 0.21536 0.2806 0.69363 0.0
C919 C 0.0481 0.13394 0.67993 0.0
H920 H 0.17786 0.09073 0.69496 0.0
H921 H 0.1178 0.12361 0.75075 0.0
H922 H 0.14593 0.14162 0.65679 0.0
H923 H 0.2015 0.19549 0.66327 0.0
H924 H 0.19916 0.13767 0.66299 0.0
H925 H 0.10808 0.19263 0.7517 0.0
H926 H 0.13234 0.23651 0.72993 0.0
H927 H 0.07267 0.18503 0.72765 0.0
H928 H 0.17969 0.32292 0.66693 0.0
H929 H 0.03817 0.19954 0.65635 0.0
H930 H 0.23528 0.26205 0.6883 0.0
H931 H 0.21151 0.2768 0.71158 0.0
H932 H 0.23747 0.31973 0.68955 0.0
H933 H 0.06311 0.11086 0.67441 0.0
H934 H 0.01409 0.12322 0.67081 0.0
H935 H 0.03906 0.12622 0.69744 0.0
loop_
_geom_bond_atom_site_label_1
_geom_bond_atom_site_label_2
_geom_bond_distance
_geom_bond_site_symmetry_2
_ccdc_geom_bond_type
Mg0 O1 2.028 . S
Mg0 O7 1.986 . S
Mg0 O9 2.114 . S
Mg0 O10 2.251 . S
Mg0 O13 2.010 . S
O1 Mg0 2.028 . S
O1 C4 1.250 . S
O2 Mg3 2.028 . S
O2 C4 1.248 . S
Mg3 O2 2.028 . S
Mg3 O8 2.032 . S
Mg3 O10 2.079 . S
C4 O1 1.250 . S
C4 O2 1.248 . S
C5 O6 1.264 . S
C5 O13 1.249 . S
O6 C5 1.264 . S
O7 Mg0 1.986 . S
O7 C11 1.246 . S
O8 Mg3 2.032 . S
O8 C11 1.259 . S
O9 Mg0 2.114 . S
O9 C12 1.252 . S
O10 Mg0 2.251 . S
O10 Mg3 2.079 . S
O10 C12 1.273 . S
C11 O7 1.246 . S
C11 O8 1.259 . S
C12 O9 1.252 . S
C12 O10 1.273 . S
O13 Mg0 2.010 . S
O13 C5 1.249 . S
Mg14 O15 2.028 . S
Mg14 O21 1.986 . S
Mg14 O23 2.114 . S
Mg14 O24 2.251 . S
Mg14 O27 2.010 . S
O15 Mg14 2.028 . S
O15 C18 1.250 . S
O16 Mg17 2.028 . S
O16 C18 1.248 . S
Mg17 O16 2.028 . S
Mg17 O22 2.032 . S
Mg17 O24 2.079 . S
C18 O15 1.250 . S
C18 O16 1.248 . S
C19 O20 1.264 . S
C19 O27 1.249 . S
O20 C19 1.264 . S
O21 Mg14 1.986 . S
O21 C25 1.246 . S
O22 Mg17 2.032 . S
O22 C25 1.259 . S
O23 Mg14 2.114 . S
O23 C26 1.252 . S
O24 Mg14 2.251 . S
O24 Mg17 2.079 . S
O24 C26 1.273 . S
C25 O21 1.246 . S
C25 O22 1.259 . S
C26 O23 1.252 . S
C26 O24 1.273 . S
O27 Mg14 2.010 . S
O27 C19 1.249 . S
Mg28 O29 2.028 . S
Mg28 O35 1.986 . S
Mg28 O37 2.114 . S
Mg28 O38 2.251 . S
Mg28 O41 2.010 . S
O29 Mg28 2.028 . S
O29 C32 1.250 . S
O30 Mg31 2.028 . S
O30 C32 1.248 . S
Mg31 O30 2.028 . S
Mg31 O36 2.032 . S
Mg31 O38 2.079 . S
C32 O29 1.250 . S
C32 O30 1.248 . S
C33 O34 1.264 . S
C33 O41 1.249 . S
O34 C33 1.264 . S
O35 Mg28 1.986 . S
O35 C39 1.246 . S
O36 Mg31 2.032 . S
O36 C39 1.259 . S
O37 Mg28 2.114 . S
O37 C40 1.252 . S
O38 Mg28 2.251 . S
O38 Mg31 2.079 . S
O38 C40 1.273 . S
C39 O35 1.246 . S
C39 O36 1.259 . S
C40 O37 1.252 . S
C40 O38 1.273 . S
O41 Mg28 2.010 . S
O41 C33 1.249 . S
Mg42 O43 2.028 . S
Mg42 O49 1.986 . S
Mg42 O51 2.114 . S
Mg42 O52 2.251 . S
Mg42 O55 2.010 . S
O43 Mg42 2.028 . S
O43 C46 1.250 . S
O44 Mg45 2.028 . S
O44 C46 1.248 . S
Mg45 O44 2.028 . S
Mg45 O50 2.032 . S
Mg45 O52 2.079 . S
C46 O43 1.250 . S
C46 O44 1.248 . S
C47 O48 1.264 . S
C47 O55 1.249 . S
O48 C47 1.264 . S
O49 Mg42 1.986 . S
O49 C53 1.246 . S
O50 Mg45 2.032 . S
O50 C53 1.259 . S
O51 Mg42 2.114 . S
O51 C54 1.252 . S
O52 Mg42 2.251 . S
O52 Mg45 2.079 . S
O52 C54 1.273 . S
C53 O49 1.246 . S
C53 O50 1.259 . S
C54 O51 1.252 . S
C54 O52 1.273 . S
O55 Mg42 2.010 . S
O55 C47 1.249 . S
Mg56 O57 2.028 . S
Mg56 O63 1.986 . S
Mg56 O65 2.114 . S
Mg56 O66 2.251 . S
Mg56 O69 2.010 . S
O57 Mg56 2.028 . S
O57 C60 1.250 . S
O58 Mg59 2.028 . S
O58 C60 1.248 . S
Mg59 O58 2.028 . S
Mg59 O64 2.032 . S
Mg59 O66 2.079 . S
C60 O57 1.250 . S
C60 O58 1.248 . S
C61 O62 1.264 . S
C61 O69 1.249 . S
O62 C61 1.264 . S
O63 Mg56 1.986 . S
O63 C67 1.246 . S
O64 Mg59 2.032 . S
O64 C67 1.259 . S
O65 Mg56 2.114 . S
O65 C68 1.252 . S
O66 Mg56 2.251 . S
O66 Mg59 2.079 . S
O66 C68 1.273 . S
C67 O63 1.246 . S
C67 O64 1.259 . S
C68 O65 1.252 . S
C68 O66 1.273 . S
O69 Mg56 2.010 . S
O69 C61 1.249 . S
Mg70 O71 2.028 . S
Mg70 O77 1.986 . S
Mg70 O79 2.114 . S
Mg70 O80 2.251 . S
Mg70 O83 2.010 . S
O71 Mg70 2.028 . S
O71 C74 1.250 . S
O72 Mg73 2.028 . S
O72 C74 1.248 . S
Mg73 O72 2.028 . S
Mg73 O78 2.032 . S
Mg73 O80 2.079 . S
C74 O71 1.250 . S
C74 O72 1.248 . S
C75 O76 1.264 . S
C75 O83 1.249 . S
O76 C75 1.264 . S
O77 Mg70 1.986 . S
O77 C81 1.246 . S
O78 Mg73 2.032 . S
O78 C81 1.259 . S
O79 Mg70 2.114 . S
O79 C82 1.252 . S
O80 Mg70 2.251 . S
O80 Mg73 2.079 . S
O80 C82 1.273 . S
C81 O77 1.246 . S
C81 O78 1.259 . S
C82 O79 1.252 . S
C82 O80 1.273 . S
O83 Mg70 2.010 . S
O83 C75 1.249 . S
Mg84 O85 2.028 . S
Mg84 O91 1.986 . S
Mg84 O93 2.114 . S
Mg84 O94 2.251 . S
Mg84 O97 2.010 . S
O85 Mg84 2.028 . S
O85 C88 1.250 . S
O86 Mg87 2.028 . S
O86 C88 1.248 . S
Mg87 O86 2.028 . S
Mg87 O92 2.032 . S
Mg87 O94 2.079 . S
C88 O85 1.250 . S
C88 O86 1.248 . S
C89 O90 1.264 . S
C89 O97 1.249 . S
O90 C89 1.264 . S
O91 Mg84 1.986 . S
O91 C95 1.246 . S
O92 Mg87 2.032 . S
O92 C95 1.259 . S
O93 Mg84 2.114 . S
O93 C96 1.252 . S
O94 Mg84 2.251 . S
O94 Mg87 2.079 . S
O94 C96 1.273 . S
C95 O91 1.246 . S
C95 O92 1.259 . S
C96 O93 1.252 . S
C96 O94 1.273 . S
O97 Mg84 2.010 . S
O97 C89 1.249 . S
Mg98 O99 2.028 . S
Mg98 O105 1.986 . S
Mg98 O107 2.114 . S
Mg98 O108 2.251 . S
Mg98 O111 2.010 . S
O99 Mg98 2.028 . S
O99 C102 1.250 . S
O100 Mg101 2.028 . S
O100 C102 1.248 . S
Mg101 O100 2.028 . S
Mg101 O106 2.032 . S
Mg101 O108 2.079 . S
C102 O99 1.250 . S
C102 O100 1.248 . S
C103 O104 1.264 . S
C103 O111 1.249 . S
O104 C103 1.264 . S
O105 Mg98 1.986 . S
O105 C109 1.246 . S
O106 Mg101 2.032 . S
O106 C109 1.259 . S
O107 Mg98 2.114 . S
O107 C110 1.252 . S
O108 Mg98 2.251 . S
O108 Mg101 2.079 . S
O108 C110 1.273 . S
C109 O105 1.246 . S
C109 O106 1.259 . S
C110 O107 1.252 . S
C110 O108 1.273 . S
O111 Mg98 2.010 . S
O111 C103 1.249 . S
Mg112 O113 2.028 . S
Mg112 O119 1.986 . S
Mg112 O121 2.114 . S
Mg112 O122 2.251 . S
Mg112 O125 2.010 . S
O113 Mg112 2.028 . S
O113 C116 1.250 . S
O114 Mg115 2.028 . S
O114 C116 1.248 . S
Mg115 O114 2.028 . S
Mg115 O120 2.032 . S
Mg115 O122 2.079 . S
C116 O113 1.250 . S
C116 O114 1.248 . S
C117 O118 1.264 . S
C117 O125 1.249 . S
O118 C117 1.264 . S
O119 Mg112 1.986 . S
O119 C123 1.246 . S
O120 Mg115 2.032 . S
O120 C123 1.259 . S
O121 Mg112 2.114 . S
O121 C124 1.252 . S
O122 Mg112 2.251 . S
O122 Mg115 2.079 . S
O122 C124 1.273 . S
C123 O119 1.246 . S
C123 O120 1.259 . S
C124 O121 1.252 . S
C124 O122 1.273 . S
O125 Mg112 2.010 . S
O125 C117 1.249 . S
Mg126 O127 2.028 . S
Mg126 O133 1.986 . S
Mg126 O135 2.114 . S
Mg126 O136 2.251 . S
Mg126 O139 2.010 . S
O127 Mg126 2.028 . S
O127 C130 1.250 . S
O128 Mg129 2.028 . S
O128 C130 1.248 . S
Mg129 O128 2.028 . S
Mg129 O134 2.032 . S
Mg129 O136 2.079 . S
C130 O127 1.250 . S
C130 O128 1.248 . S
C131 O132 1.264 . S
C131 O139 1.249 . S
O132 C131 1.264 . S
O133 Mg126 1.986 . S
O133 C137 1.246 . S
O134 Mg129 2.032 . S
O134 C137 1.259 . S
O135 Mg126 2.114 . S
O135 C138 1.252 . S
O136 Mg126 2.251 . S
O136 Mg129 2.079 . S
O136 C138 1.273 . S
C137 O133 1.246 . S
C137 O134 1.259 . S
C138 O135 1.252 . S
C138 O136 1.273 . S
O139 Mg126 2.010 . S
O139 C131 1.249 . S
Mg140 O141 2.028 . S
Mg140 O147 1.986 . S
Mg140 O149 2.114 . S
Mg140 O150 2.251 . S
Mg140 O153 2.010 . S
O141 Mg140 2.028 . S
O141 C144 1.250 . S
O142 Mg143 2.028 . S
O142 C144 1.248 . S
Mg143 O142 2.028 . S
Mg143 O148 2.032 . S
Mg143 O150 2.079 . S
C144 O141 1.250 . S
C144 O142 1.248 . S
C145 O146 1.264 . S
C145 O153 1.249 . S
O146 C145 1.264 . S
O147 Mg140 1.986 . S
O147 C151 1.246 . S
O148 Mg143 2.032 . S
O148 C151 1.259 . S
O149 Mg140 2.114 . S
O149 C152 1.252 . S
O150 Mg140 2.251 . S
O150 Mg143 2.079 . S
O150 C152 1.273 . S
C151 O147 1.246 . S
C151 O148 1.259 . S
C152 O149 1.252 . S
C152 O150 1.273 . S
O153 Mg140 2.010 . S
O153 C145 1.249 . S
Mg154 O155 2.028 . S
Mg154 O161 1.986 . S
Mg154 O163 2.114 . S
Mg154 O164 2.251 . S
Mg154 O167 2.010 . S
O155 Mg154 2.028 . S
O155 C158 1.250 . S
O156 Mg157 2.028 . S
O156 C158 1.248 . S
Mg157 O156 2.028 . S
Mg157 O162 2.032 . S
Mg157 O164 2.079 . S
C158 O155 1.250 . S
C158 O156 1.248 . S
C159 O160 1.264 . S
C159 O167 1.249 . S
O160 C159 1.264 . S
O161 Mg154 1.986 . S
O161 C165 1.246 . S
O162 Mg157 2.032 . S
O162 C165 1.259 . S
O163 Mg154 2.114 . S
O163 C166 1.252 . S
O164 Mg154 2.251 . S
O164 Mg157 2.079 . S
O164 C166 1.273 . S
C165 O161 1.246 . S
C165 O162 1.259 . S
C166 O163 1.252 . S
C166 O164 1.273 . S
O167 Mg154 2.010 . S
O167 C159 1.249 . S
C168 C169 1.391 . S
C168 C170 1.394 . S
C168 H184 0.931 . S
C169 C168 1.391 . S
C169 C173 1.376 . S
C170 C168 1.394 . S
C170 C171 1.369 . S
C170 C174 1.531 . S
C171 C170 1.369 . S
C171 C172 1.410 . S
C171 C179 1.503 . S
C172 C171 1.410 . S
C172 C173 1.392 . S
C172 C175 1.511 . S
C173 C169 1.376 . S
C173 C172 1.392 . S
C173 H185 0.929 . S
C174 C170 1.531 . S
C174 H186 0.960 . S
C174 H187 0.962 . S
C174 H188 0.960 . S
C175 C172 1.511 . S
C175 H189 0.961 1_554 S
C175 H190 0.961 . S
C175 H191 0.961 . S
C176 C177 1.370 . S
C176 C178 1.363 . S
C176 H192 0.931 . S
C177 C176 1.370 . S
C177 C181 1.408 . S
C178 C176 1.363 . S
C178 C179 1.370 . S
C178 C182 1.524 1_554 S
C179 C171 1.503 . S
C179 C178 1.370 . S
C179 C180 1.403 . S
C180 C179 1.403 . S
C180 C181 1.404 . S
C180 C183 1.539 . S
C181 C177 1.408 . S
C181 C180 1.404 . S
C181 H193 0.930 . S
C182 C178 1.524 1_556 S
C182 H194 0.956 1_556 S
C182 H195 0.961 . S
C182 H196 0.961 . S
C183 C180 1.539 . S
C183 H197 0.958 . S
C183 H198 0.961 . S
C183 H199 0.960 . S
H184 C168 0.931 . S
H185 C173 0.929 . S
H186 C174 0.960 . S
H187 C174 0.962 . S
H188 C174 0.960 . S
H189 C175 0.961 1_556 S
H190 C175 0.961 . S
H191 C175 0.961 . S
H192 C176 0.931 . S
H193 C181 0.930 . S
H194 C182 0.956 1_554 S
H195 C182 0.961 . S
H196 C182 0.961 . S
H197 C183 0.958 . S
H198 C183 0.961 . S
H199 C183 0.960 . S
C200 C201 1.391 . S
C200 C202 1.394 . S
C200 H216 0.931 . S
C201 C200 1.391 . S
C201 C205 1.376 . S
C202 C200 1.394 . S
C202 C203 1.369 . S
C202 C206 1.531 . S
C203 C202 1.369 . S
C203 C204 1.410 1_455 S
C203 C211 1.503 1_455 S
C204 C203 1.410 1_655 S
C204 C205 1.392 1_655 S
C204 C207 1.511 . S
C205 C201 1.376 . S
C205 C204 1.392 1_455 S
C205 H217 0.929 1_455 S
C206 C202 1.531 . S
C206 H218 0.960 . S
C206 H219 0.962 . S
C206 H220 0.960 . S
C207 C204 1.511 . S
C207 H221 0.961 . S
C207 H222 0.961 . S
C207 H223 0.961 . S
C208 C209 1.370 . S
C208 C210 1.363 . S
C208 H224 0.931 . S
C209 C208 1.370 . S
C209 C213 1.408 . S
C210 C208 1.363 . S
C210 C211 1.370 . S
C210 C214 1.524 . S
C211 C203 1.503 1_655 S
C211 C210 1.370 . S
C211 C212 1.403 . S
C212 C211 1.403 . S
C212 C213 1.404 . S
C212 C215 1.539 . S
C213 C209 1.408 . S
C213 C212 1.404 . S
C213 H225 0.930 . S
C214 C210 1.524 . S
C214 H226 0.956 1_655 S
C214 H227 0.961 . S
C214 H228 0.961 . S
C215 C212 1.539 . S
C215 H229 0.957 1_655 S
C215 H230 0.961 . S
C215 H231 0.960 . S
H216 C200 0.931 . S
H217 C205 0.929 1_655 S
H218 C206 0.960 . S
H219 C206 0.962 . S
H220 C206 0.960 . S
H221 C207 0.961 . S
H222 C207 0.961 . S
H223 C207 0.961 . S
H224 C208 0.931 . S
H225 C213 0.930 . S
H226 C214 0.956 1_455 S
H227 C214 0.961 . S
H228 C214 0.961 . S
H229 C215 0.957 1_455 S
H230 C215 0.961 . S
H231 C215 0.960 . S
C232 C233 1.391 . S
C232 C234 1.394 1_565 S
C232 H248 0.953 . S
C233 C232 1.391 . S
C233 C237 1.376 . S
C234 C232 1.394 1_545 S
C234 C235 1.369 1_545 S
C234 C238 1.531 . S
C235 C234 1.369 1_565 S
C235 C236 1.410 . S
C235 C243 1.503 1_565 S
C236 C235 1.410 . S
C236 C237 1.392 . S
C236 C239 1.511 . S
C237 C233 1.376 . S
C237 C236 1.392 . S
C237 H249 0.929 . S
C238 C234 1.531 . S
C238 H250 0.960 . S
C238 H251 0.962 . S
C238 H252 0.960 . S
C239 C236 1.511 . S
C239 H253 0.961 . S
C239 H254 0.961 . S
C239 H255 0.961 . S
C240 C241 1.370 . S
C240 C242 1.363 . S
C240 H256 0.931 . S
C241 C240 1.370 . S
C241 C245 1.408 . S
C242 C240 1.363 . S
C242 C243 1.370 . S
C242 C246 1.524 . S
C243 C235 1.503 1_545 S
C243 C242 1.370 . S
C243 C244 1.403 . S
C244 C243 1.403 . S
C244 C245 1.404 . S
C244 C247 1.539 1_545 S
C245 C241 1.408 . S
C245 C244 1.404 . S
C245 H257 0.930 . S
C246 C242 1.524 . S
C246 H258 0.956 . S
C246 H259 0.961 1_545 S
C246 H260 0.961 . S
C247 C244 1.539 1_565 S
C247 H261 0.958 1_565 S
C247 H262 0.961 . S
C247 H263 0.960 . S
H248 C232 0.953 . S
H249 C237 0.929 . S
H250 C238 0.960 . S
H251 C238 0.962 . S
H252 C238 0.960 . S
H253 C239 0.961 . S
H254 C239 0.961 . S
H255 C239 0.961 . S
H256 C240 0.931 . S
H257 C245 0.930 . S
H258 C246 0.956 . S
H259 C246 0.961 1_565 S
H260 C246 0.961 . S
H261 C247 0.958 1_545 S
H262 C247 0.961 . S
H263 C247 0.960 . S
C264 C265 1.391 . S
C264 C266 1.394 . S
C264 H280 0.931 . S
C265 C264 1.391 . S
C265 C269 1.376 . S
C266 C264 1.394 . S
C266 C267 1.369 . S
C266 C270 1.531 . S
C267 C266 1.369 . S
C267 C268 1.410 . S
C267 C275 1.503 . S
C268 C267 1.410 . S
C268 C269 1.392 . S
C268 C271 1.511 . S
C269 C265 1.376 . S
C269 C268 1.392 . S
C269 H281 0.929 . S
C270 C266 1.531 . S
C270 H282 0.960 . S
C270 H283 0.962 . S
C270 H284 0.960 . S
C271 C268 1.511 . S
C271 H285 0.961 . S
C271 H286 0.961 . S
C271 H287 0.961 . S
C272 C273 1.370 . S
C272 C274 1.363 . S
C272 H288 0.931 . S
C273 C272 1.370 . S
C273 C277 1.408 . S
C274 C272 1.363 . S
C274 C275 1.370 . S
C274 C278 1.524 . S
C275 C267 1.503 . S
C275 C274 1.370 . S
C275 C276 1.403 . S
C276 C275 1.403 . S
C276 C277 1.404 . S
C276 C279 1.539 . S
C277 C273 1.408 . S
C277 C276 1.404 . S
C277 H289 0.930 . S
C278 C274 1.524 . S
C278 H290 0.956 . S
C278 H291 0.961 . S
C278 H292 0.961 . S
C279 C276 1.539 . S
C279 H293 0.958 . S
C279 H294 0.961 . S
C279 H295 0.960 . S
H280 C264 0.931 . S
H281 C269 0.929 . S
H282 C270 0.960 . S
H283 C270 0.962 . S
H284 C270 0.960 . S
H285 C271 0.961 . S
H286 C271 0.961 . S
H287 C271 0.961 . S
H288 C272 0.931 . S
H289 C277 0.930 . S
H290 C278 0.956 . S
H291 C278 0.961 . S
H292 C278 0.961 . S
H293 C279 0.958 . S
H294 C279 0.961 . S
H295 C279 0.960 . S
C296 C297 1.391 . S
C296 C298 1.394 1_655 S
C296 H312 0.943 . S
C297 C296 1.391 . S
C297 C301 1.376 . S
C298 C296 1.394 1_455 S
C298 C299 1.369 1_455 S
C298 C302 1.531 . S
C299 C298 1.369 1_655 S
C299 C300 1.410 . S
C299 C307 1.503 1_655 S
C300 C299 1.410 . S
C300 C301 1.392 . S
C300 C303 1.511 . S
C301 C297 1.376 . S
C301 C300 1.392 . S
C301 H313 0.929 . S
C302 C298 1.531 . S
C302 H314 0.960 . S
C302 H315 0.962 . S
C302 H316 0.960 . S
C303 C300 1.511 . S
C303 H317 0.961 . S
C303 H318 0.961 . S
C303 H319 0.961 . S
C304 C305 1.370 . S
C304 C306 1.363 . S
C304 H320 0.931 1_556 S
C305 C304 1.370 . S
C305 C309 1.408 . S
C306 C304 1.363 . S
C306 C307 1.370 . S
C306 C310 1.524 1_556 S
C307 C299 1.503 1_455 S
C307 C306 1.370 . S
C307 C308 1.403 . S
C308 C307 1.403 . S
C308 C309 1.404 . S
C308 C311 1.539 1_455 S
C309 C305 1.408 . S
C309 C308 1.404 . S
C309 H321 0.930 . S
C310 C306 1.524 1_554 S
C310 H322 0.956 . S
C310 H323 0.961 1_455 S
C310 H324 0.961 . S
C311 C308 1.539 1_655 S
C311 H325 0.958 1_655 S
C311 H326 0.961 . S
C311 H327 0.960 . S
H312 C296 0.943 . S
H313 C301 0.929 . S
H314 C302 0.960 . S
H315 C302 0.962 . S
H316 C302 0.960 . S
H317 C303 0.961 . S
H318 C303 0.961 . S
H319 C303 0.961 . S
H320 C304 0.931 1_554 S
H321 C309 0.930 . S
H322 C310 0.956 . S
H323 C310 0.961 1_655 S
H324 C310 0.961 . S
H325 C311 0.958 1_455 S
H326 C311 0.961 . S
H327 C311 0.960 . S
C328 C329 1.391 . S
C328 C330 1.394 1_545 S
C328 H344 0.931 . S
C329 C328 1.391 . S
C329 C333 1.376 . S
C330 C328 1.394 1_565 S
C330 C331 1.369 1_565 S
C330 C334 1.531 . S
C331 C330 1.369 1_545 S
C331 C332 1.410 . S
C331 C339 1.503 1_545 S
C332 C331 1.410 . S
C332 C333 1.392 . S
C332 C335 1.511 . S
C333 C329 1.376 . S
C333 C332 1.392 . S
C333 H345 0.929 . S
C334 C330 1.531 . S
C334 H346 0.960 . S
C334 H347 0.962 . S
C334 H348 0.960 . S
C335 C332 1.511 . S
C335 H349 0.961 . S
C335 H350 0.961 . S
C335 H351 0.961 . S
C336 C337 1.370 . S
C336 C338 1.360 1_565 S
C336 H352 0.931 . S
C337 C336 1.370 . S
C337 C341 1.408 . S
C338 C336 1.360 1_545 S
C338 C339 1.371 1_545 S
C338 C342 1.527 . S
C339 C331 1.503 1_565 S
C339 C338 1.371 1_565 S
C339 C340 1.403 . S
C340 C339 1.403 . S
C340 C341 1.404 . S
C340 C343 1.539 . S
C341 C337 1.408 . S
C341 C340 1.404 . S
C341 H353 0.930 . S
C342 C338 1.527 . S
C342 H354 0.956 . S
C342 H355 0.961 . S
C342 H356 0.961 . S
C343 C340 1.539 . S
C343 H357 0.958 . S
C343 H358 0.961 . S
C343 H359 0.960 . S
H344 C328 0.931 . S
H345 C333 0.929 . S
H346 C334 0.960 . S
H347 C334 0.962 . S
H348 C334 0.960 . S
H349 C335 0.961 . S
H350 C335 0.961 . S
H351 C335 0.961 . S
H352 C336 0.931 . S
H353 C341 0.930 . S
H354 C342 0.956 . S
H355 C342 0.961 . S
H356 C342 0.961 . S
H357 C343 0.958 . S
H358 C343 0.961 . S
H359 C343 0.960 . S
C360 C361 1.391 . S
C360 C362 1.394 . S
C360 H376 0.931 . S
C361 C360 1.391 . S
C361 C365 1.376 . S
C362 C360 1.394 . S
C362 C363 1.369 . S
C362 C366 1.531 . S
C363 C362 1.369 . S
C363 C364 1.410 . S
C363 C371 1.503 . S
C364 C363 1.410 . S
C364 C365 1.392 . S
C364 C367 1.511 . S
C365 C361 1.376 . S
C365 C364 1.392 . S
C365 H377 0.929 . S
C366 C362 1.531 . S
C366 H378 0.960 . S
C366 H379 0.962 . S
C366 H380 0.960 . S
C367 C364 1.511 . S
C367 H381 0.961 . S
C367 H382 0.961 . S
C367 H383 0.961 . S
C368 C369 1.370 . S
C368 C370 1.363 . S
C368 H384 0.931 . S
C369 C368 1.370 . S
C369 C373 1.408 . S
C370 C368 1.363 . S
C370 C371 1.370 . S
C370 C374 1.524 . S
C371 C363 1.503 . S
C371 C370 1.370 . S
C371 C372 1.403 . S
C372 C371 1.403 . S
C372 C373 1.404 . S
C372 C375 1.539 . S
C373 C369 1.408 . S
C373 C372 1.404 . S
C373 H385 0.930 . S
C374 C370 1.524 . S
C374 H386 0.956 . S
C374 H387 0.961 . S
C374 H388 0.961 . S
C375 C372 1.539 . S
C375 H389 0.958 . S
C375 H390 0.961 . S
C375 H391 0.960 . S
H376 C360 0.931 . S
H377 C365 0.929 . S
H378 C366 0.960 . S
H379 C366 0.962 . S
H380 C366 0.960 . S
H381 C367 0.961 . S
H382 C367 0.961 . S
H383 C367 0.961 . S
H384 C368 0.931 . S
H385 C373 0.930 . S
H386 C374 0.956 . S
H387 C374 0.961 . S
H388 C374 0.961 . S
H389 C375 0.958 . S
H390 C375 0.961 . S
H391 C375 0.960 . S
C392 C393 1.391 . S
C392 C394 1.394 . S
C392 H408 0.931 . S
C393 C392 1.391 . S
C393 C397 1.376 . S
C394 C392 1.394 . S
C394 C395 1.369 . S
C394 C398 1.531 . S
C395 C394 1.369 . S
C395 C396 1.410 . S
C395 C403 1.503 . S
C396 C395 1.410 . S
C396 C397 1.392 . S
C396 C399 1.511 . S
C397 C393 1.376 . S
C397 C396 1.392 . S
C397 H409 0.929 . S
C398 C394 1.531 . S
C398 H410 0.960 . S
C398 H411 0.962 . S
C398 H412 0.960 . S
C399 C396 1.511 . S
C399 H413 0.961 . S
C399 H414 0.961 . S
C399 H415 0.961 . S
C400 C401 1.370 . S
C400 C402 1.363 . S
C400 H416 0.931 . S
C401 C400 1.370 . S
C401 C405 1.408 . S
C402 C400 1.363 . S
C402 C403 1.370 . S
C402 C406 1.524 . S
C403 C395 1.503 . S
C403 C402 1.370 . S
C403 C404 1.403 . S
C404 C403 1.403 . S
C404 C405 1.404 . S
C404 C407 1.539 . S
C405 C401 1.408 . S
C405 C404 1.404 . S
C405 H417 0.930 . S
C406 C402 1.524 . S
C406 H418 0.956 . S
C406 H419 0.961 . S
C406 H420 0.961 . S
C407 C404 1.539 . S
C407 H421 0.958 . S
C407 H422 0.961 . S
C407 H423 0.960 . S
H408 C392 0.931 . S
H409 C397 0.929 . S
H410 C398 0.960 . S
H411 C398 0.962 . S
H412 C398 0.960 . S
H413 C399 0.961 . S
H414 C399 0.961 . S
H415 C399 0.961 . S
H416 C400 0.931 . S
H417 C405 0.930 . S
H418 C406 0.956 . S
H419 C406 0.961 . S
H420 C406 0.961 . S
H421 C407 0.958 . S
H422 C407 0.961 . S
H423 C407 0.960 . S
C424 C425 1.391 . S
C424 C426 1.394 . S
C424 H440 0.931 . S
C425 C424 1.391 . S
C425 C429 1.376 . S
C426 C424 1.394 . S
C426 C427 1.369 . S
C426 C430 1.531 . S
C427 C426 1.369 . S
C427 C428 1.410 . S
C427 C435 1.503 . S
C428 C427 1.410 . S
C428 C429 1.392 . S
C428 C431 1.511 . S
C429 C425 1.376 . S
C429 C428 1.392 . S
C429 H441 0.929 . S
C430 C426 1.531 . S
C430 H442 0.960 . S
C430 H443 0.962 . S
C430 H444 0.960 . S
C431 C428 1.511 . S
C431 H445 0.961 . S
C431 H446 0.961 . S
C431 H447 0.961 . S
C432 C433 1.370 . S
C432 C434 1.363 . S
C432 H448 0.931 . S
C433 C432 1.370 . S
C433 C437 1.408 . S
C434 C432 1.363 . S
C434 C435 1.370 . S
C434 C438 1.524 . S
C435 C427 1.503 . S
C435 C434 1.370 . S
C435 C436 1.403 . S
C436 C435 1.403 . S
C436 C437 1.404 . S
C436 C439 1.539 . S
C437 C433 1.408 . S
C437 C436 1.404 . S
C437 H449 0.930 . S
C438 C434 1.524 . S
C438 H450 0.956 . S
C438 H451 0.961 . S
C438 H452 0.961 . S
C439 C436 1.539 . S
C439 H453 0.958 . S
C439 H454 0.961 . S
C439 H455 0.960 . S
H440 C424 0.931 . S
H441 C429 0.929 . S
H442 C430 0.960 . S
H443 C430 0.962 . S
H444 C430 0.960 . S
H445 C431 0.961 . S
H446 C431 0.961 . S
H447 C431 0.961 . S
H448 C432 0.931 . S
H449 C437 0.930 . S
H450 C438 0.956 . S
H451 C438 0.961 . S
H452 C438 0.961 . S
H453 C439 0.958 . S
H454 C439 0.961 . S
H455 C439 0.960 . S
C456 C457 1.391 . S
C456 C458 1.394 . S
C456 H472 0.931 . S
C457 C456 1.391 . S
C457 C461 1.376 . S
C458 C456 1.394 . S
C458 C459 1.369 . S
C458 C462 1.531 . S
C459 C458 1.369 . S
C459 C460 1.410 . S
C459 C467 1.503 . S
C460 C459 1.410 . S
C460 C461 1.392 . S
C460 C463 1.511 . S
C461 C457 1.376 . S
C461 C460 1.392 . S
C461 H473 0.929 . S
C462 C458 1.531 . S
C462 H474 0.960 . S
C462 H475 0.962 . S
C462 H476 0.960 . S
C463 C460 1.511 . S
C463 H477 0.961 . S
C463 H478 0.961 . S
C463 H479 0.961 . S
C464 C465 1.370 . S
C464 C466 1.363 . S
C464 H480 0.931 . S
C465 C464 1.370 . S
C465 C469 1.408 . S
C466 C464 1.363 . S
C466 C467 1.370 . S
C466 C470 1.524 . S
C467 C459 1.503 . S
C467 C466 1.370 . S
C467 C468 1.403 . S
C468 C467 1.403 . S
C468 C469 1.404 . S
C468 C471 1.539 . S
C469 C465 1.408 . S
C469 C468 1.404 . S
C469 H481 0.930 . S
C470 C466 1.524 . S
C470 H482 0.956 . S
C470 H483 0.961 . S
C470 H484 0.961 . S
C471 C468 1.539 . S
C471 H485 0.958 . S
C471 H486 0.961 . S
C471 H487 0.960 . S
H472 C456 0.931 . S
H473 C461 0.929 . S
H474 C462 0.960 . S
H475 C462 0.962 . S
H476 C462 0.960 . S
H477 C463 0.961 . S
H478 C463 0.961 . S
H479 C463 0.961 . S
H480 C464 0.931 . S
H481 C469 0.930 . S
H482 C470 0.956 . S
H483 C470 0.961 . S
H484 C470 0.961 . S
H485 C471 0.958 . S
H486 C471 0.961 . S
H487 C471 0.960 . S
C488 C489 1.391 . S
C488 C490 1.394 . S
C488 H504 0.931 . S
C489 C488 1.391 . S
C489 C493 1.376 . S
C490 C488 1.394 . S
C490 C491 1.369 . S
C490 C494 1.531 . S
C491 C490 1.369 . S
C491 C492 1.410 . S
C491 C499 1.503 . S
C492 C491 1.410 . S
C492 C493 1.392 . S
C492 C495 1.511 . S
C493 C489 1.376 . S
C493 C492 1.392 . S
C493 H505 0.929 . S
C494 C490 1.531 . S
C494 H506 0.960 . S
C494 H507 0.962 . S
C494 H508 0.960 . S
C495 C492 1.511 . S
C495 H509 0.961 . S
C495 H510 0.961 . S
C495 H511 0.961 . S
C496 C497 1.370 . S
C496 C498 1.363 . S
C496 H512 0.931 . S
C497 C496 1.370 . S
C497 C501 1.408 . S
C498 C496 1.363 . S
C498 C499 1.370 . S
C498 C502 1.524 . S
C499 C491 1.503 . S
C499 C498 1.370 . S
C499 C500 1.403 . S
C500 C499 1.403 . S
C500 C501 1.404 . S
C500 C503 1.539 . S
C501 C497 1.408 . S
C501 C500 1.404 . S
C501 H513 0.930 . S
C502 C498 1.524 . S
C502 H514 0.956 . S
C502 H515 0.961 . S
C502 H516 0.961 . S
C503 C500 1.539 . S
C503 H517 0.958 . S
C503 H518 0.961 . S
C503 H519 0.960 . S
H504 C488 0.931 . S
H505 C493 0.929 . S
H506 C494 0.960 . S
H507 C494 0.962 . S
H508 C494 0.960 . S
H509 C495 0.961 . S
H510 C495 0.961 . S
H511 C495 0.961 . S
H512 C496 0.931 . S
H513 C501 0.930 . S
H514 C502 0.956 . S
H515 C502 0.961 . S
H516 C502 0.961 . S
H517 C503 0.958 . S
H518 C503 0.961 . S
H519 C503 0.960 . S
C520 C521 1.391 . S
C520 C522 1.394 . S
C520 H536 0.931 . S
C521 C520 1.391 . S
C521 C525 1.376 . S
C522 C520 1.394 . S
C522 C523 1.369 . S
C522 C526 1.531 . S
C523 C522 1.369 . S
C523 C524 1.410 . S
C523 C531 1.503 . S
C524 C523 1.410 . S
C524 C525 1.392 . S
C524 C527 1.511 . S
C525 C521 1.376 . S
C525 C524 1.392 . S
C525 H537 0.929 . S
C526 C522 1.531 . S
C526 H538 0.960 . S
C526 H539 0.962 . S
C526 H540 0.960 . S
C527 C524 1.511 . S
C527 H541 0.961 . S
C527 H542 0.961 . S
C527 H543 0.961 . S
C528 C529 1.370 . S
C528 C530 1.363 . S
C528 H544 0.931 . S
C529 C528 1.370 . S
C529 C533 1.408 . S
C530 C528 1.363 . S
C530 C531 1.370 . S
C530 C534 1.524 . S
C531 C523 1.503 . S
C531 C530 1.370 . S
C531 C532 1.403 . S
C532 C531 1.403 . S
C532 C533 1.404 . S
C532 C535 1.539 . S
C533 C529 1.408 . S
C533 C532 1.404 . S
C533 H545 0.930 . S
C534 C530 1.524 . S
C534 H546 0.956 . S
C534 H547 0.961 . S
C534 H548 0.961 . S
C535 C532 1.539 . S
C535 H549 0.958 . S
C535 H550 0.961 . S
C535 H551 0.960 . S
H536 C520 0.931 . S
H537 C525 0.929 . S
H538 C526 0.960 . S
H539 C526 0.962 . S
H540 C526 0.960 . S
H541 C527 0.961 . S
H542 C527 0.961 . S
H543 C527 0.961 . S
H544 C528 0.931 . S
H545 C533 0.930 . S
H546 C534 0.956 . S
H547 C534 0.961 . S
H548 C534 0.961 . S
H549 C535 0.958 . S
H550 C535 0.961 . S
H551 C535 0.960 . S
C552 C553 1.391 . S
C552 C554 1.394 1_556 S
C552 H568 0.931 . S
C553 C552 1.391 . S
C553 C557 1.376 . S
C554 C552 1.394 1_554 S
C554 C555 1.369 . S
C554 C558 1.531 . S
C555 C554 1.369 . S
C555 C556 1.410 1_554 S
C555 C563 1.503 1_565 S
C556 C555 1.410 1_556 S
C556 C557 1.392 . S
C556 C559 1.511 . S
C557 C553 1.376 . S
C557 C556 1.392 . S
C557 H569 0.929 . S
C558 C554 1.531 . S
C558 H570 0.960 . S
C558 H571 0.962 1_554 S
C558 H572 0.960 . S
C559 C556 1.511 . S
C559 H573 0.961 . S
C559 H574 0.961 1_565 S
C559 H575 0.961 1_556 S
C560 C561 1.370 1_556 S
C560 C562 1.363 . S
C560 H576 0.931 . S
C561 C560 1.370 1_554 S
C561 C565 1.408 . S
C562 C560 1.363 . S
C562 C563 1.370 1_556 S
C562 C566 1.524 . S
C563 C555 1.503 1_545 S
C563 C562 1.370 1_554 S
C563 C564 1.403 . S
C564 C563 1.403 . S
C564 C565 1.404 . S
C564 C567 1.539 . S
C565 C561 1.408 . S
C565 C564 1.404 . S
C565 H577 0.930 . S
C566 C562 1.524 . S
C566 H578 0.956 . S
C566 H579 0.961 . S
C566 H580 0.961 . S
C567 C564 1.539 . S
C567 H581 0.958 . S
C567 H582 0.961 . S
C567 H583 0.960 1_545 S
H568 C552 0.931 . S
H569 C557 0.929 . S
H570 C558 0.960 . S
H571 C558 0.962 1_556 S
H572 C558 0.960 . S
H573 C559 0.961 . S
H574 C559 0.961 1_545 S
H575 C559 0.961 1_554 S
H576 C560 0.931 . S
H577 C565 0.930 . S
H578 C566 0.956 . S
H579 C566 0.961 . S
H580 C566 0.961 . S
H581 C567 0.958 . S
H582 C567 0.961 . S
H583 C567 0.960 1_565 S
C584 C585 1.391 . S
C584 C586 1.394 . S
C584 H600 0.931 . S
C585 C584 1.391 . S
C585 C589 1.376 . S
C586 C584 1.394 . S
C586 C587 1.369 . S
C586 C590 1.531 . S
C587 C586 1.369 . S
C587 C588 1.410 . S
C587 C595 1.503 . S
C588 C587 1.410 . S
C588 C589 1.392 . S
C588 C591 1.511 . S
C589 C585 1.376 . S
C589 C588 1.392 . S
C589 H601 0.929 . S
C590 C586 1.531 . S
C590 H602 0.960 . S
C590 H603 0.962 . S
C590 H604 0.960 . S
C591 C588 1.511 . S
C591 H605 0.961 . S
C591 H606 0.961 . S
C591 H607 0.961 . S
C592 C593 1.370 . S
C592 C594 1.363 . S
C592 H608 0.931 . S
C593 C592 1.370 . S
C593 C597 1.408 . S
C594 C592 1.363 . S
C594 C595 1.370 . S
C594 C598 1.524 . S
C595 C587 1.503 . S
C595 C594 1.370 . S
C595 C596 1.403 . S
C596 C595 1.403 . S
C596 C597 1.404 . S
C596 C599 1.539 . S
C597 C593 1.408 . S
C597 C596 1.404 . S
C597 H609 0.930 . S
C598 C594 1.524 . S
C598 H610 0.956 . S
C598 H611 0.961 . S
C598 H612 0.961 . S
C599 C596 1.539 . S
C599 H613 0.958 . S
C599 H614 0.961 . S
C599 H615 0.960 . S
H600 C584 0.931 . S
H601 C589 0.929 . S
H602 C590 0.960 . S
H603 C590 0.962 . S
H604 C590 0.960 . S
H605 C591 0.961 . S
H606 C591 0.961 . S
H607 C591 0.961 . S
H608 C592 0.931 . S
H609 C597 0.930 . S
H610 C598 0.956 . S
H611 C598 0.961 . S
H612 C598 0.961 . S
H613 C599 0.958 . S
H614 C599 0.961 . S
H615 C599 0.960 . S
C616 C617 1.391 . S
C616 C618 1.394 . S
C616 H632 0.931 . S
C617 C616 1.391 . S
C617 C621 1.376 . S
C618 C616 1.394 . S
C618 C619 1.369 . S
C618 C622 1.531 . S
C619 C618 1.369 . S
C619 C620 1.410 . S
C619 C627 1.503 1_655 S
C620 C619 1.410 . S
C620 C621 1.392 . S
C620 C623 1.511 . S
C621 C617 1.376 . S
C621 C620 1.392 . S
C621 H633 0.929 . S
C622 C618 1.531 . S
C622 H634 0.960 . S
C622 H635 0.962 . S
C622 H636 0.960 . S
C623 C620 1.511 . S
C623 H637 0.961 . S
C623 H638 0.961 1_655 S
C623 H639 0.961 . S
C624 C625 1.370 . S
C624 C626 1.363 . S
C624 H640 0.931 . S
C625 C624 1.370 . S
C625 C629 1.408 . S
C626 C624 1.363 . S
C626 C627 1.370 . S
C626 C630 1.524 . S
C627 C619 1.503 1_455 S
C627 C626 1.370 . S
C627 C628 1.403 . S
C628 C627 1.403 . S
C628 C629 1.404 . S
C628 C631 1.539 . S
C629 C625 1.408 . S
C629 C628 1.404 . S
C629 H641 0.930 . S
C630 C626 1.524 . S
C630 H642 0.956 . S
C630 H643 0.961 . S
C630 H644 0.961 . S
C631 C628 1.539 . S
C631 H645 0.958 . S
C631 H646 0.961 . S
C631 H647 0.960 1_455 S
H632 C616 0.931 . S
H633 C621 0.929 . S
H634 C622 0.960 . S
H635 C622 0.962 . S
H636 C622 0.960 . S
H637 C623 0.961 . S
H638 C623 0.961 1_455 S
H639 C623 0.961 . S
H640 C624 0.931 . S
H641 C629 0.930 . S
H642 C630 0.956 . S
H643 C630 0.961 . S
H644 C630 0.961 . S
H645 C631 0.958 . S
H646 C631 0.961 . S
H647 C631 0.960 1_655 S
C648 C649 1.391 . S
C648 C650 1.394 . S
C648 H664 0.931 . S
C649 C648 1.391 . S
C649 C653 1.376 1_554 S
C650 C648 1.394 . S
C650 C651 1.369 1_554 S
C650 C654 1.531 . S
C651 C650 1.369 1_556 S
C651 C652 1.410 . S
C651 C659 1.503 1_565 S
C652 C651 1.410 . S
C652 C653 1.392 . S
C652 C655 1.511 . S
C653 C649 1.376 1_556 S
C653 C652 1.392 . S
C653 H665 0.929 . S
C654 C650 1.531 . S
C654 H666 0.960 1_565 S
C654 H667 0.962 . S
C654 H668 0.960 . S
C655 C652 1.511 . S
C655 H669 0.961 . S
C655 H670 0.961 . S
C655 H671 0.961 . S
C656 C657 1.370 1_554 S
C656 C658 1.363 . S
C656 H672 0.931 . S
C657 C656 1.370 1_556 S
C657 C661 1.408 . S
C658 C656 1.363 . S
C658 C659 1.370 1_554 S
C658 C662 1.524 . S
C659 C651 1.503 1_545 S
C659 C658 1.370 1_556 S
C659 C660 1.403 . S
C660 C659 1.403 . S
C660 C661 1.404 . S
C660 C663 1.539 . S
C661 C657 1.408 . S
C661 C660 1.404 . S
C661 H673 0.930 . S
C662 C658 1.524 . S
C662 H674 0.956 . S
C662 H675 0.961 . S
C662 H676 0.961 . S
C663 C660 1.539 . S
C663 H677 0.958 . S
C663 H678 0.961 . S
C663 H679 0.960 1_545 S
H664 C648 0.931 . S
H665 C653 0.929 . S
H666 C654 0.960 1_545 S
H667 C654 0.962 . S
H668 C654 0.960 . S
H669 C655 0.961 . S
H670 C655 0.961 . S
H671 C655 0.961 . S
H672 C656 0.931 . S
H673 C661 0.930 . S
H674 C662 0.956 . S
H675 C662 0.961 . S
H676 C662 0.961 . S
H677 C663 0.958 . S
H678 C663 0.961 . S
H679 C663 0.960 1_565 S
C680 C681 1.391 . S
C680 C682 1.394 . S
C680 H696 0.931 . S
C681 C680 1.391 . S
C681 C685 1.376 . S
C682 C680 1.394 . S
C682 C683 1.369 . S
C682 C686 1.531 . S
C683 C682 1.369 . S
C683 C684 1.410 . S
C683 C691 1.503 . S
C684 C683 1.410 . S
C684 C685 1.392 . S
C684 C687 1.511 . S
C685 C681 1.376 . S
C685 C684 1.392 . S
C685 H697 0.929 . S
C686 C682 1.531 . S
C686 H698 0.960 . S
C686 H699 0.962 . S
C686 H700 0.960 . S
C687 C684 1.511 . S
C687 H701 0.961 . S
C687 H702 0.961 . S
C687 H703 0.961 . S
C688 C689 1.370 . S
C688 C690 1.363 . S
C688 H704 0.931 . S
C689 C688 1.370 . S
C689 C693 1.408 . S
C690 C688 1.363 . S
C690 C691 1.370 . S
C690 C694 1.524 . S
C691 C683 1.503 . S
C691 C690 1.370 . S
C691 C692 1.403 . S
C692 C691 1.403 . S
C692 C693 1.404 . S
C692 C695 1.539 . S
C693 C689 1.408 . S
C693 C692 1.404 . S
C693 H705 0.930 . S
C694 C690 1.524 . S
C694 H706 0.956 . S
C694 H707 0.961 . S
C694 H708 0.961 . S
C695 C692 1.539 . S
C695 H709 0.958 . S
C695 H710 0.961 . S
C695 H711 0.960 . S
H696 C680 0.931 . S
H697 C685 0.929 . S
H698 C686 0.960 . S
H699 C686 0.962 . S
H700 C686 0.960 . S
H701 C687 0.961 . S
H702 C687 0.961 . S
H703 C687 0.961 . S
H704 C688 0.931 . S
H705 C693 0.930 . S
H706 C694 0.956 . S
H707 C694 0.961 . S
H708 C694 0.961 . S
H709 C695 0.958 . S
H710 C695 0.961 . S
H711 C695 0.960 . S
C712 C713 1.391 . S
C712 C714 1.394 . S
C712 H728 0.931 . S
C713 C712 1.391 . S
C713 C717 1.376 . S
C714 C712 1.394 . S
C714 C715 1.369 . S
C714 C718 1.531 . S
C715 C714 1.369 . S
C715 C716 1.410 . S
C715 C723 1.503 1_455 S
C716 C715 1.410 . S
C716 C717 1.392 . S
C716 C719 1.511 . S
C717 C713 1.376 . S
C717 C716 1.392 . S
C717 H729 0.929 . S
C718 C714 1.531 . S
C718 H730 0.960 . S
C718 H731 0.962 . S
C718 H732 0.960 . S
C719 C716 1.511 . S
C719 H733 0.961 . S
C719 H734 0.961 1_455 S
C719 H735 0.961 . S
C720 C721 1.370 . S
C720 C722 1.363 . S
C720 H736 0.931 . S
C721 C720 1.370 . S
C721 C725 1.408 . S
C722 C720 1.363 . S
C722 C723 1.370 . S
C722 C726 1.524 . S
C723 C715 1.503 1_655 S
C723 C722 1.370 . S
C723 C724 1.403 . S
C724 C723 1.403 . S
C724 C725 1.404 . S
C724 C727 1.539 . S
C725 C721 1.408 . S
C725 C724 1.404 . S
C725 H737 0.930 . S
C726 C722 1.524 . S
C726 H738 0.956 1_655 S
C726 H739 0.961 1_655 S
C726 H740 0.961 . S
C727 C724 1.539 . S
C727 H741 0.958 . S
C727 H742 0.961 . S
C727 H743 0.960 . S
H728 C712 0.931 . S
H729 C717 0.929 . S
H730 C718 0.960 . S
H731 C718 0.962 . S
H732 C718 0.960 . S
H733 C719 0.961 . S
H734 C719 0.961 1_655 S
H735 C719 0.961 . S
H736 C720 0.931 . S
H737 C725 0.930 . S
H738 C726 0.956 1_455 S
H739 C726 0.961 1_455 S
H740 C726 0.961 . S
H741 C727 0.958 . S
H742 C727 0.961 . S
H743 C727 0.960 . S
C744 C745 1.391 . S
C744 C746 1.394 . S
C744 H760 0.931 1_455 S
C745 C744 1.391 . S
C745 C749 1.376 . S
C746 C744 1.394 . S
C746 C747 1.369 . S
C746 C750 1.531 1_556 S
C747 C746 1.369 . S
C747 C748 1.410 . S
C747 C755 1.503 1_556 S
C748 C747 1.410 . S
C748 C749 1.392 . S
C748 C751 1.511 . S
C749 C745 1.376 . S
C749 C748 1.392 . S
C749 H761 0.929 . S
C750 C746 1.531 1_554 S
C750 H762 0.960 . S
C750 H763 0.962 . S
C750 H764 0.960 1_554 S
C751 C748 1.511 . S
C751 H765 0.961 . S
C751 H766 0.961 . S
C751 H767 0.961 . S
C752 C753 1.370 . S
C752 C754 1.363 . S
C752 H768 0.931 . S
C753 C752 1.370 . S
C753 C757 1.408 . S
C754 C752 1.363 . S
C754 C755 1.370 . S
C754 C758 1.524 . S
C755 C747 1.503 1_554 S
C755 C754 1.370 . S
C755 C756 1.403 1_554 S
C756 C755 1.403 1_556 S
C756 C757 1.404 1_556 S
C756 C759 1.539 . S
C757 C753 1.408 . S
C757 C756 1.404 1_554 S
C757 H769 0.930 1_554 S
C758 C754 1.524 . S
C758 H770 0.956 . S
C758 H771 0.961 . S
C758 H772 0.961 . S
C759 C756 1.539 . S
C759 H773 0.958 . S
C759 H774 0.961 . S
C759 H775 0.960 . S
H760 C744 0.931 1_655 S
H761 C749 0.929 . S
H762 C750 0.960 . S
H763 C750 0.962 . S
H764 C750 0.960 1_556 S
H765 C751 0.961 . S
H766 C751 0.961 . S
H767 C751 0.961 . S
H768 C752 0.931 . S
H769 C757 0.930 1_556 S
H770 C758 0.956 . S
H771 C758 0.961 . S
H772 C758 0.961 . S
H773 C759 0.958 . S
H774 C759 0.961 . S
H775 C759 0.960 . S
C776 C777 1.391 . S
C776 C778 1.394 . S
C776 H792 0.931 . S
C777 C776 1.391 . S
C777 C781 1.376 . S
C778 C776 1.394 . S
C778 C779 1.369 . S
C778 C782 1.531 . S
C779 C778 1.369 . S
C779 C780 1.410 . S
C779 C787 1.503 . S
C780 C779 1.410 . S
C780 C781 1.392 . S
C780 C783 1.511 . S
C781 C777 1.376 . S
C781 C780 1.392 . S
C781 H793 0.929 . S
C782 C778 1.531 . S
C782 H794 0.960 . S
C782 H795 0.962 . S
C782 H796 0.960 . S
C783 C780 1.511 . S
C783 H797 0.961 . S
C783 H798 0.961 . S
C783 H799 0.961 . S
C784 C785 1.370 . S
C784 C786 1.363 . S
C784 H800 0.931 . S
C785 C784 1.370 . S
C785 C789 1.408 . S
C786 C784 1.363 . S
C786 C787 1.370 . S
C786 C790 1.524 . S
C787 C779 1.503 . S
C787 C786 1.370 . S
C787 C788 1.403 . S
C788 C787 1.403 . S
C788 C789 1.404 . S
C788 C791 1.539 . S
C789 C785 1.408 . S
C789 C788 1.404 . S
C789 H801 0.930 . S
C790 C786 1.524 . S
C790 H802 0.956 . S
C790 H803 0.961 . S
C790 H804 0.961 . S
C791 C788 1.539 . S
C791 H805 0.958 . S
C791 H806 0.961 . S
C791 H807 0.960 . S
H792 C776 0.931 . S
H793 C781 0.929 . S
H794 C782 0.960 . S
H795 C782 0.962 . S
H796 C782 0.960 . S
H797 C783 0.961 . S
H798 C783 0.961 . S
H799 C783 0.961 . S
H800 C784 0.931 . S
H801 C789 0.930 . S
H802 C790 0.956 . S
H803 C790 0.961 . S
H804 C790 0.961 . S
H805 C791 0.958 . S
H806 C791 0.961 . S
H807 C791 0.960 . S
C808 C809 1.391 . S
C808 C810 1.394 . S
C808 H824 0.931 . S
C809 C808 1.391 . S
C809 C813 1.376 . S
C810 C808 1.394 . S
C810 C811 1.369 . S
C810 C814 1.531 . S
C811 C810 1.369 . S
C811 C812 1.410 . S
C811 C819 1.503 . S
C812 C811 1.410 . S
C812 C813 1.392 . S
C812 C815 1.511 . S
C813 C809 1.376 . S
C813 C812 1.392 . S
C813 H825 0.929 . S
C814 C810 1.531 . S
C814 H826 0.960 . S
C814 H827 0.962 . S
C814 H828 0.960 . S
C815 C812 1.511 . S
C815 H829 0.961 . S
C815 H830 0.961 . S
C815 H831 0.961 . S
C816 C817 1.370 . S
C816 C818 1.363 . S
C816 H832 0.931 . S
C817 C816 1.370 . S
C817 C821 1.408 . S
C818 C816 1.363 . S
C818 C819 1.370 . S
C818 C822 1.524 . S
C819 C811 1.503 . S
C819 C818 1.370 . S
C819 C820 1.403 . S
C820 C819 1.403 . S
C820 C821 1.404 . S
C820 C823 1.539 . S
C821 C817 1.408 . S
C821 C820 1.404 . S
C821 H833 0.930 1_565 S
C822 C818 1.524 . S
C822 H834 0.956 . S
C822 H835 0.961 . S
C822 H836 0.961 . S
C823 C820 1.539 . S
C823 H837 0.958 . S
C823 H838 0.961 . S
C823 H839 0.960 . S
H824 C808 0.931 . S
H825 C813 0.929 . S
H826 C814 0.960 . S
H827 C814 0.962 . S
H828 C814 0.960 . S
H829 C815 0.961 . S
H830 C815 0.961 . S
H831 C815 0.961 . S
H832 C816 0.931 . S
H833 C821 0.930 1_545 S
H834 C822 0.956 . S
H835 C822 0.961 . S
H836 C822 0.961 . S
H837 C823 0.958 . S
H838 C823 0.961 . S
H839 C823 0.960 . S
C840 C841 1.391 . S
C840 C842 1.394 . S
C840 H856 0.931 . S
C841 C840 1.391 . S
C841 C845 1.376 . S
C842 C840 1.394 . S
C842 C843 1.369 . S
C842 C846 1.531 . S
C843 C842 1.369 . S
C843 C844 1.410 1_554 S
C843 C851 1.503 1_554 S
C844 C843 1.410 1_556 S
C844 C845 1.392 1_556 S
C844 C847 1.511 . S
C845 C841 1.376 . S
C845 C844 1.392 1_554 S
C845 H857 0.929 1_554 S
C846 C842 1.531 . S
C846 H858 0.960 . S
C846 H859 0.962 . S
C846 H860 0.960 . S
C847 C844 1.511 . S
C847 H861 0.961 . S
C847 H862 0.961 . S
C847 H863 0.961 . S
C848 C849 1.370 . S
C848 C850 1.363 . S
C848 H864 0.931 1_655 S
C849 C848 1.370 . S
C849 C853 1.408 . S
C850 C848 1.363 . S
C850 C851 1.370 . S
C850 C854 1.524 1_556 S
C851 C843 1.503 1_556 S
C851 C850 1.370 . S
C851 C852 1.403 . S
C852 C851 1.403 . S
C852 C853 1.404 . S
C852 C855 1.539 . S
C853 C849 1.408 . S
C853 C852 1.404 . S
C853 H865 0.930 . S
C854 C850 1.524 1_554 S
C854 H866 0.956 . S
C854 H867 0.961 . S
C854 H868 0.961 . S
C855 C852 1.539 . S
C855 H869 0.958 . S
C855 H870 0.961 . S
C855 H871 0.960 . S
H856 C840 0.931 . S
H857 C845 0.929 1_556 S
H858 C846 0.960 . S
H859 C846 0.962 . S
H860 C846 0.960 . S
H861 C847 0.961 . S
H862 C847 0.961 . S
H863 C847 0.961 . S
H864 C848 0.931 1_455 S
H865 C853 0.930 . S
H866 C854 0.956 . S
H867 C854 0.961 . S
H868 C854 0.961 . S
H869 C855 0.958 . S
H870 C855 0.961 . S
H871 C855 0.960 . S
C872 C873 1.391 . S
C872 C874 1.394 . S
C872 H888 0.931 . S
C873 C872 1.391 . S
C873 C877 1.376 . S
C874 C872 1.394 . S
C874 C875 1.369 . S
C874 C878 1.531 . S
C875 C874 1.369 . S
C875 C876 1.410 . S
C875 C883 1.503 . S
C876 C875 1.410 . S
C876 C877 1.392 . S
C876 C879 1.511 . S
C877 C873 1.376 . S
C877 C876 1.392 . S
C877 H889 0.929 . S
C878 C874 1.531 . S
C878 H890 0.960 . S
C878 H891 0.962 . S
C878 H892 0.960 . S
C879 C876 1.511 . S
C879 H893 0.961 . S
C879 H894 0.961 . S
C879 H895 0.961 . S
C880 C881 1.370 . S
C880 C882 1.363 . S
C880 H896 0.931 . S
C881 C880 1.370 . S
C881 C885 1.408 . S
C882 C880 1.363 . S
C882 C883 1.370 . S
C882 C886 1.524 . S
C883 C875 1.503 . S
C883 C882 1.370 . S
C883 C884 1.403 . S
C884 C883 1.403 . S
C884 C885 1.404 . S
C884 C887 1.539 . S
C885 C881 1.408 . S
C885 C884 1.404 . S
C885 H897 0.930 . S
C886 C882 1.524 . S
C886 H898 0.956 . S
C886 H899 0.961 . S
C886 H900 0.961 . S
C887 C884 1.539 . S
C887 H901 0.958 . S
C887 H902 0.961 . S
C887 H903 0.960 . S
H888 C872 0.931 . S
H889 C877 0.929 . S
H890 C878 0.960 . S
H891 C878 0.962 . S
H892 C878 0.960 . S
H893 C879 0.961 . S
H894 C879 0.961 . S
H895 C879 0.961 . S
H896 C880 0.931 . S
H897 C885 0.930 . S
H898 C886 0.956 . S
H899 C886 0.961 . S
H900 C886 0.961 . S
H901 C887 0.958 . S
H902 C887 0.961 . S
H903 C887 0.960 . S
C904 C905 1.391 . S
C904 C906 1.394 . S
C904 H920 0.931 1_545 S
C905 C904 1.391 . S
C905 C909 1.376 . S
C906 C904 1.394 . S
C906 C907 1.369 . S
C906 C910 1.531 . S
C907 C906 1.369 . S
C907 C908 1.410 . S
C907 C915 1.503 . S
C908 C907 1.410 . S
C908 C909 1.392 . S
C908 C911 1.511 . S
C909 C905 1.376 . S
C909 C908 1.392 . S
C909 H921 0.929 . S
C910 C906 1.531 . S
C910 H922 0.960 . S
C910 H923 0.962 . S
C910 H924 0.960 . S
C911 C908 1.511 . S
C911 H925 0.961 . S
C911 H926 0.961 . S
C911 H927 0.961 . S
C912 C913 1.370 . S
C912 C914 1.363 . S
C912 H928 0.931 . S
C913 C912 1.370 . S
C913 C917 1.408 . S
C914 C912 1.363 . S
C914 C915 1.370 . S
C914 C918 1.524 . S
C915 C907 1.503 . S
C915 C914 1.370 . S
C915 C916 1.403 . S
C916 C915 1.403 . S
C916 C917 1.404 . S
C916 C919 1.539 . S
C917 C913 1.408 . S
C917 C916 1.404 . S
C917 H929 0.930 . S
C918 C914 1.524 . S
C918 H930 0.956 . S
C918 H931 0.961 . S
C918 H932 0.961 . S
C919 C916 1.539 . S
C919 H933 0.958 . S
C919 H934 0.961 . S
C919 H935 0.960 . S
H920 C904 0.931 1_565 S
H921 C909 0.929 . S
H922 C910 0.960 . S
H923 C910 0.962 . S
H924 C910 0.960 . S
H925 C911 0.961 . S
H926 C911 0.961 . S
H927 C911 0.961 . S
H928 C912 0.931 . S
H929 C917 0.930 . S
H930 C918 0.956 . S
H931 C918 0.961 . S
H932 C918 0.961 . S
H933 C919 0.958 . S
H934 C919 0.961 . S
H935 C919 0.960 . S
C169 C47 1.262 . S
C177 C5 1.315 . S
C201 C19 1.334 . S
C209 C61 1.313 . S
C233 C75 1.274 . S
C241 C33 1.307 . S
C265 C89 1.258 . S
C273 C131 1.327 . S
C297 C145 1.274 . S
C305 C103 1.306 . S
C329 C117 1.329 . S
C337 C159 1.289 . S
C361 C123 1.519 . S
C369 C11 1.528 . S
C393 C25 1.536 . S
C401 C137 1.517 . S
C425 C39 1.514 . S
C433 C151 1.528 . S
C457 C53 1.524 . S
C465 C165 1.527 . S
C489 C95 1.511 . S
C497 C67 1.528 . S
C521 C109 1.533 . S
C529 C81 1.514 . S
C553 C110 0.951 . S
C561 C12 0.900 . S
C585 C26 0.891 . S
C593 C124 0.891 . S
C617 C40 0.958 . S
C625 C138 0.910 . S
C649 C54 0.920 . S
C657 C152 0.890 . S
C681 C166 0.919 . S
C689 C68 0.890 . S
C713 C82 0.906 . S
C721 C96 0.931 . S
C745 C144 1.300 1_455 S
C753 C4 1.307 . S
C777 C158 1.338 1_545 S
C785 C18 1.323 1_655 S
C809 C88 1.275 . S
C817 C32 1.298 1_565 S
C841 C46 1.335 . S
C849 C102 1.323 1_655 S
C873 C60 1.330 1_455 S
C881 C116 1.320 1_565 S
C905 C74 1.275 1_545 S
C913 C130 1.297 . S
