# Generated by pormake.
# Topology acs-a, (4)-cn, num edge types: 1
# Building blocks:
#     Node 0, Type 0, BuildingBlock: CEKHIL_clean_sbu_0, # of connection points: 4
#     Node 1, Type 0, BuildingBlock: CEKHIL_clean_sbu_0, # of connection points: 4
#     Node 2, Type 0, BuildingBlock: CEKHIL_clean_sbu_0, # of connection points: 4
#     Node 3, Type 0, BuildingBlock: CEKHIL_clean_sbu_0, # of connection points: 4
#     Node 4, Type 0, BuildingBlock: CEKHIL_clean_sbu_0, # of connection points: 4
#     Node 5, Type 0, BuildingBlock: CEKHIL_clean_sbu_0, # of connection points: 4
#     Node 6, Type 0, BuildingBlock: CEKHIL_clean_sbu_0, # of connection points: 4
#     Node 7, Type 0, BuildingBlock: CEKHIL_clean_sbu_0, # of connection points: 4
#     Node 8, Type 0, BuildingBlock: CEKHIL_clean_sbu_0, # of connection points: 4
#     Node 9, Type 0, BuildingBlock: CEKHIL_clean_sbu_0, # of connection points: 4
#     Node 10, Type 0, BuildingBlock: CEKHIL_clean_sbu_0, # of connection points: 4
#     Node 11, Type 0, BuildingBlock: CEKHIL_clean_sbu_0, # of connection points: 4
#     Edge 12, Type (0, 0), BuildingBlock: UVAHIK_clean_linker_0, # of connection points: 2
#     Edge 13, Type (0, 0), BuildingBlock: UVAHIK_clean_linker_0, # of connection points: 2
#     Edge 14, Type (0, 0), BuildingBlock: UVAHIK_clean_linker_0, # of connection points: 2
#     Edge 15, Type (0, 0), BuildingBlock: UVAHIK_clean_linker_0, # of connection points: 2
#     Edge 16, Type (0, 0), BuildingBlock: UVAHIK_clean_linker_0, # of connection points: 2
#     Edge 17, Type (0, 0), BuildingBlock: UVAHIK_clean_linker_0, # of connection points: 2
#     Edge 18, Type (0, 0), BuildingBlock: UVAHIK_clean_linker_0, # of connection points: 2
#     Edge 19, Type (0, 0), BuildingBlock: UVAHIK_clean_linker_0, # of connection points: 2
#     Edge 20, Type (0, 0), BuildingBlock: UVAHIK_clean_linker_0, # of connection points: 2
#     Edge 21, Type (0, 0), BuildingBlock: UVAHIK_clean_linker_0, # of connection points: 2
#     Edge 22, Type (0, 0), BuildingBlock: UVAHIK_clean_linker_0, # of connection points: 2
#     Edge 23, Type (0, 0), BuildingBlock: UVAHIK_clean_linker_0, # of connection points: 2
#     Edge 24, Type (0, 0), BuildingBlock: UVAHIK_clean_linker_0, # of connection points: 2
#     Edge 25, Type (0, 0), BuildingBlock: UVAHIK_clean_linker_0, # of connection points: 2
#     Edge 26, Type (0, 0), BuildingBlock: UVAHIK_clean_linker_0, # of connection points: 2
#     Edge 27, Type (0, 0), BuildingBlock: UVAHIK_clean_linker_0, # of connection points: 2
#     Edge 28, Type (0, 0), BuildingBlock: UVAHIK_clean_linker_0, # of connection points: 2
#     Edge 29, Type (0, 0), BuildingBlock: UVAHIK_clean_linker_0, # of connection points: 2
#     Edge 30, Type (0, 0), BuildingBlock: UVAHIK_clean_linker_0, # of connection points: 2
#     Edge 31, Type (0, 0), BuildingBlock: UVAHIK_clean_linker_0, # of connection points: 2
#     Edge 32, Type (0, 0), BuildingBlock: UVAHIK_clean_linker_0, # of connection points: 2
#     Edge 33, Type (0, 0), BuildingBlock: UVAHIK_clean_linker_0, # of connection points: 2
#     Edge 34, Type (0, 0), BuildingBlock: UVAHIK_clean_linker_0, # of connection points: 2
#     Edge 35, Type (0, 0), BuildingBlock: UVAHIK_clean_linker_0, # of connection points: 2
# Relax obj value: 0.519
# Max RMSD: 0.259
# Mean RMSD: 0.234
data_MOF--net-acs-a--node1-CEKHIL_clean_sbu_0--edge1-UVAHIK_clean_linker_0
_symmetry_space_group_name_H-M    P1
_symmetry_Int_Tables_number       1
_symmetry_cell_setting            triclinic
loop_
_symmetry_equiv_pos_as_xyz
'x, y, z'
_cell_length_a     62.1231
_cell_length_b     62.091402
_cell_length_c     48.462053
_cell_angle_alpha  90.011221
_cell_angle_beta   89.98709
_cell_angle_gamma 114.0174
loop_
_atom_site_label
_atom_site_type_symbol
_atom_site_fract_x
_atom_site_fract_y
_atom_site_fract_z
_atom_type_partial_charge
Co0 Co 0.62947 0.13022 0.05153 0.0
O1 O 0.61828 0.09672 0.04548 0.0
O2 O 0.59595 0.11587 0.05574 0.0
C3 C 0.65376 0.1424 0.01501 0.0
O4 O 0.63316 0.16379 0.05757 0.0
Co5 Co 0.68103 0.16363 0.06371 0.0
O6 O 0.67089 0.18906 0.05274 0.0
C7 C 0.65171 0.1333 0.10828 0.0
C8 C 0.59734 0.0961 0.04981 0.0
C9 C 0.64904 0.18473 0.05414 0.0
O10 O 0.63379 0.12601 0.09203 0.0
O11 O 0.67239 0.14746 0.1006 0.0
O12 O 0.6312 0.13593 0.01193 0.0
O13 O 0.6605 0.13892 0.03924 0.0
Co14 Co 0.44259 0.61988 0.55427 0.0
O15 O 0.47283 0.61848 0.5505 0.0
O16 O 0.43818 0.58819 0.54574 0.0
C17 C 0.44903 0.65227 0.52913 0.0
O18 O 0.40809 0.61439 0.55472 0.0
Co19 Co 0.43657 0.66099 0.58453 0.0
O20 O 0.40527 0.64822 0.56605 0.0
C21 C 0.44452 0.62502 0.61709 0.0
C22 C 0.46102 0.59612 0.54557 0.0
C23 C 0.39643 0.62736 0.55626 0.0
O24 O 0.4423 0.61281 0.595 0.0
O25 O 0.44458 0.64566 0.61699 0.0
O26 O 0.44441 0.6322 0.51696 0.0
O27 O 0.45324 0.6527 0.55531 0.0
Co28 Co 0.85097 0.40641 0.05327 0.0
O29 O 0.87857 0.43447 0.05983 0.0
O30 O 0.87853 0.40115 0.04317 0.0
C31 C 0.83059 0.42413 0.03168 0.0
O32 O 0.82587 0.37442 0.04253 0.0
Co33 Co 0.80287 0.39983 0.07894 0.0
O34 O 0.79024 0.37429 0.05097 0.0
C35 C 0.84066 0.39733 0.11396 0.0
C36 C 0.8904 0.42305 0.05022 0.0
C37 C 0.80331 0.36533 0.03983 0.0
O38 O 0.85215 0.39588 0.09245 0.0
O39 O 0.82196 0.40124 0.11286 0.0
O40 O 0.84577 0.41886 0.01798 0.0
O41 O 0.82984 0.42042 0.05791 0.0
Co42 Co 0.36121 0.86128 0.53698 0.0
O43 O 0.37543 0.89542 0.53559 0.0
O44 O 0.39465 0.87215 0.53661 0.0
C45 C 0.33335 0.85323 0.50436 0.0
O46 O 0.35453 0.82657 0.53612 0.0
Co47 Co 0.31026 0.83049 0.55488 0.0
O48 O 0.3161 0.80319 0.54073 0.0
C49 C 0.34493 0.85725 0.59682 0.0
C50 C 0.39548 0.89331 0.53555 0.0
C51 C 0.33717 0.80628 0.53511 0.0
O52 O 0.36133 0.86236 0.57859 0.0
O53 O 0.32306 0.84605 0.59108 0.0
O54 O 0.35531 0.8594 0.49746 0.0
O55 O 0.32973 0.8559 0.53022 0.0
Co56 Co 0.55765 0.38562 0.05686 0.0
O57 O 0.52791 0.38841 0.05566 0.0
O58 O 0.56248 0.41635 0.04355 0.0
C59 C 0.54655 0.34999 0.03686 0.0
O60 O 0.59154 0.38936 0.05341 0.0
Co61 Co 0.56538 0.3468 0.09025 0.0
O62 O 0.59438 0.35619 0.0675 0.0
C63 C 0.56362 0.38773 0.11947 0.0
C64 C 0.53988 0.40959 0.04628 0.0
C65 C 0.60273 0.37597 0.05503 0.0
O66 O 0.56257 0.39746 0.09632 0.0
O67 O 0.56345 0.3671 0.12133 0.0
O68 O 0.55121 0.36866 0.02175 0.0
O69 O 0.54574 0.35313 0.06313 0.0
Co70 Co 0.14446 0.5871 0.55973 0.0
O71 O 0.11496 0.56074 0.56567 0.0
O72 O 0.11905 0.59538 0.54858 0.0
C73 C 0.16303 0.56714 0.53884 0.0
O74 O 0.17166 0.61784 0.54911 0.0
Co75 Co 0.19101 0.5899 0.5863 0.0
O76 O 0.2062 0.61644 0.56022 0.0
C77 C 0.15575 0.59838 0.62043 0.0
C78 C 0.10523 0.57392 0.55535 0.0
C79 C 0.1943 0.62624 0.54814 0.0
O80 O 0.14371 0.59837 0.59877 0.0
O81 O 0.17388 0.5935 0.61976 0.0
O82 O 0.1489 0.57368 0.52481 0.0
O83 O 0.16349 0.57071 0.5651 0.0
Co84 Co 0.86379 0.36469 0.45464 0.0
O85 O 0.8974 0.37804 0.46096 0.0
O86 O 0.87554 0.39835 0.45444 0.0
C87 C 0.85222 0.33723 0.48812 0.0
O88 O 0.82947 0.35844 0.44909 0.0
Co89 Co 0.83475 0.31324 0.43628 0.0
O90 O 0.80679 0.31969 0.4464 0.0
C91 C 0.86399 0.34799 0.39544 0.0
C92 C 0.89607 0.39842 0.45944 0.0
C93 C 0.80921 0.34099 0.44867 0.0
O94 O 0.86871 0.3644 0.4136 0.0
O95 O 0.8522 0.32613 0.40092 0.0
O96 O 0.85774 0.35928 0.49398 0.0
O97 O 0.85725 0.33319 0.46325 0.0
Co98 Co 0.40784 0.85133 0.93661 0.0
O99 O 0.43543 0.87997 0.93235 0.0
O100 O 0.40107 0.87759 0.9484 0.0
C101 C 0.42568 0.83061 0.95725 0.0
O102 O 0.37609 0.82498 0.94575 0.0
Co103 Co 0.40329 0.80481 0.90823 0.0
O104 O 0.37693 0.79017 0.93465 0.0
C105 C 0.3997 0.84321 0.87516 0.0
C106 C 0.42305 0.89053 0.94275 0.0
C107 C 0.36747 0.80231 0.94685 0.0
O108 O 0.39826 0.85408 0.89729 0.0
O109 O 0.40366 0.82452 0.87545 0.0
O110 O 0.41964 0.84491 0.97168 0.0
O111 O 0.42285 0.83114 0.93093 0.0
Co112 Co 0.60474 0.4353 0.44984 0.0
O113 O 0.60657 0.46562 0.46131 0.0
O114 O 0.57452 0.43213 0.4634 0.0
C115 C 0.63793 0.43668 0.46982 0.0
O116 O 0.5963 0.40081 0.44188 0.0
Co117 Co 0.64249 0.43054 0.41128 0.0
O118 O 0.62738 0.39682 0.42258 0.0
C119 C 0.60822 0.44736 0.38886 0.0
C120 C 0.58443 0.45473 0.46779 0.0
C121 C 0.60715 0.38813 0.43405 0.0
O122 O 0.5959 0.44092 0.41109 0.0
O123 O 0.62858 0.44707 0.3861 0.0
O124 O 0.61889 0.43124 0.48447 0.0
O125 O 0.63698 0.44405 0.44515 0.0
Co126 Co 0.1341 0.63646 0.95559 0.0
O127 O 0.1006 0.62586 0.96101 0.0
O128 O 0.11945 0.60285 0.95283 0.0
C129 C 0.14645 0.66208 0.99098 0.0
O130 O 0.16752 0.6395 0.95061 0.0
Co131 Co 0.16825 0.68756 0.94174 0.0
O132 O 0.19353 0.67719 0.9527 0.0
C133 C 0.13759 0.6572 0.89801 0.0
C134 C 0.09976 0.60469 0.95785 0.0
C135 C 0.18869 0.65519 0.95268 0.0
O136 O 0.1305 0.63951 0.91464 0.0
O137 O 0.15135 0.67811 0.90542 0.0
O138 O 0.1394 0.63957 0.99535 0.0
O139 O 0.14315 0.66789 0.96623 0.0
Co140 Co 0.5875 0.13989 0.44719 0.0
O141 O 0.56247 0.10944 0.44183 0.0
O142 O 0.59726 0.11599 0.46045 0.0
C143 C 0.56491 0.15675 0.4655 0.0
O144 O 0.6171 0.16852 0.45746 0.0
Co145 Co 0.58816 0.18474 0.41831 0.0
O146 O 0.61423 0.20193 0.44424 0.0
C147 C 0.59768 0.14888 0.38633 0.0
C148 C 0.57631 0.10106 0.45334 0.0
C149 C 0.62462 0.19113 0.45737 0.0
O150 O 0.59953 0.13855 0.40871 0.0
O151 O 0.59134 0.1661 0.38603 0.0
O152 O 0.57275 0.14453 0.48111 0.0
O153 O 0.56957 0.157 0.43956 0.0
Co154 Co 0.37836 0.54985 0.94476 0.0
O155 O 0.38169 0.52059 0.94959 0.0
O156 O 0.41009 0.55633 0.95562 0.0
C157 C 0.34454 0.54141 0.96795 0.0
O158 O 0.38172 0.58368 0.94349 0.0
Co159 Co 0.33693 0.55295 0.91198 0.0
O160 O 0.34782 0.58477 0.92907 0.0
C161 C 0.37541 0.54735 0.88188 0.0
C162 C 0.40346 0.53361 0.95612 0.0
C163 C 0.36819 0.59455 0.94 0.0
O164 O 0.38723 0.55062 0.90448 0.0
O165 O 0.35419 0.54566 0.88099 0.0
O166 O 0.36428 0.54731 0.98129 0.0
O167 O 0.34551 0.53724 0.94194 0.0
C168 C 0.61401 0.12518 0.35727 0.0
C169 C 0.60278 0.14076 0.35931 0.0
C170 C 0.619 0.11827 0.3313 0.0
C171 C 0.60111 0.11476 0.2581 0.0
H172 H 0.66454 0.12169 0.24094 0.0
C173 C 0.62668 0.108 0.14628 0.0
C174 C 0.64782 0.12635 0.13773 0.0
C175 C 0.62162 0.10353 0.17432 0.0
C176 C 0.64671 0.11959 0.24543 0.0
H177 H 0.58771 0.16095 0.33556 0.0
H178 H 0.59637 0.14904 0.29095 0.0
H179 H 0.65396 0.12582 0.28869 0.0
H180 H 0.68084 0.15346 0.15202 0.0
H181 H 0.67172 0.14617 0.20079 0.0
H182 H 0.59406 0.11004 0.21498 0.0
C183 C 0.60119 0.14198 0.30922 0.0
C184 C 0.64061 0.12169 0.27282 0.0
C185 C 0.59643 0.14898 0.33492 0.0
C186 C 0.66437 0.13921 0.15785 0.0
C187 C 0.65919 0.1349 0.18591 0.0
C188 C 0.60718 0.11272 0.23084 0.0
C189 C 0.61251 0.12656 0.30704 0.0
C190 C 0.61795 0.12009 0.27924 0.0
C191 C 0.63744 0.11748 0.1945 0.0
C192 C 0.63025 0.11581 0.224 0.0
H193 H 0.61916 0.11855 0.37565 0.0
H194 H 0.62776 0.10637 0.33018 0.0
H195 H 0.5834 0.11312 0.2625 0.0
H196 H 0.6137 0.09751 0.13131 0.0
H197 H 0.60493 0.08962 0.18019 0.0
C198 C 0.44745 0.62702 0.66864 0.0
C199 C 0.44562 0.61429 0.64412 0.0
C200 C 0.446 0.6163 0.69427 0.0
C201 C 0.41963 0.55791 0.72613 0.0
H202 H 0.44939 0.59376 0.7914 0.0
C203 C 0.37409 0.54201 0.83068 0.0
C204 C 0.38724 0.54743 0.85526 0.0
C205 C 0.3853 0.54534 0.80514 0.0
C206 C 0.44125 0.58321 0.77345 0.0
H207 H 0.44221 0.58059 0.62745 0.0
H208 H 0.43985 0.56193 0.67234 0.0
H209 H 0.46366 0.60985 0.74594 0.0
H210 H 0.4225 0.559 0.87224 0.0
H211 H 0.44213 0.56468 0.82743 0.0
H212 H 0.39698 0.53143 0.75364 0.0
C213 C 0.44205 0.58014 0.67164 0.0
C214 C 0.44925 0.5926 0.74734 0.0
C215 C 0.44348 0.59088 0.6459 0.0
C216 C 0.41183 0.55482 0.85371 0.0
C217 C 0.4231 0.55819 0.82803 0.0
C218 C 0.41173 0.54845 0.75224 0.0
C219 C 0.44278 0.59259 0.69612 0.0
C220 C 0.43784 0.58053 0.72339 0.0
C221 C 0.40999 0.55411 0.80344 0.0
C222 C 0.42175 0.56146 0.7762 0.0
H223 H 0.44922 0.6451 0.66815 0.0
H224 H 0.44628 0.62637 0.71262 0.0
H225 H 0.41039 0.5481 0.70817 0.0
H226 H 0.3551 0.53609 0.83103 0.0
H227 H 0.3746 0.54227 0.78671 0.0
C228 C 0.85754 0.3771 0.14683 0.0
C229 C 0.84921 0.39457 0.14151 0.0
C230 C 0.86315 0.37315 0.17384 0.0
C231 C 0.85101 0.38518 0.24623 0.0
H232 H 0.898 0.36132 0.26468 0.0
C233 C 0.87609 0.37831 0.35796 0.0
C234 C 0.87021 0.35489 0.36627 0.0
C235 C 0.87775 0.38413 0.33 0.0
C236 C 0.88489 0.36803 0.25968 0.0
H237 H 0.84182 0.42274 0.15952 0.0
H238 H 0.85291 0.417 0.20604 0.0
H239 H 0.89289 0.37033 0.21648 0.0
H240 H 0.86352 0.31966 0.3517 0.0
H241 H 0.86688 0.3301 0.3027 0.0
H242 H 0.84346 0.38343 0.28942 0.0
C243 C 0.85399 0.40539 0.18994 0.0
C244 C 0.8818 0.37304 0.23212 0.0
C245 C 0.84782 0.40887 0.16321 0.0
C246 C 0.86788 0.33782 0.346 0.0
C247 C 0.86991 0.34377 0.31798 0.0
C248 C 0.85444 0.38066 0.27364 0.0
C249 C 0.861 0.38699 0.19586 0.0
C250 C 0.86481 0.38174 0.22504 0.0
C251 C 0.87401 0.36678 0.30981 0.0
C252 C 0.87137 0.37208 0.28062 0.0
H253 H 0.85869 0.36582 0.13035 0.0
H254 H 0.86831 0.35872 0.17752 0.0
H255 H 0.83718 0.39103 0.2417 0.0
H256 H 0.87808 0.39194 0.37295 0.0
H257 H 0.88103 0.40203 0.32409 0.0
C258 C 0.38778 0.86968 0.84492 0.0
C259 C 0.39672 0.8523 0.84779 0.0
C260 C 0.38433 0.87718 0.8186 0.0
C261 C 0.40154 0.87664 0.74525 0.0
H262 H 0.3404 0.87616 0.72825 0.0
C263 C 0.37445 0.88023 0.63275 0.0
C264 C 0.35163 0.86393 0.62593 0.0
C265 C 0.38109 0.88543 0.66035 0.0
C266 C 0.35759 0.8764 0.73265 0.0
H267 H 0.40962 0.82971 0.82517 0.0
H268 H 0.40349 0.8425 0.77997 0.0
H269 H 0.35087 0.87297 0.77618 0.0
H270 H 0.31764 0.84094 0.64279 0.0
H271 H 0.32941 0.8493 0.6907 0.0
H272 H 0.40777 0.87834 0.70188 0.0
C273 C 0.39933 0.85058 0.79783 0.0
C274 C 0.36369 0.87489 0.76016 0.0
C275 C 0.40261 0.84304 0.82388 0.0
C276 C 0.33537 0.85358 0.64728 0.0
C277 C 0.34208 0.85857 0.67485 0.0
C278 C 0.39541 0.87798 0.71782 0.0
C279 C 0.39008 0.86764 0.7948 0.0
C280 C 0.38539 0.87409 0.76662 0.0
C281 C 0.36515 0.87426 0.68178 0.0
C282 C 0.37303 0.87704 0.71108 0.0
H283 H 0.38308 0.87718 0.86292 0.0
H284 H 0.37718 0.89038 0.81686 0.0
H285 H 0.41858 0.87651 0.74963 0.0
H286 H 0.3873 0.8888 0.61678 0.0
H287 H 0.39887 0.89793 0.66488 0.0
C288 C 0.61194 0.47129 0.34669 0.0
C289 C 0.59784 0.45278 0.36392 0.0
C290 C 0.60506 0.47264 0.31956 0.0
C291 C 0.55822 0.44281 0.26651 0.0
H292 H 0.61256 0.44992 0.22192 0.0
C293 C 0.55726 0.41841 0.14846 0.0
C294 C 0.56626 0.40108 0.14543 0.0
C295 C 0.55956 0.43027 0.17371 0.0
C296 C 0.59728 0.44829 0.23399 0.0
H297 H 0.56464 0.42234 0.36737 0.0
H298 H 0.55299 0.42396 0.31958 0.0
H299 H 0.61807 0.46205 0.26983 0.0
H300 H 0.58514 0.38301 0.16613 0.0
H301 H 0.58961 0.40399 0.2095 0.0
H302 H 0.53745 0.42742 0.23045 0.0
C303 C 0.56906 0.43787 0.32704 0.0
C304 C 0.60039 0.45542 0.26148 0.0
C305 C 0.57573 0.43687 0.35446 0.0
C306 C 0.57787 0.39614 0.16782 0.0
C307 C 0.58055 0.40822 0.19263 0.0
C308 C 0.55513 0.43573 0.23877 0.0
C309 C 0.5843 0.45503 0.30886 0.0
C310 C 0.58086 0.45201 0.27843 0.0
C311 C 0.57143 0.42534 0.19587 0.0
C312 C 0.57461 0.43761 0.22267 0.0
H313 H 0.62899 0.48389 0.35368 0.0
H314 H 0.61688 0.48651 0.3064 0.0
H315 H 0.54283 0.44015 0.27889 0.0
H316 H 0.54815 0.42248 0.13154 0.0
H317 H 0.55238 0.44342 0.17584 0.0
C318 C 0.1642 0.60816 0.67033 0.0
C319 C 0.14918 0.60505 0.64755 0.0
C320 C 0.15896 0.61522 0.69577 0.0
C321 C 0.11221 0.61592 0.73995 0.0
H322 H 0.16402 0.66565 0.77714 0.0
C323 C 0.11964 0.62983 0.85816 0.0
C324 C 0.13135 0.65292 0.86835 0.0
C325 C 0.11718 0.62562 0.82974 0.0
C326 C 0.14919 0.65203 0.76695 0.0
H327 H 0.11643 0.60637 0.63406 0.0
H328 H 0.10715 0.61862 0.67914 0.0
H329 H 0.16897 0.65529 0.72993 0.0
H330 H 0.14779 0.68984 0.85658 0.0
H331 H 0.14336 0.68245 0.80718 0.0
H332 H 0.09267 0.61225 0.7775 0.0
C333 C 0.12306 0.61563 0.67688 0.0
C334 C 0.15213 0.64596 0.73998 0.0
C335 C 0.12843 0.60872 0.65112 0.0
C336 C 0.13899 0.6718 0.84952 0.0
C337 C 0.13651 0.66758 0.82116 0.0
C338 C 0.10929 0.62191 0.76717 0.0
C339 C 0.13851 0.61926 0.69929 0.0
C340 C 0.1339 0.6275 0.72643 0.0
C341 C 0.12635 0.64441 0.81093 0.0
C342 C 0.12794 0.63976 0.7811 0.0
H343 H 0.18029 0.60542 0.66854 0.0
H344 H 0.17098 0.61749 0.71283 0.0
H345 H 0.09791 0.60158 0.72995 0.0
H346 H 0.11339 0.61486 0.87205 0.0
H347 H 0.10937 0.60755 0.82252 0.0
C348 C 0.57729 0.05355 0.03708 0.0
C349 C 0.57583 0.07438 0.04606 0.0
C350 C 0.55687 0.0339 0.03025 0.0
C351 C 0.49729 0.01919 0.00465 0.0
H352 H 0.49107 0.95514 0.01635 0.0
C353 C 0.42429 0.9244 0.97164 0.0
C354 C 0.43464 0.91533 0.95148 0.0
C355 C 0.43773 0.94573 0.98482 0.0
C356 C 0.49249 0.97296 0.0133 0.0
H357 H 0.55185 0.09064 0.05644 0.0
H358 H 0.5162 0.05623 0.04462 0.0
H359 H 0.52231 0.98767 0.04005 0.0
H360 H 0.46623 0.92241 0.92736 0.0
H361 H 0.48954 0.95958 0.95039 0.0
H362 H 0.46777 0.0042 0.9771 0.0
C363 C 0.53312 0.05521 0.0425 0.0
C364 C 0.51038 0.99153 0.02665 0.0
C365 C 0.55353 0.07485 0.04937 0.0
C366 C 0.45787 0.92888 0.94298 0.0
C367 C 0.4712 0.9501 0.95607 0.0
C368 C 0.47931 0.00053 0.99132 0.0
C369 C 0.53463 0.03472 0.03231 0.0
C370 C 0.51343 0.01489 0.02179 0.0
C371 C 0.46148 0.95814 0.97773 0.0
C372 C 0.47728 0.97743 0.99507 0.0
H373 H 0.59422 0.05268 0.03433 0.0
H374 H 0.55863 0.01843 0.02217 0.0
H375 H 0.49935 0.03703 0.00033 0.0
H376 H 0.40642 0.91427 0.97861 0.0
H377 H 0.43006 0.95175 0.00162 0.0
C378 C 0.45973 0.55601 0.53666 0.0
C379 C 0.47296 0.58031 0.54029 0.0
C380 C 0.47097 0.541 0.53149 0.0
C381 C 0.5287 0.53718 0.53666 0.0
H382 H 0.50324 0.48982 0.47947 0.0
C383 C 0.58247 0.49179 0.48491 0.0
C384 C 0.57105 0.46758 0.47921 0.0
C385 C 0.56976 0.50417 0.49494 0.0
C386 C 0.51036 0.50272 0.49578 0.0
H387 H 0.50829 0.60797 0.54152 0.0
H388 H 0.52791 0.58184 0.53201 0.0
H389 H 0.48236 0.51417 0.49211 0.0
H390 H 0.53746 0.43721 0.47994 0.0
H391 H 0.51521 0.45893 0.49748 0.0
H392 H 0.55697 0.52603 0.53987 0.0
C393 C 0.50888 0.57431 0.53361 0.0
C394 C 0.49841 0.51667 0.50303 0.0
C395 C 0.49764 0.58931 0.53885 0.0
C396 C 0.54672 0.4559 0.48407 0.0
C397 C 0.53397 0.46832 0.494 0.0
C398 C 0.54068 0.52328 0.52935 0.0
C399 C 0.49566 0.55001 0.52978 0.0
C400 C 0.50761 0.53425 0.5233 0.0
C401 C 0.54536 0.49261 0.49938 0.0
C402 C 0.53179 0.50613 0.50859 0.0
H403 H 0.44067 0.54853 0.53783 0.0
H404 H 0.46032 0.52232 0.52897 0.0
H405 H 0.53599 0.55028 0.55273 0.0
H406 H 0.60121 0.50127 0.48137 0.0
H407 H 0.57894 0.52294 0.49857 0.0
C408 C 0.07751 0.56103 0.95645 0.0
C409 C 0.07783 0.58344 0.96165 0.0
C410 C 0.05766 0.54069 0.96289 0.0
C411 C 0.99444 0.51937 0.98096 0.0
H412 H 0.00528 0.47052 0.02103 0.0
C413 C 0.9278 0.45844 0.05519 0.0
C414 C 0.91567 0.43576 0.04421 0.0
C415 C 0.94956 0.47329 0.04447 0.0
C416 C 0.00212 0.48391 0.00953 0.0
H417 H 0.05744 0.6022 0.97672 0.0
H418 H 0.0229 0.56674 0.9884 0.0
H419 H 0.03873 0.50357 0.00083 0.0
H420 H 0.9177 0.4099 0.01541 0.0
H421 H 0.95625 0.43619 0.99668 0.0
H422 H 0.958 0.50029 0.99097 0.0
C423 C 0.03783 0.56482 0.97897 0.0
C424 C 0.02113 0.50274 0.99789 0.0
C425 C 0.05765 0.58516 0.97241 0.0
C426 C 0.92672 0.42733 0.02421 0.0
C427 C 0.94866 0.44228 0.01348 0.0
C428 C 0.97557 0.50073 0.99277 0.0
C429 C 0.03777 0.54237 0.97472 0.0
C430 C 0.01751 0.52096 0.98406 0.0
C431 C 0.9596 0.46564 0.02279 0.0
C432 C 0.97937 0.48321 0.00759 0.0
H433 H 0.09279 0.55917 0.94796 0.0
H434 H 0.058 0.52366 0.95896 0.0
H435 H 0.99101 0.53283 0.96997 0.0
H436 H 0.91981 0.4653 0.07083 0.0
H437 H 0.95792 0.49126 0.05197 0.0
C438 C 0.54904 0.05939 0.44553 0.0
C439 C 0.56716 0.0761 0.46114 0.0
C440 C 0.53632 0.03685 0.456 0.0
C441 C 0.51604 0.98769 0.48214 0.0
H442 H 0.4844 0.99451 0.54855 0.0
C443 C 0.43906 0.90968 0.53037 0.0
C444 C 0.41843 0.91365 0.53318 0.0
C445 C 0.46071 0.9284 0.52569 0.0
C446 C 0.49327 0.99234 0.5302 0.0
H447 H 0.58737 0.08217 0.49898 0.0
H448 H 0.56443 0.04274 0.5178 0.0
H449 H 0.51868 0.02817 0.5311 0.0
H450 H 0.40444 0.94041 0.53466 0.0
H451 H 0.4426 0.97337 0.52661 0.0
H452 H 0.49017 0.95212 0.48064 0.0
C453 C 0.5604 0.04705 0.49733 0.0
C454 C 0.51298 0.01144 0.5204 0.0
C455 C 0.57353 0.06947 0.48652 0.0
C456 C 0.42004 0.93685 0.53246 0.0
C457 C 0.44184 0.95567 0.52803 0.0
C458 C 0.4966 0.96848 0.49218 0.0
C459 C 0.54121 0.03088 0.48249 0.0
C460 C 0.52404 0.00945 0.49583 0.0
C461 C 0.46224 0.95149 0.52402 0.0
C462 C 0.48462 0.97088 0.5158 0.0
H463 H 0.54388 0.06416 0.42589 0.0
H464 H 0.52149 0.02472 0.44427 0.0
H465 H 0.52427 0.98584 0.46309 0.0
H466 H 0.43846 0.89201 0.53101 0.0
H467 H 0.47623 0.92478 0.52286 0.0
C468 C 0.41532 0.49976 0.95709 0.0
C469 C 0.4199 0.52312 0.96426 0.0
C470 C 0.43072 0.48972 0.96533 0.0
C471 C 0.47009 0.4908 0.01976 0.0
H472 H 0.49657 0.46061 0.96782 0.0
C473 C 0.50565 0.42086 0.0482 0.0
C474 C 0.52827 0.42513 0.03833 0.0
C475 C 0.4944 0.43519 0.03988 0.0
C476 C 0.48939 0.46912 0.98247 0.0
H477 H 0.44404 0.55436 0.98552 0.0
H478 H 0.47059 0.53643 0.00069 0.0
H479 H 0.47299 0.48131 0.95077 0.0
H480 H 0.55699 0.44771 0.01227 0.0
H481 H 0.5369 0.47233 0.99706 0.0
H482 H 0.4857 0.47781 0.05153 0.0
C483 C 0.45527 0.5261 0.98842 0.0
C484 C 0.47588 0.48081 0.97276 0.0
C485 C 0.44015 0.53632 0.97969 0.0
C486 C 0.53955 0.44407 0.02021 0.0
C487 C 0.5281 0.45809 0.01146 0.0
C488 C 0.48319 0.47869 0.0295 0.0
C489 C 0.45063 0.50274 0.98131 0.0
C490 C 0.46602 0.49159 0.99136 0.0
C491 C 0.50542 0.45368 0.02117 0.0
C492 C 0.49279 0.46766 0.01092 0.0
H493 H 0.39989 0.48926 0.9451 0.0
H494 H 0.42679 0.4716 0.95978 0.0
H495 H 0.46253 0.49894 0.03443 0.0
H496 H 0.49664 0.40643 0.06228 0.0
H497 H 0.47683 0.43144 0.04747 0.0
C498 C 0.93942 0.4216 0.46598 0.0
C499 C 0.91651 0.42075 0.46488 0.0
C500 C 0.9584 0.44255 0.47313 0.0
C501 C 0.97225 0.49351 0.51592 0.0
H502 H 0.03132 0.5195 0.47572 0.0
C503 C 0.0722 0.57171 0.52477 0.0
C504 C 0.08007 0.5637 0.54819 0.0
C505 C 0.04975 0.55858 0.51408 0.0
C506 C 0.01478 0.51266 0.4869 0.0
H507 H 0.89551 0.44119 0.46973 0.0
H508 H 0.92863 0.47755 0.48293 0.0
H509 H -0.00265 0.48703 0.45562 0.0
H510 H 0.0702 0.53713 0.58027 0.0
H511 H 0.03063 0.51465 0.56213 0.0
H512 H 0.99015 0.51814 0.54797 0.0
C513 C 0.93187 0.46209 0.47802 0.0
C514 C 0.99551 0.49403 0.47554 0.0
C515 C 0.91299 0.44132 0.4704 0.0
C516 C 0.0645 0.5436 0.56215 0.0
C517 C 0.0419 0.53081 0.55184 0.0
C518 C 0.99168 0.51182 0.52754 0.0
C519 C 0.95465 0.4628 0.47971 0.0
C520 C 0.97424 0.48406 0.49019 0.0
C521 C 0.03474 0.53768 0.52713 0.0
C522 C 0.01318 0.52125 0.51329 0.0
H523 H 0.94262 0.40602 0.46175 0.0
H524 H 0.97586 0.4427 0.47451 0.0
H525 H 0.95601 0.48597 0.52762 0.0
H526 H 0.08396 0.5871 0.51356 0.0
H527 H 0.04451 0.56415 0.49498 0.0
C528 C 0.61932 0.20119 0.06286 0.0
C529 C 0.64106 0.20401 0.05139 0.0
C530 C 0.61025 0.21803 0.05849 0.0
C531 C 0.61011 0.26311 0.01075 0.0
H532 H 0.58243 0.28186 0.07298 0.0
C533 C 0.54181 0.30869 0.04161 0.0
C534 C 0.55156 0.33004 0.02713 0.0
C535 C 0.55214 0.29258 0.04006 0.0
C536 C 0.58977 0.27655 0.05528 0.0
H537 H 0.67044 0.22674 0.02633 0.0
H538 H 0.65431 0.25644 0.01847 0.0
H539 H 0.60378 0.2572 0.08061 0.0
H540 H 0.57831 0.35038 0.99757 0.0
H541 H 0.59671 0.32231 0.99523 0.0
H542 H 0.59571 0.2824 0.98539 0.0
C543 C 0.64444 0.2411 0.03094 0.0
C544 C 0.60217 0.26258 0.05972 0.0
C545 C 0.65375 0.22427 0.03565 0.0
C546 C 0.57029 0.3339 0.00874 0.0
C547 C 0.58094 0.3179 0.00755 0.0
C548 C 0.59756 0.27715 0.00626 0.0
C549 C 0.62256 0.23805 0.04233 0.0
C550 C 0.61206 0.2553 0.0375 0.0
C551 C 0.5727 0.29771 0.02441 0.0
C552 C 0.58678 0.28352 0.02846 0.0
H553 H 0.6091 0.18576 0.07504 0.0
H554 H 0.59324 0.21509 0.06728 0.0
H555 H 0.61751 0.25764 0.99324 0.0
H556 H 0.52732 0.3053 0.05582 0.0
H557 H 0.54492 0.2768 0.05261 0.0
C558 C 0.36326 0.59673 0.53013 0.0
C559 C 0.37224 0.61808 0.54491 0.0
C560 C 0.34068 0.58824 0.51874 0.0
C561 C 0.28741 0.56665 0.51571 0.0
H562 H 0.25931 0.60939 0.49348 0.0
C563 C 0.19408 0.55195 0.54119 0.0
C564 C 0.18224 0.56283 0.52574 0.0
C565 C 0.21607 0.55347 0.5328 0.0
C566 C 0.26689 0.59702 0.49884 0.0
H567 H 0.36469 0.64755 0.55863 0.0
H568 H 0.32506 0.63235 0.53977 0.0
H569 H 0.30178 0.62422 0.49899 0.0
H570 H 0.18283 0.58185 0.48806 0.0
H571 H 0.2215 0.58451 0.47322 0.0
H572 H 0.25244 0.53955 0.51604 0.0
C573 C 0.33563 0.62236 0.5364 0.0
C574 C 0.29124 0.60564 0.5025 0.0
C575 C 0.35826 0.63094 0.54761 0.0
C576 C 0.19164 0.57327 0.50031 0.0
C577 C 0.21383 0.57496 0.49196 0.0
C578 C 0.26308 0.55798 0.51179 0.0
C579 C 0.32648 0.60082 0.52198 0.0
C580 C 0.30163 0.59081 0.51236 0.0
C581 C 0.22676 0.56607 0.50885 0.0
C582 C 0.25243 0.57333 0.50476 0.0
H583 H 0.37371 0.58656 0.52721 0.0
H584 H 0.33433 0.57177 0.50744 0.0
H585 H 0.29476 0.55466 0.52323 0.0
H586 H 0.18711 0.54372 0.56083 0.0
H587 H 0.22552 0.54657 0.54648 0.0
C588 C 0.76802 0.3348 0.01668 0.0
C589 C 0.79196 0.34318 0.02396 0.0
C590 C 0.75686 0.31309 0.00342 0.0
C591 C 0.73884 0.26864 0.96779 0.0
H592 H 0.74686 0.21979 0.01064 0.0
C593 C 0.69405 0.16235 0.99569 0.0
C594 C 0.67072 0.16017 0.9968 0.0
C595 C 0.71194 0.18323 0.98637 0.0
C596 C 0.74475 0.23296 0.99763 0.0
H597 H 0.82328 0.33593 0.02154 0.0
H598 H 0.80361 0.29781 0.99878 0.0
H599 H 0.77315 0.26044 0.01805 0.0
H600 H 0.64725 0.17692 0.98652 0.0
H601 H 0.67834 0.21374 0.97188 0.0
H602 H 0.70994 0.24109 0.94785 0.0
C603 C 0.79354 0.30809 0.00342 0.0
C604 C 0.75988 0.25644 0.00207 0.0
C605 C 0.80476 0.32989 0.01649 0.0
C606 C 0.66514 0.17813 0.98572 0.0
C607 C 0.6831 0.19933 0.97725 0.0
C608 C 0.72384 0.24503 0.96299 0.0
C609 C 0.76936 0.29925 0.9973 0.0
C610 C 0.75649 0.27456 0.98804 0.0
C611 C 0.70689 0.20265 0.9791 0.0
C612 C 0.72595 0.22693 0.97875 0.0
H613 H 0.75771 0.34473 0.02179 0.0
H614 H 0.73815 0.30661 -0.00076 0.0
H615 H 0.73606 0.28231 0.95641 0.0
H616 H 0.69867 0.14855 0.00388 0.0
H617 H 0.72992 0.18477 0.98701 0.0
C618 C 0.35772 0.79056 0.50253 0.0
C619 C 0.34241 0.78659 0.52507 0.0
C620 C 0.36653 0.77401 0.4953 0.0
C621 C 0.36323 0.71379 0.50889 0.0
H622 H 0.43098 0.74518 0.49888 0.0
C623 C 0.42203 0.66208 0.49837 0.0
C624 C 0.44071 0.66944 0.51745 0.0
C625 C 0.40965 0.67611 0.49324 0.0
C626 C 0.41207 0.73614 0.50147 0.0
H627 H 0.32263 0.76152 0.55638 0.0
H628 H 0.33876 0.73259 0.54437 0.0
H629 H 0.40773 0.76845 0.5016 0.0
H630 H 0.46217 0.6978 0.5445 0.0
H631 H 0.44114 0.7226 0.5349 0.0
H632 H 0.36802 0.68147 0.5101 0.0
C633 C 0.34372 0.74841 0.53203 0.0
C634 C 0.39865 0.74944 0.50276 0.0
C635 C 0.33455 0.76495 0.53901 0.0
C636 C 0.44798 0.69182 0.52955 0.0
C637 C 0.43587 0.70596 0.5241 0.0
C638 C 0.37673 0.70042 0.50752 0.0
C639 C 0.3606 0.75328 0.51081 0.0
C640 C 0.37412 0.7385 0.5069 0.0
C641 C 0.41607 0.6979 0.50665 0.0
C642 C 0.40135 0.71155 0.50434 0.0
H643 H 0.3636 0.80696 0.49109 0.0
H644 H 0.37888 0.77798 0.47831 0.0
H645 H 0.34437 0.70483 0.51193 0.0
H646 H 0.41583 0.64476 0.48903 0.0
H647 H 0.39458 0.66957 0.47953 0.0
C648 C 0.63921 0.37003 0.04336 0.0
C649 C 0.62586 0.38355 0.04112 0.0
C650 C 0.66104 0.37723 0.0303 0.0
C651 C 0.70361 0.3911 0.99367 0.0
H652 H 0.74503 0.45676 0.00539 0.0
C653 C 0.80263 0.41875 0.99261 0.0
C654 C 0.81181 0.42888 0.01823 0.0
C655 C 0.78102 0.41821 0.98355 0.0
C656 C 0.73363 0.43845 0.00154 0.0
H657 H 0.62452 0.41472 0.02225 0.0
H658 H 0.66256 0.42716 -0.00067 0.0
H659 H 0.70294 0.44363 0.01317 0.0
H660 H 0.80731 0.44849 0.05303 0.0
H661 H 0.76997 0.44773 0.03742 0.0
H662 H 0.73458 0.3855 0.98464 0.0
C663 C 0.65632 0.41121 0.01159 0.0
C664 C 0.70944 0.43091 0.00582 0.0
C665 C 0.63452 0.40407 0.0248 0.0
C666 C 0.80045 0.44048 0.03326 0.0
C667 C 0.77912 0.44019 0.02413 0.0
C668 C 0.72783 0.3986 0.98963 0.0
C669 C 0.66997 0.39803 0.01447 0.0
C670 C 0.69435 0.4069 0.0034 0.0
C671 C 0.76857 0.42804 -0.00012 0.0
C672 C 0.74321 0.42209 0.99508 0.0
H673 H 0.633 0.35402 0.05555 0.0
H674 H 0.67125 0.36687 0.03343 0.0
H675 H 0.69234 0.3726 0.99085 0.0
H676 H 0.81111 0.40963 0.98071 0.0
H677 H 0.77339 0.4089 0.96467 0.0
C678 C 0.23098 0.66214 0.53819 0.0
C679 C 0.20708 0.64839 0.53278 0.0
C680 C 0.24285 0.68351 0.5245 0.0
C681 C 0.23142 0.7297 0.48688 0.0
H682 H 0.29919 0.75476 0.47771 0.0
C683 C 0.29123 0.82653 0.49808 0.0
C684 C 0.31451 0.83486 0.48842 0.0
C685 C 0.2752 0.80372 0.49171 0.0
C686 C 0.28018 0.74798 0.47928 0.0
H687 H 0.17714 0.64573 0.50779 0.0
H688 H 0.19803 0.68267 0.48323 0.0
H689 H 0.27775 0.71363 0.48951 0.0
H690 H 0.33804 0.82761 0.46048 0.0
H691 H 0.30981 0.78808 0.44862 0.0
H692 H 0.23392 0.76411 0.47646 0.0
C693 C 0.20746 0.67734 0.49868 0.0
C694 C 0.2679 0.72439 0.48667 0.0
C695 C 0.19549 0.65611 0.51271 0.0
C696 C 0.32031 0.82154 0.46864 0.0
C697 C 0.3042 0.79872 0.46212 0.0
C698 C 0.24367 0.75322 0.47902 0.0
C699 C 0.23123 0.69151 0.50467 0.0
C700 C 0.24352 0.71521 0.49182 0.0
C701 C 0.28209 0.78895 0.47524 0.0
C702 C 0.26834 0.76295 0.47633 0.0
H703 H 0.24041 0.65673 0.5536 0.0
H704 H 0.26095 0.69408 0.53021 0.0
H705 H 0.21267 0.72336 0.49063 0.0
H706 H 0.28617 0.83659 0.51305 0.0
H707 H 0.25833 0.797 0.50215 0.0
C708 C 0.7673 0.33073 0.46322 0.0
C709 C 0.78827 0.34644 0.45078 0.0
C710 C 0.74843 0.33733 0.46713 0.0
C711 C 0.72395 0.37774 0.44016 0.0
H712 H 0.69942 0.37858 0.5136 0.0
C713 C 0.67773 0.43756 0.463 0.0
C714 C 0.65587 0.42763 0.47639 0.0
C715 C 0.69267 0.42585 0.46278 0.0
C716 C 0.70589 0.37817 0.49294 0.0
H717 H 0.80572 0.38093 0.43195 0.0
H718 H 0.77288 0.39212 0.43814 0.0
H719 H 0.72634 0.35913 0.5058 0.0
H720 H 0.633 0.3984 0.50155 0.0
H721 H 0.65929 0.37776 0.50114 0.0
H722 H 0.70407 0.397 0.42718 0.0
C723 C 0.77096 0.37485 0.44508 0.0
C724 C 0.72117 0.36697 0.48847 0.0
C725 C 0.78981 0.36847 0.44165 0.0
C726 C 0.64993 0.40659 0.49136 0.0
C727 C 0.66489 0.39471 0.49097 0.0
C728 C 0.70875 0.38881 0.44457 0.0
C729 C 0.75016 0.35949 0.45802 0.0
C730 C 0.73087 0.36733 0.46217 0.0
C731 C 0.68595 0.4038 0.47569 0.0
C732 C 0.70017 0.38985 0.47115 0.0
H733 H 0.76577 0.31369 0.47058 0.0
H734 H 0.73253 0.32519 0.47716 0.0
H735 H 0.73089 0.37793 0.4196 0.0
H736 H 0.68272 0.45378 0.45137 0.0
H737 H 0.70909 0.4336 0.45145 0.0
C738 C 0.33232 0.76567 0.95887 0.0
C739 C 0.34592 0.78976 0.9633 0.0
C740 C 0.31209 0.75366 0.97447 0.0
C741 C 0.26762 0.76403 0.0165 0.0
H742 H 0.24507 0.69634 0.02484 0.0
C743 C 0.17274 0.70352 0.00165 0.0
C744 C 0.16471 0.67956 0.00841 0.0
C745 C 0.19492 0.71943 0.01022 0.0
C746 C 0.25108 0.7153 0.02354 0.0
H747 H 0.34946 0.82 0.9883 0.0
H748 H 0.31439 0.79888 0.01608 0.0
H749 H 0.28563 0.7191 0.01212 0.0
H750 H 0.1717 0.6541 0.03327 0.0
H751 H 0.21011 0.6821 0.0493 0.0
H752 H 0.2331 0.76023 0.02822 0.0
C753 C 0.31901 0.78937 5e-05 0.0
C754 C 0.27439 0.72836 0.01564 0.0
C755 C 0.33911 0.80149 0.98411 0.0
C756 C 0.17763 0.67244 0.02735 0.0
C757 C 0.1998 0.68847 0.03626 0.0
C758 C 0.24441 0.75102 0.02497 0.0
C759 C 0.30512 0.76531 0.99529 0.0
C760 C 0.28251 0.75264 0.01026 0.0
C761 C 0.20945 0.71175 0.02608 0.0
C762 C 0.23537 0.72627 0.02673 0.0
H763 H 0.33704 0.75612 0.94296 0.0
H764 H 0.30159 0.73533 0.96959 0.0
H765 H 0.27323 0.78274 0.01293 0.0
H766 H 0.16294 0.70958 0.98742 0.0
H767 H 0.20143 0.73711 0.00188 0.0
C768 C 0.57096 0.19141 0.49486 0.0
C769 C 0.55676 0.1741 0.47637 0.0
C770 C 0.56862 0.21283 0.49688 0.0
C771 C 0.55426 0.24848 0.44752 0.0
H772 H 0.57239 0.29513 0.50597 0.0
C773 C 0.6043 0.34713 0.42706 0.0
C774 C 0.59625 0.36263 0.44016 0.0
C775 C 0.59479 0.32326 0.43397 0.0
C776 C 0.56701 0.28218 0.48955 0.0
H777 H 0.52711 0.16381 0.44845 0.0
H778 H 0.52219 0.20066 0.45297 0.0
H779 H 0.56113 0.25344 0.51741 0.0
H780 H 0.57208 0.36528 0.47105 0.0
H781 H 0.55569 0.32348 0.48328 0.0
H782 H 0.56099 0.27713 0.41959 0.0
C783 C 0.5356 0.19819 0.4652 0.0
C784 C 0.56066 0.25841 0.49607 0.0
C785 C 0.53826 0.17706 0.46279 0.0
C786 C 0.57849 0.35373 0.46035 0.0
C787 C 0.56922 0.32989 0.46754 0.0
C788 C 0.56077 0.27213 0.44104 0.0
C789 C 0.55189 0.21692 0.4806 0.0
C790 C 0.55466 0.24138 0.47502 0.0
C791 C 0.57728 0.31447 0.45437 0.0
C792 C 0.56775 0.28924 0.46188 0.0
H793 H 0.58554 0.18951 0.50526 0.0
H794 H 0.58147 0.22692 0.50889 0.0
H795 H 0.55017 0.23594 0.43072 0.0
H796 H 0.61802 0.35345 0.41154 0.0
H797 H 0.60146 0.31171 0.42373 0.0
C798 C 0.22878 0.65973 0.96914 0.0
C799 C 0.20767 0.64675 0.95502 0.0
C800 C 0.24542 0.65009 0.97335 0.0
C801 C 0.26411 0.60556 0.94513 0.0
H802 H 0.28532 0.59972 0.01893 0.0
C803 C 0.30431 0.54018 0.96435 0.0
C804 C 0.32623 0.54899 0.97766 0.0
C805 C 0.28985 0.55241 0.96572 0.0
C806 C 0.27969 0.60142 0.99821 0.0
H807 H 0.18774 0.61395 0.93355 0.0
H808 H 0.21667 0.59752 0.9404 0.0
H809 H 0.26218 0.62324 0.01134 0.0
H810 H 0.34926 0.57622 0.00512 0.0
H811 H 0.32401 0.59778 0.0073 0.0
H812 H 0.28123 0.58378 0.93181 0.0
C813 C 0.22044 0.61499 0.94836 0.0
C814 C 0.2666 0.61495 0.99385 0.0
C815 C 0.20381 0.62439 0.94455 0.0
C816 C 0.33232 0.56889 0.99482 0.0
C817 C 0.31794 0.58135 0.99592 0.0
C818 C 0.27711 0.59216 0.94944 0.0
C819 C 0.24131 0.62759 0.96296 0.0
C820 C 0.25819 0.6166 0.96735 0.0
C821 C 0.29718 0.57386 0.98017 0.0
C822 C 0.28448 0.58935 0.9761 0.0
H823 H 0.23209 0.67694 0.97757 0.0
H824 H 0.26143 0.66017 0.98462 0.0
H825 H 0.2582 0.60689 0.92442 0.0
H826 H 0.29916 0.52483 0.9511 0.0
H827 H 0.27358 0.54583 0.95402 0.0
C828 C 0.65558 0.19442 0.49228 0.0
C829 C 0.6466 0.20512 0.47246 0.0
C830 C 0.677 0.20737 0.50546 0.0
C831 C 0.72276 0.26877 0.51514 0.0
H832 H 0.76516 0.23724 0.52011 0.0
C833 C 0.82068 0.32437 0.52413 0.0
C834 C 0.8334 0.31849 0.50367 0.0
C835 C 0.79837 0.30805 0.53212 0.0
C836 C 0.75355 0.24633 0.51898 0.0
H837 H 0.65276 0.23797 0.45151 0.0
H838 H 0.69039 0.26024 0.47352 0.0
H839 H 0.72384 0.21446 0.50966 0.0
H840 H 0.83441 0.28999 0.47867 0.0
H841 H 0.79554 0.26191 0.4918 0.0
H842 H 0.75276 0.3009 0.52199 0.0
C843 C 0.68069 0.24204 0.47958 0.0
C844 C 0.72971 0.23319 0.5133 0.0
C845 C 0.65916 0.22919 0.46669 0.0
C846 C 0.82483 0.29515 0.49414 0.0
C847 C 0.80247 0.27894 0.50188 0.0
C848 C 0.74664 0.28194 0.52046 0.0
C849 C 0.69007 0.23124 0.49888 0.0
C850 C 0.71421 0.2444 0.51015 0.0
C851 C 0.78837 0.28565 0.51969 0.0
C852 C 0.76254 0.27103 0.52122 0.0
H853 H 0.64614 0.17597 0.4975 0.0
H854 H 0.68344 0.19856 0.52055 0.0
H855 H 0.71123 0.27792 0.51365 0.0
H856 H 0.82698 0.34214 0.53223 0.0
H857 H 0.78832 0.31358 0.54659 0.0
C858 C 0.39686 0.62881 0.96646 0.0
C859 C 0.37626 0.61897 0.95042 0.0
C860 C 0.40433 0.65165 0.97689 0.0
C861 C 0.38492 0.7003 0.98848 0.0
H862 H 0.45135 0.74006 0.97918 0.0
C863 C 0.41708 0.80021 0.99417 0.0
C864 C 0.42882 0.81052 0.96967 0.0
C865 C 0.41466 0.77756 0.0016 0.0
C866 C 0.4328 0.72915 0.98222 0.0
H867 H 0.34703 0.62525 0.93337 0.0
H868 H 0.36054 0.6654 0.95065 0.0
H869 H 0.43724 0.69779 0.97192 0.0
H870 H 0.44919 0.80665 0.93528 0.0
H871 H 0.44518 0.76747 0.94815 0.0
H872 H 0.38023 0.73194 0.99655 0.0
C873 C 0.37068 0.65528 0.95569 0.0
C874 C 0.4247 0.70486 0.97825 0.0
C875 C 0.36308 0.63235 0.94544 0.0
C876 C 0.44003 0.79899 0.95425 0.0
C877 C 0.43782 0.77656 0.96176 0.0
C878 C 0.393 0.72462 0.99225 0.0
C879 C 0.39148 0.66526 0.97139 0.0
C880 C 0.40052 0.69028 0.98026 0.0
C881 C 0.42416 0.76514 0.98476 0.0
C882 C 0.41688 0.73939 0.98802 0.0
H883 H 0.40723 0.61885 0.97114 0.0
H884 H 0.42022 0.65864 0.98924 0.0
H885 H 0.36627 0.68948 0.99083 0.0
H886 H 0.40816 0.80875 0.00631 0.0
H887 H 0.40423 0.76926 0.01958 0.0
loop_
_geom_bond_atom_site_label_1
_geom_bond_atom_site_label_2
_geom_bond_distance
_geom_bond_site_symmetry_2
_ccdc_geom_bond_type
Co0 O1 2.216 . S
Co0 O2 2.091 . S
Co0 O4 2.004 . S
Co0 O10 2.021 . S
Co0 O12 2.137 . S
Co0 O13 2.244 . S
O1 Co0 2.216 . S
O1 C8 1.247 . S
O2 Co0 2.091 . S
O2 C8 1.261 . S
C3 O12 1.247 . S
C3 O13 1.272 . S
O4 Co0 2.004 . S
O4 C9 1.259 . S
Co5 O6 2.061 . S
Co5 O11 2.052 . S
Co5 O13 2.135 . S
O6 Co5 2.061 . S
O6 C9 1.235 . S
C7 O10 1.238 . S
C7 O11 1.241 . S
C8 O1 1.247 . S
C8 O2 1.261 . S
C9 O4 1.259 . S
C9 O6 1.235 . S
O10 Co0 2.021 . S
O10 C7 1.238 . S
O11 Co5 2.052 . S
O11 C7 1.241 . S
O12 Co0 2.137 . S
O12 C3 1.247 . S
O13 Co0 2.244 . S
O13 C3 1.272 . S
O13 Co5 2.135 . S
Co14 O15 2.216 . S
Co14 O16 2.091 . S
Co14 O18 2.004 . S
Co14 O24 2.021 . S
Co14 O26 2.137 . S
Co14 O27 2.244 . S
O15 Co14 2.216 . S
O15 C22 1.247 . S
O16 Co14 2.091 . S
O16 C22 1.261 . S
C17 O26 1.247 . S
C17 O27 1.272 . S
O18 Co14 2.004 . S
O18 C23 1.259 . S
Co19 O20 2.061 . S
Co19 O25 2.052 . S
Co19 O27 2.135 . S
O20 Co19 2.061 . S
O20 C23 1.235 . S
C21 O24 1.238 . S
C21 O25 1.241 . S
C22 O15 1.247 . S
C22 O16 1.261 . S
C23 O18 1.259 . S
C23 O20 1.235 . S
O24 Co14 2.021 . S
O24 C21 1.238 . S
O25 Co19 2.052 . S
O25 C21 1.241 . S
O26 Co14 2.137 . S
O26 C17 1.247 . S
O27 Co14 2.244 . S
O27 C17 1.272 . S
O27 Co19 2.135 . S
Co28 O29 2.216 . S
Co28 O30 2.091 . S
Co28 O32 2.004 . S
Co28 O38 2.021 . S
Co28 O40 2.137 . S
Co28 O41 2.244 . S
O29 Co28 2.216 . S
O29 C36 1.247 . S
O30 Co28 2.091 . S
O30 C36 1.261 . S
C31 O40 1.247 . S
C31 O41 1.272 . S
O32 Co28 2.004 . S
O32 C37 1.259 . S
Co33 O34 2.061 . S
Co33 O39 2.052 . S
Co33 O41 2.135 . S
O34 Co33 2.061 . S
O34 C37 1.235 . S
C35 O38 1.238 . S
C35 O39 1.241 . S
C36 O29 1.247 . S
C36 O30 1.261 . S
C37 O32 1.259 . S
C37 O34 1.235 . S
O38 Co28 2.021 . S
O38 C35 1.238 . S
O39 Co33 2.052 . S
O39 C35 1.241 . S
O40 Co28 2.137 . S
O40 C31 1.247 . S
O41 Co28 2.244 . S
O41 C31 1.272 . S
O41 Co33 2.135 . S
Co42 O43 2.216 . S
Co42 O44 2.091 . S
Co42 O46 2.004 . S
Co42 O52 2.021 . S
Co42 O54 2.137 . S
Co42 O55 2.244 . S
O43 Co42 2.216 . S
O43 C50 1.247 . S
O44 Co42 2.091 . S
O44 C50 1.261 . S
C45 O54 1.247 . S
C45 O55 1.272 . S
O46 Co42 2.004 . S
O46 C51 1.259 . S
Co47 O48 2.061 . S
Co47 O53 2.052 . S
Co47 O55 2.135 . S
O48 Co47 2.061 . S
O48 C51 1.235 . S
C49 O52 1.238 . S
C49 O53 1.241 . S
C50 O43 1.247 . S
C50 O44 1.261 . S
C51 O46 1.259 . S
C51 O48 1.235 . S
O52 Co42 2.021 . S
O52 C49 1.238 . S
O53 Co47 2.052 . S
O53 C49 1.241 . S
O54 Co42 2.137 . S
O54 C45 1.247 . S
O55 Co42 2.244 . S
O55 C45 1.272 . S
O55 Co47 2.135 . S
Co56 O57 2.216 . S
Co56 O58 2.091 . S
Co56 O60 2.004 . S
Co56 O66 2.021 . S
Co56 O68 2.137 . S
Co56 O69 2.244 . S
O57 Co56 2.216 . S
O57 C64 1.247 . S
O58 Co56 2.091 . S
O58 C64 1.261 . S
C59 O68 1.247 . S
C59 O69 1.272 . S
O60 Co56 2.004 . S
O60 C65 1.259 . S
Co61 O62 2.061 . S
Co61 O67 2.052 . S
Co61 O69 2.135 . S
O62 Co61 2.061 . S
O62 C65 1.235 . S
C63 O66 1.238 . S
C63 O67 1.241 . S
C64 O57 1.247 . S
C64 O58 1.261 . S
C65 O60 1.259 . S
C65 O62 1.235 . S
O66 Co56 2.021 . S
O66 C63 1.238 . S
O67 Co61 2.052 . S
O67 C63 1.241 . S
O68 Co56 2.137 . S
O68 C59 1.247 . S
O69 Co56 2.244 . S
O69 C59 1.272 . S
O69 Co61 2.135 . S
Co70 O71 2.216 . S
Co70 O72 2.091 . S
Co70 O74 2.004 . S
Co70 O80 2.021 . S
Co70 O82 2.137 . S
Co70 O83 2.244 . S
O71 Co70 2.216 . S
O71 C78 1.247 . S
O72 Co70 2.091 . S
O72 C78 1.261 . S
C73 O82 1.247 . S
C73 O83 1.272 . S
O74 Co70 2.004 . S
O74 C79 1.259 . S
Co75 O76 2.061 . S
Co75 O81 2.052 . S
Co75 O83 2.135 . S
O76 Co75 2.061 . S
O76 C79 1.235 . S
C77 O80 1.238 . S
C77 O81 1.241 . S
C78 O71 1.247 . S
C78 O72 1.261 . S
C79 O74 1.259 . S
C79 O76 1.235 . S
O80 Co70 2.021 . S
O80 C77 1.238 . S
O81 Co75 2.052 . S
O81 C77 1.241 . S
O82 Co70 2.137 . S
O82 C73 1.247 . S
O83 Co70 2.244 . S
O83 C73 1.272 . S
O83 Co75 2.135 . S
Co84 O85 2.216 . S
Co84 O86 2.091 . S
Co84 O88 2.004 . S
Co84 O94 2.021 . S
Co84 O96 2.137 . S
Co84 O97 2.244 . S
O85 Co84 2.216 . S
O85 C92 1.247 . S
O86 Co84 2.091 . S
O86 C92 1.261 . S
C87 O96 1.247 . S
C87 O97 1.272 . S
O88 Co84 2.004 . S
O88 C93 1.259 . S
Co89 O90 2.061 . S
Co89 O95 2.052 . S
Co89 O97 2.135 . S
O90 Co89 2.061 . S
O90 C93 1.235 . S
C91 O94 1.238 . S
C91 O95 1.241 . S
C92 O85 1.247 . S
C92 O86 1.261 . S
C93 O88 1.259 . S
C93 O90 1.235 . S
O94 Co84 2.021 . S
O94 C91 1.238 . S
O95 Co89 2.052 . S
O95 C91 1.241 . S
O96 Co84 2.137 . S
O96 C87 1.247 . S
O97 Co84 2.244 . S
O97 C87 1.272 . S
O97 Co89 2.135 . S
Co98 O99 2.216 . S
Co98 O100 2.091 . S
Co98 O102 2.004 . S
Co98 O108 2.021 . S
Co98 O110 2.137 . S
Co98 O111 2.244 . S
O99 Co98 2.216 . S
O99 C106 1.247 . S
O100 Co98 2.091 . S
O100 C106 1.261 . S
C101 O110 1.247 . S
C101 O111 1.272 . S
O102 Co98 2.004 . S
O102 C107 1.259 . S
Co103 O104 2.061 . S
Co103 O109 2.052 . S
Co103 O111 2.135 . S
O104 Co103 2.061 . S
O104 C107 1.235 . S
C105 O108 1.238 . S
C105 O109 1.241 . S
C106 O99 1.247 . S
C106 O100 1.261 . S
C107 O102 1.259 . S
C107 O104 1.235 . S
O108 Co98 2.021 . S
O108 C105 1.238 . S
O109 Co103 2.052 . S
O109 C105 1.241 . S
O110 Co98 2.137 . S
O110 C101 1.247 . S
O111 Co98 2.244 . S
O111 C101 1.272 . S
O111 Co103 2.135 . S
Co112 O113 2.216 . S
Co112 O114 2.091 . S
Co112 O116 2.004 . S
Co112 O122 2.021 . S
Co112 O124 2.137 . S
Co112 O125 2.244 . S
O113 Co112 2.216 . S
O113 C120 1.247 . S
O114 Co112 2.091 . S
O114 C120 1.261 . S
C115 O124 1.247 . S
C115 O125 1.272 . S
O116 Co112 2.004 . S
O116 C121 1.259 . S
Co117 O118 2.061 . S
Co117 O123 2.052 . S
Co117 O125 2.135 . S
O118 Co117 2.061 . S
O118 C121 1.235 . S
C119 O122 1.238 . S
C119 O123 1.241 . S
C120 O113 1.247 . S
C120 O114 1.261 . S
C121 O116 1.259 . S
C121 O118 1.235 . S
O122 Co112 2.021 . S
O122 C119 1.238 . S
O123 Co117 2.052 . S
O123 C119 1.241 . S
O124 Co112 2.137 . S
O124 C115 1.247 . S
O125 Co112 2.244 . S
O125 C115 1.272 . S
O125 Co117 2.135 . S
Co126 O127 2.216 . S
Co126 O128 2.091 . S
Co126 O130 2.004 . S
Co126 O136 2.021 . S
Co126 O138 2.137 . S
Co126 O139 2.244 . S
O127 Co126 2.216 . S
O127 C134 1.247 . S
O128 Co126 2.091 . S
O128 C134 1.261 . S
C129 O138 1.247 . S
C129 O139 1.272 . S
O130 Co126 2.004 . S
O130 C135 1.259 . S
Co131 O132 2.061 . S
Co131 O137 2.052 . S
Co131 O139 2.135 . S
O132 Co131 2.061 . S
O132 C135 1.235 . S
C133 O136 1.238 . S
C133 O137 1.241 . S
C134 O127 1.247 . S
C134 O128 1.261 . S
C135 O130 1.259 . S
C135 O132 1.235 . S
O136 Co126 2.021 . S
O136 C133 1.238 . S
O137 Co131 2.052 . S
O137 C133 1.241 . S
O138 Co126 2.137 . S
O138 C129 1.247 . S
O139 Co126 2.244 . S
O139 C129 1.272 . S
O139 Co131 2.135 . S
Co140 O141 2.216 . S
Co140 O142 2.091 . S
Co140 O144 2.004 . S
Co140 O150 2.021 . S
Co140 O152 2.137 . S
Co140 O153 2.244 . S
O141 Co140 2.216 . S
O141 C148 1.247 . S
O142 Co140 2.091 . S
O142 C148 1.261 . S
C143 O152 1.247 . S
C143 O153 1.272 . S
O144 Co140 2.004 . S
O144 C149 1.259 . S
Co145 O146 2.061 . S
Co145 O151 2.052 . S
Co145 O153 2.135 . S
O146 Co145 2.061 . S
O146 C149 1.235 . S
C147 O150 1.238 . S
C147 O151 1.241 . S
C148 O141 1.247 . S
C148 O142 1.261 . S
C149 O144 1.259 . S
C149 O146 1.235 . S
O150 Co140 2.021 . S
O150 C147 1.238 . S
O151 Co145 2.052 . S
O151 C147 1.241 . S
O152 Co140 2.137 . S
O152 C143 1.247 . S
O153 Co140 2.244 . S
O153 C143 1.272 . S
O153 Co145 2.135 . S
Co154 O155 2.216 . S
Co154 O156 2.091 . S
Co154 O158 2.004 . S
Co154 O164 2.021 . S
Co154 O166 2.137 . S
Co154 O167 2.244 . S
O155 Co154 2.216 . S
O155 C162 1.247 . S
O156 Co154 2.091 . S
O156 C162 1.261 . S
C157 O166 1.247 . S
C157 O167 1.272 . S
O158 Co154 2.004 . S
O158 C163 1.259 . S
Co159 O160 2.061 . S
Co159 O165 2.052 . S
Co159 O167 2.135 . S
O160 Co159 2.061 . S
O160 C163 1.235 . S
C161 O164 1.238 . S
C161 O165 1.241 . S
C162 O155 1.247 . S
C162 O156 1.261 . S
C163 O158 1.259 . S
C163 O160 1.235 . S
O164 Co154 2.021 . S
O164 C161 1.238 . S
O165 Co159 2.052 . S
O165 C161 1.241 . S
O166 Co154 2.137 . S
O166 C157 1.247 . S
O167 Co154 2.244 . S
O167 C157 1.272 . S
O167 Co159 2.135 . S
C168 C169 1.349 . S
C168 C170 1.327 . S
C168 H193 0.950 . S
C169 C168 1.349 . S
C169 C185 1.349 . S
C170 C168 1.327 . S
C170 C189 1.429 . S
C170 H194 0.950 . S
C171 C188 1.574 . S
C171 C190 1.368 . S
C171 H195 0.949 . S
H172 C176 0.949 . S
C173 C174 1.349 . S
C173 C175 1.327 . S
C173 H196 0.950 . S
C174 C173 1.349 . S
C174 C186 1.349 . S
C175 C173 1.327 . S
C175 C191 1.429 . S
C175 H197 0.950 . S
C176 H172 0.949 . S
C176 C184 1.574 . S
C176 C192 1.368 . S
H177 C185 0.950 . S
H178 C183 0.950 . S
H179 C184 0.949 . S
H180 C186 0.950 . S
H181 C187 0.950 . S
H182 C188 0.949 . S
C183 H178 0.950 . S
C183 C185 1.327 . S
C183 C189 1.429 . S
C184 C176 1.574 . S
C184 H179 0.949 . S
C184 C190 1.368 . S
C185 C169 1.349 . S
C185 H177 0.950 . S
C185 C183 1.327 . S
C186 C174 1.349 . S
C186 H180 0.950 . S
C186 C187 1.327 . S
C187 H181 0.950 . S
C187 C186 1.327 . S
C187 C191 1.429 . S
C188 C171 1.574 . S
C188 H182 0.949 . S
C188 C192 1.368 . S
C189 C170 1.429 . S
C189 C183 1.429 . S
C189 C190 1.523 . S
C190 C171 1.368 . S
C190 C184 1.368 . S
C190 C189 1.523 . S
C191 C175 1.429 . S
C191 C187 1.429 . S
C191 C192 1.523 . S
C192 C176 1.368 . S
C192 C188 1.368 . S
C192 C191 1.523 . S
H193 C168 0.950 . S
H194 C170 0.950 . S
H195 C171 0.949 . S
H196 C173 0.950 . S
H197 C175 0.950 . S
C198 C199 1.349 . S
C198 C200 1.327 . S
C198 H223 0.950 . S
C199 C198 1.349 . S
C199 C215 1.349 . S
C200 C198 1.327 . S
C200 C219 1.429 . S
C200 H224 0.950 . S
C201 C218 1.574 . S
C201 C220 1.368 . S
C201 H225 0.949 . S
H202 C206 0.949 . S
C203 C204 1.349 . S
C203 C205 1.327 . S
C203 H226 0.950 . S
C204 C203 1.349 . S
C204 C216 1.349 . S
C205 C203 1.327 . S
C205 C221 1.429 . S
C205 H227 0.950 . S
C206 H202 0.949 . S
C206 C214 1.574 . S
C206 C222 1.368 . S
H207 C215 0.950 . S
H208 C213 0.950 . S
H209 C214 0.949 . S
H210 C216 0.950 . S
H211 C217 0.950 . S
H212 C218 0.949 . S
C213 H208 0.950 . S
C213 C215 1.327 . S
C213 C219 1.429 . S
C214 C206 1.574 . S
C214 H209 0.949 . S
C214 C220 1.368 . S
C215 C199 1.349 . S
C215 H207 0.950 . S
C215 C213 1.327 . S
C216 C204 1.349 . S
C216 H210 0.950 . S
C216 C217 1.327 . S
C217 H211 0.950 . S
C217 C216 1.327 . S
C217 C221 1.429 . S
C218 C201 1.574 . S
C218 H212 0.949 . S
C218 C222 1.368 . S
C219 C200 1.429 . S
C219 C213 1.429 . S
C219 C220 1.523 . S
C220 C201 1.368 . S
C220 C214 1.368 . S
C220 C219 1.523 . S
C221 C205 1.429 . S
C221 C217 1.429 . S
C221 C222 1.523 . S
C222 C206 1.368 . S
C222 C218 1.368 . S
C222 C221 1.523 . S
H223 C198 0.950 . S
H224 C200 0.950 . S
H225 C201 0.949 . S
H226 C203 0.950 . S
H227 C205 0.950 . S
C228 C229 1.349 . S
C228 C230 1.327 . S
C228 H253 0.950 . S
C229 C228 1.349 . S
C229 C245 1.349 . S
C230 C228 1.327 . S
C230 C249 1.429 . S
C230 H254 0.950 . S
C231 C248 1.574 . S
C231 C250 1.368 . S
C231 H255 0.949 . S
H232 C236 0.949 . S
C233 C234 1.349 . S
C233 C235 1.327 . S
C233 H256 0.950 . S
C234 C233 1.349 . S
C234 C246 1.349 . S
C235 C233 1.327 . S
C235 C251 1.429 . S
C235 H257 0.950 . S
C236 H232 0.949 . S
C236 C244 1.574 . S
C236 C252 1.368 . S
H237 C245 0.950 . S
H238 C243 0.950 . S
H239 C244 0.949 . S
H240 C246 0.950 . S
H241 C247 0.950 . S
H242 C248 0.949 . S
C243 H238 0.950 . S
C243 C245 1.327 . S
C243 C249 1.429 . S
C244 C236 1.574 . S
C244 H239 0.949 . S
C244 C250 1.368 . S
C245 C229 1.349 . S
C245 H237 0.950 . S
C245 C243 1.327 . S
C246 C234 1.349 . S
C246 H240 0.950 . S
C246 C247 1.327 . S
C247 H241 0.950 . S
C247 C246 1.327 . S
C247 C251 1.429 . S
C248 C231 1.574 . S
C248 H242 0.949 . S
C248 C252 1.368 . S
C249 C230 1.429 . S
C249 C243 1.429 . S
C249 C250 1.523 . S
C250 C231 1.368 . S
C250 C244 1.368 . S
C250 C249 1.523 . S
C251 C235 1.429 . S
C251 C247 1.429 . S
C251 C252 1.523 . S
C252 C236 1.368 . S
C252 C248 1.368 . S
C252 C251 1.523 . S
H253 C228 0.950 . S
H254 C230 0.950 . S
H255 C231 0.949 . S
H256 C233 0.950 . S
H257 C235 0.950 . S
C258 C259 1.349 . S
C258 C260 1.327 . S
C258 H283 0.950 . S
C259 C258 1.349 . S
C259 C275 1.349 . S
C260 C258 1.327 . S
C260 C279 1.429 . S
C260 H284 0.950 . S
C261 C278 1.574 . S
C261 C280 1.368 . S
C261 H285 0.949 . S
H262 C266 0.949 . S
C263 C264 1.349 . S
C263 C265 1.327 . S
C263 H286 0.950 . S
C264 C263 1.349 . S
C264 C276 1.349 . S
C265 C263 1.327 . S
C265 C281 1.429 . S
C265 H287 0.950 . S
C266 H262 0.949 . S
C266 C274 1.574 . S
C266 C282 1.368 . S
H267 C275 0.950 . S
H268 C273 0.950 . S
H269 C274 0.949 . S
H270 C276 0.950 . S
H271 C277 0.950 . S
H272 C278 0.949 . S
C273 H268 0.950 . S
C273 C275 1.327 . S
C273 C279 1.429 . S
C274 C266 1.574 . S
C274 H269 0.949 . S
C274 C280 1.368 . S
C275 C259 1.349 . S
C275 H267 0.950 . S
C275 C273 1.327 . S
C276 C264 1.349 . S
C276 H270 0.950 . S
C276 C277 1.327 . S
C277 H271 0.950 . S
C277 C276 1.327 . S
C277 C281 1.429 . S
C278 C261 1.574 . S
C278 H272 0.949 . S
C278 C282 1.368 . S
C279 C260 1.429 . S
C279 C273 1.429 . S
C279 C280 1.523 . S
C280 C261 1.368 . S
C280 C274 1.368 . S
C280 C279 1.523 . S
C281 C265 1.429 . S
C281 C277 1.429 . S
C281 C282 1.523 . S
C282 C266 1.368 . S
C282 C278 1.368 . S
C282 C281 1.523 . S
H283 C258 0.950 . S
H284 C260 0.950 . S
H285 C261 0.949 . S
H286 C263 0.950 . S
H287 C265 0.950 . S
C288 C289 1.349 . S
C288 C290 1.327 . S
C288 H313 0.950 . S
C289 C288 1.349 . S
C289 C305 1.349 . S
C290 C288 1.327 . S
C290 C309 1.429 . S
C290 H314 0.950 . S
C291 C308 1.574 . S
C291 C310 1.368 . S
C291 H315 0.949 . S
H292 C296 0.949 . S
C293 C294 1.349 . S
C293 C295 1.327 . S
C293 H316 0.950 . S
C294 C293 1.349 . S
C294 C306 1.349 . S
C295 C293 1.327 . S
C295 C311 1.429 . S
C295 H317 0.950 . S
C296 H292 0.949 . S
C296 C304 1.574 . S
C296 C312 1.368 . S
H297 C305 0.950 . S
H298 C303 0.950 . S
H299 C304 0.949 . S
H300 C306 0.950 . S
H301 C307 0.950 . S
H302 C308 0.949 . S
C303 H298 0.950 . S
C303 C305 1.327 . S
C303 C309 1.429 . S
C304 C296 1.574 . S
C304 H299 0.949 . S
C304 C310 1.368 . S
C305 C289 1.349 . S
C305 H297 0.950 . S
C305 C303 1.327 . S
C306 C294 1.349 . S
C306 H300 0.950 . S
C306 C307 1.327 . S
C307 H301 0.950 . S
C307 C306 1.327 . S
C307 C311 1.429 . S
C308 C291 1.574 . S
C308 H302 0.949 . S
C308 C312 1.368 . S
C309 C290 1.429 . S
C309 C303 1.429 . S
C309 C310 1.523 . S
C310 C291 1.368 . S
C310 C304 1.368 . S
C310 C309 1.523 . S
C311 C295 1.429 . S
C311 C307 1.429 . S
C311 C312 1.523 . S
C312 C296 1.368 . S
C312 C308 1.368 . S
C312 C311 1.523 . S
H313 C288 0.950 . S
H314 C290 0.950 . S
H315 C291 0.949 . S
H316 C293 0.950 . S
H317 C295 0.950 . S
C318 C319 1.349 . S
C318 C320 1.327 . S
C318 H343 0.950 . S
C319 C318 1.349 . S
C319 C335 1.349 . S
C320 C318 1.327 . S
C320 C339 1.429 . S
C320 H344 0.950 . S
C321 C338 1.574 . S
C321 C340 1.368 . S
C321 H345 0.949 . S
H322 C326 0.949 . S
C323 C324 1.349 . S
C323 C325 1.327 . S
C323 H346 0.950 . S
C324 C323 1.349 . S
C324 C336 1.349 . S
C325 C323 1.327 . S
C325 C341 1.429 . S
C325 H347 0.950 . S
C326 H322 0.949 . S
C326 C334 1.574 . S
C326 C342 1.368 . S
H327 C335 0.950 . S
H328 C333 0.950 . S
H329 C334 0.949 . S
H330 C336 0.950 . S
H331 C337 0.950 . S
H332 C338 0.949 . S
C333 H328 0.950 . S
C333 C335 1.327 . S
C333 C339 1.429 . S
C334 C326 1.574 . S
C334 H329 0.949 . S
C334 C340 1.368 . S
C335 C319 1.349 . S
C335 H327 0.950 . S
C335 C333 1.327 . S
C336 C324 1.349 . S
C336 H330 0.950 . S
C336 C337 1.327 . S
C337 H331 0.950 . S
C337 C336 1.327 . S
C337 C341 1.429 . S
C338 C321 1.574 . S
C338 H332 0.949 . S
C338 C342 1.368 . S
C339 C320 1.429 . S
C339 C333 1.429 . S
C339 C340 1.523 . S
C340 C321 1.368 . S
C340 C334 1.368 . S
C340 C339 1.523 . S
C341 C325 1.429 . S
C341 C337 1.429 . S
C341 C342 1.523 . S
C342 C326 1.368 . S
C342 C338 1.368 . S
C342 C341 1.523 . S
H343 C318 0.950 . S
H344 C320 0.950 . S
H345 C321 0.949 . S
H346 C323 0.950 . S
H347 C325 0.950 . S
C348 C349 1.340 1_556 S
C348 C350 1.329 . S
C348 H373 0.956 . S
C349 C348 1.340 1_554 S
C349 C365 1.349 . S
C350 C348 1.329 . S
C350 C369 1.429 1_556 S
C350 H374 0.950 . S
C351 C368 1.574 1_545 S
C351 C370 1.368 . S
C351 H375 0.949 . S
H352 C356 0.949 . S
C353 C354 1.353 . S
C353 C355 1.326 1_556 S
C353 H376 0.947 1_556 S
C354 C353 1.353 . S
C354 C366 1.349 . S
C355 C353 1.326 1_554 S
C355 C371 1.429 1_554 S
C355 H377 0.950 . S
C356 H352 0.949 . S
C356 C364 1.574 1_565 S
C356 C372 1.368 . S
H357 C365 0.950 . S
H358 C363 0.950 . S
H359 C364 0.949 . S
H360 C366 0.950 . S
H361 C367 0.950 . S
H362 C368 0.949 . S
C363 H358 0.950 . S
C363 C365 1.327 . S
C363 C369 1.429 . S
C364 C356 1.574 1_545 S
C364 H359 0.949 . S
C364 C370 1.368 1_556 S
C365 C349 1.349 . S
C365 H357 0.950 . S
C365 C363 1.327 . S
C366 C354 1.349 . S
C366 H360 0.950 . S
C366 C367 1.327 . S
C367 H361 0.950 . S
C367 C366 1.327 . S
C367 C371 1.429 . S
C368 C351 1.574 1_565 S
C368 H362 0.949 . S
C368 C372 1.368 1_554 S
C369 C350 1.429 1_554 S
C369 C363 1.429 . S
C369 C370 1.523 . S
C370 C351 1.368 . S
C370 C364 1.368 1_554 S
C370 C369 1.523 . S
C371 C355 1.429 1_556 S
C371 C367 1.429 . S
C371 C372 1.523 . S
C372 C356 1.368 . S
C372 C368 1.368 1_556 S
C372 C371 1.523 . S
H373 C348 0.956 . S
H374 C350 0.950 . S
H375 C351 0.949 . S
H376 C353 0.947 1_554 S
H377 C355 0.950 . S
C378 C379 1.349 . S
C378 C380 1.327 . S
C378 H403 0.950 . S
C379 C378 1.349 . S
C379 C395 1.349 . S
C380 C378 1.327 . S
C380 C399 1.429 . S
C380 H404 0.950 . S
C381 C398 1.574 . S
C381 C400 1.368 . S
C381 H405 0.949 . S
H382 C386 0.949 . S
C383 C384 1.349 . S
C383 C385 1.327 . S
C383 H406 0.950 . S
C384 C383 1.349 . S
C384 C396 1.349 . S
C385 C383 1.327 . S
C385 C401 1.429 . S
C385 H407 0.950 . S
C386 H382 0.949 . S
C386 C394 1.574 . S
C386 C402 1.368 . S
H387 C395 0.950 . S
H388 C393 0.950 . S
H389 C394 0.949 . S
H390 C396 0.950 . S
H391 C397 0.950 . S
H392 C398 0.949 . S
C393 H388 0.950 . S
C393 C395 1.327 . S
C393 C399 1.429 . S
C394 C386 1.574 . S
C394 H389 0.949 . S
C394 C400 1.368 . S
C395 C379 1.349 . S
C395 H387 0.950 . S
C395 C393 1.327 . S
C396 C384 1.349 . S
C396 H390 0.950 . S
C396 C397 1.327 . S
C397 H391 0.950 . S
C397 C396 1.327 . S
C397 C401 1.429 . S
C398 C381 1.574 . S
C398 H392 0.949 . S
C398 C402 1.368 . S
C399 C380 1.429 . S
C399 C393 1.429 . S
C399 C400 1.523 . S
C400 C381 1.368 . S
C400 C394 1.368 . S
C400 C399 1.523 . S
C401 C385 1.429 . S
C401 C397 1.429 . S
C401 C402 1.523 . S
C402 C386 1.368 . S
C402 C398 1.368 . S
C402 C401 1.523 . S
H403 C378 0.950 . S
H404 C380 0.950 . S
H405 C381 0.949 . S
H406 C383 0.950 . S
H407 C385 0.950 . S
C408 C409 1.349 . S
C408 C410 1.327 . S
C408 H433 0.950 . S
C409 C408 1.349 . S
C409 C425 1.349 . S
C410 C408 1.327 . S
C410 C429 1.429 . S
C410 H434 0.950 . S
C411 C428 1.574 1_455 S
C411 C430 1.368 1_554 S
C411 H435 0.949 . S
H412 C416 0.949 . S
C413 C414 1.349 . S
C413 C415 1.327 . S
C413 H436 0.950 . S
C414 C413 1.349 . S
C414 C426 1.349 . S
C415 C413 1.327 . S
C415 C431 1.429 . S
C415 H437 0.950 . S
C416 H412 0.949 . S
C416 C424 1.574 1_655 S
C416 C432 1.368 1_556 S
H417 C425 0.950 1_554 S
H418 C423 0.950 . S
H419 C424 0.949 . S
H420 C426 0.950 1_556 S
H421 C427 0.950 . S
H422 C428 0.949 . S
C423 H418 0.950 . S
C423 C425 1.327 1_554 S
C423 C429 1.429 1_554 S
C424 C416 1.574 1_455 S
C424 H419 0.949 . S
C424 C430 1.368 . S
C425 C409 1.349 . S
C425 H417 0.950 1_556 S
C425 C423 1.327 1_556 S
C426 C414 1.349 . S
C426 H420 0.950 1_554 S
C426 C427 1.327 1_554 S
C427 H421 0.950 . S
C427 C426 1.327 1_556 S
C427 C431 1.429 1_556 S
C428 C411 1.574 1_655 S
C428 H422 0.949 . S
C428 C432 1.368 . S
C429 C410 1.429 . S
C429 C423 1.429 1_556 S
C429 C430 1.523 . S
C430 C411 1.368 1_556 S
C430 C424 1.368 . S
C430 C429 1.523 . S
C431 C415 1.429 . S
C431 C427 1.429 1_554 S
C431 C432 1.523 . S
C432 C416 1.368 1_554 S
C432 C428 1.368 . S
C432 C431 1.523 . S
H433 C408 0.950 . S
H434 C410 0.950 . S
H435 C411 0.949 . S
H436 C413 0.950 . S
H437 C415 0.950 . S
C438 C439 1.349 . S
C438 C440 1.327 . S
C438 H463 0.950 . S
C439 C438 1.349 . S
C439 C455 1.349 . S
C440 C438 1.327 . S
C440 C459 1.429 . S
C440 H464 0.950 . S
C441 C458 1.574 1_545 S
C441 C460 1.368 . S
C441 H465 0.949 . S
H442 C446 0.949 . S
C443 C444 1.349 . S
C443 C445 1.327 . S
C443 H466 0.950 . S
C444 C443 1.349 . S
C444 C456 1.349 . S
C445 C443 1.327 . S
C445 C461 1.429 . S
C445 H467 0.950 . S
C446 H442 0.949 . S
C446 C454 1.574 1_565 S
C446 C462 1.368 . S
H447 C455 0.950 . S
H448 C453 0.950 . S
H449 C454 0.949 . S
H450 C456 0.950 . S
H451 C457 0.950 . S
H452 C458 0.949 . S
C453 H448 0.950 . S
C453 C455 1.327 . S
C453 C459 1.429 . S
C454 C446 1.574 1_545 S
C454 H449 0.949 . S
C454 C460 1.368 . S
C455 C439 1.349 . S
C455 H447 0.950 . S
C455 C453 1.327 . S
C456 C444 1.349 . S
C456 H450 0.950 . S
C456 C457 1.327 . S
C457 H451 0.950 . S
C457 C456 1.327 . S
C457 C461 1.429 . S
C458 C441 1.574 1_565 S
C458 H452 0.949 . S
C458 C462 1.368 . S
C459 C440 1.429 . S
C459 C453 1.429 . S
C459 C460 1.523 . S
C460 C441 1.368 . S
C460 C454 1.368 . S
C460 C459 1.523 . S
C461 C445 1.429 . S
C461 C457 1.429 . S
C461 C462 1.523 . S
C462 C446 1.368 . S
C462 C458 1.368 . S
C462 C461 1.523 . S
H463 C438 0.950 . S
H464 C440 0.950 . S
H465 C441 0.949 . S
H466 C443 0.950 . S
H467 C445 0.950 . S
C468 C469 1.349 . S
C468 C470 1.327 . S
C468 H493 0.950 . S
C469 C468 1.349 . S
C469 C485 1.385 . S
C470 C468 1.327 . S
C470 C489 1.429 . S
C470 H494 0.950 . S
C471 C488 1.574 . S
C471 C490 1.368 1_554 S
C471 H495 0.949 . S
H472 C476 0.949 . S
C473 C474 1.349 . S
C473 C475 1.327 . S
C473 H496 0.950 . S
C474 C473 1.349 . S
C474 C486 1.385 . S
C475 C473 1.327 . S
C475 C491 1.429 . S
C475 H497 0.950 . S
C476 H472 0.949 . S
C476 C484 1.574 . S
C476 C492 1.368 1_556 S
H477 C485 0.923 1_554 S
H478 C483 0.950 . S
H479 C484 0.949 . S
H480 C486 0.923 1_556 S
H481 C487 0.950 . S
H482 C488 0.949 . S
C483 H478 0.950 . S
C483 C485 1.318 1_554 S
C483 C489 1.429 1_554 S
C484 C476 1.574 . S
C484 H479 0.949 . S
C484 C490 1.368 . S
C485 C469 1.385 . S
C485 H477 0.923 1_556 S
C485 C483 1.318 1_556 S
C486 C474 1.385 . S
C486 H480 0.923 1_554 S
C486 C487 1.318 1_554 S
C487 H481 0.950 . S
C487 C486 1.318 1_556 S
C487 C491 1.429 1_556 S
C488 C471 1.574 . S
C488 H482 0.949 . S
C488 C492 1.368 . S
C489 C470 1.429 . S
C489 C483 1.429 1_556 S
C489 C490 1.523 . S
C490 C471 1.368 1_556 S
C490 C484 1.368 . S
C490 C489 1.523 . S
C491 C475 1.429 . S
C491 C487 1.429 1_554 S
C491 C492 1.523 . S
C492 C476 1.368 1_554 S
C492 C488 1.368 . S
C492 C491 1.523 . S
H493 C468 0.950 . S
H494 C470 0.950 . S
H495 C471 0.949 . S
H496 C473 0.950 . S
H497 C475 0.950 . S
C498 C499 1.349 . S
C498 C500 1.327 . S
C498 H523 0.950 . S
C499 C498 1.349 . S
C499 C515 1.349 . S
C500 C498 1.327 . S
C500 C519 1.429 . S
C500 H524 0.950 . S
C501 C518 1.574 1_655 S
C501 C520 1.368 . S
C501 H525 0.949 . S
H502 C506 0.949 . S
C503 C504 1.349 . S
C503 C505 1.327 . S
C503 H526 0.950 . S
C504 C503 1.349 . S
C504 C516 1.349 . S
C505 C503 1.327 . S
C505 C521 1.429 . S
C505 H527 0.950 . S
C506 H502 0.949 . S
C506 C514 1.574 1_455 S
C506 C522 1.368 . S
H507 C515 0.950 . S
H508 C513 0.950 . S
H509 C514 0.949 . S
H510 C516 0.950 . S
H511 C517 0.950 . S
H512 C518 0.949 . S
C513 H508 0.950 . S
C513 C515 1.327 . S
C513 C519 1.429 . S
C514 C506 1.574 1_655 S
C514 H509 0.949 . S
C514 C520 1.368 . S
C515 C499 1.349 . S
C515 H507 0.950 . S
C515 C513 1.327 . S
C516 C504 1.349 . S
C516 H510 0.950 . S
C516 C517 1.327 . S
C517 H511 0.950 . S
C517 C516 1.327 . S
C517 C521 1.429 . S
C518 C501 1.574 1_455 S
C518 H512 0.949 . S
C518 C522 1.368 . S
C519 C500 1.429 . S
C519 C513 1.429 . S
C519 C520 1.523 . S
C520 C501 1.368 . S
C520 C514 1.368 . S
C520 C519 1.523 . S
C521 C505 1.429 . S
C521 C517 1.429 . S
C521 C522 1.523 . S
C522 C506 1.368 . S
C522 C518 1.368 . S
C522 C521 1.523 . S
H523 C498 0.950 . S
H524 C500 0.950 . S
H525 C501 0.949 . S
H526 C503 0.950 . S
H527 C505 0.950 . S
C528 C529 1.349 . S
C528 C530 1.327 . S
C528 H553 0.950 . S
C529 C528 1.349 . S
C529 C545 1.349 . S
C530 C528 1.327 . S
C530 C549 1.429 . S
C530 H554 0.950 . S
C531 C548 1.574 . S
C531 C550 1.368 . S
C531 H555 0.949 . S
H532 C536 0.949 . S
C533 C534 1.349 . S
C533 C535 1.327 . S
C533 H556 0.950 1_554 S
C534 C533 1.349 . S
C534 C546 1.349 . S
C535 C533 1.327 . S
C535 C551 1.429 . S
C535 H557 0.950 1_554 S
C536 H532 0.949 . S
C536 C544 1.574 . S
C536 C552 1.368 . S
H537 C545 0.950 . S
H538 C543 0.950 . S
H539 C544 0.949 . S
H540 C546 0.950 . S
H541 C547 0.950 . S
H542 C548 0.923 1_556 S
C543 H538 0.950 . S
C543 C545 1.327 . S
C543 C549 1.429 . S
C544 C536 1.574 . S
C544 H539 0.949 . S
C544 C550 1.368 . S
C545 C529 1.349 . S
C545 H537 0.950 . S
C545 C543 1.327 . S
C546 C534 1.349 . S
C546 H540 0.950 . S
C546 C547 1.327 . S
C547 H541 0.950 . S
C547 C546 1.327 . S
C547 C551 1.429 . S
C548 C531 1.574 . S
C548 H542 0.923 1_554 S
C548 C552 1.368 . S
C549 C530 1.429 . S
C549 C543 1.429 . S
C549 C550 1.523 . S
C550 C531 1.368 . S
C550 C544 1.368 . S
C550 C549 1.523 . S
C551 C535 1.429 . S
C551 C547 1.429 . S
C551 C552 1.523 . S
C552 C536 1.368 . S
C552 C548 1.368 . S
C552 C551 1.523 . S
H553 C528 0.950 . S
H554 C530 0.950 . S
H555 C531 0.949 . S
H556 C533 0.950 1_556 S
H557 C535 0.950 1_556 S
C558 C559 1.349 . S
C558 C560 1.327 . S
C558 H583 0.950 . S
C559 C558 1.349 . S
C559 C575 1.349 . S
C560 C558 1.327 . S
C560 C579 1.429 . S
C560 H584 0.950 . S
C561 C578 1.574 . S
C561 C580 1.368 . S
C561 H585 0.949 . S
H562 C566 0.949 . S
C563 C564 1.349 . S
C563 C565 1.327 . S
C563 H586 0.950 . S
C564 C563 1.349 . S
C564 C576 1.349 . S
C565 C563 1.327 . S
C565 C581 1.429 . S
C565 H587 0.950 . S
C566 H562 0.949 . S
C566 C574 1.574 . S
C566 C582 1.368 . S
H567 C575 0.950 . S
H568 C573 0.950 . S
H569 C574 0.949 . S
H570 C576 0.950 . S
H571 C577 0.950 . S
H572 C578 0.949 . S
C573 H568 0.950 . S
C573 C575 1.327 . S
C573 C579 1.429 . S
C574 C566 1.574 . S
C574 H569 0.949 . S
C574 C580 1.368 . S
C575 C559 1.349 . S
C575 H567 0.950 . S
C575 C573 1.327 . S
C576 C564 1.349 . S
C576 H570 0.950 . S
C576 C577 1.327 . S
C577 H571 0.950 . S
C577 C576 1.327 . S
C577 C581 1.429 . S
C578 C561 1.574 . S
C578 H572 0.949 . S
C578 C582 1.368 . S
C579 C560 1.429 . S
C579 C573 1.429 . S
C579 C580 1.523 . S
C580 C561 1.368 . S
C580 C574 1.368 . S
C580 C579 1.523 . S
C581 C565 1.429 . S
C581 C577 1.429 . S
C581 C582 1.523 . S
C582 C566 1.368 . S
C582 C578 1.368 . S
C582 C581 1.523 . S
H583 C558 0.950 . S
H584 C560 0.950 . S
H585 C561 0.949 . S
H586 C563 0.950 . S
H587 C565 0.950 . S
C588 C589 1.349 . S
C588 C590 1.327 . S
C588 H613 0.950 . S
C589 C588 1.349 . S
C589 C605 1.349 . S
C590 C588 1.327 . S
C590 C609 1.429 . S
C590 H614 0.950 . S
C591 C608 1.574 . S
C591 C610 1.368 . S
C591 H615 0.949 . S
H592 C596 0.949 . S
C593 C594 1.349 . S
C593 C595 1.327 . S
C593 H616 0.950 1_554 S
C594 C593 1.349 . S
C594 C606 1.349 . S
C595 C593 1.327 . S
C595 C611 1.429 . S
C595 H617 0.950 1_554 S
C596 H592 0.949 . S
C596 C604 1.574 . S
C596 C612 1.368 . S
H597 C605 0.950 . S
H598 C603 0.950 . S
H599 C604 0.949 . S
H600 C606 0.950 . S
H601 C607 0.950 . S
H602 C608 0.951 1_556 S
C603 H598 0.950 . S
C603 C605 1.327 . S
C603 C609 1.429 . S
C604 C596 1.574 . S
C604 H599 0.949 . S
C604 C610 1.368 . S
C605 C589 1.349 . S
C605 H597 0.950 . S
C605 C603 1.327 . S
C606 C594 1.349 . S
C606 H600 0.950 . S
C606 C607 1.327 . S
C607 H601 0.950 . S
C607 C606 1.327 . S
C607 C611 1.429 . S
C608 C591 1.574 . S
C608 H602 0.951 1_554 S
C608 C612 1.368 . S
C609 C590 1.429 . S
C609 C603 1.429 . S
C609 C610 1.523 . S
C610 C591 1.368 . S
C610 C604 1.368 . S
C610 C609 1.523 . S
C611 C595 1.429 . S
C611 C607 1.429 . S
C611 C612 1.523 . S
C612 C596 1.368 . S
C612 C608 1.368 . S
C612 C611 1.523 . S
H613 C588 0.950 . S
H614 C590 0.950 . S
H615 C591 0.949 . S
H616 C593 0.950 1_556 S
H617 C595 0.950 1_556 S
C618 C619 1.349 . S
C618 C620 1.327 . S
C618 H643 0.950 . S
C619 C618 1.349 . S
C619 C635 1.349 . S
C620 C618 1.327 . S
C620 C639 1.429 . S
C620 H644 0.950 . S
C621 C638 1.574 . S
C621 C640 1.368 . S
C621 H645 0.949 . S
H622 C626 0.949 . S
C623 C624 1.349 . S
C623 C625 1.327 . S
C623 H646 0.950 . S
C624 C623 1.349 . S
C624 C636 1.349 . S
C625 C623 1.327 . S
C625 C641 1.429 . S
C625 H647 0.950 . S
C626 H622 0.949 . S
C626 C634 1.574 . S
C626 C642 1.368 . S
H627 C635 0.950 . S
H628 C633 0.950 . S
H629 C634 0.949 . S
H630 C636 0.950 . S
H631 C637 0.950 . S
H632 C638 0.949 . S
C633 H628 0.950 . S
C633 C635 1.327 . S
C633 C639 1.429 . S
C634 C626 1.574 . S
C634 H629 0.949 . S
C634 C640 1.368 . S
C635 C619 1.349 . S
C635 H627 0.950 . S
C635 C633 1.327 . S
C636 C624 1.349 . S
C636 H630 0.950 . S
C636 C637 1.327 . S
C637 H631 0.950 . S
C637 C636 1.327 . S
C637 C641 1.429 . S
C638 C621 1.574 . S
C638 H632 0.949 . S
C638 C642 1.368 . S
C639 C620 1.429 . S
C639 C633 1.429 . S
C639 C640 1.523 . S
C640 C621 1.368 . S
C640 C634 1.368 . S
C640 C639 1.523 . S
C641 C625 1.429 . S
C641 C637 1.429 . S
C641 C642 1.523 . S
C642 C626 1.368 . S
C642 C638 1.368 . S
C642 C641 1.523 . S
H643 C618 0.950 . S
H644 C620 0.950 . S
H645 C621 0.949 . S
H646 C623 0.950 . S
H647 C625 0.950 . S
C648 C649 1.349 . S
C648 C650 1.327 . S
C648 H673 0.950 . S
C649 C648 1.349 . S
C649 C665 1.349 . S
C650 C648 1.327 . S
C650 C669 1.429 . S
C650 H674 0.950 . S
C651 C668 1.574 . S
C651 C670 1.368 . S
C651 H675 0.949 . S
H652 C656 0.949 . S
C653 C654 1.349 . S
C653 C655 1.327 . S
C653 H676 0.950 . S
C654 C653 1.349 . S
C654 C666 1.349 . S
C655 C653 1.327 . S
C655 C671 1.429 . S
C655 H677 0.950 . S
C656 H652 0.949 . S
C656 C664 1.574 . S
C656 C672 1.368 . S
H657 C665 0.950 . S
H658 C663 0.950 . S
H659 C664 0.949 . S
H660 C666 0.950 . S
H661 C667 0.950 . S
H662 C668 0.949 . S
C663 H658 0.950 . S
C663 C665 1.327 . S
C663 C669 1.429 . S
C664 C656 1.574 . S
C664 H659 0.949 . S
C664 C670 1.368 . S
C665 C649 1.349 . S
C665 H657 0.950 . S
C665 C663 1.327 . S
C666 C654 1.349 . S
C666 H660 0.950 . S
C666 C667 1.327 . S
C667 H661 0.950 . S
C667 C666 1.327 . S
C667 C671 1.429 . S
C668 C651 1.574 . S
C668 H662 0.949 . S
C668 C672 1.368 . S
C669 C650 1.429 . S
C669 C663 1.429 . S
C669 C670 1.523 . S
C670 C651 1.368 . S
C670 C664 1.368 . S
C670 C669 1.523 . S
C671 C655 1.429 . S
C671 C667 1.429 . S
C671 C672 1.523 . S
C672 C656 1.368 . S
C672 C668 1.368 . S
C672 C671 1.523 . S
H673 C648 0.950 . S
H674 C650 0.950 . S
H675 C651 0.949 . S
H676 C653 0.950 . S
H677 C655 0.950 . S
C678 C679 1.349 . S
C678 C680 1.327 . S
C678 H703 0.950 . S
C679 C678 1.349 . S
C679 C695 1.349 . S
C680 C678 1.327 . S
C680 C699 1.429 . S
C680 H704 0.950 . S
C681 C698 1.574 . S
C681 C700 1.368 . S
C681 H705 0.949 . S
H682 C686 0.949 . S
C683 C684 1.349 . S
C683 C685 1.327 . S
C683 H706 0.950 . S
C684 C683 1.349 . S
C684 C696 1.349 . S
C685 C683 1.327 . S
C685 C701 1.429 . S
C685 H707 0.950 . S
C686 H682 0.949 . S
C686 C694 1.574 . S
C686 C702 1.368 . S
H687 C695 0.950 . S
H688 C693 0.950 . S
H689 C694 0.949 . S
H690 C696 0.950 . S
H691 C697 0.950 . S
H692 C698 0.949 . S
C693 H688 0.950 . S
C693 C695 1.327 . S
C693 C699 1.429 . S
C694 C686 1.574 . S
C694 H689 0.949 . S
C694 C700 1.368 . S
C695 C679 1.349 . S
C695 H687 0.950 . S
C695 C693 1.327 . S
C696 C684 1.349 . S
C696 H690 0.950 . S
C696 C697 1.327 . S
C697 H691 0.950 . S
C697 C696 1.327 . S
C697 C701 1.429 . S
C698 C681 1.574 . S
C698 H692 0.949 . S
C698 C702 1.368 . S
C699 C680 1.429 . S
C699 C693 1.429 . S
C699 C700 1.523 . S
C700 C681 1.368 . S
C700 C694 1.368 . S
C700 C699 1.523 . S
C701 C685 1.429 . S
C701 C697 1.429 . S
C701 C702 1.523 . S
C702 C686 1.368 . S
C702 C698 1.368 . S
C702 C701 1.523 . S
H703 C678 0.950 . S
H704 C680 0.950 . S
H705 C681 0.949 . S
H706 C683 0.950 . S
H707 C685 0.950 . S
C708 C709 1.349 . S
C708 C710 1.327 . S
C708 H733 0.950 . S
C709 C708 1.349 . S
C709 C725 1.349 . S
C710 C708 1.327 . S
C710 C729 1.429 . S
C710 H734 0.950 . S
C711 C728 1.574 . S
C711 C730 1.368 . S
C711 H735 0.949 . S
H712 C716 0.949 . S
C713 C714 1.349 . S
C713 C715 1.327 . S
C713 H736 0.950 . S
C714 C713 1.349 . S
C714 C726 1.349 . S
C715 C713 1.327 . S
C715 C731 1.429 . S
C715 H737 0.950 . S
C716 H712 0.949 . S
C716 C724 1.574 . S
C716 C732 1.368 . S
H717 C725 0.950 . S
H718 C723 0.950 . S
H719 C724 0.949 . S
H720 C726 0.950 . S
H721 C727 0.950 . S
H722 C728 0.949 . S
C723 H718 0.950 . S
C723 C725 1.327 . S
C723 C729 1.429 . S
C724 C716 1.574 . S
C724 H719 0.949 . S
C724 C730 1.368 . S
C725 C709 1.349 . S
C725 H717 0.950 . S
C725 C723 1.327 . S
C726 C714 1.349 . S
C726 H720 0.950 . S
C726 C727 1.327 . S
C727 H721 0.950 . S
C727 C726 1.327 . S
C727 C731 1.429 . S
C728 C711 1.574 . S
C728 H722 0.949 . S
C728 C732 1.368 . S
C729 C710 1.429 . S
C729 C723 1.429 . S
C729 C730 1.523 . S
C730 C711 1.368 . S
C730 C724 1.368 . S
C730 C729 1.523 . S
C731 C715 1.429 . S
C731 C727 1.429 . S
C731 C732 1.523 . S
C732 C716 1.368 . S
C732 C728 1.368 . S
C732 C731 1.523 . S
H733 C708 0.950 . S
H734 C710 0.950 . S
H735 C711 0.949 . S
H736 C713 0.950 . S
H737 C715 0.950 . S
C738 C739 1.349 . S
C738 C740 1.327 . S
C738 H763 0.950 . S
C739 C738 1.349 . S
C739 C755 1.349 . S
C740 C738 1.327 . S
C740 C759 1.429 . S
C740 H764 0.950 . S
C741 C758 1.574 . S
C741 C760 1.368 . S
C741 H765 0.949 . S
H742 C746 0.949 . S
C743 C744 1.349 . S
C743 C745 1.327 . S
C743 H766 0.950 1_556 S
C744 C743 1.349 . S
C744 C756 1.349 . S
C745 C743 1.327 . S
C745 C761 1.429 . S
C745 H767 0.950 1_556 S
C746 H742 0.949 . S
C746 C754 1.574 . S
C746 C762 1.368 . S
H747 C755 0.950 . S
H748 C753 0.950 . S
H749 C754 0.949 . S
H750 C756 0.950 . S
H751 C757 0.950 . S
H752 C758 0.949 1_554 S
C753 H748 0.950 . S
C753 C755 1.327 . S
C753 C759 1.429 . S
C754 C746 1.574 . S
C754 H749 0.949 . S
C754 C760 1.368 . S
C755 C739 1.349 . S
C755 H747 0.950 . S
C755 C753 1.327 . S
C756 C744 1.349 . S
C756 H750 0.950 . S
C756 C757 1.327 . S
C757 H751 0.950 . S
C757 C756 1.327 . S
C757 C761 1.429 . S
C758 C741 1.574 . S
C758 H752 0.949 1_556 S
C758 C762 1.368 . S
C759 C740 1.429 . S
C759 C753 1.429 . S
C759 C760 1.523 . S
C760 C741 1.368 . S
C760 C754 1.368 . S
C760 C759 1.523 . S
C761 C745 1.429 . S
C761 C757 1.429 . S
C761 C762 1.523 . S
C762 C746 1.368 . S
C762 C758 1.368 . S
C762 C761 1.523 . S
H763 C738 0.950 . S
H764 C740 0.950 . S
H765 C741 0.949 . S
H766 C743 0.950 1_554 S
H767 C745 0.950 1_554 S
C768 C769 1.349 . S
C768 C770 1.327 . S
C768 H793 0.950 . S
C769 C768 1.349 . S
C769 C785 1.349 . S
C770 C768 1.327 . S
C770 C789 1.429 . S
C770 H794 0.950 . S
C771 C788 1.574 . S
C771 C790 1.368 . S
C771 H795 0.949 . S
H772 C776 0.949 . S
C773 C774 1.349 . S
C773 C775 1.327 . S
C773 H796 0.950 . S
C774 C773 1.349 . S
C774 C786 1.349 . S
C775 C773 1.327 . S
C775 C791 1.429 . S
C775 H797 0.950 . S
C776 H772 0.949 . S
C776 C784 1.574 . S
C776 C792 1.368 . S
H777 C785 0.950 . S
H778 C783 0.950 . S
H779 C784 0.949 . S
H780 C786 0.950 . S
H781 C787 0.950 . S
H782 C788 0.949 . S
C783 H778 0.950 . S
C783 C785 1.327 . S
C783 C789 1.429 . S
C784 C776 1.574 . S
C784 H779 0.949 . S
C784 C790 1.368 . S
C785 C769 1.349 . S
C785 H777 0.950 . S
C785 C783 1.327 . S
C786 C774 1.349 . S
C786 H780 0.950 . S
C786 C787 1.327 . S
C787 H781 0.950 . S
C787 C786 1.327 . S
C787 C791 1.429 . S
C788 C771 1.574 . S
C788 H782 0.949 . S
C788 C792 1.368 . S
C789 C770 1.429 . S
C789 C783 1.429 . S
C789 C790 1.523 . S
C790 C771 1.368 . S
C790 C784 1.368 . S
C790 C789 1.523 . S
C791 C775 1.429 . S
C791 C787 1.429 . S
C791 C792 1.523 . S
C792 C776 1.368 . S
C792 C788 1.368 . S
C792 C791 1.523 . S
H793 C768 0.950 . S
H794 C770 0.950 . S
H795 C771 0.949 . S
H796 C773 0.950 . S
H797 C775 0.950 . S
C798 C799 1.349 . S
C798 C800 1.327 . S
C798 H823 0.950 . S
C799 C798 1.349 . S
C799 C815 1.349 . S
C800 C798 1.327 . S
C800 C819 1.429 . S
C800 H824 0.950 . S
C801 C818 1.574 . S
C801 C820 1.368 . S
C801 H825 0.949 . S
H802 C806 0.949 1_554 S
C803 C804 1.349 . S
C803 C805 1.327 . S
C803 H826 0.950 . S
C804 C803 1.349 . S
C804 C816 1.349 . S
C805 C803 1.327 . S
C805 C821 1.429 . S
C805 H827 0.950 . S
C806 H802 0.949 1_556 S
C806 C814 1.574 . S
C806 C822 1.368 . S
H807 C815 0.950 . S
H808 C813 0.950 . S
H809 C814 0.949 1_554 S
H810 C816 0.950 1_554 S
H811 C817 0.950 1_554 S
H812 C818 0.949 . S
C813 H808 0.950 . S
C813 C815 1.327 . S
C813 C819 1.429 . S
C814 C806 1.574 . S
C814 H809 0.949 1_556 S
C814 C820 1.368 . S
C815 C799 1.349 . S
C815 H807 0.950 . S
C815 C813 1.327 . S
C816 C804 1.349 . S
C816 H810 0.950 1_556 S
C816 C817 1.327 . S
C817 H811 0.950 1_556 S
C817 C816 1.327 . S
C817 C821 1.429 . S
C818 C801 1.574 . S
C818 H812 0.949 . S
C818 C822 1.368 . S
C819 C800 1.429 . S
C819 C813 1.429 . S
C819 C820 1.523 . S
C820 C801 1.368 . S
C820 C814 1.368 . S
C820 C819 1.523 . S
C821 C805 1.429 . S
C821 C817 1.429 . S
C821 C822 1.523 . S
C822 C806 1.368 . S
C822 C818 1.368 . S
C822 C821 1.523 . S
H823 C798 0.950 . S
H824 C800 0.950 . S
H825 C801 0.949 . S
H826 C803 0.950 . S
H827 C805 0.950 . S
C828 C829 1.349 . S
C828 C830 1.327 . S
C828 H853 0.950 . S
C829 C828 1.349 . S
C829 C845 1.349 . S
C830 C828 1.327 . S
C830 C849 1.429 . S
C830 H854 0.950 . S
C831 C848 1.574 . S
C831 C850 1.368 . S
C831 H855 0.949 . S
H832 C836 0.949 . S
C833 C834 1.349 . S
C833 C835 1.327 . S
C833 H856 0.950 . S
C834 C833 1.349 . S
C834 C846 1.349 . S
C835 C833 1.327 . S
C835 C851 1.429 . S
C835 H857 0.950 . S
C836 H832 0.949 . S
C836 C844 1.574 . S
C836 C852 1.368 . S
H837 C845 0.950 . S
H838 C843 0.950 . S
H839 C844 0.949 . S
H840 C846 0.950 . S
H841 C847 0.950 . S
H842 C848 0.949 . S
C843 H838 0.950 . S
C843 C845 1.327 . S
C843 C849 1.429 . S
C844 C836 1.574 . S
C844 H839 0.949 . S
C844 C850 1.368 . S
C845 C829 1.349 . S
C845 H837 0.950 . S
C845 C843 1.327 . S
C846 C834 1.349 . S
C846 H840 0.950 . S
C846 C847 1.327 . S
C847 H841 0.950 . S
C847 C846 1.327 . S
C847 C851 1.429 . S
C848 C831 1.574 . S
C848 H842 0.949 . S
C848 C852 1.368 . S
C849 C830 1.429 . S
C849 C843 1.429 . S
C849 C850 1.523 . S
C850 C831 1.368 . S
C850 C844 1.368 . S
C850 C849 1.523 . S
C851 C835 1.429 . S
C851 C847 1.429 . S
C851 C852 1.523 . S
C852 C836 1.368 . S
C852 C848 1.368 . S
C852 C851 1.523 . S
H853 C828 0.950 . S
H854 C830 0.950 . S
H855 C831 0.949 . S
H856 C833 0.950 . S
H857 C835 0.950 . S
C858 C859 1.349 . S
C858 C860 1.327 . S
C858 H883 0.950 . S
C859 C858 1.349 . S
C859 C875 1.349 . S
C860 C858 1.327 . S
C860 C879 1.429 . S
C860 H884 0.950 . S
C861 C878 1.574 . S
C861 C880 1.368 . S
C861 H885 0.949 . S
H862 C866 0.949 . S
C863 C864 1.349 . S
C863 C865 1.327 . S
C863 H886 0.950 . S
C864 C863 1.349 . S
C864 C876 1.349 . S
C865 C863 1.327 . S
C865 C881 1.429 . S
C865 H887 0.950 . S
C866 H862 0.949 . S
C866 C874 1.574 . S
C866 C882 1.368 . S
H867 C875 0.950 . S
H868 C873 0.950 . S
H869 C874 0.949 . S
H870 C876 0.950 1_554 S
H871 C877 0.950 . S
H872 C878 0.949 . S
C873 H868 0.950 . S
C873 C875 1.327 . S
C873 C879 1.429 . S
C874 C866 1.574 . S
C874 H869 0.949 . S
C874 C880 1.368 . S
C875 C859 1.349 . S
C875 H867 0.950 . S
C875 C873 1.327 . S
C876 C864 1.349 . S
C876 H870 0.950 1_556 S
C876 C877 1.327 . S
C877 H871 0.950 . S
C877 C876 1.327 . S
C877 C881 1.429 . S
C878 C861 1.574 . S
C878 H872 0.949 . S
C878 C882 1.368 . S
C879 C860 1.429 . S
C879 C873 1.429 . S
C879 C880 1.523 . S
C880 C861 1.368 . S
C880 C874 1.368 . S
C880 C879 1.523 . S
C881 C865 1.429 . S
C881 C877 1.429 . S
C881 C882 1.523 . S
C882 C866 1.368 . S
C882 C878 1.368 . S
C882 C881 1.523 . S
H883 C858 0.950 . S
H884 C860 0.950 . S
H885 C861 0.949 . S
H886 C863 0.950 . S
H887 C865 0.950 . S
C169 C147 1.529 . S
C174 C7 1.539 . S
C199 C21 1.434 . S
C204 C161 1.434 . S
C229 C35 1.529 . S
C234 C91 1.538 . S
C259 C105 1.529 . S
C264 C49 1.538 . S
C289 C119 1.434 . S
C294 C63 1.434 . S
C319 C77 1.529 . S
C324 C133 1.539 . S
C349 C8 0.791 . S
C354 C106 0.794 . S
C379 C22 0.591 . S
C384 C120 0.591 . S
C409 C134 0.791 . S
C414 C36 0.794 . S
C439 C148 0.794 . S
C444 C50 0.791 . S
C469 C162 0.594 . S
C474 C64 0.594 . S
C499 C92 0.791 . S
C504 C78 0.794 . S
C529 C9 0.810 . S
C534 C59 0.804 . S
C559 C23 0.698 . S
C564 C73 0.695 . S
C589 C37 0.698 . S
C594 C3 0.701 . S
C619 C51 0.809 . S
C624 C17 0.803 . S
C649 C65 0.697 . S
C654 C31 0.694 . S
C679 C79 0.698 . S
C684 C45 0.701 . S
C709 C93 0.809 . S
C714 C115 0.803 . S
C739 C107 0.698 . S
C744 C129 0.701 . S
C769 C143 0.695 . S
C774 C121 0.698 . S
C799 C135 0.810 . S
C804 C157 0.804 . S
C829 C149 0.698 . S
C834 C87 0.701 . S
C859 C163 0.697 . S
C864 C101 0.694 . S
