# Generated by pormake.
# Topology whr, (6)-cn, num edge types: 1
# Building blocks:
#     Node 0, Type 0, BuildingBlock: IZENUY_clean_sbu_0, # of connection points: 6
#     Node 1, Type 0, BuildingBlock: IZENUY_clean_sbu_0, # of connection points: 6
#     Node 2, Type 0, BuildingBlock: IZENUY_clean_sbu_0, # of connection points: 6
#     Node 3, Type 0, BuildingBlock: IZENUY_clean_sbu_0, # of connection points: 6
#     Node 4, Type 0, BuildingBlock: IZENUY_clean_sbu_0, # of connection points: 6
#     Node 5, Type 0, BuildingBlock: IZENUY_clean_sbu_0, # of connection points: 6
#     Node 6, Type 0, BuildingBlock: IZENUY_clean_sbu_0, # of connection points: 6
#     Node 7, Type 0, BuildingBlock: IZENUY_clean_sbu_0, # of connection points: 6
#     Node 8, Type 0, BuildingBlock: IZENUY_clean_sbu_0, # of connection points: 6
#     Node 9, Type 0, BuildingBlock: IZENUY_clean_sbu_0, # of connection points: 6
#     Node 10, Type 0, BuildingBlock: IZENUY_clean_sbu_0, # of connection points: 6
#     Node 11, Type 0, BuildingBlock: IZENUY_clean_sbu_0, # of connection points: 6
#     Node 12, Type 0, BuildingBlock: IZENUY_clean_sbu_0, # of connection points: 6
#     Node 13, Type 0, BuildingBlock: IZENUY_clean_sbu_0, # of connection points: 6
#     Node 14, Type 0, BuildingBlock: IZENUY_clean_sbu_0, # of connection points: 6
#     Node 15, Type 0, BuildingBlock: IZENUY_clean_sbu_0, # of connection points: 6
#     Edge 16, Type (0, 0), BuildingBlock: AJUNOK_clean_linker_0, # of connection points: 2
#     Edge 17, Type (0, 0), BuildingBlock: AJUNOK_clean_linker_0, # of connection points: 2
#     Edge 18, Type (0, 0), BuildingBlock: AJUNOK_clean_linker_0, # of connection points: 2
#     Edge 19, Type (0, 0), BuildingBlock: AJUNOK_clean_linker_0, # of connection points: 2
#     Edge 20, Type (0, 0), BuildingBlock: AJUNOK_clean_linker_0, # of connection points: 2
#     Edge 21, Type (0, 0), BuildingBlock: AJUNOK_clean_linker_0, # of connection points: 2
#     Edge 22, Type (0, 0), BuildingBlock: AJUNOK_clean_linker_0, # of connection points: 2
#     Edge 23, Type (0, 0), BuildingBlock: AJUNOK_clean_linker_0, # of connection points: 2
#     Edge 24, Type (0, 0), BuildingBlock: AJUNOK_clean_linker_0, # of connection points: 2
#     Edge 25, Type (0, 0), BuildingBlock: AJUNOK_clean_linker_0, # of connection points: 2
#     Edge 26, Type (0, 0), BuildingBlock: AJUNOK_clean_linker_0, # of connection points: 2
#     Edge 27, Type (0, 0), BuildingBlock: AJUNOK_clean_linker_0, # of connection points: 2
#     Edge 28, Type (0, 0), BuildingBlock: AJUNOK_clean_linker_0, # of connection points: 2
#     Edge 29, Type (0, 0), BuildingBlock: AJUNOK_clean_linker_0, # of connection points: 2
#     Edge 30, Type (0, 0), BuildingBlock: AJUNOK_clean_linker_0, # of connection points: 2
#     Edge 31, Type (0, 0), BuildingBlock: AJUNOK_clean_linker_0, # of connection points: 2
#     Edge 32, Type (0, 0), BuildingBlock: AJUNOK_clean_linker_0, # of connection points: 2
#     Edge 33, Type (0, 0), BuildingBlock: AJUNOK_clean_linker_0, # of connection points: 2
#     Edge 34, Type (0, 0), BuildingBlock: AJUNOK_clean_linker_0, # of connection points: 2
#     Edge 35, Type (0, 0), BuildingBlock: AJUNOK_clean_linker_0, # of connection points: 2
#     Edge 36, Type (0, 0), BuildingBlock: AJUNOK_clean_linker_0, # of connection points: 2
#     Edge 37, Type (0, 0), BuildingBlock: AJUNOK_clean_linker_0, # of connection points: 2
#     Edge 38, Type (0, 0), BuildingBlock: AJUNOK_clean_linker_0, # of connection points: 2
#     Edge 39, Type (0, 0), BuildingBlock: AJUNOK_clean_linker_0, # of connection points: 2
#     Edge 40, Type (0, 0), BuildingBlock: AJUNOK_clean_linker_0, # of connection points: 2
#     Edge 41, Type (0, 0), BuildingBlock: AJUNOK_clean_linker_0, # of connection points: 2
#     Edge 42, Type (0, 0), BuildingBlock: AJUNOK_clean_linker_0, # of connection points: 2
#     Edge 43, Type (0, 0), BuildingBlock: AJUNOK_clean_linker_0, # of connection points: 2
#     Edge 44, Type (0, 0), BuildingBlock: AJUNOK_clean_linker_0, # of connection points: 2
#     Edge 45, Type (0, 0), BuildingBlock: AJUNOK_clean_linker_0, # of connection points: 2
#     Edge 46, Type (0, 0), BuildingBlock: AJUNOK_clean_linker_0, # of connection points: 2
#     Edge 47, Type (0, 0), BuildingBlock: AJUNOK_clean_linker_0, # of connection points: 2
#     Edge 48, Type (0, 0), BuildingBlock: AJUNOK_clean_linker_0, # of connection points: 2
#     Edge 49, Type (0, 0), BuildingBlock: AJUNOK_clean_linker_0, # of connection points: 2
#     Edge 50, Type (0, 0), BuildingBlock: AJUNOK_clean_linker_0, # of connection points: 2
#     Edge 51, Type (0, 0), BuildingBlock: AJUNOK_clean_linker_0, # of connection points: 2
#     Edge 52, Type (0, 0), BuildingBlock: AJUNOK_clean_linker_0, # of connection points: 2
#     Edge 53, Type (0, 0), BuildingBlock: AJUNOK_clean_linker_0, # of connection points: 2
#     Edge 54, Type (0, 0), BuildingBlock: AJUNOK_clean_linker_0, # of connection points: 2
#     Edge 55, Type (0, 0), BuildingBlock: AJUNOK_clean_linker_0, # of connection points: 2
#     Edge 56, Type (0, 0), BuildingBlock: AJUNOK_clean_linker_0, # of connection points: 2
#     Edge 57, Type (0, 0), BuildingBlock: AJUNOK_clean_linker_0, # of connection points: 2
#     Edge 58, Type (0, 0), BuildingBlock: AJUNOK_clean_linker_0, # of connection points: 2
#     Edge 59, Type (0, 0), BuildingBlock: AJUNOK_clean_linker_0, # of connection points: 2
#     Edge 60, Type (0, 0), BuildingBlock: AJUNOK_clean_linker_0, # of connection points: 2
#     Edge 61, Type (0, 0), BuildingBlock: AJUNOK_clean_linker_0, # of connection points: 2
#     Edge 62, Type (0, 0), BuildingBlock: AJUNOK_clean_linker_0, # of connection points: 2
#     Edge 63, Type (0, 0), BuildingBlock: AJUNOK_clean_linker_0, # of connection points: 2
# Relax obj value: 0.339
# Max RMSD: 0.260
# Mean RMSD: 0.260
data_MOF--net-whr--node1-IZENUY_clean_sbu_0--edge1-AJUNOK_clean_linker_0
_symmetry_space_group_name_H-M    P1
_symmetry_Int_Tables_number       1
_symmetry_cell_setting            triclinic
loop_
_symmetry_equiv_pos_as_xyz
'x, y, z'
_cell_length_a     35.24852
_cell_length_b     35.285153
_cell_length_c     20.814956
_cell_angle_alpha  90.005888
_cell_angle_beta   90.059248
_cell_angle_gamma 90.004351
loop_
_atom_site_label
_atom_site_type_symbol
_atom_site_fract_x
_atom_site_fract_y
_atom_site_fract_z
_atom_type_partial_charge
Fe0 Fe 0.20319 0.07102 0.13142 0.0
Fe1 Fe 0.27531 0.04229 0.06675 0.0
O2 O 0.24212 0.07933 0.08 0.0
Fe3 Fe 0.24758 0.12426 0.0433 0.0
O4 O 0.20099 0.1226 1.00613 0.0
O5 O 0.17094 0.1048 0.09286 0.0
O6 O 0.18502 0.03518 0.07782 0.0
C7 C 0.20324 1.00554 0.0639 0.0
C8 C 0.22454 0.14094 0.17246 0.0
O9 O 0.23904 1.00397 0.07267 0.0
C10 C 0.32217 0.10899 0.0656 0.0
O11 O 0.22713 0.03548 0.18091 0.0
O12 O 0.28683 0.03942 0.15211 0.0
O13 O 0.22916 0.15086 0.11403 0.0
O14 O 0.21989 0.10654 0.18708 0.0
C15 C 0.26824 0.07055 0.94557 0.0
O16 O 0.31691 0.07399 0.05448 0.0
O17 O 0.29447 0.13034 0.07721 0.0
C18 C 0.26187 0.03044 0.19282 0.0
O19 O 0.26606 0.04237 0.98233 0.0
O20 O 0.26643 0.10443 0.96676 0.0
C21 C 0.17063 0.11909 0.03731 0.0
Fe22 Fe 0.04351 0.76287 0.96769 0.0
Fe23 Fe 0.12488 0.79258 0.99154 0.0
O24 O 0.07981 0.79696 0.95451 0.0
Fe25 Fe 0.07063 0.83566 0.90272 0.0
O26 O 0.03407 0.85312 0.95573 0.0
O27 O 1.00448 0.79805 0.96177 0.0
O28 O 0.04326 0.7721 0.0521 0.0
C29 C 0.07141 0.7713 0.0892 0.0
C30 C 0.03118 0.77609 0.84155 0.0
O31 O 0.10532 0.77394 0.06834 0.0
C32 C 0.14112 0.81542 0.86213 0.0
O33 O 0.07598 0.72206 0.9803 0.0
O34 O 0.13206 0.74562 0.95872 0.0
O35 O 0.03567 0.81087 0.85331 0.0
O36 O 0.04082 0.75132 0.88223 0.0
C37 C 0.11867 0.86943 0.9962 0.0
O38 O 0.15117 0.811 0.92057 0.0
O39 O 0.10664 0.81966 0.84741 0.0
C40 C 0.11117 0.71756 0.97015 0.0
O41 O 0.12238 0.83929 0.02785 0.0
O42 O 0.10379 0.86876 0.94104 0.0
C43 C 1.00522 0.83378 0.97023 0.0
Fe44 Fe 0.79404 0.91466 0.04278 0.0
Fe45 Fe 0.8364 0.96734 0.13448 0.0
O46 O 0.79844 0.95933 0.08072 0.0
Fe47 Fe 0.76543 0.99636 0.06637 0.0
O48 O 0.77558 0.99653 0.98226 0.0
O49 O 0.77637 0.93463 0.96558 0.0
O50 O 0.84156 0.9171 1.00867 0.0
C51 C 0.87087 0.91862 0.04321 0.0
C52 C 0.7189 0.92953 0.06243 0.0
O53 O 0.86915 0.93319 0.0984 0.0
C54 C 0.77717 1.00843 0.19281 0.0
O55 O 0.81106 0.88781 0.11431 0.0
O56 O 0.81824 0.93179 0.18871 0.0
O57 O 0.72405 0.96468 0.05265 0.0
O58 O 0.74654 0.90795 0.07347 0.0
C59 C 0.83767 0.03277 0.06676 0.0
O60 O 0.81198 1.00304 0.18256 0.0
O61 O 0.75275 0.99931 0.15125 0.0
C62 C 0.81428 0.89741 0.17322 0.0
O63 O 0.85573 1.00319 0.082 0.0
O64 O 0.80174 0.03443 0.0737 0.0
C65 C 0.77375 0.96856 0.94506 0.0
Fe66 Fe 0.96799 0.20221 0.90202 0.0
Fe67 Fe 0.99691 0.27388 0.96796 0.0
O68 O 0.95983 0.24078 0.95424 0.0
Fe69 Fe 0.91498 0.24597 0.99147 0.0
O70 O 0.91691 0.1993 0.02778 0.0
O71 O 0.93445 0.16964 0.9405 0.0
O72 O 1.00418 0.18384 0.95478 0.0
C73 C 0.03387 0.20203 0.96871 0.0
C74 C 0.89777 0.22362 0.8622 0.0
O75 O 0.03529 0.23785 0.9608 0.0
C76 C 0.93009 0.32058 0.9709 0.0
O77 O 1.00325 0.22657 0.85257 0.0
O78 O 0.99958 0.28603 0.88279 0.0
O79 O 0.88808 0.22793 0.92078 0.0
O80 O 0.93213 0.2191 0.84711 0.0
C81 C 0.969 0.26569 0.08919 0.0
O82 O 0.96517 0.31528 0.98161 0.0
O83 O 0.90876 0.29299 0.95846 0.0
C84 C 1.00848 0.26135 0.84149 0.0
O85 O 0.99711 0.26392 0.05218 0.0
O86 O 0.93505 0.26432 0.06813 0.0
C87 C 0.92037 0.16911 0.99621 0.0
Fe88 Fe 0.83652 0.07295 0.6325 0.0
Fe89 Fe 0.76468 0.04307 0.56781 0.0
O90 O 0.79783 0.08035 0.58 0.0
Fe91 Fe 0.79271 0.12464 0.54081 0.0
O92 O 0.8395 0.12219 0.50466 0.0
O93 O 0.86902 0.10593 0.59283 0.0
O94 O 0.85491 0.0361 0.58111 0.0
C95 C 0.83673 1.0063 0.56785 0.0
C96 C 0.81574 0.14376 0.66914 0.0
O97 O 0.80087 1.00487 0.57572 0.0
C98 C 0.71792 0.10994 0.56196 0.0
O99 O 0.8124 0.03828 0.68316 0.0
O100 O 0.75281 0.04103 0.65317 0.0
O101 O 0.81085 0.15242 0.61023 0.0
O102 O 0.81964 0.10961 0.68602 0.0
C103 C 0.77233 0.06955 0.4454 0.0
O104 O 0.72318 0.07467 0.55348 0.0
O105 O 0.7456 0.13141 0.57326 0.0
C106 C 0.77774 0.03235 0.69428 0.0
O107 O 0.77425 0.04193 0.48343 0.0
O108 O 0.77429 0.10366 0.46515 0.0
C109 C 0.86967 0.11919 0.5366 0.0
Fe110 Fe 0.07338 0.2011 0.40406 0.0
Fe111 Fe 0.04325 0.2734 0.46675 0.0
O112 O 0.0807 0.24041 0.45517 0.0
Fe113 Fe 0.12511 0.24641 0.49365 0.0
O114 O 0.12303 0.20025 0.5317 0.0
O115 O 0.10668 0.16921 0.445 0.0
O116 O 0.03666 0.18317 0.45616 0.0
C117 C 1.00676 0.20135 0.46873 0.0
C118 C 0.14407 0.22185 0.36616 0.0
O119 O 1.00523 0.23707 0.45993 0.0
C120 C 0.10974 0.32053 0.46934 0.0
O121 O 0.03853 0.22464 0.35255 0.0
O122 O 0.04098 0.28446 0.38119 0.0
O123 O 0.15289 0.22746 0.42482 0.0
O124 O 0.10987 0.21743 0.34973 0.0
C125 C 0.07018 0.26746 0.58898 0.0
O126 O 0.07462 0.31519 0.4795 0.0
O127 O 0.13135 0.2929 0.45877 0.0
C128 C 0.03233 0.25919 0.34076 0.0
O129 O 0.04244 0.2645 0.55133 0.0
O130 O 0.1043 0.26583 0.56894 0.0
C131 C 0.12069 0.16969 0.50083 0.0
Fe132 Fe 0.20316 0.96646 0.63207 0.0
Fe133 Fe 0.27588 0.99525 0.56904 0.0
O134 O 0.24203 0.9585 0.58021 0.0
Fe135 Fe 0.24662 0.91423 0.54063 0.0
O136 O 0.19992 0.9173 0.50408 0.0
O137 O 0.17025 0.93409 0.5917 0.0
O138 O 0.18567 1.00389 0.58063 0.0
C139 C 0.20457 0.03346 0.56858 0.0
C140 C 0.22284 0.89522 0.66861 0.0
O141 O 0.24041 0.03391 0.57664 0.0
C142 C 0.32164 0.92784 0.56326 0.0
O143 O 0.22764 1.00053 0.6836 0.0
O144 O 0.28733 0.99691 0.65465 0.0
O145 O 0.22798 0.88654 0.60977 0.0
O146 O 0.21911 0.92938 0.68557 0.0
C147 C 0.2684 0.96938 0.44617 0.0
O148 O 0.31692 0.96318 0.55524 0.0
O149 O 0.29361 0.90661 0.57331 0.0
C150 C 0.26233 1.00612 0.69521 0.0
O151 O 0.26677 0.99683 0.48454 0.0
O152 O 0.26543 0.9352 0.46524 0.0
C153 C 0.16969 0.92049 0.53569 0.0
Fe154 Fe 0.96617 0.83724 0.4026 0.0
Fe155 Fe 0.99643 0.7653 0.46626 0.0
O156 O 0.95899 0.79831 0.45453 0.0
Fe157 Fe 0.91466 0.79274 0.4935 0.0
O158 O 0.91689 0.8393 0.53069 0.0
O159 O 0.93301 0.86932 0.44295 0.0
O160 O 1.00301 0.85556 0.45423 0.0
C161 C 0.03289 0.83746 0.4674 0.0
C162 C 0.89539 0.81629 0.36566 0.0
O163 O 0.03446 0.80167 0.45922 0.0
C164 C 0.92977 0.71834 0.46978 0.0
O165 O 1.00097 0.81357 0.35141 0.0
O166 O 0.99865 0.75393 0.38075 0.0
O167 O 0.88679 0.81127 0.42452 0.0
O168 O 0.92954 0.82044 0.34881 0.0
C169 C 0.9698 0.77152 0.58861 0.0
O170 O 0.965 0.72358 0.47926 0.0
O171 O 0.90811 0.746 0.45961 0.0
C172 C 1.0073 0.77902 0.34005 0.0
O173 O 0.99741 0.77435 0.55079 0.0
O174 O 0.93562 0.77363 0.5689 0.0
C175 C 0.91967 0.86963 0.49917 0.0
Fe176 Fe 0.77584 0.54345 0.57188 0.0
Fe177 Fe 0.74741 0.62483 0.54448 0.0
O178 O 0.74281 0.58074 0.58447 0.0
Fe179 Fe 0.7048 0.57361 0.63828 0.0
O180 O 0.68585 0.53642 0.58831 0.0
O181 O 0.73986 0.50525 0.58169 0.0
O182 O 0.76516 0.54178 0.48793 0.0
C183 C 0.76676 0.56909 0.44925 0.0
C184 C 0.76441 0.53343 0.69874 0.0
O185 O 0.76508 0.60337 0.46845 0.0
C186 C 0.72629 0.64445 0.6735 0.0
O187 O 0.81709 0.57501 0.55586 0.0
O188 O 0.79487 0.63186 0.5755 0.0
O189 O 0.72961 0.53934 0.68879 0.0
O190 O 0.78881 0.54192 0.65677 0.0
C191 C 0.67043 0.61935 0.54253 0.0
O192 O 0.72993 0.65304 0.61425 0.0
O193 O 0.72241 0.61038 0.69057 0.0
C194 C 0.82245 0.61027 0.56418 0.0
O195 O 0.70025 0.62205 0.50971 0.0
O196 O 0.67171 0.60639 0.599 0.0
C197 C 0.70387 0.50644 0.57562 0.0
Fe198 Fe 0.5443 0.26574 0.46819 0.0
Fe199 Fe 0.62664 0.29229 0.49656 0.0
O200 O 0.58178 0.29925 0.45995 0.0
Fe201 Fe 0.57374 0.34016 0.41343 0.0
O202 O 0.53786 0.35608 0.46907 0.0
O203 O 0.5062 0.30229 0.46553 0.0
O204 O 0.54393 0.27165 0.55348 0.0
C205 C 0.57192 0.26906 0.59085 0.0
C206 C 0.53521 0.2849 0.34292 0.0
O207 O 0.60605 0.27171 0.57097 0.0
C208 C 0.64335 0.31886 0.36963 0.0
O209 O 0.57554 0.22362 0.47715 0.0
O210 O 0.63234 0.2464 0.45901 0.0
O211 O 0.53833 0.31855 0.36208 0.0
O212 O 0.54186 0.25773 0.38103 0.0
C213 C 0.62201 0.36908 0.50982 0.0
O214 O 0.65357 0.31223 0.4274 0.0
O215 O 0.60911 0.32556 0.35602 0.0
C216 C 0.61076 0.21856 0.46797 0.0
O217 O 0.62582 0.33775 0.53789 0.0
O218 O 0.60764 0.37061 0.45458 0.0
C219 C 0.50778 0.33755 0.47898 0.0
Fe220 Fe 0.26361 0.49527 0.57054 0.0
Fe221 Fe 0.29266 0.41403 0.5434 0.0
O222 O 0.29711 0.45831 0.58292 0.0
Fe223 Fe 0.33548 0.46608 0.63602 0.0
O224 O 0.35379 0.50329 0.58488 0.0
O225 O 0.29928 0.5337 0.57909 0.0
O226 O 0.27348 0.49667 0.48627 0.0
C227 C 0.27224 0.46915 0.44793 0.0
C228 C 0.27609 0.50604 0.69708 0.0
O229 O 0.27469 0.435 0.46738 0.0
C230 C 0.3149 0.39502 0.67226 0.0
O231 O 0.22251 0.46346 0.55568 0.0
O232 O 0.24529 0.40675 0.57456 0.0
O233 O 0.31082 0.50044 0.68633 0.0
O234 O 0.25137 0.4971 0.65577 0.0
C235 C 0.3697 0.41988 0.54121 0.0
O236 O 0.31032 0.38637 0.61325 0.0
O237 O 0.3187 0.42919 0.68927 0.0
C238 C 0.2175 0.42817 0.5638 0.0
O239 O 0.33984 0.41674 0.50843 0.0
O240 O 0.36846 0.43341 0.59717 0.0
C241 C 0.33519 0.53296 0.5722 0.0
Fe242 Fe 0.49643 0.77292 0.46871 0.0
Fe243 Fe 0.41469 0.74574 0.49597 0.0
O244 O 0.45909 0.73972 0.45765 0.0
Fe245 Fe 0.46652 0.70019 0.40707 0.0
O246 O 0.50325 0.68256 0.45965 0.0
O247 O 0.53455 0.73659 0.46254 0.0
O248 O 0.49736 0.76457 0.55344 0.0
C249 C 0.4696 0.76742 0.59098 0.0
C250 C 0.50715 0.75805 0.34285 0.0
O251 O 0.43548 0.7654 0.57103 0.0
C252 C 0.39589 0.72101 0.36864 0.0
O253 O 0.46496 0.8147 0.48085 0.0
O254 O 0.40825 0.79212 0.46077 0.0
O255 O 0.50136 0.72353 0.35539 0.0
O256 O 0.49848 0.78348 0.38295 0.0
C257 C 0.41914 0.66901 0.5038 0.0
O258 O 0.38702 0.72662 0.42722 0.0
O259 O 0.43006 0.71629 0.35239 0.0
C260 C 0.42978 0.81987 0.4709 0.0
O261 O 0.4169 0.69967 0.53442 0.0
O262 O 0.43321 0.6684 0.44807 0.0
C263 C 0.53308 0.70092 0.47213 0.0
Fe264 Fe 0.33707 0.57091 0.13594 0.0
Fe265 Fe 0.26574 0.54232 0.06853 0.0
O266 O 0.29902 0.57916 0.08244 0.0
Fe267 Fe 0.29489 0.62381 0.04431 0.0
O268 O 0.3424 0.62106 1.01022 0.0
O269 O 0.36999 0.60493 0.09986 0.0
O270 O 0.35608 0.53498 0.08318 0.0
C271 C 0.33779 0.50552 0.06795 0.0
C272 C 0.31516 0.6409 0.17484 0.0
O273 O 0.30188 0.504 0.07566 0.0
C274 C 0.21955 0.60953 0.06325 0.0
O275 O 0.31257 0.5353 0.18415 0.0
O276 O 0.25327 0.53963 0.15357 0.0
O277 O 0.31198 0.65057 0.11593 0.0
O278 O 0.31919 0.60652 0.19029 0.0
C279 C 0.27384 0.5699 0.94706 0.0
O280 O 0.22454 0.57425 0.05467 0.0
O281 O 0.24731 0.63092 0.07459 0.0
C282 C 0.27776 0.5303 0.1949 0.0
O283 O 0.27562 0.54195 0.98435 0.0
O284 O 0.27719 0.60382 0.96726 0.0
C285 C 0.37175 0.61939 0.04461 0.0
Fe286 Fe 0.57275 0.70239 0.90446 0.0
Fe287 Fe 0.54364 0.77484 0.96853 0.0
O288 O 0.58067 0.74137 0.95637 0.0
Fe289 Fe 0.6252 0.74666 0.99484 0.0
O290 O 0.62304 0.70007 0.0312 0.0
O291 O 0.60583 0.66974 0.94432 0.0
O292 O 0.53568 0.68451 0.95623 0.0
C293 C 0.5064 0.70343 0.96983 0.0
C294 C 0.64361 0.72325 0.86642 0.0
O295 O 0.50523 0.73912 0.96127 0.0
C296 C 0.61044 0.82137 0.97277 0.0
O297 O 0.53813 0.72677 0.85373 0.0
O298 O 0.54168 0.7864 0.88314 0.0
O299 O 0.65266 0.72861 0.92505 0.0
O300 O 0.60938 0.71864 0.85025 0.0
C301 C 0.57038 0.76672 0.09082 0.0
O302 O 0.5753 0.81614 0.98228 0.0
O303 O 0.63192 0.79368 0.96207 0.0
C304 C 0.53286 0.7615 0.84217 0.0
O305 O 0.54262 0.7655 0.05294 0.0
O306 O 0.6045 0.76493 0.07085 0.0
C307 C 0.62051 0.6698 0.99965 0.0
Fe308 Fe 0.70256 0.46692 0.13244 0.0
Fe309 Fe 0.77576 0.49512 0.07053 0.0
O310 O 0.74184 0.45845 0.0817 0.0
Fe311 Fe 0.74693 0.41384 0.04347 0.0
O312 O 0.70043 0.41614 1.00605 0.0
O313 O 0.66987 0.43412 0.09214 0.0
O314 O 0.68553 0.50393 0.07963 0.0
C315 C 0.70454 0.53344 0.06775 0.0
C316 C 0.72265 0.39615 0.17162 0.0
O317 O 0.74028 0.53388 0.07713 0.0
C318 C 0.82179 0.42789 0.06641 0.0
O319 O 0.72682 0.50138 0.18384 0.0
O320 O 0.78672 0.49689 0.15627 0.0
O321 O 0.72814 0.38674 0.11318 0.0
O322 O 0.71806 0.43041 0.18727 0.0
C323 C 0.76879 0.46854 0.94814 0.0
O324 O 0.81692 0.46311 0.05746 0.0
O325 O 0.79381 0.40675 0.07712 0.0
C326 C 0.76153 0.50612 0.19649 0.0
O327 O 0.76706 0.49625 0.98599 0.0
O328 O 0.766 0.43443 0.96786 0.0
C329 C 0.66991 0.41955 0.03677 0.0
Fe330 Fe 0.4969 0.26425 0.96604 0.0
Fe331 Fe 0.41528 0.29218 0.99322 0.0
O332 O 0.45942 0.29704 0.95329 0.0
Fe333 Fe 0.46667 0.33515 0.89977 0.0
O334 O 0.50366 0.35417 0.95048 0.0
O335 O 0.53511 0.30038 0.95617 0.0
O336 O 0.49846 0.27559 0.04908 0.0
C337 C 0.47141 0.2755 0.08819 0.0
C338 C 0.50685 0.27544 0.83951 0.0
O339 O 0.4369 0.27522 0.06982 0.0
C340 C 0.39592 0.31322 0.86388 0.0
O341 O 0.46557 0.22292 0.98276 0.0
O342 O 0.40856 0.24465 0.96274 0.0
O343 O 0.5012 0.31028 0.84958 0.0
O344 O 0.49829 0.25107 0.88145 0.0
C345 C 0.42018 0.36921 0.9948 0.0
O346 O 0.38713 0.30916 0.92299 0.0
O347 O 0.43004 0.31759 0.84712 0.0
C348 C 0.43034 0.21729 0.97422 0.0
O349 O 0.41755 0.33938 0.02752 0.0
O350 O 0.4336 0.36814 0.93864 0.0
C351 C 0.53361 0.33623 0.96388 0.0
C352 C 0.18838 0.19855 0.20572 0.0
C353 C 0.21364 0.16918 0.22187 0.0
C354 C 0.16818 0.21813 0.25351 0.0
C355 C 0.1732 0.20969 0.31912 0.0
H356 H 0.18152 0.20409 0.15584 0.0
H357 H 0.14665 0.23828 0.23883 0.0
S358 S 0.24002 0.13886 0.38667 0.0
N359 N 0.24544 0.13525 0.30809 0.0
N360 N 0.20832 0.1727 0.39776 0.0
C361 C 0.20108 0.18296 0.33601 0.0
C362 C 0.22107 0.16251 0.28737 0.0
C363 C 0.19929 0.85073 0.82873 0.0
C364 C 0.16933 0.82615 0.81255 0.0
C365 C 0.21913 0.87071 0.781 0.0
C366 C 0.21035 0.86613 0.71541 0.0
H367 H 0.20517 0.85725 0.87863 0.0
H368 H 0.23978 0.89174 0.79573 0.0
S369 S 0.13788 0.8011 0.64774 0.0
N370 N 0.13448 0.79539 0.72629 0.0
N371 N 0.17231 0.83217 0.63671 0.0
C372 C 0.18296 0.83891 0.69845 0.0
C373 C 0.1623 0.81912 0.74703 0.0
C374 C 0.8708 0.82003 0.25328 0.0
C375 C 0.8661 0.82846 0.31893 0.0
C376 C 0.85031 0.8396 0.20581 0.0
C377 C 0.82518 0.869 0.22234 0.0
H378 H 0.89228 0.79993 0.23831 0.0
H379 H 0.85694 0.83406 0.15587 0.0
S380 S 0.79966 0.89924 0.38745 0.0
N381 N 0.83141 0.8654 0.39808 0.0
N382 N 0.79378 0.90285 0.30895 0.0
C383 C 0.81803 0.87559 0.2879 0.0
C384 C 0.8383 0.85515 0.33622 0.0
C385 C 0.81965 0.16815 0.78163 0.0
C386 C 0.82813 0.17289 0.716 0.0
C387 C 0.83955 0.18819 0.82929 0.0
C388 C 0.86926 0.21301 0.81296 0.0
H389 H 0.79923 0.14692 0.79643 0.0
H390 H 0.83397 0.18152 0.8792 0.0
S391 S 0.89981 0.23862 0.64805 0.0
N392 N 0.86555 0.20732 0.63715 0.0
N393 N 0.90351 0.2442 0.72659 0.0
C394 C 0.87594 0.22024 0.74744 0.0
C395 C 0.85521 0.20038 0.69894 0.0
C396 C 0.66622 0.7192 0.75272 0.0
C397 C 0.67283 0.71235 0.8185 0.0
C398 C 0.68715 0.70037 0.70495 0.0
C399 C 0.7149 0.6734 0.72135 0.0
H400 H 0.64297 0.73734 0.73803 0.0
H401 H 0.67899 0.70428 0.65518 0.0
S402 S 0.74635 0.64851 0.88617 0.0
N403 N 0.71221 0.67989 0.89715 0.0
N404 N 0.75074 0.64384 0.80757 0.0
C405 C 0.72394 0.66869 0.78674 0.0
C406 C 0.70312 0.68835 0.83532 0.0
C407 C 0.70107 0.35399 0.3342 0.0
C408 C 0.67155 0.3286 0.31964 0.0
C409 C 0.7203 0.37343 0.28513 0.0
C410 C 0.71126 0.3675 0.21992 0.0
H411 H 0.70691 0.36158 0.38367 0.0
H412 H 0.74056 0.39517 0.29845 0.0
S413 S 0.63994 0.29979 0.15676 0.0
N414 N 0.63696 0.29551 0.23563 0.0
N415 N 0.67366 0.33133 0.14356 0.0
C416 C 0.68442 0.33943 0.20476 0.0
C417 C 0.66439 0.32017 0.25466 0.0
C418 C 0.33855 0.35042 0.83261 0.0
C419 C 0.36687 0.32415 0.81578 0.0
C420 C 0.31909 0.37113 0.78521 0.0
C421 C 0.32667 0.36571 0.71938 0.0
H422 H 0.33392 0.35769 0.88257 0.0
H423 H 0.29983 0.39334 0.80032 0.0
S424 S 0.39441 0.29629 0.65042 0.0
N425 N 0.39865 0.29094 0.72892 0.0
N426 N 0.36156 0.32909 0.64002 0.0
C427 C 0.35219 0.33683 0.70198 0.0
C428 C 0.37243 0.31625 0.75019 0.0
C429 C 0.35148 0.69836 0.20808 0.0
C430 C 0.32591 0.66925 0.22413 0.0
C431 C 0.3719 0.71766 0.25593 0.0
C432 C 0.3667 0.70925 0.32147 0.0
H433 H 0.35849 0.70381 0.15825 0.0
H434 H 0.39372 0.7375 0.24137 0.0
S435 S 0.29896 0.63932 0.38877 0.0
N436 N 0.29356 0.63576 0.31015 0.0
N437 N 0.33106 0.67278 0.4 0.0
C438 C 0.33846 0.68293 0.33827 0.0
C439 C 0.31826 0.66273 0.28956 0.0
C440 C 0.19443 0.93486 0.06438 0.0
C441 C 0.18138 0.97106 0.04654 0.0
C442 C 0.17312 0.90216 0.05059 0.0
C443 C 0.13835 0.90442 1.01735 0.0
H444 H 0.22108 0.93177 0.0898 0.0
H445 H 0.18453 0.87484 0.06441 0.0
S446 S 0.0915 0.99243 0.9606 0.0
N447 N 0.1311 1.0072 0.99486 0.0
N448 N 0.09164 0.94583 0.9679 0.0
C449 C 0.12497 0.94044 0.99951 0.0
C450 C 0.14631 0.97371 1.01437 0.0
C451 C 0.91336 0.88919 0.96 0.0
C452 C 0.9054 0.89699 0.02497 0.0
C453 C 0.94563 0.86822 0.94239 0.0
C454 C 0.97054 0.85389 0.98922 0.0
H455 H 0.8948 0.89971 0.92252 0.0
H456 H 0.95126 0.86331 0.89191 0.0
S457 S 0.96193 0.86394 0.16546 0.0
N458 N 0.92504 0.88716 0.13632 0.0
N459 N 0.9851 0.84757 0.10239 0.0
C460 C 0.9628 0.8608 0.054 0.0
C461 C 0.93034 0.8824 0.07212 0.0
C462 C 0.86602 0.13632 0.0499 0.0
C463 C 0.90128 0.13417 0.01844 0.0
C464 C 0.84529 0.10345 0.06448 0.0
C465 C 0.85949 0.06723 0.04953 0.0
H466 H 0.85375 0.16363 0.06143 0.0
H467 H 0.81805 0.10648 0.08797 0.0
S468 S 0.95121 0.04636 0.96931 0.0
N469 N 0.94978 0.09306 0.97369 0.0
N470 N 0.91149 0.03127 1.00267 0.0
C471 C 0.89516 0.06474 0.0194 0.0
C472 C 0.91586 0.0982 1.00346 0.0
C473 C 0.10472 0.19437 0.96974 0.0
C474 C 0.06853 0.18029 0.98546 0.0
C475 C 0.13769 0.17354 0.98375 0.0
C476 C 0.13565 0.13823 1.01506 0.0
H477 H 0.10762 0.22155 0.94605 0.0
H478 H 0.165 0.18574 0.97186 0.0
S479 S 0.04791 0.0884 0.0652 0.0
N480 N 0.03273 0.12828 0.03262 0.0
N481 N 0.09463 0.08971 0.05994 0.0
C482 C 0.09969 0.12372 0.03046 0.0
C483 C 0.06616 0.14457 1.01541 0.0
C484 C 0.84446 0.93546 0.5672 0.0
C485 C 0.85849 0.97163 0.5513 0.0
C486 C 0.86531 0.9025 0.55324 0.0
C487 C 0.9006 0.90453 0.5218 0.0
H488 H 0.81728 0.93256 0.59093 0.0
H489 H 0.85311 0.87522 0.56513 0.0
S490 S 0.95012 0.99215 0.47044 0.0
N491 N 0.91034 1.00734 0.50338 0.0
N492 N 0.9489 0.9455 0.47609 0.0
C493 C 0.91501 0.94046 0.50603 0.0
C494 C 0.89414 0.97396 0.52105 0.0
C495 C 0.90287 0.17319 0.48263 0.0
C496 C 0.90472 0.13803 0.51435 0.0
C497 C 0.93593 0.19388 0.4689 0.0
C498 C 0.97204 0.17973 0.48518 0.0
H499 H 0.87563 0.18545 0.47035 0.0
H500 H 0.93316 0.22103 0.44507 0.0
S501 S 0.99208 0.08825 0.56672 0.0
N502 N 0.94539 0.08967 0.56074 0.0
N503 N 1.00752 0.12787 0.53362 0.0
C504 C 0.9742 0.14416 0.51564 0.0
C505 C 0.94057 0.12349 0.53054 0.0
C506 C 0.12619 0.09953 0.51195 0.0
C507 C 0.14127 0.13574 0.52355 0.0
C508 C 0.14678 0.06673 0.5272 0.0
C509 C 0.18371 0.06887 0.55297 0.0
H510 H 0.09828 0.09653 0.49064 0.0
H511 H 0.13386 0.03945 0.51756 0.0
S512 S 0.23648 0.15731 0.59023 0.0
N513 N 0.19526 0.17208 0.56207 0.0
N514 N 0.2346 0.11057 0.58858 0.0
C515 C 0.19923 0.10505 0.5643 0.0
C516 C 0.17782 0.13843 0.55028 0.0
C517 C 0.13668 0.86624 0.48169 0.0
C518 C 0.13466 0.90142 0.51344 0.0
C519 C 0.10373 0.84534 0.46786 0.0
C520 C 0.06754 0.85924 0.48409 0.0
H521 H 0.16398 0.85415 0.46942 0.0
H522 H 0.10665 0.81823 0.44395 0.0
S523 S 0.04697 0.95046 0.56602 0.0
N524 N 0.09367 0.94943 0.55995 0.0
N525 N 0.03179 0.91076 0.53282 0.0
C526 C 0.06519 0.89475 0.51472 0.0
C527 C 0.09871 0.91566 0.52967 0.0
C528 C 0.6978 0.4354 0.5736 0.0
C529 C 0.68197 0.47142 0.56179 0.0
C530 C 0.67726 0.40207 0.56088 0.0
C531 C 0.64049 0.40365 0.53476 0.0
H532 H 0.72632 0.43287 0.59251 0.0
H533 H 0.6909 0.37496 0.5688 0.0
S534 S 0.5856 0.49048 0.49683 0.0
N535 N 0.62655 0.50632 0.52447 0.0
N536 N 0.58858 0.44383 0.49951 0.0
C537 C 0.62409 0.43936 0.52395 0.0
C538 C 0.64466 0.47319 0.53766 0.0
C539 C 0.40382 0.36648 0.48676 0.0
C540 C 0.40514 0.40099 0.52057 0.0
C541 C 0.43702 0.34563 0.47464 0.0
C542 C 0.47277 0.35887 0.49499 0.0
H543 H 0.37685 0.35487 0.47137 0.0
H544 H 0.43466 0.31913 0.44866 0.0
S545 S 0.49149 0.44816 0.58397 0.0
N546 N 0.44507 0.44772 0.57341 0.0
N547 N 0.50735 0.40896 0.55005 0.0
C548 C 0.47443 0.39366 0.52794 0.0
C549 C 0.44067 0.4146 0.54085 0.0
C550 C 0.392 0.56595 0.52692 0.0
C551 C 0.35634 0.5682 0.55711 0.0
C552 C 0.41258 0.59871 0.51138 0.0
C553 C 0.39878 0.63495 0.52692 0.0
H554 H 0.4038 0.53864 0.51394 0.0
H555 H 0.43943 0.59565 0.48662 0.0
S556 S 0.30752 0.65646 0.60783 0.0
N557 N 0.30838 0.60977 0.60285 0.0
N558 N 0.34746 0.67124 0.57488 0.0
C559 C 0.3636 0.63764 0.55845 0.0
C560 C 0.34225 0.60431 0.5731 0.0
C561 C 0.60385 0.69283 0.47116 0.0
C562 C 0.56781 0.6795 0.4895 0.0
C563 C 0.63689 0.67228 0.48577 0.0
C564 C 0.63515 0.63809 0.52052 0.0
H565 H 0.60657 0.7192 0.44492 0.0
H566 H 0.66407 0.68389 0.47153 0.0
S567 S 0.54787 0.59069 0.57906 0.0
N568 N 0.53242 0.62942 0.54303 0.0
N569 N 0.59451 0.59152 0.57192 0.0
C570 C 0.59934 0.62439 0.53884 0.0
C571 C 0.56569 0.64488 0.52297 0.0
C572 C 0.36633 0.40201 0.05012 0.0
C573 C 0.40101 0.40422 1.01683 0.0
C574 C 0.34566 0.43482 0.06551 0.0
C575 C 0.35937 0.47108 0.04959 0.0
H576 H 0.35447 0.37467 0.06267 0.0
H577 H 0.31891 0.43172 0.09052 0.0
S578 S 0.4493 0.49218 0.96395 0.0
N579 N 0.44827 0.44548 0.96885 0.0
N580 N 0.41018 0.50715 0.99941 0.0
C581 C 0.3944 0.47364 1.01737 0.0
C582 C 0.415 0.44023 1.00057 0.0
C583 C 0.41446 0.64792 0.96075 0.0
C584 C 0.40649 0.64057 0.02587 0.0
C585 C 0.44685 0.66859 0.94267 0.0
C586 C 0.47193 0.68301 0.98916 0.0
H587 H 0.39575 0.63735 0.92351 0.0
H588 H 0.45238 0.67327 0.89209 0.0
S589 S 0.46338 0.67409 0.16561 0.0
N590 N 0.42634 0.6509 0.13697 0.0
N591 N 0.48662 0.68991 0.1022 0.0
C592 C 0.46422 0.67649 0.05409 0.0
C593 C 0.43162 0.65521 0.07268 0.0
C594 C 0.62622 0.59951 1.01027 0.0
C595 C 0.6414 0.63575 0.02128 0.0
C596 C 0.64681 0.56672 0.02579 0.0
C597 C 0.68385 0.56886 0.0512 0.0
H598 H 0.59818 0.59649 0.98952 0.0
H599 H 0.63373 0.53943 1.01686 0.0
S600 S 0.73717 0.65739 0.08563 0.0
N601 N 0.69579 0.67211 0.05805 0.0
N602 N 0.73512 0.61065 0.08487 0.0
C603 C 0.69956 0.60507 0.06142 0.0
C604 C 0.67816 0.63845 0.04718 0.0
C605 C 0.60462 0.34354 0.969 0.0
C606 C 0.56817 0.35816 0.98142 0.0
C607 C 0.63746 0.36435 0.98423 0.0
C608 C 0.6351 0.40015 1.01388 0.0
H609 H 0.60785 0.31591 0.94703 0.0
H610 H 0.6649 0.35175 0.97464 0.0
S611 S 0.54676 0.45115 0.05702 0.0
N612 N 0.53193 0.41113 0.02446 0.0
N613 N 0.59355 0.44938 0.05484 0.0
C614 C 0.59894 0.41505 0.02661 0.0
C615 C 0.56555 0.39432 1.0099 0.0
C616 C 0.29747 1.01603 0.79797 0.0
C617 C 0.27157 0.02928 0.75213 0.0
C618 C 0.29856 0.03209 0.85964 0.0
C619 C 0.27428 0.06226 0.87688 0.0
H620 H 0.31467 0.99128 0.78799 0.0
H621 H 0.31688 1.01929 0.8954 0.0
S622 S 0.20577 0.1108 0.77029 0.0
N623 N 0.22422 0.07694 0.7253 0.0
N624 N 0.22704 0.10746 0.84083 0.0
C625 C 0.25102 0.07807 0.82948 0.0
C626 C 0.24942 0.06138 0.76713 0.0
C627 C 1.0173 0.74338 0.23797 0.0
C628 C 0.03022 0.77001 0.28284 0.0
C629 C 0.03328 0.74178 0.17632 0.0
C630 C 0.06306 0.76629 0.1581 0.0
H631 H 0.9929 0.72583 0.24874 0.0
H632 H 0.02077 0.72275 0.14136 0.0
S633 S 0.11054 0.83697 0.26194 0.0
N634 N 0.07712 0.81845 0.30781 0.0
N635 N 0.10741 0.81486 0.19217 0.0
C636 C 0.07845 0.79051 0.20451 0.0
C637 C 0.06186 0.79258 0.26689 0.0
C638 C 0.79163 0.96287 0.82975 0.0
C639 C 0.76697 0.97704 0.87666 0.0
C640 C 0.79266 0.97919 0.76834 0.0
C641 C 0.76863 1.00967 0.7517 0.0
H642 H 0.81235 0.94137 0.84208 0.0
H643 H 0.81401 0.96938 0.73477 0.0
S644 S 0.69472 0.05252 0.85448 0.0
N645 N 0.71488 0.02008 0.90047 0.0
N646 N 0.71649 0.05005 0.78435 0.0
C647 C 0.74136 0.02147 0.79611 0.0
C648 C 0.74068 1.00533 0.85893 0.0
C649 C 1.00757 0.29519 0.17582 0.0
C650 C 0.97738 0.27109 0.15799 0.0
C651 C 0.02328 0.29397 0.23772 0.0
C652 C 1.00966 0.2681 0.28321 0.0
H653 H 0.02058 0.31359 0.14044 0.0
H654 H 0.04801 0.31113 0.24828 0.0
S655 S 0.92796 0.20269 0.26343 0.0
N656 N 0.93179 0.22394 0.193 0.0
N657 N 0.96166 0.22096 0.30914 0.0
C658 C 0.9776 0.24604 0.26759 0.0
C659 C 0.96126 0.24776 0.20495 0.0
C660 C 0.74455 1.01371 0.29801 0.0
C661 C 0.76709 0.0303 0.25037 0.0
C662 C 0.74429 0.02852 0.36049 0.0
C663 C 0.76619 0.06061 0.37694 0.0
H664 H 0.72961 0.98746 0.28844 0.0
H665 H 0.72847 1.01349 0.39711 0.0
S666 S 0.82586 0.11706 0.26638 0.0
N667 N 0.80883 0.08242 0.22139 0.0
N668 N 0.80769 0.11064 0.33871 0.0
C669 C 0.78609 0.07935 0.32819 0.0
C670 C 0.78677 0.06398 0.26485 0.0
C671 C 0.07765 0.25092 0.70469 0.0
C672 C 0.06129 0.27395 0.65733 0.0
C673 C 0.06193 0.24928 0.76653 0.0
C674 C 0.02996 0.27122 0.7832 0.0
H675 H 0.10061 0.23181 0.69252 0.0
H676 H 0.07354 0.2291 0.80054 0.0
S677 S 0.98038 0.3401 0.67895 0.0
N678 N 1.01403 0.32215 0.63289 0.0
N679 N 0.98518 0.31945 0.74971 0.0
C680 C 1.01562 0.29686 0.7381 0.0
C681 C 0.03113 0.29809 0.67488 0.0
C682 C 0.25135 0.96201 0.33059 0.0
C683 C 0.27437 0.97859 0.37782 0.0
C684 C 0.24964 0.97749 0.2686 0.0
C685 C 0.2715 1.00943 0.25166 0.0
H686 H 0.2324 0.93895 0.34291 0.0
H687 H 0.22955 0.96565 0.23462 0.0
S688 S 0.3401 0.05978 0.35552 0.0
N689 N 0.32237 0.02616 0.40187 0.0
N690 N 0.31943 0.05464 0.28479 0.0
C691 C 0.29701 0.02412 0.29669 0.0
C692 C 0.29834 1.00882 0.36005 0.0
C693 C 0.97754 0.78791 0.76682 0.0
C694 C 1.00981 0.76627 0.78307 0.0
C695 C 0.96201 0.78679 0.70478 0.0
C696 C 0.97885 0.7646 0.65682 0.0
H697 H 0.96556 0.80753 0.80135 0.0
H698 H 0.93878 0.80568 0.69305 0.0
S699 S 0.06057 0.69925 0.67715 0.0
N700 N 0.05535 0.71906 0.7485 0.0
N701 N 0.02678 0.71726 0.63133 0.0
C702 C 1.00928 0.74064 0.67389 0.0
C703 C 0.02463 0.74136 0.7373 0.0
C704 C 0.79372 0.52671 0.36514 0.0
C705 C 0.77246 0.55938 0.38082 0.0
C706 C 0.79315 0.51131 0.30302 0.0
C707 C 0.77089 0.52782 0.25485 0.0
H708 H 0.8094 0.51177 0.40209 0.0
H709 H 0.80784 0.48486 0.29408 0.0
S710 S 0.714 0.61598 0.26845 0.0
N711 N 0.73203 0.60987 0.34102 0.0
N712 N 0.73012 0.58046 0.22454 0.0
C713 C 0.75174 0.56193 0.26855 0.0
C714 C 0.75283 0.57794 0.3315 0.0
C715 C 0.5317 0.23962 0.67514 0.0
C716 C 0.56315 0.26252 0.65914 0.0
C717 C 0.51547 0.24083 0.73655 0.0
C718 C 0.52999 0.26535 0.78337 0.0
H719 H 0.51803 0.22248 0.63862 0.0
H720 H 0.48968 0.225 0.7456 0.0
S721 S 0.615 0.32681 0.76884 0.0
N722 N 0.61079 0.30675 0.69745 0.0
N723 N 0.58004 0.30955 0.81279 0.0
C724 C 0.56333 0.28584 0.76977 0.0
C725 C 0.58011 0.28421 0.70757 0.0
C726 C 0.24524 0.52537 0.30034 0.0
C727 C 0.26767 0.50861 0.25271 0.0
C728 C 0.24481 0.51055 0.36283 0.0
C729 C 0.26646 0.47829 0.37938 0.0
H730 H 0.23045 0.55169 0.29072 0.0
H731 H 0.22901 0.52568 0.39936 0.0
S732 S 0.32573 0.4214 0.26883 0.0
N733 N 0.30902 0.45618 0.22383 0.0
N734 N 0.3076 0.42796 0.34115 0.0
C735 C 0.28628 0.45944 0.33063 0.0
C736 C 0.28712 0.47481 0.26727 0.0
C737 C 0.46338 0.74967 0.70605 0.0
C738 C 0.47843 0.7739 0.65925 0.0
C739 C 0.4796 0.74799 0.76749 0.0
C740 C 0.51081 0.77101 0.78428 0.0
H741 H 0.44117 0.72973 0.6936 0.0
H742 H 0.46904 0.727 0.80099 0.0
S743 S 0.55637 0.84341 0.68176 0.0
N744 N 0.5233 0.82441 0.63557 0.0
N745 N 0.55305 0.82173 0.75188 0.0
C746 C 0.52363 0.79786 0.73994 0.0
C747 C 0.50761 0.79913 0.67704 0.0
C748 C 0.29002 0.57613 0.83115 0.0
C749 C 0.26626 0.56146 0.87894 0.0
C750 C 0.29045 0.55991 0.76968 0.0
C751 C 0.26675 0.52899 0.75397 0.0
H752 H 0.31059 0.5979 0.84277 0.0
H753 H 0.31125 0.57001 0.7354 0.0
S754 S 0.19471 0.48508 0.85918 0.0
N755 N 0.21488 0.51788 0.90443 0.0
N756 N 0.21565 0.4878 0.78835 0.0
C757 C 0.2402 0.51678 0.79925 0.0
C758 C 0.24002 0.53294 0.86205 0.0
C759 C 0.53107 0.79474 0.17787 0.0
C760 C 0.56148 0.77106 0.15962 0.0
C761 C 0.51544 0.79296 0.23974 0.0
C762 C 0.52928 0.76687 0.28474 0.0
H763 H 0.51798 0.81338 0.14292 0.0
H764 H 0.4907 0.80999 0.25072 0.0
S765 S 0.61098 0.70167 0.26332 0.0
N766 N 0.60707 0.72357 0.19347 0.0
N767 N 0.57729 0.71949 0.30945 0.0
C768 C 0.56127 0.7449 0.26852 0.0
C769 C 0.57757 0.74723 0.20597 0.0
C770 C 0.79863 0.50886 0.86427 0.0
C771 C 0.77543 0.47755 0.8799 0.0
C772 C 0.79818 0.52487 0.80263 0.0
C773 C 0.7742 0.51026 0.75509 0.0
H774 H 0.81549 0.52255 0.90114 0.0
H775 H 0.81418 0.55058 0.79387 0.0
S776 S 0.71194 0.42578 0.76874 0.0
N777 N 0.73128 0.4301 0.84071 0.0
N778 N 0.72993 0.46043 0.72495 0.0
C779 C 0.75333 0.47712 0.7685 0.0
C780 C 0.75414 0.46058 0.83097 0.0
C781 C 0.49301 0.25145 0.26224 0.0
C782 C 0.5194 0.28004 0.27766 0.0
C783 C 0.47478 0.25103 0.20175 0.0
C784 C 0.48235 0.27939 0.15593 0.0
H785 H 0.48611 0.22976 0.29713 0.0
H786 H 0.45574 0.22794 0.19008 0.0
S787 S 0.5494 0.35975 0.1724 0.0
N788 N 0.55271 0.33655 0.24089 0.0
N789 N 0.51757 0.33642 0.12987 0.0
C790 C 0.50829 0.30808 0.17137 0.0
C791 C 0.52714 0.30816 0.23144 0.0
C792 C 0.40037 0.18235 0.0646 0.0
C793 C 0.412 0.18251 0.99984 0.0
C794 C 0.37371 0.15596 0.08755 0.0
C795 C 0.35825 0.12802 0.04708 0.0
H796 H 0.40974 0.20462 0.09671 0.0
H797 H 0.36335 0.15892 0.13629 0.0
S798 S 0.38129 0.11453 0.87461 0.0
N799 N 0.40722 0.15143 0.8963 0.0
N800 N 0.35846 0.10073 0.93985 0.0
C801 C 0.37176 0.12614 0.9834 0.0
C802 C 0.39824 0.15369 0.95962 0.0
C803 C 0.18519 0.63997 0.9726 0.0
C804 C 0.18504 0.6283 0.03736 0.0
C805 C 0.15887 0.66658 0.94924 0.0
C806 C 0.13065 0.68187 0.98925 0.0
H807 H 0.20754 0.63054 0.94072 0.0
H808 H 0.16199 0.67691 0.90051 0.0
S809 S 0.11626 0.65864 0.16145 0.0
N810 N 0.15339 0.63287 0.14038 0.0
N811 N 0.10276 0.68151 0.09602 0.0
C812 C 0.12849 0.66836 0.05292 0.0
C813 C 0.156 0.64196 0.07715 0.0
C814 C 0.66643 0.8839 0.08506 0.0
C815 C 0.68278 0.91081 0.04372 0.0
C816 C 0.6397 0.85748 0.06245 0.0
C817 C 0.62904 0.85623 0.99722 0.0
H818 H 0.67613 0.88175 0.13435 0.0
H819 H 0.62951 0.83603 0.09539 0.0
S820 S 0.66215 0.92145 0.86977 0.0
N821 N 0.68436 0.93612 0.93517 0.0
N822 N 0.63549 0.88528 0.89229 0.0
C823 C 0.64368 0.88406 0.95603 0.0
C824 C 0.67016 0.91168 0.97943 0.0
C825 C 0.85716 0.39909 0.97524 0.0
C826 C 0.85633 0.40905 0.04082 0.0
C827 C 0.88358 0.3728 0.95124 0.0
C828 C 0.911 0.35619 0.99142 0.0
H829 H 0.8355 0.40962 0.94296 0.0
H830 H 0.88113 0.36374 0.90167 0.0
S831 S 0.92288 0.37491 0.1658 0.0
N832 N 0.88629 0.40152 0.1449 0.0
N833 N 0.93721 0.35361 0.09941 0.0
C834 C 0.91226 0.36805 0.05612 0.0
C835 C 0.88459 0.39405 0.08096 0.0
C836 C 0.68438 0.14077 0.47069 0.0
C837 C 0.68353 0.12856 0.53517 0.0
C838 C 0.65822 0.16744 0.44702 0.0
C839 C 0.62944 0.18229 0.48633 0.0
H840 H 0.70717 0.1318 0.43937 0.0
H841 H 0.66201 0.17828 0.39874 0.0
S842 S 0.61287 0.1573 0.65729 0.0
N843 N 0.65045 0.13197 0.63701 0.0
N844 N 0.60008 0.18066 0.59195 0.0
C845 C 0.62647 0.16809 0.54951 0.0
C846 C 0.65383 0.14164 0.57413 0.0
C847 C 0.15694 0.37181 0.44878 0.0
C848 C 0.1285 0.35658 0.48837 0.0
C849 C 0.18335 0.39816 0.47261 0.0
C850 C 0.18301 0.40964 0.53745 0.0
H851 H 0.16028 0.36148 0.40009 0.0
H852 H 0.20591 0.40746 0.44108 0.0
S853 S 0.11331 0.37979 0.6604 0.0
N854 N 0.10001 0.35707 0.5947 0.0
N855 N 0.15076 0.40529 0.63998 0.0
C856 C 0.15363 0.39623 0.57676 0.0
C857 C 0.12606 0.37007 0.55204 0.0
C858 C 0.38263 0.87113 0.44942 0.0
C859 C 0.41092 0.85595 0.4895 0.0
C860 C 0.35613 0.89752 0.47275 0.0
C861 C 0.35618 0.90911 0.53755 0.0
H862 H 0.3795 0.86074 0.40072 0.0
H863 H 0.33373 0.9068 0.4408 0.0
S864 S 0.42533 0.87936 0.66168 0.0
N865 N 0.43891 0.85656 0.59628 0.0
N866 N 0.388 0.90486 0.64058 0.0
C867 C 0.38539 0.89572 0.57736 0.0
C868 C 0.41306 0.86952 0.55316 0.0
C869 C 0.88239 0.66714 0.4491 0.0
C870 C 0.9111 0.68217 0.48851 0.0
C871 C 0.85615 0.64062 0.47287 0.0
C872 C 0.8569 0.62872 0.53749 0.0
H873 H 0.87872 0.67777 0.40065 0.0
H874 H 0.83337 0.63154 0.44152 0.0
S875 S 0.92738 0.65796 0.65988 0.0
N876 N 0.94025 0.68107 0.59438 0.0
N877 N 0.88983 0.63253 0.63958 0.0
C878 C 0.88655 0.64194 0.57656 0.0
C879 C 0.91395 0.66828 0.55188 0.0
loop_
_geom_bond_atom_site_label_1
_geom_bond_atom_site_label_2
_geom_bond_distance
_geom_bond_site_symmetry_2
_ccdc_geom_bond_type
Fe0 O2 1.918 . S
Fe0 O5 1.997 . S
Fe0 O6 1.984 1_545 S
Fe0 O11 1.976 . S
Fe0 O14 1.996 . S
Fe1 O2 1.918 . S
Fe1 O9 1.997 1_545 S
Fe1 O12 1.996 . S
Fe1 O16 1.976 . S
Fe1 O19 2.002 1_554 S
O2 Fe0 1.918 . S
O2 Fe1 1.918 . S
O2 Fe3 1.918 . S
Fe3 O2 1.918 . S
Fe3 O4 2.002 1_554 S
Fe3 O13 1.976 . S
Fe3 O17 1.996 . S
Fe3 O20 1.997 1_554 S
O4 Fe3 2.002 1_556 S
O4 C21 1.295 1_556 S
O5 Fe0 1.997 . S
O5 C21 1.235 . S
O6 Fe0 1.984 1_565 S
O6 C7 1.307 . S
C7 O6 1.307 . S
C7 O9 1.235 . S
C8 O13 1.287 . S
C8 O14 1.255 . S
O9 Fe1 1.997 1_565 S
O9 C7 1.235 . S
C10 O16 1.287 . S
C10 O17 1.255 . S
O11 Fe0 1.976 . S
O11 C18 1.287 . S
O12 Fe1 1.996 . S
O12 C18 1.255 . S
O13 Fe3 1.976 . S
O13 C8 1.287 . S
O14 Fe0 1.996 . S
O14 C8 1.255 . S
C15 O19 1.295 . S
C15 O20 1.235 . S
O16 Fe1 1.976 . S
O16 C10 1.287 . S
O17 Fe3 1.996 . S
O17 C10 1.255 . S
C18 O11 1.287 . S
C18 O12 1.255 . S
O19 Fe1 2.002 1_556 S
O19 C15 1.295 . S
O20 Fe3 1.997 1_556 S
O20 C15 1.235 . S
C21 O4 1.295 1_554 S
C21 O5 1.235 . S
Fe22 O24 1.918 . S
Fe22 O27 1.997 1_455 S
Fe22 O28 2.002 1_556 S
Fe22 O33 1.976 . S
Fe22 O36 1.996 . S
Fe23 O24 1.918 . S
Fe23 O31 1.997 1_556 S
Fe23 O34 1.996 . S
Fe23 O38 1.976 . S
Fe23 O41 2.002 1_556 S
O24 Fe22 1.918 . S
O24 Fe23 1.918 . S
O24 Fe25 1.918 . S
Fe25 O24 1.918 . S
Fe25 O26 1.984 1_455 S
Fe25 O35 1.976 . S
Fe25 O39 1.996 . S
Fe25 O42 1.997 . S
O26 Fe25 1.984 1_655 S
O26 C43 1.307 . S
O27 Fe22 1.997 1_655 S
O27 C43 1.235 . S
O28 Fe22 2.002 1_554 S
O28 C29 1.295 . S
C29 O28 1.295 . S
C29 O31 1.235 . S
C30 O35 1.287 . S
C30 O36 1.255 . S
O31 Fe23 1.997 1_554 S
O31 C29 1.235 . S
C32 O38 1.287 . S
C32 O39 1.255 . S
O33 Fe22 1.976 . S
O33 C40 1.287 . S
O34 Fe23 1.996 . S
O34 C40 1.255 . S
O35 Fe25 1.976 . S
O35 C30 1.287 . S
O36 Fe22 1.996 . S
O36 C30 1.255 . S
C37 O41 1.295 1_556 S
C37 O42 1.235 . S
O38 Fe23 1.976 . S
O38 C32 1.287 . S
O39 Fe25 1.996 . S
O39 C32 1.255 . S
C40 O33 1.287 . S
C40 O34 1.255 . S
O41 Fe23 2.002 1_554 S
O41 C37 1.295 1_554 S
O42 Fe25 1.997 . S
O42 C37 1.235 . S
C43 O26 1.307 . S
C43 O27 1.235 . S
Fe44 O46 1.918 . S
Fe44 O49 1.997 1_554 S
Fe44 O50 2.002 1_554 S
Fe44 O55 1.976 . S
Fe44 O58 1.996 . S
Fe45 O46 1.918 . S
Fe45 O53 1.997 . S
Fe45 O56 1.996 . S
Fe45 O60 1.976 . S
Fe45 O63 1.984 1_565 S
O46 Fe44 1.918 . S
O46 Fe45 1.918 . S
O46 Fe47 1.918 . S
Fe47 O46 1.918 . S
Fe47 O48 2.002 1_554 S
Fe47 O57 1.976 . S
Fe47 O61 1.996 . S
Fe47 O64 1.997 1_565 S
O48 Fe47 2.002 1_556 S
O48 C65 1.295 . S
O49 Fe44 1.997 1_556 S
O49 C65 1.235 . S
O50 Fe44 2.002 1_556 S
O50 C51 1.295 1_556 S
C51 O50 1.295 1_554 S
C51 O53 1.235 . S
C52 O57 1.287 . S
C52 O58 1.255 . S
O53 Fe45 1.997 . S
O53 C51 1.235 . S
C54 O60 1.287 . S
C54 O61 1.255 . S
O55 Fe44 1.976 . S
O55 C62 1.287 . S
O56 Fe45 1.996 . S
O56 C62 1.255 . S
O57 Fe47 1.976 . S
O57 C52 1.287 . S
O58 Fe44 1.996 . S
O58 C52 1.255 . S
C59 O63 1.307 . S
C59 O64 1.235 . S
O60 Fe45 1.976 . S
O60 C54 1.287 . S
O61 Fe47 1.996 . S
O61 C54 1.255 . S
C62 O55 1.287 . S
C62 O56 1.255 . S
O63 Fe45 1.984 1_545 S
O63 C59 1.307 . S
O64 Fe47 1.997 1_545 S
O64 C59 1.235 . S
C65 O48 1.295 . S
C65 O49 1.235 . S
Fe66 O68 1.918 . S
Fe66 O71 1.997 . S
Fe66 O72 1.984 1_655 S
Fe66 O77 1.976 . S
Fe66 O80 1.996 . S
Fe67 O68 1.918 . S
Fe67 O75 1.997 1_655 S
Fe67 O78 1.996 . S
Fe67 O82 1.976 . S
Fe67 O85 2.002 1_556 S
O68 Fe66 1.918 . S
O68 Fe67 1.918 . S
O68 Fe69 1.918 . S
Fe69 O68 1.918 . S
Fe69 O70 2.002 1_556 S
Fe69 O79 1.976 . S
Fe69 O83 1.996 . S
Fe69 O86 1.997 1_556 S
O70 Fe69 2.002 1_554 S
O70 C87 1.295 1_554 S
O71 Fe66 1.997 . S
O71 C87 1.235 . S
O72 Fe66 1.984 1_455 S
O72 C73 1.307 . S
C73 O72 1.307 . S
C73 O75 1.235 . S
C74 O79 1.287 . S
C74 O80 1.255 . S
O75 Fe67 1.997 1_455 S
O75 C73 1.235 . S
C76 O82 1.287 . S
C76 O83 1.255 . S
O77 Fe66 1.976 . S
O77 C84 1.287 . S
O78 Fe67 1.996 . S
O78 C84 1.255 . S
O79 Fe69 1.976 . S
O79 C74 1.287 . S
O80 Fe66 1.996 . S
O80 C74 1.255 . S
C81 O85 1.295 . S
C81 O86 1.235 . S
O82 Fe67 1.976 . S
O82 C76 1.287 . S
O83 Fe69 1.996 . S
O83 C76 1.255 . S
C84 O77 1.287 . S
C84 O78 1.255 . S
O85 Fe67 2.002 1_554 S
O85 C81 1.295 . S
O86 Fe69 1.997 1_554 S
O86 C81 1.235 . S
C87 O70 1.295 1_556 S
C87 O71 1.235 . S
Fe88 O90 1.918 . S
Fe88 O93 1.997 . S
Fe88 O94 1.984 1_545 S
Fe88 O99 1.976 . S
Fe88 O102 1.996 . S
Fe89 O90 1.918 . S
Fe89 O97 1.997 1_545 S
Fe89 O100 1.996 . S
Fe89 O104 1.976 . S
Fe89 O107 2.002 . S
O90 Fe88 1.918 . S
O90 Fe89 1.918 . S
O90 Fe91 1.918 . S
Fe91 O90 1.918 . S
Fe91 O92 2.002 . S
Fe91 O101 1.976 . S
Fe91 O105 1.996 . S
Fe91 O108 1.997 . S
O92 Fe91 2.002 . S
O92 C109 1.295 . S
O93 Fe88 1.997 . S
O93 C109 1.235 . S
O94 Fe88 1.984 1_565 S
O94 C95 1.307 . S
C95 O94 1.307 . S
C95 O97 1.235 . S
C96 O101 1.287 . S
C96 O102 1.255 . S
O97 Fe89 1.997 1_565 S
O97 C95 1.235 . S
C98 O104 1.287 . S
C98 O105 1.255 . S
O99 Fe88 1.976 . S
O99 C106 1.287 . S
O100 Fe89 1.996 . S
O100 C106 1.255 . S
O101 Fe91 1.976 . S
O101 C96 1.287 . S
O102 Fe88 1.996 . S
O102 C96 1.255 . S
C103 O107 1.295 . S
C103 O108 1.235 . S
O104 Fe89 1.976 . S
O104 C98 1.287 . S
O105 Fe91 1.996 . S
O105 C98 1.255 . S
C106 O99 1.287 . S
C106 O100 1.255 . S
O107 Fe89 2.002 . S
O107 C103 1.295 . S
O108 Fe91 1.997 . S
O108 C103 1.235 . S
C109 O92 1.295 . S
C109 O93 1.235 . S
Fe110 O112 1.918 . S
Fe110 O115 1.997 . S
Fe110 O116 1.984 1_455 S
Fe110 O121 1.976 . S
Fe110 O124 1.996 . S
Fe111 O112 1.918 . S
Fe111 O119 1.997 1_455 S
Fe111 O122 1.996 . S
Fe111 O126 1.976 . S
Fe111 O129 2.002 . S
O112 Fe110 1.918 . S
O112 Fe111 1.918 . S
O112 Fe113 1.918 . S
Fe113 O112 1.918 . S
Fe113 O114 2.002 . S
Fe113 O123 1.976 . S
Fe113 O127 1.996 . S
Fe113 O130 1.997 . S
O114 Fe113 2.002 . S
O114 C131 1.295 . S
O115 Fe110 1.997 . S
O115 C131 1.235 . S
O116 Fe110 1.984 1_655 S
O116 C117 1.307 . S
C117 O116 1.307 . S
C117 O119 1.235 . S
C118 O123 1.287 . S
C118 O124 1.255 . S
O119 Fe111 1.997 1_655 S
O119 C117 1.235 . S
C120 O126 1.287 . S
C120 O127 1.255 . S
O121 Fe110 1.976 . S
O121 C128 1.287 . S
O122 Fe111 1.996 . S
O122 C128 1.255 . S
O123 Fe113 1.976 . S
O123 C118 1.287 . S
O124 Fe110 1.996 . S
O124 C118 1.255 . S
C125 O129 1.295 . S
C125 O130 1.235 . S
O126 Fe111 1.976 . S
O126 C120 1.287 . S
O127 Fe113 1.996 . S
O127 C120 1.255 . S
C128 O121 1.287 . S
C128 O122 1.255 . S
O129 Fe111 2.002 . S
O129 C125 1.295 . S
O130 Fe113 1.997 . S
O130 C125 1.235 . S
C131 O114 1.295 . S
C131 O115 1.235 . S
Fe132 O134 1.918 . S
Fe132 O137 1.997 . S
Fe132 O138 1.984 1_565 S
Fe132 O143 1.976 . S
Fe132 O146 1.996 . S
Fe133 O134 1.918 . S
Fe133 O141 1.997 1_565 S
Fe133 O144 1.996 . S
Fe133 O148 1.976 . S
Fe133 O151 2.002 . S
O134 Fe132 1.918 . S
O134 Fe133 1.918 . S
O134 Fe135 1.918 . S
Fe135 O134 1.918 . S
Fe135 O136 2.002 . S
Fe135 O145 1.976 . S
Fe135 O149 1.996 . S
Fe135 O152 1.997 . S
O136 Fe135 2.002 . S
O136 C153 1.295 . S
O137 Fe132 1.997 . S
O137 C153 1.235 . S
O138 Fe132 1.984 1_545 S
O138 C139 1.307 . S
C139 O138 1.307 . S
C139 O141 1.235 . S
C140 O145 1.287 . S
C140 O146 1.255 . S
O141 Fe133 1.997 1_545 S
O141 C139 1.235 . S
C142 O148 1.287 . S
C142 O149 1.255 . S
O143 Fe132 1.976 . S
O143 C150 1.287 . S
O144 Fe133 1.996 . S
O144 C150 1.255 . S
O145 Fe135 1.976 . S
O145 C140 1.287 . S
O146 Fe132 1.996 . S
O146 C140 1.255 . S
C147 O151 1.295 . S
C147 O152 1.235 . S
O148 Fe133 1.976 . S
O148 C142 1.287 . S
O149 Fe135 1.996 . S
O149 C142 1.255 . S
C150 O143 1.287 . S
C150 O144 1.255 . S
O151 Fe133 2.002 . S
O151 C147 1.295 . S
O152 Fe135 1.997 . S
O152 C147 1.235 . S
C153 O136 1.295 . S
C153 O137 1.235 . S
Fe154 O156 1.918 . S
Fe154 O159 1.997 . S
Fe154 O160 1.984 1_655 S
Fe154 O165 1.976 . S
Fe154 O168 1.996 . S
Fe155 O156 1.918 . S
Fe155 O163 1.997 1_655 S
Fe155 O166 1.996 . S
Fe155 O170 1.976 . S
Fe155 O173 2.002 . S
O156 Fe154 1.918 . S
O156 Fe155 1.918 . S
O156 Fe157 1.918 . S
Fe157 O156 1.918 . S
Fe157 O158 2.002 . S
Fe157 O167 1.976 . S
Fe157 O171 1.996 . S
Fe157 O174 1.997 . S
O158 Fe157 2.002 . S
O158 C175 1.295 . S
O159 Fe154 1.997 . S
O159 C175 1.235 . S
O160 Fe154 1.984 1_455 S
O160 C161 1.307 . S
C161 O160 1.307 . S
C161 O163 1.235 . S
C162 O167 1.287 . S
C162 O168 1.255 . S
O163 Fe155 1.997 1_455 S
O163 C161 1.235 . S
C164 O170 1.287 . S
C164 O171 1.255 . S
O165 Fe154 1.976 . S
O165 C172 1.287 . S
O166 Fe155 1.996 . S
O166 C172 1.255 . S
O167 Fe157 1.976 . S
O167 C162 1.287 . S
O168 Fe154 1.996 . S
O168 C162 1.255 . S
C169 O173 1.295 . S
C169 O174 1.235 . S
O170 Fe155 1.976 . S
O170 C164 1.287 . S
O171 Fe157 1.996 . S
O171 C164 1.255 . S
C172 O165 1.287 . S
C172 O166 1.255 . S
O173 Fe155 2.002 . S
O173 C169 1.295 . S
O174 Fe157 1.997 . S
O174 C169 1.235 . S
C175 O158 1.295 . S
C175 O159 1.235 . S
Fe176 O178 1.918 . S
Fe176 O181 1.997 . S
Fe176 O182 2.002 . S
Fe176 O187 1.976 . S
Fe176 O190 1.996 . S
Fe177 O178 1.918 . S
Fe177 O185 1.997 . S
Fe177 O188 1.996 . S
Fe177 O192 1.976 . S
Fe177 O195 2.002 . S
O178 Fe176 1.918 . S
O178 Fe177 1.918 . S
O178 Fe179 1.918 . S
Fe179 O178 1.918 . S
Fe179 O180 2.002 . S
Fe179 O189 1.976 . S
Fe179 O193 1.996 . S
Fe179 O196 1.997 . S
O180 Fe179 2.002 . S
O180 C197 1.295 . S
O181 Fe176 1.997 . S
O181 C197 1.235 . S
O182 Fe176 2.002 . S
O182 C183 1.295 . S
C183 O182 1.295 . S
C183 O185 1.235 . S
C184 O189 1.287 . S
C184 O190 1.255 . S
O185 Fe177 1.997 . S
O185 C183 1.235 . S
C186 O192 1.287 . S
C186 O193 1.255 . S
O187 Fe176 1.976 . S
O187 C194 1.287 . S
O188 Fe177 1.996 . S
O188 C194 1.255 . S
O189 Fe179 1.976 . S
O189 C184 1.287 . S
O190 Fe176 1.996 . S
O190 C184 1.255 . S
C191 O195 1.295 . S
C191 O196 1.235 . S
O192 Fe177 1.976 . S
O192 C186 1.287 . S
O193 Fe179 1.996 . S
O193 C186 1.255 . S
C194 O187 1.287 . S
C194 O188 1.255 . S
O195 Fe177 2.002 . S
O195 C191 1.295 . S
O196 Fe179 1.997 . S
O196 C191 1.235 . S
C197 O180 1.295 . S
C197 O181 1.235 . S
Fe198 O200 1.918 . S
Fe198 O203 1.997 . S
Fe198 O204 2.002 . S
Fe198 O209 1.976 . S
Fe198 O212 1.996 . S
Fe199 O200 1.918 . S
Fe199 O207 1.997 . S
Fe199 O210 1.996 . S
Fe199 O214 1.976 . S
Fe199 O217 2.002 . S
O200 Fe198 1.918 . S
O200 Fe199 1.918 . S
O200 Fe201 1.918 . S
Fe201 O200 1.918 . S
Fe201 O202 2.002 . S
Fe201 O211 1.976 . S
Fe201 O215 1.996 . S
Fe201 O218 1.997 . S
O202 Fe201 2.002 . S
O202 C219 1.295 . S
O203 Fe198 1.997 . S
O203 C219 1.235 . S
O204 Fe198 2.002 . S
O204 C205 1.295 . S
C205 O204 1.295 . S
C205 O207 1.235 . S
C206 O211 1.287 . S
C206 O212 1.255 . S
O207 Fe199 1.997 . S
O207 C205 1.235 . S
C208 O214 1.287 . S
C208 O215 1.255 . S
O209 Fe198 1.976 . S
O209 C216 1.287 . S
O210 Fe199 1.996 . S
O210 C216 1.255 . S
O211 Fe201 1.976 . S
O211 C206 1.287 . S
O212 Fe198 1.996 . S
O212 C206 1.255 . S
C213 O217 1.295 . S
C213 O218 1.235 . S
O214 Fe199 1.976 . S
O214 C208 1.287 . S
O215 Fe201 1.996 . S
O215 C208 1.255 . S
C216 O209 1.287 . S
C216 O210 1.255 . S
O217 Fe199 2.002 . S
O217 C213 1.295 . S
O218 Fe201 1.997 . S
O218 C213 1.235 . S
C219 O202 1.295 . S
C219 O203 1.235 . S
Fe220 O222 1.918 . S
Fe220 O225 1.997 . S
Fe220 O226 2.002 . S
Fe220 O231 1.976 . S
Fe220 O234 1.996 . S
Fe221 O222 1.918 . S
Fe221 O229 1.997 . S
Fe221 O232 1.996 . S
Fe221 O236 1.976 . S
Fe221 O239 2.002 . S
O222 Fe220 1.918 . S
O222 Fe221 1.918 . S
O222 Fe223 1.918 . S
Fe223 O222 1.918 . S
Fe223 O224 2.002 . S
Fe223 O233 1.976 . S
Fe223 O237 1.996 . S
Fe223 O240 1.997 . S
O224 Fe223 2.002 . S
O224 C241 1.295 . S
O225 Fe220 1.997 . S
O225 C241 1.235 . S
O226 Fe220 2.002 . S
O226 C227 1.295 . S
C227 O226 1.295 . S
C227 O229 1.235 . S
C228 O233 1.287 . S
C228 O234 1.255 . S
O229 Fe221 1.997 . S
O229 C227 1.235 . S
C230 O236 1.287 . S
C230 O237 1.255 . S
O231 Fe220 1.976 . S
O231 C238 1.287 . S
O232 Fe221 1.996 . S
O232 C238 1.255 . S
O233 Fe223 1.976 . S
O233 C228 1.287 . S
O234 Fe220 1.996 . S
O234 C228 1.255 . S
C235 O239 1.295 . S
C235 O240 1.235 . S
O236 Fe221 1.976 . S
O236 C230 1.287 . S
O237 Fe223 1.996 . S
O237 C230 1.255 . S
C238 O231 1.287 . S
C238 O232 1.255 . S
O239 Fe221 2.002 . S
O239 C235 1.295 . S
O240 Fe223 1.997 . S
O240 C235 1.235 . S
C241 O224 1.295 . S
C241 O225 1.235 . S
Fe242 O244 1.918 . S
Fe242 O247 1.997 . S
Fe242 O248 2.002 . S
Fe242 O253 1.976 . S
Fe242 O256 1.996 . S
Fe243 O244 1.918 . S
Fe243 O251 1.997 . S
Fe243 O254 1.996 . S
Fe243 O258 1.976 . S
Fe243 O261 2.002 . S
O244 Fe242 1.918 . S
O244 Fe243 1.918 . S
O244 Fe245 1.918 . S
Fe245 O244 1.918 . S
Fe245 O246 2.002 . S
Fe245 O255 1.976 . S
Fe245 O259 1.996 . S
Fe245 O262 1.997 . S
O246 Fe245 2.002 . S
O246 C263 1.295 . S
O247 Fe242 1.997 . S
O247 C263 1.235 . S
O248 Fe242 2.002 . S
O248 C249 1.295 . S
C249 O248 1.295 . S
C249 O251 1.235 . S
C250 O255 1.287 . S
C250 O256 1.255 . S
O251 Fe243 1.997 . S
O251 C249 1.235 . S
C252 O258 1.287 . S
C252 O259 1.255 . S
O253 Fe242 1.976 . S
O253 C260 1.287 . S
O254 Fe243 1.996 . S
O254 C260 1.255 . S
O255 Fe245 1.976 . S
O255 C250 1.287 . S
O256 Fe242 1.996 . S
O256 C250 1.255 . S
C257 O261 1.295 . S
C257 O262 1.235 . S
O258 Fe243 1.976 . S
O258 C252 1.287 . S
O259 Fe245 1.996 . S
O259 C252 1.255 . S
C260 O253 1.287 . S
C260 O254 1.255 . S
O261 Fe243 2.002 . S
O261 C257 1.295 . S
O262 Fe245 1.997 . S
O262 C257 1.235 . S
C263 O246 1.295 . S
C263 O247 1.235 . S
Fe264 O266 1.918 . S
Fe264 O269 1.997 . S
Fe264 O270 2.002 . S
Fe264 O275 1.976 . S
Fe264 O278 1.996 . S
Fe265 O266 1.918 . S
Fe265 O273 1.997 . S
Fe265 O276 1.996 . S
Fe265 O280 1.976 . S
Fe265 O283 2.002 1_554 S
O266 Fe264 1.918 . S
O266 Fe265 1.918 . S
O266 Fe267 1.918 . S
Fe267 O266 1.918 . S
Fe267 O268 2.002 1_554 S
Fe267 O277 1.976 . S
Fe267 O281 1.996 . S
Fe267 O284 1.997 1_554 S
O268 Fe267 2.002 1_556 S
O268 C285 1.295 1_556 S
O269 Fe264 1.997 . S
O269 C285 1.235 . S
O270 Fe264 2.002 . S
O270 C271 1.295 . S
C271 O270 1.295 . S
C271 O273 1.235 . S
C272 O277 1.287 . S
C272 O278 1.255 . S
O273 Fe265 1.997 . S
O273 C271 1.235 . S
C274 O280 1.287 . S
C274 O281 1.255 . S
O275 Fe264 1.976 . S
O275 C282 1.287 . S
O276 Fe265 1.996 . S
O276 C282 1.255 . S
O277 Fe267 1.976 . S
O277 C272 1.287 . S
O278 Fe264 1.996 . S
O278 C272 1.255 . S
C279 O283 1.295 . S
C279 O284 1.235 . S
O280 Fe265 1.976 . S
O280 C274 1.287 . S
O281 Fe267 1.996 . S
O281 C274 1.255 . S
C282 O275 1.287 . S
C282 O276 1.255 . S
O283 Fe265 2.002 1_556 S
O283 C279 1.295 . S
O284 Fe267 1.997 1_556 S
O284 C279 1.235 . S
C285 O268 1.295 1_554 S
C285 O269 1.235 . S
Fe286 O288 1.918 . S
Fe286 O291 1.997 . S
Fe286 O292 2.002 . S
Fe286 O297 1.976 . S
Fe286 O300 1.996 . S
Fe287 O288 1.918 . S
Fe287 O295 1.997 . S
Fe287 O298 1.996 . S
Fe287 O302 1.976 . S
Fe287 O305 2.002 1_556 S
O288 Fe286 1.918 . S
O288 Fe287 1.918 . S
O288 Fe289 1.918 . S
Fe289 O288 1.918 . S
Fe289 O290 2.002 1_556 S
Fe289 O299 1.976 . S
Fe289 O303 1.996 . S
Fe289 O306 1.997 1_556 S
O290 Fe289 2.002 1_554 S
O290 C307 1.295 1_554 S
O291 Fe286 1.997 . S
O291 C307 1.235 . S
O292 Fe286 2.002 . S
O292 C293 1.295 . S
C293 O292 1.295 . S
C293 O295 1.235 . S
C294 O299 1.287 . S
C294 O300 1.255 . S
O295 Fe287 1.997 . S
O295 C293 1.235 . S
C296 O302 1.287 . S
C296 O303 1.255 . S
O297 Fe286 1.976 . S
O297 C304 1.287 . S
O298 Fe287 1.996 . S
O298 C304 1.255 . S
O299 Fe289 1.976 . S
O299 C294 1.287 . S
O300 Fe286 1.996 . S
O300 C294 1.255 . S
C301 O305 1.295 . S
C301 O306 1.235 . S
O302 Fe287 1.976 . S
O302 C296 1.287 . S
O303 Fe289 1.996 . S
O303 C296 1.255 . S
C304 O297 1.287 . S
C304 O298 1.255 . S
O305 Fe287 2.002 1_554 S
O305 C301 1.295 . S
O306 Fe289 1.997 1_554 S
O306 C301 1.235 . S
C307 O290 1.295 1_556 S
C307 O291 1.235 . S
Fe308 O310 1.918 . S
Fe308 O313 1.997 . S
Fe308 O314 2.002 . S
Fe308 O319 1.976 . S
Fe308 O322 1.996 . S
Fe309 O310 1.918 . S
Fe309 O317 1.997 . S
Fe309 O320 1.996 . S
Fe309 O324 1.976 . S
Fe309 O327 2.002 1_554 S
O310 Fe308 1.918 . S
O310 Fe309 1.918 . S
O310 Fe311 1.918 . S
Fe311 O310 1.918 . S
Fe311 O312 2.002 1_554 S
Fe311 O321 1.976 . S
Fe311 O325 1.996 . S
Fe311 O328 1.997 1_554 S
O312 Fe311 2.002 1_556 S
O312 C329 1.295 1_556 S
O313 Fe308 1.997 . S
O313 C329 1.235 . S
O314 Fe308 2.002 . S
O314 C315 1.295 . S
C315 O314 1.295 . S
C315 O317 1.235 . S
C316 O321 1.287 . S
C316 O322 1.255 . S
O317 Fe309 1.997 . S
O317 C315 1.235 . S
C318 O324 1.287 . S
C318 O325 1.255 . S
O319 Fe308 1.976 . S
O319 C326 1.287 . S
O320 Fe309 1.996 . S
O320 C326 1.255 . S
O321 Fe311 1.976 . S
O321 C316 1.287 . S
O322 Fe308 1.996 . S
O322 C316 1.255 . S
C323 O327 1.295 . S
C323 O328 1.235 . S
O324 Fe309 1.976 . S
O324 C318 1.287 . S
O325 Fe311 1.996 . S
O325 C318 1.255 . S
C326 O319 1.287 . S
C326 O320 1.255 . S
O327 Fe309 2.002 1_556 S
O327 C323 1.295 . S
O328 Fe311 1.997 1_556 S
O328 C323 1.235 . S
C329 O312 1.295 1_554 S
C329 O313 1.235 . S
Fe330 O332 1.918 . S
Fe330 O335 1.997 . S
Fe330 O336 2.002 1_556 S
Fe330 O341 1.976 . S
Fe330 O344 1.996 . S
Fe331 O332 1.918 . S
Fe331 O339 1.997 1_556 S
Fe331 O342 1.996 . S
Fe331 O346 1.976 . S
Fe331 O349 2.002 1_556 S
O332 Fe330 1.918 . S
O332 Fe331 1.918 . S
O332 Fe333 1.918 . S
Fe333 O332 1.918 . S
Fe333 O334 2.002 . S
Fe333 O343 1.976 . S
Fe333 O347 1.996 . S
Fe333 O350 1.997 . S
O334 Fe333 2.002 . S
O334 C351 1.295 . S
O335 Fe330 1.997 . S
O335 C351 1.235 . S
O336 Fe330 2.002 1_554 S
O336 C337 1.295 . S
C337 O336 1.295 . S
C337 O339 1.235 . S
C338 O343 1.287 . S
C338 O344 1.255 . S
O339 Fe331 1.997 1_554 S
O339 C337 1.235 . S
C340 O346 1.287 . S
C340 O347 1.255 . S
O341 Fe330 1.976 . S
O341 C348 1.287 . S
O342 Fe331 1.996 . S
O342 C348 1.255 . S
O343 Fe333 1.976 . S
O343 C338 1.287 . S
O344 Fe330 1.996 . S
O344 C338 1.255 . S
C345 O349 1.295 1_556 S
C345 O350 1.235 . S
O346 Fe331 1.976 . S
O346 C340 1.287 . S
O347 Fe333 1.996 . S
O347 C340 1.255 . S
C348 O341 1.287 . S
C348 O342 1.255 . S
O349 Fe331 2.002 1_554 S
O349 C345 1.295 1_554 S
O350 Fe333 1.997 . S
O350 C345 1.235 . S
C351 O334 1.295 . S
C351 O335 1.235 . S
C352 C353 1.369 . S
C352 C354 1.419 . S
C352 H356 0.930 . S
C353 C352 1.369 . S
C353 C362 1.429 . S
C354 C352 1.419 . S
C354 C355 1.363 . S
C354 H357 0.929 . S
C355 C354 1.363 . S
C355 C361 1.428 . S
H356 C352 0.930 . S
H357 C354 0.929 . S
S358 N359 1.613 . S
S358 N360 1.610 . S
N359 S358 1.613 . S
N359 C362 1.350 . S
N360 S358 1.610 . S
N360 C361 1.351 . S
C361 C355 1.428 . S
C361 N360 1.351 . S
C361 C362 1.434 . S
C362 C353 1.429 . S
C362 N359 1.350 . S
C362 C361 1.434 . S
C363 C364 1.369 . S
C363 C365 1.419 . S
C363 H367 0.930 . S
C364 C363 1.369 . S
C364 C373 1.429 . S
C365 C363 1.419 . S
C365 C366 1.363 . S
C365 H368 0.929 . S
C366 C365 1.363 . S
C366 C372 1.428 . S
H367 C363 0.930 . S
H368 C365 0.929 . S
S369 N370 1.613 . S
S369 N371 1.610 . S
N370 S369 1.613 . S
N370 C373 1.350 . S
N371 S369 1.610 . S
N371 C372 1.351 . S
C372 C366 1.428 . S
C372 N371 1.351 . S
C372 C373 1.434 . S
C373 C364 1.429 . S
C373 N370 1.350 . S
C373 C372 1.434 . S
C374 C375 1.369 . S
C374 C376 1.419 . S
C374 H378 0.930 . S
C375 C374 1.369 . S
C375 C384 1.429 . S
C376 C374 1.419 . S
C376 C377 1.363 . S
C376 H379 0.929 . S
C377 C376 1.363 . S
C377 C383 1.428 . S
H378 C374 0.930 . S
H379 C376 0.929 . S
S380 N381 1.613 . S
S380 N382 1.610 . S
N381 S380 1.613 . S
N381 C384 1.350 . S
N382 S380 1.610 . S
N382 C383 1.351 . S
C383 C377 1.428 . S
C383 N382 1.351 . S
C383 C384 1.434 . S
C384 C375 1.429 . S
C384 N381 1.350 . S
C384 C383 1.434 . S
C385 C386 1.369 . S
C385 C387 1.419 . S
C385 H389 0.930 . S
C386 C385 1.369 . S
C386 C395 1.429 . S
C387 C385 1.419 . S
C387 C388 1.363 . S
C387 H390 0.929 . S
C388 C387 1.363 . S
C388 C394 1.428 . S
H389 C385 0.930 . S
H390 C387 0.929 . S
S391 N392 1.613 . S
S391 N393 1.610 . S
N392 S391 1.613 . S
N392 C395 1.350 . S
N393 S391 1.610 . S
N393 C394 1.351 . S
C394 C388 1.428 . S
C394 N393 1.351 . S
C394 C395 1.434 . S
C395 C386 1.429 . S
C395 N392 1.350 . S
C395 C394 1.434 . S
C396 C397 1.369 . S
C396 C398 1.419 . S
C396 H400 0.930 . S
C397 C396 1.369 . S
C397 C406 1.429 . S
C398 C396 1.419 . S
C398 C399 1.363 . S
C398 H401 0.929 . S
C399 C398 1.363 . S
C399 C405 1.428 . S
H400 C396 0.930 . S
H401 C398 0.929 . S
S402 N403 1.613 . S
S402 N404 1.610 . S
N403 S402 1.613 . S
N403 C406 1.350 . S
N404 S402 1.610 . S
N404 C405 1.351 . S
C405 C399 1.428 . S
C405 N404 1.351 . S
C405 C406 1.434 . S
C406 C397 1.429 . S
C406 N403 1.350 . S
C406 C405 1.434 . S
C407 C408 1.369 . S
C407 C409 1.419 . S
C407 H411 0.930 . S
C408 C407 1.369 . S
C408 C417 1.429 . S
C409 C407 1.419 . S
C409 C410 1.363 . S
C409 H412 0.929 . S
C410 C409 1.363 . S
C410 C416 1.428 . S
H411 C407 0.930 . S
H412 C409 0.929 . S
S413 N414 1.613 . S
S413 N415 1.610 . S
N414 S413 1.613 . S
N414 C417 1.350 . S
N415 S413 1.610 . S
N415 C416 1.351 . S
C416 C410 1.428 . S
C416 N415 1.351 . S
C416 C417 1.434 . S
C417 C408 1.429 . S
C417 N414 1.350 . S
C417 C416 1.434 . S
C418 C419 1.369 . S
C418 C420 1.419 . S
C418 H422 0.930 . S
C419 C418 1.369 . S
C419 C428 1.429 . S
C420 C418 1.419 . S
C420 C421 1.363 . S
C420 H423 0.929 . S
C421 C420 1.363 . S
C421 C427 1.428 . S
H422 C418 0.930 . S
H423 C420 0.929 . S
S424 N425 1.613 . S
S424 N426 1.610 . S
N425 S424 1.613 . S
N425 C428 1.350 . S
N426 S424 1.610 . S
N426 C427 1.351 . S
C427 C421 1.428 . S
C427 N426 1.351 . S
C427 C428 1.434 . S
C428 C419 1.429 . S
C428 N425 1.350 . S
C428 C427 1.434 . S
C429 C430 1.369 . S
C429 C431 1.419 . S
C429 H433 0.930 . S
C430 C429 1.369 . S
C430 C439 1.429 . S
C431 C429 1.419 . S
C431 C432 1.363 . S
C431 H434 0.929 . S
C432 C431 1.363 . S
C432 C438 1.428 . S
H433 C429 0.930 . S
H434 C431 0.929 . S
S435 N436 1.613 . S
S435 N437 1.610 . S
N436 S435 1.613 . S
N436 C439 1.350 . S
N437 S435 1.610 . S
N437 C438 1.351 . S
C438 C432 1.428 . S
C438 N437 1.351 . S
C438 C439 1.434 . S
C439 C430 1.429 . S
C439 N436 1.350 . S
C439 C438 1.434 . S
C440 C441 1.369 1_556 S
C440 C442 1.419 . S
C440 H444 0.930 . S
C441 C440 1.369 1_554 S
C441 C450 1.429 . S
C442 C440 1.419 . S
C442 C443 1.363 1_556 S
C442 H445 0.929 . S
C443 C442 1.363 1_554 S
C443 C449 1.428 . S
H444 C440 0.930 . S
H445 C442 0.929 . S
S446 N447 1.613 . S
S446 N448 1.610 . S
N447 S446 1.613 . S
N447 C450 1.350 . S
N448 S446 1.610 . S
N448 C449 1.351 . S
C449 C443 1.428 . S
C449 N448 1.351 . S
C449 C450 1.434 . S
C450 C441 1.429 . S
C450 N447 1.350 . S
C450 C449 1.434 . S
C451 C452 1.369 . S
C451 C453 1.419 . S
C451 H455 0.930 . S
C452 C451 1.369 . S
C452 C461 1.429 1_556 S
C453 C451 1.419 . S
C453 C454 1.363 . S
C453 H456 0.929 . S
C454 C453 1.363 . S
C454 C460 1.428 1_556 S
H455 C451 0.930 . S
H456 C453 0.929 . S
S457 N458 1.613 . S
S457 N459 1.610 . S
N458 S457 1.613 . S
N458 C461 1.350 . S
N459 S457 1.610 . S
N459 C460 1.351 . S
C460 C454 1.428 1_554 S
C460 N459 1.351 . S
C460 C461 1.434 . S
C461 C452 1.429 1_554 S
C461 N458 1.350 . S
C461 C460 1.434 . S
C462 C463 1.369 . S
C462 C464 1.419 . S
C462 H466 0.930 . S
C463 C462 1.369 . S
C463 C472 1.429 1_554 S
C464 C462 1.419 . S
C464 C465 1.363 . S
C464 H467 0.929 . S
C465 C464 1.363 . S
C465 C471 1.428 1_554 S
H466 C462 0.930 . S
H467 C464 0.929 . S
S468 N469 1.613 . S
S468 N470 1.610 . S
N469 S468 1.613 . S
N469 C472 1.350 . S
N470 S468 1.610 . S
N470 C471 1.351 . S
C471 C465 1.428 1_556 S
C471 N470 1.351 . S
C471 C472 1.434 . S
C472 C463 1.429 1_556 S
C472 N469 1.350 . S
C472 C471 1.434 . S
C473 C474 1.369 . S
C473 C475 1.419 . S
C473 H477 0.930 . S
C474 C473 1.369 . S
C474 C483 1.428 1_556 S
C475 C473 1.419 . S
C475 C476 1.363 . S
C475 H478 0.929 . S
C476 C475 1.363 . S
C476 C482 1.428 1_556 S
H477 C473 0.930 . S
H478 C475 0.929 . S
S479 N480 1.613 . S
S479 N481 1.610 . S
N480 S479 1.613 . S
N480 C483 1.350 . S
N481 S479 1.610 . S
N481 C482 1.351 . S
C482 C476 1.428 1_554 S
C482 N481 1.351 . S
C482 C483 1.434 . S
C483 C474 1.428 1_554 S
C483 N480 1.350 . S
C483 C482 1.434 . S
C484 C485 1.369 . S
C484 C486 1.419 . S
C484 H488 0.930 . S
C485 C484 1.369 . S
C485 C494 1.429 . S
C486 C484 1.419 . S
C486 C487 1.363 . S
C486 H489 0.929 . S
C487 C486 1.363 . S
C487 C493 1.428 . S
H488 C484 0.930 . S
H489 C486 0.929 . S
S490 N491 1.613 . S
S490 N492 1.610 . S
N491 S490 1.613 . S
N491 C494 1.350 . S
N492 S490 1.610 . S
N492 C493 1.351 . S
C493 C487 1.428 . S
C493 N492 1.351 . S
C493 C494 1.434 . S
C494 C485 1.429 . S
C494 N491 1.350 . S
C494 C493 1.434 . S
C495 C496 1.369 . S
C495 C497 1.419 . S
C495 H499 0.930 . S
C496 C495 1.369 . S
C496 C505 1.429 . S
C497 C495 1.419 . S
C497 C498 1.363 . S
C497 H500 0.929 . S
C498 C497 1.363 . S
C498 C504 1.428 . S
H499 C495 0.930 . S
H500 C497 0.929 . S
S501 N502 1.613 . S
S501 N503 1.610 . S
N502 S501 1.613 . S
N502 C505 1.350 . S
N503 S501 1.610 . S
N503 C504 1.351 . S
C504 C498 1.428 . S
C504 N503 1.351 . S
C504 C505 1.434 . S
C505 C496 1.429 . S
C505 N502 1.350 . S
C505 C504 1.434 . S
C506 C507 1.369 . S
C506 C508 1.419 . S
C506 H510 0.930 . S
C507 C506 1.369 . S
C507 C516 1.429 . S
C508 C506 1.419 . S
C508 C509 1.363 . S
C508 H511 0.929 . S
C509 C508 1.363 . S
C509 C515 1.428 . S
H510 C506 0.930 . S
H511 C508 0.929 . S
S512 N513 1.613 . S
S512 N514 1.610 . S
N513 S512 1.613 . S
N513 C516 1.350 . S
N514 S512 1.610 . S
N514 C515 1.351 . S
C515 C509 1.428 . S
C515 N514 1.351 . S
C515 C516 1.434 . S
C516 C507 1.429 . S
C516 N513 1.350 . S
C516 C515 1.434 . S
C517 C518 1.369 . S
C517 C519 1.419 . S
C517 H521 0.930 . S
C518 C517 1.369 . S
C518 C527 1.429 . S
C519 C517 1.419 . S
C519 C520 1.363 . S
C519 H522 0.929 . S
C520 C519 1.363 . S
C520 C526 1.428 . S
H521 C517 0.930 . S
H522 C519 0.929 . S
S523 N524 1.613 . S
S523 N525 1.610 . S
N524 S523 1.613 . S
N524 C527 1.350 . S
N525 S523 1.610 . S
N525 C526 1.351 . S
C526 C520 1.428 . S
C526 N525 1.351 . S
C526 C527 1.434 . S
C527 C518 1.429 . S
C527 N524 1.350 . S
C527 C526 1.434 . S
C528 C529 1.369 . S
C528 C530 1.419 . S
C528 H532 0.930 . S
C529 C528 1.369 . S
C529 C538 1.429 . S
C530 C528 1.419 . S
C530 C531 1.363 . S
C530 H533 0.929 . S
C531 C530 1.363 . S
C531 C537 1.428 . S
H532 C528 0.930 . S
H533 C530 0.929 . S
S534 N535 1.613 . S
S534 N536 1.610 . S
N535 S534 1.613 . S
N535 C538 1.350 . S
N536 S534 1.610 . S
N536 C537 1.351 . S
C537 C531 1.428 . S
C537 N536 1.351 . S
C537 C538 1.434 . S
C538 C529 1.429 . S
C538 N535 1.350 . S
C538 C537 1.434 . S
C539 C540 1.369 . S
C539 C541 1.419 . S
C539 H543 0.930 . S
C540 C539 1.369 . S
C540 C549 1.429 . S
C541 C539 1.419 . S
C541 C542 1.363 . S
C541 H544 0.929 . S
C542 C541 1.363 . S
C542 C548 1.428 . S
H543 C539 0.930 . S
H544 C541 0.929 . S
S545 N546 1.613 . S
S545 N547 1.610 . S
N546 S545 1.613 . S
N546 C549 1.350 . S
N547 S545 1.610 . S
N547 C548 1.351 . S
C548 C542 1.428 . S
C548 N547 1.351 . S
C548 C549 1.434 . S
C549 C540 1.429 . S
C549 N546 1.350 . S
C549 C548 1.434 . S
C550 C551 1.369 . S
C550 C552 1.419 . S
C550 H554 0.930 . S
C551 C550 1.369 . S
C551 C560 1.429 . S
C552 C550 1.419 . S
C552 C553 1.363 . S
C552 H555 0.929 . S
C553 C552 1.363 . S
C553 C559 1.428 . S
H554 C550 0.930 . S
H555 C552 0.929 . S
S556 N557 1.613 . S
S556 N558 1.610 . S
N557 S556 1.613 . S
N557 C560 1.350 . S
N558 S556 1.610 . S
N558 C559 1.351 . S
C559 C553 1.428 . S
C559 N558 1.351 . S
C559 C560 1.434 . S
C560 C551 1.429 . S
C560 N557 1.350 . S
C560 C559 1.434 . S
C561 C562 1.369 . S
C561 C563 1.419 . S
C561 H565 0.930 . S
C562 C561 1.369 . S
C562 C571 1.429 . S
C563 C561 1.419 . S
C563 C564 1.363 . S
C563 H566 0.929 . S
C564 C563 1.363 . S
C564 C570 1.428 . S
H565 C561 0.930 . S
H566 C563 0.929 . S
S567 N568 1.613 . S
S567 N569 1.610 . S
N568 S567 1.613 . S
N568 C571 1.350 . S
N569 S567 1.610 . S
N569 C570 1.351 . S
C570 C564 1.428 . S
C570 N569 1.351 . S
C570 C571 1.434 . S
C571 C562 1.429 . S
C571 N568 1.350 . S
C571 C570 1.434 . S
C572 C573 1.369 . S
C572 C574 1.419 . S
C572 H576 0.930 . S
C573 C572 1.369 . S
C573 C582 1.429 . S
C574 C572 1.419 . S
C574 C575 1.363 . S
C574 H577 0.929 . S
C575 C574 1.363 . S
C575 C581 1.428 . S
H576 C572 0.930 . S
H577 C574 0.929 . S
S578 N579 1.613 1_554 S
S578 N580 1.610 . S
N579 S578 1.613 1_556 S
N579 C582 1.350 1_556 S
N580 S578 1.610 . S
N580 C581 1.351 . S
C581 C575 1.428 . S
C581 N580 1.351 . S
C581 C582 1.434 . S
C582 C573 1.429 . S
C582 N579 1.350 1_554 S
C582 C581 1.434 . S
C583 C584 1.369 . S
C583 C585 1.419 . S
C583 H587 0.930 . S
C584 C583 1.369 . S
C584 C593 1.429 1_556 S
C585 C583 1.419 . S
C585 C586 1.363 . S
C585 H588 0.929 . S
C586 C585 1.363 . S
C586 C592 1.428 1_556 S
H587 C583 0.930 . S
H588 C585 0.929 . S
S589 N590 1.613 . S
S589 N591 1.610 . S
N590 S589 1.613 . S
N590 C593 1.350 . S
N591 S589 1.610 . S
N591 C592 1.351 . S
C592 C586 1.428 1_554 S
C592 N591 1.351 . S
C592 C593 1.434 . S
C593 C584 1.429 1_554 S
C593 N590 1.350 . S
C593 C592 1.434 . S
C594 C595 1.369 1_556 S
C594 C596 1.419 . S
C594 H598 0.930 . S
C595 C594 1.369 1_554 S
C595 C604 1.429 . S
C596 C594 1.419 . S
C596 C597 1.363 1_556 S
C596 H599 0.929 . S
C597 C596 1.363 1_554 S
C597 C603 1.428 . S
H598 C594 0.930 . S
H599 C596 0.929 . S
S600 N601 1.613 . S
S600 N602 1.610 . S
N601 S600 1.613 . S
N601 C604 1.350 . S
N602 S600 1.610 . S
N602 C603 1.351 . S
C603 C597 1.428 . S
C603 N602 1.351 . S
C603 C604 1.434 . S
C604 C595 1.429 . S
C604 N601 1.350 . S
C604 C603 1.434 . S
C605 C606 1.369 . S
C605 C607 1.419 . S
C605 H609 0.930 . S
C606 C605 1.369 . S
C606 C615 1.429 . S
C607 C605 1.419 . S
C607 C608 1.363 . S
C607 H610 0.929 . S
C608 C607 1.363 . S
C608 C614 1.428 1_556 S
H609 C605 0.930 . S
H610 C607 0.929 . S
S611 N612 1.613 . S
S611 N613 1.610 . S
N612 S611 1.613 . S
N612 C615 1.350 1_554 S
N613 S611 1.610 . S
N613 C614 1.351 . S
C614 C608 1.428 1_554 S
C614 N613 1.351 . S
C614 C615 1.434 1_554 S
C615 C606 1.429 . S
C615 N612 1.350 1_556 S
C615 C614 1.434 1_556 S
C616 C617 1.369 . S
C616 C618 1.419 . S
C616 H620 0.930 . S
C617 C616 1.369 . S
C617 C626 1.429 . S
C618 C616 1.419 . S
C618 C619 1.363 . S
C618 H621 0.929 . S
C619 C618 1.363 . S
C619 C625 1.428 . S
H620 C616 0.930 . S
H621 C618 0.929 . S
S622 N623 1.623 . S
S622 N624 1.610 . S
N623 S622 1.623 . S
N623 C626 1.357 . S
N624 S622 1.610 . S
N624 C625 1.351 . S
C625 C619 1.428 . S
C625 N624 1.351 . S
C625 C626 1.434 . S
C626 C617 1.429 . S
C626 N623 1.357 . S
C626 C625 1.434 . S
C627 C628 1.369 . S
C627 C629 1.419 . S
C627 H631 0.930 1_455 S
C628 C627 1.369 . S
C628 C637 1.429 . S
C629 C627 1.419 . S
C629 C630 1.363 . S
C629 H632 0.929 . S
C630 C629 1.363 . S
C630 C636 1.428 . S
H631 C627 0.930 1_655 S
H632 C629 0.929 . S
S633 N634 1.613 . S
S633 N635 1.610 . S
N634 S633 1.613 . S
N634 C637 1.350 . S
N635 S633 1.610 . S
N635 C636 1.351 . S
C636 C630 1.428 . S
C636 N635 1.351 . S
C636 C637 1.434 . S
C637 C628 1.429 . S
C637 N634 1.350 . S
C637 C636 1.434 . S
C638 C639 1.369 . S
C638 C640 1.419 . S
C638 H642 0.930 . S
C639 C638 1.369 . S
C639 C648 1.429 . S
C640 C638 1.419 . S
C640 C641 1.363 . S
C640 H643 0.929 . S
C641 C640 1.363 . S
C641 C647 1.428 1_565 S
H642 C638 0.930 . S
H643 C640 0.929 . S
S644 N645 1.613 . S
S644 N646 1.610 . S
N645 S644 1.613 . S
N645 C648 1.350 1_545 S
N646 S644 1.610 . S
N646 C647 1.351 . S
C647 C641 1.428 1_545 S
C647 N646 1.351 . S
C647 C648 1.434 1_545 S
C648 C639 1.429 . S
C648 N645 1.350 1_565 S
C648 C647 1.434 1_565 S
C649 C650 1.369 . S
C649 C651 1.419 1_655 S
C649 H653 0.930 1_655 S
C650 C649 1.369 . S
C650 C659 1.429 . S
C651 C649 1.419 1_455 S
C651 C652 1.363 1_455 S
C651 H654 0.929 . S
C652 C651 1.363 1_655 S
C652 C658 1.428 . S
H653 C649 0.930 1_455 S
H654 C651 0.929 . S
S655 N656 1.613 . S
S655 N657 1.610 . S
N656 S655 1.613 . S
N656 C659 1.350 . S
N657 S655 1.610 . S
N657 C658 1.351 . S
C658 C652 1.428 . S
C658 N657 1.351 . S
C658 C659 1.434 . S
C659 C650 1.429 . S
C659 N656 1.350 . S
C659 C658 1.434 . S
C660 C661 1.369 1_565 S
C660 C662 1.419 1_565 S
C660 H664 0.930 . S
C661 C660 1.369 1_545 S
C661 C670 1.429 . S
C662 C660 1.419 1_545 S
C662 C663 1.363 . S
C662 H665 0.929 1_545 S
C663 C662 1.363 . S
C663 C669 1.428 . S
H664 C660 0.930 . S
H665 C662 0.929 1_565 S
S666 N667 1.613 . S
S666 N668 1.610 . S
N667 S666 1.613 . S
N667 C670 1.350 . S
N668 S666 1.610 . S
N668 C669 1.351 . S
C669 C663 1.428 . S
C669 N668 1.351 . S
C669 C670 1.434 . S
C670 C661 1.429 . S
C670 N667 1.350 . S
C670 C669 1.434 . S
C671 C672 1.369 . S
C671 C673 1.419 . S
C671 H675 0.930 . S
C672 C671 1.369 . S
C672 C681 1.429 . S
C673 C671 1.419 . S
C673 C674 1.363 . S
C673 H676 0.929 . S
C674 C673 1.363 . S
C674 C680 1.428 1_455 S
H675 C671 0.930 . S
H676 C673 0.929 . S
S677 N678 1.613 1_655 S
S677 N679 1.610 . S
N678 S677 1.613 1_455 S
N678 C681 1.350 . S
N679 S677 1.610 . S
N679 C680 1.351 . S
C680 C674 1.428 1_655 S
C680 N679 1.351 . S
C680 C681 1.434 1_655 S
C681 C672 1.429 . S
C681 N678 1.350 . S
C681 C680 1.434 1_455 S
C682 C683 1.369 . S
C682 C684 1.419 . S
C682 H686 0.930 . S
C683 C682 1.369 . S
C683 C692 1.429 . S
C684 C682 1.419 . S
C684 C685 1.363 . S
C684 H687 0.929 . S
C685 C684 1.363 . S
C685 C691 1.428 1_565 S
H686 C682 0.930 . S
H687 C684 0.929 . S
S688 N689 1.613 1_545 S
S688 N690 1.610 . S
N689 S688 1.613 1_565 S
N689 C692 1.350 . S
N690 S688 1.610 . S
N690 C691 1.351 . S
C691 C685 1.428 1_545 S
C691 N690 1.351 . S
C691 C692 1.434 1_545 S
C692 C683 1.429 . S
C692 N689 1.350 . S
C692 C691 1.434 1_565 S
C693 C694 1.369 . S
C693 C695 1.419 . S
C693 H697 0.930 . S
C694 C693 1.369 . S
C694 C703 1.429 1_655 S
C695 C693 1.419 . S
C695 C696 1.363 . S
C695 H698 0.929 . S
C696 C695 1.363 . S
C696 C702 1.428 . S
H697 C693 0.930 . S
H698 C695 0.929 . S
S699 N700 1.613 . S
S699 N701 1.610 . S
N700 S699 1.613 . S
N700 C703 1.350 . S
N701 S699 1.610 . S
N701 C702 1.351 1_455 S
C702 C696 1.428 . S
C702 N701 1.351 1_655 S
C702 C703 1.434 1_655 S
C703 C694 1.429 1_455 S
C703 N700 1.350 . S
C703 C702 1.434 1_455 S
C704 C705 1.369 . S
C704 C706 1.419 . S
C704 H708 0.930 . S
C705 C704 1.369 . S
C705 C714 1.429 . S
C706 C704 1.419 . S
C706 C707 1.363 . S
C706 H709 0.929 . S
C707 C706 1.363 . S
C707 C713 1.428 . S
H708 C704 0.930 . S
H709 C706 0.929 . S
S710 N711 1.613 . S
S710 N712 1.610 . S
N711 S710 1.613 . S
N711 C714 1.350 . S
N712 S710 1.610 . S
N712 C713 1.351 . S
C713 C707 1.428 . S
C713 N712 1.351 . S
C713 C714 1.434 . S
C714 C705 1.429 . S
C714 N711 1.350 . S
C714 C713 1.434 . S
C715 C716 1.369 . S
C715 C717 1.419 . S
C715 H719 0.930 . S
C716 C715 1.369 . S
C716 C725 1.429 . S
C717 C715 1.419 . S
C717 C718 1.363 . S
C717 H720 0.929 . S
C718 C717 1.363 . S
C718 C724 1.428 . S
H719 C715 0.930 . S
H720 C717 0.929 . S
S721 N722 1.613 . S
S721 N723 1.610 . S
N722 S721 1.613 . S
N722 C725 1.350 . S
N723 S721 1.610 . S
N723 C724 1.351 . S
C724 C718 1.428 . S
C724 N723 1.351 . S
C724 C725 1.434 . S
C725 C716 1.429 . S
C725 N722 1.350 . S
C725 C724 1.434 . S
C726 C727 1.369 . S
C726 C728 1.419 . S
C726 H730 0.930 . S
C727 C726 1.369 . S
C727 C736 1.429 . S
C728 C726 1.419 . S
C728 C729 1.363 . S
C728 H731 0.929 . S
C729 C728 1.363 . S
C729 C735 1.428 . S
H730 C726 0.930 . S
H731 C728 0.929 . S
S732 N733 1.613 . S
S732 N734 1.610 . S
N733 S732 1.613 . S
N733 C736 1.350 . S
N734 S732 1.610 . S
N734 C735 1.351 . S
C735 C729 1.428 . S
C735 N734 1.351 . S
C735 C736 1.434 . S
C736 C727 1.429 . S
C736 N733 1.350 . S
C736 C735 1.434 . S
C737 C738 1.369 . S
C737 C739 1.419 . S
C737 H741 0.930 . S
C738 C737 1.369 . S
C738 C747 1.429 . S
C739 C737 1.419 . S
C739 C740 1.363 . S
C739 H742 0.929 . S
C740 C739 1.363 . S
C740 C746 1.428 . S
H741 C737 0.930 . S
H742 C739 0.929 . S
S743 N744 1.613 . S
S743 N745 1.610 . S
N744 S743 1.613 . S
N744 C747 1.350 . S
N745 S743 1.610 . S
N745 C746 1.351 . S
C746 C740 1.428 . S
C746 N745 1.351 . S
C746 C747 1.434 . S
C747 C738 1.429 . S
C747 N744 1.350 . S
C747 C746 1.434 . S
C748 C749 1.369 . S
C748 C750 1.419 . S
C748 H752 0.930 . S
C749 C748 1.369 . S
C749 C758 1.429 . S
C750 C748 1.419 . S
C750 C751 1.363 . S
C750 H753 0.929 . S
C751 C750 1.363 . S
C751 C757 1.428 . S
H752 C748 0.930 . S
H753 C750 0.929 . S
S754 N755 1.613 . S
S754 N756 1.610 . S
N755 S754 1.613 . S
N755 C758 1.350 . S
N756 S754 1.610 . S
N756 C757 1.351 . S
C757 C751 1.428 . S
C757 N756 1.351 . S
C757 C758 1.434 . S
C758 C749 1.429 . S
C758 N755 1.350 . S
C758 C757 1.434 . S
C759 C760 1.369 . S
C759 C761 1.419 . S
C759 H763 0.930 . S
C760 C759 1.369 . S
C760 C769 1.429 . S
C761 C759 1.419 . S
C761 C762 1.363 . S
C761 H764 0.929 . S
C762 C761 1.363 . S
C762 C768 1.428 . S
H763 C759 0.930 . S
H764 C761 0.929 . S
S765 N766 1.613 . S
S765 N767 1.610 . S
N766 S765 1.613 . S
N766 C769 1.350 . S
N767 S765 1.610 . S
N767 C768 1.351 . S
C768 C762 1.428 . S
C768 N767 1.351 . S
C768 C769 1.434 . S
C769 C760 1.429 . S
C769 N766 1.350 . S
C769 C768 1.434 . S
C770 C771 1.369 . S
C770 C772 1.419 . S
C770 H774 0.930 . S
C771 C770 1.369 . S
C771 C780 1.429 . S
C772 C770 1.419 . S
C772 C773 1.363 . S
C772 H775 0.929 . S
C773 C772 1.363 . S
C773 C779 1.428 . S
H774 C770 0.930 . S
H775 C772 0.929 . S
S776 N777 1.613 . S
S776 N778 1.610 . S
N777 S776 1.613 . S
N777 C780 1.350 . S
N778 S776 1.610 . S
N778 C779 1.351 . S
C779 C773 1.428 . S
C779 N778 1.351 . S
C779 C780 1.434 . S
C780 C771 1.429 . S
C780 N777 1.350 . S
C780 C779 1.434 . S
C781 C782 1.369 . S
C781 C783 1.419 . S
C781 H785 0.930 . S
C782 C781 1.369 . S
C782 C791 1.429 . S
C783 C781 1.419 . S
C783 C784 1.363 . S
C783 H786 0.929 . S
C784 C783 1.363 . S
C784 C790 1.428 . S
H785 C781 0.930 . S
H786 C783 0.929 . S
S787 N788 1.613 . S
S787 N789 1.610 . S
N788 S787 1.613 . S
N788 C791 1.350 . S
N789 S787 1.610 . S
N789 C790 1.351 . S
C790 C784 1.428 . S
C790 N789 1.351 . S
C790 C791 1.434 . S
C791 C782 1.429 . S
C791 N788 1.350 . S
C791 C790 1.434 . S
C792 C793 1.369 . S
C792 C794 1.419 1_556 S
C792 H796 0.930 . S
C793 C792 1.369 . S
C793 C802 1.429 . S
C794 C792 1.419 1_554 S
C794 C795 1.363 . S
C794 H797 0.929 . S
C795 C794 1.363 . S
C795 C801 1.428 . S
H796 C792 0.930 . S
H797 C794 0.929 . S
S798 N799 1.613 . S
S798 N800 1.610 1_556 S
N799 S798 1.613 . S
N799 C802 1.350 . S
N800 S798 1.610 1_554 S
N800 C801 1.351 . S
C801 C795 1.428 . S
C801 N800 1.351 . S
C801 C802 1.434 1_554 S
C802 C793 1.429 . S
C802 N799 1.350 . S
C802 C801 1.434 1_556 S
C803 C804 1.369 1_556 S
C803 C805 1.419 . S
C803 H807 0.930 . S
C804 C803 1.369 1_554 S
C804 C813 1.429 . S
C805 C803 1.419 . S
C805 C806 1.363 . S
C805 H808 0.929 . S
C806 C805 1.363 . S
C806 C812 1.428 1_556 S
H807 C803 0.930 . S
H808 C805 0.929 . S
S809 N810 1.613 . S
S809 N811 1.610 . S
N810 S809 1.613 . S
N810 C813 1.350 . S
N811 S809 1.610 . S
N811 C812 1.351 . S
C812 C806 1.428 1_554 S
C812 N811 1.351 . S
C812 C813 1.434 . S
C813 C804 1.429 . S
C813 N810 1.350 . S
C813 C812 1.434 . S
C814 C815 1.369 . S
C814 C816 1.419 1_554 S
C814 H818 0.930 . S
C815 C814 1.369 . S
C815 C824 1.429 . S
C816 C814 1.419 1_556 S
C816 C817 1.363 . S
C816 H819 0.929 . S
C817 C816 1.363 . S
C817 C823 1.428 . S
H818 C814 0.930 . S
H819 C816 0.929 . S
S820 N821 1.613 1_556 S
S820 N822 1.610 . S
N821 S820 1.613 1_554 S
N821 C824 1.350 . S
N822 S820 1.610 . S
N822 C823 1.351 . S
C823 C817 1.428 . S
C823 N822 1.351 . S
C823 C824 1.434 1_556 S
C824 C815 1.429 . S
C824 N821 1.350 . S
C824 C823 1.434 1_554 S
C825 C826 1.369 1_556 S
C825 C827 1.419 . S
C825 H829 0.930 . S
C826 C825 1.369 1_554 S
C826 C835 1.429 . S
C827 C825 1.419 . S
C827 C828 1.363 . S
C827 H830 0.929 . S
C828 C827 1.363 . S
C828 C834 1.428 1_556 S
H829 C825 0.930 . S
H830 C827 0.929 . S
S831 N832 1.613 . S
S831 N833 1.610 . S
N832 S831 1.613 . S
N832 C835 1.350 . S
N833 S831 1.610 . S
N833 C834 1.351 . S
C834 C828 1.428 1_554 S
C834 N833 1.351 . S
C834 C835 1.434 . S
C835 C826 1.429 . S
C835 N832 1.350 . S
C835 C834 1.434 . S
C836 C837 1.369 . S
C836 C838 1.419 . S
C836 H840 0.930 . S
C837 C836 1.369 . S
C837 C846 1.429 . S
C838 C836 1.419 . S
C838 C839 1.363 . S
C838 H841 0.929 . S
C839 C838 1.363 . S
C839 C845 1.428 . S
H840 C836 0.930 . S
H841 C838 0.929 . S
S842 N843 1.613 . S
S842 N844 1.610 . S
N843 S842 1.613 . S
N843 C846 1.350 . S
N844 S842 1.610 . S
N844 C845 1.351 . S
C845 C839 1.428 . S
C845 N844 1.351 . S
C845 C846 1.434 . S
C846 C837 1.429 . S
C846 N843 1.350 . S
C846 C845 1.434 . S
C847 C848 1.369 . S
C847 C849 1.419 . S
C847 H851 0.930 . S
C848 C847 1.369 . S
C848 C857 1.429 . S
C849 C847 1.419 . S
C849 C850 1.363 . S
C849 H852 0.929 . S
C850 C849 1.363 . S
C850 C856 1.428 . S
H851 C847 0.930 . S
H852 C849 0.929 . S
S853 N854 1.613 . S
S853 N855 1.610 . S
N854 S853 1.613 . S
N854 C857 1.350 . S
N855 S853 1.610 . S
N855 C856 1.351 . S
C856 C850 1.428 . S
C856 N855 1.351 . S
C856 C857 1.434 . S
C857 C848 1.429 . S
C857 N854 1.350 . S
C857 C856 1.434 . S
C858 C859 1.369 . S
C858 C860 1.419 . S
C858 H862 0.930 . S
C859 C858 1.369 . S
C859 C868 1.429 . S
C860 C858 1.419 . S
C860 C861 1.363 . S
C860 H863 0.929 . S
C861 C860 1.363 . S
C861 C867 1.428 . S
H862 C858 0.930 . S
H863 C860 0.929 . S
S864 N865 1.613 . S
S864 N866 1.610 . S
N865 S864 1.613 . S
N865 C868 1.350 . S
N866 S864 1.610 . S
N866 C867 1.351 . S
C867 C861 1.428 . S
C867 N866 1.351 . S
C867 C868 1.434 . S
C868 C859 1.429 . S
C868 N865 1.350 . S
C868 C867 1.434 . S
C869 C870 1.369 . S
C869 C871 1.419 . S
C869 H873 0.930 . S
C870 C869 1.369 . S
C870 C879 1.429 . S
C871 C869 1.419 . S
C871 C872 1.363 . S
C871 H874 0.929 . S
C872 C871 1.363 . S
C872 C878 1.428 . S
H873 C869 0.930 . S
H874 C871 0.929 . S
S875 N876 1.613 . S
S875 N877 1.610 . S
N876 S875 1.613 . S
N876 C879 1.350 . S
N877 S875 1.610 . S
N877 C878 1.351 . S
C878 C872 1.428 . S
C878 N877 1.351 . S
C878 C879 1.434 . S
C879 C870 1.429 . S
C879 N876 1.350 . S
C879 C878 1.434 . S
C353 C8 1.332 . S
C355 C118 1.332 . S
C364 C32 1.340 . S
C366 C140 1.339 . S
C375 C162 1.339 . S
C377 C62 1.336 . S
C386 C96 1.340 . S
C388 C74 1.338 . S
C397 C294 1.337 . S
C399 C186 1.334 . S
C408 C208 1.338 . S
C410 C316 1.339 . S
C419 C340 1.339 . S
C421 C230 1.339 . S
C430 C272 1.333 . S
C432 C252 1.335 . S
C441 C7 1.565 . S
C443 C37 1.497 1_554 S
C452 C51 1.490 1_556 S
C454 C43 1.568 . S
C463 C87 1.492 1_554 S
C465 C59 1.567 . S
C474 C73 1.566 . S
C476 C21 1.495 1_556 S
C485 C95 1.565 . S
C487 C175 1.497 . S
C496 C109 1.496 . S
C498 C117 1.565 . S
C507 C131 1.488 . S
C509 C139 1.569 . S
C518 C153 1.494 . S
C520 C161 1.566 . S
C529 C197 1.564 . S
C531 C213 1.498 . S
C540 C235 1.499 . S
C542 C219 1.564 . S
C551 C241 1.569 . S
C553 C257 1.489 . S
C562 C263 1.564 . S
C564 C191 1.497 . S
C573 C345 1.499 1_554 S
C575 C271 1.564 . S
C584 C285 1.488 1_556 S
C586 C293 1.569 . S
C595 C307 1.491 1_554 S
C597 C315 1.568 . S
C606 C351 1.564 . S
C608 C329 1.497 1_556 S
C617 C150 1.431 1_545 S
C619 C15 1.439 . S
C628 C172 1.431 1_455 S
C630 C29 1.439 . S
C639 C65 1.435 . S
C641 C106 1.435 1_565 S
C650 C81 1.441 . S
C652 C128 1.435 1_655 S
C661 C54 1.433 1_545 S
C663 C103 1.441 . S
C672 C125 1.437 . S
C674 C84 1.437 1_455 S
C683 C147 1.435 . S
C685 C18 1.436 1_565 S
C694 C30 1.436 1_655 S
C696 C169 1.435 . S
C705 C183 1.441 . S
C707 C326 1.435 . S
C716 C205 1.439 . S
C718 C338 1.436 . S
C727 C282 1.433 . S
C729 C227 1.441 . S
C738 C249 1.436 . S
C740 C304 1.437 . S
C749 C279 1.435 . S
C751 C228 1.436 . S
C760 C301 1.438 . S
C762 C250 1.432 . S
C771 C323 1.441 . S
C773 C184 1.434 . S
C782 C206 1.433 . S
C784 C337 1.436 . S
C793 C348 1.513 . S
C795 C10 1.509 . S
C804 C274 1.512 . S
C806 C40 1.510 . S
C815 C52 1.512 . S
C817 C296 1.510 . S
C826 C318 1.512 . S
C828 C76 1.510 . S
C837 C98 1.507 . S
C839 C216 1.504 . S
C848 C120 1.510 . S
C850 C238 1.512 . S
C859 C260 1.503 . S
C861 C142 1.509 . S
C870 C164 1.511 . S
C872 C194 1.511 . S
