# Generated by pormake.
# Topology sxi, (6)-cn, num edge types: 1
# Building blocks:
#     Node 0, Type 0, BuildingBlock: IZENUY_clean_sbu_0, # of connection points: 6
#     Node 1, Type 0, BuildingBlock: IZENUY_clean_sbu_0, # of connection points: 6
#     Node 2, Type 0, BuildingBlock: IZENUY_clean_sbu_0, # of connection points: 6
#     Node 3, Type 0, BuildingBlock: IZENUY_clean_sbu_0, # of connection points: 6
#     Node 4, Type 0, BuildingBlock: IZENUY_clean_sbu_0, # of connection points: 6
#     Node 5, Type 0, BuildingBlock: IZENUY_clean_sbu_0, # of connection points: 6
#     Node 6, Type 0, BuildingBlock: IZENUY_clean_sbu_0, # of connection points: 6
#     Node 7, Type 0, BuildingBlock: IZENUY_clean_sbu_0, # of connection points: 6
#     Node 8, Type 0, BuildingBlock: IZENUY_clean_sbu_0, # of connection points: 6
#     Node 9, Type 0, BuildingBlock: IZENUY_clean_sbu_0, # of connection points: 6
#     Node 10, Type 0, BuildingBlock: IZENUY_clean_sbu_0, # of connection points: 6
#     Node 11, Type 0, BuildingBlock: IZENUY_clean_sbu_0, # of connection points: 6
#     Node 12, Type 0, BuildingBlock: IZENUY_clean_sbu_0, # of connection points: 6
#     Node 13, Type 0, BuildingBlock: IZENUY_clean_sbu_0, # of connection points: 6
#     Node 14, Type 0, BuildingBlock: IZENUY_clean_sbu_0, # of connection points: 6
#     Node 15, Type 0, BuildingBlock: IZENUY_clean_sbu_0, # of connection points: 6
#     Node 16, Type 0, BuildingBlock: IZENUY_clean_sbu_0, # of connection points: 6
#     Node 17, Type 0, BuildingBlock: IZENUY_clean_sbu_0, # of connection points: 6
#     Node 18, Type 0, BuildingBlock: IZENUY_clean_sbu_0, # of connection points: 6
#     Node 19, Type 0, BuildingBlock: IZENUY_clean_sbu_0, # of connection points: 6
#     Node 20, Type 0, BuildingBlock: IZENUY_clean_sbu_0, # of connection points: 6
#     Node 21, Type 0, BuildingBlock: IZENUY_clean_sbu_0, # of connection points: 6
#     Node 22, Type 0, BuildingBlock: IZENUY_clean_sbu_0, # of connection points: 6
#     Node 23, Type 0, BuildingBlock: IZENUY_clean_sbu_0, # of connection points: 6
#     Edge 24, Type (0, 0), BuildingBlock: KIFKEQ_clean_linker_1, # of connection points: 2
#     Edge 25, Type (0, 0), BuildingBlock: KIFKEQ_clean_linker_1, # of connection points: 2
#     Edge 26, Type (0, 0), BuildingBlock: KIFKEQ_clean_linker_1, # of connection points: 2
#     Edge 27, Type (0, 0), BuildingBlock: KIFKEQ_clean_linker_1, # of connection points: 2
#     Edge 28, Type (0, 0), BuildingBlock: KIFKEQ_clean_linker_1, # of connection points: 2
#     Edge 29, Type (0, 0), BuildingBlock: KIFKEQ_clean_linker_1, # of connection points: 2
#     Edge 30, Type (0, 0), BuildingBlock: KIFKEQ_clean_linker_1, # of connection points: 2
#     Edge 31, Type (0, 0), BuildingBlock: KIFKEQ_clean_linker_1, # of connection points: 2
#     Edge 32, Type (0, 0), BuildingBlock: KIFKEQ_clean_linker_1, # of connection points: 2
#     Edge 33, Type (0, 0), BuildingBlock: KIFKEQ_clean_linker_1, # of connection points: 2
#     Edge 34, Type (0, 0), BuildingBlock: KIFKEQ_clean_linker_1, # of connection points: 2
#     Edge 35, Type (0, 0), BuildingBlock: KIFKEQ_clean_linker_1, # of connection points: 2
#     Edge 36, Type (0, 0), BuildingBlock: KIFKEQ_clean_linker_1, # of connection points: 2
#     Edge 37, Type (0, 0), BuildingBlock: KIFKEQ_clean_linker_1, # of connection points: 2
#     Edge 38, Type (0, 0), BuildingBlock: KIFKEQ_clean_linker_1, # of connection points: 2
#     Edge 39, Type (0, 0), BuildingBlock: KIFKEQ_clean_linker_1, # of connection points: 2
#     Edge 40, Type (0, 0), BuildingBlock: KIFKEQ_clean_linker_1, # of connection points: 2
#     Edge 41, Type (0, 0), BuildingBlock: KIFKEQ_clean_linker_1, # of connection points: 2
#     Edge 42, Type (0, 0), BuildingBlock: KIFKEQ_clean_linker_1, # of connection points: 2
#     Edge 43, Type (0, 0), BuildingBlock: KIFKEQ_clean_linker_1, # of connection points: 2
#     Edge 44, Type (0, 0), BuildingBlock: KIFKEQ_clean_linker_1, # of connection points: 2
#     Edge 45, Type (0, 0), BuildingBlock: KIFKEQ_clean_linker_1, # of connection points: 2
#     Edge 46, Type (0, 0), BuildingBlock: KIFKEQ_clean_linker_1, # of connection points: 2
#     Edge 47, Type (0, 0), BuildingBlock: KIFKEQ_clean_linker_1, # of connection points: 2
#     Edge 48, Type (0, 0), BuildingBlock: KIFKEQ_clean_linker_1, # of connection points: 2
#     Edge 49, Type (0, 0), BuildingBlock: KIFKEQ_clean_linker_1, # of connection points: 2
#     Edge 50, Type (0, 0), BuildingBlock: KIFKEQ_clean_linker_1, # of connection points: 2
#     Edge 51, Type (0, 0), BuildingBlock: KIFKEQ_clean_linker_1, # of connection points: 2
#     Edge 52, Type (0, 0), BuildingBlock: KIFKEQ_clean_linker_1, # of connection points: 2
#     Edge 53, Type (0, 0), BuildingBlock: KIFKEQ_clean_linker_1, # of connection points: 2
#     Edge 54, Type (0, 0), BuildingBlock: KIFKEQ_clean_linker_1, # of connection points: 2
#     Edge 55, Type (0, 0), BuildingBlock: KIFKEQ_clean_linker_1, # of connection points: 2
#     Edge 56, Type (0, 0), BuildingBlock: KIFKEQ_clean_linker_1, # of connection points: 2
#     Edge 57, Type (0, 0), BuildingBlock: KIFKEQ_clean_linker_1, # of connection points: 2
#     Edge 58, Type (0, 0), BuildingBlock: KIFKEQ_clean_linker_1, # of connection points: 2
#     Edge 59, Type (0, 0), BuildingBlock: KIFKEQ_clean_linker_1, # of connection points: 2
#     Edge 60, Type (0, 0), BuildingBlock: KIFKEQ_clean_linker_1, # of connection points: 2
#     Edge 61, Type (0, 0), BuildingBlock: KIFKEQ_clean_linker_1, # of connection points: 2
#     Edge 62, Type (0, 0), BuildingBlock: KIFKEQ_clean_linker_1, # of connection points: 2
#     Edge 63, Type (0, 0), BuildingBlock: KIFKEQ_clean_linker_1, # of connection points: 2
#     Edge 64, Type (0, 0), BuildingBlock: KIFKEQ_clean_linker_1, # of connection points: 2
#     Edge 65, Type (0, 0), BuildingBlock: KIFKEQ_clean_linker_1, # of connection points: 2
#     Edge 66, Type (0, 0), BuildingBlock: KIFKEQ_clean_linker_1, # of connection points: 2
#     Edge 67, Type (0, 0), BuildingBlock: KIFKEQ_clean_linker_1, # of connection points: 2
#     Edge 68, Type (0, 0), BuildingBlock: KIFKEQ_clean_linker_1, # of connection points: 2
#     Edge 69, Type (0, 0), BuildingBlock: KIFKEQ_clean_linker_1, # of connection points: 2
#     Edge 70, Type (0, 0), BuildingBlock: KIFKEQ_clean_linker_1, # of connection points: 2
#     Edge 71, Type (0, 0), BuildingBlock: KIFKEQ_clean_linker_1, # of connection points: 2
#     Edge 72, Type (0, 0), BuildingBlock: KIFKEQ_clean_linker_1, # of connection points: 2
#     Edge 73, Type (0, 0), BuildingBlock: KIFKEQ_clean_linker_1, # of connection points: 2
#     Edge 74, Type (0, 0), BuildingBlock: KIFKEQ_clean_linker_1, # of connection points: 2
#     Edge 75, Type (0, 0), BuildingBlock: KIFKEQ_clean_linker_1, # of connection points: 2
#     Edge 76, Type (0, 0), BuildingBlock: KIFKEQ_clean_linker_1, # of connection points: 2
#     Edge 77, Type (0, 0), BuildingBlock: KIFKEQ_clean_linker_1, # of connection points: 2
#     Edge 78, Type (0, 0), BuildingBlock: KIFKEQ_clean_linker_1, # of connection points: 2
#     Edge 79, Type (0, 0), BuildingBlock: KIFKEQ_clean_linker_1, # of connection points: 2
#     Edge 80, Type (0, 0), BuildingBlock: KIFKEQ_clean_linker_1, # of connection points: 2
#     Edge 81, Type (0, 0), BuildingBlock: KIFKEQ_clean_linker_1, # of connection points: 2
#     Edge 82, Type (0, 0), BuildingBlock: KIFKEQ_clean_linker_1, # of connection points: 2
#     Edge 83, Type (0, 0), BuildingBlock: KIFKEQ_clean_linker_1, # of connection points: 2
#     Edge 84, Type (0, 0), BuildingBlock: KIFKEQ_clean_linker_1, # of connection points: 2
#     Edge 85, Type (0, 0), BuildingBlock: KIFKEQ_clean_linker_1, # of connection points: 2
#     Edge 86, Type (0, 0), BuildingBlock: KIFKEQ_clean_linker_1, # of connection points: 2
#     Edge 87, Type (0, 0), BuildingBlock: KIFKEQ_clean_linker_1, # of connection points: 2
#     Edge 88, Type (0, 0), BuildingBlock: KIFKEQ_clean_linker_1, # of connection points: 2
#     Edge 89, Type (0, 0), BuildingBlock: KIFKEQ_clean_linker_1, # of connection points: 2
#     Edge 90, Type (0, 0), BuildingBlock: KIFKEQ_clean_linker_1, # of connection points: 2
#     Edge 91, Type (0, 0), BuildingBlock: KIFKEQ_clean_linker_1, # of connection points: 2
#     Edge 92, Type (0, 0), BuildingBlock: KIFKEQ_clean_linker_1, # of connection points: 2
#     Edge 93, Type (0, 0), BuildingBlock: KIFKEQ_clean_linker_1, # of connection points: 2
#     Edge 94, Type (0, 0), BuildingBlock: KIFKEQ_clean_linker_1, # of connection points: 2
#     Edge 95, Type (0, 0), BuildingBlock: KIFKEQ_clean_linker_1, # of connection points: 2
# Relax obj value: 0.411
# Max RMSD: 0.249
# Mean RMSD: 0.249
data_MOF--net-sxi--node1-IZENUY_clean_sbu_0--edge1-KIFKEQ_clean_linker_1
_symmetry_space_group_name_H-M    P1
_symmetry_Int_Tables_number       1
_symmetry_cell_setting            triclinic
loop_
_symmetry_equiv_pos_as_xyz
'x, y, z'
_cell_length_a     47.384142
_cell_length_b     47.393476
_cell_length_c     47.379945
_cell_angle_alpha  89.956032
_cell_angle_beta   89.997209
_cell_angle_gamma 90.054941
loop_
_atom_site_label
_atom_site_type_symbol
_atom_site_fract_x
_atom_site_fract_y
_atom_site_fract_z
_atom_type_partial_charge
Fe0 Fe 0.01821 0.32791 0.41497 0.0
Fe1 Fe 0.07174 0.34691 0.38317 0.0
O2 O 0.04153 0.35485 0.40391 0.0
Fe3 Fe 0.03514 0.39009 0.41404 0.0
O4 O 0.01729 0.38178 0.44743 0.0
O5 O 0.02251 0.33617 0.4521 0.0
O6 O 0.04628 0.30137 0.41999 0.0
C7 C 0.07278 0.30439 0.4229 0.0
C8 C 0.98268 0.37351 0.39914 0.0
O9 O 0.08572 0.32444 0.41089 0.0
C10 C 0.05523 0.39609 0.35763 0.0
O11 O 0.01142 0.31742 0.37909 0.0
O12 O 0.05541 0.31558 0.36502 0.0
O13 O 1.0023 0.39096 0.39527 0.0
O14 O 0.98672 0.3502 0.41175 0.0
C15 C 0.09125 0.38853 0.4221 0.0
O16 O 0.05958 0.36983 0.35415 0.0
O17 O 0.05143 0.40572 0.38234 0.0
C18 C 0.02971 0.30789 0.36258 0.0
O19 O 0.09359 0.37619 0.3983 0.0
O20 O 0.06754 0.39061 0.43366 0.0
C21 C 0.01744 0.35993 0.46272 0.0
Fe22 Fe 0.92538 0.83122 0.63059 0.0
Fe23 Fe 0.88287 0.78724 0.65334 0.0
O24 O 0.91785 0.8001 0.65012 0.0
Fe25 Fe 0.94601 0.78171 0.66658 0.0
O26 O 0.95354 0.81177 0.68883 0.0
O27 O 0.95516 0.84213 0.65371 0.0
O28 O 0.9024 0.85248 0.65342 0.0
C29 C 0.87706 0.84642 0.65957 0.0
C30 C 0.97031 0.79759 0.61526 0.0
O31 O 0.86695 0.82211 0.65531 0.0
C32 C 0.91599 0.73847 0.64353 0.0
O33 O 0.89638 0.82674 0.60455 0.0
O34 O 0.87769 0.78577 0.61529 0.0
O35 O 0.97289 0.79237 0.64117 0.0
O36 O 0.94902 0.81134 0.60646 0.0
C37 C 0.90229 0.77407 0.70649 0.0
O38 O 0.89344 0.75034 0.65155 0.0
O39 O 0.93963 0.75072 0.64521 0.0
C40 C 0.87984 0.80645 0.59864 0.0
O41 O 0.88418 0.7873 0.69208 0.0
O42 O 0.92535 0.76694 0.69543 0.0
C43 C 0.9606 0.83562 0.67925 0.0
Fe44 Fe 0.49209 0.69268 0.9105 0.0
Fe45 Fe 0.43953 0.67166 0.87935 0.0
O46 O 0.47188 0.6644 0.89655 0.0
Fe47 Fe 0.48417 0.62934 0.90025 0.0
O48 O 0.48597 0.63232 0.93873 0.0
O49 O 0.50849 0.67253 0.93885 0.0
O50 O 0.46409 0.70166 0.93474 0.0
C51 C 0.43952 0.70834 0.92693 0.0
C52 C 0.53254 0.6608 0.88545 0.0
O53 O 0.43087 0.70216 0.90223 0.0
C54 C 0.46197 0.6253 0.84698 0.0
O55 O 0.47998 0.7189 0.88518 0.0
O56 O 0.45768 0.69432 0.85296 0.0
O57 O 0.52095 0.6392 0.89607 0.0
O58 O 0.5211 0.68483 0.88691 0.0
C59 C 0.4264 0.62498 0.91212 0.0
O60 O 0.44196 0.64178 0.85399 0.0
O61 O 0.48348 0.62308 0.86247 0.0
C62 C 0.47244 0.71564 0.85996 0.0
O63 O 0.42007 0.64995 0.90496 0.0
O64 O 0.44937 0.61383 0.90475 0.0
C65 C 0.50051 0.65059 0.95155 0.0
Fe66 Fe 0.59702 0.19399 0.13453 0.0
Fe67 Fe 0.64128 0.23107 0.16329 0.0
O68 O 0.6057 0.22472 0.15414 0.0
Fe69 Fe 0.5794 0.2488 0.16496 0.0
O70 O 0.55263 0.22131 0.17196 0.0
O71 O 0.57452 0.18126 0.1627 0.0
O72 O 0.62584 0.17233 0.15051 0.0
C73 C 0.638 0.17548 0.17432 0.0
C74 C 0.55818 0.2356 0.11322 0.0
O75 O 0.64152 0.1997 0.18448 0.0
C76 C 0.62471 0.28252 0.1452 0.0
O77 O 0.61985 0.20481 0.10487 0.0
O78 O 0.65617 0.21284 0.13241 0.0
O79 O 0.56779 0.2543 0.12924 0.0
O80 O 0.5659 0.21001 0.11605 0.0
C81 C 0.61277 0.25141 0.2118 0.0
O82 O 0.64215 0.26272 0.14263 0.0
O83 O 0.6021 0.27974 0.15939 0.0
C84 C 0.64622 0.20876 0.10791 0.0
O85 O 0.6341 0.2509 0.19582 0.0
O86 O 0.58871 0.24596 0.20205 0.0
C87 C 0.55499 0.19474 0.17484 0.0
Fe88 Fe 0.52163 0.18917 0.59876 0.0
Fe89 Fe 0.57403 0.17059 0.63273 0.0
O90 O 0.54387 0.16225 0.61192 0.0
Fe91 Fe 0.53626 0.12667 0.60371 0.0
O92 O 0.51924 0.13378 0.56961 0.0
O93 O 0.52674 0.17866 0.5622 0.0
O94 O 0.55023 0.21485 0.59331 0.0
C95 C 0.57671 0.21151 0.59142 0.0
C96 C 0.48415 0.14604 0.61648 0.0
O97 O 0.58896 0.19172 0.60441 0.0
C98 C 0.55567 0.12316 0.66046 0.0
O99 O 0.51423 0.20174 0.63382 0.0
O100 O 0.55787 0.20262 0.64946 0.0
O101 O 0.50294 0.12808 0.62188 0.0
O102 O 0.48941 0.16808 0.60224 0.0
C103 C 0.59287 0.12683 0.59608 0.0
O104 O 0.56143 0.14924 0.66261 0.0
O105 O 0.55139 0.11226 0.63642 0.0
C106 C 0.53227 0.21081 0.65093 0.0
O107 O 0.59544 0.14052 0.61908 0.0
O108 O 0.56905 0.12365 0.58483 0.0
C109 C 0.52041 0.15459 0.55293 0.0
Fe110 Fe 0.0953 0.32102 0.88401 0.0
Fe111 Fe 0.13865 0.28039 0.8588 0.0
O112 O 0.10314 0.28909 0.86611 0.0
Fe113 Fe 0.07624 0.26582 0.8549 0.0
O114 O 0.05082 0.29386 0.84595 0.0
O115 O 0.07369 0.33336 0.85503 0.0
O116 O 0.1252 0.34071 0.86707 0.0
C117 C 0.13817 0.33532 0.844 0.0
C118 C 0.05432 0.28135 0.9059 0.0
O119 O 0.1414 0.31027 0.8358 0.0
C120 C 0.11863 0.23112 0.87879 0.0
O121 O 0.11717 0.31124 0.91468 0.0
O122 O 0.15367 0.29978 0.88876 0.0
O123 O 0.0628 0.26196 0.89009 0.0
O124 O 0.06342 0.30658 0.90289 0.0
C125 C 0.11129 0.25915 0.8101 0.0
O126 O 0.13676 0.25032 0.88154 0.0
O127 O 0.09733 0.23412 0.86269 0.0
C128 C 0.14326 0.30561 0.91262 0.0
O129 O 0.13155 0.25866 0.82741 0.0
O130 O 0.08743 0.26737 0.81816 0.0
C131 C 0.054 0.32027 0.84277 0.0
Fe132 Fe 0.97911 0.8931 0.11323 0.0
Fe133 Fe 0.99384 0.83156 0.10028 0.0
O134 O 0.97116 0.85657 0.11616 0.0
Fe135 Fe 0.94045 0.84514 0.13425 0.0
O136 O 0.91817 0.86551 0.10985 0.0
O137 O 0.94261 0.90472 0.11241 0.0
O138 O 0.97849 0.89196 0.07462 0.0
C139 C 0.99338 0.87524 0.06014 0.0
C140 C 0.96013 0.89234 0.16764 0.0
O141 O 1.00516 0.85429 0.07147 0.0
C142 C 0.97773 0.80341 0.15052 0.0
O143 O 0.01691 0.88798 0.11381 0.0
O144 O 0.02301 0.84284 0.12246 0.0
O145 O 0.94127 0.87435 0.16077 0.0
O146 O 0.98056 0.8972 0.15125 0.0
C147 C 0.94252 0.80972 0.08577 0.0
O148 O 0.98684 0.80364 0.12555 0.0
O149 O 0.96113 0.82277 0.15909 0.0
C150 C 0.03173 0.86804 0.1233 0.0
O151 O 0.96599 0.81908 0.0773 0.0
O152 O 0.93392 0.81477 0.11068 0.0
C153 C 0.92124 0.8914 0.10413 0.0
Fe154 Fe 0.38315 0.73345 0.36201 0.0
Fe155 Fe 0.4467 0.73673 0.34979 0.0
O156 O 0.41739 0.71877 0.36483 0.0
Fe157 Fe 0.42286 0.68628 0.3825 0.0
O158 O 0.39914 0.66768 0.35787 0.0
O159 O 0.36537 0.69975 0.3586 0.0
O160 O 0.38509 0.73462 0.32337 0.0
C161 C 0.40411 0.7473 0.30962 0.0
C162 C 0.37832 0.71174 0.41544 0.0
O163 O 0.42707 0.75366 0.3214 0.0
C164 C 0.469 0.7172 0.40053 0.0
O165 O 0.39551 0.7696 0.36531 0.0
O166 O 0.44141 0.76686 0.37265 0.0
O167 O 0.39366 0.6909 0.40835 0.0
O168 O 0.37763 0.73352 0.40008 0.0
C169 C 0.4594 0.68306 0.33457 0.0
O170 O 0.47253 0.72353 0.37501 0.0
O171 O 0.44699 0.70375 0.4081 0.0
C172 C 0.41829 0.77994 0.37465 0.0
O173 O 0.45352 0.70763 0.32614 0.0
O174 O 0.45248 0.67511 0.35933 0.0
C175 C 0.37415 0.67548 0.35213 0.0
Fe176 Fe 0.40304 0.03682 0.3868 0.0
Fe177 Fe 0.41866 0.02836 0.32431 0.0
O178 O 0.4009 0.04766 0.351 0.0
Fe179 Fe 0.38115 0.07801 0.34147 0.0
O180 O 0.40387 0.10049 0.36342 0.0
O181 O 0.40338 0.07266 0.40084 0.0
O182 O 0.44164 0.0379 0.38704 0.0
C183 C 0.4573 0.02501 0.36975 0.0
C184 C 0.34833 0.05489 0.38724 0.0
O185 O 0.44779 0.01662 0.34641 0.0
C186 C 0.36697 0.04156 0.29842 0.0
O187 O 0.40306 0.99947 0.37847 0.0
O188 O 0.39872 0.99669 0.33217 0.0
O189 O 0.3549 0.07476 0.37043 0.0
O190 O 0.36487 0.03431 0.39037 0.0
C191 C 0.42981 0.08181 0.30662 0.0
O192 O 0.39296 0.03615 0.29663 0.0
O193 O 0.35765 0.05659 0.31863 0.0
C194 C 0.39704 0.98572 0.35643 0.0
O195 O 0.43991 0.05874 0.31516 0.0
O196 O 0.40408 0.08777 0.31127 0.0
C197 C 0.40916 0.09601 0.38928 0.0
Fe198 Fe 0.23854 0.16887 0.57466 0.0
Fe199 Fe 0.18872 0.13136 0.59142 0.0
O200 O 0.21826 0.15227 0.60133 0.0
Fe201 Fe 0.22814 0.15665 0.63711 0.0
O202 O 0.22663 0.19529 0.63489 0.0
O203 O 0.25127 0.19797 0.59614 0.0
O204 O 0.20868 0.19048 0.56469 0.0
C205 C 0.1855 0.18028 0.55619 0.0
C206 C 0.27916 0.1462 0.60855 0.0
O207 O 0.1793 0.15447 0.56103 0.0
C208 C 0.21116 0.10109 0.63934 0.0
O209 O 0.23018 0.14359 0.54723 0.0
O210 O 0.21141 0.10789 0.56922 0.0
O211 O 0.26583 0.15604 0.62951 0.0
O212 O 0.26906 0.14763 0.58386 0.0
C213 C 0.16852 0.16014 0.63826 0.0
O214 O 0.1922 0.10553 0.62083 0.0
O215 O 0.23061 0.11888 0.64312 0.0
C216 C 0.2271 0.11741 0.54959 0.0
O217 O 0.16465 0.15312 0.61271 0.0
O218 O 0.19217 0.15749 0.65022 0.0
C219 C 0.24103 0.20963 0.61764 0.0
Fe220 Fe 0.10526 0.99977 0.82865 0.0
Fe221 Fe 0.13453 0.94444 0.84659 0.0
O222 O 0.11522 0.9754 0.85503 0.0
Fe223 Fe 0.10544 0.9816 0.89041 0.0
O224 O 0.07331 1.00188 0.8827 0.0
O225 O 0.06798 0.99735 0.83717 0.0
O226 O 0.0984 0.97251 0.80164 0.0
C227 C 0.09484 0.94601 0.80398 0.0
C228 C 0.12439 0.03295 0.87464 0.0
O229 O 0.10648 0.93222 0.82365 0.0
C230 C 0.16047 0.95868 0.89633 0.0
O231 O 0.14129 1.00486 0.81784 0.0
O232 O 0.15367 0.96038 0.81568 0.0
O233 O 0.12646 0.01293 0.89193 0.0
O234 O 0.11076 0.03049 0.85165 0.0
C235 C 0.09382 0.92625 0.88701 0.0
O236 O 0.16399 0.9548 0.86999 0.0
O237 O 0.1358 0.9629 0.9058 0.0
C238 C 0.15699 0.986 0.80808 0.0
O239 O 0.11781 0.92285 0.87523 0.0
O240 O 0.0838 0.95057 0.88995 0.0
C241 C 0.05778 1.00265 0.86106 0.0
Fe242 Fe 0.32701 0.88131 0.09276 0.0
Fe243 Fe 0.28603 0.85811 0.13792 0.0
O244 O 0.2956 0.86329 0.1021 0.0
Fe245 Fe 0.27326 0.84997 0.0752 0.0
O246 O 0.30054 0.82615 0.06324 0.0
O247 O 0.33388 0.8587 0.06164 0.0
O248 O 0.34865 0.85613 0.11284 0.0
C249 C 0.34437 0.8484 0.13807 0.0
C250 C 0.29144 0.90066 0.05078 0.0
O251 O 0.32178 0.85406 0.15076 0.0
C252 C 0.23569 0.87403 0.11121 0.0
O253 O 0.32588 0.9063 0.123 0.0
O254 O 0.28657 0.89572 0.14543 0.0
O255 O 0.28306 0.87564 0.04849 0.0
O256 O 0.30726 0.90768 0.07131 0.0
C257 C 0.26898 0.80731 0.11608 0.0
O258 O 0.24858 0.86172 0.13106 0.0
O259 O 0.24512 0.87346 0.08623 0.0
C260 C 0.30725 0.91209 0.1415 0.0
O261 O 0.2847 0.8196 0.13377 0.0
O262 O 0.25866 0.82108 0.09586 0.0
C263 C 0.32475 0.83418 0.05537 0.0
Fe264 Fe 0.90797 0.48023 0.63033 0.0
Fe265 Fe 0.92058 0.48915 0.69318 0.0
O266 O 0.90371 0.46972 0.66607 0.0
Fe267 Fe 0.88313 0.43975 0.67538 0.0
O268 O 0.90559 0.41671 0.65404 0.0
O269 O 0.90927 0.44435 0.61658 0.0
O270 O 0.9467 0.47916 0.63225 0.0
C271 C 0.96119 0.49298 0.64984 0.0
C272 C 0.85266 0.46266 0.62774 0.0
O273 O 0.94991 0.50193 0.67209 0.0
C274 C 0.86893 0.47555 0.71887 0.0
O275 O 0.9071 0.51778 0.63867 0.0
O276 O 0.90019 0.52029 0.68477 0.0
O277 O 0.85742 0.44348 0.64592 0.0
O278 O 0.87014 0.48246 0.62432 0.0
C279 C 0.9316 0.43567 0.71066 0.0
O280 O 0.89491 0.4808 0.72041 0.0
O281 O 0.85945 0.46136 0.69811 0.0
C282 C 0.89939 0.53127 0.66044 0.0
O283 O 0.9419 0.45891 0.70256 0.0
O284 O 0.90583 0.42978 0.70573 0.0
C285 C 0.91287 0.42088 0.62867 0.0
Fe286 Fe 0.77481 0.66523 0.9443 0.0
Fe287 Fe 0.8269 0.63366 0.92298 0.0
O288 O 0.79471 0.65122 0.9158 0.0
Fe289 Fe 0.78214 0.6554 0.88082 0.0
O290 O 0.78015 0.69382 0.88436 0.0
O291 O 0.75766 0.69322 0.92443 0.0
O292 O 0.80287 0.68966 0.95269 0.0
C293 C 0.82758 0.68189 0.95906 0.0
C294 C 0.73445 0.6395 0.91283 0.0
O295 O 0.83614 0.65711 0.95298 0.0
C296 C 0.80414 0.60188 0.87623 0.0
O297 O 0.78748 0.6405 0.97069 0.0
O298 O 0.8087 0.60766 0.94633 0.0
O299 O 0.74554 0.65055 0.89114 0.0
O300 O 0.74593 0.64131 0.93686 0.0
C301 C 0.84015 0.66647 0.87589 0.0
O302 O 0.82375 0.60791 0.89356 0.0
O303 O 0.78308 0.61788 0.87348 0.0
C304 C 0.79459 0.61516 0.96791 0.0
O305 O 0.84668 0.65861 0.90064 0.0
O306 O 0.81663 0.66049 0.86508 0.0
C307 C 0.76551 0.70628 0.90272 0.0
Fe308 Fe 0.60553 0.51614 0.18863 0.0
Fe309 Fe 0.63354 0.57148 0.16876 0.0
O310 O 0.61555 0.53951 0.16132 0.0
Fe311 Fe 0.6071 0.53111 0.12604 0.0
O312 O 0.5754 0.51019 0.13406 0.0
O313 O 0.56846 0.51743 0.17906 0.0
O314 O 0.59758 0.54431 0.21441 0.0
C315 C 0.59286 0.5704 0.21045 0.0
C316 C 0.62716 0.48138 0.1452 0.0
O317 O 0.60444 0.58361 0.19038 0.0
C318 C 0.66129 0.55615 0.12032 0.0
O319 O 0.64137 0.51247 0.20034 0.0
O320 O 0.65257 0.55739 0.20068 0.0
O321 O 0.6293 0.50054 0.12695 0.0
O322 O 0.6122 0.48452 0.16725 0.0
C323 C 0.59307 0.58617 0.12682 0.0
O324 O 0.66394 0.56137 0.14651 0.0
O325 O 0.63713 0.55021 0.11048 0.0
C326 C 0.65653 0.53216 0.2093 0.0
O327 O 0.61659 0.59123 0.13899 0.0
O328 O 0.58445 0.56125 0.12405 0.0
C329 C 0.55909 0.51073 0.15517 0.0
Fe330 Fe 0.73187 0.36324 0.38183 0.0
Fe331 Fe 0.74325 0.35471 0.4448 0.0
O332 O 0.72164 0.36836 0.41743 0.0
Fe333 Fe 0.69041 0.38692 0.42631 0.0
O334 O 0.66852 0.36225 0.40597 0.0
O335 O 0.69615 0.35876 0.36855 0.0
O336 O 0.73335 0.32477 0.38587 0.0
C337 C 0.74907 0.31242 0.40347 0.0
C338 C 0.71087 0.41735 0.37762 0.0
O339 O 0.75846 0.32586 0.42438 0.0
C340 C 0.72607 0.40571 0.46846 0.0
O341 O 0.76929 0.36738 0.38952 0.0
O342 O 0.77169 0.37825 0.43468 0.0
O343 O 0.69204 0.41195 0.39602 0.0
O344 O 0.73138 0.40077 0.37416 0.0
C345 C 0.69121 0.33941 0.46342 0.0
O346 O 0.73299 0.38033 0.47146 0.0
O347 O 0.71059 0.41294 0.44776 0.0
C348 C 0.78142 0.37978 0.40986 0.0
O349 O 0.71536 0.33098 0.45577 0.0
O350 O 0.68284 0.36431 0.45743 0.0
C351 C 0.67297 0.35427 0.38084 0.0
Fe352 Fe 0.34209 0.38095 0.07731 0.0
Fe353 Fe 0.38738 0.40445 0.03663 0.0
O354 O 0.35158 0.39985 0.04636 0.0
Fe355 Fe 0.32472 0.41454 0.02489 0.0
O356 O 0.31397 0.4375 0.05323 0.0
O357 O 0.31094 0.4035 0.08488 0.0
O358 O 0.36237 0.40518 0.09964 0.0
C359 C 0.38777 0.41247 0.09562 0.0
C360 C 0.30033 0.3632 0.04094 0.0
O361 O 0.40032 0.40762 0.07265 0.0
C362 C 0.35941 0.39155 0.98558 0.0
O363 O 0.37219 0.35574 0.07571 0.0
O364 O 0.39388 0.36676 0.03623 0.0
O365 O 0.29771 0.38868 0.03402 0.0
O366 O 0.32074 0.35553 0.05656 0.0
C367 C 0.36693 0.45626 0.02078 0.0
O368 O 0.38017 0.40166 0.99902 0.0
O369 O 0.33468 0.39225 0.99557 0.0
C370 C 0.39035 0.35015 0.05672 0.0
O371 O 0.38436 0.44305 0.036 0.0
O372 O 0.34569 0.44363 0.01103 0.0
C373 C 0.30573 0.42867 0.07696 0.0
Fe374 Fe 0.82111 0.09756 0.9872 0.0
Fe375 Fe 0.84042 0.13371 0.9373 0.0
O376 O 0.84882 0.11359 0.9678 0.0
Fe377 Fe 0.88429 0.10906 0.97893 0.0
O378 O 0.88176 0.07036 0.97825 0.0
O379 O 0.84156 0.06808 1.00057 0.0
O380 O 0.81174 0.07593 0.95722 0.0
C381 C 0.80419 0.08587 0.93367 0.0
C382 C 0.85366 0.11865 0.02954 0.0
O383 O 0.80975 0.1114 0.9273 0.0
C384 C 0.88783 0.16407 0.96056 0.0
O385 O 0.79444 0.12362 0.97807 0.0
O386 O 0.81802 0.15812 0.95832 0.0
O387 O 0.87543 0.11047 0.01634 0.0
O388 O 0.82947 0.11823 0.01825 0.0
C389 C 0.88703 0.1031 0.9197 0.0
O390 O 0.87021 0.159 0.94097 0.0
O391 O 0.89069 0.14689 0.98073 0.0
C392 C 0.79699 0.14947 0.97262 0.0
O393 O 0.86179 0.1105 0.91491 0.0
O394 O 0.89867 0.10713 0.94333 0.0
C395 C 0.86362 0.05628 0.99181 0.0
Fe396 Fe 0.12911 0.5929 0.18911 0.0
Fe397 Fe 0.15231 0.63753 0.23048 0.0
O398 O 0.1485 0.60191 0.21979 0.0
Fe399 Fe 0.1647 0.57479 0.23976 0.0
O400 O 0.18703 0.56567 0.21033 0.0
O401 O 0.15196 0.56238 0.18002 0.0
O402 O 0.15295 0.61423 0.16716 0.0
C403 C 0.16005 0.63955 0.17197 0.0
C404 C 0.11336 0.54955 0.22454 0.0
O405 O 0.15401 0.65162 0.19486 0.0
C406 C 0.14126 0.6075 0.28052 0.0
O407 O 0.10333 0.62251 0.19214 0.0
O408 O 0.11454 0.6431 0.23212 0.0
O409 O 0.13918 0.54755 0.23048 0.0
O410 O 0.10457 0.57033 0.20991 0.0
C411 C 0.20525 0.61798 0.24364 0.0
O412 O 0.15082 0.62894 0.26777 0.0
O413 O 0.14304 0.58307 0.27004 0.0
C414 C 0.09778 0.64009 0.2117 0.0
O415 O 0.19088 0.63566 0.22986 0.0
O416 O 0.19374 0.59606 0.25329 0.0
C417 C 0.17754 0.55767 0.18681 0.0
Fe418 Fe 0.68961 0.90667 0.49877 0.0
Fe419 Fe 0.67049 0.87914 0.44295 0.0
O420 O 0.66261 0.89588 0.47547 0.0
Fe421 Fe 0.62711 0.90236 0.4848 0.0
O422 O 0.63411 0.93345 0.50705 0.0
O423 O 0.67815 0.94325 0.49805 0.0
O424 O 0.71482 0.9164 0.47074 0.0
C425 C 0.71123 0.9209 0.44457 0.0
C426 C 0.64765 0.88207 0.53367 0.0
O427 O 0.69139 0.90905 0.43125 0.0
C428 C 0.62325 0.84905 0.45826 0.0
O429 O 0.70309 0.87145 0.50167 0.0
O430 O 0.70298 0.8606 0.45656 0.0
O431 O 0.62969 0.87903 0.5144 0.0
O432 O 0.66887 0.89825 0.53057 0.0
C433 C 0.62638 0.91837 0.4302 0.0
O434 O 0.64931 0.84773 0.45211 0.0
O435 O 0.61242 0.87249 0.46498 0.0
C436 C 0.71205 0.85667 0.48169 0.0
O437 O 0.63995 0.89585 0.4241 0.0
O438 O 0.62341 0.92598 0.45545 0.0
C439 C 0.65429 0.95088 0.50669 0.0
Fe440 Fe 0.35383 0.44465 0.74218 0.0
Fe441 Fe 0.38385 0.42373 0.68892 0.0
O442 O 0.36749 0.41644 0.72176 0.0
Fe443 Fe 0.36439 0.38137 0.73422 0.0
O444 O 0.32602 0.38399 0.73707 0.0
O445 O 0.32578 0.42441 0.75919 0.0
O446 O 0.329 0.45367 0.71464 0.0
C447 C 0.33642 0.46053 0.68997 0.0
C448 C 0.38013 0.41299 0.78216 0.0
O449 O 0.36093 0.45433 0.68088 0.0
C450 C 0.41684 0.37736 0.71033 0.0
O451 O 0.379 0.47079 0.72952 0.0
O452 O 0.41074 0.44634 0.70634 0.0
O453 O 0.36953 0.3912 0.77094 0.0
O454 O 0.37802 0.43695 0.77069 0.0
C455 C 0.35061 0.3772 0.6769 0.0
O456 O 0.40917 0.39376 0.6905 0.0
O457 O 0.40217 0.37546 0.73245 0.0
C458 C 0.40406 0.46757 0.72137 0.0
O459 O 0.3576 0.40215 0.67029 0.0
O460 O 0.35896 0.36593 0.6995 0.0
C461 C 0.31326 0.40218 0.75171 0.0
Fe462 Fe 0.13055 0.61747 0.53168 0.0
Fe463 Fe 0.1936 0.60508 0.52287 0.0
O464 O 0.16603 0.61991 0.54338 0.0
Fe465 Fe 0.17441 0.63693 0.57559 0.0
O466 O 0.15268 0.61147 0.59525 0.0
O467 O 0.11578 0.61308 0.56688 0.0
O468 O 0.13192 0.57901 0.52928 0.0
C469 C 0.14994 0.56533 0.51525 0.0
C470 C 0.12814 0.6704 0.55458 0.0
O471 O 0.17255 0.57687 0.50735 0.0
C472 C 0.21792 0.65554 0.54143 0.0
O473 O 0.13977 0.62158 0.49479 0.0
O474 O 0.18579 0.62853 0.49381 0.0
O475 O 0.14488 0.66275 0.57413 0.0
O476 O 0.12552 0.65544 0.53277 0.0
C477 C 0.21018 0.58879 0.57519 0.0
O478 O 0.22053 0.63016 0.53409 0.0
O479 O 0.19722 0.66297 0.55691 0.0
C480 C 0.16165 0.63118 0.48288 0.0
O481 O 0.20267 0.58089 0.55091 0.0
O482 O 0.20479 0.61369 0.58363 0.0
C483 C 0.12741 0.60488 0.58937 0.0
Fe484 Fe 0.65629 0.87611 0.78316 0.0
Fe485 Fe 0.66029 0.938 0.76665 0.0
O486 O 0.64875 0.91183 0.79058 0.0
Fe487 Fe 0.63026 0.92061 0.82198 0.0
O488 O 0.64688 0.89144 0.84287 0.0
O489 O 0.67871 0.8745 0.81348 0.0
O490 O 0.68805 0.8826 0.76188 0.0
C491 C 0.70529 0.90293 0.76183 0.0
C492 C 0.60197 0.87221 0.80714 0.0
O493 O 0.69704 0.92706 0.76904 0.0
C494 C 0.60901 0.96016 0.78081 0.0
O495 O 0.63423 0.87685 0.75254 0.0
O496 O 0.6532 0.91588 0.73547 0.0
O497 O 0.59979 0.8984 0.81222 0.0
O498 O 0.62599 0.86165 0.80245 0.0
C499 C 0.6715 0.96194 0.82059 0.0
O500 O 0.62512 0.95108 0.76192 0.0
O501 O 0.61163 0.95193 0.80634 0.0
C502 C 0.63766 0.89412 0.73268 0.0
O503 O 0.66869 0.9643 0.79405 0.0
O504 O 0.65901 0.94267 0.83413 0.0
C505 C 0.67023 0.87874 0.83826 0.0
Fe506 Fe 0.88365 0.09234 0.33066 0.0
Fe507 Fe 0.86273 0.13444 0.28567 0.0
O508 O 0.86522 0.09947 0.29883 0.0
Fe509 Fe 0.84903 0.07117 0.28042 0.0
O510 O 0.82643 0.06346 0.31025 0.0
O511 O 0.86094 0.06207 0.34108 0.0
O512 O 0.85922 0.11496 0.35054 0.0
C513 C 0.85286 0.14012 0.34391 0.0
C514 C 0.9005 0.04766 0.29742 0.0
O515 O 0.8599 0.15062 0.32044 0.0
C516 C 0.87235 0.10102 0.23696 0.0
O517 O 0.90938 0.12185 0.32711 0.0
O518 O 0.90081 0.13905 0.28509 0.0
O519 O 0.87477 0.04477 0.29134 0.0
O520 O 0.90873 0.06894 0.31166 0.0
C521 C 0.80956 0.11499 0.27264 0.0
O522 O 0.86508 0.12376 0.24888 0.0
O523 O 0.87041 0.07748 0.24934 0.0
C524 C 0.91632 0.13782 0.30668 0.0
O525 O 0.82422 0.13353 0.28489 0.0
O526 O 0.82014 0.09166 0.26576 0.0
C527 C 0.83562 0.05636 0.33419 0.0
H528 H 0.94033 0.34151 0.37867 0.0
H529 H 0.9604 0.42539 0.40821 0.0
H530 H 0.89047 0.35432 0.37628 0.0
H531 H 0.91015 0.43789 0.40676 0.0
H532 H 0.81973 0.39855 0.44898 0.0
H533 H 0.86987 0.40717 0.44033 0.0
H534 H 0.85668 0.39619 0.35092 0.0
H535 H 0.80669 0.38808 0.35915 0.0
C536 C 0.93402 0.3628 0.3841 0.0
C537 C 0.95382 0.38248 0.39366 0.0
C538 C 0.90571 0.37018 0.38256 0.0
C539 C 0.89691 0.39708 0.39121 0.0
C540 C 0.91679 0.41717 0.39977 0.0
C541 C 0.94529 0.41002 0.40056 0.0
C542 C 0.82736 0.39887 0.42743 0.0
C543 C 0.80964 0.39154 0.40485 0.0
C544 C 0.85589 0.40411 0.42249 0.0
C545 C 0.86674 0.40199 0.39503 0.0
C546 C 0.84852 0.39781 0.37222 0.0
C547 C 0.82006 0.39285 0.37707 0.0
H548 H 0.88222 0.55986 0.61397 0.0
H549 H 0.91006 0.57139 0.70012 0.0
H550 H 0.88672 0.61057 0.6057 0.0
H551 H 0.91465 0.62202 0.69169 0.0
H552 H 0.95683 0.69973 0.65478 0.0
H553 H 0.95002 0.6487 0.65779 0.0
H554 H 0.86542 0.65777 0.62516 0.0
H555 H 0.87207 0.7088 0.62226 0.0
C556 C 0.88875 0.57334 0.63125 0.0
C557 C 0.89599 0.56184 0.65761 0.0
C558 C 0.8914 0.6022 0.62647 0.0
C559 C 0.90163 0.61977 0.6479 0.0
C560 C 0.90726 0.60857 0.67474 0.0
C561 C 0.90425 0.57977 0.67965 0.0
C562 C 0.93711 0.69073 0.6475 0.0
C563 C 0.91485 0.70804 0.63856 0.0
C564 C 0.93311 0.66169 0.64956 0.0
C565 C 0.90701 0.64971 0.64227 0.0
C566 C 0.88563 0.66672 0.63106 0.0
C567 C 0.88947 0.69578 0.62936 0.0
H568 H 0.69309 0.64984 0.95107 0.0
H569 H 0.70909 0.61439 0.86861 0.0
H570 H 0.64313 0.65428 0.93928 0.0
H571 H 0.65921 0.61908 0.85675 0.0
H572 H 0.57314 0.69995 0.89572 0.0
H573 H 0.62302 0.68912 0.90243 0.0
H574 H 0.60922 0.6049 0.87041 0.0
H575 H 0.5594 0.61578 0.86341 0.0
C576 C 0.6857 0.64194 0.93093 0.0
C577 C 0.70469 0.63217 0.91053 0.0
C578 C 0.65734 0.64498 0.92399 0.0
C579 C 0.64788 0.63796 0.89679 0.0
C580 C 0.66626 0.62499 0.87768 0.0
C581 C 0.69462 0.62213 0.88454 0.0
C582 C 0.58101 0.67957 0.88904 0.0
C583 C 0.56261 0.6585 0.87948 0.0
C584 C 0.60932 0.67319 0.89339 0.0
C585 C 0.61938 0.64587 0.8879 0.0
C586 C 0.60169 0.62593 0.87518 0.0
C587 C 0.57337 0.63224 0.871 0.0
H588 H 0.67696 0.30592 0.14593 0.0
H589 H 0.59035 0.32151 0.12204 0.0
H590 H 0.68829 0.35567 0.13738 0.0
H591 H 0.60193 0.37082 0.11256 0.0
H592 H 0.63049 0.45699 0.0935 0.0
H593 H 0.63958 0.40706 0.08399 0.0
H594 H 0.65846 0.39378 0.17215 0.0
H595 H 0.6485 0.44336 0.18189 0.0
C596 C 0.66067 0.31981 0.13789 0.0
C597 C 0.6327 0.31043 0.13512 0.0
C598 C 0.66722 0.34801 0.13283 0.0
C599 C 0.64599 0.36663 0.12418 0.0
C600 C 0.61866 0.35654 0.11883 0.0
C601 C 0.61195 0.3286 0.12462 0.0
C602 C 0.63743 0.44352 0.11063 0.0
C603 C 0.63823 0.4535 0.13852 0.0
C604 C 0.64281 0.41519 0.10512 0.0
C605 C 0.64977 0.39701 0.12735 0.0
C606 C 0.65347 0.40771 0.1547 0.0
C607 C 0.64739 0.43581 0.16033 0.0
H608 H 0.45753 0.09612 0.60743 0.0
H609 H 0.44496 0.18118 0.63751 0.0
H610 H 0.40629 0.08803 0.60888 0.0
H611 H 0.39415 0.17284 0.63985 0.0
H612 H 0.30726 0.14347 0.65845 0.0
H613 H 0.35747 0.13583 0.66542 0.0
H614 H 0.36764 0.11954 0.57642 0.0
H615 H 0.31719 0.12759 0.56902 0.0
C616 C 0.44382 0.11267 0.6152 0.0
C617 C 0.45476 0.13925 0.62235 0.0
C618 C 0.41474 0.10808 0.6159 0.0
C619 C 0.39668 0.12981 0.62456 0.0
C620 C 0.40789 0.15574 0.6334 0.0
C621 C 0.43676 0.16055 0.63199 0.0
C622 C 0.32 0.13783 0.64034 0.0
C623 C 0.30844 0.13695 0.61299 0.0
C624 C 0.34864 0.13323 0.64448 0.0
C625 C 0.36607 0.12725 0.62145 0.0
C626 C 0.35431 0.12393 0.59448 0.0
C627 C 0.32559 0.12883 0.59023 0.0
H628 H 0.17062 0.20848 0.88658 0.0
H629 H 0.08149 0.19145 0.89634 0.0
H630 H 0.1811 0.15887 0.896 0.0
H631 H 0.09217 0.1421 0.90667 0.0
H632 H 0.12078 0.05518 0.92716 0.0
H633 H 0.12711 0.10494 0.93961 0.0
H634 H 0.15575 0.1224 0.85486 0.0
H635 H 0.14841 0.07302 0.84206 0.0
C636 C 0.15341 0.19433 0.89178 0.0
C637 C 0.1252 0.2033 0.89011 0.0
C638 C 0.15948 0.16618 0.89739 0.0
C639 C 0.13741 0.14713 0.90212 0.0
C640 C 0.10946 0.15675 0.90342 0.0
C641 C 0.10333 0.18471 0.89711 0.0
C642 C 0.12924 0.06958 0.91151 0.0
C643 C 0.13366 0.06081 0.88356 0.0
C644 C 0.13302 0.09778 0.91871 0.0
C645 C 0.14206 0.11701 0.89819 0.0
C646 C 0.14916 0.10761 0.87104 0.0
C647 C 0.14462 0.07964 0.86363 0.0
H648 H 0.07246 0.83178 0.14247 0.0
H649 H 0.05797 0.91872 0.11805 0.0
H650 H 0.12317 0.84142 0.14451 0.0
H651 H 0.1084 0.92767 0.1194 0.0
H652 H 0.19588 0.89194 0.07324 0.0
H653 H 0.14537 0.89688 0.08272 0.0
H654 H 0.15997 0.88139 0.17127 0.0
H655 H 0.2103 0.87731 0.16236 0.0
C656 C 0.07998 0.85293 0.13807 0.0
C657 C 0.06138 0.87427 0.12954 0.0
C658 C 0.10881 0.85845 0.13936 0.0
C659 C 0.11914 0.88519 0.13187 0.0
C660 C 0.10057 0.90695 0.12513 0.0
C661 C 0.07181 0.90165 0.12432 0.0
C662 C 0.18842 0.89044 0.0948 0.0
C663 C 0.2068 0.88338 0.11689 0.0
C664 C 0.15969 0.89334 0.1002 0.0
C665 C 0.14931 0.88905 0.12761 0.0
C666 C 0.16783 0.8845 0.15001 0.0
C667 C 0.1965 0.88206 0.14475 0.0
H668 H 0.45947 0.81837 0.36325 0.0
H669 H 0.37612 0.80912 0.39913 0.0
H670 H 0.45247 0.8694 0.36034 0.0
H671 H 0.36906 0.85992 0.39601 0.0
H672 H 0.37898 0.95704 0.40236 0.0
H673 H 0.38646 0.90712 0.41213 0.0
H674 H 0.41849 0.89552 0.32755 0.0
H675 H 0.41137 0.94563 0.31781 0.0
C676 C 0.44012 0.82737 0.37142 0.0
C677 C 0.41817 0.81005 0.3811 0.0
C678 C 0.43594 0.85639 0.36935 0.0
C679 C 0.40995 0.86823 0.37725 0.0
C680 C 0.38918 0.85118 0.38961 0.0
C681 C 0.39325 0.82222 0.39146 0.0
C682 C 0.3871 0.94367 0.38569 0.0
C683 C 0.39479 0.95508 0.35941 0.0
C684 C 0.3915 0.91524 0.39135 0.0
C685 C 0.40372 0.89787 0.37082 0.0
C686 C 0.40972 0.90884 0.34393 0.0
C687 C 0.40515 0.93729 0.33818 0.0
H688 H 0.32145 0.39973 0.94341 0.0
H689 H 0.40713 0.37319 0.96019 0.0
H690 H 0.33304 0.40501 0.8935 0.0
H691 H 0.41854 0.37835 0.91008 0.0
H692 H 0.40292 0.36789 0.80864 0.0
H693 H 0.40033 0.35861 0.85933 0.0
H694 H 0.37046 0.44352 0.87317 0.0
H695 H 0.37317 0.45297 0.82259 0.0
C696 C 0.34244 0.39414 0.93628 0.0
C697 C 0.36355 0.38644 0.95549 0.0
C698 C 0.34915 0.39756 0.90792 0.0
C699 C 0.37684 0.39288 0.89856 0.0
C700 C 0.3972 0.38244 0.91718 0.0
C701 C 0.39061 0.37936 0.94563 0.0
C702 C 0.39678 0.38484 0.8227 0.0
C703 C 0.38775 0.41095 0.81192 0.0
C704 C 0.39523 0.37949 0.85151 0.0
C705 C 0.38443 0.40015 0.86958 0.0
C706 C 0.37831 0.4272 0.85922 0.0
C707 C 0.38019 0.43269 0.83045 0.0
H708 H 0.81386 0.1076 0.06958 0.0
H709 H 0.89984 0.13607 0.05833 0.0
H710 H 0.82227 0.10265 0.12024 0.0
H711 H 0.90814 0.13112 0.10895 0.0
H712 H 0.89429 0.14436 0.20688 0.0
H713 H 0.8903 0.15136 0.156 0.0
H714 H 0.85499 0.06777 0.14734 0.0
H715 H 0.85901 0.06066 0.1983 0.0
C716 C 0.83428 0.11349 0.07804 0.0
C717 C 0.85628 0.12206 0.06016 0.0
C718 C 0.8392 0.11024 0.10686 0.0
C719 C 0.86602 0.11591 0.11814 0.0
C720 C 0.88738 0.12643 0.10059 0.0
C721 C 0.88258 0.12935 0.07176 0.0
C722 C 0.88636 0.12723 0.19397 0.0
C723 C 0.87677 0.10206 0.20638 0.0
C724 C 0.884 0.13129 0.16498 0.0
C725 C 0.87176 0.11033 0.1481 0.0
C726 C 0.86399 0.0844 0.1602 0.0
C727 C 0.86667 0.08019 0.18919 0.0
H728 H 0.11913 0.65355 0.30554 0.0
H729 H 0.15036 0.56951 0.32247 0.0
H730 H 0.12321 0.66519 0.35559 0.0
H731 H 0.15435 0.58124 0.37246 0.0
H732 H 0.20128 0.62391 0.44213 0.0
H733 H 0.19105 0.61947 0.3919 0.0
H734 H 0.10585 0.64838 0.40625 0.0
H735 H 0.11598 0.65296 0.45658 0.0
C736 C 0.12602 0.63737 0.32016 0.0
C737 C 0.13498 0.61087 0.31038 0.0
C738 C 0.12843 0.64408 0.34858 0.0
C739 C 0.13997 0.62435 0.36722 0.0
C740 C 0.1461 0.5969 0.35798 0.0
C741 C 0.14344 0.59009 0.3296 0.0
C742 C 0.18075 0.63035 0.43442 0.0
C743 C 0.15917 0.63816 0.45304 0.0
C744 C 0.1748 0.62742 0.40588 0.0
C745 C 0.14744 0.63267 0.39587 0.0
C746 C 0.12693 0.64384 0.41386 0.0
C747 C 0.13278 0.64655 0.44245 0.0
H748 H 0.6837 0.86581 0.57488 0.0
H749 H 0.59514 0.87661 0.55575 0.0
H750 H 0.67192 0.85924 0.6247 0.0
H751 H 0.58365 0.87109 0.60574 0.0
H752 H 0.6201 0.92817 0.69038 0.0
H753 H 0.61402 0.91472 0.64092 0.0
H754 H 0.63083 0.82779 0.66219 0.0
H755 H 0.63585 0.84092 0.71187 0.0
C756 C 0.66174 0.86597 0.58128 0.0
C757 C 0.64036 0.87212 0.56187 0.0
C758 C 0.655 0.86192 0.60954 0.0
C759 C 0.62695 0.86463 0.61854 0.0
C760 C 0.60532 0.86859 0.59888 0.0
C761 C 0.61197 0.8719 0.57049 0.0
C762 C 0.62153 0.90611 0.68455 0.0
C763 C 0.62876 0.8856 0.70453 0.0
C764 C 0.61777 0.8984 0.65652 0.0
C765 C 0.62186 0.87029 0.64828 0.0
C766 C 0.62723 0.84947 0.66847 0.0
C767 C 0.63023 0.85705 0.69667 0.0
H768 H 0.18659 0.5218 0.50934 0.0
H769 H 0.09962 0.54496 0.4954 0.0
H770 H 0.17846 0.47661 0.48539 0.0
H771 H 0.09182 0.50009 0.47058 0.0
H772 H 0.10621 0.43679 0.39582 0.0
H773 H 0.12232 0.47957 0.42007 0.0
H774 H 0.13611 0.43143 0.49606 0.0
H775 H 0.11895 0.38883 0.47211 0.0
C776 C 0.16568 0.51707 0.50137 0.0
C777 C 0.14367 0.53678 0.50431 0.0
C778 C 0.16113 0.49133 0.48762 0.0
C779 C 0.13469 0.4852 0.47587 0.0
C780 C 0.11248 0.50458 0.47929 0.0
C781 C 0.11684 0.53004 0.4937 0.0
C782 C 0.11408 0.43508 0.41724 0.0
C783 C 0.11201 0.4094 0.43193 0.0
C784 C 0.12275 0.45961 0.43124 0.0
C785 C 0.13008 0.4587 0.45995 0.0
C786 C 0.13057 0.43258 0.47391 0.0
C787 C 0.12121 0.40818 0.4601 0.0
H788 H 0.82791 0.86264 0.63659 0.0
H789 H 0.88061 0.87475 0.70976 0.0
H790 H 0.78758 0.88165 0.66226 0.0
H791 H 0.83991 0.89394 0.73573 0.0
H792 H 0.75074 0.93958 0.76097 0.0
H793 H 0.7955 0.9336 0.73518 0.0
H794 H 0.76729 0.8522 0.70585 0.0
H795 H 0.72334 0.85769 0.73157 0.0
C796 C 0.83112 0.87065 0.65778 0.0
C797 C 0.85735 0.86746 0.67116 0.0
C798 C 0.808 0.88126 0.67255 0.0
C799 C 0.81057 0.88883 0.70108 0.0
C800 C 0.83744 0.88834 0.71371 0.0
C801 C 0.86075 0.87761 0.69882 0.0
C802 C 0.75426 0.92034 0.74918 0.0
C803 C 0.73335 0.89917 0.74827 0.0
C804 C 0.77983 0.91696 0.73448 0.0
C805 C 0.7846 0.89264 0.71821 0.0
C806 C 0.76398 0.87136 0.71787 0.0
C807 C 0.73883 0.87447 0.73281 0.0
H808 H 0.4305 0.62302 0.96869 0.0
H809 H 0.38597 0.58676 0.89824 0.0
H810 H 0.41396 0.58466 0.99918 0.0
H811 H 0.3692 0.54841 0.92852 0.0
H812 H 0.33054 0.49055 0.99271 0.0
H813 H 0.34024 0.5353 0.96973 0.0
H814 H 0.42562 0.53324 1.00146 0.0
H815 H 0.41587 0.48803 0.0248 0.0
C816 C 0.41608 0.60747 0.9601 0.0
C817 C 0.40872 0.60824 0.93138 0.0
C818 C 0.40706 0.58524 0.97739 0.0
C819 C 0.39043 0.56333 0.96629 0.0
C820 C 0.38171 0.56509 0.93788 0.0
C821 C 0.39101 0.58719 0.92054 0.0
C822 C 0.35139 0.49964 0.99509 0.0
C823 C 0.37259 0.48537 0.01033 0.0
C824 C 0.35692 0.52535 0.98179 0.0
C825 C 0.38376 0.53773 0.98342 0.0
C826 C 0.40462 0.52432 0.9999 0.0
C827 C 0.3991 0.49837 0.01322 0.0
H828 H 0.63538 0.15258 0.22645 0.0
H829 H 0.6846 0.15377 0.14991 0.0
H830 H 0.67626 0.13446 0.25255 0.0
H831 H 0.7257 0.13648 0.17619 0.0
H832 H 0.78944 0.16534 0.25283 0.0
H833 H 0.74484 0.17297 0.2275 0.0
H834 H 0.72097 0.08647 0.24265 0.0
H835 H 0.76577 0.07851 0.26735 0.0
C836 C 0.6545 0.1475 0.21498 0.0
C837 C 0.65676 0.1539 0.18611 0.0
C838 C 0.67792 0.13759 0.22996 0.0
C839 C 0.70398 0.13454 0.21631 0.0
C840 C 0.70569 0.13876 0.18703 0.0
C841 C 0.68211 0.14813 0.17194 0.0
C842 C 0.77444 0.14815 0.25122 0.0
C843 C 0.78098 0.12137 0.26203 0.0
C844 C 0.74917 0.15241 0.23652 0.0
C845 C 0.72989 0.13013 0.23297 0.0
C846 C 0.7357 0.10381 0.24502 0.0
C847 C 0.76119 0.09938 0.25919 0.0
H848 H 0.68479 0.99945 0.49817 0.0
H849 H 0.61676 0.96455 0.54789 0.0
H850 H 0.67867 0.04507 0.52209 0.0
H851 H 0.61122 0.00961 0.57202 0.0
H852 H 0.61925 0.08568 0.62594 0.0
H853 H 0.64045 0.04322 0.60539 0.0
H854 H 0.63508 0.08062 0.52251 0.0
H855 H 0.61331 0.12266 0.54299 0.0
C856 C 0.66872 1.00147 0.51431 0.0
C857 C 0.65108 0.97851 0.52096 0.0
C858 C 0.66531 0.02748 0.52802 0.0
C859 C 0.64475 0.03072 0.54916 0.0
C860 C 0.62757 1.00758 0.55616 0.0
C861 C 0.63051 0.98189 0.54207 0.0
C862 C 0.62393 0.08534 0.60355 0.0
C863 C 0.61497 0.10748 0.58603 0.0
C864 C 0.6357 0.06094 0.59175 0.0
C865 C 0.63912 0.05857 0.56234 0.0
C866 C 0.63285 0.08194 0.54523 0.0
C867 C 0.62056 0.10605 0.55695 0.0
H868 H 0.28305 0.43496 0.78821 0.0
H869 H 0.27837 0.35693 0.74123 0.0
H870 H 0.23705 0.42539 0.80894 0.0
H871 H 0.23235 0.34724 0.76234 0.0
H872 H 0.17582 0.37211 0.86761 0.0
H873 H 0.2168 0.39215 0.84327 0.0
H874 H 0.18337 0.36341 0.76347 0.0
H875 H 0.14286 0.34312 0.78792 0.0
C876 C 0.27218 0.41577 0.78217 0.0
C877 C 0.28457 0.3966 0.76311 0.0
C878 C 0.2458 0.41029 0.7942 0.0
C879 C 0.23096 0.38561 0.78734 0.0
C880 C 0.24303 0.3667 0.76781 0.0
C881 C 0.26953 0.37211 0.75584 0.0
C882 C 0.17666 0.3713 0.84478 0.0
C883 C 0.15619 0.35621 0.82961 0.0
C884 C 0.20026 0.38249 0.8308 0.0
C885 C 0.20368 0.37875 0.80146 0.0
C886 C 0.18174 0.36603 0.78612 0.0
C887 C 0.15831 0.35484 0.80005 0.0
H888 H 0.92354 0.88898 0.0474 0.0
H889 H 0.8812 0.9303 0.11638 0.0
H890 H 0.9078 0.92629 0.01514 0.0
H891 H 0.8647 0.96714 0.08417 0.0
H892 H 0.82592 0.02074 0.01634 0.0
H893 H 0.8349 0.97621 0.03993 0.0
H894 H 0.92207 0.97987 0.0139 0.0
H895 H 0.91324 0.02523 0.99026 0.0
C896 C 0.9096 0.90527 0.05531 0.0
C897 C 0.90284 0.9064 0.08418 0.0
C898 C 0.90106 0.92687 0.03698 0.0
C899 C 0.88521 0.94973 0.04716 0.0
C900 C 0.8767 0.94967 0.07564 0.0
C901 C 0.88578 0.92842 0.09405 0.0
C902 C 0.84704 0.01208 0.01527 0.0
C903 C 0.86902 0.02696 1.00175 0.0
C904 C 0.8521 0.98647 0.02886 0.0
C905 C 0.87919 0.97469 0.02905 0.0
C906 C 0.90089 0.98845 0.014 0.0
C907 C 0.89588 0.01443 1.00051 0.0
H908 H 0.38129 0.64361 0.30402 0.0
H909 H 0.3197 0.66867 0.36623 0.0
H910 H 0.34271 0.62762 0.27279 0.0
H911 H 0.28171 0.65358 0.33507 0.0
H912 H 0.22873 0.66977 0.25452 0.0
H913 H 0.27308 0.67884 0.27969 0.0
H914 H 0.2917 0.58982 0.27977 0.0
H915 H 0.24713 0.58056 0.25518 0.0
C916 C 0.3597 0.64465 0.31145 0.0
C917 C 0.35346 0.65723 0.33758 0.0
C918 C 0.33768 0.63596 0.29346 0.0
C919 C 0.30935 0.64011 0.30139 0.0
C920 C 0.30336 0.65065 0.32833 0.0
C921 C 0.32513 0.65893 0.34626 0.0
C922 C 0.24262 0.65224 0.25921 0.0
C923 C 0.23436 0.62446 0.2531 0.0
C924 C 0.2679 0.6574 0.27368 0.0
C925 C 0.28564 0.63496 0.28167 0.0
C926 C 0.27844 0.60743 0.27371 0.0
C927 C 0.25292 0.6022 0.25975 0.0
H928 H 0.3924 0.1131 0.44082 0.0
H929 H 0.45874 0.1239 0.37941 0.0
H930 H 0.42275 0.13322 0.4773 0.0
H931 H 0.48938 0.14403 0.4163 0.0
H932 H 0.5059 0.19613 0.51467 0.0
H933 H 0.47919 0.18993 0.47057 0.0
H934 H 0.48122 0.09977 0.48207 0.0
H935 H 0.50778 0.10558 0.52573 0.0
C936 C 0.41303 0.12104 0.43487 0.0
C937 C 0.42317 0.11719 0.40728 0.0
C938 C 0.4304 0.1324 0.45576 0.0
C939 C 0.4583 0.14006 0.44951 0.0
C940 C 0.46779 0.13853 0.42145 0.0
C941 C 0.45022 0.12725 0.40036 0.0
C942 C 0.50123 0.17496 0.50745 0.0
C943 C 0.50878 0.15135 0.52394 0.0
C944 C 0.48597 0.17149 0.48225 0.0
C945 C 0.47822 0.1444 0.47315 0.0
C946 C 0.48705 0.12085 0.48874 0.0
C947 C 0.50221 0.12425 0.51376 0.0
H948 H 0.14545 0.13466 0.68335 0.0
H949 H 0.14381 0.21197 0.63546 0.0
H950 H 0.12585 0.15926 0.72411 0.0
H951 H 0.12397 0.2368 0.67643 0.0
H952 H 0.07723 0.26359 0.76302 0.0
H953 H 0.0825 0.23851 0.7178 0.0
H954 H 0.15746 0.19779 0.74951 0.0
H955 H 0.15272 0.22291 0.79397 0.0
C956 C 0.13936 0.15659 0.68107 0.0
C957 C 0.14573 0.17133 0.65616 0.0
C958 C 0.12852 0.17077 0.70451 0.0
C959 C 0.12383 0.20001 0.70355 0.0
C960 C 0.12728 0.21422 0.67769 0.0
C961 C 0.13832 0.19997 0.65415 0.0
C962 C 0.09487 0.24935 0.76021 0.0
C963 C 0.11456 0.24527 0.78214 0.0
C964 C 0.09785 0.23505 0.73438 0.0
C965 C 0.12013 0.21591 0.73035 0.0
C966 C 0.13981 0.21207 0.75219 0.0
C967 C 0.1372 0.22668 0.77761 0.0
H968 H 0.11694 0.90831 0.93573 0.0
H969 H 0.04241 0.90159 0.884 0.0
H970 H 0.08929 0.89474 0.97725 0.0
H971 H 0.0149 0.88707 0.92538 0.0
H972 H 0.98953 0.8416 0.01434 0.0
H973 H 0.01472 0.84737 0.96941 0.0
H974 H 0.0454 0.92844 0.99723 0.0
H975 H 0.01947 0.92303 0.04182 0.0
C976 C 0.09508 0.90218 0.93294 0.0
C977 C 0.0819 0.90542 0.90661 0.0
C978 C 0.07914 0.89504 0.95677 0.0
C979 C 0.04993 0.89044 0.95447 0.0
C980 C 0.03738 0.89062 0.92765 0.0
C981 C 0.0532 0.8984 0.90392 0.0
C982 C 1.00089 0.86106 0.01035 0.0
C983 C 1.00221 0.88214 0.03118 0.0
C984 C 0.01547 0.86419 0.98486 0.0
C985 C 0.03232 0.88808 0.9802 0.0
C986 C 0.03276 0.90967 1.00057 0.0
C987 C 0.0176 0.90684 0.02579 0.0
H988 H 0.38466 0.8657 0.17472 0.0
H989 H 0.34518 0.79172 0.13967 0.0
H990 H 0.40233 0.83763 0.21424 0.0
H991 H 0.36261 0.76344 0.17924 0.0
H992 H 0.35634 0.7422 0.27647 0.0
H993 H 0.34799 0.76368 0.23014 0.0
H994 H 0.43234 0.79815 0.23069 0.0
H995 H 0.4407 0.77701 0.2766 0.0
C996 C 0.38115 0.84311 0.17471 0.0
C997 C 0.36434 0.83068 0.15377 0.0
C998 C 0.3909 0.82703 0.19752 0.0
C999 C 0.38354 0.79833 0.20008 0.0
C1000 C 0.36837 0.78553 0.17804 0.0
C1001 C 0.35892 0.80156 0.15508 0.0
C1002 C 0.37316 0.75412 0.26657 0.0
C1003 C 0.39904 0.75808 0.28052 0.0
C1004 C 0.36847 0.76628 0.23994 0.0
C1005 C 0.38951 0.78275 0.22677 0.0
C1006 C 0.41561 0.78589 0.24035 0.0
C1007 C 0.42035 0.77367 0.26674 0.0
H1008 H 0.98667 0.32081 0.4921 0.0
H1009 H 0.02323 0.404 0.49896 0.0
H1010 H 0.96268 0.32762 0.53751 0.0
H1011 H 0.99999 0.4104 0.54457 0.0
H1012 H 0.96817 0.40887 0.63327 0.0
H1013 H 0.99748 0.38789 0.59618 0.0
H1014 H 0.92246 0.36639 0.54924 0.0
H1015 H 0.8933 0.38813 0.586 0.0
C1016 C 0.9902 0.34021 0.50367 0.0
C1017 C 1.00676 0.36194 0.492 0.0
C1018 C 0.9764 0.3441 0.52955 0.0
C1019 C 0.9796 0.36946 0.54455 0.0
C1020 C 0.99742 0.39051 0.5336 0.0
C1021 C 0.01061 0.38692 0.50746 0.0
C1022 C 0.95798 0.39841 0.61567 0.0
C1023 C 0.92854 0.39951 0.61265 0.0
C1024 C 0.97472 0.38672 0.59434 0.0
C1025 C 0.96221 0.37561 0.56985 0.0
C1026 C 0.93261 0.37451 0.56804 0.0
C1027 C 0.91591 0.38675 0.58911 0.0
H1028 H 0.88189 0.65207 0.83909 0.0
H1029 H 0.83553 0.72283 0.87217 0.0
H1030 H 0.89898 0.68149 0.80013 0.0
H1031 H 0.85236 0.75237 0.83326 0.0
H1032 H 0.8522 0.77638 0.73662 0.0
H1033 H 0.84166 0.75301 0.78162 0.0
H1034 H 0.9275 0.72297 0.78624 0.0
H1035 H 0.93804 0.74605 0.74174 0.0
C1036 C 0.8765 0.67428 0.83873 0.0
C1037 C 0.85816 0.68543 0.85907 0.0
C1038 C 0.88597 0.69111 0.81626 0.0
C1039 C 0.8768 0.71928 0.81339 0.0
C1040 C 0.85958 0.73074 0.83463 0.0
C1041 C 0.8504 0.71399 0.85721 0.0
C1042 C 0.86889 0.76512 0.74743 0.0
C1043 C 0.89586 0.76295 0.73526 0.0
C1044 C 0.86291 0.75178 0.77328 0.0
C1045 C 0.88372 0.73587 0.78745 0.0
C1046 C 0.91088 0.73463 0.77575 0.0
C1047 C 0.91688 0.74804 0.75017 0.0
H1048 H 0.61649 0.62244 0.08855 0.0
H1049 H 0.53702 0.59429 0.1229 0.0
H1050 H 0.59178 0.64192 0.04756 0.0
H1051 H 0.51223 0.61389 0.08227 0.0
H1052 H 0.53634 0.68406 0.98167 0.0
H1053 H 0.55702 0.67518 0.02774 0.0
H1054 H 0.51104 0.59665 0.0332 0.0
H1055 H 0.48996 0.60562 0.98694 0.0
C1056 C 0.59364 0.62173 0.08801 0.0
C1057 C 0.57863 0.60701 0.10886 0.0
C1058 C 0.57945 0.63257 0.0644 0.0
C1059 C 0.55008 0.62881 0.06137 0.0
C1060 C 0.5349 0.61652 0.08366 0.0
C1061 C 0.54904 0.60574 0.10713 0.0
C1062 C 0.53041 0.66492 0.99268 0.0
C1063 C 0.51158 0.6454 0.98042 0.0
C1064 C 0.54241 0.65986 0.01912 0.0
C1065 C 0.53576 0.63525 0.03415 0.0
C1066 C 0.51636 0.61603 0.02229 0.0
C1067 C 0.50441 0.62103 0.99569 0.0
H1068 H 0.63439 0.37275 0.34263 0.0
H1069 H 0.66844 0.29772 0.381 0.0
H1070 H 0.61416 0.34416 0.30452 0.0
H1071 H 0.6487 0.2691 0.34279 0.0
H1072 H 0.65933 0.24898 0.24535 0.0
H1073 H 0.66646 0.27119 0.29127 0.0
H1074 H 0.58083 0.30206 0.28987 0.0
H1075 H 0.57342 0.27923 0.24396 0.0
C1076 C 0.63624 0.34999 0.34364 0.0
C1077 C 0.6523 0.33731 0.36506 0.0
C1078 C 0.6249 0.33363 0.32173 0.0
C1079 C 0.63007 0.30441 0.32056 0.0
C1080 C 0.64446 0.29156 0.3431 0.0
C1081 C 0.6554 0.30786 0.36517 0.0
C1082 C 0.64186 0.26011 0.25503 0.0
C1083 C 0.61584 0.26237 0.241 0.0
C1084 C 0.64589 0.27269 0.28141 0.0
C1085 C 0.62417 0.28832 0.29422 0.0
C1086 C 0.59792 0.29013 0.28051 0.0
C1087 C 0.59367 0.27697 0.25431 0.0
H1088 H 0.52599 0.5126 0.10836 0.0
H1089 H 0.5263 0.48436 0.19502 0.0
H1090 H 0.47936 0.49168 0.10171 0.0
H1091 H 0.47968 0.46273 0.18809 0.0
H1092 H 0.42523 0.39269 0.1342 0.0
H1093 H 0.46408 0.4202 0.15455 0.0
H1094 H 0.42769 0.49642 0.12056 0.0
H1095 H 0.38868 0.46891 0.10078 0.0
C1096 C 0.51596 0.50213 0.12606 0.0
C1097 C 0.52983 0.50006 0.15217 0.0
C1098 C 0.48918 0.49032 0.12232 0.0
C1099 C 0.47585 0.47568 0.14444 0.0
C1100 C 0.48946 0.47396 0.17073 0.0
C1101 C 0.51606 0.48639 0.17469 0.0
C1102 C 0.42477 0.41549 0.13255 0.0
C1103 C 0.4037 0.42883 0.11658 0.0
C1104 C 0.44709 0.43122 0.14395 0.0
C1105 C 0.449 0.46041 0.1389 0.0
C1106 C 0.42675 0.47396 0.12472 0.0
C1107 C 0.40425 0.4583 0.11374 0.0
H1108 H 0.02701 0.03192 0.8217 0.0
H1109 H 0.02289 0.99873 0.90649 0.0
H1110 H 0.98093 0.05464 0.82844 0.0
H1111 H 0.97675 0.02075 0.9129 0.0
H1112 H 0.8866 0.04694 0.91184 0.0
H1113 H 0.92547 0.01914 0.89223 0.0
H1114 H 0.96594 0.09572 0.86398 0.0
H1115 H 0.92724 0.12348 0.88421 0.0
C1116 C 0.01601 0.029 0.84153 0.0
C1117 C 0.02859 0.01361 0.86362 0.0
C1118 C 0.98973 0.04207 0.84539 0.0
C1119 C 0.97521 0.03934 0.87112 0.0
C1120 C 0.98728 0.02295 0.89272 0.0
C1121 C 0.01377 0.01048 0.88911 0.0
C1122 C 0.90312 0.05766 0.90018 0.0
C1123 C 0.90368 0.08724 0.89889 0.0
C1124 C 0.92552 0.04182 0.88931 0.0
C1125 C 0.94879 0.05529 0.87673 0.0
C1126 C 0.94815 0.08477 0.87329 0.0
C1127 C 0.92593 0.10065 0.88463 0.0
H1128 H 0.14497 0.68006 0.13455 0.0
H1129 H 0.21673 0.63738 0.17046 0.0
H1130 H 0.17581 0.71793 0.1178 0.0
H1131 H 0.24775 0.6755 0.15421 0.0
H1132 H 0.27442 0.77267 0.16295 0.0
H1133 H 0.25107 0.727 0.17063 0.0
H1134 H 0.21671 0.73031 0.08634 0.0
H1135 H 0.23981 0.77535 0.07858 0.0
C1136 C 0.16756 0.67814 0.13755 0.0
C1137 C 0.17864 0.65545 0.15294 0.0
C1138 C 0.18523 0.69995 0.12832 0.0
C1139 C 0.21422 0.69981 0.13493 0.0
C1140 C 0.22551 0.67627 0.14897 0.0
C1141 C 0.20788 0.65422 0.15776 0.0
C1142 C 0.26228 0.76339 0.14595 0.0
C1143 C 0.2586 0.77798 0.12038 0.0
C1144 C 0.24899 0.73721 0.15028 0.0
C1145 C 0.23177 0.72524 0.12914 0.0
C1146 C 0.22944 0.73915 0.10315 0.0
C1147 C 0.24275 0.76504 0.09878 0.0
H1148 H 0.47275 1.00115 0.4199 0.0
H1149 H 0.5046 0.02331 0.3375 0.0
H1150 H 0.51596 0.97408 0.42916 0.0
H1151 H 0.54815 0.99702 0.34714 0.0
H1152 H 0.63074 0.96987 0.40561 0.0
H1153 H 0.59074 0.99854 0.38933 0.0
H1154 H 0.53557 0.92679 0.39915 0.0
H1155 H 0.5757 0.89797 0.41443 0.0
C1156 C 0.48936 1.00101 0.40419 0.0
C1157 C 0.48548 0.01452 0.37811 0.0
C1158 C 0.51386 0.98523 0.4093 0.0
C1159 C 0.53514 0.98325 0.38868 0.0
C1160 C 0.53201 0.99816 0.3633 0.0
C1161 C 0.50722 0.01331 0.3579 0.0
C1162 C 0.61036 0.9599 0.40274 0.0
C1163 C 0.60642 0.93153 0.41042 0.0
C1164 C 0.58743 0.97638 0.39389 0.0
C1165 C 0.56009 0.96493 0.39347 0.0
C1166 C 0.55645 0.93613 0.39952 0.0
C1167 C 0.57946 0.91951 0.4077 0.0
H1168 H 0.29475 0.3737 0.68593 0.0
H1169 H 0.36146 0.34144 0.63332 0.0
H1170 H 0.26339 0.33591 0.66987 0.0
H1171 H 0.3302 0.30368 0.61693 0.0
H1172 H 0.26361 0.24716 0.58074 0.0
H1173 H 0.28637 0.29195 0.59093 0.0
H1174 H 0.26312 0.28373 0.67866 0.0
H1175 H 0.2401 0.23848 0.66842 0.0
C1176 C 0.30226 0.35914 0.66999 0.0
C1177 C 0.33021 0.36082 0.66022 0.0
C1178 C 0.28448 0.33726 0.66115 0.0
C1179 C 0.29432 0.31665 0.64228 0.0
C1180 C 0.32183 0.31939 0.63124 0.0
C1181 C 0.33971 0.34113 0.64035 0.0
C1182 C 0.263 0.25496 0.60222 0.0
C1183 C 0.25035 0.23895 0.62388 0.0
C1184 C 0.27617 0.28066 0.60802 0.0
C1185 C 0.27695 0.29125 0.63563 0.0
C1186 C 0.2628 0.27619 0.65709 0.0
C1187 C 0.24962 0.25025 0.65128 0.0
H1188 H 0.99059 0.4917 0.5992 0.0
H1189 H 0.99781 0.51781 0.68628 0.0
H1190 H 0.03543 0.51561 0.58877 0.0
H1191 H 0.04193 0.54161 0.67579 0.0
H1192 H 0.08954 0.61688 0.63078 0.0
H1193 H 0.05204 0.58537 0.6474 0.0
H1194 H 0.08835 0.5169 0.59959 0.0
H1195 H 0.12605 0.54847 0.58344 0.0
C1196 C 1.00189 0.50202 0.61617 0.0
C1197 C 0.99028 0.50312 0.64345 0.0
C1198 C 0.02758 0.51572 0.61023 0.0
C1199 C 0.04203 0.53085 0.63143 0.0
C1200 C 0.03113 0.53058 0.65892 0.0
C1201 C 1.00577 0.51682 0.66488 0.0
C1202 C 0.09019 0.59478 0.62499 0.0
C1203 C 0.11109 0.58484 0.6066 0.0
C1204 C 0.06858 0.57676 0.6342 0.0
C1205 C 0.0671 0.54864 0.62461 0.0
C1206 C 0.08879 0.53845 0.60717 0.0
C1207 C 0.11061 0.55636 0.59835 0.0
H1208 H 0.7295 0.73553 0.93666 0.0
H1209 H 0.77553 0.74232 0.85814 0.0
H1210 H 0.70816 0.78137 0.92834 0.0
H1211 H 0.75382 0.78839 0.84976 0.0
H1212 H 0.72611 0.87724 0.84778 0.0
H1213 H 0.75179 0.8374 0.86782 0.0
H1214 H 0.67291 0.80043 0.8948 0.0
H1215 H 0.6473 0.8406 0.87486 0.0
C1216 C 0.73523 0.74684 0.91763 0.0
C1217 C 0.75413 0.73506 0.8979 0.0
C1218 C 0.72287 0.77314 0.9129 0.0
C1219 C 0.72923 0.78852 0.88844 0.0
C1220 C 0.74873 0.77719 0.86904 0.0
C1221 C 0.76103 0.75071 0.87369 0.0
C1222 C 0.71442 0.8612 0.85919 0.0
C1223 C 0.68478 0.86199 0.85995 0.0
C1224 C 0.72907 0.83817 0.8702 0.0
C1225 C 0.71435 0.81543 0.88221 0.0
C1226 C 0.68487 0.81763 0.88564 0.0
C1227 C 0.67016 0.84078 0.87456 0.0
H1228 H 0.78322 0.28166 0.43797 0.0
H1229 H 0.74056 0.2774 0.35746 0.0
H1230 H 0.8057 0.23662 0.42873 0.0
H1231 H 0.76342 0.23191 0.34818 0.0
H1232 H 0.79604 0.14164 0.34687 0.0
H1233 H 0.76755 0.18137 0.36377 0.0
H1234 H 0.843 0.22134 0.39571 0.0
H1235 H 0.87123 0.18171 0.37859 0.0
C1236 C 0.77844 0.27106 0.41829 0.0
C1237 C 0.76026 0.28349 0.39828 0.0
C1238 C 0.79146 0.24517 0.41302 0.0
C1239 C 0.78661 0.23072 0.38765 0.0
C1240 C 0.76749 0.24242 0.36806 0.0
C1241 C 0.75448 0.26856 0.37329 0.0
C1242 C 0.80624 0.15838 0.35866 0.0
C1243 C 0.83567 0.15826 0.36232 0.0
C1244 C 0.79004 0.18137 0.36783 0.0
C1245 C 0.80298 0.20465 0.38093 0.0
C1246 C 0.83227 0.20365 0.38601 0.0
C1247 C 0.84847 0.18083 0.37651 0.0
H1248 H 0.06363 0.55129 0.25496 0.0
H1249 H 0.12419 0.49394 0.21901 0.0
H1250 H 0.0444 0.51272 0.28371 0.0
H1251 H 0.10606 0.45585 0.24807 0.0
H1252 H 0.0665 0.38682 0.30066 0.0
H1253 H 0.07341 0.42225 0.26357 0.0
H1254 H 0.05845 0.48849 0.32433 0.0
H1255 H 0.0507 0.45348 0.36064 0.0
C1256 C 0.0721 0.53024 0.25236 0.0
C1257 C 0.09524 0.52571 0.2344 0.0
C1258 C 0.06153 0.50811 0.26934 0.0
C1259 C 0.07393 0.48091 0.2689 0.0
C1260 C 0.09561 0.47611 0.24917 0.0
C1261 C 0.10606 0.49811 0.23231 0.0
C1262 C 0.0644 0.40894 0.30599 0.0
C1263 C 0.05816 0.41702 0.33388 0.0
C1264 C 0.0685 0.42941 0.28469 0.0
C1265 C 0.06657 0.45863 0.29062 0.0
C1266 C 0.05965 0.46647 0.31841 0.0
C1267 C 0.05547 0.44613 0.33953 0.0
H1268 H 0.87122 0.85149 0.5625 0.0
H1269 H 0.84028 0.76777 0.5808 0.0
H1270 H 0.83269 0.85831 0.52892 0.0
H1271 H 0.80209 0.77443 0.54701 0.0
H1272 H 0.71625 0.81575 0.52133 0.0
H1273 H 0.75908 0.80063 0.54531 0.0
H1274 H 0.80918 0.84682 0.48475 0.0
H1275 H 0.7658 0.86205 0.46081 0.0
C1276 C 0.85662 0.83426 0.55899 0.0
C1277 C 0.85905 0.8091 0.57471 0.0
C1278 C 0.83442 0.83815 0.53954 0.0
C1279 C 0.81383 0.81706 0.53518 0.0
C1280 C 0.81708 0.79143 0.54997 0.0
C1281 C 0.83925 0.78752 0.56933 0.0
C1282 C 0.73645 0.82155 0.51229 0.0
C1283 C 0.73749 0.83947 0.48861 0.0
C1284 C 0.76119 0.81307 0.52625 0.0
C1285 C 0.78794 0.8226 0.51731 0.0
C1286 C 0.78909 0.83922 0.49256 0.0
C1287 C 0.76421 0.84747 0.47837 0.0
H1288 H 0.44646 0.4651 0.76023 0.0
H1289 H 0.40292 0.52205 0.70446 0.0
H1290 H 0.46389 0.50524 0.78767 0.0
H1291 H 0.4206 0.56229 0.73132 0.0
H1292 H 0.41645 0.61873 0.81125 0.0
H1293 H 0.40856 0.5817 0.77641 0.0
H1294 H 0.49138 0.54785 0.79346 0.0
H1295 H 0.49914 0.58468 0.82855 0.0
C1296 C 0.44197 0.48627 0.75286 0.0
C1297 C 0.42394 0.49035 0.72967 0.0
C1298 C 0.45164 0.50942 0.76885 0.0
C1299 C 0.4433 0.53725 0.76217 0.0
C1300 C 0.42707 0.54129 0.73759 0.0
C1301 C 0.41743 0.51821 0.72172 0.0
C1302 C 0.43319 0.6037 0.80732 0.0
C1303 C 0.45841 0.6049 0.82296 0.0
C1304 C 0.42872 0.58238 0.78714 0.0
C1305 C 0.44929 0.56148 0.78194 0.0
C1306 C 0.47486 0.56322 0.79699 0.0
C1307 C 0.47937 0.58459 0.81707 0.0
H1308 H 0.70371 0.21182 0.11037 0.0
H1309 H 0.636 0.19801 0.05101 0.0
H1310 H 0.73811 0.2039 0.07358 0.0
H1311 H 0.67084 0.19094 0.01342 0.0
H1312 H 0.74112 0.13967 0.96742 0.0
H1313 H 0.70368 0.15801 0.99708 0.0
H1314 H 0.76203 0.21827 0.03289 0.0
H1315 H 0.79996 0.1988 1.00354 0.0
C1316 C 0.69601 0.20743 0.0893 0.0
C1317 C 0.66678 0.20535 0.08396 0.0
C1318 C 0.71599 0.20317 0.06791 0.0
C1319 C 0.70767 0.19681 0.04012 0.0
C1320 C 0.67835 0.19542 0.03451 0.0
C1321 C 0.65822 0.19959 0.0561 0.0
C1322 C 0.74576 0.15755 0.9809 0.0
C1323 C 0.77359 0.16787 0.98288 0.0
C1324 C 0.72414 0.16812 0.99811 0.0
C1325 C 0.72955 0.18943 0.01806 0.0
C1326 C 0.75697 0.2014 0.01836 0.0
C1327 C 0.77873 0.19071 1.00105 0.0
H1328 H 0.57427 0.96185 0.73585 0.0
H1329 H 0.60551 0.01348 0.80378 0.0
H1330 H 0.5578 1.00346 0.71123 0.0
H1331 H 0.58821 0.05589 0.77938 0.0
H1332 H 0.5933 0.12279 0.70521 0.0
H1333 H 0.6004 0.08461 0.73952 0.0
H1334 H 0.52761 0.04122 0.70578 0.0
H1335 H 0.52167 0.07843 0.67095 0.0
C1336 C 0.5764 0.98215 0.74618 0.0
C1337 C 0.59069 0.98417 0.77209 0.0
C1338 C 0.56701 1.00627 0.73194 0.0
C1339 C 0.57164 0.0335 0.74301 0.0
C1340 C 0.58448 0.03546 0.76988 0.0
C1341 C 0.59386 0.01108 0.78426 0.0
C1342 C 0.57854 0.10533 0.70559 0.0
C1343 C 0.55706 0.10358 0.68516 0.0
C1344 C 0.58255 0.08334 0.72532 0.0
C1345 C 0.56495 0.05922 0.72533 0.0
C1346 C 0.54224 0.05877 0.70611 0.0
C1347 C 0.53861 0.08034 0.6862 0.0
H1348 H 0.3037 0.32816 0.99588 0.0
H1349 H 0.24609 0.35849 0.05909 0.0
H1350 H 0.26419 0.31135 0.96769 0.0
H1351 H 0.20618 0.34053 0.03176 0.0
H1352 H 0.14199 0.34304 0.95758 0.0
H1353 H 0.1794 0.35154 0.99221 0.0
H1354 H 0.22711 0.2821 0.95735 0.0
H1355 H 0.19054 0.27487 0.92216 0.0
C1356 C 0.28258 0.32975 1.00452 0.0
C1357 C 0.27817 0.34379 0.03021 0.0
C1358 C 0.25965 0.32033 0.98818 0.0
C1359 C 0.23146 0.32462 0.99703 0.0
C1360 C 0.22728 0.33718 0.0237 0.0
C1361 C 0.25025 0.34689 0.03984 0.0
C1362 C 0.1603 0.32939 0.95766 0.0
C1363 C 0.16328 0.30843 0.93691 0.0
C1364 C 0.1819 0.33416 0.97763 0.0
C1365 C 0.20691 0.3178 0.9777 0.0
C1366 C 0.20888 0.29582 0.95778 0.0
C1367 C 0.18763 0.29144 0.93764 0.0
H1368 H 0.89682 0.99234 0.31095 0.0
H1369 H 0.9436 0.05039 0.25897 0.0
H1370 H 0.91443 0.95277 0.28318 0.0
H1371 H 0.96088 0.01092 0.23047 0.0
H1372 H 0.99653 0.93267 0.18811 0.0
H1373 H 0.98765 0.96866 0.22371 0.0
H1374 H 0.90463 0.93381 0.23791 0.0
H1375 H 0.91373 0.89748 0.20261 0.0
C1376 C 0.91185 0.99653 0.29422 0.0
C1377 C 0.91937 0.02453 0.28769 0.0
C1378 C 0.9215 0.97383 0.27782 0.0
C1379 C 0.93874 0.97837 0.25402 0.0
C1380 C 0.94785 1.0063 0.24866 0.0
C1381 C 0.93823 0.02907 0.26524 0.0
C1382 C 0.97647 0.93235 0.19908 0.0
C1383 C 0.95586 0.91192 0.19226 0.0
C1384 C 0.97129 0.95328 0.21946 0.0
C1385 C 0.94533 0.95457 0.23385 0.0
C1386 C 0.92508 0.93352 0.22773 0.0
C1387 C 0.93026 0.91256 0.20731 0.0
H1388 H 0.27268 0.65501 0.55789 0.0
H1389 H 0.21572 0.69586 0.50018 0.0
H1390 H 0.31295 0.67216 0.53066 0.0
H1391 H 0.25591 0.71268 0.47231 0.0
H1392 H 0.37179 0.66757 0.45281 0.0
H1393 H 0.33396 0.65976 0.48678 0.0
H1394 H 0.29799 0.74065 0.46543 0.0
H1395 H 0.33574 0.74831 0.43113 0.0
C1396 C 0.2688 0.66878 0.54003 0.0
C1397 C 0.2409 0.67482 0.53185 0.0
C1398 C 0.29195 0.67811 0.52393 0.0
C1399 C 0.28802 0.69352 0.49877 0.0
C1400 C 0.26008 0.70115 0.49159 0.0
C1401 C 0.23688 0.69181 0.50782 0.0
C1402 C 0.35611 0.68395 0.45559 0.0
C1403 C 0.35715 0.70862 0.43902 0.0
C1404 C 0.33429 0.67951 0.47529 0.0
C1405 C 0.31255 0.69952 0.47914 0.0
C1406 C 0.31399 0.72453 0.46305 0.0
C1407 C 0.33593 0.72904 0.44344 0.0
H1408 H 0.21178 0.06854 0.51921 0.0
H1409 H 0.27946 0.12828 0.53151 0.0
H1410 H 0.23746 0.04906 0.4779 0.0
H1411 H 0.30413 0.10955 0.49102 0.0
H1412 H 0.31647 0.10233 0.39653 0.0
H1413 H 0.28484 0.11191 0.43602 0.0
H1414 H 0.2949 0.02657 0.46568 0.0
H1415 H 0.32708 0.01682 0.4262 0.0
C1416 C 0.2323 0.07697 0.51373 0.0
C1417 C 0.24346 0.10003 0.52884 0.0
C1418 C 0.24689 0.06603 0.48994 0.0
C1419 C 0.27261 0.0782 0.48087 0.0
C1420 C 0.28423 0.1 0.49706 0.0
C1421 C 0.27004 0.11058 0.52055 0.0
C1422 C 0.31153 0.08529 0.41095 0.0
C1423 C 0.32467 0.05881 0.40803 0.0
C1424 C 0.29336 0.09083 0.43369 0.0
C1425 C 0.28733 0.07002 0.45406 0.0
C1426 C 0.29888 0.04297 0.45026 0.0
C1427 C 0.31744 0.03747 0.42762 0.0
H1428 H 0.19315 0.03017 0.80435 0.0
H1429 H 0.15664 0.96339 0.75469 0.0
H1430 H 0.20933 0.05358 0.76151 0.0
H1431 H 0.17275 0.98695 0.71132 0.0
H1432 H 0.24787 0.08591 0.68155 0.0
H1433 H 0.23997 0.05333 0.72051 0.0
H1434 H 0.15921 0.03043 0.68522 0.0
H1435 H 0.16717 0.06309 0.64593 0.0
C1436 C 0.18962 0.01986 0.78424 0.0
C1437 C 0.1742 0.9945 0.7831 0.0
C1438 C 0.19874 0.03343 0.75952 0.0
C1439 C 0.19229 0.02239 0.73267 0.0
C1440 C 0.17798 0.99627 0.73152 0.0
C1441 C 0.1692 0.98241 0.75642 0.0
C1442 C 0.22856 0.07365 0.6817 0.0
C1443 C 0.20812 0.07747 0.66039 0.0
C1444 C 0.22396 0.05498 0.70429 0.0
C1445 C 0.19878 0.0393 0.70643 0.0
C1446 C 0.17896 0.04191 0.68434 0.0
C1447 C 0.18352 0.06075 0.66172 0.0
H1448 H 0.21795 0.94913 0.88754 0.0
H1449 H 0.15641 0.96029 0.95376 0.0
H1450 H 0.25477 0.9426 0.92337 0.0
H1451 H 0.19237 0.9529 0.98904 0.0
H1452 H 0.25974 0.94927 0.05315 0.0
H1453 H 0.23141 0.96832 0.0143 0.0
H1454 H 0.27198 0.91052 0.95668 0.0
H1455 H 0.30073 0.89269 0.99519 0.0
C1456 C 0.2122 0.95021 0.90963 0.0
C1457 C 0.18397 0.95517 0.91746 0.0
C1458 C 0.23336 0.94636 0.93034 0.0
C1459 C 0.22693 0.94728 0.95953 0.0
C1460 C 0.19872 0.95264 0.9671 0.0
C1461 C 0.17778 0.95659 0.94657 0.0
C1462 C 0.26361 0.94178 0.03191 0.0
C1463 C 0.28293 0.91981 0.02728 0.0
C1464 C 0.24683 0.95216 0.00958 0.0
C1465 C 0.24864 0.9406 0.98206 0.0
C1466 C 0.26975 0.92029 0.9772 0.0
C1467 C 0.28652 0.91009 0.99941 0.0
H1468 H 0.27137 0.93133 0.18302 0.0
H1469 H 0.35366 0.94677 0.1471 0.0
H1470 H 0.2806 0.96649 0.21944 0.0
H1471 H 0.36321 0.98134 0.18386 0.0
H1472 H 0.37209 0.05366 0.24284 0.0
H1473 H 0.35439 0.02592 0.20329 0.0
H1474 H 0.30699 0.97396 0.2614 0.0
H1475 H 0.32416 1.00265 0.30082 0.0
C1476 C 0.2914 0.94236 0.18268 0.0
C1477 C 0.31173 0.93602 0.16186 0.0
C1478 C 0.2968 0.96248 0.20385 0.0
C1479 C 0.32275 0.97699 0.20501 0.0
C1480 C 0.34276 0.97116 0.18369 0.0
C1481 C 0.33732 0.95111 0.16248 0.0
C1482 C 0.35693 0.03703 0.24701 0.0
C1483 C 0.34901 0.03084 0.27496 0.0
C1484 C 0.34719 0.02065 0.22433 0.0
C1485 C 0.32958 0.99709 0.22885 0.0
C1486 C 0.32029 0.99195 0.25676 0.0
C1487 C 0.32991 0.0086 0.2795 0.0
H1488 H 0.7091 0.40681 0.52303 0.0
H1489 H 0.76839 0.4448 0.46564 0.0
H1490 H 0.73638 0.4242 0.56315 0.0
H1491 H 0.7963 0.46183 0.50564 0.0
H1492 H 0.838 0.49829 0.58411 0.0
H1493 H 0.80356 0.49055 0.54664 0.0
H1494 H 0.77953 0.41159 0.5853 0.0
H1495 H 0.81365 0.41957 0.62299 0.0
C1496 C 0.72734 0.42002 0.519 0.0
C1497 C 0.73594 0.42523 0.49104 0.0
C1498 C 0.74345 0.42948 0.54207 0.0
C1499 C 0.76903 0.44415 0.53798 0.0
C1500 C 0.77668 0.45091 0.50993 0.0
C1501 C 0.76044 0.44146 0.48682 0.0
C1502 C 0.8251 0.47944 0.58495 0.0
C1503 C 0.82882 0.4596 0.60689 0.0
C1504 C 0.80539 0.47487 0.56317 0.0
C1505 C 0.78856 0.45034 0.56252 0.0
C1506 C 0.79164 0.43097 0.585 0.0
C1507 C 0.8114 0.43551 0.60676 0.0
H1508 H 0.8855 0.4756 0.77314 0.0
H1509 H 0.81468 0.49848 0.72092 0.0
H1510 H 0.86692 0.50279 0.81152 0.0
H1511 H 0.79417 0.52451 0.7607 0.0
H1512 H 0.78544 0.59973 0.82175 0.0
H1513 H 0.79607 0.56509 0.78564 0.0
H1514 H 0.84038 0.51486 0.84777 0.0
H1515 H 0.8317 0.5511 0.88308 0.0
C1516 C 0.8652 0.48571 0.77019 0.0
C1517 C 0.85175 0.48486 0.74369 0.0
C1518 C 0.85424 0.50142 0.79261 0.0
C1519 C 0.82889 0.51666 0.78983 0.0
C1520 C 0.81413 0.51393 0.76387 0.0
C1521 C 0.82552 0.49839 0.74104 0.0
C1522 C 0.79733 0.58115 0.82773 0.0
C1523 C 0.80791 0.57841 0.85539 0.0
C1524 C 0.80333 0.56094 0.80687 0.0
C1525 C 0.81959 0.53677 0.81303 0.0
C1526 C 0.82873 0.53338 0.84133 0.0
C1527 C 0.82348 0.5541 0.86196 0.0
H1528 H 0.65852 0.55323 0.06285 0.0
H1529 H 0.71827 0.56755 0.13009 0.0
H1530 H 0.69503 0.56094 0.02819 0.0
H1531 H 0.75569 0.5743 0.09495 0.0
H1532 H 0.80247 0.62367 0.02365 0.0
H1533 H 0.77319 0.60575 0.06164 0.0
H1534 H 0.73478 0.54668 1.00373 0.0
H1535 H 0.76359 0.56592 0.9653 0.0
C1536 C 0.67963 0.5577 0.0704 0.0
C1537 C 0.68513 0.55993 0.0996 0.0
C1538 C 0.7009 0.56183 0.05024 0.0
C1539 C 0.7288 0.56815 0.05828 0.0
C1540 C 0.73454 0.56983 0.08758 0.0
C1541 C 0.71304 0.56586 0.10791 0.0
C1542 C 0.78858 0.60603 0.01925 0.0
C1543 C 0.78571 0.59607 0.99137 0.0
C1544 C 0.77151 0.59575 0.04119 0.0
C1545 C 0.75083 0.57502 0.03608 0.0
C1546 C 0.74979 0.56319 0.00863 0.0
C1547 C 0.76688 0.57368 0.98655 0.0
H1548 H 0.74828 0.43578 0.33739 0.0
H1549 H 0.66467 0.45226 0.36953 0.0
H1550 H 0.74021 0.46886 0.29893 0.0
H1551 H 0.65647 0.48535 0.33065 0.0
H1552 H 0.652 0.55348 0.26289 0.0
H1553 H 0.66775 0.53001 0.30639 0.0
H1554 H 0.71243 0.46838 0.25643 0.0
H1555 H 0.69666 0.49178 0.21346 0.0
C1556 C 0.72823 0.44669 0.33654 0.0
C1557 C 0.70708 0.44098 0.35672 0.0
C1558 C 0.72353 0.46566 0.31423 0.0
C1559 C 0.69754 0.47974 0.31123 0.0
C1560 C 0.67686 0.47518 0.33222 0.0
C1561 C 0.68155 0.45607 0.35459 0.0
C1562 C 0.66631 0.53573 0.26132 0.0
C1563 C 0.67375 0.52502 0.23464 0.0
C1564 C 0.67486 0.52185 0.28627 0.0
C1565 C 0.69129 0.49703 0.28518 0.0
C1566 C 0.70016 0.48753 0.25842 0.0
C1567 C 0.69132 0.50113 0.23362 0.0
H1568 H 0.50483 0.21311 0.11379 0.0
H1569 H 0.55473 0.27956 0.07683 0.0
H1570 H 0.46154 0.23657 0.0974 0.0
H1571 H 0.51195 0.30279 0.06023 0.0
H1572 H 0.43198 0.3333 0.02022 0.0
H1573 H 0.47075 0.30081 0.02894 0.0
H1574 H 0.43622 0.28128 0.11091 0.0
H1575 H 0.39713 0.31399 0.10222 0.0
C1576 C 0.50662 0.23204 0.10107 0.0
C1577 C 0.5333 0.2441 0.096 0.0
C1578 C 0.48178 0.2458 0.09213 0.0
C1579 C 0.48308 0.27174 0.07755 0.0
C1580 C 0.50994 0.28275 0.07105 0.0
C1581 C 0.53459 0.26931 0.08039 0.0
C1582 C 0.43226 0.32184 0.04001 0.0
C1583 C 0.41128 0.32664 0.06058 0.0
C1584 C 0.45471 0.30321 0.04505 0.0
C1585 C 0.45696 0.28852 0.07077 0.0
C1586 C 0.43518 0.29203 0.09077 0.0
C1587 C 0.41271 0.31089 0.08579 0.0
H1588 H 1.00057 0.30283 0.90419 0.0
H1589 H 0.05166 0.23977 0.94498 0.0
H1590 H 0.95772 0.2787 0.92073 0.0
H1591 H 0.00936 0.21564 0.96142 0.0
H1592 H 0.92959 0.18011 0.99764 0.0
H1593 H 0.96781 0.21371 0.99012 0.0
H1594 H 0.93309 0.23509 0.90866 0.0
H1595 H 0.89454 0.20166 0.91637 0.0
C1596 C 1.00268 0.2846 0.91784 0.0
C1597 C 0.02964 0.27372 0.92392 0.0
C1598 C 0.97809 0.27034 0.92684 0.0
C1599 C 0.97979 0.2449 0.94232 0.0
C1600 C 1.00687 0.23523 0.94993 0.0
C1601 C 0.03131 0.24926 0.94068 0.0
C1602 C 0.92973 0.19225 0.97827 0.0
C1603 C 0.90878 0.18783 0.95759 0.0
C1604 C 0.95191 0.21151 0.97385 0.0
C1605 C 0.954 0.22715 0.94861 0.0
C1606 C 0.93228 0.22376 0.9285 0.0
C1607 C 0.91008 0.20441 0.9329 0.0
H1608 H 0.97599 0.75011 0.13152 0.0
H1609 H 0.99822 0.79798 0.20548 0.0
H1610 H 1.00136 0.70992 0.14909 0.0
H1611 H 0.02229 0.75646 0.22486 0.0
H1612 H 0.09567 0.69359 0.23304 0.0
H1613 H 0.06212 0.73073 0.22308 0.0
H1614 H 0.01241 0.67202 0.17383 0.0
H1615 H 0.04768 0.63557 0.18204 0.0
C1616 C 0.98544 0.75163 0.15231 0.0
C1617 C 0.98497 0.77746 0.167 0.0
C1618 C 1.00014 0.72821 0.16264 0.0
C1619 C 0.01475 0.7293 0.18852 0.0
C1620 C 0.01225 0.75456 0.20446 0.0
C1621 C 0.99777 0.7784 0.19373 0.0
C1622 C 0.07743 0.6885 0.22022 0.0
C1623 C 0.07463 0.66143 0.20819 0.0
C1624 C 0.05781 0.71001 0.21459 0.0
C1625 C 0.03411 0.70519 0.19722 0.0
C1626 C 0.03058 0.67747 0.18649 0.0
C1627 C 0.05074 0.65616 0.19146 0.0
H1628 H 0.52381 0.70074 0.40404 0.0
H1629 H 0.46458 0.76074 0.4375 0.0
H1630 H 0.56303 0.729 0.4219 0.0
H1631 H 0.5034 0.78998 0.45415 0.0
H1632 H 0.57647 0.83786 0.48937 0.0
H1633 H 0.54076 0.80179 0.48218 0.0
H1634 H 0.5884 0.76929 0.4115 0.0
H1635 H 0.625 0.80477 0.41999 0.0
C1636 C 0.51917 0.71946 0.41631 0.0
C1637 C 0.49097 0.72789 0.42024 0.0
C1638 C 0.54175 0.73619 0.42595 0.0
C1639 C 0.53691 0.76237 0.43926 0.0
C1640 C 0.5085 0.76994 0.44452 0.0
C1641 C 0.48595 0.75294 0.43522 0.0
C1642 C 0.57955 0.82272 0.47252 0.0
C1643 C 0.60369 0.82435 0.45523 0.0
C1644 C 0.55877 0.80206 0.46815 0.0
C1645 C 0.56096 0.78247 0.44588 0.0
C1646 C 0.58572 0.78353 0.42913 0.0
C1647 C 0.60687 0.80401 0.43389 0.0
H1648 H 0.55411 0.26438 0.65117 0.0
H1649 H 0.48784 0.2133 0.6868 0.0
H1650 H 0.53018 0.30718 0.66812 0.0
H1651 H 0.4642 0.25563 0.7041 0.0
H1652 H 0.43425 0.33528 0.74617 0.0
H1653 H 0.46667 0.29664 0.73654 0.0
H1654 H 0.48458 0.33187 0.65451 0.0
H1655 H 0.45185 0.37073 0.66402 0.0
C1656 C 0.53511 0.26223 0.66371 0.0
C1657 C 0.52325 0.23538 0.66828 0.0
C1658 C 0.5211 0.28677 0.67299 0.0
C1659 C 0.49512 0.285 0.68744 0.0
C1660 C 0.48426 0.25796 0.69338 0.0
C1661 C 0.49793 0.23359 0.68365 0.0
C1662 C 0.44533 0.33518 0.72618 0.0
C1663 C 0.44008 0.35628 0.70582 0.0
C1664 C 0.46392 0.31281 0.72062 0.0
C1665 C 0.47818 0.31086 0.69465 0.0
C1666 C 0.47416 0.33271 0.67483 0.0
C1667 C 0.45528 0.35502 0.68027 0.0
H1668 H 0.02567 0.81056 0.62011 0.0
H1669 H 0.96821 0.75949 0.5717 0.0
H1670 H 0.06548 0.78335 0.60225 0.0
H1671 H 1.00798 0.73146 0.55419 0.0
H1672 H 0.08751 0.69069 0.51824 0.0
H1673 H 0.05072 0.72543 0.52762 0.0
H1674 H 0.08441 0.73809 0.61133 0.0
H1675 H 0.12144 0.70378 0.60176 0.0
C1676 C 0.02166 0.7941 0.60477 0.0
C1677 C 0.99377 0.78767 0.59684 0.0
C1678 C 0.0445 0.77803 0.59493 0.0
C1679 C 0.04021 0.75463 0.57712 0.0
C1680 C 0.01239 0.74935 0.56768 0.0
C1681 C 0.98946 0.76564 0.57746 0.0
C1682 C 0.08739 0.70116 0.53855 0.0
C1683 C 0.10772 0.69425 0.5592 0.0
C1684 C 0.066 0.72102 0.54402 0.0
C1685 C 0.06422 0.73478 0.57031 0.0
C1686 C 0.08509 0.72845 0.59064 0.0
C1687 C 0.10644 0.70857 0.58519 0.0
H1688 H 0.45365 0.76956 0.85468 0.0
H1689 H 0.51706 0.71217 0.82445 0.0
H1690 H 0.48132 0.80957 0.83752 0.0
H1691 H 0.5456 0.75175 0.80853 0.0
H1692 H 0.59304 0.82562 0.77528 0.0
H1693 H 0.55727 0.78928 0.78062 0.0
H1694 H 0.5206 0.83596 0.84987 0.0
H1695 H 0.55582 0.87322 0.84317 0.0
C1696 C 0.47297 0.76546 0.84317 0.0
C1697 C 0.48259 0.73756 0.83998 0.0
C1698 C 0.48934 0.7885 0.83398 0.0
C1699 C 0.51624 0.78441 0.82187 0.0
C1700 C 0.52498 0.75626 0.81722 0.0
C1701 C 0.5084 0.73327 0.82609 0.0
C1702 C 0.57704 0.82835 0.79139 0.0
C1703 C 0.57743 0.85237 0.80886 0.0
C1704 C 0.55655 0.80723 0.79469 0.0
C1705 C 0.53594 0.80896 0.81607 0.0
C1706 C 0.53571 0.83365 0.83291 0.0
C1707 C 0.55602 0.85515 0.82919 0.0
H1708 H 0.93131 0.1806 0.27036 0.0
H1709 H 0.95301 0.14533 0.35154 0.0
H1710 H 0.96303 0.22018 0.279 0.0
H1711 H 0.98494 0.18509 0.36009 0.0
H1712 H 0.05246 0.25459 0.36217 0.0
H1713 H 0.02902 0.21123 0.34589 0.0
H1714 H 0.96144 0.2612 0.31091 0.0
H1715 H 0.98463 0.30409 0.32747 0.0
C1716 C 0.94317 0.18092 0.2899 0.0
C1717 C 0.93928 0.15954 0.31027 0.0
C1718 C 0.96133 0.20387 0.29492 0.0
C1719 C 0.97653 0.20617 0.32036 0.0
C1720 C 0.97382 0.18407 0.34015 0.0
C1721 C 0.95538 0.1612 0.33525 0.0
C1722 C 0.03319 0.25631 0.34999 0.0
C1723 C 0.02079 0.28293 0.34552 0.0
C1724 C 0.01945 0.2314 0.34109 0.0
C1725 C 0.99315 0.2325 0.32713 0.0
C1726 C 0.98173 0.25931 0.32126 0.0
C1727 C 0.99515 0.28404 0.33059 0.0
H1728 H 0.13 0.30168 0.43062 0.0
H1729 H 0.05221 0.26132 0.45593 0.0
H1730 H 0.15625 0.27082 0.46213 0.0
H1731 H 0.07849 0.23084 0.48808 0.0
H1732 H 0.13922 0.16388 0.52499 0.0
H1733 H 0.11188 0.19239 0.49177 0.0
H1734 H 0.16361 0.26482 0.51159 0.0
H1735 H 0.19116 0.23636 0.54409 0.0
C1736 C 0.11845 0.28617 0.44284 0.0
C1737 C 0.08892 0.2841 0.44069 0.0
C1738 C 0.13353 0.26858 0.46115 0.0
C1739 C 0.11953 0.24847 0.47799 0.0
C1740 C 0.09005 0.24589 0.47533 0.0
C1741 C 0.07494 0.26347 0.45691 0.0
C1742 C 0.14469 0.18591 0.5223 0.0
C1743 C 0.16759 0.1977 0.53711 0.0
C1744 C 0.12894 0.20231 0.5033 0.0
C1745 C 0.13566 0.23091 0.49869 0.0
C1746 C 0.15817 0.24275 0.51402 0.0
C1747 C 0.1739 0.22641 0.53288 0.0
H1748 H 0.08689 0.88906 0.79943 0.0
H1749 H 0.06112 0.9682 0.76219 0.0
H1750 H 0.05467 0.86393 0.76849 0.0
H1751 H 0.02821 0.94293 0.73151 0.0
H1752 H 0.99071 0.88281 0.66331 0.0
H1753 H 0.02385 0.91015 0.692 0.0
H1754 H 1.00481 0.85736 0.7639 0.0
H1755 H 0.9724 0.82987 0.7353 0.0
C1756 C 0.0744 0.90116 0.78459 0.0
C1757 C 0.07661 0.93073 0.78345 0.0
C1758 C 0.05569 0.88671 0.76695 0.0
C1759 C 0.03847 0.90138 0.74771 0.0
C1760 C 0.04122 0.93091 0.74594 0.0
C1761 C 0.06006 0.94542 0.76361 0.0
C1762 C 0.9935 0.87718 0.68529 0.0
C1763 C 0.97905 0.85393 0.69687 0.0
C1764 C 0.01246 0.8929 0.70177 0.0
C1765 C 0.01736 0.88576 0.73022 0.0
C1766 C 1.00218 0.86308 0.74192 0.0
C1767 C 0.98337 0.84739 0.72551 0.0
H1768 H 0.45527 0.73275 0.97676 0.0
H1769 H 0.38454 0.72505 0.91963 0.0
H1770 H 0.42737 0.76314 1.0073 0.0
H1771 H 0.35663 0.75568 0.95035 0.0
H1772 H 0.308 0.78501 0.03004 0.0
H1773 H 0.33536 0.75472 0.99875 0.0
H1774 H 0.40645 0.81131 1.00599 0.0
H1775 H 0.37919 0.84164 0.03742 0.0
C1776 C 0.43377 0.73752 0.97067 0.0
C1777 C 0.42219 0.72648 0.94564 0.0
C1778 C 0.41784 0.75511 0.98813 0.0
C1779 C 0.38985 0.76191 0.98118 0.0
C1780 C 0.3781 0.75066 0.95635 0.0
C1781 C 0.39413 0.73322 0.9387 0.0
C1782 C 0.32946 0.79106 0.02498 0.0
C1783 C 0.34139 0.81581 0.03627 0.0
C1784 C 0.34506 0.77376 1.00689 0.0
C1785 C 0.37304 0.78063 0.99989 0.0
C1786 C 0.38501 0.80532 0.0112 0.0
C1787 C 0.36933 0.82277 0.0291 0.0
H1788 H 0.51272 0.21596 0.20855 0.0
H1789 H 0.55102 0.13764 0.18196 0.0
H1790 H 0.48184 0.1898 0.24062 0.0
H1791 H 0.51991 0.11166 0.21336 0.0
H1792 H 0.48597 0.0764 0.2951 0.0
H1793 H 0.51471 0.10441 0.2632 0.0
H1794 H 0.44253 0.15641 0.24346 0.0
H1795 H 0.41367 0.12855 0.27604 0.0
C1796 C 0.51435 0.19318 0.20927 0.0
C1797 C 0.53452 0.17897 0.19273 0.0
C1798 C 0.49657 0.17817 0.22761 0.0
C1799 C 0.49856 0.14861 0.22985 0.0
C1800 C 0.51818 0.13444 0.21269 0.0
C1801 C 0.53592 0.14938 0.19447 0.0
C1802 C 0.47613 0.09382 0.28404 0.0
C1803 C 0.44739 0.10003 0.28803 0.0
C1804 C 0.49263 0.10982 0.26556 0.0
C1805 C 0.4809 0.13249 0.2504 0.0
C1806 C 0.4523 0.13919 0.25486 0.0
C1807 C 0.43573 0.12315 0.27348 0.0
H1808 H 0.63431 0.21488 0.58653 0.0
H1809 H 0.55726 0.25324 0.55647 0.0
H1810 H 0.66169 0.24642 0.55649 0.0
H1811 H 0.58457 0.28416 0.52582 0.0
H1812 H 0.64327 0.35332 0.49285 0.0
H1813 H 0.61606 0.32348 0.52481 0.0
H1814 H 0.67261 0.25401 0.50802 0.0
H1815 H 0.70022 0.28401 0.4768 0.0
C1816 C 0.62318 0.23003 0.57352 0.0
C1817 C 0.59355 0.23149 0.574 0.0
C1818 C 0.63889 0.24801 0.5561 0.0
C1819 C 0.6254 0.26782 0.53853 0.0
C1820 C 0.59576 0.26948 0.53928 0.0
C1821 C 0.58006 0.25161 0.55682 0.0
C1822 C 0.6499 0.33167 0.49597 0.0
C1823 C 0.67404 0.32115 0.48231 0.0
C1824 C 0.6342 0.31449 0.51423 0.0
C1825 C 0.64213 0.28628 0.51917 0.0
C1826 C 0.66613 0.27574 0.50524 0.0
C1827 C 0.68189 0.29294 0.48713 0.0
H1828 H 0.91487 0.38873 0.7406 0.0
H1829 H 0.98775 0.44057 0.72257 0.0
H1830 H 0.94325 0.36026 0.77297 0.0
H1831 H 0.01606 0.4119 0.75423 0.0
H1832 H 0.05136 0.37741 0.8355 0.0
H1833 H 0.02107 0.40398 0.80387 0.0
H1834 H 0.98199 0.32653 0.77586 0.0
H1835 H 0.01203 0.29979 0.80819 0.0
C1836 C 0.93696 0.39393 0.74334 0.0
C1837 C 0.94891 0.41714 0.72915 0.0
C1838 C 0.95327 0.37753 0.76183 0.0
C1839 C 0.98191 0.38394 0.76651 0.0
C1840 C 0.99394 0.4067 0.75171 0.0
C1841 C 0.97769 0.42308 0.73336 0.0
C1842 C 0.03625 0.36595 0.82275 0.0
C1843 C 0.03427 0.33638 0.8244 0.0
C1844 C 0.01896 0.38123 0.80439 0.0
C1845 C 0.99926 0.36743 0.787 0.0
C1846 C 0.99679 0.33789 0.78906 0.0
C1847 C 0.01409 0.32254 0.80755 0.0
H1848 H 0.8888 0.78997 0.09381 0.0
H1849 H 0.95882 0.78635 0.03545 0.0
H1850 H 0.86163 0.75883 0.06305 0.0
H1851 H 0.93156 0.75523 1.00476 0.0
H1852 H 0.88312 0.67537 0.97429 0.0
H1853 H 0.91123 0.70601 1.00493 0.0
H1854 H 0.83973 0.76145 0.01508 0.0
H1855 H 0.81167 0.73107 0.98463 0.0
C1856 C 0.89843 0.78252 0.07447 0.0
C1857 C 0.92601 0.79068 0.06715 0.0
C1858 C 0.8828 0.76478 0.05678 0.0
C1859 C 0.89446 0.75458 0.03148 0.0
C1860 C 0.92211 0.76253 0.02425 0.0
C1861 C 0.93764 0.7805 0.04179 0.0
C1862 C 0.87341 0.69411 0.98303 0.0
C1863 C 0.8451 0.70066 0.97704 0.0
C1864 C 0.88956 0.71171 1.00048 0.0
C1865 C 0.87764 0.73606 0.01253 0.0
C1866 C 0.8494 0.74265 1.00642 0.0
C1867 C 0.83338 0.72528 0.98879 0.0
H1868 H 0.49472 0.701 0.29297 0.0
H1869 H 0.46795 0.6256 0.3366 0.0
H1870 H 0.52716 0.67356 0.26478 0.0
H1871 H 0.49952 0.59744 0.30699 0.0
H1872 H 0.5781 0.55808 0.26535 0.0
H1873 H 0.54605 0.58454 0.29598 0.0
H1874 H 0.52982 0.6429 0.22765 0.0
H1875 H 0.56283 0.61753 0.19805 0.0
C1876 C 0.49543 0.67838 0.29625 0.0
C1877 C 0.47853 0.6655 0.31697 0.0
C1878 C 0.51402 0.66249 0.27985 0.0
C1879 C 0.51593 0.63301 0.28311 0.0
C1880 C 0.49901 0.62007 0.30394 0.0
C1881 C 0.4807 0.63616 0.32082 0.0
C1882 C 0.56775 0.57669 0.25706 0.0
C1883 C 0.57334 0.58593 0.22942 0.0
C1884 C 0.54916 0.59179 0.27454 0.0
C1885 C 0.53534 0.61621 0.26459 0.0
C1886 C 0.54056 0.62484 0.2366 0.0
C1887 C 0.55947 0.61014 0.21944 0.0
H1888 H 0.30494 0.48586 0.07705 0.0
H1889 H 0.26424 0.41327 0.1144 0.0
H1890 H 0.2732 0.51705 0.10295 0.0
H1891 H 0.23201 0.44473 0.14003 0.0
H1892 H 0.1614 0.51524 0.15088 0.0
H1893 H 0.19241 0.48301 0.12468 0.0
H1894 H 0.26536 0.52682 0.15716 0.0
H1895 H 0.23463 0.55855 0.18365 0.0
C1896 C 0.28918 0.47658 0.0908 0.0
C1897 C 0.28708 0.44714 0.09377 0.0
C1898 C 0.27108 0.49444 0.10562 0.0
C1899 C 0.25014 0.48324 0.12333 0.0
C1900 C 0.24789 0.45381 0.1263 0.0
C1901 C 0.26644 0.43588 0.11187 0.0
C1902 C 0.18405 0.51805 0.15221 0.0
C1903 C 0.19564 0.53938 0.16924 0.0
C1904 C 0.20173 0.4995 0.13747 0.0
C1905 C 0.23121 0.50245 0.13905 0.0
C1906 C 0.2427 0.52417 0.15557 0.0
C1907 C 0.22512 0.54226 0.17072 0.0
H1908 H 0.79169 0.02998 0.93948 0.0
H1909 H 0.77463 0.10204 0.88625 0.0
H1910 H 0.75976 1.00148 0.91136 0.0
H1911 H 0.74197 0.07343 0.85825 0.0
H1912 H 0.70635 1.00326 0.79919 0.0
H1913 H 0.73874 0.03382 0.8253 0.0
H1914 H 0.71 0.99701 0.90363 0.0
H1915 H 0.67829 0.96621 0.87771 0.0
C1916 C 0.78106 0.03983 0.9218 0.0
C1917 C 0.78561 0.06844 0.91533 0.0
C1918 C 0.76255 0.02346 0.90572 0.0
C1919 C 0.74792 0.0352 0.88272 0.0
C1920 C 0.75296 0.06365 0.87574 0.0
C1921 C 0.77162 0.08009 0.89185 0.0
C1922 C 0.70683 1.00183 0.822 0.0
C1923 C 0.68977 0.98211 0.83628 0.0
C1924 C 0.72535 0.01943 0.83698 0.0
C1925 C 0.72725 0.01771 0.86658 0.0
C1926 C 0.7096 0.99852 0.88082 0.0
C1927 C 0.69121 0.98095 0.86591 0.0
H1928 H 0.77944 0.04509 0.32828 0.0
H1929 H 0.85117 0.02548 0.38097 0.0
H1930 H 0.75037 0.01288 0.35563 0.0
H1931 H 0.82212 0.99246 0.40805 0.0
H1932 H 0.75342 0.95442 0.46624 0.0
H1933 H 0.78356 0.98774 0.44091 0.0
H1934 H 0.74388 0.96371 0.36243 0.0
H1935 H 0.71336 0.93114 0.38772 0.0
C1936 C 0.78908 0.03384 0.3457 0.0
C1937 C 0.81776 0.03781 0.35226 0.0
C1938 C 0.77239 0.01514 0.36131 0.0
C1939 C 0.78388 0.99964 0.3839 0.0
C1940 C 0.81244 1.00411 0.39094 0.0
C1941 C 0.82916 0.023 0.37535 0.0
C1942 C 0.75121 0.95616 0.44356 0.0
C1943 C 0.73082 0.94008 0.4291 0.0
C1944 C 0.76861 0.97523 0.42899 0.0
C1945 C 0.7661 0.9787 0.39957 0.0
C1946 C 0.74608 0.96215 0.38512 0.0
C1947 C 0.72866 0.94323 0.39966 0.0
H1948 H 0.34257 0.47643 0.6347 0.0
H1949 H 0.28771 0.48654 0.70688 0.0
H1950 H 0.31203 0.50756 0.60723 0.0
H1951 H 0.25726 0.51754 0.67935 0.0
H1952 H 0.22861 0.59654 0.62953 0.0
H1953 H 0.25913 0.5655 0.6572 0.0
H1954 H 0.2632 0.50719 0.58736 0.0
H1955 H 0.23286 0.53806 0.55967 0.0
C1956 C 0.32402 0.48524 0.64471 0.0
C1957 C 0.31765 0.47899 0.67301 0.0
C1958 C 0.30645 0.50297 0.62892 0.0
C1959 C 0.28227 0.51505 0.64115 0.0
C1960 C 0.27591 0.50882 0.66944 0.0
C1961 C 0.29329 0.49089 0.68514 0.0
C1962 C 0.236 0.5771 0.62008 0.0
C1963 C 0.22832 0.56988 0.59234 0.0
C1964 C 0.25338 0.55926 0.63598 0.0
C1965 C 0.26364 0.53394 0.62442 0.0
C1966 C 0.25593 0.52671 0.59673 0.0
C1967 C 0.23838 0.54438 0.58093 0.0
loop_
_geom_bond_atom_site_label_1
_geom_bond_atom_site_label_2
_geom_bond_distance
_geom_bond_site_symmetry_2
_ccdc_geom_bond_type
Fe0 O2 1.918 . S
Fe0 O5 1.997 . S
Fe0 O6 2.002 . S
Fe0 O11 1.976 . S
Fe0 O14 1.996 1_455 S
Fe1 O2 1.918 . S
Fe1 O9 1.997 . S
Fe1 O12 1.996 . S
Fe1 O16 1.976 . S
Fe1 O19 2.002 . S
O2 Fe0 1.918 . S
O2 Fe1 1.918 . S
O2 Fe3 1.918 . S
Fe3 O2 1.918 . S
Fe3 O4 2.002 . S
Fe3 O13 1.976 1_455 S
Fe3 O17 1.996 . S
Fe3 O20 1.997 . S
O4 Fe3 2.002 . S
O4 C21 1.295 . S
O5 Fe0 1.997 . S
O5 C21 1.235 . S
O6 Fe0 2.002 . S
O6 C7 1.295 . S
C7 O6 1.295 . S
C7 O9 1.235 . S
C8 O13 1.287 . S
C8 O14 1.255 . S
O9 Fe1 1.997 . S
O9 C7 1.235 . S
C10 O16 1.287 . S
C10 O17 1.255 . S
O11 Fe0 1.976 . S
O11 C18 1.287 . S
O12 Fe1 1.996 . S
O12 C18 1.255 . S
O13 Fe3 1.976 1_655 S
O13 C8 1.287 . S
O14 Fe0 1.996 1_655 S
O14 C8 1.255 . S
C15 O19 1.295 . S
C15 O20 1.235 . S
O16 Fe1 1.976 . S
O16 C10 1.287 . S
O17 Fe3 1.996 . S
O17 C10 1.255 . S
C18 O11 1.287 . S
C18 O12 1.255 . S
O19 Fe1 2.002 . S
O19 C15 1.295 . S
O20 Fe3 1.997 . S
O20 C15 1.235 . S
C21 O4 1.295 . S
C21 O5 1.235 . S
Fe22 O24 1.918 . S
Fe22 O27 1.997 . S
Fe22 O28 2.002 . S
Fe22 O33 1.976 . S
Fe22 O36 1.996 . S
Fe23 O24 1.918 . S
Fe23 O31 1.997 . S
Fe23 O34 1.996 . S
Fe23 O38 1.976 . S
Fe23 O41 2.002 . S
O24 Fe22 1.918 . S
O24 Fe23 1.918 . S
O24 Fe25 1.918 . S
Fe25 O24 1.918 . S
Fe25 O26 2.002 . S
Fe25 O35 1.976 . S
Fe25 O39 1.996 . S
Fe25 O42 1.997 . S
O26 Fe25 2.002 . S
O26 C43 1.295 . S
O27 Fe22 1.997 . S
O27 C43 1.235 . S
O28 Fe22 2.002 . S
O28 C29 1.295 . S
C29 O28 1.295 . S
C29 O31 1.235 . S
C30 O35 1.287 . S
C30 O36 1.255 . S
O31 Fe23 1.997 . S
O31 C29 1.235 . S
C32 O38 1.287 . S
C32 O39 1.255 . S
O33 Fe22 1.976 . S
O33 C40 1.287 . S
O34 Fe23 1.996 . S
O34 C40 1.255 . S
O35 Fe25 1.976 . S
O35 C30 1.287 . S
O36 Fe22 1.996 . S
O36 C30 1.255 . S
C37 O41 1.295 . S
C37 O42 1.235 . S
O38 Fe23 1.976 . S
O38 C32 1.287 . S
O39 Fe25 1.996 . S
O39 C32 1.255 . S
C40 O33 1.287 . S
C40 O34 1.255 . S
O41 Fe23 2.002 . S
O41 C37 1.295 . S
O42 Fe25 1.997 . S
O42 C37 1.235 . S
C43 O26 1.295 . S
C43 O27 1.235 . S
Fe44 O46 1.918 . S
Fe44 O49 1.997 . S
Fe44 O50 2.002 . S
Fe44 O55 1.976 . S
Fe44 O58 1.996 . S
Fe45 O46 1.918 . S
Fe45 O53 1.997 . S
Fe45 O56 1.996 . S
Fe45 O60 1.976 . S
Fe45 O63 2.002 . S
O46 Fe44 1.918 . S
O46 Fe45 1.918 . S
O46 Fe47 1.918 . S
Fe47 O46 1.918 . S
Fe47 O48 2.002 . S
Fe47 O57 1.976 . S
Fe47 O61 1.996 . S
Fe47 O64 1.997 . S
O48 Fe47 2.002 . S
O48 C65 1.295 . S
O49 Fe44 1.997 . S
O49 C65 1.235 . S
O50 Fe44 2.002 . S
O50 C51 1.295 . S
C51 O50 1.295 . S
C51 O53 1.235 . S
C52 O57 1.287 . S
C52 O58 1.255 . S
O53 Fe45 1.997 . S
O53 C51 1.235 . S
C54 O60 1.287 . S
C54 O61 1.255 . S
O55 Fe44 1.976 . S
O55 C62 1.287 . S
O56 Fe45 1.996 . S
O56 C62 1.255 . S
O57 Fe47 1.976 . S
O57 C52 1.287 . S
O58 Fe44 1.996 . S
O58 C52 1.255 . S
C59 O63 1.295 . S
C59 O64 1.235 . S
O60 Fe45 1.976 . S
O60 C54 1.287 . S
O61 Fe47 1.996 . S
O61 C54 1.255 . S
C62 O55 1.287 . S
C62 O56 1.255 . S
O63 Fe45 2.002 . S
O63 C59 1.295 . S
O64 Fe47 1.997 . S
O64 C59 1.235 . S
C65 O48 1.295 . S
C65 O49 1.235 . S
Fe66 O68 1.918 . S
Fe66 O71 1.997 . S
Fe66 O72 2.002 . S
Fe66 O77 1.976 . S
Fe66 O80 1.996 . S
Fe67 O68 1.918 . S
Fe67 O75 1.997 . S
Fe67 O78 1.996 . S
Fe67 O82 1.976 . S
Fe67 O85 2.002 . S
O68 Fe66 1.918 . S
O68 Fe67 1.918 . S
O68 Fe69 1.918 . S
Fe69 O68 1.918 . S
Fe69 O70 2.002 . S
Fe69 O79 1.976 . S
Fe69 O83 1.996 . S
Fe69 O86 1.997 . S
O70 Fe69 2.002 . S
O70 C87 1.295 . S
O71 Fe66 1.997 . S
O71 C87 1.235 . S
O72 Fe66 2.002 . S
O72 C73 1.295 . S
C73 O72 1.295 . S
C73 O75 1.235 . S
C74 O79 1.287 . S
C74 O80 1.255 . S
O75 Fe67 1.997 . S
O75 C73 1.235 . S
C76 O82 1.287 . S
C76 O83 1.255 . S
O77 Fe66 1.976 . S
O77 C84 1.287 . S
O78 Fe67 1.996 . S
O78 C84 1.255 . S
O79 Fe69 1.976 . S
O79 C74 1.287 . S
O80 Fe66 1.996 . S
O80 C74 1.255 . S
C81 O85 1.295 . S
C81 O86 1.235 . S
O82 Fe67 1.976 . S
O82 C76 1.287 . S
O83 Fe69 1.996 . S
O83 C76 1.255 . S
C84 O77 1.287 . S
C84 O78 1.255 . S
O85 Fe67 2.002 . S
O85 C81 1.295 . S
O86 Fe69 1.997 . S
O86 C81 1.235 . S
C87 O70 1.295 . S
C87 O71 1.235 . S
Fe88 O90 1.918 . S
Fe88 O93 1.997 . S
Fe88 O94 2.002 . S
Fe88 O99 1.976 . S
Fe88 O102 1.996 . S
Fe89 O90 1.918 . S
Fe89 O97 1.997 . S
Fe89 O100 1.996 . S
Fe89 O104 1.976 . S
Fe89 O107 2.002 . S
O90 Fe88 1.918 . S
O90 Fe89 1.918 . S
O90 Fe91 1.918 . S
Fe91 O90 1.918 . S
Fe91 O92 2.002 . S
Fe91 O101 1.976 . S
Fe91 O105 1.996 . S
Fe91 O108 1.997 . S
O92 Fe91 2.002 . S
O92 C109 1.295 . S
O93 Fe88 1.997 . S
O93 C109 1.235 . S
O94 Fe88 2.002 . S
O94 C95 1.295 . S
C95 O94 1.295 . S
C95 O97 1.235 . S
C96 O101 1.287 . S
C96 O102 1.255 . S
O97 Fe89 1.997 . S
O97 C95 1.235 . S
C98 O104 1.287 . S
C98 O105 1.255 . S
O99 Fe88 1.976 . S
O99 C106 1.287 . S
O100 Fe89 1.996 . S
O100 C106 1.255 . S
O101 Fe91 1.976 . S
O101 C96 1.287 . S
O102 Fe88 1.996 . S
O102 C96 1.255 . S
C103 O107 1.295 . S
C103 O108 1.235 . S
O104 Fe89 1.976 . S
O104 C98 1.287 . S
O105 Fe91 1.996 . S
O105 C98 1.255 . S
C106 O99 1.287 . S
C106 O100 1.255 . S
O107 Fe89 2.002 . S
O107 C103 1.295 . S
O108 Fe91 1.997 . S
O108 C103 1.235 . S
C109 O92 1.295 . S
C109 O93 1.235 . S
Fe110 O112 1.918 . S
Fe110 O115 1.997 . S
Fe110 O116 2.002 . S
Fe110 O121 1.976 . S
Fe110 O124 1.996 . S
Fe111 O112 1.918 . S
Fe111 O119 1.997 . S
Fe111 O122 1.996 . S
Fe111 O126 1.976 . S
Fe111 O129 2.002 . S
O112 Fe110 1.918 . S
O112 Fe111 1.918 . S
O112 Fe113 1.918 . S
Fe113 O112 1.918 . S
Fe113 O114 2.002 . S
Fe113 O123 1.976 . S
Fe113 O127 1.996 . S
Fe113 O130 1.997 . S
O114 Fe113 2.002 . S
O114 C131 1.295 . S
O115 Fe110 1.997 . S
O115 C131 1.235 . S
O116 Fe110 2.002 . S
O116 C117 1.295 . S
C117 O116 1.295 . S
C117 O119 1.235 . S
C118 O123 1.287 . S
C118 O124 1.255 . S
O119 Fe111 1.997 . S
O119 C117 1.235 . S
C120 O126 1.287 . S
C120 O127 1.255 . S
O121 Fe110 1.976 . S
O121 C128 1.287 . S
O122 Fe111 1.996 . S
O122 C128 1.255 . S
O123 Fe113 1.976 . S
O123 C118 1.287 . S
O124 Fe110 1.996 . S
O124 C118 1.255 . S
C125 O129 1.295 . S
C125 O130 1.235 . S
O126 Fe111 1.976 . S
O126 C120 1.287 . S
O127 Fe113 1.996 . S
O127 C120 1.255 . S
C128 O121 1.287 . S
C128 O122 1.255 . S
O129 Fe111 2.002 . S
O129 C125 1.295 . S
O130 Fe113 1.997 . S
O130 C125 1.235 . S
C131 O114 1.295 . S
C131 O115 1.235 . S
Fe132 O134 1.918 . S
Fe132 O137 1.997 . S
Fe132 O138 2.002 . S
Fe132 O143 1.976 1_655 S
Fe132 O146 1.996 . S
Fe133 O134 1.918 . S
Fe133 O141 1.997 . S
Fe133 O144 1.996 1_655 S
Fe133 O148 1.976 . S
Fe133 O151 2.002 . S
O134 Fe132 1.918 . S
O134 Fe133 1.918 . S
O134 Fe135 1.918 . S
Fe135 O134 1.918 . S
Fe135 O136 2.002 . S
Fe135 O145 1.976 . S
Fe135 O149 1.996 . S
Fe135 O152 1.997 . S
O136 Fe135 2.002 . S
O136 C153 1.295 . S
O137 Fe132 1.997 . S
O137 C153 1.235 . S
O138 Fe132 2.002 . S
O138 C139 1.295 . S
C139 O138 1.295 . S
C139 O141 1.235 . S
C140 O145 1.287 . S
C140 O146 1.255 . S
O141 Fe133 1.997 . S
O141 C139 1.235 . S
C142 O148 1.287 . S
C142 O149 1.255 . S
O143 Fe132 1.976 1_455 S
O143 C150 1.287 . S
O144 Fe133 1.996 1_455 S
O144 C150 1.255 . S
O145 Fe135 1.976 . S
O145 C140 1.287 . S
O146 Fe132 1.996 . S
O146 C140 1.255 . S
C147 O151 1.295 . S
C147 O152 1.235 . S
O148 Fe133 1.976 . S
O148 C142 1.287 . S
O149 Fe135 1.996 . S
O149 C142 1.255 . S
C150 O143 1.287 . S
C150 O144 1.255 . S
O151 Fe133 2.002 . S
O151 C147 1.295 . S
O152 Fe135 1.997 . S
O152 C147 1.235 . S
C153 O136 1.295 . S
C153 O137 1.235 . S
Fe154 O156 1.918 . S
Fe154 O159 1.997 . S
Fe154 O160 2.002 . S
Fe154 O165 1.976 . S
Fe154 O168 1.996 . S
Fe155 O156 1.918 . S
Fe155 O163 1.997 . S
Fe155 O166 1.996 . S
Fe155 O170 1.976 . S
Fe155 O173 2.002 . S
O156 Fe154 1.918 . S
O156 Fe155 1.918 . S
O156 Fe157 1.918 . S
Fe157 O156 1.918 . S
Fe157 O158 2.002 . S
Fe157 O167 1.976 . S
Fe157 O171 1.996 . S
Fe157 O174 1.997 . S
O158 Fe157 2.002 . S
O158 C175 1.295 . S
O159 Fe154 1.997 . S
O159 C175 1.235 . S
O160 Fe154 2.002 . S
O160 C161 1.295 . S
C161 O160 1.295 . S
C161 O163 1.235 . S
C162 O167 1.287 . S
C162 O168 1.255 . S
O163 Fe155 1.997 . S
O163 C161 1.235 . S
C164 O170 1.287 . S
C164 O171 1.255 . S
O165 Fe154 1.976 . S
O165 C172 1.287 . S
O166 Fe155 1.996 . S
O166 C172 1.255 . S
O167 Fe157 1.976 . S
O167 C162 1.287 . S
O168 Fe154 1.996 . S
O168 C162 1.255 . S
C169 O173 1.295 . S
C169 O174 1.235 . S
O170 Fe155 1.976 . S
O170 C164 1.287 . S
O171 Fe157 1.996 . S
O171 C164 1.255 . S
C172 O165 1.287 . S
C172 O166 1.255 . S
O173 Fe155 2.002 . S
O173 C169 1.295 . S
O174 Fe157 1.997 . S
O174 C169 1.235 . S
C175 O158 1.295 . S
C175 O159 1.235 . S
Fe176 O178 1.918 . S
Fe176 O181 1.997 . S
Fe176 O182 2.002 . S
Fe176 O187 1.976 1_545 S
Fe176 O190 1.996 . S
Fe177 O178 1.918 . S
Fe177 O185 1.997 . S
Fe177 O188 1.996 1_545 S
Fe177 O192 1.976 . S
Fe177 O195 2.002 . S
O178 Fe176 1.918 . S
O178 Fe177 1.918 . S
O178 Fe179 1.918 . S
Fe179 O178 1.918 . S
Fe179 O180 2.002 . S
Fe179 O189 1.976 . S
Fe179 O193 1.996 . S
Fe179 O196 1.997 . S
O180 Fe179 2.002 . S
O180 C197 1.295 . S
O181 Fe176 1.997 . S
O181 C197 1.235 . S
O182 Fe176 2.002 . S
O182 C183 1.295 . S
C183 O182 1.295 . S
C183 O185 1.235 . S
C184 O189 1.287 . S
C184 O190 1.255 . S
O185 Fe177 1.997 . S
O185 C183 1.235 . S
C186 O192 1.287 . S
C186 O193 1.255 . S
O187 Fe176 1.976 1_565 S
O187 C194 1.287 . S
O188 Fe177 1.996 1_565 S
O188 C194 1.255 . S
O189 Fe179 1.976 . S
O189 C184 1.287 . S
O190 Fe176 1.996 . S
O190 C184 1.255 . S
C191 O195 1.295 . S
C191 O196 1.235 . S
O192 Fe177 1.976 . S
O192 C186 1.287 . S
O193 Fe179 1.996 . S
O193 C186 1.255 . S
C194 O187 1.287 . S
C194 O188 1.255 . S
O195 Fe177 2.002 . S
O195 C191 1.295 . S
O196 Fe179 1.997 . S
O196 C191 1.235 . S
C197 O180 1.295 . S
C197 O181 1.235 . S
Fe198 O200 1.918 . S
Fe198 O203 1.997 . S
Fe198 O204 2.002 . S
Fe198 O209 1.976 . S
Fe198 O212 1.996 . S
Fe199 O200 1.918 . S
Fe199 O207 1.997 . S
Fe199 O210 1.996 . S
Fe199 O214 1.976 . S
Fe199 O217 2.002 . S
O200 Fe198 1.918 . S
O200 Fe199 1.918 . S
O200 Fe201 1.918 . S
Fe201 O200 1.918 . S
Fe201 O202 2.002 . S
Fe201 O211 1.976 . S
Fe201 O215 1.996 . S
Fe201 O218 1.997 . S
O202 Fe201 2.002 . S
O202 C219 1.295 . S
O203 Fe198 1.997 . S
O203 C219 1.235 . S
O204 Fe198 2.002 . S
O204 C205 1.295 . S
C205 O204 1.295 . S
C205 O207 1.235 . S
C206 O211 1.287 . S
C206 O212 1.255 . S
O207 Fe199 1.997 . S
O207 C205 1.235 . S
C208 O214 1.287 . S
C208 O215 1.255 . S
O209 Fe198 1.976 . S
O209 C216 1.287 . S
O210 Fe199 1.996 . S
O210 C216 1.255 . S
O211 Fe201 1.976 . S
O211 C206 1.287 . S
O212 Fe198 1.996 . S
O212 C206 1.255 . S
C213 O217 1.295 . S
C213 O218 1.235 . S
O214 Fe199 1.976 . S
O214 C208 1.287 . S
O215 Fe201 1.996 . S
O215 C208 1.255 . S
C216 O209 1.287 . S
C216 O210 1.255 . S
O217 Fe199 2.002 . S
O217 C213 1.295 . S
O218 Fe201 1.997 . S
O218 C213 1.235 . S
C219 O202 1.295 . S
C219 O203 1.235 . S
Fe220 O222 1.918 . S
Fe220 O225 1.997 . S
Fe220 O226 2.002 . S
Fe220 O231 1.976 . S
Fe220 O234 1.996 1_565 S
Fe221 O222 1.918 . S
Fe221 O229 1.997 . S
Fe221 O232 1.996 . S
Fe221 O236 1.976 . S
Fe221 O239 2.002 . S
O222 Fe220 1.918 . S
O222 Fe221 1.918 . S
O222 Fe223 1.918 . S
Fe223 O222 1.918 . S
Fe223 O224 2.002 . S
Fe223 O233 1.976 1_565 S
Fe223 O237 1.996 . S
Fe223 O240 1.997 . S
O224 Fe223 2.002 . S
O224 C241 1.295 . S
O225 Fe220 1.997 . S
O225 C241 1.235 . S
O226 Fe220 2.002 . S
O226 C227 1.295 . S
C227 O226 1.295 . S
C227 O229 1.235 . S
C228 O233 1.287 . S
C228 O234 1.255 . S
O229 Fe221 1.997 . S
O229 C227 1.235 . S
C230 O236 1.287 . S
C230 O237 1.255 . S
O231 Fe220 1.976 . S
O231 C238 1.287 . S
O232 Fe221 1.996 . S
O232 C238 1.255 . S
O233 Fe223 1.976 1_545 S
O233 C228 1.287 . S
O234 Fe220 1.996 1_545 S
O234 C228 1.255 . S
C235 O239 1.295 . S
C235 O240 1.235 . S
O236 Fe221 1.976 . S
O236 C230 1.287 . S
O237 Fe223 1.996 . S
O237 C230 1.255 . S
C238 O231 1.287 . S
C238 O232 1.255 . S
O239 Fe221 2.002 . S
O239 C235 1.295 . S
O240 Fe223 1.997 . S
O240 C235 1.235 . S
C241 O224 1.295 . S
C241 O225 1.235 . S
Fe242 O244 1.918 . S
Fe242 O247 1.997 . S
Fe242 O248 2.002 . S
Fe242 O253 1.976 . S
Fe242 O256 1.996 . S
Fe243 O244 1.918 . S
Fe243 O251 1.997 . S
Fe243 O254 1.996 . S
Fe243 O258 1.976 . S
Fe243 O261 2.002 . S
O244 Fe242 1.918 . S
O244 Fe243 1.918 . S
O244 Fe245 1.918 . S
Fe245 O244 1.918 . S
Fe245 O246 2.002 . S
Fe245 O255 1.976 . S
Fe245 O259 1.996 . S
Fe245 O262 1.997 . S
O246 Fe245 2.002 . S
O246 C263 1.295 . S
O247 Fe242 1.997 . S
O247 C263 1.235 . S
O248 Fe242 2.002 . S
O248 C249 1.295 . S
C249 O248 1.295 . S
C249 O251 1.235 . S
C250 O255 1.287 . S
C250 O256 1.255 . S
O251 Fe243 1.997 . S
O251 C249 1.235 . S
C252 O258 1.287 . S
C252 O259 1.255 . S
O253 Fe242 1.976 . S
O253 C260 1.287 . S
O254 Fe243 1.996 . S
O254 C260 1.255 . S
O255 Fe245 1.976 . S
O255 C250 1.287 . S
O256 Fe242 1.996 . S
O256 C250 1.255 . S
C257 O261 1.295 . S
C257 O262 1.235 . S
O258 Fe243 1.976 . S
O258 C252 1.287 . S
O259 Fe245 1.996 . S
O259 C252 1.255 . S
C260 O253 1.287 . S
C260 O254 1.255 . S
O261 Fe243 2.002 . S
O261 C257 1.295 . S
O262 Fe245 1.997 . S
O262 C257 1.235 . S
C263 O246 1.295 . S
C263 O247 1.235 . S
Fe264 O266 1.918 . S
Fe264 O269 1.997 . S
Fe264 O270 2.002 . S
Fe264 O275 1.976 . S
Fe264 O278 1.996 . S
Fe265 O266 1.918 . S
Fe265 O273 1.997 . S
Fe265 O276 1.996 . S
Fe265 O280 1.976 . S
Fe265 O283 2.002 . S
O266 Fe264 1.918 . S
O266 Fe265 1.918 . S
O266 Fe267 1.918 . S
Fe267 O266 1.918 . S
Fe267 O268 2.002 . S
Fe267 O277 1.976 . S
Fe267 O281 1.996 . S
Fe267 O284 1.997 . S
O268 Fe267 2.002 . S
O268 C285 1.295 . S
O269 Fe264 1.997 . S
O269 C285 1.235 . S
O270 Fe264 2.002 . S
O270 C271 1.295 . S
C271 O270 1.295 . S
C271 O273 1.235 . S
C272 O277 1.287 . S
C272 O278 1.255 . S
O273 Fe265 1.997 . S
O273 C271 1.235 . S
C274 O280 1.287 . S
C274 O281 1.255 . S
O275 Fe264 1.976 . S
O275 C282 1.287 . S
O276 Fe265 1.996 . S
O276 C282 1.255 . S
O277 Fe267 1.976 . S
O277 C272 1.287 . S
O278 Fe264 1.996 . S
O278 C272 1.255 . S
C279 O283 1.295 . S
C279 O284 1.235 . S
O280 Fe265 1.976 . S
O280 C274 1.287 . S
O281 Fe267 1.996 . S
O281 C274 1.255 . S
C282 O275 1.287 . S
C282 O276 1.255 . S
O283 Fe265 2.002 . S
O283 C279 1.295 . S
O284 Fe267 1.997 . S
O284 C279 1.235 . S
C285 O268 1.295 . S
C285 O269 1.235 . S
Fe286 O288 1.918 . S
Fe286 O291 1.997 . S
Fe286 O292 2.002 . S
Fe286 O297 1.976 . S
Fe286 O300 1.996 . S
Fe287 O288 1.918 . S
Fe287 O295 1.997 . S
Fe287 O298 1.996 . S
Fe287 O302 1.976 . S
Fe287 O305 2.002 . S
O288 Fe286 1.918 . S
O288 Fe287 1.918 . S
O288 Fe289 1.918 . S
Fe289 O288 1.918 . S
Fe289 O290 2.002 . S
Fe289 O299 1.976 . S
Fe289 O303 1.996 . S
Fe289 O306 1.997 . S
O290 Fe289 2.002 . S
O290 C307 1.295 . S
O291 Fe286 1.997 . S
O291 C307 1.235 . S
O292 Fe286 2.002 . S
O292 C293 1.295 . S
C293 O292 1.295 . S
C293 O295 1.235 . S
C294 O299 1.287 . S
C294 O300 1.255 . S
O295 Fe287 1.997 . S
O295 C293 1.235 . S
C296 O302 1.287 . S
C296 O303 1.255 . S
O297 Fe286 1.976 . S
O297 C304 1.287 . S
O298 Fe287 1.996 . S
O298 C304 1.255 . S
O299 Fe289 1.976 . S
O299 C294 1.287 . S
O300 Fe286 1.996 . S
O300 C294 1.255 . S
C301 O305 1.295 . S
C301 O306 1.235 . S
O302 Fe287 1.976 . S
O302 C296 1.287 . S
O303 Fe289 1.996 . S
O303 C296 1.255 . S
C304 O297 1.287 . S
C304 O298 1.255 . S
O305 Fe287 2.002 . S
O305 C301 1.295 . S
O306 Fe289 1.997 . S
O306 C301 1.235 . S
C307 O290 1.295 . S
C307 O291 1.235 . S
Fe308 O310 1.918 . S
Fe308 O313 1.997 . S
Fe308 O314 2.002 . S
Fe308 O319 1.976 . S
Fe308 O322 1.996 . S
Fe309 O310 1.918 . S
Fe309 O317 1.997 . S
Fe309 O320 1.996 . S
Fe309 O324 1.976 . S
Fe309 O327 2.002 . S
O310 Fe308 1.918 . S
O310 Fe309 1.918 . S
O310 Fe311 1.918 . S
Fe311 O310 1.918 . S
Fe311 O312 2.002 . S
Fe311 O321 1.976 . S
Fe311 O325 1.996 . S
Fe311 O328 1.997 . S
O312 Fe311 2.002 . S
O312 C329 1.295 . S
O313 Fe308 1.997 . S
O313 C329 1.235 . S
O314 Fe308 2.002 . S
O314 C315 1.295 . S
C315 O314 1.295 . S
C315 O317 1.235 . S
C316 O321 1.287 . S
C316 O322 1.255 . S
O317 Fe309 1.997 . S
O317 C315 1.235 . S
C318 O324 1.287 . S
C318 O325 1.255 . S
O319 Fe308 1.976 . S
O319 C326 1.287 . S
O320 Fe309 1.996 . S
O320 C326 1.255 . S
O321 Fe311 1.976 . S
O321 C316 1.287 . S
O322 Fe308 1.996 . S
O322 C316 1.255 . S
C323 O327 1.295 . S
C323 O328 1.235 . S
O324 Fe309 1.976 . S
O324 C318 1.287 . S
O325 Fe311 1.996 . S
O325 C318 1.255 . S
C326 O319 1.287 . S
C326 O320 1.255 . S
O327 Fe309 2.002 . S
O327 C323 1.295 . S
O328 Fe311 1.997 . S
O328 C323 1.235 . S
C329 O312 1.295 . S
C329 O313 1.235 . S
Fe330 O332 1.918 . S
Fe330 O335 1.997 . S
Fe330 O336 2.002 . S
Fe330 O341 1.976 . S
Fe330 O344 1.996 . S
Fe331 O332 1.918 . S
Fe331 O339 1.997 . S
Fe331 O342 1.996 . S
Fe331 O346 1.976 . S
Fe331 O349 2.002 . S
O332 Fe330 1.918 . S
O332 Fe331 1.918 . S
O332 Fe333 1.918 . S
Fe333 O332 1.918 . S
Fe333 O334 2.002 . S
Fe333 O343 1.976 . S
Fe333 O347 1.996 . S
Fe333 O350 1.997 . S
O334 Fe333 2.002 . S
O334 C351 1.295 . S
O335 Fe330 1.997 . S
O335 C351 1.235 . S
O336 Fe330 2.002 . S
O336 C337 1.295 . S
C337 O336 1.295 . S
C337 O339 1.235 . S
C338 O343 1.287 . S
C338 O344 1.255 . S
O339 Fe331 1.997 . S
O339 C337 1.235 . S
C340 O346 1.287 . S
C340 O347 1.255 . S
O341 Fe330 1.976 . S
O341 C348 1.287 . S
O342 Fe331 1.996 . S
O342 C348 1.255 . S
O343 Fe333 1.976 . S
O343 C338 1.287 . S
O344 Fe330 1.996 . S
O344 C338 1.255 . S
C345 O349 1.295 . S
C345 O350 1.235 . S
O346 Fe331 1.976 . S
O346 C340 1.287 . S
O347 Fe333 1.996 . S
O347 C340 1.255 . S
C348 O341 1.287 . S
C348 O342 1.255 . S
O349 Fe331 2.002 . S
O349 C345 1.295 . S
O350 Fe333 1.997 . S
O350 C345 1.235 . S
C351 O334 1.295 . S
C351 O335 1.235 . S
Fe352 O354 1.918 . S
Fe352 O357 1.997 . S
Fe352 O358 2.002 . S
Fe352 O363 1.976 . S
Fe352 O366 1.996 . S
Fe353 O354 1.918 . S
Fe353 O361 1.997 . S
Fe353 O364 1.996 . S
Fe353 O368 1.976 1_554 S
Fe353 O371 2.002 . S
O354 Fe352 1.918 . S
O354 Fe353 1.918 . S
O354 Fe355 1.918 . S
Fe355 O354 1.918 . S
Fe355 O356 2.002 . S
Fe355 O365 1.976 . S
Fe355 O369 1.996 1_554 S
Fe355 O372 1.997 . S
O356 Fe355 2.002 . S
O356 C373 1.295 . S
O357 Fe352 1.997 . S
O357 C373 1.235 . S
O358 Fe352 2.002 . S
O358 C359 1.295 . S
C359 O358 1.295 . S
C359 O361 1.235 . S
C360 O365 1.287 . S
C360 O366 1.255 . S
O361 Fe353 1.997 . S
O361 C359 1.235 . S
C362 O368 1.287 . S
C362 O369 1.255 . S
O363 Fe352 1.976 . S
O363 C370 1.287 . S
O364 Fe353 1.996 . S
O364 C370 1.255 . S
O365 Fe355 1.976 . S
O365 C360 1.287 . S
O366 Fe352 1.996 . S
O366 C360 1.255 . S
C367 O371 1.295 . S
C367 O372 1.235 . S
O368 Fe353 1.976 1_556 S
O368 C362 1.287 . S
O369 Fe355 1.996 1_556 S
O369 C362 1.255 . S
C370 O363 1.287 . S
C370 O364 1.255 . S
O371 Fe353 2.002 . S
O371 C367 1.295 . S
O372 Fe355 1.997 . S
O372 C367 1.235 . S
C373 O356 1.295 . S
C373 O357 1.235 . S
Fe374 O376 1.918 . S
Fe374 O379 1.997 . S
Fe374 O380 2.002 . S
Fe374 O385 1.976 . S
Fe374 O388 1.996 1_556 S
Fe375 O376 1.918 . S
Fe375 O383 1.997 . S
Fe375 O386 1.996 . S
Fe375 O390 1.976 . S
Fe375 O393 2.002 . S
O376 Fe374 1.918 . S
O376 Fe375 1.918 . S
O376 Fe377 1.918 . S
Fe377 O376 1.918 . S
Fe377 O378 2.002 . S
Fe377 O387 1.976 1_556 S
Fe377 O391 1.996 . S
Fe377 O394 1.997 . S
O378 Fe377 2.002 . S
O378 C395 1.295 . S
O379 Fe374 1.997 . S
O379 C395 1.235 . S
O380 Fe374 2.002 . S
O380 C381 1.295 . S
C381 O380 1.295 . S
C381 O383 1.235 . S
C382 O387 1.287 . S
C382 O388 1.255 . S
O383 Fe375 1.997 . S
O383 C381 1.235 . S
C384 O390 1.287 . S
C384 O391 1.255 . S
O385 Fe374 1.976 . S
O385 C392 1.287 . S
O386 Fe375 1.996 . S
O386 C392 1.255 . S
O387 Fe377 1.976 1_554 S
O387 C382 1.287 . S
O388 Fe374 1.996 1_554 S
O388 C382 1.255 . S
C389 O393 1.295 . S
C389 O394 1.235 . S
O390 Fe375 1.976 . S
O390 C384 1.287 . S
O391 Fe377 1.996 . S
O391 C384 1.255 . S
C392 O385 1.287 . S
C392 O386 1.255 . S
O393 Fe375 2.002 . S
O393 C389 1.295 . S
O394 Fe377 1.997 . S
O394 C389 1.235 . S
C395 O378 1.295 . S
C395 O379 1.235 . S
Fe396 O398 1.918 . S
Fe396 O401 1.997 . S
Fe396 O402 2.002 . S
Fe396 O407 1.976 . S
Fe396 O410 1.996 . S
Fe397 O398 1.918 . S
Fe397 O405 1.997 . S
Fe397 O408 1.996 . S
Fe397 O412 1.976 . S
Fe397 O415 2.002 . S
O398 Fe396 1.918 . S
O398 Fe397 1.918 . S
O398 Fe399 1.918 . S
Fe399 O398 1.918 . S
Fe399 O400 2.002 . S
Fe399 O409 1.976 . S
Fe399 O413 1.996 . S
Fe399 O416 1.997 . S
O400 Fe399 2.002 . S
O400 C417 1.295 . S
O401 Fe396 1.997 . S
O401 C417 1.235 . S
O402 Fe396 2.002 . S
O402 C403 1.295 . S
C403 O402 1.295 . S
C403 O405 1.235 . S
C404 O409 1.287 . S
C404 O410 1.255 . S
O405 Fe397 1.997 . S
O405 C403 1.235 . S
C406 O412 1.287 . S
C406 O413 1.255 . S
O407 Fe396 1.976 . S
O407 C414 1.287 . S
O408 Fe397 1.996 . S
O408 C414 1.255 . S
O409 Fe399 1.976 . S
O409 C404 1.287 . S
O410 Fe396 1.996 . S
O410 C404 1.255 . S
C411 O415 1.295 . S
C411 O416 1.235 . S
O412 Fe397 1.976 . S
O412 C406 1.287 . S
O413 Fe399 1.996 . S
O413 C406 1.255 . S
C414 O407 1.287 . S
C414 O408 1.255 . S
O415 Fe397 2.002 . S
O415 C411 1.295 . S
O416 Fe399 1.997 . S
O416 C411 1.235 . S
C417 O400 1.295 . S
C417 O401 1.235 . S
Fe418 O420 1.918 . S
Fe418 O423 1.997 . S
Fe418 O424 2.002 . S
Fe418 O429 1.976 . S
Fe418 O432 1.996 . S
Fe419 O420 1.918 . S
Fe419 O427 1.997 . S
Fe419 O430 1.996 . S
Fe419 O434 1.976 . S
Fe419 O437 2.002 . S
O420 Fe418 1.918 . S
O420 Fe419 1.918 . S
O420 Fe421 1.918 . S
Fe421 O420 1.918 . S
Fe421 O422 2.002 . S
Fe421 O431 1.976 . S
Fe421 O435 1.996 . S
Fe421 O438 1.997 . S
O422 Fe421 2.002 . S
O422 C439 1.295 . S
O423 Fe418 1.997 . S
O423 C439 1.235 . S
O424 Fe418 2.002 . S
O424 C425 1.295 . S
C425 O424 1.295 . S
C425 O427 1.235 . S
C426 O431 1.287 . S
C426 O432 1.255 . S
O427 Fe419 1.997 . S
O427 C425 1.235 . S
C428 O434 1.287 . S
C428 O435 1.255 . S
O429 Fe418 1.976 . S
O429 C436 1.287 . S
O430 Fe419 1.996 . S
O430 C436 1.255 . S
O431 Fe421 1.976 . S
O431 C426 1.287 . S
O432 Fe418 1.996 . S
O432 C426 1.255 . S
C433 O437 1.295 . S
C433 O438 1.235 . S
O434 Fe419 1.976 . S
O434 C428 1.287 . S
O435 Fe421 1.996 . S
O435 C428 1.255 . S
C436 O429 1.287 . S
C436 O430 1.255 . S
O437 Fe419 2.002 . S
O437 C433 1.295 . S
O438 Fe421 1.997 . S
O438 C433 1.235 . S
C439 O422 1.295 . S
C439 O423 1.235 . S
Fe440 O442 1.918 . S
Fe440 O445 1.997 . S
Fe440 O446 2.002 . S
Fe440 O451 1.976 . S
Fe440 O454 1.996 . S
Fe441 O442 1.918 . S
Fe441 O449 1.997 . S
Fe441 O452 1.996 . S
Fe441 O456 1.976 . S
Fe441 O459 2.002 . S
O442 Fe440 1.918 . S
O442 Fe441 1.918 . S
O442 Fe443 1.918 . S
Fe443 O442 1.918 . S
Fe443 O444 2.002 . S
Fe443 O453 1.976 . S
Fe443 O457 1.996 . S
Fe443 O460 1.997 . S
O444 Fe443 2.002 . S
O444 C461 1.295 . S
O445 Fe440 1.997 . S
O445 C461 1.235 . S
O446 Fe440 2.002 . S
O446 C447 1.295 . S
C447 O446 1.295 . S
C447 O449 1.235 . S
C448 O453 1.287 . S
C448 O454 1.255 . S
O449 Fe441 1.997 . S
O449 C447 1.235 . S
C450 O456 1.287 . S
C450 O457 1.255 . S
O451 Fe440 1.976 . S
O451 C458 1.287 . S
O452 Fe441 1.996 . S
O452 C458 1.255 . S
O453 Fe443 1.976 . S
O453 C448 1.287 . S
O454 Fe440 1.996 . S
O454 C448 1.255 . S
C455 O459 1.295 . S
C455 O460 1.235 . S
O456 Fe441 1.976 . S
O456 C450 1.287 . S
O457 Fe443 1.996 . S
O457 C450 1.255 . S
C458 O451 1.287 . S
C458 O452 1.255 . S
O459 Fe441 2.002 . S
O459 C455 1.295 . S
O460 Fe443 1.997 . S
O460 C455 1.235 . S
C461 O444 1.295 . S
C461 O445 1.235 . S
Fe462 O464 1.918 . S
Fe462 O467 1.997 . S
Fe462 O468 2.002 . S
Fe462 O473 1.976 . S
Fe462 O476 1.996 . S
Fe463 O464 1.918 . S
Fe463 O471 1.997 . S
Fe463 O474 1.996 . S
Fe463 O478 1.976 . S
Fe463 O481 2.002 . S
O464 Fe462 1.918 . S
O464 Fe463 1.918 . S
O464 Fe465 1.918 . S
Fe465 O464 1.918 . S
Fe465 O466 2.002 . S
Fe465 O475 1.976 . S
Fe465 O479 1.996 . S
Fe465 O482 1.997 . S
O466 Fe465 2.002 . S
O466 C483 1.295 . S
O467 Fe462 1.997 . S
O467 C483 1.235 . S
O468 Fe462 2.002 . S
O468 C469 1.295 . S
C469 O468 1.295 . S
C469 O471 1.235 . S
C470 O475 1.287 . S
C470 O476 1.255 . S
O471 Fe463 1.997 . S
O471 C469 1.235 . S
C472 O478 1.287 . S
C472 O479 1.255 . S
O473 Fe462 1.976 . S
O473 C480 1.287 . S
O474 Fe463 1.996 . S
O474 C480 1.255 . S
O475 Fe465 1.976 . S
O475 C470 1.287 . S
O476 Fe462 1.996 . S
O476 C470 1.255 . S
C477 O481 1.295 . S
C477 O482 1.235 . S
O478 Fe463 1.976 . S
O478 C472 1.287 . S
O479 Fe465 1.996 . S
O479 C472 1.255 . S
C480 O473 1.287 . S
C480 O474 1.255 . S
O481 Fe463 2.002 . S
O481 C477 1.295 . S
O482 Fe465 1.997 . S
O482 C477 1.235 . S
C483 O466 1.295 . S
C483 O467 1.235 . S
Fe484 O486 1.918 . S
Fe484 O489 1.997 . S
Fe484 O490 2.002 . S
Fe484 O495 1.976 . S
Fe484 O498 1.996 . S
Fe485 O486 1.918 . S
Fe485 O493 1.997 . S
Fe485 O496 1.996 . S
Fe485 O500 1.976 . S
Fe485 O503 2.002 . S
O486 Fe484 1.918 . S
O486 Fe485 1.918 . S
O486 Fe487 1.918 . S
Fe487 O486 1.918 . S
Fe487 O488 2.002 . S
Fe487 O497 1.976 . S
Fe487 O501 1.996 . S
Fe487 O504 1.997 . S
O488 Fe487 2.002 . S
O488 C505 1.295 . S
O489 Fe484 1.997 . S
O489 C505 1.235 . S
O490 Fe484 2.002 . S
O490 C491 1.295 . S
C491 O490 1.295 . S
C491 O493 1.235 . S
C492 O497 1.287 . S
C492 O498 1.255 . S
O493 Fe485 1.997 . S
O493 C491 1.235 . S
C494 O500 1.287 . S
C494 O501 1.255 . S
O495 Fe484 1.976 . S
O495 C502 1.287 . S
O496 Fe485 1.996 . S
O496 C502 1.255 . S
O497 Fe487 1.976 . S
O497 C492 1.287 . S
O498 Fe484 1.996 . S
O498 C492 1.255 . S
C499 O503 1.295 . S
C499 O504 1.235 . S
O500 Fe485 1.976 . S
O500 C494 1.287 . S
O501 Fe487 1.996 . S
O501 C494 1.255 . S
C502 O495 1.287 . S
C502 O496 1.255 . S
O503 Fe485 2.002 . S
O503 C499 1.295 . S
O504 Fe487 1.997 . S
O504 C499 1.235 . S
C505 O488 1.295 . S
C505 O489 1.235 . S
Fe506 O508 1.918 . S
Fe506 O511 1.997 . S
Fe506 O512 2.002 . S
Fe506 O517 1.976 . S
Fe506 O520 1.996 . S
Fe507 O508 1.918 . S
Fe507 O515 1.997 . S
Fe507 O518 1.996 . S
Fe507 O522 1.976 . S
Fe507 O525 2.002 . S
O508 Fe506 1.918 . S
O508 Fe507 1.918 . S
O508 Fe509 1.918 . S
Fe509 O508 1.918 . S
Fe509 O510 2.002 . S
Fe509 O519 1.976 . S
Fe509 O523 1.996 . S
Fe509 O526 1.997 . S
O510 Fe509 2.002 . S
O510 C527 1.295 . S
O511 Fe506 1.997 . S
O511 C527 1.235 . S
O512 Fe506 2.002 . S
O512 C513 1.295 . S
C513 O512 1.295 . S
C513 O515 1.235 . S
C514 O519 1.287 . S
C514 O520 1.255 . S
O515 Fe507 1.997 . S
O515 C513 1.235 . S
C516 O522 1.287 . S
C516 O523 1.255 . S
O517 Fe506 1.976 . S
O517 C524 1.287 . S
O518 Fe507 1.996 . S
O518 C524 1.255 . S
O519 Fe509 1.976 . S
O519 C514 1.287 . S
O520 Fe506 1.996 . S
O520 C514 1.255 . S
C521 O525 1.295 . S
C521 O526 1.235 . S
O522 Fe507 1.976 . S
O522 C516 1.287 . S
O523 Fe509 1.996 . S
O523 C516 1.255 . S
C524 O517 1.287 . S
C524 O518 1.255 . S
O525 Fe507 2.002 . S
O525 C521 1.295 . S
O526 Fe509 1.997 . S
O526 C521 1.235 . S
C527 O510 1.295 . S
C527 O511 1.235 . S
H528 C536 0.950 . S
H529 C541 0.950 . S
H530 C538 0.950 . S
H531 C540 0.950 . S
H532 C542 0.950 . S
H533 C544 0.950 . S
H534 C546 0.950 . S
H535 C547 0.950 . S
C536 H528 0.950 . S
C536 C537 1.386 . S
C536 C538 1.391 . S
C537 C536 1.386 . S
C537 C541 1.393 . S
C538 H530 0.950 . S
C538 C536 1.391 . S
C538 C539 1.400 . S
C539 C538 1.400 . S
C539 C540 1.398 . S
C539 C545 1.491 . S
C540 H531 0.950 . S
C540 C539 1.398 . S
C540 C541 1.391 . S
C541 H529 0.950 . S
C541 C537 1.393 . S
C541 C540 1.391 . S
C542 H532 0.950 . S
C542 C543 1.386 . S
C542 C544 1.391 . S
C543 C542 1.386 . S
C543 C547 1.393 . S
C544 H533 0.950 . S
C544 C542 1.391 . S
C544 C545 1.400 . S
C545 C539 1.491 . S
C545 C544 1.400 . S
C545 C546 1.398 . S
C546 H534 0.950 . S
C546 C545 1.398 . S
C546 C547 1.391 . S
C547 H535 0.950 . S
C547 C543 1.393 . S
C547 C546 1.391 . S
H548 C556 0.950 . S
H549 C561 0.950 . S
H550 C558 0.950 . S
H551 C560 0.950 . S
H552 C562 0.950 . S
H553 C564 0.950 . S
H554 C566 0.950 . S
H555 C567 0.950 . S
C556 H548 0.950 . S
C556 C557 1.386 . S
C556 C558 1.391 . S
C557 C556 1.386 . S
C557 C561 1.393 . S
C558 H550 0.950 . S
C558 C556 1.391 . S
C558 C559 1.400 . S
C559 C558 1.400 . S
C559 C560 1.398 . S
C559 C565 1.491 . S
C560 H551 0.950 . S
C560 C559 1.398 . S
C560 C561 1.391 . S
C561 H549 0.950 . S
C561 C557 1.393 . S
C561 C560 1.391 . S
C562 H552 0.950 . S
C562 C563 1.386 . S
C562 C564 1.391 . S
C563 C562 1.386 . S
C563 C567 1.393 . S
C564 H553 0.950 . S
C564 C562 1.391 . S
C564 C565 1.400 . S
C565 C559 1.491 . S
C565 C564 1.400 . S
C565 C566 1.398 . S
C566 H554 0.950 . S
C566 C565 1.398 . S
C566 C567 1.391 . S
C567 H555 0.950 . S
C567 C563 1.393 . S
C567 C566 1.391 . S
H568 C576 0.950 . S
H569 C581 0.950 . S
H570 C578 0.950 . S
H571 C580 0.950 . S
H572 C582 0.950 . S
H573 C584 0.950 . S
H574 C586 0.950 . S
H575 C587 0.950 . S
C576 H568 0.950 . S
C576 C577 1.386 . S
C576 C578 1.391 . S
C577 C576 1.386 . S
C577 C581 1.393 . S
C578 H570 0.950 . S
C578 C576 1.391 . S
C578 C579 1.400 . S
C579 C578 1.400 . S
C579 C580 1.398 . S
C579 C585 1.491 . S
C580 H571 0.950 . S
C580 C579 1.398 . S
C580 C581 1.391 . S
C581 H569 0.950 . S
C581 C577 1.393 . S
C581 C580 1.391 . S
C582 H572 0.950 . S
C582 C583 1.386 . S
C582 C584 1.391 . S
C583 C582 1.386 . S
C583 C587 1.393 . S
C584 H573 0.950 . S
C584 C582 1.391 . S
C584 C585 1.400 . S
C585 C579 1.491 . S
C585 C584 1.400 . S
C585 C586 1.398 . S
C586 H574 0.950 . S
C586 C585 1.398 . S
C586 C587 1.391 . S
C587 H575 0.950 . S
C587 C583 1.393 . S
C587 C586 1.391 . S
H588 C596 0.950 . S
H589 C601 0.950 . S
H590 C598 0.950 . S
H591 C600 0.950 . S
H592 C602 0.950 . S
H593 C604 0.950 . S
H594 C606 0.950 . S
H595 C607 0.950 . S
C596 H588 0.950 . S
C596 C597 1.386 . S
C596 C598 1.391 . S
C597 C596 1.386 . S
C597 C601 1.393 . S
C598 H590 0.950 . S
C598 C596 1.391 . S
C598 C599 1.400 . S
C599 C598 1.400 . S
C599 C600 1.398 . S
C599 C605 1.491 . S
C600 H591 0.950 . S
C600 C599 1.398 . S
C600 C601 1.391 . S
C601 H589 0.950 . S
C601 C597 1.393 . S
C601 C600 1.391 . S
C602 H592 0.950 . S
C602 C603 1.386 . S
C602 C604 1.391 . S
C603 C602 1.386 . S
C603 C607 1.393 . S
C604 H593 0.950 . S
C604 C602 1.391 . S
C604 C605 1.400 . S
C605 C599 1.491 . S
C605 C604 1.400 . S
C605 C606 1.398 . S
C606 H594 0.950 . S
C606 C605 1.398 . S
C606 C607 1.391 . S
C607 H595 0.950 . S
C607 C603 1.393 . S
C607 C606 1.391 . S
H608 C616 0.950 . S
H609 C621 0.950 . S
H610 C618 0.950 . S
H611 C620 0.950 . S
H612 C622 0.950 . S
H613 C624 0.950 . S
H614 C626 0.950 . S
H615 C627 0.950 . S
C616 H608 0.950 . S
C616 C617 1.386 . S
C616 C618 1.391 . S
C617 C616 1.386 . S
C617 C621 1.393 . S
C618 H610 0.950 . S
C618 C616 1.391 . S
C618 C619 1.400 . S
C619 C618 1.400 . S
C619 C620 1.398 . S
C619 C625 1.491 . S
C620 H611 0.950 . S
C620 C619 1.398 . S
C620 C621 1.391 . S
C621 H609 0.950 . S
C621 C617 1.393 . S
C621 C620 1.391 . S
C622 H612 0.950 . S
C622 C623 1.386 . S
C622 C624 1.391 . S
C623 C622 1.386 . S
C623 C627 1.393 . S
C624 H613 0.950 . S
C624 C622 1.391 . S
C624 C625 1.400 . S
C625 C619 1.491 . S
C625 C624 1.400 . S
C625 C626 1.398 . S
C626 H614 0.950 . S
C626 C625 1.398 . S
C626 C627 1.391 . S
C627 H615 0.950 . S
C627 C623 1.393 . S
C627 C626 1.391 . S
H628 C636 0.950 . S
H629 C641 0.950 . S
H630 C638 0.950 . S
H631 C640 0.950 . S
H632 C642 0.950 . S
H633 C644 0.950 . S
H634 C646 0.950 . S
H635 C647 0.950 . S
C636 H628 0.950 . S
C636 C637 1.386 . S
C636 C638 1.391 . S
C637 C636 1.386 . S
C637 C641 1.393 . S
C638 H630 0.950 . S
C638 C636 1.391 . S
C638 C639 1.400 . S
C639 C638 1.400 . S
C639 C640 1.398 . S
C639 C645 1.491 . S
C640 H631 0.950 . S
C640 C639 1.398 . S
C640 C641 1.391 . S
C641 H629 0.950 . S
C641 C637 1.393 . S
C641 C640 1.391 . S
C642 H632 0.950 . S
C642 C643 1.386 . S
C642 C644 1.391 . S
C643 C642 1.386 . S
C643 C647 1.393 . S
C644 H633 0.950 . S
C644 C642 1.391 . S
C644 C645 1.400 . S
C645 C639 1.491 . S
C645 C644 1.400 . S
C645 C646 1.398 . S
C646 H634 0.950 . S
C646 C645 1.398 . S
C646 C647 1.391 . S
C647 H635 0.950 . S
C647 C643 1.393 . S
C647 C646 1.391 . S
H648 C656 0.950 . S
H649 C661 0.950 . S
H650 C658 0.950 . S
H651 C660 0.950 . S
H652 C662 0.950 . S
H653 C664 0.950 . S
H654 C666 0.950 . S
H655 C667 0.950 . S
C656 H648 0.950 . S
C656 C657 1.386 . S
C656 C658 1.391 . S
C657 C656 1.386 . S
C657 C661 1.393 . S
C658 H650 0.950 . S
C658 C656 1.391 . S
C658 C659 1.400 . S
C659 C658 1.400 . S
C659 C660 1.398 . S
C659 C665 1.491 . S
C660 H651 0.950 . S
C660 C659 1.398 . S
C660 C661 1.391 . S
C661 H649 0.950 . S
C661 C657 1.393 . S
C661 C660 1.391 . S
C662 H652 0.950 . S
C662 C663 1.386 . S
C662 C664 1.391 . S
C663 C662 1.386 . S
C663 C667 1.393 . S
C664 H653 0.950 . S
C664 C662 1.391 . S
C664 C665 1.400 . S
C665 C659 1.491 . S
C665 C664 1.400 . S
C665 C666 1.398 . S
C666 H654 0.950 . S
C666 C665 1.398 . S
C666 C667 1.391 . S
C667 H655 0.950 . S
C667 C663 1.393 . S
C667 C666 1.391 . S
H668 C676 0.950 . S
H669 C681 0.950 . S
H670 C678 0.950 . S
H671 C680 0.950 . S
H672 C682 0.950 . S
H673 C684 0.950 . S
H674 C686 0.950 . S
H675 C687 0.950 . S
C676 H668 0.950 . S
C676 C677 1.386 . S
C676 C678 1.391 . S
C677 C676 1.386 . S
C677 C681 1.393 . S
C678 H670 0.950 . S
C678 C676 1.391 . S
C678 C679 1.400 . S
C679 C678 1.400 . S
C679 C680 1.398 . S
C679 C685 1.491 . S
C680 H671 0.950 . S
C680 C679 1.398 . S
C680 C681 1.391 . S
C681 H669 0.950 . S
C681 C677 1.393 . S
C681 C680 1.391 . S
C682 H672 0.950 . S
C682 C683 1.386 . S
C682 C684 1.391 . S
C683 C682 1.386 . S
C683 C687 1.393 . S
C684 H673 0.950 . S
C684 C682 1.391 . S
C684 C685 1.400 . S
C685 C679 1.491 . S
C685 C684 1.400 . S
C685 C686 1.398 . S
C686 H674 0.950 . S
C686 C685 1.398 . S
C686 C687 1.391 . S
C687 H675 0.950 . S
C687 C683 1.393 . S
C687 C686 1.391 . S
H688 C696 0.950 . S
H689 C701 0.950 . S
H690 C698 0.950 . S
H691 C700 0.950 . S
H692 C702 0.950 . S
H693 C704 0.950 . S
H694 C706 0.950 . S
H695 C707 0.950 . S
C696 H688 0.950 . S
C696 C697 1.386 . S
C696 C698 1.391 . S
C697 C696 1.386 . S
C697 C701 1.393 . S
C698 H690 0.950 . S
C698 C696 1.391 . S
C698 C699 1.400 . S
C699 C698 1.400 . S
C699 C700 1.398 . S
C699 C705 1.491 . S
C700 H691 0.950 . S
C700 C699 1.398 . S
C700 C701 1.391 . S
C701 H689 0.950 . S
C701 C697 1.393 . S
C701 C700 1.391 . S
C702 H692 0.950 . S
C702 C703 1.386 . S
C702 C704 1.391 . S
C703 C702 1.386 . S
C703 C707 1.393 . S
C704 H693 0.950 . S
C704 C702 1.391 . S
C704 C705 1.400 . S
C705 C699 1.491 . S
C705 C704 1.400 . S
C705 C706 1.398 . S
C706 H694 0.950 . S
C706 C705 1.398 . S
C706 C707 1.391 . S
C707 H695 0.950 . S
C707 C703 1.393 . S
C707 C706 1.391 . S
H708 C716 0.950 . S
H709 C721 0.950 . S
H710 C718 0.950 . S
H711 C720 0.950 . S
H712 C722 0.950 . S
H713 C724 0.950 . S
H714 C726 0.950 . S
H715 C727 0.950 . S
C716 H708 0.950 . S
C716 C717 1.386 . S
C716 C718 1.391 . S
C717 C716 1.386 . S
C717 C721 1.393 . S
C718 H710 0.950 . S
C718 C716 1.391 . S
C718 C719 1.400 . S
C719 C718 1.400 . S
C719 C720 1.398 . S
C719 C725 1.491 . S
C720 H711 0.950 . S
C720 C719 1.398 . S
C720 C721 1.391 . S
C721 H709 0.950 . S
C721 C717 1.393 . S
C721 C720 1.391 . S
C722 H712 0.950 . S
C722 C723 1.386 . S
C722 C724 1.391 . S
C723 C722 1.386 . S
C723 C727 1.393 . S
C724 H713 0.950 . S
C724 C722 1.391 . S
C724 C725 1.400 . S
C725 C719 1.491 . S
C725 C724 1.400 . S
C725 C726 1.398 . S
C726 H714 0.950 . S
C726 C725 1.398 . S
C726 C727 1.391 . S
C727 H715 0.950 . S
C727 C723 1.393 . S
C727 C726 1.391 . S
H728 C736 0.950 . S
H729 C741 0.950 . S
H730 C738 0.950 . S
H731 C740 0.950 . S
H732 C742 0.950 . S
H733 C744 0.950 . S
H734 C746 0.950 . S
H735 C747 0.950 . S
C736 H728 0.950 . S
C736 C737 1.386 . S
C736 C738 1.391 . S
C737 C736 1.386 . S
C737 C741 1.393 . S
C738 H730 0.950 . S
C738 C736 1.391 . S
C738 C739 1.400 . S
C739 C738 1.400 . S
C739 C740 1.398 . S
C739 C745 1.491 . S
C740 H731 0.950 . S
C740 C739 1.398 . S
C740 C741 1.391 . S
C741 H729 0.950 . S
C741 C737 1.393 . S
C741 C740 1.391 . S
C742 H732 0.950 . S
C742 C743 1.386 . S
C742 C744 1.391 . S
C743 C742 1.386 . S
C743 C747 1.393 . S
C744 H733 0.950 . S
C744 C742 1.391 . S
C744 C745 1.400 . S
C745 C739 1.491 . S
C745 C744 1.400 . S
C745 C746 1.398 . S
C746 H734 0.950 . S
C746 C745 1.398 . S
C746 C747 1.391 . S
C747 H735 0.950 . S
C747 C743 1.393 . S
C747 C746 1.391 . S
H748 C756 0.950 . S
H749 C761 0.950 . S
H750 C758 0.950 . S
H751 C760 0.950 . S
H752 C762 0.950 . S
H753 C764 0.950 . S
H754 C766 0.950 . S
H755 C767 0.950 . S
C756 H748 0.950 . S
C756 C757 1.386 . S
C756 C758 1.391 . S
C757 C756 1.386 . S
C757 C761 1.393 . S
C758 H750 0.950 . S
C758 C756 1.391 . S
C758 C759 1.400 . S
C759 C758 1.400 . S
C759 C760 1.398 . S
C759 C765 1.491 . S
C760 H751 0.950 . S
C760 C759 1.398 . S
C760 C761 1.391 . S
C761 H749 0.950 . S
C761 C757 1.393 . S
C761 C760 1.391 . S
C762 H752 0.950 . S
C762 C763 1.386 . S
C762 C764 1.391 . S
C763 C762 1.386 . S
C763 C767 1.393 . S
C764 H753 0.950 . S
C764 C762 1.391 . S
C764 C765 1.400 . S
C765 C759 1.491 . S
C765 C764 1.400 . S
C765 C766 1.398 . S
C766 H754 0.950 . S
C766 C765 1.398 . S
C766 C767 1.391 . S
C767 H755 0.950 . S
C767 C763 1.393 . S
C767 C766 1.391 . S
H768 C776 0.950 . S
H769 C781 0.950 . S
H770 C778 0.950 . S
H771 C780 0.950 . S
H772 C782 0.950 . S
H773 C784 0.950 . S
H774 C786 0.950 . S
H775 C787 0.950 . S
C776 H768 0.950 . S
C776 C777 1.386 . S
C776 C778 1.391 . S
C777 C776 1.386 . S
C777 C781 1.393 . S
C778 H770 0.950 . S
C778 C776 1.391 . S
C778 C779 1.400 . S
C779 C778 1.400 . S
C779 C780 1.398 . S
C779 C785 1.491 . S
C780 H771 0.950 . S
C780 C779 1.398 . S
C780 C781 1.391 . S
C781 H769 0.950 . S
C781 C777 1.393 . S
C781 C780 1.391 . S
C782 H772 0.950 . S
C782 C783 1.386 . S
C782 C784 1.391 . S
C783 C782 1.386 . S
C783 C787 1.393 . S
C784 H773 0.950 . S
C784 C782 1.391 . S
C784 C785 1.400 . S
C785 C779 1.491 . S
C785 C784 1.400 . S
C785 C786 1.398 . S
C786 H774 0.950 . S
C786 C785 1.398 . S
C786 C787 1.391 . S
C787 H775 0.950 . S
C787 C783 1.393 . S
C787 C786 1.391 . S
H788 C796 0.950 . S
H789 C801 0.950 . S
H790 C798 0.950 . S
H791 C800 0.950 . S
H792 C802 0.950 . S
H793 C804 0.950 . S
H794 C806 0.950 . S
H795 C807 0.950 . S
C796 H788 0.950 . S
C796 C797 1.386 . S
C796 C798 1.391 . S
C797 C796 1.386 . S
C797 C801 1.393 . S
C798 H790 0.950 . S
C798 C796 1.391 . S
C798 C799 1.400 . S
C799 C798 1.400 . S
C799 C800 1.398 . S
C799 C805 1.491 . S
C800 H791 0.950 . S
C800 C799 1.398 . S
C800 C801 1.391 . S
C801 H789 0.950 . S
C801 C797 1.393 . S
C801 C800 1.391 . S
C802 H792 0.950 . S
C802 C803 1.386 . S
C802 C804 1.391 . S
C803 C802 1.386 . S
C803 C807 1.393 . S
C804 H793 0.950 . S
C804 C802 1.391 . S
C804 C805 1.400 . S
C805 C799 1.491 . S
C805 C804 1.400 . S
C805 C806 1.398 . S
C806 H794 0.950 . S
C806 C805 1.398 . S
C806 C807 1.391 . S
C807 H795 0.950 . S
C807 C803 1.393 . S
C807 C806 1.391 . S
H808 C816 0.950 . S
H809 C821 0.950 . S
H810 C818 0.950 . S
H811 C820 0.950 . S
H812 C822 0.950 . S
H813 C824 0.950 . S
H814 C826 0.950 . S
H815 C827 0.950 1_554 S
C816 H808 0.950 . S
C816 C817 1.386 . S
C816 C818 1.391 . S
C817 C816 1.386 . S
C817 C821 1.393 . S
C818 H810 0.950 . S
C818 C816 1.391 . S
C818 C819 1.400 . S
C819 C818 1.400 . S
C819 C820 1.398 . S
C819 C825 1.491 . S
C820 H811 0.950 . S
C820 C819 1.398 . S
C820 C821 1.391 . S
C821 H809 0.950 . S
C821 C817 1.393 . S
C821 C820 1.391 . S
C822 H812 0.950 . S
C822 C823 1.386 . S
C822 C824 1.391 . S
C823 C822 1.386 . S
C823 C827 1.393 . S
C824 H813 0.950 . S
C824 C822 1.391 . S
C824 C825 1.400 . S
C825 C819 1.491 . S
C825 C824 1.400 . S
C825 C826 1.398 . S
C826 H814 0.950 . S
C826 C825 1.398 . S
C826 C827 1.391 . S
C827 H815 0.950 1_556 S
C827 C823 1.393 . S
C827 C826 1.391 . S
H828 C836 0.950 . S
H829 C841 0.950 . S
H830 C838 0.950 . S
H831 C840 0.950 . S
H832 C842 0.950 . S
H833 C844 0.950 . S
H834 C846 0.950 . S
H835 C847 0.950 . S
C836 H828 0.950 . S
C836 C837 1.386 . S
C836 C838 1.391 . S
C837 C836 1.386 . S
C837 C841 1.393 . S
C838 H830 0.950 . S
C838 C836 1.391 . S
C838 C839 1.400 . S
C839 C838 1.400 . S
C839 C840 1.398 . S
C839 C845 1.491 . S
C840 H831 0.950 . S
C840 C839 1.398 . S
C840 C841 1.391 . S
C841 H829 0.950 . S
C841 C837 1.393 . S
C841 C840 1.391 . S
C842 H832 0.950 . S
C842 C843 1.386 . S
C842 C844 1.391 . S
C843 C842 1.386 . S
C843 C847 1.393 . S
C844 H833 0.950 . S
C844 C842 1.391 . S
C844 C845 1.400 . S
C845 C839 1.491 . S
C845 C844 1.400 . S
C845 C846 1.398 . S
C846 H834 0.950 . S
C846 C845 1.398 . S
C846 C847 1.391 . S
C847 H835 0.950 . S
C847 C843 1.393 . S
C847 C846 1.391 . S
H848 C856 0.950 . S
H849 C861 0.950 . S
H850 C858 0.950 . S
H851 C860 0.950 . S
H852 C862 0.950 . S
H853 C864 0.950 . S
H854 C866 0.950 . S
H855 C867 0.950 . S
C856 H848 0.950 . S
C856 C857 1.386 . S
C856 C858 1.391 1_565 S
C857 C856 1.386 . S
C857 C861 1.393 . S
C858 H850 0.950 . S
C858 C856 1.391 1_545 S
C858 C859 1.400 . S
C859 C858 1.400 . S
C859 C860 1.398 1_545 S
C859 C865 1.491 . S
C860 H851 0.950 . S
C860 C859 1.398 1_565 S
C860 C861 1.391 . S
C861 H849 0.950 . S
C861 C857 1.393 . S
C861 C860 1.391 . S
C862 H852 0.950 . S
C862 C863 1.386 . S
C862 C864 1.391 . S
C863 C862 1.386 . S
C863 C867 1.393 . S
C864 H853 0.950 . S
C864 C862 1.391 . S
C864 C865 1.400 . S
C865 C859 1.491 . S
C865 C864 1.400 . S
C865 C866 1.398 . S
C866 H854 0.950 . S
C866 C865 1.398 . S
C866 C867 1.391 . S
C867 H855 0.950 . S
C867 C863 1.393 . S
C867 C866 1.391 . S
H868 C876 0.950 . S
H869 C881 0.950 . S
H870 C878 0.950 . S
H871 C880 0.950 . S
H872 C882 0.950 . S
H873 C884 0.950 . S
H874 C886 0.950 . S
H875 C887 0.950 . S
C876 H868 0.950 . S
C876 C877 1.386 . S
C876 C878 1.391 . S
C877 C876 1.386 . S
C877 C881 1.393 . S
C878 H870 0.950 . S
C878 C876 1.391 . S
C878 C879 1.400 . S
C879 C878 1.400 . S
C879 C880 1.398 . S
C879 C885 1.491 . S
C880 H871 0.950 . S
C880 C879 1.398 . S
C880 C881 1.391 . S
C881 H869 0.950 . S
C881 C877 1.393 . S
C881 C880 1.391 . S
C882 H872 0.950 . S
C882 C883 1.386 . S
C882 C884 1.391 . S
C883 C882 1.386 . S
C883 C887 1.393 . S
C884 H873 0.950 . S
C884 C882 1.391 . S
C884 C885 1.400 . S
C885 C879 1.491 . S
C885 C884 1.400 . S
C885 C886 1.398 . S
C886 H874 0.950 . S
C886 C885 1.398 . S
C886 C887 1.391 . S
C887 H875 0.950 . S
C887 C883 1.393 . S
C887 C886 1.391 . S
H888 C896 0.950 . S
H889 C901 0.950 . S
H890 C898 0.950 . S
H891 C900 0.950 . S
H892 C902 0.950 . S
H893 C904 0.950 . S
H894 C906 0.950 1_556 S
H895 C907 0.950 . S
C896 H888 0.950 . S
C896 C897 1.386 . S
C896 C898 1.391 . S
C897 C896 1.386 . S
C897 C901 1.393 . S
C898 H890 0.950 . S
C898 C896 1.391 . S
C898 C899 1.400 . S
C899 C898 1.400 . S
C899 C900 1.398 . S
C899 C905 1.491 . S
C900 H891 0.950 . S
C900 C899 1.398 . S
C900 C901 1.391 . S
C901 H889 0.950 . S
C901 C897 1.393 . S
C901 C900 1.391 . S
C902 H892 0.950 . S
C902 C903 1.386 . S
C902 C904 1.391 . S
C903 C902 1.386 . S
C903 C907 1.393 1_554 S
C904 H893 0.950 . S
C904 C902 1.391 . S
C904 C905 1.400 1_545 S
C905 C899 1.491 . S
C905 C904 1.400 1_565 S
C905 C906 1.398 . S
C906 H894 0.950 1_554 S
C906 C905 1.398 . S
C906 C907 1.391 1_564 S
C907 H895 0.950 . S
C907 C903 1.393 1_556 S
C907 C906 1.391 1_546 S
H908 C916 0.950 . S
H909 C921 0.950 . S
H910 C918 0.950 . S
H911 C920 0.950 . S
H912 C922 0.950 . S
H913 C924 0.950 . S
H914 C926 0.950 . S
H915 C927 0.950 . S
C916 H908 0.950 . S
C916 C917 1.386 . S
C916 C918 1.391 . S
C917 C916 1.386 . S
C917 C921 1.393 . S
C918 H910 0.950 . S
C918 C916 1.391 . S
C918 C919 1.400 . S
C919 C918 1.400 . S
C919 C920 1.398 . S
C919 C925 1.491 . S
C920 H911 0.950 . S
C920 C919 1.398 . S
C920 C921 1.391 . S
C921 H909 0.950 . S
C921 C917 1.393 . S
C921 C920 1.391 . S
C922 H912 0.950 . S
C922 C923 1.386 . S
C922 C924 1.391 . S
C923 C922 1.386 . S
C923 C927 1.393 . S
C924 H913 0.950 . S
C924 C922 1.391 . S
C924 C925 1.400 . S
C925 C919 1.491 . S
C925 C924 1.400 . S
C925 C926 1.398 . S
C926 H914 0.950 . S
C926 C925 1.398 . S
C926 C927 1.391 . S
C927 H915 0.950 . S
C927 C923 1.393 . S
C927 C926 1.391 . S
H928 C936 0.950 . S
H929 C941 0.950 . S
H930 C938 0.950 . S
H931 C940 0.950 . S
H932 C942 0.950 . S
H933 C944 0.950 . S
H934 C946 0.950 . S
H935 C947 0.950 . S
C936 H928 0.950 . S
C936 C937 1.386 . S
C936 C938 1.391 . S
C937 C936 1.386 . S
C937 C941 1.393 . S
C938 H930 0.950 . S
C938 C936 1.391 . S
C938 C939 1.400 . S
C939 C938 1.400 . S
C939 C940 1.398 . S
C939 C945 1.491 . S
C940 H931 0.950 . S
C940 C939 1.398 . S
C940 C941 1.391 . S
C941 H929 0.950 . S
C941 C937 1.393 . S
C941 C940 1.391 . S
C942 H932 0.950 . S
C942 C943 1.386 . S
C942 C944 1.391 . S
C943 C942 1.386 . S
C943 C947 1.393 . S
C944 H933 0.950 . S
C944 C942 1.391 . S
C944 C945 1.400 . S
C945 C939 1.491 . S
C945 C944 1.400 . S
C945 C946 1.398 . S
C946 H934 0.950 . S
C946 C945 1.398 . S
C946 C947 1.391 . S
C947 H935 0.950 . S
C947 C943 1.393 . S
C947 C946 1.391 . S
H948 C956 0.950 . S
H949 C961 0.950 . S
H950 C958 0.950 . S
H951 C960 0.950 . S
H952 C962 0.950 . S
H953 C964 0.950 . S
H954 C966 0.950 . S
H955 C967 0.950 . S
C956 H948 0.950 . S
C956 C957 1.386 . S
C956 C958 1.391 . S
C957 C956 1.386 . S
C957 C961 1.393 . S
C958 H950 0.950 . S
C958 C956 1.391 . S
C958 C959 1.400 . S
C959 C958 1.400 . S
C959 C960 1.398 . S
C959 C965 1.491 . S
C960 H951 0.950 . S
C960 C959 1.398 . S
C960 C961 1.391 . S
C961 H949 0.950 . S
C961 C957 1.393 . S
C961 C960 1.391 . S
C962 H952 0.950 . S
C962 C963 1.386 . S
C962 C964 1.391 . S
C963 C962 1.386 . S
C963 C967 1.393 . S
C964 H953 0.950 . S
C964 C962 1.391 . S
C964 C965 1.400 . S
C965 C959 1.491 . S
C965 C964 1.400 . S
C965 C966 1.398 . S
C966 H954 0.950 . S
C966 C965 1.398 . S
C966 C967 1.391 . S
C967 H955 0.950 . S
C967 C963 1.393 . S
C967 C966 1.391 . S
H968 C976 0.950 . S
H969 C981 0.950 . S
H970 C978 0.950 . S
H971 C980 0.950 . S
H972 C982 0.950 . S
H973 C984 0.950 . S
H974 C986 0.950 . S
H975 C987 0.950 . S
C976 H968 0.950 . S
C976 C977 1.386 . S
C976 C978 1.391 . S
C977 C976 1.386 . S
C977 C981 1.393 . S
C978 H970 0.950 . S
C978 C976 1.391 . S
C978 C979 1.400 . S
C979 C978 1.400 . S
C979 C980 1.398 . S
C979 C985 1.491 . S
C980 H971 0.950 . S
C980 C979 1.398 . S
C980 C981 1.391 . S
C981 H969 0.950 . S
C981 C977 1.393 . S
C981 C980 1.391 . S
C982 H972 0.950 . S
C982 C983 1.386 1_655 S
C982 C984 1.391 1_654 S
C983 C982 1.386 1_455 S
C983 C987 1.393 . S
C984 H973 0.950 . S
C984 C982 1.391 1_456 S
C984 C985 1.400 . S
C985 C979 1.491 . S
C985 C984 1.400 . S
C985 C986 1.398 1_556 S
C986 H974 0.950 . S
C986 C985 1.398 1_554 S
C986 C987 1.391 . S
C987 H975 0.950 . S
C987 C983 1.393 . S
C987 C986 1.391 . S
H988 C996 0.950 . S
H989 C1001 0.950 . S
H990 C998 0.950 . S
H991 C1000 0.950 . S
H992 C1002 0.950 . S
H993 C1004 0.950 . S
H994 C1006 0.950 . S
H995 C1007 0.950 . S
C996 H988 0.950 . S
C996 C997 1.386 . S
C996 C998 1.391 . S
C997 C996 1.386 . S
C997 C1001 1.393 . S
C998 H990 0.950 . S
C998 C996 1.391 . S
C998 C999 1.400 . S
C999 C998 1.400 . S
C999 C1000 1.398 . S
C999 C1005 1.491 . S
C1000 H991 0.950 . S
C1000 C999 1.398 . S
C1000 C1001 1.391 . S
C1001 H989 0.950 . S
C1001 C997 1.393 . S
C1001 C1000 1.391 . S
C1002 H992 0.950 . S
C1002 C1003 1.386 . S
C1002 C1004 1.391 . S
C1003 C1002 1.386 . S
C1003 C1007 1.393 . S
C1004 H993 0.950 . S
C1004 C1002 1.391 . S
C1004 C1005 1.400 . S
C1005 C999 1.491 . S
C1005 C1004 1.400 . S
C1005 C1006 1.398 . S
C1006 H994 0.950 . S
C1006 C1005 1.398 . S
C1006 C1007 1.391 . S
C1007 H995 0.950 . S
C1007 C1003 1.393 . S
C1007 C1006 1.391 . S
H1008 C1016 0.950 . S
H1009 C1021 0.950 1_455 S
H1010 C1018 0.950 . S
H1011 C1020 0.950 . S
H1012 C1022 0.950 . S
H1013 C1024 0.950 . S
H1014 C1026 0.950 . S
H1015 C1027 0.950 . S
C1016 H1008 0.950 . S
C1016 C1017 1.386 . S
C1016 C1018 1.391 . S
C1017 C1016 1.386 . S
C1017 C1021 1.393 . S
C1018 H1010 0.950 . S
C1018 C1016 1.391 . S
C1018 C1019 1.400 . S
C1019 C1018 1.400 . S
C1019 C1020 1.398 . S
C1019 C1025 1.491 . S
C1020 H1011 0.950 . S
C1020 C1019 1.398 . S
C1020 C1021 1.391 . S
C1021 H1009 0.950 1_655 S
C1021 C1017 1.393 . S
C1021 C1020 1.391 . S
C1022 H1012 0.950 . S
C1022 C1023 1.386 . S
C1022 C1024 1.391 . S
C1023 C1022 1.386 . S
C1023 C1027 1.393 . S
C1024 H1013 0.950 . S
C1024 C1022 1.391 . S
C1024 C1025 1.400 . S
C1025 C1019 1.491 . S
C1025 C1024 1.400 . S
C1025 C1026 1.398 . S
C1026 H1014 0.950 . S
C1026 C1025 1.398 . S
C1026 C1027 1.391 . S
C1027 H1015 0.950 . S
C1027 C1023 1.393 . S
C1027 C1026 1.391 . S
H1028 C1036 0.950 . S
H1029 C1041 0.950 . S
H1030 C1038 0.950 . S
H1031 C1040 0.950 . S
H1032 C1042 0.950 . S
H1033 C1044 0.950 . S
H1034 C1046 0.950 . S
H1035 C1047 0.950 . S
C1036 H1028 0.950 . S
C1036 C1037 1.386 . S
C1036 C1038 1.391 . S
C1037 C1036 1.386 . S
C1037 C1041 1.393 . S
C1038 H1030 0.950 . S
C1038 C1036 1.391 . S
C1038 C1039 1.400 . S
C1039 C1038 1.400 . S
C1039 C1040 1.398 . S
C1039 C1045 1.491 . S
C1040 H1031 0.950 . S
C1040 C1039 1.398 . S
C1040 C1041 1.391 . S
C1041 H1029 0.950 . S
C1041 C1037 1.393 . S
C1041 C1040 1.391 . S
C1042 H1032 0.950 . S
C1042 C1043 1.386 . S
C1042 C1044 1.391 . S
C1043 C1042 1.386 . S
C1043 C1047 1.393 . S
C1044 H1033 0.950 . S
C1044 C1042 1.391 . S
C1044 C1045 1.400 . S
C1045 C1039 1.491 . S
C1045 C1044 1.400 . S
C1045 C1046 1.398 . S
C1046 H1034 0.950 . S
C1046 C1045 1.398 . S
C1046 C1047 1.391 . S
C1047 H1035 0.950 . S
C1047 C1043 1.393 . S
C1047 C1046 1.391 . S
H1048 C1056 0.950 . S
H1049 C1061 0.950 . S
H1050 C1058 0.950 . S
H1051 C1060 0.950 . S
H1052 C1062 0.950 . S
H1053 C1064 0.950 . S
H1054 C1066 0.950 . S
H1055 C1067 0.950 . S
C1056 H1048 0.950 . S
C1056 C1057 1.386 . S
C1056 C1058 1.391 . S
C1057 C1056 1.386 . S
C1057 C1061 1.393 . S
C1058 H1050 0.950 . S
C1058 C1056 1.391 . S
C1058 C1059 1.400 . S
C1059 C1058 1.400 . S
C1059 C1060 1.398 . S
C1059 C1065 1.491 . S
C1060 H1051 0.950 . S
C1060 C1059 1.398 . S
C1060 C1061 1.391 . S
C1061 H1049 0.950 . S
C1061 C1057 1.393 . S
C1061 C1060 1.391 . S
C1062 H1052 0.950 . S
C1062 C1063 1.386 . S
C1062 C1064 1.391 1_556 S
C1063 C1062 1.386 . S
C1063 C1067 1.393 . S
C1064 H1053 0.950 . S
C1064 C1062 1.391 1_554 S
C1064 C1065 1.400 . S
C1065 C1059 1.491 . S
C1065 C1064 1.400 . S
C1065 C1066 1.398 1_554 S
C1066 H1054 0.950 . S
C1066 C1065 1.398 1_556 S
C1066 C1067 1.391 . S
C1067 H1055 0.950 . S
C1067 C1063 1.393 . S
C1067 C1066 1.391 . S
H1068 C1076 0.950 . S
H1069 C1081 0.950 . S
H1070 C1078 0.950 . S
H1071 C1080 0.950 . S
H1072 C1082 0.950 . S
H1073 C1084 0.950 . S
H1074 C1086 0.950 . S
H1075 C1087 0.950 . S
C1076 H1068 0.950 . S
C1076 C1077 1.386 . S
C1076 C1078 1.391 . S
C1077 C1076 1.386 . S
C1077 C1081 1.393 . S
C1078 H1070 0.950 . S
C1078 C1076 1.391 . S
C1078 C1079 1.400 . S
C1079 C1078 1.400 . S
C1079 C1080 1.398 . S
C1079 C1085 1.491 . S
C1080 H1071 0.950 . S
C1080 C1079 1.398 . S
C1080 C1081 1.391 . S
C1081 H1069 0.950 . S
C1081 C1077 1.393 . S
C1081 C1080 1.391 . S
C1082 H1072 0.950 . S
C1082 C1083 1.386 . S
C1082 C1084 1.391 . S
C1083 C1082 1.386 . S
C1083 C1087 1.393 . S
C1084 H1073 0.950 . S
C1084 C1082 1.391 . S
C1084 C1085 1.400 . S
C1085 C1079 1.491 . S
C1085 C1084 1.400 . S
C1085 C1086 1.398 . S
C1086 H1074 0.950 . S
C1086 C1085 1.398 . S
C1086 C1087 1.391 . S
C1087 H1075 0.950 . S
C1087 C1083 1.393 . S
C1087 C1086 1.391 . S
H1088 C1096 0.950 . S
H1089 C1101 0.950 . S
H1090 C1098 0.950 . S
H1091 C1100 0.950 . S
H1092 C1102 0.950 . S
H1093 C1104 0.950 . S
H1094 C1106 0.950 . S
H1095 C1107 0.950 . S
C1096 H1088 0.950 . S
C1096 C1097 1.386 . S
C1096 C1098 1.391 . S
C1097 C1096 1.386 . S
C1097 C1101 1.393 . S
C1098 H1090 0.950 . S
C1098 C1096 1.391 . S
C1098 C1099 1.400 . S
C1099 C1098 1.400 . S
C1099 C1100 1.398 . S
C1099 C1105 1.491 . S
C1100 H1091 0.950 . S
C1100 C1099 1.398 . S
C1100 C1101 1.391 . S
C1101 H1089 0.950 . S
C1101 C1097 1.393 . S
C1101 C1100 1.391 . S
C1102 H1092 0.950 . S
C1102 C1103 1.386 . S
C1102 C1104 1.391 . S
C1103 C1102 1.386 . S
C1103 C1107 1.393 . S
C1104 H1093 0.950 . S
C1104 C1102 1.391 . S
C1104 C1105 1.400 . S
C1105 C1099 1.491 . S
C1105 C1104 1.400 . S
C1105 C1106 1.398 . S
C1106 H1094 0.950 . S
C1106 C1105 1.398 . S
C1106 C1107 1.391 . S
C1107 H1095 0.950 . S
C1107 C1103 1.393 . S
C1107 C1106 1.391 . S
H1108 C1116 0.950 . S
H1109 C1121 0.950 . S
H1110 C1118 0.950 . S
H1111 C1120 0.950 1_565 S
H1112 C1122 0.950 . S
H1113 C1124 0.950 . S
H1114 C1126 0.950 . S
H1115 C1127 0.950 . S
C1116 H1108 0.950 . S
C1116 C1117 1.386 . S
C1116 C1118 1.391 . S
C1117 C1116 1.386 . S
C1117 C1121 1.393 1_545 S
C1118 H1110 0.950 . S
C1118 C1116 1.391 . S
C1118 C1119 1.400 1_455 S
C1119 C1118 1.400 1_655 S
C1119 C1120 1.398 . S
C1119 C1125 1.491 . S
C1120 H1111 0.950 1_545 S
C1120 C1119 1.398 . S
C1120 C1121 1.391 1_645 S
C1121 H1109 0.950 . S
C1121 C1117 1.393 1_565 S
C1121 C1120 1.391 1_465 S
C1122 H1112 0.950 . S
C1122 C1123 1.386 . S
C1122 C1124 1.391 . S
C1123 C1122 1.386 . S
C1123 C1127 1.393 . S
C1124 H1113 0.950 . S
C1124 C1122 1.391 . S
C1124 C1125 1.400 . S
C1125 C1119 1.491 . S
C1125 C1124 1.400 . S
C1125 C1126 1.398 . S
C1126 H1114 0.950 . S
C1126 C1125 1.398 . S
C1126 C1127 1.391 . S
C1127 H1115 0.950 . S
C1127 C1123 1.393 . S
C1127 C1126 1.391 . S
H1128 C1136 0.950 . S
H1129 C1141 0.950 . S
H1130 C1138 0.950 . S
H1131 C1140 0.950 . S
H1132 C1142 0.950 . S
H1133 C1144 0.950 . S
H1134 C1146 0.950 . S
H1135 C1147 0.950 . S
C1136 H1128 0.950 . S
C1136 C1137 1.386 . S
C1136 C1138 1.391 . S
C1137 C1136 1.386 . S
C1137 C1141 1.393 . S
C1138 H1130 0.950 . S
C1138 C1136 1.391 . S
C1138 C1139 1.400 . S
C1139 C1138 1.400 . S
C1139 C1140 1.398 . S
C1139 C1145 1.491 . S
C1140 H1131 0.950 . S
C1140 C1139 1.398 . S
C1140 C1141 1.391 . S
C1141 H1129 0.950 . S
C1141 C1137 1.393 . S
C1141 C1140 1.391 . S
C1142 H1132 0.950 . S
C1142 C1143 1.386 . S
C1142 C1144 1.391 . S
C1143 C1142 1.386 . S
C1143 C1147 1.393 . S
C1144 H1133 0.950 . S
C1144 C1142 1.391 . S
C1144 C1145 1.400 . S
C1145 C1139 1.491 . S
C1145 C1144 1.400 . S
C1145 C1146 1.398 . S
C1146 H1134 0.950 . S
C1146 C1145 1.398 . S
C1146 C1147 1.391 . S
C1147 H1135 0.950 . S
C1147 C1143 1.393 . S
C1147 C1146 1.391 . S
H1148 C1156 0.950 . S
H1149 C1161 0.950 1_545 S
H1150 C1158 0.950 . S
H1151 C1160 0.950 . S
H1152 C1162 0.950 . S
H1153 C1164 0.950 . S
H1154 C1166 0.950 . S
H1155 C1167 0.950 . S
C1156 H1148 0.950 . S
C1156 C1157 1.386 . S
C1156 C1158 1.391 . S
C1157 C1156 1.386 . S
C1157 C1161 1.393 . S
C1158 H1150 0.950 . S
C1158 C1156 1.391 . S
C1158 C1159 1.400 . S
C1159 C1158 1.400 . S
C1159 C1160 1.398 . S
C1159 C1165 1.491 . S
C1160 H1151 0.950 . S
C1160 C1159 1.398 . S
C1160 C1161 1.391 . S
C1161 H1149 0.950 1_565 S
C1161 C1157 1.393 . S
C1161 C1160 1.391 . S
C1162 H1152 0.950 . S
C1162 C1163 1.386 . S
C1162 C1164 1.391 . S
C1163 C1162 1.386 . S
C1163 C1167 1.393 . S
C1164 H1153 0.950 . S
C1164 C1162 1.391 . S
C1164 C1165 1.400 . S
C1165 C1159 1.491 . S
C1165 C1164 1.400 . S
C1165 C1166 1.398 . S
C1166 H1154 0.950 . S
C1166 C1165 1.398 . S
C1166 C1167 1.391 . S
C1167 H1155 0.950 . S
C1167 C1163 1.393 . S
C1167 C1166 1.391 . S
H1168 C1176 0.950 . S
H1169 C1181 0.950 . S
H1170 C1178 0.950 . S
H1171 C1180 0.950 . S
H1172 C1182 0.950 . S
H1173 C1184 0.950 . S
H1174 C1186 0.950 . S
H1175 C1187 0.950 . S
C1176 H1168 0.950 . S
C1176 C1177 1.386 . S
C1176 C1178 1.391 . S
C1177 C1176 1.386 . S
C1177 C1181 1.393 . S
C1178 H1170 0.950 . S
C1178 C1176 1.391 . S
C1178 C1179 1.400 . S
C1179 C1178 1.400 . S
C1179 C1180 1.398 . S
C1179 C1185 1.491 . S
C1180 H1171 0.950 . S
C1180 C1179 1.398 . S
C1180 C1181 1.391 . S
C1181 H1169 0.950 . S
C1181 C1177 1.393 . S
C1181 C1180 1.391 . S
C1182 H1172 0.950 . S
C1182 C1183 1.386 . S
C1182 C1184 1.391 . S
C1183 C1182 1.386 . S
C1183 C1187 1.393 . S
C1184 H1173 0.950 . S
C1184 C1182 1.391 . S
C1184 C1185 1.400 . S
C1185 C1179 1.491 . S
C1185 C1184 1.400 . S
C1185 C1186 1.398 . S
C1186 H1174 0.950 . S
C1186 C1185 1.398 . S
C1186 C1187 1.391 . S
C1187 H1175 0.950 . S
C1187 C1183 1.393 . S
C1187 C1186 1.391 . S
H1188 C1196 0.950 . S
H1189 C1201 0.950 . S
H1190 C1198 0.950 . S
H1191 C1200 0.950 . S
H1192 C1202 0.950 . S
H1193 C1204 0.950 . S
H1194 C1206 0.950 . S
H1195 C1207 0.950 . S
C1196 H1188 0.950 . S
C1196 C1197 1.386 . S
C1196 C1198 1.391 1_655 S
C1197 C1196 1.386 . S
C1197 C1201 1.393 . S
C1198 H1190 0.950 . S
C1198 C1196 1.391 1_455 S
C1198 C1199 1.400 . S
C1199 C1198 1.400 . S
C1199 C1200 1.398 1_455 S
C1199 C1205 1.491 . S
C1200 H1191 0.950 . S
C1200 C1199 1.398 1_655 S
C1200 C1201 1.391 . S
C1201 H1189 0.950 . S
C1201 C1197 1.393 . S
C1201 C1200 1.391 . S
C1202 H1192 0.950 . S
C1202 C1203 1.386 . S
C1202 C1204 1.391 . S
C1203 C1202 1.386 . S
C1203 C1207 1.393 . S
C1204 H1193 0.950 . S
C1204 C1202 1.391 . S
C1204 C1205 1.400 . S
C1205 C1199 1.491 . S
C1205 C1204 1.400 . S
C1205 C1206 1.398 . S
C1206 H1194 0.950 . S
C1206 C1205 1.398 . S
C1206 C1207 1.391 . S
C1207 H1195 0.950 . S
C1207 C1203 1.393 . S
C1207 C1206 1.391 . S
H1208 C1216 0.950 . S
H1209 C1221 0.950 . S
H1210 C1218 0.950 . S
H1211 C1220 0.950 . S
H1212 C1222 0.950 . S
H1213 C1224 0.950 . S
H1214 C1226 0.950 . S
H1215 C1227 0.950 . S
C1216 H1208 0.950 . S
C1216 C1217 1.386 . S
C1216 C1218 1.391 . S
C1217 C1216 1.386 . S
C1217 C1221 1.393 . S
C1218 H1210 0.950 . S
C1218 C1216 1.391 . S
C1218 C1219 1.400 . S
C1219 C1218 1.400 . S
C1219 C1220 1.398 . S
C1219 C1225 1.491 . S
C1220 H1211 0.950 . S
C1220 C1219 1.398 . S
C1220 C1221 1.391 . S
C1221 H1209 0.950 . S
C1221 C1217 1.393 . S
C1221 C1220 1.391 . S
C1222 H1212 0.950 . S
C1222 C1223 1.386 . S
C1222 C1224 1.391 . S
C1223 C1222 1.386 . S
C1223 C1227 1.393 . S
C1224 H1213 0.950 . S
C1224 C1222 1.391 . S
C1224 C1225 1.400 . S
C1225 C1219 1.491 . S
C1225 C1224 1.400 . S
C1225 C1226 1.398 . S
C1226 H1214 0.950 . S
C1226 C1225 1.398 . S
C1226 C1227 1.391 . S
C1227 H1215 0.950 . S
C1227 C1223 1.393 . S
C1227 C1226 1.391 . S
H1228 C1236 0.950 . S
H1229 C1241 0.950 . S
H1230 C1238 0.950 . S
H1231 C1240 0.950 . S
H1232 C1242 0.950 . S
H1233 C1244 0.950 . S
H1234 C1246 0.950 . S
H1235 C1247 0.950 . S
C1236 H1228 0.950 . S
C1236 C1237 1.386 . S
C1236 C1238 1.391 . S
C1237 C1236 1.386 . S
C1237 C1241 1.393 . S
C1238 H1230 0.950 . S
C1238 C1236 1.391 . S
C1238 C1239 1.400 . S
C1239 C1238 1.400 . S
C1239 C1240 1.398 . S
C1239 C1245 1.491 . S
C1240 H1231 0.950 . S
C1240 C1239 1.398 . S
C1240 C1241 1.391 . S
C1241 H1229 0.950 . S
C1241 C1237 1.393 . S
C1241 C1240 1.391 . S
C1242 H1232 0.950 . S
C1242 C1243 1.386 . S
C1242 C1244 1.391 . S
C1243 C1242 1.386 . S
C1243 C1247 1.393 . S
C1244 H1233 0.950 . S
C1244 C1242 1.391 . S
C1244 C1245 1.400 . S
C1245 C1239 1.491 . S
C1245 C1244 1.400 . S
C1245 C1246 1.398 . S
C1246 H1234 0.950 . S
C1246 C1245 1.398 . S
C1246 C1247 1.391 . S
C1247 H1235 0.950 . S
C1247 C1243 1.393 . S
C1247 C1246 1.391 . S
H1248 C1256 0.950 . S
H1249 C1261 0.950 . S
H1250 C1258 0.950 . S
H1251 C1260 0.950 . S
H1252 C1262 0.950 . S
H1253 C1264 0.950 . S
H1254 C1266 0.950 . S
H1255 C1267 0.950 . S
C1256 H1248 0.950 . S
C1256 C1257 1.386 . S
C1256 C1258 1.391 . S
C1257 C1256 1.386 . S
C1257 C1261 1.393 . S
C1258 H1250 0.950 . S
C1258 C1256 1.391 . S
C1258 C1259 1.400 . S
C1259 C1258 1.400 . S
C1259 C1260 1.398 . S
C1259 C1265 1.491 . S
C1260 H1251 0.950 . S
C1260 C1259 1.398 . S
C1260 C1261 1.391 . S
C1261 H1249 0.950 . S
C1261 C1257 1.393 . S
C1261 C1260 1.391 . S
C1262 H1252 0.950 . S
C1262 C1263 1.386 . S
C1262 C1264 1.391 . S
C1263 C1262 1.386 . S
C1263 C1267 1.393 . S
C1264 H1253 0.950 . S
C1264 C1262 1.391 . S
C1264 C1265 1.400 . S
C1265 C1259 1.491 . S
C1265 C1264 1.400 . S
C1265 C1266 1.398 . S
C1266 H1254 0.950 . S
C1266 C1265 1.398 . S
C1266 C1267 1.391 . S
C1267 H1255 0.950 . S
C1267 C1263 1.393 . S
C1267 C1266 1.391 . S
H1268 C1276 0.950 . S
H1269 C1281 0.950 . S
H1270 C1278 0.950 . S
H1271 C1280 0.950 . S
H1272 C1282 0.950 . S
H1273 C1284 0.950 . S
H1274 C1286 0.950 . S
H1275 C1287 0.950 . S
C1276 H1268 0.950 . S
C1276 C1277 1.386 . S
C1276 C1278 1.391 . S
C1277 C1276 1.386 . S
C1277 C1281 1.393 . S
C1278 H1270 0.950 . S
C1278 C1276 1.391 . S
C1278 C1279 1.400 . S
C1279 C1278 1.400 . S
C1279 C1280 1.398 . S
C1279 C1285 1.491 . S
C1280 H1271 0.950 . S
C1280 C1279 1.398 . S
C1280 C1281 1.391 . S
C1281 H1269 0.950 . S
C1281 C1277 1.393 . S
C1281 C1280 1.391 . S
C1282 H1272 0.950 . S
C1282 C1283 1.386 . S
C1282 C1284 1.391 . S
C1283 C1282 1.386 . S
C1283 C1287 1.393 . S
C1284 H1273 0.950 . S
C1284 C1282 1.391 . S
C1284 C1285 1.400 . S
C1285 C1279 1.491 . S
C1285 C1284 1.400 . S
C1285 C1286 1.398 . S
C1286 H1274 0.950 . S
C1286 C1285 1.398 . S
C1286 C1287 1.391 . S
C1287 H1275 0.950 . S
C1287 C1283 1.393 . S
C1287 C1286 1.391 . S
H1288 C1296 0.950 . S
H1289 C1301 0.950 . S
H1290 C1298 0.950 . S
H1291 C1300 0.950 . S
H1292 C1302 0.950 . S
H1293 C1304 0.950 . S
H1294 C1306 0.950 . S
H1295 C1307 0.950 . S
C1296 H1288 0.950 . S
C1296 C1297 1.386 . S
C1296 C1298 1.391 . S
C1297 C1296 1.386 . S
C1297 C1301 1.393 . S
C1298 H1290 0.950 . S
C1298 C1296 1.391 . S
C1298 C1299 1.400 . S
C1299 C1298 1.400 . S
C1299 C1300 1.398 . S
C1299 C1305 1.491 . S
C1300 H1291 0.950 . S
C1300 C1299 1.398 . S
C1300 C1301 1.391 . S
C1301 H1289 0.950 . S
C1301 C1297 1.393 . S
C1301 C1300 1.391 . S
C1302 H1292 0.950 . S
C1302 C1303 1.386 . S
C1302 C1304 1.391 . S
C1303 C1302 1.386 . S
C1303 C1307 1.393 . S
C1304 H1293 0.950 . S
C1304 C1302 1.391 . S
C1304 C1305 1.400 . S
C1305 C1299 1.491 . S
C1305 C1304 1.400 . S
C1305 C1306 1.398 . S
C1306 H1294 0.950 . S
C1306 C1305 1.398 . S
C1306 C1307 1.391 . S
C1307 H1295 0.950 . S
C1307 C1303 1.393 . S
C1307 C1306 1.391 . S
H1308 C1316 0.950 . S
H1309 C1321 0.950 . S
H1310 C1318 0.950 . S
H1311 C1320 0.950 1_556 S
H1312 C1322 0.950 . S
H1313 C1324 0.950 . S
H1314 C1326 0.950 . S
H1315 C1327 0.950 . S
C1316 H1308 0.950 . S
C1316 C1317 1.386 . S
C1316 C1318 1.391 . S
C1317 C1316 1.386 . S
C1317 C1321 1.393 . S
C1318 H1310 0.950 . S
C1318 C1316 1.391 . S
C1318 C1319 1.400 . S
C1319 C1318 1.400 . S
C1319 C1320 1.398 . S
C1319 C1325 1.491 . S
C1320 H1311 0.950 1_554 S
C1320 C1319 1.398 . S
C1320 C1321 1.391 . S
C1321 H1309 0.950 . S
C1321 C1317 1.393 . S
C1321 C1320 1.391 . S
C1322 H1312 0.950 . S
C1322 C1323 1.386 . S
C1322 C1324 1.391 . S
C1323 C1322 1.386 . S
C1323 C1327 1.393 1_556 S
C1324 H1313 0.950 . S
C1324 C1322 1.391 . S
C1324 C1325 1.400 1_556 S
C1325 C1319 1.491 . S
C1325 C1324 1.400 1_554 S
C1325 C1326 1.398 . S
C1326 H1314 0.950 . S
C1326 C1325 1.398 . S
C1326 C1327 1.391 . S
C1327 H1315 0.950 . S
C1327 C1323 1.393 1_554 S
C1327 C1326 1.391 . S
H1328 C1336 0.950 . S
H1329 C1341 0.950 . S
H1330 C1338 0.950 . S
H1331 C1340 0.950 . S
H1332 C1342 0.950 . S
H1333 C1344 0.950 . S
H1334 C1346 0.950 . S
H1335 C1347 0.950 . S
C1336 H1328 0.950 . S
C1336 C1337 1.386 . S
C1336 C1338 1.391 1_565 S
C1337 C1336 1.386 . S
C1337 C1341 1.393 . S
C1338 H1330 0.950 . S
C1338 C1336 1.391 1_545 S
C1338 C1339 1.400 . S
C1339 C1338 1.400 . S
C1339 C1340 1.398 . S
C1339 C1345 1.491 . S
C1340 H1331 0.950 . S
C1340 C1339 1.398 . S
C1340 C1341 1.391 1_545 S
C1341 H1329 0.950 . S
C1341 C1337 1.393 . S
C1341 C1340 1.391 1_565 S
C1342 H1332 0.950 . S
C1342 C1343 1.386 . S
C1342 C1344 1.391 . S
C1343 C1342 1.386 . S
C1343 C1347 1.393 . S
C1344 H1333 0.950 . S
C1344 C1342 1.391 . S
C1344 C1345 1.400 . S
C1345 C1339 1.491 . S
C1345 C1344 1.400 . S
C1345 C1346 1.398 . S
C1346 H1334 0.950 . S
C1346 C1345 1.398 . S
C1346 C1347 1.391 . S
C1347 H1335 0.950 . S
C1347 C1343 1.393 . S
C1347 C1346 1.391 . S
H1348 C1356 0.950 . S
H1349 C1361 0.950 . S
H1350 C1358 0.950 . S
H1351 C1360 0.951 . S
H1352 C1362 0.950 . S
H1353 C1364 0.950 . S
H1354 C1366 0.950 . S
H1355 C1367 0.950 . S
C1356 H1348 0.950 . S
C1356 C1357 1.386 . S
C1356 C1358 1.391 1_554 S
C1357 C1356 1.386 . S
C1357 C1361 1.393 . S
C1358 H1350 0.950 . S
C1358 C1356 1.391 1_556 S
C1358 C1359 1.400 . S
C1359 C1358 1.400 . S
C1359 C1360 1.398 1_556 S
C1359 C1365 1.491 . S
C1360 H1351 0.951 . S
C1360 C1359 1.398 1_554 S
C1360 C1361 1.391 . S
C1361 H1349 0.950 . S
C1361 C1357 1.393 . S
C1361 C1360 1.391 . S
C1362 H1352 0.950 . S
C1362 C1363 1.386 . S
C1362 C1364 1.391 . S
C1363 C1362 1.386 . S
C1363 C1367 1.393 . S
C1364 H1353 0.950 . S
C1364 C1362 1.391 . S
C1364 C1365 1.400 . S
C1365 C1359 1.491 . S
C1365 C1364 1.400 . S
C1365 C1366 1.398 . S
C1366 H1354 0.950 . S
C1366 C1365 1.398 . S
C1366 C1367 1.391 . S
C1367 H1355 0.950 . S
C1367 C1363 1.393 . S
C1367 C1366 1.391 . S
H1368 C1376 0.950 . S
H1369 C1381 0.950 . S
H1370 C1378 0.950 . S
H1371 C1380 0.946 1_545 S
H1372 C1382 0.950 . S
H1373 C1384 0.950 . S
H1374 C1386 0.950 . S
H1375 C1387 0.950 . S
C1376 H1368 0.950 . S
C1376 C1377 1.386 1_565 S
C1376 C1378 1.391 . S
C1377 C1376 1.386 1_545 S
C1377 C1381 1.393 . S
C1378 H1370 0.950 . S
C1378 C1376 1.391 . S
C1378 C1379 1.400 . S
C1379 C1378 1.400 . S
C1379 C1380 1.427 . S
C1379 C1385 1.491 . S
C1380 H1371 0.946 1_565 S
C1380 C1379 1.427 . S
C1380 C1381 1.367 1_565 S
C1381 H1369 0.950 . S
C1381 C1377 1.393 . S
C1381 C1380 1.367 1_545 S
C1382 H1372 0.950 . S
C1382 C1383 1.386 . S
C1382 C1384 1.391 . S
C1383 C1382 1.386 . S
C1383 C1387 1.393 . S
C1384 H1373 0.950 . S
C1384 C1382 1.391 . S
C1384 C1385 1.400 . S
C1385 C1379 1.491 . S
C1385 C1384 1.400 . S
C1385 C1386 1.398 . S
C1386 H1374 0.950 . S
C1386 C1385 1.398 . S
C1386 C1387 1.391 . S
C1387 H1375 0.950 . S
C1387 C1383 1.393 . S
C1387 C1386 1.391 . S
H1388 C1396 0.950 . S
H1389 C1401 0.950 . S
H1390 C1398 0.950 . S
H1391 C1400 0.950 . S
H1392 C1402 0.950 . S
H1393 C1404 0.950 . S
H1394 C1406 0.950 . S
H1395 C1407 0.950 . S
C1396 H1388 0.950 . S
C1396 C1397 1.386 . S
C1396 C1398 1.391 . S
C1397 C1396 1.386 . S
C1397 C1401 1.393 . S
C1398 H1390 0.950 . S
C1398 C1396 1.391 . S
C1398 C1399 1.400 . S
C1399 C1398 1.400 . S
C1399 C1400 1.398 . S
C1399 C1405 1.491 . S
C1400 H1391 0.950 . S
C1400 C1399 1.398 . S
C1400 C1401 1.391 . S
C1401 H1389 0.950 . S
C1401 C1397 1.393 . S
C1401 C1400 1.391 . S
C1402 H1392 0.950 . S
C1402 C1403 1.386 . S
C1402 C1404 1.391 . S
C1403 C1402 1.386 . S
C1403 C1407 1.393 . S
C1404 H1393 0.950 . S
C1404 C1402 1.391 . S
C1404 C1405 1.400 . S
C1405 C1399 1.491 . S
C1405 C1404 1.400 . S
C1405 C1406 1.398 . S
C1406 H1394 0.950 . S
C1406 C1405 1.398 . S
C1406 C1407 1.391 . S
C1407 H1395 0.950 . S
C1407 C1403 1.393 . S
C1407 C1406 1.391 . S
H1408 C1416 0.950 . S
H1409 C1421 0.950 . S
H1410 C1418 0.950 . S
H1411 C1420 0.950 . S
H1412 C1422 0.950 . S
H1413 C1424 0.950 . S
H1414 C1426 0.950 . S
H1415 C1427 0.950 . S
C1416 H1408 0.950 . S
C1416 C1417 1.386 . S
C1416 C1418 1.391 . S
C1417 C1416 1.386 . S
C1417 C1421 1.393 . S
C1418 H1410 0.950 . S
C1418 C1416 1.391 . S
C1418 C1419 1.400 . S
C1419 C1418 1.400 . S
C1419 C1420 1.398 . S
C1419 C1425 1.491 . S
C1420 H1411 0.950 . S
C1420 C1419 1.398 . S
C1420 C1421 1.391 . S
C1421 H1409 0.950 . S
C1421 C1417 1.393 . S
C1421 C1420 1.391 . S
C1422 H1412 0.950 . S
C1422 C1423 1.386 . S
C1422 C1424 1.391 . S
C1423 C1422 1.386 . S
C1423 C1427 1.393 . S
C1424 H1413 0.950 . S
C1424 C1422 1.391 . S
C1424 C1425 1.400 . S
C1425 C1419 1.491 . S
C1425 C1424 1.400 . S
C1425 C1426 1.398 . S
C1426 H1414 0.950 . S
C1426 C1425 1.398 . S
C1426 C1427 1.391 . S
C1427 H1415 0.950 . S
C1427 C1423 1.393 . S
C1427 C1426 1.391 . S
H1428 C1436 0.950 . S
H1429 C1441 0.950 . S
H1430 C1438 0.950 . S
H1431 C1440 0.950 . S
H1432 C1442 0.950 . S
H1433 C1444 0.950 1_565 S
H1434 C1446 0.950 . S
H1435 C1447 0.950 . S
C1436 H1428 0.950 . S
C1436 C1437 1.386 1_545 S
C1436 C1438 1.391 . S
C1437 C1436 1.386 1_565 S
C1437 C1441 1.393 . S
C1438 H1430 0.950 . S
C1438 C1436 1.391 . S
C1438 C1439 1.400 . S
C1439 C1438 1.400 . S
C1439 C1440 1.398 1_545 S
C1439 C1445 1.491 . S
C1440 H1431 0.950 . S
C1440 C1439 1.398 1_565 S
C1440 C1441 1.391 . S
C1441 H1429 0.950 . S
C1441 C1437 1.393 . S
C1441 C1440 1.391 . S
C1442 H1432 0.950 . S
C1442 C1443 1.386 . S
C1442 C1444 1.391 . S
C1443 C1442 1.386 . S
C1443 C1447 1.393 . S
C1444 H1433 0.950 1_545 S
C1444 C1442 1.391 . S
C1444 C1445 1.400 . S
C1445 C1439 1.491 . S
C1445 C1444 1.400 . S
C1445 C1446 1.398 . S
C1446 H1434 0.950 . S
C1446 C1445 1.398 . S
C1446 C1447 1.391 . S
C1447 H1435 0.950 . S
C1447 C1443 1.393 . S
C1447 C1446 1.391 . S
H1448 C1456 0.950 . S
H1449 C1461 0.950 . S
H1450 C1458 0.950 . S
H1451 C1460 0.950 . S
H1452 C1462 0.950 . S
H1453 C1464 0.950 . S
H1454 C1466 0.950 . S
H1455 C1467 0.950 . S
C1456 H1448 0.950 . S
C1456 C1457 1.386 . S
C1456 C1458 1.391 . S
C1457 C1456 1.386 . S
C1457 C1461 1.393 . S
C1458 H1450 0.950 . S
C1458 C1456 1.391 . S
C1458 C1459 1.400 . S
C1459 C1458 1.400 . S
C1459 C1460 1.398 . S
C1459 C1465 1.491 . S
C1460 H1451 0.950 . S
C1460 C1459 1.398 . S
C1460 C1461 1.391 . S
C1461 H1449 0.950 . S
C1461 C1457 1.393 . S
C1461 C1460 1.391 . S
C1462 H1452 0.950 . S
C1462 C1463 1.386 . S
C1462 C1464 1.391 1_554 S
C1463 C1462 1.386 . S
C1463 C1467 1.393 1_554 S
C1464 H1453 0.950 . S
C1464 C1462 1.391 1_556 S
C1464 C1465 1.400 . S
C1465 C1459 1.491 . S
C1465 C1464 1.400 . S
C1465 C1466 1.398 . S
C1466 H1454 0.950 . S
C1466 C1465 1.398 . S
C1466 C1467 1.391 . S
C1467 H1455 0.950 . S
C1467 C1463 1.393 1_556 S
C1467 C1466 1.391 . S
H1468 C1476 0.950 . S
H1469 C1481 0.950 . S
H1470 C1478 0.950 . S
H1471 C1480 0.950 . S
H1472 C1482 0.950 . S
H1473 C1484 0.950 . S
H1474 C1486 0.950 . S
H1475 C1487 0.950 . S
C1476 H1468 0.950 . S
C1476 C1477 1.386 . S
C1476 C1478 1.391 . S
C1477 C1476 1.386 . S
C1477 C1481 1.393 . S
C1478 H1470 0.950 . S
C1478 C1476 1.391 . S
C1478 C1479 1.400 . S
C1479 C1478 1.400 . S
C1479 C1480 1.398 . S
C1479 C1485 1.491 . S
C1480 H1471 0.950 . S
C1480 C1479 1.398 . S
C1480 C1481 1.391 . S
C1481 H1469 0.950 . S
C1481 C1477 1.393 . S
C1481 C1480 1.391 . S
C1482 H1472 0.950 . S
C1482 C1483 1.386 . S
C1482 C1484 1.391 . S
C1483 C1482 1.386 . S
C1483 C1487 1.393 1_545 S
C1484 H1473 0.950 . S
C1484 C1482 1.391 . S
C1484 C1485 1.400 1_545 S
C1485 C1479 1.491 . S
C1485 C1484 1.400 1_565 S
C1485 C1486 1.398 . S
C1486 H1474 0.950 . S
C1486 C1485 1.398 . S
C1486 C1487 1.391 . S
C1487 H1475 0.950 . S
C1487 C1483 1.393 1_565 S
C1487 C1486 1.391 . S
H1488 C1496 0.950 . S
H1489 C1501 0.950 . S
H1490 C1498 0.950 . S
H1491 C1500 0.950 . S
H1492 C1502 0.950 . S
H1493 C1504 0.950 . S
H1494 C1506 0.950 . S
H1495 C1507 0.950 . S
C1496 H1488 0.950 . S
C1496 C1497 1.386 . S
C1496 C1498 1.391 . S
C1497 C1496 1.386 . S
C1497 C1501 1.393 . S
C1498 H1490 0.950 . S
C1498 C1496 1.391 . S
C1498 C1499 1.400 . S
C1499 C1498 1.400 . S
C1499 C1500 1.398 . S
C1499 C1505 1.491 . S
C1500 H1491 0.950 . S
C1500 C1499 1.398 . S
C1500 C1501 1.391 . S
C1501 H1489 0.950 . S
C1501 C1497 1.393 . S
C1501 C1500 1.391 . S
C1502 H1492 0.950 . S
C1502 C1503 1.386 . S
C1502 C1504 1.391 . S
C1503 C1502 1.386 . S
C1503 C1507 1.393 . S
C1504 H1493 0.950 . S
C1504 C1502 1.391 . S
C1504 C1505 1.400 . S
C1505 C1499 1.491 . S
C1505 C1504 1.400 . S
C1505 C1506 1.398 . S
C1506 H1494 0.950 . S
C1506 C1505 1.398 . S
C1506 C1507 1.391 . S
C1507 H1495 0.950 . S
C1507 C1503 1.393 . S
C1507 C1506 1.391 . S
H1508 C1516 0.950 . S
H1509 C1521 0.950 . S
H1510 C1518 0.950 . S
H1511 C1520 0.950 . S
H1512 C1522 0.950 . S
H1513 C1524 0.950 . S
H1514 C1526 0.950 . S
H1515 C1527 0.950 . S
C1516 H1508 0.950 . S
C1516 C1517 1.386 . S
C1516 C1518 1.391 . S
C1517 C1516 1.386 . S
C1517 C1521 1.393 . S
C1518 H1510 0.950 . S
C1518 C1516 1.391 . S
C1518 C1519 1.400 . S
C1519 C1518 1.400 . S
C1519 C1520 1.398 . S
C1519 C1525 1.491 . S
C1520 H1511 0.950 . S
C1520 C1519 1.398 . S
C1520 C1521 1.391 . S
C1521 H1509 0.950 . S
C1521 C1517 1.393 . S
C1521 C1520 1.391 . S
C1522 H1512 0.950 . S
C1522 C1523 1.386 . S
C1522 C1524 1.391 . S
C1523 C1522 1.386 . S
C1523 C1527 1.393 . S
C1524 H1513 0.950 . S
C1524 C1522 1.391 . S
C1524 C1525 1.400 . S
C1525 C1519 1.491 . S
C1525 C1524 1.400 . S
C1525 C1526 1.398 . S
C1526 H1514 0.950 . S
C1526 C1525 1.398 . S
C1526 C1527 1.391 . S
C1527 H1515 0.950 . S
C1527 C1523 1.393 . S
C1527 C1526 1.391 . S
H1528 C1536 0.950 . S
H1529 C1541 0.950 . S
H1530 C1538 0.950 . S
H1531 C1540 0.950 . S
H1532 C1542 0.950 . S
H1533 C1544 0.950 . S
H1534 C1546 0.950 . S
H1535 C1547 0.950 . S
C1536 H1528 0.950 . S
C1536 C1537 1.386 . S
C1536 C1538 1.391 . S
C1537 C1536 1.386 . S
C1537 C1541 1.393 . S
C1538 H1530 0.950 . S
C1538 C1536 1.391 . S
C1538 C1539 1.400 . S
C1539 C1538 1.400 . S
C1539 C1540 1.398 . S
C1539 C1545 1.491 . S
C1540 H1531 0.950 . S
C1540 C1539 1.398 . S
C1540 C1541 1.391 . S
C1541 H1529 0.950 . S
C1541 C1537 1.393 . S
C1541 C1540 1.391 . S
C1542 H1532 0.950 . S
C1542 C1543 1.386 1_554 S
C1542 C1544 1.391 . S
C1543 C1542 1.386 1_556 S
C1543 C1547 1.393 . S
C1544 H1533 0.950 . S
C1544 C1542 1.391 . S
C1544 C1545 1.400 . S
C1545 C1539 1.491 . S
C1545 C1544 1.400 . S
C1545 C1546 1.398 . S
C1546 H1534 0.950 . S
C1546 C1545 1.398 . S
C1546 C1547 1.391 1_554 S
C1547 H1535 0.950 . S
C1547 C1543 1.393 . S
C1547 C1546 1.391 1_556 S
H1548 C1556 0.950 . S
H1549 C1561 0.950 . S
H1550 C1558 0.950 . S
H1551 C1560 0.950 . S
H1552 C1562 0.950 . S
H1553 C1564 0.950 . S
H1554 C1566 0.950 . S
H1555 C1567 0.950 . S
C1556 H1548 0.950 . S
C1556 C1557 1.386 . S
C1556 C1558 1.391 . S
C1557 C1556 1.386 . S
C1557 C1561 1.393 . S
C1558 H1550 0.950 . S
C1558 C1556 1.391 . S
C1558 C1559 1.400 . S
C1559 C1558 1.400 . S
C1559 C1560 1.398 . S
C1559 C1565 1.491 . S
C1560 H1551 0.950 . S
C1560 C1559 1.398 . S
C1560 C1561 1.391 . S
C1561 H1549 0.950 . S
C1561 C1557 1.393 . S
C1561 C1560 1.391 . S
C1562 H1552 0.950 . S
C1562 C1563 1.386 . S
C1562 C1564 1.391 . S
C1563 C1562 1.386 . S
C1563 C1567 1.393 . S
C1564 H1553 0.950 . S
C1564 C1562 1.391 . S
C1564 C1565 1.400 . S
C1565 C1559 1.491 . S
C1565 C1564 1.400 . S
C1565 C1566 1.398 . S
C1566 H1554 0.950 . S
C1566 C1565 1.398 . S
C1566 C1567 1.391 . S
C1567 H1555 0.950 . S
C1567 C1563 1.393 . S
C1567 C1566 1.391 . S
H1568 C1576 0.950 . S
H1569 C1581 0.950 . S
H1570 C1578 0.950 . S
H1571 C1580 0.950 . S
H1572 C1582 0.950 . S
H1573 C1584 0.950 . S
H1574 C1586 0.950 . S
H1575 C1587 0.950 . S
C1576 H1568 0.950 . S
C1576 C1577 1.386 . S
C1576 C1578 1.391 . S
C1577 C1576 1.386 . S
C1577 C1581 1.393 . S
C1578 H1570 0.950 . S
C1578 C1576 1.391 . S
C1578 C1579 1.400 . S
C1579 C1578 1.400 . S
C1579 C1580 1.398 . S
C1579 C1585 1.491 . S
C1580 H1571 0.950 . S
C1580 C1579 1.398 . S
C1580 C1581 1.391 . S
C1581 H1569 0.950 . S
C1581 C1577 1.393 . S
C1581 C1580 1.391 . S
C1582 H1572 0.950 . S
C1582 C1583 1.386 . S
C1582 C1584 1.391 . S
C1583 C1582 1.386 . S
C1583 C1587 1.393 . S
C1584 H1573 0.950 . S
C1584 C1582 1.391 . S
C1584 C1585 1.400 . S
C1585 C1579 1.491 . S
C1585 C1584 1.400 . S
C1585 C1586 1.398 . S
C1586 H1574 0.950 . S
C1586 C1585 1.398 . S
C1586 C1587 1.391 . S
C1587 H1575 0.950 . S
C1587 C1583 1.393 . S
C1587 C1586 1.391 . S
H1588 C1596 0.950 . S
H1589 C1601 0.950 . S
H1590 C1598 0.950 . S
H1591 C1600 0.950 . S
H1592 C1602 0.950 . S
H1593 C1604 0.950 . S
H1594 C1606 0.950 . S
H1595 C1607 0.950 . S
C1596 H1588 0.950 . S
C1596 C1597 1.386 1_655 S
C1596 C1598 1.391 . S
C1597 C1596 1.386 1_455 S
C1597 C1601 1.393 . S
C1598 H1590 0.950 . S
C1598 C1596 1.391 . S
C1598 C1599 1.400 . S
C1599 C1598 1.400 . S
C1599 C1600 1.398 . S
C1599 C1605 1.491 . S
C1600 H1591 0.950 . S
C1600 C1599 1.398 . S
C1600 C1601 1.391 1_655 S
C1601 H1589 0.950 . S
C1601 C1597 1.393 . S
C1601 C1600 1.391 1_455 S
C1602 H1592 0.950 . S
C1602 C1603 1.386 . S
C1602 C1604 1.391 . S
C1603 C1602 1.386 . S
C1603 C1607 1.393 . S
C1604 H1593 0.950 . S
C1604 C1602 1.391 . S
C1604 C1605 1.400 . S
C1605 C1599 1.491 . S
C1605 C1604 1.400 . S
C1605 C1606 1.398 . S
C1606 H1594 0.950 . S
C1606 C1605 1.398 . S
C1606 C1607 1.391 . S
C1607 H1595 0.950 . S
C1607 C1603 1.393 . S
C1607 C1606 1.391 . S
H1608 C1616 0.950 . S
H1609 C1621 0.950 . S
H1610 C1618 0.950 . S
H1611 C1620 0.950 . S
H1612 C1622 0.950 . S
H1613 C1624 0.950 . S
H1614 C1626 0.950 1_655 S
H1615 C1627 0.950 . S
C1616 H1608 0.950 . S
C1616 C1617 1.386 . S
C1616 C1618 1.391 . S
C1617 C1616 1.386 . S
C1617 C1621 1.393 1_655 S
C1618 H1610 0.950 . S
C1618 C1616 1.391 . S
C1618 C1619 1.400 1_655 S
C1619 C1618 1.400 1_455 S
C1619 C1620 1.398 . S
C1619 C1625 1.491 . S
C1620 H1611 0.950 . S
C1620 C1619 1.398 . S
C1620 C1621 1.391 . S
C1621 H1609 0.950 . S
C1621 C1617 1.393 1_455 S
C1621 C1620 1.391 . S
C1622 H1612 0.950 . S
C1622 C1623 1.386 . S
C1622 C1624 1.391 . S
C1623 C1622 1.386 . S
C1623 C1627 1.393 . S
C1624 H1613 0.950 . S
C1624 C1622 1.391 . S
C1624 C1625 1.400 . S
C1625 C1619 1.491 . S
C1625 C1624 1.400 . S
C1625 C1626 1.398 . S
C1626 H1614 0.950 1_455 S
C1626 C1625 1.398 . S
C1626 C1627 1.391 . S
C1627 H1615 0.950 . S
C1627 C1623 1.393 . S
C1627 C1626 1.391 . S
H1628 C1636 0.950 . S
H1629 C1641 0.950 . S
H1630 C1638 0.950 . S
H1631 C1640 0.950 . S
H1632 C1642 0.950 . S
H1633 C1644 0.950 . S
H1634 C1646 0.950 . S
H1635 C1647 0.950 . S
C1636 H1628 0.950 . S
C1636 C1637 1.386 . S
C1636 C1638 1.391 . S
C1637 C1636 1.386 . S
C1637 C1641 1.393 . S
C1638 H1630 0.950 . S
C1638 C1636 1.391 . S
C1638 C1639 1.400 . S
C1639 C1638 1.400 . S
C1639 C1640 1.398 . S
C1639 C1645 1.491 . S
C1640 H1631 0.950 . S
C1640 C1639 1.398 . S
C1640 C1641 1.391 . S
C1641 H1629 0.950 . S
C1641 C1637 1.393 . S
C1641 C1640 1.391 . S
C1642 H1632 0.950 . S
C1642 C1643 1.386 . S
C1642 C1644 1.391 . S
C1643 C1642 1.386 . S
C1643 C1647 1.393 . S
C1644 H1633 0.950 . S
C1644 C1642 1.391 . S
C1644 C1645 1.400 . S
C1645 C1639 1.491 . S
C1645 C1644 1.400 . S
C1645 C1646 1.398 . S
C1646 H1634 0.950 . S
C1646 C1645 1.398 . S
C1646 C1647 1.391 . S
C1647 H1635 0.950 . S
C1647 C1643 1.393 . S
C1647 C1646 1.391 . S
H1648 C1656 0.950 . S
H1649 C1661 0.950 . S
H1650 C1658 0.950 . S
H1651 C1660 0.950 . S
H1652 C1662 0.950 . S
H1653 C1664 0.950 . S
H1654 C1666 0.950 . S
H1655 C1667 0.950 . S
C1656 H1648 0.950 . S
C1656 C1657 1.386 . S
C1656 C1658 1.391 . S
C1657 C1656 1.386 . S
C1657 C1661 1.393 . S
C1658 H1650 0.950 . S
C1658 C1656 1.391 . S
C1658 C1659 1.400 . S
C1659 C1658 1.400 . S
C1659 C1660 1.398 . S
C1659 C1665 1.491 . S
C1660 H1651 0.950 . S
C1660 C1659 1.398 . S
C1660 C1661 1.391 . S
C1661 H1649 0.950 . S
C1661 C1657 1.393 . S
C1661 C1660 1.391 . S
C1662 H1652 0.950 . S
C1662 C1663 1.386 . S
C1662 C1664 1.391 . S
C1663 C1662 1.386 . S
C1663 C1667 1.393 . S
C1664 H1653 0.950 . S
C1664 C1662 1.391 . S
C1664 C1665 1.400 . S
C1665 C1659 1.491 . S
C1665 C1664 1.400 . S
C1665 C1666 1.398 . S
C1666 H1654 0.950 . S
C1666 C1665 1.398 . S
C1666 C1667 1.391 . S
C1667 H1655 0.950 . S
C1667 C1663 1.393 . S
C1667 C1666 1.391 . S
H1668 C1676 0.949 . S
H1669 C1681 0.950 . S
H1670 C1678 0.950 . S
H1671 C1680 0.950 . S
H1672 C1682 0.950 . S
H1673 C1684 0.950 . S
H1674 C1686 0.950 . S
H1675 C1687 0.950 . S
C1676 H1668 0.949 . S
C1676 C1677 1.383 . S
C1676 C1678 1.394 1_655 S
C1677 C1676 1.383 . S
C1677 C1681 1.393 . S
C1678 H1670 0.950 . S
C1678 C1676 1.394 1_455 S
C1678 C1679 1.400 . S
C1679 C1678 1.400 . S
C1679 C1680 1.398 . S
C1679 C1685 1.491 . S
C1680 H1671 0.950 . S
C1680 C1679 1.398 . S
C1680 C1681 1.391 1_455 S
C1681 H1669 0.950 . S
C1681 C1677 1.393 . S
C1681 C1680 1.391 1_655 S
C1682 H1672 0.950 . S
C1682 C1683 1.386 . S
C1682 C1684 1.391 . S
C1683 C1682 1.386 . S
C1683 C1687 1.393 . S
C1684 H1673 0.950 . S
C1684 C1682 1.391 . S
C1684 C1685 1.400 . S
C1685 C1679 1.491 . S
C1685 C1684 1.400 . S
C1685 C1686 1.398 . S
C1686 H1674 0.950 . S
C1686 C1685 1.398 . S
C1686 C1687 1.391 . S
C1687 H1675 0.950 . S
C1687 C1683 1.393 . S
C1687 C1686 1.391 . S
H1688 C1696 0.950 . S
H1689 C1701 0.950 . S
H1690 C1698 0.950 . S
H1691 C1700 0.950 . S
H1692 C1702 0.950 . S
H1693 C1704 0.950 . S
H1694 C1706 0.950 . S
H1695 C1707 0.950 . S
C1696 H1688 0.950 . S
C1696 C1697 1.386 . S
C1696 C1698 1.391 . S
C1697 C1696 1.386 . S
C1697 C1701 1.393 . S
C1698 H1690 0.950 . S
C1698 C1696 1.391 . S
C1698 C1699 1.400 . S
C1699 C1698 1.400 . S
C1699 C1700 1.398 . S
C1699 C1705 1.491 . S
C1700 H1691 0.950 . S
C1700 C1699 1.398 . S
C1700 C1701 1.391 . S
C1701 H1689 0.950 . S
C1701 C1697 1.393 . S
C1701 C1700 1.391 . S
C1702 H1692 0.950 . S
C1702 C1703 1.386 . S
C1702 C1704 1.391 . S
C1703 C1702 1.386 . S
C1703 C1707 1.393 . S
C1704 H1693 0.950 . S
C1704 C1702 1.391 . S
C1704 C1705 1.400 . S
C1705 C1699 1.491 . S
C1705 C1704 1.400 . S
C1705 C1706 1.398 . S
C1706 H1694 0.950 . S
C1706 C1705 1.398 . S
C1706 C1707 1.391 . S
C1707 H1695 0.950 . S
C1707 C1703 1.393 . S
C1707 C1706 1.391 . S
H1708 C1716 0.950 . S
H1709 C1721 0.950 . S
H1710 C1718 0.950 . S
H1711 C1720 0.950 . S
H1712 C1722 0.950 . S
H1713 C1724 0.950 . S
H1714 C1726 0.950 . S
H1715 C1727 0.950 . S
C1716 H1708 0.950 . S
C1716 C1717 1.386 . S
C1716 C1718 1.391 . S
C1717 C1716 1.386 . S
C1717 C1721 1.393 . S
C1718 H1710 0.950 . S
C1718 C1716 1.391 . S
C1718 C1719 1.400 . S
C1719 C1718 1.400 . S
C1719 C1720 1.398 . S
C1719 C1725 1.491 . S
C1720 H1711 0.950 . S
C1720 C1719 1.398 . S
C1720 C1721 1.391 . S
C1721 H1709 0.950 . S
C1721 C1717 1.393 . S
C1721 C1720 1.391 . S
C1722 H1712 0.950 . S
C1722 C1723 1.386 . S
C1722 C1724 1.391 . S
C1723 C1722 1.386 . S
C1723 C1727 1.393 . S
C1724 H1713 0.950 . S
C1724 C1722 1.391 . S
C1724 C1725 1.400 1_455 S
C1725 C1719 1.491 . S
C1725 C1724 1.400 1_655 S
C1725 C1726 1.398 . S
C1726 H1714 0.950 . S
C1726 C1725 1.398 . S
C1726 C1727 1.391 1_655 S
C1727 H1715 0.950 . S
C1727 C1723 1.393 . S
C1727 C1726 1.391 1_455 S
H1728 C1736 0.950 . S
H1729 C1741 0.950 . S
H1730 C1738 0.950 . S
H1731 C1740 0.950 . S
H1732 C1742 0.950 . S
H1733 C1744 0.950 . S
H1734 C1746 0.950 . S
H1735 C1747 0.950 . S
C1736 H1728 0.950 . S
C1736 C1737 1.386 . S
C1736 C1738 1.391 . S
C1737 C1736 1.386 . S
C1737 C1741 1.393 . S
C1738 H1730 0.950 . S
C1738 C1736 1.391 . S
C1738 C1739 1.400 . S
C1739 C1738 1.400 . S
C1739 C1740 1.398 . S
C1739 C1745 1.491 . S
C1740 H1731 0.950 . S
C1740 C1739 1.398 . S
C1740 C1741 1.391 . S
C1741 H1729 0.950 . S
C1741 C1737 1.393 . S
C1741 C1740 1.391 . S
C1742 H1732 0.950 . S
C1742 C1743 1.386 . S
C1742 C1744 1.391 . S
C1743 C1742 1.386 . S
C1743 C1747 1.393 . S
C1744 H1733 0.950 . S
C1744 C1742 1.391 . S
C1744 C1745 1.400 . S
C1745 C1739 1.491 . S
C1745 C1744 1.400 . S
C1745 C1746 1.398 . S
C1746 H1734 0.950 . S
C1746 C1745 1.398 . S
C1746 C1747 1.391 . S
C1747 H1735 0.950 . S
C1747 C1743 1.393 . S
C1747 C1746 1.391 . S
H1748 C1756 0.950 . S
H1749 C1761 0.950 . S
H1750 C1758 0.950 . S
H1751 C1760 0.950 . S
H1752 C1762 0.950 . S
H1753 C1764 0.950 1_455 S
H1754 C1766 0.950 . S
H1755 C1767 0.950 . S
C1756 H1748 0.950 . S
C1756 C1757 1.386 . S
C1756 C1758 1.391 . S
C1757 C1756 1.386 . S
C1757 C1761 1.393 . S
C1758 H1750 0.950 . S
C1758 C1756 1.391 . S
C1758 C1759 1.400 . S
C1759 C1758 1.400 . S
C1759 C1760 1.398 . S
C1759 C1765 1.491 . S
C1760 H1751 0.950 . S
C1760 C1759 1.398 . S
C1760 C1761 1.391 . S
C1761 H1749 0.950 . S
C1761 C1757 1.393 . S
C1761 C1760 1.391 . S
C1762 H1752 0.950 . S
C1762 C1763 1.386 . S
C1762 C1764 1.391 . S
C1763 C1762 1.386 . S
C1763 C1767 1.393 . S
C1764 H1753 0.950 1_655 S
C1764 C1762 1.391 . S
C1764 C1765 1.400 1_655 S
C1765 C1759 1.491 . S
C1765 C1764 1.400 1_455 S
C1765 C1766 1.398 1_455 S
C1766 H1754 0.950 . S
C1766 C1765 1.398 1_655 S
C1766 C1767 1.391 . S
C1767 H1755 0.950 . S
C1767 C1763 1.393 . S
C1767 C1766 1.391 . S
H1768 C1776 0.950 . S
H1769 C1781 0.950 . S
H1770 C1778 0.950 . S
H1771 C1780 0.950 . S
H1772 C1782 0.950 . S
H1773 C1784 0.950 . S
H1774 C1786 0.950 1_556 S
H1775 C1787 0.950 . S
C1776 H1768 0.950 . S
C1776 C1777 1.386 . S
C1776 C1778 1.391 . S
C1777 C1776 1.386 . S
C1777 C1781 1.393 . S
C1778 H1770 0.950 . S
C1778 C1776 1.391 . S
C1778 C1779 1.400 . S
C1779 C1778 1.400 . S
C1779 C1780 1.398 . S
C1779 C1785 1.491 . S
C1780 H1771 0.950 . S
C1780 C1779 1.398 . S
C1780 C1781 1.391 . S
C1781 H1769 0.950 . S
C1781 C1777 1.393 . S
C1781 C1780 1.391 . S
C1782 H1772 0.950 . S
C1782 C1783 1.386 . S
C1782 C1784 1.391 . S
C1783 C1782 1.386 . S
C1783 C1787 1.393 . S
C1784 H1773 0.950 . S
C1784 C1782 1.391 . S
C1784 C1785 1.400 1_554 S
C1785 C1779 1.491 . S
C1785 C1784 1.400 1_556 S
C1785 C1786 1.398 1_556 S
C1786 H1774 0.950 1_554 S
C1786 C1785 1.398 1_554 S
C1786 C1787 1.391 . S
C1787 H1775 0.950 . S
C1787 C1783 1.393 . S
C1787 C1786 1.391 . S
H1788 C1796 0.950 . S
H1789 C1801 0.950 . S
H1790 C1798 0.950 . S
H1791 C1800 0.950 . S
H1792 C1802 0.950 . S
H1793 C1804 0.950 . S
H1794 C1806 0.950 . S
H1795 C1807 0.950 . S
C1796 H1788 0.950 . S
C1796 C1797 1.386 . S
C1796 C1798 1.391 . S
C1797 C1796 1.386 . S
C1797 C1801 1.393 . S
C1798 H1790 0.950 . S
C1798 C1796 1.391 . S
C1798 C1799 1.400 . S
C1799 C1798 1.400 . S
C1799 C1800 1.398 . S
C1799 C1805 1.491 . S
C1800 H1791 0.950 . S
C1800 C1799 1.398 . S
C1800 C1801 1.391 . S
C1801 H1789 0.950 . S
C1801 C1797 1.393 . S
C1801 C1800 1.391 . S
C1802 H1792 0.950 . S
C1802 C1803 1.386 . S
C1802 C1804 1.391 . S
C1803 C1802 1.386 . S
C1803 C1807 1.393 . S
C1804 H1793 0.950 . S
C1804 C1802 1.391 . S
C1804 C1805 1.400 . S
C1805 C1799 1.491 . S
C1805 C1804 1.400 . S
C1805 C1806 1.398 . S
C1806 H1794 0.950 . S
C1806 C1805 1.398 . S
C1806 C1807 1.391 . S
C1807 H1795 0.950 . S
C1807 C1803 1.393 . S
C1807 C1806 1.391 . S
H1808 C1816 0.950 . S
H1809 C1821 0.950 . S
H1810 C1818 0.950 . S
H1811 C1820 0.950 . S
H1812 C1822 0.950 . S
H1813 C1824 0.950 . S
H1814 C1826 0.950 . S
H1815 C1827 0.950 . S
C1816 H1808 0.950 . S
C1816 C1817 1.386 . S
C1816 C1818 1.391 . S
C1817 C1816 1.386 . S
C1817 C1821 1.393 . S
C1818 H1810 0.950 . S
C1818 C1816 1.391 . S
C1818 C1819 1.400 . S
C1819 C1818 1.400 . S
C1819 C1820 1.398 . S
C1819 C1825 1.491 . S
C1820 H1811 0.950 . S
C1820 C1819 1.398 . S
C1820 C1821 1.391 . S
C1821 H1809 0.950 . S
C1821 C1817 1.393 . S
C1821 C1820 1.391 . S
C1822 H1812 0.950 . S
C1822 C1823 1.386 . S
C1822 C1824 1.391 . S
C1823 C1822 1.386 . S
C1823 C1827 1.393 . S
C1824 H1813 0.950 . S
C1824 C1822 1.391 . S
C1824 C1825 1.400 . S
C1825 C1819 1.491 . S
C1825 C1824 1.400 . S
C1825 C1826 1.398 . S
C1826 H1814 0.950 . S
C1826 C1825 1.398 . S
C1826 C1827 1.391 . S
C1827 H1815 0.950 . S
C1827 C1823 1.393 . S
C1827 C1826 1.391 . S
H1828 C1836 0.950 . S
H1829 C1841 0.950 . S
H1830 C1838 0.950 . S
H1831 C1840 0.950 . S
H1832 C1842 0.950 . S
H1833 C1844 0.950 . S
H1834 C1846 0.950 . S
H1835 C1847 0.950 . S
C1836 H1828 0.950 . S
C1836 C1837 1.386 . S
C1836 C1838 1.391 . S
C1837 C1836 1.386 . S
C1837 C1841 1.393 . S
C1838 H1830 0.950 . S
C1838 C1836 1.391 . S
C1838 C1839 1.400 . S
C1839 C1838 1.400 . S
C1839 C1840 1.398 . S
C1839 C1845 1.491 . S
C1840 H1831 0.950 . S
C1840 C1839 1.398 . S
C1840 C1841 1.391 . S
C1841 H1829 0.950 . S
C1841 C1837 1.393 . S
C1841 C1840 1.391 . S
C1842 H1832 0.950 . S
C1842 C1843 1.386 . S
C1842 C1844 1.391 . S
C1843 C1842 1.386 . S
C1843 C1847 1.393 . S
C1844 H1833 0.950 . S
C1844 C1842 1.391 . S
C1844 C1845 1.400 1_455 S
C1845 C1839 1.491 . S
C1845 C1844 1.400 1_655 S
C1845 C1846 1.398 . S
C1846 H1834 0.950 . S
C1846 C1845 1.398 . S
C1846 C1847 1.391 1_655 S
C1847 H1835 0.950 . S
C1847 C1843 1.393 . S
C1847 C1846 1.391 1_455 S
H1848 C1856 0.950 . S
H1849 C1861 0.950 . S
H1850 C1858 0.950 . S
H1851 C1860 0.950 1_556 S
H1852 C1862 0.950 . S
H1853 C1864 0.950 . S
H1854 C1866 0.950 . S
H1855 C1867 0.950 1_554 S
C1856 H1848 0.950 . S
C1856 C1857 1.386 . S
C1856 C1858 1.391 . S
C1857 C1856 1.386 . S
C1857 C1861 1.393 . S
C1858 H1850 0.950 . S
C1858 C1856 1.391 . S
C1858 C1859 1.400 . S
C1859 C1858 1.400 . S
C1859 C1860 1.398 . S
C1859 C1865 1.491 . S
C1860 H1851 0.950 1_554 S
C1860 C1859 1.398 . S
C1860 C1861 1.391 . S
C1861 H1849 0.950 . S
C1861 C1857 1.393 . S
C1861 C1860 1.391 . S
C1862 H1852 0.950 . S
C1862 C1863 1.386 . S
C1862 C1864 1.391 . S
C1863 C1862 1.386 . S
C1863 C1867 1.393 . S
C1864 H1853 0.950 . S
C1864 C1862 1.391 . S
C1864 C1865 1.400 1_556 S
C1865 C1859 1.491 . S
C1865 C1864 1.400 1_554 S
C1865 C1866 1.398 . S
C1866 H1854 0.950 . S
C1866 C1865 1.398 . S
C1866 C1867 1.391 1_554 S
C1867 H1855 0.950 1_556 S
C1867 C1863 1.393 . S
C1867 C1866 1.391 1_556 S
H1868 C1876 0.950 . S
H1869 C1881 0.950 . S
H1870 C1878 0.950 . S
H1871 C1880 0.950 . S
H1872 C1882 0.950 . S
H1873 C1884 0.950 . S
H1874 C1886 0.950 . S
H1875 C1887 0.950 . S
C1876 H1868 0.950 . S
C1876 C1877 1.386 . S
C1876 C1878 1.391 . S
C1877 C1876 1.386 . S
C1877 C1881 1.393 . S
C1878 H1870 0.950 . S
C1878 C1876 1.391 . S
C1878 C1879 1.400 . S
C1879 C1878 1.400 . S
C1879 C1880 1.398 . S
C1879 C1885 1.491 . S
C1880 H1871 0.950 . S
C1880 C1879 1.398 . S
C1880 C1881 1.391 . S
C1881 H1869 0.950 . S
C1881 C1877 1.393 . S
C1881 C1880 1.391 . S
C1882 H1872 0.950 . S
C1882 C1883 1.386 . S
C1882 C1884 1.391 . S
C1883 C1882 1.386 . S
C1883 C1887 1.393 . S
C1884 H1873 0.950 . S
C1884 C1882 1.391 . S
C1884 C1885 1.400 . S
C1885 C1879 1.491 . S
C1885 C1884 1.400 . S
C1885 C1886 1.398 . S
C1886 H1874 0.950 . S
C1886 C1885 1.398 . S
C1886 C1887 1.391 . S
C1887 H1875 0.950 . S
C1887 C1883 1.393 . S
C1887 C1886 1.391 . S
H1888 C1896 0.950 . S
H1889 C1901 0.950 . S
H1890 C1898 0.950 . S
H1891 C1900 0.950 . S
H1892 C1902 0.950 . S
H1893 C1904 0.950 . S
H1894 C1906 0.950 . S
H1895 C1907 0.950 . S
C1896 H1888 0.950 . S
C1896 C1897 1.386 . S
C1896 C1898 1.391 . S
C1897 C1896 1.386 . S
C1897 C1901 1.393 . S
C1898 H1890 0.950 . S
C1898 C1896 1.391 . S
C1898 C1899 1.400 . S
C1899 C1898 1.400 . S
C1899 C1900 1.398 . S
C1899 C1905 1.491 . S
C1900 H1891 0.950 . S
C1900 C1899 1.398 . S
C1900 C1901 1.391 . S
C1901 H1889 0.950 . S
C1901 C1897 1.393 . S
C1901 C1900 1.391 . S
C1902 H1892 0.950 . S
C1902 C1903 1.386 . S
C1902 C1904 1.391 . S
C1903 C1902 1.386 . S
C1903 C1907 1.393 . S
C1904 H1893 0.950 . S
C1904 C1902 1.391 . S
C1904 C1905 1.400 . S
C1905 C1899 1.491 . S
C1905 C1904 1.400 . S
C1905 C1906 1.398 . S
C1906 H1894 0.950 . S
C1906 C1905 1.398 . S
C1906 C1907 1.391 . S
C1907 H1895 0.950 . S
C1907 C1903 1.393 . S
C1907 C1906 1.391 . S
H1908 C1916 0.950 . S
H1909 C1921 0.950 . S
H1910 C1918 0.950 . S
H1911 C1920 0.950 . S
H1912 C1922 0.950 . S
H1913 C1924 0.950 . S
H1914 C1926 0.950 . S
H1915 C1927 0.950 . S
C1916 H1908 0.950 . S
C1916 C1917 1.386 . S
C1916 C1918 1.391 . S
C1917 C1916 1.386 . S
C1917 C1921 1.393 . S
C1918 H1910 0.950 . S
C1918 C1916 1.391 . S
C1918 C1919 1.400 . S
C1919 C1918 1.400 . S
C1919 C1920 1.398 . S
C1919 C1925 1.491 . S
C1920 H1911 0.950 . S
C1920 C1919 1.398 . S
C1920 C1921 1.391 . S
C1921 H1909 0.950 . S
C1921 C1917 1.393 . S
C1921 C1920 1.391 . S
C1922 H1912 0.950 . S
C1922 C1923 1.386 . S
C1922 C1924 1.391 1_565 S
C1923 C1922 1.386 . S
C1923 C1927 1.393 . S
C1924 H1913 0.950 . S
C1924 C1922 1.391 1_545 S
C1924 C1925 1.400 . S
C1925 C1919 1.491 . S
C1925 C1924 1.400 . S
C1925 C1926 1.398 1_545 S
C1926 H1914 0.950 . S
C1926 C1925 1.398 1_565 S
C1926 C1927 1.391 . S
C1927 H1915 0.950 . S
C1927 C1923 1.393 . S
C1927 C1926 1.391 . S
H1928 C1936 0.954 . S
H1929 C1941 0.950 . S
H1930 C1938 0.950 . S
H1931 C1940 0.950 . S
H1932 C1942 0.950 . S
H1933 C1944 0.950 1_545 S
H1934 C1946 0.950 . S
H1935 C1947 0.950 . S
C1936 H1928 0.954 . S
C1936 C1937 1.386 . S
C1936 C1938 1.391 1_545 S
C1937 C1936 1.386 . S
C1937 C1941 1.393 . S
C1938 H1930 0.950 . S
C1938 C1936 1.391 1_565 S
C1938 C1939 1.400 . S
C1939 C1938 1.400 . S
C1939 C1940 1.398 1_565 S
C1939 C1945 1.491 . S
C1940 H1931 0.950 . S
C1940 C1939 1.398 1_545 S
C1940 C1941 1.391 . S
C1941 H1929 0.950 . S
C1941 C1937 1.393 . S
C1941 C1940 1.391 . S
C1942 H1932 0.950 . S
C1942 C1943 1.386 . S
C1942 C1944 1.391 . S
C1943 C1942 1.386 . S
C1943 C1947 1.393 . S
C1944 H1933 0.950 1_565 S
C1944 C1942 1.391 . S
C1944 C1945 1.400 . S
C1945 C1939 1.491 . S
C1945 C1944 1.400 . S
C1945 C1946 1.398 . S
C1946 H1934 0.950 . S
C1946 C1945 1.398 . S
C1946 C1947 1.391 . S
C1947 H1935 0.950 . S
C1947 C1943 1.393 . S
C1947 C1946 1.391 . S
H1948 C1956 0.950 . S
H1949 C1961 0.950 . S
H1950 C1958 0.950 . S
H1951 C1960 0.950 . S
H1952 C1962 0.950 . S
H1953 C1964 0.950 . S
H1954 C1966 0.950 . S
H1955 C1967 0.950 . S
C1956 H1948 0.950 . S
C1956 C1957 1.386 . S
C1956 C1958 1.391 . S
C1957 C1956 1.386 . S
C1957 C1961 1.393 . S
C1958 H1950 0.950 . S
C1958 C1956 1.391 . S
C1958 C1959 1.400 . S
C1959 C1958 1.400 . S
C1959 C1960 1.398 . S
C1959 C1965 1.491 . S
C1960 H1951 0.950 . S
C1960 C1959 1.398 . S
C1960 C1961 1.391 . S
C1961 H1949 0.950 . S
C1961 C1957 1.393 . S
C1961 C1960 1.391 . S
C1962 H1952 0.950 . S
C1962 C1963 1.386 . S
C1962 C1964 1.391 . S
C1963 C1962 1.386 . S
C1963 C1967 1.393 . S
C1964 H1953 0.950 . S
C1964 C1962 1.391 . S
C1964 C1965 1.400 . S
C1965 C1959 1.491 . S
C1965 C1964 1.400 . S
C1965 C1966 1.398 . S
C1966 H1954 0.950 . S
C1966 C1965 1.398 . S
C1966 C1967 1.391 . S
C1967 H1955 0.950 . S
C1967 C1963 1.393 . S
C1967 C1966 1.391 . S
C537 C8 0.909 . S
C543 C348 0.931 . S
C557 C282 0.936 . S
C563 C32 0.935 . S
C577 C294 0.907 . S
C583 C52 0.925 . S
C597 C76 0.934 . S
C603 C316 0.910 . S
C617 C96 0.940 . S
C623 C206 0.920 . S
C637 C120 0.931 . S
C643 C228 0.909 . S
C657 C150 0.908 . S
C663 C252 0.930 . S
C677 C172 0.919 . S
C683 C194 0.908 . S
C697 C362 0.908 . S
C703 C448 0.917 . S
C717 C382 0.922 . S
C723 C516 0.907 . S
C737 C406 0.927 . S
C743 C480 0.940 . S
C757 C426 0.910 . S
C763 C502 0.932 . S
C777 C469 1.245 . S
C783 C15 1.242 . S
C797 C29 1.224 . S
C803 C491 1.237 . S
C817 C59 1.235 . S
C823 C367 1.236 1_556 S
C837 C73 1.236 . S
C843 C521 1.252 . S
C857 C439 1.249 . S
C863 C103 1.239 . S
C877 C461 1.246 . S
C883 C117 1.241 . S
C897 C153 1.242 . S
C903 C395 1.243 1_554 S
C917 C175 1.234 . S
C923 C411 1.253 . S
C937 C197 1.227 . S
C943 C109 1.236 . S
C957 C213 1.218 . S
C963 C125 1.240 . S
C977 C235 1.216 . S
C983 C139 1.242 1_455 S
C997 C249 1.212 . S
C1003 C161 1.248 . S
C1017 C21 1.257 1_655 S
C1023 C285 1.223 . S
C1037 C301 1.213 . S
C1043 C37 1.253 . S
C1057 C323 1.222 . S
C1063 C65 1.238 . S
C1077 C351 1.217 . S
C1083 C81 1.256 . S
C1097 C329 1.238 . S
C1103 C359 1.240 . S
C1117 C241 1.253 1_545 S
C1123 C389 1.213 . S
C1137 C403 1.212 . S
C1143 C257 1.250 . S
C1157 C183 1.240 1_565 S
C1163 C433 1.218 . S
C1177 C455 1.232 . S
C1183 C219 1.235 . S
C1197 C271 1.240 . S
C1203 C483 1.241 . S
C1217 C307 1.256 . S
C1223 C505 1.216 . S
C1237 C337 1.256 . S
C1243 C513 1.218 . S
C1257 C404 1.414 . S
C1263 C10 1.437 . S
C1277 C40 1.438 . S
C1283 C436 1.397 . S
C1297 C458 1.422 . S
C1303 C54 1.423 . S
C1317 C84 1.437 . S
C1323 C392 1.413 . S
C1337 C494 1.414 . S
C1343 C98 1.425 . S
C1357 C360 1.421 . S
C1363 C128 1.422 . S
C1377 C514 1.393 . S
C1383 C140 1.444 . S
C1397 C472 1.401 . S
C1403 C162 1.433 . S
C1417 C216 1.399 . S
C1423 C184 1.435 . S
C1437 C238 1.418 . S
C1443 C208 1.434 . S
C1457 C230 1.428 . S
C1463 C250 1.408 . S
C1477 C260 1.429 . S
C1483 C186 1.421 . S
C1497 C340 1.397 . S
C1503 C272 1.446 . S
C1517 C274 1.396 . S
C1523 C296 1.438 . S
C1537 C318 1.436 . S
C1543 C304 1.415 . S
C1557 C338 1.428 . S
C1563 C326 1.422 . S
C1577 C74 1.394 . S
C1583 C370 1.441 . S
C1597 C118 1.394 . S
C1603 C384 1.446 . S
C1617 C142 1.398 . S
C1623 C414 1.436 . S
C1637 C164 1.396 . S
C1643 C428 1.446 . S
C1657 C106 1.404 . S
C1663 C450 1.443 . S
C1677 C30 1.399 . S
C1683 C470 1.446 . S
C1697 C62 1.403 . S
C1703 C492 1.444 . S
C1717 C524 1.425 . S
C1723 C18 1.423 . S
C1737 C7 1.627 . S
C1743 C205 1.623 . S
C1757 C227 1.627 . S
C1763 C43 1.623 . S
C1777 C51 1.625 . S
C1783 C263 1.629 . S
C1797 C87 1.623 . S
C1803 C191 1.628 . S
C1817 C95 1.627 . S
C1823 C345 1.623 . S
C1837 C279 1.628 . S
C1843 C131 1.623 . S
C1857 C147 1.629 . S
C1863 C293 1.625 . S
C1877 C169 1.624 . S
C1883 C315 1.625 . S
C1897 C373 1.625 . S
C1903 C417 1.624 . S
C1917 C381 1.623 . S
C1923 C499 1.629 . S
C1937 C527 1.624 . S
C1943 C425 1.629 . S
C1957 C447 1.629 . S
C1963 C477 1.624 . S
