# Generated by pormake.
# Topology unf, (4)-cn, num edge types: 1
# Building blocks:
#     Node 0, Type 0, BuildingBlock: QUQFOY_clean_sbu_3, # of connection points: 4
#     Node 1, Type 0, BuildingBlock: QUQFOY_clean_sbu_3, # of connection points: 4
#     Node 2, Type 0, BuildingBlock: QUQFOY_clean_sbu_3, # of connection points: 4
#     Node 3, Type 0, BuildingBlock: QUQFOY_clean_sbu_3, # of connection points: 4
#     Node 4, Type 0, BuildingBlock: QUQFOY_clean_sbu_3, # of connection points: 4
#     Node 5, Type 0, BuildingBlock: QUQFOY_clean_sbu_3, # of connection points: 4
#     Node 6, Type 0, BuildingBlock: QUQFOY_clean_sbu_3, # of connection points: 4
#     Node 7, Type 0, BuildingBlock: QUQFOY_clean_sbu_3, # of connection points: 4
#     Node 8, Type 0, BuildingBlock: QUQFOY_clean_sbu_3, # of connection points: 4
#     Node 9, Type 0, BuildingBlock: QUQFOY_clean_sbu_3, # of connection points: 4
#     Node 10, Type 0, BuildingBlock: QUQFOY_clean_sbu_3, # of connection points: 4
#     Node 11, Type 0, BuildingBlock: QUQFOY_clean_sbu_3, # of connection points: 4
#     Edge 12, Type (0, 0), BuildingBlock: MIFKUJ_clean_linker_0, # of connection points: 2
#     Edge 13, Type (0, 0), BuildingBlock: MIFKUJ_clean_linker_0, # of connection points: 2
#     Edge 14, Type (0, 0), BuildingBlock: MIFKUJ_clean_linker_0, # of connection points: 2
#     Edge 15, Type (0, 0), BuildingBlock: MIFKUJ_clean_linker_0, # of connection points: 2
#     Edge 16, Type (0, 0), BuildingBlock: MIFKUJ_clean_linker_0, # of connection points: 2
#     Edge 17, Type (0, 0), BuildingBlock: MIFKUJ_clean_linker_0, # of connection points: 2
#     Edge 18, Type (0, 0), BuildingBlock: MIFKUJ_clean_linker_0, # of connection points: 2
#     Edge 19, Type (0, 0), BuildingBlock: MIFKUJ_clean_linker_0, # of connection points: 2
#     Edge 20, Type (0, 0), BuildingBlock: MIFKUJ_clean_linker_0, # of connection points: 2
#     Edge 21, Type (0, 0), BuildingBlock: MIFKUJ_clean_linker_0, # of connection points: 2
#     Edge 22, Type (0, 0), BuildingBlock: MIFKUJ_clean_linker_0, # of connection points: 2
#     Edge 23, Type (0, 0), BuildingBlock: MIFKUJ_clean_linker_0, # of connection points: 2
#     Edge 24, Type (0, 0), BuildingBlock: MIFKUJ_clean_linker_0, # of connection points: 2
#     Edge 25, Type (0, 0), BuildingBlock: MIFKUJ_clean_linker_0, # of connection points: 2
#     Edge 26, Type (0, 0), BuildingBlock: MIFKUJ_clean_linker_0, # of connection points: 2
#     Edge 27, Type (0, 0), BuildingBlock: MIFKUJ_clean_linker_0, # of connection points: 2
#     Edge 28, Type (0, 0), BuildingBlock: MIFKUJ_clean_linker_0, # of connection points: 2
#     Edge 29, Type (0, 0), BuildingBlock: MIFKUJ_clean_linker_0, # of connection points: 2
#     Edge 30, Type (0, 0), BuildingBlock: MIFKUJ_clean_linker_0, # of connection points: 2
#     Edge 31, Type (0, 0), BuildingBlock: MIFKUJ_clean_linker_0, # of connection points: 2
#     Edge 32, Type (0, 0), BuildingBlock: MIFKUJ_clean_linker_0, # of connection points: 2
#     Edge 33, Type (0, 0), BuildingBlock: MIFKUJ_clean_linker_0, # of connection points: 2
#     Edge 34, Type (0, 0), BuildingBlock: MIFKUJ_clean_linker_0, # of connection points: 2
#     Edge 35, Type (0, 0), BuildingBlock: MIFKUJ_clean_linker_0, # of connection points: 2
# Relax obj value: 0.226
# Max RMSD: 0.172
# Mean RMSD: 0.172
data_MOF--net-unf--node1-QUQFOY_clean_sbu_3--edge1-MIFKUJ_clean_linker_0
_symmetry_space_group_name_H-M    P1
_symmetry_Int_Tables_number       1
_symmetry_cell_setting            triclinic
loop_
_symmetry_equiv_pos_as_xyz
'x, y, z'
_cell_length_a     49.387207
_cell_length_b     49.362378
_cell_length_c     49.017034
_cell_angle_alpha  90.001393
_cell_angle_beta   89.982127
_cell_angle_gamma 119.95132
loop_
_atom_site_label
_atom_site_type_symbol
_atom_site_fract_x
_atom_site_fract_y
_atom_site_fract_z
_atom_type_partial_charge
C0 C 0.1282 0.48562 0.02928 0.0
O1 O 0.14203 0.48144 0.00928 0.0
Cd2 Cd 0.15462 0.44034 0.01015 0.0
O3 O 0.12591 0.47202 0.05195 0.0
Cd4 Cd 0.14245 0.43679 0.07243 0.0
C5 C 0.08279 0.3846 0.0352 0.0
O6 O 0.18769 0.44258 0.04671 0.0
O7 O 0.15585 0.39706 0.06369 0.0
O8 O 0.16962 0.46946 0.11192 0.0
C9 C 0.18165 0.4149 0.052 0.0
O10 O 0.10224 0.39485 0.01548 0.0
C11 C 0.15403 0.44818 0.12933 0.0
O12 O 0.09057 0.39681 0.05883 0.0
O13 O 0.13225 0.42233 0.12022 0.0
C14 C 0.49813 0.65121 0.00409 0.0
O15 O 0.50713 0.67033 0.98429 0.0
Cd16 Cd 0.54933 0.72299 0.98942 0.0
O17 O 0.5075 0.66095 0.02822 0.0
Cd18 Cd 0.54082 0.71047 0.05246 0.0
C19 C 0.59656 0.70091 0.02345 0.0
O20 O 0.54225 0.75222 0.02464 0.0
O21 O 0.58361 0.76334 0.04815 0.0
O22 O 0.50265 0.70637 0.08639 0.0
C23 C 0.569 0.77277 0.03323 0.0
O24 O 0.59109 0.71239 0.00224 0.0
C25 C 0.51945 0.7083 0.10677 0.0
O26 O 0.58037 0.69581 0.04505 0.0
O27 O 0.54538 0.70974 0.10171 0.0
C28 C 0.35609 0.85588 0.02732 0.0
O29 O 0.33838 0.84797 0.00656 0.0
Cd30 Cd 0.28762 0.84318 0.00848 0.0
O31 O 0.3455 0.85687 0.05078 0.0
Cd32 Cd 0.29566 0.84581 0.0723 0.0
C33 C 0.31114 0.91299 0.04205 0.0
O34 O 0.25496 0.80679 0.04239 0.0
O35 O 0.24241 0.83449 0.06803 0.0
O36 O 0.29815 0.81183 0.10733 0.0
C37 C 0.23384 0.81191 0.05152 0.0
O38 O 0.30136 0.89666 0.02035 0.0
C39 C 0.29436 0.82622 0.12715 0.0
O40 O 0.31284 0.90076 0.06439 0.0
O41 O 0.29286 0.85054 0.12142 0.0
C42 C 0.56739 0.90205 0.46401 0.0
O43 O 0.58042 0.893 0.4812 0.0
Cd44 Cd 0.61405 0.87342 0.46788 0.0
O45 O 0.56839 0.89713 0.43859 0.0
Cd46 Cd 0.58914 0.87066 0.40895 0.0
C47 C 0.65921 0.93228 0.42237 0.0
O48 O 0.5874 0.82981 0.438 0.0
O49 O 0.62251 0.84743 0.4064 0.0
O50 O 0.54141 0.8376 0.38294 0.0
C51 C 0.60797 0.82715 0.42473 0.0
O52 O 0.6572 0.91878 0.44507 0.0
C53 C 0.55392 0.84843 0.35988 0.0
O54 O 0.6367 0.92051 0.40544 0.0
O55 O 0.58212 0.87052 0.35999 0.0
C56 C 0.1359 0.62785 0.48483 0.0
O57 O 0.14721 0.64568 0.50539 0.0
Cd58 Cd 0.15958 0.69928 0.50359 0.0
O59 O 0.1356 0.63927 0.46162 0.0
Cd60 Cd 0.15272 0.69092 0.44106 0.0
C61 C 0.09033 0.68426 0.47408 0.0
O62 O 0.19627 0.72995 0.46879 0.0
O63 O 0.16797 0.74485 0.44683 0.0
O64 O 0.18282 0.68556 0.40395 0.0
C65 C 0.19232 0.75222 0.46072 0.0
O66 O 0.10791 0.69301 0.49507 0.0
C67 C 0.16857 0.69128 0.38523 0.0
O68 O 0.10017 0.68006 0.45134 0.0
O69 O 0.14583 0.6948 0.3925 0.0
C70 C 0.33772 0.47781 0.49033 0.0
O71 O 0.32279 0.47536 0.51212 0.0
Cd72 Cd 0.26946 0.43365 0.51542 0.0
O73 O 0.32297 0.46328 0.46898 0.0
Cd74 Cd 0.26833 0.42977 0.45396 0.0
C75 C 0.27979 0.37667 0.48488 0.0
O76 O 0.23163 0.43457 0.48524 0.0
O77 O 0.21702 0.38973 0.46624 0.0
O78 O 0.26918 0.46357 0.417 0.0
C79 C 0.20981 0.40687 0.48013 0.0
O80 O 0.27481 0.38772 0.5066 0.0
C81 C 0.26096 0.44268 0.39869 0.0
O82 O 0.28025 0.38853 0.46171 0.0
O83 O 0.25765 0.4165 0.40599 0.0
C84 C 0.8725 0.53355 0.979 0.0
O85 O 0.86179 0.53979 0.00016 0.0
Cd86 Cd 0.84531 0.57798 0.00097 0.0
O87 O 0.87147 0.54493 0.95595 0.0
Cd88 Cd 0.85274 0.57934 0.93752 0.0
C89 C 0.91307 0.63587 0.97277 0.0
O90 O 0.80751 0.56786 0.96626 0.0
O91 O 0.82963 0.61192 0.94465 0.0
O92 O 0.82644 0.54589 0.89814 0.0
C93 C 0.80687 0.59219 0.9589 0.0
O94 O 0.89509 0.62605 0.99348 0.0
C95 C 0.83997 0.56775 0.88076 0.0
O96 O 0.90416 0.62212 0.94983 0.0
O97 O 0.86063 0.59424 0.88977 0.0
C98 C 0.47024 0.35256 0.97889 0.0
O99 O 0.46873 0.33846 0.00101 0.0
Cd100 Cd 0.43552 0.283 0.0068 0.0
O101 O 0.45756 0.3371 0.95728 0.0
Cd102 Cd 0.42725 0.28206 0.94272 0.0
C103 C 0.37182 0.28438 0.98071 0.0
O104 O 0.44183 0.25178 0.97291 0.0
O105 O 0.39598 0.22794 0.95431 0.0
O106 O 0.4582 0.28695 0.9021 0.0
C107 C 0.41657 0.22629 0.96849 0.0
O108 O 0.38509 0.2802 0.00128 0.0
C109 C 0.43511 0.27699 0.88584 0.0
O110 O 0.38314 0.28736 0.95682 0.0
O111 O 0.40902 0.27099 0.89599 0.0
C112 C 0.64854 0.12044 0.97883 0.0
O113 O 0.66735 0.1341 -0.00158 0.0
Cd114 Cd 0.72292 0.15708 0.9943 0.0
O115 O 0.65871 0.12282 0.95453 0.0
Cd116 Cd 0.70883 0.14856 0.9294 0.0
C117 C 0.71628 0.09212 0.96154 0.0
O118 O 0.74263 0.19358 0.95776 0.0
O119 O 0.76511 0.17688 0.93 0.0
O120 O 0.69294 0.17266 0.89377 0.0
C121 C 0.76774 0.19712 0.94732 0.0
O122 O 0.7239 0.10947 0.98267 0.0
C123 C 0.70003 0.16036 0.87425 0.0
O124 O 0.70889 0.10031 0.93939 0.0
O125 O 0.70916 0.14126 0.88063 0.0
C126 C 0.48297 0.13048 0.53026 0.0
O127 O 0.48251 0.14508 0.50913 0.0
Cd128 Cd 0.43729 0.15033 0.50258 0.0
O129 O 0.46436 0.12606 0.54989 0.0
Cd130 Cd 0.42512 0.14042 0.56332 0.0
C131 C 0.38319 0.07695 0.52646 0.0
O132 O 0.43075 0.1835 0.53436 0.0
O133 O 0.38407 0.14908 0.54741 0.0
O134 O 0.45483 0.17097 0.60263 0.0
C135 C 0.40197 0.17528 0.53632 0.0
O136 O 0.39557 0.09563 0.50641 0.0
C137 C 0.43259 0.15681 0.61954 0.0
O138 O 0.39034 0.08662 0.5509 0.0
O139 O 0.40725 0.13424 0.6104 0.0
C140 C 0.85496 0.34221 0.51138 0.0
O141 O 0.84599 0.32659 0.48935 0.0
Cd142 Cd 0.82453 0.27114 0.48512 0.0
O143 O 0.84877 0.3284 0.53444 0.0
Cd144 Cd 0.82196 0.27483 0.55343 0.0
C145 C 0.88422 0.27407 0.52419 0.0
O146 O 0.78491 0.24544 0.51797 0.0
O147 O 0.79573 0.21883 0.54616 0.0
O148 O 0.79192 0.28232 0.58969 0.0
C149 C 0.7812 0.21905 0.52494 0.0
O150 O 0.87042 0.26921 0.5012 0.0
C151 C 0.80411 0.27427 0.60863 0.0
O152 O 0.87228 0.27808 0.54582 0.0
O153 O 0.82518 0.26799 0.60173 0.0
C154 C 0.63979 0.51324 0.52571 0.0
O155 O 0.6524 0.50781 0.50548 0.0
Cd156 Cd 0.70656 0.54476 0.49725 0.0
O157 O 0.65686 0.53234 0.54408 0.0
Cd158 Cd 0.71258 0.56419 0.55617 0.0
C159 C 0.70282 0.61078 0.51416 0.0
O160 O 0.74488 0.54851 0.52954 0.0
O161 O 0.76393 0.59773 0.53872 0.0
O162 O 0.7093 0.53582 0.59789 0.0
C163 C 0.76829 0.57613 0.52972 0.0
O164 O 0.70477 0.5934 0.49593 0.0
C165 C 0.72037 0.55973 0.61326 0.0
O166 O 0.70399 0.60535 0.5394 0.0
O167 O 0.72663 0.58551 0.60218 0.0
H168 H 0.2452 0.44192 0.04938 0.0
H169 H 0.27492 0.41707 0.03394 0.0
H170 H 0.18863 0.33419 0.01176 0.0
H171 H 0.15917 0.35814 0.02886 0.0
H172 H 0.22075 0.31661 0.0369 0.0
H173 H 0.2451 0.39114 0.96418 0.0
H174 H 0.26497 0.44324 0.94349 0.0
H175 H 0.35591 0.47334 0.97718 0.0
H176 H 0.33648 0.42159 -0.0016 0.0
H177 H 0.33937 0.2971 0.94239 0.0
H178 H 0.30176 0.31459 0.9508 0.0
H179 H 0.30794 0.3029 0.0374 0.0
H180 H 0.3449 0.28484 0.02922 0.0
H181 H 0.3136 0.36566 0.97647 0.0
H182 H 0.24372 0.29128 0.06986 0.0
H183 H 0.22265 0.23761 0.08737 0.0
H184 H 0.2186 0.20395 0.00585 0.0
H185 H 0.23924 0.25732 0.98781 0.0
C186 C 0.2328 0.41851 0.04099 0.0
C187 C 0.20005 0.40178 0.04041 0.0
C188 C 0.24972 0.40436 0.03202 0.0
C189 C 0.23406 0.37376 0.02144 0.0
C190 C 0.20129 0.35766 0.02003 0.0
C191 C 0.18447 0.37137 0.02972 0.0
C192 C 0.25129 0.35756 0.01322 0.0
C193 C 0.24095 0.32736 0.02353 0.0
C194 C 0.27759 0.37136 0.99568 0.0
C195 C 0.28922 0.40258 0.98311 0.0
C196 C 0.26926 0.40896 0.96737 0.0
C197 C 0.28046 0.43842 0.95552 0.0
C198 C 0.31165 0.46161 0.95909 0.0
C199 C 0.33173 0.45538 0.97447 0.0
C200 C 0.32064 0.42599 0.98641 0.0
C201 C 0.33217 0.29755 0.9632 0.0
C202 C 0.3453 0.28977 0.98517 0.0
C203 C 0.31077 0.30767 0.96794 0.0
C204 C 0.30206 0.31006 0.9947 0.0
C205 C 0.31393 0.30078 0.01654 0.0
C206 C 0.33524 0.29061 0.01184 0.0
C207 C 0.28287 0.32484 2e-05 0.0
C208 C 0.2931 0.35485 0.98949 0.0
C209 C 0.25614 0.31068 0.01692 0.0
C210 C 0.24326 0.27838 0.02752 0.0
C211 C 0.23818 0.27241 0.05566 0.0
C212 C 0.22635 0.24204 0.06567 0.0
C213 C 0.21937 0.2174 0.04774 0.0
C214 C 0.22412 0.22307 0.01973 0.0
C215 C 0.23592 0.25338 0.0096 0.0
H216 H 0.21024 0.19392 0.05553 0.0
H217 H 0.32027 0.48439 0.94987 0.0
H218 H 0.5486 0.81461 0.02826 0.0
H219 H 0.57849 0.86834 0.01109 0.0
H220 H 0.65582 0.8538 0.99229 0.0
H221 H 0.62687 0.80122 0.01146 0.0
H222 H 0.67855 0.90575 0.01337 0.0
H223 H 0.60217 0.85761 0.94208 0.0
H224 H 0.54953 0.82807 0.92181 0.0
H225 H 0.52673 0.89558 0.95294 0.0
H226 H 0.57899 0.9252 0.97376 0.0
H227 H 0.70224 0.04854 0.92121 0.0
H228 H 0.68446 0.99298 0.92737 0.0
H229 H 0.69889 0.00741 0.01421 0.0
H230 H 0.71779 0.06278 0.00815 0.0
H231 H 0.63472 0.9537 0.95179 0.0
H232 H 0.70778 0.95306 0.04518 0.0
H233 H 0.7621 0.98269 0.06176 0.0
H234 H 0.79471 0.01186 0.97993 0.0
H235 H 0.74065 0.98206 0.96279 0.0
C236 C 0.57193 0.82305 0.02031 0.0
C237 C 0.58562 0.80413 0.02119 0.0
C238 C 0.58893 0.8536 0.01028 0.0
C239 C 0.61935 0.86513 -8e-05 0.0
C240 C 0.63254 0.84566 0.00024 0.0
C241 C 0.61599 0.81561 0.01111 0.0
C242 C 0.63817 0.89789 0.99007 0.0
C243 C 0.66892 0.91614 -0.00022 0.0
C244 C 0.62603 0.91151 0.97193 0.0
C245 C 0.59445 0.89351 0.95961 0.0
C246 C 0.58584 0.86602 0.94476 0.0
C247 C 0.55607 0.84927 0.93316 0.0
C248 C 0.53478 0.85991 0.93612 0.0
C249 C 0.54322 0.88734 0.95067 0.0
C250 C 0.57292 0.90412 0.96236 0.0
C251 C 0.70251 0.04002 0.94151 0.0
C252 C 0.71134 0.0601 0.96419 0.0
C253 C 0.69223 0.00823 0.94501 0.0
C254 C 0.69044 0.99597 0.97123 0.0
C255 C 0.70067 0.0163 0.9937 0.0
C256 C 0.71134 0.04807 0.99019 0.0
C257 C 0.67457 0.96169 0.97571 0.0
C258 C 0.64438 0.94319 0.96511 0.0
C259 C 0.68741 0.94773 0.9926 0.0
C260 C 0.72008 0.96545 0.00272 0.0
C261 C 0.72655 0.96564 0.03069 0.0
C262 C 0.7573 0.98251 0.0402 0.0
C263 C 0.78183 -0.0008 0.02192 0.0
C264 C 0.77567 -0.001 0.99408 0.0
C265 C 0.74497 0.98216 0.98446 0.0
H266 H 0.80562 0.01226 0.02933 0.0
H267 H 0.51176 0.84692 0.9271 0.0
H268 H 0.21066 0.77314 0.00714 0.0
H269 H 0.15641 0.74587 0.99077 0.0
H270 H 0.1296 0.78423 0.05771 0.0
H271 H 0.18348 0.81159 0.07401 0.0
H272 H 0.0906 0.71959 0.05036 0.0
H273 H 0.13706 0.81507 0.99756 0.0
H274 H 0.17574 0.85403 0.96594 0.0
H275 H 0.1481 0.78373 0.90385 0.0
H276 H 0.10954 0.74422 0.93527 0.0
H277 H 0.93806 0.67649 0.01549 0.0
H278 H 0.99338 0.71014 0.02586 0.0
H279 H 0.01795 0.6837 0.9499 0.0
H280 H 0.96261 0.65096 0.93885 0.0
H281 H 0.05905 0.74156 0.96063 0.0
H282 H 0.01636 0.64597 0.01163 0.0
H283 H 0.97824 0.60436 0.04191 0.0
H284 H 0.00055 0.67149 0.10606 0.0
H285 H 0.03831 0.71348 0.07591 0.0
C286 C 0.19314 0.77564 0.01836 0.0
C287 C 0.20125 0.79448 0.04182 0.0
C288 C 0.16229 0.76024 0.00893 0.0
C289 C 0.13917 0.76329 0.02298 0.0
C290 C 0.14717 0.78169 0.04659 0.0
C291 C 0.17795 0.79732 0.05582 0.0
C292 C 0.10639 0.7469 0.01354 0.0
C293 C 0.08362 0.72463 0.03088 0.0
C294 C 0.09758 0.75287 0.98778 0.0
C295 C 0.12067 0.77662 0.96886 0.0
C296 C 0.13943 0.80785 0.97725 0.0
C297 C 0.16129 0.83005 0.95934 0.0
C298 C 0.16444 0.82134 0.93293 0.0
C299 C 0.14567 0.79043 0.92434 0.0
C300 C 0.1238 0.76813 0.94218 0.0
C301 C 0.95522 0.67831 0.00073 0.0
C302 C 0.94596 0.66065 0.97656 0.0
C303 C 0.98685 0.69737 0.00678 0.0
C304 C 0.0098 0.69855 0.9891 0.0
C305 C 0.00065 0.68288 0.96399 0.0
C306 C 0.96897 0.66419 0.95769 0.0
C307 C 0.04306 0.71442 0.99761 0.0
C308 C 0.06597 0.73649 0.9801 0.0
C309 C 0.05218 0.70794 0.02309 0.0
C310 C 0.02974 0.68282 0.04139 0.0
C311 C 0.01281 0.6518 0.03209 0.0
C312 C 0.99136 0.62818 0.04923 0.0
C313 C 0.9869 0.6353 0.07586 0.0
C314 C 0.00397 0.66603 0.08541 0.0
C315 C 0.0254 0.68973 0.0683 0.0
H316 H 0.97029 0.61699 0.08912 0.0
H317 H 0.18137 0.83856 0.91909 0.0
H318 H 0.68299 0.61853 0.46454 0.0
H319 H 0.67006 0.65814 0.45116 0.0
H320 H 0.69745 0.70068 0.53079 0.0
H321 H 0.70897 0.65992 0.54483 0.0
H322 H 0.64734 0.69945 0.51756 0.0
H323 H 0.74349 0.73403 0.47161 0.0
H324 H 0.78234 0.73028 0.44267 0.0
H325 H 0.72066 0.70548 0.37386 0.0
H326 H 0.68124 0.70866 0.40247 0.0
H327 H 0.66761 0.83838 0.42401 0.0
H328 H 0.68701 0.80515 0.44198 0.0
H329 H 0.59267 0.73472 0.46297 0.0
H330 H 0.57362 0.76914 0.44681 0.0
H331 H 0.68157 0.75468 0.42885 0.0
H332 H 0.59017 0.68921 0.51484 0.0
H333 H 0.55806 0.69918 0.5474 0.0
H334 H 0.6227 0.79786 0.54291 0.0
H335 H 0.65543 0.78847 0.51062 0.0
C336 C 0.68659 0.63648 0.47916 0.0
C337 C 0.69717 0.63621 0.50571 0.0
C338 C 0.67931 0.65925 0.47142 0.0
C339 C 0.68333 0.68279 0.48978 0.0
C340 C 0.6942 0.68278 0.51626 0.0
C341 C 0.70089 0.65957 0.52422 0.0
C342 C 0.6751 0.70667 0.4815 0.0
C343 C 0.65497 0.7117 0.49824 0.0
C344 C 0.68565 0.72325 0.45661 0.0
C345 C 0.70932 0.72137 0.43925 0.0
C346 C 0.73812 0.72758 0.45035 0.0
C347 C 0.76026 0.72558 0.434 0.0
C348 C 0.75395 0.71759 0.40646 0.0
C349 C 0.72551 0.71165 0.3952 0.0
C350 C 0.70328 0.71358 0.41147 0.0
C351 C 0.65108 0.81581 0.43254 0.0
C352 C 0.61918 0.80623 0.43417 0.0
C353 C 0.66215 0.79681 0.44279 0.0
C354 C 0.64142 0.76754 0.45427 0.0
C355 C 0.60931 0.75756 0.45504 0.0
C356 C 0.59837 0.77704 0.44558 0.0
C357 C 0.65345 0.7473 0.46476 0.0
C358 C 0.67416 0.74277 0.44833 0.0
C359 C 0.64449 0.73225 0.49049 0.0
C360 C 0.62507 0.73814 0.51006 0.0
C361 C 0.59759 0.71303 0.52086 0.0
C362 C 0.57927 0.71859 0.53926 0.0
C363 C 0.58827 0.74915 0.54714 0.0
C364 C 0.61568 0.77421 0.53671 0.0
C365 C 0.63411 0.76879 0.51833 0.0
H366 H 0.57404 0.75339 0.56137 0.0
H367 H 0.77111 0.71605 0.39384 0.0
H368 H 0.18555 0.80211 0.44856 0.0
H369 H 0.21898 0.85632 0.46205 0.0
H370 H 0.27963 0.83128 0.50492 0.0
H371 H 0.24607 0.77646 0.4913 0.0
H372 H 0.23319 0.88186 0.51238 0.0
H373 H 0.35602 0.89714 0.49783 0.0
H374 H 0.38227 0.87461 0.47096 0.0
H375 H 0.31276 0.84738 0.40826 0.0
H376 H 0.28639 0.87017 0.43451 0.0
H377 H 0.35079 0.03029 0.56364 0.0
H378 H 0.31867 0.97427 0.55456 0.0
H379 H 0.33612 0.99156 0.46831 0.0
H380 H 0.36825 0.04745 0.4771 0.0
H381 H 0.34463 0.9441 0.48521 0.0
H382 H 0.26693 0.9754 0.49442 0.0
H383 H 0.23975 -0.00063 0.51763 0.0
H384 H 0.21684 0.93533 0.58449 0.0
H385 H 0.24427 0.91123 0.56181 0.0
C386 C 0.20599 0.80801 0.46086 0.0
C387 C 0.21318 0.785 0.46892 0.0
C388 C 0.22499 0.83902 0.46863 0.0
C389 C 0.2517 0.84775 0.48447 0.0
C390 C 0.25914 0.82494 0.49255 0.0
C391 C 0.23998 0.79371 0.48481 0.0
C392 C 0.27152 0.88091 0.49226 0.0
C393 C 0.25763 0.89541 0.50664 0.0
C394 C 0.30328 0.89859 0.48448 0.0
C395 C 0.31897 0.88491 0.46838 0.0
C396 C 0.34636 0.88635 0.4783 0.0
C397 C 0.36127 0.87357 0.46316 0.0
C398 C 0.34909 0.85943 0.43798 0.0
C399 C 0.32206 0.85818 0.42783 0.0
C400 C 0.30709 0.87099 0.44285 0.0
C401 C 0.34758 0.02221 0.54272 0.0
C402 C 0.36202 0.04335 0.52109 0.0
C403 C 0.3292 0.99022 0.53759 0.0
C404 C 0.32503 0.97887 0.51077 0.0
C405 C 0.33918 -0.0001 0.48916 0.0
C406 C 0.35738 0.03186 0.49423 0.0
C407 C 0.30618 0.94502 0.50512 0.0
C408 C 0.3203 0.9304 0.49127 0.0
C409 C 0.27447 0.92733 0.51293 0.0
C410 C 0.25794 0.94176 0.52657 0.0
C411 C 0.25632 0.96661 0.51418 0.0
C412 C 0.24083 0.98018 0.52722 0.0
C413 C 0.22666 0.96894 0.55256 0.0
C414 C 0.22788 0.94404 0.56488 0.0
C415 C 0.24338 0.93041 0.55194 0.0
H416 H 0.21467 0.97947 0.56262 0.0
H417 H 0.36065 0.84952 0.42631 0.0
H418 H 0.91695 0.26714 0.48243 0.0
H419 H 0.97318 0.2874 0.48062 0.0
H420 H 0.98151 0.31504 0.56504 0.0
H421 H 0.92519 0.2949 0.56714 0.0
H422 H 0.01493 0.34989 0.48888 0.0
H423 H 0.04821 0.31418 0.59004 0.0
H424 H 0.02588 0.27046 0.62289 0.0
H425 H 0.96972 0.2075 0.55939 0.0
H426 H 0.99202 0.25072 0.52611 0.0
H427 H 0.18172 0.43817 0.50178 0.0
H428 H 0.12676 0.41512 0.51599 0.0
H429 H 0.11146 0.32314 0.49707 0.0
H430 H 0.16565 0.34571 0.48302 0.0
H431 H 0.08214 0.3228 0.54398 0.0
H432 H 0.09728 0.36517 0.45239 0.0
H433 H 0.11802 0.40646 0.41739 0.0
H434 H 0.07389 0.45184 0.45712 0.0
H435 H 0.0538 0.41142 0.493 0.0
C436 C 0.93055 0.27687 0.50083 0.0
C437 C 0.91661 0.27979 0.52484 0.0
C438 C 0.96271 0.28851 0.49971 0.0
C439 C 0.98144 0.30294 0.52262 0.0
C440 C 0.96738 0.3039 0.54718 0.0
C441 C 0.93518 0.29234 0.54832 0.0
C442 C 0.01583 0.31961 0.51994 0.0
C443 C 0.02964 0.34416 0.50106 0.0
C444 C 0.03492 0.31204 0.53591 0.0
C445 C 0.02151 0.2858 0.55568 0.0
C446 C 0.03115 0.29099 0.58309 0.0
C447 C 0.0185 0.26629 0.60178 0.0
C448 C -0.00369 0.23624 0.59325 0.0
C449 C 0.9868 0.23081 0.566 0.0
C450 C -0.00061 0.25542 0.54723 0.0
C451 C 0.16664 0.41304 0.50102 0.0
C452 C 0.17784 0.39377 0.49104 0.0
C453 C 0.13535 0.39992 0.50911 0.0
C454 C 0.11508 0.36744 0.50743 0.0
C455 C 0.12671 0.34822 0.49861 0.0
C456 C 0.15768 0.36123 0.49038 0.0
C457 C 0.0812 0.35312 0.51278 0.0
C458 C 0.06743 0.32902 0.53221 0.0
C459 C 0.06202 0.36097 0.49712 0.0
C460 C 0.07464 0.3856 0.47576 0.0
C461 C 0.09244 0.38423 0.45397 0.0
C462 C 0.104 0.40745 0.43389 0.0
C463 C 0.09736 0.43183 0.43505 0.0
C464 C 0.07917 0.43306 0.45633 0.0
C465 C 0.06782 0.41007 0.47661 0.0
H466 H 0.10623 0.44969 0.41941 0.0
H467 H 0.98654 0.21716 0.60775 0.0
H468 H 0.60628 0.66425 0.05965 0.0
H469 H 0.63957 0.64111 0.05302 0.0
H470 H 0.67258 0.69081 0.97686 0.0
H471 H 0.63908 0.71348 0.983 0.0
H472 H 0.65353 0.63064 0.97042 0.0
H473 H 0.71843 0.7115 0.03508 0.0
H474 H 0.72987 0.73967 0.0789 0.0
H475 H 0.70922 0.65565 0.12182 0.0
H476 H 0.69728 0.62689 0.07824 0.0
H477 H 0.79338 0.63475 0.93757 0.0
H478 H 0.75359 0.6469 0.95274 0.0
H479 H 0.72503 0.5771 0.01593 0.0
H480 H 0.7648 0.56439 0.00056 0.0
H481 H 0.73546 0.63775 0.03336 0.0
H482 H 0.67791 0.55929 0.96703 0.0
H483 H 0.66774 0.53234 0.92271 0.0
H484 H 0.67524 0.61301 0.88236 0.0
H485 H 0.68599 0.64067 0.92638 0.0
C486 C 0.62106 0.67069 0.04173 0.0
C487 C 0.61992 0.69059 0.02177 0.0
C488 C 0.64005 0.65742 0.03798 0.0
C489 C 0.65848 0.6642 0.01442 0.0
C490 C 0.65834 0.68509 0.99509 0.0
C491 C 0.63928 0.69815 -0.00129 0.0
C492 C 0.67679 0.6485 0.00889 0.0
C493 C 0.67159 0.6324 0.98411 0.0
C494 C 0.69944 0.64968 0.02727 0.0
C495 C 0.70659 0.66696 0.05345 0.0
C496 C 0.71606 0.69897 0.05388 0.0
C497 C 0.72269 0.71506 0.07867 0.0
C498 C 0.72017 0.69943 0.10314 0.0
C499 C 0.7111 0.66771 0.10286 0.0
C500 C 0.70441 0.65151 0.07813 0.0
C501 C 0.77858 0.62187 0.95464 0.0
C502 C 0.78215 0.59863 0.9679 0.0
C503 C 0.75581 0.62877 0.9632 0.0
C504 C 0.73635 0.61275 0.98531 0.0
C505 C 0.73986 0.5896 -0.00124 0.0
C506 C 0.76244 0.58233 0.98992 0.0
C507 C 0.71297 0.62111 0.99445 0.0
C508 C 0.71706 0.63563 0.01991 0.0
C509 C 0.68938 0.61868 0.97662 0.0
C510 C 0.68304 0.60217 0.95003 0.0
C511 C 0.67771 0.57142 0.94869 0.0
C512 C 0.67177 0.55598 0.92361 0.0
C513 C 0.67092 0.57098 0.89972 0.0
C514 C 0.67594 0.60143 0.90087 0.0
C515 C 0.68193 0.61699 0.92589 0.0
H516 H 0.6663 0.55898 0.88033 0.0
H517 H 0.72532 0.71193 0.12231 0.0
H518 H 0.36339 0.1703 0.96326 0.0
H519 H 0.3502 0.12113 0.98533 0.0
H520 H 0.43955 0.16531 0.02608 0.0
H521 H 0.4532 0.2151 0.00371 0.0
H522 H 0.42557 0.10958 0.00281 0.0
H523 H 0.37474 0.14592 0.06283 0.0
H524 H 0.3418 0.16864 0.07496 0.0
H525 H 0.26233 0.09064 0.03796 0.0
H526 H 0.29487 0.06765 0.02525 0.0
H527 H 0.33035 0.95547 0.08407 0.0
H528 H 0.35421 0.01248 0.08034 0.0
H529 H 0.34316 0.00431 0.99299 0.0
H530 H 0.31952 0.94775 0.99633 0.0
H531 H 0.32522 0.04634 0.05196 0.0
H532 H 0.39785 0.04227 0.971 0.0
H533 H 0.43408 0.02372 0.95758 0.0
H534 H 0.47271 0.0422 0.03844 0.0
H535 H 0.43587 0.05966 0.05249 0.0
C536 C 0.38029 0.16972 0.97699 0.0
C537 C 0.40934 0.19662 0.98181 0.0
C538 C 0.37257 0.14161 0.98975 0.0
C539 C 0.39363 0.13976 0.00775 0.0
C540 C 0.42287 0.16642 0.01244 0.0
C541 C 0.43064 0.19475 -0.00037 0.0
C542 C 0.38534 0.10931 0.02022 0.0
C543 C 0.40392 0.09606 0.01403 0.0
C544 C 0.35716 0.09165 0.03498 0.0
C545 C 0.33731 0.10509 0.04303 0.0
C546 C 0.35027 0.13367 0.05717 0.0
C547 C 0.33167 0.1466 0.06416 0.0
C548 C 0.3 0.13111 0.05722 0.0
C549 C 0.28686 0.1026 0.04334 0.0
C550 C 0.30537 0.08957 0.0363 0.0
C551 C 0.33285 0.96582 0.06408 0.0
C552 C 0.32303 0.94704 0.04049 0.0
C553 C 0.34662 -0.00166 0.06201 0.0
C554 C 0.35096 0.01245 0.03636 0.0
C555 C 0.34058 0.99379 0.01291 0.0
C556 C 0.32674 0.96142 0.01493 0.0
C557 C 0.36496 0.0466 0.03365 0.0
C558 C 0.34732 0.06039 0.04153 0.0
C559 C 0.39394 0.06488 0.02051 0.0
C560 C 0.41407 0.05193 0.01279 0.0
C561 C 0.4138 0.04188 0.98595 0.0
C562 C 0.43438 0.03153 0.97826 0.0
C563 C 0.45567 0.03174 0.99714 0.0
C564 C 0.45611 0.04186 0.02386 0.0
C565 C 0.43519 0.05168 0.03178 0.0
H566 H 0.47182 0.02407 0.99103 0.0
H567 H 0.28565 0.14118 0.06262 0.0
H568 H 0.03339 0.35995 0.07084 0.0
H569 H 0.9781 0.32762 0.05943 0.0
H570 H 0.0026 0.32288 0.97576 0.0
H571 H 0.05773 0.3555 0.98682 0.0
H572 H 0.96153 0.34145 0.97772 0.0
H573 H 0.97148 0.25863 0.02011 0.0
H574 H 0.98458 0.23334 0.05716 0.0
H575 H 0.91862 0.23981 0.10993 0.0
H576 H 0.90541 0.26552 0.07328 0.0
H577 H 0.82353 0.21779 0.92222 0.0
H578 H 0.8755 0.25188 0.94101 0.0
H579 H 0.83432 0.26186 0.01522 0.0
H580 H 0.7819 0.22782 0.99633 0.0
H581 H 0.88114 0.24423 0.02261 0.0
H582 H 0.86802 0.32261 0.97721 0.0
H583 H 0.85478 0.3463 0.93893 0.0
H584 H 0.92714 0.34638 0.89028 0.0
H585 H 0.94053 0.32228 0.92814 0.0
C586 C 0.02705 0.35152 0.05012 0.0
C587 C 0.04997 0.36067 0.02966 0.0
C588 C 0.99541 0.33296 0.04365 0.0
C589 C 0.98622 0.32308 0.01669 0.0
C590 C 0.00916 0.3306 0.99664 0.0
C591 C 0.04071 0.34915 0.00304 0.0
C592 C 0.95284 0.30704 0.00873 0.0
C593 C 0.94404 0.31998 0.98735 0.0
C594 C 0.9298 0.27977 0.02203 0.0
C595 C 0.93771 0.26431 0.04406 0.0
C596 C 0.95996 0.2549 0.03969 0.0
C597 C 0.96736 0.24044 0.0606 0.0
C598 C 0.95251 0.23506 0.08591 0.0
C599 C 0.93015 0.24404 0.09033 0.0
C600 C 0.92267 0.25853 0.0695 0.0
C601 C 0.82551 0.22754 0.94241 0.0
C602 C 0.79875 0.22019 0.95785 0.0
C603 C 0.85518 0.24704 0.95307 0.0
C604 C 0.85863 0.25937 0.97943 0.0
C605 C 0.832 0.25254 0.9948 0.0
C606 C 0.80218 0.2333 0.98396 0.0
C607 C 0.89025 0.27811 0.99107 0.0
C608 C 0.89866 0.26584 0.0132 0.0
C609 C 0.91306 0.30584 0.9783 0.0
C610 C 0.90513 0.32042 0.95548 0.0
C611 C 0.88095 0.32744 0.95828 0.0
C612 C 0.87345 0.341 0.93667 0.0
C613 C 0.89007 0.34779 0.91218 0.0
C614 C 0.91427 0.3411 0.90927 0.0
C615 C 0.92186 0.32753 0.93081 0.0
H616 H 0.88423 0.35828 0.89547 0.0
H617 H 0.95827 0.22385 0.10207 0.0
H618 H 0.34301 0.15369 0.51803 0.0
H619 H 0.31961 0.18414 0.50213 0.0
H620 H 0.40763 0.26928 0.51397 0.0
H621 H 0.43158 0.23854 0.5286 0.0
H622 H 0.30928 0.22124 0.52923 0.0
H623 H 0.41164 0.32845 0.47514 0.0
H624 H 0.45748 0.34074 0.44657 0.0
H625 H 0.41368 0.24522 0.4199 0.0
H626 H 0.36738 0.23243 0.44798 0.0
H627 H 0.29194 0.35372 0.53096 0.0
H628 H 0.3084 0.31486 0.53409 0.0
H629 H 0.2999 0.30227 0.44677 0.0
H630 H 0.28432 0.34207 0.44332 0.0
H631 H 0.35361 0.30927 0.4634 0.0
H632 H 0.24752 0.2451 0.49 0.0
H633 H 0.19908 0.23056 0.51546 0.0
H634 H 0.2453 0.2346 0.59079 0.0
H635 H 0.29416 0.2496 0.56583 0.0
C636 C 0.35749 0.17889 0.51684 0.0
C637 C 0.38904 0.19386 0.52462 0.0
C638 C 0.34409 0.19627 0.50778 0.0
C639 C 0.36181 0.22902 0.50678 0.0
C640 C 0.3936 0.24402 0.51403 0.0
C641 C 0.40724 0.2265 0.52254 0.0
C642 C 0.34625 0.2473 0.50027 0.0
C643 C 0.31892 0.24035 0.51467 0.0
C644 C 0.35848 0.27197 0.481 0.0
C645 C 0.38616 0.27942 0.46392 0.0
C646 C 0.41174 0.31008 0.46312 0.0
C647 C 0.43781 0.31714 0.44701 0.0
C648 C 0.43854 0.29375 0.43151 0.0
C649 C 0.41314 0.26328 0.43201 0.0
C650 C 0.38699 0.2561 0.44805 0.0
C651 C 0.29315 0.34242 0.51242 0.0
C652 C 0.28688 0.35102 0.48687 0.0
C653 C 0.30242 0.32007 0.51427 0.0
C654 C 0.30501 0.3054 0.4907 0.0
C655 C 0.29797 0.31329 0.46521 0.0
C656 C 0.28906 0.33599 0.46329 0.0
C657 C 0.3171 0.28344 0.49269 0.0
C658 C 0.34382 0.28985 0.47763 0.0
C659 C 0.30397 0.25783 0.51091 0.0
C660 C 0.27457 0.24867 0.52603 0.0
C661 C 0.24742 0.24309 0.51201 0.0
C662 C 0.21987 0.23474 0.52635 0.0
C663 C 0.21912 0.23171 0.55472 0.0
C664 C 0.24591 0.23696 0.56881 0.0
C665 C 0.27353 0.24535 0.55457 0.0
H666 H 0.19777 0.22524 0.56579 0.0
H667 H 0.45876 0.29926 0.41907 0.0
H668 H 0.77604 0.16237 0.53359 0.0
H669 H 0.76521 0.12195 0.49997 0.0
H670 H 0.75057 0.17564 0.43831 0.0
H671 H 0.76174 0.21679 0.47205 0.0
H672 H 0.70513 0.11081 0.43997 0.0
H673 H 0.81401 0.17437 0.4321 0.0
H674 H 0.86788 0.20752 0.44873 0.0
H675 H 0.86402 0.12842 0.48898 0.0
H676 H 0.80989 0.09489 0.4731 0.0
H677 H 0.66879 0.97091 0.37876 0.0
H678 H 0.70193 0.02775 0.37872 0.0
H679 H 0.74154 0.0231 0.45581 0.0
H680 H 0.70912 0.96651 0.4558 0.0
H681 H 0.78209 0.075 0.42806 0.0
H682 H 0.67234 0.01861 0.45151 0.0
H683 H 0.61604 0.98514 0.44376 0.0
H684 H 0.61846 0.04923 0.38323 0.0
H685 H 0.67529 0.08289 0.39024 0.0
C686 C 0.77033 0.16561 0.51295 0.0
C687 C 0.77 0.19289 0.50541 0.0
C688 C 0.76443 0.14261 0.49371 0.0
C689 C 0.75804 0.14634 0.46655 0.0
C690 C 0.75603 0.17272 0.45912 0.0
C691 C 0.76217 0.196 0.47843 0.0
C692 C 0.7524 0.12163 0.44664 0.0
C693 C 0.72206 0.10329 0.43661 0.0
C694 C 0.77484 0.11224 0.44231 0.0
C695 C 0.80778 0.13207 0.45136 0.0
C696 C 0.82458 0.16403 0.44458 0.0
C697 C 0.85517 0.18291 0.4539 0.0
C698 C 0.86937 0.17008 0.46989 0.0
C699 C 0.85301 0.13832 0.47655 0.0
C700 C 0.82237 0.11934 0.46735 0.0
C701 C 0.68542 0.98186 0.3952 0.0
C702 C 0.68551 0.96433 0.41781 0.0
C703 C 0.70444 0.01438 0.39506 0.0
C704 C 0.72344 0.02965 0.41765 0.0
C705 C 0.72681 0.01182 0.43827 0.0
C706 C 0.70798 0.97938 0.43836 0.0
C707 C 0.73401 0.06293 0.42326 0.0
C708 C 0.76535 0.08297 0.43045 0.0
C709 C 0.71219 0.07355 0.42581 0.0
C710 C 0.67823 0.0529 0.42093 0.0
C711 C 0.66103 0.02529 0.43614 0.0
C712 C 0.62894 0.00634 0.43198 0.0
C713 C 0.6136 0.01493 0.41289 0.0
C714 C 0.63039 0.04253 0.39793 0.0
C715 C 0.66258 0.06153 0.40195 0.0
H716 H 0.5887 0.00027 0.40975 0.0
H717 H 0.89304 0.18475 0.47712 0.0
H718 H 0.04587 0.66537 0.43403 0.0
H719 H 0.99027 0.64743 0.43968 0.0
H720 H 0.00426 0.66514 0.5262 0.0
H721 H 0.05989 0.68432 0.52058 0.0
H722 H 0.94666 0.59997 0.46583 0.0
H723 H 0.95321 0.68295 0.5526 0.0
H724 H 0.98819 0.73692 0.56838 0.0
H725 H 0.02389 0.76435 0.48708 0.0
H726 H 0.98885 0.71065 0.47074 0.0
H727 H 0.79809 0.54196 0.53163 0.0
H728 H 0.85229 0.55981 0.51798 0.0
H729 H 0.86037 0.64547 0.48701 0.0
H730 H 0.8072 0.62845 0.50192 0.0
H731 H 0.90692 0.65979 0.51673 0.0
H732 H 0.85758 0.58509 0.445 0.0
H733 H 0.82224 0.53351 0.42471 0.0
H734 H 0.87072 0.49416 0.46694 0.0
H735 H 0.90611 0.54543 0.48778 0.0
C736 C 0.0372 0.66597 0.45418 0.0
C737 C 0.05737 0.67639 0.47683 0.0
C738 C 0.00537 0.65546 0.45741 0.0
C739 C 0.99309 0.6551 0.48332 0.0
C740 C 0.01325 0.66579 0.5059 0.0
C741 C 0.04511 0.67674 0.50265 0.0
C742 C 0.95913 0.64296 0.4869 0.0
C743 C 0.93791 0.61309 0.47683 0.0
C744 C 0.94768 0.66021 0.50096 0.0
C745 C 0.96859 0.6927 0.51052 0.0
C746 C 0.96843 0.70053 0.53807 0.0
C747 C 0.98829 0.73107 0.54712 0.0
C748 C 0.00832 0.75403 0.52876 0.0
C749 C 0.00845 0.74652 0.50129 0.0
C750 C 0.98862 0.71602 0.49214 0.0
C751 C 0.81142 0.56434 0.5215 0.0
C752 C 0.79874 0.58398 0.51797 0.0
C753 C 0.84231 0.57451 0.51363 0.0
C754 C 0.8605 0.60405 0.50143 0.0
C755 C 0.84702 0.62278 0.49663 0.0
C756 C 0.8166 0.613 0.50507 0.0
C757 C 0.89421 0.61676 0.49552 0.0
C758 C 0.91551 0.64668 0.50546 0.0
C759 C 0.90556 0.59991 0.48063 0.0
C760 C 0.8843 0.56904 0.46816 0.0
C761 C 0.86055 0.56538 0.45013 0.0
C762 C 0.84054 0.53621 0.4385 0.0
C763 C 0.84418 0.51056 0.44459 0.0
C764 C 0.8679 0.51404 0.46228 0.0
C765 C 0.88796 0.54316 0.47398 0.0
H766 H 0.82867 0.488 0.43556 0.0
H767 H 0.02369 0.77765 0.53581 0.0
H768 H 0.27368 0.49787 0.37454 0.0
H769 H 0.25629 0.50476 0.32943 0.0
H770 H 0.21226 0.40549 0.31524 0.0
H771 H 0.22994 0.39843 0.35984 0.0
H772 H 0.26611 0.48365 0.27474 0.0
H773 H 0.13867 0.38591 0.28937 0.0
H774 H 0.10023 0.36036 0.32633 0.0
H775 H 0.14647 0.44426 0.37422 0.0
H776 H 0.18494 0.47045 0.3374 0.0
H777 H 0.13343 0.403 0.16836 0.0
H778 H 0.15258 0.40789 0.21491 0.0
H779 H 0.21269 0.50721 0.20332 0.0
H780 H 0.19448 0.50218 0.15614 0.0
H781 H 0.15207 0.43577 0.25877 0.0
H782 H 0.27975 0.53281 0.23986 0.0
H783 H 0.31816 0.55391 0.20232 0.0
H784 H 0.27166 0.46477 0.16207 0.0
H785 H 0.23325 0.44307 0.19951 0.0
C786 C 0.26062 0.47759 0.36164 0.0
C787 C 0.25314 0.44761 0.37071 0.0
C788 C 0.25075 0.48157 0.33595 0.0
C789 C 0.23278 0.45558 0.31926 0.0
C790 C 0.22593 0.42578 0.32799 0.0
C791 C 0.23617 0.42183 0.35341 0.0
C792 C 0.22039 0.45915 0.2929 0.0
C793 C 0.24124 0.47377 0.27127 0.0
C794 C 0.1879 0.44547 0.28841 0.0
C795 C 0.16484 0.43004 0.3107 0.0
C796 C 0.14058 0.39894 0.30776 0.0
C797 C 0.1188 0.38433 0.32868 0.0
C798 C 0.12095 0.40065 0.35263 0.0
C799 C 0.1449 0.43161 0.3557 0.0
C800 C 0.16675 0.44633 0.33482 0.0
C801 C 0.1505 0.42596 0.17577 0.0
C802 C 0.16265 0.45217 0.15852 0.0
C803 C 0.16142 0.42874 0.20244 0.0
C804 C 0.18451 0.45782 0.21253 0.0
C805 C 0.19543 0.48438 0.19581 0.0
C806 C 0.18485 0.48153 0.16892 0.0
C807 C 0.19771 0.45978 0.24018 0.0
C808 C 0.17701 0.44613 0.26216 0.0
C809 C 0.23032 0.47375 0.24483 0.0
C810 C 0.25341 0.48648 0.2223 0.0
C811 C 0.27778 0.51772 0.22301 0.0
C812 C 0.29954 0.52978 0.20176 0.0
C813 C 0.29727 0.51073 0.17977 0.0
C814 C 0.27331 0.47954 0.17905 0.0
C815 C 0.25152 0.46736 0.20026 0.0
H816 H 0.31413 0.52011 0.16333 0.0
H817 H 0.10398 0.38929 0.36874 0.0
H818 H 0.46749 0.71018 0.12364 0.0
H819 H 0.45874 0.7261 0.1686 0.0
H820 H 0.54425 0.73266 0.19775 0.0
H821 H 0.55274 0.71615 0.15328 0.0
H822 H 0.50217 0.71224 0.23733 0.0
H823 H 0.54266 0.79639 0.17052 0.0
H824 H 0.54089 0.82129 0.12743 0.0
H825 H 0.45391 0.81401 0.15163 0.0
H826 H 0.45502 0.7887 0.19475 0.0
H827 H 0.57494 0.86786 0.30824 0.0
H828 H 0.5545 0.83805 0.26627 0.0
H829 H 0.47664 0.76548 0.31076 0.0
H830 H 0.4973 0.79509 0.35312 0.0
H831 H 0.50278 0.81308 0.23558 0.0
H832 H 0.46595 0.69528 0.28656 0.0
H833 H 0.47545 0.67425 0.32893 0.0
H834 H 0.56705 0.75498 0.33532 0.0
H835 H 0.55821 0.77623 0.29283 0.0
C836 C 0.48403 0.71432 0.13983 0.0
C837 C 0.51103 0.71232 0.13483 0.0
C838 C 0.47905 0.72351 0.16547 0.0
C839 C 0.50113 0.73111 0.18637 0.0
C840 C 0.52691 0.72696 0.18193 0.0
C841 C 0.5318 0.71763 0.15642 0.0
C842 C 0.49955 0.74644 0.21188 0.0
C843 C 0.50172 0.73399 0.23698 0.0
C844 C 0.49932 0.77502 0.21146 0.0
C845 C 0.49872 0.79033 0.18565 0.0
C846 C 0.52306 0.79992 0.16654 0.0
C847 C 0.52219 0.81412 0.14214 0.0
C848 C 0.49725 0.81914 0.13675 0.0
C849 C 0.47317 0.81004 0.1558 0.0
C850 C 0.47391 0.79577 0.18022 0.0
C851 C 0.55311 0.84588 0.30905 0.0
C852 C 0.53799 0.8336 0.33405 0.0
C853 C 0.54136 0.82891 0.28499 0.0
C854 C 0.51433 0.79932 0.28547 0.0
C855 C 0.49777 0.7881 0.31003 0.0
C856 C 0.50956 0.80509 0.33419 0.0
C857 C 0.50601 0.77917 0.26093 0.0
C858 C 0.50204 0.79074 0.23602 0.0
C859 C 0.50547 0.75022 0.26144 0.0
C860 C 0.51122 0.73749 0.28677 0.0
C861 C 0.48812 0.70848 0.29701 0.0
C862 C 0.49339 0.69653 0.32103 0.0
C863 C 0.52178 0.71333 0.33487 0.0
C864 C 0.54503 0.74205 0.32464 0.0
C865 C 0.53989 0.75406 0.30061 0.0
H866 H 0.5258 0.70407 0.35348 0.0
H867 H 0.49662 0.83014 0.11785 0.0
H868 H 0.30387 0.77992 0.14745 0.0
H869 H 0.28791 0.75472 0.19218 0.0
H870 H 0.25399 0.81726 0.21394 0.0
H871 H 0.27115 0.84333 0.16997 0.0
H872 H 0.27794 0.80816 0.25637 0.0
H873 H 0.20544 0.74034 0.18843 0.0
H874 H 0.18912 0.70864 0.1464 0.0
H875 H 0.22467 0.65134 0.17799 0.0
H876 H 0.24155 0.68298 0.2201 0.0
H877 H 0.15164 0.71745 0.34467 0.0
H878 H 0.17765 0.73689 0.30079 0.0
H879 H 0.23834 0.69957 0.31762 0.0
H880 H 0.21289 0.68056 0.36209 0.0
H881 H 0.2058 0.69337 0.25771 0.0
H882 H 0.27473 0.76377 0.32892 0.0
H883 H 0.28366 0.79492 0.37076 0.0
H884 H 0.24664 0.84724 0.33148 0.0
H885 H 0.23705 0.81605 0.28954 0.0
C886 C 0.29348 0.78859 0.162 0.0
C887 C 0.28858 0.81347 0.15516 0.0
C888 C 0.28416 0.77403 0.18747 0.0
C889 C 0.26907 0.78359 0.20625 0.0
C890 C 0.2655 0.80937 0.19985 0.0
C891 C 0.27531 0.82426 0.17464 0.0
C892 C 0.25565 0.76613 0.23205 0.0
C893 C 0.26224 0.78306 0.25654 0.0
C894 C 0.23521 0.73328 0.23251 0.0
C895 C 0.22511 0.71425 0.20724 0.0
C896 C 0.20999 0.72113 0.18631 0.0
C897 C 0.2006 0.70315 0.1625 0.0
C898 C 0.20595 0.67806 0.15949 0.0
C899 C 0.22061 0.67083 0.18033 0.0
C900 C 0.23009 0.68877 0.20417 0.0
C901 C 0.17008 0.71276 0.33887 0.0
C902 C 0.18037 0.69764 0.35691 0.0
C903 C 0.18491 0.72394 0.31382 0.0
C904 C 0.20994 0.71978 0.30622 0.0
C905 C 0.21901 0.70293 0.32328 0.0
C906 C 0.20449 0.69214 0.34861 0.0
C907 C 0.22809 0.73553 0.28154 0.0
C908 C 0.22216 0.71833 0.25739 0.0
C909 C 0.24853 0.7682 0.28121 0.0
C910 C 0.25492 0.78739 0.3062 0.0
C911 C 0.26826 0.78175 0.32929 0.0
C912 C 0.27349 0.79944 0.353 0.0
C913 C 0.26564 0.82298 0.3538 0.0
C914 C 0.25268 0.82898 0.33084 0.0
C915 C 0.24738 0.81133 0.30709 0.0
H916 H 0.26963 0.83662 0.37219 0.0
H917 H 0.19866 0.66416 0.14104 0.0
H918 H 0.79818 0.51363 0.85478 0.0
H919 H 0.77606 0.50877 0.80905 0.0
H920 H 0.83554 0.60788 0.79652 0.0
H921 H 0.85797 0.61294 0.84189 0.0
H922 H 0.77106 0.58538 0.7872 0.0
H923 H 0.8514 0.56071 0.76315 0.0
H924 H 0.87924 0.53102 0.7667 0.0
H925 H 0.79492 0.44628 0.74639 0.0
H926 H 0.76646 0.47542 0.74309 0.0
H927 H 0.75389 0.60832 0.64803 0.0
H928 H 0.77117 0.60586 0.69408 0.0
H929 H 0.72103 0.50504 0.69019 0.0
H930 H 0.70451 0.50741 0.64361 0.0
H931 H 0.77646 0.52392 0.70947 0.0
H932 H 0.69598 0.54648 0.73096 0.0
H933 H 0.66572 0.5738 0.72857 0.0
H934 H 0.74586 0.65883 0.75547 0.0
H935 H 0.77675 0.63214 0.75767 0.0
C936 C 0.80694 0.53428 0.84208 0.0
C937 C 0.82976 0.56368 0.85197 0.0
C938 C 0.79427 0.53146 0.81601 0.0
C939 C 0.80409 0.55801 0.79955 0.0
C940 C 0.82759 0.58716 0.80901 0.0
C941 C 0.84048 0.58995 0.83488 0.0
C942 C 0.78878 0.55591 0.77307 0.0
C943 C 0.77247 0.57223 0.77006 0.0
C944 C 0.78961 0.53769 0.75122 0.0
C945 C 0.80672 0.52018 0.75318 0.0
C946 C 0.83872 0.53569 0.7597 0.0
C947 C 0.85463 0.51898 0.76161 0.0
C948 C 0.83883 0.48677 0.75686 0.0
C949 C 0.80711 0.47122 0.75011 0.0
C950 C 0.79109 0.48783 0.7482 0.0
C951 C 0.74618 0.5856 0.65709 0.0
C952 C 0.72782 0.55805 0.6422 0.0
C953 C 0.75599 0.58421 0.68351 0.0
C954 C 0.74714 0.55524 0.69578 0.0
C955 C 0.72817 0.52765 0.68116 0.0
C956 C 0.71864 0.52904 0.65459 0.0
C957 C 0.75911 0.55393 0.72328 0.0
C958 C 0.77474 0.53691 0.72659 0.0
C959 C 0.75723 0.57114 0.7456 0.0
C960 C 0.73876 0.58734 0.74426 0.0
C961 C 0.70723 0.57107 0.73616 0.0
C962 C 0.68995 0.58643 0.73488 0.0
C963 C 0.70388 0.61805 0.7418 0.0
C964 C 0.73511 0.63435 0.75009 0.0
C965 C 0.7525 0.6191 0.75139 0.0
H966 H 0.69045 0.6299 0.7408 0.0
H967 H 0.85119 0.47387 0.75834 0.0
H968 H 0.48795 0.28969 0.8574 0.0
H969 H 0.49064 0.27132 0.81154 0.0
H970 H 0.39061 0.22859 0.80383 0.0
H971 H 0.38769 0.24703 0.84936 0.0
H972 H 0.41431 0.1879 0.79347 0.0
H973 H 0.43412 0.29092 0.76816 0.0
H974 H 0.46229 0.34853 0.77016 0.0
H975 H 0.54717 0.35127 0.74589 0.0
H976 H 0.51958 0.29362 0.74412 0.0
H977 H 0.38549 0.14163 0.65595 0.0
H978 H 0.38933 0.16336 0.70137 0.0
H979 H 0.48968 0.21768 0.69326 0.0
H980 H 0.48579 0.19694 0.64718 0.0
H981 H 0.46989 0.25295 0.71298 0.0
H982 H 0.45189 0.15157 0.73621 0.0
H983 H 0.42584 0.09401 0.73507 0.0
H984 H 0.34104 0.08765 0.76476 0.0
H985 H 0.36646 0.14518 0.76574 0.0
C986 C 0.46661 0.27683 0.84574 0.0
C987 C 0.4376 0.26972 0.85702 0.0
C988 C 0.46819 0.26637 0.81958 0.0
C989 C 0.44079 0.24852 0.80444 0.0
C990 C 0.41198 0.24225 0.8153 0.0
C991 C 0.4104 0.25294 0.84126 0.0
C992 C 0.44175 0.23473 0.77792 0.0
C993 C 0.42617 0.20205 0.77573 0.0
C994 C 0.45828 0.25331 0.75524 0.0
C995 C 0.47486 0.28795 0.75632 0.0
C996 C 0.45886 0.30379 0.76351 0.0
C997 C 0.4747 0.33646 0.76454 0.0
C998 C 0.50652 0.35355 0.75824 0.0
C999 C 0.52254 0.338 0.75082 0.0
C1000 C 0.5068 0.30534 0.74978 0.0
C1001 C 0.40842 0.1579 0.66396 0.0
C1002 C 0.43535 0.16753 0.64805 0.0
C1003 C 0.41061 0.17024 0.69001 0.0
C1004 C 0.43986 0.19186 0.70097 0.0
C1005 C 0.46687 0.20104 0.68528 0.0
C1006 C 0.46463 0.18907 0.659 0.0
C1007 C 0.44197 0.2059 0.72825 0.0
C1008 C 0.4582 0.23865 0.73068 0.0
C1009 C 0.42641 0.18736 0.75133 0.0
C1010 C 0.41103 0.15272 0.75084 0.0
C1011 C 0.42762 0.1379 0.74231 0.0
C1012 C 0.41298 0.10528 0.74173 0.0
C1013 C 0.38179 0.08719 0.74978 0.0
C1014 C 0.36519 0.10169 0.75851 0.0
C1015 C 0.37972 0.13431 0.75911 0.0
H1016 H 0.37049 0.06193 0.74931 0.0
H1017 H 0.51875 0.37883 0.75904 0.0
H1018 H 0.68198 0.20068 0.85363 0.0
H1019 H 0.69387 0.22468 0.80806 0.0
H1020 H 0.73519 0.16892 0.78552 0.0
H1021 H 0.72295 0.14442 0.83045 0.0
H1022 H 0.77364 0.24327 0.78437 0.0
H1023 H 0.67844 0.1476 0.75523 0.0
H1024 H 0.62162 0.11106 0.75705 0.0
H1025 H 0.60435 0.1859 0.73751 0.0
H1026 H 0.66114 0.22299 0.73597 0.0
H1027 H 0.82276 0.25208 0.65102 0.0
H1028 H 0.80083 0.23915 0.69663 0.0
H1029 H 0.73805 0.2734 0.67703 0.0
H1030 H 0.75941 0.28554 0.63055 0.0
H1031 H 0.70703 0.2197 0.70213 0.0
H1032 H 0.79992 0.31343 0.72238 0.0
H1033 H 0.85605 0.35268 0.72147 0.0
H1034 H 0.87761 0.2875 0.75979 0.0
H1035 H 0.82166 0.24768 0.76058 0.0
C1036 C 0.69289 0.19298 0.83872 0.0
C1037 C 0.7017 0.17078 0.84569 0.0
C1038 C 0.69967 0.20673 0.81277 0.0
C1039 C 0.71549 0.19857 0.79365 0.0
C1040 C 0.72294 0.17542 0.80011 0.0
C1041 C 0.71584 0.16141 0.82579 0.0
C1042 C 0.7273 0.21613 0.76792 0.0
C1043 C 0.75921 0.2382 0.7663 0.0
C1044 C 0.70802 0.21042 0.74493 0.0
C1045 C 0.67398 0.18812 0.7459 0.0
C1046 C 0.66253 0.15633 0.75166 0.0
C1047 C 0.63033 0.1355 0.75255 0.0
C1048 C 0.60938 0.14617 0.74751 0.0
C1049 C 0.6206 0.17768 0.74148 0.0
C1050 C 0.65278 0.19861 0.74059 0.0
C1051 C 0.80458 0.2573 0.65642 0.0
C1052 C 0.79287 0.26991 0.63715 0.0
C1053 C 0.79215 0.25004 0.68265 0.0
C1054 C 0.76811 0.25576 0.6905 0.0
C1055 C 0.75669 0.26891 0.67148 0.0
C1056 C 0.769 0.27596 0.64499 0.0
C1057 C 0.75396 0.24601 0.71805 0.0
C1058 C 0.72157 0.22548 0.72019 0.0
C1059 C 0.77276 0.2536 0.74176 0.0
C1060 C 0.80653 0.27749 0.74143 0.0
C1061 C 0.81663 0.30738 0.73046 0.0
C1062 C 0.84843 0.32975 0.72999 0.0
C1063 C 0.87038 0.32258 0.74054 0.0
C1064 C 0.86058 0.29303 0.75163 0.0
C1065 C 0.82881 0.27056 0.75215 0.0
H1066 H 0.89499 0.33993 0.74015 0.0
H1067 H 0.58447 0.13001 0.74819 0.0
H1068 H 0.09439 0.49756 0.06678 0.0
H1069 H 0.05111 0.50665 0.05701 0.0
H1070 H 0.07261 0.5136 0.97114 0.0
H1071 H 0.11632 0.50514 0.9807 0.0
H1072 H 0.0507 0.55233 0.98523 0.0
H1073 H 0.01892 0.44358 0.99769 0.0
H1074 H 0.01568 0.39851 0.0222 0.0
H1075 H 0.97053 0.41543 0.08964 0.0
H1076 H 0.97375 0.46084 0.06553 0.0
H1077 H 0.90332 0.52056 0.93915 0.0
H1078 H 0.94616 0.50998 0.9461 0.0
H1079 H 0.92994 0.50394 0.03292 0.0
H1080 H 0.88676 0.51382 0.0262 0.0
H1081 H 0.94919 0.46397 0.01647 0.0
H1082 H 0.97879 0.57169 0.00214 0.0
H1083 H 0.97927 0.61432 0.97579 0.0
H1084 H 0.02931 0.59985 0.91108 0.0
H1085 H 0.0277 0.55594 0.93653 0.0
C1086 C 0.09055 0.50195 0.04588 0.0
C1087 C 0.10852 0.50005 0.02448 0.0
C1088 C 0.06562 0.50691 0.04031 0.0
C1089 C 0.05806 0.5098 0.01326 0.0
C1090 C 0.07782 0.51106 0.99213 0.0
C1091 C 0.10289 0.50629 0.99768 0.0
C1092 C 0.02808 0.50851 0.00683 0.0
C1093 C 0.02849 0.53288 0.99179 0.0
C1094 C -0.00092 0.48319 0.01555 0.0
C1095 C -0.00314 0.45575 0.02994 0.0
C1096 C 0.00847 0.43778 0.01781 0.0
C1097 C 0.0066 0.41214 0.03163 0.0
C1098 C 0.99302 0.40417 0.05755 0.0
C1099 C 0.9811 0.42169 0.0696 0.0
C1100 C 0.9829 0.44734 0.05585 0.0
C1101 C 0.90821 0.51603 0.95966 0.0
C1102 C 0.89197 0.51866 0.98217 0.0
C1103 C 0.93284 0.51016 0.96359 0.0
C1104 C 0.94179 0.50712 0.99009 0.0
C1105 C 0.92363 0.50656 0.01232 0.0
C1106 C 0.8989 0.51223 0.00841 0.0
C1107 C 0.97178 0.50787 0.99504 0.0
C1108 C 0.97138 0.48339 0.00982 0.0
C1109 C 0.00074 0.53307 0.98599 0.0
C1110 C 0.00279 0.56025 0.97113 0.0
C1111 C 0.9897 0.57742 0.98221 0.0
C1112 C 0.99012 0.6018 0.9674 0.0
C1113 C 0.00442 0.60991 0.9418 0.0
C1114 C 0.01822 0.59354 0.93092 0.0
C1115 C 0.01741 0.56877 0.94547 0.0
H1116 H 0.00478 0.62884 0.93037 0.0
H1117 H 0.99168 0.38444 0.06834 0.0
H1118 H 0.47478 0.60323 0.04097 0.0
H1119 H 0.46693 0.55097 0.03313 0.0
H1120 H 0.4821 0.57019 0.94696 0.0
H1121 H 0.49007 0.62256 0.95454 0.0
H1122 H 0.43057 0.49913 0.00261 0.0
H1123 H 0.5342 0.54507 0.92638 0.0
H1124 H 0.58223 0.59431 0.91486 0.0
H1125 H 0.58543 0.62853 0.99596 0.0
H1126 H 0.53797 0.5794 0.00815 0.0
H1127 H 0.48186 0.39204 0.93564 0.0
H1128 H 0.48447 0.44289 0.93699 0.0
H1129 H 0.4813 0.43926 0.02486 0.0
H1130 H 0.47917 0.38879 0.02383 0.0
H1131 H 0.52508 0.50157 0.96488 0.0
H1132 H 0.42384 0.45987 0.04217 0.0
H1133 H 0.37744 0.41127 0.05746 0.0
H1134 H 0.37188 0.36903 0.97958 0.0
H1135 H 0.41782 0.4176 0.96358 0.0
C1136 C 0.47548 0.59605 0.02022 0.0
C1137 C 0.4836 0.6173 -0.00154 0.0
C1138 C 0.47105 0.56616 0.01579 0.0
C1139 C 0.4748 0.55709 0.98958 0.0
C1140 C 0.47973 0.57703 0.96742 0.0
C1141 C 0.484 0.60688 0.9718 0.0
C1142 C 0.47657 0.52822 0.98599 0.0
C1143 C 0.45127 0.49966 0.99448 0.0
C1144 C 0.50357 0.52898 0.97516 0.0
C1145 C 0.53218 0.55874 0.968 0.0
C1146 C 0.54519 0.56313 0.94175 0.0
C1147 C 0.57237 0.59101 0.93513 0.0
C1148 C 0.5868 0.61465 0.95463 0.0
C1149 C 0.5742 0.61034 0.98084 0.0
C1150 C 0.54713 0.58248 0.9876 0.0
C1151 C 0.48262 0.40246 0.95528 0.0
C1152 C 0.48009 0.38623 0.97962 0.0
C1153 C 0.48397 0.43143 0.95599 0.0
C1154 C 0.48234 0.44435 0.98099 0.0
C1155 C 0.4821 0.42935 0.00535 0.0
C1156 C 0.48119 0.40063 0.0047 0.0
C1157 C 0.47916 0.47257 0.98167 0.0
C1158 C 0.50424 0.50101 0.97267 0.0
C1159 C 0.45218 0.47178 0.99249 0.0
C1160 C 0.42458 0.44229 0.00182 0.0
C1161 C 0.4127 0.44023 0.02828 0.0
C1162 C 0.38645 0.41271 0.03706 0.0
C1163 C 0.37182 0.38706 0.01955 0.0
C1164 C 0.38334 0.38888 0.99317 0.0
C1165 C 0.40952 0.41641 0.98424 0.0
H1166 H 0.3515 0.36587 0.02645 0.0
H1167 H 0.60779 0.63624 0.94946 0.0
H1168 H 0.40155 0.87629 0.06659 0.0
H1169 H 0.45613 0.9165 0.06031 0.0
H1170 H 0.44273 0.91147 0.97315 0.0
H1171 H 0.3884 0.87083 0.97912 0.0
H1172 H 0.50362 0.93034 0.9862 0.0
H1173 H 0.42469 0.95624 0.01006 0.0
H1174 H 0.38296 0.95548 0.03784 0.0
H1175 H 0.44582 0.994 0.10572 0.0
H1176 H 0.48799 0.9944 0.07833 0.0
H1177 H 0.602 0.08426 0.94274 0.0
H1178 H 0.55401 0.03558 0.95308 0.0
H1179 H 0.57408 0.05131 0.03911 0.0
H1180 H 0.62168 0.10034 0.02907 0.0
H1181 H 0.51321 0.0255 0.02994 0.0
H1182 H 0.59451 0.00548 0.00236 0.0
H1183 H 0.6361 0.01081 0.9713 0.0
H1184 H 0.56831 0.96321 0.90824 0.0
H1185 H 0.52634 0.95827 0.93873 0.0
C1186 C 0.41048 0.88281 0.04602 0.0
C1187 C 0.39035 0.87102 0.0234 0.0
C1188 C 0.44172 0.90586 0.04247 0.0
C1189 C 0.45312 0.91766 0.01632 0.0
C1190 C 0.43429 0.90294 0.99353 0.0
C1191 C 0.40312 0.87969 0.99703 0.0
C1192 C 0.48186 0.94846 0.01298 0.0
C1193 C 0.50574 0.95116 0.9957 0.0
C1194 C 0.48473 0.97562 0.02558 0.0
C1195 C 0.45933 0.97485 0.0423 0.0
C1196 C 0.4295 0.96408 0.03104 0.0
C1197 C 0.40577 0.96383 0.04671 0.0
C1198 C 0.41162 0.97457 0.07362 0.0
C1199 C 0.44128 0.98559 0.0849 0.0
C1200 C 0.46511 0.9858 0.06932 0.0
C1201 C 0.59583 0.07783 0.9639 0.0
C1202 C 0.61599 0.09603 0.98505 0.0
C1203 C 0.56855 0.04979 0.96976 0.0
C1204 C 0.5611 0.03931 0.99681 0.0
C1205 C 0.57965 0.05874 0.01806 0.0
C1206 C 0.60683 0.08688 0.01225 0.0
C1207 C 0.53482 0.00755 0.00291 0.0
C1208 C 0.5114 0.00466 0.02076 0.0
C1209 C 0.53235 0.98037 0.99066 0.0
C1210 C 0.55732 0.98187 0.97273 0.0
C1211 C 0.58848 0.9963 0.98182 0.0
C1212 C 0.61215 -0.00068 0.96428 0.0
C1213 C 0.6049 0.98763 0.93771 0.0
C1214 C 0.57391 0.97248 0.92875 0.0
C1215 C 0.55017 0.96956 0.94616 0.0
H1216 H 0.62328 0.99013 0.9241 0.0
H1217 H 0.39323 0.97444 0.08572 0.0
H1218 H 0.55673 0.94198 0.43337 0.0
H1219 H 0.54582 0.98228 0.4501 0.0
H1220 H 0.53902 0.94842 0.53227 0.0
H1221 H 0.55126 0.90879 0.51595 0.0
H1222 H 0.48771 0.96237 0.50723 0.0
H1223 H 0.59609 0.00278 0.52848 0.0
H1224 H 0.65231 0.02181 0.52265 0.0
H1225 H 0.65854 0.08951 0.46424 0.0
H1226 H 0.60223 0.06985 0.46862 0.0
H1227 H 0.48109 0.08895 0.5682 0.0
H1228 H 0.49743 0.0502 0.56159 0.0
H1229 H 0.53788 0.09161 0.48387 0.0
H1230 H 0.52174 0.13056 0.49027 0.0
H1231 H 0.5733 0.0728 0.51152 0.0
H1232 H 0.46467 0.03028 0.4876 0.0
H1233 H 0.40932 0.01429 0.49529 0.0
H1234 H 0.40385 0.9525 0.5594 0.0
H1235 H 0.45933 0.96849 0.5524 0.0
C1236 C 0.55251 0.94279 0.45496 0.0
C1237 C 0.55511 0.92235 0.47337 0.0
C1238 C 0.54657 0.966 0.46447 0.0
C1239 C 0.54227 0.96856 0.49241 0.0
C1240 C 0.54275 0.94696 0.51066 0.0
C1241 C 0.54956 0.92428 0.50128 0.0
C1242 C 0.53705 0.99379 0.50236 0.0
C1243 C 0.50646 0.98647 0.50861 0.0
C1244 C 0.56156 0.0252 0.5036 0.0
C1245 C 0.59471 0.03446 0.4986 0.0
C1246 C 0.60922 0.02105 0.51376 0.0
C1247 C 0.64124 0.03212 0.51083 0.0
C1248 C 0.6591 0.05695 0.49316 0.0
C1249 C 0.64484 0.0703 0.47793 0.0
C1250 C 0.61281 0.05902 0.48046 0.0
C1251 C 0.49416 0.09037 0.54999 0.0
C1252 C 0.49976 0.11267 0.52958 0.0
C1253 C 0.50321 0.06799 0.54616 0.0
C1254 C 0.5181 0.06758 0.52194 0.0
C1255 C 0.52609 0.09136 0.5026 0.0
C1256 C 0.51695 0.11369 0.50634 0.0
C1257 C 0.52393 0.04154 0.51595 0.0
C1258 C 0.55458 0.04867 0.51034 0.0
C1259 C 0.49947 0.00999 0.51516 0.0
C1260 C 0.46629 0.00091 0.51972 0.0
C1261 C 0.45178 0.01358 0.50356 0.0
C1262 C 0.42036 0.00445 0.50775 0.0
C1263 C 0.40313 0.98247 0.52788 0.0
C1264 C 0.41727 0.96958 0.54387 0.0
C1265 C 0.44869 0.97867 0.53981 0.0
H1266 H 0.37882 0.9753 0.53106 0.0
H1267 H 0.68395 0.06576 0.49114 0.0
H1268 H 0.88138 0.37743 0.46563 0.0
H1269 H 0.93149 0.42586 0.46341 0.0
H1270 H 0.93477 0.43111 0.55123 0.0
H1271 H 0.8846 0.38254 0.55379 0.0
H1272 H 0.95956 0.4897 0.52524 0.0
H1273 H 0.96757 0.39705 0.52144 0.0
H1274 H 0.95392 0.34537 0.50328 0.0
H1275 H 0.99282 0.38631 0.42549 0.0
H1276 H 0.00563 0.43825 0.44291 0.0
H1277 H 0.11853 0.59604 0.53329 0.0
H1278 H 0.07293 0.54442 0.54027 0.0
H1279 H 0.06186 0.53083 0.45323 0.0
H1280 H 0.10747 0.5824 0.44596 0.0
H1281 H 0.04222 0.47483 0.48194 0.0
H1282 H 0.02629 0.56346 0.48196 0.0
H1283 H 0.03629 0.61521 0.49665 0.0
H1284 H 0.01179 0.58204 0.57898 0.0
H1285 H 0.00203 0.52992 0.5647 0.0
C1286 C 0.89219 0.38928 0.48451 0.0
C1287 C 0.87921 0.3757 0.50992 0.0
C1288 C 0.92098 0.41688 0.48317 0.0
C1289 C 0.93716 0.43143 0.50717 0.0
C1290 C 0.92276 0.41991 0.5325 0.0
C1291 C 0.894 0.39219 0.53389 0.0
C1292 C 0.97008 0.45693 0.50586 0.0
C1293 C 0.97772 0.48632 0.5162 0.0
C1294 C 0.99364 0.45252 0.49364 0.0
C1295 C 0.98706 0.42151 0.48337 0.0
C1296 C 0.97289 0.39503 0.50036 0.0
C1297 C 0.96522 0.36564 0.49017 0.0
C1298 C 0.9722 0.36245 0.46315 0.0
C1299 C 0.98716 0.38876 0.44634 0.0
C1300 C 0.99455 0.41819 0.45635 0.0
C1301 C 0.10719 0.58168 0.51559 0.0
C1302 C 0.11621 0.59369 0.48903 0.0
C1303 C 0.081 0.55219 0.51965 0.0
C1304 C 0.06361 0.53426 0.49725 0.0
C1305 C 0.07484 0.54448 0.47078 0.0
C1306 C 0.10094 0.57402 0.46668 0.0
C1307 C 0.03158 0.5076 0.50117 0.0
C1308 C 0.02411 0.47803 0.49131 0.0
C1309 C 0.00804 0.51181 0.51362 0.0
C1310 C 0.01386 0.54299 0.52235 0.0
C1311 C 0.02331 0.56728 0.50324 0.0
C1312 C 0.02888 0.59669 0.5115 0.0
C1313 C 0.0248 0.60205 0.53878 0.0
C1314 C 0.01503 0.5779 0.55786 0.0
C1315 C 0.00947 0.5484 0.5497 0.0
H1316 H 0.02912 0.62486 0.54515 0.0
H1317 H 0.96631 0.33965 0.45533 0.0
H1318 H 0.37601 0.47782 0.45003 0.0
H1319 H 0.42881 0.48648 0.45579 0.0
H1320 H 0.43026 0.51618 0.53873 0.0
H1321 H 0.37723 0.50741 0.53331 0.0
H1322 H 0.48913 0.54984 0.51037 0.0
H1323 H 0.4071 0.44355 0.52842 0.0
H1324 H 0.36013 0.39352 0.517 0.0
H1325 H 0.40808 0.38161 0.44905 0.0
H1326 H 0.45516 0.432 0.45965 0.0
H1327 H 0.60597 0.52387 0.56408 0.0
H1328 H 0.55487 0.51935 0.55779 0.0
H1329 H 0.54649 0.47701 0.47898 0.0
H1330 H 0.59752 0.48118 0.48514 0.0
H1331 H 0.49141 0.45056 0.50459 0.0
H1332 H 0.57185 0.55376 0.48368 0.0
H1333 H 0.61956 0.60453 0.49075 0.0
H1334 H 0.57673 0.62355 0.55869 0.0
H1335 H 0.52879 0.5725 0.55232 0.0
C1336 C 0.38779 0.48706 0.46929 0.0
C1337 C 0.37212 0.49144 0.49137 0.0
C1338 C 0.41796 0.49184 0.47256 0.0
C1339 C 0.43308 0.50128 0.49786 0.0
C1340 C 0.41882 0.50864 0.5191 0.0
C1341 C 0.38851 0.50365 0.51594 0.0
C1342 C 0.46216 0.50033 0.50297 0.0
C1343 C 0.48961 0.52813 0.50947 0.0
C1344 C 0.46287 0.47206 0.50098 0.0
C1345 C 0.43452 0.44177 0.49462 0.0
C1346 C 0.40753 0.43046 0.51085 0.0
C1347 C 0.38089 0.40202 0.50454 0.0
C1348 C 0.38111 0.38451 0.48224 0.0
C1349 C 0.40795 0.39531 0.46625 0.0
C1350 C 0.43459 0.42381 0.47238 0.0
C1351 C 0.59299 0.51289 0.54566 0.0
C1352 C 0.60607 0.50322 0.52497 0.0
C1353 C 0.56388 0.51061 0.54201 0.0
C1354 C 0.54731 0.49867 0.5176 0.0
C1355 C 0.55907 0.48663 0.49786 0.0
C1356 C 0.58821 0.4889 0.50149 0.0
C1357 C 0.51848 0.50006 0.51213 0.0
C1358 C 0.49102 0.47233 0.50557 0.0
C1359 C 0.51795 0.52849 0.51356 0.0
C1360 C 0.54685 0.55908 0.51774 0.0
C1361 C 0.5727 0.56858 0.50034 0.0
C1362 C 0.59979 0.59746 0.50419 0.0
C1363 C 0.60127 0.61723 0.52523 0.0
C1364 C 0.57559 0.60816 0.54245 0.0
C1365 C 0.54844 0.57925 0.53873 0.0
H1366 H 0.62226 0.63959 0.52815 0.0
H1367 H 0.36055 0.36257 0.47734 0.0
loop_
_geom_bond_atom_site_label_1
_geom_bond_atom_site_label_2
_geom_bond_distance
_geom_bond_site_symmetry_2
_ccdc_geom_bond_type
C0 O1 1.306 . S
C0 O3 1.160 . S
O1 C0 1.306 . S
O1 Cd2 2.228 . S
Cd2 O1 2.228 . S
Cd2 O6 2.273 . S
Cd2 O10 2.277 . S
O3 C0 1.160 . S
O3 Cd4 2.203 . S
Cd4 O3 2.203 . S
Cd4 O6 2.411 . S
Cd4 O7 2.333 . S
Cd4 O8 2.352 . S
Cd4 O12 2.277 . S
Cd4 O13 2.356 . S
C5 O10 1.209 . S
C5 O12 1.226 . S
O6 Cd2 2.273 . S
O6 Cd4 2.411 . S
O6 C9 1.320 . S
O7 Cd4 2.333 . S
O7 C9 1.214 . S
O8 Cd4 2.352 . S
O8 C11 1.258 . S
C9 O6 1.320 . S
C9 O7 1.214 . S
O10 Cd2 2.277 . S
O10 C5 1.209 . S
C11 O8 1.258 . S
C11 O13 1.282 . S
O12 Cd4 2.277 . S
O12 C5 1.226 . S
O13 Cd4 2.356 . S
O13 C11 1.282 . S
C14 O15 1.306 . S
C14 O17 1.160 . S
O15 C14 1.306 . S
O15 Cd16 2.228 . S
Cd16 O15 2.228 . S
Cd16 O20 2.273 . S
Cd16 O24 2.277 . S
O17 C14 1.160 . S
O17 Cd18 2.203 . S
Cd18 O17 2.203 . S
Cd18 O20 2.411 . S
Cd18 O21 2.333 . S
Cd18 O22 2.352 . S
Cd18 O26 2.277 . S
Cd18 O27 2.356 . S
C19 O24 1.209 . S
C19 O26 1.226 . S
O20 Cd16 2.273 . S
O20 Cd18 2.411 . S
O20 C23 1.320 . S
O21 Cd18 2.333 . S
O21 C23 1.214 . S
O22 Cd18 2.352 . S
O22 C25 1.258 . S
C23 O20 1.320 . S
C23 O21 1.214 . S
O24 Cd16 2.277 . S
O24 C19 1.209 . S
C25 O22 1.258 . S
C25 O27 1.282 . S
O26 Cd18 2.277 . S
O26 C19 1.226 . S
O27 Cd18 2.356 . S
O27 C25 1.282 . S
C28 O29 1.306 . S
C28 O31 1.160 . S
O29 C28 1.306 . S
O29 Cd30 2.228 . S
Cd30 O29 2.228 . S
Cd30 O34 2.273 . S
Cd30 O38 2.277 . S
O31 C28 1.160 . S
O31 Cd32 2.203 . S
Cd32 O31 2.203 . S
Cd32 O34 2.411 . S
Cd32 O35 2.333 . S
Cd32 O36 2.352 . S
Cd32 O40 2.277 . S
Cd32 O41 2.356 . S
C33 O38 1.209 . S
C33 O40 1.226 . S
O34 Cd30 2.273 . S
O34 Cd32 2.411 . S
O34 C37 1.320 . S
O35 Cd32 2.333 . S
O35 C37 1.214 . S
O36 Cd32 2.352 . S
O36 C39 1.258 . S
C37 O34 1.320 . S
C37 O35 1.214 . S
O38 Cd30 2.277 . S
O38 C33 1.209 . S
C39 O36 1.258 . S
C39 O41 1.282 . S
O40 Cd32 2.277 . S
O40 C33 1.226 . S
O41 Cd32 2.356 . S
O41 C39 1.282 . S
C42 O43 1.306 . S
C42 O45 1.160 . S
O43 C42 1.306 . S
O43 Cd44 2.228 . S
Cd44 O43 2.228 . S
Cd44 O48 2.273 . S
Cd44 O52 2.277 . S
O45 C42 1.160 . S
O45 Cd46 2.203 . S
Cd46 O45 2.203 . S
Cd46 O48 2.411 . S
Cd46 O49 2.333 . S
Cd46 O50 2.352 . S
Cd46 O54 2.277 . S
Cd46 O55 2.356 . S
C47 O52 1.209 . S
C47 O54 1.226 . S
O48 Cd44 2.273 . S
O48 Cd46 2.411 . S
O48 C51 1.320 . S
O49 Cd46 2.333 . S
O49 C51 1.214 . S
O50 Cd46 2.352 . S
O50 C53 1.258 . S
C51 O48 1.320 . S
C51 O49 1.214 . S
O52 Cd44 2.277 . S
O52 C47 1.209 . S
C53 O50 1.258 . S
C53 O55 1.282 . S
O54 Cd46 2.277 . S
O54 C47 1.226 . S
O55 Cd46 2.356 . S
O55 C53 1.282 . S
C56 O57 1.306 . S
C56 O59 1.160 . S
O57 C56 1.306 . S
O57 Cd58 2.228 . S
Cd58 O57 2.228 . S
Cd58 O62 2.273 . S
Cd58 O66 2.277 . S
O59 C56 1.160 . S
O59 Cd60 2.203 . S
Cd60 O59 2.203 . S
Cd60 O62 2.411 . S
Cd60 O63 2.333 . S
Cd60 O64 2.352 . S
Cd60 O68 2.277 . S
Cd60 O69 2.356 . S
C61 O66 1.209 . S
C61 O68 1.226 . S
O62 Cd58 2.273 . S
O62 Cd60 2.411 . S
O62 C65 1.320 . S
O63 Cd60 2.333 . S
O63 C65 1.214 . S
O64 Cd60 2.352 . S
O64 C67 1.258 . S
C65 O62 1.320 . S
C65 O63 1.214 . S
O66 Cd58 2.277 . S
O66 C61 1.209 . S
C67 O64 1.258 . S
C67 O69 1.282 . S
O68 Cd60 2.277 . S
O68 C61 1.226 . S
O69 Cd60 2.356 . S
O69 C67 1.282 . S
C70 O71 1.306 . S
C70 O73 1.160 . S
O71 C70 1.306 . S
O71 Cd72 2.228 . S
Cd72 O71 2.228 . S
Cd72 O76 2.273 . S
Cd72 O80 2.277 . S
O73 C70 1.160 . S
O73 Cd74 2.203 . S
Cd74 O73 2.203 . S
Cd74 O76 2.411 . S
Cd74 O77 2.333 . S
Cd74 O78 2.352 . S
Cd74 O82 2.277 . S
Cd74 O83 2.356 . S
C75 O80 1.209 . S
C75 O82 1.226 . S
O76 Cd72 2.273 . S
O76 Cd74 2.411 . S
O76 C79 1.320 . S
O77 Cd74 2.333 . S
O77 C79 1.214 . S
O78 Cd74 2.352 . S
O78 C81 1.258 . S
C79 O76 1.320 . S
C79 O77 1.214 . S
O80 Cd72 2.277 . S
O80 C75 1.209 . S
C81 O78 1.258 . S
C81 O83 1.282 . S
O82 Cd74 2.277 . S
O82 C75 1.226 . S
O83 Cd74 2.356 . S
O83 C81 1.282 . S
C84 O85 1.306 . S
C84 O87 1.160 . S
O85 C84 1.306 . S
O85 Cd86 2.228 . S
Cd86 O85 2.228 . S
Cd86 O90 2.273 . S
Cd86 O94 2.277 . S
O87 C84 1.160 . S
O87 Cd88 2.203 . S
Cd88 O87 2.203 . S
Cd88 O90 2.411 . S
Cd88 O91 2.333 . S
Cd88 O92 2.352 . S
Cd88 O96 2.277 . S
Cd88 O97 2.356 . S
C89 O94 1.209 . S
C89 O96 1.226 . S
O90 Cd86 2.273 . S
O90 Cd88 2.411 . S
O90 C93 1.320 . S
O91 Cd88 2.333 . S
O91 C93 1.214 . S
O92 Cd88 2.352 . S
O92 C95 1.258 . S
C93 O90 1.320 . S
C93 O91 1.214 . S
O94 Cd86 2.277 . S
O94 C89 1.209 . S
C95 O92 1.258 . S
C95 O97 1.282 . S
O96 Cd88 2.277 . S
O96 C89 1.226 . S
O97 Cd88 2.356 . S
O97 C95 1.282 . S
C98 O99 1.306 . S
C98 O101 1.160 . S
O99 C98 1.306 . S
O99 Cd100 2.228 . S
Cd100 O99 2.228 . S
Cd100 O104 2.273 . S
Cd100 O108 2.277 . S
O101 C98 1.160 . S
O101 Cd102 2.203 . S
Cd102 O101 2.203 . S
Cd102 O104 2.411 . S
Cd102 O105 2.333 . S
Cd102 O106 2.352 . S
Cd102 O110 2.277 . S
Cd102 O111 2.356 . S
C103 O108 1.209 . S
C103 O110 1.226 . S
O104 Cd100 2.273 . S
O104 Cd102 2.411 . S
O104 C107 1.320 . S
O105 Cd102 2.333 . S
O105 C107 1.214 . S
O106 Cd102 2.352 . S
O106 C109 1.258 . S
C107 O104 1.320 . S
C107 O105 1.214 . S
O108 Cd100 2.277 . S
O108 C103 1.209 . S
C109 O106 1.258 . S
C109 O111 1.282 . S
O110 Cd102 2.277 . S
O110 C103 1.226 . S
O111 Cd102 2.356 . S
O111 C109 1.282 . S
C112 O113 1.306 . S
C112 O115 1.160 . S
O113 C112 1.306 . S
O113 Cd114 2.228 . S
Cd114 O113 2.228 . S
Cd114 O118 2.273 . S
Cd114 O122 2.277 . S
O115 C112 1.160 . S
O115 Cd116 2.203 . S
Cd116 O115 2.203 . S
Cd116 O118 2.411 . S
Cd116 O119 2.333 . S
Cd116 O120 2.352 . S
Cd116 O124 2.277 . S
Cd116 O125 2.356 . S
C117 O122 1.209 . S
C117 O124 1.226 . S
O118 Cd114 2.273 . S
O118 Cd116 2.411 . S
O118 C121 1.320 . S
O119 Cd116 2.333 . S
O119 C121 1.214 . S
O120 Cd116 2.352 . S
O120 C123 1.258 . S
C121 O118 1.320 . S
C121 O119 1.214 . S
O122 Cd114 2.277 . S
O122 C117 1.209 . S
C123 O120 1.258 . S
C123 O125 1.282 . S
O124 Cd116 2.277 . S
O124 C117 1.226 . S
O125 Cd116 2.356 . S
O125 C123 1.282 . S
C126 O127 1.306 . S
C126 O129 1.160 . S
O127 C126 1.306 . S
O127 Cd128 2.228 . S
Cd128 O127 2.228 . S
Cd128 O132 2.273 . S
Cd128 O136 2.277 . S
O129 C126 1.160 . S
O129 Cd130 2.203 . S
Cd130 O129 2.203 . S
Cd130 O132 2.411 . S
Cd130 O133 2.333 . S
Cd130 O134 2.352 . S
Cd130 O138 2.277 . S
Cd130 O139 2.356 . S
C131 O136 1.209 . S
C131 O138 1.226 . S
O132 Cd128 2.273 . S
O132 Cd130 2.411 . S
O132 C135 1.320 . S
O133 Cd130 2.333 . S
O133 C135 1.214 . S
O134 Cd130 2.352 . S
O134 C137 1.258 . S
C135 O132 1.320 . S
C135 O133 1.214 . S
O136 Cd128 2.277 . S
O136 C131 1.209 . S
C137 O134 1.258 . S
C137 O139 1.282 . S
O138 Cd130 2.277 . S
O138 C131 1.226 . S
O139 Cd130 2.356 . S
O139 C137 1.282 . S
C140 O141 1.306 . S
C140 O143 1.160 . S
O141 C140 1.306 . S
O141 Cd142 2.228 . S
Cd142 O141 2.228 . S
Cd142 O146 2.273 . S
Cd142 O150 2.277 . S
O143 C140 1.160 . S
O143 Cd144 2.203 . S
Cd144 O143 2.203 . S
Cd144 O146 2.411 . S
Cd144 O147 2.333 . S
Cd144 O148 2.352 . S
Cd144 O152 2.277 . S
Cd144 O153 2.356 . S
C145 O150 1.209 . S
C145 O152 1.226 . S
O146 Cd142 2.273 . S
O146 Cd144 2.411 . S
O146 C149 1.320 . S
O147 Cd144 2.333 . S
O147 C149 1.214 . S
O148 Cd144 2.352 . S
O148 C151 1.258 . S
C149 O146 1.320 . S
C149 O147 1.214 . S
O150 Cd142 2.277 . S
O150 C145 1.209 . S
C151 O148 1.258 . S
C151 O153 1.282 . S
O152 Cd144 2.277 . S
O152 C145 1.226 . S
O153 Cd144 2.356 . S
O153 C151 1.282 . S
C154 O155 1.306 . S
C154 O157 1.160 . S
O155 C154 1.306 . S
O155 Cd156 2.228 . S
Cd156 O155 2.228 . S
Cd156 O160 2.273 . S
Cd156 O164 2.277 . S
O157 C154 1.160 . S
O157 Cd158 2.203 . S
Cd158 O157 2.203 . S
Cd158 O160 2.411 . S
Cd158 O161 2.333 . S
Cd158 O162 2.352 . S
Cd158 O166 2.277 . S
Cd158 O167 2.356 . S
C159 O164 1.209 . S
C159 O166 1.226 . S
O160 Cd156 2.273 . S
O160 Cd158 2.411 . S
O160 C163 1.320 . S
O161 Cd158 2.333 . S
O161 C163 1.214 . S
O162 Cd158 2.352 . S
O162 C165 1.258 . S
C163 O160 1.320 . S
C163 O161 1.214 . S
O164 Cd156 2.277 . S
O164 C159 1.209 . S
C165 O162 1.258 . S
C165 O167 1.282 . S
O166 Cd158 2.277 . S
O166 C159 1.226 . S
O167 Cd158 2.356 . S
O167 C165 1.282 . S
H168 C186 0.951 . S
H169 C188 0.951 . S
H170 C190 0.950 . S
H171 C191 0.950 . S
H172 C193 0.950 . S
H173 C196 0.950 . S
H174 C197 0.950 . S
H175 C199 0.950 . S
H176 C200 0.950 . S
H177 C201 0.951 . S
H178 C203 0.951 . S
H179 C205 0.950 . S
H180 C206 0.950 . S
H181 C208 0.950 . S
H182 C211 0.950 . S
H183 C212 0.950 . S
H184 C214 0.950 . S
H185 C215 0.950 1_556 S
C186 H168 0.951 . S
C186 C187 1.366 . S
C186 C188 1.388 . S
C187 C186 1.366 . S
C187 C191 1.385 . S
C188 H169 0.951 . S
C188 C186 1.388 . S
C188 C189 1.366 . S
C189 C188 1.366 . S
C189 C190 1.414 . S
C189 C192 1.499 . S
C190 H170 0.950 . S
C190 C189 1.414 . S
C190 C191 1.374 . S
C191 H171 0.950 . S
C191 C187 1.385 . S
C191 C190 1.374 . S
C192 C189 1.499 . S
C192 C193 1.373 . S
C192 C194 1.389 1_554 S
C193 H172 0.950 . S
C193 C192 1.373 . S
C193 C209 1.377 . S
C194 C192 1.389 1_556 S
C194 C195 1.524 . S
C194 C208 1.377 . S
C195 C194 1.524 . S
C195 C196 1.397 . S
C195 C200 1.363 . S
C196 H173 0.950 . S
C196 C195 1.397 . S
C196 C197 1.334 . S
C197 H174 0.950 . S
C197 C196 1.334 . S
C197 C198 1.287 . S
C198 C197 1.287 . S
C198 C199 1.524 . S
C198 H217 0.913 . S
C199 H175 0.950 . S
C199 C198 1.524 . S
C199 C200 1.415 . S
C200 H176 0.950 . S
C200 C195 1.363 . S
C200 C199 1.415 . S
C201 H177 0.951 . S
C201 C202 1.366 . S
C201 C203 1.388 . S
C202 C201 1.366 . S
C202 C206 1.385 . S
C203 H178 0.951 . S
C203 C201 1.388 . S
C203 C204 1.366 . S
C204 C203 1.366 . S
C204 C205 1.414 . S
C204 C207 1.499 . S
C205 H179 0.950 . S
C205 C204 1.414 . S
C205 C206 1.374 . S
C206 H180 0.950 . S
C206 C202 1.385 . S
C206 C205 1.374 . S
C207 C204 1.499 . S
C207 C208 1.373 . S
C207 C209 1.389 1_556 S
C208 H181 0.950 . S
C208 C194 1.377 . S
C208 C207 1.373 . S
C209 C193 1.377 . S
C209 C207 1.389 1_554 S
C209 C210 1.524 . S
C210 C209 1.524 . S
C210 C211 1.397 . S
C210 C215 1.363 . S
C211 H182 0.950 . S
C211 C210 1.397 . S
C211 C212 1.334 . S
C212 H183 0.950 . S
C212 C211 1.334 . S
C212 C213 1.287 . S
C213 C212 1.287 . S
C213 C214 1.524 . S
C213 H216 0.999 . S
C214 H184 0.950 . S
C214 C213 1.524 . S
C214 C215 1.415 . S
C215 H185 0.950 1_554 S
C215 C210 1.363 . S
C215 C214 1.415 . S
H216 C213 0.999 . S
H217 C198 0.913 . S
H218 C236 0.951 . S
H219 C238 0.951 . S
H220 C240 0.950 1_556 S
H221 C241 0.950 . S
H222 C243 0.950 . S
H223 C246 0.950 1_556 S
H224 C247 0.950 . S
H225 C249 0.950 . S
H226 C250 0.950 . S
H227 C251 0.951 . S
H228 C253 0.951 . S
H229 C255 0.950 1_554 S
H230 C256 0.950 . S
H231 C258 0.950 . S
H232 C261 0.950 . S
H233 C262 0.950 . S
H234 C264 0.950 . S
H235 C265 0.950 . S
C236 H218 0.951 . S
C236 C237 1.366 . S
C236 C238 1.388 . S
C237 C236 1.366 . S
C237 C241 1.385 . S
C238 H219 0.951 . S
C238 C236 1.388 . S
C238 C239 1.366 . S
C239 C238 1.366 . S
C239 C240 1.414 . S
C239 C242 1.499 . S
C240 H220 0.950 1_554 S
C240 C239 1.414 . S
C240 C241 1.374 . S
C241 H221 0.950 . S
C241 C237 1.385 . S
C241 C240 1.374 . S
C242 C239 1.499 . S
C242 C243 1.373 1_554 S
C242 C244 1.389 . S
C243 H222 0.950 . S
C243 C242 1.373 1_556 S
C243 C259 1.377 . S
C244 C242 1.389 . S
C244 C245 1.524 . S
C244 C258 1.377 . S
C245 C244 1.524 . S
C245 C246 1.397 . S
C245 C250 1.363 . S
C246 H223 0.950 1_554 S
C246 C245 1.397 . S
C246 C247 1.334 . S
C247 H224 0.950 . S
C247 C246 1.334 . S
C247 C248 1.287 . S
C248 C247 1.287 . S
C248 C249 1.524 . S
C248 H267 0.913 . S
C249 H225 0.950 . S
C249 C248 1.524 . S
C249 C250 1.415 . S
C250 H226 0.950 . S
C250 C245 1.363 . S
C250 C249 1.415 . S
C251 H227 0.951 . S
C251 C252 1.366 1_565 S
C251 C253 1.388 . S
C252 C251 1.366 1_545 S
C252 C256 1.385 . S
C253 H228 0.951 . S
C253 C251 1.388 . S
C253 C254 1.366 . S
C254 C253 1.366 . S
C254 C255 1.414 . S
C254 C257 1.499 . S
C255 H229 0.950 1_556 S
C255 C254 1.414 . S
C255 C256 1.374 1_565 S
C256 H230 0.950 . S
C256 C252 1.385 . S
C256 C255 1.374 1_545 S
C257 C254 1.499 . S
C257 C258 1.373 1_556 S
C257 C259 1.389 . S
C258 H231 0.950 . S
C258 C244 1.377 . S
C258 C257 1.373 1_554 S
C259 C243 1.377 . S
C259 C257 1.389 . S
C259 C260 1.524 . S
C260 C259 1.524 . S
C260 C261 1.397 . S
C260 C265 1.363 . S
C261 H232 0.950 . S
C261 C260 1.397 . S
C261 C262 1.334 . S
C262 H233 0.950 . S
C262 C261 1.334 . S
C262 C263 1.287 . S
C263 C262 1.287 . S
C263 C264 1.524 . S
C263 H266 0.999 . S
C264 H234 0.950 . S
C264 C263 1.524 . S
C264 C265 1.415 . S
C265 H235 0.950 . S
C265 C260 1.363 . S
C265 C264 1.415 . S
H266 C263 0.999 . S
H267 C248 0.913 . S
H268 C286 0.951 . S
H269 C288 0.951 . S
H270 C290 0.950 . S
H271 C291 0.950 . S
H272 C293 0.950 . S
H273 C296 0.950 . S
H274 C297 0.950 . S
H275 C299 0.950 . S
H276 C300 0.950 . S
H277 C301 0.951 . S
H278 C303 0.951 . S
H279 C305 0.950 . S
H280 C306 0.950 . S
H281 C308 0.950 . S
H282 C311 0.950 . S
H283 C312 0.950 1_655 S
H284 C314 0.950 . S
H285 C315 0.950 . S
C286 H268 0.951 . S
C286 C287 1.366 . S
C286 C288 1.388 . S
C287 C286 1.366 . S
C287 C291 1.385 . S
C288 H269 0.951 . S
C288 C286 1.388 . S
C288 C289 1.366 . S
C289 C288 1.366 . S
C289 C290 1.414 . S
C289 C292 1.499 . S
C290 H270 0.950 . S
C290 C289 1.414 . S
C290 C291 1.374 . S
C291 H271 0.950 . S
C291 C287 1.385 . S
C291 C290 1.374 . S
C292 C289 1.499 . S
C292 C293 1.373 . S
C292 C294 1.389 1_554 S
C293 H272 0.950 . S
C293 C292 1.373 . S
C293 C309 1.377 . S
C294 C292 1.389 1_556 S
C294 C295 1.524 . S
C294 C308 1.377 . S
C295 C294 1.524 . S
C295 C296 1.397 . S
C295 C300 1.363 . S
C296 H273 0.950 . S
C296 C295 1.397 . S
C296 C297 1.334 . S
C297 H274 0.950 . S
C297 C296 1.334 . S
C297 C298 1.287 . S
C298 C297 1.287 . S
C298 C299 1.524 . S
C298 H317 0.913 . S
C299 H275 0.950 . S
C299 C298 1.524 . S
C299 C300 1.415 . S
C300 H276 0.950 . S
C300 C295 1.363 . S
C300 C299 1.415 . S
C301 H277 0.951 . S
C301 C302 1.366 . S
C301 C303 1.388 1_655 S
C302 C301 1.366 . S
C302 C306 1.385 1_655 S
C303 H278 0.951 . S
C303 C301 1.388 1_455 S
C303 C304 1.366 . S
C304 C303 1.366 . S
C304 C305 1.414 . S
C304 C307 1.499 . S
C305 H279 0.950 . S
C305 C304 1.414 . S
C305 C306 1.374 . S
C306 H280 0.950 . S
C306 C302 1.385 1_455 S
C306 C305 1.374 . S
C307 C304 1.499 . S
C307 C308 1.373 . S
C307 C309 1.389 1_556 S
C308 H281 0.950 . S
C308 C294 1.377 . S
C308 C307 1.373 . S
C309 C293 1.377 . S
C309 C307 1.389 1_554 S
C309 C310 1.524 . S
C310 C309 1.524 . S
C310 C311 1.397 . S
C310 C315 1.363 . S
C311 H282 0.950 . S
C311 C310 1.397 . S
C311 C312 1.334 . S
C312 H283 0.950 1_455 S
C312 C311 1.334 . S
C312 C313 1.287 . S
C313 C312 1.287 . S
C313 C314 1.524 . S
C313 H316 0.999 1_455 S
C314 H284 0.950 . S
C314 C313 1.524 . S
C314 C315 1.415 . S
C315 H285 0.950 . S
C315 C310 1.363 . S
C315 C314 1.415 . S
H316 C313 0.999 1_655 S
H317 C298 0.913 . S
H318 C336 0.951 . S
H319 C338 0.951 . S
H320 C340 0.950 . S
H321 C341 0.950 . S
H322 C343 0.950 . S
H323 C346 0.950 . S
H324 C347 0.950 . S
H325 C349 0.950 . S
H326 C350 0.950 . S
H327 C351 0.951 . S
H328 C353 0.951 . S
H329 C355 0.950 . S
H330 C356 0.950 . S
H331 C358 0.950 . S
H332 C361 0.950 . S
H333 C362 0.950 . S
H334 C364 0.950 . S
H335 C365 0.950 . S
C336 H318 0.951 . S
C336 C337 1.366 . S
C336 C338 1.388 . S
C337 C336 1.366 . S
C337 C341 1.385 . S
C338 H319 0.951 . S
C338 C336 1.388 . S
C338 C339 1.366 . S
C339 C338 1.366 . S
C339 C340 1.414 . S
C339 C342 1.499 . S
C340 H320 0.950 . S
C340 C339 1.414 . S
C340 C341 1.374 . S
C341 H321 0.950 . S
C341 C337 1.385 . S
C341 C340 1.374 . S
C342 C339 1.499 . S
C342 C343 1.373 . S
C342 C344 1.389 . S
C343 H322 0.950 . S
C343 C342 1.373 . S
C343 C359 1.377 . S
C344 C342 1.389 . S
C344 C345 1.524 . S
C344 C358 1.377 . S
C345 C344 1.524 . S
C345 C346 1.397 . S
C345 C350 1.363 . S
C346 H323 0.950 . S
C346 C345 1.397 . S
C346 C347 1.334 . S
C347 H324 0.950 . S
C347 C346 1.334 . S
C347 C348 1.287 . S
C348 C347 1.287 . S
C348 C349 1.524 . S
C348 H367 0.913 . S
C349 H325 0.950 . S
C349 C348 1.524 . S
C349 C350 1.415 . S
C350 H326 0.950 . S
C350 C345 1.363 . S
C350 C349 1.415 . S
C351 H327 0.951 . S
C351 C352 1.366 . S
C351 C353 1.388 . S
C352 C351 1.366 . S
C352 C356 1.385 . S
C353 H328 0.951 . S
C353 C351 1.388 . S
C353 C354 1.366 . S
C354 C353 1.366 . S
C354 C355 1.414 . S
C354 C357 1.499 . S
C355 H329 0.950 . S
C355 C354 1.414 . S
C355 C356 1.374 . S
C356 H330 0.950 . S
C356 C352 1.385 . S
C356 C355 1.374 . S
C357 C354 1.499 . S
C357 C358 1.373 . S
C357 C359 1.389 . S
C358 H331 0.950 . S
C358 C344 1.377 . S
C358 C357 1.373 . S
C359 C343 1.377 . S
C359 C357 1.389 . S
C359 C360 1.524 . S
C360 C359 1.524 . S
C360 C361 1.397 . S
C360 C365 1.363 . S
C361 H332 0.950 . S
C361 C360 1.397 . S
C361 C362 1.334 . S
C362 H333 0.950 . S
C362 C361 1.334 . S
C362 C363 1.287 . S
C363 C362 1.287 . S
C363 C364 1.524 . S
C363 H366 0.999 . S
C364 H334 0.950 . S
C364 C363 1.524 . S
C364 C365 1.415 . S
C365 H335 0.950 . S
C365 C360 1.363 . S
C365 C364 1.415 . S
H366 C363 0.999 . S
H367 C348 0.913 . S
H368 C386 0.951 . S
H369 C388 0.951 . S
H370 C390 0.950 . S
H371 C391 0.950 . S
H372 C393 0.950 . S
H373 C396 0.950 . S
H374 C397 0.950 . S
H375 C399 0.950 . S
H376 C400 0.950 . S
H377 C401 0.951 . S
H378 C403 0.951 . S
H379 C405 0.950 . S
H380 C406 0.950 . S
H381 C408 0.950 . S
H382 C411 0.950 . S
H383 C412 0.950 . S
H384 C414 0.950 . S
H385 C415 0.950 . S
C386 H368 0.951 . S
C386 C387 1.366 . S
C386 C388 1.388 . S
C387 C386 1.366 . S
C387 C391 1.385 . S
C388 H369 0.951 . S
C388 C386 1.388 . S
C388 C389 1.366 . S
C389 C388 1.366 . S
C389 C390 1.414 . S
C389 C392 1.499 . S
C390 H370 0.950 . S
C390 C389 1.414 . S
C390 C391 1.374 . S
C391 H371 0.950 . S
C391 C387 1.385 . S
C391 C390 1.374 . S
C392 C389 1.499 . S
C392 C393 1.373 . S
C392 C394 1.389 . S
C393 H372 0.950 . S
C393 C392 1.373 . S
C393 C409 1.377 . S
C394 C392 1.389 . S
C394 C395 1.524 . S
C394 C408 1.377 . S
C395 C394 1.524 . S
C395 C396 1.397 . S
C395 C400 1.363 . S
C396 H373 0.950 . S
C396 C395 1.397 . S
C396 C397 1.334 . S
C397 H374 0.950 . S
C397 C396 1.334 . S
C397 C398 1.287 . S
C398 C397 1.287 . S
C398 C399 1.524 . S
C398 H417 0.913 . S
C399 H375 0.950 . S
C399 C398 1.524 . S
C399 C400 1.415 . S
C400 H376 0.950 . S
C400 C395 1.363 . S
C400 C399 1.415 . S
C401 H377 0.951 . S
C401 C402 1.366 1_565 S
C401 C403 1.388 . S
C402 C401 1.366 1_545 S
C402 C406 1.385 . S
C403 H378 0.951 . S
C403 C401 1.388 . S
C403 C404 1.366 . S
C404 C403 1.366 . S
C404 C405 1.414 . S
C404 C407 1.499 . S
C405 H379 0.950 . S
C405 C404 1.414 . S
C405 C406 1.374 1_565 S
C406 H380 0.950 . S
C406 C402 1.385 . S
C406 C405 1.374 1_545 S
C407 C404 1.499 . S
C407 C408 1.373 . S
C407 C409 1.389 . S
C408 H381 0.950 . S
C408 C394 1.377 . S
C408 C407 1.373 . S
C409 C393 1.377 . S
C409 C407 1.389 . S
C409 C410 1.524 . S
C410 C409 1.524 . S
C410 C411 1.397 . S
C410 C415 1.363 . S
C411 H382 0.950 . S
C411 C410 1.397 . S
C411 C412 1.334 . S
C412 H383 0.950 . S
C412 C411 1.334 . S
C412 C413 1.287 . S
C413 C412 1.287 . S
C413 C414 1.524 . S
C413 H416 0.999 . S
C414 H384 0.950 . S
C414 C413 1.524 . S
C414 C415 1.415 . S
C415 H385 0.950 . S
C415 C410 1.363 . S
C415 C414 1.415 . S
H416 C413 0.999 . S
H417 C398 0.913 . S
H418 C436 0.951 . S
H419 C438 0.951 . S
H420 C440 0.950 . S
H421 C441 0.950 . S
H422 C443 0.950 . S
H423 C446 0.950 . S
H424 C447 0.950 . S
H425 C449 0.950 . S
H426 C450 0.950 . S
H427 C451 0.951 . S
H428 C453 0.951 . S
H429 C455 0.950 . S
H430 C456 0.950 . S
H431 C458 0.950 . S
H432 C461 0.950 . S
H433 C462 0.950 . S
H434 C464 0.950 . S
H435 C465 0.950 . S
C436 H418 0.951 . S
C436 C437 1.366 . S
C436 C438 1.388 1_655 S
C437 C436 1.366 . S
C437 C441 1.385 1_655 S
C438 H419 0.951 . S
C438 C436 1.388 1_455 S
C438 C439 1.366 . S
C439 C438 1.366 . S
C439 C440 1.414 . S
C439 C442 1.499 . S
C440 H420 0.950 . S
C440 C439 1.414 . S
C440 C441 1.374 . S
C441 H421 0.950 . S
C441 C437 1.385 1_455 S
C441 C440 1.374 . S
C442 C439 1.499 . S
C442 C443 1.373 . S
C442 C444 1.389 . S
C443 H422 0.950 . S
C443 C442 1.373 . S
C443 C459 1.377 . S
C444 C442 1.389 . S
C444 C445 1.524 . S
C444 C458 1.377 . S
C445 C444 1.524 . S
C445 C446 1.397 . S
C445 C450 1.363 . S
C446 H423 0.950 . S
C446 C445 1.397 . S
C446 C447 1.334 . S
C447 H424 0.950 . S
C447 C446 1.334 . S
C447 C448 1.287 . S
C448 C447 1.287 . S
C448 C449 1.524 . S
C448 H467 0.913 . S
C449 H425 0.950 . S
C449 C448 1.524 . S
C449 C450 1.415 . S
C450 H426 0.950 . S
C450 C445 1.363 . S
C450 C449 1.415 . S
C451 H427 0.951 . S
C451 C452 1.366 . S
C451 C453 1.388 . S
C452 C451 1.366 . S
C452 C456 1.385 . S
C453 H428 0.951 . S
C453 C451 1.388 . S
C453 C454 1.366 . S
C454 C453 1.366 . S
C454 C455 1.414 . S
C454 C457 1.499 . S
C455 H429 0.950 . S
C455 C454 1.414 . S
C455 C456 1.374 . S
C456 H430 0.950 . S
C456 C452 1.385 . S
C456 C455 1.374 . S
C457 C454 1.499 . S
C457 C458 1.373 . S
C457 C459 1.389 . S
C458 H431 0.950 . S
C458 C444 1.377 . S
C458 C457 1.373 . S
C459 C443 1.377 . S
C459 C457 1.389 . S
C459 C460 1.524 . S
C460 C459 1.524 . S
C460 C461 1.397 . S
C460 C465 1.363 . S
C461 H432 0.950 . S
C461 C460 1.397 . S
C461 C462 1.334 . S
C462 H433 0.950 . S
C462 C461 1.334 . S
C462 C463 1.287 . S
C463 C462 1.287 . S
C463 C464 1.524 . S
C463 H466 0.999 . S
C464 H434 0.950 . S
C464 C463 1.524 . S
C464 C465 1.415 . S
C465 H435 0.950 . S
C465 C460 1.363 . S
C465 C464 1.415 . S
H466 C463 0.999 . S
H467 C448 0.913 . S
H468 C486 0.951 . S
H469 C488 0.951 . S
H470 C490 0.950 . S
H471 C491 0.950 . S
H472 C493 0.950 . S
H473 C496 0.950 . S
H474 C497 0.950 . S
H475 C499 0.950 . S
H476 C500 0.950 . S
H477 C501 0.951 . S
H478 C503 0.951 . S
H479 C505 0.950 . S
H480 C506 0.950 . S
H481 C508 0.950 . S
H482 C511 0.950 . S
H483 C512 0.950 . S
H484 C514 0.950 . S
H485 C515 0.950 . S
C486 H468 0.951 . S
C486 C487 1.366 . S
C486 C488 1.388 . S
C487 C486 1.366 . S
C487 C491 1.385 . S
C488 H469 0.951 . S
C488 C486 1.388 . S
C488 C489 1.366 . S
C489 C488 1.366 . S
C489 C490 1.414 . S
C489 C492 1.499 . S
C490 H470 0.950 . S
C490 C489 1.414 . S
C490 C491 1.374 . S
C491 H471 0.950 . S
C491 C487 1.385 . S
C491 C490 1.374 . S
C492 C489 1.499 . S
C492 C493 1.373 1_554 S
C492 C494 1.389 . S
C493 H472 0.950 . S
C493 C492 1.373 1_556 S
C493 C509 1.377 . S
C494 C492 1.389 . S
C494 C495 1.524 . S
C494 C508 1.377 . S
C495 C494 1.524 . S
C495 C496 1.397 . S
C495 C500 1.363 . S
C496 H473 0.950 . S
C496 C495 1.397 . S
C496 C497 1.334 . S
C497 H474 0.950 . S
C497 C496 1.334 . S
C497 C498 1.287 . S
C498 C497 1.287 . S
C498 C499 1.524 . S
C498 H517 0.913 . S
C499 H475 0.950 . S
C499 C498 1.524 . S
C499 C500 1.415 . S
C500 H476 0.950 . S
C500 C495 1.363 . S
C500 C499 1.415 . S
C501 H477 0.951 . S
C501 C502 1.366 . S
C501 C503 1.388 . S
C502 C501 1.366 . S
C502 C506 1.385 . S
C503 H478 0.951 . S
C503 C501 1.388 . S
C503 C504 1.366 . S
C504 C503 1.366 . S
C504 C505 1.414 . S
C504 C507 1.499 . S
C505 H479 0.950 . S
C505 C504 1.414 . S
C505 C506 1.374 . S
C506 H480 0.950 . S
C506 C502 1.385 . S
C506 C505 1.374 . S
C507 C504 1.499 . S
C507 C508 1.373 1_556 S
C507 C509 1.389 . S
C508 H481 0.950 . S
C508 C494 1.377 . S
C508 C507 1.373 1_554 S
C509 C493 1.377 . S
C509 C507 1.389 . S
C509 C510 1.524 . S
C510 C509 1.524 . S
C510 C511 1.397 . S
C510 C515 1.363 . S
C511 H482 0.950 . S
C511 C510 1.397 . S
C511 C512 1.334 . S
C512 H483 0.950 . S
C512 C511 1.334 . S
C512 C513 1.287 . S
C513 C512 1.287 . S
C513 C514 1.524 . S
C513 H516 0.999 . S
C514 H484 0.950 . S
C514 C513 1.524 . S
C514 C515 1.415 . S
C515 H485 0.950 . S
C515 C510 1.363 . S
C515 C514 1.415 . S
H516 C513 0.999 . S
H517 C498 0.913 . S
H518 C536 0.951 . S
H519 C538 0.951 . S
H520 C540 0.950 1_554 S
H521 C541 0.950 . S
H522 C543 0.950 . S
H523 C546 0.950 . S
H524 C547 0.950 . S
H525 C549 0.950 . S
H526 C550 0.950 . S
H527 C551 0.951 . S
H528 C553 0.951 . S
H529 C555 0.950 1_556 S
H530 C556 0.950 . S
H531 C558 0.950 . S
H532 C561 0.950 . S
H533 C562 0.950 . S
H534 C564 0.950 . S
H535 C565 0.950 . S
C536 H518 0.951 . S
C536 C537 1.366 . S
C536 C538 1.388 . S
C537 C536 1.366 . S
C537 C541 1.385 . S
C538 H519 0.951 . S
C538 C536 1.388 . S
C538 C539 1.366 . S
C539 C538 1.366 . S
C539 C540 1.414 . S
C539 C542 1.499 . S
C540 H520 0.950 1_556 S
C540 C539 1.414 . S
C540 C541 1.374 . S
C541 H521 0.950 . S
C541 C537 1.385 . S
C541 C540 1.374 . S
C542 C539 1.499 . S
C542 C543 1.373 1_556 S
C542 C544 1.389 . S
C543 H522 0.950 . S
C543 C542 1.373 1_554 S
C543 C559 1.377 . S
C544 C542 1.389 . S
C544 C545 1.524 . S
C544 C558 1.377 . S
C545 C544 1.524 . S
C545 C546 1.397 . S
C545 C550 1.363 . S
C546 H523 0.950 . S
C546 C545 1.397 . S
C546 C547 1.334 . S
C547 H524 0.950 . S
C547 C546 1.334 . S
C547 C548 1.287 . S
C548 C547 1.287 . S
C548 C549 1.524 . S
C548 H567 0.913 . S
C549 H525 0.950 . S
C549 C548 1.524 . S
C549 C550 1.415 . S
C550 H526 0.950 . S
C550 C545 1.363 . S
C550 C549 1.415 . S
C551 H527 0.951 . S
C551 C552 1.366 1_545 S
C551 C553 1.388 . S
C552 C551 1.366 1_565 S
C552 C556 1.385 . S
C553 H528 0.951 . S
C553 C551 1.388 . S
C553 C554 1.366 . S
C554 C553 1.366 . S
C554 C555 1.414 . S
C554 C557 1.499 . S
C555 H529 0.950 1_554 S
C555 C554 1.414 . S
C555 C556 1.374 1_545 S
C556 H530 0.950 . S
C556 C552 1.385 . S
C556 C555 1.374 1_565 S
C557 C554 1.499 . S
C557 C558 1.373 1_554 S
C557 C559 1.389 . S
C558 H531 0.950 . S
C558 C544 1.377 . S
C558 C557 1.373 1_556 S
C559 C543 1.377 . S
C559 C557 1.389 . S
C559 C560 1.524 . S
C560 C559 1.524 . S
C560 C561 1.397 . S
C560 C565 1.363 . S
C561 H532 0.950 . S
C561 C560 1.397 . S
C561 C562 1.334 . S
C562 H533 0.950 . S
C562 C561 1.334 . S
C562 C563 1.287 . S
C563 C562 1.287 . S
C563 C564 1.524 . S
C563 H566 0.999 . S
C564 H534 0.950 . S
C564 C563 1.524 . S
C564 C565 1.415 . S
C565 H535 0.950 . S
C565 C560 1.363 . S
C565 C564 1.415 . S
H566 C563 0.999 . S
H567 C548 0.913 . S
H568 C586 0.951 . S
H569 C588 0.951 . S
H570 C590 0.950 . S
H571 C591 0.950 . S
H572 C593 0.950 . S
H573 C596 0.950 . S
H574 C597 0.950 . S
H575 C599 0.950 . S
H576 C600 0.950 . S
H577 C601 0.951 . S
H578 C603 0.951 . S
H579 C605 0.950 . S
H580 C606 0.950 . S
H581 C608 0.950 . S
H582 C611 0.950 . S
H583 C612 0.950 . S
H584 C614 0.950 . S
H585 C615 0.950 . S
C586 H568 0.951 . S
C586 C587 1.366 1_655 S
C586 C588 1.388 . S
C587 C586 1.366 1_455 S
C587 C591 1.385 . S
C588 H569 0.951 . S
C588 C586 1.388 . S
C588 C589 1.366 . S
C589 C588 1.366 . S
C589 C590 1.414 . S
C589 C592 1.499 . S
C590 H570 0.950 . S
C590 C589 1.414 . S
C590 C591 1.374 1_655 S
C591 H571 0.950 . S
C591 C587 1.385 . S
C591 C590 1.374 1_455 S
C592 C589 1.499 . S
C592 C593 1.373 1_554 S
C592 C594 1.389 . S
C593 H572 0.950 . S
C593 C592 1.373 1_556 S
C593 C609 1.377 . S
C594 C592 1.389 . S
C594 C595 1.524 . S
C594 C608 1.377 . S
C595 C594 1.524 . S
C595 C596 1.397 . S
C595 C600 1.363 . S
C596 H573 0.950 . S
C596 C595 1.397 . S
C596 C597 1.334 . S
C597 H574 0.950 . S
C597 C596 1.334 . S
C597 C598 1.287 . S
C598 C597 1.287 . S
C598 C599 1.524 . S
C598 H617 0.913 . S
C599 H575 0.950 . S
C599 C598 1.524 . S
C599 C600 1.415 . S
C600 H576 0.950 . S
C600 C595 1.363 . S
C600 C599 1.415 . S
C601 H577 0.951 . S
C601 C602 1.366 . S
C601 C603 1.388 . S
C602 C601 1.366 . S
C602 C606 1.385 . S
C603 H578 0.951 . S
C603 C601 1.388 . S
C603 C604 1.366 . S
C604 C603 1.366 . S
C604 C605 1.414 . S
C604 C607 1.499 . S
C605 H579 0.950 . S
C605 C604 1.414 . S
C605 C606 1.374 . S
C606 H580 0.950 . S
C606 C602 1.385 . S
C606 C605 1.374 . S
C607 C604 1.499 . S
C607 C608 1.373 1_556 S
C607 C609 1.389 . S
C608 H581 0.950 . S
C608 C594 1.377 . S
C608 C607 1.373 1_554 S
C609 C593 1.377 . S
C609 C607 1.389 . S
C609 C610 1.524 . S
C610 C609 1.524 . S
C610 C611 1.397 . S
C610 C615 1.363 . S
C611 H582 0.950 . S
C611 C610 1.397 . S
C611 C612 1.334 . S
C612 H583 0.950 . S
C612 C611 1.334 . S
C612 C613 1.287 . S
C613 C612 1.287 . S
C613 C614 1.524 . S
C613 H616 0.999 . S
C614 H584 0.950 . S
C614 C613 1.524 . S
C614 C615 1.415 . S
C615 H585 0.950 . S
C615 C610 1.363 . S
C615 C614 1.415 . S
H616 C613 0.999 . S
H617 C598 0.913 . S
H618 C636 0.951 . S
H619 C638 0.951 . S
H620 C640 0.950 . S
H621 C641 0.950 . S
H622 C643 0.950 . S
H623 C646 0.950 . S
H624 C647 0.950 . S
H625 C649 0.950 . S
H626 C650 0.950 . S
H627 C651 0.951 . S
H628 C653 0.951 . S
H629 C655 0.950 . S
H630 C656 0.950 . S
H631 C658 0.950 . S
H632 C661 0.950 . S
H633 C662 0.950 . S
H634 C664 0.950 . S
H635 C665 0.950 . S
C636 H618 0.951 . S
C636 C637 1.366 . S
C636 C638 1.388 . S
C637 C636 1.366 . S
C637 C641 1.385 . S
C638 H619 0.951 . S
C638 C636 1.388 . S
C638 C639 1.366 . S
C639 C638 1.366 . S
C639 C640 1.414 . S
C639 C642 1.499 . S
C640 H620 0.950 . S
C640 C639 1.414 . S
C640 C641 1.374 . S
C641 H621 0.950 . S
C641 C637 1.385 . S
C641 C640 1.374 . S
C642 C639 1.499 . S
C642 C643 1.373 . S
C642 C644 1.389 . S
C643 H622 0.950 . S
C643 C642 1.373 . S
C643 C659 1.377 . S
C644 C642 1.389 . S
C644 C645 1.524 . S
C644 C658 1.377 . S
C645 C644 1.524 . S
C645 C646 1.397 . S
C645 C650 1.363 . S
C646 H623 0.950 . S
C646 C645 1.397 . S
C646 C647 1.334 . S
C647 H624 0.950 . S
C647 C646 1.334 . S
C647 C648 1.287 . S
C648 C647 1.287 . S
C648 C649 1.524 . S
C648 H667 0.913 . S
C649 H625 0.950 . S
C649 C648 1.524 . S
C649 C650 1.415 . S
C650 H626 0.950 . S
C650 C645 1.363 . S
C650 C649 1.415 . S
C651 H627 0.951 . S
C651 C652 1.366 . S
C651 C653 1.388 . S
C652 C651 1.366 . S
C652 C656 1.385 . S
C653 H628 0.951 . S
C653 C651 1.388 . S
C653 C654 1.366 . S
C654 C653 1.366 . S
C654 C655 1.414 . S
C654 C657 1.499 . S
C655 H629 0.950 . S
C655 C654 1.414 . S
C655 C656 1.374 . S
C656 H630 0.950 . S
C656 C652 1.385 . S
C656 C655 1.374 . S
C657 C654 1.499 . S
C657 C658 1.373 . S
C657 C659 1.389 . S
C658 H631 0.950 . S
C658 C644 1.377 . S
C658 C657 1.373 . S
C659 C643 1.377 . S
C659 C657 1.389 . S
C659 C660 1.524 . S
C660 C659 1.524 . S
C660 C661 1.397 . S
C660 C665 1.363 . S
C661 H632 0.950 . S
C661 C660 1.397 . S
C661 C662 1.334 . S
C662 H633 0.950 . S
C662 C661 1.334 . S
C662 C663 1.287 . S
C663 C662 1.287 . S
C663 C664 1.524 . S
C663 H666 0.999 . S
C664 H634 0.950 . S
C664 C663 1.524 . S
C664 C665 1.415 . S
C665 H635 0.950 . S
C665 C660 1.363 . S
C665 C664 1.415 . S
H666 C663 0.999 . S
H667 C648 0.913 . S
H668 C686 0.951 . S
H669 C688 0.951 . S
H670 C690 0.950 . S
H671 C691 0.950 . S
H672 C693 0.950 . S
H673 C696 0.950 . S
H674 C697 0.950 . S
H675 C699 0.950 . S
H676 C700 0.950 . S
H677 C701 0.951 . S
H678 C703 0.951 . S
H679 C705 0.950 . S
H680 C706 0.950 . S
H681 C708 0.950 . S
H682 C711 0.950 . S
H683 C712 0.950 . S
H684 C714 0.950 . S
H685 C715 0.950 . S
C686 H668 0.951 . S
C686 C687 1.366 . S
C686 C688 1.388 . S
C687 C686 1.366 . S
C687 C691 1.385 . S
C688 H669 0.951 . S
C688 C686 1.388 . S
C688 C689 1.366 . S
C689 C688 1.366 . S
C689 C690 1.414 . S
C689 C692 1.499 . S
C690 H670 0.950 . S
C690 C689 1.414 . S
C690 C691 1.374 . S
C691 H671 0.950 . S
C691 C687 1.385 . S
C691 C690 1.374 . S
C692 C689 1.499 . S
C692 C693 1.373 . S
C692 C694 1.389 . S
C693 H672 0.950 . S
C693 C692 1.373 . S
C693 C709 1.377 . S
C694 C692 1.389 . S
C694 C695 1.524 . S
C694 C708 1.377 . S
C695 C694 1.524 . S
C695 C696 1.397 . S
C695 C700 1.363 . S
C696 H673 0.950 . S
C696 C695 1.397 . S
C696 C697 1.334 . S
C697 H674 0.950 . S
C697 C696 1.334 . S
C697 C698 1.287 . S
C698 C697 1.287 . S
C698 C699 1.524 . S
C698 H717 0.913 . S
C699 H675 0.950 . S
C699 C698 1.524 . S
C699 C700 1.415 . S
C700 H676 0.950 . S
C700 C695 1.363 . S
C700 C699 1.415 . S
C701 H677 0.951 . S
C701 C702 1.366 1_545 S
C701 C703 1.388 . S
C702 C701 1.366 1_565 S
C702 C706 1.385 . S
C703 H678 0.951 . S
C703 C701 1.388 . S
C703 C704 1.366 . S
C704 C703 1.366 . S
C704 C705 1.414 . S
C704 C707 1.499 . S
C705 H679 0.950 . S
C705 C704 1.414 . S
C705 C706 1.374 1_545 S
C706 H680 0.950 . S
C706 C702 1.385 . S
C706 C705 1.374 1_565 S
C707 C704 1.499 . S
C707 C708 1.373 . S
C707 C709 1.389 . S
C708 H681 0.950 . S
C708 C694 1.377 . S
C708 C707 1.373 . S
C709 C693 1.377 . S
C709 C707 1.389 . S
C709 C710 1.524 . S
C710 C709 1.524 . S
C710 C711 1.397 . S
C710 C715 1.363 . S
C711 H682 0.950 . S
C711 C710 1.397 . S
C711 C712 1.334 . S
C712 H683 0.950 . S
C712 C711 1.334 . S
C712 C713 1.287 . S
C713 C712 1.287 . S
C713 C714 1.524 . S
C713 H716 0.999 . S
C714 H684 0.950 . S
C714 C713 1.524 . S
C714 C715 1.415 . S
C715 H685 0.950 . S
C715 C710 1.363 . S
C715 C714 1.415 . S
H716 C713 0.999 . S
H717 C698 0.913 . S
H718 C736 0.951 1_455 S
H719 C738 0.951 . S
H720 C740 0.950 . S
H721 C741 0.929 1_455 S
H722 C743 0.950 . S
H723 C746 0.950 . S
H724 C747 0.950 1_455 S
H725 C749 0.950 . S
H726 C750 0.950 . S
H727 C751 0.951 . S
H728 C753 0.951 . S
H729 C755 0.950 . S
H730 C756 0.950 . S
H731 C758 0.950 . S
H732 C761 0.950 . S
H733 C762 0.950 . S
H734 C764 0.950 . S
H735 C765 0.950 . S
C736 H718 0.951 1_655 S
C736 C737 1.366 1_655 S
C736 C738 1.388 . S
C737 C736 1.366 1_455 S
C737 C741 1.383 1_455 S
C738 H719 0.951 . S
C738 C736 1.388 . S
C738 C739 1.366 . S
C739 C738 1.366 . S
C739 C740 1.414 . S
C739 C742 1.499 . S
C740 H720 0.950 . S
C740 C739 1.414 . S
C740 C741 1.397 . S
C741 H721 0.929 1_655 S
C741 C737 1.383 1_655 S
C741 C740 1.397 . S
C742 C739 1.499 . S
C742 C743 1.373 . S
C742 C744 1.389 . S
C743 H722 0.950 . S
C743 C742 1.373 . S
C743 C759 1.377 . S
C744 C742 1.389 . S
C744 C745 1.524 . S
C744 C758 1.377 . S
C745 C744 1.524 . S
C745 C746 1.397 . S
C745 C750 1.363 . S
C746 H723 0.950 . S
C746 C745 1.397 . S
C746 C747 1.334 . S
C747 H724 0.950 1_655 S
C747 C746 1.334 . S
C747 C748 1.287 . S
C748 C747 1.287 . S
C748 C749 1.524 . S
C748 H767 0.913 . S
C749 H725 0.950 . S
C749 C748 1.524 . S
C749 C750 1.415 . S
C750 H726 0.950 . S
C750 C745 1.363 . S
C750 C749 1.415 . S
C751 H727 0.951 . S
C751 C752 1.366 . S
C751 C753 1.388 . S
C752 C751 1.366 . S
C752 C756 1.385 . S
C753 H728 0.951 . S
C753 C751 1.388 . S
C753 C754 1.366 . S
C754 C753 1.366 . S
C754 C755 1.414 . S
C754 C757 1.499 . S
C755 H729 0.950 . S
C755 C754 1.414 . S
C755 C756 1.374 . S
C756 H730 0.950 . S
C756 C752 1.385 . S
C756 C755 1.374 . S
C757 C754 1.499 . S
C757 C758 1.373 . S
C757 C759 1.389 . S
C758 H731 0.950 . S
C758 C744 1.377 . S
C758 C757 1.373 . S
C759 C743 1.377 . S
C759 C757 1.389 . S
C759 C760 1.524 . S
C760 C759 1.524 . S
C760 C761 1.397 . S
C760 C765 1.363 . S
C761 H732 0.950 . S
C761 C760 1.397 . S
C761 C762 1.334 . S
C762 H733 0.950 . S
C762 C761 1.334 . S
C762 C763 1.287 . S
C763 C762 1.287 . S
C763 C764 1.524 . S
C763 H766 0.999 . S
C764 H734 0.950 . S
C764 C763 1.524 . S
C764 C765 1.415 . S
C765 H735 0.950 . S
C765 C760 1.363 . S
C765 C764 1.415 . S
H766 C763 0.999 . S
H767 C748 0.913 . S
H768 C786 0.951 . S
H769 C788 0.951 . S
H770 C790 0.950 . S
H771 C791 0.950 . S
H772 C793 0.950 . S
H773 C796 0.950 . S
H774 C797 0.950 . S
H775 C799 0.950 . S
H776 C800 0.950 . S
H777 C801 0.951 . S
H778 C803 0.951 . S
H779 C805 0.950 . S
H780 C806 0.950 . S
H781 C808 0.950 . S
H782 C811 0.950 . S
H783 C812 0.950 . S
H784 C814 0.950 . S
H785 C815 0.950 . S
C786 H768 0.951 . S
C786 C787 1.366 . S
C786 C788 1.388 . S
C787 C786 1.366 . S
C787 C791 1.385 . S
C788 H769 0.951 . S
C788 C786 1.388 . S
C788 C789 1.366 . S
C789 C788 1.366 . S
C789 C790 1.414 . S
C789 C792 1.499 . S
C790 H770 0.950 . S
C790 C789 1.414 . S
C790 C791 1.374 . S
C791 H771 0.950 . S
C791 C787 1.385 . S
C791 C790 1.374 . S
C792 C789 1.499 . S
C792 C793 1.373 . S
C792 C794 1.389 . S
C793 H772 0.950 . S
C793 C792 1.373 . S
C793 C809 1.377 . S
C794 C792 1.389 . S
C794 C795 1.524 . S
C794 C808 1.377 . S
C795 C794 1.524 . S
C795 C796 1.397 . S
C795 C800 1.363 . S
C796 H773 0.950 . S
C796 C795 1.397 . S
C796 C797 1.334 . S
C797 H774 0.950 . S
C797 C796 1.334 . S
C797 C798 1.287 . S
C798 C797 1.287 . S
C798 C799 1.524 . S
C798 H817 0.913 . S
C799 H775 0.950 . S
C799 C798 1.524 . S
C799 C800 1.415 . S
C800 H776 0.950 . S
C800 C795 1.363 . S
C800 C799 1.415 . S
C801 H777 0.951 . S
C801 C802 1.366 . S
C801 C803 1.388 . S
C802 C801 1.366 . S
C802 C806 1.385 . S
C803 H778 0.951 . S
C803 C801 1.388 . S
C803 C804 1.366 . S
C804 C803 1.366 . S
C804 C805 1.414 . S
C804 C807 1.499 . S
C805 H779 0.950 . S
C805 C804 1.414 . S
C805 C806 1.374 . S
C806 H780 0.950 . S
C806 C802 1.385 . S
C806 C805 1.374 . S
C807 C804 1.499 . S
C807 C808 1.373 . S
C807 C809 1.389 . S
C808 H781 0.950 . S
C808 C794 1.377 . S
C808 C807 1.373 . S
C809 C793 1.377 . S
C809 C807 1.389 . S
C809 C810 1.524 . S
C810 C809 1.524 . S
C810 C811 1.397 . S
C810 C815 1.363 . S
C811 H782 0.950 . S
C811 C810 1.397 . S
C811 C812 1.334 . S
C812 H783 0.950 . S
C812 C811 1.334 . S
C812 C813 1.287 . S
C813 C812 1.287 . S
C813 C814 1.524 . S
C813 H816 0.999 . S
C814 H784 0.950 . S
C814 C813 1.524 . S
C814 C815 1.415 . S
C815 H785 0.950 . S
C815 C810 1.363 . S
C815 C814 1.415 . S
H816 C813 0.999 . S
H817 C798 0.913 . S
H818 C836 0.951 . S
H819 C838 0.951 . S
H820 C840 0.950 . S
H821 C841 0.950 . S
H822 C843 0.950 . S
H823 C846 0.950 . S
H824 C847 0.950 . S
H825 C849 0.950 . S
H826 C850 0.950 . S
H827 C851 0.951 . S
H828 C853 0.951 . S
H829 C855 0.950 . S
H830 C856 0.950 . S
H831 C858 0.950 . S
H832 C861 0.950 . S
H833 C862 0.950 . S
H834 C864 0.950 . S
H835 C865 0.950 . S
C836 H818 0.951 . S
C836 C837 1.366 . S
C836 C838 1.388 . S
C837 C836 1.366 . S
C837 C841 1.385 . S
C838 H819 0.951 . S
C838 C836 1.388 . S
C838 C839 1.366 . S
C839 C838 1.366 . S
C839 C840 1.414 . S
C839 C842 1.499 . S
C840 H820 0.950 . S
C840 C839 1.414 . S
C840 C841 1.374 . S
C841 H821 0.950 . S
C841 C837 1.385 . S
C841 C840 1.374 . S
C842 C839 1.499 . S
C842 C843 1.373 . S
C842 C844 1.389 . S
C843 H822 0.950 . S
C843 C842 1.373 . S
C843 C859 1.377 . S
C844 C842 1.389 . S
C844 C845 1.524 . S
C844 C858 1.377 . S
C845 C844 1.524 . S
C845 C846 1.397 . S
C845 C850 1.363 . S
C846 H823 0.950 . S
C846 C845 1.397 . S
C846 C847 1.334 . S
C847 H824 0.950 . S
C847 C846 1.334 . S
C847 C848 1.287 . S
C848 C847 1.287 . S
C848 C849 1.524 . S
C848 H867 0.913 . S
C849 H825 0.950 . S
C849 C848 1.524 . S
C849 C850 1.415 . S
C850 H826 0.950 . S
C850 C845 1.363 . S
C850 C849 1.415 . S
C851 H827 0.951 . S
C851 C852 1.366 . S
C851 C853 1.388 . S
C852 C851 1.366 . S
C852 C856 1.385 . S
C853 H828 0.951 . S
C853 C851 1.388 . S
C853 C854 1.366 . S
C854 C853 1.366 . S
C854 C855 1.414 . S
C854 C857 1.499 . S
C855 H829 0.950 . S
C855 C854 1.414 . S
C855 C856 1.374 . S
C856 H830 0.950 . S
C856 C852 1.385 . S
C856 C855 1.374 . S
C857 C854 1.499 . S
C857 C858 1.373 . S
C857 C859 1.389 . S
C858 H831 0.950 . S
C858 C844 1.377 . S
C858 C857 1.373 . S
C859 C843 1.377 . S
C859 C857 1.389 . S
C859 C860 1.524 . S
C860 C859 1.524 . S
C860 C861 1.397 . S
C860 C865 1.363 . S
C861 H832 0.950 . S
C861 C860 1.397 . S
C861 C862 1.334 . S
C862 H833 0.950 . S
C862 C861 1.334 . S
C862 C863 1.287 . S
C863 C862 1.287 . S
C863 C864 1.524 . S
C863 H866 0.999 . S
C864 H834 0.950 . S
C864 C863 1.524 . S
C864 C865 1.415 . S
C865 H835 0.950 . S
C865 C860 1.363 . S
C865 C864 1.415 . S
H866 C863 0.999 . S
H867 C848 0.913 . S
H868 C886 0.951 . S
H869 C888 0.951 . S
H870 C890 0.950 . S
H871 C891 0.950 . S
H872 C893 0.950 . S
H873 C896 0.950 . S
H874 C897 0.950 . S
H875 C899 0.950 . S
H876 C900 0.950 . S
H877 C901 0.951 . S
H878 C903 0.951 . S
H879 C905 0.950 . S
H880 C906 0.950 . S
H881 C908 0.950 . S
H882 C911 0.950 . S
H883 C912 0.950 . S
H884 C914 0.950 . S
H885 C915 0.950 . S
C886 H868 0.951 . S
C886 C887 1.366 . S
C886 C888 1.388 . S
C887 C886 1.366 . S
C887 C891 1.385 . S
C888 H869 0.951 . S
C888 C886 1.388 . S
C888 C889 1.366 . S
C889 C888 1.366 . S
C889 C890 1.414 . S
C889 C892 1.499 . S
C890 H870 0.950 . S
C890 C889 1.414 . S
C890 C891 1.374 . S
C891 H871 0.950 . S
C891 C887 1.385 . S
C891 C890 1.374 . S
C892 C889 1.499 . S
C892 C893 1.373 . S
C892 C894 1.389 . S
C893 H872 0.950 . S
C893 C892 1.373 . S
C893 C909 1.377 . S
C894 C892 1.389 . S
C894 C895 1.524 . S
C894 C908 1.377 . S
C895 C894 1.524 . S
C895 C896 1.397 . S
C895 C900 1.363 . S
C896 H873 0.950 . S
C896 C895 1.397 . S
C896 C897 1.334 . S
C897 H874 0.950 . S
C897 C896 1.334 . S
C897 C898 1.287 . S
C898 C897 1.287 . S
C898 C899 1.524 . S
C898 H917 0.913 . S
C899 H875 0.950 . S
C899 C898 1.524 . S
C899 C900 1.415 . S
C900 H876 0.950 . S
C900 C895 1.363 . S
C900 C899 1.415 . S
C901 H877 0.951 . S
C901 C902 1.366 . S
C901 C903 1.388 . S
C902 C901 1.366 . S
C902 C906 1.385 . S
C903 H878 0.951 . S
C903 C901 1.388 . S
C903 C904 1.366 . S
C904 C903 1.366 . S
C904 C905 1.414 . S
C904 C907 1.499 . S
C905 H879 0.950 . S
C905 C904 1.414 . S
C905 C906 1.374 . S
C906 H880 0.950 . S
C906 C902 1.385 . S
C906 C905 1.374 . S
C907 C904 1.499 . S
C907 C908 1.373 . S
C907 C909 1.389 . S
C908 H881 0.950 . S
C908 C894 1.377 . S
C908 C907 1.373 . S
C909 C893 1.377 . S
C909 C907 1.389 . S
C909 C910 1.524 . S
C910 C909 1.524 . S
C910 C911 1.397 . S
C910 C915 1.363 . S
C911 H882 0.950 . S
C911 C910 1.397 . S
C911 C912 1.334 . S
C912 H883 0.950 . S
C912 C911 1.334 . S
C912 C913 1.287 . S
C913 C912 1.287 . S
C913 C914 1.524 . S
C913 H916 0.999 . S
C914 H884 0.950 . S
C914 C913 1.524 . S
C914 C915 1.415 . S
C915 H885 0.950 . S
C915 C910 1.363 . S
C915 C914 1.415 . S
H916 C913 0.999 . S
H917 C898 0.913 . S
H918 C936 0.951 . S
H919 C938 0.951 . S
H920 C940 0.950 . S
H921 C941 0.950 . S
H922 C943 0.950 . S
H923 C946 0.950 . S
H924 C947 0.950 . S
H925 C949 0.950 . S
H926 C950 0.950 . S
H927 C951 0.951 . S
H928 C953 0.951 . S
H929 C955 0.950 . S
H930 C956 0.950 . S
H931 C958 0.950 . S
H932 C961 0.950 . S
H933 C962 0.950 . S
H934 C964 0.950 . S
H935 C965 0.950 . S
C936 H918 0.951 . S
C936 C937 1.366 . S
C936 C938 1.388 . S
C937 C936 1.366 . S
C937 C941 1.385 . S
C938 H919 0.951 . S
C938 C936 1.388 . S
C938 C939 1.366 . S
C939 C938 1.366 . S
C939 C940 1.414 . S
C939 C942 1.499 . S
C940 H920 0.950 . S
C940 C939 1.414 . S
C940 C941 1.374 . S
C941 H921 0.950 . S
C941 C937 1.385 . S
C941 C940 1.374 . S
C942 C939 1.499 . S
C942 C943 1.373 . S
C942 C944 1.389 . S
C943 H922 0.950 . S
C943 C942 1.373 . S
C943 C959 1.377 . S
C944 C942 1.389 . S
C944 C945 1.524 . S
C944 C958 1.377 . S
C945 C944 1.524 . S
C945 C946 1.397 . S
C945 C950 1.363 . S
C946 H923 0.950 . S
C946 C945 1.397 . S
C946 C947 1.334 . S
C947 H924 0.950 . S
C947 C946 1.334 . S
C947 C948 1.287 . S
C948 C947 1.287 . S
C948 C949 1.524 . S
C948 H967 0.913 . S
C949 H925 0.950 . S
C949 C948 1.524 . S
C949 C950 1.415 . S
C950 H926 0.950 . S
C950 C945 1.363 . S
C950 C949 1.415 . S
C951 H927 0.951 . S
C951 C952 1.366 . S
C951 C953 1.388 . S
C952 C951 1.366 . S
C952 C956 1.385 . S
C953 H928 0.951 . S
C953 C951 1.388 . S
C953 C954 1.366 . S
C954 C953 1.366 . S
C954 C955 1.414 . S
C954 C957 1.499 . S
C955 H929 0.950 . S
C955 C954 1.414 . S
C955 C956 1.374 . S
C956 H930 0.950 . S
C956 C952 1.385 . S
C956 C955 1.374 . S
C957 C954 1.499 . S
C957 C958 1.373 . S
C957 C959 1.389 . S
C958 H931 0.950 . S
C958 C944 1.377 . S
C958 C957 1.373 . S
C959 C943 1.377 . S
C959 C957 1.389 . S
C959 C960 1.524 . S
C960 C959 1.524 . S
C960 C961 1.397 . S
C960 C965 1.363 . S
C961 H932 0.950 . S
C961 C960 1.397 . S
C961 C962 1.334 . S
C962 H933 0.950 . S
C962 C961 1.334 . S
C962 C963 1.287 . S
C963 C962 1.287 . S
C963 C964 1.524 . S
C963 H966 0.999 . S
C964 H934 0.950 . S
C964 C963 1.524 . S
C964 C965 1.415 . S
C965 H935 0.950 . S
C965 C960 1.363 . S
C965 C964 1.415 . S
H966 C963 0.999 . S
H967 C948 0.913 . S
H968 C986 0.951 . S
H969 C988 0.951 . S
H970 C990 0.950 . S
H971 C991 0.950 . S
H972 C993 0.950 . S
H973 C996 0.950 . S
H974 C997 0.950 . S
H975 C999 0.950 . S
H976 C1000 0.950 . S
H977 C1001 0.951 . S
H978 C1003 0.951 . S
H979 C1005 0.950 . S
H980 C1006 0.950 . S
H981 C1008 0.950 . S
H982 C1011 0.950 . S
H983 C1012 0.950 . S
H984 C1014 0.950 . S
H985 C1015 0.950 . S
C986 H968 0.951 . S
C986 C987 1.366 . S
C986 C988 1.388 . S
C987 C986 1.366 . S
C987 C991 1.385 . S
C988 H969 0.951 . S
C988 C986 1.388 . S
C988 C989 1.366 . S
C989 C988 1.366 . S
C989 C990 1.414 . S
C989 C992 1.499 . S
C990 H970 0.950 . S
C990 C989 1.414 . S
C990 C991 1.374 . S
C991 H971 0.950 . S
C991 C987 1.385 . S
C991 C990 1.374 . S
C992 C989 1.499 . S
C992 C993 1.373 . S
C992 C994 1.389 . S
C993 H972 0.950 . S
C993 C992 1.373 . S
C993 C1009 1.377 . S
C994 C992 1.389 . S
C994 C995 1.524 . S
C994 C1008 1.377 . S
C995 C994 1.524 . S
C995 C996 1.397 . S
C995 C1000 1.363 . S
C996 H973 0.950 . S
C996 C995 1.397 . S
C996 C997 1.334 . S
C997 H974 0.950 . S
C997 C996 1.334 . S
C997 C998 1.287 . S
C998 C997 1.287 . S
C998 C999 1.524 . S
C998 H1017 0.913 . S
C999 H975 0.950 . S
C999 C998 1.524 . S
C999 C1000 1.415 . S
C1000 H976 0.950 . S
C1000 C995 1.363 . S
C1000 C999 1.415 . S
C1001 H977 0.951 . S
C1001 C1002 1.366 . S
C1001 C1003 1.388 . S
C1002 C1001 1.366 . S
C1002 C1006 1.385 . S
C1003 H978 0.951 . S
C1003 C1001 1.388 . S
C1003 C1004 1.366 . S
C1004 C1003 1.366 . S
C1004 C1005 1.414 . S
C1004 C1007 1.499 . S
C1005 H979 0.950 . S
C1005 C1004 1.414 . S
C1005 C1006 1.374 . S
C1006 H980 0.950 . S
C1006 C1002 1.385 . S
C1006 C1005 1.374 . S
C1007 C1004 1.499 . S
C1007 C1008 1.373 . S
C1007 C1009 1.389 . S
C1008 H981 0.950 . S
C1008 C994 1.377 . S
C1008 C1007 1.373 . S
C1009 C993 1.377 . S
C1009 C1007 1.389 . S
C1009 C1010 1.524 . S
C1010 C1009 1.524 . S
C1010 C1011 1.397 . S
C1010 C1015 1.363 . S
C1011 H982 0.950 . S
C1011 C1010 1.397 . S
C1011 C1012 1.334 . S
C1012 H983 0.950 . S
C1012 C1011 1.334 . S
C1012 C1013 1.287 . S
C1013 C1012 1.287 . S
C1013 C1014 1.524 . S
C1013 H1016 0.999 . S
C1014 H984 0.950 . S
C1014 C1013 1.524 . S
C1014 C1015 1.415 . S
C1015 H985 0.950 . S
C1015 C1010 1.363 . S
C1015 C1014 1.415 . S
H1016 C1013 0.999 . S
H1017 C998 0.913 . S
H1018 C1036 0.951 . S
H1019 C1038 0.951 . S
H1020 C1040 0.950 . S
H1021 C1041 0.950 . S
H1022 C1043 0.950 . S
H1023 C1046 0.950 . S
H1024 C1047 0.950 . S
H1025 C1049 0.950 . S
H1026 C1050 0.950 . S
H1027 C1051 0.951 . S
H1028 C1053 0.951 . S
H1029 C1055 0.950 . S
H1030 C1056 0.950 . S
H1031 C1058 0.950 . S
H1032 C1061 0.950 . S
H1033 C1062 0.950 . S
H1034 C1064 0.950 . S
H1035 C1065 0.950 . S
C1036 H1018 0.951 . S
C1036 C1037 1.366 . S
C1036 C1038 1.388 . S
C1037 C1036 1.366 . S
C1037 C1041 1.385 . S
C1038 H1019 0.951 . S
C1038 C1036 1.388 . S
C1038 C1039 1.366 . S
C1039 C1038 1.366 . S
C1039 C1040 1.414 . S
C1039 C1042 1.499 . S
C1040 H1020 0.950 . S
C1040 C1039 1.414 . S
C1040 C1041 1.374 . S
C1041 H1021 0.950 . S
C1041 C1037 1.385 . S
C1041 C1040 1.374 . S
C1042 C1039 1.499 . S
C1042 C1043 1.373 . S
C1042 C1044 1.389 . S
C1043 H1022 0.950 . S
C1043 C1042 1.373 . S
C1043 C1059 1.377 . S
C1044 C1042 1.389 . S
C1044 C1045 1.524 . S
C1044 C1058 1.377 . S
C1045 C1044 1.524 . S
C1045 C1046 1.397 . S
C1045 C1050 1.363 . S
C1046 H1023 0.950 . S
C1046 C1045 1.397 . S
C1046 C1047 1.334 . S
C1047 H1024 0.950 . S
C1047 C1046 1.334 . S
C1047 C1048 1.287 . S
C1048 C1047 1.287 . S
C1048 C1049 1.524 . S
C1048 H1067 0.913 . S
C1049 H1025 0.950 . S
C1049 C1048 1.524 . S
C1049 C1050 1.415 . S
C1050 H1026 0.950 . S
C1050 C1045 1.363 . S
C1050 C1049 1.415 . S
C1051 H1027 0.951 . S
C1051 C1052 1.366 . S
C1051 C1053 1.388 . S
C1052 C1051 1.366 . S
C1052 C1056 1.385 . S
C1053 H1028 0.951 . S
C1053 C1051 1.388 . S
C1053 C1054 1.366 . S
C1054 C1053 1.366 . S
C1054 C1055 1.414 . S
C1054 C1057 1.499 . S
C1055 H1029 0.950 . S
C1055 C1054 1.414 . S
C1055 C1056 1.374 . S
C1056 H1030 0.950 . S
C1056 C1052 1.385 . S
C1056 C1055 1.374 . S
C1057 C1054 1.499 . S
C1057 C1058 1.373 . S
C1057 C1059 1.389 . S
C1058 H1031 0.950 . S
C1058 C1044 1.377 . S
C1058 C1057 1.373 . S
C1059 C1043 1.377 . S
C1059 C1057 1.389 . S
C1059 C1060 1.524 . S
C1060 C1059 1.524 . S
C1060 C1061 1.397 . S
C1060 C1065 1.363 . S
C1061 H1032 0.950 . S
C1061 C1060 1.397 . S
C1061 C1062 1.334 . S
C1062 H1033 0.950 . S
C1062 C1061 1.334 . S
C1062 C1063 1.287 . S
C1063 C1062 1.287 . S
C1063 C1064 1.524 . S
C1063 H1066 0.999 . S
C1064 H1034 0.950 . S
C1064 C1063 1.524 . S
C1064 C1065 1.415 . S
C1065 H1035 0.950 . S
C1065 C1060 1.363 . S
C1065 C1064 1.415 . S
H1066 C1063 0.999 . S
H1067 C1048 0.913 . S
H1068 C1086 0.951 . S
H1069 C1088 0.951 1_655 S
H1070 C1090 0.950 1_556 S
H1071 C1091 0.950 . S
H1072 C1093 0.950 . S
H1073 C1096 0.950 1_556 S
H1074 C1097 0.950 1_556 S
H1075 C1099 0.950 . S
H1076 C1100 0.950 . S
H1077 C1101 0.951 . S
H1078 C1103 0.951 1_455 S
H1079 C1105 0.950 1_554 S
H1080 C1106 0.950 . S
H1081 C1108 0.950 . S
H1082 C1111 0.950 1_554 S
H1083 C1112 0.950 1_554 S
H1084 C1114 0.950 . S
H1085 C1115 0.950 . S
C1086 H1068 0.951 . S
C1086 C1087 1.366 . S
C1086 C1088 1.388 . S
C1087 C1086 1.366 . S
C1087 C1091 1.385 . S
C1088 H1069 0.951 1_455 S
C1088 C1086 1.388 . S
C1088 C1089 1.366 . S
C1089 C1088 1.366 . S
C1089 C1090 1.414 . S
C1089 C1092 1.499 . S
C1090 H1070 0.950 1_554 S
C1090 C1089 1.414 . S
C1090 C1091 1.374 . S
C1091 H1071 0.950 . S
C1091 C1087 1.385 . S
C1091 C1090 1.374 . S
C1092 C1089 1.499 . S
C1092 C1093 1.373 . S
C1092 C1094 1.389 1_455 S
C1093 H1072 0.950 . S
C1093 C1092 1.373 . S
C1093 C1109 1.377 1_554 S
C1094 C1092 1.389 1_655 S
C1094 C1095 1.524 . S
C1094 C1108 1.377 1_554 S
C1095 C1094 1.524 . S
C1095 C1096 1.397 . S
C1095 C1100 1.363 . S
C1096 H1073 0.950 1_554 S
C1096 C1095 1.397 . S
C1096 C1097 1.334 . S
C1097 H1074 0.950 1_554 S
C1097 C1096 1.334 . S
C1097 C1098 1.287 . S
C1098 C1097 1.287 . S
C1098 C1099 1.524 . S
C1098 H1117 0.913 . S
C1099 H1075 0.950 . S
C1099 C1098 1.524 . S
C1099 C1100 1.415 . S
C1100 H1076 0.950 . S
C1100 C1095 1.363 . S
C1100 C1099 1.415 . S
C1101 H1077 0.951 . S
C1101 C1102 1.366 . S
C1101 C1103 1.388 . S
C1102 C1101 1.366 . S
C1102 C1106 1.385 . S
C1103 H1078 0.951 1_655 S
C1103 C1101 1.388 . S
C1103 C1104 1.366 . S
C1104 C1103 1.366 . S
C1104 C1105 1.414 . S
C1104 C1107 1.499 . S
C1105 H1079 0.950 1_556 S
C1105 C1104 1.414 . S
C1105 C1106 1.374 . S
C1106 H1080 0.950 . S
C1106 C1102 1.385 . S
C1106 C1105 1.374 . S
C1107 C1104 1.499 . S
C1107 C1108 1.373 . S
C1107 C1109 1.389 1_655 S
C1108 H1081 0.950 . S
C1108 C1094 1.377 1_556 S
C1108 C1107 1.373 . S
C1109 C1093 1.377 1_556 S
C1109 C1107 1.389 1_455 S
C1109 C1110 1.524 . S
C1110 C1109 1.524 . S
C1110 C1111 1.397 . S
C1110 C1115 1.363 . S
C1111 H1082 0.950 1_556 S
C1111 C1110 1.397 . S
C1111 C1112 1.334 . S
C1112 H1083 0.950 1_556 S
C1112 C1111 1.334 . S
C1112 C1113 1.287 . S
C1113 C1112 1.287 . S
C1113 C1114 1.524 . S
C1113 H1116 0.999 . S
C1114 H1084 0.950 . S
C1114 C1113 1.524 . S
C1114 C1115 1.415 . S
C1115 H1085 0.950 . S
C1115 C1110 1.363 . S
C1115 C1114 1.415 . S
H1116 C1113 0.999 . S
H1117 C1098 0.913 . S
H1118 C1136 0.951 . S
H1119 C1138 0.951 . S
H1120 C1140 0.950 . S
H1121 C1141 0.950 . S
H1122 C1143 0.950 . S
H1123 C1146 0.950 . S
H1124 C1147 0.950 . S
H1125 C1149 0.950 . S
H1126 C1150 0.950 . S
H1127 C1151 0.951 . S
H1128 C1153 0.951 . S
H1129 C1155 0.950 . S
H1130 C1156 0.950 . S
H1131 C1158 0.950 . S
H1132 C1161 0.950 . S
H1133 C1162 0.950 . S
H1134 C1164 0.950 . S
H1135 C1165 0.950 . S
C1136 H1118 0.951 . S
C1136 C1137 1.366 . S
C1136 C1138 1.388 . S
C1137 C1136 1.366 . S
C1137 C1141 1.385 . S
C1138 H1119 0.951 . S
C1138 C1136 1.388 . S
C1138 C1139 1.366 . S
C1139 C1138 1.366 . S
C1139 C1140 1.414 . S
C1139 C1142 1.499 . S
C1140 H1120 0.950 . S
C1140 C1139 1.414 . S
C1140 C1141 1.374 . S
C1141 H1121 0.950 . S
C1141 C1137 1.385 . S
C1141 C1140 1.374 . S
C1142 C1139 1.499 . S
C1142 C1143 1.373 . S
C1142 C1144 1.389 1_554 S
C1143 H1122 0.950 . S
C1143 C1142 1.373 . S
C1143 C1159 1.377 . S
C1144 C1142 1.389 1_556 S
C1144 C1145 1.524 . S
C1144 C1158 1.377 . S
C1145 C1144 1.524 . S
C1145 C1146 1.397 . S
C1145 C1150 1.363 . S
C1146 H1123 0.950 . S
C1146 C1145 1.397 . S
C1146 C1147 1.334 . S
C1147 H1124 0.950 . S
C1147 C1146 1.334 . S
C1147 C1148 1.287 . S
C1148 C1147 1.287 . S
C1148 C1149 1.524 . S
C1148 H1167 0.913 . S
C1149 H1125 0.950 . S
C1149 C1148 1.524 . S
C1149 C1150 1.415 . S
C1150 H1126 0.950 . S
C1150 C1145 1.363 . S
C1150 C1149 1.415 . S
C1151 H1127 0.951 . S
C1151 C1152 1.366 . S
C1151 C1153 1.388 . S
C1152 C1151 1.366 . S
C1152 C1156 1.385 . S
C1153 H1128 0.951 . S
C1153 C1151 1.388 . S
C1153 C1154 1.366 . S
C1154 C1153 1.366 . S
C1154 C1155 1.414 . S
C1154 C1157 1.499 . S
C1155 H1129 0.950 . S
C1155 C1154 1.414 . S
C1155 C1156 1.374 . S
C1156 H1130 0.950 . S
C1156 C1152 1.385 . S
C1156 C1155 1.374 . S
C1157 C1154 1.499 . S
C1157 C1158 1.373 . S
C1157 C1159 1.389 1_556 S
C1158 H1131 0.950 . S
C1158 C1144 1.377 . S
C1158 C1157 1.373 . S
C1159 C1143 1.377 . S
C1159 C1157 1.389 1_554 S
C1159 C1160 1.524 . S
C1160 C1159 1.524 . S
C1160 C1161 1.397 . S
C1160 C1165 1.363 . S
C1161 H1132 0.950 . S
C1161 C1160 1.397 . S
C1161 C1162 1.334 . S
C1162 H1133 0.950 . S
C1162 C1161 1.334 . S
C1162 C1163 1.287 . S
C1163 C1162 1.287 . S
C1163 C1164 1.524 . S
C1163 H1166 0.999 . S
C1164 H1134 0.950 . S
C1164 C1163 1.524 . S
C1164 C1165 1.415 . S
C1165 H1135 0.950 . S
C1165 C1160 1.363 . S
C1165 C1164 1.415 . S
H1166 C1163 0.999 . S
H1167 C1148 0.913 . S
H1168 C1186 0.951 . S
H1169 C1188 0.951 . S
H1170 C1190 0.950 1_556 S
H1171 C1191 0.950 . S
H1172 C1193 0.950 . S
H1173 C1196 0.950 . S
H1174 C1197 0.950 . S
H1175 C1199 0.950 . S
H1176 C1200 0.950 . S
H1177 C1201 0.951 . S
H1178 C1203 0.951 . S
H1179 C1205 0.950 1_554 S
H1180 C1206 0.950 . S
H1181 C1208 0.950 . S
H1182 C1211 0.950 . S
H1183 C1212 0.950 . S
H1184 C1214 0.950 . S
H1185 C1215 0.950 . S
C1186 H1168 0.951 . S
C1186 C1187 1.366 . S
C1186 C1188 1.388 . S
C1187 C1186 1.366 . S
C1187 C1191 1.385 . S
C1188 H1169 0.951 . S
C1188 C1186 1.388 . S
C1188 C1189 1.366 . S
C1189 C1188 1.366 . S
C1189 C1190 1.414 . S
C1189 C1192 1.499 . S
C1190 H1170 0.950 1_554 S
C1190 C1189 1.414 . S
C1190 C1191 1.374 . S
C1191 H1171 0.950 . S
C1191 C1187 1.385 . S
C1191 C1190 1.374 . S
C1192 C1189 1.499 . S
C1192 C1193 1.373 1_554 S
C1192 C1194 1.389 1_565 S
C1193 H1172 0.950 . S
C1193 C1192 1.373 1_556 S
C1193 C1209 1.377 . S
C1194 C1192 1.389 1_545 S
C1194 C1195 1.524 . S
C1194 C1208 1.377 . S
C1195 C1194 1.524 . S
C1195 C1196 1.397 . S
C1195 C1200 1.363 . S
C1196 H1173 0.950 . S
C1196 C1195 1.397 . S
C1196 C1197 1.334 . S
C1197 H1174 0.950 . S
C1197 C1196 1.334 . S
C1197 C1198 1.287 . S
C1198 C1197 1.287 . S
C1198 C1199 1.524 . S
C1198 H1217 0.913 . S
C1199 H1175 0.950 . S
C1199 C1198 1.524 . S
C1199 C1200 1.415 . S
C1200 H1176 0.950 . S
C1200 C1195 1.363 . S
C1200 C1199 1.415 . S
C1201 H1177 0.951 . S
C1201 C1202 1.366 . S
C1201 C1203 1.388 . S
C1202 C1201 1.366 . S
C1202 C1206 1.385 . S
C1203 H1178 0.951 . S
C1203 C1201 1.388 . S
C1203 C1204 1.366 . S
C1204 C1203 1.366 . S
C1204 C1205 1.414 . S
C1204 C1207 1.499 . S
C1205 H1179 0.950 1_556 S
C1205 C1204 1.414 . S
C1205 C1206 1.374 . S
C1206 H1180 0.950 . S
C1206 C1202 1.385 . S
C1206 C1205 1.374 . S
C1207 C1204 1.499 . S
C1207 C1208 1.373 1_556 S
C1207 C1209 1.389 1_545 S
C1208 H1181 0.950 . S
C1208 C1194 1.377 . S
C1208 C1207 1.373 1_554 S
C1209 C1193 1.377 . S
C1209 C1207 1.389 1_565 S
C1209 C1210 1.524 . S
C1210 C1209 1.524 . S
C1210 C1211 1.397 . S
C1210 C1215 1.363 . S
C1211 H1182 0.950 . S
C1211 C1210 1.397 . S
C1211 C1212 1.334 . S
C1212 H1183 0.950 . S
C1212 C1211 1.334 . S
C1212 C1213 1.287 . S
C1213 C1212 1.287 . S
C1213 C1214 1.524 . S
C1213 H1216 0.999 . S
C1214 H1184 0.950 . S
C1214 C1213 1.524 . S
C1214 C1215 1.415 . S
C1215 H1185 0.950 . S
C1215 C1210 1.363 . S
C1215 C1214 1.415 . S
H1216 C1213 0.999 . S
H1217 C1198 0.913 . S
H1218 C1236 0.951 . S
H1219 C1238 0.951 1_545 S
H1220 C1240 0.950 . S
H1221 C1241 0.950 . S
H1222 C1243 0.950 . S
H1223 C1246 0.950 . S
H1224 C1247 0.950 . S
H1225 C1249 0.950 . S
H1226 C1250 0.950 . S
H1227 C1251 0.951 . S
H1228 C1253 0.951 1_565 S
H1229 C1255 0.950 . S
H1230 C1256 0.950 . S
H1231 C1258 0.950 . S
H1232 C1261 0.950 . S
H1233 C1262 0.950 . S
H1234 C1264 0.950 . S
H1235 C1265 0.950 . S
C1236 H1218 0.951 . S
C1236 C1237 1.366 . S
C1236 C1238 1.388 . S
C1237 C1236 1.366 . S
C1237 C1241 1.385 . S
C1238 H1219 0.951 1_565 S
C1238 C1236 1.388 . S
C1238 C1239 1.366 . S
C1239 C1238 1.366 . S
C1239 C1240 1.414 . S
C1239 C1242 1.499 . S
C1240 H1220 0.950 . S
C1240 C1239 1.414 . S
C1240 C1241 1.374 . S
C1241 H1221 0.950 . S
C1241 C1237 1.385 . S
C1241 C1240 1.374 . S
C1242 C1239 1.499 . S
C1242 C1243 1.373 . S
C1242 C1244 1.389 1_565 S
C1243 H1222 0.950 . S
C1243 C1242 1.373 . S
C1243 C1259 1.377 . S
C1244 C1242 1.389 1_545 S
C1244 C1245 1.524 . S
C1244 C1258 1.377 . S
C1245 C1244 1.524 . S
C1245 C1246 1.397 1_545 S
C1245 C1250 1.363 . S
C1246 H1223 0.950 . S
C1246 C1245 1.397 1_565 S
C1246 C1247 1.334 . S
C1247 H1224 0.950 . S
C1247 C1246 1.334 . S
C1247 C1248 1.287 1_565 S
C1248 C1247 1.287 1_545 S
C1248 C1249 1.524 . S
C1248 H1267 0.913 . S
C1249 H1225 0.950 . S
C1249 C1248 1.524 . S
C1249 C1250 1.415 . S
C1250 H1226 0.950 . S
C1250 C1245 1.363 . S
C1250 C1249 1.415 . S
C1251 H1227 0.951 . S
C1251 C1252 1.366 . S
C1251 C1253 1.388 . S
C1252 C1251 1.366 . S
C1252 C1256 1.385 . S
C1253 H1228 0.951 1_545 S
C1253 C1251 1.388 . S
C1253 C1254 1.366 . S
C1254 C1253 1.366 . S
C1254 C1255 1.414 . S
C1254 C1257 1.499 . S
C1255 H1229 0.950 . S
C1255 C1254 1.414 . S
C1255 C1256 1.374 . S
C1256 H1230 0.950 . S
C1256 C1252 1.385 . S
C1256 C1255 1.374 . S
C1257 C1254 1.499 . S
C1257 C1258 1.373 . S
C1257 C1259 1.389 1_545 S
C1258 H1231 0.950 . S
C1258 C1244 1.377 . S
C1258 C1257 1.373 . S
C1259 C1243 1.377 . S
C1259 C1257 1.389 1_565 S
C1259 C1260 1.524 . S
C1260 C1259 1.524 . S
C1260 C1261 1.397 1_565 S
C1260 C1265 1.363 . S
C1261 H1232 0.950 . S
C1261 C1260 1.397 1_545 S
C1261 C1262 1.334 . S
C1262 H1233 0.950 . S
C1262 C1261 1.334 . S
C1262 C1263 1.287 1_545 S
C1263 C1262 1.287 1_565 S
C1263 C1264 1.524 . S
C1263 H1266 0.999 . S
C1264 H1234 0.950 . S
C1264 C1263 1.524 . S
C1264 C1265 1.415 . S
C1265 H1235 0.950 . S
C1265 C1260 1.363 . S
C1265 C1264 1.415 . S
H1266 C1263 0.999 . S
H1267 C1248 0.913 . S
H1268 C1286 0.951 . S
H1269 C1288 0.951 . S
H1270 C1290 0.950 1_455 S
H1271 C1291 0.950 . S
H1272 C1293 0.950 . S
H1273 C1296 0.950 . S
H1274 C1297 0.950 . S
H1275 C1299 0.950 . S
H1276 C1300 0.950 . S
H1277 C1301 0.951 . S
H1278 C1303 0.951 . S
H1279 C1305 0.950 1_655 S
H1280 C1306 0.950 . S
H1281 C1308 0.950 . S
H1282 C1311 0.950 . S
H1283 C1312 0.950 . S
H1284 C1314 0.950 . S
H1285 C1315 0.950 . S
C1286 H1268 0.951 . S
C1286 C1287 1.366 . S
C1286 C1288 1.388 . S
C1287 C1286 1.366 . S
C1287 C1291 1.385 . S
C1288 H1269 0.951 . S
C1288 C1286 1.388 . S
C1288 C1289 1.366 . S
C1289 C1288 1.366 . S
C1289 C1290 1.414 . S
C1289 C1292 1.499 . S
C1290 H1270 0.950 1_655 S
C1290 C1289 1.414 . S
C1290 C1291 1.374 . S
C1291 H1271 0.950 . S
C1291 C1287 1.385 . S
C1291 C1290 1.374 . S
C1292 C1289 1.499 . S
C1292 C1293 1.373 1_655 S
C1292 C1294 1.389 . S
C1293 H1272 0.950 . S
C1293 C1292 1.373 1_455 S
C1293 C1309 1.377 . S
C1294 C1292 1.389 . S
C1294 C1295 1.524 . S
C1294 C1308 1.377 . S
C1295 C1294 1.524 . S
C1295 C1296 1.397 . S
C1295 C1300 1.363 . S
C1296 H1273 0.950 . S
C1296 C1295 1.397 . S
C1296 C1297 1.334 . S
C1297 H1274 0.950 . S
C1297 C1296 1.334 . S
C1297 C1298 1.287 . S
C1298 C1297 1.287 . S
C1298 C1299 1.524 . S
C1298 H1317 0.913 . S
C1299 H1275 0.950 . S
C1299 C1298 1.524 . S
C1299 C1300 1.415 . S
C1300 H1276 0.950 . S
C1300 C1295 1.363 . S
C1300 C1299 1.415 . S
C1301 H1277 0.951 . S
C1301 C1302 1.366 . S
C1301 C1303 1.388 . S
C1302 C1301 1.366 . S
C1302 C1306 1.385 . S
C1303 H1278 0.951 . S
C1303 C1301 1.388 . S
C1303 C1304 1.366 . S
C1304 C1303 1.366 . S
C1304 C1305 1.414 . S
C1304 C1307 1.499 . S
C1305 H1279 0.950 1_455 S
C1305 C1304 1.414 . S
C1305 C1306 1.374 . S
C1306 H1280 0.950 . S
C1306 C1302 1.385 . S
C1306 C1305 1.374 . S
C1307 C1304 1.499 . S
C1307 C1308 1.373 1_455 S
C1307 C1309 1.389 . S
C1308 H1281 0.950 . S
C1308 C1294 1.377 . S
C1308 C1307 1.373 1_655 S
C1309 C1293 1.377 . S
C1309 C1307 1.389 . S
C1309 C1310 1.524 . S
C1310 C1309 1.524 . S
C1310 C1311 1.397 . S
C1310 C1315 1.363 . S
C1311 H1282 0.950 . S
C1311 C1310 1.397 . S
C1311 C1312 1.334 . S
C1312 H1283 0.950 . S
C1312 C1311 1.334 . S
C1312 C1313 1.287 . S
C1313 C1312 1.287 . S
C1313 C1314 1.524 . S
C1313 H1316 0.999 . S
C1314 H1284 0.950 . S
C1314 C1313 1.524 . S
C1314 C1315 1.415 . S
C1315 H1285 0.950 . S
C1315 C1310 1.363 . S
C1315 C1314 1.415 . S
H1316 C1313 0.999 . S
H1317 C1298 0.913 . S
H1318 C1336 0.951 . S
H1319 C1338 0.951 . S
H1320 C1340 0.950 . S
H1321 C1341 0.950 . S
H1322 C1343 0.950 . S
H1323 C1346 0.950 . S
H1324 C1347 0.950 . S
H1325 C1349 0.950 . S
H1326 C1350 0.950 . S
H1327 C1351 0.951 . S
H1328 C1353 0.951 . S
H1329 C1355 0.950 . S
H1330 C1356 0.950 . S
H1331 C1358 0.950 . S
H1332 C1361 0.950 . S
H1333 C1362 0.950 . S
H1334 C1364 0.950 . S
H1335 C1365 0.950 . S
C1336 H1318 0.951 . S
C1336 C1337 1.366 . S
C1336 C1338 1.388 . S
C1337 C1336 1.366 . S
C1337 C1341 1.385 . S
C1338 H1319 0.951 . S
C1338 C1336 1.388 . S
C1338 C1339 1.366 . S
C1339 C1338 1.366 . S
C1339 C1340 1.414 . S
C1339 C1342 1.499 . S
C1340 H1320 0.950 . S
C1340 C1339 1.414 . S
C1340 C1341 1.374 . S
C1341 H1321 0.950 . S
C1341 C1337 1.385 . S
C1341 C1340 1.374 . S
C1342 C1339 1.499 . S
C1342 C1343 1.373 . S
C1342 C1344 1.389 . S
C1343 H1322 0.950 . S
C1343 C1342 1.373 . S
C1343 C1359 1.377 . S
C1344 C1342 1.389 . S
C1344 C1345 1.524 . S
C1344 C1358 1.377 . S
C1345 C1344 1.524 . S
C1345 C1346 1.397 . S
C1345 C1350 1.363 . S
C1346 H1323 0.950 . S
C1346 C1345 1.397 . S
C1346 C1347 1.334 . S
C1347 H1324 0.950 . S
C1347 C1346 1.334 . S
C1347 C1348 1.287 . S
C1348 C1347 1.287 . S
C1348 C1349 1.524 . S
C1348 H1367 0.913 . S
C1349 H1325 0.950 . S
C1349 C1348 1.524 . S
C1349 C1350 1.415 . S
C1350 H1326 0.950 . S
C1350 C1345 1.363 . S
C1350 C1349 1.415 . S
C1351 H1327 0.951 . S
C1351 C1352 1.366 . S
C1351 C1353 1.388 . S
C1352 C1351 1.366 . S
C1352 C1356 1.385 . S
C1353 H1328 0.951 . S
C1353 C1351 1.388 . S
C1353 C1354 1.366 . S
C1354 C1353 1.366 . S
C1354 C1355 1.414 . S
C1354 C1357 1.499 . S
C1355 H1329 0.950 . S
C1355 C1354 1.414 . S
C1355 C1356 1.374 . S
C1356 H1330 0.950 . S
C1356 C1352 1.385 . S
C1356 C1355 1.374 . S
C1357 C1354 1.499 . S
C1357 C1358 1.373 . S
C1357 C1359 1.389 . S
C1358 H1331 0.950 . S
C1358 C1344 1.377 . S
C1358 C1357 1.373 . S
C1359 C1343 1.377 . S
C1359 C1357 1.389 . S
C1359 C1360 1.524 . S
C1360 C1359 1.524 . S
C1360 C1361 1.397 . S
C1360 C1365 1.363 . S
C1361 H1332 0.950 . S
C1361 C1360 1.397 . S
C1361 C1362 1.334 . S
C1362 H1333 0.950 . S
C1362 C1361 1.334 . S
C1362 C1363 1.287 . S
C1363 C1362 1.287 . S
C1363 C1364 1.524 . S
C1363 H1366 0.999 . S
C1364 H1334 0.950 . S
C1364 C1363 1.524 . S
C1364 C1365 1.415 . S
C1365 H1335 0.950 . S
C1365 C1360 1.363 . S
C1365 C1364 1.415 . S
H1366 C1363 0.999 . S
H1367 C1348 0.913 . S
C187 C9 0.561 . S
C202 C103 0.555 . S
C237 C23 0.562 . S
C252 C117 0.555 . S
C287 C37 0.562 . S
C302 C89 0.555 . S
C337 C159 0.555 . S
C352 C51 0.561 . S
C387 C65 0.562 . S
C402 C131 0.555 . S
C437 C145 0.555 . S
C452 C79 0.563 . S
C487 C19 0.555 . S
C502 C93 0.563 . S
C537 C107 0.563 . S
C552 C33 0.555 . S
C587 C5 0.555 . S
C602 C121 0.563 . S
C637 C135 0.562 . S
C652 C75 0.555 . S
C687 C149 0.562 . S
C702 C47 0.555 . S
C737 C61 0.555 . S
C752 C163 0.562 . S
C787 C81 1.565 . S
C802 C11 1.565 . S
C837 C25 1.564 . S
C852 C53 1.565 . S
C887 C39 1.565 . S
C902 C67 1.566 . S
C937 C95 1.564 . S
C952 C165 1.565 . S
C987 C109 1.564 . S
C1002 C137 1.565 . S
C1037 C123 1.565 . S
C1052 C151 1.565 . S
C1087 C0 1.593 . S
C1102 C84 1.593 . S
C1137 C14 1.593 . S
C1152 C98 1.593 . S
C1187 C28 1.593 . S
C1202 C112 1.593 . S
C1237 C42 1.593 . S
C1252 C126 1.593 . S
C1287 C140 1.593 . S
C1302 C56 1.593 . S
C1337 C70 1.593 . S
C1352 C154 1.593 . S
