# Generated by pormake.
# Topology acs-g, (3)-cn, num edge types: 1
# Building blocks:
#     Node 0, Type 0, BuildingBlock: OLANEW_clean_sbu_2, # of connection points: 3
#     Node 1, Type 0, BuildingBlock: OLANEW_clean_sbu_2, # of connection points: 3
#     Node 2, Type 0, BuildingBlock: OLANEW_clean_sbu_2, # of connection points: 3
#     Node 3, Type 0, BuildingBlock: OLANEW_clean_sbu_2, # of connection points: 3
#     Node 4, Type 0, BuildingBlock: OLANEW_clean_sbu_2, # of connection points: 3
#     Node 5, Type 0, BuildingBlock: OLANEW_clean_sbu_2, # of connection points: 3
#     Node 6, Type 0, BuildingBlock: OLANEW_clean_sbu_2, # of connection points: 3
#     Node 7, Type 0, BuildingBlock: OLANEW_clean_sbu_2, # of connection points: 3
#     Node 8, Type 0, BuildingBlock: OLANEW_clean_sbu_2, # of connection points: 3
#     Node 9, Type 0, BuildingBlock: OLANEW_clean_sbu_2, # of connection points: 3
#     Node 10, Type 0, BuildingBlock: OLANEW_clean_sbu_2, # of connection points: 3
#     Node 11, Type 0, BuildingBlock: OLANEW_clean_sbu_2, # of connection points: 3
#     Edge 12, Type (0, 0), BuildingBlock: ZUJKAS_clean_linker_0, # of connection points: 2
#     Edge 13, Type (0, 0), BuildingBlock: ZUJKAS_clean_linker_0, # of connection points: 2
#     Edge 14, Type (0, 0), BuildingBlock: ZUJKAS_clean_linker_0, # of connection points: 2
#     Edge 15, Type (0, 0), BuildingBlock: ZUJKAS_clean_linker_0, # of connection points: 2
#     Edge 16, Type (0, 0), BuildingBlock: ZUJKAS_clean_linker_0, # of connection points: 2
#     Edge 17, Type (0, 0), BuildingBlock: ZUJKAS_clean_linker_0, # of connection points: 2
#     Edge 18, Type (0, 0), BuildingBlock: ZUJKAS_clean_linker_0, # of connection points: 2
#     Edge 19, Type (0, 0), BuildingBlock: ZUJKAS_clean_linker_0, # of connection points: 2
#     Edge 20, Type (0, 0), BuildingBlock: ZUJKAS_clean_linker_0, # of connection points: 2
#     Edge 21, Type (0, 0), BuildingBlock: ZUJKAS_clean_linker_0, # of connection points: 2
#     Edge 22, Type (0, 0), BuildingBlock: ZUJKAS_clean_linker_0, # of connection points: 2
#     Edge 23, Type (0, 0), BuildingBlock: ZUJKAS_clean_linker_0, # of connection points: 2
#     Edge 24, Type (0, 0), BuildingBlock: ZUJKAS_clean_linker_0, # of connection points: 2
#     Edge 25, Type (0, 0), BuildingBlock: ZUJKAS_clean_linker_0, # of connection points: 2
#     Edge 26, Type (0, 0), BuildingBlock: ZUJKAS_clean_linker_0, # of connection points: 2
#     Edge 27, Type (0, 0), BuildingBlock: ZUJKAS_clean_linker_0, # of connection points: 2
#     Edge 28, Type (0, 0), BuildingBlock: ZUJKAS_clean_linker_0, # of connection points: 2
#     Edge 29, Type (0, 0), BuildingBlock: ZUJKAS_clean_linker_0, # of connection points: 2
# Relax obj value: 0.001
# Max RMSD: 0.052
# Mean RMSD: 0.052
data_MOF--net-acs-g--node1-OLANEW_clean_sbu_2--edge1-ZUJKAS_clean_linker_0
_symmetry_space_group_name_H-M    P1
_symmetry_Int_Tables_number       1
_symmetry_cell_setting            triclinic
loop_
_symmetry_equiv_pos_as_xyz
'x, y, z'
_cell_length_a     69.094891
_cell_length_b     69.087102
_cell_length_c     60.350424
_cell_angle_alpha  89.940879
_cell_angle_beta   89.9259
_cell_angle_gamma 120.00407
loop_
_atom_site_label
_atom_site_type_symbol
_atom_site_fract_x
_atom_site_fract_y
_atom_site_fract_z
_atom_type_partial_charge
O0 O 0.3832 0.41817 0.17725 0.0
Cd1 Cd 0.34825 0.39189 0.15882 0.0
O2 O 0.36807 0.41126 0.21054 0.0
Cd3 Cd 0.33332 0.39047 0.20024 0.0
O4 O 0.29844 0.38175 0.20447 0.0
C5 C 0.29435 0.39769 0.2026 0.0
O6 O 0.31075 0.41759 0.197 0.0
C7 C 0.38518 0.42124 0.1981 0.0
C8 C 0.35509 0.38565 0.11431 0.0
O9 O 0.35701 0.37389 0.12966 0.0
O10 O 0.34993 0.40038 0.11999 0.0
O11 O 0.95366 0.38522 0.67418 0.0
Cd12 Cd 0.93905 0.34965 0.65458 0.0
O13 O 0.94505 0.37004 0.70744 0.0
Cd14 Cd 0.9282 0.33503 0.69725 0.0
O15 O 0.90159 0.30093 0.7045 0.0
C16 C 0.88466 0.29963 0.71425 0.0
O17 O 0.88432 0.31818 0.71814 0.0
C18 C 0.9535 0.3873 0.69511 0.0
C19 C 0.95543 0.35597 0.61121 0.0
O20 O 0.93827 0.35768 0.61601 0.0
O21 O 0.96484 0.35121 0.6269 0.0
O22 O 0.56529 0.95281 0.173 0.0
Cd23 Cd 0.58691 0.93928 0.15275 0.0
O24 O 0.57322 0.94514 0.20606 0.0
Cd25 Cd 0.59203 0.92912 0.19537 0.0
O26 O 0.59969 0.90264 0.20263 0.0
C27 C 0.58342 0.88483 0.21048 0.0
O28 O 0.56388 0.88358 0.21244 0.0
C29 C 0.56355 0.95285 0.19398 0.0
C30 C 0.59589 0.95558 0.10928 0.0
O31 O 0.5774 0.93806 0.11433 0.0
O32 O 0.6102 0.96541 0.12476 0.0
O33 O 0.61307 0.56206 0.67365 0.0
Cd34 Cd 0.6482 0.58344 0.65324 0.0
O35 O 0.62593 0.5799 0.70519 0.0
Cd36 Cd 0.66074 0.59872 0.69439 0.0
O37 O 0.69531 0.60687 0.69959 0.0
C38 C 0.69843 0.59031 0.70157 0.0
O39 O 0.68128 0.57005 0.69911 0.0
C40 C 0.60984 0.56521 0.69376 0.0
C41 C 0.64096 0.59306 0.61004 0.0
O42 O 0.63975 0.5744 0.61478 0.0
O43 O 0.64563 0.60722 0.62571 0.0
O44 O 0.04363 0.61219 0.17475 0.0
Cd45 Cd 0.05731 0.64676 0.15336 0.0
O46 O 0.04367 0.62743 0.20679 0.0
Cd47 Cd 0.05954 0.66183 0.19474 0.0
O48 O 0.08524 0.69696 0.19841 0.0
C49 C 0.10331 0.70033 0.20737 0.0
O50 O 0.10528 0.68297 0.21278 0.0
C51 C 0.03974 0.61032 0.19549 0.0
C52 C 0.04025 0.63841 0.11026 0.0
O53 O 0.05769 0.63727 0.11518 0.0
O54 O 0.03086 0.64352 0.1257 0.0
O55 O 0.41983 0.03903 0.67515 0.0
Cd56 Cd 0.39577 0.05011 0.6558 0.0
O57 O 0.41528 0.05017 0.70795 0.0
Cd58 Cd 0.39555 0.0654 0.69781 0.0
O59 O 0.38685 0.09109 0.70545 0.0
C60 C 0.40029 0.10604 0.71874 0.0
O61 O 0.41766 0.10491 0.72589 0.0
C62 C 0.42364 0.04112 0.69587 0.0
C63 C 0.38856 0.03528 0.61186 0.0
O64 O 0.4051 0.05442 0.61708 0.0
O65 O 0.37539 0.02319 0.62741 0.0
O66 O 0.56474 0.60817 0.32431 0.0
Cd67 Cd 0.58519 0.64319 0.34495 0.0
O68 O 0.58042 0.6226 0.29214 0.0
Cd69 Cd 0.59823 0.6573 0.30329 0.0
O70 O 0.60543 0.69163 0.29835 0.0
C71 C 0.58854 0.6942 0.29637 0.0
O72 O 0.56849 0.67667 0.29869 0.0
C73 C 0.56711 0.60577 0.30376 0.0
C74 C 0.59525 0.63608 0.38802 0.0
O75 O 0.57627 0.63418 0.3834 0.0
O76 O 0.60951 0.64136 0.37228 0.0
O77 O 0.95259 0.56809 0.8229 0.0
Cd78 Cd 0.93795 0.5883 0.84388 0.0
O79 O 0.95442 0.58434 0.79095 0.0
Cd80 Cd 0.93708 0.60174 0.80203 0.0
O81 O 0.90968 0.60811 0.79515 0.0
C82 C 0.89207 0.59144 0.78758 0.0
O83 O 0.89152 0.57222 0.78568 0.0
C84 C 0.95774 0.57083 0.80244 0.0
C85 C 0.95441 0.5967 0.88721 0.0
O86 O 0.93719 0.57806 0.88201 0.0
O87 O 0.96383 0.61145 0.87195 0.0
O88 O 0.38012 0.9514 0.3232 0.0
Cd89 Cd 0.34516 0.93946 0.34338 0.0
O90 O 0.36566 0.95135 0.2907 0.0
Cd91 Cd 0.3309 0.9355 0.30169 0.0
O92 O 0.29623 0.9096 0.29573 0.0
C93 C 0.28863 0.90881 0.27636 0.0
O94 O 0.30137 0.92417 0.26188 0.0
C95 C 0.38245 0.95509 0.30244 0.0
C96 C 0.35279 0.95552 0.38688 0.0
O97 O 0.35114 0.93666 0.38217 0.0
O98 O 0.35084 0.96678 0.37103 0.0
O99 O 0.42431 0.38212 0.82286 0.0
Cd100 Cd 0.39727 0.34708 0.84084 0.0
O101 O 0.40829 0.37202 0.79015 0.0
Cd102 Cd 0.38666 0.33695 0.79911 0.0
O103 O 0.37732 0.30199 0.79418 0.0
C104 C 0.39229 0.29687 0.79802 0.0
O105 O 0.41162 0.31228 0.80595 0.0
C106 C 0.42312 0.38675 0.80267 0.0
C107 C 0.39062 0.35362 0.88531 0.0
O108 O 0.40511 0.34809 0.87974 0.0
O109 O 0.37926 0.35602 0.86987 0.0
O110 O 0.04269 0.42859 0.32496 0.0
Cd111 Cd 0.05688 0.40709 0.3443 0.0
O112 O 0.04456 0.41671 0.29162 0.0
Cd113 Cd 0.06079 0.39785 0.30152 0.0
O114 O 0.08685 0.38952 0.29459 0.0
C115 C 0.10394 0.40483 0.28472 0.0
O116 O 0.1047 0.42387 0.28051 0.0
C117 C 0.03961 0.42838 0.30416 0.0
C118 C 0.04107 0.39754 0.38789 0.0
O119 O 0.05844 0.41617 0.38287 0.0
O120 O 0.0312 0.38335 0.37232 0.0
O121 O 0.60709 0.0426 0.82215 0.0
Cd122 Cd 0.64238 0.05709 0.84231 0.0
O123 O 0.62051 0.0391 0.79025 0.0
Cd124 Cd 0.65532 0.05565 0.80102 0.0
O125 O 0.68985 0.08248 0.79642 0.0
C126 C 0.69319 0.10232 0.79668 0.0
O127 O 0.67627 0.10539 0.80097 0.0
C128 C 0.60413 0.03678 0.80189 0.0
C129 C 0.63582 0.04065 0.88568 0.0
O130 O 0.63405 0.05776 0.88083 0.0
O131 O 0.6407 0.03128 0.87003 0.0
H132 H 0.2581 0.36026 0.21973 0.0
H133 H 0.22262 0.35656 0.23224 0.0
H134 H 0.2453 0.42451 0.21213 0.0
H135 H 0.28056 0.42831 0.19944 0.0
H136 H 0.21752 0.38251 0.26496 0.0
H137 H 0.18291 0.39027 0.1849 0.0
H138 H 0.20533 0.38405 0.18664 0.0
H139 H 0.21106 0.41237 0.18939 0.0
C140 C 0.2554 0.37431 0.21768 0.0
C141 C 0.27216 0.39458 0.20855 0.0
C142 C 0.23514 0.37217 0.22488 0.0
C143 C 0.23122 0.39016 0.22285 0.0
C144 C 0.24778 0.41027 0.21344 0.0
H145 H 0.14242 0.43471 0.2638 0.0
H146 H 0.17193 0.42857 0.24949 0.0
C147 C 0.26801 0.41244 0.2063 0.0
C148 C 0.21048 0.38861 0.23175 0.0
H149 H 0.16709 0.39649 0.21765 0.0
C150 C 0.20625 0.38519 0.2546 0.0
C151 C 0.19582 0.39207 0.21817 0.0
C152 C 0.19885 0.39468 0.19338 0.0
C153 C 0.1884 0.38635 0.26441 0.0
C154 C 0.17429 0.39072 0.25093 0.0
C155 C 0.17803 0.39327 0.22797 0.0
C156 C 0.15643 0.39416 0.26038 0.0
C157 C 0.1854 0.38394 0.28922 0.0
C158 C 0.13791 0.37682 0.27131 0.0
C159 C 0.12094 0.3803 0.27961 0.0
C160 C 0.12221 0.40114 0.27698 0.0
C161 C 0.14088 0.41846 0.26613 0.0
C162 C 0.15777 0.41497 0.25789 0.0
H163 H 0.20016 0.38489 0.29762 0.0
H164 H 0.18242 0.39713 0.2961 0.0
H165 H 0.17061 0.36748 0.29318 0.0
H166 H 0.1364 0.36052 0.27312 0.0
H167 H 0.10672 0.36659 0.28779 0.0
H168 H 0.70555 0.1465 0.79663 0.0
H169 H 0.74061 0.17798 0.78337 0.0
H170 H 0.76571 0.1334 0.76899 0.0
H171 H 0.7305 0.10163 0.7821 0.0
H172 H 0.7854 0.19337 0.79773 0.0
H173 H 0.77201 0.16622 0.70952 0.0
H174 H 0.7497 0.15479 0.72971 0.0
H175 H 0.77025 0.14614 0.72959 0.0
C176 C 0.71853 0.14334 0.79076 0.0
C177 C 0.71516 0.12152 0.79029 0.0
C178 C 0.73857 0.16137 0.7832 0.0
C179 C 0.75559 0.15795 0.7749 0.0
C180 C 0.7526 0.13631 0.77499 0.0
H181 H 0.881 0.25819 0.71187 0.0
H182 H 0.85097 0.22291 0.72711 0.0
C183 C 0.73254 0.11822 0.78262 0.0
C184 C 0.77627 0.17716 0.76595 0.0
H185 H 0.8048 0.19996 0.71783 0.0
C186 C 0.78975 0.19476 0.7803 0.0
C187 C 0.78193 0.17884 0.74321 0.0
C188 C 0.76769 0.16061 0.727 0.0
C189 C 0.80856 0.21419 0.77245 0.0
C190 C 0.81375 0.21624 0.74957 0.0
C191 C 0.80072 0.19834 0.73534 0.0
C192 C 0.83178 0.23737 0.73996 0.0
C193 C 0.82269 0.23239 0.78874 0.0
C194 C 0.83063 0.25702 0.74167 0.0
C195 C 0.84767 0.2771 0.73302 0.0
C196 C 0.86617 0.27795 0.72231 0.0
C197 C 0.86701 0.25811 0.72008 0.0
C198 C 0.8499 0.23796 0.72879 0.0
H199 H 0.82066 0.22572 0.80587 0.0
H200 H 0.84066 0.24075 0.78417 0.0
H201 H 0.8174 0.24514 0.78872 0.0
H202 H 0.81652 0.25682 0.74975 0.0
H203 H 0.84637 0.292 0.73488 0.0
H204 H 0.55572 0.70489 0.29197 0.0
H205 H 0.55934 0.73984 0.27835 0.0
H206 H 0.6306 0.76795 0.27202 0.0
H207 H 0.62714 0.73286 0.28551 0.0
H208 H 0.58546 0.78412 0.2953 0.0
H209 H 0.61038 0.77579 0.20961 0.0
H210 H 0.598 0.75258 0.22876 0.0
H211 H 0.62671 0.77395 0.23183 0.0
C212 C 0.5722 0.7185 0.28779 0.0
C213 C 0.59113 0.71602 0.2897 0.0
C214 C 0.57423 0.73848 0.28002 0.0
C215 C 0.59518 0.75633 0.27388 0.0
C216 C 0.61423 0.75421 0.27632 0.0
H217 H 0.62222 0.883 0.21245 0.0
H218 H 0.62717 0.85308 0.22844 0.0
C219 C 0.61223 0.7342 0.28417 0.0
C220 C 0.59679 0.777 0.26476 0.0
H221 H 0.60684 0.80732 0.21709 0.0
C222 C 0.59029 0.7893 0.27825 0.0
C223 C 0.60321 0.78376 0.24254 0.0
C224 C 0.60984 0.77081 0.22721 0.0
C225 C 0.58967 0.80797 0.27001 0.0
C226 C 0.59525 0.81422 0.24756 0.0
C227 C 0.6025 0.80242 0.23427 0.0
C228 C 0.59236 0.83211 0.2373 0.0
C229 C 0.58295 0.8208 0.28541 0.0
C230 C 0.57107 0.82993 0.23646 0.0
C231 C 0.56819 0.84689 0.22737 0.0
C232 C 0.58653 0.86637 0.21877 0.0
C233 C 0.60777 0.86824 0.219 0.0
C234 C 0.61064 0.8512 0.22815 0.0
H235 H 0.5857 0.8182 0.30304 0.0
H236 H 0.59242 0.83899 0.28172 0.0
H237 H 0.56488 0.81484 0.28326 0.0
H238 H 0.55665 0.81509 0.24295 0.0
H239 H 0.55157 0.8448 0.22731 0.0
H240 H 0.71024 0.55829 0.70601 0.0
H241 H 0.74547 0.56284 0.71981 0.0
H242 H 0.77172 0.63379 0.72637 0.0
H243 H 0.73634 0.62941 0.7127 0.0
H244 H 0.78969 0.59 0.70307 0.0
H245 H 0.77987 0.61373 0.78875 0.0
H246 H 0.75685 0.60097 0.76951 0.0
H247 H 0.77767 0.62991 0.76657 0.0
C248 C 0.7235 0.57491 0.71029 0.0
C249 C 0.72042 0.59347 0.70838 0.0
C250 C 0.74364 0.57746 0.71816 0.0
C251 C 0.76105 0.59858 0.72441 0.0
C252 C 0.75832 0.61729 0.72199 0.0
H253 H 0.88874 0.62942 0.7856 0.0
H254 H 0.85808 0.63316 0.76975 0.0
C255 C 0.73815 0.61476 0.71404 0.0
C256 C 0.78192 0.60075 0.73359 0.0
H257 H 0.81214 0.61144 0.7813 0.0
C258 C 0.7947 0.59483 0.72012 0.0
C259 C 0.78844 0.60717 0.75582 0.0
C260 C 0.77497 0.61318 0.77113 0.0
C261 C 0.81365 0.59481 0.72839 0.0
C262 C 0.8197 0.60042 0.75084 0.0
C263 C 0.80738 0.60708 0.76412 0.0
C264 C 0.83799 0.59822 0.76109 0.0
C265 C 0.82699 0.5887 0.71301 0.0
C266 C 0.83655 0.57725 0.762 0.0
C267 C 0.85394 0.57506 0.77101 0.0
C268 C 0.87312 0.59378 0.77946 0.0
C269 C 0.87424 0.61469 0.77917 0.0
C270 C 0.85676 0.61687 0.77011 0.0
H271 H 0.82428 0.5913 0.69537 0.0
H272 H 0.84514 0.59868 0.71666 0.0
H273 H 0.82161 0.57075 0.71524 0.0
H274 H 0.82196 0.56255 0.75561 0.0
H275 H 0.85242 0.55867 0.77112 0.0
H276 H 0.26845 0.90211 0.23601 0.0
H277 H 0.23457 0.86894 0.22324 0.0
H278 H 0.22605 0.83877 0.28774 0.0
H279 H 0.25981 0.87201 0.30077 0.0
H280 H 0.22909 0.82672 0.22154 0.0
H281 H 0.16316 0.82699 0.27375 0.0
H282 H 0.19057 0.8513 0.27049 0.0
H283 H 0.18636 0.82934 0.28934 0.0
C284 C 0.2592 0.88858 0.24761 0.0
C285 C 0.26688 0.8897 0.26941 0.0
C286 C 0.23984 0.86963 0.24026 0.0
C287 C 0.22767 0.85148 0.25458 0.0
C288 C 0.23493 0.85276 0.27653 0.0
H289 H 0.14413 0.71249 0.22499 0.0
H290 H 0.17375 0.74991 0.23497 0.0
C291 C 0.25431 0.87173 0.28392 0.0
C292 C 0.20853 0.83053 0.24603 0.0
H293 H 0.15326 0.79298 0.25458 0.0
C294 C 0.21246 0.81946 0.22862 0.0
C295 C 0.1868 0.8212 0.25511 0.0
C296 C 0.18135 0.83291 0.27306 0.0
C297 C 0.19542 0.79893 0.22055 0.0
C298 C 0.17396 0.78908 0.23035 0.0
C299 C 0.16979 0.8005 0.24723 0.0
C300 C 0.15595 0.7665 0.22393 0.0
C301 C 0.20054 0.78792 0.20163 0.0
C302 C 0.13594 0.76337 0.21472 0.0
C303 C 0.11889 0.74191 0.20898 0.0
C304 C 0.12151 0.72323 0.21258 0.0
C305 C 0.14158 0.72649 0.22188 0.0
C306 C 0.15859 0.7479 0.22753 0.0
H307 H 0.21549 0.80016 0.19213 0.0
H308 H 0.20398 0.77499 0.20835 0.0
H309 H 0.18615 0.77965 0.19011 0.0
H310 H 0.13356 0.77753 0.21192 0.0
H311 H 0.1036 0.73995 0.20194 0.0
H312 H 0.42078 0.28087 0.80485 0.0
H313 H 0.41696 0.24572 0.79166 0.0
H314 H 0.35268 0.22742 0.76366 0.0
H315 H 0.3564 0.26272 0.77667 0.0
H316 H 0.38263 0.20056 0.8001 0.0
H317 H 0.38909 0.22358 0.71083 0.0
H318 H 0.39705 0.24399 0.73268 0.0
H319 H 0.36805 0.2254 0.72678 0.0
C320 C 0.40575 0.26935 0.79601 0.0
C321 C 0.38897 0.27469 0.79168 0.0
C322 C 0.40359 0.24925 0.7885 0.0
C323 C 0.3847 0.23415 0.77641 0.0
C324 C 0.36756 0.23904 0.77265 0.0
H325 H 0.36517 0.11272 0.70908 0.0
H326 H 0.35875 0.14229 0.72341 0.0
C327 C 0.36967 0.25916 0.78021 0.0
C328 C 0.38337 0.21355 0.76748 0.0
H329 H 0.38563 0.18876 0.71935 0.0
C330 C 0.3831 0.19787 0.78244 0.0
C331 C 0.38386 0.21006 0.74444 0.0
C332 C 0.38468 0.22667 0.72767 0.0
C333 C 0.38374 0.17896 0.77499 0.0
C334 C 0.38516 0.17593 0.75198 0.0
C335 C 0.3846 0.19117 0.73698 0.0
C336 C 0.38879 0.15793 0.74328 0.0
C337 C 0.38301 0.16246 0.79185 0.0
C338 C 0.40801 0.15722 0.74935 0.0
C339 C 0.41172 0.14044 0.74124 0.0
C340 C 0.39636 0.12407 0.72672 0.0
C341 C 0.37728 0.12503 0.7203 0.0
C342 C 0.37358 0.14189 0.72847 0.0
H343 H 0.37505 0.1633 0.80756 0.0
H344 H 0.37371 0.1451 0.78543 0.0
H345 H 0.40033 0.1665 0.79572 0.0
H346 H 0.42026 0.16976 0.76031 0.0
H347 H 0.42667 0.14033 0.74641 0.0
H348 H 0.39485 0.43152 0.24188 0.0
H349 H 0.4298 0.46054 0.2579 0.0
H350 H 0.46014 0.47647 0.19305 0.0
H351 H 0.42506 0.44758 0.17671 0.0
H352 H 0.47419 0.46809 0.25691 0.0
H353 H 0.46666 0.53585 0.21508 0.0
H354 H 0.44372 0.50748 0.21662 0.0
H355 H 0.46605 0.51479 0.19718 0.0
C356 C 0.40897 0.44105 0.23098 0.0
C357 C 0.40705 0.43737 0.20795 0.0
C358 C 0.42896 0.4576 0.24021 0.0
C359 C 0.44742 0.47085 0.22663 0.0
C360 C 0.44594 0.46664 0.20376 0.0
H361 H 0.56876 0.59459 0.2606 0.0
H362 H 0.54217 0.56038 0.24145 0.0
C363 C 0.42591 0.45007 0.19448 0.0
C364 C 0.46773 0.48976 0.23642 0.0
H365 H 0.49796 0.54674 0.23783 0.0
C366 C 0.47953 0.4853 0.25265 0.0
C367 C 0.47459 0.51218 0.23083 0.0
C368 C 0.46205 0.51799 0.21412 0.0
C369 C 0.49796 0.50271 0.26357 0.0
C370 C 0.50448 0.52512 0.25835 0.0
C371 C 0.49299 0.52954 0.24175 0.0
C372 C 0.52231 0.54436 0.27063 0.0
C373 C 0.5103 0.49694 0.28053 0.0
C374 C 0.5202 0.54658 0.2935 0.0
C375 C 0.53543 0.56611 0.30454 0.0
C376 C 0.55292 0.5839 0.29286 0.0
C377 C 0.55547 0.58126 0.27012 0.0
C378 C 0.54028 0.56171 0.25912 0.0
H379 H 0.50792 0.48 0.27764 0.0
H380 H 0.52848 0.50928 0.28031 0.0
H381 H 0.50371 0.49704 0.29727 0.0
H382 H 0.5062 0.53363 0.30264 0.0
H383 H 0.5329 0.56761 0.32203 0.0
H384 H 0.95468 0.3973 0.73907 0.0
H385 H 0.96294 0.43294 0.75535 0.0
H386 H 0.97866 0.46354 0.69061 0.0
H387 H 0.9701 0.42779 0.67402 0.0
H388 H 0.00084 0.47678 0.75463 0.0
H389 H 0.92699 0.47211 0.71252 0.0
H390 H 0.93146 0.44855 0.71398 0.0
H391 H 0.94716 0.47084 0.69468 0.0
C392 C 0.96014 0.41164 0.72826 0.0
C393 C 0.96143 0.40959 0.70517 0.0
C394 C 0.96491 0.43202 0.73763 0.0
C395 C 0.97104 0.45075 0.72414 0.0
C396 C 0.97358 0.44915 0.70125 0.0
H397 H 0.97138 0.57324 0.75944 0.0
H398 H 0.97896 0.54675 0.73996 0.0
C399 C 0.96876 0.42872 0.69182 0.0
C400 C 0.97317 0.47137 0.73399 0.0
H401 H 0.94786 0.50294 0.73561 0.0
C402 C 0.9894 0.48266 0.75036 0.0
C403 C 0.95818 0.47892 0.72842 0.0
C404 C 0.93983 0.46694 0.71158 0.0
C405 C 0.99092 0.50124 0.76145 0.0
C406 C 0.97553 0.50842 0.75626 0.0
C407 C 0.9597 0.49747 0.73949 0.0
C408 C 0.97446 0.52631 0.76882 0.0
C409 C 0.00894 0.513 0.77859 0.0
C410 C 0.9698 0.52386 0.79163 0.0
C411 C 0.96552 0.53902 0.80287 0.0
C412 C 0.96555 0.55679 0.79142 0.0
C413 C 0.97114 0.55972 0.76876 0.0
C414 C 0.97549 0.54459 0.75758 0.0
H415 H 0.02327 0.51025 0.77564 0.0
H416 H 0.01517 0.53125 0.77869 0.0
H417 H 0.002 0.5062 0.79523 0.0
H418 H 0.96841 0.50961 0.80057 0.0
H419 H 0.96119 0.53621 0.82029 0.0
H420 H 0.55563 0.95427 0.23818 0.0
H421 H 0.52762 0.96122 0.2552 0.0
H422 H 0.50995 0.97479 0.19089 0.0
H423 H 0.53777 0.96756 0.17357 0.0
H424 H 0.51967 -0.00211 0.25457 0.0
H425 H 0.4514 0.92182 0.21458 0.0
H426 H 0.47989 0.92756 0.21533 0.0
H427 H 0.47186 0.94208 0.19601 0.0
C428 C 0.546 0.95898 0.22762 0.0
C429 C 0.54876 0.96006 0.20445 0.0
C430 C 0.53002 0.96301 0.23742 0.0
C431 C 0.51647 0.96814 0.22427 0.0
C432 C 0.52 0.97047 0.20128 0.0
H433 H 0.39366 0.96688 0.25908 0.0
H434 H 0.42768 0.97372 0.23998 0.0
C435 C 0.53597 0.96641 0.19143 0.0
C436 C 0.49772 0.9695 0.23458 0.0
H437 H 0.44078 0.94264 0.23711 0.0
C438 C 0.5024 0.98592 0.25068 0.0
C439 C 0.47523 0.95378 0.22953 0.0
C440 C 0.46917 0.93518 0.21307 0.0
C441 C 0.48513 0.98705 0.26187 0.0
C442 C 0.46266 0.97109 0.25707 0.0
C443 C 0.45802 0.95493 0.2407 0.0
C444 C 0.44354 0.97006 0.26932 0.0
C445 C 0.49111 0.00536 0.27862 0.0
C446 C 0.44128 0.96606 0.29226 0.0
C447 C 0.42184 0.96221 0.30328 0.0
C448 C 0.40419 0.96203 0.2915 0.0
C449 C 0.40687 0.96682 0.26867 0.0
C450 C 0.42632 0.97075 0.2577 0.0
H451 H 0.50812 0.01977 0.27562 0.0
H452 H 0.47891 0.01138 0.2783 0.0
H453 H 0.49088 -0.00124 0.29545 0.0
H454 H 0.45413 0.96497 0.30148 0.0
H455 H 0.42029 0.95847 0.32084 0.0
H456 H 0.46096 0.41969 0.82248 0.0
H457 H 0.4907 0.45374 0.80526 0.0
H458 H 0.4534 0.43713 0.74426 0.0
H459 H 0.42358 0.40314 0.76128 0.0
H460 H 0.51433 0.45274 0.76726 0.0
H461 H 0.47435 0.5042 0.75289 0.0
H462 H 0.46364 0.48147 0.77265 0.0
H463 H 0.45834 0.47575 0.74357 0.0
C464 C 0.45888 0.42346 0.80553 0.0
C465 C 0.43991 0.40863 0.79323 0.0
C466 C 0.4759 0.44292 0.79572 0.0
C467 C 0.47414 0.44804 0.77357 0.0
C468 C 0.45491 0.43369 0.76149 0.0
H469 H 0.57343 0.52859 0.67615 0.0
H470 H 0.53953 0.5014 0.69572 0.0
C471 C 0.43794 0.41418 0.77123 0.0
C472 C 0.49329 0.46714 0.76244 0.0
H473 H 0.50912 0.51592 0.73453 0.0
C474 C 0.51326 0.46665 0.76028 0.0
C475 C 0.49178 0.48522 0.75331 0.0
C476 C 0.47095 0.48689 0.75584 0.0
C477 C 0.53162 0.48352 0.74882 0.0
C478 C 0.52996 0.50132 0.73933 0.0
C479 C 0.51018 0.5021 0.74175 0.0
C480 C 0.54886 0.51917 0.72686 0.0
C481 C 0.55269 0.48221 0.74663 0.0
C482 C 0.56497 0.53831 0.73787 0.0
C483 C 0.58439 0.55384 0.72681 0.0
C484 C 0.58798 0.55046 0.70452 0.0
C485 C 0.57122 0.53173 0.69328 0.0
C486 C 0.55183 0.51618 0.7044 0.0
H487 H 0.5516 0.46769 0.7557 0.0
H488 H 0.55597 0.48079 0.72886 0.0
H489 H 0.56715 0.49776 0.75307 0.0
H490 H 0.5629 0.54079 0.75524 0.0
H491 H 0.59691 0.5681 0.73595 0.0
H492 H 0.02869 0.60027 0.23919 0.0
H493 H 0.02193 0.56658 0.259 0.0
H494 H 0.02831 0.53804 0.19784 0.0
H495 H 0.03483 0.57158 0.17776 0.0
H496 H 0.99332 0.50694 0.2269 0.0
H497 H 0.07506 0.55615 0.26957 0.0
H498 H 0.05619 0.56678 0.27256 0.0
H499 H 0.06742 0.56663 0.24573 0.0
C500 C 0.02837 0.58673 0.22986 0.0
C501 C 0.0326 0.58876 0.20691 0.0
C502 C 0.02456 0.56752 0.24124 0.0
C503 C 0.02506 0.55004 0.22994 0.0
C504 C 0.02798 0.55142 0.20687 0.0
H505 H 0.03192 0.43239 0.2604 0.0
H506 H 0.02491 0.46039 0.24353 0.0
C507 C 0.03173 0.57062 0.19543 0.0
C508 C 0.02411 0.53107 0.24234 0.0
H509 H 0.05324 0.51826 0.27948 0.0
C510 C 0.00635 0.50937 0.23847 0.0
C511 C 0.04117 0.53434 0.25739 0.0
C512 C 0.06116 0.55718 0.26149 0.0
C513 C 0.00517 0.4908 0.24935 0.0
C514 C 0.0224 0.49407 0.26416 0.0
C515 C 0.03996 0.51582 0.26825 0.0
C516 C 0.0235 0.47521 0.27462 0.0
C517 C 0.98546 0.4679 0.24499 0.0
C518 C 0.02503 0.4742 0.29775 0.0
C519 C 0.02921 0.45828 0.30748 0.0
C520 C 0.03214 0.44319 0.29424 0.0
C521 C 0.02973 0.44371 0.27112 0.0
C522 C 0.02554 0.45963 0.26142 0.0
H523 H 0.97082 0.4689 0.23888 0.0
H524 H 0.99007 0.4595 0.23207 0.0
H525 H 0.98051 0.4574 0.26018 0.0
H526 H 0.02364 0.48618 0.30822 0.0
H527 H 0.03096 0.45836 0.32532 0.0
H528 H 0.43493 0.04311 0.73952 0.0
H529 H 0.46271 0.03539 0.75571 0.0
H530 H 0.47459 0.01572 0.69165 0.0
H531 H 0.44693 0.02368 0.67513 0.0
H532 H 0.46701 0.99644 0.75652 0.0
H533 H 0.53636 0.0671 0.71068 0.0
H534 H 0.50879 0.06377 0.71268 0.0
H535 H 0.51395 0.04661 0.694 0.0
C536 C 0.44329 0.03697 0.72884 0.0
C537 C 0.43886 0.03426 0.70595 0.0
C538 C 0.45912 0.0325 0.73817 0.0
C539 C 0.47092 0.0253 0.72483 0.0
C540 C 0.4659 0.02162 0.70216 0.0
H541 H 0.59171 0.02189 0.75942 0.0
H542 H 0.55763 0.01485 0.74035 0.0
C543 C 0.45003 0.0261 0.69277 0.0
C544 C 0.48927 0.0229 0.73459 0.0
H545 H 0.54603 0.0466 0.73471 0.0
C546 C 0.48429 0.00726 0.75165 0.0
C547 C 0.51178 0.03706 0.7282 0.0
C548 C 0.51818 0.05472 0.71052 0.0
C549 C 0.50128 0.00554 0.76266 0.0
C550 C 0.52383 0.02015 0.75669 0.0
C551 C 0.52873 0.03537 0.73922 0.0
C552 C 0.54281 0.02108 0.76909 0.0
C553 C 0.49493 0.98812 0.78055 0.0
C554 C 0.54564 0.02655 0.79171 0.0
C555 C 0.56508 0.03051 0.80271 0.0
C556 C 0.5822 0.02935 0.79122 0.0
C557 C 0.5789 0.023 0.76878 0.0
C558 C 0.55943 0.01896 0.75783 0.0
H559 H 0.47761 0.97402 0.77825 0.0
H560 H 0.50654 0.9814 0.78086 0.0
H561 H 0.49568 0.99582 0.79689 0.0
H562 H 0.53329 0.02878 0.80063 0.0
H563 H 0.5671 0.03546 0.81995 0.0
H564 H 0.34704 0.40394 0.07771 0.0
H565 H 0.35256 0.39794 0.03881 0.0
H566 H 0.37756 0.35453 0.05872 0.0
H567 H 0.3715 0.35993 0.09759 0.0
H568 H 0.39005 0.40731 0.01648 0.0
H569 H 0.33115 0.31598 0.01386 0.0
H570 H 0.33193 0.33315 0.03672 0.0
H571 H 0.35202 0.32386 0.03495 0.0
C572 C 0.3536 0.39302 0.0738 0.0
C573 C 0.35867 0.38227 0.09074 0.0
C574 C 0.35677 0.38962 0.05156 0.0
C575 C 0.36508 0.37545 0.0458 0.0
C576 C 0.37055 0.36504 0.0627 0.0
H577 H 0.4078 0.34442 0.92205 0.0
H578 H 0.40172 0.3501 0.96096 0.0
C579 C 0.36721 0.36827 0.08494 0.0
C580 C 0.36854 0.37203 0.02214 0.0
H581 H 0.35524 0.33186 0.98266 0.0
C582 C 0.38232 0.39083 0.00907 0.0
C583 C 0.35839 0.35049 0.01243 0.0
C584 C 0.34237 0.32974 0.02515 0.0
C585 C 0.38651 0.38863 0.9867 0.0
C586 C 0.37665 0.36712 0.97717 0.0
C587 C 0.36286 0.34832 0.99014 0.0
C588 C 0.38035 0.36382 0.95366 0.0
C589 C 0.40169 0.40925 0.9734 0.0
C590 C 0.37018 0.36952 0.93677 0.0
C591 C 0.37346 0.36615 0.91455 0.0
C592 C 0.38709 0.35713 0.90885 0.0
C593 C 0.39726 0.35146 0.92587 0.0
C594 C 0.3938 0.35466 0.9481 0.0
H595 H 0.41055 0.42435 0.98399 0.0
H596 H 0.41425 0.40681 0.96424 0.0
H597 H 0.39163 0.41227 0.961 0.0
H598 H 0.3596 0.37646 0.9408 0.0
H599 H 0.36538 0.3707 0.90185 0.0
H600 H 0.05169 0.42698 0.4221 0.0
H601 H 0.03719 0.41896 0.45997 0.0
H602 H -0.0026 0.34893 0.44391 0.0
H603 H 0.01115 0.35701 0.40573 0.0
H604 H 0.97355 0.36154 0.46692 0.0
H605 H 0.05452 0.39272 0.50964 0.0
H606 H 0.05429 0.41393 0.49272 0.0
H607 H 0.0518 0.3892 0.47999 0.0
C608 C 0.03994 0.40986 0.42667 0.0
C609 C 0.03264 0.39261 0.41095 0.0
C610 C 0.03178 0.40526 0.44839 0.0
C611 C 0.01658 0.38326 0.455 0.0
C612 C 0.00921 0.36603 0.43927 0.0
H613 H 0.98478 0.34444 0.59373 0.0
H614 H -0.00125 0.34985 0.55564 0.0
C615 C 0.0171 0.37066 0.41745 0.0
C616 C 0.00774 0.3783 0.47804 0.0
H617 H 0.02345 0.38607 0.53242 0.0
C618 C 0.98448 0.36676 0.48124 0.0
C619 C 0.02194 0.38474 0.49678 0.0
C620 C 0.04701 0.39561 0.49463 0.0
C621 C 0.97505 0.36186 0.50256 0.0
C622 C 0.98927 0.3694 0.52129 0.0
C623 C 0.01252 0.38054 0.5181 0.0
C624 C 0.98043 0.36584 0.54432 0.0
C625 C 0.94994 0.34824 0.50471 0.0
C626 C 0.96566 0.37323 0.55077 0.0
C627 C 0.95738 0.36983 0.57243 0.0
C628 C 0.96411 0.35944 0.58824 0.0
C629 C 0.97927 0.35249 0.58192 0.0
C630 C 0.98728 0.35559 0.56015 0.0
H631 H 0.94222 0.33784 0.48976 0.0
H632 H 0.94486 0.33708 0.51942 0.0
H633 H 0.94312 0.35969 0.5065 0.0
H634 H 0.96067 0.38183 0.5391 0.0
H635 H 0.94594 0.37563 0.57686 0.0
H636 H 0.61614 0.05016 0.92001 0.0
H637 H 0.61014 0.03564 0.95785 0.0
H638 H 0.64231 -0.00229 0.94142 0.0
H639 H 0.64751 0.01146 0.90327 0.0
H640 H 0.60627 0.97303 0.96482 0.0
H641 H 0.65431 0.05455 0.00705 0.0
H642 H 0.63233 0.0534 0.99035 0.0
H643 H 0.65497 0.05175 0.97739 0.0
C644 C 0.62201 0.03879 0.92448 0.0
C645 C 0.6324 0.03204 0.90867 0.0
C646 C 0.61873 0.03063 0.94619 0.0
C647 C 0.62624 0.01598 0.95269 0.0
C648 C 0.63648 0.00909 0.93686 0.0
H649 H 0.63617 0.98589 0.09124 0.0
H650 H 0.64388 -0.00032 0.05306 0.0
C651 C 0.63946 0.01698 0.91506 0.0
C652 C 0.62281 0.00727 0.97578 0.0
H653 H 0.6309 0.02327 0.03007 0.0
C654 C 0.61181 0.98403 0.97908 0.0
C655 C 0.63038 0.02159 0.99443 0.0
C656 C 0.64387 0.0467 0.99215 0.0
C657 C 0.60779 0.97473 0.00045 0.0
C658 C 0.61425 0.98903 0.01912 0.0
C659 C 0.62565 0.01227 0.01581 0.0
C660 C 0.6095 0.98029 0.04221 0.0
C661 C 0.59708 0.94969 0.00272 0.0
C662 C 0.58758 0.96498 0.04897 0.0
C663 C 0.5832 0.9568 0.07069 0.0
C664 C 0.60058 0.96417 0.08626 0.0
C665 C 0.62243 0.97987 0.07963 0.0
C666 C 0.62685 0.98778 0.05781 0.0
H667 H 0.59992 0.94214 0.9877 0.0
H668 H 0.60366 0.94503 0.01732 0.0
H669 H 0.57876 0.9423 0.00476 0.0
H670 H 0.57379 0.95947 0.03749 0.0
H671 H 0.56614 0.94493 0.07535 0.0
H672 H 0.62179 0.56377 0.57576 0.0
H673 H 0.61488 0.57196 0.53815 0.0
H674 H 0.64492 0.64185 0.55472 0.0
H675 H 0.65105 0.63361 0.59265 0.0
H676 H 0.6082 0.62914 0.53206 0.0
H677 H 0.65825 0.5988 0.48823 0.0
H678 H 0.63698 0.57741 0.50519 0.0
H679 H 0.65919 0.60215 0.5179 0.0
C680 C 0.62701 0.58091 0.57136 0.0
C681 C 0.63707 0.59807 0.58715 0.0
C682 C 0.6232 0.58559 0.54978 0.0
C683 C 0.62984 0.60761 0.54339 0.0
C684 C 0.63977 0.62475 0.55919 0.0
H685 H 0.63622 0.64766 0.40522 0.0
H686 H 0.64491 0.64192 0.44311 0.0
C687 C 0.64328 0.62002 0.58087 0.0
C688 C 0.62578 0.61268 0.52047 0.0
H689 H 0.63365 0.60548 0.46588 0.0
C690 C 0.61392 0.62411 0.51759 0.0
C691 C 0.63357 0.60649 0.50154 0.0
C692 C 0.64791 0.59575 0.50335 0.0
C693 C 0.60925 0.62912 0.4964 0.0
C694 C 0.61596 0.62183 0.47747 0.0
C695 C 0.62822 0.61081 0.48034 0.0
C696 C 0.61059 0.62557 0.45455 0.0
C697 C 0.59758 0.64259 0.49459 0.0
C698 C 0.5884 0.61807 0.44823 0.0
C699 C 0.58344 0.62166 0.42668 0.0
C700 C 0.60053 0.63235 0.41085 0.0
C701 C 0.62268 0.63939 0.41704 0.0
C702 C 0.62766 0.6361 0.43869 0.0
H703 H 0.60019 0.65281 0.50968 0.0
H704 H 0.60359 0.65392 0.47999 0.0
H705 H 0.57934 0.63106 0.49281 0.0
H706 H 0.57484 0.60927 0.45992 0.0
H707 H 0.56617 0.61579 0.42236 0.0
H708 H 0.01001 0.64839 0.09221 0.0
H709 H 0.99551 0.64131 0.05436 0.0
H710 H 0.03505 0.6106 0.03906 0.0
H711 H 0.0503 0.61846 0.07662 0.0
H712 H 0.03783 0.63717 0.00661 0.0
H713 H 0.94853 0.5837 0.02846 0.0
H714 H 0.96056 0.61072 0.04112 0.0
H715 H 0.97054 0.59199 0.04858 0.0
C716 C 0.01555 0.64005 0.0808 0.0
C717 C 0.03122 0.63389 0.08743 0.0
C718 C 0.00712 0.63586 0.0592 0.0
C719 C 0.01379 0.62496 0.04395 0.0
C720 C 0.02955 0.61893 0.05053 0.0
H721 H 0.94453 0.56626 0.92042 0.0
H722 H 0.95966 0.5732 0.95802 0.0
C723 C 0.03825 0.62341 0.07202 0.0
C724 C 0.00485 0.62037 0.02097 0.0
H725 H 0.95651 0.5962 0.99097 0.0
C726 C 0.02004 0.62809 0.0032 0.0
C727 C 0.98164 0.60821 0.01647 0.0
C728 C 0.96439 0.59797 0.03467 0.0
C729 C 0.01271 0.62425 0.98111 0.0
C730 C 0.98949 0.61302 0.97661 0.0
C731 C 0.9743 0.60505 0.99438 0.0
C732 C 0.98055 0.60896 0.95363 0.0
C733 C 0.02998 0.63179 0.96288 0.0
C734 C 0.98703 0.62676 0.93866 0.0
C735 C 0.97867 0.62277 0.91704 0.0
C736 C 0.96325 0.60097 0.91011 0.0
C737 C 0.95638 0.58325 0.92526 0.0
C738 C 0.96501 0.5872 0.94677 0.0
H739 H 0.04594 0.6335 0.96896 0.0
H740 H 0.02397 0.61989 0.94878 0.0
H741 H 0.03358 0.6484 0.95672 0.0
H742 H -0.00154 0.64377 0.94373 0.0
H743 H 0.98409 0.63681 0.90583 0.0
H744 H 0.35649 0.99453 0.40209 0.0
H745 H 0.36316 0.00851 0.44017 0.0
H746 H 0.36446 0.94971 0.46196 0.0
H747 H 0.35802 0.93568 0.42391 0.0
H748 H 0.3372 0.98856 0.47804 0.0
H749 H 0.42271 0.0012 0.48717 0.0
H750 H 0.40928 -0.00281 0.46058 0.0
H751 H 0.40213 0.97365 0.47834 0.0
C752 C 0.35828 0.98459 0.41496 0.0
C753 C 0.35682 0.96402 0.40994 0.0
C754 C 0.36206 0.99261 0.43671 0.0
C755 C 0.3646 0.9803 0.45383 0.0
C756 C 0.36297 0.95968 0.44893 0.0
H757 H 0.35486 0.99576 0.59562 0.0
H758 H 0.34893 0.98268 0.55725 0.0
C759 C 0.35917 0.95164 0.42718 0.0
C760 C 0.36848 0.98883 0.47689 0.0
H761 H 0.40555 0.00494 0.51976 0.0
C762 C 0.35216 0.9922 0.48716 0.0
C763 C 0.38813 0.99381 0.48864 0.0
C764 C 0.40669 0.99149 0.4781 0.0
C765 C 0.35481 9e-05 0.50902 0.0
C766 C 0.37416 0.00443 0.521 0.0
C767 C 0.39064 0.00141 0.5106 0.0
C768 C 0.37772 0.01233 0.54428 0.0
C769 C 0.33704 0.00402 0.51899 0.0
C770 C 0.39614 0.03313 0.5498 0.0
C771 C 0.39964 0.04062 0.57174 0.0
C772 C 0.38483 0.02737 0.5886 0.0
C773 C 0.3665 0.00643 0.58303 0.0
C774 C 0.36302 -0.00103 0.56108 0.0
H775 H 0.32631 0.00532 0.50606 0.0
H776 H 0.32617 0.98979 0.53 0.0
H777 H 0.34464 0.01953 0.52907 0.0
H778 H 0.40775 0.04364 0.53709 0.0
H779 H 0.41395 0.05679 0.57546 0.0
loop_
_geom_bond_atom_site_label_1
_geom_bond_atom_site_label_2
_geom_bond_distance
_geom_bond_site_symmetry_2
_ccdc_geom_bond_type
O0 Cd1 2.300 . S
O0 C7 1.275 . S
Cd1 O0 2.300 . S
Cd1 O9 2.381 . S
Cd1 O10 2.378 . S
O2 Cd3 2.385 . S
O2 C7 1.255 . S
Cd3 O2 2.385 . S
Cd3 O4 2.317 . S
O4 Cd3 2.317 . S
O4 C5 1.232 . S
C5 O4 1.232 . S
C5 O6 1.218 . S
O6 C5 1.218 . S
C7 O0 1.275 . S
C7 O2 1.255 . S
C8 O9 1.258 . S
C8 O10 1.256 . S
O9 Cd1 2.381 . S
O9 C8 1.258 . S
O10 Cd1 2.378 . S
O10 C8 1.256 . S
O11 Cd12 2.300 . S
O11 C18 1.275 . S
Cd12 O11 2.300 . S
Cd12 O20 2.381 . S
Cd12 O21 2.378 . S
O13 Cd14 2.385 . S
O13 C18 1.255 . S
Cd14 O13 2.385 . S
Cd14 O15 2.317 . S
O15 Cd14 2.317 . S
O15 C16 1.232 . S
C16 O15 1.232 . S
C16 O17 1.218 . S
O17 C16 1.218 . S
C18 O11 1.275 . S
C18 O13 1.255 . S
C19 O20 1.258 . S
C19 O21 1.256 . S
O20 Cd12 2.381 . S
O20 C19 1.258 . S
O21 Cd12 2.378 . S
O21 C19 1.256 . S
O22 Cd23 2.300 . S
O22 C29 1.275 . S
Cd23 O22 2.300 . S
Cd23 O31 2.381 . S
Cd23 O32 2.378 . S
O24 Cd25 2.385 . S
O24 C29 1.255 . S
Cd25 O24 2.385 . S
Cd25 O26 2.317 . S
O26 Cd25 2.317 . S
O26 C27 1.232 . S
C27 O26 1.232 . S
C27 O28 1.218 . S
O28 C27 1.218 . S
C29 O22 1.275 . S
C29 O24 1.255 . S
C30 O31 1.258 . S
C30 O32 1.256 . S
O31 Cd23 2.381 . S
O31 C30 1.258 . S
O32 Cd23 2.378 . S
O32 C30 1.256 . S
O33 Cd34 2.300 . S
O33 C40 1.275 . S
Cd34 O33 2.300 . S
Cd34 O42 2.381 . S
Cd34 O43 2.378 . S
O35 Cd36 2.385 . S
O35 C40 1.255 . S
Cd36 O35 2.385 . S
Cd36 O37 2.317 . S
O37 Cd36 2.317 . S
O37 C38 1.232 . S
C38 O37 1.232 . S
C38 O39 1.218 . S
O39 C38 1.218 . S
C40 O33 1.275 . S
C40 O35 1.255 . S
C41 O42 1.258 . S
C41 O43 1.256 . S
O42 Cd34 2.381 . S
O42 C41 1.258 . S
O43 Cd34 2.378 . S
O43 C41 1.256 . S
O44 Cd45 2.300 . S
O44 C51 1.275 . S
Cd45 O44 2.300 . S
Cd45 O53 2.381 . S
Cd45 O54 2.378 . S
O46 Cd47 2.385 . S
O46 C51 1.255 . S
Cd47 O46 2.385 . S
Cd47 O48 2.317 . S
O48 Cd47 2.317 . S
O48 C49 1.232 . S
C49 O48 1.232 . S
C49 O50 1.218 . S
O50 C49 1.218 . S
C51 O44 1.275 . S
C51 O46 1.255 . S
C52 O53 1.258 . S
C52 O54 1.256 . S
O53 Cd45 2.381 . S
O53 C52 1.258 . S
O54 Cd45 2.378 . S
O54 C52 1.256 . S
O55 Cd56 2.300 . S
O55 C62 1.275 . S
Cd56 O55 2.300 . S
Cd56 O64 2.381 . S
Cd56 O65 2.378 . S
O57 Cd58 2.385 . S
O57 C62 1.255 . S
Cd58 O57 2.385 . S
Cd58 O59 2.317 . S
O59 Cd58 2.317 . S
O59 C60 1.232 . S
C60 O59 1.232 . S
C60 O61 1.218 . S
O61 C60 1.218 . S
C62 O55 1.275 . S
C62 O57 1.255 . S
C63 O64 1.258 . S
C63 O65 1.256 . S
O64 Cd56 2.381 . S
O64 C63 1.258 . S
O65 Cd56 2.378 . S
O65 C63 1.256 . S
O66 Cd67 2.300 . S
O66 C73 1.275 . S
Cd67 O66 2.300 . S
Cd67 O75 2.381 . S
Cd67 O76 2.378 . S
O68 Cd69 2.385 . S
O68 C73 1.255 . S
Cd69 O68 2.385 . S
Cd69 O70 2.317 . S
O70 Cd69 2.317 . S
O70 C71 1.232 . S
C71 O70 1.232 . S
C71 O72 1.218 . S
O72 C71 1.218 . S
C73 O66 1.275 . S
C73 O68 1.255 . S
C74 O75 1.258 . S
C74 O76 1.256 . S
O75 Cd67 2.381 . S
O75 C74 1.258 . S
O76 Cd67 2.378 . S
O76 C74 1.256 . S
O77 Cd78 2.300 . S
O77 C84 1.275 . S
Cd78 O77 2.300 . S
Cd78 O86 2.381 . S
Cd78 O87 2.378 . S
O79 Cd80 2.385 . S
O79 C84 1.255 . S
Cd80 O79 2.385 . S
Cd80 O81 2.317 . S
O81 Cd80 2.317 . S
O81 C82 1.232 . S
C82 O81 1.232 . S
C82 O83 1.218 . S
O83 C82 1.218 . S
C84 O77 1.275 . S
C84 O79 1.255 . S
C85 O86 1.258 . S
C85 O87 1.256 . S
O86 Cd78 2.381 . S
O86 C85 1.258 . S
O87 Cd78 2.378 . S
O87 C85 1.256 . S
O88 Cd89 2.300 . S
O88 C95 1.275 . S
Cd89 O88 2.300 . S
Cd89 O97 2.381 . S
Cd89 O98 2.378 . S
O90 Cd91 2.385 . S
O90 C95 1.255 . S
Cd91 O90 2.385 . S
Cd91 O92 2.317 . S
O92 Cd91 2.317 . S
O92 C93 1.232 . S
C93 O92 1.232 . S
C93 O94 1.218 . S
O94 C93 1.218 . S
C95 O88 1.275 . S
C95 O90 1.255 . S
C96 O97 1.258 . S
C96 O98 1.256 . S
O97 Cd89 2.381 . S
O97 C96 1.258 . S
O98 Cd89 2.378 . S
O98 C96 1.256 . S
O99 Cd100 2.300 . S
O99 C106 1.275 . S
Cd100 O99 2.300 . S
Cd100 O108 2.381 . S
Cd100 O109 2.378 . S
O101 Cd102 2.385 . S
O101 C106 1.255 . S
Cd102 O101 2.385 . S
Cd102 O103 2.317 . S
O103 Cd102 2.317 . S
O103 C104 1.232 . S
C104 O103 1.232 . S
C104 O105 1.218 . S
O105 C104 1.218 . S
C106 O99 1.275 . S
C106 O101 1.255 . S
C107 O108 1.258 . S
C107 O109 1.256 . S
O108 Cd100 2.381 . S
O108 C107 1.258 . S
O109 Cd100 2.378 . S
O109 C107 1.256 . S
O110 Cd111 2.300 . S
O110 C117 1.275 . S
Cd111 O110 2.300 . S
Cd111 O119 2.381 . S
Cd111 O120 2.378 . S
O112 Cd113 2.385 . S
O112 C117 1.255 . S
Cd113 O112 2.385 . S
Cd113 O114 2.317 . S
O114 Cd113 2.317 . S
O114 C115 1.232 . S
C115 O114 1.232 . S
C115 O116 1.218 . S
O116 C115 1.218 . S
C117 O110 1.275 . S
C117 O112 1.255 . S
C118 O119 1.258 . S
C118 O120 1.256 . S
O119 Cd111 2.381 . S
O119 C118 1.258 . S
O120 Cd111 2.378 . S
O120 C118 1.256 . S
O121 Cd122 2.300 . S
O121 C128 1.275 . S
Cd122 O121 2.300 . S
Cd122 O130 2.381 . S
Cd122 O131 2.378 . S
O123 Cd124 2.385 . S
O123 C128 1.255 . S
Cd124 O123 2.385 . S
Cd124 O125 2.317 . S
O125 Cd124 2.317 . S
O125 C126 1.232 . S
C126 O125 1.232 . S
C126 O127 1.218 . S
O127 C126 1.218 . S
C128 O121 1.275 . S
C128 O123 1.255 . S
C129 O130 1.258 . S
C129 O131 1.256 . S
O130 Cd122 2.381 . S
O130 C129 1.258 . S
O131 Cd122 2.378 . S
O131 C129 1.256 . S
H132 C140 0.929 . S
H133 C142 0.930 . S
H134 C144 0.930 . S
H135 C147 0.929 . S
H136 C150 0.930 . S
H137 C152 0.960 . S
H138 C152 0.960 . S
H139 C152 0.960 . S
C140 H132 0.929 . S
C140 C141 1.377 . S
C140 C142 1.384 . S
C141 C140 1.377 . S
C141 C147 1.390 . S
C142 H133 0.930 . S
C142 C140 1.384 . S
C142 C143 1.372 . S
C143 C142 1.372 . S
C143 C144 1.400 . S
C143 C148 1.490 . S
C144 H134 0.930 . S
C144 C143 1.400 . S
C144 C147 1.386 . S
H145 C161 0.930 . S
H146 C162 0.931 . S
C147 H135 0.929 . S
C147 C141 1.390 . S
C147 C144 1.386 . S
C148 C143 1.490 . S
C148 C150 1.395 . S
C148 C151 1.403 . S
H149 C155 0.930 . S
C150 H136 0.930 . S
C150 C148 1.395 . S
C150 C153 1.403 . S
C151 C148 1.403 . S
C151 C152 1.524 . S
C151 C155 1.400 . S
C152 H137 0.960 . S
C152 H138 0.960 . S
C152 H139 0.960 . S
C152 C151 1.524 . S
C153 C150 1.403 . S
C153 C154 1.392 . S
C153 C157 1.495 . S
C154 C153 1.392 . S
C154 C155 1.385 . S
C154 C156 1.478 . S
C155 H149 0.930 . S
C155 C151 1.400 . S
C155 C154 1.385 . S
C156 C154 1.478 . S
C156 C158 1.381 . S
C156 C162 1.383 . S
C157 C153 1.495 . S
C157 H163 0.959 . S
C157 H164 0.961 . S
C157 H165 0.960 . S
C158 C156 1.381 . S
C158 C159 1.394 . S
C158 H166 0.930 . S
C159 C158 1.394 . S
C159 C160 1.383 . S
C159 H167 0.929 . S
C160 C159 1.383 . S
C160 C161 1.377 . S
C161 H145 0.930 . S
C161 C160 1.377 . S
C161 C162 1.379 . S
C162 H146 0.931 . S
C162 C156 1.383 . S
C162 C161 1.379 . S
H163 C157 0.959 . S
H164 C157 0.961 . S
H165 C157 0.960 . S
H166 C158 0.930 . S
H167 C159 0.929 . S
H168 C176 0.929 . S
H169 C178 0.930 . S
H170 C180 0.930 . S
H171 C183 0.929 . S
H172 C186 0.930 . S
H173 C188 0.960 . S
H174 C188 0.960 . S
H175 C188 0.960 . S
C176 H168 0.929 . S
C176 C177 1.377 . S
C176 C178 1.384 . S
C177 C176 1.377 . S
C177 C183 1.390 . S
C178 H169 0.930 . S
C178 C176 1.384 . S
C178 C179 1.372 . S
C179 C178 1.372 . S
C179 C180 1.400 . S
C179 C184 1.490 . S
C180 H170 0.930 . S
C180 C179 1.400 . S
C180 C183 1.386 . S
H181 C197 0.930 . S
H182 C198 0.931 . S
C183 H171 0.929 . S
C183 C177 1.390 . S
C183 C180 1.386 . S
C184 C179 1.490 . S
C184 C186 1.395 . S
C184 C187 1.403 . S
H185 C191 0.930 . S
C186 H172 0.930 . S
C186 C184 1.395 . S
C186 C189 1.403 . S
C187 C184 1.403 . S
C187 C188 1.524 . S
C187 C191 1.400 . S
C188 H173 0.960 . S
C188 H174 0.960 . S
C188 H175 0.960 . S
C188 C187 1.524 . S
C189 C186 1.403 . S
C189 C190 1.392 . S
C189 C193 1.495 . S
C190 C189 1.392 . S
C190 C191 1.385 . S
C190 C192 1.478 . S
C191 H185 0.930 . S
C191 C187 1.400 . S
C191 C190 1.385 . S
C192 C190 1.478 . S
C192 C194 1.381 . S
C192 C198 1.383 . S
C193 C189 1.495 . S
C193 H199 0.959 . S
C193 H200 0.961 . S
C193 H201 0.960 . S
C194 C192 1.381 . S
C194 C195 1.394 . S
C194 H202 0.930 . S
C195 C194 1.394 . S
C195 C196 1.383 . S
C195 H203 0.929 . S
C196 C195 1.383 . S
C196 C197 1.377 . S
C197 H181 0.930 . S
C197 C196 1.377 . S
C197 C198 1.379 . S
C198 H182 0.931 . S
C198 C192 1.383 . S
C198 C197 1.379 . S
H199 C193 0.959 . S
H200 C193 0.961 . S
H201 C193 0.960 . S
H202 C194 0.930 . S
H203 C195 0.929 . S
H204 C212 0.929 . S
H205 C214 0.930 . S
H206 C216 0.930 . S
H207 C219 0.929 . S
H208 C222 0.930 . S
H209 C224 0.960 . S
H210 C224 0.960 . S
H211 C224 0.960 . S
C212 H204 0.929 . S
C212 C213 1.377 . S
C212 C214 1.384 . S
C213 C212 1.377 . S
C213 C219 1.390 . S
C214 H205 0.930 . S
C214 C212 1.384 . S
C214 C215 1.372 . S
C215 C214 1.372 . S
C215 C216 1.400 . S
C215 C220 1.490 . S
C216 H206 0.930 . S
C216 C215 1.400 . S
C216 C219 1.386 . S
H217 C233 0.930 . S
H218 C234 0.931 . S
C219 H207 0.929 . S
C219 C213 1.390 . S
C219 C216 1.386 . S
C220 C215 1.490 . S
C220 C222 1.395 . S
C220 C223 1.403 . S
H221 C227 0.930 . S
C222 H208 0.930 . S
C222 C220 1.395 . S
C222 C225 1.403 . S
C223 C220 1.403 . S
C223 C224 1.524 . S
C223 C227 1.400 . S
C224 H209 0.960 . S
C224 H210 0.960 . S
C224 H211 0.960 . S
C224 C223 1.524 . S
C225 C222 1.403 . S
C225 C226 1.392 . S
C225 C229 1.495 . S
C226 C225 1.392 . S
C226 C227 1.385 . S
C226 C228 1.478 . S
C227 H221 0.930 . S
C227 C223 1.400 . S
C227 C226 1.385 . S
C228 C226 1.478 . S
C228 C230 1.381 . S
C228 C234 1.383 . S
C229 C225 1.495 . S
C229 H235 0.959 . S
C229 H236 0.961 . S
C229 H237 0.960 . S
C230 C228 1.381 . S
C230 C231 1.394 . S
C230 H238 0.930 . S
C231 C230 1.394 . S
C231 C232 1.383 . S
C231 H239 0.929 . S
C232 C231 1.383 . S
C232 C233 1.377 . S
C233 H217 0.930 . S
C233 C232 1.377 . S
C233 C234 1.379 . S
C234 H218 0.931 . S
C234 C228 1.383 . S
C234 C233 1.379 . S
H235 C229 0.959 . S
H236 C229 0.961 . S
H237 C229 0.960 . S
H238 C230 0.930 . S
H239 C231 0.929 . S
H240 C248 0.929 . S
H241 C250 0.930 . S
H242 C252 0.930 . S
H243 C255 0.929 . S
H244 C258 0.930 . S
H245 C260 0.960 . S
H246 C260 0.960 . S
H247 C260 0.960 . S
C248 H240 0.929 . S
C248 C249 1.377 . S
C248 C250 1.384 . S
C249 C248 1.377 . S
C249 C255 1.390 . S
C250 H241 0.930 . S
C250 C248 1.384 . S
C250 C251 1.372 . S
C251 C250 1.372 . S
C251 C252 1.400 . S
C251 C256 1.490 . S
C252 H242 0.930 . S
C252 C251 1.400 . S
C252 C255 1.386 . S
H253 C269 0.930 . S
H254 C270 0.931 . S
C255 H243 0.929 . S
C255 C249 1.390 . S
C255 C252 1.386 . S
C256 C251 1.490 . S
C256 C258 1.395 . S
C256 C259 1.403 . S
H257 C263 0.930 . S
C258 H244 0.930 . S
C258 C256 1.395 . S
C258 C261 1.403 . S
C259 C256 1.403 . S
C259 C260 1.524 . S
C259 C263 1.400 . S
C260 H245 0.960 . S
C260 H246 0.960 . S
C260 H247 0.960 . S
C260 C259 1.524 . S
C261 C258 1.403 . S
C261 C262 1.392 . S
C261 C265 1.495 . S
C262 C261 1.392 . S
C262 C263 1.385 . S
C262 C264 1.478 . S
C263 H257 0.930 . S
C263 C259 1.400 . S
C263 C262 1.385 . S
C264 C262 1.478 . S
C264 C266 1.381 . S
C264 C270 1.383 . S
C265 C261 1.495 . S
C265 H271 0.959 . S
C265 H272 0.961 . S
C265 H273 0.960 . S
C266 C264 1.381 . S
C266 C267 1.394 . S
C266 H274 0.930 . S
C267 C266 1.394 . S
C267 C268 1.383 . S
C267 H275 0.929 . S
C268 C267 1.383 . S
C268 C269 1.377 . S
C269 H253 0.930 . S
C269 C268 1.377 . S
C269 C270 1.379 . S
C270 H254 0.931 . S
C270 C264 1.383 . S
C270 C269 1.379 . S
H271 C265 0.959 . S
H272 C265 0.961 . S
H273 C265 0.960 . S
H274 C266 0.930 . S
H275 C267 0.929 . S
H276 C284 0.929 . S
H277 C286 0.930 . S
H278 C288 0.930 . S
H279 C291 0.929 . S
H280 C294 0.930 . S
H281 C296 0.960 . S
H282 C296 0.960 . S
H283 C296 0.960 . S
C284 H276 0.929 . S
C284 C285 1.377 . S
C284 C286 1.384 . S
C285 C284 1.377 . S
C285 C291 1.390 . S
C286 H277 0.930 . S
C286 C284 1.384 . S
C286 C287 1.372 . S
C287 C286 1.372 . S
C287 C288 1.400 . S
C287 C292 1.490 . S
C288 H278 0.930 . S
C288 C287 1.400 . S
C288 C291 1.386 . S
H289 C305 0.930 . S
H290 C306 0.931 . S
C291 H279 0.929 . S
C291 C285 1.390 . S
C291 C288 1.386 . S
C292 C287 1.490 . S
C292 C294 1.395 . S
C292 C295 1.403 . S
H293 C299 0.930 . S
C294 H280 0.930 . S
C294 C292 1.395 . S
C294 C297 1.403 . S
C295 C292 1.403 . S
C295 C296 1.524 . S
C295 C299 1.400 . S
C296 H281 0.960 . S
C296 H282 0.960 . S
C296 H283 0.960 . S
C296 C295 1.524 . S
C297 C294 1.403 . S
C297 C298 1.392 . S
C297 C301 1.495 . S
C298 C297 1.392 . S
C298 C299 1.385 . S
C298 C300 1.478 . S
C299 H293 0.930 . S
C299 C295 1.400 . S
C299 C298 1.385 . S
C300 C298 1.478 . S
C300 C302 1.381 . S
C300 C306 1.383 . S
C301 C297 1.495 . S
C301 H307 0.959 . S
C301 H308 0.961 . S
C301 H309 0.960 . S
C302 C300 1.381 . S
C302 C303 1.394 . S
C302 H310 0.930 . S
C303 C302 1.394 . S
C303 C304 1.383 . S
C303 H311 0.929 . S
C304 C303 1.383 . S
C304 C305 1.377 . S
C305 H289 0.930 . S
C305 C304 1.377 . S
C305 C306 1.379 . S
C306 H290 0.931 . S
C306 C300 1.383 . S
C306 C305 1.379 . S
H307 C301 0.959 . S
H308 C301 0.961 . S
H309 C301 0.960 . S
H310 C302 0.930 . S
H311 C303 0.929 . S
H312 C320 0.929 . S
H313 C322 0.930 . S
H314 C324 0.930 . S
H315 C327 0.929 . S
H316 C330 0.930 . S
H317 C332 0.960 . S
H318 C332 0.960 . S
H319 C332 0.960 . S
C320 H312 0.929 . S
C320 C321 1.377 . S
C320 C322 1.384 . S
C321 C320 1.377 . S
C321 C327 1.390 . S
C322 H313 0.930 . S
C322 C320 1.384 . S
C322 C323 1.372 . S
C323 C322 1.372 . S
C323 C324 1.400 . S
C323 C328 1.490 . S
C324 H314 0.930 . S
C324 C323 1.400 . S
C324 C327 1.386 . S
H325 C341 0.930 . S
H326 C342 0.931 . S
C327 H315 0.929 . S
C327 C321 1.390 . S
C327 C324 1.386 . S
C328 C323 1.490 . S
C328 C330 1.395 . S
C328 C331 1.403 . S
H329 C335 0.930 . S
C330 H316 0.930 . S
C330 C328 1.395 . S
C330 C333 1.403 . S
C331 C328 1.403 . S
C331 C332 1.524 . S
C331 C335 1.400 . S
C332 H317 0.960 . S
C332 H318 0.960 . S
C332 H319 0.960 . S
C332 C331 1.524 . S
C333 C330 1.403 . S
C333 C334 1.392 . S
C333 C337 1.495 . S
C334 C333 1.392 . S
C334 C335 1.385 . S
C334 C336 1.478 . S
C335 H329 0.930 . S
C335 C331 1.400 . S
C335 C334 1.385 . S
C336 C334 1.478 . S
C336 C338 1.381 . S
C336 C342 1.383 . S
C337 C333 1.495 . S
C337 H343 0.959 . S
C337 H344 0.961 . S
C337 H345 0.960 . S
C338 C336 1.381 . S
C338 C339 1.394 . S
C338 H346 0.930 . S
C339 C338 1.394 . S
C339 C340 1.383 . S
C339 H347 0.929 . S
C340 C339 1.383 . S
C340 C341 1.377 . S
C341 H325 0.930 . S
C341 C340 1.377 . S
C341 C342 1.379 . S
C342 H326 0.931 . S
C342 C336 1.383 . S
C342 C341 1.379 . S
H343 C337 0.959 . S
H344 C337 0.961 . S
H345 C337 0.960 . S
H346 C338 0.930 . S
H347 C339 0.929 . S
H348 C356 0.929 . S
H349 C358 0.930 . S
H350 C360 0.930 . S
H351 C363 0.929 . S
H352 C366 0.930 . S
H353 C368 0.960 . S
H354 C368 0.960 . S
H355 C368 0.960 . S
C356 H348 0.929 . S
C356 C357 1.377 . S
C356 C358 1.384 . S
C357 C356 1.377 . S
C357 C363 1.390 . S
C358 H349 0.930 . S
C358 C356 1.384 . S
C358 C359 1.372 . S
C359 C358 1.372 . S
C359 C360 1.400 . S
C359 C364 1.490 . S
C360 H350 0.930 . S
C360 C359 1.400 . S
C360 C363 1.386 . S
H361 C377 0.930 . S
H362 C378 0.931 . S
C363 H351 0.929 . S
C363 C357 1.390 . S
C363 C360 1.386 . S
C364 C359 1.490 . S
C364 C366 1.395 . S
C364 C367 1.403 . S
H365 C371 0.930 . S
C366 H352 0.930 . S
C366 C364 1.395 . S
C366 C369 1.403 . S
C367 C364 1.403 . S
C367 C368 1.524 . S
C367 C371 1.400 . S
C368 H353 0.960 . S
C368 H354 0.960 . S
C368 H355 0.960 . S
C368 C367 1.524 . S
C369 C366 1.403 . S
C369 C370 1.392 . S
C369 C373 1.495 . S
C370 C369 1.392 . S
C370 C371 1.385 . S
C370 C372 1.478 . S
C371 H365 0.930 . S
C371 C367 1.400 . S
C371 C370 1.385 . S
C372 C370 1.478 . S
C372 C374 1.381 . S
C372 C378 1.383 . S
C373 C369 1.495 . S
C373 H379 0.959 . S
C373 H380 0.961 . S
C373 H381 0.960 . S
C374 C372 1.381 . S
C374 C375 1.394 . S
C374 H382 0.930 . S
C375 C374 1.394 . S
C375 C376 1.383 . S
C375 H383 0.929 . S
C376 C375 1.383 . S
C376 C377 1.377 . S
C377 H361 0.930 . S
C377 C376 1.377 . S
C377 C378 1.379 . S
C378 H362 0.931 . S
C378 C372 1.383 . S
C378 C377 1.379 . S
H379 C373 0.959 . S
H380 C373 0.961 . S
H381 C373 0.960 . S
H382 C374 0.930 . S
H383 C375 0.929 . S
H384 C392 0.929 . S
H385 C394 0.930 . S
H386 C396 0.930 . S
H387 C399 0.929 . S
H388 C402 0.930 . S
H389 C404 0.960 . S
H390 C404 0.960 . S
H391 C404 0.960 . S
C392 H384 0.929 . S
C392 C393 1.377 . S
C392 C394 1.384 . S
C393 C392 1.377 . S
C393 C399 1.390 . S
C394 H385 0.930 . S
C394 C392 1.384 . S
C394 C395 1.372 . S
C395 C394 1.372 . S
C395 C396 1.400 . S
C395 C400 1.490 . S
C396 H386 0.930 . S
C396 C395 1.400 . S
C396 C399 1.386 . S
H397 C413 0.930 . S
H398 C414 0.931 . S
C399 H387 0.929 . S
C399 C393 1.390 . S
C399 C396 1.386 . S
C400 C395 1.490 . S
C400 C402 1.395 . S
C400 C403 1.403 . S
H401 C407 0.930 . S
C402 H388 0.930 . S
C402 C400 1.395 . S
C402 C405 1.403 . S
C403 C400 1.403 . S
C403 C404 1.524 . S
C403 C407 1.400 . S
C404 H389 0.960 . S
C404 H390 0.960 . S
C404 H391 0.960 . S
C404 C403 1.524 . S
C405 C402 1.403 . S
C405 C406 1.392 . S
C405 C409 1.495 . S
C406 C405 1.392 . S
C406 C407 1.385 . S
C406 C408 1.478 . S
C407 H401 0.930 . S
C407 C403 1.400 . S
C407 C406 1.385 . S
C408 C406 1.478 . S
C408 C410 1.381 . S
C408 C414 1.383 . S
C409 C405 1.495 . S
C409 H415 0.959 . S
C409 H416 0.961 . S
C409 H417 0.960 . S
C410 C408 1.381 . S
C410 C411 1.394 . S
C410 H418 0.930 . S
C411 C410 1.394 . S
C411 C412 1.383 . S
C411 H419 0.929 . S
C412 C411 1.383 . S
C412 C413 1.377 . S
C413 H397 0.930 . S
C413 C412 1.377 . S
C413 C414 1.379 . S
C414 H398 0.931 . S
C414 C408 1.383 . S
C414 C413 1.379 . S
H415 C409 0.959 . S
H416 C409 0.961 . S
H417 C409 0.960 . S
H418 C410 0.930 . S
H419 C411 0.929 . S
H420 C428 0.929 . S
H421 C430 0.930 . S
H422 C432 0.930 . S
H423 C435 0.929 . S
H424 C438 0.930 . S
H425 C440 0.960 . S
H426 C440 0.960 . S
H427 C440 0.960 . S
C428 H420 0.929 . S
C428 C429 1.377 . S
C428 C430 1.384 . S
C429 C428 1.377 . S
C429 C435 1.390 . S
C430 H421 0.930 . S
C430 C428 1.384 . S
C430 C431 1.372 . S
C431 C430 1.372 . S
C431 C432 1.400 . S
C431 C436 1.490 . S
C432 H422 0.930 . S
C432 C431 1.400 . S
C432 C435 1.386 . S
H433 C449 0.930 . S
H434 C450 0.931 . S
C435 H423 0.929 . S
C435 C429 1.390 . S
C435 C432 1.386 . S
C436 C431 1.490 . S
C436 C438 1.395 . S
C436 C439 1.403 . S
H437 C443 0.930 . S
C438 H424 0.930 . S
C438 C436 1.395 . S
C438 C441 1.403 . S
C439 C436 1.403 . S
C439 C440 1.524 . S
C439 C443 1.400 . S
C440 H425 0.960 . S
C440 H426 0.960 . S
C440 H427 0.960 . S
C440 C439 1.524 . S
C441 C438 1.403 . S
C441 C442 1.392 . S
C441 C445 1.495 . S
C442 C441 1.392 . S
C442 C443 1.385 . S
C442 C444 1.478 . S
C443 H437 0.930 . S
C443 C439 1.400 . S
C443 C442 1.385 . S
C444 C442 1.478 . S
C444 C446 1.381 . S
C444 C450 1.383 . S
C445 C441 1.495 . S
C445 H451 0.959 . S
C445 H452 0.961 . S
C445 H453 0.960 . S
C446 C444 1.381 . S
C446 C447 1.394 . S
C446 H454 0.930 . S
C447 C446 1.394 . S
C447 C448 1.383 . S
C447 H455 0.929 . S
C448 C447 1.383 . S
C448 C449 1.377 . S
C449 H433 0.930 . S
C449 C448 1.377 . S
C449 C450 1.379 . S
C450 H434 0.931 . S
C450 C444 1.383 . S
C450 C449 1.379 . S
H451 C445 0.959 . S
H452 C445 0.961 . S
H453 C445 0.960 . S
H454 C446 0.930 . S
H455 C447 0.929 . S
H456 C464 0.929 . S
H457 C466 0.930 . S
H458 C468 0.930 . S
H459 C471 0.929 . S
H460 C474 0.930 . S
H461 C476 0.960 . S
H462 C476 0.960 . S
H463 C476 0.960 . S
C464 H456 0.929 . S
C464 C465 1.377 . S
C464 C466 1.384 . S
C465 C464 1.377 . S
C465 C471 1.390 . S
C466 H457 0.930 . S
C466 C464 1.384 . S
C466 C467 1.372 . S
C467 C466 1.372 . S
C467 C468 1.400 . S
C467 C472 1.490 . S
C468 H458 0.930 . S
C468 C467 1.400 . S
C468 C471 1.386 . S
H469 C485 0.930 . S
H470 C486 0.931 . S
C471 H459 0.929 . S
C471 C465 1.390 . S
C471 C468 1.386 . S
C472 C467 1.490 . S
C472 C474 1.395 . S
C472 C475 1.403 . S
H473 C479 0.930 . S
C474 H460 0.930 . S
C474 C472 1.395 . S
C474 C477 1.403 . S
C475 C472 1.403 . S
C475 C476 1.524 . S
C475 C479 1.400 . S
C476 H461 0.960 . S
C476 H462 0.960 . S
C476 H463 0.960 . S
C476 C475 1.524 . S
C477 C474 1.403 . S
C477 C478 1.392 . S
C477 C481 1.495 . S
C478 C477 1.392 . S
C478 C479 1.385 . S
C478 C480 1.478 . S
C479 H473 0.930 . S
C479 C475 1.400 . S
C479 C478 1.385 . S
C480 C478 1.478 . S
C480 C482 1.381 . S
C480 C486 1.383 . S
C481 C477 1.495 . S
C481 H487 0.959 . S
C481 H488 0.961 . S
C481 H489 0.960 . S
C482 C480 1.381 . S
C482 C483 1.394 . S
C482 H490 0.930 . S
C483 C482 1.394 . S
C483 C484 1.383 . S
C483 H491 0.929 . S
C484 C483 1.383 . S
C484 C485 1.377 . S
C485 H469 0.930 . S
C485 C484 1.377 . S
C485 C486 1.379 . S
C486 H470 0.931 . S
C486 C480 1.383 . S
C486 C485 1.379 . S
H487 C481 0.959 . S
H488 C481 0.961 . S
H489 C481 0.960 . S
H490 C482 0.930 . S
H491 C483 0.929 . S
H492 C500 0.929 . S
H493 C502 0.930 . S
H494 C504 0.930 . S
H495 C507 0.929 . S
H496 C510 0.930 . S
H497 C512 0.960 . S
H498 C512 0.960 . S
H499 C512 0.960 . S
C500 H492 0.929 . S
C500 C501 1.377 . S
C500 C502 1.384 . S
C501 C500 1.377 . S
C501 C507 1.390 . S
C502 H493 0.930 . S
C502 C500 1.384 . S
C502 C503 1.372 . S
C503 C502 1.372 . S
C503 C504 1.400 . S
C503 C508 1.490 . S
C504 H494 0.930 . S
C504 C503 1.400 . S
C504 C507 1.386 . S
H505 C521 0.930 . S
H506 C522 0.931 . S
C507 H495 0.929 . S
C507 C501 1.390 . S
C507 C504 1.386 . S
C508 C503 1.490 . S
C508 C510 1.395 . S
C508 C511 1.403 . S
H509 C515 0.930 . S
C510 H496 0.930 . S
C510 C508 1.395 . S
C510 C513 1.403 . S
C511 C508 1.403 . S
C511 C512 1.524 . S
C511 C515 1.400 . S
C512 H497 0.960 . S
C512 H498 0.960 . S
C512 H499 0.960 . S
C512 C511 1.524 . S
C513 C510 1.403 . S
C513 C514 1.392 . S
C513 C517 1.495 . S
C514 C513 1.392 . S
C514 C515 1.385 . S
C514 C516 1.478 . S
C515 H509 0.930 . S
C515 C511 1.400 . S
C515 C514 1.385 . S
C516 C514 1.478 . S
C516 C518 1.381 . S
C516 C522 1.383 . S
C517 C513 1.495 . S
C517 H523 0.959 . S
C517 H524 0.961 . S
C517 H525 0.960 . S
C518 C516 1.381 . S
C518 C519 1.394 . S
C518 H526 0.930 . S
C519 C518 1.394 . S
C519 C520 1.383 . S
C519 H527 0.929 . S
C520 C519 1.383 . S
C520 C521 1.377 . S
C521 H505 0.930 . S
C521 C520 1.377 . S
C521 C522 1.379 . S
C522 H506 0.931 . S
C522 C516 1.383 . S
C522 C521 1.379 . S
H523 C517 0.959 . S
H524 C517 0.961 . S
H525 C517 0.960 . S
H526 C518 0.930 . S
H527 C519 0.929 . S
H528 C536 0.929 . S
H529 C538 0.930 . S
H530 C540 0.930 . S
H531 C543 0.929 . S
H532 C546 0.930 . S
H533 C548 0.960 . S
H534 C548 0.960 . S
H535 C548 0.960 . S
C536 H528 0.929 . S
C536 C537 1.377 . S
C536 C538 1.384 . S
C537 C536 1.377 . S
C537 C543 1.390 . S
C538 H529 0.930 . S
C538 C536 1.384 . S
C538 C539 1.372 . S
C539 C538 1.372 . S
C539 C540 1.400 . S
C539 C544 1.490 . S
C540 H530 0.930 . S
C540 C539 1.400 . S
C540 C543 1.386 . S
H541 C557 0.930 . S
H542 C558 0.931 . S
C543 H531 0.929 . S
C543 C537 1.390 . S
C543 C540 1.386 . S
C544 C539 1.490 . S
C544 C546 1.395 . S
C544 C547 1.403 . S
H545 C551 0.930 . S
C546 H532 0.930 . S
C546 C544 1.395 . S
C546 C549 1.403 . S
C547 C544 1.403 . S
C547 C548 1.524 . S
C547 C551 1.400 . S
C548 H533 0.960 . S
C548 H534 0.960 . S
C548 H535 0.960 . S
C548 C547 1.524 . S
C549 C546 1.403 . S
C549 C550 1.392 . S
C549 C553 1.495 . S
C550 C549 1.392 . S
C550 C551 1.385 . S
C550 C552 1.478 . S
C551 H545 0.930 . S
C551 C547 1.400 . S
C551 C550 1.385 . S
C552 C550 1.478 . S
C552 C554 1.381 . S
C552 C558 1.383 . S
C553 C549 1.495 . S
C553 H559 0.959 . S
C553 H560 0.961 . S
C553 H561 0.960 . S
C554 C552 1.381 . S
C554 C555 1.394 . S
C554 H562 0.930 . S
C555 C554 1.394 . S
C555 C556 1.383 . S
C555 H563 0.929 . S
C556 C555 1.383 . S
C556 C557 1.377 . S
C557 H541 0.930 . S
C557 C556 1.377 . S
C557 C558 1.379 . S
C558 H542 0.931 . S
C558 C552 1.383 . S
C558 C557 1.379 . S
H559 C553 0.959 . S
H560 C553 0.961 . S
H561 C553 0.960 . S
H562 C554 0.930 . S
H563 C555 0.929 . S
H564 C572 0.929 . S
H565 C574 0.930 . S
H566 C576 0.930 . S
H567 C579 0.929 . S
H568 C582 0.930 . S
H569 C584 0.960 . S
H570 C584 0.960 . S
H571 C584 0.960 . S
C572 H564 0.929 . S
C572 C573 1.377 . S
C572 C574 1.384 . S
C573 C572 1.377 . S
C573 C579 1.390 . S
C574 H565 0.930 . S
C574 C572 1.384 . S
C574 C575 1.372 . S
C575 C574 1.372 . S
C575 C576 1.400 . S
C575 C580 1.490 . S
C576 H566 0.930 . S
C576 C575 1.400 . S
C576 C579 1.386 . S
H577 C593 0.930 . S
H578 C594 0.931 . S
C579 H567 0.929 . S
C579 C573 1.390 . S
C579 C576 1.386 . S
C580 C575 1.490 . S
C580 C582 1.395 . S
C580 C583 1.403 . S
H581 C587 0.930 . S
C582 H568 0.930 . S
C582 C580 1.395 . S
C582 C585 1.403 1_554 S
C583 C580 1.403 . S
C583 C584 1.524 . S
C583 C587 1.400 1_554 S
C584 H569 0.960 . S
C584 H570 0.960 . S
C584 H571 0.960 . S
C584 C583 1.524 . S
C585 C582 1.403 1_556 S
C585 C586 1.392 . S
C585 C589 1.495 . S
C586 C585 1.392 . S
C586 C587 1.385 . S
C586 C588 1.478 . S
C587 H581 0.930 . S
C587 C583 1.400 1_556 S
C587 C586 1.385 . S
C588 C586 1.478 . S
C588 C590 1.381 . S
C588 C594 1.383 . S
C589 C585 1.495 . S
C589 H595 0.959 . S
C589 H596 0.961 . S
C589 H597 0.960 . S
C590 C588 1.381 . S
C590 C591 1.394 . S
C590 H598 0.930 . S
C591 C590 1.394 . S
C591 C592 1.383 . S
C591 H599 0.929 . S
C592 C591 1.383 . S
C592 C593 1.377 . S
C593 H577 0.930 . S
C593 C592 1.377 . S
C593 C594 1.379 . S
C594 H578 0.931 . S
C594 C588 1.383 . S
C594 C593 1.379 . S
H595 C589 0.959 . S
H596 C589 0.961 . S
H597 C589 0.960 . S
H598 C590 0.930 . S
H599 C591 0.929 . S
H600 C608 0.929 . S
H601 C610 0.930 . S
H602 C612 0.930 . S
H603 C615 0.929 . S
H604 C618 0.930 . S
H605 C620 0.960 . S
H606 C620 0.960 . S
H607 C620 0.960 . S
C608 H600 0.929 . S
C608 C609 1.377 . S
C608 C610 1.384 . S
C609 C608 1.377 . S
C609 C615 1.390 . S
C610 H601 0.930 . S
C610 C608 1.384 . S
C610 C611 1.372 . S
C611 C610 1.372 . S
C611 C612 1.400 . S
C611 C616 1.490 . S
C612 H602 0.930 . S
C612 C611 1.400 . S
C612 C615 1.386 . S
H613 C629 0.930 . S
H614 C630 0.931 . S
C615 H603 0.929 . S
C615 C609 1.390 . S
C615 C612 1.386 . S
C616 C611 1.490 . S
C616 C618 1.395 1_455 S
C616 C619 1.403 . S
H617 C623 0.930 . S
C618 H604 0.930 . S
C618 C616 1.395 1_655 S
C618 C621 1.403 . S
C619 C616 1.403 . S
C619 C620 1.524 . S
C619 C623 1.400 . S
C620 H605 0.960 . S
C620 H606 0.960 . S
C620 H607 0.960 . S
C620 C619 1.524 . S
C621 C618 1.403 . S
C621 C622 1.392 . S
C621 C625 1.495 . S
C622 C621 1.392 . S
C622 C623 1.385 1_655 S
C622 C624 1.478 . S
C623 H617 0.930 . S
C623 C619 1.400 . S
C623 C622 1.385 1_455 S
C624 C622 1.478 . S
C624 C626 1.381 . S
C624 C630 1.383 . S
C625 C621 1.495 . S
C625 H631 0.959 . S
C625 H632 0.961 . S
C625 H633 0.960 . S
C626 C624 1.381 . S
C626 C627 1.394 . S
C626 H634 0.930 . S
C627 C626 1.394 . S
C627 C628 1.383 . S
C627 H635 0.929 . S
C628 C627 1.383 . S
C628 C629 1.377 . S
C629 H613 0.930 . S
C629 C628 1.377 . S
C629 C630 1.379 . S
C630 H614 0.931 . S
C630 C624 1.383 . S
C630 C629 1.379 . S
H631 C625 0.959 . S
H632 C625 0.961 . S
H633 C625 0.960 . S
H634 C626 0.930 . S
H635 C627 0.929 . S
H636 C644 0.929 . S
H637 C646 0.930 . S
H638 C648 0.930 . S
H639 C651 0.929 . S
H640 C654 0.930 . S
H641 C656 0.960 1_554 S
H642 C656 0.960 . S
H643 C656 0.960 . S
C644 H636 0.929 . S
C644 C645 1.377 . S
C644 C646 1.384 . S
C645 C644 1.377 . S
C645 C651 1.390 . S
C646 H637 0.930 . S
C646 C644 1.384 . S
C646 C647 1.372 . S
C647 C646 1.372 . S
C647 C648 1.400 . S
C647 C652 1.490 . S
C648 H638 0.930 . S
C648 C647 1.400 . S
C648 C651 1.386 . S
H649 C665 0.930 . S
H650 C666 0.931 . S
C651 H639 0.929 . S
C651 C645 1.390 . S
C651 C648 1.386 . S
C652 C647 1.490 . S
C652 C654 1.395 1_545 S
C652 C655 1.403 . S
H653 C659 0.930 . S
C654 H640 0.930 . S
C654 C652 1.395 1_565 S
C654 C657 1.403 1_556 S
C655 C652 1.403 . S
C655 C656 1.524 . S
C655 C659 1.400 1_556 S
C656 H641 0.960 1_556 S
C656 H642 0.960 . S
C656 H643 0.960 . S
C656 C655 1.524 . S
C657 C654 1.403 1_554 S
C657 C658 1.392 . S
C657 C661 1.495 . S
C658 C657 1.392 . S
C658 C659 1.385 1_565 S
C658 C660 1.478 . S
C659 H653 0.930 . S
C659 C655 1.400 1_554 S
C659 C658 1.385 1_545 S
C660 C658 1.478 . S
C660 C662 1.381 . S
C660 C666 1.383 . S
C661 C657 1.495 . S
C661 H667 0.959 1_554 S
C661 H668 0.961 . S
C661 H669 0.960 . S
C662 C660 1.381 . S
C662 C663 1.394 . S
C662 H670 0.930 . S
C663 C662 1.394 . S
C663 C664 1.383 . S
C663 H671 0.929 . S
C664 C663 1.383 . S
C664 C665 1.377 . S
C665 H649 0.930 . S
C665 C664 1.377 . S
C665 C666 1.379 . S
C666 H650 0.931 . S
C666 C660 1.383 . S
C666 C665 1.379 . S
H667 C661 0.959 1_556 S
H668 C661 0.961 . S
H669 C661 0.960 . S
H670 C662 0.930 . S
H671 C663 0.929 . S
H672 C680 0.929 . S
H673 C682 0.930 . S
H674 C684 0.930 . S
H675 C687 0.929 . S
H676 C690 0.930 . S
H677 C692 0.960 . S
H678 C692 0.960 . S
H679 C692 0.960 . S
C680 H672 0.929 . S
C680 C681 1.377 . S
C680 C682 1.384 . S
C681 C680 1.377 . S
C681 C687 1.390 . S
C682 H673 0.930 . S
C682 C680 1.384 . S
C682 C683 1.372 . S
C683 C682 1.372 . S
C683 C684 1.400 . S
C683 C688 1.490 . S
C684 H674 0.930 . S
C684 C683 1.400 . S
C684 C687 1.386 . S
H685 C701 0.930 . S
H686 C702 0.931 . S
C687 H675 0.929 . S
C687 C681 1.390 . S
C687 C684 1.386 . S
C688 C683 1.490 . S
C688 C690 1.395 . S
C688 C691 1.403 . S
H689 C695 0.930 . S
C690 H676 0.930 . S
C690 C688 1.395 . S
C690 C693 1.403 . S
C691 C688 1.403 . S
C691 C692 1.524 . S
C691 C695 1.400 . S
C692 H677 0.960 . S
C692 H678 0.960 . S
C692 H679 0.960 . S
C692 C691 1.524 . S
C693 C690 1.403 . S
C693 C694 1.392 . S
C693 C697 1.495 . S
C694 C693 1.392 . S
C694 C695 1.385 . S
C694 C696 1.478 . S
C695 H689 0.930 . S
C695 C691 1.400 . S
C695 C694 1.385 . S
C696 C694 1.478 . S
C696 C698 1.381 . S
C696 C702 1.383 . S
C697 C693 1.495 . S
C697 H703 0.959 . S
C697 H704 0.961 . S
C697 H705 0.960 . S
C698 C696 1.381 . S
C698 C699 1.394 . S
C698 H706 0.930 . S
C699 C698 1.394 . S
C699 C700 1.383 . S
C699 H707 0.929 . S
C700 C699 1.383 . S
C700 C701 1.377 . S
C701 H685 0.930 . S
C701 C700 1.377 . S
C701 C702 1.379 . S
C702 H686 0.931 . S
C702 C696 1.383 . S
C702 C701 1.379 . S
H703 C697 0.959 . S
H704 C697 0.961 . S
H705 C697 0.960 . S
H706 C698 0.930 . S
H707 C699 0.929 . S
H708 C716 0.929 . S
H709 C718 0.930 . S
H710 C720 0.930 . S
H711 C723 0.929 . S
H712 C726 0.930 . S
H713 C728 0.960 . S
H714 C728 0.960 . S
H715 C728 0.960 . S
C716 H708 0.929 . S
C716 C717 1.377 . S
C716 C718 1.384 . S
C717 C716 1.377 . S
C717 C723 1.390 . S
C718 H709 0.930 . S
C718 C716 1.384 . S
C718 C719 1.372 . S
C719 C718 1.372 . S
C719 C720 1.400 . S
C719 C724 1.490 . S
C720 H710 0.930 . S
C720 C719 1.400 . S
C720 C723 1.386 . S
H721 C737 0.930 . S
H722 C738 0.931 . S
C723 H711 0.929 . S
C723 C717 1.390 . S
C723 C720 1.386 . S
C724 C719 1.490 . S
C724 C726 1.395 . S
C724 C727 1.403 1_455 S
H725 C731 0.930 . S
C726 H712 0.930 . S
C726 C724 1.395 . S
C726 C729 1.403 1_554 S
C727 C724 1.403 1_655 S
C727 C728 1.524 . S
C727 C731 1.400 1_554 S
C728 H713 0.960 . S
C728 H714 0.960 . S
C728 H715 0.960 . S
C728 C727 1.524 . S
C729 C726 1.403 1_556 S
C729 C730 1.392 1_455 S
C729 C733 1.495 . S
C730 C729 1.392 1_655 S
C730 C731 1.385 . S
C730 C732 1.478 . S
C731 H725 0.930 . S
C731 C727 1.400 1_556 S
C731 C730 1.385 . S
C732 C730 1.478 . S
C732 C734 1.381 . S
C732 C738 1.383 . S
C733 C729 1.495 . S
C733 H739 0.959 . S
C733 H740 0.961 . S
C733 H741 0.960 . S
C734 C732 1.381 . S
C734 C735 1.394 . S
C734 H742 0.930 . S
C735 C734 1.394 . S
C735 C736 1.383 . S
C735 H743 0.929 . S
C736 C735 1.383 . S
C736 C737 1.377 . S
C737 H721 0.930 . S
C737 C736 1.377 . S
C737 C738 1.379 . S
C738 H722 0.931 . S
C738 C732 1.383 . S
C738 C737 1.379 . S
H739 C733 0.959 . S
H740 C733 0.961 . S
H741 C733 0.960 . S
H742 C734 0.930 . S
H743 C735 0.929 . S
H744 C752 0.929 . S
H745 C754 0.930 1_545 S
H746 C756 0.930 . S
H747 C759 0.929 . S
H748 C762 0.930 . S
H749 C764 0.960 . S
H750 C764 0.960 . S
H751 C764 0.960 . S
C752 H744 0.929 . S
C752 C753 1.377 . S
C752 C754 1.384 . S
C753 C752 1.377 . S
C753 C759 1.390 . S
C754 H745 0.930 1_565 S
C754 C752 1.384 . S
C754 C755 1.372 . S
C755 C754 1.372 . S
C755 C756 1.400 . S
C755 C760 1.490 . S
C756 H746 0.930 . S
C756 C755 1.400 . S
C756 C759 1.386 . S
H757 C773 0.930 . S
H758 C774 0.931 1_565 S
C759 H747 0.929 . S
C759 C753 1.390 . S
C759 C756 1.386 . S
C760 C755 1.490 . S
C760 C762 1.395 1_565 S
C760 C763 1.403 . S
H761 C767 0.930 . S
C762 H748 0.930 . S
C762 C760 1.395 1_545 S
C762 C765 1.403 . S
C763 C760 1.403 . S
C763 C764 1.524 . S
C763 C767 1.400 . S
C764 H749 0.960 . S
C764 H750 0.960 . S
C764 H751 0.960 . S
C764 C763 1.524 . S
C765 C762 1.403 . S
C765 C766 1.392 . S
C765 C769 1.495 . S
C766 C765 1.392 . S
C766 C767 1.385 1_545 S
C766 C768 1.478 . S
C767 H761 0.930 . S
C767 C763 1.400 . S
C767 C766 1.385 1_565 S
C768 C766 1.478 . S
C768 C770 1.381 . S
C768 C774 1.383 . S
C769 C765 1.495 . S
C769 H775 0.959 . S
C769 H776 0.961 . S
C769 H777 0.960 . S
C770 C768 1.381 . S
C770 C771 1.394 . S
C770 H778 0.930 . S
C771 C770 1.394 . S
C771 C772 1.383 . S
C771 H779 0.929 . S
C772 C771 1.383 . S
C772 C773 1.377 . S
C773 H757 0.930 . S
C773 C772 1.377 . S
C773 C774 1.379 . S
C774 H758 0.931 1_545 S
C774 C768 1.383 . S
C774 C773 1.379 . S
H775 C769 0.959 . S
H776 C769 0.961 . S
H777 C769 0.960 . S
H778 C770 0.930 . S
H779 C771 0.929 . S
C141 C5 1.415 . S
C160 C115 1.448 . S
C177 C126 1.412 . S
C196 C16 1.381 . S
C213 C71 1.411 . S
C232 C27 1.390 . S
C249 C38 1.413 . S
C268 C82 1.382 . S
C285 C93 1.407 . S
C304 C49 1.450 . S
C321 C104 1.416 . S
C340 C60 1.374 . S
C357 C7 1.541 . S
C376 C73 1.515 . S
C393 C18 1.540 . S
C412 C84 1.524 . S
C429 C29 1.540 . S
C448 C95 1.529 . S
C465 C106 1.536 . S
C484 C40 1.544 . S
C501 C51 1.539 . S
C520 C117 1.522 . S
C537 C62 1.541 . S
C556 C128 1.521 . S
C573 C8 1.588 . S
C592 C107 1.581 . S
C609 C118 1.589 . S
C628 C19 1.587 . S
C645 C129 1.589 . S
C664 C30 1.586 . S
C681 C41 1.588 . S
C700 C74 1.588 . S
C717 C52 1.588 . S
C736 C85 1.584 . S
C753 C96 1.588 . S
C772 C63 1.588 . S
