# Generated by pormake.
# Topology wkd, (5)-cn, num edge types: 1
# Building blocks:
#     Node 0, Type 0, BuildingBlock: BEQFEK_clean_sbu_0, # of connection points: 5
#     Node 1, Type 0, BuildingBlock: BEQFEK_clean_sbu_0, # of connection points: 5
#     Node 2, Type 0, BuildingBlock: BEQFEK_clean_sbu_0, # of connection points: 5
#     Node 3, Type 0, BuildingBlock: BEQFEK_clean_sbu_0, # of connection points: 5
#     Node 4, Type 0, BuildingBlock: BEQFEK_clean_sbu_0, # of connection points: 5
#     Node 5, Type 0, BuildingBlock: BEQFEK_clean_sbu_0, # of connection points: 5
#     Node 6, Type 0, BuildingBlock: BEQFEK_clean_sbu_0, # of connection points: 5
#     Node 7, Type 0, BuildingBlock: BEQFEK_clean_sbu_0, # of connection points: 5
#     Node 8, Type 0, BuildingBlock: BEQFEK_clean_sbu_0, # of connection points: 5
#     Node 9, Type 0, BuildingBlock: BEQFEK_clean_sbu_0, # of connection points: 5
#     Node 10, Type 0, BuildingBlock: BEQFEK_clean_sbu_0, # of connection points: 5
#     Node 11, Type 0, BuildingBlock: BEQFEK_clean_sbu_0, # of connection points: 5
#     Edge 12, Type (0, 0), BuildingBlock: OJICUG_clean_linker_0, # of connection points: 2
#     Edge 13, Type (0, 0), BuildingBlock: OJICUG_clean_linker_0, # of connection points: 2
#     Edge 14, Type (0, 0), BuildingBlock: OJICUG_clean_linker_0, # of connection points: 2
#     Edge 15, Type (0, 0), BuildingBlock: OJICUG_clean_linker_0, # of connection points: 2
#     Edge 16, Type (0, 0), BuildingBlock: OJICUG_clean_linker_0, # of connection points: 2
#     Edge 17, Type (0, 0), BuildingBlock: OJICUG_clean_linker_0, # of connection points: 2
#     Edge 18, Type (0, 0), BuildingBlock: OJICUG_clean_linker_0, # of connection points: 2
#     Edge 19, Type (0, 0), BuildingBlock: OJICUG_clean_linker_0, # of connection points: 2
#     Edge 20, Type (0, 0), BuildingBlock: OJICUG_clean_linker_0, # of connection points: 2
#     Edge 21, Type (0, 0), BuildingBlock: OJICUG_clean_linker_0, # of connection points: 2
#     Edge 22, Type (0, 0), BuildingBlock: OJICUG_clean_linker_0, # of connection points: 2
#     Edge 23, Type (0, 0), BuildingBlock: OJICUG_clean_linker_0, # of connection points: 2
#     Edge 24, Type (0, 0), BuildingBlock: OJICUG_clean_linker_0, # of connection points: 2
#     Edge 25, Type (0, 0), BuildingBlock: OJICUG_clean_linker_0, # of connection points: 2
#     Edge 26, Type (0, 0), BuildingBlock: OJICUG_clean_linker_0, # of connection points: 2
#     Edge 27, Type (0, 0), BuildingBlock: OJICUG_clean_linker_0, # of connection points: 2
#     Edge 28, Type (0, 0), BuildingBlock: OJICUG_clean_linker_0, # of connection points: 2
#     Edge 29, Type (0, 0), BuildingBlock: OJICUG_clean_linker_0, # of connection points: 2
#     Edge 30, Type (0, 0), BuildingBlock: OJICUG_clean_linker_0, # of connection points: 2
#     Edge 31, Type (0, 0), BuildingBlock: OJICUG_clean_linker_0, # of connection points: 2
#     Edge 32, Type (0, 0), BuildingBlock: OJICUG_clean_linker_0, # of connection points: 2
#     Edge 33, Type (0, 0), BuildingBlock: OJICUG_clean_linker_0, # of connection points: 2
#     Edge 34, Type (0, 0), BuildingBlock: OJICUG_clean_linker_0, # of connection points: 2
#     Edge 35, Type (0, 0), BuildingBlock: OJICUG_clean_linker_0, # of connection points: 2
#     Edge 36, Type (0, 0), BuildingBlock: OJICUG_clean_linker_0, # of connection points: 2
#     Edge 37, Type (0, 0), BuildingBlock: OJICUG_clean_linker_0, # of connection points: 2
#     Edge 38, Type (0, 0), BuildingBlock: OJICUG_clean_linker_0, # of connection points: 2
#     Edge 39, Type (0, 0), BuildingBlock: OJICUG_clean_linker_0, # of connection points: 2
#     Edge 40, Type (0, 0), BuildingBlock: OJICUG_clean_linker_0, # of connection points: 2
#     Edge 41, Type (0, 0), BuildingBlock: OJICUG_clean_linker_0, # of connection points: 2
# Relax obj value: 0.067
# Max RMSD: 0.100
# Mean RMSD: 0.099
data_MOF--net-wkd--node1-BEQFEK_clean_sbu_0--edge1-OJICUG_clean_linker_0
_symmetry_space_group_name_H-M    P1
_symmetry_Int_Tables_number       1
_symmetry_cell_setting            triclinic
loop_
_symmetry_equiv_pos_as_xyz
'x, y, z'
_cell_length_a     18.236803
_cell_length_b     18.293741
_cell_length_c     101.8242
_cell_angle_alpha  89.938064
_cell_angle_beta   90.066079
_cell_angle_gamma 119.62687
loop_
_atom_site_label
_atom_site_type_symbol
_atom_site_fract_x
_atom_site_fract_y
_atom_site_fract_z
_atom_type_partial_charge
Co0 Co 0.90995 0.34394 0.02726 0.0
Co1 Co 0.99825 0.25923 0.04236 0.0
C2 C 0.85973 0.16297 0.02288 0.0
O3 O 0.85314 0.22735 1.01999 0.0
O4 O 0.9116 0.16596 0.03155 0.0
C5 C 0.7839 0.38757 1.01774 0.0
O6 O 0.72479 0.31257 0.02146 0.0
C7 C 0.01624 0.14975 0.06196 0.0
C8 C 0.15412 0.21907 0.06513 0.0
C9 C 0.08025 0.15026 0.06953 0.0
N10 N 0.05115 0.21613 0.05376 0.0
N11 N 0.13364 0.25631 0.05555 0.0
C12 C 0.92303 0.09288 0.06322 0.0
H13 H 0.88843 0.1221 0.05865 0.0
H14 H 0.90482 0.07873 0.0737 0.0
H15 H 0.90486 0.03294 0.05805 0.0
C16 C 0.88596 0.38575 0.05464 0.0
N17 N 0.9098 0.34575 0.04597 0.0
N18 N 0.94936 0.31256 0.0523 0.0
C19 C 0.95269 0.33129 0.06517 0.0
C20 C 0.91223 0.37771 0.0671 0.0
C21 C 0.8479 0.43877 0.05082 0.0
H22 H 0.88749 0.48455 0.04317 0.0
H23 H 0.7845 0.39788 0.04655 0.0
H24 H 0.84199 0.47321 0.05934 0.0
O25 O 0.02685 0.40548 0.02093 0.0
O26 O 0.08969 0.34374 0.03093 0.0
H27 H 0.06239 0.3283 0.07202 0.0
H28 H 1.00074 0.33894 0.08499 0.0
C29 C 0.99757 0.30907 0.07539 0.0
H30 H 0.96307 0.24024 0.07693 0.0
H31 H 0.17572 0.31106 0.05058 0.0
O32 O 0.86081 0.4096 1.01966 0.0
C33 C 0.09198 0.39898 0.02306 0.0
Co34 Co 0.58819 0.91964 0.19375 0.0
Co35 Co 0.75891 1.00445 0.2093 0.0
C36 C 0.71917 0.86827 0.18952 0.0
O37 O 0.64877 0.86289 0.18651 0.0
O38 O 0.76689 0.91872 0.19836 0.0
C39 C 0.42124 0.79462 0.18391 0.0
O40 O 0.43873 0.73622 0.18768 0.0
C41 C 0.88354 0.01773 0.22909 0.0
C42 C 0.95107 0.15454 0.23285 0.0
C43 C 0.94565 0.07973 0.23698 0.0
N44 N 0.85315 0.0546 0.22097 0.0
N45 N 0.89488 0.13647 0.22312 0.0
C46 C 0.84736 0.92449 0.22997 0.0
H47 H 0.78435 0.89139 0.22522 0.0
H48 H 0.84213 0.90438 0.24038 0.0
H49 H 0.88965 0.90668 0.22477 0.0
C50 C 0.51965 0.89188 0.22099 0.0
N51 N 0.58424 0.91721 0.21245 0.0
N52 N 0.65597 0.95538 0.21897 0.0
C53 C 0.63913 0.95637 0.23185 0.0
C54 C 0.55238 0.91572 0.23356 0.0
C55 C 0.42916 0.85413 0.217 0.0
H56 H 0.42299 0.89388 0.20933 0.0
H57 H 0.40781 0.79106 0.21271 0.0
H58 H 0.38808 0.84792 0.22544 0.0
O59 O 0.64384 0.03698 0.1877 0.0
O60 O 0.76692 0.09732 0.198 0.0
H61 H 0.75067 0.06348 0.23921 0.0
H62 H 0.67704 1.00053 0.25187 0.0
C63 C 0.70473 0.99853 0.2423 0.0
H64 H 0.73854 0.96294 0.24375 0.0
H65 H 0.88276 0.1797 0.21829 0.0
O66 O 0.47442 0.87145 0.18591 0.0
C67 C 0.715 0.10113 0.19004 0.0
Co68 Co 0.67894 0.5648 0.36079 0.0
Co69 Co 0.76403 0.73728 0.3756 0.0
C70 C 0.85963 0.69405 0.35602 0.0
O71 O 0.79527 0.62345 0.35323 0.0
O72 O 0.85665 0.74279 0.36467 0.0
C73 C 0.635 0.39577 0.35137 0.0
O74 O 0.71118 0.41207 0.35474 0.0
C75 C 0.87535 0.86339 0.39494 0.0
C76 C 0.80861 0.93524 0.39787 0.0
C77 C 0.87674 0.92816 0.40234 0.0
N78 N 0.80861 0.83324 0.38678 0.0
N79 N 0.76992 0.8774 0.38844 0.0
C80 C 0.93087 0.82499 0.39629 0.0
H81 H 0.90018 0.76122 0.39187 0.0
H82 H 0.94527 0.82127 0.40679 0.0
H83 H 0.99101 0.86474 0.39103 0.0
C84 C 0.64263 0.5012 0.38839 0.0
N85 N 0.67947 0.56402 0.37954 0.0
N86 N 0.71203 0.63663 0.38573 0.0
C87 C 0.69549 0.62216 0.39868 0.0
C88 C 0.652 0.53607 0.40081 0.0
C89 C 0.59177 0.41016 0.38485 0.0
H90 H 0.54291 0.40147 0.37755 0.0
H91 H 0.63369 0.38967 0.38024 0.0
H92 H 0.56097 0.37039 0.39359 0.0
O93 O 0.61632 0.6201 0.35446 0.0
O94 O 0.67875 0.74428 0.36427 0.0
H95 H 0.69862 0.73538 0.40507 0.0
H96 H 0.68366 0.66299 0.41822 0.0
C97 C 0.71625 0.68916 0.40877 0.0
H98 H 0.78487 0.72197 0.41072 0.0
H99 H 0.71529 0.86608 0.38345 0.0
O100 O 0.61246 0.45018 0.35345 0.0
C101 C 0.62303 0.69164 0.35649 0.0
Co102 Co 0.11683 0.67715 0.52815 0.0
Co103 Co 0.01741 0.75074 0.54326 0.0
C104 C 0.15475 0.85498 0.52394 0.0
O105 O 0.17123 0.79616 0.52154 0.0
O106 O 0.09722 0.84478 0.53203 0.0
C107 C 0.16996 0.59684 0.5097 0.0
O108 O 0.11714 0.6079 0.50231 0.0
C109 C 0.99593 0.8573 0.56275 0.0
C110 C 0.85825 0.78608 0.56602 0.0
C111 C 0.93164 0.856 0.57032 0.0
N112 N 0.96173 0.79055 0.55464 0.0
N113 N 0.87932 0.74907 0.5565 0.0
C114 C 0.08901 0.91521 0.56394 0.0
H115 H 0.12415 0.88651 0.55941 0.0
H116 H 0.10753 0.92997 0.5744 0.0
H117 H 0.10626 0.97471 0.55868 0.0
C118 C 0.1401 0.63456 0.55546 0.0
N119 N 0.11442 0.67338 0.54684 0.0
N120 N 0.0715 0.70272 0.55317 0.0
C121 C 0.06752 0.68237 0.56599 0.0
C122 C 0.11116 0.63896 0.56788 0.0
C123 C 0.18216 0.58544 0.55154 0.0
H124 H 0.14045 0.5346 0.54468 0.0
H125 H 0.24153 0.62736 0.54624 0.0
H126 H 0.19636 0.55739 0.56016 0.0
O127 O 0.99802 0.60997 0.52115 0.0
O128 O 0.93005 0.66375 0.53197 0.0
H129 H 0.95313 0.67679 0.57252 0.0
H130 H 0.01552 0.6686 0.58565 0.0
C131 C 0.01817 0.69915 0.57612 0.0
H132 H 0.04879 0.76762 0.5779 0.0
H133 H 0.83779 0.69384 0.55158 0.0
O134 O 0.18214 0.6237 0.52146 0.0
C135 C 0.93048 0.61211 0.52364 0.0
Co136 Co 0.42979 0.08949 0.69415 0.0
Co137 Co 0.25941 1.00431 0.70972 0.0
C138 C 0.2982 0.14016 0.6899 0.0
O139 O 0.36868 0.1458 0.68688 0.0
O140 O 0.25078 0.08972 0.69876 0.0
C141 C 0.59646 0.21491 0.68429 0.0
O142 O 0.57891 0.27318 0.68808 0.0
C143 C 0.13481 0.9905 0.72949 0.0
C144 C 0.06781 0.85369 0.73329 0.0
C145 C 0.07292 0.92836 0.73739 0.0
N146 N 0.16537 0.95383 0.7214 0.0
N147 N 0.12397 0.87197 0.72356 0.0
C148 C 0.17065 0.0837 0.73035 0.0
H149 H 0.23362 0.11699 0.7256 0.0
H150 H 0.17587 0.1038 0.74075 0.0
H151 H 0.12815 0.10126 0.72513 0.0
C152 C 0.49881 0.11745 0.72139 0.0
N153 N 0.43409 0.09204 0.71285 0.0
N154 N 0.36246 0.05375 0.71939 0.0
C155 C 0.3795 0.0528 0.73227 0.0
C156 C 0.46628 0.09357 0.73397 0.0
C157 C 0.58925 0.15525 0.71739 0.0
H158 H 0.59533 0.11556 0.70972 0.0
H159 H 0.61051 0.21834 0.7131 0.0
H160 H 0.63045 0.16144 0.72583 0.0
O161 O 0.37449 0.97212 0.68813 0.0
O162 O 0.2516 0.91158 0.69846 0.0
H163 H 0.26833 0.94543 0.73965 0.0
H164 H 0.34194 0.0087 0.7523 0.0
C165 C 0.31406 0.01048 0.74272 0.0
H166 H 0.27999 0.04579 0.74415 0.0
H167 H 0.13629 0.82889 0.71874 0.0
O168 O 0.54343 0.13803 0.68629 0.0
C169 C 0.30347 0.90786 0.6905 0.0
Co170 Co 0.33976 0.44049 0.86087 0.0
Co171 Co 0.25633 0.27004 0.87633 0.0
C172 C 0.15846 0.31009 0.85667 0.0
O173 O 0.22258 0.38036 0.85367 0.0
O174 O 0.16214 0.26242 0.86548 0.0
C175 C 0.38232 0.60884 0.85128 0.0
O176 O 0.3074 0.59363 0.85517 0.0
C177 C 0.14702 0.14459 0.89602 0.0
C178 C 0.21786 0.07733 0.89954 0.0
C179 C 0.14801 0.08209 0.90374 0.0
N180 N 0.21405 0.17574 0.88791 0.0
N181 N 0.25518 0.13423 0.88993 0.0
C182 C 0.089 0.18028 0.89704 0.0
H183 H 0.11797 0.24351 0.89243 0.0
H184 H 0.0739 0.18449 0.90747 0.0
H185 H 0.02942 0.13846 0.89177 0.0
C186 C 0.38189 0.50818 0.88814 0.0
N187 N 0.34224 0.44405 0.87958 0.0
N188 N 0.30949 0.37239 0.88606 0.0
C189 C 0.32809 0.3888 0.89893 0.0
C190 C 0.37403 0.47522 0.90068 0.0
C191 C 0.43431 0.59835 0.88417 0.0
H192 H 0.39255 0.62062 0.88003 0.0
H193 H 0.46974 0.6389 0.8926 0.0
H194 H 0.47943 0.60393 0.87641 0.0
O195 O 0.40182 0.38487 0.85465 0.0
O196 O 0.34083 0.26204 0.86491 0.0
H197 H 0.33486 0.35039 0.91892 0.0
H198 H 0.23655 0.28885 0.9107 0.0
C199 C 0.30571 0.32304 0.90931 0.0
H200 H 0.32588 0.27768 0.90618 0.0
H201 H 0.31053 0.14684 0.88506 0.0
O202 O 0.4046 0.55398 0.85311 0.0
C203 C 0.39564 0.31378 0.85692 0.0
Co204 Co 0.67002 0.1036 0.82179 0.0
Co205 Co 0.7572 0.01702 0.80691 0.0
C206 C 0.85092 0.15405 0.82673 0.0
O207 O 0.78613 0.16062 0.8294 0.0
O208 O 0.84876 0.1026 0.81811 0.0
C209 C 0.62587 0.22903 0.83099 0.0
O210 O 0.70121 0.28754 0.82724 0.0
C211 C 0.87089 1.00019 0.78777 0.0
C212 C 0.80428 0.8623 0.78511 0.0
C213 C 0.87333 0.93607 0.78083 0.0
N214 N 0.80238 0.96565 0.7956 0.0
N215 N 0.76346 0.8832 0.79402 0.0
C216 C 0.93404 0.09214 0.78735 0.0
H217 H 0.92955 0.12421 0.79629 0.0
H218 H 0.92183 0.1214 0.7787 0.0
H219 H 0.99877 0.10153 0.78639 0.0
C220 C 0.63 0.12794 0.79428 0.0
N221 N 0.67006 0.1047 0.80307 0.0
N222 N 0.70435 0.06591 0.79685 0.0
C223 C 0.68627 0.0624 0.78395 0.0
C224 C 0.63913 0.10201 0.78186 0.0
C225 C 0.57547 0.16459 0.79794 0.0
H226 H 0.5297 0.12488 0.80558 0.0
H227 H 0.61555 0.22812 0.80216 0.0
H228 H 0.54066 0.1695 0.78935 0.0
O229 O 0.60828 0.98662 0.828 0.0
O230 O 0.6713 0.92487 0.81809 0.0
H231 H 0.68726 0.95197 0.77719 0.0
H232 H 0.68175 0.01611 0.76412 0.0
C233 C 0.70906 0.01731 0.77389 0.0
H234 H 0.77835 0.04992 0.77278 0.0
H235 H 0.70807 0.84114 0.79887 0.0
O236 O 0.60346 0.15219 0.82919 0.0
C237 C 0.61521 0.92194 0.82585 0.0
Co238 Co 0.57471 0.67653 0.98822 0.0
Co239 Co 0.74671 0.76154 0.97302 0.0
C240 C 0.70467 0.85621 0.99302 0.0
O241 O 0.63367 0.7923 0.99579 0.0
O242 O 0.75314 0.85312 0.98431 0.0
C243 C 0.40522 0.63217 0.9976 0.0
O244 O 0.42034 0.70707 0.99383 0.0
C245 C 0.87489 0.8749 0.95375 0.0
C246 C 0.94733 0.80866 0.95087 0.0
C247 C 0.94147 0.87767 0.94671 0.0
N248 N 0.84207 0.8063 0.96152 0.0
N249 N 0.88622 0.76755 0.95981 0.0
C250 C 0.84504 0.93783 0.95347 0.0
H251 H 0.8083 0.9327 0.96242 0.0
H252 H 0.80373 0.92623 0.94483 0.0
H253 H 0.89961 1.00245 0.9526 0.0
C254 C 0.50868 0.6371 0.96081 0.0
N255 N 0.57235 0.67638 0.96949 0.0
N256 N 0.64468 0.70966 0.96315 0.0
C257 C 0.62926 0.69167 0.95026 0.0
C258 C 0.5427 0.64569 0.94833 0.0
C259 C 0.41809 0.5838 0.96461 0.0
H260 H 0.41247 0.5381 0.97226 0.0
H261 H 0.39501 0.62453 0.96885 0.0
H262 H 0.37801 0.5492 0.95609 0.0
O263 O 0.63074 0.61442 0.99428 0.0
O264 O 0.75424 0.67551 0.98412 0.0
H265 H 0.74 0.69149 0.94329 0.0
H266 H 0.66947 0.68619 0.93035 0.0
C267 C 0.69616 0.71361 0.94007 0.0
H268 H 0.73235 0.78264 0.9389 0.0
H269 H 0.87388 0.71221 0.96461 0.0
O270 O 0.46057 0.61043 0.99577 0.0
C271 C 0.70188 0.62026 0.992 0.0
Co272 Co 0.92327 0.58278 0.15481 0.0
Co273 Co 1.00716 0.75352 0.13934 0.0
C274 C 0.87235 0.71308 0.15956 0.0
O275 O 0.86647 0.64248 0.1624 0.0
O276 O 0.92264 0.76086 0.15072 0.0
C277 C 0.79891 0.41547 0.16443 0.0
O278 O 0.73997 0.43235 0.16064 0.0
C279 C 0.01975 0.88098 0.11999 0.0
C280 C 0.1575 0.95134 0.11671 0.0
C281 C 0.08252 0.94636 0.11275 0.0
N282 N 0.05618 0.84794 0.12769 0.0
N283 N 0.13854 0.89089 0.12574 0.0
C284 C 0.92736 0.85251 0.11997 0.0
H285 H 0.89681 0.81656 0.129 0.0
H286 H 0.89673 0.81109 0.11141 0.0
H287 H 0.91743 0.90751 0.11912 0.0
C288 C 0.89446 0.51553 0.12747 0.0
N289 N 0.91954 0.57948 0.13609 0.0
N290 N 0.9572 0.65125 0.12963 0.0
C291 C 0.95812 0.63516 0.11673 0.0
C292 C 0.91792 0.54877 0.11491 0.0
C293 C 0.85796 0.42529 0.13136 0.0
H294 H 0.89822 0.41963 0.13901 0.0
H295 H 0.79443 0.40279 0.13563 0.0
H296 H 0.85258 0.38497 0.12287 0.0
O297 O 0.04146 0.6386 0.16066 0.0
O298 O 0.10136 0.76127 0.15034 0.0
H299 H 1.00005 0.67413 0.09665 0.0
H300 H 0.96721 0.73745 0.10541 0.0
C301 C 1.00069 0.70127 0.1064 0.0
H302 H 0.06679 0.74497 0.10934 0.0
H303 H 0.18185 0.8781 0.13043 0.0
O304 O 0.87588 0.46915 0.16253 0.0
C305 C 0.10568 0.70952 0.15825 0.0
Co306 Co 0.34816 0.90213 0.32138 0.0
Co307 Co 0.26088 0.98937 0.3066 0.0
C308 C 0.16689 0.85053 0.32615 0.0
O309 O 0.23178 0.8441 0.32883 0.0
O310 O 0.16914 0.90263 0.31763 0.0
C311 C 0.3925 0.7763 0.33048 0.0
O312 O 0.31709 0.71782 0.32673 0.0
C313 C 0.14728 0.00674 0.28743 0.0
C314 C 0.21365 0.14472 0.28489 0.0
C315 C 0.14482 0.07105 0.28052 0.0
N316 N 0.21561 0.04108 0.29531 0.0
N317 N 0.25437 0.1236 0.2938 0.0
C318 C 0.08435 0.91474 0.28692 0.0
H319 H 0.08821 0.8825 0.29589 0.0
H320 H 0.09741 0.88581 0.27833 0.0
H321 H 0.01962 0.90517 0.2858 0.0
C322 C 0.38891 0.87974 0.29385 0.0
N323 N 0.34868 0.90246 0.30267 0.0
N324 N 0.31447 0.94159 0.2965 0.0
C325 C 0.33282 0.94589 0.2836 0.0
C326 C 0.38001 0.9064 0.28147 0.0
C327 C 0.44322 0.84271 0.29747 0.0
H328 H 0.48897 0.882 0.30515 0.0
H329 H 0.40298 0.77901 0.30163 0.0
H330 H 0.47805 0.83811 0.28888 0.0
O331 O 0.40926 0.01875 0.32778 0.0
O332 O 0.34613 0.08089 0.31796 0.0
H333 H 0.33148 0.05645 0.27697 0.0
H334 H 0.33768 0.99331 0.26382 0.0
C335 C 0.31003 0.99138 0.27358 0.0
H336 H 0.24078 0.95858 0.27241 0.0
H337 H 0.30961 0.16555 0.29871 0.0
O338 O 0.41479 0.85318 0.32871 0.0
C339 C 0.40207 0.08343 0.32575 0.0
Co340 Co 0.44232 0.34166 0.48884 0.0
Co341 Co 0.27695 0.25348 0.47167 0.0
C342 C 0.30901 0.16116 0.49329 0.0
O343 O 0.38163 0.22324 0.49599 0.0
O344 O 0.26289 0.16568 0.48429 0.0
C345 C 0.61386 0.38583 0.49779 0.0
O346 O 0.60143 0.3159 0.49221 0.0
C347 C 0.15002 0.13805 0.45228 0.0
C348 C 0.08669 0.21108 0.44743 0.0
C349 C 0.08722 0.13754 0.44449 0.0
N350 N 0.1858 0.20959 0.45936 0.0
N351 N 0.14714 0.25248 0.45644 0.0
C352 C 0.17343 0.07055 0.45335 0.0
H353 H 0.21168 0.07934 0.46229 0.0
H354 H 0.21104 0.07276 0.44466 0.0
H355 H 0.11564 0.00781 0.45352 0.0
C356 C 0.51819 0.38437 0.46178 0.0
N357 N 0.45227 0.34245 0.47004 0.0
N358 N 0.38264 0.30291 0.46301 0.0
C359 C 0.40209 0.31804 0.45018 0.0
C360 C 0.48838 0.36989 0.44894 0.0
C361 C 0.60595 0.44563 0.46612 0.0
H362 H 0.604 0.48293 0.47455 0.0
H363 H 0.63788 0.41045 0.46932 0.0
H364 H 0.64322 0.48875 0.45803 0.0
O365 O 0.38002 0.40252 0.49411 0.0
O366 O 0.26738 0.34143 0.48123 0.0
H367 H 0.36887 0.30711 0.42949 0.0
H368 H 0.3012 0.21896 0.43954 0.0
C369 C 0.33866 0.28832 0.43928 0.0
H370 H 0.29553 0.31417 0.44064 0.0
H371 H 0.1626 0.31066 0.46051 0.0
O372 O 0.55597 0.40549 0.49732 0.0
C373 C 0.31101 0.39571 0.48989 0.0
Co374 Co 0.09421 0.42654 0.65527 0.0
Co375 Co 0.00998 0.25637 0.63967 0.0
C376 C 0.14426 0.29521 0.65993 0.0
O377 O 0.15032 0.36583 0.6628 0.0
O378 O 0.09404 0.24783 0.65104 0.0
C379 C 0.21933 0.59372 0.66489 0.0
O380 O 0.27818 0.57723 0.66093 0.0
C381 C 0.99467 0.12743 0.6204 0.0
C382 C 0.85703 0.06036 0.61693 0.0
C383 C 0.93113 0.06301 0.61312 0.0
N384 N 0.95957 0.16224 0.62798 0.0
N385 N 0.87725 0.12124 0.62591 0.0
C386 C 0.08643 0.15324 0.62052 0.0
H387 H 0.11771 0.19027 0.62944 0.0
H388 H 0.11798 0.19273 0.61181 0.0
H389 H 0.09422 0.09684 0.62003 0.0
C390 C 0.12363 0.49491 0.62797 0.0
N391 N 0.09807 0.43058 0.63655 0.0
N392 N 0.06089 0.35908 0.63003 0.0
C393 C 0.06118 0.37575 0.61712 0.0
C394 C 0.10126 0.46224 0.61537 0.0
C395 C 0.15954 0.58492 0.63195 0.0
H396 H 0.11996 0.58979 0.63978 0.0
H397 H 0.22379 0.60814 0.63599 0.0
H398 H 0.16319 0.62525 0.62355 0.0
O399 O 0.97613 0.37132 0.6611 0.0
O400 O 0.91613 0.24906 0.65069 0.0
H401 H 0.95369 0.26708 0.60921 0.0
H402 H 0.02474 0.3375 0.59684 0.0
C403 C 0.02076 0.31 0.60669 0.0
H404 H 0.05346 0.27288 0.60618 0.0
H405 H 0.83483 0.13562 0.63051 0.0
O406 O 0.14228 0.53987 0.66309 0.0
C407 C 0.91184 0.3006 0.65862 0.0
C408 C 0.77197 0.01256 0.99428 0.0
C409 C 0.7349 0.93431 1.00066 0.0
H410 H 0.83796 0.14682 0.99644 0.0
C411 C 0.73383 0.93165 1.01445 0.0
H412 H 0.77382 0.01598 0.98365 0.0
C413 C 0.77309 0.00626 0.02173 0.0
C414 C 0.81109 0.08455 1.01534 0.0
H415 H 0.70633 0.87194 1.01957 0.0
H416 H 0.77479 1.00286 0.03235 0.0
C417 C 0.80833 0.08713 1.00157 0.0
C418 C 0.826 0.74225 0.18101 0.0
C419 C 0.82439 0.7436 0.16723 0.0
H420 H 0.79533 0.78295 0.19894 0.0
C421 C 0.78286 0.781 0.16087 0.0
H422 H 0.85845 0.71447 0.18611 0.0
C423 C 0.74433 0.81741 0.16819 0.0
C424 C 0.74964 0.81986 0.18196 0.0
H425 H 0.78122 0.78301 0.15025 0.0
H426 H 0.71396 0.84725 0.16307 0.0
C427 C 0.79029 0.78154 0.18832 0.0
C428 C 0.01655 0.76196 0.35478 0.0
C429 C 0.93799 0.72394 0.3484 0.0
H430 H 0.15123 0.82932 0.3526 0.0
C431 C 0.93526 0.72225 0.33461 0.0
H432 H 0.02001 0.76437 0.3654 0.0
C433 C 0.01002 0.76197 0.32732 0.0
C434 C 0.08857 0.80109 0.33371 0.0
H435 H 0.87532 0.69408 0.3295 0.0
H436 H 1.00651 0.76328 0.31671 0.0
C437 C 0.09133 0.79882 0.34748 0.0
C438 C 0.18792 0.04722 0.50525 0.0
C439 C 0.2728 0.08425 0.50144 0.0
H440 H 0.08532 0.94727 0.51556 0.0
C441 C 0.32024 0.04628 0.50528 0.0
H442 H 0.15004 0.07541 0.50247 0.0
C443 C 0.28221 0.97092 0.51252 0.0
C444 C 0.19724 0.93451 0.51639 0.0
H445 H 0.38579 0.07365 0.50242 0.0
H446 H 0.31924 0.94166 0.51519 0.0
C447 C 0.15099 0.97406 0.5128 0.0
C448 C 0.27206 0.19041 0.66855 0.0
C449 C 0.26732 0.1883 0.68232 0.0
H450 H 0.23458 0.22454 0.6506 0.0
C451 C 0.22691 0.22675 0.68869 0.0
H452 H 0.30222 0.16045 0.66343 0.0
C453 C 0.19097 0.26593 0.68138 0.0
C454 C 0.19209 0.26435 0.66759 0.0
H455 H 0.2223 0.22558 0.6993 0.0
H456 H 0.15881 0.29391 0.68648 0.0
C457 C 0.23329 0.22672 0.66123 0.0
C458 C 0.92634 0.20291 0.84814 0.0
C459 C 0.92909 0.20277 0.83436 0.0
H460 H 0.99773 0.2357 0.86608 0.0
C461 C 1.00759 0.24351 0.82799 0.0
H462 H 0.86645 0.17113 0.85325 0.0
C463 C 0.08232 0.28295 0.83531 0.0
C464 C 0.0797 0.27936 0.84909 0.0
H465 H 0.0111 0.24383 0.81737 0.0
H466 H 0.14222 0.31259 0.83019 0.0
C467 C 1.00115 0.23951 0.85545 0.0
C468 C 0.13687 0.13257 0.09086 0.0
C469 C 0.07511 0.09753 0.08097 0.0
H470 H 0.1865 0.11236 0.10869 0.0
C471 C 0.01268 0.01243 0.08197 0.0
H472 H 0.18588 0.19792 0.09044 0.0
C473 C 0.01256 0.96357 0.0926 0.0
C474 C 0.07523 0.99879 0.10233 0.0
H475 H 0.96602 0.98238 0.07434 0.0
H476 H 0.96595 0.89744 0.09281 0.0
C477 C 0.13711 0.08375 0.10137 0.0
C478 C 0.01411 0.00876 0.24927 0.0
C479 C 0.99146 0.0718 0.24847 0.0
H480 H 0.08065 0.95893 0.26003 0.0
C481 C 0.01637 0.13138 0.25864 0.0
H482 H 0.99888 0.96373 0.24143 0.0
C483 C 0.06364 0.12891 0.26923 0.0
C484 C 0.08672 0.06642 0.27 0.0
H485 H 0.99999 0.18078 0.25837 0.0
H486 H 0.08309 0.17671 0.27677 0.0
C487 C 0.06105 0.00591 0.25997 0.0
C488 C 0.94813 0.05593 0.43357 0.0
C489 C 0.03272 0.07605 0.43452 0.0
H490 H 0.83274 0.99226 0.42286 0.0
C491 C 0.06594 0.04462 0.42506 0.0
H492 H 0.92117 0.07988 0.4407 0.0
C493 C 0.01555 0.99527 0.41464 0.0
C494 C 0.93086 0.97582 0.41362 0.0
H495 H 0.13184 0.06175 0.42529 0.0
H496 H 0.04427 0.97585 0.40716 0.0
C497 C 0.89771 0.00611 0.4233 0.0
C498 C 0.87504 0.92488 0.60192 0.0
C499 C 0.93731 0.00976 0.60277 0.0
H500 H 0.82575 0.80997 0.59119 0.0
C501 C 0.99955 0.04429 0.59299 0.0
H502 H 0.82587 0.8969 0.60928 0.0
C503 C 0.99888 0.99478 0.58245 0.0
C504 C 0.93646 0.90959 0.5816 0.0
H505 H 0.04629 0.1104 0.5931 0.0
H506 H 0.04524 0.02445 0.57478 0.0
C507 C 0.87485 0.8753 0.59151 0.0
C508 C 1.00237 0.8765 0.75904 0.0
C509 C 0.02705 0.93608 0.74886 0.0
H510 H 0.93566 0.83094 0.77716 0.0
C511 C 1.00411 0.9989 0.74964 0.0
H512 H 0.01899 0.82727 0.7588 0.0
C513 C 0.95709 1.00154 0.76032 0.0
C514 C 0.93161 0.94101 0.77035 0.0
H515 H 0.01916 0.04391 0.74179 0.0
H516 H 0.93725 0.04834 0.76036 0.0
C517 C 0.95498 0.87875 0.76961 0.0
C518 C 0.07999 0.96015 0.93559 0.0
C519 C 0.99441 0.93681 0.93634 0.0
H520 H 0.19528 0.02538 0.9249 0.0
C521 C 0.95926 0.9636 0.92644 0.0
H522 H 0.10858 0.93989 0.94304 0.0
C523 C 1.00879 0.01194 0.91588 0.0
C524 C 0.09451 0.03489 0.9151 0.0
H525 H 0.89272 0.94388 0.92648 0.0
H526 H 0.97881 0.02804 0.90812 0.0
C527 C 0.12947 0.00882 0.92515 0.0
C528 C 0.25602 0.58706 1.00396 0.0
C529 C 0.32476 0.57263 1.00402 0.0
H530 H 0.12836 0.54317 1.00982 0.0
C531 C 0.31624 0.50031 1.01033 0.0
H532 H 0.26053 0.64201 0.99916 0.0
C533 C 0.24085 0.444 1.01653 0.0
C534 C 0.17191 0.45816 1.01644 0.0
H535 H 0.36816 0.48743 1.01058 0.0
H536 H 0.23656 0.3892 0.02136 0.0
C537 C 0.18021 0.53017 1.01004 0.0
C538 C 0.69384 0.2677 0.17087 0.0
C539 C 0.77704 0.33489 0.17094 0.0
H540 H 0.60915 0.141 0.17673 0.0
C541 C 0.83982 0.32464 0.17734 0.0
H542 H 0.64415 0.27356 0.166 0.0
C543 C 0.81976 0.24903 0.18361 0.0
C544 C 0.73666 0.18156 0.18346 0.0
H545 H 0.9046 0.37536 0.17762 0.0
H546 H 0.86953 0.24332 0.18848 0.0
C547 C 0.67395 0.19166 0.17699 0.0
C548 C 0.43588 0.67092 0.33708 0.0
C549 C 0.45148 0.75413 0.33699 0.0
H550 H 0.47814 0.58598 0.34321 0.0
C551 C 0.52416 0.8167 0.34331 0.0
H552 H 0.38057 0.62138 0.33228 0.0
C553 C 0.57964 0.79643 0.34967 0.0
C554 C 0.5643 0.71328 0.34974 0.0
H555 H 0.53796 0.88149 0.34346 0.0
H556 H 0.63477 0.84608 0.35449 0.0
C557 C 0.49197 0.65078 0.34332 0.0
C558 C 0.77979 0.56545 0.51806 0.0
C559 C 0.85027 0.55392 0.51683 0.0
H560 H 0.65096 0.52227 0.51304 0.0
C561 C 0.84241 0.48626 0.50921 0.0
H562 H 0.78332 0.61689 0.52381 0.0
C563 C 0.7656 0.43116 0.50308 0.0
C564 C 0.69534 0.44307 0.50433 0.0
H565 H 0.89532 0.47542 0.50807 0.0
H566 H 0.76148 0.37956 0.49731 0.0
C567 C 0.70363 0.51109 0.51186 0.0
C568 C 0.17877 0.68415 0.67793 0.0
C569 C 0.24136 0.67418 0.67143 0.0
H570 H 0.14924 0.76523 0.68912 0.0
C571 C 0.32443 0.74159 0.67127 0.0
H572 H 0.11409 0.63326 0.67827 0.0
C573 C 0.34437 0.81759 0.67739 0.0
C574 C 0.28184 0.82744 0.68394 0.0
H575 H 0.37397 0.73593 0.66633 0.0
H576 H 0.40906 0.86845 0.67706 0.0
C577 C 0.19888 0.75973 0.68418 0.0
C578 C 0.43934 0.20896 0.8503 0.0
C579 C 0.45426 0.29194 0.85022 0.0
H580 H 0.48134 0.12402 0.84419 0.0
C581 C 0.52617 0.35431 0.8437 0.0
H582 H 0.38454 0.15945 0.8552 0.0
C583 C 0.58223 0.33419 0.83748 0.0
C584 C 0.56701 0.25113 0.83752 0.0
H585 H 0.5397 0.419 0.84348 0.0
H586 H 0.63717 0.38362 0.8326 0.0
C587 C 0.49479 0.18869 0.84395 0.0
C588 C 0.57033 0.77334 0.83228 0.0
C589 C 0.55579 0.84187 0.8324 0.0
H590 H 0.52736 0.64646 0.83823 0.0
C591 C 0.48339 0.83311 0.83878 0.0
H592 H 0.62542 0.77797 0.82747 0.0
C593 C 0.42661 0.75736 0.84485 0.0
C594 C 0.44151 0.6891 0.8448 0.0
H595 H 0.47009 0.88462 0.83901 0.0
H596 H 0.37142 0.75255 0.84965 0.0
C597 C 0.5141 0.698 0.83848 0.0
C598 C 0.67931 0.43219 1.01115 0.0
C599 C 0.76242 0.44677 1.01118 0.0
H600 H 0.59515 0.47586 1.00516 0.0
C601 C 0.82558 0.51887 1.00483 0.0
H602 H 0.62934 0.37737 1.01597 0.0
C603 C 0.806 0.57495 0.99853 0.0
C604 C 0.723 0.56078 0.99858 0.0
H605 H 0.8903 0.53182 1.00464 0.0
H606 H 0.85606 0.6297 0.99371 0.0
C607 C 0.65989 0.48886 1.00499 0.0
C608 C 0.27355 0.68917 0.17733 0.0
C609 C 0.34052 0.77233 0.17732 0.0
H610 H 0.14669 0.60423 0.1714 0.0
C611 C 0.32986 0.83472 0.17093 0.0
H612 H 0.27975 0.63977 0.18217 0.0
C613 C 0.25399 0.81436 0.16464 0.0
C614 C 0.18666 0.73133 0.16475 0.0
H615 H 0.38041 0.89946 0.1707 0.0
H616 H 0.2479 0.86386 0.1598 0.0
C617 C 0.19724 0.66896 0.17118 0.0
C618 C 0.59102 0.24768 0.34474 0.0
C619 C 0.57532 0.31542 0.34495 0.0
H620 H 0.5483 0.12109 0.33862 0.0
C621 C 0.50184 0.30613 0.33887 0.0
H622 H 0.6469 0.25279 0.34936 0.0
C623 C 0.4457 0.23104 0.3326 0.0
C624 C 0.46116 0.16311 0.33242 0.0
H625 H 0.48796 0.35727 0.33882 0.0
H626 H 0.38999 0.22616 0.32795 0.0
C627 C 0.53428 0.17214 0.33862 0.0
C628 C 0.27271 0.54255 0.51174 0.0
C629 C 0.21016 0.54923 0.50457 0.0
H630 H 0.35481 0.48956 0.51267 0.0
C631 C 0.18401 0.50771 0.49245 0.0
H632 H 0.29432 0.57394 0.52111 0.0
C633 C 0.21778 0.45911 0.48772 0.0
C634 C 0.27943 0.45122 0.49491 0.0
H635 H 0.13609 0.51139 0.48665 0.0
H636 H 0.19507 0.42732 0.4784 0.0
C637 C 0.3075 0.49444 0.5069 0.0
C638 C 0.74407 0.32055 0.67772 0.0
C639 C 0.67709 0.23739 0.67768 0.0
H640 H 0.87091 0.40561 0.67182 0.0
C641 C 0.68769 0.17516 0.67125 0.0
H642 H 0.73791 0.36982 0.6826 0.0
C643 C 0.76351 0.19567 0.66496 0.0
C644 C 0.83087 0.27868 0.6651 0.0
H645 H 0.63712 0.11044 0.671 0.0
H646 H 0.76956 0.14628 0.66009 0.0
C647 C 0.82034 0.3409 0.67157 0.0
C648 C 0.83812 0.44473 0.09714 0.0
C649 C 0.91535 0.50386 0.10273 0.0
H650 H 0.77667 0.35868 0.08119 0.0
C651 C 0.99093 0.52154 0.09651 0.0
H652 H 0.77917 0.43043 0.10182 0.0
C653 C 0.9895 0.48137 0.0848 0.0
C654 C 0.91248 0.42215 0.0792 0.0
H655 H 0.05117 0.56662 0.10071 0.0
H656 H 0.04864 0.49618 0.08014 0.0
C657 C 0.83668 0.40435 0.08538 0.0
C658 C 0.44872 0.8348 0.25133 0.0
C659 C 0.50658 0.91223 0.2457 0.0
H660 H 0.36349 0.77237 0.26735 0.0
C661 C 0.52253 0.98715 0.25188 0.0
H662 H 0.43578 0.77637 0.24668 0.0
C663 C 0.48209 0.9849 0.26361 0.0
C664 C 0.42428 0.90767 0.26928 0.0
H665 H 0.56667 0.04751 0.24764 0.0
H666 H 0.49579 0.04355 0.26826 0.0
C667 C 0.40804 0.83253 0.26311 0.0
C668 C 0.50849 0.46601 0.43031 0.0
C669 C 0.53352 0.4146 0.43692 0.0
H670 H 0.52607 0.54374 0.41352 0.0
C671 C 0.59815 0.40312 0.43163 0.0
H672 H 0.45882 0.47575 0.43425 0.0
C673 C 0.63627 0.44165 0.41972 0.0
C674 C 0.61069 0.49271 0.41312 0.0
H675 H 0.61798 0.36336 0.43659 0.0
H676 H 0.68592 0.43214 0.41571 0.0
C677 C 0.5466 0.50455 0.41849 0.0
C678 C 0.03288 0.52967 0.58483 0.0
C679 C 0.11015 0.59241 0.5798 0.0
H680 H 0.96976 0.44069 0.60025 0.0
C681 C 0.18515 0.61213 0.58644 0.0
H682 H 0.97434 0.51343 0.57981 0.0
C683 C 0.18258 0.57023 0.59812 0.0
C684 C 0.10504 0.5078 0.60317 0.0
H685 H 0.24533 0.66057 0.5827 0.0
H686 H 0.24091 0.5862 0.60317 0.0
C687 C 0.0303 0.48812 0.59646 0.0
C688 C 0.49638 0.02184 0.75226 0.0
C689 C 0.51224 0.09688 0.7461 0.0
H690 H 0.52328 0.96514 0.76862 0.0
C691 C 0.5701 0.1742 0.75175 0.0
H692 H 0.45224 0.96157 0.748 0.0
C693 C 0.61086 0.17626 0.76354 0.0
C694 C 0.59471 0.101 0.76968 0.0
H695 H 0.58296 0.23272 0.74713 0.0
H696 H 0.6554 0.23634 0.7678 0.0
C697 C 0.53691 0.02389 0.76398 0.0
C698 C 0.51664 0.5434 0.93036 0.0
C699 C 0.49841 0.60203 0.93619 0.0
H700 H 0.49222 0.45844 0.91436 0.0
C701 C 0.43916 0.61942 0.93026 0.0
H702 H 0.56182 0.52878 0.93483 0.0
C703 C 0.39927 0.57909 0.91856 0.0
C704 C 0.41763 0.52038 0.91277 0.0
H705 H 0.42441 0.66457 0.93463 0.0
H706 H 0.35359 0.59299 0.91409 0.0
C707 C 0.4769 0.50323 0.91872 0.0
loop_
_geom_bond_atom_site_label_1
_geom_bond_atom_site_label_2
_geom_bond_distance
_geom_bond_site_symmetry_2
_ccdc_geom_bond_type
Co0 O3 1.970 . S
Co0 N17 1.989 . S
Co0 O25 1.967 1_655 S
Co0 O32 1.920 1_554 S
Co1 O4 1.966 1_455 S
Co1 N10 2.022 . S
Co1 N18 1.993 . S
Co1 O26 1.941 . S
C2 O3 1.258 . S
C2 O4 1.263 . S
O3 Co0 1.970 . S
O3 C2 1.258 . S
O4 Co1 1.966 1_655 S
O4 C2 1.263 . S
C5 O6 1.235 1_556 S
C5 O32 1.289 . S
O6 C5 1.235 1_554 S
C7 C9 1.400 . S
C7 N10 1.351 . S
C7 C12 1.501 1_455 S
C8 C9 1.387 . S
C8 N11 1.341 . S
C9 C7 1.400 . S
C9 C8 1.387 . S
N10 Co1 2.022 . S
N10 C7 1.351 . S
N10 N11 1.365 . S
N11 C8 1.341 . S
N11 N10 1.365 . S
N11 H31 0.862 . S
C12 C7 1.501 1_655 S
C12 H13 0.961 . S
C12 H14 0.961 . S
C12 H15 0.960 . S
H13 C12 0.961 . S
H14 C12 0.961 . S
H15 C12 0.960 . S
C16 N17 1.342 . S
C16 C20 1.401 . S
C16 C21 1.499 . S
N17 Co0 1.989 . S
N17 C16 1.342 . S
N17 N18 1.388 1_655 S
N18 Co1 1.993 . S
N18 N17 1.388 1_455 S
N18 C19 1.346 . S
C19 N18 1.346 . S
C19 C20 1.396 1_455 S
C19 C29 1.510 . S
C20 C16 1.401 . S
C20 C19 1.396 1_655 S
C21 C16 1.499 . S
C21 H22 0.959 . S
C21 H23 0.960 . S
C21 H24 0.961 . S
H22 C21 0.959 . S
H23 C21 0.960 . S
H24 C21 0.961 . S
O25 Co0 1.967 1_455 S
O25 C33 1.258 . S
O26 Co1 1.941 . S
O26 C33 1.266 . S
H27 C29 0.959 . S
H28 C29 0.961 1_655 S
C29 C19 1.510 . S
C29 H27 0.959 . S
C29 H28 0.961 1_455 S
C29 H30 0.960 . S
H30 C29 0.960 . S
H31 N11 0.862 . S
O32 Co0 1.920 1_556 S
O32 C5 1.289 . S
C33 O25 1.258 . S
C33 O26 1.266 . S
Co34 O37 1.970 . S
Co34 N51 1.989 . S
Co34 O59 1.967 1_565 S
Co34 O66 1.920 . S
Co35 O38 1.966 1_545 S
Co35 N44 2.022 . S
Co35 N52 1.993 . S
Co35 O60 1.941 . S
C36 O37 1.258 . S
C36 O38 1.263 . S
O37 Co34 1.970 . S
O37 C36 1.258 . S
O38 Co35 1.966 1_565 S
O38 C36 1.263 . S
C39 O40 1.235 . S
C39 O66 1.289 . S
O40 C39 1.235 . S
C41 C43 1.400 . S
C41 N44 1.351 . S
C41 C46 1.501 1_545 S
C42 C43 1.387 . S
C42 N45 1.341 . S
C43 C41 1.400 . S
C43 C42 1.387 . S
N44 Co35 2.022 . S
N44 C41 1.351 . S
N44 N45 1.365 . S
N45 C42 1.341 . S
N45 N44 1.365 . S
N45 H65 0.862 . S
C46 C41 1.501 1_565 S
C46 H47 0.961 . S
C46 H48 0.961 . S
C46 H49 0.960 . S
H47 C46 0.961 . S
H48 C46 0.961 . S
H49 C46 0.960 . S
C50 N51 1.342 . S
C50 C54 1.401 . S
C50 C55 1.499 . S
N51 Co34 1.989 . S
N51 C50 1.342 . S
N51 N52 1.388 1_565 S
N52 Co35 1.993 . S
N52 N51 1.388 1_545 S
N52 C53 1.347 1_545 S
C53 N52 1.347 1_565 S
C53 C54 1.392 . S
C53 C63 1.513 1_565 S
C54 C50 1.401 . S
C54 C53 1.392 . S
C55 C50 1.499 . S
C55 H56 0.959 . S
C55 H57 0.960 . S
C55 H58 0.961 . S
H56 C55 0.959 . S
H57 C55 0.960 . S
H58 C55 0.961 . S
O59 Co34 1.967 1_545 S
O59 C67 1.258 . S
O60 Co35 1.941 . S
O60 C67 1.266 . S
H61 C63 0.959 . S
H62 C63 0.961 1_565 S
C63 C53 1.513 1_545 S
C63 H61 0.959 . S
C63 H62 0.961 1_545 S
C63 H64 0.960 . S
H64 C63 0.960 . S
H65 N45 0.862 . S
O66 Co34 1.920 . S
O66 C39 1.289 . S
C67 O59 1.258 . S
C67 O60 1.266 . S
Co68 O71 1.970 . S
Co68 N85 1.989 . S
Co68 O93 1.967 . S
Co68 O100 1.920 . S
Co69 O72 1.966 . S
Co69 N78 2.022 . S
Co69 N86 1.993 . S
Co69 O94 1.941 . S
C70 O71 1.258 . S
C70 O72 1.263 . S
O71 Co68 1.970 . S
O71 C70 1.258 . S
O72 Co69 1.966 . S
O72 C70 1.263 . S
C73 O74 1.235 . S
C73 O100 1.289 . S
O74 C73 1.235 . S
C75 C77 1.400 . S
C75 N78 1.351 . S
C75 C80 1.501 . S
C76 C77 1.387 . S
C76 N79 1.341 . S
C77 C75 1.400 . S
C77 C76 1.387 . S
N78 Co69 2.022 . S
N78 C75 1.351 . S
N78 N79 1.365 . S
N79 C76 1.341 . S
N79 N78 1.365 . S
N79 H99 0.862 . S
C80 C75 1.501 . S
C80 H81 0.961 . S
C80 H82 0.961 . S
C80 H83 0.960 1_655 S
H81 C80 0.961 . S
H82 C80 0.961 . S
H83 C80 0.960 1_455 S
C84 N85 1.342 . S
C84 C88 1.401 . S
C84 C89 1.499 . S
N85 Co68 1.989 . S
N85 C84 1.342 . S
N85 N86 1.388 . S
N86 Co69 1.993 . S
N86 N85 1.388 . S
N86 C87 1.346 . S
C87 N86 1.346 . S
C87 C88 1.396 . S
C87 C97 1.510 . S
C88 C84 1.401 . S
C88 C87 1.396 . S
C89 C84 1.499 . S
C89 H90 0.959 . S
C89 H91 0.960 . S
C89 H92 0.961 . S
H90 C89 0.959 . S
H91 C89 0.960 . S
H92 C89 0.961 . S
O93 Co68 1.967 . S
O93 C101 1.258 . S
O94 Co69 1.941 . S
O94 C101 1.266 . S
H95 C97 0.959 . S
H96 C97 0.961 . S
C97 C87 1.510 . S
C97 H95 0.959 . S
C97 H96 0.961 . S
C97 H98 0.960 . S
H98 C97 0.960 . S
H99 N79 0.862 . S
O100 Co68 1.920 . S
O100 C73 1.289 . S
C101 O93 1.258 . S
C101 O94 1.266 . S
Co102 O105 1.970 . S
Co102 N119 1.989 . S
Co102 O127 1.967 1_455 S
Co102 O134 1.920 . S
Co103 O106 1.966 1_655 S
Co103 N112 2.022 . S
Co103 N120 1.993 . S
Co103 O128 1.941 . S
C104 O105 1.258 . S
C104 O106 1.263 . S
O105 Co102 1.970 . S
O105 C104 1.258 . S
O106 Co103 1.966 1_455 S
O106 C104 1.263 . S
C107 O108 1.235 . S
C107 O134 1.289 . S
O108 C107 1.235 . S
C109 C111 1.400 . S
C109 N112 1.351 . S
C109 C114 1.501 1_655 S
C110 C111 1.387 . S
C110 N113 1.341 . S
C111 C109 1.400 . S
C111 C110 1.387 . S
N112 Co103 2.022 . S
N112 C109 1.351 . S
N112 N113 1.365 . S
N113 C110 1.341 . S
N113 N112 1.365 . S
N113 H133 0.862 . S
C114 C109 1.501 1_455 S
C114 H115 0.961 . S
C114 H116 0.961 . S
C114 H117 0.960 . S
H115 C114 0.961 . S
H116 C114 0.961 . S
H117 C114 0.960 . S
C118 N119 1.342 . S
C118 C122 1.401 . S
C118 C123 1.499 . S
N119 Co102 1.989 . S
N119 C118 1.342 . S
N119 N120 1.388 1_455 S
N120 Co103 1.993 . S
N120 N119 1.388 1_655 S
N120 C121 1.346 . S
C121 N120 1.346 . S
C121 C122 1.396 1_655 S
C121 C131 1.510 . S
C122 C118 1.401 . S
C122 C121 1.396 1_455 S
C123 C118 1.499 . S
C123 H124 0.959 . S
C123 H125 0.960 . S
C123 H126 0.961 . S
H124 C123 0.959 . S
H125 C123 0.960 . S
H126 C123 0.961 . S
O127 Co102 1.967 1_655 S
O127 C135 1.258 . S
O128 Co103 1.941 . S
O128 C135 1.266 . S
H129 C131 0.959 . S
H130 C131 0.961 1_455 S
C131 C121 1.510 . S
C131 H129 0.959 . S
C131 H130 0.961 1_655 S
C131 H132 0.960 . S
H132 C131 0.960 . S
H133 N113 0.862 . S
O134 Co102 1.920 . S
O134 C107 1.289 . S
C135 O127 1.258 . S
C135 O128 1.266 . S
Co136 O139 1.970 . S
Co136 N153 1.989 . S
Co136 O161 1.967 1_545 S
Co136 O168 1.920 . S
Co137 O140 1.966 1_565 S
Co137 N146 2.022 . S
Co137 N154 1.993 . S
Co137 O162 1.941 . S
C138 O139 1.258 . S
C138 O140 1.263 . S
O139 Co136 1.970 . S
O139 C138 1.258 . S
O140 Co137 1.966 1_545 S
O140 C138 1.263 . S
C141 O142 1.235 . S
C141 O168 1.289 . S
O142 C141 1.235 . S
C143 C145 1.400 . S
C143 N146 1.351 . S
C143 C148 1.501 1_565 S
C144 C145 1.387 . S
C144 N147 1.341 . S
C145 C143 1.400 . S
C145 C144 1.387 . S
N146 Co137 2.022 . S
N146 C143 1.351 . S
N146 N147 1.365 . S
N147 C144 1.341 . S
N147 N146 1.365 . S
N147 H167 0.862 . S
C148 C143 1.501 1_545 S
C148 H149 0.961 . S
C148 H150 0.961 . S
C148 H151 0.960 . S
H149 C148 0.961 . S
H150 C148 0.961 . S
H151 C148 0.960 . S
C152 N153 1.342 . S
C152 C156 1.401 . S
C152 C157 1.499 . S
N153 Co136 1.989 . S
N153 C152 1.342 . S
N153 N154 1.388 1_545 S
N154 Co137 1.993 . S
N154 N153 1.388 1_565 S
N154 C155 1.347 1_565 S
C155 N154 1.347 1_545 S
C155 C156 1.392 . S
C155 C165 1.513 1_545 S
C156 C152 1.401 . S
C156 C155 1.392 . S
C157 C152 1.499 . S
C157 H158 0.959 . S
C157 H159 0.960 . S
C157 H160 0.961 . S
H158 C157 0.959 . S
H159 C157 0.960 . S
H160 C157 0.961 . S
O161 Co136 1.967 1_565 S
O161 C169 1.258 . S
O162 Co137 1.941 . S
O162 C169 1.266 . S
H163 C165 0.959 . S
H164 C165 0.961 1_545 S
C165 C155 1.513 1_565 S
C165 H163 0.959 . S
C165 H164 0.961 1_565 S
C165 H166 0.960 . S
H166 C165 0.960 . S
H167 N147 0.862 . S
O168 Co136 1.920 . S
O168 C141 1.289 . S
C169 O161 1.258 . S
C169 O162 1.266 . S
Co170 O173 1.970 . S
Co170 N187 1.989 . S
Co170 O195 1.967 . S
Co170 O202 1.920 . S
Co171 O174 1.966 . S
Co171 N180 2.022 . S
Co171 N188 1.993 . S
Co171 O196 1.941 . S
C172 O173 1.258 . S
C172 O174 1.263 . S
O173 Co170 1.970 . S
O173 C172 1.258 . S
O174 Co171 1.966 . S
O174 C172 1.263 . S
C175 O176 1.235 . S
C175 O202 1.289 . S
O176 C175 1.235 . S
C177 C179 1.400 . S
C177 N180 1.351 . S
C177 C182 1.501 . S
C178 C179 1.387 . S
C178 N181 1.341 . S
C179 C177 1.400 . S
C179 C178 1.387 . S
N180 Co171 2.022 . S
N180 C177 1.351 . S
N180 N181 1.365 . S
N181 C178 1.341 . S
N181 N180 1.365 . S
N181 H201 0.862 . S
C182 C177 1.501 . S
C182 H183 0.961 . S
C182 H184 0.961 . S
C182 H185 0.960 1_455 S
H183 C182 0.961 . S
H184 C182 0.961 . S
H185 C182 0.960 1_655 S
C186 N187 1.342 . S
C186 C190 1.401 . S
C186 C191 1.499 . S
N187 Co170 1.989 . S
N187 C186 1.342 . S
N187 N188 1.388 . S
N188 Co171 1.993 . S
N188 N187 1.388 . S
N188 C189 1.346 . S
C189 N188 1.346 . S
C189 C190 1.396 . S
C189 C199 1.510 . S
C190 C186 1.401 . S
C190 C189 1.396 . S
C191 C186 1.499 . S
C191 H192 0.959 . S
C191 H193 0.960 . S
C191 H194 0.961 . S
H192 C191 0.959 . S
H193 C191 0.960 . S
H194 C191 0.961 . S
O195 Co170 1.967 . S
O195 C203 1.258 . S
O196 Co171 1.941 . S
O196 C203 1.266 . S
H197 C199 0.959 . S
H198 C199 0.961 . S
C199 C189 1.510 . S
C199 H197 0.959 . S
C199 H198 0.961 . S
C199 H200 0.960 . S
H200 C199 0.960 . S
H201 N181 0.862 . S
O202 Co170 1.920 . S
O202 C175 1.289 . S
C203 O195 1.258 . S
C203 O196 1.266 . S
Co204 O207 1.970 . S
Co204 N221 1.989 . S
Co204 O229 1.967 1_545 S
Co204 O236 1.920 . S
Co205 O208 1.966 1_565 S
Co205 N214 2.022 . S
Co205 N222 1.993 . S
Co205 O230 1.941 . S
C206 O207 1.258 . S
C206 O208 1.263 . S
O207 Co204 1.970 . S
O207 C206 1.258 . S
O208 Co205 1.966 1_545 S
O208 C206 1.263 . S
C209 O210 1.235 . S
C209 O236 1.289 . S
O210 C209 1.235 . S
C211 C213 1.400 . S
C211 N214 1.351 . S
C211 C216 1.501 1_565 S
C212 C213 1.387 . S
C212 N215 1.341 . S
C213 C211 1.400 . S
C213 C212 1.387 . S
N214 Co205 2.022 . S
N214 C211 1.351 . S
N214 N215 1.365 . S
N215 C212 1.341 . S
N215 N214 1.365 . S
N215 H235 0.862 . S
C216 C211 1.501 1_545 S
C216 H217 0.961 . S
C216 H218 0.961 . S
C216 H219 0.960 . S
H217 C216 0.961 . S
H218 C216 0.961 . S
H219 C216 0.960 . S
C220 N221 1.342 . S
C220 C224 1.401 . S
C220 C225 1.499 . S
N221 Co204 1.989 . S
N221 C220 1.342 . S
N221 N222 1.388 1_545 S
N222 Co205 1.993 . S
N222 N221 1.388 1_565 S
N222 C223 1.346 . S
C223 N222 1.346 . S
C223 C224 1.396 1_565 S
C223 C233 1.510 . S
C224 C220 1.401 . S
C224 C223 1.396 1_545 S
C225 C220 1.499 . S
C225 H226 0.959 . S
C225 H227 0.960 . S
C225 H228 0.961 . S
H226 C225 0.959 . S
H227 C225 0.960 . S
H228 C225 0.961 . S
O229 Co204 1.967 1_565 S
O229 C237 1.258 . S
O230 Co205 1.941 . S
O230 C237 1.266 . S
H231 C233 0.959 . S
H232 C233 0.961 1_545 S
C233 C223 1.510 . S
C233 H231 0.959 . S
C233 H232 0.961 1_565 S
C233 H234 0.960 . S
H234 C233 0.960 . S
H235 N215 0.862 . S
O236 Co204 1.920 . S
O236 C209 1.289 . S
C237 O229 1.258 . S
C237 O230 1.266 . S
Co238 O241 1.970 . S
Co238 N255 1.989 . S
Co238 O263 1.967 . S
Co238 O270 1.920 . S
Co239 O242 1.966 . S
Co239 N248 2.022 . S
Co239 N256 1.993 . S
Co239 O264 1.941 . S
C240 O241 1.258 . S
C240 O242 1.263 . S
O241 Co238 1.970 . S
O241 C240 1.258 . S
O242 Co239 1.966 . S
O242 C240 1.263 . S
C243 O244 1.235 . S
C243 O270 1.289 . S
O244 C243 1.235 . S
C245 C247 1.400 . S
C245 N248 1.351 . S
C245 C250 1.501 . S
C246 C247 1.387 . S
C246 N249 1.341 . S
C247 C245 1.400 . S
C247 C246 1.387 . S
N248 Co239 2.022 . S
N248 C245 1.351 . S
N248 N249 1.365 . S
N249 C246 1.341 . S
N249 N248 1.365 . S
N249 H269 0.862 . S
C250 C245 1.501 . S
C250 H251 0.961 . S
C250 H252 0.961 . S
C250 H253 0.960 1_565 S
H251 C250 0.961 . S
H252 C250 0.961 . S
H253 C250 0.960 1_545 S
C254 N255 1.342 . S
C254 C258 1.401 . S
C254 C259 1.499 . S
N255 Co238 1.989 . S
N255 C254 1.342 . S
N255 N256 1.388 . S
N256 Co239 1.993 . S
N256 N255 1.388 . S
N256 C257 1.346 . S
C257 N256 1.346 . S
C257 C258 1.396 . S
C257 C267 1.510 . S
C258 C254 1.401 . S
C258 C257 1.396 . S
C259 C254 1.499 . S
C259 H260 0.959 . S
C259 H261 0.960 . S
C259 H262 0.961 . S
H260 C259 0.959 . S
H261 C259 0.960 . S
H262 C259 0.961 . S
O263 Co238 1.967 . S
O263 C271 1.258 . S
O264 Co239 1.941 . S
O264 C271 1.266 . S
H265 C267 0.959 . S
H266 C267 0.961 . S
C267 C257 1.510 . S
C267 H265 0.959 . S
C267 H266 0.961 . S
C267 H268 0.960 . S
H268 C267 0.960 . S
H269 N249 0.862 . S
O270 Co238 1.920 . S
O270 C243 1.289 . S
C271 O263 1.258 . S
C271 O264 1.266 . S
Co272 O275 1.970 . S
Co272 N289 1.989 . S
Co272 O297 1.967 1_655 S
Co272 O304 1.920 . S
Co273 O276 1.966 1_455 S
Co273 N282 2.022 . S
Co273 N290 1.993 . S
Co273 O298 1.941 . S
C274 O275 1.258 . S
C274 O276 1.263 . S
O275 Co272 1.970 . S
O275 C274 1.258 . S
O276 Co273 1.966 1_655 S
O276 C274 1.263 . S
C277 O278 1.235 . S
C277 O304 1.289 . S
O278 C277 1.235 . S
C279 C281 1.400 . S
C279 N282 1.351 . S
C279 C284 1.501 1_455 S
C280 C281 1.387 . S
C280 N283 1.341 . S
C281 C279 1.400 . S
C281 C280 1.387 . S
N282 Co273 2.022 . S
N282 C279 1.351 . S
N282 N283 1.365 . S
N283 C280 1.341 . S
N283 N282 1.365 . S
N283 H303 0.862 . S
C284 C279 1.501 1_655 S
C284 H285 0.961 . S
C284 H286 0.961 . S
C284 H287 0.960 . S
H285 C284 0.961 . S
H286 C284 0.961 . S
H287 C284 0.960 . S
C288 N289 1.342 . S
C288 C292 1.401 . S
C288 C293 1.499 . S
N289 Co272 1.989 . S
N289 C288 1.342 . S
N289 N290 1.388 1_655 S
N290 Co273 1.993 . S
N290 N289 1.388 1_455 S
N290 C291 1.347 1_455 S
C291 N290 1.347 1_655 S
C291 C292 1.392 . S
C291 C301 1.513 1_655 S
C292 C288 1.401 . S
C292 C291 1.392 . S
C293 C288 1.499 . S
C293 H294 0.959 . S
C293 H295 0.960 . S
C293 H296 0.961 . S
H294 C293 0.959 . S
H295 C293 0.960 . S
H296 C293 0.961 . S
O297 Co272 1.967 1_455 S
O297 C305 1.258 . S
O298 Co273 1.941 . S
O298 C305 1.266 . S
H299 C301 0.959 . S
H300 C301 0.961 1_655 S
C301 C291 1.513 1_455 S
C301 H299 0.959 . S
C301 H300 0.961 1_455 S
C301 H302 0.960 . S
H302 C301 0.960 . S
H303 N283 0.862 . S
O304 Co272 1.920 . S
O304 C277 1.289 . S
C305 O297 1.258 . S
C305 O298 1.266 . S
Co306 O309 1.970 . S
Co306 N323 1.989 . S
Co306 O331 1.967 1_565 S
Co306 O338 1.920 . S
Co307 O310 1.966 1_545 S
Co307 N316 2.022 . S
Co307 N324 1.993 . S
Co307 O332 1.941 . S
C308 O309 1.258 . S
C308 O310 1.263 . S
O309 Co306 1.970 . S
O309 C308 1.258 . S
O310 Co307 1.966 1_565 S
O310 C308 1.263 . S
C311 O312 1.235 . S
C311 O338 1.289 . S
O312 C311 1.235 . S
C313 C315 1.400 . S
C313 N316 1.351 . S
C313 C318 1.501 1_545 S
C314 C315 1.387 . S
C314 N317 1.341 . S
C315 C313 1.400 . S
C315 C314 1.387 . S
N316 Co307 2.022 . S
N316 C313 1.351 . S
N316 N317 1.365 . S
N317 C314 1.341 . S
N317 N316 1.365 . S
N317 H337 0.862 . S
C318 C313 1.501 1_565 S
C318 H319 0.961 . S
C318 H320 0.961 . S
C318 H321 0.960 . S
H319 C318 0.961 . S
H320 C318 0.961 . S
H321 C318 0.960 . S
C322 N323 1.342 . S
C322 C326 1.401 . S
C322 C327 1.499 . S
N323 Co306 1.989 . S
N323 C322 1.342 . S
N323 N324 1.388 1_565 S
N324 Co307 1.993 . S
N324 N323 1.388 1_545 S
N324 C325 1.346 . S
C325 N324 1.346 . S
C325 C326 1.396 1_545 S
C325 C335 1.510 . S
C326 C322 1.401 . S
C326 C325 1.396 1_565 S
C327 C322 1.499 . S
C327 H328 0.959 . S
C327 H329 0.960 . S
C327 H330 0.961 . S
H328 C327 0.959 . S
H329 C327 0.960 . S
H330 C327 0.961 . S
O331 Co306 1.967 1_545 S
O331 C339 1.258 . S
O332 Co307 1.941 . S
O332 C339 1.266 . S
H333 C335 0.959 . S
H334 C335 0.961 1_565 S
C335 C325 1.510 . S
C335 H333 0.959 . S
C335 H334 0.961 1_545 S
C335 H336 0.960 . S
H336 C335 0.960 . S
H337 N317 0.862 . S
O338 Co306 1.920 . S
O338 C311 1.289 . S
C339 O331 1.258 . S
C339 O332 1.266 . S
Co340 O343 1.970 . S
Co340 N357 1.989 . S
Co340 O365 1.967 . S
Co340 O372 1.920 . S
Co341 O344 1.966 . S
Co341 N350 2.022 . S
Co341 N358 1.993 . S
Co341 O366 1.941 . S
C342 O343 1.258 . S
C342 O344 1.263 . S
O343 Co340 1.970 . S
O343 C342 1.258 . S
O344 Co341 1.966 . S
O344 C342 1.263 . S
C345 O346 1.235 . S
C345 O372 1.289 . S
O346 C345 1.235 . S
C347 C349 1.400 . S
C347 N350 1.351 . S
C347 C352 1.501 . S
C348 C349 1.387 . S
C348 N351 1.341 . S
C349 C347 1.400 . S
C349 C348 1.387 . S
N350 Co341 2.022 . S
N350 C347 1.351 . S
N350 N351 1.365 . S
N351 C348 1.341 . S
N351 N350 1.365 . S
N351 H371 0.862 . S
C352 C347 1.501 . S
C352 H353 0.961 . S
C352 H354 0.961 . S
C352 H355 0.960 1_545 S
H353 C352 0.961 . S
H354 C352 0.961 . S
H355 C352 0.960 1_565 S
C356 N357 1.342 . S
C356 C360 1.401 . S
C356 C361 1.499 . S
N357 Co340 1.989 . S
N357 C356 1.342 . S
N357 N358 1.388 . S
N358 Co341 1.993 . S
N358 N357 1.388 . S
N358 C359 1.346 . S
C359 N358 1.346 . S
C359 C360 1.396 . S
C359 C369 1.510 . S
C360 C356 1.401 . S
C360 C359 1.396 . S
C361 C356 1.499 . S
C361 H362 0.959 . S
C361 H363 0.960 . S
C361 H364 0.961 . S
H362 C361 0.959 . S
H363 C361 0.960 . S
H364 C361 0.961 . S
O365 Co340 1.967 . S
O365 C373 1.258 . S
O366 Co341 1.941 . S
O366 C373 1.266 . S
H367 C369 0.959 . S
H368 C369 0.961 . S
C369 C359 1.510 . S
C369 H367 0.959 . S
C369 H368 0.961 . S
C369 H370 0.960 . S
H370 C369 0.960 . S
H371 N351 0.862 . S
O372 Co340 1.920 . S
O372 C345 1.289 . S
C373 O365 1.258 . S
C373 O366 1.266 . S
Co374 O377 1.970 . S
Co374 N391 1.989 . S
Co374 O399 1.967 1_455 S
Co374 O406 1.920 . S
Co375 O378 1.966 1_655 S
Co375 N384 2.022 . S
Co375 N392 1.993 . S
Co375 O400 1.941 . S
C376 O377 1.258 . S
C376 O378 1.263 . S
O377 Co374 1.970 . S
O377 C376 1.258 . S
O378 Co375 1.966 1_455 S
O378 C376 1.263 . S
C379 O380 1.235 . S
C379 O406 1.289 . S
O380 C379 1.235 . S
C381 C383 1.400 . S
C381 N384 1.351 . S
C381 C386 1.501 1_655 S
C382 C383 1.387 . S
C382 N385 1.341 . S
C383 C381 1.400 . S
C383 C382 1.387 . S
N384 Co375 2.022 . S
N384 C381 1.351 . S
N384 N385 1.365 . S
N385 C382 1.341 . S
N385 N384 1.365 . S
N385 H405 0.862 . S
C386 C381 1.501 1_455 S
C386 H387 0.961 . S
C386 H388 0.961 . S
C386 H389 0.960 . S
H387 C386 0.961 . S
H388 C386 0.961 . S
H389 C386 0.960 . S
C390 N391 1.342 . S
C390 C394 1.401 . S
C390 C395 1.499 . S
N391 Co374 1.989 . S
N391 C390 1.342 . S
N391 N392 1.388 1_455 S
N392 Co375 1.993 . S
N392 N391 1.388 1_655 S
N392 C393 1.347 1_655 S
C393 N392 1.347 1_455 S
C393 C394 1.392 . S
C393 C403 1.513 1_455 S
C394 C390 1.401 . S
C394 C393 1.392 . S
C395 C390 1.499 . S
C395 H396 0.959 . S
C395 H397 0.960 . S
C395 H398 0.961 . S
H396 C395 0.959 . S
H397 C395 0.960 . S
H398 C395 0.961 . S
O399 Co374 1.967 1_655 S
O399 C407 1.258 . S
O400 Co375 1.941 . S
O400 C407 1.266 . S
H401 C403 0.959 . S
H402 C403 0.961 1_455 S
C403 C393 1.513 1_655 S
C403 H401 0.959 . S
C403 H402 0.961 1_655 S
C403 H404 0.960 . S
H404 C403 0.960 . S
H405 N385 0.862 . S
O406 Co374 1.920 . S
O406 C379 1.289 . S
C407 O399 1.258 . S
C407 O400 1.266 . S
C408 C409 1.387 1_545 S
C408 H412 0.950 1_545 S
C408 C417 1.390 . S
C409 C408 1.387 1_565 S
C409 C411 1.387 . S
H410 C417 0.950 . S
C411 C409 1.387 . S
C411 C413 1.390 1_565 S
C411 H415 0.950 . S
H412 C408 0.950 1_565 S
C413 C411 1.390 1_545 S
C413 C414 1.387 . S
C413 H416 0.950 1_556 S
C414 C413 1.387 . S
C414 C417 1.387 . S
H415 C411 0.950 . S
H416 C413 0.950 1_554 S
C417 C408 1.390 . S
C417 H410 0.950 . S
C417 C414 1.387 . S
C418 C419 1.387 . S
C418 H422 0.950 . S
C418 C427 1.390 . S
C419 C418 1.387 . S
C419 C421 1.387 . S
H420 C427 0.950 . S
C421 C419 1.387 . S
C421 C423 1.390 . S
C421 H425 0.950 . S
H422 C418 0.950 . S
C423 C421 1.390 . S
C423 C424 1.387 . S
C423 H426 0.950 . S
C424 C423 1.387 . S
C424 C427 1.387 . S
H425 C421 0.950 . S
H426 C423 0.950 . S
C427 C418 1.390 . S
C427 H420 0.950 . S
C427 C424 1.387 . S
C428 C429 1.387 1_455 S
C428 H432 0.950 . S
C428 C437 1.390 . S
C429 C428 1.387 1_655 S
C429 C431 1.387 . S
H430 C437 0.950 . S
C431 C429 1.387 . S
C431 C433 1.390 1_655 S
C431 H435 0.950 . S
H432 C428 0.950 . S
C433 C431 1.390 1_455 S
C433 C434 1.387 . S
C433 H436 0.950 . S
C434 C433 1.387 . S
C434 C437 1.387 . S
H435 C431 0.950 . S
H436 C433 0.950 . S
C437 C428 1.390 . S
C437 H430 0.950 . S
C437 C434 1.387 . S
C438 C439 1.387 . S
C438 H442 0.950 . S
C438 C447 1.390 1_545 S
C439 C438 1.387 . S
C439 C441 1.387 . S
H440 C447 0.950 . S
C441 C439 1.387 . S
C441 C443 1.390 1_545 S
C441 H445 0.950 . S
H442 C438 0.950 . S
C443 C441 1.390 1_565 S
C443 C444 1.387 . S
C443 H446 0.950 . S
C444 C443 1.387 . S
C444 C447 1.387 . S
H445 C441 0.950 . S
H446 C443 0.950 . S
C447 C438 1.390 1_565 S
C447 H440 0.950 . S
C447 C444 1.387 . S
C448 C449 1.387 . S
C448 H452 0.950 . S
C448 C457 1.390 . S
C449 C448 1.387 . S
C449 C451 1.387 . S
H450 C457 0.950 . S
C451 C449 1.387 . S
C451 C453 1.390 . S
C451 H455 0.950 . S
H452 C448 0.950 . S
C453 C451 1.390 . S
C453 C454 1.387 . S
C453 H456 0.950 . S
C454 C453 1.387 . S
C454 C457 1.387 . S
H455 C451 0.950 . S
H456 C453 0.950 . S
C457 C448 1.390 . S
C457 H450 0.950 . S
C457 C454 1.387 . S
C458 C459 1.387 . S
C458 H462 0.950 . S
C458 C467 1.390 . S
C459 C458 1.387 . S
C459 C461 1.387 . S
H460 C467 0.950 . S
C461 C459 1.387 . S
C461 C463 1.390 1_655 S
C461 H465 0.950 . S
H462 C458 0.950 . S
C463 C461 1.390 1_455 S
C463 C464 1.387 . S
C463 H466 0.950 . S
C464 C463 1.387 . S
C464 C467 1.387 1_455 S
H465 C461 0.950 . S
H466 C463 0.950 . S
C467 C458 1.390 . S
C467 H460 0.950 . S
C467 C464 1.387 1_655 S
C468 C469 1.387 . S
C468 H472 0.950 . S
C468 C477 1.390 . S
C469 C468 1.387 . S
C469 C471 1.387 1_445 S
H470 C477 0.950 . S
C471 C469 1.387 1_665 S
C471 C473 1.390 . S
C471 H475 0.950 . S
H472 C468 0.950 . S
C473 C471 1.390 . S
C473 C474 1.387 1_655 S
C473 H476 0.950 . S
C474 C473 1.387 1_455 S
C474 C477 1.387 1_565 S
H475 C471 0.950 . S
H476 C473 0.950 . S
C477 C468 1.390 . S
C477 H470 0.950 . S
C477 C474 1.387 1_545 S
C478 C479 1.387 1_565 S
C478 H482 0.950 . S
C478 C487 1.390 1_655 S
C479 C478 1.387 1_545 S
C479 C481 1.387 1_655 S
H480 C487 0.950 . S
C481 C479 1.387 1_455 S
C481 C483 1.390 . S
C481 H485 0.950 . S
H482 C478 0.950 . S
C483 C481 1.390 . S
C483 C484 1.387 . S
C483 H486 0.950 . S
C484 C483 1.387 . S
C484 C487 1.387 1_545 S
H485 C481 0.950 . S
H486 C483 0.950 . S
C487 C478 1.390 1_455 S
C487 H480 0.950 . S
C487 C484 1.387 1_565 S
C488 C489 1.387 1_655 S
C488 H492 0.950 . S
C488 C497 1.390 1_545 S
C489 C488 1.387 1_455 S
C489 C491 1.387 . S
H490 C497 0.950 . S
C491 C489 1.387 . S
C491 C493 1.390 1_545 S
C491 H495 0.950 . S
H492 C488 0.950 . S
C493 C491 1.390 1_565 S
C493 C494 1.387 1_455 S
C493 H496 0.950 . S
C494 C493 1.387 1_655 S
C494 C497 1.387 . S
H495 C491 0.950 . S
H496 C493 0.950 . S
C497 C488 1.390 1_565 S
C497 H490 0.950 . S
C497 C494 1.387 . S
C498 C499 1.387 1_565 S
C498 H502 0.950 . S
C498 C507 1.390 . S
C499 C498 1.387 1_545 S
C499 C501 1.387 . S
H500 C507 0.950 . S
C501 C499 1.387 . S
C501 C503 1.390 . S
C501 H505 0.950 1_655 S
H502 C498 0.950 . S
C503 C501 1.390 . S
C503 C504 1.387 1_545 S
C503 H506 0.950 1_655 S
C504 C503 1.387 1_565 S
C504 C507 1.387 . S
H505 C501 0.950 1_455 S
H506 C503 0.950 1_455 S
C507 C498 1.390 . S
C507 H500 0.950 . S
C507 C504 1.387 . S
C508 C509 1.387 1_655 S
C508 H512 0.950 . S
C508 C517 1.390 . S
C509 C508 1.387 1_455 S
C509 C511 1.387 1_465 S
H510 C517 0.950 . S
C511 C509 1.387 1_645 S
C511 C513 1.390 . S
C511 H515 0.950 1_655 S
H512 C508 0.950 . S
C513 C511 1.390 . S
C513 C514 1.387 1_545 S
C513 H516 0.950 . S
C514 C513 1.387 1_565 S
C514 C517 1.387 . S
H515 C511 0.950 1_455 S
H516 C513 0.950 . S
C517 C508 1.390 . S
C517 H510 0.950 . S
C517 C514 1.387 . S
C518 C519 1.387 1_445 S
C518 H522 0.950 . S
C518 C527 1.390 . S
C519 C518 1.387 1_665 S
C519 C521 1.387 . S
H520 C527 0.950 . S
C521 C519 1.387 . S
C521 C523 1.390 . S
C521 H525 0.950 . S
H522 C518 0.950 . S
C523 C521 1.390 . S
C523 C524 1.387 1_665 S
C523 H526 0.950 . S
C524 C523 1.387 1_445 S
C524 C527 1.387 . S
H525 C521 0.950 . S
H526 C523 0.950 . S
C527 C518 1.390 . S
C527 H520 0.950 . S
C527 C524 1.387 . S
C528 C529 1.387 . S
C528 H532 0.966 . S
C528 C537 1.390 1_556 S
C529 C528 1.387 . S
C529 C531 1.387 . S
H530 C537 0.950 . S
C531 C529 1.387 . S
C531 C533 1.390 . S
C531 H535 0.950 . S
H532 C528 0.966 . S
C533 C531 1.390 . S
C533 C534 1.387 . S
C533 H536 0.950 . S
C534 C533 1.387 . S
C534 C537 1.387 1_556 S
H535 C531 0.950 . S
H536 C533 0.950 . S
C537 C528 1.390 1_554 S
C537 H530 0.950 . S
C537 C534 1.387 1_554 S
C538 C539 1.387 . S
C538 H542 0.950 . S
C538 C547 1.390 . S
C539 C538 1.387 . S
C539 C541 1.387 . S
H540 C547 0.950 . S
C541 C539 1.387 . S
C541 C543 1.390 . S
C541 H545 0.950 . S
H542 C538 0.950 . S
C543 C541 1.390 . S
C543 C544 1.387 . S
C543 H546 0.950 . S
C544 C543 1.387 . S
C544 C547 1.387 . S
H545 C541 0.950 . S
H546 C543 0.950 . S
C547 C538 1.390 . S
C547 H540 0.950 . S
C547 C544 1.387 . S
C548 C549 1.387 . S
C548 H552 0.950 . S
C548 C557 1.390 . S
C549 C548 1.387 . S
C549 C551 1.387 . S
H550 C557 0.950 . S
C551 C549 1.387 . S
C551 C553 1.390 . S
C551 H555 0.950 . S
H552 C548 0.950 . S
C553 C551 1.390 . S
C553 C554 1.387 . S
C553 H556 0.950 . S
C554 C553 1.387 . S
C554 C557 1.387 . S
H555 C551 0.950 . S
H556 C553 0.950 . S
C557 C548 1.390 . S
C557 H550 0.950 . S
C557 C554 1.387 . S
C558 C559 1.387 . S
C558 H562 0.950 . S
C558 C567 1.390 . S
C559 C558 1.387 . S
C559 C561 1.387 . S
H560 C567 0.950 . S
C561 C559 1.387 . S
C561 C563 1.390 . S
C561 H565 0.950 . S
H562 C558 0.950 . S
C563 C561 1.390 . S
C563 C564 1.387 . S
C563 H566 0.950 . S
C564 C563 1.387 . S
C564 C567 1.387 . S
H565 C561 0.950 . S
H566 C563 0.950 . S
C567 C558 1.390 . S
C567 H560 0.950 . S
C567 C564 1.387 . S
C568 C569 1.387 . S
C568 H572 0.950 . S
C568 C577 1.390 . S
C569 C568 1.387 . S
C569 C571 1.387 . S
H570 C577 0.950 . S
C571 C569 1.387 . S
C571 C573 1.390 . S
C571 H575 0.950 . S
H572 C568 0.950 . S
C573 C571 1.390 . S
C573 C574 1.387 . S
C573 H576 0.950 . S
C574 C573 1.387 . S
C574 C577 1.387 . S
H575 C571 0.950 . S
H576 C573 0.950 . S
C577 C568 1.390 . S
C577 H570 0.950 . S
C577 C574 1.387 . S
C578 C579 1.387 . S
C578 H582 0.950 . S
C578 C587 1.390 . S
C579 C578 1.387 . S
C579 C581 1.387 . S
H580 C587 0.950 . S
C581 C579 1.387 . S
C581 C583 1.390 . S
C581 H585 0.950 . S
H582 C578 0.950 . S
C583 C581 1.390 . S
C583 C584 1.387 . S
C583 H586 0.950 . S
C584 C583 1.387 . S
C584 C587 1.387 . S
H585 C581 0.950 . S
H586 C583 0.950 . S
C587 C578 1.390 . S
C587 H580 0.950 . S
C587 C584 1.387 . S
C588 C589 1.387 . S
C588 H592 0.950 . S
C588 C597 1.390 . S
C589 C588 1.387 . S
C589 C591 1.387 . S
H590 C597 0.950 . S
C591 C589 1.387 . S
C591 C593 1.390 . S
C591 H595 0.950 . S
H592 C588 0.950 . S
C593 C591 1.390 . S
C593 C594 1.387 . S
C593 H596 0.950 . S
C594 C593 1.387 . S
C594 C597 1.387 . S
H595 C591 0.950 . S
H596 C593 0.950 . S
C597 C588 1.390 . S
C597 H590 0.950 . S
C597 C594 1.387 . S
C598 C599 1.387 . S
C598 H602 0.950 1_556 S
C598 C607 1.390 . S
C599 C598 1.387 . S
C599 C601 1.387 . S
H600 C607 0.950 . S
C601 C599 1.387 . S
C601 C603 1.390 . S
C601 H605 0.950 . S
H602 C598 0.950 1_554 S
C603 C601 1.390 . S
C603 C604 1.387 . S
C603 H606 0.950 . S
C604 C603 1.387 . S
C604 C607 1.387 . S
H605 C601 0.950 . S
H606 C603 0.950 . S
C607 C598 1.390 . S
C607 H600 0.950 . S
C607 C604 1.387 . S
C608 C609 1.387 . S
C608 H612 0.950 . S
C608 C617 1.390 . S
C609 C608 1.387 . S
C609 C611 1.387 . S
H610 C617 0.950 . S
C611 C609 1.387 . S
C611 C613 1.390 . S
C611 H615 0.950 . S
H612 C608 0.950 . S
C613 C611 1.390 . S
C613 C614 1.387 . S
C613 H616 0.950 . S
C614 C613 1.387 . S
C614 C617 1.387 . S
H615 C611 0.950 . S
H616 C613 0.950 . S
C617 C608 1.390 . S
C617 H610 0.950 . S
C617 C614 1.387 . S
C618 C619 1.387 . S
C618 H622 0.950 . S
C618 C627 1.390 . S
C619 C618 1.387 . S
C619 C621 1.387 . S
H620 C627 0.950 . S
C621 C619 1.387 . S
C621 C623 1.390 . S
C621 H625 0.950 . S
H622 C618 0.950 . S
C623 C621 1.390 . S
C623 C624 1.387 . S
C623 H626 0.950 . S
C624 C623 1.387 . S
C624 C627 1.387 . S
H625 C621 0.950 . S
H626 C623 0.950 . S
C627 C618 1.390 . S
C627 H620 0.950 . S
C627 C624 1.387 . S
C628 C629 1.387 . S
C628 H632 0.950 . S
C628 C637 1.390 . S
C629 C628 1.387 . S
C629 C631 1.387 . S
H630 C637 0.950 . S
C631 C629 1.387 . S
C631 C633 1.390 . S
C631 H635 0.950 . S
H632 C628 0.950 . S
C633 C631 1.390 . S
C633 C634 1.387 . S
C633 H636 0.950 . S
C634 C633 1.387 . S
C634 C637 1.387 . S
H635 C631 0.950 . S
H636 C633 0.950 . S
C637 C628 1.390 . S
C637 H630 0.950 . S
C637 C634 1.387 . S
C638 C639 1.387 . S
C638 H642 0.950 . S
C638 C647 1.390 . S
C639 C638 1.387 . S
C639 C641 1.387 . S
H640 C647 0.950 . S
C641 C639 1.387 . S
C641 C643 1.390 . S
C641 H645 0.950 . S
H642 C638 0.950 . S
C643 C641 1.390 . S
C643 C644 1.387 . S
C643 H646 0.950 . S
C644 C643 1.387 . S
C644 C647 1.387 . S
H645 C641 0.950 . S
H646 C643 0.950 . S
C647 C638 1.390 . S
C647 H640 0.950 . S
C647 C644 1.387 . S
C648 C649 1.387 . S
C648 H652 0.950 . S
C648 C657 1.390 . S
C649 C648 1.387 . S
C649 C651 1.387 1_655 S
H650 C657 0.950 . S
C651 C649 1.387 1_455 S
C651 C653 1.390 . S
C651 H655 0.950 . S
H652 C648 0.950 . S
C653 C651 1.390 . S
C653 C654 1.387 1_455 S
C653 H656 0.950 . S
C654 C653 1.387 1_655 S
C654 C657 1.387 . S
H655 C651 0.950 . S
H656 C653 0.950 . S
C657 C648 1.390 . S
C657 H650 0.950 . S
C657 C654 1.387 . S
C658 C659 1.387 . S
C658 H662 0.950 . S
C658 C667 1.390 . S
C659 C658 1.387 . S
C659 C661 1.387 1_565 S
H660 C667 0.950 . S
C661 C659 1.387 1_545 S
C661 C663 1.390 . S
C661 H665 0.950 . S
H662 C658 0.950 . S
C663 C661 1.390 . S
C663 C664 1.387 1_545 S
C663 H666 0.950 . S
C664 C663 1.387 1_565 S
C664 C667 1.387 . S
H665 C661 0.950 . S
H666 C663 0.950 . S
C667 C658 1.390 . S
C667 H660 0.950 . S
C667 C664 1.387 . S
C668 C669 1.387 . S
C668 H672 0.950 . S
C668 C677 1.390 . S
C669 C668 1.387 . S
C669 C671 1.387 . S
H670 C677 0.950 . S
C671 C669 1.387 . S
C671 C673 1.390 . S
C671 H675 0.950 . S
H672 C668 0.950 . S
C673 C671 1.390 . S
C673 C674 1.387 . S
C673 H676 0.950 . S
C674 C673 1.387 . S
C674 C677 1.387 . S
H675 C671 0.950 . S
H676 C673 0.950 . S
C677 C668 1.390 . S
C677 H670 0.950 . S
C677 C674 1.387 . S
C678 C679 1.387 1_655 S
C678 H682 0.950 . S
C678 C687 1.390 . S
C679 C678 1.387 1_455 S
C679 C681 1.387 . S
H680 C687 0.950 . S
C681 C679 1.387 . S
C681 C683 1.390 . S
C681 H685 0.950 . S
H682 C678 0.950 . S
C683 C681 1.390 . S
C683 C684 1.387 . S
C683 H686 0.950 . S
C684 C683 1.387 . S
C684 C687 1.387 1_455 S
H685 C681 0.950 . S
H686 C683 0.950 . S
C687 C678 1.390 . S
C687 H680 0.950 . S
C687 C684 1.387 1_655 S
C688 C689 1.387 1_565 S
C688 H692 0.950 . S
C688 C697 1.390 . S
C689 C688 1.387 1_545 S
C689 C691 1.387 . S
H690 C697 0.950 . S
C691 C689 1.387 . S
C691 C693 1.390 . S
C691 H695 0.950 . S
H692 C688 0.950 . S
C693 C691 1.390 . S
C693 C694 1.387 . S
C693 H696 0.950 . S
C694 C693 1.387 . S
C694 C697 1.387 1_545 S
H695 C691 0.950 . S
H696 C693 0.950 . S
C697 C688 1.390 . S
C697 H690 0.950 . S
C697 C694 1.387 1_565 S
C698 C699 1.387 . S
C698 H702 0.950 . S
C698 C707 1.390 . S
C699 C698 1.387 . S
C699 C701 1.387 . S
H700 C707 0.950 . S
C701 C699 1.387 . S
C701 C703 1.390 . S
C701 H705 0.950 . S
H702 C698 0.950 . S
C703 C701 1.390 . S
C703 C704 1.387 . S
C703 H706 0.950 . S
C704 C703 1.387 . S
C704 C707 1.387 . S
H705 C701 0.950 . S
H706 C703 0.950 . S
C707 C698 1.390 . S
C707 H700 0.950 . S
C707 C704 1.387 . S
C409 C240 2.099 . S
C414 C2 2.103 1_556 S
C419 C274 2.011 . S
C424 C36 2.014 . S
C429 C70 2.099 . S
C434 C308 2.103 . S
C439 C342 2.099 . S
C444 C104 2.103 . S
C449 C138 2.011 . S
C454 C376 2.014 . S
C459 C206 2.103 . S
C464 C172 2.099 . S
C469 C9 1.172 . S
C474 C281 1.167 . S
C479 C43 1.164 . S
C484 C315 1.171 . S
C489 C349 1.079 . S
C494 C77 1.077 . S
C499 C383 1.167 . S
C504 C111 1.171 . S
C509 C145 1.165 . S
C514 C213 1.174 . S
C519 C247 1.079 . S
C524 C179 1.076 . S
C529 C243 1.416 . S
C534 C33 1.424 1_556 S
C539 C277 1.557 . S
C544 C67 1.569 . S
C549 C311 1.621 . S
C554 C101 1.640 . S
C559 C135 1.424 . S
C564 C345 1.415 . S
C569 C379 1.557 . S
C574 C169 1.569 . S
C579 C203 1.639 . S
C584 C209 1.623 . S
C589 C237 1.424 . S
C594 C175 1.414 . S
C599 C5 1.620 . S
C604 C271 1.639 . S
C609 C39 1.557 . S
C614 C305 1.569 . S
C619 C73 1.415 . S
C624 C339 1.424 . S
C629 C107 1.620 . S
C634 C373 1.640 . S
C639 C141 1.558 . S
C644 C407 1.569 . S
C649 C292 1.486 . S
C654 C20 1.487 . S
C659 C54 1.487 . S
C664 C326 1.487 . S
C669 C360 1.626 . S
C674 C88 1.626 . S
C679 C122 1.486 . S
C684 C394 1.486 . S
C689 C156 1.486 . S
C694 C224 1.486 . S
C699 C258 1.626 . S
C704 C190 1.626 . S
