# Generated by pormake.
# Topology mok, (4)-cn, num edge types: 1
# Building blocks:
#     Node 0, Type 0, BuildingBlock: QUQFOY_clean_sbu_3, # of connection points: 4
#     Node 1, Type 0, BuildingBlock: QUQFOY_clean_sbu_3, # of connection points: 4
#     Node 2, Type 0, BuildingBlock: QUQFOY_clean_sbu_3, # of connection points: 4
#     Node 3, Type 0, BuildingBlock: QUQFOY_clean_sbu_3, # of connection points: 4
#     Node 4, Type 0, BuildingBlock: QUQFOY_clean_sbu_3, # of connection points: 4
#     Node 5, Type 0, BuildingBlock: QUQFOY_clean_sbu_3, # of connection points: 4
#     Node 6, Type 0, BuildingBlock: QUQFOY_clean_sbu_3, # of connection points: 4
#     Node 7, Type 0, BuildingBlock: QUQFOY_clean_sbu_3, # of connection points: 4
#     Edge 8, Type (0, 0), BuildingBlock: UVAHIK_clean_linker_0, # of connection points: 2
#     Edge 9, Type (0, 0), BuildingBlock: UVAHIK_clean_linker_0, # of connection points: 2
#     Edge 10, Type (0, 0), BuildingBlock: UVAHIK_clean_linker_0, # of connection points: 2
#     Edge 11, Type (0, 0), BuildingBlock: UVAHIK_clean_linker_0, # of connection points: 2
#     Edge 12, Type (0, 0), BuildingBlock: UVAHIK_clean_linker_0, # of connection points: 2
#     Edge 13, Type (0, 0), BuildingBlock: UVAHIK_clean_linker_0, # of connection points: 2
#     Edge 14, Type (0, 0), BuildingBlock: UVAHIK_clean_linker_0, # of connection points: 2
#     Edge 15, Type (0, 0), BuildingBlock: UVAHIK_clean_linker_0, # of connection points: 2
#     Edge 16, Type (0, 0), BuildingBlock: UVAHIK_clean_linker_0, # of connection points: 2
#     Edge 17, Type (0, 0), BuildingBlock: UVAHIK_clean_linker_0, # of connection points: 2
#     Edge 18, Type (0, 0), BuildingBlock: UVAHIK_clean_linker_0, # of connection points: 2
#     Edge 19, Type (0, 0), BuildingBlock: UVAHIK_clean_linker_0, # of connection points: 2
#     Edge 20, Type (0, 0), BuildingBlock: UVAHIK_clean_linker_0, # of connection points: 2
#     Edge 21, Type (0, 0), BuildingBlock: UVAHIK_clean_linker_0, # of connection points: 2
#     Edge 22, Type (0, 0), BuildingBlock: UVAHIK_clean_linker_0, # of connection points: 2
#     Edge 23, Type (0, 0), BuildingBlock: UVAHIK_clean_linker_0, # of connection points: 2
# Relax obj value: 0.013
# Max RMSD: 0.033
# Mean RMSD: 0.033
data_MOF--net-mok--node1-QUQFOY_clean_sbu_3--edge1-UVAHIK_clean_linker_0
_symmetry_space_group_name_H-M    P1
_symmetry_Int_Tables_number       1
_symmetry_cell_setting            triclinic
loop_
_symmetry_equiv_pos_as_xyz
'x, y, z'
_cell_length_a     70.997784
_cell_length_b     20.812983
_cell_length_c     36.218224
_cell_angle_alpha  90.049926
_cell_angle_beta   90.230264
_cell_angle_gamma 89.928778
loop_
_atom_site_label
_atom_site_type_symbol
_atom_site_fract_x
_atom_site_fract_y
_atom_site_fract_z
_atom_type_partial_charge
C0 C 0.61205 0.42704 0.06768 0.0
O1 O 0.61493 0.46914 0.04301 0.0
Cd2 Cd 0.61835 0.43631 0.97987 0.0
O3 O 0.60937 0.36857 0.05884 0.0
Cd4 Cd 0.60562 0.29436 0.00671 0.0
C5 C 0.65199 0.31607 -0.00934 0.0
O6 O 0.59141 0.37199 0.96565 0.0
O7 O 0.59908 0.28131 0.9408 0.0
O8 O 0.57748 0.26754 0.03982 0.0
C9 C 0.5915 0.33621 0.93733 0.0
O10 O 0.64714 0.37243 0.98071 0.0
C11 C 0.5792 0.20703 0.03793 0.0
O12 O 0.63981 0.27609 0.00246 0.0
O13 O 0.59395 0.18556 0.02221 0.0
C14 C 0.38645 0.57752 0.07198 0.0
O15 O 0.38344 0.53552 0.04719 0.0
Cd16 Cd 0.37999 0.56543 0.98362 0.0
O17 O 0.38944 0.6359 0.06334 0.0
Cd18 Cd 0.39353 0.70946 0.011 0.0
C19 C 0.3469 0.68761 -0.00439 0.0
O20 O 0.40646 0.63086 0.96972 0.0
O21 O 0.39904 0.72143 0.9446 0.0
O22 O 0.4227 0.73825 0.04065 0.0
C23 C 0.40594 0.66551 0.94101 0.0
O24 O 0.35154 0.63116 0.98539 0.0
C25 C 0.42013 0.79854 0.04018 0.0
O26 O 0.35928 0.72735 0.00721 0.0
O27 O 0.40454 0.81858 0.02698 0.0
C28 C 0.5983 0.567 0.45458 0.0
O29 O 0.60111 0.52097 0.47695 0.0
Cd30 Cd 0.60355 0.53684 0.54223 0.0
O31 O 0.59513 0.62362 0.46639 0.0
Cd32 Cd 0.59055 0.6847 0.52394 0.0
C33 C 0.63689 0.65907 0.5417 0.0
O34 O 0.5767 0.59859 0.55877 0.0
O35 O 0.58426 0.68255 0.59041 0.0
O36 O 0.56172 0.7221 0.49619 0.0
C37 C 0.57695 0.62697 0.5897 0.0
O38 O 0.6321 0.60106 0.54783 0.0
C39 C 0.56472 0.7816 0.50087 0.0
O40 O 0.62473 0.70079 0.53154 0.0
O41 O 0.58038 0.79732 0.51554 0.0
C42 C 0.37464 0.42924 0.45809 0.0
O43 O 0.37116 0.47398 0.48094 0.0
Cd44 Cd 0.36808 0.45334 0.54554 0.0
O45 O 0.37807 0.37239 0.46924 0.0
Cd46 Cd 0.38239 0.30828 0.52576 0.0
C47 C 0.33574 0.32815 0.54065 0.0
O48 O 0.3956 0.39435 0.5617 0.0
O49 O 0.38861 0.3092 0.5926 0.0
O50 O 0.41134 0.2765 0.49671 0.0
C51 C 0.39573 0.36509 0.59231 0.0
O52 O 0.34004 0.38616 0.5481 0.0
C53 C 0.4095 0.21653 0.50152 0.0
O54 O 0.34832 0.28798 0.5306 0.0
O55 O 0.39437 0.19769 0.51683 0.0
C56 C 0.10345 0.92628 0.06929 0.0
O57 O 0.10622 0.96866 0.04474 0.0
Cd58 Cd 0.11225 0.93666 0.98241 0.0
O59 O 0.10227 0.86719 0.06054 0.0
Cd60 Cd 0.1017 0.79334 0.0077 0.0
C61 C 0.14792 0.82513 -0.00266 0.0
O62 O 0.08727 0.86619 0.96433 0.0
O63 O 0.09956 0.7807 0.94063 0.0
O64 O 0.07246 0.75831 0.03371 0.0
C65 C 0.09009 0.83184 0.936 0.0
O66 O 0.14236 0.88018 0.98639 0.0
C67 C 0.07618 0.69876 0.03432 0.0
O68 O 0.13615 0.7829 0.0081 0.0
O69 O 0.09241 0.68181 0.02303 0.0
C70 C 0.88517 0.05668 0.07575 0.0
O71 O 0.88308 0.01216 0.05209 0.0
Cd72 Cd 0.8826 0.03558 0.98734 0.0
O73 O 0.88888 0.11377 0.06556 0.0
Cd74 Cd 0.89574 0.17945 0.01097 0.0
C75 C 0.84972 0.15953 -0.01031 0.0
O76 O 0.91028 0.09619 0.97454 0.0
O77 O 0.90325 0.18321 0.94519 0.0
O78 O 0.92363 0.20944 0.04465 0.0
C79 C 0.9107 0.12778 0.94467 0.0
O80 O 0.85441 0.102 0.98187 0.0
C81 C 0.92192 0.26963 0.04038 0.0
O82 O 0.86186 0.19947 0.00199 0.0
O83 O 0.90733 0.28923 0.02318 0.0
C84 C 0.09531 0.07833 0.455 0.0
O85 O 0.09827 0.0335 0.47806 0.0
Cd86 Cd 0.10347 0.05648 0.54206 0.0
O87 O 0.09335 0.13611 0.46586 0.0
Cd88 Cd 0.09134 0.2027 0.5217 0.0
C89 C 0.13784 0.17441 0.53314 0.0
O90 O 0.07809 0.12283 0.562 0.0
O91 O 0.08922 0.2072 0.58897 0.0
O92 O 0.06158 0.23726 0.49722 0.0
C93 C 0.08076 0.15376 0.5917 0.0
O94 O 0.13279 0.11762 0.54171 0.0
C95 C 0.06474 0.29713 0.49863 0.0
O96 O 0.12573 0.2165 0.52332 0.0
O97 O 0.08089 0.31453 0.51034 0.0
C98 C 0.87086 0.92904 0.46386 0.0
O99 O 0.86829 0.97308 0.4876 0.0
Cd100 Cd 0.86661 0.94591 0.55203 0.0
O101 O 0.87436 0.87177 0.47402 0.0
Cd102 Cd 0.88025 0.8038 0.52789 0.0
C103 C 0.83403 0.82165 0.54689 0.0
O104 O 0.89436 0.88579 0.56674 0.0
O105 O 0.88749 0.79555 0.59317 0.0
O106 O 0.90856 0.77675 0.49518 0.0
C107 C 0.89489 0.85085 0.59543 0.0
O108 O 0.83847 0.87912 0.55535 0.0
C109 C 0.9071 0.7163 0.49822 0.0
O110 O 0.8464 0.78236 0.53489 0.0
O111 O 0.89243 0.69508 0.5142 0.0
C112 C 0.81588 0.13023 0.98089 0.0
C113 C 0.82961 0.17795 0.98653 0.0
C114 C 0.79679 0.14591 0.98 0.0
C115 C 0.76331 0.27332 0.00845 0.0
H116 H 0.72885 0.17893 0.94516 0.0
C117 C 0.68585 0.34736 0.9862 0.0
C118 C 0.67222 0.29871 -0.01049 0.0
C119 C 0.70499 0.33228 0.98557 0.0
C120 C 0.73831 0.20525 0.96319 0.0
H121 H 0.83399 0.28003 -0.00532 0.0
H122 H 0.80058 0.30792 -0.00806 0.0
H123 H 0.76252 0.15605 0.94256 0.0
H124 H 0.66804 0.19589 -0.00562 0.0
H125 H 0.7017 0.16938 -0.00741 0.0
H126 H 0.73901 0.32354 0.0283 0.0
C127 C 0.8046 0.25795 -0.01084 0.0
C128 C 0.75761 0.19216 0.96179 0.0
C129 C 0.82377 0.2421 -0.00953 0.0
C130 C 0.67819 0.23442 -0.00813 0.0
C131 C 0.69741 0.21924 -0.00932 0.0
C132 C 0.74404 0.28694 0.00946 0.0
C133 C 0.79084 0.2099 0.98427 0.0
C134 C 0.77037 0.22576 0.98458 0.0
C135 C 0.71097 0.26816 -0.01225 0.0
C136 C 0.73135 0.25286 0.98696 0.0
H137 H 0.81982 0.08017 0.97804 0.0
H138 H 0.78667 0.10737 0.9769 0.0
H139 H 0.7726 0.29932 0.02692 0.0
H140 H 0.68177 0.39743 0.98445 0.0
H141 H 0.71513 0.37085 0.98295 0.0
C142 C 0.17521 0.74834 0.00153 0.0
C143 C 0.16839 0.81143 -0.00196 0.0
C144 C 0.19461 0.73621 0.00165 0.0
C145 C 0.24047 0.81122 0.97669 0.0
H146 H 0.26094 0.67566 0.0383 0.0
C147 C 0.32071 0.76903 6e-05 0.0
C148 C 0.32666 0.70505 -0.00443 0.0
C149 C 0.30147 0.78406 0.00066 0.0
C150 C 0.25539 0.71354 0.02087 0.0
H151 H 0.17662 0.91141 -0.00724 0.0
H152 H 0.21025 0.89058 -0.00585 0.0
H153 H 0.2272 0.69734 0.03909 0.0
H154 H 0.31703 0.60675 -0.01167 0.0
H155 H 0.28368 0.63305 -0.01017 0.0
H156 H 0.26886 0.82787 0.95908 0.0
C157 C 0.20072 0.8501 -0.00433 0.0
C158 C 0.23604 0.72575 0.02112 0.0
C159 C 0.18138 0.8621 -0.00489 0.0
C160 C 0.31298 0.6566 -0.00827 0.0
C161 C 0.29385 0.67149 -0.00715 0.0
C162 C 0.25987 0.79947 0.9768 0.0
C163 C 0.20762 0.787 -0.00127 0.0
C164 C 0.22829 0.77446 -0.00117 0.0
C165 C 0.28788 0.73526 -0.00261 0.0
C166 C 0.26748 0.75016 -0.00135 0.0
H167 H 0.16556 0.70823 0.00365 0.0
H168 H 0.19937 0.68688 0.00348 0.0
H169 H 0.23502 0.84839 0.95867 0.0
H170 H 0.33089 0.80742 0.00305 0.0
H171 H 0.2972 0.83365 0.00431 0.0
C172 C 0.80005 0.84919 0.55542 0.0
C173 C 0.814 0.80228 0.54951 0.0
C174 C 0.78105 0.83246 0.55642 0.0
C175 C 0.74802 0.70394 0.52779 0.0
H176 H 0.71366 0.79517 0.5924 0.0
C177 C 0.67075 0.62772 0.5478 0.0
C178 C 0.65706 0.67645 0.54491 0.0
C179 C 0.68986 0.64288 0.54949 0.0
C180 C 0.72309 0.76969 0.57404 0.0
H181 H 0.81887 0.70056 0.54081 0.0
H182 H 0.78563 0.67086 0.54361 0.0
H183 H 0.74726 0.81938 0.59472 0.0
H184 H 0.65278 0.77953 0.54222 0.0
H185 H 0.68636 0.8061 0.54575 0.0
H186 H 0.72378 0.65343 0.50772 0.0
C187 C 0.7894 0.72099 0.54661 0.0
C188 C 0.74234 0.78355 0.57527 0.0
C189 C 0.80848 0.73789 0.54523 0.0
C190 C 0.66296 0.74091 0.54437 0.0
C191 C 0.68215 0.75612 0.54655 0.0
C192 C 0.7288 0.68959 0.5269 0.0
C193 C 0.77543 0.7682 0.55195 0.0
C194 C 0.75505 0.75121 0.55194 0.0
C195 C 0.69577 0.70714 0.54876 0.0
C196 C 0.71614 0.72256 0.54986 0.0
H197 H 0.80375 0.89939 0.55855 0.0
H198 H 0.77075 0.87037 0.55984 0.0
H199 H 0.75728 0.67889 0.50894 0.0
H200 H 0.66675 0.57752 0.54824 0.0
H201 H 0.70004 0.60423 0.55157 0.0
C202 C 0.16441 0.25426 0.53228 0.0
C203 C 0.15818 0.19032 0.53408 0.0
C204 C 0.18368 0.26835 0.53353 0.0
C205 C 0.23005 0.19672 0.55936 0.0
H206 H 0.24971 0.33608 0.50002 0.0
C207 C 0.31001 0.24491 0.53762 0.0
C208 C 0.31562 0.3093 0.54181 0.0
C209 C 0.29086 0.2287 0.5373 0.0
C210 C 0.24439 0.29721 0.51688 0.0
H211 H 0.16734 0.09096 0.53795 0.0
H212 H 0.20074 0.11531 0.53901 0.0
H213 H 0.21615 0.31189 0.49798 0.0
H214 H 0.30543 0.40696 0.54932 0.0
H215 H 0.27226 0.37859 0.54842 0.0
H216 H 0.25848 0.18158 0.57763 0.0
C217 C 0.19083 0.15485 0.5377 0.0
C218 C 0.22514 0.28354 0.51589 0.0
C219 C 0.17162 0.14086 0.53685 0.0
C220 C 0.30167 0.35685 0.54602 0.0
C221 C 0.28263 0.34076 0.54527 0.0
C222 C 0.24935 0.21 0.56002 0.0
C223 C 0.19714 0.21876 0.53622 0.0
C224 C 0.21768 0.23332 0.53725 0.0
C225 C 0.277 0.27668 0.54066 0.0
C226 C 0.25668 0.26066 0.53898 0.0
H227 H 0.15441 0.29347 0.53033 0.0
H228 H 0.18799 0.31822 0.53287 0.0
H229 H 0.2248 0.15837 0.57666 0.0
H230 H 0.32039 0.20716 0.53436 0.0
H231 H 0.28687 0.17888 0.5336 0.0
C232 C 0.6099 0.39741 0.13417 0.0
C233 C 0.6111 0.44539 0.10701 0.0
C234 C 0.6082 0.41378 0.17127 0.0
C235 C 0.61561 0.54508 0.23776 0.0
H236 H 0.58146 0.44419 0.29766 0.0
C237 C 0.59828 0.60696 0.38947 0.0
C238 C 0.59893 0.55521 0.4144 0.0
C239 C 0.59925 0.59606 0.35152 0.0
C240 C 0.59113 0.47247 0.2813 0.0
H241 H 0.61172 0.54828 0.09754 0.0
H242 H 0.60848 0.57697 0.16267 0.0
H243 H 0.58414 0.42162 0.23189 0.0
H244 H 0.60097 0.45146 0.41903 0.0
H245 H 0.6026 0.43255 0.35269 0.0
H246 H 0.62252 0.596 0.2874 0.0
C247 C 0.60907 0.52665 0.15511 0.0
C248 C 0.5927 0.45954 0.24369 0.0
C249 C 0.61086 0.51023 0.11785 0.0
C250 C 0.60042 0.49234 0.40057 0.0
C251 C 0.60125 0.48146 0.3626 0.0
C252 C 0.61396 0.55824 0.27542 0.0
C253 C 0.60753 0.4785 0.18214 0.0
C254 C 0.60515 0.49508 0.22161 0.0
C255 C 0.60074 0.53323 0.33775 0.0
C256 C 0.60187 0.52149 0.29759 0.0
H257 H 0.61022 0.34696 0.12683 0.0
H258 H 0.60748 0.37555 0.19149 0.0
H259 H 0.62545 0.57286 0.22153 0.0
H260 H 0.59715 0.65601 0.39924 0.0
H261 H 0.59867 0.63674 0.33291 0.0
C262 C 0.38694 0.60741 0.13867 0.0
C263 C 0.38607 0.55947 0.11137 0.0
C264 C 0.38599 0.5913 0.17592 0.0
C265 C 0.37037 0.46303 0.23865 0.0
H266 H 0.40105 0.55574 0.30973 0.0
C267 C 0.37651 0.39267 0.39248 0.0
C268 C 0.37524 0.44317 0.41817 0.0
C269 C 0.37764 0.40562 0.35478 0.0
C270 C 0.3923 0.52988 0.29018 0.0
H271 H 0.38378 0.45685 0.10178 0.0
H272 H 0.38252 0.42853 0.16711 0.0
H273 H 0.4042 0.57909 0.24413 0.0
H274 H 0.37393 0.54679 0.42446 0.0
H275 H 0.37601 0.56931 0.35848 0.0
H276 H 0.35865 0.41334 0.28494 0.0
C277 C 0.38359 0.47872 0.15956 0.0
C278 C 0.39407 0.54322 0.25266 0.0
C279 C 0.38442 0.4949 0.12217 0.0
C280 C 0.37492 0.50686 0.40537 0.0
C281 C 0.37621 0.51979 0.36767 0.0
C282 C 0.3687 0.44935 0.27622 0.0
C283 C 0.3843 0.52683 0.18681 0.0
C284 C 0.38301 0.51036 0.2265 0.0
C285 C 0.37767 0.46929 0.34209 0.0
C286 C 0.37955 0.48304 0.30229 0.0
H287 H 0.38807 0.6577 0.13133 0.0
H288 H 0.38624 0.62961 0.19617 0.0
H289 H 0.36145 0.43754 0.21924 0.0
H290 H 0.37674 0.34304 0.40145 0.0
H291 H 0.37888 0.36587 0.33561 0.0
C292 C 0.4133 0.57272 0.89996 0.0
C293 C 0.41076 0.63915 0.90451 0.0
C294 C 0.4161 0.54682 0.86489 0.0
C295 C 0.40597 0.58439 0.76776 0.0
H296 H 0.43452 0.42837 0.75019 0.0
C297 C 0.40697 0.46264 0.62571 0.0
C298 C 0.40209 0.39725 0.62638 0.0
C299 C 0.41173 0.49458 0.65828 0.0
C300 C 0.42654 0.47203 0.75477 0.0
H301 H 0.41031 0.73109 0.87646 0.0
H302 H 0.41571 0.68607 0.81521 0.0
H303 H 0.4369 0.48227 0.81001 0.0
H304 H 0.39918 0.31324 0.66127 0.0
H305 H 0.40752 0.36928 0.71834 0.0
H306 H 0.39548 0.57377 0.71272 0.0
C307 C 0.41501 0.65375 0.83858 0.0
C308 C 0.42784 0.50279 0.78897 0.0
C309 C 0.41199 0.67958 0.87363 0.0
C310 C 0.40278 0.36374 0.66 0.0
C311 C 0.40769 0.39564 0.69257 0.0
C312 C 0.40484 0.55405 0.73353 0.0
C313 C 0.41662 0.58691 0.83369 0.0
C314 C 0.41724 0.55856 0.79612 0.0
C315 C 0.41185 0.46161 0.69205 0.0
C316 C 0.4148 0.49692 0.72698 0.0
H317 H 0.41241 0.54037 0.92331 0.0
H318 H 0.41701 0.4951 0.86215 0.0
H319 H 0.39733 0.62651 0.77245 0.0
H320 H 0.40667 0.48965 0.60016 0.0
H321 H 0.41504 0.54534 0.65715 0.0
C322 C 0.57981 0.42425 0.89662 0.0
C323 C 0.58422 0.35906 0.90155 0.0
C324 C 0.57408 0.44694 0.86216 0.0
C325 C 0.57825 0.40641 0.76386 0.0
H326 H 0.54512 0.55343 0.75228 0.0
C327 C 0.56764 0.52724 0.62318 0.0
C328 C 0.57161 0.59336 0.62387 0.0
C329 C 0.56459 0.49389 0.65601 0.0
C330 C 0.55431 0.51214 0.75515 0.0
H331 H 0.58514 0.26576 0.87495 0.0
H332 H 0.57468 0.30508 0.81484 0.0
H333 H 0.54791 0.50122 0.81246 0.0
H334 H 0.5744 0.6772 0.65906 0.0
H335 H 0.56905 0.61884 0.71645 0.0
H336 H 0.58489 0.41805 0.70677 0.0
C337 C 0.57611 0.33902 0.83736 0.0
C338 C 0.55598 0.48241 0.78956 0.0
C339 C 0.58206 0.31644 0.87178 0.0
C340 C 0.57148 0.62617 0.65775 0.0
C341 C 0.56827 0.59289 0.69055 0.0
C342 C 0.57642 0.43569 0.72944 0.0
C343 C 0.57242 0.40476 0.83197 0.0
C344 C 0.5684 0.43037 0.79454 0.0
C345 C 0.56527 0.5262 0.69002 0.0
C346 C 0.56484 0.48985 0.72502 0.0
H347 H 0.58137 0.45823 0.9191 0.0
H348 H 0.57167 0.49801 0.85891 0.0
H349 H 0.58815 0.36711 0.76674 0.0
H350 H 0.56755 0.50075 0.59743 0.0
H351 H 0.56217 0.44254 0.6549 0.0
C352 C 0.09997 0.89725 0.13571 0.0
C353 C 0.10141 0.9449 0.1084 0.0
C354 C 0.0981 0.91408 0.17273 0.0
C355 C 0.10672 0.04644 0.23776 0.0
H356 H 0.07376 0.94744 0.30116 0.0
C357 C 0.09305 0.11449 0.3894 0.0
C358 C 0.0944 0.06408 0.41511 0.0
C359 C 0.09282 0.10161 0.35163 0.0
C360 C 0.08309 0.97519 0.28379 0.0
H361 H 0.10187 0.04769 0.09851 0.0
H362 H 0.09833 0.07717 0.16336 0.0
H363 H 0.0751 0.92308 0.23534 0.0
H364 H 0.09623 0.96055 0.42135 0.0
H365 H 0.0958 0.93813 0.3552 0.0
H366 H 0.11468 0.09851 0.28632 0.0
C367 C 0.09892 0.02674 0.15605 0.0
C368 C 0.08389 0.96128 0.24616 0.0
C369 C 0.10087 0.00987 0.11892 0.0
C370 C 0.0952 0.00043 0.40225 0.0
C371 C 0.09485 0.98755 0.36443 0.0
C372 C 0.10584 0.06057 0.27537 0.0
C373 C 0.09753 0.97896 0.18332 0.0
C374 C 0.09587 0.99628 0.22283 0.0
C375 C 0.0938 0.03808 0.33881 0.0
C376 C 0.09416 0.02466 0.29876 0.0
H377 H 0.10044 0.8467 0.12859 0.0
H378 H 0.09742 0.87614 0.19313 0.0
H379 H 0.11628 0.07365 0.2206 0.0
H380 H 0.09237 0.1641 0.39837 0.0
H381 H 0.0918 0.14137 0.33244 0.0
C382 C 0.87054 0.00725 0.41117 0.0
C383 C 0.87034 0.94358 0.424 0.0
C384 C 0.87114 0.01992 0.37329 0.0
C385 C 0.88485 0.94327 0.28557 0.0
H386 H 0.85669 0.08301 0.24099 0.0
C387 C 0.88031 0.97984 0.12807 0.0
C388 C 0.88303 0.04298 0.1155 0.0
C389 C 0.87812 0.96755 0.1657 0.0
C390 C 0.86472 0.04409 0.25317 0.0
H391 H 0.86982 0.84337 0.40721 0.0
H392 H 0.87049 0.86553 0.34149 0.0
H393 H 0.8537 0.06245 0.30709 0.0
H394 H 0.88548 0.14276 0.13253 0.0
H395 H 0.88171 0.12106 0.19807 0.0
H396 H 0.8958 0.92478 0.23167 0.0
C397 C 0.87069 0.90565 0.36056 0.0
C398 C 0.86305 0.03243 0.29097 0.0
C399 C 0.8702 0.893 0.39827 0.0
C400 C 0.88344 0.09352 0.14128 0.0
C401 C 0.88114 0.08125 0.17881 0.0
C402 C 0.88644 0.95473 0.24781 0.0
C403 C 0.87146 0.96915 0.34764 0.0
C404 C 0.87311 0.98188 0.30755 0.0
C405 C 0.87849 0.01818 0.19138 0.0
C406 C 0.87643 0.0053 0.23128 0.0
H407 H 0.87067 0.0472 0.43035 0.0
H408 H 0.87188 0.06939 0.36416 0.0
H409 H 0.89307 0.90472 0.29765 0.0
H410 H 0.87988 0.9399 0.1089 0.0
H411 H 0.87594 0.91849 0.17469 0.0
C412 C 0.90702 0.83142 0.65917 0.0
C413 C 0.90304 0.87441 0.63033 0.0
C414 C 0.91368 0.85407 0.69303 0.0
C415 C 0.93209 -0.00013 0.74111 0.0
H416 H 0.90666 0.92479 0.82519 0.0
C417 C 0.91648 0.13281 0.87675 0.0
C418 C 0.91694 0.09787 0.9099 0.0
C419 C 0.92019 0.10232 0.84323 0.0
C420 C 0.91422 0.94548 0.80216 0.0
H421 H 0.90352 0.97441 0.61367 0.0
H422 H 0.91443 0.01436 0.6732 0.0
H423 H 0.90296 0.8763 0.76476 0.0
H424 H 0.9229 0.00482 0.93433 0.0
H425 H 0.92927 0.95154 0.87566 0.0
H426 H 0.94244 0.07133 0.77871 0.0
C427 C 0.91288 0.963 0.66952 0.0
C428 C 0.91212 0.9176 0.76743 0.0
C429 C 0.90646 0.94021 0.63549 0.0
C430 C 0.92225 0.03284 0.90916 0.0
C431 C 0.92588 0.00231 0.87563 0.0
C432 C 0.93405 0.02814 0.77592 0.0
C433 C 0.91624 0.92029 0.69891 0.0
C434 C 0.92067 0.94526 0.73633 0.0
C435 C 0.92436 0.03634 0.84229 0.0
C436 C 0.92479 0.00192 0.80659 0.0
H437 H 0.90478 0.78028 0.65572 0.0
H438 H 0.91649 0.81975 0.71483 0.0
H439 H 0.93914 0.02167 0.71782 0.0
H440 H 0.91256 0.18312 0.87653 0.0
H441 H 0.91875 0.1296 0.81791 0.0
C442 C 0.09356 0.82913 0.86747 0.0
C443 C 0.08499 0.85525 0.89896 0.0
C444 C 0.09043 0.85667 0.83288 0.0
C445 C 0.05967 0.96157 0.77857 0.0
H446 H 0.10592 0.01589 0.7312 0.0
C447 C 0.06643 0.06769 0.63036 0.0
C448 C 0.07744 0.12354 0.62781 0.0
C449 C 0.065 0.03488 0.66384 0.0
C450 C 0.09292 0.00101 0.74419 0.0
H451 H 0.06548 0.92763 0.91884 0.0
H452 H 0.05982 0.97518 0.85814 0.0
H453 H 0.10748 0.95237 0.78777 0.0
H454 H 0.09495 0.19048 0.65843 0.0
H455 H 0.09276 0.13227 0.71676 0.0
H456 H 0.04517 0.01031 0.73461 0.0
C457 C 0.06904 0.9338 0.86034 0.0
C458 C 0.0938 0.96422 0.77623 0.0
C459 C 0.07238 0.9069 0.89501 0.0
C460 C 0.0864 0.14751 0.65958 0.0
C461 C 0.08521 0.11418 0.69286 0.0
C462 C 0.05879 -0.00244 0.74604 0.0
C463 C 0.07845 0.91 0.82921 0.0
C464 C 0.07721 0.94468 0.79383 0.0
C465 C 0.07482 0.05702 0.69502 0.0
C466 C 0.07543 0.01818 0.72895 0.0
H467 H 0.1033 0.78918 0.86974 0.0
H468 H 0.09775 0.83739 0.80912 0.0
H469 H 0.04671 0.94697 0.7918 0.0
H470 H 0.0593 0.0484 0.60627 0.0
H471 H 0.05695 0.99076 0.66496 0.0
C472 C 0.45358 0.81836 0.05782 0.0
C473 C 0.43535 0.84264 0.05179 0.0
C474 C 0.46862 0.85974 0.0647 0.0
C475 C 0.48249 0.02887 0.04971 0.0
H476 H 0.52698 0.9759 0.10442 0.0
C477 C 0.54699 0.19233 0.06366 0.0
C478 C 0.56381 0.16477 0.05065 0.0
C479 C 0.53134 0.15411 0.07096 0.0
C480 C 0.51462 0.99118 0.08912 0.0
H481 H 0.41836 0.92912 0.05042 0.0
H482 H 0.44452 0.00164 0.06393 0.0
H483 H 0.49867 0.90928 0.10595 0.0
H484 H 0.57775 0.07503 0.03729 0.0
H485 H 0.55027 0.00777 0.05064 0.0
H486 H 0.49845 0.11105 0.03328 0.0
C487 C 0.44734 0.9506 0.0621 0.0
C488 C 0.49842 0.95302 0.0898 0.0
C489 C 0.43229 0.90909 0.05463 0.0
C490 C 0.56498 0.09763 0.04718 0.0
C491 C 0.5493 0.05918 0.05493 0.0
C492 C 0.49855 0.06743 0.04958 0.0
C493 C 0.4658 0.92656 0.0663 0.0
C494 C 0.48226 0.97067 0.06944 0.0
C495 C 0.5322 0.0874 0.06584 0.0
C496 C 0.51486 0.04841 0.06873 0.0
H497 H 0.45644 0.76735 0.05572 0.0
H498 H 0.48258 0.83921 0.06711 0.0
H499 H 0.47055 0.04364 0.03307 0.0
H500 H 0.54563 0.24388 0.06687 0.0
H501 H 0.51837 0.1769 0.07971 0.0
C502 C 0.55364 0.89544 0.49275 0.0
C503 C 0.54993 0.82923 0.49193 0.0
C504 C 0.53906 0.93975 0.48703 0.0
C505 C 0.48863 0.95234 0.45627 0.0
H506 H 0.48918 0.10418 0.51831 0.0
C507 C 0.42291 0.10523 0.49508 0.0
C508 C 0.42504 0.17214 0.49216 0.0
C509 C 0.43833 0.06444 0.48939 0.0
C510 C 0.48893 0.06224 0.50057 0.0
H511 H 0.52816 0.75746 0.48376 0.0
H512 H 0.50282 0.83396 0.47538 0.0
H513 H 0.5162 0.03221 0.51859 0.0
H514 H 0.44485 0.24859 0.47983 0.0
H515 H 0.47169 0.17747 0.47069 0.0
H516 H 0.46081 0.98144 0.43989 0.0
C517 C 0.51695 0.8523 0.47927 0.0
C518 C 0.50448 0.02113 0.50048 0.0
C519 C 0.53152 0.80822 0.48439 0.0
C520 C 0.44272 0.19726 0.48237 0.0
C521 C 0.45813 0.15668 0.47725 0.0
C522 C 0.47293 0.99295 0.45691 0.0
C523 C 0.52044 0.91872 0.48094 0.0
C524 C 0.50449 0.96524 0.4786 0.0
C525 C 0.45615 0.09005 0.48125 0.0
C526 C 0.47292 0.04801 0.47924 0.0
H527 H 0.56773 0.91301 0.49824 0.0
H528 H 0.54239 0.99049 0.48779 0.0
H529 H 0.48824 0.91057 0.43845 0.0
H530 H 0.40946 0.08453 0.50253 0.0
H531 H 0.43651 0.01312 0.49277 0.0
C532 C 0.04304 0.67317 0.05094 0.0
C533 C 0.06165 0.65208 0.0457 0.0
C534 C 0.02874 0.62952 0.05867 0.0
C535 C 0.01731 0.45745 0.04816 0.0
H536 H 0.97269 0.50763 0.10267 0.0
C537 C 0.95427 0.28784 0.06532 0.0
C538 C 0.93718 0.31347 0.05212 0.0
C539 C 0.96971 0.32764 0.07183 0.0
C540 C 0.9851 0.49307 0.08748 0.0
H541 H 0.08004 0.56897 0.0462 0.0
H542 H 0.05509 0.49242 0.06101 0.0
H543 H 0.00016 0.57814 0.10235 0.0
H544 H 0.92255 0.4014 0.03751 0.0
H545 H 0.94962 0.47139 0.04953 0.0
H546 H 0.0022 0.37215 0.0336 0.0
C547 C 0.05146 0.5427 0.05808 0.0
C548 C 0.00082 0.53344 0.08709 0.0
C549 C 0.0658 0.58651 0.04981 0.0
C550 C 0.93554 0.38028 0.04758 0.0
C551 C 0.95098 0.42029 0.05457 0.0
C552 C 0.00173 0.41668 0.0491 0.0
C553 C 0.03267 0.56357 0.06192 0.0
C554 C 0.01696 0.51693 0.06661 0.0
C555 C 0.96833 0.394 0.06578 0.0
C556 C 0.98535 0.43474 0.06809 0.0
H557 H 0.03934 0.72339 0.04784 0.0
H558 H 0.01447 0.64753 0.06065 0.0
H559 H 0.02929 0.44339 0.0316 0.0
H560 H 0.95599 0.23658 0.06927 0.0
H561 H 0.98289 0.30635 0.08078 0.0
C562 C 0.03129 0.3212 0.48309 0.0
C563 C 0.04974 0.34345 0.48886 0.0
C564 C 0.01659 0.36416 0.47656 0.0
C565 C 0.00374 0.53433 0.49112 0.0
H566 H 0.95966 0.48487 0.43414 0.0
C567 C 0.93979 0.70119 0.47479 0.0
C568 C 0.92272 0.67391 0.48656 0.0
C569 C 0.95551 0.66263 0.46838 0.0
C570 C 0.97191 0.4992 0.45007 0.0
H571 H 0.06742 0.42814 0.49073 0.0
H572 H 0.04178 0.50359 0.47805 0.0
H573 H 0.9876 0.41631 0.43373 0.0
H574 H 0.90845 0.58443 0.49878 0.0
H575 H 0.93602 0.51662 0.4869 0.0
H576 H 0.988 0.61753 0.5071 0.0
C577 C 0.03858 0.45282 0.47961 0.0
C578 C 0.98789 0.45993 0.45003 0.0
C579 C 0.05331 0.40965 0.48665 0.0
C580 C 0.92142 0.6068 0.48981 0.0
C581 C 0.93715 0.56805 0.48291 0.0
C582 C 0.98788 0.57404 0.49064 0.0
C583 C 0.01996 0.43064 0.47509 0.0
C584 C 0.00387 0.4762 0.47128 0.0
C585 C 0.95445 0.5959 0.47311 0.0
C586 C 0.9717 0.55621 0.47071 0.0
H587 H 0.02802 0.27046 0.48476 0.0
H588 H 0.00246 0.34509 0.47402 0.0
H589 H 0.01558 0.5481 0.50831 0.0
H590 H 0.94126 0.75273 0.47186 0.0
H591 H 0.96865 0.68514 0.46051 0.0
loop_
_geom_bond_atom_site_label_1
_geom_bond_atom_site_label_2
_geom_bond_distance
_geom_bond_site_symmetry_2
_ccdc_geom_bond_type
C0 O1 1.306 . S
C0 O3 1.160 . S
O1 C0 1.306 . S
O1 Cd2 2.228 . S
Cd2 O1 2.228 . S
Cd2 O6 2.273 1_554 S
Cd2 O10 2.277 . S
O3 C0 1.160 . S
O3 Cd4 2.203 . S
Cd4 O3 2.203 . S
Cd4 O6 2.411 1_554 S
Cd4 O7 2.333 1_554 S
Cd4 O8 2.352 . S
Cd4 O12 2.277 . S
Cd4 O13 2.356 . S
C5 O10 1.209 . S
C5 O12 1.226 . S
O6 Cd2 2.273 1_556 S
O6 Cd4 2.411 1_556 S
O6 C9 1.320 . S
O7 Cd4 2.333 1_556 S
O7 C9 1.214 . S
O8 Cd4 2.352 . S
O8 C11 1.258 . S
C9 O6 1.320 . S
C9 O7 1.214 . S
O10 Cd2 2.277 . S
O10 C5 1.209 . S
C11 O8 1.258 . S
C11 O13 1.282 . S
O12 Cd4 2.277 . S
O12 C5 1.226 . S
O13 Cd4 2.356 . S
O13 C11 1.282 . S
C14 O15 1.306 . S
C14 O17 1.160 . S
O15 C14 1.306 . S
O15 Cd16 2.228 . S
Cd16 O15 2.228 . S
Cd16 O20 2.273 1_554 S
Cd16 O24 2.277 . S
O17 C14 1.160 . S
O17 Cd18 2.203 . S
Cd18 O17 2.203 . S
Cd18 O20 2.411 1_554 S
Cd18 O21 2.333 1_554 S
Cd18 O22 2.352 . S
Cd18 O26 2.277 . S
Cd18 O27 2.356 . S
C19 O24 1.209 . S
C19 O26 1.226 . S
O20 Cd16 2.273 1_556 S
O20 Cd18 2.411 1_556 S
O20 C23 1.320 . S
O21 Cd18 2.333 1_556 S
O21 C23 1.214 . S
O22 Cd18 2.352 . S
O22 C25 1.258 . S
C23 O20 1.320 . S
C23 O21 1.214 . S
O24 Cd16 2.277 . S
O24 C19 1.209 . S
C25 O22 1.258 . S
C25 O27 1.282 . S
O26 Cd18 2.277 . S
O26 C19 1.226 . S
O27 Cd18 2.356 . S
O27 C25 1.282 . S
C28 O29 1.306 . S
C28 O31 1.160 . S
O29 C28 1.306 . S
O29 Cd30 2.228 . S
Cd30 O29 2.228 . S
Cd30 O34 2.273 . S
Cd30 O38 2.277 . S
O31 C28 1.160 . S
O31 Cd32 2.203 . S
Cd32 O31 2.203 . S
Cd32 O34 2.411 . S
Cd32 O35 2.333 . S
Cd32 O36 2.352 . S
Cd32 O40 2.277 . S
Cd32 O41 2.356 . S
C33 O38 1.209 . S
C33 O40 1.226 . S
O34 Cd30 2.273 . S
O34 Cd32 2.411 . S
O34 C37 1.320 . S
O35 Cd32 2.333 . S
O35 C37 1.214 . S
O36 Cd32 2.352 . S
O36 C39 1.258 . S
C37 O34 1.320 . S
C37 O35 1.214 . S
O38 Cd30 2.277 . S
O38 C33 1.209 . S
C39 O36 1.258 . S
C39 O41 1.282 . S
O40 Cd32 2.277 . S
O40 C33 1.226 . S
O41 Cd32 2.356 . S
O41 C39 1.282 . S
C42 O43 1.306 . S
C42 O45 1.160 . S
O43 C42 1.306 . S
O43 Cd44 2.228 . S
Cd44 O43 2.228 . S
Cd44 O48 2.273 . S
Cd44 O52 2.277 . S
O45 C42 1.160 . S
O45 Cd46 2.203 . S
Cd46 O45 2.203 . S
Cd46 O48 2.411 . S
Cd46 O49 2.333 . S
Cd46 O50 2.352 . S
Cd46 O54 2.277 . S
Cd46 O55 2.356 . S
C47 O52 1.209 . S
C47 O54 1.226 . S
O48 Cd44 2.273 . S
O48 Cd46 2.411 . S
O48 C51 1.320 . S
O49 Cd46 2.333 . S
O49 C51 1.214 . S
O50 Cd46 2.352 . S
O50 C53 1.258 . S
C51 O48 1.320 . S
C51 O49 1.214 . S
O52 Cd44 2.277 . S
O52 C47 1.209 . S
C53 O50 1.258 . S
C53 O55 1.282 . S
O54 Cd46 2.277 . S
O54 C47 1.226 . S
O55 Cd46 2.356 . S
O55 C53 1.282 . S
C56 O57 1.306 . S
C56 O59 1.160 . S
O57 C56 1.306 . S
O57 Cd58 2.228 . S
Cd58 O57 2.228 . S
Cd58 O62 2.273 1_554 S
Cd58 O66 2.277 . S
O59 C56 1.160 . S
O59 Cd60 2.203 . S
Cd60 O59 2.203 . S
Cd60 O62 2.411 1_554 S
Cd60 O63 2.333 1_554 S
Cd60 O64 2.352 . S
Cd60 O68 2.277 . S
Cd60 O69 2.356 . S
C61 O66 1.209 . S
C61 O68 1.226 . S
O62 Cd58 2.273 1_556 S
O62 Cd60 2.411 1_556 S
O62 C65 1.320 . S
O63 Cd60 2.333 1_556 S
O63 C65 1.214 . S
O64 Cd60 2.352 . S
O64 C67 1.258 . S
C65 O62 1.320 . S
C65 O63 1.214 . S
O66 Cd58 2.277 . S
O66 C61 1.209 . S
C67 O64 1.258 . S
C67 O69 1.282 . S
O68 Cd60 2.277 . S
O68 C61 1.226 . S
O69 Cd60 2.356 . S
O69 C67 1.282 . S
C70 O71 1.306 . S
C70 O73 1.160 . S
O71 C70 1.306 . S
O71 Cd72 2.228 . S
Cd72 O71 2.228 . S
Cd72 O76 2.273 1_554 S
Cd72 O80 2.277 . S
O73 C70 1.160 . S
O73 Cd74 2.203 . S
Cd74 O73 2.203 . S
Cd74 O76 2.411 1_554 S
Cd74 O77 2.333 1_554 S
Cd74 O78 2.352 . S
Cd74 O82 2.277 . S
Cd74 O83 2.356 . S
C75 O80 1.209 . S
C75 O82 1.226 . S
O76 Cd72 2.273 1_556 S
O76 Cd74 2.411 1_556 S
O76 C79 1.320 . S
O77 Cd74 2.333 1_556 S
O77 C79 1.214 . S
O78 Cd74 2.352 . S
O78 C81 1.258 . S
C79 O76 1.320 . S
C79 O77 1.214 . S
O80 Cd72 2.277 . S
O80 C75 1.209 . S
C81 O78 1.258 . S
C81 O83 1.282 . S
O82 Cd74 2.277 . S
O82 C75 1.226 . S
O83 Cd74 2.356 . S
O83 C81 1.282 . S
C84 O85 1.306 . S
C84 O87 1.160 . S
O85 C84 1.306 . S
O85 Cd86 2.228 . S
Cd86 O85 2.228 . S
Cd86 O90 2.273 . S
Cd86 O94 2.277 . S
O87 C84 1.160 . S
O87 Cd88 2.203 . S
Cd88 O87 2.203 . S
Cd88 O90 2.411 . S
Cd88 O91 2.333 . S
Cd88 O92 2.352 . S
Cd88 O96 2.277 . S
Cd88 O97 2.356 . S
C89 O94 1.209 . S
C89 O96 1.226 . S
O90 Cd86 2.273 . S
O90 Cd88 2.411 . S
O90 C93 1.320 . S
O91 Cd88 2.333 . S
O91 C93 1.214 . S
O92 Cd88 2.352 . S
O92 C95 1.258 . S
C93 O90 1.320 . S
C93 O91 1.214 . S
O94 Cd86 2.277 . S
O94 C89 1.209 . S
C95 O92 1.258 . S
C95 O97 1.282 . S
O96 Cd88 2.277 . S
O96 C89 1.226 . S
O97 Cd88 2.356 . S
O97 C95 1.282 . S
C98 O99 1.306 . S
C98 O101 1.160 . S
O99 C98 1.306 . S
O99 Cd100 2.228 . S
Cd100 O99 2.228 . S
Cd100 O104 2.273 . S
Cd100 O108 2.277 . S
O101 C98 1.160 . S
O101 Cd102 2.203 . S
Cd102 O101 2.203 . S
Cd102 O104 2.411 . S
Cd102 O105 2.333 . S
Cd102 O106 2.352 . S
Cd102 O110 2.277 . S
Cd102 O111 2.356 . S
C103 O108 1.209 . S
C103 O110 1.226 . S
O104 Cd100 2.273 . S
O104 Cd102 2.411 . S
O104 C107 1.320 . S
O105 Cd102 2.333 . S
O105 C107 1.214 . S
O106 Cd102 2.352 . S
O106 C109 1.258 . S
C107 O104 1.320 . S
C107 O105 1.214 . S
O108 Cd100 2.277 . S
O108 C103 1.209 . S
C109 O106 1.258 . S
C109 O111 1.282 . S
O110 Cd102 2.277 . S
O110 C103 1.226 . S
O111 Cd102 2.356 . S
O111 C109 1.282 . S
C112 C113 1.365 . S
C112 C114 1.327 . S
C112 H137 0.934 1_554 S
C113 C112 1.365 . S
C113 C129 1.349 . S
C114 C112 1.327 . S
C114 C133 1.427 . S
C114 H138 0.951 1_554 S
C115 C132 1.574 . S
C115 C134 1.368 . S
C115 H139 0.949 . S
H116 C120 0.949 . S
C117 C118 1.349 . S
C117 C119 1.327 . S
C117 H140 0.950 . S
C118 C117 1.349 . S
C118 C130 1.365 . S
C119 C117 1.327 . S
C119 C135 1.429 . S
C119 H141 0.950 . S
C120 H116 0.949 . S
C120 C128 1.574 . S
C120 C136 1.368 1_556 S
H121 C129 0.950 . S
H122 C127 0.950 . S
H123 C128 0.949 . S
H124 C130 0.934 1_556 S
H125 C131 0.951 1_556 S
H126 C132 0.949 . S
C127 H122 0.950 . S
C127 C129 1.327 . S
C127 C133 1.429 . S
C128 C120 1.574 . S
C128 H123 0.949 . S
C128 C134 1.368 1_556 S
C129 C113 1.349 . S
C129 H121 0.950 . S
C129 C127 1.327 . S
C130 C118 1.365 . S
C130 H124 0.934 1_554 S
C130 C131 1.327 . S
C131 H125 0.951 1_554 S
C131 C130 1.327 . S
C131 C135 1.427 . S
C132 C115 1.574 . S
C132 H126 0.949 . S
C132 C136 1.368 . S
C133 C114 1.427 . S
C133 C127 1.429 . S
C133 C134 1.523 . S
C134 C115 1.368 . S
C134 C128 1.368 1_554 S
C134 C133 1.523 . S
C135 C119 1.429 . S
C135 C131 1.427 . S
C135 C136 1.523 . S
C136 C120 1.368 1_554 S
C136 C132 1.368 . S
C136 C135 1.523 . S
H137 C112 0.934 1_556 S
H138 C114 0.951 1_556 S
H139 C115 0.949 . S
H140 C117 0.950 . S
H141 C119 0.950 . S
C142 C143 1.349 . S
C142 C144 1.327 . S
C142 H167 0.950 . S
C143 C142 1.349 . S
C143 C159 1.365 . S
C144 C142 1.327 . S
C144 C163 1.429 . S
C144 H168 0.950 . S
C145 C162 1.574 . S
C145 C164 1.368 1_556 S
C145 H169 0.949 . S
H146 C150 0.949 . S
C147 C148 1.365 . S
C147 C149 1.327 . S
C147 H170 0.934 1_554 S
C148 C147 1.365 . S
C148 C160 1.349 . S
C149 C147 1.327 . S
C149 C165 1.427 . S
C149 H171 0.951 1_554 S
C150 H146 0.949 . S
C150 C158 1.574 . S
C150 C166 1.368 . S
H151 C159 0.934 1_556 S
H152 C157 0.951 1_556 S
H153 C158 0.949 . S
H154 C160 0.950 . S
H155 C161 0.950 . S
H156 C162 0.949 . S
C157 H152 0.951 1_554 S
C157 C159 1.327 . S
C157 C163 1.427 . S
C158 C150 1.574 . S
C158 H153 0.949 . S
C158 C164 1.368 . S
C159 C143 1.365 . S
C159 H151 0.934 1_554 S
C159 C157 1.327 . S
C160 C148 1.349 . S
C160 H154 0.950 . S
C160 C161 1.327 . S
C161 H155 0.950 . S
C161 C160 1.327 . S
C161 C165 1.429 . S
C162 C145 1.574 . S
C162 H156 0.949 . S
C162 C166 1.368 1_556 S
C163 C144 1.429 . S
C163 C157 1.427 . S
C163 C164 1.523 . S
C164 C145 1.368 1_554 S
C164 C158 1.368 . S
C164 C163 1.523 . S
C165 C149 1.427 . S
C165 C161 1.429 . S
C165 C166 1.523 . S
C166 C150 1.368 . S
C166 C162 1.368 1_554 S
C166 C165 1.523 . S
H167 C142 0.950 . S
H168 C144 0.950 . S
H169 C145 0.949 . S
H170 C147 0.934 1_556 S
H171 C149 0.951 1_556 S
C172 C173 1.349 . S
C172 C174 1.327 . S
C172 H197 0.950 . S
C173 C172 1.349 . S
C173 C189 1.349 . S
C174 C172 1.327 . S
C174 C193 1.429 . S
C174 H198 0.950 . S
C175 C192 1.574 . S
C175 C194 1.368 . S
C175 H199 0.949 . S
H176 C180 0.949 . S
C177 C178 1.349 . S
C177 C179 1.327 . S
C177 H200 0.950 . S
C178 C177 1.349 . S
C178 C190 1.349 . S
C179 C177 1.327 . S
C179 C195 1.429 . S
C179 H201 0.950 . S
C180 H176 0.949 . S
C180 C188 1.574 . S
C180 C196 1.368 . S
H181 C189 0.950 . S
H182 C187 0.950 . S
H183 C188 0.949 . S
H184 C190 0.950 . S
H185 C191 0.950 . S
H186 C192 0.949 . S
C187 H182 0.950 . S
C187 C189 1.327 . S
C187 C193 1.429 . S
C188 C180 1.574 . S
C188 H183 0.949 . S
C188 C194 1.368 . S
C189 C173 1.349 . S
C189 H181 0.950 . S
C189 C187 1.327 . S
C190 C178 1.349 . S
C190 H184 0.950 . S
C190 C191 1.327 . S
C191 H185 0.950 . S
C191 C190 1.327 . S
C191 C195 1.429 . S
C192 C175 1.574 . S
C192 H186 0.949 . S
C192 C196 1.368 . S
C193 C174 1.429 . S
C193 C187 1.429 . S
C193 C194 1.523 . S
C194 C175 1.368 . S
C194 C188 1.368 . S
C194 C193 1.523 . S
C195 C179 1.429 . S
C195 C191 1.429 . S
C195 C196 1.523 . S
C196 C180 1.368 . S
C196 C192 1.368 . S
C196 C195 1.523 . S
H197 C172 0.950 . S
H198 C174 0.950 . S
H199 C175 0.949 . S
H200 C177 0.950 . S
H201 C179 0.950 . S
C202 C203 1.349 . S
C202 C204 1.327 . S
C202 H227 0.950 . S
C203 C202 1.349 . S
C203 C219 1.349 . S
C204 C202 1.327 . S
C204 C223 1.429 . S
C204 H228 0.950 . S
C205 C222 1.574 . S
C205 C224 1.368 . S
C205 H229 0.949 . S
H206 C210 0.949 . S
C207 C208 1.349 . S
C207 C209 1.327 . S
C207 H230 0.950 . S
C208 C207 1.349 . S
C208 C220 1.349 . S
C209 C207 1.327 . S
C209 C225 1.429 . S
C209 H231 0.950 . S
C210 H206 0.949 . S
C210 C218 1.574 . S
C210 C226 1.368 . S
H211 C219 0.950 . S
H212 C217 0.950 . S
H213 C218 0.949 . S
H214 C220 0.950 . S
H215 C221 0.950 . S
H216 C222 0.949 . S
C217 H212 0.950 . S
C217 C219 1.327 . S
C217 C223 1.429 . S
C218 C210 1.574 . S
C218 H213 0.949 . S
C218 C224 1.368 . S
C219 C203 1.349 . S
C219 H211 0.950 . S
C219 C217 1.327 . S
C220 C208 1.349 . S
C220 H214 0.950 . S
C220 C221 1.327 . S
C221 H215 0.950 . S
C221 C220 1.327 . S
C221 C225 1.429 . S
C222 C205 1.574 . S
C222 H216 0.949 . S
C222 C226 1.368 . S
C223 C204 1.429 . S
C223 C217 1.429 . S
C223 C224 1.523 . S
C224 C205 1.368 . S
C224 C218 1.368 . S
C224 C223 1.523 . S
C225 C209 1.429 . S
C225 C221 1.429 . S
C225 C226 1.523 . S
C226 C210 1.368 . S
C226 C222 1.368 . S
C226 C225 1.523 . S
H227 C202 0.950 . S
H228 C204 0.950 . S
H229 C205 0.949 . S
H230 C207 0.950 . S
H231 C209 0.950 . S
C232 C233 1.349 . S
C232 C234 1.327 . S
C232 H257 0.950 . S
C233 C232 1.349 . S
C233 C249 1.349 . S
C234 C232 1.327 . S
C234 C253 1.429 . S
C234 H258 0.950 . S
C235 C252 1.574 . S
C235 C254 1.368 . S
C235 H259 0.949 . S
H236 C240 0.949 . S
C237 C238 1.349 . S
C237 C239 1.327 . S
C237 H260 0.950 . S
C238 C237 1.349 . S
C238 C250 1.349 . S
C239 C237 1.327 . S
C239 C255 1.429 . S
C239 H261 0.950 . S
C240 H236 0.949 . S
C240 C248 1.574 . S
C240 C256 1.368 . S
H241 C249 0.950 . S
H242 C247 0.950 . S
H243 C248 0.949 . S
H244 C250 0.950 . S
H245 C251 0.950 . S
H246 C252 0.949 . S
C247 H242 0.950 . S
C247 C249 1.327 . S
C247 C253 1.429 . S
C248 C240 1.574 . S
C248 H243 0.949 . S
C248 C254 1.368 . S
C249 C233 1.349 . S
C249 H241 0.950 . S
C249 C247 1.327 . S
C250 C238 1.349 . S
C250 H244 0.950 . S
C250 C251 1.327 . S
C251 H245 0.950 . S
C251 C250 1.327 . S
C251 C255 1.429 . S
C252 C235 1.574 . S
C252 H246 0.949 . S
C252 C256 1.368 . S
C253 C234 1.429 . S
C253 C247 1.429 . S
C253 C254 1.523 . S
C254 C235 1.368 . S
C254 C248 1.368 . S
C254 C253 1.523 . S
C255 C239 1.429 . S
C255 C251 1.429 . S
C255 C256 1.523 . S
C256 C240 1.368 . S
C256 C252 1.368 . S
C256 C255 1.523 . S
H257 C232 0.950 . S
H258 C234 0.950 . S
H259 C235 0.949 . S
H260 C237 0.950 . S
H261 C239 0.950 . S
C262 C263 1.349 . S
C262 C264 1.327 . S
C262 H287 0.950 . S
C263 C262 1.349 . S
C263 C279 1.349 . S
C264 C262 1.327 . S
C264 C283 1.429 . S
C264 H288 0.950 . S
C265 C282 1.574 . S
C265 C284 1.368 . S
C265 H289 0.949 . S
H266 C270 0.949 . S
C267 C268 1.349 . S
C267 C269 1.327 . S
C267 H290 0.950 . S
C268 C267 1.349 . S
C268 C280 1.349 . S
C269 C267 1.327 . S
C269 C285 1.429 . S
C269 H291 0.950 . S
C270 H266 0.949 . S
C270 C278 1.574 . S
C270 C286 1.368 . S
H271 C279 0.950 . S
H272 C277 0.950 . S
H273 C278 0.949 . S
H274 C280 0.950 . S
H275 C281 0.950 . S
H276 C282 0.949 . S
C277 H272 0.950 . S
C277 C279 1.327 . S
C277 C283 1.429 . S
C278 C270 1.574 . S
C278 H273 0.949 . S
C278 C284 1.368 . S
C279 C263 1.349 . S
C279 H271 0.950 . S
C279 C277 1.327 . S
C280 C268 1.349 . S
C280 H274 0.950 . S
C280 C281 1.327 . S
C281 H275 0.950 . S
C281 C280 1.327 . S
C281 C285 1.429 . S
C282 C265 1.574 . S
C282 H276 0.949 . S
C282 C286 1.368 . S
C283 C264 1.429 . S
C283 C277 1.429 . S
C283 C284 1.523 . S
C284 C265 1.368 . S
C284 C278 1.368 . S
C284 C283 1.523 . S
C285 C269 1.429 . S
C285 C281 1.429 . S
C285 C286 1.523 . S
C286 C270 1.368 . S
C286 C282 1.368 . S
C286 C285 1.523 . S
H287 C262 0.950 . S
H288 C264 0.950 . S
H289 C265 0.949 . S
H290 C267 0.950 . S
H291 C269 0.950 . S
C292 C293 1.349 . S
C292 C294 1.327 . S
C292 H317 0.950 . S
C293 C292 1.349 . S
C293 C309 1.349 . S
C294 C292 1.327 . S
C294 C313 1.429 . S
C294 H318 0.950 . S
C295 C312 1.574 . S
C295 C314 1.368 . S
C295 H319 0.949 . S
H296 C300 0.949 . S
C297 C298 1.349 . S
C297 C299 1.327 . S
C297 H320 0.950 . S
C298 C297 1.349 . S
C298 C310 1.349 . S
C299 C297 1.327 . S
C299 C315 1.429 . S
C299 H321 0.950 . S
C300 H296 0.949 . S
C300 C308 1.574 . S
C300 C316 1.368 . S
H301 C309 0.950 . S
H302 C307 0.950 . S
H303 C308 0.949 . S
H304 C310 0.950 . S
H305 C311 0.950 . S
H306 C312 0.949 . S
C307 H302 0.950 . S
C307 C309 1.327 . S
C307 C313 1.429 . S
C308 C300 1.574 . S
C308 H303 0.949 . S
C308 C314 1.368 . S
C309 C293 1.349 . S
C309 H301 0.950 . S
C309 C307 1.327 . S
C310 C298 1.349 . S
C310 H304 0.950 . S
C310 C311 1.327 . S
C311 H305 0.950 . S
C311 C310 1.327 . S
C311 C315 1.429 . S
C312 C295 1.574 . S
C312 H306 0.949 . S
C312 C316 1.368 . S
C313 C294 1.429 . S
C313 C307 1.429 . S
C313 C314 1.523 . S
C314 C295 1.368 . S
C314 C308 1.368 . S
C314 C313 1.523 . S
C315 C299 1.429 . S
C315 C311 1.429 . S
C315 C316 1.523 . S
C316 C300 1.368 . S
C316 C312 1.368 . S
C316 C315 1.523 . S
H317 C292 0.950 . S
H318 C294 0.950 . S
H319 C295 0.949 . S
H320 C297 0.950 . S
H321 C299 0.950 . S
C322 C323 1.349 . S
C322 C324 1.327 . S
C322 H347 0.950 . S
C323 C322 1.349 . S
C323 C339 1.349 . S
C324 C322 1.327 . S
C324 C343 1.429 . S
C324 H348 0.950 . S
C325 C342 1.574 . S
C325 C344 1.368 . S
C325 H349 0.949 . S
H326 C330 0.949 . S
C327 C328 1.349 . S
C327 C329 1.327 . S
C327 H350 0.950 . S
C328 C327 1.349 . S
C328 C340 1.349 . S
C329 C327 1.327 . S
C329 C345 1.429 . S
C329 H351 0.950 . S
C330 H326 0.949 . S
C330 C338 1.574 . S
C330 C346 1.368 . S
H331 C339 0.950 . S
H332 C337 0.950 . S
H333 C338 0.949 . S
H334 C340 0.950 . S
H335 C341 0.950 . S
H336 C342 0.949 . S
C337 H332 0.950 . S
C337 C339 1.327 . S
C337 C343 1.429 . S
C338 C330 1.574 . S
C338 H333 0.949 . S
C338 C344 1.368 . S
C339 C323 1.349 . S
C339 H331 0.950 . S
C339 C337 1.327 . S
C340 C328 1.349 . S
C340 H334 0.950 . S
C340 C341 1.327 . S
C341 H335 0.950 . S
C341 C340 1.327 . S
C341 C345 1.429 . S
C342 C325 1.574 . S
C342 H336 0.949 . S
C342 C346 1.368 . S
C343 C324 1.429 . S
C343 C337 1.429 . S
C343 C344 1.523 . S
C344 C325 1.368 . S
C344 C338 1.368 . S
C344 C343 1.523 . S
C345 C329 1.429 . S
C345 C341 1.429 . S
C345 C346 1.523 . S
C346 C330 1.368 . S
C346 C342 1.368 . S
C346 C345 1.523 . S
H347 C322 0.950 . S
H348 C324 0.950 . S
H349 C325 0.949 . S
H350 C327 0.950 . S
H351 C329 0.950 . S
C352 C353 1.349 . S
C352 C354 1.327 . S
C352 H377 0.950 . S
C353 C352 1.349 . S
C353 C369 1.349 . S
C354 C352 1.327 . S
C354 C373 1.429 . S
C354 H378 0.950 . S
C355 C372 1.574 . S
C355 C374 1.368 1_545 S
C355 H379 0.949 . S
H356 C360 0.949 . S
C357 C358 1.349 . S
C357 C359 1.327 . S
C357 H380 0.950 . S
C358 C357 1.349 . S
C358 C370 1.349 . S
C359 C357 1.327 . S
C359 C375 1.429 . S
C359 H381 0.950 . S
C360 H356 0.949 . S
C360 C368 1.574 . S
C360 C376 1.368 1_565 S
H361 C369 0.950 . S
H362 C367 0.950 1_545 S
H363 C368 0.949 . S
H364 C370 0.950 . S
H365 C371 0.950 1_565 S
H366 C372 0.949 . S
C367 H362 0.950 1_565 S
C367 C369 1.327 . S
C367 C373 1.429 . S
C368 C360 1.574 . S
C368 H363 0.949 . S
C368 C374 1.368 . S
C369 C353 1.349 . S
C369 H361 0.950 . S
C369 C367 1.327 . S
C370 C358 1.349 . S
C370 H364 0.950 . S
C370 C371 1.327 . S
C371 H365 0.950 1_545 S
C371 C370 1.327 . S
C371 C375 1.429 . S
C372 C355 1.574 . S
C372 H366 0.949 . S
C372 C376 1.368 . S
C373 C354 1.429 . S
C373 C367 1.429 . S
C373 C374 1.523 . S
C374 C355 1.368 1_565 S
C374 C368 1.368 . S
C374 C373 1.523 . S
C375 C359 1.429 . S
C375 C371 1.429 . S
C375 C376 1.523 . S
C376 C360 1.368 1_545 S
C376 C372 1.368 . S
C376 C375 1.523 . S
H377 C352 0.950 . S
H378 C354 0.950 . S
H379 C355 0.949 . S
H380 C357 0.950 . S
H381 C359 0.950 . S
C382 C383 1.349 . S
C382 C384 1.327 . S
C382 H407 0.950 . S
C383 C382 1.349 . S
C383 C399 1.349 . S
C384 C382 1.327 . S
C384 C403 1.429 . S
C384 H408 0.950 1_565 S
C385 C402 1.574 . S
C385 C404 1.368 . S
C385 H409 0.949 . S
H386 C390 0.949 . S
C387 C388 1.349 . S
C387 C389 1.327 . S
C387 H410 0.950 . S
C388 C387 1.349 . S
C388 C400 1.349 . S
C389 C387 1.327 . S
C389 C405 1.429 . S
C389 H411 0.950 1_545 S
C390 H386 0.949 . S
C390 C398 1.574 . S
C390 C406 1.368 . S
H391 C399 0.950 . S
H392 C397 0.950 . S
H393 C398 0.949 . S
H394 C400 0.950 . S
H395 C401 0.950 . S
H396 C402 0.949 . S
C397 H392 0.950 . S
C397 C399 1.327 . S
C397 C403 1.429 . S
C398 C390 1.574 . S
C398 H393 0.949 . S
C398 C404 1.368 1_545 S
C399 C383 1.349 . S
C399 H391 0.950 . S
C399 C397 1.327 . S
C400 C388 1.349 . S
C400 H394 0.950 . S
C400 C401 1.327 . S
C401 H395 0.950 . S
C401 C400 1.327 . S
C401 C405 1.429 . S
C402 C385 1.574 . S
C402 H396 0.949 . S
C402 C406 1.368 1_565 S
C403 C384 1.429 . S
C403 C397 1.429 . S
C403 C404 1.523 . S
C404 C385 1.368 . S
C404 C398 1.368 1_565 S
C404 C403 1.523 . S
C405 C389 1.429 . S
C405 C401 1.429 . S
C405 C406 1.523 . S
C406 C390 1.368 . S
C406 C402 1.368 1_545 S
C406 C405 1.523 . S
H407 C382 0.950 . S
H408 C384 0.950 1_545 S
H409 C385 0.949 . S
H410 C387 0.950 . S
H411 C389 0.950 1_565 S
C412 C413 1.349 . S
C412 C414 1.327 . S
C412 H437 0.950 . S
C413 C412 1.349 . S
C413 C429 1.349 . S
C414 C412 1.327 . S
C414 C433 1.429 . S
C414 H438 0.950 . S
C415 C432 1.574 . S
C415 C434 1.368 1_545 S
C415 H439 0.949 . S
H416 C420 0.949 . S
C417 C418 1.349 . S
C417 C419 1.327 . S
C417 H440 0.950 . S
C418 C417 1.349 . S
C418 C430 1.349 . S
C419 C417 1.327 . S
C419 C435 1.429 . S
C419 H441 0.950 . S
C420 H416 0.949 . S
C420 C428 1.574 . S
C420 C436 1.368 1_565 S
H421 C429 0.950 . S
H422 C427 0.950 1_545 S
H423 C428 0.949 . S
H424 C430 0.950 . S
H425 C431 0.950 1_565 S
H426 C432 0.949 . S
C427 H422 0.950 1_565 S
C427 C429 1.327 . S
C427 C433 1.429 . S
C428 C420 1.574 . S
C428 H423 0.949 . S
C428 C434 1.368 . S
C429 C413 1.349 . S
C429 H421 0.950 . S
C429 C427 1.327 . S
C430 C418 1.349 . S
C430 H424 0.950 . S
C430 C431 1.327 . S
C431 H425 0.950 1_545 S
C431 C430 1.327 . S
C431 C435 1.429 . S
C432 C415 1.574 . S
C432 H426 0.949 . S
C432 C436 1.368 . S
C433 C414 1.429 . S
C433 C427 1.429 . S
C433 C434 1.523 . S
C434 C415 1.368 1_565 S
C434 C428 1.368 . S
C434 C433 1.523 . S
C435 C419 1.429 . S
C435 C431 1.429 . S
C435 C436 1.523 . S
C436 C420 1.368 1_545 S
C436 C432 1.368 . S
C436 C435 1.523 . S
H437 C412 0.950 . S
H438 C414 0.950 . S
H439 C415 0.949 . S
H440 C417 0.950 . S
H441 C419 0.950 . S
C442 C443 1.349 . S
C442 C444 1.327 . S
C442 H467 0.950 . S
C443 C442 1.349 . S
C443 C459 1.349 . S
C444 C442 1.327 . S
C444 C463 1.429 . S
C444 H468 0.950 . S
C445 C462 1.574 . S
C445 C464 1.368 . S
C445 H469 0.949 . S
H446 C450 0.949 . S
C447 C448 1.349 . S
C447 C449 1.327 . S
C447 H470 0.950 . S
C448 C447 1.349 . S
C448 C460 1.349 . S
C449 C447 1.327 . S
C449 C465 1.429 . S
C449 H471 0.950 . S
C450 H446 0.949 . S
C450 C458 1.574 . S
C450 C466 1.368 . S
H451 C459 0.950 . S
H452 C457 0.950 . S
H453 C458 0.949 . S
H454 C460 0.950 . S
H455 C461 0.950 . S
H456 C462 0.949 . S
C457 H452 0.950 . S
C457 C459 1.327 . S
C457 C463 1.429 . S
C458 C450 1.574 . S
C458 H453 0.949 . S
C458 C464 1.368 1_545 S
C459 C443 1.349 . S
C459 H451 0.950 . S
C459 C457 1.327 . S
C460 C448 1.349 . S
C460 H454 0.950 . S
C460 C461 1.327 . S
C461 H455 0.950 . S
C461 C460 1.327 . S
C461 C465 1.429 . S
C462 C445 1.574 . S
C462 H456 0.949 . S
C462 C466 1.368 1_565 S
C463 C444 1.429 . S
C463 C457 1.429 . S
C463 C464 1.523 . S
C464 C445 1.368 . S
C464 C458 1.368 1_565 S
C464 C463 1.523 . S
C465 C449 1.429 . S
C465 C461 1.429 . S
C465 C466 1.523 . S
C466 C450 1.368 . S
C466 C462 1.368 1_545 S
C466 C465 1.523 . S
H467 C442 0.950 . S
H468 C444 0.950 . S
H469 C445 0.949 . S
H470 C447 0.950 . S
H471 C449 0.950 . S
C472 C473 1.349 . S
C472 C474 1.327 . S
C472 H497 0.950 . S
C473 C472 1.349 . S
C473 C489 1.349 1_554 S
C474 C472 1.327 . S
C474 C493 1.429 . S
C474 H498 0.950 . S
C475 C492 1.574 . S
C475 C494 1.368 1_546 S
C475 H499 0.949 . S
H476 C480 0.949 . S
C477 C478 1.349 1_556 S
C477 C479 1.327 . S
C477 H500 0.950 . S
C478 C477 1.349 1_554 S
C478 C490 1.349 . S
C479 C477 1.327 . S
C479 C495 1.429 1_556 S
C479 H501 0.950 . S
C480 H476 0.949 . S
C480 C488 1.574 . S
C480 C496 1.368 1_565 S
H481 C489 0.950 . S
H482 C487 0.950 . S
H483 C488 0.949 . S
H484 C490 0.950 . S
H485 C491 0.950 . S
H486 C492 0.949 . S
C487 H482 0.950 . S
C487 C489 1.327 . S
C487 C493 1.429 1_556 S
C488 C480 1.574 . S
C488 H483 0.949 . S
C488 C494 1.368 . S
C489 C473 1.349 1_556 S
C489 H481 0.950 . S
C489 C487 1.327 . S
C490 C478 1.349 . S
C490 H484 0.950 . S
C490 C491 1.327 . S
C491 H485 0.950 . S
C491 C490 1.327 . S
C491 C495 1.429 . S
C492 C475 1.574 . S
C492 H486 0.949 . S
C492 C496 1.368 1_556 S
C493 C474 1.429 . S
C493 C487 1.429 1_554 S
C493 C494 1.523 . S
C494 C475 1.368 1_564 S
C494 C488 1.368 . S
C494 C493 1.523 . S
C495 C479 1.429 1_554 S
C495 C491 1.429 . S
C495 C496 1.523 . S
C496 C480 1.368 1_545 S
C496 C492 1.368 1_554 S
C496 C495 1.523 . S
H497 C472 0.950 . S
H498 C474 0.950 . S
H499 C475 0.949 . S
H500 C477 0.950 . S
H501 C479 0.950 . S
C502 C503 1.349 . S
C502 C504 1.327 . S
C502 H527 0.950 . S
C503 C502 1.349 . S
C503 C519 1.349 . S
C504 C502 1.327 . S
C504 C523 1.429 . S
C504 H528 0.950 . S
C505 C522 1.574 . S
C505 C524 1.368 . S
C505 H529 0.949 . S
H506 C510 0.949 . S
C507 C508 1.349 . S
C507 C509 1.327 . S
C507 H530 0.950 . S
C508 C507 1.349 . S
C508 C520 1.349 . S
C509 C507 1.327 . S
C509 C525 1.429 . S
C509 H531 0.950 . S
C510 H506 0.949 . S
C510 C518 1.574 . S
C510 C526 1.368 . S
H511 C519 0.950 . S
H512 C517 0.950 . S
H513 C518 0.949 . S
H514 C520 0.950 . S
H515 C521 0.950 . S
H516 C522 0.949 . S
C517 H512 0.950 . S
C517 C519 1.327 . S
C517 C523 1.429 . S
C518 C510 1.574 . S
C518 H513 0.949 . S
C518 C524 1.368 1_545 S
C519 C503 1.349 . S
C519 H511 0.950 . S
C519 C517 1.327 . S
C520 C508 1.349 . S
C520 H514 0.950 . S
C520 C521 1.327 . S
C521 H515 0.950 . S
C521 C520 1.327 . S
C521 C525 1.429 . S
C522 C505 1.574 . S
C522 H516 0.949 . S
C522 C526 1.368 1_565 S
C523 C504 1.429 . S
C523 C517 1.429 . S
C523 C524 1.523 . S
C524 C505 1.368 . S
C524 C518 1.368 1_565 S
C524 C523 1.523 . S
C525 C509 1.429 . S
C525 C521 1.429 . S
C525 C526 1.523 . S
C526 C510 1.368 . S
C526 C522 1.368 1_545 S
C526 C525 1.523 . S
H527 C502 0.950 . S
H528 C504 0.950 . S
H529 C505 0.949 . S
H530 C507 0.950 . S
H531 C509 0.950 . S
C532 C533 1.349 . S
C532 C534 1.327 . S
C532 H557 0.950 . S
C533 C532 1.349 . S
C533 C549 1.349 1_554 S
C534 C532 1.327 . S
C534 C553 1.429 . S
C534 H558 0.950 . S
C535 C552 1.574 1_455 S
C535 C554 1.368 1_556 S
C535 H559 0.949 . S
H536 C540 0.949 . S
C537 C538 1.349 1_556 S
C537 C539 1.327 . S
C537 H560 0.950 . S
C538 C537 1.349 1_554 S
C538 C550 1.349 . S
C539 C537 1.327 . S
C539 C555 1.429 1_556 S
C539 H561 0.950 . S
C540 H536 0.949 . S
C540 C548 1.574 1_655 S
C540 C556 1.368 . S
H541 C549 0.950 . S
H542 C547 0.950 . S
H543 C548 0.949 . S
H544 C550 0.950 . S
H545 C551 0.950 . S
H546 C552 0.949 . S
C547 H542 0.950 . S
C547 C549 1.327 . S
C547 C553 1.429 1_556 S
C548 C540 1.574 1_455 S
C548 H543 0.949 . S
C548 C554 1.368 . S
C549 C533 1.349 1_556 S
C549 H541 0.950 . S
C549 C547 1.327 . S
C550 C538 1.349 . S
C550 H544 0.950 . S
C550 C551 1.327 . S
C551 H545 0.950 . S
C551 C550 1.327 . S
C551 C555 1.429 . S
C552 C535 1.574 1_655 S
C552 H546 0.949 . S
C552 C556 1.368 1_556 S
C553 C534 1.429 . S
C553 C547 1.429 1_554 S
C553 C554 1.523 . S
C554 C535 1.368 1_554 S
C554 C548 1.368 . S
C554 C553 1.523 . S
C555 C539 1.429 1_554 S
C555 C551 1.429 . S
C555 C556 1.523 . S
C556 C540 1.368 . S
C556 C552 1.368 1_554 S
C556 C555 1.523 . S
H557 C532 0.950 . S
H558 C534 0.950 . S
H559 C535 0.949 . S
H560 C537 0.950 . S
H561 C539 0.950 . S
C562 C563 1.349 . S
C562 C564 1.327 . S
C562 H587 0.950 . S
C563 C562 1.349 . S
C563 C579 1.349 . S
C564 C562 1.327 . S
C564 C583 1.429 . S
C564 H588 0.950 . S
C565 C582 1.574 1_455 S
C565 C584 1.368 . S
C565 H589 0.949 . S
H566 C570 0.949 . S
C567 C568 1.349 . S
C567 C569 1.327 . S
C567 H590 0.950 . S
C568 C567 1.349 . S
C568 C580 1.349 . S
C569 C567 1.327 . S
C569 C585 1.429 . S
C569 H591 0.950 . S
C570 H566 0.949 . S
C570 C578 1.574 1_655 S
C570 C586 1.368 . S
H571 C579 0.950 . S
H572 C577 0.950 . S
H573 C578 0.949 . S
H574 C580 0.950 . S
H575 C581 0.950 . S
H576 C582 0.949 . S
C577 H572 0.950 . S
C577 C579 1.327 . S
C577 C583 1.429 . S
C578 C570 1.574 1_455 S
C578 H573 0.949 . S
C578 C584 1.368 . S
C579 C563 1.349 . S
C579 H571 0.950 . S
C579 C577 1.327 . S
C580 C568 1.349 . S
C580 H574 0.950 . S
C580 C581 1.327 . S
C581 H575 0.950 . S
C581 C580 1.327 . S
C581 C585 1.429 . S
C582 C565 1.574 1_655 S
C582 H576 0.949 . S
C582 C586 1.368 . S
C583 C564 1.429 . S
C583 C577 1.429 . S
C583 C584 1.523 . S
C584 C565 1.368 . S
C584 C578 1.368 . S
C584 C583 1.523 . S
C585 C569 1.429 . S
C585 C581 1.429 . S
C585 C586 1.523 . S
C586 C570 1.368 . S
C586 C582 1.368 . S
C586 C585 1.523 . S
H587 C562 0.950 . S
H588 C564 0.950 . S
H589 C565 0.949 . S
H590 C567 0.950 . S
H591 C569 0.950 . S
C113 C75 1.500 . S
C118 C5 1.500 . S
C143 C61 1.500 . S
C148 C19 1.500 . S
C173 C103 1.500 . S
C178 C33 1.500 . S
C203 C89 1.500 . S
C208 C47 1.500 . S
C233 C0 1.391 . S
C238 C28 1.391 . S
C263 C14 1.391 . S
C268 C42 1.391 . S
C293 C23 1.391 . S
C298 C51 1.391 . S
C323 C9 1.391 . S
C328 C37 1.391 . S
C353 C56 1.391 . S
C358 C84 1.391 . S
C383 C98 1.391 . S
C388 C70 1.391 . S
C413 C107 1.391 . S
C418 C79 1.391 . S
C443 C65 1.391 . S
C448 C93 1.391 . S
C473 C25 1.498 . S
C478 C11 1.498 . S
C503 C39 1.498 . S
C508 C53 1.498 . S
C533 C67 1.498 . S
C538 C81 1.498 . S
C563 C95 1.498 . S
C568 C109 1.498 . S
