# Generated by pormake.
# Topology uoi, (4)-cn, num edge types: 1
# Building blocks:
#     Node 0, Type 0, BuildingBlock: QUQFOY_clean_sbu_1, # of connection points: 4
#     Node 1, Type 0, BuildingBlock: QUQFOY_clean_sbu_1, # of connection points: 4
#     Node 2, Type 0, BuildingBlock: QUQFOY_clean_sbu_1, # of connection points: 4
#     Node 3, Type 0, BuildingBlock: QUQFOY_clean_sbu_1, # of connection points: 4
#     Node 4, Type 0, BuildingBlock: QUQFOY_clean_sbu_1, # of connection points: 4
#     Node 5, Type 0, BuildingBlock: QUQFOY_clean_sbu_1, # of connection points: 4
#     Node 6, Type 0, BuildingBlock: QUQFOY_clean_sbu_1, # of connection points: 4
#     Node 7, Type 0, BuildingBlock: QUQFOY_clean_sbu_1, # of connection points: 4
#     Node 8, Type 0, BuildingBlock: QUQFOY_clean_sbu_1, # of connection points: 4
#     Node 9, Type 0, BuildingBlock: QUQFOY_clean_sbu_1, # of connection points: 4
#     Node 10, Type 0, BuildingBlock: QUQFOY_clean_sbu_1, # of connection points: 4
#     Node 11, Type 0, BuildingBlock: QUQFOY_clean_sbu_1, # of connection points: 4
#     Node 12, Type 0, BuildingBlock: QUQFOY_clean_sbu_1, # of connection points: 4
#     Node 13, Type 0, BuildingBlock: QUQFOY_clean_sbu_1, # of connection points: 4
#     Node 14, Type 0, BuildingBlock: QUQFOY_clean_sbu_1, # of connection points: 4
#     Node 15, Type 0, BuildingBlock: QUQFOY_clean_sbu_1, # of connection points: 4
#     Node 16, Type 0, BuildingBlock: QUQFOY_clean_sbu_1, # of connection points: 4
#     Node 17, Type 0, BuildingBlock: QUQFOY_clean_sbu_1, # of connection points: 4
#     Node 18, Type 0, BuildingBlock: QUQFOY_clean_sbu_1, # of connection points: 4
#     Node 19, Type 0, BuildingBlock: QUQFOY_clean_sbu_1, # of connection points: 4
#     Node 20, Type 0, BuildingBlock: QUQFOY_clean_sbu_1, # of connection points: 4
#     Node 21, Type 0, BuildingBlock: QUQFOY_clean_sbu_1, # of connection points: 4
#     Node 22, Type 0, BuildingBlock: QUQFOY_clean_sbu_1, # of connection points: 4
#     Node 23, Type 0, BuildingBlock: QUQFOY_clean_sbu_1, # of connection points: 4
#     Node 24, Type 0, BuildingBlock: QUQFOY_clean_sbu_1, # of connection points: 4
#     Node 25, Type 0, BuildingBlock: QUQFOY_clean_sbu_1, # of connection points: 4
#     Node 26, Type 0, BuildingBlock: QUQFOY_clean_sbu_1, # of connection points: 4
#     Node 27, Type 0, BuildingBlock: QUQFOY_clean_sbu_1, # of connection points: 4
#     Node 28, Type 0, BuildingBlock: QUQFOY_clean_sbu_1, # of connection points: 4
#     Node 29, Type 0, BuildingBlock: QUQFOY_clean_sbu_1, # of connection points: 4
#     Node 30, Type 0, BuildingBlock: QUQFOY_clean_sbu_1, # of connection points: 4
#     Node 31, Type 0, BuildingBlock: QUQFOY_clean_sbu_1, # of connection points: 4
#     Edge 32, Type (0, 0), BuildingBlock: TEMPAE_clean_linker_10, # of connection points: 2
#     Edge 33, Type (0, 0), BuildingBlock: TEMPAE_clean_linker_10, # of connection points: 2
#     Edge 34, Type (0, 0), BuildingBlock: TEMPAE_clean_linker_10, # of connection points: 2
#     Edge 35, Type (0, 0), BuildingBlock: TEMPAE_clean_linker_10, # of connection points: 2
#     Edge 36, Type (0, 0), BuildingBlock: TEMPAE_clean_linker_10, # of connection points: 2
#     Edge 37, Type (0, 0), BuildingBlock: TEMPAE_clean_linker_10, # of connection points: 2
#     Edge 38, Type (0, 0), BuildingBlock: TEMPAE_clean_linker_10, # of connection points: 2
#     Edge 39, Type (0, 0), BuildingBlock: TEMPAE_clean_linker_10, # of connection points: 2
#     Edge 40, Type (0, 0), BuildingBlock: TEMPAE_clean_linker_10, # of connection points: 2
#     Edge 41, Type (0, 0), BuildingBlock: TEMPAE_clean_linker_10, # of connection points: 2
#     Edge 42, Type (0, 0), BuildingBlock: TEMPAE_clean_linker_10, # of connection points: 2
#     Edge 43, Type (0, 0), BuildingBlock: TEMPAE_clean_linker_10, # of connection points: 2
#     Edge 44, Type (0, 0), BuildingBlock: TEMPAE_clean_linker_10, # of connection points: 2
#     Edge 45, Type (0, 0), BuildingBlock: TEMPAE_clean_linker_10, # of connection points: 2
#     Edge 46, Type (0, 0), BuildingBlock: TEMPAE_clean_linker_10, # of connection points: 2
#     Edge 47, Type (0, 0), BuildingBlock: TEMPAE_clean_linker_10, # of connection points: 2
#     Edge 48, Type (0, 0), BuildingBlock: TEMPAE_clean_linker_10, # of connection points: 2
#     Edge 49, Type (0, 0), BuildingBlock: TEMPAE_clean_linker_10, # of connection points: 2
#     Edge 50, Type (0, 0), BuildingBlock: TEMPAE_clean_linker_10, # of connection points: 2
#     Edge 51, Type (0, 0), BuildingBlock: TEMPAE_clean_linker_10, # of connection points: 2
#     Edge 52, Type (0, 0), BuildingBlock: TEMPAE_clean_linker_10, # of connection points: 2
#     Edge 53, Type (0, 0), BuildingBlock: TEMPAE_clean_linker_10, # of connection points: 2
#     Edge 54, Type (0, 0), BuildingBlock: TEMPAE_clean_linker_10, # of connection points: 2
#     Edge 55, Type (0, 0), BuildingBlock: TEMPAE_clean_linker_10, # of connection points: 2
#     Edge 56, Type (0, 0), BuildingBlock: TEMPAE_clean_linker_10, # of connection points: 2
#     Edge 57, Type (0, 0), BuildingBlock: TEMPAE_clean_linker_10, # of connection points: 2
#     Edge 58, Type (0, 0), BuildingBlock: TEMPAE_clean_linker_10, # of connection points: 2
#     Edge 59, Type (0, 0), BuildingBlock: TEMPAE_clean_linker_10, # of connection points: 2
#     Edge 60, Type (0, 0), BuildingBlock: TEMPAE_clean_linker_10, # of connection points: 2
#     Edge 61, Type (0, 0), BuildingBlock: TEMPAE_clean_linker_10, # of connection points: 2
#     Edge 62, Type (0, 0), BuildingBlock: TEMPAE_clean_linker_10, # of connection points: 2
#     Edge 63, Type (0, 0), BuildingBlock: TEMPAE_clean_linker_10, # of connection points: 2
#     Edge 64, Type (0, 0), BuildingBlock: TEMPAE_clean_linker_10, # of connection points: 2
#     Edge 65, Type (0, 0), BuildingBlock: TEMPAE_clean_linker_10, # of connection points: 2
#     Edge 66, Type (0, 0), BuildingBlock: TEMPAE_clean_linker_10, # of connection points: 2
#     Edge 67, Type (0, 0), BuildingBlock: TEMPAE_clean_linker_10, # of connection points: 2
#     Edge 68, Type (0, 0), BuildingBlock: TEMPAE_clean_linker_10, # of connection points: 2
#     Edge 69, Type (0, 0), BuildingBlock: TEMPAE_clean_linker_10, # of connection points: 2
#     Edge 70, Type (0, 0), BuildingBlock: TEMPAE_clean_linker_10, # of connection points: 2
#     Edge 71, Type (0, 0), BuildingBlock: TEMPAE_clean_linker_10, # of connection points: 2
#     Edge 72, Type (0, 0), BuildingBlock: TEMPAE_clean_linker_10, # of connection points: 2
#     Edge 73, Type (0, 0), BuildingBlock: TEMPAE_clean_linker_10, # of connection points: 2
#     Edge 74, Type (0, 0), BuildingBlock: TEMPAE_clean_linker_10, # of connection points: 2
#     Edge 75, Type (0, 0), BuildingBlock: TEMPAE_clean_linker_10, # of connection points: 2
#     Edge 76, Type (0, 0), BuildingBlock: TEMPAE_clean_linker_10, # of connection points: 2
#     Edge 77, Type (0, 0), BuildingBlock: TEMPAE_clean_linker_10, # of connection points: 2
#     Edge 78, Type (0, 0), BuildingBlock: TEMPAE_clean_linker_10, # of connection points: 2
#     Edge 79, Type (0, 0), BuildingBlock: TEMPAE_clean_linker_10, # of connection points: 2
#     Edge 80, Type (0, 0), BuildingBlock: TEMPAE_clean_linker_10, # of connection points: 2
#     Edge 81, Type (0, 0), BuildingBlock: TEMPAE_clean_linker_10, # of connection points: 2
#     Edge 82, Type (0, 0), BuildingBlock: TEMPAE_clean_linker_10, # of connection points: 2
#     Edge 83, Type (0, 0), BuildingBlock: TEMPAE_clean_linker_10, # of connection points: 2
#     Edge 84, Type (0, 0), BuildingBlock: TEMPAE_clean_linker_10, # of connection points: 2
#     Edge 85, Type (0, 0), BuildingBlock: TEMPAE_clean_linker_10, # of connection points: 2
#     Edge 86, Type (0, 0), BuildingBlock: TEMPAE_clean_linker_10, # of connection points: 2
#     Edge 87, Type (0, 0), BuildingBlock: TEMPAE_clean_linker_10, # of connection points: 2
#     Edge 88, Type (0, 0), BuildingBlock: TEMPAE_clean_linker_10, # of connection points: 2
#     Edge 89, Type (0, 0), BuildingBlock: TEMPAE_clean_linker_10, # of connection points: 2
#     Edge 90, Type (0, 0), BuildingBlock: TEMPAE_clean_linker_10, # of connection points: 2
#     Edge 91, Type (0, 0), BuildingBlock: TEMPAE_clean_linker_10, # of connection points: 2
#     Edge 92, Type (0, 0), BuildingBlock: TEMPAE_clean_linker_10, # of connection points: 2
#     Edge 93, Type (0, 0), BuildingBlock: TEMPAE_clean_linker_10, # of connection points: 2
#     Edge 94, Type (0, 0), BuildingBlock: TEMPAE_clean_linker_10, # of connection points: 2
#     Edge 95, Type (0, 0), BuildingBlock: TEMPAE_clean_linker_10, # of connection points: 2
# Relax obj value: 0.227
# Max RMSD: 0.152
# Mean RMSD: 0.152
data_MOF--net-uoi--node1-QUQFOY_clean_sbu_1--edge1-TEMPAE_clean_linker_10
_symmetry_space_group_name_H-M    P1
_symmetry_Int_Tables_number       1
_symmetry_cell_setting            triclinic
loop_
_symmetry_equiv_pos_as_xyz
'x, y, z'
_cell_length_a     88.653234
_cell_length_b     88.657986
_cell_length_c     20.445284
_cell_angle_alpha  90.047828
_cell_angle_beta   90.062857
_cell_angle_gamma 90.010039
loop_
_atom_site_label
_atom_site_type_symbol
_atom_site_fract_x
_atom_site_fract_y
_atom_site_fract_z
_atom_type_partial_charge
O0 O 0.16624 0.1974 0.23167 0.0
Cd1 Cd 0.16965 0.18176 0.30382 0.0
Cd2 Cd 0.19624 0.18595 0.26666 0.0
O3 O 0.18691 0.19188 0.17727 0.0
O4 O 0.15087 0.16946 0.30753 0.0
O5 O 0.17263 0.16094 0.26872 0.0
C6 C 0.15828 0.15906 0.27688 0.0
C7 C 0.2161 0.17084 0.29987 0.0
C8 C 0.17421 0.1986 0.18031 0.0
C9 C 0.18677 0.20131 0.38735 0.0
O10 O 0.19422 0.20257 0.33474 0.0
O11 O 0.17683 0.19098 0.39225 0.0
O12 O 0.21842 0.18269 0.26447 0.0
O13 O 0.20232 0.1663 0.30704 0.0
O14 O 0.04877 0.92145 0.47052 0.0
Cd15 Cd 0.06372 0.91317 0.53773 0.0
Cd16 Cd 0.05874 0.94248 0.5914 0.0
O17 O 0.04648 0.94494 0.50572 0.0
O18 O 0.07121 0.89426 0.49613 0.0
O19 O 0.08593 0.91391 0.51525 0.0
C20 C 0.08424 0.90056 0.49098 0.0
C21 C 0.06945 0.96377 0.64236 0.0
C22 C 0.04314 0.93456 0.46517 0.0
C23 C 0.0476 0.91466 0.66484 0.0
O24 O 0.04859 0.92888 0.65909 0.0
O25 O 0.05361 0.90591 0.6231 0.0
O26 O 0.05518 0.96253 0.63295 0.0
O27 O 0.07799 0.95323 0.61957 0.0
O28 O 0.3367 0.79645 0.75595 0.0
Cd29 Cd 0.34321 0.81232 0.82318 0.0
Cd30 Cd 0.31438 0.80663 0.87227 0.0
O31 O 0.31318 0.79336 0.78904 0.0
O32 O 0.36157 0.82174 0.78508 0.0
O33 O 0.34022 0.83424 0.79955 0.0
C34 C 0.35393 0.83399 0.77828 0.0
C35 C 0.29222 0.81739 0.91482 0.0
C36 C 0.32391 0.79014 0.75023 0.0
C37 C 0.34167 0.79727 0.95258 0.0
O38 O 0.32747 0.79765 0.94497 0.0
O39 O 0.35041 0.80326 0.91078 0.0
O40 O 0.29396 0.80306 0.90965 0.0
O41 O 0.30285 0.82593 0.89286 0.0
O42 O 0.45171 0.0956 0.99726 0.0
Cd43 Cd 0.43559 0.09065 0.06583 0.0
Cd44 Cd 0.44088 0.06428 0.0243 0.0
O45 O 0.44781 0.075 0.93962 0.0
O46 O 0.42108 0.10783 0.06972 0.0
O47 O 0.41559 0.08546 0.02718 0.0
C48 C 0.41181 0.09934 0.03746 0.0
C49 C 0.42628 0.04279 0.03968 0.0
C50 C 0.45397 0.08792 0.9457 0.0
C51 C 0.45471 0.07337 0.1509 0.0
O52 O 0.45624 0.0658 0.09863 0.0
O53 O 0.44441 0.08335 0.1545 0.0
O54 O 0.43917 0.04209 0.01047 0.0
O55 O 0.42086 0.05599 0.0525 0.0
O56 O 0.15308 0.79677 0.23961 0.0
Cd57 Cd 0.1578 0.81339 0.17288 0.0
Cd58 Cd 0.18422 0.8088 0.21552 0.0
O59 O 0.17332 0.80132 0.29885 0.0
O60 O 0.14055 0.82782 0.16965 0.0
O61 O 0.16273 0.83307 0.21475 0.0
C62 C 0.14887 0.83687 0.20389 0.0
C63 C 0.20569 0.82361 0.20361 0.0
C64 C 0.16067 0.79468 0.29159 0.0
C65 C 0.176 0.7953 0.08727 0.0
O66 O 0.1834 0.79373 0.13996 0.0
O67 O 0.16571 0.80529 0.08392 0.0
O68 O 0.20629 0.81063 0.23207 0.0
O69 O 0.19254 0.829 0.18961 0.0
O70 O 0.45271 0.91512 0.50728 0.0
Cd71 Cd 0.43747 0.90799 0.43859 0.0
Cd72 Cd 0.44248 0.93704 0.38985 0.0
O73 O 0.4549 0.93883 0.47538 0.0
O74 O 0.42841 0.8894 0.47629 0.0
O75 O 0.41534 0.91032 0.45955 0.0
C76 C 0.41589 0.89666 0.48142 0.0
C77 C 0.43164 0.95877 0.34355 0.0
C78 C 0.45837 0.92818 0.51424 0.0
C79 C 0.4534 0.90993 0.3117 0.0
O80 O 0.45255 0.9241 0.31938 0.0
O81 O 0.44732 0.90099 0.35239 0.0
O82 O 0.44594 0.95744 0.35197 0.0
O83 O 0.42315 0.94801 0.36458 0.0
O84 O 0.33466 0.20095 0.77662 0.0
Cd85 Cd 0.33551 0.18371 0.70955 0.0
Cd86 Cd 0.30768 0.19063 0.7111 0.0
O87 O 0.31085 0.19854 0.80529 0.0
O88 O 0.3547 0.17297 0.7285 0.0
O89 O 0.3322 0.16263 0.74294 0.0
C90 C 0.3467 0.1618 0.74922 0.0
C91 C 0.28743 0.17763 0.66476 0.0
C92 C 0.32376 0.20456 0.81371 0.0
C93 C 0.32771 0.20328 0.60711 0.0
O94 O 0.31667 0.20545 0.64534 0.0
O95 O 0.33628 0.19195 0.61516 0.0
O96 O 0.28584 0.19103 0.68847 0.0
O97 O 0.30021 0.17091 0.67397 0.0
O98 O 0.04931 0.09755 0.00604 0.0
Cd99 Cd 0.06654 0.09336 0.94173 0.0
Cd100 Cd 0.06123 0.06651 0.97797 0.0
O101 O 0.05286 0.07661 0.06178 0.0
O102 O 0.08121 0.11043 0.94633 0.0
O103 O 0.08577 0.0876 0.986 0.0
C104 C 0.08982 0.10154 0.9799 0.0
C105 C 0.07556 0.04485 0.963 0.0
C106 C 0.04654 0.08946 0.05588 0.0
C107 C 0.04938 0.07612 0.8485 0.0
O108 O 0.04716 0.06827 0.89941 0.0
O109 O 0.05929 0.08653 0.84942 0.0
O110 O 0.06236 0.04423 0.98942 0.0
O111 O 0.08147 0.058 0.95394 0.0
O112 O 0.83885 0.79792 0.77523 0.0
Cd113 Cd 0.84465 0.81283 0.70363 0.0
Cd114 Cd 0.81467 0.8111 0.67417 0.0
O115 O 0.81419 0.79949 0.76172 0.0
O116 O 0.86378 0.82238 0.73329 0.0
O117 O 0.8422 0.83486 0.72462 0.0
C118 C 0.85623 0.83466 0.74211 0.0
C119 C 0.79287 0.82385 0.63896 0.0
C120 C 0.82558 0.79421 0.79187 0.0
C121 C 0.83736 0.79659 0.58217 0.0
O122 O 0.82378 0.79882 0.59903 0.0
O123 O 0.84817 0.80232 0.61472 0.0
O124 O 0.79298 0.80961 0.65023 0.0
O125 O 0.80506 0.8313 0.6509 0.0
O126 O 0.95739 0.08423 0.52766 0.0
Cd127 Cd 0.94177 0.09209 0.46215 0.0
Cd128 Cd 0.94713 0.06302 0.40659 0.0
O129 O 0.96081 0.0612 0.48853 0.0
O130 O 0.93404 0.11087 0.50405 0.0
O131 O 0.91968 0.0909 0.48644 0.0
C132 C 0.92115 0.10434 0.50997 0.0
C133 C 0.93645 0.04127 0.35911 0.0
C134 C 0.96388 0.07148 0.52996 0.0
C135 C 0.95653 0.09111 0.33128 0.0
O136 O 0.95573 0.07687 0.33601 0.0
O137 O 0.95108 0.09961 0.37542 0.0
O138 O 0.95078 0.04305 0.3644 0.0
O139 O 0.92789 0.05151 0.3842 0.0
O140 O 0.66717 0.20355 0.24752 0.0
Cd141 Cd 0.66003 0.18818 0.1793 0.0
Cd142 Cd 0.68933 0.19405 0.12875 0.0
O143 O 0.6907 0.20656 0.21418 0.0
O144 O 0.64123 0.17954 0.21717 0.0
O145 O 0.6619 0.16604 0.20157 0.0
C146 C 0.64823 0.16689 0.22292 0.0
C147 C 0.71158 0.18433 0.08206 0.0
C148 C 0.68005 0.20965 0.25369 0.0
C149 C 0.66164 0.20402 0.05149 0.0
O150 O 0.67585 0.20349 0.05851 0.0
O151 O 0.65291 0.19787 0.09288 0.0
O152 O 0.7095 0.19854 0.09036 0.0
O153 O 0.70129 0.1753 0.10325 0.0
O154 O 0.54621 0.90498 0.98739 0.0
Cd155 Cd 0.56275 0.90981 0.92063 0.0
Cd156 Cd 0.55757 0.93612 0.96199 0.0
O157 O 0.55036 0.92536 0.04615 0.0
O158 O 0.57704 0.89246 0.91825 0.0
O159 O 0.5825 0.91471 0.96225 0.0
C160 C 0.58613 0.90077 0.95235 0.0
C161 C 0.57217 0.95761 0.94727 0.0
C162 C 0.54398 0.91257 0.03923 0.0
C163 C 0.54418 0.92725 0.83437 0.0
O164 O 0.54243 0.9347 0.88684 0.0
O165 O 0.55449 0.91728 0.83123 0.0
O166 O 0.55924 0.95829 0.97611 0.0
O167 O 0.57765 0.94443 0.93467 0.0
O168 O 0.84953 0.20864 0.74519 0.0
Cd169 Cd 0.84478 0.19213 0.81254 0.0
Cd170 Cd 0.81834 0.19683 0.77014 0.0
O171 O 0.82913 0.20438 0.68658 0.0
O172 O 0.86231 0.17807 0.81792 0.0
O173 O 0.84038 0.17212 0.77214 0.0
C174 C 0.85426 0.16865 0.78433 0.0
C175 C 0.79718 0.1817 0.78374 0.0
C176 C 0.84188 0.21085 0.69347 0.0
C177 C 0.82655 0.21025 0.89826 0.0
O178 O 0.81915 0.21191 0.84561 0.0
O179 O 0.83684 0.20025 0.90135 0.0
O180 O 0.79625 0.19462 0.75491 0.0
O181 O 0.81046 0.17653 0.79688 0.0
O182 O 0.54623 0.08552 0.47851 0.0
Cd183 Cd 0.56118 0.0927 0.54832 0.0
Cd184 Cd 0.55608 0.06356 0.59666 0.0
O185 O 0.54396 0.0618 0.51029 0.0
O186 O 0.5704 0.11133 0.51155 0.0
O187 O 0.5834 0.0904 0.52915 0.0
C188 C 0.58295 0.10407 0.50745 0.0
C189 C 0.56681 0.04182 0.64353 0.0
C190 C 0.5406 0.07246 0.4712 0.0
C191 C 0.54477 0.09062 0.67416 0.0
O192 O 0.54573 0.07645 0.66657 0.0
O193 O 0.55094 0.0996 0.63386 0.0
O194 O 0.55254 0.04313 0.63423 0.0
O195 O 0.57535 0.05261 0.62305 0.0
O196 O 0.662 0.79784 0.21375 0.0
Cd197 Cd 0.6577 0.81324 0.2854 0.0
Cd198 Cd 0.68756 0.81056 0.30714 0.0
O199 O 0.68682 0.79905 0.21927 0.0
O200 O 0.63862 0.82334 0.25909 0.0
O201 O 0.66071 0.83506 0.26203 0.0
C202 C 0.64651 0.83528 0.24741 0.0
C203 C 0.70944 0.82363 0.33844 0.0
C204 C 0.67488 0.79386 0.19303 0.0
C205 C 0.66577 0.79681 0.40467 0.0
O206 O 0.67916 0.79829 0.38383 0.0
O207 O 0.65483 0.80322 0.37556 0.0
O208 O 0.70949 0.80939 0.32678 0.0
O209 O 0.69703 0.83088 0.32869 0.0
O210 O 0.95571 0.90855 0.99326 0.0
Cd211 Cd 0.93922 0.91282 0.06104 0.0
Cd212 Cd 0.94361 0.9392 0.02005 0.0
O213 O 0.95065 0.92874 0.93479 0.0
O214 O 0.9256 0.89492 0.06442 0.0
O215 O 0.91921 0.91685 0.01997 0.0
C216 C 0.91614 0.90279 0.03035 0.0
C217 C 0.92846 0.96001 0.04007 0.0
C218 C 0.95745 0.91616 0.94116 0.0
C219 C 0.95753 0.9309 0.14631 0.0
O220 O 0.9592 0.93812 0.09328 0.0
O221 O 0.94737 0.92077 0.15009 0.0
O222 O 0.94099 0.96133 0.00838 0.0
O223 O 0.92353 0.94655 0.05171 0.0
O224 O 0.6641 0.70106 0.72295 0.0
Cd225 Cd 0.66614 0.68492 0.79417 0.0
Cd226 Cd 0.69313 0.69105 0.77014 0.0
O227 O 0.68637 0.69779 0.67771 0.0
O228 O 0.64734 0.67271 0.7892 0.0
O229 O 0.66988 0.66395 0.76138 0.0
C230 C 0.6554 0.66211 0.7635 0.0
C231 C 0.71334 0.67728 0.81083 0.0
C232 C 0.67334 0.7039 0.67712 0.0
C233 C 0.67851 0.70567 0.88427 0.0
O234 O 0.68762 0.70711 0.83698 0.0
O235 O 0.66957 0.69443 0.88578 0.0
O236 O 0.71543 0.68979 0.77973 0.0
O237 O 0.69992 0.67153 0.81038 0.0
O238 O 0.55009 0.41964 0.97017 0.0
Cd239 Cd 0.56519 0.41119 0.03636 0.0
Cd240 Cd 0.5602 0.44046 0.09189 0.0
O241 O 0.54776 0.44302 0.00673 0.0
O242 O 0.57269 0.39246 0.99332 0.0
O243 O 0.58734 0.41212 0.01303 0.0
C244 C 0.58567 0.39885 0.98795 0.0
C245 C 0.57054 0.46184 0.14373 0.0
C246 C 0.5444 0.43274 0.96572 0.0
C247 C 0.54938 0.41232 0.16432 0.0
O248 O 0.55035 0.42655 0.15924 0.0
O249 O 0.55527 0.40368 0.12179 0.0
O250 O 0.55628 0.46031 0.13459 0.0
O251 O 0.57927 0.45155 0.12021 0.0
O252 O 0.83601 0.30147 0.22591 0.0
Cd253 Cd 0.84303 0.31705 0.29317 0.0
Cd254 Cd 0.81435 0.31105 0.34525 0.0
O255 O 0.81256 0.29849 0.26015 0.0
O256 O 0.86075 0.32698 0.25165 0.0
O257 O 0.83939 0.339 0.2722 0.0
C258 C 0.85278 0.33909 0.24725 0.0
C259 C 0.79231 0.32087 0.39319 0.0
C260 C 0.82312 0.29536 0.2203 0.0
C261 C 0.84238 0.3013 0.42083 0.0
O262 O 0.82814 0.30168 0.41453 0.0
O263 O 0.85091 0.30757 0.379 0.0
O264 O 0.79434 0.30665 0.3852 0.0
O265 O 0.80255 0.32986 0.37113 0.0
O266 O 0.94399 0.59035 0.48386 0.0
Cd267 Cd 0.92709 0.59031 0.5525 0.0
Cd268 Cd 0.9338 0.56275 0.54399 0.0
O269 O 0.94108 0.56697 0.44986 0.0
O270 O 0.91513 0.60891 0.53663 0.0
O271 O 0.9062 0.58585 0.51981 0.0
C272 C 0.90446 0.6003 0.51503 0.0
C273 C 0.92122 0.54193 0.58725 0.0
C274 C 0.94725 0.57987 0.4439 0.0
C275 C 0.94725 0.58145 0.6509 0.0
O276 O 0.9491 0.57088 0.60989 0.0
O277 O 0.93584 0.59008 0.64635 0.0
O278 O 0.93441 0.54068 0.56115 0.0
O279 O 0.91441 0.55478 0.58211 0.0
O280 O 0.65421 0.2967 0.72718 0.0
Cd281 Cd 0.6589 0.31336 0.66073 0.0
Cd282 Cd 0.68538 0.30863 0.70273 0.0
O283 O 0.67453 0.30109 0.78614 0.0
O284 O 0.64164 0.32781 0.65843 0.0
O285 O 0.66387 0.33297 0.70322 0.0
C286 C 0.64999 0.33676 0.69297 0.0
C287 C 0.70671 0.32361 0.69023 0.0
C288 C 0.66183 0.29453 0.779 0.0
C289 C 0.67694 0.29526 0.57444 0.0
O290 O 0.68442 0.29364 0.62691 0.0
O291 O 0.66668 0.3053 0.57145 0.0
O292 O 0.70749 0.3106 0.71836 0.0
O293 O 0.69349 0.32891 0.6769 0.0
O294 O 0.94587 0.41635 -0.00059 0.0
Cd295 Cd 0.93009 0.4206 0.92852 0.0
Cd296 Cd 0.9352 0.44699 0.96732 0.0
O297 O 0.94142 0.4371 0.05522 0.0
O298 O 0.91695 0.40241 0.92308 0.0
O299 O 0.90957 0.42427 0.96526 0.0
C300 C 0.90699 0.4101 0.95508 0.0
C301 C 0.91999 0.46721 0.93874 0.0
C302 C 0.94767 0.42418 0.05093 0.0
C303 C 0.94987 0.43733 0.8449 0.0
O304 O 0.95138 0.44483 0.89734 0.0
O305 O 0.93928 0.42767 0.84023 0.0
O306 O 0.93223 0.46922 0.97207 0.0
O307 O 0.91531 0.45352 0.93045 0.0
O308 O 0.83449 0.70147 0.26118 0.0
Cd309 Cd 0.83121 0.68553 0.18988 0.0
Cd310 Cd 0.80455 0.69229 0.21814 0.0
O311 O 0.81246 0.69887 0.30931 0.0
O312 O 0.84926 0.67218 0.19191 0.0
O313 O 0.82647 0.66488 0.22353 0.0
C314 C 0.84076 0.66213 0.21914 0.0
C315 C 0.78422 0.67823 0.18047 0.0
C316 C 0.82571 0.70449 0.30849 0.0
C317 C 0.81824 0.70647 0.10118 0.0
O318 O 0.80955 0.70816 0.14985 0.0
O319 O 0.82708 0.69516 0.09904 0.0
O320 O 0.78218 0.69075 0.21169 0.0
O321 O 0.79771 0.67266 0.17926 0.0
O322 O 0.54978 0.59498 0.51236 0.0
Cd323 Cd 0.56625 0.59038 0.44482 0.0
Cd324 Cd 0.56105 0.5639 0.48456 0.0
O325 O 0.55378 0.57434 0.56952 0.0
O326 O 0.58049 0.60783 0.4431 0.0
O327 O 0.58615 0.58549 0.48527 0.0
C328 C 0.58974 0.59946 0.47602 0.0
C329 C 0.57587 0.54274 0.46622 0.0
C330 C 0.54749 0.58721 0.56358 0.0
C331 C 0.54772 0.57292 0.35747 0.0
O332 O 0.5459 0.56543 0.40971 0.0
O333 O 0.55796 0.583 0.35502 0.0
O334 O 0.56307 0.54167 0.49598 0.0
O335 O 0.58117 0.55608 0.45539 0.0
O336 O 0.34348 0.29638 0.28181 0.0
Cd337 Cd 0.34491 0.31235 0.21024 0.0
Cd338 Cd 0.31522 0.3098 0.21169 0.0
O339 O 0.31917 0.29928 0.30031 0.0
O340 O 0.36394 0.32364 0.22617 0.0
O341 O 0.3412 0.3337 0.23855 0.0
C342 C 0.35569 0.33486 0.24474 0.0
C343 C 0.29326 0.32347 0.18888 0.0
C344 C 0.33177 0.29325 0.31475 0.0
C345 C 0.33255 0.29603 0.09909 0.0
O346 O 0.32048 0.29675 0.13213 0.0
O347 O 0.34427 0.30314 0.11747 0.0
O348 O 0.29284 0.30953 0.20603 0.0
O349 O 0.30617 0.33021 0.19028 0.0
O350 O 0.45651 0.58317 0.03134 0.0
Cd351 Cd 0.44131 0.59131 0.96477 0.0
Cd352 Cd 0.44665 0.56206 0.91007 0.0
O353 O 0.45918 0.5598 0.99518 0.0
O354 O 0.43339 0.60996 0.00723 0.0
O355 O 0.41914 0.59002 0.98742 0.0
C356 C 0.42051 0.60335 0.01225 0.0
C357 C 0.43639 0.54054 0.85888 0.0
C358 C 0.46241 0.57017 0.03598 0.0
C359 C 0.45717 0.5902 0.83692 0.0
O360 O 0.45632 0.57597 0.84226 0.0
O361 O 0.4512 0.59883 0.87929 0.0
O362 O 0.45065 0.54217 0.86773 0.0
O363 O 0.42762 0.55081 0.88239 0.0
O364 O 0.16621 0.70361 0.7616 0.0
Cd365 Cd 0.15883 0.68836 0.69341 0.0
Cd366 Cd 0.18822 0.6937 0.64335 0.0
O367 O 0.18978 0.7063 0.72842 0.0
O368 O 0.13974 0.6804 0.73142 0.0
O369 O 0.15994 0.66619 0.71628 0.0
C370 C 0.1463 0.66753 0.73766 0.0
C371 C 0.21028 0.68319 0.59829 0.0
C372 C 0.17916 0.70954 0.76784 0.0
C373 C 0.16084 0.70414 0.56538 0.0
O374 O 0.17504 0.70335 0.57252 0.0
O375 O 0.15199 0.69815 0.60673 0.0
O376 O 0.20859 0.69748 0.60553 0.0
O377 O 0.19966 0.67453 0.61941 0.0
O378 O 0.04148 0.41902 0.53328 0.0
Cd379 Cd 0.05363 0.40861 0.46149 0.0
Cd380 Cd 0.05287 0.43851 0.40886 0.0
O381 O 0.04108 0.44224 0.49444 0.0
O382 O 0.05864 0.38915 0.5048 0.0
O383 O 0.07607 0.40524 0.47154 0.0
C384 C 0.07267 0.39283 0.50119 0.0
C385 C 0.06476 0.45975 0.36263 0.0
C386 C 0.03723 0.43265 0.53739 0.0
C387 C 0.03694 0.41282 0.33653 0.0
O388 O 0.04103 0.42652 0.33998 0.0
O389 O 0.04097 0.40332 0.37972 0.0
O390 O 0.05045 0.45904 0.37124 0.0
O391 O 0.07274 0.44842 0.3818 0.0
O392 O 0.35012 0.70439 0.27697 0.0
Cd393 Cd 0.34564 0.68725 0.34147 0.0
Cd394 Cd 0.31911 0.69196 0.30059 0.0
O395 O 0.3298 0.70008 0.2179 0.0
O396 O 0.36307 0.67303 0.34205 0.0
O397 O 0.34085 0.66778 0.29719 0.0
C398 C 0.3548 0.66412 0.30693 0.0
C399 C 0.29736 0.67748 0.31061 0.0
C400 C 0.34241 0.70677 0.22555 0.0
C401 C 0.32763 0.70456 0.43042 0.0
O402 O 0.32008 0.70643 0.3783 0.0
O403 O 0.33801 0.69464 0.43197 0.0
O404 O 0.29701 0.69068 0.28415 0.0
O405 O 0.31041 0.6717 0.32353 0.0
O406 O 0.04053 0.59549 0.98002 0.0
Cd407 Cd 0.05639 0.59645 0.05248 0.0
Cd408 Cd 0.05309 0.567 0.05405 0.0
O409 O 0.04205 0.57087 0.96656 0.0
O410 O 0.06875 0.61482 0.0379 0.0
O411 O 0.07758 0.59154 0.02595 0.0
C412 C 0.0796 0.60595 0.02063 0.0
C413 C 0.06695 0.54497 0.07346 0.0
C414 C 0.03666 0.5836 0.94974 0.0
C415 C 0.03985 0.58505 0.16529 0.0
O416 O 0.04053 0.57262 0.13467 0.0
O417 O 0.04696 0.59654 0.14456 0.0
O418 O 0.0528 0.54463 0.05965 0.0
O419 O 0.07368 0.55787 0.07174 0.0
O420 O 0.17338 0.29317 0.69793 0.0
Cd421 Cd 0.16229 0.30495 0.76905 0.0
Cd422 Cd 0.19197 0.30366 0.82572 0.0
O423 O 0.19626 0.29189 0.74041 0.0
O424 O 0.14294 0.30907 0.7229 0.0
O425 O 0.15786 0.32723 0.75881 0.0
C426 C 0.14587 0.32325 0.72736 0.0
C427 C 0.21243 0.31609 0.87602 0.0
C428 C 0.1869 0.28854 0.69556 0.0
C429 C 0.16572 0.28774 0.89343 0.0
O430 O 0.17946 0.29177 0.89231 0.0
O431 O 0.15657 0.29194 0.8491 0.0
O432 O 0.2122 0.30176 0.86724 0.0
O433 O 0.20114 0.32376 0.85416 0.0
O434 O 0.45727 0.40754 0.49148 0.0
Cd435 Cd 0.44076 0.41203 0.55898 0.0
Cd436 Cd 0.4456 0.43843 0.51832 0.0
O437 O 0.45282 0.42794 0.4334 0.0
O438 O 0.4271 0.39417 0.56246 0.0
O439 O 0.42068 0.41612 0.51844 0.0
C440 C 0.41758 0.40208 0.52889 0.0
C441 C 0.43057 0.45939 0.53709 0.0
C442 C 0.45933 0.4152 0.43974 0.0
C443 C 0.45908 0.42989 0.64539 0.0
O444 O 0.46091 0.4372 0.59268 0.0
O445 O 0.4489 0.41977 0.64838 0.0
O446 O 0.44326 0.46059 0.50652 0.0
O447 O 0.42545 0.44599 0.54832 0.0
C448 C 0.27899 0.15878 0.58026 0.0
C449 C 0.27585 0.17139 0.61956 0.0
C450 C 0.26957 0.15491 0.52729 0.0
C451 C 0.2568 0.16394 0.51306 0.0
C452 C 0.25301 0.176 0.55551 0.0
C453 C 0.26252 0.17952 0.60826 0.0
C454 C 0.27384 0.14176 0.48422 0.0
C455 C 0.23945 0.1859 0.54266 0.0
C456 C 0.24252 0.17196 0.34207 0.0
C457 C 0.22825 0.16511 0.34344 0.0
C458 C 0.25252 0.17061 0.39504 0.0
C459 C 0.24825 0.16206 0.45054 0.0
C460 C 0.23463 0.15372 0.44892 0.0
C461 C 0.22476 0.15536 0.39542 0.0
C462 C 0.26701 0.17958 0.39417 0.0
C463 C 0.22982 0.14414 0.50617 0.0
H464 H 0.28924 0.1524 0.58855 0.0
H465 H 0.25992 0.18922 0.63852 0.0
H466 H 0.26373 0.13512 0.47021 0.0
H467 H 0.27905 0.14605 0.43856 0.0
H468 H 0.28206 0.13417 0.50866 0.0
H469 H 0.23745 0.19412 0.58276 0.0
H470 H 0.24114 0.19226 0.4965 0.0
H471 H 0.22917 0.17891 0.53651 0.0
H472 H 0.24541 0.1794 0.30195 0.0
H473 H 0.21382 0.14991 0.39691 0.0
H474 H 0.27662 0.17252 0.41045 0.0
H475 H 0.26606 0.18919 0.42874 0.0
H476 H 0.26957 0.18412 0.34478 0.0
H477 H 0.23953 0.13779 0.52653 0.0
H478 H 0.22081 0.13602 0.49225 0.0
H479 H 0.22539 0.15153 0.54552 0.0
C480 C 0.08838 0.97433 0.72152 0.0
C481 C 0.07531 0.9762 0.68359 0.0
C482 C 0.09225 0.98492 0.77017 0.0
C483 C 0.0829 0.99766 0.7804 0.0
C484 C 0.0703 1.00006 0.739 0.0
C485 C 0.06662 0.98926 0.69152 0.0
C486 C 0.10577 0.98195 0.81311 0.0
C487 C 0.06015 0.01364 0.74714 0.0
C488 C 0.0752 0.01719 0.94089 0.0
C489 C 0.08176 0.03134 0.92975 0.0
C490 C 0.07688 0.00541 0.89552 0.0
C491 C 0.08521 0.00792 0.83742 0.0
C492 C 0.09332 0.02156 0.82987 0.0
C493 C 0.09157 0.03311 0.87642 0.0
C494 C 0.06836 0.99089 0.90647 0.0
C495 C 0.10249 0.02464 0.7692 0.0
H496 H 0.09508 0.96419 0.71586 0.0
H497 H 0.05657 0.9908 0.66196 0.0
H498 H 0.11227 0.99246 0.82182 0.0
H499 H 0.10189 0.97776 0.86137 0.0
H500 H 0.1134 0.97335 0.79144 0.0
H501 H 0.05156 0.01445 0.70769 0.0
H502 H 0.05421 0.01296 0.79479 0.0
H503 H 0.06693 0.02416 0.74732 0.0
H504 H 0.06775 0.01566 0.98239 0.0
H505 H 0.09676 0.04398 0.86746 0.0
H506 H 0.07544 0.98102 0.89356 0.0
H507 H 0.05825 0.99067 0.87439 0.0
H508 H 0.06458 0.98971 0.958 0.0
H509 H 0.10888 0.01448 0.75393 0.0
H510 H 0.11052 0.03411 0.77672 0.0
H511 H 0.09477 0.0277 0.72853 0.0
C512 C 0.23366 0.82426 0.19177 0.0
C513 C 0.21953 0.83013 0.17457 0.0
C514 C 0.24619 0.82615 0.15069 0.0
C515 C 0.24447 0.83398 0.09077 0.0
C516 C 0.23075 0.84153 0.07732 0.0
C517 C 0.21842 0.83958 0.11966 0.0
C518 C 0.26075 0.81827 0.16794 0.0
C519 C 0.2285 0.85021 0.01463 0.0
C520 C 0.27992 0.83689 0.98606 0.0
C521 C 0.27899 0.82342 0.95025 0.0
C522 C 0.2684 0.84101 0.03003 0.0
C523 C 0.2557 0.83147 0.03763 0.0
C524 C 0.25428 0.81844 0.99791 0.0
C525 C 0.26598 0.81454 0.95514 0.0
C526 C 0.27033 0.85501 0.07119 0.0
C527 C 0.2408 0.80807 0.00324 0.0
H528 H 0.23466 0.81713 0.23464 0.0
H529 H 0.20756 0.84427 0.10614 0.0
H530 H 0.2619 0.80794 0.13766 0.0
H531 H 0.27057 0.82563 0.15738 0.0
H532 H 0.26112 0.81494 0.22029 0.0
H533 H 0.21873 0.85802 0.01798 0.0
H534 H 0.23873 0.85678 0.00194 0.0
H535 H 0.22634 0.84216 0.9741 0.0
H536 H 0.29001 0.84375 0.98268 0.0
H537 H 0.26516 0.80419 0.92708 0.0
H538 H 0.27413 0.85172 0.1209 0.0
H539 H 0.2595 0.86115 0.0765 0.0
H540 H 0.27887 0.86277 0.05008 0.0
H541 H 0.24075 0.80258 0.05201 0.0
H542 H 0.24086 0.79911 0.96521 0.0
H543 H 0.23018 0.8146 0.99861 0.0
C544 C 0.42611 0.01493 0.05654 0.0
C545 C 0.41987 0.0291 0.07058 0.0
C546 C 0.42415 0.00274 0.09945 0.0
C547 C 0.41584 0.00482 0.15792 0.0
C548 C 0.40798 0.01852 0.16809 0.0
C549 C 0.41004 0.03051 0.12404 0.0
C550 C 0.4324 0.98819 0.08572 0.0
C551 C 0.39878 0.02113 0.22908 0.0
C552 C 0.41257 0.97019 0.26745 0.0
C553 C 0.4257 0.97162 0.3053 0.0
C554 C 0.40866 0.98128 0.2211 0.0
C555 C 0.41807 0.99407 0.21309 0.0
C556 C 0.43073 0.99601 0.25466 0.0
C557 C 0.43441 0.98474 0.29988 0.0
C558 C 0.39506 0.9788 0.17805 0.0
C559 C 0.44095 0.0096 0.24886 0.0
H560 H 0.43354 0.01368 0.0148 0.0
H561 H 0.40505 0.04138 0.13509 0.0
H562 H 0.44249 0.98747 0.11777 0.0
H563 H 0.42513 0.97834 0.09666 0.0
H564 H 0.43618 0.98746 0.03402 0.0
H565 H 0.39088 0.03076 0.22315 0.0
H566 H 0.39225 0.01091 0.24228 0.0
H567 H 0.40648 0.02371 0.27045 0.0
H568 H 0.40584 0.96002 0.27123 0.0
H569 H 0.4445 0.98595 0.32946 0.0
H570 H 0.39882 0.97472 0.12943 0.0
H571 H 0.38878 0.98948 0.17031 0.0
H572 H 0.38726 0.97027 0.19908 0.0
H573 H 0.44682 0.00935 0.20096 0.0
H574 H 0.44959 0.00997 0.28819 0.0
H575 H 0.43424 0.02015 0.25089 0.0
C576 C 0.72093 0.84238 0.4155 0.0
C577 C 0.72269 0.83057 0.37046 0.0
C578 C 0.73253 0.84595 0.45996 0.0
C579 C 0.7461 0.83751 0.4589 0.0
C580 C 0.74848 0.8268 0.4085 0.0
C581 C 0.73673 0.82344 0.36506 0.0
C582 C 0.72968 0.85772 0.51177 0.0
C583 C 0.76286 0.81769 0.40454 0.0
C584 C 0.7815 0.84246 0.56099 0.0
C585 C 0.7797 0.83061 0.60572 0.0
C586 C 0.76998 0.84598 0.51602 0.0
C587 C 0.75647 0.83744 0.51628 0.0
C588 C 0.75406 0.82662 0.56616 0.0
C589 C 0.76572 0.82333 0.61008 0.0
C590 C 0.77287 0.85785 0.46474 0.0
C591 C 0.73974 0.8174 0.56923 0.0
H592 H 0.7101 0.84796 0.41973 0.0
H593 H 0.73821 0.81446 0.3296 0.0
H594 H 0.72592 0.85209 0.55738 0.0
H595 H 0.74011 0.86413 0.52318 0.0
H596 H 0.72074 0.86576 0.49644 0.0
H597 H 0.76369 0.81127 0.35801 0.0
H598 H 0.77286 0.82514 0.40887 0.0
H599 H 0.76324 0.80955 0.44574 0.0
H600 H 0.79229 0.84815 0.55753 0.0
H601 H 0.76422 0.8143 0.64528 0.0
H602 H 0.76241 0.86416 0.45297 0.0
H603 H 0.77682 0.85232 0.41917 0.0
H604 H 0.78169 0.86595 0.48081 0.0
H605 H 0.7297 0.8248 0.56539 0.0
H606 H 0.73891 0.81079 0.61523 0.0
H607 H 0.73943 0.80942 0.52738 0.0
C608 C 0.93953 0.01592 0.30877 0.0
C609 C 0.93043 0.02859 0.31973 0.0
C610 C 0.93551 0.00497 0.26247 0.0
C611 C 0.92212 0.00679 0.22541 0.0
C612 C 0.91241 0.0191 0.23893 0.0
C613 C 0.91666 0.02986 0.28628 0.0
C614 C 0.94608 0.99186 0.25078 0.0
C615 C 0.89803 0.02144 0.20075 0.0
C616 C 0.92785 0.98767 0.06245 0.0
C617 C 0.92223 0.9732 0.07554 0.0
C618 C 0.92642 0.99935 0.10845 0.0
C619 C 0.91928 0.99644 0.16912 0.0
C620 C 0.912 0.98242 0.17913 0.0
C621 C 0.91349 0.97097 0.13197 0.0
C622 C 0.934 0.01426 0.09491 0.0
C623 C 0.90408 0.97891 0.24259 0.0
H624 H 0.95012 0.01483 0.33489 0.0
H625 H 0.90963 0.03968 0.29429 0.0
H626 H 0.93981 0.98105 0.2528 0.0
H627 H 0.95111 0.9928 0.20125 0.0
H628 H 0.95539 0.99145 0.28718 0.0
H629 H 0.8904 0.02962 0.22526 0.0
H630 H 0.90083 0.02588 0.15152 0.0
H631 H 0.89193 0.01063 0.1938 0.0
H632 H 0.93445 0.98956 0.0186 0.0
H633 H 0.90901 0.95985 0.14248 0.0
H634 H 0.94462 0.01499 0.12361 0.0
H635 H 0.92669 0.02378 0.11023 0.0
H636 H 0.93682 0.01562 0.0423 0.0
H637 H 0.91261 0.9762 0.28054 0.0
H638 H 0.89638 0.96908 0.23755 0.0
H639 H 0.89751 0.98876 0.26011 0.0
C640 C 0.76926 0.18073 0.79854 0.0
C641 C 0.78356 0.17498 0.81403 0.0
C642 C 0.75695 0.1785 0.84054 0.0
C643 C 0.75903 0.17043 0.89966 0.0
C644 C 0.77295 0.1631 0.91152 0.0
C645 C 0.78506 0.16539 0.86829 0.0
C646 C 0.74218 0.18619 0.82502 0.0
C647 C 0.77561 0.15422 0.97338 0.0
C648 C 0.73747 0.18837 0.03915 0.0
C649 C 0.72478 0.17904 0.04415 0.0
C650 C 0.74907 0.18515 0.99482 0.0
C651 C 0.74788 0.17234 0.95362 0.0
C652 C 0.7355 0.16238 0.96098 0.0
C653 C 0.72409 0.16582 0.00653 0.0
C654 C 0.7622 0.19596 0.98972 0.0
C655 C 0.73381 0.14862 0.91815 0.0
H656 H 0.76795 0.18798 0.75624 0.0
H657 H 0.79604 0.16081 0.88055 0.0
H658 H 0.73254 0.1786 0.83554 0.0
H659 H 0.74095 0.19634 0.85637 0.0
H660 H 0.74156 0.18978 0.77304 0.0
H661 H 0.78558 0.1467 0.96899 0.0
H662 H 0.77764 0.16215 0.01447 0.0
H663 H 0.7656 0.14731 0.986 0.0
H664 H 0.73811 0.19854 0.06853 0.0
H665 H 0.71423 0.15862 0.00994 0.0
H666 H 0.76191 0.20172 0.94156 0.0
H667 H 0.77303 0.18973 0.99291 0.0
H668 H 0.76202 0.20469 0.02871 0.0
H669 H 0.73004 0.15216 0.86872 0.0
H670 H 0.72537 0.14059 0.9381 0.0
H671 H 0.74475 0.14269 0.91241 0.0
C672 C 0.58831 0.96993 0.86264 0.0
C673 C 0.57856 0.97132 0.91638 0.0
C674 C 0.59032 0.98194 0.81864 0.0
C675 C 0.58248 0.99564 0.82911 0.0
C676 C 0.57424 0.99769 0.88778 0.0
C677 C 0.57233 0.98548 0.93064 0.0
C678 C 0.59944 0.97935 0.7574 0.0
C679 C 0.56601 0.01224 0.90183 0.0
C680 C 0.58581 0.03033 0.71986 0.0
C681 C 0.57267 0.02896 0.68202 0.0
C682 C 0.58969 0.01922 0.76615 0.0
C683 C 0.58024 0.00646 0.77414 0.0
C684 C 0.56755 0.00458 0.73267 0.0
C685 C 0.5639 0.01588 0.6875 0.0
C686 C 0.60332 0.02162 0.80911 0.0
C687 C 0.55729 0.99103 0.73846 0.0
H688 H 0.59328 0.95906 0.85138 0.0
H689 H 0.56496 0.98672 0.97256 0.0
H690 H 0.59168 0.97683 0.71617 0.0
H691 H 0.60599 0.98956 0.74419 0.0
H692 H 0.60732 0.9697 0.763 0.0
H693 H 0.56228 0.01295 0.95361 0.0
H694 H 0.57329 0.0221 0.89087 0.0
H695 H 0.55589 0.013 0.86998 0.0
H696 H 0.59258 0.04047 0.71606 0.0
H697 H 0.55381 0.0147 0.65793 0.0
H698 H 0.60961 0.01094 0.81636 0.0
H699 H 0.59959 0.0256 0.85795 0.0
H700 H 0.61109 0.0302 0.78831 0.0
H701 H 0.56395 0.98046 0.7362 0.0
H702 H 0.54861 0.99071 0.69926 0.0
H703 H 0.55145 0.99127 0.78646 0.0
C704 C 0.73895 0.67924 0.86126 0.0
C705 C 0.72513 0.67161 0.85645 0.0
C706 C 0.74856 0.67707 0.91509 0.0
C707 C 0.74435 0.66689 0.96528 0.0
C708 C 0.73113 0.6581 0.95765 0.0
C709 C 0.72163 0.66059 0.90343 0.0
C710 C 0.76261 0.68663 0.92074 0.0
C711 C 0.7264 0.64686 0.00906 0.0
C712 C 0.77555 0.66093 0.09059 0.0
C713 C 0.77226 0.67234 0.13618 0.0
C714 C 0.76595 0.65815 0.037 0.0
C715 C 0.75282 0.66704 0.02857 0.0
C716 C 0.74879 0.67761 0.07758 0.0
C717 C 0.75851 0.68006 0.13085 0.0
C718 C 0.77048 0.6465 0.98692 0.0
C719 C 0.73484 0.68728 0.07103 0.0
H720 H 0.74184 0.6877 0.82512 0.0
H721 H 0.71101 0.65458 0.90023 0.0
H722 H 0.76124 0.69485 0.96128 0.0
H723 H 0.77252 0.67949 0.93252 0.0
H724 H 0.76502 0.69297 0.87508 0.0
H725 H 0.71772 0.63891 0.99028 0.0
H726 H 0.73623 0.64029 0.02683 0.0
H727 H 0.72159 0.65296 0.05159 0.0
H728 H 0.78612 0.65483 0.09425 0.0
H729 H 0.75578 0.68882 0.16592 0.0
H730 H 0.77533 0.65225 0.94358 0.0
H731 H 0.76055 0.63993 0.97013 0.0
H732 H 0.77908 0.63858 0.00653 0.0
H733 H 0.73631 0.69526 0.02972 0.0
H734 H 0.73252 0.6939 0.11607 0.0
H735 H 0.72485 0.68019 0.05996 0.0
C736 C 0.57608 0.51507 0.4436 0.0
C737 C 0.58219 0.52941 0.43198 0.0
C738 C 0.57786 0.50336 0.398 0.0
C739 C 0.58585 0.5061 0.33921 0.0
C740 C 0.59355 0.51996 0.33105 0.0
C741 C 0.59169 0.53145 0.37779 0.0
C742 C 0.56979 0.48861 0.40958 0.0
C743 C 0.60236 0.5233 0.26965 0.0
C744 C 0.58943 0.47273 0.22228 0.0
C745 C 0.57619 0.47431 0.18527 0.0
C746 C 0.59321 0.48334 0.271 0.0
C747 C 0.58356 0.49582 0.28228 0.0
C748 C 0.57073 0.49793 0.24189 0.0
C749 C 0.56718 0.48712 0.19429 0.0
C750 C 0.60697 0.48068 0.31283 0.0
C751 C 0.56026 0.51121 0.25118 0.0
H752 H 0.56888 0.51333 0.48576 0.0
H753 H 0.59656 0.54246 0.36848 0.0
H754 H 0.55955 0.48813 0.3784 0.0
H755 H 0.57708 0.47894 0.39596 0.0
H756 H 0.56629 0.48731 0.46143 0.0
H757 H 0.61015 0.533 0.2765 0.0
H758 H 0.60899 0.51333 0.25391 0.0
H759 H 0.59439 0.52612 0.22959 0.0
H760 H 0.59639 0.46279 0.21578 0.0
H761 H 0.55699 0.48845 0.16545 0.0
H762 H 0.6034 0.47634 0.36129 0.0
H763 H 0.61322 0.49134 0.32128 0.0
H764 H 0.61473 0.47231 0.29039 0.0
H765 H 0.55458 0.51034 0.29937 0.0
H766 H 0.55145 0.51181 0.21256 0.0
H767 H 0.56674 0.52191 0.25086 0.0
C768 C 0.76643 0.31703 0.43626 0.0
C769 C 0.77921 0.32623 0.43143 0.0
C770 C 0.75489 0.3203 0.48077 0.0
C771 C 0.75623 0.33303 0.52235 0.0
C772 C 0.76872 0.34287 0.51524 0.0
C773 C 0.78007 0.33939 0.46946 0.0
C774 C 0.74163 0.30964 0.48559 0.0
C775 C 0.77059 0.35653 0.55854 0.0
C776 C 0.71908 0.34013 0.60725 0.0
C777 C 0.72043 0.33035 0.66092 0.0
C778 C 0.73127 0.34247 0.56451 0.0
C779 C 0.7451 0.33498 0.57631 0.0
C780 C 0.74705 0.32675 0.63507 0.0
C781 C 0.73466 0.32447 0.67656 0.0
C782 C 0.72876 0.35154 0.50304 0.0
C783 C 0.76174 0.31891 0.65057 0.0
H784 H 0.76567 0.30691 0.40656 0.0
H785 H 0.79 0.34648 0.46618 0.0
H786 H 0.74186 0.3038 0.53357 0.0
H787 H 0.73087 0.31599 0.4826 0.0
H788 H 0.74171 0.30096 0.44634 0.0
H789 H 0.77905 0.36454 0.53855 0.0
H790 H 0.75972 0.36253 0.56499 0.0
H791 H 0.77445 0.35286 0.60765 0.0
H792 H 0.70816 0.34483 0.59493 0.0
H793 H 0.73585 0.31707 0.71846 0.0
H794 H 0.72669 0.34373 0.46153 0.0
H795 H 0.73885 0.35839 0.49095 0.0
H796 H 0.71886 0.35915 0.50764 0.0
H797 H 0.7629 0.30879 0.61897 0.0
H798 H 0.76229 0.31524 0.70246 0.0
H799 H 0.77146 0.32643 0.64038 0.0
C800 C 0.92068 0.49393 0.90031 0.0
C801 C 0.9137 0.47973 0.89887 0.0
C802 C 0.91842 0.5044 0.84975 0.0
C803 C 0.90882 0.50066 0.79672 0.0
C804 C 0.90041 0.48709 0.79885 0.0
C805 C 0.90298 0.47675 0.84985 0.0
C806 C 0.9275 0.51882 0.85002 0.0
C807 C 0.88973 0.48285 0.74437 0.0
C808 C 0.90357 0.53266 0.67459 0.0
C809 C 0.91548 0.52985 0.63097 0.0
C810 C 0.90049 0.52271 0.72658 0.0
C811 C 0.9096 0.50974 0.73531 0.0
C812 C 0.92082 0.50628 0.68834 0.0
C813 C 0.92357 0.51632 0.63674 0.0
C814 C 0.88819 0.52666 0.77456 0.0
C815 C 0.93074 0.4925 0.69521 0.0
H816 H 0.92887 0.49643 0.93823 0.0
H817 H 0.89741 0.46587 0.84843 0.0
H818 H 0.93639 0.51815 0.81193 0.0
H819 H 0.92022 0.52861 0.83814 0.0
H820 H 0.93302 0.52089 0.898 0.0
H821 H 0.8818 0.47381 0.7596 0.0
H822 H 0.88314 0.49277 0.72784 0.0
H823 H 0.89631 0.47868 0.7019 0.0
H824 H 0.89723 0.54307 0.67055 0.0
H825 H 0.93271 0.51397 0.60304 0.0
H826 H 0.89332 0.5315 0.81942 0.0
H827 H 0.88178 0.51646 0.78916 0.0
H828 H 0.88021 0.53508 0.75403 0.0
H829 H 0.93798 0.4937 0.73924 0.0
H830 H 0.93814 0.4908 0.65201 0.0
H831 H 0.92375 0.48225 0.70194 0.0
C832 C 0.23839 0.31508 0.92105 0.0
C833 C 0.22477 0.32293 0.9147 0.0
C834 C 0.24926 0.31946 0.96696 0.0
C835 C 0.24642 0.33201 0.00812 0.0
C836 C 0.23319 0.34071 0.99856 0.0
C837 C 0.22247 0.33607 0.9517 0.0
C838 C 0.26331 0.30996 0.97446 0.0
C839 C 0.22981 0.35427 0.04066 0.0
C840 C 0.2657 0.32376 0.1677 0.0
C841 C 0.27991 0.33019 0.1568 0.0
C842 C 0.25389 0.32584 0.12298 0.0
C843 C 0.25643 0.33446 0.06575 0.0
C844 C 0.27011 0.34257 0.05902 0.0
C845 C 0.28174 0.34036 0.10491 0.0
C846 C 0.23936 0.31727 0.13312 0.0
C847 C 0.27313 0.3522 -0.00033 0.0
H848 H 0.2403 0.30503 0.8919 0.0
H849 H 0.21194 0.34218 0.94696 0.0
H850 H 0.27352 0.31719 0.97404 0.0
H851 H 0.26302 0.304 0.02217 0.0
H852 H 0.26441 0.30139 0.93504 0.0
H853 H 0.22147 0.36186 0.01695 0.0
H854 H 0.22501 0.35043 0.0879 0.0
H855 H 0.24021 0.36077 0.05156 0.0
H856 H 0.26417 0.31605 0.20834 0.0
H857 H 0.29269 0.34543 0.09635 0.0
H858 H 0.2391 0.30736 0.09986 0.0
H859 H 0.22949 0.32444 0.12124 0.0
H860 H 0.23821 0.31316 0.1842 0.0
H861 H 0.27655 0.34484 0.95834 0.0
H862 H 0.28235 0.36042 0.00888 0.0
H863 H 0.26284 0.35841 0.98452 0.0
C864 C 0.43015 0.48706 0.55949 0.0
C865 C 0.42426 0.47267 0.5718 0.0
C866 C 0.42848 0.49878 0.60517 0.0
C867 C 0.42083 0.49598 0.66476 0.0
C868 C 0.41335 0.48203 0.67381 0.0
C869 C 0.41508 0.47054 0.62697 0.0
C870 C 0.43632 0.51361 0.59266 0.0
C871 C 0.4049 0.47863 0.73609 0.0
C872 C 0.43992 0.51531 0.80789 0.0
C873 C 0.43077 0.528 0.81762 0.0
C874 C 0.43631 0.50444 0.76063 0.0
C875 C 0.42327 0.50635 0.72133 0.0
C876 C 0.41351 0.5187 0.7333 0.0
C877 C 0.41735 0.52938 0.78164 0.0
C878 C 0.44692 0.4913 0.75056 0.0
C879 C 0.39952 0.52115 0.69262 0.0
H880 H 0.4371 0.48887 0.5166 0.0
H881 H 0.4104 0.45948 0.63687 0.0
H882 H 0.429 0.52321 0.60686 0.0
H883 H 0.44672 0.51423 0.62287 0.0
H884 H 0.43955 0.51492 0.54048 0.0
H885 H 0.39721 0.46882 0.73014 0.0
H886 H 0.41311 0.47595 0.77541 0.0
H887 H 0.39822 0.48852 0.75233 0.0
H888 H 0.45024 0.51413 0.83591 0.0
H889 H 0.41028 0.53923 0.78867 0.0
H890 H 0.45235 0.49221 0.70184 0.0
H891 H 0.44059 0.48051 0.75161 0.0
H892 H 0.45592 0.49085 0.78837 0.0
H893 H 0.40281 0.52543 0.64369 0.0
H894 H 0.39178 0.52949 0.71544 0.0
H895 H 0.39334 0.51041 0.68513 0.0
C896 C 0.26936 0.67715 0.32155 0.0
C897 C 0.28339 0.67105 0.33889 0.0
C898 C 0.25673 0.67529 0.36205 0.0
C899 C 0.25822 0.66726 0.42157 0.0
C900 C 0.27185 0.65954 0.43517 0.0
C901 C 0.28428 0.66146 0.39338 0.0
C902 C 0.24229 0.68337 0.34463 0.0
C903 C 0.27387 0.65067 0.49751 0.0
C904 C 0.2365 0.68626 0.55787 0.0
C905 C 0.22348 0.67737 0.56192 0.0
C906 C 0.24824 0.68253 0.51501 0.0
C907 C 0.24686 0.66965 0.47429 0.0
C908 C 0.23411 0.66013 0.48076 0.0
C909 C 0.22256 0.66407 0.52488 0.0
C910 C 0.26176 0.69287 0.51087 0.0
C911 C 0.23219 0.64632 0.43839 0.0
H912 H 0.26853 0.68441 0.27903 0.0
H913 H 0.29506 0.65661 0.40706 0.0
H914 H 0.23237 0.67609 0.35438 0.0
H915 H 0.24118 0.69363 0.37543 0.0
H916 H 0.24207 0.68686 0.29246 0.0
H917 H 0.28361 0.64281 0.4943 0.0
H918 H 0.27595 0.6586 0.53858 0.0
H919 H 0.26357 0.64411 0.50928 0.0
H920 H 0.23732 0.69648 0.58684 0.0
H921 H 0.21245 0.65722 0.52757 0.0
H922 H 0.26193 0.69853 0.46248 0.0
H923 H 0.27235 0.68629 0.51546 0.0
H924 H 0.26166 0.7017 0.54948 0.0
H925 H 0.22871 0.64985 0.38857 0.0
H926 H 0.22345 0.63859 0.45808 0.0
H927 H 0.24297 0.64007 0.43368 0.0
C928 C 0.08385 0.47119 0.28673 0.0
C929 C 0.07123 0.47278 0.32747 0.0
C930 C 0.08782 0.48271 0.24248 0.0
C931 C 0.07897 0.496 0.2395 0.0
C932 C 0.06707 0.4981 0.28484 0.0
C933 C 0.06334 0.48645 0.32795 0.0
C934 C 0.10074 0.48011 0.19588 0.0
C935 C 0.05745 0.51218 0.28446 0.0
C936 C 0.0852 0.53268 0.14989 0.0
C937 C 0.07417 0.53136 0.10095 0.0
C938 C 0.08836 0.52049 0.19178 0.0
C939 C 0.08033 0.50679 0.18401 0.0
C940 C 0.07075 0.50487 0.12914 0.0
C941 C 0.06774 0.51721 0.08844 0.0
C942 C 0.09899 0.52286 0.2485 0.0
C943 C 0.06221 0.49036 0.11789 0.0
H944 H 0.08999 0.46062 0.28627 0.0
H945 H 0.05371 0.48778 0.36012 0.0
H946 H 0.09624 0.47582 0.14874 0.0
H947 H 0.10691 0.49074 0.18576 0.0
H948 H 0.10879 0.47163 0.21535 0.0
H949 H 0.0496 0.51263 0.32671 0.0
H950 H 0.06466 0.5224 0.28558 0.0
H951 H 0.05069 0.51257 0.23878 0.0
H952 H 0.09028 0.54358 0.15957 0.0
H953 H 0.05939 0.51609 0.04991 0.0
H954 H 0.10551 0.51247 0.25907 0.0
H955 H 0.09237 0.5257 0.29287 0.0
H956 H 0.10697 0.53227 0.23892 0.0
H957 H 0.06973 0.48048 0.12444 0.0
H958 H 0.05717 0.48986 0.06816 0.0
H959 H 0.05298 0.48943 0.1543 0.0
C960 C 0.10954 0.09891 0.06712 0.0
C961 C 0.1028 0.1076 0.01765 0.0
C962 C 0.11989 0.10534 0.1113 0.0
C963 C 0.12369 0.12079 0.10558 0.0
C964 C 0.11761 0.12937 0.05335 0.0
C965 C 0.10721 0.1227 0.01023 0.0
C966 C 0.12608 0.0958 0.16622 0.0
C967 C 0.12154 0.14583 0.04484 0.0
C968 C 0.13458 0.14479 0.25218 0.0
C969 C 0.15011 0.14676 0.24245 0.0
C970 C 0.126 0.13565 0.2101 0.0
C971 C 0.13308 0.12837 0.15658 0.0
C972 C 0.14892 0.12951 0.14907 0.0
C973 C 0.15726 0.13863 0.19228 0.0
C974 C 0.10918 0.13453 0.22064 0.0
C975 C 0.15692 0.12192 0.09283 0.0
H976 H 0.10618 0.08725 0.07347 0.0
H977 H 0.10211 0.12949 0.9721 0.0
H978 H 0.1385 0.09712 0.16989 0.0
H979 H 0.1212 0.09962 0.21334 0.0
H980 H 0.12341 0.08364 0.15968 0.0
H981 H 0.11685 0.15058 -0.00116 0.0
H982 H 0.11701 0.15241 0.08663 0.0
H983 H 0.13396 0.14735 0.04462 0.0
H984 H 0.12897 0.15097 0.29092 0.0
H985 H 0.16925 0.1401 0.18414 0.0
H986 H 0.10551 0.12257 0.21931 0.0
H987 H 0.1032 0.1405 0.1806 0.0
H988 H 0.10564 0.13955 0.268 0.0
H989 H 0.15331 0.10999 0.08823 0.0
H990 H 0.16938 0.12228 0.09854 0.0
H991 H 0.15389 0.12769 0.0465 0.0
C992 C 0.12793 0.85546 0.21933 0.0
C993 C 0.14208 0.84992 0.23824 0.0
C994 C 0.11999 0.86564 0.25919 0.0
C995 C 0.1262 0.87009 0.32014 0.0
C996 C 0.14089 0.86526 0.33751 0.0
C997 C 0.14872 0.85537 0.29597 0.0
C998 C 0.10454 0.87087 0.23795 0.0
C999 C 0.14785 0.86953 0.40237 0.0
C1000 C 0.10652 0.90132 0.41592 0.0
C1001 C 0.09636 0.89296 0.45392 0.0
C1002 C 0.11653 0.89407 0.37269 0.0
C1003 C 0.11659 0.87811 0.3688 0.0
C1004 C 0.10688 0.86965 0.40977 0.0
C1005 C 0.09675 0.87718 0.45107 0.0
C1006 C 0.12648 0.90349 0.32896 0.0
C1007 C 0.10685 0.85261 0.40859 0.0
H1008 H 0.12277 0.85136 0.17459 0.0
H1009 H 0.15963 0.85108 0.31115 0.0
H1010 H 0.09582 0.86523 0.26817 0.0
H1011 H 0.10335 0.88321 0.24544 0.0
H1012 H 0.10228 0.86823 0.18572 0.0
H1013 H 0.16001 0.86654 0.40484 0.0
H1014 H 0.14662 0.88179 0.41168 0.0
H1015 H 0.14187 0.86351 0.44224 0.0
H1016 H 0.10611 0.91353 0.41746 0.0
H1017 H 0.08893 0.8707 0.4806 0.0
H1018 H 0.12281 0.90212 0.27738 0.0
H1019 H 0.13835 0.89962 0.33195 0.0
H1020 H 0.12603 0.91566 0.34172 0.0
H1021 H 0.10278 0.84856 0.36034 0.0
H1022 H 0.09952 0.84774 0.44721 0.0
H1023 H 0.11848 0.84825 0.41535 0.0
C1024 C 0.39509 0.89816 0.56327 0.0
C1025 C 0.40315 0.88978 0.51684 0.0
C1026 C 0.38519 0.89099 0.60709 0.0
C1027 C 0.38304 0.87518 0.60282 0.0
C1028 C 0.39028 0.86693 0.55241 0.0
C1029 C 0.40046 0.87429 0.51085 0.0
C1030 C 0.37798 0.90014 0.6609 0.0
C1031 C 0.38794 0.85015 0.5447 0.0
C1032 C 0.37583 0.85008 0.74911 0.0
C1033 C 0.3605 0.84674 0.74188 0.0
C1034 C 0.38302 0.86029 0.70707 0.0
C1035 C 0.37477 0.86687 0.65496 0.0
C1036 C 0.35909 0.86404 0.64929 0.0
C1037 C 0.35207 0.85414 0.69359 0.0
C1038 C 0.39964 0.86336 0.71625 0.0
C1039 C 0.34997 0.87053 0.59366 0.0
H1040 H 0.39733 0.91013 0.56837 0.0
H1041 H 0.40668 0.86784 0.47474 0.0
H1042 H 0.36587 0.89725 0.66604 0.0
H1043 H 0.38356 0.89744 0.70809 0.0
H1044 H 0.37903 0.91246 0.65212 0.0
H1045 H 0.39269 0.84584 0.49802 0.0
H1046 H 0.39351 0.84413 0.5857 0.0
H1047 H 0.37575 0.84736 0.54641 0.0
H1048 H 0.38232 0.84437 0.78664 0.0
H1049 H 0.34024 0.85139 0.68755 0.0
H1050 H 0.40194 0.87564 0.71347 0.0
H1051 H 0.40611 0.85782 0.67652 0.0
H1052 H 0.40388 0.85906 0.76387 0.0
H1053 H 0.35239 0.88271 0.58735 0.0
H1054 H 0.33766 0.86902 0.60124 0.0
H1055 H 0.35318 0.86478 0.54747 0.0
C1056 C 0.34583 0.14102 0.83216 0.0
C1057 C 0.35398 0.14935 0.78575 0.0
C1058 C 0.35324 0.1312 0.87566 0.0
C1059 C 0.36911 0.12955 0.87194 0.0
C1060 C 0.37721 0.13721 0.82238 0.0
C1061 C 0.36957 0.14709 0.78028 0.0
C1062 C 0.3442 0.12329 0.9279 0.0
C1063 C 0.3941 0.13555 0.81577 0.0
C1064 C 0.39413 0.12085 0.01757 0.0
C1065 C 0.39842 0.10593 0.00459 0.0
C1066 C 0.38369 0.12834 0.97733 0.0
C1067 C 0.37754 0.12079 0.92232 0.0
C1068 C 0.38101 0.10539 0.91174 0.0
C1069 C 0.39135 0.09812 0.95325 0.0
C1070 C 0.38007 0.14467 0.99116 0.0
C1071 C 0.37473 0.09692 0.85371 0.0
H1072 H 0.33379 0.1428 0.83696 0.0
H1073 H 0.37591 0.15343 0.74428 0.0
H1074 H 0.34729 0.11118 0.9305 0.0
H1075 H 0.34682 0.12836 0.97623 0.0
H1076 H 0.33186 0.12421 0.91923 0.0
H1077 H 0.39852 0.14126 0.77139 0.0
H1078 H 0.39974 0.14049 0.85929 0.0
H1079 H 0.39725 0.12345 0.8136 0.0
H1080 H 0.39945 0.12694 0.05739 0.0
H1081 H 0.39459 0.08658 0.94276 0.0
H1082 H 0.36772 0.1466 0.98874 0.0
H1083 H 0.38539 0.1519 0.95339 0.0
H1084 H 0.38422 0.14833 0.03996 0.0
H1085 H 0.36245 0.09901 0.84839 0.0
H1086 H 0.37665 0.08457 0.85775 0.0
H1087 H 0.38028 0.101 0.80842 0.0
C1088 C 0.89763 0.90183 0.93824 0.0
C1089 C 0.90354 0.89531 0.99532 0.0
C1090 C 0.88828 0.89353 0.89588 0.0
C1091 C 0.88453 0.87845 0.91163 0.0
C1092 C 0.88946 0.87225 0.97186 0.0
C1093 C 0.89904 0.8807 0.01264 0.0
C1094 C 0.88343 0.90053 0.83193 0.0
C1095 C 0.88539 0.85634 0.99138 0.0
C1096 C 0.85433 0.85693 0.81701 0.0
C1097 C 0.86318 0.84745 0.77768 0.0
C1098 C 0.86106 0.86738 0.85989 0.0
C1099 C 0.87698 0.86857 0.86234 0.0
C1100 C 0.88589 0.85963 0.81984 0.0
C1101 C 0.87889 0.84906 0.77868 0.0
C1102 C 0.85117 0.87653 0.90503 0.0
C1103 C 0.90289 0.8608 0.81959 0.0
H1104 H 0.90112 0.9131 0.92424 0.0
H1105 H 0.9035 0.87561 0.05681 0.0
H1106 H 0.88976 0.89519 0.79123 0.0
H1107 H 0.87126 0.89849 0.82284 0.0
H1108 H 0.88557 0.91287 0.83074 0.0
H1109 H 0.8884 0.85391 0.04307 0.0
H1110 H 0.87313 0.85435 0.98463 0.0
H1111 H 0.89146 0.84823 0.95954 0.0
H1112 H 0.84217 0.8556 0.81695 0.0
H1113 H 0.88577 0.84179 0.7482 0.0
H1114 H 0.8543 0.88863 0.90306 0.0
H1115 H 0.8529 0.8727 0.95615 0.0
H1116 H 0.83902 0.87539 0.89276 0.0
H1117 H 0.90641 0.87274 0.81379 0.0
H1118 H 0.90808 0.85404 0.77977 0.0
H1119 H 0.90744 0.85678 0.86704 0.0
C1120 C 0.85516 0.14953 0.69477 0.0
C1121 C 0.86141 0.15547 0.7524 0.0
C1122 C 0.86335 0.13945 0.6554 0.0
C1123 C 0.878 0.13495 0.67492 0.0
C1124 C 0.8838 0.1399 0.73591 0.0
C1125 C 0.87551 0.15025 0.77354 0.0
C1126 C 0.85682 0.13465 0.59041 0.0
C1127 C 0.89919 0.13504 0.75944 0.0
C1128 C 0.89871 0.10357 0.58427 0.0
C1129 C 0.90887 0.1119 0.54621 0.0
C1130 C 0.88839 0.11086 0.62596 0.0
C1131 C 0.88803 0.12683 0.62818 0.0
C1132 C 0.89779 0.13525 0.58728 0.0
C1133 C 0.90822 0.12768 0.54757 0.0
C1134 C 0.87839 0.10151 0.66973 0.0
C1135 C 0.89752 0.15229 0.58674 0.0
H1136 H 0.84429 0.15356 0.6779 0.0
H1137 H 0.88036 0.15471 0.81825 0.0
H1138 H 0.8629 0.14052 0.55044 0.0
H1139 H 0.85831 0.12236 0.58271 0.0
H1140 H 0.84463 0.13739 0.58638 0.0
H1141 H 0.9011 0.13801 0.81161 0.0
H1142 H 0.90063 0.12268 0.7534 0.0
H1143 H 0.90801 0.14065 0.72962 0.0
H1144 H 0.89931 0.09135 0.58384 0.0
H1145 H 0.91603 0.13415 0.51794 0.0
H1146 H 0.86646 0.10511 0.66502 0.0
H1147 H 0.88173 0.10327 0.7215 0.0
H1148 H 0.87916 0.08927 0.65845 0.0
H1149 H 0.88587 0.15641 0.5782 0.0
H1150 H 0.905 0.15709 0.54848 0.0
H1151 H 0.90123 0.15666 0.635 0.0
C1152 C 0.604 0.10278 0.42679 0.0
C1153 C 0.59588 0.111 0.47355 0.0
C1154 C 0.61423 0.11005 0.38471 0.0
C1155 C 0.61667 0.12578 0.39119 0.0
C1156 C 0.60932 0.13384 0.44185 0.0
C1157 C 0.59878 0.1264 0.48154 0.0
C1158 C 0.62152 0.10112 0.3304 0.0
C1159 C 0.61195 0.15051 0.45196 0.0
C1160 C 0.64883 0.14639 0.30639 0.0
C1161 C 0.64097 0.1543 0.25785 0.0
C1162 C 0.64122 0.13653 0.34897 0.0
C1163 C 0.6255 0.13424 0.34121 0.0
C1164 C 0.61779 0.14137 0.28894 0.0
C1165 C 0.62556 0.15155 0.24874 0.0
C1166 C 0.64977 0.12947 0.40498 0.0
C1167 C 0.60114 0.13888 0.27748 0.0
H1168 H 0.60159 0.09089 0.4201 0.0
H1169 H 0.59251 0.13273 0.51788 0.0
H1170 H 0.61637 0.10439 0.28299 0.0
H1171 H 0.63375 0.10367 0.32727 0.0
H1172 H 0.62004 0.08878 0.33706 0.0
H1173 H 0.60701 0.15461 0.49862 0.0
H1174 H 0.62421 0.15304 0.45196 0.0
H1175 H 0.60677 0.15692 0.41114 0.0
H1176 H 0.66072 0.14869 0.31392 0.0
H1177 H 0.61951 0.15766 0.21103 0.0
H1178 H 0.64707 0.1173 0.40921 0.0
H1179 H 0.6463 0.13493 0.45145 0.0
H1180 H 0.66217 0.13078 0.39944 0.0
H1181 H 0.59847 0.12665 0.27847 0.0
H1182 H 0.59734 0.14361 0.22995 0.0
H1183 H 0.59459 0.14435 0.31714 0.0
C1184 C 0.60367 0.87917 0.97286 0.0
C1185 C 0.59897 0.89386 0.98793 0.0
C1186 C 0.6134 0.87123 0.01477 0.0
C1187 C 0.61834 0.87806 0.07374 0.0
C1188 C 0.61447 0.89325 0.08692 0.0
C1189 C 0.60493 0.90101 0.04356 0.0
C1190 C 0.61756 0.85518 0.99804 0.0
C1191 C 0.6194 0.90093 0.14932 0.0
C1192 C 0.62397 0.84986 0.21101 0.0
C1193 C 0.63967 0.84804 0.21138 0.0
C1194 C 0.61699 0.86018 0.16874 0.0
C1195 C 0.62591 0.8687 0.12469 0.0
C1196 C 0.64182 0.86741 0.12685 0.0
C1197 C 0.64854 0.85717 0.17066 0.0
C1198 C 0.6 0.86145 0.1692 0.0
C1199 C 0.65171 0.87617 0.08034 0.0
H1200 H 0.5992 0.8736 0.92977 0.0
H1201 H 0.60132 0.91235 0.05577 0.0
H1202 H 0.62984 0.85334 0.00485 0.0
H1203 H 0.61157 0.84735 0.03147 0.0
H1204 H 0.6145 0.85221 0.94691 0.0
H1205 H 0.61734 0.91328 0.14794 0.0
H1206 H 0.61304 0.89611 0.19109 0.0
H1207 H 0.63155 0.89893 0.15876 0.0
H1208 H 0.61708 0.84287 0.2426 0.0
H1209 H 0.66068 0.85571 0.17029 0.0
H1210 H 0.59537 0.85701 0.12256 0.0
H1211 H 0.59656 0.87345 0.1731 0.0
H1212 H 0.59483 0.85508 0.21024 0.0
H1213 H 0.65012 0.87177 0.02997 0.0
H1214 H 0.66385 0.87527 0.09325 0.0
H1215 H 0.64847 0.88825 0.07983 0.0
C1216 C 0.60678 0.62134 0.49937 0.0
C1217 C 0.60286 0.60623 0.51036 0.0
C1218 C 0.61709 0.62881 0.54036 0.0
C1219 C 0.62354 0.62104 0.59408 0.0
C1220 C 0.62037 0.60552 0.60293 0.0
C1221 C 0.61012 0.59828 0.56078 0.0
C1222 C 0.62036 0.6453 0.52844 0.0
C1223 C 0.62701 0.59681 0.65947 0.0
C1224 C 0.65578 0.64127 0.68064 0.0
C1225 C 0.64799 0.64938 0.72896 0.0
C1226 C 0.64812 0.63145 0.63795 0.0
C1227 C 0.63232 0.62959 0.64423 0.0
C1228 C 0.6246 0.63694 0.69583 0.0
C1229 C 0.63251 0.6468 0.73729 0.0
C1230 C 0.65677 0.62383 0.58365 0.0
C1231 C 0.6078 0.63507 0.70509 0.0
H1232 H 0.60129 0.62755 0.46037 0.0
H1233 H 0.60717 0.58661 0.5698 0.0
H1234 H 0.61531 0.65216 0.5682 0.0
H1235 H 0.6327 0.64737 0.52904 0.0
H1236 H 0.61572 0.64927 0.48098 0.0
H1237 H 0.62509 0.58448 0.65458 0.0
H1238 H 0.63931 0.59892 0.66353 0.0
H1239 H 0.62175 0.60069 0.70576 0.0
H1240 H 0.66774 0.64325 0.67358 0.0
H1241 H 0.62641 0.65297 0.77468 0.0
H1242 H 0.65371 0.62908 0.5362 0.0
H1243 H 0.65375 0.6117 0.58051 0.0
H1244 H 0.66916 0.62483 0.59044 0.0
H1245 H 0.60174 0.64024 0.66323 0.0
H1246 H 0.60375 0.64044 0.75093 0.0
H1247 H 0.60478 0.62293 0.70614 0.0
C1248 C 0.60777 0.40006 0.91197 0.0
C1249 C 0.59774 0.39147 0.94968 0.0
C1250 C 0.61771 0.39306 0.86767 0.0
C1251 C 0.61782 0.37712 0.86237 0.0
C1252 C 0.60824 0.36843 0.90299 0.0
C1253 C 0.59818 0.37572 0.94539 0.0
C1254 C 0.62751 0.40273 0.82436 0.0
C1255 C 0.60829 0.3514 0.9003 0.0
C1256 C 0.62899 0.3552 0.71058 0.0
C1257 C 0.64321 0.34966 0.7285 0.0
C1258 C 0.62109 0.36517 0.75157 0.0
C1259 C 0.62739 0.36937 0.81267 0.0
C1260 C 0.64213 0.36455 0.82909 0.0
C1261 C 0.64994 0.35489 0.78644 0.0
C1262 C 0.60557 0.37041 0.73132 0.0
C1263 C 0.64919 0.36856 0.89406 0.0
H1264 H 0.60731 0.41226 0.91461 0.0
H1265 H 0.59046 0.36906 0.97468 0.0
H1266 H 0.63942 0.39891 0.82662 0.0
H1267 H 0.62376 0.40156 0.77281 0.0
H1268 H 0.62702 0.41484 0.83814 0.0
H1269 H 0.60105 0.34631 0.93875 0.0
H1270 H 0.60414 0.34756 0.85186 0.0
H1271 H 0.61995 0.34706 0.90627 0.0
H1272 H 0.62377 0.35127 0.66571 0.0
H1273 H 0.66089 0.35059 0.80088 0.0
H1274 H 0.60432 0.3827 0.73996 0.0
H1275 H 0.59693 0.36458 0.76134 0.0
H1276 H 0.60322 0.368 0.67895 0.0
H1277 H 0.64791 0.38076 0.90447 0.0
H1278 H 0.66137 0.36563 0.89584 0.0
H1279 H 0.64332 0.36232 0.93361 0.0
C1280 C 0.84872 0.3612 0.1732 0.0
C1281 C 0.85856 0.35213 0.20979 0.0
C1282 C 0.85435 0.37205 0.12926 0.0
C1283 C 0.87014 0.37406 0.12313 0.0
C1284 C 0.88004 0.36546 0.16279 0.0
C1285 C 0.87413 0.35447 0.2049 0.0
C1286 C 0.84344 0.38077 0.08704 0.0
C1287 C 0.89694 0.36751 0.15921 0.0
C1288 C 0.89034 0.38764 0.97094 0.0
C1289 C 0.89451 0.40229 0.98925 0.0
C1290 C 0.88125 0.37873 0.01182 0.0
C1291 C 0.87655 0.38449 0.07319 0.0
C1292 C 0.87983 0.39965 0.08973 0.0
C1293 C 0.88863 0.40843 0.04718 0.0
C1294 C 0.87762 0.36277 0.99138 0.0
C1295 C 0.87522 0.4062 0.1549 0.0
H1296 H 0.83667 0.35928 0.17632 0.0
H1297 H 0.88175 0.3475 0.23332 0.0
H1298 H 0.84599 0.39301 0.08887 0.0
H1299 H 0.84467 0.37712 0.03539 0.0
H1300 H 0.83153 0.379 0.10214 0.0
H1301 H 0.90297 0.36087 0.19716 0.0
H1302 H 0.90106 0.36389 0.11044 0.0
H1303 H 0.89991 0.37958 0.16527 0.0
H1304 H 0.89477 0.38286 0.92607 0.0
H1305 H 0.89188 0.41972 0.06192 0.0
H1306 H 0.86558 0.36017 0.00082 0.0
H1307 H 0.88449 0.35477 0.02064 0.0
H1308 H 0.88004 0.36078 0.93876 0.0
H1309 H 0.86331 0.40342 0.16616 0.0
H1310 H 0.87663 0.41864 0.15637 0.0
H1311 H 0.8823 0.40118 0.19405 0.0
C1312 C 0.83969 0.64174 0.30361 0.0
C1313 C 0.84761 0.64908 0.25341 0.0
C1314 C 0.84708 0.63184 0.34675 0.0
C1315 C 0.8627 0.62908 0.33894 0.0
C1316 C 0.87044 0.63549 0.28506 0.0
C1317 C 0.86282 0.64548 0.24324 0.0
C1318 C 0.83842 0.62528 0.4035 0.0
C1319 C 0.88703 0.6326 0.27409 0.0
C1320 C 0.88852 0.62237 0.48405 0.0
C1321 C 0.89165 0.60692 0.47841 0.0
C1322 C 0.87842 0.62951 0.44122 0.0
C1323 C 0.87142 0.62105 0.39076 0.0
C1324 C 0.87388 0.60529 0.38707 0.0
C1325 C 0.8839 0.59838 0.43128 0.0
C1326 C 0.87589 0.64629 0.44783 0.0
C1327 C 0.8667 0.59589 0.33393 0.0
H1328 H 0.82793 0.64449 0.31201 0.0
H1329 H 0.869 0.65102 0.20433 0.0
H1330 H 0.84104 0.61313 0.40963 0.0
H1331 H 0.84183 0.6311 0.44926 0.0
H1332 H 0.82604 0.6266 0.39728 0.0
H1333 H 0.89093 0.63691 0.22598 0.0
H1334 H 0.89368 0.63823 0.31311 0.0
H1335 H 0.88948 0.62035 0.2768 0.0
H1336 H 0.8944 0.62901 0.52059 0.0
H1337 H 0.88634 0.58646 0.42634 0.0
H1338 H 0.86364 0.64885 0.44794 0.0
H1339 H 0.88093 0.65219 0.4053 0.0
H1340 H 0.88099 0.65093 0.49324 0.0
H1341 H 0.8545 0.59849 0.32954 0.0
H1342 H 0.86806 0.58361 0.343 0.0
H1343 H 0.87202 0.59864 0.28631 0.0
C1344 C 0.39795 0.40167 0.44086 0.0
C1345 C 0.40477 0.39466 0.49489 0.0
C1346 C 0.38822 0.39362 0.39914 0.0
C1347 C 0.38509 0.37827 0.41228 0.0
C1348 C 0.39101 0.3715 0.4696 0.0
C1349 C 0.40086 0.37974 0.50994 0.0
C1350 C 0.38221 0.40126 0.33851 0.0
C1351 C 0.38771 0.35524 0.48621 0.0
C1352 C 0.35417 0.35652 0.3233 0.0
C1353 C 0.36266 0.3478 0.27939 0.0
C1354 C 0.36121 0.36692 0.36549 0.0
C1355 C 0.37707 0.36877 0.36297 0.0
C1356 C 0.38554 0.36067 0.31585 0.0
C1357 C 0.37826 0.35022 0.27505 0.0
C1358 C 0.3518 0.37525 0.41522 0.0
C1359 C 0.40243 0.36252 0.31054 0.0
H1360 H 0.40094 0.41319 0.42865 0.0
H1361 H 0.40601 0.37427 0.55177 0.0
H1362 H 0.38809 0.39668 0.29488 0.0
H1363 H 0.37 0.39892 0.33229 0.0
H1364 H 0.38395 0.41366 0.33985 0.0
H1365 H 0.39167 0.35221 0.53606 0.0
H1366 H 0.37542 0.35298 0.48293 0.0
H1367 H 0.39341 0.34776 0.45042 0.0
H1368 H 0.34213 0.35463 0.32729 0.0
H1369 H 0.38487 0.34357 0.24103 0.0
H1370 H 0.35459 0.38745 0.41515 0.0
H1371 H 0.35436 0.37088 0.46484 0.0
H1372 H 0.33951 0.37391 0.40601 0.0
H1373 H 0.40541 0.37464 0.30633 0.0
H1374 H 0.40716 0.35642 0.26774 0.0
H1375 H 0.40791 0.35815 0.35549 0.0
C1376 C 0.39808 0.60184 0.08635 0.0
C1377 C 0.40823 0.61056 0.04987 0.0
C1378 C 0.3879 0.60867 0.13008 0.0
C1379 C 0.38766 0.62459 0.13611 0.0
C1380 C 0.39736 0.63344 0.09663 0.0
C1381 C 0.40765 0.62631 0.05473 0.0
C1382 C 0.37795 0.59884 0.17211 0.0
C1383 C 0.39721 0.65046 0.10013 0.0
C1384 C 0.35522 0.64644 0.21182 0.0
C1385 C 0.36174 0.65144 0.27056 0.0
C1386 C 0.3632 0.63699 0.16885 0.0
C1387 C 0.37792 0.63216 0.18572 0.0
C1388 C 0.38402 0.63615 0.24746 0.0
C1389 C 0.37594 0.6459 0.2888 0.0
C1390 C 0.35635 0.6332 0.10322 0.0
C1391 C 0.39951 0.63091 0.26816 0.0
H1392 H 0.39863 0.58964 0.08324 0.0
H1393 H 0.41545 0.63308 0.02637 0.0
H1394 H 0.38151 0.59986 0.22398 0.0
H1395 H 0.36605 0.60263 0.16922 0.0
H1396 H 0.37854 0.58678 0.15766 0.0
H1397 H 0.40454 0.65569 0.06237 0.0
H1398 H 0.38555 0.65476 0.09369 0.0
H1399 H 0.40119 0.6542 0.149 0.0
H1400 H 0.34429 0.65075 0.19714 0.0
H1401 H 0.381 0.64965 0.33427 0.0
H1402 H 0.35772 0.62104 0.09201 0.0
H1403 H 0.36231 0.63961 0.06445 0.0
H1404 H 0.34417 0.63609 0.10097 0.0
H1405 H 0.40082 0.61865 0.25896 0.0
H1406 H 0.40172 0.63318 0.32075 0.0
H1407 H 0.4082 0.63685 0.23883 0.0
C1408 C 0.14657 0.64606 0.81685 0.0
C1409 C 0.1386 0.65523 0.77295 0.0
C1410 C 0.13889 0.63625 0.85945 0.0
C1411 C 0.12294 0.63536 0.85659 0.0
C1412 C 0.115 0.64387 0.8091 0.0
C1413 C 0.1229 0.65387 0.76865 0.0
C1414 C 0.14774 0.62762 0.91019 0.0
C1415 C 0.09804 0.64294 0.80298 0.0
C1416 C 0.09984 0.6043 0.93624 0.0
C1417 C 0.09305 0.61221 0.98781 0.0
C1418 C 0.1103 0.61142 0.89478 0.0
C1419 C 0.11429 0.62666 0.90638 0.0
C1420 C 0.10842 0.63423 0.96185 0.0
C1421 C 0.09769 0.62699 0.00129 0.0
C1422 C 0.11607 0.60302 0.83565 0.0
C1423 C 0.11272 0.65033 0.9772 0.0
H1424 H 0.15871 0.64724 0.82071 0.0
H1425 H 0.11675 0.66093 0.73449 0.0
H1426 H 0.14552 0.63252 0.95921 0.0
H1427 H 0.14413 0.61565 0.91167 0.0
H1428 H 0.16008 0.62806 0.90087 0.0
H1429 H 0.09379 0.64894 0.75899 0.0
H1430 H 0.09436 0.63099 0.80038 0.0
H1431 H 0.09271 0.64802 0.84684 0.0
H1432 H 0.09617 0.59291 0.92531 0.0
H1433 H 0.09251 0.6331 0.04137 0.0
H1434 H 0.12839 0.60469 0.82975 0.0
H1435 H 0.11051 0.60753 0.79109 0.0
H1436 H 0.1137 0.59073 0.83866 0.0
H1437 H 0.12513 0.65181 0.97405 0.0
H1438 H 0.10892 0.65382 0.02671 0.0
H1439 H 0.1075 0.65798 0.94074 0.0
C1440 C 0.12752 0.32981 0.63977 0.0
C1441 C 0.13608 0.33436 0.69404 0.0
C1442 C 0.11817 0.34 0.60658 0.0
C1443 C 0.11701 0.35504 0.62922 0.0
C1444 C 0.12569 0.35975 0.68383 0.0
C1445 C 0.13531 0.34938 0.71511 0.0
C1446 C 0.10937 0.33458 0.54775 0.0
C1447 C 0.12448 0.3756 0.71032 0.0
C1448 C 0.0994 0.38397 0.51442 0.0
C1449 C 0.08425 0.38345 0.53373 0.0
C1450 C 0.11029 0.37489 0.54547 0.0
C1451 C 0.10594 0.36544 0.59808 0.0
C1452 C 0.09072 0.36524 0.61881 0.0
C1453 C 0.08005 0.37409 0.58587 0.0
C1454 C 0.12634 0.37513 0.52098 0.0
C1455 C 0.08566 0.35556 0.67547 0.0
H1456 H 0.12826 0.31825 0.62268 0.0
H1457 H 0.14192 0.35292 0.75704 0.0
H1458 H 0.09712 0.33486 0.55862 0.0
H1459 H 0.11135 0.34218 0.50553 0.0
H1460 H 0.11247 0.32291 0.53328 0.0
H1461 H 0.13238 0.37765 0.75159 0.0
H1462 H 0.12683 0.38391 0.67114 0.0
H1463 H 0.1128 0.37767 0.72758 0.0
H1464 H 0.10268 0.3912 0.47416 0.0
H1465 H 0.06838 0.37381 0.60164 0.0
H1466 H 0.12949 0.36376 0.50275 0.0
H1467 H 0.13418 0.37792 0.56153 0.0
H1468 H 0.128 0.38342 0.48089 0.0
H1469 H 0.08706 0.34347 0.66295 0.0
H1470 H 0.07366 0.35755 0.68855 0.0
H1471 H 0.09275 0.35785 0.71911 0.0
C1472 C 0.1789 0.21302 0.07669 0.0
C1473 C 0.16947 0.20954 0.1295 0.0
C1474 C 0.17566 0.2253 0.03557 0.0
C1475 C 0.16279 0.23434 0.04808 0.0
C1476 C 0.1527 0.23025 0.09843 0.0
C1477 C 0.15611 0.21785 0.13823 0.0
C1478 C 0.18653 0.22914 0.98127 0.0
C1479 C 0.13889 0.23959 0.11348 0.0
C1480 C 0.16878 0.27511 0.00074 0.0
C1481 C 0.16152 0.27578 0.93995 0.0
C1482 C 0.16846 0.26192 0.03831 0.0
C1483 C 0.16095 0.249 0.01376 0.0
C1484 C 0.15271 0.24993 0.95453 0.0
C1485 C 0.15299 0.26342 0.91846 0.0
C1486 C 0.17702 0.26152 0.10221 0.0
C1487 C 0.14462 0.2364 0.92665 0.0
H1488 H 0.18917 0.20661 0.06922 0.0
H1489 H 0.14863 0.21517 0.17849 0.0
H1490 H 0.18032 0.23123 0.935 0.0
H1491 H 0.19268 0.23965 0.99384 0.0
H1492 H 0.19492 0.22004 0.97289 0.0
H1493 H 0.13113 0.23376 0.14783 0.0
H1494 H 0.14242 0.25043 0.13596 0.0
H1495 H 0.13262 0.24231 0.06803 0.0
H1496 H 0.17539 0.28468 0.01729 0.0
H1497 H 0.14756 0.26384 0.87095 0.0
H1498 H 0.18701 0.25408 0.09719 0.0
H1499 H 0.16984 0.25679 0.14159 0.0
H1500 H 0.18095 0.2729 0.11745 0.0
H1501 H 0.15305 0.22824 0.90771 0.0
H1502 H 0.13693 0.23954 0.88594 0.0
H1503 H 0.138 0.23054 0.965 0.0
C1504 C 0.97928 0.94511 0.19276 0.0
C1505 C 0.96837 0.93373 0.20015 0.0
C1506 C 0.99103 0.94684 0.23785 0.0
C1507 C 0.99183 0.93709 0.29234 0.0
C1508 C 0.98034 0.92622 0.30254 0.0
C1509 C 0.96874 0.9246 0.25605 0.0
C1510 C 0.00308 0.95852 0.22493 0.0
C1511 C 0.9807 0.91582 0.36092 0.0
C1512 C 0.03042 0.92769 0.36083 0.0
C1513 C 0.03106 0.93689 0.4165 0.0
C1514 C 0.01782 0.92789 0.31945 0.0
C1515 C 0.00544 0.93734 0.33479 0.0
C1516 C 0.00618 0.94698 0.38991 0.0
C1517 C 0.01908 0.94675 0.42989 0.0
C1518 C 0.01762 0.91772 0.26011 0.0
C1519 C 0.99314 0.95709 0.40806 0.0
H1520 H 0.97901 0.95237 0.15015 0.0
H1521 H 0.96031 0.91588 0.26237 0.0
H1522 H 0.00507 0.9655 0.26913 0.0
H1523 H 0.01386 0.95278 0.21309 0.0
H1524 H 1.0001 0.96609 0.18364 0.0
H1525 H 0.97011 0.90921 0.36584 0.0
H1526 H 0.99026 0.90782 0.356 0.0
H1527 H 0.98253 0.92237 0.40652 0.0
H1528 H 0.03967 0.92006 0.35037 0.0
H1529 H 0.01944 0.95371 0.47347 0.0
H1530 H 0.01543 0.92445 0.21536 0.0
H1531 H 0.00835 0.90938 0.2646 0.0
H1532 H 0.0284 0.91152 0.25372 0.0
H1533 H 0.98996 0.96435 0.36608 0.0
H1534 H 0.99577 0.96442 0.45067 0.0
H1535 H 0.98314 0.9501 0.42015 0.0
C1536 C 0.3347 0.7155 0.53984 0.0
C1537 C 0.32505 0.71511 0.48551 0.0
C1538 C 0.33341 0.72699 0.58698 0.0
C1539 C 0.32233 0.73838 0.57899 0.0
C1540 C 0.31207 0.73756 0.52618 0.0
C1541 C 0.31349 0.72589 0.48048 0.0
C1542 C 0.34433 0.72735 0.64363 0.0
C1543 C 0.30016 0.74951 0.5156 0.0
C1544 C 0.31289 0.76534 0.71767 0.0
C1545 C 0.32226 0.77763 0.7031 0.0
C1546 C 0.3129 0.75237 0.67821 0.0
C1547 C 0.32225 0.75187 0.62217 0.0
C1548 C 0.33133 0.76447 0.60607 0.0
C1549 C 0.33136 0.77713 0.64719 0.0
C1550 C 0.30326 0.73905 0.69745 0.0
C1551 C 0.34114 0.76454 0.5457 0.0
H1552 H 0.3436 0.70718 0.54432 0.0
H1553 H 0.30583 0.72562 0.43911 0.0
H1554 H 0.35222 0.73697 0.6376 0.0
H1555 H 0.3382 0.7291 0.69031 0.0
H1556 H 0.35104 0.7168 0.64722 0.0
H1557 H 0.29233 0.74658 0.47508 0.0
H1558 H 0.29347 0.75123 0.56078 0.0
H1559 H 0.30568 0.76041 0.50384 0.0
H1560 H 0.30603 0.76559 0.76153 0.0
H1561 H 0.33863 0.78661 0.63592 0.0
H1562 H 0.31054 0.72909 0.70648 0.0
H1563 H 0.29547 0.73604 0.65703 0.0
H1564 H 0.29651 0.74131 0.74214 0.0
H1565 H 0.34959 0.75533 0.54874 0.0
H1566 H 0.3472 0.7754 0.5392 0.0
H1567 H 0.33415 0.76241 0.50159 0.0
C1568 C 0.53178 0.08812 0.78068 0.0
C1569 C 0.53383 0.09618 0.72254 0.0
C1570 C 0.51862 0.08986 0.81772 0.0
C1571 C 0.50713 0.09965 0.79511 0.0
C1572 C 0.50971 0.10878 0.73946 0.0
C1573 C 0.52316 0.10703 0.704 0.0
C1574 C 0.51652 0.08024 0.87797 0.0
C1575 C 0.49774 0.11933 0.71375 0.0
C1576 C 0.46876 0.08456 0.84244 0.0
C1577 C 0.46571 0.09292 0.89904 0.0
C1578 C 0.48172 0.08744 0.80512 0.0
C1579 C 0.49193 0.09883 0.82547 0.0
C1580 C 0.48834 0.10804 0.87967 0.0
C1581 C 0.47521 0.10504 0.91556 0.0
C1582 C 0.48498 0.07761 0.74647 0.0
C1583 C 0.49893 0.12026 0.90299 0.0
H1584 H 0.54006 0.07973 0.79492 0.0
H1585 H 0.52464 0.11313 0.65851 0.0
H1586 H 0.5122 0.08715 0.91917 0.0
H1587 H 0.50805 0.07132 0.86776 0.0
H1588 H 0.52718 0.07472 0.89348 0.0
H1589 H 0.50244 0.12758 0.67836 0.0
H1590 H 0.48889 0.11265 0.68848 0.0
H1591 H 0.49222 0.12557 0.75421 0.0
H1592 H 0.4614 0.07529 0.82892 0.0
H1593 H 0.47293 0.11166 0.95903 0.0
H1594 H 0.49457 0.07 0.75774 0.0
H1595 H 0.4883 0.08464 0.70397 0.0
H1596 H 0.47512 0.07059 0.7324 0.0
H1597 H 0.5088 0.115 0.92737 0.0
H1598 H 0.4934 0.12799 0.93841 0.0
H1599 H 0.50324 0.12698 0.86127 0.0
C1600 C 0.16328 0.71703 0.45846 0.0
C1601 C 0.15505 0.71475 0.51598 0.0
C1602 C 0.1611 0.73 0.42057 0.0
C1603 C 0.15063 0.74105 0.44158 0.0
C1604 C 0.14133 0.73815 0.49639 0.0
C1605 C 0.14357 0.7249 0.53279 0.0
C1606 C 0.17095 0.73245 0.36128 0.0
C1607 C 0.13004 0.74963 0.5203 0.0
C1608 C 0.16413 0.78006 0.39521 0.0
C1609 C 0.15598 0.78267 0.33759 0.0
C1610 C 0.16166 0.767 0.43235 0.0
C1611 C 0.15093 0.75622 0.41082 0.0
C1612 C 0.14191 0.75931 0.35542 0.0
C1613 C 0.14447 0.77256 0.31967 0.0
C1614 C 0.17127 0.76426 0.4922 0.0
C1615 C 0.13037 0.74813 0.33087 0.0
H1616 H 0.17214 0.70914 0.44541 0.0
H1617 H 0.13729 0.72323 0.57769 0.0
H1618 H 0.16408 0.73635 0.31917 0.0
H1619 H 0.17939 0.74136 0.37209 0.0
H1620 H 0.17706 0.72203 0.34681 0.0
H1621 H 0.12183 0.74459 0.55505 0.0
H1622 H 0.13611 0.75887 0.54578 0.0
H1623 H 0.12376 0.75471 0.47887 0.0
H1624 H 0.17291 0.78789 0.40978 0.0
H1625 H 0.13804 0.7745 0.27535 0.0
H1626 H 0.17937 0.755 0.48212 0.0
H1627 H 0.16414 0.76069 0.53399 0.0
H1628 H 0.17776 0.77444 0.50676 0.0
H1629 H 0.13626 0.73852 0.30726 0.0
H1630 H 0.12259 0.75325 0.29447 0.0
H1631 H 0.12362 0.74351 0.37186 0.0
C1632 C 0.47162 0.92056 0.61656 0.0
C1633 C 0.47054 0.93029 0.56278 0.0
C1634 C 0.48416 0.92099 0.65828 0.0
C1635 C 0.49606 0.9312 0.64513 0.0
C1636 C 0.49493 0.94125 0.59158 0.0
C1637 C 0.48209 0.94078 0.55134 0.0
C1638 C 0.48477 0.91036 0.71595 0.0
C1639 C 0.50748 0.95216 0.57567 0.0
C1640 C 0.5214 0.93995 0.78908 0.0
C1641 C 0.53312 0.92946 0.78079 0.0
C1642 C 0.50955 0.941 0.74405 0.0
C1643 C 0.5095 0.93149 0.68861 0.0
C1644 C 0.52172 0.92148 0.67773 0.0
C1645 C 0.53338 0.92051 0.72426 0.0
C1646 C 0.49669 0.95173 0.75779 0.0
C1647 C 0.52216 0.91138 0.61832 0.0
H1648 H 0.46271 0.91244 0.62552 0.0
H1649 H 0.48141 0.94816 0.50922 0.0
H1650 H 0.49457 0.90267 0.71098 0.0
H1651 H 0.48634 0.91685 0.7619 0.0
H1652 H 0.47438 0.90345 0.72045 0.0
H1653 H 0.50474 0.9594 0.53295 0.0
H1654 H 0.50985 0.95952 0.61836 0.0
H1655 H 0.51798 0.94582 0.56492 0.0
H1656 H 0.52112 0.94703 0.83231 0.0
H1657 H 0.54242 0.91245 0.71727 0.0
H1658 H 0.48625 0.94519 0.76747 0.0
H1659 H 0.49447 0.95897 0.71464 0.0
H1660 H 0.49896 0.9591 0.80065 0.0
H1661 H 0.51307 0.90281 0.62179 0.0
H1662 H 0.53313 0.90544 0.61341 0.0
H1663 H 0.52008 0.91804 0.57329 0.0
C1664 C 0.31889 0.21921 0.91686 0.0
C1665 C 0.32555 0.21806 0.85511 0.0
C1666 C 0.3208 0.23233 0.95479 0.0
C1667 C 0.32906 0.2447 0.92897 0.0
C1668 C 0.33549 0.24364 0.86594 0.0
C1669 C 0.33386 0.23026 0.83032 0.0
C1670 C 0.31408 0.23296 0.02252 0.0
C1671 C 0.34387 0.25672 0.83559 0.0
C1672 C 0.32076 0.28284 0.00502 0.0
C1673 C 0.33324 0.28479 0.04623 0.0
C1674 C 0.31954 0.27012 0.96458 0.0
C1675 C 0.33083 0.25884 0.96736 0.0
C1676 C 0.34371 0.26101 0.00737 0.0
C1677 C 0.34487 0.27412 0.04571 0.0
C1678 C 0.30593 0.26851 0.92066 0.0
C1679 C 0.35584 0.24912 0.01256 0.0
H1680 H 0.31245 0.20978 0.93581 0.0
H1681 H 0.33878 0.22949 0.78188 0.0
H1682 H 0.323 0.23566 0.05885 0.0
H1683 H 0.30554 0.24208 0.02512 0.0
H1684 H 0.30863 0.22216 0.03661 0.0
H1685 H 0.34773 0.2542 0.78506 0.0
H1686 H 0.33648 0.26682 0.83409 0.0
H1687 H 0.35384 0.25965 0.8658 0.0
H1688 H 0.31171 0.29107 0.00603 0.0
H1689 H 0.35434 0.27548 0.07879 0.0
H1690 H 0.29883 0.259 0.93773 0.0
H1691 H 0.30951 0.26588 0.86993 0.0
H1692 H 0.29892 0.27889 0.91987 0.0
H1693 H 0.35093 0.23858 0.03266 0.0
H1694 H 0.36532 0.25271 0.04458 0.0
H1695 H 0.3604 0.2464 0.96346 0.0
C1696 C 0.03104 0.08548 0.15671 0.0
C1697 C 0.03434 0.09408 0.10111 0.0
C1698 C 0.01799 0.08829 0.19351 0.0
C1699 C 0.00793 0.09986 0.17371 0.0
C1700 C 0.01167 0.10917 0.1201 0.0
C1701 C 0.02488 0.10623 0.08464 0.0
C1702 C 0.01453 0.07829 0.25136 0.0
C1703 C 0.00124 0.12157 0.09734 0.0
C1704 C 0.96821 0.08956 0.22161 0.0
C1705 C 0.96675 0.09721 0.2812 0.0
C1706 C 0.98108 0.09142 0.18281 0.0
C1707 C 0.99285 0.10096 0.20495 0.0
C1708 C 0.99074 0.10987 0.26171 0.0
C1709 C 0.97759 0.10798 0.29907 0.0
C1710 C 0.98268 0.08205 0.12149 0.0
C1711 C 0.00297 0.12021 0.28674 0.0
H1712 H 0.03835 0.07618 0.17011 0.0
H1713 H 0.02734 0.11299 0.04182 0.0
H1714 H 0.01154 0.08523 0.29463 0.0
H1715 H 0.00466 0.07105 0.23986 0.0
H1716 H 0.02419 0.07089 0.2644 0.0
H1717 H 0.00684 0.12929 0.06213 0.0
H1718 H 0.99127 0.11649 0.07293 0.0
H1719 H 0.99705 0.12828 0.13938 0.0
H1720 H 0.9598 0.08127 0.20777 0.0
H1721 H 0.97654 0.1138 0.3455 0.0
H1722 H 0.99091 0.07284 0.1303 0.0
H1723 H 0.98706 0.08901 0.08065 0.0
H1724 H 0.97179 0.07693 0.10625 0.0
H1725 H 0.01191 0.11336 0.31046 0.0
H1726 H 0.99857 0.12838 0.32328 0.0
H1727 H 0.00829 0.12655 0.24609 0.0
C1728 C 0.81102 0.7725 0.83641 0.0
C1729 C 0.82362 0.78202 0.8401 0.0
C1730 C 0.81006 0.75953 0.87531 0.0
C1731 C 0.82183 0.75622 0.91984 0.0
C1732 C 0.83439 0.766 0.92498 0.0
C1733 C 0.8352 0.77872 0.88455 0.0
C1734 C 0.79656 0.74926 0.86819 0.0
C1735 C 0.84696 0.76304 0.97324 0.0
C1736 C 0.81221 0.73265 0.06753 0.0
C1737 C 0.8188 0.71868 0.05207 0.0
C1738 C 0.8131 0.74488 0.02477 0.0
C1739 C 0.82054 0.74308 0.96426 0.0
C1740 C 0.82694 0.72895 0.94735 0.0
C1741 C 0.82613 0.71689 0.99193 0.0
C1742 C 0.80636 0.75983 0.04513 0.0
C1743 C 0.83473 0.72664 0.88252 0.0
H1744 H 0.80216 0.77487 0.80127 0.0
H1745 H 0.84498 0.78605 0.88733 0.0
H1746 H 0.80034 0.73764 0.85638 0.0
H1747 H 0.79031 0.74868 0.91508 0.0
H1748 H 0.78868 0.75312 0.82935 0.0
H1749 H 0.85596 0.77174 0.97094 0.0
H1750 H 0.84236 0.76277 0.02369 0.0
H1751 H 0.85208 0.75184 0.9636 0.0
H1752 H 0.80662 0.73421 0.11416 0.0
H1753 H 0.8312 0.70613 0.97975 0.0
H1754 H 0.79779 0.76349 0.00893 0.0
H1755 H 0.81528 0.76861 0.04639 0.0
H1756 H 0.80095 0.75931 0.09405 0.0
H1757 H 0.82701 0.72973 0.8419 0.0
H1758 H 0.83848 0.71479 0.8755 0.0
H1759 H 0.84471 0.73414 0.87915 0.0
C1760 C 0.03002 0.06077 0.79075 0.0
C1761 C 0.03933 0.0736 0.79158 0.0
C1762 C 0.01852 0.05912 0.74442 0.0
C1763 C 0.01634 0.07049 0.69698 0.0
C1764 C 0.02639 0.08294 0.69435 0.0
C1765 C 0.03777 0.08439 0.74197 0.0
C1766 C 0.00807 0.0457 0.74915 0.0
C1767 C 0.0246 0.09511 0.6434 0.0
C1768 C 0.98964 0.06191 0.55602 0.0
C1769 C 0.97658 0.06956 0.57588 0.0
C1770 C 0.00278 0.06224 0.59449 0.0
C1771 C 0.00266 0.07007 0.65486 0.0
C1772 C 0.98929 0.0773 0.67621 0.0
C1773 C 0.97648 0.07713 0.63599 0.0
C1774 C 0.0169 0.05467 0.56955 0.0
C1775 C 0.98857 0.08539 0.74118 0.0
H1776 H 0.0313 0.05222 0.82825 0.0
H1777 H 0.04497 0.09427 0.74206 0.0
H1778 H 0.99671 0.04955 0.7647 0.0
H1779 H 0.00678 0.04018 0.70079 0.0
H1780 H 0.01215 0.03718 0.78482 0.0
H1781 H 0.03441 0.10291 0.64247 0.0
H1782 H 0.02319 0.09005 0.59412 0.0
H1783 H 0.01429 0.10178 0.65391 0.0
H1784 H 0.98982 0.05631 0.50885 0.0
H1785 H 0.96639 0.0831 0.65118 0.0
H1786 H 0.02115 0.04643 0.60594 0.0
H1787 H 0.02589 0.06323 0.56254 0.0
H1788 H 0.01501 0.04873 0.52239 0.0
H1789 H 0.99175 0.07757 0.78125 0.0
H1790 H 0.97716 0.08997 0.75152 0.0
H1791 H 0.99677 0.09485 0.74178 0.0
C1792 C 0.67041 0.28431 0.46433 0.0
C1793 C 0.67946 0.28434 0.5206 0.0
C1794 C 0.6717 0.27271 0.41768 0.0
C1795 C 0.68213 0.26083 0.42814 0.0
C1796 C 0.69175 0.2612 0.48325 0.0
C1797 C 0.69037 0.27298 0.52843 0.0
C1798 C 0.66146 0.27282 0.35865 0.0
C1799 C 0.70293 0.2487 0.49653 0.0
C1800 C 0.67228 0.22262 0.35646 0.0
C1801 C 0.6819 0.22187 0.30221 0.0
C1802 C 0.67241 0.23516 0.39822 0.0
C1803 C 0.68219 0.24739 0.38466 0.0
C1804 C 0.69214 0.24659 0.33066 0.0
C1805 C 0.69198 0.23375 0.29037 0.0
C1806 C 0.6619 0.23542 0.45633 0.0
C1807 C 0.70261 0.25949 0.31432 0.0
H1808 H 0.66203 0.29308 0.4577 0.0
H1809 H 0.69754 0.27292 0.57142 0.0
H1810 H 0.6681 0.27096 0.31337 0.0
H1811 H 0.6532 0.26347 0.36244 0.0
H1812 H 0.65517 0.2836 0.35395 0.0
H1813 H 0.71033 0.25123 0.53903 0.0
H1814 H 0.69678 0.23806 0.50657 0.0
H1815 H 0.71013 0.24672 0.45305 0.0
H1816 H 0.66447 0.21345 0.36576 0.0
H1817 H 0.69928 0.23333 0.24791 0.0
H1818 H 0.65388 0.24497 0.45171 0.0
H1819 H 0.66844 0.2372 0.50201 0.0
H1820 H 0.65534 0.22481 0.46112 0.0
H1821 H 0.6959 0.26977 0.30375 0.0
H1822 H 0.70985 0.25698 0.27136 0.0
H1823 H 0.70996 0.26211 0.35674 0.0
C1824 C 0.46614 0.91241 0.20463 0.0
C1825 C 0.46416 0.90431 0.26271 0.0
C1826 C 0.47923 0.91066 0.16715 0.0
C1827 C 0.49072 0.9008 0.18924 0.0
C1828 C 0.48818 0.89159 0.2447 0.0
C1829 C 0.4748 0.89337 0.28063 0.0
C1830 C 0.48129 0.92036 0.10713 0.0
C1831 C 0.50014 0.88095 0.2698 0.0
C1832 C 0.52258 0.89555 0.06842 0.0
C1833 C 0.53214 0.90759 0.08544 0.0
C1834 C 0.50944 0.89254 0.10419 0.0
C1835 C 0.50589 0.90165 0.15874 0.0
C1836 C 0.51614 0.91297 0.17948 0.0
C1837 C 0.52911 0.91587 0.1423 0.0
C1838 C 0.49882 0.88039 0.08049 0.0
C1839 C 0.51291 0.9227 0.23847 0.0
H1840 H 0.45789 0.92087 0.19086 0.0
H1841 H 0.47336 0.88723 0.32605 0.0
H1842 H 0.48978 0.92925 0.11745 0.0
H1843 H 0.48557 0.91351 0.06567 0.0
H1844 H 0.47062 0.92591 0.09193 0.0
H1845 H 0.49543 0.87265 0.30497 0.0
H1846 H 0.50559 0.87477 0.22901 0.0
H1847 H 0.50903 0.88755 0.29515 0.0
H1848 H 0.52485 0.889 0.02474 0.0
H1849 H 0.53651 0.92507 0.15619 0.0
H1850 H 0.48895 0.88572 0.05635 0.0
H1851 H 0.4945 0.8736 0.12199 0.0
H1852 H 0.50431 0.87271 0.04476 0.0
H1853 H 0.50331 0.93033 0.22757 0.0
H1854 H 0.52278 0.9297 0.25265 0.0
H1855 H 0.50962 0.9156 0.28079 0.0
C1856 C 0.8596 0.28034 0.45128 0.0
C1857 C 0.84855 0.29081 0.46982 0.0
C1858 C 0.86178 0.26704 0.48745 0.0
C1859 C 0.85286 0.2644 0.54368 0.0
C1860 C 0.84293 0.27577 0.56638 0.0
C1861 C 0.8408 0.28879 0.52876 0.0
C1862 C 0.87252 0.25524 0.46178 0.0
C1863 C 0.83351 0.2736 0.62716 0.0
C1864 C 0.83827 0.2258 0.59075 0.0
C1865 C 0.84669 0.22279 0.64728 0.0
C1866 C 0.84096 0.23884 0.55368 0.0
C1867 C 0.85223 0.24918 0.57407 0.0
C1868 C 0.86149 0.24566 0.62823 0.0
C1869 C 0.85867 0.23246 0.66399 0.0
C1870 C 0.83105 0.24203 0.4952 0.0
C1871 C 0.87362 0.25635 0.6515 0.0
H1872 H 0.86548 0.28181 0.40525 0.0
H1873 H 0.83226 0.29691 0.54306 0.0
H1874 H 0.87889 0.24987 0.50223 0.0
H1875 H 0.86598 0.24626 0.4367 0.0
H1876 H 0.88066 0.26008 0.42621 0.0
H1877 H 0.82791 0.28422 0.64274 0.0
H1878 H 0.82466 0.26502 0.61752 0.0
H1879 H 0.84057 0.2694 0.66809 0.0
H1880 H 0.82912 0.21832 0.57706 0.0
H1881 H 0.86533 0.23021 0.70741 0.0
H1882 H 0.83801 0.24537 0.45254 0.0
H1883 H 0.8234 0.25159 0.50655 0.0
H1884 H 0.82406 0.23213 0.48132 0.0
H1885 H 0.88021 0.26083 0.60971 0.0
H1886 H 0.88149 0.25085 0.68645 0.0
H1887 H 0.86829 0.2661 0.67645 0.0
C1888 C 0.47783 0.06096 0.19458 0.0
C1889 C 0.46597 0.07126 0.20379 0.0
C1890 C 0.48975 0.05993 0.2393 0.0
C1891 C 0.48974 0.06926 0.29534 0.0
C1892 C 0.47742 0.0791 0.30696 0.0
C1893 C 0.46569 0.08006 0.26076 0.0
C1894 C 0.50272 0.04939 0.22476 0.0
C1895 C 0.47692 0.08901 0.36697 0.0
C1896 C 0.51709 0.05972 0.43251 0.0
C1897 C 0.52856 0.07035 0.42203 0.0
C1898 C 0.50431 0.05926 0.39189 0.0
C1899 C 0.50316 0.06947 0.33894 0.0
C1900 C 0.51499 0.07982 0.32667 0.0
C1901 C 0.52748 0.08022 0.36873 0.0
C1902 C 0.49184 0.04819 0.40682 0.0
C1903 C 0.51435 0.09063 0.26968 0.0
H1904 H 0.47815 0.05401 0.15097 0.0
H1905 H 0.45654 0.08797 0.26844 0.0
H1906 H 0.5131 0.05606 0.21575 0.0
H1907 H 0.50498 0.04198 0.26732 0.0
H1908 H 0.50053 0.04219 0.18127 0.0
H1909 H 0.46593 0.09491 0.37212 0.0
H1910 H 0.47898 0.0822 0.4116 0.0
H1911 H 0.486 0.09761 0.36416 0.0
H1912 H 0.51776 0.05221 0.47422 0.0
H1913 H 0.53632 0.08845 0.36047 0.0
H1914 H 0.48955 0.04098 0.36356 0.0
H1915 H 0.48128 0.0544 0.41792 0.0
H1916 H 0.49461 0.0408 0.44903 0.0
H1917 H 0.51284 0.0843 0.2233 0.0
H1918 H 0.52471 0.09763 0.26573 0.0
H1919 H 0.50451 0.09825 0.27505 0.0
C1920 C 0.66319 0.77798 0.10611 0.0
C1921 C 0.6758 0.78157 0.14456 0.0
C1922 C 0.66316 0.76519 0.0658 0.0
C1923 C 0.67597 0.75568 0.06471 0.0
C1924 C 0.68876 0.75928 0.10314 0.0
C1925 C 0.68858 0.77228 0.14221 0.0
C1926 C 0.64946 0.76191 0.02416 0.0
C1927 C 0.70259 0.74933 0.10332 0.0
C1928 C 0.67156 0.71613 0.99469 0.0
C1929 C 0.67759 0.71811 0.93204 0.0
C1930 C 0.67106 0.72825 0.03911 0.0
C1931 C 0.67643 0.74263 0.01947 0.0
C1932 C 0.68228 0.74468 0.95593 0.0
C1933 C 0.68289 0.7324 0.91332 0.0
C1934 C 0.66493 0.7257 0.10702 0.0
C1935 C 0.68784 0.75988 0.93266 0.0
H1936 H 0.65327 0.78511 0.10795 0.0
H1937 H 0.69826 0.77488 0.17265 0.0
H1938 H 0.65265 0.76188 0.9717 0.0
H1939 H 0.64498 0.75054 0.0357 0.0
H1940 H 0.64033 0.77031 0.03152 0.0
H1941 H 0.7113 0.75331 0.13844 0.0
H1942 H 0.69941 0.7376 0.11616 0.0
H1943 H 0.70764 0.74902 0.05372 0.0
H1944 H 0.66748 0.7051 0.00921 0.0
H1945 H 0.68737 0.73409 0.86455 0.0
H1946 H 0.65511 0.73318 0.11572 0.0
H1947 H 0.67364 0.72865 0.14391 0.0
H1948 H 0.66138 0.71382 0.11491 0.0
H1949 H 0.6787 0.76837 0.93685 0.0
H1950 H 0.69177 0.7596 0.88108 0.0
H1951 H 0.69731 0.76377 0.96393 0.0
C1952 C 0.03497 0.91661 0.77237 0.0
C1953 C 0.03679 0.90886 0.71325 0.0
C1954 C 0.02191 0.91476 0.80993 0.0
C1955 C 0.01029 0.90514 0.78698 0.0
C1956 C 0.01266 0.89628 0.73028 0.0
C1957 C 0.02601 0.89815 0.6942 0.0
C1958 C 0.02002 0.92411 0.87118 0.0
C1959 C 1.00057 0.88589 0.70427 0.0
C1960 C 0.97874 0.89929 0.9088 0.0
C1961 C 0.96917 0.91145 0.89377 0.0
C1962 C 0.99176 0.89644 0.87193 0.0
C1963 C 0.9952 0.90587 0.81833 0.0
C1964 C 0.98494 0.91735 0.79957 0.0
C1965 C 0.97207 0.92006 0.83776 0.0
C1966 C 0.00238 0.88409 0.8935 0.0
C1967 C 0.98806 0.92745 0.74169 0.0
H1968 H 0.04333 0.92488 0.78702 0.0
H1969 H 0.02732 0.89229 0.64799 0.0
H1970 H 0.01154 0.93309 0.86231 0.0
H1971 H 0.01582 0.91703 0.91199 0.0
H1972 H 0.03075 0.92954 0.88656 0.0
H1973 H 0.00512 0.87781 0.66775 0.0
H1974 H 0.99517 0.87946 0.74445 0.0
H1975 H 0.99165 0.89272 0.68028 0.0
H1976 H 0.97656 0.89246 0.95173 0.0
H1977 H 0.96467 0.92937 0.82538 0.0
H1978 H 0.01237 0.88922 0.91754 0.0
H1979 H 0.00649 0.87752 0.85092 0.0
H1980 H 0.99697 0.87624 0.92871 0.0
H1981 H 0.99773 0.93496 0.75308 0.0
H1982 H 0.97818 0.93458 0.72893 0.0
H1983 H 0.99119 0.92061 0.69831 0.0
C1984 C 0.65275 0.77343 0.43908 0.0
C1985 C 0.66305 0.78495 0.45345 0.0
C1986 C 0.65309 0.75974 0.47357 0.0
C1987 C 0.66368 0.7578 0.52476 0.0
C1988 C 0.67332 0.76987 0.54257 0.0
C1989 C 0.67308 0.78322 0.50581 0.0
C1990 C 0.64285 0.74704 0.45225 0.0
C1991 C 0.68437 0.76846 0.59849 0.0
C1992 C 0.65831 0.7267 0.64932 0.0
C1993 C 0.66973 0.71645 0.63192 0.0
C1994 C 0.65601 0.74003 0.61409 0.0
C1995 C 0.66504 0.74304 0.55878 0.0
C1996 C 0.67601 0.73236 0.53853 0.0
C1997 C 0.67839 0.71926 0.57598 0.0
C1998 C 0.64449 0.75128 0.63836 0.0
C1999 C 0.68554 0.735 0.47852 0.0
H2000 H 0.64526 0.77464 0.39742 0.0
H2001 H 0.68115 0.79209 0.51628 0.0
H2002 H 0.64976 0.73778 0.43132 0.0
H2003 H 0.63667 0.74233 0.4947 0.0
H2004 H 0.63453 0.75071 0.41486 0.0
H2005 H 0.68996 0.77936 0.61006 0.0
H2006 H 0.67854 0.76433 0.64303 0.0
H2007 H 0.6932 0.76009 0.58583 0.0
H2008 H 0.65161 0.72474 0.69279 0.0
H2009 H 0.68719 0.71139 0.56221 0.0
H2010 H 0.63665 0.75448 0.59844 0.0
H2011 H 0.65032 0.76173 0.65449 0.0
H2012 H 0.63778 0.74685 0.67999 0.0
H2013 H 0.67828 0.738 0.43624 0.0
H2014 H 0.69239 0.72495 0.46545 0.0
H2015 H 0.69328 0.74463 0.48724 0.0
C2016 C 0.47017 0.42322 0.75496 0.0
C2017 C 0.46979 0.4326 0.69985 0.0
C2018 C 0.48169 0.42471 0.80187 0.0
C2019 C 0.49309 0.43573 0.79292 0.0
C2020 C 0.49227 0.44574 0.73932 0.0
C2021 C 0.4806 0.44411 0.69377 0.0
C2022 C 0.48207 0.41403 0.85928 0.0
C2023 C 0.50423 0.45759 0.72776 0.0
C2024 C 0.52022 0.44487 0.93161 0.0
C2025 C 0.53228 0.43519 0.91734 0.0
C2026 C 0.50733 0.44521 0.8916 0.0
C2027 C 0.50668 0.43585 0.83554 0.0
C2028 C 0.51913 0.42657 0.81941 0.0
C2029 C 0.53172 0.42625 0.86084 0.0
C2030 C 0.4942 0.45513 0.91063 0.0
C2031 C 0.51903 0.41671 0.7591 0.0
H2032 H 0.46181 0.41439 0.76027 0.0
H2033 H 0.48032 0.45157 0.6518 0.0
H2034 H 0.49167 0.40611 0.85369 0.0
H2035 H 0.48385 0.42036 0.90549 0.0
H2036 H 0.47151 0.40735 0.86346 0.0
H2037 H 0.5012 0.46536 0.68724 0.0
H2038 H 0.50614 0.46434 0.77269 0.0
H2039 H 0.51507 0.452 0.71542 0.0
H2040 H 0.52053 0.45162 0.97584 0.0
H2041 H 0.54103 0.41875 0.84971 0.0
H2042 H 0.48426 0.44799 0.92193 0.0
H2043 H 0.491 0.46258 0.86935 0.0
H2044 H 0.49677 0.46225 0.95398 0.0
H2045 H 0.5098 0.40829 0.76264 0.0
H2046 H 0.52986 0.4106 0.75223 0.0
H2047 H 0.51683 0.42366 0.71498 0.0
C2048 C 0.81117 0.27124 0.18407 0.0
C2049 C 0.82117 0.28317 0.17181 0.0
C2050 C 0.81096 0.25842 0.14364 0.0
C2051 C 0.82077 0.25772 0.08915 0.0
C2052 C 0.83045 0.27 0.07518 0.0
C2053 C 0.83063 0.28252 0.11703 0.0
C2054 C 0.80062 0.24546 0.16039 0.0
C2055 C 0.84082 0.26982 0.01657 0.0
C2056 C 0.8329 0.22105 0.00871 0.0
C2057 C 0.82385 0.22101 0.95246 0.0
C2058 C 0.83147 0.23254 0.05575 0.0
C2059 C 0.82086 0.24428 0.04573 0.0
C2060 C 0.81121 0.24387 0.99076 0.0
C2061 C 0.81275 0.2322 0.94513 0.0
C2062 C 0.84176 0.23249 0.1146 0.0
C2063 C 0.79983 0.25621 0.97803 0.0
H2064 H 0.804 0.27161 0.22695 0.0
H2065 H 0.83836 0.29173 0.10741 0.0
H2066 H 0.79326 0.24272 0.11812 0.0
H2067 H 0.80742 0.23525 0.17113 0.0
H2068 H 0.79339 0.24796 0.20339 0.0
H2069 H 0.84728 0.28049 0.01147 0.0
H2070 H 0.84893 0.26035 0.02085 0.0
H2071 H 0.83419 0.26799 0.97119 0.0
H2072 H 0.84142 0.2124 0.01497 0.0
H2073 H 0.80557 0.23223 0.90218 0.0
H2074 H 0.83516 0.2343 0.16002 0.0
H2075 H 0.84996 0.2419 0.11064 0.0
H2076 H 0.84814 0.22175 0.11913 0.0
H2077 H 0.79274 0.25814 0.02189 0.0
H2078 H 0.79234 0.25357 0.93597 0.0
H2079 H 0.80583 0.26693 0.96751 0.0
C2080 C 0.96199 0.57461 0.3415 0.0
C2081 C 0.96061 0.5819 0.40189 0.0
C2082 C 0.97525 0.57613 0.30426 0.0
C2083 C 0.98752 0.58462 0.32952 0.0
C2084 C 0.98617 0.59186 0.3908 0.0
C2085 C 0.97266 0.59061 0.42565 0.0
C2086 C 0.97617 0.56859 0.23818 0.0
C2087 C 0.99915 0.60054 0.42057 0.0
C2088 C 0.02594 0.57465 0.26043 0.0
C2089 C 0.02837 0.58655 0.21669 0.0
C2090 C 0.01297 0.57423 0.2996 0.0
C2091 C 0.00193 0.58566 0.29272 0.0
C2092 C 0.00457 0.59795 0.25003 0.0
C2093 C 0.01792 0.59836 0.21322 0.0
C2094 C 0.01085 0.56126 0.34656 0.0
C2095 C 0.99293 0.61017 0.2403 0.0
H2096 H 0.9527 0.56784 0.32331 0.0
H2097 H 0.97176 0.59602 0.4731 0.0
H2098 H 0.97942 0.57695 0.20038 0.0
H2099 H 0.98501 0.55975 0.23892 0.0
H2100 H 0.96531 0.5633 0.22364 0.0
H2101 H 0.99627 0.6054 0.46908 0.0
H2102 H 0.00904 0.59299 0.42651 0.0
H2103 H 0.00262 0.60984 0.38763 0.0
H2104 H 0.03399 0.56545 0.2625 0.0
H2105 H 0.01965 0.60737 0.17816 0.0
H2106 H 0.00136 0.55406 0.32987 0.0
H2107 H 0.0079 0.56557 0.39591 0.0
H2108 H 0.02112 0.55415 0.35061 0.0
H2109 H 0.98248 0.60517 0.21961 0.0
H2110 H 0.99692 0.61919 0.20683 0.0
H2111 H 0.98989 0.61536 0.28785 0.0
C2112 C 0.66533 0.27974 0.88214 0.0
C2113 C 0.65707 0.28256 0.825 0.0
C2114 C 0.66273 0.26668 0.91915 0.0
C2115 C 0.65174 0.25613 0.89799 0.0
C2116 C 0.64262 0.25945 0.84316 0.0
C2117 C 0.64533 0.27268 0.80752 0.0
C2118 C 0.67246 0.2637 0.97842 0.0
C2119 C 0.6308 0.2485 0.81904 0.0
C2120 C 0.6637 0.21675 0.94416 0.0
C2121 C 0.65567 0.21455 0.00227 0.0
C2122 C 0.66152 0.22975 0.90649 0.0
C2123 C 0.65128 0.24092 0.92836 0.0
C2124 C 0.64214 0.23811 0.98373 0.0
C2125 C 0.64436 0.22483 0.0199 0.0
C2126 C 0.67119 0.2321 0.84657 0.0
C2127 C 0.63108 0.24971 0.00854 0.0
H2128 H 0.67429 0.28739 0.89639 0.0
H2129 H 0.6388 0.27478 0.76361 0.0
H2130 H 0.66539 0.26021 0.02052 0.0
H2131 H 0.68036 0.25432 0.9677 0.0
H2132 H 0.67917 0.27376 0.99284 0.0
H2133 H 0.62298 0.25382 0.78336 0.0
H2134 H 0.63643 0.23884 0.79469 0.0
H2135 H 0.62412 0.24392 0.86034 0.0
H2136 H 0.67242 0.20877 0.93054 0.0
H2137 H 0.63824 0.22322 0.06529 0.0
H2138 H 0.67982 0.24085 0.857 0.0
H2139 H 0.66424 0.23617 0.80502 0.0
H2140 H 0.67707 0.2216 0.83147 0.0
H2141 H 0.63736 0.25881 0.03413 0.0
H2142 H 0.62288 0.24474 0.04345 0.0
H2143 H 0.62479 0.25498 0.96759 0.0
C2144 C 0.96703 0.40573 0.0891 0.0
C2145 C 0.95877 0.41901 0.10039 0.0
C2146 C 0.97949 0.40194 0.12801 0.0
C2147 C 0.98368 0.41155 0.18007 0.0
C2148 C 0.97471 0.42435 0.19492 0.0
C2149 C 0.96239 0.42798 0.15463 0.0
C2150 C 0.98877 0.38824 0.1104 0.0
C2151 C 0.97866 0.43469 0.25106 0.0
C2152 C 0.01261 0.40039 0.30844 0.0
C2153 C 0.02504 0.40906 0.28884 0.0
C2154 C 0.99916 0.40051 0.27198 0.0
C2155 C 0.99832 0.40928 0.21425 0.0
C2156 C 0.01131 0.41693 0.19137 0.0
C2157 C 0.02447 0.41684 0.22933 0.0
C2158 C 0.98555 0.39225 0.29809 0.0
C2159 C 0.01102 0.42606 0.12905 0.0
H2160 H 0.96428 0.39862 0.04762 0.0
H2161 H 0.95601 0.43818 0.16405 0.0
H2162 H 0.99963 0.39193 0.08878 0.0
H2163 H 0.99145 0.38152 0.15462 0.0
H2164 H 0.98291 0.38086 0.07451 0.0
H2165 H 0.96964 0.44309 0.26082 0.0
H2166 H 0.98069 0.42807 0.29624 0.0
H2167 H 0.98923 0.44085 0.23964 0.0
H2168 H 0.01295 0.39454 0.35498 0.0
H2169 H 0.03408 0.42355 0.21422 0.0
H2170 H 0.97971 0.386 0.25846 0.0
H2171 H 0.97742 0.40056 0.31822 0.0
H2172 H 0.98862 0.3842 0.33753 0.0
H2173 H 0.00622 0.4193 0.08836 0.0
H2174 H 0.02244 0.43001 0.11467 0.0
H2175 H 0.00367 0.43607 0.13577 0.0
C2176 C 0.82147 0.72011 0.40969 0.0
C2177 C 0.83021 0.71659 0.35473 0.0
C2178 C 0.82466 0.73299 0.44752 0.0
C2179 C 0.8366 0.74273 0.42883 0.0
C2180 C 0.8458 0.7389 0.37499 0.0
C2181 C 0.84262 0.7258 0.33922 0.0
C2182 C 0.81487 0.73651 0.50594 0.0
C2183 C 0.85843 0.74911 0.35257 0.0
C2184 C 0.83073 0.78348 0.47895 0.0
C2185 C 0.84014 0.78464 0.53372 0.0
C2186 C 0.8301 0.77012 0.44224 0.0
C2187 C 0.83871 0.75749 0.46233 0.0
C2188 C 0.8488 0.75886 0.51575 0.0
C2189 C 0.84955 0.77254 0.55035 0.0
C2190 C 0.81962 0.76931 0.38408 0.0
C2191 C 0.85796 0.74558 0.53942 0.0
H2192 H 0.81192 0.71304 0.42216 0.0
H2193 H 0.84946 0.72325 0.29672 0.0
H2194 H 0.82199 0.7391 0.54921 0.0
H2195 H 0.80793 0.74664 0.49564 0.0
H2196 H 0.8072 0.72702 0.51831 0.0
H2197 H 0.86528 0.74393 0.31301 0.0
H2198 H 0.85361 0.75985 0.33409 0.0
H2199 H 0.86599 0.75196 0.394 0.0
H2200 H 0.82334 0.7928 0.46664 0.0
H2201 H 0.85655 0.77332 0.59375 0.0
H2202 H 0.81009 0.76161 0.39519 0.0
H2203 H 0.82562 0.76464 0.34099 0.0
H2204 H 0.81494 0.78053 0.37094 0.0
H2205 H 0.85027 0.73699 0.56053 0.0
H2206 H 0.86631 0.74888 0.57737 0.0
H2207 H 0.86401 0.74017 0.49819 0.0
C2208 C 0.52657 0.60463 0.59515 0.0
C2209 C 0.53572 0.59215 0.61031 0.0
C2210 C 0.51351 0.60779 0.63129 0.0
C2211 C 0.5096 0.59836 0.68428 0.0
C2212 C 0.51943 0.58652 0.70316 0.0
C2213 C 0.53235 0.5835 0.66571 0.0
C2214 C 0.50335 0.62051 0.6096 0.0
C2215 C 0.51581 0.5764 0.76041 0.0
C2216 C 0.47887 0.60657 0.80808 0.0
C2217 C 0.46787 0.59615 0.78842 0.0
C2218 C 0.49226 0.60827 0.77212 0.0
C2219 C 0.49445 0.59952 0.71496 0.0
C2220 C 0.48261 0.59028 0.69126 0.0
C2221 C 0.4695 0.5886 0.72869 0.0
C2222 C 0.50459 0.61827 0.79889 0.0
C2223 C 0.4843 0.58109 0.62949 0.0
H2224 H 0.52911 0.61147 0.55266 0.0
H2225 H 0.53942 0.57395 0.67817 0.0
H2226 H 0.49332 0.61575 0.58446 0.0
H2227 H 0.49925 0.62708 0.6522 0.0
H2228 H 0.50915 0.62829 0.57526 0.0
H2229 H 0.52539 0.56889 0.77331 0.0
H2230 H 0.51281 0.58325 0.80396 0.0
H2231 H 0.50591 0.56927 0.74824 0.0
H2232 H 0.4777 0.61228 0.85473 0.0
H2233 H 0.46097 0.58054 0.71359 0.0
H2234 H 0.51025 0.62461 0.75913 0.0
H2235 H 0.51325 0.61116 0.82304 0.0
H2236 H 0.50018 0.62642 0.83548 0.0
H2237 H 0.48883 0.58815 0.58928 0.0
H2238 H 0.47342 0.57608 0.61339 0.0
H2239 H 0.49245 0.57179 0.63811 0.0
C2240 C 0.33305 0.21393 0.49635 0.0
C2241 C 0.33195 0.21575 0.56403 0.0
C2242 C 0.33436 0.22663 0.45552 0.0
C2243 C 0.33473 0.24126 0.48374 0.0
C2244 C 0.33458 0.24295 0.55245 0.0
C2245 C 0.33308 0.23017 0.5917 0.0
C2246 C 0.33448 0.22446 0.38232 0.0
C2247 C 0.33517 0.25831 0.58454 0.0
C2248 C 0.34656 0.27487 0.38143 0.0
C2249 C 0.33254 0.281 0.36363 0.0
C2250 C 0.34748 0.26191 0.42043 0.0
C2251 C 0.33405 0.25489 0.44189 0.0
C2252 C 0.31987 0.26122 0.42548 0.0
C2253 C 0.31929 0.27425 0.38677 0.0
C2254 C 0.36278 0.25561 0.43794 0.0
C2255 C 0.3053 0.25406 0.4479 0.0
H2256 H 0.33206 0.20274 0.47536 0.0
H2257 H 0.33228 0.23146 0.64438 0.0
H2258 H 0.32388 0.22899 0.36119 0.0
H2259 H 0.34395 0.23082 0.36009 0.0
H2260 H 0.33551 0.21239 0.36839 0.0
H2261 H 0.33648 0.25753 0.6385 0.0
H2262 H 0.34466 0.26502 0.5646 0.0
H2263 H 0.32461 0.26455 0.57377 0.0
H2264 H 0.35687 0.28003 0.36376 0.0
H2265 H 0.30842 0.27884 0.37286 0.0
H2266 H 0.36387 0.24395 0.41875 0.0
H2267 H 0.36402 0.25498 0.49188 0.0
H2268 H 0.37215 0.26253 0.418 0.0
H2269 H 0.30466 0.24225 0.43011 0.0
H2270 H 0.29521 0.26027 0.43011 0.0
H2271 H 0.30494 0.2537 0.50211 0.0
C2272 C 0.53673 0.57984 0.24792 0.0
C2273 C 0.53697 0.57043 0.30295 0.0
C2274 C 0.52522 0.57849 0.2008 0.0
C2275 C 0.51369 0.56759 0.20949 0.0
C2276 C 0.51434 0.55759 0.26314 0.0
C2277 C 0.526 0.55906 0.30884 0.0
C2278 C 0.52503 0.58916 0.14335 0.0
C2279 C 0.50223 0.54588 0.27449 0.0
C2280 C 0.47515 0.57705 0.14035 0.0
C2281 C 0.47459 0.56795 0.08432 0.0
C2282 C 0.48774 0.57685 0.18186 0.0
C2283 C 0.50019 0.56752 0.16629 0.0
C2284 C 0.49957 0.55805 0.11058 0.0
C2285 C 0.48669 0.55827 0.07049 0.0
C2286 C 0.4878 0.58683 0.24178 0.0
C2287 C 0.51271 0.54808 0.09213 0.0
H2288 H 0.5452 0.58857 0.24275 0.0
H2289 H 0.52615 0.55158 0.35076 0.0
H2290 H 0.52329 0.58284 0.09711 0.0
H2291 H 0.51547 0.59715 0.14854 0.0
H2292 H 0.53564 0.59577 0.13953 0.0
H2293 H 0.50505 0.53816 0.3155 0.0
H2294 H 0.49141 0.55159 0.28591 0.0
H2295 H 0.50041 0.53904 0.22972 0.0
H2296 H 0.46582 0.58455 0.15113 0.0
H2297 H 0.4864 0.5514 0.02662 0.0
H2298 H 0.4971 0.59516 0.23831 0.0
H2299 H 0.48984 0.57995 0.28623 0.0
H2300 H 0.47701 0.59304 0.248 0.0
H2301 H 0.52274 0.55517 0.08172 0.0
H2302 H 0.51026 0.54104 0.04843 0.0
H2303 H 0.51571 0.54055 0.13342 0.0
C2304 C 0.18959 0.77307 0.04169 0.0
C2305 C 0.17863 0.78437 0.03358 0.0
C2306 C 0.19105 0.76127 0.99667 0.0
C2307 C 0.18147 0.76082 0.94146 0.0
C2308 C 0.17101 0.77266 0.93066 0.0
C2309 C 0.16964 0.78428 0.97714 0.0
C2310 C 0.20227 0.74882 0.01029 0.0
C2311 C 0.16081 0.77269 0.8715 0.0
C2312 C 0.19126 0.73358 0.80424 0.0
C2313 C 0.18113 0.72174 0.81631 0.0
C2314 C 0.19148 0.74645 0.84435 0.0
C2315 C 0.18154 0.74732 0.89838 0.0
C2316 C 0.17174 0.73513 0.91223 0.0
C2317 C 0.17155 0.72255 0.87066 0.0
C2318 C 0.20196 0.7593 0.82771 0.0
C2319 C 0.16124 0.73547 0.97039 0.0
H2320 H 0.19672 0.77307 0.08481 0.0
H2321 H 0.16122 0.79301 0.97028 0.0
H2322 H 0.19613 0.73818 0.02078 0.0
H2323 H 0.20945 0.74676 0.96683 0.0
H2324 H 0.20968 0.75145 0.05264 0.0
H2325 H 0.15452 0.78346 0.86645 0.0
H2326 H 0.16748 0.77076 0.82635 0.0
H2327 H 0.15254 0.76334 0.87546 0.0
H2328 H 0.19853 0.7331 0.76169 0.0
H2329 H 0.16371 0.71342 0.88012 0.0
H2330 H 0.20926 0.76203 0.87019 0.0
H2331 H 0.19527 0.76955 0.81648 0.0
H2332 H 0.20926 0.75669 0.78504 0.0
H2333 H 0.16778 0.73733 0.01599 0.0
H2334 H 0.15469 0.72485 0.97553 0.0
H2335 H 0.15321 0.74499 0.96548 0.0
C2336 C 0.01461 0.44735 0.57145 0.0
C2337 C 0.02561 0.4365 0.58618 0.0
C2338 C 0.00166 0.44885 0.61036 0.0
C2339 C 0.99989 0.43947 0.66579 0.0
C2340 C 0.01138 0.42912 0.68292 0.0
C2341 C 0.02405 0.42767 0.64255 0.0
C2342 C 0.98957 0.45993 0.59037 0.0
C2343 C 0.01007 0.4192 0.74271 0.0
C2344 C 0.97314 0.44961 0.80257 0.0
C2345 C 0.96143 0.43912 0.79331 0.0
C2346 C 0.98544 0.45025 0.75993 0.0
C2347 C 0.98599 0.44031 0.70603 0.0
C2348 C 0.97381 0.43032 0.6939 0.0
C2349 C 0.96166 0.42979 0.738 0.0
C2350 C 0.99824 0.46099 0.77476 0.0
C2351 C 0.97392 0.41975 0.636 0.0
H2352 H 0.01566 0.45405 0.52736 0.0
H2353 H 0.03255 0.41927 0.65401 0.0
H2354 H 0.9792 0.45369 0.57636 0.0
H2355 H 0.98658 0.46738 0.63197 0.0
H2356 H 0.99311 0.46705 0.54843 0.0
H2357 H 0.02038 0.41234 0.75108 0.0
H2358 H 0.00798 0.42621 0.78677 0.0
H2359 H 1.00033 0.41146 0.73712 0.0
H2360 H 0.97302 0.45701 0.84481 0.0
H2361 H 0.95263 0.42174 0.73028 0.0
H2362 H 0.00113 0.46772 0.73084 0.0
H2363 H 0.00844 0.45446 0.78851 0.0
H2364 H 0.9955 0.46885 0.81541 0.0
H2365 H 0.97654 0.42604 0.5905 0.0
H2366 H 0.96296 0.41386 0.62961 0.0
H2367 H 0.98288 0.41115 0.6427 0.0
C2368 C 0.33887 0.72176 0.12304 0.0
C2369 C 0.34697 0.71904 0.18068 0.0
C2370 C 0.34128 0.73494 0.08664 0.0
C2371 C 0.35192 0.74574 0.10895 0.0
C2372 C 0.36085 0.74259 0.16456 0.0
C2373 C 0.35833 0.72922 0.19956 0.0
C2374 C 0.33176 0.73775 0.02658 0.0
C2375 C 0.37226 0.7538 0.18997 0.0
C2376 C 0.35929 0.77698 0.98686 0.0
C2377 C 0.34765 0.78702 0.00292 0.0
C2378 C 0.36162 0.76383 0.02381 0.0
C2379 C 0.35225 0.76093 0.07839 0.0
C2380 C 0.34168 0.77192 0.09887 0.0
C2381 C 0.3394 0.78479 0.06045 0.0
C2382 C 0.37305 0.75242 0.00051 0.0
C2383 C 0.33176 0.76947 0.15794 0.0
H2384 H 0.33019 0.71389 0.10777 0.0
H2385 H 0.36471 0.72722 0.24397 0.0
H2386 H 0.32366 0.74701 0.03659 0.0
H2387 H 0.33895 0.74135 0.98505 0.0
H2388 H 0.32528 0.72759 0.01165 0.0
H2389 H 0.37999 0.74866 0.22652 0.0
H2390 H 0.37908 0.75853 0.14941 0.0
H2391 H 0.36627 0.76333 0.21364 0.0
H2392 H 0.36559 0.77861 0.94199 0.0
H2393 H 0.33044 0.7926 0.07293 0.0
H2394 H 0.3671 0.74312 0.97486 0.0
H2395 H 0.37927 0.74741 0.04225 0.0
H2396 H 0.38129 0.75749 0.96605 0.0
H2397 H 0.32331 0.76058 0.14687 0.0
H2398 H 0.32565 0.7799 0.17229 0.0
H2399 H 0.33857 0.76555 0.20019 0.0
C2400 C 0.97451 0.58402 0.66967 0.0
C2401 C 0.95986 0.58483 0.6951 0.0
C2402 C 0.98712 0.58525 0.71026 0.0
C2403 C 0.98502 0.58711 0.77826 0.0
C2404 C 0.97023 0.58861 0.80406 0.0
C2405 C 0.95773 0.58758 0.76177 0.0
C2406 C 0.00267 0.58387 0.68058 0.0
C2407 C 0.96762 0.59052 0.87649 0.0
C2408 C 0.01648 0.5713 0.8833 0.0
C2409 C 0.02432 0.5844 0.90122 0.0
C2410 C 0.00347 0.57209 0.84443 0.0
C2411 C 0.99831 0.5863 0.82222 0.0
C2412 C 0.00636 0.59954 0.83879 0.0
C2413 C 0.01924 0.59844 0.87837 0.0
C2414 C 0.99518 0.55771 0.8276 0.0
C2415 C 0.00134 0.61485 0.81484 0.0
H2416 H 0.97611 0.5821 0.61771 0.0
H2417 H 0.94637 0.58817 0.78115 0.0
H2418 H 0.01 0.59325 0.69733 0.0
H2419 H 0.00799 0.57319 0.69692 0.0
H2420 H 0.00235 0.58392 0.62624 0.0
H2421 H 0.95559 0.59278 0.88805 0.0
H2422 H 0.97116 0.58012 0.90248 0.0
H2423 H 0.97458 0.59993 0.89583 0.0
H2424 H 0.02022 0.56043 0.90133 0.0
H2425 H 0.02523 0.60862 0.89212 0.0
H2426 H 0.99512 0.55603 0.77383 0.0
H2427 H 0.98325 0.55853 0.84359 0.0
H2428 H 1.00035 0.54763 0.85083 0.0
H2429 H 0.00124 0.61504 0.76058 0.0
H2430 H 0.00878 0.62407 0.83261 0.0
H2431 H 0.98965 0.61715 0.83137 0.0
C2432 C 0.18243 0.27615 0.58821 0.0
C2433 C 0.19066 0.27691 0.64665 0.0
C2434 C 0.18325 0.26341 0.54783 0.0
C2435 C 0.19232 0.25104 0.56699 0.0
C2436 C 0.20123 0.25202 0.62434 0.0
C2437 C 0.20039 0.26504 0.6633 0.0
C2438 C 0.1739 0.26295 0.48603 0.0
C2439 C 0.21096 0.23901 0.64647 0.0
C2440 C 0.17957 0.21384 0.4932 0.0
C2441 C 0.18925 0.21268 0.43934 0.0
C2442 C 0.18095 0.22591 0.53748 0.0
C2443 C 0.19219 0.23704 0.52713 0.0
C2444 C 0.20247 0.23545 0.47493 0.0
C2445 C 0.20093 0.22326 0.43197 0.0
C2446 C 0.16996 0.22713 0.59354 0.0
C2447 C 0.21458 0.24707 0.46211 0.0
H2448 H 0.1749 0.28532 0.5753 0.0
H2449 H 0.2066 0.26549 0.70899 0.0
H2450 H 0.18112 0.26009 0.4435 0.0
H2451 H 0.16518 0.25403 0.49013 0.0
H2452 H 0.16818 0.27387 0.47612 0.0
H2453 H 0.21818 0.24206 0.68891 0.0
H2454 H 0.20366 0.2294 0.66067 0.0
H2455 H 0.21829 0.23507 0.60599 0.0
H2456 H 0.1706 0.20566 0.49947 0.0
H2457 H 0.20863 0.22236 0.391 0.0
H2458 H 0.16235 0.23689 0.58539 0.0
H2459 H 0.17608 0.22918 0.64008 0.0
H2460 H 0.16296 0.21681 0.59889 0.0
H2461 H 0.20925 0.25783 0.4468 0.0
H2462 H 0.22254 0.24345 0.42319 0.0
H2463 H 0.2211 0.2494 0.50732 0.0
C2464 C 0.47431 0.41893 0.33717 0.0
C2465 C 0.47105 0.41029 0.39272 0.0
C2466 C 0.48717 0.41595 0.29934 0.0
C2467 C 0.49706 0.40413 0.31794 0.0
C2468 C 0.49326 0.3947 0.37108 0.0
C2469 C 0.48026 0.39784 0.40763 0.0
C2470 C 0.49068 0.42607 0.24198 0.0
C2471 C 0.50348 0.382 0.39244 0.0
C2472 C 0.52765 0.39599 0.19341 0.0
C2473 C 0.53867 0.40641 0.21289 0.0
C2474 C 0.5143 0.39427 0.22963 0.0
C2475 C 0.51216 0.40302 0.28685 0.0
C2476 C 0.52402 0.41227 0.31031 0.0
C2477 C 0.53709 0.41396 0.27264 0.0
C2478 C 0.50196 0.38426 0.20312 0.0
C2479 C 0.52238 0.42147 0.37212 0.0
H2480 H 0.46719 0.42846 0.32489 0.0
H2481 H 0.4778 0.39099 0.45021 0.0
H2482 H 0.50058 0.43323 0.25386 0.0
H2483 H 0.49362 0.41924 0.19835 0.0
H2484 H 0.48106 0.43356 0.22936 0.0
H2485 H 0.49776 0.37421 0.42701 0.0
H2486 H 0.50751 0.37543 0.34971 0.0
H2487 H 0.51355 0.38678 0.41719 0.0
H2488 H 0.52878 0.39028 0.14674 0.0
H2489 H 0.54563 0.42202 0.28761 0.0
H2490 H 0.49325 0.39135 0.1792 0.0
H2491 H 0.49637 0.3779 0.24301 0.0
H2492 H 0.50634 0.37612 0.1664 0.0
H2493 H 0.51419 0.43073 0.3637 0.0
H2494 H 0.53327 0.42651 0.38792 0.0
H2495 H 0.51794 0.41439 0.41245 0.0
loop_
_geom_bond_atom_site_label_1
_geom_bond_atom_site_label_2
_geom_bond_distance
_geom_bond_site_symmetry_2
_ccdc_geom_bond_type
O0 Cd1 2.223 . S
O0 C8 1.315 . S
Cd1 O0 2.223 . S
Cd1 O4 2.297 . S
Cd1 O5 2.439 . S
Cd1 O11 2.240 . S
Cd2 O3 2.240 . S
Cd2 O10 2.223 . S
Cd2 O12 2.297 . S
Cd2 O13 2.439 . S
O3 Cd2 2.240 . S
O3 C8 1.279 . S
O4 Cd1 2.297 . S
O4 C6 1.247 . S
O5 Cd1 2.439 . S
O5 C6 1.208 . S
C6 O4 1.247 . S
C6 O5 1.208 . S
C7 O12 1.247 . S
C7 O13 1.208 . S
C8 O0 1.315 . S
C8 O3 1.279 . S
C9 O10 1.315 . S
C9 O11 1.279 . S
O10 Cd2 2.223 . S
O10 C9 1.315 . S
O11 Cd1 2.240 . S
O11 C9 1.279 . S
O12 Cd2 2.297 . S
O12 C7 1.247 . S
O13 Cd2 2.439 . S
O13 C7 1.208 . S
O14 Cd15 2.223 . S
O14 C22 1.315 . S
Cd15 O14 2.223 . S
Cd15 O18 2.297 . S
Cd15 O19 2.439 . S
Cd15 O25 2.240 . S
Cd16 O17 2.240 . S
Cd16 O24 2.223 . S
Cd16 O26 2.297 . S
Cd16 O27 2.439 . S
O17 Cd16 2.240 . S
O17 C22 1.279 . S
O18 Cd15 2.297 . S
O18 C20 1.247 . S
O19 Cd15 2.439 . S
O19 C20 1.208 . S
C20 O18 1.247 . S
C20 O19 1.208 . S
C21 O26 1.247 . S
C21 O27 1.208 . S
C22 O14 1.315 . S
C22 O17 1.279 . S
C23 O24 1.315 . S
C23 O25 1.279 . S
O24 Cd16 2.223 . S
O24 C23 1.315 . S
O25 Cd15 2.240 . S
O25 C23 1.279 . S
O26 Cd16 2.297 . S
O26 C21 1.247 . S
O27 Cd16 2.439 . S
O27 C21 1.208 . S
O28 Cd29 2.223 . S
O28 C36 1.315 . S
Cd29 O28 2.223 . S
Cd29 O32 2.297 . S
Cd29 O33 2.439 . S
Cd29 O39 2.240 . S
Cd30 O31 2.240 . S
Cd30 O38 2.223 . S
Cd30 O40 2.297 . S
Cd30 O41 2.439 . S
O31 Cd30 2.240 . S
O31 C36 1.279 . S
O32 Cd29 2.297 . S
O32 C34 1.247 . S
O33 Cd29 2.439 . S
O33 C34 1.208 . S
C34 O32 1.247 . S
C34 O33 1.208 . S
C35 O40 1.247 . S
C35 O41 1.208 . S
C36 O28 1.315 . S
C36 O31 1.279 . S
C37 O38 1.315 . S
C37 O39 1.279 . S
O38 Cd30 2.223 . S
O38 C37 1.315 . S
O39 Cd29 2.240 . S
O39 C37 1.279 . S
O40 Cd30 2.297 . S
O40 C35 1.247 . S
O41 Cd30 2.439 . S
O41 C35 1.208 . S
O42 Cd43 2.223 . S
O42 C50 1.315 1_554 S
Cd43 O42 2.223 . S
Cd43 O46 2.297 . S
Cd43 O47 2.439 . S
Cd43 O53 2.240 . S
Cd44 O45 2.240 . S
Cd44 O52 2.223 . S
Cd44 O54 2.297 . S
Cd44 O55 2.439 . S
O45 Cd44 2.240 . S
O45 C50 1.279 1_554 S
O46 Cd43 2.297 . S
O46 C48 1.247 . S
O47 Cd43 2.439 . S
O47 C48 1.208 . S
C48 O46 1.247 . S
C48 O47 1.208 . S
C49 O54 1.247 . S
C49 O55 1.208 . S
C50 O42 1.315 1_556 S
C50 O45 1.279 1_556 S
C51 O52 1.315 . S
C51 O53 1.279 . S
O52 Cd44 2.223 . S
O52 C51 1.315 . S
O53 Cd43 2.240 . S
O53 C51 1.279 . S
O54 Cd44 2.297 . S
O54 C49 1.247 . S
O55 Cd44 2.439 . S
O55 C49 1.208 . S
O56 Cd57 2.223 . S
O56 C64 1.315 . S
Cd57 O56 2.223 . S
Cd57 O60 2.297 . S
Cd57 O61 2.439 . S
Cd57 O67 2.240 . S
Cd58 O59 2.240 . S
Cd58 O66 2.223 . S
Cd58 O68 2.297 . S
Cd58 O69 2.439 . S
O59 Cd58 2.240 . S
O59 C64 1.279 . S
O60 Cd57 2.297 . S
O60 C62 1.247 . S
O61 Cd57 2.439 . S
O61 C62 1.208 . S
C62 O60 1.247 . S
C62 O61 1.208 . S
C63 O68 1.247 . S
C63 O69 1.208 . S
C64 O56 1.315 . S
C64 O59 1.279 . S
C65 O66 1.315 . S
C65 O67 1.279 . S
O66 Cd58 2.223 . S
O66 C65 1.315 . S
O67 Cd57 2.240 . S
O67 C65 1.279 . S
O68 Cd58 2.297 . S
O68 C63 1.247 . S
O69 Cd58 2.439 . S
O69 C63 1.208 . S
O70 Cd71 2.223 . S
O70 C78 1.315 . S
Cd71 O70 2.223 . S
Cd71 O74 2.297 . S
Cd71 O75 2.439 . S
Cd71 O81 2.240 . S
Cd72 O73 2.240 . S
Cd72 O80 2.223 . S
Cd72 O82 2.297 . S
Cd72 O83 2.439 . S
O73 Cd72 2.240 . S
O73 C78 1.279 . S
O74 Cd71 2.297 . S
O74 C76 1.247 . S
O75 Cd71 2.439 . S
O75 C76 1.208 . S
C76 O74 1.247 . S
C76 O75 1.208 . S
C77 O82 1.247 . S
C77 O83 1.208 . S
C78 O70 1.315 . S
C78 O73 1.279 . S
C79 O80 1.315 . S
C79 O81 1.279 . S
O80 Cd72 2.223 . S
O80 C79 1.315 . S
O81 Cd71 2.240 . S
O81 C79 1.279 . S
O82 Cd72 2.297 . S
O82 C77 1.247 . S
O83 Cd72 2.439 . S
O83 C77 1.208 . S
O84 Cd85 2.223 . S
O84 C92 1.315 . S
Cd85 O84 2.223 . S
Cd85 O88 2.297 . S
Cd85 O89 2.439 . S
Cd85 O95 2.240 . S
Cd86 O87 2.240 . S
Cd86 O94 2.223 . S
Cd86 O96 2.297 . S
Cd86 O97 2.439 . S
O87 Cd86 2.240 . S
O87 C92 1.279 . S
O88 Cd85 2.297 . S
O88 C90 1.247 . S
O89 Cd85 2.439 . S
O89 C90 1.208 . S
C90 O88 1.247 . S
C90 O89 1.208 . S
C91 O96 1.247 . S
C91 O97 1.208 . S
C92 O84 1.315 . S
C92 O87 1.279 . S
C93 O94 1.315 . S
C93 O95 1.279 . S
O94 Cd86 2.223 . S
O94 C93 1.315 . S
O95 Cd85 2.240 . S
O95 C93 1.279 . S
O96 Cd86 2.297 . S
O96 C91 1.247 . S
O97 Cd86 2.439 . S
O97 C91 1.208 . S
O98 Cd99 2.223 . S
O98 C106 1.315 1_556 S
Cd99 O98 2.223 . S
Cd99 O102 2.297 . S
Cd99 O103 2.439 . S
Cd99 O109 2.240 . S
Cd100 O101 2.240 . S
Cd100 O108 2.223 . S
Cd100 O110 2.297 . S
Cd100 O111 2.439 . S
O101 Cd100 2.240 . S
O101 C106 1.279 1_556 S
O102 Cd99 2.297 . S
O102 C104 1.247 . S
O103 Cd99 2.439 . S
O103 C104 1.208 . S
C104 O102 1.247 . S
C104 O103 1.208 . S
C105 O110 1.247 . S
C105 O111 1.208 . S
C106 O98 1.315 1_554 S
C106 O101 1.279 1_554 S
C107 O108 1.315 . S
C107 O109 1.279 . S
O108 Cd100 2.223 . S
O108 C107 1.315 . S
O109 Cd99 2.240 . S
O109 C107 1.279 . S
O110 Cd100 2.297 . S
O110 C105 1.247 . S
O111 Cd100 2.439 . S
O111 C105 1.208 . S
O112 Cd113 2.223 . S
O112 C120 1.315 . S
Cd113 O112 2.223 . S
Cd113 O116 2.297 . S
Cd113 O117 2.439 . S
Cd113 O123 2.240 . S
Cd114 O115 2.240 . S
Cd114 O122 2.223 . S
Cd114 O124 2.297 . S
Cd114 O125 2.439 . S
O115 Cd114 2.240 . S
O115 C120 1.279 . S
O116 Cd113 2.297 . S
O116 C118 1.247 . S
O117 Cd113 2.439 . S
O117 C118 1.208 . S
C118 O116 1.247 . S
C118 O117 1.208 . S
C119 O124 1.247 . S
C119 O125 1.208 . S
C120 O112 1.315 . S
C120 O115 1.279 . S
C121 O122 1.315 . S
C121 O123 1.279 . S
O122 Cd114 2.223 . S
O122 C121 1.315 . S
O123 Cd113 2.240 . S
O123 C121 1.279 . S
O124 Cd114 2.297 . S
O124 C119 1.247 . S
O125 Cd114 2.439 . S
O125 C119 1.208 . S
O126 Cd127 2.223 . S
O126 C134 1.315 . S
Cd127 O126 2.223 . S
Cd127 O130 2.297 . S
Cd127 O131 2.439 . S
Cd127 O137 2.240 . S
Cd128 O129 2.240 . S
Cd128 O136 2.223 . S
Cd128 O138 2.297 . S
Cd128 O139 2.439 . S
O129 Cd128 2.240 . S
O129 C134 1.279 . S
O130 Cd127 2.297 . S
O130 C132 1.247 . S
O131 Cd127 2.439 . S
O131 C132 1.208 . S
C132 O130 1.247 . S
C132 O131 1.208 . S
C133 O138 1.247 . S
C133 O139 1.208 . S
C134 O126 1.315 . S
C134 O129 1.279 . S
C135 O136 1.315 . S
C135 O137 1.279 . S
O136 Cd128 2.223 . S
O136 C135 1.315 . S
O137 Cd127 2.240 . S
O137 C135 1.279 . S
O138 Cd128 2.297 . S
O138 C133 1.247 . S
O139 Cd128 2.439 . S
O139 C133 1.208 . S
O140 Cd141 2.223 . S
O140 C148 1.315 . S
Cd141 O140 2.223 . S
Cd141 O144 2.297 . S
Cd141 O145 2.439 . S
Cd141 O151 2.240 . S
Cd142 O143 2.240 . S
Cd142 O150 2.223 . S
Cd142 O152 2.297 . S
Cd142 O153 2.439 . S
O143 Cd142 2.240 . S
O143 C148 1.279 . S
O144 Cd141 2.297 . S
O144 C146 1.247 . S
O145 Cd141 2.439 . S
O145 C146 1.208 . S
C146 O144 1.247 . S
C146 O145 1.208 . S
C147 O152 1.247 . S
C147 O153 1.208 . S
C148 O140 1.315 . S
C148 O143 1.279 . S
C149 O150 1.315 . S
C149 O151 1.279 . S
O150 Cd142 2.223 . S
O150 C149 1.315 . S
O151 Cd141 2.240 . S
O151 C149 1.279 . S
O152 Cd142 2.297 . S
O152 C147 1.247 . S
O153 Cd142 2.439 . S
O153 C147 1.208 . S
O154 Cd155 2.223 . S
O154 C162 1.315 1_556 S
Cd155 O154 2.223 . S
Cd155 O158 2.297 . S
Cd155 O159 2.439 . S
Cd155 O165 2.240 . S
Cd156 O157 2.240 . S
Cd156 O164 2.223 . S
Cd156 O166 2.297 . S
Cd156 O167 2.439 . S
O157 Cd156 2.240 . S
O157 C162 1.279 1_556 S
O158 Cd155 2.297 . S
O158 C160 1.247 . S
O159 Cd155 2.439 . S
O159 C160 1.208 . S
C160 O158 1.247 . S
C160 O159 1.208 . S
C161 O166 1.247 . S
C161 O167 1.208 . S
C162 O154 1.315 1_554 S
C162 O157 1.279 1_554 S
C163 O164 1.315 . S
C163 O165 1.279 . S
O164 Cd156 2.223 . S
O164 C163 1.315 . S
O165 Cd155 2.240 . S
O165 C163 1.279 . S
O166 Cd156 2.297 . S
O166 C161 1.247 . S
O167 Cd156 2.439 . S
O167 C161 1.208 . S
O168 Cd169 2.223 . S
O168 C176 1.315 . S
Cd169 O168 2.223 . S
Cd169 O172 2.297 . S
Cd169 O173 2.439 . S
Cd169 O179 2.240 . S
Cd170 O171 2.240 . S
Cd170 O178 2.223 . S
Cd170 O180 2.297 . S
Cd170 O181 2.439 . S
O171 Cd170 2.240 . S
O171 C176 1.279 . S
O172 Cd169 2.297 . S
O172 C174 1.247 . S
O173 Cd169 2.439 . S
O173 C174 1.208 . S
C174 O172 1.247 . S
C174 O173 1.208 . S
C175 O180 1.247 . S
C175 O181 1.208 . S
C176 O168 1.315 . S
C176 O171 1.279 . S
C177 O178 1.315 . S
C177 O179 1.279 . S
O178 Cd170 2.223 . S
O178 C177 1.315 . S
O179 Cd169 2.240 . S
O179 C177 1.279 . S
O180 Cd170 2.297 . S
O180 C175 1.247 . S
O181 Cd170 2.439 . S
O181 C175 1.208 . S
O182 Cd183 2.223 . S
O182 C190 1.315 . S
Cd183 O182 2.223 . S
Cd183 O186 2.297 . S
Cd183 O187 2.439 . S
Cd183 O193 2.240 . S
Cd184 O185 2.240 . S
Cd184 O192 2.223 . S
Cd184 O194 2.297 . S
Cd184 O195 2.439 . S
O185 Cd184 2.240 . S
O185 C190 1.279 . S
O186 Cd183 2.297 . S
O186 C188 1.247 . S
O187 Cd183 2.439 . S
O187 C188 1.208 . S
C188 O186 1.247 . S
C188 O187 1.208 . S
C189 O194 1.247 . S
C189 O195 1.208 . S
C190 O182 1.315 . S
C190 O185 1.279 . S
C191 O192 1.315 . S
C191 O193 1.279 . S
O192 Cd184 2.223 . S
O192 C191 1.315 . S
O193 Cd183 2.240 . S
O193 C191 1.279 . S
O194 Cd184 2.297 . S
O194 C189 1.247 . S
O195 Cd184 2.439 . S
O195 C189 1.208 . S
O196 Cd197 2.223 . S
O196 C204 1.315 . S
Cd197 O196 2.223 . S
Cd197 O200 2.297 . S
Cd197 O201 2.439 . S
Cd197 O207 2.240 . S
Cd198 O199 2.240 . S
Cd198 O206 2.223 . S
Cd198 O208 2.297 . S
Cd198 O209 2.439 . S
O199 Cd198 2.240 . S
O199 C204 1.279 . S
O200 Cd197 2.297 . S
O200 C202 1.247 . S
O201 Cd197 2.439 . S
O201 C202 1.208 . S
C202 O200 1.247 . S
C202 O201 1.208 . S
C203 O208 1.247 . S
C203 O209 1.208 . S
C204 O196 1.315 . S
C204 O199 1.279 . S
C205 O206 1.315 . S
C205 O207 1.279 . S
O206 Cd198 2.223 . S
O206 C205 1.315 . S
O207 Cd197 2.240 . S
O207 C205 1.279 . S
O208 Cd198 2.297 . S
O208 C203 1.247 . S
O209 Cd198 2.439 . S
O209 C203 1.208 . S
O210 Cd211 2.223 . S
O210 C218 1.315 1_554 S
Cd211 O210 2.223 . S
Cd211 O214 2.297 . S
Cd211 O215 2.439 . S
Cd211 O221 2.240 . S
Cd212 O213 2.240 . S
Cd212 O220 2.223 . S
Cd212 O222 2.297 . S
Cd212 O223 2.439 . S
O213 Cd212 2.240 . S
O213 C218 1.279 1_554 S
O214 Cd211 2.297 . S
O214 C216 1.247 . S
O215 Cd211 2.439 . S
O215 C216 1.208 . S
C216 O214 1.247 . S
C216 O215 1.208 . S
C217 O222 1.247 . S
C217 O223 1.208 . S
C218 O210 1.315 1_556 S
C218 O213 1.279 1_556 S
C219 O220 1.315 . S
C219 O221 1.279 . S
O220 Cd212 2.223 . S
O220 C219 1.315 . S
O221 Cd211 2.240 . S
O221 C219 1.279 . S
O222 Cd212 2.297 . S
O222 C217 1.247 . S
O223 Cd212 2.439 . S
O223 C217 1.208 . S
O224 Cd225 2.223 . S
O224 C232 1.315 . S
Cd225 O224 2.223 . S
Cd225 O228 2.297 . S
Cd225 O229 2.439 . S
Cd225 O235 2.240 . S
Cd226 O227 2.240 . S
Cd226 O234 2.223 . S
Cd226 O236 2.297 . S
Cd226 O237 2.439 . S
O227 Cd226 2.240 . S
O227 C232 1.279 . S
O228 Cd225 2.297 . S
O228 C230 1.247 . S
O229 Cd225 2.439 . S
O229 C230 1.208 . S
C230 O228 1.247 . S
C230 O229 1.208 . S
C231 O236 1.247 . S
C231 O237 1.208 . S
C232 O224 1.315 . S
C232 O227 1.279 . S
C233 O234 1.315 . S
C233 O235 1.279 . S
O234 Cd226 2.223 . S
O234 C233 1.315 . S
O235 Cd225 2.240 . S
O235 C233 1.279 . S
O236 Cd226 2.297 . S
O236 C231 1.247 . S
O237 Cd226 2.439 . S
O237 C231 1.208 . S
O238 Cd239 2.223 . S
O238 C246 1.315 1_554 S
Cd239 O238 2.223 . S
Cd239 O242 2.297 . S
Cd239 O243 2.439 . S
Cd239 O249 2.240 . S
Cd240 O241 2.240 . S
Cd240 O248 2.223 . S
Cd240 O250 2.297 . S
Cd240 O251 2.439 . S
O241 Cd240 2.240 . S
O241 C246 1.279 1_554 S
O242 Cd239 2.297 . S
O242 C244 1.247 . S
O243 Cd239 2.439 . S
O243 C244 1.208 . S
C244 O242 1.247 . S
C244 O243 1.208 . S
C245 O250 1.247 . S
C245 O251 1.208 . S
C246 O238 1.315 1_556 S
C246 O241 1.279 1_556 S
C247 O248 1.315 . S
C247 O249 1.279 . S
O248 Cd240 2.223 . S
O248 C247 1.315 . S
O249 Cd239 2.240 . S
O249 C247 1.279 . S
O250 Cd240 2.297 . S
O250 C245 1.247 . S
O251 Cd240 2.439 . S
O251 C245 1.208 . S
O252 Cd253 2.223 . S
O252 C260 1.315 . S
Cd253 O252 2.223 . S
Cd253 O256 2.297 . S
Cd253 O257 2.439 . S
Cd253 O263 2.240 . S
Cd254 O255 2.240 . S
Cd254 O262 2.223 . S
Cd254 O264 2.297 . S
Cd254 O265 2.439 . S
O255 Cd254 2.240 . S
O255 C260 1.279 . S
O256 Cd253 2.297 . S
O256 C258 1.247 . S
O257 Cd253 2.439 . S
O257 C258 1.208 . S
C258 O256 1.247 . S
C258 O257 1.208 . S
C259 O264 1.247 . S
C259 O265 1.208 . S
C260 O252 1.315 . S
C260 O255 1.279 . S
C261 O262 1.315 . S
C261 O263 1.279 . S
O262 Cd254 2.223 . S
O262 C261 1.315 . S
O263 Cd253 2.240 . S
O263 C261 1.279 . S
O264 Cd254 2.297 . S
O264 C259 1.247 . S
O265 Cd254 2.439 . S
O265 C259 1.208 . S
O266 Cd267 2.223 . S
O266 C274 1.315 . S
Cd267 O266 2.223 . S
Cd267 O270 2.297 . S
Cd267 O271 2.439 . S
Cd267 O277 2.240 . S
Cd268 O269 2.240 . S
Cd268 O276 2.223 . S
Cd268 O278 2.297 . S
Cd268 O279 2.439 . S
O269 Cd268 2.240 . S
O269 C274 1.279 . S
O270 Cd267 2.297 . S
O270 C272 1.247 . S
O271 Cd267 2.439 . S
O271 C272 1.208 . S
C272 O270 1.247 . S
C272 O271 1.208 . S
C273 O278 1.247 . S
C273 O279 1.208 . S
C274 O266 1.315 . S
C274 O269 1.279 . S
C275 O276 1.315 . S
C275 O277 1.279 . S
O276 Cd268 2.223 . S
O276 C275 1.315 . S
O277 Cd267 2.240 . S
O277 C275 1.279 . S
O278 Cd268 2.297 . S
O278 C273 1.247 . S
O279 Cd268 2.439 . S
O279 C273 1.208 . S
O280 Cd281 2.223 . S
O280 C288 1.315 . S
Cd281 O280 2.223 . S
Cd281 O284 2.297 . S
Cd281 O285 2.439 . S
Cd281 O291 2.240 . S
Cd282 O283 2.240 . S
Cd282 O290 2.223 . S
Cd282 O292 2.297 . S
Cd282 O293 2.439 . S
O283 Cd282 2.240 . S
O283 C288 1.279 . S
O284 Cd281 2.297 . S
O284 C286 1.247 . S
O285 Cd281 2.439 . S
O285 C286 1.208 . S
C286 O284 1.247 . S
C286 O285 1.208 . S
C287 O292 1.247 . S
C287 O293 1.208 . S
C288 O280 1.315 . S
C288 O283 1.279 . S
C289 O290 1.315 . S
C289 O291 1.279 . S
O290 Cd282 2.223 . S
O290 C289 1.315 . S
O291 Cd281 2.240 . S
O291 C289 1.279 . S
O292 Cd282 2.297 . S
O292 C287 1.247 . S
O293 Cd282 2.439 . S
O293 C287 1.208 . S
O294 Cd295 2.223 . S
O294 C302 1.315 1_556 S
Cd295 O294 2.223 . S
Cd295 O298 2.297 . S
Cd295 O299 2.439 . S
Cd295 O305 2.240 . S
Cd296 O297 2.240 . S
Cd296 O304 2.223 . S
Cd296 O306 2.297 . S
Cd296 O307 2.439 . S
O297 Cd296 2.240 . S
O297 C302 1.279 1_556 S
O298 Cd295 2.297 . S
O298 C300 1.247 . S
O299 Cd295 2.439 . S
O299 C300 1.208 . S
C300 O298 1.247 . S
C300 O299 1.208 . S
C301 O306 1.247 . S
C301 O307 1.208 . S
C302 O294 1.315 1_554 S
C302 O297 1.279 1_554 S
C303 O304 1.315 . S
C303 O305 1.279 . S
O304 Cd296 2.223 . S
O304 C303 1.315 . S
O305 Cd295 2.240 . S
O305 C303 1.279 . S
O306 Cd296 2.297 . S
O306 C301 1.247 . S
O307 Cd296 2.439 . S
O307 C301 1.208 . S
O308 Cd309 2.223 . S
O308 C316 1.315 . S
Cd309 O308 2.223 . S
Cd309 O312 2.297 . S
Cd309 O313 2.439 . S
Cd309 O319 2.240 . S
Cd310 O311 2.240 . S
Cd310 O318 2.223 . S
Cd310 O320 2.297 . S
Cd310 O321 2.439 . S
O311 Cd310 2.240 . S
O311 C316 1.279 . S
O312 Cd309 2.297 . S
O312 C314 1.247 . S
O313 Cd309 2.439 . S
O313 C314 1.208 . S
C314 O312 1.247 . S
C314 O313 1.208 . S
C315 O320 1.247 . S
C315 O321 1.208 . S
C316 O308 1.315 . S
C316 O311 1.279 . S
C317 O318 1.315 . S
C317 O319 1.279 . S
O318 Cd310 2.223 . S
O318 C317 1.315 . S
O319 Cd309 2.240 . S
O319 C317 1.279 . S
O320 Cd310 2.297 . S
O320 C315 1.247 . S
O321 Cd310 2.439 . S
O321 C315 1.208 . S
O322 Cd323 2.223 . S
O322 C330 1.315 . S
Cd323 O322 2.223 . S
Cd323 O326 2.297 . S
Cd323 O327 2.439 . S
Cd323 O333 2.240 . S
Cd324 O325 2.240 . S
Cd324 O332 2.223 . S
Cd324 O334 2.297 . S
Cd324 O335 2.439 . S
O325 Cd324 2.240 . S
O325 C330 1.279 . S
O326 Cd323 2.297 . S
O326 C328 1.247 . S
O327 Cd323 2.439 . S
O327 C328 1.208 . S
C328 O326 1.247 . S
C328 O327 1.208 . S
C329 O334 1.247 . S
C329 O335 1.208 . S
C330 O322 1.315 . S
C330 O325 1.279 . S
C331 O332 1.315 . S
C331 O333 1.279 . S
O332 Cd324 2.223 . S
O332 C331 1.315 . S
O333 Cd323 2.240 . S
O333 C331 1.279 . S
O334 Cd324 2.297 . S
O334 C329 1.247 . S
O335 Cd324 2.439 . S
O335 C329 1.208 . S
O336 Cd337 2.223 . S
O336 C344 1.315 . S
Cd337 O336 2.223 . S
Cd337 O340 2.297 . S
Cd337 O341 2.439 . S
Cd337 O347 2.240 . S
Cd338 O339 2.240 . S
Cd338 O346 2.223 . S
Cd338 O348 2.297 . S
Cd338 O349 2.439 . S
O339 Cd338 2.240 . S
O339 C344 1.279 . S
O340 Cd337 2.297 . S
O340 C342 1.247 . S
O341 Cd337 2.439 . S
O341 C342 1.208 . S
C342 O340 1.247 . S
C342 O341 1.208 . S
C343 O348 1.247 . S
C343 O349 1.208 . S
C344 O336 1.315 . S
C344 O339 1.279 . S
C345 O346 1.315 . S
C345 O347 1.279 . S
O346 Cd338 2.223 . S
O346 C345 1.315 . S
O347 Cd337 2.240 . S
O347 C345 1.279 . S
O348 Cd338 2.297 . S
O348 C343 1.247 . S
O349 Cd338 2.439 . S
O349 C343 1.208 . S
O350 Cd351 2.223 . S
O350 C358 1.315 1_556 S
Cd351 O350 2.223 . S
Cd351 O354 2.297 . S
Cd351 O355 2.439 . S
Cd351 O361 2.240 . S
Cd352 O353 2.240 . S
Cd352 O360 2.223 . S
Cd352 O362 2.297 . S
Cd352 O363 2.439 . S
O353 Cd352 2.240 . S
O353 C358 1.279 1_556 S
O354 Cd351 2.297 . S
O354 C356 1.247 . S
O355 Cd351 2.439 . S
O355 C356 1.208 . S
C356 O354 1.247 . S
C356 O355 1.208 . S
C357 O362 1.247 . S
C357 O363 1.208 . S
C358 O350 1.315 1_554 S
C358 O353 1.279 1_554 S
C359 O360 1.315 . S
C359 O361 1.279 . S
O360 Cd352 2.223 . S
O360 C359 1.315 . S
O361 Cd351 2.240 . S
O361 C359 1.279 . S
O362 Cd352 2.297 . S
O362 C357 1.247 . S
O363 Cd352 2.439 . S
O363 C357 1.208 . S
O364 Cd365 2.223 . S
O364 C372 1.315 . S
Cd365 O364 2.223 . S
Cd365 O368 2.297 . S
Cd365 O369 2.439 . S
Cd365 O375 2.240 . S
Cd366 O367 2.240 . S
Cd366 O374 2.223 . S
Cd366 O376 2.297 . S
Cd366 O377 2.439 . S
O367 Cd366 2.240 . S
O367 C372 1.279 . S
O368 Cd365 2.297 . S
O368 C370 1.247 . S
O369 Cd365 2.439 . S
O369 C370 1.208 . S
C370 O368 1.247 . S
C370 O369 1.208 . S
C371 O376 1.247 . S
C371 O377 1.208 . S
C372 O364 1.315 . S
C372 O367 1.279 . S
C373 O374 1.315 . S
C373 O375 1.279 . S
O374 Cd366 2.223 . S
O374 C373 1.315 . S
O375 Cd365 2.240 . S
O375 C373 1.279 . S
O376 Cd366 2.297 . S
O376 C371 1.247 . S
O377 Cd366 2.439 . S
O377 C371 1.208 . S
O378 Cd379 2.223 . S
O378 C386 1.315 . S
Cd379 O378 2.223 . S
Cd379 O382 2.297 . S
Cd379 O383 2.439 . S
Cd379 O389 2.240 . S
Cd380 O381 2.240 . S
Cd380 O388 2.223 . S
Cd380 O390 2.297 . S
Cd380 O391 2.439 . S
O381 Cd380 2.240 . S
O381 C386 1.279 . S
O382 Cd379 2.297 . S
O382 C384 1.247 . S
O383 Cd379 2.439 . S
O383 C384 1.208 . S
C384 O382 1.247 . S
C384 O383 1.208 . S
C385 O390 1.247 . S
C385 O391 1.208 . S
C386 O378 1.315 . S
C386 O381 1.279 . S
C387 O388 1.315 . S
C387 O389 1.279 . S
O388 Cd380 2.223 . S
O388 C387 1.315 . S
O389 Cd379 2.240 . S
O389 C387 1.279 . S
O390 Cd380 2.297 . S
O390 C385 1.247 . S
O391 Cd380 2.439 . S
O391 C385 1.208 . S
O392 Cd393 2.223 . S
O392 C400 1.315 . S
Cd393 O392 2.223 . S
Cd393 O396 2.297 . S
Cd393 O397 2.439 . S
Cd393 O403 2.240 . S
Cd394 O395 2.240 . S
Cd394 O402 2.223 . S
Cd394 O404 2.297 . S
Cd394 O405 2.439 . S
O395 Cd394 2.240 . S
O395 C400 1.279 . S
O396 Cd393 2.297 . S
O396 C398 1.247 . S
O397 Cd393 2.439 . S
O397 C398 1.208 . S
C398 O396 1.247 . S
C398 O397 1.208 . S
C399 O404 1.247 . S
C399 O405 1.208 . S
C400 O392 1.315 . S
C400 O395 1.279 . S
C401 O402 1.315 . S
C401 O403 1.279 . S
O402 Cd394 2.223 . S
O402 C401 1.315 . S
O403 Cd393 2.240 . S
O403 C401 1.279 . S
O404 Cd394 2.297 . S
O404 C399 1.247 . S
O405 Cd394 2.439 . S
O405 C399 1.208 . S
O406 Cd407 2.223 . S
O406 C414 1.315 1_554 S
Cd407 O406 2.223 . S
Cd407 O410 2.297 . S
Cd407 O411 2.439 . S
Cd407 O417 2.240 . S
Cd408 O409 2.240 . S
Cd408 O416 2.223 . S
Cd408 O418 2.297 . S
Cd408 O419 2.439 . S
O409 Cd408 2.240 . S
O409 C414 1.279 1_554 S
O410 Cd407 2.297 . S
O410 C412 1.247 . S
O411 Cd407 2.439 . S
O411 C412 1.208 . S
C412 O410 1.247 . S
C412 O411 1.208 . S
C413 O418 1.247 . S
C413 O419 1.208 . S
C414 O406 1.315 1_556 S
C414 O409 1.279 1_556 S
C415 O416 1.315 . S
C415 O417 1.279 . S
O416 Cd408 2.223 . S
O416 C415 1.315 . S
O417 Cd407 2.240 . S
O417 C415 1.279 . S
O418 Cd408 2.297 . S
O418 C413 1.247 . S
O419 Cd408 2.439 . S
O419 C413 1.208 . S
O420 Cd421 2.223 . S
O420 C428 1.315 . S
Cd421 O420 2.223 . S
Cd421 O424 2.297 . S
Cd421 O425 2.439 . S
Cd421 O431 2.240 . S
Cd422 O423 2.240 . S
Cd422 O430 2.223 . S
Cd422 O432 2.297 . S
Cd422 O433 2.439 . S
O423 Cd422 2.240 . S
O423 C428 1.279 . S
O424 Cd421 2.297 . S
O424 C426 1.247 . S
O425 Cd421 2.439 . S
O425 C426 1.208 . S
C426 O424 1.247 . S
C426 O425 1.208 . S
C427 O432 1.247 . S
C427 O433 1.208 . S
C428 O420 1.315 . S
C428 O423 1.279 . S
C429 O430 1.315 . S
C429 O431 1.279 . S
O430 Cd422 2.223 . S
O430 C429 1.315 . S
O431 Cd421 2.240 . S
O431 C429 1.279 . S
O432 Cd422 2.297 . S
O432 C427 1.247 . S
O433 Cd422 2.439 . S
O433 C427 1.208 . S
O434 Cd435 2.223 . S
O434 C442 1.315 . S
Cd435 O434 2.223 . S
Cd435 O438 2.297 . S
Cd435 O439 2.439 . S
Cd435 O445 2.240 . S
Cd436 O437 2.240 . S
Cd436 O444 2.223 . S
Cd436 O446 2.297 . S
Cd436 O447 2.439 . S
O437 Cd436 2.240 . S
O437 C442 1.279 . S
O438 Cd435 2.297 . S
O438 C440 1.247 . S
O439 Cd435 2.439 . S
O439 C440 1.208 . S
C440 O438 1.247 . S
C440 O439 1.208 . S
C441 O446 1.247 . S
C441 O447 1.208 . S
C442 O434 1.315 . S
C442 O437 1.279 . S
C443 O444 1.315 . S
C443 O445 1.279 . S
O444 Cd436 2.223 . S
O444 C443 1.315 . S
O445 Cd435 2.240 . S
O445 C443 1.279 . S
O446 Cd436 2.297 . S
O446 C441 1.247 . S
O447 Cd436 2.439 . S
O447 C441 1.208 . S
C448 C449 1.391 . S
C448 C450 1.394 . S
C448 H464 0.931 . S
C449 C448 1.391 . S
C449 C453 1.376 . S
C450 C448 1.394 . S
C450 C451 1.369 . S
C450 C454 1.531 . S
C451 C450 1.369 . S
C451 C452 1.410 . S
C451 C459 1.503 . S
C452 C451 1.410 . S
C452 C453 1.392 . S
C452 C455 1.511 . S
C453 C449 1.376 . S
C453 C452 1.392 . S
C453 H465 0.929 . S
C454 C450 1.531 . S
C454 H466 0.960 . S
C454 H467 0.962 . S
C454 H468 0.960 . S
C455 C452 1.511 . S
C455 H469 0.961 . S
C455 H470 0.961 . S
C455 H471 0.961 . S
C456 C457 1.370 . S
C456 C458 1.363 . S
C456 H472 0.931 . S
C457 C456 1.370 . S
C457 C461 1.408 . S
C458 C456 1.363 . S
C458 C459 1.370 . S
C458 C462 1.524 . S
C459 C451 1.503 . S
C459 C458 1.370 . S
C459 C460 1.403 . S
C460 C459 1.403 . S
C460 C461 1.404 . S
C460 C463 1.539 . S
C461 C457 1.408 . S
C461 C460 1.404 . S
C461 H473 0.930 . S
C462 C458 1.524 . S
C462 H474 0.956 . S
C462 H475 0.961 . S
C462 H476 0.961 . S
C463 C460 1.539 . S
C463 H477 0.958 . S
C463 H478 0.961 . S
C463 H479 0.960 . S
H464 C448 0.931 . S
H465 C453 0.929 . S
H466 C454 0.960 . S
H467 C454 0.962 . S
H468 C454 0.960 . S
H469 C455 0.961 . S
H470 C455 0.961 . S
H471 C455 0.961 . S
H472 C456 0.931 . S
H473 C461 0.930 . S
H474 C462 0.956 . S
H475 C462 0.961 . S
H476 C462 0.961 . S
H477 C463 0.958 . S
H478 C463 0.961 . S
H479 C463 0.960 . S
C480 C481 1.391 . S
C480 C482 1.394 . S
C480 H496 0.931 . S
C481 C480 1.391 . S
C481 C485 1.376 . S
C482 C480 1.394 . S
C482 C483 1.369 . S
C482 C486 1.531 . S
C483 C482 1.369 . S
C483 C484 1.410 . S
C483 C491 1.503 1_565 S
C484 C483 1.410 . S
C484 C485 1.392 . S
C484 C487 1.470 1_565 S
C485 C481 1.376 . S
C485 C484 1.392 . S
C485 H497 0.929 . S
C486 C482 1.531 . S
C486 H498 0.960 . S
C486 H499 0.962 . S
C486 H500 0.960 . S
C487 C484 1.470 1_545 S
C487 H501 0.933 1_545 S
C487 H502 1.004 . S
C487 H503 0.992 . S
C488 C489 1.370 . S
C488 C490 1.363 . S
C488 H504 0.931 . S
C489 C488 1.370 . S
C489 C493 1.408 . S
C490 C488 1.363 . S
C490 C491 1.370 . S
C490 C494 1.524 1_545 S
C491 C483 1.503 1_545 S
C491 C490 1.370 . S
C491 C492 1.403 . S
C492 C491 1.403 . S
C492 C493 1.404 . S
C492 C495 1.539 . S
C493 C489 1.408 . S
C493 C492 1.404 . S
C493 H505 0.930 . S
C494 C490 1.524 1_565 S
C494 H506 0.956 . S
C494 H507 0.961 . S
C494 H508 0.961 1_565 S
C495 C492 1.539 . S
C495 H509 0.958 . S
C495 H510 0.961 . S
C495 H511 0.960 . S
H496 C480 0.931 . S
H497 C485 0.929 . S
H498 C486 0.960 . S
H499 C486 0.962 . S
H500 C486 0.960 . S
H501 C487 0.933 1_565 S
H502 C487 1.004 . S
H503 C487 0.992 . S
H504 C488 0.931 . S
H505 C493 0.930 . S
H506 C494 0.956 . S
H507 C494 0.961 . S
H508 C494 0.961 1_545 S
H509 C495 0.958 . S
H510 C495 0.961 . S
H511 C495 0.960 . S
C512 C513 1.391 . S
C512 C514 1.394 . S
C512 H528 0.931 . S
C513 C512 1.391 . S
C513 C517 1.392 . S
C514 C512 1.394 . S
C514 C515 1.369 . S
C514 C518 1.531 . S
C515 C514 1.369 . S
C515 C516 1.410 1_554 S
C515 C523 1.503 1_554 S
C516 C515 1.410 1_556 S
C516 C517 1.386 1_556 S
C516 C519 1.511 . S
C517 C513 1.392 . S
C517 C516 1.386 1_554 S
C517 H529 0.919 1_554 S
C518 C514 1.531 . S
C518 H530 0.960 . S
C518 H531 0.962 . S
C518 H532 0.960 . S
C519 C516 1.511 . S
C519 H533 0.961 . S
C519 H534 0.961 . S
C519 H535 0.961 . S
C520 C521 1.370 . S
C520 C522 1.363 . S
C520 H536 0.931 . S
C521 C520 1.370 . S
C521 C525 1.408 . S
C522 C520 1.363 . S
C522 C523 1.370 . S
C522 C526 1.524 . S
C523 C515 1.503 1_556 S
C523 C522 1.370 . S
C523 C524 1.403 . S
C524 C523 1.403 . S
C524 C525 1.404 . S
C524 C527 1.539 . S
C525 C521 1.408 . S
C525 C524 1.404 . S
C525 H537 0.930 . S
C526 C522 1.524 . S
C526 H538 0.956 1_556 S
C526 H539 0.961 . S
C526 H540 0.961 . S
C527 C524 1.539 . S
C527 H541 0.958 1_556 S
C527 H542 0.961 . S
C527 H543 0.960 . S
H528 C512 0.931 . S
H529 C517 0.919 1_556 S
H530 C518 0.960 . S
H531 C518 0.962 . S
H532 C518 0.960 . S
H533 C519 0.961 . S
H534 C519 0.961 . S
H535 C519 0.961 . S
H536 C520 0.931 . S
H537 C525 0.930 . S
H538 C526 0.956 1_554 S
H539 C526 0.961 . S
H540 C526 0.961 . S
H541 C527 0.958 1_554 S
H542 C527 0.961 . S
H543 C527 0.960 . S
C544 C545 1.391 . S
C544 C546 1.394 . S
C544 H560 0.931 . S
C545 C544 1.391 . S
C545 C549 1.376 . S
C546 C544 1.394 . S
C546 C547 1.369 . S
C546 C550 1.531 . S
C547 C546 1.369 . S
C547 C548 1.410 . S
C547 C555 1.503 1_545 S
C548 C547 1.410 . S
C548 C549 1.392 . S
C548 C551 1.511 . S
C549 C545 1.376 . S
C549 C548 1.392 . S
C549 H561 0.929 . S
C550 C546 1.531 . S
C550 H562 0.960 . S
C550 H563 0.962 . S
C550 H564 0.960 . S
C551 C548 1.511 . S
C551 H565 0.961 . S
C551 H566 0.961 1_545 S
C551 H567 0.961 . S
C552 C553 1.370 . S
C552 C554 1.363 . S
C552 H568 0.931 . S
C553 C552 1.370 . S
C553 C557 1.408 . S
C554 C552 1.363 . S
C554 C555 1.370 . S
C554 C558 1.524 . S
C555 C547 1.503 1_565 S
C555 C554 1.370 . S
C555 C556 1.403 . S
C556 C555 1.403 . S
C556 C557 1.404 . S
C556 C559 1.508 1_565 S
C557 C553 1.408 . S
C557 C556 1.404 . S
C557 H569 0.930 . S
C558 C554 1.524 . S
C558 H570 0.956 . S
C558 H571 0.961 . S
C558 H572 0.961 . S
C559 C556 1.508 1_545 S
C559 H573 0.981 . S
C559 H574 0.939 1_545 S
C559 H575 0.994 . S
H560 C544 0.931 . S
H561 C549 0.929 . S
H562 C550 0.960 . S
H563 C550 0.962 . S
H564 C550 0.960 . S
H565 C551 0.961 . S
H566 C551 0.961 1_565 S
H567 C551 0.961 . S
H568 C552 0.931 . S
H569 C557 0.930 . S
H570 C558 0.956 . S
H571 C558 0.961 . S
H572 C558 0.961 . S
H573 C559 0.981 . S
H574 C559 0.939 1_565 S
H575 C559 0.994 . S
C576 C577 1.391 . S
C576 C578 1.394 . S
C576 H592 0.931 . S
C577 C576 1.391 . S
C577 C581 1.376 . S
C578 C576 1.394 . S
C578 C579 1.369 . S
C578 C582 1.531 . S
C579 C578 1.369 . S
C579 C580 1.410 . S
C579 C587 1.503 . S
C580 C579 1.410 . S
C580 C581 1.392 . S
C580 C583 1.511 . S
C581 C577 1.376 . S
C581 C580 1.392 . S
C581 H593 0.929 . S
C582 C578 1.531 . S
C582 H594 0.960 . S
C582 H595 0.962 . S
C582 H596 0.960 . S
C583 C580 1.511 . S
C583 H597 0.961 . S
C583 H598 0.961 . S
C583 H599 0.961 . S
C584 C585 1.370 . S
C584 C586 1.363 . S
C584 H600 0.931 . S
C585 C584 1.370 . S
C585 C589 1.408 . S
C586 C584 1.363 . S
C586 C587 1.370 . S
C586 C590 1.524 . S
C587 C579 1.503 . S
C587 C586 1.370 . S
C587 C588 1.403 . S
C588 C587 1.403 . S
C588 C589 1.404 . S
C588 C591 1.539 . S
C589 C585 1.408 . S
C589 C588 1.404 . S
C589 H601 0.930 . S
C590 C586 1.524 . S
C590 H602 0.956 . S
C590 H603 0.961 . S
C590 H604 0.961 . S
C591 C588 1.539 . S
C591 H605 0.958 . S
C591 H606 0.961 . S
C591 H607 0.960 . S
H592 C576 0.931 . S
H593 C581 0.929 . S
H594 C582 0.960 . S
H595 C582 0.962 . S
H596 C582 0.960 . S
H597 C583 0.961 . S
H598 C583 0.961 . S
H599 C583 0.961 . S
H600 C584 0.931 . S
H601 C589 0.930 . S
H602 C590 0.956 . S
H603 C590 0.961 . S
H604 C590 0.961 . S
H605 C591 0.958 . S
H606 C591 0.961 . S
H607 C591 0.960 . S
C608 C609 1.391 . S
C608 C610 1.394 . S
C608 H624 0.931 . S
C609 C608 1.391 . S
C609 C613 1.376 . S
C610 C608 1.394 . S
C610 C611 1.369 . S
C610 C614 1.531 1_545 S
C611 C610 1.369 . S
C611 C612 1.410 . S
C611 C619 1.503 1_545 S
C612 C611 1.410 . S
C612 C613 1.392 . S
C612 C615 1.511 . S
C613 C609 1.376 . S
C613 C612 1.392 . S
C613 H625 0.929 . S
C614 C610 1.531 1_565 S
C614 H626 0.960 . S
C614 H627 0.962 . S
C614 H628 0.977 . S
C615 C612 1.511 . S
C615 H629 0.961 . S
C615 H630 0.961 . S
C615 H631 0.961 . S
C616 C617 1.370 . S
C616 C618 1.363 . S
C616 H632 0.931 . S
C617 C616 1.370 . S
C617 C621 1.408 . S
C618 C616 1.363 . S
C618 C619 1.370 . S
C618 C622 1.524 . S
C619 C611 1.503 1_565 S
C619 C618 1.370 . S
C619 C620 1.403 . S
C620 C619 1.403 . S
C620 C621 1.404 . S
C620 C623 1.539 . S
C621 C617 1.408 . S
C621 C620 1.404 . S
C621 H633 0.930 . S
C622 C618 1.524 . S
C622 H634 0.956 . S
C622 H635 0.961 1_565 S
C622 H636 0.961 . S
C623 C620 1.539 . S
C623 H637 0.958 . S
C623 H638 0.961 . S
C623 H639 0.960 1_565 S
H624 C608 0.931 . S
H625 C613 0.929 . S
H626 C614 0.960 . S
H627 C614 0.962 . S
H628 C614 0.977 . S
H629 C615 0.961 . S
H630 C615 0.961 . S
H631 C615 0.961 . S
H632 C616 0.931 . S
H633 C621 0.930 . S
H634 C622 0.956 . S
H635 C622 0.961 1_545 S
H636 C622 0.961 . S
H637 C623 0.958 . S
H638 C623 0.961 . S
H639 C623 0.960 1_545 S
C640 C641 1.391 . S
C640 C642 1.394 . S
C640 H656 0.931 . S
C641 C640 1.391 . S
C641 C645 1.376 . S
C642 C640 1.394 . S
C642 C643 1.369 . S
C642 C646 1.531 1_556 S
C643 C642 1.369 . S
C643 C644 1.410 . S
C643 C651 1.503 1_556 S
C644 C643 1.410 . S
C644 C645 1.392 . S
C644 C647 1.511 . S
C645 C641 1.376 . S
C645 C644 1.392 . S
C645 H657 0.929 . S
C646 C642 1.531 1_554 S
C646 H658 0.960 . S
C646 H659 0.962 . S
C646 H660 0.960 . S
C647 C644 1.511 . S
C647 H661 0.961 . S
C647 H662 0.961 . S
C647 H663 0.961 . S
C648 C649 1.370 . S
C648 C650 1.363 . S
C648 H664 0.931 . S
C649 C648 1.370 . S
C649 C653 1.408 . S
C650 C648 1.363 . S
C650 C651 1.370 . S
C650 C654 1.524 . S
C651 C643 1.503 1_554 S
C651 C650 1.370 . S
C651 C652 1.403 1_554 S
C652 C651 1.403 1_556 S
C652 C653 1.404 1_556 S
C652 C655 1.539 . S
C653 C649 1.408 . S
C653 C652 1.404 1_554 S
C653 H665 0.930 1_554 S
C654 C650 1.524 . S
C654 H666 0.956 . S
C654 H667 0.961 . S
C654 H668 0.961 . S
C655 C652 1.539 . S
C655 H669 0.958 . S
C655 H670 0.961 . S
C655 H671 0.960 . S
H656 C640 0.931 . S
H657 C645 0.929 . S
H658 C646 0.960 . S
H659 C646 0.962 . S
H660 C646 0.960 . S
H661 C647 0.961 . S
H662 C647 0.961 . S
H663 C647 0.961 . S
H664 C648 0.931 . S
H665 C653 0.930 1_556 S
H666 C654 0.956 . S
H667 C654 0.961 . S
H668 C654 0.961 . S
H669 C655 0.958 . S
H670 C655 0.961 . S
H671 C655 0.960 . S
C672 C673 1.391 . S
C672 C674 1.394 . S
C672 H688 0.931 . S
C673 C672 1.391 . S
C673 C677 1.376 . S
C674 C672 1.394 . S
C674 C675 1.369 . S
C674 C678 1.531 . S
C675 C674 1.369 . S
C675 C676 1.410 . S
C675 C683 1.503 1_565 S
C676 C675 1.410 . S
C676 C677 1.392 . S
C676 C679 1.494 1_565 S
C677 C673 1.376 . S
C677 C676 1.392 . S
C677 H689 0.929 . S
C678 C674 1.531 . S
C678 H690 0.960 . S
C678 H691 0.962 . S
C678 H692 0.960 . S
C679 C676 1.494 1_545 S
C679 H693 0.957 1_545 S
C679 H694 0.983 . S
C679 H695 0.960 . S
C680 C681 1.370 . S
C680 C682 1.363 . S
C680 H696 0.931 . S
C681 C680 1.370 . S
C681 C685 1.408 . S
C682 C680 1.363 . S
C682 C683 1.370 . S
C682 C686 1.524 . S
C683 C675 1.503 1_545 S
C683 C682 1.370 . S
C683 C684 1.403 . S
C684 C683 1.403 . S
C684 C685 1.404 . S
C684 C687 1.539 . S
C685 C681 1.408 . S
C685 C684 1.404 . S
C685 H697 0.930 . S
C686 C682 1.524 . S
C686 H698 0.956 . S
C686 H699 0.961 . S
C686 H700 0.961 . S
C687 C684 1.539 . S
C687 H701 0.958 1_545 S
C687 H702 0.961 . S
C687 H703 0.960 1_545 S
H688 C672 0.931 . S
H689 C677 0.929 . S
H690 C678 0.960 . S
H691 C678 0.962 . S
H692 C678 0.960 . S
H693 C679 0.957 1_565 S
H694 C679 0.983 . S
H695 C679 0.960 . S
H696 C680 0.931 . S
H697 C685 0.930 . S
H698 C686 0.956 . S
H699 C686 0.961 . S
H700 C686 0.961 . S
H701 C687 0.958 1_565 S
H702 C687 0.961 . S
H703 C687 0.960 1_565 S
C704 C705 1.391 . S
C704 C706 1.394 . S
C704 H720 0.931 . S
C705 C704 1.391 . S
C705 C709 1.376 . S
C706 C704 1.394 . S
C706 C707 1.369 . S
C706 C710 1.531 1_556 S
C707 C706 1.369 . S
C707 C708 1.410 . S
C707 C715 1.503 1_556 S
C708 C707 1.410 . S
C708 C709 1.392 . S
C708 C711 1.511 . S
C709 C705 1.376 . S
C709 C708 1.392 . S
C709 H721 0.929 . S
C710 C706 1.531 1_554 S
C710 H722 0.960 . S
C710 H723 0.962 1_554 S
C710 H724 0.960 . S
C711 C708 1.511 . S
C711 H725 0.961 . S
C711 H726 0.961 . S
C711 H727 0.961 1_556 S
C712 C713 1.370 . S
C712 C714 1.363 1_554 S
C712 H728 0.931 1_554 S
C713 C712 1.370 . S
C713 C717 1.408 . S
C714 C712 1.363 1_556 S
C714 C715 1.370 1_556 S
C714 C718 1.524 . S
C715 C707 1.503 1_554 S
C715 C714 1.370 1_554 S
C715 C716 1.403 . S
C716 C715 1.403 . S
C716 C717 1.404 . S
C716 C719 1.539 . S
C717 C713 1.408 . S
C717 C716 1.404 . S
C717 H729 0.930 . S
C718 C714 1.524 . S
C718 H730 0.956 . S
C718 H731 0.961 . S
C718 H732 0.961 . S
C719 C716 1.539 . S
C719 H733 0.958 . S
C719 H734 0.961 . S
C719 H735 0.960 . S
H720 C704 0.931 . S
H721 C709 0.929 . S
H722 C710 0.960 . S
H723 C710 0.962 1_556 S
H724 C710 0.960 . S
H725 C711 0.961 . S
H726 C711 0.961 . S
H727 C711 0.961 1_554 S
H728 C712 0.931 1_556 S
H729 C717 0.930 . S
H730 C718 0.956 . S
H731 C718 0.961 . S
H732 C718 0.961 . S
H733 C719 0.958 . S
H734 C719 0.961 . S
H735 C719 0.960 . S
C736 C737 1.391 . S
C736 C738 1.394 . S
C736 H752 0.931 . S
C737 C736 1.391 . S
C737 C741 1.376 . S
C738 C736 1.394 . S
C738 C739 1.369 . S
C738 C742 1.531 . S
C739 C738 1.369 . S
C739 C740 1.410 . S
C739 C747 1.503 . S
C740 C739 1.410 . S
C740 C741 1.392 . S
C740 C743 1.511 . S
C741 C737 1.376 . S
C741 C740 1.392 . S
C741 H753 0.929 . S
C742 C738 1.531 . S
C742 H754 0.960 . S
C742 H755 0.962 . S
C742 H756 0.960 . S
C743 C740 1.511 . S
C743 H757 0.961 . S
C743 H758 0.961 . S
C743 H759 0.961 . S
C744 C745 1.370 . S
C744 C746 1.363 . S
C744 H760 0.931 . S
C745 C744 1.370 . S
C745 C749 1.408 . S
C746 C744 1.363 . S
C746 C747 1.370 . S
C746 C750 1.524 . S
C747 C739 1.503 . S
C747 C746 1.370 . S
C747 C748 1.403 . S
C748 C747 1.403 . S
C748 C749 1.404 . S
C748 C751 1.539 . S
C749 C745 1.408 . S
C749 C748 1.404 . S
C749 H761 0.930 . S
C750 C746 1.524 . S
C750 H762 0.956 . S
C750 H763 0.961 . S
C750 H764 0.961 . S
C751 C748 1.539 . S
C751 H765 0.958 . S
C751 H766 0.961 . S
C751 H767 0.960 . S
H752 C736 0.931 . S
H753 C741 0.929 . S
H754 C742 0.960 . S
H755 C742 0.962 . S
H756 C742 0.960 . S
H757 C743 0.961 . S
H758 C743 0.961 . S
H759 C743 0.961 . S
H760 C744 0.931 . S
H761 C749 0.930 . S
H762 C750 0.956 . S
H763 C750 0.961 . S
H764 C750 0.961 . S
H765 C751 0.958 . S
H766 C751 0.961 . S
H767 C751 0.960 . S
C768 C769 1.391 . S
C768 C770 1.394 . S
C768 H784 0.931 . S
C769 C768 1.391 . S
C769 C773 1.376 . S
C770 C768 1.394 . S
C770 C771 1.369 . S
C770 C774 1.531 . S
C771 C770 1.369 . S
C771 C772 1.410 . S
C771 C779 1.503 . S
C772 C771 1.410 . S
C772 C773 1.392 . S
C772 C775 1.511 . S
C773 C769 1.376 . S
C773 C772 1.392 . S
C773 H785 0.929 . S
C774 C770 1.531 . S
C774 H786 0.960 . S
C774 H787 0.962 . S
C774 H788 0.960 . S
C775 C772 1.511 . S
C775 H789 0.961 . S
C775 H790 0.961 . S
C775 H791 0.961 . S
C776 C777 1.370 . S
C776 C778 1.363 . S
C776 H792 0.931 . S
C777 C776 1.370 . S
C777 C781 1.408 . S
C778 C776 1.363 . S
C778 C779 1.370 . S
C778 C782 1.524 . S
C779 C771 1.503 . S
C779 C778 1.370 . S
C779 C780 1.403 . S
C780 C779 1.403 . S
C780 C781 1.404 . S
C780 C783 1.539 . S
C781 C777 1.408 . S
C781 C780 1.404 . S
C781 H793 0.930 . S
C782 C778 1.524 . S
C782 H794 0.956 . S
C782 H795 0.961 . S
C782 H796 0.961 . S
C783 C780 1.539 . S
C783 H797 0.958 . S
C783 H798 0.961 . S
C783 H799 0.960 . S
H784 C768 0.931 . S
H785 C773 0.929 . S
H786 C774 0.960 . S
H787 C774 0.962 . S
H788 C774 0.960 . S
H789 C775 0.961 . S
H790 C775 0.961 . S
H791 C775 0.961 . S
H792 C776 0.931 . S
H793 C781 0.930 . S
H794 C782 0.956 . S
H795 C782 0.961 . S
H796 C782 0.961 . S
H797 C783 0.958 . S
H798 C783 0.961 . S
H799 C783 0.960 . S
C800 C801 1.391 . S
C800 C802 1.394 . S
C800 H816 0.931 . S
C801 C800 1.391 . S
C801 C805 1.376 . S
C802 C800 1.394 . S
C802 C803 1.369 . S
C802 C806 1.531 . S
C803 C802 1.369 . S
C803 C804 1.410 . S
C803 C811 1.503 . S
C804 C803 1.410 . S
C804 C805 1.392 . S
C804 C807 1.511 . S
C805 C801 1.376 . S
C805 C804 1.392 . S
C805 H817 0.929 . S
C806 C802 1.531 . S
C806 H818 0.960 . S
C806 H819 0.962 . S
C806 H820 0.960 . S
C807 C804 1.511 . S
C807 H821 0.961 . S
C807 H822 0.961 . S
C807 H823 0.961 . S
C808 C809 1.370 . S
C808 C810 1.363 . S
C808 H824 0.931 . S
C809 C808 1.370 . S
C809 C813 1.408 . S
C810 C808 1.363 . S
C810 C811 1.370 . S
C810 C814 1.524 . S
C811 C803 1.503 . S
C811 C810 1.370 . S
C811 C812 1.403 . S
C812 C811 1.403 . S
C812 C813 1.404 . S
C812 C815 1.539 . S
C813 C809 1.408 . S
C813 C812 1.404 . S
C813 H825 0.930 . S
C814 C810 1.524 . S
C814 H826 0.956 . S
C814 H827 0.961 . S
C814 H828 0.961 . S
C815 C812 1.539 . S
C815 H829 0.958 . S
C815 H830 0.961 . S
C815 H831 0.960 . S
H816 C800 0.931 . S
H817 C805 0.929 . S
H818 C806 0.960 . S
H819 C806 0.962 . S
H820 C806 0.960 . S
H821 C807 0.961 . S
H822 C807 0.961 . S
H823 C807 0.961 . S
H824 C808 0.931 . S
H825 C813 0.930 . S
H826 C814 0.956 . S
H827 C814 0.961 . S
H828 C814 0.961 . S
H829 C815 0.958 . S
H830 C815 0.961 . S
H831 C815 0.960 . S
C832 C833 1.391 . S
C832 C834 1.394 . S
C832 H848 0.931 . S
C833 C832 1.391 . S
C833 C837 1.366 1_556 S
C834 C832 1.394 . S
C834 C835 1.369 . S
C834 C838 1.531 . S
C835 C834 1.369 . S
C835 C836 1.410 1_556 S
C835 C843 1.503 1_556 S
C836 C835 1.410 1_554 S
C836 C837 1.396 . S
C836 C839 1.511 . S
C837 C833 1.366 1_554 S
C837 C836 1.396 . S
C837 H849 0.935 . S
C838 C834 1.531 . S
C838 H850 0.960 . S
C838 H851 0.962 . S
C838 H852 0.960 . S
C839 C836 1.511 . S
C839 H853 0.961 . S
C839 H854 0.961 . S
C839 H855 0.961 . S
C840 C841 1.370 . S
C840 C842 1.363 . S
C840 H856 0.931 . S
C841 C840 1.370 . S
C841 C845 1.408 . S
C842 C840 1.363 . S
C842 C843 1.370 . S
C842 C846 1.524 1_554 S
C843 C835 1.503 1_554 S
C843 C842 1.370 . S
C843 C844 1.403 . S
C844 C843 1.403 . S
C844 C845 1.404 . S
C844 C847 1.539 . S
C845 C841 1.408 . S
C845 C844 1.404 . S
C845 H857 0.930 . S
C846 C842 1.524 1_556 S
C846 H858 0.956 . S
C846 H859 0.961 1_556 S
C846 H860 0.961 1_556 S
C847 C844 1.539 . S
C847 H861 0.958 1_554 S
C847 H862 0.961 . S
C847 H863 0.960 . S
H848 C832 0.931 . S
H849 C837 0.935 . S
H850 C838 0.960 . S
H851 C838 0.962 . S
H852 C838 0.960 . S
H853 C839 0.961 . S
H854 C839 0.961 . S
H855 C839 0.961 . S
H856 C840 0.931 . S
H857 C845 0.930 . S
H858 C846 0.956 . S
H859 C846 0.961 1_554 S
H860 C846 0.961 1_554 S
H861 C847 0.958 1_556 S
H862 C847 0.961 . S
H863 C847 0.960 . S
C864 C865 1.391 . S
C864 C866 1.394 . S
C864 H880 0.931 . S
C865 C864 1.391 . S
C865 C869 1.376 . S
C866 C864 1.394 . S
C866 C867 1.369 . S
C866 C870 1.531 . S
C867 C866 1.369 . S
C867 C868 1.410 . S
C867 C875 1.503 . S
C868 C867 1.410 . S
C868 C869 1.392 . S
C868 C871 1.511 . S
C869 C865 1.376 . S
C869 C868 1.392 . S
C869 H881 0.929 . S
C870 C866 1.531 . S
C870 H882 0.960 . S
C870 H883 0.962 . S
C870 H884 0.960 . S
C871 C868 1.511 . S
C871 H885 0.961 . S
C871 H886 0.961 . S
C871 H887 0.961 . S
C872 C873 1.370 . S
C872 C874 1.363 . S
C872 H888 0.931 . S
C873 C872 1.370 . S
C873 C877 1.408 . S
C874 C872 1.363 . S
C874 C875 1.370 . S
C874 C878 1.524 . S
C875 C867 1.503 . S
C875 C874 1.370 . S
C875 C876 1.403 . S
C876 C875 1.403 . S
C876 C877 1.404 . S
C876 C879 1.539 . S
C877 C873 1.408 . S
C877 C876 1.404 . S
C877 H889 0.930 . S
C878 C874 1.524 . S
C878 H890 0.956 . S
C878 H891 0.961 . S
C878 H892 0.961 . S
C879 C876 1.539 . S
C879 H893 0.958 . S
C879 H894 0.961 . S
C879 H895 0.960 . S
H880 C864 0.931 . S
H881 C869 0.929 . S
H882 C870 0.960 . S
H883 C870 0.962 . S
H884 C870 0.960 . S
H885 C871 0.961 . S
H886 C871 0.961 . S
H887 C871 0.961 . S
H888 C872 0.931 . S
H889 C877 0.930 . S
H890 C878 0.956 . S
H891 C878 0.961 . S
H892 C878 0.961 . S
H893 C879 0.958 . S
H894 C879 0.961 . S
H895 C879 0.960 . S
C896 C897 1.391 . S
C896 C898 1.394 . S
C896 H912 0.931 . S
C897 C896 1.391 . S
C897 C901 1.376 . S
C898 C896 1.394 . S
C898 C899 1.369 . S
C898 C902 1.531 . S
C899 C898 1.369 . S
C899 C900 1.410 . S
C899 C907 1.503 . S
C900 C899 1.410 . S
C900 C901 1.392 . S
C900 C903 1.511 . S
C901 C897 1.376 . S
C901 C900 1.392 . S
C901 H913 0.929 . S
C902 C898 1.531 . S
C902 H914 0.960 . S
C902 H915 0.962 . S
C902 H916 0.960 . S
C903 C900 1.511 . S
C903 H917 0.961 . S
C903 H918 0.961 . S
C903 H919 0.961 . S
C904 C905 1.370 . S
C904 C906 1.363 . S
C904 H920 0.931 . S
C905 C904 1.370 . S
C905 C909 1.408 . S
C906 C904 1.363 . S
C906 C907 1.370 . S
C906 C910 1.524 . S
C907 C899 1.503 . S
C907 C906 1.370 . S
C907 C908 1.403 . S
C908 C907 1.403 . S
C908 C909 1.404 . S
C908 C911 1.539 . S
C909 C905 1.408 . S
C909 C908 1.404 . S
C909 H921 0.930 . S
C910 C906 1.524 . S
C910 H922 0.956 . S
C910 H923 0.961 . S
C910 H924 0.961 . S
C911 C908 1.539 . S
C911 H925 0.958 . S
C911 H926 0.961 . S
C911 H927 0.960 . S
H912 C896 0.931 . S
H913 C901 0.929 . S
H914 C902 0.960 . S
H915 C902 0.962 . S
H916 C902 0.960 . S
H917 C903 0.961 . S
H918 C903 0.961 . S
H919 C903 0.961 . S
H920 C904 0.931 . S
H921 C909 0.930 . S
H922 C910 0.956 . S
H923 C910 0.961 . S
H924 C910 0.961 . S
H925 C911 0.958 . S
H926 C911 0.961 . S
H927 C911 0.960 . S
C928 C929 1.391 . S
C928 C930 1.394 . S
C928 H944 0.931 . S
C929 C928 1.391 . S
C929 C933 1.376 . S
C930 C928 1.394 . S
C930 C931 1.369 . S
C930 C934 1.531 . S
C931 C930 1.369 . S
C931 C932 1.410 . S
C931 C939 1.503 . S
C932 C931 1.410 . S
C932 C933 1.392 . S
C932 C935 1.511 . S
C933 C929 1.376 . S
C933 C932 1.392 . S
C933 H945 0.929 . S
C934 C930 1.531 . S
C934 H946 0.960 . S
C934 H947 0.962 . S
C934 H948 0.960 . S
C935 C932 1.511 . S
C935 H949 0.961 . S
C935 H950 0.961 . S
C935 H951 0.961 . S
C936 C937 1.370 . S
C936 C938 1.363 . S
C936 H952 0.931 . S
C937 C936 1.370 . S
C937 C941 1.408 . S
C938 C936 1.363 . S
C938 C939 1.370 . S
C938 C942 1.524 . S
C939 C931 1.503 . S
C939 C938 1.370 . S
C939 C940 1.403 . S
C940 C939 1.403 . S
C940 C941 1.404 . S
C940 C943 1.539 . S
C941 C937 1.408 . S
C941 C940 1.404 . S
C941 H953 0.930 . S
C942 C938 1.524 . S
C942 H954 0.956 . S
C942 H955 0.961 . S
C942 H956 0.961 . S
C943 C940 1.539 . S
C943 H957 0.958 . S
C943 H958 0.961 . S
C943 H959 0.960 . S
H944 C928 0.931 . S
H945 C933 0.929 . S
H946 C934 0.960 . S
H947 C934 0.962 . S
H948 C934 0.960 . S
H949 C935 0.961 . S
H950 C935 0.961 . S
H951 C935 0.961 . S
H952 C936 0.931 . S
H953 C941 0.930 . S
H954 C942 0.956 . S
H955 C942 0.961 . S
H956 C942 0.961 . S
H957 C943 0.958 . S
H958 C943 0.961 . S
H959 C943 0.960 . S
C960 C961 1.391 . S
C960 C962 1.394 . S
C960 H976 0.931 . S
C961 C960 1.391 . S
C961 C965 1.376 1_554 S
C962 C960 1.394 . S
C962 C963 1.369 . S
C962 C966 1.531 . S
C963 C962 1.369 . S
C963 C964 1.410 . S
C963 C971 1.503 . S
C964 C963 1.410 . S
C964 C965 1.392 1_554 S
C964 C967 1.511 . S
C965 C961 1.376 1_556 S
C965 C964 1.392 1_556 S
C965 H977 0.929 . S
C966 C962 1.531 . S
C966 H978 0.960 . S
C966 H979 0.962 . S
C966 H980 0.960 . S
C967 C964 1.511 . S
C967 H981 0.961 1_554 S
C967 H982 0.961 . S
C967 H983 0.961 1_554 S
C968 C969 1.370 . S
C968 C970 1.363 . S
C968 H984 0.931 . S
C969 C968 1.370 . S
C969 C973 1.408 . S
C970 C968 1.363 . S
C970 C971 1.370 . S
C970 C974 1.524 . S
C971 C963 1.503 . S
C971 C970 1.370 . S
C971 C972 1.403 . S
C972 C971 1.403 . S
C972 C973 1.404 . S
C972 C975 1.539 . S
C973 C969 1.408 . S
C973 C972 1.404 . S
C973 H985 0.930 . S
C974 C970 1.524 . S
C974 H986 0.956 . S
C974 H987 0.961 . S
C974 H988 0.961 . S
C975 C972 1.539 . S
C975 H989 0.958 . S
C975 H990 0.961 . S
C975 H991 0.960 . S
H976 C960 0.931 . S
H977 C965 0.929 . S
H978 C966 0.960 . S
H979 C966 0.962 . S
H980 C966 0.960 . S
H981 C967 0.961 1_556 S
H982 C967 0.961 . S
H983 C967 0.961 1_556 S
H984 C968 0.931 . S
H985 C973 0.930 . S
H986 C974 0.956 . S
H987 C974 0.961 . S
H988 C974 0.961 . S
H989 C975 0.958 . S
H990 C975 0.961 . S
H991 C975 0.960 . S
C992 C993 1.391 . S
C992 C994 1.394 . S
C992 H1008 0.931 . S
C993 C992 1.391 . S
C993 C997 1.376 . S
C994 C992 1.394 . S
C994 C995 1.369 . S
C994 C998 1.531 . S
C995 C994 1.369 . S
C995 C996 1.410 . S
C995 C1003 1.503 . S
C996 C995 1.410 . S
C996 C997 1.392 . S
C996 C999 1.511 . S
C997 C993 1.376 . S
C997 C996 1.392 . S
C997 H1009 0.929 . S
C998 C994 1.531 . S
C998 H1010 0.960 . S
C998 H1011 0.962 . S
C998 H1012 0.960 . S
C999 C996 1.511 . S
C999 H1013 0.961 . S
C999 H1014 0.961 . S
C999 H1015 0.961 . S
C1000 C1001 1.370 . S
C1000 C1002 1.363 . S
C1000 H1016 0.931 . S
C1001 C1000 1.370 . S
C1001 C1005 1.408 . S
C1002 C1000 1.363 . S
C1002 C1003 1.370 . S
C1002 C1006 1.524 . S
C1003 C995 1.503 . S
C1003 C1002 1.370 . S
C1003 C1004 1.403 . S
C1004 C1003 1.403 . S
C1004 C1005 1.404 . S
C1004 C1007 1.539 . S
C1005 C1001 1.408 . S
C1005 C1004 1.404 . S
C1005 H1017 0.930 . S
C1006 C1002 1.524 . S
C1006 H1018 0.956 . S
C1006 H1019 0.961 . S
C1006 H1020 0.961 . S
C1007 C1004 1.539 . S
C1007 H1021 0.958 . S
C1007 H1022 0.961 . S
C1007 H1023 0.960 . S
H1008 C992 0.931 . S
H1009 C997 0.929 . S
H1010 C998 0.960 . S
H1011 C998 0.962 . S
H1012 C998 0.960 . S
H1013 C999 0.961 . S
H1014 C999 0.961 . S
H1015 C999 0.961 . S
H1016 C1000 0.931 . S
H1017 C1005 0.930 . S
H1018 C1006 0.956 . S
H1019 C1006 0.961 . S
H1020 C1006 0.961 . S
H1021 C1007 0.958 . S
H1022 C1007 0.961 . S
H1023 C1007 0.960 . S
C1024 C1025 1.391 . S
C1024 C1026 1.394 . S
C1024 H1040 0.931 . S
C1025 C1024 1.391 . S
C1025 C1029 1.376 . S
C1026 C1024 1.394 . S
C1026 C1027 1.369 . S
C1026 C1030 1.531 . S
C1027 C1026 1.369 . S
C1027 C1028 1.410 . S
C1027 C1035 1.503 . S
C1028 C1027 1.410 . S
C1028 C1029 1.392 . S
C1028 C1031 1.511 . S
C1029 C1025 1.376 . S
C1029 C1028 1.392 . S
C1029 H1041 0.929 . S
C1030 C1026 1.531 . S
C1030 H1042 0.960 . S
C1030 H1043 0.962 . S
C1030 H1044 0.960 . S
C1031 C1028 1.511 . S
C1031 H1045 0.961 . S
C1031 H1046 0.961 . S
C1031 H1047 0.961 . S
C1032 C1033 1.370 . S
C1032 C1034 1.363 . S
C1032 H1048 0.931 . S
C1033 C1032 1.370 . S
C1033 C1037 1.408 . S
C1034 C1032 1.363 . S
C1034 C1035 1.370 . S
C1034 C1038 1.524 . S
C1035 C1027 1.503 . S
C1035 C1034 1.370 . S
C1035 C1036 1.403 . S
C1036 C1035 1.403 . S
C1036 C1037 1.404 . S
C1036 C1039 1.539 . S
C1037 C1033 1.408 . S
C1037 C1036 1.404 . S
C1037 H1049 0.930 . S
C1038 C1034 1.524 . S
C1038 H1050 0.956 . S
C1038 H1051 0.961 . S
C1038 H1052 0.961 . S
C1039 C1036 1.539 . S
C1039 H1053 0.958 . S
C1039 H1054 0.961 . S
C1039 H1055 0.960 . S
H1040 C1024 0.931 . S
H1041 C1029 0.929 . S
H1042 C1030 0.960 . S
H1043 C1030 0.962 . S
H1044 C1030 0.960 . S
H1045 C1031 0.961 . S
H1046 C1031 0.961 . S
H1047 C1031 0.961 . S
H1048 C1032 0.931 . S
H1049 C1037 0.930 . S
H1050 C1038 0.956 . S
H1051 C1038 0.961 . S
H1052 C1038 0.961 . S
H1053 C1039 0.958 . S
H1054 C1039 0.961 . S
H1055 C1039 0.960 . S
C1056 C1057 1.391 . S
C1056 C1058 1.394 . S
C1056 H1072 0.931 . S
C1057 C1056 1.391 . S
C1057 C1061 1.376 . S
C1058 C1056 1.394 . S
C1058 C1059 1.369 . S
C1058 C1062 1.531 . S
C1059 C1058 1.369 . S
C1059 C1060 1.410 . S
C1059 C1067 1.503 . S
C1060 C1059 1.410 . S
C1060 C1061 1.392 . S
C1060 C1063 1.511 . S
C1061 C1057 1.376 . S
C1061 C1060 1.392 . S
C1061 H1073 0.929 . S
C1062 C1058 1.531 . S
C1062 H1074 0.960 . S
C1062 H1075 0.962 . S
C1062 H1076 0.960 . S
C1063 C1060 1.511 . S
C1063 H1077 0.961 . S
C1063 H1078 0.961 . S
C1063 H1079 0.961 . S
C1064 C1065 1.370 . S
C1064 C1066 1.363 . S
C1064 H1080 0.931 1_556 S
C1065 C1064 1.370 . S
C1065 C1069 1.408 . S
C1066 C1064 1.363 . S
C1066 C1067 1.370 . S
C1066 C1070 1.524 . S
C1067 C1059 1.503 . S
C1067 C1066 1.370 . S
C1067 C1068 1.403 . S
C1068 C1067 1.403 . S
C1068 C1069 1.404 . S
C1068 C1071 1.539 . S
C1069 C1065 1.408 . S
C1069 C1068 1.404 . S
C1069 H1081 0.930 . S
C1070 C1066 1.524 . S
C1070 H1082 0.956 . S
C1070 H1083 0.961 . S
C1070 H1084 0.961 1_556 S
C1071 C1068 1.539 . S
C1071 H1085 0.958 . S
C1071 H1086 0.961 . S
C1071 H1087 0.960 . S
H1072 C1056 0.931 . S
H1073 C1061 0.929 . S
H1074 C1062 0.960 . S
H1075 C1062 0.962 . S
H1076 C1062 0.960 . S
H1077 C1063 0.961 . S
H1078 C1063 0.961 . S
H1079 C1063 0.961 . S
H1080 C1064 0.931 1_554 S
H1081 C1069 0.930 . S
H1082 C1070 0.956 . S
H1083 C1070 0.961 . S
H1084 C1070 0.961 1_554 S
H1085 C1071 0.958 . S
H1086 C1071 0.961 . S
H1087 C1071 0.960 . S
C1088 C1089 1.391 . S
C1088 C1090 1.394 . S
C1088 H1104 0.931 . S
C1089 C1088 1.391 . S
C1089 C1093 1.376 . S
C1090 C1088 1.394 . S
C1090 C1091 1.369 . S
C1090 C1094 1.531 . S
C1091 C1090 1.369 . S
C1091 C1092 1.410 . S
C1091 C1099 1.503 . S
C1092 C1091 1.410 . S
C1092 C1093 1.392 . S
C1092 C1095 1.511 . S
C1093 C1089 1.376 . S
C1093 C1092 1.392 . S
C1093 H1105 0.934 . S
C1094 C1090 1.531 . S
C1094 H1106 0.960 . S
C1094 H1107 0.962 . S
C1094 H1108 0.960 . S
C1095 C1092 1.511 . S
C1095 H1109 0.961 . S
C1095 H1110 0.961 . S
C1095 H1111 0.961 . S
C1096 C1097 1.370 . S
C1096 C1098 1.363 . S
C1096 H1112 0.931 . S
C1097 C1096 1.370 . S
C1097 C1101 1.408 . S
C1098 C1096 1.363 . S
C1098 C1099 1.370 . S
C1098 C1102 1.524 . S
C1099 C1091 1.503 . S
C1099 C1098 1.370 . S
C1099 C1100 1.403 . S
C1100 C1099 1.403 . S
C1100 C1101 1.404 . S
C1100 C1103 1.539 . S
C1101 C1097 1.408 . S
C1101 C1100 1.404 . S
C1101 H1113 0.930 . S
C1102 C1098 1.524 . S
C1102 H1114 0.956 . S
C1102 H1115 0.961 . S
C1102 H1116 0.961 . S
C1103 C1100 1.539 . S
C1103 H1117 0.958 . S
C1103 H1118 0.961 . S
C1103 H1119 0.960 . S
H1104 C1088 0.931 . S
H1105 C1093 0.934 . S
H1106 C1094 0.960 . S
H1107 C1094 0.962 . S
H1108 C1094 0.960 . S
H1109 C1095 0.961 . S
H1110 C1095 0.961 . S
H1111 C1095 0.961 . S
H1112 C1096 0.931 . S
H1113 C1101 0.930 . S
H1114 C1102 0.956 . S
H1115 C1102 0.961 . S
H1116 C1102 0.961 . S
H1117 C1103 0.958 . S
H1118 C1103 0.961 . S
H1119 C1103 0.960 . S
C1120 C1121 1.391 . S
C1120 C1122 1.394 . S
C1120 H1136 0.931 . S
C1121 C1120 1.391 . S
C1121 C1125 1.376 . S
C1122 C1120 1.394 . S
C1122 C1123 1.369 . S
C1122 C1126 1.531 . S
C1123 C1122 1.369 . S
C1123 C1124 1.410 . S
C1123 C1131 1.503 . S
C1124 C1123 1.410 . S
C1124 C1125 1.392 . S
C1124 C1127 1.511 . S
C1125 C1121 1.376 . S
C1125 C1124 1.392 . S
C1125 H1137 0.929 . S
C1126 C1122 1.531 . S
C1126 H1138 0.960 . S
C1126 H1139 0.962 . S
C1126 H1140 0.960 . S
C1127 C1124 1.511 . S
C1127 H1141 0.961 . S
C1127 H1142 0.961 . S
C1127 H1143 0.961 . S
C1128 C1129 1.370 . S
C1128 C1130 1.363 . S
C1128 H1144 0.931 . S
C1129 C1128 1.370 . S
C1129 C1133 1.408 . S
C1130 C1128 1.363 . S
C1130 C1131 1.370 . S
C1130 C1134 1.524 . S
C1131 C1123 1.503 . S
C1131 C1130 1.370 . S
C1131 C1132 1.403 . S
C1132 C1131 1.403 . S
C1132 C1133 1.404 . S
C1132 C1135 1.539 . S
C1133 C1129 1.408 . S
C1133 C1132 1.404 . S
C1133 H1145 0.930 . S
C1134 C1130 1.524 . S
C1134 H1146 0.956 . S
C1134 H1147 0.961 . S
C1134 H1148 0.961 . S
C1135 C1132 1.539 . S
C1135 H1149 0.958 . S
C1135 H1150 0.961 . S
C1135 H1151 0.960 . S
H1136 C1120 0.931 . S
H1137 C1125 0.929 . S
H1138 C1126 0.960 . S
H1139 C1126 0.962 . S
H1140 C1126 0.960 . S
H1141 C1127 0.961 . S
H1142 C1127 0.961 . S
H1143 C1127 0.961 . S
H1144 C1128 0.931 . S
H1145 C1133 0.930 . S
H1146 C1134 0.956 . S
H1147 C1134 0.961 . S
H1148 C1134 0.961 . S
H1149 C1135 0.958 . S
H1150 C1135 0.961 . S
H1151 C1135 0.960 . S
C1152 C1153 1.391 . S
C1152 C1154 1.394 . S
C1152 H1168 0.931 . S
C1153 C1152 1.391 . S
C1153 C1157 1.376 . S
C1154 C1152 1.394 . S
C1154 C1155 1.369 . S
C1154 C1158 1.531 . S
C1155 C1154 1.369 . S
C1155 C1156 1.410 . S
C1155 C1163 1.503 . S
C1156 C1155 1.410 . S
C1156 C1157 1.392 . S
C1156 C1159 1.511 . S
C1157 C1153 1.376 . S
C1157 C1156 1.392 . S
C1157 H1169 0.929 . S
C1158 C1154 1.531 . S
C1158 H1170 0.960 . S
C1158 H1171 0.962 . S
C1158 H1172 0.960 . S
C1159 C1156 1.511 . S
C1159 H1173 0.961 . S
C1159 H1174 0.961 . S
C1159 H1175 0.961 . S
C1160 C1161 1.370 . S
C1160 C1162 1.363 . S
C1160 H1176 0.931 . S
C1161 C1160 1.370 . S
C1161 C1165 1.408 . S
C1162 C1160 1.363 . S
C1162 C1163 1.370 . S
C1162 C1166 1.524 . S
C1163 C1155 1.503 . S
C1163 C1162 1.370 . S
C1163 C1164 1.403 . S
C1164 C1163 1.403 . S
C1164 C1165 1.404 . S
C1164 C1167 1.539 . S
C1165 C1161 1.408 . S
C1165 C1164 1.404 . S
C1165 H1177 0.930 . S
C1166 C1162 1.524 . S
C1166 H1178 0.956 . S
C1166 H1179 0.961 . S
C1166 H1180 0.961 . S
C1167 C1164 1.539 . S
C1167 H1181 0.958 . S
C1167 H1182 0.961 . S
C1167 H1183 0.960 . S
H1168 C1152 0.931 . S
H1169 C1157 0.929 . S
H1170 C1158 0.960 . S
H1171 C1158 0.962 . S
H1172 C1158 0.960 . S
H1173 C1159 0.961 . S
H1174 C1159 0.961 . S
H1175 C1159 0.961 . S
H1176 C1160 0.931 . S
H1177 C1165 0.930 . S
H1178 C1166 0.956 . S
H1179 C1166 0.961 . S
H1180 C1166 0.961 . S
H1181 C1167 0.958 . S
H1182 C1167 0.961 . S
H1183 C1167 0.960 . S
C1184 C1185 1.391 . S
C1184 C1186 1.394 . S
C1184 H1200 0.931 1_554 S
C1185 C1184 1.391 . S
C1185 C1189 1.376 . S
C1186 C1184 1.394 . S
C1186 C1187 1.369 . S
C1186 C1190 1.531 . S
C1187 C1186 1.369 . S
C1187 C1188 1.410 . S
C1187 C1195 1.503 . S
C1188 C1187 1.410 . S
C1188 C1189 1.392 . S
C1188 C1191 1.511 . S
C1189 C1185 1.376 . S
C1189 C1188 1.392 . S
C1189 H1201 0.929 . S
C1190 C1186 1.531 . S
C1190 H1202 0.960 . S
C1190 H1203 0.962 . S
C1190 H1204 0.960 . S
C1191 C1188 1.511 . S
C1191 H1205 0.961 . S
C1191 H1206 0.961 . S
C1191 H1207 0.961 . S
C1192 C1193 1.370 . S
C1192 C1194 1.363 . S
C1192 H1208 0.931 . S
C1193 C1192 1.370 . S
C1193 C1197 1.408 . S
C1194 C1192 1.363 . S
C1194 C1195 1.370 . S
C1194 C1198 1.524 . S
C1195 C1187 1.503 . S
C1195 C1194 1.370 . S
C1195 C1196 1.403 . S
C1196 C1195 1.403 . S
C1196 C1197 1.404 . S
C1196 C1199 1.539 . S
C1197 C1193 1.408 . S
C1197 C1196 1.404 . S
C1197 H1209 0.930 . S
C1198 C1194 1.524 . S
C1198 H1210 0.956 . S
C1198 H1211 0.961 . S
C1198 H1212 0.961 . S
C1199 C1196 1.539 . S
C1199 H1213 0.958 . S
C1199 H1214 0.961 . S
C1199 H1215 0.960 . S
H1200 C1184 0.931 1_556 S
H1201 C1189 0.929 . S
H1202 C1190 0.960 . S
H1203 C1190 0.962 . S
H1204 C1190 0.960 . S
H1205 C1191 0.961 . S
H1206 C1191 0.961 . S
H1207 C1191 0.961 . S
H1208 C1192 0.931 . S
H1209 C1197 0.930 . S
H1210 C1198 0.956 . S
H1211 C1198 0.961 . S
H1212 C1198 0.961 . S
H1213 C1199 0.958 . S
H1214 C1199 0.961 . S
H1215 C1199 0.960 . S
C1216 C1217 1.391 . S
C1216 C1218 1.394 . S
C1216 H1232 0.931 . S
C1217 C1216 1.391 . S
C1217 C1221 1.376 . S
C1218 C1216 1.394 . S
C1218 C1219 1.369 . S
C1218 C1222 1.531 . S
C1219 C1218 1.369 . S
C1219 C1220 1.410 . S
C1219 C1227 1.503 . S
C1220 C1219 1.410 . S
C1220 C1221 1.392 . S
C1220 C1223 1.511 . S
C1221 C1217 1.376 . S
C1221 C1220 1.392 . S
C1221 H1233 0.929 . S
C1222 C1218 1.531 . S
C1222 H1234 0.960 . S
C1222 H1235 0.962 . S
C1222 H1236 0.960 . S
C1223 C1220 1.511 . S
C1223 H1237 0.961 . S
C1223 H1238 0.961 . S
C1223 H1239 0.961 . S
C1224 C1225 1.370 . S
C1224 C1226 1.363 . S
C1224 H1240 0.931 . S
C1225 C1224 1.370 . S
C1225 C1229 1.408 . S
C1226 C1224 1.363 . S
C1226 C1227 1.370 . S
C1226 C1230 1.524 . S
C1227 C1219 1.503 . S
C1227 C1226 1.370 . S
C1227 C1228 1.403 . S
C1228 C1227 1.403 . S
C1228 C1229 1.404 . S
C1228 C1231 1.539 . S
C1229 C1225 1.408 . S
C1229 C1228 1.404 . S
C1229 H1241 0.930 . S
C1230 C1226 1.524 . S
C1230 H1242 0.956 . S
C1230 H1243 0.961 . S
C1230 H1244 0.961 . S
C1231 C1228 1.539 . S
C1231 H1245 0.958 . S
C1231 H1246 0.961 . S
C1231 H1247 0.960 . S
H1232 C1216 0.931 . S
H1233 C1221 0.929 . S
H1234 C1222 0.960 . S
H1235 C1222 0.962 . S
H1236 C1222 0.960 . S
H1237 C1223 0.961 . S
H1238 C1223 0.961 . S
H1239 C1223 0.961 . S
H1240 C1224 0.931 . S
H1241 C1229 0.930 . S
H1242 C1230 0.956 . S
H1243 C1230 0.961 . S
H1244 C1230 0.961 . S
H1245 C1231 0.958 . S
H1246 C1231 0.961 . S
H1247 C1231 0.960 . S
C1248 C1249 1.391 . S
C1248 C1250 1.394 . S
C1248 H1264 0.931 . S
C1249 C1248 1.391 . S
C1249 C1253 1.377 . S
C1250 C1248 1.394 . S
C1250 C1251 1.369 . S
C1250 C1254 1.531 . S
C1251 C1250 1.369 . S
C1251 C1252 1.410 . S
C1251 C1259 1.503 . S
C1252 C1251 1.410 . S
C1252 C1253 1.394 . S
C1252 C1255 1.511 . S
C1253 C1249 1.377 . S
C1253 C1252 1.394 . S
C1253 H1265 0.926 1_556 S
C1254 C1250 1.531 . S
C1254 H1266 0.960 . S
C1254 H1267 0.962 . S
C1254 H1268 0.960 . S
C1255 C1252 1.511 . S
C1255 H1269 0.961 1_556 S
C1255 H1270 0.961 . S
C1255 H1271 0.961 . S
C1256 C1257 1.370 . S
C1256 C1258 1.363 . S
C1256 H1272 0.931 . S
C1257 C1256 1.370 . S
C1257 C1261 1.408 . S
C1258 C1256 1.363 . S
C1258 C1259 1.370 . S
C1258 C1262 1.524 . S
C1259 C1251 1.503 . S
C1259 C1258 1.370 . S
C1259 C1260 1.403 . S
C1260 C1259 1.403 . S
C1260 C1261 1.404 . S
C1260 C1263 1.539 . S
C1261 C1257 1.408 . S
C1261 C1260 1.404 . S
C1261 H1273 0.930 . S
C1262 C1258 1.524 . S
C1262 H1274 0.956 . S
C1262 H1275 0.961 . S
C1262 H1276 0.961 . S
C1263 C1260 1.539 . S
C1263 H1277 0.958 . S
C1263 H1278 0.961 . S
C1263 H1279 0.960 . S
H1264 C1248 0.931 . S
H1265 C1253 0.926 1_554 S
H1266 C1254 0.960 . S
H1267 C1254 0.962 . S
H1268 C1254 0.960 . S
H1269 C1255 0.961 1_554 S
H1270 C1255 0.961 . S
H1271 C1255 0.961 . S
H1272 C1256 0.931 . S
H1273 C1261 0.930 . S
H1274 C1262 0.956 . S
H1275 C1262 0.961 . S
H1276 C1262 0.961 . S
H1277 C1263 0.958 . S
H1278 C1263 0.961 . S
H1279 C1263 0.960 . S
C1280 C1281 1.391 . S
C1280 C1282 1.394 . S
C1280 H1296 0.931 . S
C1281 C1280 1.391 . S
C1281 C1285 1.376 . S
C1282 C1280 1.394 . S
C1282 C1283 1.369 . S
C1282 C1286 1.531 . S
C1283 C1282 1.369 . S
C1283 C1284 1.410 . S
C1283 C1291 1.503 . S
C1284 C1283 1.410 . S
C1284 C1285 1.392 . S
C1284 C1287 1.511 . S
C1285 C1281 1.376 . S
C1285 C1284 1.392 . S
C1285 H1297 0.929 . S
C1286 C1282 1.531 . S
C1286 H1298 0.960 . S
C1286 H1299 0.962 . S
C1286 H1300 0.960 . S
C1287 C1284 1.511 . S
C1287 H1301 0.961 . S
C1287 H1302 0.961 . S
C1287 H1303 0.961 . S
C1288 C1289 1.370 . S
C1288 C1290 1.363 . S
C1288 H1304 0.931 . S
C1289 C1288 1.370 . S
C1289 C1293 1.408 . S
C1290 C1288 1.363 . S
C1290 C1291 1.370 . S
C1290 C1294 1.524 . S
C1291 C1283 1.503 . S
C1291 C1290 1.370 . S
C1291 C1292 1.403 . S
C1292 C1291 1.403 . S
C1292 C1293 1.404 . S
C1292 C1295 1.539 . S
C1293 C1289 1.408 . S
C1293 C1292 1.404 . S
C1293 H1305 0.930 . S
C1294 C1290 1.524 . S
C1294 H1306 0.956 . S
C1294 H1307 0.961 . S
C1294 H1308 0.961 . S
C1295 C1292 1.539 . S
C1295 H1309 0.958 . S
C1295 H1310 0.961 . S
C1295 H1311 0.960 . S
H1296 C1280 0.931 . S
H1297 C1285 0.929 . S
H1298 C1286 0.960 . S
H1299 C1286 0.962 . S
H1300 C1286 0.960 . S
H1301 C1287 0.961 . S
H1302 C1287 0.961 . S
H1303 C1287 0.961 . S
H1304 C1288 0.931 . S
H1305 C1293 0.930 . S
H1306 C1294 0.956 . S
H1307 C1294 0.961 . S
H1308 C1294 0.961 . S
H1309 C1295 0.958 . S
H1310 C1295 0.961 . S
H1311 C1295 0.960 . S
C1312 C1313 1.391 . S
C1312 C1314 1.394 . S
C1312 H1328 0.931 . S
C1313 C1312 1.391 . S
C1313 C1317 1.376 . S
C1314 C1312 1.394 . S
C1314 C1315 1.369 . S
C1314 C1318 1.531 . S
C1315 C1314 1.369 . S
C1315 C1316 1.410 . S
C1315 C1323 1.503 . S
C1316 C1315 1.410 . S
C1316 C1317 1.392 . S
C1316 C1319 1.511 . S
C1317 C1313 1.376 . S
C1317 C1316 1.392 . S
C1317 H1329 0.929 . S
C1318 C1314 1.531 . S
C1318 H1330 0.960 . S
C1318 H1331 0.962 . S
C1318 H1332 0.960 . S
C1319 C1316 1.511 . S
C1319 H1333 0.961 . S
C1319 H1334 0.961 . S
C1319 H1335 0.961 . S
C1320 C1321 1.370 . S
C1320 C1322 1.363 . S
C1320 H1336 0.931 . S
C1321 C1320 1.370 . S
C1321 C1325 1.408 . S
C1322 C1320 1.363 . S
C1322 C1323 1.370 . S
C1322 C1326 1.524 . S
C1323 C1315 1.503 . S
C1323 C1322 1.370 . S
C1323 C1324 1.403 . S
C1324 C1323 1.403 . S
C1324 C1325 1.404 . S
C1324 C1327 1.539 . S
C1325 C1321 1.408 . S
C1325 C1324 1.404 . S
C1325 H1337 0.930 . S
C1326 C1322 1.524 . S
C1326 H1338 0.956 . S
C1326 H1339 0.961 . S
C1326 H1340 0.961 . S
C1327 C1324 1.539 . S
C1327 H1341 0.958 . S
C1327 H1342 0.961 . S
C1327 H1343 0.960 . S
H1328 C1312 0.931 . S
H1329 C1317 0.929 . S
H1330 C1318 0.960 . S
H1331 C1318 0.962 . S
H1332 C1318 0.960 . S
H1333 C1319 0.961 . S
H1334 C1319 0.961 . S
H1335 C1319 0.961 . S
H1336 C1320 0.931 . S
H1337 C1325 0.930 . S
H1338 C1326 0.956 . S
H1339 C1326 0.961 . S
H1340 C1326 0.961 . S
H1341 C1327 0.958 . S
H1342 C1327 0.961 . S
H1343 C1327 0.960 . S
C1344 C1345 1.391 . S
C1344 C1346 1.394 . S
C1344 H1360 0.931 . S
C1345 C1344 1.391 . S
C1345 C1349 1.376 . S
C1346 C1344 1.394 . S
C1346 C1347 1.369 . S
C1346 C1350 1.531 . S
C1347 C1346 1.369 . S
C1347 C1348 1.410 . S
C1347 C1355 1.503 . S
C1348 C1347 1.410 . S
C1348 C1349 1.392 . S
C1348 C1351 1.511 . S
C1349 C1345 1.376 . S
C1349 C1348 1.392 . S
C1349 H1361 0.929 . S
C1350 C1346 1.531 . S
C1350 H1362 0.960 . S
C1350 H1363 0.962 . S
C1350 H1364 0.960 . S
C1351 C1348 1.511 . S
C1351 H1365 0.961 . S
C1351 H1366 0.961 . S
C1351 H1367 0.961 . S
C1352 C1353 1.370 . S
C1352 C1354 1.363 . S
C1352 H1368 0.931 . S
C1353 C1352 1.370 . S
C1353 C1357 1.408 . S
C1354 C1352 1.363 . S
C1354 C1355 1.370 . S
C1354 C1358 1.524 . S
C1355 C1347 1.503 . S
C1355 C1354 1.370 . S
C1355 C1356 1.403 . S
C1356 C1355 1.403 . S
C1356 C1357 1.404 . S
C1356 C1359 1.539 . S
C1357 C1353 1.408 . S
C1357 C1356 1.404 . S
C1357 H1369 0.930 . S
C1358 C1354 1.524 . S
C1358 H1370 0.956 . S
C1358 H1371 0.961 . S
C1358 H1372 0.961 . S
C1359 C1356 1.539 . S
C1359 H1373 0.958 . S
C1359 H1374 0.961 . S
C1359 H1375 0.960 . S
H1360 C1344 0.931 . S
H1361 C1349 0.929 . S
H1362 C1350 0.960 . S
H1363 C1350 0.962 . S
H1364 C1350 0.960 . S
H1365 C1351 0.961 . S
H1366 C1351 0.961 . S
H1367 C1351 0.961 . S
H1368 C1352 0.931 . S
H1369 C1357 0.930 . S
H1370 C1358 0.956 . S
H1371 C1358 0.961 . S
H1372 C1358 0.961 . S
H1373 C1359 0.958 . S
H1374 C1359 0.961 . S
H1375 C1359 0.960 . S
C1376 C1377 1.391 . S
C1376 C1378 1.394 . S
C1376 H1392 0.931 1_554 S
C1377 C1376 1.391 . S
C1377 C1381 1.376 . S
C1378 C1376 1.394 . S
C1378 C1379 1.369 . S
C1378 C1382 1.531 . S
C1379 C1378 1.369 . S
C1379 C1380 1.410 . S
C1379 C1387 1.503 . S
C1380 C1379 1.410 . S
C1380 C1381 1.392 . S
C1380 C1383 1.511 . S
C1381 C1377 1.376 . S
C1381 C1380 1.392 . S
C1381 H1393 0.929 . S
C1382 C1378 1.531 . S
C1382 H1394 0.960 . S
C1382 H1395 0.962 . S
C1382 H1396 0.960 . S
C1383 C1380 1.511 . S
C1383 H1397 0.961 . S
C1383 H1398 0.961 . S
C1383 H1399 0.961 . S
C1384 C1385 1.370 . S
C1384 C1386 1.363 . S
C1384 H1400 0.931 . S
C1385 C1384 1.370 . S
C1385 C1389 1.408 . S
C1386 C1384 1.363 . S
C1386 C1387 1.370 . S
C1386 C1390 1.524 . S
C1387 C1379 1.503 . S
C1387 C1386 1.370 . S
C1387 C1388 1.403 . S
C1388 C1387 1.403 . S
C1388 C1389 1.404 . S
C1388 C1391 1.539 . S
C1389 C1385 1.408 . S
C1389 C1388 1.404 . S
C1389 H1401 0.930 . S
C1390 C1386 1.524 . S
C1390 H1402 0.956 . S
C1390 H1403 0.961 . S
C1390 H1404 0.961 . S
C1391 C1388 1.539 . S
C1391 H1405 0.958 . S
C1391 H1406 0.961 . S
C1391 H1407 0.960 . S
H1392 C1376 0.931 1_556 S
H1393 C1381 0.929 . S
H1394 C1382 0.960 . S
H1395 C1382 0.962 . S
H1396 C1382 0.960 . S
H1397 C1383 0.961 . S
H1398 C1383 0.961 . S
H1399 C1383 0.961 . S
H1400 C1384 0.931 . S
H1401 C1389 0.930 . S
H1402 C1390 0.956 . S
H1403 C1390 0.961 . S
H1404 C1390 0.961 . S
H1405 C1391 0.958 . S
H1406 C1391 0.961 . S
H1407 C1391 0.960 . S
C1408 C1409 1.391 . S
C1408 C1410 1.394 . S
C1408 H1424 0.931 . S
C1409 C1408 1.391 . S
C1409 C1413 1.376 . S
C1410 C1408 1.394 . S
C1410 C1411 1.369 . S
C1410 C1414 1.531 . S
C1411 C1410 1.369 . S
C1411 C1412 1.410 . S
C1411 C1419 1.503 . S
C1412 C1411 1.410 . S
C1412 C1413 1.392 . S
C1412 C1415 1.511 . S
C1413 C1409 1.376 . S
C1413 C1412 1.392 . S
C1413 H1425 0.929 . S
C1414 C1410 1.531 . S
C1414 H1426 0.960 . S
C1414 H1427 0.962 . S
C1414 H1428 0.960 . S
C1415 C1412 1.511 . S
C1415 H1429 0.961 . S
C1415 H1430 0.961 . S
C1415 H1431 0.961 . S
C1416 C1417 1.370 . S
C1416 C1418 1.363 . S
C1416 H1432 0.931 . S
C1417 C1416 1.370 . S
C1417 C1421 1.408 . S
C1418 C1416 1.363 . S
C1418 C1419 1.370 . S
C1418 C1422 1.524 . S
C1419 C1411 1.503 . S
C1419 C1418 1.370 . S
C1419 C1420 1.403 . S
C1420 C1419 1.403 . S
C1420 C1421 1.404 . S
C1420 C1423 1.539 . S
C1421 C1417 1.408 . S
C1421 C1420 1.404 . S
C1421 H1433 0.930 1_556 S
C1422 C1418 1.524 . S
C1422 H1434 0.956 . S
C1422 H1435 0.961 . S
C1422 H1436 0.961 . S
C1423 C1420 1.539 . S
C1423 H1437 0.958 . S
C1423 H1438 0.961 . S
C1423 H1439 0.960 . S
H1424 C1408 0.931 . S
H1425 C1413 0.929 . S
H1426 C1414 0.960 . S
H1427 C1414 0.962 . S
H1428 C1414 0.960 . S
H1429 C1415 0.961 . S
H1430 C1415 0.961 . S
H1431 C1415 0.961 . S
H1432 C1416 0.931 . S
H1433 C1421 0.930 1_554 S
H1434 C1422 0.956 . S
H1435 C1422 0.961 . S
H1436 C1422 0.961 . S
H1437 C1423 0.958 . S
H1438 C1423 0.961 . S
H1439 C1423 0.960 . S
C1440 C1441 1.391 . S
C1440 C1442 1.394 . S
C1440 H1456 0.931 . S
C1441 C1440 1.391 . S
C1441 C1445 1.376 . S
C1442 C1440 1.394 . S
C1442 C1443 1.369 . S
C1442 C1446 1.531 . S
C1443 C1442 1.369 . S
C1443 C1444 1.410 . S
C1443 C1451 1.503 . S
C1444 C1443 1.410 . S
C1444 C1445 1.392 . S
C1444 C1447 1.511 . S
C1445 C1441 1.376 . S
C1445 C1444 1.392 . S
C1445 H1457 0.929 . S
C1446 C1442 1.531 . S
C1446 H1458 0.960 . S
C1446 H1459 0.962 . S
C1446 H1460 0.960 . S
C1447 C1444 1.511 . S
C1447 H1461 0.961 . S
C1447 H1462 0.961 . S
C1447 H1463 0.961 . S
C1448 C1449 1.370 . S
C1448 C1450 1.363 . S
C1448 H1464 0.931 . S
C1449 C1448 1.370 . S
C1449 C1453 1.408 . S
C1450 C1448 1.363 . S
C1450 C1451 1.370 . S
C1450 C1454 1.524 . S
C1451 C1443 1.503 . S
C1451 C1450 1.370 . S
C1451 C1452 1.403 . S
C1452 C1451 1.403 . S
C1452 C1453 1.404 . S
C1452 C1455 1.539 . S
C1453 C1449 1.408 . S
C1453 C1452 1.404 . S
C1453 H1465 0.930 . S
C1454 C1450 1.524 . S
C1454 H1466 0.956 . S
C1454 H1467 0.961 . S
C1454 H1468 0.961 . S
C1455 C1452 1.539 . S
C1455 H1469 0.958 . S
C1455 H1470 0.961 . S
C1455 H1471 0.960 . S
H1456 C1440 0.931 . S
H1457 C1445 0.929 . S
H1458 C1446 0.960 . S
H1459 C1446 0.962 . S
H1460 C1446 0.960 . S
H1461 C1447 0.961 . S
H1462 C1447 0.961 . S
H1463 C1447 0.961 . S
H1464 C1448 0.931 . S
H1465 C1453 0.930 . S
H1466 C1454 0.956 . S
H1467 C1454 0.961 . S
H1468 C1454 0.961 . S
H1469 C1455 0.958 . S
H1470 C1455 0.961 . S
H1471 C1455 0.960 . S
C1472 C1473 1.391 . S
C1472 C1474 1.394 . S
C1472 H1488 0.931 . S
C1473 C1472 1.391 . S
C1473 C1477 1.376 . S
C1474 C1472 1.394 . S
C1474 C1475 1.369 . S
C1474 C1478 1.531 . S
C1475 C1474 1.369 . S
C1475 C1476 1.410 . S
C1475 C1483 1.503 . S
C1476 C1475 1.410 . S
C1476 C1477 1.392 . S
C1476 C1479 1.511 . S
C1477 C1473 1.376 . S
C1477 C1476 1.392 . S
C1477 H1489 0.929 . S
C1478 C1474 1.531 . S
C1478 H1490 0.960 1_554 S
C1478 H1491 0.962 . S
C1478 H1492 0.960 . S
C1479 C1476 1.511 . S
C1479 H1493 0.961 . S
C1479 H1494 0.961 . S
C1479 H1495 0.961 . S
C1480 C1481 1.370 1_554 S
C1480 C1482 1.363 . S
C1480 H1496 0.931 . S
C1481 C1480 1.370 1_556 S
C1481 C1485 1.408 . S
C1482 C1480 1.363 . S
C1482 C1483 1.370 . S
C1482 C1486 1.524 . S
C1483 C1475 1.503 . S
C1483 C1482 1.370 . S
C1483 C1484 1.403 1_554 S
C1484 C1483 1.403 1_556 S
C1484 C1485 1.404 . S
C1484 C1487 1.539 . S
C1485 C1481 1.408 . S
C1485 C1484 1.404 . S
C1485 H1497 0.930 . S
C1486 C1482 1.524 . S
C1486 H1498 0.956 . S
C1486 H1499 0.961 . S
C1486 H1500 0.961 . S
C1487 C1484 1.539 . S
C1487 H1501 0.958 . S
C1487 H1502 0.961 . S
C1487 H1503 0.960 1_556 S
H1488 C1472 0.931 . S
H1489 C1477 0.929 . S
H1490 C1478 0.960 1_556 S
H1491 C1478 0.962 . S
H1492 C1478 0.960 . S
H1493 C1479 0.961 . S
H1494 C1479 0.961 . S
H1495 C1479 0.961 . S
H1496 C1480 0.931 . S
H1497 C1485 0.930 . S
H1498 C1486 0.956 . S
H1499 C1486 0.961 . S
H1500 C1486 0.961 . S
H1501 C1487 0.958 . S
H1502 C1487 0.961 . S
H1503 C1487 0.960 1_554 S
C1504 C1505 1.391 . S
C1504 C1506 1.394 . S
C1504 H1520 0.931 . S
C1505 C1504 1.391 . S
C1505 C1509 1.376 . S
C1506 C1504 1.394 . S
C1506 C1507 1.369 . S
C1506 C1510 1.531 1_655 S
C1507 C1506 1.369 . S
C1507 C1508 1.410 . S
C1507 C1515 1.503 1_655 S
C1508 C1507 1.410 . S
C1508 C1509 1.392 . S
C1508 C1511 1.511 . S
C1509 C1505 1.376 . S
C1509 C1508 1.392 . S
C1509 H1521 0.929 . S
C1510 C1506 1.531 1_455 S
C1510 H1522 0.960 . S
C1510 H1523 0.962 . S
C1510 H1524 0.960 . S
C1511 C1508 1.511 . S
C1511 H1525 0.961 . S
C1511 H1526 0.961 . S
C1511 H1527 0.961 . S
C1512 C1513 1.370 . S
C1512 C1514 1.363 . S
C1512 H1528 0.931 . S
C1513 C1512 1.370 . S
C1513 C1517 1.408 . S
C1514 C1512 1.363 . S
C1514 C1515 1.370 . S
C1514 C1518 1.524 . S
C1515 C1507 1.503 1_455 S
C1515 C1514 1.370 . S
C1515 C1516 1.403 . S
C1516 C1515 1.403 . S
C1516 C1517 1.404 . S
C1516 C1519 1.539 . S
C1517 C1513 1.408 . S
C1517 C1516 1.404 . S
C1517 H1529 0.930 . S
C1518 C1514 1.524 . S
C1518 H1530 0.956 . S
C1518 H1531 0.912 1_455 S
C1518 H1532 0.961 . S
C1519 C1516 1.539 . S
C1519 H1533 0.958 . S
C1519 H1534 0.961 . S
C1519 H1535 0.960 1_455 S
H1520 C1504 0.931 . S
H1521 C1509 0.929 . S
H1522 C1510 0.960 . S
H1523 C1510 0.962 . S
H1524 C1510 0.960 . S
H1525 C1511 0.961 . S
H1526 C1511 0.961 . S
H1527 C1511 0.961 . S
H1528 C1512 0.931 . S
H1529 C1517 0.930 . S
H1530 C1518 0.956 . S
H1531 C1518 0.912 1_655 S
H1532 C1518 0.961 . S
H1533 C1519 0.958 . S
H1534 C1519 0.961 . S
H1535 C1519 0.960 1_655 S
C1536 C1537 1.391 . S
C1536 C1538 1.394 . S
C1536 H1552 0.931 . S
C1537 C1536 1.391 . S
C1537 C1541 1.376 . S
C1538 C1536 1.394 . S
C1538 C1539 1.369 . S
C1538 C1542 1.531 . S
C1539 C1538 1.369 . S
C1539 C1540 1.410 . S
C1539 C1547 1.503 . S
C1540 C1539 1.410 . S
C1540 C1541 1.392 . S
C1540 C1543 1.511 . S
C1541 C1537 1.376 . S
C1541 C1540 1.392 . S
C1541 H1553 0.929 . S
C1542 C1538 1.531 . S
C1542 H1554 0.960 . S
C1542 H1555 0.962 . S
C1542 H1556 0.960 . S
C1543 C1540 1.511 . S
C1543 H1557 0.961 . S
C1543 H1558 0.961 . S
C1543 H1559 0.961 . S
C1544 C1545 1.370 . S
C1544 C1546 1.363 . S
C1544 H1560 0.931 . S
C1545 C1544 1.370 . S
C1545 C1549 1.408 . S
C1546 C1544 1.363 . S
C1546 C1547 1.370 . S
C1546 C1550 1.524 . S
C1547 C1539 1.503 . S
C1547 C1546 1.370 . S
C1547 C1548 1.403 . S
C1548 C1547 1.403 . S
C1548 C1549 1.404 . S
C1548 C1551 1.539 . S
C1549 C1545 1.408 . S
C1549 C1548 1.404 . S
C1549 H1561 0.930 . S
C1550 C1546 1.524 . S
C1550 H1562 0.956 . S
C1550 H1563 0.961 . S
C1550 H1564 0.961 . S
C1551 C1548 1.539 . S
C1551 H1565 0.958 . S
C1551 H1566 0.961 . S
C1551 H1567 0.960 . S
H1552 C1536 0.931 . S
H1553 C1541 0.929 . S
H1554 C1542 0.960 . S
H1555 C1542 0.962 . S
H1556 C1542 0.960 . S
H1557 C1543 0.961 . S
H1558 C1543 0.961 . S
H1559 C1543 0.961 . S
H1560 C1544 0.931 . S
H1561 C1549 0.930 . S
H1562 C1550 0.956 . S
H1563 C1550 0.961 . S
H1564 C1550 0.961 . S
H1565 C1551 0.958 . S
H1566 C1551 0.961 . S
H1567 C1551 0.960 . S
C1568 C1569 1.391 . S
C1568 C1570 1.394 . S
C1568 H1584 0.931 . S
C1569 C1568 1.391 . S
C1569 C1573 1.376 . S
C1570 C1568 1.394 . S
C1570 C1571 1.369 . S
C1570 C1574 1.531 . S
C1571 C1570 1.369 . S
C1571 C1572 1.410 . S
C1571 C1579 1.503 . S
C1572 C1571 1.410 . S
C1572 C1573 1.392 . S
C1572 C1575 1.511 . S
C1573 C1569 1.376 . S
C1573 C1572 1.392 . S
C1573 H1585 0.929 . S
C1574 C1570 1.531 . S
C1574 H1586 0.960 . S
C1574 H1587 0.962 . S
C1574 H1588 0.960 . S
C1575 C1572 1.511 . S
C1575 H1589 0.961 . S
C1575 H1590 0.961 . S
C1575 H1591 0.961 . S
C1576 C1577 1.370 . S
C1576 C1578 1.363 . S
C1576 H1592 0.931 . S
C1577 C1576 1.370 . S
C1577 C1581 1.408 . S
C1578 C1576 1.363 . S
C1578 C1579 1.370 . S
C1578 C1582 1.524 . S
C1579 C1571 1.503 . S
C1579 C1578 1.370 . S
C1579 C1580 1.403 . S
C1580 C1579 1.403 . S
C1580 C1581 1.404 . S
C1580 C1583 1.539 . S
C1581 C1577 1.408 . S
C1581 C1580 1.404 . S
C1581 H1593 0.930 . S
C1582 C1578 1.524 . S
C1582 H1594 0.956 . S
C1582 H1595 0.961 . S
C1582 H1596 0.961 . S
C1583 C1580 1.539 . S
C1583 H1597 0.958 . S
C1583 H1598 0.961 . S
C1583 H1599 0.960 . S
H1584 C1568 0.931 . S
H1585 C1573 0.929 . S
H1586 C1574 0.960 . S
H1587 C1574 0.962 . S
H1588 C1574 0.960 . S
H1589 C1575 0.961 . S
H1590 C1575 0.961 . S
H1591 C1575 0.961 . S
H1592 C1576 0.931 . S
H1593 C1581 0.930 . S
H1594 C1582 0.956 . S
H1595 C1582 0.961 . S
H1596 C1582 0.961 . S
H1597 C1583 0.958 . S
H1598 C1583 0.961 . S
H1599 C1583 0.960 . S
C1600 C1601 1.391 . S
C1600 C1602 1.394 . S
C1600 H1616 0.931 . S
C1601 C1600 1.391 . S
C1601 C1605 1.376 . S
C1602 C1600 1.394 . S
C1602 C1603 1.369 . S
C1602 C1606 1.531 . S
C1603 C1602 1.369 . S
C1603 C1604 1.410 . S
C1603 C1611 1.503 . S
C1604 C1603 1.410 . S
C1604 C1605 1.392 . S
C1604 C1607 1.511 . S
C1605 C1601 1.376 . S
C1605 C1604 1.392 . S
C1605 H1617 0.929 . S
C1606 C1602 1.531 . S
C1606 H1618 0.960 . S
C1606 H1619 0.962 . S
C1606 H1620 0.960 . S
C1607 C1604 1.511 . S
C1607 H1621 0.961 . S
C1607 H1622 0.961 . S
C1607 H1623 0.961 . S
C1608 C1609 1.370 . S
C1608 C1610 1.363 . S
C1608 H1624 0.931 . S
C1609 C1608 1.370 . S
C1609 C1613 1.408 . S
C1610 C1608 1.363 . S
C1610 C1611 1.370 . S
C1610 C1614 1.524 . S
C1611 C1603 1.503 . S
C1611 C1610 1.370 . S
C1611 C1612 1.403 . S
C1612 C1611 1.403 . S
C1612 C1613 1.404 . S
C1612 C1615 1.539 . S
C1613 C1609 1.408 . S
C1613 C1612 1.404 . S
C1613 H1625 0.930 . S
C1614 C1610 1.524 . S
C1614 H1626 0.956 . S
C1614 H1627 0.961 . S
C1614 H1628 0.961 . S
C1615 C1612 1.539 . S
C1615 H1629 0.958 . S
C1615 H1630 0.961 . S
C1615 H1631 0.960 . S
H1616 C1600 0.931 . S
H1617 C1605 0.929 . S
H1618 C1606 0.960 . S
H1619 C1606 0.962 . S
H1620 C1606 0.960 . S
H1621 C1607 0.961 . S
H1622 C1607 0.961 . S
H1623 C1607 0.961 . S
H1624 C1608 0.931 . S
H1625 C1613 0.930 . S
H1626 C1614 0.956 . S
H1627 C1614 0.961 . S
H1628 C1614 0.961 . S
H1629 C1615 0.958 . S
H1630 C1615 0.961 . S
H1631 C1615 0.960 . S
C1632 C1633 1.391 . S
C1632 C1634 1.394 . S
C1632 H1648 0.931 . S
C1633 C1632 1.391 . S
C1633 C1637 1.376 . S
C1634 C1632 1.394 . S
C1634 C1635 1.369 . S
C1634 C1638 1.531 . S
C1635 C1634 1.369 . S
C1635 C1636 1.410 . S
C1635 C1643 1.503 . S
C1636 C1635 1.410 . S
C1636 C1637 1.392 . S
C1636 C1639 1.511 . S
C1637 C1633 1.376 . S
C1637 C1636 1.392 . S
C1637 H1649 0.929 . S
C1638 C1634 1.531 . S
C1638 H1650 0.960 . S
C1638 H1651 0.962 . S
C1638 H1652 0.960 . S
C1639 C1636 1.511 . S
C1639 H1653 0.961 . S
C1639 H1654 0.961 . S
C1639 H1655 0.961 . S
C1640 C1641 1.370 . S
C1640 C1642 1.363 . S
C1640 H1656 0.931 . S
C1641 C1640 1.370 . S
C1641 C1645 1.408 . S
C1642 C1640 1.363 . S
C1642 C1643 1.370 . S
C1642 C1646 1.524 . S
C1643 C1635 1.503 . S
C1643 C1642 1.370 . S
C1643 C1644 1.403 . S
C1644 C1643 1.403 . S
C1644 C1645 1.404 . S
C1644 C1647 1.539 . S
C1645 C1641 1.408 . S
C1645 C1644 1.404 . S
C1645 H1657 0.930 . S
C1646 C1642 1.524 . S
C1646 H1658 0.956 . S
C1646 H1659 0.961 . S
C1646 H1660 0.961 . S
C1647 C1644 1.539 . S
C1647 H1661 0.958 . S
C1647 H1662 0.961 . S
C1647 H1663 0.960 . S
H1648 C1632 0.931 . S
H1649 C1637 0.929 . S
H1650 C1638 0.960 . S
H1651 C1638 0.962 . S
H1652 C1638 0.960 . S
H1653 C1639 0.961 . S
H1654 C1639 0.961 . S
H1655 C1639 0.961 . S
H1656 C1640 0.931 . S
H1657 C1645 0.930 . S
H1658 C1646 0.956 . S
H1659 C1646 0.961 . S
H1660 C1646 0.961 . S
H1661 C1647 0.958 . S
H1662 C1647 0.961 . S
H1663 C1647 0.960 . S
C1664 C1665 1.391 . S
C1664 C1666 1.394 . S
C1664 H1680 0.931 . S
C1665 C1664 1.391 . S
C1665 C1669 1.376 . S
C1666 C1664 1.394 . S
C1666 C1667 1.369 . S
C1666 C1670 1.531 . S
C1667 C1666 1.369 . S
C1667 C1668 1.410 . S
C1667 C1675 1.503 . S
C1668 C1667 1.410 . S
C1668 C1669 1.392 . S
C1668 C1671 1.511 . S
C1669 C1665 1.376 . S
C1669 C1668 1.392 . S
C1669 H1681 0.929 . S
C1670 C1666 1.531 . S
C1670 H1682 0.960 . S
C1670 H1683 0.962 . S
C1670 H1684 0.960 . S
C1671 C1668 1.511 . S
C1671 H1685 0.961 . S
C1671 H1686 0.961 . S
C1671 H1687 0.961 . S
C1672 C1673 1.370 1_556 S
C1672 C1674 1.363 . S
C1672 H1688 0.931 . S
C1673 C1672 1.370 1_554 S
C1673 C1677 1.408 . S
C1674 C1672 1.363 . S
C1674 C1675 1.370 . S
C1674 C1678 1.524 . S
C1675 C1667 1.503 . S
C1675 C1674 1.370 . S
C1675 C1676 1.403 1_556 S
C1676 C1675 1.403 1_554 S
C1676 C1677 1.404 . S
C1676 C1679 1.539 . S
C1677 C1673 1.408 . S
C1677 C1676 1.404 . S
C1677 H1689 0.930 . S
C1678 C1674 1.524 . S
C1678 H1690 0.956 . S
C1678 H1691 0.961 . S
C1678 H1692 0.961 . S
C1679 C1676 1.539 . S
C1679 H1693 0.958 . S
C1679 H1694 0.961 . S
C1679 H1695 0.960 . S
H1680 C1664 0.931 . S
H1681 C1669 0.929 . S
H1682 C1670 0.960 . S
H1683 C1670 0.962 . S
H1684 C1670 0.960 . S
H1685 C1671 0.961 . S
H1686 C1671 0.961 . S
H1687 C1671 0.961 . S
H1688 C1672 0.931 . S
H1689 C1677 0.930 . S
H1690 C1678 0.956 . S
H1691 C1678 0.961 . S
H1692 C1678 0.961 . S
H1693 C1679 0.958 . S
H1694 C1679 0.961 . S
H1695 C1679 0.960 . S
C1696 C1697 1.391 . S
C1696 C1698 1.394 . S
C1696 H1712 0.931 . S
C1697 C1696 1.391 . S
C1697 C1701 1.376 . S
C1698 C1696 1.394 . S
C1698 C1699 1.369 . S
C1698 C1702 1.531 . S
C1699 C1698 1.369 . S
C1699 C1700 1.410 . S
C1699 C1707 1.503 1_455 S
C1700 C1699 1.410 . S
C1700 C1701 1.392 . S
C1700 C1703 1.511 1_455 S
C1701 C1697 1.376 . S
C1701 C1700 1.392 . S
C1701 H1713 0.929 1_554 S
C1702 C1698 1.531 . S
C1702 H1714 0.960 . S
C1702 H1715 0.962 . S
C1702 H1716 0.960 . S
C1703 C1700 1.511 1_655 S
C1703 H1717 0.961 . S
C1703 H1718 0.961 . S
C1703 H1719 0.961 . S
C1704 C1705 1.370 . S
C1704 C1706 1.363 . S
C1704 H1720 0.931 . S
C1705 C1704 1.370 . S
C1705 C1709 1.408 . S
C1706 C1704 1.363 . S
C1706 C1707 1.370 . S
C1706 C1710 1.524 . S
C1707 C1699 1.503 1_655 S
C1707 C1706 1.370 . S
C1707 C1708 1.403 . S
C1708 C1707 1.403 . S
C1708 C1709 1.404 . S
C1708 C1711 1.539 . S
C1709 C1705 1.408 . S
C1709 C1708 1.404 . S
C1709 H1721 0.930 . S
C1710 C1706 1.524 . S
C1710 H1722 0.956 1_655 S
C1710 H1723 0.961 . S
C1710 H1724 0.961 . S
C1711 C1708 1.539 . S
C1711 H1725 0.958 1_655 S
C1711 H1726 0.961 . S
C1711 H1727 0.956 1_655 S
H1712 C1696 0.931 . S
H1713 C1701 0.929 1_556 S
H1714 C1702 0.960 . S
H1715 C1702 0.962 . S
H1716 C1702 0.960 . S
H1717 C1703 0.961 . S
H1718 C1703 0.961 . S
H1719 C1703 0.961 . S
H1720 C1704 0.931 . S
H1721 C1709 0.930 . S
H1722 C1710 0.956 1_455 S
H1723 C1710 0.961 . S
H1724 C1710 0.961 . S
H1725 C1711 0.958 1_455 S
H1726 C1711 0.961 . S
H1727 C1711 0.956 1_455 S
C1728 C1729 1.391 . S
C1728 C1730 1.394 . S
C1728 H1744 0.931 . S
C1729 C1728 1.391 . S
C1729 C1733 1.376 . S
C1730 C1728 1.394 . S
C1730 C1731 1.369 . S
C1730 C1734 1.531 . S
C1731 C1730 1.369 . S
C1731 C1732 1.410 . S
C1731 C1739 1.503 . S
C1732 C1731 1.410 . S
C1732 C1733 1.392 . S
C1732 C1735 1.511 . S
C1733 C1729 1.376 . S
C1733 C1732 1.392 . S
C1733 H1745 0.929 . S
C1734 C1730 1.531 . S
C1734 H1746 0.960 . S
C1734 H1747 0.962 . S
C1734 H1748 0.960 . S
C1735 C1732 1.511 . S
C1735 H1749 0.961 . S
C1735 H1750 0.961 . S
C1735 H1751 0.961 . S
C1736 C1737 1.370 . S
C1736 C1738 1.375 . S
C1736 H1752 0.931 . S
C1737 C1736 1.370 . S
C1737 C1741 1.408 1_554 S
C1738 C1736 1.375 . S
C1738 C1739 1.355 1_554 S
C1738 C1742 1.528 . S
C1739 C1731 1.503 . S
C1739 C1738 1.355 1_556 S
C1739 C1740 1.403 . S
C1740 C1739 1.403 . S
C1740 C1741 1.404 . S
C1740 C1743 1.539 . S
C1741 C1737 1.408 1_556 S
C1741 C1740 1.404 . S
C1741 H1753 0.930 . S
C1742 C1738 1.528 . S
C1742 H1754 0.956 1_554 S
C1742 H1755 0.961 . S
C1742 H1756 0.961 . S
C1743 C1740 1.539 . S
C1743 H1757 0.958 . S
C1743 H1758 0.961 . S
C1743 H1759 0.960 . S
H1744 C1728 0.931 . S
H1745 C1733 0.929 . S
H1746 C1734 0.960 . S
H1747 C1734 0.962 . S
H1748 C1734 0.960 . S
H1749 C1735 0.961 . S
H1750 C1735 0.961 . S
H1751 C1735 0.961 . S
H1752 C1736 0.931 . S
H1753 C1741 0.930 . S
H1754 C1742 0.956 1_556 S
H1755 C1742 0.961 . S
H1756 C1742 0.961 . S
H1757 C1743 0.958 . S
H1758 C1743 0.961 . S
H1759 C1743 0.960 . S
C1760 C1761 1.391 . S
C1760 C1762 1.394 . S
C1760 H1776 0.931 . S
C1761 C1760 1.391 . S
C1761 C1765 1.376 . S
C1762 C1760 1.394 . S
C1762 C1763 1.369 . S
C1762 C1766 1.531 . S
C1763 C1762 1.369 . S
C1763 C1764 1.410 . S
C1763 C1771 1.503 1_455 S
C1764 C1763 1.410 . S
C1764 C1765 1.392 . S
C1764 C1767 1.511 1_455 S
C1765 C1761 1.376 . S
C1765 C1764 1.392 . S
C1765 H1777 0.929 . S
C1766 C1762 1.531 . S
C1766 H1778 0.960 . S
C1766 H1779 0.962 . S
C1766 H1780 0.960 . S
C1767 C1764 1.511 1_655 S
C1767 H1781 0.961 . S
C1767 H1782 0.961 . S
C1767 H1783 0.961 . S
C1768 C1769 1.370 . S
C1768 C1770 1.363 . S
C1768 H1784 0.931 . S
C1769 C1768 1.370 . S
C1769 C1773 1.408 . S
C1770 C1768 1.363 . S
C1770 C1771 1.370 . S
C1770 C1774 1.524 1_655 S
C1771 C1763 1.503 1_655 S
C1771 C1770 1.370 . S
C1771 C1772 1.403 . S
C1772 C1771 1.403 . S
C1772 C1773 1.404 . S
C1772 C1775 1.539 . S
C1773 C1769 1.408 . S
C1773 C1772 1.404 . S
C1773 H1785 0.930 . S
C1774 C1770 1.524 1_455 S
C1774 H1786 0.956 . S
C1774 H1787 0.961 . S
C1774 H1788 0.961 . S
C1775 C1772 1.539 . S
C1775 H1789 0.958 . S
C1775 H1790 0.961 . S
C1775 H1791 0.960 . S
H1776 C1760 0.931 . S
H1777 C1765 0.929 . S
H1778 C1766 0.960 . S
H1779 C1766 0.962 . S
H1780 C1766 0.960 . S
H1781 C1767 0.961 . S
H1782 C1767 0.961 . S
H1783 C1767 0.961 . S
H1784 C1768 0.931 . S
H1785 C1773 0.930 . S
H1786 C1774 0.956 . S
H1787 C1774 0.961 . S
H1788 C1774 0.961 . S
H1789 C1775 0.958 . S
H1790 C1775 0.961 . S
H1791 C1775 0.960 . S
C1792 C1793 1.391 . S
C1792 C1794 1.394 . S
C1792 H1808 0.931 . S
C1793 C1792 1.391 . S
C1793 C1797 1.376 . S
C1794 C1792 1.394 . S
C1794 C1795 1.369 . S
C1794 C1798 1.531 . S
C1795 C1794 1.369 . S
C1795 C1796 1.410 . S
C1795 C1803 1.503 . S
C1796 C1795 1.410 . S
C1796 C1797 1.392 . S
C1796 C1799 1.511 . S
C1797 C1793 1.376 . S
C1797 C1796 1.392 . S
C1797 H1809 0.929 . S
C1798 C1794 1.531 . S
C1798 H1810 0.960 . S
C1798 H1811 0.962 . S
C1798 H1812 0.960 . S
C1799 C1796 1.511 . S
C1799 H1813 0.961 . S
C1799 H1814 0.961 . S
C1799 H1815 0.961 . S
C1800 C1801 1.370 . S
C1800 C1802 1.363 . S
C1800 H1816 0.931 . S
C1801 C1800 1.370 . S
C1801 C1805 1.408 . S
C1802 C1800 1.363 . S
C1802 C1803 1.370 . S
C1802 C1806 1.524 . S
C1803 C1795 1.503 . S
C1803 C1802 1.370 . S
C1803 C1804 1.403 . S
C1804 C1803 1.403 . S
C1804 C1805 1.404 . S
C1804 C1807 1.539 . S
C1805 C1801 1.408 . S
C1805 C1804 1.404 . S
C1805 H1817 0.930 . S
C1806 C1802 1.524 . S
C1806 H1818 0.956 . S
C1806 H1819 0.961 . S
C1806 H1820 0.961 . S
C1807 C1804 1.539 . S
C1807 H1821 0.958 . S
C1807 H1822 0.961 . S
C1807 H1823 0.960 . S
H1808 C1792 0.931 . S
H1809 C1797 0.929 . S
H1810 C1798 0.960 . S
H1811 C1798 0.962 . S
H1812 C1798 0.960 . S
H1813 C1799 0.961 . S
H1814 C1799 0.961 . S
H1815 C1799 0.961 . S
H1816 C1800 0.931 . S
H1817 C1805 0.930 . S
H1818 C1806 0.956 . S
H1819 C1806 0.961 . S
H1820 C1806 0.961 . S
H1821 C1807 0.958 . S
H1822 C1807 0.961 . S
H1823 C1807 0.960 . S
C1824 C1825 1.391 . S
C1824 C1826 1.394 . S
C1824 H1840 0.931 . S
C1825 C1824 1.391 . S
C1825 C1829 1.376 . S
C1826 C1824 1.394 . S
C1826 C1827 1.369 . S
C1826 C1830 1.531 . S
C1827 C1826 1.369 . S
C1827 C1828 1.410 . S
C1827 C1835 1.503 . S
C1828 C1827 1.410 . S
C1828 C1829 1.392 . S
C1828 C1831 1.511 . S
C1829 C1825 1.376 . S
C1829 C1828 1.392 . S
C1829 H1841 0.929 . S
C1830 C1826 1.531 . S
C1830 H1842 0.960 . S
C1830 H1843 0.962 . S
C1830 H1844 0.960 . S
C1831 C1828 1.511 . S
C1831 H1845 0.961 . S
C1831 H1846 0.961 . S
C1831 H1847 0.961 . S
C1832 C1833 1.370 . S
C1832 C1834 1.363 . S
C1832 H1848 0.931 . S
C1833 C1832 1.370 . S
C1833 C1837 1.408 . S
C1834 C1832 1.363 . S
C1834 C1835 1.370 . S
C1834 C1838 1.524 . S
C1835 C1827 1.503 . S
C1835 C1834 1.370 . S
C1835 C1836 1.403 . S
C1836 C1835 1.403 . S
C1836 C1837 1.404 . S
C1836 C1839 1.539 . S
C1837 C1833 1.408 . S
C1837 C1836 1.404 . S
C1837 H1849 0.930 . S
C1838 C1834 1.524 . S
C1838 H1850 0.956 . S
C1838 H1851 0.961 . S
C1838 H1852 0.961 . S
C1839 C1836 1.539 . S
C1839 H1853 0.958 . S
C1839 H1854 0.961 . S
C1839 H1855 0.960 . S
H1840 C1824 0.931 . S
H1841 C1829 0.929 . S
H1842 C1830 0.960 . S
H1843 C1830 0.962 . S
H1844 C1830 0.960 . S
H1845 C1831 0.961 . S
H1846 C1831 0.961 . S
H1847 C1831 0.961 . S
H1848 C1832 0.931 . S
H1849 C1837 0.930 . S
H1850 C1838 0.956 . S
H1851 C1838 0.961 . S
H1852 C1838 0.961 . S
H1853 C1839 0.958 . S
H1854 C1839 0.961 . S
H1855 C1839 0.960 . S
C1856 C1857 1.391 . S
C1856 C1858 1.394 . S
C1856 H1872 0.931 . S
C1857 C1856 1.391 . S
C1857 C1861 1.376 . S
C1858 C1856 1.394 . S
C1858 C1859 1.369 . S
C1858 C1862 1.531 . S
C1859 C1858 1.369 . S
C1859 C1860 1.410 . S
C1859 C1867 1.503 . S
C1860 C1859 1.410 . S
C1860 C1861 1.392 . S
C1860 C1863 1.511 . S
C1861 C1857 1.376 . S
C1861 C1860 1.392 . S
C1861 H1873 0.929 . S
C1862 C1858 1.531 . S
C1862 H1874 0.960 . S
C1862 H1875 0.962 . S
C1862 H1876 0.960 . S
C1863 C1860 1.511 . S
C1863 H1877 0.961 . S
C1863 H1878 0.961 . S
C1863 H1879 0.961 . S
C1864 C1865 1.370 . S
C1864 C1866 1.363 . S
C1864 H1880 0.931 . S
C1865 C1864 1.370 . S
C1865 C1869 1.408 . S
C1866 C1864 1.363 . S
C1866 C1867 1.370 . S
C1866 C1870 1.524 . S
C1867 C1859 1.503 . S
C1867 C1866 1.370 . S
C1867 C1868 1.403 . S
C1868 C1867 1.403 . S
C1868 C1869 1.404 . S
C1868 C1871 1.539 . S
C1869 C1865 1.408 . S
C1869 C1868 1.404 . S
C1869 H1881 0.930 . S
C1870 C1866 1.524 . S
C1870 H1882 0.956 . S
C1870 H1883 0.961 . S
C1870 H1884 0.961 . S
C1871 C1868 1.539 . S
C1871 H1885 0.958 . S
C1871 H1886 0.961 . S
C1871 H1887 0.960 . S
H1872 C1856 0.931 . S
H1873 C1861 0.929 . S
H1874 C1862 0.960 . S
H1875 C1862 0.962 . S
H1876 C1862 0.960 . S
H1877 C1863 0.961 . S
H1878 C1863 0.961 . S
H1879 C1863 0.961 . S
H1880 C1864 0.931 . S
H1881 C1869 0.930 . S
H1882 C1870 0.956 . S
H1883 C1870 0.961 . S
H1884 C1870 0.961 . S
H1885 C1871 0.958 . S
H1886 C1871 0.961 . S
H1887 C1871 0.960 . S
C1888 C1889 1.391 . S
C1888 C1890 1.394 . S
C1888 H1904 0.931 . S
C1889 C1888 1.391 . S
C1889 C1893 1.376 . S
C1890 C1888 1.394 . S
C1890 C1891 1.369 . S
C1890 C1894 1.531 . S
C1891 C1890 1.369 . S
C1891 C1892 1.410 . S
C1891 C1899 1.503 . S
C1892 C1891 1.410 . S
C1892 C1893 1.392 . S
C1892 C1895 1.511 . S
C1893 C1889 1.376 . S
C1893 C1892 1.392 . S
C1893 H1905 0.929 . S
C1894 C1890 1.531 . S
C1894 H1906 0.960 . S
C1894 H1907 0.962 . S
C1894 H1908 0.960 . S
C1895 C1892 1.511 . S
C1895 H1909 0.961 . S
C1895 H1910 0.961 . S
C1895 H1911 0.961 . S
C1896 C1897 1.370 . S
C1896 C1898 1.363 . S
C1896 H1912 0.931 . S
C1897 C1896 1.370 . S
C1897 C1901 1.408 . S
C1898 C1896 1.363 . S
C1898 C1899 1.370 . S
C1898 C1902 1.524 . S
C1899 C1891 1.503 . S
C1899 C1898 1.370 . S
C1899 C1900 1.403 . S
C1900 C1899 1.403 . S
C1900 C1901 1.404 . S
C1900 C1903 1.539 . S
C1901 C1897 1.408 . S
C1901 C1900 1.404 . S
C1901 H1913 0.930 . S
C1902 C1898 1.524 . S
C1902 H1914 0.956 . S
C1902 H1915 0.961 . S
C1902 H1916 0.961 . S
C1903 C1900 1.539 . S
C1903 H1917 0.958 . S
C1903 H1918 0.961 . S
C1903 H1919 0.960 . S
H1904 C1888 0.931 . S
H1905 C1893 0.929 . S
H1906 C1894 0.960 . S
H1907 C1894 0.962 . S
H1908 C1894 0.960 . S
H1909 C1895 0.961 . S
H1910 C1895 0.961 . S
H1911 C1895 0.961 . S
H1912 C1896 0.931 . S
H1913 C1901 0.930 . S
H1914 C1902 0.956 . S
H1915 C1902 0.961 . S
H1916 C1902 0.961 . S
H1917 C1903 0.958 . S
H1918 C1903 0.961 . S
H1919 C1903 0.960 . S
C1920 C1921 1.391 . S
C1920 C1922 1.394 . S
C1920 H1936 0.931 . S
C1921 C1920 1.391 . S
C1921 C1925 1.376 . S
C1922 C1920 1.394 . S
C1922 C1923 1.369 . S
C1922 C1926 1.531 . S
C1923 C1922 1.369 . S
C1923 C1924 1.410 . S
C1923 C1931 1.503 . S
C1924 C1923 1.410 . S
C1924 C1925 1.392 . S
C1924 C1927 1.511 . S
C1925 C1921 1.376 . S
C1925 C1924 1.392 . S
C1925 H1937 0.929 . S
C1926 C1922 1.531 . S
C1926 H1938 0.960 . S
C1926 H1939 0.962 . S
C1926 H1940 0.960 . S
C1927 C1924 1.511 . S
C1927 H1941 0.961 . S
C1927 H1942 0.961 . S
C1927 H1943 0.961 . S
C1928 C1929 1.370 1_554 S
C1928 C1930 1.363 . S
C1928 H1944 0.931 . S
C1929 C1928 1.370 1_556 S
C1929 C1933 1.408 . S
C1930 C1928 1.363 . S
C1930 C1931 1.370 . S
C1930 C1934 1.524 . S
C1931 C1923 1.503 . S
C1931 C1930 1.370 . S
C1931 C1932 1.403 1_554 S
C1932 C1931 1.403 1_556 S
C1932 C1933 1.404 . S
C1932 C1935 1.539 . S
C1933 C1929 1.408 . S
C1933 C1932 1.404 . S
C1933 H1945 0.930 . S
C1934 C1930 1.524 . S
C1934 H1946 0.956 . S
C1934 H1947 0.961 . S
C1934 H1948 0.961 . S
C1935 C1932 1.539 . S
C1935 H1949 0.958 . S
C1935 H1950 0.961 . S
C1935 H1951 0.960 1_556 S
H1936 C1920 0.931 . S
H1937 C1925 0.929 . S
H1938 C1926 0.960 . S
H1939 C1926 0.962 . S
H1940 C1926 0.960 . S
H1941 C1927 0.961 . S
H1942 C1927 0.961 . S
H1943 C1927 0.961 . S
H1944 C1928 0.931 . S
H1945 C1933 0.930 . S
H1946 C1934 0.956 . S
H1947 C1934 0.961 . S
H1948 C1934 0.961 . S
H1949 C1935 0.958 . S
H1950 C1935 0.961 . S
H1951 C1935 0.960 1_554 S
C1952 C1953 1.391 . S
C1952 C1954 1.394 . S
C1952 H1968 0.931 . S
C1953 C1952 1.391 . S
C1953 C1957 1.376 . S
C1954 C1952 1.394 . S
C1954 C1955 1.369 . S
C1954 C1958 1.531 . S
C1955 C1954 1.369 . S
C1955 C1956 1.410 . S
C1955 C1963 1.503 1_455 S
C1956 C1955 1.410 . S
C1956 C1957 1.392 . S
C1956 C1959 1.511 1_455 S
C1957 C1953 1.376 . S
C1957 C1956 1.392 . S
C1957 H1969 0.929 . S
C1958 C1954 1.531 . S
C1958 H1970 0.960 . S
C1958 H1971 0.962 . S
C1958 H1972 0.960 . S
C1959 C1956 1.511 1_655 S
C1959 H1973 0.961 . S
C1959 H1974 0.961 . S
C1959 H1975 0.961 . S
C1960 C1961 1.370 . S
C1960 C1962 1.363 . S
C1960 H1976 0.931 . S
C1961 C1960 1.370 . S
C1961 C1965 1.408 . S
C1962 C1960 1.363 . S
C1962 C1963 1.370 . S
C1962 C1966 1.524 . S
C1963 C1955 1.503 1_655 S
C1963 C1962 1.370 . S
C1963 C1964 1.403 . S
C1964 C1963 1.403 . S
C1964 C1965 1.404 . S
C1964 C1967 1.539 . S
C1965 C1961 1.408 . S
C1965 C1964 1.404 . S
C1965 H1977 0.930 . S
C1966 C1962 1.524 . S
C1966 H1978 0.956 1_655 S
C1966 H1979 0.961 . S
C1966 H1980 0.961 . S
C1967 C1964 1.539 . S
C1967 H1981 0.958 . S
C1967 H1982 0.961 . S
C1967 H1983 0.960 . S
H1968 C1952 0.931 . S
H1969 C1957 0.929 . S
H1970 C1958 0.960 . S
H1971 C1958 0.962 . S
H1972 C1958 0.960 . S
H1973 C1959 0.961 . S
H1974 C1959 0.961 . S
H1975 C1959 0.961 . S
H1976 C1960 0.931 . S
H1977 C1965 0.930 . S
H1978 C1966 0.956 1_455 S
H1979 C1966 0.961 . S
H1980 C1966 0.961 . S
H1981 C1967 0.958 . S
H1982 C1967 0.961 . S
H1983 C1967 0.960 . S
C1984 C1985 1.391 . S
C1984 C1986 1.394 . S
C1984 H2000 0.931 . S
C1985 C1984 1.391 . S
C1985 C1989 1.376 . S
C1986 C1984 1.394 . S
C1986 C1987 1.369 . S
C1986 C1990 1.531 . S
C1987 C1986 1.369 . S
C1987 C1988 1.410 . S
C1987 C1995 1.503 . S
C1988 C1987 1.410 . S
C1988 C1989 1.392 . S
C1988 C1991 1.511 . S
C1989 C1985 1.376 . S
C1989 C1988 1.392 . S
C1989 H2001 0.929 . S
C1990 C1986 1.531 . S
C1990 H2002 0.960 . S
C1990 H2003 0.962 . S
C1990 H2004 0.960 . S
C1991 C1988 1.511 . S
C1991 H2005 0.961 . S
C1991 H2006 0.961 . S
C1991 H2007 0.961 . S
C1992 C1993 1.370 . S
C1992 C1994 1.363 . S
C1992 H2008 0.931 . S
C1993 C1992 1.370 . S
C1993 C1997 1.408 . S
C1994 C1992 1.363 . S
C1994 C1995 1.370 . S
C1994 C1998 1.524 . S
C1995 C1987 1.503 . S
C1995 C1994 1.370 . S
C1995 C1996 1.403 . S
C1996 C1995 1.403 . S
C1996 C1997 1.404 . S
C1996 C1999 1.539 . S
C1997 C1993 1.408 . S
C1997 C1996 1.404 . S
C1997 H2009 0.930 . S
C1998 C1994 1.524 . S
C1998 H2010 0.956 . S
C1998 H2011 0.961 . S
C1998 H2012 0.961 . S
C1999 C1996 1.539 . S
C1999 H2013 0.958 . S
C1999 H2014 0.961 . S
C1999 H2015 0.960 . S
H2000 C1984 0.931 . S
H2001 C1989 0.929 . S
H2002 C1990 0.960 . S
H2003 C1990 0.962 . S
H2004 C1990 0.960 . S
H2005 C1991 0.961 . S
H2006 C1991 0.961 . S
H2007 C1991 0.961 . S
H2008 C1992 0.931 . S
H2009 C1997 0.930 . S
H2010 C1998 0.956 . S
H2011 C1998 0.961 . S
H2012 C1998 0.961 . S
H2013 C1999 0.958 . S
H2014 C1999 0.961 . S
H2015 C1999 0.960 . S
C2016 C2017 1.391 . S
C2016 C2018 1.394 . S
C2016 H2032 0.931 . S
C2017 C2016 1.391 . S
C2017 C2021 1.376 . S
C2018 C2016 1.394 . S
C2018 C2019 1.369 . S
C2018 C2022 1.531 . S
C2019 C2018 1.369 . S
C2019 C2020 1.410 . S
C2019 C2027 1.503 . S
C2020 C2019 1.410 . S
C2020 C2021 1.392 . S
C2020 C2023 1.511 . S
C2021 C2017 1.376 . S
C2021 C2020 1.392 . S
C2021 H2033 0.929 . S
C2022 C2018 1.531 . S
C2022 H2034 0.960 . S
C2022 H2035 0.962 . S
C2022 H2036 0.960 . S
C2023 C2020 1.511 . S
C2023 H2037 0.961 . S
C2023 H2038 0.961 . S
C2023 H2039 0.961 . S
C2024 C2025 1.370 . S
C2024 C2026 1.363 . S
C2024 H2040 0.931 . S
C2025 C2024 1.370 . S
C2025 C2029 1.408 . S
C2026 C2024 1.363 . S
C2026 C2027 1.370 . S
C2026 C2030 1.524 . S
C2027 C2019 1.503 . S
C2027 C2026 1.370 . S
C2027 C2028 1.403 . S
C2028 C2027 1.403 . S
C2028 C2029 1.404 . S
C2028 C2031 1.539 . S
C2029 C2025 1.408 . S
C2029 C2028 1.404 . S
C2029 H2041 0.930 . S
C2030 C2026 1.524 . S
C2030 H2042 0.956 . S
C2030 H2043 0.961 . S
C2030 H2044 0.961 . S
C2031 C2028 1.539 . S
C2031 H2045 0.958 . S
C2031 H2046 0.961 . S
C2031 H2047 0.960 . S
H2032 C2016 0.931 . S
H2033 C2021 0.929 . S
H2034 C2022 0.960 . S
H2035 C2022 0.962 . S
H2036 C2022 0.960 . S
H2037 C2023 0.961 . S
H2038 C2023 0.961 . S
H2039 C2023 0.961 . S
H2040 C2024 0.931 . S
H2041 C2029 0.930 . S
H2042 C2030 0.956 . S
H2043 C2030 0.961 . S
H2044 C2030 0.961 . S
H2045 C2031 0.958 . S
H2046 C2031 0.961 . S
H2047 C2031 0.960 . S
C2048 C2049 1.391 . S
C2048 C2050 1.394 . S
C2048 H2064 0.931 . S
C2049 C2048 1.391 . S
C2049 C2053 1.376 . S
C2050 C2048 1.394 . S
C2050 C2051 1.369 . S
C2050 C2054 1.531 . S
C2051 C2050 1.369 . S
C2051 C2052 1.410 . S
C2051 C2059 1.503 . S
C2052 C2051 1.410 . S
C2052 C2053 1.392 . S
C2052 C2055 1.511 . S
C2053 C2049 1.376 . S
C2053 C2052 1.392 . S
C2053 H2065 0.929 . S
C2054 C2050 1.531 . S
C2054 H2066 0.960 . S
C2054 H2067 0.962 . S
C2054 H2068 0.960 . S
C2055 C2052 1.511 . S
C2055 H2069 0.961 . S
C2055 H2070 0.961 . S
C2055 H2071 0.961 . S
C2056 C2057 1.370 1_554 S
C2056 C2058 1.363 . S
C2056 H2072 0.931 . S
C2057 C2056 1.370 1_556 S
C2057 C2061 1.408 . S
C2058 C2056 1.363 . S
C2058 C2059 1.370 . S
C2058 C2062 1.524 . S
C2059 C2051 1.503 . S
C2059 C2058 1.370 . S
C2059 C2060 1.403 1_554 S
C2060 C2059 1.403 1_556 S
C2060 C2061 1.404 . S
C2060 C2063 1.539 . S
C2061 C2057 1.408 . S
C2061 C2060 1.404 . S
C2061 H2073 0.930 . S
C2062 C2058 1.524 . S
C2062 H2074 0.956 . S
C2062 H2075 0.961 . S
C2062 H2076 0.961 . S
C2063 C2060 1.539 . S
C2063 H2077 0.958 . S
C2063 H2078 0.961 . S
C2063 H2079 0.960 . S
H2064 C2048 0.931 . S
H2065 C2053 0.929 . S
H2066 C2054 0.960 . S
H2067 C2054 0.962 . S
H2068 C2054 0.960 . S
H2069 C2055 0.961 . S
H2070 C2055 0.961 . S
H2071 C2055 0.961 . S
H2072 C2056 0.931 . S
H2073 C2061 0.930 . S
H2074 C2062 0.956 . S
H2075 C2062 0.961 . S
H2076 C2062 0.961 . S
H2077 C2063 0.958 . S
H2078 C2063 0.961 . S
H2079 C2063 0.960 . S
C2080 C2081 1.391 . S
C2080 C2082 1.394 . S
C2080 H2096 0.931 . S
C2081 C2080 1.391 . S
C2081 C2085 1.376 . S
C2082 C2080 1.394 . S
C2082 C2083 1.369 . S
C2082 C2086 1.531 . S
C2083 C2082 1.369 . S
C2083 C2084 1.410 . S
C2083 C2091 1.503 1_655 S
C2084 C2083 1.410 . S
C2084 C2085 1.392 . S
C2084 C2087 1.511 1_655 S
C2085 C2081 1.376 . S
C2085 C2084 1.392 . S
C2085 H2097 0.929 . S
C2086 C2082 1.531 . S
C2086 H2098 0.960 . S
C2086 H2099 0.962 . S
C2086 H2100 0.960 . S
C2087 C2084 1.511 1_455 S
C2087 H2101 0.961 . S
C2087 H2102 0.961 . S
C2087 H2103 0.961 . S
C2088 C2089 1.370 . S
C2088 C2090 1.363 . S
C2088 H2104 0.931 . S
C2089 C2088 1.370 . S
C2089 C2093 1.408 . S
C2090 C2088 1.363 . S
C2090 C2091 1.370 . S
C2090 C2094 1.524 . S
C2091 C2083 1.503 1_455 S
C2091 C2090 1.370 . S
C2091 C2092 1.403 . S
C2092 C2091 1.403 . S
C2092 C2093 1.404 . S
C2092 C2095 1.539 . S
C2093 C2089 1.408 . S
C2093 C2092 1.404 . S
C2093 H2105 0.930 . S
C2094 C2090 1.524 . S
C2094 H2106 0.956 1_455 S
C2094 H2107 0.961 . S
C2094 H2108 0.961 . S
C2095 C2092 1.539 . S
C2095 H2109 0.958 1_455 S
C2095 H2110 0.961 . S
C2095 H2111 0.960 1_455 S
H2096 C2080 0.931 . S
H2097 C2085 0.929 . S
H2098 C2086 0.960 . S
H2099 C2086 0.962 . S
H2100 C2086 0.960 . S
H2101 C2087 0.961 . S
H2102 C2087 0.961 . S
H2103 C2087 0.961 . S
H2104 C2088 0.931 . S
H2105 C2093 0.930 . S
H2106 C2094 0.956 1_655 S
H2107 C2094 0.961 . S
H2108 C2094 0.961 . S
H2109 C2095 0.958 1_655 S
H2110 C2095 0.961 . S
H2111 C2095 0.960 1_655 S
C2112 C2113 1.391 . S
C2112 C2114 1.394 . S
C2112 H2128 0.931 . S
C2113 C2112 1.391 . S
C2113 C2117 1.376 . S
C2114 C2112 1.394 . S
C2114 C2115 1.369 . S
C2114 C2118 1.531 . S
C2115 C2114 1.369 . S
C2115 C2116 1.410 . S
C2115 C2123 1.503 . S
C2116 C2115 1.410 . S
C2116 C2117 1.392 . S
C2116 C2119 1.511 . S
C2117 C2113 1.376 . S
C2117 C2116 1.392 . S
C2117 H2129 0.929 . S
C2118 C2114 1.531 . S
C2118 H2130 0.960 1_556 S
C2118 H2131 0.962 . S
C2118 H2132 0.960 . S
C2119 C2116 1.511 . S
C2119 H2133 0.961 . S
C2119 H2134 0.961 . S
C2119 H2135 0.961 . S
C2120 C2121 1.370 1_556 S
C2120 C2122 1.363 . S
C2120 H2136 0.931 . S
C2121 C2120 1.370 1_554 S
C2121 C2125 1.408 . S
C2122 C2120 1.363 . S
C2122 C2123 1.370 . S
C2122 C2126 1.524 . S
C2123 C2115 1.503 . S
C2123 C2122 1.370 . S
C2123 C2124 1.403 1_556 S
C2124 C2123 1.403 1_554 S
C2124 C2125 1.404 . S
C2124 C2127 1.539 . S
C2125 C2121 1.408 . S
C2125 C2124 1.404 . S
C2125 H2137 0.930 . S
C2126 C2122 1.524 . S
C2126 H2138 0.956 . S
C2126 H2139 0.961 . S
C2126 H2140 0.961 . S
C2127 C2124 1.539 . S
C2127 H2141 0.958 . S
C2127 H2142 0.961 . S
C2127 H2143 0.960 1_554 S
H2128 C2112 0.931 . S
H2129 C2117 0.929 . S
H2130 C2118 0.960 1_554 S
H2131 C2118 0.962 . S
H2132 C2118 0.960 . S
H2133 C2119 0.961 . S
H2134 C2119 0.961 . S
H2135 C2119 0.961 . S
H2136 C2120 0.931 . S
H2137 C2125 0.930 . S
H2138 C2126 0.956 . S
H2139 C2126 0.961 . S
H2140 C2126 0.961 . S
H2141 C2127 0.958 . S
H2142 C2127 0.961 . S
H2143 C2127 0.960 1_556 S
C2144 C2145 1.391 . S
C2144 C2146 1.394 . S
C2144 H2160 0.931 1_554 S
C2145 C2144 1.391 . S
C2145 C2149 1.376 . S
C2146 C2144 1.394 . S
C2146 C2147 1.369 . S
C2146 C2150 1.531 1_655 S
C2147 C2146 1.369 . S
C2147 C2148 1.410 . S
C2147 C2155 1.503 1_655 S
C2148 C2147 1.410 . S
C2148 C2149 1.392 . S
C2148 C2151 1.511 . S
C2149 C2145 1.376 . S
C2149 C2148 1.392 . S
C2149 H2161 0.929 . S
C2150 C2146 1.531 1_455 S
C2150 H2162 0.960 . S
C2150 H2163 0.962 . S
C2150 H2164 0.960 . S
C2151 C2148 1.511 . S
C2151 H2165 0.961 . S
C2151 H2166 0.961 . S
C2151 H2167 0.961 . S
C2152 C2153 1.370 . S
C2152 C2154 1.363 . S
C2152 H2168 0.931 . S
C2153 C2152 1.370 . S
C2153 C2157 1.408 . S
C2154 C2152 1.363 . S
C2154 C2155 1.370 . S
C2154 C2158 1.524 . S
C2155 C2147 1.503 1_455 S
C2155 C2154 1.370 . S
C2155 C2156 1.403 . S
C2156 C2155 1.403 . S
C2156 C2157 1.404 . S
C2156 C2159 1.539 . S
C2157 C2153 1.408 . S
C2157 C2156 1.404 . S
C2157 H2169 0.930 . S
C2158 C2154 1.524 . S
C2158 H2170 0.956 . S
C2158 H2171 0.961 1_455 S
C2158 H2172 0.961 . S
C2159 C2156 1.539 . S
C2159 H2173 0.958 . S
C2159 H2174 0.961 . S
C2159 H2175 0.960 1_455 S
H2160 C2144 0.931 1_556 S
H2161 C2149 0.929 . S
H2162 C2150 0.960 . S
H2163 C2150 0.962 . S
H2164 C2150 0.960 . S
H2165 C2151 0.961 . S
H2166 C2151 0.961 . S
H2167 C2151 0.961 . S
H2168 C2152 0.931 . S
H2169 C2157 0.930 . S
H2170 C2158 0.956 . S
H2171 C2158 0.961 1_655 S
H2172 C2158 0.961 . S
H2173 C2159 0.958 . S
H2174 C2159 0.961 . S
H2175 C2159 0.960 1_655 S
C2176 C2177 1.391 . S
C2176 C2178 1.394 . S
C2176 H2192 0.931 . S
C2177 C2176 1.391 . S
C2177 C2181 1.376 . S
C2178 C2176 1.394 . S
C2178 C2179 1.369 . S
C2178 C2182 1.531 . S
C2179 C2178 1.369 . S
C2179 C2180 1.410 . S
C2179 C2187 1.503 . S
C2180 C2179 1.410 . S
C2180 C2181 1.392 . S
C2180 C2183 1.511 . S
C2181 C2177 1.376 . S
C2181 C2180 1.392 . S
C2181 H2193 0.929 . S
C2182 C2178 1.531 . S
C2182 H2194 0.960 . S
C2182 H2195 0.962 . S
C2182 H2196 0.960 . S
C2183 C2180 1.511 . S
C2183 H2197 0.961 . S
C2183 H2198 0.961 . S
C2183 H2199 0.961 . S
C2184 C2185 1.370 . S
C2184 C2186 1.363 . S
C2184 H2200 0.931 . S
C2185 C2184 1.370 . S
C2185 C2189 1.408 . S
C2186 C2184 1.363 . S
C2186 C2187 1.370 . S
C2186 C2190 1.524 . S
C2187 C2179 1.503 . S
C2187 C2186 1.370 . S
C2187 C2188 1.403 . S
C2188 C2187 1.403 . S
C2188 C2189 1.404 . S
C2188 C2191 1.539 . S
C2189 C2185 1.408 . S
C2189 C2188 1.404 . S
C2189 H2201 0.930 . S
C2190 C2186 1.524 . S
C2190 H2202 0.956 . S
C2190 H2203 0.961 . S
C2190 H2204 0.961 . S
C2191 C2188 1.539 . S
C2191 H2205 0.958 . S
C2191 H2206 0.961 . S
C2191 H2207 0.960 . S
H2192 C2176 0.931 . S
H2193 C2181 0.929 . S
H2194 C2182 0.960 . S
H2195 C2182 0.962 . S
H2196 C2182 0.960 . S
H2197 C2183 0.961 . S
H2198 C2183 0.961 . S
H2199 C2183 0.961 . S
H2200 C2184 0.931 . S
H2201 C2189 0.930 . S
H2202 C2190 0.956 . S
H2203 C2190 0.961 . S
H2204 C2190 0.961 . S
H2205 C2191 0.958 . S
H2206 C2191 0.961 . S
H2207 C2191 0.960 . S
C2208 C2209 1.391 . S
C2208 C2210 1.394 . S
C2208 H2224 0.931 . S
C2209 C2208 1.391 . S
C2209 C2213 1.376 . S
C2210 C2208 1.394 . S
C2210 C2211 1.369 . S
C2210 C2214 1.531 . S
C2211 C2210 1.369 . S
C2211 C2212 1.410 . S
C2211 C2219 1.503 . S
C2212 C2211 1.410 . S
C2212 C2213 1.392 . S
C2212 C2215 1.511 . S
C2213 C2209 1.376 . S
C2213 C2212 1.392 . S
C2213 H2225 0.929 . S
C2214 C2210 1.531 . S
C2214 H2226 0.960 . S
C2214 H2227 0.962 . S
C2214 H2228 0.960 . S
C2215 C2212 1.511 . S
C2215 H2229 0.961 . S
C2215 H2230 0.961 . S
C2215 H2231 0.961 . S
C2216 C2217 1.370 . S
C2216 C2218 1.363 . S
C2216 H2232 0.931 . S
C2217 C2216 1.370 . S
C2217 C2221 1.408 . S
C2218 C2216 1.363 . S
C2218 C2219 1.370 . S
C2218 C2222 1.524 . S
C2219 C2211 1.503 . S
C2219 C2218 1.370 . S
C2219 C2220 1.403 . S
C2220 C2219 1.403 . S
C2220 C2221 1.404 . S
C2220 C2223 1.539 . S
C2221 C2217 1.408 . S
C2221 C2220 1.404 . S
C2221 H2233 0.930 . S
C2222 C2218 1.524 . S
C2222 H2234 0.956 . S
C2222 H2235 0.961 . S
C2222 H2236 0.961 . S
C2223 C2220 1.539 . S
C2223 H2237 0.958 . S
C2223 H2238 0.961 . S
C2223 H2239 0.960 . S
H2224 C2208 0.931 . S
H2225 C2213 0.929 . S
H2226 C2214 0.960 . S
H2227 C2214 0.962 . S
H2228 C2214 0.960 . S
H2229 C2215 0.961 . S
H2230 C2215 0.961 . S
H2231 C2215 0.961 . S
H2232 C2216 0.931 . S
H2233 C2221 0.930 . S
H2234 C2222 0.956 . S
H2235 C2222 0.961 . S
H2236 C2222 0.961 . S
H2237 C2223 0.958 . S
H2238 C2223 0.961 . S
H2239 C2223 0.960 . S
C2240 C2241 1.391 . S
C2240 C2242 1.394 . S
C2240 H2256 0.931 . S
C2241 C2240 1.391 . S
C2241 C2245 1.376 . S
C2242 C2240 1.394 . S
C2242 C2243 1.369 . S
C2242 C2246 1.531 . S
C2243 C2242 1.369 . S
C2243 C2244 1.410 . S
C2243 C2251 1.503 . S
C2244 C2243 1.410 . S
C2244 C2245 1.392 . S
C2244 C2247 1.511 . S
C2245 C2241 1.376 . S
C2245 C2244 1.392 . S
C2245 H2257 0.929 . S
C2246 C2242 1.531 . S
C2246 H2258 0.960 . S
C2246 H2259 0.962 . S
C2246 H2260 0.960 . S
C2247 C2244 1.511 . S
C2247 H2261 0.961 . S
C2247 H2262 0.961 . S
C2247 H2263 0.961 . S
C2248 C2249 1.370 . S
C2248 C2250 1.363 . S
C2248 H2264 0.931 . S
C2249 C2248 1.370 . S
C2249 C2253 1.408 . S
C2250 C2248 1.363 . S
C2250 C2251 1.370 . S
C2250 C2254 1.524 . S
C2251 C2243 1.503 . S
C2251 C2250 1.370 . S
C2251 C2252 1.403 . S
C2252 C2251 1.403 . S
C2252 C2253 1.404 . S
C2252 C2255 1.539 . S
C2253 C2249 1.408 . S
C2253 C2252 1.404 . S
C2253 H2265 0.930 . S
C2254 C2250 1.524 . S
C2254 H2266 0.956 . S
C2254 H2267 0.961 . S
C2254 H2268 0.961 . S
C2255 C2252 1.539 . S
C2255 H2269 0.958 . S
C2255 H2270 0.961 . S
C2255 H2271 0.960 . S
H2256 C2240 0.931 . S
H2257 C2245 0.929 . S
H2258 C2246 0.960 . S
H2259 C2246 0.962 . S
H2260 C2246 0.960 . S
H2261 C2247 0.961 . S
H2262 C2247 0.961 . S
H2263 C2247 0.961 . S
H2264 C2248 0.931 . S
H2265 C2253 0.930 . S
H2266 C2254 0.956 . S
H2267 C2254 0.961 . S
H2268 C2254 0.961 . S
H2269 C2255 0.958 . S
H2270 C2255 0.961 . S
H2271 C2255 0.960 . S
C2272 C2273 1.391 . S
C2272 C2274 1.394 . S
C2272 H2288 0.931 . S
C2273 C2272 1.391 . S
C2273 C2277 1.376 . S
C2274 C2272 1.394 . S
C2274 C2275 1.369 . S
C2274 C2278 1.531 . S
C2275 C2274 1.369 . S
C2275 C2276 1.410 . S
C2275 C2283 1.503 . S
C2276 C2275 1.410 . S
C2276 C2277 1.392 . S
C2276 C2279 1.511 . S
C2277 C2273 1.376 . S
C2277 C2276 1.392 . S
C2277 H2289 0.929 . S
C2278 C2274 1.531 . S
C2278 H2290 0.960 . S
C2278 H2291 0.962 . S
C2278 H2292 0.960 . S
C2279 C2276 1.511 . S
C2279 H2293 0.961 . S
C2279 H2294 0.961 . S
C2279 H2295 0.961 . S
C2280 C2281 1.370 . S
C2280 C2282 1.363 . S
C2280 H2296 0.931 . S
C2281 C2280 1.370 . S
C2281 C2285 1.408 . S
C2282 C2280 1.363 . S
C2282 C2283 1.370 . S
C2282 C2286 1.524 . S
C2283 C2275 1.503 . S
C2283 C2282 1.370 . S
C2283 C2284 1.403 . S
C2284 C2283 1.403 . S
C2284 C2285 1.404 . S
C2284 C2287 1.539 . S
C2285 C2281 1.408 . S
C2285 C2284 1.404 . S
C2285 H2297 0.930 . S
C2286 C2282 1.524 . S
C2286 H2298 0.956 . S
C2286 H2299 0.961 . S
C2286 H2300 0.961 . S
C2287 C2284 1.539 . S
C2287 H2301 0.958 . S
C2287 H2302 0.961 . S
C2287 H2303 0.960 . S
H2288 C2272 0.931 . S
H2289 C2277 0.929 . S
H2290 C2278 0.960 . S
H2291 C2278 0.962 . S
H2292 C2278 0.960 . S
H2293 C2279 0.961 . S
H2294 C2279 0.961 . S
H2295 C2279 0.961 . S
H2296 C2280 0.931 . S
H2297 C2285 0.930 . S
H2298 C2286 0.956 . S
H2299 C2286 0.961 . S
H2300 C2286 0.961 . S
H2301 C2287 0.958 . S
H2302 C2287 0.961 . S
H2303 C2287 0.960 . S
C2304 C2305 1.391 . S
C2304 C2306 1.394 . S
C2304 H2320 0.931 . S
C2305 C2304 1.391 . S
C2305 C2309 1.376 1_554 S
C2306 C2304 1.394 . S
C2306 C2307 1.369 1_554 S
C2306 C2310 1.531 . S
C2307 C2306 1.369 1_556 S
C2307 C2308 1.410 . S
C2307 C2315 1.503 . S
C2308 C2307 1.410 . S
C2308 C2309 1.392 . S
C2308 C2311 1.511 . S
C2309 C2305 1.376 1_556 S
C2309 C2308 1.392 . S
C2309 H2321 0.929 . S
C2310 C2306 1.531 . S
C2310 H2322 0.960 1_554 S
C2310 H2323 0.962 1_554 S
C2310 H2324 0.960 . S
C2311 C2308 1.511 . S
C2311 H2325 0.961 . S
C2311 H2326 0.961 . S
C2311 H2327 0.961 . S
C2312 C2313 1.370 . S
C2312 C2314 1.363 . S
C2312 H2328 0.931 . S
C2313 C2312 1.370 . S
C2313 C2317 1.408 . S
C2314 C2312 1.363 . S
C2314 C2315 1.370 . S
C2314 C2318 1.524 . S
C2315 C2307 1.503 . S
C2315 C2314 1.370 . S
C2315 C2316 1.403 . S
C2316 C2315 1.403 . S
C2316 C2317 1.404 . S
C2316 C2319 1.539 . S
C2317 C2313 1.408 . S
C2317 C2316 1.404 . S
C2317 H2329 0.930 . S
C2318 C2314 1.524 . S
C2318 H2330 0.956 . S
C2318 H2331 0.961 . S
C2318 H2332 0.961 . S
C2319 C2316 1.539 . S
C2319 H2333 0.958 1_556 S
C2319 H2334 0.961 . S
C2319 H2335 0.960 . S
H2320 C2304 0.931 . S
H2321 C2309 0.929 . S
H2322 C2310 0.960 1_556 S
H2323 C2310 0.962 1_556 S
H2324 C2310 0.960 . S
H2325 C2311 0.961 . S
H2326 C2311 0.961 . S
H2327 C2311 0.961 . S
H2328 C2312 0.931 . S
H2329 C2317 0.930 . S
H2330 C2318 0.956 . S
H2331 C2318 0.961 . S
H2332 C2318 0.961 . S
H2333 C2319 0.958 1_554 S
H2334 C2319 0.961 . S
H2335 C2319 0.960 . S
C2336 C2337 1.391 . S
C2336 C2338 1.394 . S
C2336 H2352 0.931 . S
C2337 C2336 1.391 . S
C2337 C2341 1.376 . S
C2338 C2336 1.394 . S
C2338 C2339 1.369 . S
C2338 C2342 1.531 . S
C2339 C2338 1.369 . S
C2339 C2340 1.410 . S
C2339 C2347 1.503 1_455 S
C2340 C2339 1.410 . S
C2340 C2341 1.392 . S
C2340 C2343 1.511 . S
C2341 C2337 1.376 . S
C2341 C2340 1.392 . S
C2341 H2353 0.929 . S
C2342 C2338 1.531 . S
C2342 H2354 0.960 1_455 S
C2342 H2355 0.962 . S
C2342 H2356 0.960 . S
C2343 C2340 1.511 . S
C2343 H2357 0.961 . S
C2343 H2358 0.961 1_455 S
C2343 H2359 0.961 1_455 S
C2344 C2345 1.370 . S
C2344 C2346 1.363 . S
C2344 H2360 0.931 . S
C2345 C2344 1.370 . S
C2345 C2349 1.408 . S
C2346 C2344 1.363 . S
C2346 C2347 1.370 . S
C2346 C2350 1.524 1_655 S
C2347 C2339 1.503 1_655 S
C2347 C2346 1.370 . S
C2347 C2348 1.403 . S
C2348 C2347 1.403 . S
C2348 C2349 1.404 . S
C2348 C2351 1.539 . S
C2349 C2345 1.408 . S
C2349 C2348 1.404 . S
C2349 H2361 0.930 . S
C2350 C2346 1.524 1_455 S
C2350 H2362 0.956 . S
C2350 H2363 0.961 . S
C2350 H2364 0.961 . S
C2351 C2348 1.539 . S
C2351 H2365 0.958 . S
C2351 H2366 0.961 . S
C2351 H2367 0.960 . S
H2352 C2336 0.931 . S
H2353 C2341 0.929 . S
H2354 C2342 0.960 1_655 S
H2355 C2342 0.962 . S
H2356 C2342 0.960 . S
H2357 C2343 0.961 . S
H2358 C2343 0.961 1_655 S
H2359 C2343 0.961 1_655 S
H2360 C2344 0.931 . S
H2361 C2349 0.930 . S
H2362 C2350 0.956 . S
H2363 C2350 0.961 . S
H2364 C2350 0.961 . S
H2365 C2351 0.958 . S
H2366 C2351 0.961 . S
H2367 C2351 0.960 . S
C2368 C2369 1.391 . S
C2368 C2370 1.394 . S
C2368 H2384 0.931 . S
C2369 C2368 1.391 . S
C2369 C2373 1.376 . S
C2370 C2368 1.394 . S
C2370 C2371 1.369 . S
C2370 C2374 1.531 . S
C2371 C2370 1.369 . S
C2371 C2372 1.410 . S
C2371 C2379 1.503 . S
C2372 C2371 1.410 . S
C2372 C2373 1.392 . S
C2372 C2375 1.511 . S
C2373 C2369 1.376 . S
C2373 C2372 1.392 . S
C2373 H2385 0.929 . S
C2374 C2370 1.531 . S
C2374 H2386 0.960 . S
C2374 H2387 0.962 . S
C2374 H2388 0.960 . S
C2375 C2372 1.511 . S
C2375 H2389 0.961 . S
C2375 H2390 0.961 . S
C2375 H2391 0.961 . S
C2376 C2377 1.370 . S
C2376 C2378 1.363 . S
C2376 H2392 0.931 . S
C2377 C2376 1.370 . S
C2377 C2381 1.408 1_556 S
C2378 C2376 1.363 . S
C2378 C2379 1.370 1_556 S
C2378 C2382 1.524 . S
C2379 C2371 1.503 . S
C2379 C2378 1.370 1_554 S
C2379 C2380 1.403 . S
C2380 C2379 1.403 . S
C2380 C2381 1.404 . S
C2380 C2383 1.539 . S
C2381 C2377 1.408 1_554 S
C2381 C2380 1.404 . S
C2381 H2393 0.930 . S
C2382 C2378 1.524 . S
C2382 H2394 0.956 . S
C2382 H2395 0.961 1_556 S
C2382 H2396 0.961 . S
C2383 C2380 1.539 . S
C2383 H2397 0.958 . S
C2383 H2398 0.961 . S
C2383 H2399 0.960 . S
H2384 C2368 0.931 . S
H2385 C2373 0.929 . S
H2386 C2374 0.960 . S
H2387 C2374 0.962 . S
H2388 C2374 0.960 . S
H2389 C2375 0.961 . S
H2390 C2375 0.961 . S
H2391 C2375 0.961 . S
H2392 C2376 0.931 . S
H2393 C2381 0.930 . S
H2394 C2382 0.956 . S
H2395 C2382 0.961 1_554 S
H2396 C2382 0.961 . S
H2397 C2383 0.958 . S
H2398 C2383 0.961 . S
H2399 C2383 0.960 . S
C2400 C2401 1.391 . S
C2400 C2402 1.394 . S
C2400 H2416 0.931 . S
C2401 C2400 1.391 . S
C2401 C2405 1.376 . S
C2402 C2400 1.394 . S
C2402 C2403 1.369 . S
C2402 C2406 1.531 1_655 S
C2403 C2402 1.369 . S
C2403 C2404 1.410 . S
C2403 C2411 1.503 1_655 S
C2404 C2403 1.410 . S
C2404 C2405 1.392 . S
C2404 C2407 1.511 . S
C2405 C2401 1.376 . S
C2405 C2404 1.392 . S
C2405 H2417 0.929 . S
C2406 C2402 1.531 1_455 S
C2406 H2418 0.960 . S
C2406 H2419 0.962 . S
C2406 H2420 0.960 . S
C2407 C2404 1.511 . S
C2407 H2421 0.961 . S
C2407 H2422 0.961 . S
C2407 H2423 0.961 . S
C2408 C2409 1.370 . S
C2408 C2410 1.363 . S
C2408 H2424 0.931 . S
C2409 C2408 1.370 . S
C2409 C2413 1.408 . S
C2410 C2408 1.363 . S
C2410 C2411 1.370 . S
C2410 C2414 1.524 . S
C2411 C2403 1.503 1_455 S
C2411 C2410 1.370 . S
C2411 C2412 1.403 . S
C2412 C2411 1.403 . S
C2412 C2413 1.404 . S
C2412 C2415 1.539 . S
C2413 C2409 1.408 . S
C2413 C2412 1.404 . S
C2413 H2425 0.930 . S
C2414 C2410 1.524 . S
C2414 H2426 0.956 . S
C2414 H2427 0.961 1_455 S
C2414 H2428 0.961 . S
C2415 C2412 1.539 . S
C2415 H2429 0.958 . S
C2415 H2430 0.961 . S
C2415 H2431 0.960 1_455 S
H2416 C2400 0.931 . S
H2417 C2405 0.929 . S
H2418 C2406 0.960 . S
H2419 C2406 0.962 . S
H2420 C2406 0.960 . S
H2421 C2407 0.961 . S
H2422 C2407 0.961 . S
H2423 C2407 0.961 . S
H2424 C2408 0.931 . S
H2425 C2413 0.930 . S
H2426 C2414 0.956 . S
H2427 C2414 0.961 1_655 S
H2428 C2414 0.961 . S
H2429 C2415 0.958 . S
H2430 C2415 0.961 . S
H2431 C2415 0.960 1_655 S
C2432 C2433 1.391 . S
C2432 C2434 1.394 . S
C2432 H2448 0.931 . S
C2433 C2432 1.391 . S
C2433 C2437 1.376 . S
C2434 C2432 1.394 . S
C2434 C2435 1.369 . S
C2434 C2438 1.531 . S
C2435 C2434 1.369 . S
C2435 C2436 1.410 . S
C2435 C2443 1.503 . S
C2436 C2435 1.410 . S
C2436 C2437 1.392 . S
C2436 C2439 1.511 . S
C2437 C2433 1.376 . S
C2437 C2436 1.392 . S
C2437 H2449 0.929 . S
C2438 C2434 1.531 . S
C2438 H2450 0.960 . S
C2438 H2451 0.962 . S
C2438 H2452 0.960 . S
C2439 C2436 1.511 . S
C2439 H2453 0.961 . S
C2439 H2454 0.961 . S
C2439 H2455 0.961 . S
C2440 C2441 1.370 . S
C2440 C2442 1.363 . S
C2440 H2456 0.931 . S
C2441 C2440 1.370 . S
C2441 C2445 1.408 . S
C2442 C2440 1.363 . S
C2442 C2443 1.370 . S
C2442 C2446 1.524 . S
C2443 C2435 1.503 . S
C2443 C2442 1.370 . S
C2443 C2444 1.403 . S
C2444 C2443 1.403 . S
C2444 C2445 1.404 . S
C2444 C2447 1.539 . S
C2445 C2441 1.408 . S
C2445 C2444 1.404 . S
C2445 H2457 0.930 . S
C2446 C2442 1.524 . S
C2446 H2458 0.956 . S
C2446 H2459 0.961 . S
C2446 H2460 0.961 . S
C2447 C2444 1.539 . S
C2447 H2461 0.958 . S
C2447 H2462 0.961 . S
C2447 H2463 0.960 . S
H2448 C2432 0.931 . S
H2449 C2437 0.929 . S
H2450 C2438 0.960 . S
H2451 C2438 0.962 . S
H2452 C2438 0.960 . S
H2453 C2439 0.961 . S
H2454 C2439 0.961 . S
H2455 C2439 0.961 . S
H2456 C2440 0.931 . S
H2457 C2445 0.930 . S
H2458 C2446 0.956 . S
H2459 C2446 0.961 . S
H2460 C2446 0.961 . S
H2461 C2447 0.958 . S
H2462 C2447 0.961 . S
H2463 C2447 0.960 . S
C2464 C2465 1.391 . S
C2464 C2466 1.394 . S
C2464 H2480 0.931 . S
C2465 C2464 1.391 . S
C2465 C2469 1.376 . S
C2466 C2464 1.394 . S
C2466 C2467 1.369 . S
C2466 C2470 1.531 . S
C2467 C2466 1.369 . S
C2467 C2468 1.410 . S
C2467 C2475 1.503 . S
C2468 C2467 1.410 . S
C2468 C2469 1.392 . S
C2468 C2471 1.511 . S
C2469 C2465 1.376 . S
C2469 C2468 1.392 . S
C2469 H2481 0.929 . S
C2470 C2466 1.531 . S
C2470 H2482 0.960 . S
C2470 H2483 0.962 . S
C2470 H2484 0.960 . S
C2471 C2468 1.511 . S
C2471 H2485 0.961 . S
C2471 H2486 0.961 . S
C2471 H2487 0.961 . S
C2472 C2473 1.370 . S
C2472 C2474 1.363 . S
C2472 H2488 0.931 . S
C2473 C2472 1.370 . S
C2473 C2477 1.408 . S
C2474 C2472 1.363 . S
C2474 C2475 1.370 . S
C2474 C2478 1.524 . S
C2475 C2467 1.503 . S
C2475 C2474 1.370 . S
C2475 C2476 1.403 . S
C2476 C2475 1.403 . S
C2476 C2477 1.404 . S
C2476 C2479 1.539 . S
C2477 C2473 1.408 . S
C2477 C2476 1.404 . S
C2477 H2489 0.930 . S
C2478 C2474 1.524 . S
C2478 H2490 0.956 . S
C2478 H2491 0.961 . S
C2478 H2492 0.961 . S
C2479 C2476 1.539 . S
C2479 H2493 0.958 . S
C2479 H2494 0.961 . S
C2479 H2495 0.960 . S
H2480 C2464 0.931 . S
H2481 C2469 0.929 . S
H2482 C2470 0.960 . S
H2483 C2470 0.962 . S
H2484 C2470 0.960 . S
H2485 C2471 0.961 . S
H2486 C2471 0.961 . S
H2487 C2471 0.961 . S
H2488 C2472 0.931 . S
H2489 C2477 0.930 . S
H2490 C2478 0.956 . S
H2491 C2478 0.961 . S
H2492 C2478 0.961 . S
H2493 C2479 0.958 . S
H2494 C2479 0.961 . S
H2495 C2479 0.960 . S
C449 C91 1.298 . S
C457 C7 1.268 . S
C481 C21 1.263 . S
C489 C105 1.269 . S
C513 C63 1.203 . S
C521 C35 1.233 . S
C545 C49 1.292 . S
C553 C77 1.261 . S
C577 C203 1.284 . S
C585 C119 1.249 . S
C609 C133 1.296 . S
C617 C217 1.269 . S
C641 C175 1.206 . S
C649 C147 1.250 . S
C673 C161 1.226 . S
C681 C189 1.232 . S
C705 C231 1.278 . S
C713 C315 1.252 . S
C737 C329 1.267 . S
C745 C245 1.247 . S
C769 C259 1.295 . S
C777 C287 1.264 . S
C801 C301 1.280 . S
C809 C273 1.253 . S
C833 C427 1.297 . S
C841 C343 1.268 . S
C865 C441 1.235 . S
C873 C357 1.265 . S
C897 C399 1.291 . S
C905 C371 1.271 . S
C929 C385 1.218 . S
C937 C413 1.232 . S
C961 C104 1.064 1_554 S
C969 C6 1.042 . S
C993 C62 0.992 . S
C1001 C20 1.013 . S
C1025 C76 1.067 . S
C1033 C34 1.045 . S
C1057 C90 1.018 . S
C1065 C48 1.021 1_556 S
C1089 C216 1.008 1_556 S
C1097 C118 1.021 . S
C1121 C174 1.027 . S
C1129 C132 1.029 . S
C1153 C188 0.997 . S
C1161 C146 1.016 . S
C1185 C160 1.055 1_554 S
C1193 C202 1.041 . S
C1217 C328 0.996 . S
C1225 C230 1.014 . S
C1249 C244 1.065 1_556 S
C1257 C286 1.046 . S
C1281 C258 1.066 . S
C1289 C300 1.043 1_554 S
C1313 C314 1.034 . S
C1321 C272 1.027 . S
C1345 C440 0.987 . S
C1353 C342 1.013 . S
C1377 C356 1.046 1_554 S
C1385 C398 1.037 . S
C1409 C370 0.992 . S
C1417 C412 1.014 1_556 S
C1441 C426 0.999 . S
C1449 C384 1.018 . S
C1473 C8 1.529 . S
C1481 C429 1.500 . S
C1505 C219 1.463 . S
C1513 C22 1.542 . S
C1537 C401 1.467 . S
C1545 C36 1.541 . S
C1569 C191 1.511 . S
C1577 C50 1.536 . S
C1601 C373 1.516 . S
C1609 C64 1.535 . S
C1633 C78 1.528 . S
C1641 C163 1.502 . S
C1665 C92 1.532 . S
C1673 C345 1.496 . S
C1697 C106 1.526 . S
C1705 C135 1.504 . S
C1729 C120 1.532 . S
C1737 C317 1.501 . S
C1761 C107 1.464 . S
C1769 C134 1.540 . S
C1793 C289 1.475 . S
C1801 C148 1.541 . S
C1825 C79 1.460 . S
C1833 C162 1.541 . S
C1857 C261 1.508 . S
C1865 C176 1.537 . S
C1889 C51 1.500 . S
C1897 C190 1.536 . S
C1921 C204 1.538 . S
C1929 C233 1.484 . S
C1953 C23 1.459 . S
C1961 C218 1.541 . S
C1985 C205 1.483 . S
C1993 C232 1.539 . S
C2017 C443 1.498 . S
C2025 C246 1.537 . S
C2049 C260 1.533 . S
C2057 C177 1.494 . S
C2081 C274 1.526 . S
C2089 C415 1.504 . S
C2113 C288 1.528 . S
C2121 C149 1.501 . S
C2145 C302 1.542 . S
C2153 C387 1.481 . S
C2177 C316 1.528 . S
C2185 C121 1.501 . S
C2209 C330 1.542 . S
C2217 C359 1.480 . S
C2241 C93 1.460 . S
C2249 C344 1.541 . S
C2273 C331 1.461 . S
C2281 C358 1.542 . S
C2305 C65 1.504 . S
C2313 C372 1.536 . S
C2337 C386 1.536 . S
C2345 C303 1.495 . S
C2369 C400 1.538 . S
C2377 C37 1.491 . S
C2401 C275 1.518 . S
C2409 C414 1.535 . S
C2433 C428 1.539 . S
C2441 C9 1.483 . S
C2465 C442 1.542 . S
C2473 C247 1.483 . S
