# Generated by pormake.
# Topology uow, (4)-cn, num edge types: 1
# Building blocks:
#     Node 0, Type 0, BuildingBlock: CEKHIL_clean_sbu_0, # of connection points: 4
#     Node 1, Type 0, BuildingBlock: CEKHIL_clean_sbu_0, # of connection points: 4
#     Node 2, Type 0, BuildingBlock: CEKHIL_clean_sbu_0, # of connection points: 4
#     Node 3, Type 0, BuildingBlock: CEKHIL_clean_sbu_0, # of connection points: 4
#     Node 4, Type 0, BuildingBlock: CEKHIL_clean_sbu_0, # of connection points: 4
#     Node 5, Type 0, BuildingBlock: CEKHIL_clean_sbu_0, # of connection points: 4
#     Node 6, Type 0, BuildingBlock: CEKHIL_clean_sbu_0, # of connection points: 4
#     Node 7, Type 0, BuildingBlock: CEKHIL_clean_sbu_0, # of connection points: 4
#     Node 8, Type 0, BuildingBlock: CEKHIL_clean_sbu_0, # of connection points: 4
#     Node 9, Type 0, BuildingBlock: CEKHIL_clean_sbu_0, # of connection points: 4
#     Node 10, Type 0, BuildingBlock: CEKHIL_clean_sbu_0, # of connection points: 4
#     Node 11, Type 0, BuildingBlock: CEKHIL_clean_sbu_0, # of connection points: 4
#     Node 12, Type 0, BuildingBlock: CEKHIL_clean_sbu_0, # of connection points: 4
#     Node 13, Type 0, BuildingBlock: CEKHIL_clean_sbu_0, # of connection points: 4
#     Node 14, Type 0, BuildingBlock: CEKHIL_clean_sbu_0, # of connection points: 4
#     Node 15, Type 0, BuildingBlock: CEKHIL_clean_sbu_0, # of connection points: 4
#     Node 16, Type 0, BuildingBlock: CEKHIL_clean_sbu_0, # of connection points: 4
#     Node 17, Type 0, BuildingBlock: CEKHIL_clean_sbu_0, # of connection points: 4
#     Node 18, Type 0, BuildingBlock: CEKHIL_clean_sbu_0, # of connection points: 4
#     Node 19, Type 0, BuildingBlock: CEKHIL_clean_sbu_0, # of connection points: 4
#     Node 20, Type 0, BuildingBlock: CEKHIL_clean_sbu_0, # of connection points: 4
#     Node 21, Type 0, BuildingBlock: CEKHIL_clean_sbu_0, # of connection points: 4
#     Node 22, Type 0, BuildingBlock: CEKHIL_clean_sbu_0, # of connection points: 4
#     Node 23, Type 0, BuildingBlock: CEKHIL_clean_sbu_0, # of connection points: 4
#     Node 24, Type 0, BuildingBlock: CEKHIL_clean_sbu_0, # of connection points: 4
#     Node 25, Type 0, BuildingBlock: CEKHIL_clean_sbu_0, # of connection points: 4
#     Node 26, Type 0, BuildingBlock: CEKHIL_clean_sbu_0, # of connection points: 4
#     Node 27, Type 0, BuildingBlock: CEKHIL_clean_sbu_0, # of connection points: 4
#     Node 28, Type 0, BuildingBlock: CEKHIL_clean_sbu_0, # of connection points: 4
#     Node 29, Type 0, BuildingBlock: CEKHIL_clean_sbu_0, # of connection points: 4
#     Node 30, Type 0, BuildingBlock: CEKHIL_clean_sbu_0, # of connection points: 4
#     Node 31, Type 0, BuildingBlock: CEKHIL_clean_sbu_0, # of connection points: 4
#     Edge 32, Type (0, 0), BuildingBlock: EZIPEK_clean_linker_0, # of connection points: 2
#     Edge 33, Type (0, 0), BuildingBlock: EZIPEK_clean_linker_0, # of connection points: 2
#     Edge 34, Type (0, 0), BuildingBlock: EZIPEK_clean_linker_0, # of connection points: 2
#     Edge 35, Type (0, 0), BuildingBlock: EZIPEK_clean_linker_0, # of connection points: 2
#     Edge 36, Type (0, 0), BuildingBlock: EZIPEK_clean_linker_0, # of connection points: 2
#     Edge 37, Type (0, 0), BuildingBlock: EZIPEK_clean_linker_0, # of connection points: 2
#     Edge 38, Type (0, 0), BuildingBlock: EZIPEK_clean_linker_0, # of connection points: 2
#     Edge 39, Type (0, 0), BuildingBlock: EZIPEK_clean_linker_0, # of connection points: 2
#     Edge 40, Type (0, 0), BuildingBlock: EZIPEK_clean_linker_0, # of connection points: 2
#     Edge 41, Type (0, 0), BuildingBlock: EZIPEK_clean_linker_0, # of connection points: 2
#     Edge 42, Type (0, 0), BuildingBlock: EZIPEK_clean_linker_0, # of connection points: 2
#     Edge 43, Type (0, 0), BuildingBlock: EZIPEK_clean_linker_0, # of connection points: 2
#     Edge 44, Type (0, 0), BuildingBlock: EZIPEK_clean_linker_0, # of connection points: 2
#     Edge 45, Type (0, 0), BuildingBlock: EZIPEK_clean_linker_0, # of connection points: 2
#     Edge 46, Type (0, 0), BuildingBlock: EZIPEK_clean_linker_0, # of connection points: 2
#     Edge 47, Type (0, 0), BuildingBlock: EZIPEK_clean_linker_0, # of connection points: 2
#     Edge 48, Type (0, 0), BuildingBlock: EZIPEK_clean_linker_0, # of connection points: 2
#     Edge 49, Type (0, 0), BuildingBlock: EZIPEK_clean_linker_0, # of connection points: 2
#     Edge 50, Type (0, 0), BuildingBlock: EZIPEK_clean_linker_0, # of connection points: 2
#     Edge 51, Type (0, 0), BuildingBlock: EZIPEK_clean_linker_0, # of connection points: 2
#     Edge 52, Type (0, 0), BuildingBlock: EZIPEK_clean_linker_0, # of connection points: 2
#     Edge 53, Type (0, 0), BuildingBlock: EZIPEK_clean_linker_0, # of connection points: 2
#     Edge 54, Type (0, 0), BuildingBlock: EZIPEK_clean_linker_0, # of connection points: 2
#     Edge 55, Type (0, 0), BuildingBlock: EZIPEK_clean_linker_0, # of connection points: 2
#     Edge 56, Type (0, 0), BuildingBlock: EZIPEK_clean_linker_0, # of connection points: 2
#     Edge 57, Type (0, 0), BuildingBlock: EZIPEK_clean_linker_0, # of connection points: 2
#     Edge 58, Type (0, 0), BuildingBlock: EZIPEK_clean_linker_0, # of connection points: 2
#     Edge 59, Type (0, 0), BuildingBlock: EZIPEK_clean_linker_0, # of connection points: 2
#     Edge 60, Type (0, 0), BuildingBlock: EZIPEK_clean_linker_0, # of connection points: 2
#     Edge 61, Type (0, 0), BuildingBlock: EZIPEK_clean_linker_0, # of connection points: 2
#     Edge 62, Type (0, 0), BuildingBlock: EZIPEK_clean_linker_0, # of connection points: 2
#     Edge 63, Type (0, 0), BuildingBlock: EZIPEK_clean_linker_0, # of connection points: 2
#     Edge 64, Type (0, 0), BuildingBlock: EZIPEK_clean_linker_0, # of connection points: 2
#     Edge 65, Type (0, 0), BuildingBlock: EZIPEK_clean_linker_0, # of connection points: 2
#     Edge 66, Type (0, 0), BuildingBlock: EZIPEK_clean_linker_0, # of connection points: 2
#     Edge 67, Type (0, 0), BuildingBlock: EZIPEK_clean_linker_0, # of connection points: 2
#     Edge 68, Type (0, 0), BuildingBlock: EZIPEK_clean_linker_0, # of connection points: 2
#     Edge 69, Type (0, 0), BuildingBlock: EZIPEK_clean_linker_0, # of connection points: 2
#     Edge 70, Type (0, 0), BuildingBlock: EZIPEK_clean_linker_0, # of connection points: 2
#     Edge 71, Type (0, 0), BuildingBlock: EZIPEK_clean_linker_0, # of connection points: 2
#     Edge 72, Type (0, 0), BuildingBlock: EZIPEK_clean_linker_0, # of connection points: 2
#     Edge 73, Type (0, 0), BuildingBlock: EZIPEK_clean_linker_0, # of connection points: 2
#     Edge 74, Type (0, 0), BuildingBlock: EZIPEK_clean_linker_0, # of connection points: 2
#     Edge 75, Type (0, 0), BuildingBlock: EZIPEK_clean_linker_0, # of connection points: 2
#     Edge 76, Type (0, 0), BuildingBlock: EZIPEK_clean_linker_0, # of connection points: 2
#     Edge 77, Type (0, 0), BuildingBlock: EZIPEK_clean_linker_0, # of connection points: 2
#     Edge 78, Type (0, 0), BuildingBlock: EZIPEK_clean_linker_0, # of connection points: 2
#     Edge 79, Type (0, 0), BuildingBlock: EZIPEK_clean_linker_0, # of connection points: 2
#     Edge 80, Type (0, 0), BuildingBlock: EZIPEK_clean_linker_0, # of connection points: 2
#     Edge 81, Type (0, 0), BuildingBlock: EZIPEK_clean_linker_0, # of connection points: 2
#     Edge 82, Type (0, 0), BuildingBlock: EZIPEK_clean_linker_0, # of connection points: 2
#     Edge 83, Type (0, 0), BuildingBlock: EZIPEK_clean_linker_0, # of connection points: 2
#     Edge 84, Type (0, 0), BuildingBlock: EZIPEK_clean_linker_0, # of connection points: 2
#     Edge 85, Type (0, 0), BuildingBlock: EZIPEK_clean_linker_0, # of connection points: 2
#     Edge 86, Type (0, 0), BuildingBlock: EZIPEK_clean_linker_0, # of connection points: 2
#     Edge 87, Type (0, 0), BuildingBlock: EZIPEK_clean_linker_0, # of connection points: 2
#     Edge 88, Type (0, 0), BuildingBlock: EZIPEK_clean_linker_0, # of connection points: 2
#     Edge 89, Type (0, 0), BuildingBlock: EZIPEK_clean_linker_0, # of connection points: 2
#     Edge 90, Type (0, 0), BuildingBlock: EZIPEK_clean_linker_0, # of connection points: 2
#     Edge 91, Type (0, 0), BuildingBlock: EZIPEK_clean_linker_0, # of connection points: 2
#     Edge 92, Type (0, 0), BuildingBlock: EZIPEK_clean_linker_0, # of connection points: 2
#     Edge 93, Type (0, 0), BuildingBlock: EZIPEK_clean_linker_0, # of connection points: 2
#     Edge 94, Type (0, 0), BuildingBlock: EZIPEK_clean_linker_0, # of connection points: 2
#     Edge 95, Type (0, 0), BuildingBlock: EZIPEK_clean_linker_0, # of connection points: 2
# Relax obj value: 0.097
# Max RMSD: 0.128
# Mean RMSD: 0.128
data_MOF--net-uow--node1-CEKHIL_clean_sbu_0--edge1-EZIPEK_clean_linker_0
_symmetry_space_group_name_H-M    P1
_symmetry_Int_Tables_number       1
_symmetry_cell_setting            triclinic
loop_
_symmetry_equiv_pos_as_xyz
'x, y, z'
_cell_length_a     45.434513
_cell_length_b     45.592263
_cell_length_c     29.129008
_cell_angle_alpha  89.948532
_cell_angle_beta   90.041767
_cell_angle_gamma 89.91322
loop_
_atom_site_label
_atom_site_type_symbol
_atom_site_fract_x
_atom_site_fract_y
_atom_site_fract_z
_atom_type_partial_charge
Co0 Co 0.03522 0.39235 0.26398 0.0
O1 O 0.02676 0.42911 0.2349 0.0
O2 O 0.06486 0.4209 0.28089 0.0
C3 C 0.98849 0.38389 0.28832 0.0
O4 O 0.05029 0.35688 0.30004 0.0
Co5 Co 0.00458 0.33528 0.22902 0.0
O6 O 0.01968 0.31885 0.28745 0.0
C7 C 0.05805 0.3581 0.18263 0.0
C8 C 0.04998 0.43913 0.25539 0.0
C9 C 0.04166 0.33038 0.30773 0.0
O10 O 0.05993 0.37969 0.2106 0.0
O11 O 0.03728 0.33915 0.18301 0.0
O12 O 0.00625 0.4006 0.31147 0.0
O13 O 0.99896 0.37503 0.24956 0.0
Co14 Co 0.8495 0.7922 0.53358 0.0
O15 O 0.81458 0.7768 0.50623 0.0
O16 O 0.8158 0.81593 0.55123 0.0
C17 C 0.86567 0.74753 0.55781 0.0
O18 O 0.88234 0.8139 0.56764 0.0
Co19 Co 0.91034 0.77151 0.49641 0.0
O20 O 0.92595 0.79306 0.54985 0.0
C21 C 0.8757 0.81651 0.44641 0.0
C22 C 0.8004 0.79774 0.52648 0.0
C23 C 0.91051 0.81154 0.57211 0.0
O24 O 0.85627 0.81756 0.47825 0.0
O25 O 0.89726 0.7984 0.44581 0.0
O26 O 0.84739 0.76287 0.58227 0.0
O27 O 0.87246 0.75927 0.51897 0.0
Co28 Co 0.46291 0.60058 0.80134 0.0
O29 O 0.47837 0.56898 0.76556 0.0
O30 O 0.43411 0.56949 0.7977 0.0
C31 C 0.50339 0.60734 0.84488 0.0
O32 O 0.44068 0.62976 0.84096 0.0
Co33 Co 0.49499 0.66107 0.79139 0.0
O34 O 0.46578 0.67256 0.83892 0.0
C35 C 0.45266 0.64241 0.72106 0.0
C36 C 0.454 0.55539 0.77418 0.0
C37 C 0.4443 0.65676 0.85246 0.0
O38 O 0.44513 0.62042 0.74602 0.0
O39 O 0.47535 0.65814 0.7297 0.0
O40 O 0.48504 0.58654 0.85486 0.0
O41 O 0.49851 0.62021 0.80623 0.0
Co42 Co 0.63787 0.20076 0.02799 0.0
O43 O 0.66734 0.22292 0.99545 0.0
O44 O 0.67427 0.17874 0.0247 0.0
C45 C 0.62275 0.2379 0.07446 0.0
O46 O 0.61346 0.17106 0.06371 0.0
Co47 Co 0.57173 0.21992 0.02115 0.0
O48 O 0.56554 0.18341 0.05705 0.0
C49 C 0.60005 0.19054 0.94384 0.0
C50 C 0.68533 0.20141 0.00381 0.0
C51 C 0.58595 0.16621 0.07068 0.0
O52 O 0.62243 0.18328 0.96873 0.0
O53 O 0.58092 0.20959 0.95607 0.0
O54 O 0.6461 0.22284 0.08491 0.0
O55 O 0.61123 0.23185 0.03529 0.0
Co56 Co 0.04204 0.61127 0.22341 0.0
O57 O 0.03089 0.57496 0.25186 0.0
O58 O 0.06713 0.57996 0.20146 0.0
C59 C 0.99525 0.62567 0.20611 0.0
O60 O 0.0596 0.64503 0.18647 0.0
Co61 Co 0.02244 0.67075 0.26423 0.0
O62 O 0.03936 0.68802 0.20782 0.0
C63 C 0.07214 0.63837 0.30604 0.0
C64 C 0.05196 0.56296 0.2284 0.0
C65 C 0.05634 0.67298 0.18227 0.0
O66 O 0.07087 0.61897 0.27433 0.0
O67 O 0.05377 0.65955 0.30989 0.0
O68 O 0.00979 0.60786 0.17965 0.0
O69 O 0.00882 0.63272 0.24353 0.0
Co70 Co 0.62898 0.79205 0.46105 0.0
O71 O 0.65871 0.77611 0.50084 0.0
O72 O 0.66599 0.81143 0.44977 0.0
C73 C 0.60985 0.74832 0.43762 0.0
O74 O 0.60451 0.81383 0.41359 0.0
Co75 Co 0.56366 0.78362 0.48401 0.0
O76 O 0.55648 0.81054 0.43162 0.0
C77 C 0.5982 0.82416 0.53857 0.0
C78 C 0.67666 0.79463 0.48184 0.0
C79 C 0.5773 0.81997 0.40657 0.0
O80 O 0.61922 0.82226 0.50935 0.0
O81 O 0.57516 0.80826 0.53724 0.0
O82 O 0.63306 0.7594 0.41826 0.0
O83 O 0.60037 0.76266 0.47309 0.0
Co84 Co 0.45958 0.38562 0.70786 0.0
O85 O 0.47769 0.41773 0.7401 0.0
O86 O 0.43641 0.42038 0.69907 0.0
C87 C 0.50128 0.36776 0.67498 0.0
O88 O 0.43413 0.35905 0.66868 0.0
Co89 Co 0.473 0.32121 0.73023 0.0
O90 O 0.43757 0.31232 0.69248 0.0
C91 C 0.44075 0.35644 0.79604 0.0
C92 C 0.45573 0.43327 0.72483 0.0
C93 C 0.42603 0.33214 0.66751 0.0
O94 O 0.43617 0.37573 0.76468 0.0
O95 O 0.45793 0.33454 0.79094 0.0
O96 O 0.48738 0.38987 0.65684 0.0
O97 O 0.49101 0.35861 0.71387 0.0
Co98 Co 0.86011 0.22104 0.95927 0.0
O99 O 0.82519 0.23402 0.99071 0.0
O100 O 0.8271 0.19605 0.94377 0.0
C101 C 0.87368 0.26674 0.93527 0.0
O102 O 0.89168 0.20098 0.92061 0.0
Co103 Co 0.92294 0.24365 0.98578 0.0
O104 O 0.9364 0.2212 0.93163 0.0
C105 C 0.8928 0.19795 0.0417 0.0
C106 C 0.81136 0.21281 0.97027 0.0
C107 C 0.91938 0.20302 0.91183 0.0
O108 O 0.87121 0.19571 0.01329 0.0
O109 O 0.91339 0.21698 0.03832 0.0
O110 O 0.85464 0.25137 0.91224 0.0
O111 O 0.88279 0.25425 0.97228 0.0
Co112 Co 0.96014 0.61407 0.70775 0.0
O113 O 0.97753 0.58017 0.7361 0.0
O114 O 0.93731 0.57975 0.69258 0.0
C115 C 0.00261 0.6331 0.67933 0.0
O116 O 0.93636 0.64378 0.67114 0.0
Co117 Co 0.97397 0.67543 0.74302 0.0
O118 O 0.94575 0.6895 0.69586 0.0
C119 C 0.93701 0.63777 0.79827 0.0
C120 C 0.95624 0.56543 0.71748 0.0
C121 C 0.93256 0.67167 0.66946 0.0
O122 O 0.93498 0.62018 0.76409 0.0
O123 O 0.95402 0.65997 0.79879 0.0
O124 O 0.98835 0.61265 0.65775 0.0
O125 O 0.99237 0.6397 0.71963 0.0
Co126 Co 0.13068 0.20773 0.44832 0.0
O127 O 0.16327 0.22698 0.47745 0.0
O128 O 0.16609 0.18467 0.44069 0.0
C129 C 0.11279 0.24765 0.41112 0.0
O130 O 0.10212 0.18082 0.41478 0.0
Co131 Co 0.06564 0.22636 0.46846 0.0
O132 O 0.05634 0.19967 0.41684 0.0
C133 C 0.09844 0.18803 0.53345 0.0
C134 C 0.17946 0.20528 0.46336 0.0
C135 C 0.07474 0.18037 0.40348 0.0
O136 O 0.12105 0.18687 0.5071 0.0
O137 O 0.07553 0.20361 0.52546 0.0
O138 O 0.13471 0.23289 0.39419 0.0
O139 O 0.10436 0.23961 0.45147 0.0
Co140 Co 0.54487 0.38294 0.22171 0.0
O141 O 0.53654 0.41982 0.25028 0.0
O142 O 0.57086 0.41247 0.19703 0.0
C143 C 0.49736 0.36997 0.20741 0.0
O144 O 0.55923 0.34827 0.18408 0.0
Co145 Co 0.52365 0.32598 0.26986 0.0
O146 O 0.54645 0.30671 0.22057 0.0
C147 C 0.57399 0.35789 0.30692 0.0
C148 C 0.55757 0.4303 0.22502 0.0
C149 C 0.55963 0.32021 0.18824 0.0
O150 O 0.57471 0.37408 0.27095 0.0
O151 O 0.55356 0.33947 0.31542 0.0
O152 O 0.51152 0.38757 0.1801 0.0
O153 O 0.51149 0.36329 0.24445 0.0
Co154 Co 0.35764 0.7921 0.95237 0.0
O155 O 0.32336 0.77724 0.98185 0.0
O156 O 0.32405 0.81624 0.93633 0.0
C157 C 0.37341 0.74801 0.92641 0.0
O158 O 0.38981 0.8135 0.91671 0.0
Co159 Co 0.41947 0.77007 0.9866 0.0
O160 O 0.43348 0.79185 0.93209 0.0
C161 C 0.38589 0.81499 0.03873 0.0
C162 C 0.30896 0.79814 0.96163 0.0
C163 C 0.41784 0.81083 0.91106 0.0
O164 O 0.36625 0.81708 0.00727 0.0
O165 O 0.40693 0.79625 0.03848 0.0
O166 O 0.35344 0.76263 0.90422 0.0
O167 O 0.381 0.75937 0.96511 0.0
Co168 Co 0.9722 0.39613 0.78395 0.0
O169 O 0.98678 0.42846 0.74819 0.0
O170 O 0.94322 0.42717 0.7822 0.0
C171 C 0.01352 0.38883 0.82523 0.0
O172 O 0.95046 0.367 0.82467 0.0
Co173 Co 0.00249 0.33468 0.7751 0.0
O174 O 0.97337 0.323 0.82252 0.0
C175 C 0.96108 0.35489 0.70405 0.0
C176 C 0.96239 0.44181 0.75815 0.0
C177 C 0.95283 0.33985 0.83647 0.0
O178 O 0.9537 0.377 0.72884 0.0
O179 O 0.98274 0.33797 0.71374 0.0
O180 O 0.9954 0.40966 0.83639 0.0
O181 O 0.00785 0.3759 0.78692 0.0
Co182 Co 0.3535 0.21882 0.51168 0.0
O183 O 0.31899 0.23257 0.4807 0.0
O184 O 0.32178 0.19055 0.51828 0.0
C185 C 0.36127 0.26248 0.54701 0.0
O186 O 0.386 0.19769 0.54777 0.0
Co187 Co 0.41388 0.24974 0.49448 0.0
O188 O 0.42815 0.22371 0.54409 0.0
C189 C 0.39014 0.20652 0.42767 0.0
C190 C 0.30574 0.20931 0.49553 0.0
C191 C 0.41323 0.20194 0.55853 0.0
O192 O 0.368 0.20042 0.45343 0.0
O193 O 0.40896 0.22665 0.43641 0.0
O194 O 0.34387 0.243 0.5648 0.0
O195 O 0.37282 0.25485 0.50845 0.0
Co196 Co 0.54512 0.59618 0.29049 0.0
O197 O 0.53571 0.56403 0.25088 0.0
O198 O 0.5768 0.56779 0.2914 0.0
C199 C 0.50147 0.59899 0.32741 0.0
O200 O 0.56086 0.62625 0.33616 0.0
Co201 Co 0.5088 0.65389 0.27523 0.0
O202 O 0.5325 0.66672 0.32854 0.0
C203 C 0.55956 0.64126 0.21576 0.0
C204 C 0.56029 0.5523 0.26405 0.0
C205 C 0.55381 0.65276 0.34705 0.0
O206 O 0.56553 0.61826 0.23956 0.0
O207 O 0.53641 0.65681 0.22187 0.0
O208 O 0.52049 0.57903 0.33849 0.0
O209 O 0.50749 0.61275 0.28979 0.0
Co210 Co 0.13854 0.78787 0.02753 0.0
O211 O 0.16926 0.77193 0.99031 0.0
O212 O 0.17204 0.81381 0.02866 0.0
C213 C 0.12815 0.74587 0.0665 0.0
O214 O 0.11144 0.81069 0.07011 0.0
Co215 Co 0.07498 0.76304 0.01558 0.0
O216 O 0.06724 0.78822 0.06964 0.0
C217 C 0.10021 0.80218 0.94567 0.0
C218 C 0.18478 0.79451 0.00244 0.0
C219 C 0.08485 0.80782 0.08446 0.0
O220 O 0.12195 0.80829 0.97214 0.0
O221 O 0.0808 0.7827 0.95464 0.0
O222 O 0.14975 0.76268 0.07864 0.0
O223 O 0.1156 0.75371 0.02858 0.0
Co224 Co 0.5412 0.90083 0.78505 0.0
O225 O 0.52839 0.93558 0.75398 0.0
O226 O 0.56898 0.93225 0.79632 0.0
C227 C 0.49778 0.88793 0.81649 0.0
O228 O 0.56022 0.86775 0.82258 0.0
Co229 Co 0.51376 0.8417 0.75044 0.0
O230 O 0.53977 0.82531 0.79851 0.0
C231 C 0.55858 0.87151 0.69574 0.0
C232 C 0.5517 0.94804 0.77048 0.0
C233 C 0.55751 0.83955 0.82411 0.0
O234 O 0.56425 0.88891 0.72913 0.0
O235 O 0.53716 0.85338 0.69544 0.0
O236 O 0.51362 0.90835 0.83529 0.0
O237 O 0.50644 0.87988 0.77627 0.0
Co238 Co 0.36931 0.2859 0.03494 0.0
O239 O 0.33894 0.27318 0.99373 0.0
O240 O 0.33275 0.30583 0.04911 0.0
C241 C 0.38537 0.2397 0.04993 0.0
O242 O 0.39548 0.30393 0.08452 0.0
Co243 Co 0.43535 0.27244 0.01425 0.0
O244 O 0.44263 0.28949 0.0755 0.0
C245 C 0.40302 0.31865 0.96278 0.0
C246 C 0.32131 0.29042 0.016 0.0
C247 C 0.42269 0.30342 0.0971 0.0
O248 O 0.38097 0.31731 0.99024 0.0
O249 O 0.42521 0.30133 0.96466 0.0
O250 O 0.3635 0.25106 0.07251 0.0
O251 O 0.39611 0.25647 0.01851 0.0
Co252 Co 0.95872 0.10019 0.26858 0.0
O253 O 0.96841 0.0664 0.23248 0.0
O254 O 0.92716 0.07203 0.27247 0.0
C255 C 0.00307 0.1034 0.30387 0.0
O256 O 0.94169 0.13121 0.31094 0.0
Co257 Co 0.99379 0.15853 0.25598 0.0
O258 O 0.97037 0.17152 0.30984 0.0
C259 C 0.94716 0.14237 0.18998 0.0
C260 C 0.9438 0.05543 0.24706 0.0
C261 C 0.94838 0.1571 0.32487 0.0
O262 O 0.93963 0.12012 0.21449 0.0
O263 O 0.96975 0.15831 0.19815 0.0
O264 O 0.9831 0.08544 0.31872 0.0
O265 O 0.99628 0.11684 0.26633 0.0
Co266 Co 0.14969 0.71091 0.53388 0.0
O267 O 0.18288 0.72817 0.50281 0.0
O268 O 0.18578 0.692 0.55318 0.0
C269 C 0.12652 0.75329 0.55584 0.0
O270 O 0.12085 0.68808 0.57376 0.0
Co271 Co 0.08822 0.71841 0.493 0.0
O272 O 0.07732 0.68676 0.53706 0.0
C273 C 0.12955 0.68236 0.4452 0.0
C274 C 0.19927 0.7096 0.52506 0.0
C275 C 0.0941 0.67922 0.57002 0.0
O276 O 0.14525 0.68147 0.48192 0.0
O277 O 0.10828 0.70025 0.43985 0.0
O278 O 0.14849 0.74265 0.57912 0.0
O279 O 0.12167 0.74013 0.51712 0.0
Co280 Co 0.53614 0.11408 0.69302 0.0
O281 O 0.52136 0.07976 0.72372 0.0
O282 O 0.56463 0.08281 0.6886 0.0
C283 C 0.49448 0.12623 0.65412 0.0
O284 O 0.55895 0.14537 0.65813 0.0
Co285 Co 0.50856 0.17575 0.7129 0.0
O286 O 0.53517 0.18869 0.66306 0.0
C287 C 0.55087 0.14933 0.77831 0.0
C288 C 0.54608 0.06736 0.71242 0.0
C289 C 0.5562 0.17275 0.6483 0.0
O290 O 0.55534 0.1275 0.75146 0.0
O291 O 0.53155 0.16927 0.77101 0.0
O292 O 0.51176 0.10565 0.63899 0.0
O293 O 0.50106 0.13585 0.69446 0.0
Co294 Co 0.14807 0.28505 0.95761 0.0
O295 O 0.18148 0.26583 0.98469 0.0
O296 O 0.18275 0.30901 0.94978 0.0
C297 C 0.12974 0.24579 0.91957 0.0
O298 O 0.11816 0.31194 0.92652 0.0
Co299 Co 0.08411 0.26429 0.98205 0.0
O300 O 0.07282 0.29246 0.93324 0.0
C301 C 0.117 0.30394 0.04446 0.0
C302 C 0.19676 0.2884 0.97168 0.0
C303 C 0.09029 0.31219 0.91847 0.0
O304 O 0.13911 0.30524 0.01716 0.0
O305 O 0.09448 0.28759 0.03811 0.0
O306 O 0.15145 0.2607 0.90238 0.0
O307 O 0.12246 0.25285 0.96084 0.0
Co308 Co 0.95336 0.88355 0.20926 0.0
O309 O 0.96652 0.91913 0.23801 0.0
O310 O 0.92924 0.91579 0.18883 0.0
C311 C 0.99825 0.8659 0.18735 0.0
O312 O 0.93402 0.85222 0.17077 0.0
Co313 Co 0.96787 0.82403 0.2502 0.0
O314 O 0.94343 0.80759 0.19982 0.0
C315 C 0.92538 0.85962 0.29692 0.0
C316 C 0.94544 0.93196 0.21538 0.0
C317 C 0.93148 0.82427 0.17023 0.0
O318 O 0.92489 0.87665 0.2618 0.0
O319 O 0.94375 0.83876 0.30171 0.0
O320 O 0.98435 0.88561 0.16344 0.0
O321 O 0.98624 0.85977 0.22669 0.0
Co322 Co 0.37415 0.70591 0.47101 0.0
O323 O 0.34239 0.72838 0.49751 0.0
O324 O 0.33792 0.68372 0.469 0.0
C325 C 0.39258 0.74225 0.42628 0.0
O326 O 0.40122 0.67587 0.4406 0.0
Co327 Co 0.43948 0.72389 0.48882 0.0
O328 O 0.44859 0.68759 0.45455 0.0
C329 C 0.40615 0.69293 0.56048 0.0
C330 C 0.32543 0.70625 0.48828 0.0
C331 C 0.42905 0.6709 0.43723 0.0
O332 O 0.3841 0.68928 0.53337 0.0
O333 O 0.42873 0.70837 0.55057 0.0
O334 O 0.3701 0.72703 0.41257 0.0
O335 O 0.40138 0.737 0.46758 0.0
Co336 Co 0.46176 0.10224 0.20933 0.0
O337 O 0.46922 0.07008 0.25013 0.0
O338 O 0.42951 0.07499 0.20641 0.0
C339 C 0.50649 0.10389 0.17633 0.0
O340 O 0.44738 0.1316 0.1621 0.0
Co341 Co 0.49708 0.16056 0.22158 0.0
O342 O 0.47396 0.17328 0.16732 0.0
C343 C 0.44606 0.14837 0.28104 0.0
C344 C 0.44468 0.05914 0.23508 0.0
C345 C 0.45339 0.158 0.14969 0.0
O346 O 0.44038 0.12509 0.25798 0.0
O347 O 0.46922 0.16386 0.27481 0.0
O348 O 0.48755 0.08418 0.16389 0.0
O349 O 0.49938 0.11867 0.2125 0.0
Co350 Co 0.63561 0.71317 0.97336 0.0
O351 O 0.67104 0.73113 0.99605 0.0
O352 O 0.66827 0.68653 0.96621 0.0
C353 C 0.61914 0.75241 0.932 0.0
O354 O 0.60424 0.68654 0.94666 0.0
Co355 Co 0.57364 0.73712 -0.00093 0.0
O356 O 0.55895 0.70178 0.96682 0.0
C357 C 0.60622 0.70031 0.06497 0.0
C358 C 0.6843 0.70686 0.98481 0.0
C359 C 0.57614 0.6835 0.94744 0.0
O360 O 0.62725 0.69656 0.0361 0.0
O361 O 0.58434 0.71745 0.05813 0.0
O362 O 0.63882 0.7348 0.91505 0.0
O363 O 0.61181 0.74726 0.97408 0.0
Co364 Co 0.0366 0.8924 0.70661 0.0
O365 O 0.02279 0.92457 0.74373 0.0
O366 O 0.06386 0.92494 0.70296 0.0
C367 C 0.99308 0.88242 0.67184 0.0
O368 O 0.05708 0.86376 0.66289 0.0
Co369 Co 0.0096 0.82976 0.72233 0.0
O370 O 0.03567 0.81934 0.67043 0.0
C371 C 0.05572 0.85198 0.78459 0.0
C372 C 0.04567 0.93897 0.72961 0.0
C373 C 0.05474 0.83636 0.65247 0.0
O374 O 0.05951 0.87495 0.75956 0.0
O375 O 0.03524 0.83324 0.7778 0.0
O376 O 0.00917 0.90416 0.65786 0.0
O377 O 0.00191 0.87041 0.70946 0.0
Co378 Co 0.87531 0.28551 0.46614 0.0
O379 O 0.84607 0.27083 0.50774 0.0
O380 O 0.8411 0.31048 0.46438 0.0
C381 C 0.88653 0.2423 0.43226 0.0
O382 O 0.90031 0.30729 0.41912 0.0
Co383 Co 0.94089 0.26461 0.47192 0.0
O384 O 0.94576 0.28749 0.4146 0.0
C385 C 0.91596 0.30477 0.54172 0.0
C386 C 0.82967 0.29253 0.49411 0.0
C387 C 0.9261 0.30545 0.40103 0.0
O388 O 0.89276 0.30897 0.51746 0.0
O389 O 0.93602 0.28607 0.5317 0.0
O390 O 0.86327 0.25691 0.42004 0.0
O391 O 0.90016 0.25282 0.46745 0.0
Co392 Co 0.45794 0.89173 0.27463 0.0
O393 O 0.46361 0.92864 0.24528 0.0
O394 O 0.42909 0.91906 0.29748 0.0
C395 C 0.50614 0.88376 0.29084 0.0
O396 O 0.44618 0.85657 0.31319 0.0
Co397 Co 0.48565 0.83579 0.23156 0.0
O398 O 0.46589 0.8156 0.28306 0.0
C399 C 0.43361 0.86276 0.18947 0.0
C400 C 0.44169 0.9377 0.27004 0.0
C401 C 0.44988 0.82863 0.31263 0.0
O402 O 0.43021 0.87962 0.22428 0.0
O403 O 0.45581 0.84593 0.18371 0.0
O404 O 0.48985 0.9 0.31731 0.0
O405 O 0.49324 0.87499 0.25385 0.0
Co406 Co 0.85833 0.69992 0.03579 0.0
O407 O 0.82746 0.71289 0.99572 0.0
O408 O 0.82201 0.67927 0.04968 0.0
C409 C 0.87288 0.74604 0.05373 0.0
O410 O 0.88581 0.68186 0.08413 0.0
Co411 Co 0.92339 0.71616 0.01339 0.0
O412 O 0.93172 0.69978 0.07466 0.0
C413 C 0.89251 0.66971 0.96111 0.0
C414 C 0.80998 0.69566 0.01811 0.0
C415 C 0.91305 0.68431 0.09637 0.0
O416 O 0.87059 0.66988 0.98898 0.0
O417 O 0.91405 0.68771 0.96319 0.0
O418 O 0.85153 0.73341 0.07568 0.0
O419 O 0.8838 0.73074 0.02063 0.0
Co420 Co 0.03367 0.11061 0.778 0.0
O421 O 0.0209 0.07456 0.75049 0.0
O422 O 0.06211 0.07995 0.79066 0.0
C423 C 0.98912 0.12229 0.80891 0.0
O424 O 0.05361 0.14444 0.81153 0.0
Co425 Co 0.0052 0.17023 0.74866 0.0
O426 O 0.02642 0.18547 0.80306 0.0
C427 C 0.05199 0.14266 0.69187 0.0
C428 C 0.04464 0.06298 0.76731 0.0
C429 C 0.04816 0.1716 0.82028 0.0
O430 O 0.05536 0.12157 0.72057 0.0
O431 O 0.03252 0.16286 0.6957 0.0
O432 O 0.00716 0.10459 0.8298 0.0
O433 O 0.99808 0.13067 0.76902 0.0
Co434 Co 0.65707 0.2936 0.54064 0.0
O435 O 0.6922 0.27974 0.51243 0.0
O436 O 0.6899 0.31858 0.55797 0.0
C437 C 0.6414 0.25018 0.5681 0.0
O438 O 0.62298 0.31274 0.57601 0.0
Co439 Co 0.59859 0.26909 0.49781 0.0
O440 O 0.58102 0.29434 0.54563 0.0
C441 C 0.63149 0.31525 0.45039 0.0
C442 C 0.70586 0.30063 0.53358 0.0
C443 C 0.59458 0.31075 0.57412 0.0
O444 O 0.64836 0.31883 0.48533 0.0
O445 O 0.61275 0.29451 0.4467 0.0
O446 O 0.66164 0.26467 0.58962 0.0
O447 O 0.63523 0.26 0.52765 0.0
C448 C 0.08339 0.3651 0.10724 0.0
C449 C 0.08282 0.35242 0.15148 0.0
C450 C 0.11732 0.31433 0.12805 0.0
C451 C 0.11502 0.32485 0.08264 0.0
N452 N 0.10692 0.36598 0.03244 0.0
N453 N 0.10799 0.32377 0.2087 0.0
C454 C 0.10201 0.35249 0.07354 0.0
C455 C 0.10297 0.33 0.16354 0.0
N456 N 0.06494 0.38784 0.0969 0.0
N457 N 0.13179 0.28864 0.13651 0.0
H458 H 0.09797 0.33568 0.23501 0.0
H459 H 0.12389 0.30892 0.21988 0.0
H460 H 0.14348 0.27765 0.11087 0.0
H461 H 0.1314 0.27794 0.16811 0.0
H462 H 0.06195 0.3959 0.06376 0.0
H463 H 0.05166 0.39782 0.12161 0.0
H464 H 0.0996 0.38709 0.0248 0.0
H465 H 0.12055 0.35681 0.00745 0.0
C466 C 0.87785 0.84131 0.32558 0.0
C467 C 0.9017 0.86094 0.33119 0.0
C468 C 0.89179 0.86348 0.41323 0.0
C469 C 0.87456 0.83792 0.40876 0.0
N470 N 0.84601 0.80535 0.36215 0.0
N471 N 0.92989 0.89352 0.37882 0.0
C472 C 0.86524 0.82826 0.36514 0.0
C473 C 0.9076 0.87368 0.37446 0.0
N474 N 0.86863 0.83423 0.28244 0.0
N475 N 0.89372 0.87699 0.45486 0.0
H476 H 0.94162 0.90123 0.3505 0.0
H477 H 0.93748 0.90127 0.41028 0.0
H478 H 0.88199 0.86937 0.48328 0.0
H479 H 0.9046 0.89679 0.46005 0.0
H480 H 0.85051 0.82104 0.27544 0.0
H481 H 0.87807 0.84382 0.25353 0.0
H482 H 0.84042 0.79495 0.33159 0.0
H483 H 0.83598 0.79648 0.39127 0.0
C484 C 0.42102 0.63463 0.64978 0.0
C485 C 0.43209 0.65338 0.68483 0.0
C486 C 0.41042 0.69571 0.64482 0.0
C487 C 0.40683 0.67809 0.60549 0.0
N488 N 0.40617 0.6303 0.57017 0.0
N489 N 0.43245 0.70172 0.71971 0.0
C490 C 0.41072 0.64729 0.60812 0.0
C491 C 0.42494 0.68391 0.6838 0.0
N492 N 0.4198 0.60498 0.65611 0.0
N493 N 0.39969 0.72375 0.64447 0.0
H494 H 0.44008 0.69381 0.7511 0.0
H495 H 0.43168 0.72451 0.71835 0.0
H496 H 0.38861 0.7324 0.61608 0.0
H497 H 0.39913 0.73734 0.67314 0.0
H498 H 0.40956 0.59073 0.63323 0.0
H499 H 0.42553 0.59474 0.6866 0.0
H500 H 0.41287 0.6085 0.5678 0.0
H501 H 0.39703 0.63839 0.53989 0.0
C502 C 0.55283 0.14596 0.86291 0.0
C503 C 0.56779 0.15118 0.82141 0.0
C504 C 0.6092 0.17336 0.86281 0.0
C505 C 0.59198 0.17255 0.90341 0.0
N506 N 0.54826 0.15653 0.94375 0.0
N507 N 0.61313 0.16074 0.7817 0.0
C508 C 0.5643 0.15778 0.90409 0.0
C509 C 0.59711 0.16185 0.82134 0.0
N510 N 0.52792 0.12913 0.86263 0.0
N511 N 0.6361 0.18678 0.86346 0.0
H512 H 0.60484 0.15164 0.75153 0.0
H513 H 0.63512 0.16678 0.77903 0.0
H514 H 0.64553 0.19504 0.8934 0.0
H515 H 0.64892 0.19057 0.83453 0.0
H516 H 0.51719 0.12191 0.89207 0.0
H517 H 0.51947 0.11993 0.83258 0.0
H518 H 0.52641 0.14985 0.94548 0.0
H519 H 0.55647 0.16336 0.9753 0.0
C520 C 0.12259 0.65356 0.32899 0.0
C521 C 0.0968 0.6374 0.33897 0.0
C522 C 0.11133 0.63488 0.41937 0.0
C523 C 0.13073 0.65849 0.4113 0.0
N524 N 0.15997 0.68653 0.35912 0.0
N525 N 0.06887 0.60782 0.39155 0.0
C526 C 0.13871 0.6659 0.36598 0.0
C527 C 0.09226 0.62585 0.38346 0.0
N528 N 0.13094 0.65753 0.28446 0.0
N529 N 0.11026 0.62268 0.46204 0.0
H530 H 0.05526 0.6004 0.36512 0.0
H531 H 0.06257 0.6009 0.42415 0.0
H532 H 0.12469 0.62943 0.48783 0.0
H533 H 0.09746 0.60452 0.47037 0.0
H534 H 0.15046 0.66777 0.27487 0.0
H535 H 0.11933 0.64813 0.25728 0.0
H536 H 0.1649 0.69557 0.32722 0.0
H537 H 0.17216 0.69495 0.38654 0.0
C538 C 0.57751 0.86938 0.57257 0.0
C539 C 0.59899 0.84686 0.57434 0.0
C540 C 0.60328 0.85199 0.65726 0.0
C541 C 0.57842 0.87077 0.65602 0.0
N542 N 0.54834 0.90511 0.61483 0.0
N543 N 0.63943 0.82405 0.61368 0.0
C544 C 0.56803 0.88244 0.61415 0.0
C545 C 0.61464 0.841 0.61524 0.0
N546 N 0.56497 0.87654 0.53142 0.0
N547 N 0.61436 0.84311 0.69863 0.0
H548 H 0.64776 0.81591 0.58285 0.0
H549 H 0.65296 0.82007 0.64183 0.0
H550 H 0.60681 0.85168 0.72967 0.0
H551 H 0.63043 0.82701 0.70247 0.0
H552 H 0.54716 0.8907 0.52766 0.0
H553 H 0.57238 0.86753 0.50062 0.0
H554 H 0.54085 0.91596 0.58563 0.0
H555 H 0.54118 0.9145 0.64555 0.0
C556 C 0.42567 0.36065 0.92171 0.0
C557 C 0.40269 0.33978 0.92454 0.0
C558 C 0.39807 0.33859 0.8415 0.0
C559 C 0.42312 0.35699 0.83831 0.0
N560 N 0.4555 0.39222 0.87305 0.0
N561 N 0.35975 0.31838 0.88994 0.0
C562 C 0.43487 0.37068 0.87782 0.0
C563 C 0.38611 0.3324 0.88527 0.0
N564 N 0.43965 0.36925 0.96095 0.0
N565 N 0.38738 0.32508 0.80315 0.0
H566 H 0.35062 0.31377 0.92195 0.0
H567 H 0.34561 0.31424 0.86255 0.0
H568 H 0.39624 0.32877 0.77073 0.0
H569 H 0.37131 0.30883 0.80383 0.0
H570 H 0.4586 0.38202 0.96158 0.0
H571 H 0.43224 0.36278 0.99331 0.0
H572 H 0.46368 0.40452 0.90027 0.0
H573 H 0.46283 0.39925 0.84092 0.0
C574 C 0.89402 0.19136 0.12507 0.0
C575 C 0.89494 0.1781 0.0815 0.0
C576 C 0.92277 0.13658 0.11289 0.0
C577 C 0.92669 0.15283 0.15405 0.0
N578 N 0.91645 0.196 0.19983 0.0
N579 N 0.90492 0.13637 0.03388 0.0
C580 C 0.91197 0.18008 0.16065 0.0
C581 C 0.90713 0.14974 0.07568 0.0
N582 N 0.87618 0.21514 0.13166 0.0
N583 N 0.93514 0.10935 0.10887 0.0
H584 H 0.89241 0.14524 0.00723 0.0
H585 H 0.91528 0.11681 0.02515 0.0
H586 H 0.94855 0.10024 0.13421 0.0
H587 H 0.93169 0.0953 0.08132 0.0
H588 H 0.87233 0.22465 0.16358 0.0
H589 H 0.86287 0.22342 0.10539 0.0
H590 H 0.90909 0.21744 0.20427 0.0
H591 H 0.92916 0.18856 0.22724 0.0
C592 C 0.9284 0.62013 0.87767 0.0
C593 C 0.91731 0.63407 0.8379 0.0
C594 C 0.87757 0.65608 0.88262 0.0
C595 C 0.8933 0.6487 0.92281 0.0
N596 N 0.92953 0.61931 0.96119 0.0
N597 N 0.87961 0.66219 0.79997 0.0
C598 C 0.91699 0.62855 0.92109 0.0
C599 C 0.89076 0.65039 0.83942 0.0
N600 N 0.95043 0.5999 0.87357 0.0
N601 N 0.85085 0.66963 0.88619 0.0
H602 H 0.88875 0.6577 0.76795 0.0
H603 H 0.86222 0.67705 0.79895 0.0
H604 H 0.84109 0.67382 0.91791 0.0
H605 H 0.83727 0.67418 0.85829 0.0
H606 H 0.95873 0.58766 0.90083 0.0
H607 H 0.95897 0.59387 0.84166 0.0
H608 H 0.94868 0.60684 0.96317 0.0
H609 H 0.92048 0.62474 0.99301 0.0
C610 C 0.10611 0.1805 0.61725 0.0
C611 C 0.0974 0.16912 0.57426 0.0
C612 C 0.06708 0.13187 0.61127 0.0
C613 C 0.07297 0.14557 0.65379 0.0
N614 N 0.10601 0.1741 0.70003 0.0
N615 N 0.07959 0.12827 0.53036 0.0
C616 C 0.09538 0.16691 0.65768 0.0
C617 C 0.08134 0.14262 0.57136 0.0
N618 N 0.12318 0.2051 0.61912 0.0
N619 N 0.04679 0.10986 0.60894 0.0
H620 H 0.09054 0.13585 0.50116 0.0
H621 H 0.06971 0.10785 0.52625 0.0
H622 H 0.03698 0.101 0.63823 0.0
H623 H 0.03905 0.10108 0.57825 0.0
H624 H 0.12754 0.21651 0.6493 0.0
H625 H 0.13221 0.2146 0.58972 0.0
H626 H 0.12369 0.1882 0.70526 0.0
H627 H 0.09871 0.16357 0.72975 0.0
C628 C 0.61098 0.36161 0.42027 0.0
C629 C 0.63045 0.33767 0.41412 0.0
C630 C 0.62269 0.33869 0.33147 0.0
C631 C 0.59901 0.35837 0.33891 0.0
N632 N 0.57623 0.39559 0.38493 0.0
N633 N 0.66298 0.31071 0.36546 0.0
C634 C 0.5954 0.37259 0.38161 0.0
C635 C 0.63941 0.32909 0.36982 0.0
N636 N 0.6059 0.37193 0.46353 0.0
N637 N 0.6275 0.32772 0.2885 0.0
H638 H 0.675 0.30381 0.39411 0.0
H639 H 0.67184 0.30413 0.3342 0.0
H640 H 0.61576 0.3351 0.25996 0.0
H641 H 0.64265 0.31129 0.28099 0.0
H642 H 0.59001 0.3875 0.47178 0.0
H643 H 0.61813 0.36465 0.49162 0.0
H644 H 0.57307 0.40795 0.41451 0.0
H645 H 0.56466 0.40346 0.35647 0.0
C646 C 0.38885 0.83823 0.16078 0.0
C647 C 0.41005 0.86062 0.15515 0.0
C648 C 0.40014 0.86257 0.07299 0.0
C649 C 0.38516 0.83555 0.07747 0.0
N650 N 0.35923 0.8006 0.12374 0.0
N651 N 0.43218 0.89841 0.10948 0.0
C652 C 0.37694 0.82473 0.12106 0.0
C653 C 0.41391 0.87471 0.11236 0.0
N654 N 0.38136 0.82935 0.20399 0.0
N655 N 0.40184 0.87572 0.03094 0.0
H656 H 0.44142 0.90801 0.13866 0.0
H657 H 0.43842 0.90833 0.07883 0.0
H658 H 0.39151 0.86692 0.00206 0.0
H659 H 0.41146 0.89607 0.02514 0.0
H660 H 0.36528 0.81381 0.21122 0.0
H661 H 0.39014 0.83932 0.23312 0.0
H662 H 0.35416 0.78969 0.15408 0.0
H663 H 0.34955 0.79138 0.0946 0.0
C664 C 0.93437 0.36361 0.62887 0.0
C665 C 0.94123 0.34506 0.66659 0.0
C666 C 0.919 0.30331 0.62658 0.0
C667 C 0.91878 0.32024 0.5859 0.0
N668 N 0.92141 0.36719 0.54826 0.0
N669 N 0.93417 0.29899 0.7061 0.0
C670 C 0.92448 0.35077 0.5872 0.0
C671 C 0.93137 0.31544 0.66702 0.0
N672 N 0.93666 0.39332 0.63308 0.0
N673 N 0.90682 0.27587 0.62626 0.0
H674 H 0.94015 0.30801 0.73764 0.0
H675 H 0.93098 0.27643 0.70762 0.0
H676 H 0.89691 0.267 0.59707 0.0
H677 H 0.90424 0.26278 0.65521 0.0
H678 H 0.92984 0.4082 0.60813 0.0
H679 H 0.94236 0.40344 0.66365 0.0
H680 H 0.92945 0.38843 0.54459 0.0
H681 H 0.91107 0.35925 0.51894 0.0
C682 C 0.41423 0.18995 0.30749 0.0
C683 C 0.42338 0.1603 0.31272 0.0
C684 C 0.4024 0.15865 0.38984 0.0
C685 C 0.39551 0.18892 0.38611 0.0
N686 N 0.38584 0.23072 0.33807 0.0
N687 N 0.41377 0.11382 0.3496 0.0
C688 C 0.39845 0.2037 0.34361 0.0
C689 C 0.41339 0.1437 0.35082 0.0
N690 N 0.42094 0.20492 0.26816 0.0
N691 N 0.40033 0.1445 0.43112 0.0
H692 H 0.41929 0.10227 0.32022 0.0
H693 H 0.40456 0.1007 0.3751 0.0
H694 H 0.39188 0.15417 0.46067 0.0
H695 H 0.40899 0.12365 0.4369 0.0
H696 H 0.41836 0.22747 0.26432 0.0
H697 H 0.42978 0.1947 0.23925 0.0
H698 H 0.38512 0.24198 0.307 0.0
H699 H 0.37365 0.2408 0.36403 0.0
C700 C 0.59126 0.6367 0.14488 0.0
C701 C 0.58189 0.65313 0.18342 0.0
C702 C 0.60358 0.69745 0.14996 0.0
C703 C 0.60547 0.68262 0.10742 0.0
N704 N 0.60308 0.63746 0.06397 0.0
N705 N 0.5857 0.69717 0.2286 0.0
C706 C 0.60065 0.65187 0.10493 0.0
C707 C 0.5905 0.68292 0.18799 0.0
N708 N 0.59165 0.60683 0.14664 0.0
N709 N 0.61426 0.72538 0.15336 0.0
H710 H 0.5788 0.68617 0.25814 0.0
H711 H 0.58836 0.71961 0.23333 0.0
H712 H 0.62447 0.73588 0.12578 0.0
H713 H 0.61514 0.73732 0.18372 0.0
H714 H 0.60033 0.59366 0.12077 0.0
H715 H 0.58712 0.59539 0.17661 0.0
H716 H 0.59581 0.61605 0.0589 0.0
H717 H 0.61068 0.64731 0.034 0.0
C718 C 0.08033 0.86168 0.86021 0.0
C719 C 0.0775 0.84416 0.8205 0.0
C720 C 0.10144 0.80325 0.86034 0.0
C721 C 0.09717 0.8184 0.90222 0.0
N722 N 0.08363 0.86242 0.94313 0.0
N723 N 0.09075 0.80063 0.77867 0.0
C724 C 0.08751 0.84799 0.90249 0.0
C725 C 0.09023 0.81572 0.8192 0.0
N726 N 0.0767 0.89128 0.85721 0.0
N727 N 0.11622 0.7771 0.86029 0.0
H728 H 0.08489 0.81041 0.74752 0.0
H729 H 0.09649 0.77862 0.7757 0.0
H730 H 0.1249 0.76783 0.89017 0.0
H731 H 0.12191 0.76566 0.83071 0.0
H732 H 0.08028 0.90561 0.88446 0.0
H733 H 0.07425 0.90163 0.82565 0.0
H734 H 0.07338 0.8828 0.9457 0.0
H735 H 0.08902 0.85319 0.97477 0.0
C736 C 0.07184 0.28462 0.31236 0.0
C737 C 0.061 0.31031 0.33422 0.0
C738 C 0.08844 0.2972 0.40384 0.0
C739 C 0.09596 0.26969 0.38392 0.0
N740 N 0.08931 0.23517 0.32168 0.0
N741 N 0.05562 0.33928 0.40282 0.0
C742 C 0.08628 0.26288 0.3388 0.0
C743 C 0.06845 0.31621 0.38055 0.0
N744 N 0.06922 0.28122 0.26587 0.0
N745 N 0.10128 0.30569 0.44413 0.0
H746 H 0.04075 0.35348 0.38688 0.0
H747 H 0.05773 0.34281 0.43799 0.0
H748 H 0.11674 0.29286 0.46144 0.0
H749 H 0.09887 0.32661 0.45796 0.0
H750 H 0.07986 0.26462 0.24772 0.0
H751 H 0.05921 0.2966 0.24449 0.0
H752 H 0.07918 0.22816 0.29151 0.0
H753 H 0.09938 0.21827 0.33959 0.0
C754 C 0.94729 0.85187 0.57224 0.0
C755 C 0.9271 0.83439 0.5973 0.0
C756 C 0.94401 0.85727 0.66841 0.0
C757 C 0.96846 0.86953 0.64456 0.0
N758 N 0.99431 0.87607 0.57199 0.0
N759 N 0.90655 0.81942 0.66973 0.0
C760 C 0.97013 0.86678 0.59586 0.0
C761 C 0.92526 0.83702 0.64554 0.0
N762 N 0.94473 0.85402 0.52558 0.0
N763 N 0.93815 0.86573 0.71245 0.0
H764 H 0.8922 0.8047 0.65393 0.0
H765 H 0.90675 0.81799 0.70543 0.0
H766 H 0.9503 0.88188 0.7293 0.0
H767 H 0.91931 0.85936 0.73018 0.0
H768 H 0.95646 0.86913 0.50597 0.0
H769 H 0.9287 0.84279 0.50699 0.0
H770 H 0.99759 0.87152 0.53734 0.0
H771 H 0.01301 0.88504 0.5868 0.0
C772 C 0.39971 0.69977 0.93906 0.0
C773 C 0.38746 0.72085 0.90815 0.0
C774 C 0.40092 0.68858 0.84472 0.0
C775 C 0.41977 0.67272 0.87409 0.0
N776 N 0.43783 0.66314 0.95012 0.0
N777 N 0.38287 0.73686 0.82848 0.0
C778 C 0.41937 0.67821 0.9217 0.0
C779 C 0.3893 0.71558 0.86001 0.0
N780 N 0.39164 0.69928 0.9842 0.0
N781 N 0.39488 0.67833 0.80178 0.0
H782 H 0.37834 0.75852 0.83692 0.0
H783 H 0.38629 0.73393 0.79338 0.0
H784 H 0.40308 0.65831 0.79001 0.0
H785 H 0.37944 0.68825 0.78023 0.0
H786 H 0.39873 0.68311 0.00699 0.0
H787 H 0.37486 0.71241 -0.00266 0.0
H788 H 0.44075 0.66854 0.9846 0.0
H789 H 0.45116 0.64617 0.93815 0.0
C790 C 0.57917 0.13872 0.1447 0.0
C791 C 0.57632 0.14002 0.09646 0.0
C792 C 0.53112 0.11186 0.09895 0.0
C793 C 0.5324 0.11194 0.14792 0.0
N794 N 0.56349 0.11504 0.21513 0.0
N795 N 0.55974 0.11526 0.02903 0.0
C796 C 0.55842 0.12198 0.17019 0.0
C797 C 0.55586 0.12186 0.07423 0.0
N798 N 0.60091 0.15413 0.16609 0.0
N799 N 0.50586 0.10533 0.0756 0.0
H800 H 0.57852 0.12215 0.01138 0.0
H801 H 0.54641 0.10047 0.01139 0.0
H802 H 0.48572 0.10105 0.09098 0.0
H803 H 0.50401 0.10782 0.04014 0.0
H804 H 0.60182 0.15715 0.2015 0.0
H805 H 0.61765 0.16455 0.14784 0.0
H806 H 0.58302 0.12 0.23214 0.0
H807 H 0.54947 0.10144 0.23385 0.0
C808 C 0.09958 0.70629 0.17333 0.0
C809 C 0.07711 0.68918 0.1525 0.0
C810 C 0.0968 0.70094 0.07652 0.0
C811 C 0.11572 0.72214 0.09657 0.0
N812 N 0.14064 0.7395 0.16492 0.0
N813 N 0.05324 0.6707 0.08465 0.0
C814 C 0.119 0.72297 0.14525 0.0
C815 C 0.0756 0.68637 0.10419 0.0
N816 N 0.10311 0.70555 0.22003 0.0
N817 N 0.10038 0.69347 0.03144 0.0
H818 H 0.03746 0.65956 0.10394 0.0
H819 H 0.04899 0.67062 0.04952 0.0
H820 H 0.11759 0.70174 0.01157 0.0
H821 H 0.08897 0.67648 0.0156 0.0
H822 H 0.12063 0.71501 0.23754 0.0
H823 H 0.08931 0.69387 0.24195 0.0
H824 H 0.14009 0.74687 0.19871 0.0
H825 H 0.16026 0.74443 0.14828 0.0
C826 C 0.54416 0.84361 0.29386 0.0
C827 C 0.53491 0.87196 0.30726 0.0
C828 C 0.56804 0.86947 0.37345 0.0
C829 C 0.56917 0.83868 0.36744 0.0
N830 N 0.56104 0.7961 0.32011 0.0
N831 N 0.54605 0.91579 0.34958 0.0
C832 C 0.55847 0.82564 0.32668 0.0
C833 C 0.54974 0.8863 0.34374 0.0
N834 N 0.54074 0.83457 0.2496 0.0
N835 N 0.58415 0.88217 0.40769 0.0
H836 H 0.53544 0.9287 0.32497 0.0
H837 H 0.55375 0.92755 0.37768 0.0
H838 H 0.59833 0.87002 0.42854 0.0
H839 H 0.58515 0.90461 0.41369 0.0
H840 H 0.54864 0.81455 0.23751 0.0
H841 H 0.53401 0.84896 0.22379 0.0
H842 H 0.55051 0.78504 0.29347 0.0
H843 H 0.5726 0.78254 0.34274 0.0
C844 C 0.35923 0.29641 0.61602 0.0
C845 C 0.37081 0.28938 0.57207 0.0
C846 C 0.41373 0.32006 0.58601 0.0
C847 C 0.40473 0.32294 0.63229 0.0
N848 N 0.36461 0.32553 0.68551 0.0
N849 N 0.39786 0.30995 0.50848 0.0
C850 C 0.37601 0.31465 0.64567 0.0
C851 C 0.39462 0.30605 0.55466 0.0
N852 N 0.33208 0.28648 0.6286 0.0
N853 N 0.44073 0.32978 0.57223 0.0
H854 H 0.38184 0.30322 0.4851 0.0
H855 H 0.41386 0.32352 0.49418 0.0
H856 H 0.45471 0.34177 0.59345 0.0
H857 H 0.4497 0.32474 0.54026 0.0
H858 H 0.32407 0.28721 0.66203 0.0
H859 H 0.31704 0.27839 0.60473 0.0
H860 H 0.34337 0.32146 0.69717 0.0
H861 H 0.37573 0.34146 0.7044 0.0
C862 C 0.94673 0.15852 0.80971 0.0
C863 C 0.96407 0.13718 0.83298 0.0
C864 C 0.94698 0.1558 0.9069 0.0
C865 C 0.93319 0.17969 0.88403 0.0
N866 N 0.91951 0.2044 0.81415 0.0
N867 N 0.96591 0.10642 0.90019 0.0
C868 C 0.93253 0.18101 0.83546 0.0
C869 C 0.95989 0.13301 0.88068 0.0
N870 N 0.94198 0.15578 0.7636 0.0
N871 N 0.94868 0.15533 0.95376 0.0
H872 H 0.9712 0.08802 0.8806 0.0
H873 H 0.96119 0.10137 0.93428 0.0
H874 H 0.9389 0.17117 0.97459 0.0
H875 H 0.96164 0.14041 0.97187 0.0
H876 H 0.92802 0.16937 0.74483 0.0
H877 H 0.94887 0.13737 0.74526 0.0
H878 H 0.92124 0.20857 0.77911 0.0
H879 H 0.90843 0.22084 0.83213 0.0
C880 C 0.92646 0.69686 0.59398 0.0
C881 C 0.91351 0.68412 0.63342 0.0
C882 C 0.86552 0.70423 0.61189 0.0
C883 C 0.87947 0.72004 0.57588 0.0
N884 N 0.91738 0.71616 0.5181 0.0
N885 N 0.86988 0.66715 0.67174 0.0
C886 C 0.90825 0.71181 0.56218 0.0
C887 C 0.88262 0.68499 0.63974 0.0
N888 N 0.95615 0.69492 0.58708 0.0
N889 N 0.83592 0.70724 0.61852 0.0
H890 H 0.88201 0.65192 0.69062 0.0
H891 H 0.84733 0.66549 0.67712 0.0
H892 H 0.82234 0.71712 0.59411 0.0
H893 H 0.82472 0.69959 0.64725 0.0
H894 H 0.9671 0.70686 0.56181 0.0
H895 H 0.96998 0.68253 0.60817 0.0
H896 H 0.93771 0.70901 0.50589 0.0
H897 H 0.90289 0.72227 0.49208 0.0
C898 C 0.05295 0.12678 0.30985 0.0
C899 C 0.02878 0.113 0.33188 0.0
C900 C 0.04088 0.13716 0.40388 0.0
C901 C 0.06259 0.15401 0.38059 0.0
N902 N 0.09671 0.15698 0.31721 0.0
N903 N 0.01202 0.09264 0.40368 0.0
C904 C 0.07121 0.1462 0.33538 0.0
C905 C 0.02654 0.11413 0.38023 0.0
N906 N 0.05819 0.12123 0.2645 0.0
N907 N 0.03368 0.1433 0.44842 0.0
H908 H 0.00478 0.07347 0.38787 0.0
H909 H 0.0113 0.09153 0.43938 0.0
H910 H 0.04502 0.1585 0.4684 0.0
H911 H 0.01553 0.13419 0.46493 0.0
H912 H 0.07273 0.13323 0.24431 0.0
H913 H 0.04754 0.10433 0.24699 0.0
H914 H 0.10517 0.15067 0.28555 0.0
H915 H 0.11112 0.17017 0.33568 0.0
C916 C 0.62019 0.28804 0.11114 0.0
C917 C 0.60879 0.25933 0.10595 0.0
C918 C 0.56306 0.27465 0.14206 0.0
C919 C 0.57577 0.30186 0.15439 0.0
N920 N 0.61962 0.33238 0.15664 0.0
N921 N 0.57429 0.22365 0.13341 0.0
C922 C 0.60522 0.30825 0.14037 0.0
C923 C 0.58151 0.25214 0.12597 0.0
N924 N 0.64506 0.29609 0.0881 0.0
N925 N 0.53343 0.27018 0.14559 0.0
H926 H 0.59009 0.20738 0.12952 0.0
H927 H 0.55518 0.2172 0.15046 0.0
H928 H 0.51879 0.28688 0.15459 0.0
H929 H 0.52336 0.25094 0.13427 0.0
H930 H 0.65257 0.31767 0.0868 0.0
H931 H 0.65692 0.28153 0.0676 0.0
H932 H 0.64198 0.33597 0.15115 0.0
H933 H 0.61023 0.34753 0.17891 0.0
C934 C 0.45575 0.84985 0.91288 0.0
C935 C 0.43429 0.83436 0.8873 0.0
C936 C 0.44937 0.86104 0.81834 0.0
C937 C 0.47469 0.87155 0.84205 0.0
N938 N 0.50442 0.87018 0.91166 0.0
N939 N 0.41121 0.82392 0.81472 0.0
C940 C 0.47841 0.86487 0.88947 0.0
C941 C 0.43102 0.83974 0.83974 0.0
N942 N 0.45462 0.85009 0.95978 0.0
N943 N 0.44225 0.87213 0.77618 0.0
H944 H 0.39705 0.80867 0.82962 0.0
H945 H 0.41026 0.82454 0.779 0.0
H946 H 0.45414 0.88895 0.76058 0.0
H947 H 0.42275 0.86703 0.75914 0.0
H948 H 0.46799 0.86355 0.97981 0.0
H949 H 0.43825 0.83934 0.97835 0.0
H950 H 0.50865 0.86285 0.94492 0.0
H951 H 0.5233 0.87793 0.89569 0.0
C952 C 0.91428 0.30437 0.93788 0.0
C953 C 0.8888 0.29321 0.91592 0.0
C954 C 0.90127 0.32108 0.84658 0.0
C955 C 0.92962 0.3267 0.8655 0.0
N956 N 0.964 0.3218 0.92829 0.0
N957 N 0.85149 0.3034 0.85957 0.0
C958 C 0.9363 0.31805 0.91107 0.0
C959 C 0.88023 0.30522 0.87305 0.0
N960 N 0.91639 0.30399 0.98464 0.0
N961 N 0.8951 0.32937 0.80248 0.0
H962 H 0.83514 0.2952 0.88114 0.0
H963 H 0.84308 0.31338 0.83022 0.0
H964 H 0.90946 0.34181 0.78252 0.0
H965 H 0.87651 0.32259 0.78454 0.0
H966 H 0.93363 0.31378 0.00256 0.0
H967 H 0.89876 0.29803 0.00553 0.0
H968 H 0.97084 0.31291 0.95951 0.0
H969 H 0.98085 0.33164 0.90964 0.0
C970 C 0.47465 0.14752 0.57901 0.0
C971 C 0.47057 0.14029 0.62624 0.0
C972 C 0.42582 0.17096 0.62794 0.0
C973 C 0.43015 0.17809 0.58119 0.0
N974 N 0.45282 0.16604 0.50886 0.0
N975 N 0.43683 0.13729 0.69008 0.0
C976 C 0.45265 0.16398 0.55572 0.0
C977 C 0.44441 0.14962 0.64899 0.0
N978 N 0.50009 0.14052 0.55656 0.0
N979 N 0.40475 0.18532 0.6527 0.0
H980 H 0.44899 0.1204 0.70515 0.0
H981 H 0.41686 0.14134 0.70645 0.0
H982 H 0.39044 0.2006 0.63802 0.0
H983 H 0.40281 0.18353 0.68823 0.0
H984 H 0.50574 0.14936 0.52477 0.0
H985 H 0.51667 0.12751 0.57009 0.0
H986 H 0.46645 0.15339 0.488 0.0
H987 H 0.43728 0.17817 0.49052 0.0
C988 C 0.56581 0.71509 0.42389 0.0
C989 C 0.59664 0.71995 0.42166 0.0
C990 C 0.6016 0.67442 0.37726 0.0
C991 C 0.57085 0.66946 0.38182 0.0
N992 N 0.52701 0.6791 0.42566 0.0
N993 N 0.64442 0.69727 0.41122 0.0
C994 C 0.55443 0.68742 0.41186 0.0
C995 C 0.61482 0.69739 0.40317 0.0
N996 N 0.54684 0.73767 0.43103 0.0
N997 N 0.61802 0.65874 0.34666 0.0
H998 H 0.65457 0.71228 0.43302 0.0
H999 H 0.65807 0.68006 0.40109 0.0
H1000 H 0.60967 0.64157 0.32714 0.0
H1001 H 0.63968 0.66423 0.33861 0.0
H1002 H 0.52402 0.73529 0.43076 0.0
H1003 H 0.55386 0.75907 0.42764 0.0
H1004 H 0.51485 0.69088 0.4498 0.0
H1005 H 0.51812 0.65892 0.41634 0.0
C1006 C 0.06183 0.81269 0.16002 0.0
C1007 C 0.07347 0.82691 0.12137 0.0
C1008 C 0.04543 0.87068 0.14205 0.0
C1009 C 0.02691 0.85318 0.17055 0.0
N1010 N 0.01705 0.8043 0.20001 0.0
N1011 N 0.07833 0.87099 0.0765 0.0
C1012 C 0.03549 0.82352 0.17923 0.0
C1013 C 0.0663 0.85661 0.11299 0.0
N1014 N 0.07466 0.78754 0.17568 0.0
N1015 N 0.04373 0.90057 0.14361 0.0
H1016 H 0.0948 0.86171 0.05628 0.0
H1017 H 0.07108 0.89154 0.06553 0.0
H1018 H 0.03053 0.9116 0.16728 0.0
H1019 H 0.05809 0.9142 0.12568 0.0
H1020 H 0.06813 0.77707 0.20584 0.0
H1021 H 0.09391 0.77938 0.16089 0.0
H1022 H 0.02176 0.78208 0.20433 0.0
H1023 H 0.99526 0.80925 0.20447 0.0
C1024 C 0.57438 0.77354 0.89467 0.0
C1025 C 0.60467 0.7759 0.90437 0.0
C1026 C 0.60542 0.82278 0.86246 0.0
C1027 C 0.57416 0.82155 0.85818 0.0
N1028 N 0.5288 0.79939 0.88451 0.0
N1029 N 0.64875 0.80523 0.90337 0.0
C1030 C 0.55867 0.79833 0.87967 0.0
C1031 C 0.62017 0.80138 0.89024 0.0
N1032 N 0.5612 0.74682 0.89447 0.0
N1033 N 0.62122 0.84298 0.83823 0.0
H1034 H 0.66021 0.78971 0.92275 0.0
H1035 H 0.66023 0.8247 0.89794 0.0
H1036 H 0.61156 0.8588 0.81729 0.0
H1037 H 0.64411 0.8426 0.83623 0.0
H1038 H 0.53932 0.74359 0.88485 0.0
H1039 H 0.57391 0.72793 0.89531 0.0
H1040 H 0.5171 0.78362 0.90294 0.0
H1041 H 0.51631 0.81741 0.87423 0.0
C1042 C 0.46151 0.32714 0.206 0.0
C1043 C 0.46906 0.35605 0.19264 0.0
C1044 C 0.43448 0.35321 0.12828 0.0
C1045 C 0.43261 0.32239 0.1353 0.0
N1046 N 0.44209 0.27994 0.18236 0.0
N1047 N 0.45163 0.40024 0.15709 0.0
C1048 C 0.44511 0.30939 0.17508 0.0
C1049 C 0.45193 0.37029 0.15869 0.0
N1050 N 0.46799 0.31753 0.24918 0.0
N1051 N 0.42152 0.36577 0.0907 0.0
H1052 H 0.46285 0.41292 0.18125 0.0
H1053 H 0.43794 0.41245 0.13571 0.0
H1054 H 0.40772 0.35434 0.0685 0.0
H1055 H 0.42536 0.38724 0.0802 0.0
H1056 H 0.4617 0.29712 0.26182 0.0
H1057 H 0.47545 0.33178 0.27458 0.0
H1058 H 0.45376 0.26845 0.2074 0.0
H1059 H 0.42873 0.26676 0.16177 0.0
C1060 C 0.89273 0.21304 0.35811 0.0
C1061 C 0.89832 0.21669 0.40602 0.0
C1062 C 0.93458 0.17674 0.4024 0.0
C1063 C 0.92784 0.17271 0.35554 0.0
N1064 N 0.89191 0.17838 0.29543 0.0
N1065 N 0.91588 0.1931 0.4756 0.0
C1066 C 0.90385 0.18781 0.33577 0.0
C1067 C 0.91665 0.19584 0.42891 0.0
N1068 N 0.87921 0.23427 0.33246 0.0
N1069 N 0.95796 0.16245 0.42159 0.0
H1070 H 0.90068 0.20422 0.49597 0.0
H1071 H 0.92746 0.17687 0.49327 0.0
H1072 H 0.97045 0.14711 0.40347 0.0
H1073 H 0.96572 0.1671 0.45447 0.0
H1074 H 0.87737 0.23286 0.29684 0.0
H1075 H 0.87351 0.25489 0.3446 0.0
H1076 H 0.87276 0.18744 0.28159 0.0
H1077 H 0.89927 0.15953 0.27871 0.0
C1078 C 0.0644 0.68463 0.64 0.0
C1079 C 0.07938 0.66565 0.60982 0.0
C1080 C 0.05123 0.62436 0.64025 0.0
C1081 C 0.03121 0.64443 0.66103 0.0
N1082 N 0.01817 0.69508 0.67594 0.0
N1083 N 0.08892 0.61702 0.58228 0.0
C1084 C 0.03799 0.67493 0.66074 0.0
C1085 C 0.07355 0.63526 0.61059 0.0
N1086 N 0.0748 0.71234 0.64731 0.0
N1087 N 0.04946 0.59508 0.64994 0.0
H1088 H 0.10681 0.62443 0.56312 0.0
H1089 H 0.08333 0.59514 0.57689 0.0
H1090 H 0.03465 0.58661 0.67386 0.0
H1091 H 0.06478 0.57977 0.63836 0.0
H1092 H 0.06605 0.72645 0.67193 0.0
H1093 H 0.09417 0.71991 0.63224 0.0
H1094 H 0.0207 0.71763 0.67169 0.0
H1095 H 0.99767 0.68919 0.6877 0.0
C1096 C 0.61353 0.20277 0.5651 0.0
C1097 C 0.62341 0.2273 0.59097 0.0
C1098 C 0.5964 0.20893 0.65771 0.0
C1099 C 0.58182 0.18846 0.6291 0.0
N1100 N 0.57655 0.16496 0.55568 0.0
N1101 N 0.62062 0.25559 0.66189 0.0
C1102 C 0.59058 0.18488 0.58286 0.0
C1103 C 0.61461 0.23054 0.63769 0.0
N1104 N 0.62688 0.1959 0.52446 0.0
N1105 N 0.59251 0.20798 0.70423 0.0
H1106 H 0.63069 0.27406 0.6483 0.0
H1107 H 0.61174 0.25996 0.69413 0.0
H1108 H 0.57849 0.19309 0.72022 0.0
H1109 H 0.60538 0.2199 0.72719 0.0
H1110 H 0.62234 0.1769 0.50599 0.0
H1111 H 0.64485 0.20754 0.51168 0.0
H1112 H 0.57926 0.1639 0.52022 0.0
H1113 H 0.56103 0.15039 0.56862 0.0
C1114 C 0.0647 0.3704 0.83335 0.0
C1115 C 0.03789 0.37831 0.85499 0.0
C1116 C 0.05369 0.35274 0.92465 0.0
C1117 C 0.07636 0.33892 0.89889 0.0
N1118 N 0.10709 0.33812 0.83142 0.0
N1119 N 0.00866 0.38108 0.92451 0.0
C1120 C 0.08337 0.34921 0.85431 0.0
C1121 C 0.03323 0.37139 0.90202 0.0
N1122 N 0.07244 0.38388 0.7932 0.0
N1123 N 0.05208 0.34816 0.97101 0.0
H1124 H 0.99388 0.39621 0.91118 0.0
H1125 H 0.00206 0.37333 0.95649 0.0
H1126 H 0.0666 0.33442 0.98853 0.0
H1127 H 0.0384 0.35994 0.99294 0.0
H1128 H 0.09269 0.38107 0.77711 0.0
H1129 H 0.05955 0.40034 0.77836 0.0
H1130 H 0.11082 0.34129 0.79652 0.0
H1131 H 0.12308 0.32533 0.84735 0.0
C1132 C 0.86944 0.79243 0.10014 0.0
C1133 C 0.88596 0.77402 0.07041 0.0
C1134 C 0.93177 0.79541 0.09764 0.0
C1135 C 0.91567 0.81061 0.13181 0.0
N1136 N 0.86971 0.83224 0.15553 0.0
N1137 N 0.92938 0.77265 0.02288 0.0
C1138 C 0.88455 0.81203 0.12977 0.0
C1139 C 0.91618 0.77989 0.06336 0.0
N1140 N 0.83943 0.79128 0.0994 0.0
N1141 N 0.96184 0.79571 0.09797 0.0
H1142 H 0.91734 0.76554 0.99455 0.0
H1143 H 0.95108 0.77807 0.01506 0.0
H1144 H 0.97405 0.80856 0.12065 0.0
H1145 H 0.97455 0.78213 0.07709 0.0
H1146 H 0.82588 0.80079 0.12404 0.0
H1147 H 0.82803 0.78087 0.07301 0.0
H1148 H 0.8471 0.83566 0.15394 0.0
H1149 H 0.88043 0.84761 0.17594 0.0
C1150 C 0.4603 0.62646 0.43374 0.0
C1151 C 0.44001 0.64517 0.4114 0.0
C1152 C 0.45194 0.62155 0.33846 0.0
C1153 C 0.47752 0.60911 0.35872 0.0
N1154 N 0.50591 0.60001 0.42874 0.0
N1155 N 0.41595 0.66062 0.34141 0.0
C1156 C 0.48133 0.61078 0.40739 0.0
C1157 C 0.43513 0.64236 0.36355 0.0
N1158 N 0.45976 0.62418 0.48051 0.0
N1159 N 0.44361 0.6132 0.29535 0.0
H1160 H 0.40274 0.67583 0.35836 0.0
H1161 H 0.41448 0.66189 0.30576 0.0
H1162 H 0.4548 0.59698 0.27705 0.0
H1163 H 0.42387 0.61976 0.28023 0.0
H1164 H 0.47176 0.60853 0.49873 0.0
H1165 H 0.44494 0.63602 0.50058 0.0
H1166 H 0.51134 0.60519 0.46253 0.0
H1167 H 0.52222 0.58759 0.41333 0.0
C1168 C 0.44559 0.18479 0.07553 0.0
C1169 C 0.43374 0.17271 0.1165 0.0
C1170 C 0.38581 0.19431 0.09851 0.0
C1171 C 0.39933 0.21139 0.06401 0.0
N1172 N 0.43578 0.21026 0.00396 0.0
N1173 N 0.39245 0.16704 0.16859 0.0
C1174 C 0.42749 0.20299 0.04757 0.0
C1175 C 0.40362 0.17712 0.12795 0.0
N1176 N 0.4743 0.17946 0.06415 0.0
N1177 N 0.35583 0.19322 0.1013 0.0
H1178 H 0.40447 0.15471 0.19214 0.0
H1179 H 0.37178 0.17308 0.18088 0.0
H1180 H 0.34232 0.20319 0.07684 0.0
H1181 H 0.3446 0.17918 0.12341 0.0
H1182 H 0.48544 0.19053 0.03819 0.0
H1183 H 0.48752 0.1647 0.08219 0.0
H1184 H 0.45535 0.20342 0.98883 0.0
H1185 H 0.42115 0.21949 0.98045 0.0
C1186 C 0.55268 0.62923 0.85526 0.0
C1187 C 0.52689 0.61805 0.87612 0.0
C1188 C 0.54178 0.64092 0.94854 0.0
C1189 C 0.56257 0.65808 0.92408 0.0
N1190 N 0.58745 0.66903 0.85244 0.0
N1191 N 0.49814 0.6109 0.94555 0.0
C1192 C 0.56846 0.652 0.87718 0.0
C1193 C 0.52205 0.6226 0.92388 0.0
N1194 N 0.56205 0.61784 0.81443 0.0
N1195 N 0.54123 0.64187 0.99546 0.0
H1196 H 0.48417 0.5955 0.93107 0.0
H1197 H 0.4914 0.61731 0.97821 0.0
H1198 H 0.55536 0.65511 0.01455 0.0
H1199 H 0.52895 0.62752 0.01559 0.0
H1200 H 0.5821 0.62336 0.7994 0.0
H1201 H 0.55132 0.60032 0.79857 0.0
H1202 H 0.58954 0.66748 0.8169 0.0
H1203 H 0.59947 0.68629 0.86629 0.0
C1204 C 0.10573 0.82148 0.62499 0.0
C1205 C 0.07476 0.82264 0.61823 0.0
C1206 C 0.07761 0.77994 0.56842 0.0
C1207 C 0.10878 0.77893 0.57323 0.0
N1208 N 0.15263 0.80592 0.59365 0.0
N1209 N 0.03359 0.80952 0.57054 0.0
C1210 C 0.12294 0.80205 0.5975 0.0
C1211 C 0.06179 0.80448 0.58464 0.0
N1212 N 0.11866 0.83735 0.6592 0.0
N1213 N 0.06241 0.75601 0.55428 0.0
H1214 H 0.0211 0.82682 0.58336 0.0
H1215 H 0.02394 0.79829 0.54323 0.0
H1216 H 0.07261 0.73594 0.55245 0.0
H1217 H 0.0395 0.75487 0.55335 0.0
H1218 H 0.14058 0.83447 0.6688 0.0
H1219 H 0.10712 0.85185 0.68014 0.0
H1220 H 0.16358 0.82383 0.60782 0.0
H1221 H 0.16564 0.79329 0.57176 0.0
C1222 C 0.94399 0.35627 0.38643 0.0
C1223 C 0.9354 0.32857 0.36869 0.0
C1224 C 0.94951 0.34433 0.29141 0.0
C1225 C 0.96272 0.36956 0.31089 0.0
N1226 N 0.95762 0.40643 0.36917 0.0
N1227 N 0.92944 0.29573 0.30462 0.0
C1228 C 0.95519 0.37779 0.35609 0.0
C1229 C 0.93753 0.32259 0.32104 0.0
N1230 N 0.94367 0.36122 0.43267 0.0
N1231 N 0.94674 0.3422 0.24488 0.0
H1232 H 0.92017 0.27962 0.32549 0.0
H1233 H 0.93355 0.28877 0.2712 0.0
H1234 H 0.95219 0.35955 0.22313 0.0
H1235 H 0.93561 0.32526 0.22842 0.0
H1236 H 0.95278 0.37977 0.44791 0.0
H1237 H 0.93667 0.34552 0.45622 0.0
H1238 H 0.95029 0.41431 0.40072 0.0
H1239 H 0.96333 0.42289 0.34588 0.0
C1240 C 0.45142 0.7863 0.36608 0.0
C1241 C 0.43517 0.81 0.34754 0.0
C1242 C 0.39105 0.79137 0.38661 0.0
C1243 C 0.40648 0.76523 0.39749 0.0
N1244 N 0.44871 0.73489 0.38263 0.0
N1245 N 0.38745 0.83293 0.33539 0.0
C1246 C 0.43608 0.76192 0.38358 0.0
C1247 C 0.40439 0.81224 0.35675 0.0
N1248 N 0.48149 0.78687 0.3666 0.0
N1249 N 0.36392 0.79653 0.40513 0.0
H1250 H 0.39574 0.84867 0.31308 0.0
H1251 H 0.36454 0.83297 0.337 0.0
H1252 H 0.35344 0.78164 0.42682 0.0
H1253 H 0.35306 0.81659 0.40214 0.0
H1254 H 0.49405 0.77061 0.38249 0.0
H1255 H 0.49351 0.80514 0.35592 0.0
H1256 H 0.46991 0.73103 0.37028 0.0
H1257 H 0.43586 0.71627 0.38628 0.0
C1258 C 0.94874 0.62136 0.16016 0.0
C1259 C 0.96591 0.63772 0.19164 0.0
C1260 C 0.93753 0.6819 0.17318 0.0
C1261 C 0.9248 0.66692 0.13535 0.0
N1262 N 0.91623 0.62179 0.09417 0.0
N1263 N 0.96427 0.6781 0.24501 0.0
C1264 C 0.92908 0.63624 0.13005 0.0
C1265 C 0.95663 0.66645 0.20357 0.0
N1266 N 0.95039 0.59143 0.16081 0.0
N1267 N 0.93215 0.71118 0.17886 0.0
H1268 H 0.97392 0.66553 0.27078 0.0
H1269 H 0.95699 0.69843 0.25664 0.0
H1270 H 0.91676 0.72256 0.15899 0.0
H1271 H 0.94373 0.72439 0.20175 0.0
H1272 H 0.93681 0.57781 0.14153 0.0
H1273 H 0.96309 0.58018 0.18499 0.0
H1274 H 0.92175 0.60051 0.08453 0.0
H1275 H 0.90082 0.63154 0.07248 0.0
C1276 C 0.10216 0.19825 0.91171 0.0
C1277 C 0.1113 0.22531 0.892 0.0
C1278 C 0.08322 0.21371 0.82248 0.0
C1279 C 0.07062 0.18912 0.84495 0.0
N1280 N 0.06534 0.15976 0.91327 0.0
N1281 N 0.10571 0.26106 0.8309 0.0
C1282 C 0.07943 0.18173 0.89018 0.0
C1283 C 0.10073 0.23359 0.84787 0.0
N1284 N 0.11589 0.18782 0.95018 0.0
N1285 N 0.07917 0.21783 0.77637 0.0
H1286 H 0.11809 0.27672 0.84786 0.0
H1287 H 0.09513 0.26931 0.80187 0.0
H1288 H 0.06665 0.20385 0.75592 0.0
H1289 H 0.09075 0.2334 0.75743 0.0
H1290 H 0.11209 0.16699 0.96359 0.0
H1291 H 0.13337 0.19872 0.96591 0.0
H1292 H 0.06864 0.1555 0.94803 0.0
H1293 H 0.04843 0.1474 0.89872 0.0
C1294 C 0.57529 0.35682 0.61372 0.0
C1295 C 0.57534 0.32581 0.60819 0.0
C1296 C 0.52695 0.32307 0.64427 0.0
C1297 C 0.5272 0.35365 0.65247 0.0
N1298 N 0.55479 0.39881 0.65401 0.0
N1299 N 0.55473 0.27911 0.63082 0.0
C1300 C 0.55239 0.37034 0.63996 0.0
C1301 C 0.55252 0.30894 0.62831 0.0
N1302 N 0.59604 0.37353 0.59223 0.0
N1303 N 0.50134 0.30777 0.64712 0.0
H1304 H 0.57232 0.26755 0.61706 0.0
H1305 H 0.54029 0.2662 0.64993 0.0
H1306 H 0.4816 0.31838 0.6525 0.0
H1307 H 0.4991 0.28592 0.63721 0.0
H1308 H 0.59487 0.39631 0.59025 0.0
H1309 H 0.61357 0.36458 0.57399 0.0
H1310 H 0.57386 0.41118 0.64983 0.0
H1311 H 0.53868 0.40924 0.67362 0.0
C1312 C 0.0605 0.48135 0.20377 0.0
C1313 C 0.05836 0.47025 0.24914 0.0
C1314 C 0.0628 0.52016 0.27906 0.0
C1315 C 0.05857 0.53134 0.23406 0.0
N1316 N 0.05156 0.52245 0.15301 0.0
N1317 N 0.05557 0.4793 0.33079 0.0
C1318 C 0.05745 0.51197 0.19603 0.0
C1319 C 0.05953 0.48962 0.28717 0.0
N1320 N 0.06563 0.46252 0.16818 0.0
N1321 N 0.07031 0.53877 0.31391 0.0
H1322 H 0.05298 0.45714 0.33851 0.0
H1323 H 0.05265 0.49296 0.35907 0.0
H1324 H 0.07371 0.56115 0.30866 0.0
H1325 H 0.07626 0.53158 0.34659 0.0
H1326 H 0.06998 0.4695 0.13481 0.0
H1327 H 0.06867 0.44005 0.17317 0.0
H1328 H 0.0471 0.5089 0.12509 0.0
H1329 H 0.04882 0.54466 0.14573 0.0
C1330 C 0.7522 0.77219 0.52515 0.0
C1331 C 0.76789 0.79897 0.52231 0.0
C1332 C 0.72188 0.82403 0.50255 0.0
C1333 C 0.70794 0.79638 0.49637 0.0
N1334 N 0.71311 0.74354 0.49224 0.0
N1335 N 0.76808 0.85036 0.50152 0.0
C1336 C 0.72391 0.77023 0.50526 0.0
C1337 C 0.75288 0.82504 0.50943 0.0
N1338 N 0.76413 0.74867 0.54755 0.0
N1339 N 0.70559 0.84922 0.50374 0.0
H1340 H 0.79082 0.85203 0.50516 0.0
H1341 H 0.75832 0.86899 0.48736 0.0
H1342 H 0.68268 0.84937 0.5017 0.0
H1343 H 0.71456 0.86955 0.51215 0.0
H1344 H 0.75246 0.72938 0.55363 0.0
H1345 H 0.78421 0.74985 0.56482 0.0
H1346 H 0.72538 0.72426 0.49466 0.0
H1347 H 0.69359 0.74103 0.47388 0.0
C1348 C 0.44136 0.47286 0.77941 0.0
C1349 C 0.45277 0.46454 0.73614 0.0
C1350 C 0.45822 0.51605 0.7146 0.0
C1351 C 0.45063 0.52436 0.76017 0.0
N1352 N 0.44035 0.50984 0.83862 0.0
N1353 N 0.47454 0.47738 0.6635 0.0
C1354 C 0.4433 0.50261 0.79329 0.0
C1355 C 0.46173 0.4859 0.70384 0.0
N1356 N 0.42834 0.4524 0.80702 0.0
N1357 N 0.4615 0.53692 0.68131 0.0
H1358 H 0.47688 0.45545 0.65395 0.0
H1359 H 0.48481 0.49187 0.641 0.0
H1360 H 0.45972 0.55928 0.68778 0.0
H1361 H 0.46357 0.53208 0.64653 0.0
H1362 H 0.41692 0.45774 0.83687 0.0
H1363 H 0.42648 0.4304 0.79777 0.0
H1364 H 0.4383 0.49427 0.86461 0.0
H1365 H 0.4429 0.53104 0.85122 0.0
C1366 C 0.76089 0.23445 0.98074 0.0
C1367 C 0.77886 0.20916 0.9758 0.0
C1368 C 0.7342 0.17894 0.97967 0.0
C1369 C 0.71747 0.20383 0.99339 0.0
N1370 N 0.7191 0.25409 0.02081 0.0
N1371 N 0.78226 0.15619 0.98122 0.0
C1372 C 0.73193 0.23132 -0.00217 0.0
C1373 C 0.76548 0.18098 0.97811 0.0
N1374 N 0.77082 0.26147 0.96769 0.0
N1375 N 0.72047 0.15369 0.96649 0.0
H1376 H 0.80513 0.15653 0.98358 0.0
H1377 H 0.7732 0.13551 0.98697 0.0
H1378 H 0.69767 0.15184 0.96401 0.0
H1379 H 0.73186 0.13589 0.95269 0.0
H1380 H 0.75736 0.28002 0.96793 0.0
H1381 H 0.79085 0.26461 0.95096 0.0
H1382 H 0.73014 0.27369 0.02733 0.0
H1383 H 0.69944 0.25207 0.03888 0.0
C1384 C 0.96488 0.48334 0.70086 0.0
C1385 C 0.95805 0.47321 0.74593 0.0
C1386 C 0.94352 0.52314 0.76768 0.0
C1387 C 0.95387 0.53357 0.72493 0.0
N1388 N 0.97698 0.52468 0.65193 0.0
N1389 N 0.94721 0.48523 0.82521 0.0
C1390 C 0.96506 0.51395 0.69164 0.0
C1391 C 0.94874 0.4935 0.78012 0.0
N1392 N 0.97064 0.46378 0.66651 0.0
N1393 N 0.92861 0.54161 0.79641 0.0
H1394 H 0.95295 0.46442 0.83696 0.0
H1395 H 0.94351 0.5 0.85187 0.0
H1396 H 0.92434 0.56347 0.78813 0.0
H1397 H 0.91797 0.53452 0.82609 0.0
H1398 H 0.97203 0.46965 0.63203 0.0
H1399 H 0.9719 0.44129 0.67175 0.0
H1400 H 0.98897 0.51191 0.62894 0.0
H1401 H 0.9766 0.5469 0.6433 0.0
C1402 C 0.256 0.23265 0.49107 0.0
C1403 C 0.27322 0.20665 0.49013 0.0
C1404 C 0.22774 0.17854 0.4795 0.0
C1405 C 0.21189 0.20506 0.47144 0.0
N1406 N 0.21537 0.25711 0.45479 0.0
N1407 N 0.27517 0.15462 0.47362 0.0
C1408 C 0.22727 0.23209 0.47282 0.0
C1409 C 0.25909 0.17941 0.48157 0.0
N1410 N 0.26633 0.25771 0.51104 0.0
N1411 N 0.21324 0.15283 0.48739 0.0
H1412 H 0.29807 0.15445 0.47238 0.0
H1413 H 0.26557 0.13495 0.46326 0.0
H1414 H 0.19042 0.15143 0.48996 0.0
H1415 H 0.22409 0.13362 0.49705 0.0
H1416 H 0.25333 0.27645 0.51472 0.0
H1417 H 0.286 0.25847 0.52946 0.0
H1418 H 0.22714 0.27672 0.45286 0.0
H1419 H 0.19579 0.25736 0.43613 0.0
C1420 C 0.57489 0.50047 0.28519 0.0
C1421 C 0.56711 0.52152 0.25108 0.0
C1422 C 0.55843 0.48185 0.19565 0.0
C1423 C 0.56624 0.46125 0.22982 0.0
N1424 N 0.59121 0.45082 0.3007 0.0
N1425 N 0.55904 0.53242 0.17079 0.0
C1426 C 0.57775 0.47062 0.27238 0.0
C1427 C 0.56147 0.51222 0.20522 0.0
N1428 N 0.57687 0.50814 0.33047 0.0
N1429 N 0.54652 0.4725 0.15512 0.0
H1430 H 0.56064 0.55485 0.17655 0.0
H1431 H 0.55805 0.5269 0.13614 0.0
H1432 H 0.54474 0.45038 0.14647 0.0
H1433 H 0.53682 0.48654 0.13127 0.0
H1434 H 0.57912 0.4928 0.35678 0.0
H1435 H 0.57333 0.52923 0.34282 0.0
H1436 H 0.60242 0.45679 0.33047 0.0
H1437 H 0.59392 0.42885 0.29158 0.0
C1438 C 0.22948 0.82402 0.97846 0.0
C1439 C 0.21626 0.79662 0.98942 0.0
C1440 C 0.26141 0.77185 0.9667 0.0
C1441 C 0.27646 0.799 0.96544 0.0
N1442 N 0.27493 0.85157 0.97747 0.0
N1443 N 0.2241 0.74508 0.00691 0.0
C1444 C 0.26059 0.82543 0.97308 0.0
C1445 C 0.23339 0.77061 0.98708 0.0
N1446 N 0.21254 0.84838 0.97148 0.0
N1447 N 0.27359 0.74721 0.94792 0.0
H1448 H 0.20536 0.74366 0.02739 0.0
H1449 H 0.2373 0.72636 0.00833 0.0
H1450 H 0.29331 0.74761 0.92959 0.0
H1451 H 0.26219 0.72742 0.94561 0.0
H1452 H 0.2212 0.86816 0.95968 0.0
H1453 H 0.18961 0.84794 0.97216 0.0
H1454 H 0.26428 0.87079 0.98751 0.0
H1455 H 0.29771 0.85361 0.9755 0.0
C1456 C 0.56389 0.98574 0.71203 0.0
C1457 C 0.55799 0.97886 0.75852 0.0
C1458 C 0.55284 0.03107 0.77603 0.0
C1459 C 0.55318 0.03732 0.72824 0.0
N1460 N 0.5575 0.02049 0.64991 0.0
N1461 N 0.54633 0.99434 0.83543 0.0
C1462 C 0.55881 0.01472 0.69594 0.0
C1463 C 0.55277 0.00138 0.79094 0.0
N1464 N 0.57454 0.96446 0.68348 0.0
N1465 N 0.55326 0.05354 0.80708 0.0
H1466 H 0.54705 0.97288 0.84782 0.0
H1467 H 0.5387 0.00949 0.85936 0.0
H1468 H 0.55397 0.07553 0.79729 0.0
H1469 H 0.55582 0.05043 0.84227 0.0
H1470 H 0.58176 0.96854 0.65015 0.0
H1471 H 0.57898 0.94321 0.6949 0.0
H1472 H 0.55811 0.00422 0.62485 0.0
H1473 H 0.5535 0.04134 0.63657 0.0
C1474 C 0.27485 0.26379 0.99572 0.0
C1475 C 0.28929 0.29069 0.00543 0.0
C1476 C 0.24205 0.31628 -0.00229 0.0
C1477 C 0.22885 0.29002 0.98133 0.0
N1478 N 0.23612 0.24085 0.9522 0.0
N1479 N 0.28735 0.34372 0.00484 0.0
C1480 C 0.24626 0.26437 0.97653 0.0
C1481 C 0.27315 0.31736 0.00334 0.0
N1482 N 0.28762 0.23757 0.00685 0.0
N1483 N 0.22508 0.33972 0.01015 0.0
H1484 H 0.31018 0.34558 0.00662 0.0
H1485 H 0.27663 0.36363 -0.00083 0.0
H1486 H 0.20216 0.33944 0.00932 0.0
H1487 H 0.23372 0.35822 0.02623 0.0
H1488 H 0.27661 0.21762 0.00368 0.0
H1489 H 0.30747 0.23594 0.02463 0.0
H1490 H 0.24924 0.22267 0.94481 0.0
H1491 H 0.21611 0.24101 0.93463 0.0
C1492 C 0.935 0.00426 0.27578 0.0
C1493 C 0.93709 0.02423 0.23849 0.0
C1494 C 0.94166 0.98335 0.1845 0.0
C1495 C 0.93929 0.96349 0.22179 0.0
N1496 N 0.92373 0.95469 0.29961 0.0
N1497 N 0.9336 0.033 0.15724 0.0
C1498 C 0.93274 0.97386 0.26643 0.0
C1499 C 0.93754 0.01378 0.1927 0.0
N1500 N 0.93715 0.01388 0.3201 0.0
N1501 N 0.94936 0.97343 0.1419 0.0
H1502 H 0.92946 0.05522 0.16277 0.0
H1503 H 0.93123 0.0265 0.12317 0.0
H1504 H 0.9527 0.95131 0.13452 0.0
H1505 H 0.95459 0.98733 0.11471 0.0
H1506 H 0.93931 -0.00027 0.348 0.0
H1507 H 0.93924 0.03588 0.32906 0.0
H1508 H 0.9161 0.96134 0.33168 0.0
H1509 H 0.9207 0.93242 0.29308 0.0
C1510 C 0.2785 0.68141 0.51463 0.0
C1511 C 0.29323 0.70695 0.49874 0.0
C1512 C 0.24769 0.73487 0.51017 0.0
C1513 C 0.23182 0.7085 0.51786 0.0
N1514 N 0.23234 0.65532 0.5151 0.0
N1515 N 0.28832 0.75647 0.4693 0.0
C1516 C 0.24723 0.68131 0.51673 0.0
C1517 C 0.27688 0.73332 0.49308 0.0
N1518 N 0.29408 0.6576 0.52957 0.0
N1519 N 0.23554 0.76145 0.52069 0.0
H1520 H 0.30844 0.75552 0.45226 0.0
H1521 H 0.27604 0.77516 0.46147 0.0
H1522 H 0.21518 0.76363 0.5368 0.0
H1523 H 0.2474 0.78098 0.51882 0.0
H1524 H 0.28406 0.63953 0.54493 0.0
H1525 H 0.31697 0.65739 0.53202 0.0
H1526 H 0.24295 0.63525 0.51036 0.0
H1527 H 0.20952 0.65395 0.51263 0.0
C1528 C 0.43969 0.01875 0.29305 0.0
C1529 C 0.43633 0.02865 0.24695 0.0
C1530 C 0.42303 0.97882 0.22376 0.0
C1531 C 0.43251 0.96848 0.2669 0.0
N1532 N 0.45003 0.97776 0.34354 0.0
N1533 N 0.42873 0.01641 0.1665 0.0
C1534 C 0.44023 0.98821 0.30225 0.0
C1535 C 0.42833 0.00843 0.21178 0.0
N1536 N 0.44251 0.03846 0.32802 0.0
N1537 N 0.40976 0.95994 0.19382 0.0
H1538 H 0.43485 0.03705 0.15473 0.0
H1539 H 0.42611 0.00146 0.13978 0.0
H1540 H 0.40584 0.93801 0.2022 0.0
H1541 H 0.39997 0.96671 0.16323 0.0
H1542 H 0.44166 0.03267 0.36259 0.0
H1543 H 0.44333 0.06094 0.32263 0.0
H1544 H 0.45987 0.99088 0.36843 0.0
H1545 H 0.44978 0.95555 0.35206 0.0
C1546 C 0.7647 0.7254 0.00096 0.0
C1547 C 0.77755 0.69759 0.01071 0.0
C1548 C 0.72814 0.67603 0.00945 0.0
C1549 C 0.71642 0.7029 0.99239 0.0
N1550 N 0.72661 0.75034 0.9587 0.0
N1551 N 0.77128 0.64493 0.01384 0.0
C1552 C 0.7356 0.72674 0.98406 0.0
C1553 C 0.75925 0.67237 0.012 0.0
N1554 N 0.7794 0.75081 0.01023 0.0
N1555 N 0.7099 0.65452 0.02538 0.0
H1556 H 0.79389 0.64115 0.01329 0.0
H1557 H 0.75872 0.62592 0.0107 0.0
H1558 H 0.68712 0.65687 0.0271 0.0
H1559 H 0.7177 0.63573 0.04181 0.0
H1560 H 0.76967 0.77143 0.00679 0.0
H1561 H 0.79952 0.75126 0.02725 0.0
H1562 H 0.74095 0.76708 0.94899 0.0
H1563 H 0.70615 0.75139 0.94256 0.0
C1564 C 0.05808 0.02147 0.71596 0.0
C1565 C 0.05066 0.03144 0.76043 0.0
C1566 C 0.04575 0.98064 0.78678 0.0
C1567 C 0.0493 0.97069 0.74072 0.0
N1568 N 0.05332 0.98276 0.65992 0.0
N1569 N 0.0354 0.02134 0.83794 0.0
C1570 C 0.05442 0.99134 0.70488 0.0
C1571 C 0.0443 0.01125 0.79596 0.0
N1572 N 0.06861 0.04092 0.68426 0.0
N1573 N 0.04413 0.96089 0.82195 0.0
H1574 H 0.03508 0.04356 0.84646 0.0
H1575 H 0.02662 0.00794 0.86342 0.0
H1576 H 0.04359 0.93837 0.81683 0.0
H1577 H 0.0454 0.9667 0.85646 0.0
H1578 H 0.07723 0.03458 0.65265 0.0
H1579 H 0.07145 0.06316 0.69148 0.0
H1580 H 0.05374 0.99746 0.63254 0.0
H1581 H 0.04875 0.9614 0.64955 0.0
C1582 C 0.75507 0.32639 0.52301 0.0
C1583 C 0.73849 0.30082 0.53286 0.0
C1584 C 0.78113 0.27021 0.51608 0.0
C1585 C 0.79868 0.29561 0.50968 0.0
N1586 N 0.80375 0.34792 0.52153 0.0
N1587 N 0.73971 0.25006 0.55674 0.0
C1588 C 0.78613 0.32381 0.5176 0.0
C1589 C 0.75292 0.27331 0.53555 0.0
N1590 N 0.74138 0.35275 0.51666 0.0
N1591 N 0.79004 0.24335 0.50048 0.0
H1592 H 0.71956 0.25196 0.57363 0.0
H1593 H 0.7505 0.23016 0.56227 0.0
H1594 H 0.80891 0.24013 0.48087 0.0
H1595 H 0.77648 0.22493 0.50163 0.0
H1596 H 0.75237 0.37128 0.50463 0.0
H1597 H 0.71872 0.35556 0.51978 0.0
H1598 H 0.79572 0.36848 0.53097 0.0
H1599 H 0.82666 0.34669 0.52081 0.0
loop_
_geom_bond_atom_site_label_1
_geom_bond_atom_site_label_2
_geom_bond_distance
_geom_bond_site_symmetry_2
_ccdc_geom_bond_type
Co0 O1 2.216 . S
Co0 O2 2.091 . S
Co0 O4 2.004 . S
Co0 O10 2.021 . S
Co0 O12 2.137 . S
Co0 O13 2.244 . S
O1 Co0 2.216 . S
O1 C8 1.247 . S
O2 Co0 2.091 . S
O2 C8 1.261 . S
C3 O12 1.247 . S
C3 O13 1.272 . S
O4 Co0 2.004 . S
O4 C9 1.259 . S
Co5 O6 2.061 . S
Co5 O11 2.052 . S
Co5 O13 2.135 . S
O6 Co5 2.061 . S
O6 C9 1.235 . S
C7 O10 1.238 . S
C7 O11 1.241 . S
C8 O1 1.247 . S
C8 O2 1.261 . S
C9 O4 1.259 . S
C9 O6 1.235 . S
O10 Co0 2.021 . S
O10 C7 1.238 . S
O11 Co5 2.052 . S
O11 C7 1.241 . S
O12 Co0 2.137 . S
O12 C3 1.247 . S
O13 Co0 2.244 . S
O13 C3 1.272 . S
O13 Co5 2.135 . S
Co14 O15 2.216 . S
Co14 O16 2.091 . S
Co14 O18 2.004 . S
Co14 O24 2.021 . S
Co14 O26 2.137 . S
Co14 O27 2.244 . S
O15 Co14 2.216 . S
O15 C22 1.247 . S
O16 Co14 2.091 . S
O16 C22 1.261 . S
C17 O26 1.247 . S
C17 O27 1.272 . S
O18 Co14 2.004 . S
O18 C23 1.259 . S
Co19 O20 2.061 . S
Co19 O25 2.052 . S
Co19 O27 2.135 . S
O20 Co19 2.061 . S
O20 C23 1.235 . S
C21 O24 1.238 . S
C21 O25 1.241 . S
C22 O15 1.247 . S
C22 O16 1.261 . S
C23 O18 1.259 . S
C23 O20 1.235 . S
O24 Co14 2.021 . S
O24 C21 1.238 . S
O25 Co19 2.052 . S
O25 C21 1.241 . S
O26 Co14 2.137 . S
O26 C17 1.247 . S
O27 Co14 2.244 . S
O27 C17 1.272 . S
O27 Co19 2.135 . S
Co28 O29 2.216 . S
Co28 O30 2.091 . S
Co28 O32 2.004 . S
Co28 O38 2.021 . S
Co28 O40 2.137 . S
Co28 O41 2.244 . S
O29 Co28 2.216 . S
O29 C36 1.247 . S
O30 Co28 2.091 . S
O30 C36 1.261 . S
C31 O40 1.247 . S
C31 O41 1.272 . S
O32 Co28 2.004 . S
O32 C37 1.259 . S
Co33 O34 2.061 . S
Co33 O39 2.052 . S
Co33 O41 2.135 . S
O34 Co33 2.061 . S
O34 C37 1.235 . S
C35 O38 1.238 . S
C35 O39 1.241 . S
C36 O29 1.247 . S
C36 O30 1.261 . S
C37 O32 1.259 . S
C37 O34 1.235 . S
O38 Co28 2.021 . S
O38 C35 1.238 . S
O39 Co33 2.052 . S
O39 C35 1.241 . S
O40 Co28 2.137 . S
O40 C31 1.247 . S
O41 Co28 2.244 . S
O41 C31 1.272 . S
O41 Co33 2.135 . S
Co42 O43 2.216 . S
Co42 O44 2.091 . S
Co42 O46 2.004 . S
Co42 O52 2.021 1_554 S
Co42 O54 2.137 . S
Co42 O55 2.244 . S
O43 Co42 2.216 . S
O43 C50 1.247 . S
O44 Co42 2.091 . S
O44 C50 1.261 . S
C45 O54 1.247 . S
C45 O55 1.272 . S
O46 Co42 2.004 . S
O46 C51 1.259 . S
Co47 O48 2.061 . S
Co47 O53 2.052 1_554 S
Co47 O55 2.135 . S
O48 Co47 2.061 . S
O48 C51 1.235 . S
C49 O52 1.238 . S
C49 O53 1.241 . S
C50 O43 1.247 . S
C50 O44 1.261 . S
C51 O46 1.259 . S
C51 O48 1.235 . S
O52 Co42 2.021 1_556 S
O52 C49 1.238 . S
O53 Co47 2.052 1_556 S
O53 C49 1.241 . S
O54 Co42 2.137 . S
O54 C45 1.247 . S
O55 Co42 2.244 . S
O55 C45 1.272 . S
O55 Co47 2.135 . S
Co56 O57 2.216 . S
Co56 O58 2.091 . S
Co56 O60 2.004 . S
Co56 O66 2.021 . S
Co56 O68 2.137 . S
Co56 O69 2.244 . S
O57 Co56 2.216 . S
O57 C64 1.247 . S
O58 Co56 2.091 . S
O58 C64 1.261 . S
C59 O68 1.247 . S
C59 O69 1.272 . S
O60 Co56 2.004 . S
O60 C65 1.259 . S
Co61 O62 2.061 . S
Co61 O67 2.052 . S
Co61 O69 2.135 . S
O62 Co61 2.061 . S
O62 C65 1.235 . S
C63 O66 1.238 . S
C63 O67 1.241 . S
C64 O57 1.247 . S
C64 O58 1.261 . S
C65 O60 1.259 . S
C65 O62 1.235 . S
O66 Co56 2.021 . S
O66 C63 1.238 . S
O67 Co61 2.052 . S
O67 C63 1.241 . S
O68 Co56 2.137 . S
O68 C59 1.247 . S
O69 Co56 2.244 . S
O69 C59 1.272 . S
O69 Co61 2.135 . S
Co70 O71 2.216 . S
Co70 O72 2.091 . S
Co70 O74 2.004 . S
Co70 O80 2.021 . S
Co70 O82 2.137 . S
Co70 O83 2.244 . S
O71 Co70 2.216 . S
O71 C78 1.247 . S
O72 Co70 2.091 . S
O72 C78 1.261 . S
C73 O82 1.247 . S
C73 O83 1.272 . S
O74 Co70 2.004 . S
O74 C79 1.259 . S
Co75 O76 2.061 . S
Co75 O81 2.052 . S
Co75 O83 2.135 . S
O76 Co75 2.061 . S
O76 C79 1.235 . S
C77 O80 1.238 . S
C77 O81 1.241 . S
C78 O71 1.247 . S
C78 O72 1.261 . S
C79 O74 1.259 . S
C79 O76 1.235 . S
O80 Co70 2.021 . S
O80 C77 1.238 . S
O81 Co75 2.052 . S
O81 C77 1.241 . S
O82 Co70 2.137 . S
O82 C73 1.247 . S
O83 Co70 2.244 . S
O83 C73 1.272 . S
O83 Co75 2.135 . S
Co84 O85 2.216 . S
Co84 O86 2.091 . S
Co84 O88 2.004 . S
Co84 O94 2.021 . S
Co84 O96 2.137 . S
Co84 O97 2.244 . S
O85 Co84 2.216 . S
O85 C92 1.247 . S
O86 Co84 2.091 . S
O86 C92 1.261 . S
C87 O96 1.247 . S
C87 O97 1.272 . S
O88 Co84 2.004 . S
O88 C93 1.259 . S
Co89 O90 2.061 . S
Co89 O95 2.052 . S
Co89 O97 2.135 . S
O90 Co89 2.061 . S
O90 C93 1.235 . S
C91 O94 1.238 . S
C91 O95 1.241 . S
C92 O85 1.247 . S
C92 O86 1.261 . S
C93 O88 1.259 . S
C93 O90 1.235 . S
O94 Co84 2.021 . S
O94 C91 1.238 . S
O95 Co89 2.052 . S
O95 C91 1.241 . S
O96 Co84 2.137 . S
O96 C87 1.247 . S
O97 Co84 2.244 . S
O97 C87 1.272 . S
O97 Co89 2.135 . S
Co98 O99 2.216 . S
Co98 O100 2.091 . S
Co98 O102 2.004 . S
Co98 O108 2.021 1_556 S
Co98 O110 2.137 . S
Co98 O111 2.244 . S
O99 Co98 2.216 . S
O99 C106 1.247 . S
O100 Co98 2.091 . S
O100 C106 1.261 . S
C101 O110 1.247 . S
C101 O111 1.272 . S
O102 Co98 2.004 . S
O102 C107 1.259 . S
Co103 O104 2.061 . S
Co103 O109 2.052 1_556 S
Co103 O111 2.135 . S
O104 Co103 2.061 . S
O104 C107 1.235 . S
C105 O108 1.238 . S
C105 O109 1.241 . S
C106 O99 1.247 . S
C106 O100 1.261 . S
C107 O102 1.259 . S
C107 O104 1.235 . S
O108 Co98 2.021 1_554 S
O108 C105 1.238 . S
O109 Co103 2.052 1_554 S
O109 C105 1.241 . S
O110 Co98 2.137 . S
O110 C101 1.247 . S
O111 Co98 2.244 . S
O111 C101 1.272 . S
O111 Co103 2.135 . S
Co112 O113 2.216 . S
Co112 O114 2.091 . S
Co112 O116 2.004 . S
Co112 O122 2.021 . S
Co112 O124 2.137 . S
Co112 O125 2.244 . S
O113 Co112 2.216 . S
O113 C120 1.247 . S
O114 Co112 2.091 . S
O114 C120 1.261 . S
C115 O124 1.247 . S
C115 O125 1.272 . S
O116 Co112 2.004 . S
O116 C121 1.259 . S
Co117 O118 2.061 . S
Co117 O123 2.052 . S
Co117 O125 2.135 . S
O118 Co117 2.061 . S
O118 C121 1.235 . S
C119 O122 1.238 . S
C119 O123 1.241 . S
C120 O113 1.247 . S
C120 O114 1.261 . S
C121 O116 1.259 . S
C121 O118 1.235 . S
O122 Co112 2.021 . S
O122 C119 1.238 . S
O123 Co117 2.052 . S
O123 C119 1.241 . S
O124 Co112 2.137 . S
O124 C115 1.247 . S
O125 Co112 2.244 . S
O125 C115 1.272 . S
O125 Co117 2.135 . S
Co126 O127 2.216 . S
Co126 O128 2.091 . S
Co126 O130 2.004 . S
Co126 O136 2.021 . S
Co126 O138 2.137 . S
Co126 O139 2.244 . S
O127 Co126 2.216 . S
O127 C134 1.247 . S
O128 Co126 2.091 . S
O128 C134 1.261 . S
C129 O138 1.247 . S
C129 O139 1.272 . S
O130 Co126 2.004 . S
O130 C135 1.259 . S
Co131 O132 2.061 . S
Co131 O137 2.052 . S
Co131 O139 2.135 . S
O132 Co131 2.061 . S
O132 C135 1.235 . S
C133 O136 1.238 . S
C133 O137 1.241 . S
C134 O127 1.247 . S
C134 O128 1.261 . S
C135 O130 1.259 . S
C135 O132 1.235 . S
O136 Co126 2.021 . S
O136 C133 1.238 . S
O137 Co131 2.052 . S
O137 C133 1.241 . S
O138 Co126 2.137 . S
O138 C129 1.247 . S
O139 Co126 2.244 . S
O139 C129 1.272 . S
O139 Co131 2.135 . S
Co140 O141 2.216 . S
Co140 O142 2.091 . S
Co140 O144 2.004 . S
Co140 O150 2.021 . S
Co140 O152 2.137 . S
Co140 O153 2.244 . S
O141 Co140 2.216 . S
O141 C148 1.247 . S
O142 Co140 2.091 . S
O142 C148 1.261 . S
C143 O152 1.247 . S
C143 O153 1.272 . S
O144 Co140 2.004 . S
O144 C149 1.259 . S
Co145 O146 2.061 . S
Co145 O151 2.052 . S
Co145 O153 2.135 . S
O146 Co145 2.061 . S
O146 C149 1.235 . S
C147 O150 1.238 . S
C147 O151 1.241 . S
C148 O141 1.247 . S
C148 O142 1.261 . S
C149 O144 1.259 . S
C149 O146 1.235 . S
O150 Co140 2.021 . S
O150 C147 1.238 . S
O151 Co145 2.052 . S
O151 C147 1.241 . S
O152 Co140 2.137 . S
O152 C143 1.247 . S
O153 Co140 2.244 . S
O153 C143 1.272 . S
O153 Co145 2.135 . S
Co154 O155 2.216 . S
Co154 O156 2.091 . S
Co154 O158 2.004 . S
Co154 O164 2.021 1_556 S
Co154 O166 2.137 . S
Co154 O167 2.244 . S
O155 Co154 2.216 . S
O155 C162 1.247 . S
O156 Co154 2.091 . S
O156 C162 1.261 . S
C157 O166 1.247 . S
C157 O167 1.272 . S
O158 Co154 2.004 . S
O158 C163 1.259 . S
Co159 O160 2.061 . S
Co159 O165 2.052 1_556 S
Co159 O167 2.135 . S
O160 Co159 2.061 . S
O160 C163 1.235 . S
C161 O164 1.238 . S
C161 O165 1.241 . S
C162 O155 1.247 . S
C162 O156 1.261 . S
C163 O158 1.259 . S
C163 O160 1.235 . S
O164 Co154 2.021 1_554 S
O164 C161 1.238 . S
O165 Co159 2.052 1_554 S
O165 C161 1.241 . S
O166 Co154 2.137 . S
O166 C157 1.247 . S
O167 Co154 2.244 . S
O167 C157 1.272 . S
O167 Co159 2.135 . S
Co168 O169 2.216 . S
Co168 O170 2.091 . S
Co168 O172 2.004 . S
Co168 O178 2.021 . S
Co168 O180 2.137 . S
Co168 O181 2.244 . S
O169 Co168 2.216 . S
O169 C176 1.247 . S
O170 Co168 2.091 . S
O170 C176 1.261 . S
C171 O180 1.247 . S
C171 O181 1.272 . S
O172 Co168 2.004 . S
O172 C177 1.259 . S
Co173 O174 2.061 . S
Co173 O179 2.052 . S
Co173 O181 2.135 . S
O174 Co173 2.061 . S
O174 C177 1.235 . S
C175 O178 1.238 . S
C175 O179 1.241 . S
C176 O169 1.247 . S
C176 O170 1.261 . S
C177 O172 1.259 . S
C177 O174 1.235 . S
O178 Co168 2.021 . S
O178 C175 1.238 . S
O179 Co173 2.052 . S
O179 C175 1.241 . S
O180 Co168 2.137 . S
O180 C171 1.247 . S
O181 Co168 2.244 . S
O181 C171 1.272 . S
O181 Co173 2.135 . S
Co182 O183 2.216 . S
Co182 O184 2.091 . S
Co182 O186 2.004 . S
Co182 O192 2.021 . S
Co182 O194 2.137 . S
Co182 O195 2.244 . S
O183 Co182 2.216 . S
O183 C190 1.247 . S
O184 Co182 2.091 . S
O184 C190 1.261 . S
C185 O194 1.247 . S
C185 O195 1.272 . S
O186 Co182 2.004 . S
O186 C191 1.259 . S
Co187 O188 2.061 . S
Co187 O193 2.052 . S
Co187 O195 2.135 . S
O188 Co187 2.061 . S
O188 C191 1.235 . S
C189 O192 1.238 . S
C189 O193 1.241 . S
C190 O183 1.247 . S
C190 O184 1.261 . S
C191 O186 1.259 . S
C191 O188 1.235 . S
O192 Co182 2.021 . S
O192 C189 1.238 . S
O193 Co187 2.052 . S
O193 C189 1.241 . S
O194 Co182 2.137 . S
O194 C185 1.247 . S
O195 Co182 2.244 . S
O195 C185 1.272 . S
O195 Co187 2.135 . S
Co196 O197 2.216 . S
Co196 O198 2.091 . S
Co196 O200 2.004 . S
Co196 O206 2.021 . S
Co196 O208 2.137 . S
Co196 O209 2.244 . S
O197 Co196 2.216 . S
O197 C204 1.247 . S
O198 Co196 2.091 . S
O198 C204 1.261 . S
C199 O208 1.247 . S
C199 O209 1.272 . S
O200 Co196 2.004 . S
O200 C205 1.259 . S
Co201 O202 2.061 . S
Co201 O207 2.052 . S
Co201 O209 2.135 . S
O202 Co201 2.061 . S
O202 C205 1.235 . S
C203 O206 1.238 . S
C203 O207 1.241 . S
C204 O197 1.247 . S
C204 O198 1.261 . S
C205 O200 1.259 . S
C205 O202 1.235 . S
O206 Co196 2.021 . S
O206 C203 1.238 . S
O207 Co201 2.052 . S
O207 C203 1.241 . S
O208 Co196 2.137 . S
O208 C199 1.247 . S
O209 Co196 2.244 . S
O209 C199 1.272 . S
O209 Co201 2.135 . S
Co210 O211 2.216 . S
Co210 O212 2.091 . S
Co210 O214 2.004 . S
Co210 O220 2.021 1_554 S
Co210 O222 2.137 . S
Co210 O223 2.244 . S
O211 Co210 2.216 . S
O211 C218 1.247 . S
O212 Co210 2.091 . S
O212 C218 1.261 . S
C213 O222 1.247 . S
C213 O223 1.272 . S
O214 Co210 2.004 . S
O214 C219 1.259 . S
Co215 O216 2.061 . S
Co215 O221 2.052 1_554 S
Co215 O223 2.135 . S
O216 Co215 2.061 . S
O216 C219 1.235 . S
C217 O220 1.238 . S
C217 O221 1.241 . S
C218 O211 1.247 . S
C218 O212 1.261 . S
C219 O214 1.259 . S
C219 O216 1.235 . S
O220 Co210 2.021 1_556 S
O220 C217 1.238 . S
O221 Co215 2.052 1_556 S
O221 C217 1.241 . S
O222 Co210 2.137 . S
O222 C213 1.247 . S
O223 Co210 2.244 . S
O223 C213 1.272 . S
O223 Co215 2.135 . S
Co224 O225 2.216 . S
Co224 O226 2.091 . S
Co224 O228 2.004 . S
Co224 O234 2.021 . S
Co224 O236 2.137 . S
Co224 O237 2.244 . S
O225 Co224 2.216 . S
O225 C232 1.247 . S
O226 Co224 2.091 . S
O226 C232 1.261 . S
C227 O236 1.247 . S
C227 O237 1.272 . S
O228 Co224 2.004 . S
O228 C233 1.259 . S
Co229 O230 2.061 . S
Co229 O235 2.052 . S
Co229 O237 2.135 . S
O230 Co229 2.061 . S
O230 C233 1.235 . S
C231 O234 1.238 . S
C231 O235 1.241 . S
C232 O225 1.247 . S
C232 O226 1.261 . S
C233 O228 1.259 . S
C233 O230 1.235 . S
O234 Co224 2.021 . S
O234 C231 1.238 . S
O235 Co229 2.052 . S
O235 C231 1.241 . S
O236 Co224 2.137 . S
O236 C227 1.247 . S
O237 Co224 2.244 . S
O237 C227 1.272 . S
O237 Co229 2.135 . S
Co238 O239 2.216 . S
Co238 O240 2.091 . S
Co238 O242 2.004 . S
Co238 O248 2.021 1_554 S
Co238 O250 2.137 . S
Co238 O251 2.244 . S
O239 Co238 2.216 . S
O239 C246 1.247 . S
O240 Co238 2.091 . S
O240 C246 1.261 . S
C241 O250 1.247 . S
C241 O251 1.272 . S
O242 Co238 2.004 . S
O242 C247 1.259 . S
Co243 O244 2.061 . S
Co243 O249 2.052 1_554 S
Co243 O251 2.135 . S
O244 Co243 2.061 . S
O244 C247 1.235 . S
C245 O248 1.238 . S
C245 O249 1.241 . S
C246 O239 1.247 . S
C246 O240 1.261 . S
C247 O242 1.259 . S
C247 O244 1.235 . S
O248 Co238 2.021 1_556 S
O248 C245 1.238 . S
O249 Co243 2.052 1_556 S
O249 C245 1.241 . S
O250 Co238 2.137 . S
O250 C241 1.247 . S
O251 Co238 2.244 . S
O251 C241 1.272 . S
O251 Co243 2.135 . S
Co252 O253 2.216 . S
Co252 O254 2.091 . S
Co252 O256 2.004 . S
Co252 O262 2.021 . S
Co252 O264 2.137 . S
Co252 O265 2.244 . S
O253 Co252 2.216 . S
O253 C260 1.247 . S
O254 Co252 2.091 . S
O254 C260 1.261 . S
C255 O264 1.247 . S
C255 O265 1.272 . S
O256 Co252 2.004 . S
O256 C261 1.259 . S
Co257 O258 2.061 . S
Co257 O263 2.052 . S
Co257 O265 2.135 . S
O258 Co257 2.061 . S
O258 C261 1.235 . S
C259 O262 1.238 . S
C259 O263 1.241 . S
C260 O253 1.247 . S
C260 O254 1.261 . S
C261 O256 1.259 . S
C261 O258 1.235 . S
O262 Co252 2.021 . S
O262 C259 1.238 . S
O263 Co257 2.052 . S
O263 C259 1.241 . S
O264 Co252 2.137 . S
O264 C255 1.247 . S
O265 Co252 2.244 . S
O265 C255 1.272 . S
O265 Co257 2.135 . S
Co266 O267 2.216 . S
Co266 O268 2.091 . S
Co266 O270 2.004 . S
Co266 O276 2.021 . S
Co266 O278 2.137 . S
Co266 O279 2.244 . S
O267 Co266 2.216 . S
O267 C274 1.247 . S
O268 Co266 2.091 . S
O268 C274 1.261 . S
C269 O278 1.247 . S
C269 O279 1.272 . S
O270 Co266 2.004 . S
O270 C275 1.259 . S
Co271 O272 2.061 . S
Co271 O277 2.052 . S
Co271 O279 2.135 . S
O272 Co271 2.061 . S
O272 C275 1.235 . S
C273 O276 1.238 . S
C273 O277 1.241 . S
C274 O267 1.247 . S
C274 O268 1.261 . S
C275 O270 1.259 . S
C275 O272 1.235 . S
O276 Co266 2.021 . S
O276 C273 1.238 . S
O277 Co271 2.052 . S
O277 C273 1.241 . S
O278 Co266 2.137 . S
O278 C269 1.247 . S
O279 Co266 2.244 . S
O279 C269 1.272 . S
O279 Co271 2.135 . S
Co280 O281 2.216 . S
Co280 O282 2.091 . S
Co280 O284 2.004 . S
Co280 O290 2.021 . S
Co280 O292 2.137 . S
Co280 O293 2.244 . S
O281 Co280 2.216 . S
O281 C288 1.247 . S
O282 Co280 2.091 . S
O282 C288 1.261 . S
C283 O292 1.247 . S
C283 O293 1.272 . S
O284 Co280 2.004 . S
O284 C289 1.259 . S
Co285 O286 2.061 . S
Co285 O291 2.052 . S
Co285 O293 2.135 . S
O286 Co285 2.061 . S
O286 C289 1.235 . S
C287 O290 1.238 . S
C287 O291 1.241 . S
C288 O281 1.247 . S
C288 O282 1.261 . S
C289 O284 1.259 . S
C289 O286 1.235 . S
O290 Co280 2.021 . S
O290 C287 1.238 . S
O291 Co285 2.052 . S
O291 C287 1.241 . S
O292 Co280 2.137 . S
O292 C283 1.247 . S
O293 Co280 2.244 . S
O293 C283 1.272 . S
O293 Co285 2.135 . S
Co294 O295 2.216 . S
Co294 O296 2.091 . S
Co294 O298 2.004 . S
Co294 O304 2.021 1_556 S
Co294 O306 2.137 . S
Co294 O307 2.244 . S
O295 Co294 2.216 . S
O295 C302 1.247 . S
O296 Co294 2.091 . S
O296 C302 1.261 . S
C297 O306 1.247 . S
C297 O307 1.272 . S
O298 Co294 2.004 . S
O298 C303 1.259 . S
Co299 O300 2.061 . S
Co299 O305 2.052 1_556 S
Co299 O307 2.135 . S
O300 Co299 2.061 . S
O300 C303 1.235 . S
C301 O304 1.238 . S
C301 O305 1.241 . S
C302 O295 1.247 . S
C302 O296 1.261 . S
C303 O298 1.259 . S
C303 O300 1.235 . S
O304 Co294 2.021 1_554 S
O304 C301 1.238 . S
O305 Co299 2.052 1_554 S
O305 C301 1.241 . S
O306 Co294 2.137 . S
O306 C297 1.247 . S
O307 Co294 2.244 . S
O307 C297 1.272 . S
O307 Co299 2.135 . S
Co308 O309 2.216 . S
Co308 O310 2.091 . S
Co308 O312 2.004 . S
Co308 O318 2.021 . S
Co308 O320 2.137 . S
Co308 O321 2.244 . S
O309 Co308 2.216 . S
O309 C316 1.247 . S
O310 Co308 2.091 . S
O310 C316 1.261 . S
C311 O320 1.247 . S
C311 O321 1.272 . S
O312 Co308 2.004 . S
O312 C317 1.259 . S
Co313 O314 2.061 . S
Co313 O319 2.052 . S
Co313 O321 2.135 . S
O314 Co313 2.061 . S
O314 C317 1.235 . S
C315 O318 1.238 . S
C315 O319 1.241 . S
C316 O309 1.247 . S
C316 O310 1.261 . S
C317 O312 1.259 . S
C317 O314 1.235 . S
O318 Co308 2.021 . S
O318 C315 1.238 . S
O319 Co313 2.052 . S
O319 C315 1.241 . S
O320 Co308 2.137 . S
O320 C311 1.247 . S
O321 Co308 2.244 . S
O321 C311 1.272 . S
O321 Co313 2.135 . S
Co322 O323 2.216 . S
Co322 O324 2.091 . S
Co322 O326 2.004 . S
Co322 O332 2.021 . S
Co322 O334 2.137 . S
Co322 O335 2.244 . S
O323 Co322 2.216 . S
O323 C330 1.247 . S
O324 Co322 2.091 . S
O324 C330 1.261 . S
C325 O334 1.247 . S
C325 O335 1.272 . S
O326 Co322 2.004 . S
O326 C331 1.259 . S
Co327 O328 2.061 . S
Co327 O333 2.052 . S
Co327 O335 2.135 . S
O328 Co327 2.061 . S
O328 C331 1.235 . S
C329 O332 1.238 . S
C329 O333 1.241 . S
C330 O323 1.247 . S
C330 O324 1.261 . S
C331 O326 1.259 . S
C331 O328 1.235 . S
O332 Co322 2.021 . S
O332 C329 1.238 . S
O333 Co327 2.052 . S
O333 C329 1.241 . S
O334 Co322 2.137 . S
O334 C325 1.247 . S
O335 Co322 2.244 . S
O335 C325 1.272 . S
O335 Co327 2.135 . S
Co336 O337 2.216 . S
Co336 O338 2.091 . S
Co336 O340 2.004 . S
Co336 O346 2.021 . S
Co336 O348 2.137 . S
Co336 O349 2.244 . S
O337 Co336 2.216 . S
O337 C344 1.247 . S
O338 Co336 2.091 . S
O338 C344 1.261 . S
C339 O348 1.247 . S
C339 O349 1.272 . S
O340 Co336 2.004 . S
O340 C345 1.259 . S
Co341 O342 2.061 . S
Co341 O347 2.052 . S
Co341 O349 2.135 . S
O342 Co341 2.061 . S
O342 C345 1.235 . S
C343 O346 1.238 . S
C343 O347 1.241 . S
C344 O337 1.247 . S
C344 O338 1.261 . S
C345 O340 1.259 . S
C345 O342 1.235 . S
O346 Co336 2.021 . S
O346 C343 1.238 . S
O347 Co341 2.052 . S
O347 C343 1.241 . S
O348 Co336 2.137 . S
O348 C339 1.247 . S
O349 Co336 2.244 . S
O349 C339 1.272 . S
O349 Co341 2.135 . S
Co350 O351 2.216 . S
Co350 O352 2.091 . S
Co350 O354 2.004 . S
Co350 O360 2.021 1_556 S
Co350 O362 2.137 . S
Co350 O363 2.244 . S
O351 Co350 2.216 . S
O351 C358 1.247 . S
O352 Co350 2.091 . S
O352 C358 1.261 . S
C353 O362 1.247 . S
C353 O363 1.272 . S
O354 Co350 2.004 . S
O354 C359 1.259 . S
Co355 O356 2.061 . S
Co355 O361 2.052 1_556 S
Co355 O363 2.135 . S
O356 Co355 2.061 . S
O356 C359 1.235 . S
C357 O360 1.238 . S
C357 O361 1.241 . S
C358 O351 1.247 . S
C358 O352 1.261 . S
C359 O354 1.259 . S
C359 O356 1.235 . S
O360 Co350 2.021 1_554 S
O360 C357 1.238 . S
O361 Co355 2.052 1_554 S
O361 C357 1.241 . S
O362 Co350 2.137 . S
O362 C353 1.247 . S
O363 Co350 2.244 . S
O363 C353 1.272 . S
O363 Co355 2.135 . S
Co364 O365 2.216 . S
Co364 O366 2.091 . S
Co364 O368 2.004 . S
Co364 O374 2.021 . S
Co364 O376 2.137 . S
Co364 O377 2.244 . S
O365 Co364 2.216 . S
O365 C372 1.247 . S
O366 Co364 2.091 . S
O366 C372 1.261 . S
C367 O376 1.247 . S
C367 O377 1.272 . S
O368 Co364 2.004 . S
O368 C373 1.259 . S
Co369 O370 2.061 . S
Co369 O375 2.052 . S
Co369 O377 2.135 . S
O370 Co369 2.061 . S
O370 C373 1.235 . S
C371 O374 1.238 . S
C371 O375 1.241 . S
C372 O365 1.247 . S
C372 O366 1.261 . S
C373 O368 1.259 . S
C373 O370 1.235 . S
O374 Co364 2.021 . S
O374 C371 1.238 . S
O375 Co369 2.052 . S
O375 C371 1.241 . S
O376 Co364 2.137 . S
O376 C367 1.247 . S
O377 Co364 2.244 . S
O377 C367 1.272 . S
O377 Co369 2.135 . S
Co378 O379 2.216 . S
Co378 O380 2.091 . S
Co378 O382 2.004 . S
Co378 O388 2.021 . S
Co378 O390 2.137 . S
Co378 O391 2.244 . S
O379 Co378 2.216 . S
O379 C386 1.247 . S
O380 Co378 2.091 . S
O380 C386 1.261 . S
C381 O390 1.247 . S
C381 O391 1.272 . S
O382 Co378 2.004 . S
O382 C387 1.259 . S
Co383 O384 2.061 . S
Co383 O389 2.052 . S
Co383 O391 2.135 . S
O384 Co383 2.061 . S
O384 C387 1.235 . S
C385 O388 1.238 . S
C385 O389 1.241 . S
C386 O379 1.247 . S
C386 O380 1.261 . S
C387 O382 1.259 . S
C387 O384 1.235 . S
O388 Co378 2.021 . S
O388 C385 1.238 . S
O389 Co383 2.052 . S
O389 C385 1.241 . S
O390 Co378 2.137 . S
O390 C381 1.247 . S
O391 Co378 2.244 . S
O391 C381 1.272 . S
O391 Co383 2.135 . S
Co392 O393 2.216 . S
Co392 O394 2.091 . S
Co392 O396 2.004 . S
Co392 O402 2.021 . S
Co392 O404 2.137 . S
Co392 O405 2.244 . S
O393 Co392 2.216 . S
O393 C400 1.247 . S
O394 Co392 2.091 . S
O394 C400 1.261 . S
C395 O404 1.247 . S
C395 O405 1.272 . S
O396 Co392 2.004 . S
O396 C401 1.259 . S
Co397 O398 2.061 . S
Co397 O403 2.052 . S
Co397 O405 2.135 . S
O398 Co397 2.061 . S
O398 C401 1.235 . S
C399 O402 1.238 . S
C399 O403 1.241 . S
C400 O393 1.247 . S
C400 O394 1.261 . S
C401 O396 1.259 . S
C401 O398 1.235 . S
O402 Co392 2.021 . S
O402 C399 1.238 . S
O403 Co397 2.052 . S
O403 C399 1.241 . S
O404 Co392 2.137 . S
O404 C395 1.247 . S
O405 Co392 2.244 . S
O405 C395 1.272 . S
O405 Co397 2.135 . S
Co406 O407 2.216 . S
Co406 O408 2.091 . S
Co406 O410 2.004 . S
Co406 O416 2.021 1_554 S
Co406 O418 2.137 . S
Co406 O419 2.244 . S
O407 Co406 2.216 . S
O407 C414 1.247 . S
O408 Co406 2.091 . S
O408 C414 1.261 . S
C409 O418 1.247 . S
C409 O419 1.272 . S
O410 Co406 2.004 . S
O410 C415 1.259 . S
Co411 O412 2.061 . S
Co411 O417 2.052 1_554 S
Co411 O419 2.135 . S
O412 Co411 2.061 . S
O412 C415 1.235 . S
C413 O416 1.238 . S
C413 O417 1.241 . S
C414 O407 1.247 . S
C414 O408 1.261 . S
C415 O410 1.259 . S
C415 O412 1.235 . S
O416 Co406 2.021 1_556 S
O416 C413 1.238 . S
O417 Co411 2.052 1_556 S
O417 C413 1.241 . S
O418 Co406 2.137 . S
O418 C409 1.247 . S
O419 Co406 2.244 . S
O419 C409 1.272 . S
O419 Co411 2.135 . S
Co420 O421 2.216 . S
Co420 O422 2.091 . S
Co420 O424 2.004 . S
Co420 O430 2.021 . S
Co420 O432 2.137 . S
Co420 O433 2.244 . S
O421 Co420 2.216 . S
O421 C428 1.247 . S
O422 Co420 2.091 . S
O422 C428 1.261 . S
C423 O432 1.247 . S
C423 O433 1.272 . S
O424 Co420 2.004 . S
O424 C429 1.259 . S
Co425 O426 2.061 . S
Co425 O431 2.052 . S
Co425 O433 2.135 . S
O426 Co425 2.061 . S
O426 C429 1.235 . S
C427 O430 1.238 . S
C427 O431 1.241 . S
C428 O421 1.247 . S
C428 O422 1.261 . S
C429 O424 1.259 . S
C429 O426 1.235 . S
O430 Co420 2.021 . S
O430 C427 1.238 . S
O431 Co425 2.052 . S
O431 C427 1.241 . S
O432 Co420 2.137 . S
O432 C423 1.247 . S
O433 Co420 2.244 . S
O433 C423 1.272 . S
O433 Co425 2.135 . S
Co434 O435 2.216 . S
Co434 O436 2.091 . S
Co434 O438 2.004 . S
Co434 O444 2.021 . S
Co434 O446 2.137 . S
Co434 O447 2.244 . S
O435 Co434 2.216 . S
O435 C442 1.247 . S
O436 Co434 2.091 . S
O436 C442 1.261 . S
C437 O446 1.247 . S
C437 O447 1.272 . S
O438 Co434 2.004 . S
O438 C443 1.259 . S
Co439 O440 2.061 . S
Co439 O445 2.052 . S
Co439 O447 2.135 . S
O440 Co439 2.061 . S
O440 C443 1.235 . S
C441 O444 1.238 . S
C441 O445 1.241 . S
C442 O435 1.247 . S
C442 O436 1.261 . S
C443 O438 1.259 . S
C443 O440 1.235 . S
O444 Co434 2.021 . S
O444 C441 1.238 . S
O445 Co439 2.052 . S
O445 C441 1.241 . S
O446 Co434 2.137 . S
O446 C437 1.247 . S
O447 Co434 2.244 . S
O447 C437 1.272 . S
O447 Co439 2.135 . S
C448 C449 1.363 . S
C448 C454 1.379 . S
C448 N456 1.356 . S
C449 C448 1.363 . S
C449 C455 1.363 . S
C450 C451 1.363 . S
C450 C455 1.379 . S
C450 N457 1.356 . S
C451 C450 1.363 . S
C451 C454 1.363 . S
N452 C454 1.356 . S
N452 H464 0.984 . S
N452 H465 0.985 . S
N453 C455 1.356 . S
N453 H458 0.984 . S
N453 H459 0.985 . S
C454 C448 1.379 . S
C454 C451 1.363 . S
C454 N452 1.356 . S
C455 C449 1.363 . S
C455 C450 1.379 . S
C455 N453 1.356 . S
N456 C448 1.356 . S
N456 H462 0.984 . S
N456 H463 0.984 . S
N457 C450 1.356 . S
N457 H460 0.984 . S
N457 H461 0.985 . S
H458 N453 0.984 . S
H459 N453 0.985 . S
H460 N457 0.984 . S
H461 N457 0.985 . S
H462 N456 0.984 . S
H463 N456 0.984 . S
H464 N452 0.984 . S
H465 N452 0.985 . S
C466 C467 1.363 . S
C466 C472 1.379 . S
C466 N474 1.356 . S
C467 C466 1.363 . S
C467 C473 1.363 . S
C468 C469 1.363 . S
C468 C473 1.379 . S
C468 N475 1.356 . S
C469 C468 1.363 . S
C469 C472 1.363 . S
N470 C472 1.356 . S
N470 H482 0.984 . S
N470 H483 0.985 . S
N471 C473 1.356 . S
N471 H476 0.984 . S
N471 H477 0.985 . S
C472 C466 1.379 . S
C472 C469 1.363 . S
C472 N470 1.356 . S
C473 C467 1.363 . S
C473 C468 1.379 . S
C473 N471 1.356 . S
N474 C466 1.356 . S
N474 H480 0.984 . S
N474 H481 0.984 . S
N475 C468 1.356 . S
N475 H478 0.984 . S
N475 H479 0.985 . S
H476 N471 0.984 . S
H477 N471 0.985 . S
H478 N475 0.984 . S
H479 N475 0.985 . S
H480 N474 0.984 . S
H481 N474 0.984 . S
H482 N470 0.984 . S
H483 N470 0.985 . S
C484 C485 1.363 . S
C484 C490 1.379 . S
C484 N492 1.356 . S
C485 C484 1.363 . S
C485 C491 1.363 . S
C486 C487 1.363 . S
C486 C491 1.379 . S
C486 N493 1.356 . S
C487 C486 1.363 . S
C487 C490 1.363 . S
N488 C490 1.356 . S
N488 H500 0.984 . S
N488 H501 0.985 . S
N489 C491 1.356 . S
N489 H494 0.984 . S
N489 H495 0.985 . S
C490 C484 1.379 . S
C490 C487 1.363 . S
C490 N488 1.356 . S
C491 C485 1.363 . S
C491 C486 1.379 . S
C491 N489 1.356 . S
N492 C484 1.356 . S
N492 H498 0.984 . S
N492 H499 0.984 . S
N493 C486 1.356 . S
N493 H496 0.984 . S
N493 H497 0.985 . S
H494 N489 0.984 . S
H495 N489 0.985 . S
H496 N493 0.984 . S
H497 N493 0.985 . S
H498 N492 0.984 . S
H499 N492 0.984 . S
H500 N488 0.984 . S
H501 N488 0.985 . S
C502 C503 1.363 . S
C502 C508 1.379 . S
C502 N510 1.356 . S
C503 C502 1.363 . S
C503 C509 1.363 . S
C504 C505 1.363 . S
C504 C509 1.379 . S
C504 N511 1.356 . S
C505 C504 1.363 . S
C505 C508 1.363 . S
N506 C508 1.356 . S
N506 H518 0.984 . S
N506 H519 0.985 . S
N507 C509 1.356 . S
N507 H512 0.984 . S
N507 H513 0.985 . S
C508 C502 1.379 . S
C508 C505 1.363 . S
C508 N506 1.356 . S
C509 C503 1.363 . S
C509 C504 1.379 . S
C509 N507 1.356 . S
N510 C502 1.356 . S
N510 H516 0.984 . S
N510 H517 0.984 . S
N511 C504 1.356 . S
N511 H514 0.984 . S
N511 H515 0.985 . S
H512 N507 0.984 . S
H513 N507 0.985 . S
H514 N511 0.984 . S
H515 N511 0.985 . S
H516 N510 0.984 . S
H517 N510 0.984 . S
H518 N506 0.984 . S
H519 N506 0.985 . S
C520 C521 1.363 . S
C520 C526 1.379 . S
C520 N528 1.356 . S
C521 C520 1.363 . S
C521 C527 1.363 . S
C522 C523 1.363 . S
C522 C527 1.379 . S
C522 N529 1.356 . S
C523 C522 1.363 . S
C523 C526 1.363 . S
N524 C526 1.356 . S
N524 H536 0.984 . S
N524 H537 0.985 . S
N525 C527 1.356 . S
N525 H530 0.984 . S
N525 H531 0.985 . S
C526 C520 1.379 . S
C526 C523 1.363 . S
C526 N524 1.356 . S
C527 C521 1.363 . S
C527 C522 1.379 . S
C527 N525 1.356 . S
N528 C520 1.356 . S
N528 H534 0.984 . S
N528 H535 0.984 . S
N529 C522 1.356 . S
N529 H532 0.984 . S
N529 H533 0.985 . S
H530 N525 0.984 . S
H531 N525 0.985 . S
H532 N529 0.984 . S
H533 N529 0.985 . S
H534 N528 0.984 . S
H535 N528 0.984 . S
H536 N524 0.984 . S
H537 N524 0.985 . S
C538 C539 1.363 . S
C538 C544 1.379 . S
C538 N546 1.356 . S
C539 C538 1.363 . S
C539 C545 1.363 . S
C540 C541 1.363 . S
C540 C545 1.379 . S
C540 N547 1.356 . S
C541 C540 1.363 . S
C541 C544 1.363 . S
N542 C544 1.356 . S
N542 H554 0.984 . S
N542 H555 0.985 . S
N543 C545 1.356 . S
N543 H548 0.984 . S
N543 H549 0.985 . S
C544 C538 1.379 . S
C544 C541 1.363 . S
C544 N542 1.356 . S
C545 C539 1.363 . S
C545 C540 1.379 . S
C545 N543 1.356 . S
N546 C538 1.356 . S
N546 H552 0.984 . S
N546 H553 0.984 . S
N547 C540 1.356 . S
N547 H550 0.984 . S
N547 H551 0.985 . S
H548 N543 0.984 . S
H549 N543 0.985 . S
H550 N547 0.984 . S
H551 N547 0.985 . S
H552 N546 0.984 . S
H553 N546 0.984 . S
H554 N542 0.984 . S
H555 N542 0.985 . S
C556 C557 1.363 . S
C556 C562 1.379 . S
C556 N564 1.356 . S
C557 C556 1.363 . S
C557 C563 1.363 . S
C558 C559 1.363 . S
C558 C563 1.379 . S
C558 N565 1.356 . S
C559 C558 1.363 . S
C559 C562 1.363 . S
N560 C562 1.356 . S
N560 H572 0.984 . S
N560 H573 0.985 . S
N561 C563 1.356 . S
N561 H566 0.984 . S
N561 H567 0.985 . S
C562 C556 1.379 . S
C562 C559 1.363 . S
C562 N560 1.356 . S
C563 C557 1.363 . S
C563 C558 1.379 . S
C563 N561 1.356 . S
N564 C556 1.356 . S
N564 H570 0.984 . S
N564 H571 0.984 . S
N565 C558 1.356 . S
N565 H568 0.984 . S
N565 H569 0.985 . S
H566 N561 0.984 . S
H567 N561 0.985 . S
H568 N565 0.984 . S
H569 N565 0.985 . S
H570 N564 0.984 . S
H571 N564 0.984 . S
H572 N560 0.984 . S
H573 N560 0.985 . S
C574 C575 1.363 . S
C574 C580 1.379 . S
C574 N582 1.356 . S
C575 C574 1.363 . S
C575 C581 1.363 . S
C576 C577 1.363 . S
C576 C581 1.379 . S
C576 N583 1.356 . S
C577 C576 1.363 . S
C577 C580 1.363 . S
N578 C580 1.356 . S
N578 H590 0.984 . S
N578 H591 0.985 . S
N579 C581 1.356 . S
N579 H584 0.984 . S
N579 H585 0.985 . S
C580 C574 1.379 . S
C580 C577 1.363 . S
C580 N578 1.356 . S
C581 C575 1.363 . S
C581 C576 1.379 . S
C581 N579 1.356 . S
N582 C574 1.356 . S
N582 H588 0.984 . S
N582 H589 0.984 . S
N583 C576 1.356 . S
N583 H586 0.984 . S
N583 H587 0.985 . S
H584 N579 0.984 . S
H585 N579 0.985 . S
H586 N583 0.984 . S
H587 N583 0.985 . S
H588 N582 0.984 . S
H589 N582 0.984 . S
H590 N578 0.984 . S
H591 N578 0.985 . S
C592 C593 1.363 . S
C592 C598 1.379 . S
C592 N600 1.356 . S
C593 C592 1.363 . S
C593 C599 1.363 . S
C594 C595 1.363 . S
C594 C599 1.379 . S
C594 N601 1.356 . S
C595 C594 1.363 . S
C595 C598 1.363 . S
N596 C598 1.356 . S
N596 H608 0.984 . S
N596 H609 0.985 . S
N597 C599 1.356 . S
N597 H602 0.984 . S
N597 H603 0.985 . S
C598 C592 1.379 . S
C598 C595 1.363 . S
C598 N596 1.356 . S
C599 C593 1.363 . S
C599 C594 1.379 . S
C599 N597 1.356 . S
N600 C592 1.356 . S
N600 H606 0.984 . S
N600 H607 0.984 . S
N601 C594 1.356 . S
N601 H604 0.984 . S
N601 H605 0.985 . S
H602 N597 0.984 . S
H603 N597 0.985 . S
H604 N601 0.984 . S
H605 N601 0.985 . S
H606 N600 0.984 . S
H607 N600 0.984 . S
H608 N596 0.984 . S
H609 N596 0.985 . S
C610 C611 1.363 . S
C610 C616 1.379 . S
C610 N618 1.356 . S
C611 C610 1.363 . S
C611 C617 1.363 . S
C612 C613 1.363 . S
C612 C617 1.379 . S
C612 N619 1.356 . S
C613 C612 1.363 . S
C613 C616 1.363 . S
N614 C616 1.356 . S
N614 H626 0.984 . S
N614 H627 0.985 . S
N615 C617 1.356 . S
N615 H620 0.984 . S
N615 H621 0.985 . S
C616 C610 1.379 . S
C616 C613 1.363 . S
C616 N614 1.356 . S
C617 C611 1.363 . S
C617 C612 1.379 . S
C617 N615 1.356 . S
N618 C610 1.356 . S
N618 H624 0.984 . S
N618 H625 0.984 . S
N619 C612 1.356 . S
N619 H622 0.984 . S
N619 H623 0.985 . S
H620 N615 0.984 . S
H621 N615 0.985 . S
H622 N619 0.984 . S
H623 N619 0.985 . S
H624 N618 0.984 . S
H625 N618 0.984 . S
H626 N614 0.984 . S
H627 N614 0.985 . S
C628 C629 1.363 . S
C628 C634 1.379 . S
C628 N636 1.356 . S
C629 C628 1.363 . S
C629 C635 1.363 . S
C630 C631 1.363 . S
C630 C635 1.379 . S
C630 N637 1.356 . S
C631 C630 1.363 . S
C631 C634 1.363 . S
N632 C634 1.356 . S
N632 H644 0.984 . S
N632 H645 0.985 . S
N633 C635 1.356 . S
N633 H638 0.984 . S
N633 H639 0.985 . S
C634 C628 1.379 . S
C634 C631 1.363 . S
C634 N632 1.356 . S
C635 C629 1.363 . S
C635 C630 1.379 . S
C635 N633 1.356 . S
N636 C628 1.356 . S
N636 H642 0.984 . S
N636 H643 0.984 . S
N637 C630 1.356 . S
N637 H640 0.984 . S
N637 H641 0.985 . S
H638 N633 0.984 . S
H639 N633 0.985 . S
H640 N637 0.984 . S
H641 N637 0.985 . S
H642 N636 0.984 . S
H643 N636 0.984 . S
H644 N632 0.984 . S
H645 N632 0.985 . S
C646 C647 1.363 . S
C646 C652 1.379 . S
C646 N654 1.356 . S
C647 C646 1.363 . S
C647 C653 1.363 . S
C648 C649 1.363 . S
C648 C653 1.379 . S
C648 N655 1.356 . S
C649 C648 1.363 . S
C649 C652 1.363 . S
N650 C652 1.356 . S
N650 H662 0.984 . S
N650 H663 0.985 . S
N651 C653 1.356 . S
N651 H656 0.984 . S
N651 H657 0.985 . S
C652 C646 1.379 . S
C652 C649 1.363 . S
C652 N650 1.356 . S
C653 C647 1.363 . S
C653 C648 1.379 . S
C653 N651 1.356 . S
N654 C646 1.356 . S
N654 H660 0.984 . S
N654 H661 0.984 . S
N655 C648 1.356 . S
N655 H658 0.984 . S
N655 H659 0.985 . S
H656 N651 0.984 . S
H657 N651 0.985 . S
H658 N655 0.984 . S
H659 N655 0.985 . S
H660 N654 0.984 . S
H661 N654 0.984 . S
H662 N650 0.984 . S
H663 N650 0.985 . S
C664 C665 1.363 . S
C664 C670 1.379 . S
C664 N672 1.356 . S
C665 C664 1.363 . S
C665 C671 1.363 . S
C666 C667 1.363 . S
C666 C671 1.379 . S
C666 N673 1.356 . S
C667 C666 1.363 . S
C667 C670 1.363 . S
N668 C670 1.356 . S
N668 H680 0.984 . S
N668 H681 0.985 . S
N669 C671 1.356 . S
N669 H674 0.984 . S
N669 H675 0.985 . S
C670 C664 1.379 . S
C670 C667 1.363 . S
C670 N668 1.356 . S
C671 C665 1.363 . S
C671 C666 1.379 . S
C671 N669 1.356 . S
N672 C664 1.356 . S
N672 H678 0.984 . S
N672 H679 0.984 . S
N673 C666 1.356 . S
N673 H676 0.984 . S
N673 H677 0.985 . S
H674 N669 0.984 . S
H675 N669 0.985 . S
H676 N673 0.984 . S
H677 N673 0.985 . S
H678 N672 0.984 . S
H679 N672 0.984 . S
H680 N668 0.984 . S
H681 N668 0.985 . S
C682 C683 1.363 . S
C682 C688 1.379 . S
C682 N690 1.356 . S
C683 C682 1.363 . S
C683 C689 1.363 . S
C684 C685 1.363 . S
C684 C689 1.379 . S
C684 N691 1.356 . S
C685 C684 1.363 . S
C685 C688 1.363 . S
N686 C688 1.356 . S
N686 H698 0.984 . S
N686 H699 0.985 . S
N687 C689 1.356 . S
N687 H692 0.984 . S
N687 H693 0.985 . S
C688 C682 1.379 . S
C688 C685 1.363 . S
C688 N686 1.356 . S
C689 C683 1.363 . S
C689 C684 1.379 . S
C689 N687 1.356 . S
N690 C682 1.356 . S
N690 H696 0.984 . S
N690 H697 0.984 . S
N691 C684 1.356 . S
N691 H694 0.984 . S
N691 H695 0.985 . S
H692 N687 0.984 . S
H693 N687 0.985 . S
H694 N691 0.984 . S
H695 N691 0.985 . S
H696 N690 0.984 . S
H697 N690 0.984 . S
H698 N686 0.984 . S
H699 N686 0.985 . S
C700 C701 1.363 . S
C700 C706 1.379 . S
C700 N708 1.356 . S
C701 C700 1.363 . S
C701 C707 1.363 . S
C702 C703 1.363 . S
C702 C707 1.379 . S
C702 N709 1.356 . S
C703 C702 1.363 . S
C703 C706 1.363 . S
N704 C706 1.356 . S
N704 H716 0.984 . S
N704 H717 0.985 . S
N705 C707 1.356 . S
N705 H710 0.984 . S
N705 H711 0.985 . S
C706 C700 1.379 . S
C706 C703 1.363 . S
C706 N704 1.356 . S
C707 C701 1.363 . S
C707 C702 1.379 . S
C707 N705 1.356 . S
N708 C700 1.356 . S
N708 H714 0.984 . S
N708 H715 0.984 . S
N709 C702 1.356 . S
N709 H712 0.984 . S
N709 H713 0.985 . S
H710 N705 0.984 . S
H711 N705 0.985 . S
H712 N709 0.984 . S
H713 N709 0.985 . S
H714 N708 0.984 . S
H715 N708 0.984 . S
H716 N704 0.984 . S
H717 N704 0.985 . S
C718 C719 1.363 . S
C718 C724 1.379 . S
C718 N726 1.356 . S
C719 C718 1.363 . S
C719 C725 1.363 . S
C720 C721 1.363 . S
C720 C725 1.379 . S
C720 N727 1.356 . S
C721 C720 1.363 . S
C721 C724 1.363 . S
N722 C724 1.356 . S
N722 H734 0.984 . S
N722 H735 0.985 . S
N723 C725 1.356 . S
N723 H728 0.984 . S
N723 H729 0.985 . S
C724 C718 1.379 . S
C724 C721 1.363 . S
C724 N722 1.356 . S
C725 C719 1.363 . S
C725 C720 1.379 . S
C725 N723 1.356 . S
N726 C718 1.356 . S
N726 H732 0.984 . S
N726 H733 0.984 . S
N727 C720 1.356 . S
N727 H730 0.984 . S
N727 H731 0.985 . S
H728 N723 0.984 . S
H729 N723 0.985 . S
H730 N727 0.984 . S
H731 N727 0.985 . S
H732 N726 0.984 . S
H733 N726 0.984 . S
H734 N722 0.984 . S
H735 N722 0.985 . S
C736 C737 1.363 . S
C736 C742 1.379 . S
C736 N744 1.356 . S
C737 C736 1.363 . S
C737 C743 1.363 . S
C738 C739 1.363 . S
C738 C743 1.379 . S
C738 N745 1.356 . S
C739 C738 1.363 . S
C739 C742 1.363 . S
N740 C742 1.356 . S
N740 H752 0.984 . S
N740 H753 0.985 . S
N741 C743 1.356 . S
N741 H746 0.984 . S
N741 H747 0.985 . S
C742 C736 1.379 . S
C742 C739 1.363 . S
C742 N740 1.356 . S
C743 C737 1.363 . S
C743 C738 1.379 . S
C743 N741 1.356 . S
N744 C736 1.356 . S
N744 H750 0.984 . S
N744 H751 0.984 . S
N745 C738 1.356 . S
N745 H748 0.984 . S
N745 H749 0.985 . S
H746 N741 0.984 . S
H747 N741 0.985 . S
H748 N745 0.984 . S
H749 N745 0.985 . S
H750 N744 0.984 . S
H751 N744 0.984 . S
H752 N740 0.984 . S
H753 N740 0.985 . S
C754 C755 1.363 . S
C754 C760 1.379 . S
C754 N762 1.356 . S
C755 C754 1.363 . S
C755 C761 1.363 . S
C756 C757 1.363 . S
C756 C761 1.379 . S
C756 N763 1.356 . S
C757 C756 1.363 . S
C757 C760 1.363 . S
N758 C760 1.356 1_455 S
N758 H770 0.984 . S
N758 H771 0.985 . S
N759 C761 1.356 . S
N759 H764 0.984 . S
N759 H765 0.985 . S
C760 C754 1.379 . S
C760 C757 1.363 . S
C760 N758 1.356 1_655 S
C761 C755 1.363 . S
C761 C756 1.379 . S
C761 N759 1.356 . S
N762 C754 1.356 . S
N762 H768 0.984 . S
N762 H769 0.984 . S
N763 C756 1.356 . S
N763 H766 0.984 1_655 S
N763 H767 0.985 . S
H764 N759 0.984 . S
H765 N759 0.985 . S
H766 N763 0.984 1_455 S
H767 N763 0.985 . S
H768 N762 0.984 . S
H769 N762 0.984 . S
H770 N758 0.984 . S
H771 N758 0.985 . S
C772 C773 1.363 . S
C772 C778 1.379 . S
C772 N780 1.356 . S
C773 C772 1.363 . S
C773 C779 1.363 . S
C774 C775 1.363 . S
C774 C779 1.379 . S
C774 N781 1.356 . S
C775 C774 1.363 . S
C775 C778 1.363 . S
N776 C778 1.356 . S
N776 H788 0.984 . S
N776 H789 0.985 . S
N777 C779 1.356 . S
N777 H782 0.984 . S
N777 H783 0.985 . S
C778 C772 1.379 . S
C778 C775 1.363 . S
C778 N776 1.356 . S
C779 C773 1.363 . S
C779 C774 1.379 . S
C779 N777 1.356 . S
N780 C772 1.356 . S
N780 H786 0.984 . S
N780 H787 0.984 . S
N781 C774 1.356 . S
N781 H784 0.984 . S
N781 H785 0.985 . S
H782 N777 0.984 . S
H783 N777 0.985 . S
H784 N781 0.984 . S
H785 N781 0.985 . S
H786 N780 0.984 . S
H787 N780 0.984 . S
H788 N776 0.984 . S
H789 N776 0.985 . S
C790 C791 1.363 . S
C790 C796 1.379 . S
C790 N798 1.356 . S
C791 C790 1.363 . S
C791 C797 1.363 . S
C792 C793 1.363 . S
C792 C797 1.379 . S
C792 N799 1.356 . S
C793 C792 1.363 . S
C793 C796 1.363 . S
N794 C796 1.356 . S
N794 H806 0.984 . S
N794 H807 0.985 . S
N795 C797 1.356 . S
N795 H800 0.984 . S
N795 H801 0.985 . S
C796 C790 1.379 . S
C796 C793 1.363 . S
C796 N794 1.356 . S
C797 C791 1.363 . S
C797 C792 1.379 . S
C797 N795 1.356 . S
N798 C790 1.356 . S
N798 H804 0.984 . S
N798 H805 0.984 . S
N799 C792 1.356 . S
N799 H802 0.984 . S
N799 H803 0.985 . S
H800 N795 0.984 . S
H801 N795 0.985 . S
H802 N799 0.984 . S
H803 N799 0.985 . S
H804 N798 0.984 . S
H805 N798 0.984 . S
H806 N794 0.984 . S
H807 N794 0.985 . S
C808 C809 1.363 . S
C808 C814 1.379 . S
C808 N816 1.356 . S
C809 C808 1.363 . S
C809 C815 1.363 . S
C810 C811 1.363 . S
C810 C815 1.379 . S
C810 N817 1.356 . S
C811 C810 1.363 . S
C811 C814 1.363 . S
N812 C814 1.356 . S
N812 H824 0.984 . S
N812 H825 0.985 . S
N813 C815 1.356 . S
N813 H818 0.984 . S
N813 H819 0.985 . S
C814 C808 1.379 . S
C814 C811 1.363 . S
C814 N812 1.356 . S
C815 C809 1.363 . S
C815 C810 1.379 . S
C815 N813 1.356 . S
N816 C808 1.356 . S
N816 H822 0.984 . S
N816 H823 0.984 . S
N817 C810 1.356 . S
N817 H820 0.984 . S
N817 H821 0.985 . S
H818 N813 0.984 . S
H819 N813 0.985 . S
H820 N817 0.984 . S
H821 N817 0.985 . S
H822 N816 0.984 . S
H823 N816 0.984 . S
H824 N812 0.984 . S
H825 N812 0.985 . S
C826 C827 1.363 . S
C826 C832 1.379 . S
C826 N834 1.356 . S
C827 C826 1.363 . S
C827 C833 1.363 . S
C828 C829 1.363 . S
C828 C833 1.379 . S
C828 N835 1.356 . S
C829 C828 1.363 . S
C829 C832 1.363 . S
N830 C832 1.356 . S
N830 H842 0.984 . S
N830 H843 0.985 . S
N831 C833 1.356 . S
N831 H836 0.984 . S
N831 H837 0.985 . S
C832 C826 1.379 . S
C832 C829 1.363 . S
C832 N830 1.356 . S
C833 C827 1.363 . S
C833 C828 1.379 . S
C833 N831 1.356 . S
N834 C826 1.356 . S
N834 H840 0.984 . S
N834 H841 0.984 . S
N835 C828 1.356 . S
N835 H838 0.984 . S
N835 H839 0.985 . S
H836 N831 0.984 . S
H837 N831 0.985 . S
H838 N835 0.984 . S
H839 N835 0.985 . S
H840 N834 0.984 . S
H841 N834 0.984 . S
H842 N830 0.984 . S
H843 N830 0.985 . S
C844 C845 1.363 . S
C844 C850 1.379 . S
C844 N852 1.356 . S
C845 C844 1.363 . S
C845 C851 1.363 . S
C846 C847 1.363 . S
C846 C851 1.379 . S
C846 N853 1.356 . S
C847 C846 1.363 . S
C847 C850 1.363 . S
N848 C850 1.356 . S
N848 H860 0.984 . S
N848 H861 0.985 . S
N849 C851 1.356 . S
N849 H854 0.984 . S
N849 H855 0.985 . S
C850 C844 1.379 . S
C850 C847 1.363 . S
C850 N848 1.356 . S
C851 C845 1.363 . S
C851 C846 1.379 . S
C851 N849 1.356 . S
N852 C844 1.356 . S
N852 H858 0.984 . S
N852 H859 0.984 . S
N853 C846 1.356 . S
N853 H856 0.984 . S
N853 H857 0.985 . S
H854 N849 0.984 . S
H855 N849 0.985 . S
H856 N853 0.984 . S
H857 N853 0.985 . S
H858 N852 0.984 . S
H859 N852 0.984 . S
H860 N848 0.984 . S
H861 N848 0.985 . S
C862 C863 1.363 . S
C862 C868 1.379 . S
C862 N870 1.356 . S
C863 C862 1.363 . S
C863 C869 1.363 . S
C864 C865 1.363 . S
C864 C869 1.379 . S
C864 N871 1.356 . S
C865 C864 1.363 . S
C865 C868 1.363 . S
N866 C868 1.356 . S
N866 H878 0.984 . S
N866 H879 0.985 . S
N867 C869 1.356 1_455 S
N867 H872 0.984 . S
N867 H873 0.984 1_455 S
C868 C862 1.379 . S
C868 C865 1.363 . S
C868 N866 1.356 . S
C869 C863 1.363 . S
C869 C864 1.379 . S
C869 N867 1.356 1_655 S
N870 C862 1.356 . S
N870 H876 0.984 . S
N870 H877 0.984 1_655 S
N871 C864 1.356 . S
N871 H874 0.984 . S
N871 H875 0.985 . S
H872 N867 0.984 . S
H873 N867 0.984 1_655 S
H874 N871 0.984 . S
H875 N871 0.985 . S
H876 N870 0.984 . S
H877 N870 0.984 1_455 S
H878 N866 0.984 . S
H879 N866 0.985 . S
C880 C881 1.363 . S
C880 C886 1.379 . S
C880 N888 1.356 . S
C881 C880 1.363 . S
C881 C887 1.363 . S
C882 C883 1.363 . S
C882 C887 1.379 . S
C882 N889 1.356 . S
C883 C882 1.363 . S
C883 C886 1.363 . S
N884 C886 1.356 . S
N884 H896 0.984 . S
N884 H897 0.985 . S
N885 C887 1.356 . S
N885 H890 0.984 . S
N885 H891 0.985 . S
C886 C880 1.379 . S
C886 C883 1.363 . S
C886 N884 1.356 . S
C887 C881 1.363 . S
C887 C882 1.379 . S
C887 N885 1.356 . S
N888 C880 1.356 . S
N888 H894 0.984 . S
N888 H895 0.984 . S
N889 C882 1.356 . S
N889 H892 0.984 . S
N889 H893 0.985 . S
H890 N885 0.984 . S
H891 N885 0.985 . S
H892 N889 0.984 . S
H893 N889 0.985 . S
H894 N888 0.984 . S
H895 N888 0.984 . S
H896 N884 0.984 . S
H897 N884 0.985 . S
C898 C899 1.363 . S
C898 C904 1.379 . S
C898 N906 1.356 . S
C899 C898 1.363 . S
C899 C905 1.363 . S
C900 C901 1.363 . S
C900 C905 1.379 . S
C900 N907 1.356 . S
C901 C900 1.363 . S
C901 C904 1.363 . S
N902 C904 1.356 . S
N902 H914 0.984 . S
N902 H915 0.985 . S
N903 C905 1.356 1_655 S
N903 H908 0.984 . S
N903 H909 0.985 . S
C904 C898 1.379 . S
C904 C901 1.363 . S
C904 N902 1.356 . S
C905 C899 1.363 . S
C905 C900 1.379 . S
C905 N903 1.356 1_455 S
N906 C898 1.356 . S
N906 H912 0.984 . S
N906 H913 0.984 1_455 S
N907 C900 1.356 . S
N907 H910 0.984 . S
N907 H911 0.985 . S
H908 N903 0.984 . S
H909 N903 0.985 . S
H910 N907 0.984 . S
H911 N907 0.985 . S
H912 N906 0.984 . S
H913 N906 0.984 1_655 S
H914 N902 0.984 . S
H915 N902 0.985 . S
C916 C917 1.363 . S
C916 C922 1.379 . S
C916 N924 1.356 . S
C917 C916 1.363 . S
C917 C923 1.363 . S
C918 C919 1.363 . S
C918 C923 1.379 . S
C918 N925 1.356 . S
C919 C918 1.363 . S
C919 C922 1.363 . S
N920 C922 1.356 . S
N920 H932 0.984 . S
N920 H933 0.985 . S
N921 C923 1.356 . S
N921 H926 0.984 . S
N921 H927 0.985 . S
C922 C916 1.379 . S
C922 C919 1.363 . S
C922 N920 1.356 . S
C923 C917 1.363 . S
C923 C918 1.379 . S
C923 N921 1.356 . S
N924 C916 1.356 . S
N924 H930 0.984 . S
N924 H931 0.984 . S
N925 C918 1.356 . S
N925 H928 0.984 . S
N925 H929 0.985 . S
H926 N921 0.984 . S
H927 N921 0.985 . S
H928 N925 0.984 . S
H929 N925 0.985 . S
H930 N924 0.984 . S
H931 N924 0.984 . S
H932 N920 0.984 . S
H933 N920 0.985 . S
C934 C935 1.363 . S
C934 C940 1.379 . S
C934 N942 1.356 . S
C935 C934 1.363 . S
C935 C941 1.363 . S
C936 C937 1.363 . S
C936 C941 1.379 . S
C936 N943 1.356 . S
C937 C936 1.363 . S
C937 C940 1.363 . S
N938 C940 1.356 . S
N938 H950 0.984 . S
N938 H951 0.985 . S
N939 C941 1.356 . S
N939 H944 0.984 . S
N939 H945 0.985 . S
C940 C934 1.379 . S
C940 C937 1.363 . S
C940 N938 1.356 . S
C941 C935 1.363 . S
C941 C936 1.379 . S
C941 N939 1.356 . S
N942 C934 1.356 . S
N942 H948 0.984 . S
N942 H949 0.984 . S
N943 C936 1.356 . S
N943 H946 0.984 . S
N943 H947 0.985 . S
H944 N939 0.984 . S
H945 N939 0.985 . S
H946 N943 0.984 . S
H947 N943 0.985 . S
H948 N942 0.984 . S
H949 N942 0.984 . S
H950 N938 0.984 . S
H951 N938 0.985 . S
C952 C953 1.363 . S
C952 C958 1.379 . S
C952 N960 1.356 . S
C953 C952 1.363 . S
C953 C959 1.363 . S
C954 C955 1.363 . S
C954 C959 1.379 . S
C954 N961 1.356 . S
C955 C954 1.363 . S
C955 C958 1.363 . S
N956 C958 1.356 . S
N956 H968 0.984 . S
N956 H969 0.985 . S
N957 C959 1.356 . S
N957 H962 0.984 . S
N957 H963 0.985 . S
C958 C952 1.379 . S
C958 C955 1.363 . S
C958 N956 1.356 . S
C959 C953 1.363 . S
C959 C954 1.379 . S
C959 N957 1.356 . S
N960 C952 1.356 . S
N960 H966 0.984 . S
N960 H967 0.984 . S
N961 C954 1.356 . S
N961 H964 0.984 . S
N961 H965 0.985 . S
H962 N957 0.984 . S
H963 N957 0.985 . S
H964 N961 0.984 . S
H965 N961 0.985 . S
H966 N960 0.984 . S
H967 N960 0.984 . S
H968 N956 0.984 . S
H969 N956 0.985 . S
C970 C971 1.363 . S
C970 C976 1.379 . S
C970 N978 1.356 . S
C971 C970 1.363 . S
C971 C977 1.363 . S
C972 C973 1.363 . S
C972 C977 1.379 . S
C972 N979 1.356 . S
C973 C972 1.363 . S
C973 C976 1.363 . S
N974 C976 1.356 . S
N974 H986 0.984 . S
N974 H987 0.985 . S
N975 C977 1.356 . S
N975 H980 0.984 . S
N975 H981 0.985 . S
C976 C970 1.379 . S
C976 C973 1.363 . S
C976 N974 1.356 . S
C977 C971 1.363 . S
C977 C972 1.379 . S
C977 N975 1.356 . S
N978 C970 1.356 . S
N978 H984 0.984 . S
N978 H985 0.984 . S
N979 C972 1.356 . S
N979 H982 0.984 . S
N979 H983 0.985 . S
H980 N975 0.984 . S
H981 N975 0.985 . S
H982 N979 0.984 . S
H983 N979 0.985 . S
H984 N978 0.984 . S
H985 N978 0.984 . S
H986 N974 0.984 . S
H987 N974 0.985 . S
C988 C989 1.363 . S
C988 C994 1.379 . S
C988 N996 1.356 . S
C989 C988 1.363 . S
C989 C995 1.363 . S
C990 C991 1.363 . S
C990 C995 1.379 . S
C990 N997 1.356 . S
C991 C990 1.363 . S
C991 C994 1.363 . S
N992 C994 1.356 . S
N992 H1004 0.984 . S
N992 H1005 0.985 . S
N993 C995 1.356 . S
N993 H998 0.984 . S
N993 H999 0.985 . S
C994 C988 1.379 . S
C994 C991 1.363 . S
C994 N992 1.356 . S
C995 C989 1.363 . S
C995 C990 1.379 . S
C995 N993 1.356 . S
N996 C988 1.356 . S
N996 H1002 0.984 . S
N996 H1003 0.984 . S
N997 C990 1.356 . S
N997 H1000 0.984 . S
N997 H1001 0.985 . S
H998 N993 0.984 . S
H999 N993 0.985 . S
H1000 N997 0.984 . S
H1001 N997 0.985 . S
H1002 N996 0.984 . S
H1003 N996 0.984 . S
H1004 N992 0.984 . S
H1005 N992 0.985 . S
C1006 C1007 1.363 . S
C1006 C1012 1.379 . S
C1006 N1014 1.356 . S
C1007 C1006 1.363 . S
C1007 C1013 1.363 . S
C1008 C1009 1.363 . S
C1008 C1013 1.379 . S
C1008 N1015 1.356 . S
C1009 C1008 1.363 . S
C1009 C1012 1.363 . S
N1010 C1012 1.356 1_655 S
N1010 H1022 0.984 . S
N1010 H1023 0.985 . S
N1011 C1013 1.356 . S
N1011 H1016 0.984 . S
N1011 H1017 0.985 . S
C1012 C1006 1.379 . S
C1012 C1009 1.363 . S
C1012 N1010 1.356 1_455 S
C1013 C1007 1.363 . S
C1013 C1008 1.379 . S
C1013 N1011 1.356 . S
N1014 C1006 1.356 . S
N1014 H1020 0.984 . S
N1014 H1021 0.984 . S
N1015 C1008 1.356 . S
N1015 H1018 0.984 1_455 S
N1015 H1019 0.985 . S
H1016 N1011 0.984 . S
H1017 N1011 0.985 . S
H1018 N1015 0.984 1_655 S
H1019 N1015 0.985 . S
H1020 N1014 0.984 . S
H1021 N1014 0.984 . S
H1022 N1010 0.984 . S
H1023 N1010 0.985 . S
C1024 C1025 1.363 . S
C1024 C1030 1.379 . S
C1024 N1032 1.356 . S
C1025 C1024 1.363 . S
C1025 C1031 1.363 . S
C1026 C1027 1.363 . S
C1026 C1031 1.379 . S
C1026 N1033 1.356 . S
C1027 C1026 1.363 . S
C1027 C1030 1.363 . S
N1028 C1030 1.356 . S
N1028 H1040 0.984 . S
N1028 H1041 0.985 . S
N1029 C1031 1.356 . S
N1029 H1034 0.984 . S
N1029 H1035 0.985 . S
C1030 C1024 1.379 . S
C1030 C1027 1.363 . S
C1030 N1028 1.356 . S
C1031 C1025 1.363 . S
C1031 C1026 1.379 . S
C1031 N1029 1.356 . S
N1032 C1024 1.356 . S
N1032 H1038 0.984 . S
N1032 H1039 0.984 . S
N1033 C1026 1.356 . S
N1033 H1036 0.984 . S
N1033 H1037 0.985 . S
H1034 N1029 0.984 . S
H1035 N1029 0.985 . S
H1036 N1033 0.984 . S
H1037 N1033 0.985 . S
H1038 N1032 0.984 . S
H1039 N1032 0.984 . S
H1040 N1028 0.984 . S
H1041 N1028 0.985 . S
C1042 C1043 1.363 . S
C1042 C1048 1.379 . S
C1042 N1050 1.356 . S
C1043 C1042 1.363 . S
C1043 C1049 1.363 . S
C1044 C1045 1.363 . S
C1044 C1049 1.379 . S
C1044 N1051 1.356 . S
C1045 C1044 1.363 . S
C1045 C1048 1.363 . S
N1046 C1048 1.356 . S
N1046 H1058 0.984 . S
N1046 H1059 0.985 . S
N1047 C1049 1.356 . S
N1047 H1052 0.984 . S
N1047 H1053 0.985 . S
C1048 C1042 1.379 . S
C1048 C1045 1.363 . S
C1048 N1046 1.356 . S
C1049 C1043 1.363 . S
C1049 C1044 1.379 . S
C1049 N1047 1.356 . S
N1050 C1042 1.356 . S
N1050 H1056 0.984 . S
N1050 H1057 0.984 . S
N1051 C1044 1.356 . S
N1051 H1054 0.984 . S
N1051 H1055 0.985 . S
H1052 N1047 0.984 . S
H1053 N1047 0.985 . S
H1054 N1051 0.984 . S
H1055 N1051 0.985 . S
H1056 N1050 0.984 . S
H1057 N1050 0.984 . S
H1058 N1046 0.984 . S
H1059 N1046 0.985 . S
C1060 C1061 1.363 . S
C1060 C1066 1.379 . S
C1060 N1068 1.356 . S
C1061 C1060 1.363 . S
C1061 C1067 1.363 . S
C1062 C1063 1.363 . S
C1062 C1067 1.379 . S
C1062 N1069 1.356 . S
C1063 C1062 1.363 . S
C1063 C1066 1.363 . S
N1064 C1066 1.356 . S
N1064 H1076 0.984 . S
N1064 H1077 0.985 . S
N1065 C1067 1.356 . S
N1065 H1070 0.984 . S
N1065 H1071 0.985 . S
C1066 C1060 1.379 . S
C1066 C1063 1.363 . S
C1066 N1064 1.356 . S
C1067 C1061 1.363 . S
C1067 C1062 1.379 . S
C1067 N1065 1.356 . S
N1068 C1060 1.356 . S
N1068 H1074 0.984 . S
N1068 H1075 0.984 . S
N1069 C1062 1.356 . S
N1069 H1072 0.984 . S
N1069 H1073 0.985 . S
H1070 N1065 0.984 . S
H1071 N1065 0.985 . S
H1072 N1069 0.984 . S
H1073 N1069 0.985 . S
H1074 N1068 0.984 . S
H1075 N1068 0.984 . S
H1076 N1064 0.984 . S
H1077 N1064 0.985 . S
C1078 C1079 1.363 . S
C1078 C1084 1.379 . S
C1078 N1086 1.356 . S
C1079 C1078 1.363 . S
C1079 C1085 1.363 . S
C1080 C1081 1.363 . S
C1080 C1085 1.379 . S
C1080 N1087 1.356 . S
C1081 C1080 1.363 . S
C1081 C1084 1.363 . S
N1082 C1084 1.356 1_655 S
N1082 H1094 0.984 . S
N1082 H1095 0.985 . S
N1083 C1085 1.356 . S
N1083 H1088 0.984 . S
N1083 H1089 0.985 . S
C1084 C1078 1.379 . S
C1084 C1081 1.363 . S
C1084 N1082 1.356 1_455 S
C1085 C1079 1.363 . S
C1085 C1080 1.379 . S
C1085 N1083 1.356 . S
N1086 C1078 1.356 . S
N1086 H1092 0.984 . S
N1086 H1093 0.984 . S
N1087 C1080 1.356 . S
N1087 H1090 0.984 1_455 S
N1087 H1091 0.985 . S
H1088 N1083 0.984 . S
H1089 N1083 0.985 . S
H1090 N1087 0.984 1_655 S
H1091 N1087 0.985 . S
H1092 N1086 0.984 . S
H1093 N1086 0.984 . S
H1094 N1082 0.984 . S
H1095 N1082 0.985 . S
C1096 C1097 1.363 . S
C1096 C1102 1.379 . S
C1096 N1104 1.356 . S
C1097 C1096 1.363 . S
C1097 C1103 1.363 . S
C1098 C1099 1.363 . S
C1098 C1103 1.379 . S
C1098 N1105 1.356 . S
C1099 C1098 1.363 . S
C1099 C1102 1.363 . S
N1100 C1102 1.356 . S
N1100 H1112 0.984 . S
N1100 H1113 0.985 . S
N1101 C1103 1.356 . S
N1101 H1106 0.984 . S
N1101 H1107 0.985 . S
C1102 C1096 1.379 . S
C1102 C1099 1.363 . S
C1102 N1100 1.356 . S
C1103 C1097 1.363 . S
C1103 C1098 1.379 . S
C1103 N1101 1.356 . S
N1104 C1096 1.356 . S
N1104 H1110 0.984 . S
N1104 H1111 0.984 . S
N1105 C1098 1.356 . S
N1105 H1108 0.984 . S
N1105 H1109 0.985 . S
H1106 N1101 0.984 . S
H1107 N1101 0.985 . S
H1108 N1105 0.984 . S
H1109 N1105 0.985 . S
H1110 N1104 0.984 . S
H1111 N1104 0.984 . S
H1112 N1100 0.984 . S
H1113 N1100 0.985 . S
C1114 C1115 1.363 . S
C1114 C1120 1.379 . S
C1114 N1122 1.356 . S
C1115 C1114 1.363 . S
C1115 C1121 1.363 . S
C1116 C1117 1.363 . S
C1116 C1121 1.379 . S
C1116 N1123 1.356 . S
C1117 C1116 1.363 . S
C1117 C1120 1.363 . S
N1118 C1120 1.356 . S
N1118 H1130 0.984 . S
N1118 H1131 0.985 . S
N1119 C1121 1.356 1_655 S
N1119 H1124 0.984 . S
N1119 H1125 0.985 . S
C1120 C1114 1.379 . S
C1120 C1117 1.363 . S
C1120 N1118 1.356 . S
C1121 C1115 1.363 . S
C1121 C1116 1.379 . S
C1121 N1119 1.356 1_455 S
N1122 C1114 1.356 . S
N1122 H1128 0.984 . S
N1122 H1129 0.980 1_455 S
N1123 C1116 1.356 . S
N1123 H1126 0.984 . S
N1123 H1127 0.985 . S
H1124 N1119 0.984 . S
H1125 N1119 0.985 . S
H1126 N1123 0.984 . S
H1127 N1123 0.985 . S
H1128 N1122 0.984 . S
H1129 N1122 0.980 1_655 S
H1130 N1118 0.984 . S
H1131 N1118 0.985 . S
C1132 C1133 1.363 . S
C1132 C1138 1.379 . S
C1132 N1140 1.356 . S
C1133 C1132 1.363 . S
C1133 C1139 1.363 . S
C1134 C1135 1.363 . S
C1134 C1139 1.379 . S
C1134 N1141 1.356 . S
C1135 C1134 1.363 . S
C1135 C1138 1.363 . S
N1136 C1138 1.356 . S
N1136 H1148 0.984 . S
N1136 H1149 0.985 . S
N1137 C1139 1.356 . S
N1137 H1142 0.984 . S
N1137 H1143 0.985 . S
C1138 C1132 1.379 . S
C1138 C1135 1.363 . S
C1138 N1136 1.356 . S
C1139 C1133 1.363 . S
C1139 C1134 1.379 . S
C1139 N1137 1.356 . S
N1140 C1132 1.356 . S
N1140 H1146 0.984 . S
N1140 H1147 0.984 . S
N1141 C1134 1.356 . S
N1141 H1144 0.984 . S
N1141 H1145 0.985 . S
H1142 N1137 0.984 . S
H1143 N1137 0.985 . S
H1144 N1141 0.984 . S
H1145 N1141 0.985 . S
H1146 N1140 0.984 . S
H1147 N1140 0.984 . S
H1148 N1136 0.984 . S
H1149 N1136 0.985 . S
C1150 C1151 1.363 . S
C1150 C1156 1.379 . S
C1150 N1158 1.356 . S
C1151 C1150 1.363 . S
C1151 C1157 1.363 . S
C1152 C1153 1.363 . S
C1152 C1157 1.379 . S
C1152 N1159 1.356 . S
C1153 C1152 1.363 . S
C1153 C1156 1.363 . S
N1154 C1156 1.356 . S
N1154 H1166 0.984 . S
N1154 H1167 0.985 . S
N1155 C1157 1.356 . S
N1155 H1160 0.984 . S
N1155 H1161 0.985 . S
C1156 C1150 1.379 . S
C1156 C1153 1.363 . S
C1156 N1154 1.356 . S
C1157 C1151 1.363 . S
C1157 C1152 1.379 . S
C1157 N1155 1.356 . S
N1158 C1150 1.356 . S
N1158 H1164 0.984 . S
N1158 H1165 0.984 . S
N1159 C1152 1.356 . S
N1159 H1162 0.984 . S
N1159 H1163 0.985 . S
H1160 N1155 0.984 . S
H1161 N1155 0.985 . S
H1162 N1159 0.984 . S
H1163 N1159 0.985 . S
H1164 N1158 0.984 . S
H1165 N1158 0.984 . S
H1166 N1154 0.984 . S
H1167 N1154 0.985 . S
C1168 C1169 1.363 . S
C1168 C1174 1.379 . S
C1168 N1176 1.356 . S
C1169 C1168 1.363 . S
C1169 C1175 1.363 . S
C1170 C1171 1.363 . S
C1170 C1175 1.379 . S
C1170 N1177 1.356 . S
C1171 C1170 1.363 . S
C1171 C1174 1.363 . S
N1172 C1174 1.356 . S
N1172 H1184 0.984 . S
N1172 H1185 0.985 . S
N1173 C1175 1.356 . S
N1173 H1178 0.984 . S
N1173 H1179 0.985 . S
C1174 C1168 1.379 . S
C1174 C1171 1.363 . S
C1174 N1172 1.356 . S
C1175 C1169 1.363 . S
C1175 C1170 1.379 . S
C1175 N1173 1.356 . S
N1176 C1168 1.356 . S
N1176 H1182 0.984 . S
N1176 H1183 0.984 . S
N1177 C1170 1.356 . S
N1177 H1180 0.984 . S
N1177 H1181 0.985 . S
H1178 N1173 0.984 . S
H1179 N1173 0.985 . S
H1180 N1177 0.984 . S
H1181 N1177 0.985 . S
H1182 N1176 0.984 . S
H1183 N1176 0.984 . S
H1184 N1172 0.984 . S
H1185 N1172 0.985 . S
C1186 C1187 1.363 . S
C1186 C1192 1.379 . S
C1186 N1194 1.356 . S
C1187 C1186 1.363 . S
C1187 C1193 1.363 . S
C1188 C1189 1.363 . S
C1188 C1193 1.379 . S
C1188 N1195 1.356 . S
C1189 C1188 1.363 . S
C1189 C1192 1.363 . S
N1190 C1192 1.356 . S
N1190 H1202 0.984 . S
N1190 H1203 0.985 . S
N1191 C1193 1.356 . S
N1191 H1196 0.984 . S
N1191 H1197 0.985 . S
C1192 C1186 1.379 . S
C1192 C1189 1.363 . S
C1192 N1190 1.356 . S
C1193 C1187 1.363 . S
C1193 C1188 1.379 . S
C1193 N1191 1.356 . S
N1194 C1186 1.356 . S
N1194 H1200 0.984 . S
N1194 H1201 0.984 . S
N1195 C1188 1.356 . S
N1195 H1198 0.984 . S
N1195 H1199 0.985 . S
H1196 N1191 0.984 . S
H1197 N1191 0.985 . S
H1198 N1195 0.984 . S
H1199 N1195 0.985 . S
H1200 N1194 0.984 . S
H1201 N1194 0.984 . S
H1202 N1190 0.984 . S
H1203 N1190 0.985 . S
C1204 C1205 1.363 . S
C1204 C1210 1.379 . S
C1204 N1212 1.356 . S
C1205 C1204 1.363 . S
C1205 C1211 1.363 . S
C1206 C1207 1.363 . S
C1206 C1211 1.379 . S
C1206 N1213 1.356 . S
C1207 C1206 1.363 . S
C1207 C1210 1.363 . S
N1208 C1210 1.356 . S
N1208 H1220 0.984 . S
N1208 H1221 0.985 . S
N1209 C1211 1.356 . S
N1209 H1214 0.984 . S
N1209 H1215 0.985 . S
C1210 C1204 1.379 . S
C1210 C1207 1.363 . S
C1210 N1208 1.356 . S
C1211 C1205 1.363 . S
C1211 C1206 1.379 . S
C1211 N1209 1.356 . S
N1212 C1204 1.356 . S
N1212 H1218 0.984 . S
N1212 H1219 0.984 . S
N1213 C1206 1.356 . S
N1213 H1216 0.984 . S
N1213 H1217 0.985 . S
H1214 N1209 0.984 . S
H1215 N1209 0.985 . S
H1216 N1213 0.984 . S
H1217 N1213 0.985 . S
H1218 N1212 0.984 . S
H1219 N1212 0.984 . S
H1220 N1208 0.984 . S
H1221 N1208 0.985 . S
C1222 C1223 1.363 . S
C1222 C1228 1.379 . S
C1222 N1230 1.356 . S
C1223 C1222 1.363 . S
C1223 C1229 1.363 . S
C1224 C1225 1.363 . S
C1224 C1229 1.379 . S
C1224 N1231 1.356 1_655 S
C1225 C1224 1.363 . S
C1225 C1228 1.363 . S
N1226 C1228 1.356 . S
N1226 H1238 0.984 . S
N1226 H1239 0.985 1_655 S
N1227 C1229 1.356 . S
N1227 H1232 0.984 . S
N1227 H1233 0.985 . S
C1228 C1222 1.379 . S
C1228 C1225 1.363 . S
C1228 N1226 1.356 . S
C1229 C1223 1.363 . S
C1229 C1224 1.379 . S
C1229 N1227 1.356 . S
N1230 C1222 1.356 . S
N1230 H1236 0.984 . S
N1230 H1237 0.984 . S
N1231 C1224 1.356 1_455 S
N1231 H1234 0.984 . S
N1231 H1235 0.985 . S
H1232 N1227 0.984 . S
H1233 N1227 0.985 . S
H1234 N1231 0.984 . S
H1235 N1231 0.985 . S
H1236 N1230 0.984 . S
H1237 N1230 0.984 . S
H1238 N1226 0.984 . S
H1239 N1226 0.985 1_455 S
C1240 C1241 1.363 . S
C1240 C1246 1.379 . S
C1240 N1248 1.356 . S
C1241 C1240 1.363 . S
C1241 C1247 1.363 . S
C1242 C1243 1.363 . S
C1242 C1247 1.379 . S
C1242 N1249 1.356 . S
C1243 C1242 1.363 . S
C1243 C1246 1.363 . S
N1244 C1246 1.356 . S
N1244 H1256 0.984 . S
N1244 H1257 0.985 . S
N1245 C1247 1.356 . S
N1245 H1250 0.984 . S
N1245 H1251 0.985 . S
C1246 C1240 1.379 . S
C1246 C1243 1.363 . S
C1246 N1244 1.356 . S
C1247 C1241 1.363 . S
C1247 C1242 1.379 . S
C1247 N1245 1.356 . S
N1248 C1240 1.356 . S
N1248 H1254 0.984 . S
N1248 H1255 0.984 . S
N1249 C1242 1.356 . S
N1249 H1252 0.984 . S
N1249 H1253 0.985 . S
H1250 N1245 0.984 . S
H1251 N1245 0.985 . S
H1252 N1249 0.984 . S
H1253 N1249 0.985 . S
H1254 N1248 0.984 . S
H1255 N1248 0.984 . S
H1256 N1244 0.984 . S
H1257 N1244 0.985 . S
C1258 C1259 1.363 . S
C1258 C1264 1.379 . S
C1258 N1266 1.356 . S
C1259 C1258 1.363 . S
C1259 C1265 1.363 . S
C1260 C1261 1.363 . S
C1260 C1265 1.379 . S
C1260 N1267 1.356 . S
C1261 C1260 1.363 . S
C1261 C1264 1.363 . S
N1262 C1264 1.356 . S
N1262 H1274 0.984 . S
N1262 H1275 0.985 . S
N1263 C1265 1.356 . S
N1263 H1268 0.984 1_655 S
N1263 H1269 0.985 . S
C1264 C1258 1.379 . S
C1264 C1261 1.363 . S
C1264 N1262 1.356 . S
C1265 C1259 1.363 . S
C1265 C1260 1.379 . S
C1265 N1263 1.356 . S
N1266 C1258 1.356 . S
N1266 H1272 0.984 . S
N1266 H1273 0.984 1_655 S
N1267 C1260 1.356 . S
N1267 H1270 0.984 . S
N1267 H1271 0.985 . S
H1268 N1263 0.984 1_455 S
H1269 N1263 0.985 . S
H1270 N1267 0.984 . S
H1271 N1267 0.985 . S
H1272 N1266 0.984 . S
H1273 N1266 0.984 1_455 S
H1274 N1262 0.984 . S
H1275 N1262 0.985 . S
C1276 C1277 1.363 . S
C1276 C1282 1.379 . S
C1276 N1284 1.356 . S
C1277 C1276 1.363 . S
C1277 C1283 1.363 . S
C1278 C1279 1.363 . S
C1278 C1283 1.379 . S
C1278 N1285 1.356 . S
C1279 C1278 1.363 . S
C1279 C1282 1.363 . S
N1280 C1282 1.356 . S
N1280 H1292 0.984 . S
N1280 H1293 0.985 . S
N1281 C1283 1.356 . S
N1281 H1286 0.984 . S
N1281 H1287 0.985 . S
C1282 C1276 1.379 . S
C1282 C1279 1.363 . S
C1282 N1280 1.356 . S
C1283 C1277 1.363 . S
C1283 C1278 1.379 . S
C1283 N1281 1.356 . S
N1284 C1276 1.356 . S
N1284 H1290 0.984 . S
N1284 H1291 0.984 . S
N1285 C1278 1.356 . S
N1285 H1288 0.984 . S
N1285 H1289 0.985 . S
H1286 N1281 0.984 . S
H1287 N1281 0.985 . S
H1288 N1285 0.984 . S
H1289 N1285 0.985 . S
H1290 N1284 0.984 . S
H1291 N1284 0.984 . S
H1292 N1280 0.984 . S
H1293 N1280 0.985 . S
C1294 C1295 1.363 . S
C1294 C1300 1.379 . S
C1294 N1302 1.356 . S
C1295 C1294 1.363 . S
C1295 C1301 1.363 . S
C1296 C1297 1.363 . S
C1296 C1301 1.379 . S
C1296 N1303 1.356 . S
C1297 C1296 1.363 . S
C1297 C1300 1.363 . S
N1298 C1300 1.356 . S
N1298 H1310 0.984 . S
N1298 H1311 0.985 . S
N1299 C1301 1.356 . S
N1299 H1304 0.984 . S
N1299 H1305 0.985 . S
C1300 C1294 1.379 . S
C1300 C1297 1.363 . S
C1300 N1298 1.356 . S
C1301 C1295 1.363 . S
C1301 C1296 1.379 . S
C1301 N1299 1.356 . S
N1302 C1294 1.356 . S
N1302 H1308 0.984 . S
N1302 H1309 0.984 . S
N1303 C1296 1.356 . S
N1303 H1306 0.984 . S
N1303 H1307 0.985 . S
H1304 N1299 0.984 . S
H1305 N1299 0.985 . S
H1306 N1303 0.984 . S
H1307 N1303 0.985 . S
H1308 N1302 0.984 . S
H1309 N1302 0.984 . S
H1310 N1298 0.984 . S
H1311 N1298 0.985 . S
C1312 C1313 1.363 . S
C1312 C1318 1.379 . S
C1312 N1320 1.356 . S
C1313 C1312 1.363 . S
C1313 C1319 1.363 . S
C1314 C1315 1.363 . S
C1314 C1319 1.379 . S
C1314 N1321 1.356 . S
C1315 C1314 1.363 . S
C1315 C1318 1.363 . S
N1316 C1318 1.356 . S
N1316 H1328 0.984 . S
N1316 H1329 0.985 . S
N1317 C1319 1.356 . S
N1317 H1322 0.984 . S
N1317 H1323 0.985 . S
C1318 C1312 1.379 . S
C1318 C1315 1.363 . S
C1318 N1316 1.356 . S
C1319 C1313 1.363 . S
C1319 C1314 1.379 . S
C1319 N1317 1.356 . S
N1320 C1312 1.356 . S
N1320 H1326 0.984 . S
N1320 H1327 0.984 . S
N1321 C1314 1.356 . S
N1321 H1324 0.984 . S
N1321 H1325 0.985 . S
H1322 N1317 0.984 . S
H1323 N1317 0.985 . S
H1324 N1321 0.984 . S
H1325 N1321 0.985 . S
H1326 N1320 0.984 . S
H1327 N1320 0.984 . S
H1328 N1316 0.984 . S
H1329 N1316 0.985 . S
C1330 C1331 1.363 . S
C1330 C1336 1.379 . S
C1330 N1338 1.356 . S
C1331 C1330 1.363 . S
C1331 C1337 1.363 . S
C1332 C1333 1.363 . S
C1332 C1337 1.379 . S
C1332 N1339 1.356 . S
C1333 C1332 1.363 . S
C1333 C1336 1.363 . S
N1334 C1336 1.356 . S
N1334 H1346 0.984 . S
N1334 H1347 0.985 . S
N1335 C1337 1.356 . S
N1335 H1340 0.984 . S
N1335 H1341 0.985 . S
C1336 C1330 1.379 . S
C1336 C1333 1.363 . S
C1336 N1334 1.356 . S
C1337 C1331 1.363 . S
C1337 C1332 1.379 . S
C1337 N1335 1.356 . S
N1338 C1330 1.356 . S
N1338 H1344 0.984 . S
N1338 H1345 0.984 . S
N1339 C1332 1.356 . S
N1339 H1342 0.984 . S
N1339 H1343 0.985 . S
H1340 N1335 0.984 . S
H1341 N1335 0.985 . S
H1342 N1339 0.984 . S
H1343 N1339 0.985 . S
H1344 N1338 0.984 . S
H1345 N1338 0.984 . S
H1346 N1334 0.984 . S
H1347 N1334 0.985 . S
C1348 C1349 1.363 . S
C1348 C1354 1.379 . S
C1348 N1356 1.356 . S
C1349 C1348 1.363 . S
C1349 C1355 1.363 . S
C1350 C1351 1.363 . S
C1350 C1355 1.379 . S
C1350 N1357 1.356 . S
C1351 C1350 1.363 . S
C1351 C1354 1.363 . S
N1352 C1354 1.356 . S
N1352 H1364 0.984 . S
N1352 H1365 0.985 . S
N1353 C1355 1.356 . S
N1353 H1358 0.984 . S
N1353 H1359 0.985 . S
C1354 C1348 1.379 . S
C1354 C1351 1.363 . S
C1354 N1352 1.356 . S
C1355 C1349 1.363 . S
C1355 C1350 1.379 . S
C1355 N1353 1.356 . S
N1356 C1348 1.356 . S
N1356 H1362 0.984 . S
N1356 H1363 0.984 . S
N1357 C1350 1.356 . S
N1357 H1360 0.984 . S
N1357 H1361 0.985 . S
H1358 N1353 0.984 . S
H1359 N1353 0.985 . S
H1360 N1357 0.984 . S
H1361 N1357 0.985 . S
H1362 N1356 0.984 . S
H1363 N1356 0.984 . S
H1364 N1352 0.984 . S
H1365 N1352 0.985 . S
C1366 C1367 1.363 1_554 S
C1366 C1372 1.379 . S
C1366 N1374 1.356 . S
C1367 C1366 1.363 1_556 S
C1367 C1373 1.363 . S
C1368 C1369 1.363 1_556 S
C1368 C1373 1.379 . S
C1368 N1375 1.356 . S
C1369 C1368 1.363 1_554 S
C1369 C1372 1.363 . S
N1370 C1372 1.356 . S
N1370 H1382 0.984 . S
N1370 H1383 0.985 . S
N1371 C1373 1.356 . S
N1371 H1376 0.984 . S
N1371 H1377 0.985 . S
C1372 C1366 1.379 . S
C1372 C1369 1.363 . S
C1372 N1370 1.356 . S
C1373 C1367 1.363 . S
C1373 C1368 1.379 . S
C1373 N1371 1.356 . S
N1374 C1366 1.356 . S
N1374 H1380 0.984 . S
N1374 H1381 0.984 1_554 S
N1375 C1368 1.356 . S
N1375 H1378 0.984 1_556 S
N1375 H1379 0.985 . S
H1376 N1371 0.984 . S
H1377 N1371 0.985 . S
H1378 N1375 0.984 1_554 S
H1379 N1375 0.985 . S
H1380 N1374 0.984 . S
H1381 N1374 0.984 1_556 S
H1382 N1370 0.984 . S
H1383 N1370 0.985 . S
C1384 C1385 1.363 . S
C1384 C1390 1.379 . S
C1384 N1392 1.356 . S
C1385 C1384 1.363 . S
C1385 C1391 1.363 . S
C1386 C1387 1.363 . S
C1386 C1391 1.379 . S
C1386 N1393 1.356 . S
C1387 C1386 1.363 . S
C1387 C1390 1.363 . S
N1388 C1390 1.356 . S
N1388 H1400 0.984 . S
N1388 H1401 0.985 . S
N1389 C1391 1.356 . S
N1389 H1394 0.984 . S
N1389 H1395 0.985 . S
C1390 C1384 1.379 . S
C1390 C1387 1.363 . S
C1390 N1388 1.356 . S
C1391 C1385 1.363 . S
C1391 C1386 1.379 . S
C1391 N1389 1.356 . S
N1392 C1384 1.356 . S
N1392 H1398 0.984 . S
N1392 H1399 0.984 . S
N1393 C1386 1.356 . S
N1393 H1396 0.984 . S
N1393 H1397 0.985 . S
H1394 N1389 0.984 . S
H1395 N1389 0.985 . S
H1396 N1393 0.984 . S
H1397 N1393 0.985 . S
H1398 N1392 0.984 . S
H1399 N1392 0.984 . S
H1400 N1388 0.984 . S
H1401 N1388 0.985 . S
C1402 C1403 1.363 . S
C1402 C1408 1.379 . S
C1402 N1410 1.356 . S
C1403 C1402 1.363 . S
C1403 C1409 1.363 . S
C1404 C1405 1.363 . S
C1404 C1409 1.379 . S
C1404 N1411 1.356 . S
C1405 C1404 1.363 . S
C1405 C1408 1.363 . S
N1406 C1408 1.356 . S
N1406 H1418 0.984 . S
N1406 H1419 0.985 . S
N1407 C1409 1.356 . S
N1407 H1412 0.984 . S
N1407 H1413 0.985 . S
C1408 C1402 1.379 . S
C1408 C1405 1.363 . S
C1408 N1406 1.356 . S
C1409 C1403 1.363 . S
C1409 C1404 1.379 . S
C1409 N1407 1.356 . S
N1410 C1402 1.356 . S
N1410 H1416 0.984 . S
N1410 H1417 0.984 . S
N1411 C1404 1.356 . S
N1411 H1414 0.984 . S
N1411 H1415 0.985 . S
H1412 N1407 0.984 . S
H1413 N1407 0.985 . S
H1414 N1411 0.984 . S
H1415 N1411 0.985 . S
H1416 N1410 0.984 . S
H1417 N1410 0.984 . S
H1418 N1406 0.984 . S
H1419 N1406 0.985 . S
C1420 C1421 1.363 . S
C1420 C1426 1.379 . S
C1420 N1428 1.356 . S
C1421 C1420 1.363 . S
C1421 C1427 1.363 . S
C1422 C1423 1.363 . S
C1422 C1427 1.379 . S
C1422 N1429 1.356 . S
C1423 C1422 1.363 . S
C1423 C1426 1.363 . S
N1424 C1426 1.356 . S
N1424 H1436 0.984 . S
N1424 H1437 0.985 . S
N1425 C1427 1.356 . S
N1425 H1430 0.984 . S
N1425 H1431 0.985 . S
C1426 C1420 1.379 . S
C1426 C1423 1.363 . S
C1426 N1424 1.356 . S
C1427 C1421 1.363 . S
C1427 C1422 1.379 . S
C1427 N1425 1.356 . S
N1428 C1420 1.356 . S
N1428 H1434 0.984 . S
N1428 H1435 0.984 . S
N1429 C1422 1.356 . S
N1429 H1432 0.984 . S
N1429 H1433 0.985 . S
H1430 N1425 0.984 . S
H1431 N1425 0.985 . S
H1432 N1429 0.984 . S
H1433 N1429 0.985 . S
H1434 N1428 0.984 . S
H1435 N1428 0.984 . S
H1436 N1424 0.984 . S
H1437 N1424 0.985 . S
C1438 C1439 1.363 1_556 S
C1438 C1444 1.379 . S
C1438 N1446 1.356 . S
C1439 C1438 1.363 1_554 S
C1439 C1445 1.363 . S
C1440 C1441 1.363 1_554 S
C1440 C1445 1.379 . S
C1440 N1447 1.356 . S
C1441 C1440 1.363 1_556 S
C1441 C1444 1.363 . S
N1442 C1444 1.356 . S
N1442 H1454 0.984 . S
N1442 H1455 0.985 . S
N1443 C1445 1.356 . S
N1443 H1448 0.984 . S
N1443 H1449 0.985 . S
C1444 C1438 1.379 . S
C1444 C1441 1.363 . S
C1444 N1442 1.356 . S
C1445 C1439 1.363 . S
C1445 C1440 1.379 . S
C1445 N1443 1.356 . S
N1446 C1438 1.356 . S
N1446 H1452 0.984 . S
N1446 H1453 0.984 1_556 S
N1447 C1440 1.356 . S
N1447 H1450 0.984 1_554 S
N1447 H1451 0.985 . S
H1448 N1443 0.984 . S
H1449 N1443 0.985 . S
H1450 N1447 0.984 1_556 S
H1451 N1447 0.985 . S
H1452 N1446 0.984 . S
H1453 N1446 0.984 1_554 S
H1454 N1442 0.984 . S
H1455 N1442 0.985 . S
C1456 C1457 1.363 . S
C1456 C1462 1.383 . S
C1456 N1464 1.356 . S
C1457 C1456 1.363 . S
C1457 C1463 1.359 1_565 S
C1458 C1459 1.363 . S
C1458 C1463 1.383 . S
C1458 N1465 1.356 . S
C1459 C1458 1.363 . S
C1459 C1462 1.359 1_545 S
N1460 C1462 1.355 1_545 S
N1460 H1472 0.984 1_545 S
N1460 H1473 0.985 . S
N1461 C1463 1.355 1_565 S
N1461 H1466 0.984 . S
N1461 H1467 0.985 1_565 S
C1462 C1456 1.383 . S
C1462 C1459 1.359 1_565 S
C1462 N1460 1.355 1_565 S
C1463 C1457 1.359 1_545 S
C1463 C1458 1.383 . S
C1463 N1461 1.355 1_545 S
N1464 C1456 1.356 . S
N1464 H1470 0.984 . S
N1464 H1471 0.984 . S
N1465 C1458 1.356 . S
N1465 H1468 0.984 . S
N1465 H1469 0.985 . S
H1466 N1461 0.984 . S
H1467 N1461 0.985 1_545 S
H1468 N1465 0.984 . S
H1469 N1465 0.985 . S
H1470 N1464 0.984 . S
H1471 N1464 0.984 . S
H1472 N1460 0.984 1_565 S
H1473 N1460 0.985 . S
C1474 C1475 1.363 1_556 S
C1474 C1480 1.379 . S
C1474 N1482 1.356 . S
C1475 C1474 1.363 1_554 S
C1475 C1481 1.363 . S
C1476 C1477 1.363 1_554 S
C1476 C1481 1.379 . S
C1476 N1483 1.356 . S
C1477 C1476 1.363 1_556 S
C1477 C1480 1.363 . S
N1478 C1480 1.356 . S
N1478 H1490 0.984 . S
N1478 H1491 0.985 . S
N1479 C1481 1.356 . S
N1479 H1484 0.984 . S
N1479 H1485 0.985 . S
C1480 C1474 1.379 . S
C1480 C1477 1.363 . S
C1480 N1478 1.356 . S
C1481 C1475 1.363 . S
C1481 C1476 1.379 . S
C1481 N1479 1.356 . S
N1482 C1474 1.356 . S
N1482 H1488 0.984 . S
N1482 H1489 0.984 1_556 S
N1483 C1476 1.356 . S
N1483 H1486 0.984 1_554 S
N1483 H1487 0.985 . S
H1484 N1479 0.984 . S
H1485 N1479 0.985 . S
H1486 N1483 0.984 1_556 S
H1487 N1483 0.985 . S
H1488 N1482 0.984 . S
H1489 N1482 0.984 1_554 S
H1490 N1478 0.984 . S
H1491 N1478 0.985 . S
C1492 C1493 1.363 . S
C1492 C1498 1.379 1_545 S
C1492 N1500 1.356 . S
C1493 C1492 1.363 . S
C1493 C1499 1.363 . S
C1494 C1495 1.363 . S
C1494 C1499 1.379 1_565 S
C1494 N1501 1.356 . S
C1495 C1494 1.363 . S
C1495 C1498 1.363 . S
N1496 C1498 1.356 . S
N1496 H1508 0.984 . S
N1496 H1509 0.985 . S
N1497 C1499 1.356 . S
N1497 H1502 0.984 . S
N1497 H1503 0.985 . S
C1498 C1492 1.379 1_565 S
C1498 C1495 1.363 . S
C1498 N1496 1.356 . S
C1499 C1493 1.363 . S
C1499 C1494 1.379 1_545 S
C1499 N1497 1.356 . S
N1500 C1492 1.356 . S
N1500 H1506 0.987 . S
N1500 H1507 0.984 . S
N1501 C1494 1.356 . S
N1501 H1504 0.984 . S
N1501 H1505 0.987 . S
H1502 N1497 0.984 . S
H1503 N1497 0.985 . S
H1504 N1501 0.984 . S
H1505 N1501 0.987 . S
H1506 N1500 0.987 . S
H1507 N1500 0.984 . S
H1508 N1496 0.984 . S
H1509 N1496 0.985 . S
C1510 C1511 1.363 . S
C1510 C1516 1.379 . S
C1510 N1518 1.356 . S
C1511 C1510 1.363 . S
C1511 C1517 1.363 . S
C1512 C1513 1.363 . S
C1512 C1517 1.379 . S
C1512 N1519 1.356 . S
C1513 C1512 1.363 . S
C1513 C1516 1.363 . S
N1514 C1516 1.356 . S
N1514 H1526 0.984 . S
N1514 H1527 0.985 . S
N1515 C1517 1.356 . S
N1515 H1520 0.984 . S
N1515 H1521 0.985 . S
C1516 C1510 1.379 . S
C1516 C1513 1.363 . S
C1516 N1514 1.356 . S
C1517 C1511 1.363 . S
C1517 C1512 1.379 . S
C1517 N1515 1.356 . S
N1518 C1510 1.356 . S
N1518 H1524 0.984 . S
N1518 H1525 0.984 . S
N1519 C1512 1.356 . S
N1519 H1522 0.984 . S
N1519 H1523 0.985 . S
H1520 N1515 0.984 . S
H1521 N1515 0.985 . S
H1522 N1519 0.984 . S
H1523 N1519 0.985 . S
H1524 N1518 0.984 . S
H1525 N1518 0.984 . S
H1526 N1514 0.984 . S
H1527 N1514 0.985 . S
C1528 C1529 1.363 . S
C1528 C1534 1.380 . S
C1528 N1536 1.356 . S
C1529 C1528 1.363 . S
C1529 C1535 1.361 1_545 S
C1530 C1531 1.363 . S
C1530 C1535 1.380 . S
C1530 N1537 1.356 . S
C1531 C1530 1.363 . S
C1531 C1534 1.361 1_565 S
N1532 C1534 1.356 1_565 S
N1532 H1544 0.984 1_565 S
N1532 H1545 0.985 . S
N1533 C1535 1.356 1_545 S
N1533 H1538 0.984 . S
N1533 H1539 0.985 1_545 S
C1534 C1528 1.380 . S
C1534 C1531 1.361 1_545 S
C1534 N1532 1.356 1_545 S
C1535 C1529 1.361 1_565 S
C1535 C1530 1.380 . S
C1535 N1533 1.356 1_565 S
N1536 C1528 1.356 . S
N1536 H1542 0.984 . S
N1536 H1543 0.984 . S
N1537 C1530 1.356 . S
N1537 H1540 0.984 . S
N1537 H1541 0.985 . S
H1538 N1533 0.984 . S
H1539 N1533 0.985 1_565 S
H1540 N1537 0.984 . S
H1541 N1537 0.985 . S
H1542 N1536 0.984 . S
H1543 N1536 0.984 . S
H1544 N1532 0.984 1_545 S
H1545 N1532 0.985 . S
C1546 C1547 1.363 . S
C1546 C1552 1.379 . S
C1546 N1554 1.356 . S
C1547 C1546 1.363 . S
C1547 C1553 1.363 1_554 S
C1548 C1549 1.363 . S
C1548 C1553 1.379 . S
C1548 N1555 1.356 . S
C1549 C1548 1.363 . S
C1549 C1552 1.363 1_556 S
N1550 C1552 1.356 . S
N1550 H1562 0.984 . S
N1550 H1563 0.985 1_554 S
N1551 C1553 1.356 . S
N1551 H1556 0.984 1_556 S
N1551 H1557 0.985 . S
C1552 C1546 1.379 . S
C1552 C1549 1.363 1_554 S
C1552 N1550 1.356 . S
C1553 C1547 1.363 1_556 S
C1553 C1548 1.379 . S
C1553 N1551 1.356 . S
N1554 C1546 1.356 . S
N1554 H1560 0.984 . S
N1554 H1561 0.984 . S
N1555 C1548 1.356 . S
N1555 H1558 0.984 . S
N1555 H1559 0.985 . S
H1556 N1551 0.984 1_554 S
H1557 N1551 0.985 . S
H1558 N1555 0.984 . S
H1559 N1555 0.985 . S
H1560 N1554 0.984 . S
H1561 N1554 0.984 . S
H1562 N1550 0.984 . S
H1563 N1550 0.985 1_556 S
C1564 C1565 1.363 . S
C1564 C1570 1.379 1_545 S
C1564 N1572 1.356 . S
C1565 C1564 1.363 . S
C1565 C1571 1.363 . S
C1566 C1567 1.363 . S
C1566 C1571 1.379 1_565 S
C1566 N1573 1.356 . S
C1567 C1566 1.363 . S
C1567 C1570 1.363 . S
N1568 C1570 1.356 . S
N1568 H1580 0.984 . S
N1568 H1581 0.985 . S
N1569 C1571 1.356 . S
N1569 H1574 0.984 . S
N1569 H1575 0.985 . S
C1570 C1564 1.379 1_565 S
C1570 C1567 1.363 . S
C1570 N1568 1.356 . S
C1571 C1565 1.363 . S
C1571 C1566 1.379 1_545 S
C1571 N1569 1.356 . S
N1572 C1564 1.356 . S
N1572 H1578 0.984 . S
N1572 H1579 0.984 . S
N1573 C1566 1.356 . S
N1573 H1576 0.984 . S
N1573 H1577 0.985 . S
H1574 N1569 0.984 . S
H1575 N1569 0.985 . S
H1576 N1573 0.984 . S
H1577 N1573 0.985 . S
H1578 N1572 0.984 . S
H1579 N1572 0.984 . S
H1580 N1568 0.984 . S
H1581 N1568 0.985 . S
C1582 C1583 1.363 . S
C1582 C1588 1.379 . S
C1582 N1590 1.356 . S
C1583 C1582 1.363 . S
C1583 C1589 1.363 . S
C1584 C1585 1.363 . S
C1584 C1589 1.379 . S
C1584 N1591 1.356 . S
C1585 C1584 1.363 . S
C1585 C1588 1.363 . S
N1586 C1588 1.356 . S
N1586 H1598 0.984 . S
N1586 H1599 0.985 . S
N1587 C1589 1.356 . S
N1587 H1592 0.984 . S
N1587 H1593 0.985 . S
C1588 C1582 1.379 . S
C1588 C1585 1.363 . S
C1588 N1586 1.356 . S
C1589 C1583 1.363 . S
C1589 C1584 1.379 . S
C1589 N1587 1.356 . S
N1590 C1582 1.356 . S
N1590 H1596 0.984 . S
N1590 H1597 0.984 . S
N1591 C1584 1.356 . S
N1591 H1594 0.984 . S
N1591 H1595 0.985 . S
H1592 N1587 0.984 . S
H1593 N1587 0.985 . S
H1594 N1591 0.984 . S
H1595 N1591 0.985 . S
H1596 N1590 0.984 . S
H1597 N1590 0.984 . S
H1598 N1586 0.984 . S
H1599 N1586 0.985 . S
C449 C7 1.378 . S
C451 C301 1.378 . S
C467 C315 1.378 . S
C469 C21 1.378 . S
C485 C35 1.378 . S
C487 C329 1.378 . S
C503 C287 1.378 . S
C505 C49 1.378 . S
C521 C63 1.378 . S
C523 C273 1.378 . S
C539 C77 1.378 . S
C541 C231 1.378 . S
C557 C245 1.378 . S
C559 C91 1.378 . S
C575 C105 1.378 . S
C577 C259 1.378 . S
C593 C119 1.378 . S
C595 C413 1.378 . S
C611 C133 1.378 . S
C613 C427 1.378 . S
C629 C441 1.378 . S
C631 C147 1.378 . S
C647 C399 1.378 . S
C649 C161 1.378 . S
C665 C175 1.378 . S
C667 C385 1.378 . S
C683 C343 1.378 . S
C685 C189 1.378 . S
C701 C203 1.378 . S
C703 C357 1.378 . S
C719 C371 1.378 . S
C721 C217 1.378 . S
C737 C9 1.364 . S
C739 C129 1.444 . S
C755 C23 1.364 . S
C757 C367 1.444 1_655 S
C773 C157 1.444 . S
C775 C37 1.364 . S
C791 C51 1.364 . S
C793 C339 1.444 . S
C809 C65 1.364 . S
C811 C213 1.444 . S
C827 C395 1.444 . S
C829 C79 1.364 . S
C845 C185 1.444 . S
C847 C93 1.364 . S
C863 C423 1.444 1_655 S
C865 C107 1.364 . S
C881 C121 1.364 . S
C883 C17 1.444 . S
C899 C255 1.444 1_455 S
C901 C135 1.364 . S
C917 C45 1.444 . S
C919 C149 1.364 . S
C935 C163 1.364 . S
C937 C227 1.444 . S
C953 C101 1.444 . S
C955 C177 1.364 . S
C971 C283 1.444 . S
C973 C191 1.364 . S
C989 C73 1.444 . S
C991 C205 1.364 . S
C1007 C219 1.364 . S
C1009 C311 1.444 1_455 S
C1025 C353 1.444 . S
C1027 C233 1.364 . S
C1043 C143 1.444 . S
C1045 C247 1.364 . S
C1061 C381 1.444 . S
C1063 C261 1.364 . S
C1079 C275 1.364 . S
C1081 C115 1.444 1_455 S
C1097 C437 1.444 . S
C1099 C289 1.364 . S
C1115 C171 1.444 1_455 S
C1117 C303 1.364 . S
C1133 C409 1.444 . S
C1135 C317 1.364 . S
C1151 C331 1.364 . S
C1153 C199 1.444 . S
C1169 C345 1.364 . S
C1171 C241 1.444 . S
C1187 C31 1.444 . S
C1189 C359 1.364 . S
C1205 C373 1.364 . S
C1207 C269 1.444 . S
C1223 C387 1.364 . S
C1225 C3 1.444 1_655 S
C1241 C401 1.364 . S
C1243 C325 1.444 . S
C1259 C59 1.444 1_655 S
C1261 C415 1.364 . S
C1277 C297 1.444 . S
C1279 C429 1.364 . S
C1295 C443 1.364 . S
C1297 C87 1.444 . S
C1313 C8 1.413 . S
C1315 C64 1.413 . S
C1331 C22 1.413 . S
C1333 C78 1.413 . S
C1349 C92 1.413 . S
C1351 C36 1.413 . S
C1367 C106 1.413 . S
C1369 C50 1.413 . S
C1385 C176 1.413 . S
C1387 C120 1.413 . S
C1403 C190 1.413 . S
C1405 C134 1.413 . S
C1421 C204 1.413 . S
C1423 C148 1.413 . S
C1439 C218 1.413 . S
C1441 C162 1.413 . S
C1457 C232 1.413 . S
C1459 C288 1.413 . S
C1475 C246 1.413 . S
C1477 C302 1.413 . S
C1493 C260 1.413 . S
C1495 C316 1.413 . S
C1511 C330 1.413 . S
C1513 C274 1.413 . S
C1529 C344 1.413 . S
C1531 C400 1.413 . S
C1547 C414 1.413 . S
C1549 C358 1.413 . S
C1565 C428 1.413 . S
C1567 C372 1.413 . S
C1583 C442 1.413 . S
C1585 C386 1.413 . S
