# Generated by pormake.
# Topology nfc, (4)-cn, num edge types: 1
# Building blocks:
#     Node 0, Type 0, BuildingBlock: ESEHIV_clean_sbu_0, # of connection points: 4
#     Node 1, Type 0, BuildingBlock: ESEHIV_clean_sbu_0, # of connection points: 4
#     Node 2, Type 0, BuildingBlock: ESEHIV_clean_sbu_0, # of connection points: 4
#     Node 3, Type 0, BuildingBlock: ESEHIV_clean_sbu_0, # of connection points: 4
#     Node 4, Type 0, BuildingBlock: ESEHIV_clean_sbu_0, # of connection points: 4
#     Node 5, Type 0, BuildingBlock: ESEHIV_clean_sbu_0, # of connection points: 4
#     Node 6, Type 0, BuildingBlock: ESEHIV_clean_sbu_0, # of connection points: 4
#     Node 7, Type 0, BuildingBlock: ESEHIV_clean_sbu_0, # of connection points: 4
#     Node 8, Type 0, BuildingBlock: ESEHIV_clean_sbu_0, # of connection points: 4
#     Node 9, Type 0, BuildingBlock: ESEHIV_clean_sbu_0, # of connection points: 4
#     Node 10, Type 0, BuildingBlock: ESEHIV_clean_sbu_0, # of connection points: 4
#     Node 11, Type 0, BuildingBlock: ESEHIV_clean_sbu_0, # of connection points: 4
#     Node 12, Type 0, BuildingBlock: ESEHIV_clean_sbu_0, # of connection points: 4
#     Node 13, Type 0, BuildingBlock: ESEHIV_clean_sbu_0, # of connection points: 4
#     Node 14, Type 0, BuildingBlock: ESEHIV_clean_sbu_0, # of connection points: 4
#     Node 15, Type 0, BuildingBlock: ESEHIV_clean_sbu_0, # of connection points: 4
#     Edge 16, Type (0, 0), BuildingBlock: XUDNAN_clean_linker_2, # of connection points: 2
#     Edge 17, Type (0, 0), BuildingBlock: XUDNAN_clean_linker_2, # of connection points: 2
#     Edge 18, Type (0, 0), BuildingBlock: XUDNAN_clean_linker_2, # of connection points: 2
#     Edge 19, Type (0, 0), BuildingBlock: XUDNAN_clean_linker_2, # of connection points: 2
#     Edge 20, Type (0, 0), BuildingBlock: XUDNAN_clean_linker_2, # of connection points: 2
#     Edge 21, Type (0, 0), BuildingBlock: XUDNAN_clean_linker_2, # of connection points: 2
#     Edge 22, Type (0, 0), BuildingBlock: XUDNAN_clean_linker_2, # of connection points: 2
#     Edge 23, Type (0, 0), BuildingBlock: XUDNAN_clean_linker_2, # of connection points: 2
#     Edge 24, Type (0, 0), BuildingBlock: XUDNAN_clean_linker_2, # of connection points: 2
#     Edge 25, Type (0, 0), BuildingBlock: XUDNAN_clean_linker_2, # of connection points: 2
#     Edge 26, Type (0, 0), BuildingBlock: XUDNAN_clean_linker_2, # of connection points: 2
#     Edge 27, Type (0, 0), BuildingBlock: XUDNAN_clean_linker_2, # of connection points: 2
#     Edge 28, Type (0, 0), BuildingBlock: XUDNAN_clean_linker_2, # of connection points: 2
#     Edge 29, Type (0, 0), BuildingBlock: XUDNAN_clean_linker_2, # of connection points: 2
#     Edge 30, Type (0, 0), BuildingBlock: XUDNAN_clean_linker_2, # of connection points: 2
#     Edge 31, Type (0, 0), BuildingBlock: XUDNAN_clean_linker_2, # of connection points: 2
#     Edge 32, Type (0, 0), BuildingBlock: XUDNAN_clean_linker_2, # of connection points: 2
#     Edge 33, Type (0, 0), BuildingBlock: XUDNAN_clean_linker_2, # of connection points: 2
#     Edge 34, Type (0, 0), BuildingBlock: XUDNAN_clean_linker_2, # of connection points: 2
#     Edge 35, Type (0, 0), BuildingBlock: XUDNAN_clean_linker_2, # of connection points: 2
#     Edge 36, Type (0, 0), BuildingBlock: XUDNAN_clean_linker_2, # of connection points: 2
#     Edge 37, Type (0, 0), BuildingBlock: XUDNAN_clean_linker_2, # of connection points: 2
#     Edge 38, Type (0, 0), BuildingBlock: XUDNAN_clean_linker_2, # of connection points: 2
#     Edge 39, Type (0, 0), BuildingBlock: XUDNAN_clean_linker_2, # of connection points: 2
#     Edge 40, Type (0, 0), BuildingBlock: XUDNAN_clean_linker_2, # of connection points: 2
#     Edge 41, Type (0, 0), BuildingBlock: XUDNAN_clean_linker_2, # of connection points: 2
#     Edge 42, Type (0, 0), BuildingBlock: XUDNAN_clean_linker_2, # of connection points: 2
#     Edge 43, Type (0, 0), BuildingBlock: XUDNAN_clean_linker_2, # of connection points: 2
#     Edge 44, Type (0, 0), BuildingBlock: XUDNAN_clean_linker_2, # of connection points: 2
#     Edge 45, Type (0, 0), BuildingBlock: XUDNAN_clean_linker_2, # of connection points: 2
#     Edge 46, Type (0, 0), BuildingBlock: XUDNAN_clean_linker_2, # of connection points: 2
#     Edge 47, Type (0, 0), BuildingBlock: XUDNAN_clean_linker_2, # of connection points: 2
# Relax obj value: 0.068
# Max RMSD: 0.217
# Mean RMSD: 0.158
data_MOF--net-nfc--node1-ESEHIV_clean_sbu_0--edge1-XUDNAN_clean_linker_2
_symmetry_space_group_name_H-M    P1
_symmetry_Int_Tables_number       1
_symmetry_cell_setting            triclinic
loop_
_symmetry_equiv_pos_as_xyz
'x, y, z'
_cell_length_a     39.614659
_cell_length_b     39.540549
_cell_length_c     30.695517
_cell_angle_alpha  88.531024
_cell_angle_beta   88.477831
_cell_angle_gamma 79.799381
loop_
_atom_site_label
_atom_site_type_symbol
_atom_site_fract_x
_atom_site_fract_y
_atom_site_fract_z
_atom_type_partial_charge
Cu0 Cu 0.03298 0.97797 0.035 0.0
N1 N 0.02337 0.93337 0.02859 0.0
N2 N 0.99456 0.89355 1.00494 0.0
C3 C 0.99629 0.92731 1.00621 0.0
C4 C 0.02213 0.87749 0.02696 0.0
C5 C 0.03984 0.90214 0.04162 0.0
O6 O 0.02588 0.99954 0.97769 0.0
C7 C 0.97262 0.99703 0.09065 0.0
O8 O 0.956 0.97987 0.06509 0.0
H9 H 0.9783 0.9475 0.9906 0.0
H10 H 0.06299 0.89759 0.06039 0.0
N11 N 0.0772 0.98091 0.05389 0.0
N12 N 0.11699 1.00466 0.08722 0.0
C13 C 0.08385 1.00828 0.07533 0.0
C14 C 0.10729 0.95897 0.05175 0.0
C15 C 0.13188 0.97357 0.07218 0.0
C16 C 0.04259 0.9823 0.94714 0.0
O17 O 0.06493 0.95474 0.95749 0.0
H18 H 0.06441 0.03055 0.08184 0.0
H19 H 0.11107 0.93405 0.03686 0.0
O20 O 1.00306 1.00081 0.08042 0.0
H21 H 0.02863 0.85002 0.03281 0.0
H22 H 0.15843 0.96178 0.07633 0.0
Cu23 Cu 0.29835 0.78289 0.25474 0.0
N24 N 0.30532 0.81594 0.21269 0.0
N25 N 0.30248 0.84158 0.14655 0.0
C26 C 0.29053 0.81858 0.17349 0.0
C27 C 0.32563 0.85408 0.17034 0.0
C28 C 0.32738 0.83814 0.21106 0.0
O29 O 0.31582 0.73971 0.22289 0.0
C30 C 0.23641 0.79245 0.30856 0.0
O31 O 0.25326 0.76959 0.33556 0.0
H32 H 0.27195 0.80304 0.16486 0.0
H33 H 0.34443 0.84151 0.23692 0.0
N34 N 0.32256 0.78773 0.30563 0.0
N35 N 0.32788 0.80007 0.3758 0.0
C36 C 0.30997 0.80817 0.33902 0.0
C37 C 0.35053 0.76711 0.32132 0.0
C38 C 0.3537 0.77446 0.36464 0.0
C39 C 0.33135 0.70992 0.23517 0.0
O40 O 0.33269 0.70184 0.27692 0.0
H41 H 0.2863 0.82658 0.33752 0.0
H42 H 0.36638 0.74679 0.30345 0.0
O43 O 0.24914 0.79607 0.27035 0.0
H44 H 0.34138 0.87232 0.15877 0.0
H45 H 0.37259 0.76092 0.3867 0.0
Cu46 Cu 0.57327 0.0659 0.54107 0.0
N47 N 0.57919 0.11249 0.53415 0.0
N48 N 0.60027 0.15904 0.50917 0.0
C49 C 0.60062 0.12484 0.50504 0.0
C50 C 0.57762 0.16831 0.54236 0.0
C51 C 0.5648 0.13978 0.55758 0.0
O52 O 0.57717 0.04753 0.48295 0.0
C53 C 0.62404 0.05636 0.60594 0.0
O54 O 0.62633 0.08857 0.59731 0.0
H55 H 0.61616 0.10886 0.48133 0.0
H56 H 0.5468 0.1389 0.58451 0.0
N57 N 0.53045 0.05939 0.56582 0.0
N58 N 0.49096 0.03385 0.60164 0.0
C59 C 0.52329 0.02989 0.58453 0.0
C60 C 0.50152 0.08263 0.57094 0.0
C61 C 0.47731 0.06709 0.59303 0.0
C62 C 0.55618 0.06425 0.45611 0.0
O63 O 0.53348 0.09014 0.47047 0.0
H64 H 0.54185 1.0063 0.58686 0.0
H65 H 0.49835 0.10918 0.55994 0.0
O66 O 0.60652 0.0411 0.58121 0.0
H67 H 0.5712 0.19376 0.5557 0.0
H68 H 0.4516 0.07944 0.60226 0.0
Cu69 Cu 0.25245 0.27651 0.77503 0.0
N70 N 0.273 0.27823 0.71979 0.0
N71 N 0.27063 0.278 0.64698 0.0
C72 C 0.25967 0.26563 0.68521 0.0
C73 C 0.29273 0.29858 0.6583 0.0
C74 C 0.29399 0.29881 0.70326 0.0
O75 O 0.20291 0.29002 0.76285 0.0
C76 C 0.30295 0.22669 0.80787 0.0
O77 O 0.31958 0.25026 0.79162 0.0
H78 H 0.24022 0.24969 0.68874 0.0
H79 H 0.30687 0.31507 0.72237 0.0
N80 N 0.26436 0.3084 0.81322 0.0
N81 N 0.27545 0.3281 0.87778 0.0
C82 C 0.26883 0.3011 0.85588 0.0
C83 C 0.26841 0.34143 0.80788 0.0
C84 C 0.27494 0.35381 0.84802 0.0
C85 C 0.19639 0.31812 0.74041 0.0
O86 O 0.22146 0.33508 0.73171 0.0
H87 H 0.26633 0.27657 0.87092 0.0
H88 H 0.2665 0.35571 0.77729 0.0
O89 O 0.27049 0.23117 0.80243 0.0
H90 H 0.30523 0.31436 0.63608 0.0
H91 H 0.27909 0.37947 0.8548 0.0
Cu92 Cu 0.0158 1.00806 0.50805 0.0
N93 N 0.98214 1.00107 0.46958 0.0
N94 N 0.95557 1.00127 0.40614 0.0
C95 C 0.98129 1.01146 0.42753 0.0
C96 C 0.9395 0.9839 0.43636 0.0
C97 C 0.95598 0.98378 0.47544 0.0
O98 O 0.05942 0.98978 0.47655 0.0
C99 C 0.97602 0.07171 0.5302 0.0
O100 O 0.95165 0.05568 0.51798 0.0
H101 H 0.99962 0.02594 0.41307 0.0
H102 H 0.94972 0.97145 0.50569 0.0
N103 N 1.01133 0.98484 0.56105 0.0
N104 N 1.00782 0.97781 0.63335 0.0
C105 C 0.01264 0.99936 0.59999 0.0
C106 C 1.00515 0.95295 0.57 0.0
C107 C 1.00333 0.9484 0.61476 0.0
C108 C 0.07752 0.96023 0.48487 0.0
O109 O 0.07098 0.94369 0.52083 0.0
H110 H 0.01741 0.02522 0.60381 0.0
H111 H 1.00223 0.93436 0.54575 0.0
O112 O 1.00729 0.0569 0.52494 0.0
H113 H 0.91811 0.97111 0.43049 0.0
H114 H 0.99858 0.92552 0.63224 0.0
Cu115 Cu 0.30694 0.79869 0.76501 0.0
N116 N 0.35138 0.808 0.75142 0.0
N117 N 0.38863 0.84225 0.72826 0.0
C118 C 0.35866 0.8402 0.74985 0.0
C119 C 0.40081 0.80964 0.71608 0.0
C120 C 0.3778 0.78875 0.73008 0.0
O121 O 0.28439 0.80659 0.70902 0.0
C122 C 0.26351 0.8281 0.83628 0.0
O123 O 0.24267 0.8071 0.82673 0.0
H124 H 0.34073 0.8622 0.76135 0.0
H125 H 0.37911 0.76197 0.72254 0.0
N126 N 0.30358 0.75286 0.78376 0.0
N127 N 0.28228 0.71046 0.82027 0.0
C128 C 0.29256 0.7414 0.82291 0.0
C129 C 0.30092 0.72769 0.75599 0.0
C130 C 0.28795 0.70178 0.77815 0.0
C131 C 0.28088 0.83512 0.68794 0.0
O132 O 0.28558 0.86282 0.70797 0.0
H133 H 0.28964 0.75653 0.85207 0.0
H134 H 0.30554 0.72929 0.72117 0.0
O135 O 0.28916 0.83032 0.81122 0.0
H136 H 0.424 0.8015 0.6969 0.0
H137 H 0.28185 0.67891 0.76386 0.0
Cu138 Cu 0.53257 0.03009 0.01809 0.0
N139 N 0.56567 0.03988 0.97737 0.0
N140 N 0.59724 0.03832 0.91581 0.0
C141 C 0.57183 0.02601 0.93776 0.0
C142 C 0.60741 0.06083 0.94279 0.0
C143 C 0.58796 0.06165 0.98081 0.0
O144 O 0.48695 0.04433 0.99127 0.0
C145 C 0.57842 0.97424 0.0485 0.0
O146 O 0.59765 0.99805 0.0453 0.0
H147 H 0.55732 1.00786 0.925 0.0
H148 H 0.58989 0.07706 0.00893 0.0
N149 N 0.5342 0.05524 0.06852 0.0
N150 N 0.54142 0.065 0.13872 0.0
C151 C 0.54004 0.04115 0.10859 0.0
C152 C 0.5315 0.08937 0.07356 0.0
C153 C 0.5358 0.09548 0.11698 0.0
C154 C 0.48197 0.07424 0.97298 0.0
O155 O 0.50706 0.09193 0.97324 0.0
H156 H 0.54309 0.01386 0.11564 0.0
H157 H 0.52739 0.10846 0.04754 0.0
O158 O 0.5471 0.98167 0.03692 0.0
H159 H 0.6275 0.0756 0.93564 0.0
H160 H 0.53572 0.12026 0.13121 0.0
Cu161 Cu 0.28714 0.23816 0.26686 0.0
N162 N 0.28278 0.19308 0.25198 0.0
N163 N 0.25812 0.15082 0.22617 0.0
C164 C 0.25412 0.18455 0.23575 0.0
C165 C 0.29081 0.13764 0.23653 0.0
C166 C 0.30591 0.16369 0.25248 0.0
O167 O 0.27844 0.26694 0.21501 0.0
C168 C 0.2426 0.23566 0.34116 0.0
O169 O 0.24372 0.20322 0.33212 0.0
H170 H 0.23084 0.203 0.23065 0.0
H171 H 0.33191 0.1613 0.26353 0.0
N172 N 0.32966 0.24451 0.28782 0.0
N173 N 0.36381 0.27291 0.32468 0.0
C174 C 0.33163 0.27209 0.31179 0.0
C175 C 0.36205 0.22711 0.28462 0.0
C176 C 0.3832 0.24461 0.30739 0.0
C177 C 0.29798 0.25822 0.18214 0.0
O178 O 0.32218 0.23094 0.18561 0.0
H179 H 0.3095 0.29154 0.31907 0.0
H180 H 0.36982 0.20351 0.26714 0.0
O181 O 0.256 0.25496 0.31459 0.0
H182 H 0.30282 0.11098 0.23349 0.0
H183 H 0.41054 0.23675 0.31143 0.0
Cu184 Cu 0.76612 0.2497 0.75825 0.0
N185 N 0.74068 0.24368 0.70944 0.0
N186 N 0.73544 0.23059 0.63976 0.0
C187 C 0.75222 0.22184 0.67717 0.0
C188 C 0.7119 0.25867 0.64907 0.0
C189 C 0.71515 0.26667 0.69203 0.0
O190 O 0.81383 0.24576 0.73491 0.0
C191 C 0.71391 0.29413 0.80171 0.0
O192 O 0.69847 0.26831 0.79325 0.0
H193 H 0.77527 0.20268 0.67936 0.0
H194 H 0.70255 0.28985 0.7077 0.0
N195 N 0.76473 0.21461 0.79953 0.0
N196 N 0.77466 0.18611 0.86279 0.0
C197 C 0.78409 0.20994 0.83518 0.0
C198 C 0.74225 0.19288 0.80451 0.0
C199 C 0.74815 0.17539 0.84391 0.0
C200 C 0.83188 0.21568 0.7309 0.0
O201 O 0.8194 0.18898 0.74596 0.0
H202 H 0.80311 0.22552 0.84214 0.0
H203 H 0.72184 0.19132 0.78232 0.0
O204 O 0.74502 0.29263 0.78814 0.0
H205 H 0.69597 0.2743 0.62537 0.0
H206 H 0.7332 0.15745 0.85846 0.0
Cu207 Cu 0.7091 0.75569 0.31042 0.0
N208 N 0.69703 0.72398 0.27162 0.0
N209 N 0.69017 0.70169 0.20657 0.0
C210 C 0.70324 0.72546 0.22826 0.0
C211 C 0.67537 0.68407 0.23778 0.0
C212 C 0.67953 0.69795 0.27783 0.0
O213 O 0.6957 0.80002 0.27959 0.0
C214 C 0.76743 0.71145 0.33897 0.0
O215 O 0.74638 0.68942 0.33638 0.0
H216 H 0.7174 0.74352 0.21276 0.0
H217 H 0.6702 0.68976 0.30906 0.0
N218 N 0.68685 0.75703 0.3654 0.0
N219 N 0.682 0.76465 0.43773 0.0
C220 C 0.69987 0.76935 0.40061 0.0
C221 C 0.65951 0.74403 0.38067 0.0
C222 C 0.65653 0.74862 0.42534 0.0
C223 C 0.713 0.80847 0.24677 0.0
O224 O 0.74432 0.79154 0.24026 0.0
H225 H 0.72303 0.78036 0.39912 0.0
H226 H 0.6433 0.73151 0.36107 0.0
O227 O 0.75754 0.74232 0.32512 0.0
H228 H 0.66195 0.66307 0.23213 0.0
H229 H 0.6372 0.7407 0.44694 0.0
Cu230 Cu 0.81416 0.28216 0.27159 0.0
N231 N 0.79918 0.26911 0.21851 0.0
N232 N 0.79249 0.24298 0.15662 0.0
C233 C 0.81264 0.24371 0.19133 0.0
C234 C 0.76575 0.26894 0.16209 0.0
C235 C 0.77005 0.28505 0.20008 0.0
O236 O 0.83762 0.3221 0.25802 0.0
C237 C 0.75425 0.26462 0.31152 0.0
O238 O 0.75949 0.24231 0.28002 0.0
H239 H 0.83649 0.22619 0.19689 0.0
H240 H 0.75305 0.30689 0.21364 0.0
N241 N 0.84553 0.24721 0.29842 0.0
N242 N 0.85487 0.21461 0.35935 0.0
C243 C 0.83487 0.22304 0.32451 0.0
C244 C 0.87494 0.25245 0.31583 0.0
C245 C 0.88062 0.23258 0.35338 0.0
C246 C 0.86268 0.31732 0.23009 0.0
O247 O 0.87135 0.2866 0.21352 0.0
H248 H 0.80957 0.21676 0.32319 0.0
H249 H 0.88777 0.27365 0.3068 0.0
O250 O 0.77352 0.28756 0.31275 0.0
H251 H 0.74504 0.27636 0.13956 0.0
H252 H 0.8987 0.23579 0.37814 0.0
Cu253 Cu 0.7619 0.72653 0.8133 0.0
N254 N 0.76579 0.68341 0.7877 0.0
N255 N 0.75145 0.64289 0.74555 0.0
C256 C 0.74196 0.67475 0.76162 0.0
C257 C 0.78261 0.63105 0.76247 0.0
C258 C 0.7914 0.65608 0.78833 0.0
O259 O 0.73683 0.75658 0.76867 0.0
C260 C 0.74462 0.69913 0.89412 0.0
O261 O 0.76774 0.67344 0.88034 0.0
H262 H 0.71841 0.69199 0.75387 0.0
H263 H 0.81479 0.65444 0.80625 0.0
N264 N 0.8051 0.7382 0.82404 0.0
N265 N 0.84542 0.76389 0.85281 0.0
C266 C 0.81165 0.76171 0.85235 0.0
C267 C 0.83578 0.72504 0.80593 0.0
C268 C 0.86061 0.74073 0.82358 0.0
C269 C 0.75264 0.77124 0.73907 0.0
O270 O 0.78536 0.77199 0.74346 0.0
H271 H 0.79194 0.77671 0.87246 0.0
H272 H 0.8398 0.70572 0.78114 0.0
O273 O 0.73711 0.72584 0.86964 0.0
H274 H 0.798 0.60602 0.75691 0.0
H275 H 0.88763 0.73596 0.81473 0.0
Cu276 Cu 0.55478 0.47163 0.51376 0.0
N277 N 0.50987 0.46677 0.50137 0.0
N278 N 0.46613 0.44349 0.47795 0.0
C279 C 0.50028 0.43872 0.48466 0.0
C280 C 0.45396 0.47592 0.49076 0.0
C281 C 0.48094 0.4902 0.50496 0.0
O282 O 0.57905 0.46962 0.4578 0.0
C283 C 0.59612 0.44165 0.58237 0.0
O284 O 0.61996 0.45739 0.56513 0.0
H285 H 0.51803 0.41524 0.47781 0.0
H286 H 0.4796 0.51603 0.51647 0.0
N287 N 0.55706 0.51363 0.53963 0.0
N288 N 0.58601 0.54793 0.57528 0.0
C289 C 0.58609 0.52693 0.5411 0.0
C290 C 0.53745 0.52746 0.57337 0.0
C291 C 0.55506 0.54879 0.59513 0.0
C292 C 0.60048 0.44516 0.44156 0.0
O293 O 0.61144 0.41749 0.46531 0.0
H294 H 0.60825 0.51825 0.52032 0.0
H295 H 0.51397 0.51937 0.58463 0.0
O296 O 0.57109 0.43773 0.55893 0.0
H297 H 0.42751 0.48876 0.4892 0.0
H298 H 0.54719 0.5608 0.62593 0.0
Cu299 Cu 0.06007 0.54178 0.04113 0.0
N300 N 0.1067 0.54258 0.02497 0.0
N301 N 0.1528 0.56436 1.00002 0.0
C302 C 0.1185 0.56548 0.99722 0.0
C303 C 0.16295 0.53966 0.0305 0.0
C304 C 0.1347 0.52633 0.04563 0.0
O305 O 0.03342 0.55924 0.99055 0.0
C306 C 0.0211 0.58061 0.10908 0.0
O307 O 0.99398 0.58024 0.08549 0.0
H308 H 0.10202 0.58438 0.97771 0.0
H309 H 0.13428 0.50765 0.07193 0.0
N310 N 0.04906 0.49821 0.05828 0.0
N311 N 0.01977 0.45959 0.09038 0.0
C312 C 0.02048 0.49326 0.0812 0.0
C313 C 0.06715 0.46641 0.05265 0.0
C314 C 0.04926 0.44271 0.07218 0.0
C315 C 0.02906 0.59061 0.97809 0.0
O316 O 0.03817 0.61331 1.00385 0.0
H317 H 1.00044 0.51409 0.09084 0.0
H318 H 0.09185 0.46082 0.036 0.0
O319 O 0.05073 0.569 0.09322 0.0
H320 H 0.18878 0.53275 0.04244 0.0
H321 H 0.05786 0.41517 0.07357 0.0
Cu322 Cu 0.55046 0.49705 0.02061 0.0
N323 N 0.56566 0.50619 0.96366 0.0
N324 N 0.57412 0.50029 0.89135 0.0
C325 C 0.55633 0.49221 0.92724 0.0
C326 C 0.59487 0.52108 0.90592 0.0
C327 C 0.58951 0.52473 0.95034 0.0
O328 O 0.53512 0.45266 0.01997 0.0
C329 C 0.49362 0.53268 0.07391 0.0
O330 O 0.49744 0.50371 0.0966 0.0
H331 H 0.53764 0.47536 0.92765 0.0
H332 H 0.60265 0.53931 0.97152 0.0
N333 N 0.58571 0.49308 0.06133 0.0
N334 N 0.61234 0.48245 0.12502 0.0
C335 C 0.58215 0.48664 0.10443 0.0
C336 C 0.61947 0.49306 0.05455 0.0
C337 C 0.63597 0.48632 0.09373 0.0
C338 C 0.54426 0.42418 1.00013 0.0
O339 O 0.52544 0.40029 1.00729 0.0
H340 H 0.55815 0.48363 0.12025 0.0
H341 H 0.63154 0.49646 0.02315 0.0
O342 O 0.51264 0.53453 0.03975 0.0
H343 H 0.61297 0.53268 0.88622 0.0
H344 H 0.66322 0.48417 0.09876 0.0
Cu345 Cu 1.00716 0.55037 0.55119 0.0
N346 N 0.03113 0.55353 0.49804 0.0
N347 N 0.03701 0.56376 0.42633 0.0
C348 C 0.01583 0.55654 0.45911 0.0
C349 C 0.06713 0.56485 0.4454 0.0
C350 C 0.06335 0.55878 0.48965 0.0
O351 O 0.96001 0.57237 0.53652 0.0
C352 C 0.04452 0.48476 0.57214 0.0
O353 O 0.06812 0.4974 0.54945 0.0
H354 H 0.9892 0.55449 0.45525 0.0
H355 H 0.08235 0.55952 0.51411 0.0
N356 N 0.02269 0.57618 0.59446 0.0
N357 N 0.02807 0.59767 0.66015 0.0
C358 C 0.01446 0.5748 0.63731 0.0
C359 C 0.04251 0.60049 0.59015 0.0
C360 C 0.04573 0.61388 0.63055 0.0
C361 C 0.95736 0.60425 0.52604 0.0
O362 O 0.98442 0.61883 0.52978 0.0
H363 H 0.99805 0.55797 0.65123 0.0
H364 H 0.05322 0.60851 0.55966 0.0
O365 O 0.01434 0.50269 0.57491 0.0
H366 H 0.08976 0.57121 0.42896 0.0
H367 H 0.06 0.63397 0.6376 0.0
H368 H 1.00734 0.01841 0.1574 0.0
H369 H 0.90873 0.99311 0.12576 0.0
H370 H 0.89094 0.99772 0.20357 0.0
H371 H 0.0191 0.96766 0.24949 0.0
H372 H 0.03997 0.99608 0.28003 0.0
H373 H 0.04249 0.99721 0.22149 0.0
H374 H 0.01733 0.0623 0.22045 0.0
H375 H 0.015 0.06154 0.27918 0.0
H376 H 0.97712 0.07746 0.24844 0.0
H377 H 0.88685 0.99829 0.28615 0.0
H378 H 0.89657 0.99503 0.36532 0.0
H379 H 0.99921 0.01683 0.34135 0.0
C380 C 0.98156 0.01488 0.16645 0.0
C381 C 0.95932 1.00564 0.13534 0.0
C382 C 0.92612 1.00047 0.14893 0.0
C383 C 0.91579 1.00305 0.19307 0.0
C384 C 0.93894 1.01088 0.22311 0.0
C385 C 0.97107 0.01694 0.21023 0.0
C386 C 0.99256 0.02136 0.24901 0.0
C387 C 0.02545 0.99394 0.25005 0.0
C388 C 1.00098 0.05784 0.24928 0.0
C389 C 0.96791 0.01579 0.28586 0.0
C390 C 0.93694 1.01032 0.27042 0.0
C391 C 0.91091 1.00288 0.29857 0.0
C392 C 0.91682 1.00077 0.34358 0.0
C393 C 0.9487 1.00564 0.36009 0.0
C394 C 0.97429 0.01361 0.33047 0.0
H395 H 0.33498 0.7624 0.45155 0.0
H396 H 0.29605 0.86395 0.39824 0.0
H397 H 0.27622 0.88355 0.4721 0.0
H398 H 0.2656 0.76044 0.53012 0.0
H399 H 0.29298 0.73742 0.57109 0.0
H400 H 0.30415 0.73152 0.51416 0.0
H401 H 0.36337 0.74851 0.52666 0.0
H402 H 0.35254 0.75405 0.58366 0.0
H403 H 0.36526 0.78882 0.55182 0.0
H404 H 0.26325 0.89257 0.55305 0.0
H405 H 0.25814 0.89012 0.63363 0.0
H406 H 0.30249 0.78167 0.63295 0.0
C407 C 0.3226 0.78886 0.45546 0.0
C408 C 0.31744 0.8118 0.41914 0.0
C409 C 0.30034 0.84599 0.42558 0.0
C410 C 0.28897 0.85731 0.4674 0.0
C411 C 0.29428 0.83395 0.50245 0.0
C412 C 0.31058 0.80039 0.49683 0.0
C413 C 0.31309 0.78033 0.53973 0.0
C414 C 0.29274 0.75067 0.5387 0.0
C415 C 0.3508 0.76717 0.55113 0.0
C416 C 0.29629 0.80798 0.57059 0.0
C417 C 0.28558 0.83876 0.54851 0.0
C418 C 0.27116 0.86849 0.57055 0.0
C419 C 0.26828 0.86685 0.61632 0.0
C420 C 0.27934 0.83562 0.6396 0.0
C421 C 0.29296 0.80574 0.61612 0.0
H422 H 0.62368 0.08057 0.85832 0.0
H423 H 0.59687 0.97916 0.87286 0.0
H424 H 0.6114 0.96854 0.79514 0.0
H425 H 0.58679 0.10089 0.76004 0.0
H426 H 0.61885 0.12405 0.73785 0.0
H427 H 0.61223 0.12113 0.79582 0.0
H428 H 0.67657 0.09519 0.8048 0.0
H429 H 0.68335 0.09791 0.74659 0.0
H430 H 0.69513 0.05733 0.77522 0.0
H431 H 0.62045 0.97234 0.71425 0.0
H432 H 0.62083 0.9912 0.637 0.0
H433 H 0.64359 0.08946 0.67551 0.0
C434 C 0.62198 0.05569 0.84557 0.0
C435 C 0.60919 0.03068 0.87176 0.0
C436 C 0.60632 0.99883 0.85337 0.0
C437 C 0.61489 0.99242 0.80935 0.0
C438 C 0.62666 0.01797 0.78417 0.0
C439 C 0.63041 0.04892 0.80172 0.0
C440 C 0.63977 0.07361 0.76681 0.0
C441 C 0.6128 0.10685 0.76503 0.0
C442 C 0.67586 0.08146 0.77378 0.0
C443 C 0.63907 0.05234 0.72662 0.0
C444 C 0.63215 0.02006 0.73735 0.0
C445 C 0.62664 0.99725 0.70547 0.0
C446 C 0.62693 1.00819 0.66161 0.0
C447 C 0.63245 0.04174 0.65008 0.0
C448 C 0.63996 0.06342 0.68305 0.0
H449 H 0.31527 0.27966 0.92536 0.0
H450 H 0.24542 0.37676 0.93386 0.0
H451 H 0.24636 0.37198 0.01471 0.0
H452 H 0.28077 0.23652 1.00816 0.0
H453 H 0.32073 0.21378 0.02915 0.0
H454 H 0.31819 0.22721 0.97277 0.0
H455 H 0.368 0.26147 0.98115 0.0
H456 H 0.37152 0.24623 0.03698 0.0
H457 H 0.36565 0.29167 0.02449 0.0
H458 H 0.24916 0.35187 0.09426 0.0
H459 H 0.25758 0.32113 0.16557 0.0
H460 H 0.32739 0.23831 0.1035 0.0
C461 C 0.30087 0.30025 0.94443 0.0
C462 C 0.28032 0.32858 0.92387 0.0
C463 C 0.26161 0.35511 0.94938 0.0
C464 C 0.26191 0.35247 0.99515 0.0
C465 C 0.28164 0.32349 0.01453 0.0
C466 C 0.30138 0.29824 0.98986 0.0
C467 C 0.31934 0.26902 0.01812 0.0
C468 C 0.30912 0.23463 1.00634 0.0
C469 C 0.35845 0.26697 0.01502 0.0
C470 C 0.30529 0.28083 0.0625 0.0
C471 C 0.28383 0.31242 0.05997 0.0
C472 C 0.2664 0.32743 0.09669 0.0
C473 C 0.2712 0.30973 0.13699 0.0
C474 C 0.29328 0.27744 0.14013 0.0
C475 C 0.31064 0.26312 0.10233 0.0
H476 H 0.03286 0.93352 0.69832 0.0
H477 H 0.98392 0.03868 0.67154 0.0
H478 H 0.9866 0.0519 0.74962 0.0
H479 H 0.99244 0.92371 0.80437 0.0
H480 H 0.03063 0.89851 0.82694 0.0
H481 H 0.02303 0.89725 0.76946 0.0
H482 H 0.08207 0.91488 0.75228 0.0
H483 H 0.08973 0.91639 0.80969 0.0
H484 H 0.09165 0.95358 0.77511 0.0
H485 H 0.99449 0.05315 0.83168 0.0
H486 H 1.00937 0.04275 0.90952 0.0
H487 H 0.05574 0.93771 0.88038 0.0
C488 C 0.02228 0.95916 0.70907 0.0
C489 C 1.00802 0.98502 0.67906 0.0
C490 C 0.9951 0.01854 0.69409 0.0
C491 C 0.99639 0.02624 0.73835 0.0
C492 C 1.01097 1.0002 0.76709 0.0
C493 C 0.02383 0.96738 0.75296 0.0
C494 C 0.03951 0.94436 0.78993 0.0
C495 C 0.02024 0.91418 0.79816 0.0
C496 C 0.07802 0.93157 0.78122 0.0
C497 C 0.03356 0.96933 0.82703 0.0
C498 C 0.01675 1.00133 0.81349 0.0
C499 C 1.00785 0.02823 0.84258 0.0
C500 C 0.01638 0.02214 0.88665 0.0
C501 C 0.03406 0.98961 0.90085 0.0
C502 C 0.04272 0.96306 0.87045 0.0
H503 H 0.82358 0.26298 0.41285 0.0
H504 H 0.85037 0.15301 0.39823 0.0
H505 H 0.81881 0.1441 0.46783 0.0
H506 H 0.83062 0.26618 0.52762 0.0
H507 H 0.79405 0.30006 0.53421 0.0
H508 H 0.81857 0.2968 0.48385 0.0
H509 H 0.76338 0.29425 0.44066 0.0
H510 H 0.73891 0.29819 0.49122 0.0
H511 H 0.73767 0.26245 0.4565 0.0
H512 H 0.78483 0.14861 0.54071 0.0
H513 H 0.75476 0.16569 0.61105 0.0
H514 H 0.74832 0.27281 0.57352 0.0
C515 C 0.82319 0.23707 0.42489 0.0
C516 C 0.83995 0.20859 0.40131 0.0
C517 C 0.83817 0.17497 0.41671 0.0
C518 C 0.8201 0.16982 0.4558 0.0
C519 C 0.80351 0.19865 0.47821 0.0
C520 C 0.80499 0.23161 0.46314 0.0
C521 C 0.78506 0.25845 0.49258 0.0
C522 C 0.80848 0.28171 0.51065 0.0
C523 C 0.75445 0.27963 0.46879 0.0
C524 C 0.77306 0.23563 0.52771 0.0
C525 C 0.78347 0.20119 0.51876 0.0
C526 C 0.77631 0.17549 0.54774 0.0
C527 C 0.75921 0.18532 0.58743 0.0
C528 C 0.74879 0.22046 0.59712 0.0
C529 C 0.75527 0.24577 0.5664 0.0
H530 H 0.51575 0.10572 0.20578 0.0
H531 H 0.58295 1.01005 0.17465 0.0
H532 H 0.59437 0.99883 0.25303 0.0
H533 H 0.56505 0.12918 0.29367 0.0
H534 H 0.52771 0.1468 0.32597 0.0
H535 H 0.52557 0.14733 0.26742 0.0
H536 H 0.47403 0.11502 0.27309 0.0
H537 H 0.47612 0.11427 0.33164 0.0
H538 H 0.47839 0.07468 0.30297 0.0
H539 H 0.59866 0.99845 0.3353 0.0
H540 H 0.59458 1.00881 0.41473 0.0
H541 H 0.5233 0.10387 0.39088 0.0
C542 C 0.53305 0.08256 0.21548 0.0
C543 C 0.54845 0.05876 0.18425 0.0
C544 C 0.57059 0.02843 0.19817 0.0
C545 C 0.57733 0.02191 0.24253 0.0
C546 C 0.56149 0.0458 0.27255 0.0
C547 C 0.53973 0.07547 0.25958 0.0
C548 C 0.52546 0.09674 0.29828 0.0
C549 C 0.53663 0.1321 0.2962 0.0
C550 C 0.48617 0.10037 0.30169 0.0
C551 C 0.54262 0.07446 0.33502 0.0
C552 C 0.56345 0.04526 0.31965 0.0
C553 C 0.58232 0.02119 0.34773 0.0
C554 C 0.57986 0.02726 0.39273 0.0
C555 C 0.55849 0.057 0.40902 0.0
C556 C 0.53964 0.0807 0.37959 0.0
H557 H 0.69839 0.74887 0.14199 0.0
H558 H 0.68703 0.64258 0.16474 0.0
H559 H 0.69378 0.63263 0.08575 0.0
H560 H 0.6543 0.76141 0.03718 0.0
H561 H 0.68341 0.78775 0.01436 0.0
H562 H 0.67452 0.78738 0.07225 0.0
H563 H 0.73948 0.77059 0.08645 0.0
H564 H 0.74855 0.77078 0.0287 0.0
H565 H 0.76377 0.73289 0.06137 0.0
H566 H 0.70751 0.63235 1.00606 0.0
H567 H 0.72663 0.64177 0.93033 0.0
H568 H 0.72831 0.74856 0.95732 0.0
C569 C 0.6972 0.72349 0.1305 0.0
C570 C 0.69219 0.69644 0.15997 0.0
C571 C 0.69041 0.66381 0.1431 0.0
C572 C 0.69432 0.65789 0.09818 0.0
C573 C 0.69968 0.68493 0.07028 0.0
C574 C 0.70094 0.71716 0.08568 0.0
C575 C 0.70861 0.74134 0.04884 0.0
C576 C 0.67841 0.77124 0.0428 0.0
C577 C 0.7421 0.75466 0.05683 0.0
C578 C 0.71247 0.71732 0.01044 0.0
C579 C 0.70695 0.68498 0.0237 0.0
C580 C 0.71133 0.65767 0.99515 0.0
C581 C 0.72223 0.66327 0.9522 0.0
C582 C 0.72842 0.69598 0.93779 0.0
C583 C 0.72284 0.72355 0.96715 0.0
H584 H 0.63459 0.4661 0.6438 0.0
H585 H 0.54623 0.41633 0.63018 0.0
H586 H 0.53198 0.42471 0.70836 0.0
H587 H 0.65636 0.4323 0.75562 0.0
H588 H 0.66906 0.4718 0.77115 0.0
H589 H 0.67417 0.45853 0.71528 0.0
H590 H 0.63858 0.51702 0.6908 0.0
H591 H 0.63274 0.53012 0.7466 0.0
H592 H 0.59593 0.53029 0.71324 0.0
H593 H 0.52363 0.44426 0.78583 0.0
H594 H 0.52505 0.4677 0.85883 0.0
H595 H 0.6199 0.50348 0.82304 0.0
C596 C 0.6128 0.45602 0.65741 0.0
C597 C 0.59164 0.44034 0.63064 0.0
C598 C 0.56299 0.4282 0.64988 0.0
C599 C 0.55457 0.433 0.69429 0.0
C600 C 0.57517 0.44977 0.71925 0.0
C601 C 0.60405 0.46054 0.70172 0.0
C602 C 0.62116 0.47896 0.73532 0.0
C603 C 0.65733 0.45921 0.74491 0.0
C604 C 0.62213 0.5163 0.72059 0.0
C605 C 0.59697 0.47749 0.77422 0.0
C606 C 0.57061 0.4606 0.76418 0.0
C607 C 0.54445 0.45709 0.79425 0.0
C608 C 0.54563 0.47049 0.83597 0.0
C609 C 0.57276 0.48742 0.84763 0.0
C610 C 0.59866 0.49092 0.81583 0.0
H611 H 0.73433 0.1843 0.93454 0.0
H612 H 0.83978 0.17741 0.89013 0.0
H613 H 0.85792 0.17935 0.96641 0.0
H614 H 0.73551 0.24642 1.00545 0.0
H615 H 0.70793 0.23216 0.04704 0.0
H616 H 0.70444 0.22045 0.99148 0.0
H617 H 0.71459 0.15597 0.01436 0.0
H618 H 0.71781 0.16751 0.07037 0.0
H619 H 0.75207 0.13797 0.04483 0.0
H620 H 0.86295 0.19294 0.04479 0.0
H621 H 0.85396 0.21967 0.11718 0.0
H622 H 0.74498 0.21945 0.11023 0.0
C623 C 0.76138 0.18144 0.94126 0.0
C624 C 0.78582 0.18003 0.90686 0.0
C625 C 0.82087 0.17805 0.91636 0.0
C626 C 0.83135 0.17898 0.95952 0.0
C627 C 0.8064 0.18192 0.99278 0.0
C628 C 0.77209 0.18292 0.98413 0.0
C629 C 0.7497 0.19189 0.02435 0.0
C630 C 0.72285 0.22467 0.01659 0.0
C631 C 0.73254 0.16152 0.03937 0.0
C632 C 0.77646 0.19783 0.05619 0.0
C633 C 0.80914 0.19091 0.0379 0.0
C634 C 0.83758 0.19766 0.05983 0.0
C635 C 0.83231 0.21277 0.10093 0.0
C636 C 0.79881 0.22155 0.1191 0.0
C637 C 0.77085 0.21288 0.09699 0.0
H638 H 0.07129 0.56964 0.17029 0.0
H639 H 0.96189 0.60466 0.15567 0.0
H640 H 0.95451 0.6072 0.23583 0.0
H641 H 0.06449 0.51426 0.25897 0.0
H642 H 0.10188 0.52259 0.28612 0.0
H643 H 0.09929 0.5275 0.2278 0.0
H644 H 0.10924 0.59033 0.23222 0.0
H645 H 0.11224 0.58553 0.2906 0.0
H646 H 0.08168 0.6199 0.26702 0.0
H647 H 0.95853 0.60122 0.31784 0.0
H648 H 0.97369 0.58908 0.39468 0.0
H649 H 0.08031 0.55628 0.35539 0.0
C650 C 0.04585 0.5787 0.18377 0.0
C651 C 0.01717 0.58725 0.15651 0.0
C652 C 0.98428 0.59826 0.17576 0.0
C653 C 0.97983 0.59971 0.2213 0.0
C654 C 1.00853 0.59012 0.24717 0.0
C655 C 0.04094 0.58007 0.22906 0.0
C656 C 0.06725 0.56897 0.26393 0.0
C657 C 0.08421 0.53109 0.25889 0.0
C658 C 0.09419 0.5926 0.26341 0.0
C659 C 0.04454 0.57387 0.30456 0.0
C660 C 1.01078 0.58624 0.29423 0.0
C661 C 0.98492 0.5917 0.32625 0.0
C662 C 0.99379 0.58438 0.36989 0.0
C663 C 0.02826 0.57153 0.38131 0.0
C664 C 0.05386 0.56645 0.34796 0.0
H665 H 0.70798 0.73924 0.69467 0.0
H666 H 0.7645 0.82364 0.68524 0.0
H667 H 0.74764 0.83413 0.60853 0.0
H668 H 0.73379 0.70596 0.59341 0.0
H669 H 0.69387 0.69328 0.57995 0.0
H670 H 0.70489 0.69567 0.63613 0.0
H671 H 0.64834 0.73805 0.65166 0.0
H672 H 0.63668 0.73473 0.59574 0.0
H673 H 0.6376 0.77629 0.61804 0.0
H674 H 0.73013 0.83197 0.53161 0.0
H675 H 0.71286 0.81765 0.45885 0.0
H676 H 0.66924 0.73291 0.51554 0.0
C677 C 0.71567 0.76073 0.67688 0.0
C678 C 0.73695 0.78119 0.69621 0.0
C679 C 0.74777 0.80808 0.67129 0.0
C680 C 0.73835 0.81418 0.62767 0.0
C681 C 0.71829 0.79295 0.60913 0.0
C682 C 0.7069 0.76683 0.63288 0.0
C683 C 0.68835 0.74581 0.60379 0.0
C684 C 0.70631 0.70795 0.6033 0.0
C685 C 0.65048 0.74891 0.61815 0.0
C686 C 0.6919 0.7637 0.55984 0.0
C687 C 0.7089 0.79107 0.56398 0.0
C688 C 0.71657 0.81077 0.52801 0.0
C689 C 0.70686 0.80224 0.48668 0.0
C690 C 0.68976 0.77409 0.48118 0.0
C691 C 0.68184 0.75486 0.51857 0.0
H692 H 0.57056 0.50549 0.19333 0.0
H693 H 0.66689 0.43999 0.15964 0.0
H694 H 0.67542 0.4235 0.23756 0.0
H695 H 0.59916 0.53609 0.29396 0.0
H696 H 0.55835 0.5371 0.32175 0.0
H697 H 0.56015 0.54351 0.26349 0.0
H698 H 0.52694 0.49348 0.25366 0.0
H699 H 0.52504 0.48687 0.31185 0.0
H700 H 0.54325 0.45178 0.27734 0.0
H701 H 0.67115 0.41153 0.31953 0.0
H702 H 0.65676 0.40883 0.39854 0.0
H703 H 0.56502 0.48501 0.37806 0.0
C704 C 0.59342 0.48767 0.20243 0.0
C705 C 0.61802 0.47388 0.17051 0.0
C706 C 0.64787 0.451 0.18366 0.0
C707 C 0.65281 0.44139 0.22778 0.0
C708 C 0.62791 0.45531 0.25844 0.0
C709 C 0.59901 0.47831 0.24632 0.0
C710 C 0.57636 0.49007 0.28551 0.0
C711 C 0.57335 0.529 0.29152 0.0
C712 C 0.5408 0.47993 0.28186 0.0
C713 C 0.59676 0.4698 0.32158 0.0
C714 C 0.62629 0.44965 0.30541 0.0
C715 C 0.64831 0.42755 0.33258 0.0
C716 C 0.63993 0.42612 0.37737 0.0
C717 C 0.61006 0.44702 0.3946 0.0
C718 C 0.5884 0.46916 0.36611 0.0
H719 H 0.27029 0.80384 0.09237 0.0
H720 H 0.31642 0.89558 0.09594 0.0
H721 H 0.30599 0.90559 0.01752 0.0
H722 H 0.3039 0.7751 0.99135 0.0
H723 H 0.26607 0.75983 0.97472 0.0
H724 H 0.27501 0.76136 0.0317 0.0
H725 H 0.21526 0.79903 0.04517 0.0
H726 H 0.20623 0.79769 0.98806 0.0
H727 H 0.20334 0.83847 0.01413 0.0
H728 H 0.296 0.90213 0.93684 0.0
H729 H 0.28638 0.88578 0.86145 0.0
H730 H 0.24316 0.79892 0.91185 0.0
C731 C 0.27763 0.82652 0.07732 0.0
C732 C 0.29438 0.84882 0.10104 0.0
C733 C 0.30399 0.87775 0.07891 0.0
C734 C 0.29789 0.88386 0.03425 0.0
C735 C 0.2817 0.86113 0.01201 0.0
C736 C 0.27146 0.83319 0.03294 0.0
C737 C 0.25593 0.81172 1.00131 0.0
C738 C 0.27646 0.77484 0.99968 0.0
C739 C 0.21793 0.81174 0.01286 0.0
C740 C 0.25987 0.83144 0.95905 0.0
C741 C 0.27469 0.85995 0.96589 0.0
C742 C 0.2837 0.88033 0.93123 0.0
C743 C 0.27809 0.87092 0.88854 0.0
C744 C 0.26328 0.8416 0.88086 0.0
C745 C 0.25339 0.82216 0.91673 0.0
H746 H 0.02025 0.54749 0.91201 0.0
H747 H 0.0214 0.65454 0.93897 0.0
H748 H 0.01739 0.6686 0.86026 0.0
H749 H 0.0731 0.54269 0.81949 0.0
H750 H 0.05089 0.51493 0.78973 0.0
H751 H 0.04951 0.51376 0.84838 0.0
H752 H 0.98307 0.52633 0.84838 0.0
H753 H 0.98422 0.52716 0.78962 0.0
H754 H 0.9612 0.56343 0.8188 0.0
H755 H 0.02005 0.66983 0.77828 0.0
H756 H 0.02532 0.65878 0.6993 0.0
H757 H 0.02194 0.55115 0.72546 0.0
C758 C 0.01876 0.57407 0.90155 0.0
C759 C 0.02101 0.59994 0.93186 0.0
C760 C 0.01955 0.63428 0.91654 0.0
C761 C 0.01732 0.64252 0.87182 0.0
C762 C 0.01631 0.61621 0.84277 0.0
C763 C 0.01654 0.58274 0.85703 0.0
C764 C 0.01719 0.55891 0.81894 0.0
C765 C 0.0496 0.53093 0.81917 0.0
C766 C 0.98447 0.54303 0.81894 0.0
C767 C 0.0181 0.58406 0.781 0.0
C768 C 0.01748 0.61699 0.79546 0.0
C769 C 0.02009 0.64423 0.76659 0.0
C770 C 0.02336 0.63767 0.72181 0.0
C771 C 0.02391 0.60416 0.7062 0.0
C772 C 0.02097 0.57713 0.73635 0.0
H773 H 0.27668 0.27567 0.38825 0.0
H774 H 0.19326 0.21804 0.39678 0.0
H775 H 0.18727 0.22851 0.47606 0.0
H776 H 0.31608 0.23984 0.48203 0.0
H777 H 0.33093 0.27822 0.49772 0.0
H778 H 0.32375 0.2713 0.44133 0.0
H779 H 0.28117 0.33086 0.43826 0.0
H780 H 0.28992 0.33641 0.4947 0.0
H781 H 0.24639 0.33851 0.47765 0.0
H782 H 0.19396 0.24077 0.55476 0.0
H783 H 0.21395 0.25074 0.62715 0.0
H784 H 0.29734 0.29548 0.568 0.0
C785 C 0.25624 0.26649 0.40652 0.0
C786 C 0.23476 0.24684 0.38636 0.0
C787 C 0.20945 0.2337 0.41162 0.0
C788 C 0.2059 0.23955 0.45657 0.0
C789 C 0.22823 0.25814 0.47573 0.0
C790 C 0.25298 0.27135 0.45152 0.0
C791 C 0.27663 0.28641 0.48064 0.0
C792 C 0.31404 0.26786 0.47509 0.0
C793 C 0.27335 0.32534 0.47232 0.0
C794 C 0.26193 0.27876 0.52508 0.0
C795 C 0.23358 0.26318 0.52145 0.0
C796 C 0.21615 0.25296 0.55796 0.0
C797 C 0.22813 0.25847 0.59925 0.0
C798 C 0.25784 0.27355 0.60406 0.0
C799 C 0.27457 0.28409 0.56608 0.0
H800 H 0.18558 1.0081 0.0932 0.0
H801 H 0.08392 0.05631 0.13824 0.0
H802 H 0.10922 0.09847 0.17779 0.0
H803 H 0.22834 0.01835 0.19435 0.0
H804 H 0.26704 0.02686 0.16739 0.0
H805 H 0.2411 1.00021 0.14189 0.0
H806 H 0.23666 0.03998 0.07319 0.0
H807 H 0.26253 0.06679 0.09849 0.0
H808 H 0.22076 0.08534 0.07861 0.0
H809 H 0.14501 0.1367 0.21157 0.0
H810 H 0.18921 0.16675 0.23945 0.0
H811 H 0.26844 0.0936 0.17544 0.0
C812 C 0.16857 0.02729 0.11158 0.0
C813 C 0.13246 0.02878 0.11173 0.0
C814 C 0.11144 0.0547 0.13634 0.0
C815 C 0.12564 0.0788 0.15938 0.0
C816 C 0.1611 0.0768 0.15809 0.0
C817 C 0.18237 0.0516 0.13512 0.0
C818 C 0.21974 0.05524 0.13949 0.0
C819 C 0.24026 0.02326 0.16213 0.0
C820 C 0.23586 0.06226 0.09478 0.0
C821 C 0.21603 0.0865 0.16829 0.0
C822 C 0.18192 0.09854 0.17845 0.0
C823 C 0.17182 0.12745 0.20387 0.0
C824 C 0.19716 0.14454 0.21937 0.0
C825 C 0.23242 0.13275 0.20971 0.0
C826 C 0.24182 0.10315 0.18386 0.0
H827 H 0.12443 0.90062 0.49641 0.0
H828 H 0.08518 0.97691 0.39767 0.0
H829 H 0.12021 0.94188 0.34143 0.0
H830 H 0.21156 0.87936 0.44985 0.0
H831 H 0.21581 0.8345 0.46506 0.0
H832 H 0.18895 0.86644 0.4974 0.0
H833 H 0.13762 0.83504 0.48776 0.0
H834 H 0.16417 0.80319 0.45501 0.0
H835 H 0.1248 0.82695 0.43363 0.0
H836 H 0.15804 0.89615 0.29498 0.0
H837 H 0.19829 0.84709 0.26409 0.0
H838 H 0.21261 0.80098 0.39361 0.0
C839 C 0.1235 0.91031 0.46306 0.0
C840 C 0.10198 0.94178 0.45168 0.0
C841 C 0.1016 0.9532 0.40749 0.0
C842 C 0.12129 0.93328 0.37521 0.0
C843 C 0.14155 0.90202 0.38748 0.0
C844 C 0.14313 0.89088 0.43055 0.0
C845 C 0.16678 0.85632 0.43538 0.0
C846 C 0.1976 0.85934 0.46359 0.0
C847 C 0.14716 0.82875 0.45405 0.0
C848 C 0.17788 0.84937 0.38824 0.0
C849 C 0.1631 0.876 0.36105 0.0
C850 C 0.16974 0.87526 0.31613 0.0
C851 C 0.19254 0.84709 0.29878 0.0
C852 C 0.20858 0.81976 0.32612 0.0
C853 C 0.20061 0.82103 0.37147 0.0
H854 H 0.43641 0.85167 0.6636 0.0
H855 H 0.37253 0.90451 0.76698 0.0
H856 H 0.39261 0.95811 0.74613 0.0
H857 H 0.50853 0.89706 0.67605 0.0
H858 H 0.51811 0.89872 0.61838 0.0
H859 H 0.49913 0.86391 0.64144 0.0
H860 H 0.44933 0.8781 0.58738 0.0
H861 H 0.46808 0.91299 0.56422 0.0
H862 H 0.42451 0.92095 0.5851 0.0
H863 H 0.41743 1.00711 0.71262 0.0
H864 H 0.44712 0.04749 0.67053 0.0
H865 H 0.49759 0.96408 0.59003 0.0
C866 C 0.42685 0.8743 0.68231 0.0
C867 C 0.40233 0.87338 0.71697 0.0
C868 C 0.39063 0.90412 0.73994 0.0
C869 C 0.40212 0.93489 0.72846 0.0
C870 C 0.42576 0.93494 0.69401 0.0
C871 C 0.43827 0.90543 0.67142 0.0
C872 C 0.46351 0.91284 0.63548 0.0
C873 C 0.49945 0.89188 0.64332 0.0
C874 C 0.45058 0.9058 0.59038 0.0
C875 C 0.46295 0.95114 0.64125 0.0
C876 C 0.44085 0.96325 0.6752 0.0
C877 C 0.43493 0.99783 0.68614 0.0
C878 C 0.45182 0.02068 0.66183 0.0
C879 C 0.47477 1.00919 0.62686 0.0
C880 C 0.48056 0.9737 0.61681 0.0
H881 H 0.36469 0.22568 0.8442 0.0
H882 H 0.28565 0.16343 0.83407 0.0
H883 H 0.32153 0.11665 0.87703 0.0
H884 H 0.43653 0.16013 0.83199 0.0
H885 H 0.46174 0.17794 0.87057 0.0
H886 H 0.42899 0.20579 0.84081 0.0
H887 H 0.40015 0.22932 0.91348 0.0
H888 H 0.43305 0.20171 0.94341 0.0
H889 H 0.38853 0.19965 0.95441 0.0
H890 H 0.37037 0.07508 0.92042 0.0
H891 H 0.42301 0.04647 0.95844 0.0
H892 H 0.46673 0.13886 0.93817 0.0
C893 C 0.35466 0.20226 0.85079 0.0
C894 C 0.32236 0.19822 0.8352 0.0
C895 C 0.3103 0.16721 0.84551 0.0
C896 C 0.33062 0.14048 0.86988 0.0
C897 C 0.36273 0.14534 0.88417 0.0
C898 C 0.37426 0.17582 0.87507 0.0
C899 C 0.4093 0.17558 0.89348 0.0
C900 C 0.43568 0.18012 0.85704 0.0
C901 C 0.40765 0.2032 0.92826 0.0
C902 C 0.41647 0.13988 0.9137 0.0
C903 C 0.38951 0.12253 0.90852 0.0
C904 C 0.39139 0.08875 0.92462 0.0
C905 C 0.42142 0.07261 0.94622 0.0
C906 C 0.44927 0.0902 0.95144 0.0
C907 C 0.44622 0.12434 0.93493 0.0
H908 H 1.00037 0.83069 0.96707 0.0
H909 H 0.92764 0.92269 0.9989 0.0
H910 H 0.88163 0.89893 0.96455 0.0
H911 H 0.96638 0.81917 0.86201 0.0
H912 H 0.97337 0.77291 0.86636 0.0
H913 H 1.00064 0.79651 0.89473 0.0
H914 H 0.98603 0.76741 0.96768 0.0
H915 H 0.95879 0.74366 0.93946 0.0
H916 H 0.94176 0.77002 0.98475 0.0
H917 H 0.84327 0.8656 0.92647 0.0
H918 H 0.81562 0.82569 0.8853 0.0
H919 H 0.91261 0.75485 0.87709 0.0
C920 C 0.97469 0.84563 0.96714 0.0
C921 C 0.96772 0.87868 0.98567 0.0
C922 C 0.9338 0.89758 0.98451 0.0
C923 C 0.90739 0.88419 0.96527 0.0
C924 C 0.91513 0.85178 0.947 0.0
C925 C 0.94794 0.83271 0.9476 0.0
C926 C 0.94937 0.79893 0.92444 0.0
C927 C 0.97389 0.79677 0.88451 0.0
C928 C 0.95959 0.76819 0.95597 0.0
C929 C 0.91229 0.80205 0.91085 0.0
C930 C 0.89299 0.83268 0.92443 0.0
C931 C 0.85812 0.84147 0.91578 0.0
C932 C 0.84254 0.81846 0.89253 0.0
C933 C 0.86171 0.78692 0.87782 0.0
C934 C 0.89715 0.77878 0.88737 0.0
H935 H 0.83088 0.20356 0.64486 0.0
H936 H 0.89999 0.20672 0.75066 0.0
H937 H 0.94862 0.1779 0.70459 0.0
H938 H 0.86545 0.11943 0.61701 0.0
H939 H 0.8559 0.12759 0.56018 0.0
H940 H 0.8312 0.15324 0.60136 0.0
H941 H 0.84722 0.20736 0.55858 0.0
H942 H 0.87379 0.17974 0.52054 0.0
H943 H 0.89175 0.21052 0.55071 0.0
H944 H 0.98784 0.13963 0.64995 0.0
H945 H 1.01173 0.09592 0.59548 0.0
H946 H 0.91557 0.11657 0.52751 0.0
C947 C 0.85656 0.19975 0.6575 0.0
C948 C 0.86196 0.20869 0.70066 0.0
C949 C 0.89559 0.20141 0.71704 0.0
C950 C 0.9233 0.18477 0.69112 0.0
C951 C 0.91688 0.17516 0.64899 0.0
C952 C 0.88419 0.1826 0.6324 0.0
C953 C 0.88257 0.16541 0.58917 0.0
C954 C 0.8573 0.13993 0.59205 0.0
C955 C 0.87329 0.19235 0.55253 0.0
C956 C 0.91918 0.14666 0.58401 0.0
C957 C 0.93889 0.15274 0.61848 0.0
C958 C 0.97272 0.13536 0.62243 0.0
C959 C 0.98622 0.11064 0.59117 0.0
C960 C 0.96576 0.10308 0.55678 0.0
C961 C 0.93217 0.12214 0.55285 0.0
H962 H 0.74834 0.20215 0.34616 0.0
H963 H 0.7064 0.31041 0.35872 0.0
H964 H 0.66266 0.29541 0.41221 0.0
H965 H 0.67087 0.17105 0.34956 0.0
H966 H 0.68678 0.13262 0.3809 0.0
H967 H 0.71576 0.1522 0.34652 0.0
H968 H 0.75424 0.15689 0.41257 0.0
H969 H 0.72571 0.13636 0.44665 0.0
H970 H 0.73504 0.17752 0.46116 0.0
H971 H 0.62087 0.26682 0.46117 0.0
H972 H 0.5874 0.22933 0.50238 0.0
H973 H 0.65847 0.13961 0.45833 0.0
C974 C 0.73024 0.22284 0.36058 0.0
C975 C 0.73079 0.25755 0.34822 0.0
C976 C 0.70668 0.28374 0.36793 0.0
C977 C 0.68163 0.27534 0.3981 0.0
C978 C 0.68145 0.24066 0.40881 0.0
C979 C 0.70557 0.21492 0.39096 0.0
C980 C 0.69989 0.17962 0.40692 0.0
C981 C 0.69291 0.15759 0.3687 0.0
C982 C 0.73056 0.16152 0.43338 0.0
C983 C 0.66819 0.18918 0.43589 0.0
C984 C 0.65803 0.22449 0.43686 0.0
C985 C 0.62898 0.23921 0.46086 0.0
C986 C 0.6101 0.21749 0.48446 0.0
C987 C 0.62003 0.1811 0.48427 0.0
C988 C 0.64968 0.16707 0.45936 0.0
H989 H 0.6515 0.85504 0.24979 0.0
H990 H 0.73434 0.81097 0.16175 0.0
H991 H 0.70418 0.84282 0.10017 0.0
H992 H 0.58171 0.85612 0.17414 0.0
H993 H 0.5582 0.89695 0.1917 0.0
H994 H 0.58512 0.8694 0.22937 0.0
H995 H 0.61879 0.91839 0.24438 0.0
H996 H 0.59105 0.94596 0.20778 0.0
H997 H 0.6369 0.93957 0.19905 0.0
H998 H 0.66655 0.88066 0.04809 0.0
H999 H 0.62723 0.92728 0.01076 0.0
H1000 H 0.56842 0.94846 0.13091 0.0
C1001 C 0.66333 0.85223 0.21757 0.0
C1002 C 0.69551 0.83051 0.21088 0.0
C1003 C 0.71001 0.82764 0.16809 0.0
C1004 C 0.69286 0.84541 0.13266 0.0
C1005 C 0.66116 0.8663 0.14025 0.0
C1006 C 0.64669 0.87026 0.18168 0.0
C1007 C 0.6132 0.89597 0.18095 0.0
C1008 C 0.58276 0.87856 0.19487 0.0
C1009 C 0.61515 0.9268 0.20974 0.0
C1010 C 0.61157 0.90638 0.13286 0.0
C1011 C 0.63923 0.88835 0.10992 0.0
C1012 C 0.64454 0.89458 0.06557 0.0
C1013 C 0.62188 0.92085 0.04447 0.0
C1014 C 0.59409 0.94054 0.06747 0.0
C1015 C 0.58852 0.93274 0.11208 0.0
H1016 H 0.58562 0.60189 0.62925 0.0
H1017 H 0.65342 0.51905 0.56428 0.0
H1018 H 0.70298 0.53584 0.59887 0.0
H1019 H 0.64451 0.66369 0.62303 0.0
H1020 H 0.63191 0.68058 0.67614 0.0
H1021 H 0.60165 0.66343 0.64414 0.0
H1022 H 0.59228 0.62124 0.70794 0.0
H1023 H 0.62223 0.63893 0.73979 0.0
H1024 H 0.62893 0.59341 0.73056 0.0
H1025 H 0.74535 0.55986 0.64285 0.0
H1026 H 0.77736 0.58995 0.69237 0.0
H1027 H 0.6824 0.65647 0.73068 0.0
C1028 C 0.6109 0.58743 0.62204 0.0
C1029 C 0.61537 0.55935 0.59342 0.0
C1030 C 0.64904 0.54112 0.58506 0.0
C1031 C 0.6775 0.55031 0.60491 0.0
C1032 C 0.67213 0.57789 0.63307 0.0
C1033 C 0.63971 0.59631 0.64155 0.0
C1034 C 0.64102 0.62441 0.67393 0.0
C1035 C 0.62906 0.66014 0.65304 0.0
C1036 C 0.61985 0.61917 0.71551 0.0
C1037 C 0.67914 0.61844 0.68288 0.0
C1038 C 0.6966 0.5916 0.65878 0.0
C1039 C 0.73193 0.58095 0.66191 0.0
C1040 C 0.74989 0.5981 0.69048 0.0
C1041 C 0.73262 0.62563 0.71588 0.0
C1042 C 0.69667 0.63586 0.71163 0.0
H1043 H 0.54644 0.38772 0.92633 0.0
H1044 H 0.60972 0.44016 1.00393 0.0
H1045 H 0.66018 0.4183 0.9563 0.0
H1046 H 0.60413 0.31291 0.91497 0.0
H1047 H 0.59339 0.30481 0.85996 0.0
H1048 H 0.56188 0.32959 0.89506 0.0
H1049 H 0.55419 0.38114 0.83888 0.0
H1050 H 0.58447 0.35493 0.80334 0.0
H1051 H 0.5919 0.39664 0.81836 0.0
H1052 H 0.7057 0.38379 0.90237 0.0
H1053 H 0.73916 0.34159 0.8517 0.0
H1054 H 0.64467 0.31122 0.81293 0.0
C1055 C 0.57074 0.39538 0.93272 0.0
C1056 C 0.5739 0.41641 0.96849 0.0
C1057 C 0.60635 0.42517 0.97605 0.0
C1058 C 0.63522 0.41251 0.94921 0.0
C1059 C 0.63129 0.39105 0.91476 0.0
C1060 C 0.59955 0.38295 0.90642 0.0
C1061 C 0.60194 0.35732 0.8701 0.0
C1062 C 0.58962 0.32421 0.886 0.0
C1063 C 0.58188 0.37348 0.83033 0.0
C1064 C 0.64015 0.35097 0.86025 0.0
C1065 C 0.65685 0.37102 0.88549 0.0
C1066 C 0.69259 0.36834 0.8823 0.0
C1067 C 0.71147 0.34436 0.85328 0.0
C1068 C 0.69469 0.32295 0.82819 0.0
C1069 C 0.65848 0.32704 0.83154 0.0
H1070 H 0.91757 0.31136 0.17242 0.0
H1071 H 0.85291 0.38605 0.25337 0.0
H1072 H 0.88588 0.43071 0.22673 0.0
H1073 H 0.99679 0.34184 0.18768 0.0
H1074 H 0.01206 0.33334 0.13252 0.0
H1075 H 0.98342 0.30781 0.15819 0.0
H1076 H 0.94128 0.32312 0.09472 0.0
H1077 H 0.96977 0.3487 0.06884 0.0
H1078 H 0.92578 0.36762 0.08077 0.0
H1079 H 0.92705 0.46763 0.18955 0.0
H1080 H 0.97118 0.49233 0.14761 0.0
H1081 H 1.00822 0.39291 0.09061 0.0
C1082 C 0.91018 0.33707 0.1848 0.0
C1083 C 0.88237 0.34497 0.21526 0.0
C1084 C 0.87396 0.37913 0.23022 0.0
C1085 C 0.89262 0.40471 0.21516 0.0
C1086 C 0.91979 0.39591 0.18505 0.0
C1087 C 0.92849 0.36277 0.17017 0.0
C1088 C 0.95862 0.35961 0.13786 0.0
C1089 C 0.98955 0.33414 0.1551 0.0
C1090 C 0.94823 0.34915 0.09289 0.0
C1091 C 0.96571 0.39615 0.1366 0.0
C1092 C 0.94307 0.41678 0.16399 0.0
C1093 C 0.94474 0.45155 0.16801 0.0
C1094 C 0.96996 0.46548 0.14365 0.0
C1095 C 0.9936 0.4449 0.11522 0.0
C1096 C 0.9911 0.40963 0.11202 0.0
H1097 H 0.9087 0.5824 0.47461 0.0
H1098 H 0.93805 0.67319 0.5282 0.0
H1099 H 0.89453 0.71012 0.48431 0.0
H1100 H 0.89468 0.61663 0.3669 0.0
H1101 H 0.85787 0.59705 0.35719 0.0
H1102 H 0.89001 0.57693 0.39463 0.0
H1103 H 0.84373 0.57741 0.45597 0.0
H1104 H 0.81134 0.59691 0.41852 0.0
H1105 H 0.81608 0.61729 0.46931 0.0
H1106 H 0.85081 0.73781 0.4311 0.0
H1107 H 0.80407 0.7542 0.37874 0.0
H1108 H 0.80114 0.64634 0.35999 0.0
C1109 C 0.90526 0.61 0.47793 0.0
C1110 C 0.92671 0.62485 0.50516 0.0
C1111 C 0.92194 0.66116 0.5077 0.0
C1112 C 0.89735 0.68245 0.48271 0.0
C1113 C 0.87745 0.6672 0.4551 0.0
C1114 C 0.88064 0.63185 0.45297 0.0
C1115 C 0.85607 0.62239 0.42003 0.0
C1116 C 0.87584 0.60204 0.38247 0.0
C1117 C 0.83027 0.60232 0.44229 0.0
C1118 C 0.83859 0.65788 0.40441 0.0
C1119 C 0.85169 0.68332 0.42469 0.0
C1120 C 0.84015 0.71811 0.41517 0.0
C1121 C 0.81378 0.72721 0.38506 0.0
C1122 C 0.79891 0.70166 0.36512 0.0
C1123 C 0.81195 0.66653 0.37463 0.0
H1124 H 0.42801 0.28983 0.33161 0.0
H1125 H 0.32301 0.31454 0.38091 0.0
H1126 H 0.33869 0.35901 0.42652 0.0
H1127 H 0.46886 0.30344 0.43387 0.0
H1128 H 0.50229 0.32262 0.40754 0.0
H1129 H 0.48346 0.29134 0.3794 0.0
H1130 H 0.46829 0.33476 0.31529 0.0
H1131 H 0.48704 0.36615 0.34325 0.0
H1132 H 0.44323 0.37655 0.3259 0.0
H1133 H 0.36442 0.40206 0.46538 0.0
H1134 H 0.39914 0.44134 0.49545 0.0
H1135 H 0.48815 0.39061 0.42199 0.0
C1136 C 0.40841 0.30431 0.35233 0.0
C1137 C 0.37408 0.29839 0.35233 0.0
C1138 C 0.34929 0.31848 0.37966 0.0
C1139 C 0.358 0.34384 0.40604 0.0
C1140 C 0.39175 0.34922 0.40493 0.0
C1141 C 0.41667 0.33012 0.3789 0.0
C1142 C 0.45086 0.34211 0.38329 0.0
C1143 C 0.47797 0.31314 0.40215 0.0
C1144 C 0.46306 0.3557 0.33931 0.0
C1145 C 0.44103 0.371 0.41555 0.0
C1146 C 0.40678 0.37446 0.42758 0.0
C1147 C 0.3913 0.39961 0.45624 0.0
C1148 C 0.41124 0.42201 0.47296 0.0
C1149 C 0.44642 0.41935 0.46109 0.0
C1150 C 0.46148 0.39319 0.43214 0.0
H1151 H 0.46192 0.54177 0.15493 0.0
H1152 H 0.46724 0.59249 0.02861 0.0
H1153 H 0.42459 0.64187 0.05475 0.0
H1154 H 0.37137 0.57008 0.17735 0.0
H1155 H 0.37684 0.57612 0.23457 0.0
H1156 H 0.40676 0.54447 0.20544 0.0
H1157 H 0.45713 0.57288 0.2295 0.0
H1158 H 0.42739 0.6045 0.25887 0.0
H1159 H 0.45611 0.618 0.21812 0.0
H1160 H 0.38028 0.68613 0.09553 0.0
H1161 H 0.34246 0.72246 0.14772 0.0
H1162 H 0.36769 0.64377 0.24858 0.0
C1163 C 0.45401 0.56313 0.13253 0.0
C1164 C 0.46793 0.5629 0.08935 0.0
C1165 C 0.45707 0.59181 0.06166 0.0
C1166 C 0.43271 0.62 0.07627 0.0
C1167 C 0.41949 0.61928 0.11895 0.0
C1168 C 0.43006 0.59165 0.14678 0.0
C1169 C 0.41303 0.59768 0.19164 0.0
C1170 C 0.39068 0.57047 0.2029 0.0
C1171 C 0.44002 0.59831 0.22659 0.0
C1172 C 0.39111 0.63301 0.18485 0.0
C1173 C 0.39495 0.64492 0.14258 0.0
C1174 C 0.37723 0.67694 0.12866 0.0
C1175 C 0.35559 0.69743 0.15867 0.0
C1176 C 0.35175 0.68623 0.20257 0.0
C1177 C 0.36974 0.65328 0.2154 0.0
H1178 H 0.23244 0.6714 0.80926 0.0
H1179 H 0.29297 0.708 0.9076 0.0
H1180 H 0.2658 0.67523 0.96427 0.0
H1181 H 0.15464 0.67582 0.87684 0.0
H1182 H 0.14305 0.63791 0.85433 0.0
H1183 H 0.16725 0.66411 0.82162 0.0
H1184 H 0.21438 0.61096 0.80775 0.0
H1185 H 0.19034 0.58462 0.84043 0.0
H1186 H 0.2341 0.5863 0.85349 0.0
H1187 H 0.23457 0.63487 0.00976 0.0
H1188 H 0.19832 0.59511 0.04129 0.0
H1189 H 0.15455 0.5874 0.9149 0.0
C1190 C 0.24014 0.67243 0.84268 0.0
C1191 C 0.26536 0.69214 0.85373 0.0
C1192 C 0.2739 0.69323 0.89815 0.0
C1193 C 0.25862 0.67453 0.93057 0.0
C1194 C 0.23422 0.65513 0.91847 0.0
C1195 C 0.22463 0.65438 0.87562 0.0
C1196 C 0.19711 0.63218 0.87143 0.0
C1197 C 0.16352 0.6538 0.85509 0.0
C1198 C 0.20975 0.60171 0.8415 0.0
C1199 C 0.19307 0.62003 0.91847 0.0
C1200 C 0.21498 0.63338 0.94497 0.0
C1201 C 0.21712 0.62465 0.98928 0.0
C1202 C 0.1965 0.60188 1.00693 0.0
C1203 C 0.17339 0.58818 0.98079 0.0
C1204 C 0.17157 0.59774 0.93589 0.0
H1205 H 0.10071 0.43552 0.55774 0.0
H1206 H 0.01424 0.46213 0.64728 0.0
H1207 H 0.03955 0.41435 0.69702 0.0
H1208 H 0.11571 0.34014 0.57905 0.0
H1209 H 0.16154 0.33759 0.5743 0.0
H1210 H 0.13346 0.36951 0.54299 0.0
H1211 H 0.16147 0.41749 0.5754 0.0
H1212 H 0.18953 0.38578 0.60652 0.0
H1213 H 0.16274 0.42095 0.63377 0.0
H1214 H 0.0802 0.36857 0.74241 0.0
H1215 H 0.13068 0.33211 0.77673 0.0
H1216 H 0.18882 0.33611 0.65598 0.0
C1217 C 0.08648 0.43072 0.58719 0.0
C1218 C 0.0553 0.4525 0.59837 0.0
C1219 C 0.03786 0.44552 0.63758 0.0
C1220 C 0.05216 0.41843 0.66612 0.0
C1221 C 0.08366 0.39814 0.65469 0.0
C1222 C 0.10027 0.40383 0.61566 0.0
C1223 C 0.1352 0.38102 0.61221 0.0
C1224 C 0.13653 0.35555 0.57492 0.0
C1225 C 0.1639 0.4026 0.60669 0.0
C1226 C 0.13651 0.3626 0.65612 0.0
C1227 C 0.10646 0.37216 0.68017 0.0
C1228 C 0.10345 0.3604 0.72334 0.0
C1229 C 0.13212 0.33943 0.74259 0.0
C1230 C 0.16338 0.33079 0.71873 0.0
C1231 C 0.16497 0.34174 0.67468 0.0
loop_
_geom_bond_atom_site_label_1
_geom_bond_atom_site_label_2
_geom_bond_distance
_geom_bond_site_symmetry_2
_ccdc_geom_bond_type
Cu0 N1 1.999 1_545 S
Cu0 O6 1.974 1_554 S
Cu0 N11 1.985 1_655 S
Cu0 O20 1.959 . S
N1 Cu0 1.999 1_565 S
N1 C3 1.263 1_554 S
N1 C5 1.389 . S
N2 C3 1.358 . S
N2 C4 1.400 1_556 S
C3 N1 1.263 1_556 S
C3 N2 1.358 . S
C3 H9 0.930 . S
C4 N2 1.400 1_554 S
C4 C5 1.351 . S
C4 H21 0.930 . S
C5 N1 1.389 . S
C5 C4 1.351 . S
C5 H10 0.930 1_565 S
O6 Cu0 1.974 1_556 S
O6 C16 1.282 1_655 S
C7 O8 1.261 . S
C7 O20 1.251 1_465 S
O8 C7 1.261 . S
H9 C3 0.930 . S
H10 C5 0.930 1_545 S
N11 Cu0 1.985 1_455 S
N11 C13 1.335 . S
N11 C14 1.376 1_554 S
N12 C13 1.345 . S
N12 C15 1.336 . S
C13 N11 1.335 . S
C13 N12 1.345 . S
C13 H18 0.930 . S
C14 N11 1.376 1_556 S
C14 C15 1.337 1_556 S
C14 H19 0.950 . S
C15 N12 1.336 . S
C15 C14 1.337 1_554 S
C15 H22 0.929 . S
C16 O6 1.282 1_455 S
C16 O17 1.216 1_545 S
O17 C16 1.216 1_565 S
H18 C13 0.930 . S
H19 C14 0.950 . S
O20 Cu0 1.959 . S
O20 C7 1.251 1_645 S
H21 C4 0.930 . S
H22 C15 0.929 . S
Cu23 N24 1.999 . S
Cu23 O29 1.974 . S
Cu23 N34 1.985 . S
Cu23 O43 1.959 . S
N24 Cu23 1.999 . S
N24 C26 1.263 . S
N24 C28 1.389 . S
N25 C26 1.358 . S
N25 C27 1.400 . S
C26 N24 1.263 . S
C26 N25 1.358 . S
C26 H32 0.930 . S
C27 N25 1.400 . S
C27 C28 1.351 . S
C27 H44 0.930 . S
C28 N24 1.389 . S
C28 C27 1.351 . S
C28 H33 0.930 . S
O29 Cu23 1.974 . S
O29 C39 1.282 . S
C30 O31 1.261 . S
C30 O43 1.251 . S
O31 C30 1.261 . S
H32 C26 0.930 . S
H33 C28 0.930 . S
N34 Cu23 1.985 . S
N34 C36 1.335 . S
N34 C37 1.390 . S
N35 C36 1.345 . S
N35 C38 1.336 . S
C36 N34 1.335 . S
C36 N35 1.345 . S
C36 H41 0.930 . S
C37 N34 1.390 . S
C37 C38 1.346 . S
C37 H42 0.930 . S
C38 N35 1.336 . S
C38 C37 1.346 . S
C38 H45 0.929 . S
C39 O29 1.282 . S
C39 O40 1.216 . S
O40 C39 1.216 . S
H41 C36 0.930 . S
H42 C37 0.930 . S
O43 Cu23 1.959 . S
O43 C30 1.251 . S
H44 C27 0.930 . S
H45 C38 0.929 . S
Cu46 N47 1.999 1_565 S
Cu46 O52 1.974 . S
Cu46 N57 1.985 . S
Cu46 O66 1.961 . S
N47 Cu46 1.999 1_545 S
N47 C49 1.263 . S
N47 C51 1.389 . S
N48 C49 1.358 . S
N48 C50 1.400 . S
C49 N47 1.263 . S
C49 N48 1.358 . S
C49 H55 0.930 . S
C50 N48 1.400 . S
C50 C51 1.351 . S
C50 H67 0.930 . S
C51 N47 1.389 . S
C51 C50 1.351 . S
C51 H56 0.930 . S
O52 Cu46 1.974 . S
O52 C62 1.282 1_565 S
C53 O54 1.261 . S
C53 O66 1.237 1_545 S
O54 C53 1.261 . S
H55 C49 0.930 . S
H56 C51 0.930 . S
N57 Cu46 1.985 . S
N57 C59 1.335 . S
N57 C60 1.390 . S
N58 C59 1.345 . S
N58 C61 1.336 . S
C59 N57 1.335 . S
C59 N58 1.345 . S
C59 H64 0.930 . S
C60 N57 1.390 . S
C60 C61 1.346 . S
C60 H65 0.930 . S
C61 N58 1.336 . S
C61 C60 1.346 . S
C61 H68 0.929 . S
C62 O52 1.282 1_545 S
C62 O63 1.216 . S
O63 C62 1.216 . S
H64 C59 0.930 . S
H65 C60 0.930 . S
O66 Cu46 1.961 . S
O66 C53 1.237 1_565 S
H67 C50 0.930 . S
H68 C61 0.929 . S
Cu69 N70 1.999 . S
Cu69 O75 1.974 . S
Cu69 N80 1.985 . S
Cu69 O89 1.959 . S
N70 Cu69 1.999 . S
N70 C72 1.263 . S
N70 C74 1.389 . S
N71 C72 1.358 . S
N71 C73 1.400 . S
C72 N70 1.263 . S
C72 N71 1.358 . S
C72 H78 0.930 . S
C73 N71 1.400 . S
C73 C74 1.351 . S
C73 H90 0.930 . S
C74 N70 1.389 . S
C74 C73 1.351 . S
C74 H79 0.930 . S
O75 Cu69 1.974 . S
O75 C85 1.282 . S
C76 O77 1.261 . S
C76 O89 1.251 . S
O77 C76 1.261 . S
H78 C72 0.930 . S
H79 C74 0.930 . S
N80 Cu69 1.985 . S
N80 C82 1.335 . S
N80 C83 1.390 . S
N81 C82 1.345 . S
N81 C84 1.336 . S
C82 N80 1.335 . S
C82 N81 1.345 . S
C82 H87 0.930 . S
C83 N80 1.390 . S
C83 C84 1.346 . S
C83 H88 0.930 . S
C84 N81 1.336 . S
C84 C83 1.346 . S
C84 H91 0.929 . S
C85 O75 1.282 . S
C85 O86 1.216 . S
O86 C85 1.216 . S
H87 C82 0.930 . S
H88 C83 0.930 . S
O89 Cu69 1.959 . S
O89 C76 1.251 . S
H90 C73 0.930 . S
H91 C84 0.929 . S
Cu92 N93 2.005 . S
Cu92 O98 1.974 1_545 S
Cu92 N103 1.985 1_545 S
Cu92 O112 1.959 1_455 S
N93 Cu92 2.005 . S
N93 C95 1.261 . S
N93 C97 1.385 1_455 S
N94 C95 1.358 1_655 S
N94 C96 1.400 . S
C95 N93 1.261 . S
C95 N94 1.358 1_455 S
C95 H101 0.930 1_545 S
C96 N94 1.400 . S
C96 C97 1.351 . S
C96 H113 0.930 . S
C97 N93 1.385 1_655 S
C97 C96 1.351 . S
C97 H102 0.930 . S
O98 Cu92 1.974 1_565 S
O98 C108 1.282 . S
C99 O100 1.261 . S
C99 O112 1.251 . S
O100 C99 1.261 . S
H101 C95 0.930 1_565 S
H102 C97 0.930 . S
N103 Cu92 1.985 1_565 S
N103 C105 1.335 1_565 S
N103 C106 1.390 . S
N104 C105 1.345 1_565 S
N104 C107 1.336 . S
C105 N103 1.335 1_545 S
C105 N104 1.345 1_545 S
C105 H110 0.930 . S
C106 N103 1.390 . S
C106 C107 1.346 . S
C106 H111 0.930 . S
C107 N104 1.336 . S
C107 C106 1.346 . S
C107 H114 0.929 . S
C108 O98 1.282 . S
C108 O109 1.216 . S
O109 C108 1.216 . S
H110 C105 0.930 . S
H111 C106 0.930 . S
O112 Cu92 1.959 1_655 S
O112 C99 1.251 . S
H113 C96 0.930 . S
H114 C107 0.929 . S
Cu115 N116 1.999 . S
Cu115 O121 1.974 . S
Cu115 N126 1.985 . S
Cu115 O135 1.959 . S
N116 Cu115 1.999 . S
N116 C118 1.263 . S
N116 C120 1.389 . S
N117 C118 1.358 . S
N117 C119 1.400 . S
C118 N116 1.263 . S
C118 N117 1.358 . S
C118 H124 0.930 . S
C119 N117 1.400 . S
C119 C120 1.351 . S
C119 H136 0.930 . S
C120 N116 1.389 . S
C120 C119 1.351 . S
C120 H125 0.930 . S
O121 Cu115 1.974 . S
O121 C131 1.282 . S
C122 O123 1.261 . S
C122 O135 1.251 . S
O123 C122 1.261 . S
H124 C118 0.930 . S
H125 C120 0.930 . S
N126 Cu115 1.985 . S
N126 C128 1.335 . S
N126 C129 1.390 . S
N127 C128 1.345 . S
N127 C130 1.336 . S
C128 N126 1.335 . S
C128 N127 1.345 . S
C128 H133 0.930 . S
C129 N126 1.390 . S
C129 C130 1.346 . S
C129 H134 0.930 . S
C130 N127 1.336 . S
C130 C129 1.346 . S
C130 H137 0.929 . S
C131 O121 1.282 . S
C131 O132 1.216 . S
O132 C131 1.216 . S
H133 C128 0.930 . S
H134 C129 0.930 . S
O135 Cu115 1.959 . S
O135 C122 1.251 . S
H136 C119 0.930 . S
H137 C130 0.929 . S
Cu138 N139 1.999 1_544 S
Cu138 O144 1.974 1_554 S
Cu138 N149 1.985 . S
Cu138 O158 1.959 1_545 S
N139 Cu138 1.999 1_566 S
N139 C141 1.263 1_565 S
N139 C143 1.389 . S
N140 C141 1.358 1_565 S
N140 C142 1.400 . S
C141 N139 1.263 1_545 S
C141 N140 1.358 1_545 S
C141 H147 0.930 . S
C142 N140 1.400 . S
C142 C143 1.351 . S
C142 H159 0.930 . S
C143 N139 1.389 . S
C143 C142 1.351 . S
C143 H148 0.930 . S
O144 Cu138 1.974 1_556 S
O144 C154 1.282 . S
C145 O146 1.258 1_565 S
C145 O158 1.251 . S
O146 C145 1.258 1_545 S
H147 C141 0.930 . S
H148 C143 0.930 . S
N149 Cu138 1.985 . S
N149 C151 1.335 . S
N149 C152 1.390 . S
N150 C151 1.345 . S
N150 C153 1.336 . S
C151 N149 1.335 . S
C151 N150 1.345 . S
C151 H156 0.930 1_545 S
C152 N149 1.390 . S
C152 C153 1.346 . S
C152 H157 0.930 . S
C153 N150 1.336 . S
C153 C152 1.346 . S
C153 H160 0.929 . S
C154 O144 1.282 . S
C154 O155 1.216 . S
O155 C154 1.216 . S
H156 C151 0.930 1_565 S
H157 C152 0.930 . S
O158 Cu138 1.959 1_565 S
O158 C145 1.251 . S
H159 C142 0.930 . S
H160 C153 0.929 . S
Cu161 N162 1.999 . S
Cu161 O167 1.974 . S
Cu161 N172 1.985 . S
Cu161 O181 1.959 . S
N162 Cu161 1.999 . S
N162 C164 1.263 . S
N162 C166 1.389 . S
N163 C164 1.358 . S
N163 C165 1.400 . S
C164 N162 1.263 . S
C164 N163 1.358 . S
C164 H170 0.930 . S
C165 N163 1.400 . S
C165 C166 1.351 . S
C165 H182 0.930 . S
C166 N162 1.389 . S
C166 C165 1.351 . S
C166 H171 0.930 . S
O167 Cu161 1.974 . S
O167 C177 1.282 . S
C168 O169 1.261 . S
C168 O181 1.251 . S
O169 C168 1.261 . S
H170 C164 0.930 . S
H171 C166 0.930 . S
N172 Cu161 1.985 . S
N172 C174 1.335 . S
N172 C175 1.390 . S
N173 C174 1.345 . S
N173 C176 1.336 . S
C174 N172 1.335 . S
C174 N173 1.345 . S
C174 H179 0.930 . S
C175 N172 1.390 . S
C175 C176 1.346 . S
C175 H180 0.930 . S
C176 N173 1.336 . S
C176 C175 1.346 . S
C176 H183 0.929 . S
C177 O167 1.282 . S
C177 O178 1.216 . S
O178 C177 1.216 . S
H179 C174 0.930 . S
H180 C175 0.930 . S
O181 Cu161 1.959 . S
O181 C168 1.251 . S
H182 C165 0.930 . S
H183 C176 0.929 . S
Cu184 N185 1.999 . S
Cu184 O190 1.974 . S
Cu184 N195 1.985 . S
Cu184 O204 1.959 . S
N185 Cu184 1.999 . S
N185 C187 1.263 . S
N185 C189 1.389 . S
N186 C187 1.358 . S
N186 C188 1.400 . S
C187 N185 1.263 . S
C187 N186 1.358 . S
C187 H193 0.930 . S
C188 N186 1.400 . S
C188 C189 1.351 . S
C188 H205 0.930 . S
C189 N185 1.389 . S
C189 C188 1.351 . S
C189 H194 0.930 . S
O190 Cu184 1.974 . S
O190 C200 1.282 . S
C191 O192 1.261 . S
C191 O204 1.251 . S
O192 C191 1.261 . S
H193 C187 0.930 . S
H194 C189 0.930 . S
N195 Cu184 1.985 . S
N195 C197 1.335 . S
N195 C198 1.390 . S
N196 C197 1.345 . S
N196 C199 1.336 . S
C197 N195 1.335 . S
C197 N196 1.345 . S
C197 H202 0.930 . S
C198 N195 1.390 . S
C198 C199 1.346 . S
C198 H203 0.930 . S
C199 N196 1.336 . S
C199 C198 1.346 . S
C199 H206 0.929 . S
C200 O190 1.282 . S
C200 O201 1.216 . S
O201 C200 1.216 . S
H202 C197 0.930 . S
H203 C198 0.930 . S
O204 Cu184 1.959 . S
O204 C191 1.251 . S
H205 C188 0.930 . S
H206 C199 0.929 . S
Cu207 N208 1.999 . S
Cu207 O213 1.974 . S
Cu207 N218 1.985 . S
Cu207 O227 1.959 . S
N208 Cu207 1.999 . S
N208 C210 1.263 . S
N208 C212 1.389 . S
N209 C210 1.358 . S
N209 C211 1.400 . S
C210 N208 1.263 . S
C210 N209 1.358 . S
C210 H216 0.930 . S
C211 N209 1.400 . S
C211 C212 1.351 . S
C211 H228 0.930 . S
C212 N208 1.389 . S
C212 C211 1.351 . S
C212 H217 0.930 . S
O213 Cu207 1.974 . S
O213 C223 1.282 . S
C214 O215 1.261 . S
C214 O227 1.251 . S
O215 C214 1.261 . S
H216 C210 0.930 . S
H217 C212 0.930 . S
N218 Cu207 1.985 . S
N218 C220 1.335 . S
N218 C221 1.390 . S
N219 C220 1.345 . S
N219 C222 1.336 . S
C220 N218 1.335 . S
C220 N219 1.345 . S
C220 H225 0.930 . S
C221 N218 1.390 . S
C221 C222 1.346 . S
C221 H226 0.930 . S
C222 N219 1.336 . S
C222 C221 1.346 . S
C222 H229 0.929 . S
C223 O213 1.282 . S
C223 O224 1.216 . S
O224 C223 1.216 . S
H225 C220 0.930 . S
H226 C221 0.930 . S
O227 Cu207 1.959 . S
O227 C214 1.251 . S
H228 C211 0.930 . S
H229 C222 0.929 . S
Cu230 N231 1.999 . S
Cu230 O236 1.974 . S
Cu230 N241 1.985 . S
Cu230 O250 1.959 . S
N231 Cu230 1.999 . S
N231 C233 1.263 . S
N231 C235 1.389 . S
N232 C233 1.358 . S
N232 C234 1.400 . S
C233 N231 1.263 . S
C233 N232 1.358 . S
C233 H239 0.930 . S
C234 N232 1.400 . S
C234 C235 1.351 . S
C234 H251 0.930 . S
C235 N231 1.389 . S
C235 C234 1.351 . S
C235 H240 0.930 . S
O236 Cu230 1.974 . S
O236 C246 1.282 . S
C237 O238 1.261 . S
C237 O250 1.251 . S
O238 C237 1.261 . S
H239 C233 0.930 . S
H240 C235 0.930 . S
N241 Cu230 1.985 . S
N241 C243 1.335 . S
N241 C244 1.390 . S
N242 C243 1.345 . S
N242 C245 1.336 . S
C243 N241 1.335 . S
C243 N242 1.345 . S
C243 H248 0.930 . S
C244 N241 1.390 . S
C244 C245 1.346 . S
C244 H249 0.930 . S
C245 N242 1.336 . S
C245 C244 1.346 . S
C245 H252 0.929 . S
C246 O236 1.282 . S
C246 O247 1.216 . S
O247 C246 1.216 . S
H248 C243 0.930 . S
H249 C244 0.930 . S
O250 Cu230 1.959 . S
O250 C237 1.251 . S
H251 C234 0.930 . S
H252 C245 0.929 . S
Cu253 N254 1.999 . S
Cu253 O259 1.974 . S
Cu253 N264 1.985 . S
Cu253 O273 1.959 . S
N254 Cu253 1.999 . S
N254 C256 1.263 . S
N254 C258 1.389 . S
N255 C256 1.358 . S
N255 C257 1.400 . S
C256 N254 1.263 . S
C256 N255 1.358 . S
C256 H262 0.930 . S
C257 N255 1.400 . S
C257 C258 1.351 . S
C257 H274 0.930 . S
C258 N254 1.389 . S
C258 C257 1.351 . S
C258 H263 0.930 . S
O259 Cu253 1.974 . S
O259 C269 1.282 . S
C260 O261 1.261 . S
C260 O273 1.251 . S
O261 C260 1.261 . S
H262 C256 0.930 . S
H263 C258 0.930 . S
N264 Cu253 1.985 . S
N264 C266 1.335 . S
N264 C267 1.390 . S
N265 C266 1.345 . S
N265 C268 1.336 . S
C266 N264 1.335 . S
C266 N265 1.345 . S
C266 H271 0.930 . S
C267 N264 1.390 . S
C267 C268 1.346 . S
C267 H272 0.930 . S
C268 N265 1.336 . S
C268 C267 1.346 . S
C268 H275 0.929 . S
C269 O259 1.282 . S
C269 O270 1.216 . S
O270 C269 1.216 . S
H271 C266 0.930 . S
H272 C267 0.930 . S
O273 Cu253 1.959 . S
O273 C260 1.251 . S
H274 C257 0.930 . S
H275 C268 0.929 . S
Cu276 N277 1.999 . S
Cu276 O282 1.974 . S
Cu276 N287 1.985 . S
Cu276 O296 1.959 . S
N277 Cu276 1.999 . S
N277 C279 1.263 . S
N277 C281 1.389 . S
N278 C279 1.358 . S
N278 C280 1.400 . S
C279 N277 1.263 . S
C279 N278 1.358 . S
C279 H285 0.930 . S
C280 N278 1.400 . S
C280 C281 1.351 . S
C280 H297 0.930 . S
C281 N277 1.389 . S
C281 C280 1.351 . S
C281 H286 0.930 . S
O282 Cu276 1.974 . S
O282 C292 1.282 . S
C283 O284 1.261 . S
C283 O296 1.251 . S
O284 C283 1.261 . S
H285 C279 0.930 . S
H286 C281 0.930 . S
N287 Cu276 1.985 . S
N287 C289 1.335 . S
N287 C290 1.390 . S
N288 C289 1.345 . S
N288 C291 1.336 . S
C289 N287 1.335 . S
C289 N288 1.345 . S
C289 H294 0.930 . S
C290 N287 1.390 . S
C290 C291 1.346 . S
C290 H295 0.930 . S
C291 N288 1.336 . S
C291 C290 1.346 . S
C291 H298 0.929 . S
C292 O282 1.282 . S
C292 O293 1.216 . S
O293 C292 1.216 . S
H294 C289 0.930 . S
H295 C290 0.930 . S
O296 Cu276 1.959 . S
O296 C283 1.251 . S
H297 C280 0.930 . S
H298 C291 0.929 . S
Cu299 N300 1.999 . S
Cu299 O305 1.974 1_554 S
Cu299 N310 1.985 . S
Cu299 O319 1.959 . S
N300 Cu299 1.999 . S
N300 C302 1.263 1_554 S
N300 C304 1.389 . S
N301 C302 1.358 . S
N301 C303 1.400 1_556 S
C302 N300 1.263 1_556 S
C302 N301 1.358 . S
C302 H308 0.930 . S
C303 N301 1.400 1_554 S
C303 C304 1.351 . S
C303 H320 0.930 . S
C304 N300 1.389 . S
C304 C303 1.351 . S
C304 H309 0.930 . S
O305 Cu299 1.974 1_556 S
O305 C315 1.282 . S
C306 O307 1.261 . S
C306 O319 1.251 . S
O307 C306 1.261 . S
H308 C302 0.930 . S
H309 C304 0.930 . S
N310 Cu299 1.985 . S
N310 C312 1.335 . S
N310 C313 1.390 1_455 S
N311 C312 1.345 1_655 S
N311 C314 1.336 . S
C312 N310 1.335 . S
C312 N311 1.345 1_455 S
C312 H317 0.930 . S
C313 N310 1.390 1_655 S
C313 C314 1.346 . S
C313 H318 0.930 1_554 S
C314 N311 1.336 . S
C314 C313 1.346 . S
C314 H321 0.929 . S
C315 O305 1.282 . S
C315 O316 1.199 1_455 S
O316 C315 1.199 1_655 S
H317 C312 0.930 . S
H318 C313 0.930 1_556 S
O319 Cu299 1.959 . S
O319 C306 1.251 . S
H320 C303 0.930 . S
H321 C314 0.929 . S
Cu322 N323 1.999 1_554 S
Cu322 O328 1.965 1_554 S
Cu322 N333 1.985 . S
Cu322 O342 1.959 . S
N323 Cu322 1.999 1_556 S
N323 C325 1.263 . S
N323 C327 1.389 . S
N324 C325 1.358 . S
N324 C326 1.400 . S
C325 N323 1.263 . S
C325 N324 1.358 . S
C325 H331 0.930 . S
C326 N324 1.400 . S
C326 C327 1.351 . S
C326 H343 0.930 . S
C327 N323 1.389 . S
C327 C326 1.351 . S
C327 H332 0.930 . S
O328 Cu322 1.965 1_556 S
O328 C338 1.288 . S
C329 O330 1.261 . S
C329 O342 1.251 . S
O330 C329 1.261 . S
H331 C325 0.930 . S
H332 C327 0.930 . S
N333 Cu322 1.985 . S
N333 C335 1.335 . S
N333 C336 1.390 . S
N334 C335 1.345 . S
N334 C337 1.336 . S
C335 N333 1.335 . S
C335 N334 1.345 . S
C335 H340 0.930 . S
C336 N333 1.390 . S
C336 C337 1.346 . S
C336 H341 0.930 . S
C337 N334 1.336 . S
C337 C336 1.346 . S
C337 H344 0.929 . S
C338 O328 1.288 . S
C338 O339 1.216 . S
O339 C338 1.216 . S
H340 C335 0.930 . S
H341 C336 0.930 . S
O342 Cu322 1.959 . S
O342 C329 1.251 . S
H343 C326 0.930 . S
H344 C337 0.929 . S
Cu345 N346 1.999 . S
Cu345 O351 1.974 1_455 S
Cu345 N356 1.985 . S
Cu345 O365 1.959 . S
N346 Cu345 1.999 . S
N346 C348 1.263 . S
N346 C350 1.389 . S
N347 C348 1.358 . S
N347 C349 1.400 . S
C348 N346 1.263 . S
C348 N347 1.358 . S
C348 H354 0.930 . S
C349 N347 1.400 . S
C349 C350 1.351 . S
C349 H366 0.930 . S
C350 N346 1.389 . S
C350 C349 1.351 . S
C350 H355 0.930 . S
O351 Cu345 1.974 1_655 S
O351 C361 1.282 . S
C352 O353 1.261 . S
C352 O365 1.251 . S
O353 C352 1.261 . S
H354 C348 0.930 . S
H355 C350 0.930 . S
N356 Cu345 1.985 . S
N356 C358 1.335 . S
N356 C359 1.398 . S
N357 C358 1.345 . S
N357 C360 1.343 . S
C358 N356 1.335 . S
C358 N357 1.345 . S
C358 H363 0.930 . S
C359 N356 1.398 . S
C359 C360 1.346 . S
C359 H364 0.924 1_455 S
C360 N357 1.343 . S
C360 C359 1.346 . S
C360 H367 0.925 1_455 S
C361 O351 1.282 . S
C361 O362 1.216 1_655 S
O362 C361 1.216 1_455 S
H363 C358 0.930 . S
H364 C359 0.924 1_655 S
O365 Cu345 1.959 . S
O365 C352 1.251 . S
H366 C349 0.930 . S
H367 C360 0.925 1_655 S
H368 C380 0.930 . S
H369 C382 0.930 . S
H370 C383 0.930 . S
H371 C387 0.959 . S
H372 C387 0.959 . S
H373 C387 0.961 . S
H374 C388 0.960 . S
H375 C388 0.961 . S
H376 C388 0.959 . S
H377 C391 0.929 . S
H378 C392 0.931 . S
H379 C394 0.916 1_455 S
C380 H368 0.930 . S
C380 C381 1.399 1_445 S
C380 C385 1.398 1_455 S
C381 C380 1.399 1_665 S
C381 C382 1.376 . S
C382 H369 0.930 . S
C382 C381 1.376 . S
C382 C383 1.388 . S
C383 H370 0.930 . S
C383 C382 1.388 . S
C383 C384 1.390 . S
C384 C383 1.390 . S
C384 C385 1.396 1_565 S
C384 C390 1.465 . S
C385 C380 1.398 1_655 S
C385 C384 1.396 1_545 S
C385 C386 1.515 1_655 S
C386 C385 1.515 1_455 S
C386 C387 1.502 . S
C386 C388 1.561 1_455 S
C386 C389 1.526 1_455 S
C387 H371 0.959 . S
C387 H372 0.959 . S
C387 H373 0.961 . S
C387 C386 1.502 . S
C388 H374 0.960 . S
C388 H375 0.961 . S
C388 H376 0.959 . S
C388 C386 1.561 1_655 S
C389 C386 1.526 1_655 S
C389 C390 1.396 1_545 S
C389 C394 1.394 . S
C390 C384 1.465 . S
C390 C389 1.396 1_565 S
C390 C391 1.399 . S
C391 H377 0.929 . S
C391 C390 1.399 . S
C391 C392 1.385 . S
C392 H378 0.931 . S
C392 C391 1.385 . S
C392 C393 1.389 1_565 S
C393 C392 1.389 1_545 S
C393 C394 1.397 . S
C394 H379 0.916 1_655 S
C394 C389 1.394 . S
C394 C393 1.397 . S
H395 C407 0.930 . S
H396 C409 0.930 . S
H397 C410 0.930 . S
H398 C414 0.959 . S
H399 C414 0.959 . S
H400 C414 0.961 . S
H401 C415 0.960 . S
H402 C415 0.961 . S
H403 C415 0.959 . S
H404 C418 0.929 . S
H405 C419 0.931 . S
H406 C421 0.930 . S
C407 H395 0.930 . S
C407 C408 1.399 . S
C407 C412 1.399 . S
C408 C407 1.399 . S
C408 C409 1.376 . S
C409 H396 0.930 . S
C409 C408 1.376 . S
C409 C410 1.388 . S
C410 H397 0.930 . S
C410 C409 1.388 . S
C410 C411 1.390 . S
C411 C410 1.390 . S
C411 C412 1.394 . S
C411 C417 1.465 . S
C412 C407 1.399 . S
C412 C411 1.394 . S
C412 C413 1.516 . S
C413 C412 1.516 . S
C413 C414 1.502 . S
C413 C415 1.561 . S
C413 C416 1.526 . S
C414 H398 0.959 . S
C414 H399 0.959 . S
C414 H400 0.961 . S
C414 C413 1.502 . S
C415 H401 0.960 . S
C415 H402 0.961 . S
C415 H403 0.959 . S
C415 C413 1.561 . S
C416 C413 1.526 . S
C416 C417 1.396 . S
C416 C421 1.390 . S
C417 C411 1.465 . S
C417 C416 1.396 . S
C417 C418 1.399 . S
C418 H404 0.929 . S
C418 C417 1.399 . S
C418 C419 1.385 . S
C419 H405 0.931 . S
C419 C418 1.385 . S
C419 C420 1.389 . S
C420 C419 1.389 . S
C420 C421 1.387 . S
C421 H406 0.930 . S
C421 C416 1.390 . S
C421 C420 1.387 . S
H422 C434 0.930 . S
H423 C436 0.930 . S
H424 C437 0.930 . S
H425 C441 0.959 . S
H426 C441 0.959 . S
H427 C441 0.961 . S
H428 C442 0.960 . S
H429 C442 0.961 . S
H430 C442 0.959 . S
H431 C445 0.929 . S
H432 C446 0.931 . S
H433 C448 0.930 . S
C434 H422 0.930 . S
C434 C435 1.399 1_545 S
C434 C439 1.399 . S
C435 C434 1.399 1_565 S
C435 C436 1.376 . S
C436 H423 0.930 . S
C436 C435 1.376 . S
C436 C437 1.388 . S
C437 H424 0.930 . S
C437 C436 1.388 . S
C437 C438 1.390 . S
C438 C437 1.390 . S
C438 C439 1.394 1_565 S
C438 C444 1.465 . S
C439 C434 1.399 . S
C439 C438 1.394 1_545 S
C439 C440 1.516 . S
C440 C439 1.516 . S
C440 C441 1.502 . S
C440 C442 1.561 . S
C440 C443 1.526 . S
C441 H425 0.959 . S
C441 H426 0.959 . S
C441 H427 0.961 . S
C441 C440 1.502 . S
C442 H428 0.960 . S
C442 H429 0.961 . S
C442 H430 0.959 . S
C442 C440 1.561 . S
C443 C440 1.526 . S
C443 C444 1.396 1_545 S
C443 C448 1.390 . S
C444 C438 1.465 . S
C444 C443 1.396 1_565 S
C444 C445 1.399 . S
C445 H431 0.929 . S
C445 C444 1.399 . S
C445 C446 1.385 . S
C446 H432 0.931 . S
C446 C445 1.385 . S
C446 C447 1.389 1_565 S
C447 C446 1.389 1_545 S
C447 C448 1.387 . S
C448 H433 0.930 . S
C448 C443 1.390 . S
C448 C447 1.387 . S
H449 C461 0.930 . S
H450 C463 0.930 . S
H451 C464 0.930 . S
H452 C468 0.959 . S
H453 C468 0.959 . S
H454 C468 0.961 . S
H455 C469 0.960 . S
H456 C469 0.961 . S
H457 C469 0.959 . S
H458 C472 0.929 . S
H459 C473 0.931 . S
H460 C475 0.930 . S
C461 H449 0.930 . S
C461 C462 1.399 . S
C461 C466 1.399 1_556 S
C462 C461 1.399 . S
C462 C463 1.376 . S
C463 H450 0.930 . S
C463 C462 1.376 . S
C463 C464 1.388 . S
C464 H451 0.930 . S
C464 C463 1.388 . S
C464 C465 1.390 1_556 S
C465 C464 1.390 1_554 S
C465 C466 1.394 . S
C465 C471 1.465 . S
C466 C461 1.399 1_554 S
C466 C465 1.394 . S
C466 C467 1.516 . S
C467 C466 1.516 . S
C467 C468 1.502 . S
C467 C469 1.561 . S
C467 C470 1.526 . S
C468 H452 0.959 . S
C468 H453 0.959 . S
C468 H454 0.961 . S
C468 C467 1.502 . S
C469 H455 0.960 . S
C469 H456 0.961 . S
C469 H457 0.959 . S
C469 C467 1.561 . S
C470 C467 1.526 . S
C470 C471 1.396 . S
C470 C475 1.390 . S
C471 C465 1.465 . S
C471 C470 1.396 . S
C471 C472 1.399 . S
C472 H458 0.929 . S
C472 C471 1.399 . S
C472 C473 1.385 . S
C473 H459 0.931 . S
C473 C472 1.385 . S
C473 C474 1.389 . S
C474 C473 1.389 . S
C474 C475 1.387 . S
C475 H460 0.930 . S
C475 C470 1.390 . S
C475 C474 1.387 . S
H476 C488 0.930 . S
H477 C490 0.930 1_655 S
H478 C491 0.930 . S
H479 C495 0.959 . S
H480 C495 0.959 . S
H481 C495 0.961 . S
H482 C496 0.960 . S
H483 C496 0.961 . S
H484 C496 0.959 . S
H485 C499 0.929 . S
H486 C500 0.931 . S
H487 C502 0.930 . S
C488 H476 0.930 . S
C488 C489 1.399 . S
C488 C493 1.399 . S
C489 C488 1.399 . S
C489 C490 1.376 1_565 S
C490 H477 0.930 1_455 S
C490 C489 1.376 1_545 S
C490 C491 1.388 1_455 S
C491 H478 0.930 . S
C491 C490 1.388 1_655 S
C491 C492 1.390 1_655 S
C492 C491 1.390 1_455 S
C492 C493 1.394 1_545 S
C492 C498 1.465 . S
C493 C488 1.399 . S
C493 C492 1.394 1_565 S
C493 C494 1.516 . S
C494 C493 1.516 . S
C494 C495 1.502 . S
C494 C496 1.561 . S
C494 C497 1.526 . S
C495 H479 0.959 . S
C495 H480 0.959 . S
C495 H481 0.961 . S
C495 C494 1.502 . S
C496 H482 0.960 . S
C496 H483 0.961 . S
C496 H484 0.959 . S
C496 C494 1.561 . S
C497 C494 1.526 . S
C497 C498 1.396 1_565 S
C497 C502 1.390 . S
C498 C492 1.465 . S
C498 C497 1.396 1_545 S
C498 C499 1.399 1_455 S
C499 H485 0.929 . S
C499 C498 1.399 1_655 S
C499 C500 1.385 . S
C500 H486 0.931 . S
C500 C499 1.385 . S
C500 C501 1.389 1_655 S
C501 C500 1.389 1_455 S
C501 C502 1.387 1_545 S
C502 H487 0.930 . S
C502 C497 1.390 . S
C502 C501 1.387 1_565 S
H503 C515 0.930 . S
H504 C517 0.930 . S
H505 C518 0.930 . S
H506 C522 0.959 . S
H507 C522 0.959 . S
H508 C522 0.961 . S
H509 C523 0.960 . S
H510 C523 0.961 . S
H511 C523 0.959 . S
H512 C526 0.929 . S
H513 C527 0.931 . S
H514 C529 0.930 . S
C515 H503 0.930 . S
C515 C516 1.399 . S
C515 C520 1.399 . S
C516 C515 1.399 . S
C516 C517 1.376 . S
C517 H504 0.930 . S
C517 C516 1.376 . S
C517 C518 1.388 . S
C518 H505 0.930 . S
C518 C517 1.388 . S
C518 C519 1.390 . S
C519 C518 1.390 . S
C519 C520 1.394 . S
C519 C525 1.465 . S
C520 C515 1.399 . S
C520 C519 1.394 . S
C520 C521 1.516 . S
C521 C520 1.516 . S
C521 C522 1.502 . S
C521 C523 1.561 . S
C521 C524 1.526 . S
C522 H506 0.959 . S
C522 H507 0.959 . S
C522 H508 0.961 . S
C522 C521 1.502 . S
C523 H509 0.960 . S
C523 H510 0.961 . S
C523 H511 0.959 . S
C523 C521 1.561 . S
C524 C521 1.526 . S
C524 C525 1.396 . S
C524 C529 1.390 . S
C525 C519 1.465 . S
C525 C524 1.396 . S
C525 C526 1.399 . S
C526 H512 0.929 . S
C526 C525 1.399 . S
C526 C527 1.385 . S
C527 H513 0.931 . S
C527 C526 1.385 . S
C527 C528 1.389 . S
C528 C527 1.389 . S
C528 C529 1.387 . S
C529 H514 0.930 . S
C529 C524 1.390 . S
C529 C528 1.387 . S
H530 C542 0.930 . S
H531 C544 0.930 . S
H532 C545 0.930 . S
H533 C549 0.959 . S
H534 C549 0.959 . S
H535 C549 0.961 . S
H536 C550 0.960 . S
H537 C550 0.961 . S
H538 C550 0.959 . S
H539 C553 0.929 . S
H540 C554 0.931 . S
H541 C556 0.930 . S
C542 H530 0.930 . S
C542 C543 1.399 . S
C542 C547 1.399 . S
C543 C542 1.399 . S
C543 C544 1.376 1_545 S
C544 H531 0.930 . S
C544 C543 1.376 1_565 S
C544 C545 1.388 . S
C545 H532 0.930 . S
C545 C544 1.388 . S
C545 C546 1.390 1_565 S
C546 C545 1.390 1_545 S
C546 C547 1.394 . S
C546 C552 1.465 . S
C547 C542 1.399 . S
C547 C546 1.394 . S
C547 C548 1.516 . S
C548 C547 1.516 . S
C548 C549 1.502 . S
C548 C550 1.561 . S
C548 C551 1.526 . S
C549 H533 0.959 . S
C549 H534 0.959 . S
C549 H535 0.961 . S
C549 C548 1.502 . S
C550 H536 0.960 . S
C550 H537 0.961 . S
C550 H538 0.959 . S
C550 C548 1.561 . S
C551 C548 1.526 . S
C551 C552 1.396 . S
C551 C556 1.390 . S
C552 C546 1.465 . S
C552 C551 1.396 . S
C552 C553 1.399 1_545 S
C553 H539 0.929 . S
C553 C552 1.399 1_565 S
C553 C554 1.385 . S
C554 H540 0.931 . S
C554 C553 1.385 . S
C554 C555 1.389 1_565 S
C555 C554 1.389 1_545 S
C555 C556 1.387 . S
C556 H541 0.930 . S
C556 C551 1.390 . S
C556 C555 1.387 . S
H557 C569 0.930 . S
H558 C571 0.930 . S
H559 C572 0.930 . S
H560 C576 0.959 . S
H561 C576 0.959 . S
H562 C576 0.961 1_554 S
H563 C577 0.960 1_554 S
H564 C577 0.961 . S
H565 C577 0.959 . S
H566 C580 0.929 . S
H567 C581 0.931 . S
H568 C583 0.930 . S
C569 H557 0.930 . S
C569 C570 1.399 . S
C569 C574 1.399 . S
C570 C569 1.399 . S
C570 C571 1.376 . S
C571 H558 0.930 . S
C571 C570 1.376 . S
C571 C572 1.388 . S
C572 H559 0.930 . S
C572 C571 1.388 . S
C572 C573 1.390 . S
C573 C572 1.390 . S
C573 C574 1.394 . S
C573 C579 1.465 1_554 S
C574 C569 1.399 . S
C574 C573 1.394 . S
C574 C575 1.516 1_554 S
C575 C574 1.516 1_556 S
C575 C576 1.502 . S
C575 C577 1.561 . S
C575 C578 1.526 . S
C576 H560 0.959 . S
C576 H561 0.959 . S
C576 H562 0.961 1_556 S
C576 C575 1.502 . S
C577 H563 0.960 1_556 S
C577 H564 0.961 . S
C577 H565 0.959 . S
C577 C575 1.561 . S
C578 C575 1.526 . S
C578 C579 1.396 . S
C578 C583 1.390 . S
C579 C573 1.465 1_556 S
C579 C578 1.396 . S
C579 C580 1.399 . S
C580 H566 0.929 . S
C580 C579 1.399 . S
C580 C581 1.385 . S
C581 H567 0.931 . S
C581 C580 1.385 . S
C581 C582 1.389 . S
C582 C581 1.389 . S
C582 C583 1.387 . S
C583 H568 0.930 . S
C583 C578 1.390 . S
C583 C582 1.387 . S
H584 C596 0.930 . S
H585 C598 0.930 . S
H586 C599 0.930 . S
H587 C603 0.959 . S
H588 C603 0.959 . S
H589 C603 0.961 . S
H590 C604 0.960 . S
H591 C604 0.961 . S
H592 C604 0.959 . S
H593 C607 0.929 . S
H594 C608 0.931 . S
H595 C610 0.930 . S
C596 H584 0.930 . S
C596 C597 1.399 . S
C596 C601 1.399 . S
C597 C596 1.399 . S
C597 C598 1.376 . S
C598 H585 0.930 . S
C598 C597 1.376 . S
C598 C599 1.388 . S
C599 H586 0.930 . S
C599 C598 1.388 . S
C599 C600 1.390 . S
C600 C599 1.390 . S
C600 C601 1.394 . S
C600 C606 1.465 . S
C601 C596 1.399 . S
C601 C600 1.394 . S
C601 C602 1.516 . S
C602 C601 1.516 . S
C602 C603 1.502 . S
C602 C604 1.561 . S
C602 C605 1.526 . S
C603 H587 0.959 . S
C603 H588 0.959 . S
C603 H589 0.961 . S
C603 C602 1.502 . S
C604 H590 0.960 . S
C604 H591 0.961 . S
C604 H592 0.959 . S
C604 C602 1.561 . S
C605 C602 1.526 . S
C605 C606 1.396 . S
C605 C610 1.390 . S
C606 C600 1.465 . S
C606 C605 1.396 . S
C606 C607 1.399 . S
C607 H593 0.929 . S
C607 C606 1.399 . S
C607 C608 1.385 . S
C608 H594 0.931 . S
C608 C607 1.385 . S
C608 C609 1.389 . S
C609 C608 1.389 . S
C609 C610 1.387 . S
C610 H595 0.930 . S
C610 C605 1.390 . S
C610 C609 1.387 . S
H611 C623 0.930 . S
H612 C625 0.930 . S
H613 C626 0.930 . S
H614 C630 0.959 . S
H615 C630 0.959 . S
H616 C630 0.961 1_556 S
H617 C631 0.960 . S
H618 C631 0.961 . S
H619 C631 0.959 . S
H620 C634 0.929 . S
H621 C635 0.931 . S
H622 C637 0.930 . S
C623 H611 0.930 . S
C623 C624 1.399 . S
C623 C628 1.399 . S
C624 C623 1.399 . S
C624 C625 1.376 . S
C625 H612 0.930 . S
C625 C624 1.376 . S
C625 C626 1.388 . S
C626 H613 0.930 . S
C626 C625 1.388 . S
C626 C627 1.390 1_556 S
C627 C626 1.390 1_554 S
C627 C628 1.394 1_554 S
C627 C633 1.465 . S
C628 C623 1.399 . S
C628 C627 1.394 1_556 S
C628 C629 1.516 1_556 S
C629 C628 1.516 1_554 S
C629 C630 1.502 . S
C629 C631 1.561 . S
C629 C632 1.526 . S
C630 H614 0.959 . S
C630 H615 0.959 . S
C630 H616 0.961 1_554 S
C630 C629 1.502 . S
C631 H617 0.960 . S
C631 H618 0.961 . S
C631 H619 0.959 . S
C631 C629 1.561 . S
C632 C629 1.526 . S
C632 C633 1.396 . S
C632 C637 1.390 . S
C633 C627 1.465 . S
C633 C632 1.396 . S
C633 C634 1.399 . S
C634 H620 0.929 . S
C634 C633 1.399 . S
C634 C635 1.385 . S
C635 H621 0.931 . S
C635 C634 1.385 . S
C635 C636 1.389 . S
C636 C635 1.389 . S
C636 C637 1.387 . S
C637 H622 0.930 . S
C637 C632 1.390 . S
C637 C636 1.387 . S
H638 C650 0.930 . S
H639 C652 0.930 1_655 S
H640 C653 0.930 . S
H641 C657 0.959 . S
H642 C657 0.959 . S
H643 C657 0.961 . S
H644 C658 0.960 . S
H645 C658 0.961 . S
H646 C658 0.959 . S
H647 C661 0.929 1_655 S
H648 C662 0.931 1_655 S
H649 C664 0.930 . S
C650 H638 0.930 . S
C650 C651 1.399 . S
C650 C655 1.399 . S
C651 C650 1.399 . S
C651 C652 1.376 . S
C652 H639 0.930 1_455 S
C652 C651 1.376 . S
C652 C653 1.388 1_455 S
C653 H640 0.930 . S
C653 C652 1.388 1_655 S
C653 C654 1.390 1_655 S
C654 C653 1.390 1_455 S
C654 C655 1.394 . S
C654 C660 1.465 . S
C655 C650 1.399 . S
C655 C654 1.394 . S
C655 C656 1.516 . S
C656 C655 1.516 . S
C656 C657 1.502 . S
C656 C658 1.561 . S
C656 C659 1.526 . S
C657 H641 0.959 . S
C657 H642 0.959 . S
C657 H643 0.961 . S
C657 C656 1.502 . S
C658 H644 0.960 . S
C658 H645 0.961 . S
C658 H646 0.959 . S
C658 C656 1.561 . S
C659 C656 1.526 . S
C659 C660 1.396 . S
C659 C664 1.390 . S
C660 C654 1.465 . S
C660 C659 1.396 . S
C660 C661 1.399 . S
C661 H647 0.929 1_455 S
C661 C660 1.399 . S
C661 C662 1.385 . S
C662 H648 0.931 1_455 S
C662 C661 1.385 . S
C662 C663 1.389 . S
C663 C662 1.389 . S
C663 C664 1.387 . S
C664 H649 0.930 . S
C664 C659 1.390 . S
C664 C663 1.387 . S
H665 C677 0.930 . S
H666 C679 0.930 . S
H667 C680 0.930 . S
H668 C684 0.959 . S
H669 C684 0.959 . S
H670 C684 0.961 . S
H671 C685 0.960 . S
H672 C685 0.961 . S
H673 C685 0.959 . S
H674 C688 0.929 . S
H675 C689 0.931 . S
H676 C691 0.930 . S
C677 H665 0.930 . S
C677 C678 1.399 . S
C677 C682 1.399 . S
C678 C677 1.399 . S
C678 C679 1.376 . S
C679 H666 0.930 . S
C679 C678 1.376 . S
C679 C680 1.388 . S
C680 H667 0.930 . S
C680 C679 1.388 . S
C680 C681 1.390 . S
C681 C680 1.390 . S
C681 C682 1.394 . S
C681 C687 1.465 . S
C682 C677 1.399 . S
C682 C681 1.394 . S
C682 C683 1.516 . S
C683 C682 1.516 . S
C683 C684 1.502 . S
C683 C685 1.561 . S
C683 C686 1.526 . S
C684 H668 0.959 . S
C684 H669 0.959 . S
C684 H670 0.961 . S
C684 C683 1.502 . S
C685 H671 0.960 . S
C685 H672 0.961 . S
C685 H673 0.959 . S
C685 C683 1.561 . S
C686 C683 1.526 . S
C686 C687 1.396 . S
C686 C691 1.390 . S
C687 C681 1.465 . S
C687 C686 1.396 . S
C687 C688 1.399 . S
C688 H674 0.929 . S
C688 C687 1.399 . S
C688 C689 1.385 . S
C689 H675 0.931 . S
C689 C688 1.385 . S
C689 C690 1.389 . S
C690 C689 1.389 . S
C690 C691 1.387 . S
C691 H676 0.930 . S
C691 C686 1.390 . S
C691 C690 1.387 . S
H692 C704 0.930 . S
H693 C706 0.930 . S
H694 C707 0.930 . S
H695 C711 0.959 . S
H696 C711 0.959 . S
H697 C711 0.961 . S
H698 C712 0.960 . S
H699 C712 0.961 . S
H700 C712 0.959 . S
H701 C715 0.929 . S
H702 C716 0.931 . S
H703 C718 0.930 . S
C704 H692 0.930 . S
C704 C705 1.399 . S
C704 C709 1.399 . S
C705 C704 1.399 . S
C705 C706 1.376 . S
C706 H693 0.930 . S
C706 C705 1.376 . S
C706 C707 1.388 . S
C707 H694 0.930 . S
C707 C706 1.388 . S
C707 C708 1.390 . S
C708 C707 1.390 . S
C708 C709 1.394 . S
C708 C714 1.465 . S
C709 C704 1.399 . S
C709 C708 1.394 . S
C709 C710 1.516 . S
C710 C709 1.516 . S
C710 C711 1.502 . S
C710 C712 1.561 . S
C710 C713 1.526 . S
C711 H695 0.959 . S
C711 H696 0.959 . S
C711 H697 0.961 . S
C711 C710 1.502 . S
C712 H698 0.960 . S
C712 H699 0.961 . S
C712 H700 0.959 . S
C712 C710 1.561 . S
C713 C710 1.526 . S
C713 C714 1.396 . S
C713 C718 1.390 . S
C714 C708 1.465 . S
C714 C713 1.396 . S
C714 C715 1.399 . S
C715 H701 0.929 . S
C715 C714 1.399 . S
C715 C716 1.385 . S
C716 H702 0.931 . S
C716 C715 1.385 . S
C716 C717 1.389 . S
C717 C716 1.389 . S
C717 C718 1.387 . S
C718 H703 0.930 . S
C718 C713 1.390 . S
C718 C717 1.387 . S
H719 C731 0.930 . S
H720 C733 0.930 . S
H721 C734 0.930 . S
H722 C738 0.961 . S
H723 C738 0.972 . S
H724 C738 0.946 1_554 S
H725 C739 0.960 . S
H726 C739 0.961 1_556 S
H727 C739 0.959 1_556 S
H728 C742 0.929 . S
H729 C743 0.931 . S
H730 C745 0.930 . S
C731 H719 0.930 . S
C731 C732 1.399 . S
C731 C736 1.399 . S
C732 C731 1.399 . S
C732 C733 1.376 . S
C733 H720 0.930 . S
C733 C732 1.376 . S
C733 C734 1.388 . S
C734 H721 0.930 . S
C734 C733 1.388 . S
C734 C735 1.390 . S
C735 C734 1.390 . S
C735 C736 1.394 . S
C735 C741 1.465 1_554 S
C736 C731 1.399 . S
C736 C735 1.394 . S
C736 C737 1.502 1_554 S
C737 C736 1.502 1_556 S
C737 C738 1.502 . S
C737 C739 1.561 1_556 S
C737 C740 1.542 . S
C738 H722 0.961 . S
C738 H723 0.972 . S
C738 H724 0.946 1_556 S
C738 C737 1.502 . S
C739 H725 0.960 . S
C739 H726 0.961 1_554 S
C739 H727 0.959 1_554 S
C739 C737 1.561 1_554 S
C740 C737 1.542 . S
C740 C741 1.396 . S
C740 C745 1.390 . S
C741 C735 1.465 1_556 S
C741 C740 1.396 . S
C741 C742 1.399 . S
C742 H728 0.929 . S
C742 C741 1.399 . S
C742 C743 1.385 . S
C743 H729 0.931 . S
C743 C742 1.385 . S
C743 C744 1.389 . S
C744 C743 1.389 . S
C744 C745 1.387 . S
C745 H730 0.930 . S
C745 C740 1.390 . S
C745 C744 1.387 . S
H746 C758 0.930 . S
H747 C760 0.930 1_655 S
H748 C761 0.930 . S
H749 C765 0.959 . S
H750 C765 0.959 . S
H751 C765 0.961 . S
H752 C766 0.960 . S
H753 C766 0.961 . S
H754 C766 0.959 1_655 S
H755 C769 0.929 . S
H756 C770 0.931 . S
H757 C772 0.930 . S
C758 H746 0.930 . S
C758 C759 1.399 . S
C758 C763 1.399 . S
C759 C758 1.399 . S
C759 C760 1.376 . S
C760 H747 0.930 1_455 S
C760 C759 1.376 . S
C760 C761 1.388 1_455 S
C761 H748 0.930 . S
C761 C760 1.388 1_655 S
C761 C762 1.390 1_655 S
C762 C761 1.390 1_455 S
C762 C763 1.394 . S
C762 C768 1.465 . S
C763 C758 1.399 . S
C763 C762 1.394 . S
C763 C764 1.516 . S
C764 C763 1.516 . S
C764 C765 1.502 . S
C764 C766 1.561 . S
C764 C767 1.526 . S
C765 H749 0.959 . S
C765 H750 0.959 . S
C765 H751 0.961 . S
C765 C764 1.502 . S
C766 H752 0.960 . S
C766 H753 0.961 . S
C766 H754 0.959 1_455 S
C766 C764 1.561 . S
C767 C764 1.526 . S
C767 C768 1.396 . S
C767 C772 1.390 . S
C768 C762 1.465 . S
C768 C767 1.396 . S
C768 C769 1.399 1_455 S
C769 H755 0.929 . S
C769 C768 1.399 1_655 S
C769 C770 1.385 . S
C770 H756 0.931 . S
C770 C769 1.385 . S
C770 C771 1.389 1_655 S
C771 C770 1.389 1_455 S
C771 C772 1.387 . S
C772 H757 0.930 . S
C772 C767 1.390 . S
C772 C771 1.387 . S
H773 C785 0.930 . S
H774 C787 0.930 . S
H775 C788 0.930 . S
H776 C792 0.959 . S
H777 C792 0.959 . S
H778 C792 0.961 . S
H779 C793 0.960 . S
H780 C793 0.961 . S
H781 C793 0.959 . S
H782 C796 0.929 . S
H783 C797 0.931 . S
H784 C799 0.930 . S
C785 H773 0.930 . S
C785 C786 1.399 . S
C785 C790 1.399 . S
C786 C785 1.399 . S
C786 C787 1.376 . S
C787 H774 0.930 . S
C787 C786 1.376 . S
C787 C788 1.388 . S
C788 H775 0.930 . S
C788 C787 1.388 . S
C788 C789 1.390 . S
C789 C788 1.390 . S
C789 C790 1.394 . S
C789 C795 1.465 . S
C790 C785 1.399 . S
C790 C789 1.394 . S
C790 C791 1.516 . S
C791 C790 1.516 . S
C791 C792 1.502 . S
C791 C793 1.561 . S
C791 C794 1.526 . S
C792 H776 0.959 . S
C792 H777 0.959 . S
C792 H778 0.961 . S
C792 C791 1.502 . S
C793 H779 0.960 . S
C793 H780 0.961 . S
C793 H781 0.959 . S
C793 C791 1.561 . S
C794 C791 1.526 . S
C794 C795 1.396 . S
C794 C799 1.390 . S
C795 C789 1.465 . S
C795 C794 1.396 . S
C795 C796 1.399 . S
C796 H782 0.929 . S
C796 C795 1.399 . S
C796 C797 1.385 . S
C797 H783 0.931 . S
C797 C796 1.385 . S
C797 C798 1.389 . S
C798 C797 1.389 . S
C798 C799 1.387 . S
C799 H784 0.930 . S
C799 C794 1.390 . S
C799 C798 1.387 . S
H800 C812 0.930 . S
H801 C814 0.930 . S
H802 C815 0.930 . S
H803 C819 0.959 . S
H804 C819 0.959 . S
H805 C819 0.961 . S
H806 C820 0.960 . S
H807 C820 0.961 . S
H808 C820 0.959 . S
H809 C823 0.929 . S
H810 C824 0.931 . S
H811 C826 0.930 . S
C812 H800 0.930 . S
C812 C813 1.399 . S
C812 C817 1.399 . S
C813 C812 1.399 . S
C813 C814 1.376 . S
C814 H801 0.930 . S
C814 C813 1.376 . S
C814 C815 1.388 . S
C815 H802 0.930 . S
C815 C814 1.388 . S
C815 C816 1.390 . S
C816 C815 1.390 . S
C816 C817 1.394 . S
C816 C822 1.465 . S
C817 C812 1.399 . S
C817 C816 1.394 . S
C817 C818 1.516 . S
C818 C817 1.516 . S
C818 C819 1.502 . S
C818 C820 1.561 . S
C818 C821 1.526 . S
C819 H803 0.959 . S
C819 H804 0.959 . S
C819 H805 0.961 . S
C819 C818 1.502 . S
C820 H806 0.960 . S
C820 H807 0.961 . S
C820 H808 0.959 . S
C820 C818 1.561 . S
C821 C818 1.526 . S
C821 C822 1.396 . S
C821 C826 1.390 . S
C822 C816 1.465 . S
C822 C821 1.396 . S
C822 C823 1.399 . S
C823 H809 0.929 . S
C823 C822 1.399 . S
C823 C824 1.385 . S
C824 H810 0.931 . S
C824 C823 1.385 . S
C824 C825 1.389 . S
C825 C824 1.389 . S
C825 C826 1.387 . S
C826 H811 0.930 . S
C826 C821 1.390 . S
C826 C825 1.387 . S
H827 C839 0.930 . S
H828 C841 0.930 . S
H829 C842 0.930 . S
H830 C846 0.959 . S
H831 C846 0.959 . S
H832 C846 0.961 . S
H833 C847 0.960 . S
H834 C847 0.961 . S
H835 C847 0.959 . S
H836 C850 0.929 . S
H837 C851 0.931 . S
H838 C853 0.930 . S
C839 H827 0.930 . S
C839 C840 1.399 . S
C839 C844 1.399 . S
C840 C839 1.399 . S
C840 C841 1.376 . S
C841 H828 0.930 . S
C841 C840 1.376 . S
C841 C842 1.388 . S
C842 H829 0.930 . S
C842 C841 1.388 . S
C842 C843 1.390 . S
C843 C842 1.390 . S
C843 C844 1.394 . S
C843 C849 1.465 . S
C844 C839 1.399 . S
C844 C843 1.394 . S
C844 C845 1.516 . S
C845 C844 1.516 . S
C845 C846 1.502 . S
C845 C847 1.561 . S
C845 C848 1.526 . S
C846 H830 0.959 . S
C846 H831 0.959 . S
C846 H832 0.961 . S
C846 C845 1.502 . S
C847 H833 0.960 . S
C847 H834 0.961 . S
C847 H835 0.959 . S
C847 C845 1.561 . S
C848 C845 1.526 . S
C848 C849 1.396 . S
C848 C853 1.390 . S
C849 C843 1.465 . S
C849 C848 1.396 . S
C849 C850 1.399 . S
C850 H836 0.929 . S
C850 C849 1.399 . S
C850 C851 1.385 . S
C851 H837 0.931 . S
C851 C850 1.385 . S
C851 C852 1.389 . S
C852 C851 1.389 . S
C852 C853 1.387 . S
C853 H838 0.930 . S
C853 C848 1.390 . S
C853 C852 1.387 . S
H854 C866 0.930 . S
H855 C868 0.930 . S
H856 C869 0.930 . S
H857 C873 0.959 . S
H858 C873 0.959 . S
H859 C873 0.961 . S
H860 C874 0.960 . S
H861 C874 0.961 . S
H862 C874 0.959 . S
H863 C877 0.929 . S
H864 C878 0.931 . S
H865 C880 0.930 . S
C866 H854 0.930 . S
C866 C867 1.399 . S
C866 C871 1.399 . S
C867 C866 1.399 . S
C867 C868 1.376 . S
C868 H855 0.930 . S
C868 C867 1.376 . S
C868 C869 1.388 . S
C869 H856 0.930 . S
C869 C868 1.388 . S
C869 C870 1.390 . S
C870 C869 1.390 . S
C870 C871 1.394 . S
C870 C876 1.465 . S
C871 C866 1.399 . S
C871 C870 1.394 . S
C871 C872 1.516 . S
C872 C871 1.516 . S
C872 C873 1.502 . S
C872 C874 1.561 . S
C872 C875 1.526 . S
C873 H857 0.959 . S
C873 H858 0.959 . S
C873 H859 0.961 . S
C873 C872 1.502 . S
C874 H860 0.960 . S
C874 H861 0.961 . S
C874 H862 0.959 . S
C874 C872 1.561 . S
C875 C872 1.526 . S
C875 C876 1.396 . S
C875 C880 1.390 . S
C876 C870 1.465 . S
C876 C875 1.396 . S
C876 C877 1.399 . S
C877 H863 0.929 . S
C877 C876 1.399 . S
C877 C878 1.385 . S
C878 H864 0.931 . S
C878 C877 1.385 . S
C878 C879 1.389 . S
C879 C878 1.389 . S
C879 C880 1.387 . S
C880 H865 0.930 . S
C880 C875 1.390 . S
C880 C879 1.387 . S
H881 C893 0.930 . S
H882 C895 0.930 . S
H883 C896 0.930 . S
H884 C900 0.959 . S
H885 C900 0.959 . S
H886 C900 0.961 . S
H887 C901 0.960 . S
H888 C901 0.961 . S
H889 C901 0.959 . S
H890 C904 0.929 . S
H891 C905 0.931 . S
H892 C907 0.930 . S
C893 H881 0.930 . S
C893 C894 1.399 . S
C893 C898 1.399 . S
C894 C893 1.399 . S
C894 C895 1.376 . S
C895 H882 0.930 . S
C895 C894 1.376 . S
C895 C896 1.388 . S
C896 H883 0.930 . S
C896 C895 1.388 . S
C896 C897 1.390 . S
C897 C896 1.390 . S
C897 C898 1.394 . S
C897 C903 1.465 . S
C898 C893 1.399 . S
C898 C897 1.394 . S
C898 C899 1.516 . S
C899 C898 1.516 . S
C899 C900 1.502 . S
C899 C901 1.561 . S
C899 C902 1.526 . S
C900 H884 0.959 . S
C900 H885 0.959 . S
C900 H886 0.961 . S
C900 C899 1.502 . S
C901 H887 0.960 . S
C901 H888 0.961 . S
C901 H889 0.959 . S
C901 C899 1.561 . S
C902 C899 1.526 . S
C902 C903 1.396 . S
C902 C907 1.390 . S
C903 C897 1.465 . S
C903 C902 1.396 . S
C903 C904 1.399 . S
C904 H890 0.929 . S
C904 C903 1.399 . S
C904 C905 1.385 . S
C905 H891 0.931 . S
C905 C904 1.385 . S
C905 C906 1.389 . S
C906 C905 1.389 . S
C906 C907 1.387 . S
C907 H892 0.930 . S
C907 C902 1.390 . S
C907 C906 1.387 . S
H908 C920 0.930 . S
H909 C922 0.930 . S
H910 C923 0.930 . S
H911 C927 0.959 . S
H912 C927 0.959 . S
H913 C927 0.961 . S
H914 C928 0.960 . S
H915 C928 0.961 . S
H916 C928 0.959 . S
H917 C931 0.929 . S
H918 C932 0.931 . S
H919 C934 0.930 . S
C920 H908 0.930 . S
C920 C921 1.399 . S
C920 C925 1.399 . S
C921 C920 1.399 . S
C921 C922 1.376 . S
C922 H909 0.930 . S
C922 C921 1.376 . S
C922 C923 1.388 . S
C923 H910 0.930 . S
C923 C922 1.388 . S
C923 C924 1.390 . S
C924 C923 1.390 . S
C924 C925 1.394 . S
C924 C930 1.465 . S
C925 C920 1.399 . S
C925 C924 1.394 . S
C925 C926 1.516 . S
C926 C925 1.516 . S
C926 C927 1.502 . S
C926 C928 1.561 . S
C926 C929 1.526 . S
C927 H911 0.959 . S
C927 H912 0.959 . S
C927 H913 0.961 . S
C927 C926 1.502 . S
C928 H914 0.960 . S
C928 H915 0.961 . S
C928 H916 0.959 . S
C928 C926 1.561 . S
C929 C926 1.526 . S
C929 C930 1.396 . S
C929 C934 1.390 . S
C930 C924 1.465 . S
C930 C929 1.396 . S
C930 C931 1.399 . S
C931 H917 0.929 . S
C931 C930 1.399 . S
C931 C932 1.385 . S
C932 H918 0.931 . S
C932 C931 1.385 . S
C932 C933 1.389 . S
C933 C932 1.389 . S
C933 C934 1.387 . S
C934 H919 0.930 . S
C934 C929 1.390 . S
C934 C933 1.387 . S
H935 C947 0.930 . S
H936 C949 0.930 . S
H937 C950 0.930 . S
H938 C954 0.959 . S
H939 C954 0.959 . S
H940 C954 0.961 . S
H941 C955 0.960 . S
H942 C955 0.961 . S
H943 C955 0.959 . S
H944 C958 0.929 . S
H945 C959 0.931 . S
H946 C961 0.930 . S
C947 H935 0.930 . S
C947 C948 1.399 . S
C947 C952 1.399 . S
C948 C947 1.399 . S
C948 C949 1.376 . S
C949 H936 0.930 . S
C949 C948 1.376 . S
C949 C950 1.388 . S
C950 H937 0.930 . S
C950 C949 1.388 . S
C950 C951 1.390 . S
C951 C950 1.390 . S
C951 C952 1.394 . S
C951 C957 1.465 . S
C952 C947 1.399 . S
C952 C951 1.394 . S
C952 C953 1.516 . S
C953 C952 1.516 . S
C953 C954 1.502 . S
C953 C955 1.561 . S
C953 C956 1.526 . S
C954 H938 0.959 . S
C954 H939 0.959 . S
C954 H940 0.961 . S
C954 C953 1.502 . S
C955 H941 0.960 . S
C955 H942 0.961 . S
C955 H943 0.959 . S
C955 C953 1.561 . S
C956 C953 1.526 . S
C956 C957 1.396 . S
C956 C961 1.390 . S
C957 C951 1.465 . S
C957 C956 1.396 . S
C957 C958 1.399 . S
C958 H944 0.929 . S
C958 C957 1.399 . S
C958 C959 1.385 . S
C959 H945 0.931 . S
C959 C958 1.385 . S
C959 C960 1.389 . S
C960 C959 1.389 . S
C960 C961 1.387 . S
C961 H946 0.930 . S
C961 C956 1.390 . S
C961 C960 1.387 . S
H962 C974 0.930 . S
H963 C976 0.930 . S
H964 C977 0.930 . S
H965 C981 0.959 . S
H966 C981 0.959 . S
H967 C981 0.961 . S
H968 C982 0.960 . S
H969 C982 0.961 . S
H970 C982 0.959 . S
H971 C985 0.929 . S
H972 C986 0.931 . S
H973 C988 0.930 . S
C974 H962 0.930 . S
C974 C975 1.399 . S
C974 C979 1.399 . S
C975 C974 1.399 . S
C975 C976 1.376 . S
C976 H963 0.930 . S
C976 C975 1.376 . S
C976 C977 1.388 . S
C977 H964 0.930 . S
C977 C976 1.388 . S
C977 C978 1.390 . S
C978 C977 1.390 . S
C978 C979 1.394 . S
C978 C984 1.465 . S
C979 C974 1.399 . S
C979 C978 1.394 . S
C979 C980 1.516 . S
C980 C979 1.516 . S
C980 C981 1.502 . S
C980 C982 1.561 . S
C980 C983 1.526 . S
C981 H965 0.959 . S
C981 H966 0.959 . S
C981 H967 0.961 . S
C981 C980 1.502 . S
C982 H968 0.960 . S
C982 H969 0.961 . S
C982 H970 0.959 . S
C982 C980 1.561 . S
C983 C980 1.526 . S
C983 C984 1.396 . S
C983 C988 1.390 . S
C984 C978 1.465 . S
C984 C983 1.396 . S
C984 C985 1.399 . S
C985 H971 0.929 . S
C985 C984 1.399 . S
C985 C986 1.385 . S
C986 H972 0.931 . S
C986 C985 1.385 . S
C986 C987 1.389 . S
C987 C986 1.389 . S
C987 C988 1.387 . S
C988 H973 0.930 . S
C988 C983 1.390 . S
C988 C987 1.387 . S
H989 C1001 0.930 . S
H990 C1003 0.930 . S
H991 C1004 0.930 . S
H992 C1008 0.959 . S
H993 C1008 0.959 . S
H994 C1008 0.961 . S
H995 C1009 0.960 . S
H996 C1009 0.961 . S
H997 C1009 0.959 . S
H998 C1012 0.929 . S
H999 C1013 0.931 . S
H1000 C1015 0.930 . S
C1001 H989 0.930 . S
C1001 C1002 1.399 . S
C1001 C1006 1.399 . S
C1002 C1001 1.399 . S
C1002 C1003 1.376 . S
C1003 H990 0.930 . S
C1003 C1002 1.376 . S
C1003 C1004 1.388 . S
C1004 H991 0.930 . S
C1004 C1003 1.388 . S
C1004 C1005 1.390 . S
C1005 C1004 1.390 . S
C1005 C1006 1.394 . S
C1005 C1011 1.465 . S
C1006 C1001 1.399 . S
C1006 C1005 1.394 . S
C1006 C1007 1.516 . S
C1007 C1006 1.516 . S
C1007 C1008 1.502 . S
C1007 C1009 1.561 . S
C1007 C1010 1.526 . S
C1008 H992 0.959 . S
C1008 H993 0.959 . S
C1008 H994 0.961 . S
C1008 C1007 1.502 . S
C1009 H995 0.960 . S
C1009 H996 0.961 . S
C1009 H997 0.959 . S
C1009 C1007 1.561 . S
C1010 C1007 1.526 . S
C1010 C1011 1.396 . S
C1010 C1015 1.390 . S
C1011 C1005 1.465 . S
C1011 C1010 1.396 . S
C1011 C1012 1.399 . S
C1012 H998 0.929 . S
C1012 C1011 1.399 . S
C1012 C1013 1.385 . S
C1013 H999 0.931 . S
C1013 C1012 1.385 . S
C1013 C1014 1.389 . S
C1014 C1013 1.389 . S
C1014 C1015 1.387 . S
C1015 H1000 0.930 . S
C1015 C1010 1.390 . S
C1015 C1014 1.387 . S
H1016 C1028 0.930 . S
H1017 C1030 0.930 . S
H1018 C1031 0.930 . S
H1019 C1035 0.959 . S
H1020 C1035 0.959 . S
H1021 C1035 0.961 . S
H1022 C1036 0.960 . S
H1023 C1036 0.961 . S
H1024 C1036 0.959 . S
H1025 C1039 0.929 . S
H1026 C1040 0.931 . S
H1027 C1042 0.930 . S
C1028 H1016 0.930 . S
C1028 C1029 1.399 . S
C1028 C1033 1.399 . S
C1029 C1028 1.399 . S
C1029 C1030 1.376 . S
C1030 H1017 0.930 . S
C1030 C1029 1.376 . S
C1030 C1031 1.388 . S
C1031 H1018 0.930 . S
C1031 C1030 1.388 . S
C1031 C1032 1.390 . S
C1032 C1031 1.390 . S
C1032 C1033 1.394 . S
C1032 C1038 1.465 . S
C1033 C1028 1.399 . S
C1033 C1032 1.394 . S
C1033 C1034 1.516 . S
C1034 C1033 1.516 . S
C1034 C1035 1.502 . S
C1034 C1036 1.561 . S
C1034 C1037 1.526 . S
C1035 H1019 0.959 . S
C1035 H1020 0.959 . S
C1035 H1021 0.961 . S
C1035 C1034 1.502 . S
C1036 H1022 0.960 . S
C1036 H1023 0.961 . S
C1036 H1024 0.959 . S
C1036 C1034 1.561 . S
C1037 C1034 1.526 . S
C1037 C1038 1.396 . S
C1037 C1042 1.390 . S
C1038 C1032 1.465 . S
C1038 C1037 1.396 . S
C1038 C1039 1.399 . S
C1039 H1025 0.929 . S
C1039 C1038 1.399 . S
C1039 C1040 1.385 . S
C1040 H1026 0.931 . S
C1040 C1039 1.385 . S
C1040 C1041 1.389 . S
C1041 C1040 1.389 . S
C1041 C1042 1.387 . S
C1042 H1027 0.930 . S
C1042 C1037 1.390 . S
C1042 C1041 1.387 . S
H1043 C1055 0.930 . S
H1044 C1057 0.930 1_554 S
H1045 C1058 0.930 . S
H1046 C1062 0.959 . S
H1047 C1062 0.959 . S
H1048 C1062 0.961 . S
H1049 C1063 0.960 . S
H1050 C1063 0.961 . S
H1051 C1063 0.959 . S
H1052 C1066 0.929 . S
H1053 C1067 0.931 . S
H1054 C1069 0.930 . S
C1055 H1043 0.930 . S
C1055 C1056 1.399 . S
C1055 C1060 1.399 . S
C1056 C1055 1.399 . S
C1056 C1057 1.376 . S
C1057 H1044 0.930 1_556 S
C1057 C1056 1.376 . S
C1057 C1058 1.388 . S
C1058 H1045 0.930 . S
C1058 C1057 1.388 . S
C1058 C1059 1.390 . S
C1059 C1058 1.390 . S
C1059 C1060 1.394 . S
C1059 C1065 1.465 . S
C1060 C1055 1.399 . S
C1060 C1059 1.394 . S
C1060 C1061 1.516 . S
C1061 C1060 1.516 . S
C1061 C1062 1.502 . S
C1061 C1063 1.561 . S
C1061 C1064 1.526 . S
C1062 H1046 0.959 . S
C1062 H1047 0.959 . S
C1062 H1048 0.961 . S
C1062 C1061 1.502 . S
C1063 H1049 0.960 . S
C1063 H1050 0.961 . S
C1063 H1051 0.959 . S
C1063 C1061 1.561 . S
C1064 C1061 1.526 . S
C1064 C1065 1.396 . S
C1064 C1069 1.390 . S
C1065 C1059 1.465 . S
C1065 C1064 1.396 . S
C1065 C1066 1.399 . S
C1066 H1052 0.929 . S
C1066 C1065 1.399 . S
C1066 C1067 1.385 . S
C1067 H1053 0.931 . S
C1067 C1066 1.385 . S
C1067 C1068 1.389 . S
C1068 C1067 1.389 . S
C1068 C1069 1.387 . S
C1069 H1054 0.930 . S
C1069 C1064 1.390 . S
C1069 C1068 1.387 . S
H1070 C1082 0.930 . S
H1071 C1084 0.930 . S
H1072 C1085 0.930 . S
H1073 C1089 0.959 . S
H1074 C1089 0.959 . S
H1075 C1089 0.961 . S
H1076 C1090 0.960 . S
H1077 C1090 0.961 . S
H1078 C1090 0.959 . S
H1079 C1093 0.929 . S
H1080 C1094 0.931 . S
H1081 C1096 0.930 . S
C1082 H1070 0.930 . S
C1082 C1083 1.399 . S
C1082 C1087 1.399 . S
C1083 C1082 1.399 . S
C1083 C1084 1.376 . S
C1084 H1071 0.930 . S
C1084 C1083 1.376 . S
C1084 C1085 1.388 . S
C1085 H1072 0.930 . S
C1085 C1084 1.388 . S
C1085 C1086 1.390 . S
C1086 C1085 1.390 . S
C1086 C1087 1.394 . S
C1086 C1092 1.465 . S
C1087 C1082 1.399 . S
C1087 C1086 1.394 . S
C1087 C1088 1.516 . S
C1088 C1087 1.516 . S
C1088 C1089 1.502 . S
C1088 C1090 1.561 . S
C1088 C1091 1.526 . S
C1089 H1073 0.959 . S
C1089 H1074 0.959 . S
C1089 H1075 0.961 . S
C1089 C1088 1.502 . S
C1090 H1076 0.960 . S
C1090 H1077 0.961 . S
C1090 H1078 0.959 . S
C1090 C1088 1.561 . S
C1091 C1088 1.526 . S
C1091 C1092 1.396 . S
C1091 C1096 1.390 . S
C1092 C1086 1.465 . S
C1092 C1091 1.396 . S
C1092 C1093 1.399 . S
C1093 H1079 0.929 . S
C1093 C1092 1.399 . S
C1093 C1094 1.385 . S
C1094 H1080 0.931 . S
C1094 C1093 1.385 . S
C1094 C1095 1.389 . S
C1095 C1094 1.389 . S
C1095 C1096 1.387 . S
C1096 H1081 0.930 . S
C1096 C1091 1.390 . S
C1096 C1095 1.387 . S
H1097 C1109 0.930 . S
H1098 C1111 0.930 . S
H1099 C1112 0.930 . S
H1100 C1116 0.959 . S
H1101 C1116 0.959 . S
H1102 C1116 0.961 . S
H1103 C1117 0.960 . S
H1104 C1117 0.961 . S
H1105 C1117 0.959 . S
H1106 C1120 0.929 . S
H1107 C1121 0.931 . S
H1108 C1123 0.930 . S
C1109 H1097 0.930 . S
C1109 C1110 1.399 . S
C1109 C1114 1.399 . S
C1110 C1109 1.399 . S
C1110 C1111 1.376 . S
C1111 H1098 0.930 . S
C1111 C1110 1.376 . S
C1111 C1112 1.388 . S
C1112 H1099 0.930 . S
C1112 C1111 1.388 . S
C1112 C1113 1.390 . S
C1113 C1112 1.390 . S
C1113 C1114 1.394 . S
C1113 C1119 1.465 . S
C1114 C1109 1.399 . S
C1114 C1113 1.394 . S
C1114 C1115 1.516 . S
C1115 C1114 1.516 . S
C1115 C1116 1.502 . S
C1115 C1117 1.561 . S
C1115 C1118 1.526 . S
C1116 H1100 0.959 . S
C1116 H1101 0.959 . S
C1116 H1102 0.961 . S
C1116 C1115 1.502 . S
C1117 H1103 0.960 . S
C1117 H1104 0.961 . S
C1117 H1105 0.959 . S
C1117 C1115 1.561 . S
C1118 C1115 1.526 . S
C1118 C1119 1.396 . S
C1118 C1123 1.390 . S
C1119 C1113 1.465 . S
C1119 C1118 1.396 . S
C1119 C1120 1.399 . S
C1120 H1106 0.929 . S
C1120 C1119 1.399 . S
C1120 C1121 1.385 . S
C1121 H1107 0.931 . S
C1121 C1120 1.385 . S
C1121 C1122 1.389 . S
C1122 C1121 1.389 . S
C1122 C1123 1.387 . S
C1123 H1108 0.930 . S
C1123 C1118 1.390 . S
C1123 C1122 1.387 . S
H1124 C1136 0.930 . S
H1125 C1138 0.930 . S
H1126 C1139 0.930 . S
H1127 C1143 0.959 . S
H1128 C1143 0.959 . S
H1129 C1143 0.961 . S
H1130 C1144 0.960 . S
H1131 C1144 0.961 . S
H1132 C1144 0.959 . S
H1133 C1147 0.929 . S
H1134 C1148 0.931 . S
H1135 C1150 0.930 . S
C1136 H1124 0.930 . S
C1136 C1137 1.399 . S
C1136 C1141 1.399 . S
C1137 C1136 1.399 . S
C1137 C1138 1.376 . S
C1138 H1125 0.930 . S
C1138 C1137 1.376 . S
C1138 C1139 1.388 . S
C1139 H1126 0.930 . S
C1139 C1138 1.388 . S
C1139 C1140 1.390 . S
C1140 C1139 1.390 . S
C1140 C1141 1.394 . S
C1140 C1146 1.465 . S
C1141 C1136 1.399 . S
C1141 C1140 1.394 . S
C1141 C1142 1.516 . S
C1142 C1141 1.516 . S
C1142 C1143 1.502 . S
C1142 C1144 1.561 . S
C1142 C1145 1.526 . S
C1143 H1127 0.959 . S
C1143 H1128 0.959 . S
C1143 H1129 0.961 . S
C1143 C1142 1.502 . S
C1144 H1130 0.960 . S
C1144 H1131 0.961 . S
C1144 H1132 0.959 . S
C1144 C1142 1.561 . S
C1145 C1142 1.526 . S
C1145 C1146 1.396 . S
C1145 C1150 1.390 . S
C1146 C1140 1.465 . S
C1146 C1145 1.396 . S
C1146 C1147 1.399 . S
C1147 H1133 0.929 . S
C1147 C1146 1.399 . S
C1147 C1148 1.385 . S
C1148 H1134 0.931 . S
C1148 C1147 1.385 . S
C1148 C1149 1.389 . S
C1149 C1148 1.389 . S
C1149 C1150 1.387 . S
C1150 H1135 0.930 . S
C1150 C1145 1.390 . S
C1150 C1149 1.387 . S
H1151 C1163 0.930 . S
H1152 C1165 0.930 . S
H1153 C1166 0.930 . S
H1154 C1170 0.959 . S
H1155 C1170 0.959 . S
H1156 C1170 0.961 . S
H1157 C1171 0.960 . S
H1158 C1171 0.961 . S
H1159 C1171 0.959 . S
H1160 C1174 0.929 . S
H1161 C1175 0.931 . S
H1162 C1177 0.930 . S
C1163 H1151 0.930 . S
C1163 C1164 1.399 . S
C1163 C1168 1.399 . S
C1164 C1163 1.399 . S
C1164 C1165 1.376 . S
C1165 H1152 0.930 . S
C1165 C1164 1.376 . S
C1165 C1166 1.388 . S
C1166 H1153 0.930 . S
C1166 C1165 1.388 . S
C1166 C1167 1.390 . S
C1167 C1166 1.390 . S
C1167 C1168 1.394 . S
C1167 C1173 1.465 . S
C1168 C1163 1.399 . S
C1168 C1167 1.394 . S
C1168 C1169 1.516 . S
C1169 C1168 1.516 . S
C1169 C1170 1.502 . S
C1169 C1171 1.561 . S
C1169 C1172 1.526 . S
C1170 H1154 0.959 . S
C1170 H1155 0.959 . S
C1170 H1156 0.961 . S
C1170 C1169 1.502 . S
C1171 H1157 0.960 . S
C1171 H1158 0.961 . S
C1171 H1159 0.959 . S
C1171 C1169 1.561 . S
C1172 C1169 1.526 . S
C1172 C1173 1.396 . S
C1172 C1177 1.390 . S
C1173 C1167 1.465 . S
C1173 C1172 1.396 . S
C1173 C1174 1.399 . S
C1174 H1160 0.929 . S
C1174 C1173 1.399 . S
C1174 C1175 1.385 . S
C1175 H1161 0.931 . S
C1175 C1174 1.385 . S
C1175 C1176 1.389 . S
C1176 C1175 1.389 . S
C1176 C1177 1.387 . S
C1177 H1162 0.930 . S
C1177 C1172 1.390 . S
C1177 C1176 1.387 . S
H1178 C1190 0.930 . S
H1179 C1192 0.930 . S
H1180 C1193 0.930 . S
H1181 C1197 0.959 . S
H1182 C1197 0.959 . S
H1183 C1197 0.961 . S
H1184 C1198 0.960 . S
H1185 C1198 0.961 . S
H1186 C1198 0.959 . S
H1187 C1201 0.929 . S
H1188 C1202 0.931 . S
H1189 C1204 0.930 . S
C1190 H1178 0.930 . S
C1190 C1191 1.399 . S
C1190 C1195 1.399 . S
C1191 C1190 1.399 . S
C1191 C1192 1.376 . S
C1192 H1179 0.930 . S
C1192 C1191 1.376 . S
C1192 C1193 1.388 . S
C1193 H1180 0.930 . S
C1193 C1192 1.388 . S
C1193 C1194 1.390 . S
C1194 C1193 1.390 . S
C1194 C1195 1.394 . S
C1194 C1200 1.465 . S
C1195 C1190 1.399 . S
C1195 C1194 1.394 . S
C1195 C1196 1.516 . S
C1196 C1195 1.516 . S
C1196 C1197 1.502 . S
C1196 C1198 1.561 . S
C1196 C1199 1.526 . S
C1197 H1181 0.959 . S
C1197 H1182 0.959 . S
C1197 H1183 0.961 . S
C1197 C1196 1.502 . S
C1198 H1184 0.960 . S
C1198 H1185 0.961 . S
C1198 H1186 0.959 . S
C1198 C1196 1.561 . S
C1199 C1196 1.526 . S
C1199 C1200 1.396 . S
C1199 C1204 1.390 . S
C1200 C1194 1.465 . S
C1200 C1199 1.396 . S
C1200 C1201 1.399 . S
C1201 H1187 0.929 . S
C1201 C1200 1.399 . S
C1201 C1202 1.385 . S
C1202 H1188 0.931 . S
C1202 C1201 1.385 . S
C1202 C1203 1.389 . S
C1203 C1202 1.389 . S
C1203 C1204 1.387 . S
C1204 H1189 0.930 . S
C1204 C1199 1.390 . S
C1204 C1203 1.387 . S
H1205 C1217 0.930 . S
H1206 C1219 0.930 . S
H1207 C1220 0.930 . S
H1208 C1224 0.959 . S
H1209 C1224 0.959 . S
H1210 C1224 0.961 . S
H1211 C1225 0.960 . S
H1212 C1225 0.961 . S
H1213 C1225 0.959 . S
H1214 C1228 0.929 . S
H1215 C1229 0.931 . S
H1216 C1231 0.930 . S
C1217 H1205 0.930 . S
C1217 C1218 1.399 . S
C1217 C1222 1.399 . S
C1218 C1217 1.399 . S
C1218 C1219 1.376 . S
C1219 H1206 0.930 . S
C1219 C1218 1.376 . S
C1219 C1220 1.388 . S
C1220 H1207 0.930 . S
C1220 C1219 1.388 . S
C1220 C1221 1.390 . S
C1221 C1220 1.390 . S
C1221 C1222 1.394 . S
C1221 C1227 1.465 . S
C1222 C1217 1.399 . S
C1222 C1221 1.394 . S
C1222 C1223 1.516 . S
C1223 C1222 1.516 . S
C1223 C1224 1.502 . S
C1223 C1225 1.561 . S
C1223 C1226 1.526 . S
C1224 H1208 0.959 . S
C1224 H1209 0.959 . S
C1224 H1210 0.961 . S
C1224 C1223 1.502 . S
C1225 H1211 0.960 . S
C1225 H1212 0.961 . S
C1225 H1213 0.959 . S
C1225 C1223 1.561 . S
C1226 C1223 1.526 . S
C1226 C1227 1.396 . S
C1226 C1231 1.390 . S
C1227 C1221 1.465 . S
C1227 C1226 1.396 . S
C1227 C1228 1.399 . S
C1228 H1214 0.929 . S
C1228 C1227 1.399 . S
C1228 C1229 1.385 . S
C1229 H1215 0.931 . S
C1229 C1228 1.385 . S
C1229 C1230 1.389 . S
C1230 C1229 1.389 . S
C1230 C1231 1.387 . S
C1231 H1216 0.930 . S
C1231 C1226 1.390 . S
C1231 C1230 1.387 . S
C381 C7 1.118 1_655 S
C393 N94 1.128 . S
C408 N35 1.135 . S
C420 C131 1.112 . S
C435 N140 1.095 . S
C447 C53 1.103 . S
C462 N81 1.110 . S
C474 C177 1.152 . S
C489 N104 1.095 . S
C501 C16 1.095 . S
C516 N242 0.463 . S
C528 N186 0.517 . S
C543 N150 1.064 . S
C555 C62 1.058 . S
C570 N209 1.043 . S
C582 C260 1.067 . S
C597 C283 1.121 . S
C609 N324 1.135 . S
C624 N196 0.533 . S
C636 N232 0.498 . S
C651 C306 1.101 . S
C663 N347 1.075 . S
C678 C269 1.153 . S
C690 N219 1.120 . S
C705 N334 1.043 . S
C717 C292 1.046 . S
C732 N25 1.048 . S
C744 C122 1.071 . S
C759 C315 1.049 . S
C771 N357 1.047 . S
C786 C168 1.071 . S
C798 N71 1.022 . S
C813 N12 1.516 . S
C825 N163 1.461 . S
C840 C108 1.588 . S
C852 C30 1.607 . S
C867 N117 1.633 . S
C879 N58 1.619 . S
C894 C76 1.625 . S
C906 C154 1.621 . S
C921 N2 1.501 . S
C933 N265 1.501 . S
C948 C200 1.573 . S
C960 C99 1.567 . S
C975 C237 1.678 . S
C987 N48 1.672 . S
C1002 C223 1.597 . S
C1014 C145 1.637 . S
C1029 N288 1.470 . S
C1041 N255 1.501 . S
C1056 C338 1.597 . S
C1068 C191 1.572 . S
C1083 C246 1.660 . S
C1095 N311 1.623 . S
C1110 C361 1.565 . S
C1122 C214 1.549 . S
C1137 N173 1.521 . S
C1149 N278 1.507 . S
C1164 C329 1.580 . S
C1176 C39 1.567 . S
C1191 N127 1.631 . S
C1203 N301 1.625 . S
C1218 C352 1.557 . S
C1230 C85 1.534 . S
