# Generated by pormake.
# Topology sxb, (6)-cn, num edge types: 1
# Building blocks:
#     Node 0, Type 0, BuildingBlock: NUHQIS_clean_sbu_0, # of connection points: 6
#     Node 1, Type 0, BuildingBlock: NUHQIS_clean_sbu_0, # of connection points: 6
#     Node 2, Type 0, BuildingBlock: NUHQIS_clean_sbu_0, # of connection points: 6
#     Node 3, Type 0, BuildingBlock: NUHQIS_clean_sbu_0, # of connection points: 6
#     Edge 4, Type (0, 0), BuildingBlock: UVAHIK_clean_linker_0, # of connection points: 2
#     Edge 5, Type (0, 0), BuildingBlock: UVAHIK_clean_linker_0, # of connection points: 2
#     Edge 6, Type (0, 0), BuildingBlock: UVAHIK_clean_linker_0, # of connection points: 2
#     Edge 7, Type (0, 0), BuildingBlock: UVAHIK_clean_linker_0, # of connection points: 2
#     Edge 8, Type (0, 0), BuildingBlock: UVAHIK_clean_linker_0, # of connection points: 2
#     Edge 9, Type (0, 0), BuildingBlock: UVAHIK_clean_linker_0, # of connection points: 2
#     Edge 10, Type (0, 0), BuildingBlock: UVAHIK_clean_linker_0, # of connection points: 2
#     Edge 11, Type (0, 0), BuildingBlock: UVAHIK_clean_linker_0, # of connection points: 2
#     Edge 12, Type (0, 0), BuildingBlock: UVAHIK_clean_linker_0, # of connection points: 2
#     Edge 13, Type (0, 0), BuildingBlock: UVAHIK_clean_linker_0, # of connection points: 2
#     Edge 14, Type (0, 0), BuildingBlock: UVAHIK_clean_linker_0, # of connection points: 2
#     Edge 15, Type (0, 0), BuildingBlock: UVAHIK_clean_linker_0, # of connection points: 2
# Relax obj value: 0.041
# Max RMSD: 0.115
# Mean RMSD: 0.115
data_MOF--net-sxb--node1-NUHQIS_clean_sbu_0--edge1-UVAHIK_clean_linker_0
_symmetry_space_group_name_H-M    P1
_symmetry_Int_Tables_number       1
_symmetry_cell_setting            triclinic
loop_
_symmetry_equiv_pos_as_xyz
'x, y, z'
_cell_length_a     29.103291
_cell_length_b     26.077284
_cell_length_c     39.393191
_cell_angle_alpha  89.785283
_cell_angle_beta   95.656523
_cell_angle_gamma 90.071278
loop_
_atom_site_label
_atom_site_type_symbol
_atom_site_fract_x
_atom_site_fract_y
_atom_site_fract_z
_atom_type_partial_charge
Tb0 Tb 0.98955 0.94318 0.01002 0.0
Eu1 Eu 0.07562 0.02752 0.01466 0.0
C2 C 0.02815 -0.01383 0.94477 0.0
C3 C 0.0922 0.90546 0.01282 0.0
C4 C 0.86873 0.90008 0.00185 0.0
C5 C 0.78828 0.87559 0.00313 0.0
C6 C 0.83517 0.86241 0.00547 0.0
C7 C 0.85481 0.95099 -0.00471 0.0
C8 C 0.80807 0.96429 -0.00679 0.0
C9 C 0.77421 0.92683 -0.00259 0.0
C10 C 0.91822 0.88711 0.00702 0.0
O11 O 0.02495 0.94052 0.06135 0.0
O12 O 0.04571 0.0249 0.06501 0.0
O13 O 1.01092 0.07389 0.00179 0.0
O14 O 0.9608 0.01632 0.02278 0.0
C15 C 0.03537 0.98171 0.07965 0.0
O16 O 0.13382 0.06349 0.04462 0.0
O17 O 0.11935 0.08314 -0.00875 0.0
O18 O 0.0682 -0.00665 0.96233 0.0
O19 O 0.99059 0.97924 0.96014 0.0
O20 O 0.0492 0.89716 0.00036 0.0
O21 O 0.10606 0.94973 0.02589 0.0
C22 C 0.97032 0.06224 0.01168 0.0
O23 O 0.94209 0.89547 0.98125 0.0
O24 O 0.93977 0.90397 0.03531 0.0
C25 C 0.19756 0.07595 0.01324 0.0
C26 C 0.29161 0.05547 0.00613 0.0
C27 C 0.27586 0.10623 0.00911 0.0
C28 C 0.22929 0.11631 0.0127 0.0
C29 C 0.21281 0.0254 0.00972 0.0
C30 C 0.25931 0.01522 0.00634 0.0
C31 C 0.14891 0.08621 0.01833 0.0
H32 H 0.76317 0.8459 0.00679 0.0
H33 H 0.84527 0.82298 0.01074 0.0
H34 H 0.88017 0.98062 -0.00777 0.0
H35 H 0.79844 0.00395 0.98834 0.0
H36 H 0.29947 0.13827 0.00852 0.0
H37 H 0.21812 0.15561 0.01525 0.0
H38 H 0.18881 -0.00633 0.01004 0.0
H39 H 0.27003 0.97564 0.00463 0.0
Tb40 Tb 0.05306 0.9423 0.51195 0.0
Eu41 Eu 0.96715 0.02875 0.5063 0.0
C42 C 1.01254 -0.01488 0.57749 0.0
C43 C 0.95016 0.90547 0.51118 0.0
C44 C 0.17384 0.89922 0.51484 0.0
C45 C 0.25421 0.87629 0.53035 0.0
C46 C 0.20707 0.86421 0.52881 0.0
C47 C 0.18843 0.94662 0.50262 0.0
C48 C 0.23536 0.95879 0.50424 0.0
C49 C 0.26896 0.92377 0.51804 0.0
C50 C 0.12417 0.88638 0.51279 0.0
O51 O 1.017 0.94109 0.4609 0.0
O52 O 0.99922 0.0259 0.45681 0.0
O53 O 0.0314 0.07547 0.51918 0.0
O54 O 0.0837 0.01609 0.50275 0.0
C55 C 1.00881 -0.01743 0.44241 0.0
O56 O 0.90896 0.06148 0.47441 0.0
O57 O 0.92382 0.08753 0.52648 0.0
O58 O 0.9738 -0.00211 0.55967 0.0
O59 O 0.04987 0.97321 0.56296 0.0
O60 O 0.99381 0.89511 0.52053 0.0
O61 O 0.93516 0.95066 0.50024 0.0
C62 C 0.07315 0.06234 0.51252 0.0
O63 O 0.10319 0.89613 0.53977 0.0
O64 O 0.09968 0.90129 0.48509 0.0
C65 C 0.84553 0.07782 0.50499 0.0
C66 C 0.75164 0.05455 0.5105 0.0
C67 C 0.76439 0.10107 0.49568 0.0
C68 C 0.81094 0.11249 0.49286 0.0
C69 C 0.83312 0.03189 0.52037 0.0
C70 C 0.78669 0.02035 0.52311 0.0
C71 C 0.89409 0.08747 0.49936 0.0
H72 H 0.27907 0.84864 0.54149 0.0
H73 H 0.19659 0.8275 0.53845 0.0
H74 H 0.16354 0.97418 0.49146 0.0
H75 H 0.24531 -0.00465 0.49405 0.0
H76 H 0.73834 0.12802 0.48535 0.0
H77 H 0.81985 0.1479 0.4806 0.0
H78 H 0.8594 0.00459 0.52978 0.0
H79 H 0.77827 -0.01545 0.53509 0.0
Tb80 Tb 0.48463 0.44688 0.9626 0.0
Eu81 Eu 0.57046 0.53087 0.96541 0.0
C82 C 0.52252 0.48601 0.89626 0.0
C83 C 0.58763 0.40957 0.9653 0.0
C84 C 0.3658 0.40083 0.96707 0.0
C85 C 0.2865 0.37234 0.96861 0.0
C86 C 0.33293 0.36141 0.96517 0.0
C87 C 0.35186 0.45123 0.97304 0.0
C88 C 0.30546 0.46229 0.97621 0.0
C89 C 0.27199 0.42306 0.97376 0.0
C90 C 0.41407 0.38994 0.96125 0.0
O91 O 0.49073 0.48352 0.01226 0.0
O92 O 0.56862 0.49462 0.0172 0.0
O93 O 0.50774 0.57701 0.97452 0.0
O94 O 0.45411 0.52094 0.94885 0.0
C95 C 0.52999 0.48875 0.0313 0.0
O96 O 0.62126 0.58012 -0.00593 0.0
O97 O 0.62165 0.57308 0.9395 0.0
O98 O 0.53487 0.52884 0.91206 0.0
O99 O 0.51257 0.44487 0.91345 0.0
O100 O 0.54661 0.40082 0.97558 0.0
O101 O 0.59925 0.45443 0.95374 0.0
C102 C 0.46543 0.56614 0.96174 0.0
O103 O 0.42822 0.41192 0.93442 0.0
O104 O 0.4445 0.39425 0.98768 0.0
C105 C 0.69364 0.57698 0.97195 0.0
C106 C 0.7886 0.55243 0.97617 0.0
C107 C 0.77383 0.60384 0.97343 0.0
C108 C 0.72671 0.61597 0.97122 0.0
C109 C 0.70822 0.52578 0.97539 0.0
C110 C 0.75518 0.51359 0.97739 0.0
C111 C 0.64398 0.58919 0.96775 0.0
H112 H 0.26197 0.34099 0.96718 0.0
H113 H 0.34308 0.32225 0.96067 0.0
H114 H 0.37678 0.48219 0.97466 0.0
H115 H 0.29574 0.50186 0.97969 0.0
H116 H 0.79862 0.63462 0.97211 0.0
H117 H 0.71609 0.65569 0.96846 0.0
H118 H 0.68321 0.49513 0.97618 0.0
H119 H 0.76532 0.4737 0.97997 0.0
Tb120 Tb 0.55455 0.42973 0.46503 0.0
Eu121 Eu 0.46785 0.51338 0.45995 0.0
C122 C 0.51248 0.4674 0.53007 0.0
C123 C 0.45177 0.39239 0.4581 0.0
C124 C 0.6742 0.38132 0.47222 0.0
C125 C 0.75356 0.35097 0.47603 0.0
C126 C 0.706 0.34083 0.47354 0.0
C127 C 0.69056 0.43194 0.47427 0.0
C128 C 0.73788 0.44214 0.47664 0.0
C129 C 0.76998 0.40184 0.477 0.0
C130 C 0.62418 0.37121 0.46657 0.0
O131 O 0.52438 0.43603 0.41228 0.0
O132 O 0.50331 0.52019 0.41213 0.0
O133 O 0.53041 0.56125 0.47587 0.0
O134 O 0.58686 0.50438 0.4623 0.0
C135 C 0.51622 0.47964 0.39599 0.0
O136 O 0.4088 0.54797 0.43002 0.0
O137 O 0.42296 0.56705 0.48346 0.0
O138 O 0.47324 0.47526 0.51144 0.0
O139 O 0.55096 0.46094 0.51581 0.0
O140 O 0.49367 0.38411 0.47281 0.0
O141 O 0.44019 0.4363 0.44343 0.0
C142 C 0.57351 0.54977 0.4719 0.0
O143 O 0.60045 0.37848 0.4925 0.0
O144 O 0.6036 0.39139 0.43887 0.0
C145 C 0.34512 0.55717 0.46166 0.0
C146 C 0.25203 0.53171 0.46847 0.0
C147 C 0.26491 0.58264 0.46181 0.0
C148 C 0.31103 0.59518 0.45834 0.0
C149 C 0.33276 0.50659 0.46899 0.0
C150 C 0.2867 0.4939 0.47223 0.0
C151 C 0.39326 0.5696 0.45642 0.0
H152 H 0.77737 0.31909 0.47605 0.0
H153 H 0.69404 0.30148 0.47186 0.0
H154 H 0.66671 0.46371 0.47327 0.0
H155 H 0.74931 0.4817 0.47788 0.0
H156 H 0.23937 0.61292 0.45933 0.0
H157 H 0.32 0.63446 0.45281 0.0
H158 H 0.35874 0.47676 0.47174 0.0
H159 H 0.27819 0.45422 0.47689 0.0
C160 C 0.43521 0.64835 0.98356 0.0
C161 C 0.42821 0.60416 0.96344 0.0
C162 C 0.39819 0.68068 0.9884 0.0
C163 C 0.27971 0.71486 0.95385 0.0
H164 H 0.26759 0.75826 0.0466 0.0
C165 C 0.1182 0.82153 -0.00965 0.0
C166 C 0.12743 0.86525 0.01063 0.0
C167 C 0.15352 0.78677 0.98555 0.0
C168 C 0.27066 0.74669 0.02054 0.0
H169 H 0.37732 0.56048 0.93137 0.0
H170 H 0.31305 0.61658 0.94004 0.0
H171 H 0.33375 0.70654 0.03457 0.0
H172 H 0.18044 0.9056 0.04294 0.0
H173 H 0.2416 0.84558 0.03427 0.0
H174 H 0.21676 0.75535 0.93979 0.0
C175 C 0.34705 0.62641 0.95194 0.0
C176 C 0.30862 0.7173 0.01364 0.0
C177 C 0.38393 0.59412 0.94715 0.0
C178 C 0.1721 0.87244 0.02702 0.0
C179 C 0.20721 0.8378 0.02226 0.0
C180 C 0.24175 0.74434 0.96074 0.0
C181 C 0.35362 0.66949 0.9731 0.0
C182 C 0.31366 0.70135 0.9802 0.0
C183 C 0.19851 0.79504 0.00108 0.0
C184 C 0.23701 0.76082 -0.00587 0.0
H185 H 0.46888 0.65712 -0.00354 0.0
H186 H 0.40431 0.7141 0.00446 0.0
H187 H 0.28291 0.70339 0.92779 0.0
H188 H 0.08415 0.81495 0.97739 0.0
H189 H 0.14576 0.75375 0.96938 0.0
C190 C 0.66409 0.37711 0.952 0.0
C191 C 0.62345 0.36936 0.96793 0.0
C192 C 0.7007 0.34288 0.9572 0.0
C193 C 0.73307 0.21254 0.985 0.0
H194 H 0.85493 0.27305 0.00323 0.0
C195 C 0.89275 0.09024 0.0259 0.0
C196 C 0.93309 0.1008 0.01017 0.0
C197 C 0.85531 0.1236 0.02207 0.0
C198 C 0.82122 0.2556 -0.00217 0.0
H199 H 0.58865 0.31841 0.00071 0.0
H200 H 0.65319 0.25802 0.00982 0.0
H201 H 0.7875 0.32841 -0.0066 0.0
H202 H 0.96626 0.15545 0.9789 0.0
H203 H 0.90041 0.21401 0.97203 0.0
H204 H 0.76683 0.13969 0.98917 0.0
C205 C 0.65637 0.29082 -0.00673 0.0
C206 C 0.78261 0.28724 -0.00776 0.0
C207 C 0.61948 0.3253 0.98806 0.0
C208 C 0.93575 0.14642 -0.00857 0.0
C209 C 0.89807 0.17991 0.98754 0.0
C210 C 0.77173 0.18085 -0.00948 0.0
C211 C 0.69768 0.3 0.97843 0.0
C212 C 0.7382 0.26604 0.98554 0.0
C213 C 0.85722 0.16835 0.00241 0.0
C214 C 0.81623 0.20208 -0.00312 0.0
H215 H 0.66815 0.41029 0.93594 0.0
H216 H 0.73166 0.35031 0.94479 0.0
H217 H 0.69933 0.1952 0.97954 0.0
H218 H 0.88965 0.05568 0.04085 0.0
H219 H 0.82472 0.11415 0.03442 0.0
C220 C 0.10253 0.15019 0.50078 0.0
C221 C 0.11031 0.10062 0.51393 0.0
C222 C 0.13994 0.18282 0.49698 0.0
C223 C 0.2654 0.17506 0.48855 0.0
H224 H 0.26039 0.3229 0.4972 0.0
C225 C 0.42307 0.30946 0.48079 0.0
C226 C 0.41478 0.35427 0.46124 0.0
C227 C 0.38642 0.27738 0.4874 0.0
C228 C 0.26209 0.28163 0.49451 0.0
H229 H 0.16209 0.04743 0.53606 0.0
H230 H 0.22697 0.10462 0.53069 0.0
H231 H 0.19491 0.27104 0.51113 0.0
H232 H 0.36174 0.3991 0.43186 0.0
H233 H 0.29825 0.34348 0.44369 0.0
H234 H 0.33286 0.18581 0.47231 0.0
C235 C 0.19257 0.11794 0.52197 0.0
C236 C 0.22459 0.25196 0.50241 0.0
C237 C 0.15542 0.08529 0.52528 0.0
C238 C 0.36943 0.36518 0.44731 0.0
C239 C 0.33291 0.33352 0.45422 0.0
C240 C 0.30303 0.2047 0.481 0.0
C241 C 0.1855 0.16644 0.50673 0.0
C242 C 0.22572 0.19831 0.4994 0.0
C243 C 0.34091 0.28986 0.47481 0.0
C244 C 0.30158 0.25824 0.48366 0.0
H245 H 0.06797 0.16259 0.49167 0.0
H246 H 0.13325 0.21983 0.48496 0.0
H247 H 0.26714 0.13393 0.4852 0.0
H248 H 0.45755 0.30002 0.49192 0.0
H249 H 0.39344 0.24385 0.50338 0.0
C250 C 0.91948 0.81836 0.49625 0.0
C251 C 0.91535 0.86523 0.51287 0.0
C252 C 0.88279 0.78345 0.49393 0.0
C253 C 0.75612 0.7788 0.50174 0.0
H254 H 0.77603 0.63245 0.49593 0.0
C255 C 0.60594 0.63769 0.46596 0.0
C256 C 0.60975 0.58816 0.47975 0.0
C257 C 0.64299 0.67193 0.47125 0.0
C258 C 0.76966 0.67315 0.49807 0.0
H259 H 0.87183 0.9117 0.54188 0.0
H260 H 0.80904 0.84986 0.53984 0.0
H261 H 0.84186 0.68926 0.50531 0.0
H262 H 0.6531 0.53607 0.51152 0.0
H263 H 0.71662 0.59617 0.52233 0.0
H264 H 0.68389 0.76244 0.49646 0.0
C265 C 0.83922 0.84057 0.52707 0.0
C266 C 0.80764 0.70594 0.50283 0.0
C267 C 0.87533 0.87582 0.5286 0.0
C268 C 0.64995 0.57392 0.50008 0.0
C269 C 0.68644 0.60831 0.50603 0.0
C270 C 0.71813 0.74592 0.49773 0.0
C271 C 0.84184 0.79451 0.50887 0.0
C272 C 0.80143 0.75925 0.5046 0.0
C273 C 0.68397 0.65741 0.49108 0.0
C274 C 0.72435 0.69264 0.49572 0.0
H275 H 0.95002 0.8099 0.48364 0.0
H276 H 0.88599 0.7488 0.47932 0.0
H277 H 0.74974 0.81966 0.50221 0.0
H278 H 0.57515 0.64917 0.45005 0.0
H279 H 0.6399 0.70913 0.45897 0.0
C280 C 0.37623 0.073 0.02226 0.0
C281 C 0.34151 0.04435 0.0035 0.0
C282 C 0.42295 0.06159 0.0206 0.0
C283 C 0.50308 -0.0084 0.9688 0.0
H284 H 0.58676 0.001 0.05145 0.0
C285 C 0.68979 0.91087 0.97982 0.0
C286 C 0.72463 0.94144 -0.00321 0.0
C287 C 0.6432 0.92434 0.97977 0.0
C288 C 0.56395 -0.00133 0.02806 0.0
H289 H 0.3293 0.98171 0.96761 0.0
H290 H 0.41043 0.9608 0.96559 0.0
H291 H 0.50557 0.0226 0.05297 0.0
H292 H 0.7376 0.01004 0.02722 0.0
H293 H 0.65644 0.03356 0.02703 0.0
H294 H 0.56158 0.96679 0.9441 0.0
C295 C 0.40163 -0.00734 0.98127 0.0
C296 C 0.51732 0.01119 0.02888 0.0
C297 C 0.35492 0.00424 0.98279 0.0
C298 C 0.71171 -0.01413 0.01364 0.0
C299 C 0.66515 -0.00091 0.01382 0.0
C300 C 0.54968 0.97872 0.96804 0.0
C301 C 0.43634 0.02101 0.00027 0.0
C302 C 0.48619 0.00792 -0.00074 0.0
C303 C 0.6303 0.96845 -0.00304 0.0
C304 C 0.5807 -0.01783 -0.00235 0.0
H305 H 0.36739 0.10378 0.03879 0.0
H306 H 0.44859 0.0848 0.03523 0.0
H307 H 0.48044 -0.01063 0.94533 0.0
H308 H 0.69856 0.87666 0.96636 0.0
H309 H 0.61721 0.89971 0.96673 0.0
C310 C 0.35141 0.89946 0.51137 0.0
C311 C 0.31906 0.93666 0.51904 0.0
C312 C 0.39817 0.91208 0.5112 0.0
C313 C 0.4763 0.02321 0.50418 0.0
H314 H 0.57118 0.92795 0.54021 0.0
C315 C 0.67003 0.07849 0.52017 0.0
C316 C 0.70204 0.04117 0.51212 0.0
C317 C 0.62345 0.06583 0.52147 0.0
C318 C 0.54516 0.95479 0.52969 0.0
H319 H 0.31106 0.01613 0.53347 0.0
H320 H 0.39244 0.03806 0.53319 0.0
H321 H 0.49006 0.9056 0.54183 0.0
H322 H 0.70969 0.96133 0.49847 0.0
H323 H 0.62867 0.93933 0.50066 0.0
H324 H 0.53136 0.07233 0.49192 0.0
C325 C 0.38154 -0.00071 0.52671 0.0
C326 C 0.49858 0.94195 0.53063 0.0
C327 C 0.33482 -0.01332 0.52689 0.0
C328 C 0.68622 -0.00913 0.50536 0.0
C329 C 0.63967 0.97823 0.50662 0.0
C330 C 0.52288 0.03603 0.50321 0.0
C331 C 0.41383 0.96224 0.5187 0.0
C332 C 0.46351 0.97598 0.51788 0.0
C333 C 0.60763 0.01552 0.5147 0.0
C334 C 0.55796 0.00199 0.51593 0.0
H335 H 0.34046 0.86078 0.50469 0.0
H336 H 0.4219 0.88273 0.50444 0.0
H337 H 0.45027 0.05002 0.49361 0.0
H338 H 0.68107 0.11743 0.52597 0.0
H339 H 0.59995 0.09537 0.52829 0.0
C340 C 0.87235 0.56799 -0.0036 0.0
C341 C 0.83849 0.53913 0.97693 0.0
C342 C 0.91919 0.5554 -0.00312 0.0
C343 C 1.00149 0.48806 0.94708 0.0
H344 H 0.08087 0.48703 0.0321 0.0
C345 C 0.18761 0.40952 0.95464 0.0
C346 C 0.22214 0.43525 0.97559 0.0
C347 C 0.14099 0.42193 0.95552 0.0
C348 C 0.05939 0.48775 0.00804 0.0
H349 H 0.82755 0.47474 0.94238 0.0
H350 H 0.90907 0.45268 0.94337 0.0
H351 H 0.99958 0.50989 0.03216 0.0
H352 H 0.23405 0.49379 0.0145 0.0
H353 H 0.15302 0.51647 0.01527 0.0
H354 H 0.06113 0.4666 0.92281 0.0
C355 C 0.89944 0.48514 0.9582 0.0
C356 C 1.01272 0.5008 0.00811 0.0
C357 C 0.85264 0.49747 0.95792 0.0
C358 C 0.2086 0.47352 -0.00233 0.0
C359 C 0.16195 0.48611 -0.00157 0.0
C360 C 0.04815 0.47532 0.94696 0.0
C361 C 0.93332 0.51395 0.97765 0.0
C362 C 0.98315 0.50088 0.97764 0.0
C363 C 0.12748 0.46066 0.97725 0.0
C364 C 0.07775 0.47474 0.97746 0.0
H365 H 0.8626 0.60005 0.01155 0.0
H366 H 0.94443 0.5786 0.01193 0.0
H367 H 0.97986 0.48856 0.92307 0.0
H368 H 0.19658 0.3803 0.93699 0.0
H369 H 0.11549 0.40092 0.93919 0.0
C370 C 0.16746 0.54086 0.44871 0.0
C371 C 0.20263 0.51781 0.47064 0.0
C372 C 0.12124 0.52704 0.45007 0.0
C373 C 0.04133 0.46394 0.5053 0.0
H374 H 0.96192 0.45441 0.42055 0.0
C375 C 0.85349 0.38524 0.4976 0.0
C376 C 0.82012 0.41322 0.47695 0.0
C377 C 0.90056 0.39649 0.49738 0.0
C378 C 0.98354 0.45729 0.44447 0.0
H379 H 0.2162 0.46249 0.5117 0.0
H380 H 0.13578 0.4374 0.51342 0.0
H381 H 0.04297 0.47683 0.41925 0.0
H382 H 0.81023 0.47429 0.43942 0.0
H383 H 0.89201 0.49404 0.43921 0.0
H384 H 0.98164 0.44399 0.53042 0.0
C385 C 0.14392 0.46672 0.49541 0.0
C386 C 0.03004 0.47029 0.44376 0.0
C387 C 0.19019 0.48069 0.49413 0.0
C388 C 0.83495 0.45238 0.45594 0.0
C389 C 0.88189 0.46335 0.45553 0.0
C390 C 0.99478 0.45065 0.506 0.0
C391 C 0.10883 0.48956 0.47329 0.0
C392 C 0.05952 0.47427 0.47417 0.0
C393 C 0.9153 0.43559 0.47623 0.0
C394 C 0.96524 0.44762 0.47559 0.0
H395 H 0.17563 0.56909 0.42998 0.0
H396 H 0.09517 0.54603 0.43297 0.0
H397 H 0.06279 0.46723 0.52926 0.0
H398 H 0.84317 0.35503 0.51421 0.0
H399 H 0.92547 0.37417 0.51345 0.0
C400 C 1.01085 0.02612 0.3859 0.0
C401 C 1.01109 0.9806 0.40512 0.0
C402 C 1.01462 0.02449 0.35086 0.0
C403 C 0.99594 0.94182 0.27589 0.0
H404 H 0.08154 0.03435 0.23733 0.0
C405 C 0.03014 0.93269 0.13399 0.0
C406 C 0.03492 0.97968 0.11711 0.0
C407 C 0.02886 0.93114 0.16936 0.0
C408 C 0.05706 0.00867 0.24758 0.0
H409 H 1.01485 0.89761 0.40258 0.0
H410 H 0.02095 0.89487 0.34119 0.0
H411 H 0.07511 0.03515 0.29854 0.0
H412 H 0.04184 0.06193 0.12409 0.0
H413 H 0.03853 0.05938 0.18546 0.0
H414 H 0.97705 0.91606 0.22493 0.0
C415 C 1.01787 0.93174 0.35334 0.0
C416 C 0.0535 0.00908 0.28266 0.0
C417 C 1.01458 0.93337 0.38848 0.0
C418 C 0.03848 0.02503 0.13633 0.0
C419 C 0.03685 0.02353 0.1716 0.0
C420 C 0.99919 0.9417 0.24073 0.0
C421 C 1.01828 0.97732 0.33425 0.0
C422 C 0.02274 0.97587 0.29713 0.0
C423 C 0.032 0.97659 0.18859 0.0
C424 C 0.02962 0.97535 0.22611 0.0
H425 H 1.00829 0.06314 0.39795 0.0
H426 H 1.01434 0.06019 0.33669 0.0
H427 H 0.97164 0.91613 0.28636 0.0
H428 H 0.02753 0.89703 0.11993 0.0
H429 H 0.02578 0.89426 0.18166 0.0
C430 C 0.06051 0.00987 0.89041 0.0
C431 C 0.02546 -0.01343 0.90713 0.0
C432 C 0.05853 0.0098 0.85486 0.0
C433 C 0.97815 -0.01261 0.7766 0.0
H434 H 0.09268 0.97968 0.73432 0.0
C435 C 0.04801 0.95654 0.63492 0.0
C436 C 1.01428 -0.015 0.6151 0.0
C437 C 0.04898 0.95575 0.67047 0.0
C438 C 0.06025 0.98114 0.74558 0.0
H439 H 0.96102 0.94449 0.8998 0.0
H440 H 0.95839 0.94241 0.8378 0.0
H441 H 0.09465 0.9779 0.79597 0.0
H442 H 0.95569 0.03584 0.61694 0.0
H443 H 0.95853 0.03638 0.6788 0.0
H444 H 0.9436 -0.01209 0.72619 0.0
C445 C 0.98678 0.96222 0.85199 0.0
C446 C 0.06143 0.98105 0.78112 0.0
C447 C 0.98836 0.96312 0.88758 0.0
C448 C 0.98187 0.01313 0.63153 0.0
C449 C 0.98332 0.0131 0.66707 0.0
C450 C 0.97692 -0.01337 0.74105 0.0
C451 C 0.02187 -0.01444 0.83511 0.0
C452 C 1.02043 -0.01542 0.79716 0.0
C453 C 1.01673 -0.01583 0.68707 0.0
C454 C 1.01798 -0.01614 0.72502 0.0
H455 H 0.08932 0.02873 0.9048 0.0
H456 H 0.08563 0.02926 0.84291 0.0
H457 H 0.94585 -0.00919 0.78787 0.0
H458 H 0.07319 0.93409 0.62294 0.0
H459 H 0.07468 0.93222 0.68485 0.0
C460 C 0.51017 0.52835 0.3407 0.0
C461 C 0.51957 0.48233 0.35875 0.0
C462 C 0.51302 0.53071 0.30551 0.0
C463 C 0.49343 0.5157 0.229 0.0
H464 H 0.5915 0.44477 0.18853 0.0
C465 C 0.48879 0.48354 0.08408 0.0
C466 C 0.53025 0.48935 0.06891 0.0
C467 C 0.48871 0.48419 0.11951 0.0
C468 C 0.56412 0.46517 0.19945 0.0
H469 H 0.5397 0.40278 0.35395 0.0
H470 H 0.54412 0.40679 0.29258 0.0
H471 H 0.58997 0.44404 0.25034 0.0
H472 H 0.6042 0.50047 0.07918 0.0
H473 H 0.60397 0.50199 0.14112 0.0
H474 H 0.46789 0.53739 0.1782 0.0
C475 C 0.53509 0.44123 0.30568 0.0
C476 C 0.56295 0.46425 0.23484 0.0
C477 C 0.53223 0.43886 0.34086 0.0
C478 C 0.57167 0.49578 0.09003 0.0
C479 C 0.57158 0.49639 0.12554 0.0
C480 C 0.49457 0.51657 0.19363 0.0
C481 C 0.52538 0.48714 0.28757 0.0
C482 C 0.52744 0.48928 0.25002 0.0
C483 C 0.53008 0.49067 0.14069 0.0
C484 C 0.52977 0.49105 0.17841 0.0
H485 H 0.50057 0.56265 0.35371 0.0
H486 H 0.50592 0.56684 0.29241 0.0
H487 H 0.46536 0.53498 0.23982 0.0
H488 H 0.45625 0.47832 0.0686 0.0
H489 H 0.45624 0.47889 0.13034 0.0
C490 C 0.55525 0.46001 0.58832 0.0
C491 C 0.51347 0.46709 0.56771 0.0
C492 C 0.55626 0.46087 0.62386 0.0
C493 C 0.55248 0.49665 0.69685 0.0
H494 H 0.45496 0.43139 0.74178 0.0
C495 C 0.53213 0.52681 0.83966 0.0
C496 C 0.52097 0.48357 0.85863 0.0
C497 C 0.53119 0.52425 0.80418 0.0
C498 C 0.48263 0.44949 0.72965 0.0
H499 H 0.43993 0.48028 0.56834 0.0
H500 H 0.44185 0.48223 0.63025 0.0
H501 H 0.45404 0.42635 0.67992 0.0
H502 H 0.49998 0.4037 0.85511 0.0
H503 H 0.49876 0.3992 0.79329 0.0
H504 H 0.58149 0.51905 0.74662 0.0
C505 C 0.47373 0.47543 0.61896 0.0
C506 C 0.48183 0.44708 0.69417 0.0
C507 C 0.4727 0.4746 0.58343 0.0
C508 C 0.50867 0.43779 0.8413 0.0
C509 C 0.50772 0.43525 0.80582 0.0
C510 C 0.55326 0.4991 0.73233 0.0
C511 C 0.51555 0.46878 0.63959 0.0
C512 C 0.51671 0.4707 0.67735 0.0
C513 C 0.51905 0.47842 0.78685 0.0
C514 C 0.5183 0.47562 0.74914 0.0
H515 H 0.58728 0.45398 0.57705 0.0
H516 H 0.58894 0.45494 0.63903 0.0
H517 H 0.57962 0.5157 0.68467 0.0
H518 H 0.54162 0.56273 0.85218 0.0
H519 H 0.5395 0.55839 0.79027 0.0
loop_
_geom_bond_atom_site_label_1
_geom_bond_atom_site_label_2
_geom_bond_distance
_geom_bond_site_symmetry_2
_ccdc_geom_bond_type
Tb0 C10 2.825 . S
Tb0 O11 2.347 1_556 S
Tb0 O14 2.366 1_565 S
Tb0 O19 2.418 . S
Tb0 O20 2.384 1_655 S
Tb0 O23 2.479 . S
Tb0 O24 2.471 1_556 S
Eu1 O12 2.418 . S
Eu1 O13 2.384 1_455 S
Eu1 O16 2.479 . S
Eu1 O17 2.471 1_554 S
Eu1 O18 2.347 1_554 S
Eu1 O21 2.366 1_545 S
Eu1 C31 2.825 . S
C2 O18 1.259 1_665 S
C2 O19 1.265 . S
C3 O20 1.255 1_554 S
C3 O21 1.265 . S
C4 C6 1.381 1_554 S
C4 C7 1.372 . S
C4 C10 1.507 1_554 S
C5 C6 1.384 . S
C5 C9 1.387 1_556 S
C5 H32 0.930 . S
C6 C4 1.381 1_556 S
C6 C5 1.384 . S
C6 H33 0.931 . S
C7 C4 1.372 . S
C7 C8 1.390 . S
C7 H34 0.930 . S
C8 C7 1.390 . S
C8 C9 1.391 . S
C8 H35 0.930 . S
C9 C5 1.387 1_554 S
C9 C8 1.391 . S
C10 Tb0 2.825 . S
C10 C4 1.507 1_556 S
C10 O23 1.238 . S
C10 O24 1.247 1_556 S
O11 Tb0 2.347 1_554 S
O11 C15 1.259 1_665 S
O12 Eu1 2.418 . S
O12 C15 1.265 . S
O13 Eu1 2.384 1_655 S
O13 C22 1.255 1_554 S
O14 Tb0 2.366 1_545 S
O14 C22 1.265 . S
C15 O11 1.259 1_445 S
C15 O12 1.265 . S
O16 Eu1 2.479 . S
O16 C31 1.238 . S
O17 Eu1 2.471 1_556 S
O17 C31 1.247 1_556 S
O18 Eu1 2.347 1_556 S
O18 C2 1.259 1_445 S
O19 Tb0 2.418 . S
O19 C2 1.265 . S
O20 Tb0 2.384 1_455 S
O20 C3 1.255 1_556 S
O21 Eu1 2.366 1_565 S
O21 C3 1.265 . S
C22 O13 1.255 1_556 S
C22 O14 1.265 . S
O23 Tb0 2.479 . S
O23 C10 1.238 . S
O24 Tb0 2.471 1_554 S
O24 C10 1.247 1_554 S
C25 C28 1.385 . S
C25 C29 1.367 1_554 S
C25 C31 1.508 . S
C26 C27 1.387 1_556 S
C26 C30 1.391 . S
C27 C26 1.387 1_554 S
C27 C28 1.384 . S
C27 H36 0.930 . S
C28 C25 1.385 . S
C28 C27 1.384 . S
C28 H37 0.931 . S
C29 C25 1.367 1_556 S
C29 C30 1.390 . S
C29 H38 0.930 . S
C30 C26 1.391 . S
C30 C29 1.390 . S
C30 H39 0.930 . S
C31 Eu1 2.825 . S
C31 O16 1.238 . S
C31 O17 1.247 1_554 S
C31 C25 1.508 . S
H32 C5 0.930 . S
H33 C6 0.931 . S
H34 C7 0.930 . S
H35 C8 0.930 . S
H36 C27 0.930 . S
H37 C28 0.931 . S
H38 C29 0.930 . S
H39 C30 0.930 . S
Tb40 C50 2.825 . S
Tb40 O51 2.347 . S
Tb40 O54 2.366 1_565 S
Tb40 O59 2.418 . S
Tb40 O60 2.384 1_455 S
Tb40 O63 2.479 . S
Tb40 O64 2.471 . S
Eu41 O52 2.418 . S
Eu41 O53 2.384 1_655 S
Eu41 O56 2.479 . S
Eu41 O57 2.471 . S
Eu41 O58 2.347 . S
Eu41 O61 2.366 1_545 S
Eu41 C71 2.825 . S
C42 O58 1.259 1_465 S
C42 O59 1.265 . S
C43 O60 1.255 . S
C43 O61 1.265 . S
C44 C46 1.380 . S
C44 C47 1.374 . S
C44 C50 1.507 . S
C45 C46 1.384 . S
C45 C49 1.387 . S
C45 H72 0.930 . S
C46 C44 1.380 . S
C46 C45 1.384 . S
C46 H73 0.931 . S
C47 C44 1.374 . S
C47 C48 1.390 . S
C47 H74 0.930 . S
C48 C47 1.390 . S
C48 C49 1.391 . S
C48 H75 0.930 . S
C49 C45 1.387 . S
C49 C48 1.391 . S
C50 Tb40 2.825 . S
C50 C44 1.507 . S
C50 O63 1.238 . S
C50 O64 1.247 . S
O51 Tb40 2.347 . S
O51 C55 1.259 1_465 S
O52 Eu41 2.418 . S
O52 C55 1.265 . S
O53 Eu41 2.384 1_455 S
O53 C62 1.255 . S
O54 Tb40 2.366 1_545 S
O54 C62 1.265 . S
C55 O51 1.259 1_645 S
C55 O52 1.265 . S
O56 Eu41 2.479 . S
O56 C71 1.238 . S
O57 Eu41 2.471 . S
O57 C71 1.247 . S
O58 Eu41 2.347 . S
O58 C42 1.259 1_645 S
O59 Tb40 2.418 . S
O59 C42 1.265 . S
O60 Tb40 2.384 1_655 S
O60 C43 1.255 . S
O61 Eu41 2.366 1_565 S
O61 C43 1.265 . S
C62 O53 1.255 . S
C62 O54 1.265 . S
O63 Tb40 2.479 . S
O63 C50 1.238 . S
O64 Tb40 2.471 . S
O64 C50 1.247 . S
C65 C68 1.380 . S
C65 C69 1.374 . S
C65 C71 1.507 . S
C66 C67 1.387 . S
C66 C70 1.391 . S
C67 C66 1.387 . S
C67 C68 1.384 . S
C67 H76 0.930 . S
C68 C65 1.380 . S
C68 C67 1.384 . S
C68 H77 0.931 . S
C69 C65 1.374 . S
C69 C70 1.390 . S
C69 H78 0.930 . S
C70 C66 1.391 . S
C70 C69 1.390 . S
C70 H79 0.930 . S
C71 Eu41 2.825 . S
C71 O56 1.238 . S
C71 O57 1.247 . S
C71 C65 1.507 . S
H72 C45 0.930 . S
H73 C46 0.931 . S
H74 C47 0.930 . S
H75 C48 0.930 . S
H76 C67 0.930 . S
H77 C68 0.931 . S
H78 C69 0.930 . S
H79 C70 0.930 . S
Tb80 C90 2.825 . S
Tb80 O91 2.347 1_556 S
Tb80 O94 2.366 . S
Tb80 O99 2.418 . S
Tb80 O100 2.384 . S
Tb80 O103 2.479 . S
Tb80 O104 2.471 1_556 S
Eu81 O92 2.418 . S
Eu81 O93 2.384 . S
Eu81 O96 2.479 . S
Eu81 O97 2.471 1_554 S
Eu81 O98 2.347 1_554 S
Eu81 O101 2.366 . S
Eu81 C111 2.825 . S
C82 O98 1.259 . S
C82 O99 1.265 . S
C83 O100 1.255 1_554 S
C83 O101 1.265 . S
C84 C86 1.381 1_554 S
C84 C87 1.372 . S
C84 C90 1.507 1_554 S
C85 C86 1.384 . S
C85 C89 1.387 1_556 S
C85 H112 0.930 . S
C86 C84 1.381 1_556 S
C86 C85 1.384 . S
C86 H113 0.931 . S
C87 C84 1.372 . S
C87 C88 1.390 . S
C87 H114 0.930 . S
C88 C87 1.390 . S
C88 C89 1.391 . S
C88 H115 0.930 . S
C89 C85 1.387 1_554 S
C89 C88 1.391 . S
C90 Tb80 2.825 . S
C90 C84 1.507 1_556 S
C90 O103 1.238 . S
C90 O104 1.247 1_556 S
O91 Tb80 2.347 1_554 S
O91 C95 1.259 . S
O92 Eu81 2.418 . S
O92 C95 1.265 . S
O93 Eu81 2.384 . S
O93 C102 1.255 1_554 S
O94 Tb80 2.366 . S
O94 C102 1.265 . S
C95 O91 1.259 . S
C95 O92 1.265 . S
O96 Eu81 2.479 . S
O96 C111 1.238 . S
O97 Eu81 2.471 1_556 S
O97 C111 1.247 1_556 S
O98 Eu81 2.347 1_556 S
O98 C82 1.259 . S
O99 Tb80 2.418 . S
O99 C82 1.265 . S
O100 Tb80 2.384 . S
O100 C83 1.255 1_556 S
O101 Eu81 2.366 . S
O101 C83 1.265 . S
C102 O93 1.255 1_556 S
C102 O94 1.265 . S
O103 Tb80 2.479 . S
O103 C90 1.238 . S
O104 Tb80 2.471 1_554 S
O104 C90 1.247 1_554 S
C105 C108 1.385 . S
C105 C109 1.367 1_554 S
C105 C111 1.508 . S
C106 C107 1.387 1_556 S
C106 C110 1.391 . S
C107 C106 1.387 1_554 S
C107 C108 1.384 . S
C107 H116 0.930 . S
C108 C105 1.385 . S
C108 C107 1.384 . S
C108 H117 0.931 . S
C109 C105 1.367 1_556 S
C109 C110 1.390 . S
C109 H118 0.930 . S
C110 C106 1.391 . S
C110 C109 1.390 . S
C110 H119 0.930 . S
C111 Eu81 2.825 . S
C111 O96 1.238 . S
C111 O97 1.247 1_554 S
C111 C105 1.508 . S
H112 C85 0.930 . S
H113 C86 0.931 . S
H114 C87 0.930 . S
H115 C88 0.930 . S
H116 C107 0.930 . S
H117 C108 0.931 . S
H118 C109 0.930 . S
H119 C110 0.930 . S
Tb120 C130 2.825 . S
Tb120 O131 2.347 . S
Tb120 O134 2.366 . S
Tb120 O139 2.418 . S
Tb120 O140 2.384 . S
Tb120 O143 2.479 . S
Tb120 O144 2.471 . S
Eu121 O132 2.418 . S
Eu121 O133 2.384 . S
Eu121 O136 2.479 . S
Eu121 O137 2.471 . S
Eu121 O138 2.347 . S
Eu121 O141 2.366 . S
Eu121 C151 2.825 . S
C122 O138 1.259 . S
C122 O139 1.265 . S
C123 O140 1.255 . S
C123 O141 1.265 . S
C124 C126 1.380 . S
C124 C127 1.374 . S
C124 C130 1.507 . S
C125 C126 1.384 . S
C125 C129 1.387 . S
C125 H152 0.930 . S
C126 C124 1.380 . S
C126 C125 1.384 . S
C126 H153 0.931 . S
C127 C124 1.374 . S
C127 C128 1.390 . S
C127 H154 0.930 . S
C128 C127 1.390 . S
C128 C129 1.391 . S
C128 H155 0.930 . S
C129 C125 1.387 . S
C129 C128 1.391 . S
C130 Tb120 2.825 . S
C130 C124 1.507 . S
C130 O143 1.238 . S
C130 O144 1.247 . S
O131 Tb120 2.347 . S
O131 C135 1.259 . S
O132 Eu121 2.418 . S
O132 C135 1.265 . S
O133 Eu121 2.384 . S
O133 C142 1.255 . S
O134 Tb120 2.366 . S
O134 C142 1.265 . S
C135 O131 1.259 . S
C135 O132 1.265 . S
O136 Eu121 2.479 . S
O136 C151 1.238 . S
O137 Eu121 2.471 . S
O137 C151 1.247 . S
O138 Eu121 2.347 . S
O138 C122 1.259 . S
O139 Tb120 2.418 . S
O139 C122 1.265 . S
O140 Tb120 2.384 . S
O140 C123 1.255 . S
O141 Eu121 2.366 . S
O141 C123 1.265 . S
C142 O133 1.255 . S
C142 O134 1.265 . S
O143 Tb120 2.479 . S
O143 C130 1.238 . S
O144 Tb120 2.471 . S
O144 C130 1.247 . S
C145 C148 1.380 . S
C145 C149 1.374 . S
C145 C151 1.507 . S
C146 C147 1.387 . S
C146 C150 1.391 . S
C147 C146 1.387 . S
C147 C148 1.384 . S
C147 H156 0.930 . S
C148 C145 1.380 . S
C148 C147 1.384 . S
C148 H157 0.931 . S
C149 C145 1.374 . S
C149 C150 1.390 . S
C149 H158 0.930 . S
C150 C146 1.391 . S
C150 C149 1.390 . S
C150 H159 0.930 . S
C151 Eu121 2.825 . S
C151 O136 1.238 . S
C151 O137 1.247 . S
C151 C145 1.507 . S
H152 C125 0.930 . S
H153 C126 0.931 . S
H154 C127 0.930 . S
H155 C128 0.930 . S
H156 C147 0.930 . S
H157 C148 0.931 . S
H158 C149 0.930 . S
H159 C150 0.930 . S
C160 C161 1.349 1_554 S
C160 C162 1.327 . S
C160 H185 0.950 . S
C161 C160 1.349 1_556 S
C161 C177 1.349 . S
C162 C160 1.327 . S
C162 C181 1.429 1_554 S
C162 H186 0.950 . S
C163 C180 1.574 . S
C163 C182 1.394 . S
C163 H187 0.949 . S
H164 C168 0.949 . S
C165 C166 1.349 1_556 S
C165 C167 1.327 . S
C165 H188 0.950 . S
C166 C165 1.349 1_554 S
C166 C178 1.349 . S
C167 C165 1.327 . S
C167 C183 1.429 1_556 S
C167 H189 0.950 . S
C168 H164 0.949 . S
C168 C176 1.574 . S
C168 C184 1.368 . S
H169 C177 0.950 . S
H170 C175 0.950 . S
H171 C176 0.949 . S
H172 C178 0.950 . S
H173 C179 0.950 . S
H174 C180 0.949 . S
C175 H170 0.950 . S
C175 C177 1.327 . S
C175 C181 1.429 . S
C176 C168 1.574 . S
C176 H171 0.949 . S
C176 C182 1.340 1_554 S
C177 C161 1.349 . S
C177 H169 0.950 . S
C177 C175 1.327 . S
C178 C166 1.349 . S
C178 H172 0.950 . S
C178 C179 1.327 . S
C179 H173 0.950 . S
C179 C178 1.327 . S
C179 C183 1.429 . S
C180 C163 1.574 . S
C180 H174 0.949 . S
C180 C184 1.368 1_556 S
C181 C162 1.429 1_556 S
C181 C175 1.429 . S
C181 C182 1.527 . S
C182 C163 1.394 . S
C182 C176 1.340 1_556 S
C182 C181 1.527 . S
C183 C167 1.429 1_554 S
C183 C179 1.429 . S
C183 C184 1.523 . S
C184 C168 1.368 . S
C184 C180 1.368 1_554 S
C184 C183 1.523 . S
H185 C160 0.950 . S
H186 C162 0.950 . S
H187 C163 0.949 . S
H188 C165 0.950 . S
H189 C167 0.950 . S
C190 C191 1.349 1_556 S
C190 C192 1.327 . S
C190 H215 0.950 . S
C191 C190 1.349 1_554 S
C191 C207 1.349 . S
C192 C190 1.327 . S
C192 C211 1.429 1_556 S
C192 H216 0.950 . S
C193 C210 1.574 . S
C193 C212 1.368 . S
C193 H217 0.949 . S
H194 C198 0.949 . S
C195 C196 1.349 1_554 S
C195 C197 1.327 . S
C195 H218 0.950 . S
C196 C195 1.349 1_556 S
C196 C208 1.349 . S
C197 C195 1.327 . S
C197 C213 1.429 1_554 S
C197 H219 0.950 . S
C198 H194 0.949 . S
C198 C206 1.574 . S
C198 C214 1.391 . S
H199 C207 0.950 . S
H200 C205 0.950 . S
H201 C206 0.949 . S
H202 C208 0.950 . S
H203 C209 0.950 . S
H204 C210 0.949 . S
C205 H200 0.950 . S
C205 C207 1.327 . S
C205 C211 1.429 . S
C206 C198 1.574 . S
C206 H201 0.949 . S
C206 C212 1.368 1_556 S
C207 C191 1.349 . S
C207 H199 0.950 . S
C207 C205 1.327 . S
C208 C196 1.349 . S
C208 H202 0.950 . S
C208 C209 1.327 . S
C209 H203 0.950 . S
C209 C208 1.327 . S
C209 C213 1.429 . S
C210 C193 1.574 . S
C210 H204 0.949 . S
C210 C214 1.343 1_554 S
C211 C192 1.429 1_554 S
C211 C205 1.429 . S
C211 C212 1.523 . S
C212 C193 1.368 . S
C212 C206 1.368 1_554 S
C212 C211 1.523 . S
C213 C197 1.429 1_556 S
C213 C209 1.429 . S
C213 C214 1.527 . S
C214 C198 1.391 . S
C214 C210 1.343 1_556 S
C214 C213 1.527 . S
H215 C190 0.950 . S
H216 C192 0.950 . S
H217 C193 0.949 . S
H218 C195 0.950 . S
H219 C197 0.950 . S
C220 C221 1.349 . S
C220 C222 1.327 . S
C220 H245 0.950 . S
C221 C220 1.349 . S
C221 C237 1.349 . S
C222 C220 1.327 . S
C222 C241 1.429 . S
C222 H246 0.950 . S
C223 C240 1.574 . S
C223 C242 1.368 . S
C223 H247 0.949 . S
H224 C228 0.949 . S
C225 C226 1.349 . S
C225 C227 1.327 . S
C225 H248 0.950 . S
C226 C225 1.349 . S
C226 C238 1.349 . S
C227 C225 1.327 . S
C227 C243 1.429 . S
C227 H249 0.950 . S
C228 H224 0.949 . S
C228 C236 1.574 . S
C228 C244 1.368 . S
H229 C237 0.950 . S
H230 C235 0.950 . S
H231 C236 0.949 . S
H232 C238 0.950 . S
H233 C239 0.950 . S
H234 C240 0.949 . S
C235 H230 0.950 . S
C235 C237 1.327 . S
C235 C241 1.429 . S
C236 C228 1.574 . S
C236 H231 0.949 . S
C236 C242 1.368 . S
C237 C221 1.349 . S
C237 H229 0.950 . S
C237 C235 1.327 . S
C238 C226 1.349 . S
C238 H232 0.950 . S
C238 C239 1.327 . S
C239 H233 0.950 . S
C239 C238 1.327 . S
C239 C243 1.429 . S
C240 C223 1.574 . S
C240 H234 0.949 . S
C240 C244 1.368 . S
C241 C222 1.429 . S
C241 C235 1.429 . S
C241 C242 1.523 . S
C242 C223 1.368 . S
C242 C236 1.368 . S
C242 C241 1.523 . S
C243 C227 1.429 . S
C243 C239 1.429 . S
C243 C244 1.523 . S
C244 C228 1.368 . S
C244 C240 1.368 . S
C244 C243 1.523 . S
H245 C220 0.950 . S
H246 C222 0.950 . S
H247 C223 0.949 . S
H248 C225 0.950 . S
H249 C227 0.950 . S
C250 C251 1.349 . S
C250 C252 1.327 . S
C250 H275 0.950 . S
C251 C250 1.349 . S
C251 C267 1.349 . S
C252 C250 1.327 . S
C252 C271 1.429 . S
C252 H276 0.950 . S
C253 C270 1.574 . S
C253 C272 1.368 . S
C253 H277 0.949 . S
H254 C258 0.949 . S
C255 C256 1.349 . S
C255 C257 1.327 . S
C255 H278 0.950 . S
C256 C255 1.349 . S
C256 C268 1.349 . S
C257 C255 1.327 . S
C257 C273 1.429 . S
C257 H279 0.950 . S
C258 H254 0.949 . S
C258 C266 1.574 . S
C258 C274 1.368 . S
H259 C267 0.950 . S
H260 C265 0.950 . S
H261 C266 0.949 . S
H262 C268 0.950 . S
H263 C269 0.950 . S
H264 C270 0.949 . S
C265 H260 0.950 . S
C265 C267 1.327 . S
C265 C271 1.429 . S
C266 C258 1.574 . S
C266 H261 0.949 . S
C266 C272 1.368 . S
C267 C251 1.349 . S
C267 H259 0.950 . S
C267 C265 1.327 . S
C268 C256 1.349 . S
C268 H262 0.950 . S
C268 C269 1.327 . S
C269 H263 0.950 . S
C269 C268 1.327 . S
C269 C273 1.429 . S
C270 C253 1.574 . S
C270 H264 0.949 . S
C270 C274 1.368 . S
C271 C252 1.429 . S
C271 C265 1.429 . S
C271 C272 1.523 . S
C272 C253 1.368 . S
C272 C266 1.368 . S
C272 C271 1.523 . S
C273 C257 1.429 . S
C273 C269 1.429 . S
C273 C274 1.523 . S
C274 C258 1.368 . S
C274 C270 1.368 . S
C274 C273 1.523 . S
H275 C250 0.950 . S
H276 C252 0.950 . S
H277 C253 0.949 . S
H278 C255 0.950 . S
H279 C257 0.950 . S
C280 C281 1.349 1_554 S
C280 C282 1.327 1_545 S
C280 H305 0.950 1_545 S
C281 C280 1.349 1_556 S
C281 C297 1.349 . S
C282 C280 1.327 1_565 S
C282 C301 1.429 1_564 S
C282 H306 0.950 . S
C283 C300 1.574 . S
C283 C302 1.368 . S
C283 H307 0.949 . S
H284 C288 0.949 . S
C285 C286 1.349 1_556 S
C285 C287 1.327 1_565 S
C285 H308 0.950 1_565 S
C286 C285 1.349 1_554 S
C286 C298 1.349 . S
C287 C285 1.327 1_545 S
C287 C303 1.429 1_546 S
C287 H309 0.950 . S
C288 H284 0.949 . S
C288 C296 1.574 . S
C288 C304 1.368 . S
H289 C297 0.950 . S
H290 C295 0.950 . S
H291 C296 0.949 . S
H292 C298 0.950 . S
H293 C299 0.950 . S
H294 C300 0.949 . S
C295 H290 0.950 . S
C295 C297 1.327 . S
C295 C301 1.429 . S
C296 C288 1.574 . S
C296 H291 0.949 . S
C296 C302 1.368 1_564 S
C297 C281 1.349 . S
C297 H289 0.950 . S
C297 C295 1.327 . S
C298 C286 1.349 . S
C298 H292 0.950 . S
C298 C299 1.327 . S
C299 H293 0.950 . S
C299 C298 1.327 . S
C299 C303 1.429 . S
C300 C283 1.574 . S
C300 H294 0.949 . S
C300 C304 1.368 1_546 S
C301 C282 1.429 1_546 S
C301 C295 1.429 . S
C301 C302 1.523 . S
C302 C283 1.368 . S
C302 C296 1.368 1_546 S
C302 C301 1.523 . S
C303 C287 1.429 1_564 S
C303 C299 1.429 . S
C303 C304 1.523 . S
C304 C288 1.368 . S
C304 C300 1.368 1_564 S
C304 C303 1.523 . S
H305 C280 0.950 1_565 S
H306 C282 0.950 . S
H307 C283 0.949 . S
H308 C285 0.950 1_545 S
H309 C287 0.950 . S
C310 C311 1.349 . S
C310 C312 1.327 . S
C310 H335 0.950 . S
C311 C310 1.349 . S
C311 C327 1.349 . S
C312 C310 1.327 . S
C312 C331 1.429 . S
C312 H336 0.950 . S
C313 C330 1.574 . S
C313 C332 1.368 1_545 S
C313 H337 0.949 . S
H314 C318 0.949 . S
C315 C316 1.349 . S
C315 C317 1.327 . S
C315 H338 0.950 . S
C316 C315 1.349 . S
C316 C328 1.349 . S
C317 C315 1.327 . S
C317 C333 1.429 . S
C317 H339 0.950 . S
C318 H314 0.949 . S
C318 C326 1.574 . S
C318 C334 1.368 1_565 S
H319 C327 0.950 . S
H320 C325 0.950 1_545 S
H321 C326 0.949 . S
H322 C328 0.950 . S
H323 C329 0.950 1_565 S
H324 C330 0.949 . S
C325 H320 0.950 1_565 S
C325 C327 1.327 . S
C325 C331 1.429 . S
C326 C318 1.574 . S
C326 H321 0.949 . S
C326 C332 1.368 . S
C327 C311 1.349 . S
C327 H319 0.950 . S
C327 C325 1.327 . S
C328 C316 1.349 . S
C328 H322 0.950 . S
C328 C329 1.327 . S
C329 H323 0.950 1_545 S
C329 C328 1.327 . S
C329 C333 1.429 . S
C330 C313 1.574 . S
C330 H324 0.949 . S
C330 C334 1.368 . S
C331 C312 1.429 . S
C331 C325 1.429 . S
C331 C332 1.523 . S
C332 C313 1.368 1_565 S
C332 C326 1.368 . S
C332 C331 1.523 . S
C333 C317 1.429 . S
C333 C329 1.429 . S
C333 C334 1.523 . S
C334 C318 1.368 1_545 S
C334 C330 1.368 . S
C334 C333 1.523 . S
H335 C310 0.950 . S
H336 C312 0.950 . S
H337 C313 0.949 . S
H338 C315 0.950 . S
H339 C317 0.950 . S
C340 C341 1.349 1_554 S
C340 C342 1.327 . S
C340 H365 0.950 . S
C341 C340 1.349 1_556 S
C341 C357 1.349 . S
C342 C340 1.327 . S
C342 C361 1.429 1_554 S
C342 H366 0.950 . S
C343 C360 1.574 1_655 S
C343 C362 1.368 . S
C343 H367 0.949 . S
H344 C348 0.949 . S
C345 C346 1.349 1_556 S
C345 C347 1.327 . S
C345 H368 0.950 . S
C346 C345 1.349 1_554 S
C346 C358 1.349 . S
C347 C345 1.327 . S
C347 C363 1.429 1_556 S
C347 H369 0.950 . S
C348 H344 0.949 . S
C348 C356 1.574 1_455 S
C348 C364 1.368 . S
H349 C357 0.950 . S
H350 C355 0.950 . S
H351 C356 0.949 . S
H352 C358 0.950 . S
H353 C359 0.950 . S
H354 C360 0.949 . S
C355 H350 0.950 . S
C355 C357 1.327 . S
C355 C361 1.429 . S
C356 C348 1.574 1_655 S
C356 H351 0.949 . S
C356 C362 1.368 1_554 S
C357 C341 1.349 . S
C357 H349 0.950 . S
C357 C355 1.327 . S
C358 C346 1.349 . S
C358 H352 0.950 . S
C358 C359 1.327 . S
C359 H353 0.950 . S
C359 C358 1.327 . S
C359 C363 1.429 . S
C360 C343 1.574 1_455 S
C360 H354 0.949 . S
C360 C364 1.368 1_556 S
C361 C342 1.429 1_556 S
C361 C355 1.429 . S
C361 C362 1.523 . S
C362 C343 1.368 . S
C362 C356 1.368 1_556 S
C362 C361 1.523 . S
C363 C347 1.429 1_554 S
C363 C359 1.429 . S
C363 C364 1.523 . S
C364 C348 1.368 . S
C364 C360 1.368 1_554 S
C364 C363 1.523 . S
H365 C340 0.950 . S
H366 C342 0.950 . S
H367 C343 0.949 . S
H368 C345 0.950 . S
H369 C347 0.950 . S
C370 C371 1.349 . S
C370 C372 1.327 . S
C370 H395 0.950 . S
C371 C370 1.349 . S
C371 C387 1.349 . S
C372 C370 1.327 . S
C372 C391 1.429 . S
C372 H396 0.950 . S
C373 C390 1.574 1_455 S
C373 C392 1.368 . S
C373 H397 0.949 . S
H374 C378 0.949 . S
C375 C376 1.349 . S
C375 C377 1.327 . S
C375 H398 0.950 . S
C376 C375 1.349 . S
C376 C388 1.349 . S
C377 C375 1.327 . S
C377 C393 1.429 . S
C377 H399 0.950 . S
C378 H374 0.949 . S
C378 C386 1.574 1_655 S
C378 C394 1.368 . S
H379 C387 0.950 . S
H380 C385 0.950 . S
H381 C386 0.949 . S
H382 C388 0.950 . S
H383 C389 0.950 . S
H384 C390 0.949 . S
C385 H380 0.950 . S
C385 C387 1.327 . S
C385 C391 1.429 . S
C386 C378 1.574 1_455 S
C386 H381 0.949 . S
C386 C392 1.368 . S
C387 C371 1.349 . S
C387 H379 0.950 . S
C387 C385 1.327 . S
C388 C376 1.349 . S
C388 H382 0.950 . S
C388 C389 1.327 . S
C389 H383 0.950 . S
C389 C388 1.327 . S
C389 C393 1.429 . S
C390 C373 1.574 1_655 S
C390 H384 0.949 . S
C390 C394 1.368 . S
C391 C372 1.429 . S
C391 C385 1.429 . S
C391 C392 1.523 . S
C392 C373 1.368 . S
C392 C386 1.368 . S
C392 C391 1.523 . S
C393 C377 1.429 . S
C393 C389 1.429 . S
C393 C394 1.523 . S
C394 C378 1.368 . S
C394 C390 1.368 . S
C394 C393 1.523 . S
H395 C370 0.950 . S
H396 C372 0.950 . S
H397 C373 0.949 . S
H398 C375 0.950 . S
H399 C377 0.950 . S
C400 C401 1.338 1_445 S
C400 C402 1.327 . S
C400 H425 0.950 . S
C401 C400 1.338 1_665 S
C401 C417 1.357 . S
C402 C400 1.327 . S
C402 C421 1.427 1_445 S
C402 H426 0.950 . S
C403 C420 1.574 . S
C403 C422 1.369 1_655 S
C403 H427 0.949 . S
H404 C408 0.949 . S
C405 C406 1.349 1_655 S
C405 C407 1.327 . S
C405 H428 0.950 . S
C406 C405 1.349 1_455 S
C406 C418 1.349 1_565 S
C407 C405 1.327 . S
C407 C423 1.420 1_655 S
C407 H429 0.950 . S
C408 H404 0.949 . S
C408 C416 1.574 . S
C408 C424 1.374 1_545 S
H409 C417 0.950 . S
H410 C415 0.950 . S
H411 C416 0.949 . S
H412 C418 0.950 . S
H413 C419 0.950 . S
H414 C420 0.949 . S
C415 H410 0.950 . S
C415 C417 1.327 . S
C415 C421 1.431 . S
C416 C408 1.574 . S
C416 H411 0.949 . S
C416 C422 1.367 1_545 S
C417 C401 1.357 . S
C417 H409 0.950 . S
C417 C415 1.327 . S
C418 C406 1.349 1_545 S
C418 H412 0.950 . S
C418 C419 1.327 . S
C419 H413 0.950 . S
C419 C418 1.327 . S
C419 C423 1.440 1_545 S
C420 C403 1.574 . S
C420 H414 0.949 . S
C420 C424 1.361 1_655 S
C421 C402 1.427 1_665 S
C421 C415 1.431 . S
C421 C422 1.523 1_655 S
C422 C403 1.369 1_455 S
C422 C416 1.367 1_565 S
C422 C421 1.523 1_455 S
C423 C407 1.420 1_455 S
C423 C419 1.440 1_565 S
C423 C424 1.522 . S
C424 C408 1.374 1_565 S
C424 C420 1.361 1_455 S
C424 C423 1.522 . S
H425 C400 0.950 . S
H426 C402 0.950 . S
H427 C403 0.949 . S
H428 C405 0.950 . S
H429 C407 0.950 . S
C430 C431 1.338 1_455 S
C430 C432 1.327 . S
C430 H455 0.950 . S
C431 C430 1.338 1_655 S
C431 C447 1.357 1_545 S
C432 C430 1.327 . S
C432 C451 1.427 1_455 S
C432 H456 0.950 . S
C433 C450 1.574 . S
C433 C452 1.369 1_665 S
C433 H457 0.949 . S
H434 C438 0.949 . S
C435 C436 1.349 1_665 S
C435 C437 1.327 . S
C435 H458 0.950 . S
C436 C435 1.349 1_445 S
C436 C448 1.349 . S
C437 C435 1.327 . S
C437 C453 1.420 1_665 S
C437 H459 0.950 . S
C438 H434 0.949 . S
C438 C446 1.574 . S
C438 C454 1.374 . S
H439 C447 0.950 . S
H440 C445 0.950 . S
H441 C446 0.949 . S
H442 C448 0.950 . S
H443 C449 0.950 . S
H444 C450 0.949 . S
C445 H440 0.950 . S
C445 C447 1.327 . S
C445 C451 1.431 1_565 S
C446 C438 1.574 . S
C446 H441 0.949 . S
C446 C452 1.367 . S
C447 C431 1.357 1_565 S
C447 H439 0.950 . S
C447 C445 1.327 . S
C448 C436 1.349 . S
C448 H442 0.950 . S
C448 C449 1.327 . S
C449 H443 0.950 . S
C449 C448 1.327 . S
C449 C453 1.440 . S
C450 C433 1.574 . S
C450 H444 0.949 . S
C450 C454 1.361 1_665 S
C451 C432 1.427 1_655 S
C451 C445 1.431 1_545 S
C451 C452 1.523 1_655 S
C452 C433 1.369 1_445 S
C452 C446 1.367 . S
C452 C451 1.523 1_455 S
C453 C437 1.420 1_445 S
C453 C449 1.440 . S
C453 C454 1.522 . S
C454 C438 1.374 . S
C454 C450 1.361 1_445 S
C454 C453 1.522 . S
H455 C430 0.950 . S
H456 C432 0.950 . S
H457 C433 0.949 . S
H458 C435 0.950 . S
H459 C437 0.950 . S
C460 C461 1.349 . S
C460 C462 1.327 . S
C460 H485 0.950 . S
C461 C460 1.349 . S
C461 C477 1.349 . S
C462 C460 1.327 . S
C462 C481 1.429 . S
C462 H486 0.950 . S
C463 C480 1.574 . S
C463 C482 1.368 . S
C463 H487 0.949 . S
H464 C468 0.949 . S
C465 C466 1.349 . S
C465 C467 1.327 . S
C465 H488 0.950 . S
C466 C465 1.349 . S
C466 C478 1.349 . S
C467 C465 1.327 . S
C467 C483 1.429 . S
C467 H489 0.950 . S
C468 H464 0.949 . S
C468 C476 1.574 . S
C468 C484 1.368 . S
H469 C477 0.950 . S
H470 C475 0.950 . S
H471 C476 0.949 . S
H472 C478 0.950 . S
H473 C479 0.950 . S
H474 C480 0.949 . S
C475 H470 0.950 . S
C475 C477 1.327 . S
C475 C481 1.429 . S
C476 C468 1.574 . S
C476 H471 0.949 . S
C476 C482 1.368 . S
C477 C461 1.349 . S
C477 H469 0.950 . S
C477 C475 1.327 . S
C478 C466 1.349 . S
C478 H472 0.950 . S
C478 C479 1.327 . S
C479 H473 0.950 . S
C479 C478 1.327 . S
C479 C483 1.429 . S
C480 C463 1.574 . S
C480 H474 0.949 . S
C480 C484 1.368 . S
C481 C462 1.429 . S
C481 C475 1.429 . S
C481 C482 1.523 . S
C482 C463 1.368 . S
C482 C476 1.368 . S
C482 C481 1.523 . S
C483 C467 1.429 . S
C483 C479 1.429 . S
C483 C484 1.523 . S
C484 C468 1.368 . S
C484 C480 1.368 . S
C484 C483 1.523 . S
H485 C460 0.950 . S
H486 C462 0.950 . S
H487 C463 0.949 . S
H488 C465 0.950 . S
H489 C467 0.950 . S
C490 C491 1.349 . S
C490 C492 1.327 . S
C490 H515 0.950 . S
C491 C490 1.349 . S
C491 C507 1.349 . S
C492 C490 1.327 . S
C492 C511 1.429 . S
C492 H516 0.950 . S
C493 C510 1.574 . S
C493 C512 1.368 . S
C493 H517 0.949 . S
H494 C498 0.949 . S
C495 C496 1.349 . S
C495 C497 1.327 . S
C495 H518 0.950 . S
C496 C495 1.349 . S
C496 C508 1.349 . S
C497 C495 1.327 . S
C497 C513 1.429 . S
C497 H519 0.950 . S
C498 H494 0.949 . S
C498 C506 1.574 . S
C498 C514 1.368 . S
H499 C507 0.950 . S
H500 C505 0.950 . S
H501 C506 0.949 . S
H502 C508 0.950 . S
H503 C509 0.950 . S
H504 C510 0.949 . S
C505 H500 0.950 . S
C505 C507 1.327 . S
C505 C511 1.429 . S
C506 C498 1.574 . S
C506 H501 0.949 . S
C506 C512 1.368 . S
C507 C491 1.349 . S
C507 H499 0.950 . S
C507 C505 1.327 . S
C508 C496 1.349 . S
C508 H502 0.950 . S
C508 C509 1.327 . S
C509 H503 0.950 . S
C509 C508 1.327 . S
C509 C513 1.429 . S
C510 C493 1.574 . S
C510 H504 0.949 . S
C510 C514 1.368 . S
C511 C492 1.429 . S
C511 C505 1.429 . S
C511 C512 1.523 . S
C512 C493 1.368 . S
C512 C506 1.368 . S
C512 C511 1.523 . S
C513 C497 1.429 . S
C513 C509 1.429 . S
C513 C514 1.523 . S
C514 C498 1.368 . S
C514 C510 1.368 . S
C514 C513 1.523 . S
H515 C490 0.950 . S
H516 C492 0.950 . S
H517 C493 0.949 . S
H518 C495 0.950 . S
H519 C497 0.950 . S
C161 C102 1.550 . S
C166 C3 1.551 . S
C191 C83 1.549 . S
C196 C22 1.548 . S
C221 C62 1.550 . S
C226 C123 1.548 . S
C251 C43 1.550 . S
C256 C142 1.551 . S
C281 C26 1.151 . S
C286 C9 1.151 . S
C311 C49 1.151 . S
C316 C66 1.151 . S
C341 C106 1.151 . S
C346 C89 1.151 . S
C371 C146 1.151 . S
C376 C129 1.151 . S
C401 C55 1.475 1_565 S
C406 C15 1.470 1_565 S
C431 C2 1.475 1_545 S
C436 C42 1.470 1_545 S
C461 C135 1.470 . S
C466 C95 1.470 . S
C491 C122 1.470 . S
C496 C82 1.470 . S
