# Generated by pormake.
# Topology sow, (4)-cn, num edge types: 1
# Building blocks:
#     Node 0, Type 0, BuildingBlock: MUDLON_clean_sbu_0, # of connection points: 4
#     Node 1, Type 0, BuildingBlock: MUDLON_clean_sbu_0, # of connection points: 4
#     Node 2, Type 0, BuildingBlock: MUDLON_clean_sbu_0, # of connection points: 4
#     Node 3, Type 0, BuildingBlock: MUDLON_clean_sbu_0, # of connection points: 4
#     Node 4, Type 0, BuildingBlock: MUDLON_clean_sbu_0, # of connection points: 4
#     Node 5, Type 0, BuildingBlock: MUDLON_clean_sbu_0, # of connection points: 4
#     Node 6, Type 0, BuildingBlock: MUDLON_clean_sbu_0, # of connection points: 4
#     Node 7, Type 0, BuildingBlock: MUDLON_clean_sbu_0, # of connection points: 4
#     Edge 8, Type (0, 0), BuildingBlock: AJUNOK_clean_linker_0, # of connection points: 2
#     Edge 9, Type (0, 0), BuildingBlock: AJUNOK_clean_linker_0, # of connection points: 2
#     Edge 10, Type (0, 0), BuildingBlock: AJUNOK_clean_linker_0, # of connection points: 2
#     Edge 11, Type (0, 0), BuildingBlock: AJUNOK_clean_linker_0, # of connection points: 2
#     Edge 12, Type (0, 0), BuildingBlock: AJUNOK_clean_linker_0, # of connection points: 2
#     Edge 13, Type (0, 0), BuildingBlock: AJUNOK_clean_linker_0, # of connection points: 2
#     Edge 14, Type (0, 0), BuildingBlock: AJUNOK_clean_linker_0, # of connection points: 2
#     Edge 15, Type (0, 0), BuildingBlock: AJUNOK_clean_linker_0, # of connection points: 2
#     Edge 16, Type (0, 0), BuildingBlock: AJUNOK_clean_linker_0, # of connection points: 2
#     Edge 17, Type (0, 0), BuildingBlock: AJUNOK_clean_linker_0, # of connection points: 2
#     Edge 18, Type (0, 0), BuildingBlock: AJUNOK_clean_linker_0, # of connection points: 2
#     Edge 19, Type (0, 0), BuildingBlock: AJUNOK_clean_linker_0, # of connection points: 2
#     Edge 20, Type (0, 0), BuildingBlock: AJUNOK_clean_linker_0, # of connection points: 2
#     Edge 21, Type (0, 0), BuildingBlock: AJUNOK_clean_linker_0, # of connection points: 2
#     Edge 22, Type (0, 0), BuildingBlock: AJUNOK_clean_linker_0, # of connection points: 2
#     Edge 23, Type (0, 0), BuildingBlock: AJUNOK_clean_linker_0, # of connection points: 2
# Relax obj value: 0.165
# Max RMSD: 0.253
# Mean RMSD: 0.253
data_MOF--net-sow--node1-MUDLON_clean_sbu_0--edge1-AJUNOK_clean_linker_0
_symmetry_space_group_name_H-M    P1
_symmetry_Int_Tables_number       1
_symmetry_cell_setting            triclinic
loop_
_symmetry_equiv_pos_as_xyz
'x, y, z'
_cell_length_a     30.47173
_cell_length_b     18.171923
_cell_length_c     18.167998
_cell_angle_alpha  90.127664
_cell_angle_beta   89.453346
_cell_angle_gamma 90.23724
loop_
_atom_site_label
_atom_site_type_symbol
_atom_site_fract_x
_atom_site_fract_y
_atom_site_fract_z
_atom_type_partial_charge
Mg0 Mg 0.16077 0.20019 0.12904 0.0
C1 C 0.09155 0.32392 0.16142 0.0
O2 O 0.09348 0.34023 0.09106 0.0
C3 C 0.19582 0.22883 0.97385 0.0
O4 O 0.16417 0.18246 0.95771 0.0
C5 C 0.08357 0.12644 0.05658 0.0
O6 O 0.07458 0.19581 0.04414 0.0
O7 O 0.11913 0.11085 0.08926 0.0
O8 O 0.11659 0.27453 0.18681 0.0
O9 O 0.2031 0.16098 0.21641 0.0
C10 C 0.2411 0.18869 0.22492 0.0
O11 O 0.25569 0.23623 0.176 0.0
O12 O 0.20078 0.24808 0.04068 0.0
Mg13 Mg 0.38724 0.265 0.61816 0.0
C14 C 0.46516 0.16227 0.65275 0.0
O15 O 0.47118 0.15999 0.58109 0.0
C16 C 0.32989 0.18668 0.50663 0.0
O17 O 0.30792 0.16982 0.56687 0.0
C18 C 0.45502 0.36519 0.55198 0.0
O19 O 0.46195 0.30373 0.51558 0.0
O20 O 0.42362 0.36709 0.59875 0.0
O21 O 0.43215 0.1963 0.67881 0.0
O22 O 0.33007 0.2779 0.68995 0.0
C23 C 0.33482 0.28722 0.75883 0.0
O24 O 0.37467 0.29576 0.78461 0.0
O25 O 0.36571 0.22238 0.5124 0.0
Mg26 Mg 0.65379 0.27951 0.95169 0.0
C27 C 0.61317 0.16928 0.84465 0.0
O28 O 0.65297 0.16908 0.81624 0.0
C29 C 0.71378 0.21118 0.06451 0.0
O30 O 0.73435 0.19026 1.00419 0.0
C31 C 0.57968 0.37373 0.99937 0.0
O32 O 0.5675 0.30772 1.02102 0.0
O33 O 0.61685 0.38092 0.96743 0.0
O34 O 0.60616 0.20465 0.90404 0.0
O35 O 0.70992 0.28994 0.87707 0.0
C36 C 0.70801 0.31582 0.81222 0.0
O37 O 0.67051 0.3421 0.78895 0.0
O38 O 0.67788 0.24608 0.0587 0.0
Mg39 Mg 0.88434 0.23542 0.44308 0.0
C40 C 0.9326 0.33193 0.33209 0.0
O41 O 0.89675 0.32018 0.29413 0.0
C42 C 0.84765 0.25992 0.59743 0.0
O43 O 0.87966 0.2145 0.61289 0.0
C44 C 0.96089 0.15784 0.50873 0.0
O45 O 0.97298 0.227 0.51493 0.0
O46 O 0.92319 0.14349 0.48248 0.0
O47 O 0.93366 0.31036 0.39858 0.0
O48 O 0.84389 0.20002 0.35128 0.0
C49 C 0.80488 0.22334 0.34445 0.0
O50 O 0.78841 0.26587 0.39628 0.0
O51 O 0.84291 0.28027 0.53101 0.0
Mg52 Mg 0.88283 0.80336 0.9405 0.0
C53 C 0.80395 0.78426 0.84211 0.0
O54 O 0.79008 0.74659 0.89948 0.0
C55 C 0.95833 0.89139 0.99277 0.0
O56 O 0.96693 0.82534 1.01795 0.0
C57 C 0.83536 0.73304 0.07756 0.0
O58 O 0.85216 0.66993 0.05627 0.0
O59 O 0.84338 0.7906 0.04009 0.0
O60 O 0.84108 0.81624 0.84514 0.0
O61 O 0.932 0.72054 0.91509 0.0
C62 C 0.93633 0.69887 0.8488 0.0
O63 O 0.90386 0.71041 0.80327 0.0
O64 O 0.92308 0.90085 0.95702 0.0
Mg65 Mg 0.65144 0.69911 0.44604 0.0
C66 C 0.71797 0.74498 0.33404 0.0
O67 O 0.70327 0.80795 0.35974 0.0
C68 C 0.57708 0.61019 0.50323 0.0
O69 O 0.5688 0.67661 0.52827 0.0
C70 C 0.71821 0.75321 0.5584 0.0
O71 O 0.74332 0.7574 0.49942 0.0
O72 O 0.67849 0.73282 0.55152 0.0
O73 O 0.70288 0.68583 0.36216 0.0
O74 O 0.60386 0.77651 0.40358 0.0
C75 C 0.59737 0.77419 0.33459 0.0
O76 O 0.62228 0.73106 0.29403 0.0
O77 O 0.61197 0.60046 0.46524 0.0
Mg78 Mg 0.38092 0.70235 0.10366 0.0
C79 C 0.30461 0.73674 0.20314 0.0
O80 O 0.30334 0.79172 0.15642 0.0
C81 C 0.45764 0.61697 0.04944 0.0
O82 O 0.46592 0.68368 0.0252 0.0
C83 C 0.33781 0.78706 0.97521 0.0
O84 O 0.34891 0.84663 1.01175 0.0
O85 O 0.34748 0.72432 1.00116 0.0
O86 O 0.33354 0.68727 0.19331 0.0
O87 O 0.42834 0.78537 0.13608 0.0
C88 C 0.43 0.80598 0.20295 0.0
O89 O 0.39678 0.78993 0.24663 0.0
O90 O 0.42208 0.60592 0.08534 0.0
Mg91 Mg 0.15768 0.82532 0.6088 0.0
C92 C 0.22986 0.78723 0.71188 0.0
O93 O 0.22158 0.72327 0.68105 0.0
C94 C 0.07925 0.91495 0.57287 0.0
O95 O 0.06516 0.84776 0.55995 0.0
C96 C 0.20576 0.74389 0.48021 0.0
O97 O 0.20809 0.68816 0.52589 0.0
O98 O 0.18671 0.80258 0.50106 0.0
O99 O 0.20846 0.84302 0.69057 0.0
O100 O 0.11149 0.74325 0.65089 0.0
C101 C 0.10661 0.73994 0.72049 0.0
O102 O 0.13276 0.77964 0.76182 0.0
O103 O 0.11834 0.92379 0.59537 0.0
C104 C 0.30243 0.29594 0.88588 0.0
C105 C 0.29687 0.27994 0.81064 0.0
C106 C 0.26896 0.28216 0.93768 0.0
C107 C 0.22855 0.25111 0.91664 0.0
H108 H 0.33332 0.31779 0.9055 0.0
H109 H 0.27552 0.29362 0.99507 0.0
S110 S 0.19575 0.20441 0.72561 0.0
N111 N 0.24648 0.23564 0.71708 0.0
N112 N 0.18382 0.20935 0.81429 0.0
C113 C 0.22184 0.23754 0.84116 0.0
C114 C 0.25586 0.25209 0.78826 0.0
C115 C 0.30706 0.21094 0.30305 0.0
C116 C 0.26593 0.17668 0.29405 0.0
C117 C 0.32857 0.21032 0.37088 0.0
C118 C 0.30983 0.17568 0.43297 0.0
H119 H 0.32224 0.24099 0.25805 0.0
H120 H 0.3593 0.24013 0.37522 0.0
S121 S 0.20554 0.0689 0.43649 0.0
N122 N 0.20942 0.10023 0.35144 0.0
N123 N 0.24975 0.09932 0.47891 0.0
C124 C 0.27004 0.13709 0.42367 0.0
C125 C 0.24815 0.13748 0.35431 0.0
C126 C 0.73873 0.24341 0.26648 0.0
C127 C 0.78012 0.2106 0.2753 0.0
C128 C 0.71669 0.24027 0.19921 0.0
C129 C 0.73506 0.20428 0.13758 0.0
H130 H 0.72365 0.27401 0.31119 0.0
H131 H 0.68566 0.26874 0.195 0.0
S132 S 0.84025 0.10151 0.13377 0.0
N133 N 0.83683 0.13495 0.21817 0.0
N134 N 0.79543 0.1291 0.09181 0.0
C135 C 0.77531 0.16763 0.14666 0.0
C136 C 0.7978 0.17077 0.21539 0.0
C137 C 0.74184 0.3289 0.68634 0.0
C138 C 0.74603 0.30813 0.76059 0.0
C139 C 0.77543 0.31553 0.63467 0.0
C140 C 0.81469 0.28061 0.65487 0.0
H141 H 0.71187 0.35401 0.66723 0.0
H142 H 0.76989 0.33078 0.57792 0.0
S143 S 0.84413 0.22168 0.8438 0.0
N144 N 0.79421 0.2556 0.85271 0.0
N145 N 0.85708 0.23043 0.75583 0.0
C146 C 0.82013 0.26236 0.72957 0.0
C147 C 0.78594 0.27613 0.78228 0.0
C148 C 0.7946 0.6734 0.18301 0.0
C149 C 0.80646 0.73757 0.1441 0.0
C150 C 0.76646 0.67624 0.2447 0.0
C151 C 0.74911 0.74341 0.27033 0.0
H152 H 0.80679 0.62024 0.1654 0.0
H153 H 0.75808 0.62519 0.2722 0.0
S154 S 0.77049 0.92798 0.1891 0.0
N155 N 0.79893 0.87081 0.13682 0.0
N156 N 0.74643 0.87607 0.25209 0.0
C157 C 0.76113 0.80817 0.23246 0.0
C158 C 0.78964 0.80528 0.16962 0.0
C159 C 0.77968 0.797 0.63788 0.0
C160 C 0.73725 0.7667 0.63229 0.0
C161 C 0.80022 0.80491 0.70613 0.0
C162 C 0.77939 0.78229 0.77183 0.0
H163 H 0.79767 0.81371 0.58895 0.0
H164 H 0.8333 0.82695 0.70689 0.0
S165 S 0.66687 0.70428 0.78839 0.0
N166 N 0.67404 0.71768 0.69925 0.0
N167 N 0.71275 0.73216 0.8274 0.0
C168 C 0.73635 0.75417 0.76746 0.0
C169 C 0.71526 0.74655 0.69784 0.0
C170 C 0.30556 0.72662 0.86448 0.0
C171 C 0.3127 0.79129 0.90553 0.0
C172 C 0.27991 0.72674 0.80107 0.0
C173 C 0.25998 0.79149 0.77569 0.0
H174 H 0.31943 0.67475 0.88184 0.0
H175 H 0.27504 0.67493 0.77265 0.0
S176 S 0.2702 0.97701 0.86044 0.0
N177 N 0.29922 0.92302 0.91422 0.0
N178 N 0.25079 0.92323 0.79489 0.0
C179 C 0.26781 0.85726 0.81481 0.0
C180 C 0.29418 0.85717 0.87964 0.0
C181 C 0.27993 0.68012 0.32275 0.0
C182 C 0.27627 0.73684 0.27046 0.0
C183 C 0.25619 0.68188 0.38936 0.0
C184 C 0.22788 0.7406 0.40678 0.0
H185 H 0.30199 0.63447 0.31297 0.0
H186 H 0.26096 0.63754 0.42818 0.0
S187 S 0.20418 0.90081 0.28683 0.0
N188 N 0.24016 0.85186 0.23941 0.0
N189 N 0.19587 0.85527 0.36421 0.0
C190 C 0.2229 0.79668 0.35407 0.0
C191 C 0.24695 0.79475 0.28612 0.0
C192 C 1.01281 0.3605 0.17406 0.0
C193 C 0.05349 0.34701 0.20725 0.0
C194 C 0.9739 0.36207 0.216 0.0
C195 C 0.97425 0.3506 0.29273 0.0
H196 H 1.01044 0.36402 0.11471 0.0
H197 H 0.94313 0.36734 0.18718 0.0
S198 S 0.07374 0.32982 0.40753 0.0
N199 N 0.09276 0.33412 0.32227 0.0
N200 N 1.01997 0.33807 0.4013 0.0
C201 C 1.01533 0.34532 0.32733 0.0
C202 C 0.05485 0.34314 0.2845 0.0
C203 C 0.54452 0.13641 0.67533 0.0
C204 C 0.50145 0.14317 0.70314 0.0
C205 C 0.58074 0.13812 0.72239 0.0
C206 C 0.57523 0.14674 0.79899 0.0
H207 H 0.55065 0.1353 0.61651 0.0
H208 H 0.61327 0.13821 0.69781 0.0
S209 S 0.46896 0.14836 0.90063 0.0
N210 N 0.45514 0.14498 0.81305 0.0
N211 N 0.52313 0.14849 0.90131 0.0
C212 C 0.53224 0.14524 0.82797 0.0
C213 C 0.49538 0.14337 0.7801 0.0
C214 C 0.02914 0.69506 0.70948 0.0
C215 C 0.06612 0.7078 0.75356 0.0
C216 C 0.98746 0.68434 0.74118 0.0
C217 C 0.98114 0.68605 0.81815 0.0
H218 H 0.03164 0.69908 0.65011 0.0
H219 H 0.95963 0.68043 0.7047 0.0
S220 S 0.06924 0.69807 0.95757 0.0
N221 N 0.09513 0.70711 0.87786 0.0
N222 N 1.01693 0.68684 0.9374 0.0
C223 C 1.01868 0.68962 0.86266 0.0
C224 C 0.06112 0.70069 0.83035 0.0
C225 C 0.51162 0.81319 0.19222 0.0
C226 C 0.47345 0.8229 0.23538 0.0
C227 C 0.55263 0.80435 0.22491 0.0
C228 C 0.55717 0.80544 0.30191 0.0
H229 H 0.50952 0.80606 0.13314 0.0
H230 H 0.5804 0.79134 0.18961 0.0
S231 S 0.46952 0.84938 0.43809 0.0
N232 N 0.44431 0.84835 0.35805 0.0
N233 N 0.52155 0.83166 0.4195 0.0
C234 C 0.52038 0.82485 0.34503 0.0
C235 C 0.47845 0.83367 0.31168 0.0
C236 C 0.06097 0.99377 0.05277 0.0
C237 C 0.05166 0.0677 0.03654 0.0
C238 C 0.0307 0.93756 0.0379 0.0
C239 C 0.98975 0.95267 1.00602 0.0
H240 H 0.09177 0.97896 0.07794 0.0
H241 H 0.0396 0.8817 0.05189 0.0
S242 S 0.9493 0.1369 0.95136 0.0
N243 N 0.99846 0.15288 0.9854 0.0
N244 N 0.94171 0.04715 0.95761 0.0
C245 C 0.98014 0.02619 0.98847 0.0
C246 C 1.01101 0.08363 1.00368 0.0
C247 C 0.55166 0.48018 0.4827 0.0
C248 C 0.54555 0.54874 0.5173 0.0
C249 C 0.52203 0.42186 0.49388 0.0
C250 C 0.485 0.42924 0.54043 0.0
H251 H 0.57948 0.47133 0.44625 0.0
H252 H 0.52851 0.37033 0.46582 0.0
S253 S 0.45389 0.59728 0.64487 0.0
N254 N 0.4994 0.62056 0.60064 0.0
N255 N 0.44401 0.51099 0.62163 0.0
C256 C 0.47847 0.49746 0.57558 0.0
C257 C 0.50861 0.55707 0.56403 0.0
C258 C 0.47975 0.48447 0.05972 0.0
C259 C 0.48951 0.55631 0.0358 0.0
C260 C 0.50915 0.42637 0.04779 0.0
C261 C 0.54976 0.43736 1.01149 0.0
H262 H 0.44904 0.4727 0.0879 0.0
H263 H 0.49975 0.37224 0.06732 0.0
S264 S 0.59161 0.6151 0.93817 0.0
N265 N 0.54318 0.63526 0.97412 0.0
N266 N 0.59823 0.52611 0.95187 0.0
C267 C 0.56009 0.50895 0.98737 0.0
C268 C 0.53008 0.56828 0.99945 0.0
C269 C 1.0055 0.96588 0.54221 0.0
C270 C 0.04984 0.97857 0.5597 0.0
C271 C 0.97698 0.02407 0.52695 0.0
C272 C 0.99149 0.09763 0.52853 0.0
H273 H 0.99254 0.91035 0.53979 0.0
H274 H 0.94331 0.011 0.5133 0.0
S275 S 0.10463 0.1611 0.57133 0.0
N276 N 0.10692 0.07065 0.57802 0.0
N277 N 0.05347 0.18003 0.54943 0.0
C278 C 0.0357 0.11134 0.54676 0.0
C279 C 0.06479 0.05191 0.5623 0.0
loop_
_geom_bond_atom_site_label_1
_geom_bond_atom_site_label_2
_geom_bond_distance
_geom_bond_site_symmetry_2
_ccdc_geom_bond_type
Mg0 O7 2.141 . S
Mg0 O8 2.048 . S
Mg0 O9 2.048 . S
Mg0 O12 2.141 . S
C1 O2 1.313 . S
C1 O8 1.195 . S
O2 C1 1.313 . S
C3 O4 1.245 . S
C3 O12 1.289 1_556 S
O4 C3 1.245 . S
C5 O6 1.245 . S
C5 O7 1.289 1_556 S
O6 C5 1.245 . S
O7 Mg0 2.141 . S
O7 C5 1.289 1_554 S
O8 Mg0 2.048 . S
O8 C1 1.195 . S
O9 Mg0 2.048 . S
O9 C10 1.195 . S
C10 O9 1.195 . S
C10 O11 1.313 . S
O11 C10 1.313 . S
O12 Mg0 2.141 . S
O12 C3 1.289 1_554 S
Mg13 O20 2.141 . S
Mg13 O21 2.048 . S
Mg13 O22 2.048 . S
Mg13 O25 2.141 . S
C14 O15 1.313 . S
C14 O21 1.195 . S
O15 C14 1.313 . S
C16 O17 1.245 . S
C16 O25 1.289 . S
O17 C16 1.245 . S
C18 O19 1.245 . S
C18 O20 1.289 . S
O19 C18 1.245 . S
O20 Mg13 2.141 . S
O20 C18 1.289 . S
O21 Mg13 2.048 . S
O21 C14 1.195 . S
O22 Mg13 2.048 . S
O22 C23 1.195 . S
C23 O22 1.195 . S
C23 O24 1.313 . S
O24 C23 1.313 . S
O25 Mg13 2.141 . S
O25 C16 1.289 . S
Mg26 O33 2.141 . S
Mg26 O34 2.048 . S
Mg26 O35 2.048 . S
Mg26 O38 2.141 . S
C27 O28 1.313 . S
C27 O34 1.195 . S
O28 C27 1.313 . S
C29 O30 1.245 . S
C29 O38 1.289 1_554 S
O30 C29 1.245 . S
C31 O32 1.245 . S
C31 O33 1.289 1_554 S
O32 C31 1.245 . S
O33 Mg26 2.141 . S
O33 C31 1.289 1_556 S
O34 Mg26 2.048 . S
O34 C27 1.195 . S
O35 Mg26 2.048 . S
O35 C36 1.195 . S
C36 O35 1.195 . S
C36 O37 1.313 . S
O37 C36 1.313 . S
O38 Mg26 2.141 . S
O38 C29 1.289 1_556 S
Mg39 O46 2.141 . S
Mg39 O47 2.048 . S
Mg39 O48 2.048 . S
Mg39 O51 2.141 . S
C40 O41 1.313 . S
C40 O47 1.195 . S
O41 C40 1.313 . S
C42 O43 1.245 . S
C42 O51 1.289 . S
O43 C42 1.245 . S
C44 O45 1.245 . S
C44 O46 1.289 . S
O45 C44 1.245 . S
O46 Mg39 2.141 . S
O46 C44 1.289 . S
O47 Mg39 2.048 . S
O47 C40 1.195 . S
O48 Mg39 2.048 . S
O48 C49 1.195 . S
C49 O48 1.195 . S
C49 O50 1.313 . S
O50 C49 1.313 . S
O51 Mg39 2.141 . S
O51 C42 1.289 . S
Mg52 O59 2.141 . S
Mg52 O60 2.048 . S
Mg52 O61 2.048 . S
Mg52 O64 2.141 . S
C53 O54 1.313 . S
C53 O60 1.195 . S
O54 C53 1.313 . S
C55 O56 1.245 . S
C55 O64 1.289 1_554 S
O56 C55 1.245 . S
C57 O58 1.245 . S
C57 O59 1.289 1_554 S
O58 C57 1.245 . S
O59 Mg52 2.141 . S
O59 C57 1.289 1_556 S
O60 Mg52 2.048 . S
O60 C53 1.195 . S
O61 Mg52 2.048 . S
O61 C62 1.195 . S
C62 O61 1.195 . S
C62 O63 1.313 . S
O63 C62 1.313 . S
O64 Mg52 2.141 . S
O64 C55 1.289 1_556 S
Mg65 O72 2.141 . S
Mg65 O73 2.048 . S
Mg65 O74 2.048 . S
Mg65 O77 2.141 . S
C66 O67 1.313 . S
C66 O73 1.195 . S
O67 C66 1.313 . S
C68 O69 1.245 . S
C68 O77 1.289 . S
O69 C68 1.245 . S
C70 O71 1.245 . S
C70 O72 1.289 . S
O71 C70 1.245 . S
O72 Mg65 2.141 . S
O72 C70 1.289 . S
O73 Mg65 2.048 . S
O73 C66 1.195 . S
O74 Mg65 2.048 . S
O74 C75 1.195 . S
C75 O74 1.195 . S
C75 O76 1.313 . S
O76 C75 1.313 . S
O77 Mg65 2.141 . S
O77 C68 1.289 . S
Mg78 O85 2.141 . S
Mg78 O86 2.048 . S
Mg78 O87 2.048 . S
Mg78 O90 2.141 . S
C79 O80 1.313 . S
C79 O86 1.195 . S
O80 C79 1.313 . S
C81 O82 1.245 . S
C81 O90 1.289 1_556 S
O82 C81 1.245 . S
C83 O84 1.245 . S
C83 O85 1.289 1_556 S
O84 C83 1.245 . S
O85 Mg78 2.141 . S
O85 C83 1.289 1_554 S
O86 Mg78 2.048 . S
O86 C79 1.195 . S
O87 Mg78 2.048 . S
O87 C88 1.195 . S
C88 O87 1.195 . S
C88 O89 1.313 . S
O89 C88 1.313 . S
O90 Mg78 2.141 . S
O90 C81 1.289 1_554 S
Mg91 O98 2.141 . S
Mg91 O99 2.048 . S
Mg91 O100 2.048 . S
Mg91 O103 2.141 . S
C92 O93 1.313 . S
C92 O99 1.195 . S
O93 C92 1.313 . S
C94 O95 1.245 . S
C94 O103 1.289 . S
O95 C94 1.245 . S
C96 O97 1.245 . S
C96 O98 1.289 . S
O97 C96 1.245 . S
O98 Mg91 2.141 . S
O98 C96 1.289 . S
O99 Mg91 2.048 . S
O99 C92 1.195 . S
O100 Mg91 2.048 . S
O100 C101 1.195 . S
C101 O100 1.195 . S
C101 O102 1.313 . S
O102 C101 1.313 . S
O103 Mg91 2.141 . S
O103 C94 1.289 . S
C104 C105 1.369 . S
C104 C106 1.419 . S
C104 H108 0.930 . S
C105 C104 1.369 . S
C105 C114 1.429 . S
C106 C104 1.419 . S
C106 C107 1.363 . S
C106 H109 0.929 . S
C107 C106 1.363 . S
C107 C113 1.428 . S
H108 C104 0.930 . S
H109 C106 0.929 . S
S110 N111 1.613 . S
S110 N112 1.610 . S
N111 S110 1.613 . S
N111 C114 1.350 . S
N112 S110 1.610 . S
N112 C113 1.351 . S
C113 C107 1.428 . S
C113 N112 1.351 . S
C113 C114 1.434 . S
C114 C105 1.429 . S
C114 N111 1.350 . S
C114 C113 1.434 . S
C115 C116 1.369 . S
C115 C117 1.419 . S
C115 H119 0.930 . S
C116 C115 1.369 . S
C116 C125 1.429 . S
C117 C115 1.419 . S
C117 C118 1.363 . S
C117 H120 0.929 . S
C118 C117 1.363 . S
C118 C124 1.428 . S
H119 C115 0.930 . S
H120 C117 0.929 . S
S121 N122 1.613 . S
S121 N123 1.610 . S
N122 S121 1.613 . S
N122 C125 1.350 . S
N123 S121 1.610 . S
N123 C124 1.351 . S
C124 C118 1.428 . S
C124 N123 1.351 . S
C124 C125 1.434 . S
C125 C116 1.429 . S
C125 N122 1.350 . S
C125 C124 1.434 . S
C126 C127 1.369 . S
C126 C128 1.419 . S
C126 H130 0.930 . S
C127 C126 1.369 . S
C127 C136 1.429 . S
C128 C126 1.419 . S
C128 C129 1.363 . S
C128 H131 0.929 . S
C129 C128 1.363 . S
C129 C135 1.428 . S
H130 C126 0.930 . S
H131 C128 0.929 . S
S132 N133 1.613 . S
S132 N134 1.610 . S
N133 S132 1.613 . S
N133 C136 1.350 . S
N134 S132 1.610 . S
N134 C135 1.351 . S
C135 C129 1.428 . S
C135 N134 1.351 . S
C135 C136 1.434 . S
C136 C127 1.429 . S
C136 N133 1.350 . S
C136 C135 1.434 . S
C137 C138 1.369 . S
C137 C139 1.419 . S
C137 H141 0.930 . S
C138 C137 1.369 . S
C138 C147 1.429 . S
C139 C137 1.419 . S
C139 C140 1.363 . S
C139 H142 0.929 . S
C140 C139 1.363 . S
C140 C146 1.428 . S
H141 C137 0.930 . S
H142 C139 0.929 . S
S143 N144 1.613 . S
S143 N145 1.610 . S
N144 S143 1.613 . S
N144 C147 1.350 . S
N145 S143 1.610 . S
N145 C146 1.351 . S
C146 C140 1.428 . S
C146 N145 1.351 . S
C146 C147 1.434 . S
C147 C138 1.429 . S
C147 N144 1.350 . S
C147 C146 1.434 . S
C148 C149 1.369 . S
C148 C150 1.419 . S
C148 H152 0.930 . S
C149 C148 1.369 . S
C149 C158 1.429 . S
C150 C148 1.419 . S
C150 C151 1.363 . S
C150 H153 0.929 . S
C151 C150 1.363 . S
C151 C157 1.428 . S
H152 C148 0.930 . S
H153 C150 0.929 . S
S154 N155 1.613 . S
S154 N156 1.610 . S
N155 S154 1.613 . S
N155 C158 1.350 . S
N156 S154 1.610 . S
N156 C157 1.351 . S
C157 C151 1.428 . S
C157 N156 1.351 . S
C157 C158 1.434 . S
C158 C149 1.429 . S
C158 N155 1.350 . S
C158 C157 1.434 . S
C159 C160 1.369 . S
C159 C161 1.419 . S
C159 H163 0.930 . S
C160 C159 1.369 . S
C160 C169 1.429 . S
C161 C159 1.419 . S
C161 C162 1.363 . S
C161 H164 0.929 . S
C162 C161 1.363 . S
C162 C168 1.428 . S
H163 C159 0.930 . S
H164 C161 0.929 . S
S165 N166 1.613 . S
S165 N167 1.610 . S
N166 S165 1.613 . S
N166 C169 1.350 . S
N167 S165 1.610 . S
N167 C168 1.351 . S
C168 C162 1.428 . S
C168 N167 1.351 . S
C168 C169 1.434 . S
C169 C160 1.429 . S
C169 N166 1.350 . S
C169 C168 1.434 . S
C170 C171 1.369 . S
C170 C172 1.419 . S
C170 H174 0.930 . S
C171 C170 1.369 . S
C171 C180 1.429 . S
C172 C170 1.419 . S
C172 C173 1.363 . S
C172 H175 0.929 . S
C173 C172 1.363 . S
C173 C179 1.428 . S
H174 C170 0.930 . S
H175 C172 0.929 . S
S176 N177 1.613 . S
S176 N178 1.610 . S
N177 S176 1.613 . S
N177 C180 1.350 . S
N178 S176 1.610 . S
N178 C179 1.351 . S
C179 C173 1.428 . S
C179 N178 1.351 . S
C179 C180 1.434 . S
C180 C171 1.429 . S
C180 N177 1.350 . S
C180 C179 1.434 . S
C181 C182 1.369 . S
C181 C183 1.419 . S
C181 H185 0.930 . S
C182 C181 1.369 . S
C182 C191 1.429 . S
C183 C181 1.419 . S
C183 C184 1.363 . S
C183 H186 0.929 . S
C184 C183 1.363 . S
C184 C190 1.428 . S
H185 C181 0.930 . S
H186 C183 0.929 . S
S187 N188 1.613 . S
S187 N189 1.610 . S
N188 S187 1.613 . S
N188 C191 1.350 . S
N189 S187 1.610 . S
N189 C190 1.351 . S
C190 C184 1.428 . S
C190 N189 1.351 . S
C190 C191 1.434 . S
C191 C182 1.429 . S
C191 N188 1.350 . S
C191 C190 1.434 . S
C192 C193 1.369 . S
C192 C194 1.419 1_455 S
C192 H196 0.930 . S
C193 C192 1.369 . S
C193 C202 1.429 . S
C194 C192 1.419 1_655 S
C194 C195 1.363 . S
C194 H197 0.929 . S
C195 C194 1.363 . S
C195 C201 1.428 . S
H196 C192 0.930 . S
H197 C194 0.929 . S
S198 N199 1.613 . S
S198 N200 1.610 1_455 S
N199 S198 1.613 . S
N199 C202 1.350 . S
N200 S198 1.610 1_655 S
N200 C201 1.351 . S
C201 C195 1.428 . S
C201 N200 1.351 . S
C201 C202 1.434 1_655 S
C202 C193 1.429 . S
C202 N199 1.350 . S
C202 C201 1.434 1_455 S
C203 C204 1.369 . S
C203 C205 1.419 . S
C203 H207 0.930 . S
C204 C203 1.369 . S
C204 C213 1.429 . S
C205 C203 1.419 . S
C205 C206 1.363 . S
C205 H208 0.929 . S
C206 C205 1.363 . S
C206 C212 1.428 . S
H207 C203 0.930 . S
H208 C205 0.929 . S
S209 N210 1.613 . S
S209 N211 1.610 . S
N210 S209 1.613 . S
N210 C213 1.350 . S
N211 S209 1.610 . S
N211 C212 1.351 . S
C212 C206 1.428 . S
C212 N211 1.351 . S
C212 C213 1.434 . S
C213 C204 1.429 . S
C213 N210 1.350 . S
C213 C212 1.434 . S
C214 C215 1.369 . S
C214 C216 1.419 1_455 S
C214 H218 0.930 . S
C215 C214 1.369 . S
C215 C224 1.429 . S
C216 C214 1.419 1_655 S
C216 C217 1.363 . S
C216 H219 0.929 . S
C217 C216 1.363 . S
C217 C223 1.428 . S
H218 C214 0.930 . S
H219 C216 0.929 . S
S220 N221 1.613 . S
S220 N222 1.610 1_455 S
N221 S220 1.613 . S
N221 C224 1.350 . S
N222 S220 1.610 1_655 S
N222 C223 1.351 . S
C223 C217 1.428 . S
C223 N222 1.351 . S
C223 C224 1.434 1_655 S
C224 C215 1.429 . S
C224 N221 1.350 . S
C224 C223 1.434 1_455 S
C225 C226 1.369 . S
C225 C227 1.419 . S
C225 H229 0.930 . S
C226 C225 1.369 . S
C226 C235 1.429 . S
C227 C225 1.419 . S
C227 C228 1.363 . S
C227 H230 0.929 . S
C228 C227 1.363 . S
C228 C234 1.428 . S
H229 C225 0.930 . S
H230 C227 0.929 . S
S231 N232 1.613 . S
S231 N233 1.610 . S
N232 S231 1.613 . S
N232 C235 1.350 . S
N233 S231 1.610 . S
N233 C234 1.351 . S
C234 C228 1.428 . S
C234 N233 1.351 . S
C234 C235 1.434 . S
C235 C226 1.429 . S
C235 N232 1.350 . S
C235 C234 1.434 . S
C236 C237 1.369 . S
C236 C238 1.419 1_545 S
C236 H240 0.930 . S
C237 C236 1.369 . S
C237 C246 1.429 1_456 S
C238 C236 1.419 1_565 S
C238 C239 1.363 1_456 S
C238 H241 0.929 . S
C239 C238 1.363 1_654 S
C239 C245 1.434 . S
H240 C236 0.930 . S
H241 C238 0.929 . S
S242 N243 1.613 . S
S242 N244 1.610 . S
N243 S242 1.613 . S
N243 C246 1.350 . S
N244 S242 1.610 . S
N244 C245 1.350 1_545 S
C245 C239 1.434 . S
C245 N244 1.350 1_565 S
C245 C246 1.428 1_565 S
C246 C237 1.429 1_654 S
C246 N243 1.350 . S
C246 C245 1.428 1_545 S
C247 C248 1.369 . S
C247 C249 1.419 . S
C247 H251 0.930 . S
C248 C247 1.369 . S
C248 C257 1.429 . S
C249 C247 1.419 . S
C249 C250 1.363 . S
C249 H252 0.929 . S
C250 C249 1.363 . S
C250 C256 1.428 . S
H251 C247 0.930 . S
H252 C249 0.929 . S
S253 N254 1.613 . S
S253 N255 1.610 . S
N254 S253 1.613 . S
N254 C257 1.350 . S
N255 S253 1.610 . S
N255 C256 1.351 . S
C256 C250 1.428 . S
C256 N255 1.351 . S
C256 C257 1.434 . S
C257 C248 1.429 . S
C257 N254 1.350 . S
C257 C256 1.434 . S
C258 C259 1.369 1_554 S
C258 C260 1.419 . S
C258 H262 0.930 . S
C259 C258 1.369 1_556 S
C259 C268 1.429 . S
C260 C258 1.419 . S
C260 C261 1.363 . S
C260 H263 0.929 . S
C261 C260 1.363 . S
C261 C267 1.428 1_554 S
H262 C258 0.930 . S
H263 C260 0.929 . S
S264 N265 1.613 . S
S264 N266 1.610 . S
N265 S264 1.613 . S
N265 C268 1.350 . S
N266 S264 1.610 . S
N266 C267 1.351 . S
C267 C261 1.428 1_556 S
C267 N266 1.351 . S
C267 C268 1.434 . S
C268 C259 1.429 . S
C268 N265 1.350 . S
C268 C267 1.434 . S
C269 C270 1.369 1_655 S
C269 C271 1.419 1_565 S
C269 H273 0.930 . S
C270 C269 1.369 1_455 S
C270 C279 1.429 . S
C271 C269 1.419 1_545 S
C271 C272 1.363 . S
C271 H274 0.929 . S
C272 C271 1.363 . S
C272 C278 1.428 1_655 S
H273 C269 0.930 . S
H274 C271 0.929 . S
S275 N276 1.613 1_545 S
S275 N277 1.610 . S
N276 S275 1.613 1_565 S
N276 C279 1.350 . S
N277 S275 1.610 . S
N277 C278 1.351 . S
C278 C272 1.428 1_455 S
C278 N277 1.351 . S
C278 C279 1.434 1_545 S
C279 C270 1.429 . S
C279 N276 1.350 . S
C279 C278 1.434 1_565 S
C105 C23 1.985 . S
C107 C3 1.999 . S
C116 C10 1.982 . S
C118 C16 2.002 . S
C127 C49 1.985 . S
C129 C29 1.999 . S
C138 C36 1.985 . S
C140 C42 1.999 . S
C149 C57 2.002 . S
C151 C66 1.986 . S
C160 C70 1.998 . S
C162 C53 1.987 . S
C171 C83 2.001 . S
C173 C92 1.983 . S
C182 C79 1.988 . S
C184 C96 2.000 . S
C193 C1 0.855 . S
C195 C40 0.853 . S
C204 C14 0.861 . S
C206 C27 0.846 . S
C215 C101 0.860 . S
C217 C62 0.849 . S
C226 C88 0.855 . S
C228 C75 0.845 . S
C237 C5 2.041 . S
C239 C55 2.046 . S
C248 C68 2.048 . S
C250 C18 2.041 . S
C259 C81 2.048 . S
C261 C31 2.041 . S
C270 C94 2.040 . S
C272 C44 2.048 . S
